# Generated by pormake.
# Topology nfb, (4)-cn, num edge types: 1
# Building blocks:
#     Node 0, Type 0, BuildingBlock: ICAMEG_clean_sbu_1, # of connection points: 4
#     Node 1, Type 0, BuildingBlock: ICAMEG_clean_sbu_1, # of connection points: 4
#     Node 2, Type 0, BuildingBlock: ICAMEG_clean_sbu_1, # of connection points: 4
#     Node 3, Type 0, BuildingBlock: ICAMEG_clean_sbu_1, # of connection points: 4
#     Node 4, Type 0, BuildingBlock: ICAMEG_clean_sbu_1, # of connection points: 4
#     Node 5, Type 0, BuildingBlock: ICAMEG_clean_sbu_1, # of connection points: 4
#     Node 6, Type 0, BuildingBlock: ICAMEG_clean_sbu_1, # of connection points: 4
#     Node 7, Type 0, BuildingBlock: ICAMEG_clean_sbu_1, # of connection points: 4
#     Node 8, Type 0, BuildingBlock: ICAMEG_clean_sbu_1, # of connection points: 4
#     Node 9, Type 0, BuildingBlock: ICAMEG_clean_sbu_1, # of connection points: 4
#     Node 10, Type 0, BuildingBlock: ICAMEG_clean_sbu_1, # of connection points: 4
#     Node 11, Type 0, BuildingBlock: ICAMEG_clean_sbu_1, # of connection points: 4
#     Node 12, Type 0, BuildingBlock: ICAMEG_clean_sbu_1, # of connection points: 4
#     Node 13, Type 0, BuildingBlock: ICAMEG_clean_sbu_1, # of connection points: 4
#     Node 14, Type 0, BuildingBlock: ICAMEG_clean_sbu_1, # of connection points: 4
#     Node 15, Type 0, BuildingBlock: ICAMEG_clean_sbu_1, # of connection points: 4
#     Node 16, Type 0, BuildingBlock: ICAMEG_clean_sbu_1, # of connection points: 4
#     Node 17, Type 0, BuildingBlock: ICAMEG_clean_sbu_1, # of connection points: 4
#     Node 18, Type 0, BuildingBlock: ICAMEG_clean_sbu_1, # of connection points: 4
#     Node 19, Type 0, BuildingBlock: ICAMEG_clean_sbu_1, # of connection points: 4
#     Node 20, Type 0, BuildingBlock: ICAMEG_clean_sbu_1, # of connection points: 4
#     Node 21, Type 0, BuildingBlock: ICAMEG_clean_sbu_1, # of connection points: 4
#     Node 22, Type 0, BuildingBlock: ICAMEG_clean_sbu_1, # of connection points: 4
#     Node 23, Type 0, BuildingBlock: ICAMEG_clean_sbu_1, # of connection points: 4
#     Node 24, Type 0, BuildingBlock: ICAMEG_clean_sbu_1, # of connection points: 4
#     Node 25, Type 0, BuildingBlock: ICAMEG_clean_sbu_1, # of connection points: 4
#     Node 26, Type 0, BuildingBlock: ICAMEG_clean_sbu_1, # of connection points: 4
#     Node 27, Type 0, BuildingBlock: ICAMEG_clean_sbu_1, # of connection points: 4
#     Node 28, Type 0, BuildingBlock: ICAMEG_clean_sbu_1, # of connection points: 4
#     Node 29, Type 0, BuildingBlock: ICAMEG_clean_sbu_1, # of connection points: 4
#     Node 30, Type 0, BuildingBlock: ICAMEG_clean_sbu_1, # of connection points: 4
#     Node 31, Type 0, BuildingBlock: ICAMEG_clean_sbu_1, # of connection points: 4
#     Node 32, Type 0, BuildingBlock: ICAMEG_clean_sbu_1, # of connection points: 4
#     Node 33, Type 0, BuildingBlock: ICAMEG_clean_sbu_1, # of connection points: 4
#     Node 34, Type 0, BuildingBlock: ICAMEG_clean_sbu_1, # of connection points: 4
#     Node 35, Type 0, BuildingBlock: ICAMEG_clean_sbu_1, # of connection points: 4
#     Node 36, Type 0, BuildingBlock: ICAMEG_clean_sbu_1, # of connection points: 4
#     Node 37, Type 0, BuildingBlock: ICAMEG_clean_sbu_1, # of connection points: 4
#     Node 38, Type 0, BuildingBlock: ICAMEG_clean_sbu_1, # of connection points: 4
#     Node 39, Type 0, BuildingBlock: ICAMEG_clean_sbu_1, # of connection points: 4
#     Node 40, Type 0, BuildingBlock: ICAMEG_clean_sbu_1, # of connection points: 4
#     Node 41, Type 0, BuildingBlock: ICAMEG_clean_sbu_1, # of connection points: 4
#     Node 42, Type 0, BuildingBlock: ICAMEG_clean_sbu_1, # of connection points: 4
#     Node 43, Type 0, BuildingBlock: ICAMEG_clean_sbu_1, # of connection points: 4
#     Node 44, Type 0, BuildingBlock: ICAMEG_clean_sbu_1, # of connection points: 4
#     Node 45, Type 0, BuildingBlock: ICAMEG_clean_sbu_1, # of connection points: 4
#     Node 46, Type 0, BuildingBlock: ICAMEG_clean_sbu_1, # of connection points: 4
#     Node 47, Type 0, BuildingBlock: ICAMEG_clean_sbu_1, # of connection points: 4
#     Edge 48, Type (0, 0), BuildingBlock: MIFKUJ_clean_linker_0, # of connection points: 2
#     Edge 49, Type (0, 0), BuildingBlock: MIFKUJ_clean_linker_0, # of connection points: 2
#     Edge 50, Type (0, 0), BuildingBlock: MIFKUJ_clean_linker_0, # of connection points: 2
#     Edge 51, Type (0, 0), BuildingBlock: MIFKUJ_clean_linker_0, # of connection points: 2
#     Edge 52, Type (0, 0), BuildingBlock: MIFKUJ_clean_linker_0, # of connection points: 2
#     Edge 53, Type (0, 0), BuildingBlock: MIFKUJ_clean_linker_0, # of connection points: 2
#     Edge 54, Type (0, 0), BuildingBlock: MIFKUJ_clean_linker_0, # of connection points: 2
#     Edge 55, Type (0, 0), BuildingBlock: MIFKUJ_clean_linker_0, # of connection points: 2
#     Edge 56, Type (0, 0), BuildingBlock: MIFKUJ_clean_linker_0, # of connection points: 2
#     Edge 57, Type (0, 0), BuildingBlock: MIFKUJ_clean_linker_0, # of connection points: 2
#     Edge 58, Type (0, 0), BuildingBlock: MIFKUJ_clean_linker_0, # of connection points: 2
#     Edge 59, Type (0, 0), BuildingBlock: MIFKUJ_clean_linker_0, # of connection points: 2
#     Edge 60, Type (0, 0), BuildingBlock: MIFKUJ_clean_linker_0, # of connection points: 2
#     Edge 61, Type (0, 0), BuildingBlock: MIFKUJ_clean_linker_0, # of connection points: 2
#     Edge 62, Type (0, 0), BuildingBlock: MIFKUJ_clean_linker_0, # of connection points: 2
#     Edge 63, Type (0, 0), BuildingBlock: MIFKUJ_clean_linker_0, # of connection points: 2
#     Edge 64, Type (0, 0), BuildingBlock: MIFKUJ_clean_linker_0, # of connection points: 2
#     Edge 65, Type (0, 0), BuildingBlock: MIFKUJ_clean_linker_0, # of connection points: 2
#     Edge 66, Type (0, 0), BuildingBlock: MIFKUJ_clean_linker_0, # of connection points: 2
#     Edge 67, Type (0, 0), BuildingBlock: MIFKUJ_clean_linker_0, # of connection points: 2
#     Edge 68, Type (0, 0), BuildingBlock: MIFKUJ_clean_linker_0, # of connection points: 2
#     Edge 69, Type (0, 0), BuildingBlock: MIFKUJ_clean_linker_0, # of connection points: 2
#     Edge 70, Type (0, 0), BuildingBlock: MIFKUJ_clean_linker_0, # of connection points: 2
#     Edge 71, Type (0, 0), BuildingBlock: MIFKUJ_clean_linker_0, # of connection points: 2
#     Edge 72, Type (0, 0), BuildingBlock: MIFKUJ_clean_linker_0, # of connection points: 2
#     Edge 73, Type (0, 0), BuildingBlock: MIFKUJ_clean_linker_0, # of connection points: 2
#     Edge 74, Type (0, 0), BuildingBlock: MIFKUJ_clean_linker_0, # of connection points: 2
#     Edge 75, Type (0, 0), BuildingBlock: MIFKUJ_clean_linker_0, # of connection points: 2
#     Edge 76, Type (0, 0), BuildingBlock: MIFKUJ_clean_linker_0, # of connection points: 2
#     Edge 77, Type (0, 0), BuildingBlock: MIFKUJ_clean_linker_0, # of connection points: 2
#     Edge 78, Type (0, 0), BuildingBlock: MIFKUJ_clean_linker_0, # of connection points: 2
#     Edge 79, Type (0, 0), BuildingBlock: MIFKUJ_clean_linker_0, # of connection points: 2
#     Edge 80, Type (0, 0), BuildingBlock: MIFKUJ_clean_linker_0, # of connection points: 2
#     Edge 81, Type (0, 0), BuildingBlock: MIFKUJ_clean_linker_0, # of connection points: 2
#     Edge 82, Type (0, 0), BuildingBlock: MIFKUJ_clean_linker_0, # of connection points: 2
#     Edge 83, Type (0, 0), BuildingBlock: MIFKUJ_clean_linker_0, # of connection points: 2
#     Edge 84, Type (0, 0), BuildingBlock: MIFKUJ_clean_linker_0, # of connection points: 2
#     Edge 85, Type (0, 0), BuildingBlock: MIFKUJ_clean_linker_0, # of connection points: 2
#     Edge 86, Type (0, 0), BuildingBlock: MIFKUJ_clean_linker_0, # of connection points: 2
#     Edge 87, Type (0, 0), BuildingBlock: MIFKUJ_clean_linker_0, # of connection points: 2
#     Edge 88, Type (0, 0), BuildingBlock: MIFKUJ_clean_linker_0, # of connection points: 2
#     Edge 89, Type (0, 0), BuildingBlock: MIFKUJ_clean_linker_0, # of connection points: 2
#     Edge 90, Type (0, 0), BuildingBlock: MIFKUJ_clean_linker_0, # of connection points: 2
#     Edge 91, Type (0, 0), BuildingBlock: MIFKUJ_clean_linker_0, # of connection points: 2
#     Edge 92, Type (0, 0), BuildingBlock: MIFKUJ_clean_linker_0, # of connection points: 2
#     Edge 93, Type (0, 0), BuildingBlock: MIFKUJ_clean_linker_0, # of connection points: 2
#     Edge 94, Type (0, 0), BuildingBlock: MIFKUJ_clean_linker_0, # of connection points: 2
#     Edge 95, Type (0, 0), BuildingBlock: MIFKUJ_clean_linker_0, # of connection points: 2
#     Edge 96, Type (0, 0), BuildingBlock: MIFKUJ_clean_linker_0, # of connection points: 2
#     Edge 97, Type (0, 0), BuildingBlock: MIFKUJ_clean_linker_0, # of connection points: 2
#     Edge 98, Type (0, 0), BuildingBlock: MIFKUJ_clean_linker_0, # of connection points: 2
#     Edge 99, Type (0, 0), BuildingBlock: MIFKUJ_clean_linker_0, # of connection points: 2
#     Edge 100, Type (0, 0), BuildingBlock: MIFKUJ_clean_linker_0, # of connection points: 2
#     Edge 101, Type (0, 0), BuildingBlock: MIFKUJ_clean_linker_0, # of connection points: 2
#     Edge 102, Type (0, 0), BuildingBlock: MIFKUJ_clean_linker_0, # of connection points: 2
#     Edge 103, Type (0, 0), BuildingBlock: MIFKUJ_clean_linker_0, # of connection points: 2
#     Edge 104, Type (0, 0), BuildingBlock: MIFKUJ_clean_linker_0, # of connection points: 2
#     Edge 105, Type (0, 0), BuildingBlock: MIFKUJ_clean_linker_0, # of connection points: 2
#     Edge 106, Type (0, 0), BuildingBlock: MIFKUJ_clean_linker_0, # of connection points: 2
#     Edge 107, Type (0, 0), BuildingBlock: MIFKUJ_clean_linker_0, # of connection points: 2
#     Edge 108, Type (0, 0), BuildingBlock: MIFKUJ_clean_linker_0, # of connection points: 2
#     Edge 109, Type (0, 0), BuildingBlock: MIFKUJ_clean_linker_0, # of connection points: 2
#     Edge 110, Type (0, 0), BuildingBlock: MIFKUJ_clean_linker_0, # of connection points: 2
#     Edge 111, Type (0, 0), BuildingBlock: MIFKUJ_clean_linker_0, # of connection points: 2
#     Edge 112, Type (0, 0), BuildingBlock: MIFKUJ_clean_linker_0, # of connection points: 2
#     Edge 113, Type (0, 0), BuildingBlock: MIFKUJ_clean_linker_0, # of connection points: 2
#     Edge 114, Type (0, 0), BuildingBlock: MIFKUJ_clean_linker_0, # of connection points: 2
#     Edge 115, Type (0, 0), BuildingBlock: MIFKUJ_clean_linker_0, # of connection points: 2
#     Edge 116, Type (0, 0), BuildingBlock: MIFKUJ_clean_linker_0, # of connection points: 2
#     Edge 117, Type (0, 0), BuildingBlock: MIFKUJ_clean_linker_0, # of connection points: 2
#     Edge 118, Type (0, 0), BuildingBlock: MIFKUJ_clean_linker_0, # of connection points: 2
#     Edge 119, Type (0, 0), BuildingBlock: MIFKUJ_clean_linker_0, # of connection points: 2
#     Edge 120, Type (0, 0), BuildingBlock: MIFKUJ_clean_linker_0, # of connection points: 2
#     Edge 121, Type (0, 0), BuildingBlock: MIFKUJ_clean_linker_0, # of connection points: 2
#     Edge 122, Type (0, 0), BuildingBlock: MIFKUJ_clean_linker_0, # of connection points: 2
#     Edge 123, Type (0, 0), BuildingBlock: MIFKUJ_clean_linker_0, # of connection points: 2
#     Edge 124, Type (0, 0), BuildingBlock: MIFKUJ_clean_linker_0, # of connection points: 2
#     Edge 125, Type (0, 0), BuildingBlock: MIFKUJ_clean_linker_0, # of connection points: 2
#     Edge 126, Type (0, 0), BuildingBlock: MIFKUJ_clean_linker_0, # of connection points: 2
#     Edge 127, Type (0, 0), BuildingBlock: MIFKUJ_clean_linker_0, # of connection points: 2
#     Edge 128, Type (0, 0), BuildingBlock: MIFKUJ_clean_linker_0, # of connection points: 2
#     Edge 129, Type (0, 0), BuildingBlock: MIFKUJ_clean_linker_0, # of connection points: 2
#     Edge 130, Type (0, 0), BuildingBlock: MIFKUJ_clean_linker_0, # of connection points: 2
#     Edge 131, Type (0, 0), BuildingBlock: MIFKUJ_clean_linker_0, # of connection points: 2
#     Edge 132, Type (0, 0), BuildingBlock: MIFKUJ_clean_linker_0, # of connection points: 2
#     Edge 133, Type (0, 0), BuildingBlock: MIFKUJ_clean_linker_0, # of connection points: 2
#     Edge 134, Type (0, 0), BuildingBlock: MIFKUJ_clean_linker_0, # of connection points: 2
#     Edge 135, Type (0, 0), BuildingBlock: MIFKUJ_clean_linker_0, # of connection points: 2
#     Edge 136, Type (0, 0), BuildingBlock: MIFKUJ_clean_linker_0, # of connection points: 2
#     Edge 137, Type (0, 0), BuildingBlock: MIFKUJ_clean_linker_0, # of connection points: 2
#     Edge 138, Type (0, 0), BuildingBlock: MIFKUJ_clean_linker_0, # of connection points: 2
#     Edge 139, Type (0, 0), BuildingBlock: MIFKUJ_clean_linker_0, # of connection points: 2
#     Edge 140, Type (0, 0), BuildingBlock: MIFKUJ_clean_linker_0, # of connection points: 2
#     Edge 141, Type (0, 0), BuildingBlock: MIFKUJ_clean_linker_0, # of connection points: 2
#     Edge 142, Type (0, 0), BuildingBlock: MIFKUJ_clean_linker_0, # of connection points: 2
#     Edge 143, Type (0, 0), BuildingBlock: MIFKUJ_clean_linker_0, # of connection points: 2
# Relax obj value: 0.318
# Max RMSD: 0.137
# Mean RMSD: 0.109
data_MOF--net-nfb--node1-ICAMEG_clean_sbu_1--edge1-MIFKUJ_clean_linker_0
_symmetry_space_group_name_H-M    P1
_symmetry_Int_Tables_number       1
_symmetry_cell_setting            triclinic
loop_
_symmetry_equiv_pos_as_xyz
'x, y, z'
_cell_length_a     80.484442
_cell_length_b     80.674751
_cell_length_c     80.606534
_cell_angle_alpha  90.449024
_cell_angle_beta   91.510917
_cell_angle_gamma 92.984923
loop_
_atom_site_label
_atom_site_type_symbol
_atom_site_fract_x
_atom_site_fract_y
_atom_site_fract_z
_atom_type_partial_charge
Co0 Co 0.12348 0.11425 0.38976 0.0
Co1 Co 0.11511 0.14544 0.4175 0.0
O2 O 0.12695 0.13669 0.3989 0.0
C3 C 0.15891 0.11763 0.4007 0.0
O4 O 0.15315 0.12354 0.41449 0.0
C5 C 0.1108 0.16986 0.39058 0.0
O6 O 0.10824 0.15751 0.37996 0.0
O7 O 0.09338 0.13751 0.40732 0.0
O8 O 0.09831 0.11581 0.39067 0.0
H9 H 0.07267 0.14352 0.46214 0.0
H10 H 0.14524 0.13903 0.3725 0.0
O11 O 0.14866 0.11265 0.38905 0.0
H12 H 0.09987 0.12311 0.33226 0.0
H13 H 0.13614 0.0675 0.3512 0.0
H14 H 0.10058 0.08519 0.39629 0.0
H15 H 0.10086 0.11036 0.35997 0.0
H16 H 0.13989 0.09573 0.36323 0.0
O17 O 0.11344 0.16707 0.40592 0.0
H18 H 0.08796 0.13244 0.43873 0.0
H19 H 0.11701 0.17776 0.43583 0.0
H20 H 0.09628 0.05691 0.38452 0.0
H21 H 0.14481 0.15199 0.34489 0.0
H22 H 0.11415 0.04792 0.36181 0.0
H23 H 0.12198 0.14407 0.32457 0.0
O24 O 0.12376 0.10403 0.41224 0.0
H25 H 0.17178 0.17463 0.41695 0.0
H26 H 0.13202 0.14183 0.45066 0.0
H27 H 0.1597 0.15056 0.46266 0.0
H28 H 0.17966 0.16725 0.44585 0.0
H29 H 0.14433 0.16514 0.40523 0.0
H30 H 0.10205 0.18933 0.45922 0.0
H31 H 0.0797 0.17217 0.47254 0.0
O32 O 0.11633 0.12416 0.42957 0.0
C33 C 0.08838 0.12552 0.39769 0.0
C34 C 0.08239 0.15112 0.45644 0.0
C35 C 0.09887 0.17683 0.45481 0.0
N36 N 0.10342 0.15441 0.43598 0.0
C37 C 0.09112 0.1449 0.44322 0.0
C38 C 0.1073 0.17022 0.44156 0.0
C39 C 0.08633 0.1672 0.46227 0.0
C40 C 0.13536 0.13539 0.36366 0.0
N41 N 0.12313 0.12389 0.3678 0.0
C42 C 0.13514 0.14283 0.34807 0.0
C43 C 0.12231 0.1384 0.33669 0.0
C44 C 0.1099 0.12665 0.341 0.0
C45 C 0.1105 0.1195 0.35672 0.0
C46 C 0.12826 0.07129 0.36107 0.0
C47 C 0.10833 0.08138 0.38634 0.0
C48 C 0.13036 0.08723 0.36796 0.0
N49 N 0.12038 0.0921 0.38036 0.0
C50 C 0.10587 0.06535 0.37976 0.0
C51 C 0.11591 0.0603 0.36703 0.0
C52 C 0.11996 0.10933 0.42649 0.0
C53 C 0.16311 0.16749 0.42447 0.0
C54 C 0.14069 0.14902 0.44325 0.0
C55 C 0.15629 0.15399 0.45013 0.0
C56 C 0.16753 0.16333 0.44067 0.0
N57 N 0.13645 0.15313 0.42733 0.0
C58 C 0.14748 0.16218 0.41794 0.0
Co59 Co 0.36641 0.64114 0.90674 0.0
Co60 Co 0.37322 0.63183 0.86602 0.0
O61 O 0.37677 0.62852 0.88965 0.0
C62 C 0.4021 0.64548 0.91757 0.0
O63 O 0.40559 0.65322 0.90373 0.0
C64 C 0.3641 0.59605 0.87099 0.0
O65 O 0.35369 0.60131 0.88187 0.0
O66 O 0.34863 0.63043 0.86837 0.0
O67 O 0.34521 0.6421 0.89337 0.0
H68 H 0.3476 0.65689 0.81521 0.0
H69 H 0.38158 0.60944 0.91518 0.0
O70 O 0.3873 0.6402 0.92053 0.0
H71 H 0.32265 0.60156 0.92995 0.0
H72 H 0.35488 0.6556 0.96604 0.0
H73 H 0.34543 0.67034 0.9074 0.0
H74 H 0.33344 0.62822 0.91868 0.0
H75 H 0.36674 0.6393 0.94365 0.0
O76 O 0.37303 0.60667 0.8629 0.0
H77 H 0.35237 0.65323 0.8453 0.0
H78 H 0.38641 0.61599 0.83596 0.0
H79 H 0.33295 0.68667 0.92942 0.0
H80 H 0.37136 0.58271 0.92665 0.0
H81 H 0.33779 0.67945 0.95896 0.0
H82 H 0.34167 0.57855 0.93399 0.0
O83 O 0.37463 0.66229 0.89669 0.0
H84 H 0.43147 0.61381 0.87587 0.0
H85 H 0.39695 0.65527 0.84912 0.0
H86 H 0.42746 0.65774 0.84663 0.0
H87 H 0.44493 0.63689 0.86004 0.0
H88 H 0.40093 0.61188 0.87816 0.0
H89 H 0.38193 0.61915 0.80576 0.0
H90 H 0.36245 0.63977 0.79522 0.0
O91 O 0.37344 0.65703 0.86917 0.0
C92 C 0.33953 0.63637 0.87944 0.0
C93 C 0.35616 0.64791 0.81965 0.0
C94 C 0.37541 0.6267 0.81435 0.0
N95 N 0.36976 0.63452 0.84234 0.0
C96 C 0.35895 0.64582 0.83666 0.0
C97 C 0.37788 0.62495 0.83145 0.0
C98 C 0.36448 0.63828 0.80844 0.0
C99 C 0.36869 0.60783 0.91855 0.0
N100 N 0.35815 0.62042 0.91634 0.0
C101 C 0.36295 0.59262 0.92495 0.0
C102 C 0.34629 0.5903 0.92906 0.0
C103 C 0.33561 0.6032 0.92679 0.0
C104 C 0.34179 0.61826 0.92037 0.0
C105 C 0.35268 0.65888 0.9532 0.0
C106 C 0.3474 0.66697 0.92023 0.0
C107 C 0.3594 0.64972 0.94047 0.0
N108 N 0.35665 0.65378 0.92422 0.0
C109 C 0.3404 0.67634 0.93264 0.0
C110 C 0.3431 0.67226 0.94922 0.0
C111 C 0.37523 0.66708 0.88164 0.0
C112 C 0.42399 0.62294 0.86993 0.0
C113 C 0.40447 0.64617 0.85502 0.0
C114 C 0.42174 0.64762 0.85354 0.0
C115 C 0.43153 0.63591 0.86106 0.0
N116 N 0.39717 0.63338 0.86369 0.0
C117 C 0.40668 0.62188 0.87113 0.0
Co118 Co 0.88647 0.89683 0.39285 0.0
Co119 Co 0.9023 0.86635 0.41664 0.0
O120 O 0.88503 0.8743 0.40166 0.0
C121 C 0.85216 0.89218 0.40552 0.0
O122 O 0.85925 0.88626 0.41891 0.0
C123 C 0.89633 0.83926 0.39187 0.0
O124 O 0.896 0.85053 0.38023 0.0
O125 O 0.91913 0.87153 0.39983 0.0
O126 O 0.91192 0.89683 0.39201 0.0
H127 H 0.9594 0.86752 0.44354 0.0
H128 H 0.86381 0.87162 0.37586 0.0
O129 O 0.86123 0.89737 0.39363 0.0
H130 H 0.90353 0.89055 0.33358 0.0
H131 H 0.86734 0.94353 0.35728 0.0
H132 H 0.90838 0.92693 0.39968 0.0
H133 H 0.90542 0.90242 0.3619 0.0
H134 H 0.86639 0.91495 0.36802 0.0
O135 O 0.89858 0.84352 0.40703 0.0
H136 H 0.93648 0.87873 0.4269 0.0
H137 H 0.90545 0.83601 0.43711 0.0
H138 H 0.90988 0.9556 0.38919 0.0
H139 H 0.86132 0.85956 0.34763 0.0
H140 H 0.88925 0.96406 0.36783 0.0
H141 H 0.88132 0.86899 0.32628 0.0
O142 O 0.88826 0.90596 0.41576 0.0
H143 H 0.84744 0.84243 0.43628 0.0
H144 H 0.89963 0.87365 0.45281 0.0
H145 H 0.87818 0.86813 0.4736 0.0
H146 H 0.85186 0.85237 0.46539 0.0
H147 H 0.86913 0.84849 0.41581 0.0
H148 H 0.92786 0.82466 0.45433 0.0
H149 H 0.9551 0.84043 0.45755 0.0
O150 O 0.90668 0.889 0.42691 0.0
C151 C 0.92263 0.88562 0.39345 0.0
C152 C 0.94754 0.86062 0.44231 0.0
C153 C 0.92985 0.83653 0.44835 0.0
N154 N 0.91961 0.85807 0.43107 0.0
C155 C 0.93451 0.86689 0.4329 0.0
C156 C 0.91719 0.84305 0.43862 0.0
C157 C 0.94514 0.84538 0.45014 0.0
C158 C 0.87243 0.87591 0.36658 0.0
N159 N 0.88471 0.88773 0.3705 0.0
C160 C 0.87102 0.86898 0.35064 0.0
C161 C 0.88226 0.87426 0.33868 0.0
C162 C 0.89474 0.88634 0.34277 0.0
C163 C 0.89579 0.89297 0.35885 0.0
C164 C 0.87642 0.93999 0.36656 0.0
C165 C 0.89943 0.93049 0.3903 0.0
C166 C 0.87592 0.92383 0.3727 0.0
N167 N 0.88741 0.91926 0.38435 0.0
C168 C 0.90031 0.94676 0.38445 0.0
C169 C 0.88872 0.9515 0.37248 0.0
C170 C 0.89874 0.90228 0.42705 0.0
C171 C 0.85887 0.84926 0.44002 0.0
C172 C 0.88818 0.86688 0.44911 0.0
C173 C 0.8761 0.86373 0.46096 0.0
C174 C 0.86135 0.85487 0.45635 0.0
N175 N 0.88564 0.86139 0.4331 0.0
C176 C 0.87124 0.85265 0.4285 0.0
Co177 Co 0.65993 0.3622 0.916 0.0
Co178 Co 0.65182 0.37306 0.87543 0.0
O179 O 0.64871 0.37536 0.89931 0.0
C180 C 0.62414 0.35981 0.92486 0.0
O181 O 0.61966 0.36017 0.90911 0.0
C182 C 0.6598 0.40893 0.8827 0.0
O183 O 0.6699 0.4038 0.8944 0.0
O184 O 0.6765 0.37481 0.87852 0.0
O185 O 0.6809 0.36322 0.90332 0.0
H186 H 0.67678 0.35021 0.82414 0.0
H187 H 0.64329 0.39238 0.92626 0.0
O188 O 0.63942 0.36068 0.92942 0.0
H189 H 0.70216 0.40232 0.94375 0.0
H190 H 0.67454 0.34495 0.97428 0.0
H191 H 0.68207 0.33401 0.91474 0.0
H192 H 0.69253 0.37598 0.93007 0.0
H193 H 0.66096 0.36189 0.95304 0.0
O194 O 0.65163 0.39823 0.87344 0.0
H195 H 0.6726 0.35278 0.85426 0.0
H196 H 0.63766 0.38966 0.84577 0.0
H197 H 0.69598 0.31686 0.93555 0.0
H198 H 0.65236 0.41886 0.94002 0.0
H199 H 0.69225 0.32229 0.96557 0.0
H200 H 0.68201 0.42399 0.94881 0.0
O201 O 0.65228 0.3414 0.9043 0.0
H202 H 0.59362 0.39097 0.8832 0.0
H203 H 0.6279 0.34965 0.85704 0.0
H204 H 0.59737 0.34722 0.85314 0.0
H205 H 0.58002 0.36801 0.86623 0.0
H206 H 0.62416 0.39278 0.887 0.0
H207 H 0.64154 0.3876 0.81557 0.0
H208 H 0.66117 0.36771 0.80458 0.0
O209 O 0.65196 0.34779 0.87717 0.0
C210 C 0.68611 0.36927 0.88975 0.0
C211 C 0.66814 0.35888 0.82878 0.0
C212 C 0.64838 0.37989 0.82397 0.0
N213 N 0.6548 0.37125 0.85173 0.0
C214 C 0.66569 0.36035 0.8458 0.0
C215 C 0.64626 0.38102 0.84107 0.0
C216 C 0.6594 0.36872 0.81781 0.0
C217 C 0.65617 0.39445 0.93022 0.0
N218 N 0.66734 0.38261 0.92744 0.0
C219 C 0.66125 0.4095 0.93793 0.0
C220 C 0.67789 0.41237 0.94284 0.0
C221 C 0.68921 0.40023 0.93999 0.0
C222 C 0.68369 0.38535 0.93221 0.0
C223 C 0.6763 0.34249 0.96124 0.0
C224 C 0.68048 0.33652 0.92778 0.0
C225 C 0.66862 0.35202 0.94916 0.0
N226 N 0.67085 0.34904 0.93267 0.0
C227 C 0.68835 0.32674 0.93951 0.0
C228 C 0.68624 0.32978 0.95634 0.0
C229 C 0.651 0.33723 0.88901 0.0
C230 C 0.60105 0.38186 0.8774 0.0
C231 C 0.62043 0.35867 0.86289 0.0
C232 C 0.60315 0.35727 0.86058 0.0
C233 C 0.59343 0.36895 0.8679 0.0
N234 N 0.62781 0.37135 0.87223 0.0
C235 C 0.61836 0.38287 0.87943 0.0
Co236 Co 0.13033 0.87032 0.63634 0.0
Co237 Co 0.13709 0.86157 0.59516 0.0
O238 O 0.12659 0.8736 0.61267 0.0
C239 C 0.09416 0.8633 0.63018 0.0
O240 O 0.09879 0.85383 0.61803 0.0
C241 C 0.14642 0.89672 0.58695 0.0
O242 O 0.15375 0.89873 0.60162 0.0
O243 O 0.15944 0.86587 0.6059 0.0
O244 O 0.15533 0.86969 0.63322 0.0
H245 H 0.17567 0.82103 0.57143 0.0
H246 H 0.1109 0.89835 0.62447 0.0
O247 O 0.1053 0.87089 0.63949 0.0
H248 H 0.15862 0.92409 0.65657 0.0
H249 H 0.11985 0.88069 0.6967 0.0
H250 H 0.15173 0.84926 0.65683 0.0
H251 H 0.15503 0.89364 0.65373 0.0
H252 H 0.11589 0.88465 0.66654 0.0
O253 O 0.13954 0.88275 0.5825 0.0
H254 H 0.1619 0.83567 0.5938 0.0
H255 H 0.13492 0.8629 0.55823 0.0
H256 H 0.15618 0.84499 0.68688 0.0
H257 H 0.11392 0.92885 0.62711 0.0
H258 H 0.14017 0.86078 0.70703 0.0
H259 H 0.13795 0.94191 0.64323 0.0
O260 O 0.12797 0.84568 0.63377 0.0
H261 H 0.08038 0.87663 0.57458 0.0
H262 H 0.11876 0.8313 0.58123 0.0
H263 H 0.09074 0.82527 0.56881 0.0
H264 H 0.07134 0.84804 0.56541 0.0
H265 H 0.10845 0.88209 0.58706 0.0
H266 H 0.14848 0.84865 0.53545 0.0
H267 H 0.16898 0.82752 0.542 0.0
O268 O 0.13465 0.84026 0.60746 0.0
C269 C 0.16488 0.86813 0.62082 0.0
C270 C 0.16672 0.83019 0.56841 0.0
C271 C 0.15148 0.84571 0.54822 0.0
N272 N 0.14755 0.85005 0.57733 0.0
C273 C 0.15886 0.83848 0.58103 0.0
C274 C 0.14387 0.85376 0.56117 0.0
C275 C 0.16298 0.83384 0.5519 0.0
C276 C 0.12131 0.90394 0.63161 0.0
N277 N 0.13273 0.89423 0.63901 0.0
C278 C 0.12299 0.92122 0.63302 0.0
C279 C 0.13648 0.92854 0.64204 0.0
C280 C 0.14809 0.91855 0.64953 0.0
C281 C 0.14602 0.90132 0.64784 0.0
C282 C 0.12692 0.87376 0.68804 0.0
C283 C 0.1448 0.85625 0.66555 0.0
C284 C 0.12471 0.87593 0.67097 0.0
N285 N 0.13367 0.86729 0.65998 0.0
C286 C 0.14734 0.85374 0.68253 0.0
C287 C 0.13833 0.86259 0.69383 0.0
C288 C 0.13074 0.83562 0.62199 0.0
C289 C 0.08875 0.86662 0.57593 0.0
C290 C 0.11039 0.84127 0.5798 0.0
C291 C 0.09455 0.83779 0.57274 0.0
C292 C 0.08367 0.85057 0.57082 0.0
N293 N 0.11528 0.85706 0.58478 0.0
C294 C 0.10469 0.86966 0.58292 0.0
Co295 Co 0.64638 0.6169 0.09061 0.0
Co296 Co 0.61544 0.62624 0.11709 0.0
O297 O 0.63749 0.63022 0.10811 0.0
C298 C 0.67333 0.61655 0.11645 0.0
O299 O 0.6625 0.61035 0.12693 0.0
C300 C 0.61652 0.6614 0.10623 0.0
O301 O 0.62113 0.65544 0.09197 0.0
O302 O 0.60483 0.62555 0.09444 0.0
O303 O 0.62415 0.61387 0.07921 0.0
H304 H 0.55864 0.59791 0.12127 0.0
H305 H 0.66243 0.65002 0.09878 0.0
O306 O 0.66887 0.61975 0.1016 0.0
H307 H 0.64458 0.6529 0.03992 0.0
H308 H 0.69021 0.60216 0.0504 0.0
H309 H 0.63536 0.58578 0.07271 0.0
H310 H 0.63976 0.62708 0.05566 0.0
H311 H 0.6778 0.61929 0.0718 0.0
O312 O 0.61322 0.65134 0.11808 0.0
H313 H 0.58668 0.60256 0.10995 0.0
H314 H 0.59707 0.64274 0.14361 0.0
H315 H 0.6472 0.5684 0.05116 0.0
H316 H 0.66764 0.67603 0.08346 0.0
H317 H 0.67484 0.57655 0.03988 0.0
H318 H 0.65862 0.67761 0.05383 0.0
O319 O 0.64141 0.5963 0.10322 0.0
H320 H 0.654 0.64953 0.16252 0.0
H321 H 0.61271 0.60449 0.1467 0.0
H322 H 0.62617 0.60457 0.17455 0.0
H323 H 0.64695 0.62724 0.18263 0.0
H324 H 0.64033 0.64888 0.13475 0.0
H325 H 0.56909 0.63864 0.15522 0.0
H326 H 0.5497 0.61604 0.14407 0.0
O327 O 0.61758 0.60106 0.11605 0.0
C328 C 0.60949 0.61868 0.08118 0.0
C329 C 0.567 0.60777 0.12627 0.0
C330 C 0.57286 0.63064 0.14531 0.0
N331 N 0.59351 0.62282 0.12622 0.0
C332 C 0.5829 0.61042 0.11994 0.0
C333 C 0.58866 0.63293 0.13867 0.0
C334 C 0.56198 0.61795 0.13905 0.0
C335 C 0.65865 0.65054 0.08584 0.0
N336 N 0.65088 0.63702 0.07811 0.0
C337 C 0.66156 0.66533 0.07724 0.0
C338 C 0.65647 0.66622 0.06063 0.0
C339 C 0.64858 0.65236 0.05282 0.0
C340 C 0.64586 0.63779 0.06181 0.0
C341 C 0.67813 0.59851 0.05517 0.0
C342 C 0.6473 0.5895 0.06774 0.0
C343 C 0.67105 0.60814 0.06732 0.0
N344 N 0.65579 0.60362 0.07339 0.0
C345 C 0.65398 0.57957 0.05558 0.0
C346 C 0.6695 0.58414 0.04928 0.0
C347 C 0.62863 0.59125 0.11118 0.0
C348 C 0.64492 0.63962 0.15917 0.0
C349 C 0.62177 0.61437 0.15011 0.0
C350 C 0.62932 0.61437 0.16591 0.0
C351 C 0.64098 0.62709 0.17043 0.0
N352 N 0.62566 0.62672 0.13915 0.0
C353 C 0.6371 0.63922 0.14348 0.0
Co354 Co 0.86855 0.12656 0.63642 0.0
Co355 Co 0.85837 0.13538 0.5961 0.0
O356 O 0.87149 0.12416 0.61267 0.0
C357 C 0.90446 0.13523 0.6319 0.0
O358 O 0.89928 0.14596 0.62102 0.0
C359 C 0.85427 0.10066 0.58255 0.0
O360 O 0.84581 0.09584 0.59552 0.0
O361 O 0.83748 0.12596 0.60565 0.0
O362 O 0.84333 0.12701 0.63317 0.0
H363 H 0.81315 0.17128 0.57555 0.0
H364 H 0.88796 0.09923 0.62349 0.0
O365 O 0.89373 0.12625 0.63976 0.0
H366 H 0.84188 0.07184 0.65382 0.0
H367 H 0.88179 0.1146 0.69635 0.0
H368 H 0.84775 0.14673 0.65775 0.0
H369 H 0.84484 0.10239 0.65237 0.0
H370 H 0.88446 0.11155 0.66606 0.0
O371 O 0.85972 0.11567 0.58113 0.0
H372 H 0.82896 0.15612 0.59658 0.0
H373 H 0.85951 0.1376 0.55923 0.0
H374 H 0.84459 0.15009 0.68793 0.0
H375 H 0.88554 0.06865 0.62472 0.0
H376 H 0.86169 0.13395 0.70745 0.0
H377 H 0.86235 0.05477 0.63995 0.0
O378 O 0.87029 0.15117 0.63489 0.0
H379 H 0.91693 0.13352 0.57622 0.0
H380 H 0.87032 0.16938 0.58602 0.0
H381 H 0.89658 0.18166 0.57535 0.0
H382 H 0.92011 0.16368 0.57037 0.0
H383 H 0.89051 0.12178 0.58705 0.0
H384 H 0.84333 0.15174 0.53767 0.0
H385 H 0.82004 0.16886 0.54581 0.0
O386 O 0.85704 0.15545 0.61059 0.0
C387 C 0.83302 0.1254 0.62073 0.0
C388 C 0.82313 0.16371 0.57183 0.0
C389 C 0.84013 0.15281 0.55058 0.0
N390 N 0.84527 0.14614 0.57917 0.0
C391 C 0.83226 0.15524 0.58371 0.0
C392 C 0.84918 0.14475 0.56284 0.0
C393 C 0.82706 0.16241 0.55515 0.0
C394 C 0.87791 0.09327 0.63025 0.0
N395 N 0.86662 0.10257 0.63794 0.0
C396 C 0.87657 0.07596 0.63085 0.0
C397 C 0.86354 0.06818 0.63939 0.0
C398 C 0.85205 0.07775 0.64717 0.0
C399 C 0.85377 0.09503 0.64628 0.0
C400 C 0.87424 0.12168 0.68797 0.0
C401 C 0.85515 0.13958 0.66617 0.0
C402 C 0.87572 0.12002 0.67082 0.0
N403 N 0.86616 0.12885 0.66017 0.0
C404 C 0.85334 0.14158 0.68324 0.0
C405 C 0.86296 0.13253 0.69419 0.0
C406 C 0.86335 0.16059 0.62448 0.0
C407 C 0.90674 0.14147 0.57828 0.0
C408 C 0.8805 0.16147 0.58391 0.0
C409 C 0.89533 0.16849 0.57783 0.0
C410 C 0.90853 0.1584 0.57503 0.0
N411 N 0.87883 0.14485 0.58706 0.0
C412 C 0.89172 0.13487 0.58433 0.0
Co413 Co 0.36745 0.39579 0.07953 0.0
Co414 Co 0.39633 0.38599 0.10954 0.0
O415 O 0.37494 0.38224 0.09782 0.0
C416 C 0.33949 0.39488 0.10255 0.0
O417 O 0.35036 0.39834 0.11467 0.0
C418 C 0.39512 0.35075 0.09825 0.0
O419 O 0.39123 0.35666 0.08362 0.0
O420 O 0.40844 0.38655 0.08826 0.0
O421 O 0.39039 0.39843 0.07091 0.0
H422 H 0.45283 0.41377 0.12096 0.0
H423 H 0.35017 0.36302 0.08514 0.0
O424 O 0.34426 0.39352 0.0877 0.0
H425 H 0.37218 0.35975 0.02875 0.0
H426 H 0.32748 0.41116 0.03378 0.0
H427 H 0.3802 0.42688 0.06379 0.0
H428 H 0.37641 0.38546 0.0454 0.0
H429 H 0.33769 0.39391 0.05663 0.0
O430 O 0.39825 0.36086 0.11042 0.0
H431 H 0.42566 0.4094 0.10623 0.0
H432 H 0.41265 0.36926 0.13793 0.0
H433 H 0.37052 0.44442 0.04094 0.0
H434 H 0.34549 0.33712 0.06883 0.0
H435 H 0.34398 0.43659 0.02576 0.0
H436 H 0.3566 0.33535 0.04045 0.0
O437 O 0.37172 0.41621 0.09307 0.0
H438 H 0.3549 0.36268 0.1499 0.0
H439 H 0.39708 0.40772 0.13966 0.0
H440 H 0.38179 0.40762 0.16578 0.0
H441 H 0.36054 0.38496 0.17104 0.0
H442 H 0.37035 0.36335 0.12387 0.0
H443 H 0.43973 0.37308 0.15292 0.0
H444 H 0.46 0.39552 0.14448 0.0
O445 O 0.39449 0.41125 0.10869 0.0
C446 C 0.40478 0.39342 0.07456 0.0
C447 C 0.44408 0.40398 0.12478 0.0
C448 C 0.43674 0.38113 0.14271 0.0
N449 N 0.41756 0.38918 0.12132 0.0
C450 C 0.42866 0.40149 0.11653 0.0
C451 C 0.42145 0.379 0.13416 0.0
C452 C 0.4481 0.39373 0.13797 0.0
C453 C 0.35486 0.36241 0.07271 0.0
N454 N 0.36348 0.37576 0.06621 0.0
C455 C 0.35224 0.34769 0.06357 0.0
C456 C 0.3585 0.34669 0.04766 0.0
C457 C 0.36726 0.36037 0.04109 0.0
C458 C 0.36966 0.37489 0.0506 0.0
C459 C 0.33908 0.41468 0.04027 0.0
C460 C 0.3687 0.42332 0.05717 0.0
C461 C 0.34491 0.40498 0.05324 0.0
N462 N 0.35961 0.4093 0.06143 0.0
C463 C 0.36325 0.43334 0.04428 0.0
C464 C 0.34835 0.42895 0.03578 0.0
C465 C 0.38384 0.42115 0.10271 0.0
C466 C 0.36416 0.37259 0.14777 0.0
C467 C 0.38781 0.39785 0.14183 0.0
C468 C 0.37923 0.39784 0.15667 0.0
C469 C 0.36732 0.38511 0.15962 0.0
N470 N 0.38466 0.38552 0.13028 0.0
C471 C 0.37301 0.37299 0.13309 0.0
Co472 Co 0.40671 0.12608 0.14485 0.0
Co473 Co 0.38409 0.13558 0.10929 0.0
O474 O 0.39006 0.13854 0.13294 0.0
C475 C 0.37761 0.12709 0.1678 0.0
O476 O 0.36805 0.13344 0.15634 0.0
C477 C 0.39584 0.171 0.11325 0.0
O478 O 0.40846 0.1652 0.1216 0.0
O479 O 0.40783 0.13569 0.10279 0.0
O480 O 0.42148 0.12743 0.12557 0.0
H481 H 0.38641 0.10976 0.05253 0.0
H482 H 0.39396 0.15647 0.16021 0.0
O483 O 0.39258 0.12386 0.16489 0.0
H484 H 0.45459 0.16742 0.15707 0.0
H485 H 0.44142 0.11039 0.19467 0.0
H486 H 0.42812 0.09884 0.1355 0.0
H487 H 0.44147 0.14074 0.14719 0.0
H488 H 0.42066 0.12639 0.17957 0.0
O489 O 0.38469 0.1608 0.10682 0.0
H490 H 0.39395 0.11326 0.08226 0.0
H491 H 0.36113 0.15255 0.08625 0.0
H492 H 0.44906 0.08265 0.15009 0.0
H493 H 0.40657 0.18319 0.17043 0.0
H494 H 0.45583 0.08838 0.17989 0.0
H495 H 0.43711 0.18886 0.16884 0.0
O496 O 0.39637 0.10482 0.13609 0.0
H497 H 0.33435 0.15784 0.13669 0.0
H498 H 0.35436 0.11297 0.10175 0.0
H499 H 0.32481 0.11243 0.10914 0.0
H500 H 0.31461 0.13501 0.12668 0.0
H501 H 0.36387 0.15773 0.12927 0.0
H502 H 0.35331 0.14958 0.05653 0.0
H503 H 0.36596 0.12802 0.03947 0.0
O504 O 0.38376 0.11036 0.1116 0.0
C505 C 0.42098 0.13134 0.11032 0.0
C506 C 0.38078 0.11917 0.05984 0.0
C507 C 0.36222 0.14153 0.06208 0.0
N508 N 0.37788 0.133 0.08599 0.0
C509 C 0.38496 0.12116 0.07669 0.0
C510 C 0.36671 0.14318 0.07889 0.0
C511 C 0.36931 0.12942 0.05252 0.0
C512 C 0.40727 0.15866 0.15974 0.0
N513 N 0.41696 0.1469 0.15332 0.0
C514 C 0.41434 0.1739 0.16544 0.0
C515 C 0.43147 0.17709 0.16451 0.0
C516 C 0.44128 0.16507 0.1579 0.0
C517 C 0.43377 0.14999 0.1523 0.0
C518 C 0.4386 0.10779 0.18167 0.0
C519 C 0.43107 0.10148 0.14844 0.0
C520 C 0.42682 0.11678 0.17306 0.0
N521 N 0.42325 0.11362 0.15663 0.0
C522 C 0.44291 0.09224 0.15665 0.0
C523 C 0.44668 0.09545 0.17337 0.0
C524 C 0.38866 0.10016 0.12267 0.0
C525 C 0.33864 0.14794 0.12902 0.0
C526 C 0.35007 0.12275 0.10955 0.0
C527 C 0.33329 0.12242 0.11361 0.0
C528 C 0.32757 0.13511 0.12343 0.0
N529 N 0.36085 0.13535 0.11512 0.0
C530 C 0.35532 0.14786 0.1247 0.0
Co531 Co 0.37929 0.86673 0.6314 0.0
Co532 Co 0.37403 0.90878 0.63601 0.0
O533 O 0.38404 0.88992 0.62582 0.0
C534 C 0.41526 0.87324 0.6392 0.0
O535 O 0.41052 0.88631 0.64723 0.0
C536 C 0.3598 0.92542 0.60678 0.0
O537 O 0.34526 0.92358 0.61376 0.0
O538 O 0.35138 0.89775 0.6329 0.0
O539 O 0.35448 0.87019 0.63067 0.0
H540 H 0.33544 0.93695 0.67393 0.0
H541 H 0.40097 0.87533 0.60318 0.0
O542 O 0.40423 0.86332 0.63219 0.0
H543 H 0.35382 0.84094 0.57901 0.0
H544 H 0.38841 0.80559 0.62796 0.0
H545 H 0.35569 0.84866 0.65334 0.0
H546 H 0.3554 0.84729 0.60902 0.0
H547 H 0.39364 0.83511 0.62103 0.0
O548 O 0.37246 0.91909 0.61351 0.0
H549 H 0.34847 0.91304 0.66134 0.0
H550 H 0.37822 0.94546 0.63173 0.0
H551 H 0.34994 0.81928 0.66053 0.0
H552 H 0.39998 0.86915 0.57313 0.0
H553 H 0.36638 0.79752 0.64781 0.0
H554 H 0.37626 0.85186 0.56087 0.0
O555 O 0.38009 0.8717 0.65571 0.0
H556 H 0.43188 0.92589 0.61857 0.0
H557 H 0.39248 0.92608 0.66435 0.0
H558 H 0.42108 0.93797 0.66897 0.0
H559 H 0.44104 0.9378 0.64601 0.0
H560 H 0.40323 0.91394 0.61455 0.0
H561 H 0.36551 0.96974 0.64393 0.0
H562 H 0.34394 0.96555 0.66522 0.0
O563 O 0.37579 0.89886 0.65847 0.0
C564 C 0.3454 0.8828 0.63136 0.0
C565 C 0.34483 0.93894 0.66468 0.0
C566 C 0.3617 0.95735 0.64786 0.0
N567 N 0.36411 0.92786 0.64584 0.0
C568 C 0.35226 0.92545 0.65753 0.0
C569 C 0.36887 0.94356 0.641 0.0
C570 C 0.34961 0.95498 0.65979 0.0
C571 C 0.39067 0.86771 0.59794 0.0
N572 N 0.3783 0.86161 0.60784 0.0
C573 C 0.39015 0.86429 0.58092 0.0
C574 C 0.37683 0.8546 0.57404 0.0
C575 C 0.36423 0.84848 0.58421 0.0
C576 C 0.36516 0.85216 0.60118 0.0
C577 C 0.38114 0.81495 0.63357 0.0
C578 C 0.36281 0.83924 0.64767 0.0
C579 C 0.38408 0.83168 0.62972 0.0
N580 N 0.37489 0.84356 0.63669 0.0
C581 C 0.35954 0.82264 0.65183 0.0
C582 C 0.36878 0.81043 0.6447 0.0
C583 C 0.37814 0.88462 0.66454 0.0
C584 C 0.42331 0.92598 0.62869 0.0
C585 C 0.40109 0.92593 0.65432 0.0
C586 C 0.41726 0.93272 0.65699 0.0
C587 C 0.42845 0.93264 0.6441 0.0
N588 N 0.39618 0.91925 0.63923 0.0
C589 C 0.40703 0.91932 0.62646 0.0
Co590 Co 0.5815 0.8828 0.14466 0.0
Co591 Co 0.61207 0.87637 0.11648 0.0
O592 O 0.60146 0.87257 0.13762 0.0
C593 C 0.60532 0.89126 0.17251 0.0
O594 O 0.61587 0.89745 0.16175 0.0
C595 C 0.60244 0.84036 0.11649 0.0
O596 O 0.58771 0.84527 0.1202 0.0
O597 O 0.59042 0.87431 0.10364 0.0
O598 O 0.57131 0.88091 0.12206 0.0
H599 H 0.62055 0.90317 0.06109 0.0
H600 H 0.59384 0.85476 0.16412 0.0
O601 O 0.59114 0.88507 0.16768 0.0
H602 H 0.5398 0.83402 0.13999 0.0
H603 H 0.53506 0.89151 0.1839 0.0
H604 H 0.5597 0.90813 0.13079 0.0
H605 H 0.54997 0.86307 0.13566 0.0
H606 H 0.56054 0.87902 0.17445 0.0
O607 O 0.61427 0.8513 0.11412 0.0
H608 H 0.60674 0.89835 0.08772 0.0
H609 H 0.64085 0.86178 0.1004 0.0
H610 H 0.53417 0.92087 0.13972 0.0
H611 H 0.58376 0.826 0.16937 0.0
H612 H 0.52168 0.91257 0.16645 0.0
H613 H 0.55659 0.81542 0.15712 0.0
O614 O 0.59107 0.90531 0.13899 0.0
H615 H 0.655 0.85928 0.15849 0.0
H616 H 0.64094 0.90102 0.11674 0.0
H617 H 0.66755 0.90434 0.13261 0.0
H618 H 0.67473 0.88335 0.15365 0.0
H619 H 0.62847 0.85652 0.14242 0.0
H620 H 0.65494 0.86606 0.07382 0.0
H621 H 0.64483 0.88695 0.054 0.0
O622 O 0.60962 0.90133 0.11895 0.0
C623 C 0.57563 0.87737 0.10748 0.0
C624 C 0.6251 0.89407 0.06964 0.0
C625 C 0.64439 0.87322 0.07678 0.0
N626 N 0.62307 0.87987 0.09561 0.0
C627 C 0.61736 0.89132 0.08475 0.0
C628 C 0.63634 0.87081 0.09178 0.0
C629 C 0.63871 0.88495 0.06566 0.0
C630 C 0.58176 0.85046 0.15918 0.0
N631 N 0.57237 0.86073 0.14983 0.0
C632 C 0.57619 0.83408 0.16206 0.0
C633 C 0.56097 0.82815 0.15516 0.0
C634 C 0.55148 0.83865 0.14561 0.0
C635 C 0.55734 0.85504 0.14316 0.0
C636 C 0.54038 0.89523 0.17223 0.0
C637 C 0.55432 0.90442 0.14242 0.0
C638 C 0.55482 0.88821 0.16683 0.0
N639 N 0.56155 0.89278 0.15205 0.0
C640 C 0.53988 0.9117 0.14742 0.0
C641 C 0.53288 0.90705 0.16243 0.0
C642 C 0.60138 0.91084 0.12825 0.0
C643 C 0.65203 0.86848 0.14932 0.0
C644 C 0.64396 0.89186 0.1259 0.0
C645 C 0.65906 0.89379 0.13482 0.0
C646 C 0.66309 0.882 0.14662 0.0
N647 N 0.63321 0.87855 0.1286 0.0
C648 C 0.63706 0.86695 0.14015 0.0
Co649 Co 0.61855 0.13387 0.62957 0.0
Co650 Co 0.62841 0.09375 0.6372 0.0
O651 O 0.61471 0.10996 0.62657 0.0
C652 C 0.58327 0.12674 0.63805 0.0
O653 O 0.58914 0.11549 0.64798 0.0
C654 C 0.63609 0.07272 0.60854 0.0
O655 O 0.65188 0.07551 0.61269 0.0
O656 O 0.6485 0.10473 0.6277 0.0
O657 O 0.64377 0.13194 0.62945 0.0
H658 H 0.67788 0.07498 0.67002 0.0
H659 H 0.59615 0.12067 0.60221 0.0
O660 O 0.59342 0.13594 0.62975 0.0
H661 H 0.64034 0.15436 0.57505 0.0
H662 H 0.60588 0.19344 0.61958 0.0
H663 H 0.64196 0.15573 0.6499 0.0
H664 H 0.64039 0.15172 0.60552 0.0
H665 H 0.60198 0.16309 0.61576 0.0
O666 O 0.62495 0.07951 0.61681 0.0
H667 H 0.66039 0.09544 0.65649 0.0
H668 H 0.62595 0.05685 0.6398 0.0
H669 H 0.6464 0.18599 0.65398 0.0
H670 H 0.59553 0.12308 0.57171 0.0
H671 H 0.62827 0.20507 0.63876 0.0
H672 H 0.61775 0.14001 0.55794 0.0
O673 O 0.61907 0.13161 0.65411 0.0
H674 H 0.56938 0.07004 0.63505 0.0
H675 H 0.61895 0.08263 0.67111 0.0
H676 H 0.59345 0.07023 0.68322 0.0
H677 H 0.56842 0.06385 0.66515 0.0
H678 H 0.59506 0.08265 0.62347 0.0
H679 H 0.64313 0.03593 0.65302 0.0
H680 H 0.66928 0.04499 0.66833 0.0
O681 O 0.63198 0.10778 0.65765 0.0
C682 C 0.65346 0.11997 0.6273 0.0
C683 C 0.6665 0.07089 0.66341 0.0
C684 C 0.647 0.04896 0.65388 0.0
N685 N 0.6421 0.07734 0.64746 0.0
C686 C 0.65653 0.08241 0.65575 0.0
C687 C 0.63732 0.06085 0.64642 0.0
C688 C 0.66167 0.05406 0.66246 0.0
C689 C 0.6058 0.12815 0.59631 0.0
N690 N 0.61823 0.13613 0.60563 0.0
C691 C 0.60541 0.12942 0.57903 0.0
C692 C 0.61789 0.13891 0.57131 0.0
C693 C 0.63057 0.14696 0.58091 0.0
C694 C 0.63056 0.14539 0.59815 0.0
C695 C 0.61388 0.18526 0.62626 0.0
C696 C 0.63411 0.16396 0.64314 0.0
C697 C 0.61171 0.16807 0.62417 0.0
N698 N 0.62183 0.15769 0.63249 0.0
C699 C 0.63664 0.18108 0.64555 0.0
C700 C 0.62645 0.19178 0.63702 0.0
C701 C 0.62656 0.12128 0.66309 0.0
C702 C 0.58021 0.07275 0.64305 0.0
C703 C 0.60811 0.07995 0.66316 0.0
C704 C 0.59371 0.07288 0.67009 0.0
C705 C 0.57967 0.0693 0.65994 0.0
N706 N 0.60853 0.08332 0.64657 0.0
C707 C 0.59483 0.07978 0.63654 0.0
Co708 Co 0.41963 0.87279 0.87045 0.0
Co709 Co 0.37856 0.88186 0.87615 0.0
O710 O 0.40249 0.88508 0.88113 0.0
C711 C 0.43039 0.87519 0.90686 0.0
O712 O 0.4169 0.88238 0.91117 0.0
C713 C 0.38664 0.91745 0.86911 0.0
O714 O 0.39871 0.91192 0.86033 0.0
O715 O 0.38191 0.8824 0.8518 0.0
O716 O 0.40768 0.87382 0.84854 0.0
H717 H 0.32737 0.85588 0.84745 0.0
H718 H 0.42771 0.90417 0.88947 0.0
O719 O 0.43263 0.87107 0.89183 0.0
H720 H 0.44996 0.91399 0.83386 0.0
H721 H 0.47837 0.8577 0.85966 0.0
H722 H 0.41893 0.84511 0.84601 0.0
H723 H 0.43649 0.88688 0.84077 0.0
H724 H 0.4568 0.8737 0.87262 0.0
O725 O 0.37675 0.90702 0.87632 0.0
H726 H 0.35749 0.85968 0.85381 0.0
H727 H 0.34875 0.89815 0.88826 0.0
H728 H 0.44012 0.82892 0.83263 0.0
H729 H 0.44083 0.93145 0.88305 0.0
H730 H 0.47008 0.83517 0.83945 0.0
H731 H 0.45216 0.93655 0.85508 0.0
O732 O 0.4075 0.8514 0.8755 0.0
H733 H 0.38476 0.90317 0.93489 0.0
H734 H 0.35983 0.85871 0.8984 0.0
H735 H 0.35516 0.85763 0.92849 0.0
H736 H 0.36762 0.88001 0.94695 0.0
H737 H 0.38934 0.90361 0.90476 0.0
H738 H 0.31854 0.89486 0.88219 0.0
H739 H 0.30768 0.87356 0.86169 0.0
O740 O 0.38027 0.85674 0.87574 0.0
C741 C 0.39368 0.87808 0.84273 0.0
C742 C 0.33195 0.86517 0.85645 0.0
C743 C 0.32699 0.88706 0.87593 0.0
N744 N 0.35484 0.87902 0.87149 0.0
C745 C 0.34898 0.86733 0.86014 0.0
C746 C 0.34411 0.88889 0.8793 0.0
C747 C 0.32091 0.8751 0.86443 0.0
C748 C 0.43273 0.90612 0.87734 0.0
N749 N 0.43142 0.89379 0.86558 0.0
C750 C 0.44008 0.92169 0.87373 0.0
C751 C 0.44637 0.92456 0.85802 0.0
C752 C 0.44515 0.91191 0.84612 0.0
C753 C 0.43751 0.89656 0.85011 0.0
C754 C 0.46536 0.85488 0.85656 0.0
C755 C 0.43195 0.84799 0.84894 0.0
C756 C 0.45308 0.86387 0.86389 0.0
N757 N 0.43662 0.86043 0.85996 0.0
C758 C 0.44389 0.83874 0.84137 0.0
C759 C 0.4607 0.84224 0.84522 0.0
C760 C 0.39215 0.84669 0.87625 0.0
C761 C 0.37924 0.89335 0.92697 0.0
C762 C 0.36544 0.8684 0.90636 0.0
C763 C 0.36268 0.86777 0.92339 0.0
C764 C 0.36965 0.88034 0.93373 0.0
N765 N 0.37489 0.88119 0.89983 0.0
C766 C 0.38173 0.89358 0.90989 0.0
Co767 Co 0.63675 0.89561 0.40223 0.0
Co768 Co 0.63041 0.93082 0.37918 0.0
O769 O 0.64071 0.90991 0.38316 0.0
C770 C 0.67285 0.90507 0.40322 0.0
O771 O 0.66807 0.92022 0.4011 0.0
C772 C 0.62188 0.91067 0.34924 0.0
O773 O 0.61713 0.89866 0.35923 0.0
O774 O 0.60798 0.92057 0.38388 0.0
O775 O 0.61176 0.89825 0.39994 0.0
H776 H 0.59381 0.97744 0.39273 0.0
H777 H 0.65682 0.8841 0.37441 0.0
O778 O 0.66182 0.89314 0.40457 0.0
H779 H 0.60884 0.84371 0.37711 0.0
H780 H 0.64707 0.84581 0.43747 0.0
H781 H 0.61472 0.89575 0.43116 0.0
H782 H 0.61211 0.86708 0.39705 0.0
H783 H 0.65135 0.86439 0.4136 0.0
O784 O 0.62724 0.92469 0.35516 0.0
H785 H 0.60635 0.95051 0.39716 0.0
H786 H 0.63233 0.95588 0.35217 0.0
H787 H 0.60993 0.87744 0.45513 0.0
H788 H 0.65413 0.86084 0.35432 0.0
H789 H 0.62618 0.85227 0.4584 0.0
H790 H 0.62997 0.84048 0.35556 0.0
O791 O 0.63862 0.91469 0.41822 0.0
H792 H 0.68652 0.93346 0.35311 0.0
H793 H 0.64945 0.96172 0.39064 0.0
H794 H 0.67751 0.97415 0.38575 0.0
H795 H 0.69625 0.96001 0.36685 0.0
H796 H 0.6584 0.92139 0.35845 0.0
H797 H 0.61988 0.98277 0.34714 0.0
H798 H 0.60057 0.99376 0.36756 0.0
O799 O 0.63354 0.93719 0.40291 0.0
C800 C 0.60233 0.90833 0.39241 0.0
C801 C 0.60222 0.97279 0.38375 0.0
C802 C 0.61685 0.97577 0.35815 0.0
N803 N 0.62016 0.95169 0.375 0.0
C804 C 0.6094 0.95757 0.38621 0.0
C805 C 0.6238 0.96051 0.36103 0.0
C806 C 0.60602 0.98194 0.36963 0.0
C807 C 0.64637 0.87519 0.37515 0.0
N808 N 0.63469 0.87688 0.38696 0.0
C809 C 0.64487 0.86209 0.36369 0.0
C810 C 0.6313 0.85068 0.36438 0.0
C811 C 0.61944 0.85249 0.37646 0.0
C812 C 0.62134 0.86576 0.3877 0.0
C813 C 0.6399 0.85673 0.43617 0.0
C814 C 0.62176 0.88476 0.43245 0.0
C815 C 0.6423 0.86731 0.42271 0.0
N816 N 0.63321 0.88106 0.42096 0.0
C817 C 0.61903 0.87447 0.44607 0.0
C818 C 0.62817 0.86035 0.4479 0.0
C819 C 0.63671 0.93018 0.41663 0.0
C820 C 0.67843 0.93979 0.36131 0.0
C821 C 0.65753 0.95549 0.3824 0.0
C822 C 0.6734 0.9626 0.37966 0.0
C823 C 0.6839 0.95466 0.36904 0.0
N824 N 0.65224 0.9409 0.37475 0.0
C825 C 0.66247 0.93305 0.36432 0.0
Co826 Co 0.61237 0.13547 0.85948 0.0
Co827 Co 0.64923 0.12207 0.87396 0.0
O828 O 0.62495 0.11988 0.8725 0.0
C829 C 0.59357 0.13218 0.89078 0.0
O830 O 0.6075 0.13466 0.8995 0.0
C831 C 0.6414 0.08636 0.86588 0.0
O832 O 0.63167 0.09172 0.85399 0.0
O833 O 0.65004 0.12072 0.84936 0.0
O834 O 0.63069 0.13882 0.84323 0.0
H835 H 0.70577 0.14489 0.858 0.0
H836 H 0.59656 0.1024 0.86684 0.0
O837 O 0.59361 0.13245 0.875 0.0
H838 H 0.59642 0.10568 0.80578 0.0
H839 H 0.56033 0.15716 0.83346 0.0
H840 H 0.62057 0.16796 0.84386 0.0
H841 H 0.60787 0.12915 0.82304 0.0
H842 H 0.57677 0.13682 0.84849 0.0
O843 O 0.64981 0.09688 0.87513 0.0
H844 H 0.67506 0.14252 0.85685 0.0
H845 H 0.67511 0.105 0.8935 0.0
H846 H 0.60465 0.18854 0.82866 0.0
H847 H 0.58478 0.07872 0.85005 0.0
H848 H 0.57427 0.18327 0.82351 0.0
H849 H 0.58474 0.08025 0.81929 0.0
O850 O 0.62228 0.15396 0.87333 0.0
H851 H 0.62895 0.10396 0.9297 0.0
H852 H 0.66501 0.14455 0.90014 0.0
H853 H 0.6632 0.1466 0.93058 0.0
H854 H 0.64509 0.12618 0.94557 0.0
H855 H 0.63099 0.10248 0.89925 0.0
H856 H 0.70582 0.10685 0.89496 0.0
H857 H 0.72134 0.12696 0.87716 0.0
O858 O 0.64908 0.14752 0.87296 0.0
C859 C 0.64267 0.13002 0.83917 0.0
C860 C 0.69914 0.13612 0.86585 0.0
C861 C 0.69917 0.11475 0.88658 0.0
N862 N 0.67333 0.12374 0.87519 0.0
C863 C 0.68176 0.13476 0.86529 0.0
C864 C 0.68179 0.11373 0.88568 0.0
C865 C 0.70787 0.12604 0.8766 0.0
C866 C 0.59639 0.10325 0.85346 0.0
N867 N 0.60286 0.11717 0.84594 0.0
C868 C 0.58978 0.08976 0.84402 0.0
C869 C 0.58979 0.09061 0.82676 0.0
C870 C 0.59636 0.10487 0.81917 0.0
C871 C 0.60287 0.11811 0.82901 0.0
C872 C 0.57355 0.15962 0.83568 0.0
C873 C 0.60739 0.16549 0.84154 0.0
C874 C 0.58292 0.14816 0.84421 0.0
N875 N 0.59963 0.15118 0.84704 0.0
C876 C 0.59843 0.17722 0.83296 0.0
C877 C 0.58138 0.17426 0.83009 0.0
C878 C 0.63775 0.15798 0.87498 0.0
C879 C 0.63692 0.1129 0.92332 0.0
C880 C 0.65705 0.13566 0.90657 0.0
C881 C 0.65611 0.13686 0.92381 0.0
C882 C 0.64596 0.12539 0.93221 0.0
N883 N 0.64816 0.12337 0.89794 0.0
C884 C 0.63818 0.11208 0.90609 0.0
Co885 Co 0.3741 0.12454 0.39877 0.0
Co886 Co 0.38714 0.09531 0.37188 0.0
O887 O 0.37193 0.1123 0.37778 0.0
C888 C 0.33876 0.11212 0.39611 0.0
O889 O 0.34474 0.0977 0.39269 0.0
C890 C 0.38481 0.11651 0.34238 0.0
O891 O 0.38704 0.12935 0.35244 0.0
O892 O 0.40628 0.11152 0.37498 0.0
O893 O 0.39956 0.12446 0.3985 0.0
H894 H 0.43769 0.06189 0.37957 0.0
H895 H 0.35356 0.1379 0.37141 0.0
O896 O 0.34882 0.12462 0.39936 0.0
H897 H 0.39767 0.18131 0.38373 0.0
H898 H 0.35818 0.1679 0.43978 0.0
H899 H 0.39503 0.12218 0.4294 0.0
H900 H 0.39628 0.15534 0.39971 0.0
H901 H 0.35643 0.15261 0.4131 0.0
O902 O 0.38488 0.10183 0.34805 0.0
H903 H 0.41869 0.08376 0.38649 0.0
H904 H 0.38841 0.07111 0.34383 0.0
H905 H 0.3973 0.13722 0.45621 0.0
H906 H 0.35437 0.16376 0.35525 0.0
H907 H 0.37878 0.16026 0.46152 0.0
H908 H 0.37658 0.18565 0.36134 0.0
O909 O 0.37336 0.10343 0.41124 0.0
H910 H 0.33017 0.07583 0.35038 0.0
H911 H 0.37938 0.0608 0.38359 0.0
H912 H 0.35535 0.04072 0.3804 0.0
H913 H 0.33052 0.04817 0.36368 0.0
H914 H 0.35441 0.09564 0.35404 0.0
H915 H 0.40734 0.04937 0.33622 0.0
H916 H 0.43208 0.04451 0.35426 0.0
O917 O 0.3897 0.08834 0.3956 0.0
C918 C 0.41017 0.1205 0.38769 0.0
C919 C 0.4269 0.06381 0.37166 0.0
C920 C 0.40989 0.05683 0.3473 0.0
N921 N 0.40236 0.0786 0.36567 0.0
C922 C 0.41608 0.07618 0.37552 0.0
C923 C 0.39927 0.06922 0.35163 0.0
C924 C 0.42376 0.05409 0.35745 0.0
C925 C 0.36315 0.14746 0.37426 0.0
N926 N 0.37483 0.14514 0.38652 0.0
C927 C 0.36359 0.16204 0.36502 0.0
C928 C 0.37608 0.1743 0.36842 0.0
C929 C 0.38793 0.17186 0.38097 0.0
C930 C 0.38711 0.15711 0.38993 0.0
C931 C 0.36634 0.15791 0.43759 0.0
C932 C 0.38701 0.13226 0.43159 0.0
C933 C 0.36539 0.14919 0.42253 0.0
N934 N 0.37572 0.13662 0.41967 0.0
C935 C 0.38832 0.1407 0.44681 0.0
C936 C 0.37791 0.15362 0.44979 0.0
C937 C 0.38212 0.09098 0.409 0.0
C938 C 0.34094 0.07242 0.35766 0.0
C939 C 0.36859 0.0642 0.37636 0.0
C940 C 0.35504 0.05274 0.37456 0.0
C941 C 0.34112 0.05692 0.36515 0.0
N942 N 0.36832 0.0794 0.36898 0.0
C943 C 0.35473 0.08356 0.3597 0.0
Co944 Co 0.13503 0.42053 0.10354 0.0
Co945 Co 0.10553 0.39283 0.11792 0.0
O946 O 0.12746 0.4043 0.11983 0.0
C947 C 0.16322 0.3988 0.10806 0.0
O948 O 0.1525 0.38598 0.10691 0.0
C949 C 0.10844 0.40559 0.15276 0.0
O950 O 0.11297 0.41989 0.14617 0.0
O951 O 0.09493 0.41449 0.1171 0.0
O952 O 0.11193 0.42818 0.09965 0.0
H953 H 0.04757 0.38213 0.09427 0.0
H954 H 0.15191 0.42081 0.13672 0.0
O955 O 0.15827 0.41348 0.10693 0.0
H956 H 0.12943 0.47624 0.13083 0.0
H957 H 0.1756 0.46327 0.08025 0.0
H958 H 0.12278 0.43053 0.07024 0.0
H959 H 0.12566 0.45552 0.10824 0.0
H960 H 0.16457 0.44424 0.10159 0.0
O961 O 0.10446 0.39315 0.14321 0.0
H962 H 0.07556 0.3961 0.09627 0.0
H963 H 0.08846 0.36569 0.13689 0.0
H964 H 0.13345 0.44924 0.0485 0.0
H965 H 0.15615 0.44123 0.15958 0.0
H966 H 0.16008 0.46574 0.05342 0.0
H967 H 0.14481 0.46915 0.15674 0.0
O968 O 0.1312 0.40375 0.08569 0.0
H969 H 0.14524 0.35222 0.14089 0.0
H970 H 0.10235 0.36168 0.09765 0.0
H971 H 0.11605 0.33504 0.09821 0.0
H972 H 0.13764 0.33016 0.11997 0.0
H973 H 0.13137 0.37876 0.13974 0.0
H974 H 0.06055 0.35147 0.13545 0.0
H975 H 0.03991 0.35964 0.11397 0.0
O976 O 0.1063 0.39235 0.09243 0.0
C977 C 0.09831 0.42645 0.10734 0.0
C978 C 0.05647 0.37842 0.10365 0.0
C979 C 0.06375 0.36123 0.12677 0.0
N980 N 0.08366 0.38161 0.11658 0.0
C981 C 0.07235 0.38625 0.1048 0.0
C982 C 0.07952 0.36934 0.12756 0.0
C983 C 0.05218 0.36581 0.11471 0.0
C984 C 0.14713 0.433 0.13531 0.0
N985 N 0.1386 0.43698 0.12114 0.0
C986 C 0.14949 0.44449 0.14833 0.0
C987 C 0.14309 0.46014 0.14674 0.0
C988 C 0.13445 0.46412 0.13222 0.0
C989 C 0.13232 0.45232 0.11948 0.0
C990 C 0.164 0.45613 0.07795 0.0
C991 C 0.13433 0.43772 0.07252 0.0
C992 C 0.15767 0.44536 0.09 0.0
N993 N 0.14302 0.43632 0.08719 0.0
C994 C 0.14035 0.44825 0.06013 0.0
C995 C 0.15529 0.4575 0.0629 0.0
C996 C 0.11769 0.39555 0.08182 0.0
C997 C 0.13581 0.35418 0.13137 0.0
C998 C 0.11179 0.35968 0.10711 0.0
C999 C 0.11947 0.34455 0.10739 0.0
C1000 C 0.13157 0.34182 0.11961 0.0
N1001 N 0.11603 0.37174 0.11868 0.0
C1002 C 0.12786 0.36915 0.13072 0.0
Co1003 Co 0.13364 0.59581 0.87273 0.0
Co1004 Co 0.12909 0.6367 0.88235 0.0
O1005 O 0.12422 0.61314 0.8857 0.0
C1006 C 0.09743 0.58637 0.86995 0.0
O1007 O 0.09481 0.60067 0.86296 0.0
C1008 C 0.1366 0.6308 0.91796 0.0
O1009 O 0.14599 0.61925 0.91243 0.0
O1010 O 0.15346 0.63361 0.88347 0.0
O1011 O 0.15539 0.60878 0.87102 0.0
H1012 H 0.15775 0.6868 0.85699 0.0
H1013 H 0.11831 0.58729 0.90489 0.0
O1014 O 0.11207 0.58254 0.87427 0.0
H1015 H 0.17659 0.57166 0.91069 0.0
H1016 H 0.1419 0.53622 0.85747 0.0
H1017 H 0.15412 0.59471 0.84266 0.0
H1018 H 0.16609 0.58333 0.88449 0.0
H1019 H 0.1316 0.55887 0.87449 0.0
O1020 O 0.12905 0.63987 0.90751 0.0
H1021 H 0.15134 0.65683 0.86071 0.0
H1022 H 0.11733 0.66715 0.89835 0.0
H1023 H 0.16484 0.57245 0.82543 0.0
H1024 H 0.12824 0.57544 0.93123 0.0
H1025 H 0.1587 0.54296 0.83278 0.0
H1026 H 0.1576 0.56763 0.93428 0.0
O1027 O 0.12589 0.60608 0.85188 0.0
H1028 H 0.07011 0.62858 0.90085 0.0
H1029 H 0.10678 0.65421 0.85907 0.0
H1030 H 0.07651 0.65759 0.85683 0.0
H1031 H 0.05797 0.64475 0.87784 0.0
H1032 H 0.10042 0.62541 0.90255 0.0
H1033 H 0.12346 0.69724 0.89516 0.0
H1034 H 0.14375 0.70722 0.8743 0.0
O1035 O 0.12923 0.6335 0.85714 0.0
C1036 C 0.16183 0.62252 0.8767 0.0
C1037 C 0.14884 0.6826 0.86608 0.0
C1038 C 0.12961 0.68846 0.88752 0.0
N1039 N 0.13388 0.66028 0.87963 0.0
C1040 C 0.14513 0.66566 0.8682 0.0
C1041 C 0.12622 0.67142 0.8893 0.0
C1042 C 0.141 0.69405 0.87581 0.0
C1043 C 0.13103 0.5837 0.90604 0.0
N1044 N 0.14157 0.58594 0.89313 0.0
C1045 C 0.13661 0.57708 0.92101 0.0
C1046 C 0.1531 0.57273 0.92273 0.0
C1047 C 0.16377 0.575 0.9095 0.0
C1048 C 0.15775 0.58166 0.89471 0.0
C1049 C 0.14471 0.54902 0.85419 0.0
C1050 C 0.15156 0.58191 0.84606 0.0
C1051 C 0.1389 0.56191 0.86376 0.0
N1052 N 0.14241 0.5781 0.85967 0.0
C1053 C 0.1576 0.56936 0.83621 0.0
C1054 C 0.15414 0.55282 0.84033 0.0
C1055 C 0.12687 0.62111 0.84704 0.0
C1056 C 0.07807 0.63428 0.89165 0.0
C1057 C 0.09878 0.64856 0.86824 0.0
C1058 C 0.08166 0.65054 0.86693 0.0
C1059 C 0.07126 0.64334 0.87873 0.0
N1060 N 0.10536 0.63971 0.88099 0.0
C1061 C 0.09525 0.63258 0.89258 0.0
Co1062 Co 0.92046 0.64321 0.36993 0.0
Co1063 Co 0.88097 0.62879 0.37872 0.0
O1064 O 0.90495 0.62963 0.38275 0.0
C1065 C 0.93588 0.61046 0.36903 0.0
O1066 O 0.92195 0.60357 0.36272 0.0
C1067 C 0.8855 0.6376 0.41439 0.0
O1068 O 0.89562 0.64962 0.40919 0.0
O1069 O 0.8806 0.65347 0.37964 0.0
O1070 O 0.90433 0.66098 0.36708 0.0
H1071 H 0.82745 0.64495 0.35139 0.0
H1072 H 0.93165 0.63062 0.40262 0.0
O1073 O 0.93712 0.6259 0.37246 0.0
H1074 H 0.93627 0.69161 0.40805 0.0
H1075 H 0.97724 0.66821 0.3571 0.0
H1076 H 0.91809 0.66325 0.33928 0.0
H1077 H 0.92698 0.67827 0.38148 0.0
H1078 H 0.95697 0.65134 0.37308 0.0
O1079 O 0.87793 0.62785 0.40373 0.0
H1080 H 0.85791 0.64589 0.35614 0.0
H1081 H 0.85268 0.60977 0.39394 0.0
H1082 H 0.9379 0.68046 0.32308 0.0
H1083 H 0.94136 0.64344 0.42923 0.0
H1084 H 0.96772 0.68301 0.33197 0.0
H1085 H 0.94362 0.67416 0.43209 0.0
O1086 O 0.91149 0.63258 0.34905 0.0
H1087 H 0.89726 0.57281 0.3984 0.0
H1088 H 0.8667 0.6028 0.35522 0.0
H1089 H 0.86763 0.57233 0.3533 0.0
H1090 H 0.88297 0.55713 0.37503 0.0
H1091 H 0.89614 0.60329 0.39975 0.0
H1092 H 0.82215 0.60854 0.38972 0.0
H1093 H 0.80937 0.62617 0.36827 0.0
O1094 O 0.88398 0.62979 0.35366 0.0
C1095 C 0.89017 0.66418 0.37261 0.0
C1096 C 0.83288 0.63717 0.36074 0.0
C1097 C 0.8299 0.61675 0.38227 0.0
N1098 N 0.85704 0.6278 0.3752 0.0
C1099 C 0.85011 0.63761 0.36344 0.0
C1100 C 0.84718 0.61753 0.38463 0.0
C1101 C 0.82274 0.62664 0.37023 0.0
C1102 C 0.9329 0.644 0.40365 0.0
N1103 N 0.92888 0.65368 0.39046 0.0
C1104 C 0.9383 0.65119 0.4188 0.0
C1105 C 0.93953 0.66842 0.4204 0.0
C1106 C 0.93542 0.67822 0.4069 0.0
C1107 C 0.93012 0.6706 0.39192 0.0
C1108 C 0.96427 0.66724 0.35313 0.0
C1109 C 0.93102 0.66439 0.3433 0.0
C1110 C 0.95274 0.65766 0.3621 0.0
N1111 N 0.93632 0.65643 0.35721 0.0
C1112 C 0.94219 0.67411 0.33404 0.0
C1113 C 0.95892 0.67553 0.33903 0.0
C1114 C 0.89642 0.62992 0.34395 0.0
C1115 C 0.89049 0.57929 0.38889 0.0
C1116 C 0.87343 0.59627 0.36469 0.0
C1117 C 0.87389 0.57902 0.36356 0.0
C1118 C 0.88249 0.5705 0.37576 0.0
N1119 N 0.88128 0.60479 0.37764 0.0
C1120 C 0.88976 0.59653 0.38962 0.0
Co1121 Co 0.89136 0.42298 0.88431 0.0
Co1122 Co 0.89798 0.3819 0.89211 0.0
O1123 O 0.90214 0.40551 0.89615 0.0
C1124 C 0.92712 0.43217 0.87894 0.0
O1125 O 0.92876 0.4179 0.87139 0.0
C1126 C 0.88961 0.38741 0.92724 0.0
O1127 O 0.88025 0.39889 0.92122 0.0
O1128 O 0.8734 0.38397 0.89163 0.0
O1129 O 0.86942 0.41022 0.88388 0.0
H1130 H 0.87155 0.33114 0.86369 0.0
H1131 H 0.91084 0.4307 0.91546 0.0
O1132 O 0.91317 0.43602 0.88457 0.0
H1133 H 0.85392 0.44709 0.92628 0.0
H1134 H 0.88188 0.48282 0.8717 0.0
H1135 H 0.86698 0.42459 0.85613 0.0
H1136 H 0.86085 0.4359 0.8989 0.0
H1137 H 0.89418 0.45987 0.88699 0.0
O1138 O 0.89764 0.37859 0.91721 0.0
H1139 H 0.87688 0.36123 0.86844 0.0
H1140 H 0.91045 0.35181 0.90837 0.0
H1141 H 0.85418 0.44713 0.84067 0.0
H1142 H 0.90447 0.4419 0.94299 0.0
H1143 H 0.86167 0.4765 0.84841 0.0
H1144 H 0.87582 0.45012 0.94857 0.0
O1145 O 0.89624 0.41279 0.86259 0.0
H1146 H 0.95638 0.39182 0.91496 0.0
H1147 H 0.92133 0.36535 0.87008 0.0
H1148 H 0.95177 0.36302 0.8699 0.0
H1149 H 0.9695 0.37628 0.89249 0.0
H1150 H 0.92592 0.39396 0.91457 0.0
H1151 H 0.90539 0.32161 0.90415 0.0
H1152 H 0.88586 0.31111 0.88163 0.0
O1153 O 0.89824 0.38539 0.86706 0.0
C1154 C 0.86401 0.39555 0.88732 0.0
C1155 C 0.88013 0.33556 0.87351 0.0
C1156 C 0.8991 0.33021 0.89624 0.0
N1157 N 0.89406 0.35823 0.88857 0.0
C1158 C 0.88323 0.35258 0.87622 0.0
C1159 C 0.90189 0.34731 0.89859 0.0
C1160 C 0.88815 0.32433 0.88359 0.0
C1161 C 0.89839 0.43445 0.91772 0.0
N1162 N 0.88625 0.43274 0.90555 0.0
C1163 C 0.89484 0.44071 0.93336 0.0
C1164 C 0.87876 0.44529 0.93649 0.0
C1165 C 0.86646 0.44358 0.924 0.0
C1166 C 0.87045 0.43723 0.90851 0.0
C1167 C 0.87847 0.47007 0.86825 0.0
C1168 C 0.87014 0.43732 0.8597 0.0
C1169 C 0.88542 0.45702 0.87684 0.0
N1170 N 0.88117 0.4409 0.87255 0.0
C1171 C 0.86291 0.45004 0.85085 0.0
C1172 C 0.86713 0.46652 0.85519 0.0
C1173 C 0.89778 0.39797 0.85737 0.0
C1174 C 0.94879 0.38595 0.90508 0.0
C1175 C 0.92898 0.3712 0.87992 0.0
C1176 C 0.9462 0.3698 0.87977 0.0
C1177 C 0.95614 0.37724 0.89245 0.0
N1178 N 0.92186 0.3797 0.89237 0.0
C1179 C 0.93152 0.38706 0.90483 0.0
Co1180 Co 0.10234 0.36763 0.38264 0.0
Co1181 Co 0.12293 0.40237 0.36786 0.0
O1182 O 0.11624 0.37867 0.36612 0.0
C1183 C 0.12695 0.34255 0.37249 0.0
O1184 O 0.13516 0.35336 0.36333 0.0
C1185 C 0.10958 0.39726 0.33328 0.0
O1186 O 0.09685 0.38945 0.34015 0.0
O1187 O 0.09932 0.40816 0.36905 0.0
O1188 O 0.09 0.38822 0.38618 0.0
H1189 H 0.1221 0.46016 0.39142 0.0
H1190 H 0.10447 0.35184 0.34923 0.0
O1191 O 0.11412 0.34648 0.38025 0.0
H1192 H 0.04489 0.3602 0.3565 0.0
H1193 H 0.06841 0.32001 0.40702 0.0
H1194 H 0.09056 0.37766 0.41567 0.0
H1195 H 0.0655 0.36876 0.37846 0.0
H1196 H 0.08527 0.33406 0.38567 0.0
O1197 O 0.12136 0.40379 0.34258 0.0
H1198 H 0.11415 0.43024 0.38962 0.0
H1199 H 0.14544 0.42491 0.34851 0.0
H1200 H 0.07371 0.3641 0.43728 0.0
H1201 H 0.08427 0.34275 0.32715 0.0
H1202 H 0.06248 0.33508 0.43302 0.0
H1203 H 0.05421 0.34698 0.33065 0.0
O1204 O 0.11873 0.3748 0.40019 0.0
H1205 H 0.17124 0.37447 0.34354 0.0
H1206 H 0.15364 0.41133 0.38813 0.0
H1207 H 0.18302 0.40425 0.38706 0.0
H1208 H 0.192 0.38572 0.36461 0.0
H1209 H 0.14193 0.3817 0.34521 0.0
H1210 H 0.15363 0.4548 0.34978 0.0
H1211 H 0.14198 0.47262 0.3714 0.0
O1212 O 0.12437 0.40135 0.39334 0.0
C1213 C 0.08873 0.40219 0.37911 0.0
C1214 C 0.12731 0.45251 0.38199 0.0
C1215 C 0.14499 0.44951 0.3586 0.0
N1216 N 0.12944 0.42583 0.36907 0.0
C1217 C 0.12289 0.43556 0.38094 0.0
C1218 C 0.14028 0.4326 0.35792 0.0
C1219 C 0.13845 0.4595 0.37073 0.0
C1220 C 0.09144 0.35345 0.35104 0.0
N1221 N 0.08622 0.36062 0.36527 0.0
C1222 C 0.08004 0.3484 0.3384 0.0
C1223 C 0.06318 0.35081 0.34035 0.0
C1224 C 0.05795 0.35824 0.35484 0.0
C1225 C 0.0697 0.36311 0.36722 0.0
C1226 C 0.0732 0.33268 0.409 0.0
C1227 C 0.08566 0.36506 0.41366 0.0
C1228 C 0.08278 0.34069 0.39697 0.0
N1229 N 0.0888 0.35672 0.39935 0.0
C1230 C 0.07615 0.35743 0.42597 0.0
C1231 C 0.06987 0.34114 0.42359 0.0
C1232 C 0.12389 0.38955 0.40401 0.0
C1233 C 0.16748 0.38255 0.35339 0.0
C1234 C 0.1574 0.40311 0.37844 0.0
C1235 C 0.17408 0.39922 0.37784 0.0
C1236 C 0.17912 0.38885 0.36523 0.0
N1237 N 0.14604 0.39684 0.36681 0.0
C1238 C 0.15091 0.38672 0.35437 0.0
Co1239 Co 0.8768 0.58912 0.14035 0.0
Co1240 Co 0.88461 0.62986 0.12894 0.0
O1241 O 0.88803 0.60605 0.12681 0.0
C1242 C 0.91237 0.5788 0.13803 0.0
O1243 O 0.91742 0.59272 0.13105 0.0
C1244 C 0.87716 0.62175 0.09343 0.0
O1245 O 0.86761 0.60949 0.09907 0.0
O1246 O 0.86004 0.62593 0.12757 0.0
O1247 O 0.85581 0.60129 0.1398 0.0
H1248 H 0.85888 0.68032 0.15186 0.0
H1249 H 0.89303 0.57946 0.10924 0.0
O1250 O 0.89721 0.57602 0.14178 0.0
H1251 H 0.83427 0.55979 0.102 0.0
H1252 H 0.86221 0.53072 0.15868 0.0
H1253 H 0.85468 0.59013 0.16914 0.0
H1254 H 0.84424 0.5738 0.12794 0.0
H1255 H 0.87571 0.55207 0.14107 0.0
O1256 O 0.88492 0.63172 0.10375 0.0
H1257 H 0.86338 0.65039 0.14942 0.0
H1258 H 0.89861 0.65989 0.1119 0.0
H1259 H 0.84078 0.56918 0.1869 0.0
H1260 H 0.88357 0.56559 0.0831 0.0
H1261 H 0.84452 0.53923 0.18171 0.0
H1262 H 0.85399 0.55563 0.07933 0.0
O1263 O 0.88456 0.60117 0.16082 0.0
H1264 H 0.94313 0.62504 0.10979 0.0
H1265 H 0.90805 0.64892 0.15216 0.0
H1266 H 0.93849 0.65419 0.15406 0.0
H1267 H 0.95625 0.64226 0.13274 0.0
H1268 H 0.91266 0.61981 0.10854 0.0
H1269 H 0.8944 0.68992 0.11383 0.0
H1270 H 0.87446 0.7003 0.13398 0.0
O1271 O 0.88413 0.62823 0.15419 0.0
C1272 C 0.85052 0.61459 0.13368 0.0
C1273 C 0.86765 0.67595 0.14308 0.0
C1274 C 0.88757 0.68133 0.12172 0.0
N1275 N 0.88135 0.65343 0.13064 0.0
C1276 C 0.87028 0.65903 0.14168 0.0
C1277 C 0.88988 0.66432 0.12066 0.0
C1278 C 0.87638 0.68715 0.13303 0.0
C1279 C 0.8802 0.57499 0.10782 0.0
N1280 N 0.86927 0.57731 0.12021 0.0
C1281 C 0.87488 0.56724 0.09293 0.0
C1282 C 0.85827 0.5617 0.0908 0.0
C1283 C 0.8472 0.56402 0.10351 0.0
C1284 C 0.85293 0.57196 0.11818 0.0
C1285 C 0.86043 0.54372 0.161 0.0
C1286 C 0.85625 0.57711 0.16671 0.0
C1287 C 0.86807 0.55587 0.1511 0.0
N1288 N 0.86584 0.57233 0.15397 0.0
C1289 C 0.84839 0.56531 0.17684 0.0
C1290 C 0.85051 0.54851 0.17393 0.0
C1291 C 0.8854 0.61652 0.1648 0.0
C1292 C 0.93553 0.63031 0.11915 0.0
C1293 C 0.9157 0.64351 0.14294 0.0
C1294 C 0.93293 0.64662 0.14403 0.0
C1295 C 0.94288 0.63995 0.13204 0.0
N1296 N 0.90858 0.634 0.13029 0.0
C1297 C 0.91825 0.62746 0.11846 0.0
Co1298 Co 0.91834 0.36148 0.63105 0.0
Co1299 Co 0.89354 0.3927 0.64272 0.0
O1300 O 0.90168 0.37048 0.64509 0.0
C1301 C 0.89091 0.33562 0.63 0.0
O1302 O 0.88066 0.34713 0.62586 0.0
C1303 C 0.90533 0.39024 0.6777 0.0
O1304 O 0.91895 0.38489 0.67138 0.0
O1305 O 0.91662 0.40285 0.64275 0.0
O1306 O 0.93071 0.38348 0.62984 0.0
H1307 H 0.8911 0.44975 0.61855 0.0
H1308 H 0.91071 0.34471 0.66285 0.0
O1309 O 0.90639 0.33925 0.63216 0.0
H1310 H 0.97043 0.36168 0.66709 0.0
H1311 H 0.95668 0.31767 0.6134 0.0
H1312 H 0.93612 0.37288 0.60104 0.0
H1313 H 0.95394 0.36747 0.6418 0.0
H1314 H 0.93561 0.3297 0.63088 0.0
O1315 O 0.89359 0.3947 0.66795 0.0
H1316 H 0.90124 0.42152 0.62113 0.0
H1317 H 0.86842 0.41134 0.6606 0.0
H1318 H 0.95773 0.36157 0.58369 0.0
H1319 H 0.92684 0.3384 0.68825 0.0
H1320 H 0.96796 0.33371 0.58965 0.0
H1321 H 0.95689 0.34705 0.69055 0.0
O1322 O 0.90511 0.36685 0.61084 0.0
H1323 H 0.8472 0.35489 0.66353 0.0
H1324 H 0.86321 0.39618 0.62127 0.0
H1325 H 0.83473 0.38326 0.62054 0.0
H1326 H 0.82657 0.36247 0.64179 0.0
H1327 H 0.87557 0.36801 0.66372 0.0
H1328 H 0.85801 0.43951 0.65855 0.0
H1329 H 0.86933 0.4589 0.63736 0.0
O1330 O 0.89351 0.39079 0.61742 0.0
C1331 C 0.92959 0.39806 0.63579 0.0
C1332 C 0.88603 0.4414 0.6278 0.0
C1333 C 0.86747 0.43566 0.65027 0.0
N1334 N 0.88531 0.41477 0.6409 0.0
C1335 C 0.89168 0.42538 0.62928 0.0
C1336 C 0.87343 0.41974 0.65139 0.0
C1337 C 0.87383 0.44653 0.63837 0.0
C1338 C 0.92384 0.34829 0.66364 0.0
N1339 N 0.93136 0.35641 0.65082 0.0
C1340 C 0.93289 0.34476 0.6781 0.0
C1341 C 0.94974 0.34964 0.67939 0.0
C1342 C 0.95734 0.35789 0.66625 0.0
C1343 C 0.94791 0.36118 0.65198 0.0
C1344 C 0.95227 0.32981 0.61062 0.0
C1345 C 0.94067 0.36083 0.60387 0.0
C1346 C 0.94028 0.33666 0.62043 0.0
N1347 N 0.93473 0.35204 0.61706 0.0
C1348 C 0.9528 0.35444 0.59391 0.0
C1349 C 0.95859 0.33881 0.5973 0.0
C1350 C 0.89725 0.37964 0.60684 0.0
C1351 C 0.85059 0.36397 0.65423 0.0
C1352 C 0.85976 0.38712 0.63054 0.0
C1353 C 0.84361 0.37987 0.63008 0.0
C1354 C 0.83903 0.36821 0.64202 0.0
N1355 N 0.87101 0.38292 0.64258 0.0
C1356 C 0.86662 0.37149 0.65432 0.0
Co1357 Co 0.09593 0.62821 0.64189 0.0
Co1358 Co 0.1372 0.62658 0.63258 0.0
O1359 O 0.11383 0.61978 0.62917 0.0
C1360 C 0.07955 0.59617 0.65219 0.0
O1361 O 0.082 0.60097 0.6677 0.0
C1362 C 0.12934 0.63308 0.59712 0.0
O1363 O 0.11707 0.64131 0.60291 0.0
O1364 O 0.13213 0.6504 0.63199 0.0
O1365 O 0.10688 0.65109 0.64316 0.0
H1366 H 0.18605 0.65947 0.65845 0.0
H1367 H 0.08792 0.61052 0.60997 0.0
O1368 O 0.08483 0.60542 0.64049 0.0
H1369 H 0.06636 0.66624 0.6031 0.0
H1370 H 0.03574 0.63304 0.65594 0.0
H1371 H 0.0939 0.64949 0.67186 0.0
H1372 H 0.08001 0.65849 0.62944 0.0
H1373 H 0.0589 0.62349 0.63953 0.0
O1374 O 0.13947 0.62651 0.60738 0.0
H1375 H 0.15638 0.65055 0.6547 0.0
H1376 H 0.16813 0.61724 0.61621 0.0
H1377 H 0.07112 0.65936 0.68861 0.0
H1378 H 0.07414 0.6177 0.5835 0.0
H1379 H 0.0418 0.65114 0.68068 0.0
H1380 H 0.06331 0.64575 0.57991 0.0
O1381 O 0.10766 0.62254 0.66279 0.0
H1382 H 0.13357 0.56736 0.61242 0.0
H1383 H 0.15746 0.60623 0.65529 0.0
H1384 H 0.16367 0.57663 0.65662 0.0
H1385 H 0.15173 0.55699 0.63504 0.0
H1386 H 0.12757 0.59702 0.61165 0.0
H1387 H 0.19792 0.62589 0.61943 0.0
H1388 H 0.20704 0.6471 0.64072 0.0
O1389 O 0.13492 0.62676 0.65782 0.0
C1390 C 0.12022 0.65824 0.63787 0.0
C1391 C 0.18224 0.65017 0.64917 0.0
C1392 C 0.18889 0.63134 0.62725 0.0
N1393 N 0.16058 0.63329 0.63536 0.0
C1394 C 0.16547 0.64504 0.64703 0.0
C1395 C 0.17202 0.62652 0.62546 0.0
C1396 C 0.194 0.64324 0.6392 0.0
C1397 C 0.08304 0.62268 0.6086 0.0
N1398 N 0.08468 0.63402 0.6213 0.0
C1399 C 0.07533 0.6267 0.59354 0.0
C1400 C 0.06928 0.64246 0.59152 0.0
C1401 C 0.07101 0.65396 0.60452 0.0
C1402 C 0.0788 0.64951 0.6194 0.0
C1403 C 0.04846 0.63675 0.65951 0.0
C1404 C 0.08117 0.64592 0.66829 0.0
C1405 C 0.06162 0.63138 0.65026 0.0
N1406 N 0.07773 0.63602 0.65468 0.0
C1407 C 0.06832 0.65152 0.67784 0.0
C1408 C 0.05187 0.64689 0.67339 0.0
C1409 C 0.12283 0.62415 0.66777 0.0
C1410 C 0.13888 0.5758 0.62187 0.0
C1411 C 0.15216 0.59774 0.6459 0.0
C1412 C 0.15575 0.58101 0.64669 0.0
C1413 C 0.14906 0.56999 0.63457 0.0
N1414 N 0.14224 0.60335 0.63335 0.0
C1415 C 0.13557 0.59262 0.62147 0.0
Co1416 Co 0.88037 0.87525 0.64179 0.0
Co1417 Co 0.88855 0.8625 0.60207 0.0
O1418 O 0.87706 0.87585 0.61778 0.0
C1419 C 0.84478 0.86578 0.63555 0.0
O1420 O 0.85043 0.85513 0.62498 0.0
C1421 C 0.89626 0.89644 0.58946 0.0
O1422 O 0.90309 0.90059 0.60397 0.0
O1423 O 0.91037 0.86955 0.61251 0.0
O1424 O 0.90556 0.87498 0.6394 0.0
H1425 H 0.92998 0.82164 0.58471 0.0
H1426 H 0.86013 0.90111 0.62654 0.0
O1427 O 0.85516 0.87521 0.64406 0.0
H1428 H 0.90663 0.93163 0.65636 0.0
H1429 H 0.86794 0.89193 0.70024 0.0
H1430 H 0.90217 0.85759 0.6652 0.0
H1431 H 0.90411 0.90103 0.65682 0.0
H1432 H 0.86454 0.89221 0.66972 0.0
O1433 O 0.88993 0.88184 0.58673 0.0
H1434 H 0.91549 0.83883 0.60458 0.0
H1435 H 0.88652 0.85837 0.56526 0.0
H1436 H 0.90611 0.85704 0.69565 0.0
H1437 H 0.8621 0.93171 0.62584 0.0
H1438 H 0.88891 0.8743 0.71338 0.0
H1439 H 0.8855 0.94717 0.64081 0.0
O1440 O 0.87888 0.85051 0.6421 0.0
H1441 H 0.83113 0.87137 0.57899 0.0
H1442 H 0.87206 0.82974 0.59241 0.0
H1443 H 0.8443 0.82055 0.58094 0.0
H1444 H 0.82367 0.84143 0.57414 0.0
H1445 H 0.85888 0.88 0.59068 0.0
H1446 H 0.90084 0.84153 0.54492 0.0
H1447 H 0.92265 0.82292 0.55463 0.0
O1448 O 0.88746 0.843 0.61696 0.0
C1449 C 0.91546 0.8731 0.62732 0.0
C1450 C 0.92045 0.82966 0.58032 0.0
C1451 C 0.90411 0.84084 0.55799 0.0
N1452 N 0.90004 0.84945 0.5861 0.0
C1453 C 0.91216 0.83938 0.59152 0.0
C1454 C 0.89607 0.85037 0.56956 0.0
C1455 C 0.91635 0.8304 0.56345 0.0
C1456 C 0.87027 0.90776 0.63319 0.0
N1457 N 0.88194 0.89931 0.64179 0.0
C1458 C 0.87136 0.92508 0.6327 0.0
C1459 C 0.8845 0.93375 0.64108 0.0
C1460 C 0.89637 0.92503 0.64981 0.0
C1461 C 0.89489 0.90771 0.65 0.0
C1462 C 0.87553 0.88437 0.69265 0.0
C1463 C 0.89472 0.86521 0.67284 0.0
C1464 C 0.87362 0.88445 0.67537 0.0
N1465 N 0.88323 0.87501 0.66572 0.0
C1466 C 0.89697 0.86481 0.69007 0.0
C1467 C 0.8873 0.87448 0.70001 0.0
C1468 C 0.88313 0.83969 0.63168 0.0
C1469 C 0.84006 0.86215 0.58183 0.0
C1470 C 0.86312 0.83889 0.58946 0.0
C1471 C 0.84746 0.83362 0.58295 0.0
C1472 C 0.83587 0.84535 0.57914 0.0
N1473 N 0.86712 0.85539 0.5921 0.0
C1474 C 0.85583 0.86697 0.58836 0.0
Co1475 Co 0.64845 0.36763 0.09644 0.0
Co1476 Co 0.61385 0.37616 0.1185 0.0
O1477 O 0.63709 0.38027 0.11287 0.0
C1478 C 0.67078 0.36491 0.12597 0.0
O1479 O 0.65813 0.35843 0.13409 0.0
C1480 C 0.61715 0.41158 0.10871 0.0
O1481 O 0.62405 0.40589 0.09539 0.0
O1482 O 0.60651 0.37596 0.09467 0.0
O1483 O 0.62817 0.36572 0.0817 0.0
H1484 H 0.55678 0.3479 0.11412 0.0
H1485 H 0.66373 0.39989 0.10852 0.0
O1486 O 0.669 0.36929 0.11091 0.0
H1487 H 0.65615 0.40608 0.04803 0.0
H1488 H 0.6976 0.35416 0.06238 0.0
H1489 H 0.63983 0.33743 0.07615 0.0
H1490 H 0.64771 0.37978 0.06157 0.0
H1491 H 0.68247 0.37035 0.08261 0.0
O1492 O 0.61155 0.40127 0.1195 0.0
H1493 H 0.58628 0.35268 0.10705 0.0
H1494 H 0.59179 0.39219 0.14221 0.0
H1495 H 0.65444 0.32096 0.05575 0.0
H1496 H 0.6723 0.42643 0.09547 0.0
H1497 H 0.68355 0.32931 0.04873 0.0
H1498 H 0.66846 0.42966 0.06502 0.0
O1499 O 0.64125 0.34657 0.10713 0.0
H1500 H 0.64578 0.39839 0.16902 0.0
H1501 H 0.60677 0.35388 0.14704 0.0
H1502 H 0.61616 0.35337 0.17641 0.0
H1503 H 0.63579 0.37576 0.18757 0.0
H1504 H 0.63616 0.39835 0.13971 0.0
H1505 H 0.5623 0.38794 0.14956 0.0
H1506 H 0.54461 0.36561 0.13551 0.0
O1507 O 0.61612 0.351 0.1175 0.0
C1508 C 0.61317 0.37006 0.08189 0.0
C1509 C 0.56437 0.35763 0.12037 0.0
C1510 C 0.56747 0.38012 0.14024 0.0
N1511 N 0.59075 0.37261 0.12432 0.0
C1512 C 0.58109 0.36036 0.11646 0.0
C1513 C 0.58413 0.3825 0.13601 0.0
C1514 C 0.55755 0.36759 0.13236 0.0
C1515 C 0.66215 0.40116 0.09524 0.0
N1516 N 0.65531 0.38827 0.08581 0.0
C1517 C 0.66697 0.41623 0.08793 0.0
C1518 C 0.66477 0.41805 0.07085 0.0
C1519 C 0.65782 0.40484 0.06131 0.0
C1520 C 0.65306 0.38998 0.06906 0.0
C1521 C 0.6849 0.35044 0.06528 0.0
C1522 C 0.65244 0.34123 0.07304 0.0
C1523 C 0.67628 0.35954 0.07673 0.0
N1524 N 0.6602 0.35497 0.08037 0.0
C1525 C 0.66067 0.33181 0.06154 0.0
C1526 C 0.67701 0.3365 0.05763 0.0
C1527 C 0.62775 0.34136 0.11374 0.0
C1528 C 0.63719 0.38859 0.16431 0.0
C1529 C 0.61534 0.36365 0.15181 0.0
C1530 C 0.62058 0.36331 0.16845 0.0
C1531 C 0.63159 0.37588 0.17471 0.0
N1532 N 0.62084 0.37619 0.1417 0.0
C1533 C 0.63165 0.38854 0.14774 0.0
Co1534 Co 0.11893 0.1322 0.64408 0.0
Co1535 Co 0.10815 0.13442 0.60267 0.0
O1536 O 0.12135 0.1261 0.62095 0.0
C1537 C 0.15407 0.14159 0.63692 0.0
O1538 O 0.1478 0.15012 0.62468 0.0
C1539 C 0.09658 0.10276 0.58606 0.0
O1540 O 0.08123 0.10701 0.58807 0.0
O1541 O 0.08733 0.1277 0.61415 0.0
O1542 O 0.09364 0.13094 0.64142 0.0
H1543 H 0.06118 0.16439 0.57632 0.0
H1544 H 0.13958 0.10414 0.63536 0.0
O1545 O 0.14423 0.13358 0.64661 0.0
H1546 H 0.09582 0.08022 0.67107 0.0
H1547 H 0.13458 0.13098 0.70488 0.0
H1548 H 0.09758 0.15449 0.66244 0.0
H1549 H 0.09692 0.11002 0.66433 0.0
H1550 H 0.13655 0.1231 0.67536 0.0
O1551 O 0.10869 0.11196 0.59198 0.0
H1552 H 0.07841 0.15448 0.5996 0.0
H1553 H 0.10944 0.13093 0.5658 0.0
H1554 H 0.09512 0.16266 0.6918 0.0
H1555 H 0.13904 0.0743 0.64192 0.0
H1556 H 0.11371 0.15086 0.71325 0.0
H1557 H 0.11703 0.06216 0.65988 0.0
O1558 O 0.11932 0.1562 0.63866 0.0
H1559 H 0.16605 0.12649 0.58316 0.0
H1560 H 0.121 0.16547 0.5863 0.0
H1561 H 0.14742 0.17447 0.57349 0.0
H1562 H 0.17018 0.15491 0.57187 0.0
H1563 H 0.13952 0.11805 0.59603 0.0
H1564 H 0.09251 0.14052 0.54216 0.0
H1565 H 0.0682 0.15741 0.54735 0.0
O1566 O 0.10775 0.15699 0.61304 0.0
C1567 C 0.08309 0.12837 0.62929 0.0
C1568 C 0.07176 0.15707 0.57389 0.0
C1569 C 0.08934 0.14367 0.55472 0.0
N1570 N 0.09495 0.14221 0.58406 0.0
C1571 C 0.08158 0.15145 0.58703 0.0
C1572 C 0.09888 0.13828 0.56816 0.0
C1573 C 0.0757 0.15314 0.55764 0.0
C1574 C 0.13003 0.09896 0.64328 0.0
N1575 N 0.11835 0.10882 0.64953 0.0
C1576 C 0.12976 0.08205 0.6469 0.0
C1577 C 0.1174 0.07524 0.65697 0.0
C1578 C 0.10549 0.08537 0.66324 0.0
C1579 C 0.10614 0.10222 0.65935 0.0
C1580 C 0.12639 0.13617 0.69565 0.0
C1581 C 0.10563 0.14922 0.67172 0.0
C1582 C 0.12746 0.13177 0.67893 0.0
N1583 N 0.11708 0.13822 0.66725 0.0
C1584 C 0.10422 0.15393 0.68832 0.0
C1585 C 0.11467 0.14732 0.70034 0.0
C1586 C 0.11338 0.16406 0.62639 0.0
C1587 C 0.15621 0.13511 0.58374 0.0
C1588 C 0.13083 0.15688 0.58565 0.0
C1589 C 0.14576 0.16204 0.57836 0.0
C1590 C 0.15852 0.15106 0.57743 0.0
N1591 N 0.12865 0.1412 0.59181 0.0
C1592 C 0.14111 0.13037 0.59093 0.0
Co1593 Co 0.36026 0.64477 0.08977 0.0
Co1594 Co 0.39306 0.63615 0.11584 0.0
O1595 O 0.37043 0.63178 0.10711 0.0
C1596 C 0.33572 0.64537 0.11637 0.0
O1597 O 0.34775 0.65112 0.1265 0.0
C1598 C 0.39097 0.60065 0.10543 0.0
O1599 O 0.38495 0.60616 0.09134 0.0
O1600 O 0.40204 0.63631 0.09305 0.0
O1601 O 0.38169 0.64766 0.07796 0.0
H1602 H 0.44995 0.6649 0.119 0.0
H1603 H 0.3446 0.61186 0.09801 0.0
O1604 O 0.33861 0.64219 0.10125 0.0
H1605 H 0.35848 0.60804 0.03892 0.0
H1606 H 0.3136 0.65915 0.05053 0.0
H1607 H 0.36984 0.6759 0.07235 0.0
H1608 H 0.36456 0.63403 0.05472 0.0
H1609 H 0.32775 0.64186 0.07109 0.0
O1610 O 0.39556 0.61109 0.11695 0.0
H1611 H 0.42117 0.65979 0.10812 0.0
H1612 H 0.41335 0.62046 0.1422 0.0
H1613 H 0.35595 0.69383 0.05229 0.0
H1614 H 0.33809 0.58568 0.0826 0.0
H1615 H 0.3277 0.68539 0.04106 0.0
H1616 H 0.34513 0.58363 0.05286 0.0
O1617 O 0.36595 0.6655 0.10233 0.0
H1618 H 0.3577 0.61376 0.16185 0.0
H1619 H 0.39768 0.65862 0.14531 0.0
H1620 H 0.38607 0.65913 0.17331 0.0
H1621 H 0.36594 0.63657 0.18175 0.0
H1622 H 0.36951 0.6138 0.13392 0.0
H1623 H 0.44209 0.62503 0.15336 0.0
H1624 H 0.46057 0.64744 0.14178 0.0
O1625 O 0.39071 0.66133 0.11475 0.0
C1626 C 0.39645 0.64285 0.07984 0.0
C1627 C 0.442 0.65514 0.12418 0.0
C1628 C 0.4376 0.63274 0.14345 0.0
N1629 N 0.41558 0.63994 0.12462 0.0
C1630 C 0.42569 0.65223 0.11811 0.0
C1631 C 0.42136 0.63019 0.13706 0.0
C1632 C 0.44796 0.64532 0.13695 0.0
C1633 C 0.3475 0.61112 0.08502 0.0
N1634 N 0.35489 0.62447 0.07727 0.0
C1635 C 0.34386 0.59625 0.07637 0.0
C1636 C 0.34784 0.5951 0.0597 0.0
C1637 C 0.35535 0.60878 0.05187 0.0
C1638 C 0.35881 0.62345 0.0609 0.0
C1639 C 0.32595 0.66291 0.05526 0.0
C1640 C 0.35754 0.67215 0.06756 0.0
C1641 C 0.33404 0.65315 0.06686 0.0
N1642 N 0.34965 0.65781 0.07282 0.0
C1643 C 0.34972 0.68236 0.05621 0.0
C1644 C 0.33386 0.67764 0.04996 0.0
C1645 C 0.37917 0.67088 0.11007 0.0
C1646 C 0.3665 0.62363 0.15834 0.0
C1647 C 0.38891 0.64877 0.14888 0.0
C1648 C 0.3824 0.64911 0.16476 0.0
C1649 C 0.37111 0.63645 0.16949 0.0
N1650 N 0.38435 0.63614 0.13803 0.0
C1651 C 0.37328 0.62369 0.14257 0.0
Co1652 Co 0.87306 0.10816 0.3912 0.0
Co1653 Co 0.86776 0.13852 0.42083 0.0
O1654 O 0.87765 0.13022 0.4009 0.0
C1655 C 0.90899 0.11018 0.40037 0.0
O1656 O 0.90404 0.11554 0.41473 0.0
C1657 C 0.85859 0.16292 0.39533 0.0
O1658 O 0.85414 0.15049 0.38529 0.0
O1659 O 0.84513 0.13035 0.41286 0.0
O1660 O 0.84825 0.11043 0.39358 0.0
H1661 H 0.83091 0.13534 0.47024 0.0
H1662 H 0.8945 0.13313 0.37377 0.0
O1663 O 0.89807 0.10596 0.38905 0.0
H1664 H 0.84687 0.11974 0.3354 0.0
H1665 H 0.88237 0.06236 0.35032 0.0
H1666 H 0.84964 0.0795 0.3978 0.0
H1667 H 0.84897 0.10589 0.3625 0.0
H1668 H 0.88753 0.09009 0.36316 0.0
O1669 O 0.8645 0.16022 0.40981 0.0
H1670 H 0.84363 0.12474 0.44493 0.0
H1671 H 0.87065 0.17085 0.43912 0.0
H1672 H 0.84396 0.05173 0.38525 0.0
H1673 H 0.89295 0.14719 0.34676 0.0
H1674 H 0.8604 0.043 0.36134 0.0
H1675 H 0.86898 0.14055 0.32738 0.0
O1676 O 0.87395 0.09706 0.41327 0.0
H1677 H 0.92436 0.1667 0.41443 0.0
H1678 H 0.88721 0.13627 0.45272 0.0
H1679 H 0.91573 0.14512 0.46217 0.0
H1680 H 0.93452 0.16042 0.44294 0.0
H1681 H 0.89576 0.15756 0.40549 0.0
H1682 H 0.85811 0.18198 0.46418 0.0
H1683 H 0.83814 0.16413 0.47996 0.0
O1684 O 0.87079 0.11715 0.43227 0.0
C1685 C 0.83915 0.11943 0.40246 0.0
C1686 C 0.83963 0.14319 0.46347 0.0
C1687 C 0.85487 0.16939 0.46007 0.0
N1688 N 0.85794 0.14712 0.44064 0.0
C1689 C 0.84689 0.13726 0.44918 0.0
C1690 C 0.8619 0.16304 0.44586 0.0
C1691 C 0.84368 0.15937 0.46892 0.0
C1692 C 0.88411 0.13005 0.36534 0.0
N1693 N 0.8719 0.11862 0.36966 0.0
C1694 C 0.88327 0.13811 0.35009 0.0
C1695 C 0.8698 0.13439 0.33923 0.0
C1696 C 0.85739 0.12272 0.34373 0.0
C1697 C 0.85863 0.11493 0.3591 0.0
C1698 C 0.87511 0.06602 0.36072 0.0
C1699 C 0.85678 0.07582 0.38734 0.0
C1700 C 0.87801 0.08168 0.36807 0.0
N1701 N 0.86883 0.08641 0.38114 0.0
C1702 C 0.85354 0.06006 0.38031 0.0
C1703 C 0.86278 0.05517 0.36691 0.0
C1704 C 0.87278 0.10212 0.42819 0.0
C1705 C 0.91626 0.16009 0.42294 0.0
C1706 C 0.89531 0.14294 0.4443 0.0
C1707 C 0.91144 0.14794 0.44972 0.0
C1708 C 0.92197 0.15654 0.43893 0.0
N1709 N 0.88982 0.14643 0.42858 0.0
C1710 C 0.90004 0.15494 0.41797 0.0
Co1711 Co 0.36483 0.39371 0.90876 0.0
Co1712 Co 0.37412 0.38134 0.86913 0.0
O1713 O 0.37678 0.38029 0.89327 0.0
C1714 C 0.40046 0.39831 0.91956 0.0
O1715 O 0.40494 0.39764 0.90406 0.0
C1716 C 0.36602 0.34604 0.87734 0.0
O1717 O 0.35606 0.35202 0.88826 0.0
O1718 O 0.34948 0.37954 0.8703 0.0
O1719 O 0.344 0.39111 0.8948 0.0
H1720 H 0.34999 0.40125 0.81521 0.0
H1721 H 0.38265 0.36471 0.92079 0.0
O1722 O 0.38521 0.39675 0.92336 0.0
H1723 H 0.32401 0.35312 0.93505 0.0
H1724 H 0.34908 0.41298 0.96552 0.0
H1725 H 0.34135 0.42063 0.90521 0.0
H1726 H 0.33273 0.37933 0.9215 0.0
H1727 H 0.3636 0.39576 0.94568 0.0
O1728 O 0.37437 0.35609 0.86809 0.0
H1729 H 0.35364 0.40034 0.84567 0.0
H1730 H 0.38899 0.36339 0.8412 0.0
H1731 H 0.32647 0.43803 0.92461 0.0
H1732 H 0.37441 0.33825 0.93414 0.0
H1733 H 0.3303 0.43425 0.955 0.0
H1734 H 0.34493 0.33234 0.94142 0.0
O1735 O 0.37172 0.41424 0.89682 0.0
H1736 H 0.43225 0.36457 0.88222 0.0
H1737 H 0.39824 0.40401 0.85176 0.0
H1738 H 0.42883 0.40664 0.85024 0.0
H1739 H 0.44604 0.38679 0.86551 0.0
H1740 H 0.40163 0.36253 0.88357 0.0
H1741 H 0.38566 0.36381 0.81068 0.0
H1742 H 0.36608 0.38289 0.7975 0.0
O1743 O 0.37368 0.40663 0.87 0.0
C1744 C 0.33938 0.38476 0.8808 0.0
C1745 C 0.35861 0.39294 0.8208 0.0
C1746 C 0.37861 0.3719 0.81826 0.0
N1747 N 0.37163 0.38194 0.84517 0.0
C1748 C 0.36077 0.39241 0.83803 0.0
C1749 C 0.38043 0.3717 0.83554 0.0
C1750 C 0.36763 0.38262 0.81087 0.0
C1751 C 0.36981 0.36228 0.92402 0.0
N1752 N 0.3582 0.37358 0.92041 0.0
C1753 C 0.36521 0.34725 0.93153 0.0
C1754 C 0.34865 0.34392 0.93557 0.0
C1755 C 0.33691 0.35557 0.93199 0.0
C1756 C 0.34193 0.37039 0.92431 0.0
C1757 C 0.34728 0.41472 0.9523 0.0
C1758 C 0.34299 0.41885 0.91842 0.0
C1759 C 0.35549 0.40503 0.94101 0.0
N1760 N 0.3532 0.4071 0.92431 0.0
C1761 C 0.33457 0.42877 0.92934 0.0
C1762 C 0.33674 0.42665 0.94639 0.0
C1763 C 0.37366 0.41771 0.88156 0.0
C1764 C 0.42488 0.37326 0.87547 0.0
C1765 C 0.40565 0.39539 0.85852 0.0
C1766 C 0.42296 0.3969 0.85756 0.0
C1767 C 0.43261 0.38575 0.86612 0.0
N1768 N 0.39816 0.38311 0.86772 0.0
C1769 C 0.40753 0.37211 0.87612 0.0
Co1770 Co 0.13703 0.90209 0.39634 0.0
Co1771 Co 0.14421 0.8684 0.42133 0.0
O1772 O 0.13284 0.87906 0.40302 0.0
C1773 C 0.10155 0.89944 0.40586 0.0
O1774 O 0.10705 0.89213 0.41925 0.0
C1775 C 0.15042 0.84743 0.39201 0.0
O1776 O 0.15225 0.86085 0.38301 0.0
O1777 O 0.1662 0.87758 0.41413 0.0
O1778 O 0.16201 0.89941 0.39756 0.0
H1779 H 0.18499 0.86593 0.4694 0.0
H1780 H 0.11394 0.87968 0.37616 0.0
O1781 O 0.11197 0.90478 0.39514 0.0
H1782 H 0.15874 0.89741 0.33859 0.0
H1783 H 0.12543 0.95261 0.3626 0.0
H1784 H 0.16116 0.92958 0.40642 0.0
H1785 H 0.15896 0.90773 0.3675 0.0
H1786 H 0.12087 0.92354 0.37144 0.0
O1787 O 0.14692 0.84836 0.40728 0.0
H1788 H 0.16998 0.87944 0.44658 0.0
H1789 H 0.14295 0.83404 0.43484 0.0
H1790 H 0.16625 0.95867 0.39788 0.0
H1791 H 0.11315 0.86918 0.34732 0.0
H1792 H 0.14829 0.97035 0.37582 0.0
H1793 H 0.13569 0.87801 0.32833 0.0
O1794 O 0.13781 0.91038 0.41984 0.0
H1795 H 0.08727 0.84075 0.41222 0.0
H1796 H 0.12724 0.86585 0.45375 0.0
H1797 H 0.09957 0.8553 0.46257 0.0
H1798 H 0.07937 0.84264 0.44171 0.0
H1799 H 0.1151 0.85142 0.40395 0.0
H1800 H 0.15766 0.82007 0.45756 0.0
H1801 H 0.17881 0.83607 0.47507 0.0
O1802 O 0.14186 0.8881 0.43573 0.0
C1803 C 0.1716 0.88947 0.40506 0.0
C1804 C 0.17572 0.85887 0.46195 0.0
C1805 C 0.16042 0.83311 0.45526 0.0
N1806 N 0.15551 0.85758 0.43948 0.0
C1807 C 0.16716 0.86645 0.44902 0.0
C1808 C 0.15215 0.84109 0.4424 0.0
C1809 C 0.17227 0.8421 0.46509 0.0
C1810 C 0.12371 0.88372 0.36793 0.0
N1811 N 0.13644 0.89437 0.37348 0.0
C1812 C 0.12323 0.87767 0.35163 0.0
C1813 C 0.1359 0.88261 0.34099 0.0
C1814 C 0.14884 0.89349 0.34674 0.0
C1815 C 0.14892 0.89926 0.36313 0.0
C1816 C 0.13335 0.94765 0.37221 0.0
C1817 C 0.15337 0.93456 0.39674 0.0
C1818 C 0.1308 0.93122 0.37729 0.0
N1819 N 0.14082 0.92487 0.38935 0.0
C1820 C 0.15628 0.95104 0.39199 0.0
C1821 C 0.14619 0.9576 0.37963 0.0
C1822 C 0.13976 0.90353 0.43392 0.0
C1823 C 0.09599 0.84619 0.42142 0.0
C1824 C 0.11849 0.86042 0.44461 0.0
C1825 C 0.10287 0.85441 0.44968 0.0
C1826 C 0.09155 0.84729 0.43797 0.0
N1827 N 0.12276 0.85931 0.42836 0.0
C1828 C 0.11177 0.85224 0.41683 0.0
Co1829 Co 0.65292 0.61138 0.91657 0.0
Co1830 Co 0.6423 0.62243 0.87654 0.0
O1831 O 0.64046 0.62423 0.9006 0.0
C1832 C 0.61761 0.60658 0.92609 0.0
O1833 O 0.61304 0.60636 0.91035 0.0
C1834 C 0.65078 0.65791 0.88456 0.0
O1835 O 0.66101 0.65217 0.89581 0.0
O1836 O 0.667 0.62419 0.87818 0.0
O1837 O 0.67333 0.61378 0.90314 0.0
H1838 H 0.66435 0.60078 0.82328 0.0
H1839 H 0.63512 0.64049 0.92795 0.0
O1840 O 0.63288 0.60859 0.93057 0.0
H1841 H 0.6942 0.65325 0.9431 0.0
H1842 H 0.67036 0.59388 0.97399 0.0
H1843 H 0.67658 0.58459 0.91397 0.0
H1844 H 0.68528 0.62649 0.92986 0.0
H1845 H 0.65515 0.6104 0.95354 0.0
O1846 O 0.64212 0.64766 0.87519 0.0
H1847 H 0.66186 0.60264 0.85367 0.0
H1848 H 0.62652 0.63963 0.84813 0.0
H1849 H 0.69211 0.56788 0.93397 0.0
H1850 H 0.64351 0.66742 0.94115 0.0
H1851 H 0.68905 0.57249 0.96423 0.0
H1852 H 0.67323 0.67395 0.94882 0.0
O1853 O 0.64599 0.59045 0.90469 0.0
H1854 H 0.58467 0.63971 0.88836 0.0
H1855 H 0.61751 0.59931 0.85898 0.0
H1856 H 0.58685 0.59671 0.85693 0.0
H1857 H 0.57022 0.61703 0.87166 0.0
H1858 H 0.61535 0.64174 0.89022 0.0
H1859 H 0.62872 0.63829 0.81767 0.0
H1860 H 0.6477 0.6187 0.80506 0.0
O1861 O 0.64274 0.59717 0.87776 0.0
C1862 C 0.67746 0.6195 0.88906 0.0
C1863 C 0.65599 0.60932 0.82862 0.0
C1864 C 0.63601 0.63039 0.82548 0.0
N1865 N 0.64394 0.62111 0.85263 0.0
C1866 C 0.65449 0.61038 0.84581 0.0
C1867 C 0.63484 0.63112 0.84272 0.0
C1868 C 0.64666 0.61939 0.81841 0.0
C1869 C 0.64805 0.64316 0.9314 0.0
N1870 N 0.65968 0.6319 0.92817 0.0
C1871 C 0.65274 0.65846 0.93882 0.0
C1872 C 0.66943 0.66214 0.94308 0.0
C1873 C 0.68119 0.65053 0.93987 0.0
C1874 C 0.67607 0.6354 0.93235 0.0
C1875 C 0.67183 0.59179 0.96084 0.0
C1876 C 0.67527 0.58674 0.92712 0.0
C1877 C 0.66323 0.60108 0.94921 0.0
N1878 N 0.6651 0.59855 0.93259 0.0
C1879 C 0.68405 0.57721 0.93838 0.0
C1880 C 0.68232 0.57979 0.95536 0.0
C1881 C 0.64347 0.58646 0.88946 0.0
C1882 C 0.59178 0.63081 0.88184 0.0
C1883 C 0.61036 0.60815 0.8655 0.0
C1884 C 0.593 0.60664 0.86425 0.0
C1885 C 0.58368 0.61806 0.8725 0.0
N1886 N 0.6182 0.62069 0.87468 0.0
C1887 C 0.60915 0.63195 0.88278 0.0
Co1888 Co 0.6048 0.87961 0.86801 0.0
Co1889 Co 0.64462 0.87255 0.88178 0.0
O1890 O 0.62061 0.86822 0.88181 0.0
C1891 C 0.59129 0.88455 0.90159 0.0
O1892 O 0.60545 0.89218 0.90634 0.0
C1893 C 0.63928 0.83691 0.87299 0.0
O1894 O 0.62884 0.84217 0.86168 0.0
O1895 O 0.64506 0.87159 0.85707 0.0
O1896 O 0.62006 0.88033 0.84903 0.0
H1897 H 0.69832 0.90091 0.8643 0.0
H1898 H 0.59392 0.84844 0.88482 0.0
O1899 O 0.58907 0.87905 0.8868 0.0
H1900 H 0.58541 0.83679 0.82497 0.0
H1901 H 0.54739 0.88994 0.84541 0.0
H1902 H 0.60692 0.90764 0.84438 0.0
H1903 H 0.59604 0.8645 0.83484 0.0
H1904 H 0.56798 0.87594 0.86281 0.0
O1905 O 0.64734 0.84753 0.88248 0.0
H1906 H 0.66783 0.89563 0.86416 0.0
H1907 H 0.67281 0.85763 0.89984 0.0
H1908 H 0.5868 0.92183 0.82662 0.0
H1909 H 0.58306 0.82068 0.87551 0.0
H1910 H 0.55679 0.913 0.82707 0.0
H1911 H 0.57883 0.81469 0.84539 0.0
O1912 O 0.61466 0.90155 0.87554 0.0
H1913 H 0.62852 0.85249 0.93828 0.0
H1914 H 0.65918 0.89628 0.90739 0.0
H1915 H 0.65847 0.8981 0.93792 0.0
H1916 H 0.64308 0.87608 0.95358 0.0
H1917 H 0.62944 0.85122 0.90773 0.0
H1918 H 0.70337 0.86237 0.90025 0.0
H1919 H 0.7163 0.88419 0.88244 0.0
O1920 O 0.64182 0.89757 0.88085 0.0
C1921 C 0.63476 0.87629 0.84603 0.0
C1922 C 0.69283 0.89139 0.87215 0.0
C1923 C 0.69567 0.86975 0.89231 0.0
N1924 N 0.66858 0.87643 0.88207 0.0
C1925 C 0.67558 0.88839 0.87216 0.0
C1926 C 0.67837 0.86709 0.892 0.0
C1927 C 0.70291 0.882 0.88232 0.0
C1928 C 0.59186 0.84603 0.8717 0.0
N1929 N 0.59547 0.85813 0.86039 0.0
C1930 C 0.5858 0.83024 0.8665 0.0
C1931 C 0.58346 0.82688 0.84959 0.0
C1932 C 0.58715 0.83929 0.83813 0.0
C1933 C 0.59319 0.85493 0.84378 0.0
C1934 C 0.56043 0.8939 0.8451 0.0
C1935 C 0.5939 0.90366 0.84458 0.0
C1936 C 0.57214 0.88605 0.85496 0.0
N1937 N 0.58865 0.89089 0.85452 0.0
C1938 C 0.58255 0.91178 0.83454 0.0
C1939 C 0.56571 0.90683 0.83481 0.0
C1940 C 0.62956 0.90707 0.87889 0.0
C1941 C 0.6353 0.86214 0.93161 0.0
C1942 C 0.65242 0.88667 0.91411 0.0
C1943 C 0.65209 0.88775 0.9314 0.0
C1944 C 0.64346 0.87539 0.94018 0.0
N1945 N 0.64443 0.87361 0.90581 0.0
C1946 C 0.63592 0.86146 0.91432 0.0
Co1947 Co 0.62425 0.11356 0.39673 0.0
Co1948 Co 0.63075 0.08065 0.37023 0.0
O1949 O 0.62008 0.10099 0.37604 0.0
C1950 C 0.58784 0.1053 0.39607 0.0
O1951 O 0.59193 0.09003 0.39334 0.0
C1952 C 0.63911 0.1036 0.34303 0.0
O1953 O 0.64237 0.11517 0.35436 0.0
O1954 O 0.6531 0.09051 0.37671 0.0
O1955 O 0.64915 0.1106 0.39552 0.0
H1956 H 0.64062 0.01911 0.37194 0.0
H1957 H 0.60465 0.1281 0.36929 0.0
O1958 O 0.59936 0.11672 0.39811 0.0
H1959 H 0.65355 0.16677 0.37867 0.0
H1960 H 0.61515 0.16035 0.43656 0.0
H1961 H 0.6459 0.11005 0.42669 0.0
H1962 H 0.64959 0.14182 0.3959 0.0
H1963 H 0.61055 0.14418 0.41059 0.0
O1964 O 0.63406 0.08904 0.34719 0.0
H1965 H 0.62736 0.04431 0.38019 0.0
H1966 H 0.65862 0.07311 0.34852 0.0
H1967 H 0.651 0.12594 0.45278 0.0
H1968 H 0.60805 0.15299 0.35187 0.0
H1969 H 0.63555 0.15128 0.45784 0.0
H1970 H 0.63268 0.17249 0.35647 0.0
O1971 O 0.62177 0.09303 0.4104 0.0
H1972 H 0.57869 0.07425 0.33356 0.0
H1973 H 0.60476 0.05674 0.38592 0.0
H1974 H 0.57689 0.04607 0.37824 0.0
H1975 H 0.56353 0.05442 0.35182 0.0
H1976 H 0.60632 0.08527 0.34157 0.0
H1977 H 0.67234 0.04805 0.34005 0.0
H1978 H 0.66331 0.02072 0.35166 0.0
O1979 O 0.62894 0.07251 0.3933 0.0
C1980 C 0.65865 0.10163 0.38706 0.0
C1981 C 0.64444 0.03089 0.36651 0.0
C1982 C 0.66222 0.04712 0.34864 0.0
N1983 N 0.64133 0.0603 0.36413 0.0
C1984 C 0.63673 0.04533 0.37098 0.0
C1985 C 0.65421 0.06129 0.35336 0.0
C1986 C 0.65719 0.0318 0.35518 0.0
C1987 C 0.6153 0.13663 0.37149 0.0
N1988 N 0.62686 0.13355 0.38365 0.0
C1989 C 0.6172 0.15066 0.36154 0.0
C1990 C 0.63103 0.16158 0.36411 0.0
C1991 C 0.64275 0.15838 0.37655 0.0
C1992 C 0.64046 0.14421 0.38625 0.0
C1993 C 0.62197 0.14934 0.43449 0.0
C1994 C 0.63921 0.12112 0.42878 0.0
C1995 C 0.61939 0.14011 0.41983 0.0
N1996 N 0.62803 0.12625 0.41711 0.0
C1997 C 0.64211 0.13004 0.44358 0.0
C1998 C 0.63343 0.14425 0.44642 0.0
C1999 C 0.62514 0.07803 0.40747 0.0
C2000 C 0.58458 0.07009 0.3449 0.0
C2001 C 0.59975 0.06035 0.37408 0.0
C2002 C 0.58361 0.05424 0.36991 0.0
C2003 C 0.57606 0.05902 0.35515 0.0
N2004 N 0.60843 0.07097 0.36381 0.0
C2005 C 0.60065 0.0761 0.34951 0.0
Co2006 Co 0.41474 0.12521 0.86386 0.0
Co2007 Co 0.37509 0.13152 0.8767 0.0
O2008 O 0.39903 0.13638 0.87731 0.0
C2009 C 0.42942 0.1206 0.89783 0.0
O2010 O 0.41579 0.11239 0.90235 0.0
C2011 C 0.37957 0.16703 0.86783 0.0
O2012 O 0.38989 0.1617 0.85691 0.0
O2013 O 0.37399 0.13185 0.85199 0.0
O2014 O 0.39915 0.12444 0.84428 0.0
H2015 H 0.32138 0.10193 0.85777 0.0
H2016 H 0.42516 0.15675 0.88133 0.0
O2017 O 0.43081 0.1261 0.88315 0.0
H2018 H 0.43339 0.16773 0.82193 0.0
H2019 H 0.47219 0.11453 0.84448 0.0
H2020 H 0.41259 0.09711 0.83979 0.0
H2021 H 0.42331 0.14003 0.83118 0.0
H2022 H 0.45151 0.12912 0.86033 0.0
O2023 O 0.37189 0.15648 0.87712 0.0
H2024 H 0.35181 0.10768 0.85852 0.0
H2025 H 0.34709 0.14624 0.89397 0.0
H2026 H 0.43283 0.08226 0.82359 0.0
H2027 H 0.43544 0.18459 0.87263 0.0
H2028 H 0.46288 0.09094 0.82591 0.0
H2029 H 0.43951 0.19025 0.84272 0.0
O2030 O 0.40535 0.10314 0.8708 0.0
H2031 H 0.3923 0.15329 0.9335 0.0
H2032 H 0.36172 0.10815 0.9021 0.0
H2033 H 0.36329 0.10708 0.93268 0.0
H2034 H 0.37864 0.12979 0.94859 0.0
H2035 H 0.39054 0.15378 0.90291 0.0
H2036 H 0.31658 0.14102 0.89351 0.0
H2037 H 0.30356 0.11867 0.87536 0.0
O2038 O 0.37836 0.10659 0.87603 0.0
C2039 C 0.38419 0.12798 0.84096 0.0
C2040 C 0.32691 0.11166 0.86577 0.0
C2041 C 0.32422 0.13362 0.88582 0.0
N2042 N 0.35119 0.12718 0.87638 0.0
C2043 C 0.34413 0.11493 0.86629 0.0
C2044 C 0.34148 0.13654 0.886 0.0
C2045 C 0.31692 0.12107 0.87563 0.0
C2046 C 0.42713 0.15905 0.86832 0.0
N2047 N 0.4237 0.14674 0.85679 0.0
C2048 C 0.43287 0.17486 0.86345 0.0
C2049 C 0.43512 0.17804 0.84667 0.0
C2050 C 0.43167 0.16541 0.835 0.0
C2051 C 0.42594 0.14975 0.84031 0.0
C2052 C 0.45913 0.11066 0.84332 0.0
C2053 C 0.42562 0.10105 0.84075 0.0
C2054 C 0.44736 0.11885 0.8523 0.0
N2055 N 0.43084 0.11404 0.85089 0.0
C2056 C 0.43703 0.09256 0.83159 0.0
C2057 C 0.45389 0.09743 0.83291 0.0
C2058 C 0.39073 0.09734 0.8741 0.0
C2059 C 0.38554 0.14334 0.92671 0.0
C2060 C 0.36846 0.11804 0.90894 0.0
C2061 C 0.36928 0.11739 0.92625 0.0
C2062 C 0.37789 0.13014 0.93517 0.0
N2063 N 0.37596 0.13105 0.90075 0.0
C2064 C 0.38445 0.14358 0.9094 0.0
Co2065 Co 0.38632 0.89318 0.39432 0.0
Co2066 Co 0.37459 0.91819 0.36213 0.0
O2067 O 0.38833 0.90132 0.37165 0.0
C2068 C 0.42182 0.90458 0.39157 0.0
O2069 O 0.4159 0.91824 0.38561 0.0
C2070 C 0.37136 0.89075 0.33751 0.0
O2071 O 0.3695 0.88025 0.34976 0.0
O2072 O 0.35413 0.90557 0.36857 0.0
O2073 O 0.36092 0.89358 0.39275 0.0
H2074 H 0.32734 0.95654 0.36107 0.0
H2075 H 0.40614 0.87495 0.37035 0.0
O2076 O 0.41165 0.89286 0.39616 0.0
H2077 H 0.36151 0.83491 0.38727 0.0
H2078 H 0.40208 0.85726 0.44238 0.0
H2079 H 0.3658 0.90101 0.4231 0.0
H2080 H 0.36366 0.86328 0.39904 0.0
H2081 H 0.40377 0.86778 0.41378 0.0
O2082 O 0.37375 0.90623 0.34038 0.0
H2083 H 0.34557 0.93606 0.37344 0.0
H2084 H 0.37397 0.93584 0.32977 0.0
H2085 H 0.36358 0.89075 0.45175 0.0
H2086 H 0.40455 0.84666 0.35839 0.0
H2087 H 0.38182 0.86872 0.46155 0.0
H2088 H 0.38207 0.82643 0.36681 0.0
O2089 O 0.3875 0.9162 0.40362 0.0
H2090 H 0.43082 0.92506 0.33665 0.0
H2091 H 0.38752 0.95326 0.36656 0.0
H2092 H 0.41331 0.96906 0.35916 0.0
H2093 H 0.43515 0.95495 0.34404 0.0
H2094 H 0.40498 0.90969 0.34456 0.0
H2095 H 0.35596 0.95623 0.31687 0.0
H2096 H 0.33239 0.96665 0.33252 0.0
O2097 O 0.37477 0.93052 0.3836 0.0
C2098 C 0.35012 0.89797 0.38179 0.0
C2099 C 0.33754 0.95206 0.35411 0.0
C2100 C 0.3536 0.95189 0.32931 0.0
N2101 N 0.36087 0.93482 0.35237 0.0
C2102 C 0.34797 0.94054 0.36109 0.0
C2103 C 0.36376 0.94034 0.33667 0.0
C2104 C 0.34037 0.95771 0.33809 0.0
C2105 C 0.39644 0.86616 0.37421 0.0
N2106 N 0.38506 0.87073 0.38543 0.0
C2107 C 0.39555 0.85019 0.36734 0.0
C2108 C 0.38292 0.83885 0.37205 0.0
C2109 C 0.37137 0.8436 0.38351 0.0
C2110 C 0.37262 0.8597 0.3901 0.0
C2111 C 0.39405 0.86684 0.43824 0.0
C2112 C 0.3737 0.89135 0.42725 0.0
C2113 C 0.39498 0.87287 0.42208 0.0
N2114 N 0.38481 0.8849 0.41676 0.0
C2115 C 0.37242 0.88562 0.4435 0.0
C2116 C 0.38267 0.87327 0.44899 0.0
C2117 C 0.38077 0.92913 0.39826 0.0
C2118 C 0.42137 0.93136 0.3432 0.0
C2119 C 0.397 0.94704 0.36005 0.0
C2120 C 0.41155 0.95605 0.35585 0.0
C2121 C 0.4238 0.94813 0.34736 0.0
N2122 N 0.39471 0.93061 0.3559 0.0
C2123 C 0.40668 0.92274 0.34762 0.0
Co2124 Co 0.59026 0.1368 0.1463 0.0
Co2125 Co 0.61618 0.12607 0.1152 0.0
O2126 O 0.6072 0.12331 0.13728 0.0
C2127 C 0.61714 0.13864 0.17197 0.0
O2128 O 0.62774 0.14175 0.16014 0.0
C2129 C 0.60366 0.09081 0.11669 0.0
O2130 O 0.58971 0.09693 0.12133 0.0
O2131 O 0.59348 0.12592 0.1047 0.0
O2132 O 0.57853 0.1377 0.12431 0.0
H2133 H 0.62128 0.15092 0.0585 0.0
H2134 H 0.59799 0.10531 0.16283 0.0
O2135 O 0.60166 0.13634 0.16853 0.0
H2136 H 0.53855 0.09885 0.14638 0.0
H2137 H 0.55041 0.15327 0.18986 0.0
H2138 H 0.57343 0.16679 0.13522 0.0
H2139 H 0.55485 0.12477 0.14049 0.0
H2140 H 0.57151 0.13604 0.17772 0.0
O2141 O 0.61592 0.10079 0.11304 0.0
H2142 H 0.60993 0.1479 0.08652 0.0
H2143 H 0.64181 0.10872 0.09677 0.0
H2144 H 0.55226 0.18428 0.14683 0.0
H2145 H 0.58216 0.07918 0.16897 0.0
H2146 H 0.5406 0.17755 0.17435 0.0
H2147 H 0.55222 0.0758 0.16065 0.0
O2148 O 0.60343 0.15736 0.14095 0.0
H2149 H 0.6609 0.10546 0.15328 0.0
H2150 H 0.64683 0.14811 0.11248 0.0
H2151 H 0.67481 0.14918 0.12583 0.0
H2152 H 0.682 0.12773 0.14637 0.0
H2153 H 0.63303 0.10494 0.13975 0.0
H2154 H 0.65341 0.1112 0.0688 0.0
H2155 H 0.64317 0.13248 0.04948 0.0
O2156 O 0.61632 0.15141 0.11733 0.0
C2157 C 0.58035 0.13249 0.10953 0.0
C2158 C 0.62588 0.14164 0.06682 0.0
C2159 C 0.64389 0.11933 0.0726 0.0
N2160 N 0.62532 0.12825 0.09329 0.0
C2161 C 0.61954 0.13992 0.08272 0.0
C2162 C 0.63726 0.11796 0.0884 0.0
C2163 C 0.63815 0.13128 0.06177 0.0
C2164 C 0.58493 0.104 0.15933 0.0
N2165 N 0.57733 0.11659 0.1514 0.0
C2166 C 0.57605 0.08914 0.16277 0.0
C2167 C 0.55926 0.08725 0.15808 0.0
C2168 C 0.55159 0.10017 0.15005 0.0
C2169 C 0.56088 0.11481 0.14673 0.0
C2170 C 0.55535 0.1563 0.17784 0.0
C2171 C 0.56831 0.1637 0.14713 0.0
C2172 C 0.56731 0.14659 0.17091 0.0
N2173 N 0.57353 0.15029 0.15568 0.0
C2174 C 0.55637 0.17369 0.15368 0.0
C2175 C 0.54985 0.16991 0.16912 0.0
C2176 C 0.61177 0.16177 0.12835 0.0
C2177 C 0.65794 0.11484 0.1443 0.0
C2178 C 0.64986 0.13875 0.12144 0.0
C2179 C 0.66573 0.1394 0.12892 0.0
C2180 C 0.66976 0.12735 0.14044 0.0
N2181 N 0.63834 0.12643 0.12527 0.0
C2182 C 0.6422 0.11456 0.13654 0.0
Co2183 Co 0.36863 0.13497 0.63162 0.0
Co2184 Co 0.37573 0.09443 0.64184 0.0
O2185 O 0.36445 0.11106 0.62916 0.0
C2186 C 0.33335 0.12843 0.64004 0.0
O2187 O 0.33918 0.11689 0.64962 0.0
C2188 C 0.38407 0.08283 0.60772 0.0
O2189 O 0.39383 0.09614 0.60555 0.0
O2190 O 0.39779 0.10543 0.63724 0.0
O2191 O 0.39366 0.13234 0.63194 0.0
H2192 H 0.41747 0.07392 0.68328 0.0
H2193 H 0.34618 0.12142 0.60447 0.0
O2194 O 0.34353 0.13751 0.6316 0.0
H2195 H 0.39167 0.15265 0.57672 0.0
H2196 H 0.35722 0.19441 0.61938 0.0
H2197 H 0.39231 0.15708 0.65138 0.0
H2198 H 0.39119 0.15131 0.60727 0.0
H2199 H 0.35277 0.16399 0.61662 0.0
O2200 O 0.37638 0.08055 0.6212 0.0
H2201 H 0.40269 0.09512 0.66769 0.0
H2202 H 0.37322 0.05743 0.64203 0.0
H2203 H 0.39729 0.18741 0.65443 0.0
H2204 H 0.34608 0.12254 0.57388 0.0
H2205 H 0.37966 0.20628 0.63835 0.0
H2206 H 0.36898 0.13822 0.55982 0.0
O2207 O 0.36876 0.13382 0.6563 0.0
H2208 H 0.31747 0.07251 0.62747 0.0
H2209 H 0.35971 0.08162 0.67249 0.0
H2210 H 0.33192 0.06946 0.67897 0.0
H2211 H 0.31057 0.06482 0.65636 0.0
H2212 H 0.34535 0.08485 0.62158 0.0
H2213 H 0.38778 0.03582 0.65723 0.0
H2214 H 0.41004 0.04403 0.67808 0.0
O2215 O 0.37491 0.10777 0.66263 0.0
C2216 C 0.40323 0.12023 0.63416 0.0
C2217 C 0.40776 0.07019 0.67427 0.0
C2218 C 0.39111 0.0488 0.65963 0.0
N2219 N 0.38703 0.07752 0.65405 0.0
C2220 C 0.39931 0.08214 0.66544 0.0
C2221 C 0.38294 0.06109 0.65103 0.0
C2222 C 0.40359 0.05342 0.67133 0.0
C2223 C 0.35611 0.12837 0.59843 0.0
N2224 N 0.36862 0.13636 0.60763 0.0
C2225 C 0.35602 0.12891 0.58111 0.0
C2226 C 0.36888 0.1377 0.57323 0.0
C2227 C 0.38162 0.14579 0.5827 0.0
C2228 C 0.38131 0.14496 0.59999 0.0
C2229 C 0.365 0.18631 0.62642 0.0
C2230 C 0.38467 0.16523 0.64427 0.0
C2231 C 0.36252 0.16909 0.62494 0.0
N2232 N 0.37236 0.15881 0.63373 0.0
C2233 C 0.38751 0.18238 0.64608 0.0
C2234 C 0.3776 0.19297 0.63707 0.0
C2235 C 0.37182 0.12255 0.66677 0.0
C2236 C 0.32669 0.07441 0.63742 0.0
C2237 C 0.35049 0.07966 0.66259 0.0
C2238 C 0.33478 0.07273 0.66632 0.0
C2239 C 0.32282 0.07013 0.65363 0.0
N2240 N 0.35418 0.08389 0.64666 0.0
C2241 C 0.34253 0.08131 0.63414 0.0
Co2242 Co 0.41812 0.87915 0.13636 0.0
Co2243 Co 0.38341 0.88544 0.11133 0.0
O2244 O 0.39737 0.88968 0.13131 0.0
C2245 C 0.39724 0.87117 0.16498 0.0
O2246 O 0.38496 0.86762 0.15429 0.0
C2247 C 0.39293 0.92149 0.11145 0.0
O2248 O 0.40802 0.9168 0.11473 0.0
O2249 O 0.40295 0.88692 0.09652 0.0
O2250 O 0.42504 0.88175 0.11306 0.0
H2251 H 0.3664 0.85771 0.05704 0.0
H2252 H 0.40872 0.90743 0.15719 0.0
O2253 O 0.41148 0.87619 0.15993 0.0
H2254 H 0.46219 0.92553 0.13292 0.0
H2255 H 0.46858 0.86754 0.17176 0.0
H2256 H 0.43778 0.8544 0.1192 0.0
H2257 H 0.44948 0.89759 0.12685 0.0
H2258 H 0.44263 0.88123 0.16477 0.0
O2259 O 0.38107 0.91044 0.10909 0.0
H2260 H 0.38417 0.8629 0.08216 0.0
H2261 H 0.35245 0.8999 0.09831 0.0
H2262 H 0.4638 0.84059 0.12559 0.0
H2263 H 0.42108 0.93542 0.16374 0.0
H2264 H 0.47923 0.84698 0.15218 0.0
H2265 H 0.44797 0.94465 0.1515 0.0
O2266 O 0.4077 0.85691 0.1308 0.0
H2267 H 0.34761 0.90398 0.1574 0.0
H2268 H 0.35451 0.86116 0.11449 0.0
H2269 H 0.33062 0.85848 0.133 0.0
H2270 H 0.32706 0.88 0.15465 0.0
H2271 H 0.37138 0.90611 0.1387 0.0
H2272 H 0.33441 0.89524 0.07329 0.0
H2273 H 0.34132 0.87396 0.05249 0.0
O2274 O 0.3858 0.86048 0.11347 0.0
C2275 C 0.41839 0.88479 0.09899 0.0
C2276 C 0.36323 0.86699 0.06604 0.0
C2277 C 0.34529 0.88807 0.07515 0.0
N2278 N 0.36927 0.8816 0.09172 0.0
C2279 C 0.37321 0.86994 0.0803 0.0
C2280 C 0.35556 0.89068 0.08926 0.0
C2281 C 0.34917 0.87612 0.06349 0.0
C2282 C 0.42052 0.91129 0.15199 0.0
N2283 N 0.42841 0.90086 0.14174 0.0
C2284 C 0.42743 0.92718 0.15568 0.0
C2285 C 0.44251 0.93236 0.14878 0.0
C2286 C 0.45048 0.92164 0.13835 0.0
C2287 C 0.44321 0.90585 0.13493 0.0
C2288 C 0.46192 0.86462 0.16018 0.0
C2289 C 0.44456 0.85741 0.13068 0.0
C2290 C 0.44721 0.8723 0.15617 0.0
N2291 N 0.43875 0.86867 0.14156 0.0
C2292 C 0.45926 0.84951 0.13425 0.0
C2293 C 0.46793 0.85313 0.14914 0.0
C2294 C 0.39559 0.85116 0.12157 0.0
C2295 C 0.349 0.89455 0.14798 0.0
C2296 C 0.35305 0.87057 0.12388 0.0
C2297 C 0.33948 0.869 0.13431 0.0
C2298 C 0.33748 0.88108 0.14645 0.0
N2299 N 0.36427 0.88383 0.12546 0.0
C2300 C 0.36239 0.89573 0.13731 0.0
Co2301 Co 0.62948 0.86 0.6362 0.0
Co2302 Co 0.62166 0.90144 0.64122 0.0
O2303 O 0.63249 0.88339 0.63052 0.0
C2304 C 0.66499 0.869 0.6441 0.0
O2305 O 0.65926 0.88171 0.65193 0.0
C2306 C 0.60379 0.91524 0.61233 0.0
O2307 O 0.58988 0.91124 0.61983 0.0
O2308 O 0.59989 0.88871 0.63957 0.0
O2309 O 0.60431 0.86161 0.63586 0.0
H2310 H 0.58299 0.92675 0.68107 0.0
H2311 H 0.65028 0.86995 0.60773 0.0
O2312 O 0.65473 0.85849 0.63676 0.0
H2313 H 0.60498 0.83279 0.58408 0.0
H2314 H 0.643 0.79993 0.6324 0.0
H2315 H 0.6076 0.84028 0.65853 0.0
H2316 H 0.60652 0.83916 0.61408 0.0
H2317 H 0.64598 0.82968 0.62551 0.0
O2318 O 0.6177 0.91137 0.61879 0.0
H2319 H 0.59725 0.90391 0.66795 0.0
H2320 H 0.62271 0.93815 0.63651 0.0
H2321 H 0.6041 0.81064 0.6657 0.0
H2322 H 0.6493 0.86379 0.57768 0.0
H2323 H 0.62189 0.79025 0.65259 0.0
H2324 H 0.62651 0.8451 0.56568 0.0
O2325 O 0.63037 0.86493 0.66051 0.0
H2326 H 0.67692 0.92287 0.62025 0.0
H2327 H 0.64063 0.91974 0.6686 0.0
H2328 H 0.66852 0.93382 0.67146 0.0
H2329 H 0.6869 0.9354 0.64718 0.0
H2330 H 0.64898 0.90883 0.61796 0.0
H2331 H 0.60864 0.96134 0.64921 0.0
H2332 H 0.58863 0.9557 0.67169 0.0
O2333 O 0.62551 0.89191 0.66355 0.0
C2334 C 0.5946 0.87362 0.63757 0.0
C2335 C 0.5917 0.92937 0.67131 0.0
C2336 C 0.60609 0.94878 0.65343 0.0
N2337 N 0.61084 0.9197 0.65152 0.0
C2338 C 0.59984 0.91649 0.66386 0.0
C2339 C 0.61401 0.9356 0.64628 0.0
C2340 C 0.59487 0.94561 0.66604 0.0
C2341 C 0.64039 0.86172 0.60261 0.0
N2342 N 0.62852 0.85486 0.61265 0.0
C2343 C 0.63987 0.85832 0.58558 0.0
C2344 C 0.62707 0.84785 0.57885 0.0
C2345 C 0.61497 0.84094 0.58917 0.0
C2346 C 0.61588 0.84464 0.60614 0.0
C2347 C 0.63515 0.80869 0.63817 0.0
C2348 C 0.6153 0.83145 0.6527 0.0
C2349 C 0.63681 0.82554 0.63435 0.0
N2350 N 0.62688 0.83665 0.64152 0.0
C2351 C 0.6133 0.8147 0.65684 0.0
C2352 C 0.6233 0.80326 0.64949 0.0
C2353 C 0.62851 0.87776 0.66948 0.0
C2354 C 0.66901 0.92231 0.6309 0.0
C2355 C 0.64852 0.92044 0.65796 0.0
C2356 C 0.6643 0.92843 0.65965 0.0
C2357 C 0.6746 0.92932 0.64602 0.0
N2358 N 0.64312 0.91357 0.64309 0.0
C2359 C 0.65313 0.91445 0.62966 0.0
Co2360 Co 0.87641 0.59084 0.88821 0.0
Co2361 Co 0.88819 0.63149 0.87926 0.0
O2362 O 0.88929 0.60758 0.87607 0.0
C2363 C 0.91152 0.58131 0.89197 0.0
O2364 O 0.91641 0.59703 0.89354 0.0
C2365 C 0.87848 0.62518 0.84394 0.0
O2366 O 0.86807 0.61377 0.84979 0.0
O2367 O 0.8634 0.63007 0.87887 0.0
O2368 O 0.85631 0.60413 0.88684 0.0
H2369 H 0.86873 0.68366 0.90516 0.0
H2370 H 0.89449 0.58153 0.85824 0.0
O2371 O 0.89617 0.57696 0.88986 0.0
H2372 H 0.83548 0.56576 0.84555 0.0
H2373 H 0.85787 0.53234 0.90291 0.0
H2374 H 0.85239 0.59171 0.9154 0.0
H2375 H 0.84414 0.5777 0.87287 0.0
H2376 H 0.8736 0.55382 0.88727 0.0
O2377 O 0.88773 0.63409 0.8541 0.0
H2378 H 0.87012 0.65337 0.90149 0.0
H2379 H 0.90428 0.66072 0.86263 0.0
H2380 H 0.83636 0.57066 0.93129 0.0
H2381 H 0.88636 0.5698 0.83071 0.0
H2382 H 0.83905 0.54072 0.92506 0.0
H2383 H 0.85668 0.56176 0.82423 0.0
O2384 O 0.88314 0.60175 0.90965 0.0
H2385 H 0.9448 0.62003 0.8584 0.0
H2386 H 0.91409 0.64784 0.90186 0.0
H2387 H 0.94479 0.6495 0.90298 0.0
H2388 H 0.96035 0.63554 0.88113 0.0
H2389 H 0.9141 0.61856 0.85783 0.0
H2390 H 0.90316 0.6911 0.86577 0.0
H2391 H 0.88533 0.70274 0.8872 0.0
O2392 O 0.88841 0.62888 0.90441 0.0
C2393 C 0.85261 0.61874 0.88276 0.0
C2394 C 0.87659 0.67873 0.89581 0.0
C2395 C 0.8959 0.68291 0.87369 0.0
N2396 N 0.88738 0.65532 0.88197 0.0
C2397 C 0.87747 0.6616 0.89372 0.0
C2398 C 0.89645 0.66571 0.87195 0.0
C2399 C 0.88589 0.68943 0.88572 0.0
C2400 C 0.88156 0.57795 0.85557 0.0
N2401 N 0.86981 0.58026 0.86718 0.0
C2402 C 0.87703 0.57134 0.83994 0.0
C2403 C 0.86036 0.56689 0.83629 0.0
C2404 C 0.84846 0.56915 0.84824 0.0
C2405 C 0.85344 0.57592 0.8637 0.0
C2406 C 0.85657 0.54534 0.90571 0.0
C2407 C 0.85354 0.57871 0.91256 0.0
C2408 C 0.86546 0.55756 0.89692 0.0
N2409 N 0.8638 0.574 0.90033 0.0
C2410 C 0.84447 0.56685 0.92162 0.0
C2411 C 0.846 0.55005 0.91814 0.0
C2412 C 0.88663 0.61666 0.91448 0.0
C2413 C 0.93816 0.62621 0.86796 0.0
C2414 C 0.92077 0.64169 0.89233 0.0
C2415 C 0.93816 0.64271 0.89301 0.0
C2416 C 0.94688 0.63489 0.88074 0.0
N2417 N 0.91232 0.63317 0.87976 0.0
C2418 C 0.92078 0.62549 0.86766 0.0
Co2419 Co 0.87243 0.41277 0.15325 0.0
Co2420 Co 0.89964 0.38325 0.1424 0.0
O2421 O 0.8787 0.39422 0.13958 0.0
C2422 C 0.84379 0.38874 0.15604 0.0
O2423 O 0.85444 0.37755 0.16004 0.0
C2424 C 0.89825 0.39357 0.10712 0.0
O2425 O 0.8948 0.40814 0.11308 0.0
O2426 O 0.91271 0.40492 0.14211 0.0
O2427 O 0.89578 0.4224 0.15422 0.0
H2428 H 0.95619 0.3744 0.16761 0.0
H2429 H 0.8537 0.4053 0.12167 0.0
O2430 O 0.84891 0.4035 0.15265 0.0
H2431 H 0.87773 0.4624 0.1159 0.0
H2432 H 0.83484 0.45748 0.17034 0.0
H2433 H 0.887 0.43017 0.18319 0.0
H2434 H 0.88228 0.44685 0.14169 0.0
H2435 H 0.84348 0.43436 0.15287 0.0
O2436 O 0.90104 0.38177 0.1172 0.0
H2437 H 0.92962 0.38814 0.16438 0.0
H2438 H 0.91423 0.35487 0.12519 0.0
H2439 H 0.87889 0.4533 0.20092 0.0
H2440 H 0.84869 0.42048 0.09571 0.0
H2441 H 0.85264 0.46713 0.19452 0.0
H2442 H 0.86081 0.44921 0.09268 0.0
O2443 O 0.87682 0.40017 0.17365 0.0
H2444 H 0.85548 0.34128 0.12162 0.0
H2445 H 0.89958 0.35357 0.16425 0.0
H2446 H 0.88295 0.32705 0.16514 0.0
H2447 H 0.86073 0.32076 0.14371 0.0
H2448 H 0.87232 0.3677 0.12126 0.0
H2449 H 0.94069 0.34084 0.12788 0.0
H2450 H 0.96185 0.35057 0.14927 0.0
O2451 O 0.89837 0.38461 0.16772 0.0
C2452 C 0.90984 0.41891 0.14856 0.0
C2453 C 0.94704 0.37001 0.15828 0.0
C2454 C 0.93836 0.35119 0.13597 0.0
N2455 N 0.92037 0.37221 0.14471 0.0
C2456 C 0.93197 0.37771 0.15643 0.0
C2457 C 0.92342 0.3592 0.13448 0.0
C2458 C 0.95022 0.35665 0.14797 0.0
C2459 C 0.85885 0.41787 0.12051 0.0
N2460 N 0.86821 0.4252 0.1332 0.0
C2461 C 0.85603 0.42638 0.10576 0.0
C2462 C 0.86286 0.44249 0.10406 0.0
C2463 C 0.87237 0.44989 0.11707 0.0
C2464 C 0.87494 0.441 0.13163 0.0
C2465 C 0.84633 0.45159 0.17322 0.0
C2466 C 0.87562 0.4362 0.18026 0.0
C2467 C 0.85127 0.43848 0.16339 0.0
N2468 N 0.86581 0.43105 0.16691 0.0
C2469 C 0.87106 0.44925 0.19037 0.0
C2470 C 0.85632 0.45699 0.18679 0.0
C2471 C 0.88815 0.39051 0.17797 0.0
C2472 C 0.86517 0.34386 0.131 0.0
C2473 C 0.88991 0.35094 0.15489 0.0
C2474 C 0.88056 0.33588 0.15545 0.0
C2475 C 0.8681 0.33236 0.14341 0.0
N2476 N 0.88697 0.36214 0.14267 0.0
C2477 C 0.87479 0.35877 0.13082 0.0
Co2478 Co 0.08233 0.36952 0.62356 0.0
Co2479 Co 0.11696 0.39593 0.61805 0.0
O2480 O 0.10327 0.37568 0.61317 0.0
C2481 C 0.10291 0.34106 0.63077 0.0
O2482 O 0.11465 0.35177 0.6363 0.0
C2483 C 0.10826 0.39722 0.58199 0.0
O2484 O 0.09297 0.39357 0.58652 0.0
O2485 O 0.09734 0.4101 0.61727 0.0
O2486 O 0.07525 0.39265 0.62198 0.0
H2487 H 0.13303 0.44964 0.64768 0.0
H2488 H 0.09264 0.35051 0.59427 0.0
O2489 O 0.08909 0.34607 0.62525 0.0
H2490 H 0.03921 0.37353 0.57756 0.0
H2491 H 0.03129 0.33242 0.63333 0.0
H2492 H 0.06206 0.38488 0.64912 0.0
H2493 H 0.05119 0.37862 0.60572 0.0
H2494 H 0.05793 0.34044 0.62036 0.0
O2495 O 0.11986 0.39915 0.59315 0.0
H2496 H 0.11552 0.42418 0.64165 0.0
H2497 H 0.14818 0.41053 0.60393 0.0
H2498 H 0.03541 0.37742 0.66228 0.0
H2499 H 0.08104 0.345 0.56602 0.0
H2500 H 0.01981 0.35105 0.65437 0.0
H2501 H 0.05417 0.3566 0.55748 0.0
O2502 O 0.09223 0.37452 0.64605 0.0
H2503 H 0.15358 0.35191 0.59764 0.0
H2504 H 0.14538 0.39283 0.64206 0.0
H2505 H 0.16944 0.37513 0.6439 0.0
H2506 H 0.17367 0.35451 0.62157 0.0
H2507 H 0.12963 0.36977 0.59636 0.0
H2508 H 0.16598 0.43593 0.60944 0.0
H2509 H 0.15846 0.45564 0.6315 0.0
O2510 O 0.11399 0.39283 0.64285 0.0
C2511 C 0.08186 0.40704 0.61945 0.0
C2512 C 0.13646 0.44112 0.63806 0.0
C2513 C 0.15494 0.43344 0.61658 0.0
N2514 N 0.1309 0.41585 0.62253 0.0
C2515 C 0.12662 0.42667 0.63463 0.0
C2516 C 0.1448 0.41911 0.61349 0.0
C2517 C 0.15072 0.44449 0.62897 0.0
C2518 C 0.08084 0.35544 0.59071 0.0
N2519 N 0.07256 0.36479 0.60166 0.0
C2520 C 0.07438 0.35234 0.57467 0.0
C2521 C 0.05931 0.35888 0.56988 0.0
C2522 C 0.05092 0.36838 0.58114 0.0
C2523 C 0.05777 0.37124 0.59706 0.0
C2524 C 0.03795 0.34397 0.63686 0.0
C2525 C 0.05531 0.37341 0.64556 0.0
C2526 C 0.05306 0.34855 0.62959 0.0
N2527 N 0.06147 0.36317 0.63389 0.0
C2528 C 0.04025 0.36924 0.65309 0.0
C2529 C 0.03151 0.35443 0.64865 0.0
C2530 C 0.1041 0.3841 0.65199 0.0
C2531 C 0.1519 0.36089 0.60742 0.0
C2532 C 0.14713 0.38387 0.63231 0.0
C2533 C 0.16079 0.3739 0.6334 0.0
C2534 C 0.16316 0.36233 0.62086 0.0
N2535 N 0.13618 0.3824 0.61907 0.0
C2536 C 0.1384 0.37108 0.60673 0.0
Co2537 Co 0.13535 0.59603 0.12196 0.0
Co2538 Co 0.12627 0.63596 0.13241 0.0
O2539 O 0.12342 0.61199 0.13446 0.0
C2540 C 0.10005 0.58509 0.11467 0.0
O2541 O 0.09742 0.5998 0.10859 0.0
C2542 C 0.13447 0.62864 0.16749 0.0
O2543 O 0.14436 0.61797 0.16117 0.0
O2544 O 0.15098 0.63535 0.13355 0.0
O2545 O 0.15641 0.61013 0.1237 0.0
H2546 H 0.1501 0.68963 0.10965 0.0
H2547 H 0.11657 0.58502 0.15149 0.0
O2548 O 0.11442 0.58158 0.12016 0.0
H2549 H 0.17479 0.5719 0.16366 0.0
H2550 H 0.14944 0.53819 0.10557 0.0
H2551 H 0.1598 0.59791 0.09502 0.0
H2552 H 0.16691 0.58445 0.13699 0.0
H2553 H 0.13522 0.55908 0.1217 0.0
O2554 O 0.12611 0.63772 0.15769 0.0
H2555 H 0.14653 0.65916 0.11181 0.0
H2556 H 0.11171 0.6641 0.14998 0.0
H2557 H 0.17441 0.57746 0.07871 0.0
H2558 H 0.1239 0.57233 0.17827 0.0
H2559 H 0.16926 0.54735 0.08395 0.0
H2560 H 0.1532 0.56577 0.18452 0.0
O2561 O 0.12966 0.60712 0.10082 0.0
H2562 H 0.06804 0.62143 0.15042 0.0
H2563 H 0.10227 0.65234 0.10997 0.0
H2564 H 0.07167 0.65289 0.10782 0.0
H2565 H 0.05435 0.63738 0.12817 0.0
H2566 H 0.09868 0.62111 0.15204 0.0
H2567 H 0.115 0.69464 0.14835 0.0
H2568 H 0.13427 0.70758 0.12802 0.0
O2569 O 0.12664 0.63406 0.10714 0.0
C2570 C 0.16104 0.62467 0.12886 0.0
C2571 C 0.14163 0.68414 0.11852 0.0
C2572 C 0.12195 0.68695 0.14026 0.0
N2573 N 0.12882 0.6599 0.1309 0.0
C2574 C 0.13952 0.6669 0.11975 0.0
C2575 C 0.12016 0.66967 0.14115 0.0
C2576 C 0.13275 0.6942 0.12884 0.0
C2577 C 0.12931 0.58199 0.15403 0.0
N2578 N 0.14127 0.58538 0.14264 0.0
C2579 C 0.1334 0.57489 0.16925 0.0
C2580 C 0.14985 0.57124 0.17276 0.0
C2581 C 0.16197 0.57469 0.16107 0.0
C2582 C 0.15744 0.58182 0.14599 0.0
C2583 C 0.15183 0.55127 0.1032 0.0
C2584 C 0.15759 0.58484 0.09746 0.0
C2585 C 0.14378 0.56316 0.11227 0.0
N2586 N 0.14679 0.57971 0.10939 0.0
C2587 C 0.16586 0.57332 0.08815 0.0
C2588 C 0.16294 0.55642 0.09108 0.0
C2589 C 0.12764 0.62212 0.09658 0.0
C2590 C 0.07546 0.62828 0.14151 0.0
C2591 C 0.09481 0.64553 0.11884 0.0
C2592 C 0.07749 0.64591 0.11758 0.0
C2593 C 0.06778 0.63721 0.12901 0.0
N2594 N 0.10224 0.63677 0.13117 0.0
C2595 C 0.09281 0.62819 0.1424 0.0
Co2596 Co 0.91646 0.64094 0.61791 0.0
Co2597 Co 0.87644 0.62881 0.62919 0.0
O2598 O 0.90063 0.62741 0.63064 0.0
C2599 C 0.92498 0.60582 0.61185 0.0
O2600 O 0.90942 0.60065 0.61365 0.0
C2601 C 0.88575 0.63735 0.6643 0.0
O2602 O 0.89736 0.64728 0.65808 0.0
O2603 O 0.87809 0.6536 0.62975 0.0
O2604 O 0.90406 0.66101 0.62229 0.0
H2605 H 0.82241 0.64943 0.60712 0.0
H2606 H 0.92808 0.61989 0.64542 0.0
O2607 O 0.92949 0.62113 0.61317 0.0
H2608 H 0.94803 0.67696 0.66059 0.0
H2609 H 0.97328 0.65826 0.59729 0.0
H2610 H 0.91345 0.66847 0.59401 0.0
H2611 H 0.93259 0.67124 0.63415 0.0
H2612 H 0.95331 0.64202 0.61429 0.0
O2613 O 0.87584 0.62879 0.65447 0.0
H2614 H 0.85293 0.6476 0.60869 0.0
H2615 H 0.8485 0.61259 0.64759 0.0
H2616 H 0.93298 0.68517 0.57707 0.0
H2617 H 0.94331 0.62508 0.67205 0.0
H2618 H 0.96314 0.68007 0.57863 0.0
H2619 H 0.95339 0.65379 0.67979 0.0
O2620 O 0.90318 0.63665 0.59715 0.0
H2621 H 0.88873 0.57182 0.64932 0.0
H2622 H 0.85803 0.60352 0.60757 0.0
H2623 H 0.85583 0.57292 0.60658 0.0
H2624 H 0.87121 0.55686 0.6276 0.0
H2625 H 0.89076 0.60243 0.64971 0.0
H2626 H 0.81795 0.61411 0.64653 0.0
H2627 H 0.80472 0.6326 0.62614 0.0
O2628 O 0.87691 0.62897 0.60392 0.0
C2629 C 0.88958 0.66454 0.62664 0.0
C2630 C 0.82803 0.64128 0.61601 0.0
C2631 C 0.82552 0.62148 0.63815 0.0
N2632 N 0.85245 0.6299 0.62811 0.0
C2633 C 0.84529 0.64016 0.61692 0.0
C2634 C 0.84282 0.62069 0.63871 0.0
C2635 C 0.81811 0.63185 0.6267 0.0
C2636 C 0.93252 0.6324 0.64864 0.0
N2637 N 0.92952 0.64524 0.6382 0.0
C2638 C 0.94107 0.63528 0.66378 0.0
C2639 C 0.94671 0.65139 0.66812 0.0
C2640 C 0.94372 0.6644 0.65734 0.0
C2641 C 0.935 0.66108 0.64237 0.0
C2642 C 0.96018 0.66063 0.5966 0.0
C2643 C 0.92657 0.66627 0.59489 0.0
C2644 C 0.94882 0.65144 0.60614 0.0
N2645 N 0.93224 0.65432 0.6052 0.0
C2646 C 0.93757 0.67574 0.58522 0.0
C2647 C 0.95448 0.67287 0.58609 0.0
C2648 C 0.88811 0.63238 0.59322 0.0
C2649 C 0.88193 0.57868 0.64013 0.0
C2650 C 0.86485 0.59662 0.61669 0.0
C2651 C 0.8635 0.57929 0.61611 0.0
C2652 C 0.87212 0.57029 0.62791 0.0
N2653 N 0.87449 0.60475 0.62871 0.0
C2654 C 0.88296 0.59601 0.64034 0.0
Co2655 Co 0.13814 0.42 0.85744 0.0
Co2656 Co 0.10753 0.39072 0.86732 0.0
O2657 O 0.12967 0.40148 0.87067 0.0
C2658 C 0.16453 0.39598 0.85533 0.0
O2659 O 0.15287 0.38438 0.85187 0.0
C2660 C 0.10925 0.40049 0.90306 0.0
O2661 O 0.11407 0.41527 0.89776 0.0
O2662 O 0.09693 0.41252 0.86822 0.0
O2663 O 0.11587 0.42966 0.8562 0.0
H2664 H 0.05019 0.38272 0.84143 0.0
H2665 H 0.15564 0.41253 0.88915 0.0
O2666 O 0.1607 0.41082 0.8582 0.0
H2667 H 0.13712 0.46947 0.89573 0.0
H2668 H 0.18151 0.46351 0.84094 0.0
H2669 H 0.12597 0.43739 0.82756 0.0
H2670 H 0.13146 0.45391 0.86957 0.0
H2671 H 0.16934 0.44161 0.85879 0.0
O2672 O 0.10576 0.38882 0.89247 0.0
H2673 H 0.07827 0.39621 0.84533 0.0
H2674 H 0.08959 0.3622 0.88342 0.0
H2675 H 0.13763 0.45929 0.80942 0.0
H2676 H 0.16171 0.42767 0.91551 0.0
H2677 H 0.16571 0.47231 0.81592 0.0
H2678 H 0.15237 0.45634 0.91895 0.0
O2679 O 0.13269 0.40743 0.83671 0.0
H2680 H 0.14657 0.34795 0.88699 0.0
H2681 H 0.10445 0.36149 0.84437 0.0
H2682 H 0.11804 0.33484 0.84263 0.0
H2683 H 0.13925 0.32792 0.86407 0.0
H2684 H 0.13278 0.37452 0.88817 0.0
H2685 H 0.06159 0.34842 0.88005 0.0
H2686 H 0.0417 0.35865 0.85888 0.0
O2687 O 0.10909 0.3925 0.84205 0.0
C2688 C 0.10145 0.42637 0.86181 0.0
C2689 C 0.05876 0.37812 0.85066 0.0
C2690 C 0.06515 0.35888 0.87236 0.0
N2691 N 0.08557 0.3799 0.86449 0.0
C2692 C 0.07469 0.38567 0.85289 0.0
C2693 C 0.08097 0.36675 0.87424 0.0
C2694 C 0.054 0.36462 0.86047 0.0
C2695 C 0.15173 0.42508 0.89049 0.0
N2696 N 0.14333 0.43239 0.87779 0.0
C2697 C 0.15513 0.43356 0.90547 0.0
C2698 C 0.14986 0.44963 0.90739 0.0
C2699 C 0.1413 0.45701 0.89438 0.0
C2700 C 0.13812 0.44814 0.8796 0.0
C2701 C 0.1693 0.45785 0.83792 0.0
C2702 C 0.13809 0.44317 0.83061 0.0
C2703 C 0.16234 0.44547 0.848 0.0
N2704 N 0.14696 0.43823 0.84422 0.0
C2705 C 0.14467 0.45548 0.82023 0.0
C2706 C 0.16044 0.46277 0.82388 0.0
C2707 C 0.11997 0.39841 0.83194 0.0
C2708 C 0.13731 0.3508 0.87761 0.0
C2709 C 0.1137 0.35858 0.85372 0.0
C2710 C 0.12132 0.34346 0.85269 0.0
C2711 C 0.13321 0.33958 0.86473 0.0
N2712 N 0.11777 0.36952 0.8664 0.0
C2713 C 0.12941 0.36579 0.87825 0.0
Co2714 Co 0.09753 0.64626 0.37207 0.0
Co2715 Co 0.1309 0.62259 0.3822 0.0
O2716 O 0.11759 0.64198 0.38503 0.0
C2717 C 0.11953 0.67583 0.36696 0.0
O2718 O 0.13143 0.6656 0.36464 0.0
C2719 C 0.12083 0.62224 0.4174 0.0
O2720 O 0.1058 0.62434 0.41132 0.0
O2721 O 0.11074 0.60699 0.38191 0.0
O2722 O 0.08988 0.62257 0.37313 0.0
H2723 H 0.14633 0.56881 0.35642 0.0
H2724 H 0.10616 0.66682 0.40198 0.0
O2725 O 0.10497 0.67022 0.37047 0.0
H2726 H 0.05153 0.63913 0.41294 0.0
H2727 H 0.04799 0.67875 0.3557 0.0
H2728 H 0.07877 0.62879 0.34438 0.0
H2729 H 0.0652 0.63462 0.38638 0.0
H2730 H 0.07356 0.67327 0.37188 0.0
O2731 O 0.13278 0.62068 0.40741 0.0
H2732 H 0.12942 0.59322 0.35978 0.0
H2733 H 0.16113 0.61097 0.3997 0.0
H2734 H 0.0532 0.63371 0.32803 0.0
H2735 H 0.09287 0.67179 0.42868 0.0
H2736 H 0.03761 0.65884 0.33366 0.0
H2737 H 0.06539 0.65782 0.43432 0.0
O2738 O 0.1088 0.64184 0.35111 0.0
H2739 H 0.16809 0.67031 0.40391 0.0
H2740 H 0.16036 0.62678 0.36069 0.0
H2741 H 0.18499 0.64628 0.36022 0.0
H2742 H 0.18897 0.66823 0.38194 0.0
H2743 H 0.14359 0.65063 0.40385 0.0
H2744 H 0.1783 0.58669 0.39689 0.0
H2745 H 0.17096 0.56544 0.37508 0.0
O2746 O 0.12912 0.62446 0.35697 0.0
C2747 C 0.09569 0.60879 0.37727 0.0
C2748 C 0.14968 0.57801 0.36594 0.0
C2749 C 0.16761 0.58803 0.38868 0.0
N2750 N 0.14437 0.60354 0.37984 0.0
C2751 C 0.14018 0.59187 0.36787 0.0
C2752 C 0.15782 0.60172 0.39024 0.0
C2753 C 0.16349 0.57612 0.37643 0.0
C2754 C 0.09411 0.66087 0.40427 0.0
N2755 N 0.08642 0.65054 0.39261 0.0
C2756 C 0.08668 0.66366 0.41944 0.0
C2757 C 0.07127 0.6558 0.42261 0.0
C2758 C 0.06349 0.6453 0.41062 0.0
C2759 C 0.0713 0.64278 0.39561 0.0
C2760 C 0.05466 0.66775 0.35315 0.0
C2761 C 0.07202 0.63972 0.34696 0.0
C2762 C 0.06916 0.6646 0.36224 0.0
N2763 N 0.07756 0.65066 0.35917 0.0
C2764 C 0.05757 0.64246 0.33763 0.0
C2765 C 0.04883 0.65656 0.34079 0.0
C2766 C 0.12046 0.63281 0.34668 0.0
C2767 C 0.16652 0.66076 0.39441 0.0
C2768 C 0.162 0.63631 0.37018 0.0
C2769 C 0.17598 0.6473 0.36987 0.0
C2770 C 0.17822 0.65961 0.38207 0.0
N2771 N 0.15059 0.63751 0.38234 0.0
C2772 C 0.15271 0.64954 0.39436 0.0
Co2773 Co 0.90988 0.35706 0.38477 0.0
Co2774 Co 0.88481 0.38962 0.39182 0.0
O2775 O 0.89159 0.36713 0.39549 0.0
C2776 C 0.88159 0.33349 0.3757 0.0
O2777 O 0.87381 0.34589 0.36921 0.0
C2778 C 0.89425 0.38881 0.4276 0.0
O2779 O 0.90823 0.38321 0.42242 0.0
O2780 O 0.90821 0.3991 0.39346 0.0
O2781 O 0.924 0.37795 0.38677 0.0
H2782 H 0.88637 0.44596 0.3656 0.0
H2783 H 0.89406 0.34001 0.4132 0.0
O2784 O 0.89603 0.33585 0.38244 0.0
H2785 H 0.95215 0.35321 0.43164 0.0
H2786 H 0.94746 0.31048 0.37379 0.0
H2787 H 0.93373 0.36744 0.35892 0.0
H2788 H 0.94252 0.36018 0.4033 0.0
H2789 H 0.92473 0.32411 0.38759 0.0
O2790 O 0.88286 0.3923 0.41694 0.0
H2791 H 0.89527 0.41747 0.36997 0.0
H2792 H 0.85913 0.40973 0.40694 0.0
H2793 H 0.95649 0.35427 0.34475 0.0
H2794 H 0.90328 0.33244 0.44141 0.0
H2795 H 0.96349 0.32559 0.35218 0.0
H2796 H 0.93251 0.33914 0.45081 0.0
O2797 O 0.9018 0.36425 0.36263 0.0
H2798 H 0.83533 0.35414 0.40951 0.0
H2799 H 0.8567 0.39345 0.36762 0.0
H2800 H 0.82792 0.38149 0.36467 0.0
H2801 H 0.81706 0.3617 0.38573 0.0
H2802 H 0.86406 0.36631 0.41191 0.0
H2803 H 0.84992 0.43819 0.4031 0.0
H2804 H 0.86354 0.45648 0.38225 0.0
O2805 O 0.88705 0.38687 0.36679 0.0
C2806 C 0.92213 0.39311 0.39032 0.0
C2807 C 0.88031 0.43809 0.37469 0.0
C2808 C 0.85987 0.43374 0.39576 0.0
N2809 N 0.87763 0.41194 0.38861 0.0
C2810 C 0.88526 0.42194 0.37718 0.0
C2811 C 0.86515 0.41766 0.39791 0.0
C2812 C 0.86751 0.44399 0.38405 0.0
C2813 C 0.9069 0.34266 0.41706 0.0
N2814 N 0.91782 0.35033 0.40652 0.0
C2815 C 0.91201 0.33845 0.4331 0.0
C2816 C 0.9284 0.34223 0.43838 0.0
C2817 C 0.93945 0.3501 0.42759 0.0
C2818 C 0.93392 0.35404 0.41159 0.0
C2819 C 0.94454 0.32299 0.37045 0.0
C2820 C 0.93674 0.35498 0.36225 0.0
C2821 C 0.93169 0.33077 0.37823 0.0
N2822 N 0.928 0.34659 0.37414 0.0
C2823 C 0.9496 0.34756 0.35415 0.0
C2824 C 0.95352 0.33147 0.35832 0.0
C2825 C 0.89369 0.37637 0.35721 0.0
C2826 C 0.8399 0.36279 0.40028 0.0
C2827 C 0.85207 0.38483 0.37682 0.0
C2828 C 0.83575 0.37812 0.3751 0.0
C2829 C 0.82967 0.36702 0.38693 0.0
N2830 N 0.86201 0.38065 0.38997 0.0
C2831 C 0.85614 0.36977 0.40161 0.0
H2832 H 0.13937 0.32469 0.34706 0.0
H2833 H 0.14125 0.29437 0.34576 0.0
H2834 H 0.12542 0.29073 0.39636 0.0
H2835 H 0.12313 0.32078 0.39759 0.0
H2836 H 0.15155 0.26905 0.38777 0.0
H2837 H 0.09719 0.28684 0.36852 0.0
H2838 H 0.07948 0.30298 0.34994 0.0
H2839 H 0.09791 0.27782 0.30759 0.0
H2840 H 0.116 0.26177 0.32594 0.0
H2841 H 0.10846 0.19761 0.40931 0.0
H2842 H 0.11478 0.22621 0.40136 0.0
H2843 H 0.1234 0.21028 0.35125 0.0
H2844 H 0.11685 0.1813 0.35914 0.0
H2845 H 0.10628 0.2405 0.35357 0.0
H2846 H 0.15597 0.2179 0.37442 0.0
H2847 H 0.17251 0.20159 0.39391 0.0
H2848 H 0.16303 0.23558 0.43339 0.0
H2849 H 0.14613 0.2519 0.41421 0.0
C2850 C 0.1367 0.31741 0.358 0.0
C2851 C 0.13104 0.32498 0.3724 0.0
C2852 C 0.13774 0.30015 0.35723 0.0
C2853 C 0.13343 0.29038 0.37096 0.0
C2854 C 0.12886 0.29809 0.38568 0.0
C2855 C 0.1275 0.31522 0.38634 0.0
C2856 C 0.1318 0.27208 0.36971 0.0
C2857 C 0.14179 0.26276 0.38019 0.0
C2858 C 0.11925 0.26393 0.35955 0.0
C2859 C 0.1081 0.27327 0.34857 0.0
C2860 C 0.09756 0.28485 0.35524 0.0
C2861 C 0.08745 0.29397 0.34475 0.0
C2862 C 0.08761 0.29146 0.32759 0.0
C2863 C 0.09783 0.27978 0.32088 0.0
C2864 C 0.10803 0.27068 0.33132 0.0
C2865 C 0.11151 0.20014 0.39653 0.0
C2866 C 0.11236 0.1872 0.38489 0.0
C2867 C 0.11514 0.21651 0.39202 0.0
C2868 C 0.11991 0.22029 0.37582 0.0
C2869 C 0.11985 0.20755 0.36385 0.0
C2870 C 0.1161 0.19105 0.36836 0.0
C2871 C 0.12573 0.23751 0.37202 0.0
C2872 C 0.11649 0.24665 0.36067 0.0
C2873 C 0.13901 0.24551 0.38138 0.0
C2874 C 0.14973 0.23611 0.39286 0.0
C2875 C 0.15737 0.22188 0.38727 0.0
C2876 C 0.16679 0.21261 0.39827 0.0
C2877 C 0.16881 0.21754 0.41488 0.0
C2878 C 0.16146 0.23178 0.42051 0.0
C2879 C 0.15197 0.24106 0.40957 0.0
H2880 H 0.17608 0.21032 0.42339 0.0
H2881 H 0.07977 0.29854 0.31949 0.0
H2882 H 0.3203 0.61397 0.8608 0.0
H2883 H 0.28978 0.61201 0.85815 0.0
H2884 H 0.28729 0.65585 0.88871 0.0
H2885 H 0.31769 0.65763 0.89184 0.0
H2886 H 0.26692 0.61245 0.88993 0.0
H2887 H 0.25575 0.67653 0.8634 0.0
H2888 H 0.26972 0.69767 0.84588 0.0
H2889 H 0.29417 0.65956 0.81996 0.0
H2890 H 0.28013 0.63819 0.83713 0.0
H2891 H 0.18332 0.63976 0.89813 0.0
H2892 H 0.21377 0.64294 0.89639 0.0
H2893 H 0.21141 0.61584 0.85002 0.0
H2894 H 0.18112 0.61212 0.85192 0.0
H2895 H 0.23412 0.65014 0.85511 0.0
H2896 H 0.22124 0.59302 0.87366 0.0
H2897 H 0.20655 0.57344 0.89228 0.0
H2898 H 0.23041 0.59807 0.93464 0.0
H2899 H 0.24496 0.61803 0.91624 0.0
C2900 C 0.31324 0.62327 0.86681 0.0
C2901 C 0.32134 0.63596 0.87652 0.0
C2902 C 0.29586 0.62208 0.86536 0.0
C2903 C 0.2864 0.6338 0.87323 0.0
C2904 C 0.29445 0.64672 0.88254 0.0
C2905 C 0.31178 0.64771 0.88431 0.0
C2906 C 0.26805 0.63231 0.8722 0.0
C2907 C 0.25975 0.62059 0.88222 0.0
C2908 C 0.25878 0.64309 0.8623 0.0
C2909 C 0.26704 0.65579 0.85169 0.0
C2910 C 0.26406 0.67267 0.85392 0.0
C2911 C 0.27199 0.68469 0.84405 0.0
C2912 C 0.28287 0.67997 0.83186 0.0
C2913 C 0.2858 0.66321 0.82946 0.0
C2914 C 0.27788 0.65114 0.83928 0.0
C2915 C 0.18932 0.63462 0.88751 0.0
C2916 C 0.17994 0.62558 0.87523 0.0
C2917 C 0.20664 0.63646 0.88653 0.0
C2918 C 0.21471 0.62963 0.87307 0.0
C2919 C 0.20532 0.62122 0.86046 0.0
C2920 C 0.18808 0.61901 0.86163 0.0
C2921 C 0.23305 0.63023 0.87273 0.0
C2922 C 0.24132 0.6419 0.86266 0.0
C2923 C 0.24232 0.61942 0.88259 0.0
C2924 C 0.23404 0.6071 0.8936 0.0
C2925 C 0.22324 0.59434 0.88695 0.0
C2926 C 0.21496 0.58316 0.89746 0.0
C2927 C 0.21751 0.58453 0.91464 0.0
C2928 C 0.22842 0.59704 0.92133 0.0
C2929 C 0.23669 0.60828 0.91087 0.0
H2930 H 0.21107 0.57588 0.92276 0.0
H2931 H 0.28901 0.68929 0.82424 0.0
H2932 H 0.88024 0.82472 0.36467 0.0
H2933 H 0.87624 0.79481 0.35857 0.0
H2934 H 0.90416 0.78399 0.40321 0.0
H2935 H 0.90782 0.81362 0.40961 0.0
H2936 H 0.91335 0.76725 0.37157 0.0
H2937 H 0.86714 0.77865 0.40713 0.0
H2938 H 0.84218 0.79343 0.4142 0.0
H2939 H 0.81795 0.77654 0.3686 0.0
H2940 H 0.8429 0.76188 0.36114 0.0
H2941 H 0.87502 0.6825 0.39587 0.0
H2942 H 0.87304 0.71276 0.396 0.0
H2943 H 0.89254 0.71495 0.34665 0.0
H2944 H 0.89524 0.68493 0.34683 0.0
H2945 H 0.85883 0.73667 0.3783 0.0
H2946 H 0.91852 0.74712 0.34305 0.0
H2947 H 0.94366 0.7326 0.3359 0.0
H2948 H 0.94168 0.70635 0.38192 0.0
H2949 H 0.91635 0.72051 0.38929 0.0
C2950 C 0.88555 0.81593 0.37312 0.0
C2951 C 0.8943 0.82145 0.38762 0.0
C2952 C 0.88322 0.79891 0.36965 0.0
C2953 C 0.88991 0.7873 0.38047 0.0
C2954 C 0.89893 0.79282 0.39474 0.0
C2955 C 0.90094 0.80972 0.39839 0.0
C2956 C 0.88754 0.76929 0.37715 0.0
C2957 C 0.90141 0.76056 0.37288 0.0
C2958 C 0.87197 0.76066 0.37894 0.0
C2959 C 0.85695 0.76936 0.38348 0.0
C2960 C 0.85655 0.77824 0.39853 0.0
C2961 C 0.8424 0.78656 0.40263 0.0
C2962 C 0.82851 0.78597 0.39183 0.0
C2963 C 0.82873 0.77701 0.37694 0.0
C2964 C 0.84287 0.76869 0.37277 0.0
C2965 C 0.87851 0.68945 0.38494 0.0
C2966 C 0.88547 0.68151 0.37143 0.0
C2967 C 0.8774 0.7067 0.38501 0.0
C2968 C 0.88304 0.71615 0.3715 0.0
C2969 C 0.88854 0.70797 0.35739 0.0
C2970 C 0.89 0.69084 0.35747 0.0
C2971 C 0.88471 0.73452 0.37281 0.0
C2972 C 0.87072 0.74335 0.37672 0.0
C2973 C 0.90022 0.74329 0.37072 0.0
C2974 C 0.91552 0.7348 0.36664 0.0
C2975 C 0.92347 0.73824 0.35165 0.0
C2976 C 0.93768 0.73001 0.34753 0.0
C2977 C 0.94416 0.71845 0.35841 0.0
C2978 C 0.93649 0.71515 0.37346 0.0
C2979 C 0.92219 0.72324 0.37759 0.0
H2980 H 0.95518 0.7121 0.35522 0.0
H2981 H 0.81755 0.79242 0.39503 0.0
H2982 H 0.84129 0.41005 0.86731 0.0
H2983 H 0.81124 0.40439 0.86584 0.0
H2984 H 0.81544 0.36774 0.90428 0.0
H2985 H 0.84572 0.37275 0.90509 0.0
H2986 H 0.79371 0.35664 0.88297 0.0
H2987 H 0.80237 0.40865 0.91131 0.0
H2988 H 0.81349 0.43749 0.9155 0.0
H2989 H 0.78657 0.45247 0.87191 0.0
H2990 H 0.77551 0.42365 0.86729 0.0
H2991 H 0.71016 0.35603 0.90938 0.0
H2992 H 0.74022 0.35955 0.90703 0.0
H2993 H 0.73382 0.38878 0.86297 0.0
H2994 H 0.70353 0.38545 0.86527 0.0
H2995 H 0.75631 0.40349 0.88598 0.0
H2996 H 0.74618 0.34933 0.86028 0.0
H2997 H 0.73526 0.32019 0.85911 0.0
H2998 H 0.76488 0.30922 0.90233 0.0
H2999 H 0.77579 0.33833 0.90392 0.0
C3000 C 0.83581 0.40077 0.87543 0.0
C3001 C 0.84583 0.39192 0.88641 0.0
C3002 C 0.8186 0.39759 0.87465 0.0
C3003 C 0.81096 0.3859 0.88522 0.0
C3004 C 0.821 0.37685 0.89601 0.0
C3005 C 0.8383 0.37974 0.89651 0.0
C3006 C 0.79252 0.3832 0.8851 0.0
C3007 C 0.78556 0.3669 0.88382 0.0
C3008 C 0.7818 0.39656 0.88599 0.0
C3009 C 0.78824 0.41396 0.88886 0.0
C3010 C 0.7989 0.41808 0.90256 0.0
C3011 C 0.80519 0.43442 0.90501 0.0
C3012 C 0.80077 0.44679 0.89396 0.0
C3013 C 0.79 0.44286 0.88045 0.0
C3014 C 0.78372 0.42653 0.87791 0.0
C3015 C 0.71506 0.36312 0.89908 0.0
C3016 C 0.70437 0.37049 0.88751 0.0
C3017 C 0.7323 0.36505 0.89774 0.0
C3018 C 0.73926 0.3743 0.88476 0.0
C3019 C 0.72868 0.38154 0.87306 0.0
C3020 C 0.71138 0.37958 0.87436 0.0
C3021 C 0.75758 0.37698 0.88388 0.0
C3022 C 0.7645 0.39328 0.88501 0.0
C3023 C 0.76825 0.36359 0.88333 0.0
C3024 C 0.76172 0.34605 0.88227 0.0
C3025 C 0.75028 0.34074 0.8696 0.0
C3026 C 0.7441 0.32421 0.86886 0.0
C3027 C 0.74937 0.31287 0.88065 0.0
C3028 C 0.76082 0.31802 0.89321 0.0
C3029 C 0.76701 0.33452 0.89402 0.0
H3030 H 0.74463 0.30008 0.88007 0.0
H3031 H 0.80565 0.45944 0.89588 0.0
H3032 H 0.1018 0.67955 0.65544 0.0
H3033 H 0.10371 0.70985 0.65515 0.0
H3034 H 0.14345 0.70884 0.6203 0.0
H3035 H 0.14204 0.67855 0.62099 0.0
H3036 H 0.15034 0.73243 0.64184 0.0
H3037 H 0.1023 0.71542 0.60836 0.0
H3038 H 0.07532 0.7004 0.60233 0.0
H3039 H 0.053 0.72756 0.64119 0.0
H3040 H 0.07995 0.74255 0.64765 0.0
H3041 H 0.14334 0.81081 0.60371 0.0
H3042 H 0.14131 0.78104 0.60895 0.0
H3043 H 0.11265 0.78945 0.65237 0.0
H3044 H 0.11487 0.81947 0.64743 0.0
H3045 H 0.09964 0.76282 0.62873 0.0
H3046 H 0.14898 0.78116 0.66025 0.0
H3047 H 0.17631 0.79612 0.66419 0.0
H3048 H 0.1964 0.76633 0.62595 0.0
H3049 H 0.16909 0.75137 0.6216 0.0
C3050 C 0.11099 0.68577 0.64775 0.0
C3051 C 0.1217 0.67662 0.63815 0.0
C3052 C 0.11203 0.70311 0.64756 0.0
C3053 C 0.12352 0.71165 0.63747 0.0
C3054 C 0.13447 0.70254 0.62817 0.0
C3055 C 0.13361 0.68521 0.62854 0.0
C3056 C 0.12396 0.73005 0.63632 0.0
C3057 C 0.13926 0.73903 0.63885 0.0
C3058 C 0.10947 0.73875 0.63265 0.0
C3059 C 0.09318 0.72998 0.6286 0.0
C3060 C 0.09166 0.71812 0.61569 0.0
C3061 C 0.07638 0.70961 0.61219 0.0
C3062 C 0.06247 0.713 0.6214 0.0
C3063 C 0.0638 0.72494 0.63409 0.0
C3064 C 0.07907 0.73344 0.63767 0.0
C3065 C 0.1366 0.8064 0.61439 0.0
C3066 C 0.12931 0.81755 0.62519 0.0
C3067 C 0.13548 0.78937 0.61736 0.0
C3068 C 0.12689 0.78311 0.63106 0.0
C3069 C 0.11934 0.7941 0.64173 0.0
C3070 C 0.12069 0.81122 0.63893 0.0
C3071 C 0.12598 0.76503 0.63415 0.0
C3072 C 0.11063 0.75616 0.63191 0.0
C3073 C 0.14045 0.7564 0.63778 0.0
C3074 C 0.15694 0.76524 0.64051 0.0
C3075 C 0.15918 0.77789 0.65259 0.0
C3076 C 0.17468 0.78636 0.65491 0.0
C3077 C 0.18808 0.78221 0.6453 0.0
C3078 C 0.18601 0.76955 0.63338 0.0
C3079 C 0.17053 0.76106 0.63099 0.0
H3080 H 0.20007 0.78878 0.64711 0.0
H3081 H 0.05065 0.70639 0.61869 0.0
H3082 H 0.69612 0.6378 0.10264 0.0
H3083 H 0.72613 0.63972 0.10792 0.0
H3084 H 0.72094 0.60247 0.14583 0.0
H3085 H 0.69065 0.60093 0.14097 0.0
H3086 H 0.74498 0.6255 0.15452 0.0
H3087 H 0.73086 0.59207 0.10639 0.0
H3088 H 0.71718 0.58584 0.07916 0.0
H3089 H 0.74549 0.62635 0.05753 0.0
H3090 H 0.75911 0.63303 0.08472 0.0
H3091 H 0.82683 0.59619 0.15015 0.0
H3092 H 0.79677 0.59883 0.14903 0.0
H3093 H 0.80272 0.63996 0.1155 0.0
H3094 H 0.83295 0.63752 0.11658 0.0
H3095 H 0.77849 0.61543 0.10495 0.0
H3096 H 0.79334 0.64782 0.1539 0.0
H3097 H 0.80676 0.65306 0.18142 0.0
H3098 H 0.77724 0.61261 0.20166 0.0
H3099 H 0.76382 0.60696 0.17419 0.0
C3100 C 0.70134 0.63017 0.11226 0.0
C3101 C 0.6911 0.61904 0.12125 0.0
C3102 C 0.71849 0.63125 0.11523 0.0
C3103 C 0.72582 0.62093 0.12696 0.0
C3104 C 0.71555 0.61048 0.13664 0.0
C3105 C 0.69827 0.60959 0.13385 0.0
C3106 C 0.7442 0.62032 0.12825 0.0
C3107 C 0.7523 0.62312 0.14373 0.0
C3108 C 0.75377 0.61739 0.1141 0.0
C3109 C 0.7459 0.61315 0.09763 0.0
C3110 C 0.73411 0.59971 0.09585 0.0
C3111 C 0.72636 0.5961 0.08042 0.0
C3112 C 0.73044 0.60571 0.06663 0.0
C3113 C 0.74233 0.61892 0.06823 0.0
C3114 C 0.75007 0.62263 0.08364 0.0
C3115 C 0.82181 0.60588 0.14259 0.0
C3116 C 0.83233 0.61665 0.13343 0.0
C3117 C 0.80461 0.60739 0.14203 0.0
C3118 C 0.79756 0.61965 0.13227 0.0
C3119 C 0.80797 0.63045 0.12314 0.0
C3120 C 0.82522 0.62906 0.12381 0.0
C3121 C 0.77926 0.62074 0.13117 0.0
C3122 C 0.77118 0.61791 0.11572 0.0
C3123 C 0.76973 0.62342 0.14537 0.0
C3124 C 0.77768 0.62688 0.16194 0.0
C3125 C 0.7898 0.63996 0.16418 0.0
C3126 C 0.79739 0.64301 0.17978 0.0
C3127 C 0.79288 0.63315 0.19327 0.0
C3128 C 0.78073 0.62023 0.1912 0.0
C3129 C 0.77312 0.61711 0.17562 0.0
H3130 H 0.79877 0.63553 0.20534 0.0
H3131 H 0.72442 0.60291 0.0547 0.0
H3132 H 0.88438 0.17955 0.64501 0.0
H3133 H 0.88511 0.20972 0.64863 0.0
H3134 H 0.84167 0.21204 0.61631 0.0
H3135 H 0.84129 0.18207 0.61216 0.0
H3136 H 0.86367 0.23375 0.60712 0.0
H3137 H 0.84097 0.21957 0.65949 0.0
H3138 H 0.8391 0.20516 0.68629 0.0
H3139 H 0.88642 0.22779 0.70203 0.0
H3140 H 0.88871 0.24215 0.67522 0.0
H3141 H 0.86066 0.32101 0.62013 0.0
H3142 H 0.85178 0.29153 0.62206 0.0
H3143 H 0.89839 0.28168 0.64676 0.0
H3144 H 0.90733 0.31091 0.64488 0.0
H3145 H 0.87106 0.26446 0.66059 0.0
H3146 H 0.89467 0.2754 0.60663 0.0
H3147 H 0.89638 0.28972 0.57976 0.0
H3148 H 0.84606 0.27288 0.56735 0.0
H3149 H 0.84398 0.25865 0.59427 0.0
C3150 C 0.87486 0.1865 0.63888 0.0
C3151 C 0.86285 0.17848 0.62823 0.0
C3152 C 0.87523 0.20373 0.64102 0.0
C3153 C 0.86335 0.21317 0.63285 0.0
C3154 C 0.851 0.20506 0.62269 0.0
C3155 C 0.8508 0.18791 0.62034 0.0
C3156 C 0.86455 0.23159 0.6338 0.0
C3157 C 0.8649 0.24044 0.61886 0.0
C3158 C 0.86645 0.24037 0.64907 0.0
C3159 C 0.86506 0.23185 0.66528 0.0
C3160 C 0.85103 0.2214 0.66862 0.0
C3161 C 0.84989 0.21324 0.68382 0.0
C3162 C 0.86264 0.21554 0.69584 0.0
C3163 C 0.87655 0.22602 0.6927 0.0
C3164 C 0.87777 0.23419 0.67751 0.0
C3165 C 0.86892 0.31258 0.62612 0.0
C3166 C 0.88477 0.31822 0.63215 0.0
C3167 C 0.86384 0.29577 0.62722 0.0
C3168 C 0.87449 0.28446 0.63447 0.0
C3169 C 0.88998 0.29023 0.64116 0.0
C3170 C 0.89511 0.30692 0.63994 0.0
C3171 C 0.87025 0.2664 0.63397 0.0
C3172 C 0.86945 0.25767 0.64894 0.0
C3173 C 0.86781 0.2577 0.61875 0.0
C3174 C 0.86911 0.26614 0.60253 0.0
C3175 C 0.88393 0.27487 0.59823 0.0
C3176 C 0.88497 0.28295 0.58298 0.0
C3177 C 0.87132 0.28226 0.57188 0.0
C3178 C 0.85661 0.27344 0.57598 0.0
C3179 C 0.8555 0.26536 0.59122 0.0
H3180 H 0.87215 0.28852 0.56008 0.0
H3181 H 0.86174 0.20921 0.7076 0.0
H3182 H 0.31398 0.39121 0.07978 0.0
H3183 H 0.28431 0.38882 0.08478 0.0
H3184 H 0.29439 0.39072 0.13763 0.0
H3185 H 0.32434 0.39356 0.1327 0.0
H3186 H 0.26433 0.36726 0.09925 0.0
H3187 H 0.26314 0.41122 0.15568 0.0
H3188 H 0.2799 0.43465 0.16854 0.0
H3189 H 0.29876 0.44818 0.12089 0.0
H3190 H 0.28197 0.42498 0.10777 0.0
H3191 H 0.1784 0.37087 0.11842 0.0
H3192 H 0.20837 0.3674 0.12204 0.0
H3193 H 0.21836 0.41782 0.10609 0.0
H3194 H 0.18865 0.42152 0.10308 0.0
H3195 H 0.23848 0.41207 0.13036 0.0
H3196 H 0.2206 0.38283 0.07969 0.0
H3197 H 0.20393 0.36186 0.06307 0.0
H3198 H 0.2233 0.32302 0.09285 0.0
H3199 H 0.23994 0.3438 0.10977 0.0
C3200 C 0.30995 0.39107 0.0925 0.0
C3201 C 0.32153 0.39274 0.10585 0.0
C3202 C 0.29295 0.38959 0.09533 0.0
C3203 C 0.2871 0.38967 0.11156 0.0
C3204 C 0.29862 0.39083 0.12499 0.0
C3205 C 0.31572 0.39246 0.12215 0.0
C3206 C 0.2689 0.38942 0.11412 0.0
C3207 C 0.25868 0.37695 0.10621 0.0
C3208 C 0.2615 0.40214 0.12307 0.0
C3209 C 0.27149 0.41624 0.13081 0.0
C3210 C 0.27085 0.41922 0.14797 0.0
C3211 C 0.28035 0.43246 0.1553 0.0
C3212 C 0.29045 0.44286 0.14556 0.0
C3213 C 0.291 0.44009 0.12845 0.0
C3214 C 0.2815 0.42689 0.12106 0.0
C3215 C 0.18703 0.3812 0.11575 0.0
C3216 C 0.18119 0.39643 0.11039 0.0
C3217 C 0.20414 0.37921 0.11781 0.0
C3218 C 0.21565 0.39231 0.1142 0.0
C3219 C 0.20976 0.40756 0.10906 0.0
C3220 C 0.19274 0.40963 0.10726 0.0
C3221 C 0.23387 0.3902 0.11504 0.0
C3222 C 0.24412 0.40215 0.1237 0.0
C3223 C 0.24128 0.37735 0.10628 0.0
C3224 C 0.23134 0.36486 0.0961 0.0
C3225 C 0.22121 0.36982 0.08275 0.0
C3226 C 0.21178 0.35798 0.07328 0.0
C3227 C 0.21252 0.34112 0.07694 0.0
C3228 C 0.22272 0.33608 0.09006 0.0
C3229 C 0.23215 0.34788 0.09959 0.0
H3230 H 0.20522 0.33197 0.06959 0.0
H3231 H 0.29781 0.45308 0.15126 0.0
H3232 H 0.38603 0.10373 0.18988 0.0
H3233 H 0.38091 0.10341 0.21962 0.0
H3234 H 0.35277 0.14724 0.21467 0.0
H3235 H 0.3575 0.14735 0.18461 0.0
H3236 H 0.38118 0.14863 0.23886 0.0
H3237 H 0.33146 0.11613 0.22514 0.0
H3238 H 0.31451 0.09359 0.21109 0.0
H3239 H 0.34351 0.05735 0.23552 0.0
H3240 H 0.36081 0.07967 0.24954 0.0
H3241 H 0.37416 0.14433 0.32702 0.0
H3242 H 0.36747 0.14769 0.29747 0.0
H3243 H 0.38143 0.09763 0.28788 0.0
H3244 H 0.38746 0.09401 0.31739 0.0
H3245 H 0.35462 0.10269 0.27093 0.0
H3246 H 0.40726 0.13355 0.27988 0.0
H3247 H 0.42644 0.15499 0.2929 0.0
H3248 H 0.39451 0.19298 0.27654 0.0
H3249 H 0.37504 0.17173 0.26358 0.0
C3250 C 0.3784 0.11306 0.19507 0.0
C3251 C 0.37211 0.12553 0.18501 0.0
C3252 C 0.37548 0.11286 0.21202 0.0
C3253 C 0.36645 0.12529 0.21928 0.0
C3254 C 0.35969 0.13751 0.20922 0.0
C3255 C 0.36231 0.1375 0.1921 0.0
C3256 C 0.36559 0.12614 0.23756 0.0
C3257 C 0.37501 0.13884 0.24595 0.0
C3258 C 0.35793 0.1131 0.24666 0.0
C3259 C 0.3475 0.0996 0.23833 0.0
C3260 C 0.33431 0.10336 0.22743 0.0
C3261 C 0.32462 0.09062 0.21948 0.0
C3262 C 0.32795 0.07405 0.22239 0.0
C3263 C 0.34095 0.07019 0.23328 0.0
C3264 C 0.35068 0.08288 0.24125 0.0
C3265 C 0.37585 0.13408 0.31857 0.0
C3266 C 0.38142 0.11893 0.32449 0.0
C3267 C 0.37204 0.13602 0.30169 0.0
C3268 C 0.37409 0.12297 0.29038 0.0
C3269 C 0.37965 0.10786 0.29634 0.0
C3270 C 0.38319 0.10583 0.31321 0.0
C3271 C 0.37068 0.12493 0.27231 0.0
C3272 C 0.36049 0.11272 0.26393 0.0
C3273 C 0.37791 0.13827 0.26318 0.0
C3274 C 0.3896 0.15105 0.27096 0.0
C3275 C 0.40427 0.14647 0.27918 0.0
C3276 C 0.4152 0.15859 0.28652 0.0
C3277 C 0.41167 0.17534 0.2856 0.0
C3278 C 0.39721 0.18 0.27728 0.0
C3279 C 0.38623 0.16793 0.26993 0.0
H3280 H 0.42015 0.1847 0.29129 0.0
H3281 H 0.32043 0.0642 0.21623 0.0
H3282 H 0.38402 0.9096 0.68727 0.0
H3283 H 0.38598 0.9075 0.7173 0.0
H3284 H 0.37499 0.85463 0.71354 0.0
H3285 H 0.37389 0.85655 0.68326 0.0
H3286 H 0.36606 0.8999 0.73979 0.0
H3287 H 0.39316 0.83467 0.74523 0.0
H3288 H 0.41108 0.81666 0.72947 0.0
H3289 H 0.43409 0.85943 0.70631 0.0
H3290 H 0.41648 0.8777 0.72209 0.0
H3291 H 0.36428 0.87828 0.82473 0.0
H3292 H 0.36054 0.87806 0.79452 0.0
H3293 H 0.41381 0.87845 0.78933 0.0
H3294 H 0.41755 0.87772 0.8193 0.0
H3295 H 0.40107 0.859 0.76757 0.0
H3296 H 0.39034 0.91416 0.78434 0.0
H3297 H 0.37704 0.93602 0.8 0.0
H3298 H 0.32942 0.92013 0.77849 0.0
H3299 H 0.34242 0.89802 0.76287 0.0
C3300 C 0.38211 0.89749 0.69277 0.0
C3301 C 0.37899 0.88322 0.68283 0.0
C3302 C 0.38313 0.89632 0.71001 0.0
C3303 C 0.3808 0.88089 0.71776 0.0
C3304 C 0.37722 0.86664 0.70788 0.0
C3305 C 0.37654 0.86776 0.69056 0.0
C3306 C 0.38232 0.87984 0.73614 0.0
C3307 C 0.37369 0.89092 0.74585 0.0
C3308 C 0.39257 0.86841 0.74412 0.0
C3309 C 0.40334 0.85752 0.7347 0.0
C3310 C 0.40208 0.84023 0.73681 0.0
C3311 C 0.41218 0.82998 0.72787 0.0
C3312 C 0.42367 0.83689 0.71685 0.0
C3313 C 0.42514 0.85408 0.7148 0.0
C3314 C 0.41509 0.86439 0.72373 0.0
C3315 C 0.37519 0.87832 0.81714 0.0
C3316 C 0.39123 0.87818 0.82447 0.0
C3317 C 0.37304 0.87825 0.79986 0.0
C3318 C 0.38691 0.87849 0.78959 0.0
C3319 C 0.4029 0.87823 0.79693 0.0
C3320 C 0.40502 0.87793 0.81414 0.0
C3321 C 0.38492 0.87915 0.77122 0.0
C3322 C 0.39337 0.86793 0.76151 0.0
C3323 C 0.37521 0.89103 0.76323 0.0
C3324 C 0.36733 0.90432 0.77258 0.0
C3325 C 0.37701 0.91525 0.78305 0.0
C3326 C 0.36953 0.9277 0.7919 0.0
C3327 C 0.35239 0.92944 0.79027 0.0
C3328 C 0.3427 0.91875 0.77976 0.0
C3329 C 0.35012 0.90626 0.77089 0.0
H3330 H 0.34661 0.93908 0.79713 0.0
H3331 H 0.43147 0.82894 0.70992 0.0
H3332 H 0.62856 0.9116 0.1892 0.0
H3333 H 0.63306 0.914 0.21933 0.0
H3334 H 0.59601 0.8742 0.22631 0.0
H3335 H 0.59106 0.8722 0.1964 0.0
H3336 H 0.59031 0.8981 0.2461 0.0
H3337 H 0.63907 0.86978 0.2326 0.0
H3338 H 0.66497 0.86506 0.218 0.0
H3339 H 0.68684 0.91114 0.23738 0.0
H3340 H 0.66097 0.91625 0.25191 0.0
H3341 H 0.60691 0.88451 0.33181 0.0
H3342 H 0.6058 0.88037 0.30167 0.0
H3343 H 0.63493 0.9262 0.29555 0.0
H3344 H 0.63602 0.93053 0.32563 0.0
H3345 H 0.64519 0.8993 0.27571 0.0
H3346 H 0.59537 0.92705 0.2889 0.0
H3347 H 0.56946 0.93051 0.30393 0.0
H3348 H 0.54967 0.88333 0.28525 0.0
H3349 H 0.57558 0.87949 0.2703 0.0
C3350 C 0.62153 0.90327 0.19719 0.0
C3351 C 0.6094 0.8918 0.19048 0.0
C3352 C 0.62415 0.90459 0.2144 0.0
C3353 C 0.61493 0.89422 0.22513 0.0
C3354 C 0.6032 0.88241 0.21833 0.0
C3355 C 0.60041 0.88127 0.20122 0.0
C3356 C 0.61675 0.89617 0.24344 0.0
C3357 C 0.60232 0.89809 0.25255 0.0
C3358 C 0.63242 0.89653 0.2519 0.0
C3359 C 0.64801 0.89348 0.24321 0.0
C3360 C 0.64935 0.87897 0.23364 0.0
C3361 C 0.66403 0.87622 0.2254 0.0
C3362 C 0.67752 0.88782 0.22673 0.0
C3363 C 0.67637 0.90218 0.23634 0.0
C3364 C 0.6617 0.905 0.2446 0.0
C3365 C 0.6131 0.89369 0.32406 0.0
C3366 C 0.62142 0.90791 0.33109 0.0
C3367 C 0.61247 0.8913 0.30686 0.0
C3368 C 0.62023 0.90303 0.29643 0.0
C3369 C 0.62889 0.91702 0.30342 0.0
C3370 C 0.62939 0.91951 0.3206 0.0
C3371 C 0.61877 0.90103 0.27819 0.0
C3372 C 0.63324 0.8992 0.26916 0.0
C3373 C 0.60312 0.90053 0.26978 0.0
C3374 C 0.58748 0.90291 0.27862 0.0
C3375 C 0.58555 0.91736 0.28811 0.0
C3376 C 0.57085 0.9194 0.29659 0.0
C3377 C 0.55795 0.90713 0.29558 0.0
C3378 C 0.55969 0.89282 0.28604 0.0
C3379 C 0.57437 0.89071 0.27755 0.0
H3380 H 0.54658 0.90873 0.30216 0.0
H3381 H 0.68888 0.88566 0.22034 0.0
H3382 H 0.64698 0.15657 0.81909 0.0
H3383 H 0.64768 0.15614 0.78877 0.0
H3384 H 0.64632 0.10256 0.78918 0.0
H3385 H 0.64672 0.1031 0.81959 0.0
H3386 H 0.66301 0.11216 0.76417 0.0
H3387 H 0.60992 0.12559 0.78469 0.0
H3388 H 0.5896 0.14099 0.80033 0.0
H3389 H 0.60357 0.18549 0.77417 0.0
H3390 H 0.62399 0.17039 0.75843 0.0
H3391 H 0.60344 0.11975 0.68683 0.0
H3392 H 0.60855 0.12193 0.71692 0.0
H3393 H 0.66078 0.13327 0.7089 0.0
H3394 H 0.6557 0.13014 0.67888 0.0
H3395 H 0.61868 0.14423 0.73767 0.0
H3396 H 0.68454 0.11783 0.73994 0.0
H3397 H 0.70102 0.09935 0.72312 0.0
H3398 H 0.65611 0.0747 0.70347 0.0
H3399 H 0.63937 0.0927 0.7205 0.0
C3400 C 0.64739 0.14476 0.81266 0.0
C3401 C 0.64686 0.12987 0.82155 0.0
C3402 C 0.64759 0.14449 0.79536 0.0
C3403 C 0.64651 0.1293 0.78663 0.0
C3404 C 0.64708 0.11444 0.79559 0.0
C3405 C 0.64738 0.11473 0.81295 0.0
C3406 C 0.64347 0.12888 0.76835 0.0
C3407 C 0.65335 0.11921 0.75838 0.0
C3408 C 0.63057 0.13771 0.76075 0.0
C3409 C 0.61857 0.14689 0.77049 0.0
C3410 C 0.60875 0.13869 0.78239 0.0
C3411 C 0.5972 0.14735 0.79125 0.0
C3412 C 0.59534 0.1642 0.78826 0.0
C3413 C 0.60504 0.17244 0.77646 0.0
C3414 C 0.61657 0.16384 0.76755 0.0
C3415 C 0.61593 0.1229 0.6916 0.0
C3416 C 0.6292 0.12487 0.68078 0.0
C3417 C 0.61888 0.12413 0.70873 0.0
C3418 C 0.63511 0.1275 0.71523 0.0
C3419 C 0.64823 0.13027 0.70424 0.0
C3420 C 0.64533 0.12866 0.68714 0.0
C3421 C 0.63829 0.12765 0.73348 0.0
C3422 C 0.62841 0.13725 0.74344 0.0
C3423 C 0.65073 0.11821 0.74108 0.0
C3424 C 0.6607 0.10677 0.73138 0.0
C3425 C 0.67818 0.10837 0.73215 0.0
C3426 C 0.68757 0.09798 0.72257 0.0
C3427 C 0.67961 0.08592 0.71217 0.0
C3428 C 0.66225 0.08408 0.71149 0.0
C3429 C 0.65281 0.09435 0.72113 0.0
H3430 H 0.6869 0.07798 0.70467 0.0
H3431 H 0.5863 0.17085 0.79499 0.0
H3432 H 0.9078 0.81879 0.62833 0.0
H3433 H 0.90578 0.78862 0.63075 0.0
H3434 H 0.85518 0.79077 0.64675 0.0
H3435 H 0.85746 0.82128 0.64497 0.0
H3436 H 0.87236 0.76522 0.6621 0.0
H3437 H 0.86073 0.78355 0.6062 0.0
H3438 H 0.86644 0.80038 0.58136 0.0
H3439 H 0.91387 0.77901 0.57702 0.0
H3440 H 0.90838 0.76188 0.60172 0.0
H3441 H 0.86112 0.67858 0.6372 0.0
H3442 H 0.85654 0.70828 0.64032 0.0
H3443 H 0.90624 0.72022 0.62375 0.0
H3444 H 0.91087 0.69097 0.62042 0.0
H3445 H 0.88392 0.73853 0.60821 0.0
H3446 H 0.89696 0.72177 0.66447 0.0
H3447 H 0.89253 0.70523 0.68972 0.0
H3448 H 0.84385 0.72397 0.69413 0.0
H3449 H 0.8479 0.74043 0.66873 0.0
C3450 C 0.89641 0.81283 0.63277 0.0
C3451 C 0.88274 0.82218 0.63636 0.0
C3452 C 0.89523 0.79564 0.63409 0.0
C3453 C 0.88018 0.78748 0.63849 0.0
C3454 C 0.86685 0.79687 0.64324 0.0
C3455 C 0.86816 0.81422 0.64224 0.0
C3456 C 0.87811 0.76924 0.63645 0.0
C3457 C 0.87455 0.75934 0.65027 0.0
C3458 C 0.88106 0.76162 0.62101 0.0
C3459 C 0.88415 0.77147 0.60582 0.0
C3460 C 0.87237 0.78244 0.59994 0.0
C3461 C 0.87558 0.79203 0.5859 0.0
C3462 C 0.89054 0.79085 0.57769 0.0
C3463 C 0.90228 0.77992 0.58339 0.0
C3464 C 0.89909 0.77019 0.59735 0.0
C3465 C 0.87105 0.68755 0.6342 0.0
C3466 C 0.88636 0.68235 0.62855 0.0
C3467 C 0.86843 0.70449 0.63606 0.0
C3468 C 0.88108 0.71642 0.63231 0.0
C3469 C 0.89629 0.71122 0.62665 0.0
C3470 C 0.89891 0.69442 0.6248 0.0
C3471 C 0.87875 0.73442 0.63399 0.0
C3472 C 0.88139 0.74434 0.62 0.0
C3473 C 0.87503 0.74196 0.64928 0.0
C3474 C 0.87264 0.73216 0.66459 0.0
C3475 C 0.88525 0.72225 0.67074 0.0
C3476 C 0.88282 0.71291 0.6851 0.0
C3477 C 0.8679 0.71351 0.6935 0.0
C3478 C 0.85539 0.72349 0.68759 0.0
C3479 C 0.85775 0.73283 0.67322 0.0
H3480 H 0.86604 0.70627 0.70461 0.0
H3481 H 0.89301 0.79835 0.56687 0.0
H3482 H 0.82763 0.36077 0.1681 0.0
H3483 H 0.79752 0.35453 0.16856 0.0
H3484 H 0.78918 0.40077 0.14387 0.0
H3485 H 0.81905 0.40726 0.14379 0.0
H3486 H 0.7683 0.39661 0.16806 0.0
H3487 H 0.78732 0.36232 0.12332 0.0
H3488 H 0.80406 0.34071 0.11128 0.0
H3489 H 0.78234 0.30466 0.14432 0.0
H3490 H 0.76563 0.32614 0.15671 0.0
H3491 H 0.69565 0.38723 0.11837 0.0
H3492 H 0.72412 0.38904 0.12969 0.0
H3493 H 0.71247 0.34812 0.16223 0.0
H3494 H 0.68362 0.34647 0.15116 0.0
H3495 H 0.74229 0.34599 0.14081 0.0
H3496 H 0.71902 0.38068 0.18126 0.0
H3497 H 0.70177 0.40291 0.19115 0.0
H3498 H 0.7312 0.43891 0.16416 0.0
H3499 H 0.74847 0.41686 0.15387 0.0
C3500 C 0.81936 0.36957 0.16275 0.0
C3501 C 0.82571 0.3845 0.15589 0.0
C3502 C 0.80217 0.36599 0.16301 0.0
C3503 C 0.79109 0.37715 0.15619 0.0
C3504 C 0.79747 0.39202 0.14932 0.0
C3505 C 0.81457 0.39568 0.14921 0.0
C3506 C 0.77284 0.37348 0.15585 0.0
C3507 C 0.76263 0.38553 0.16211 0.0
C3508 C 0.76541 0.35878 0.14856 0.0
C3509 C 0.7754 0.34587 0.14108 0.0
C3510 C 0.78622 0.34981 0.12811 0.0
C3511 C 0.79568 0.33759 0.12121 0.0
C3512 C 0.79431 0.32133 0.12707 0.0
C3513 C 0.78342 0.31726 0.13982 0.0
C3514 C 0.77395 0.32946 0.14678 0.0
C3515 C 0.69908 0.37873 0.12807 0.0
C3516 C 0.68748 0.3667 0.1339 0.0
C3517 C 0.71531 0.3798 0.13454 0.0
C3518 C 0.72031 0.36873 0.14678 0.0
C3519 C 0.70876 0.35678 0.1528 0.0
C3520 C 0.69233 0.35591 0.14655 0.0
C3521 C 0.73792 0.3694 0.15246 0.0
C3522 C 0.748 0.35682 0.14719 0.0
C3523 C 0.74525 0.38371 0.16046 0.0
C3524 C 0.73499 0.39708 0.16672 0.0
C3525 C 0.72174 0.39332 0.17733 0.0
C3526 C 0.71197 0.4059 0.18302 0.0
C3527 C 0.71537 0.42231 0.17827 0.0
C3528 C 0.72858 0.42619 0.16783 0.0
C3529 C 0.73838 0.41365 0.16208 0.0
H3530 H 0.70779 0.43203 0.18269 0.0
H3531 H 0.80164 0.31188 0.12171 0.0
H3532 H 0.13077 0.18474 0.64851 0.0
H3533 H 0.13116 0.21503 0.64978 0.0
H3534 H 0.09615 0.21508 0.60828 0.0
H3535 H 0.09616 0.18488 0.60656 0.0
H3536 H 0.11909 0.23841 0.60437 0.0
H3537 H 0.08475 0.22094 0.6496 0.0
H3538 H 0.07818 0.20582 0.67528 0.0
H3539 H 0.11862 0.23261 0.70111 0.0
H3540 H 0.12559 0.24772 0.6755 0.0
H3541 H 0.08466 0.31662 0.61405 0.0
H3542 H 0.08885 0.28686 0.6141 0.0
H3543 H 0.13115 0.29489 0.64767 0.0
H3544 H 0.12719 0.32487 0.64756 0.0
H3545 H 0.10722 0.26819 0.65648 0.0
H3546 H 0.1397 0.28718 0.61063 0.0
H3547 H 0.14471 0.30246 0.58472 0.0
H3548 H 0.10568 0.27279 0.55982 0.0
H3549 H 0.10025 0.2575 0.58567 0.0
C3550 C 0.12311 0.1912 0.63968 0.0
C3551 C 0.11337 0.18238 0.62748 0.0
C3552 C 0.12331 0.20852 0.64045 0.0
C3553 C 0.11351 0.21735 0.62927 0.0
C3554 C 0.10384 0.20856 0.61704 0.0
C3555 C 0.10381 0.19127 0.61611 0.0
C3556 C 0.1133 0.23573 0.6302 0.0
C3557 C 0.11634 0.24487 0.61574 0.0
C3558 C 0.1101 0.24425 0.64513 0.0
C3559 C 0.1058 0.23533 0.66059 0.0
C3560 C 0.09231 0.22353 0.66073 0.0
C3561 C 0.08851 0.21497 0.67527 0.0
C3562 C 0.09801 0.21822 0.6898 0.0
C3563 C 0.11129 0.23008 0.68983 0.0
C3564 C 0.11517 0.23866 0.67531 0.0
C3565 C 0.09487 0.31209 0.62146 0.0
C3566 C 0.10561 0.32309 0.6308 0.0
C3567 C 0.09726 0.29509 0.62143 0.0
C3568 C 0.11033 0.28874 0.63084 0.0
C3569 C 0.12099 0.29961 0.64034 0.0
C3570 C 0.11875 0.3167 0.6402 0.0
C3571 C 0.11275 0.27069 0.63062 0.0
C3572 C 0.11012 0.26166 0.64519 0.0
C3573 C 0.11612 0.26224 0.61576 0.0
C3574 C 0.11948 0.27128 0.60013 0.0
C3575 C 0.1321 0.284 0.59966 0.0
C3576 C 0.13503 0.29265 0.58498 0.0
C3577 C 0.1255 0.28863 0.57064 0.0
C3578 C 0.11304 0.27591 0.57094 0.0
C3579 C 0.11005 0.26723 0.5856 0.0
H3580 H 0.12778 0.29534 0.55928 0.0
H3581 H 0.09505 0.21157 0.70105 0.0
H3582 H 0.18528 0.61056 0.11164 0.0
H3583 H 0.21521 0.61589 0.11467 0.0
H3584 H 0.20794 0.65324 0.15202 0.0
H3585 H 0.17766 0.64833 0.14861 0.0
H3586 H 0.23291 0.66293 0.13226 0.0
H3587 H 0.21944 0.61512 0.16364 0.0
H3588 H 0.20548 0.58792 0.16932 0.0
H3589 H 0.23223 0.56567 0.13027 0.0
H3590 H 0.24614 0.5928 0.12414 0.0
H3591 H 0.32212 0.659 0.14386 0.0
H3592 H 0.29281 0.65657 0.15176 0.0
H3593 H 0.28146 0.62397 0.10986 0.0
H3594 H 0.31047 0.62642 0.10183 0.0
H3595 H 0.26642 0.61345 0.13989 0.0
H3596 H 0.27496 0.66359 0.10608 0.0
H3597 H 0.28884 0.69104 0.10116 0.0
H3598 H 0.27163 0.70891 0.14766 0.0
H3599 H 0.25782 0.68147 0.15293 0.0
C3600 C 0.18999 0.61998 0.12045 0.0
C3601 C 0.17911 0.6289 0.13002 0.0
C3602 C 0.20713 0.62296 0.12223 0.0
C3603 C 0.21383 0.63464 0.1339 0.0
C3604 C 0.20303 0.64407 0.14305 0.0
C3605 C 0.18576 0.64125 0.14108 0.0
C3606 C 0.23213 0.63655 0.13655 0.0
C3607 C 0.24023 0.65218 0.13433 0.0
C3608 C 0.24171 0.62256 0.13943 0.0
C3609 C 0.23381 0.60604 0.1434 0.0
C3610 C 0.22232 0.60444 0.15623 0.0
C3611 C 0.21439 0.58903 0.15951 0.0
C3612 C 0.21795 0.57507 0.15015 0.0
C3613 C 0.22949 0.57649 0.13752 0.0
C3614 C 0.23742 0.59188 0.13415 0.0
C3615 C 0.31338 0.65117 0.13647 0.0
C3616 C 0.31853 0.643 0.12216 0.0
C3617 C 0.29669 0.64983 0.14098 0.0
C3618 C 0.28502 0.64014 0.13134 0.0
C3619 C 0.2903 0.63147 0.11747 0.0
C3620 C 0.30686 0.63297 0.11285 0.0
C3621 C 0.26707 0.63963 0.13486 0.0
C3622 C 0.25906 0.62425 0.13829 0.0
C3623 C 0.25763 0.65387 0.13339 0.0
C3624 C 0.26552 0.67046 0.12997 0.0
C3625 C 0.27421 0.67336 0.11528 0.0
C3626 C 0.28206 0.68891 0.11243 0.0
C3627 C 0.28116 0.7017 0.12411 0.0
C3628 C 0.27233 0.69898 0.13863 0.0
C3629 C 0.26449 0.68344 0.14155 0.0
H3630 H 0.28728 0.71372 0.12191 0.0
H3631 H 0.21177 0.56316 0.15269 0.0
H3632 H 0.84605 0.17433 0.36568 0.0
H3633 H 0.84281 0.20338 0.35784 0.0
H3634 H 0.86343 0.21949 0.40559 0.0
H3635 H 0.86649 0.19085 0.41353 0.0
H3636 H 0.83669 0.2364 0.39743 0.0
H3637 H 0.88694 0.21925 0.37064 0.0
H3638 H 0.90209 0.20193 0.35141 0.0
H3639 H 0.8711 0.21716 0.31071 0.0
H3640 H 0.85563 0.23442 0.32978 0.0
H3641 H 0.8875 0.30858 0.397 0.0
H3642 H 0.87604 0.27999 0.39566 0.0
H3643 H 0.84723 0.29114 0.35166 0.0
H3644 H 0.85843 0.32015 0.35315 0.0
H3645 H 0.86939 0.26092 0.35152 0.0
H3646 H 0.82452 0.28426 0.37927 0.0
H3647 H 0.81171 0.30227 0.39963 0.0
H3648 H 0.83428 0.27579 0.43958 0.0
H3649 H 0.84747 0.2578 0.41946 0.0
C3650 C 0.84983 0.1841 0.37449 0.0
C3651 C 0.85655 0.18027 0.39021 0.0
C3652 C 0.84797 0.20066 0.37 0.0
C3653 C 0.85286 0.21359 0.38115 0.0
C3654 C 0.85943 0.20972 0.39684 0.0
C3655 C 0.86127 0.1933 0.40132 0.0
C3656 C 0.85194 0.23128 0.37661 0.0
C3657 C 0.8437 0.24175 0.38729 0.0
C3658 C 0.86065 0.23821 0.36308 0.0
C3659 C 0.86999 0.22792 0.35164 0.0
C3660 C 0.88328 0.21879 0.35761 0.0
C3661 C 0.89194 0.20901 0.34674 0.0
C3662 C 0.88752 0.2084 0.32985 0.0
C3663 C 0.87447 0.21761 0.3238 0.0
C3664 C 0.86576 0.22739 0.33463 0.0
C3665 C 0.87863 0.30501 0.3871 0.0
C3666 C 0.87384 0.31654 0.37518 0.0
C3667 C 0.87208 0.28871 0.38637 0.0
C3668 C 0.8608 0.28355 0.37359 0.0
C3669 C 0.85591 0.29499 0.36163 0.0
C3670 C 0.86224 0.31149 0.36255 0.0
C3671 C 0.85479 0.26596 0.37281 0.0
C3672 C 0.86177 0.25551 0.36121 0.0
C3673 C 0.84508 0.25904 0.38561 0.0
C3674 C 0.83703 0.2697 0.39782 0.0
C3675 C 0.82685 0.28234 0.39239 0.0
C3676 C 0.8195 0.29254 0.40389 0.0
C3677 C 0.82219 0.29018 0.42089 0.0
C3678 C 0.8322 0.2776 0.42641 0.0
C3679 C 0.83959 0.26737 0.41495 0.0
H3680 H 0.81649 0.2981 0.42977 0.0
H3681 H 0.89424 0.20082 0.32146 0.0
H3682 H 0.17798 0.36536 0.85505 0.0
H3683 H 0.20764 0.35955 0.85661 0.0
H3684 H 0.2206 0.41211 0.85803 0.0
H3685 H 0.19128 0.418 0.85643 0.0
H3686 H 0.24064 0.3956 0.83748 0.0
H3687 H 0.21933 0.39067 0.89317 0.0
H3688 H 0.20055 0.37885 0.91422 0.0
H3689 H 0.21782 0.33029 0.90473 0.0
H3690 H 0.23655 0.34182 0.88344 0.0
H3691 H 0.31398 0.39481 0.89967 0.0
H3692 H 0.28428 0.39262 0.89302 0.0
H3693 H 0.29381 0.36865 0.84645 0.0
H3694 H 0.32373 0.37096 0.85289 0.0
H3695 H 0.2623 0.36682 0.8871 0.0
H3696 H 0.26488 0.38188 0.81779 0.0
H3697 H 0.2838 0.39584 0.79805 0.0
H3698 H 0.30423 0.42787 0.8371 0.0
H3699 H 0.28528 0.41426 0.85699 0.0
C3700 C 0.18718 0.37565 0.85558 0.0
C3701 C 0.18228 0.39213 0.85573 0.0
C3702 C 0.20408 0.37231 0.85647 0.0
C3703 C 0.21628 0.38541 0.85746 0.0
C3704 C 0.21139 0.40183 0.85719 0.0
C3705 C 0.19459 0.40516 0.85641 0.0
C3706 C 0.23417 0.38231 0.85968 0.0
C3707 C 0.24538 0.3891 0.8482 0.0
C3708 C 0.24033 0.37397 0.87374 0.0
C3709 C 0.22917 0.36706 0.88659 0.0
C3710 C 0.21902 0.37745 0.89548 0.0
C3711 C 0.2084 0.37081 0.90747 0.0
C3712 C 0.20795 0.35382 0.91077 0.0
C3713 C 0.21816 0.34344 0.90213 0.0
C3714 C 0.22878 0.35002 0.89011 0.0
C3715 C 0.30983 0.38901 0.88802 0.0
C3716 C 0.3213 0.38315 0.87677 0.0
C3717 C 0.2928 0.38769 0.88429 0.0
C3718 C 0.28684 0.38052 0.86923 0.0
C3719 C 0.29817 0.37434 0.85809 0.0
C3720 C 0.31527 0.3757 0.86179 0.0
C3721 C 0.2688 0.38035 0.86504 0.0
C3722 C 0.25756 0.37293 0.87614 0.0
C3723 C 0.26262 0.38838 0.85079 0.0
C3724 C 0.27382 0.39691 0.83889 0.0
C3725 C 0.27338 0.39195 0.82213 0.0
C3726 C 0.28411 0.39979 0.81093 0.0
C3727 C 0.29526 0.41269 0.81633 0.0
C3728 C 0.29564 0.41784 0.83294 0.0
C3729 C 0.28491 0.41005 0.84418 0.0
H3730 H 0.30358 0.41872 0.80765 0.0
H3731 H 0.19973 0.3487 0.92006 0.0
H3732 H 0.14214 0.83761 0.36008 0.0
H3733 H 0.138 0.80874 0.35004 0.0
H3734 H 0.15644 0.79133 0.39716 0.0
H3735 H 0.16024 0.81983 0.40728 0.0
H3736 H 0.15715 0.77853 0.3485 0.0
H3737 H 0.12695 0.76585 0.41161 0.0
H3738 H 0.1132 0.7817 0.43317 0.0
H3739 H 0.09648 0.81568 0.39635 0.0
H3740 H 0.10991 0.79993 0.37458 0.0
H3741 H 0.14982 0.69274 0.36655 0.0
H3742 H 0.15529 0.72278 0.36527 0.0
H3743 H 0.10247 0.72964 0.3621 0.0
H3744 H 0.09691 0.69968 0.3639 0.0
H3745 H 0.11569 0.74944 0.38409 0.0
H3746 H 0.12835 0.73674 0.32842 0.0
H3747 H 0.14143 0.72218 0.30557 0.0
H3748 H 0.1898 0.73974 0.32387 0.0
H3749 H 0.17704 0.75422 0.34698 0.0
C3750 C 0.14572 0.82759 0.36807 0.0
C3751 C 0.15121 0.83083 0.38452 0.0
C3752 C 0.14341 0.81117 0.36232 0.0
C3753 C 0.1467 0.79799 0.37299 0.0
C3754 C 0.15367 0.80136 0.38884 0.0
C3755 C 0.15576 0.81763 0.39462 0.0
C3756 C 0.14065 0.78083 0.36885 0.0
C3757 C 0.14802 0.77211 0.35614 0.0
C3758 C 0.12837 0.77272 0.37856 0.0
C3759 C 0.11952 0.78175 0.39149 0.0
C3760 C 0.1202 0.77662 0.40811 0.0
C3761 C 0.11251 0.78562 0.42037 0.0
C3762 C 0.10402 0.79973 0.41615 0.0
C3763 C 0.1031 0.8048 0.39964 0.0
C3764 C 0.11075 0.79584 0.38733 0.0
C3765 C 0.13938 0.70065 0.36544 0.0
C3766 C 0.12294 0.69388 0.36543 0.0
C3767 C 0.14252 0.71781 0.36458 0.0
C3768 C 0.12929 0.72847 0.36339 0.0
C3769 C 0.11287 0.72167 0.36301 0.0
C3770 C 0.10972 0.70455 0.36408 0.0
C3771 C 0.13252 0.74674 0.36395 0.0
C3772 C 0.12462 0.75575 0.37614 0.0
C3773 C 0.14398 0.75512 0.35343 0.0
C3774 C 0.15173 0.74648 0.33951 0.0
C3775 C 0.14179 0.73741 0.32765 0.0
C3776 C 0.14914 0.72918 0.31463 0.0
C3777 C 0.16644 0.73001 0.31328 0.0
C3778 C 0.17641 0.7391 0.32493 0.0
C3779 C 0.16912 0.74734 0.33798 0.0
H3780 H 0.17211 0.72363 0.3032 0.0
H3781 H 0.09813 0.80672 0.42567 0.0
H3782 H 0.8261 0.59694 0.88729 0.0
H3783 H 0.79671 0.60207 0.88451 0.0
H3784 H 0.80873 0.65349 0.87372 0.0
H3785 H 0.83853 0.64847 0.87625 0.0
H3786 H 0.78271 0.64726 0.89772 0.0
H3787 H 0.79638 0.63218 0.84272 0.0
H3788 H 0.80968 0.61541 0.82164 0.0
H3789 H 0.7796 0.57245 0.83543 0.0
H3790 H 0.76631 0.58889 0.85681 0.0
H3791 H 0.69222 0.63178 0.861 0.0
H3792 H 0.72209 0.63643 0.85641 0.0
H3793 H 0.73308 0.61644 0.90469 0.0
H3794 H 0.70351 0.61171 0.90942 0.0
H3795 H 0.74771 0.61415 0.85654 0.0
H3796 H 0.76434 0.63986 0.92274 0.0
H3797 H 0.75096 0.65571 0.94452 0.0
H3798 H 0.72036 0.67834 0.90757 0.0
H3799 H 0.73375 0.66287 0.88555 0.0
C3800 C 0.82263 0.60937 0.88428 0.0
C3801 C 0.83475 0.62226 0.88181 0.0
C3802 C 0.80578 0.61225 0.88269 0.0
C3803 C 0.80062 0.62808 0.8787 0.0
C3804 C 0.81255 0.64116 0.8767 0.0
C3805 C 0.82953 0.63825 0.87813 0.0
C3806 C 0.78264 0.63062 0.87671 0.0
C3807 C 0.77503 0.64026 0.88857 0.0
C3808 C 0.77275 0.62165 0.86458 0.0
C3809 C 0.78038 0.61178 0.85142 0.0
C3810 C 0.79265 0.61914 0.84132 0.0
C3811 C 0.80019 0.60969 0.82931 0.0
C3812 C 0.7955 0.59287 0.82721 0.0
C3813 C 0.78321 0.58549 0.83707 0.0
C3814 C 0.77565 0.59488 0.84912 0.0
C3815 C 0.701 0.62832 0.87063 0.0
C3816 C 0.69543 0.62152 0.88566 0.0
C3817 C 0.71803 0.63099 0.86796 0.0
C3818 C 0.72971 0.62705 0.88033 0.0
C3819 C 0.72422 0.61986 0.89512 0.0
C3820 C 0.70728 0.61712 0.89777 0.0
C3821 C 0.74775 0.63023 0.87799 0.0
C3822 C 0.75536 0.62158 0.86537 0.0
C3823 C 0.75764 0.6402 0.88936 0.0
C3824 C 0.75002 0.65013 0.90249 0.0
C3825 C 0.75488 0.64834 0.91924 0.0
C3826 C 0.74726 0.65723 0.93164 0.0
C3827 C 0.73479 0.66799 0.92743 0.0
C3828 C 0.72999 0.66997 0.91082 0.0
C3829 C 0.73759 0.66114 0.89837 0.0
H3830 H 0.72886 0.67481 0.93705 0.0
H3831 H 0.80137 0.58557 0.81792 0.0
H3832 H 0.63121 0.90149 0.82478 0.0
H3833 H 0.63351 0.90052 0.79465 0.0
H3834 H 0.6499 0.8505 0.79768 0.0
H3835 H 0.64828 0.85177 0.82812 0.0
H3836 H 0.66489 0.86781 0.77236 0.0
H3837 H 0.60877 0.85614 0.79006 0.0
H3838 H 0.58368 0.86134 0.80585 0.0
H3839 H 0.57996 0.90855 0.78226 0.0
H3840 H 0.60494 0.90359 0.76619 0.0
H3841 H 0.63811 0.85099 0.68758 0.0
H3842 H 0.64165 0.84931 0.71778 0.0
H3843 H 0.62727 0.89984 0.72272 0.0
H3844 H 0.62359 0.90165 0.69275 0.0
H3845 H 0.61117 0.87915 0.74409 0.0
H3846 H 0.66738 0.89077 0.72639 0.0
H3847 H 0.69224 0.88545 0.71034 0.0
H3848 H 0.696 0.83824 0.73401 0.0
H3849 H 0.67098 0.84317 0.75001 0.0
C3850 C 0.63572 0.89047 0.81902 0.0
C3851 C 0.63948 0.87666 0.8286 0.0
C3852 C 0.63695 0.88987 0.80184 0.0
C3853 C 0.64141 0.87526 0.79393 0.0
C3854 C 0.64633 0.86185 0.80357 0.0
C3855 C 0.64544 0.86258 0.82089 0.0
C3856 C 0.63937 0.87366 0.77566 0.0
C3857 C 0.6531 0.87002 0.76616 0.0
C3858 C 0.62399 0.87666 0.7676 0.0
C3859 C 0.60876 0.87952 0.77699 0.0
C3860 C 0.60261 0.86764 0.78827 0.0
C3861 C 0.58842 0.87055 0.79727 0.0
C3862 C 0.5803 0.8853 0.79514 0.0
C3863 C 0.58627 0.89713 0.7839 0.0
C3864 C 0.60039 0.89425 0.77478 0.0
C3865 C 0.63569 0.86174 0.69509 0.0
C3866 C 0.63057 0.87646 0.68771 0.0
C3867 C 0.6378 0.86078 0.71233 0.0
C3868 C 0.63483 0.8745 0.72244 0.0
C3869 C 0.62962 0.88912 0.71512 0.0
C3870 C 0.62756 0.89012 0.69796 0.0
C3871 C 0.63678 0.87369 0.74072 0.0
C3872 C 0.62295 0.87679 0.75025 0.0
C3873 C 0.65204 0.87014 0.74873 0.0
C3874 C 0.66719 0.86725 0.73926 0.0
C3875 C 0.67342 0.87919 0.72807 0.0
C3876 C 0.68756 0.87626 0.719 0.0
C3877 C 0.69567 0.8615 0.72111 0.0
C3878 C 0.68969 0.84966 0.73235 0.0
C3879 C 0.67553 0.85252 0.74143 0.0
H3880 H 0.70661 0.85924 0.71407 0.0
H3881 H 0.56934 0.88753 0.80216 0.0
H3882 H 0.64897 0.13443 0.18375 0.0
H3883 H 0.65755 0.12841 0.21249 0.0
H3884 H 0.60705 0.13302 0.22786 0.0
H3885 H 0.59839 0.13876 0.19944 0.0
H3886 H 0.65578 0.14437 0.24325 0.0
H3887 H 0.5964 0.10122 0.25204 0.0
H3888 H 0.57726 0.08311 0.23468 0.0
H3889 H 0.61596 0.07648 0.19994 0.0
H3890 H 0.63541 0.09428 0.21724 0.0
H3891 H 0.63829 0.13382 0.32807 0.0
H3892 H 0.63934 0.13949 0.29834 0.0
H3893 H 0.646 0.0876 0.28844 0.0
H3894 H 0.64414 0.08179 0.31802 0.0
H3895 H 0.62421 0.09686 0.26841 0.0
H3896 H 0.67802 0.11914 0.28386 0.0
H3897 H 0.69933 0.13591 0.30001 0.0
H3898 H 0.67669 0.18057 0.28483 0.0
H3899 H 0.65509 0.16407 0.26878 0.0
C3900 C 0.63978 0.13435 0.19333 0.0
C3901 C 0.62297 0.13682 0.18933 0.0
C3902 C 0.64469 0.13096 0.2097 0.0
C3903 C 0.63286 0.13001 0.22219 0.0
C3904 C 0.6163 0.13341 0.21833 0.0
C3905 C 0.61138 0.13667 0.20207 0.0
C3906 C 0.63728 0.12444 0.2391 0.0
C3907 C 0.64901 0.13393 0.24879 0.0
C3908 C 0.62882 0.11046 0.24606 0.0
C3909 C 0.61734 0.0992 0.23591 0.0
C3910 C 0.60087 0.09579 0.24078 0.0
C3911 C 0.58996 0.08559 0.23093 0.0
C3912 C 0.59538 0.07868 0.21619 0.0
C3913 C 0.61176 0.08187 0.21133 0.0
C3914 C 0.62273 0.09201 0.22116 0.0
C3915 C 0.64014 0.12368 0.31953 0.0
C3916 C 0.64104 0.10737 0.3253 0.0
C3917 C 0.64086 0.12693 0.30255 0.0
C3918 C 0.64294 0.114 0.2911 0.0
C3919 C 0.64434 0.09778 0.29698 0.0
C3920 C 0.64327 0.09448 0.31389 0.0
C3921 C 0.64236 0.11714 0.27296 0.0
C3922 C 0.63126 0.10716 0.26295 0.0
C3923 C 0.65184 0.13032 0.26563 0.0
C3924 C 0.66486 0.14034 0.27519 0.0
C3925 C 0.67752 0.13253 0.28405 0.0
C3926 C 0.68966 0.142 0.29318 0.0
C3927 C 0.68934 0.15929 0.29347 0.0
C3928 C 0.67691 0.16717 0.2846 0.0
C3929 C 0.66473 0.15777 0.27546 0.0
H3930 H 0.69875 0.1666 0.30055 0.0
H3931 H 0.58689 0.07085 0.20855 0.0
H3932 H 0.37526 0.10124 0.69262 0.0
H3933 H 0.37218 0.10688 0.72198 0.0
H3934 H 0.36307 0.15797 0.71138 0.0
H3935 H 0.36601 0.15245 0.68165 0.0
H3936 H 0.38578 0.15394 0.73797 0.0
H3937 H 0.33122 0.1351 0.72178 0.0
H3938 H 0.30985 0.11705 0.70715 0.0
H3939 H 0.32395 0.0756 0.73646 0.0
H3940 H 0.34567 0.0933 0.75103 0.0
H3941 H 0.35441 0.13755 0.82747 0.0
H3942 H 0.34738 0.14111 0.79792 0.0
H3943 H 0.39519 0.12378 0.78502 0.0
H3944 H 0.40231 0.12013 0.81416 0.0
H3945 H 0.34635 0.11856 0.77043 0.0
H3946 H 0.41152 0.1494 0.75651 0.0
H3947 H 0.43302 0.16731 0.77116 0.0
H3948 H 0.39589 0.18676 0.8021 0.0
H3949 H 0.37411 0.16922 0.78743 0.0
C3950 C 0.37257 0.1137 0.69641 0.0
C3951 C 0.37076 0.12636 0.68469 0.0
C3952 C 0.37074 0.11687 0.71324 0.0
C3953 C 0.36712 0.13275 0.71878 0.0
C3954 C 0.36573 0.14559 0.70727 0.0
C3955 C 0.36742 0.1424 0.69032 0.0
C3956 C 0.36526 0.13572 0.73674 0.0
C3957 C 0.377 0.14643 0.74507 0.0
C3958 C 0.35347 0.12622 0.74591 0.0
C3959 C 0.34013 0.11555 0.73749 0.0
C3960 C 0.32982 0.12212 0.72507 0.0
C3961 C 0.31764 0.11195 0.71678 0.0
C3962 C 0.31554 0.0952 0.72088 0.0
C3963 C 0.32559 0.08859 0.73331 0.0
C3964 C 0.33783 0.0987 0.74161 0.0
C3965 C 0.36336 0.13436 0.81832 0.0
C3966 C 0.37901 0.12874 0.82323 0.0
C3967 C 0.35931 0.13641 0.80148 0.0
C3968 C 0.3709 0.13299 0.78938 0.0
C3969 C 0.3862 0.12677 0.79422 0.0
C3970 C 0.39023 0.12466 0.81093 0.0
C3971 C 0.36747 0.13607 0.7716 0.0
C3972 C 0.35477 0.12647 0.76331 0.0
C3973 C 0.37821 0.1468 0.76246 0.0
C3974 C 0.39117 0.15792 0.77088 0.0
C3975 C 0.4079 0.15762 0.76631 0.0
C3976 C 0.42015 0.16768 0.77465 0.0
C3977 C 0.41582 0.17815 0.78756 0.0
C3978 C 0.39923 0.17863 0.79211 0.0
C3979 C 0.38693 0.16863 0.78379 0.0
H3980 H 0.42533 0.18588 0.79403 0.0
H3981 H 0.30611 0.08733 0.71443 0.0
H3982 H 0.42091 0.87108 0.18978 0.0
H3983 H 0.41668 0.86965 0.2196 0.0
H3984 H 0.36347 0.86702 0.21079 0.0
H3985 H 0.36763 0.86794 0.18086 0.0
H3986 H 0.40373 0.89054 0.23869 0.0
H3987 H 0.34373 0.84706 0.24194 0.0
H3988 H 0.33092 0.82245 0.2273 0.0
H3989 H 0.37899 0.80906 0.21148 0.0
H3990 H 0.39212 0.83345 0.22621 0.0
H3991 H 0.36345 0.90812 0.31011 0.0
H3992 H 0.36714 0.90032 0.28125 0.0
H3993 H 0.38368 0.85266 0.29663 0.0
H3994 H 0.37955 0.86029 0.32579 0.0
H3995 H 0.36502 0.85075 0.26694 0.0
H3996 H 0.41209 0.88199 0.28988 0.0
H3997 H 0.42605 0.9052 0.30579 0.0
H3998 H 0.40797 0.93982 0.27029 0.0
H3999 H 0.3936 0.91684 0.25434 0.0
C4000 C 0.4083 0.87005 0.19418 0.0
C4001 C 0.39459 0.86966 0.18298 0.0
C4002 C 0.40591 0.86923 0.21123 0.0
C4003 C 0.38977 0.86809 0.21747 0.0
C4004 C 0.37605 0.86754 0.20629 0.0
C4005 C 0.37844 0.86817 0.18918 0.0
C4006 C 0.38733 0.86865 0.23565 0.0
C4007 C 0.39536 0.88174 0.24483 0.0
C4008 C 0.37666 0.857 0.24381 0.0
C4009 C 0.36889 0.84218 0.23508 0.0
C4010 C 0.35158 0.83882 0.23541 0.0
C4011 C 0.34426 0.82492 0.22708 0.0
C4012 C 0.35413 0.81422 0.21843 0.0
C4013 C 0.37135 0.81738 0.21814 0.0
C4014 C 0.37874 0.83126 0.22646 0.0
C4015 C 0.36765 0.89587 0.30736 0.0
C4016 C 0.37148 0.88489 0.32017 0.0
C4017 C 0.36973 0.89143 0.29087 0.0
C4018 C 0.37603 0.87607 0.28686 0.0
C4019 C 0.37887 0.86461 0.29952 0.0
C4020 C 0.37655 0.86898 0.31612 0.0
C4021 C 0.38102 0.87287 0.26964 0.0
C4022 C 0.37352 0.85936 0.26072 0.0
C4023 C 0.39254 0.88386 0.26175 0.0
C4024 C 0.40169 0.89768 0.27096 0.0
C4025 C 0.41104 0.89456 0.28549 0.0
C4026 C 0.41901 0.90767 0.29453 0.0
C4027 C 0.41788 0.92398 0.28907 0.0
C4028 C 0.40883 0.92719 0.27451 0.0
C4029 C 0.40078 0.91412 0.26546 0.0
H4030 H 0.42402 0.93412 0.29611 0.0
H4031 H 0.34844 0.80347 0.21198 0.0
H4032 H 0.07481 0.08723 0.56347 0.0
H4033 H 0.08243 0.07563 0.53684 0.0
H4034 H 0.13419 0.07946 0.5522 0.0
H4035 H 0.12675 0.09091 0.57889 0.0
H4036 H 0.12393 0.10203 0.52771 0.0
H4037 H 0.12132 0.04409 0.53774 0.0
H4038 H 0.10947 0.017 0.5469 0.0
H4039 H 0.06905 0.01993 0.51139 0.0
H4040 H 0.08054 0.04713 0.50213 0.0
H4041 H 0.14661 0.10129 0.44524 0.0
H4042 H 0.14575 0.08937 0.47316 0.0
H4043 H 0.09241 0.0816 0.46794 0.0
H4044 H 0.09331 0.09363 0.44009 0.0
H4045 H 0.10755 0.05673 0.48767 0.0
H4046 H 0.10442 0.11602 0.48413 0.0
H4047 H 0.1124 0.14501 0.47718 0.0
H4048 H 0.15988 0.14074 0.50182 0.0
H4049 H 0.15218 0.11167 0.50895 0.0
C4050 C 0.08775 0.08489 0.56152 0.0
C4051 C 0.10023 0.09049 0.57308 0.0
C4052 C 0.09207 0.07813 0.54629 0.0
C4053 C 0.10888 0.07687 0.54251 0.0
C4054 C 0.12115 0.08033 0.55491 0.0
C4055 C 0.11685 0.08701 0.57012 0.0
C4056 C 0.11367 0.07694 0.52492 0.0
C4057 C 0.12088 0.09187 0.51905 0.0
C4058 C 0.10892 0.06398 0.51359 0.0
C4059 C 0.10175 0.04775 0.51931 0.0
C4060 C 0.10981 0.03906 0.532 0.0
C4061 C 0.10318 0.02364 0.53718 0.0
C4062 C 0.0885 0.01676 0.52976 0.0
C4063 C 0.08042 0.02528 0.51713 0.0
C4064 C 0.08701 0.04068 0.51189 0.0
C4065 C 0.13485 0.09635 0.44984 0.0
C4066 C 0.12005 0.09809 0.44062 0.0
C4067 C 0.13433 0.08962 0.46575 0.0
C4068 C 0.119 0.08466 0.4726 0.0
C4069 C 0.10436 0.08519 0.46281 0.0
C4070 C 0.10487 0.09204 0.44696 0.0
C4071 C 0.11788 0.08178 0.49065 0.0
C4072 C 0.11115 0.06656 0.4965 0.0
C4073 C 0.12268 0.0946 0.50211 0.0
C4074 C 0.12784 0.11162 0.49683 0.0
C4075 C 0.11666 0.12118 0.48785 0.0
C4076 C 0.12107 0.13766 0.484 0.0
C4077 C 0.13661 0.14471 0.48907 0.0
C4078 C 0.14784 0.13525 0.49791 0.0
C4079 C 0.14346 0.11879 0.50187 0.0
H4080 H 0.13994 0.1575 0.48615 0.0
H4081 H 0.0834 0.00482 0.53377 0.0
H4082 H 0.42295 0.6709 0.92899 0.0
H4083 H 0.43518 0.67301 0.95717 0.0
H4084 H 0.42048 0.62165 0.9655 0.0
H4085 H 0.40786 0.61966 0.93764 0.0
H4086 H 0.40935 0.66618 0.98014 0.0
H4087 H 0.44557 0.60839 0.99858 0.0
H4088 H 0.46751 0.59166 0.98734 0.0
H4089 H 0.48602 0.63344 0.95937 0.0
H4090 H 0.46435 0.65051 0.97062 0.0
H4091 H 0.40843 0.61823 0.06131 0.0
H4092 H 0.42018 0.6212 0.03366 0.0
H4093 H 0.42024 0.67455 0.03869 0.0
H4094 H 0.4076 0.67146 0.06588 0.0
H4095 H 0.44513 0.6339 0.01748 0.0
H4096 H 0.40702 0.69156 1.00245 0.0
H4097 H 0.38084 0.70419 0.00961 0.0
H4098 H 0.36124 0.65721 0.02718 0.0
H4099 H 0.38718 0.64424 0.01986 0.0
C4100 C 0.4231 0.65987 0.93656 0.0
C4101 C 0.4144 0.64516 0.93132 0.0
C4102 C 0.43009 0.66108 0.95264 0.0
C4103 C 0.42874 0.64748 0.96339 0.0
C4104 C 0.42186 0.63222 0.95735 0.0
C4105 C 0.41458 0.63111 0.94147 0.0
C4106 C 0.42986 0.65016 0.98156 0.0
C4107 C 0.4176 0.65963 0.98838 0.0
C4108 C 0.44005 0.64087 0.99211 0.0
C4109 C 0.45325 0.63072 0.98541 0.0
C4110 C 0.45437 0.61405 0.99011 0.0
C4111 C 0.46676 0.6045 0.98372 0.0
C4112 C 0.47814 0.61147 0.97263 0.0
C4113 C 0.47717 0.62803 0.96792 0.0
C4114 C 0.46481 0.63765 0.97428 0.0
C4115 C 0.41142 0.63055 0.05662 0.0
C4116 C 0.40717 0.64463 0.06552 0.0
C4117 C 0.41813 0.63227 0.04086 0.0
C4118 C 0.42078 0.64811 0.03393 0.0
C4119 C 0.41796 0.66221 0.0436 0.0
C4120 C 0.41087 0.66047 0.05914 0.0
C4121 C 0.42439 0.64975 0.01602 0.0
C4122 C 0.43733 0.64098 0.0093 0.0
C4123 C 0.41435 0.65915 0.00532 0.0
C4124 C 0.39915 0.66701 0.01083 0.0
C4125 C 0.39716 0.68396 0.00795 0.0
C4126 C 0.38235 0.69116 0.01196 0.0
C4127 C 0.36939 0.6815 0.0188 0.0
C4128 C 0.3713 0.66467 0.02187 0.0
C4129 C 0.38607 0.6574 0.01782 0.0
H4130 H 0.35784 0.68706 0.02159 0.0
H4131 H 0.48771 0.60405 0.96769 0.0
H4132 H 0.92751 0.91574 0.44096 0.0
H4133 H 0.93109 0.9278 0.46892 0.0
H4134 H 0.87796 0.92211 0.47528 0.0
H4135 H 0.87437 0.91147 0.44691 0.0
H4136 H 0.88873 0.94639 0.49358 0.0
H4137 H 0.90758 0.88988 0.48519 0.0
H4138 H 0.92535 0.86922 0.47296 0.0
H4139 H 0.9691 0.89747 0.49051 0.0
H4140 H 0.95156 0.91828 0.50286 0.0
H4141 H 0.87324 0.89993 0.56488 0.0
H4142 H 0.87735 0.91404 0.5385 0.0
H4143 H 0.92645 0.93184 0.55529 0.0
H4144 H 0.92216 0.91807 0.58206 0.0
H4145 H 0.92489 0.91058 0.52687 0.0
H4146 H 0.90229 0.96047 0.54423 0.0
H4147 H 0.88255 0.97829 0.55771 0.0
H4148 H 0.84346 0.95996 0.5241 0.0
H4149 H 0.86288 0.94185 0.51054 0.0
C4150 C 0.91661 0.91772 0.44819 0.0
C4151 C 0.90068 0.91273 0.44197 0.0
C4152 C 0.91864 0.92445 0.46419 0.0
C4153 C 0.90485 0.92535 0.47446 0.0
C4154 C 0.88882 0.92153 0.46768 0.0
C4155 C 0.88674 0.91541 0.45148 0.0
C4156 C 0.90704 0.92785 0.4927 0.0
C4157 C 0.89669 0.93862 0.50087 0.0
C4158 C 0.91781 0.91812 0.5023 0.0
C4159 C 0.9283 0.90567 0.4948 0.0
C4160 C 0.92099 0.89169 0.48638 0.0
C4161 C 0.93102 0.87996 0.47944 0.0
C4162 C 0.94834 0.88205 0.48095 0.0
C4163 C 0.95568 0.89588 0.48936 0.0
C4164 C 0.94572 0.90762 0.49636 0.0
C4165 C 0.88468 0.90734 0.56315 0.0
C4166 C 0.89742 0.90789 0.57539 0.0
C4167 C 0.88697 0.91549 0.54814 0.0
C4168 C 0.90217 0.92404 0.545 0.0
C4169 C 0.91457 0.92545 0.55759 0.0
C4170 C 0.91211 0.9176 0.57283 0.0
C4171 C 0.90594 0.92841 0.52767 0.0
C4172 C 0.9174 0.91886 0.51963 0.0
C4173 C 0.89588 0.93891 0.51827 0.0
C4174 C 0.88407 0.94976 0.52638 0.0
C4175 C 0.88946 0.96015 0.53977 0.0
C4176 C 0.87832 0.97032 0.54742 0.0
C4177 C 0.86176 0.97026 0.54177 0.0
C4178 C 0.8563 0.96002 0.52845 0.0
C4179 C 0.86738 0.94982 0.52075 0.0
H4180 H 0.85316 0.97814 0.54771 0.0
H4181 H 0.95611 0.87292 0.4757 0.0
H4182 H 0.62501 0.34101 0.95218 0.0
H4183 H 0.60777 0.34282 0.97642 0.0
H4184 H 0.5786 0.37919 0.95178 0.0
H4185 H 0.59581 0.37702 0.92704 0.0
H4186 H 0.59322 0.38984 0.98243 0.0
H4187 H 0.55728 0.34577 0.9637 0.0
H4188 H 0.54872 0.31901 0.95029 0.0
H4189 H 0.57611 0.29318 0.98752 0.0
H4190 H 0.58507 0.31977 1.00102 0.0
H4191 H 0.58705 0.38817 0.07088 0.0
H4192 H 0.57375 0.38688 0.043 0.0
H4193 H 0.60405 0.34638 0.03003 0.0
H4194 H 0.61716 0.34758 0.05747 0.0
H4195 H 0.57246 0.34233 0.01614 0.0
H4196 H 0.61745 0.38706 0.02372 0.0
H4197 H 0.62817 0.41336 0.03687 0.0
H4198 H 0.58438 0.43722 0.02018 0.0
H4199 H 0.57332 0.41098 0.00709 0.0
C4200 C 0.6146 0.349 0.95174 0.0
C4201 C 0.61167 0.35886 0.93784 0.0
C4202 C 0.60468 0.34997 0.96554 0.0
C4203 C 0.59178 0.36102 0.96584 0.0
C4204 C 0.58836 0.37044 0.95169 0.0
C4205 C 0.59813 0.36918 0.93761 0.0
C4206 C 0.58406 0.36424 0.98195 0.0
C4207 C 0.58797 0.37965 0.98967 0.0
C4208 C 0.5772 0.35099 0.99137 0.0
C4209 C 0.5718 0.33483 0.98343 0.0
C4210 C 0.56154 0.3344 0.96901 0.0
C4211 C 0.55662 0.31924 0.96138 0.0
C4212 C 0.56185 0.3044 0.96806 0.0
C4213 C 0.57202 0.30469 0.98239 0.0
C4214 C 0.57699 0.31981 0.99006 0.0
C4215 C 0.59056 0.37879 0.06214 0.0
C4216 C 0.60334 0.36816 0.06621 0.0
C4217 C 0.58295 0.37805 0.04627 0.0
C4218 C 0.58796 0.36657 0.03443 0.0
C4219 C 0.5999 0.35528 0.03896 0.0
C4220 C 0.60755 0.35611 0.05462 0.0
C4221 C 0.58293 0.36742 0.01666 0.0
C4222 C 0.57665 0.35279 0.00868 0.0
C4223 C 0.58773 0.38133 0.00698 0.0
C4224 C 0.59449 0.39708 0.01461 0.0
C4225 C 0.6101 0.39791 0.02292 0.0
C4226 C 0.61623 0.41279 0.03036 0.0
C4227 C 0.60695 0.42693 0.0294 0.0
C4228 C 0.59153 0.42624 0.02095 0.0
C4229 C 0.58532 0.41138 0.01353 0.0
H4230 H 0.61171 0.43843 0.03518 0.0
H4231 H 0.55803 0.29269 0.96213 0.0
H4232 H 0.17128 0.92059 0.58213 0.0
H4233 H 0.17385 0.9389 0.55798 0.0
H4234 H 0.1249 0.9213 0.54042 0.0
H4235 H 0.12246 0.90304 0.56415 0.0
H4236 H 0.17492 0.92533 0.5282 0.0
H4237 H 0.10639 0.94698 0.51637 0.0
H4238 H 0.08602 0.9627 0.53141 0.0
H4239 H 0.12497 0.98366 0.56373 0.0
H4240 H 0.14568 0.9683 0.54875 0.0
H4241 H 0.13101 0.89331 0.46448 0.0
H4242 H 0.13583 0.90805 0.49064 0.0
H4243 H 0.15391 0.95162 0.46469 0.0
H4244 H 0.14915 0.93669 0.438 0.0
H4245 H 0.12927 0.95233 0.49801 0.0
H4246 H 0.18265 0.94167 0.47779 0.0
H4247 H 0.20195 0.92555 0.46175 0.0
H4248 H 0.19419 0.88422 0.49438 0.0
H4249 H 0.17429 0.89982 0.5102 0.0
C4250 C 0.16089 0.92111 0.57336 0.0
C4251 C 0.14676 0.9103 0.57482 0.0
C4252 C 0.16235 0.93159 0.55962 0.0
C4253 C 0.14952 0.93162 0.54743 0.0
C4254 C 0.13484 0.92182 0.54976 0.0
C4255 C 0.13353 0.91119 0.56324 0.0
C4256 C 0.15248 0.9385 0.53067 0.0
C4257 C 0.16529 0.93182 0.52168 0.0
C4258 C 0.14022 0.94741 0.52216 0.0
C4259 C 0.12766 0.95647 0.53136 0.0
C4260 C 0.11068 0.95504 0.52659 0.0
C4261 C 0.09905 0.96386 0.53514 0.0
C4262 C 0.10419 0.97417 0.54851 0.0
C4263 C 0.12099 0.97565 0.55339 0.0
C4264 C 0.13268 0.96685 0.54489 0.0
C4265 C 0.13579 0.90608 0.46421 0.0
C4266 C 0.13997 0.91374 0.4492 0.0
C4267 C 0.13844 0.91453 0.47919 0.0
C4268 C 0.14537 0.93081 0.47954 0.0
C4269 C 0.14855 0.93902 0.46458 0.0
C4270 C 0.14582 0.9305 0.44941 0.0
C4271 C 0.15077 0.93787 0.49586 0.0
C4272 C 0.13947 0.94689 0.5047 0.0
C4273 C 0.16454 0.93131 0.5043 0.0
C4274 C 0.17694 0.92197 0.49519 0.0
C4275 C 0.18496 0.9291 0.48148 0.0
C4276 C 0.19599 0.92003 0.4724 0.0
C4277 C 0.19931 0.90386 0.47703 0.0
C4278 C 0.1916 0.89674 0.49078 0.0
C4279 C 0.18042 0.9057 0.49981 0.0
H4280 H 0.20786 0.89685 0.46998 0.0
H4281 H 0.09517 0.98102 0.55509 0.0
H4282 H 0.58917 0.62341 0.92821 0.0
H4283 H 0.57237 0.626 0.95313 0.0
H4284 H 0.60171 0.5899 0.97794 0.0
H4285 H 0.61873 0.58777 0.95347 0.0
H4286 H 0.56579 0.58866 0.98595 0.0
H4287 H 0.61684 0.62701 0.98292 0.0
H4288 H 0.63296 0.64898 0.96832 0.0
H4289 H 0.5904 0.679 0.96702 0.0
H4290 H 0.57404 0.65709 0.9816 0.0
H4291 H 0.6072 0.59289 0.05966 0.0
H4292 H 0.59281 0.59156 0.03284 0.0
H4293 H 0.57129 0.63838 0.04299 0.0
H4294 H 0.58598 0.63976 0.07019 0.0
H4295 H 0.58815 0.63965 0.01529 0.0
H4296 H 0.54498 0.60396 0.03327 0.0
H4297 H 0.53096 0.58128 0.04874 0.0
H4298 H 0.558 0.5455 0.02226 0.0
H4299 H 0.5724 0.56793 0.0068 0.0
C4300 C 0.59159 0.61566 0.93883 0.0
C4301 C 0.6052 0.60544 0.93908 0.0
C4302 C 0.58201 0.61713 0.95299 0.0
C4303 C 0.58578 0.60807 0.9673 0.0
C4304 C 0.59848 0.59683 0.96695 0.0
C4305 C 0.60826 0.5957 0.95304 0.0
C4306 C 0.57907 0.61229 0.9836 0.0
C4307 C 0.57029 0.59992 0.99241 0.0
C4308 C 0.58444 0.62725 0.99176 0.0
C4309 C 0.59423 0.64044 0.98319 0.0
C4310 C 0.61094 0.63829 0.97945 0.0
C4311 C 0.62011 0.65071 0.97118 0.0
C4312 C 0.6127 0.66537 0.96668 0.0
C4313 C 0.59611 0.66763 0.97049 0.0
C4314 C 0.58689 0.65523 0.97876 0.0
C4315 C 0.59903 0.60268 0.0564 0.0
C4316 C 0.59781 0.6165 0.06688 0.0
C4317 C 0.59061 0.60182 0.04111 0.0
C4318 C 0.58078 0.61479 0.03591 0.0
C4319 C 0.57867 0.62816 0.04683 0.0
C4320 C 0.58702 0.62893 0.06233 0.0
C4321 C 0.57574 0.61552 0.0181 0.0
C4322 C 0.5825 0.62881 0.00889 0.0
C4323 C 0.56842 0.60139 0.00964 0.0
C4324 C 0.55974 0.58769 0.01879 0.0
C4325 C 0.548 0.59126 0.03077 0.0
C4326 C 0.53998 0.57844 0.03955 0.0
C4327 C 0.54357 0.56196 0.03647 0.0
C4328 C 0.55519 0.55827 0.02459 0.0
C4329 C 0.56325 0.57104 0.01577 0.0
H4330 H 0.53735 0.55205 0.04329 0.0
H4331 H 0.61981 0.67499 0.9603 0.0
H4332 H 0.85566 0.07213 0.43072 0.0
H4333 H 0.85215 0.05602 0.45635 0.0
H4334 H 0.88789 0.08968 0.48175 0.0
H4335 H 0.89124 0.10567 0.45645 0.0
H4336 H 0.88932 0.05668 0.49285 0.0
H4337 H 0.84659 0.09822 0.47867 0.0
H4338 H 0.82328 0.10683 0.46069 0.0
H4339 H 0.79723 0.05979 0.46785 0.0
H4340 H 0.82046 0.05079 0.48568 0.0
H4341 H 0.87987 0.10225 0.56159 0.0
H4342 H 0.88243 0.08683 0.53595 0.0
H4343 H 0.83738 0.05768 0.54603 0.0
H4344 H 0.83473 0.07336 0.57209 0.0
H4345 H 0.83557 0.07148 0.51616 0.0
H4346 H 0.87346 0.03707 0.54092 0.0
H4347 H 0.89632 0.02847 0.55932 0.0
H4348 H 0.93118 0.05965 0.5328 0.0
H4349 H 0.90853 0.06864 0.51438 0.0
C4350 C 0.86315 0.07565 0.44167 0.0
C4351 C 0.87359 0.09017 0.44179 0.0
C4352 C 0.86112 0.06649 0.45626 0.0
C4353 C 0.86968 0.07173 0.47096 0.0
C4354 C 0.88122 0.08536 0.47055 0.0
C4355 C 0.88305 0.09458 0.45614 0.0
C4356 C 0.86495 0.06528 0.48742 0.0
C4357 C 0.87749 0.05956 0.498 0.0
C4358 C 0.84921 0.06824 0.49392 0.0
C4359 C 0.83528 0.07378 0.48335 0.0
C4360 C 0.83591 0.0897 0.47635 0.0
C4361 C 0.82274 0.09465 0.4662 0.0
C4362 C 0.80882 0.08388 0.46314 0.0
C4363 C 0.80803 0.06811 0.47022 0.0
C4364 C 0.82119 0.06307 0.48033 0.0
C4365 C 0.8707 0.09229 0.55859 0.0
C4366 C 0.85703 0.08909 0.56875 0.0
C4367 C 0.87227 0.08332 0.54397 0.0
C4368 C 0.86022 0.07091 0.53911 0.0
C4369 C 0.84692 0.06708 0.54963 0.0
C4370 C 0.84543 0.07602 0.56449 0.0
C4371 C 0.86049 0.06424 0.5219 0.0
C4372 C 0.84711 0.06754 0.51111 0.0
C4373 C 0.8754 0.05885 0.51523 0.0
C4374 C 0.88923 0.05348 0.52619 0.0
C4375 C 0.88598 0.04215 0.53903 0.0
C4376 C 0.89892 0.0372 0.54948 0.0
C4377 C 0.91519 0.04349 0.54722 0.0
C4378 C 0.91857 0.05474 0.5345 0.0
C4379 C 0.90568 0.05972 0.52401 0.0
H4380 H 0.92519 0.03966 0.55533 0.0
H4381 H 0.79863 0.08779 0.45533 0.0
H4382 H 0.42825 0.38074 0.92441 0.0
H4383 H 0.44462 0.37929 0.95058 0.0
H4384 H 0.41656 0.41821 0.97133 0.0
H4385 H 0.39999 0.41927 0.94561 0.0
H4386 H 0.45166 0.41876 0.98235 0.0
H4387 H 0.40007 0.38138 0.97665 0.0
H4388 H 0.38361 0.35888 0.96197 0.0
H4389 H 0.42517 0.32764 0.96549 0.0
H4390 H 0.44186 0.35006 0.9802 0.0
H4391 H 0.40874 0.4187 0.05311 0.0
H4392 H 0.42397 0.41878 0.02757 0.0
H4393 H 0.44392 0.37178 0.04045 0.0
H4394 H 0.42834 0.37164 0.0663 0.0
H4395 H 0.42776 0.36966 0.01176 0.0
H4396 H 0.47117 0.4056 0.03172 0.0
H4397 H 0.48525 0.42887 0.04742 0.0
H4398 H 0.4594 0.46368 0.01764 0.0
H4399 H 0.44495 0.44067 1.00192 0.0
C4400 C 0.42606 0.38935 0.9344 0.0
C4401 C 0.41291 0.40008 0.93316 0.0
C4402 C 0.43539 0.38852 0.94928 0.0
C4403 C 0.43181 0.39869 0.96283 0.0
C4404 C 0.41965 0.41041 0.96097 0.0
C4405 C 0.41012 0.41095 0.94633 0.0
C4406 C 0.438 0.39523 0.97983 0.0
C4407 C 0.44681 0.40791 0.98886 0.0
C4408 C 0.43215 0.3808 0.98812 0.0
C4409 C 0.42221 0.36736 0.97935 0.0
C4410 C 0.40569 0.36972 0.97421 0.0
C4411 C 0.39633 0.357 0.96589 0.0
C4412 C 0.40336 0.34184 0.96273 0.0
C4413 C 0.41976 0.33939 0.96792 0.0
C4414 C 0.42916 0.35209 0.97626 0.0
C4415 C 0.41678 0.40863 0.05077 0.0
C4416 C 0.41725 0.39509 0.06155 0.0
C4417 C 0.42568 0.40876 0.03621 0.0
C4418 C 0.43527 0.39535 0.03208 0.0
C4419 C 0.43674 0.38233 0.04345 0.0
C4420 C 0.42787 0.38227 0.0582 0.0
C4421 C 0.44057 0.39371 0.01467 0.0
C4422 C 0.43374 0.38008 0.00542 0.0
C4423 C 0.44828 0.4073 0.00627 0.0
C4424 C 0.457 0.42134 0.01557 0.0
C4425 C 0.46843 0.41821 0.02854 0.0
C4426 C 0.47648 0.43137 0.03746 0.0
C4427 C 0.47324 0.44774 0.03351 0.0
C4428 C 0.46194 0.45099 0.02064 0.0
C4429 C 0.45385 0.43788 0.01168 0.0
H4430 H 0.47947 0.4579 0.04044 0.0
H4431 H 0.3961 0.33198 0.95633 0.0
H4432 H 0.5555 0.15367 0.11169 0.0
H4433 H 0.52923 0.15244 0.09639 0.0
H4434 H 0.5462 0.11335 0.0652 0.0
H4435 H 0.5728 0.11427 0.08098 0.0
H4436 H 0.51508 0.15438 0.06631 0.0
H4437 H 0.51353 0.08534 0.06114 0.0
H4438 H 0.52903 0.06127 0.07037 0.0
H4439 H 0.54131 0.08581 0.11687 0.0
H4440 H 0.52569 0.10992 0.10799 0.0
H4441 H 0.4264 0.13716 0.07706 0.0
H4442 H 0.45272 0.1349 0.06253 0.0
H4443 H 0.47681 0.12098 0.10843 0.0
H4444 H 0.45107 0.123 0.12278 0.0
H4445 H 0.48597 0.10176 0.08317 0.0
H4446 H 0.47833 0.16178 0.09435 0.0
H4447 H 0.46344 0.18741 0.08966 0.0
H4448 H 0.4701 0.18279 0.03717 0.0
H4449 H 0.48488 0.15704 0.04158 0.0
C4450 C 0.55384 0.14498 0.10141 0.0
C4451 C 0.56603 0.13372 0.09786 0.0
C4452 C 0.53884 0.14446 0.09245 0.0
C4453 C 0.53562 0.13266 0.07976 0.0
C4454 C 0.54839 0.12247 0.07505 0.0
C4455 C 0.56354 0.12298 0.08409 0.0
C4456 C 0.51804 0.12924 0.0743 0.0
C4457 C 0.50868 0.14268 0.06939 0.0
C4458 C 0.50963 0.11397 0.07816 0.0
C4459 C 0.51862 0.09942 0.08383 0.0
C4460 C 0.51949 0.08554 0.07335 0.0
C4461 C 0.52828 0.07191 0.07853 0.0
C4462 C 0.53618 0.07204 0.09419 0.0
C4463 C 0.53519 0.08575 0.10476 0.0
C4464 C 0.52635 0.09937 0.09967 0.0
C4465 C 0.43733 0.13358 0.084 0.0
C4466 C 0.4366 0.13036 0.10113 0.0
C4467 C 0.4523 0.13222 0.07566 0.0
C4468 C 0.46667 0.12761 0.08437 0.0
C4469 C 0.46583 0.12429 0.10137 0.0
C4470 C 0.45105 0.12563 0.10963 0.0
C4471 C 0.48316 0.12734 0.07667 0.0
C4472 C 0.49226 0.1131 0.07889 0.0
C4473 C 0.49133 0.14202 0.07086 0.0
C4474 C 0.48249 0.15744 0.06826 0.0
C4475 C 0.47651 0.1662 0.08181 0.0
C4476 C 0.46811 0.18074 0.07921 0.0
C4477 C 0.46578 0.18669 0.06312 0.0
C4478 C 0.47187 0.17814 0.04961 0.0
C4479 C 0.48025 0.16357 0.05215 0.0
H4480 H 0.45932 0.19796 0.06112 0.0
H4481 H 0.54304 0.06151 0.09815 0.0
H4482 H 0.38765 0.93188 0.58864 0.0
H4483 H 0.39532 0.95798 0.57491 0.0
H4484 H 0.34677 0.97565 0.58449 0.0
H4485 H 0.33885 0.94949 0.59766 0.0
H4486 H 0.35827 0.98929 0.55683 0.0
H4487 H 0.38139 0.98137 0.61408 0.0
H4488 H 0.39922 0.96835 0.6352 0.0
H4489 H 0.44133 0.97515 0.60394 0.0
H4490 H 0.42384 0.98841 0.58277 0.0
H4491 H 0.35716 0.06264 0.59996 0.0
H4492 H 0.35676 0.03629 0.58505 0.0
H4493 H 0.40846 0.04534 0.5734 0.0
H4494 H 0.40881 0.07207 0.58829 0.0
H4495 H 0.40328 0.01776 0.59124 0.0
H4496 H 0.38104 0.0368 0.54133 0.0
H4497 H 0.3635 0.05268 0.52238 0.0
H4498 H 0.31972 0.02622 0.53963 0.0
H4499 H 0.33693 0.01037 0.55892 0.0
C4500 C 0.37841 0.94112 0.58731 0.0
C4501 C 0.36274 0.93875 0.59454 0.0
C4502 C 0.38286 0.95607 0.57953 0.0
C4503 C 0.3718 0.96897 0.57911 0.0
C4504 C 0.35557 0.96593 0.58473 0.0
C4505 C 0.35104 0.95093 0.59232 0.0
C4506 C 0.37762 0.98627 0.57535 0.0
C4507 C 0.36819 0.99556 0.56422 0.0
C4508 C 0.39107 0.99433 0.58443 0.0
C4509 C 0.40131 0.98566 0.59679 0.0
C4510 C 0.39442 0.97993 0.61167 0.0
C4511 C 0.40445 0.97256 0.62365 0.0
C4512 C 0.42134 0.97084 0.62085 0.0
C4513 C 0.42824 0.97645 0.60607 0.0
C4514 C 0.4183 0.98394 0.5941 0.0
C4515 C 0.36828 0.05928 0.59372 0.0
C4516 C 0.38305 0.06925 0.59537 0.0
C4517 C 0.36801 0.04428 0.58504 0.0
C4518 C 0.38256 0.03884 0.57801 0.0
C4519 C 0.39706 0.04937 0.5786 0.0
C4520 C 0.39725 0.06461 0.58709 0.0
C4521 C 0.38321 0.02102 0.57355 0.0
C4522 C 0.39385 0.01154 0.58318 0.0
C4523 C 0.37086 0.01288 0.56316 0.0
C4524 C 0.36032 0.02237 0.55161 0.0
C4525 C 0.36766 0.03442 0.54118 0.0
C4526 C 0.35778 0.04341 0.53035 0.0
C4527 C 0.34052 0.04044 0.52978 0.0
C4528 C 0.3331 0.02848 0.54006 0.0
C4529 C 0.34293 0.01945 0.55092 0.0
H4530 H 0.33288 0.04741 0.52139 0.0
H4531 H 0.42912 0.9653 0.6302 0.0
H4532 H 0.43889 0.91027 0.0894 0.0
H4533 H 0.46534 0.90672 0.07589 0.0
H4534 H 0.45073 0.8554 0.0657 0.0
H4535 H 0.42412 0.85908 0.0789 0.0
H4536 H 0.47488 0.86351 0.09246 0.0
H4537 H 0.46546 0.87404 0.03503 0.0
H4538 H 0.45591 0.88965 0.01073 0.0
H4539 H 0.49029 0.93036 0.02405 0.0
H4540 H 0.4999 0.91511 0.04857 0.0
H4541 H 0.55926 0.84964 0.09513 0.0
H4542 H 0.53149 0.84853 0.08169 0.0
H4543 H 0.53332 0.90202 0.07967 0.0
H4544 H 0.56099 0.90308 0.09316 0.0
H4545 H 0.51518 0.88833 0.05304 0.0
H4546 H 0.51604 0.88616 0.11197 0.0
H4547 H 0.52133 0.87744 0.14078 0.0
H4548 H 0.50099 0.82842 0.12888 0.0
H4549 H 0.49541 0.8369 0.09998 0.0
C4550 C 0.44088 0.89859 0.0832 0.0
C4551 C 0.42956 0.88497 0.08499 0.0
C4552 C 0.45599 0.89655 0.07547 0.0
C4553 C 0.45998 0.88078 0.06981 0.0
C4554 C 0.44777 0.86771 0.06977 0.0
C4555 C 0.43258 0.86981 0.07731 0.0
C4556 C 0.47772 0.87691 0.06965 0.0
C4557 C 0.48365 0.86835 0.08345 0.0
C4558 C 0.48911 0.88417 0.05844 0.0
C4559 C 0.48335 0.89343 0.04372 0.0
C4560 C 0.47089 0.88638 0.03288 0.0
C4561 C 0.46549 0.89516 0.01903 0.0
C4562 C 0.47247 0.91099 0.01586 0.0
C4563 C 0.48489 0.91808 0.02651 0.0
C4564 C 0.49035 0.90936 0.04038 0.0
C4565 C 0.55402 0.86107 0.09105 0.0
C4566 C 0.56223 0.87643 0.09483 0.0
C4567 C 0.53814 0.86045 0.08353 0.0
C4568 C 0.53032 0.87521 0.07979 0.0
C4569 C 0.53917 0.8905 0.08231 0.0
C4570 C 0.55497 0.89111 0.08995 0.0
C4571 C 0.51221 0.87487 0.07586 0.0
C4572 C 0.50631 0.88282 0.06157 0.0
C4573 C 0.50066 0.86777 0.08702 0.0
C4574 C 0.50564 0.86205 0.10375 0.0
C4575 C 0.51298 0.87343 0.11542 0.0
C4576 C 0.51585 0.8686 0.1318 0.0
C4577 C 0.51151 0.8524 0.13665 0.0
C4578 C 0.50439 0.84095 0.12509 0.0
C4579 C 0.50133 0.84577 0.10871 0.0
H4580 H 0.51365 0.84872 0.14937 0.0
H4581 H 0.46827 0.91776 0.00513 0.0
H4582 H 0.60522 0.06553 0.59464 0.0
H4583 H 0.59519 0.03905 0.58218 0.0
H4584 H 0.64498 0.0217 0.58512 0.0
H4585 H 0.65517 0.04826 0.59713 0.0
H4586 H 0.6272 0.00695 0.55906 0.0
H4587 H 0.61986 0.01636 0.61863 0.0
H4588 H 0.60937 0.03075 0.64308 0.0
H4589 H 0.55955 0.02527 0.62272 0.0
H4590 H 0.56973 0.01067 0.59823 0.0
H4591 H 0.63066 0.93045 0.5976 0.0
H4592 H 0.63099 0.95688 0.58338 0.0
H4593 H 0.57731 0.9556 0.58311 0.0
H4594 H 0.5769 0.9292 0.59772 0.0
H4595 H 0.58994 0.98074 0.6005 0.0
H4596 H 0.59859 0.96135 0.54633 0.0
H4597 H 0.61047 0.94451 0.5244 0.0
H4598 H 0.65898 0.96724 0.53536 0.0
H4599 H 0.64745 0.98411 0.55747 0.0
C4600 C 0.61412 0.05627 0.59213 0.0
C4601 C 0.63092 0.05882 0.59721 0.0
C4602 C 0.60837 0.04116 0.58499 0.0
C4603 C 0.61927 0.02829 0.58311 0.0
C4604 C 0.63634 0.03145 0.58651 0.0
C4605 C 0.64214 0.04664 0.59347 0.0
C4606 C 0.61272 0.01091 0.58068 0.0
C4607 C 0.61895 1.00116 0.56799 0.0
C4608 C 0.60162 1.00348 0.5921 0.0
C4609 C 0.59556 0.01264 0.60656 0.0
C4610 C 0.60669 0.01836 0.61933 0.0
C4611 C 0.6008 0.02651 0.63319 0.0
C4612 C 0.58383 0.02901 0.63439 0.0
C4613 C 0.57269 0.02336 0.62175 0.0
C4614 C 0.5785 0.0151 0.6079 0.0
C4615 C 0.61887 0.93545 0.59399 0.0
C4616 C 0.60376 0.92796 0.59922 0.0
C4617 C 0.61908 0.95055 0.58567 0.0
C4618 C 0.60417 0.95833 0.58227 0.0
C4619 C 0.58897 0.94986 0.58567 0.0
C4620 C 0.58876 0.93477 0.59407 0.0
C4621 C 0.60479 0.97645 0.57915 0.0
C4622 C 0.59755 0.98646 0.59098 0.0
C4623 C 0.61509 0.98395 0.56705 0.0
C4624 C 0.62213 0.97399 0.55362 0.0
C4625 C 0.61181 0.96272 0.54413 0.0
C4626 C 0.61848 0.95317 0.53164 0.0
C4627 C 0.63546 0.95479 0.52849 0.0
C4628 C 0.64581 0.96601 0.53778 0.0
C4629 C 0.6392 0.97562 0.55027 0.0
H4630 H 0.6406 0.94733 0.51886 0.0
H4631 H 0.57928 0.03521 0.64519 0.0
H4632 H 0.44064 0.89769 0.93109 0.0
H4633 H 0.46868 0.90047 0.94391 0.0
H4634 H 0.48086 0.85445 0.92068 0.0
H4635 H 0.45308 0.85171 0.90789 0.0
H4636 H 0.49782 0.85935 0.95067 0.0
H4637 H 0.48717 0.88894 0.89906 0.0
H4638 H 0.47296 0.90892 0.88142 0.0
H4639 H 0.48559 0.94783 0.91693 0.0
H4640 H 0.49995 0.92799 0.93478 0.0
H4641 H 0.56743 0.85973 0.90214 0.0
H4642 H 0.54147 0.85928 0.91704 0.0
H4643 H 0.55677 0.9059 0.94081 0.0
H4644 H 0.58316 0.90622 0.92605 0.0
H4645 H 0.52702 0.9062 0.92209 0.0
H4646 H 0.54876 0.87439 0.96565 0.0
H4647 H 0.56461 0.85234 0.97859 0.0
H4648 H 0.53198 0.81518 0.95464 0.0
H4649 H 0.51607 0.83698 0.94134 0.0
C4650 C 0.4491 0.88785 0.92933 0.0
C4651 C 0.44482 0.87456 0.9184 0.0
C4652 C 0.46512 0.88947 0.93659 0.0
C4653 C 0.47691 0.87776 0.93308 0.0
C4654 C 0.47198 0.86361 0.92361 0.0
C4655 C 0.45612 0.86208 0.91624 0.0
C4656 C 0.49494 0.88145 0.93633 0.0
C4657 C 0.50427 0.86971 0.94468 0.0
C4658 C 0.50331 0.89514 0.92874 0.0
C4659 C 0.49439 0.90699 0.91832 0.0
C4660 C 0.48677 0.90174 0.90316 0.0
C4661 C 0.47873 0.91303 0.89311 0.0
C4662 C 0.47828 0.92964 0.89809 0.0
C4663 C 0.48591 0.93496 0.91312 0.0
C4664 C 0.49402 0.92371 0.9232 0.0
C4665 C 0.56548 0.86966 0.91089 0.0
C4666 C 0.57721 0.88307 0.91288 0.0
C4667 C 0.5507 0.86933 0.91952 0.0
C4668 C 0.54724 0.88249 0.93014 0.0
C4669 C 0.5593 0.89554 0.9328 0.0
C4670 C 0.57433 0.89571 0.92438 0.0
C4671 C 0.53 0.88373 0.93584 0.0
C4672 C 0.52073 0.89634 0.92899 0.0
C4673 C 0.52177 0.87061 0.94444 0.0
C4674 C 0.53119 0.85737 0.95249 0.0
C4675 C 0.545 0.86152 0.96307 0.0
C4676 C 0.55399 0.84906 0.97048 0.0
C4677 C 0.5493 0.83237 0.96744 0.0
C4678 C 0.53558 0.82811 0.95701 0.0
C4679 C 0.52654 0.84053 0.94956 0.0
H4680 H 0.55629 0.82274 0.97318 0.0
H4681 H 0.47212 0.9384 0.89026 0.0
H4682 H 0.66047 0.95393 0.42402 0.0
H4683 H 0.65621 0.97874 0.44042 0.0
H4684 H 0.6097 0.95667 0.45723 0.0
H4685 H 0.61415 0.93163 0.44082 0.0
H4686 H 0.60595 0.98216 0.43648 0.0
H4687 H 0.63702 0.97465 0.48576 0.0
H4688 H 0.66071 0.96632 0.50319 0.0
H4689 H 0.69255 1.00367 0.48092 0.0
H4690 H 0.6693 0.01189 0.46288 0.0
H4691 H 0.59959 0.06842 0.4276 0.0
H4692 H 0.59846 0.04341 0.445 0.0
H4693 H 0.64971 0.03547 0.43418 0.0
H4694 H 0.65074 0.06011 0.4169 0.0
H4695 H 0.64286 0.025 0.46513 0.0
H4696 H 0.61949 0.0185 0.40875 0.0
H4697 H 0.60006 0.02257 0.38515 0.0
H4698 H 0.55862 0.00947 0.41579 0.0
H4699 H 0.57787 0.00532 0.4396 0.0
C4700 C 0.64988 0.954 0.43206 0.0
C4701 C 0.63765 0.941 0.43129 0.0
C4702 C 0.64745 0.96817 0.4415 0.0
C4703 C 0.63259 0.96961 0.45005 0.0
C4704 C 0.6213 0.95576 0.45085 0.0
C4705 C 0.62385 0.94147 0.44152 0.0
C4706 C 0.62699 0.98651 0.45331 0.0
C4707 C 0.61357 0.99146 0.44341 0.0
C4708 C 0.63722 0.99867 0.46196 0.0
C4709 C 0.6513 0.99395 0.47297 0.0
C4710 C 0.64908 0.98106 0.48449 0.0
C4711 C 0.66244 0.97635 0.4945 0.0
C4712 C 0.67808 0.98453 0.49326 0.0
C4713 C 0.68041 0.9974 0.48193 0.0
C4714 C 0.66713 1.00209 0.4718 0.0
C4715 C 0.61072 0.06161 0.42954 0.0
C4716 C 0.62525 0.06604 0.42103 0.0
C4717 C 0.61007 0.04735 0.43938 0.0
C4718 C 0.62399 0.03753 0.44082 0.0
C4719 C 0.63887 0.04288 0.4334 0.0
C4720 C 0.63945 0.05691 0.42347 0.0
C4721 C 0.62265 0.02042 0.4474 0.0
C4722 C 0.63467 0.01556 0.45911 0.0
C4723 C 0.61167 0.00819 0.43984 0.0
C4724 C 0.60004 0.01195 0.42601 0.0
C4725 C 0.60621 0.01677 0.41052 0.0
C4726 C 0.59525 0.019 0.39708 0.0
C4727 C 0.57811 0.01635 0.39899 0.0
C4728 C 0.57189 0.01157 0.41436 0.0
C4729 C 0.58282 0.00929 0.42782 0.0
H4730 H 0.56963 0.01789 0.38854 0.0
H4731 H 0.6884 0.98086 0.50103 0.0
H4732 H 0.4528 0.14581 0.89866 0.0
H4733 H 0.48082 0.14522 0.91053 0.0
H4734 H 0.46809 0.09831 0.93356 0.0
H4735 H 0.43976 0.09884 0.92149 0.0
H4736 H 0.49955 0.1418 0.93863 0.0
H4737 H 0.49849 0.07316 0.92317 0.0
H4738 H 0.48111 0.05162 0.90793 0.0
H4739 H 0.46533 0.0881 0.87319 0.0
H4740 H 0.48278 0.10975 0.88809 0.0
H4741 H 0.58714 0.13044 0.92428 0.0
H4742 H 0.55987 0.12486 0.93686 0.0
H4743 H 0.53675 0.1207 0.88799 0.0
H4744 H 0.56346 0.12589 0.87552 0.0
H4745 H 0.52459 0.09681 0.90705 0.0
H4746 H 0.53732 0.15703 0.91145 0.0
H4747 H 0.55397 0.18165 0.92195 0.0
H4748 H 0.54576 0.16629 0.9721 0.0
H4749 H 0.5292 0.14148 0.96185 0.0
C4750 C 0.45579 0.13563 0.90672 0.0
C4751 C 0.44428 0.1222 0.9089 0.0
C4752 C 0.47179 0.13538 0.91364 0.0
C4753 C 0.47664 0.1216 0.92272 0.0
C4754 C 0.46461 0.10902 0.9265 0.0
C4755 C 0.44845 0.10933 0.91962 0.0
C4756 C 0.4947 0.11908 0.9247 0.0
C4757 C 0.50509 0.1317 0.93218 0.0
C4758 C 0.50195 0.10602 0.91611 0.0
C4759 C 0.49174 0.09305 0.90686 0.0
C4760 C 0.49134 0.07653 0.91225 0.0
C4761 C 0.48149 0.06433 0.90367 0.0
C4762 C 0.47208 0.06851 0.88963 0.0
C4763 C 0.47259 0.08489 0.88407 0.0
C4764 C 0.48246 0.09712 0.89257 0.0
C4765 C 0.57621 0.12824 0.91628 0.0
C4766 C 0.57749 0.1287 0.8989 0.0
C4767 C 0.56068 0.12504 0.92347 0.0
C4768 C 0.54628 0.12229 0.91336 0.0
C4769 C 0.54767 0.12257 0.89607 0.0
C4770 C 0.56303 0.1257 0.88894 0.0
C4771 C 0.5294 0.11999 0.92022 0.0
C4772 C 0.51921 0.1064 0.9144 0.0
C4773 C 0.52233 0.13247 0.92978 0.0
C4774 C 0.53225 0.14734 0.93591 0.0
C4775 C 0.53918 0.15886 0.92471 0.0
C4776 C 0.54858 0.17285 0.93061 0.0
C4777 C 0.55098 0.1755 0.94768 0.0
C4778 C 0.54394 0.16419 0.95889 0.0
C4779 C 0.53455 0.15017 0.95304 0.0
H4780 H 0.55825 0.18634 0.95223 0.0
H4781 H 0.46442 0.05905 0.88304 0.0
H4782 H 0.35293 0.94467 0.40474 0.0
H4783 H 0.35117 0.97205 0.41748 0.0
H4784 H 0.40408 0.97401 0.42814 0.0
H4785 H 0.40573 0.94614 0.41583 0.0
H4786 H 0.38759 0.9913 0.45172 0.0
H4787 H 0.39082 0.99006 0.39243 0.0
H4788 H 0.38392 0.98315 0.3631 0.0
H4789 H 0.33445 0.99934 0.369 0.0
H4790 H 0.3411 0.00654 0.39834 0.0
H4791 H 0.408 0.07294 0.41897 0.0
H4792 H 0.40552 0.04512 0.43072 0.0
H4793 H 0.35298 0.05022 0.43678 0.0
H4794 H 0.3555 0.07832 0.42556 0.0
H4795 H 0.36606 0.02925 0.40906 0.0
H4796 H 0.36758 0.03703 0.46748 0.0
H4797 H 0.37837 0.04753 0.49467 0.0
H4798 H 0.42295 0.02133 0.48875 0.0
H4799 H 0.41255 0.01085 0.46138 0.0
C4800 C 0.36408 0.95075 0.4103 0.0
C4801 C 0.37948 0.9435 0.40928 0.0
C4802 C 0.36307 0.96637 0.41753 0.0
C4803 C 0.37754 0.97519 0.42342 0.0
C4804 C 0.39277 0.96739 0.42365 0.0
C4805 C 0.39372 0.95153 0.41664 0.0
C4806 C 0.37705 0.99318 0.42699 0.0
C4807 C 0.38294 0.99966 0.44242 0.0
C4808 C 0.37081 1.00403 0.41488 0.0
C4809 C 0.36637 0.9986 0.39763 0.0
C4810 C 0.37839 0.9919 0.38754 0.0
C4811 C 0.37455 0.988 0.37091 0.0
C4812 C 0.35874 0.99071 0.36424 0.0
C4813 C 0.34669 0.99723 0.37421 0.0
C4814 C 0.35049 1.00125 0.39082 0.0
C4815 C 0.39612 0.06846 0.4237 0.0
C4816 C 0.38189 0.07759 0.42124 0.0
C4817 C 0.39474 0.05264 0.43053 0.0
C4818 C 0.37907 0.04567 0.4346 0.0
C4819 C 0.36521 0.05552 0.43394 0.0
C4820 C 0.36665 0.07153 0.42746 0.0
C4821 C 0.37652 0.02746 0.43377 0.0
C4822 C 0.37025 0.02089 0.41861 0.0
C4823 C 0.38286 0.01679 0.44593 0.0
C4824 C 0.38933 0.02326 0.46228 0.0
C4825 C 0.37977 0.03365 0.47187 0.0
C4826 C 0.3858 0.03955 0.48735 0.0
C4827 C 0.40135 0.03512 0.49343 0.0
C4828 C 0.41091 0.02476 0.48402 0.0
C4829 C 0.40494 0.01881 0.46853 0.0
H4830 H 0.40597 0.03968 0.50543 0.0
H4831 H 0.3559 0.98792 0.3513 0.0
H4832 H 0.08605 0.43952 0.07895 0.0
H4833 H 0.07276 0.46604 0.07631 0.0
H4834 H 0.07372 0.47124 0.12971 0.0
H4835 H 0.08582 0.44418 0.13228 0.0
H4836 H 0.04899 0.48692 0.11829 0.0
H4837 H 0.10745 0.48552 0.10317 0.0
H4838 H 0.13147 0.47799 0.08676 0.0
H4839 H 0.10726 0.49484 0.04236 0.0
H4840 H 0.08309 0.50241 0.05849 0.0
H4841 H 0.09296 0.56194 0.13784 0.0
H4842 H 0.07739 0.53546 0.13327 0.0
H4843 H 0.06332 0.55069 0.08391 0.0
H4844 H 0.07852 0.57755 0.08869 0.0
H4845 H 0.08561 0.52519 0.08601 0.0
H4846 H 0.03306 0.53619 0.10569 0.0
H4847 H 0.01136 0.54608 0.12375 0.0
H4848 H 0.02645 0.51299 0.16211 0.0
H4849 H 0.04847 0.50311 0.14444 0.0
C4850 C 0.08278 0.4461 0.09008 0.0
C4851 C 0.08691 0.43997 0.10581 0.0
C4852 C 0.07534 0.46129 0.08858 0.0
C4853 C 0.07273 0.47093 0.10279 0.0
C4854 C 0.07564 0.46411 0.11854 0.0
C4855 C 0.08256 0.44865 0.12004 0.0
C4856 C 0.0693 0.48881 0.10142 0.0
C4857 C 0.05699 0.49534 0.11127 0.0
C4858 C 0.07929 0.49977 0.09173 0.0
C4859 C 0.09339 0.4943 0.08197 0.0
C4860 C 0.10718 0.48742 0.08987 0.0
C4861 C 0.12083 0.4832 0.08064 0.0
C4862 C 0.12086 0.48592 0.06353 0.0
C4863 C 0.1072 0.49272 0.0556 0.0
C4864 C 0.09353 0.49697 0.06477 0.0
C4865 C 0.08591 0.55992 0.1263 0.0
C4866 C 0.08703 0.57162 0.11354 0.0
C4867 C 0.07687 0.54485 0.12375 0.0
C4868 C 0.06916 0.54111 0.10826 0.0
C4869 C 0.06899 0.55343 0.09602 0.0
C4870 C 0.07773 0.56872 0.09873 0.0
C4871 C 0.066 0.52342 0.10364 0.0
C4872 C 0.07716 0.51683 0.09264 0.0
C4873 C 0.05531 0.51258 0.11267 0.0
C4874 C 0.04253 0.51895 0.1237 0.0
C4875 C 0.03193 0.53116 0.11805 0.0
C4876 C 0.01952 0.53674 0.12822 0.0
C4877 C 0.01753 0.53017 0.14407 0.0
C4878 C 0.02801 0.51808 0.14983 0.0
C4879 C 0.04045 0.51247 0.13972 0.0
H4880 H 0.00787 0.53445 0.15189 0.0
H4881 H 0.1315 0.48289 0.05641 0.0
H4882 H 0.07575 0.57655 0.84493 0.0
H4883 H 0.0622 0.54871 0.8422 0.0
H4884 H 0.07622 0.53845 0.89292 0.0
H4885 H 0.09027 0.56595 0.89548 0.0
H4886 H 0.09033 0.5269 0.85032 0.0
H4887 H 0.0502 0.50723 0.90398 0.0
H4888 H 0.02686 0.51771 0.91958 0.0
H4889 H 0.00743 0.5396 0.87523 0.0
H4890 H 0.03095 0.52968 0.8595 0.0
H4891 H 0.08644 0.44031 0.88797 0.0
H4892 H 0.07467 0.46781 0.8882 0.0
H4893 H 0.07951 0.47056 0.83506 0.0
H4894 H 0.09195 0.44357 0.835 0.0
H4895 H 0.05081 0.48607 0.87597 0.0
H4896 H 0.09715 0.50649 0.82425 0.0
H4897 H 0.12586 0.50254 0.81551 0.0
H4898 H 0.13827 0.48338 0.86351 0.0
H4899 H 0.1096 0.48703 0.87251 0.0
C4900 C 0.07513 0.56867 0.85574 0.0
C4901 C 0.08418 0.57318 0.87034 0.0
C4902 C 0.06731 0.55281 0.8542 0.0
C4903 C 0.0682 0.54155 0.86736 0.0
C4904 C 0.07518 0.54702 0.8827 0.0
C4905 C 0.08333 0.56267 0.88411 0.0
C4906 C 0.06771 0.52357 0.86375 0.0
C4907 C 0.08131 0.51791 0.85531 0.0
C4908 C 0.05659 0.51204 0.87132 0.0
C4909 C 0.04228 0.5177 0.8806 0.0
C4910 C 0.04092 0.51425 0.89757 0.0
C4911 C 0.02774 0.5202 0.90645 0.0
C4912 C 0.01567 0.5293 0.8984 0.0
C4913 C 0.01682 0.53259 0.88146 0.0
C4914 C 0.03014 0.52693 0.87259 0.0
C4915 C 0.08441 0.4466 0.87632 0.0
C4916 C 0.09007 0.43998 0.86147 0.0
C4917 C 0.07773 0.46229 0.87644 0.0
C4918 C 0.07655 0.4714 0.86169 0.0
C4919 C 0.08062 0.46392 0.84664 0.0
C4920 C 0.0876 0.44847 0.84657 0.0
C4921 C 0.0734 0.48937 0.86219 0.0
C4922 C 0.05942 0.49498 0.87029 0.0
C4923 C 0.08465 0.50112 0.85495 0.0
C4924 C 0.10117 0.49682 0.84895 0.0
C4925 C 0.10593 0.50116 0.83284 0.0
C4926 C 0.12219 0.49901 0.82786 0.0
C4927 C 0.13384 0.4927 0.83896 0.0
C4928 C 0.12916 0.48813 0.85491 0.0
C4929 C 0.11289 0.49014 0.85993 0.0
H4930 H 0.14654 0.49155 0.83526 0.0
H4931 H 0.0054 0.53376 0.90527 0.0
H4932 H 0.07741 0.59587 0.40214 0.0
H4933 H 0.04977 0.58219 0.39791 0.0
H4934 H 0.05848 0.57773 0.34553 0.0
H4935 H 0.0861 0.59142 0.34981 0.0
H4936 H 0.03544 0.59975 0.35293 0.0
H4937 H 0.04495 0.54405 0.36498 0.0
H4938 H 0.05572 0.52026 0.38006 0.0
H4939 H 0.02624 0.53152 0.4219 0.0
H4940 H 0.01559 0.55565 0.40726 0.0
H4941 H 0.94287 0.58091 0.35404 0.0
H4942 H 0.97023 0.56863 0.35356 0.0
H4943 H 0.99015 0.60647 0.38768 0.0
H4944 H 0.96318 0.61871 0.38828 0.0
H4945 H 0.99739 0.56011 0.38212 0.0
H4946 H 0.02036 0.62561 0.36417 0.0
H4947 H 0.00952 0.65035 0.35075 0.0
H4948 H 0.97528 0.61933 0.32104 0.0
H4949 H 0.98611 0.59438 0.33408 0.0
C4950 C 0.07382 0.59093 0.38995 0.0
C4951 C 0.0838 0.59448 0.37631 0.0
C4952 C 0.05801 0.58314 0.38751 0.0
C4953 C 0.05204 0.57901 0.37138 0.0
C4954 C 0.06289 0.58071 0.35807 0.0
C4955 C 0.07868 0.58845 0.36053 0.0
C4956 C 0.03383 0.57779 0.36803 0.0
C4957 C 0.02715 0.59076 0.35895 0.0
C4958 C 0.02301 0.56616 0.37598 0.0
C4959 C 0.0295 0.55175 0.385 0.0
C4960 C 0.04087 0.54158 0.37746 0.0
C4961 C 0.04694 0.52799 0.38592 0.0
C4962 C 0.04164 0.52435 0.40191 0.0
C4963 C 0.03031 0.53433 0.40949 0.0
C4964 C 0.02424 0.54797 0.40111 0.0
C4965 C 0.95298 0.58629 0.36179 0.0
C4966 C 0.95099 0.60094 0.37096 0.0
C4967 C 0.96854 0.57924 0.36154 0.0
C4968 C 0.98214 0.58676 0.37049 0.0
C4969 C 0.97977 0.60054 0.38067 0.0
C4970 C 0.96437 0.60758 0.38089 0.0
C4971 C 0.99936 0.58226 0.36747 0.0
C4972 C 0.00578 0.56854 0.37555 0.0
C4973 C 0.0101 0.59322 0.35865 0.0
C4974 C 1.00396 0.60812 0.35021 0.0
C4975 C 0.0106 0.62405 0.35469 0.0
C4976 C 0.00445 0.63812 0.34716 0.0
C4977 C 0.9917 0.63641 0.33507 0.0
C4978 C 0.98512 0.62063 0.33044 0.0
C4979 C 0.99125 0.60652 0.33791 0.0
H4980 H 0.98693 0.64732 0.32928 0.0
H4981 H 0.04632 0.5138 0.40842 0.0
H4982 H 0.94372 0.58389 0.88125 0.0
H4983 H 0.96135 0.56059 0.87516 0.0
H4984 H 0.92401 0.52638 0.89474 0.0
H4985 H 0.90646 0.54926 0.90062 0.0
H4986 H 0.97183 0.52896 0.89664 0.0
H4987 H 0.91318 0.50248 0.86191 0.0
H4988 H 0.88904 0.51242 0.84622 0.0
H4989 H 0.9182 0.5556 0.83138 0.0
H4990 H 0.94267 0.54574 0.84672 0.0
H4991 H 0.93659 0.45256 0.90447 0.0
H4992 H 0.9516 0.47933 0.90234 0.0
H4993 H 0.96213 0.46862 0.85125 0.0
H4994 H 0.9472 0.44144 0.85353 0.0
H4995 H 0.94166 0.49318 0.85418 0.0
H4996 H 0.99516 0.48594 0.8755 0.0
H4997 H 0.01672 0.47391 0.89329 0.0
H4998 H 0.99607 0.49571 0.93637 0.0
H4999 H 0.97433 0.50782 0.91888 0.0
C5000 C 0.93955 0.57142 0.88464 0.0
C5001 C 0.92366 0.56829 0.8912 0.0
C5002 C 0.94961 0.55818 0.88117 0.0
C5003 C 0.94385 0.54183 0.88438 0.0
C5004 C 0.92859 0.53893 0.89211 0.0
C5005 C 0.91856 0.552 0.89539 0.0
C5006 C 0.95221 0.52735 0.87794 0.0
C5007 C 0.9656 0.52121 0.88708 0.0
C5008 C 0.94431 0.5175 0.86514 0.0
C5009 C 0.92981 0.52333 0.85542 0.0
C5010 C 0.91453 0.514 0.85514 0.0
C5011 C 0.90076 0.51964 0.84635 0.0
C5012 C 0.9021 0.5346 0.83777 0.0
C5013 C 0.9172 0.54399 0.83801 0.0
C5014 C 0.93103 0.53838 0.84676 0.0
C5015 C 0.94284 0.45558 0.89305 0.0
C5016 C 0.94063 0.44513 0.87911 0.0
C5017 C 0.95159 0.47085 0.89186 0.0
C5018 C 0.95802 0.47605 0.87661 0.0
C5019 C 0.95741 0.4648 0.86316 0.0
C5020 C 0.94885 0.44931 0.86446 0.0
C5021 C 0.96035 0.49416 0.87384 0.0
C5022 C 0.94877 0.50112 0.86301 0.0
C5023 C 0.96979 0.50458 0.88516 0.0
C5024 C 0.9831 0.49781 0.89584 0.0
C5025 C 0.99518 0.48814 0.88878 0.0
C5026 C 0.00743 0.48128 0.89881 0.0
C5027 C 0.0077 0.48395 0.91596 0.0
C5028 C 0.99581 0.49361 0.92309 0.0
C5029 C 0.98357 0.50056 0.9131 0.0
H5030 H 0.01719 0.47863 0.92372 0.0
H5031 H 0.89144 0.53889 0.83092 0.0
H5032 H 0.06879 0.4187 0.35762 0.0
H5033 H 0.04067 0.42732 0.36321 0.0
H5034 H 0.04767 0.41495 0.41484 0.0
H5035 H 0.07544 0.40595 0.40918 0.0
H5036 H 0.02345 0.39659 0.4006 0.0
H5037 H 0.03845 0.45456 0.40314 0.0
H5038 H 0.05099 0.48136 0.39393 0.0
H5039 H 0.01945 0.47907 0.3501 0.0
H5040 H 0.00684 0.45217 0.35893 0.0
H5041 H 0.93989 0.40186 0.41818 0.0
H5042 H 0.96897 0.41266 0.41939 0.0
H5043 H 0.96794 0.41791 0.36615 0.0
H5044 H 0.93892 0.40691 0.36496 0.0
H5045 H 0.989 0.44325 0.38409 0.0
H5046 H 0.98 0.38368 0.37763 0.0
H5047 H 0.96955 0.35525 0.3841 0.0
H5048 H 0.9911 0.36009 0.43327 0.0
H5049 H 1.00174 0.38858 0.42709 0.0
C5050 C 0.06449 0.41843 0.37024 0.0
C5051 C 0.07403 0.41142 0.38293 0.0
C5052 C 0.04848 0.42344 0.37346 0.0
C5053 C 0.04205 0.42171 0.38945 0.0
C5054 C 0.05237 0.41636 0.40242 0.0
C5055 C 0.06817 0.41113 0.39917 0.0
C5056 C 0.02388 0.42181 0.39187 0.0
C5057 C 0.01603 0.40704 0.39746 0.0
C5058 C 0.0141 0.43515 0.38709 0.0
C5059 C 0.02178 0.45126 0.38165 0.0
C5060 C 0.03429 0.45969 0.39146 0.0
C5061 C 0.04139 0.47493 0.38633 0.0
C5062 C 0.03605 0.48189 0.37142 0.0
C5063 C 0.02358 0.47365 0.36164 0.0
C5064 C 0.01643 0.45842 0.36672 0.0
C5065 C 0.94571 0.40601 0.40687 0.0
C5066 C 0.9373 0.40383 0.3915 0.0
C5067 C 0.96227 0.41211 0.40754 0.0
C5068 C 0.97055 0.41604 0.39285 0.0
C5069 C 0.96169 0.41511 0.37762 0.0
C5070 C 0.94518 0.40886 0.37694 0.0
C5071 C 0.98889 0.41817 0.39302 0.0
C5072 C 0.99663 0.43312 0.38771 0.0
C5073 C 0.99874 0.40497 0.39786 0.0
C5074 C 0.99144 0.38831 0.40199 0.0
C5075 C 0.98231 0.37876 0.3899 0.0
C5076 C 0.97648 0.3626 0.39345 0.0
C5077 C 0.97968 0.35586 0.40905 0.0
C5078 C 0.98865 0.36532 0.42118 0.0
C5079 C 0.99461 0.38146 0.41766 0.0
H5080 H 0.97518 0.34332 0.41174 0.0
H5081 H 0.04157 0.49366 0.36744 0.0
H5082 H 0.93104 0.42663 0.12351 0.0
H5083 H 0.94501 0.454 0.11915 0.0
H5084 H 0.93041 0.46977 0.1676 0.0
H5085 H 0.91641 0.44272 0.17194 0.0
H5086 H 0.91587 0.48045 0.12848 0.0
H5087 H 0.9613 0.47535 0.17161 0.0
H5088 H 0.98788 0.46451 0.18134 0.0
H5089 H 0.01153 0.48289 0.13751 0.0
H5090 H 0.98497 0.49358 0.12739 0.0
H5091 H 0.91199 0.55589 0.16214 0.0
H5092 H 0.92414 0.52889 0.16114 0.0
H5093 H 0.94906 0.54261 0.1162 0.0
H5094 H 0.93695 0.57001 0.11722 0.0
H5095 H 0.96508 0.5171 0.14501 0.0
H5096 H 0.92094 0.52552 0.10358 0.0
H5097 H 0.89466 0.53733 0.09435 0.0
H5098 H 0.86909 0.51254 0.13394 0.0
H5099 H 0.89532 0.5008 0.14358 0.0
C5100 C 0.93159 0.43567 0.13355 0.0
C5101 C 0.92256 0.43268 0.14801 0.0
C5102 C 0.93963 0.45126 0.13107 0.0
C5103 C 0.939 0.46379 0.14318 0.0
C5104 C 0.93144 0.46014 0.15829 0.0
C5105 C 0.92328 0.44473 0.16069 0.0
C5106 C 0.94098 0.4814 0.13851 0.0
C5107 C 0.92678 0.48841 0.13176 0.0
C5108 C 0.95529 0.49171 0.14256 0.0
C5109 C 0.97104 0.48489 0.14856 0.0
C5110 C 0.97206 0.47677 0.16388 0.0
C5111 C 0.98716 0.47075 0.16952 0.0
C5112 C 1.00137 0.47292 0.16 0.0
C5113 C 1.00051 0.48114 0.14484 0.0
C5114 C 0.98543 0.48717 0.13915 0.0
C5115 C 0.92056 0.55341 0.15238 0.0
C5116 C 0.9234 0.56489 0.13965 0.0
C5117 C 0.92757 0.53803 0.15188 0.0
C5118 C 0.93738 0.53379 0.13855 0.0
C5119 C 0.94161 0.54578 0.12664 0.0
C5120 C 0.93467 0.56136 0.12723 0.0
C5121 C 0.93976 0.51602 0.13557 0.0
C5122 C 0.95452 0.50902 0.14099 0.0
C5123 C 0.92597 0.50558 0.13024 0.0
C5124 C 0.91012 0.5124 0.12436 0.0
C5125 C 0.90974 0.52272 0.1104 0.0
C5126 C 0.89485 0.52941 0.10511 0.0
C5127 C 0.88022 0.52579 0.11362 0.0
C5128 C 0.88045 0.5154 0.1274 0.0
C5129 C 0.89532 0.5087 0.13277 0.0
H5130 H 0.8687 0.53098 0.10952 0.0
H5131 H 0.01306 0.46829 0.16441 0.0
H5132 H 0.95741 0.39371 0.61819 0.0
H5133 H 0.98336 0.41042 0.61927 0.0
H5134 H 0.96218 0.44511 0.6526 0.0
H5135 H 0.93579 0.42822 0.65176 0.0
H5136 H 0.98806 0.4532 0.61747 0.0
H5137 H 0.9828 0.43545 0.6753 0.0
H5138 H 0.97286 0.41499 0.6959 0.0
H5139 H 1.0009 0.37762 0.67296 0.0
H5140 H 0.01075 0.39778 0.65208 0.0
H5141 H 0.08074 0.4309 0.64313 0.0
H5142 H 0.05597 0.44614 0.64932 0.0
H5143 H 0.03239 0.42773 0.60362 0.0
H5144 H 0.0569 0.41246 0.59765 0.0
H5145 H 0.02878 0.42643 0.65439 0.0
H5146 H 1.00124 0.45041 0.59111 0.0
H5147 H 0.01085 0.46769 0.56788 0.0
H5148 H 0.04965 0.49056 0.59914 0.0
H5149 H 0.04005 0.47375 0.62274 0.0
C5150 C 0.95806 0.40496 0.62564 0.0
C5151 C 0.94454 0.40949 0.63507 0.0
C5152 C 0.97291 0.41456 0.62614 0.0
C5153 C 0.97462 0.4289 0.63604 0.0
C5154 C 0.961 0.43405 0.64487 0.0
C5155 C 0.94599 0.42438 0.64439 0.0
C5156 C 0.99141 0.43698 0.63815 0.0
C5157 C 0.99708 0.44784 0.62578 0.0
C5158 C 1.00296 0.43015 0.64929 0.0
C5159 C 0.99747 0.41812 0.66213 0.0
C5160 C 0.98678 0.42285 0.67463 0.0
C5161 C 0.98116 0.4113 0.68634 0.0
C5162 C 0.98623 0.39501 0.68573 0.0
C5163 C 0.99698 0.39024 0.67343 0.0
C5164 C 1.0026 0.40173 0.66167 0.0
C5165 C 0.07058 0.43093 0.63403 0.0
C5166 C 0.07062 0.4207 0.61988 0.0
C5167 C 0.05644 0.43956 0.63759 0.0
C5168 C 0.04234 0.43815 0.62692 0.0
C5169 C 0.04319 0.42932 0.61189 0.0
C5170 C 0.05718 0.42054 0.60847 0.0
C5171 C 0.02569 0.44192 0.63295 0.0
C5172 C 0.02 0.43292 0.64671 0.0
C5173 C 0.01421 0.45038 0.62294 0.0
C5174 C 0.01984 0.4608 0.6088 0.0
C5175 C 0.01168 0.45927 0.59315 0.0
C5176 C 0.01716 0.46897 0.57988 0.0
C5177 C 0.03083 0.48024 0.58204 0.0
C5178 C 0.03905 0.48184 0.59749 0.0
C5179 C 0.03358 0.47222 0.61083 0.0
H5180 H 0.03507 0.48772 0.57174 0.0
H5181 H 0.98183 0.38608 0.69478 0.0
H5182 H 0.05704 0.58072 0.67267 0.0
H5183 H 0.03023 0.56791 0.66343 0.0
H5184 H 0.04607 0.56914 0.61281 0.0
H5185 H 0.07293 0.58175 0.62187 0.0
H5186 H 0.02337 0.59588 0.63143 0.0
H5187 H 0.03189 0.53902 0.61613 0.0
H5188 H 0.03875 0.51018 0.62168 0.0
H5189 H 0.99762 0.50456 0.65436 0.0
H5190 H 0.99083 0.5336 0.64947 0.0
H5191 H 0.9502 0.60622 0.59053 0.0
H5192 H 0.97657 0.59297 0.59478 0.0
H5193 H 0.95677 0.56716 0.6372 0.0
H5194 H 0.93001 0.57992 0.63246 0.0
H5195 H 0.98112 0.54943 0.62276 0.0
H5196 H 0.97539 0.60434 0.64377 0.0
H5197 H 0.97031 0.63421 0.64487 0.0
H5198 H 0.00627 0.64377 0.60732 0.0
H5199 H 0.01165 0.61395 0.60601 0.0
C5200 C 0.0552 0.57743 0.65968 0.0
C5201 C 0.06684 0.58281 0.64791 0.0
C5202 C 0.03989 0.5699 0.65443 0.0
C5203 C 0.03615 0.56767 0.63744 0.0
C5204 C 0.04877 0.5706 0.626 0.0
C5205 C 0.06406 0.57806 0.6312 0.0
C5206 C 0.01883 0.56938 0.6316 0.0
C5207 C 0.01421 0.58568 0.6292 0.0
C5208 C 0.00682 0.55606 0.62958 0.0
C5209 C 0.011 0.53862 0.63261 0.0
C5210 C 0.02446 0.53176 0.62472 0.0
C5211 C 0.0283 0.51532 0.62769 0.0
C5212 C 0.01863 0.50552 0.63836 0.0
C5213 C 0.00512 0.51216 0.64611 0.0
C5214 C 1.00129 0.52863 0.64326 0.0
C5215 C 0.95126 0.59712 0.60027 0.0
C5216 C 0.93822 0.59405 0.6112 0.0
C5217 C 0.96632 0.58963 0.60276 0.0
C5218 C 0.96874 0.57943 0.61656 0.0
C5219 C 0.95516 0.57502 0.6265 0.0
C5220 C 0.9399 0.58227 0.62378 0.0
C5221 C 0.9859 0.57597 0.6221 0.0
C5222 C 0.9904 0.55954 0.62471 0.0
C5223 C 0.99792 0.58919 0.62487 0.0
C5224 C 0.99376 0.60689 0.62464 0.0
C5225 C 0.98203 0.61277 0.63557 0.0
C5226 C 0.97918 0.6297 0.63632 0.0
C5227 C 0.98795 0.64086 0.6262 0.0
C5228 C 0.9995 0.63511 0.61518 0.0
C5229 C 1.00248 0.61821 0.61443 0.0
H5230 H 0.98578 0.65397 0.6269 0.0
H5231 H 0.02159 0.49279 0.64061 0.0
H5232 H 0.93414 0.12308 0.42057 0.0
H5233 H 0.96396 0.124 0.41622 0.0
H5234 H 0.9557 0.09816 0.36951 0.0
H5235 H 0.92541 0.09722 0.37374 0.0
H5236 H 0.98332 0.08652 0.39034 0.0
H5237 H 0.96454 0.13722 0.36737 0.0
H5238 H 0.94871 0.16258 0.36779 0.0
H5239 H 0.97713 0.1804 0.41072 0.0
H5240 H 0.99297 0.15503 0.41071 0.0
H5241 H 0.0706 0.10477 0.3751 0.0
H5242 H 0.04019 0.10088 0.37163 0.0
H5243 H 0.03408 0.13566 0.41166 0.0
H5244 H 0.06401 0.13999 0.41477 0.0
H5245 H 0.01293 0.14196 0.38901 0.0
H5246 H 0.02885 0.09123 0.41499 0.0
H5247 H 0.04388 0.06544 0.41727 0.0
H5248 H 0.02074 0.04743 0.37153 0.0
H5249 H 0.00573 0.07323 0.36888 0.0
C5250 C 0.93854 0.11748 0.40935 0.0
C5251 C 0.92725 0.11008 0.39748 0.0
C5252 C 0.95569 0.11806 0.40689 0.0
C5253 C 0.96215 0.11124 0.39251 0.0
C5254 C 0.95102 0.1035 0.38072 0.0
C5255 C 0.93371 0.10303 0.38312 0.0
C5256 C 0.9805 0.11288 0.38983 0.0
C5257 C 0.9898 0.09862 0.38968 0.0
C5258 C 0.98904 0.12866 0.38934 0.0
C5259 C 0.97989 0.14417 0.38908 0.0
C5260 C 0.96737 0.14652 0.37694 0.0
C5261 C 0.9584 0.16089 0.37711 0.0
C5262 C 0.9619 0.17308 0.38929 0.0
C5263 C 0.97444 0.17095 0.40129 0.0
C5264 C 0.98344 0.15658 0.40119 0.0
C5265 C 0.06276 0.11161 0.38312 0.0
C5266 C 0.06992 0.12274 0.39518 0.0
C5267 C 0.04532 0.10931 0.38119 0.0
C5268 C 0.03464 0.11788 0.39146 0.0
C5269 C 0.04186 0.12894 0.40346 0.0
C5270 C 0.05914 0.13137 0.40525 0.0
C5271 C 0.01599 0.11559 0.38999 0.0
C5272 C 0.00655 0.12979 0.38937 0.0
C5273 C 0.00739 0.09976 0.39003 0.0
C5274 C 0.01634 0.08423 0.39164 0.0
C5275 C 0.02707 0.08182 0.40536 0.0
C5276 C 0.03557 0.06719 0.40673 0.0
C5277 C 0.03331 0.05483 0.39452 0.0
C5278 C 0.02251 0.05704 0.38095 0.0
C5279 C 0.014 0.07166 0.37952 0.0
H5280 H 0.03991 0.04351 0.3956 0.0
H5281 H 0.95491 0.18418 0.38943 0.0
H5282 H 0.36157 0.43397 0.8541 0.0
H5283 H 0.36121 0.46411 0.85005 0.0
H5284 H 0.38984 0.47218 0.89571 0.0
H5285 H 0.38936 0.44232 0.90015 0.0
H5286 H 0.36778 0.49201 0.89656 0.0
H5287 H 0.40514 0.47939 0.85373 0.0
H5288 H 0.41469 0.46517 0.82879 0.0
H5289 H 0.37414 0.48377 0.80003 0.0
H5290 H 0.36423 0.49793 0.82486 0.0
H5291 H 0.38993 0.57925 0.85781 0.0
H5292 H 0.39312 0.54907 0.85743 0.0
H5293 H 0.34473 0.54142 0.87867 0.0
H5294 H 0.34181 0.57129 0.87967 0.0
H5295 H 0.37857 0.52195 0.84412 0.0
H5296 H 0.34254 0.51112 0.90473 0.0
H5297 H 0.33736 0.52615 0.93073 0.0
H5298 H 0.3834 0.55489 0.92605 0.0
H5299 H 0.38879 0.54011 0.90002 0.0
C5300 C 0.368 0.44221 0.86311 0.0
C5301 C 0.37548 0.43571 0.87745 0.0
C5302 C 0.36784 0.45951 0.86078 0.0
C5303 C 0.37555 0.47071 0.87253 0.0
C5304 C 0.3836 0.46405 0.88649 0.0
C5305 C 0.38343 0.44688 0.88898 0.0
C5306 C 0.37455 0.48926 0.871 0.0
C5307 C 0.37019 0.49843 0.88503 0.0
C5308 C 0.37792 0.49804 0.85614 0.0
C5309 C 0.38386 0.48958 0.84119 0.0
C5310 C 0.3982 0.48035 0.84211 0.0
C5311 C 0.40368 0.47232 0.828 0.0
C5312 C 0.395 0.47353 0.81285 0.0
C5313 C 0.38084 0.48282 0.81178 0.0
C5314 C 0.37529 0.49086 0.82586 0.0
C5315 C 0.37994 0.5711 0.86229 0.0
C5316 C 0.36569 0.57777 0.86894 0.0
C5317 C 0.38176 0.5538 0.86205 0.0
C5318 C 0.36934 0.5428 0.86837 0.0
C5319 C 0.35476 0.5495 0.87416 0.0
C5320 C 0.35306 0.56668 0.87464 0.0
C5321 C 0.3717 0.52446 0.86962 0.0
C5322 C 0.37623 0.5154 0.85559 0.0
C5323 C 0.3691 0.51578 0.88464 0.0
C5324 C 0.36598 0.5246 0.90037 0.0
C5325 C 0.35156 0.52063 0.90928 0.0
C5326 C 0.34856 0.52915 0.92399 0.0
C5327 C 0.35999 0.54154 0.92999 0.0
C5328 C 0.37447 0.5454 0.92133 0.0
C5329 C 0.37748 0.53699 0.90657 0.0
H5330 H 0.35765 0.54812 0.94138 0.0
H5331 H 0.39927 0.4673 0.80193 0.0
H5332 H 0.07682 0.88874 0.4264 0.0
H5333 H 0.0468 0.8893 0.42194 0.0
H5334 H 0.05419 0.91342 0.37496 0.0
H5335 H 0.08448 0.9127 0.37927 0.0
H5336 H 0.02512 0.9125 0.41859 0.0
H5337 H 0.02229 0.90028 0.34793 0.0
H5338 H 0.03875 0.88731 0.32642 0.0
H5339 H 0.0595 0.85524 0.3629 0.0
H5340 H 0.04299 0.86786 0.38456 0.0
H5341 H 0.93975 0.91616 0.39271 0.0
H5342 H 0.97009 0.92143 0.39216 0.0
H5343 H 0.97633 0.86895 0.38643 0.0
H5344 H 0.94625 0.86365 0.38687 0.0
H5345 H 0.99848 0.88613 0.36812 0.0
H5346 H 0.97912 0.88761 0.42414 0.0
H5347 H 0.96213 0.89795 0.44671 0.0
H5348 H 0.9855 0.94665 0.44201 0.0
H5349 H 1.00238 0.93673 0.41919 0.0
C5350 C 0.07215 0.89427 0.41512 0.0
C5351 C 0.08319 0.90065 0.40318 0.0
C5352 C 0.05488 0.89464 0.41262 0.0
C5353 C 0.04806 0.90131 0.39807 0.0
C5354 C 0.05904 0.90802 0.38623 0.0
C5355 C 0.0764 0.90765 0.38873 0.0
C5356 C 0.02952 0.90058 0.3952 0.0
C5357 C 0.01935 0.90688 0.40746 0.0
C5358 C 0.02178 0.89302 0.38084 0.0
C5359 C 0.03156 0.88516 0.36788 0.0
C5360 C 0.03033 0.89043 0.35133 0.0
C5361 C 0.03967 0.88314 0.33912 0.0
C5362 C 0.05021 0.8705 0.34331 0.0
C5363 C 0.05138 0.86507 0.35969 0.0
C5364 C 0.04204 0.87229 0.37194 0.0
C5365 C 0.94756 0.9058 0.3909 0.0
C5366 C 0.94051 0.88947 0.38987 0.0
C5367 C 0.96494 0.90881 0.39073 0.0
C5368 C 0.9756 0.89556 0.38947 0.0
C5369 C 0.96847 0.8794 0.38743 0.0
C5370 C 0.95121 0.87639 0.38771 0.0
C5371 C 0.99413 0.89817 0.39142 0.0
C5372 C 0.00429 0.89209 0.37906 0.0
C5373 C 1.00182 0.90559 0.40587 0.0
C5374 C 0.9919 0.91147 0.41982 0.0
C5375 C 0.98056 0.90055 0.42784 0.0
C5376 C 0.97095 0.90632 0.44068 0.0
C5377 C 0.97272 0.92292 0.44576 0.0
C5378 C 0.98413 0.93379 0.43804 0.0
C5379 C 0.99371 0.92811 0.42515 0.0
H5380 H 0.96526 0.92735 0.45569 0.0
H5381 H 0.05745 0.86489 0.33384 0.0
H5382 H 0.67651 0.43454 0.89956 0.0
H5383 H 0.67247 0.46423 0.89763 0.0
H5384 H 0.6342 0.45474 0.85982 0.0
H5385 H 0.63812 0.42482 0.86176 0.0
H5386 H 0.67588 0.48682 0.87383 0.0
H5387 H 0.60456 0.48397 0.86421 0.0
H5388 H 0.58019 0.46533 0.87017 0.0
H5389 H 0.60651 0.44563 0.91201 0.0
H5390 H 0.63093 0.46431 0.90643 0.0
H5391 H 0.65112 0.57017 0.86051 0.0
H5392 H 0.65248 0.54002 0.85622 0.0
H5393 H 0.63451 0.53153 0.9055 0.0
H5394 H 0.63326 0.56137 0.90987 0.0
H5395 H 0.6204 0.50851 0.88365 0.0
H5396 H 0.67508 0.53163 0.89887 0.0
H5397 H 0.69987 0.55052 0.8958 0.0
H5398 H 0.70779 0.52973 0.84762 0.0
H5399 H 0.68286 0.51088 0.8503 0.0
C5400 C 0.66726 0.4387 0.89074 0.0
C5401 C 0.65762 0.42716 0.88084 0.0
C5402 C 0.66501 0.45578 0.88962 0.0
C5403 C 0.65296 0.46189 0.87866 0.0
C5404 C 0.64348 0.45043 0.86852 0.0
C5405 C 0.64577 0.43328 0.8696 0.0
C5406 C 0.65012 0.48015 0.87832 0.0
C5407 C 0.66369 0.4915 0.8758 0.0
C5408 C 0.63431 0.48649 0.88113 0.0
C5409 C 0.61962 0.47539 0.88476 0.0
C5410 C 0.60511 0.47569 0.87471 0.0
C5411 C 0.5913 0.46512 0.87802 0.0
C5412 C 0.59183 0.45426 0.89142 0.0
C5413 C 0.60614 0.454 0.90159 0.0
C5414 C 0.61997 0.46457 0.89835 0.0
C5415 C 0.64718 0.56185 0.8703 0.0
C5416 C 0.64215 0.56827 0.88556 0.0
C5417 C 0.64805 0.5446 0.86788 0.0
C5418 C 0.64372 0.53339 0.88059 0.0
C5419 C 0.63792 0.5398 0.89548 0.0
C5420 C 0.63726 0.55695 0.89797 0.0
C5421 C 0.6461 0.51513 0.87898 0.0
C5422 C 0.6325 0.50379 0.88128 0.0
C5423 C 0.66193 0.50881 0.87626 0.0
C5424 C 0.677 0.51999 0.8747 0.0
C5425 C 0.68203 0.53118 0.88756 0.0
C5426 C 0.69612 0.54186 0.88591 0.0
C5427 C 0.70537 0.54136 0.8715 0.0
C5428 C 0.70059 0.53013 0.85875 0.0
C5429 C 0.68648 0.51944 0.86034 0.0
H5430 H 0.71628 0.54964 0.87024 0.0
H5431 H 0.58113 0.44607 0.89395 0.0
H5432 H 0.93953 0.8696 0.60446 0.0
H5433 H 0.96943 0.86916 0.60887 0.0
H5434 H 0.96408 0.87883 0.66104 0.0
H5435 H 0.93365 0.87922 0.65679 0.0
H5436 H 0.99242 0.89742 0.64485 0.0
H5437 H 0.96992 0.84155 0.65168 0.0
H5438 H 0.95172 0.81719 0.64339 0.0
H5439 H 0.97747 0.8134 0.59765 0.0
H5440 H 0.99564 0.83792 0.60554 0.0
H5441 H 0.0783 0.87703 0.6567 0.0
H5442 H 0.04823 0.87947 0.65989 0.0
H5443 H 0.03901 0.85715 0.61148 0.0
H5444 H 0.06869 0.85418 0.60854 0.0
H5445 H 0.01738 0.8444 0.63052 0.0
H5446 H 0.03713 0.90079 0.62076 0.0
H5447 H 0.05426 0.9266 0.62622 0.0
H5448 H 0.03347 0.9306 0.67452 0.0
H5449 H 0.01637 0.90468 0.66942 0.0
C5450 C 0.94454 0.87178 0.61693 0.0
C5451 C 0.93395 0.87434 0.6303 0.0
C5452 C 0.96177 0.87152 0.6194 0.0
C5453 C 0.96907 0.87381 0.63529 0.0
C5454 C 0.95874 0.87702 0.64865 0.0
C5455 C 0.94132 0.87719 0.6462 0.0
C5456 C 0.98737 0.87188 0.6377 0.0
C5457 C 0.9979 0.88575 0.64209 0.0
C5458 C 0.99459 0.85677 0.63368 0.0
C5459 C 0.9841 0.84163 0.62918 0.0
C5460 C 0.97167 0.83556 0.63983 0.0
C5461 C 0.96135 0.82173 0.6352 0.0
C5462 C 0.96342 0.81377 0.61999 0.0
C5463 C 0.97588 0.81958 0.60942 0.0
C5464 C 0.98621 0.83343 0.61398 0.0
C5465 C 0.06983 0.87266 0.64676 0.0
C5466 C 0.07599 0.86536 0.6324 0.0
C5467 C 0.0526 0.87413 0.64854 0.0
C5468 C 0.04114 0.86862 0.63587 0.0
C5469 C 0.04739 0.86143 0.62154 0.0
C5470 C 0.06449 0.85977 0.61985 0.0
C5471 C 0.02267 0.87007 0.63733 0.0
C5472 C 0.01203 0.85606 0.6336 0.0
C5473 C 0.0154 0.88512 0.64171 0.0
C5474 C 0.02563 0.9007 0.64479 0.0
C5475 C 0.03631 0.90711 0.63259 0.0
C5476 C 0.04599 0.92176 0.63562 0.0
C5477 C 0.04499 0.9302 0.65073 0.0
C5478 C 0.03426 0.92403 0.66284 0.0
C5479 C 0.02457 0.90936 0.65988 0.0
H5480 H 0.0525 0.94155 0.65305 0.0
H5481 H 0.95539 0.80309 0.61641 0.0
H5482 H 0.59855 0.42937 0.13046 0.0
H5483 H 0.59866 0.45978 0.13395 0.0
H5484 H 0.63572 0.46566 0.09652 0.0
H5485 H 0.63541 0.43564 0.09274 0.0
H5486 H 0.6433 0.48487 0.12562 0.0
H5487 H 0.59726 0.47305 0.0866 0.0
H5488 H 0.57026 0.45959 0.07765 0.0
H5489 H 0.5467 0.48206 0.11872 0.0
H5490 H 0.57363 0.49547 0.12806 0.0
H5491 H 0.64769 0.56693 0.09932 0.0
H5492 H 0.64389 0.53711 0.102 0.0
H5493 H 0.60087 0.54318 0.13178 0.0
H5494 H 0.60429 0.5735 0.12864 0.0
H5495 H 0.59465 0.51775 0.11124 0.0
H5496 H 0.63933 0.53186 0.14908 0.0
H5497 H 0.66603 0.5453 0.15895 0.0
H5498 H 0.69188 0.51833 0.1224 0.0
H5499 H 0.66531 0.5049 0.11214 0.0
C5500 C 0.60669 0.43716 0.12297 0.0
C5501 C 0.61692 0.42997 0.11128 0.0
C5502 C 0.60672 0.45456 0.12495 0.0
C5503 C 0.6172 0.4651 0.11548 0.0
C5504 C 0.62754 0.45788 0.104 0.0
C5505 C 0.62729 0.44063 0.10181 0.0
C5506 C 0.61764 0.48365 0.11739 0.0
C5507 C 0.63268 0.49205 0.1224 0.0
C5508 C 0.60366 0.4931 0.11377 0.0
C5509 C 0.58749 0.48508 0.10815 0.0
C5510 C 0.58635 0.47499 0.09382 0.0
C5511 C 0.57105 0.4674 0.08865 0.0
C5512 C 0.55678 0.46992 0.09764 0.0
C5513 C 0.55777 0.48009 0.11179 0.0
C5514 C 0.57304 0.48769 0.11702 0.0
C5515 C 0.63743 0.5621 0.10658 0.0
C5516 C 0.62639 0.57287 0.11389 0.0
C5517 C 0.63531 0.54487 0.10817 0.0
C5518 C 0.6223 0.53767 0.11741 0.0
C5519 C 0.61111 0.54831 0.12467 0.0
C5520 C 0.61313 0.5657 0.12293 0.0
C5521 C 0.62049 0.51908 0.1191 0.0
C5522 C 0.60523 0.51063 0.11474 0.0
C5523 C 0.63423 0.50952 0.12355 0.0
C5524 C 0.65029 0.51744 0.12978 0.0
C5525 C 0.6507 0.52886 0.14308 0.0
C5526 C 0.66581 0.53647 0.14875 0.0
C5527 C 0.68064 0.53269 0.14129 0.0
C5528 C 0.68039 0.52125 0.12817 0.0
C5529 C 0.6653 0.51361 0.12243 0.0
H5530 H 0.69233 0.53861 0.14569 0.0
H5531 H 0.54495 0.46404 0.09362 0.0
H5532 H 0.92078 0.11203 0.65044 0.0
H5533 H 0.951 0.10936 0.6538 0.0
H5534 H 0.9597 0.1518 0.62244 0.0
H5535 H 0.9298 0.15454 0.61905 0.0
H5536 H 0.97483 0.1037 0.63129 0.0
H5537 H 0.99471 0.17385 0.63545 0.0
H5538 H 0.98382 0.19982 0.64602 0.0
H5539 H 0.95428 0.1722 0.68093 0.0
H5540 H 0.96517 0.1461 0.67075 0.0
H5541 H 0.0575 0.12055 0.60703 0.0
H5542 H 0.02772 0.12002 0.61134 0.0
H5543 H 0.03673 0.13278 0.66293 0.0
H5544 H 0.06691 0.13339 0.65871 0.0
H5545 H 0.01274 0.15132 0.64928 0.0
H5546 H 0.02241 0.09368 0.6518 0.0
H5547 H 0.03337 0.06724 0.64263 0.0
H5548 H 1.00386 0.06867 0.59755 0.0
H5549 H 0.9929 0.09524 0.60635 0.0
C5550 C 0.92914 0.12085 0.64434 0.0
C5551 C 0.92276 0.13355 0.63454 0.0
C5552 C 0.94644 0.11927 0.64622 0.0
C5553 C 0.95774 0.13049 0.63853 0.0
C5554 C 0.95135 0.14313 0.62874 0.0
C5555 C 0.93415 0.14464 0.62677 0.0
C5556 C 0.9762 0.12892 0.64032 0.0
C5557 C 0.98309 0.1141 0.6353 0.0
C5558 C 0.9871 0.14233 0.64586 0.0
C5559 C 0.98067 0.158 0.65223 0.0
C5560 C 0.98596 0.17333 0.64544 0.0
C5561 C 0.97977 0.18807 0.65135 0.0
C5562 C 0.96834 0.18766 0.6641 0.0
C5563 C 0.9631 0.1725 0.67101 0.0
C5564 C 0.96926 0.15773 0.66516 0.0
C5565 C 0.0533 0.12307 0.6194 0.0
C5566 C 0.06481 0.12692 0.63255 0.0
C5567 C 0.03613 0.12272 0.62184 0.0
C5568 C 0.02983 0.12618 0.6375 0.0
C5569 C 0.04122 0.13 0.65072 0.0
C5570 C 0.05851 0.13026 0.64831 0.0
C5571 C 0.01138 0.12629 0.63971 0.0
C5572 C 0.00448 0.14086 0.64543 0.0
C5573 C 1.00047 0.11258 0.63498 0.0
C5574 C 0.00691 0.09651 0.6297 0.0
C5575 C 0.01833 0.08841 0.63989 0.0
C5576 C 0.02454 0.07339 0.63476 0.0
C5577 C 0.01933 0.06629 0.6195 0.0
C5578 C 0.00788 0.07418 0.60936 0.0
C5579 C 1.00165 0.08921 0.61443 0.0
H5580 H 0.02416 0.05467 0.61555 0.0
H5581 H 0.96355 0.19908 0.66865 0.0
H5582 H 0.40879 0.58335 0.12893 0.0
H5583 H 0.40936 0.55298 0.13199 0.0
H5584 H 0.37454 0.54619 0.09066 0.0
H5585 H 0.37418 0.57618 0.08733 0.0
H5586 H 0.36599 0.52669 0.11856 0.0
H5587 H 0.4139 0.54006 0.08487 0.0
H5588 H 0.441 0.55428 0.07924 0.0
H5589 H 0.46266 0.53212 0.1224 0.0
H5590 H 0.4356 0.51794 0.12841 0.0
H5591 H 0.36522 0.44539 0.08946 0.0
H5592 H 0.3682 0.47513 0.09356 0.0
H5593 H 0.40942 0.46923 0.12787 0.0
H5594 H 0.40682 0.43893 0.12338 0.0
H5595 H 0.41625 0.49528 0.10877 0.0
H5596 H 0.37006 0.47953 0.14132 0.0
H5597 H 0.34319 0.4656 0.14835 0.0
H5598 H 0.31848 0.49248 0.11004 0.0
H5599 H 0.34523 0.50641 0.1026 0.0
C5600 C 0.40129 0.57537 0.1205 0.0
C5601 C 0.39149 0.5823 0.10784 0.0
C5602 C 0.40165 0.55799 0.12223 0.0
C5603 C 0.39201 0.5472 0.11153 0.0
C5604 C 0.38209 0.55416 0.09909 0.0
C5605 C 0.38195 0.5714 0.09717 0.0
C5606 C 0.39201 0.52867 0.1131 0.0
C5607 C 0.37697 0.51983 0.11634 0.0
C5608 C 0.40644 0.51963 0.11085 0.0
C5609 C 0.42268 0.52811 0.10721 0.0
C5610 C 0.4244 0.53834 0.09325 0.0
C5611 C 0.43976 0.54637 0.08997 0.0
C5612 C 0.45353 0.54415 0.10048 0.0
C5613 C 0.45198 0.53386 0.11428 0.0
C5614 C 0.43663 0.52582 0.11763 0.0
C5615 C 0.37492 0.45022 0.09801 0.0
C5616 C 0.38569 0.43949 0.10619 0.0
C5617 C 0.37655 0.46742 0.10041 0.0
C5618 C 0.3888 0.47464 0.11133 0.0
C5619 C 0.39975 0.46407 0.11946 0.0
C5620 C 0.39821 0.44669 0.11694 0.0
C5621 C 0.39006 0.49321 0.11378 0.0
C5622 C 0.4053 0.50208 0.11128 0.0
C5623 C 0.37584 0.50234 0.11697 0.0
C5624 C 0.35969 0.49396 0.12135 0.0
C5625 C 0.35892 0.48239 0.13431 0.0
C5626 C 0.34371 0.4745 0.13838 0.0
C5627 C 0.32915 0.47815 0.12964 0.0
C5628 C 0.32977 0.48968 0.1168 0.0
C5629 C 0.34495 0.49759 0.11267 0.0
H5630 H 0.31738 0.47209 0.13285 0.0
H5631 H 0.46541 0.55037 0.09792 0.0
H5632 H 0.36896 0.0826 0.09885 0.0
H5633 H 0.36679 0.05227 0.09425 0.0
H5634 H 0.4017 0.04594 0.13485 0.0
H5635 H 0.40362 0.07569 0.1398 0.0
H5636 H 0.40925 0.0291 0.10427 0.0
H5637 H 0.36348 0.03673 0.14149 0.0
H5638 H 0.33693 0.04831 0.14907 0.0
H5639 H 0.31288 0.02562 0.10579 0.0
H5640 H 0.33938 0.01411 0.09782 0.0
H5641 H 0.41217 0.9463 0.1263 0.0
H5642 H 0.40868 0.97603 0.12584 0.0
H5643 H 0.36407 0.96814 0.09536 0.0
H5644 H 0.36711 0.93793 0.09654 0.0
H5645 H 0.35944 0.99255 0.11564 0.0
H5646 H 0.40318 0.98259 0.07918 0.0
H5647 H 0.42927 0.97124 0.06991 0.0
H5648 H 0.4567 0.99877 0.10837 0.0
H5649 H 0.43073 0.01011 0.11803 0.0
C5650 C 0.37607 0.07473 0.10686 0.0
C5651 C 0.38644 0.08177 0.11972 0.0
C5652 C 0.37482 0.05738 0.10422 0.0
C5653 C 0.38413 0.04676 0.11419 0.0
C5654 C 0.39443 0.05379 0.12695 0.0
C5655 C 0.39545 0.07094 0.12978 0.0
C5656 C 0.38368 0.02836 0.11141 0.0
C5657 C 0.39837 0.0211 0.1068 0.0
C5658 C 0.36935 0.01789 0.1141 0.0
C5659 C 0.35345 0.02474 0.11895 0.0
C5660 C 0.35257 0.03435 0.1335 0.0
C5661 C 0.33752 0.04087 0.13789 0.0
C5662 C 0.32324 0.03775 0.12789 0.0
C5663 C 0.32396 0.02806 0.11351 0.0
C5664 C 0.33899 0.02153 0.10905 0.0
C5665 C 0.40157 0.95081 0.11948 0.0
C5666 C 0.39004 0.93965 0.11128 0.0
C5667 C 0.39964 0.96794 0.11912 0.0
C5668 C 0.38639 0.97461 0.11011 0.0
C5669 C 0.37452 0.96346 0.10228 0.0
C5670 C 0.37627 0.94616 0.10292 0.0
C5671 C 0.38523 0.99315 0.10897 0.0
C5672 C 0.37028 1.00047 0.11282 0.0
C5673 C 0.39927 1.00376 0.10525 0.0
C5674 C 0.41497 0.99712 0.09939 0.0
C5675 C 0.41476 0.98616 0.08571 0.0
C5676 C 0.42953 0.97973 0.08039 0.0
C5677 C 0.44463 0.98426 0.08856 0.0
C5678 C 0.44499 0.99527 0.10205 0.0
C5679 C 0.43025 1.00172 0.10744 0.0
H5680 H 0.45605 0.97926 0.08443 0.0
H5681 H 0.3116 0.04281 0.13131 0.0
H5682 H 0.43096 0.84609 0.62698 0.0
H5683 H 0.4611 0.84286 0.62496 0.0
H5684 H 0.47075 0.89171 0.64627 0.0
H5685 H 0.44099 0.89498 0.64836 0.0
H5686 H 0.48944 0.88741 0.61939 0.0
H5687 H 0.47589 0.857 0.66901 0.0
H5688 H 0.46097 0.83527 0.68502 0.0
H5689 H 0.48031 0.79763 0.65409 0.0
H5690 H 0.49516 0.81917 0.63772 0.0
H5691 H 0.57142 0.89462 0.64785 0.0
H5692 H 0.54137 0.89103 0.64632 0.0
H5693 H 0.54487 0.84209 0.62529 0.0
H5694 H 0.57552 0.84551 0.62704 0.0
H5695 H 0.51939 0.84311 0.64797 0.0
H5696 H 0.53575 0.87408 0.60039 0.0
H5697 H 0.5508 0.89624 0.58505 0.0
H5698 H 0.52601 0.93318 0.61229 0.0
H5699 H 0.51103 0.91126 0.62802 0.0
C5700 C 0.43952 0.85611 0.63126 0.0
C5701 C 0.43346 0.87077 0.63789 0.0
C5702 C 0.45677 0.85424 0.63015 0.0
C5703 C 0.4683 0.86703 0.63552 0.0
C5704 C 0.46221 0.88166 0.642 0.0
C5705 C 0.44509 0.88347 0.64325 0.0
C5706 C 0.48673 0.86552 0.63436 0.0
C5707 C 0.49596 0.87774 0.62571 0.0
C5708 C 0.49532 0.85265 0.64215 0.0
C5709 C 0.48646 0.8397 0.65201 0.0
C5710 C 0.47684 0.84409 0.66553 0.0
C5711 C 0.46842 0.83181 0.67469 0.0
C5712 C 0.46964 0.81508 0.67054 0.0
C5713 C 0.47934 0.81059 0.65726 0.0
C5714 C 0.48777 0.82284 0.64804 0.0
C5715 C 0.56597 0.88302 0.64288 0.0
C5716 C 0.57609 0.87044 0.63734 0.0
C5717 C 0.54864 0.88101 0.64199 0.0
C5718 C 0.54071 0.86645 0.63534 0.0
C5719 C 0.55065 0.85352 0.63035 0.0
C5720 C 0.56819 0.85549 0.63134 0.0
C5721 C 0.5221 0.86528 0.63336 0.0
C5722 C 0.51284 0.85259 0.64141 0.0
C5723 C 0.51342 0.87776 0.62501 0.0
C5724 C 0.52231 0.891 0.61544 0.0
C5725 C 0.53358 0.88693 0.60319 0.0
C5726 C 0.54209 0.89945 0.59442 0.0
C5727 C 0.53935 0.9161 0.59769 0.0
C5728 C 0.52811 0.92027 0.60976 0.0
C5729 C 0.51959 0.9078 0.6186 0.0
H5730 H 0.5459 0.92578 0.59084 0.0
H5731 H 0.46312 0.80558 0.67765 0.0
H5732 H 0.58074 0.06724 0.12712 0.0
H5733 H 0.58284 0.03726 0.12827 0.0
H5734 H 0.63165 0.04196 0.10755 0.0
H5735 H 0.62967 0.07231 0.10637 0.0
H5736 H 0.61149 0.01503 0.09355 0.0
H5737 H 0.62861 0.03535 0.14782 0.0
H5738 H 0.6257 0.05183 0.17339 0.0
H5739 H 0.58019 0.02413 0.18367 0.0
H5740 H 0.58267 0.00767 0.15802 0.0
H5741 H 0.62535 0.92949 0.11137 0.0
H5742 H 0.62829 0.9598 0.10899 0.0
H5743 H 0.58462 0.96446 0.13822 0.0
H5744 H 0.58202 0.93447 0.14116 0.0
H5745 H 0.60543 0.98729 0.14791 0.0
H5746 H 0.58596 0.96903 0.09354 0.0
H5747 H 0.58667 0.95316 0.06731 0.0
H5748 H 0.63408 0.97705 0.05667 0.0
H5749 H 0.63374 0.99291 0.08296 0.0
C5750 C 0.59196 0.06201 0.12272 0.0
C5751 C 0.60507 0.07235 0.11668 0.0
C5752 C 0.59314 0.04476 0.12344 0.0
C5753 C 0.60747 0.03722 0.11815 0.0
C5754 C 0.62047 0.04742 0.11173 0.0
C5755 C 0.61934 0.0648 0.11111 0.0
C5756 C 0.6088 0.01879 0.11977 0.0
C5757 C 0.61047 0.00898 0.10548 0.0
C5758 C 0.60708 0.01074 0.13525 0.0
C5759 C 0.60578 0.02034 0.15092 0.0
C5760 C 0.61793 0.03283 0.15548 0.0
C5761 C 0.61636 0.04217 0.16999 0.0
C5762 C 0.60276 0.03905 0.18013 0.0
C5763 C 0.59072 0.02654 0.1758 0.0
C5764 C 0.59222 0.01719 0.16129 0.0
C5765 C 0.61639 0.93697 0.11732 0.0
C5766 C 0.60346 0.92936 0.12648 0.0
C5767 C 0.61802 0.95438 0.11586 0.0
C5768 C 0.60657 0.96467 0.12325 0.0
C5769 C 0.59372 0.95702 0.13242 0.0
C5770 C 0.59221 0.93972 0.13405 0.0
C5771 C 0.6078 0.98333 0.12161 0.0
C5772 C 0.60661 0.99325 0.13596 0.0
C5773 C 0.60972 0.99144 0.10614 0.0
C5774 C 0.60991 0.982 0.0903 0.0
C5775 C 0.59659 0.97081 0.08566 0.0
C5776 C 0.59692 0.96183 0.07078 0.0
C5777 C 0.61044 0.96406 0.06036 0.0
C5778 C 0.62363 0.97531 0.06477 0.0
C5779 C 0.62337 0.9843 0.07966 0.0
H5780 H 0.61067 0.9571 0.04884 0.0
H5781 H 0.60155 0.04629 0.19135 0.0
H5782 H 0.5656 0.15118 0.62277 0.0
H5783 H 0.53517 0.15256 0.62002 0.0
H5784 H 0.52892 0.10631 0.64609 0.0
H5785 H 0.55903 0.10491 0.649 0.0
H5786 H 0.50871 0.10683 0.61809 0.0
H5787 H 0.523 0.14264 0.66541 0.0
H5788 H 0.53759 0.16657 0.67964 0.0
H5789 H 0.51527 0.19976 0.64523 0.0
H5790 H 0.50072 0.17598 0.63065 0.0
H5791 H 0.42703 0.09923 0.64402 0.0
H5792 H 0.45704 0.103 0.64266 0.0
H5793 H 0.45213 0.15126 0.62101 0.0
H5794 H 0.42165 0.14775 0.6228 0.0
H5795 H 0.47798 0.15228 0.64279 0.0
H5796 H 0.4614 0.11719 0.59708 0.0
H5797 H 0.44638 0.09355 0.58278 0.0
H5798 H 0.47306 0.05948 0.61272 0.0
H5799 H 0.48804 0.08292 0.62742 0.0
C5800 C 0.55773 0.14133 0.62794 0.0
C5801 C 0.56485 0.12798 0.63617 0.0
C5802 C 0.54031 0.14215 0.62639 0.0
C5803 C 0.52965 0.12956 0.6329 0.0
C5804 C 0.53679 0.11617 0.64094 0.0
C5805 C 0.55409 0.11544 0.64265 0.0
C5806 C 0.51108 0.13007 0.63142 0.0
C5807 C 0.50201 0.11673 0.62357 0.0
C5808 C 0.50223 0.14324 0.63804 0.0
C5809 C 0.51094 0.15752 0.64682 0.0
C5810 C 0.52132 0.15503 0.66079 0.0
C5811 C 0.52956 0.16856 0.66894 0.0
C5812 C 0.5274 0.18467 0.66331 0.0
C5813 C 0.51696 0.18727 0.64955 0.0
C5814 C 0.50871 0.17377 0.64135 0.0
C5815 C 0.43218 0.1107 0.63891 0.0
C5816 C 0.42173 0.12311 0.63333 0.0
C5817 C 0.44949 0.1128 0.63808 0.0
C5818 C 0.45701 0.12725 0.63135 0.0
C5819 C 0.4467 0.13992 0.62613 0.0
C5820 C 0.42924 0.13788 0.62712 0.0
C5821 C 0.47559 0.12879 0.62982 0.0
C5822 C 0.48466 0.14249 0.63707 0.0
C5823 C 0.48449 0.11601 0.62249 0.0
C5824 C 0.47578 0.10184 0.61343 0.0
C5825 C 0.46401 0.10466 0.60067 0.0
C5826 C 0.4555 0.09129 0.5925 0.0
C5827 C 0.45874 0.07503 0.59686 0.0
C5828 C 0.47055 0.07209 0.60936 0.0
C5829 C 0.47908 0.08542 0.61761 0.0
H5830 H 0.45212 0.0647 0.59053 0.0
H5831 H 0.53379 0.19514 0.66964 0.0
H5832 H 0.36327 0.07817 0.88445 0.0
H5833 H 0.35963 0.04766 0.88454 0.0
H5834 H 0.4087 0.04405 0.86515 0.0
H5835 H 0.41254 0.07413 0.86523 0.0
H5836 H 0.38506 0.02373 0.84803 0.0
H5837 H 0.40214 0.03631 0.90502 0.0
H5838 H 0.39949 0.0497 0.93237 0.0
H5839 H 0.35131 0.0251 0.9375 0.0
H5840 H 0.35359 0.01175 0.91006 0.0
H5841 H 0.40813 0.94211 0.85837 0.0
H5842 H 0.40586 0.97201 0.86019 0.0
H5843 H 0.35926 0.96489 0.88501 0.0
H5844 H 0.36166 0.93461 0.88353 0.0
H5845 H 0.37719 0.99054 0.89904 0.0
H5846 H 0.36041 0.97605 0.84373 0.0
H5847 H 0.36212 0.96258 0.81632 0.0
H5848 H 0.40763 0.99084 0.80738 0.0
H5849 H 0.40635 1.00431 0.83486 0.0
C5850 C 0.37332 0.07088 0.88029 0.0
C5851 C 0.38822 0.07879 0.87487 0.0
C5852 C 0.37122 0.0534 0.88036 0.0
C5853 C 0.38389 0.04345 0.87483 0.0
C5854 C 0.3987 0.05135 0.86942 0.0
C5855 C 0.40088 0.06868 0.86955 0.0
C5856 C 0.38197 0.02483 0.87444 0.0
C5857 C 0.38343 0.0165 0.85922 0.0
C5858 C 0.37927 0.01526 0.88889 0.0
C5859 C 0.37795 0.0232 0.90541 0.0
C5860 C 0.39092 0.03387 0.91192 0.0
C5861 C 0.3895 0.04143 0.92745 0.0
C5862 C 0.37521 0.03829 0.93664 0.0
C5863 C 0.36235 0.02755 0.93035 0.0
C5864 C 0.3637 0.01997 0.91481 0.0
C5865 C 0.39733 0.9468 0.8642 0.0
C5866 C 0.38498 0.93581 0.87064 0.0
C5867 C 0.39602 0.96402 0.86519 0.0
C5868 C 0.38221 0.9709 0.87244 0.0
C5869 C 0.37001 0.96 0.87926 0.0
C5870 C 0.37136 0.94265 0.87835 0.0
C5871 C 0.3807 0.98941 0.87265 0.0
C5872 C 0.37859 0.99774 0.88781 0.0
C5873 C 0.38259 0.99902 0.85808 0.0
C5874 C 0.38334 0.99111 0.84143 0.0
C5875 C 0.37084 0.97933 0.83597 0.0
C5876 C 0.37173 0.97169 0.82041 0.0
C5877 C 0.38499 0.97582 0.81013 0.0
C5878 C 0.39737 0.98764 0.81537 0.0
C5879 C 0.39656 0.9953 0.83093 0.0
H5880 H 0.38566 0.96989 0.79809 0.0
H5881 H 0.37413 0.04416 0.94866 0.0
H5882 H 0.58339 0.88304 0.40723 0.0
H5883 H 0.5529 0.8802 0.40888 0.0
H5884 H 0.54876 0.92567 0.38169 0.0
H5885 H 0.57886 0.92866 0.38008 0.0
H5886 H 0.52892 0.92558 0.40747 0.0
H5887 H 0.54012 0.88686 0.36364 0.0
H5888 H 0.55306 0.86263 0.35161 0.0
H5889 H 0.52958 0.83095 0.38764 0.0
H5890 H 0.51668 0.85506 0.40003 0.0
H5891 H 0.44587 0.92599 0.37949 0.0
H5892 H 0.47596 0.92432 0.38133 0.0
H5893 H 0.47028 0.87826 0.40785 0.0
H5894 H 0.43982 0.8797 0.40577 0.0
H5895 H 0.49498 0.87664 0.38586 0.0
H5896 H 0.48198 0.915 0.42831 0.0
H5897 H 0.46903 0.93922 0.44034 0.0
H5898 H 0.49613 0.97154 0.40737 0.0
H5899 H 0.50907 0.94748 0.39498 0.0
C5900 C 0.57599 0.89242 0.40157 0.0
C5901 C 0.58376 0.90606 0.39349 0.0
C5902 C 0.5585 0.89075 0.40247 0.0
C5903 C 0.54837 0.90268 0.39533 0.0
C5904 C 0.55616 0.91628 0.38735 0.0
C5905 C 0.57351 0.91793 0.38639 0.0
C5906 C 0.52972 0.90137 0.39619 0.0
C5907 C 0.52154 0.9149 0.40262 0.0
C5908 C 0.51993 0.88727 0.39038 0.0
C5909 C 0.5276 0.87278 0.38288 0.0
C5910 C 0.53783 0.87475 0.36908 0.0
C5911 C 0.54514 0.86104 0.36218 0.0
C5912 C 0.54219 0.84527 0.36889 0.0
C5913 C 0.53188 0.84318 0.38248 0.0
C5914 C 0.52456 0.85686 0.38944 0.0
C5915 C 0.45092 0.91547 0.38577 0.0
C5916 C 0.44029 0.90306 0.39265 0.0
C5917 C 0.46824 0.91456 0.38686 0.0
C5918 C 0.47558 0.90134 0.39503 0.0
C5919 C 0.46502 0.88867 0.40156 0.0
C5920 C 0.44758 0.88952 0.40041 0.0
C5921 C 0.49422 0.90103 0.39676 0.0
C5922 C 0.50237 0.88723 0.39087 0.0
C5923 C 0.50405 0.91488 0.40311 0.0
C5924 C 0.49641 0.92941 0.41064 0.0
C5925 C 0.4851 0.92726 0.42356 0.0
C5926 C 0.47777 0.94096 0.43045 0.0
C5927 C 0.48173 0.9569 0.4246 0.0
C5928 C 0.49306 0.95918 0.41188 0.0
C5929 C 0.50042 0.94552 0.40493 0.0
H5930 H 0.47603 0.9675 0.42995 0.0
H5931 H 0.54786 0.83467 0.36353 0.0
H5932 H 0.61979 0.06174 0.85362 0.0
H5933 H 0.62014 0.03188 0.85825 0.0
H5934 H 0.66462 0.03926 0.88891 0.0
H5935 H 0.66423 0.06943 0.88453 0.0
H5936 H 0.66502 0.01173 0.86471 0.0
H5937 H 0.63114 0.0315 0.90809 0.0
H5938 H 0.60848 0.04718 0.91947 0.0
H5939 H 0.57263 0.01818 0.8896 0.0
H5940 H 0.59511 1.00249 0.87784 0.0
H5941 H 0.65803 0.92582 0.88907 0.0
H5942 H 0.66226 0.95621 0.88943 0.0
H5943 H 0.61221 0.96053 0.87007 0.0
H5944 H 0.60772 0.9306 0.87032 0.0
H5945 H 0.61712 0.98298 0.89178 0.0
H5946 H 0.6496 0.96538 0.8461 0.0
H5947 H 0.67139 0.95001 0.8327 0.0
H5948 H 0.70873 0.97479 0.8644 0.0
H5949 H 0.68711 0.99016 0.87813 0.0
C5950 C 0.62971 0.05709 0.86134 0.0
C5951 C 0.64199 0.06809 0.86871 0.0
C5952 C 0.62987 0.03995 0.86399 0.0
C5953 C 0.64238 0.03324 0.87396 0.0
C5954 C 0.65485 0.04411 0.88114 0.0
C5955 C 0.65456 0.06136 0.87869 0.0
C5956 C 0.64202 0.01493 0.87706 0.0
C5957 C 0.6547 0.00545 0.8709 0.0
C5958 C 0.6284 0.00661 0.88479 0.0
C5959 C 0.61483 0.0159 0.89199 0.0
C5960 C 0.61844 0.02854 0.90385 0.0
C5961 C 0.60562 0.03743 0.91039 0.0
C5962 C 0.58913 0.0337 0.90524 0.0
C5963 C 0.58541 0.02106 0.89357 0.0
C5964 C 0.59818 0.01215 0.88698 0.0
C5965 C 0.64791 0.93326 0.88498 0.0
C5966 C 0.63252 0.92558 0.8797 0.0
C5967 C 0.65037 0.9507 0.88507 0.0
C5968 C 0.63762 0.96089 0.87959 0.0
C5969 C 0.62228 0.95317 0.87446 0.0
C5970 C 0.61975 0.93588 0.87457 0.0
C5971 C 0.63994 0.97954 0.87907 0.0
C5972 C 0.62758 0.98916 0.88573 0.0
C5973 C 0.65373 0.98792 0.87155 0.0
C5974 C 0.66673 0.97876 0.86327 0.0
C5975 C 0.66245 0.96746 0.85029 0.0
C5976 C 0.67477 0.95877 0.84262 0.0
C5977 C 0.69143 0.96138 0.84773 0.0
C5978 C 0.69581 0.97275 0.86048 0.0
C5979 C 0.68354 0.98146 0.8682 0.0
H5980 H 0.70095 0.95464 0.84179 0.0
H5981 H 0.57922 0.0406 0.91031 0.0
H5982 H 0.43212 0.13501 0.36643 0.0
H5983 H 0.46254 0.13632 0.36894 0.0
H5984 H 0.45951 0.11397 0.41731 0.0
H5985 H 0.42903 0.11382 0.41523 0.0
H5986 H 0.48552 0.13327 0.418 0.0
H5987 H 0.4648 0.09151 0.37758 0.0
H5988 H 0.44981 0.08154 0.35198 0.0
H5989 H 0.48043 0.11458 0.3229 0.0
H5990 H 0.49555 0.12486 0.34827 0.0
H5991 H 0.56104 0.08369 0.39026 0.0
H5992 H 0.53158 0.0892 0.39003 0.0
H5993 H 0.54386 0.14073 0.40164 0.0
H5994 H 0.57362 0.13522 0.40206 0.0
H5995 H 0.51367 0.10787 0.37086 0.0
H5996 H 0.5112 0.15606 0.42379 0.0
H5997 H 0.52635 0.16402 0.44991 0.0
H5998 H 0.54192 0.11419 0.45528 0.0
H5999 H 0.5267 0.1059 0.42933 0.0
C6000 C 0.43799 0.13086 0.3778 0.0
C6001 C 0.42822 0.12446 0.39069 0.0
C6002 C 0.45542 0.13136 0.37915 0.0
C6003 C 0.46354 0.1247 0.39308 0.0
C6004 C 0.45372 0.11911 0.40636 0.0
C6005 C 0.43625 0.11909 0.40522 0.0
C6006 C 0.48204 0.12267 0.39345 0.0
C6007 C 0.49163 0.12777 0.40763 0.0
C6008 C 0.49026 0.11536 0.38005 0.0
C6009 C 0.4812 0.10906 0.36483 0.0
C6010 C 0.46828 0.09669 0.36573 0.0
C6011 C 0.45976 0.09099 0.35128 0.0
C6012 C 0.46411 0.09745 0.33587 0.0
C6013 C 0.47705 0.1096 0.33485 0.0
C6014 C 0.48561 0.11536 0.34925 0.0
C6015 C 0.55757 0.09622 0.39285 0.0
C6016 C 0.56983 0.109 0.39624 0.0
C6017 C 0.54062 0.09937 0.39265 0.0
C6018 C 0.53533 0.11537 0.39589 0.0
C6019 C 0.54752 0.12822 0.39929 0.0
C6020 C 0.56457 0.12507 0.39947 0.0
C6021 C 0.51708 0.11842 0.39538 0.0
C6022 C 0.50756 0.11349 0.38117 0.0
C6023 C 0.50892 0.12563 0.40882 0.0
C6024 C 0.51798 0.13043 0.42452 0.0
C6025 C 0.51783 0.1468 0.43058 0.0
C6026 C 0.52642 0.15137 0.44535 0.0
C6027 C 0.53514 0.13963 0.45421 0.0
C6028 C 0.53523 0.12329 0.44837 0.0
C6029 C 0.52663 0.11865 0.43362 0.0
H6030 H 0.5418 0.1432 0.46564 0.0
H6031 H 0.45748 0.09301 0.32471 0.0
H6032 H 0.10059 0.3715 0.91965 0.0
H6033 H 0.09919 0.36742 0.9498 0.0
H6034 H 0.1146 0.41886 0.95805 0.0
H6035 H 0.11586 0.42305 0.9282 0.0
H6036 H 0.12188 0.37014 0.97476 0.0
H6037 H 0.09701 0.43413 0.99201 0.0
H6038 H 0.07886 0.45481 0.97982 0.0
H6039 H 0.05339 0.41676 0.94983 0.0
H6040 H 0.07121 0.39582 0.962 0.0
H6041 H 0.14102 0.39387 0.05798 0.0
H6042 H 0.13675 0.39126 0.02806 0.0
H6043 H 0.08371 0.38574 0.03422 0.0
H6044 H 0.08793 0.38852 0.0645 0.0
H6045 H 0.09089 0.40778 0.01017 0.0
H6046 H 0.10578 0.35274 0.02167 0.0
H6047 H 0.12247 0.33091 0.03387 0.0
H6048 H 0.16475 0.34847 0.0064 0.0
H6049 H 0.14839 0.37057 0.9942 0.0
C6050 C 0.1036 0.38196 0.92789 0.0
C6051 C 0.10822 0.39764 0.92137 0.0
C6052 C 0.10285 0.3796 0.94517 0.0
C6053 C 0.10655 0.39287 0.95635 0.0
C6054 C 0.11134 0.40845 0.94982 0.0
C6055 C 0.11212 0.41081 0.93264 0.0
C6056 C 0.10571 0.39056 0.97482 0.0
C6057 C 0.11504 0.37834 0.98246 0.0
C6058 C 0.09652 0.40097 0.98504 0.0
C6059 C 0.08555 0.41343 0.97783 0.0
C6060 C 0.08748 0.43016 0.98288 0.0
C6061 C 0.07726 0.44193 0.97596 0.0
C6062 C 0.06501 0.43711 0.96403 0.0
C6063 C 0.06291 0.42049 0.95903 0.0
C6064 C 0.07309 0.40867 0.96592 0.0
C6065 C 0.12841 0.39184 0.05308 0.0
C6066 C 0.11482 0.39135 0.0638 0.0
C6067 C 0.12599 0.39029 0.03585 0.0
C6068 C 0.1099 0.38818 0.0287 0.0
C6069 C 0.09627 0.38733 0.03935 0.0
C6070 C 0.0987 0.38877 0.05671 0.0
C6071 C 0.10752 0.38774 0.01013 0.0
C6072 C 0.09761 0.39947 1.00247 0.0
C6073 C 0.11601 0.37674 0.9999 0.0
C6074 C 0.12588 0.36339 0.0071 0.0
C6075 C 0.11867 0.35202 0.0183 0.0
C6076 C 0.12807 0.33958 0.02521 0.0
C6077 C 0.14467 0.33832 0.02093 0.0
C6078 C 0.15189 0.34946 0.0097 0.0
C6079 C 0.14255 0.36194 1.00277 0.0
H6080 H 0.15192 0.32868 0.0263 0.0
H6081 H 0.05712 0.44625 0.95867 0.0
H6082 H 0.12142 0.65526 0.93558 0.0
H6083 H 0.11761 0.65676 0.96578 0.0
H6084 H 0.14239 0.61101 0.97178 0.0
H6085 H 0.14636 0.60952 0.94199 0.0
H6086 H 0.11335 0.61098 0.98906 0.0
H6087 H 0.16219 0.64783 0.9816 0.0
H6088 H 0.17734 0.67227 0.97003 0.0
H6089 H 0.14267 0.7043 0.99167 0.0
H6090 H 0.12718 0.68 1.0032 0.0
H6091 H 0.13659 0.6017 0.0716 0.0
H6092 H 0.13599 0.60627 0.04197 0.0
H6093 H 0.11652 0.65446 0.04957 0.0
H6094 H 0.11774 0.65019 0.07983 0.0
H6095 H 0.13834 0.6562 0.02522 0.0
H6096 H 0.09116 0.62032 0.03534 0.0
H6097 H 0.07563 0.59628 0.04722 0.0
H6098 H 0.1053 0.56307 0.02032 0.0
H6099 H 0.12121 0.5869 0.00848 0.0
C6100 C 0.1261 0.64557 0.94336 0.0
C6101 C 0.13425 0.6323 0.93626 0.0
C6102 C 0.12395 0.64645 0.96065 0.0
C6103 C 0.12974 0.634 0.97117 0.0
C6104 C 0.13776 0.62076 0.96403 0.0
C6105 C 0.14008 0.61997 0.9469 0.0
C6106 C 0.12744 0.63439 0.98958 0.0
C6107 C 0.11889 0.62085 0.99695 0.0
C6108 C 0.13408 0.64752 0.99995 0.0
C6109 C 0.14342 0.6621 0.99308 0.0
C6110 C 0.15772 0.66007 0.98377 0.0
C6111 C 0.16638 0.6739 0.97724 0.0
C6112 C 0.16094 0.68982 0.98006 0.0
C6113 C 0.14685 0.69195 0.98946 0.0
C6114 C 0.13813 0.67816 0.996 0.0
C6115 C 0.13211 0.61332 0.06714 0.0
C6116 C 0.12701 0.62548 0.0783 0.0
C6117 C 0.1317 0.61589 0.05002 0.0
C6118 C 0.12578 0.63053 0.04329 0.0
C6119 C 0.12101 0.64296 0.05434 0.0
C6120 C 0.12165 0.64048 0.07167 0.0
C6121 C 0.12468 0.63251 0.02476 0.0
C6122 C 0.13255 0.64646 0.01735 0.0
C6123 C 0.11721 0.61983 0.01427 0.0
C6124 C 0.10744 0.60542 0.02108 0.0
C6125 C 0.09443 0.60789 0.03201 0.0
C6126 C 0.08556 0.5943 0.03874 0.0
C6127 C 0.08949 0.57816 0.03454 0.0
C6128 C 0.10227 0.57558 0.02356 0.0
C6129 C 0.1112 0.58913 0.01681 0.0
H6130 H 0.08263 0.56765 0.03979 0.0
H6131 H 0.16766 0.70051 0.975 0.0
H6132 H 0.86613 0.61394 0.43089 0.0
H6133 H 0.864 0.61036 0.46105 0.0
H6134 H 0.89834 0.65263 0.46929 0.0
H6135 H 0.90069 0.6561 0.43948 0.0
H6136 H 0.90667 0.62835 0.48889 0.0
H6137 H 0.8551 0.65389 0.47449 0.0
H6138 H 0.82808 0.65564 0.45963 0.0
H6139 H 0.811 0.60917 0.48044 0.0
H6140 H 0.83802 0.60705 0.49527 0.0
H6141 H 0.90006 0.65369 0.57016 0.0
H6142 H 0.89656 0.65208 0.54017 0.0
H6143 H 0.86355 0.6086 0.5446 0.0
H6144 H 0.86666 0.61053 0.57515 0.0
H6145 H 0.85352 0.62848 0.51871 0.0
H6146 H 0.90418 0.60444 0.53544 0.0
H6147 H 0.93085 0.60345 0.55109 0.0
H6148 H 0.9497 0.6469 0.52588 0.0
H6149 H 0.92304 0.64832 0.51027 0.0
C6150 C 0.87317 0.62249 0.43914 0.0
C6151 C 0.88355 0.63534 0.43265 0.0
C6152 C 0.8719 0.62047 0.45642 0.0
C6153 C 0.88093 0.63128 0.4676 0.0
C6154 C 0.89126 0.64407 0.46106 0.0
C6155 C 0.89253 0.64608 0.4439 0.0
C6156 C 0.88006 0.62935 0.48608 0.0
C6157 C 0.89502 0.62847 0.49535 0.0
C6158 C 0.86488 0.62891 0.49467 0.0
C6159 C 0.84864 0.63022 0.48582 0.0
C6160 C 0.84563 0.64399 0.47579 0.0
C6161 C 0.8303 0.64506 0.46739 0.0
C6162 C 0.81785 0.6325 0.46905 0.0
C6163 C 0.82067 0.61887 0.47914 0.0
C6164 C 0.83598 0.61774 0.48755 0.0
C6165 C 0.89191 0.64384 0.56485 0.0
C6166 C 0.88382 0.6321 0.57511 0.0
C6167 C 0.88995 0.64291 0.54761 0.0
C6168 C 0.88018 0.62994 0.53997 0.0
C6169 C 0.8713 0.61865 0.55015 0.0
C6170 C 0.87306 0.61975 0.56761 0.0
C6171 C 0.88017 0.62802 0.52144 0.0
C6172 C 0.86512 0.62811 0.51219 0.0
C6173 C 0.89529 0.62767 0.51279 0.0
C6174 C 0.91157 0.62652 0.52173 0.0
C6175 C 0.914 0.61381 0.53326 0.0
C6176 C 0.92911 0.61318 0.54214 0.0
C6177 C 0.94195 0.62511 0.53949 0.0
C6178 C 0.93974 0.63766 0.52791 0.0
C6179 C 0.92464 0.63837 0.51902 0.0
H6180 H 0.95363 0.62463 0.54641 0.0
H6181 H 0.80599 0.63335 0.46254 0.0
H6182 H 0.87515 0.40582 0.95084 0.0
H6183 H 0.87823 0.4044 0.98087 0.0
H6184 H 0.91081 0.36399 0.97612 0.0
H6185 H 0.90769 0.36526 0.94566 0.0
H6186 H 0.88754 0.35937 1.00211 0.0
H6187 H 0.92753 0.40152 0.98463 0.0
H6188 H 0.93634 0.42641 0.9689 0.0
H6189 H 0.90211 0.45516 0.9954 0.0
H6190 H 0.89289 0.43038 0.01112 0.0
H6191 H 0.91033 0.36765 0.08907 0.0
H6192 H 0.91075 0.36453 0.05875 0.0
H6193 H 0.88615 0.4105 0.05326 0.0
H6194 H 0.88629 0.41394 0.08328 0.0
H6195 H 0.9086 0.41057 0.03191 0.0
H6196 H 0.86639 0.36946 0.04718 0.0
H6197 H 0.85498 0.3449 0.0619 0.0
H6198 H 0.89074 0.31477 0.03933 0.0
H6199 H 0.90251 0.33922 0.02463 0.0
C6200 C 0.88293 0.39652 0.95605 0.0
C6201 C 0.89122 0.38568 0.94568 0.0
C6202 C 0.88471 0.39576 0.97334 0.0
C6203 C 0.89491 0.38422 0.98088 0.0
C6204 C 0.90289 0.37304 0.97064 0.0
C6205 C 0.90114 0.37381 0.95321 0.0
C6206 C 0.89748 0.38444 0.99938 0.0
C6207 C 0.89244 0.37045 0.00864 0.0
C6208 C 0.90352 0.399 0.00801 0.0
C6209 C 0.90946 0.41406 0.999 0.0
C6210 C 0.92184 0.41314 0.98707 0.0
C6211 C 0.9269 0.42722 0.97815 0.0
C6212 C 0.91977 0.44235 0.98113 0.0
C6213 C 0.90762 0.44344 0.9931 0.0
C6214 C 0.90249 0.42938 1.00204 0.0
C6215 C 0.90501 0.37707 0.08138 0.0
C6216 C 0.89833 0.39107 0.08871 0.0
C6217 C 0.90516 0.37524 0.06398 0.0
C6218 C 0.89834 0.3872 0.05348 0.0
C6219 C 0.89161 0.4011 0.06089 0.0
C6220 C 0.89165 0.40304 0.07817 0.0
C6221 C 0.8983 0.38559 0.03484 0.0
C6222 C 0.90386 0.39936 0.02549 0.0
C6223 C 0.89252 0.3709 0.02618 0.0
C6224 C 0.88545 0.3562 0.03497 0.0
C6225 C 0.8719 0.35762 0.04546 0.0
C6226 C 0.86535 0.34372 0.05378 0.0
C6227 C 0.87216 0.32829 0.0516 0.0
C6228 C 0.8855 0.32673 0.04104 0.0
C6229 C 0.89211 0.34061 0.03271 0.0
H6230 H 0.86708 0.31754 0.05805 0.0
H6231 H 0.92367 0.45323 0.97418 0.0
H6232 H 0.08744 0.3878 0.55592 0.0
H6233 H 0.09273 0.3888 0.52634 0.0
H6234 H 0.14199 0.4106 0.5369 0.0
H6235 H 0.13691 0.40905 0.56678 0.0
H6236 H 0.09784 0.41107 0.50482 0.0
H6237 H 0.16847 0.40079 0.50649 0.0
H6238 H 0.1893 0.38727 0.52404 0.0
H6239 H 0.15115 0.35344 0.54218 0.0
H6240 H 0.13015 0.36661 0.52458 0.0
H6241 H 0.12349 0.4194 0.42117 0.0
H6242 H 0.12379 0.42337 0.45146 0.0
H6243 H 0.13112 0.37125 0.45807 0.0
H6244 H 0.13113 0.3673 0.42811 0.0
H6245 H 0.14809 0.38773 0.48146 0.0
H6246 H 0.0923 0.38719 0.45914 0.0
H6247 H 0.06968 0.39662 0.44086 0.0
H6248 H 0.07463 0.44504 0.4635 0.0
H6249 H 0.09748 0.43597 0.48175 0.0
C6250 C 0.09944 0.39283 0.55203 0.0
C6251 C 0.11176 0.39831 0.56386 0.0
C6252 C 0.10243 0.39346 0.53499 0.0
C6253 C 0.11783 0.39966 0.52913 0.0
C6254 C 0.13009 0.40545 0.54093 0.0
C6255 C 0.12716 0.40463 0.55807 0.0
C6256 C 0.12091 0.39973 0.51076 0.0
C6257 C 0.10892 0.40607 0.4998 0.0
C6258 C 0.13518 0.39297 0.5039 0.0
C6259 C 0.14773 0.38483 0.51437 0.0
C6260 C 0.16455 0.39044 0.51419 0.0
C6261 C 0.17638 0.38284 0.52415 0.0
C6262 C 0.17154 0.36955 0.53426 0.0
C6263 C 0.15487 0.36378 0.53439 0.0
C6264 C 0.143 0.37131 0.52443 0.0
C6265 C 0.1256 0.40889 0.42908 0.0
C6266 C 0.12723 0.39302 0.4221 0.0
C6267 C 0.12561 0.41113 0.44644 0.0
C6268 C 0.12722 0.39756 0.4572 0.0
C6269 C 0.12983 0.38195 0.45019 0.0
C6270 C 0.1298 0.37971 0.43295 0.0
C6271 C 0.12508 0.39914 0.47562 0.0
C6272 C 0.13718 0.39302 0.48655 0.0
C6273 C 0.11065 0.40556 0.48243 0.0
C6274 C 0.09672 0.41096 0.47169 0.0
C6275 C 0.08863 0.39988 0.46016 0.0
C6276 C 0.07577 0.40515 0.4498 0.0
C6277 C 0.07076 0.42143 0.45099 0.0
C6278 C 0.07855 0.43245 0.46258 0.0
C6279 C 0.09146 0.42725 0.47293 0.0
H6280 H 0.06081 0.42551 0.44297 0.0
H6281 H 0.18072 0.3637 0.54198 0.0
H6282 H 0.88153 0.59384 0.93897 0.0
H6283 H 0.88105 0.59825 0.96875 0.0
H6284 H 0.89355 0.65034 0.96236 0.0
H6285 H 0.89396 0.64608 0.93205 0.0
H6286 H 0.91126 0.63438 0.99024 0.0
H6287 H 0.85552 0.64097 0.9695 0.0
H6288 H 0.83037 0.63285 0.95263 0.0
H6289 H 0.82471 0.58725 0.97949 0.0
H6290 H 0.84999 0.59498 0.99637 0.0
H6291 H 0.89158 0.6479 0.07598 0.0
H6292 H 0.894 0.65031 0.04577 0.0
H6293 H 0.86997 0.60153 0.03932 0.0
H6294 H 0.86705 0.59934 0.06921 0.0
H6295 H 0.85778 0.62007 0.01723 0.0
H6296 H 0.91392 0.61098 0.0357 0.0
H6297 H 0.94003 0.61687 0.05188 0.0
H6298 H 0.94584 0.66473 0.02919 0.0
H6299 H 0.91963 0.6592 0.01304 0.0
C6300 C 0.88432 0.60629 0.94372 0.0
C6301 C 0.88772 0.61963 0.93288 0.0
C6302 C 0.88401 0.60877 0.96089 0.0
C6303 C 0.88711 0.62464 0.96788 0.0
C6304 C 0.8911 0.63796 0.95727 0.0
C6305 C 0.89129 0.63551 0.93992 0.0
C6306 C 0.88539 0.62705 0.98618 0.0
C6307 C 0.8995 0.63161 0.99615 0.0
C6308 C 0.87016 0.62303 0.99399 0.0
C6309 C 0.85471 0.61852 0.98414 0.0
C6310 C 0.84896 0.62917 0.97176 0.0
C6311 C 0.83468 0.62464 0.9622 0.0
C6312 C 0.82596 0.60953 0.96497 0.0
C6313 C 0.83148 0.59895 0.97736 0.0
C6314 C 0.84577 0.60341 0.98694 0.0
C6315 C 0.88683 0.6377 0.0681 0.0
C6316 C 0.87908 0.62345 0.07511 0.0
C6317 C 0.88829 0.63904 0.05078 0.0
C6318 C 0.88231 0.62604 0.04006 0.0
C6319 C 0.87464 0.61182 0.04714 0.0
C6320 C 0.87301 0.61056 0.06434 0.0
C6321 C 0.88376 0.62707 0.02151 0.0
C6322 C 0.86955 0.62312 0.01143 0.0
C6323 C 0.89896 0.63143 0.01366 0.0
C6324 C 0.91472 0.63476 0.02332 0.0
C6325 C 0.9207 0.62281 0.03426 0.0
C6326 C 0.93553 0.62607 0.04341 0.0
C6327 C 0.94456 0.64119 0.0416 0.0
C6328 C 0.93881 0.65305 0.0306 0.0
C6329 C 0.92398 0.64985 0.02145 0.0
H6330 H 0.95604 0.64369 0.04869 0.0
H6331 H 0.81492 0.60603 0.95754 0.0
H6332 H 0.86551 0.38575 0.44574 0.0
H6333 H 0.86355 0.38556 0.47616 0.0
H6334 H 0.91656 0.39641 0.4809 0.0
H6335 H 0.91858 0.3957 0.45085 0.0
H6336 H 0.91035 0.37441 0.50098 0.0
H6337 H 0.8842 0.42528 0.49001 0.0
H6338 H 0.8638 0.44339 0.47719 0.0
H6339 H 0.82386 0.4146 0.49911 0.0
H6340 H 0.84402 0.39618 0.5119 0.0
H6341 H 0.89213 0.40851 0.58953 0.0
H6342 H 0.88932 0.41162 0.55927 0.0
H6343 H 0.88979 0.3585 0.55315 0.0
H6344 H 0.89321 0.35541 0.58306 0.0
H6345 H 0.86903 0.40271 0.53415 0.0
H6346 H 0.91 0.34738 0.52084 0.0
H6347 H 0.9335 0.33332 0.53383 0.0
H6348 H 0.94899 0.37821 0.56018 0.0
H6349 H 0.9256 0.39245 0.54742 0.0
C6350 C 0.87667 0.3883 0.45333 0.0
C6351 C 0.8922 0.39071 0.44585 0.0
C6352 C 0.87557 0.38824 0.47078 0.0
C6353 C 0.88991 0.39102 0.4811 0.0
C6354 C 0.90528 0.39403 0.47346 0.0
C6355 C 0.90642 0.39371 0.45617 0.0
C6356 C 0.88937 0.38997 0.49976 0.0
C6357 C 0.90124 0.38064 0.50811 0.0
C6358 C 0.87775 0.39822 0.50942 0.0
C6359 C 0.86561 0.40926 0.50177 0.0
C6360 C 0.87106 0.42274 0.492 0.0
C6361 C 0.85954 0.43307 0.48475 0.0
C6362 C 0.84254 0.43012 0.48729 0.0
C6363 C 0.83703 0.41685 0.49713 0.0
C6364 C 0.84849 0.40647 0.50439 0.0
C6365 C 0.89145 0.39749 0.58173 0.0
C6366 C 0.89314 0.38173 0.58879 0.0
C6367 C 0.88983 0.39927 0.56438 0.0
C6368 C 0.88973 0.38533 0.55372 0.0
C6369 C 0.89032 0.36954 0.56091 0.0
C6370 C 0.8922 0.36778 0.57812 0.0
C6371 C 0.88997 0.38716 0.53515 0.0
C6372 C 0.87806 0.39652 0.52689 0.0
C6373 C 0.90194 0.37947 0.52551 0.0
C6374 C 0.91597 0.37091 0.53329 0.0
C6375 C 0.91843 0.35422 0.52942 0.0
C6376 C 0.93171 0.34621 0.53677 0.0
C6377 C 0.94269 0.35482 0.5479 0.0
C6378 C 0.94042 0.37148 0.55168 0.0
C6379 C 0.92713 0.37951 0.54443 0.0
H6380 H 0.95298 0.34861 0.55354 0.0
H6381 H 0.83364 0.43813 0.48168 0.0
H6382 H 0.15461 0.6201 0.57905 0.0
H6383 H 0.15562 0.6167 0.54869 0.0
H6384 H 0.10759 0.63762 0.54334 0.0
H6385 H 0.10653 0.6411 0.57331 0.0
H6386 H 0.10908 0.60971 0.52453 0.0
H6387 H 0.14327 0.66011 0.53463 0.0
H6388 H 0.16698 0.67674 0.54723 0.0
H6389 H 0.20109 0.64459 0.52488 0.0
H6390 H 0.17755 0.62763 0.51233 0.0
H6391 H 0.09909 0.63077 0.44103 0.0
H6392 H 0.10297 0.63112 0.47105 0.0
H6393 H 0.15261 0.61431 0.46615 0.0
H6394 H 0.14893 0.6144 0.43573 0.0
H6395 H 0.15281 0.63685 0.49029 0.0
H6396 H 0.11935 0.58765 0.47837 0.0
H6397 H 0.09602 0.57051 0.46573 0.0
H6398 H 0.06115 0.59895 0.49173 0.0
H6399 H 0.08426 0.61642 0.50434 0.0
C6400 C 0.1443 0.62401 0.57138 0.0
C6401 C 0.13053 0.63094 0.57873 0.0
C6402 C 0.1449 0.6221 0.554 0.0
C6403 C 0.13169 0.62696 0.5436 0.0
C6404 C 0.11794 0.63374 0.55098 0.0
C6405 C 0.1174 0.63579 0.56822 0.0
C6406 C 0.13184 0.62493 0.52506 0.0
C6407 C 0.1186 0.61575 0.51706 0.0
C6408 C 0.14452 0.63229 0.51521 0.0
C6409 C 0.15865 0.64249 0.52271 0.0
C6410 C 0.15582 0.65651 0.53253 0.0
C6411 C 0.16923 0.66601 0.53963 0.0
C6412 C 0.18553 0.66169 0.5369 0.0
C6413 C 0.18846 0.6479 0.52701 0.0
C6414 C 0.17509 0.63834 0.51989 0.0
C6415 C 0.11086 0.62707 0.44624 0.0
C6416 C 0.12363 0.62236 0.43584 0.0
C6417 C 0.11304 0.62722 0.46353 0.0
C6418 C 0.12796 0.62238 0.47109 0.0
C6419 C 0.14092 0.618 0.46075 0.0
C6420 C 0.13879 0.61799 0.44332 0.0
C6421 C 0.12979 0.62195 0.48971 0.0
C6422 C 0.14338 0.63063 0.49773 0.0
C6423 C 0.1175 0.61399 0.49965 0.0
C6424 C 0.10355 0.60342 0.49221 0.0
C6425 C 0.1067 0.59031 0.48131 0.0
C6426 C 0.09352 0.58053 0.47416 0.0
C6427 C 0.07711 0.58366 0.4779 0.0
C6428 C 0.07386 0.59655 0.48884 0.0
C6429 C 0.087 0.60638 0.49601 0.0
H6430 H 0.06692 0.57608 0.47235 0.0
H6431 H 0.19589 0.66907 0.54241 0.0
H6432 H 0.32063 0.13652 0.41005 0.0
H6433 H 0.29017 0.138 0.40996 0.0
H6434 H 0.28486 0.0929 0.38087 0.0
H6435 H 0.31511 0.09116 0.38116 0.0
H6436 H 0.26397 0.11842 0.36942 0.0
H6437 H 0.27822 0.09012 0.42005 0.0
H6438 H 0.29325 0.0872 0.44684 0.0
H6439 H 0.27251 0.1316 0.46505 0.0
H6440 H 0.25754 0.13491 0.43826 0.0
H6441 H 0.17673 0.09958 0.37864 0.0
H6442 H 0.20711 0.09888 0.37701 0.0
H6443 H 0.21296 0.13523 0.41659 0.0
H6444 H 0.18287 0.13531 0.41877 0.0
H6445 H 0.23409 0.11424 0.42236 0.0
H6446 H 0.21993 0.14354 0.373 0.0
H6447 H 0.20536 0.14822 0.34629 0.0
H6448 H 0.22613 0.10493 0.3256 0.0
H6449 H 0.24066 0.09986 0.35228 0.0
C6450 C 0.31297 0.12695 0.4036 0.0
C6451 C 0.32036 0.11366 0.39571 0.0
C6452 C 0.29556 0.1278 0.40357 0.0
C6453 C 0.28517 0.11553 0.39543 0.0
C6454 C 0.29256 0.10252 0.3872 0.0
C6455 C 0.30989 0.10151 0.38747 0.0
C6456 C 0.26661 0.11589 0.39589 0.0
C6457 C 0.25739 0.11736 0.38097 0.0
C6458 C 0.25801 0.11489 0.41096 0.0
C6459 C 0.26691 0.11286 0.4271 0.0
C6460 C 0.27698 0.09933 0.42972 0.0
C6461 C 0.28546 0.0976 0.44491 0.0
C6462 C 0.28387 0.10923 0.45763 0.0
C6463 C 0.27375 0.12261 0.45519 0.0
C6464 C 0.26526 0.12442 0.44 0.0
C6465 C 0.18453 0.10744 0.38695 0.0
C6466 C 0.17731 0.11746 0.39886 0.0
C6467 C 0.20195 0.10713 0.38596 0.0
C6468 C 0.21256 0.11716 0.39656 0.0
C6469 C 0.20525 0.12728 0.4083 0.0
C6470 C 0.18793 0.12735 0.40949 0.0
C6471 C 0.23122 0.11694 0.39584 0.0
C6472 C 0.24054 0.11542 0.41075 0.0
C6473 C 0.23991 0.11819 0.38076 0.0
C6474 C 0.23124 0.12122 0.36469 0.0
C6475 C 0.22129 0.13495 0.36279 0.0
C6476 C 0.21306 0.13768 0.34765 0.0
C6477 C 0.21478 0.12685 0.33427 0.0
C6478 C 0.22479 0.11329 0.33599 0.0
C6479 C 0.23303 0.11048 0.35111 0.0
H6480 H 0.2084 0.12899 0.32255 0.0
H6481 H 0.29045 0.10787 0.46938 0.0
H6482 H 0.39115 0.69001 0.90226 0.0
H6483 H 0.39274 0.7201 0.89988 0.0
H6484 H 0.36542 0.71622 0.85313 0.0
H6485 H 0.36445 0.68575 0.85515 0.0
H6486 H 0.38702 0.74115 0.85118 0.0
H6487 H 0.34624 0.72737 0.89074 0.0
H6488 H 0.33408 0.7135 0.91503 0.0
H6489 H 0.37174 0.7376 0.94685 0.0
H6490 H 0.38414 0.75165 0.92268 0.0
H6491 H 0.36534 0.82819 0.86256 0.0
H6492 H 0.36102 0.7977 0.86206 0.0
H6493 H 0.40573 0.79351 0.89196 0.0
H6494 H 0.41045 0.82375 0.89199 0.0
H6495 H 0.37205 0.77313 0.90099 0.0
H6496 H 0.41295 0.78566 0.85817 0.0
H6497 H 0.42184 0.8002 0.83285 0.0
H6498 H 0.37919 0.77863 0.80594 0.0
H6499 H 0.3699 0.76418 0.83122 0.0
C6500 C 0.38558 0.6955 0.89136 0.0
C6501 C 0.37754 0.68538 0.87896 0.0
C6502 C 0.38637 0.71282 0.89008 0.0
C6503 C 0.37874 0.72068 0.87658 0.0
C6504 C 0.3713 0.7106 0.86378 0.0
C6505 C 0.37076 0.69313 0.86492 0.0
C6506 C 0.37835 0.73934 0.87623 0.0
C6507 C 0.3835 0.74805 0.86203 0.0
C6508 C 0.37368 0.74865 0.89025 0.0
C6509 C 0.36618 0.74045 0.90489 0.0
C6510 C 0.35197 0.72966 0.90291 0.0
C6511 C 0.34504 0.72176 0.91666 0.0
C6512 C 0.35219 0.72457 0.93248 0.0
C6513 C 0.36623 0.73541 0.93459 0.0
C6514 C 0.37318 0.74339 0.92087 0.0
C6515 C 0.37414 0.82076 0.86917 0.0
C6516 C 0.38824 0.82843 0.87733 0.0
C6517 C 0.3717 0.80334 0.86881 0.0
C6518 C 0.38309 0.79328 0.87694 0.0
C6519 C 0.39679 0.80097 0.88559 0.0
C6520 C 0.39947 0.81828 0.88559 0.0
C6521 C 0.38108 0.77475 0.87618 0.0
C6522 C 0.37544 0.76613 0.89016 0.0
C6523 C 0.38489 0.76558 0.86185 0.0
C6524 C 0.39062 0.77402 0.84662 0.0
C6525 C 0.40538 0.78416 0.8469 0.0
C6526 C 0.41051 0.79236 0.83255 0.0
C6527 C 0.40106 0.79039 0.81781 0.0
C6528 C 0.38649 0.78017 0.81738 0.0
C6529 C 0.38128 0.77197 0.83171 0.0
H6530 H 0.40505 0.79675 0.80671 0.0
H6531 H 0.34684 0.7184 0.94311 0.0
H6532 H 0.69771 0.92593 0.39203 0.0
H6533 H 0.72754 0.92194 0.39187 0.0
H6534 H 0.71953 0.87402 0.41438 0.0
H6535 H 0.68933 0.87779 0.41428 0.0
H6536 H 0.74643 0.89569 0.42957 0.0
H6537 H 0.72819 0.87402 0.37591 0.0
H6538 H 0.71339 0.87516 0.3488 0.0
H6539 H 0.74371 0.91827 0.33592 0.0
H6540 H 0.75853 0.91754 0.36307 0.0
H6541 H 0.82952 0.87298 0.42241 0.0
H6542 H 0.79925 0.87351 0.42128 0.0
H6543 H 0.80235 0.91303 0.38555 0.0
H6544 H 0.83278 0.91183 0.38596 0.0
H6545 H 0.77723 0.89453 0.3771 0.0
H6546 H 0.79425 0.91852 0.42957 0.0
H6547 H 0.80863 0.92027 0.45698 0.0
H6548 H 0.78055 0.87671 0.47261 0.0
H6549 H 0.76616 0.87457 0.44521 0.0
C6550 C 0.7022 0.91448 0.39694 0.0
C6551 C 0.69103 0.90217 0.40319 0.0
C6552 C 0.71933 0.91222 0.39679 0.0
C6553 C 0.72585 0.89767 0.40306 0.0
C6554 C 0.7148 0.88536 0.40947 0.0
C6555 C 0.69754 0.8875 0.40936 0.0
C6556 C 0.74422 0.89555 0.40295 0.0
C6557 C 0.75315 0.89512 0.41811 0.0
C6558 C 0.75311 0.89548 0.38801 0.0
C6559 C 0.74438 0.8958 0.37158 0.0
C6560 C 0.73162 0.88381 0.36735 0.0
C6561 C 0.72324 0.88438 0.35197 0.0
C6562 C 0.72758 0.8968 0.34066 0.0
C6563 C 0.74035 0.90866 0.34469 0.0
C6564 C 0.74876 0.90817 0.36007 0.0
C6565 C 0.82378 0.88179 0.41428 0.0
C6566 C 0.83364 0.89248 0.40439 0.0
C6567 C 0.80638 0.88217 0.41373 0.0
C6568 C 0.79828 0.89363 0.40368 0.0
C6569 C 0.80813 0.9041 0.39351 0.0
C6570 C 0.82558 0.90345 0.39377 0.0
C6571 C 0.77965 0.89466 0.40381 0.0
C6572 C 0.77061 0.89498 0.38863 0.0
C6573 C 0.77068 0.89501 0.41877 0.0
C6574 C 0.77925 0.89629 0.43528 0.0
C6575 C 0.79123 0.90925 0.43882 0.0
C6576 C 0.79937 0.91032 0.45435 0.0
C6577 C 0.79554 0.89858 0.46651 0.0
C6578 C 0.78352 0.88577 0.46317 0.0
C6579 C 0.77536 0.88464 0.44765 0.0
H6580 H 0.80186 0.89942 0.47853 0.0
H6581 H 0.72107 0.89722 0.32876 0.0
H6582 H 0.6272 0.17878 0.89872 0.0
H6583 H 0.63061 0.20907 0.89978 0.0
H6584 H 0.66012 0.20836 0.85585 0.0
H6585 H 0.65766 0.17786 0.8556 0.0
H6586 H 0.67158 0.2328 0.8728 0.0
H6587 H 0.61602 0.21688 0.85609 0.0
H6588 H 0.58844 0.20219 0.85739 0.0
H6589 H 0.57973 0.22646 0.90369 0.0
H6590 H 0.60733 0.24119 0.90278 0.0
H6591 H 0.65763 0.32013 0.86013 0.0
H6592 H 0.65601 0.28983 0.85565 0.0
H6593 H 0.63781 0.28291 0.90506 0.0
H6594 H 0.63946 0.31284 0.90962 0.0
H6595 H 0.62026 0.26279 0.88174 0.0
H6596 H 0.67847 0.27821 0.89654 0.0
H6597 H 0.7051 0.29371 0.89158 0.0
H6598 H 0.70727 0.27071 0.84352 0.0
H6599 H 0.68054 0.25527 0.84809 0.0
C6600 C 0.63476 0.1851 0.88955 0.0
C6601 C 0.64229 0.17596 0.87718 0.0
C6602 C 0.6365 0.20249 0.88997 0.0
C6603 C 0.64514 0.21129 0.87754 0.0
C6604 C 0.65328 0.20206 0.86556 0.0
C6605 C 0.65196 0.18459 0.86545 0.0
C6606 C 0.64521 0.22997 0.87686 0.0
C6607 C 0.66026 0.23926 0.87453 0.0
C6608 C 0.63051 0.23874 0.87893 0.0
C6609 C 0.61381 0.23005 0.87943 0.0
C6610 C 0.60826 0.21903 0.86659 0.0
C6611 C 0.59262 0.21069 0.86726 0.0
C6612 C 0.58237 0.21335 0.88063 0.0
C6613 C 0.5877 0.2244 0.89335 0.0
C6614 C 0.60332 0.23277 0.89275 0.0
C6615 C 0.65312 0.31215 0.86996 0.0
C6616 C 0.64875 0.31902 0.88526 0.0
C6617 C 0.65229 0.29481 0.86743 0.0
C6618 C 0.64692 0.28398 0.88008 0.0
C6619 C 0.64203 0.29089 0.8951 0.0
C6620 C 0.64303 0.3081 0.8977 0.0
C6621 C 0.64663 0.26545 0.87811 0.0
C6622 C 0.63151 0.25622 0.87991 0.0
C6623 C 0.66114 0.25679 0.87505 0.0
C6624 C 0.67744 0.26572 0.87259 0.0
C6625 C 0.68459 0.27652 0.88489 0.0
C6626 C 0.6997 0.28529 0.88215 0.0
C6627 C 0.70783 0.28323 0.86722 0.0
C6628 C 0.70094 0.27232 0.85506 0.0
C6629 C 0.68582 0.26355 0.85772 0.0
H6630 H 0.71946 0.29008 0.86505 0.0
H6631 H 0.57028 0.20686 0.88113 0.0
H6632 H 0.32258 0.90348 0.64333 0.0
H6633 H 0.29225 0.89972 0.64256 0.0
H6634 H 0.29544 0.85295 0.61701 0.0
H6635 H 0.32603 0.85634 0.6182 0.0
H6636 H 0.2716 0.87956 0.60306 0.0
H6637 H 0.28562 0.84772 0.65179 0.0
H6638 H 0.2997 0.844 0.67894 0.0
H6639 H 0.27406 0.88456 0.69924 0.0
H6640 H 0.26003 0.8887 0.67211 0.0
H6641 H 0.18751 0.85287 0.6023 0.0
H6642 H 0.21765 0.85432 0.60529 0.0
H6643 H 0.21481 0.88668 0.64787 0.0
H6644 H 0.18424 0.88446 0.64543 0.0
H6645 H 0.23903 0.86784 0.65346 0.0
H6646 H 0.22519 0.90086 0.60708 0.0
H6647 H 0.21151 0.90759 0.58042 0.0
H6648 H 0.23716 0.86934 0.55603 0.0
H6649 H 0.25081 0.86219 0.5826 0.0
C6650 C 0.31691 0.89233 0.63757 0.0
C6651 C 0.32686 0.88021 0.63081 0.0
C6652 C 0.29952 0.89021 0.63718 0.0
C6653 C 0.29153 0.87606 0.62974 0.0
C6654 C 0.30133 0.86397 0.62283 0.0
C6655 C 0.31882 0.8659 0.62355 0.0
C6656 C 0.27295 0.87415 0.6291 0.0
C6657 C 0.26445 0.8767 0.614 0.0
C6658 C 0.26361 0.87121 0.64352 0.0
C6659 C 0.27191 0.86863 0.65987 0.0
C6660 C 0.28311 0.85595 0.66199 0.0
C6661 C 0.29105 0.85375 0.67739 0.0
C6662 C 0.28781 0.86407 0.6908 0.0
C6663 C 0.27658 0.87659 0.68884 0.0
C6664 C 0.26861 0.87886 0.67346 0.0
C6665 C 0.19321 0.86027 0.61237 0.0
C6666 C 0.18335 0.8687 0.62351 0.0
C6667 C 0.21058 0.8612 0.61401 0.0
C6668 C 0.21876 0.87104 0.6265 0.0
C6669 C 0.20894 0.87909 0.63801 0.0
C6670 C 0.19142 0.87785 0.6366 0.0
C6671 C 0.23747 0.87297 0.62727 0.0
C6672 C 0.24606 0.87059 0.64243 0.0
C6673 C 0.24693 0.8765 0.61294 0.0
C6674 C 0.23891 0.88089 0.59687 0.0
C6675 C 0.22784 0.89381 0.59605 0.0
C6676 C 0.22009 0.89771 0.58095 0.0
C6677 C 0.22344 0.88888 0.56655 0.0
C6678 C 0.23457 0.87616 0.5672 0.0
C6679 C 0.24233 0.87218 0.58228 0.0
H6680 H 0.21742 0.8919 0.55487 0.0
H6681 H 0.29398 0.86234 0.70271 0.0
H6682 H 0.60867 0.67951 0.13407 0.0
H6683 H 0.60701 0.7098 0.1366 0.0
H6684 H 0.62078 0.71523 0.08555 0.0
H6685 H 0.62239 0.68526 0.08291 0.0
H6686 H 0.62953 0.73655 0.13278 0.0
H6687 H 0.59946 0.74599 0.06786 0.0
H6688 H 0.58115 0.73048 0.04747 0.0
H6689 H 0.55966 0.70138 0.08661 0.0
H6690 H 0.57767 0.71686 0.10725 0.0
H6691 H 0.63163 0.82397 0.11267 0.0
H6692 H 0.63482 0.79378 0.1117 0.0
H6693 H 0.58194 0.78531 0.11723 0.0
H6694 H 0.57868 0.81511 0.11819 0.0
H6695 H 0.5923 0.76533 0.09374 0.0
H6696 H 0.60932 0.78016 0.14963 0.0
H6697 H 0.62603 0.79552 0.17136 0.0
H6698 H 0.67061 0.77589 0.15288 0.0
H6699 H 0.65418 0.7606 0.13086 0.0
C6700 C 0.61133 0.68716 0.12339 0.0
C6701 C 0.61551 0.67981 0.10824 0.0
C6702 C 0.61047 0.70452 0.12487 0.0
C6703 C 0.61361 0.71492 0.11122 0.0
C6704 C 0.61806 0.70758 0.09622 0.0
C6705 C 0.61898 0.69033 0.09475 0.0
C6706 C 0.61184 0.73335 0.11236 0.0
C6707 C 0.62141 0.74282 0.12421 0.0
C6708 C 0.60113 0.74169 0.10135 0.0
C6709 C 0.59004 0.73248 0.08907 0.0
C6710 C 0.59078 0.73633 0.07212 0.0
C6711 C 0.58046 0.72754 0.06051 0.0
C6712 C 0.56929 0.71492 0.06573 0.0
C6713 C 0.56836 0.71111 0.08257 0.0
C6714 C 0.57864 0.71988 0.09423 0.0
C6715 C 0.62069 0.81566 0.11363 0.0
C6716 C 0.6049 0.82209 0.11547 0.0
C6717 C 0.62253 0.79837 0.11316 0.0
C6718 C 0.60862 0.78712 0.11446 0.0
C6719 C 0.59289 0.79359 0.11614 0.0
C6720 C 0.59106 0.81075 0.11673 0.0
C6721 C 0.6102 0.76863 0.11398 0.0
C6722 C 0.60054 0.75911 0.10224 0.0
C6723 C 0.62066 0.76028 0.12523 0.0
C6724 C 0.63054 0.76938 0.1385 0.0
C6725 C 0.6227 0.77922 0.15012 0.0
C6726 C 0.63212 0.7879 0.1625 0.0
C6727 C 0.64938 0.78671 0.16347 0.0
C6728 C 0.65725 0.77681 0.15209 0.0
C6729 C 0.64789 0.76813 0.13966 0.0
H6730 H 0.65664 0.79344 0.17307 0.0
H6731 H 0.56132 0.70812 0.05673 0.0
H6732 H 0.80936 0.10653 0.60342 0.0
H6733 H 0.77918 0.10659 0.60564 0.0
H6734 H 0.78504 0.14248 0.64564 0.0
H6735 H 0.81542 0.14148 0.64415 0.0
H6736 H 0.75952 0.12429 0.65193 0.0
H6737 H 0.77381 0.1532 0.60194 0.0
H6738 H 0.78645 0.15767 0.5747 0.0
H6739 H 0.75975 0.11404 0.55525 0.0
H6740 H 0.7467 0.10945 0.58231 0.0
H6741 H 0.6737 0.14551 0.64085 0.0
H6742 H 0.70434 0.14819 0.64063 0.0
H6743 H 0.70482 0.10457 0.60944 0.0
H6744 H 0.67451 0.10183 0.60967 0.0
H6745 H 0.72692 0.12948 0.59931 0.0
H6746 H 0.71185 0.10199 0.65047 0.0
H6747 H 0.69754 0.1005 0.67716 0.0
H6748 H 0.72551 0.14431 0.69441 0.0
H6749 H 0.73979 0.14625 0.66772 0.0
C6750 C 0.80421 0.11425 0.61286 0.0
C6751 C 0.81479 0.12402 0.62359 0.0
C6752 C 0.78688 0.11447 0.61399 0.0
C6753 C 0.77958 0.12503 0.62539 0.0
C6754 C 0.79019 0.13431 0.6366 0.0
C6755 C 0.8076 0.13371 0.63579 0.0
C6756 C 0.761 0.12653 0.62534 0.0
C6757 C 0.7525 0.12569 0.64041 0.0
C6758 C 0.7515 0.12828 0.6104 0.0
C6759 C 0.75941 0.13091 0.59417 0.0
C6760 C 0.77071 0.14452 0.59187 0.0
C6761 C 0.77794 0.14708 0.57646 0.0
C6762 C 0.77406 0.13607 0.5633 0.0
C6763 C 0.7628 0.12254 0.56547 0.0
C6764 C 0.7554 0.12 0.58081 0.0
C6765 C 0.68036 0.1367 0.6337 0.0
C6766 C 0.67165 0.12344 0.62529 0.0
C6767 C 0.69787 0.13814 0.63371 0.0
C6768 C 0.70696 0.12646 0.62517 0.0
C6769 C 0.69818 0.11371 0.61617 0.0
C6770 C 0.6808 0.11215 0.61634 0.0
C6771 C 0.72558 0.12704 0.62578 0.0
C6772 C 0.73404 0.12824 0.61081 0.0
C6773 C 0.73497 0.12587 0.6408 0.0
C6774 C 0.72676 0.12437 0.65703 0.0
C6775 C 0.71488 0.11136 0.65992 0.0
C6776 C 0.70678 0.11043 0.67505 0.0
C6777 C 0.71057 0.12233 0.68744 0.0
C6778 C 0.72256 0.13512 0.68478 0.0
C6779 C 0.73067 0.13614 0.66967 0.0
H6780 H 0.70423 0.12166 0.6991 0.0
H6781 H 0.77972 0.13807 0.5514 0.0
H6782 H 0.37707 0.18878 0.09108 0.0
H6783 H 0.37636 0.21916 0.0888 0.0
H6784 H 0.41097 0.22517 0.13039 0.0
H6785 H 0.41198 0.19504 0.13254 0.0
H6786 H 0.38425 0.24649 0.13217 0.0
H6787 H 0.42512 0.23069 0.09329 0.0
H6788 H 0.43518 0.21495 0.06958 0.0
H6789 H 0.39828 0.23558 0.03754 0.0
H6790 H 0.3878 0.25125 0.06116 0.0
H6791 H 0.40727 0.33291 0.12473 0.0
H6792 H 0.40712 0.30264 0.12759 0.0
H6793 H 0.38203 0.29661 0.0798 0.0
H6794 H 0.38276 0.32664 0.07663 0.0
H6795 H 0.40355 0.27488 0.08129 0.0
H6796 H 0.36227 0.29066 0.11924 0.0
H6797 H 0.35104 0.30599 0.14268 0.0
H6798 H 0.38673 0.28518 0.17597 0.0
H6799 H 0.39833 0.2699 0.15268 0.0
C6800 C 0.38449 0.19658 0.09976 0.0
C6801 C 0.39465 0.1894 0.11193 0.0
C6802 C 0.3841 0.21396 0.09843 0.0
C6803 C 0.39366 0.22455 0.1094 0.0
C6804 C 0.40346 0.21736 0.12179 0.0
C6805 C 0.40408 0.20006 0.12294 0.0
C6806 C 0.39386 0.24309 0.1078 0.0
C6807 C 0.3886 0.25271 0.1211 0.0
C6808 C 0.39921 0.2513 0.09326 0.0
C6809 C 0.40556 0.242 0.07903 0.0
C6810 C 0.41906 0.23176 0.08122 0.0
C6811 C 0.42485 0.22287 0.06779 0.0
C6812 C 0.41735 0.22422 0.05206 0.0
C6813 C 0.40406 0.23452 0.04973 0.0
C6814 C 0.39819 0.24341 0.06314 0.0
C6815 C 0.40173 0.32513 0.11484 0.0
C6816 C 0.39506 0.33232 0.10044 0.0
C6817 C 0.40154 0.30774 0.11652 0.0
C6818 C 0.39434 0.29709 0.10402 0.0
C6819 C 0.38772 0.30435 0.08966 0.0
C6820 C 0.38811 0.32164 0.08788 0.0
C6821 C 0.39381 0.27846 0.10567 0.0
C6822 C 0.39907 0.26875 0.09237 0.0
C6823 C 0.38826 0.27017 0.12015 0.0
C6824 C 0.38128 0.27928 0.13419 0.0
C6825 C 0.3678 0.28945 0.13154 0.0
C6826 C 0.36136 0.29811 0.1448 0.0
C6827 C 0.3682 0.29659 0.16079 0.0
C6828 C 0.38147 0.28636 0.16357 0.0
C6829 C 0.38797 0.27769 0.15035 0.0
H6830 H 0.3632 0.30331 0.17104 0.0
H6831 H 0.42186 0.21733 0.04168 0.0
H6832 H 0.12275 0.42736 0.17577 0.0
H6833 H 0.12329 0.42525 0.20599 0.0
H6834 H 0.09501 0.37846 0.20233 0.0
H6835 H 0.09456 0.38039 0.17186 0.0
H6836 H 0.08311 0.40035 0.22657 0.0
H6837 H 0.13518 0.37844 0.2118 0.0
H6838 H 0.16219 0.37889 0.19801 0.0
H6839 H 0.17842 0.42293 0.22537 0.0
H6840 H 0.15141 0.42289 0.23915 0.0
H6841 H 0.09151 0.37783 0.31073 0.0
H6842 H 0.09186 0.37868 0.28054 0.0
H6843 H 0.1289 0.4193 0.28323 0.0
H6844 H 0.12912 0.41795 0.31368 0.0
H6845 H 0.13632 0.4005 0.25909 0.0
H6846 H 0.0852 0.4238 0.27325 0.0
H6847 H 0.05812 0.42521 0.28666 0.0
H6848 H 0.03986 0.38126 0.26026 0.0
H6849 H 0.06692 0.37945 0.24685 0.0
C6850 C 0.11661 0.41658 0.18132 0.0
C6851 C 0.10859 0.40404 0.17127 0.0
C6852 C 0.117 0.41537 0.19868 0.0
C6853 C 0.10928 0.40165 0.20656 0.0
C6854 C 0.10108 0.38917 0.1966 0.0
C6855 C 0.10087 0.39027 0.17916 0.0
C6856 C 0.10975 0.40049 0.22516 0.0
C6857 C 0.09473 0.40012 0.23367 0.0
C6858 C 0.12491 0.40078 0.23455 0.0
C6859 C 0.14121 0.40074 0.22639 0.0
C6860 C 0.14446 0.38829 0.21478 0.0
C6861 C 0.15978 0.38846 0.20698 0.0
C6862 C 0.172 0.40095 0.21078 0.0
C6863 C 0.16894 0.41327 0.22242 0.0
C6864 C 0.15363 0.41317 0.23024 0.0
C6865 C 0.09974 0.387 0.30495 0.0
C6866 C 0.11018 0.39794 0.31474 0.0
C6867 C 0.09985 0.38755 0.28757 0.0
C6868 C 0.11008 0.39935 0.27934 0.0
C6869 C 0.12078 0.41011 0.28911 0.0
C6870 C 0.12088 0.40937 0.30657 0.0
C6871 C 0.10962 0.40033 0.26065 0.0
C6872 C 0.12465 0.40071 0.25207 0.0
C6873 C 0.09446 0.40032 0.25118 0.0
C6874 C 0.07814 0.4014 0.25916 0.0
C6875 C 0.07545 0.41437 0.27039 0.0
C6876 C 0.0601 0.41525 0.27798 0.0
C6877 C 0.04729 0.40331 0.27435 0.0
C6878 C 0.0498 0.39049 0.26308 0.0
C6879 C 0.06513 0.38953 0.25547 0.0
H6880 H 0.03542 0.40401 0.28024 0.0
H6881 H 0.18385 0.40106 0.20473 0.0
H6882 H 0.10009 0.61742 0.69172 0.0
H6883 H 0.1037 0.61932 0.72158 0.0
H6884 H 0.15581 0.63283 0.71647 0.0
H6885 H 0.15234 0.63074 0.68602 0.0
H6886 H 0.15045 0.61118 0.7426 0.0
H6887 H 0.12949 0.66246 0.72521 0.0
H6888 H 0.11076 0.68033 0.70965 0.0
H6889 H 0.06902 0.65979 0.73611 0.0
H6890 H 0.08746 0.64158 0.75164 0.0
H6891 H 0.13203 0.65039 0.82956 0.0
H6892 H 0.13403 0.6535 0.79931 0.0
H6893 H 0.12305 0.60098 0.79269 0.0
H6894 H 0.12107 0.59773 0.82251 0.0
H6895 H 0.11257 0.64695 0.77257 0.0
H6896 H 0.14639 0.58591 0.76243 0.0
H6897 H 0.16573 0.56857 0.77788 0.0
H6898 H 0.18398 0.61102 0.80665 0.0
H6899 H 0.16498 0.62869 0.79117 0.0
C6900 C 0.11244 0.62065 0.69675 0.0
C6901 C 0.12592 0.62396 0.68621 0.0
C6902 C 0.11443 0.62185 0.71399 0.0
C6903 C 0.12994 0.62654 0.72141 0.0
C6904 C 0.14366 0.62928 0.71108 0.0
C6905 C 0.14167 0.62807 0.69364 0.0
C6906 C 0.13139 0.62877 0.7399 0.0
C6907 C 0.14225 0.61909 0.74912 0.0
C6908 C 0.12096 0.63936 0.74856 0.0
C6909 C 0.10987 0.6506 0.73955 0.0
C6910 C 0.11631 0.6617 0.72767 0.0
C6911 C 0.10574 0.67189 0.71885 0.0
C6912 C 0.08871 0.6712 0.7219 0.0
C6913 C 0.08222 0.66033 0.73379 0.0
C6914 C 0.09273 0.65008 0.74262 0.0
C6915 C 0.12988 0.63953 0.82165 0.0
C6916 C 0.12647 0.6238 0.82865 0.0
C6917 C 0.13105 0.64133 0.80433 0.0
C6918 C 0.12901 0.62742 0.79364 0.0
C6919 C 0.12503 0.61187 0.80059 0.0
C6920 C 0.12381 0.61007 0.81777 0.0
C6921 C 0.13114 0.62886 0.77526 0.0
C6922 C 0.12093 0.63921 0.76606 0.0
C6923 C 0.14233 0.61905 0.76664 0.0
C6924 C 0.15417 0.60861 0.77568 0.0
C6925 C 0.15462 0.59158 0.77195 0.0
C6926 C 0.16552 0.58169 0.78074 0.0
C6927 C 0.17607 0.58869 0.79324 0.0
C6928 C 0.17579 0.60561 0.79697 0.0
C6929 C 0.16495 0.61557 0.78819 0.0
H6930 H 0.18447 0.581 0.80004 0.0
H6931 H 0.08055 0.67909 0.71505 0.0
H6932 H 0.87052 0.64053 0.18283 0.0
H6933 H 0.87067 0.6437 0.21315 0.0
H6934 H 0.9051 0.60459 0.21775 0.0
H6935 H 0.90409 0.6008 0.1877 0.0
H6936 H 0.88426 0.59903 0.23922 0.0
H6937 H 0.91495 0.6493 0.22495 0.0
H6938 H 0.92013 0.67597 0.21076 0.0
H6939 H 0.87733 0.6953 0.23329 0.0
H6940 H 0.87177 0.66865 0.24745 0.0
H6941 H 0.91738 0.61778 0.32126 0.0
H6942 H 0.91371 0.61646 0.29102 0.0
H6943 H 0.86558 0.63699 0.29471 0.0
H6944 H 0.86896 0.63793 0.32515 0.0
H6945 H 0.89082 0.65262 0.26983 0.0
H6946 H 0.86237 0.6011 0.28555 0.0
H6947 H 0.8601 0.57456 0.30049 0.0
H6948 H 0.90268 0.55787 0.27543 0.0
H6949 H 0.90538 0.58445 0.26055 0.0
C6950 C 0.87831 0.63283 0.19034 0.0
C6951 C 0.88734 0.62046 0.18285 0.0
C6952 C 0.87843 0.63464 0.20774 0.0
C6953 C 0.888 0.62447 0.21801 0.0
C6954 C 0.89746 0.61254 0.21034 0.0
C6955 C 0.897 0.61046 0.19308 0.0
C6956 C 0.88778 0.6256 0.23667 0.0
C6957 C 0.88588 0.61082 0.24579 0.0
C6958 C 0.88951 0.64089 0.24557 0.0
C6959 C 0.89284 0.65692 0.2371 0.0
C6960 C 0.90657 0.6592 0.22678 0.0
C6961 C 0.90959 0.67432 0.21876 0.0
C6962 C 0.89904 0.6873 0.22108 0.0
C6963 C 0.88547 0.68522 0.23147 0.0
C6964 C 0.88239 0.67011 0.23951 0.0
C6965 C 0.90592 0.62188 0.31568 0.0
C6966 C 0.89342 0.62789 0.32568 0.0
C6967 C 0.90387 0.62115 0.29837 0.0
C6968 C 0.88942 0.62671 0.29056 0.0
C6969 C 0.87687 0.63269 0.30045 0.0
C6970 C 0.87875 0.63308 0.31786 0.0
C6971 C 0.88758 0.62612 0.27207 0.0
C6972 C 0.8891 0.64095 0.26308 0.0
C6973 C 0.88588 0.61088 0.26326 0.0
C6974 C 0.88416 0.59483 0.27205 0.0
C6975 C 0.87134 0.59183 0.28334 0.0
C6976 C 0.86996 0.57677 0.29178 0.0
C6977 C 0.88126 0.56455 0.28894 0.0
C6978 C 0.89395 0.56735 0.27763 0.0
C6979 C 0.8954 0.58241 0.26918 0.0
H6980 H 0.88018 0.5529 0.29549 0.0
H6981 H 0.90139 0.699 0.21486 0.0
H6982 H 0.88853 0.41947 0.83325 0.0
H6983 H 0.88947 0.41629 0.80325 0.0
H6984 H 0.91008 0.3684 0.8091 0.0
H6985 H 0.90883 0.37129 0.83951 0.0
H6986 H 0.92686 0.392 0.78511 0.0
H6987 H 0.87278 0.36722 0.79731 0.0
H6988 H 0.84532 0.36664 0.81021 0.0
H6989 H 0.83288 0.41014 0.78318 0.0
H6990 H 0.86038 0.41113 0.7703 0.0
H6991 H 0.92158 0.37137 0.70005 0.0
H6992 H 0.91956 0.37099 0.7301 0.0
H6993 H 0.88388 0.40906 0.72751 0.0
H6994 H 0.88513 0.40867 0.69706 0.0
H6995 H 0.87488 0.38944 0.75047 0.0
H6996 H 0.92763 0.4162 0.73929 0.0
H6997 H 0.95512 0.41922 0.7265 0.0
H6998 H 0.97052 0.37575 0.75184 0.0
H6999 H 0.94303 0.37232 0.76459 0.0
C7000 C 0.89327 0.40819 0.82829 0.0
C7001 C 0.8986 0.39562 0.83896 0.0
C7002 C 0.89377 0.40641 0.81104 0.0
C7003 C 0.8998 0.39211 0.80385 0.0
C7004 C 0.90537 0.37956 0.81436 0.0
C7005 C 0.9046 0.38121 0.83175 0.0
C7006 C 0.90013 0.39049 0.78536 0.0
C7007 C 0.91551 0.39111 0.77752 0.0
C7008 C 0.88534 0.39004 0.7754 0.0
C7009 C 0.8687 0.38933 0.78295 0.0
C7010 C 0.86424 0.37674 0.79421 0.0
C7011 C 0.84866 0.37632 0.8015 0.0
C7012 C 0.83737 0.38836 0.79754 0.0
C7013 C 0.84163 0.40082 0.78624 0.0
C7014 C 0.85721 0.40131 0.77893 0.0
C7015 C 0.91326 0.37966 0.70582 0.0
C7016 C 0.90364 0.39017 0.69609 0.0
C7017 C 0.9122 0.37953 0.72313 0.0
C7018 C 0.90194 0.39035 0.73136 0.0
C7019 C 0.89201 0.40064 0.72162 0.0
C7020 C 0.89275 0.40046 0.70418 0.0
C7021 C 0.90168 0.39089 0.75003 0.0
C7022 C 0.88629 0.39019 0.75795 0.0
C7023 C 0.91651 0.39165 0.76008 0.0
C7024 C 0.93321 0.39392 0.75278 0.0
C7025 C 0.93686 0.40724 0.74208 0.0
C7026 C 0.95244 0.40902 0.73484 0.0
C7027 C 0.96454 0.39765 0.73832 0.0
C7028 C 0.96112 0.38453 0.74913 0.0
C7029 C 0.94555 0.38267 0.75639 0.0
H7030 H 0.97658 0.39903 0.73266 0.0
H7031 H 0.82532 0.38803 0.80321 0.0
H7032 H 0.68873 0.8864 0.66275 0.0
H7033 H 0.71883 0.88536 0.66183 0.0
H7034 H 0.71357 0.84756 0.62365 0.0
H7035 H 0.68308 0.84824 0.62484 0.0
H7036 H 0.73809 0.84068 0.64529 0.0
H7037 H 0.72388 0.8889 0.6148 0.0
H7038 H 0.71012 0.91521 0.61068 0.0
H7039 H 0.73869 0.93729 0.65163 0.0
H7040 H 0.75241 0.911 0.65619 0.0
H7041 H 0.82052 0.84828 0.61758 0.0
H7042 H 0.79049 0.8489 0.61967 0.0
H7043 H 0.79667 0.88559 0.65883 0.0
H7044 H 0.82711 0.88519 0.65666 0.0
H7045 H 0.77175 0.89313 0.63702 0.0
H7046 H 0.78597 0.8449 0.66743 0.0
H7047 H 0.79916 0.81834 0.67197 0.0
H7048 H 0.77042 0.79628 0.63113 0.0
H7049 H 0.75722 0.82279 0.62618 0.0
C7050 C 0.69388 0.87779 0.65415 0.0
C7051 C 0.68339 0.86748 0.64376 0.0
C7052 C 0.7112 0.87728 0.65359 0.0
C7053 C 0.71862 0.86665 0.64242 0.0
C7054 C 0.7082 0.85596 0.63233 0.0
C7055 C 0.69076 0.85636 0.63299 0.0
C7056 C 0.73721 0.86696 0.64123 0.0
C7057 C 0.7454 0.85212 0.64323 0.0
C7058 C 0.74692 0.88193 0.63897 0.0
C7059 C 0.73908 0.89793 0.63592 0.0
C7060 C 0.72718 0.89934 0.62297 0.0
C7061 C 0.71938 0.91425 0.62056 0.0
C7062 C 0.7235 0.9279 0.63091 0.0
C7063 C 0.7355 0.9267 0.64363 0.0
C7064 C 0.7433 0.9118 0.64613 0.0
C7065 C 0.81561 0.8565 0.62672 0.0
C7066 C 0.82637 0.8666 0.63707 0.0
C7067 C 0.79832 0.85679 0.62792 0.0
C7068 C 0.79118 0.86707 0.6396 0.0
C7069 C 0.80183 0.87746 0.64976 0.0
C7070 C 0.81925 0.87719 0.64856 0.0
C7071 C 0.77263 0.86685 0.64106 0.0
C7072 C 0.76444 0.8817 0.63909 0.0
C7073 C 0.76291 0.85188 0.64332 0.0
C7074 C 0.77071 0.83588 0.64635 0.0
C7075 C 0.78255 0.83442 0.65934 0.0
C7076 C 0.79001 0.81937 0.662 0.0
C7077 C 0.78566 0.80564 0.65182 0.0
C7078 C 0.77379 0.80693 0.63899 0.0
C7079 C 0.7663 0.82196 0.63627 0.0
H7080 H 0.79146 0.794 0.6539 0.0
H7081 H 0.71742 0.93942 0.62905 0.0
H7082 H 0.62139 0.1793 0.10037 0.0
H7083 H 0.6245 0.20967 0.09737 0.0
H7084 H 0.61254 0.21594 0.14877 0.0
H7085 H 0.60958 0.18601 0.15189 0.0
H7086 H 0.60214 0.23437 0.10149 0.0
H7087 H 0.63457 0.24906 0.16531 0.0
H7088 H 0.65385 0.23618 0.18507 0.0
H7089 H 0.67376 0.20827 0.14533 0.0
H7090 H 0.65478 0.22115 0.1253 0.0
H7091 H 0.5991 0.32187 0.1199 0.0
H7092 H 0.59649 0.29142 0.12214 0.0
H7093 H 0.64932 0.28899 0.11576 0.0
H7094 H 0.65205 0.31902 0.11368 0.0
H7095 H 0.64005 0.26842 0.13922 0.0
H7096 H 0.62104 0.27998 0.0838 0.0
H7097 H 0.60343 0.29289 0.06255 0.0
H7098 H 0.55986 0.26833 0.08254 0.0
H7099 H 0.57721 0.25547 0.10407 0.0
C7100 C 0.61965 0.18715 0.11107 0.0
C7101 C 0.61531 0.18007 0.12639 0.0
C7102 C 0.62127 0.20454 0.10931 0.0
C7103 C 0.61882 0.21521 0.12286 0.0
C7104 C 0.61467 0.2081 0.13814 0.0
C7105 C 0.61297 0.19086 0.13989 0.0
C7106 C 0.62057 0.23375 0.1213 0.0
C7107 C 0.61045 0.24179 0.10973 0.0
C7108 C 0.63148 0.24359 0.13192 0.0
C7109 C 0.64314 0.23596 0.14384 0.0
C7110 C 0.64312 0.24023 0.16078 0.0
C7111 C 0.65398 0.23292 0.17203 0.0
C7112 C 0.66498 0.22138 0.16647 0.0
C7113 C 0.66519 0.21717 0.14963 0.0
C7114 C 0.65437 0.22445 0.13833 0.0
C7115 C 0.61017 0.31485 0.11915 0.0
C7116 C 0.62577 0.32303 0.11655 0.0
C7117 C 0.60865 0.29739 0.1203 0.0
C7118 C 0.6227 0.28775 0.11895 0.0
C7119 C 0.63827 0.296 0.11683 0.0
C7120 C 0.63978 0.31329 0.1156 0.0
C7121 C 0.62144 0.26912 0.11958 0.0
C7122 C 0.63167 0.26103 0.13101 0.0
C7123 C 0.61084 0.25929 0.10865 0.0
C7124 C 0.6004 0.2669 0.09565 0.0
C7125 C 0.60769 0.27743 0.08374 0.0
C7126 C 0.59776 0.28473 0.07163 0.0
C7127 C 0.58053 0.28147 0.07122 0.0
C7128 C 0.57321 0.27087 0.08289 0.0
C7129 C 0.58308 0.26357 0.09504 0.0
H7130 H 0.57286 0.28713 0.06184 0.0
H7131 H 0.67337 0.21572 0.1752 0.0
H7132 H 0.17754 0.1613 0.62177 0.0
H7133 H 0.20766 0.15969 0.62297 0.0
H7134 H 0.20298 0.11853 0.65665 0.0
H7135 H 0.17257 0.12044 0.65589 0.0
H7136 H 0.22908 0.13818 0.66586 0.0
H7137 H 0.21036 0.11308 0.61427 0.0
H7138 H 0.19479 0.11165 0.5875 0.0
H7139 H 0.22336 0.15434 0.57053 0.0
H7140 H 0.239 0.15614 0.59729 0.0
H7141 H 0.30935 0.10916 0.65494 0.0
H7142 H 0.27942 0.11206 0.6545 0.0
H7143 H 0.28526 0.15493 0.62317 0.0
H7144 H 0.31556 0.15194 0.62335 0.0
H7145 H 0.25872 0.1347 0.61283 0.0
H7146 H 0.27791 0.15901 0.66493 0.0
H7147 H 0.29327 0.15967 0.69183 0.0
H7148 H 0.26369 0.11724 0.70786 0.0
H7149 H 0.24828 0.1162 0.68096 0.0
C7150 C 0.18285 0.15192 0.62953 0.0
C7151 C 0.17254 0.14093 0.63867 0.0
C7152 C 0.20016 0.15096 0.63012 0.0
C7153 C 0.20773 0.13874 0.6396 0.0
C7154 C 0.19752 0.12803 0.64915 0.0
C7155 C 0.18011 0.12911 0.64871 0.0
C7156 C 0.22621 0.1371 0.63924 0.0
C7157 C 0.23549 0.1372 0.65426 0.0
C7158 C 0.2348 0.13613 0.62412 0.0
C7159 C 0.22575 0.13482 0.60784 0.0
C7160 C 0.21328 0.1222 0.60485 0.0
C7161 C 0.20444 0.12133 0.58968 0.0
C7162 C 0.20804 0.13294 0.57734 0.0
C7163 C 0.22057 0.14538 0.58011 0.0
C7164 C 0.22945 0.14631 0.59527 0.0
C7165 C 0.30438 0.11927 0.64794 0.0
C7166 C 0.315 0.13042 0.63929 0.0
C7167 C 0.28716 0.12094 0.64777 0.0
C7168 C 0.27998 0.13389 0.63906 0.0
C7169 C 0.29047 0.14487 0.63008 0.0
C7170 C 0.3078 0.14319 0.63021 0.0
C7171 C 0.26157 0.13582 0.63944 0.0
C7172 C 0.2523 0.13574 0.62442 0.0
C7173 C 0.25299 0.13667 0.65457 0.0
C7174 C 0.26202 0.13746 0.67088 0.0
C7175 C 0.27473 0.14977 0.67416 0.0
C7176 C 0.28344 0.15022 0.68941 0.0
C7177 C 0.27946 0.1385 0.70154 0.0
C7178 C 0.26675 0.12632 0.69845 0.0
C7179 C 0.25801 0.12581 0.68321 0.0
H7180 H 0.28623 0.13886 0.71333 0.0
H7181 H 0.20113 0.13228 0.56563 0.0
H7182 H 0.41454 0.82813 0.13662 0.0
H7183 H 0.41141 0.79808 0.1351 0.0
H7184 H 0.36831 0.80131 0.10264 0.0
H7185 H 0.37123 0.83182 0.10423 0.0
H7186 H 0.36345 0.77716 0.12625 0.0
H7187 H 0.40577 0.79157 0.08736 0.0
H7188 H 0.43185 0.80568 0.07832 0.0
H7189 H 0.45955 0.77945 0.11501 0.0
H7190 H 0.43358 0.76536 0.12445 0.0
H7191 H 0.35852 0.69431 0.09862 0.0
H7192 H 0.36164 0.72419 0.10109 0.0
H7193 H 0.40706 0.7201 0.12999 0.0
H7194 H 0.40436 0.68965 0.12697 0.0
H7195 H 0.41087 0.74479 0.10877 0.0
H7196 H 0.36886 0.73025 0.14772 0.0
H7197 H 0.34286 0.71627 0.15718 0.0
H7198 H 0.3147 0.74278 0.12107 0.0
H7199 H 0.34056 0.75678 0.11126 0.0
C7200 C 0.40432 0.8226 0.12911 0.0
C7201 C 0.39317 0.83262 0.12047 0.0
C7202 C 0.40261 0.80527 0.12822 0.0
C7203 C 0.38978 0.79727 0.11857 0.0
C7204 C 0.37838 0.80713 0.11014 0.0
C7205 C 0.38009 0.82461 0.11101 0.0
C7206 C 0.38845 0.77867 0.11738 0.0
C7207 C 0.37373 0.77011 0.12219 0.0
C7208 C 0.40202 0.76931 0.11258 0.0
C7209 C 0.4177 0.77751 0.1067 0.0
C7210 C 0.41741 0.78888 0.09356 0.0
C7211 C 0.43217 0.79687 0.08836 0.0
C7212 C 0.44735 0.79349 0.09611 0.0
C7213 C 0.44779 0.78206 0.10903 0.0
C7214 C 0.43305 0.77405 0.1143 0.0
C7215 C 0.36921 0.69958 0.10562 0.0
C7216 C 0.38114 0.68932 0.1127 0.0
C7217 C 0.37091 0.71685 0.1071 0.0
C7218 C 0.38438 0.72461 0.11605 0.0
C7219 C 0.39645 0.7145 0.1231 0.0
C7220 C 0.39486 0.69705 0.12145 0.0
C7221 C 0.38583 0.74322 0.11762 0.0
C7222 C 0.40058 0.75181 0.11288 0.0
C7223 C 0.37229 0.75261 0.12256 0.0
C7224 C 0.35667 0.74448 0.12867 0.0
C7225 C 0.35713 0.73305 0.14175 0.0
C7226 C 0.34242 0.72512 0.14718 0.0
C7227 C 0.32714 0.72861 0.13971 0.0
C7228 C 0.32655 0.74009 0.12684 0.0
C7229 C 0.34122 0.74805 0.12136 0.0
H7230 H 0.31577 0.72243 0.1439 0.0
H7231 H 0.45876 0.79971 0.09208 0.0
H7232 H 0.67721 0.12366 0.40763 0.0
H7233 H 0.70765 0.1268 0.41074 0.0
H7234 H 0.71248 0.08811 0.37424 0.0
H7235 H 0.68238 0.08474 0.37124 0.0
H7236 H 0.73355 0.08371 0.39911 0.0
H7237 H 0.71948 0.12986 0.36519 0.0
H7238 H 0.70492 0.15511 0.35812 0.0
H7239 H 0.72682 0.17995 0.4013 0.0
H7240 H 0.74135 0.15475 0.40876 0.0
H7241 H 0.81995 0.09799 0.38191 0.0
H7242 H 0.78948 0.0951 0.3795 0.0
H7243 H 0.78578 0.13324 0.41679 0.0
H7244 H 0.81599 0.13635 0.41915 0.0
H7245 H 0.76416 0.13802 0.39202 0.0
H7246 H 0.77885 0.09155 0.42542 0.0
H7247 H 0.79346 0.06614 0.43186 0.0
H7248 H 0.7704 0.04177 0.389 0.0
H7249 H 0.75585 0.0671 0.38213 0.0
C7250 C 0.68475 0.11583 0.40025 0.0
C7251 C 0.67718 0.10398 0.38915 0.0
C7252 C 0.7022 0.11767 0.402 0.0
C7253 C 0.7125 0.10777 0.39263 0.0
C7254 C 0.70493 0.09589 0.38167 0.0
C7255 C 0.68759 0.09404 0.37992 0.0
C7256 C 0.73113 0.10968 0.3941 0.0
C7257 C 0.74022 0.09557 0.39738 0.0
C7258 C 0.73997 0.12516 0.39214 0.0
C7259 C 0.73136 0.14036 0.38762 0.0
C7260 C 0.7211 0.14067 0.37324 0.0
C7261 C 0.71286 0.15497 0.36915 0.0
C7262 C 0.7149 0.16911 0.37928 0.0
C7263 C 0.72523 0.16898 0.39348 0.0
C7264 C 0.73347 0.15469 0.39764 0.0
C7265 C 0.81267 0.10577 0.3896 0.0
C7266 C 0.82058 0.1174 0.40073 0.0
C7267 C 0.7952 0.10407 0.38826 0.0
C7268 C 0.78521 0.11386 0.39807 0.0
C7269 C 0.7931 0.12554 0.40905 0.0
C7270 C 0.81049 0.12725 0.41041 0.0
C7271 C 0.76657 0.11205 0.39699 0.0
C7272 C 0.75748 0.12616 0.39379 0.0
C7273 C 0.75773 0.09656 0.39896 0.0
C7274 C 0.76638 0.08128 0.40317 0.0
C7275 C 0.77698 0.08081 0.4173 0.0
C7276 C 0.78524 0.06643 0.42104 0.0
C7277 C 0.78288 0.05238 0.41084 0.0
C7278 C 0.77223 0.05267 0.39688 0.0
C7279 C 0.76397 0.06703 0.39306 0.0
H7280 H 0.78929 0.04126 0.41376 0.0
H7281 H 0.70852 0.18018 0.37609 0.0
H7282 H 0.38544 0.32823 0.85655 0.0
H7283 H 0.38758 0.29802 0.85515 0.0
H7284 H 0.35199 0.292 0.89399 0.0
H7285 H 0.35006 0.32202 0.89568 0.0
H7286 H 0.37594 0.27191 0.89959 0.0
H7287 H 0.34172 0.2839 0.85191 0.0
H7288 H 0.33462 0.29783 0.82574 0.0
H7289 H 0.37715 0.27826 0.80293 0.0
H7290 H 0.38464 0.26439 0.82905 0.0
H7291 H 0.35932 0.184 0.88866 0.0
H7292 H 0.35651 0.21416 0.89048 0.0
H7293 H 0.39248 0.22153 0.85217 0.0
H7294 H 0.39515 0.19169 0.85013 0.0
H7295 H 0.36778 0.24086 0.84642 0.0
H7296 H 0.40212 0.22908 0.89416 0.0
H7297 H 0.40923 0.21515 0.92033 0.0
H7298 H 0.36642 0.23429 0.943 0.0
H7299 H 0.35892 0.24816 0.91688 0.0
C7300 C 0.37806 0.32048 0.86478 0.0
C7301 C 0.3675 0.32766 0.87615 0.0
C7302 C 0.37923 0.30314 0.86393 0.0
C7303 C 0.36979 0.29255 0.87433 0.0
C7304 C 0.35942 0.29976 0.8858 0.0
C7305 C 0.35827 0.31703 0.88669 0.0
C7306 C 0.37064 0.27399 0.87337 0.0
C7307 C 0.37393 0.26513 0.88797 0.0
C7308 C 0.36834 0.26499 0.85823 0.0
C7309 C 0.36383 0.27325 0.84249 0.0
C7310 C 0.34962 0.28266 0.84135 0.0
C7311 C 0.34552 0.29053 0.82652 0.0
C7312 C 0.35545 0.28897 0.81269 0.0
C7313 C 0.36948 0.27949 0.81366 0.0
C7314 C 0.37366 0.27161 0.82847 0.0
C7315 C 0.36661 0.19205 0.88062 0.0
C7316 C 0.37745 0.1853 0.86925 0.0
C7317 C 0.36505 0.20934 0.88171 0.0
C7318 C 0.37438 0.22029 0.87154 0.0
C7319 C 0.38508 0.21349 0.86013 0.0
C7320 C 0.38663 0.19631 0.85903 0.0
C7321 C 0.37313 0.23879 0.87262 0.0
C7322 C 0.36976 0.24764 0.85804 0.0
C7323 C 0.37535 0.24777 0.88778 0.0
C7324 C 0.37986 0.2395 0.90351 0.0
C7325 C 0.39415 0.23021 0.90469 0.0
C7326 C 0.39826 0.22235 0.91952 0.0
C7327 C 0.38826 0.22379 0.9333 0.0
C7328 C 0.37414 0.23315 0.9323 0.0
C7329 C 0.36996 0.24103 0.91749 0.0
H7330 H 0.39146 0.21769 0.94478 0.0
H7331 H 0.35226 0.29507 0.80122 0.0
H7332 H 0.19564 0.8759 0.42442 0.0
H7333 H 0.22563 0.87731 0.42102 0.0
H7334 H 0.21993 0.90844 0.37824 0.0
H7335 H 0.18959 0.90709 0.38156 0.0
H7336 H 0.24092 0.88285 0.37266 0.0
H7337 H 0.23561 0.92482 0.41466 0.0
H7338 H 0.22638 0.93602 0.44124 0.0
H7339 H 0.25321 0.89951 0.46778 0.0
H7340 H 0.26246 0.88797 0.44134 0.0
H7341 H 0.3245 0.90805 0.36209 0.0
H7342 H 0.29496 0.90612 0.36697 0.0
H7343 H 0.30383 0.88015 0.41264 0.0
H7344 H 0.33399 0.88259 0.40811 0.0
H7345 H 0.28112 0.90203 0.41735 0.0
H7346 H 0.28689 0.86004 0.37647 0.0
H7347 H 0.2961 0.84778 0.35038 0.0
H7348 H 0.2681 0.88229 0.3223 0.0
H7349 H 0.2589 0.89493 0.34824 0.0
C7350 C 0.20066 0.88315 0.41429 0.0
C7351 C 0.19005 0.89136 0.40323 0.0
C7352 C 0.21792 0.88399 0.41242 0.0
C7353 C 0.22517 0.89306 0.39945 0.0
C7354 C 0.21467 0.90137 0.38839 0.0
C7355 C 0.19732 0.90065 0.39034 0.0
C7356 C 0.24361 0.89337 0.39724 0.0
C7357 C 0.2497 0.8873 0.38233 0.0
C7358 C 0.25515 0.89851 0.4101 0.0
C7359 C 0.24962 0.90545 0.42601 0.0
C7360 C 0.23944 0.9191 0.42616 0.0
C7361 C 0.23424 0.92553 0.4412 0.0
C7362 C 0.2392 0.91848 0.45619 0.0
C7363 C 0.24938 0.90497 0.45616 0.0
C7364 C 0.25464 0.8985 0.44116 0.0
C7365 C 0.32034 0.90177 0.37318 0.0
C7366 C 0.33185 0.89536 0.38465 0.0
C7367 C 0.30326 0.90061 0.3759 0.0
C7368 C 0.29693 0.8927 0.39002 0.0
C7369 C 0.30831 0.88625 0.40158 0.0
C7370 C 0.32558 0.88755 0.39893 0.0
C7371 C 0.2785 0.89167 0.39266 0.0
C7372 C 0.27238 0.89755 0.40766 0.0
C7373 C 0.26689 0.88615 0.37996 0.0
C7374 C 0.27231 0.87852 0.36431 0.0
C7375 C 0.28279 0.86509 0.36474 0.0
C7376 C 0.28799 0.85806 0.34997 0.0
C7377 C 0.28272 0.86427 0.33469 0.0
C7378 C 0.27219 0.8775 0.33415 0.0
C7379 C 0.26696 0.88459 0.34888 0.0
H7380 H 0.28677 0.85881 0.32328 0.0
H7381 H 0.23518 0.92349 0.46782 0.0
H7382 H 0.6314 0.67537 0.86266 0.0
H7383 H 0.62953 0.70559 0.86089 0.0
H7384 H 0.66526 0.71226 0.90151 0.0
H7385 H 0.66696 0.68227 0.90354 0.0
H7386 H 0.64131 0.73269 0.90565 0.0
H7387 H 0.67567 0.71921 0.86017 0.0
H7388 H 0.6828 0.70455 0.83457 0.0
H7389 H 0.64064 0.72393 0.809 0.0
H7390 H 0.63313 0.73853 0.83454 0.0
H7391 H 0.65933 0.8201 0.89493 0.0
H7392 H 0.66168 0.78993 0.8971 0.0
H7393 H 0.62554 0.7822 0.85698 0.0
H7394 H 0.62328 0.81206 0.85462 0.0
H7395 H 0.65012 0.76236 0.85271 0.0
H7396 H 0.61569 0.77573 0.89822 0.0
H7397 H 0.60859 0.79042 0.92381 0.0
H7398 H 0.65094 0.77132 0.94929 0.0
H7399 H 0.65843 0.75669 0.92376 0.0
C7400 C 0.63887 0.68327 0.87121 0.0
C7401 C 0.64941 0.67628 0.88317 0.0
C7402 C 0.63785 0.7006 0.87015 0.0
C7403 C 0.64741 0.71138 0.88095 0.0
C7404 C 0.65774 0.70436 0.89301 0.0
C7405 C 0.65876 0.6871 0.89409 0.0
C7406 C 0.64674 0.72992 0.87977 0.0
C7407 C 0.64346 0.73916 0.89409 0.0
C7408 C 0.64922 0.73852 0.86469 0.0
C7409 C 0.65375 0.72982 0.84931 0.0
C7410 C 0.66785 0.72024 0.84912 0.0
C7411 C 0.67197 0.71197 0.83462 0.0
C7412 C 0.66216 0.71328 0.82018 0.0
C7413 C 0.64822 0.72291 0.82021 0.0
C7414 C 0.64403 0.7312 0.83468 0.0
C7415 C 0.65191 0.81197 0.88656 0.0
C7416 C 0.64114 0.81862 0.8746 0.0
C7417 C 0.6532 0.79468 0.88785 0.0
C7418 C 0.64369 0.78363 0.87727 0.0
C7419 C 0.63306 0.79032 0.86527 0.0
C7420 C 0.63177 0.80751 0.86398 0.0
C7421 C 0.64467 0.76513 0.87857 0.0
C7422 C 0.64801 0.75589 0.86427 0.0
C7423 C 0.64224 0.75655 0.89366 0.0
C7424 C 0.63772 0.76526 0.90904 0.0
C7425 C 0.62356 0.77476 0.90925 0.0
C7426 C 0.61946 0.78307 0.92374 0.0
C7427 C 0.62934 0.78184 0.93815 0.0
C7428 C 0.64332 0.77228 0.93811 0.0
C7429 C 0.6475 0.76397 0.92363 0.0
H7430 H 0.62614 0.78828 0.94936 0.0
H7431 H 0.66537 0.70686 0.80896 0.0
H7432 H 0.89919 0.6465 0.82612 0.0
H7433 H 0.90064 0.64884 0.79582 0.0
H7434 H 0.86136 0.61065 0.78988 0.0
H7435 H 0.86008 0.60803 0.81989 0.0
H7436 H 0.88425 0.60515 0.76855 0.0
H7437 H 0.85508 0.65311 0.78412 0.0
H7438 H 0.85092 0.67915 0.79933 0.0
H7439 H 0.89492 0.70162 0.77814 0.0
H7440 H 0.89946 0.67562 0.76297 0.0
H7441 H 0.86418 0.61748 0.68261 0.0
H7442 H 0.86287 0.61571 0.71295 0.0
H7443 H 0.90341 0.65264 0.71807 0.0
H7444 H 0.90469 0.65458 0.68796 0.0
H7445 H 0.88017 0.65893 0.73975 0.0
H7446 H 0.90912 0.61094 0.72399 0.0
H7447 H 0.91307 0.58494 0.70865 0.0
H7448 H 0.86922 0.56251 0.73016 0.0
H7449 H 0.86487 0.58848 0.74546 0.0
C7450 C 0.89084 0.63864 0.81835 0.0
C7451 C 0.87947 0.62714 0.82555 0.0
C7452 C 0.89162 0.64002 0.80098 0.0
C7453 C 0.88098 0.63004 0.7904 0.0
C7454 C 0.86973 0.61851 0.79763 0.0
C7455 C 0.86898 0.61709 0.8149 0.0
C7456 C 0.88152 0.63139 0.77184 0.0
C7457 C 0.88314 0.61691 0.76229 0.0
C7458 C 0.88043 0.64672 0.76349 0.0
C7459 C 0.8777 0.66237 0.77255 0.0
C7460 C 0.86393 0.66357 0.78281 0.0
C7461 C 0.8615 0.67832 0.79141 0.0
C7462 C 0.87267 0.69201 0.78974 0.0
C7463 C 0.88629 0.69099 0.77944 0.0
C7464 C 0.88879 0.67626 0.77083 0.0
C7465 C 0.8728 0.62523 0.6902 0.0
C7466 C 0.88455 0.63615 0.68274 0.0
C7467 C 0.87209 0.62417 0.70759 0.0
C7468 C 0.88315 0.63394 0.71794 0.0
C7469 C 0.89472 0.64497 0.71048 0.0
C7470 C 0.89546 0.64602 0.69316 0.0
C7471 C 0.88282 0.63269 0.7365 0.0
C7472 C 0.88126 0.64718 0.74604 0.0
C7473 C 0.88393 0.61736 0.74484 0.0
C7474 C 0.88658 0.60171 0.73574 0.0
C7475 C 0.90025 0.60051 0.72535 0.0
C7476 C 0.90257 0.58577 0.71668 0.0
C7477 C 0.89138 0.5721 0.71839 0.0
C7478 C 0.87787 0.57312 0.72882 0.0
C7479 C 0.87547 0.58784 0.73751 0.0
H7480 H 0.8932 0.5607 0.71167 0.0
H7481 H 0.87077 0.70343 0.79641 0.0
H7482 H 0.88164 0.40219 0.33859 0.0
H7483 H 0.88048 0.40451 0.30814 0.0
H7484 H 0.90175 0.35681 0.30365 0.0
H7485 H 0.90287 0.35432 0.33366 0.0
H7486 H 0.90504 0.40456 0.28429 0.0
H7487 H 0.88414 0.33601 0.27049 0.0
H7488 H 0.86789 0.31313 0.28361 0.0
H7489 H 0.84009 0.34835 0.31004 0.0
H7490 H 0.85599 0.37143 0.29688 0.0
H7491 H 0.91595 0.38551 0.19786 0.0
H7492 H 0.91693 0.38276 0.22833 0.0
H7493 H 0.86346 0.38382 0.22902 0.0
H7494 H 0.86244 0.38677 0.19891 0.0
H7495 H 0.87517 0.36033 0.25029 0.0
H7496 H 0.88573 0.41791 0.23793 0.0
H7497 H 0.90052 0.4416 0.22464 0.0
H7498 H 0.94582 0.43024 0.25045 0.0
H7499 H 0.93135 0.40628 0.26368 0.0
C7500 C 0.88598 0.39217 0.33111 0.0
C7501 C 0.89227 0.37804 0.33873 0.0
C7502 C 0.88542 0.39356 0.31369 0.0
C7503 C 0.89093 0.38078 0.30351 0.0
C7504 C 0.89725 0.36677 0.31112 0.0
C7505 C 0.89789 0.3654 0.32841 0.0
C7506 C 0.88994 0.38176 0.28495 0.0
C7507 C 0.89851 0.39488 0.27689 0.0
C7508 C 0.8813 0.36924 0.27514 0.0
C7509 C 0.87137 0.35544 0.2828 0.0
C7510 C 0.87449 0.33887 0.27902 0.0
C7511 C 0.86536 0.32587 0.28648 0.0
C7512 C 0.853 0.32929 0.29769 0.0
C7513 C 0.8497 0.34572 0.3014 0.0
C7514 C 0.85878 0.35876 0.29395 0.0
C7515 C 0.90442 0.38486 0.20452 0.0
C7516 C 0.88913 0.3864 0.19595 0.0
C7517 C 0.90499 0.38342 0.22194 0.0
C7518 C 0.89026 0.38322 0.23105 0.0
C7519 C 0.87499 0.38395 0.22236 0.0
C7520 C 0.87444 0.38567 0.2051 0.0
C7521 C 0.89058 0.38292 0.24964 0.0
C7522 C 0.88181 0.36994 0.2577 0.0
C7523 C 0.89884 0.39568 0.2594 0.0
C7524 C 0.90751 0.4102 0.25166 0.0
C7525 C 0.89888 0.42039 0.24068 0.0
C7526 C 0.9072 0.43387 0.23316 0.0
C7527 C 0.92411 0.4374 0.23667 0.0
C7528 C 0.93273 0.42748 0.24773 0.0
C7529 C 0.92447 0.41394 0.25524 0.0
H7530 H 0.93053 0.44785 0.23084 0.0
H7531 H 0.84597 0.3192 0.30348 0.0
H7532 H 0.09569 0.37903 0.81445 0.0
H7533 H 0.0923 0.37583 0.78412 0.0
H7534 H 0.13569 0.40848 0.77757 0.0
H7535 H 0.13918 0.41172 0.80741 0.0
H7536 H 0.11104 0.4167 0.75667 0.0
H7537 H 0.13706 0.36652 0.77254 0.0
H7538 H 0.13945 0.34041 0.78792 0.0
H7539 H 0.093 0.32139 0.7661 0.0
H7540 H 0.09022 0.3475 0.75076 0.0
H7541 H 0.12721 0.40294 0.67119 0.0
H7542 H 0.12958 0.40461 0.70157 0.0
H7543 H 0.08776 0.36932 0.70525 0.0
H7544 H 0.08548 0.36736 0.67512 0.0
H7545 H 0.11037 0.3622 0.72773 0.0
H7546 H 0.08427 0.41171 0.7115 0.0
H7547 H 0.08131 0.43776 0.69616 0.0
H7548 H 0.12686 0.45811 0.7188 0.0
H7549 H 0.13023 0.43206 0.73409 0.0
C7550 C 0.10454 0.38546 0.80655 0.0
C7551 C 0.11773 0.3956 0.81357 0.0
C7552 C 0.10261 0.38361 0.78917 0.0
C7553 C 0.11377 0.3919 0.77843 0.0
C7554 C 0.12685 0.40199 0.78546 0.0
C7555 C 0.12886 0.40375 0.80268 0.0
C7556 C 0.11201 0.39029 0.75989 0.0
C7557 C 0.11106 0.40477 0.75036 0.0
C7558 C 0.11164 0.37476 0.75152 0.0
C7559 C 0.11334 0.35903 0.76065 0.0
C7560 C 0.12729 0.35682 0.77112 0.0
C7561 C 0.12873 0.34202 0.77982 0.0
C7562 C 0.11636 0.32927 0.77803 0.0
C7563 C 0.10255 0.33129 0.7675 0.0
C7564 C 0.10104 0.34608 0.7588 0.0
C7565 C 0.11855 0.39548 0.67844 0.0
C7566 C 0.10613 0.38505 0.67053 0.0
C7567 C 0.11986 0.3965 0.69588 0.0
C7568 C 0.10872 0.38722 0.70587 0.0
C7569 C 0.09654 0.37661 0.69797 0.0
C7570 C 0.09523 0.37557 0.68061 0.0
C7571 C 0.10955 0.38864 0.72449 0.0
C7572 C 0.1103 0.37413 0.73402 0.0
C7573 C 0.10963 0.40415 0.73289 0.0
C7574 C 0.10759 0.41987 0.72381 0.0
C7575 C 0.09372 0.4217 0.71312 0.0
C7576 C 0.09196 0.43646 0.70444 0.0
C7577 C 0.10391 0.44956 0.70647 0.0
C7578 C 0.11763 0.44794 0.71722 0.0
C7579 C 0.11947 0.43318 0.7259 0.0
H7580 H 0.10253 0.46099 0.69974 0.0
H7581 H 0.1175 0.31782 0.78477 0.0
H7582 H 0.10981 0.65419 0.32316 0.0
H7583 H 0.1131 0.65316 0.29335 0.0
H7584 H 0.14159 0.6096 0.29845 0.0
H7585 H 0.13858 0.61071 0.32878 0.0
H7586 H 0.15476 0.63093 0.27525 0.0
H7587 H 0.10062 0.60641 0.28581 0.0
H7588 H 0.073 0.6054 0.2984 0.0
H7589 H 0.06051 0.64918 0.27187 0.0
H7590 H 0.08818 0.65063 0.25934 0.0
H7591 H 0.14814 0.60831 0.19038 0.0
H7592 H 0.14616 0.60901 0.22041 0.0
H7593 H 0.11563 0.65127 0.21696 0.0
H7594 H 0.11728 0.65043 0.18652 0.0
H7595 H 0.10356 0.63 0.23947 0.0
H7596 H 0.15752 0.65512 0.22946 0.0
H7597 H 0.18548 0.65717 0.21762 0.0
H7598 H 0.1984 0.61303 0.24331 0.0
H7599 H 0.17042 0.61058 0.25513 0.0
C7600 C 0.11683 0.64433 0.31808 0.0
C7601 C 0.12374 0.63238 0.32851 0.0
C7602 C 0.11866 0.64376 0.30091 0.0
C7603 C 0.12726 0.63109 0.29349 0.0
C7604 C 0.13477 0.61945 0.30383 0.0
C7605 C 0.13303 0.62007 0.32118 0.0
C7606 C 0.128 0.63003 0.27495 0.0
C7607 C 0.14355 0.63043 0.26744 0.0
C7608 C 0.1134 0.62985 0.26464 0.0
C7609 C 0.09654 0.62869 0.27173 0.0
C7610 C 0.09201 0.61586 0.28271 0.0
C7611 C 0.07635 0.61521 0.28984 0.0
C7612 C 0.06502 0.62724 0.28596 0.0
C7613 C 0.0693 0.63988 0.27487 0.0
C7614 C 0.08497 0.64061 0.26774 0.0
C7615 C 0.14101 0.61784 0.19591 0.0
C7616 C 0.13298 0.62943 0.18592 0.0
C7617 C 0.13996 0.61825 0.2132 0.0
C7618 C 0.13102 0.63038 0.22113 0.0
C7619 C 0.1227 0.64182 0.21121 0.0
C7620 C 0.12368 0.64137 0.19379 0.0
C7621 C 0.13035 0.63094 0.23972 0.0
C7622 C 0.11478 0.63043 0.24725 0.0
C7623 C 0.14494 0.63107 0.25004 0.0
C7624 C 0.16182 0.63258 0.24306 0.0
C7625 C 0.16629 0.64578 0.2325 0.0
C7626 C 0.18214 0.64702 0.2258 0.0
C7627 C 0.1937 0.63521 0.22967 0.0
C7628 C 0.18943 0.62216 0.2403 0.0
C7629 C 0.17358 0.62085 0.24702 0.0
H7630 H 0.20597 0.63619 0.22447 0.0
H7631 H 0.05291 0.62674 0.29153 0.0
loop_
_geom_bond_atom_site_label_1
_geom_bond_atom_site_label_2
_geom_bond_distance
_geom_bond_site_symmetry_2
_ccdc_geom_bond_type
Co0 O2 2.143 . S
Co0 O8 2.074 . S
Co0 O11 2.093 . S
Co0 O24 2.097 . S
Co0 N41 2.151 . S
Co0 N49 2.214 . S
Co1 O2 2.160 . S
Co1 O7 2.058 . S
Co1 O17 2.057 . S
Co1 O32 2.037 . S
Co1 N36 2.145 . S
Co1 N57 2.257 . S
O2 Co0 2.143 . S
O2 Co1 2.160 . S
C3 O4 1.278 . S
C3 O11 1.224 . S
O4 C3 1.278 . S
C5 O6 1.245 . S
C5 O17 1.232 . S
O6 C5 1.245 . S
O7 Co1 2.058 . S
O7 C33 1.269 . S
O8 Co0 2.074 . S
O8 C33 1.257 . S
H9 C34 0.930 . S
H10 C40 0.930 . S
O11 Co0 2.093 . S
O11 C3 1.224 . S
H12 C44 0.929 . S
H13 C46 0.930 . S
H14 C47 0.930 . S
H15 C45 0.929 . S
H16 C48 0.928 . S
O17 Co1 2.057 . S
O17 C5 1.232 . S
H18 C37 0.929 . S
H19 C38 0.929 . S
H20 C50 0.931 . S
H21 C42 0.929 . S
H22 C51 0.930 . S
H23 C43 0.931 . S
O24 Co0 2.097 . S
O24 C52 1.214 . S
H25 C53 0.929 . S
H26 C54 0.929 . S
H27 C55 0.930 . S
H28 C56 0.929 . S
H29 C58 0.930 . S
H30 C35 0.930 . S
H31 C39 0.930 . S
O32 Co1 2.037 . S
O32 C52 1.234 . S
C33 O7 1.269 . S
C33 O8 1.257 . S
C34 H9 0.930 . S
C34 C37 1.388 . S
C34 C39 1.418 . S
C35 H30 0.930 . S
C35 C38 1.404 . S
C35 C39 1.353 . S
N36 Co1 2.145 . S
N36 C37 1.397 . S
N36 C38 1.334 . S
C37 H18 0.929 . S
C37 C34 1.388 . S
C37 N36 1.397 . S
C38 H19 0.929 . S
C38 C35 1.404 . S
C38 N36 1.334 . S
C39 H31 0.930 . S
C39 C34 1.418 . S
C39 C35 1.353 . S
C40 H10 0.930 . S
C40 N41 1.330 . S
C40 C42 1.446 . S
N41 Co0 2.151 . S
N41 C40 1.330 . S
N41 C45 1.418 . S
C42 H21 0.929 . S
C42 C40 1.446 . S
C42 C43 1.332 . S
C43 H23 0.931 . S
C43 C42 1.332 . S
C43 C44 1.267 . S
C44 H12 0.929 . S
C44 C43 1.267 . S
C44 C45 1.251 . S
C45 H15 0.929 . S
C45 N41 1.418 . S
C45 C44 1.251 . S
C46 H13 0.930 . S
C46 C48 1.406 . S
C46 C51 1.261 . S
C47 H14 0.930 . S
C47 N49 1.325 . S
C47 C50 1.357 . S
C48 H16 0.928 . S
C48 C46 1.406 . S
C48 N49 1.261 . S
N49 Co0 2.214 . S
N49 C47 1.325 . S
N49 C48 1.261 . S
C50 H20 0.931 . S
C50 C47 1.357 . S
C50 C51 1.312 . S
C51 H22 0.930 . S
C51 C46 1.261 . S
C51 C50 1.312 . S
C52 O24 1.214 . S
C52 O32 1.234 . S
C53 H25 0.929 . S
C53 C56 1.391 . S
C53 C58 1.391 . S
C54 H26 0.929 . S
C54 C55 1.390 . S
C54 N57 1.391 . S
C55 H27 0.930 . S
C55 C54 1.390 . S
C55 C56 1.392 . S
C56 H28 0.929 . S
C56 C53 1.391 . S
C56 C55 1.392 . S
N57 Co1 2.257 . S
N57 C54 1.391 . S
N57 C58 1.388 . S
C58 H29 0.930 . S
C58 C53 1.391 . S
C58 N57 1.388 . S
Co59 O61 2.143 . S
Co59 O67 2.074 . S
Co59 O70 2.093 . S
Co59 O83 2.097 . S
Co59 N100 2.151 . S
Co59 N108 2.214 . S
Co60 O61 2.160 . S
Co60 O66 2.058 . S
Co60 O76 2.057 . S
Co60 O91 2.037 . S
Co60 N95 2.145 . S
Co60 N116 2.257 . S
O61 Co59 2.143 . S
O61 Co60 2.160 . S
C62 O63 1.278 . S
C62 O70 1.224 . S
O63 C62 1.278 . S
C64 O65 1.245 . S
C64 O76 1.232 . S
O65 C64 1.245 . S
O66 Co60 2.058 . S
O66 C92 1.269 . S
O67 Co59 2.074 . S
O67 C92 1.257 . S
H68 C93 0.930 . S
H69 C99 0.930 . S
O70 Co59 2.093 . S
O70 C62 1.224 . S
H71 C103 0.929 . S
H72 C105 0.930 . S
H73 C106 0.930 . S
H74 C104 0.929 . S
H75 C107 0.928 . S
O76 Co60 2.057 . S
O76 C64 1.232 . S
H77 C96 0.929 . S
H78 C97 0.929 . S
H79 C109 0.931 . S
H80 C101 0.929 . S
H81 C110 0.930 . S
H82 C102 0.931 . S
O83 Co59 2.097 . S
O83 C111 1.214 . S
H84 C112 0.929 . S
H85 C113 0.929 . S
H86 C114 0.930 . S
H87 C115 0.929 . S
H88 C117 0.930 . S
H89 C94 0.930 . S
H90 C98 0.930 . S
O91 Co60 2.037 . S
O91 C111 1.234 . S
C92 O66 1.269 . S
C92 O67 1.257 . S
C93 H68 0.930 . S
C93 C96 1.388 . S
C93 C98 1.418 . S
C94 H89 0.930 . S
C94 C97 1.404 . S
C94 C98 1.353 . S
N95 Co60 2.145 . S
N95 C96 1.397 . S
N95 C97 1.334 . S
C96 H77 0.929 . S
C96 C93 1.388 . S
C96 N95 1.397 . S
C97 H78 0.929 . S
C97 C94 1.404 . S
C97 N95 1.334 . S
C98 H90 0.930 . S
C98 C93 1.418 . S
C98 C94 1.353 . S
C99 H69 0.930 . S
C99 N100 1.330 . S
C99 C101 1.446 . S
N100 Co59 2.151 . S
N100 C99 1.330 . S
N100 C104 1.418 . S
C101 H80 0.929 . S
C101 C99 1.446 . S
C101 C102 1.332 . S
C102 H82 0.931 . S
C102 C101 1.332 . S
C102 C103 1.267 . S
C103 H71 0.929 . S
C103 C102 1.267 . S
C103 C104 1.251 . S
C104 H74 0.929 . S
C104 N100 1.418 . S
C104 C103 1.251 . S
C105 H72 0.930 . S
C105 C107 1.406 . S
C105 C110 1.261 . S
C106 H73 0.930 . S
C106 N108 1.325 . S
C106 C109 1.357 . S
C107 H75 0.928 . S
C107 C105 1.406 . S
C107 N108 1.261 . S
N108 Co59 2.214 . S
N108 C106 1.325 . S
N108 C107 1.261 . S
C109 H79 0.931 . S
C109 C106 1.357 . S
C109 C110 1.312 . S
C110 H81 0.930 . S
C110 C105 1.261 . S
C110 C109 1.312 . S
C111 O83 1.214 . S
C111 O91 1.234 . S
C112 H84 0.929 . S
C112 C115 1.391 . S
C112 C117 1.391 . S
C113 H85 0.929 . S
C113 C114 1.390 . S
C113 N116 1.391 . S
C114 H86 0.930 . S
C114 C113 1.390 . S
C114 C115 1.392 . S
C115 H87 0.929 . S
C115 C112 1.391 . S
C115 C114 1.392 . S
N116 Co60 2.257 . S
N116 C113 1.391 . S
N116 C117 1.388 . S
C117 H88 0.930 . S
C117 C112 1.391 . S
C117 N116 1.388 . S
Co118 O120 2.143 . S
Co118 O126 2.074 . S
Co118 O129 2.093 . S
Co118 O142 2.097 . S
Co118 N159 2.151 . S
Co118 N167 2.214 . S
Co119 O120 2.160 . S
Co119 O125 2.058 . S
Co119 O135 2.057 . S
Co119 O150 2.037 . S
Co119 N154 2.145 . S
Co119 N175 2.257 . S
O120 Co118 2.143 . S
O120 Co119 2.160 . S
C121 O122 1.278 . S
C121 O129 1.224 . S
O122 C121 1.278 . S
C123 O124 1.245 . S
C123 O135 1.232 . S
O124 C123 1.245 . S
O125 Co119 2.058 . S
O125 C151 1.269 . S
O126 Co118 2.074 . S
O126 C151 1.257 . S
H127 C152 0.930 . S
H128 C158 0.930 . S
O129 Co118 2.093 . S
O129 C121 1.224 . S
H130 C162 0.929 . S
H131 C164 0.930 . S
H132 C165 0.930 . S
H133 C163 0.929 . S
H134 C166 0.928 . S
O135 Co119 2.057 . S
O135 C123 1.232 . S
H136 C155 0.929 . S
H137 C156 0.929 . S
H138 C168 0.931 . S
H139 C160 0.929 . S
H140 C169 0.930 . S
H141 C161 0.931 . S
O142 Co118 2.097 . S
O142 C170 1.214 . S
H143 C171 0.929 . S
H144 C172 0.929 . S
H145 C173 0.930 . S
H146 C174 0.929 . S
H147 C176 0.930 . S
H148 C153 0.930 . S
H149 C157 0.930 . S
O150 Co119 2.037 . S
O150 C170 1.234 . S
C151 O125 1.269 . S
C151 O126 1.257 . S
C152 H127 0.930 . S
C152 C155 1.388 . S
C152 C157 1.418 . S
C153 H148 0.930 . S
C153 C156 1.404 . S
C153 C157 1.353 . S
N154 Co119 2.145 . S
N154 C155 1.397 . S
N154 C156 1.334 . S
C155 H136 0.929 . S
C155 C152 1.388 . S
C155 N154 1.397 . S
C156 H137 0.929 . S
C156 C153 1.404 . S
C156 N154 1.334 . S
C157 H149 0.930 . S
C157 C152 1.418 . S
C157 C153 1.353 . S
C158 H128 0.930 . S
C158 N159 1.330 . S
C158 C160 1.446 . S
N159 Co118 2.151 . S
N159 C158 1.330 . S
N159 C163 1.418 . S
C160 H139 0.929 . S
C160 C158 1.446 . S
C160 C161 1.332 . S
C161 H141 0.931 . S
C161 C160 1.332 . S
C161 C162 1.267 . S
C162 H130 0.929 . S
C162 C161 1.267 . S
C162 C163 1.251 . S
C163 H133 0.929 . S
C163 N159 1.418 . S
C163 C162 1.251 . S
C164 H131 0.930 . S
C164 C166 1.406 . S
C164 C169 1.261 . S
C165 H132 0.930 . S
C165 N167 1.325 . S
C165 C168 1.357 . S
C166 H134 0.928 . S
C166 C164 1.406 . S
C166 N167 1.261 . S
N167 Co118 2.214 . S
N167 C165 1.325 . S
N167 C166 1.261 . S
C168 H138 0.931 . S
C168 C165 1.357 . S
C168 C169 1.312 . S
C169 H140 0.930 . S
C169 C164 1.261 . S
C169 C168 1.312 . S
C170 O142 1.214 . S
C170 O150 1.234 . S
C171 H143 0.929 . S
C171 C174 1.391 . S
C171 C176 1.391 . S
C172 H144 0.929 . S
C172 C173 1.390 . S
C172 N175 1.391 . S
C173 H145 0.930 . S
C173 C172 1.390 . S
C173 C174 1.392 . S
C174 H146 0.929 . S
C174 C171 1.391 . S
C174 C173 1.392 . S
N175 Co119 2.257 . S
N175 C172 1.391 . S
N175 C176 1.388 . S
C176 H147 0.930 . S
C176 C171 1.391 . S
C176 N175 1.388 . S
Co177 O179 2.143 . S
Co177 O185 2.074 . S
Co177 O188 2.093 . S
Co177 O201 2.097 . S
Co177 N218 2.151 . S
Co177 N226 2.214 . S
Co178 O179 2.160 . S
Co178 O184 2.058 . S
Co178 O194 2.057 . S
Co178 O209 2.037 . S
Co178 N213 2.145 . S
Co178 N234 2.257 . S
O179 Co177 2.143 . S
O179 Co178 2.160 . S
C180 O181 1.278 . S
C180 O188 1.224 . S
O181 C180 1.278 . S
C182 O183 1.245 . S
C182 O194 1.232 . S
O183 C182 1.245 . S
O184 Co178 2.058 . S
O184 C210 1.269 . S
O185 Co177 2.074 . S
O185 C210 1.257 . S
H186 C211 0.930 . S
H187 C217 0.930 . S
O188 Co177 2.093 . S
O188 C180 1.224 . S
H189 C221 0.929 . S
H190 C223 0.930 . S
H191 C224 0.930 . S
H192 C222 0.929 . S
H193 C225 0.928 . S
O194 Co178 2.057 . S
O194 C182 1.232 . S
H195 C214 0.929 . S
H196 C215 0.929 . S
H197 C227 0.931 . S
H198 C219 0.929 . S
H199 C228 0.930 . S
H200 C220 0.931 . S
O201 Co177 2.097 . S
O201 C229 1.214 . S
H202 C230 0.929 . S
H203 C231 0.929 . S
H204 C232 0.930 . S
H205 C233 0.929 . S
H206 C235 0.930 . S
H207 C212 0.930 . S
H208 C216 0.930 . S
O209 Co178 2.037 . S
O209 C229 1.234 . S
C210 O184 1.269 . S
C210 O185 1.257 . S
C211 H186 0.930 . S
C211 C214 1.388 . S
C211 C216 1.418 . S
C212 H207 0.930 . S
C212 C215 1.404 . S
C212 C216 1.353 . S
N213 Co178 2.145 . S
N213 C214 1.397 . S
N213 C215 1.334 . S
C214 H195 0.929 . S
C214 C211 1.388 . S
C214 N213 1.397 . S
C215 H196 0.929 . S
C215 C212 1.404 . S
C215 N213 1.334 . S
C216 H208 0.930 . S
C216 C211 1.418 . S
C216 C212 1.353 . S
C217 H187 0.930 . S
C217 N218 1.330 . S
C217 C219 1.446 . S
N218 Co177 2.151 . S
N218 C217 1.330 . S
N218 C222 1.418 . S
C219 H198 0.929 . S
C219 C217 1.446 . S
C219 C220 1.332 . S
C220 H200 0.931 . S
C220 C219 1.332 . S
C220 C221 1.267 . S
C221 H189 0.929 . S
C221 C220 1.267 . S
C221 C222 1.251 . S
C222 H192 0.929 . S
C222 N218 1.418 . S
C222 C221 1.251 . S
C223 H190 0.930 . S
C223 C225 1.406 . S
C223 C228 1.261 . S
C224 H191 0.930 . S
C224 N226 1.325 . S
C224 C227 1.357 . S
C225 H193 0.928 . S
C225 C223 1.406 . S
C225 N226 1.261 . S
N226 Co177 2.214 . S
N226 C224 1.325 . S
N226 C225 1.261 . S
C227 H197 0.931 . S
C227 C224 1.357 . S
C227 C228 1.312 . S
C228 H199 0.930 . S
C228 C223 1.261 . S
C228 C227 1.312 . S
C229 O201 1.214 . S
C229 O209 1.234 . S
C230 H202 0.929 . S
C230 C233 1.391 . S
C230 C235 1.391 . S
C231 H203 0.929 . S
C231 C232 1.390 . S
C231 N234 1.391 . S
C232 H204 0.930 . S
C232 C231 1.390 . S
C232 C233 1.392 . S
C233 H205 0.929 . S
C233 C230 1.391 . S
C233 C232 1.392 . S
N234 Co178 2.257 . S
N234 C231 1.391 . S
N234 C235 1.388 . S
C235 H206 0.930 . S
C235 C230 1.391 . S
C235 N234 1.388 . S
Co236 O238 2.143 . S
Co236 O244 2.074 . S
Co236 O247 2.093 . S
Co236 O260 2.097 . S
Co236 N277 2.151 . S
Co236 N285 2.214 . S
Co237 O238 2.160 . S
Co237 O243 2.058 . S
Co237 O253 2.057 . S
Co237 O268 2.037 . S
Co237 N272 2.145 . S
Co237 N293 2.257 . S
O238 Co236 2.143 . S
O238 Co237 2.160 . S
C239 O240 1.278 . S
C239 O247 1.224 . S
O240 C239 1.278 . S
C241 O242 1.245 . S
C241 O253 1.232 . S
O242 C241 1.245 . S
O243 Co237 2.058 . S
O243 C269 1.269 . S
O244 Co236 2.074 . S
O244 C269 1.257 . S
H245 C270 0.930 . S
H246 C276 0.930 . S
O247 Co236 2.093 . S
O247 C239 1.224 . S
H248 C280 0.929 . S
H249 C282 0.930 . S
H250 C283 0.930 . S
H251 C281 0.929 . S
H252 C284 0.928 . S
O253 Co237 2.057 . S
O253 C241 1.232 . S
H254 C273 0.929 . S
H255 C274 0.929 . S
H256 C286 0.931 . S
H257 C278 0.929 . S
H258 C287 0.930 . S
H259 C279 0.931 . S
O260 Co236 2.097 . S
O260 C288 1.214 . S
H261 C289 0.929 . S
H262 C290 0.929 . S
H263 C291 0.930 . S
H264 C292 0.929 . S
H265 C294 0.930 . S
H266 C271 0.930 . S
H267 C275 0.930 . S
O268 Co237 2.037 . S
O268 C288 1.234 . S
C269 O243 1.269 . S
C269 O244 1.257 . S
C270 H245 0.930 . S
C270 C273 1.388 . S
C270 C275 1.418 . S
C271 H266 0.930 . S
C271 C274 1.404 . S
C271 C275 1.353 . S
N272 Co237 2.145 . S
N272 C273 1.397 . S
N272 C274 1.334 . S
C273 H254 0.929 . S
C273 C270 1.388 . S
C273 N272 1.397 . S
C274 H255 0.929 . S
C274 C271 1.404 . S
C274 N272 1.334 . S
C275 H267 0.930 . S
C275 C270 1.418 . S
C275 C271 1.353 . S
C276 H246 0.930 . S
C276 N277 1.330 . S
C276 C278 1.446 . S
N277 Co236 2.151 . S
N277 C276 1.330 . S
N277 C281 1.418 . S
C278 H257 0.929 . S
C278 C276 1.446 . S
C278 C279 1.332 . S
C279 H259 0.931 . S
C279 C278 1.332 . S
C279 C280 1.267 . S
C280 H248 0.929 . S
C280 C279 1.267 . S
C280 C281 1.251 . S
C281 H251 0.929 . S
C281 N277 1.418 . S
C281 C280 1.251 . S
C282 H249 0.930 . S
C282 C284 1.406 . S
C282 C287 1.261 . S
C283 H250 0.930 . S
C283 N285 1.325 . S
C283 C286 1.357 . S
C284 H252 0.928 . S
C284 C282 1.406 . S
C284 N285 1.261 . S
N285 Co236 2.214 . S
N285 C283 1.325 . S
N285 C284 1.261 . S
C286 H256 0.931 . S
C286 C283 1.357 . S
C286 C287 1.312 . S
C287 H258 0.930 . S
C287 C282 1.261 . S
C287 C286 1.312 . S
C288 O260 1.214 . S
C288 O268 1.234 . S
C289 H261 0.929 . S
C289 C292 1.391 . S
C289 C294 1.391 . S
C290 H262 0.929 . S
C290 C291 1.390 . S
C290 N293 1.391 . S
C291 H263 0.930 . S
C291 C290 1.390 . S
C291 C292 1.392 . S
C292 H264 0.929 . S
C292 C289 1.391 . S
C292 C291 1.392 . S
N293 Co237 2.257 . S
N293 C290 1.391 . S
N293 C294 1.388 . S
C294 H265 0.930 . S
C294 C289 1.391 . S
C294 N293 1.388 . S
Co295 O297 2.143 . S
Co295 O303 2.074 . S
Co295 O306 2.093 . S
Co295 O319 2.097 . S
Co295 N336 2.151 . S
Co295 N344 2.214 . S
Co296 O297 2.160 . S
Co296 O302 2.058 . S
Co296 O312 2.057 . S
Co296 O327 2.037 . S
Co296 N331 2.145 . S
Co296 N352 2.257 . S
O297 Co295 2.143 . S
O297 Co296 2.160 . S
C298 O299 1.278 . S
C298 O306 1.224 . S
O299 C298 1.278 . S
C300 O301 1.245 . S
C300 O312 1.232 . S
O301 C300 1.245 . S
O302 Co296 2.058 . S
O302 C328 1.269 . S
O303 Co295 2.074 . S
O303 C328 1.257 . S
H304 C329 0.930 . S
H305 C335 0.930 . S
O306 Co295 2.093 . S
O306 C298 1.224 . S
H307 C339 0.929 . S
H308 C341 0.930 . S
H309 C342 0.930 . S
H310 C340 0.929 . S
H311 C343 0.928 . S
O312 Co296 2.057 . S
O312 C300 1.232 . S
H313 C332 0.929 . S
H314 C333 0.929 . S
H315 C345 0.931 . S
H316 C337 0.929 . S
H317 C346 0.930 . S
H318 C338 0.931 . S
O319 Co295 2.097 . S
O319 C347 1.214 . S
H320 C348 0.929 . S
H321 C349 0.929 . S
H322 C350 0.930 . S
H323 C351 0.929 . S
H324 C353 0.930 . S
H325 C330 0.930 . S
H326 C334 0.930 . S
O327 Co296 2.037 . S
O327 C347 1.234 . S
C328 O302 1.269 . S
C328 O303 1.257 . S
C329 H304 0.930 . S
C329 C332 1.388 . S
C329 C334 1.418 . S
C330 H325 0.930 . S
C330 C333 1.404 . S
C330 C334 1.353 . S
N331 Co296 2.145 . S
N331 C332 1.397 . S
N331 C333 1.334 . S
C332 H313 0.929 . S
C332 C329 1.388 . S
C332 N331 1.397 . S
C333 H314 0.929 . S
C333 C330 1.404 . S
C333 N331 1.334 . S
C334 H326 0.930 . S
C334 C329 1.418 . S
C334 C330 1.353 . S
C335 H305 0.930 . S
C335 N336 1.330 . S
C335 C337 1.446 . S
N336 Co295 2.151 . S
N336 C335 1.330 . S
N336 C340 1.418 . S
C337 H316 0.929 . S
C337 C335 1.446 . S
C337 C338 1.332 . S
C338 H318 0.931 . S
C338 C337 1.332 . S
C338 C339 1.267 . S
C339 H307 0.929 . S
C339 C338 1.267 . S
C339 C340 1.251 . S
C340 H310 0.929 . S
C340 N336 1.418 . S
C340 C339 1.251 . S
C341 H308 0.930 . S
C341 C343 1.406 . S
C341 C346 1.261 . S
C342 H309 0.930 . S
C342 N344 1.325 . S
C342 C345 1.357 . S
C343 H311 0.928 . S
C343 C341 1.406 . S
C343 N344 1.261 . S
N344 Co295 2.214 . S
N344 C342 1.325 . S
N344 C343 1.261 . S
C345 H315 0.931 . S
C345 C342 1.357 . S
C345 C346 1.312 . S
C346 H317 0.930 . S
C346 C341 1.261 . S
C346 C345 1.312 . S
C347 O319 1.214 . S
C347 O327 1.234 . S
C348 H320 0.929 . S
C348 C351 1.391 . S
C348 C353 1.391 . S
C349 H321 0.929 . S
C349 C350 1.390 . S
C349 N352 1.391 . S
C350 H322 0.930 . S
C350 C349 1.390 . S
C350 C351 1.392 . S
C351 H323 0.929 . S
C351 C348 1.391 . S
C351 C350 1.392 . S
N352 Co296 2.257 . S
N352 C349 1.391 . S
N352 C353 1.388 . S
C353 H324 0.930 . S
C353 C348 1.391 . S
C353 N352 1.388 . S
Co354 O356 2.143 . S
Co354 O362 2.074 . S
Co354 O365 2.093 . S
Co354 O378 2.097 . S
Co354 N395 2.151 . S
Co354 N403 2.214 . S
Co355 O356 2.160 . S
Co355 O361 2.058 . S
Co355 O371 2.057 . S
Co355 O386 2.037 . S
Co355 N390 2.145 . S
Co355 N411 2.257 . S
O356 Co354 2.143 . S
O356 Co355 2.160 . S
C357 O358 1.278 . S
C357 O365 1.224 . S
O358 C357 1.278 . S
C359 O360 1.245 . S
C359 O371 1.232 . S
O360 C359 1.245 . S
O361 Co355 2.058 . S
O361 C387 1.269 . S
O362 Co354 2.074 . S
O362 C387 1.257 . S
H363 C388 0.930 . S
H364 C394 0.930 . S
O365 Co354 2.093 . S
O365 C357 1.224 . S
H366 C398 0.929 . S
H367 C400 0.930 . S
H368 C401 0.930 . S
H369 C399 0.929 . S
H370 C402 0.928 . S
O371 Co355 2.057 . S
O371 C359 1.232 . S
H372 C391 0.929 . S
H373 C392 0.929 . S
H374 C404 0.931 . S
H375 C396 0.929 . S
H376 C405 0.930 . S
H377 C397 0.931 . S
O378 Co354 2.097 . S
O378 C406 1.214 . S
H379 C407 0.929 . S
H380 C408 0.929 . S
H381 C409 0.930 . S
H382 C410 0.929 . S
H383 C412 0.930 . S
H384 C389 0.930 . S
H385 C393 0.930 . S
O386 Co355 2.037 . S
O386 C406 1.234 . S
C387 O361 1.269 . S
C387 O362 1.257 . S
C388 H363 0.930 . S
C388 C391 1.388 . S
C388 C393 1.418 . S
C389 H384 0.930 . S
C389 C392 1.404 . S
C389 C393 1.353 . S
N390 Co355 2.145 . S
N390 C391 1.397 . S
N390 C392 1.334 . S
C391 H372 0.929 . S
C391 C388 1.388 . S
C391 N390 1.397 . S
C392 H373 0.929 . S
C392 C389 1.404 . S
C392 N390 1.334 . S
C393 H385 0.930 . S
C393 C388 1.418 . S
C393 C389 1.353 . S
C394 H364 0.930 . S
C394 N395 1.330 . S
C394 C396 1.446 . S
N395 Co354 2.151 . S
N395 C394 1.330 . S
N395 C399 1.418 . S
C396 H375 0.929 . S
C396 C394 1.446 . S
C396 C397 1.332 . S
C397 H377 0.931 . S
C397 C396 1.332 . S
C397 C398 1.267 . S
C398 H366 0.929 . S
C398 C397 1.267 . S
C398 C399 1.251 . S
C399 H369 0.929 . S
C399 N395 1.418 . S
C399 C398 1.251 . S
C400 H367 0.930 . S
C400 C402 1.406 . S
C400 C405 1.261 . S
C401 H368 0.930 . S
C401 N403 1.325 . S
C401 C404 1.357 . S
C402 H370 0.928 . S
C402 C400 1.406 . S
C402 N403 1.261 . S
N403 Co354 2.214 . S
N403 C401 1.325 . S
N403 C402 1.261 . S
C404 H374 0.931 . S
C404 C401 1.357 . S
C404 C405 1.312 . S
C405 H376 0.930 . S
C405 C400 1.261 . S
C405 C404 1.312 . S
C406 O378 1.214 . S
C406 O386 1.234 . S
C407 H379 0.929 . S
C407 C410 1.391 . S
C407 C412 1.391 . S
C408 H380 0.929 . S
C408 C409 1.390 . S
C408 N411 1.391 . S
C409 H381 0.930 . S
C409 C408 1.390 . S
C409 C410 1.392 . S
C410 H382 0.929 . S
C410 C407 1.391 . S
C410 C409 1.392 . S
N411 Co355 2.257 . S
N411 C408 1.391 . S
N411 C412 1.388 . S
C412 H383 0.930 . S
C412 C407 1.391 . S
C412 N411 1.388 . S
Co413 O415 2.143 . S
Co413 O421 2.074 . S
Co413 O424 2.093 . S
Co413 O437 2.097 . S
Co413 N454 2.151 . S
Co413 N462 2.214 . S
Co414 O415 2.160 . S
Co414 O420 2.058 . S
Co414 O430 2.057 . S
Co414 O445 2.037 . S
Co414 N449 2.145 . S
Co414 N470 2.257 . S
O415 Co413 2.143 . S
O415 Co414 2.160 . S
C416 O417 1.278 . S
C416 O424 1.224 . S
O417 C416 1.278 . S
C418 O419 1.245 . S
C418 O430 1.232 . S
O419 C418 1.245 . S
O420 Co414 2.058 . S
O420 C446 1.269 . S
O421 Co413 2.074 . S
O421 C446 1.257 . S
H422 C447 0.930 . S
H423 C453 0.930 . S
O424 Co413 2.093 . S
O424 C416 1.224 . S
H425 C457 0.929 . S
H426 C459 0.930 . S
H427 C460 0.930 . S
H428 C458 0.929 . S
H429 C461 0.928 . S
O430 Co414 2.057 . S
O430 C418 1.232 . S
H431 C450 0.929 . S
H432 C451 0.929 . S
H433 C463 0.931 . S
H434 C455 0.929 . S
H435 C464 0.930 . S
H436 C456 0.931 . S
O437 Co413 2.097 . S
O437 C465 1.214 . S
H438 C466 0.929 . S
H439 C467 0.929 . S
H440 C468 0.930 . S
H441 C469 0.929 . S
H442 C471 0.930 . S
H443 C448 0.930 . S
H444 C452 0.930 . S
O445 Co414 2.037 . S
O445 C465 1.234 . S
C446 O420 1.269 . S
C446 O421 1.257 . S
C447 H422 0.930 . S
C447 C450 1.388 . S
C447 C452 1.418 . S
C448 H443 0.930 . S
C448 C451 1.404 . S
C448 C452 1.353 . S
N449 Co414 2.145 . S
N449 C450 1.397 . S
N449 C451 1.334 . S
C450 H431 0.929 . S
C450 C447 1.388 . S
C450 N449 1.397 . S
C451 H432 0.929 . S
C451 C448 1.404 . S
C451 N449 1.334 . S
C452 H444 0.930 . S
C452 C447 1.418 . S
C452 C448 1.353 . S
C453 H423 0.930 . S
C453 N454 1.330 . S
C453 C455 1.446 . S
N454 Co413 2.151 . S
N454 C453 1.330 . S
N454 C458 1.418 . S
C455 H434 0.929 . S
C455 C453 1.446 . S
C455 C456 1.332 . S
C456 H436 0.931 . S
C456 C455 1.332 . S
C456 C457 1.267 . S
C457 H425 0.929 . S
C457 C456 1.267 . S
C457 C458 1.251 . S
C458 H428 0.929 . S
C458 N454 1.418 . S
C458 C457 1.251 . S
C459 H426 0.930 . S
C459 C461 1.406 . S
C459 C464 1.261 . S
C460 H427 0.930 . S
C460 N462 1.325 . S
C460 C463 1.357 . S
C461 H429 0.928 . S
C461 C459 1.406 . S
C461 N462 1.261 . S
N462 Co413 2.214 . S
N462 C460 1.325 . S
N462 C461 1.261 . S
C463 H433 0.931 . S
C463 C460 1.357 . S
C463 C464 1.312 . S
C464 H435 0.930 . S
C464 C459 1.261 . S
C464 C463 1.312 . S
C465 O437 1.214 . S
C465 O445 1.234 . S
C466 H438 0.929 . S
C466 C469 1.391 . S
C466 C471 1.391 . S
C467 H439 0.929 . S
C467 C468 1.390 . S
C467 N470 1.391 . S
C468 H440 0.930 . S
C468 C467 1.390 . S
C468 C469 1.392 . S
C469 H441 0.929 . S
C469 C466 1.391 . S
C469 C468 1.392 . S
N470 Co414 2.257 . S
N470 C467 1.391 . S
N470 C471 1.388 . S
C471 H442 0.930 . S
C471 C466 1.391 . S
C471 N470 1.388 . S
Co472 O474 2.143 . S
Co472 O480 2.074 . S
Co472 O483 2.093 . S
Co472 O496 2.097 . S
Co472 N513 2.151 . S
Co472 N521 2.214 . S
Co473 O474 2.160 . S
Co473 O479 2.058 . S
Co473 O489 2.057 . S
Co473 O504 2.037 . S
Co473 N508 2.145 . S
Co473 N529 2.257 . S
O474 Co472 2.143 . S
O474 Co473 2.160 . S
C475 O476 1.278 . S
C475 O483 1.224 . S
O476 C475 1.278 . S
C477 O478 1.245 . S
C477 O489 1.232 . S
O478 C477 1.245 . S
O479 Co473 2.058 . S
O479 C505 1.269 . S
O480 Co472 2.074 . S
O480 C505 1.257 . S
H481 C506 0.930 . S
H482 C512 0.930 . S
O483 Co472 2.093 . S
O483 C475 1.224 . S
H484 C516 0.929 . S
H485 C518 0.930 . S
H486 C519 0.930 . S
H487 C517 0.929 . S
H488 C520 0.928 . S
O489 Co473 2.057 . S
O489 C477 1.232 . S
H490 C509 0.929 . S
H491 C510 0.929 . S
H492 C522 0.931 . S
H493 C514 0.929 . S
H494 C523 0.930 . S
H495 C515 0.931 . S
O496 Co472 2.097 . S
O496 C524 1.214 . S
H497 C525 0.929 . S
H498 C526 0.929 . S
H499 C527 0.930 . S
H500 C528 0.929 . S
H501 C530 0.930 . S
H502 C507 0.930 . S
H503 C511 0.930 . S
O504 Co473 2.037 . S
O504 C524 1.234 . S
C505 O479 1.269 . S
C505 O480 1.257 . S
C506 H481 0.930 . S
C506 C509 1.388 . S
C506 C511 1.418 . S
C507 H502 0.930 . S
C507 C510 1.404 . S
C507 C511 1.353 . S
N508 Co473 2.145 . S
N508 C509 1.397 . S
N508 C510 1.334 . S
C509 H490 0.929 . S
C509 C506 1.388 . S
C509 N508 1.397 . S
C510 H491 0.929 . S
C510 C507 1.404 . S
C510 N508 1.334 . S
C511 H503 0.930 . S
C511 C506 1.418 . S
C511 C507 1.353 . S
C512 H482 0.930 . S
C512 N513 1.330 . S
C512 C514 1.446 . S
N513 Co472 2.151 . S
N513 C512 1.330 . S
N513 C517 1.418 . S
C514 H493 0.929 . S
C514 C512 1.446 . S
C514 C515 1.332 . S
C515 H495 0.931 . S
C515 C514 1.332 . S
C515 C516 1.267 . S
C516 H484 0.929 . S
C516 C515 1.267 . S
C516 C517 1.251 . S
C517 H487 0.929 . S
C517 N513 1.418 . S
C517 C516 1.251 . S
C518 H485 0.930 . S
C518 C520 1.406 . S
C518 C523 1.261 . S
C519 H486 0.930 . S
C519 N521 1.325 . S
C519 C522 1.357 . S
C520 H488 0.928 . S
C520 C518 1.406 . S
C520 N521 1.261 . S
N521 Co472 2.214 . S
N521 C519 1.325 . S
N521 C520 1.261 . S
C522 H492 0.931 . S
C522 C519 1.357 . S
C522 C523 1.312 . S
C523 H494 0.930 . S
C523 C518 1.261 . S
C523 C522 1.312 . S
C524 O496 1.214 . S
C524 O504 1.234 . S
C525 H497 0.929 . S
C525 C528 1.391 . S
C525 C530 1.391 . S
C526 H498 0.929 . S
C526 C527 1.390 . S
C526 N529 1.391 . S
C527 H499 0.930 . S
C527 C526 1.390 . S
C527 C528 1.392 . S
C528 H500 0.929 . S
C528 C525 1.391 . S
C528 C527 1.392 . S
N529 Co473 2.257 . S
N529 C526 1.391 . S
N529 C530 1.388 . S
C530 H501 0.930 . S
C530 C525 1.391 . S
C530 N529 1.388 . S
Co531 O533 2.143 . S
Co531 O539 2.074 . S
Co531 O542 2.093 . S
Co531 O555 2.097 . S
Co531 N572 2.151 . S
Co531 N580 2.214 . S
Co532 O533 2.160 . S
Co532 O538 2.058 . S
Co532 O548 2.057 . S
Co532 O563 2.037 . S
Co532 N567 2.145 . S
Co532 N588 2.257 . S
O533 Co531 2.143 . S
O533 Co532 2.160 . S
C534 O535 1.278 . S
C534 O542 1.224 . S
O535 C534 1.278 . S
C536 O537 1.245 . S
C536 O548 1.232 . S
O537 C536 1.245 . S
O538 Co532 2.058 . S
O538 C564 1.269 . S
O539 Co531 2.074 . S
O539 C564 1.257 . S
H540 C565 0.930 . S
H541 C571 0.930 . S
O542 Co531 2.093 . S
O542 C534 1.224 . S
H543 C575 0.929 . S
H544 C577 0.930 . S
H545 C578 0.930 . S
H546 C576 0.929 . S
H547 C579 0.928 . S
O548 Co532 2.057 . S
O548 C536 1.232 . S
H549 C568 0.929 . S
H550 C569 0.929 . S
H551 C581 0.931 . S
H552 C573 0.929 . S
H553 C582 0.930 . S
H554 C574 0.931 . S
O555 Co531 2.097 . S
O555 C583 1.214 . S
H556 C584 0.929 . S
H557 C585 0.929 . S
H558 C586 0.930 . S
H559 C587 0.929 . S
H560 C589 0.930 . S
H561 C566 0.930 . S
H562 C570 0.930 . S
O563 Co532 2.037 . S
O563 C583 1.234 . S
C564 O538 1.269 . S
C564 O539 1.257 . S
C565 H540 0.930 . S
C565 C568 1.388 . S
C565 C570 1.418 . S
C566 H561 0.930 . S
C566 C569 1.404 . S
C566 C570 1.353 . S
N567 Co532 2.145 . S
N567 C568 1.397 . S
N567 C569 1.334 . S
C568 H549 0.929 . S
C568 C565 1.388 . S
C568 N567 1.397 . S
C569 H550 0.929 . S
C569 C566 1.404 . S
C569 N567 1.334 . S
C570 H562 0.930 . S
C570 C565 1.418 . S
C570 C566 1.353 . S
C571 H541 0.930 . S
C571 N572 1.330 . S
C571 C573 1.446 . S
N572 Co531 2.151 . S
N572 C571 1.330 . S
N572 C576 1.418 . S
C573 H552 0.929 . S
C573 C571 1.446 . S
C573 C574 1.332 . S
C574 H554 0.931 . S
C574 C573 1.332 . S
C574 C575 1.267 . S
C575 H543 0.929 . S
C575 C574 1.267 . S
C575 C576 1.251 . S
C576 H546 0.929 . S
C576 N572 1.418 . S
C576 C575 1.251 . S
C577 H544 0.930 . S
C577 C579 1.406 . S
C577 C582 1.261 . S
C578 H545 0.930 . S
C578 N580 1.325 . S
C578 C581 1.357 . S
C579 H547 0.928 . S
C579 C577 1.406 . S
C579 N580 1.261 . S
N580 Co531 2.214 . S
N580 C578 1.325 . S
N580 C579 1.261 . S
C581 H551 0.931 . S
C581 C578 1.357 . S
C581 C582 1.312 . S
C582 H553 0.930 . S
C582 C577 1.261 . S
C582 C581 1.312 . S
C583 O555 1.214 . S
C583 O563 1.234 . S
C584 H556 0.929 . S
C584 C587 1.391 . S
C584 C589 1.391 . S
C585 H557 0.929 . S
C585 C586 1.390 . S
C585 N588 1.391 . S
C586 H558 0.930 . S
C586 C585 1.390 . S
C586 C587 1.392 . S
C587 H559 0.929 . S
C587 C584 1.391 . S
C587 C586 1.392 . S
N588 Co532 2.257 . S
N588 C585 1.391 . S
N588 C589 1.388 . S
C589 H560 0.930 . S
C589 C584 1.391 . S
C589 N588 1.388 . S
Co590 O592 2.143 . S
Co590 O598 2.074 . S
Co590 O601 2.093 . S
Co590 O614 2.097 . S
Co590 N631 2.151 . S
Co590 N639 2.214 . S
Co591 O592 2.160 . S
Co591 O597 2.058 . S
Co591 O607 2.057 . S
Co591 O622 2.037 . S
Co591 N626 2.145 . S
Co591 N647 2.257 . S
O592 Co590 2.143 . S
O592 Co591 2.160 . S
C593 O594 1.278 . S
C593 O601 1.224 . S
O594 C593 1.278 . S
C595 O596 1.245 . S
C595 O607 1.232 . S
O596 C595 1.245 . S
O597 Co591 2.058 . S
O597 C623 1.269 . S
O598 Co590 2.074 . S
O598 C623 1.257 . S
H599 C624 0.930 . S
H600 C630 0.930 . S
O601 Co590 2.093 . S
O601 C593 1.224 . S
H602 C634 0.929 . S
H603 C636 0.930 . S
H604 C637 0.930 . S
H605 C635 0.929 . S
H606 C638 0.928 . S
O607 Co591 2.057 . S
O607 C595 1.232 . S
H608 C627 0.929 . S
H609 C628 0.929 . S
H610 C640 0.931 . S
H611 C632 0.929 . S
H612 C641 0.930 . S
H613 C633 0.931 . S
O614 Co590 2.097 . S
O614 C642 1.214 . S
H615 C643 0.929 . S
H616 C644 0.929 . S
H617 C645 0.930 . S
H618 C646 0.929 . S
H619 C648 0.930 . S
H620 C625 0.930 . S
H621 C629 0.930 . S
O622 Co591 2.037 . S
O622 C642 1.234 . S
C623 O597 1.269 . S
C623 O598 1.257 . S
C624 H599 0.930 . S
C624 C627 1.388 . S
C624 C629 1.418 . S
C625 H620 0.930 . S
C625 C628 1.404 . S
C625 C629 1.353 . S
N626 Co591 2.145 . S
N626 C627 1.397 . S
N626 C628 1.334 . S
C627 H608 0.929 . S
C627 C624 1.388 . S
C627 N626 1.397 . S
C628 H609 0.929 . S
C628 C625 1.404 . S
C628 N626 1.334 . S
C629 H621 0.930 . S
C629 C624 1.418 . S
C629 C625 1.353 . S
C630 H600 0.930 . S
C630 N631 1.330 . S
C630 C632 1.446 . S
N631 Co590 2.151 . S
N631 C630 1.330 . S
N631 C635 1.418 . S
C632 H611 0.929 . S
C632 C630 1.446 . S
C632 C633 1.332 . S
C633 H613 0.931 . S
C633 C632 1.332 . S
C633 C634 1.267 . S
C634 H602 0.929 . S
C634 C633 1.267 . S
C634 C635 1.251 . S
C635 H605 0.929 . S
C635 N631 1.418 . S
C635 C634 1.251 . S
C636 H603 0.930 . S
C636 C638 1.406 . S
C636 C641 1.261 . S
C637 H604 0.930 . S
C637 N639 1.325 . S
C637 C640 1.357 . S
C638 H606 0.928 . S
C638 C636 1.406 . S
C638 N639 1.261 . S
N639 Co590 2.214 . S
N639 C637 1.325 . S
N639 C638 1.261 . S
C640 H610 0.931 . S
C640 C637 1.357 . S
C640 C641 1.312 . S
C641 H612 0.930 . S
C641 C636 1.261 . S
C641 C640 1.312 . S
C642 O614 1.214 . S
C642 O622 1.234 . S
C643 H615 0.929 . S
C643 C646 1.391 . S
C643 C648 1.391 . S
C644 H616 0.929 . S
C644 C645 1.390 . S
C644 N647 1.391 . S
C645 H617 0.930 . S
C645 C644 1.390 . S
C645 C646 1.392 . S
C646 H618 0.929 . S
C646 C643 1.391 . S
C646 C645 1.392 . S
N647 Co591 2.257 . S
N647 C644 1.391 . S
N647 C648 1.388 . S
C648 H619 0.930 . S
C648 C643 1.391 . S
C648 N647 1.388 . S
Co649 O651 2.143 . S
Co649 O657 2.074 . S
Co649 O660 2.093 . S
Co649 O673 2.097 . S
Co649 N690 2.151 . S
Co649 N698 2.214 . S
Co650 O651 2.160 . S
Co650 O656 2.058 . S
Co650 O666 2.057 . S
Co650 O681 2.037 . S
Co650 N685 2.145 . S
Co650 N706 2.257 . S
O651 Co649 2.143 . S
O651 Co650 2.160 . S
C652 O653 1.278 . S
C652 O660 1.224 . S
O653 C652 1.278 . S
C654 O655 1.245 . S
C654 O666 1.232 . S
O655 C654 1.245 . S
O656 Co650 2.058 . S
O656 C682 1.269 . S
O657 Co649 2.074 . S
O657 C682 1.257 . S
H658 C683 0.930 . S
H659 C689 0.930 . S
O660 Co649 2.093 . S
O660 C652 1.224 . S
H661 C693 0.929 . S
H662 C695 0.930 . S
H663 C696 0.930 . S
H664 C694 0.929 . S
H665 C697 0.928 . S
O666 Co650 2.057 . S
O666 C654 1.232 . S
H667 C686 0.929 . S
H668 C687 0.929 . S
H669 C699 0.931 . S
H670 C691 0.929 . S
H671 C700 0.930 . S
H672 C692 0.931 . S
O673 Co649 2.097 . S
O673 C701 1.214 . S
H674 C702 0.929 . S
H675 C703 0.929 . S
H676 C704 0.930 . S
H677 C705 0.929 . S
H678 C707 0.930 . S
H679 C684 0.930 . S
H680 C688 0.930 . S
O681 Co650 2.037 . S
O681 C701 1.234 . S
C682 O656 1.269 . S
C682 O657 1.257 . S
C683 H658 0.930 . S
C683 C686 1.388 . S
C683 C688 1.418 . S
C684 H679 0.930 . S
C684 C687 1.404 . S
C684 C688 1.353 . S
N685 Co650 2.145 . S
N685 C686 1.397 . S
N685 C687 1.334 . S
C686 H667 0.929 . S
C686 C683 1.388 . S
C686 N685 1.397 . S
C687 H668 0.929 . S
C687 C684 1.404 . S
C687 N685 1.334 . S
C688 H680 0.930 . S
C688 C683 1.418 . S
C688 C684 1.353 . S
C689 H659 0.930 . S
C689 N690 1.330 . S
C689 C691 1.446 . S
N690 Co649 2.151 . S
N690 C689 1.330 . S
N690 C694 1.418 . S
C691 H670 0.929 . S
C691 C689 1.446 . S
C691 C692 1.332 . S
C692 H672 0.931 . S
C692 C691 1.332 . S
C692 C693 1.267 . S
C693 H661 0.929 . S
C693 C692 1.267 . S
C693 C694 1.251 . S
C694 H664 0.929 . S
C694 N690 1.418 . S
C694 C693 1.251 . S
C695 H662 0.930 . S
C695 C697 1.406 . S
C695 C700 1.261 . S
C696 H663 0.930 . S
C696 N698 1.325 . S
C696 C699 1.357 . S
C697 H665 0.928 . S
C697 C695 1.406 . S
C697 N698 1.261 . S
N698 Co649 2.214 . S
N698 C696 1.325 . S
N698 C697 1.261 . S
C699 H669 0.931 . S
C699 C696 1.357 . S
C699 C700 1.312 . S
C700 H671 0.930 . S
C700 C695 1.261 . S
C700 C699 1.312 . S
C701 O673 1.214 . S
C701 O681 1.234 . S
C702 H674 0.929 . S
C702 C705 1.391 . S
C702 C707 1.391 . S
C703 H675 0.929 . S
C703 C704 1.390 . S
C703 N706 1.391 . S
C704 H676 0.930 . S
C704 C703 1.390 . S
C704 C705 1.392 . S
C705 H677 0.929 . S
C705 C702 1.391 . S
C705 C704 1.392 . S
N706 Co650 2.257 . S
N706 C703 1.391 . S
N706 C707 1.388 . S
C707 H678 0.930 . S
C707 C702 1.391 . S
C707 N706 1.388 . S
Co708 O710 2.143 . S
Co708 O716 2.074 . S
Co708 O719 2.093 . S
Co708 O732 2.097 . S
Co708 N749 2.151 . S
Co708 N757 2.214 . S
Co709 O710 2.160 . S
Co709 O715 2.058 . S
Co709 O725 2.057 . S
Co709 O740 2.037 . S
Co709 N744 2.145 . S
Co709 N765 2.257 . S
O710 Co708 2.143 . S
O710 Co709 2.160 . S
C711 O712 1.278 . S
C711 O719 1.224 . S
O712 C711 1.278 . S
C713 O714 1.245 . S
C713 O725 1.232 . S
O714 C713 1.245 . S
O715 Co709 2.058 . S
O715 C741 1.269 . S
O716 Co708 2.074 . S
O716 C741 1.257 . S
H717 C742 0.930 . S
H718 C748 0.930 . S
O719 Co708 2.093 . S
O719 C711 1.224 . S
H720 C752 0.929 . S
H721 C754 0.930 . S
H722 C755 0.930 . S
H723 C753 0.929 . S
H724 C756 0.928 . S
O725 Co709 2.057 . S
O725 C713 1.232 . S
H726 C745 0.929 . S
H727 C746 0.929 . S
H728 C758 0.931 . S
H729 C750 0.929 . S
H730 C759 0.930 . S
H731 C751 0.931 . S
O732 Co708 2.097 . S
O732 C760 1.214 . S
H733 C761 0.929 . S
H734 C762 0.929 . S
H735 C763 0.930 . S
H736 C764 0.929 . S
H737 C766 0.930 . S
H738 C743 0.930 . S
H739 C747 0.930 . S
O740 Co709 2.037 . S
O740 C760 1.234 . S
C741 O715 1.269 . S
C741 O716 1.257 . S
C742 H717 0.930 . S
C742 C745 1.388 . S
C742 C747 1.418 . S
C743 H738 0.930 . S
C743 C746 1.404 . S
C743 C747 1.353 . S
N744 Co709 2.145 . S
N744 C745 1.397 . S
N744 C746 1.334 . S
C745 H726 0.929 . S
C745 C742 1.388 . S
C745 N744 1.397 . S
C746 H727 0.929 . S
C746 C743 1.404 . S
C746 N744 1.334 . S
C747 H739 0.930 . S
C747 C742 1.418 . S
C747 C743 1.353 . S
C748 H718 0.930 . S
C748 N749 1.330 . S
C748 C750 1.446 . S
N749 Co708 2.151 . S
N749 C748 1.330 . S
N749 C753 1.418 . S
C750 H729 0.929 . S
C750 C748 1.446 . S
C750 C751 1.332 . S
C751 H731 0.931 . S
C751 C750 1.332 . S
C751 C752 1.267 . S
C752 H720 0.929 . S
C752 C751 1.267 . S
C752 C753 1.251 . S
C753 H723 0.929 . S
C753 N749 1.418 . S
C753 C752 1.251 . S
C754 H721 0.930 . S
C754 C756 1.406 . S
C754 C759 1.261 . S
C755 H722 0.930 . S
C755 N757 1.325 . S
C755 C758 1.357 . S
C756 H724 0.928 . S
C756 C754 1.406 . S
C756 N757 1.261 . S
N757 Co708 2.214 . S
N757 C755 1.325 . S
N757 C756 1.261 . S
C758 H728 0.931 . S
C758 C755 1.357 . S
C758 C759 1.312 . S
C759 H730 0.930 . S
C759 C754 1.261 . S
C759 C758 1.312 . S
C760 O732 1.214 . S
C760 O740 1.234 . S
C761 H733 0.929 . S
C761 C764 1.391 . S
C761 C766 1.391 . S
C762 H734 0.929 . S
C762 C763 1.390 . S
C762 N765 1.391 . S
C763 H735 0.930 . S
C763 C762 1.390 . S
C763 C764 1.392 . S
C764 H736 0.929 . S
C764 C761 1.391 . S
C764 C763 1.392 . S
N765 Co709 2.257 . S
N765 C762 1.391 . S
N765 C766 1.388 . S
C766 H737 0.930 . S
C766 C761 1.391 . S
C766 N765 1.388 . S
Co767 O769 2.143 . S
Co767 O775 2.074 . S
Co767 O778 2.093 . S
Co767 O791 2.097 . S
Co767 N808 2.151 . S
Co767 N816 2.214 . S
Co768 O769 2.160 . S
Co768 O774 2.058 . S
Co768 O784 2.057 . S
Co768 O799 2.037 . S
Co768 N803 2.145 . S
Co768 N824 2.257 . S
O769 Co767 2.143 . S
O769 Co768 2.160 . S
C770 O771 1.278 . S
C770 O778 1.224 . S
O771 C770 1.278 . S
C772 O773 1.245 . S
C772 O784 1.232 . S
O773 C772 1.245 . S
O774 Co768 2.058 . S
O774 C800 1.269 . S
O775 Co767 2.074 . S
O775 C800 1.257 . S
H776 C801 0.930 . S
H777 C807 0.930 . S
O778 Co767 2.093 . S
O778 C770 1.224 . S
H779 C811 0.929 . S
H780 C813 0.930 . S
H781 C814 0.930 . S
H782 C812 0.929 . S
H783 C815 0.928 . S
O784 Co768 2.057 . S
O784 C772 1.232 . S
H785 C804 0.929 . S
H786 C805 0.929 . S
H787 C817 0.931 . S
H788 C809 0.929 . S
H789 C818 0.930 . S
H790 C810 0.931 . S
O791 Co767 2.097 . S
O791 C819 1.214 . S
H792 C820 0.929 . S
H793 C821 0.929 . S
H794 C822 0.930 . S
H795 C823 0.929 . S
H796 C825 0.930 . S
H797 C802 0.930 . S
H798 C806 0.930 . S
O799 Co768 2.037 . S
O799 C819 1.234 . S
C800 O774 1.269 . S
C800 O775 1.257 . S
C801 H776 0.930 . S
C801 C804 1.388 . S
C801 C806 1.418 . S
C802 H797 0.930 . S
C802 C805 1.404 . S
C802 C806 1.353 . S
N803 Co768 2.145 . S
N803 C804 1.397 . S
N803 C805 1.334 . S
C804 H785 0.929 . S
C804 C801 1.388 . S
C804 N803 1.397 . S
C805 H786 0.929 . S
C805 C802 1.404 . S
C805 N803 1.334 . S
C806 H798 0.930 . S
C806 C801 1.418 . S
C806 C802 1.353 . S
C807 H777 0.930 . S
C807 N808 1.330 . S
C807 C809 1.446 . S
N808 Co767 2.151 . S
N808 C807 1.330 . S
N808 C812 1.418 . S
C809 H788 0.929 . S
C809 C807 1.446 . S
C809 C810 1.332 . S
C810 H790 0.931 . S
C810 C809 1.332 . S
C810 C811 1.267 . S
C811 H779 0.929 . S
C811 C810 1.267 . S
C811 C812 1.251 . S
C812 H782 0.929 . S
C812 N808 1.418 . S
C812 C811 1.251 . S
C813 H780 0.930 . S
C813 C815 1.406 . S
C813 C818 1.261 . S
C814 H781 0.930 . S
C814 N816 1.325 . S
C814 C817 1.357 . S
C815 H783 0.928 . S
C815 C813 1.406 . S
C815 N816 1.261 . S
N816 Co767 2.214 . S
N816 C814 1.325 . S
N816 C815 1.261 . S
C817 H787 0.931 . S
C817 C814 1.357 . S
C817 C818 1.312 . S
C818 H789 0.930 . S
C818 C813 1.261 . S
C818 C817 1.312 . S
C819 O791 1.214 . S
C819 O799 1.234 . S
C820 H792 0.929 . S
C820 C823 1.391 . S
C820 C825 1.391 . S
C821 H793 0.929 . S
C821 C822 1.390 . S
C821 N824 1.391 . S
C822 H794 0.930 . S
C822 C821 1.390 . S
C822 C823 1.392 . S
C823 H795 0.929 . S
C823 C820 1.391 . S
C823 C822 1.392 . S
N824 Co768 2.257 . S
N824 C821 1.391 . S
N824 C825 1.388 . S
C825 H796 0.930 . S
C825 C820 1.391 . S
C825 N824 1.388 . S
Co826 O828 2.143 . S
Co826 O834 2.074 . S
Co826 O837 2.093 . S
Co826 O850 2.097 . S
Co826 N867 2.151 . S
Co826 N875 2.214 . S
Co827 O828 2.160 . S
Co827 O833 2.058 . S
Co827 O843 2.057 . S
Co827 O858 2.037 . S
Co827 N862 2.145 . S
Co827 N883 2.257 . S
O828 Co826 2.143 . S
O828 Co827 2.160 . S
C829 O830 1.278 . S
C829 O837 1.224 . S
O830 C829 1.278 . S
C831 O832 1.245 . S
C831 O843 1.232 . S
O832 C831 1.245 . S
O833 Co827 2.058 . S
O833 C859 1.269 . S
O834 Co826 2.074 . S
O834 C859 1.257 . S
H835 C860 0.930 . S
H836 C866 0.930 . S
O837 Co826 2.093 . S
O837 C829 1.224 . S
H838 C870 0.929 . S
H839 C872 0.930 . S
H840 C873 0.930 . S
H841 C871 0.929 . S
H842 C874 0.928 . S
O843 Co827 2.057 . S
O843 C831 1.232 . S
H844 C863 0.929 . S
H845 C864 0.929 . S
H846 C876 0.931 . S
H847 C868 0.929 . S
H848 C877 0.930 . S
H849 C869 0.931 . S
O850 Co826 2.097 . S
O850 C878 1.214 . S
H851 C879 0.929 . S
H852 C880 0.929 . S
H853 C881 0.930 . S
H854 C882 0.929 . S
H855 C884 0.930 . S
H856 C861 0.930 . S
H857 C865 0.930 . S
O858 Co827 2.037 . S
O858 C878 1.234 . S
C859 O833 1.269 . S
C859 O834 1.257 . S
C860 H835 0.930 . S
C860 C863 1.388 . S
C860 C865 1.418 . S
C861 H856 0.930 . S
C861 C864 1.404 . S
C861 C865 1.353 . S
N862 Co827 2.145 . S
N862 C863 1.397 . S
N862 C864 1.334 . S
C863 H844 0.929 . S
C863 C860 1.388 . S
C863 N862 1.397 . S
C864 H845 0.929 . S
C864 C861 1.404 . S
C864 N862 1.334 . S
C865 H857 0.930 . S
C865 C860 1.418 . S
C865 C861 1.353 . S
C866 H836 0.930 . S
C866 N867 1.330 . S
C866 C868 1.446 . S
N867 Co826 2.151 . S
N867 C866 1.330 . S
N867 C871 1.418 . S
C868 H847 0.929 . S
C868 C866 1.446 . S
C868 C869 1.332 . S
C869 H849 0.931 . S
C869 C868 1.332 . S
C869 C870 1.267 . S
C870 H838 0.929 . S
C870 C869 1.267 . S
C870 C871 1.251 . S
C871 H841 0.929 . S
C871 N867 1.418 . S
C871 C870 1.251 . S
C872 H839 0.930 . S
C872 C874 1.406 . S
C872 C877 1.261 . S
C873 H840 0.930 . S
C873 N875 1.325 . S
C873 C876 1.357 . S
C874 H842 0.928 . S
C874 C872 1.406 . S
C874 N875 1.261 . S
N875 Co826 2.214 . S
N875 C873 1.325 . S
N875 C874 1.261 . S
C876 H846 0.931 . S
C876 C873 1.357 . S
C876 C877 1.312 . S
C877 H848 0.930 . S
C877 C872 1.261 . S
C877 C876 1.312 . S
C878 O850 1.214 . S
C878 O858 1.234 . S
C879 H851 0.929 . S
C879 C882 1.391 . S
C879 C884 1.391 . S
C880 H852 0.929 . S
C880 C881 1.390 . S
C880 N883 1.391 . S
C881 H853 0.930 . S
C881 C880 1.390 . S
C881 C882 1.392 . S
C882 H854 0.929 . S
C882 C879 1.391 . S
C882 C881 1.392 . S
N883 Co827 2.257 . S
N883 C880 1.391 . S
N883 C884 1.388 . S
C884 H855 0.930 . S
C884 C879 1.391 . S
C884 N883 1.388 . S
Co885 O887 2.143 . S
Co885 O893 2.074 . S
Co885 O896 2.093 . S
Co885 O909 2.097 . S
Co885 N926 2.151 . S
Co885 N934 2.214 . S
Co886 O887 2.160 . S
Co886 O892 2.058 . S
Co886 O902 2.057 . S
Co886 O917 2.037 . S
Co886 N921 2.145 . S
Co886 N942 2.257 . S
O887 Co885 2.143 . S
O887 Co886 2.160 . S
C888 O889 1.278 . S
C888 O896 1.224 . S
O889 C888 1.278 . S
C890 O891 1.245 . S
C890 O902 1.232 . S
O891 C890 1.245 . S
O892 Co886 2.058 . S
O892 C918 1.269 . S
O893 Co885 2.074 . S
O893 C918 1.257 . S
H894 C919 0.930 . S
H895 C925 0.930 . S
O896 Co885 2.093 . S
O896 C888 1.224 . S
H897 C929 0.929 . S
H898 C931 0.930 . S
H899 C932 0.930 . S
H900 C930 0.929 . S
H901 C933 0.928 . S
O902 Co886 2.057 . S
O902 C890 1.232 . S
H903 C922 0.929 . S
H904 C923 0.929 . S
H905 C935 0.931 . S
H906 C927 0.929 . S
H907 C936 0.930 . S
H908 C928 0.931 . S
O909 Co885 2.097 . S
O909 C937 1.214 . S
H910 C938 0.929 . S
H911 C939 0.929 . S
H912 C940 0.930 . S
H913 C941 0.929 . S
H914 C943 0.930 . S
H915 C920 0.930 . S
H916 C924 0.930 . S
O917 Co886 2.037 . S
O917 C937 1.234 . S
C918 O892 1.269 . S
C918 O893 1.257 . S
C919 H894 0.930 . S
C919 C922 1.388 . S
C919 C924 1.418 . S
C920 H915 0.930 . S
C920 C923 1.404 . S
C920 C924 1.353 . S
N921 Co886 2.145 . S
N921 C922 1.397 . S
N921 C923 1.334 . S
C922 H903 0.929 . S
C922 C919 1.388 . S
C922 N921 1.397 . S
C923 H904 0.929 . S
C923 C920 1.404 . S
C923 N921 1.334 . S
C924 H916 0.930 . S
C924 C919 1.418 . S
C924 C920 1.353 . S
C925 H895 0.930 . S
C925 N926 1.330 . S
C925 C927 1.446 . S
N926 Co885 2.151 . S
N926 C925 1.330 . S
N926 C930 1.418 . S
C927 H906 0.929 . S
C927 C925 1.446 . S
C927 C928 1.332 . S
C928 H908 0.931 . S
C928 C927 1.332 . S
C928 C929 1.267 . S
C929 H897 0.929 . S
C929 C928 1.267 . S
C929 C930 1.251 . S
C930 H900 0.929 . S
C930 N926 1.418 . S
C930 C929 1.251 . S
C931 H898 0.930 . S
C931 C933 1.406 . S
C931 C936 1.261 . S
C932 H899 0.930 . S
C932 N934 1.325 . S
C932 C935 1.357 . S
C933 H901 0.928 . S
C933 C931 1.406 . S
C933 N934 1.261 . S
N934 Co885 2.214 . S
N934 C932 1.325 . S
N934 C933 1.261 . S
C935 H905 0.931 . S
C935 C932 1.357 . S
C935 C936 1.312 . S
C936 H907 0.930 . S
C936 C931 1.261 . S
C936 C935 1.312 . S
C937 O909 1.214 . S
C937 O917 1.234 . S
C938 H910 0.929 . S
C938 C941 1.391 . S
C938 C943 1.391 . S
C939 H911 0.929 . S
C939 C940 1.390 . S
C939 N942 1.391 . S
C940 H912 0.930 . S
C940 C939 1.390 . S
C940 C941 1.392 . S
C941 H913 0.929 . S
C941 C938 1.391 . S
C941 C940 1.392 . S
N942 Co886 2.257 . S
N942 C939 1.391 . S
N942 C943 1.388 . S
C943 H914 0.930 . S
C943 C938 1.391 . S
C943 N942 1.388 . S
Co944 O946 2.143 . S
Co944 O952 2.074 . S
Co944 O955 2.093 . S
Co944 O968 2.097 . S
Co944 N985 2.151 . S
Co944 N993 2.214 . S
Co945 O946 2.160 . S
Co945 O951 2.058 . S
Co945 O961 2.057 . S
Co945 O976 2.037 . S
Co945 N980 2.145 . S
Co945 N1001 2.257 . S
O946 Co944 2.143 . S
O946 Co945 2.160 . S
C947 O948 1.278 . S
C947 O955 1.224 . S
O948 C947 1.278 . S
C949 O950 1.245 . S
C949 O961 1.232 . S
O950 C949 1.245 . S
O951 Co945 2.058 . S
O951 C977 1.269 . S
O952 Co944 2.074 . S
O952 C977 1.257 . S
H953 C978 0.930 . S
H954 C984 0.930 . S
O955 Co944 2.093 . S
O955 C947 1.224 . S
H956 C988 0.929 . S
H957 C990 0.930 . S
H958 C991 0.930 . S
H959 C989 0.929 . S
H960 C992 0.928 . S
O961 Co945 2.057 . S
O961 C949 1.232 . S
H962 C981 0.929 . S
H963 C982 0.929 . S
H964 C994 0.931 . S
H965 C986 0.929 . S
H966 C995 0.930 . S
H967 C987 0.931 . S
O968 Co944 2.097 . S
O968 C996 1.214 . S
H969 C997 0.929 . S
H970 C998 0.929 . S
H971 C999 0.930 . S
H972 C1000 0.929 . S
H973 C1002 0.930 . S
H974 C979 0.930 . S
H975 C983 0.930 . S
O976 Co945 2.037 . S
O976 C996 1.234 . S
C977 O951 1.269 . S
C977 O952 1.257 . S
C978 H953 0.930 . S
C978 C981 1.388 . S
C978 C983 1.418 . S
C979 H974 0.930 . S
C979 C982 1.404 . S
C979 C983 1.353 . S
N980 Co945 2.145 . S
N980 C981 1.397 . S
N980 C982 1.334 . S
C981 H962 0.929 . S
C981 C978 1.388 . S
C981 N980 1.397 . S
C982 H963 0.929 . S
C982 C979 1.404 . S
C982 N980 1.334 . S
C983 H975 0.930 . S
C983 C978 1.418 . S
C983 C979 1.353 . S
C984 H954 0.930 . S
C984 N985 1.330 . S
C984 C986 1.446 . S
N985 Co944 2.151 . S
N985 C984 1.330 . S
N985 C989 1.418 . S
C986 H965 0.929 . S
C986 C984 1.446 . S
C986 C987 1.332 . S
C987 H967 0.931 . S
C987 C986 1.332 . S
C987 C988 1.267 . S
C988 H956 0.929 . S
C988 C987 1.267 . S
C988 C989 1.251 . S
C989 H959 0.929 . S
C989 N985 1.418 . S
C989 C988 1.251 . S
C990 H957 0.930 . S
C990 C992 1.406 . S
C990 C995 1.261 . S
C991 H958 0.930 . S
C991 N993 1.325 . S
C991 C994 1.357 . S
C992 H960 0.928 . S
C992 C990 1.406 . S
C992 N993 1.261 . S
N993 Co944 2.214 . S
N993 C991 1.325 . S
N993 C992 1.261 . S
C994 H964 0.931 . S
C994 C991 1.357 . S
C994 C995 1.312 . S
C995 H966 0.930 . S
C995 C990 1.261 . S
C995 C994 1.312 . S
C996 O968 1.214 . S
C996 O976 1.234 . S
C997 H969 0.929 . S
C997 C1000 1.391 . S
C997 C1002 1.391 . S
C998 H970 0.929 . S
C998 C999 1.390 . S
C998 N1001 1.391 . S
C999 H971 0.930 . S
C999 C998 1.390 . S
C999 C1000 1.392 . S
C1000 H972 0.929 . S
C1000 C997 1.391 . S
C1000 C999 1.392 . S
N1001 Co945 2.257 . S
N1001 C998 1.391 . S
N1001 C1002 1.388 . S
C1002 H973 0.930 . S
C1002 C997 1.391 . S
C1002 N1001 1.388 . S
Co1003 O1005 2.143 . S
Co1003 O1011 2.074 . S
Co1003 O1014 2.093 . S
Co1003 O1027 2.097 . S
Co1003 N1044 2.151 . S
Co1003 N1052 2.214 . S
Co1004 O1005 2.160 . S
Co1004 O1010 2.058 . S
Co1004 O1020 2.057 . S
Co1004 O1035 2.037 . S
Co1004 N1039 2.145 . S
Co1004 N1060 2.257 . S
O1005 Co1003 2.143 . S
O1005 Co1004 2.160 . S
C1006 O1007 1.278 . S
C1006 O1014 1.224 . S
O1007 C1006 1.278 . S
C1008 O1009 1.245 . S
C1008 O1020 1.232 . S
O1009 C1008 1.245 . S
O1010 Co1004 2.058 . S
O1010 C1036 1.269 . S
O1011 Co1003 2.074 . S
O1011 C1036 1.257 . S
H1012 C1037 0.930 . S
H1013 C1043 0.930 . S
O1014 Co1003 2.093 . S
O1014 C1006 1.224 . S
H1015 C1047 0.929 . S
H1016 C1049 0.930 . S
H1017 C1050 0.930 . S
H1018 C1048 0.929 . S
H1019 C1051 0.928 . S
O1020 Co1004 2.057 . S
O1020 C1008 1.232 . S
H1021 C1040 0.929 . S
H1022 C1041 0.929 . S
H1023 C1053 0.931 . S
H1024 C1045 0.929 . S
H1025 C1054 0.930 . S
H1026 C1046 0.931 . S
O1027 Co1003 2.097 . S
O1027 C1055 1.214 . S
H1028 C1056 0.929 . S
H1029 C1057 0.929 . S
H1030 C1058 0.930 . S
H1031 C1059 0.929 . S
H1032 C1061 0.930 . S
H1033 C1038 0.930 . S
H1034 C1042 0.930 . S
O1035 Co1004 2.037 . S
O1035 C1055 1.234 . S
C1036 O1010 1.269 . S
C1036 O1011 1.257 . S
C1037 H1012 0.930 . S
C1037 C1040 1.388 . S
C1037 C1042 1.418 . S
C1038 H1033 0.930 . S
C1038 C1041 1.404 . S
C1038 C1042 1.353 . S
N1039 Co1004 2.145 . S
N1039 C1040 1.397 . S
N1039 C1041 1.334 . S
C1040 H1021 0.929 . S
C1040 C1037 1.388 . S
C1040 N1039 1.397 . S
C1041 H1022 0.929 . S
C1041 C1038 1.404 . S
C1041 N1039 1.334 . S
C1042 H1034 0.930 . S
C1042 C1037 1.418 . S
C1042 C1038 1.353 . S
C1043 H1013 0.930 . S
C1043 N1044 1.330 . S
C1043 C1045 1.446 . S
N1044 Co1003 2.151 . S
N1044 C1043 1.330 . S
N1044 C1048 1.418 . S
C1045 H1024 0.929 . S
C1045 C1043 1.446 . S
C1045 C1046 1.332 . S
C1046 H1026 0.931 . S
C1046 C1045 1.332 . S
C1046 C1047 1.267 . S
C1047 H1015 0.929 . S
C1047 C1046 1.267 . S
C1047 C1048 1.251 . S
C1048 H1018 0.929 . S
C1048 N1044 1.418 . S
C1048 C1047 1.251 . S
C1049 H1016 0.930 . S
C1049 C1051 1.406 . S
C1049 C1054 1.261 . S
C1050 H1017 0.930 . S
C1050 N1052 1.325 . S
C1050 C1053 1.357 . S
C1051 H1019 0.928 . S
C1051 C1049 1.406 . S
C1051 N1052 1.261 . S
N1052 Co1003 2.214 . S
N1052 C1050 1.325 . S
N1052 C1051 1.261 . S
C1053 H1023 0.931 . S
C1053 C1050 1.357 . S
C1053 C1054 1.312 . S
C1054 H1025 0.930 . S
C1054 C1049 1.261 . S
C1054 C1053 1.312 . S
C1055 O1027 1.214 . S
C1055 O1035 1.234 . S
C1056 H1028 0.929 . S
C1056 C1059 1.391 . S
C1056 C1061 1.391 . S
C1057 H1029 0.929 . S
C1057 C1058 1.390 . S
C1057 N1060 1.391 . S
C1058 H1030 0.930 . S
C1058 C1057 1.390 . S
C1058 C1059 1.392 . S
C1059 H1031 0.929 . S
C1059 C1056 1.391 . S
C1059 C1058 1.392 . S
N1060 Co1004 2.257 . S
N1060 C1057 1.391 . S
N1060 C1061 1.388 . S
C1061 H1032 0.930 . S
C1061 C1056 1.391 . S
C1061 N1060 1.388 . S
Co1062 O1064 2.143 . S
Co1062 O1070 2.074 . S
Co1062 O1073 2.093 . S
Co1062 O1086 2.097 . S
Co1062 N1103 2.151 . S
Co1062 N1111 2.214 . S
Co1063 O1064 2.160 . S
Co1063 O1069 2.058 . S
Co1063 O1079 2.057 . S
Co1063 O1094 2.037 . S
Co1063 N1098 2.145 . S
Co1063 N1119 2.257 . S
O1064 Co1062 2.143 . S
O1064 Co1063 2.160 . S
C1065 O1066 1.278 . S
C1065 O1073 1.224 . S
O1066 C1065 1.278 . S
C1067 O1068 1.245 . S
C1067 O1079 1.232 . S
O1068 C1067 1.245 . S
O1069 Co1063 2.058 . S
O1069 C1095 1.269 . S
O1070 Co1062 2.074 . S
O1070 C1095 1.257 . S
H1071 C1096 0.930 . S
H1072 C1102 0.930 . S
O1073 Co1062 2.093 . S
O1073 C1065 1.224 . S
H1074 C1106 0.929 . S
H1075 C1108 0.930 . S
H1076 C1109 0.930 . S
H1077 C1107 0.929 . S
H1078 C1110 0.928 . S
O1079 Co1063 2.057 . S
O1079 C1067 1.232 . S
H1080 C1099 0.929 . S
H1081 C1100 0.929 . S
H1082 C1112 0.931 . S
H1083 C1104 0.929 . S
H1084 C1113 0.930 . S
H1085 C1105 0.931 . S
O1086 Co1062 2.097 . S
O1086 C1114 1.214 . S
H1087 C1115 0.929 . S
H1088 C1116 0.929 . S
H1089 C1117 0.930 . S
H1090 C1118 0.929 . S
H1091 C1120 0.930 . S
H1092 C1097 0.930 . S
H1093 C1101 0.930 . S
O1094 Co1063 2.037 . S
O1094 C1114 1.234 . S
C1095 O1069 1.269 . S
C1095 O1070 1.257 . S
C1096 H1071 0.930 . S
C1096 C1099 1.388 . S
C1096 C1101 1.418 . S
C1097 H1092 0.930 . S
C1097 C1100 1.404 . S
C1097 C1101 1.353 . S
N1098 Co1063 2.145 . S
N1098 C1099 1.397 . S
N1098 C1100 1.334 . S
C1099 H1080 0.929 . S
C1099 C1096 1.388 . S
C1099 N1098 1.397 . S
C1100 H1081 0.929 . S
C1100 C1097 1.404 . S
C1100 N1098 1.334 . S
C1101 H1093 0.930 . S
C1101 C1096 1.418 . S
C1101 C1097 1.353 . S
C1102 H1072 0.930 . S
C1102 N1103 1.330 . S
C1102 C1104 1.446 . S
N1103 Co1062 2.151 . S
N1103 C1102 1.330 . S
N1103 C1107 1.418 . S
C1104 H1083 0.929 . S
C1104 C1102 1.446 . S
C1104 C1105 1.332 . S
C1105 H1085 0.931 . S
C1105 C1104 1.332 . S
C1105 C1106 1.267 . S
C1106 H1074 0.929 . S
C1106 C1105 1.267 . S
C1106 C1107 1.251 . S
C1107 H1077 0.929 . S
C1107 N1103 1.418 . S
C1107 C1106 1.251 . S
C1108 H1075 0.930 . S
C1108 C1110 1.406 . S
C1108 C1113 1.261 . S
C1109 H1076 0.930 . S
C1109 N1111 1.325 . S
C1109 C1112 1.357 . S
C1110 H1078 0.928 . S
C1110 C1108 1.406 . S
C1110 N1111 1.261 . S
N1111 Co1062 2.214 . S
N1111 C1109 1.325 . S
N1111 C1110 1.261 . S
C1112 H1082 0.931 . S
C1112 C1109 1.357 . S
C1112 C1113 1.312 . S
C1113 H1084 0.930 . S
C1113 C1108 1.261 . S
C1113 C1112 1.312 . S
C1114 O1086 1.214 . S
C1114 O1094 1.234 . S
C1115 H1087 0.929 . S
C1115 C1118 1.391 . S
C1115 C1120 1.391 . S
C1116 H1088 0.929 . S
C1116 C1117 1.390 . S
C1116 N1119 1.391 . S
C1117 H1089 0.930 . S
C1117 C1116 1.390 . S
C1117 C1118 1.392 . S
C1118 H1090 0.929 . S
C1118 C1115 1.391 . S
C1118 C1117 1.392 . S
N1119 Co1063 2.257 . S
N1119 C1116 1.391 . S
N1119 C1120 1.388 . S
C1120 H1091 0.930 . S
C1120 C1115 1.391 . S
C1120 N1119 1.388 . S
Co1121 O1123 2.143 . S
Co1121 O1129 2.074 . S
Co1121 O1132 2.093 . S
Co1121 O1145 2.097 . S
Co1121 N1162 2.151 . S
Co1121 N1170 2.214 . S
Co1122 O1123 2.160 . S
Co1122 O1128 2.058 . S
Co1122 O1138 2.057 . S
Co1122 O1153 2.037 . S
Co1122 N1157 2.145 . S
Co1122 N1178 2.257 . S
O1123 Co1121 2.143 . S
O1123 Co1122 2.160 . S
C1124 O1125 1.278 . S
C1124 O1132 1.224 . S
O1125 C1124 1.278 . S
C1126 O1127 1.245 . S
C1126 O1138 1.232 . S
O1127 C1126 1.245 . S
O1128 Co1122 2.058 . S
O1128 C1154 1.269 . S
O1129 Co1121 2.074 . S
O1129 C1154 1.257 . S
H1130 C1155 0.930 . S
H1131 C1161 0.930 . S
O1132 Co1121 2.093 . S
O1132 C1124 1.224 . S
H1133 C1165 0.929 . S
H1134 C1167 0.930 . S
H1135 C1168 0.930 . S
H1136 C1166 0.929 . S
H1137 C1169 0.928 . S
O1138 Co1122 2.057 . S
O1138 C1126 1.232 . S
H1139 C1158 0.929 . S
H1140 C1159 0.929 . S
H1141 C1171 0.931 . S
H1142 C1163 0.929 . S
H1143 C1172 0.930 . S
H1144 C1164 0.931 . S
O1145 Co1121 2.097 . S
O1145 C1173 1.214 . S
H1146 C1174 0.929 . S
H1147 C1175 0.929 . S
H1148 C1176 0.930 . S
H1149 C1177 0.929 . S
H1150 C1179 0.930 . S
H1151 C1156 0.930 . S
H1152 C1160 0.930 . S
O1153 Co1122 2.037 . S
O1153 C1173 1.234 . S
C1154 O1128 1.269 . S
C1154 O1129 1.257 . S
C1155 H1130 0.930 . S
C1155 C1158 1.388 . S
C1155 C1160 1.418 . S
C1156 H1151 0.930 . S
C1156 C1159 1.404 . S
C1156 C1160 1.353 . S
N1157 Co1122 2.145 . S
N1157 C1158 1.397 . S
N1157 C1159 1.334 . S
C1158 H1139 0.929 . S
C1158 C1155 1.388 . S
C1158 N1157 1.397 . S
C1159 H1140 0.929 . S
C1159 C1156 1.404 . S
C1159 N1157 1.334 . S
C1160 H1152 0.930 . S
C1160 C1155 1.418 . S
C1160 C1156 1.353 . S
C1161 H1131 0.930 . S
C1161 N1162 1.330 . S
C1161 C1163 1.446 . S
N1162 Co1121 2.151 . S
N1162 C1161 1.330 . S
N1162 C1166 1.418 . S
C1163 H1142 0.929 . S
C1163 C1161 1.446 . S
C1163 C1164 1.332 . S
C1164 H1144 0.931 . S
C1164 C1163 1.332 . S
C1164 C1165 1.267 . S
C1165 H1133 0.929 . S
C1165 C1164 1.267 . S
C1165 C1166 1.251 . S
C1166 H1136 0.929 . S
C1166 N1162 1.418 . S
C1166 C1165 1.251 . S
C1167 H1134 0.930 . S
C1167 C1169 1.406 . S
C1167 C1172 1.261 . S
C1168 H1135 0.930 . S
C1168 N1170 1.325 . S
C1168 C1171 1.357 . S
C1169 H1137 0.928 . S
C1169 C1167 1.406 . S
C1169 N1170 1.261 . S
N1170 Co1121 2.214 . S
N1170 C1168 1.325 . S
N1170 C1169 1.261 . S
C1171 H1141 0.931 . S
C1171 C1168 1.357 . S
C1171 C1172 1.312 . S
C1172 H1143 0.930 . S
C1172 C1167 1.261 . S
C1172 C1171 1.312 . S
C1173 O1145 1.214 . S
C1173 O1153 1.234 . S
C1174 H1146 0.929 . S
C1174 C1177 1.391 . S
C1174 C1179 1.391 . S
C1175 H1147 0.929 . S
C1175 C1176 1.390 . S
C1175 N1178 1.391 . S
C1176 H1148 0.930 . S
C1176 C1175 1.390 . S
C1176 C1177 1.392 . S
C1177 H1149 0.929 . S
C1177 C1174 1.391 . S
C1177 C1176 1.392 . S
N1178 Co1122 2.257 . S
N1178 C1175 1.391 . S
N1178 C1179 1.388 . S
C1179 H1150 0.930 . S
C1179 C1174 1.391 . S
C1179 N1178 1.388 . S
Co1180 O1182 2.143 . S
Co1180 O1188 2.074 . S
Co1180 O1191 2.093 . S
Co1180 O1204 2.097 . S
Co1180 N1221 2.151 . S
Co1180 N1229 2.214 . S
Co1181 O1182 2.160 . S
Co1181 O1187 2.058 . S
Co1181 O1197 2.057 . S
Co1181 O1212 2.037 . S
Co1181 N1216 2.145 . S
Co1181 N1237 2.257 . S
O1182 Co1180 2.143 . S
O1182 Co1181 2.160 . S
C1183 O1184 1.278 . S
C1183 O1191 1.224 . S
O1184 C1183 1.278 . S
C1185 O1186 1.245 . S
C1185 O1197 1.232 . S
O1186 C1185 1.245 . S
O1187 Co1181 2.058 . S
O1187 C1213 1.269 . S
O1188 Co1180 2.074 . S
O1188 C1213 1.257 . S
H1189 C1214 0.930 . S
H1190 C1220 0.930 . S
O1191 Co1180 2.093 . S
O1191 C1183 1.224 . S
H1192 C1224 0.929 . S
H1193 C1226 0.930 . S
H1194 C1227 0.930 . S
H1195 C1225 0.929 . S
H1196 C1228 0.928 . S
O1197 Co1181 2.057 . S
O1197 C1185 1.232 . S
H1198 C1217 0.929 . S
H1199 C1218 0.929 . S
H1200 C1230 0.931 . S
H1201 C1222 0.929 . S
H1202 C1231 0.930 . S
H1203 C1223 0.931 . S
O1204 Co1180 2.097 . S
O1204 C1232 1.214 . S
H1205 C1233 0.929 . S
H1206 C1234 0.929 . S
H1207 C1235 0.930 . S
H1208 C1236 0.929 . S
H1209 C1238 0.930 . S
H1210 C1215 0.930 . S
H1211 C1219 0.930 . S
O1212 Co1181 2.037 . S
O1212 C1232 1.234 . S
C1213 O1187 1.269 . S
C1213 O1188 1.257 . S
C1214 H1189 0.930 . S
C1214 C1217 1.388 . S
C1214 C1219 1.418 . S
C1215 H1210 0.930 . S
C1215 C1218 1.404 . S
C1215 C1219 1.353 . S
N1216 Co1181 2.145 . S
N1216 C1217 1.397 . S
N1216 C1218 1.334 . S
C1217 H1198 0.929 . S
C1217 C1214 1.388 . S
C1217 N1216 1.397 . S
C1218 H1199 0.929 . S
C1218 C1215 1.404 . S
C1218 N1216 1.334 . S
C1219 H1211 0.930 . S
C1219 C1214 1.418 . S
C1219 C1215 1.353 . S
C1220 H1190 0.930 . S
C1220 N1221 1.330 . S
C1220 C1222 1.446 . S
N1221 Co1180 2.151 . S
N1221 C1220 1.330 . S
N1221 C1225 1.418 . S
C1222 H1201 0.929 . S
C1222 C1220 1.446 . S
C1222 C1223 1.332 . S
C1223 H1203 0.931 . S
C1223 C1222 1.332 . S
C1223 C1224 1.267 . S
C1224 H1192 0.929 . S
C1224 C1223 1.267 . S
C1224 C1225 1.251 . S
C1225 H1195 0.929 . S
C1225 N1221 1.418 . S
C1225 C1224 1.251 . S
C1226 H1193 0.930 . S
C1226 C1228 1.406 . S
C1226 C1231 1.261 . S
C1227 H1194 0.930 . S
C1227 N1229 1.325 . S
C1227 C1230 1.357 . S
C1228 H1196 0.928 . S
C1228 C1226 1.406 . S
C1228 N1229 1.261 . S
N1229 Co1180 2.214 . S
N1229 C1227 1.325 . S
N1229 C1228 1.261 . S
C1230 H1200 0.931 . S
C1230 C1227 1.357 . S
C1230 C1231 1.312 . S
C1231 H1202 0.930 . S
C1231 C1226 1.261 . S
C1231 C1230 1.312 . S
C1232 O1204 1.214 . S
C1232 O1212 1.234 . S
C1233 H1205 0.929 . S
C1233 C1236 1.391 . S
C1233 C1238 1.391 . S
C1234 H1206 0.929 . S
C1234 C1235 1.390 . S
C1234 N1237 1.391 . S
C1235 H1207 0.930 . S
C1235 C1234 1.390 . S
C1235 C1236 1.392 . S
C1236 H1208 0.929 . S
C1236 C1233 1.391 . S
C1236 C1235 1.392 . S
N1237 Co1181 2.257 . S
N1237 C1234 1.391 . S
N1237 C1238 1.388 . S
C1238 H1209 0.930 . S
C1238 C1233 1.391 . S
C1238 N1237 1.388 . S
Co1239 O1241 2.143 . S
Co1239 O1247 2.074 . S
Co1239 O1250 2.093 . S
Co1239 O1263 2.097 . S
Co1239 N1280 2.151 . S
Co1239 N1288 2.214 . S
Co1240 O1241 2.160 . S
Co1240 O1246 2.058 . S
Co1240 O1256 2.057 . S
Co1240 O1271 2.037 . S
Co1240 N1275 2.145 . S
Co1240 N1296 2.257 . S
O1241 Co1239 2.143 . S
O1241 Co1240 2.160 . S
C1242 O1243 1.278 . S
C1242 O1250 1.224 . S
O1243 C1242 1.278 . S
C1244 O1245 1.245 . S
C1244 O1256 1.232 . S
O1245 C1244 1.245 . S
O1246 Co1240 2.058 . S
O1246 C1272 1.269 . S
O1247 Co1239 2.074 . S
O1247 C1272 1.257 . S
H1248 C1273 0.930 . S
H1249 C1279 0.930 . S
O1250 Co1239 2.093 . S
O1250 C1242 1.224 . S
H1251 C1283 0.929 . S
H1252 C1285 0.930 . S
H1253 C1286 0.930 . S
H1254 C1284 0.929 . S
H1255 C1287 0.928 . S
O1256 Co1240 2.057 . S
O1256 C1244 1.232 . S
H1257 C1276 0.929 . S
H1258 C1277 0.929 . S
H1259 C1289 0.931 . S
H1260 C1281 0.929 . S
H1261 C1290 0.930 . S
H1262 C1282 0.931 . S
O1263 Co1239 2.097 . S
O1263 C1291 1.214 . S
H1264 C1292 0.929 . S
H1265 C1293 0.929 . S
H1266 C1294 0.930 . S
H1267 C1295 0.929 . S
H1268 C1297 0.930 . S
H1269 C1274 0.930 . S
H1270 C1278 0.930 . S
O1271 Co1240 2.037 . S
O1271 C1291 1.234 . S
C1272 O1246 1.269 . S
C1272 O1247 1.257 . S
C1273 H1248 0.930 . S
C1273 C1276 1.388 . S
C1273 C1278 1.418 . S
C1274 H1269 0.930 . S
C1274 C1277 1.404 . S
C1274 C1278 1.353 . S
N1275 Co1240 2.145 . S
N1275 C1276 1.397 . S
N1275 C1277 1.334 . S
C1276 H1257 0.929 . S
C1276 C1273 1.388 . S
C1276 N1275 1.397 . S
C1277 H1258 0.929 . S
C1277 C1274 1.404 . S
C1277 N1275 1.334 . S
C1278 H1270 0.930 . S
C1278 C1273 1.418 . S
C1278 C1274 1.353 . S
C1279 H1249 0.930 . S
C1279 N1280 1.330 . S
C1279 C1281 1.446 . S
N1280 Co1239 2.151 . S
N1280 C1279 1.330 . S
N1280 C1284 1.418 . S
C1281 H1260 0.929 . S
C1281 C1279 1.446 . S
C1281 C1282 1.332 . S
C1282 H1262 0.931 . S
C1282 C1281 1.332 . S
C1282 C1283 1.267 . S
C1283 H1251 0.929 . S
C1283 C1282 1.267 . S
C1283 C1284 1.251 . S
C1284 H1254 0.929 . S
C1284 N1280 1.418 . S
C1284 C1283 1.251 . S
C1285 H1252 0.930 . S
C1285 C1287 1.406 . S
C1285 C1290 1.261 . S
C1286 H1253 0.930 . S
C1286 N1288 1.325 . S
C1286 C1289 1.357 . S
C1287 H1255 0.928 . S
C1287 C1285 1.406 . S
C1287 N1288 1.261 . S
N1288 Co1239 2.214 . S
N1288 C1286 1.325 . S
N1288 C1287 1.261 . S
C1289 H1259 0.931 . S
C1289 C1286 1.357 . S
C1289 C1290 1.312 . S
C1290 H1261 0.930 . S
C1290 C1285 1.261 . S
C1290 C1289 1.312 . S
C1291 O1263 1.214 . S
C1291 O1271 1.234 . S
C1292 H1264 0.929 . S
C1292 C1295 1.391 . S
C1292 C1297 1.391 . S
C1293 H1265 0.929 . S
C1293 C1294 1.390 . S
C1293 N1296 1.391 . S
C1294 H1266 0.930 . S
C1294 C1293 1.390 . S
C1294 C1295 1.392 . S
C1295 H1267 0.929 . S
C1295 C1292 1.391 . S
C1295 C1294 1.392 . S
N1296 Co1240 2.257 . S
N1296 C1293 1.391 . S
N1296 C1297 1.388 . S
C1297 H1268 0.930 . S
C1297 C1292 1.391 . S
C1297 N1296 1.388 . S
Co1298 O1300 2.143 . S
Co1298 O1306 2.074 . S
Co1298 O1309 2.093 . S
Co1298 O1322 2.097 . S
Co1298 N1339 2.151 . S
Co1298 N1347 2.214 . S
Co1299 O1300 2.160 . S
Co1299 O1305 2.058 . S
Co1299 O1315 2.057 . S
Co1299 O1330 2.037 . S
Co1299 N1334 2.145 . S
Co1299 N1355 2.257 . S
O1300 Co1298 2.143 . S
O1300 Co1299 2.160 . S
C1301 O1302 1.278 . S
C1301 O1309 1.224 . S
O1302 C1301 1.278 . S
C1303 O1304 1.245 . S
C1303 O1315 1.232 . S
O1304 C1303 1.245 . S
O1305 Co1299 2.058 . S
O1305 C1331 1.269 . S
O1306 Co1298 2.074 . S
O1306 C1331 1.257 . S
H1307 C1332 0.930 . S
H1308 C1338 0.930 . S
O1309 Co1298 2.093 . S
O1309 C1301 1.224 . S
H1310 C1342 0.929 . S
H1311 C1344 0.930 . S
H1312 C1345 0.930 . S
H1313 C1343 0.929 . S
H1314 C1346 0.928 . S
O1315 Co1299 2.057 . S
O1315 C1303 1.232 . S
H1316 C1335 0.929 . S
H1317 C1336 0.929 . S
H1318 C1348 0.931 . S
H1319 C1340 0.929 . S
H1320 C1349 0.930 . S
H1321 C1341 0.931 . S
O1322 Co1298 2.097 . S
O1322 C1350 1.214 . S
H1323 C1351 0.929 . S
H1324 C1352 0.929 . S
H1325 C1353 0.930 . S
H1326 C1354 0.929 . S
H1327 C1356 0.930 . S
H1328 C1333 0.930 . S
H1329 C1337 0.930 . S
O1330 Co1299 2.037 . S
O1330 C1350 1.234 . S
C1331 O1305 1.269 . S
C1331 O1306 1.257 . S
C1332 H1307 0.930 . S
C1332 C1335 1.388 . S
C1332 C1337 1.418 . S
C1333 H1328 0.930 . S
C1333 C1336 1.404 . S
C1333 C1337 1.353 . S
N1334 Co1299 2.145 . S
N1334 C1335 1.397 . S
N1334 C1336 1.334 . S
C1335 H1316 0.929 . S
C1335 C1332 1.388 . S
C1335 N1334 1.397 . S
C1336 H1317 0.929 . S
C1336 C1333 1.404 . S
C1336 N1334 1.334 . S
C1337 H1329 0.930 . S
C1337 C1332 1.418 . S
C1337 C1333 1.353 . S
C1338 H1308 0.930 . S
C1338 N1339 1.330 . S
C1338 C1340 1.446 . S
N1339 Co1298 2.151 . S
N1339 C1338 1.330 . S
N1339 C1343 1.418 . S
C1340 H1319 0.929 . S
C1340 C1338 1.446 . S
C1340 C1341 1.332 . S
C1341 H1321 0.931 . S
C1341 C1340 1.332 . S
C1341 C1342 1.267 . S
C1342 H1310 0.929 . S
C1342 C1341 1.267 . S
C1342 C1343 1.251 . S
C1343 H1313 0.929 . S
C1343 N1339 1.418 . S
C1343 C1342 1.251 . S
C1344 H1311 0.930 . S
C1344 C1346 1.406 . S
C1344 C1349 1.261 . S
C1345 H1312 0.930 . S
C1345 N1347 1.325 . S
C1345 C1348 1.357 . S
C1346 H1314 0.928 . S
C1346 C1344 1.406 . S
C1346 N1347 1.261 . S
N1347 Co1298 2.214 . S
N1347 C1345 1.325 . S
N1347 C1346 1.261 . S
C1348 H1318 0.931 . S
C1348 C1345 1.357 . S
C1348 C1349 1.312 . S
C1349 H1320 0.930 . S
C1349 C1344 1.261 . S
C1349 C1348 1.312 . S
C1350 O1322 1.214 . S
C1350 O1330 1.234 . S
C1351 H1323 0.929 . S
C1351 C1354 1.391 . S
C1351 C1356 1.391 . S
C1352 H1324 0.929 . S
C1352 C1353 1.390 . S
C1352 N1355 1.391 . S
C1353 H1325 0.930 . S
C1353 C1352 1.390 . S
C1353 C1354 1.392 . S
C1354 H1326 0.929 . S
C1354 C1351 1.391 . S
C1354 C1353 1.392 . S
N1355 Co1299 2.257 . S
N1355 C1352 1.391 . S
N1355 C1356 1.388 . S
C1356 H1327 0.930 . S
C1356 C1351 1.391 . S
C1356 N1355 1.388 . S
Co1357 O1359 2.143 . S
Co1357 O1365 2.074 . S
Co1357 O1368 2.093 . S
Co1357 O1381 2.097 . S
Co1357 N1398 2.151 . S
Co1357 N1406 2.214 . S
Co1358 O1359 2.160 . S
Co1358 O1364 2.058 . S
Co1358 O1374 2.057 . S
Co1358 O1389 2.037 . S
Co1358 N1393 2.145 . S
Co1358 N1414 2.257 . S
O1359 Co1357 2.143 . S
O1359 Co1358 2.160 . S
C1360 O1361 1.278 . S
C1360 O1368 1.224 . S
O1361 C1360 1.278 . S
C1362 O1363 1.245 . S
C1362 O1374 1.232 . S
O1363 C1362 1.245 . S
O1364 Co1358 2.058 . S
O1364 C1390 1.269 . S
O1365 Co1357 2.074 . S
O1365 C1390 1.257 . S
H1366 C1391 0.930 . S
H1367 C1397 0.930 . S
O1368 Co1357 2.093 . S
O1368 C1360 1.224 . S
H1369 C1401 0.929 . S
H1370 C1403 0.930 . S
H1371 C1404 0.930 . S
H1372 C1402 0.929 . S
H1373 C1405 0.928 . S
O1374 Co1358 2.057 . S
O1374 C1362 1.232 . S
H1375 C1394 0.929 . S
H1376 C1395 0.929 . S
H1377 C1407 0.931 . S
H1378 C1399 0.929 . S
H1379 C1408 0.930 . S
H1380 C1400 0.931 . S
O1381 Co1357 2.097 . S
O1381 C1409 1.214 . S
H1382 C1410 0.929 . S
H1383 C1411 0.929 . S
H1384 C1412 0.930 . S
H1385 C1413 0.929 . S
H1386 C1415 0.930 . S
H1387 C1392 0.930 . S
H1388 C1396 0.930 . S
O1389 Co1358 2.037 . S
O1389 C1409 1.234 . S
C1390 O1364 1.269 . S
C1390 O1365 1.257 . S
C1391 H1366 0.930 . S
C1391 C1394 1.388 . S
C1391 C1396 1.418 . S
C1392 H1387 0.930 . S
C1392 C1395 1.404 . S
C1392 C1396 1.353 . S
N1393 Co1358 2.145 . S
N1393 C1394 1.397 . S
N1393 C1395 1.334 . S
C1394 H1375 0.929 . S
C1394 C1391 1.388 . S
C1394 N1393 1.397 . S
C1395 H1376 0.929 . S
C1395 C1392 1.404 . S
C1395 N1393 1.334 . S
C1396 H1388 0.930 . S
C1396 C1391 1.418 . S
C1396 C1392 1.353 . S
C1397 H1367 0.930 . S
C1397 N1398 1.330 . S
C1397 C1399 1.446 . S
N1398 Co1357 2.151 . S
N1398 C1397 1.330 . S
N1398 C1402 1.418 . S
C1399 H1378 0.929 . S
C1399 C1397 1.446 . S
C1399 C1400 1.332 . S
C1400 H1380 0.931 . S
C1400 C1399 1.332 . S
C1400 C1401 1.267 . S
C1401 H1369 0.929 . S
C1401 C1400 1.267 . S
C1401 C1402 1.251 . S
C1402 H1372 0.929 . S
C1402 N1398 1.418 . S
C1402 C1401 1.251 . S
C1403 H1370 0.930 . S
C1403 C1405 1.406 . S
C1403 C1408 1.261 . S
C1404 H1371 0.930 . S
C1404 N1406 1.325 . S
C1404 C1407 1.357 . S
C1405 H1373 0.928 . S
C1405 C1403 1.406 . S
C1405 N1406 1.261 . S
N1406 Co1357 2.214 . S
N1406 C1404 1.325 . S
N1406 C1405 1.261 . S
C1407 H1377 0.931 . S
C1407 C1404 1.357 . S
C1407 C1408 1.312 . S
C1408 H1379 0.930 . S
C1408 C1403 1.261 . S
C1408 C1407 1.312 . S
C1409 O1381 1.214 . S
C1409 O1389 1.234 . S
C1410 H1382 0.929 . S
C1410 C1413 1.391 . S
C1410 C1415 1.391 . S
C1411 H1383 0.929 . S
C1411 C1412 1.390 . S
C1411 N1414 1.391 . S
C1412 H1384 0.930 . S
C1412 C1411 1.390 . S
C1412 C1413 1.392 . S
C1413 H1385 0.929 . S
C1413 C1410 1.391 . S
C1413 C1412 1.392 . S
N1414 Co1358 2.257 . S
N1414 C1411 1.391 . S
N1414 C1415 1.388 . S
C1415 H1386 0.930 . S
C1415 C1410 1.391 . S
C1415 N1414 1.388 . S
Co1416 O1418 2.143 . S
Co1416 O1424 2.074 . S
Co1416 O1427 2.093 . S
Co1416 O1440 2.097 . S
Co1416 N1457 2.151 . S
Co1416 N1465 2.214 . S
Co1417 O1418 2.160 . S
Co1417 O1423 2.058 . S
Co1417 O1433 2.057 . S
Co1417 O1448 2.037 . S
Co1417 N1452 2.145 . S
Co1417 N1473 2.257 . S
O1418 Co1416 2.143 . S
O1418 Co1417 2.160 . S
C1419 O1420 1.278 . S
C1419 O1427 1.224 . S
O1420 C1419 1.278 . S
C1421 O1422 1.245 . S
C1421 O1433 1.232 . S
O1422 C1421 1.245 . S
O1423 Co1417 2.058 . S
O1423 C1449 1.269 . S
O1424 Co1416 2.074 . S
O1424 C1449 1.257 . S
H1425 C1450 0.930 . S
H1426 C1456 0.930 . S
O1427 Co1416 2.093 . S
O1427 C1419 1.224 . S
H1428 C1460 0.929 . S
H1429 C1462 0.930 . S
H1430 C1463 0.930 . S
H1431 C1461 0.929 . S
H1432 C1464 0.928 . S
O1433 Co1417 2.057 . S
O1433 C1421 1.232 . S
H1434 C1453 0.929 . S
H1435 C1454 0.929 . S
H1436 C1466 0.931 . S
H1437 C1458 0.929 . S
H1438 C1467 0.930 . S
H1439 C1459 0.931 . S
O1440 Co1416 2.097 . S
O1440 C1468 1.214 . S
H1441 C1469 0.929 . S
H1442 C1470 0.929 . S
H1443 C1471 0.930 . S
H1444 C1472 0.929 . S
H1445 C1474 0.930 . S
H1446 C1451 0.930 . S
H1447 C1455 0.930 . S
O1448 Co1417 2.037 . S
O1448 C1468 1.234 . S
C1449 O1423 1.269 . S
C1449 O1424 1.257 . S
C1450 H1425 0.930 . S
C1450 C1453 1.388 . S
C1450 C1455 1.418 . S
C1451 H1446 0.930 . S
C1451 C1454 1.404 . S
C1451 C1455 1.353 . S
N1452 Co1417 2.145 . S
N1452 C1453 1.397 . S
N1452 C1454 1.334 . S
C1453 H1434 0.929 . S
C1453 C1450 1.388 . S
C1453 N1452 1.397 . S
C1454 H1435 0.929 . S
C1454 C1451 1.404 . S
C1454 N1452 1.334 . S
C1455 H1447 0.930 . S
C1455 C1450 1.418 . S
C1455 C1451 1.353 . S
C1456 H1426 0.930 . S
C1456 N1457 1.330 . S
C1456 C1458 1.446 . S
N1457 Co1416 2.151 . S
N1457 C1456 1.330 . S
N1457 C1461 1.418 . S
C1458 H1437 0.929 . S
C1458 C1456 1.446 . S
C1458 C1459 1.332 . S
C1459 H1439 0.931 . S
C1459 C1458 1.332 . S
C1459 C1460 1.267 . S
C1460 H1428 0.929 . S
C1460 C1459 1.267 . S
C1460 C1461 1.251 . S
C1461 H1431 0.929 . S
C1461 N1457 1.418 . S
C1461 C1460 1.251 . S
C1462 H1429 0.930 . S
C1462 C1464 1.406 . S
C1462 C1467 1.261 . S
C1463 H1430 0.930 . S
C1463 N1465 1.325 . S
C1463 C1466 1.357 . S
C1464 H1432 0.928 . S
C1464 C1462 1.406 . S
C1464 N1465 1.261 . S
N1465 Co1416 2.214 . S
N1465 C1463 1.325 . S
N1465 C1464 1.261 . S
C1466 H1436 0.931 . S
C1466 C1463 1.357 . S
C1466 C1467 1.312 . S
C1467 H1438 0.930 . S
C1467 C1462 1.261 . S
C1467 C1466 1.312 . S
C1468 O1440 1.214 . S
C1468 O1448 1.234 . S
C1469 H1441 0.929 . S
C1469 C1472 1.391 . S
C1469 C1474 1.391 . S
C1470 H1442 0.929 . S
C1470 C1471 1.390 . S
C1470 N1473 1.391 . S
C1471 H1443 0.930 . S
C1471 C1470 1.390 . S
C1471 C1472 1.392 . S
C1472 H1444 0.929 . S
C1472 C1469 1.391 . S
C1472 C1471 1.392 . S
N1473 Co1417 2.257 . S
N1473 C1470 1.391 . S
N1473 C1474 1.388 . S
C1474 H1445 0.930 . S
C1474 C1469 1.391 . S
C1474 N1473 1.388 . S
Co1475 O1477 2.143 . S
Co1475 O1483 2.074 . S
Co1475 O1486 2.093 . S
Co1475 O1499 2.097 . S
Co1475 N1516 2.151 . S
Co1475 N1524 2.214 . S
Co1476 O1477 2.160 . S
Co1476 O1482 2.058 . S
Co1476 O1492 2.057 . S
Co1476 O1507 2.037 . S
Co1476 N1511 2.145 . S
Co1476 N1532 2.257 . S
O1477 Co1475 2.143 . S
O1477 Co1476 2.160 . S
C1478 O1479 1.278 . S
C1478 O1486 1.224 . S
O1479 C1478 1.278 . S
C1480 O1481 1.245 . S
C1480 O1492 1.232 . S
O1481 C1480 1.245 . S
O1482 Co1476 2.058 . S
O1482 C1508 1.269 . S
O1483 Co1475 2.074 . S
O1483 C1508 1.257 . S
H1484 C1509 0.930 . S
H1485 C1515 0.930 . S
O1486 Co1475 2.093 . S
O1486 C1478 1.224 . S
H1487 C1519 0.929 . S
H1488 C1521 0.930 . S
H1489 C1522 0.930 . S
H1490 C1520 0.929 . S
H1491 C1523 0.928 . S
O1492 Co1476 2.057 . S
O1492 C1480 1.232 . S
H1493 C1512 0.929 . S
H1494 C1513 0.929 . S
H1495 C1525 0.931 . S
H1496 C1517 0.929 . S
H1497 C1526 0.930 . S
H1498 C1518 0.931 . S
O1499 Co1475 2.097 . S
O1499 C1527 1.214 . S
H1500 C1528 0.929 . S
H1501 C1529 0.929 . S
H1502 C1530 0.930 . S
H1503 C1531 0.929 . S
H1504 C1533 0.930 . S
H1505 C1510 0.930 . S
H1506 C1514 0.930 . S
O1507 Co1476 2.037 . S
O1507 C1527 1.234 . S
C1508 O1482 1.269 . S
C1508 O1483 1.257 . S
C1509 H1484 0.930 . S
C1509 C1512 1.388 . S
C1509 C1514 1.418 . S
C1510 H1505 0.930 . S
C1510 C1513 1.404 . S
C1510 C1514 1.353 . S
N1511 Co1476 2.145 . S
N1511 C1512 1.397 . S
N1511 C1513 1.334 . S
C1512 H1493 0.929 . S
C1512 C1509 1.388 . S
C1512 N1511 1.397 . S
C1513 H1494 0.929 . S
C1513 C1510 1.404 . S
C1513 N1511 1.334 . S
C1514 H1506 0.930 . S
C1514 C1509 1.418 . S
C1514 C1510 1.353 . S
C1515 H1485 0.930 . S
C1515 N1516 1.330 . S
C1515 C1517 1.446 . S
N1516 Co1475 2.151 . S
N1516 C1515 1.330 . S
N1516 C1520 1.418 . S
C1517 H1496 0.929 . S
C1517 C1515 1.446 . S
C1517 C1518 1.332 . S
C1518 H1498 0.931 . S
C1518 C1517 1.332 . S
C1518 C1519 1.267 . S
C1519 H1487 0.929 . S
C1519 C1518 1.267 . S
C1519 C1520 1.251 . S
C1520 H1490 0.929 . S
C1520 N1516 1.418 . S
C1520 C1519 1.251 . S
C1521 H1488 0.930 . S
C1521 C1523 1.406 . S
C1521 C1526 1.261 . S
C1522 H1489 0.930 . S
C1522 N1524 1.325 . S
C1522 C1525 1.357 . S
C1523 H1491 0.928 . S
C1523 C1521 1.406 . S
C1523 N1524 1.261 . S
N1524 Co1475 2.214 . S
N1524 C1522 1.325 . S
N1524 C1523 1.261 . S
C1525 H1495 0.931 . S
C1525 C1522 1.357 . S
C1525 C1526 1.312 . S
C1526 H1497 0.930 . S
C1526 C1521 1.261 . S
C1526 C1525 1.312 . S
C1527 O1499 1.214 . S
C1527 O1507 1.234 . S
C1528 H1500 0.929 . S
C1528 C1531 1.391 . S
C1528 C1533 1.391 . S
C1529 H1501 0.929 . S
C1529 C1530 1.390 . S
C1529 N1532 1.391 . S
C1530 H1502 0.930 . S
C1530 C1529 1.390 . S
C1530 C1531 1.392 . S
C1531 H1503 0.929 . S
C1531 C1528 1.391 . S
C1531 C1530 1.392 . S
N1532 Co1476 2.257 . S
N1532 C1529 1.391 . S
N1532 C1533 1.388 . S
C1533 H1504 0.930 . S
C1533 C1528 1.391 . S
C1533 N1532 1.388 . S
Co1534 O1536 2.143 . S
Co1534 O1542 2.074 . S
Co1534 O1545 2.093 . S
Co1534 O1558 2.097 . S
Co1534 N1575 2.151 . S
Co1534 N1583 2.214 . S
Co1535 O1536 2.160 . S
Co1535 O1541 2.058 . S
Co1535 O1551 2.057 . S
Co1535 O1566 2.037 . S
Co1535 N1570 2.145 . S
Co1535 N1591 2.257 . S
O1536 Co1534 2.143 . S
O1536 Co1535 2.160 . S
C1537 O1538 1.278 . S
C1537 O1545 1.224 . S
O1538 C1537 1.278 . S
C1539 O1540 1.245 . S
C1539 O1551 1.232 . S
O1540 C1539 1.245 . S
O1541 Co1535 2.058 . S
O1541 C1567 1.269 . S
O1542 Co1534 2.074 . S
O1542 C1567 1.257 . S
H1543 C1568 0.930 . S
H1544 C1574 0.930 . S
O1545 Co1534 2.093 . S
O1545 C1537 1.224 . S
H1546 C1578 0.929 . S
H1547 C1580 0.930 . S
H1548 C1581 0.930 . S
H1549 C1579 0.929 . S
H1550 C1582 0.928 . S
O1551 Co1535 2.057 . S
O1551 C1539 1.232 . S
H1552 C1571 0.929 . S
H1553 C1572 0.929 . S
H1554 C1584 0.931 . S
H1555 C1576 0.929 . S
H1556 C1585 0.930 . S
H1557 C1577 0.931 . S
O1558 Co1534 2.097 . S
O1558 C1586 1.214 . S
H1559 C1587 0.929 . S
H1560 C1588 0.929 . S
H1561 C1589 0.930 . S
H1562 C1590 0.929 . S
H1563 C1592 0.930 . S
H1564 C1569 0.930 . S
H1565 C1573 0.930 . S
O1566 Co1535 2.037 . S
O1566 C1586 1.234 . S
C1567 O1541 1.269 . S
C1567 O1542 1.257 . S
C1568 H1543 0.930 . S
C1568 C1571 1.388 . S
C1568 C1573 1.418 . S
C1569 H1564 0.930 . S
C1569 C1572 1.404 . S
C1569 C1573 1.353 . S
N1570 Co1535 2.145 . S
N1570 C1571 1.397 . S
N1570 C1572 1.334 . S
C1571 H1552 0.929 . S
C1571 C1568 1.388 . S
C1571 N1570 1.397 . S
C1572 H1553 0.929 . S
C1572 C1569 1.404 . S
C1572 N1570 1.334 . S
C1573 H1565 0.930 . S
C1573 C1568 1.418 . S
C1573 C1569 1.353 . S
C1574 H1544 0.930 . S
C1574 N1575 1.330 . S
C1574 C1576 1.446 . S
N1575 Co1534 2.151 . S
N1575 C1574 1.330 . S
N1575 C1579 1.418 . S
C1576 H1555 0.929 . S
C1576 C1574 1.446 . S
C1576 C1577 1.332 . S
C1577 H1557 0.931 . S
C1577 C1576 1.332 . S
C1577 C1578 1.267 . S
C1578 H1546 0.929 . S
C1578 C1577 1.267 . S
C1578 C1579 1.251 . S
C1579 H1549 0.929 . S
C1579 N1575 1.418 . S
C1579 C1578 1.251 . S
C1580 H1547 0.930 . S
C1580 C1582 1.406 . S
C1580 C1585 1.261 . S
C1581 H1548 0.930 . S
C1581 N1583 1.325 . S
C1581 C1584 1.357 . S
C1582 H1550 0.928 . S
C1582 C1580 1.406 . S
C1582 N1583 1.261 . S
N1583 Co1534 2.214 . S
N1583 C1581 1.325 . S
N1583 C1582 1.261 . S
C1584 H1554 0.931 . S
C1584 C1581 1.357 . S
C1584 C1585 1.312 . S
C1585 H1556 0.930 . S
C1585 C1580 1.261 . S
C1585 C1584 1.312 . S
C1586 O1558 1.214 . S
C1586 O1566 1.234 . S
C1587 H1559 0.929 . S
C1587 C1590 1.391 . S
C1587 C1592 1.391 . S
C1588 H1560 0.929 . S
C1588 C1589 1.390 . S
C1588 N1591 1.391 . S
C1589 H1561 0.930 . S
C1589 C1588 1.390 . S
C1589 C1590 1.392 . S
C1590 H1562 0.929 . S
C1590 C1587 1.391 . S
C1590 C1589 1.392 . S
N1591 Co1535 2.257 . S
N1591 C1588 1.391 . S
N1591 C1592 1.388 . S
C1592 H1563 0.930 . S
C1592 C1587 1.391 . S
C1592 N1591 1.388 . S
Co1593 O1595 2.143 . S
Co1593 O1601 2.074 . S
Co1593 O1604 2.093 . S
Co1593 O1617 2.097 . S
Co1593 N1634 2.151 . S
Co1593 N1642 2.214 . S
Co1594 O1595 2.160 . S
Co1594 O1600 2.058 . S
Co1594 O1610 2.057 . S
Co1594 O1625 2.037 . S
Co1594 N1629 2.145 . S
Co1594 N1650 2.257 . S
O1595 Co1593 2.143 . S
O1595 Co1594 2.160 . S
C1596 O1597 1.278 . S
C1596 O1604 1.224 . S
O1597 C1596 1.278 . S
C1598 O1599 1.245 . S
C1598 O1610 1.232 . S
O1599 C1598 1.245 . S
O1600 Co1594 2.058 . S
O1600 C1626 1.269 . S
O1601 Co1593 2.074 . S
O1601 C1626 1.257 . S
H1602 C1627 0.930 . S
H1603 C1633 0.930 . S
O1604 Co1593 2.093 . S
O1604 C1596 1.224 . S
H1605 C1637 0.929 . S
H1606 C1639 0.930 . S
H1607 C1640 0.930 . S
H1608 C1638 0.929 . S
H1609 C1641 0.928 . S
O1610 Co1594 2.057 . S
O1610 C1598 1.232 . S
H1611 C1630 0.929 . S
H1612 C1631 0.929 . S
H1613 C1643 0.931 . S
H1614 C1635 0.929 . S
H1615 C1644 0.930 . S
H1616 C1636 0.931 . S
O1617 Co1593 2.097 . S
O1617 C1645 1.214 . S
H1618 C1646 0.929 . S
H1619 C1647 0.929 . S
H1620 C1648 0.930 . S
H1621 C1649 0.929 . S
H1622 C1651 0.930 . S
H1623 C1628 0.930 . S
H1624 C1632 0.930 . S
O1625 Co1594 2.037 . S
O1625 C1645 1.234 . S
C1626 O1600 1.269 . S
C1626 O1601 1.257 . S
C1627 H1602 0.930 . S
C1627 C1630 1.388 . S
C1627 C1632 1.418 . S
C1628 H1623 0.930 . S
C1628 C1631 1.404 . S
C1628 C1632 1.353 . S
N1629 Co1594 2.145 . S
N1629 C1630 1.397 . S
N1629 C1631 1.334 . S
C1630 H1611 0.929 . S
C1630 C1627 1.388 . S
C1630 N1629 1.397 . S
C1631 H1612 0.929 . S
C1631 C1628 1.404 . S
C1631 N1629 1.334 . S
C1632 H1624 0.930 . S
C1632 C1627 1.418 . S
C1632 C1628 1.353 . S
C1633 H1603 0.930 . S
C1633 N1634 1.330 . S
C1633 C1635 1.446 . S
N1634 Co1593 2.151 . S
N1634 C1633 1.330 . S
N1634 C1638 1.418 . S
C1635 H1614 0.929 . S
C1635 C1633 1.446 . S
C1635 C1636 1.332 . S
C1636 H1616 0.931 . S
C1636 C1635 1.332 . S
C1636 C1637 1.267 . S
C1637 H1605 0.929 . S
C1637 C1636 1.267 . S
C1637 C1638 1.251 . S
C1638 H1608 0.929 . S
C1638 N1634 1.418 . S
C1638 C1637 1.251 . S
C1639 H1606 0.930 . S
C1639 C1641 1.406 . S
C1639 C1644 1.261 . S
C1640 H1607 0.930 . S
C1640 N1642 1.325 . S
C1640 C1643 1.357 . S
C1641 H1609 0.928 . S
C1641 C1639 1.406 . S
C1641 N1642 1.261 . S
N1642 Co1593 2.214 . S
N1642 C1640 1.325 . S
N1642 C1641 1.261 . S
C1643 H1613 0.931 . S
C1643 C1640 1.357 . S
C1643 C1644 1.312 . S
C1644 H1615 0.930 . S
C1644 C1639 1.261 . S
C1644 C1643 1.312 . S
C1645 O1617 1.214 . S
C1645 O1625 1.234 . S
C1646 H1618 0.929 . S
C1646 C1649 1.391 . S
C1646 C1651 1.391 . S
C1647 H1619 0.929 . S
C1647 C1648 1.390 . S
C1647 N1650 1.391 . S
C1648 H1620 0.930 . S
C1648 C1647 1.390 . S
C1648 C1649 1.392 . S
C1649 H1621 0.929 . S
C1649 C1646 1.391 . S
C1649 C1648 1.392 . S
N1650 Co1594 2.257 . S
N1650 C1647 1.391 . S
N1650 C1651 1.388 . S
C1651 H1622 0.930 . S
C1651 C1646 1.391 . S
C1651 N1650 1.388 . S
Co1652 O1654 2.143 . S
Co1652 O1660 2.074 . S
Co1652 O1663 2.093 . S
Co1652 O1676 2.097 . S
Co1652 N1693 2.151 . S
Co1652 N1701 2.214 . S
Co1653 O1654 2.160 . S
Co1653 O1659 2.058 . S
Co1653 O1669 2.057 . S
Co1653 O1684 2.037 . S
Co1653 N1688 2.145 . S
Co1653 N1709 2.257 . S
O1654 Co1652 2.143 . S
O1654 Co1653 2.160 . S
C1655 O1656 1.278 . S
C1655 O1663 1.224 . S
O1656 C1655 1.278 . S
C1657 O1658 1.245 . S
C1657 O1669 1.232 . S
O1658 C1657 1.245 . S
O1659 Co1653 2.058 . S
O1659 C1685 1.269 . S
O1660 Co1652 2.074 . S
O1660 C1685 1.257 . S
H1661 C1686 0.930 . S
H1662 C1692 0.930 . S
O1663 Co1652 2.093 . S
O1663 C1655 1.224 . S
H1664 C1696 0.929 . S
H1665 C1698 0.930 . S
H1666 C1699 0.930 . S
H1667 C1697 0.929 . S
H1668 C1700 0.928 . S
O1669 Co1653 2.057 . S
O1669 C1657 1.232 . S
H1670 C1689 0.929 . S
H1671 C1690 0.929 . S
H1672 C1702 0.931 . S
H1673 C1694 0.929 . S
H1674 C1703 0.930 . S
H1675 C1695 0.931 . S
O1676 Co1652 2.097 . S
O1676 C1704 1.214 . S
H1677 C1705 0.929 . S
H1678 C1706 0.929 . S
H1679 C1707 0.930 . S
H1680 C1708 0.929 . S
H1681 C1710 0.930 . S
H1682 C1687 0.930 . S
H1683 C1691 0.930 . S
O1684 Co1653 2.037 . S
O1684 C1704 1.234 . S
C1685 O1659 1.269 . S
C1685 O1660 1.257 . S
C1686 H1661 0.930 . S
C1686 C1689 1.388 . S
C1686 C1691 1.418 . S
C1687 H1682 0.930 . S
C1687 C1690 1.404 . S
C1687 C1691 1.353 . S
N1688 Co1653 2.145 . S
N1688 C1689 1.397 . S
N1688 C1690 1.334 . S
C1689 H1670 0.929 . S
C1689 C1686 1.388 . S
C1689 N1688 1.397 . S
C1690 H1671 0.929 . S
C1690 C1687 1.404 . S
C1690 N1688 1.334 . S
C1691 H1683 0.930 . S
C1691 C1686 1.418 . S
C1691 C1687 1.353 . S
C1692 H1662 0.930 . S
C1692 N1693 1.330 . S
C1692 C1694 1.446 . S
N1693 Co1652 2.151 . S
N1693 C1692 1.330 . S
N1693 C1697 1.418 . S
C1694 H1673 0.929 . S
C1694 C1692 1.446 . S
C1694 C1695 1.332 . S
C1695 H1675 0.931 . S
C1695 C1694 1.332 . S
C1695 C1696 1.267 . S
C1696 H1664 0.929 . S
C1696 C1695 1.267 . S
C1696 C1697 1.251 . S
C1697 H1667 0.929 . S
C1697 N1693 1.418 . S
C1697 C1696 1.251 . S
C1698 H1665 0.930 . S
C1698 C1700 1.406 . S
C1698 C1703 1.261 . S
C1699 H1666 0.930 . S
C1699 N1701 1.325 . S
C1699 C1702 1.357 . S
C1700 H1668 0.928 . S
C1700 C1698 1.406 . S
C1700 N1701 1.261 . S
N1701 Co1652 2.214 . S
N1701 C1699 1.325 . S
N1701 C1700 1.261 . S
C1702 H1672 0.931 . S
C1702 C1699 1.357 . S
C1702 C1703 1.312 . S
C1703 H1674 0.930 . S
C1703 C1698 1.261 . S
C1703 C1702 1.312 . S
C1704 O1676 1.214 . S
C1704 O1684 1.234 . S
C1705 H1677 0.929 . S
C1705 C1708 1.391 . S
C1705 C1710 1.391 . S
C1706 H1678 0.929 . S
C1706 C1707 1.390 . S
C1706 N1709 1.391 . S
C1707 H1679 0.930 . S
C1707 C1706 1.390 . S
C1707 C1708 1.392 . S
C1708 H1680 0.929 . S
C1708 C1705 1.391 . S
C1708 C1707 1.392 . S
N1709 Co1653 2.257 . S
N1709 C1706 1.391 . S
N1709 C1710 1.388 . S
C1710 H1681 0.930 . S
C1710 C1705 1.391 . S
C1710 N1709 1.388 . S
Co1711 O1713 2.143 . S
Co1711 O1719 2.074 . S
Co1711 O1722 2.093 . S
Co1711 O1735 2.097 . S
Co1711 N1752 2.151 . S
Co1711 N1760 2.214 . S
Co1712 O1713 2.160 . S
Co1712 O1718 2.058 . S
Co1712 O1728 2.057 . S
Co1712 O1743 2.037 . S
Co1712 N1747 2.145 . S
Co1712 N1768 2.257 . S
O1713 Co1711 2.143 . S
O1713 Co1712 2.160 . S
C1714 O1715 1.278 . S
C1714 O1722 1.224 . S
O1715 C1714 1.278 . S
C1716 O1717 1.245 . S
C1716 O1728 1.232 . S
O1717 C1716 1.245 . S
O1718 Co1712 2.058 . S
O1718 C1744 1.269 . S
O1719 Co1711 2.074 . S
O1719 C1744 1.257 . S
H1720 C1745 0.930 . S
H1721 C1751 0.930 . S
O1722 Co1711 2.093 . S
O1722 C1714 1.224 . S
H1723 C1755 0.929 . S
H1724 C1757 0.930 . S
H1725 C1758 0.930 . S
H1726 C1756 0.929 . S
H1727 C1759 0.928 . S
O1728 Co1712 2.057 . S
O1728 C1716 1.232 . S
H1729 C1748 0.929 . S
H1730 C1749 0.929 . S
H1731 C1761 0.931 . S
H1732 C1753 0.929 . S
H1733 C1762 0.930 . S
H1734 C1754 0.931 . S
O1735 Co1711 2.097 . S
O1735 C1763 1.214 . S
H1736 C1764 0.929 . S
H1737 C1765 0.929 . S
H1738 C1766 0.930 . S
H1739 C1767 0.929 . S
H1740 C1769 0.930 . S
H1741 C1746 0.930 . S
H1742 C1750 0.930 . S
O1743 Co1712 2.037 . S
O1743 C1763 1.234 . S
C1744 O1718 1.269 . S
C1744 O1719 1.257 . S
C1745 H1720 0.930 . S
C1745 C1748 1.388 . S
C1745 C1750 1.418 . S
C1746 H1741 0.930 . S
C1746 C1749 1.404 . S
C1746 C1750 1.353 . S
N1747 Co1712 2.145 . S
N1747 C1748 1.397 . S
N1747 C1749 1.334 . S
C1748 H1729 0.929 . S
C1748 C1745 1.388 . S
C1748 N1747 1.397 . S
C1749 H1730 0.929 . S
C1749 C1746 1.404 . S
C1749 N1747 1.334 . S
C1750 H1742 0.930 . S
C1750 C1745 1.418 . S
C1750 C1746 1.353 . S
C1751 H1721 0.930 . S
C1751 N1752 1.330 . S
C1751 C1753 1.446 . S
N1752 Co1711 2.151 . S
N1752 C1751 1.330 . S
N1752 C1756 1.418 . S
C1753 H1732 0.929 . S
C1753 C1751 1.446 . S
C1753 C1754 1.332 . S
C1754 H1734 0.931 . S
C1754 C1753 1.332 . S
C1754 C1755 1.267 . S
C1755 H1723 0.929 . S
C1755 C1754 1.267 . S
C1755 C1756 1.251 . S
C1756 H1726 0.929 . S
C1756 N1752 1.418 . S
C1756 C1755 1.251 . S
C1757 H1724 0.930 . S
C1757 C1759 1.406 . S
C1757 C1762 1.261 . S
C1758 H1725 0.930 . S
C1758 N1760 1.325 . S
C1758 C1761 1.357 . S
C1759 H1727 0.928 . S
C1759 C1757 1.406 . S
C1759 N1760 1.261 . S
N1760 Co1711 2.214 . S
N1760 C1758 1.325 . S
N1760 C1759 1.261 . S
C1761 H1731 0.931 . S
C1761 C1758 1.357 . S
C1761 C1762 1.312 . S
C1762 H1733 0.930 . S
C1762 C1757 1.261 . S
C1762 C1761 1.312 . S
C1763 O1735 1.214 . S
C1763 O1743 1.234 . S
C1764 H1736 0.929 . S
C1764 C1767 1.391 . S
C1764 C1769 1.391 . S
C1765 H1737 0.929 . S
C1765 C1766 1.390 . S
C1765 N1768 1.391 . S
C1766 H1738 0.930 . S
C1766 C1765 1.390 . S
C1766 C1767 1.392 . S
C1767 H1739 0.929 . S
C1767 C1764 1.391 . S
C1767 C1766 1.392 . S
N1768 Co1712 2.257 . S
N1768 C1765 1.391 . S
N1768 C1769 1.388 . S
C1769 H1740 0.930 . S
C1769 C1764 1.391 . S
C1769 N1768 1.388 . S
Co1770 O1772 2.143 . S
Co1770 O1778 2.074 . S
Co1770 O1781 2.093 . S
Co1770 O1794 2.097 . S
Co1770 N1811 2.151 . S
Co1770 N1819 2.214 . S
Co1771 O1772 2.160 . S
Co1771 O1777 2.058 . S
Co1771 O1787 2.057 . S
Co1771 O1802 2.037 . S
Co1771 N1806 2.145 . S
Co1771 N1827 2.257 . S
O1772 Co1770 2.143 . S
O1772 Co1771 2.160 . S
C1773 O1774 1.278 . S
C1773 O1781 1.224 . S
O1774 C1773 1.278 . S
C1775 O1776 1.245 . S
C1775 O1787 1.232 . S
O1776 C1775 1.245 . S
O1777 Co1771 2.058 . S
O1777 C1803 1.269 . S
O1778 Co1770 2.074 . S
O1778 C1803 1.257 . S
H1779 C1804 0.930 . S
H1780 C1810 0.930 . S
O1781 Co1770 2.093 . S
O1781 C1773 1.224 . S
H1782 C1814 0.929 . S
H1783 C1816 0.930 . S
H1784 C1817 0.930 . S
H1785 C1815 0.929 . S
H1786 C1818 0.928 . S
O1787 Co1771 2.057 . S
O1787 C1775 1.232 . S
H1788 C1807 0.929 . S
H1789 C1808 0.929 . S
H1790 C1820 0.931 . S
H1791 C1812 0.929 . S
H1792 C1821 0.930 . S
H1793 C1813 0.931 . S
O1794 Co1770 2.097 . S
O1794 C1822 1.214 . S
H1795 C1823 0.929 . S
H1796 C1824 0.929 . S
H1797 C1825 0.930 . S
H1798 C1826 0.929 . S
H1799 C1828 0.930 . S
H1800 C1805 0.930 . S
H1801 C1809 0.930 . S
O1802 Co1771 2.037 . S
O1802 C1822 1.234 . S
C1803 O1777 1.269 . S
C1803 O1778 1.257 . S
C1804 H1779 0.930 . S
C1804 C1807 1.388 . S
C1804 C1809 1.418 . S
C1805 H1800 0.930 . S
C1805 C1808 1.404 . S
C1805 C1809 1.353 . S
N1806 Co1771 2.145 . S
N1806 C1807 1.397 . S
N1806 C1808 1.334 . S
C1807 H1788 0.929 . S
C1807 C1804 1.388 . S
C1807 N1806 1.397 . S
C1808 H1789 0.929 . S
C1808 C1805 1.404 . S
C1808 N1806 1.334 . S
C1809 H1801 0.930 . S
C1809 C1804 1.418 . S
C1809 C1805 1.353 . S
C1810 H1780 0.930 . S
C1810 N1811 1.330 . S
C1810 C1812 1.446 . S
N1811 Co1770 2.151 . S
N1811 C1810 1.330 . S
N1811 C1815 1.418 . S
C1812 H1791 0.929 . S
C1812 C1810 1.446 . S
C1812 C1813 1.332 . S
C1813 H1793 0.931 . S
C1813 C1812 1.332 . S
C1813 C1814 1.267 . S
C1814 H1782 0.929 . S
C1814 C1813 1.267 . S
C1814 C1815 1.251 . S
C1815 H1785 0.929 . S
C1815 N1811 1.418 . S
C1815 C1814 1.251 . S
C1816 H1783 0.930 . S
C1816 C1818 1.406 . S
C1816 C1821 1.261 . S
C1817 H1784 0.930 . S
C1817 N1819 1.325 . S
C1817 C1820 1.357 . S
C1818 H1786 0.928 . S
C1818 C1816 1.406 . S
C1818 N1819 1.261 . S
N1819 Co1770 2.214 . S
N1819 C1817 1.325 . S
N1819 C1818 1.261 . S
C1820 H1790 0.931 . S
C1820 C1817 1.357 . S
C1820 C1821 1.312 . S
C1821 H1792 0.930 . S
C1821 C1816 1.261 . S
C1821 C1820 1.312 . S
C1822 O1794 1.214 . S
C1822 O1802 1.234 . S
C1823 H1795 0.929 . S
C1823 C1826 1.391 . S
C1823 C1828 1.391 . S
C1824 H1796 0.929 . S
C1824 C1825 1.390 . S
C1824 N1827 1.391 . S
C1825 H1797 0.930 . S
C1825 C1824 1.390 . S
C1825 C1826 1.392 . S
C1826 H1798 0.929 . S
C1826 C1823 1.391 . S
C1826 C1825 1.392 . S
N1827 Co1771 2.257 . S
N1827 C1824 1.391 . S
N1827 C1828 1.388 . S
C1828 H1799 0.930 . S
C1828 C1823 1.391 . S
C1828 N1827 1.388 . S
Co1829 O1831 2.143 . S
Co1829 O1837 2.074 . S
Co1829 O1840 2.093 . S
Co1829 O1853 2.097 . S
Co1829 N1870 2.151 . S
Co1829 N1878 2.214 . S
Co1830 O1831 2.160 . S
Co1830 O1836 2.058 . S
Co1830 O1846 2.057 . S
Co1830 O1861 2.037 . S
Co1830 N1865 2.145 . S
Co1830 N1886 2.257 . S
O1831 Co1829 2.143 . S
O1831 Co1830 2.160 . S
C1832 O1833 1.278 . S
C1832 O1840 1.224 . S
O1833 C1832 1.278 . S
C1834 O1835 1.245 . S
C1834 O1846 1.232 . S
O1835 C1834 1.245 . S
O1836 Co1830 2.058 . S
O1836 C1862 1.269 . S
O1837 Co1829 2.074 . S
O1837 C1862 1.257 . S
H1838 C1863 0.930 . S
H1839 C1869 0.930 . S
O1840 Co1829 2.093 . S
O1840 C1832 1.224 . S
H1841 C1873 0.929 . S
H1842 C1875 0.930 . S
H1843 C1876 0.930 . S
H1844 C1874 0.929 . S
H1845 C1877 0.928 . S
O1846 Co1830 2.057 . S
O1846 C1834 1.232 . S
H1847 C1866 0.929 . S
H1848 C1867 0.929 . S
H1849 C1879 0.931 . S
H1850 C1871 0.929 . S
H1851 C1880 0.930 . S
H1852 C1872 0.931 . S
O1853 Co1829 2.097 . S
O1853 C1881 1.214 . S
H1854 C1882 0.929 . S
H1855 C1883 0.929 . S
H1856 C1884 0.930 . S
H1857 C1885 0.929 . S
H1858 C1887 0.930 . S
H1859 C1864 0.930 . S
H1860 C1868 0.930 . S
O1861 Co1830 2.037 . S
O1861 C1881 1.234 . S
C1862 O1836 1.269 . S
C1862 O1837 1.257 . S
C1863 H1838 0.930 . S
C1863 C1866 1.388 . S
C1863 C1868 1.418 . S
C1864 H1859 0.930 . S
C1864 C1867 1.404 . S
C1864 C1868 1.353 . S
N1865 Co1830 2.145 . S
N1865 C1866 1.397 . S
N1865 C1867 1.334 . S
C1866 H1847 0.929 . S
C1866 C1863 1.388 . S
C1866 N1865 1.397 . S
C1867 H1848 0.929 . S
C1867 C1864 1.404 . S
C1867 N1865 1.334 . S
C1868 H1860 0.930 . S
C1868 C1863 1.418 . S
C1868 C1864 1.353 . S
C1869 H1839 0.930 . S
C1869 N1870 1.330 . S
C1869 C1871 1.446 . S
N1870 Co1829 2.151 . S
N1870 C1869 1.330 . S
N1870 C1874 1.418 . S
C1871 H1850 0.929 . S
C1871 C1869 1.446 . S
C1871 C1872 1.332 . S
C1872 H1852 0.931 . S
C1872 C1871 1.332 . S
C1872 C1873 1.267 . S
C1873 H1841 0.929 . S
C1873 C1872 1.267 . S
C1873 C1874 1.251 . S
C1874 H1844 0.929 . S
C1874 N1870 1.418 . S
C1874 C1873 1.251 . S
C1875 H1842 0.930 . S
C1875 C1877 1.406 . S
C1875 C1880 1.261 . S
C1876 H1843 0.930 . S
C1876 N1878 1.325 . S
C1876 C1879 1.357 . S
C1877 H1845 0.928 . S
C1877 C1875 1.406 . S
C1877 N1878 1.261 . S
N1878 Co1829 2.214 . S
N1878 C1876 1.325 . S
N1878 C1877 1.261 . S
C1879 H1849 0.931 . S
C1879 C1876 1.357 . S
C1879 C1880 1.312 . S
C1880 H1851 0.930 . S
C1880 C1875 1.261 . S
C1880 C1879 1.312 . S
C1881 O1853 1.214 . S
C1881 O1861 1.234 . S
C1882 H1854 0.929 . S
C1882 C1885 1.391 . S
C1882 C1887 1.391 . S
C1883 H1855 0.929 . S
C1883 C1884 1.390 . S
C1883 N1886 1.391 . S
C1884 H1856 0.930 . S
C1884 C1883 1.390 . S
C1884 C1885 1.392 . S
C1885 H1857 0.929 . S
C1885 C1882 1.391 . S
C1885 C1884 1.392 . S
N1886 Co1830 2.257 . S
N1886 C1883 1.391 . S
N1886 C1887 1.388 . S
C1887 H1858 0.930 . S
C1887 C1882 1.391 . S
C1887 N1886 1.388 . S
Co1888 O1890 2.143 . S
Co1888 O1896 2.074 . S
Co1888 O1899 2.093 . S
Co1888 O1912 2.097 . S
Co1888 N1929 2.151 . S
Co1888 N1937 2.214 . S
Co1889 O1890 2.160 . S
Co1889 O1895 2.058 . S
Co1889 O1905 2.057 . S
Co1889 O1920 2.037 . S
Co1889 N1924 2.145 . S
Co1889 N1945 2.257 . S
O1890 Co1888 2.143 . S
O1890 Co1889 2.160 . S
C1891 O1892 1.278 . S
C1891 O1899 1.224 . S
O1892 C1891 1.278 . S
C1893 O1894 1.245 . S
C1893 O1905 1.232 . S
O1894 C1893 1.245 . S
O1895 Co1889 2.058 . S
O1895 C1921 1.269 . S
O1896 Co1888 2.074 . S
O1896 C1921 1.257 . S
H1897 C1922 0.930 . S
H1898 C1928 0.930 . S
O1899 Co1888 2.093 . S
O1899 C1891 1.224 . S
H1900 C1932 0.929 . S
H1901 C1934 0.930 . S
H1902 C1935 0.930 . S
H1903 C1933 0.929 . S
H1904 C1936 0.928 . S
O1905 Co1889 2.057 . S
O1905 C1893 1.232 . S
H1906 C1925 0.929 . S
H1907 C1926 0.929 . S
H1908 C1938 0.931 . S
H1909 C1930 0.929 . S
H1910 C1939 0.930 . S
H1911 C1931 0.931 . S
O1912 Co1888 2.097 . S
O1912 C1940 1.214 . S
H1913 C1941 0.929 . S
H1914 C1942 0.929 . S
H1915 C1943 0.930 . S
H1916 C1944 0.929 . S
H1917 C1946 0.930 . S
H1918 C1923 0.930 . S
H1919 C1927 0.930 . S
O1920 Co1889 2.037 . S
O1920 C1940 1.234 . S
C1921 O1895 1.269 . S
C1921 O1896 1.257 . S
C1922 H1897 0.930 . S
C1922 C1925 1.388 . S
C1922 C1927 1.418 . S
C1923 H1918 0.930 . S
C1923 C1926 1.404 . S
C1923 C1927 1.353 . S
N1924 Co1889 2.145 . S
N1924 C1925 1.397 . S
N1924 C1926 1.334 . S
C1925 H1906 0.929 . S
C1925 C1922 1.388 . S
C1925 N1924 1.397 . S
C1926 H1907 0.929 . S
C1926 C1923 1.404 . S
C1926 N1924 1.334 . S
C1927 H1919 0.930 . S
C1927 C1922 1.418 . S
C1927 C1923 1.353 . S
C1928 H1898 0.930 . S
C1928 N1929 1.330 . S
C1928 C1930 1.446 . S
N1929 Co1888 2.151 . S
N1929 C1928 1.330 . S
N1929 C1933 1.418 . S
C1930 H1909 0.929 . S
C1930 C1928 1.446 . S
C1930 C1931 1.332 . S
C1931 H1911 0.931 . S
C1931 C1930 1.332 . S
C1931 C1932 1.267 . S
C1932 H1900 0.929 . S
C1932 C1931 1.267 . S
C1932 C1933 1.251 . S
C1933 H1903 0.929 . S
C1933 N1929 1.418 . S
C1933 C1932 1.251 . S
C1934 H1901 0.930 . S
C1934 C1936 1.406 . S
C1934 C1939 1.261 . S
C1935 H1902 0.930 . S
C1935 N1937 1.325 . S
C1935 C1938 1.357 . S
C1936 H1904 0.928 . S
C1936 C1934 1.406 . S
C1936 N1937 1.261 . S
N1937 Co1888 2.214 . S
N1937 C1935 1.325 . S
N1937 C1936 1.261 . S
C1938 H1908 0.931 . S
C1938 C1935 1.357 . S
C1938 C1939 1.312 . S
C1939 H1910 0.930 . S
C1939 C1934 1.261 . S
C1939 C1938 1.312 . S
C1940 O1912 1.214 . S
C1940 O1920 1.234 . S
C1941 H1913 0.929 . S
C1941 C1944 1.391 . S
C1941 C1946 1.391 . S
C1942 H1914 0.929 . S
C1942 C1943 1.390 . S
C1942 N1945 1.391 . S
C1943 H1915 0.930 . S
C1943 C1942 1.390 . S
C1943 C1944 1.392 . S
C1944 H1916 0.929 . S
C1944 C1941 1.391 . S
C1944 C1943 1.392 . S
N1945 Co1889 2.257 . S
N1945 C1942 1.391 . S
N1945 C1946 1.388 . S
C1946 H1917 0.930 . S
C1946 C1941 1.391 . S
C1946 N1945 1.388 . S
Co1947 O1949 2.143 . S
Co1947 O1955 2.074 . S
Co1947 O1958 2.093 . S
Co1947 O1971 2.097 . S
Co1947 N1988 2.151 . S
Co1947 N1996 2.214 . S
Co1948 O1949 2.160 . S
Co1948 O1954 2.058 . S
Co1948 O1964 2.057 . S
Co1948 O1979 2.037 . S
Co1948 N1983 2.145 . S
Co1948 N2004 2.257 . S
O1949 Co1947 2.143 . S
O1949 Co1948 2.160 . S
C1950 O1951 1.278 . S
C1950 O1958 1.224 . S
O1951 C1950 1.278 . S
C1952 O1953 1.245 . S
C1952 O1964 1.232 . S
O1953 C1952 1.245 . S
O1954 Co1948 2.058 . S
O1954 C1980 1.269 . S
O1955 Co1947 2.074 . S
O1955 C1980 1.257 . S
H1956 C1981 0.930 . S
H1957 C1987 0.930 . S
O1958 Co1947 2.093 . S
O1958 C1950 1.224 . S
H1959 C1991 0.929 . S
H1960 C1993 0.930 . S
H1961 C1994 0.930 . S
H1962 C1992 0.929 . S
H1963 C1995 0.928 . S
O1964 Co1948 2.057 . S
O1964 C1952 1.232 . S
H1965 C1984 0.929 . S
H1966 C1985 0.929 . S
H1967 C1997 0.931 . S
H1968 C1989 0.929 . S
H1969 C1998 0.930 . S
H1970 C1990 0.931 . S
O1971 Co1947 2.097 . S
O1971 C1999 1.214 . S
H1972 C2000 0.929 . S
H1973 C2001 0.929 . S
H1974 C2002 0.930 . S
H1975 C2003 0.929 . S
H1976 C2005 0.930 . S
H1977 C1982 0.930 . S
H1978 C1986 0.930 . S
O1979 Co1948 2.037 . S
O1979 C1999 1.234 . S
C1980 O1954 1.269 . S
C1980 O1955 1.257 . S
C1981 H1956 0.930 . S
C1981 C1984 1.388 . S
C1981 C1986 1.418 . S
C1982 H1977 0.930 . S
C1982 C1985 1.404 . S
C1982 C1986 1.353 . S
N1983 Co1948 2.145 . S
N1983 C1984 1.397 . S
N1983 C1985 1.334 . S
C1984 H1965 0.929 . S
C1984 C1981 1.388 . S
C1984 N1983 1.397 . S
C1985 H1966 0.929 . S
C1985 C1982 1.404 . S
C1985 N1983 1.334 . S
C1986 H1978 0.930 . S
C1986 C1981 1.418 . S
C1986 C1982 1.353 . S
C1987 H1957 0.930 . S
C1987 N1988 1.330 . S
C1987 C1989 1.446 . S
N1988 Co1947 2.151 . S
N1988 C1987 1.330 . S
N1988 C1992 1.418 . S
C1989 H1968 0.929 . S
C1989 C1987 1.446 . S
C1989 C1990 1.332 . S
C1990 H1970 0.931 . S
C1990 C1989 1.332 . S
C1990 C1991 1.267 . S
C1991 H1959 0.929 . S
C1991 C1990 1.267 . S
C1991 C1992 1.251 . S
C1992 H1962 0.929 . S
C1992 N1988 1.418 . S
C1992 C1991 1.251 . S
C1993 H1960 0.930 . S
C1993 C1995 1.406 . S
C1993 C1998 1.261 . S
C1994 H1961 0.930 . S
C1994 N1996 1.325 . S
C1994 C1997 1.357 . S
C1995 H1963 0.928 . S
C1995 C1993 1.406 . S
C1995 N1996 1.261 . S
N1996 Co1947 2.214 . S
N1996 C1994 1.325 . S
N1996 C1995 1.261 . S
C1997 H1967 0.931 . S
C1997 C1994 1.357 . S
C1997 C1998 1.312 . S
C1998 H1969 0.930 . S
C1998 C1993 1.261 . S
C1998 C1997 1.312 . S
C1999 O1971 1.214 . S
C1999 O1979 1.234 . S
C2000 H1972 0.929 . S
C2000 C2003 1.391 . S
C2000 C2005 1.391 . S
C2001 H1973 0.929 . S
C2001 C2002 1.390 . S
C2001 N2004 1.391 . S
C2002 H1974 0.930 . S
C2002 C2001 1.390 . S
C2002 C2003 1.392 . S
C2003 H1975 0.929 . S
C2003 C2000 1.391 . S
C2003 C2002 1.392 . S
N2004 Co1948 2.257 . S
N2004 C2001 1.391 . S
N2004 C2005 1.388 . S
C2005 H1976 0.930 . S
C2005 C2000 1.391 . S
C2005 N2004 1.388 . S
Co2006 O2008 2.143 . S
Co2006 O2014 2.074 . S
Co2006 O2017 2.093 . S
Co2006 O2030 2.097 . S
Co2006 N2047 2.151 . S
Co2006 N2055 2.214 . S
Co2007 O2008 2.160 . S
Co2007 O2013 2.058 . S
Co2007 O2023 2.057 . S
Co2007 O2038 2.037 . S
Co2007 N2042 2.145 . S
Co2007 N2063 2.257 . S
O2008 Co2006 2.143 . S
O2008 Co2007 2.160 . S
C2009 O2010 1.278 . S
C2009 O2017 1.224 . S
O2010 C2009 1.278 . S
C2011 O2012 1.245 . S
C2011 O2023 1.232 . S
O2012 C2011 1.245 . S
O2013 Co2007 2.058 . S
O2013 C2039 1.269 . S
O2014 Co2006 2.074 . S
O2014 C2039 1.257 . S
H2015 C2040 0.930 . S
H2016 C2046 0.930 . S
O2017 Co2006 2.093 . S
O2017 C2009 1.224 . S
H2018 C2050 0.929 . S
H2019 C2052 0.930 . S
H2020 C2053 0.930 . S
H2021 C2051 0.929 . S
H2022 C2054 0.928 . S
O2023 Co2007 2.057 . S
O2023 C2011 1.232 . S
H2024 C2043 0.929 . S
H2025 C2044 0.929 . S
H2026 C2056 0.931 . S
H2027 C2048 0.929 . S
H2028 C2057 0.930 . S
H2029 C2049 0.931 . S
O2030 Co2006 2.097 . S
O2030 C2058 1.214 . S
H2031 C2059 0.929 . S
H2032 C2060 0.929 . S
H2033 C2061 0.930 . S
H2034 C2062 0.929 . S
H2035 C2064 0.930 . S
H2036 C2041 0.930 . S
H2037 C2045 0.930 . S
O2038 Co2007 2.037 . S
O2038 C2058 1.234 . S
C2039 O2013 1.269 . S
C2039 O2014 1.257 . S
C2040 H2015 0.930 . S
C2040 C2043 1.388 . S
C2040 C2045 1.418 . S
C2041 H2036 0.930 . S
C2041 C2044 1.404 . S
C2041 C2045 1.353 . S
N2042 Co2007 2.145 . S
N2042 C2043 1.397 . S
N2042 C2044 1.334 . S
C2043 H2024 0.929 . S
C2043 C2040 1.388 . S
C2043 N2042 1.397 . S
C2044 H2025 0.929 . S
C2044 C2041 1.404 . S
C2044 N2042 1.334 . S
C2045 H2037 0.930 . S
C2045 C2040 1.418 . S
C2045 C2041 1.353 . S
C2046 H2016 0.930 . S
C2046 N2047 1.330 . S
C2046 C2048 1.446 . S
N2047 Co2006 2.151 . S
N2047 C2046 1.330 . S
N2047 C2051 1.418 . S
C2048 H2027 0.929 . S
C2048 C2046 1.446 . S
C2048 C2049 1.332 . S
C2049 H2029 0.931 . S
C2049 C2048 1.332 . S
C2049 C2050 1.267 . S
C2050 H2018 0.929 . S
C2050 C2049 1.267 . S
C2050 C2051 1.251 . S
C2051 H2021 0.929 . S
C2051 N2047 1.418 . S
C2051 C2050 1.251 . S
C2052 H2019 0.930 . S
C2052 C2054 1.406 . S
C2052 C2057 1.261 . S
C2053 H2020 0.930 . S
C2053 N2055 1.325 . S
C2053 C2056 1.357 . S
C2054 H2022 0.928 . S
C2054 C2052 1.406 . S
C2054 N2055 1.261 . S
N2055 Co2006 2.214 . S
N2055 C2053 1.325 . S
N2055 C2054 1.261 . S
C2056 H2026 0.931 . S
C2056 C2053 1.357 . S
C2056 C2057 1.312 . S
C2057 H2028 0.930 . S
C2057 C2052 1.261 . S
C2057 C2056 1.312 . S
C2058 O2030 1.214 . S
C2058 O2038 1.234 . S
C2059 H2031 0.929 . S
C2059 C2062 1.391 . S
C2059 C2064 1.391 . S
C2060 H2032 0.929 . S
C2060 C2061 1.390 . S
C2060 N2063 1.391 . S
C2061 H2033 0.930 . S
C2061 C2060 1.390 . S
C2061 C2062 1.392 . S
C2062 H2034 0.929 . S
C2062 C2059 1.391 . S
C2062 C2061 1.392 . S
N2063 Co2007 2.257 . S
N2063 C2060 1.391 . S
N2063 C2064 1.388 . S
C2064 H2035 0.930 . S
C2064 C2059 1.391 . S
C2064 N2063 1.388 . S
Co2065 O2067 2.143 . S
Co2065 O2073 2.074 . S
Co2065 O2076 2.093 . S
Co2065 O2089 2.097 . S
Co2065 N2106 2.151 . S
Co2065 N2114 2.214 . S
Co2066 O2067 2.160 . S
Co2066 O2072 2.058 . S
Co2066 O2082 2.057 . S
Co2066 O2097 2.037 . S
Co2066 N2101 2.145 . S
Co2066 N2122 2.257 . S
O2067 Co2065 2.143 . S
O2067 Co2066 2.160 . S
C2068 O2069 1.278 . S
C2068 O2076 1.224 . S
O2069 C2068 1.278 . S
C2070 O2071 1.245 . S
C2070 O2082 1.232 . S
O2071 C2070 1.245 . S
O2072 Co2066 2.058 . S
O2072 C2098 1.269 . S
O2073 Co2065 2.074 . S
O2073 C2098 1.257 . S
H2074 C2099 0.930 . S
H2075 C2105 0.930 . S
O2076 Co2065 2.093 . S
O2076 C2068 1.224 . S
H2077 C2109 0.929 . S
H2078 C2111 0.930 . S
H2079 C2112 0.930 . S
H2080 C2110 0.929 . S
H2081 C2113 0.928 . S
O2082 Co2066 2.057 . S
O2082 C2070 1.232 . S
H2083 C2102 0.929 . S
H2084 C2103 0.929 . S
H2085 C2115 0.931 . S
H2086 C2107 0.929 . S
H2087 C2116 0.930 . S
H2088 C2108 0.931 . S
O2089 Co2065 2.097 . S
O2089 C2117 1.214 . S
H2090 C2118 0.929 . S
H2091 C2119 0.929 . S
H2092 C2120 0.930 . S
H2093 C2121 0.929 . S
H2094 C2123 0.930 . S
H2095 C2100 0.930 . S
H2096 C2104 0.930 . S
O2097 Co2066 2.037 . S
O2097 C2117 1.234 . S
C2098 O2072 1.269 . S
C2098 O2073 1.257 . S
C2099 H2074 0.930 . S
C2099 C2102 1.388 . S
C2099 C2104 1.418 . S
C2100 H2095 0.930 . S
C2100 C2103 1.404 . S
C2100 C2104 1.353 . S
N2101 Co2066 2.145 . S
N2101 C2102 1.397 . S
N2101 C2103 1.334 . S
C2102 H2083 0.929 . S
C2102 C2099 1.388 . S
C2102 N2101 1.397 . S
C2103 H2084 0.929 . S
C2103 C2100 1.404 . S
C2103 N2101 1.334 . S
C2104 H2096 0.930 . S
C2104 C2099 1.418 . S
C2104 C2100 1.353 . S
C2105 H2075 0.930 . S
C2105 N2106 1.330 . S
C2105 C2107 1.446 . S
N2106 Co2065 2.151 . S
N2106 C2105 1.330 . S
N2106 C2110 1.418 . S
C2107 H2086 0.929 . S
C2107 C2105 1.446 . S
C2107 C2108 1.332 . S
C2108 H2088 0.931 . S
C2108 C2107 1.332 . S
C2108 C2109 1.267 . S
C2109 H2077 0.929 . S
C2109 C2108 1.267 . S
C2109 C2110 1.251 . S
C2110 H2080 0.929 . S
C2110 N2106 1.418 . S
C2110 C2109 1.251 . S
C2111 H2078 0.930 . S
C2111 C2113 1.406 . S
C2111 C2116 1.261 . S
C2112 H2079 0.930 . S
C2112 N2114 1.325 . S
C2112 C2115 1.357 . S
C2113 H2081 0.928 . S
C2113 C2111 1.406 . S
C2113 N2114 1.261 . S
N2114 Co2065 2.214 . S
N2114 C2112 1.325 . S
N2114 C2113 1.261 . S
C2115 H2085 0.931 . S
C2115 C2112 1.357 . S
C2115 C2116 1.312 . S
C2116 H2087 0.930 . S
C2116 C2111 1.261 . S
C2116 C2115 1.312 . S
C2117 O2089 1.214 . S
C2117 O2097 1.234 . S
C2118 H2090 0.929 . S
C2118 C2121 1.391 . S
C2118 C2123 1.391 . S
C2119 H2091 0.929 . S
C2119 C2120 1.390 . S
C2119 N2122 1.391 . S
C2120 H2092 0.930 . S
C2120 C2119 1.390 . S
C2120 C2121 1.392 . S
C2121 H2093 0.929 . S
C2121 C2118 1.391 . S
C2121 C2120 1.392 . S
N2122 Co2066 2.257 . S
N2122 C2119 1.391 . S
N2122 C2123 1.388 . S
C2123 H2094 0.930 . S
C2123 C2118 1.391 . S
C2123 N2122 1.388 . S
Co2124 O2126 2.143 . S
Co2124 O2132 2.074 . S
Co2124 O2135 2.093 . S
Co2124 O2148 2.097 . S
Co2124 N2165 2.151 . S
Co2124 N2173 2.214 . S
Co2125 O2126 2.160 . S
Co2125 O2131 2.058 . S
Co2125 O2141 2.057 . S
Co2125 O2156 2.037 . S
Co2125 N2160 2.145 . S
Co2125 N2181 2.257 . S
O2126 Co2124 2.143 . S
O2126 Co2125 2.160 . S
C2127 O2128 1.278 . S
C2127 O2135 1.224 . S
O2128 C2127 1.278 . S
C2129 O2130 1.245 . S
C2129 O2141 1.232 . S
O2130 C2129 1.245 . S
O2131 Co2125 2.058 . S
O2131 C2157 1.269 . S
O2132 Co2124 2.074 . S
O2132 C2157 1.257 . S
H2133 C2158 0.930 . S
H2134 C2164 0.930 . S
O2135 Co2124 2.093 . S
O2135 C2127 1.224 . S
H2136 C2168 0.929 . S
H2137 C2170 0.930 . S
H2138 C2171 0.930 . S
H2139 C2169 0.929 . S
H2140 C2172 0.928 . S
O2141 Co2125 2.057 . S
O2141 C2129 1.232 . S
H2142 C2161 0.929 . S
H2143 C2162 0.929 . S
H2144 C2174 0.931 . S
H2145 C2166 0.929 . S
H2146 C2175 0.930 . S
H2147 C2167 0.931 . S
O2148 Co2124 2.097 . S
O2148 C2176 1.214 . S
H2149 C2177 0.929 . S
H2150 C2178 0.929 . S
H2151 C2179 0.930 . S
H2152 C2180 0.929 . S
H2153 C2182 0.930 . S
H2154 C2159 0.930 . S
H2155 C2163 0.930 . S
O2156 Co2125 2.037 . S
O2156 C2176 1.234 . S
C2157 O2131 1.269 . S
C2157 O2132 1.257 . S
C2158 H2133 0.930 . S
C2158 C2161 1.388 . S
C2158 C2163 1.418 . S
C2159 H2154 0.930 . S
C2159 C2162 1.404 . S
C2159 C2163 1.353 . S
N2160 Co2125 2.145 . S
N2160 C2161 1.397 . S
N2160 C2162 1.334 . S
C2161 H2142 0.929 . S
C2161 C2158 1.388 . S
C2161 N2160 1.397 . S
C2162 H2143 0.929 . S
C2162 C2159 1.404 . S
C2162 N2160 1.334 . S
C2163 H2155 0.930 . S
C2163 C2158 1.418 . S
C2163 C2159 1.353 . S
C2164 H2134 0.930 . S
C2164 N2165 1.330 . S
C2164 C2166 1.446 . S
N2165 Co2124 2.151 . S
N2165 C2164 1.330 . S
N2165 C2169 1.418 . S
C2166 H2145 0.929 . S
C2166 C2164 1.446 . S
C2166 C2167 1.332 . S
C2167 H2147 0.931 . S
C2167 C2166 1.332 . S
C2167 C2168 1.267 . S
C2168 H2136 0.929 . S
C2168 C2167 1.267 . S
C2168 C2169 1.251 . S
C2169 H2139 0.929 . S
C2169 N2165 1.418 . S
C2169 C2168 1.251 . S
C2170 H2137 0.930 . S
C2170 C2172 1.406 . S
C2170 C2175 1.261 . S
C2171 H2138 0.930 . S
C2171 N2173 1.325 . S
C2171 C2174 1.357 . S
C2172 H2140 0.928 . S
C2172 C2170 1.406 . S
C2172 N2173 1.261 . S
N2173 Co2124 2.214 . S
N2173 C2171 1.325 . S
N2173 C2172 1.261 . S
C2174 H2144 0.931 . S
C2174 C2171 1.357 . S
C2174 C2175 1.312 . S
C2175 H2146 0.930 . S
C2175 C2170 1.261 . S
C2175 C2174 1.312 . S
C2176 O2148 1.214 . S
C2176 O2156 1.234 . S
C2177 H2149 0.929 . S
C2177 C2180 1.391 . S
C2177 C2182 1.391 . S
C2178 H2150 0.929 . S
C2178 C2179 1.390 . S
C2178 N2181 1.391 . S
C2179 H2151 0.930 . S
C2179 C2178 1.390 . S
C2179 C2180 1.392 . S
C2180 H2152 0.929 . S
C2180 C2177 1.391 . S
C2180 C2179 1.392 . S
N2181 Co2125 2.257 . S
N2181 C2178 1.391 . S
N2181 C2182 1.388 . S
C2182 H2153 0.930 . S
C2182 C2177 1.391 . S
C2182 N2181 1.388 . S
Co2183 O2185 2.143 . S
Co2183 O2191 2.074 . S
Co2183 O2194 2.093 . S
Co2183 O2207 2.097 . S
Co2183 N2224 2.151 . S
Co2183 N2232 2.214 . S
Co2184 O2185 2.160 . S
Co2184 O2190 2.058 . S
Co2184 O2200 2.057 . S
Co2184 O2215 2.037 . S
Co2184 N2219 2.145 . S
Co2184 N2240 2.257 . S
O2185 Co2183 2.143 . S
O2185 Co2184 2.160 . S
C2186 O2187 1.278 . S
C2186 O2194 1.224 . S
O2187 C2186 1.278 . S
C2188 O2189 1.245 . S
C2188 O2200 1.232 . S
O2189 C2188 1.245 . S
O2190 Co2184 2.058 . S
O2190 C2216 1.269 . S
O2191 Co2183 2.074 . S
O2191 C2216 1.257 . S
H2192 C2217 0.930 . S
H2193 C2223 0.930 . S
O2194 Co2183 2.093 . S
O2194 C2186 1.224 . S
H2195 C2227 0.929 . S
H2196 C2229 0.930 . S
H2197 C2230 0.930 . S
H2198 C2228 0.929 . S
H2199 C2231 0.928 . S
O2200 Co2184 2.057 . S
O2200 C2188 1.232 . S
H2201 C2220 0.929 . S
H2202 C2221 0.929 . S
H2203 C2233 0.931 . S
H2204 C2225 0.929 . S
H2205 C2234 0.930 . S
H2206 C2226 0.931 . S
O2207 Co2183 2.097 . S
O2207 C2235 1.214 . S
H2208 C2236 0.929 . S
H2209 C2237 0.929 . S
H2210 C2238 0.930 . S
H2211 C2239 0.929 . S
H2212 C2241 0.930 . S
H2213 C2218 0.930 . S
H2214 C2222 0.930 . S
O2215 Co2184 2.037 . S
O2215 C2235 1.234 . S
C2216 O2190 1.269 . S
C2216 O2191 1.257 . S
C2217 H2192 0.930 . S
C2217 C2220 1.388 . S
C2217 C2222 1.418 . S
C2218 H2213 0.930 . S
C2218 C2221 1.404 . S
C2218 C2222 1.353 . S
N2219 Co2184 2.145 . S
N2219 C2220 1.397 . S
N2219 C2221 1.334 . S
C2220 H2201 0.929 . S
C2220 C2217 1.388 . S
C2220 N2219 1.397 . S
C2221 H2202 0.929 . S
C2221 C2218 1.404 . S
C2221 N2219 1.334 . S
C2222 H2214 0.930 . S
C2222 C2217 1.418 . S
C2222 C2218 1.353 . S
C2223 H2193 0.930 . S
C2223 N2224 1.330 . S
C2223 C2225 1.446 . S
N2224 Co2183 2.151 . S
N2224 C2223 1.330 . S
N2224 C2228 1.418 . S
C2225 H2204 0.929 . S
C2225 C2223 1.446 . S
C2225 C2226 1.332 . S
C2226 H2206 0.931 . S
C2226 C2225 1.332 . S
C2226 C2227 1.267 . S
C2227 H2195 0.929 . S
C2227 C2226 1.267 . S
C2227 C2228 1.251 . S
C2228 H2198 0.929 . S
C2228 N2224 1.418 . S
C2228 C2227 1.251 . S
C2229 H2196 0.930 . S
C2229 C2231 1.406 . S
C2229 C2234 1.261 . S
C2230 H2197 0.930 . S
C2230 N2232 1.325 . S
C2230 C2233 1.357 . S
C2231 H2199 0.928 . S
C2231 C2229 1.406 . S
C2231 N2232 1.261 . S
N2232 Co2183 2.214 . S
N2232 C2230 1.325 . S
N2232 C2231 1.261 . S
C2233 H2203 0.931 . S
C2233 C2230 1.357 . S
C2233 C2234 1.312 . S
C2234 H2205 0.930 . S
C2234 C2229 1.261 . S
C2234 C2233 1.312 . S
C2235 O2207 1.214 . S
C2235 O2215 1.234 . S
C2236 H2208 0.929 . S
C2236 C2239 1.391 . S
C2236 C2241 1.391 . S
C2237 H2209 0.929 . S
C2237 C2238 1.390 . S
C2237 N2240 1.391 . S
C2238 H2210 0.930 . S
C2238 C2237 1.390 . S
C2238 C2239 1.392 . S
C2239 H2211 0.929 . S
C2239 C2236 1.391 . S
C2239 C2238 1.392 . S
N2240 Co2184 2.257 . S
N2240 C2237 1.391 . S
N2240 C2241 1.388 . S
C2241 H2212 0.930 . S
C2241 C2236 1.391 . S
C2241 N2240 1.388 . S
Co2242 O2244 2.143 . S
Co2242 O2250 2.074 . S
Co2242 O2253 2.093 . S
Co2242 O2266 2.097 . S
Co2242 N2283 2.151 . S
Co2242 N2291 2.214 . S
Co2243 O2244 2.160 . S
Co2243 O2249 2.058 . S
Co2243 O2259 2.057 . S
Co2243 O2274 2.037 . S
Co2243 N2278 2.145 . S
Co2243 N2299 2.257 . S
O2244 Co2242 2.143 . S
O2244 Co2243 2.160 . S
C2245 O2246 1.278 . S
C2245 O2253 1.224 . S
O2246 C2245 1.278 . S
C2247 O2248 1.245 . S
C2247 O2259 1.232 . S
O2248 C2247 1.245 . S
O2249 Co2243 2.058 . S
O2249 C2275 1.269 . S
O2250 Co2242 2.074 . S
O2250 C2275 1.257 . S
H2251 C2276 0.930 . S
H2252 C2282 0.930 . S
O2253 Co2242 2.093 . S
O2253 C2245 1.224 . S
H2254 C2286 0.929 . S
H2255 C2288 0.930 . S
H2256 C2289 0.930 . S
H2257 C2287 0.929 . S
H2258 C2290 0.928 . S
O2259 Co2243 2.057 . S
O2259 C2247 1.232 . S
H2260 C2279 0.929 . S
H2261 C2280 0.929 . S
H2262 C2292 0.931 . S
H2263 C2284 0.929 . S
H2264 C2293 0.930 . S
H2265 C2285 0.931 . S
O2266 Co2242 2.097 . S
O2266 C2294 1.214 . S
H2267 C2295 0.929 . S
H2268 C2296 0.929 . S
H2269 C2297 0.930 . S
H2270 C2298 0.929 . S
H2271 C2300 0.930 . S
H2272 C2277 0.930 . S
H2273 C2281 0.930 . S
O2274 Co2243 2.037 . S
O2274 C2294 1.234 . S
C2275 O2249 1.269 . S
C2275 O2250 1.257 . S
C2276 H2251 0.930 . S
C2276 C2279 1.388 . S
C2276 C2281 1.418 . S
C2277 H2272 0.930 . S
C2277 C2280 1.404 . S
C2277 C2281 1.353 . S
N2278 Co2243 2.145 . S
N2278 C2279 1.397 . S
N2278 C2280 1.334 . S
C2279 H2260 0.929 . S
C2279 C2276 1.388 . S
C2279 N2278 1.397 . S
C2280 H2261 0.929 . S
C2280 C2277 1.404 . S
C2280 N2278 1.334 . S
C2281 H2273 0.930 . S
C2281 C2276 1.418 . S
C2281 C2277 1.353 . S
C2282 H2252 0.930 . S
C2282 N2283 1.330 . S
C2282 C2284 1.446 . S
N2283 Co2242 2.151 . S
N2283 C2282 1.330 . S
N2283 C2287 1.418 . S
C2284 H2263 0.929 . S
C2284 C2282 1.446 . S
C2284 C2285 1.332 . S
C2285 H2265 0.931 . S
C2285 C2284 1.332 . S
C2285 C2286 1.267 . S
C2286 H2254 0.929 . S
C2286 C2285 1.267 . S
C2286 C2287 1.251 . S
C2287 H2257 0.929 . S
C2287 N2283 1.418 . S
C2287 C2286 1.251 . S
C2288 H2255 0.930 . S
C2288 C2290 1.406 . S
C2288 C2293 1.261 . S
C2289 H2256 0.930 . S
C2289 N2291 1.325 . S
C2289 C2292 1.357 . S
C2290 H2258 0.928 . S
C2290 C2288 1.406 . S
C2290 N2291 1.261 . S
N2291 Co2242 2.214 . S
N2291 C2289 1.325 . S
N2291 C2290 1.261 . S
C2292 H2262 0.931 . S
C2292 C2289 1.357 . S
C2292 C2293 1.312 . S
C2293 H2264 0.930 . S
C2293 C2288 1.261 . S
C2293 C2292 1.312 . S
C2294 O2266 1.214 . S
C2294 O2274 1.234 . S
C2295 H2267 0.929 . S
C2295 C2298 1.391 . S
C2295 C2300 1.391 . S
C2296 H2268 0.929 . S
C2296 C2297 1.390 . S
C2296 N2299 1.391 . S
C2297 H2269 0.930 . S
C2297 C2296 1.390 . S
C2297 C2298 1.392 . S
C2298 H2270 0.929 . S
C2298 C2295 1.391 . S
C2298 C2297 1.392 . S
N2299 Co2243 2.257 . S
N2299 C2296 1.391 . S
N2299 C2300 1.388 . S
C2300 H2271 0.930 . S
C2300 C2295 1.391 . S
C2300 N2299 1.388 . S
Co2301 O2303 2.143 . S
Co2301 O2309 2.074 . S
Co2301 O2312 2.093 . S
Co2301 O2325 2.097 . S
Co2301 N2342 2.151 . S
Co2301 N2350 2.214 . S
Co2302 O2303 2.160 . S
Co2302 O2308 2.058 . S
Co2302 O2318 2.057 . S
Co2302 O2333 2.037 . S
Co2302 N2337 2.145 . S
Co2302 N2358 2.257 . S
O2303 Co2301 2.143 . S
O2303 Co2302 2.160 . S
C2304 O2305 1.278 . S
C2304 O2312 1.224 . S
O2305 C2304 1.278 . S
C2306 O2307 1.245 . S
C2306 O2318 1.232 . S
O2307 C2306 1.245 . S
O2308 Co2302 2.058 . S
O2308 C2334 1.269 . S
O2309 Co2301 2.074 . S
O2309 C2334 1.257 . S
H2310 C2335 0.930 . S
H2311 C2341 0.930 . S
O2312 Co2301 2.093 . S
O2312 C2304 1.224 . S
H2313 C2345 0.929 . S
H2314 C2347 0.930 . S
H2315 C2348 0.930 . S
H2316 C2346 0.929 . S
H2317 C2349 0.928 . S
O2318 Co2302 2.057 . S
O2318 C2306 1.232 . S
H2319 C2338 0.929 . S
H2320 C2339 0.929 . S
H2321 C2351 0.931 . S
H2322 C2343 0.929 . S
H2323 C2352 0.930 . S
H2324 C2344 0.931 . S
O2325 Co2301 2.097 . S
O2325 C2353 1.214 . S
H2326 C2354 0.929 . S
H2327 C2355 0.929 . S
H2328 C2356 0.930 . S
H2329 C2357 0.929 . S
H2330 C2359 0.930 . S
H2331 C2336 0.930 . S
H2332 C2340 0.930 . S
O2333 Co2302 2.037 . S
O2333 C2353 1.234 . S
C2334 O2308 1.269 . S
C2334 O2309 1.257 . S
C2335 H2310 0.930 . S
C2335 C2338 1.388 . S
C2335 C2340 1.418 . S
C2336 H2331 0.930 . S
C2336 C2339 1.404 . S
C2336 C2340 1.353 . S
N2337 Co2302 2.145 . S
N2337 C2338 1.397 . S
N2337 C2339 1.334 . S
C2338 H2319 0.929 . S
C2338 C2335 1.388 . S
C2338 N2337 1.397 . S
C2339 H2320 0.929 . S
C2339 C2336 1.404 . S
C2339 N2337 1.334 . S
C2340 H2332 0.930 . S
C2340 C2335 1.418 . S
C2340 C2336 1.353 . S
C2341 H2311 0.930 . S
C2341 N2342 1.330 . S
C2341 C2343 1.446 . S
N2342 Co2301 2.151 . S
N2342 C2341 1.330 . S
N2342 C2346 1.418 . S
C2343 H2322 0.929 . S
C2343 C2341 1.446 . S
C2343 C2344 1.332 . S
C2344 H2324 0.931 . S
C2344 C2343 1.332 . S
C2344 C2345 1.267 . S
C2345 H2313 0.929 . S
C2345 C2344 1.267 . S
C2345 C2346 1.251 . S
C2346 H2316 0.929 . S
C2346 N2342 1.418 . S
C2346 C2345 1.251 . S
C2347 H2314 0.930 . S
C2347 C2349 1.406 . S
C2347 C2352 1.261 . S
C2348 H2315 0.930 . S
C2348 N2350 1.325 . S
C2348 C2351 1.357 . S
C2349 H2317 0.928 . S
C2349 C2347 1.406 . S
C2349 N2350 1.261 . S
N2350 Co2301 2.214 . S
N2350 C2348 1.325 . S
N2350 C2349 1.261 . S
C2351 H2321 0.931 . S
C2351 C2348 1.357 . S
C2351 C2352 1.312 . S
C2352 H2323 0.930 . S
C2352 C2347 1.261 . S
C2352 C2351 1.312 . S
C2353 O2325 1.214 . S
C2353 O2333 1.234 . S
C2354 H2326 0.929 . S
C2354 C2357 1.391 . S
C2354 C2359 1.391 . S
C2355 H2327 0.929 . S
C2355 C2356 1.390 . S
C2355 N2358 1.391 . S
C2356 H2328 0.930 . S
C2356 C2355 1.390 . S
C2356 C2357 1.392 . S
C2357 H2329 0.929 . S
C2357 C2354 1.391 . S
C2357 C2356 1.392 . S
N2358 Co2302 2.257 . S
N2358 C2355 1.391 . S
N2358 C2359 1.388 . S
C2359 H2330 0.930 . S
C2359 C2354 1.391 . S
C2359 N2358 1.388 . S
Co2360 O2362 2.143 . S
Co2360 O2368 2.074 . S
Co2360 O2371 2.093 . S
Co2360 O2384 2.097 . S
Co2360 N2401 2.151 . S
Co2360 N2409 2.214 . S
Co2361 O2362 2.160 . S
Co2361 O2367 2.058 . S
Co2361 O2377 2.057 . S
Co2361 O2392 2.037 . S
Co2361 N2396 2.145 . S
Co2361 N2417 2.257 . S
O2362 Co2360 2.143 . S
O2362 Co2361 2.160 . S
C2363 O2364 1.278 . S
C2363 O2371 1.224 . S
O2364 C2363 1.278 . S
C2365 O2366 1.245 . S
C2365 O2377 1.232 . S
O2366 C2365 1.245 . S
O2367 Co2361 2.058 . S
O2367 C2393 1.269 . S
O2368 Co2360 2.074 . S
O2368 C2393 1.257 . S
H2369 C2394 0.930 . S
H2370 C2400 0.930 . S
O2371 Co2360 2.093 . S
O2371 C2363 1.224 . S
H2372 C2404 0.929 . S
H2373 C2406 0.930 . S
H2374 C2407 0.930 . S
H2375 C2405 0.929 . S
H2376 C2408 0.928 . S
O2377 Co2361 2.057 . S
O2377 C2365 1.232 . S
H2378 C2397 0.929 . S
H2379 C2398 0.929 . S
H2380 C2410 0.931 . S
H2381 C2402 0.929 . S
H2382 C2411 0.930 . S
H2383 C2403 0.931 . S
O2384 Co2360 2.097 . S
O2384 C2412 1.214 . S
H2385 C2413 0.929 . S
H2386 C2414 0.929 . S
H2387 C2415 0.930 . S
H2388 C2416 0.929 . S
H2389 C2418 0.930 . S
H2390 C2395 0.930 . S
H2391 C2399 0.930 . S
O2392 Co2361 2.037 . S
O2392 C2412 1.234 . S
C2393 O2367 1.269 . S
C2393 O2368 1.257 . S
C2394 H2369 0.930 . S
C2394 C2397 1.388 . S
C2394 C2399 1.418 . S
C2395 H2390 0.930 . S
C2395 C2398 1.404 . S
C2395 C2399 1.353 . S
N2396 Co2361 2.145 . S
N2396 C2397 1.397 . S
N2396 C2398 1.334 . S
C2397 H2378 0.929 . S
C2397 C2394 1.388 . S
C2397 N2396 1.397 . S
C2398 H2379 0.929 . S
C2398 C2395 1.404 . S
C2398 N2396 1.334 . S
C2399 H2391 0.930 . S
C2399 C2394 1.418 . S
C2399 C2395 1.353 . S
C2400 H2370 0.930 . S
C2400 N2401 1.330 . S
C2400 C2402 1.446 . S
N2401 Co2360 2.151 . S
N2401 C2400 1.330 . S
N2401 C2405 1.418 . S
C2402 H2381 0.929 . S
C2402 C2400 1.446 . S
C2402 C2403 1.332 . S
C2403 H2383 0.931 . S
C2403 C2402 1.332 . S
C2403 C2404 1.267 . S
C2404 H2372 0.929 . S
C2404 C2403 1.267 . S
C2404 C2405 1.251 . S
C2405 H2375 0.929 . S
C2405 N2401 1.418 . S
C2405 C2404 1.251 . S
C2406 H2373 0.930 . S
C2406 C2408 1.406 . S
C2406 C2411 1.261 . S
C2407 H2374 0.930 . S
C2407 N2409 1.325 . S
C2407 C2410 1.357 . S
C2408 H2376 0.928 . S
C2408 C2406 1.406 . S
C2408 N2409 1.261 . S
N2409 Co2360 2.214 . S
N2409 C2407 1.325 . S
N2409 C2408 1.261 . S
C2410 H2380 0.931 . S
C2410 C2407 1.357 . S
C2410 C2411 1.312 . S
C2411 H2382 0.930 . S
C2411 C2406 1.261 . S
C2411 C2410 1.312 . S
C2412 O2384 1.214 . S
C2412 O2392 1.234 . S
C2413 H2385 0.929 . S
C2413 C2416 1.391 . S
C2413 C2418 1.391 . S
C2414 H2386 0.929 . S
C2414 C2415 1.390 . S
C2414 N2417 1.391 . S
C2415 H2387 0.930 . S
C2415 C2414 1.390 . S
C2415 C2416 1.392 . S
C2416 H2388 0.929 . S
C2416 C2413 1.391 . S
C2416 C2415 1.392 . S
N2417 Co2361 2.257 . S
N2417 C2414 1.391 . S
N2417 C2418 1.388 . S
C2418 H2389 0.930 . S
C2418 C2413 1.391 . S
C2418 N2417 1.388 . S
Co2419 O2421 2.143 . S
Co2419 O2427 2.074 . S
Co2419 O2430 2.093 . S
Co2419 O2443 2.097 . S
Co2419 N2460 2.151 . S
Co2419 N2468 2.214 . S
Co2420 O2421 2.160 . S
Co2420 O2426 2.058 . S
Co2420 O2436 2.057 . S
Co2420 O2451 2.037 . S
Co2420 N2455 2.145 . S
Co2420 N2476 2.257 . S
O2421 Co2419 2.143 . S
O2421 Co2420 2.160 . S
C2422 O2423 1.278 . S
C2422 O2430 1.224 . S
O2423 C2422 1.278 . S
C2424 O2425 1.245 . S
C2424 O2436 1.232 . S
O2425 C2424 1.245 . S
O2426 Co2420 2.058 . S
O2426 C2452 1.269 . S
O2427 Co2419 2.074 . S
O2427 C2452 1.257 . S
H2428 C2453 0.930 . S
H2429 C2459 0.930 . S
O2430 Co2419 2.093 . S
O2430 C2422 1.224 . S
H2431 C2463 0.929 . S
H2432 C2465 0.930 . S
H2433 C2466 0.930 . S
H2434 C2464 0.929 . S
H2435 C2467 0.928 . S
O2436 Co2420 2.057 . S
O2436 C2424 1.232 . S
H2437 C2456 0.929 . S
H2438 C2457 0.929 . S
H2439 C2469 0.931 . S
H2440 C2461 0.929 . S
H2441 C2470 0.930 . S
H2442 C2462 0.931 . S
O2443 Co2419 2.097 . S
O2443 C2471 1.214 . S
H2444 C2472 0.929 . S
H2445 C2473 0.929 . S
H2446 C2474 0.930 . S
H2447 C2475 0.929 . S
H2448 C2477 0.930 . S
H2449 C2454 0.930 . S
H2450 C2458 0.930 . S
O2451 Co2420 2.037 . S
O2451 C2471 1.234 . S
C2452 O2426 1.269 . S
C2452 O2427 1.257 . S
C2453 H2428 0.930 . S
C2453 C2456 1.388 . S
C2453 C2458 1.418 . S
C2454 H2449 0.930 . S
C2454 C2457 1.404 . S
C2454 C2458 1.353 . S
N2455 Co2420 2.145 . S
N2455 C2456 1.397 . S
N2455 C2457 1.334 . S
C2456 H2437 0.929 . S
C2456 C2453 1.388 . S
C2456 N2455 1.397 . S
C2457 H2438 0.929 . S
C2457 C2454 1.404 . S
C2457 N2455 1.334 . S
C2458 H2450 0.930 . S
C2458 C2453 1.418 . S
C2458 C2454 1.353 . S
C2459 H2429 0.930 . S
C2459 N2460 1.330 . S
C2459 C2461 1.446 . S
N2460 Co2419 2.151 . S
N2460 C2459 1.330 . S
N2460 C2464 1.418 . S
C2461 H2440 0.929 . S
C2461 C2459 1.446 . S
C2461 C2462 1.332 . S
C2462 H2442 0.931 . S
C2462 C2461 1.332 . S
C2462 C2463 1.267 . S
C2463 H2431 0.929 . S
C2463 C2462 1.267 . S
C2463 C2464 1.251 . S
C2464 H2434 0.929 . S
C2464 N2460 1.418 . S
C2464 C2463 1.251 . S
C2465 H2432 0.930 . S
C2465 C2467 1.406 . S
C2465 C2470 1.261 . S
C2466 H2433 0.930 . S
C2466 N2468 1.325 . S
C2466 C2469 1.357 . S
C2467 H2435 0.928 . S
C2467 C2465 1.406 . S
C2467 N2468 1.261 . S
N2468 Co2419 2.214 . S
N2468 C2466 1.325 . S
N2468 C2467 1.261 . S
C2469 H2439 0.931 . S
C2469 C2466 1.357 . S
C2469 C2470 1.312 . S
C2470 H2441 0.930 . S
C2470 C2465 1.261 . S
C2470 C2469 1.312 . S
C2471 O2443 1.214 . S
C2471 O2451 1.234 . S
C2472 H2444 0.929 . S
C2472 C2475 1.391 . S
C2472 C2477 1.391 . S
C2473 H2445 0.929 . S
C2473 C2474 1.390 . S
C2473 N2476 1.391 . S
C2474 H2446 0.930 . S
C2474 C2473 1.390 . S
C2474 C2475 1.392 . S
C2475 H2447 0.929 . S
C2475 C2472 1.391 . S
C2475 C2474 1.392 . S
N2476 Co2420 2.257 . S
N2476 C2473 1.391 . S
N2476 C2477 1.388 . S
C2477 H2448 0.930 . S
C2477 C2472 1.391 . S
C2477 N2476 1.388 . S
Co2478 O2480 2.143 . S
Co2478 O2486 2.074 . S
Co2478 O2489 2.093 . S
Co2478 O2502 2.097 . S
Co2478 N2519 2.151 . S
Co2478 N2527 2.214 . S
Co2479 O2480 2.160 . S
Co2479 O2485 2.058 . S
Co2479 O2495 2.057 . S
Co2479 O2510 2.037 . S
Co2479 N2514 2.145 . S
Co2479 N2535 2.257 . S
O2480 Co2478 2.143 . S
O2480 Co2479 2.160 . S
C2481 O2482 1.278 . S
C2481 O2489 1.224 . S
O2482 C2481 1.278 . S
C2483 O2484 1.245 . S
C2483 O2495 1.232 . S
O2484 C2483 1.245 . S
O2485 Co2479 2.058 . S
O2485 C2511 1.269 . S
O2486 Co2478 2.074 . S
O2486 C2511 1.257 . S
H2487 C2512 0.930 . S
H2488 C2518 0.930 . S
O2489 Co2478 2.093 . S
O2489 C2481 1.224 . S
H2490 C2522 0.929 . S
H2491 C2524 0.930 . S
H2492 C2525 0.930 . S
H2493 C2523 0.929 . S
H2494 C2526 0.928 . S
O2495 Co2479 2.057 . S
O2495 C2483 1.232 . S
H2496 C2515 0.929 . S
H2497 C2516 0.929 . S
H2498 C2528 0.931 . S
H2499 C2520 0.929 . S
H2500 C2529 0.930 . S
H2501 C2521 0.931 . S
O2502 Co2478 2.097 . S
O2502 C2530 1.214 . S
H2503 C2531 0.929 . S
H2504 C2532 0.929 . S
H2505 C2533 0.930 . S
H2506 C2534 0.929 . S
H2507 C2536 0.930 . S
H2508 C2513 0.930 . S
H2509 C2517 0.930 . S
O2510 Co2479 2.037 . S
O2510 C2530 1.234 . S
C2511 O2485 1.269 . S
C2511 O2486 1.257 . S
C2512 H2487 0.930 . S
C2512 C2515 1.388 . S
C2512 C2517 1.418 . S
C2513 H2508 0.930 . S
C2513 C2516 1.404 . S
C2513 C2517 1.353 . S
N2514 Co2479 2.145 . S
N2514 C2515 1.397 . S
N2514 C2516 1.334 . S
C2515 H2496 0.929 . S
C2515 C2512 1.388 . S
C2515 N2514 1.397 . S
C2516 H2497 0.929 . S
C2516 C2513 1.404 . S
C2516 N2514 1.334 . S
C2517 H2509 0.930 . S
C2517 C2512 1.418 . S
C2517 C2513 1.353 . S
C2518 H2488 0.930 . S
C2518 N2519 1.330 . S
C2518 C2520 1.446 . S
N2519 Co2478 2.151 . S
N2519 C2518 1.330 . S
N2519 C2523 1.418 . S
C2520 H2499 0.929 . S
C2520 C2518 1.446 . S
C2520 C2521 1.332 . S
C2521 H2501 0.931 . S
C2521 C2520 1.332 . S
C2521 C2522 1.267 . S
C2522 H2490 0.929 . S
C2522 C2521 1.267 . S
C2522 C2523 1.251 . S
C2523 H2493 0.929 . S
C2523 N2519 1.418 . S
C2523 C2522 1.251 . S
C2524 H2491 0.930 . S
C2524 C2526 1.406 . S
C2524 C2529 1.261 . S
C2525 H2492 0.930 . S
C2525 N2527 1.325 . S
C2525 C2528 1.357 . S
C2526 H2494 0.928 . S
C2526 C2524 1.406 . S
C2526 N2527 1.261 . S
N2527 Co2478 2.214 . S
N2527 C2525 1.325 . S
N2527 C2526 1.261 . S
C2528 H2498 0.931 . S
C2528 C2525 1.357 . S
C2528 C2529 1.312 . S
C2529 H2500 0.930 . S
C2529 C2524 1.261 . S
C2529 C2528 1.312 . S
C2530 O2502 1.214 . S
C2530 O2510 1.234 . S
C2531 H2503 0.929 . S
C2531 C2534 1.391 . S
C2531 C2536 1.391 . S
C2532 H2504 0.929 . S
C2532 C2533 1.390 . S
C2532 N2535 1.391 . S
C2533 H2505 0.930 . S
C2533 C2532 1.390 . S
C2533 C2534 1.392 . S
C2534 H2506 0.929 . S
C2534 C2531 1.391 . S
C2534 C2533 1.392 . S
N2535 Co2479 2.257 . S
N2535 C2532 1.391 . S
N2535 C2536 1.388 . S
C2536 H2507 0.930 . S
C2536 C2531 1.391 . S
C2536 N2535 1.388 . S
Co2537 O2539 2.143 . S
Co2537 O2545 2.074 . S
Co2537 O2548 2.093 . S
Co2537 O2561 2.097 . S
Co2537 N2578 2.151 . S
Co2537 N2586 2.214 . S
Co2538 O2539 2.160 . S
Co2538 O2544 2.058 . S
Co2538 O2554 2.057 . S
Co2538 O2569 2.037 . S
Co2538 N2573 2.145 . S
Co2538 N2594 2.257 . S
O2539 Co2537 2.143 . S
O2539 Co2538 2.160 . S
C2540 O2541 1.278 . S
C2540 O2548 1.224 . S
O2541 C2540 1.278 . S
C2542 O2543 1.245 . S
C2542 O2554 1.232 . S
O2543 C2542 1.245 . S
O2544 Co2538 2.058 . S
O2544 C2570 1.269 . S
O2545 Co2537 2.074 . S
O2545 C2570 1.257 . S
H2546 C2571 0.930 . S
H2547 C2577 0.930 . S
O2548 Co2537 2.093 . S
O2548 C2540 1.224 . S
H2549 C2581 0.929 . S
H2550 C2583 0.930 . S
H2551 C2584 0.930 . S
H2552 C2582 0.929 . S
H2553 C2585 0.928 . S
O2554 Co2538 2.057 . S
O2554 C2542 1.232 . S
H2555 C2574 0.929 . S
H2556 C2575 0.929 . S
H2557 C2587 0.931 . S
H2558 C2579 0.929 . S
H2559 C2588 0.930 . S
H2560 C2580 0.931 . S
O2561 Co2537 2.097 . S
O2561 C2589 1.214 . S
H2562 C2590 0.929 . S
H2563 C2591 0.929 . S
H2564 C2592 0.930 . S
H2565 C2593 0.929 . S
H2566 C2595 0.930 . S
H2567 C2572 0.930 . S
H2568 C2576 0.930 . S
O2569 Co2538 2.037 . S
O2569 C2589 1.234 . S
C2570 O2544 1.269 . S
C2570 O2545 1.257 . S
C2571 H2546 0.930 . S
C2571 C2574 1.388 . S
C2571 C2576 1.418 . S
C2572 H2567 0.930 . S
C2572 C2575 1.404 . S
C2572 C2576 1.353 . S
N2573 Co2538 2.145 . S
N2573 C2574 1.397 . S
N2573 C2575 1.334 . S
C2574 H2555 0.929 . S
C2574 C2571 1.388 . S
C2574 N2573 1.397 . S
C2575 H2556 0.929 . S
C2575 C2572 1.404 . S
C2575 N2573 1.334 . S
C2576 H2568 0.930 . S
C2576 C2571 1.418 . S
C2576 C2572 1.353 . S
C2577 H2547 0.930 . S
C2577 N2578 1.330 . S
C2577 C2579 1.446 . S
N2578 Co2537 2.151 . S
N2578 C2577 1.330 . S
N2578 C2582 1.418 . S
C2579 H2558 0.929 . S
C2579 C2577 1.446 . S
C2579 C2580 1.332 . S
C2580 H2560 0.931 . S
C2580 C2579 1.332 . S
C2580 C2581 1.267 . S
C2581 H2549 0.929 . S
C2581 C2580 1.267 . S
C2581 C2582 1.251 . S
C2582 H2552 0.929 . S
C2582 N2578 1.418 . S
C2582 C2581 1.251 . S
C2583 H2550 0.930 . S
C2583 C2585 1.406 . S
C2583 C2588 1.261 . S
C2584 H2551 0.930 . S
C2584 N2586 1.325 . S
C2584 C2587 1.357 . S
C2585 H2553 0.928 . S
C2585 C2583 1.406 . S
C2585 N2586 1.261 . S
N2586 Co2537 2.214 . S
N2586 C2584 1.325 . S
N2586 C2585 1.261 . S
C2587 H2557 0.931 . S
C2587 C2584 1.357 . S
C2587 C2588 1.312 . S
C2588 H2559 0.930 . S
C2588 C2583 1.261 . S
C2588 C2587 1.312 . S
C2589 O2561 1.214 . S
C2589 O2569 1.234 . S
C2590 H2562 0.929 . S
C2590 C2593 1.391 . S
C2590 C2595 1.391 . S
C2591 H2563 0.929 . S
C2591 C2592 1.390 . S
C2591 N2594 1.391 . S
C2592 H2564 0.930 . S
C2592 C2591 1.390 . S
C2592 C2593 1.392 . S
C2593 H2565 0.929 . S
C2593 C2590 1.391 . S
C2593 C2592 1.392 . S
N2594 Co2538 2.257 . S
N2594 C2591 1.391 . S
N2594 C2595 1.388 . S
C2595 H2566 0.930 . S
C2595 C2590 1.391 . S
C2595 N2594 1.388 . S
Co2596 O2598 2.143 . S
Co2596 O2604 2.074 . S
Co2596 O2607 2.093 . S
Co2596 O2620 2.097 . S
Co2596 N2637 2.151 . S
Co2596 N2645 2.214 . S
Co2597 O2598 2.160 . S
Co2597 O2603 2.058 . S
Co2597 O2613 2.057 . S
Co2597 O2628 2.037 . S
Co2597 N2632 2.145 . S
Co2597 N2653 2.257 . S
O2598 Co2596 2.143 . S
O2598 Co2597 2.160 . S
C2599 O2600 1.278 . S
C2599 O2607 1.224 . S
O2600 C2599 1.278 . S
C2601 O2602 1.245 . S
C2601 O2613 1.232 . S
O2602 C2601 1.245 . S
O2603 Co2597 2.058 . S
O2603 C2629 1.269 . S
O2604 Co2596 2.074 . S
O2604 C2629 1.257 . S
H2605 C2630 0.930 . S
H2606 C2636 0.930 . S
O2607 Co2596 2.093 . S
O2607 C2599 1.224 . S
H2608 C2640 0.929 . S
H2609 C2642 0.930 . S
H2610 C2643 0.930 . S
H2611 C2641 0.929 . S
H2612 C2644 0.928 . S
O2613 Co2597 2.057 . S
O2613 C2601 1.232 . S
H2614 C2633 0.929 . S
H2615 C2634 0.929 . S
H2616 C2646 0.931 . S
H2617 C2638 0.929 . S
H2618 C2647 0.930 . S
H2619 C2639 0.931 . S
O2620 Co2596 2.097 . S
O2620 C2648 1.214 . S
H2621 C2649 0.929 . S
H2622 C2650 0.929 . S
H2623 C2651 0.930 . S
H2624 C2652 0.929 . S
H2625 C2654 0.930 . S
H2626 C2631 0.930 . S
H2627 C2635 0.930 . S
O2628 Co2597 2.037 . S
O2628 C2648 1.234 . S
C2629 O2603 1.269 . S
C2629 O2604 1.257 . S
C2630 H2605 0.930 . S
C2630 C2633 1.388 . S
C2630 C2635 1.418 . S
C2631 H2626 0.930 . S
C2631 C2634 1.404 . S
C2631 C2635 1.353 . S
N2632 Co2597 2.145 . S
N2632 C2633 1.397 . S
N2632 C2634 1.334 . S
C2633 H2614 0.929 . S
C2633 C2630 1.388 . S
C2633 N2632 1.397 . S
C2634 H2615 0.929 . S
C2634 C2631 1.404 . S
C2634 N2632 1.334 . S
C2635 H2627 0.930 . S
C2635 C2630 1.418 . S
C2635 C2631 1.353 . S
C2636 H2606 0.930 . S
C2636 N2637 1.330 . S
C2636 C2638 1.446 . S
N2637 Co2596 2.151 . S
N2637 C2636 1.330 . S
N2637 C2641 1.418 . S
C2638 H2617 0.929 . S
C2638 C2636 1.446 . S
C2638 C2639 1.332 . S
C2639 H2619 0.931 . S
C2639 C2638 1.332 . S
C2639 C2640 1.267 . S
C2640 H2608 0.929 . S
C2640 C2639 1.267 . S
C2640 C2641 1.251 . S
C2641 H2611 0.929 . S
C2641 N2637 1.418 . S
C2641 C2640 1.251 . S
C2642 H2609 0.930 . S
C2642 C2644 1.406 . S
C2642 C2647 1.261 . S
C2643 H2610 0.930 . S
C2643 N2645 1.325 . S
C2643 C2646 1.357 . S
C2644 H2612 0.928 . S
C2644 C2642 1.406 . S
C2644 N2645 1.261 . S
N2645 Co2596 2.214 . S
N2645 C2643 1.325 . S
N2645 C2644 1.261 . S
C2646 H2616 0.931 . S
C2646 C2643 1.357 . S
C2646 C2647 1.312 . S
C2647 H2618 0.930 . S
C2647 C2642 1.261 . S
C2647 C2646 1.312 . S
C2648 O2620 1.214 . S
C2648 O2628 1.234 . S
C2649 H2621 0.929 . S
C2649 C2652 1.391 . S
C2649 C2654 1.391 . S
C2650 H2622 0.929 . S
C2650 C2651 1.390 . S
C2650 N2653 1.391 . S
C2651 H2623 0.930 . S
C2651 C2650 1.390 . S
C2651 C2652 1.392 . S
C2652 H2624 0.929 . S
C2652 C2649 1.391 . S
C2652 C2651 1.392 . S
N2653 Co2597 2.257 . S
N2653 C2650 1.391 . S
N2653 C2654 1.388 . S
C2654 H2625 0.930 . S
C2654 C2649 1.391 . S
C2654 N2653 1.388 . S
Co2655 O2657 2.143 . S
Co2655 O2663 2.074 . S
Co2655 O2666 2.093 . S
Co2655 O2679 2.097 . S
Co2655 N2696 2.151 . S
Co2655 N2704 2.214 . S
Co2656 O2657 2.160 . S
Co2656 O2662 2.058 . S
Co2656 O2672 2.057 . S
Co2656 O2687 2.037 . S
Co2656 N2691 2.145 . S
Co2656 N2712 2.257 . S
O2657 Co2655 2.143 . S
O2657 Co2656 2.160 . S
C2658 O2659 1.278 . S
C2658 O2666 1.224 . S
O2659 C2658 1.278 . S
C2660 O2661 1.245 . S
C2660 O2672 1.232 . S
O2661 C2660 1.245 . S
O2662 Co2656 2.058 . S
O2662 C2688 1.269 . S
O2663 Co2655 2.074 . S
O2663 C2688 1.257 . S
H2664 C2689 0.930 . S
H2665 C2695 0.930 . S
O2666 Co2655 2.093 . S
O2666 C2658 1.224 . S
H2667 C2699 0.929 . S
H2668 C2701 0.930 . S
H2669 C2702 0.930 . S
H2670 C2700 0.929 . S
H2671 C2703 0.928 . S
O2672 Co2656 2.057 . S
O2672 C2660 1.232 . S
H2673 C2692 0.929 . S
H2674 C2693 0.929 . S
H2675 C2705 0.931 . S
H2676 C2697 0.929 . S
H2677 C2706 0.930 . S
H2678 C2698 0.931 . S
O2679 Co2655 2.097 . S
O2679 C2707 1.214 . S
H2680 C2708 0.929 . S
H2681 C2709 0.929 . S
H2682 C2710 0.930 . S
H2683 C2711 0.929 . S
H2684 C2713 0.930 . S
H2685 C2690 0.930 . S
H2686 C2694 0.930 . S
O2687 Co2656 2.037 . S
O2687 C2707 1.234 . S
C2688 O2662 1.269 . S
C2688 O2663 1.257 . S
C2689 H2664 0.930 . S
C2689 C2692 1.388 . S
C2689 C2694 1.418 . S
C2690 H2685 0.930 . S
C2690 C2693 1.404 . S
C2690 C2694 1.353 . S
N2691 Co2656 2.145 . S
N2691 C2692 1.397 . S
N2691 C2693 1.334 . S
C2692 H2673 0.929 . S
C2692 C2689 1.388 . S
C2692 N2691 1.397 . S
C2693 H2674 0.929 . S
C2693 C2690 1.404 . S
C2693 N2691 1.334 . S
C2694 H2686 0.930 . S
C2694 C2689 1.418 . S
C2694 C2690 1.353 . S
C2695 H2665 0.930 . S
C2695 N2696 1.330 . S
C2695 C2697 1.446 . S
N2696 Co2655 2.151 . S
N2696 C2695 1.330 . S
N2696 C2700 1.418 . S
C2697 H2676 0.929 . S
C2697 C2695 1.446 . S
C2697 C2698 1.332 . S
C2698 H2678 0.931 . S
C2698 C2697 1.332 . S
C2698 C2699 1.267 . S
C2699 H2667 0.929 . S
C2699 C2698 1.267 . S
C2699 C2700 1.251 . S
C2700 H2670 0.929 . S
C2700 N2696 1.418 . S
C2700 C2699 1.251 . S
C2701 H2668 0.930 . S
C2701 C2703 1.406 . S
C2701 C2706 1.261 . S
C2702 H2669 0.930 . S
C2702 N2704 1.325 . S
C2702 C2705 1.357 . S
C2703 H2671 0.928 . S
C2703 C2701 1.406 . S
C2703 N2704 1.261 . S
N2704 Co2655 2.214 . S
N2704 C2702 1.325 . S
N2704 C2703 1.261 . S
C2705 H2675 0.931 . S
C2705 C2702 1.357 . S
C2705 C2706 1.312 . S
C2706 H2677 0.930 . S
C2706 C2701 1.261 . S
C2706 C2705 1.312 . S
C2707 O2679 1.214 . S
C2707 O2687 1.234 . S
C2708 H2680 0.929 . S
C2708 C2711 1.391 . S
C2708 C2713 1.391 . S
C2709 H2681 0.929 . S
C2709 C2710 1.390 . S
C2709 N2712 1.391 . S
C2710 H2682 0.930 . S
C2710 C2709 1.390 . S
C2710 C2711 1.392 . S
C2711 H2683 0.929 . S
C2711 C2708 1.391 . S
C2711 C2710 1.392 . S
N2712 Co2656 2.257 . S
N2712 C2709 1.391 . S
N2712 C2713 1.388 . S
C2713 H2684 0.930 . S
C2713 C2708 1.391 . S
C2713 N2712 1.388 . S
Co2714 O2716 2.143 . S
Co2714 O2722 2.074 . S
Co2714 O2725 2.093 . S
Co2714 O2738 2.097 . S
Co2714 N2755 2.151 . S
Co2714 N2763 2.214 . S
Co2715 O2716 2.160 . S
Co2715 O2721 2.058 . S
Co2715 O2731 2.057 . S
Co2715 O2746 2.037 . S
Co2715 N2750 2.145 . S
Co2715 N2771 2.257 . S
O2716 Co2714 2.143 . S
O2716 Co2715 2.160 . S
C2717 O2718 1.278 . S
C2717 O2725 1.224 . S
O2718 C2717 1.278 . S
C2719 O2720 1.245 . S
C2719 O2731 1.232 . S
O2720 C2719 1.245 . S
O2721 Co2715 2.058 . S
O2721 C2747 1.269 . S
O2722 Co2714 2.074 . S
O2722 C2747 1.257 . S
H2723 C2748 0.930 . S
H2724 C2754 0.930 . S
O2725 Co2714 2.093 . S
O2725 C2717 1.224 . S
H2726 C2758 0.929 . S
H2727 C2760 0.930 . S
H2728 C2761 0.930 . S
H2729 C2759 0.929 . S
H2730 C2762 0.928 . S
O2731 Co2715 2.057 . S
O2731 C2719 1.232 . S
H2732 C2751 0.929 . S
H2733 C2752 0.929 . S
H2734 C2764 0.931 . S
H2735 C2756 0.929 . S
H2736 C2765 0.930 . S
H2737 C2757 0.931 . S
O2738 Co2714 2.097 . S
O2738 C2766 1.214 . S
H2739 C2767 0.929 . S
H2740 C2768 0.929 . S
H2741 C2769 0.930 . S
H2742 C2770 0.929 . S
H2743 C2772 0.930 . S
H2744 C2749 0.930 . S
H2745 C2753 0.930 . S
O2746 Co2715 2.037 . S
O2746 C2766 1.234 . S
C2747 O2721 1.269 . S
C2747 O2722 1.257 . S
C2748 H2723 0.930 . S
C2748 C2751 1.388 . S
C2748 C2753 1.418 . S
C2749 H2744 0.930 . S
C2749 C2752 1.404 . S
C2749 C2753 1.353 . S
N2750 Co2715 2.145 . S
N2750 C2751 1.397 . S
N2750 C2752 1.334 . S
C2751 H2732 0.929 . S
C2751 C2748 1.388 . S
C2751 N2750 1.397 . S
C2752 H2733 0.929 . S
C2752 C2749 1.404 . S
C2752 N2750 1.334 . S
C2753 H2745 0.930 . S
C2753 C2748 1.418 . S
C2753 C2749 1.353 . S
C2754 H2724 0.930 . S
C2754 N2755 1.330 . S
C2754 C2756 1.446 . S
N2755 Co2714 2.151 . S
N2755 C2754 1.330 . S
N2755 C2759 1.418 . S
C2756 H2735 0.929 . S
C2756 C2754 1.446 . S
C2756 C2757 1.332 . S
C2757 H2737 0.931 . S
C2757 C2756 1.332 . S
C2757 C2758 1.267 . S
C2758 H2726 0.929 . S
C2758 C2757 1.267 . S
C2758 C2759 1.251 . S
C2759 H2729 0.929 . S
C2759 N2755 1.418 . S
C2759 C2758 1.251 . S
C2760 H2727 0.930 . S
C2760 C2762 1.406 . S
C2760 C2765 1.261 . S
C2761 H2728 0.930 . S
C2761 N2763 1.325 . S
C2761 C2764 1.357 . S
C2762 H2730 0.928 . S
C2762 C2760 1.406 . S
C2762 N2763 1.261 . S
N2763 Co2714 2.214 . S
N2763 C2761 1.325 . S
N2763 C2762 1.261 . S
C2764 H2734 0.931 . S
C2764 C2761 1.357 . S
C2764 C2765 1.312 . S
C2765 H2736 0.930 . S
C2765 C2760 1.261 . S
C2765 C2764 1.312 . S
C2766 O2738 1.214 . S
C2766 O2746 1.234 . S
C2767 H2739 0.929 . S
C2767 C2770 1.391 . S
C2767 C2772 1.391 . S
C2768 H2740 0.929 . S
C2768 C2769 1.390 . S
C2768 N2771 1.391 . S
C2769 H2741 0.930 . S
C2769 C2768 1.390 . S
C2769 C2770 1.392 . S
C2770 H2742 0.929 . S
C2770 C2767 1.391 . S
C2770 C2769 1.392 . S
N2771 Co2715 2.257 . S
N2771 C2768 1.391 . S
N2771 C2772 1.388 . S
C2772 H2743 0.930 . S
C2772 C2767 1.391 . S
C2772 N2771 1.388 . S
Co2773 O2775 2.143 . S
Co2773 O2781 2.074 . S
Co2773 O2784 2.093 . S
Co2773 O2797 2.097 . S
Co2773 N2814 2.151 . S
Co2773 N2822 2.214 . S
Co2774 O2775 2.160 . S
Co2774 O2780 2.058 . S
Co2774 O2790 2.057 . S
Co2774 O2805 2.037 . S
Co2774 N2809 2.145 . S
Co2774 N2830 2.257 . S
O2775 Co2773 2.143 . S
O2775 Co2774 2.160 . S
C2776 O2777 1.278 . S
C2776 O2784 1.224 . S
O2777 C2776 1.278 . S
C2778 O2779 1.245 . S
C2778 O2790 1.232 . S
O2779 C2778 1.245 . S
O2780 Co2774 2.058 . S
O2780 C2806 1.269 . S
O2781 Co2773 2.074 . S
O2781 C2806 1.257 . S
H2782 C2807 0.930 . S
H2783 C2813 0.930 . S
O2784 Co2773 2.093 . S
O2784 C2776 1.224 . S
H2785 C2817 0.929 . S
H2786 C2819 0.930 . S
H2787 C2820 0.930 . S
H2788 C2818 0.929 . S
H2789 C2821 0.928 . S
O2790 Co2774 2.057 . S
O2790 C2778 1.232 . S
H2791 C2810 0.929 . S
H2792 C2811 0.929 . S
H2793 C2823 0.931 . S
H2794 C2815 0.929 . S
H2795 C2824 0.930 . S
H2796 C2816 0.931 . S
O2797 Co2773 2.097 . S
O2797 C2825 1.214 . S
H2798 C2826 0.929 . S
H2799 C2827 0.929 . S
H2800 C2828 0.930 . S
H2801 C2829 0.929 . S
H2802 C2831 0.930 . S
H2803 C2808 0.930 . S
H2804 C2812 0.930 . S
O2805 Co2774 2.037 . S
O2805 C2825 1.234 . S
C2806 O2780 1.269 . S
C2806 O2781 1.257 . S
C2807 H2782 0.930 . S
C2807 C2810 1.388 . S
C2807 C2812 1.418 . S
C2808 H2803 0.930 . S
C2808 C2811 1.404 . S
C2808 C2812 1.353 . S
N2809 Co2774 2.145 . S
N2809 C2810 1.397 . S
N2809 C2811 1.334 . S
C2810 H2791 0.929 . S
C2810 C2807 1.388 . S
C2810 N2809 1.397 . S
C2811 H2792 0.929 . S
C2811 C2808 1.404 . S
C2811 N2809 1.334 . S
C2812 H2804 0.930 . S
C2812 C2807 1.418 . S
C2812 C2808 1.353 . S
C2813 H2783 0.930 . S
C2813 N2814 1.330 . S
C2813 C2815 1.446 . S
N2814 Co2773 2.151 . S
N2814 C2813 1.330 . S
N2814 C2818 1.418 . S
C2815 H2794 0.929 . S
C2815 C2813 1.446 . S
C2815 C2816 1.332 . S
C2816 H2796 0.931 . S
C2816 C2815 1.332 . S
C2816 C2817 1.267 . S
C2817 H2785 0.929 . S
C2817 C2816 1.267 . S
C2817 C2818 1.251 . S
C2818 H2788 0.929 . S
C2818 N2814 1.418 . S
C2818 C2817 1.251 . S
C2819 H2786 0.930 . S
C2819 C2821 1.406 . S
C2819 C2824 1.261 . S
C2820 H2787 0.930 . S
C2820 N2822 1.325 . S
C2820 C2823 1.357 . S
C2821 H2789 0.928 . S
C2821 C2819 1.406 . S
C2821 N2822 1.261 . S
N2822 Co2773 2.214 . S
N2822 C2820 1.325 . S
N2822 C2821 1.261 . S
C2823 H2793 0.931 . S
C2823 C2820 1.357 . S
C2823 C2824 1.312 . S
C2824 H2795 0.930 . S
C2824 C2819 1.261 . S
C2824 C2823 1.312 . S
C2825 O2797 1.214 . S
C2825 O2805 1.234 . S
C2826 H2798 0.929 . S
C2826 C2829 1.391 . S
C2826 C2831 1.391 . S
C2827 H2799 0.929 . S
C2827 C2828 1.390 . S
C2827 N2830 1.391 . S
C2828 H2800 0.930 . S
C2828 C2827 1.390 . S
C2828 C2829 1.392 . S
C2829 H2801 0.929 . S
C2829 C2826 1.391 . S
C2829 C2828 1.392 . S
N2830 Co2774 2.257 . S
N2830 C2827 1.391 . S
N2830 C2831 1.388 . S
C2831 H2802 0.930 . S
C2831 C2826 1.391 . S
C2831 N2830 1.388 . S
H2832 C2850 0.951 . S
H2833 C2852 0.951 . S
H2834 C2854 0.950 . S
H2835 C2855 0.950 . S
H2836 C2857 0.950 . S
H2837 C2860 0.950 . S
H2838 C2861 0.950 . S
H2839 C2863 0.950 . S
H2840 C2864 0.950 . S
H2841 C2865 0.951 . S
H2842 C2867 0.951 . S
H2843 C2869 0.950 . S
H2844 C2870 0.950 . S
H2845 C2872 0.950 . S
H2846 C2875 0.950 . S
H2847 C2876 0.950 . S
H2848 C2878 0.950 . S
H2849 C2879 0.950 . S
C2850 H2832 0.951 . S
C2850 C2851 1.366 . S
C2850 C2852 1.388 . S
C2851 C2850 1.366 . S
C2851 C2855 1.385 . S
C2852 H2833 0.951 . S
C2852 C2850 1.388 . S
C2852 C2853 1.366 . S
C2853 C2852 1.366 . S
C2853 C2854 1.414 . S
C2853 C2856 1.499 . S
C2854 H2834 0.950 . S
C2854 C2853 1.414 . S
C2854 C2855 1.374 . S
C2855 H2835 0.950 . S
C2855 C2851 1.385 . S
C2855 C2854 1.374 . S
C2856 C2853 1.499 . S
C2856 C2857 1.373 . S
C2856 C2858 1.389 . S
C2857 H2836 0.950 . S
C2857 C2856 1.373 . S
C2857 C2873 1.377 . S
C2858 C2856 1.389 . S
C2858 C2859 1.524 . S
C2858 C2872 1.377 . S
C2859 C2858 1.524 . S
C2859 C2860 1.397 . S
C2859 C2864 1.363 . S
C2860 H2837 0.950 . S
C2860 C2859 1.397 . S
C2860 C2861 1.334 . S
C2861 H2838 0.950 . S
C2861 C2860 1.334 . S
C2861 C2862 1.287 . S
C2862 C2861 1.287 . S
C2862 C2863 1.524 . S
C2862 H2881 0.913 . S
C2863 H2839 0.950 . S
C2863 C2862 1.524 . S
C2863 C2864 1.415 . S
C2864 H2840 0.950 . S
C2864 C2859 1.363 . S
C2864 C2863 1.415 . S
C2865 H2841 0.951 . S
C2865 C2866 1.366 . S
C2865 C2867 1.388 . S
C2866 C2865 1.366 . S
C2866 C2870 1.385 . S
C2867 H2842 0.951 . S
C2867 C2865 1.388 . S
C2867 C2868 1.366 . S
C2868 C2867 1.366 . S
C2868 C2869 1.414 . S
C2868 C2871 1.499 . S
C2869 H2843 0.950 . S
C2869 C2868 1.414 . S
C2869 C2870 1.374 . S
C2870 H2844 0.950 . S
C2870 C2866 1.385 . S
C2870 C2869 1.374 . S
C2871 C2868 1.499 . S
C2871 C2872 1.373 . S
C2871 C2873 1.389 . S
C2872 H2845 0.950 . S
C2872 C2858 1.377 . S
C2872 C2871 1.373 . S
C2873 C2857 1.377 . S
C2873 C2871 1.389 . S
C2873 C2874 1.524 . S
C2874 C2873 1.524 . S
C2874 C2875 1.397 . S
C2874 C2879 1.363 . S
C2875 H2846 0.950 . S
C2875 C2874 1.397 . S
C2875 C2876 1.334 . S
C2876 H2847 0.950 . S
C2876 C2875 1.334 . S
C2876 C2877 1.287 . S
C2877 C2876 1.287 . S
C2877 C2878 1.524 . S
C2877 H2880 0.999 . S
C2878 H2848 0.950 . S
C2878 C2877 1.524 . S
C2878 C2879 1.415 . S
C2879 H2849 0.950 . S
C2879 C2874 1.363 . S
C2879 C2878 1.415 . S
H2880 C2877 0.999 . S
H2881 C2862 0.913 . S
H2882 C2900 0.951 . S
H2883 C2902 0.951 . S
H2884 C2904 0.950 . S
H2885 C2905 0.950 . S
H2886 C2907 0.950 . S
H2887 C2910 0.950 . S
H2888 C2911 0.950 . S
H2889 C2913 0.950 . S
H2890 C2914 0.950 . S
H2891 C2915 0.951 . S
H2892 C2917 0.951 . S
H2893 C2919 0.950 . S
H2894 C2920 0.950 . S
H2895 C2922 0.950 . S
H2896 C2925 0.950 . S
H2897 C2926 0.950 . S
H2898 C2928 0.950 . S
H2899 C2929 0.950 . S
C2900 H2882 0.951 . S
C2900 C2901 1.366 . S
C2900 C2902 1.388 . S
C2901 C2900 1.366 . S
C2901 C2905 1.385 . S
C2902 H2883 0.951 . S
C2902 C2900 1.388 . S
C2902 C2903 1.366 . S
C2903 C2902 1.366 . S
C2903 C2904 1.414 . S
C2903 C2906 1.499 . S
C2904 H2884 0.950 . S
C2904 C2903 1.414 . S
C2904 C2905 1.374 . S
C2905 H2885 0.950 . S
C2905 C2901 1.385 . S
C2905 C2904 1.374 . S
C2906 C2903 1.499 . S
C2906 C2907 1.373 . S
C2906 C2908 1.389 . S
C2907 H2886 0.950 . S
C2907 C2906 1.373 . S
C2907 C2923 1.377 . S
C2908 C2906 1.389 . S
C2908 C2909 1.524 . S
C2908 C2922 1.377 . S
C2909 C2908 1.524 . S
C2909 C2910 1.397 . S
C2909 C2914 1.363 . S
C2910 H2887 0.950 . S
C2910 C2909 1.397 . S
C2910 C2911 1.334 . S
C2911 H2888 0.950 . S
C2911 C2910 1.334 . S
C2911 C2912 1.287 . S
C2912 C2911 1.287 . S
C2912 C2913 1.524 . S
C2912 H2931 0.913 . S
C2913 H2889 0.950 . S
C2913 C2912 1.524 . S
C2913 C2914 1.415 . S
C2914 H2890 0.950 . S
C2914 C2909 1.363 . S
C2914 C2913 1.415 . S
C2915 H2891 0.951 . S
C2915 C2916 1.366 . S
C2915 C2917 1.388 . S
C2916 C2915 1.366 . S
C2916 C2920 1.385 . S
C2917 H2892 0.951 . S
C2917 C2915 1.388 . S
C2917 C2918 1.366 . S
C2918 C2917 1.366 . S
C2918 C2919 1.414 . S
C2918 C2921 1.499 . S
C2919 H2893 0.950 . S
C2919 C2918 1.414 . S
C2919 C2920 1.374 . S
C2920 H2894 0.950 . S
C2920 C2916 1.385 . S
C2920 C2919 1.374 . S
C2921 C2918 1.499 . S
C2921 C2922 1.373 . S
C2921 C2923 1.389 . S
C2922 H2895 0.950 . S
C2922 C2908 1.377 . S
C2922 C2921 1.373 . S
C2923 C2907 1.377 . S
C2923 C2921 1.389 . S
C2923 C2924 1.524 . S
C2924 C2923 1.524 . S
C2924 C2925 1.397 . S
C2924 C2929 1.363 . S
C2925 H2896 0.950 . S
C2925 C2924 1.397 . S
C2925 C2926 1.334 . S
C2926 H2897 0.950 . S
C2926 C2925 1.334 . S
C2926 C2927 1.287 . S
C2927 C2926 1.287 . S
C2927 C2928 1.524 . S
C2927 H2930 0.999 . S
C2928 H2898 0.950 . S
C2928 C2927 1.524 . S
C2928 C2929 1.415 . S
C2929 H2899 0.950 . S
C2929 C2924 1.363 . S
C2929 C2928 1.415 . S
H2930 C2927 0.999 . S
H2931 C2912 0.913 . S
H2932 C2950 0.951 . S
H2933 C2952 0.951 . S
H2934 C2954 0.950 . S
H2935 C2955 0.950 . S
H2936 C2957 0.950 . S
H2937 C2960 0.950 . S
H2938 C2961 0.950 . S
H2939 C2963 0.950 . S
H2940 C2964 0.950 . S
H2941 C2965 0.951 . S
H2942 C2967 0.951 . S
H2943 C2969 0.950 . S
H2944 C2970 0.950 . S
H2945 C2972 0.950 . S
H2946 C2975 0.950 . S
H2947 C2976 0.950 . S
H2948 C2978 0.950 . S
H2949 C2979 0.950 . S
C2950 H2932 0.951 . S
C2950 C2951 1.366 . S
C2950 C2952 1.388 . S
C2951 C2950 1.366 . S
C2951 C2955 1.385 . S
C2952 H2933 0.951 . S
C2952 C2950 1.388 . S
C2952 C2953 1.366 . S
C2953 C2952 1.366 . S
C2953 C2954 1.414 . S
C2953 C2956 1.499 . S
C2954 H2934 0.950 . S
C2954 C2953 1.414 . S
C2954 C2955 1.374 . S
C2955 H2935 0.950 . S
C2955 C2951 1.385 . S
C2955 C2954 1.374 . S
C2956 C2953 1.499 . S
C2956 C2957 1.373 . S
C2956 C2958 1.389 . S
C2957 H2936 0.950 . S
C2957 C2956 1.373 . S
C2957 C2973 1.377 . S
C2958 C2956 1.389 . S
C2958 C2959 1.524 . S
C2958 C2972 1.377 . S
C2959 C2958 1.524 . S
C2959 C2960 1.397 . S
C2959 C2964 1.363 . S
C2960 H2937 0.950 . S
C2960 C2959 1.397 . S
C2960 C2961 1.334 . S
C2961 H2938 0.950 . S
C2961 C2960 1.334 . S
C2961 C2962 1.287 . S
C2962 C2961 1.287 . S
C2962 C2963 1.524 . S
C2962 H2981 0.913 . S
C2963 H2939 0.950 . S
C2963 C2962 1.524 . S
C2963 C2964 1.415 . S
C2964 H2940 0.950 . S
C2964 C2959 1.363 . S
C2964 C2963 1.415 . S
C2965 H2941 0.951 . S
C2965 C2966 1.366 . S
C2965 C2967 1.388 . S
C2966 C2965 1.366 . S
C2966 C2970 1.385 . S
C2967 H2942 0.951 . S
C2967 C2965 1.388 . S
C2967 C2968 1.366 . S
C2968 C2967 1.366 . S
C2968 C2969 1.414 . S
C2968 C2971 1.499 . S
C2969 H2943 0.950 . S
C2969 C2968 1.414 . S
C2969 C2970 1.374 . S
C2970 H2944 0.950 . S
C2970 C2966 1.385 . S
C2970 C2969 1.374 . S
C2971 C2968 1.499 . S
C2971 C2972 1.373 . S
C2971 C2973 1.389 . S
C2972 H2945 0.950 . S
C2972 C2958 1.377 . S
C2972 C2971 1.373 . S
C2973 C2957 1.377 . S
C2973 C2971 1.389 . S
C2973 C2974 1.524 . S
C2974 C2973 1.524 . S
C2974 C2975 1.397 . S
C2974 C2979 1.363 . S
C2975 H2946 0.950 . S
C2975 C2974 1.397 . S
C2975 C2976 1.334 . S
C2976 H2947 0.950 . S
C2976 C2975 1.334 . S
C2976 C2977 1.287 . S
C2977 C2976 1.287 . S
C2977 C2978 1.524 . S
C2977 H2980 0.999 . S
C2978 H2948 0.950 . S
C2978 C2977 1.524 . S
C2978 C2979 1.415 . S
C2979 H2949 0.950 . S
C2979 C2974 1.363 . S
C2979 C2978 1.415 . S
H2980 C2977 0.999 . S
H2981 C2962 0.913 . S
H2982 C3000 0.951 . S
H2983 C3002 0.951 . S
H2984 C3004 0.950 . S
H2985 C3005 0.950 . S
H2986 C3007 0.950 . S
H2987 C3010 0.950 . S
H2988 C3011 0.950 . S
H2989 C3013 0.950 . S
H2990 C3014 0.950 . S
H2991 C3015 0.951 . S
H2992 C3017 0.951 . S
H2993 C3019 0.950 . S
H2994 C3020 0.950 . S
H2995 C3022 0.950 . S
H2996 C3025 0.950 . S
H2997 C3026 0.950 . S
H2998 C3028 0.950 . S
H2999 C3029 0.950 . S
C3000 H2982 0.951 . S
C3000 C3001 1.366 . S
C3000 C3002 1.388 . S
C3001 C3000 1.366 . S
C3001 C3005 1.385 . S
C3002 H2983 0.951 . S
C3002 C3000 1.388 . S
C3002 C3003 1.366 . S
C3003 C3002 1.366 . S
C3003 C3004 1.414 . S
C3003 C3006 1.499 . S
C3004 H2984 0.950 . S
C3004 C3003 1.414 . S
C3004 C3005 1.374 . S
C3005 H2985 0.950 . S
C3005 C3001 1.385 . S
C3005 C3004 1.374 . S
C3006 C3003 1.499 . S
C3006 C3007 1.373 . S
C3006 C3008 1.389 . S
C3007 H2986 0.950 . S
C3007 C3006 1.373 . S
C3007 C3023 1.377 . S
C3008 C3006 1.389 . S
C3008 C3009 1.524 . S
C3008 C3022 1.377 . S
C3009 C3008 1.524 . S
C3009 C3010 1.397 . S
C3009 C3014 1.363 . S
C3010 H2987 0.950 . S
C3010 C3009 1.397 . S
C3010 C3011 1.334 . S
C3011 H2988 0.950 . S
C3011 C3010 1.334 . S
C3011 C3012 1.287 . S
C3012 C3011 1.287 . S
C3012 C3013 1.524 . S
C3012 H3031 0.913 . S
C3013 H2989 0.950 . S
C3013 C3012 1.524 . S
C3013 C3014 1.415 . S
C3014 H2990 0.950 . S
C3014 C3009 1.363 . S
C3014 C3013 1.415 . S
C3015 H2991 0.951 . S
C3015 C3016 1.366 . S
C3015 C3017 1.388 . S
C3016 C3015 1.366 . S
C3016 C3020 1.385 . S
C3017 H2992 0.951 . S
C3017 C3015 1.388 . S
C3017 C3018 1.366 . S
C3018 C3017 1.366 . S
C3018 C3019 1.414 . S
C3018 C3021 1.499 . S
C3019 H2993 0.950 . S
C3019 C3018 1.414 . S
C3019 C3020 1.374 . S
C3020 H2994 0.950 . S
C3020 C3016 1.385 . S
C3020 C3019 1.374 . S
C3021 C3018 1.499 . S
C3021 C3022 1.373 . S
C3021 C3023 1.389 . S
C3022 H2995 0.950 . S
C3022 C3008 1.377 . S
C3022 C3021 1.373 . S
C3023 C3007 1.377 . S
C3023 C3021 1.389 . S
C3023 C3024 1.524 . S
C3024 C3023 1.524 . S
C3024 C3025 1.397 . S
C3024 C3029 1.363 . S
C3025 H2996 0.950 . S
C3025 C3024 1.397 . S
C3025 C3026 1.334 . S
C3026 H2997 0.950 . S
C3026 C3025 1.334 . S
C3026 C3027 1.287 . S
C3027 C3026 1.287 . S
C3027 C3028 1.524 . S
C3027 H3030 0.999 . S
C3028 H2998 0.950 . S
C3028 C3027 1.524 . S
C3028 C3029 1.415 . S
C3029 H2999 0.950 . S
C3029 C3024 1.363 . S
C3029 C3028 1.415 . S
H3030 C3027 0.999 . S
H3031 C3012 0.913 . S
H3032 C3050 0.951 . S
H3033 C3052 0.951 . S
H3034 C3054 0.950 . S
H3035 C3055 0.950 . S
H3036 C3057 0.950 . S
H3037 C3060 0.950 . S
H3038 C3061 0.950 . S
H3039 C3063 0.950 . S
H3040 C3064 0.950 . S
H3041 C3065 0.951 . S
H3042 C3067 0.951 . S
H3043 C3069 0.950 . S
H3044 C3070 0.950 . S
H3045 C3072 0.950 . S
H3046 C3075 0.950 . S
H3047 C3076 0.950 . S
H3048 C3078 0.950 . S
H3049 C3079 0.950 . S
C3050 H3032 0.951 . S
C3050 C3051 1.366 . S
C3050 C3052 1.388 . S
C3051 C3050 1.366 . S
C3051 C3055 1.385 . S
C3052 H3033 0.951 . S
C3052 C3050 1.388 . S
C3052 C3053 1.366 . S
C3053 C3052 1.366 . S
C3053 C3054 1.414 . S
C3053 C3056 1.499 . S
C3054 H3034 0.950 . S
C3054 C3053 1.414 . S
C3054 C3055 1.374 . S
C3055 H3035 0.950 . S
C3055 C3051 1.385 . S
C3055 C3054 1.374 . S
C3056 C3053 1.499 . S
C3056 C3057 1.373 . S
C3056 C3058 1.389 . S
C3057 H3036 0.950 . S
C3057 C3056 1.373 . S
C3057 C3073 1.377 . S
C3058 C3056 1.389 . S
C3058 C3059 1.524 . S
C3058 C3072 1.377 . S
C3059 C3058 1.524 . S
C3059 C3060 1.397 . S
C3059 C3064 1.363 . S
C3060 H3037 0.950 . S
C3060 C3059 1.397 . S
C3060 C3061 1.334 . S
C3061 H3038 0.950 . S
C3061 C3060 1.334 . S
C3061 C3062 1.287 . S
C3062 C3061 1.287 . S
C3062 C3063 1.524 . S
C3062 H3081 0.913 . S
C3063 H3039 0.950 . S
C3063 C3062 1.524 . S
C3063 C3064 1.415 . S
C3064 H3040 0.950 . S
C3064 C3059 1.363 . S
C3064 C3063 1.415 . S
C3065 H3041 0.951 . S
C3065 C3066 1.366 . S
C3065 C3067 1.388 . S
C3066 C3065 1.366 . S
C3066 C3070 1.385 . S
C3067 H3042 0.951 . S
C3067 C3065 1.388 . S
C3067 C3068 1.366 . S
C3068 C3067 1.366 . S
C3068 C3069 1.414 . S
C3068 C3071 1.499 . S
C3069 H3043 0.950 . S
C3069 C3068 1.414 . S
C3069 C3070 1.374 . S
C3070 H3044 0.950 . S
C3070 C3066 1.385 . S
C3070 C3069 1.374 . S
C3071 C3068 1.499 . S
C3071 C3072 1.373 . S
C3071 C3073 1.389 . S
C3072 H3045 0.950 . S
C3072 C3058 1.377 . S
C3072 C3071 1.373 . S
C3073 C3057 1.377 . S
C3073 C3071 1.389 . S
C3073 C3074 1.524 . S
C3074 C3073 1.524 . S
C3074 C3075 1.397 . S
C3074 C3079 1.363 . S
C3075 H3046 0.950 . S
C3075 C3074 1.397 . S
C3075 C3076 1.334 . S
C3076 H3047 0.950 . S
C3076 C3075 1.334 . S
C3076 C3077 1.287 . S
C3077 C3076 1.287 . S
C3077 C3078 1.524 . S
C3077 H3080 0.999 . S
C3078 H3048 0.950 . S
C3078 C3077 1.524 . S
C3078 C3079 1.415 . S
C3079 H3049 0.950 . S
C3079 C3074 1.363 . S
C3079 C3078 1.415 . S
H3080 C3077 0.999 . S
H3081 C3062 0.913 . S
H3082 C3100 0.951 . S
H3083 C3102 0.951 . S
H3084 C3104 0.950 . S
H3085 C3105 0.950 . S
H3086 C3107 0.950 . S
H3087 C3110 0.950 . S
H3088 C3111 0.950 . S
H3089 C3113 0.950 . S
H3090 C3114 0.950 . S
H3091 C3115 0.951 . S
H3092 C3117 0.951 . S
H3093 C3119 0.950 . S
H3094 C3120 0.950 . S
H3095 C3122 0.950 . S
H3096 C3125 0.950 . S
H3097 C3126 0.950 . S
H3098 C3128 0.950 . S
H3099 C3129 0.950 . S
C3100 H3082 0.951 . S
C3100 C3101 1.366 . S
C3100 C3102 1.388 . S
C3101 C3100 1.366 . S
C3101 C3105 1.385 . S
C3102 H3083 0.951 . S
C3102 C3100 1.388 . S
C3102 C3103 1.366 . S
C3103 C3102 1.366 . S
C3103 C3104 1.414 . S
C3103 C3106 1.499 . S
C3104 H3084 0.950 . S
C3104 C3103 1.414 . S
C3104 C3105 1.374 . S
C3105 H3085 0.950 . S
C3105 C3101 1.385 . S
C3105 C3104 1.374 . S
C3106 C3103 1.499 . S
C3106 C3107 1.373 . S
C3106 C3108 1.389 . S
C3107 H3086 0.950 . S
C3107 C3106 1.373 . S
C3107 C3123 1.377 . S
C3108 C3106 1.389 . S
C3108 C3109 1.524 . S
C3108 C3122 1.377 . S
C3109 C3108 1.524 . S
C3109 C3110 1.397 . S
C3109 C3114 1.363 . S
C3110 H3087 0.950 . S
C3110 C3109 1.397 . S
C3110 C3111 1.334 . S
C3111 H3088 0.950 . S
C3111 C3110 1.334 . S
C3111 C3112 1.287 . S
C3112 C3111 1.287 . S
C3112 C3113 1.524 . S
C3112 H3131 0.913 . S
C3113 H3089 0.950 . S
C3113 C3112 1.524 . S
C3113 C3114 1.415 . S
C3114 H3090 0.950 . S
C3114 C3109 1.363 . S
C3114 C3113 1.415 . S
C3115 H3091 0.951 . S
C3115 C3116 1.366 . S
C3115 C3117 1.388 . S
C3116 C3115 1.366 . S
C3116 C3120 1.385 . S
C3117 H3092 0.951 . S
C3117 C3115 1.388 . S
C3117 C3118 1.366 . S
C3118 C3117 1.366 . S
C3118 C3119 1.414 . S
C3118 C3121 1.499 . S
C3119 H3093 0.950 . S
C3119 C3118 1.414 . S
C3119 C3120 1.374 . S
C3120 H3094 0.950 . S
C3120 C3116 1.385 . S
C3120 C3119 1.374 . S
C3121 C3118 1.499 . S
C3121 C3122 1.373 . S
C3121 C3123 1.389 . S
C3122 H3095 0.950 . S
C3122 C3108 1.377 . S
C3122 C3121 1.373 . S
C3123 C3107 1.377 . S
C3123 C3121 1.389 . S
C3123 C3124 1.524 . S
C3124 C3123 1.524 . S
C3124 C3125 1.397 . S
C3124 C3129 1.363 . S
C3125 H3096 0.950 . S
C3125 C3124 1.397 . S
C3125 C3126 1.334 . S
C3126 H3097 0.950 . S
C3126 C3125 1.334 . S
C3126 C3127 1.287 . S
C3127 C3126 1.287 . S
C3127 C3128 1.524 . S
C3127 H3130 0.999 . S
C3128 H3098 0.950 . S
C3128 C3127 1.524 . S
C3128 C3129 1.415 . S
C3129 H3099 0.950 . S
C3129 C3124 1.363 . S
C3129 C3128 1.415 . S
H3130 C3127 0.999 . S
H3131 C3112 0.913 . S
H3132 C3150 0.951 . S
H3133 C3152 0.951 . S
H3134 C3154 0.950 . S
H3135 C3155 0.950 . S
H3136 C3157 0.950 . S
H3137 C3160 0.950 . S
H3138 C3161 0.950 . S
H3139 C3163 0.950 . S
H3140 C3164 0.950 . S
H3141 C3165 0.951 . S
H3142 C3167 0.951 . S
H3143 C3169 0.950 . S
H3144 C3170 0.950 . S
H3145 C3172 0.950 . S
H3146 C3175 0.950 . S
H3147 C3176 0.950 . S
H3148 C3178 0.950 . S
H3149 C3179 0.950 . S
C3150 H3132 0.951 . S
C3150 C3151 1.366 . S
C3150 C3152 1.388 . S
C3151 C3150 1.366 . S
C3151 C3155 1.385 . S
C3152 H3133 0.951 . S
C3152 C3150 1.388 . S
C3152 C3153 1.366 . S
C3153 C3152 1.366 . S
C3153 C3154 1.414 . S
C3153 C3156 1.499 . S
C3154 H3134 0.950 . S
C3154 C3153 1.414 . S
C3154 C3155 1.374 . S
C3155 H3135 0.950 . S
C3155 C3151 1.385 . S
C3155 C3154 1.374 . S
C3156 C3153 1.499 . S
C3156 C3157 1.373 . S
C3156 C3158 1.389 . S
C3157 H3136 0.950 . S
C3157 C3156 1.373 . S
C3157 C3173 1.377 . S
C3158 C3156 1.389 . S
C3158 C3159 1.524 . S
C3158 C3172 1.377 . S
C3159 C3158 1.524 . S
C3159 C3160 1.397 . S
C3159 C3164 1.363 . S
C3160 H3137 0.950 . S
C3160 C3159 1.397 . S
C3160 C3161 1.334 . S
C3161 H3138 0.950 . S
C3161 C3160 1.334 . S
C3161 C3162 1.287 . S
C3162 C3161 1.287 . S
C3162 C3163 1.524 . S
C3162 H3181 0.913 . S
C3163 H3139 0.950 . S
C3163 C3162 1.524 . S
C3163 C3164 1.415 . S
C3164 H3140 0.950 . S
C3164 C3159 1.363 . S
C3164 C3163 1.415 . S
C3165 H3141 0.951 . S
C3165 C3166 1.366 . S
C3165 C3167 1.388 . S
C3166 C3165 1.366 . S
C3166 C3170 1.385 . S
C3167 H3142 0.951 . S
C3167 C3165 1.388 . S
C3167 C3168 1.366 . S
C3168 C3167 1.366 . S
C3168 C3169 1.414 . S
C3168 C3171 1.499 . S
C3169 H3143 0.950 . S
C3169 C3168 1.414 . S
C3169 C3170 1.374 . S
C3170 H3144 0.950 . S
C3170 C3166 1.385 . S
C3170 C3169 1.374 . S
C3171 C3168 1.499 . S
C3171 C3172 1.373 . S
C3171 C3173 1.389 . S
C3172 H3145 0.950 . S
C3172 C3158 1.377 . S
C3172 C3171 1.373 . S
C3173 C3157 1.377 . S
C3173 C3171 1.389 . S
C3173 C3174 1.524 . S
C3174 C3173 1.524 . S
C3174 C3175 1.397 . S
C3174 C3179 1.363 . S
C3175 H3146 0.950 . S
C3175 C3174 1.397 . S
C3175 C3176 1.334 . S
C3176 H3147 0.950 . S
C3176 C3175 1.334 . S
C3176 C3177 1.287 . S
C3177 C3176 1.287 . S
C3177 C3178 1.524 . S
C3177 H3180 0.999 . S
C3178 H3148 0.950 . S
C3178 C3177 1.524 . S
C3178 C3179 1.415 . S
C3179 H3149 0.950 . S
C3179 C3174 1.363 . S
C3179 C3178 1.415 . S
H3180 C3177 0.999 . S
H3181 C3162 0.913 . S
H3182 C3200 0.951 . S
H3183 C3202 0.951 . S
H3184 C3204 0.950 . S
H3185 C3205 0.950 . S
H3186 C3207 0.950 . S
H3187 C3210 0.950 . S
H3188 C3211 0.950 . S
H3189 C3213 0.950 . S
H3190 C3214 0.950 . S
H3191 C3215 0.951 . S
H3192 C3217 0.951 . S
H3193 C3219 0.950 . S
H3194 C3220 0.950 . S
H3195 C3222 0.950 . S
H3196 C3225 0.950 . S
H3197 C3226 0.950 . S
H3198 C3228 0.950 . S
H3199 C3229 0.950 . S
C3200 H3182 0.951 . S
C3200 C3201 1.366 . S
C3200 C3202 1.388 . S
C3201 C3200 1.366 . S
C3201 C3205 1.385 . S
C3202 H3183 0.951 . S
C3202 C3200 1.388 . S
C3202 C3203 1.366 . S
C3203 C3202 1.366 . S
C3203 C3204 1.414 . S
C3203 C3206 1.499 . S
C3204 H3184 0.950 . S
C3204 C3203 1.414 . S
C3204 C3205 1.374 . S
C3205 H3185 0.950 . S
C3205 C3201 1.385 . S
C3205 C3204 1.374 . S
C3206 C3203 1.499 . S
C3206 C3207 1.373 . S
C3206 C3208 1.389 . S
C3207 H3186 0.950 . S
C3207 C3206 1.373 . S
C3207 C3223 1.377 . S
C3208 C3206 1.389 . S
C3208 C3209 1.524 . S
C3208 C3222 1.377 . S
C3209 C3208 1.524 . S
C3209 C3210 1.397 . S
C3209 C3214 1.363 . S
C3210 H3187 0.950 . S
C3210 C3209 1.397 . S
C3210 C3211 1.334 . S
C3211 H3188 0.950 . S
C3211 C3210 1.334 . S
C3211 C3212 1.287 . S
C3212 C3211 1.287 . S
C3212 C3213 1.524 . S
C3212 H3231 0.913 . S
C3213 H3189 0.950 . S
C3213 C3212 1.524 . S
C3213 C3214 1.415 . S
C3214 H3190 0.950 . S
C3214 C3209 1.363 . S
C3214 C3213 1.415 . S
C3215 H3191 0.951 . S
C3215 C3216 1.366 . S
C3215 C3217 1.388 . S
C3216 C3215 1.366 . S
C3216 C3220 1.385 . S
C3217 H3192 0.951 . S
C3217 C3215 1.388 . S
C3217 C3218 1.366 . S
C3218 C3217 1.366 . S
C3218 C3219 1.414 . S
C3218 C3221 1.499 . S
C3219 H3193 0.950 . S
C3219 C3218 1.414 . S
C3219 C3220 1.374 . S
C3220 H3194 0.950 . S
C3220 C3216 1.385 . S
C3220 C3219 1.374 . S
C3221 C3218 1.499 . S
C3221 C3222 1.373 . S
C3221 C3223 1.389 . S
C3222 H3195 0.950 . S
C3222 C3208 1.377 . S
C3222 C3221 1.373 . S
C3223 C3207 1.377 . S
C3223 C3221 1.389 . S
C3223 C3224 1.524 . S
C3224 C3223 1.524 . S
C3224 C3225 1.397 . S
C3224 C3229 1.363 . S
C3225 H3196 0.950 . S
C3225 C3224 1.397 . S
C3225 C3226 1.334 . S
C3226 H3197 0.950 . S
C3226 C3225 1.334 . S
C3226 C3227 1.287 . S
C3227 C3226 1.287 . S
C3227 C3228 1.524 . S
C3227 H3230 0.999 . S
C3228 H3198 0.950 . S
C3228 C3227 1.524 . S
C3228 C3229 1.415 . S
C3229 H3199 0.950 . S
C3229 C3224 1.363 . S
C3229 C3228 1.415 . S
H3230 C3227 0.999 . S
H3231 C3212 0.913 . S
H3232 C3250 0.951 . S
H3233 C3252 0.951 . S
H3234 C3254 0.950 . S
H3235 C3255 0.950 . S
H3236 C3257 0.950 . S
H3237 C3260 0.950 . S
H3238 C3261 0.950 . S
H3239 C3263 0.950 . S
H3240 C3264 0.950 . S
H3241 C3265 0.951 . S
H3242 C3267 0.951 . S
H3243 C3269 0.950 . S
H3244 C3270 0.950 . S
H3245 C3272 0.950 . S
H3246 C3275 0.950 . S
H3247 C3276 0.950 . S
H3248 C3278 0.950 . S
H3249 C3279 0.950 . S
C3250 H3232 0.951 . S
C3250 C3251 1.366 . S
C3250 C3252 1.388 . S
C3251 C3250 1.366 . S
C3251 C3255 1.385 . S
C3252 H3233 0.951 . S
C3252 C3250 1.388 . S
C3252 C3253 1.366 . S
C3253 C3252 1.366 . S
C3253 C3254 1.414 . S
C3253 C3256 1.499 . S
C3254 H3234 0.950 . S
C3254 C3253 1.414 . S
C3254 C3255 1.374 . S
C3255 H3235 0.950 . S
C3255 C3251 1.385 . S
C3255 C3254 1.374 . S
C3256 C3253 1.499 . S
C3256 C3257 1.373 . S
C3256 C3258 1.389 . S
C3257 H3236 0.950 . S
C3257 C3256 1.373 . S
C3257 C3273 1.377 . S
C3258 C3256 1.389 . S
C3258 C3259 1.524 . S
C3258 C3272 1.377 . S
C3259 C3258 1.524 . S
C3259 C3260 1.397 . S
C3259 C3264 1.363 . S
C3260 H3237 0.950 . S
C3260 C3259 1.397 . S
C3260 C3261 1.334 . S
C3261 H3238 0.950 . S
C3261 C3260 1.334 . S
C3261 C3262 1.287 . S
C3262 C3261 1.287 . S
C3262 C3263 1.524 . S
C3262 H3281 0.913 . S
C3263 H3239 0.950 . S
C3263 C3262 1.524 . S
C3263 C3264 1.415 . S
C3264 H3240 0.950 . S
C3264 C3259 1.363 . S
C3264 C3263 1.415 . S
C3265 H3241 0.951 . S
C3265 C3266 1.366 . S
C3265 C3267 1.388 . S
C3266 C3265 1.366 . S
C3266 C3270 1.385 . S
C3267 H3242 0.951 . S
C3267 C3265 1.388 . S
C3267 C3268 1.366 . S
C3268 C3267 1.366 . S
C3268 C3269 1.414 . S
C3268 C3271 1.499 . S
C3269 H3243 0.950 . S
C3269 C3268 1.414 . S
C3269 C3270 1.374 . S
C3270 H3244 0.950 . S
C3270 C3266 1.385 . S
C3270 C3269 1.374 . S
C3271 C3268 1.499 . S
C3271 C3272 1.373 . S
C3271 C3273 1.389 . S
C3272 H3245 0.950 . S
C3272 C3258 1.377 . S
C3272 C3271 1.373 . S
C3273 C3257 1.377 . S
C3273 C3271 1.389 . S
C3273 C3274 1.524 . S
C3274 C3273 1.524 . S
C3274 C3275 1.397 . S
C3274 C3279 1.363 . S
C3275 H3246 0.950 . S
C3275 C3274 1.397 . S
C3275 C3276 1.334 . S
C3276 H3247 0.950 . S
C3276 C3275 1.334 . S
C3276 C3277 1.287 . S
C3277 C3276 1.287 . S
C3277 C3278 1.524 . S
C3277 H3280 0.999 . S
C3278 H3248 0.950 . S
C3278 C3277 1.524 . S
C3278 C3279 1.415 . S
C3279 H3249 0.950 . S
C3279 C3274 1.363 . S
C3279 C3278 1.415 . S
H3280 C3277 0.999 . S
H3281 C3262 0.913 . S
H3282 C3300 0.951 . S
H3283 C3302 0.951 . S
H3284 C3304 0.950 . S
H3285 C3305 0.950 . S
H3286 C3307 0.950 . S
H3287 C3310 0.950 . S
H3288 C3311 0.950 . S
H3289 C3313 0.950 . S
H3290 C3314 0.950 . S
H3291 C3315 0.951 . S
H3292 C3317 0.951 . S
H3293 C3319 0.950 . S
H3294 C3320 0.950 . S
H3295 C3322 0.950 . S
H3296 C3325 0.950 . S
H3297 C3326 0.950 . S
H3298 C3328 0.950 . S
H3299 C3329 0.950 . S
C3300 H3282 0.951 . S
C3300 C3301 1.366 . S
C3300 C3302 1.388 . S
C3301 C3300 1.366 . S
C3301 C3305 1.385 . S
C3302 H3283 0.951 . S
C3302 C3300 1.388 . S
C3302 C3303 1.366 . S
C3303 C3302 1.366 . S
C3303 C3304 1.414 . S
C3303 C3306 1.499 . S
C3304 H3284 0.950 . S
C3304 C3303 1.414 . S
C3304 C3305 1.374 . S
C3305 H3285 0.950 . S
C3305 C3301 1.385 . S
C3305 C3304 1.374 . S
C3306 C3303 1.499 . S
C3306 C3307 1.373 . S
C3306 C3308 1.389 . S
C3307 H3286 0.950 . S
C3307 C3306 1.373 . S
C3307 C3323 1.377 . S
C3308 C3306 1.389 . S
C3308 C3309 1.524 . S
C3308 C3322 1.377 . S
C3309 C3308 1.524 . S
C3309 C3310 1.397 . S
C3309 C3314 1.363 . S
C3310 H3287 0.950 . S
C3310 C3309 1.397 . S
C3310 C3311 1.334 . S
C3311 H3288 0.950 . S
C3311 C3310 1.334 . S
C3311 C3312 1.287 . S
C3312 C3311 1.287 . S
C3312 C3313 1.524 . S
C3312 H3331 0.913 . S
C3313 H3289 0.950 . S
C3313 C3312 1.524 . S
C3313 C3314 1.415 . S
C3314 H3290 0.950 . S
C3314 C3309 1.363 . S
C3314 C3313 1.415 . S
C3315 H3291 0.951 . S
C3315 C3316 1.366 . S
C3315 C3317 1.388 . S
C3316 C3315 1.366 . S
C3316 C3320 1.385 . S
C3317 H3292 0.951 . S
C3317 C3315 1.388 . S
C3317 C3318 1.366 . S
C3318 C3317 1.366 . S
C3318 C3319 1.414 . S
C3318 C3321 1.499 . S
C3319 H3293 0.950 . S
C3319 C3318 1.414 . S
C3319 C3320 1.374 . S
C3320 H3294 0.950 . S
C3320 C3316 1.385 . S
C3320 C3319 1.374 . S
C3321 C3318 1.499 . S
C3321 C3322 1.373 . S
C3321 C3323 1.389 . S
C3322 H3295 0.950 . S
C3322 C3308 1.377 . S
C3322 C3321 1.373 . S
C3323 C3307 1.377 . S
C3323 C3321 1.389 . S
C3323 C3324 1.524 . S
C3324 C3323 1.524 . S
C3324 C3325 1.397 . S
C3324 C3329 1.363 . S
C3325 H3296 0.950 . S
C3325 C3324 1.397 . S
C3325 C3326 1.334 . S
C3326 H3297 0.950 . S
C3326 C3325 1.334 . S
C3326 C3327 1.287 . S
C3327 C3326 1.287 . S
C3327 C3328 1.524 . S
C3327 H3330 0.999 . S
C3328 H3298 0.950 . S
C3328 C3327 1.524 . S
C3328 C3329 1.415 . S
C3329 H3299 0.950 . S
C3329 C3324 1.363 . S
C3329 C3328 1.415 . S
H3330 C3327 0.999 . S
H3331 C3312 0.913 . S
H3332 C3350 0.951 . S
H3333 C3352 0.951 . S
H3334 C3354 0.950 . S
H3335 C3355 0.950 . S
H3336 C3357 0.950 . S
H3337 C3360 0.950 . S
H3338 C3361 0.950 . S
H3339 C3363 0.950 . S
H3340 C3364 0.950 . S
H3341 C3365 0.951 . S
H3342 C3367 0.951 . S
H3343 C3369 0.950 . S
H3344 C3370 0.950 . S
H3345 C3372 0.950 . S
H3346 C3375 0.950 . S
H3347 C3376 0.950 . S
H3348 C3378 0.950 . S
H3349 C3379 0.950 . S
C3350 H3332 0.951 . S
C3350 C3351 1.366 . S
C3350 C3352 1.388 . S
C3351 C3350 1.366 . S
C3351 C3355 1.385 . S
C3352 H3333 0.951 . S
C3352 C3350 1.388 . S
C3352 C3353 1.366 . S
C3353 C3352 1.366 . S
C3353 C3354 1.414 . S
C3353 C3356 1.499 . S
C3354 H3334 0.950 . S
C3354 C3353 1.414 . S
C3354 C3355 1.374 . S
C3355 H3335 0.950 . S
C3355 C3351 1.385 . S
C3355 C3354 1.374 . S
C3356 C3353 1.499 . S
C3356 C3357 1.373 . S
C3356 C3358 1.389 . S
C3357 H3336 0.950 . S
C3357 C3356 1.373 . S
C3357 C3373 1.377 . S
C3358 C3356 1.389 . S
C3358 C3359 1.524 . S
C3358 C3372 1.377 . S
C3359 C3358 1.524 . S
C3359 C3360 1.397 . S
C3359 C3364 1.363 . S
C3360 H3337 0.950 . S
C3360 C3359 1.397 . S
C3360 C3361 1.334 . S
C3361 H3338 0.950 . S
C3361 C3360 1.334 . S
C3361 C3362 1.287 . S
C3362 C3361 1.287 . S
C3362 C3363 1.524 . S
C3362 H3381 0.913 . S
C3363 H3339 0.950 . S
C3363 C3362 1.524 . S
C3363 C3364 1.415 . S
C3364 H3340 0.950 . S
C3364 C3359 1.363 . S
C3364 C3363 1.415 . S
C3365 H3341 0.951 . S
C3365 C3366 1.366 . S
C3365 C3367 1.388 . S
C3366 C3365 1.366 . S
C3366 C3370 1.385 . S
C3367 H3342 0.951 . S
C3367 C3365 1.388 . S
C3367 C3368 1.366 . S
C3368 C3367 1.366 . S
C3368 C3369 1.414 . S
C3368 C3371 1.499 . S
C3369 H3343 0.950 . S
C3369 C3368 1.414 . S
C3369 C3370 1.374 . S
C3370 H3344 0.950 . S
C3370 C3366 1.385 . S
C3370 C3369 1.374 . S
C3371 C3368 1.499 . S
C3371 C3372 1.373 . S
C3371 C3373 1.389 . S
C3372 H3345 0.950 . S
C3372 C3358 1.377 . S
C3372 C3371 1.373 . S
C3373 C3357 1.377 . S
C3373 C3371 1.389 . S
C3373 C3374 1.524 . S
C3374 C3373 1.524 . S
C3374 C3375 1.397 . S
C3374 C3379 1.363 . S
C3375 H3346 0.950 . S
C3375 C3374 1.397 . S
C3375 C3376 1.334 . S
C3376 H3347 0.950 . S
C3376 C3375 1.334 . S
C3376 C3377 1.287 . S
C3377 C3376 1.287 . S
C3377 C3378 1.524 . S
C3377 H3380 0.999 . S
C3378 H3348 0.950 . S
C3378 C3377 1.524 . S
C3378 C3379 1.415 . S
C3379 H3349 0.950 . S
C3379 C3374 1.363 . S
C3379 C3378 1.415 . S
H3380 C3377 0.999 . S
H3381 C3362 0.913 . S
H3382 C3400 0.951 . S
H3383 C3402 0.951 . S
H3384 C3404 0.950 . S
H3385 C3405 0.950 . S
H3386 C3407 0.950 . S
H3387 C3410 0.950 . S
H3388 C3411 0.950 . S
H3389 C3413 0.950 . S
H3390 C3414 0.950 . S
H3391 C3415 0.951 . S
H3392 C3417 0.951 . S
H3393 C3419 0.950 . S
H3394 C3420 0.950 . S
H3395 C3422 0.950 . S
H3396 C3425 0.950 . S
H3397 C3426 0.950 . S
H3398 C3428 0.950 . S
H3399 C3429 0.950 . S
C3400 H3382 0.951 . S
C3400 C3401 1.366 . S
C3400 C3402 1.388 . S
C3401 C3400 1.366 . S
C3401 C3405 1.385 . S
C3402 H3383 0.951 . S
C3402 C3400 1.388 . S
C3402 C3403 1.366 . S
C3403 C3402 1.366 . S
C3403 C3404 1.414 . S
C3403 C3406 1.499 . S
C3404 H3384 0.950 . S
C3404 C3403 1.414 . S
C3404 C3405 1.374 . S
C3405 H3385 0.950 . S
C3405 C3401 1.385 . S
C3405 C3404 1.374 . S
C3406 C3403 1.499 . S
C3406 C3407 1.373 . S
C3406 C3408 1.389 . S
C3407 H3386 0.950 . S
C3407 C3406 1.373 . S
C3407 C3423 1.377 . S
C3408 C3406 1.389 . S
C3408 C3409 1.524 . S
C3408 C3422 1.377 . S
C3409 C3408 1.524 . S
C3409 C3410 1.397 . S
C3409 C3414 1.363 . S
C3410 H3387 0.950 . S
C3410 C3409 1.397 . S
C3410 C3411 1.334 . S
C3411 H3388 0.950 . S
C3411 C3410 1.334 . S
C3411 C3412 1.287 . S
C3412 C3411 1.287 . S
C3412 C3413 1.524 . S
C3412 H3431 0.913 . S
C3413 H3389 0.950 . S
C3413 C3412 1.524 . S
C3413 C3414 1.415 . S
C3414 H3390 0.950 . S
C3414 C3409 1.363 . S
C3414 C3413 1.415 . S
C3415 H3391 0.951 . S
C3415 C3416 1.366 . S
C3415 C3417 1.388 . S
C3416 C3415 1.366 . S
C3416 C3420 1.385 . S
C3417 H3392 0.951 . S
C3417 C3415 1.388 . S
C3417 C3418 1.366 . S
C3418 C3417 1.366 . S
C3418 C3419 1.414 . S
C3418 C3421 1.499 . S
C3419 H3393 0.950 . S
C3419 C3418 1.414 . S
C3419 C3420 1.374 . S
C3420 H3394 0.950 . S
C3420 C3416 1.385 . S
C3420 C3419 1.374 . S
C3421 C3418 1.499 . S
C3421 C3422 1.373 . S
C3421 C3423 1.389 . S
C3422 H3395 0.950 . S
C3422 C3408 1.377 . S
C3422 C3421 1.373 . S
C3423 C3407 1.377 . S
C3423 C3421 1.389 . S
C3423 C3424 1.524 . S
C3424 C3423 1.524 . S
C3424 C3425 1.397 . S
C3424 C3429 1.363 . S
C3425 H3396 0.950 . S
C3425 C3424 1.397 . S
C3425 C3426 1.334 . S
C3426 H3397 0.950 . S
C3426 C3425 1.334 . S
C3426 C3427 1.287 . S
C3427 C3426 1.287 . S
C3427 C3428 1.524 . S
C3427 H3430 0.999 . S
C3428 H3398 0.950 . S
C3428 C3427 1.524 . S
C3428 C3429 1.415 . S
C3429 H3399 0.950 . S
C3429 C3424 1.363 . S
C3429 C3428 1.415 . S
H3430 C3427 0.999 . S
H3431 C3412 0.913 . S
H3432 C3450 0.951 . S
H3433 C3452 0.951 . S
H3434 C3454 0.950 . S
H3435 C3455 0.950 . S
H3436 C3457 0.950 . S
H3437 C3460 0.950 . S
H3438 C3461 0.950 . S
H3439 C3463 0.950 . S
H3440 C3464 0.950 . S
H3441 C3465 0.951 . S
H3442 C3467 0.951 . S
H3443 C3469 0.950 . S
H3444 C3470 0.950 . S
H3445 C3472 0.950 . S
H3446 C3475 0.950 . S
H3447 C3476 0.950 . S
H3448 C3478 0.950 . S
H3449 C3479 0.950 . S
C3450 H3432 0.951 . S
C3450 C3451 1.366 . S
C3450 C3452 1.388 . S
C3451 C3450 1.366 . S
C3451 C3455 1.385 . S
C3452 H3433 0.951 . S
C3452 C3450 1.388 . S
C3452 C3453 1.366 . S
C3453 C3452 1.366 . S
C3453 C3454 1.414 . S
C3453 C3456 1.499 . S
C3454 H3434 0.950 . S
C3454 C3453 1.414 . S
C3454 C3455 1.374 . S
C3455 H3435 0.950 . S
C3455 C3451 1.385 . S
C3455 C3454 1.374 . S
C3456 C3453 1.499 . S
C3456 C3457 1.373 . S
C3456 C3458 1.389 . S
C3457 H3436 0.950 . S
C3457 C3456 1.373 . S
C3457 C3473 1.377 . S
C3458 C3456 1.389 . S
C3458 C3459 1.524 . S
C3458 C3472 1.377 . S
C3459 C3458 1.524 . S
C3459 C3460 1.397 . S
C3459 C3464 1.363 . S
C3460 H3437 0.950 . S
C3460 C3459 1.397 . S
C3460 C3461 1.334 . S
C3461 H3438 0.950 . S
C3461 C3460 1.334 . S
C3461 C3462 1.287 . S
C3462 C3461 1.287 . S
C3462 C3463 1.524 . S
C3462 H3481 0.913 . S
C3463 H3439 0.950 . S
C3463 C3462 1.524 . S
C3463 C3464 1.415 . S
C3464 H3440 0.950 . S
C3464 C3459 1.363 . S
C3464 C3463 1.415 . S
C3465 H3441 0.951 . S
C3465 C3466 1.366 . S
C3465 C3467 1.388 . S
C3466 C3465 1.366 . S
C3466 C3470 1.385 . S
C3467 H3442 0.951 . S
C3467 C3465 1.388 . S
C3467 C3468 1.366 . S
C3468 C3467 1.366 . S
C3468 C3469 1.414 . S
C3468 C3471 1.499 . S
C3469 H3443 0.950 . S
C3469 C3468 1.414 . S
C3469 C3470 1.374 . S
C3470 H3444 0.950 . S
C3470 C3466 1.385 . S
C3470 C3469 1.374 . S
C3471 C3468 1.499 . S
C3471 C3472 1.373 . S
C3471 C3473 1.389 . S
C3472 H3445 0.950 . S
C3472 C3458 1.377 . S
C3472 C3471 1.373 . S
C3473 C3457 1.377 . S
C3473 C3471 1.389 . S
C3473 C3474 1.524 . S
C3474 C3473 1.524 . S
C3474 C3475 1.397 . S
C3474 C3479 1.363 . S
C3475 H3446 0.950 . S
C3475 C3474 1.397 . S
C3475 C3476 1.334 . S
C3476 H3447 0.950 . S
C3476 C3475 1.334 . S
C3476 C3477 1.287 . S
C3477 C3476 1.287 . S
C3477 C3478 1.524 . S
C3477 H3480 0.999 . S
C3478 H3448 0.950 . S
C3478 C3477 1.524 . S
C3478 C3479 1.415 . S
C3479 H3449 0.950 . S
C3479 C3474 1.363 . S
C3479 C3478 1.415 . S
H3480 C3477 0.999 . S
H3481 C3462 0.913 . S
H3482 C3500 0.951 . S
H3483 C3502 0.951 . S
H3484 C3504 0.950 . S
H3485 C3505 0.950 . S
H3486 C3507 0.950 . S
H3487 C3510 0.950 . S
H3488 C3511 0.950 . S
H3489 C3513 0.950 . S
H3490 C3514 0.950 . S
H3491 C3515 0.951 . S
H3492 C3517 0.951 . S
H3493 C3519 0.950 . S
H3494 C3520 0.950 . S
H3495 C3522 0.950 . S
H3496 C3525 0.950 . S
H3497 C3526 0.950 . S
H3498 C3528 0.950 . S
H3499 C3529 0.950 . S
C3500 H3482 0.951 . S
C3500 C3501 1.366 . S
C3500 C3502 1.388 . S
C3501 C3500 1.366 . S
C3501 C3505 1.385 . S
C3502 H3483 0.951 . S
C3502 C3500 1.388 . S
C3502 C3503 1.366 . S
C3503 C3502 1.366 . S
C3503 C3504 1.414 . S
C3503 C3506 1.499 . S
C3504 H3484 0.950 . S
C3504 C3503 1.414 . S
C3504 C3505 1.374 . S
C3505 H3485 0.950 . S
C3505 C3501 1.385 . S
C3505 C3504 1.374 . S
C3506 C3503 1.499 . S
C3506 C3507 1.373 . S
C3506 C3508 1.389 . S
C3507 H3486 0.950 . S
C3507 C3506 1.373 . S
C3507 C3523 1.377 . S
C3508 C3506 1.389 . S
C3508 C3509 1.524 . S
C3508 C3522 1.377 . S
C3509 C3508 1.524 . S
C3509 C3510 1.397 . S
C3509 C3514 1.363 . S
C3510 H3487 0.950 . S
C3510 C3509 1.397 . S
C3510 C3511 1.334 . S
C3511 H3488 0.950 . S
C3511 C3510 1.334 . S
C3511 C3512 1.287 . S
C3512 C3511 1.287 . S
C3512 C3513 1.524 . S
C3512 H3531 0.913 . S
C3513 H3489 0.950 . S
C3513 C3512 1.524 . S
C3513 C3514 1.415 . S
C3514 H3490 0.950 . S
C3514 C3509 1.363 . S
C3514 C3513 1.415 . S
C3515 H3491 0.951 . S
C3515 C3516 1.366 . S
C3515 C3517 1.388 . S
C3516 C3515 1.366 . S
C3516 C3520 1.385 . S
C3517 H3492 0.951 . S
C3517 C3515 1.388 . S
C3517 C3518 1.366 . S
C3518 C3517 1.366 . S
C3518 C3519 1.414 . S
C3518 C3521 1.499 . S
C3519 H3493 0.950 . S
C3519 C3518 1.414 . S
C3519 C3520 1.374 . S
C3520 H3494 0.950 . S
C3520 C3516 1.385 . S
C3520 C3519 1.374 . S
C3521 C3518 1.499 . S
C3521 C3522 1.373 . S
C3521 C3523 1.389 . S
C3522 H3495 0.950 . S
C3522 C3508 1.377 . S
C3522 C3521 1.373 . S
C3523 C3507 1.377 . S
C3523 C3521 1.389 . S
C3523 C3524 1.524 . S
C3524 C3523 1.524 . S
C3524 C3525 1.397 . S
C3524 C3529 1.363 . S
C3525 H3496 0.950 . S
C3525 C3524 1.397 . S
C3525 C3526 1.334 . S
C3526 H3497 0.950 . S
C3526 C3525 1.334 . S
C3526 C3527 1.287 . S
C3527 C3526 1.287 . S
C3527 C3528 1.524 . S
C3527 H3530 0.999 . S
C3528 H3498 0.950 . S
C3528 C3527 1.524 . S
C3528 C3529 1.415 . S
C3529 H3499 0.950 . S
C3529 C3524 1.363 . S
C3529 C3528 1.415 . S
H3530 C3527 0.999 . S
H3531 C3512 0.913 . S
H3532 C3550 0.951 . S
H3533 C3552 0.951 . S
H3534 C3554 0.950 . S
H3535 C3555 0.950 . S
H3536 C3557 0.950 . S
H3537 C3560 0.950 . S
H3538 C3561 0.950 . S
H3539 C3563 0.950 . S
H3540 C3564 0.950 . S
H3541 C3565 0.951 . S
H3542 C3567 0.951 . S
H3543 C3569 0.950 . S
H3544 C3570 0.950 . S
H3545 C3572 0.950 . S
H3546 C3575 0.950 . S
H3547 C3576 0.950 . S
H3548 C3578 0.950 . S
H3549 C3579 0.950 . S
C3550 H3532 0.951 . S
C3550 C3551 1.366 . S
C3550 C3552 1.388 . S
C3551 C3550 1.366 . S
C3551 C3555 1.385 . S
C3552 H3533 0.951 . S
C3552 C3550 1.388 . S
C3552 C3553 1.366 . S
C3553 C3552 1.366 . S
C3553 C3554 1.414 . S
C3553 C3556 1.499 . S
C3554 H3534 0.950 . S
C3554 C3553 1.414 . S
C3554 C3555 1.374 . S
C3555 H3535 0.950 . S
C3555 C3551 1.385 . S
C3555 C3554 1.374 . S
C3556 C3553 1.499 . S
C3556 C3557 1.373 . S
C3556 C3558 1.389 . S
C3557 H3536 0.950 . S
C3557 C3556 1.373 . S
C3557 C3573 1.377 . S
C3558 C3556 1.389 . S
C3558 C3559 1.524 . S
C3558 C3572 1.377 . S
C3559 C3558 1.524 . S
C3559 C3560 1.397 . S
C3559 C3564 1.363 . S
C3560 H3537 0.950 . S
C3560 C3559 1.397 . S
C3560 C3561 1.334 . S
C3561 H3538 0.950 . S
C3561 C3560 1.334 . S
C3561 C3562 1.287 . S
C3562 C3561 1.287 . S
C3562 C3563 1.524 . S
C3562 H3581 0.913 . S
C3563 H3539 0.950 . S
C3563 C3562 1.524 . S
C3563 C3564 1.415 . S
C3564 H3540 0.950 . S
C3564 C3559 1.363 . S
C3564 C3563 1.415 . S
C3565 H3541 0.951 . S
C3565 C3566 1.366 . S
C3565 C3567 1.388 . S
C3566 C3565 1.366 . S
C3566 C3570 1.385 . S
C3567 H3542 0.951 . S
C3567 C3565 1.388 . S
C3567 C3568 1.366 . S
C3568 C3567 1.366 . S
C3568 C3569 1.414 . S
C3568 C3571 1.499 . S
C3569 H3543 0.950 . S
C3569 C3568 1.414 . S
C3569 C3570 1.374 . S
C3570 H3544 0.950 . S
C3570 C3566 1.385 . S
C3570 C3569 1.374 . S
C3571 C3568 1.499 . S
C3571 C3572 1.373 . S
C3571 C3573 1.389 . S
C3572 H3545 0.950 . S
C3572 C3558 1.377 . S
C3572 C3571 1.373 . S
C3573 C3557 1.377 . S
C3573 C3571 1.389 . S
C3573 C3574 1.524 . S
C3574 C3573 1.524 . S
C3574 C3575 1.397 . S
C3574 C3579 1.363 . S
C3575 H3546 0.950 . S
C3575 C3574 1.397 . S
C3575 C3576 1.334 . S
C3576 H3547 0.950 . S
C3576 C3575 1.334 . S
C3576 C3577 1.287 . S
C3577 C3576 1.287 . S
C3577 C3578 1.524 . S
C3577 H3580 0.999 . S
C3578 H3548 0.950 . S
C3578 C3577 1.524 . S
C3578 C3579 1.415 . S
C3579 H3549 0.950 . S
C3579 C3574 1.363 . S
C3579 C3578 1.415 . S
H3580 C3577 0.999 . S
H3581 C3562 0.913 . S
H3582 C3600 0.951 . S
H3583 C3602 0.951 . S
H3584 C3604 0.950 . S
H3585 C3605 0.950 . S
H3586 C3607 0.950 . S
H3587 C3610 0.950 . S
H3588 C3611 0.950 . S
H3589 C3613 0.950 . S
H3590 C3614 0.950 . S
H3591 C3615 0.951 . S
H3592 C3617 0.951 . S
H3593 C3619 0.950 . S
H3594 C3620 0.950 . S
H3595 C3622 0.950 . S
H3596 C3625 0.950 . S
H3597 C3626 0.950 . S
H3598 C3628 0.950 . S
H3599 C3629 0.950 . S
C3600 H3582 0.951 . S
C3600 C3601 1.366 . S
C3600 C3602 1.388 . S
C3601 C3600 1.366 . S
C3601 C3605 1.385 . S
C3602 H3583 0.951 . S
C3602 C3600 1.388 . S
C3602 C3603 1.366 . S
C3603 C3602 1.366 . S
C3603 C3604 1.414 . S
C3603 C3606 1.499 . S
C3604 H3584 0.950 . S
C3604 C3603 1.414 . S
C3604 C3605 1.374 . S
C3605 H3585 0.950 . S
C3605 C3601 1.385 . S
C3605 C3604 1.374 . S
C3606 C3603 1.499 . S
C3606 C3607 1.373 . S
C3606 C3608 1.389 . S
C3607 H3586 0.950 . S
C3607 C3606 1.373 . S
C3607 C3623 1.377 . S
C3608 C3606 1.389 . S
C3608 C3609 1.524 . S
C3608 C3622 1.377 . S
C3609 C3608 1.524 . S
C3609 C3610 1.397 . S
C3609 C3614 1.363 . S
C3610 H3587 0.950 . S
C3610 C3609 1.397 . S
C3610 C3611 1.334 . S
C3611 H3588 0.950 . S
C3611 C3610 1.334 . S
C3611 C3612 1.287 . S
C3612 C3611 1.287 . S
C3612 C3613 1.524 . S
C3612 H3631 0.913 . S
C3613 H3589 0.950 . S
C3613 C3612 1.524 . S
C3613 C3614 1.415 . S
C3614 H3590 0.950 . S
C3614 C3609 1.363 . S
C3614 C3613 1.415 . S
C3615 H3591 0.951 . S
C3615 C3616 1.366 . S
C3615 C3617 1.388 . S
C3616 C3615 1.366 . S
C3616 C3620 1.385 . S
C3617 H3592 0.951 . S
C3617 C3615 1.388 . S
C3617 C3618 1.366 . S
C3618 C3617 1.366 . S
C3618 C3619 1.414 . S
C3618 C3621 1.499 . S
C3619 H3593 0.950 . S
C3619 C3618 1.414 . S
C3619 C3620 1.374 . S
C3620 H3594 0.950 . S
C3620 C3616 1.385 . S
C3620 C3619 1.374 . S
C3621 C3618 1.499 . S
C3621 C3622 1.373 . S
C3621 C3623 1.389 . S
C3622 H3595 0.950 . S
C3622 C3608 1.377 . S
C3622 C3621 1.373 . S
C3623 C3607 1.377 . S
C3623 C3621 1.389 . S
C3623 C3624 1.524 . S
C3624 C3623 1.524 . S
C3624 C3625 1.397 . S
C3624 C3629 1.363 . S
C3625 H3596 0.950 . S
C3625 C3624 1.397 . S
C3625 C3626 1.334 . S
C3626 H3597 0.950 . S
C3626 C3625 1.334 . S
C3626 C3627 1.287 . S
C3627 C3626 1.287 . S
C3627 C3628 1.524 . S
C3627 H3630 0.999 . S
C3628 H3598 0.950 . S
C3628 C3627 1.524 . S
C3628 C3629 1.415 . S
C3629 H3599 0.950 . S
C3629 C3624 1.363 . S
C3629 C3628 1.415 . S
H3630 C3627 0.999 . S
H3631 C3612 0.913 . S
H3632 C3650 0.951 . S
H3633 C3652 0.951 . S
H3634 C3654 0.950 . S
H3635 C3655 0.950 . S
H3636 C3657 0.950 . S
H3637 C3660 0.950 . S
H3638 C3661 0.950 . S
H3639 C3663 0.950 . S
H3640 C3664 0.950 . S
H3641 C3665 0.951 . S
H3642 C3667 0.951 . S
H3643 C3669 0.950 . S
H3644 C3670 0.950 . S
H3645 C3672 0.950 . S
H3646 C3675 0.950 . S
H3647 C3676 0.950 . S
H3648 C3678 0.950 . S
H3649 C3679 0.950 . S
C3650 H3632 0.951 . S
C3650 C3651 1.366 . S
C3650 C3652 1.388 . S
C3651 C3650 1.366 . S
C3651 C3655 1.385 . S
C3652 H3633 0.951 . S
C3652 C3650 1.388 . S
C3652 C3653 1.366 . S
C3653 C3652 1.366 . S
C3653 C3654 1.414 . S
C3653 C3656 1.499 . S
C3654 H3634 0.950 . S
C3654 C3653 1.414 . S
C3654 C3655 1.374 . S
C3655 H3635 0.950 . S
C3655 C3651 1.385 . S
C3655 C3654 1.374 . S
C3656 C3653 1.499 . S
C3656 C3657 1.373 . S
C3656 C3658 1.389 . S
C3657 H3636 0.950 . S
C3657 C3656 1.373 . S
C3657 C3673 1.377 . S
C3658 C3656 1.389 . S
C3658 C3659 1.524 . S
C3658 C3672 1.377 . S
C3659 C3658 1.524 . S
C3659 C3660 1.397 . S
C3659 C3664 1.363 . S
C3660 H3637 0.950 . S
C3660 C3659 1.397 . S
C3660 C3661 1.334 . S
C3661 H3638 0.950 . S
C3661 C3660 1.334 . S
C3661 C3662 1.287 . S
C3662 C3661 1.287 . S
C3662 C3663 1.524 . S
C3662 H3681 0.913 . S
C3663 H3639 0.950 . S
C3663 C3662 1.524 . S
C3663 C3664 1.415 . S
C3664 H3640 0.950 . S
C3664 C3659 1.363 . S
C3664 C3663 1.415 . S
C3665 H3641 0.951 . S
C3665 C3666 1.366 . S
C3665 C3667 1.388 . S
C3666 C3665 1.366 . S
C3666 C3670 1.385 . S
C3667 H3642 0.951 . S
C3667 C3665 1.388 . S
C3667 C3668 1.366 . S
C3668 C3667 1.366 . S
C3668 C3669 1.414 . S
C3668 C3671 1.499 . S
C3669 H3643 0.950 . S
C3669 C3668 1.414 . S
C3669 C3670 1.374 . S
C3670 H3644 0.950 . S
C3670 C3666 1.385 . S
C3670 C3669 1.374 . S
C3671 C3668 1.499 . S
C3671 C3672 1.373 . S
C3671 C3673 1.389 . S
C3672 H3645 0.950 . S
C3672 C3658 1.377 . S
C3672 C3671 1.373 . S
C3673 C3657 1.377 . S
C3673 C3671 1.389 . S
C3673 C3674 1.524 . S
C3674 C3673 1.524 . S
C3674 C3675 1.397 . S
C3674 C3679 1.363 . S
C3675 H3646 0.950 . S
C3675 C3674 1.397 . S
C3675 C3676 1.334 . S
C3676 H3647 0.950 . S
C3676 C3675 1.334 . S
C3676 C3677 1.287 . S
C3677 C3676 1.287 . S
C3677 C3678 1.524 . S
C3677 H3680 0.999 . S
C3678 H3648 0.950 . S
C3678 C3677 1.524 . S
C3678 C3679 1.415 . S
C3679 H3649 0.950 . S
C3679 C3674 1.363 . S
C3679 C3678 1.415 . S
H3680 C3677 0.999 . S
H3681 C3662 0.913 . S
H3682 C3700 0.951 . S
H3683 C3702 0.951 . S
H3684 C3704 0.950 . S
H3685 C3705 0.950 . S
H3686 C3707 0.950 . S
H3687 C3710 0.950 . S
H3688 C3711 0.950 . S
H3689 C3713 0.950 . S
H3690 C3714 0.950 . S
H3691 C3715 0.951 . S
H3692 C3717 0.951 . S
H3693 C3719 0.950 . S
H3694 C3720 0.950 . S
H3695 C3722 0.950 . S
H3696 C3725 0.950 . S
H3697 C3726 0.950 . S
H3698 C3728 0.950 . S
H3699 C3729 0.950 . S
C3700 H3682 0.951 . S
C3700 C3701 1.366 . S
C3700 C3702 1.388 . S
C3701 C3700 1.366 . S
C3701 C3705 1.385 . S
C3702 H3683 0.951 . S
C3702 C3700 1.388 . S
C3702 C3703 1.366 . S
C3703 C3702 1.366 . S
C3703 C3704 1.414 . S
C3703 C3706 1.499 . S
C3704 H3684 0.950 . S
C3704 C3703 1.414 . S
C3704 C3705 1.374 . S
C3705 H3685 0.950 . S
C3705 C3701 1.385 . S
C3705 C3704 1.374 . S
C3706 C3703 1.499 . S
C3706 C3707 1.373 . S
C3706 C3708 1.389 . S
C3707 H3686 0.950 . S
C3707 C3706 1.373 . S
C3707 C3723 1.377 . S
C3708 C3706 1.389 . S
C3708 C3709 1.524 . S
C3708 C3722 1.377 . S
C3709 C3708 1.524 . S
C3709 C3710 1.397 . S
C3709 C3714 1.363 . S
C3710 H3687 0.950 . S
C3710 C3709 1.397 . S
C3710 C3711 1.334 . S
C3711 H3688 0.950 . S
C3711 C3710 1.334 . S
C3711 C3712 1.287 . S
C3712 C3711 1.287 . S
C3712 C3713 1.524 . S
C3712 H3731 0.913 . S
C3713 H3689 0.950 . S
C3713 C3712 1.524 . S
C3713 C3714 1.415 . S
C3714 H3690 0.950 . S
C3714 C3709 1.363 . S
C3714 C3713 1.415 . S
C3715 H3691 0.951 . S
C3715 C3716 1.366 . S
C3715 C3717 1.388 . S
C3716 C3715 1.366 . S
C3716 C3720 1.385 . S
C3717 H3692 0.951 . S
C3717 C3715 1.388 . S
C3717 C3718 1.366 . S
C3718 C3717 1.366 . S
C3718 C3719 1.414 . S
C3718 C3721 1.499 . S
C3719 H3693 0.950 . S
C3719 C3718 1.414 . S
C3719 C3720 1.374 . S
C3720 H3694 0.950 . S
C3720 C3716 1.385 . S
C3720 C3719 1.374 . S
C3721 C3718 1.499 . S
C3721 C3722 1.373 . S
C3721 C3723 1.389 . S
C3722 H3695 0.950 . S
C3722 C3708 1.377 . S
C3722 C3721 1.373 . S
C3723 C3707 1.377 . S
C3723 C3721 1.389 . S
C3723 C3724 1.524 . S
C3724 C3723 1.524 . S
C3724 C3725 1.397 . S
C3724 C3729 1.363 . S
C3725 H3696 0.950 . S
C3725 C3724 1.397 . S
C3725 C3726 1.334 . S
C3726 H3697 0.950 . S
C3726 C3725 1.334 . S
C3726 C3727 1.287 . S
C3727 C3726 1.287 . S
C3727 C3728 1.524 . S
C3727 H3730 0.999 . S
C3728 H3698 0.950 . S
C3728 C3727 1.524 . S
C3728 C3729 1.415 . S
C3729 H3699 0.950 . S
C3729 C3724 1.363 . S
C3729 C3728 1.415 . S
H3730 C3727 0.999 . S
H3731 C3712 0.913 . S
H3732 C3750 0.951 . S
H3733 C3752 0.951 . S
H3734 C3754 0.950 . S
H3735 C3755 0.950 . S
H3736 C3757 0.950 . S
H3737 C3760 0.950 . S
H3738 C3761 0.950 . S
H3739 C3763 0.950 . S
H3740 C3764 0.950 . S
H3741 C3765 0.951 . S
H3742 C3767 0.951 . S
H3743 C3769 0.950 . S
H3744 C3770 0.950 . S
H3745 C3772 0.950 . S
H3746 C3775 0.950 . S
H3747 C3776 0.950 . S
H3748 C3778 0.950 . S
H3749 C3779 0.950 . S
C3750 H3732 0.951 . S
C3750 C3751 1.366 . S
C3750 C3752 1.388 . S
C3751 C3750 1.366 . S
C3751 C3755 1.385 . S
C3752 H3733 0.951 . S
C3752 C3750 1.388 . S
C3752 C3753 1.366 . S
C3753 C3752 1.366 . S
C3753 C3754 1.414 . S
C3753 C3756 1.499 . S
C3754 H3734 0.950 . S
C3754 C3753 1.414 . S
C3754 C3755 1.374 . S
C3755 H3735 0.950 . S
C3755 C3751 1.385 . S
C3755 C3754 1.374 . S
C3756 C3753 1.499 . S
C3756 C3757 1.373 . S
C3756 C3758 1.389 . S
C3757 H3736 0.950 . S
C3757 C3756 1.373 . S
C3757 C3773 1.377 . S
C3758 C3756 1.389 . S
C3758 C3759 1.524 . S
C3758 C3772 1.377 . S
C3759 C3758 1.524 . S
C3759 C3760 1.397 . S
C3759 C3764 1.363 . S
C3760 H3737 0.950 . S
C3760 C3759 1.397 . S
C3760 C3761 1.334 . S
C3761 H3738 0.950 . S
C3761 C3760 1.334 . S
C3761 C3762 1.287 . S
C3762 C3761 1.287 . S
C3762 C3763 1.524 . S
C3762 H3781 0.913 . S
C3763 H3739 0.950 . S
C3763 C3762 1.524 . S
C3763 C3764 1.415 . S
C3764 H3740 0.950 . S
C3764 C3759 1.363 . S
C3764 C3763 1.415 . S
C3765 H3741 0.951 . S
C3765 C3766 1.366 . S
C3765 C3767 1.388 . S
C3766 C3765 1.366 . S
C3766 C3770 1.385 . S
C3767 H3742 0.951 . S
C3767 C3765 1.388 . S
C3767 C3768 1.366 . S
C3768 C3767 1.366 . S
C3768 C3769 1.414 . S
C3768 C3771 1.499 . S
C3769 H3743 0.950 . S
C3769 C3768 1.414 . S
C3769 C3770 1.374 . S
C3770 H3744 0.950 . S
C3770 C3766 1.385 . S
C3770 C3769 1.374 . S
C3771 C3768 1.499 . S
C3771 C3772 1.373 . S
C3771 C3773 1.389 . S
C3772 H3745 0.950 . S
C3772 C3758 1.377 . S
C3772 C3771 1.373 . S
C3773 C3757 1.377 . S
C3773 C3771 1.389 . S
C3773 C3774 1.524 . S
C3774 C3773 1.524 . S
C3774 C3775 1.397 . S
C3774 C3779 1.363 . S
C3775 H3746 0.950 . S
C3775 C3774 1.397 . S
C3775 C3776 1.334 . S
C3776 H3747 0.950 . S
C3776 C3775 1.334 . S
C3776 C3777 1.287 . S
C3777 C3776 1.287 . S
C3777 C3778 1.524 . S
C3777 H3780 0.999 . S
C3778 H3748 0.950 . S
C3778 C3777 1.524 . S
C3778 C3779 1.415 . S
C3779 H3749 0.950 . S
C3779 C3774 1.363 . S
C3779 C3778 1.415 . S
H3780 C3777 0.999 . S
H3781 C3762 0.913 . S
H3782 C3800 0.951 . S
H3783 C3802 0.951 . S
H3784 C3804 0.950 . S
H3785 C3805 0.950 . S
H3786 C3807 0.950 . S
H3787 C3810 0.950 . S
H3788 C3811 0.950 . S
H3789 C3813 0.950 . S
H3790 C3814 0.950 . S
H3791 C3815 0.951 . S
H3792 C3817 0.951 . S
H3793 C3819 0.950 . S
H3794 C3820 0.950 . S
H3795 C3822 0.950 . S
H3796 C3825 0.950 . S
H3797 C3826 0.950 . S
H3798 C3828 0.950 . S
H3799 C3829 0.950 . S
C3800 H3782 0.951 . S
C3800 C3801 1.366 . S
C3800 C3802 1.388 . S
C3801 C3800 1.366 . S
C3801 C3805 1.385 . S
C3802 H3783 0.951 . S
C3802 C3800 1.388 . S
C3802 C3803 1.366 . S
C3803 C3802 1.366 . S
C3803 C3804 1.414 . S
C3803 C3806 1.499 . S
C3804 H3784 0.950 . S
C3804 C3803 1.414 . S
C3804 C3805 1.374 . S
C3805 H3785 0.950 . S
C3805 C3801 1.385 . S
C3805 C3804 1.374 . S
C3806 C3803 1.499 . S
C3806 C3807 1.373 . S
C3806 C3808 1.389 . S
C3807 H3786 0.950 . S
C3807 C3806 1.373 . S
C3807 C3823 1.377 . S
C3808 C3806 1.389 . S
C3808 C3809 1.524 . S
C3808 C3822 1.377 . S
C3809 C3808 1.524 . S
C3809 C3810 1.397 . S
C3809 C3814 1.363 . S
C3810 H3787 0.950 . S
C3810 C3809 1.397 . S
C3810 C3811 1.334 . S
C3811 H3788 0.950 . S
C3811 C3810 1.334 . S
C3811 C3812 1.287 . S
C3812 C3811 1.287 . S
C3812 C3813 1.524 . S
C3812 H3831 0.913 . S
C3813 H3789 0.950 . S
C3813 C3812 1.524 . S
C3813 C3814 1.415 . S
C3814 H3790 0.950 . S
C3814 C3809 1.363 . S
C3814 C3813 1.415 . S
C3815 H3791 0.951 . S
C3815 C3816 1.366 . S
C3815 C3817 1.388 . S
C3816 C3815 1.366 . S
C3816 C3820 1.385 . S
C3817 H3792 0.951 . S
C3817 C3815 1.388 . S
C3817 C3818 1.366 . S
C3818 C3817 1.366 . S
C3818 C3819 1.414 . S
C3818 C3821 1.499 . S
C3819 H3793 0.950 . S
C3819 C3818 1.414 . S
C3819 C3820 1.374 . S
C3820 H3794 0.950 . S
C3820 C3816 1.385 . S
C3820 C3819 1.374 . S
C3821 C3818 1.499 . S
C3821 C3822 1.373 . S
C3821 C3823 1.389 . S
C3822 H3795 0.950 . S
C3822 C3808 1.377 . S
C3822 C3821 1.373 . S
C3823 C3807 1.377 . S
C3823 C3821 1.389 . S
C3823 C3824 1.524 . S
C3824 C3823 1.524 . S
C3824 C3825 1.397 . S
C3824 C3829 1.363 . S
C3825 H3796 0.950 . S
C3825 C3824 1.397 . S
C3825 C3826 1.334 . S
C3826 H3797 0.950 . S
C3826 C3825 1.334 . S
C3826 C3827 1.287 . S
C3827 C3826 1.287 . S
C3827 C3828 1.524 . S
C3827 H3830 0.999 . S
C3828 H3798 0.950 . S
C3828 C3827 1.524 . S
C3828 C3829 1.415 . S
C3829 H3799 0.950 . S
C3829 C3824 1.363 . S
C3829 C3828 1.415 . S
H3830 C3827 0.999 . S
H3831 C3812 0.913 . S
H3832 C3850 0.951 . S
H3833 C3852 0.951 . S
H3834 C3854 0.950 . S
H3835 C3855 0.950 . S
H3836 C3857 0.950 . S
H3837 C3860 0.950 . S
H3838 C3861 0.950 . S
H3839 C3863 0.950 . S
H3840 C3864 0.950 . S
H3841 C3865 0.951 . S
H3842 C3867 0.951 . S
H3843 C3869 0.950 . S
H3844 C3870 0.950 . S
H3845 C3872 0.950 . S
H3846 C3875 0.950 . S
H3847 C3876 0.950 . S
H3848 C3878 0.950 . S
H3849 C3879 0.950 . S
C3850 H3832 0.951 . S
C3850 C3851 1.366 . S
C3850 C3852 1.388 . S
C3851 C3850 1.366 . S
C3851 C3855 1.385 . S
C3852 H3833 0.951 . S
C3852 C3850 1.388 . S
C3852 C3853 1.366 . S
C3853 C3852 1.366 . S
C3853 C3854 1.414 . S
C3853 C3856 1.499 . S
C3854 H3834 0.950 . S
C3854 C3853 1.414 . S
C3854 C3855 1.374 . S
C3855 H3835 0.950 . S
C3855 C3851 1.385 . S
C3855 C3854 1.374 . S
C3856 C3853 1.499 . S
C3856 C3857 1.373 . S
C3856 C3858 1.389 . S
C3857 H3836 0.950 . S
C3857 C3856 1.373 . S
C3857 C3873 1.377 . S
C3858 C3856 1.389 . S
C3858 C3859 1.524 . S
C3858 C3872 1.377 . S
C3859 C3858 1.524 . S
C3859 C3860 1.397 . S
C3859 C3864 1.363 . S
C3860 H3837 0.950 . S
C3860 C3859 1.397 . S
C3860 C3861 1.334 . S
C3861 H3838 0.950 . S
C3861 C3860 1.334 . S
C3861 C3862 1.287 . S
C3862 C3861 1.287 . S
C3862 C3863 1.524 . S
C3862 H3881 0.913 . S
C3863 H3839 0.950 . S
C3863 C3862 1.524 . S
C3863 C3864 1.415 . S
C3864 H3840 0.950 . S
C3864 C3859 1.363 . S
C3864 C3863 1.415 . S
C3865 H3841 0.951 . S
C3865 C3866 1.366 . S
C3865 C3867 1.388 . S
C3866 C3865 1.366 . S
C3866 C3870 1.385 . S
C3867 H3842 0.951 . S
C3867 C3865 1.388 . S
C3867 C3868 1.366 . S
C3868 C3867 1.366 . S
C3868 C3869 1.414 . S
C3868 C3871 1.499 . S
C3869 H3843 0.950 . S
C3869 C3868 1.414 . S
C3869 C3870 1.374 . S
C3870 H3844 0.950 . S
C3870 C3866 1.385 . S
C3870 C3869 1.374 . S
C3871 C3868 1.499 . S
C3871 C3872 1.373 . S
C3871 C3873 1.389 . S
C3872 H3845 0.950 . S
C3872 C3858 1.377 . S
C3872 C3871 1.373 . S
C3873 C3857 1.377 . S
C3873 C3871 1.389 . S
C3873 C3874 1.524 . S
C3874 C3873 1.524 . S
C3874 C3875 1.397 . S
C3874 C3879 1.363 . S
C3875 H3846 0.950 . S
C3875 C3874 1.397 . S
C3875 C3876 1.334 . S
C3876 H3847 0.950 . S
C3876 C3875 1.334 . S
C3876 C3877 1.287 . S
C3877 C3876 1.287 . S
C3877 C3878 1.524 . S
C3877 H3880 0.999 . S
C3878 H3848 0.950 . S
C3878 C3877 1.524 . S
C3878 C3879 1.415 . S
C3879 H3849 0.950 . S
C3879 C3874 1.363 . S
C3879 C3878 1.415 . S
H3880 C3877 0.999 . S
H3881 C3862 0.913 . S
H3882 C3900 0.951 . S
H3883 C3902 0.951 . S
H3884 C3904 0.950 . S
H3885 C3905 0.950 . S
H3886 C3907 0.950 . S
H3887 C3910 0.950 . S
H3888 C3911 0.950 . S
H3889 C3913 0.950 . S
H3890 C3914 0.950 . S
H3891 C3915 0.951 . S
H3892 C3917 0.951 . S
H3893 C3919 0.950 . S
H3894 C3920 0.950 . S
H3895 C3922 0.950 . S
H3896 C3925 0.950 . S
H3897 C3926 0.950 . S
H3898 C3928 0.950 . S
H3899 C3929 0.950 . S
C3900 H3882 0.951 . S
C3900 C3901 1.366 . S
C3900 C3902 1.388 . S
C3901 C3900 1.366 . S
C3901 C3905 1.385 . S
C3902 H3883 0.951 . S
C3902 C3900 1.388 . S
C3902 C3903 1.366 . S
C3903 C3902 1.366 . S
C3903 C3904 1.414 . S
C3903 C3906 1.499 . S
C3904 H3884 0.950 . S
C3904 C3903 1.414 . S
C3904 C3905 1.374 . S
C3905 H3885 0.950 . S
C3905 C3901 1.385 . S
C3905 C3904 1.374 . S
C3906 C3903 1.499 . S
C3906 C3907 1.373 . S
C3906 C3908 1.389 . S
C3907 H3886 0.950 . S
C3907 C3906 1.373 . S
C3907 C3923 1.377 . S
C3908 C3906 1.389 . S
C3908 C3909 1.524 . S
C3908 C3922 1.377 . S
C3909 C3908 1.524 . S
C3909 C3910 1.397 . S
C3909 C3914 1.363 . S
C3910 H3887 0.950 . S
C3910 C3909 1.397 . S
C3910 C3911 1.334 . S
C3911 H3888 0.950 . S
C3911 C3910 1.334 . S
C3911 C3912 1.287 . S
C3912 C3911 1.287 . S
C3912 C3913 1.524 . S
C3912 H3931 0.913 . S
C3913 H3889 0.950 . S
C3913 C3912 1.524 . S
C3913 C3914 1.415 . S
C3914 H3890 0.950 . S
C3914 C3909 1.363 . S
C3914 C3913 1.415 . S
C3915 H3891 0.951 . S
C3915 C3916 1.366 . S
C3915 C3917 1.388 . S
C3916 C3915 1.366 . S
C3916 C3920 1.385 . S
C3917 H3892 0.951 . S
C3917 C3915 1.388 . S
C3917 C3918 1.366 . S
C3918 C3917 1.366 . S
C3918 C3919 1.414 . S
C3918 C3921 1.499 . S
C3919 H3893 0.950 . S
C3919 C3918 1.414 . S
C3919 C3920 1.374 . S
C3920 H3894 0.950 . S
C3920 C3916 1.385 . S
C3920 C3919 1.374 . S
C3921 C3918 1.499 . S
C3921 C3922 1.373 . S
C3921 C3923 1.389 . S
C3922 H3895 0.950 . S
C3922 C3908 1.377 . S
C3922 C3921 1.373 . S
C3923 C3907 1.377 . S
C3923 C3921 1.389 . S
C3923 C3924 1.524 . S
C3924 C3923 1.524 . S
C3924 C3925 1.397 . S
C3924 C3929 1.363 . S
C3925 H3896 0.950 . S
C3925 C3924 1.397 . S
C3925 C3926 1.334 . S
C3926 H3897 0.950 . S
C3926 C3925 1.334 . S
C3926 C3927 1.287 . S
C3927 C3926 1.287 . S
C3927 C3928 1.524 . S
C3927 H3930 0.999 . S
C3928 H3898 0.950 . S
C3928 C3927 1.524 . S
C3928 C3929 1.415 . S
C3929 H3899 0.950 . S
C3929 C3924 1.363 . S
C3929 C3928 1.415 . S
H3930 C3927 0.999 . S
H3931 C3912 0.913 . S
H3932 C3950 0.951 . S
H3933 C3952 0.951 . S
H3934 C3954 0.950 . S
H3935 C3955 0.950 . S
H3936 C3957 0.950 . S
H3937 C3960 0.950 . S
H3938 C3961 0.950 . S
H3939 C3963 0.950 . S
H3940 C3964 0.950 . S
H3941 C3965 0.951 . S
H3942 C3967 0.951 . S
H3943 C3969 0.950 . S
H3944 C3970 0.950 . S
H3945 C3972 0.950 . S
H3946 C3975 0.950 . S
H3947 C3976 0.950 . S
H3948 C3978 0.950 . S
H3949 C3979 0.950 . S
C3950 H3932 0.951 . S
C3950 C3951 1.366 . S
C3950 C3952 1.388 . S
C3951 C3950 1.366 . S
C3951 C3955 1.385 . S
C3952 H3933 0.951 . S
C3952 C3950 1.388 . S
C3952 C3953 1.366 . S
C3953 C3952 1.366 . S
C3953 C3954 1.414 . S
C3953 C3956 1.499 . S
C3954 H3934 0.950 . S
C3954 C3953 1.414 . S
C3954 C3955 1.374 . S
C3955 H3935 0.950 . S
C3955 C3951 1.385 . S
C3955 C3954 1.374 . S
C3956 C3953 1.499 . S
C3956 C3957 1.373 . S
C3956 C3958 1.389 . S
C3957 H3936 0.950 . S
C3957 C3956 1.373 . S
C3957 C3973 1.377 . S
C3958 C3956 1.389 . S
C3958 C3959 1.524 . S
C3958 C3972 1.377 . S
C3959 C3958 1.524 . S
C3959 C3960 1.397 . S
C3959 C3964 1.363 . S
C3960 H3937 0.950 . S
C3960 C3959 1.397 . S
C3960 C3961 1.334 . S
C3961 H3938 0.950 . S
C3961 C3960 1.334 . S
C3961 C3962 1.287 . S
C3962 C3961 1.287 . S
C3962 C3963 1.524 . S
C3962 H3981 0.913 . S
C3963 H3939 0.950 . S
C3963 C3962 1.524 . S
C3963 C3964 1.415 . S
C3964 H3940 0.950 . S
C3964 C3959 1.363 . S
C3964 C3963 1.415 . S
C3965 H3941 0.951 . S
C3965 C3966 1.366 . S
C3965 C3967 1.388 . S
C3966 C3965 1.366 . S
C3966 C3970 1.385 . S
C3967 H3942 0.951 . S
C3967 C3965 1.388 . S
C3967 C3968 1.366 . S
C3968 C3967 1.366 . S
C3968 C3969 1.414 . S
C3968 C3971 1.499 . S
C3969 H3943 0.950 . S
C3969 C3968 1.414 . S
C3969 C3970 1.374 . S
C3970 H3944 0.950 . S
C3970 C3966 1.385 . S
C3970 C3969 1.374 . S
C3971 C3968 1.499 . S
C3971 C3972 1.373 . S
C3971 C3973 1.389 . S
C3972 H3945 0.950 . S
C3972 C3958 1.377 . S
C3972 C3971 1.373 . S
C3973 C3957 1.377 . S
C3973 C3971 1.389 . S
C3973 C3974 1.524 . S
C3974 C3973 1.524 . S
C3974 C3975 1.397 . S
C3974 C3979 1.363 . S
C3975 H3946 0.950 . S
C3975 C3974 1.397 . S
C3975 C3976 1.334 . S
C3976 H3947 0.950 . S
C3976 C3975 1.334 . S
C3976 C3977 1.287 . S
C3977 C3976 1.287 . S
C3977 C3978 1.524 . S
C3977 H3980 0.999 . S
C3978 H3948 0.950 . S
C3978 C3977 1.524 . S
C3978 C3979 1.415 . S
C3979 H3949 0.950 . S
C3979 C3974 1.363 . S
C3979 C3978 1.415 . S
H3980 C3977 0.999 . S
H3981 C3962 0.913 . S
H3982 C4000 0.951 . S
H3983 C4002 0.951 . S
H3984 C4004 0.950 . S
H3985 C4005 0.950 . S
H3986 C4007 0.950 . S
H3987 C4010 0.950 . S
H3988 C4011 0.950 . S
H3989 C4013 0.950 . S
H3990 C4014 0.950 . S
H3991 C4015 0.951 . S
H3992 C4017 0.951 . S
H3993 C4019 0.950 . S
H3994 C4020 0.950 . S
H3995 C4022 0.950 . S
H3996 C4025 0.950 . S
H3997 C4026 0.950 . S
H3998 C4028 0.950 . S
H3999 C4029 0.950 . S
C4000 H3982 0.951 . S
C4000 C4001 1.366 . S
C4000 C4002 1.388 . S
C4001 C4000 1.366 . S
C4001 C4005 1.385 . S
C4002 H3983 0.951 . S
C4002 C4000 1.388 . S
C4002 C4003 1.366 . S
C4003 C4002 1.366 . S
C4003 C4004 1.414 . S
C4003 C4006 1.499 . S
C4004 H3984 0.950 . S
C4004 C4003 1.414 . S
C4004 C4005 1.374 . S
C4005 H3985 0.950 . S
C4005 C4001 1.385 . S
C4005 C4004 1.374 . S
C4006 C4003 1.499 . S
C4006 C4007 1.373 . S
C4006 C4008 1.389 . S
C4007 H3986 0.950 . S
C4007 C4006 1.373 . S
C4007 C4023 1.377 . S
C4008 C4006 1.389 . S
C4008 C4009 1.524 . S
C4008 C4022 1.377 . S
C4009 C4008 1.524 . S
C4009 C4010 1.397 . S
C4009 C4014 1.363 . S
C4010 H3987 0.950 . S
C4010 C4009 1.397 . S
C4010 C4011 1.334 . S
C4011 H3988 0.950 . S
C4011 C4010 1.334 . S
C4011 C4012 1.287 . S
C4012 C4011 1.287 . S
C4012 C4013 1.524 . S
C4012 H4031 0.913 . S
C4013 H3989 0.950 . S
C4013 C4012 1.524 . S
C4013 C4014 1.415 . S
C4014 H3990 0.950 . S
C4014 C4009 1.363 . S
C4014 C4013 1.415 . S
C4015 H3991 0.951 . S
C4015 C4016 1.366 . S
C4015 C4017 1.388 . S
C4016 C4015 1.366 . S
C4016 C4020 1.385 . S
C4017 H3992 0.951 . S
C4017 C4015 1.388 . S
C4017 C4018 1.366 . S
C4018 C4017 1.366 . S
C4018 C4019 1.414 . S
C4018 C4021 1.499 . S
C4019 H3993 0.950 . S
C4019 C4018 1.414 . S
C4019 C4020 1.374 . S
C4020 H3994 0.950 . S
C4020 C4016 1.385 . S
C4020 C4019 1.374 . S
C4021 C4018 1.499 . S
C4021 C4022 1.373 . S
C4021 C4023 1.389 . S
C4022 H3995 0.950 . S
C4022 C4008 1.377 . S
C4022 C4021 1.373 . S
C4023 C4007 1.377 . S
C4023 C4021 1.389 . S
C4023 C4024 1.524 . S
C4024 C4023 1.524 . S
C4024 C4025 1.397 . S
C4024 C4029 1.363 . S
C4025 H3996 0.950 . S
C4025 C4024 1.397 . S
C4025 C4026 1.334 . S
C4026 H3997 0.950 . S
C4026 C4025 1.334 . S
C4026 C4027 1.287 . S
C4027 C4026 1.287 . S
C4027 C4028 1.524 . S
C4027 H4030 0.999 . S
C4028 H3998 0.950 . S
C4028 C4027 1.524 . S
C4028 C4029 1.415 . S
C4029 H3999 0.950 . S
C4029 C4024 1.363 . S
C4029 C4028 1.415 . S
H4030 C4027 0.999 . S
H4031 C4012 0.913 . S
H4032 C4050 0.951 . S
H4033 C4052 0.951 . S
H4034 C4054 0.950 . S
H4035 C4055 0.950 . S
H4036 C4057 0.950 . S
H4037 C4060 0.950 . S
H4038 C4061 0.950 . S
H4039 C4063 0.950 . S
H4040 C4064 0.950 . S
H4041 C4065 0.951 . S
H4042 C4067 0.951 . S
H4043 C4069 0.950 . S
H4044 C4070 0.950 . S
H4045 C4072 0.950 . S
H4046 C4075 0.950 . S
H4047 C4076 0.950 . S
H4048 C4078 0.950 . S
H4049 C4079 0.950 . S
C4050 H4032 0.951 . S
C4050 C4051 1.366 . S
C4050 C4052 1.388 . S
C4051 C4050 1.366 . S
C4051 C4055 1.385 . S
C4052 H4033 0.951 . S
C4052 C4050 1.388 . S
C4052 C4053 1.366 . S
C4053 C4052 1.366 . S
C4053 C4054 1.414 . S
C4053 C4056 1.499 . S
C4054 H4034 0.950 . S
C4054 C4053 1.414 . S
C4054 C4055 1.374 . S
C4055 H4035 0.950 . S
C4055 C4051 1.385 . S
C4055 C4054 1.374 . S
C4056 C4053 1.499 . S
C4056 C4057 1.373 . S
C4056 C4058 1.389 . S
C4057 H4036 0.950 . S
C4057 C4056 1.373 . S
C4057 C4073 1.377 . S
C4058 C4056 1.389 . S
C4058 C4059 1.524 . S
C4058 C4072 1.377 . S
C4059 C4058 1.524 . S
C4059 C4060 1.397 . S
C4059 C4064 1.363 . S
C4060 H4037 0.950 . S
C4060 C4059 1.397 . S
C4060 C4061 1.334 . S
C4061 H4038 0.950 . S
C4061 C4060 1.334 . S
C4061 C4062 1.287 . S
C4062 C4061 1.287 . S
C4062 C4063 1.524 . S
C4062 H4081 0.913 . S
C4063 H4039 0.950 . S
C4063 C4062 1.524 . S
C4063 C4064 1.415 . S
C4064 H4040 0.950 . S
C4064 C4059 1.363 . S
C4064 C4063 1.415 . S
C4065 H4041 0.951 . S
C4065 C4066 1.366 . S
C4065 C4067 1.388 . S
C4066 C4065 1.366 . S
C4066 C4070 1.385 . S
C4067 H4042 0.951 . S
C4067 C4065 1.388 . S
C4067 C4068 1.366 . S
C4068 C4067 1.366 . S
C4068 C4069 1.414 . S
C4068 C4071 1.499 . S
C4069 H4043 0.950 . S
C4069 C4068 1.414 . S
C4069 C4070 1.374 . S
C4070 H4044 0.950 . S
C4070 C4066 1.385 . S
C4070 C4069 1.374 . S
C4071 C4068 1.499 . S
C4071 C4072 1.373 . S
C4071 C4073 1.389 . S
C4072 H4045 0.950 . S
C4072 C4058 1.377 . S
C4072 C4071 1.373 . S
C4073 C4057 1.377 . S
C4073 C4071 1.389 . S
C4073 C4074 1.524 . S
C4074 C4073 1.524 . S
C4074 C4075 1.397 . S
C4074 C4079 1.363 . S
C4075 H4046 0.950 . S
C4075 C4074 1.397 . S
C4075 C4076 1.334 . S
C4076 H4047 0.950 . S
C4076 C4075 1.334 . S
C4076 C4077 1.287 . S
C4077 C4076 1.287 . S
C4077 C4078 1.524 . S
C4077 H4080 0.999 . S
C4078 H4048 0.950 . S
C4078 C4077 1.524 . S
C4078 C4079 1.415 . S
C4079 H4049 0.950 . S
C4079 C4074 1.363 . S
C4079 C4078 1.415 . S
H4080 C4077 0.999 . S
H4081 C4062 0.913 . S
H4082 C4100 0.951 . S
H4083 C4102 0.951 . S
H4084 C4104 0.950 . S
H4085 C4105 0.950 . S
H4086 C4107 0.950 . S
H4087 C4110 0.950 . S
H4088 C4111 0.950 . S
H4089 C4113 0.950 . S
H4090 C4114 0.950 . S
H4091 C4115 0.951 . S
H4092 C4117 0.951 . S
H4093 C4119 0.950 . S
H4094 C4120 0.950 . S
H4095 C4122 0.950 1_554 S
H4096 C4125 0.950 . S
H4097 C4126 0.950 . S
H4098 C4128 0.950 . S
H4099 C4129 0.950 . S
C4100 H4082 0.951 . S
C4100 C4101 1.366 . S
C4100 C4102 1.388 . S
C4101 C4100 1.366 . S
C4101 C4105 1.385 . S
C4102 H4083 0.951 . S
C4102 C4100 1.388 . S
C4102 C4103 1.366 . S
C4103 C4102 1.366 . S
C4103 C4104 1.414 . S
C4103 C4106 1.499 . S
C4104 H4084 0.950 . S
C4104 C4103 1.414 . S
C4104 C4105 1.374 . S
C4105 H4085 0.950 . S
C4105 C4101 1.385 . S
C4105 C4104 1.374 . S
C4106 C4103 1.499 . S
C4106 C4107 1.373 . S
C4106 C4108 1.389 . S
C4107 H4086 0.950 . S
C4107 C4106 1.373 . S
C4107 C4123 1.377 . S
C4108 C4106 1.389 . S
C4108 C4109 1.524 . S
C4108 C4122 1.377 . S
C4109 C4108 1.524 . S
C4109 C4110 1.397 . S
C4109 C4114 1.363 . S
C4110 H4087 0.950 . S
C4110 C4109 1.397 . S
C4110 C4111 1.334 . S
C4111 H4088 0.950 . S
C4111 C4110 1.334 . S
C4111 C4112 1.287 . S
C4112 C4111 1.287 . S
C4112 C4113 1.524 . S
C4112 H4131 0.913 . S
C4113 H4089 0.950 . S
C4113 C4112 1.524 . S
C4113 C4114 1.415 . S
C4114 H4090 0.950 . S
C4114 C4109 1.363 . S
C4114 C4113 1.415 . S
C4115 H4091 0.951 . S
C4115 C4116 1.366 . S
C4115 C4117 1.388 . S
C4116 C4115 1.366 . S
C4116 C4120 1.385 . S
C4117 H4092 0.951 . S
C4117 C4115 1.388 . S
C4117 C4118 1.366 . S
C4118 C4117 1.366 . S
C4118 C4119 1.414 . S
C4118 C4121 1.499 . S
C4119 H4093 0.950 . S
C4119 C4118 1.414 . S
C4119 C4120 1.374 . S
C4120 H4094 0.950 . S
C4120 C4116 1.385 . S
C4120 C4119 1.374 . S
C4121 C4118 1.499 . S
C4121 C4122 1.373 1_554 S
C4121 C4123 1.389 1_554 S
C4122 H4095 0.950 1_556 S
C4122 C4108 1.377 . S
C4122 C4121 1.373 1_556 S
C4123 C4107 1.377 . S
C4123 C4121 1.389 1_556 S
C4123 C4124 1.524 1_556 S
C4124 C4123 1.524 1_554 S
C4124 C4125 1.397 . S
C4124 C4129 1.363 1_554 S
C4125 H4096 0.950 . S
C4125 C4124 1.397 . S
C4125 C4126 1.334 . S
C4126 H4097 0.950 . S
C4126 C4125 1.334 . S
C4126 C4127 1.287 . S
C4127 C4126 1.287 . S
C4127 C4128 1.524 . S
C4127 H4130 0.999 . S
C4128 H4098 0.950 . S
C4128 C4127 1.524 . S
C4128 C4129 1.415 1_554 S
C4129 H4099 0.950 . S
C4129 C4124 1.363 1_556 S
C4129 C4128 1.415 1_556 S
H4130 C4127 0.999 . S
H4131 C4112 0.913 . S
H4132 C4150 0.951 . S
H4133 C4152 0.951 . S
H4134 C4154 0.950 . S
H4135 C4155 0.950 . S
H4136 C4157 0.950 . S
H4137 C4160 0.950 . S
H4138 C4161 0.950 . S
H4139 C4163 0.950 . S
H4140 C4164 0.950 . S
H4141 C4165 0.951 . S
H4142 C4167 0.951 . S
H4143 C4169 0.950 . S
H4144 C4170 0.950 . S
H4145 C4172 0.950 . S
H4146 C4175 0.950 . S
H4147 C4176 0.950 . S
H4148 C4178 0.950 . S
H4149 C4179 0.950 . S
C4150 H4132 0.951 . S
C4150 C4151 1.366 . S
C4150 C4152 1.388 . S
C4151 C4150 1.366 . S
C4151 C4155 1.385 . S
C4152 H4133 0.951 . S
C4152 C4150 1.388 . S
C4152 C4153 1.366 . S
C4153 C4152 1.366 . S
C4153 C4154 1.414 . S
C4153 C4156 1.499 . S
C4154 H4134 0.950 . S
C4154 C4153 1.414 . S
C4154 C4155 1.374 . S
C4155 H4135 0.950 . S
C4155 C4151 1.385 . S
C4155 C4154 1.374 . S
C4156 C4153 1.499 . S
C4156 C4157 1.373 . S
C4156 C4158 1.389 . S
C4157 H4136 0.950 . S
C4157 C4156 1.373 . S
C4157 C4173 1.377 . S
C4158 C4156 1.389 . S
C4158 C4159 1.524 . S
C4158 C4172 1.377 . S
C4159 C4158 1.524 . S
C4159 C4160 1.397 . S
C4159 C4164 1.363 . S
C4160 H4137 0.950 . S
C4160 C4159 1.397 . S
C4160 C4161 1.334 . S
C4161 H4138 0.950 . S
C4161 C4160 1.334 . S
C4161 C4162 1.287 . S
C4162 C4161 1.287 . S
C4162 C4163 1.524 . S
C4162 H4181 0.913 . S
C4163 H4139 0.950 . S
C4163 C4162 1.524 . S
C4163 C4164 1.415 . S
C4164 H4140 0.950 . S
C4164 C4159 1.363 . S
C4164 C4163 1.415 . S
C4165 H4141 0.951 . S
C4165 C4166 1.366 . S
C4165 C4167 1.388 . S
C4166 C4165 1.366 . S
C4166 C4170 1.385 . S
C4167 H4142 0.951 . S
C4167 C4165 1.388 . S
C4167 C4168 1.366 . S
C4168 C4167 1.366 . S
C4168 C4169 1.414 . S
C4168 C4171 1.499 . S
C4169 H4143 0.950 . S
C4169 C4168 1.414 . S
C4169 C4170 1.374 . S
C4170 H4144 0.950 . S
C4170 C4166 1.385 . S
C4170 C4169 1.374 . S
C4171 C4168 1.499 . S
C4171 C4172 1.373 . S
C4171 C4173 1.389 . S
C4172 H4145 0.950 . S
C4172 C4158 1.377 . S
C4172 C4171 1.373 . S
C4173 C4157 1.377 . S
C4173 C4171 1.389 . S
C4173 C4174 1.524 . S
C4174 C4173 1.524 . S
C4174 C4175 1.397 . S
C4174 C4179 1.363 . S
C4175 H4146 0.950 . S
C4175 C4174 1.397 . S
C4175 C4176 1.334 . S
C4176 H4147 0.950 . S
C4176 C4175 1.334 . S
C4176 C4177 1.287 . S
C4177 C4176 1.287 . S
C4177 C4178 1.524 . S
C4177 H4180 0.999 . S
C4178 H4148 0.950 . S
C4178 C4177 1.524 . S
C4178 C4179 1.415 . S
C4179 H4149 0.950 . S
C4179 C4174 1.363 . S
C4179 C4178 1.415 . S
H4180 C4177 0.999 . S
H4181 C4162 0.913 . S
H4182 C4200 0.951 . S
H4183 C4202 0.951 . S
H4184 C4204 0.950 . S
H4185 C4205 0.950 . S
H4186 C4207 0.950 . S
H4187 C4210 0.950 . S
H4188 C4211 0.950 . S
H4189 C4213 0.950 . S
H4190 C4214 0.950 . S
H4191 C4215 0.951 . S
H4192 C4217 0.951 . S
H4193 C4219 0.950 . S
H4194 C4220 0.950 . S
H4195 C4222 0.950 . S
H4196 C4225 0.950 . S
H4197 C4226 0.950 . S
H4198 C4228 0.950 . S
H4199 C4229 0.950 . S
C4200 H4182 0.951 . S
C4200 C4201 1.366 . S
C4200 C4202 1.388 . S
C4201 C4200 1.366 . S
C4201 C4205 1.385 . S
C4202 H4183 0.951 . S
C4202 C4200 1.388 . S
C4202 C4203 1.366 . S
C4203 C4202 1.366 . S
C4203 C4204 1.414 . S
C4203 C4206 1.499 . S
C4204 H4184 0.950 . S
C4204 C4203 1.414 . S
C4204 C4205 1.374 . S
C4205 H4185 0.950 . S
C4205 C4201 1.385 . S
C4205 C4204 1.374 . S
C4206 C4203 1.499 . S
C4206 C4207 1.373 . S
C4206 C4208 1.389 . S
C4207 H4186 0.950 . S
C4207 C4206 1.373 . S
C4207 C4223 1.377 1_556 S
C4208 C4206 1.389 . S
C4208 C4209 1.524 . S
C4208 C4222 1.377 1_556 S
C4209 C4208 1.524 . S
C4209 C4210 1.397 . S
C4209 C4214 1.363 . S
C4210 H4187 0.950 . S
C4210 C4209 1.397 . S
C4210 C4211 1.334 . S
C4211 H4188 0.950 . S
C4211 C4210 1.334 . S
C4211 C4212 1.287 . S
C4212 C4211 1.287 . S
C4212 C4213 1.524 . S
C4212 H4231 0.913 . S
C4213 H4189 0.950 . S
C4213 C4212 1.524 . S
C4213 C4214 1.415 . S
C4214 H4190 0.950 . S
C4214 C4209 1.363 . S
C4214 C4213 1.415 . S
C4215 H4191 0.951 . S
C4215 C4216 1.366 . S
C4215 C4217 1.388 . S
C4216 C4215 1.366 . S
C4216 C4220 1.385 . S
C4217 H4192 0.951 . S
C4217 C4215 1.388 . S
C4217 C4218 1.366 . S
C4218 C4217 1.366 . S
C4218 C4219 1.414 . S
C4218 C4221 1.499 . S
C4219 H4193 0.950 . S
C4219 C4218 1.414 . S
C4219 C4220 1.374 . S
C4220 H4194 0.950 . S
C4220 C4216 1.385 . S
C4220 C4219 1.374 . S
C4221 C4218 1.499 . S
C4221 C4222 1.373 . S
C4221 C4223 1.389 . S
C4222 H4195 0.950 . S
C4222 C4208 1.377 1_554 S
C4222 C4221 1.373 . S
C4223 C4207 1.377 1_554 S
C4223 C4221 1.389 . S
C4223 C4224 1.524 . S
C4224 C4223 1.524 . S
C4224 C4225 1.397 . S
C4224 C4229 1.363 . S
C4225 H4196 0.950 . S
C4225 C4224 1.397 . S
C4225 C4226 1.334 . S
C4226 H4197 0.950 . S
C4226 C4225 1.334 . S
C4226 C4227 1.287 . S
C4227 C4226 1.287 . S
C4227 C4228 1.524 . S
C4227 H4230 0.999 . S
C4228 H4198 0.950 . S
C4228 C4227 1.524 . S
C4228 C4229 1.415 . S
C4229 H4199 0.950 . S
C4229 C4224 1.363 . S
C4229 C4228 1.415 . S
H4230 C4227 0.999 . S
H4231 C4212 0.913 . S
H4232 C4250 0.951 . S
H4233 C4252 0.951 . S
H4234 C4254 0.950 . S
H4235 C4255 0.950 . S
H4236 C4257 0.950 . S
H4237 C4260 0.950 . S
H4238 C4261 0.950 . S
H4239 C4263 0.950 . S
H4240 C4264 0.950 . S
H4241 C4265 0.951 . S
H4242 C4267 0.951 . S
H4243 C4269 0.950 . S
H4244 C4270 0.950 . S
H4245 C4272 0.950 . S
H4246 C4275 0.950 . S
H4247 C4276 0.950 . S
H4248 C4278 0.950 . S
H4249 C4279 0.950 . S
C4250 H4232 0.951 . S
C4250 C4251 1.366 . S
C4250 C4252 1.388 . S
C4251 C4250 1.366 . S
C4251 C4255 1.385 . S
C4252 H4233 0.951 . S
C4252 C4250 1.388 . S
C4252 C4253 1.366 . S
C4253 C4252 1.366 . S
C4253 C4254 1.414 . S
C4253 C4256 1.499 . S
C4254 H4234 0.950 . S
C4254 C4253 1.414 . S
C4254 C4255 1.374 . S
C4255 H4235 0.950 . S
C4255 C4251 1.385 . S
C4255 C4254 1.374 . S
C4256 C4253 1.499 . S
C4256 C4257 1.373 . S
C4256 C4258 1.389 . S
C4257 H4236 0.950 . S
C4257 C4256 1.373 . S
C4257 C4273 1.377 . S
C4258 C4256 1.389 . S
C4258 C4259 1.524 . S
C4258 C4272 1.377 . S
C4259 C4258 1.524 . S
C4259 C4260 1.397 . S
C4259 C4264 1.363 . S
C4260 H4237 0.950 . S
C4260 C4259 1.397 . S
C4260 C4261 1.334 . S
C4261 H4238 0.950 . S
C4261 C4260 1.334 . S
C4261 C4262 1.287 . S
C4262 C4261 1.287 . S
C4262 C4263 1.524 . S
C4262 H4281 0.913 . S
C4263 H4239 0.950 . S
C4263 C4262 1.524 . S
C4263 C4264 1.415 . S
C4264 H4240 0.950 . S
C4264 C4259 1.363 . S
C4264 C4263 1.415 . S
C4265 H4241 0.951 . S
C4265 C4266 1.366 . S
C4265 C4267 1.388 . S
C4266 C4265 1.366 . S
C4266 C4270 1.385 . S
C4267 H4242 0.951 . S
C4267 C4265 1.388 . S
C4267 C4268 1.366 . S
C4268 C4267 1.366 . S
C4268 C4269 1.414 . S
C4268 C4271 1.499 . S
C4269 H4243 0.950 . S
C4269 C4268 1.414 . S
C4269 C4270 1.374 . S
C4270 H4244 0.950 . S
C4270 C4266 1.385 . S
C4270 C4269 1.374 . S
C4271 C4268 1.499 . S
C4271 C4272 1.373 . S
C4271 C4273 1.389 . S
C4272 H4245 0.950 . S
C4272 C4258 1.377 . S
C4272 C4271 1.373 . S
C4273 C4257 1.377 . S
C4273 C4271 1.389 . S
C4273 C4274 1.524 . S
C4274 C4273 1.524 . S
C4274 C4275 1.397 . S
C4274 C4279 1.363 . S
C4275 H4246 0.950 . S
C4275 C4274 1.397 . S
C4275 C4276 1.334 . S
C4276 H4247 0.950 . S
C4276 C4275 1.334 . S
C4276 C4277 1.287 . S
C4277 C4276 1.287 . S
C4277 C4278 1.524 . S
C4277 H4280 0.999 . S
C4278 H4248 0.950 . S
C4278 C4277 1.524 . S
C4278 C4279 1.415 . S
C4279 H4249 0.950 . S
C4279 C4274 1.363 . S
C4279 C4278 1.415 . S
H4280 C4277 0.999 . S
H4281 C4262 0.913 . S
H4282 C4300 0.951 . S
H4283 C4302 0.951 . S
H4284 C4304 0.950 . S
H4285 C4305 0.950 . S
H4286 C4307 0.950 1_556 S
H4287 C4310 0.950 . S
H4288 C4311 0.950 . S
H4289 C4313 0.950 . S
H4290 C4314 0.950 . S
H4291 C4315 0.951 . S
H4292 C4317 0.951 . S
H4293 C4319 0.950 . S
H4294 C4320 0.950 . S
H4295 C4322 0.950 . S
H4296 C4325 0.950 . S
H4297 C4326 0.950 . S
H4298 C4328 0.950 . S
H4299 C4329 0.950 . S
C4300 H4282 0.951 . S
C4300 C4301 1.366 . S
C4300 C4302 1.388 . S
C4301 C4300 1.366 . S
C4301 C4305 1.385 . S
C4302 H4283 0.951 . S
C4302 C4300 1.388 . S
C4302 C4303 1.366 . S
C4303 C4302 1.366 . S
C4303 C4304 1.414 . S
C4303 C4306 1.499 . S
C4304 H4284 0.950 . S
C4304 C4303 1.414 . S
C4304 C4305 1.374 . S
C4305 H4285 0.950 . S
C4305 C4301 1.385 . S
C4305 C4304 1.374 . S
C4306 C4303 1.499 . S
C4306 C4307 1.373 1_556 S
C4306 C4308 1.389 1_556 S
C4307 H4286 0.950 1_554 S
C4307 C4306 1.373 1_554 S
C4307 C4323 1.377 . S
C4308 C4306 1.389 1_554 S
C4308 C4309 1.524 1_554 S
C4308 C4322 1.377 . S
C4309 C4308 1.524 1_556 S
C4309 C4310 1.397 . S
C4309 C4314 1.363 1_556 S
C4310 H4287 0.950 . S
C4310 C4309 1.397 . S
C4310 C4311 1.334 . S
C4311 H4288 0.950 . S
C4311 C4310 1.334 . S
C4311 C4312 1.287 . S
C4312 C4311 1.287 . S
C4312 C4313 1.524 . S
C4312 H4331 0.913 . S
C4313 H4289 0.950 . S
C4313 C4312 1.524 . S
C4313 C4314 1.415 1_556 S
C4314 H4290 0.950 . S
C4314 C4309 1.363 1_554 S
C4314 C4313 1.415 1_554 S
C4315 H4291 0.951 . S
C4315 C4316 1.366 . S
C4315 C4317 1.388 . S
C4316 C4315 1.366 . S
C4316 C4320 1.385 . S
C4317 H4292 0.951 . S
C4317 C4315 1.388 . S
C4317 C4318 1.366 . S
C4318 C4317 1.366 . S
C4318 C4319 1.414 . S
C4318 C4321 1.499 . S
C4319 H4293 0.950 . S
C4319 C4318 1.414 . S
C4319 C4320 1.374 . S
C4320 H4294 0.950 . S
C4320 C4316 1.385 . S
C4320 C4319 1.374 . S
C4321 C4318 1.499 . S
C4321 C4322 1.373 . S
C4321 C4323 1.389 . S
C4322 H4295 0.950 . S
C4322 C4308 1.377 . S
C4322 C4321 1.373 . S
C4323 C4307 1.377 . S
C4323 C4321 1.389 . S
C4323 C4324 1.524 . S
C4324 C4323 1.524 . S
C4324 C4325 1.397 . S
C4324 C4329 1.363 . S
C4325 H4296 0.950 . S
C4325 C4324 1.397 . S
C4325 C4326 1.334 . S
C4326 H4297 0.950 . S
C4326 C4325 1.334 . S
C4326 C4327 1.287 . S
C4327 C4326 1.287 . S
C4327 C4328 1.524 . S
C4327 H4330 0.999 . S
C4328 H4298 0.950 . S
C4328 C4327 1.524 . S
C4328 C4329 1.415 . S
C4329 H4299 0.950 . S
C4329 C4324 1.363 . S
C4329 C4328 1.415 . S
H4330 C4327 0.999 . S
H4331 C4312 0.913 . S
H4332 C4350 0.951 . S
H4333 C4352 0.951 . S
H4334 C4354 0.950 . S
H4335 C4355 0.950 . S
H4336 C4357 0.950 . S
H4337 C4360 0.950 . S
H4338 C4361 0.950 . S
H4339 C4363 0.950 . S
H4340 C4364 0.950 . S
H4341 C4365 0.951 . S
H4342 C4367 0.951 . S
H4343 C4369 0.950 . S
H4344 C4370 0.950 . S
H4345 C4372 0.950 . S
H4346 C4375 0.950 . S
H4347 C4376 0.950 . S
H4348 C4378 0.950 . S
H4349 C4379 0.950 . S
C4350 H4332 0.951 . S
C4350 C4351 1.366 . S
C4350 C4352 1.388 . S
C4351 C4350 1.366 . S
C4351 C4355 1.385 . S
C4352 H4333 0.951 . S
C4352 C4350 1.388 . S
C4352 C4353 1.366 . S
C4353 C4352 1.366 . S
C4353 C4354 1.414 . S
C4353 C4356 1.499 . S
C4354 H4334 0.950 . S
C4354 C4353 1.414 . S
C4354 C4355 1.374 . S
C4355 H4335 0.950 . S
C4355 C4351 1.385 . S
C4355 C4354 1.374 . S
C4356 C4353 1.499 . S
C4356 C4357 1.373 . S
C4356 C4358 1.389 . S
C4357 H4336 0.950 . S
C4357 C4356 1.373 . S
C4357 C4373 1.377 . S
C4358 C4356 1.389 . S
C4358 C4359 1.524 . S
C4358 C4372 1.377 . S
C4359 C4358 1.524 . S
C4359 C4360 1.397 . S
C4359 C4364 1.363 . S
C4360 H4337 0.950 . S
C4360 C4359 1.397 . S
C4360 C4361 1.334 . S
C4361 H4338 0.950 . S
C4361 C4360 1.334 . S
C4361 C4362 1.287 . S
C4362 C4361 1.287 . S
C4362 C4363 1.524 . S
C4362 H4381 0.913 . S
C4363 H4339 0.950 . S
C4363 C4362 1.524 . S
C4363 C4364 1.415 . S
C4364 H4340 0.950 . S
C4364 C4359 1.363 . S
C4364 C4363 1.415 . S
C4365 H4341 0.951 . S
C4365 C4366 1.366 . S
C4365 C4367 1.388 . S
C4366 C4365 1.366 . S
C4366 C4370 1.385 . S
C4367 H4342 0.951 . S
C4367 C4365 1.388 . S
C4367 C4368 1.366 . S
C4368 C4367 1.366 . S
C4368 C4369 1.414 . S
C4368 C4371 1.499 . S
C4369 H4343 0.950 . S
C4369 C4368 1.414 . S
C4369 C4370 1.374 . S
C4370 H4344 0.950 . S
C4370 C4366 1.385 . S
C4370 C4369 1.374 . S
C4371 C4368 1.499 . S
C4371 C4372 1.373 . S
C4371 C4373 1.389 . S
C4372 H4345 0.950 . S
C4372 C4358 1.377 . S
C4372 C4371 1.373 . S
C4373 C4357 1.377 . S
C4373 C4371 1.389 . S
C4373 C4374 1.524 . S
C4374 C4373 1.524 . S
C4374 C4375 1.397 . S
C4374 C4379 1.363 . S
C4375 H4346 0.950 . S
C4375 C4374 1.397 . S
C4375 C4376 1.334 . S
C4376 H4347 0.950 . S
C4376 C4375 1.334 . S
C4376 C4377 1.287 . S
C4377 C4376 1.287 . S
C4377 C4378 1.524 . S
C4377 H4380 0.999 . S
C4378 H4348 0.950 . S
C4378 C4377 1.524 . S
C4378 C4379 1.415 . S
C4379 H4349 0.950 . S
C4379 C4374 1.363 . S
C4379 C4378 1.415 . S
H4380 C4377 0.999 . S
H4381 C4362 0.913 . S
H4382 C4400 0.951 . S
H4383 C4402 0.951 . S
H4384 C4404 0.950 . S
H4385 C4405 0.950 . S
H4386 C4407 0.950 . S
H4387 C4410 0.950 . S
H4388 C4411 0.950 . S
H4389 C4413 0.950 . S
H4390 C4414 0.950 . S
H4391 C4415 0.951 . S
H4392 C4417 0.951 . S
H4393 C4419 0.950 . S
H4394 C4420 0.950 . S
H4395 C4422 0.950 . S
H4396 C4425 0.950 . S
H4397 C4426 0.950 . S
H4398 C4428 0.950 . S
H4399 C4429 0.916 1_556 S
C4400 H4382 0.951 . S
C4400 C4401 1.366 . S
C4400 C4402 1.388 . S
C4401 C4400 1.366 . S
C4401 C4405 1.385 . S
C4402 H4383 0.951 . S
C4402 C4400 1.388 . S
C4402 C4403 1.366 . S
C4403 C4402 1.366 . S
C4403 C4404 1.414 . S
C4403 C4406 1.499 . S
C4404 H4384 0.950 . S
C4404 C4403 1.414 . S
C4404 C4405 1.374 . S
C4405 H4385 0.950 . S
C4405 C4401 1.385 . S
C4405 C4404 1.374 . S
C4406 C4403 1.499 . S
C4406 C4407 1.373 . S
C4406 C4408 1.389 . S
C4407 H4386 0.950 . S
C4407 C4406 1.373 . S
C4407 C4423 1.377 1_556 S
C4408 C4406 1.389 . S
C4408 C4409 1.524 . S
C4408 C4422 1.377 1_556 S
C4409 C4408 1.524 . S
C4409 C4410 1.397 . S
C4409 C4414 1.363 . S
C4410 H4387 0.950 . S
C4410 C4409 1.397 . S
C4410 C4411 1.334 . S
C4411 H4388 0.950 . S
C4411 C4410 1.334 . S
C4411 C4412 1.287 . S
C4412 C4411 1.287 . S
C4412 C4413 1.524 . S
C4412 H4431 0.913 . S
C4413 H4389 0.950 . S
C4413 C4412 1.524 . S
C4413 C4414 1.415 . S
C4414 H4390 0.950 . S
C4414 C4409 1.363 . S
C4414 C4413 1.415 . S
C4415 H4391 0.951 . S
C4415 C4416 1.366 . S
C4415 C4417 1.388 . S
C4416 C4415 1.366 . S
C4416 C4420 1.385 . S
C4417 H4392 0.951 . S
C4417 C4415 1.388 . S
C4417 C4418 1.366 . S
C4418 C4417 1.366 . S
C4418 C4419 1.414 . S
C4418 C4421 1.499 . S
C4419 H4393 0.950 . S
C4419 C4418 1.414 . S
C4419 C4420 1.374 . S
C4420 H4394 0.950 . S
C4420 C4416 1.385 . S
C4420 C4419 1.374 . S
C4421 C4418 1.499 . S
C4421 C4422 1.373 . S
C4421 C4423 1.389 . S
C4422 H4395 0.950 . S
C4422 C4408 1.377 1_554 S
C4422 C4421 1.373 . S
C4423 C4407 1.377 1_554 S
C4423 C4421 1.389 . S
C4423 C4424 1.524 . S
C4424 C4423 1.524 . S
C4424 C4425 1.397 . S
C4424 C4429 1.363 . S
C4425 H4396 0.950 . S
C4425 C4424 1.397 . S
C4425 C4426 1.334 . S
C4426 H4397 0.950 . S
C4426 C4425 1.334 . S
C4426 C4427 1.287 . S
C4427 C4426 1.287 . S
C4427 C4428 1.524 . S
C4427 H4430 0.999 . S
C4428 H4398 0.950 . S
C4428 C4427 1.524 . S
C4428 C4429 1.415 . S
C4429 H4399 0.916 1_554 S
C4429 C4424 1.363 . S
C4429 C4428 1.415 . S
H4430 C4427 0.999 . S
H4431 C4412 0.913 . S
H4432 C4450 0.951 . S
H4433 C4452 0.951 . S
H4434 C4454 0.950 . S
H4435 C4455 0.950 . S
H4436 C4457 0.950 . S
H4437 C4460 0.950 . S
H4438 C4461 0.950 . S
H4439 C4463 0.950 . S
H4440 C4464 0.950 . S
H4441 C4465 0.951 . S
H4442 C4467 0.951 . S
H4443 C4469 0.950 . S
H4444 C4470 0.950 . S
H4445 C4472 0.950 . S
H4446 C4475 0.950 . S
H4447 C4476 0.950 . S
H4448 C4478 0.950 . S
H4449 C4479 0.950 . S
C4450 H4432 0.951 . S
C4450 C4451 1.366 . S
C4450 C4452 1.388 . S
C4451 C4450 1.366 . S
C4451 C4455 1.385 . S
C4452 H4433 0.951 . S
C4452 C4450 1.388 . S
C4452 C4453 1.366 . S
C4453 C4452 1.366 . S
C4453 C4454 1.414 . S
C4453 C4456 1.499 . S
C4454 H4434 0.950 . S
C4454 C4453 1.414 . S
C4454 C4455 1.374 . S
C4455 H4435 0.950 . S
C4455 C4451 1.385 . S
C4455 C4454 1.374 . S
C4456 C4453 1.499 . S
C4456 C4457 1.373 . S
C4456 C4458 1.389 . S
C4457 H4436 0.950 . S
C4457 C4456 1.373 . S
C4457 C4473 1.377 . S
C4458 C4456 1.389 . S
C4458 C4459 1.524 . S
C4458 C4472 1.377 . S
C4459 C4458 1.524 . S
C4459 C4460 1.397 . S
C4459 C4464 1.363 . S
C4460 H4437 0.950 . S
C4460 C4459 1.397 . S
C4460 C4461 1.334 . S
C4461 H4438 0.950 . S
C4461 C4460 1.334 . S
C4461 C4462 1.287 . S
C4462 C4461 1.287 . S
C4462 C4463 1.524 . S
C4462 H4481 0.913 . S
C4463 H4439 0.950 . S
C4463 C4462 1.524 . S
C4463 C4464 1.415 . S
C4464 H4440 0.950 . S
C4464 C4459 1.363 . S
C4464 C4463 1.415 . S
C4465 H4441 0.951 . S
C4465 C4466 1.366 . S
C4465 C4467 1.388 . S
C4466 C4465 1.366 . S
C4466 C4470 1.385 . S
C4467 H4442 0.951 . S
C4467 C4465 1.388 . S
C4467 C4468 1.366 . S
C4468 C4467 1.366 . S
C4468 C4469 1.414 . S
C4468 C4471 1.499 . S
C4469 H4443 0.950 . S
C4469 C4468 1.414 . S
C4469 C4470 1.374 . S
C4470 H4444 0.950 . S
C4470 C4466 1.385 . S
C4470 C4469 1.374 . S
C4471 C4468 1.499 . S
C4471 C4472 1.373 . S
C4471 C4473 1.389 . S
C4472 H4445 0.950 . S
C4472 C4458 1.377 . S
C4472 C4471 1.373 . S
C4473 C4457 1.377 . S
C4473 C4471 1.389 . S
C4473 C4474 1.524 . S
C4474 C4473 1.524 . S
C4474 C4475 1.397 . S
C4474 C4479 1.363 . S
C4475 H4446 0.950 . S
C4475 C4474 1.397 . S
C4475 C4476 1.334 . S
C4476 H4447 0.950 . S
C4476 C4475 1.334 . S
C4476 C4477 1.287 . S
C4477 C4476 1.287 . S
C4477 C4478 1.524 . S
C4477 H4480 0.999 . S
C4478 H4448 0.950 . S
C4478 C4477 1.524 . S
C4478 C4479 1.415 . S
C4479 H4449 0.950 . S
C4479 C4474 1.363 . S
C4479 C4478 1.415 . S
H4480 C4477 0.999 . S
H4481 C4462 0.913 . S
H4482 C4500 0.951 . S
H4483 C4502 0.951 . S
H4484 C4504 0.950 . S
H4485 C4505 0.950 . S
H4486 C4507 0.950 . S
H4487 C4510 0.950 . S
H4488 C4511 0.950 . S
H4489 C4513 0.950 . S
H4490 C4514 0.950 . S
H4491 C4515 0.951 . S
H4492 C4517 0.951 . S
H4493 C4519 0.950 . S
H4494 C4520 0.950 . S
H4495 C4522 0.916 1_545 S
H4496 C4525 0.950 . S
H4497 C4526 0.950 . S
H4498 C4528 0.950 . S
H4499 C4529 0.950 . S
C4500 H4482 0.951 . S
C4500 C4501 1.366 . S
C4500 C4502 1.388 . S
C4501 C4500 1.366 . S
C4501 C4505 1.385 . S
C4502 H4483 0.951 . S
C4502 C4500 1.388 . S
C4502 C4503 1.366 . S
C4503 C4502 1.366 . S
C4503 C4504 1.414 . S
C4503 C4506 1.499 . S
C4504 H4484 0.950 . S
C4504 C4503 1.414 . S
C4504 C4505 1.374 . S
C4505 H4485 0.950 . S
C4505 C4501 1.385 . S
C4505 C4504 1.374 . S
C4506 C4503 1.499 . S
C4506 C4507 1.373 . S
C4506 C4508 1.389 . S
C4507 H4486 0.950 . S
C4507 C4506 1.373 . S
C4507 C4523 1.377 . S
C4508 C4506 1.389 . S
C4508 C4509 1.524 . S
C4508 C4522 1.446 . S
C4509 C4508 1.524 . S
C4509 C4510 1.397 . S
C4509 C4514 1.363 . S
C4510 H4487 0.950 . S
C4510 C4509 1.397 . S
C4510 C4511 1.334 . S
C4511 H4488 0.950 . S
C4511 C4510 1.334 . S
C4511 C4512 1.287 . S
C4512 C4511 1.287 . S
C4512 C4513 1.524 . S
C4512 H4531 0.913 . S
C4513 H4489 0.950 . S
C4513 C4512 1.524 . S
C4513 C4514 1.415 . S
C4514 H4490 0.950 . S
C4514 C4509 1.363 . S
C4514 C4513 1.415 . S
C4515 H4491 0.951 . S
C4515 C4516 1.366 . S
C4515 C4517 1.388 . S
C4516 C4515 1.366 . S
C4516 C4520 1.385 . S
C4517 H4492 0.951 . S
C4517 C4515 1.388 . S
C4517 C4518 1.366 . S
C4518 C4517 1.366 . S
C4518 C4519 1.414 . S
C4518 C4521 1.499 . S
C4519 H4493 0.950 . S
C4519 C4518 1.414 . S
C4519 C4520 1.374 . S
C4520 H4494 0.950 . S
C4520 C4516 1.385 . S
C4520 C4519 1.374 . S
C4521 C4518 1.499 . S
C4521 C4522 1.342 1_545 S
C4521 C4523 1.389 1_545 S
C4522 H4495 0.916 1_565 S
C4522 C4508 1.446 . S
C4522 C4521 1.342 1_565 S
C4523 C4507 1.377 . S
C4523 C4521 1.389 1_565 S
C4523 C4524 1.524 1_565 S
C4524 C4523 1.524 1_545 S
C4524 C4525 1.397 . S
C4524 C4529 1.363 1_545 S
C4525 H4496 0.950 . S
C4525 C4524 1.397 . S
C4525 C4526 1.334 . S
C4526 H4497 0.950 . S
C4526 C4525 1.334 . S
C4526 C4527 1.287 . S
C4527 C4526 1.287 . S
C4527 C4528 1.524 . S
C4527 H4530 0.999 . S
C4528 H4498 0.950 . S
C4528 C4527 1.524 . S
C4528 C4529 1.415 1_545 S
C4529 H4499 0.950 . S
C4529 C4524 1.363 1_565 S
C4529 C4528 1.415 1_565 S
H4530 C4527 0.999 . S
H4531 C4512 0.913 . S
H4532 C4550 0.951 . S
H4533 C4552 0.951 . S
H4534 C4554 0.950 . S
H4535 C4555 0.950 . S
H4536 C4557 0.950 . S
H4537 C4560 0.950 . S
H4538 C4561 0.950 . S
H4539 C4563 0.950 . S
H4540 C4564 0.950 . S
H4541 C4565 0.951 . S
H4542 C4567 0.951 . S
H4543 C4569 0.950 . S
H4544 C4570 0.950 . S
H4545 C4572 0.950 . S
H4546 C4575 0.950 . S
H4547 C4576 0.950 . S
H4548 C4578 0.950 . S
H4549 C4579 0.950 . S
C4550 H4532 0.951 . S
C4550 C4551 1.366 . S
C4550 C4552 1.388 . S
C4551 C4550 1.366 . S
C4551 C4555 1.385 . S
C4552 H4533 0.951 . S
C4552 C4550 1.388 . S
C4552 C4553 1.366 . S
C4553 C4552 1.366 . S
C4553 C4554 1.414 . S
C4553 C4556 1.499 . S
C4554 H4534 0.950 . S
C4554 C4553 1.414 . S
C4554 C4555 1.374 . S
C4555 H4535 0.950 . S
C4555 C4551 1.385 . S
C4555 C4554 1.374 . S
C4556 C4553 1.499 . S
C4556 C4557 1.373 . S
C4556 C4558 1.389 . S
C4557 H4536 0.950 . S
C4557 C4556 1.373 . S
C4557 C4573 1.377 . S
C4558 C4556 1.389 . S
C4558 C4559 1.524 . S
C4558 C4572 1.377 . S
C4559 C4558 1.524 . S
C4559 C4560 1.397 . S
C4559 C4564 1.363 . S
C4560 H4537 0.950 . S
C4560 C4559 1.397 . S
C4560 C4561 1.334 . S
C4561 H4538 0.950 . S
C4561 C4560 1.334 . S
C4561 C4562 1.287 . S
C4562 C4561 1.287 . S
C4562 C4563 1.524 . S
C4562 H4581 0.913 . S
C4563 H4539 0.950 . S
C4563 C4562 1.524 . S
C4563 C4564 1.415 . S
C4564 H4540 0.950 . S
C4564 C4559 1.363 . S
C4564 C4563 1.415 . S
C4565 H4541 0.951 . S
C4565 C4566 1.366 . S
C4565 C4567 1.388 . S
C4566 C4565 1.366 . S
C4566 C4570 1.385 . S
C4567 H4542 0.951 . S
C4567 C4565 1.388 . S
C4567 C4568 1.366 . S
C4568 C4567 1.366 . S
C4568 C4569 1.414 . S
C4568 C4571 1.499 . S
C4569 H4543 0.950 . S
C4569 C4568 1.414 . S
C4569 C4570 1.374 . S
C4570 H4544 0.950 . S
C4570 C4566 1.385 . S
C4570 C4569 1.374 . S
C4571 C4568 1.499 . S
C4571 C4572 1.373 . S
C4571 C4573 1.389 . S
C4572 H4545 0.950 . S
C4572 C4558 1.377 . S
C4572 C4571 1.373 . S
C4573 C4557 1.377 . S
C4573 C4571 1.389 . S
C4573 C4574 1.524 . S
C4574 C4573 1.524 . S
C4574 C4575 1.397 . S
C4574 C4579 1.363 . S
C4575 H4546 0.950 . S
C4575 C4574 1.397 . S
C4575 C4576 1.334 . S
C4576 H4547 0.950 . S
C4576 C4575 1.334 . S
C4576 C4577 1.287 . S
C4577 C4576 1.287 . S
C4577 C4578 1.524 . S
C4577 H4580 0.999 . S
C4578 H4548 0.950 . S
C4578 C4577 1.524 . S
C4578 C4579 1.415 . S
C4579 H4549 0.950 . S
C4579 C4574 1.363 . S
C4579 C4578 1.415 . S
H4580 C4577 0.999 . S
H4581 C4562 0.913 . S
H4582 C4600 0.951 . S
H4583 C4602 0.951 . S
H4584 C4604 0.950 . S
H4585 C4605 0.950 . S
H4586 C4607 0.950 . S
H4587 C4610 0.950 . S
H4588 C4611 0.950 . S
H4589 C4613 0.950 . S
H4590 C4614 0.950 . S
H4591 C4615 0.951 . S
H4592 C4617 0.951 . S
H4593 C4619 0.950 . S
H4594 C4620 0.950 . S
H4595 C4622 0.950 . S
H4596 C4625 0.950 . S
H4597 C4626 0.950 . S
H4598 C4628 0.950 . S
H4599 C4629 0.922 1_545 S
C4600 H4582 0.951 . S
C4600 C4601 1.366 . S
C4600 C4602 1.388 . S
C4601 C4600 1.366 . S
C4601 C4605 1.385 . S
C4602 H4583 0.951 . S
C4602 C4600 1.388 . S
C4602 C4603 1.366 . S
C4603 C4602 1.366 . S
C4603 C4604 1.414 . S
C4603 C4606 1.499 . S
C4604 H4584 0.950 . S
C4604 C4603 1.414 . S
C4604 C4605 1.374 . S
C4605 H4585 0.950 . S
C4605 C4601 1.385 . S
C4605 C4604 1.374 . S
C4606 C4603 1.499 . S
C4606 C4607 1.373 . S
C4606 C4608 1.389 . S
C4607 H4586 0.950 . S
C4607 C4606 1.373 . S
C4607 C4623 1.377 1_545 S
C4608 C4606 1.389 . S
C4608 C4609 1.524 . S
C4608 C4622 1.377 1_545 S
C4609 C4608 1.524 . S
C4609 C4610 1.397 . S
C4609 C4614 1.363 . S
C4610 H4587 0.950 . S
C4610 C4609 1.397 . S
C4610 C4611 1.334 . S
C4611 H4588 0.950 . S
C4611 C4610 1.334 . S
C4611 C4612 1.287 . S
C4612 C4611 1.287 . S
C4612 C4613 1.524 . S
C4612 H4631 0.913 . S
C4613 H4589 0.950 . S
C4613 C4612 1.524 . S
C4613 C4614 1.415 . S
C4614 H4590 0.950 . S
C4614 C4609 1.363 . S
C4614 C4613 1.415 . S
C4615 H4591 0.951 . S
C4615 C4616 1.366 . S
C4615 C4617 1.388 . S
C4616 C4615 1.366 . S
C4616 C4620 1.385 . S
C4617 H4592 0.951 . S
C4617 C4615 1.388 . S
C4617 C4618 1.366 . S
C4618 C4617 1.366 . S
C4618 C4619 1.414 . S
C4618 C4621 1.499 . S
C4619 H4593 0.950 . S
C4619 C4618 1.414 . S
C4619 C4620 1.374 . S
C4620 H4594 0.950 . S
C4620 C4616 1.385 . S
C4620 C4619 1.374 . S
C4621 C4618 1.499 . S
C4621 C4622 1.373 . S
C4621 C4623 1.389 . S
C4622 H4595 0.950 . S
C4622 C4608 1.377 1_565 S
C4622 C4621 1.373 . S
C4623 C4607 1.377 1_565 S
C4623 C4621 1.389 . S
C4623 C4624 1.524 . S
C4624 C4623 1.524 . S
C4624 C4625 1.397 . S
C4624 C4629 1.363 . S
C4625 H4596 0.950 . S
C4625 C4624 1.397 . S
C4625 C4626 1.334 . S
C4626 H4597 0.950 . S
C4626 C4625 1.334 . S
C4626 C4627 1.287 . S
C4627 C4626 1.287 . S
C4627 C4628 1.524 . S
C4627 H4630 0.999 . S
C4628 H4598 0.950 . S
C4628 C4627 1.524 . S
C4628 C4629 1.415 . S
C4629 H4599 0.922 1_565 S
C4629 C4624 1.363 . S
C4629 C4628 1.415 . S
H4630 C4627 0.999 . S
H4631 C4612 0.913 . S
H4632 C4650 0.951 . S
H4633 C4652 0.951 . S
H4634 C4654 0.950 . S
H4635 C4655 0.950 . S
H4636 C4657 0.950 . S
H4637 C4660 0.950 . S
H4638 C4661 0.950 . S
H4639 C4663 0.950 . S
H4640 C4664 0.950 . S
H4641 C4665 0.951 . S
H4642 C4667 0.951 . S
H4643 C4669 0.950 . S
H4644 C4670 0.950 . S
H4645 C4672 0.950 . S
H4646 C4675 0.950 . S
H4647 C4676 0.950 . S
H4648 C4678 0.950 . S
H4649 C4679 0.950 . S
C4650 H4632 0.951 . S
C4650 C4651 1.366 . S
C4650 C4652 1.388 . S
C4651 C4650 1.366 . S
C4651 C4655 1.385 . S
C4652 H4633 0.951 . S
C4652 C4650 1.388 . S
C4652 C4653 1.366 . S
C4653 C4652 1.366 . S
C4653 C4654 1.414 . S
C4653 C4656 1.499 . S
C4654 H4634 0.950 . S
C4654 C4653 1.414 . S
C4654 C4655 1.374 . S
C4655 H4635 0.950 . S
C4655 C4651 1.385 . S
C4655 C4654 1.374 . S
C4656 C4653 1.499 . S
C4656 C4657 1.373 . S
C4656 C4658 1.389 . S
C4657 H4636 0.950 . S
C4657 C4656 1.373 . S
C4657 C4673 1.377 . S
C4658 C4656 1.389 . S
C4658 C4659 1.524 . S
C4658 C4672 1.377 . S
C4659 C4658 1.524 . S
C4659 C4660 1.397 . S
C4659 C4664 1.363 . S
C4660 H4637 0.950 . S
C4660 C4659 1.397 . S
C4660 C4661 1.334 . S
C4661 H4638 0.950 . S
C4661 C4660 1.334 . S
C4661 C4662 1.287 . S
C4662 C4661 1.287 . S
C4662 C4663 1.524 . S
C4662 H4681 0.913 . S
C4663 H4639 0.950 . S
C4663 C4662 1.524 . S
C4663 C4664 1.415 . S
C4664 H4640 0.950 . S
C4664 C4659 1.363 . S
C4664 C4663 1.415 . S
C4665 H4641 0.951 . S
C4665 C4666 1.366 . S
C4665 C4667 1.388 . S
C4666 C4665 1.366 . S
C4666 C4670 1.385 . S
C4667 H4642 0.951 . S
C4667 C4665 1.388 . S
C4667 C4668 1.366 . S
C4668 C4667 1.366 . S
C4668 C4669 1.414 . S
C4668 C4671 1.499 . S
C4669 H4643 0.950 . S
C4669 C4668 1.414 . S
C4669 C4670 1.374 . S
C4670 H4644 0.950 . S
C4670 C4666 1.385 . S
C4670 C4669 1.374 . S
C4671 C4668 1.499 . S
C4671 C4672 1.373 . S
C4671 C4673 1.389 . S
C4672 H4645 0.950 . S
C4672 C4658 1.377 . S
C4672 C4671 1.373 . S
C4673 C4657 1.377 . S
C4673 C4671 1.389 . S
C4673 C4674 1.524 . S
C4674 C4673 1.524 . S
C4674 C4675 1.397 . S
C4674 C4679 1.363 . S
C4675 H4646 0.950 . S
C4675 C4674 1.397 . S
C4675 C4676 1.334 . S
C4676 H4647 0.950 . S
C4676 C4675 1.334 . S
C4676 C4677 1.287 . S
C4677 C4676 1.287 . S
C4677 C4678 1.524 . S
C4677 H4680 0.999 . S
C4678 H4648 0.950 . S
C4678 C4677 1.524 . S
C4678 C4679 1.415 . S
C4679 H4649 0.950 . S
C4679 C4674 1.363 . S
C4679 C4678 1.415 . S
H4680 C4677 0.999 . S
H4681 C4662 0.913 . S
H4682 C4700 0.951 . S
H4683 C4702 0.951 . S
H4684 C4704 0.950 . S
H4685 C4705 0.950 . S
H4686 C4707 0.950 . S
H4687 C4710 0.950 . S
H4688 C4711 0.950 . S
H4689 C4713 0.950 . S
H4690 C4714 0.951 1_545 S
H4691 C4715 0.951 . S
H4692 C4717 0.951 . S
H4693 C4719 0.950 . S
H4694 C4720 0.950 . S
H4695 C4722 0.950 . S
H4696 C4725 0.950 . S
H4697 C4726 0.950 . S
H4698 C4728 0.950 . S
H4699 C4729 0.950 . S
C4700 H4682 0.951 . S
C4700 C4701 1.366 . S
C4700 C4702 1.388 . S
C4701 C4700 1.366 . S
C4701 C4705 1.385 . S
C4702 H4683 0.951 . S
C4702 C4700 1.388 . S
C4702 C4703 1.366 . S
C4703 C4702 1.366 . S
C4703 C4704 1.414 . S
C4703 C4706 1.499 . S
C4704 H4684 0.950 . S
C4704 C4703 1.414 . S
C4704 C4705 1.374 . S
C4705 H4685 0.950 . S
C4705 C4701 1.385 . S
C4705 C4704 1.374 . S
C4706 C4703 1.499 . S
C4706 C4707 1.373 . S
C4706 C4708 1.389 . S
C4707 H4686 0.950 . S
C4707 C4706 1.373 . S
C4707 C4723 1.377 1_565 S
C4708 C4706 1.389 . S
C4708 C4709 1.524 . S
C4708 C4722 1.377 1_565 S
C4709 C4708 1.524 . S
C4709 C4710 1.397 . S
C4709 C4714 1.363 . S
C4710 H4687 0.950 . S
C4710 C4709 1.397 . S
C4710 C4711 1.334 . S
C4711 H4688 0.950 . S
C4711 C4710 1.334 . S
C4711 C4712 1.287 . S
C4712 C4711 1.287 . S
C4712 C4713 1.524 . S
C4712 H4731 0.913 . S
C4713 H4689 0.950 . S
C4713 C4712 1.524 . S
C4713 C4714 1.415 . S
C4714 H4690 0.951 1_565 S
C4714 C4709 1.363 . S
C4714 C4713 1.415 . S
C4715 H4691 0.951 . S
C4715 C4716 1.366 . S
C4715 C4717 1.388 . S
C4716 C4715 1.366 . S
C4716 C4720 1.385 . S
C4717 H4692 0.951 . S
C4717 C4715 1.388 . S
C4717 C4718 1.366 . S
C4718 C4717 1.366 . S
C4718 C4719 1.414 . S
C4718 C4721 1.499 . S
C4719 H4693 0.950 . S
C4719 C4718 1.414 . S
C4719 C4720 1.374 . S
C4720 H4694 0.950 . S
C4720 C4716 1.385 . S
C4720 C4719 1.374 . S
C4721 C4718 1.499 . S
C4721 C4722 1.373 . S
C4721 C4723 1.389 . S
C4722 H4695 0.950 . S
C4722 C4708 1.377 1_545 S
C4722 C4721 1.373 . S
C4723 C4707 1.377 1_545 S
C4723 C4721 1.389 . S
C4723 C4724 1.524 . S
C4724 C4723 1.524 . S
C4724 C4725 1.397 . S
C4724 C4729 1.363 . S
C4725 H4696 0.950 . S
C4725 C4724 1.397 . S
C4725 C4726 1.334 . S
C4726 H4697 0.950 . S
C4726 C4725 1.334 . S
C4726 C4727 1.287 . S
C4727 C4726 1.287 . S
C4727 C4728 1.524 . S
C4727 H4730 0.999 . S
C4728 H4698 0.950 . S
C4728 C4727 1.524 . S
C4728 C4729 1.415 . S
C4729 H4699 0.950 . S
C4729 C4724 1.363 . S
C4729 C4728 1.415 . S
H4730 C4727 0.999 . S
H4731 C4712 0.913 . S
H4732 C4750 0.951 . S
H4733 C4752 0.951 . S
H4734 C4754 0.950 . S
H4735 C4755 0.950 . S
H4736 C4757 0.950 . S
H4737 C4760 0.950 . S
H4738 C4761 0.950 . S
H4739 C4763 0.950 . S
H4740 C4764 0.950 . S
H4741 C4765 0.951 . S
H4742 C4767 0.951 . S
H4743 C4769 0.950 . S
H4744 C4770 0.950 . S
H4745 C4772 0.950 . S
H4746 C4775 0.950 . S
H4747 C4776 0.950 . S
H4748 C4778 0.950 . S
H4749 C4779 0.950 . S
C4750 H4732 0.951 . S
C4750 C4751 1.366 . S
C4750 C4752 1.388 . S
C4751 C4750 1.366 . S
C4751 C4755 1.385 . S
C4752 H4733 0.951 . S
C4752 C4750 1.388 . S
C4752 C4753 1.366 . S
C4753 C4752 1.366 . S
C4753 C4754 1.414 . S
C4753 C4756 1.499 . S
C4754 H4734 0.950 . S
C4754 C4753 1.414 . S
C4754 C4755 1.374 . S
C4755 H4735 0.950 . S
C4755 C4751 1.385 . S
C4755 C4754 1.374 . S
C4756 C4753 1.499 . S
C4756 C4757 1.373 . S
C4756 C4758 1.389 . S
C4757 H4736 0.950 . S
C4757 C4756 1.373 . S
C4757 C4773 1.377 . S
C4758 C4756 1.389 . S
C4758 C4759 1.524 . S
C4758 C4772 1.377 . S
C4759 C4758 1.524 . S
C4759 C4760 1.397 . S
C4759 C4764 1.363 . S
C4760 H4737 0.950 . S
C4760 C4759 1.397 . S
C4760 C4761 1.334 . S
C4761 H4738 0.950 . S
C4761 C4760 1.334 . S
C4761 C4762 1.287 . S
C4762 C4761 1.287 . S
C4762 C4763 1.524 . S
C4762 H4781 0.913 . S
C4763 H4739 0.950 . S
C4763 C4762 1.524 . S
C4763 C4764 1.415 . S
C4764 H4740 0.950 . S
C4764 C4759 1.363 . S
C4764 C4763 1.415 . S
C4765 H4741 0.951 . S
C4765 C4766 1.366 . S
C4765 C4767 1.388 . S
C4766 C4765 1.366 . S
C4766 C4770 1.385 . S
C4767 H4742 0.951 . S
C4767 C4765 1.388 . S
C4767 C4768 1.366 . S
C4768 C4767 1.366 . S
C4768 C4769 1.414 . S
C4768 C4771 1.499 . S
C4769 H4743 0.950 . S
C4769 C4768 1.414 . S
C4769 C4770 1.374 . S
C4770 H4744 0.950 . S
C4770 C4766 1.385 . S
C4770 C4769 1.374 . S
C4771 C4768 1.499 . S
C4771 C4772 1.373 . S
C4771 C4773 1.389 . S
C4772 H4745 0.950 . S
C4772 C4758 1.377 . S
C4772 C4771 1.373 . S
C4773 C4757 1.377 . S
C4773 C4771 1.389 . S
C4773 C4774 1.524 . S
C4774 C4773 1.524 . S
C4774 C4775 1.397 . S
C4774 C4779 1.363 . S
C4775 H4746 0.950 . S
C4775 C4774 1.397 . S
C4775 C4776 1.334 . S
C4776 H4747 0.950 . S
C4776 C4775 1.334 . S
C4776 C4777 1.287 . S
C4777 C4776 1.287 . S
C4777 C4778 1.524 . S
C4777 H4780 0.999 . S
C4778 H4748 0.950 . S
C4778 C4777 1.524 . S
C4778 C4779 1.415 . S
C4779 H4749 0.950 . S
C4779 C4774 1.363 . S
C4779 C4778 1.415 . S
H4780 C4777 0.999 . S
H4781 C4762 0.913 . S
H4782 C4800 0.951 . S
H4783 C4802 0.951 . S
H4784 C4804 0.950 . S
H4785 C4805 0.950 . S
H4786 C4807 0.950 . S
H4787 C4810 0.950 . S
H4788 C4811 0.950 . S
H4789 C4813 0.950 . S
H4790 C4814 0.950 . S
H4791 C4815 0.951 . S
H4792 C4817 0.951 . S
H4793 C4819 0.950 . S
H4794 C4820 0.950 . S
H4795 C4822 0.950 . S
H4796 C4825 0.950 . S
H4797 C4826 0.950 . S
H4798 C4828 0.950 . S
H4799 C4829 0.950 . S
C4800 H4782 0.951 . S
C4800 C4801 1.366 . S
C4800 C4802 1.388 . S
C4801 C4800 1.366 . S
C4801 C4805 1.385 . S
C4802 H4783 0.951 . S
C4802 C4800 1.388 . S
C4802 C4803 1.366 . S
C4803 C4802 1.366 . S
C4803 C4804 1.414 . S
C4803 C4806 1.499 . S
C4804 H4784 0.950 . S
C4804 C4803 1.414 . S
C4804 C4805 1.374 . S
C4805 H4785 0.950 . S
C4805 C4801 1.385 . S
C4805 C4804 1.374 . S
C4806 C4803 1.499 . S
C4806 C4807 1.373 . S
C4806 C4808 1.389 . S
C4807 H4786 0.950 . S
C4807 C4806 1.373 . S
C4807 C4823 1.377 1_565 S
C4808 C4806 1.389 . S
C4808 C4809 1.524 . S
C4808 C4822 1.377 1_565 S
C4809 C4808 1.524 . S
C4809 C4810 1.397 . S
C4809 C4814 1.363 . S
C4810 H4787 0.950 . S
C4810 C4809 1.397 . S
C4810 C4811 1.334 . S
C4811 H4788 0.950 . S
C4811 C4810 1.334 . S
C4811 C4812 1.287 . S
C4812 C4811 1.287 . S
C4812 C4813 1.524 . S
C4812 H4831 0.913 . S
C4813 H4789 0.950 . S
C4813 C4812 1.524 . S
C4813 C4814 1.415 . S
C4814 H4790 0.950 . S
C4814 C4809 1.363 . S
C4814 C4813 1.415 . S
C4815 H4791 0.951 . S
C4815 C4816 1.366 . S
C4815 C4817 1.388 . S
C4816 C4815 1.366 . S
C4816 C4820 1.385 . S
C4817 H4792 0.951 . S
C4817 C4815 1.388 . S
C4817 C4818 1.366 . S
C4818 C4817 1.366 . S
C4818 C4819 1.414 . S
C4818 C4821 1.499 . S
C4819 H4793 0.950 . S
C4819 C4818 1.414 . S
C4819 C4820 1.374 . S
C4820 H4794 0.950 . S
C4820 C4816 1.385 . S
C4820 C4819 1.374 . S
C4821 C4818 1.499 . S
C4821 C4822 1.373 . S
C4821 C4823 1.389 . S
C4822 H4795 0.950 . S
C4822 C4808 1.377 1_545 S
C4822 C4821 1.373 . S
C4823 C4807 1.377 1_545 S
C4823 C4821 1.389 . S
C4823 C4824 1.524 . S
C4824 C4823 1.524 . S
C4824 C4825 1.397 . S
C4824 C4829 1.363 . S
C4825 H4796 0.950 . S
C4825 C4824 1.397 . S
C4825 C4826 1.334 . S
C4826 H4797 0.950 . S
C4826 C4825 1.334 . S
C4826 C4827 1.287 . S
C4827 C4826 1.287 . S
C4827 C4828 1.524 . S
C4827 H4830 0.999 . S
C4828 H4798 0.950 . S
C4828 C4827 1.524 . S
C4828 C4829 1.415 . S
C4829 H4799 0.950 . S
C4829 C4824 1.363 . S
C4829 C4828 1.415 . S
H4830 C4827 0.999 . S
H4831 C4812 0.913 . S
H4832 C4850 0.951 . S
H4833 C4852 0.951 . S
H4834 C4854 0.950 . S
H4835 C4855 0.950 . S
H4836 C4857 0.950 . S
H4837 C4860 0.950 . S
H4838 C4861 0.950 . S
H4839 C4863 0.950 . S
H4840 C4864 0.950 . S
H4841 C4865 0.951 . S
H4842 C4867 0.951 . S
H4843 C4869 0.950 . S
H4844 C4870 0.950 . S
H4845 C4872 0.950 . S
H4846 C4875 0.950 . S
H4847 C4876 0.950 . S
H4848 C4878 0.950 . S
H4849 C4879 0.950 . S
C4850 H4832 0.951 . S
C4850 C4851 1.366 . S
C4850 C4852 1.388 . S
C4851 C4850 1.366 . S
C4851 C4855 1.385 . S
C4852 H4833 0.951 . S
C4852 C4850 1.388 . S
C4852 C4853 1.366 . S
C4853 C4852 1.366 . S
C4853 C4854 1.414 . S
C4853 C4856 1.499 . S
C4854 H4834 0.950 . S
C4854 C4853 1.414 . S
C4854 C4855 1.374 . S
C4855 H4835 0.950 . S
C4855 C4851 1.385 . S
C4855 C4854 1.374 . S
C4856 C4853 1.499 . S
C4856 C4857 1.373 . S
C4856 C4858 1.389 . S
C4857 H4836 0.950 . S
C4857 C4856 1.373 . S
C4857 C4873 1.377 . S
C4858 C4856 1.389 . S
C4858 C4859 1.524 . S
C4858 C4872 1.377 . S
C4859 C4858 1.524 . S
C4859 C4860 1.397 . S
C4859 C4864 1.363 . S
C4860 H4837 0.950 . S
C4860 C4859 1.397 . S
C4860 C4861 1.334 . S
C4861 H4838 0.950 . S
C4861 C4860 1.334 . S
C4861 C4862 1.287 . S
C4862 C4861 1.287 . S
C4862 C4863 1.524 . S
C4862 H4881 0.913 . S
C4863 H4839 0.950 . S
C4863 C4862 1.524 . S
C4863 C4864 1.415 . S
C4864 H4840 0.950 . S
C4864 C4859 1.363 . S
C4864 C4863 1.415 . S
C4865 H4841 0.951 . S
C4865 C4866 1.366 . S
C4865 C4867 1.388 . S
C4866 C4865 1.366 . S
C4866 C4870 1.385 . S
C4867 H4842 0.951 . S
C4867 C4865 1.388 . S
C4867 C4868 1.366 . S
C4868 C4867 1.366 . S
C4868 C4869 1.414 . S
C4868 C4871 1.499 . S
C4869 H4843 0.950 . S
C4869 C4868 1.414 . S
C4869 C4870 1.374 . S
C4870 H4844 0.950 . S
C4870 C4866 1.385 . S
C4870 C4869 1.374 . S
C4871 C4868 1.499 . S
C4871 C4872 1.373 . S
C4871 C4873 1.389 . S
C4872 H4845 0.950 . S
C4872 C4858 1.377 . S
C4872 C4871 1.373 . S
C4873 C4857 1.377 . S
C4873 C4871 1.389 . S
C4873 C4874 1.524 . S
C4874 C4873 1.524 . S
C4874 C4875 1.397 . S
C4874 C4879 1.363 . S
C4875 H4846 0.950 . S
C4875 C4874 1.397 . S
C4875 C4876 1.334 . S
C4876 H4847 0.950 . S
C4876 C4875 1.334 . S
C4876 C4877 1.287 . S
C4877 C4876 1.287 . S
C4877 C4878 1.524 . S
C4877 H4880 0.999 . S
C4878 H4848 0.950 . S
C4878 C4877 1.524 . S
C4878 C4879 1.415 . S
C4879 H4849 0.950 . S
C4879 C4874 1.363 . S
C4879 C4878 1.415 . S
H4880 C4877 0.999 . S
H4881 C4862 0.913 . S
H4882 C4900 0.951 . S
H4883 C4902 0.951 . S
H4884 C4904 0.950 . S
H4885 C4905 0.950 . S
H4886 C4907 0.950 . S
H4887 C4910 0.950 . S
H4888 C4911 0.950 . S
H4889 C4913 0.950 . S
H4890 C4914 0.950 . S
H4891 C4915 0.951 . S
H4892 C4917 0.951 . S
H4893 C4919 0.950 . S
H4894 C4920 0.950 . S
H4895 C4922 0.950 . S
H4896 C4925 0.950 . S
H4897 C4926 0.950 . S
H4898 C4928 0.950 . S
H4899 C4929 0.950 . S
C4900 H4882 0.951 . S
C4900 C4901 1.366 . S
C4900 C4902 1.388 . S
C4901 C4900 1.366 . S
C4901 C4905 1.385 . S
C4902 H4883 0.951 . S
C4902 C4900 1.388 . S
C4902 C4903 1.366 . S
C4903 C4902 1.366 . S
C4903 C4904 1.414 . S
C4903 C4906 1.499 . S
C4904 H4884 0.950 . S
C4904 C4903 1.414 . S
C4904 C4905 1.374 . S
C4905 H4885 0.950 . S
C4905 C4901 1.385 . S
C4905 C4904 1.374 . S
C4906 C4903 1.499 . S
C4906 C4907 1.373 . S
C4906 C4908 1.389 . S
C4907 H4886 0.950 . S
C4907 C4906 1.373 . S
C4907 C4923 1.377 . S
C4908 C4906 1.389 . S
C4908 C4909 1.524 . S
C4908 C4922 1.377 . S
C4909 C4908 1.524 . S
C4909 C4910 1.397 . S
C4909 C4914 1.363 . S
C4910 H4887 0.950 . S
C4910 C4909 1.397 . S
C4910 C4911 1.334 . S
C4911 H4888 0.950 . S
C4911 C4910 1.334 . S
C4911 C4912 1.287 . S
C4912 C4911 1.287 . S
C4912 C4913 1.524 . S
C4912 H4931 0.913 . S
C4913 H4889 0.950 . S
C4913 C4912 1.524 . S
C4913 C4914 1.415 . S
C4914 H4890 0.950 . S
C4914 C4909 1.363 . S
C4914 C4913 1.415 . S
C4915 H4891 0.951 . S
C4915 C4916 1.366 . S
C4915 C4917 1.388 . S
C4916 C4915 1.366 . S
C4916 C4920 1.385 . S
C4917 H4892 0.951 . S
C4917 C4915 1.388 . S
C4917 C4918 1.366 . S
C4918 C4917 1.366 . S
C4918 C4919 1.414 . S
C4918 C4921 1.499 . S
C4919 H4893 0.950 . S
C4919 C4918 1.414 . S
C4919 C4920 1.374 . S
C4920 H4894 0.950 . S
C4920 C4916 1.385 . S
C4920 C4919 1.374 . S
C4921 C4918 1.499 . S
C4921 C4922 1.373 . S
C4921 C4923 1.389 . S
C4922 H4895 0.950 . S
C4922 C4908 1.377 . S
C4922 C4921 1.373 . S
C4923 C4907 1.377 . S
C4923 C4921 1.389 . S
C4923 C4924 1.524 . S
C4924 C4923 1.524 . S
C4924 C4925 1.397 . S
C4924 C4929 1.363 . S
C4925 H4896 0.950 . S
C4925 C4924 1.397 . S
C4925 C4926 1.334 . S
C4926 H4897 0.950 . S
C4926 C4925 1.334 . S
C4926 C4927 1.287 . S
C4927 C4926 1.287 . S
C4927 C4928 1.524 . S
C4927 H4930 0.999 . S
C4928 H4898 0.950 . S
C4928 C4927 1.524 . S
C4928 C4929 1.415 . S
C4929 H4899 0.950 . S
C4929 C4924 1.363 . S
C4929 C4928 1.415 . S
H4930 C4927 0.999 . S
H4931 C4912 0.913 . S
H4932 C4950 0.951 . S
H4933 C4952 0.951 . S
H4934 C4954 0.950 . S
H4935 C4955 0.950 . S
H4936 C4957 0.950 . S
H4937 C4960 0.950 . S
H4938 C4961 0.950 . S
H4939 C4963 0.950 . S
H4940 C4964 0.950 . S
H4941 C4965 0.951 . S
H4942 C4967 0.951 . S
H4943 C4969 0.950 . S
H4944 C4970 0.950 . S
H4945 C4972 0.950 . S
H4946 C4975 0.950 . S
H4947 C4976 0.950 . S
H4948 C4978 0.950 . S
H4949 C4979 0.950 . S
C4950 H4932 0.951 . S
C4950 C4951 1.366 . S
C4950 C4952 1.388 . S
C4951 C4950 1.366 . S
C4951 C4955 1.385 . S
C4952 H4933 0.951 . S
C4952 C4950 1.388 . S
C4952 C4953 1.366 . S
C4953 C4952 1.366 . S
C4953 C4954 1.414 . S
C4953 C4956 1.499 . S
C4954 H4934 0.950 . S
C4954 C4953 1.414 . S
C4954 C4955 1.374 . S
C4955 H4935 0.950 . S
C4955 C4951 1.385 . S
C4955 C4954 1.374 . S
C4956 C4953 1.499 . S
C4956 C4957 1.373 . S
C4956 C4958 1.389 . S
C4957 H4936 0.950 . S
C4957 C4956 1.373 . S
C4957 C4973 1.377 . S
C4958 C4956 1.389 . S
C4958 C4959 1.524 . S
C4958 C4972 1.377 . S
C4959 C4958 1.524 . S
C4959 C4960 1.397 . S
C4959 C4964 1.363 . S
C4960 H4937 0.950 . S
C4960 C4959 1.397 . S
C4960 C4961 1.334 . S
C4961 H4938 0.950 . S
C4961 C4960 1.334 . S
C4961 C4962 1.287 . S
C4962 C4961 1.287 . S
C4962 C4963 1.524 . S
C4962 H4981 0.913 . S
C4963 H4939 0.950 . S
C4963 C4962 1.524 . S
C4963 C4964 1.415 . S
C4964 H4940 0.950 . S
C4964 C4959 1.363 . S
C4964 C4963 1.415 . S
C4965 H4941 0.951 . S
C4965 C4966 1.366 . S
C4965 C4967 1.388 . S
C4966 C4965 1.366 . S
C4966 C4970 1.385 . S
C4967 H4942 0.951 . S
C4967 C4965 1.388 . S
C4967 C4968 1.366 . S
C4968 C4967 1.366 . S
C4968 C4969 1.414 . S
C4968 C4971 1.499 1_655 S
C4969 H4943 0.950 . S
C4969 C4968 1.414 . S
C4969 C4970 1.374 . S
C4970 H4944 0.950 . S
C4970 C4966 1.385 . S
C4970 C4969 1.374 . S
C4971 C4968 1.499 1_455 S
C4971 C4972 1.373 . S
C4971 C4973 1.389 . S
C4972 H4945 0.950 . S
C4972 C4958 1.377 . S
C4972 C4971 1.373 . S
C4973 C4957 1.377 . S
C4973 C4971 1.389 . S
C4973 C4974 1.524 . S
C4974 C4973 1.524 . S
C4974 C4975 1.397 1_455 S
C4974 C4979 1.363 . S
C4975 H4946 0.950 . S
C4975 C4974 1.397 1_655 S
C4975 C4976 1.334 . S
C4976 H4947 0.950 . S
C4976 C4975 1.334 . S
C4976 C4977 1.287 . S
C4977 C4976 1.287 . S
C4977 C4978 1.524 . S
C4977 H4980 0.999 . S
C4978 H4948 0.950 . S
C4978 C4977 1.524 . S
C4978 C4979 1.415 1_655 S
C4979 H4949 0.950 . S
C4979 C4974 1.363 . S
C4979 C4978 1.415 1_455 S
H4980 C4977 0.999 . S
H4981 C4962 0.913 . S
H4982 C5000 0.951 . S
H4983 C5002 0.951 . S
H4984 C5004 0.950 . S
H4985 C5005 0.950 . S
H4986 C5007 0.950 . S
H4987 C5010 0.950 . S
H4988 C5011 0.950 . S
H4989 C5013 0.950 . S
H4990 C5014 0.950 . S
H4991 C5015 0.951 . S
H4992 C5017 0.951 . S
H4993 C5019 0.950 . S
H4994 C5020 0.950 . S
H4995 C5022 0.950 . S
H4996 C5025 0.950 . S
H4997 C5026 0.950 . S
H4998 C5028 0.950 . S
H4999 C5029 0.950 . S
C5000 H4982 0.951 . S
C5000 C5001 1.366 . S
C5000 C5002 1.388 . S
C5001 C5000 1.366 . S
C5001 C5005 1.385 . S
C5002 H4983 0.951 . S
C5002 C5000 1.388 . S
C5002 C5003 1.366 . S
C5003 C5002 1.366 . S
C5003 C5004 1.414 . S
C5003 C5006 1.499 . S
C5004 H4984 0.950 . S
C5004 C5003 1.414 . S
C5004 C5005 1.374 . S
C5005 H4985 0.950 . S
C5005 C5001 1.385 . S
C5005 C5004 1.374 . S
C5006 C5003 1.499 . S
C5006 C5007 1.373 . S
C5006 C5008 1.389 . S
C5007 H4986 0.950 . S
C5007 C5006 1.373 . S
C5007 C5023 1.377 . S
C5008 C5006 1.389 . S
C5008 C5009 1.524 . S
C5008 C5022 1.377 . S
C5009 C5008 1.524 . S
C5009 C5010 1.397 . S
C5009 C5014 1.363 . S
C5010 H4987 0.950 . S
C5010 C5009 1.397 . S
C5010 C5011 1.334 . S
C5011 H4988 0.950 . S
C5011 C5010 1.334 . S
C5011 C5012 1.287 . S
C5012 C5011 1.287 . S
C5012 C5013 1.524 . S
C5012 H5031 0.913 . S
C5013 H4989 0.950 . S
C5013 C5012 1.524 . S
C5013 C5014 1.415 . S
C5014 H4990 0.950 . S
C5014 C5009 1.363 . S
C5014 C5013 1.415 . S
C5015 H4991 0.951 . S
C5015 C5016 1.366 . S
C5015 C5017 1.388 . S
C5016 C5015 1.366 . S
C5016 C5020 1.385 . S
C5017 H4992 0.951 . S
C5017 C5015 1.388 . S
C5017 C5018 1.366 . S
C5018 C5017 1.366 . S
C5018 C5019 1.414 . S
C5018 C5021 1.499 . S
C5019 H4993 0.950 . S
C5019 C5018 1.414 . S
C5019 C5020 1.374 . S
C5020 H4994 0.950 . S
C5020 C5016 1.385 . S
C5020 C5019 1.374 . S
C5021 C5018 1.499 . S
C5021 C5022 1.373 . S
C5021 C5023 1.389 . S
C5022 H4995 0.950 . S
C5022 C5008 1.377 . S
C5022 C5021 1.373 . S
C5023 C5007 1.377 . S
C5023 C5021 1.389 . S
C5023 C5024 1.524 . S
C5024 C5023 1.524 . S
C5024 C5025 1.397 . S
C5024 C5029 1.363 . S
C5025 H4996 0.950 . S
C5025 C5024 1.397 . S
C5025 C5026 1.334 . S
C5026 H4997 0.950 . S
C5026 C5025 1.334 . S
C5026 C5027 1.287 . S
C5027 C5026 1.287 . S
C5027 C5028 1.524 . S
C5027 H5030 0.999 . S
C5028 H4998 0.950 . S
C5028 C5027 1.524 . S
C5028 C5029 1.415 . S
C5029 H4999 0.950 . S
C5029 C5024 1.363 . S
C5029 C5028 1.415 . S
H5030 C5027 0.999 . S
H5031 C5012 0.913 . S
H5032 C5050 0.951 . S
H5033 C5052 0.951 . S
H5034 C5054 0.950 . S
H5035 C5055 0.950 . S
H5036 C5057 0.950 . S
H5037 C5060 0.950 . S
H5038 C5061 0.950 . S
H5039 C5063 0.966 . S
H5040 C5064 0.950 . S
H5041 C5065 0.951 . S
H5042 C5067 0.951 . S
H5043 C5069 0.950 . S
H5044 C5070 0.950 . S
H5045 C5072 0.950 . S
H5046 C5075 0.950 . S
H5047 C5076 0.950 . S
H5048 C5078 0.950 . S
H5049 C5079 0.950 . S
C5050 H5032 0.951 . S
C5050 C5051 1.366 . S
C5050 C5052 1.388 . S
C5051 C5050 1.366 . S
C5051 C5055 1.385 . S
C5052 H5033 0.951 . S
C5052 C5050 1.388 . S
C5052 C5053 1.366 . S
C5053 C5052 1.366 . S
C5053 C5054 1.414 . S
C5053 C5056 1.565 . S
C5054 H5034 0.950 . S
C5054 C5053 1.414 . S
C5054 C5055 1.374 . S
C5055 H5035 0.950 . S
C5055 C5051 1.385 . S
C5055 C5054 1.374 . S
C5056 C5053 1.565 . S
C5056 C5057 1.343 1_455 S
C5056 C5058 1.353 1_455 S
C5057 H5036 0.950 . S
C5057 C5056 1.343 1_655 S
C5057 C5073 1.377 . S
C5058 C5056 1.353 1_655 S
C5058 C5059 1.510 1_655 S
C5058 C5072 1.377 . S
C5059 C5058 1.510 1_455 S
C5059 C5060 1.420 . S
C5059 C5064 1.352 1_455 S
C5060 H5037 0.950 . S
C5060 C5059 1.420 . S
C5060 C5061 1.334 . S
C5061 H5038 0.950 . S
C5061 C5060 1.334 . S
C5061 C5062 1.287 . S
C5062 C5061 1.287 . S
C5062 C5063 1.524 . S
C5062 H5081 0.913 . S
C5063 H5039 0.966 . S
C5063 C5062 1.524 . S
C5063 C5064 1.415 1_455 S
C5064 H5040 0.950 . S
C5064 C5059 1.352 1_655 S
C5064 C5063 1.415 1_655 S
C5065 H5041 0.951 . S
C5065 C5066 1.366 . S
C5065 C5067 1.388 . S
C5066 C5065 1.366 . S
C5066 C5070 1.385 . S
C5067 H5042 0.951 . S
C5067 C5065 1.388 . S
C5067 C5068 1.366 . S
C5068 C5067 1.366 . S
C5068 C5069 1.414 . S
C5068 C5071 1.499 . S
C5069 H5043 0.950 . S
C5069 C5068 1.414 . S
C5069 C5070 1.374 . S
C5070 H5044 0.950 . S
C5070 C5066 1.385 . S
C5070 C5069 1.374 . S
C5071 C5068 1.499 . S
C5071 C5072 1.373 . S
C5071 C5073 1.389 . S
C5072 H5045 0.950 . S
C5072 C5058 1.377 . S
C5072 C5071 1.373 . S
C5073 C5057 1.377 . S
C5073 C5071 1.389 . S
C5073 C5074 1.524 . S
C5074 C5073 1.524 . S
C5074 C5075 1.397 . S
C5074 C5079 1.363 . S
C5075 H5046 0.950 . S
C5075 C5074 1.397 . S
C5075 C5076 1.334 . S
C5076 H5047 0.950 . S
C5076 C5075 1.334 . S
C5076 C5077 1.287 . S
C5077 C5076 1.287 . S
C5077 C5078 1.524 . S
C5077 H5080 0.999 . S
C5078 H5048 0.950 . S
C5078 C5077 1.524 . S
C5078 C5079 1.415 . S
C5079 H5049 0.950 . S
C5079 C5074 1.363 . S
C5079 C5078 1.415 . S
H5080 C5077 0.999 . S
H5081 C5062 0.913 . S
H5082 C5100 0.951 . S
H5083 C5102 0.951 . S
H5084 C5104 0.950 . S
H5085 C5105 0.950 . S
H5086 C5107 0.950 . S
H5087 C5110 0.950 . S
H5088 C5111 0.950 . S
H5089 C5113 0.950 . S
H5090 C5114 0.950 . S
H5091 C5115 0.951 . S
H5092 C5117 0.951 . S
H5093 C5119 0.950 . S
H5094 C5120 0.950 . S
H5095 C5122 0.950 . S
H5096 C5125 0.950 . S
H5097 C5126 0.950 . S
H5098 C5128 0.950 . S
H5099 C5129 0.950 . S
C5100 H5082 0.951 . S
C5100 C5101 1.366 . S
C5100 C5102 1.388 . S
C5101 C5100 1.366 . S
C5101 C5105 1.385 . S
C5102 H5083 0.951 . S
C5102 C5100 1.388 . S
C5102 C5103 1.366 . S
C5103 C5102 1.366 . S
C5103 C5104 1.414 . S
C5103 C5106 1.499 . S
C5104 H5084 0.950 . S
C5104 C5103 1.414 . S
C5104 C5105 1.374 . S
C5105 H5085 0.950 . S
C5105 C5101 1.385 . S
C5105 C5104 1.374 . S
C5106 C5103 1.499 . S
C5106 C5107 1.373 . S
C5106 C5108 1.389 . S
C5107 H5086 0.950 . S
C5107 C5106 1.373 . S
C5107 C5123 1.377 . S
C5108 C5106 1.389 . S
C5108 C5109 1.524 . S
C5108 C5122 1.377 . S
C5109 C5108 1.524 . S
C5109 C5110 1.397 . S
C5109 C5114 1.363 . S
C5110 H5087 0.950 . S
C5110 C5109 1.397 . S
C5110 C5111 1.334 . S
C5111 H5088 0.950 . S
C5111 C5110 1.334 . S
C5111 C5112 1.287 . S
C5112 C5111 1.287 . S
C5112 C5113 1.524 . S
C5112 H5131 0.913 . S
C5113 H5089 0.950 . S
C5113 C5112 1.524 . S
C5113 C5114 1.415 . S
C5114 H5090 0.950 . S
C5114 C5109 1.363 . S
C5114 C5113 1.415 . S
C5115 H5091 0.951 . S
C5115 C5116 1.366 . S
C5115 C5117 1.388 . S
C5116 C5115 1.366 . S
C5116 C5120 1.385 . S
C5117 H5092 0.951 . S
C5117 C5115 1.388 . S
C5117 C5118 1.366 . S
C5118 C5117 1.366 . S
C5118 C5119 1.414 . S
C5118 C5121 1.499 . S
C5119 H5093 0.950 . S
C5119 C5118 1.414 . S
C5119 C5120 1.374 . S
C5120 H5094 0.950 . S
C5120 C5116 1.385 . S
C5120 C5119 1.374 . S
C5121 C5118 1.499 . S
C5121 C5122 1.373 . S
C5121 C5123 1.389 . S
C5122 H5095 0.950 . S
C5122 C5108 1.377 . S
C5122 C5121 1.373 . S
C5123 C5107 1.377 . S
C5123 C5121 1.389 . S
C5123 C5124 1.524 . S
C5124 C5123 1.524 . S
C5124 C5125 1.397 . S
C5124 C5129 1.363 . S
C5125 H5096 0.950 . S
C5125 C5124 1.397 . S
C5125 C5126 1.334 . S
C5126 H5097 0.950 . S
C5126 C5125 1.334 . S
C5126 C5127 1.287 . S
C5127 C5126 1.287 . S
C5127 C5128 1.524 . S
C5127 H5130 0.999 . S
C5128 H5098 0.950 . S
C5128 C5127 1.524 . S
C5128 C5129 1.415 . S
C5129 H5099 0.950 . S
C5129 C5124 1.363 . S
C5129 C5128 1.415 . S
H5130 C5127 0.999 . S
H5131 C5112 0.913 . S
H5132 C5150 0.951 . S
H5133 C5152 0.951 . S
H5134 C5154 0.950 . S
H5135 C5155 0.950 . S
H5136 C5157 0.950 . S
H5137 C5160 0.950 . S
H5138 C5161 0.950 . S
H5139 C5163 0.950 . S
H5140 C5164 0.950 . S
H5141 C5165 0.951 . S
H5142 C5167 0.951 . S
H5143 C5169 0.950 . S
H5144 C5170 0.950 . S
H5145 C5172 0.980 . S
H5146 C5175 0.950 . S
H5147 C5176 0.950 . S
H5148 C5178 0.950 . S
H5149 C5179 0.950 . S
C5150 H5132 0.951 . S
C5150 C5151 1.366 . S
C5150 C5152 1.388 . S
C5151 C5150 1.366 . S
C5151 C5155 1.385 . S
C5152 H5133 0.951 . S
C5152 C5150 1.388 . S
C5152 C5153 1.366 . S
C5153 C5152 1.366 . S
C5153 C5154 1.414 . S
C5153 C5156 1.499 . S
C5154 H5134 0.950 . S
C5154 C5153 1.414 . S
C5154 C5155 1.374 . S
C5155 H5135 0.950 . S
C5155 C5151 1.385 . S
C5155 C5154 1.374 . S
C5156 C5153 1.499 . S
C5156 C5157 1.373 . S
C5156 C5158 1.389 . S
C5157 H5136 0.950 . S
C5157 C5156 1.373 . S
C5157 C5173 1.377 . S
C5158 C5156 1.389 . S
C5158 C5159 1.524 . S
C5158 C5172 1.377 . S
C5159 C5158 1.524 . S
C5159 C5160 1.397 . S
C5159 C5164 1.363 . S
C5160 H5137 0.950 . S
C5160 C5159 1.397 . S
C5160 C5161 1.334 . S
C5161 H5138 0.950 . S
C5161 C5160 1.334 . S
C5161 C5162 1.287 . S
C5162 C5161 1.287 . S
C5162 C5163 1.524 . S
C5162 H5181 0.913 . S
C5163 H5139 0.950 . S
C5163 C5162 1.524 . S
C5163 C5164 1.415 . S
C5164 H5140 0.950 . S
C5164 C5159 1.363 . S
C5164 C5163 1.415 . S
C5165 H5141 0.951 . S
C5165 C5166 1.366 . S
C5165 C5167 1.388 . S
C5166 C5165 1.366 . S
C5166 C5170 1.385 . S
C5167 H5142 0.951 . S
C5167 C5165 1.388 . S
C5167 C5168 1.366 . S
C5168 C5167 1.366 . S
C5168 C5169 1.414 . S
C5168 C5171 1.501 1_455 S
C5169 H5143 0.950 . S
C5169 C5168 1.414 . S
C5169 C5170 1.374 . S
C5170 H5144 0.950 . S
C5170 C5166 1.385 . S
C5170 C5169 1.374 . S
C5171 C5168 1.501 1_655 S
C5171 C5172 1.372 . S
C5171 C5173 1.388 . S
C5172 H5145 0.980 . S
C5172 C5158 1.377 . S
C5172 C5171 1.372 . S
C5173 C5157 1.377 . S
C5173 C5171 1.388 . S
C5173 C5174 1.524 . S
C5174 C5173 1.524 . S
C5174 C5175 1.397 1_655 S
C5174 C5179 1.363 . S
C5175 H5146 0.950 . S
C5175 C5174 1.397 1_455 S
C5175 C5176 1.334 . S
C5176 H5147 0.950 . S
C5176 C5175 1.334 . S
C5176 C5177 1.287 . S
C5177 C5176 1.287 . S
C5177 C5178 1.524 1_455 S
C5177 H5180 0.999 . S
C5178 H5148 0.950 . S
C5178 C5177 1.524 1_655 S
C5178 C5179 1.415 . S
C5179 H5149 0.950 . S
C5179 C5174 1.363 . S
C5179 C5178 1.415 . S
H5180 C5177 0.999 . S
H5181 C5162 0.913 . S
H5182 C5200 0.951 . S
H5183 C5202 0.951 . S
H5184 C5204 0.950 . S
H5185 C5205 0.950 . S
H5186 C5207 0.950 . S
H5187 C5210 0.950 . S
H5188 C5211 0.950 . S
H5189 C5213 0.950 . S
H5190 C5214 0.950 . S
H5191 C5215 0.951 . S
H5192 C5217 0.951 . S
H5193 C5219 0.950 . S
H5194 C5220 0.950 . S
H5195 C5222 0.950 . S
H5196 C5225 0.950 . S
H5197 C5226 0.950 . S
H5198 C5228 0.950 . S
H5199 C5229 0.950 . S
C5200 H5182 0.951 . S
C5200 C5201 1.366 . S
C5200 C5202 1.388 . S
C5201 C5200 1.366 . S
C5201 C5205 1.385 . S
C5202 H5183 0.951 . S
C5202 C5200 1.388 . S
C5202 C5203 1.366 . S
C5203 C5202 1.366 . S
C5203 C5204 1.414 . S
C5203 C5206 1.499 . S
C5204 H5184 0.950 . S
C5204 C5203 1.414 . S
C5204 C5205 1.374 . S
C5205 H5185 0.950 . S
C5205 C5201 1.385 . S
C5205 C5204 1.374 . S
C5206 C5203 1.499 . S
C5206 C5207 1.373 . S
C5206 C5208 1.389 . S
C5207 H5186 0.950 . S
C5207 C5206 1.373 . S
C5207 C5223 1.377 . S
C5208 C5206 1.389 . S
C5208 C5209 1.524 . S
C5208 C5222 1.377 . S
C5209 C5208 1.524 . S
C5209 C5210 1.397 . S
C5209 C5214 1.363 . S
C5210 H5187 0.950 . S
C5210 C5209 1.397 . S
C5210 C5211 1.334 . S
C5211 H5188 0.950 . S
C5211 C5210 1.334 . S
C5211 C5212 1.287 . S
C5212 C5211 1.287 . S
C5212 C5213 1.524 . S
C5212 H5231 0.913 . S
C5213 H5189 0.950 . S
C5213 C5212 1.524 . S
C5213 C5214 1.415 . S
C5214 H5190 0.950 . S
C5214 C5209 1.363 . S
C5214 C5213 1.415 . S
C5215 H5191 0.951 . S
C5215 C5216 1.366 . S
C5215 C5217 1.388 . S
C5216 C5215 1.366 . S
C5216 C5220 1.385 . S
C5217 H5192 0.951 . S
C5217 C5215 1.388 . S
C5217 C5218 1.366 . S
C5218 C5217 1.366 . S
C5218 C5219 1.414 . S
C5218 C5221 1.499 1_655 S
C5219 H5193 0.950 . S
C5219 C5218 1.414 . S
C5219 C5220 1.374 . S
C5220 H5194 0.950 . S
C5220 C5216 1.385 . S
C5220 C5219 1.374 . S
C5221 C5218 1.499 1_455 S
C5221 C5222 1.373 . S
C5221 C5223 1.389 . S
C5222 H5195 0.950 . S
C5222 C5208 1.377 . S
C5222 C5221 1.373 . S
C5223 C5207 1.377 . S
C5223 C5221 1.389 . S
C5223 C5224 1.524 . S
C5224 C5223 1.524 . S
C5224 C5225 1.397 1_455 S
C5224 C5229 1.363 . S
C5225 H5196 0.950 . S
C5225 C5224 1.397 1_655 S
C5225 C5226 1.334 . S
C5226 H5197 0.950 . S
C5226 C5225 1.334 . S
C5226 C5227 1.287 . S
C5227 C5226 1.287 . S
C5227 C5228 1.524 1_655 S
C5227 H5230 0.999 . S
C5228 H5198 0.950 . S
C5228 C5227 1.524 1_455 S
C5228 C5229 1.415 . S
C5229 H5199 0.950 . S
C5229 C5224 1.363 . S
C5229 C5228 1.415 . S
H5230 C5227 0.999 . S
H5231 C5212 0.913 . S
H5232 C5250 0.951 . S
H5233 C5252 0.951 . S
H5234 C5254 0.950 . S
H5235 C5255 0.950 . S
H5236 C5257 0.950 . S
H5237 C5260 0.950 . S
H5238 C5261 0.950 . S
H5239 C5263 0.950 . S
H5240 C5264 0.950 . S
H5241 C5265 0.951 . S
H5242 C5267 0.951 . S
H5243 C5269 0.950 . S
H5244 C5270 0.950 . S
H5245 C5272 0.950 1_455 S
H5246 C5275 0.950 . S
H5247 C5276 0.950 . S
H5248 C5278 0.950 . S
H5249 C5279 0.985 . S
C5250 H5232 0.951 . S
C5250 C5251 1.366 . S
C5250 C5252 1.388 . S
C5251 C5250 1.366 . S
C5251 C5255 1.385 . S
C5252 H5233 0.951 . S
C5252 C5250 1.388 . S
C5252 C5253 1.366 . S
C5253 C5252 1.366 . S
C5253 C5254 1.414 . S
C5253 C5256 1.499 . S
C5254 H5234 0.950 . S
C5254 C5253 1.414 . S
C5254 C5255 1.374 . S
C5255 H5235 0.950 . S
C5255 C5251 1.385 . S
C5255 C5254 1.374 . S
C5256 C5253 1.499 . S
C5256 C5257 1.373 . S
C5256 C5258 1.389 . S
C5257 H5236 0.950 . S
C5257 C5256 1.373 . S
C5257 C5273 1.377 . S
C5258 C5256 1.389 . S
C5258 C5259 1.524 . S
C5258 C5272 1.377 . S
C5259 C5258 1.524 . S
C5259 C5260 1.397 . S
C5259 C5264 1.363 . S
C5260 H5237 0.950 . S
C5260 C5259 1.397 . S
C5260 C5261 1.334 . S
C5261 H5238 0.950 . S
C5261 C5260 1.334 . S
C5261 C5262 1.287 . S
C5262 C5261 1.287 . S
C5262 C5263 1.524 . S
C5262 H5281 0.913 . S
C5263 H5239 0.950 . S
C5263 C5262 1.524 . S
C5263 C5264 1.415 . S
C5264 H5240 0.950 . S
C5264 C5259 1.363 . S
C5264 C5263 1.415 . S
C5265 H5241 0.951 . S
C5265 C5266 1.366 . S
C5265 C5267 1.388 . S
C5266 C5265 1.366 . S
C5266 C5270 1.385 . S
C5267 H5242 0.951 . S
C5267 C5265 1.388 . S
C5267 C5268 1.366 . S
C5268 C5267 1.366 . S
C5268 C5269 1.414 . S
C5268 C5271 1.499 . S
C5269 H5243 0.950 . S
C5269 C5268 1.414 . S
C5269 C5270 1.374 . S
C5270 H5244 0.950 . S
C5270 C5266 1.385 . S
C5270 C5269 1.374 . S
C5271 C5268 1.499 . S
C5271 C5272 1.373 1_455 S
C5271 C5273 1.389 1_455 S
C5272 H5245 0.950 1_655 S
C5272 C5258 1.377 . S
C5272 C5271 1.373 1_655 S
C5273 C5257 1.377 . S
C5273 C5271 1.389 1_655 S
C5273 C5274 1.524 1_655 S
C5274 C5273 1.524 1_455 S
C5274 C5275 1.397 . S
C5274 C5279 1.351 1_455 S
C5275 H5246 0.950 . S
C5275 C5274 1.397 . S
C5275 C5276 1.334 . S
C5276 H5247 0.950 . S
C5276 C5275 1.334 . S
C5276 C5277 1.287 . S
C5277 C5276 1.287 . S
C5277 C5278 1.524 . S
C5277 H5280 0.999 . S
C5278 H5248 0.950 . S
C5278 C5277 1.524 . S
C5278 C5279 1.394 1_455 S
C5279 H5249 0.985 . S
C5279 C5274 1.351 1_655 S
C5279 C5278 1.394 1_655 S
H5280 C5277 0.999 . S
H5281 C5262 0.913 . S
H5282 C5300 0.951 . S
H5283 C5302 0.951 . S
H5284 C5304 0.950 . S
H5285 C5305 0.950 . S
H5286 C5307 0.950 . S
H5287 C5310 0.950 . S
H5288 C5311 0.950 . S
H5289 C5313 0.950 . S
H5290 C5314 0.950 . S
H5291 C5315 0.951 . S
H5292 C5317 0.951 . S
H5293 C5319 0.950 . S
H5294 C5320 0.950 . S
H5295 C5322 0.950 . S
H5296 C5325 0.950 . S
H5297 C5326 0.950 . S
H5298 C5328 0.950 . S
H5299 C5329 0.950 . S
C5300 H5282 0.951 . S
C5300 C5301 1.366 . S
C5300 C5302 1.388 . S
C5301 C5300 1.366 . S
C5301 C5305 1.385 . S
C5302 H5283 0.951 . S
C5302 C5300 1.388 . S
C5302 C5303 1.366 . S
C5303 C5302 1.366 . S
C5303 C5304 1.414 . S
C5303 C5306 1.499 . S
C5304 H5284 0.950 . S
C5304 C5303 1.414 . S
C5304 C5305 1.374 . S
C5305 H5285 0.950 . S
C5305 C5301 1.385 . S
C5305 C5304 1.374 . S
C5306 C5303 1.499 . S
C5306 C5307 1.373 . S
C5306 C5308 1.389 . S
C5307 H5286 0.950 . S
C5307 C5306 1.373 . S
C5307 C5323 1.377 . S
C5308 C5306 1.389 . S
C5308 C5309 1.524 . S
C5308 C5322 1.377 . S
C5309 C5308 1.524 . S
C5309 C5310 1.397 . S
C5309 C5314 1.363 . S
C5310 H5287 0.950 . S
C5310 C5309 1.397 . S
C5310 C5311 1.334 . S
C5311 H5288 0.950 . S
C5311 C5310 1.334 . S
C5311 C5312 1.287 . S
C5312 C5311 1.287 . S
C5312 C5313 1.524 . S
C5312 H5331 0.913 . S
C5313 H5289 0.950 . S
C5313 C5312 1.524 . S
C5313 C5314 1.415 . S
C5314 H5290 0.950 . S
C5314 C5309 1.363 . S
C5314 C5313 1.415 . S
C5315 H5291 0.951 . S
C5315 C5316 1.366 . S
C5315 C5317 1.388 . S
C5316 C5315 1.366 . S
C5316 C5320 1.385 . S
C5317 H5292 0.951 . S
C5317 C5315 1.388 . S
C5317 C5318 1.366 . S
C5318 C5317 1.366 . S
C5318 C5319 1.414 . S
C5318 C5321 1.499 . S
C5319 H5293 0.950 . S
C5319 C5318 1.414 . S
C5319 C5320 1.374 . S
C5320 H5294 0.950 . S
C5320 C5316 1.385 . S
C5320 C5319 1.374 . S
C5321 C5318 1.499 . S
C5321 C5322 1.373 . S
C5321 C5323 1.389 . S
C5322 H5295 0.950 . S
C5322 C5308 1.377 . S
C5322 C5321 1.373 . S
C5323 C5307 1.377 . S
C5323 C5321 1.389 . S
C5323 C5324 1.524 . S
C5324 C5323 1.524 . S
C5324 C5325 1.397 . S
C5324 C5329 1.363 . S
C5325 H5296 0.950 . S
C5325 C5324 1.397 . S
C5325 C5326 1.334 . S
C5326 H5297 0.950 . S
C5326 C5325 1.334 . S
C5326 C5327 1.287 . S
C5327 C5326 1.287 . S
C5327 C5328 1.524 . S
C5327 H5330 0.999 . S
C5328 H5298 0.950 . S
C5328 C5327 1.524 . S
C5328 C5329 1.415 . S
C5329 H5299 0.950 . S
C5329 C5324 1.363 . S
C5329 C5328 1.415 . S
H5330 C5327 0.999 . S
H5331 C5312 0.913 . S
H5332 C5350 0.951 . S
H5333 C5352 0.951 . S
H5334 C5354 0.950 . S
H5335 C5355 0.950 . S
H5336 C5357 0.950 . S
H5337 C5360 0.950 . S
H5338 C5361 0.950 . S
H5339 C5363 0.950 . S
H5340 C5364 0.950 . S
H5341 C5365 0.951 . S
H5342 C5367 0.951 . S
H5343 C5369 0.950 . S
H5344 C5370 0.950 . S
H5345 C5372 0.950 . S
H5346 C5375 0.950 . S
H5347 C5376 0.950 . S
H5348 C5378 0.950 . S
H5349 C5379 0.952 1_455 S
C5350 H5332 0.951 . S
C5350 C5351 1.366 . S
C5350 C5352 1.388 . S
C5351 C5350 1.366 . S
C5351 C5355 1.385 . S
C5352 H5333 0.951 . S
C5352 C5350 1.388 . S
C5352 C5353 1.366 . S
C5353 C5352 1.366 . S
C5353 C5354 1.414 . S
C5353 C5356 1.499 . S
C5354 H5334 0.950 . S
C5354 C5353 1.414 . S
C5354 C5355 1.374 . S
C5355 H5335 0.950 . S
C5355 C5351 1.385 . S
C5355 C5354 1.374 . S
C5356 C5353 1.499 . S
C5356 C5357 1.373 . S
C5356 C5358 1.389 . S
C5357 H5336 0.950 . S
C5357 C5356 1.373 . S
C5357 C5373 1.377 1_455 S
C5358 C5356 1.389 . S
C5358 C5359 1.524 . S
C5358 C5372 1.377 1_455 S
C5359 C5358 1.524 . S
C5359 C5360 1.397 . S
C5359 C5364 1.363 . S
C5360 H5337 0.950 . S
C5360 C5359 1.397 . S
C5360 C5361 1.334 . S
C5361 H5338 0.950 . S
C5361 C5360 1.334 . S
C5361 C5362 1.287 . S
C5362 C5361 1.287 . S
C5362 C5363 1.524 . S
C5362 H5381 0.913 . S
C5363 H5339 0.950 . S
C5363 C5362 1.524 . S
C5363 C5364 1.415 . S
C5364 H5340 0.950 . S
C5364 C5359 1.363 . S
C5364 C5363 1.415 . S
C5365 H5341 0.951 . S
C5365 C5366 1.366 . S
C5365 C5367 1.388 . S
C5366 C5365 1.366 . S
C5366 C5370 1.385 . S
C5367 H5342 0.951 . S
C5367 C5365 1.388 . S
C5367 C5368 1.366 . S
C5368 C5367 1.366 . S
C5368 C5369 1.414 . S
C5368 C5371 1.499 . S
C5369 H5343 0.950 . S
C5369 C5368 1.414 . S
C5369 C5370 1.374 . S
C5370 H5344 0.950 . S
C5370 C5366 1.385 . S
C5370 C5369 1.374 . S
C5371 C5368 1.499 . S
C5371 C5372 1.373 . S
C5371 C5373 1.389 . S
C5372 H5345 0.950 . S
C5372 C5358 1.377 1_655 S
C5372 C5371 1.373 . S
C5373 C5357 1.377 1_655 S
C5373 C5371 1.389 . S
C5373 C5374 1.524 . S
C5374 C5373 1.524 . S
C5374 C5375 1.397 . S
C5374 C5379 1.363 . S
C5375 H5346 0.950 . S
C5375 C5374 1.397 . S
C5375 C5376 1.334 . S
C5376 H5347 0.950 . S
C5376 C5375 1.334 . S
C5376 C5377 1.287 . S
C5377 C5376 1.287 . S
C5377 C5378 1.524 . S
C5377 H5380 0.999 . S
C5378 H5348 0.950 . S
C5378 C5377 1.524 . S
C5378 C5379 1.415 . S
C5379 H5349 0.952 1_655 S
C5379 C5374 1.363 . S
C5379 C5378 1.415 . S
H5380 C5377 0.999 . S
H5381 C5362 0.913 . S
H5382 C5400 0.951 . S
H5383 C5402 0.951 . S
H5384 C5404 0.950 . S
H5385 C5405 0.950 . S
H5386 C5407 0.950 . S
H5387 C5410 0.950 . S
H5388 C5411 0.950 . S
H5389 C5413 0.950 . S
H5390 C5414 0.950 . S
H5391 C5415 0.951 . S
H5392 C5417 0.951 . S
H5393 C5419 0.950 . S
H5394 C5420 0.950 . S
H5395 C5422 0.950 . S
H5396 C5425 0.950 . S
H5397 C5426 0.950 . S
H5398 C5428 0.950 . S
H5399 C5429 0.950 . S
C5400 H5382 0.951 . S
C5400 C5401 1.366 . S
C5400 C5402 1.388 . S
C5401 C5400 1.366 . S
C5401 C5405 1.385 . S
C5402 H5383 0.951 . S
C5402 C5400 1.388 . S
C5402 C5403 1.366 . S
C5403 C5402 1.366 . S
C5403 C5404 1.414 . S
C5403 C5406 1.499 . S
C5404 H5384 0.950 . S
C5404 C5403 1.414 . S
C5404 C5405 1.374 . S
C5405 H5385 0.950 . S
C5405 C5401 1.385 . S
C5405 C5404 1.374 . S
C5406 C5403 1.499 . S
C5406 C5407 1.373 . S
C5406 C5408 1.389 . S
C5407 H5386 0.950 . S
C5407 C5406 1.373 . S
C5407 C5423 1.377 . S
C5408 C5406 1.389 . S
C5408 C5409 1.524 . S
C5408 C5422 1.377 . S
C5409 C5408 1.524 . S
C5409 C5410 1.397 . S
C5409 C5414 1.363 . S
C5410 H5387 0.950 . S
C5410 C5409 1.397 . S
C5410 C5411 1.334 . S
C5411 H5388 0.950 . S
C5411 C5410 1.334 . S
C5411 C5412 1.287 . S
C5412 C5411 1.287 . S
C5412 C5413 1.524 . S
C5412 H5431 0.913 . S
C5413 H5389 0.950 . S
C5413 C5412 1.524 . S
C5413 C5414 1.415 . S
C5414 H5390 0.950 . S
C5414 C5409 1.363 . S
C5414 C5413 1.415 . S
C5415 H5391 0.951 . S
C5415 C5416 1.366 . S
C5415 C5417 1.388 . S
C5416 C5415 1.366 . S
C5416 C5420 1.385 . S
C5417 H5392 0.951 . S
C5417 C5415 1.388 . S
C5417 C5418 1.366 . S
C5418 C5417 1.366 . S
C5418 C5419 1.414 . S
C5418 C5421 1.499 . S
C5419 H5393 0.950 . S
C5419 C5418 1.414 . S
C5419 C5420 1.374 . S
C5420 H5394 0.950 . S
C5420 C5416 1.385 . S
C5420 C5419 1.374 . S
C5421 C5418 1.499 . S
C5421 C5422 1.373 . S
C5421 C5423 1.389 . S
C5422 H5395 0.950 . S
C5422 C5408 1.377 . S
C5422 C5421 1.373 . S
C5423 C5407 1.377 . S
C5423 C5421 1.389 . S
C5423 C5424 1.524 . S
C5424 C5423 1.524 . S
C5424 C5425 1.397 . S
C5424 C5429 1.363 . S
C5425 H5396 0.950 . S
C5425 C5424 1.397 . S
C5425 C5426 1.334 . S
C5426 H5397 0.950 . S
C5426 C5425 1.334 . S
C5426 C5427 1.287 . S
C5427 C5426 1.287 . S
C5427 C5428 1.524 . S
C5427 H5430 0.999 . S
C5428 H5398 0.950 . S
C5428 C5427 1.524 . S
C5428 C5429 1.415 . S
C5429 H5399 0.950 . S
C5429 C5424 1.363 . S
C5429 C5428 1.415 . S
H5430 C5427 0.999 . S
H5431 C5412 0.913 . S
H5432 C5450 0.951 . S
H5433 C5452 0.951 . S
H5434 C5454 0.950 . S
H5435 C5455 0.950 . S
H5436 C5457 0.950 1_655 S
H5437 C5460 0.950 . S
H5438 C5461 0.950 . S
H5439 C5463 0.950 . S
H5440 C5464 0.958 . S
H5441 C5465 0.951 . S
H5442 C5467 0.951 . S
H5443 C5469 0.950 . S
H5444 C5470 0.950 . S
H5445 C5472 0.950 . S
H5446 C5475 0.950 . S
H5447 C5476 0.950 . S
H5448 C5478 0.950 . S
H5449 C5479 0.950 . S
C5450 H5432 0.951 . S
C5450 C5451 1.366 . S
C5450 C5452 1.388 . S
C5451 C5450 1.366 . S
C5451 C5455 1.385 . S
C5452 H5433 0.951 . S
C5452 C5450 1.388 . S
C5452 C5453 1.366 . S
C5453 C5452 1.366 . S
C5453 C5454 1.414 . S
C5453 C5456 1.499 . S
C5454 H5434 0.950 . S
C5454 C5453 1.414 . S
C5454 C5455 1.374 . S
C5455 H5435 0.950 . S
C5455 C5451 1.385 . S
C5455 C5454 1.374 . S
C5456 C5453 1.499 . S
C5456 C5457 1.373 1_655 S
C5456 C5458 1.389 1_655 S
C5457 H5436 0.950 1_455 S
C5457 C5456 1.373 1_455 S
C5457 C5473 1.377 . S
C5458 C5456 1.389 1_455 S
C5458 C5459 1.524 1_455 S
C5458 C5472 1.377 . S
C5459 C5458 1.524 1_655 S
C5459 C5460 1.397 . S
C5459 C5464 1.359 1_655 S
C5460 H5437 0.950 . S
C5460 C5459 1.397 . S
C5460 C5461 1.334 . S
C5461 H5438 0.950 . S
C5461 C5460 1.334 . S
C5461 C5462 1.287 . S
C5462 C5461 1.287 . S
C5462 C5463 1.524 . S
C5462 H5481 0.913 . S
C5463 H5439 0.950 . S
C5463 C5462 1.524 . S
C5463 C5464 1.411 1_655 S
C5464 H5440 0.958 . S
C5464 C5459 1.359 1_455 S
C5464 C5463 1.411 1_455 S
C5465 H5441 0.951 . S
C5465 C5466 1.366 . S
C5465 C5467 1.388 . S
C5466 C5465 1.366 . S
C5466 C5470 1.385 . S
C5467 H5442 0.951 . S
C5467 C5465 1.388 . S
C5467 C5468 1.366 . S
C5468 C5467 1.366 . S
C5468 C5469 1.414 . S
C5468 C5471 1.499 . S
C5469 H5443 0.950 . S
C5469 C5468 1.414 . S
C5469 C5470 1.374 . S
C5470 H5444 0.950 . S
C5470 C5466 1.385 . S
C5470 C5469 1.374 . S
C5471 C5468 1.499 . S
C5471 C5472 1.373 . S
C5471 C5473 1.389 . S
C5472 H5445 0.950 . S
C5472 C5458 1.377 . S
C5472 C5471 1.373 . S
C5473 C5457 1.377 . S
C5473 C5471 1.389 . S
C5473 C5474 1.524 . S
C5474 C5473 1.524 . S
C5474 C5475 1.397 . S
C5474 C5479 1.363 . S
C5475 H5446 0.950 . S
C5475 C5474 1.397 . S
C5475 C5476 1.334 . S
C5476 H5447 0.950 . S
C5476 C5475 1.334 . S
C5476 C5477 1.287 . S
C5477 C5476 1.287 . S
C5477 C5478 1.524 . S
C5477 H5480 0.999 . S
C5478 H5448 0.950 . S
C5478 C5477 1.524 . S
C5478 C5479 1.415 . S
C5479 H5449 0.950 . S
C5479 C5474 1.363 . S
C5479 C5478 1.415 . S
H5480 C5477 0.999 . S
H5481 C5462 0.913 . S
H5482 C5500 0.951 . S
H5483 C5502 0.951 . S
H5484 C5504 0.950 . S
H5485 C5505 0.950 . S
H5486 C5507 0.950 . S
H5487 C5510 0.950 . S
H5488 C5511 0.950 . S
H5489 C5513 0.950 . S
H5490 C5514 0.950 . S
H5491 C5515 0.951 . S
H5492 C5517 0.951 . S
H5493 C5519 0.950 . S
H5494 C5520 0.950 . S
H5495 C5522 0.950 . S
H5496 C5525 0.950 . S
H5497 C5526 0.950 . S
H5498 C5528 0.950 . S
H5499 C5529 0.950 . S
C5500 H5482 0.951 . S
C5500 C5501 1.366 . S
C5500 C5502 1.388 . S
C5501 C5500 1.366 . S
C5501 C5505 1.385 . S
C5502 H5483 0.951 . S
C5502 C5500 1.388 . S
C5502 C5503 1.366 . S
C5503 C5502 1.366 . S
C5503 C5504 1.414 . S
C5503 C5506 1.499 . S
C5504 H5484 0.950 . S
C5504 C5503 1.414 . S
C5504 C5505 1.374 . S
C5505 H5485 0.950 . S
C5505 C5501 1.385 . S
C5505 C5504 1.374 . S
C5506 C5503 1.499 . S
C5506 C5507 1.373 . S
C5506 C5508 1.389 . S
C5507 H5486 0.950 . S
C5507 C5506 1.373 . S
C5507 C5523 1.377 . S
C5508 C5506 1.389 . S
C5508 C5509 1.524 . S
C5508 C5522 1.377 . S
C5509 C5508 1.524 . S
C5509 C5510 1.397 . S
C5509 C5514 1.363 . S
C5510 H5487 0.950 . S
C5510 C5509 1.397 . S
C5510 C5511 1.334 . S
C5511 H5488 0.950 . S
C5511 C5510 1.334 . S
C5511 C5512 1.287 . S
C5512 C5511 1.287 . S
C5512 C5513 1.524 . S
C5512 H5531 0.913 . S
C5513 H5489 0.950 . S
C5513 C5512 1.524 . S
C5513 C5514 1.415 . S
C5514 H5490 0.950 . S
C5514 C5509 1.363 . S
C5514 C5513 1.415 . S
C5515 H5491 0.951 . S
C5515 C5516 1.366 . S
C5515 C5517 1.388 . S
C5516 C5515 1.366 . S
C5516 C5520 1.385 . S
C5517 H5492 0.951 . S
C5517 C5515 1.388 . S
C5517 C5518 1.366 . S
C5518 C5517 1.366 . S
C5518 C5519 1.414 . S
C5518 C5521 1.499 . S
C5519 H5493 0.950 . S
C5519 C5518 1.414 . S
C5519 C5520 1.374 . S
C5520 H5494 0.950 . S
C5520 C5516 1.385 . S
C5520 C5519 1.374 . S
C5521 C5518 1.499 . S
C5521 C5522 1.373 . S
C5521 C5523 1.389 . S
C5522 H5495 0.950 . S
C5522 C5508 1.377 . S
C5522 C5521 1.373 . S
C5523 C5507 1.377 . S
C5523 C5521 1.389 . S
C5523 C5524 1.524 . S
C5524 C5523 1.524 . S
C5524 C5525 1.397 . S
C5524 C5529 1.363 . S
C5525 H5496 0.950 . S
C5525 C5524 1.397 . S
C5525 C5526 1.334 . S
C5526 H5497 0.950 . S
C5526 C5525 1.334 . S
C5526 C5527 1.287 . S
C5527 C5526 1.287 . S
C5527 C5528 1.524 . S
C5527 H5530 0.999 . S
C5528 H5498 0.950 . S
C5528 C5527 1.524 . S
C5528 C5529 1.415 . S
C5529 H5499 0.950 . S
C5529 C5524 1.363 . S
C5529 C5528 1.415 . S
H5530 C5527 0.999 . S
H5531 C5512 0.913 . S
H5532 C5550 0.951 . S
H5533 C5552 0.951 . S
H5534 C5554 0.950 . S
H5535 C5555 0.950 . S
H5536 C5557 0.950 . S
H5537 C5560 0.950 . S
H5538 C5561 0.950 . S
H5539 C5563 0.950 . S
H5540 C5564 0.950 . S
H5541 C5565 0.951 . S
H5542 C5567 0.951 . S
H5543 C5569 0.950 . S
H5544 C5570 0.950 . S
H5545 C5572 0.950 . S
H5546 C5575 0.950 . S
H5547 C5576 0.950 . S
H5548 C5578 0.950 . S
H5549 C5579 0.950 1_655 S
C5550 H5532 0.951 . S
C5550 C5551 1.366 . S
C5550 C5552 1.388 . S
C5551 C5550 1.366 . S
C5551 C5555 1.385 . S
C5552 H5533 0.951 . S
C5552 C5550 1.388 . S
C5552 C5553 1.366 . S
C5553 C5552 1.366 . S
C5553 C5554 1.414 . S
C5553 C5556 1.499 . S
C5554 H5534 0.950 . S
C5554 C5553 1.414 . S
C5554 C5555 1.374 . S
C5555 H5535 0.950 . S
C5555 C5551 1.385 . S
C5555 C5554 1.374 . S
C5556 C5553 1.499 . S
C5556 C5557 1.373 . S
C5556 C5558 1.389 . S
C5557 H5536 0.950 . S
C5557 C5556 1.373 . S
C5557 C5573 1.377 1_655 S
C5558 C5556 1.389 . S
C5558 C5559 1.524 . S
C5558 C5572 1.377 1_655 S
C5559 C5558 1.524 . S
C5559 C5560 1.397 . S
C5559 C5564 1.363 . S
C5560 H5537 0.950 . S
C5560 C5559 1.397 . S
C5560 C5561 1.334 . S
C5561 H5538 0.950 . S
C5561 C5560 1.334 . S
C5561 C5562 1.287 . S
C5562 C5561 1.287 . S
C5562 C5563 1.524 . S
C5562 H5581 0.913 . S
C5563 H5539 0.950 . S
C5563 C5562 1.524 . S
C5563 C5564 1.415 . S
C5564 H5540 0.950 . S
C5564 C5559 1.363 . S
C5564 C5563 1.415 . S
C5565 H5541 0.951 . S
C5565 C5566 1.366 . S
C5565 C5567 1.388 . S
C5566 C5565 1.366 . S
C5566 C5570 1.385 . S
C5567 H5542 0.951 . S
C5567 C5565 1.388 . S
C5567 C5568 1.366 . S
C5568 C5567 1.366 . S
C5568 C5569 1.414 . S
C5568 C5571 1.499 . S
C5569 H5543 0.950 . S
C5569 C5568 1.414 . S
C5569 C5570 1.374 . S
C5570 H5544 0.950 . S
C5570 C5566 1.385 . S
C5570 C5569 1.374 . S
C5571 C5568 1.499 . S
C5571 C5572 1.373 . S
C5571 C5573 1.389 . S
C5572 H5545 0.950 . S
C5572 C5558 1.377 1_455 S
C5572 C5571 1.373 . S
C5573 C5557 1.377 1_455 S
C5573 C5571 1.389 . S
C5573 C5574 1.524 . S
C5574 C5573 1.524 . S
C5574 C5575 1.397 . S
C5574 C5579 1.363 . S
C5575 H5546 0.950 . S
C5575 C5574 1.397 . S
C5575 C5576 1.334 . S
C5576 H5547 0.950 . S
C5576 C5575 1.334 . S
C5576 C5577 1.287 . S
C5577 C5576 1.287 . S
C5577 C5578 1.524 . S
C5577 H5580 0.999 . S
C5578 H5548 0.950 . S
C5578 C5577 1.524 . S
C5578 C5579 1.415 . S
C5579 H5549 0.950 1_455 S
C5579 C5574 1.363 . S
C5579 C5578 1.415 . S
H5580 C5577 0.999 . S
H5581 C5562 0.913 . S
H5582 C5600 0.951 . S
H5583 C5602 0.951 . S
H5584 C5604 0.950 . S
H5585 C5605 0.950 . S
H5586 C5607 0.950 . S
H5587 C5610 0.950 . S
H5588 C5611 0.950 . S
H5589 C5613 0.950 . S
H5590 C5614 0.950 . S
H5591 C5615 0.951 . S
H5592 C5617 0.951 . S
H5593 C5619 0.950 . S
H5594 C5620 0.950 . S
H5595 C5622 0.950 . S
H5596 C5625 0.950 . S
H5597 C5626 0.950 . S
H5598 C5628 0.950 . S
H5599 C5629 0.950 . S
C5600 H5582 0.951 . S
C5600 C5601 1.366 . S
C5600 C5602 1.388 . S
C5601 C5600 1.366 . S
C5601 C5605 1.385 . S
C5602 H5583 0.951 . S
C5602 C5600 1.388 . S
C5602 C5603 1.366 . S
C5603 C5602 1.366 . S
C5603 C5604 1.414 . S
C5603 C5606 1.499 . S
C5604 H5584 0.950 . S
C5604 C5603 1.414 . S
C5604 C5605 1.374 . S
C5605 H5585 0.950 . S
C5605 C5601 1.385 . S
C5605 C5604 1.374 . S
C5606 C5603 1.499 . S
C5606 C5607 1.373 . S
C5606 C5608 1.389 . S
C5607 H5586 0.950 . S
C5607 C5606 1.373 . S
C5607 C5623 1.377 . S
C5608 C5606 1.389 . S
C5608 C5609 1.524 . S
C5608 C5622 1.377 . S
C5609 C5608 1.524 . S
C5609 C5610 1.397 . S
C5609 C5614 1.363 . S
C5610 H5587 0.950 . S
C5610 C5609 1.397 . S
C5610 C5611 1.334 . S
C5611 H5588 0.950 . S
C5611 C5610 1.334 . S
C5611 C5612 1.287 . S
C5612 C5611 1.287 . S
C5612 C5613 1.524 . S
C5612 H5631 0.913 . S
C5613 H5589 0.950 . S
C5613 C5612 1.524 . S
C5613 C5614 1.415 . S
C5614 H5590 0.950 . S
C5614 C5609 1.363 . S
C5614 C5613 1.415 . S
C5615 H5591 0.951 . S
C5615 C5616 1.366 . S
C5615 C5617 1.388 . S
C5616 C5615 1.366 . S
C5616 C5620 1.385 . S
C5617 H5592 0.951 . S
C5617 C5615 1.388 . S
C5617 C5618 1.366 . S
C5618 C5617 1.366 . S
C5618 C5619 1.414 . S
C5618 C5621 1.499 . S
C5619 H5593 0.950 . S
C5619 C5618 1.414 . S
C5619 C5620 1.374 . S
C5620 H5594 0.950 . S
C5620 C5616 1.385 . S
C5620 C5619 1.374 . S
C5621 C5618 1.499 . S
C5621 C5622 1.373 . S
C5621 C5623 1.389 . S
C5622 H5595 0.950 . S
C5622 C5608 1.377 . S
C5622 C5621 1.373 . S
C5623 C5607 1.377 . S
C5623 C5621 1.389 . S
C5623 C5624 1.524 . S
C5624 C5623 1.524 . S
C5624 C5625 1.397 . S
C5624 C5629 1.363 . S
C5625 H5596 0.950 . S
C5625 C5624 1.397 . S
C5625 C5626 1.334 . S
C5626 H5597 0.950 . S
C5626 C5625 1.334 . S
C5626 C5627 1.287 . S
C5627 C5626 1.287 . S
C5627 C5628 1.524 . S
C5627 H5630 0.999 . S
C5628 H5598 0.950 . S
C5628 C5627 1.524 . S
C5628 C5629 1.415 . S
C5629 H5599 0.950 . S
C5629 C5624 1.363 . S
C5629 C5628 1.415 . S
H5630 C5627 0.999 . S
H5631 C5612 0.913 . S
H5632 C5650 0.951 . S
H5633 C5652 0.951 . S
H5634 C5654 0.950 . S
H5635 C5655 0.950 . S
H5636 C5657 0.950 . S
H5637 C5660 0.950 . S
H5638 C5661 0.950 . S
H5639 C5663 0.950 . S
H5640 C5664 0.950 . S
H5641 C5665 0.951 . S
H5642 C5667 0.951 . S
H5643 C5669 0.950 . S
H5644 C5670 0.950 . S
H5645 C5672 0.946 1_565 S
H5646 C5675 0.950 . S
H5647 C5676 0.950 . S
H5648 C5678 0.950 . S
H5649 C5679 0.950 1_545 S
C5650 H5632 0.951 . S
C5650 C5651 1.366 . S
C5650 C5652 1.388 . S
C5651 C5650 1.366 . S
C5651 C5655 1.385 . S
C5652 H5633 0.951 . S
C5652 C5650 1.388 . S
C5652 C5653 1.366 . S
C5653 C5652 1.366 . S
C5653 C5654 1.414 . S
C5653 C5656 1.499 . S
C5654 H5634 0.950 . S
C5654 C5653 1.414 . S
C5654 C5655 1.374 . S
C5655 H5635 0.950 . S
C5655 C5651 1.385 . S
C5655 C5654 1.374 . S
C5656 C5653 1.499 . S
C5656 C5657 1.373 . S
C5656 C5658 1.389 . S
C5657 H5636 0.950 . S
C5657 C5656 1.373 . S
C5657 C5673 1.377 . S
C5658 C5656 1.389 . S
C5658 C5659 1.524 . S
C5658 C5672 1.386 . S
C5659 C5658 1.524 . S
C5659 C5660 1.397 . S
C5659 C5664 1.363 . S
C5660 H5637 0.950 . S
C5660 C5659 1.397 . S
C5660 C5661 1.334 . S
C5661 H5638 0.950 . S
C5661 C5660 1.334 . S
C5661 C5662 1.287 . S
C5662 C5661 1.287 . S
C5662 C5663 1.524 . S
C5662 H5681 0.913 . S
C5663 H5639 0.950 . S
C5663 C5662 1.524 . S
C5663 C5664 1.415 . S
C5664 H5640 0.950 . S
C5664 C5659 1.363 . S
C5664 C5663 1.415 . S
C5665 H5641 0.951 . S
C5665 C5666 1.366 . S
C5665 C5667 1.388 . S
C5666 C5665 1.366 . S
C5666 C5670 1.385 . S
C5667 H5642 0.951 . S
C5667 C5665 1.388 . S
C5667 C5668 1.366 . S
C5668 C5667 1.366 . S
C5668 C5669 1.414 . S
C5668 C5671 1.499 . S
C5669 H5643 0.950 . S
C5669 C5668 1.414 . S
C5669 C5670 1.374 . S
C5670 H5644 0.950 . S
C5670 C5666 1.385 . S
C5670 C5669 1.374 . S
C5671 C5668 1.499 . S
C5671 C5672 1.368 1_565 S
C5671 C5673 1.389 1_565 S
C5672 H5645 0.946 1_545 S
C5672 C5658 1.386 . S
C5672 C5671 1.368 1_545 S
C5673 C5657 1.377 . S
C5673 C5671 1.389 1_545 S
C5673 C5674 1.524 1_545 S
C5674 C5673 1.524 1_565 S
C5674 C5675 1.397 . S
C5674 C5679 1.363 . S
C5675 H5646 0.950 . S
C5675 C5674 1.397 . S
C5675 C5676 1.334 . S
C5676 H5647 0.950 . S
C5676 C5675 1.334 . S
C5676 C5677 1.287 . S
C5677 C5676 1.287 . S
C5677 C5678 1.524 . S
C5677 H5680 0.999 . S
C5678 H5648 0.950 . S
C5678 C5677 1.524 . S
C5678 C5679 1.415 . S
C5679 H5649 0.950 1_565 S
C5679 C5674 1.363 . S
C5679 C5678 1.415 . S
H5680 C5677 0.999 . S
H5681 C5662 0.913 . S
H5682 C5700 0.951 . S
H5683 C5702 0.951 . S
H5684 C5704 0.950 . S
H5685 C5705 0.950 . S
H5686 C5707 0.950 . S
H5687 C5710 0.950 . S
H5688 C5711 0.950 . S
H5689 C5713 0.950 . S
H5690 C5714 0.950 . S
H5691 C5715 0.951 . S
H5692 C5717 0.951 . S
H5693 C5719 0.950 . S
H5694 C5720 0.950 . S
H5695 C5722 0.950 . S
H5696 C5725 0.950 . S
H5697 C5726 0.950 . S
H5698 C5728 0.950 . S
H5699 C5729 0.950 . S
C5700 H5682 0.951 . S
C5700 C5701 1.366 . S
C5700 C5702 1.388 . S
C5701 C5700 1.366 . S
C5701 C5705 1.385 . S
C5702 H5683 0.951 . S
C5702 C5700 1.388 . S
C5702 C5703 1.366 . S
C5703 C5702 1.366 . S
C5703 C5704 1.414 . S
C5703 C5706 1.499 . S
C5704 H5684 0.950 . S
C5704 C5703 1.414 . S
C5704 C5705 1.374 . S
C5705 H5685 0.950 . S
C5705 C5701 1.385 . S
C5705 C5704 1.374 . S
C5706 C5703 1.499 . S
C5706 C5707 1.373 . S
C5706 C5708 1.389 . S
C5707 H5686 0.950 . S
C5707 C5706 1.373 . S
C5707 C5723 1.377 . S
C5708 C5706 1.389 . S
C5708 C5709 1.524 . S
C5708 C5722 1.377 . S
C5709 C5708 1.524 . S
C5709 C5710 1.397 . S
C5709 C5714 1.363 . S
C5710 H5687 0.950 . S
C5710 C5709 1.397 . S
C5710 C5711 1.334 . S
C5711 H5688 0.950 . S
C5711 C5710 1.334 . S
C5711 C5712 1.287 . S
C5712 C5711 1.287 . S
C5712 C5713 1.524 . S
C5712 H5731 0.913 . S
C5713 H5689 0.950 . S
C5713 C5712 1.524 . S
C5713 C5714 1.415 . S
C5714 H5690 0.950 . S
C5714 C5709 1.363 . S
C5714 C5713 1.415 . S
C5715 H5691 0.951 . S
C5715 C5716 1.366 . S
C5715 C5717 1.388 . S
C5716 C5715 1.366 . S
C5716 C5720 1.385 . S
C5717 H5692 0.951 . S
C5717 C5715 1.388 . S
C5717 C5718 1.366 . S
C5718 C5717 1.366 . S
C5718 C5719 1.414 . S
C5718 C5721 1.499 . S
C5719 H5693 0.950 . S
C5719 C5718 1.414 . S
C5719 C5720 1.374 . S
C5720 H5694 0.950 . S
C5720 C5716 1.385 . S
C5720 C5719 1.374 . S
C5721 C5718 1.499 . S
C5721 C5722 1.373 . S
C5721 C5723 1.389 . S
C5722 H5695 0.950 . S
C5722 C5708 1.377 . S
C5722 C5721 1.373 . S
C5723 C5707 1.377 . S
C5723 C5721 1.389 . S
C5723 C5724 1.524 . S
C5724 C5723 1.524 . S
C5724 C5725 1.397 . S
C5724 C5729 1.363 . S
C5725 H5696 0.950 . S
C5725 C5724 1.397 . S
C5725 C5726 1.334 . S
C5726 H5697 0.950 . S
C5726 C5725 1.334 . S
C5726 C5727 1.287 . S
C5727 C5726 1.287 . S
C5727 C5728 1.524 . S
C5727 H5730 0.999 . S
C5728 H5698 0.950 . S
C5728 C5727 1.524 . S
C5728 C5729 1.415 . S
C5729 H5699 0.950 . S
C5729 C5724 1.363 . S
C5729 C5728 1.415 . S
H5730 C5727 0.999 . S
H5731 C5712 0.913 . S
H5732 C5750 0.951 . S
H5733 C5752 0.951 . S
H5734 C5754 0.950 . S
H5735 C5755 0.950 . S
H5736 C5757 0.950 1_545 S
H5737 C5760 0.950 . S
H5738 C5761 0.950 . S
H5739 C5763 0.950 . S
H5740 C5764 0.950 1_565 S
H5741 C5765 0.951 . S
H5742 C5767 0.951 . S
H5743 C5769 0.950 . S
H5744 C5770 0.950 . S
H5745 C5772 0.950 . S
H5746 C5775 0.950 . S
H5747 C5776 0.950 . S
H5748 C5778 0.950 . S
H5749 C5779 0.950 . S
C5750 H5732 0.951 . S
C5750 C5751 1.366 . S
C5750 C5752 1.388 . S
C5751 C5750 1.366 . S
C5751 C5755 1.385 . S
C5752 H5733 0.951 . S
C5752 C5750 1.388 . S
C5752 C5753 1.366 . S
C5753 C5752 1.366 . S
C5753 C5754 1.414 . S
C5753 C5756 1.499 . S
C5754 H5734 0.950 . S
C5754 C5753 1.414 . S
C5754 C5755 1.374 . S
C5755 H5735 0.950 . S
C5755 C5751 1.385 . S
C5755 C5754 1.374 . S
C5756 C5753 1.499 . S
C5756 C5757 1.373 1_545 S
C5756 C5758 1.389 1_545 S
C5757 H5736 0.950 1_565 S
C5757 C5756 1.373 1_565 S
C5757 C5773 1.377 . S
C5758 C5756 1.389 1_565 S
C5758 C5759 1.524 1_565 S
C5758 C5772 1.377 . S
C5759 C5758 1.524 1_545 S
C5759 C5760 1.397 . S
C5759 C5764 1.363 . S
C5760 H5737 0.950 . S
C5760 C5759 1.397 . S
C5760 C5761 1.334 . S
C5761 H5738 0.950 . S
C5761 C5760 1.334 . S
C5761 C5762 1.287 . S
C5762 C5761 1.287 . S
C5762 C5763 1.524 . S
C5762 H5781 0.913 . S
C5763 H5739 0.950 . S
C5763 C5762 1.524 . S
C5763 C5764 1.415 . S
C5764 H5740 0.950 1_545 S
C5764 C5759 1.363 . S
C5764 C5763 1.415 . S
C5765 H5741 0.951 . S
C5765 C5766 1.366 . S
C5765 C5767 1.388 . S
C5766 C5765 1.366 . S
C5766 C5770 1.385 . S
C5767 H5742 0.951 . S
C5767 C5765 1.388 . S
C5767 C5768 1.366 . S
C5768 C5767 1.366 . S
C5768 C5769 1.414 . S
C5768 C5771 1.499 . S
C5769 H5743 0.950 . S
C5769 C5768 1.414 . S
C5769 C5770 1.374 . S
C5770 H5744 0.950 . S
C5770 C5766 1.385 . S
C5770 C5769 1.374 . S
C5771 C5768 1.499 . S
C5771 C5772 1.373 . S
C5771 C5773 1.389 . S
C5772 H5745 0.950 . S
C5772 C5758 1.377 . S
C5772 C5771 1.373 . S
C5773 C5757 1.377 . S
C5773 C5771 1.389 . S
C5773 C5774 1.524 . S
C5774 C5773 1.524 . S
C5774 C5775 1.397 . S
C5774 C5779 1.363 . S
C5775 H5746 0.950 . S
C5775 C5774 1.397 . S
C5775 C5776 1.334 . S
C5776 H5747 0.950 . S
C5776 C5775 1.334 . S
C5776 C5777 1.287 . S
C5777 C5776 1.287 . S
C5777 C5778 1.524 . S
C5777 H5780 0.999 . S
C5778 H5748 0.950 . S
C5778 C5777 1.524 . S
C5778 C5779 1.415 . S
C5779 H5749 0.950 . S
C5779 C5774 1.363 . S
C5779 C5778 1.415 . S
H5780 C5777 0.999 . S
H5781 C5762 0.913 . S
H5782 C5800 0.951 . S
H5783 C5802 0.951 . S
H5784 C5804 0.950 . S
H5785 C5805 0.950 . S
H5786 C5807 0.950 . S
H5787 C5810 0.950 . S
H5788 C5811 0.950 . S
H5789 C5813 0.950 . S
H5790 C5814 0.950 . S
H5791 C5815 0.951 . S
H5792 C5817 0.951 . S
H5793 C5819 0.950 . S
H5794 C5820 0.950 . S
H5795 C5822 0.950 . S
H5796 C5825 0.950 . S
H5797 C5826 0.950 . S
H5798 C5828 0.950 . S
H5799 C5829 0.950 . S
C5800 H5782 0.951 . S
C5800 C5801 1.366 . S
C5800 C5802 1.388 . S
C5801 C5800 1.366 . S
C5801 C5805 1.385 . S
C5802 H5783 0.951 . S
C5802 C5800 1.388 . S
C5802 C5803 1.366 . S
C5803 C5802 1.366 . S
C5803 C5804 1.414 . S
C5803 C5806 1.499 . S
C5804 H5784 0.950 . S
C5804 C5803 1.414 . S
C5804 C5805 1.374 . S
C5805 H5785 0.950 . S
C5805 C5801 1.385 . S
C5805 C5804 1.374 . S
C5806 C5803 1.499 . S
C5806 C5807 1.373 . S
C5806 C5808 1.389 . S
C5807 H5786 0.950 . S
C5807 C5806 1.373 . S
C5807 C5823 1.377 . S
C5808 C5806 1.389 . S
C5808 C5809 1.524 . S
C5808 C5822 1.377 . S
C5809 C5808 1.524 . S
C5809 C5810 1.397 . S
C5809 C5814 1.363 . S
C5810 H5787 0.950 . S
C5810 C5809 1.397 . S
C5810 C5811 1.334 . S
C5811 H5788 0.950 . S
C5811 C5810 1.334 . S
C5811 C5812 1.287 . S
C5812 C5811 1.287 . S
C5812 C5813 1.524 . S
C5812 H5831 0.913 . S
C5813 H5789 0.950 . S
C5813 C5812 1.524 . S
C5813 C5814 1.415 . S
C5814 H5790 0.950 . S
C5814 C5809 1.363 . S
C5814 C5813 1.415 . S
C5815 H5791 0.951 . S
C5815 C5816 1.366 . S
C5815 C5817 1.388 . S
C5816 C5815 1.366 . S
C5816 C5820 1.385 . S
C5817 H5792 0.951 . S
C5817 C5815 1.388 . S
C5817 C5818 1.366 . S
C5818 C5817 1.366 . S
C5818 C5819 1.414 . S
C5818 C5821 1.499 . S
C5819 H5793 0.950 . S
C5819 C5818 1.414 . S
C5819 C5820 1.374 . S
C5820 H5794 0.950 . S
C5820 C5816 1.385 . S
C5820 C5819 1.374 . S
C5821 C5818 1.499 . S
C5821 C5822 1.373 . S
C5821 C5823 1.389 . S
C5822 H5795 0.950 . S
C5822 C5808 1.377 . S
C5822 C5821 1.373 . S
C5823 C5807 1.377 . S
C5823 C5821 1.389 . S
C5823 C5824 1.524 . S
C5824 C5823 1.524 . S
C5824 C5825 1.397 . S
C5824 C5829 1.363 . S
C5825 H5796 0.950 . S
C5825 C5824 1.397 . S
C5825 C5826 1.334 . S
C5826 H5797 0.950 . S
C5826 C5825 1.334 . S
C5826 C5827 1.287 . S
C5827 C5826 1.287 . S
C5827 C5828 1.524 . S
C5827 H5830 0.999 . S
C5828 H5798 0.950 . S
C5828 C5827 1.524 . S
C5828 C5829 1.415 . S
C5829 H5799 0.950 . S
C5829 C5824 1.363 . S
C5829 C5828 1.415 . S
H5830 C5827 0.999 . S
H5831 C5812 0.913 . S
H5832 C5850 0.951 . S
H5833 C5852 0.951 . S
H5834 C5854 0.950 . S
H5835 C5855 0.950 . S
H5836 C5857 0.950 . S
H5837 C5860 0.950 . S
H5838 C5861 0.950 . S
H5839 C5863 0.950 . S
H5840 C5864 0.950 . S
H5841 C5865 0.951 . S
H5842 C5867 0.951 . S
H5843 C5869 0.950 . S
H5844 C5870 0.950 . S
H5845 C5872 0.967 . S
H5846 C5875 0.950 . S
H5847 C5876 0.950 . S
H5848 C5878 0.950 . S
H5849 C5879 0.950 1_545 S
C5850 H5832 0.951 . S
C5850 C5851 1.366 . S
C5850 C5852 1.388 . S
C5851 C5850 1.366 . S
C5851 C5855 1.385 . S
C5852 H5833 0.951 . S
C5852 C5850 1.388 . S
C5852 C5853 1.366 . S
C5853 C5852 1.366 . S
C5853 C5854 1.414 . S
C5853 C5856 1.499 . S
C5854 H5834 0.950 . S
C5854 C5853 1.414 . S
C5854 C5855 1.374 . S
C5855 H5835 0.950 . S
C5855 C5851 1.385 . S
C5855 C5854 1.374 . S
C5856 C5853 1.499 . S
C5856 C5857 1.373 . S
C5856 C5858 1.389 . S
C5857 H5836 0.950 . S
C5857 C5856 1.373 . S
C5857 C5873 1.387 . S
C5858 C5856 1.389 . S
C5858 C5859 1.524 . S
C5858 C5872 1.345 1_545 S
C5859 C5858 1.524 . S
C5859 C5860 1.397 . S
C5859 C5864 1.363 . S
C5860 H5837 0.950 . S
C5860 C5859 1.397 . S
C5860 C5861 1.334 . S
C5861 H5838 0.950 . S
C5861 C5860 1.334 . S
C5861 C5862 1.287 . S
C5862 C5861 1.287 . S
C5862 C5863 1.524 . S
C5862 H5881 0.913 . S
C5863 H5839 0.950 . S
C5863 C5862 1.524 . S
C5863 C5864 1.415 . S
C5864 H5840 0.950 . S
C5864 C5859 1.363 . S
C5864 C5863 1.415 . S
C5865 H5841 0.951 . S
C5865 C5866 1.366 . S
C5865 C5867 1.388 . S
C5866 C5865 1.366 . S
C5866 C5870 1.385 . S
C5867 H5842 0.951 . S
C5867 C5865 1.388 . S
C5867 C5868 1.366 . S
C5868 C5867 1.366 . S
C5868 C5869 1.414 . S
C5868 C5871 1.499 . S
C5869 H5843 0.950 . S
C5869 C5868 1.414 . S
C5869 C5870 1.374 . S
C5870 H5844 0.950 . S
C5870 C5866 1.385 . S
C5870 C5869 1.374 . S
C5871 C5868 1.499 . S
C5871 C5872 1.388 . S
C5871 C5873 1.383 1_565 S
C5872 H5845 0.967 . S
C5872 C5858 1.345 1_565 S
C5872 C5871 1.388 . S
C5873 C5857 1.387 . S
C5873 C5871 1.383 1_545 S
C5873 C5874 1.520 1_545 S
C5874 C5873 1.520 1_565 S
C5874 C5875 1.397 . S
C5874 C5879 1.363 . S
C5875 H5846 0.950 . S
C5875 C5874 1.397 . S
C5875 C5876 1.334 . S
C5876 H5847 0.950 . S
C5876 C5875 1.334 . S
C5876 C5877 1.287 . S
C5877 C5876 1.287 . S
C5877 C5878 1.524 . S
C5877 H5880 0.999 . S
C5878 H5848 0.950 . S
C5878 C5877 1.524 . S
C5878 C5879 1.415 . S
C5879 H5849 0.950 1_565 S
C5879 C5874 1.363 . S
C5879 C5878 1.415 . S
H5880 C5877 0.999 . S
H5881 C5862 0.913 . S
H5882 C5900 0.951 . S
H5883 C5902 0.951 . S
H5884 C5904 0.950 . S
H5885 C5905 0.950 . S
H5886 C5907 0.950 . S
H5887 C5910 0.950 . S
H5888 C5911 0.950 . S
H5889 C5913 0.950 . S
H5890 C5914 0.950 . S
H5891 C5915 0.951 . S
H5892 C5917 0.951 . S
H5893 C5919 0.950 . S
H5894 C5920 0.950 . S
H5895 C5922 0.950 . S
H5896 C5925 0.950 . S
H5897 C5926 0.950 . S
H5898 C5928 0.950 . S
H5899 C5929 0.950 . S
C5900 H5882 0.951 . S
C5900 C5901 1.366 . S
C5900 C5902 1.388 . S
C5901 C5900 1.366 . S
C5901 C5905 1.385 . S
C5902 H5883 0.951 . S
C5902 C5900 1.388 . S
C5902 C5903 1.366 . S
C5903 C5902 1.366 . S
C5903 C5904 1.414 . S
C5903 C5906 1.499 . S
C5904 H5884 0.950 . S
C5904 C5903 1.414 . S
C5904 C5905 1.374 . S
C5905 H5885 0.950 . S
C5905 C5901 1.385 . S
C5905 C5904 1.374 . S
C5906 C5903 1.499 . S
C5906 C5907 1.373 . S
C5906 C5908 1.389 . S
C5907 H5886 0.950 . S
C5907 C5906 1.373 . S
C5907 C5923 1.377 . S
C5908 C5906 1.389 . S
C5908 C5909 1.524 . S
C5908 C5922 1.377 . S
C5909 C5908 1.524 . S
C5909 C5910 1.397 . S
C5909 C5914 1.363 . S
C5910 H5887 0.950 . S
C5910 C5909 1.397 . S
C5910 C5911 1.334 . S
C5911 H5888 0.950 . S
C5911 C5910 1.334 . S
C5911 C5912 1.287 . S
C5912 C5911 1.287 . S
C5912 C5913 1.524 . S
C5912 H5931 0.913 . S
C5913 H5889 0.950 . S
C5913 C5912 1.524 . S
C5913 C5914 1.415 . S
C5914 H5890 0.950 . S
C5914 C5909 1.363 . S
C5914 C5913 1.415 . S
C5915 H5891 0.951 . S
C5915 C5916 1.366 . S
C5915 C5917 1.388 . S
C5916 C5915 1.366 . S
C5916 C5920 1.385 . S
C5917 H5892 0.951 . S
C5917 C5915 1.388 . S
C5917 C5918 1.366 . S
C5918 C5917 1.366 . S
C5918 C5919 1.414 . S
C5918 C5921 1.499 . S
C5919 H5893 0.950 . S
C5919 C5918 1.414 . S
C5919 C5920 1.374 . S
C5920 H5894 0.950 . S
C5920 C5916 1.385 . S
C5920 C5919 1.374 . S
C5921 C5918 1.499 . S
C5921 C5922 1.373 . S
C5921 C5923 1.389 . S
C5922 H5895 0.950 . S
C5922 C5908 1.377 . S
C5922 C5921 1.373 . S
C5923 C5907 1.377 . S
C5923 C5921 1.389 . S
C5923 C5924 1.524 . S
C5924 C5923 1.524 . S
C5924 C5925 1.397 . S
C5924 C5929 1.363 . S
C5925 H5896 0.950 . S
C5925 C5924 1.397 . S
C5925 C5926 1.334 . S
C5926 H5897 0.950 . S
C5926 C5925 1.334 . S
C5926 C5927 1.287 . S
C5927 C5926 1.287 . S
C5927 C5928 1.524 . S
C5927 H5930 0.999 . S
C5928 H5898 0.950 . S
C5928 C5927 1.524 . S
C5928 C5929 1.415 . S
C5929 H5899 0.950 . S
C5929 C5924 1.363 . S
C5929 C5928 1.415 . S
H5930 C5927 0.999 . S
H5931 C5912 0.913 . S
H5932 C5950 0.951 . S
H5933 C5952 0.951 . S
H5934 C5954 0.950 . S
H5935 C5955 0.950 . S
H5936 C5957 0.979 . S
H5937 C5960 0.950 . S
H5938 C5961 0.950 . S
H5939 C5963 0.950 . S
H5940 C5964 0.950 1_565 S
H5941 C5965 0.951 . S
H5942 C5967 0.951 . S
H5943 C5969 0.950 . S
H5944 C5970 0.950 . S
H5945 C5972 0.950 . S
H5946 C5975 0.950 . S
H5947 C5976 0.950 . S
H5948 C5978 0.950 . S
H5949 C5979 0.950 . S
C5950 H5932 0.951 . S
C5950 C5951 1.366 . S
C5950 C5952 1.388 . S
C5951 C5950 1.366 . S
C5951 C5955 1.385 . S
C5952 H5933 0.951 . S
C5952 C5950 1.388 . S
C5952 C5953 1.366 . S
C5953 C5952 1.366 . S
C5953 C5954 1.414 . S
C5953 C5956 1.499 . S
C5954 H5934 0.950 . S
C5954 C5953 1.414 . S
C5954 C5955 1.374 . S
C5955 H5935 0.950 . S
C5955 C5951 1.385 . S
C5955 C5954 1.374 . S
C5956 C5953 1.499 . S
C5956 C5957 1.408 . S
C5956 C5958 1.419 . S
C5957 H5936 0.979 . S
C5957 C5956 1.408 . S
C5957 C5973 1.316 1_545 S
C5958 C5956 1.419 . S
C5958 C5959 1.554 . S
C5958 C5972 1.316 1_545 S
C5959 C5958 1.554 . S
C5959 C5960 1.397 . S
C5959 C5964 1.363 . S
C5960 H5937 0.950 . S
C5960 C5959 1.397 . S
C5960 C5961 1.334 . S
C5961 H5938 0.950 . S
C5961 C5960 1.334 . S
C5961 C5962 1.287 . S
C5962 C5961 1.287 . S
C5962 C5963 1.524 . S
C5962 H5981 0.913 . S
C5963 H5939 0.950 . S
C5963 C5962 1.524 . S
C5963 C5964 1.415 . S
C5964 H5940 0.950 1_545 S
C5964 C5959 1.363 . S
C5964 C5963 1.415 . S
C5965 H5941 0.951 . S
C5965 C5966 1.366 . S
C5965 C5967 1.388 . S
C5966 C5965 1.366 . S
C5966 C5970 1.385 . S
C5967 H5942 0.951 . S
C5967 C5965 1.388 . S
C5967 C5968 1.366 . S
C5968 C5967 1.366 . S
C5968 C5969 1.414 . S
C5968 C5971 1.499 . S
C5969 H5943 0.950 . S
C5969 C5968 1.414 . S
C5969 C5970 1.374 . S
C5970 H5944 0.950 . S
C5970 C5966 1.385 . S
C5970 C5969 1.374 . S
C5971 C5968 1.499 . S
C5971 C5972 1.373 . S
C5971 C5973 1.389 . S
C5972 H5945 0.950 . S
C5972 C5958 1.316 1_565 S
C5972 C5971 1.373 . S
C5973 C5957 1.316 1_565 S
C5973 C5971 1.389 . S
C5973 C5974 1.524 . S
C5974 C5973 1.524 . S
C5974 C5975 1.397 . S
C5974 C5979 1.363 . S
C5975 H5946 0.950 . S
C5975 C5974 1.397 . S
C5975 C5976 1.334 . S
C5976 H5947 0.950 . S
C5976 C5975 1.334 . S
C5976 C5977 1.287 . S
C5977 C5976 1.287 . S
C5977 C5978 1.524 . S
C5977 H5980 0.999 . S
C5978 H5948 0.950 . S
C5978 C5977 1.524 . S
C5978 C5979 1.415 . S
C5979 H5949 0.950 . S
C5979 C5974 1.363 . S
C5979 C5978 1.415 . S
H5980 C5977 0.999 . S
H5981 C5962 0.913 . S
H5982 C6000 0.951 . S
H5983 C6002 0.951 . S
H5984 C6004 0.950 . S
H5985 C6005 0.950 . S
H5986 C6007 0.950 . S
H5987 C6010 0.950 . S
H5988 C6011 0.950 . S
H5989 C6013 0.950 . S
H5990 C6014 0.950 . S
H5991 C6015 0.951 . S
H5992 C6017 0.951 . S
H5993 C6019 0.950 . S
H5994 C6020 0.950 . S
H5995 C6022 0.950 . S
H5996 C6025 0.950 . S
H5997 C6026 0.950 . S
H5998 C6028 0.950 . S
H5999 C6029 0.950 . S
C6000 H5982 0.951 . S
C6000 C6001 1.366 . S
C6000 C6002 1.388 . S
C6001 C6000 1.366 . S
C6001 C6005 1.385 . S
C6002 H5983 0.951 . S
C6002 C6000 1.388 . S
C6002 C6003 1.366 . S
C6003 C6002 1.366 . S
C6003 C6004 1.414 . S
C6003 C6006 1.499 . S
C6004 H5984 0.950 . S
C6004 C6003 1.414 . S
C6004 C6005 1.374 . S
C6005 H5985 0.950 . S
C6005 C6001 1.385 . S
C6005 C6004 1.374 . S
C6006 C6003 1.499 . S
C6006 C6007 1.373 . S
C6006 C6008 1.389 . S
C6007 H5986 0.950 . S
C6007 C6006 1.373 . S
C6007 C6023 1.377 . S
C6008 C6006 1.389 . S
C6008 C6009 1.524 . S
C6008 C6022 1.377 . S
C6009 C6008 1.524 . S
C6009 C6010 1.397 . S
C6009 C6014 1.363 . S
C6010 H5987 0.950 . S
C6010 C6009 1.397 . S
C6010 C6011 1.334 . S
C6011 H5988 0.950 . S
C6011 C6010 1.334 . S
C6011 C6012 1.287 . S
C6012 C6011 1.287 . S
C6012 C6013 1.524 . S
C6012 H6031 0.913 . S
C6013 H5989 0.950 . S
C6013 C6012 1.524 . S
C6013 C6014 1.415 . S
C6014 H5990 0.950 . S
C6014 C6009 1.363 . S
C6014 C6013 1.415 . S
C6015 H5991 0.951 . S
C6015 C6016 1.366 . S
C6015 C6017 1.388 . S
C6016 C6015 1.366 . S
C6016 C6020 1.385 . S
C6017 H5992 0.951 . S
C6017 C6015 1.388 . S
C6017 C6018 1.366 . S
C6018 C6017 1.366 . S
C6018 C6019 1.414 . S
C6018 C6021 1.499 . S
C6019 H5993 0.950 . S
C6019 C6018 1.414 . S
C6019 C6020 1.374 . S
C6020 H5994 0.950 . S
C6020 C6016 1.385 . S
C6020 C6019 1.374 . S
C6021 C6018 1.499 . S
C6021 C6022 1.373 . S
C6021 C6023 1.389 . S
C6022 H5995 0.950 . S
C6022 C6008 1.377 . S
C6022 C6021 1.373 . S
C6023 C6007 1.377 . S
C6023 C6021 1.389 . S
C6023 C6024 1.524 . S
C6024 C6023 1.524 . S
C6024 C6025 1.397 . S
C6024 C6029 1.363 . S
C6025 H5996 0.950 . S
C6025 C6024 1.397 . S
C6025 C6026 1.334 . S
C6026 H5997 0.950 . S
C6026 C6025 1.334 . S
C6026 C6027 1.287 . S
C6027 C6026 1.287 . S
C6027 C6028 1.524 . S
C6027 H6030 0.999 . S
C6028 H5998 0.950 . S
C6028 C6027 1.524 . S
C6028 C6029 1.415 . S
C6029 H5999 0.950 . S
C6029 C6024 1.363 . S
C6029 C6028 1.415 . S
H6030 C6027 0.999 . S
H6031 C6012 0.913 . S
H6032 C6050 0.951 . S
H6033 C6052 0.951 . S
H6034 C6054 0.950 . S
H6035 C6055 0.950 . S
H6036 C6057 0.950 . S
H6037 C6060 0.950 . S
H6038 C6061 0.950 . S
H6039 C6063 0.950 . S
H6040 C6064 0.950 . S
H6041 C6065 0.951 . S
H6042 C6067 0.951 . S
H6043 C6069 0.950 . S
H6044 C6070 0.950 . S
H6045 C6072 0.950 . S
H6046 C6075 0.950 . S
H6047 C6076 0.950 . S
H6048 C6078 0.950 . S
H6049 C6079 0.932 1_556 S
C6050 H6032 0.951 . S
C6050 C6051 1.366 . S
C6050 C6052 1.388 . S
C6051 C6050 1.366 . S
C6051 C6055 1.385 . S
C6052 H6033 0.951 . S
C6052 C6050 1.388 . S
C6052 C6053 1.366 . S
C6053 C6052 1.366 . S
C6053 C6054 1.414 . S
C6053 C6056 1.499 . S
C6054 H6034 0.950 . S
C6054 C6053 1.414 . S
C6054 C6055 1.374 . S
C6055 H6035 0.950 . S
C6055 C6051 1.385 . S
C6055 C6054 1.374 . S
C6056 C6053 1.499 . S
C6056 C6057 1.373 . S
C6056 C6058 1.389 . S
C6057 H6036 0.950 . S
C6057 C6056 1.373 . S
C6057 C6073 1.377 1_556 S
C6058 C6056 1.389 . S
C6058 C6059 1.524 . S
C6058 C6072 1.377 1_556 S
C6059 C6058 1.524 . S
C6059 C6060 1.397 . S
C6059 C6064 1.363 . S
C6060 H6037 0.950 . S
C6060 C6059 1.397 . S
C6060 C6061 1.334 . S
C6061 H6038 0.950 . S
C6061 C6060 1.334 . S
C6061 C6062 1.287 . S
C6062 C6061 1.287 . S
C6062 C6063 1.524 . S
C6062 H6081 0.913 . S
C6063 H6039 0.950 . S
C6063 C6062 1.524 . S
C6063 C6064 1.415 . S
C6064 H6040 0.950 . S
C6064 C6059 1.363 . S
C6064 C6063 1.415 . S
C6065 H6041 0.951 . S
C6065 C6066 1.366 . S
C6065 C6067 1.388 . S
C6066 C6065 1.366 . S
C6066 C6070 1.385 . S
C6067 H6042 0.951 . S
C6067 C6065 1.388 . S
C6067 C6068 1.366 . S
C6068 C6067 1.366 . S
C6068 C6069 1.414 . S
C6068 C6071 1.499 . S
C6069 H6043 0.950 . S
C6069 C6068 1.414 . S
C6069 C6070 1.374 . S
C6070 H6044 0.950 . S
C6070 C6066 1.385 . S
C6070 C6069 1.374 . S
C6071 C6068 1.499 . S
C6071 C6072 1.373 . S
C6071 C6073 1.389 . S
C6072 H6045 0.950 . S
C6072 C6058 1.377 1_554 S
C6072 C6071 1.373 . S
C6073 C6057 1.377 1_554 S
C6073 C6071 1.389 . S
C6073 C6074 1.524 . S
C6074 C6073 1.524 . S
C6074 C6075 1.397 . S
C6074 C6079 1.363 . S
C6075 H6046 0.950 . S
C6075 C6074 1.397 . S
C6075 C6076 1.334 . S
C6076 H6047 0.950 . S
C6076 C6075 1.334 . S
C6076 C6077 1.287 . S
C6077 C6076 1.287 . S
C6077 C6078 1.524 . S
C6077 H6080 0.999 . S
C6078 H6048 0.950 . S
C6078 C6077 1.524 . S
C6078 C6079 1.415 . S
C6079 H6049 0.932 1_554 S
C6079 C6074 1.363 . S
C6079 C6078 1.415 . S
H6080 C6077 0.999 . S
H6081 C6062 0.913 . S
H6082 C6100 0.951 . S
H6083 C6102 0.951 . S
H6084 C6104 0.950 . S
H6085 C6105 0.950 . S
H6086 C6107 0.950 . S
H6087 C6110 0.950 . S
H6088 C6111 0.950 . S
H6089 C6113 0.950 . S
H6090 C6114 0.950 . S
H6091 C6115 0.951 . S
H6092 C6117 0.951 . S
H6093 C6119 0.950 . S
H6094 C6120 0.950 . S
H6095 C6122 0.950 . S
H6096 C6125 0.950 . S
H6097 C6126 0.950 . S
H6098 C6128 0.950 . S
H6099 C6129 0.919 1_556 S
C6100 H6082 0.951 . S
C6100 C6101 1.366 . S
C6100 C6102 1.388 . S
C6101 C6100 1.366 . S
C6101 C6105 1.385 . S
C6102 H6083 0.951 . S
C6102 C6100 1.388 . S
C6102 C6103 1.366 . S
C6103 C6102 1.366 . S
C6103 C6104 1.414 . S
C6103 C6106 1.499 . S
C6104 H6084 0.950 . S
C6104 C6103 1.414 . S
C6104 C6105 1.374 . S
C6105 H6085 0.950 . S
C6105 C6101 1.385 . S
C6105 C6104 1.374 . S
C6106 C6103 1.499 . S
C6106 C6107 1.373 . S
C6106 C6108 1.389 . S
C6107 H6086 0.950 . S
C6107 C6106 1.373 . S
C6107 C6123 1.377 1_556 S
C6108 C6106 1.389 . S
C6108 C6109 1.524 . S
C6108 C6122 1.377 1_556 S
C6109 C6108 1.524 . S
C6109 C6110 1.397 . S
C6109 C6114 1.363 . S
C6110 H6087 0.950 . S
C6110 C6109 1.397 . S
C6110 C6111 1.334 . S
C6111 H6088 0.950 . S
C6111 C6110 1.334 . S
C6111 C6112 1.287 . S
C6112 C6111 1.287 . S
C6112 C6113 1.524 . S
C6112 H6131 0.913 . S
C6113 H6089 0.950 . S
C6113 C6112 1.524 . S
C6113 C6114 1.415 . S
C6114 H6090 0.950 . S
C6114 C6109 1.363 . S
C6114 C6113 1.415 . S
C6115 H6091 0.951 . S
C6115 C6116 1.366 . S
C6115 C6117 1.388 . S
C6116 C6115 1.366 . S
C6116 C6120 1.385 . S
C6117 H6092 0.951 . S
C6117 C6115 1.388 . S
C6117 C6118 1.366 . S
C6118 C6117 1.366 . S
C6118 C6119 1.414 . S
C6118 C6121 1.499 . S
C6119 H6093 0.950 . S
C6119 C6118 1.414 . S
C6119 C6120 1.374 . S
C6120 H6094 0.950 . S
C6120 C6116 1.385 . S
C6120 C6119 1.374 . S
C6121 C6118 1.499 . S
C6121 C6122 1.373 . S
C6121 C6123 1.389 . S
C6122 H6095 0.950 . S
C6122 C6108 1.377 1_554 S
C6122 C6121 1.373 . S
C6123 C6107 1.377 1_554 S
C6123 C6121 1.389 . S
C6123 C6124 1.524 . S
C6124 C6123 1.524 . S
C6124 C6125 1.397 . S
C6124 C6129 1.363 . S
C6125 H6096 0.950 . S
C6125 C6124 1.397 . S
C6125 C6126 1.334 . S
C6126 H6097 0.950 . S
C6126 C6125 1.334 . S
C6126 C6127 1.287 . S
C6127 C6126 1.287 . S
C6127 C6128 1.524 . S
C6127 H6130 0.999 . S
C6128 H6098 0.950 . S
C6128 C6127 1.524 . S
C6128 C6129 1.415 . S
C6129 H6099 0.919 1_554 S
C6129 C6124 1.363 . S
C6129 C6128 1.415 . S
H6130 C6127 0.999 . S
H6131 C6112 0.913 . S
H6132 C6150 0.951 . S
H6133 C6152 0.951 . S
H6134 C6154 0.950 . S
H6135 C6155 0.950 . S
H6136 C6157 0.950 . S
H6137 C6160 0.950 . S
H6138 C6161 0.950 . S
H6139 C6163 0.950 . S
H6140 C6164 0.950 . S
H6141 C6165 0.951 . S
H6142 C6167 0.951 . S
H6143 C6169 0.950 . S
H6144 C6170 0.950 . S
H6145 C6172 0.950 . S
H6146 C6175 0.950 . S
H6147 C6176 0.950 . S
H6148 C6178 0.950 . S
H6149 C6179 0.950 . S
C6150 H6132 0.951 . S
C6150 C6151 1.366 . S
C6150 C6152 1.388 . S
C6151 C6150 1.366 . S
C6151 C6155 1.385 . S
C6152 H6133 0.951 . S
C6152 C6150 1.388 . S
C6152 C6153 1.366 . S
C6153 C6152 1.366 . S
C6153 C6154 1.414 . S
C6153 C6156 1.499 . S
C6154 H6134 0.950 . S
C6154 C6153 1.414 . S
C6154 C6155 1.374 . S
C6155 H6135 0.950 . S
C6155 C6151 1.385 . S
C6155 C6154 1.374 . S
C6156 C6153 1.499 . S
C6156 C6157 1.373 . S
C6156 C6158 1.389 . S
C6157 H6136 0.950 . S
C6157 C6156 1.373 . S
C6157 C6173 1.377 . S
C6158 C6156 1.389 . S
C6158 C6159 1.524 . S
C6158 C6172 1.377 . S
C6159 C6158 1.524 . S
C6159 C6160 1.397 . S
C6159 C6164 1.363 . S
C6160 H6137 0.950 . S
C6160 C6159 1.397 . S
C6160 C6161 1.334 . S
C6161 H6138 0.950 . S
C6161 C6160 1.334 . S
C6161 C6162 1.287 . S
C6162 C6161 1.287 . S
C6162 C6163 1.524 . S
C6162 H6181 0.913 . S
C6163 H6139 0.950 . S
C6163 C6162 1.524 . S
C6163 C6164 1.415 . S
C6164 H6140 0.950 . S
C6164 C6159 1.363 . S
C6164 C6163 1.415 . S
C6165 H6141 0.951 . S
C6165 C6166 1.366 . S
C6165 C6167 1.388 . S
C6166 C6165 1.366 . S
C6166 C6170 1.385 . S
C6167 H6142 0.951 . S
C6167 C6165 1.388 . S
C6167 C6168 1.366 . S
C6168 C6167 1.366 . S
C6168 C6169 1.414 . S
C6168 C6171 1.499 . S
C6169 H6143 0.950 . S
C6169 C6168 1.414 . S
C6169 C6170 1.374 . S
C6170 H6144 0.950 . S
C6170 C6166 1.385 . S
C6170 C6169 1.374 . S
C6171 C6168 1.499 . S
C6171 C6172 1.373 . S
C6171 C6173 1.389 . S
C6172 H6145 0.950 . S
C6172 C6158 1.377 . S
C6172 C6171 1.373 . S
C6173 C6157 1.377 . S
C6173 C6171 1.389 . S
C6173 C6174 1.524 . S
C6174 C6173 1.524 . S
C6174 C6175 1.397 . S
C6174 C6179 1.363 . S
C6175 H6146 0.950 . S
C6175 C6174 1.397 . S
C6175 C6176 1.334 . S
C6176 H6147 0.950 . S
C6176 C6175 1.334 . S
C6176 C6177 1.287 . S
C6177 C6176 1.287 . S
C6177 C6178 1.524 . S
C6177 H6180 0.999 . S
C6178 H6148 0.950 . S
C6178 C6177 1.524 . S
C6178 C6179 1.415 . S
C6179 H6149 0.950 . S
C6179 C6174 1.363 . S
C6179 C6178 1.415 . S
H6180 C6177 0.999 . S
H6181 C6162 0.913 . S
H6182 C6200 0.951 . S
H6183 C6202 0.951 . S
H6184 C6204 0.950 . S
H6185 C6205 0.950 . S
H6186 C6207 0.950 . S
H6187 C6210 0.950 . S
H6188 C6211 0.950 . S
H6189 C6213 0.955 . S
H6190 C6214 0.950 . S
H6191 C6215 0.951 . S
H6192 C6217 0.951 . S
H6193 C6219 0.950 . S
H6194 C6220 0.950 . S
H6195 C6222 0.950 . S
H6196 C6225 0.950 . S
H6197 C6226 0.950 . S
H6198 C6228 0.950 . S
H6199 C6229 0.950 . S
C6200 H6182 0.951 . S
C6200 C6201 1.366 . S
C6200 C6202 1.388 . S
C6201 C6200 1.366 . S
C6201 C6205 1.385 . S
C6202 H6183 0.951 . S
C6202 C6200 1.388 . S
C6202 C6203 1.366 . S
C6203 C6202 1.366 . S
C6203 C6204 1.414 . S
C6203 C6206 1.499 1_556 S
C6204 H6184 0.950 . S
C6204 C6203 1.414 . S
C6204 C6205 1.374 . S
C6205 H6185 0.950 . S
C6205 C6201 1.385 . S
C6205 C6204 1.374 . S
C6206 C6203 1.499 1_554 S
C6206 C6207 1.373 . S
C6206 C6208 1.389 . S
C6207 H6186 0.950 . S
C6207 C6206 1.373 . S
C6207 C6223 1.377 . S
C6208 C6206 1.389 . S
C6208 C6209 1.524 . S
C6208 C6222 1.377 . S
C6209 C6208 1.524 . S
C6209 C6210 1.397 1_554 S
C6209 C6214 1.363 . S
C6210 H6187 0.950 . S
C6210 C6209 1.397 1_556 S
C6210 C6211 1.334 . S
C6211 H6188 0.950 . S
C6211 C6210 1.334 . S
C6211 C6212 1.287 . S
C6212 C6211 1.287 . S
C6212 C6213 1.524 . S
C6212 H6231 0.913 . S
C6213 H6189 0.955 . S
C6213 C6212 1.524 . S
C6213 C6214 1.415 1_556 S
C6214 H6190 0.950 . S
C6214 C6209 1.363 . S
C6214 C6213 1.415 1_554 S
C6215 H6191 0.951 . S
C6215 C6216 1.366 . S
C6215 C6217 1.388 . S
C6216 C6215 1.366 . S
C6216 C6220 1.385 . S
C6217 H6192 0.951 . S
C6217 C6215 1.388 . S
C6217 C6218 1.366 . S
C6218 C6217 1.366 . S
C6218 C6219 1.414 . S
C6218 C6221 1.499 . S
C6219 H6193 0.950 . S
C6219 C6218 1.414 . S
C6219 C6220 1.374 . S
C6220 H6194 0.950 . S
C6220 C6216 1.385 . S
C6220 C6219 1.374 . S
C6221 C6218 1.499 . S
C6221 C6222 1.373 . S
C6221 C6223 1.389 . S
C6222 H6195 0.950 . S
C6222 C6208 1.377 . S
C6222 C6221 1.373 . S
C6223 C6207 1.377 . S
C6223 C6221 1.389 . S
C6223 C6224 1.524 . S
C6224 C6223 1.524 . S
C6224 C6225 1.397 . S
C6224 C6229 1.363 . S
C6225 H6196 0.950 . S
C6225 C6224 1.397 . S
C6225 C6226 1.334 . S
C6226 H6197 0.950 . S
C6226 C6225 1.334 . S
C6226 C6227 1.287 . S
C6227 C6226 1.287 . S
C6227 C6228 1.524 . S
C6227 H6230 0.999 . S
C6228 H6198 0.950 . S
C6228 C6227 1.524 . S
C6228 C6229 1.415 . S
C6229 H6199 0.950 . S
C6229 C6224 1.363 . S
C6229 C6228 1.415 . S
H6230 C6227 0.999 . S
H6231 C6212 0.913 . S
H6232 C6250 0.951 . S
H6233 C6252 0.951 . S
H6234 C6254 0.950 . S
H6235 C6255 0.950 . S
H6236 C6257 0.950 . S
H6237 C6260 0.950 . S
H6238 C6261 0.950 . S
H6239 C6263 0.950 . S
H6240 C6264 0.950 . S
H6241 C6265 0.951 . S
H6242 C6267 0.951 . S
H6243 C6269 0.950 . S
H6244 C6270 0.950 . S
H6245 C6272 0.950 . S
H6246 C6275 0.950 . S
H6247 C6276 0.950 . S
H6248 C6278 0.950 . S
H6249 C6279 0.950 . S
C6250 H6232 0.951 . S
C6250 C6251 1.366 . S
C6250 C6252 1.388 . S
C6251 C6250 1.366 . S
C6251 C6255 1.385 . S
C6252 H6233 0.951 . S
C6252 C6250 1.388 . S
C6252 C6253 1.366 . S
C6253 C6252 1.366 . S
C6253 C6254 1.414 . S
C6253 C6256 1.499 . S
C6254 H6234 0.950 . S
C6254 C6253 1.414 . S
C6254 C6255 1.374 . S
C6255 H6235 0.950 . S
C6255 C6251 1.385 . S
C6255 C6254 1.374 . S
C6256 C6253 1.499 . S
C6256 C6257 1.373 . S
C6256 C6258 1.389 . S
C6257 H6236 0.950 . S
C6257 C6256 1.373 . S
C6257 C6273 1.377 . S
C6258 C6256 1.389 . S
C6258 C6259 1.524 . S
C6258 C6272 1.377 . S
C6259 C6258 1.524 . S
C6259 C6260 1.397 . S
C6259 C6264 1.363 . S
C6260 H6237 0.950 . S
C6260 C6259 1.397 . S
C6260 C6261 1.334 . S
C6261 H6238 0.950 . S
C6261 C6260 1.334 . S
C6261 C6262 1.287 . S
C6262 C6261 1.287 . S
C6262 C6263 1.524 . S
C6262 H6281 0.913 . S
C6263 H6239 0.950 . S
C6263 C6262 1.524 . S
C6263 C6264 1.415 . S
C6264 H6240 0.950 . S
C6264 C6259 1.363 . S
C6264 C6263 1.415 . S
C6265 H6241 0.951 . S
C6265 C6266 1.366 . S
C6265 C6267 1.388 . S
C6266 C6265 1.366 . S
C6266 C6270 1.385 . S
C6267 H6242 0.951 . S
C6267 C6265 1.388 . S
C6267 C6268 1.366 . S
C6268 C6267 1.366 . S
C6268 C6269 1.414 . S
C6268 C6271 1.499 . S
C6269 H6243 0.950 . S
C6269 C6268 1.414 . S
C6269 C6270 1.374 . S
C6270 H6244 0.950 . S
C6270 C6266 1.385 . S
C6270 C6269 1.374 . S
C6271 C6268 1.499 . S
C6271 C6272 1.373 . S
C6271 C6273 1.389 . S
C6272 H6245 0.950 . S
C6272 C6258 1.377 . S
C6272 C6271 1.373 . S
C6273 C6257 1.377 . S
C6273 C6271 1.389 . S
C6273 C6274 1.524 . S
C6274 C6273 1.524 . S
C6274 C6275 1.397 . S
C6274 C6279 1.363 . S
C6275 H6246 0.950 . S
C6275 C6274 1.397 . S
C6275 C6276 1.334 . S
C6276 H6247 0.950 . S
C6276 C6275 1.334 . S
C6276 C6277 1.287 . S
C6277 C6276 1.287 . S
C6277 C6278 1.524 . S
C6277 H6280 0.999 . S
C6278 H6248 0.950 . S
C6278 C6277 1.524 . S
C6278 C6279 1.415 . S
C6279 H6249 0.950 . S
C6279 C6274 1.363 . S
C6279 C6278 1.415 . S
H6280 C6277 0.999 . S
H6281 C6262 0.913 . S
H6282 C6300 0.951 . S
H6283 C6302 0.951 . S
H6284 C6304 0.950 . S
H6285 C6305 0.950 . S
H6286 C6307 0.950 . S
H6287 C6310 0.950 . S
H6288 C6311 0.950 . S
H6289 C6313 0.950 . S
H6290 C6314 0.950 1_554 S
H6291 C6315 0.951 . S
H6292 C6317 0.951 . S
H6293 C6319 0.950 . S
H6294 C6320 0.950 . S
H6295 C6322 0.950 . S
H6296 C6325 0.950 . S
H6297 C6326 0.950 . S
H6298 C6328 0.950 . S
H6299 C6329 0.950 . S
C6300 H6282 0.951 . S
C6300 C6301 1.366 . S
C6300 C6302 1.388 . S
C6301 C6300 1.366 . S
C6301 C6305 1.385 . S
C6302 H6283 0.951 . S
C6302 C6300 1.388 . S
C6302 C6303 1.366 . S
C6303 C6302 1.366 . S
C6303 C6304 1.414 . S
C6303 C6306 1.499 . S
C6304 H6284 0.950 . S
C6304 C6303 1.414 . S
C6304 C6305 1.374 . S
C6305 H6285 0.950 . S
C6305 C6301 1.385 . S
C6305 C6304 1.374 . S
C6306 C6303 1.499 . S
C6306 C6307 1.373 . S
C6306 C6308 1.427 . S
C6307 H6286 0.950 . S
C6307 C6306 1.373 . S
C6307 C6323 1.377 1_556 S
C6308 C6306 1.427 . S
C6308 C6309 1.553 . S
C6308 C6322 1.310 1_556 S
C6309 C6308 1.553 . S
C6309 C6310 1.397 . S
C6309 C6314 1.363 . S
C6310 H6287 0.950 . S
C6310 C6309 1.397 . S
C6310 C6311 1.334 . S
C6311 H6288 0.950 . S
C6311 C6310 1.334 . S
C6311 C6312 1.287 . S
C6312 C6311 1.287 . S
C6312 C6313 1.524 . S
C6312 H6331 0.913 . S
C6313 H6289 0.950 . S
C6313 C6312 1.524 . S
C6313 C6314 1.415 . S
C6314 H6290 0.950 1_556 S
C6314 C6309 1.363 . S
C6314 C6313 1.415 . S
C6315 H6291 0.951 . S
C6315 C6316 1.366 . S
C6315 C6317 1.388 . S
C6316 C6315 1.366 . S
C6316 C6320 1.385 . S
C6317 H6292 0.951 . S
C6317 C6315 1.388 . S
C6317 C6318 1.366 . S
C6318 C6317 1.366 . S
C6318 C6319 1.414 . S
C6318 C6321 1.499 . S
C6319 H6293 0.950 . S
C6319 C6318 1.414 . S
C6319 C6320 1.374 . S
C6320 H6294 0.950 . S
C6320 C6316 1.385 . S
C6320 C6319 1.374 . S
C6321 C6318 1.499 . S
C6321 C6322 1.373 . S
C6321 C6323 1.389 . S
C6322 H6295 0.950 . S
C6322 C6308 1.310 1_554 S
C6322 C6321 1.373 . S
C6323 C6307 1.377 1_554 S
C6323 C6321 1.389 . S
C6323 C6324 1.524 . S
C6324 C6323 1.524 . S
C6324 C6325 1.397 . S
C6324 C6329 1.363 . S
C6325 H6296 0.950 . S
C6325 C6324 1.397 . S
C6325 C6326 1.334 . S
C6326 H6297 0.950 . S
C6326 C6325 1.334 . S
C6326 C6327 1.287 . S
C6327 C6326 1.287 . S
C6327 C6328 1.524 . S
C6327 H6330 0.999 . S
C6328 H6298 0.950 . S
C6328 C6327 1.524 . S
C6328 C6329 1.415 . S
C6329 H6299 0.950 . S
C6329 C6324 1.363 . S
C6329 C6328 1.415 . S
H6330 C6327 0.999 . S
H6331 C6312 0.913 . S
H6332 C6350 0.951 . S
H6333 C6352 0.951 . S
H6334 C6354 0.950 . S
H6335 C6355 0.950 . S
H6336 C6357 0.950 . S
H6337 C6360 0.950 . S
H6338 C6361 0.950 . S
H6339 C6363 0.950 . S
H6340 C6364 0.950 . S
H6341 C6365 0.951 . S
H6342 C6367 0.951 . S
H6343 C6369 0.950 . S
H6344 C6370 0.950 . S
H6345 C6372 0.950 . S
H6346 C6375 0.950 . S
H6347 C6376 0.950 . S
H6348 C6378 0.950 . S
H6349 C6379 0.950 . S
C6350 H6332 0.951 . S
C6350 C6351 1.366 . S
C6350 C6352 1.388 . S
C6351 C6350 1.366 . S
C6351 C6355 1.385 . S
C6352 H6333 0.951 . S
C6352 C6350 1.388 . S
C6352 C6353 1.366 . S
C6353 C6352 1.366 . S
C6353 C6354 1.414 . S
C6353 C6356 1.499 . S
C6354 H6334 0.950 . S
C6354 C6353 1.414 . S
C6354 C6355 1.374 . S
C6355 H6335 0.950 . S
C6355 C6351 1.385 . S
C6355 C6354 1.374 . S
C6356 C6353 1.499 . S
C6356 C6357 1.373 . S
C6356 C6358 1.389 . S
C6357 H6336 0.950 . S
C6357 C6356 1.373 . S
C6357 C6373 1.377 . S
C6358 C6356 1.389 . S
C6358 C6359 1.524 . S
C6358 C6372 1.377 . S
C6359 C6358 1.524 . S
C6359 C6360 1.397 . S
C6359 C6364 1.363 . S
C6360 H6337 0.950 . S
C6360 C6359 1.397 . S
C6360 C6361 1.334 . S
C6361 H6338 0.950 . S
C6361 C6360 1.334 . S
C6361 C6362 1.287 . S
C6362 C6361 1.287 . S
C6362 C6363 1.524 . S
C6362 H6381 0.913 . S
C6363 H6339 0.950 . S
C6363 C6362 1.524 . S
C6363 C6364 1.415 . S
C6364 H6340 0.950 . S
C6364 C6359 1.363 . S
C6364 C6363 1.415 . S
C6365 H6341 0.951 . S
C6365 C6366 1.366 . S
C6365 C6367 1.388 . S
C6366 C6365 1.366 . S
C6366 C6370 1.385 . S
C6367 H6342 0.951 . S
C6367 C6365 1.388 . S
C6367 C6368 1.366 . S
C6368 C6367 1.366 . S
C6368 C6369 1.414 . S
C6368 C6371 1.499 . S
C6369 H6343 0.950 . S
C6369 C6368 1.414 . S
C6369 C6370 1.374 . S
C6370 H6344 0.950 . S
C6370 C6366 1.385 . S
C6370 C6369 1.374 . S
C6371 C6368 1.499 . S
C6371 C6372 1.373 . S
C6371 C6373 1.389 . S
C6372 H6345 0.950 . S
C6372 C6358 1.377 . S
C6372 C6371 1.373 . S
C6373 C6357 1.377 . S
C6373 C6371 1.389 . S
C6373 C6374 1.524 . S
C6374 C6373 1.524 . S
C6374 C6375 1.397 . S
C6374 C6379 1.363 . S
C6375 H6346 0.950 . S
C6375 C6374 1.397 . S
C6375 C6376 1.334 . S
C6376 H6347 0.950 . S
C6376 C6375 1.334 . S
C6376 C6377 1.287 . S
C6377 C6376 1.287 . S
C6377 C6378 1.524 . S
C6377 H6380 0.999 . S
C6378 H6348 0.950 . S
C6378 C6377 1.524 . S
C6378 C6379 1.415 . S
C6379 H6349 0.950 . S
C6379 C6374 1.363 . S
C6379 C6378 1.415 . S
H6380 C6377 0.999 . S
H6381 C6362 0.913 . S
H6382 C6400 0.951 . S
H6383 C6402 0.951 . S
H6384 C6404 0.950 . S
H6385 C6405 0.950 . S
H6386 C6407 0.950 . S
H6387 C6410 0.950 . S
H6388 C6411 0.950 . S
H6389 C6413 0.950 . S
H6390 C6414 0.950 . S
H6391 C6415 0.951 . S
H6392 C6417 0.951 . S
H6393 C6419 0.950 . S
H6394 C6420 0.950 . S
H6395 C6422 0.950 . S
H6396 C6425 0.950 . S
H6397 C6426 0.950 . S
H6398 C6428 0.950 . S
H6399 C6429 0.950 . S
C6400 H6382 0.951 . S
C6400 C6401 1.366 . S
C6400 C6402 1.388 . S
C6401 C6400 1.366 . S
C6401 C6405 1.385 . S
C6402 H6383 0.951 . S
C6402 C6400 1.388 . S
C6402 C6403 1.366 . S
C6403 C6402 1.366 . S
C6403 C6404 1.414 . S
C6403 C6406 1.499 . S
C6404 H6384 0.950 . S
C6404 C6403 1.414 . S
C6404 C6405 1.374 . S
C6405 H6385 0.950 . S
C6405 C6401 1.385 . S
C6405 C6404 1.374 . S
C6406 C6403 1.499 . S
C6406 C6407 1.373 . S
C6406 C6408 1.389 . S
C6407 H6386 0.950 . S
C6407 C6406 1.373 . S
C6407 C6423 1.377 . S
C6408 C6406 1.389 . S
C6408 C6409 1.524 . S
C6408 C6422 1.377 . S
C6409 C6408 1.524 . S
C6409 C6410 1.397 . S
C6409 C6414 1.363 . S
C6410 H6387 0.950 . S
C6410 C6409 1.397 . S
C6410 C6411 1.334 . S
C6411 H6388 0.950 . S
C6411 C6410 1.334 . S
C6411 C6412 1.287 . S
C6412 C6411 1.287 . S
C6412 C6413 1.524 . S
C6412 H6431 0.913 . S
C6413 H6389 0.950 . S
C6413 C6412 1.524 . S
C6413 C6414 1.415 . S
C6414 H6390 0.950 . S
C6414 C6409 1.363 . S
C6414 C6413 1.415 . S
C6415 H6391 0.951 . S
C6415 C6416 1.366 . S
C6415 C6417 1.388 . S
C6416 C6415 1.366 . S
C6416 C6420 1.385 . S
C6417 H6392 0.951 . S
C6417 C6415 1.388 . S
C6417 C6418 1.366 . S
C6418 C6417 1.366 . S
C6418 C6419 1.414 . S
C6418 C6421 1.499 . S
C6419 H6393 0.950 . S
C6419 C6418 1.414 . S
C6419 C6420 1.374 . S
C6420 H6394 0.950 . S
C6420 C6416 1.385 . S
C6420 C6419 1.374 . S
C6421 C6418 1.499 . S
C6421 C6422 1.373 . S
C6421 C6423 1.389 . S
C6422 H6395 0.950 . S
C6422 C6408 1.377 . S
C6422 C6421 1.373 . S
C6423 C6407 1.377 . S
C6423 C6421 1.389 . S
C6423 C6424 1.524 . S
C6424 C6423 1.524 . S
C6424 C6425 1.397 . S
C6424 C6429 1.363 . S
C6425 H6396 0.950 . S
C6425 C6424 1.397 . S
C6425 C6426 1.334 . S
C6426 H6397 0.950 . S
C6426 C6425 1.334 . S
C6426 C6427 1.287 . S
C6427 C6426 1.287 . S
C6427 C6428 1.524 . S
C6427 H6430 0.999 . S
C6428 H6398 0.950 . S
C6428 C6427 1.524 . S
C6428 C6429 1.415 . S
C6429 H6399 0.950 . S
C6429 C6424 1.363 . S
C6429 C6428 1.415 . S
H6430 C6427 0.999 . S
H6431 C6412 0.913 . S
H6432 C6450 0.951 . S
H6433 C6452 0.951 . S
H6434 C6454 0.950 . S
H6435 C6455 0.950 . S
H6436 C6457 0.950 . S
H6437 C6460 0.950 . S
H6438 C6461 0.950 . S
H6439 C6463 0.950 . S
H6440 C6464 0.950 . S
H6441 C6465 0.951 . S
H6442 C6467 0.951 . S
H6443 C6469 0.950 . S
H6444 C6470 0.950 . S
H6445 C6472 0.950 . S
H6446 C6475 0.950 . S
H6447 C6476 0.950 . S
H6448 C6478 0.950 . S
H6449 C6479 0.950 . S
C6450 H6432 0.951 . S
C6450 C6451 1.366 . S
C6450 C6452 1.388 . S
C6451 C6450 1.366 . S
C6451 C6455 1.385 . S
C6452 H6433 0.951 . S
C6452 C6450 1.388 . S
C6452 C6453 1.366 . S
C6453 C6452 1.366 . S
C6453 C6454 1.414 . S
C6453 C6456 1.499 . S
C6454 H6434 0.950 . S
C6454 C6453 1.414 . S
C6454 C6455 1.374 . S
C6455 H6435 0.950 . S
C6455 C6451 1.385 . S
C6455 C6454 1.374 . S
C6456 C6453 1.499 . S
C6456 C6457 1.373 . S
C6456 C6458 1.389 . S
C6457 H6436 0.950 . S
C6457 C6456 1.373 . S
C6457 C6473 1.377 . S
C6458 C6456 1.389 . S
C6458 C6459 1.524 . S
C6458 C6472 1.377 . S
C6459 C6458 1.524 . S
C6459 C6460 1.397 . S
C6459 C6464 1.363 . S
C6460 H6437 0.950 . S
C6460 C6459 1.397 . S
C6460 C6461 1.334 . S
C6461 H6438 0.950 . S
C6461 C6460 1.334 . S
C6461 C6462 1.287 . S
C6462 C6461 1.287 . S
C6462 C6463 1.524 . S
C6462 H6481 0.913 . S
C6463 H6439 0.950 . S
C6463 C6462 1.524 . S
C6463 C6464 1.415 . S
C6464 H6440 0.950 . S
C6464 C6459 1.363 . S
C6464 C6463 1.415 . S
C6465 H6441 0.951 . S
C6465 C6466 1.366 . S
C6465 C6467 1.388 . S
C6466 C6465 1.366 . S
C6466 C6470 1.385 . S
C6467 H6442 0.951 . S
C6467 C6465 1.388 . S
C6467 C6468 1.366 . S
C6468 C6467 1.366 . S
C6468 C6469 1.414 . S
C6468 C6471 1.499 . S
C6469 H6443 0.950 . S
C6469 C6468 1.414 . S
C6469 C6470 1.374 . S
C6470 H6444 0.950 . S
C6470 C6466 1.385 . S
C6470 C6469 1.374 . S
C6471 C6468 1.499 . S
C6471 C6472 1.373 . S
C6471 C6473 1.389 . S
C6472 H6445 0.950 . S
C6472 C6458 1.377 . S
C6472 C6471 1.373 . S
C6473 C6457 1.377 . S
C6473 C6471 1.389 . S
C6473 C6474 1.524 . S
C6474 C6473 1.524 . S
C6474 C6475 1.397 . S
C6474 C6479 1.363 . S
C6475 H6446 0.950 . S
C6475 C6474 1.397 . S
C6475 C6476 1.334 . S
C6476 H6447 0.950 . S
C6476 C6475 1.334 . S
C6476 C6477 1.287 . S
C6477 C6476 1.287 . S
C6477 C6478 1.524 . S
C6477 H6480 0.999 . S
C6478 H6448 0.950 . S
C6478 C6477 1.524 . S
C6478 C6479 1.415 . S
C6479 H6449 0.950 . S
C6479 C6474 1.363 . S
C6479 C6478 1.415 . S
H6480 C6477 0.999 . S
H6481 C6462 0.913 . S
H6482 C6500 0.951 . S
H6483 C6502 0.951 . S
H6484 C6504 0.950 . S
H6485 C6505 0.950 . S
H6486 C6507 0.950 . S
H6487 C6510 0.950 . S
H6488 C6511 0.950 . S
H6489 C6513 0.950 . S
H6490 C6514 0.950 . S
H6491 C6515 0.951 . S
H6492 C6517 0.951 . S
H6493 C6519 0.950 . S
H6494 C6520 0.950 . S
H6495 C6522 0.950 . S
H6496 C6525 0.950 . S
H6497 C6526 0.950 . S
H6498 C6528 0.950 . S
H6499 C6529 0.950 . S
C6500 H6482 0.951 . S
C6500 C6501 1.366 . S
C6500 C6502 1.388 . S
C6501 C6500 1.366 . S
C6501 C6505 1.385 . S
C6502 H6483 0.951 . S
C6502 C6500 1.388 . S
C6502 C6503 1.366 . S
C6503 C6502 1.366 . S
C6503 C6504 1.414 . S
C6503 C6506 1.499 . S
C6504 H6484 0.950 . S
C6504 C6503 1.414 . S
C6504 C6505 1.374 . S
C6505 H6485 0.950 . S
C6505 C6501 1.385 . S
C6505 C6504 1.374 . S
C6506 C6503 1.499 . S
C6506 C6507 1.373 . S
C6506 C6508 1.389 . S
C6507 H6486 0.950 . S
C6507 C6506 1.373 . S
C6507 C6523 1.377 . S
C6508 C6506 1.389 . S
C6508 C6509 1.524 . S
C6508 C6522 1.377 . S
C6509 C6508 1.524 . S
C6509 C6510 1.397 . S
C6509 C6514 1.363 . S
C6510 H6487 0.950 . S
C6510 C6509 1.397 . S
C6510 C6511 1.334 . S
C6511 H6488 0.950 . S
C6511 C6510 1.334 . S
C6511 C6512 1.287 . S
C6512 C6511 1.287 . S
C6512 C6513 1.524 . S
C6512 H6531 0.913 . S
C6513 H6489 0.950 . S
C6513 C6512 1.524 . S
C6513 C6514 1.415 . S
C6514 H6490 0.950 . S
C6514 C6509 1.363 . S
C6514 C6513 1.415 . S
C6515 H6491 0.951 . S
C6515 C6516 1.366 . S
C6515 C6517 1.388 . S
C6516 C6515 1.366 . S
C6516 C6520 1.385 . S
C6517 H6492 0.951 . S
C6517 C6515 1.388 . S
C6517 C6518 1.366 . S
C6518 C6517 1.366 . S
C6518 C6519 1.414 . S
C6518 C6521 1.499 . S
C6519 H6493 0.950 . S
C6519 C6518 1.414 . S
C6519 C6520 1.374 . S
C6520 H6494 0.950 . S
C6520 C6516 1.385 . S
C6520 C6519 1.374 . S
C6521 C6518 1.499 . S
C6521 C6522 1.373 . S
C6521 C6523 1.389 . S
C6522 H6495 0.950 . S
C6522 C6508 1.377 . S
C6522 C6521 1.373 . S
C6523 C6507 1.377 . S
C6523 C6521 1.389 . S
C6523 C6524 1.524 . S
C6524 C6523 1.524 . S
C6524 C6525 1.397 . S
C6524 C6529 1.363 . S
C6525 H6496 0.950 . S
C6525 C6524 1.397 . S
C6525 C6526 1.334 . S
C6526 H6497 0.950 . S
C6526 C6525 1.334 . S
C6526 C6527 1.287 . S
C6527 C6526 1.287 . S
C6527 C6528 1.524 . S
C6527 H6530 0.999 . S
C6528 H6498 0.950 . S
C6528 C6527 1.524 . S
C6528 C6529 1.415 . S
C6529 H6499 0.950 . S
C6529 C6524 1.363 . S
C6529 C6528 1.415 . S
H6530 C6527 0.999 . S
H6531 C6512 0.913 . S
H6532 C6550 0.951 . S
H6533 C6552 0.951 . S
H6534 C6554 0.950 . S
H6535 C6555 0.950 . S
H6536 C6557 0.950 . S
H6537 C6560 0.950 . S
H6538 C6561 0.950 . S
H6539 C6563 0.950 . S
H6540 C6564 0.950 . S
H6541 C6565 0.951 . S
H6542 C6567 0.951 . S
H6543 C6569 0.950 . S
H6544 C6570 0.950 . S
H6545 C6572 0.950 . S
H6546 C6575 0.950 . S
H6547 C6576 0.950 . S
H6548 C6578 0.950 . S
H6549 C6579 0.950 . S
C6550 H6532 0.951 . S
C6550 C6551 1.366 . S
C6550 C6552 1.388 . S
C6551 C6550 1.366 . S
C6551 C6555 1.385 . S
C6552 H6533 0.951 . S
C6552 C6550 1.388 . S
C6552 C6553 1.366 . S
C6553 C6552 1.366 . S
C6553 C6554 1.414 . S
C6553 C6556 1.499 . S
C6554 H6534 0.950 . S
C6554 C6553 1.414 . S
C6554 C6555 1.374 . S
C6555 H6535 0.950 . S
C6555 C6551 1.385 . S
C6555 C6554 1.374 . S
C6556 C6553 1.499 . S
C6556 C6557 1.373 . S
C6556 C6558 1.389 . S
C6557 H6536 0.950 . S
C6557 C6556 1.373 . S
C6557 C6573 1.377 . S
C6558 C6556 1.389 . S
C6558 C6559 1.524 . S
C6558 C6572 1.377 . S
C6559 C6558 1.524 . S
C6559 C6560 1.397 . S
C6559 C6564 1.363 . S
C6560 H6537 0.950 . S
C6560 C6559 1.397 . S
C6560 C6561 1.334 . S
C6561 H6538 0.950 . S
C6561 C6560 1.334 . S
C6561 C6562 1.287 . S
C6562 C6561 1.287 . S
C6562 C6563 1.524 . S
C6562 H6581 0.913 . S
C6563 H6539 0.950 . S
C6563 C6562 1.524 . S
C6563 C6564 1.415 . S
C6564 H6540 0.950 . S
C6564 C6559 1.363 . S
C6564 C6563 1.415 . S
C6565 H6541 0.951 . S
C6565 C6566 1.366 . S
C6565 C6567 1.388 . S
C6566 C6565 1.366 . S
C6566 C6570 1.385 . S
C6567 H6542 0.951 . S
C6567 C6565 1.388 . S
C6567 C6568 1.366 . S
C6568 C6567 1.366 . S
C6568 C6569 1.414 . S
C6568 C6571 1.499 . S
C6569 H6543 0.950 . S
C6569 C6568 1.414 . S
C6569 C6570 1.374 . S
C6570 H6544 0.950 . S
C6570 C6566 1.385 . S
C6570 C6569 1.374 . S
C6571 C6568 1.499 . S
C6571 C6572 1.373 . S
C6571 C6573 1.389 . S
C6572 H6545 0.950 . S
C6572 C6558 1.377 . S
C6572 C6571 1.373 . S
C6573 C6557 1.377 . S
C6573 C6571 1.389 . S
C6573 C6574 1.524 . S
C6574 C6573 1.524 . S
C6574 C6575 1.397 . S
C6574 C6579 1.363 . S
C6575 H6546 0.950 . S
C6575 C6574 1.397 . S
C6575 C6576 1.334 . S
C6576 H6547 0.950 . S
C6576 C6575 1.334 . S
C6576 C6577 1.287 . S
C6577 C6576 1.287 . S
C6577 C6578 1.524 . S
C6577 H6580 0.999 . S
C6578 H6548 0.950 . S
C6578 C6577 1.524 . S
C6578 C6579 1.415 . S
C6579 H6549 0.950 . S
C6579 C6574 1.363 . S
C6579 C6578 1.415 . S
H6580 C6577 0.999 . S
H6581 C6562 0.913 . S
H6582 C6600 0.951 . S
H6583 C6602 0.951 . S
H6584 C6604 0.950 . S
H6585 C6605 0.950 . S
H6586 C6607 0.950 . S
H6587 C6610 0.950 . S
H6588 C6611 0.950 . S
H6589 C6613 0.950 . S
H6590 C6614 0.950 . S
H6591 C6615 0.951 . S
H6592 C6617 0.951 . S
H6593 C6619 0.950 . S
H6594 C6620 0.950 . S
H6595 C6622 0.950 . S
H6596 C6625 0.950 . S
H6597 C6626 0.950 . S
H6598 C6628 0.950 . S
H6599 C6629 0.950 . S
C6600 H6582 0.951 . S
C6600 C6601 1.366 . S
C6600 C6602 1.388 . S
C6601 C6600 1.366 . S
C6601 C6605 1.385 . S
C6602 H6583 0.951 . S
C6602 C6600 1.388 . S
C6602 C6603 1.366 . S
C6603 C6602 1.366 . S
C6603 C6604 1.414 . S
C6603 C6606 1.499 . S
C6604 H6584 0.950 . S
C6604 C6603 1.414 . S
C6604 C6605 1.374 . S
C6605 H6585 0.950 . S
C6605 C6601 1.385 . S
C6605 C6604 1.374 . S
C6606 C6603 1.499 . S
C6606 C6607 1.373 . S
C6606 C6608 1.389 . S
C6607 H6586 0.950 . S
C6607 C6606 1.373 . S
C6607 C6623 1.377 . S
C6608 C6606 1.389 . S
C6608 C6609 1.524 . S
C6608 C6622 1.377 . S
C6609 C6608 1.524 . S
C6609 C6610 1.397 . S
C6609 C6614 1.363 . S
C6610 H6587 0.950 . S
C6610 C6609 1.397 . S
C6610 C6611 1.334 . S
C6611 H6588 0.950 . S
C6611 C6610 1.334 . S
C6611 C6612 1.287 . S
C6612 C6611 1.287 . S
C6612 C6613 1.524 . S
C6612 H6631 0.913 . S
C6613 H6589 0.950 . S
C6613 C6612 1.524 . S
C6613 C6614 1.415 . S
C6614 H6590 0.950 . S
C6614 C6609 1.363 . S
C6614 C6613 1.415 . S
C6615 H6591 0.951 . S
C6615 C6616 1.366 . S
C6615 C6617 1.388 . S
C6616 C6615 1.366 . S
C6616 C6620 1.385 . S
C6617 H6592 0.951 . S
C6617 C6615 1.388 . S
C6617 C6618 1.366 . S
C6618 C6617 1.366 . S
C6618 C6619 1.414 . S
C6618 C6621 1.499 . S
C6619 H6593 0.950 . S
C6619 C6618 1.414 . S
C6619 C6620 1.374 . S
C6620 H6594 0.950 . S
C6620 C6616 1.385 . S
C6620 C6619 1.374 . S
C6621 C6618 1.499 . S
C6621 C6622 1.373 . S
C6621 C6623 1.389 . S
C6622 H6595 0.950 . S
C6622 C6608 1.377 . S
C6622 C6621 1.373 . S
C6623 C6607 1.377 . S
C6623 C6621 1.389 . S
C6623 C6624 1.524 . S
C6624 C6623 1.524 . S
C6624 C6625 1.397 . S
C6624 C6629 1.363 . S
C6625 H6596 0.950 . S
C6625 C6624 1.397 . S
C6625 C6626 1.334 . S
C6626 H6597 0.950 . S
C6626 C6625 1.334 . S
C6626 C6627 1.287 . S
C6627 C6626 1.287 . S
C6627 C6628 1.524 . S
C6627 H6630 0.999 . S
C6628 H6598 0.950 . S
C6628 C6627 1.524 . S
C6628 C6629 1.415 . S
C6629 H6599 0.950 . S
C6629 C6624 1.363 . S
C6629 C6628 1.415 . S
H6630 C6627 0.999 . S
H6631 C6612 0.913 . S
H6632 C6650 0.951 . S
H6633 C6652 0.951 . S
H6634 C6654 0.950 . S
H6635 C6655 0.950 . S
H6636 C6657 0.950 . S
H6637 C6660 0.950 . S
H6638 C6661 0.950 . S
H6639 C6663 0.950 . S
H6640 C6664 0.950 . S
H6641 C6665 0.951 . S
H6642 C6667 0.951 . S
H6643 C6669 0.950 . S
H6644 C6670 0.950 . S
H6645 C6672 0.950 . S
H6646 C6675 0.950 . S
H6647 C6676 0.950 . S
H6648 C6678 0.950 . S
H6649 C6679 0.950 . S
C6650 H6632 0.951 . S
C6650 C6651 1.366 . S
C6650 C6652 1.388 . S
C6651 C6650 1.366 . S
C6651 C6655 1.385 . S
C6652 H6633 0.951 . S
C6652 C6650 1.388 . S
C6652 C6653 1.366 . S
C6653 C6652 1.366 . S
C6653 C6654 1.414 . S
C6653 C6656 1.499 . S
C6654 H6634 0.950 . S
C6654 C6653 1.414 . S
C6654 C6655 1.374 . S
C6655 H6635 0.950 . S
C6655 C6651 1.385 . S
C6655 C6654 1.374 . S
C6656 C6653 1.499 . S
C6656 C6657 1.373 . S
C6656 C6658 1.389 . S
C6657 H6636 0.950 . S
C6657 C6656 1.373 . S
C6657 C6673 1.377 . S
C6658 C6656 1.389 . S
C6658 C6659 1.524 . S
C6658 C6672 1.377 . S
C6659 C6658 1.524 . S
C6659 C6660 1.397 . S
C6659 C6664 1.363 . S
C6660 H6637 0.950 . S
C6660 C6659 1.397 . S
C6660 C6661 1.334 . S
C6661 H6638 0.950 . S
C6661 C6660 1.334 . S
C6661 C6662 1.287 . S
C6662 C6661 1.287 . S
C6662 C6663 1.524 . S
C6662 H6681 0.913 . S
C6663 H6639 0.950 . S
C6663 C6662 1.524 . S
C6663 C6664 1.415 . S
C6664 H6640 0.950 . S
C6664 C6659 1.363 . S
C6664 C6663 1.415 . S
C6665 H6641 0.951 . S
C6665 C6666 1.366 . S
C6665 C6667 1.388 . S
C6666 C6665 1.366 . S
C6666 C6670 1.385 . S
C6667 H6642 0.951 . S
C6667 C6665 1.388 . S
C6667 C6668 1.366 . S
C6668 C6667 1.366 . S
C6668 C6669 1.414 . S
C6668 C6671 1.499 . S
C6669 H6643 0.950 . S
C6669 C6668 1.414 . S
C6669 C6670 1.374 . S
C6670 H6644 0.950 . S
C6670 C6666 1.385 . S
C6670 C6669 1.374 . S
C6671 C6668 1.499 . S
C6671 C6672 1.373 . S
C6671 C6673 1.389 . S
C6672 H6645 0.950 . S
C6672 C6658 1.377 . S
C6672 C6671 1.373 . S
C6673 C6657 1.377 . S
C6673 C6671 1.389 . S
C6673 C6674 1.524 . S
C6674 C6673 1.524 . S
C6674 C6675 1.397 . S
C6674 C6679 1.363 . S
C6675 H6646 0.950 . S
C6675 C6674 1.397 . S
C6675 C6676 1.334 . S
C6676 H6647 0.950 . S
C6676 C6675 1.334 . S
C6676 C6677 1.287 . S
C6677 C6676 1.287 . S
C6677 C6678 1.524 . S
C6677 H6680 0.999 . S
C6678 H6648 0.950 . S
C6678 C6677 1.524 . S
C6678 C6679 1.415 . S
C6679 H6649 0.950 . S
C6679 C6674 1.363 . S
C6679 C6678 1.415 . S
H6680 C6677 0.999 . S
H6681 C6662 0.913 . S
H6682 C6700 0.951 . S
H6683 C6702 0.951 . S
H6684 C6704 0.950 . S
H6685 C6705 0.950 . S
H6686 C6707 0.950 . S
H6687 C6710 0.950 . S
H6688 C6711 0.950 . S
H6689 C6713 0.950 . S
H6690 C6714 0.950 . S
H6691 C6715 0.951 . S
H6692 C6717 0.951 . S
H6693 C6719 0.950 . S
H6694 C6720 0.950 . S
H6695 C6722 0.950 . S
H6696 C6725 0.950 . S
H6697 C6726 0.950 . S
H6698 C6728 0.950 . S
H6699 C6729 0.950 . S
C6700 H6682 0.951 . S
C6700 C6701 1.366 . S
C6700 C6702 1.388 . S
C6701 C6700 1.366 . S
C6701 C6705 1.385 . S
C6702 H6683 0.951 . S
C6702 C6700 1.388 . S
C6702 C6703 1.366 . S
C6703 C6702 1.366 . S
C6703 C6704 1.414 . S
C6703 C6706 1.499 . S
C6704 H6684 0.950 . S
C6704 C6703 1.414 . S
C6704 C6705 1.374 . S
C6705 H6685 0.950 . S
C6705 C6701 1.385 . S
C6705 C6704 1.374 . S
C6706 C6703 1.499 . S
C6706 C6707 1.373 . S
C6706 C6708 1.389 . S
C6707 H6686 0.950 . S
C6707 C6706 1.373 . S
C6707 C6723 1.377 . S
C6708 C6706 1.389 . S
C6708 C6709 1.524 . S
C6708 C6722 1.377 . S
C6709 C6708 1.524 . S
C6709 C6710 1.397 . S
C6709 C6714 1.363 . S
C6710 H6687 0.950 . S
C6710 C6709 1.397 . S
C6710 C6711 1.334 . S
C6711 H6688 0.950 . S
C6711 C6710 1.334 . S
C6711 C6712 1.287 . S
C6712 C6711 1.287 . S
C6712 C6713 1.524 . S
C6712 H6731 0.913 . S
C6713 H6689 0.950 . S
C6713 C6712 1.524 . S
C6713 C6714 1.415 . S
C6714 H6690 0.950 . S
C6714 C6709 1.363 . S
C6714 C6713 1.415 . S
C6715 H6691 0.951 . S
C6715 C6716 1.366 . S
C6715 C6717 1.388 . S
C6716 C6715 1.366 . S
C6716 C6720 1.385 . S
C6717 H6692 0.951 . S
C6717 C6715 1.388 . S
C6717 C6718 1.366 . S
C6718 C6717 1.366 . S
C6718 C6719 1.414 . S
C6718 C6721 1.499 . S
C6719 H6693 0.950 . S
C6719 C6718 1.414 . S
C6719 C6720 1.374 . S
C6720 H6694 0.950 . S
C6720 C6716 1.385 . S
C6720 C6719 1.374 . S
C6721 C6718 1.499 . S
C6721 C6722 1.373 . S
C6721 C6723 1.389 . S
C6722 H6695 0.950 . S
C6722 C6708 1.377 . S
C6722 C6721 1.373 . S
C6723 C6707 1.377 . S
C6723 C6721 1.389 . S
C6723 C6724 1.524 . S
C6724 C6723 1.524 . S
C6724 C6725 1.397 . S
C6724 C6729 1.363 . S
C6725 H6696 0.950 . S
C6725 C6724 1.397 . S
C6725 C6726 1.334 . S
C6726 H6697 0.950 . S
C6726 C6725 1.334 . S
C6726 C6727 1.287 . S
C6727 C6726 1.287 . S
C6727 C6728 1.524 . S
C6727 H6730 0.999 . S
C6728 H6698 0.950 . S
C6728 C6727 1.524 . S
C6728 C6729 1.415 . S
C6729 H6699 0.950 . S
C6729 C6724 1.363 . S
C6729 C6728 1.415 . S
H6730 C6727 0.999 . S
H6731 C6712 0.913 . S
H6732 C6750 0.951 . S
H6733 C6752 0.951 . S
H6734 C6754 0.950 . S
H6735 C6755 0.950 . S
H6736 C6757 0.950 . S
H6737 C6760 0.950 . S
H6738 C6761 0.950 . S
H6739 C6763 0.950 . S
H6740 C6764 0.950 . S
H6741 C6765 0.951 . S
H6742 C6767 0.951 . S
H6743 C6769 0.950 . S
H6744 C6770 0.950 . S
H6745 C6772 0.950 . S
H6746 C6775 0.950 . S
H6747 C6776 0.950 . S
H6748 C6778 0.950 . S
H6749 C6779 0.950 . S
C6750 H6732 0.951 . S
C6750 C6751 1.366 . S
C6750 C6752 1.388 . S
C6751 C6750 1.366 . S
C6751 C6755 1.385 . S
C6752 H6733 0.951 . S
C6752 C6750 1.388 . S
C6752 C6753 1.366 . S
C6753 C6752 1.366 . S
C6753 C6754 1.414 . S
C6753 C6756 1.499 . S
C6754 H6734 0.950 . S
C6754 C6753 1.414 . S
C6754 C6755 1.374 . S
C6755 H6735 0.950 . S
C6755 C6751 1.385 . S
C6755 C6754 1.374 . S
C6756 C6753 1.499 . S
C6756 C6757 1.373 . S
C6756 C6758 1.389 . S
C6757 H6736 0.950 . S
C6757 C6756 1.373 . S
C6757 C6773 1.377 . S
C6758 C6756 1.389 . S
C6758 C6759 1.524 . S
C6758 C6772 1.377 . S
C6759 C6758 1.524 . S
C6759 C6760 1.397 . S
C6759 C6764 1.363 . S
C6760 H6737 0.950 . S
C6760 C6759 1.397 . S
C6760 C6761 1.334 . S
C6761 H6738 0.950 . S
C6761 C6760 1.334 . S
C6761 C6762 1.287 . S
C6762 C6761 1.287 . S
C6762 C6763 1.524 . S
C6762 H6781 0.913 . S
C6763 H6739 0.950 . S
C6763 C6762 1.524 . S
C6763 C6764 1.415 . S
C6764 H6740 0.950 . S
C6764 C6759 1.363 . S
C6764 C6763 1.415 . S
C6765 H6741 0.951 . S
C6765 C6766 1.366 . S
C6765 C6767 1.388 . S
C6766 C6765 1.366 . S
C6766 C6770 1.385 . S
C6767 H6742 0.951 . S
C6767 C6765 1.388 . S
C6767 C6768 1.366 . S
C6768 C6767 1.366 . S
C6768 C6769 1.414 . S
C6768 C6771 1.499 . S
C6769 H6743 0.950 . S
C6769 C6768 1.414 . S
C6769 C6770 1.374 . S
C6770 H6744 0.950 . S
C6770 C6766 1.385 . S
C6770 C6769 1.374 . S
C6771 C6768 1.499 . S
C6771 C6772 1.373 . S
C6771 C6773 1.389 . S
C6772 H6745 0.950 . S
C6772 C6758 1.377 . S
C6772 C6771 1.373 . S
C6773 C6757 1.377 . S
C6773 C6771 1.389 . S
C6773 C6774 1.524 . S
C6774 C6773 1.524 . S
C6774 C6775 1.397 . S
C6774 C6779 1.363 . S
C6775 H6746 0.950 . S
C6775 C6774 1.397 . S
C6775 C6776 1.334 . S
C6776 H6747 0.950 . S
C6776 C6775 1.334 . S
C6776 C6777 1.287 . S
C6777 C6776 1.287 . S
C6777 C6778 1.524 . S
C6777 H6780 0.999 . S
C6778 H6748 0.950 . S
C6778 C6777 1.524 . S
C6778 C6779 1.415 . S
C6779 H6749 0.950 . S
C6779 C6774 1.363 . S
C6779 C6778 1.415 . S
H6780 C6777 0.999 . S
H6781 C6762 0.913 . S
H6782 C6800 0.951 . S
H6783 C6802 0.951 . S
H6784 C6804 0.950 . S
H6785 C6805 0.950 . S
H6786 C6807 0.950 . S
H6787 C6810 0.950 . S
H6788 C6811 0.950 . S
H6789 C6813 0.950 . S
H6790 C6814 0.950 . S
H6791 C6815 0.951 . S
H6792 C6817 0.951 . S
H6793 C6819 0.950 . S
H6794 C6820 0.950 . S
H6795 C6822 0.950 . S
H6796 C6825 0.950 . S
H6797 C6826 0.950 . S
H6798 C6828 0.950 . S
H6799 C6829 0.950 . S
C6800 H6782 0.951 . S
C6800 C6801 1.366 . S
C6800 C6802 1.388 . S
C6801 C6800 1.366 . S
C6801 C6805 1.385 . S
C6802 H6783 0.951 . S
C6802 C6800 1.388 . S
C6802 C6803 1.366 . S
C6803 C6802 1.366 . S
C6803 C6804 1.414 . S
C6803 C6806 1.499 . S
C6804 H6784 0.950 . S
C6804 C6803 1.414 . S
C6804 C6805 1.374 . S
C6805 H6785 0.950 . S
C6805 C6801 1.385 . S
C6805 C6804 1.374 . S
C6806 C6803 1.499 . S
C6806 C6807 1.373 . S
C6806 C6808 1.389 . S
C6807 H6786 0.950 . S
C6807 C6806 1.373 . S
C6807 C6823 1.377 . S
C6808 C6806 1.389 . S
C6808 C6809 1.524 . S
C6808 C6822 1.377 . S
C6809 C6808 1.524 . S
C6809 C6810 1.397 . S
C6809 C6814 1.363 . S
C6810 H6787 0.950 . S
C6810 C6809 1.397 . S
C6810 C6811 1.334 . S
C6811 H6788 0.950 . S
C6811 C6810 1.334 . S
C6811 C6812 1.287 . S
C6812 C6811 1.287 . S
C6812 C6813 1.524 . S
C6812 H6831 0.913 . S
C6813 H6789 0.950 . S
C6813 C6812 1.524 . S
C6813 C6814 1.415 . S
C6814 H6790 0.950 . S
C6814 C6809 1.363 . S
C6814 C6813 1.415 . S
C6815 H6791 0.951 . S
C6815 C6816 1.366 . S
C6815 C6817 1.388 . S
C6816 C6815 1.366 . S
C6816 C6820 1.385 . S
C6817 H6792 0.951 . S
C6817 C6815 1.388 . S
C6817 C6818 1.366 . S
C6818 C6817 1.366 . S
C6818 C6819 1.414 . S
C6818 C6821 1.499 . S
C6819 H6793 0.950 . S
C6819 C6818 1.414 . S
C6819 C6820 1.374 . S
C6820 H6794 0.950 . S
C6820 C6816 1.385 . S
C6820 C6819 1.374 . S
C6821 C6818 1.499 . S
C6821 C6822 1.373 . S
C6821 C6823 1.389 . S
C6822 H6795 0.950 . S
C6822 C6808 1.377 . S
C6822 C6821 1.373 . S
C6823 C6807 1.377 . S
C6823 C6821 1.389 . S
C6823 C6824 1.524 . S
C6824 C6823 1.524 . S
C6824 C6825 1.397 . S
C6824 C6829 1.363 . S
C6825 H6796 0.950 . S
C6825 C6824 1.397 . S
C6825 C6826 1.334 . S
C6826 H6797 0.950 . S
C6826 C6825 1.334 . S
C6826 C6827 1.287 . S
C6827 C6826 1.287 . S
C6827 C6828 1.524 . S
C6827 H6830 0.999 . S
C6828 H6798 0.950 . S
C6828 C6827 1.524 . S
C6828 C6829 1.415 . S
C6829 H6799 0.950 . S
C6829 C6824 1.363 . S
C6829 C6828 1.415 . S
H6830 C6827 0.999 . S
H6831 C6812 0.913 . S
H6832 C6850 0.951 . S
H6833 C6852 0.951 . S
H6834 C6854 0.950 . S
H6835 C6855 0.950 . S
H6836 C6857 0.950 . S
H6837 C6860 0.950 . S
H6838 C6861 0.950 . S
H6839 C6863 0.950 . S
H6840 C6864 0.950 . S
H6841 C6865 0.951 . S
H6842 C6867 0.951 . S
H6843 C6869 0.950 . S
H6844 C6870 0.950 . S
H6845 C6872 0.950 . S
H6846 C6875 0.950 . S
H6847 C6876 0.950 . S
H6848 C6878 0.950 . S
H6849 C6879 0.950 . S
C6850 H6832 0.951 . S
C6850 C6851 1.366 . S
C6850 C6852 1.388 . S
C6851 C6850 1.366 . S
C6851 C6855 1.385 . S
C6852 H6833 0.951 . S
C6852 C6850 1.388 . S
C6852 C6853 1.366 . S
C6853 C6852 1.366 . S
C6853 C6854 1.414 . S
C6853 C6856 1.499 . S
C6854 H6834 0.950 . S
C6854 C6853 1.414 . S
C6854 C6855 1.374 . S
C6855 H6835 0.950 . S
C6855 C6851 1.385 . S
C6855 C6854 1.374 . S
C6856 C6853 1.499 . S
C6856 C6857 1.373 . S
C6856 C6858 1.389 . S
C6857 H6836 0.950 . S
C6857 C6856 1.373 . S
C6857 C6873 1.377 . S
C6858 C6856 1.389 . S
C6858 C6859 1.524 . S
C6858 C6872 1.377 . S
C6859 C6858 1.524 . S
C6859 C6860 1.397 . S
C6859 C6864 1.363 . S
C6860 H6837 0.950 . S
C6860 C6859 1.397 . S
C6860 C6861 1.334 . S
C6861 H6838 0.950 . S
C6861 C6860 1.334 . S
C6861 C6862 1.287 . S
C6862 C6861 1.287 . S
C6862 C6863 1.524 . S
C6862 H6881 0.913 . S
C6863 H6839 0.950 . S
C6863 C6862 1.524 . S
C6863 C6864 1.415 . S
C6864 H6840 0.950 . S
C6864 C6859 1.363 . S
C6864 C6863 1.415 . S
C6865 H6841 0.951 . S
C6865 C6866 1.366 . S
C6865 C6867 1.388 . S
C6866 C6865 1.366 . S
C6866 C6870 1.385 . S
C6867 H6842 0.951 . S
C6867 C6865 1.388 . S
C6867 C6868 1.366 . S
C6868 C6867 1.366 . S
C6868 C6869 1.414 . S
C6868 C6871 1.499 . S
C6869 H6843 0.950 . S
C6869 C6868 1.414 . S
C6869 C6870 1.374 . S
C6870 H6844 0.950 . S
C6870 C6866 1.385 . S
C6870 C6869 1.374 . S
C6871 C6868 1.499 . S
C6871 C6872 1.373 . S
C6871 C6873 1.389 . S
C6872 H6845 0.950 . S
C6872 C6858 1.377 . S
C6872 C6871 1.373 . S
C6873 C6857 1.377 . S
C6873 C6871 1.389 . S
C6873 C6874 1.524 . S
C6874 C6873 1.524 . S
C6874 C6875 1.397 . S
C6874 C6879 1.363 . S
C6875 H6846 0.950 . S
C6875 C6874 1.397 . S
C6875 C6876 1.334 . S
C6876 H6847 0.950 . S
C6876 C6875 1.334 . S
C6876 C6877 1.287 . S
C6877 C6876 1.287 . S
C6877 C6878 1.524 . S
C6877 H6880 0.999 . S
C6878 H6848 0.950 . S
C6878 C6877 1.524 . S
C6878 C6879 1.415 . S
C6879 H6849 0.950 . S
C6879 C6874 1.363 . S
C6879 C6878 1.415 . S
H6880 C6877 0.999 . S
H6881 C6862 0.913 . S
H6882 C6900 0.951 . S
H6883 C6902 0.951 . S
H6884 C6904 0.950 . S
H6885 C6905 0.950 . S
H6886 C6907 0.950 . S
H6887 C6910 0.950 . S
H6888 C6911 0.950 . S
H6889 C6913 0.950 . S
H6890 C6914 0.950 . S
H6891 C6915 0.951 . S
H6892 C6917 0.951 . S
H6893 C6919 0.950 . S
H6894 C6920 0.950 . S
H6895 C6922 0.950 . S
H6896 C6925 0.950 . S
H6897 C6926 0.950 . S
H6898 C6928 0.950 . S
H6899 C6929 0.950 . S
C6900 H6882 0.951 . S
C6900 C6901 1.366 . S
C6900 C6902 1.388 . S
C6901 C6900 1.366 . S
C6901 C6905 1.385 . S
C6902 H6883 0.951 . S
C6902 C6900 1.388 . S
C6902 C6903 1.366 . S
C6903 C6902 1.366 . S
C6903 C6904 1.414 . S
C6903 C6906 1.499 . S
C6904 H6884 0.950 . S
C6904 C6903 1.414 . S
C6904 C6905 1.374 . S
C6905 H6885 0.950 . S
C6905 C6901 1.385 . S
C6905 C6904 1.374 . S
C6906 C6903 1.499 . S
C6906 C6907 1.373 . S
C6906 C6908 1.389 . S
C6907 H6886 0.950 . S
C6907 C6906 1.373 . S
C6907 C6923 1.377 . S
C6908 C6906 1.389 . S
C6908 C6909 1.524 . S
C6908 C6922 1.377 . S
C6909 C6908 1.524 . S
C6909 C6910 1.397 . S
C6909 C6914 1.363 . S
C6910 H6887 0.950 . S
C6910 C6909 1.397 . S
C6910 C6911 1.334 . S
C6911 H6888 0.950 . S
C6911 C6910 1.334 . S
C6911 C6912 1.287 . S
C6912 C6911 1.287 . S
C6912 C6913 1.524 . S
C6912 H6931 0.913 . S
C6913 H6889 0.950 . S
C6913 C6912 1.524 . S
C6913 C6914 1.415 . S
C6914 H6890 0.950 . S
C6914 C6909 1.363 . S
C6914 C6913 1.415 . S
C6915 H6891 0.951 . S
C6915 C6916 1.366 . S
C6915 C6917 1.388 . S
C6916 C6915 1.366 . S
C6916 C6920 1.385 . S
C6917 H6892 0.951 . S
C6917 C6915 1.388 . S
C6917 C6918 1.366 . S
C6918 C6917 1.366 . S
C6918 C6919 1.414 . S
C6918 C6921 1.499 . S
C6919 H6893 0.950 . S
C6919 C6918 1.414 . S
C6919 C6920 1.374 . S
C6920 H6894 0.950 . S
C6920 C6916 1.385 . S
C6920 C6919 1.374 . S
C6921 C6918 1.499 . S
C6921 C6922 1.373 . S
C6921 C6923 1.389 . S
C6922 H6895 0.950 . S
C6922 C6908 1.377 . S
C6922 C6921 1.373 . S
C6923 C6907 1.377 . S
C6923 C6921 1.389 . S
C6923 C6924 1.524 . S
C6924 C6923 1.524 . S
C6924 C6925 1.397 . S
C6924 C6929 1.363 . S
C6925 H6896 0.950 . S
C6925 C6924 1.397 . S
C6925 C6926 1.334 . S
C6926 H6897 0.950 . S
C6926 C6925 1.334 . S
C6926 C6927 1.287 . S
C6927 C6926 1.287 . S
C6927 C6928 1.524 . S
C6927 H6930 0.999 . S
C6928 H6898 0.950 . S
C6928 C6927 1.524 . S
C6928 C6929 1.415 . S
C6929 H6899 0.950 . S
C6929 C6924 1.363 . S
C6929 C6928 1.415 . S
H6930 C6927 0.999 . S
H6931 C6912 0.913 . S
H6932 C6950 0.951 . S
H6933 C6952 0.951 . S
H6934 C6954 0.950 . S
H6935 C6955 0.950 . S
H6936 C6957 0.950 . S
H6937 C6960 0.950 . S
H6938 C6961 0.950 . S
H6939 C6963 0.950 . S
H6940 C6964 0.950 . S
H6941 C6965 0.951 . S
H6942 C6967 0.951 . S
H6943 C6969 0.950 . S
H6944 C6970 0.950 . S
H6945 C6972 0.950 . S
H6946 C6975 0.950 . S
H6947 C6976 0.950 . S
H6948 C6978 0.950 . S
H6949 C6979 0.950 . S
C6950 H6932 0.951 . S
C6950 C6951 1.366 . S
C6950 C6952 1.388 . S
C6951 C6950 1.366 . S
C6951 C6955 1.385 . S
C6952 H6933 0.951 . S
C6952 C6950 1.388 . S
C6952 C6953 1.366 . S
C6953 C6952 1.366 . S
C6953 C6954 1.414 . S
C6953 C6956 1.499 . S
C6954 H6934 0.950 . S
C6954 C6953 1.414 . S
C6954 C6955 1.374 . S
C6955 H6935 0.950 . S
C6955 C6951 1.385 . S
C6955 C6954 1.374 . S
C6956 C6953 1.499 . S
C6956 C6957 1.373 . S
C6956 C6958 1.389 . S
C6957 H6936 0.950 . S
C6957 C6956 1.373 . S
C6957 C6973 1.377 . S
C6958 C6956 1.389 . S
C6958 C6959 1.524 . S
C6958 C6972 1.377 . S
C6959 C6958 1.524 . S
C6959 C6960 1.397 . S
C6959 C6964 1.363 . S
C6960 H6937 0.950 . S
C6960 C6959 1.397 . S
C6960 C6961 1.334 . S
C6961 H6938 0.950 . S
C6961 C6960 1.334 . S
C6961 C6962 1.287 . S
C6962 C6961 1.287 . S
C6962 C6963 1.524 . S
C6962 H6981 0.913 . S
C6963 H6939 0.950 . S
C6963 C6962 1.524 . S
C6963 C6964 1.415 . S
C6964 H6940 0.950 . S
C6964 C6959 1.363 . S
C6964 C6963 1.415 . S
C6965 H6941 0.951 . S
C6965 C6966 1.366 . S
C6965 C6967 1.388 . S
C6966 C6965 1.366 . S
C6966 C6970 1.385 . S
C6967 H6942 0.951 . S
C6967 C6965 1.388 . S
C6967 C6968 1.366 . S
C6968 C6967 1.366 . S
C6968 C6969 1.414 . S
C6968 C6971 1.499 . S
C6969 H6943 0.950 . S
C6969 C6968 1.414 . S
C6969 C6970 1.374 . S
C6970 H6944 0.950 . S
C6970 C6966 1.385 . S
C6970 C6969 1.374 . S
C6971 C6968 1.499 . S
C6971 C6972 1.373 . S
C6971 C6973 1.389 . S
C6972 H6945 0.950 . S
C6972 C6958 1.377 . S
C6972 C6971 1.373 . S
C6973 C6957 1.377 . S
C6973 C6971 1.389 . S
C6973 C6974 1.524 . S
C6974 C6973 1.524 . S
C6974 C6975 1.397 . S
C6974 C6979 1.363 . S
C6975 H6946 0.950 . S
C6975 C6974 1.397 . S
C6975 C6976 1.334 . S
C6976 H6947 0.950 . S
C6976 C6975 1.334 . S
C6976 C6977 1.287 . S
C6977 C6976 1.287 . S
C6977 C6978 1.524 . S
C6977 H6980 0.999 . S
C6978 H6948 0.950 . S
C6978 C6977 1.524 . S
C6978 C6979 1.415 . S
C6979 H6949 0.950 . S
C6979 C6974 1.363 . S
C6979 C6978 1.415 . S
H6980 C6977 0.999 . S
H6981 C6962 0.913 . S
H6982 C7000 0.951 . S
H6983 C7002 0.951 . S
H6984 C7004 0.950 . S
H6985 C7005 0.950 . S
H6986 C7007 0.950 . S
H6987 C7010 0.950 . S
H6988 C7011 0.950 . S
H6989 C7013 0.950 . S
H6990 C7014 0.950 . S
H6991 C7015 0.951 . S
H6992 C7017 0.951 . S
H6993 C7019 0.950 . S
H6994 C7020 0.950 . S
H6995 C7022 0.950 . S
H6996 C7025 0.950 . S
H6997 C7026 0.950 . S
H6998 C7028 0.950 . S
H6999 C7029 0.950 . S
C7000 H6982 0.951 . S
C7000 C7001 1.366 . S
C7000 C7002 1.388 . S
C7001 C7000 1.366 . S
C7001 C7005 1.385 . S
C7002 H6983 0.951 . S
C7002 C7000 1.388 . S
C7002 C7003 1.366 . S
C7003 C7002 1.366 . S
C7003 C7004 1.414 . S
C7003 C7006 1.499 . S
C7004 H6984 0.950 . S
C7004 C7003 1.414 . S
C7004 C7005 1.374 . S
C7005 H6985 0.950 . S
C7005 C7001 1.385 . S
C7005 C7004 1.374 . S
C7006 C7003 1.499 . S
C7006 C7007 1.373 . S
C7006 C7008 1.389 . S
C7007 H6986 0.950 . S
C7007 C7006 1.373 . S
C7007 C7023 1.377 . S
C7008 C7006 1.389 . S
C7008 C7009 1.524 . S
C7008 C7022 1.377 . S
C7009 C7008 1.524 . S
C7009 C7010 1.397 . S
C7009 C7014 1.363 . S
C7010 H6987 0.950 . S
C7010 C7009 1.397 . S
C7010 C7011 1.334 . S
C7011 H6988 0.950 . S
C7011 C7010 1.334 . S
C7011 C7012 1.287 . S
C7012 C7011 1.287 . S
C7012 C7013 1.524 . S
C7012 H7031 0.913 . S
C7013 H6989 0.950 . S
C7013 C7012 1.524 . S
C7013 C7014 1.415 . S
C7014 H6990 0.950 . S
C7014 C7009 1.363 . S
C7014 C7013 1.415 . S
C7015 H6991 0.951 . S
C7015 C7016 1.366 . S
C7015 C7017 1.388 . S
C7016 C7015 1.366 . S
C7016 C7020 1.385 . S
C7017 H6992 0.951 . S
C7017 C7015 1.388 . S
C7017 C7018 1.366 . S
C7018 C7017 1.366 . S
C7018 C7019 1.414 . S
C7018 C7021 1.499 . S
C7019 H6993 0.950 . S
C7019 C7018 1.414 . S
C7019 C7020 1.374 . S
C7020 H6994 0.950 . S
C7020 C7016 1.385 . S
C7020 C7019 1.374 . S
C7021 C7018 1.499 . S
C7021 C7022 1.373 . S
C7021 C7023 1.389 . S
C7022 H6995 0.950 . S
C7022 C7008 1.377 . S
C7022 C7021 1.373 . S
C7023 C7007 1.377 . S
C7023 C7021 1.389 . S
C7023 C7024 1.524 . S
C7024 C7023 1.524 . S
C7024 C7025 1.397 . S
C7024 C7029 1.363 . S
C7025 H6996 0.950 . S
C7025 C7024 1.397 . S
C7025 C7026 1.334 . S
C7026 H6997 0.950 . S
C7026 C7025 1.334 . S
C7026 C7027 1.287 . S
C7027 C7026 1.287 . S
C7027 C7028 1.524 . S
C7027 H7030 0.999 . S
C7028 H6998 0.950 . S
C7028 C7027 1.524 . S
C7028 C7029 1.415 . S
C7029 H6999 0.950 . S
C7029 C7024 1.363 . S
C7029 C7028 1.415 . S
H7030 C7027 0.999 . S
H7031 C7012 0.913 . S
H7032 C7050 0.951 . S
H7033 C7052 0.951 . S
H7034 C7054 0.950 . S
H7035 C7055 0.950 . S
H7036 C7057 0.950 . S
H7037 C7060 0.950 . S
H7038 C7061 0.950 . S
H7039 C7063 0.950 . S
H7040 C7064 0.950 . S
H7041 C7065 0.951 . S
H7042 C7067 0.951 . S
H7043 C7069 0.950 . S
H7044 C7070 0.950 . S
H7045 C7072 0.950 . S
H7046 C7075 0.950 . S
H7047 C7076 0.950 . S
H7048 C7078 0.950 . S
H7049 C7079 0.950 . S
C7050 H7032 0.951 . S
C7050 C7051 1.366 . S
C7050 C7052 1.388 . S
C7051 C7050 1.366 . S
C7051 C7055 1.385 . S
C7052 H7033 0.951 . S
C7052 C7050 1.388 . S
C7052 C7053 1.366 . S
C7053 C7052 1.366 . S
C7053 C7054 1.414 . S
C7053 C7056 1.499 . S
C7054 H7034 0.950 . S
C7054 C7053 1.414 . S
C7054 C7055 1.374 . S
C7055 H7035 0.950 . S
C7055 C7051 1.385 . S
C7055 C7054 1.374 . S
C7056 C7053 1.499 . S
C7056 C7057 1.373 . S
C7056 C7058 1.389 . S
C7057 H7036 0.950 . S
C7057 C7056 1.373 . S
C7057 C7073 1.377 . S
C7058 C7056 1.389 . S
C7058 C7059 1.524 . S
C7058 C7072 1.377 . S
C7059 C7058 1.524 . S
C7059 C7060 1.397 . S
C7059 C7064 1.363 . S
C7060 H7037 0.950 . S
C7060 C7059 1.397 . S
C7060 C7061 1.334 . S
C7061 H7038 0.950 . S
C7061 C7060 1.334 . S
C7061 C7062 1.287 . S
C7062 C7061 1.287 . S
C7062 C7063 1.524 . S
C7062 H7081 0.913 . S
C7063 H7039 0.950 . S
C7063 C7062 1.524 . S
C7063 C7064 1.415 . S
C7064 H7040 0.950 . S
C7064 C7059 1.363 . S
C7064 C7063 1.415 . S
C7065 H7041 0.951 . S
C7065 C7066 1.366 . S
C7065 C7067 1.388 . S
C7066 C7065 1.366 . S
C7066 C7070 1.385 . S
C7067 H7042 0.951 . S
C7067 C7065 1.388 . S
C7067 C7068 1.366 . S
C7068 C7067 1.366 . S
C7068 C7069 1.414 . S
C7068 C7071 1.499 . S
C7069 H7043 0.950 . S
C7069 C7068 1.414 . S
C7069 C7070 1.374 . S
C7070 H7044 0.950 . S
C7070 C7066 1.385 . S
C7070 C7069 1.374 . S
C7071 C7068 1.499 . S
C7071 C7072 1.373 . S
C7071 C7073 1.389 . S
C7072 H7045 0.950 . S
C7072 C7058 1.377 . S
C7072 C7071 1.373 . S
C7073 C7057 1.377 . S
C7073 C7071 1.389 . S
C7073 C7074 1.524 . S
C7074 C7073 1.524 . S
C7074 C7075 1.397 . S
C7074 C7079 1.363 . S
C7075 H7046 0.950 . S
C7075 C7074 1.397 . S
C7075 C7076 1.334 . S
C7076 H7047 0.950 . S
C7076 C7075 1.334 . S
C7076 C7077 1.287 . S
C7077 C7076 1.287 . S
C7077 C7078 1.524 . S
C7077 H7080 0.999 . S
C7078 H7048 0.950 . S
C7078 C7077 1.524 . S
C7078 C7079 1.415 . S
C7079 H7049 0.950 . S
C7079 C7074 1.363 . S
C7079 C7078 1.415 . S
H7080 C7077 0.999 . S
H7081 C7062 0.913 . S
H7082 C7100 0.951 . S
H7083 C7102 0.951 . S
H7084 C7104 0.950 . S
H7085 C7105 0.950 . S
H7086 C7107 0.950 . S
H7087 C7110 0.950 . S
H7088 C7111 0.950 . S
H7089 C7113 0.950 . S
H7090 C7114 0.950 . S
H7091 C7115 0.951 . S
H7092 C7117 0.951 . S
H7093 C7119 0.950 . S
H7094 C7120 0.950 . S
H7095 C7122 0.950 . S
H7096 C7125 0.950 . S
H7097 C7126 0.950 . S
H7098 C7128 0.950 . S
H7099 C7129 0.950 . S
C7100 H7082 0.951 . S
C7100 C7101 1.366 . S
C7100 C7102 1.388 . S
C7101 C7100 1.366 . S
C7101 C7105 1.385 . S
C7102 H7083 0.951 . S
C7102 C7100 1.388 . S
C7102 C7103 1.366 . S
C7103 C7102 1.366 . S
C7103 C7104 1.414 . S
C7103 C7106 1.499 . S
C7104 H7084 0.950 . S
C7104 C7103 1.414 . S
C7104 C7105 1.374 . S
C7105 H7085 0.950 . S
C7105 C7101 1.385 . S
C7105 C7104 1.374 . S
C7106 C7103 1.499 . S
C7106 C7107 1.373 . S
C7106 C7108 1.389 . S
C7107 H7086 0.950 . S
C7107 C7106 1.373 . S
C7107 C7123 1.377 . S
C7108 C7106 1.389 . S
C7108 C7109 1.524 . S
C7108 C7122 1.377 . S
C7109 C7108 1.524 . S
C7109 C7110 1.397 . S
C7109 C7114 1.363 . S
C7110 H7087 0.950 . S
C7110 C7109 1.397 . S
C7110 C7111 1.334 . S
C7111 H7088 0.950 . S
C7111 C7110 1.334 . S
C7111 C7112 1.287 . S
C7112 C7111 1.287 . S
C7112 C7113 1.524 . S
C7112 H7131 0.913 . S
C7113 H7089 0.950 . S
C7113 C7112 1.524 . S
C7113 C7114 1.415 . S
C7114 H7090 0.950 . S
C7114 C7109 1.363 . S
C7114 C7113 1.415 . S
C7115 H7091 0.951 . S
C7115 C7116 1.366 . S
C7115 C7117 1.388 . S
C7116 C7115 1.366 . S
C7116 C7120 1.385 . S
C7117 H7092 0.951 . S
C7117 C7115 1.388 . S
C7117 C7118 1.366 . S
C7118 C7117 1.366 . S
C7118 C7119 1.414 . S
C7118 C7121 1.499 . S
C7119 H7093 0.950 . S
C7119 C7118 1.414 . S
C7119 C7120 1.374 . S
C7120 H7094 0.950 . S
C7120 C7116 1.385 . S
C7120 C7119 1.374 . S
C7121 C7118 1.499 . S
C7121 C7122 1.373 . S
C7121 C7123 1.389 . S
C7122 H7095 0.950 . S
C7122 C7108 1.377 . S
C7122 C7121 1.373 . S
C7123 C7107 1.377 . S
C7123 C7121 1.389 . S
C7123 C7124 1.524 . S
C7124 C7123 1.524 . S
C7124 C7125 1.397 . S
C7124 C7129 1.363 . S
C7125 H7096 0.950 . S
C7125 C7124 1.397 . S
C7125 C7126 1.334 . S
C7126 H7097 0.950 . S
C7126 C7125 1.334 . S
C7126 C7127 1.287 . S
C7127 C7126 1.287 . S
C7127 C7128 1.524 . S
C7127 H7130 0.999 . S
C7128 H7098 0.950 . S
C7128 C7127 1.524 . S
C7128 C7129 1.415 . S
C7129 H7099 0.950 . S
C7129 C7124 1.363 . S
C7129 C7128 1.415 . S
H7130 C7127 0.999 . S
H7131 C7112 0.913 . S
H7132 C7150 0.951 . S
H7133 C7152 0.951 . S
H7134 C7154 0.950 . S
H7135 C7155 0.950 . S
H7136 C7157 0.950 . S
H7137 C7160 0.950 . S
H7138 C7161 0.950 . S
H7139 C7163 0.950 . S
H7140 C7164 0.950 . S
H7141 C7165 0.951 . S
H7142 C7167 0.951 . S
H7143 C7169 0.950 . S
H7144 C7170 0.950 . S
H7145 C7172 0.950 . S
H7146 C7175 0.950 . S
H7147 C7176 0.950 . S
H7148 C7178 0.950 . S
H7149 C7179 0.950 . S
C7150 H7132 0.951 . S
C7150 C7151 1.366 . S
C7150 C7152 1.388 . S
C7151 C7150 1.366 . S
C7151 C7155 1.385 . S
C7152 H7133 0.951 . S
C7152 C7150 1.388 . S
C7152 C7153 1.366 . S
C7153 C7152 1.366 . S
C7153 C7154 1.414 . S
C7153 C7156 1.499 . S
C7154 H7134 0.950 . S
C7154 C7153 1.414 . S
C7154 C7155 1.374 . S
C7155 H7135 0.950 . S
C7155 C7151 1.385 . S
C7155 C7154 1.374 . S
C7156 C7153 1.499 . S
C7156 C7157 1.373 . S
C7156 C7158 1.389 . S
C7157 H7136 0.950 . S
C7157 C7156 1.373 . S
C7157 C7173 1.377 . S
C7158 C7156 1.389 . S
C7158 C7159 1.524 . S
C7158 C7172 1.377 . S
C7159 C7158 1.524 . S
C7159 C7160 1.397 . S
C7159 C7164 1.363 . S
C7160 H7137 0.950 . S
C7160 C7159 1.397 . S
C7160 C7161 1.334 . S
C7161 H7138 0.950 . S
C7161 C7160 1.334 . S
C7161 C7162 1.287 . S
C7162 C7161 1.287 . S
C7162 C7163 1.524 . S
C7162 H7181 0.913 . S
C7163 H7139 0.950 . S
C7163 C7162 1.524 . S
C7163 C7164 1.415 . S
C7164 H7140 0.950 . S
C7164 C7159 1.363 . S
C7164 C7163 1.415 . S
C7165 H7141 0.951 . S
C7165 C7166 1.366 . S
C7165 C7167 1.388 . S
C7166 C7165 1.366 . S
C7166 C7170 1.385 . S
C7167 H7142 0.951 . S
C7167 C7165 1.388 . S
C7167 C7168 1.366 . S
C7168 C7167 1.366 . S
C7168 C7169 1.414 . S
C7168 C7171 1.499 . S
C7169 H7143 0.950 . S
C7169 C7168 1.414 . S
C7169 C7170 1.374 . S
C7170 H7144 0.950 . S
C7170 C7166 1.385 . S
C7170 C7169 1.374 . S
C7171 C7168 1.499 . S
C7171 C7172 1.373 . S
C7171 C7173 1.389 . S
C7172 H7145 0.950 . S
C7172 C7158 1.377 . S
C7172 C7171 1.373 . S
C7173 C7157 1.377 . S
C7173 C7171 1.389 . S
C7173 C7174 1.524 . S
C7174 C7173 1.524 . S
C7174 C7175 1.397 . S
C7174 C7179 1.363 . S
C7175 H7146 0.950 . S
C7175 C7174 1.397 . S
C7175 C7176 1.334 . S
C7176 H7147 0.950 . S
C7176 C7175 1.334 . S
C7176 C7177 1.287 . S
C7177 C7176 1.287 . S
C7177 C7178 1.524 . S
C7177 H7180 0.999 . S
C7178 H7148 0.950 . S
C7178 C7177 1.524 . S
C7178 C7179 1.415 . S
C7179 H7149 0.950 . S
C7179 C7174 1.363 . S
C7179 C7178 1.415 . S
H7180 C7177 0.999 . S
H7181 C7162 0.913 . S
H7182 C7200 0.951 . S
H7183 C7202 0.951 . S
H7184 C7204 0.950 . S
H7185 C7205 0.950 . S
H7186 C7207 0.950 . S
H7187 C7210 0.950 . S
H7188 C7211 0.950 . S
H7189 C7213 0.950 . S
H7190 C7214 0.950 . S
H7191 C7215 0.951 . S
H7192 C7217 0.951 . S
H7193 C7219 0.950 . S
H7194 C7220 0.950 . S
H7195 C7222 0.950 . S
H7196 C7225 0.950 . S
H7197 C7226 0.950 . S
H7198 C7228 0.950 . S
H7199 C7229 0.950 . S
C7200 H7182 0.951 . S
C7200 C7201 1.366 . S
C7200 C7202 1.388 . S
C7201 C7200 1.366 . S
C7201 C7205 1.385 . S
C7202 H7183 0.951 . S
C7202 C7200 1.388 . S
C7202 C7203 1.366 . S
C7203 C7202 1.366 . S
C7203 C7204 1.414 . S
C7203 C7206 1.499 . S
C7204 H7184 0.950 . S
C7204 C7203 1.414 . S
C7204 C7205 1.374 . S
C7205 H7185 0.950 . S
C7205 C7201 1.385 . S
C7205 C7204 1.374 . S
C7206 C7203 1.499 . S
C7206 C7207 1.373 . S
C7206 C7208 1.389 . S
C7207 H7186 0.950 . S
C7207 C7206 1.373 . S
C7207 C7223 1.377 . S
C7208 C7206 1.389 . S
C7208 C7209 1.524 . S
C7208 C7222 1.377 . S
C7209 C7208 1.524 . S
C7209 C7210 1.397 . S
C7209 C7214 1.363 . S
C7210 H7187 0.950 . S
C7210 C7209 1.397 . S
C7210 C7211 1.334 . S
C7211 H7188 0.950 . S
C7211 C7210 1.334 . S
C7211 C7212 1.287 . S
C7212 C7211 1.287 . S
C7212 C7213 1.524 . S
C7212 H7231 0.913 . S
C7213 H7189 0.950 . S
C7213 C7212 1.524 . S
C7213 C7214 1.415 . S
C7214 H7190 0.950 . S
C7214 C7209 1.363 . S
C7214 C7213 1.415 . S
C7215 H7191 0.951 . S
C7215 C7216 1.366 . S
C7215 C7217 1.388 . S
C7216 C7215 1.366 . S
C7216 C7220 1.385 . S
C7217 H7192 0.951 . S
C7217 C7215 1.388 . S
C7217 C7218 1.366 . S
C7218 C7217 1.366 . S
C7218 C7219 1.414 . S
C7218 C7221 1.499 . S
C7219 H7193 0.950 . S
C7219 C7218 1.414 . S
C7219 C7220 1.374 . S
C7220 H7194 0.950 . S
C7220 C7216 1.385 . S
C7220 C7219 1.374 . S
C7221 C7218 1.499 . S
C7221 C7222 1.373 . S
C7221 C7223 1.389 . S
C7222 H7195 0.950 . S
C7222 C7208 1.377 . S
C7222 C7221 1.373 . S
C7223 C7207 1.377 . S
C7223 C7221 1.389 . S
C7223 C7224 1.524 . S
C7224 C7223 1.524 . S
C7224 C7225 1.397 . S
C7224 C7229 1.363 . S
C7225 H7196 0.950 . S
C7225 C7224 1.397 . S
C7225 C7226 1.334 . S
C7226 H7197 0.950 . S
C7226 C7225 1.334 . S
C7226 C7227 1.287 . S
C7227 C7226 1.287 . S
C7227 C7228 1.524 . S
C7227 H7230 0.999 . S
C7228 H7198 0.950 . S
C7228 C7227 1.524 . S
C7228 C7229 1.415 . S
C7229 H7199 0.950 . S
C7229 C7224 1.363 . S
C7229 C7228 1.415 . S
H7230 C7227 0.999 . S
H7231 C7212 0.913 . S
H7232 C7250 0.951 . S
H7233 C7252 0.951 . S
H7234 C7254 0.950 . S
H7235 C7255 0.950 . S
H7236 C7257 0.950 . S
H7237 C7260 0.950 . S
H7238 C7261 0.950 . S
H7239 C7263 0.950 . S
H7240 C7264 0.950 . S
H7241 C7265 0.951 . S
H7242 C7267 0.951 . S
H7243 C7269 0.950 . S
H7244 C7270 0.950 . S
H7245 C7272 0.950 . S
H7246 C7275 0.950 . S
H7247 C7276 0.950 . S
H7248 C7278 0.950 . S
H7249 C7279 0.950 . S
C7250 H7232 0.951 . S
C7250 C7251 1.366 . S
C7250 C7252 1.388 . S
C7251 C7250 1.366 . S
C7251 C7255 1.385 . S
C7252 H7233 0.951 . S
C7252 C7250 1.388 . S
C7252 C7253 1.366 . S
C7253 C7252 1.366 . S
C7253 C7254 1.414 . S
C7253 C7256 1.499 . S
C7254 H7234 0.950 . S
C7254 C7253 1.414 . S
C7254 C7255 1.374 . S
C7255 H7235 0.950 . S
C7255 C7251 1.385 . S
C7255 C7254 1.374 . S
C7256 C7253 1.499 . S
C7256 C7257 1.373 . S
C7256 C7258 1.389 . S
C7257 H7236 0.950 . S
C7257 C7256 1.373 . S
C7257 C7273 1.377 . S
C7258 C7256 1.389 . S
C7258 C7259 1.524 . S
C7258 C7272 1.377 . S
C7259 C7258 1.524 . S
C7259 C7260 1.397 . S
C7259 C7264 1.363 . S
C7260 H7237 0.950 . S
C7260 C7259 1.397 . S
C7260 C7261 1.334 . S
C7261 H7238 0.950 . S
C7261 C7260 1.334 . S
C7261 C7262 1.287 . S
C7262 C7261 1.287 . S
C7262 C7263 1.524 . S
C7262 H7281 0.913 . S
C7263 H7239 0.950 . S
C7263 C7262 1.524 . S
C7263 C7264 1.415 . S
C7264 H7240 0.950 . S
C7264 C7259 1.363 . S
C7264 C7263 1.415 . S
C7265 H7241 0.951 . S
C7265 C7266 1.366 . S
C7265 C7267 1.388 . S
C7266 C7265 1.366 . S
C7266 C7270 1.385 . S
C7267 H7242 0.951 . S
C7267 C7265 1.388 . S
C7267 C7268 1.366 . S
C7268 C7267 1.366 . S
C7268 C7269 1.414 . S
C7268 C7271 1.499 . S
C7269 H7243 0.950 . S
C7269 C7268 1.414 . S
C7269 C7270 1.374 . S
C7270 H7244 0.950 . S
C7270 C7266 1.385 . S
C7270 C7269 1.374 . S
C7271 C7268 1.499 . S
C7271 C7272 1.373 . S
C7271 C7273 1.389 . S
C7272 H7245 0.950 . S
C7272 C7258 1.377 . S
C7272 C7271 1.373 . S
C7273 C7257 1.377 . S
C7273 C7271 1.389 . S
C7273 C7274 1.524 . S
C7274 C7273 1.524 . S
C7274 C7275 1.397 . S
C7274 C7279 1.363 . S
C7275 H7246 0.950 . S
C7275 C7274 1.397 . S
C7275 C7276 1.334 . S
C7276 H7247 0.950 . S
C7276 C7275 1.334 . S
C7276 C7277 1.287 . S
C7277 C7276 1.287 . S
C7277 C7278 1.524 . S
C7277 H7280 0.999 . S
C7278 H7248 0.950 . S
C7278 C7277 1.524 . S
C7278 C7279 1.415 . S
C7279 H7249 0.950 . S
C7279 C7274 1.363 . S
C7279 C7278 1.415 . S
H7280 C7277 0.999 . S
H7281 C7262 0.913 . S
H7282 C7300 0.951 . S
H7283 C7302 0.951 . S
H7284 C7304 0.950 . S
H7285 C7305 0.950 . S
H7286 C7307 0.950 . S
H7287 C7310 0.950 . S
H7288 C7311 0.950 . S
H7289 C7313 0.950 . S
H7290 C7314 0.950 . S
H7291 C7315 0.951 . S
H7292 C7317 0.951 . S
H7293 C7319 0.950 . S
H7294 C7320 0.950 . S
H7295 C7322 0.950 . S
H7296 C7325 0.950 . S
H7297 C7326 0.950 . S
H7298 C7328 0.950 . S
H7299 C7329 0.950 . S
C7300 H7282 0.951 . S
C7300 C7301 1.366 . S
C7300 C7302 1.388 . S
C7301 C7300 1.366 . S
C7301 C7305 1.385 . S
C7302 H7283 0.951 . S
C7302 C7300 1.388 . S
C7302 C7303 1.366 . S
C7303 C7302 1.366 . S
C7303 C7304 1.414 . S
C7303 C7306 1.499 . S
C7304 H7284 0.950 . S
C7304 C7303 1.414 . S
C7304 C7305 1.374 . S
C7305 H7285 0.950 . S
C7305 C7301 1.385 . S
C7305 C7304 1.374 . S
C7306 C7303 1.499 . S
C7306 C7307 1.373 . S
C7306 C7308 1.389 . S
C7307 H7286 0.950 . S
C7307 C7306 1.373 . S
C7307 C7323 1.377 . S
C7308 C7306 1.389 . S
C7308 C7309 1.524 . S
C7308 C7322 1.377 . S
C7309 C7308 1.524 . S
C7309 C7310 1.397 . S
C7309 C7314 1.363 . S
C7310 H7287 0.950 . S
C7310 C7309 1.397 . S
C7310 C7311 1.334 . S
C7311 H7288 0.950 . S
C7311 C7310 1.334 . S
C7311 C7312 1.287 . S
C7312 C7311 1.287 . S
C7312 C7313 1.524 . S
C7312 H7331 0.913 . S
C7313 H7289 0.950 . S
C7313 C7312 1.524 . S
C7313 C7314 1.415 . S
C7314 H7290 0.950 . S
C7314 C7309 1.363 . S
C7314 C7313 1.415 . S
C7315 H7291 0.951 . S
C7315 C7316 1.366 . S
C7315 C7317 1.388 . S
C7316 C7315 1.366 . S
C7316 C7320 1.385 . S
C7317 H7292 0.951 . S
C7317 C7315 1.388 . S
C7317 C7318 1.366 . S
C7318 C7317 1.366 . S
C7318 C7319 1.414 . S
C7318 C7321 1.499 . S
C7319 H7293 0.950 . S
C7319 C7318 1.414 . S
C7319 C7320 1.374 . S
C7320 H7294 0.950 . S
C7320 C7316 1.385 . S
C7320 C7319 1.374 . S
C7321 C7318 1.499 . S
C7321 C7322 1.373 . S
C7321 C7323 1.389 . S
C7322 H7295 0.950 . S
C7322 C7308 1.377 . S
C7322 C7321 1.373 . S
C7323 C7307 1.377 . S
C7323 C7321 1.389 . S
C7323 C7324 1.524 . S
C7324 C7323 1.524 . S
C7324 C7325 1.397 . S
C7324 C7329 1.363 . S
C7325 H7296 0.950 . S
C7325 C7324 1.397 . S
C7325 C7326 1.334 . S
C7326 H7297 0.950 . S
C7326 C7325 1.334 . S
C7326 C7327 1.287 . S
C7327 C7326 1.287 . S
C7327 C7328 1.524 . S
C7327 H7330 0.999 . S
C7328 H7298 0.950 . S
C7328 C7327 1.524 . S
C7328 C7329 1.415 . S
C7329 H7299 0.950 . S
C7329 C7324 1.363 . S
C7329 C7328 1.415 . S
H7330 C7327 0.999 . S
H7331 C7312 0.913 . S
H7332 C7350 0.951 . S
H7333 C7352 0.951 . S
H7334 C7354 0.950 . S
H7335 C7355 0.950 . S
H7336 C7357 0.950 . S
H7337 C7360 0.950 . S
H7338 C7361 0.950 . S
H7339 C7363 0.950 . S
H7340 C7364 0.950 . S
H7341 C7365 0.951 . S
H7342 C7367 0.951 . S
H7343 C7369 0.950 . S
H7344 C7370 0.950 . S
H7345 C7372 0.950 . S
H7346 C7375 0.950 . S
H7347 C7376 0.950 . S
H7348 C7378 0.950 . S
H7349 C7379 0.950 . S
C7350 H7332 0.951 . S
C7350 C7351 1.366 . S
C7350 C7352 1.388 . S
C7351 C7350 1.366 . S
C7351 C7355 1.385 . S
C7352 H7333 0.951 . S
C7352 C7350 1.388 . S
C7352 C7353 1.366 . S
C7353 C7352 1.366 . S
C7353 C7354 1.414 . S
C7353 C7356 1.499 . S
C7354 H7334 0.950 . S
C7354 C7353 1.414 . S
C7354 C7355 1.374 . S
C7355 H7335 0.950 . S
C7355 C7351 1.385 . S
C7355 C7354 1.374 . S
C7356 C7353 1.499 . S
C7356 C7357 1.373 . S
C7356 C7358 1.389 . S
C7357 H7336 0.950 . S
C7357 C7356 1.373 . S
C7357 C7373 1.377 . S
C7358 C7356 1.389 . S
C7358 C7359 1.524 . S
C7358 C7372 1.377 . S
C7359 C7358 1.524 . S
C7359 C7360 1.397 . S
C7359 C7364 1.363 . S
C7360 H7337 0.950 . S
C7360 C7359 1.397 . S
C7360 C7361 1.334 . S
C7361 H7338 0.950 . S
C7361 C7360 1.334 . S
C7361 C7362 1.287 . S
C7362 C7361 1.287 . S
C7362 C7363 1.524 . S
C7362 H7381 0.913 . S
C7363 H7339 0.950 . S
C7363 C7362 1.524 . S
C7363 C7364 1.415 . S
C7364 H7340 0.950 . S
C7364 C7359 1.363 . S
C7364 C7363 1.415 . S
C7365 H7341 0.951 . S
C7365 C7366 1.366 . S
C7365 C7367 1.388 . S
C7366 C7365 1.366 . S
C7366 C7370 1.385 . S
C7367 H7342 0.951 . S
C7367 C7365 1.388 . S
C7367 C7368 1.366 . S
C7368 C7367 1.366 . S
C7368 C7369 1.414 . S
C7368 C7371 1.499 . S
C7369 H7343 0.950 . S
C7369 C7368 1.414 . S
C7369 C7370 1.374 . S
C7370 H7344 0.950 . S
C7370 C7366 1.385 . S
C7370 C7369 1.374 . S
C7371 C7368 1.499 . S
C7371 C7372 1.373 . S
C7371 C7373 1.389 . S
C7372 H7345 0.950 . S
C7372 C7358 1.377 . S
C7372 C7371 1.373 . S
C7373 C7357 1.377 . S
C7373 C7371 1.389 . S
C7373 C7374 1.524 . S
C7374 C7373 1.524 . S
C7374 C7375 1.397 . S
C7374 C7379 1.363 . S
C7375 H7346 0.950 . S
C7375 C7374 1.397 . S
C7375 C7376 1.334 . S
C7376 H7347 0.950 . S
C7376 C7375 1.334 . S
C7376 C7377 1.287 . S
C7377 C7376 1.287 . S
C7377 C7378 1.524 . S
C7377 H7380 0.999 . S
C7378 H7348 0.950 . S
C7378 C7377 1.524 . S
C7378 C7379 1.415 . S
C7379 H7349 0.950 . S
C7379 C7374 1.363 . S
C7379 C7378 1.415 . S
H7380 C7377 0.999 . S
H7381 C7362 0.913 . S
H7382 C7400 0.951 . S
H7383 C7402 0.951 . S
H7384 C7404 0.950 . S
H7385 C7405 0.950 . S
H7386 C7407 0.950 . S
H7387 C7410 0.950 . S
H7388 C7411 0.950 . S
H7389 C7413 0.950 . S
H7390 C7414 0.950 . S
H7391 C7415 0.951 . S
H7392 C7417 0.951 . S
H7393 C7419 0.950 . S
H7394 C7420 0.950 . S
H7395 C7422 0.950 . S
H7396 C7425 0.950 . S
H7397 C7426 0.950 . S
H7398 C7428 0.950 . S
H7399 C7429 0.950 . S
C7400 H7382 0.951 . S
C7400 C7401 1.366 . S
C7400 C7402 1.388 . S
C7401 C7400 1.366 . S
C7401 C7405 1.385 . S
C7402 H7383 0.951 . S
C7402 C7400 1.388 . S
C7402 C7403 1.366 . S
C7403 C7402 1.366 . S
C7403 C7404 1.414 . S
C7403 C7406 1.499 . S
C7404 H7384 0.950 . S
C7404 C7403 1.414 . S
C7404 C7405 1.374 . S
C7405 H7385 0.950 . S
C7405 C7401 1.385 . S
C7405 C7404 1.374 . S
C7406 C7403 1.499 . S
C7406 C7407 1.373 . S
C7406 C7408 1.389 . S
C7407 H7386 0.950 . S
C7407 C7406 1.373 . S
C7407 C7423 1.377 . S
C7408 C7406 1.389 . S
C7408 C7409 1.524 . S
C7408 C7422 1.377 . S
C7409 C7408 1.524 . S
C7409 C7410 1.397 . S
C7409 C7414 1.363 . S
C7410 H7387 0.950 . S
C7410 C7409 1.397 . S
C7410 C7411 1.334 . S
C7411 H7388 0.950 . S
C7411 C7410 1.334 . S
C7411 C7412 1.287 . S
C7412 C7411 1.287 . S
C7412 C7413 1.524 . S
C7412 H7431 0.913 . S
C7413 H7389 0.950 . S
C7413 C7412 1.524 . S
C7413 C7414 1.415 . S
C7414 H7390 0.950 . S
C7414 C7409 1.363 . S
C7414 C7413 1.415 . S
C7415 H7391 0.951 . S
C7415 C7416 1.366 . S
C7415 C7417 1.388 . S
C7416 C7415 1.366 . S
C7416 C7420 1.385 . S
C7417 H7392 0.951 . S
C7417 C7415 1.388 . S
C7417 C7418 1.366 . S
C7418 C7417 1.366 . S
C7418 C7419 1.414 . S
C7418 C7421 1.499 . S
C7419 H7393 0.950 . S
C7419 C7418 1.414 . S
C7419 C7420 1.374 . S
C7420 H7394 0.950 . S
C7420 C7416 1.385 . S
C7420 C7419 1.374 . S
C7421 C7418 1.499 . S
C7421 C7422 1.373 . S
C7421 C7423 1.389 . S
C7422 H7395 0.950 . S
C7422 C7408 1.377 . S
C7422 C7421 1.373 . S
C7423 C7407 1.377 . S
C7423 C7421 1.389 . S
C7423 C7424 1.524 . S
C7424 C7423 1.524 . S
C7424 C7425 1.397 . S
C7424 C7429 1.363 . S
C7425 H7396 0.950 . S
C7425 C7424 1.397 . S
C7425 C7426 1.334 . S
C7426 H7397 0.950 . S
C7426 C7425 1.334 . S
C7426 C7427 1.287 . S
C7427 C7426 1.287 . S
C7427 C7428 1.524 . S
C7427 H7430 0.999 . S
C7428 H7398 0.950 . S
C7428 C7427 1.524 . S
C7428 C7429 1.415 . S
C7429 H7399 0.950 . S
C7429 C7424 1.363 . S
C7429 C7428 1.415 . S
H7430 C7427 0.999 . S
H7431 C7412 0.913 . S
H7432 C7450 0.951 . S
H7433 C7452 0.951 . S
H7434 C7454 0.950 . S
H7435 C7455 0.950 . S
H7436 C7457 0.950 . S
H7437 C7460 0.950 . S
H7438 C7461 0.950 . S
H7439 C7463 0.950 . S
H7440 C7464 0.950 . S
H7441 C7465 0.951 . S
H7442 C7467 0.951 . S
H7443 C7469 0.950 . S
H7444 C7470 0.950 . S
H7445 C7472 0.950 . S
H7446 C7475 0.950 . S
H7447 C7476 0.950 . S
H7448 C7478 0.950 . S
H7449 C7479 0.950 . S
C7450 H7432 0.951 . S
C7450 C7451 1.366 . S
C7450 C7452 1.388 . S
C7451 C7450 1.366 . S
C7451 C7455 1.385 . S
C7452 H7433 0.951 . S
C7452 C7450 1.388 . S
C7452 C7453 1.366 . S
C7453 C7452 1.366 . S
C7453 C7454 1.414 . S
C7453 C7456 1.499 . S
C7454 H7434 0.950 . S
C7454 C7453 1.414 . S
C7454 C7455 1.374 . S
C7455 H7435 0.950 . S
C7455 C7451 1.385 . S
C7455 C7454 1.374 . S
C7456 C7453 1.499 . S
C7456 C7457 1.373 . S
C7456 C7458 1.389 . S
C7457 H7436 0.950 . S
C7457 C7456 1.373 . S
C7457 C7473 1.377 . S
C7458 C7456 1.389 . S
C7458 C7459 1.524 . S
C7458 C7472 1.377 . S
C7459 C7458 1.524 . S
C7459 C7460 1.397 . S
C7459 C7464 1.363 . S
C7460 H7437 0.950 . S
C7460 C7459 1.397 . S
C7460 C7461 1.334 . S
C7461 H7438 0.950 . S
C7461 C7460 1.334 . S
C7461 C7462 1.287 . S
C7462 C7461 1.287 . S
C7462 C7463 1.524 . S
C7462 H7481 0.913 . S
C7463 H7439 0.950 . S
C7463 C7462 1.524 . S
C7463 C7464 1.415 . S
C7464 H7440 0.950 . S
C7464 C7459 1.363 . S
C7464 C7463 1.415 . S
C7465 H7441 0.951 . S
C7465 C7466 1.366 . S
C7465 C7467 1.388 . S
C7466 C7465 1.366 . S
C7466 C7470 1.385 . S
C7467 H7442 0.951 . S
C7467 C7465 1.388 . S
C7467 C7468 1.366 . S
C7468 C7467 1.366 . S
C7468 C7469 1.414 . S
C7468 C7471 1.499 . S
C7469 H7443 0.950 . S
C7469 C7468 1.414 . S
C7469 C7470 1.374 . S
C7470 H7444 0.950 . S
C7470 C7466 1.385 . S
C7470 C7469 1.374 . S
C7471 C7468 1.499 . S
C7471 C7472 1.373 . S
C7471 C7473 1.389 . S
C7472 H7445 0.950 . S
C7472 C7458 1.377 . S
C7472 C7471 1.373 . S
C7473 C7457 1.377 . S
C7473 C7471 1.389 . S
C7473 C7474 1.524 . S
C7474 C7473 1.524 . S
C7474 C7475 1.397 . S
C7474 C7479 1.363 . S
C7475 H7446 0.950 . S
C7475 C7474 1.397 . S
C7475 C7476 1.334 . S
C7476 H7447 0.950 . S
C7476 C7475 1.334 . S
C7476 C7477 1.287 . S
C7477 C7476 1.287 . S
C7477 C7478 1.524 . S
C7477 H7480 0.999 . S
C7478 H7448 0.950 . S
C7478 C7477 1.524 . S
C7478 C7479 1.415 . S
C7479 H7449 0.950 . S
C7479 C7474 1.363 . S
C7479 C7478 1.415 . S
H7480 C7477 0.999 . S
H7481 C7462 0.913 . S
H7482 C7500 0.951 . S
H7483 C7502 0.951 . S
H7484 C7504 0.950 . S
H7485 C7505 0.950 . S
H7486 C7507 0.950 . S
H7487 C7510 0.950 . S
H7488 C7511 0.950 . S
H7489 C7513 0.950 . S
H7490 C7514 0.950 . S
H7491 C7515 0.951 . S
H7492 C7517 0.951 . S
H7493 C7519 0.950 . S
H7494 C7520 0.950 . S
H7495 C7522 0.950 . S
H7496 C7525 0.950 . S
H7497 C7526 0.950 . S
H7498 C7528 0.950 . S
H7499 C7529 0.950 . S
C7500 H7482 0.951 . S
C7500 C7501 1.366 . S
C7500 C7502 1.388 . S
C7501 C7500 1.366 . S
C7501 C7505 1.385 . S
C7502 H7483 0.951 . S
C7502 C7500 1.388 . S
C7502 C7503 1.366 . S
C7503 C7502 1.366 . S
C7503 C7504 1.414 . S
C7503 C7506 1.499 . S
C7504 H7484 0.950 . S
C7504 C7503 1.414 . S
C7504 C7505 1.374 . S
C7505 H7485 0.950 . S
C7505 C7501 1.385 . S
C7505 C7504 1.374 . S
C7506 C7503 1.499 . S
C7506 C7507 1.373 . S
C7506 C7508 1.389 . S
C7507 H7486 0.950 . S
C7507 C7506 1.373 . S
C7507 C7523 1.377 . S
C7508 C7506 1.389 . S
C7508 C7509 1.524 . S
C7508 C7522 1.377 . S
C7509 C7508 1.524 . S
C7509 C7510 1.397 . S
C7509 C7514 1.363 . S
C7510 H7487 0.950 . S
C7510 C7509 1.397 . S
C7510 C7511 1.334 . S
C7511 H7488 0.950 . S
C7511 C7510 1.334 . S
C7511 C7512 1.287 . S
C7512 C7511 1.287 . S
C7512 C7513 1.524 . S
C7512 H7531 0.913 . S
C7513 H7489 0.950 . S
C7513 C7512 1.524 . S
C7513 C7514 1.415 . S
C7514 H7490 0.950 . S
C7514 C7509 1.363 . S
C7514 C7513 1.415 . S
C7515 H7491 0.951 . S
C7515 C7516 1.366 . S
C7515 C7517 1.388 . S
C7516 C7515 1.366 . S
C7516 C7520 1.385 . S
C7517 H7492 0.951 . S
C7517 C7515 1.388 . S
C7517 C7518 1.366 . S
C7518 C7517 1.366 . S
C7518 C7519 1.414 . S
C7518 C7521 1.499 . S
C7519 H7493 0.950 . S
C7519 C7518 1.414 . S
C7519 C7520 1.374 . S
C7520 H7494 0.950 . S
C7520 C7516 1.385 . S
C7520 C7519 1.374 . S
C7521 C7518 1.499 . S
C7521 C7522 1.373 . S
C7521 C7523 1.389 . S
C7522 H7495 0.950 . S
C7522 C7508 1.377 . S
C7522 C7521 1.373 . S
C7523 C7507 1.377 . S
C7523 C7521 1.389 . S
C7523 C7524 1.524 . S
C7524 C7523 1.524 . S
C7524 C7525 1.397 . S
C7524 C7529 1.363 . S
C7525 H7496 0.950 . S
C7525 C7524 1.397 . S
C7525 C7526 1.334 . S
C7526 H7497 0.950 . S
C7526 C7525 1.334 . S
C7526 C7527 1.287 . S
C7527 C7526 1.287 . S
C7527 C7528 1.524 . S
C7527 H7530 0.999 . S
C7528 H7498 0.950 . S
C7528 C7527 1.524 . S
C7528 C7529 1.415 . S
C7529 H7499 0.950 . S
C7529 C7524 1.363 . S
C7529 C7528 1.415 . S
H7530 C7527 0.999 . S
H7531 C7512 0.913 . S
H7532 C7550 0.951 . S
H7533 C7552 0.951 . S
H7534 C7554 0.950 . S
H7535 C7555 0.950 . S
H7536 C7557 0.950 . S
H7537 C7560 0.950 . S
H7538 C7561 0.950 . S
H7539 C7563 0.950 . S
H7540 C7564 0.950 . S
H7541 C7565 0.951 . S
H7542 C7567 0.951 . S
H7543 C7569 0.950 . S
H7544 C7570 0.950 . S
H7545 C7572 0.950 . S
H7546 C7575 0.950 . S
H7547 C7576 0.950 . S
H7548 C7578 0.950 . S
H7549 C7579 0.950 . S
C7550 H7532 0.951 . S
C7550 C7551 1.366 . S
C7550 C7552 1.388 . S
C7551 C7550 1.366 . S
C7551 C7555 1.385 . S
C7552 H7533 0.951 . S
C7552 C7550 1.388 . S
C7552 C7553 1.366 . S
C7553 C7552 1.366 . S
C7553 C7554 1.414 . S
C7553 C7556 1.499 . S
C7554 H7534 0.950 . S
C7554 C7553 1.414 . S
C7554 C7555 1.374 . S
C7555 H7535 0.950 . S
C7555 C7551 1.385 . S
C7555 C7554 1.374 . S
C7556 C7553 1.499 . S
C7556 C7557 1.373 . S
C7556 C7558 1.389 . S
C7557 H7536 0.950 . S
C7557 C7556 1.373 . S
C7557 C7573 1.377 . S
C7558 C7556 1.389 . S
C7558 C7559 1.524 . S
C7558 C7572 1.377 . S
C7559 C7558 1.524 . S
C7559 C7560 1.397 . S
C7559 C7564 1.363 . S
C7560 H7537 0.950 . S
C7560 C7559 1.397 . S
C7560 C7561 1.334 . S
C7561 H7538 0.950 . S
C7561 C7560 1.334 . S
C7561 C7562 1.287 . S
C7562 C7561 1.287 . S
C7562 C7563 1.524 . S
C7562 H7581 0.913 . S
C7563 H7539 0.950 . S
C7563 C7562 1.524 . S
C7563 C7564 1.415 . S
C7564 H7540 0.950 . S
C7564 C7559 1.363 . S
C7564 C7563 1.415 . S
C7565 H7541 0.951 . S
C7565 C7566 1.366 . S
C7565 C7567 1.388 . S
C7566 C7565 1.366 . S
C7566 C7570 1.385 . S
C7567 H7542 0.951 . S
C7567 C7565 1.388 . S
C7567 C7568 1.366 . S
C7568 C7567 1.366 . S
C7568 C7569 1.414 . S
C7568 C7571 1.499 . S
C7569 H7543 0.950 . S
C7569 C7568 1.414 . S
C7569 C7570 1.374 . S
C7570 H7544 0.950 . S
C7570 C7566 1.385 . S
C7570 C7569 1.374 . S
C7571 C7568 1.499 . S
C7571 C7572 1.373 . S
C7571 C7573 1.389 . S
C7572 H7545 0.950 . S
C7572 C7558 1.377 . S
C7572 C7571 1.373 . S
C7573 C7557 1.377 . S
C7573 C7571 1.389 . S
C7573 C7574 1.524 . S
C7574 C7573 1.524 . S
C7574 C7575 1.397 . S
C7574 C7579 1.363 . S
C7575 H7546 0.950 . S
C7575 C7574 1.397 . S
C7575 C7576 1.334 . S
C7576 H7547 0.950 . S
C7576 C7575 1.334 . S
C7576 C7577 1.287 . S
C7577 C7576 1.287 . S
C7577 C7578 1.524 . S
C7577 H7580 0.999 . S
C7578 H7548 0.950 . S
C7578 C7577 1.524 . S
C7578 C7579 1.415 . S
C7579 H7549 0.950 . S
C7579 C7574 1.363 . S
C7579 C7578 1.415 . S
H7580 C7577 0.999 . S
H7581 C7562 0.913 . S
H7582 C7600 0.951 . S
H7583 C7602 0.951 . S
H7584 C7604 0.950 . S
H7585 C7605 0.950 . S
H7586 C7607 0.950 . S
H7587 C7610 0.950 . S
H7588 C7611 0.950 . S
H7589 C7613 0.950 . S
H7590 C7614 0.950 . S
H7591 C7615 0.951 . S
H7592 C7617 0.951 . S
H7593 C7619 0.950 . S
H7594 C7620 0.950 . S
H7595 C7622 0.950 . S
H7596 C7625 0.950 . S
H7597 C7626 0.950 . S
H7598 C7628 0.950 . S
H7599 C7629 0.950 . S
C7600 H7582 0.951 . S
C7600 C7601 1.366 . S
C7600 C7602 1.388 . S
C7601 C7600 1.366 . S
C7601 C7605 1.385 . S
C7602 H7583 0.951 . S
C7602 C7600 1.388 . S
C7602 C7603 1.366 . S
C7603 C7602 1.366 . S
C7603 C7604 1.414 . S
C7603 C7606 1.499 . S
C7604 H7584 0.950 . S
C7604 C7603 1.414 . S
C7604 C7605 1.374 . S
C7605 H7585 0.950 . S
C7605 C7601 1.385 . S
C7605 C7604 1.374 . S
C7606 C7603 1.499 . S
C7606 C7607 1.373 . S
C7606 C7608 1.389 . S
C7607 H7586 0.950 . S
C7607 C7606 1.373 . S
C7607 C7623 1.377 . S
C7608 C7606 1.389 . S
C7608 C7609 1.524 . S
C7608 C7622 1.377 . S
C7609 C7608 1.524 . S
C7609 C7610 1.397 . S
C7609 C7614 1.363 . S
C7610 H7587 0.950 . S
C7610 C7609 1.397 . S
C7610 C7611 1.334 . S
C7611 H7588 0.950 . S
C7611 C7610 1.334 . S
C7611 C7612 1.287 . S
C7612 C7611 1.287 . S
C7612 C7613 1.524 . S
C7612 H7631 0.913 . S
C7613 H7589 0.950 . S
C7613 C7612 1.524 . S
C7613 C7614 1.415 . S
C7614 H7590 0.950 . S
C7614 C7609 1.363 . S
C7614 C7613 1.415 . S
C7615 H7591 0.951 . S
C7615 C7616 1.366 . S
C7615 C7617 1.388 . S
C7616 C7615 1.366 . S
C7616 C7620 1.385 . S
C7617 H7592 0.951 . S
C7617 C7615 1.388 . S
C7617 C7618 1.366 . S
C7618 C7617 1.366 . S
C7618 C7619 1.414 . S
C7618 C7621 1.499 . S
C7619 H7593 0.950 . S
C7619 C7618 1.414 . S
C7619 C7620 1.374 . S
C7620 H7594 0.950 . S
C7620 C7616 1.385 . S
C7620 C7619 1.374 . S
C7621 C7618 1.499 . S
C7621 C7622 1.373 . S
C7621 C7623 1.389 . S
C7622 H7595 0.950 . S
C7622 C7608 1.377 . S
C7622 C7621 1.373 . S
C7623 C7607 1.377 . S
C7623 C7621 1.389 . S
C7623 C7624 1.524 . S
C7624 C7623 1.524 . S
C7624 C7625 1.397 . S
C7624 C7629 1.363 . S
C7625 H7596 0.950 . S
C7625 C7624 1.397 . S
C7625 C7626 1.334 . S
C7626 H7597 0.950 . S
C7626 C7625 1.334 . S
C7626 C7627 1.287 . S
C7627 C7626 1.287 . S
C7627 C7628 1.524 . S
C7627 H7630 0.999 . S
C7628 H7598 0.950 . S
C7628 C7627 1.524 . S
C7628 C7629 1.415 . S
C7629 H7599 0.950 . S
C7629 C7624 1.363 . S
C7629 C7628 1.415 . S
H7630 C7627 0.999 . S
H7631 C7612 0.913 . S
C2851 C1183 1.649 . S
C2866 C5 1.648 . S
C2901 C92 1.688 . S
C2916 C1036 1.693 . S
C2951 C123 1.723 . S
C2966 C1095 1.725 . S
C3001 C1154 1.837 . S
C3016 C210 1.840 . S
C3051 C1390 1.810 . S
C3066 C288 1.812 . S
C3101 C298 1.752 . S
C3116 C1272 1.764 . S
C3151 C406 1.627 . S
C3166 C1301 1.627 . S
C3201 C416 1.663 . S
C3216 C947 1.664 . S
C3251 C475 1.659 . S
C3266 C890 1.666 . S
C3301 C583 1.645 . S
C3316 C741 1.658 . S
C3351 C593 1.561 . S
C3366 C772 1.567 . S
C3401 C859 1.700 . S
C3416 C701 1.689 . S
C3451 C1468 1.904 . S
C3466 C2629 1.918 . S
C3501 C2422 1.481 . S
C3516 C1478 1.482 . S
C3551 C1586 1.865 . S
C3566 C2481 1.876 . S
C3601 C2570 1.762 . S
C3616 C1596 1.752 . S
C3651 C1657 1.562 . S
C3666 C2776 1.548 . S
C3701 C2658 1.818 . S
C3716 C1744 1.822 . S
C3751 C1775 1.383 . S
C3766 C2717 1.368 . S
C3801 C2393 1.941 . S
C3816 C1862 1.944 . S
C3851 C1921 1.774 . S
C3866 C2353 1.758 . S
C3901 C2127 1.683 . S
C3916 C1952 1.695 . S
C3951 C2235 1.689 . S
C3966 C2039 1.705 . S
C4001 C2245 1.730 . S
C4016 C2070 1.743 . S
C4051 C1539 1.047 . S
C4066 C52 1.044 . S
C4101 C62 0.955 . S
C4116 C1626 0.960 . S
C4151 C170 1.056 . S
C4166 C1421 1.064 . S
C4201 C180 1.163 . S
C4216 C1508 1.156 . S
C4251 C241 1.225 . S
C4266 C1822 1.199 . S
C4301 C1832 1.064 . S
C4316 C328 1.067 . S
C4351 C1704 1.019 . S
C4366 C359 1.030 . S
C4401 C1714 1.044 . S
C4416 C446 1.053 . S
C4451 C2157 1.143 . S
C4466 C505 1.147 . S
C4501 C536 0.955 . S
C4516 C2188 0.955 . S
C4551 C2275 1.136 . S
C4566 C623 1.140 . S
C4601 C654 0.945 . S
C4616 C2306 0.945 . S
C4651 C711 0.994 . S
C4666 C1891 0.993 . S
C4701 C819 1.089 . S
C4716 C1999 1.085 . S
C4751 C2009 1.007 . S
C4766 C829 1.008 . S
C4801 C2117 1.091 . S
C4816 C937 1.095 . S
C4851 C977 1.117 . S
C4866 C2540 1.101 . S
C4901 C1006 1.044 . S
C4916 C2688 1.049 . S
C4951 C2747 1.178 . S
C4966 C1065 1.172 . S
C5001 C2363 0.864 . S
C5016 C1124 0.859 . S
C5051 C1213 1.107 . S
C5066 C2806 1.102 . S
C5101 C2452 1.217 . S
C5116 C1242 1.216 . S
C5151 C1331 1.168 . S
C5166 C2511 1.166 . S
C5201 C1360 0.875 . S
C5216 C2599 0.879 . S
C5251 C1655 1.866 . S
C5266 C33 1.876 . S
C5301 C1763 1.938 . S
C5316 C64 1.912 . S
C5351 C1773 1.972 . S
C5366 C151 1.993 . S
C5401 C182 1.915 . S
C5416 C1881 1.945 . S
C5451 C1449 1.958 . S
C5466 C239 1.926 . S
C5501 C1480 1.974 . S
C5516 C347 1.994 . S
C5551 C357 1.865 . S
C5566 C1567 1.899 . S
C5601 C1598 1.922 . S
C5616 C465 1.928 . S
C5651 C524 1.887 . S
C5666 C2247 1.876 . S
C5701 C534 1.968 . S
C5716 C2334 1.997 . S
C5751 C2129 1.887 . S
C5766 C642 1.899 . S
C5801 C652 1.997 . S
C5816 C2216 2.018 . S
C5851 C2058 2.034 . S
C5866 C713 2.005 . S
C5901 C800 1.859 . S
C5916 C2068 1.854 . S
C5951 C831 2.002 . S
C5966 C1940 2.029 . S
C6001 C918 1.870 . S
C6016 C1950 1.862 . S
C6051 C2660 1.915 . S
C6066 C996 1.914 . S
C6101 C1008 2.055 . S
C6116 C2589 2.079 . S
C6151 C1067 1.970 . S
C6166 C2648 1.986 . S
C6201 C1126 1.796 . S
C6216 C2424 1.803 . S
C6251 C2483 1.870 . S
C6266 C1232 1.876 . S
C6301 C2412 2.009 . S
C6316 C1244 1.999 . S
C6351 C2778 2.056 . S
C6366 C1350 2.078 . S
C6401 C1362 1.820 . S
C6416 C2719 1.833 . S
C6451 C888 1.331 . S
C6466 C3 1.323 . S
C6501 C111 1.249 . S
C6516 C760 1.243 . S
C6551 C770 1.293 . S
C6566 C121 1.278 . S
C6601 C878 1.232 . S
C6616 C229 1.239 . S
C6651 C564 1.177 . S
C6666 C269 1.181 . S
C6701 C300 1.313 . S
C6716 C595 1.320 . S
C6751 C387 1.229 . S
C6766 C682 1.224 . S
C6801 C477 1.317 . S
C6816 C418 1.311 . S
C6851 C949 1.268 . S
C6866 C1185 1.273 . S
C6901 C1409 1.348 . S
C6916 C1055 1.359 . S
C6951 C1291 1.112 . S
C6966 C1114 1.110 . S
C7001 C1173 1.359 . S
C7016 C1303 1.352 . S
C7051 C2304 1.321 . S
C7066 C1419 1.323 . S
C7101 C2176 1.358 . S
C7116 C1527 1.357 . S
C7151 C1537 1.349 . S
C7166 C2186 1.339 . S
C7201 C2294 1.350 . S
C7216 C1645 1.348 . S
C7251 C1980 1.305 . S
C7266 C1685 1.306 . S
C7301 C1716 1.354 . S
C7316 C2011 1.357 . S
C7351 C1803 1.327 . S
C7366 C2098 1.333 . S
C7401 C1834 1.336 . S
C7416 C1893 1.339 . S
C7451 C2365 1.328 . S
C7466 C2601 1.330 . S
C7501 C2825 1.421 . S
C7516 C2471 1.431 . S
C7551 C2707 1.361 . S
C7566 C2530 1.359 . S
C7601 C2766 1.468 . S
C7616 C2542 1.442 . S
