# Generated by pormake.
# Topology uob, (4)-cn, num edge types: 1
# Building blocks:
#     Node 0, Type 0, BuildingBlock: ICAMEG_clean_sbu_1, # of connection points: 4
#     Node 1, Type 0, BuildingBlock: ICAMEG_clean_sbu_1, # of connection points: 4
#     Node 2, Type 0, BuildingBlock: ICAMEG_clean_sbu_1, # of connection points: 4
#     Node 3, Type 0, BuildingBlock: ICAMEG_clean_sbu_1, # of connection points: 4
#     Node 4, Type 0, BuildingBlock: ICAMEG_clean_sbu_1, # of connection points: 4
#     Node 5, Type 0, BuildingBlock: ICAMEG_clean_sbu_1, # of connection points: 4
#     Node 6, Type 0, BuildingBlock: ICAMEG_clean_sbu_1, # of connection points: 4
#     Node 7, Type 0, BuildingBlock: ICAMEG_clean_sbu_1, # of connection points: 4
#     Node 8, Type 0, BuildingBlock: ICAMEG_clean_sbu_1, # of connection points: 4
#     Node 9, Type 0, BuildingBlock: ICAMEG_clean_sbu_1, # of connection points: 4
#     Node 10, Type 0, BuildingBlock: ICAMEG_clean_sbu_1, # of connection points: 4
#     Node 11, Type 0, BuildingBlock: ICAMEG_clean_sbu_1, # of connection points: 4
#     Node 12, Type 0, BuildingBlock: ICAMEG_clean_sbu_1, # of connection points: 4
#     Node 13, Type 0, BuildingBlock: ICAMEG_clean_sbu_1, # of connection points: 4
#     Node 14, Type 0, BuildingBlock: ICAMEG_clean_sbu_1, # of connection points: 4
#     Node 15, Type 0, BuildingBlock: ICAMEG_clean_sbu_1, # of connection points: 4
#     Edge 16, Type (0, 0), BuildingBlock: OJICUG_clean_linker_0, # of connection points: 2
#     Edge 17, Type (0, 0), BuildingBlock: OJICUG_clean_linker_0, # of connection points: 2
#     Edge 18, Type (0, 0), BuildingBlock: OJICUG_clean_linker_0, # of connection points: 2
#     Edge 19, Type (0, 0), BuildingBlock: OJICUG_clean_linker_0, # of connection points: 2
#     Edge 20, Type (0, 0), BuildingBlock: OJICUG_clean_linker_0, # of connection points: 2
#     Edge 21, Type (0, 0), BuildingBlock: OJICUG_clean_linker_0, # of connection points: 2
#     Edge 22, Type (0, 0), BuildingBlock: OJICUG_clean_linker_0, # of connection points: 2
#     Edge 23, Type (0, 0), BuildingBlock: OJICUG_clean_linker_0, # of connection points: 2
#     Edge 24, Type (0, 0), BuildingBlock: OJICUG_clean_linker_0, # of connection points: 2
#     Edge 25, Type (0, 0), BuildingBlock: OJICUG_clean_linker_0, # of connection points: 2
#     Edge 26, Type (0, 0), BuildingBlock: OJICUG_clean_linker_0, # of connection points: 2
#     Edge 27, Type (0, 0), BuildingBlock: OJICUG_clean_linker_0, # of connection points: 2
#     Edge 28, Type (0, 0), BuildingBlock: OJICUG_clean_linker_0, # of connection points: 2
#     Edge 29, Type (0, 0), BuildingBlock: OJICUG_clean_linker_0, # of connection points: 2
#     Edge 30, Type (0, 0), BuildingBlock: OJICUG_clean_linker_0, # of connection points: 2
#     Edge 31, Type (0, 0), BuildingBlock: OJICUG_clean_linker_0, # of connection points: 2
#     Edge 32, Type (0, 0), BuildingBlock: OJICUG_clean_linker_0, # of connection points: 2
#     Edge 33, Type (0, 0), BuildingBlock: OJICUG_clean_linker_0, # of connection points: 2
#     Edge 34, Type (0, 0), BuildingBlock: OJICUG_clean_linker_0, # of connection points: 2
#     Edge 35, Type (0, 0), BuildingBlock: OJICUG_clean_linker_0, # of connection points: 2
#     Edge 36, Type (0, 0), BuildingBlock: OJICUG_clean_linker_0, # of connection points: 2
#     Edge 37, Type (0, 0), BuildingBlock: OJICUG_clean_linker_0, # of connection points: 2
#     Edge 38, Type (0, 0), BuildingBlock: OJICUG_clean_linker_0, # of connection points: 2
#     Edge 39, Type (0, 0), BuildingBlock: OJICUG_clean_linker_0, # of connection points: 2
#     Edge 40, Type (0, 0), BuildingBlock: OJICUG_clean_linker_0, # of connection points: 2
#     Edge 41, Type (0, 0), BuildingBlock: OJICUG_clean_linker_0, # of connection points: 2
#     Edge 42, Type (0, 0), BuildingBlock: OJICUG_clean_linker_0, # of connection points: 2
#     Edge 43, Type (0, 0), BuildingBlock: OJICUG_clean_linker_0, # of connection points: 2
#     Edge 44, Type (0, 0), BuildingBlock: OJICUG_clean_linker_0, # of connection points: 2
#     Edge 45, Type (0, 0), BuildingBlock: OJICUG_clean_linker_0, # of connection points: 2
#     Edge 46, Type (0, 0), BuildingBlock: OJICUG_clean_linker_0, # of connection points: 2
#     Edge 47, Type (0, 0), BuildingBlock: OJICUG_clean_linker_0, # of connection points: 2
# Relax obj value: 0.094
# Max RMSD: 0.128
# Mean RMSD: 0.128
data_MOF--net-uob--node1-ICAMEG_clean_sbu_1--edge1-OJICUG_clean_linker_0
_symmetry_space_group_name_H-M    P1
_symmetry_Int_Tables_number       1
_symmetry_cell_setting            triclinic
loop_
_symmetry_equiv_pos_as_xyz
'x, y, z'
_cell_length_a     42.913141
_cell_length_b     42.917722
_cell_length_c     22.278623
_cell_angle_alpha  90.009978
_cell_angle_beta   89.996745
_cell_angle_gamma 89.964828
loop_
_atom_site_label
_atom_site_type_symbol
_atom_site_fract_x
_atom_site_fract_y
_atom_site_fract_z
_atom_type_partial_charge
Co0 Co 0.09981 0.09391 0.28263 0.0
Co1 Co 0.1344 0.02468 0.32774 0.0
O2 O 0.13325 0.06273 0.27927 0.0
C3 C 0.09873 0.07182 0.15842 0.0
O4 O 0.10455 0.04375 0.17888 0.0
C5 C 0.19196 0.05798 0.36468 0.0
O6 O 0.17552 0.08378 0.36489 0.0
O7 O 0.12176 0.04788 0.4011 0.0
O8 O 0.10077 0.0933 0.37106 0.0
H9 H 0.09266 0.94788 0.47777 0.0
H10 H 0.15571 0.10602 0.2082 0.0
O11 O 0.09736 0.09502 0.19367 0.0
H12 H 0.1537 0.1904 0.35844 0.0
H13 H 0.04478 0.19191 0.21757 0.0
H14 H 0.04238 0.10195 0.35513 0.0
H15 H 0.11248 0.15036 0.35694 0.0
H16 H 0.08653 0.1524 0.21498 0.0
O17 O 0.17936 0.03237 0.34875 0.0
H18 H 0.09153 0.99542 0.41554 0.0
H19 H 0.18046 0.97321 0.34351 0.0
H20 H 1.00029 0.14103 0.35962 0.0
H21 H 0.19729 0.14571 0.20778 0.0
H22 H 1.00133 0.18643 0.29049 0.0
H23 H 0.19647 0.18824 0.28341 0.0
O24 O 0.06682 0.06124 0.28313 0.0
H25 H 0.19774 0.00686 0.14131 0.0
H26 H 0.11303 0.96609 0.26853 0.0
H27 H 0.12769 0.93782 0.17634 0.0
H28 H 0.17036 0.95819 0.11205 0.0
H29 H 0.18211 0.03452 0.23368 0.0
H30 H 0.18267 0.92556 0.40534 0.0
H31 H 0.13848 0.9126 0.47291 0.0
O32 O 0.08965 0.01604 0.30887 0.0
C33 C 0.10902 0.07418 0.41158 0.0
C34 C 0.112 0.95323 0.44835 0.0
C35 C 0.16254 0.94072 0.40776 0.0
N36 N 0.13578 0.98694 0.37559 0.0
C37 C 0.11146 0.98006 0.41287 0.0
C38 C 0.16119 0.96776 0.37295 0.0
C39 C 0.13774 0.93346 0.44565 0.0
C40 C 0.15507 0.12462 0.24089 0.0
N41 N 0.13163 0.12599 0.28229 0.0
C42 C 0.17873 0.14695 0.24059 0.0
C43 C 0.17828 0.17078 0.28309 0.0
C44 C 0.15429 0.172 0.32522 0.0
C45 C 0.13105 0.14924 0.32422 0.0
C46 C 0.04412 0.1723 0.24808 0.0
C47 C 0.04313 0.12177 0.32527 0.0
C48 C 0.06768 0.14984 0.24679 0.0
N49 N 0.0671 0.12511 0.28542 0.0
C50 C 0.01917 0.14377 0.32785 0.0
C51 C 0.01975 0.16921 0.28901 0.0
C52 C 0.06584 0.03206 0.29378 0.0
C53 C 0.17916 0.99771 0.16903 0.0
C54 C 0.13154 0.97514 0.24069 0.0
C55 C 0.1398 0.95899 0.18862 0.0
C56 C 0.16376 0.97043 0.15259 0.0
N57 N 0.14678 1.00186 0.25651 0.0
C58 C 0.1703 0.0132 0.22147 0.0
Co59 Co 0.91329 0.59345 0.53357 0.0
Co60 Co 0.98268 0.62756 0.57908 0.0
O61 O 0.9443 0.62704 0.53139 0.0
C62 C 0.93238 0.59642 0.40746 0.0
O63 O 0.961 0.60152 0.4257 0.0
C64 C 0.95001 0.68506 0.61796 0.0
O65 O 0.92432 0.66848 0.61953 0.0
O66 O 0.95972 0.61505 0.65272 0.0
O67 O 0.91562 0.59179 0.62183 0.0
H68 H 0.05993 0.58435 0.7268 0.0
H69 H 0.89942 0.65151 0.46679 0.0
O70 O 0.9102 0.59372 0.44477 0.0
H71 H 0.81825 0.64435 0.62288 0.0
H72 H 0.81441 0.53963 0.46993 0.0
H73 H 0.90709 0.53397 0.6003 0.0
H74 H 0.85831 0.60341 0.61333 0.0
H75 H 0.85349 0.58176 0.46911 0.0
O76 O 0.97547 0.67255 0.60075 0.0
H77 H 0.01202 0.58402 0.66555 0.0
H78 H 0.03466 0.67302 0.5946 0.0
H79 H 0.86849 0.49145 0.60291 0.0
H80 H 0.85965 0.69288 0.47446 0.0
H81 H 0.82173 0.49413 0.53737 0.0
H82 H 0.81875 0.68947 0.55308 0.0
O83 O 0.94614 0.5608 0.52794 0.0
H84 H 1.00032 0.6915 0.39341 0.0
H85 H 0.04071 0.60569 0.51837 0.0
H86 H 0.06871 0.62042 0.42595 0.0
H87 H 0.04852 0.66365 0.3628 0.0
H88 H 0.97291 0.67578 0.48597 0.0
H89 H 0.08269 0.67444 0.65544 0.0
H90 H 0.09562 0.62981 0.72198 0.0
O91 O 0.9908 0.58272 0.5594 0.0
C92 C 0.93416 0.60082 0.66266 0.0
C93 C 0.0546 0.60389 0.69782 0.0
C94 C 0.06735 0.65447 0.65784 0.0
N95 N 0.02069 0.62836 0.62619 0.0
C96 C 0.02756 0.60379 0.66291 0.0
C97 C 0.04009 0.65356 0.62358 0.0
C98 C 0.0746 0.62942 0.69515 0.0
C99 C 0.88151 0.64974 0.50072 0.0
N100 N 0.88107 0.62501 0.5393 0.0
C101 C 0.85913 0.67328 0.50502 0.0
C102 C 0.83621 0.67138 0.5492 0.0
C103 C 0.83593 0.64608 0.58839 0.0
C104 C 0.8587 0.623 0.58283 0.0
C105 C 0.83463 0.53825 0.49885 0.0
C106 C 0.88668 0.53543 0.57204 0.0
C107 C 0.85685 0.56202 0.49854 0.0
N108 N 0.88236 0.5605 0.53516 0.0
C109 C 0.86496 0.51123 0.57354 0.0
C110 C 0.83875 0.51272 0.5367 0.0
C111 C 0.97511 0.55944 0.54041 0.0
C112 C 0.00938 0.67267 0.42062 0.0
C113 C 0.03173 0.62443 0.491 0.0
C114 C 0.04772 0.63273 0.43881 0.0
C115 C 0.0364 0.65701 0.40342 0.0
N116 N 0.00525 0.63992 0.50756 0.0
C117 C 0.99403 0.66376 0.47317 0.0
Co118 Co 0.40493 0.4135 0.78134 0.0
Co119 Co 0.37124 0.48309 0.82706 0.0
O120 O 0.37188 0.4451 0.77831 0.0
C121 C 0.40581 0.43524 0.65682 0.0
O122 O 0.40041 0.46346 0.67693 0.0
C123 C 0.31328 0.45043 0.86364 0.0
O124 O 0.32951 0.4245 0.86374 0.0
O125 O 0.38353 0.45962 0.9003 0.0
O126 O 0.40438 0.41423 0.86977 0.0
H127 H 0.41404 0.55911 0.97749 0.0
H128 H 0.34857 0.40199 0.7079 0.0
O129 O 0.407 0.41216 0.69238 0.0
H130 H 0.35008 0.3179 0.8587 0.0
H131 H 0.45843 0.31467 0.71609 0.0
H132 H 0.46261 0.40492 0.85287 0.0
H133 H 0.39186 0.35733 0.85618 0.0
H134 H 0.41716 0.3547 0.71393 0.0
O135 O 0.32614 0.47597 0.84799 0.0
H136 H 0.41451 0.51165 0.91497 0.0
H137 H 0.32586 0.53514 0.84323 0.0
H138 H 0.50424 0.36532 0.85692 0.0
H139 H 0.30642 0.3629 0.70851 0.0
H140 H 0.50229 0.31978 0.78818 0.0
H141 H 0.30698 0.32053 0.78444 0.0
O142 O 0.4383 0.44579 0.78115 0.0
H143 H 0.30815 0.50214 0.64078 0.0
H144 H 0.39343 0.54147 0.76827 0.0
H145 H 0.37915 0.57013 0.67633 0.0
H146 H 0.33619 0.55049 0.61191 0.0
H147 H 0.32341 0.47408 0.73291 0.0
H148 H 0.32431 0.58272 0.90534 0.0
H149 H 0.36869 0.59501 0.97291 0.0
O150 O 0.41613 0.49113 0.80823 0.0
C151 C 0.39623 0.43327 0.9105 0.0
C152 C 0.39462 0.55406 0.94807 0.0
C153 C 0.34423 0.56729 0.90764 0.0
N154 N 0.37036 0.52077 0.87515 0.0
C155 C 0.39479 0.52728 0.91243 0.0
C156 C 0.34521 0.54029 0.87267 0.0
C157 C 0.36914 0.57418 0.94553 0.0
C158 C 0.3491 0.38345 0.7407 0.0
N159 N 0.37272 0.38183 0.7817 0.0
C160 C 0.32512 0.36146 0.74099 0.0
C161 C 0.32543 0.33771 0.78366 0.0
C162 C 0.34959 0.33623 0.82536 0.0
C163 C 0.37316 0.35865 0.82377 0.0
C164 C 0.45948 0.33435 0.74643 0.0
C165 C 0.46147 0.38503 0.82318 0.0
C166 C 0.43619 0.35709 0.74538 0.0
N167 N 0.43727 0.38191 0.7838 0.0
C168 C 0.48517 0.36275 0.82551 0.0
C169 C 0.48408 0.33723 0.78689 0.0
C170 C 0.43968 0.4749 0.79237 0.0
C171 C 0.32686 0.51097 0.66856 0.0
C172 C 0.3748 0.53273 0.74036 0.0
C173 C 0.36676 0.5491 0.68844 0.0
C174 C 0.34263 0.53807 0.65234 0.0
N175 N 0.35919 0.50619 0.75597 0.0
C176 C 0.33551 0.49525 0.72086 0.0
Co177 Co 0.59429 0.91127 0.03096 0.0
Co178 Co 0.52502 0.87728 0.07745 0.0
O179 O 0.56291 0.87801 0.0284 0.0
C180 C 0.57308 0.91087 0.906 0.0
O181 O 0.54475 0.90559 0.92563 0.0
C182 C 0.55771 0.81928 0.11368 0.0
O183 O 0.58362 0.83553 0.11422 0.0
O184 O 0.54871 0.88923 0.15058 0.0
O185 O 0.59336 0.91131 0.11939 0.0
H186 H 0.44942 0.91974 0.22911 0.0
H187 H 0.60642 0.8544 0.95927 0.0
O188 O 0.59591 0.91264 0.94204 0.0
H189 H 0.69021 0.85775 0.11061 0.0
H190 H 0.69278 0.96509 0.96511 0.0
H191 H 0.60225 0.96944 0.10121 0.0
H192 H 0.65041 0.89919 0.10662 0.0
H193 H 0.65316 0.92347 0.96375 0.0
O194 O 0.5322 0.83214 0.09778 0.0
H195 H 0.49671 0.92032 0.16613 0.0
H196 H 0.47298 0.83194 0.0936 0.0
H197 H 0.64144 0.01143 0.10444 0.0
H198 H 0.64589 0.81258 0.96136 0.0
H199 H 0.68711 0.00941 0.03603 0.0
H200 H 0.68811 0.81407 0.03756 0.0
O201 O 0.56176 0.9444 0.02952 0.0
H202 H 0.50547 0.81476 0.89066 0.0
H203 H 0.46646 0.89971 0.01947 0.0
H204 H 0.43756 0.88572 0.92764 0.0
H205 H 0.45704 0.84293 0.86256 0.0
H206 H 0.53378 0.82972 0.98268 0.0
H207 H 0.42557 0.83027 0.15617 0.0
H208 H 0.41349 0.87446 0.22438 0.0
O209 O 0.5169 0.92224 0.0592 0.0
C210 C 0.5748 0.9025 0.16037 0.0
C211 C 0.45438 0.9004 0.19942 0.0
C212 C 0.44101 0.85016 0.15854 0.0
N213 N 0.48746 0.87631 0.12588 0.0
C214 C 0.48106 0.90063 0.16351 0.0
C215 C 0.46792 0.8512 0.1233 0.0
C216 C 0.43424 0.87497 0.19679 0.0
C217 C 0.62489 0.85533 -0.00781 0.0
N218 N 0.62622 0.87928 0.03252 0.0
C219 C 0.6471 0.83154 -0.00668 0.0
C220 C 0.67076 0.83236 0.03613 0.0
C221 C 0.67195 0.85686 0.07715 0.0
C222 C 0.64931 0.88023 0.07474 0.0
C223 C 0.67304 0.96618 -0.0047 0.0
C224 C 0.62221 0.96826 0.07169 0.0
C225 C 0.65053 0.94269 -0.0053 0.0
N226 N 0.62562 0.94383 0.03291 0.0
C227 C 0.64425 0.99217 0.07354 0.0
C228 C 0.66985 0.99103 0.0351 0.0
C229 C 0.53278 0.94573 0.04194 0.0
C230 C 0.49671 0.8334 0.91872 0.0
C231 C 0.47514 0.88115 -0.00875 0.0
C232 C 0.45863 0.87327 0.9394 0.0
C233 C 0.46956 0.84925 0.90294 0.0
N234 N 0.50173 0.86548 0.00643 0.0
C235 C 0.51257 0.84188 0.97097 0.0
Co236 Co 0.09395 0.41351 0.03316 0.0
Co237 Co 0.12772 0.48303 -0.01252 0.0
O238 O 0.1274 0.44468 0.03526 0.0
C239 C 0.09687 0.43266 0.15926 0.0
O240 O 0.10187 0.46129 0.14102 0.0
C241 C 0.18534 0.45058 0.94857 0.0
O242 O 0.16886 0.42484 0.94711 0.0
O243 O 0.11527 0.45996 0.9139 0.0
O244 O 0.09226 0.41576 0.94489 0.0
H245 H 0.08406 0.55998 0.83971 0.0
H246 H 0.1521 0.39998 0.09996 0.0
O247 O 0.09424 0.41047 0.12196 0.0
H248 H 0.14535 0.31868 0.94404 0.0
H249 H 0.04066 0.31439 0.09703 0.0
H250 H 0.03448 0.40696 0.96648 0.0
H251 H 0.1042 0.35852 0.95352 0.0
H252 H 0.08259 0.35369 0.09774 0.0
O253 O 0.17274 0.47601 0.96573 0.0
H254 H 0.08399 0.51211 0.90103 0.0
H255 H 0.17294 0.53519 0.97176 0.0
H256 H 0.99216 0.36814 0.96398 0.0
H257 H 0.19368 0.36044 0.09236 0.0
H258 H 0.9951 0.32143 0.02961 0.0
H259 H 0.19049 0.31948 0.01383 0.0
O260 O 0.06113 0.4462 0.03872 0.0
H261 H 0.19169 0.50108 0.17298 0.0
H262 H 0.10561 0.54099 0.04809 0.0
H263 H 0.12027 0.56911 0.14043 0.0
H264 H 0.16364 0.54917 0.20354 0.0
H265 H 0.17604 0.47354 0.08052 0.0
H266 H 0.1741 0.58319 0.91083 0.0
H267 H 0.12937 0.59588 0.84436 0.0
O268 O 0.08285 0.49094 0.00723 0.0
C269 C 0.10118 0.43433 0.90402 0.0
C270 C 0.10364 0.55476 0.86865 0.0
C271 C 0.1542 0.56776 0.9085 0.0
N272 N 0.12832 0.52101 0.94028 0.0
C273 C 0.10369 0.52774 0.90361 0.0
C274 C 0.15344 0.54052 0.9428 0.0
C275 C 0.12909 0.57487 0.87123 0.0
C276 C 0.15042 0.38204 0.06607 0.0
N277 N 0.12568 0.38144 0.02749 0.0
C278 C 0.17408 0.35979 0.06181 0.0
C279 C 0.1723 0.33684 0.01768 0.0
C280 C 0.14699 0.33639 0.97849 0.0
C281 C 0.12378 0.35904 0.98402 0.0
C282 C 0.03916 0.33458 0.06808 0.0
C283 C 0.03606 0.38657 -0.00522 0.0
C284 C 0.06282 0.35693 0.06832 0.0
N285 N 0.06116 0.38241 0.03165 0.0
C286 C 0.01196 0.36472 -0.00665 0.0
C287 C 0.01361 0.33855 0.03023 0.0
C288 C 0.05964 0.47516 0.02623 0.0
C289 C 0.1728 0.51003 0.14579 0.0
C290 C 0.12441 0.53211 0.07545 0.0
C291 C 0.13267 0.54818 0.12759 0.0
C292 C 0.15702 0.53699 0.16295 0.0
N293 N 0.14001 0.5057 0.05893 0.0
C294 C 0.16393 0.49461 0.0933 0.0
Co295 Co 0.59306 0.59959 0.28235 0.0
Co296 Co 0.52383 0.63404 0.2367 0.0
O297 O 0.56185 0.63303 0.28531 0.0
C298 C 0.5712 0.59904 0.40678 0.0
O299 O 0.54307 0.60478 0.38655 0.0
C300 C 0.55712 0.69154 0.19949 0.0
O301 O 0.58289 0.67505 0.19934 0.0
O302 O 0.54711 0.62134 0.16348 0.0
O303 O 0.59236 0.60014 0.19391 0.0
H304 H 0.44721 0.59191 0.08668 0.0
H305 H 0.60523 0.65584 0.35575 0.0
O306 O 0.59431 0.59754 0.37131 0.0
H307 H 0.68943 0.65316 0.20518 0.0
H308 H 0.69115 0.54486 0.3479 0.0
H309 H 0.60098 0.54182 0.21083 0.0
H310 H 0.64943 0.61192 0.2076 0.0
H311 H 0.65166 0.58665 0.34991 0.0
O312 O 0.53148 0.67898 0.21546 0.0
H313 H 0.4947 0.59097 0.1491 0.0
H314 H 0.4723 0.68 0.22042 0.0
H315 H 0.64004 0.49969 0.20693 0.0
H316 H 0.64489 0.69745 0.35524 0.0
H317 H 0.68554 0.50106 0.27581 0.0
H318 H 0.68732 0.6963 0.27944 0.0
O319 O 0.56037 0.56662 0.28255 0.0
H320 H 0.50569 0.69768 0.42263 0.0
H321 H 0.46521 0.61266 0.29581 0.0
H322 H 0.4368 0.62746 0.38776 0.0
H323 H 0.45702 0.67029 0.45184 0.0
H324 H 0.5335 0.68192 0.33051 0.0
H325 H 0.42471 0.68203 0.1584 0.0
H326 H 0.41186 0.6377 0.09109 0.0
O327 O 0.51524 0.58929 0.25582 0.0
C328 C 0.57335 0.60843 0.15324 0.0
C329 C 0.45251 0.61132 0.11599 0.0
C330 C 0.4399 0.66192 0.15618 0.0
N331 N 0.48612 0.63529 0.18871 0.0
C332 C 0.47931 0.61088 0.15157 0.0
C333 C 0.46691 0.66067 0.1911 0.0
C334 C 0.4327 0.63703 0.11844 0.0
C335 C 0.62379 0.65505 0.32299 0.0
N336 N 0.62513 0.63141 0.28201 0.0
C337 C 0.64611 0.67873 0.32276 0.0
C338 C 0.66989 0.67809 0.28017 0.0
C339 C 0.67107 0.6539 0.23847 0.0
C340 C 0.64833 0.63065 0.23999 0.0
C341 C 0.67149 0.54407 0.31749 0.0
C342 C 0.62085 0.54271 0.24057 0.0
C343 C 0.64905 0.56764 0.31846 0.0
N344 N 0.62425 0.56687 0.27997 0.0
C345 C 0.64283 0.51873 0.23833 0.0
C346 C 0.66833 0.51949 0.27704 0.0
C347 C 0.53122 0.56557 0.27156 0.0
C348 C 0.49661 0.67903 0.39501 0.0
C349 C 0.4742 0.63124 0.32357 0.0
C350 C 0.45797 0.63958 0.3755 0.0
C351 C 0.46932 0.66362 0.41141 0.0
N352 N 0.50092 0.64649 0.30778 0.0
C353 C 0.51218 0.6701 0.34271 0.0
Co354 Co 0.41186 0.09434 0.53312 0.0
Co355 Co 0.37757 0.02521 0.4867 0.0
O356 O 0.37847 0.06311 0.53571 0.0
C357 C 0.41142 0.0731 0.65804 0.0
O358 O 0.40603 0.04481 0.63836 0.0
C359 C 0.31971 0.05816 0.45046 0.0
O360 O 0.33607 0.084 0.44994 0.0
O361 O 0.38963 0.04883 0.41356 0.0
O362 O 0.41185 0.09342 0.44469 0.0
H363 H 0.41968 0.9494 0.33506 0.0
H364 H 0.35507 0.10671 0.6049 0.0
O365 O 0.41327 0.09594 0.62205 0.0
H366 H 0.35873 0.19051 0.45365 0.0
H367 H 0.46617 0.19256 0.59897 0.0
H368 H 0.47003 0.10206 0.46276 0.0
H369 H 0.39999 0.15052 0.45752 0.0
H370 H 0.42436 0.15314 0.60037 0.0
O371 O 0.33246 0.0326 0.46635 0.0
H372 H 0.42048 0.99669 0.39804 0.0
H373 H 0.33198 0.97339 0.47056 0.0
H374 H 0.51219 0.14105 0.45949 0.0
H375 H 0.31343 0.14637 0.60292 0.0
H376 H 0.51042 0.18671 0.52796 0.0
H377 H 0.31507 0.1886 0.52677 0.0
O378 O 0.44485 0.06167 0.5345 0.0
H379 H 0.31495 0.00599 0.67347 0.0
H380 H 0.39973 0.96657 0.54471 0.0
H381 H 0.38561 0.93775 0.63654 0.0
H382 H 0.3429 0.95744 0.7016 0.0
H383 H 0.33004 0.03421 0.58144 0.0
H384 H 0.33009 0.92598 0.40798 0.0
H385 H 0.37423 0.91369 0.33978 0.0
O386 O 0.42249 0.01689 0.50496 0.0
C387 C 0.40297 0.07487 0.40373 0.0
C388 C 0.40036 0.95445 0.36475 0.0
C389 C 0.35006 0.94133 0.40562 0.0
N390 N 0.37643 0.98765 0.43828 0.0
C391 C 0.40072 0.98114 0.40065 0.0
C392 C 0.35123 0.96823 0.44085 0.0
C393 C 0.37483 0.93444 0.36738 0.0
C394 C 0.35607 0.12518 0.572 0.0
N395 N 0.38 0.12641 0.53163 0.0
C396 C 0.33237 0.1475 0.57093 0.0
C397 C 0.33329 0.17117 0.52814 0.0
C398 C 0.35777 0.17224 0.48708 0.0
C399 C 0.38104 0.1495 0.48943 0.0
C400 C 0.46714 0.17283 0.56876 0.0
C401 C 0.46895 0.12201 0.49231 0.0
C402 C 0.44356 0.15042 0.56938 0.0
N403 N 0.44456 0.12553 0.53114 0.0
C404 C 0.49296 0.14394 0.49043 0.0
C405 C 0.49197 0.16953 0.5289 0.0
C406 C 0.44606 0.03268 0.52215 0.0
C407 C 0.33355 0.99714 0.64542 0.0
C408 C 0.38121 0.97533 0.57291 0.0
C409 C 0.37325 0.95887 0.62477 0.0
C410 C 0.34927 0.96992 0.66122 0.0
N411 N 0.36566 1.00199 0.55772 0.0
C412 C 0.34211 0.01295 0.59317 0.0
Co413 Co 0.91273 0.9049 0.78393 0.0
Co414 Co 0.98233 0.87104 0.73869 0.0
O415 O 0.94432 0.87184 0.78733 0.0
C416 C 0.93476 0.90631 0.90819 0.0
O417 O 0.96292 0.90082 0.88782 0.0
C418 C 0.9496 0.81304 0.70249 0.0
O419 O 0.92365 0.82924 0.70238 0.0
O420 O 0.95891 0.88327 0.66534 0.0
O421 O 0.91336 0.90392 0.69549 0.0
H422 H 0.05851 0.91341 0.58813 0.0
H423 H 0.9013 0.8489 0.85843 0.0
O424 O 0.91157 0.90738 0.87288 0.0
H425 H 0.81696 0.84975 0.70808 0.0
H426 H 0.81402 0.95872 0.84881 0.0
H427 H 0.90404 0.96221 0.7114 0.0
H428 H 0.85645 0.89149 0.70961 0.0
H429 H 0.85406 0.91748 0.85151 0.0
O430 O 0.97514 0.82594 0.71801 0.0
H431 H 0.01101 0.91409 0.65054 0.0
H432 H 0.03431 0.82555 0.72296 0.0
H433 H 0.86442 0.0038 0.70681 0.0
H434 H 0.86216 0.80681 0.85882 0.0
H435 H 0.81899 1.0022 0.77586 0.0
H436 H 0.81966 0.80703 0.78313 0.0
O437 O 0.94503 0.93827 0.78337 0.0
H438 H 1.0011 0.80828 0.92546 0.0
H439 H 0.04073 0.89321 0.79748 0.0
H440 H 0.06928 0.87906 0.88964 0.0
H441 H 0.04948 0.83628 0.95431 0.0
H442 H 0.97315 0.8234 0.83313 0.0
H443 H 0.08193 0.82379 0.66098 0.0
H444 H 0.09433 0.86801 0.59311 0.0
O445 O 0.99044 0.91594 0.75725 0.0
C446 C 0.9325 0.89579 0.65491 0.0
C447 C 0.05341 0.89406 0.61768 0.0
C448 C 0.06653 0.84374 0.6585 0.0
N449 N 0.02004 0.87001 0.6907 0.0
C450 C 0.02661 0.89435 0.65325 0.0
C451 C 0.03951 0.84483 0.6934 0.0
C452 C 0.07348 0.86856 0.62045 0.0
C453 C 0.8827 0.84929 0.82572 0.0
N454 N 0.88104 0.8727 0.7843 0.0
C455 C 0.86068 0.82534 0.826 0.0
C456 C 0.83687 0.82546 0.78347 0.0
C457 C 0.83535 0.84941 0.74133 0.0
C458 C 0.8578 0.87295 0.74235 0.0
C459 C 0.83364 0.95962 0.81834 0.0
C460 C 0.8842 0.96122 0.74123 0.0
C461 C 0.8564 0.93635 0.81969 0.0
N462 N 0.88115 0.93723 0.78109 0.0
C463 C 0.86191 0.9849 0.73859 0.0
C464 C 0.83645 0.98401 0.7774 0.0
C465 C 0.97418 0.93958 0.77246 0.0
C466 C 0.01 0.82691 0.89758 0.0
C467 C 0.03193 0.87465 0.8255 0.0
C468 C 0.04823 0.86668 0.87754 0.0
C469 C 0.03712 0.84266 0.91378 0.0
N470 N 0.00536 0.85907 0.80991 0.0
C471 C 0.99434 0.83549 0.84516 0.0
Co472 Co 0.59469 0.59752 0.78029 0.0
Co473 Co 0.62877 0.52811 0.82595 0.0
O474 O 0.6279 0.56609 0.77717 0.0
C475 C 0.59384 0.57571 0.65582 0.0
O476 O 0.59934 0.54751 0.67597 0.0
C477 C 0.68667 0.56103 0.86221 0.0
O478 O 0.67036 0.58692 0.86227 0.0
O479 O 0.61651 0.55158 0.8992 0.0
O480 O 0.59533 0.59683 0.86873 0.0
H481 H 0.58656 0.45201 0.9768 0.0
H482 H 0.65093 0.60931 0.70665 0.0
O483 O 0.59255 0.59879 0.69135 0.0
H484 H 0.64898 0.69355 0.85718 0.0
H485 H 0.54049 0.69593 0.71489 0.0
H486 H 0.53704 0.60583 0.85204 0.0
H487 H 0.60748 0.65381 0.85498 0.0
H488 H 0.58204 0.6562 0.71277 0.0
O489 O 0.67388 0.53545 0.84662 0.0
H490 H 0.58578 0.49943 0.91421 0.0
H491 H 0.67438 0.47626 0.84187 0.0
H492 H 0.49514 0.64514 0.85604 0.0
H493 H 0.69278 0.64871 0.70693 0.0
H494 H 0.49672 0.6906 0.78711 0.0
H495 H 0.692 0.69116 0.78271 0.0
O496 O 0.5615 0.56507 0.78025 0.0
H497 H 0.6916 0.50923 0.63926 0.0
H498 H 0.60669 0.46963 0.76736 0.0
H499 H 0.62091 0.441 0.67532 0.0
H500 H 0.66368 0.46078 0.61059 0.0
H501 H 0.67642 0.53726 0.73149 0.0
H502 H 0.67625 0.42872 0.90403 0.0
H503 H 0.63205 0.4163 0.97195 0.0
O504 O 0.58387 0.51986 0.80744 0.0
C505 C 0.60367 0.57786 0.90943 0.0
C506 C 0.60591 0.45712 0.94723 0.0
C507 C 0.65627 0.44407 0.90645 0.0
N508 N 0.62989 0.49047 0.87408 0.0
C509 C 0.60556 0.48388 0.91155 0.0
C510 C 0.65511 0.47105 0.87144 0.0
C511 C 0.63146 0.43711 0.94453 0.0
C512 C 0.6503 0.62788 0.7394 0.0
N513 N 0.62672 0.62938 0.78049 0.0
C514 C 0.67412 0.65005 0.7395 0.0
C515 C 0.67368 0.67384 0.78209 0.0
C516 C 0.64956 0.67518 0.8239 0.0
C517 C 0.62616 0.65259 0.8225 0.0
C518 C 0.53961 0.67629 0.74531 0.0
C519 C 0.53803 0.62569 0.82228 0.0
C520 C 0.56305 0.65371 0.7443 0.0
N521 N 0.56217 0.62893 0.78281 0.0
C522 C 0.51417 0.64781 0.82458 0.0
C523 C 0.51505 0.67329 0.78584 0.0
C524 C 0.56023 0.53597 0.79163 0.0
C525 C 0.67298 0.50034 0.66717 0.0
C526 C 0.62525 0.47842 0.73932 0.0
C527 C 0.63326 0.46208 0.68734 0.0
C528 C 0.65727 0.47318 0.65107 0.0
N529 N 0.64079 0.50503 0.75481 0.0
C530 C 0.66437 0.51604 0.71953 0.0
Co531 Co 0.40889 0.09989 0.03138 0.0
Co532 Co 0.47829 0.13445 0.07523 0.0
O533 O 0.43997 0.13335 0.02762 0.0
C534 C 0.43094 0.09864 0.90727 0.0
O535 O 0.45893 0.10461 0.9279 0.0
C536 C 0.44474 0.19172 0.11352 0.0
O537 O 0.41904 0.17515 0.11367 0.0
O538 O 0.45564 0.1213 0.14882 0.0
O539 O 0.40973 0.10099 0.11984 0.0
H540 H 0.55633 0.09249 0.22273 0.0
H541 H 0.39648 0.15561 0.95663 0.0
O542 O 0.40767 0.09727 0.94239 0.0
H543 H 0.31245 0.15383 0.10759 0.0
H544 H 0.31089 0.04468 0.96724 0.0
H545 H 0.40108 0.04259 0.10432 0.0
H546 H 0.35259 0.11266 0.10607 0.0
H547 H 0.35032 0.08645 0.96415 0.0
O548 O 0.47041 0.1793 0.09723 0.0
H549 H 0.5084 0.09137 0.16163 0.0
H550 H 0.52953 0.18073 0.09061 0.0
H551 H 0.36207 1.00049 0.1093 0.0
H552 H 0.35667 0.19714 0.95623 0.0
H553 H 0.31656 1.00138 0.04042 0.0
H554 H 0.31433 0.19643 0.03222 0.0
O555 O 0.44162 0.06692 0.03191 0.0
H556 H 0.4946 0.19875 0.88957 0.0
H557 H 0.53659 0.11358 0.01425 0.0
H558 H 0.5642 0.12879 0.92167 0.0
H559 H 0.54321 0.17169 0.85865 0.0
H560 H 0.46761 0.18259 0.9823 0.0
H561 H 0.57756 0.18294 0.15133 0.0
H562 H 0.59127 0.13853 0.21781 0.0
O563 O 0.48709 0.0898 0.05545 0.0
C564 C 0.42931 0.10877 0.1599 0.0
C565 C 0.55066 0.11193 0.19378 0.0
C566 C 0.56255 0.16272 0.15376 0.0
N567 N 0.51631 0.13584 0.12224 0.0
C568 C 0.5236 0.11139 0.15894 0.0
C569 C 0.5353 0.16136 0.11958 0.0
C570 C 0.57024 0.13779 0.19104 0.0
C571 C 0.37796 0.15502 -0.01052 0.0
N572 N 0.37674 0.13167 0.03106 0.0
C573 C 0.35556 0.17865 -0.01081 0.0
C574 C 0.33183 0.17826 0.03189 0.0
C575 C 0.33077 0.15437 0.07422 0.0
C576 C 0.35359 0.13116 0.0732 0.0
C577 C 0.33055 0.04409 -0.00235 0.0
C578 C 0.3812 0.04328 0.07456 0.0
C579 C 0.35296 0.06766 -0.00392 0.0
N580 N 0.37776 0.06716 0.03457 0.0
C581 C 0.35925 0.01931 0.07742 0.0
C582 C 0.33375 0.0198 0.03872 0.0
C583 C 0.47091 0.06594 0.04141 0.0
C584 C 0.50402 0.18008 0.91673 0.0
C585 C 0.52728 0.13221 -0.01302 0.0
C586 C 0.54305 0.14077 0.93468 0.0
C587 C 0.53127 0.16485 0.89936 0.0
N588 N 0.50059 0.14728 0.00372 0.0
C589 C 0.48891 0.17092 0.96937 0.0
Co590 Co 0.91204 0.90788 0.28176 0.0
Co591 Co 0.87746 0.97691 0.32823 0.0
O592 O 0.87856 0.93905 0.27908 0.0
C593 C 0.91242 0.92978 0.15731 0.0
O594 O 0.90677 0.95793 0.17753 0.0
C595 C 0.81962 0.9438 0.36434 0.0
O596 O 0.83595 0.91793 0.36466 0.0
O597 O 0.88971 0.95327 0.40126 0.0
O598 O 0.91161 0.90846 0.37022 0.0
H599 H 0.91916 0.05272 0.48017 0.0
H600 H 0.8557 0.89571 0.20863 0.0
O601 O 0.91397 0.90669 0.1928 0.0
H602 H 0.85878 0.81129 0.35865 0.0
H603 H 0.96691 0.81001 0.21534 0.0
H604 H 0.96993 0.89997 0.35294 0.0
H605 H 0.89992 0.8514 0.35629 0.0
H606 H 0.92501 0.84938 0.21386 0.0
O607 O 0.83238 0.96937 0.3486 0.0
H608 H 0.92021 0.00549 0.41702 0.0
H609 H 0.83162 0.02856 0.34449 0.0
H610 H 0.01219 0.86103 0.35631 0.0
H611 H 0.8142 0.85594 0.20909 0.0
H612 H 0.01083 0.81564 0.28715 0.0
H613 H 0.81556 0.81339 0.28461 0.0
O614 O 0.94497 0.94059 0.28152 0.0
H615 H 0.81475 0.996 0.1415 0.0
H616 H 0.89928 0.0357 0.2704 0.0
H617 H 0.88501 0.06452 0.17865 0.0
H618 H 0.84243 0.0447 0.11352 0.0
H619 H 0.82999 0.96778 0.23345 0.0
H620 H 0.82949 0.07589 0.40724 0.0
H621 H 0.87354 0.08827 0.47553 0.0
O622 O 0.92231 0.98543 0.30998 0.0
C623 C 0.9029 0.92714 0.41116 0.0
C624 C 0.89987 0.04763 0.45044 0.0
C625 C 0.84952 0.06061 0.40957 0.0
N626 N 0.87612 0.01442 0.37677 0.0
C627 C 0.90038 0.02098 0.41444 0.0
C628 C 0.85083 0.03375 0.37424 0.0
C629 C 0.87425 0.06755 0.44786 0.0
C630 C 0.85658 0.8771 0.24128 0.0
N631 N 0.88027 0.87576 0.28213 0.0
C632 C 0.83296 0.85472 0.24147 0.0
C633 C 0.83371 0.83088 0.28391 0.0
C634 C 0.85795 0.82969 0.32549 0.0
C635 C 0.88114 0.8525 0.324 0.0
C636 C 0.9677 0.82962 0.24587 0.0
C637 C 0.96904 0.88013 0.32309 0.0
C638 C 0.94405 0.85199 0.2452 0.0
N639 N 0.94482 0.87673 0.28384 0.0
C640 C 0.99309 0.85823 0.32503 0.0
C641 C 0.99234 0.83279 0.28616 0.0
C642 C 0.94602 0.96963 0.29351 0.0
C643 C 0.83329 0.00491 0.16958 0.0
C644 C 0.88081 0.02687 0.24218 0.0
C645 C 0.87278 0.04334 0.19037 0.0
C646 C 0.84886 0.03221 0.15387 0.0
N647 N 0.86541 1.00014 0.25729 0.0
C648 C 0.84193 0.9891 0.22179 0.0
Co649 Co 0.0989 0.40502 0.53292 0.0
Co650 Co 0.0288 0.3712 0.57477 0.0
O651 O 0.06777 0.37163 0.52912 0.0
C652 C 0.07832 0.40492 0.40796 0.0
O653 O 0.05014 0.39914 0.42784 0.0
C654 C 0.06154 0.31417 0.6169 0.0
O655 O 0.0873 0.33063 0.61797 0.0
O656 O 0.05048 0.3852 0.64891 0.0
O657 O 0.09688 0.40495 0.62133 0.0
H658 H 0.94884 0.41516 0.71621 0.0
H659 H 0.11206 0.34843 0.46105 0.0
O660 O 0.10123 0.40667 0.44387 0.0
H661 H 0.194 0.35155 0.61613 0.0
H662 H 0.19797 0.45906 0.47124 0.0
H663 H 0.10609 0.46308 0.60395 0.0
H664 H 0.15412 0.39288 0.61084 0.0
H665 H 0.15834 0.41748 0.4679 0.0
O666 O 0.03617 0.32658 0.59895 0.0
H667 H 0.99766 0.41538 0.65775 0.0
H668 H 0.97717 0.3253 0.58937 0.0
H669 H 0.14526 0.50502 0.60913 0.0
H670 H 0.15164 0.30672 0.46442 0.0
H671 H 0.19163 0.50315 0.54246 0.0
H672 H 0.19293 0.30809 0.54251 0.0
O673 O 0.06631 0.43815 0.53066 0.0
H674 H 0.01486 0.30478 0.39113 0.0
H675 H 0.97148 0.39157 0.50984 0.0
H676 H 0.94515 0.37538 0.41648 0.0
H677 H 0.96684 0.33167 0.35647 0.0
H678 H 0.04058 0.32194 0.48452 0.0
H679 H 0.92824 0.324 0.64748 0.0
H680 H 0.91376 0.36922 0.71129 0.0
O681 O 0.02047 0.41562 0.55275 0.0
C682 C 0.07667 0.39786 0.66073 0.0
C683 C 0.95485 0.39536 0.68841 0.0
C684 C 0.94331 0.34418 0.6499 0.0
N685 N 0.99013 0.37049 0.61983 0.0
C686 C 0.98241 0.39539 0.65507 0.0
C687 C 0.97107 0.34502 0.6172 0.0
C688 C 0.93519 0.36956 0.68568 0.0
C689 C 0.13014 0.34931 0.49479 0.0
N690 N 0.13091 0.37313 0.53544 0.0
C691 C 0.1524 0.32558 0.49664 0.0
C692 C 0.17554 0.32634 0.54051 0.0
C693 C 0.17615 0.35071 0.58186 0.0
C694 C 0.15347 0.37402 0.5787 0.0
C695 C 0.17793 0.46008 0.50068 0.0
C696 C 0.12632 0.46198 0.57514 0.0
C697 C 0.1554 0.43662 0.49895 0.0
N698 N 0.13012 0.43766 0.53624 0.0
C699 C 0.14837 0.48585 0.57812 0.0
C700 C 0.17436 0.48481 0.54065 0.0
C701 C 0.03691 0.43931 0.53874 0.0
C702 C 0.00513 0.32381 0.41697 0.0
C703 C 0.98109 0.37259 0.48388 0.0
C704 C 0.96605 0.36348 0.43114 0.0
C705 C 0.97822 0.33893 0.39751 0.0
N706 N 0.00746 0.35762 0.50268 0.0
C707 C 0.01952 0.33353 0.46999 0.0
Co708 Co 0.59997 0.90841 0.53268 0.0
Co709 Co 0.63458 0.97779 0.48884 0.0
O710 O 0.63346 0.93946 0.53642 0.0
C711 C 0.59879 0.9304 0.65684 0.0
O712 O 0.60476 0.95839 0.63626 0.0
C713 C 0.6919 0.94432 0.45053 0.0
O714 O 0.67537 0.9186 0.45018 0.0
O715 O 0.62145 0.95514 0.41522 0.0
O716 O 0.601 0.9093 0.44422 0.0
H717 H 0.59264 0.0558 0.34128 0.0
H718 H 0.65574 0.89592 0.60727 0.0
O719 O 0.5974 0.90715 0.62168 0.0
H720 H 0.65378 0.81199 0.45609 0.0
H721 H 0.54473 0.81042 0.59669 0.0
H722 H 0.54259 0.9007 0.45987 0.0
H723 H 0.61264 0.85216 0.45782 0.0
H724 H 0.58653 0.84982 0.59979 0.0
O725 O 0.67943 0.96994 0.46693 0.0
H726 H 0.59151 0.00788 0.40238 0.0
H727 H 0.68084 0.02905 0.47358 0.0
H728 H 0.50046 0.86172 0.45488 0.0
H729 H 0.69724 0.85609 0.60747 0.0
H730 H 0.50138 0.81616 0.52363 0.0
H731 H 0.69644 0.81379 0.53137 0.0
O732 O 0.56701 0.94117 0.5323 0.0
H733 H 0.69881 0.99408 0.67462 0.0
H734 H 0.6137 0.03609 0.54981 0.0
H735 H 0.62888 0.06369 0.64243 0.0
H736 H 0.67175 0.04268 0.70551 0.0
H737 H 0.68268 0.9671 0.58186 0.0
H738 H 0.68306 0.07707 0.41287 0.0
H739 H 0.63867 0.09076 0.3463 0.0
O740 O 0.58993 0.98658 0.50856 0.0
C741 C 0.60884 0.92885 0.40415 0.0
C742 C 0.61208 0.05014 0.37028 0.0
C743 C 0.66284 0.06206 0.4104 0.0
N744 N 0.63597 0.01582 0.44186 0.0
C745 C 0.61153 0.02309 0.40511 0.0
C746 C 0.66148 0.03481 0.44457 0.0
C747 C 0.63793 0.06973 0.37306 0.0
C748 C 0.65511 0.87742 0.57437 0.0
N749 N 0.63172 0.87625 0.53284 0.0
C750 C 0.67872 0.85501 0.57455 0.0
C751 C 0.67828 0.8313 0.53178 0.0
C752 C 0.65436 0.83029 0.48952 0.0
C753 C 0.63117 0.85312 0.49065 0.0
C754 C 0.54413 0.8301 0.56634 0.0
C755 C 0.54329 0.8808 0.48957 0.0
C756 C 0.56772 0.8525 0.56792 0.0
N757 N 0.56721 0.87732 0.52949 0.0
C758 C 0.51931 0.85887 0.48671 0.0
C759 C 0.51981 0.83334 0.52534 0.0
C760 C 0.56606 0.97045 0.52273 0.0
C761 C 0.68015 0.0035 0.64743 0.0
C762 C 0.63231 0.02678 0.57711 0.0
C763 C 0.64086 0.04254 0.62943 0.0
C764 C 0.66493 0.03075 0.66478 0.0
N765 N 0.64738 1.00009 0.56039 0.0
C766 C 0.67101 0.9884 0.59477 0.0
Co767 Co 0.09708 0.09428 0.78481 0.0
Co768 Co 0.02788 0.12859 0.73862 0.0
O769 O 0.06572 0.12757 0.78778 0.0
C770 C 0.0751 0.09357 0.90921 0.0
O771 O 0.04693 0.09909 0.88897 0.0
C772 C 0.061 0.18649 0.70319 0.0
O773 O 0.08685 0.17012 0.70319 0.0
O774 O 0.05154 0.11649 0.66553 0.0
O775 O 0.09654 0.09492 0.69636 0.0
H776 H 0.95215 0.08682 0.58659 0.0
H777 H 0.1089 0.15051 0.85848 0.0
O778 O 0.09822 0.09217 0.87375 0.0
H779 H 0.19341 0.14827 0.70852 0.0
H780 H 0.19521 0.03979 0.85088 0.0
H781 H 0.10534 0.03662 0.71311 0.0
H782 H 0.15354 0.10689 0.71049 0.0
H783 H 0.15561 0.08147 0.8527 0.0
O784 O 0.03534 0.17372 0.71843 0.0
H785 H 0.99939 0.08583 0.64971 0.0
H786 H 0.97613 0.17432 0.7225 0.0
H787 H 0.14451 0.99459 0.70939 0.0
H788 H 0.14843 0.19225 0.85842 0.0
H789 H 0.18986 0.99602 0.77864 0.0
H790 H 0.19101 0.19132 0.78292 0.0
O791 O 0.06453 0.06121 0.78469 0.0
H792 H 0.00851 0.19103 0.92562 0.0
H793 H 0.96918 0.10647 0.79636 0.0
H794 H 0.94028 0.12054 0.88817 0.0
H795 H 0.95992 0.16313 0.95348 0.0
H796 H 0.03681 0.17601 0.8336 0.0
H797 H 0.92878 0.17639 0.6598 0.0
H798 H 0.91649 0.13235 0.59139 0.0
O799 O 0.0195 0.08366 0.75668 0.0
C800 C 0.07777 0.10351 0.65551 0.0
C801 C 0.9572 0.1061 0.61637 0.0
C802 C 0.94411 0.15639 0.6574 0.0
N803 N 0.99036 0.12987 0.69009 0.0
C804 C 0.98386 0.10563 0.65235 0.0
C805 C 0.97098 0.15512 0.6927 0.0
C806 C 0.93722 0.13167 0.61904 0.0
C807 C 0.12753 0.14982 0.82586 0.0
N808 N 0.12903 0.12622 0.78479 0.0
C809 C 0.14977 0.17357 0.82588 0.0
C810 C 0.17363 0.17305 0.78346 0.0
C811 C 0.17498 0.14891 0.74167 0.0
C812 C 0.15231 0.12558 0.74294 0.0
C813 C 0.17562 0.03897 0.82031 0.0
C814 C 0.12515 0.03755 0.74299 0.0
C815 C 0.15312 0.06249 0.82117 0.0
N816 N 0.1284 0.06168 0.78249 0.0
C817 C 0.14719 0.01362 0.74086 0.0
C818 C 0.17261 0.01441 0.77977 0.0
C819 C 0.03549 0.06 0.77282 0.0
C820 C 0.99968 0.17249 0.89745 0.0
C821 C 0.97792 0.12495 0.82466 0.0
C822 C 0.96142 0.13287 0.8765 0.0
C823 C 0.97244 0.15679 0.9131 0.0
N824 N 0.00459 0.14048 0.80961 0.0
C825 C 0.01554 0.16397 0.84521 0.0
Co826 Co 0.90487 0.59847 0.03378 0.0
Co827 Co 0.87116 0.52834 -0.00816 0.0
O828 O 0.87152 0.56729 0.03751 0.0
C829 C 0.90475 0.57784 0.15872 0.0
O830 O 0.89899 0.54967 0.13881 0.0
C831 C 0.8142 0.56112 0.94955 0.0
O832 O 0.83069 0.58686 0.9487 0.0
O833 O 0.88523 0.55002 0.91777 0.0
O834 O 0.90481 0.59648 0.94537 0.0
H835 H 0.91531 0.44838 0.85059 0.0
H836 H 0.84825 0.61152 0.10564 0.0
O837 O 0.90651 0.60076 0.12283 0.0
H838 H 0.85127 0.69352 0.95072 0.0
H839 H 0.9588 0.69756 0.0957 0.0
H840 H 0.96293 0.60576 0.96278 0.0
H841 H 0.89267 0.6537 0.95597 0.0
H842 H 0.91725 0.65788 0.09893 0.0
O843 O 0.82655 0.53572 0.96745 0.0
H844 H 0.91544 0.49721 0.90905 0.0
H845 H 0.82528 0.47671 0.977 0.0
H846 H 0.00483 0.64498 0.95772 0.0
H847 H 0.80648 0.65103 0.10232 0.0
H848 H 1.00291 0.6913 0.0245 0.0
H849 H 0.80781 0.69235 0.02431 0.0
O850 O 0.93804 0.56592 0.03599 0.0
H851 H 0.80453 0.51433 0.17517 0.0
H852 H 0.89151 0.47105 0.05685 0.0
H853 H 0.87523 0.4447 0.15011 0.0
H854 H 0.83142 0.46634 0.20993 0.0
H855 H 0.82178 0.54007 0.08187 0.0
H856 H 0.82405 0.42779 0.91889 0.0
H857 H 0.86936 0.4133 0.8553 0.0
O858 O 0.91559 0.52003 0.01403 0.0
C859 C 0.89781 0.57624 0.90597 0.0
C860 C 0.89547 0.45439 0.8783 0.0
C861 C 0.84423 0.44285 0.91657 0.0
N862 N 0.87051 0.48967 0.94676 0.0
C863 C 0.89545 0.48196 0.91163 0.0
C864 C 0.84503 0.47061 0.94927 0.0
C865 C 0.86967 0.43473 0.88091 0.0
C866 C 0.84911 0.62961 0.07194 0.0
N867 N 0.87294 0.63043 0.03131 0.0
C868 C 0.82535 0.65184 0.07012 0.0
C869 C 0.82608 0.67499 0.02629 0.0
C870 C 0.85046 0.67565 0.98496 0.0
C871 C 0.8738 0.65302 -0.01191 0.0
C872 C 0.95984 0.67754 0.06622 0.0
C873 C 0.9618 0.62598 -0.00836 0.0
C874 C 0.9364 0.65498 0.06788 0.0
N875 N 0.93747 0.62973 0.03053 0.0
C876 C 0.98566 0.64805 -0.01127 0.0
C877 C 0.98458 0.67401 0.02626 0.0
C878 C 0.93925 0.53652 0.02799 0.0
C879 C 0.8236 0.50463 0.14942 0.0
C880 C 0.87248 0.48063 0.08272 0.0
C881 C 0.86332 0.46558 0.13541 0.0
C882 C 0.83872 0.47773 0.16893 0.0
N883 N 0.85751 0.50699 0.06386 0.0
C884 C 0.83337 0.51903 0.09645 0.0
Co885 Co 0.40731 0.4115 0.28336 0.0
Co886 Co 0.47656 0.37717 0.23735 0.0
O887 O 0.43857 0.3781 0.28615 0.0
C888 C 0.42903 0.41196 0.40791 0.0
O889 O 0.45722 0.40635 0.3878 0.0
C890 C 0.44368 0.31932 0.20041 0.0
O891 O 0.41776 0.33558 0.19998 0.0
O892 O 0.45309 0.38957 0.16418 0.0
O893 O 0.40805 0.41111 0.19492 0.0
H894 H 0.5527 0.41935 0.08654 0.0
H895 H 0.39518 0.35511 0.35634 0.0
O896 O 0.40598 0.4134 0.37233 0.0
H897 H 0.31102 0.35796 0.20571 0.0
H898 H 0.30912 0.46599 0.34921 0.0
H899 H 0.39934 0.46941 0.21228 0.0
H900 H 0.35099 0.39922 0.20842 0.0
H901 H 0.34864 0.42423 0.3509 0.0
O902 O 0.46917 0.33212 0.21651 0.0
H903 H 0.5053 0.42017 0.14921 0.0
H904 H 0.52835 0.33148 0.22125 0.0
H905 H 0.36025 0.51152 0.20872 0.0
H906 H 0.35554 0.31348 0.35554 0.0
H907 H 0.31473 0.50997 0.27754 0.0
H908 H 0.31312 0.31473 0.27971 0.0
O909 O 0.43993 0.44453 0.28384 0.0
H910 H 0.49525 0.31407 0.42373 0.0
H911 H 0.53515 0.39897 0.29599 0.0
H912 H 0.56375 0.38455 0.38793 0.0
H913 H 0.54381 0.34178 0.45247 0.0
H914 H 0.46725 0.32947 0.33161 0.0
H915 H 0.57586 0.32957 0.15899 0.0
H916 H 0.58834 0.37379 0.09119 0.0
O917 O 0.48494 0.42198 0.25606 0.0
C918 C 0.42691 0.40265 0.15411 0.0
C919 C 0.54757 0.39999 0.11606 0.0
C920 C 0.56054 0.34958 0.15666 0.0
N921 N 0.5142 0.37601 0.18919 0.0
C922 C 0.52082 0.40036 0.15178 0.0
C923 C 0.53358 0.35076 0.19172 0.0
C924 C 0.56754 0.3744 0.11864 0.0
C925 C 0.37663 0.35593 0.32356 0.0
N926 N 0.37529 0.37964 0.28273 0.0
C927 C 0.35432 0.33225 0.32317 0.0
C928 C 0.33055 0.33294 0.28056 0.0
C929 C 0.32937 0.35718 0.23901 0.0
C930 C 0.3521 0.38044 0.24069 0.0
C931 C 0.32879 0.46687 0.31883 0.0
C932 C 0.37945 0.46843 0.24198 0.0
C933 C 0.35125 0.44331 0.31961 0.0
N934 N 0.37606 0.44418 0.28116 0.0
C935 C 0.35746 0.4924 0.23993 0.0
C936 C 0.33195 0.49154 0.27861 0.0
C937 C 0.46901 0.44566 0.27227 0.0
C938 C 0.5042 0.3327 0.3959 0.0
C939 C 0.52628 0.38042 0.32396 0.0
C940 C 0.54261 0.3723 0.37588 0.0
C941 C 0.53143 0.34828 0.41205 0.0
N942 N 0.49962 0.365 0.30842 0.0
C943 C 0.48852 0.34143 0.3436 0.0
C944 C 0.27116 0.03008 0.41861 0.0
C945 C 0.28687 0.05828 0.42941 0.0
H946 H 0.22923 0.00786 0.38917 0.0
C947 C 0.27115 0.08647 0.41823 0.0
H948 H 0.28257 0.00793 0.42639 0.0
C949 C 0.2404 0.08642 0.39701 0.0
C950 C 0.22477 0.0582 0.38592 0.0
H951 H 0.28256 0.10861 0.42602 0.0
H952 H 0.22893 0.10854 0.38911 0.0
C953 C 0.24057 0.03004 0.39688 0.0
C954 C 0.92144 0.7642 0.67164 0.0
C955 C 0.94959 0.78015 0.6817 0.0
H956 H 0.89945 0.72176 0.64373 0.0
C957 C 0.97783 0.76459 0.67014 0.0
H958 H 0.89928 0.77548 0.68004 0.0
C959 C 0.97792 0.73393 0.64875 0.0
C960 C 0.94979 0.71792 0.63892 0.0
H961 H 0.99995 0.77618 0.67708 0.0
H962 H 1.00011 0.7227 0.64041 0.0
C963 C 0.92154 0.7334 0.65077 0.0
C964 C 0.26478 0.47858 0.89609 0.0
C965 C 0.2804 0.45038 0.88455 0.0
H966 H 0.22285 0.50078 0.92591 0.0
C967 C 0.26453 0.4222 0.89474 0.0
H968 H 0.27632 0.50073 0.88906 0.0
C969 C 0.23374 0.42224 0.91571 0.0
C970 C 0.2182 0.45045 0.92754 0.0
H971 H 0.27585 0.40006 0.88636 0.0
H972 H 0.22217 0.40012 0.92283 0.0
C973 C 0.23413 0.47861 0.91759 0.0
C974 C 0.58584 0.77062 0.14592 0.0
C975 C 0.55771 0.78643 0.13471 0.0
H976 H 0.60777 0.72835 0.17509 0.0
C977 C 0.52945 0.7708 0.14547 0.0
H978 H 0.60802 0.78196 0.13817 0.0
C979 C 0.52931 0.74022 0.1672 0.0
C980 C 0.55742 0.72434 0.17821 0.0
H981 H 0.50733 0.78229 0.13765 0.0
H982 H 0.50709 0.72894 0.17489 0.0
C983 C 0.5857 0.73988 0.16715 0.0
C984 C 0.73512 0.533 0.89523 0.0
C985 C 0.71951 0.56116 0.88339 0.0
H986 H 0.77692 0.51088 0.9259 0.0
C987 C 0.7353 0.58937 0.89373 0.0
H988 H 0.72365 0.51083 0.88809 0.0
C989 C 0.766 0.5894 0.91523 0.0
C990 C 0.78151 0.56122 0.92749 0.0
H991 H 0.72399 0.61149 0.88511 0.0
H992 H 0.7775 0.61154 0.92255 0.0
C993 C 0.76567 0.53303 0.91727 0.0
C994 C 0.41571 0.27065 0.16773 0.0
C995 C 0.44378 0.28651 0.17906 0.0
H996 H 0.39393 0.22836 0.13826 0.0
C997 C 0.47209 0.27097 0.16815 0.0
H998 H 0.39348 0.28192 0.17558 0.0
C999 C 0.47235 0.24043 0.14618 0.0
C1000 C 0.44431 0.22449 0.13508 0.0
H1001 H 0.49417 0.28249 0.17604 0.0
H1002 H 0.49462 0.22923 0.13839 0.0
C1003 C 0.41597 0.23994 0.14627 0.0
C1004 C 0.77114 0.97199 0.3965 0.0
C1005 C 0.78677 0.94375 0.38545 0.0
H1006 H 0.72929 0.99433 0.42622 0.0
C1007 C 0.77097 0.91561 0.39644 0.0
H1008 H 0.78261 0.99411 0.38887 0.0
C1009 C 0.74023 0.91574 0.41773 0.0
C1010 C 0.72469 0.94401 0.42908 0.0
H1011 H 0.78232 0.89344 0.38846 0.0
H1012 H 0.7287 0.89366 0.4255 0.0
C1013 C 0.74056 0.97212 0.4183 0.0
C1014 C 0.08967 0.26586 0.65108 0.0
C1015 C 0.06155 0.28146 0.63875 0.0
H1016 H 0.11161 0.22373 0.68101 0.0
C1017 C 0.0333 0.26566 0.64864 0.0
H1018 H 0.11185 0.27733 0.64401 0.0
C1019 C 0.03315 0.23508 0.67042 0.0
C1020 C 0.06126 0.21937 0.68232 0.0
H1021 H 0.01118 0.27698 0.63995 0.0
H1022 H 0.01094 0.22364 0.6773 0.0
C1023 C 0.08953 0.23512 0.67233 0.0
C1024 C 0.0334 0.98338 0.28875 0.0
C1025 C 0.03521 0.01609 0.29012 0.0
H1026 H 0.00403 0.94312 0.28787 0.0
C1027 C 0.00735 0.0334 0.29026 0.0
H1028 H 0.05435 0.96929 0.28852 0.0
C1029 C 0.97843 0.01837 0.29064 0.0
C1030 C 0.97663 0.98565 0.28996 0.0
H1031 H 0.00781 0.05862 0.29153 0.0
H1032 H 0.9575 0.03245 0.29193 0.0
C1033 C 0.00448 0.96835 0.28822 0.0
C1034 C 0.9737 0.50114 0.53061 0.0
C1035 C 0.99108 0.52884 0.53513 0.0
H1036 H 0.97439 0.45127 0.52854 0.0
C1037 C 0.02377 0.5268 0.53751 0.0
H1038 H 0.94848 0.50176 0.52879 0.0
C1039 C 0.03866 0.49779 0.53657 0.0
C1040 C 0.02121 0.47006 0.53416 0.0
H1041 H 0.03792 0.54761 0.54091 0.0
H1042 H 0.06384 0.49714 0.53954 0.0
C1043 C 0.98856 0.47211 0.53059 0.0
C1044 C 0.47268 0.52321 0.78789 0.0
C1045 C 0.4705 0.49052 0.78856 0.0
H1046 H 0.50251 0.56313 0.78744 0.0
C1047 C 0.49816 0.47289 0.78789 0.0
H1048 H 0.45191 0.53755 0.7883 0.0
C1049 C 0.52726 0.48759 0.78816 0.0
C1050 C 0.52944 0.52029 0.78817 0.0
H1051 H 0.49741 0.44767 0.7886 0.0
H1052 H 0.54804 0.47327 0.78881 0.0
C1053 C 0.50177 0.5379 0.78724 0.0
C1054 C 0.53434 0.00419 0.0354 0.0
C1055 C 0.51691 0.97644 0.03805 0.0
H1056 H 0.53363 0.05407 0.03482 0.0
C1057 C 0.48421 0.97846 0.03936 0.0
H1058 H 0.55957 0.00356 0.03453 0.0
C1059 C 0.46933 0.00746 0.03878 0.0
C1060 C 0.48676 0.03522 0.03778 0.0
H1061 H 0.47003 0.95763 0.04135 0.0
H1062 H 0.44411 0.00807 0.04059 0.0
C1063 C 0.51946 0.03321 0.03572 0.0
C1064 C 0.0268 0.52367 0.02926 0.0
C1065 C 0.02896 0.49099 0.03153 0.0
H1066 H 0.997 0.56363 0.02737 0.0
C1067 C 1.00131 0.4735 0.03593 0.0
H1068 H 0.04755 0.5379 0.02596 0.0
C1069 C 0.97223 0.48826 0.03597 0.0
C1070 C 0.97006 0.52091 0.03253 0.0
H1071 H 1.00203 0.44829 0.03765 0.0
H1072 H 0.95143 0.47401 0.03794 0.0
C1073 C 0.99774 0.53845 0.03023 0.0
C1074 C 0.51766 0.47817 0.27586 0.0
C1075 C 0.48494 0.47631 0.27591 0.0
H1076 H 0.55787 0.50761 0.27533 0.0
C1077 C 0.46758 0.50413 0.27696 0.0
H1078 H 0.53179 0.45726 0.27514 0.0
C1079 C 0.48256 0.53308 0.27629 0.0
C1080 C 0.51528 0.53494 0.27549 0.0
H1081 H 0.44235 0.50362 0.27681 0.0
H1082 H 0.46844 0.55399 0.27593 0.0
C1083 C 0.53264 0.50711 0.27612 0.0
C1084 C 0.47862 0.984 0.52477 0.0
C1085 C 0.4767 0.01671 0.52607 0.0
H1086 H 0.5081 0.94381 0.52357 0.0
C1087 C 0.5045 0.03404 0.52874 0.0
H1088 H 0.45774 0.96988 0.52277 0.0
C1089 C 0.53348 0.01907 0.52845 0.0
C1090 C 0.53538 0.98637 0.52639 0.0
H1091 H 0.50396 0.05927 0.52961 0.0
H1092 H 0.55438 0.03318 0.52936 0.0
C1093 C 0.50757 0.96902 0.52538 0.0
C1094 C 0.98701 0.02714 0.77554 0.0
C1095 C 0.01971 0.02925 0.77618 0.0
H1096 H 0.94703 0.99736 0.77472 0.0
C1097 C 0.03727 1.00156 0.77781 0.0
H1098 H 0.97273 0.04794 0.77434 0.0
C1099 C 0.02253 0.9725 0.77727 0.0
C1100 C 0.98983 0.97038 0.77601 0.0
H1101 H 0.0625 1.00224 0.77813 0.0
H1102 H 0.03682 0.9517 0.77746 0.0
C1103 C 0.97225 0.99807 0.77592 0.0
C1104 C 0.07239 0.11309 0.54578 0.0
C1105 C 0.08685 0.09724 0.59317 0.0
H1106 H 0.06856 0.11864 0.45108 0.0
C1107 C 0.1097 0.07465 0.58055 0.0
H1108 H 0.05492 0.13079 0.55426 0.0
C1109 C 0.11719 0.0673 0.52147 0.0
C1110 C 0.10239 0.08282 0.47404 0.0
H1111 H 0.12136 0.06211 0.61621 0.0
H1112 H 0.13446 0.0494 0.513 0.0
C1113 C 0.0803 0.10615 0.48672 0.0
C1114 C 0.93676 0.61291 0.77178 0.0
C1115 C 0.92487 0.59473 0.72487 0.0
H1116 H 0.93685 0.62184 0.8658 0.0
C1117 C 0.90334 0.57094 0.7376 0.0
H1118 H 0.95312 0.63159 0.76306 0.0
C1119 C 0.89424 0.56507 0.79644 0.0
C1120 C 0.90615 0.58321 0.84346 0.0
H1121 H 0.89375 0.55657 0.7022 0.0
H1122 H 0.87793 0.54633 0.805 0.0
C1123 C 0.92725 0.60739 0.83053 0.0
C1124 C 0.39518 0.43192 0.07944 0.0
C1125 C 0.41802 0.40929 0.09181 0.0
H1126 H 0.37056 0.45752 0.01219 0.0
C1127 C 0.43269 0.39378 0.04421 0.0
H1128 H 0.38337 0.44422 0.11525 0.0
C1129 C 0.42494 0.40107 0.98523 0.0
C1130 C 0.40282 0.42441 0.97284 0.0
H1131 H 0.45018 0.37607 0.05247 0.0
H1132 H 0.43681 0.38882 0.94943 0.0
C1133 C 0.38786 0.43962 0.02045 0.0
C1134 C 0.61508 0.93772 0.29432 0.0
C1135 C 0.60154 0.92096 0.34159 0.0
H1136 H 0.61743 0.94473 0.19977 0.0
C1137 C 0.5798 0.89735 0.32872 0.0
H1138 H 0.632 0.95592 0.30288 0.0
C1139 C 0.57102 0.8913 0.26976 0.0
C1140 C 0.58427 0.90834 0.22261 0.0
H1141 H 0.56901 0.88393 0.3642 0.0
H1142 H 0.55392 0.87328 0.26113 0.0
C1143 C 0.60671 0.93128 0.2353 0.0
C1144 C 0.06554 0.39424 0.77029 0.0
C1145 C 0.08364 0.4062 0.72325 0.0
H1146 H 0.05707 0.39373 0.86454 0.0
C1147 C 0.10775 0.42738 0.73616 0.0
H1148 H 0.04685 0.37787 0.76173 0.0
C1149 C 0.11324 0.43691 0.7949 0.0
C1150 C 0.09511 0.42498 0.84182 0.0
H1151 H 0.12217 0.43701 0.70089 0.0
H1152 H 0.13188 0.45334 0.8036 0.0
C1153 C 0.0714 0.40337 0.82912 0.0
C1154 C 0.60518 0.57941 0.07834 0.0
C1155 C 0.58214 0.60182 0.09087 0.0
H1156 H 0.62988 0.554 0.01091 0.0
C1157 C 0.56718 0.61712 0.04338 0.0
H1158 H 0.61723 0.56728 0.11406 0.0
C1159 C 0.57483 0.60984 0.98434 0.0
C1160 C 0.59715 0.58672 0.9718 0.0
H1161 H 0.54953 0.63465 0.05176 0.0
H1162 H 0.56273 0.62192 0.94862 0.0
C1163 C 0.61242 0.57172 0.0193 0.0
C1164 C 0.39172 0.07108 0.29437 0.0
C1165 C 0.40881 0.08431 0.34148 0.0
H1166 H 0.3843 0.06907 0.19993 0.0
C1167 C 0.4318 0.10669 0.32874 0.0
H1168 H 0.37365 0.05404 0.30303 0.0
C1169 C 0.43824 0.11502 0.26971 0.0
C1170 C 0.42142 0.10151 0.22247 0.0
H1171 H 0.44529 0.11738 0.36425 0.0
H1172 H 0.45647 0.13189 0.26111 0.0
C1173 C 0.39776 0.07983 0.23538 0.0
C1174 C 0.9002 0.92423 0.57992 0.0
C1175 C 0.92379 0.9024 0.59248 0.0
H1176 H 0.8753 0.94946 0.51253 0.0
C1177 C 0.93953 0.88789 0.54496 0.0
H1178 H 0.88753 0.93574 0.61562 0.0
C1179 C 0.93213 0.89543 0.48592 0.0
C1180 C 0.90927 0.91803 0.47344 0.0
H1181 H 0.95764 0.87083 0.55332 0.0
H1182 H 0.94484 0.88401 0.45019 0.0
C1183 C 0.89321 0.93219 0.52091 0.0
C1184 C 0.10259 0.06523 -0.00959 0.0
C1185 C 0.08028 0.08742 0.97296 0.0
H1186 H 0.12542 0.0423 0.06374 0.0
C1187 C 0.06359 0.10389 0.01665 0.0
H1188 H 0.11558 0.05215 0.95713 0.0
C1189 C 0.06985 0.09889 0.07728 0.0
C1190 C 0.09214 0.07666 0.09473 0.0
H1191 H 0.04634 0.12112 0.00392 0.0
H1192 H 0.05711 0.1122 0.11056 0.0
C1193 C 0.10814 0.05951 0.05104 0.0
C1194 C 0.94136 0.60905 0.29993 0.0
C1195 C 0.92567 0.59174 0.34377 0.0
H1196 H 0.94619 0.61867 0.20609 0.0
C1197 C 0.903 0.56988 0.32659 0.0
H1198 H 0.95884 0.62607 0.31246 0.0
C1199 C 0.89636 0.56508 0.26611 0.0
C1200 C 0.9116 0.58279 0.2223 0.0
H1201 H 0.89075 0.55617 0.35992 0.0
H1202 H 0.87904 0.54789 0.25364 0.0
C1203 C 0.93399 0.60495 0.23947 0.0
C1204 C 0.39624 0.44694 0.54921 0.0
C1205 C 0.41226 0.43002 0.59318 0.0
H1206 H 0.38868 0.45374 0.45517 0.0
C1207 C 0.43441 0.40757 0.57608 0.0
H1208 H 0.37907 0.46431 0.56165 0.0
C1209 C 0.44054 0.40215 0.51553 0.0
C1210 C 0.42385 0.41841 0.47156 0.0
H1211 H 0.44716 0.39442 0.60957 0.0
H1212 H 0.45771 0.38479 0.50308 0.0
C1213 C 0.40165 0.4408 0.48867 0.0
C1214 C 0.56951 0.90369 0.73796 0.0
C1215 C 0.59187 0.92582 0.72048 0.0
H1216 H 0.54534 0.88218 0.81134 0.0
C1217 C 0.60738 0.94344 0.76409 0.0
H1218 H 0.55712 0.89004 0.70474 0.0
C1219 C 0.60125 0.93835 0.82469 0.0
C1220 C 0.57881 0.91632 0.8422 0.0
H1221 H 0.62468 0.9606 0.75137 0.0
H1222 H 0.61385 0.95183 0.85792 0.0
C1223 C 0.56265 0.89931 0.79855 0.0
C1224 C 0.10539 0.43423 0.32727 0.0
C1225 C 0.08327 0.41179 0.3444 0.0
H1226 H 0.12647 0.45914 0.25433 0.0
C1227 C 0.06557 0.39655 0.30055 0.0
H1228 H 0.1191 0.44643 0.36068 0.0
C1229 C 0.07036 0.40324 0.24009 0.0
C1230 C 0.09219 0.42594 0.22295 0.0
H1231 H 0.0484 0.37921 0.31299 0.0
H1232 H 0.05667 0.39097 0.20673 0.0
C1233 C 0.10948 0.44164 0.26683 0.0
C1234 C 0.56536 0.6033 0.57488 0.0
C1235 C 0.58751 0.58089 0.59213 0.0
H1236 H 0.54221 0.62608 0.50174 0.0
C1237 C 0.60369 0.56403 0.54829 0.0
H1238 H 0.55249 0.6164 0.60828 0.0
C1239 C 0.59845 0.5702 0.48771 0.0
C1240 C 0.57625 0.59256 0.47045 0.0
H1241 H 0.62088 0.54671 0.56085 0.0
H1242 H 0.61154 0.55732 0.45431 0.0
C1243 C 0.55939 0.60875 0.5143 0.0
C1244 C 0.43896 0.10116 0.73943 0.0
C1245 C 0.41689 0.07878 0.72186 0.0
H1246 H 0.46124 0.12451 0.81283 0.0
C1247 C 0.39983 0.06263 0.76545 0.0
H1248 H 0.45247 0.11375 0.70626 0.0
C1249 C 0.40421 0.06945 0.82606 0.0
C1250 C 0.42639 0.09174 0.84361 0.0
H1251 H 0.38266 0.04537 0.7526 0.0
H1252 H 0.39052 0.05706 0.85924 0.0
C1253 C 0.44404 0.10725 0.80006 0.0
C1254 C 0.90214 0.94116 0.0498 0.0
C1255 C 0.91869 0.92463 0.09359 0.0
H1256 H 0.89393 0.94756 0.95584 0.0
C1257 C 0.94111 0.90251 0.07625 0.0
H1258 H 0.88473 0.95825 0.06244 0.0
C1259 C 0.94699 0.89702 0.01565 0.0
C1260 C 0.92977 0.91286 0.97186 0.0
H1261 H 0.95426 0.88966 0.1096 0.0
H1262 H 0.96438 0.87991 0.00303 0.0
C1263 C 0.9073 0.93494 -0.01081 0.0
loop_
_geom_bond_atom_site_label_1
_geom_bond_atom_site_label_2
_geom_bond_distance
_geom_bond_site_symmetry_2
_ccdc_geom_bond_type
Co0 O2 2.143 . S
Co0 O8 2.074 . S
Co0 O11 2.093 . S
Co0 O24 2.097 . S
Co0 N41 2.151 . S
Co0 N49 2.214 . S
Co1 O2 2.160 . S
Co1 O7 2.058 . S
Co1 O17 2.057 . S
Co1 O32 2.037 . S
Co1 N36 2.145 1_545 S
Co1 N57 2.257 . S
O2 Co0 2.143 . S
O2 Co1 2.160 . S
C3 O4 1.278 . S
C3 O11 1.224 . S
O4 C3 1.278 . S
C5 O6 1.245 . S
C5 O17 1.232 . S
O6 C5 1.245 . S
O7 Co1 2.058 . S
O7 C33 1.269 . S
O8 Co0 2.074 . S
O8 C33 1.257 . S
H9 C34 0.930 . S
H10 C40 0.930 . S
O11 Co0 2.093 . S
O11 C3 1.224 . S
H12 C44 0.929 . S
H13 C46 0.930 . S
H14 C47 0.930 . S
H15 C45 0.929 . S
H16 C48 0.928 . S
O17 Co1 2.057 . S
O17 C5 1.232 . S
H18 C37 0.929 . S
H19 C38 0.929 . S
H20 C50 0.931 . S
H21 C42 0.929 . S
H22 C51 0.930 . S
H23 C43 0.931 . S
O24 Co0 2.097 . S
O24 C52 1.214 . S
H25 C53 0.929 . S
H26 C54 0.929 . S
H27 C55 0.930 . S
H28 C56 0.929 . S
H29 C58 0.930 . S
H30 C35 0.930 . S
H31 C39 0.930 . S
O32 Co1 2.037 . S
O32 C52 1.234 . S
C33 O7 1.269 . S
C33 O8 1.257 . S
C34 H9 0.930 . S
C34 C37 1.388 . S
C34 C39 1.418 . S
C35 H30 0.930 . S
C35 C38 1.404 . S
C35 C39 1.353 . S
N36 Co1 2.145 1_565 S
N36 C37 1.397 . S
N36 C38 1.334 . S
C37 H18 0.929 . S
C37 C34 1.388 . S
C37 N36 1.397 . S
C38 H19 0.929 . S
C38 C35 1.404 . S
C38 N36 1.334 . S
C39 H31 0.930 . S
C39 C34 1.418 . S
C39 C35 1.353 . S
C40 H10 0.930 . S
C40 N41 1.330 . S
C40 C42 1.446 . S
N41 Co0 2.151 . S
N41 C40 1.330 . S
N41 C45 1.418 . S
C42 H21 0.929 . S
C42 C40 1.446 . S
C42 C43 1.332 . S
C43 H23 0.931 . S
C43 C42 1.332 . S
C43 C44 1.267 . S
C44 H12 0.929 . S
C44 C43 1.267 . S
C44 C45 1.251 . S
C45 H15 0.929 . S
C45 N41 1.418 . S
C45 C44 1.251 . S
C46 H13 0.930 . S
C46 C48 1.406 1_655 S
C46 C51 1.261 . S
C47 H14 0.930 . S
C47 N49 1.325 . S
C47 C50 1.357 1_455 S
C48 H16 0.928 . S
C48 C46 1.406 1_455 S
C48 N49 1.261 . S
N49 Co0 2.214 . S
N49 C47 1.325 . S
N49 C48 1.261 . S
C50 H20 0.931 . S
C50 C47 1.357 1_655 S
C50 C51 1.312 . S
C51 H22 0.930 . S
C51 C46 1.261 . S
C51 C50 1.312 . S
C52 O24 1.214 . S
C52 O32 1.234 . S
C53 H25 0.929 . S
C53 C56 1.391 . S
C53 C58 1.391 1_565 S
C54 H26 0.929 . S
C54 C55 1.390 . S
C54 N57 1.391 1_565 S
C55 H27 0.930 . S
C55 C54 1.390 . S
C55 C56 1.392 . S
C56 H28 0.929 . S
C56 C53 1.391 . S
C56 C55 1.392 . S
N57 Co1 2.257 . S
N57 C54 1.391 1_545 S
N57 C58 1.388 . S
C58 H29 0.930 . S
C58 C53 1.391 1_545 S
C58 N57 1.388 . S
Co59 O61 2.143 . S
Co59 O67 2.074 . S
Co59 O70 2.093 . S
Co59 O83 2.097 . S
Co59 N100 2.151 . S
Co59 N108 2.214 . S
Co60 O61 2.160 . S
Co60 O66 2.058 . S
Co60 O76 2.057 . S
Co60 O91 2.037 . S
Co60 N95 2.145 1_655 S
Co60 N116 2.257 . S
O61 Co59 2.143 . S
O61 Co60 2.160 . S
C62 O63 1.278 . S
C62 O70 1.224 . S
O63 C62 1.278 . S
C64 O65 1.245 . S
C64 O76 1.232 . S
O65 C64 1.245 . S
O66 Co60 2.058 . S
O66 C92 1.269 . S
O67 Co59 2.074 . S
O67 C92 1.257 . S
H68 C93 0.930 . S
H69 C99 0.930 . S
O70 Co59 2.093 . S
O70 C62 1.224 . S
H71 C103 0.929 . S
H72 C105 0.930 . S
H73 C106 0.930 . S
H74 C104 0.929 . S
H75 C107 0.928 . S
O76 Co60 2.057 . S
O76 C64 1.232 . S
H77 C96 0.929 . S
H78 C97 0.929 . S
H79 C109 0.931 . S
H80 C101 0.929 . S
H81 C110 0.930 . S
H82 C102 0.931 . S
O83 Co59 2.097 . S
O83 C111 1.214 . S
H84 C112 0.929 . S
H85 C113 0.929 . S
H86 C114 0.930 . S
H87 C115 0.929 . S
H88 C117 0.930 . S
H89 C94 0.930 . S
H90 C98 0.930 . S
O91 Co60 2.037 . S
O91 C111 1.234 . S
C92 O66 1.269 . S
C92 O67 1.257 . S
C93 H68 0.930 . S
C93 C96 1.388 . S
C93 C98 1.418 . S
C94 H89 0.930 . S
C94 C97 1.404 . S
C94 C98 1.353 . S
N95 Co60 2.145 1_455 S
N95 C96 1.397 . S
N95 C97 1.334 . S
C96 H77 0.929 . S
C96 C93 1.388 . S
C96 N95 1.397 . S
C97 H78 0.929 . S
C97 C94 1.404 . S
C97 N95 1.334 . S
C98 H90 0.930 . S
C98 C93 1.418 . S
C98 C94 1.353 . S
C99 H69 0.930 . S
C99 N100 1.330 . S
C99 C101 1.446 . S
N100 Co59 2.151 . S
N100 C99 1.330 . S
N100 C104 1.418 . S
C101 H80 0.929 . S
C101 C99 1.446 . S
C101 C102 1.332 . S
C102 H82 0.931 . S
C102 C101 1.332 . S
C102 C103 1.267 . S
C103 H71 0.929 . S
C103 C102 1.267 . S
C103 C104 1.251 . S
C104 H74 0.929 . S
C104 N100 1.418 . S
C104 C103 1.251 . S
C105 H72 0.930 . S
C105 C107 1.406 . S
C105 C110 1.261 . S
C106 H73 0.930 . S
C106 N108 1.325 . S
C106 C109 1.357 . S
C107 H75 0.928 . S
C107 C105 1.406 . S
C107 N108 1.261 . S
N108 Co59 2.214 . S
N108 C106 1.325 . S
N108 C107 1.261 . S
C109 H79 0.931 . S
C109 C106 1.357 . S
C109 C110 1.312 . S
C110 H81 0.930 . S
C110 C105 1.261 . S
C110 C109 1.312 . S
C111 O83 1.214 . S
C111 O91 1.234 . S
C112 H84 0.929 . S
C112 C115 1.391 . S
C112 C117 1.391 1_455 S
C113 H85 0.929 . S
C113 C114 1.390 . S
C113 N116 1.391 1_455 S
C114 H86 0.930 . S
C114 C113 1.390 . S
C114 C115 1.392 . S
C115 H87 0.929 . S
C115 C112 1.391 . S
C115 C114 1.392 . S
N116 Co60 2.257 . S
N116 C113 1.391 1_655 S
N116 C117 1.388 . S
C117 H88 0.930 . S
C117 C112 1.391 1_655 S
C117 N116 1.388 . S
Co118 O120 2.143 . S
Co118 O126 2.074 . S
Co118 O129 2.093 . S
Co118 O142 2.097 . S
Co118 N159 2.151 . S
Co118 N167 2.214 . S
Co119 O120 2.160 . S
Co119 O125 2.058 . S
Co119 O135 2.057 . S
Co119 O150 2.037 . S
Co119 N154 2.145 . S
Co119 N175 2.257 . S
O120 Co118 2.143 . S
O120 Co119 2.160 . S
C121 O122 1.278 . S
C121 O129 1.224 . S
O122 C121 1.278 . S
C123 O124 1.245 . S
C123 O135 1.232 . S
O124 C123 1.245 . S
O125 Co119 2.058 . S
O125 C151 1.269 . S
O126 Co118 2.074 . S
O126 C151 1.257 . S
H127 C152 0.930 . S
H128 C158 0.930 . S
O129 Co118 2.093 . S
O129 C121 1.224 . S
H130 C162 0.929 . S
H131 C164 0.930 . S
H132 C165 0.930 . S
H133 C163 0.929 . S
H134 C166 0.928 . S
O135 Co119 2.057 . S
O135 C123 1.232 . S
H136 C155 0.929 . S
H137 C156 0.929 . S
H138 C168 0.931 . S
H139 C160 0.929 . S
H140 C169 0.930 . S
H141 C161 0.931 . S
O142 Co118 2.097 . S
O142 C170 1.214 . S
H143 C171 0.929 . S
H144 C172 0.929 . S
H145 C173 0.930 . S
H146 C174 0.929 . S
H147 C176 0.930 . S
H148 C153 0.930 1_554 S
H149 C157 0.930 . S
O150 Co119 2.037 . S
O150 C170 1.234 . S
C151 O125 1.269 . S
C151 O126 1.257 . S
C152 H127 0.930 . S
C152 C155 1.388 1_554 S
C152 C157 1.418 . S
C153 H148 0.930 1_556 S
C153 C156 1.404 . S
C153 C157 1.353 1_556 S
N154 Co119 2.145 . S
N154 C155 1.397 . S
N154 C156 1.334 . S
C155 H136 0.929 . S
C155 C152 1.388 1_556 S
C155 N154 1.397 . S
C156 H137 0.929 . S
C156 C153 1.404 . S
C156 N154 1.334 . S
C157 H149 0.930 . S
C157 C152 1.418 . S
C157 C153 1.353 1_554 S
C158 H128 0.930 . S
C158 N159 1.330 . S
C158 C160 1.446 . S
N159 Co118 2.151 . S
N159 C158 1.330 . S
N159 C163 1.418 . S
C160 H139 0.929 . S
C160 C158 1.446 . S
C160 C161 1.332 . S
C161 H141 0.931 . S
C161 C160 1.332 . S
C161 C162 1.267 . S
C162 H130 0.929 . S
C162 C161 1.267 . S
C162 C163 1.251 . S
C163 H133 0.929 . S
C163 N159 1.418 . S
C163 C162 1.251 . S
C164 H131 0.930 . S
C164 C166 1.406 . S
C164 C169 1.261 . S
C165 H132 0.930 . S
C165 N167 1.325 . S
C165 C168 1.357 . S
C166 H134 0.928 . S
C166 C164 1.406 . S
C166 N167 1.261 . S
N167 Co118 2.214 . S
N167 C165 1.325 . S
N167 C166 1.261 . S
C168 H138 0.931 . S
C168 C165 1.357 . S
C168 C169 1.312 . S
C169 H140 0.930 . S
C169 C164 1.261 . S
C169 C168 1.312 . S
C170 O142 1.214 . S
C170 O150 1.234 . S
C171 H143 0.929 . S
C171 C174 1.391 . S
C171 C176 1.391 . S
C172 H144 0.929 . S
C172 C173 1.390 . S
C172 N175 1.391 . S
C173 H145 0.930 . S
C173 C172 1.390 . S
C173 C174 1.392 . S
C174 H146 0.929 . S
C174 C171 1.391 . S
C174 C173 1.392 . S
N175 Co119 2.257 . S
N175 C172 1.391 . S
N175 C176 1.388 . S
C176 H147 0.930 . S
C176 C171 1.391 . S
C176 N175 1.388 . S
Co177 O179 2.143 . S
Co177 O185 2.074 . S
Co177 O188 2.093 1_554 S
Co177 O201 2.097 . S
Co177 N218 2.151 . S
Co177 N226 2.214 . S
Co178 O179 2.160 . S
Co178 O184 2.058 . S
Co178 O194 2.057 . S
Co178 O209 2.037 . S
Co178 N213 2.145 . S
Co178 N234 2.257 . S
O179 Co177 2.143 . S
O179 Co178 2.160 . S
C180 O181 1.278 . S
C180 O188 1.224 . S
O181 C180 1.278 . S
C182 O183 1.245 . S
C182 O194 1.232 . S
O183 C182 1.245 . S
O184 Co178 2.058 . S
O184 C210 1.269 . S
O185 Co177 2.074 . S
O185 C210 1.257 . S
H186 C211 0.930 . S
H187 C217 0.930 1_556 S
O188 Co177 2.093 1_556 S
O188 C180 1.224 . S
H189 C221 0.929 . S
H190 C223 0.930 . S
H191 C224 0.930 . S
H192 C222 0.929 . S
H193 C225 0.928 1_556 S
O194 Co178 2.057 . S
O194 C182 1.232 . S
H195 C214 0.929 . S
H196 C215 0.929 . S
H197 C227 0.931 . S
H198 C219 0.929 1_556 S
H199 C228 0.930 . S
H200 C220 0.931 . S
O201 Co177 2.097 . S
O201 C229 1.214 . S
H202 C230 0.929 . S
H203 C231 0.929 . S
H204 C232 0.929 1_556 S
H205 C233 0.929 . S
H206 C235 0.930 . S
H207 C212 0.930 . S
H208 C216 0.930 . S
O209 Co178 2.037 . S
O209 C229 1.234 . S
C210 O184 1.269 . S
C210 O185 1.257 . S
C211 H186 0.930 . S
C211 C214 1.388 . S
C211 C216 1.418 . S
C212 H207 0.930 . S
C212 C215 1.404 . S
C212 C216 1.353 . S
N213 Co178 2.145 . S
N213 C214 1.397 . S
N213 C215 1.334 . S
C214 H195 0.929 . S
C214 C211 1.388 . S
C214 N213 1.397 . S
C215 H196 0.929 . S
C215 C212 1.404 . S
C215 N213 1.334 . S
C216 H208 0.930 . S
C216 C211 1.418 . S
C216 C212 1.353 . S
C217 H187 0.930 1_554 S
C217 N218 1.330 . S
C217 C219 1.446 . S
N218 Co177 2.151 . S
N218 C217 1.330 . S
N218 C222 1.418 . S
C219 H198 0.929 1_554 S
C219 C217 1.446 . S
C219 C220 1.332 . S
C220 H200 0.931 . S
C220 C219 1.332 . S
C220 C221 1.267 . S
C221 H189 0.929 . S
C221 C220 1.267 . S
C221 C222 1.251 . S
C222 H192 0.929 . S
C222 N218 1.418 . S
C222 C221 1.251 . S
C223 H190 0.930 . S
C223 C225 1.406 1_545 S
C223 C228 1.261 . S
C224 H191 0.930 . S
C224 N226 1.325 . S
C224 C227 1.357 1_565 S
C225 H193 0.928 1_554 S
C225 C223 1.406 1_565 S
C225 N226 1.261 . S
N226 Co177 2.214 . S
N226 C224 1.325 . S
N226 C225 1.261 . S
C227 H197 0.931 . S
C227 C224 1.357 1_545 S
C227 C228 1.312 . S
C228 H199 0.930 . S
C228 C223 1.261 . S
C228 C227 1.312 . S
C229 O201 1.214 . S
C229 O209 1.234 . S
C230 H202 0.929 . S
C230 C233 1.391 . S
C230 C235 1.391 1_556 S
C231 H203 0.929 . S
C231 C232 1.398 . S
C231 N234 1.391 . S
C232 H204 0.929 1_554 S
C232 C231 1.398 . S
C232 C233 1.384 1_554 S
C233 H205 0.929 . S
C233 C230 1.391 . S
C233 C232 1.384 1_556 S
N234 Co178 2.257 . S
N234 C231 1.391 . S
N234 C235 1.388 . S
C235 H206 0.930 . S
C235 C230 1.391 1_554 S
C235 N234 1.388 . S
Co236 O238 2.143 . S
Co236 O244 2.074 1_554 S
Co236 O247 2.093 . S
Co236 O260 2.097 . S
Co236 N277 2.151 . S
Co236 N285 2.214 . S
Co237 O238 2.160 1_556 S
Co237 O243 2.058 . S
Co237 O253 2.057 . S
Co237 O268 2.037 . S
Co237 N272 2.145 . S
Co237 N293 2.257 1_556 S
O238 Co236 2.143 . S
O238 Co237 2.160 1_554 S
C239 O240 1.278 . S
C239 O247 1.224 . S
O240 C239 1.278 . S
C241 O242 1.245 1_556 S
C241 O253 1.232 . S
O242 C241 1.245 1_554 S
O243 Co237 2.058 . S
O243 C269 1.269 . S
O244 Co236 2.074 1_556 S
O244 C269 1.257 . S
H245 C270 0.930 . S
H246 C276 0.930 . S
O247 Co236 2.093 . S
O247 C239 1.224 . S
H248 C280 0.929 . S
H249 C282 0.930 . S
H250 C283 0.930 . S
H251 C281 0.929 . S
H252 C284 0.928 . S
O253 Co237 2.057 . S
O253 C241 1.232 . S
H254 C273 0.929 . S
H255 C274 0.929 . S
H256 C286 0.931 . S
H257 C278 0.929 . S
H258 C287 0.930 . S
H259 C279 0.931 . S
O260 Co236 2.097 . S
O260 C288 1.214 . S
H261 C289 0.929 . S
H262 C290 0.929 . S
H263 C291 0.930 . S
H264 C292 0.929 . S
H265 C294 0.930 . S
H266 C271 0.930 . S
H267 C275 0.930 . S
O268 Co237 2.037 . S
O268 C288 1.234 1_556 S
C269 O243 1.269 . S
C269 O244 1.257 . S
C270 H245 0.930 . S
C270 C273 1.388 . S
C270 C275 1.418 . S
C271 H266 0.930 . S
C271 C274 1.404 . S
C271 C275 1.353 . S
N272 Co237 2.145 . S
N272 C273 1.397 . S
N272 C274 1.334 . S
C273 H254 0.929 . S
C273 C270 1.388 . S
C273 N272 1.397 . S
C274 H255 0.929 . S
C274 C271 1.404 . S
C274 N272 1.334 . S
C275 H267 0.930 . S
C275 C270 1.418 . S
C275 C271 1.353 . S
C276 H246 0.930 . S
C276 N277 1.330 . S
C276 C278 1.446 . S
N277 Co236 2.151 . S
N277 C276 1.330 . S
N277 C281 1.418 1_554 S
C278 H257 0.929 . S
C278 C276 1.446 . S
C278 C279 1.332 . S
C279 H259 0.931 . S
C279 C278 1.332 . S
C279 C280 1.267 1_554 S
C280 H248 0.929 . S
C280 C279 1.267 1_556 S
C280 C281 1.251 . S
C281 H251 0.929 . S
C281 N277 1.418 1_556 S
C281 C280 1.251 . S
C282 H249 0.930 . S
C282 C284 1.406 1_655 S
C282 C287 1.261 . S
C283 H250 0.930 . S
C283 N285 1.325 1_556 S
C283 C286 1.357 1_455 S
C284 H252 0.928 . S
C284 C282 1.406 1_455 S
C284 N285 1.261 . S
N285 Co236 2.214 . S
N285 C283 1.325 1_554 S
N285 C284 1.261 . S
C286 H256 0.931 . S
C286 C283 1.357 1_655 S
C286 C287 1.312 1_556 S
C287 H258 0.930 . S
C287 C282 1.261 . S
C287 C286 1.312 1_554 S
C288 O260 1.214 . S
C288 O268 1.234 1_554 S
C289 H261 0.929 . S
C289 C292 1.391 . S
C289 C294 1.391 . S
C290 H262 0.929 . S
C290 C291 1.390 . S
C290 N293 1.391 . S
C291 H263 0.930 . S
C291 C290 1.390 . S
C291 C292 1.392 . S
C292 H264 0.929 . S
C292 C289 1.391 . S
C292 C291 1.392 . S
N293 Co237 2.257 1_554 S
N293 C290 1.391 . S
N293 C294 1.388 . S
C294 H265 0.930 . S
C294 C289 1.391 . S
C294 N293 1.388 . S
Co295 O297 2.143 . S
Co295 O303 2.074 . S
Co295 O306 2.093 . S
Co295 O319 2.097 . S
Co295 N336 2.151 . S
Co295 N344 2.214 . S
Co296 O297 2.160 . S
Co296 O302 2.058 . S
Co296 O312 2.057 . S
Co296 O327 2.037 . S
Co296 N331 2.145 . S
Co296 N352 2.257 . S
O297 Co295 2.143 . S
O297 Co296 2.160 . S
C298 O299 1.278 . S
C298 O306 1.224 . S
O299 C298 1.278 . S
C300 O301 1.245 . S
C300 O312 1.232 . S
O301 C300 1.245 . S
O302 Co296 2.058 . S
O302 C328 1.269 . S
O303 Co295 2.074 . S
O303 C328 1.257 . S
H304 C329 0.930 . S
H305 C335 0.930 . S
O306 Co295 2.093 . S
O306 C298 1.224 . S
H307 C339 0.929 . S
H308 C341 0.930 . S
H309 C342 0.930 . S
H310 C340 0.929 . S
H311 C343 0.928 . S
O312 Co296 2.057 . S
O312 C300 1.232 . S
H313 C332 0.929 . S
H314 C333 0.929 . S
H315 C345 0.931 . S
H316 C337 0.929 . S
H317 C346 0.930 . S
H318 C338 0.931 . S
O319 Co295 2.097 . S
O319 C347 1.214 . S
H320 C348 0.929 . S
H321 C349 0.929 . S
H322 C350 0.930 . S
H323 C351 0.929 . S
H324 C353 0.930 . S
H325 C330 0.930 . S
H326 C334 0.930 . S
O327 Co296 2.037 . S
O327 C347 1.234 . S
C328 O302 1.269 . S
C328 O303 1.257 . S
C329 H304 0.930 . S
C329 C332 1.388 . S
C329 C334 1.418 . S
C330 H325 0.930 . S
C330 C333 1.404 . S
C330 C334 1.353 . S
N331 Co296 2.145 . S
N331 C332 1.397 . S
N331 C333 1.334 . S
C332 H313 0.929 . S
C332 C329 1.388 . S
C332 N331 1.397 . S
C333 H314 0.929 . S
C333 C330 1.404 . S
C333 N331 1.334 . S
C334 H326 0.930 . S
C334 C329 1.418 . S
C334 C330 1.353 . S
C335 H305 0.930 . S
C335 N336 1.330 . S
C335 C337 1.446 . S
N336 Co295 2.151 . S
N336 C335 1.330 . S
N336 C340 1.418 . S
C337 H316 0.929 . S
C337 C335 1.446 . S
C337 C338 1.332 . S
C338 H318 0.931 . S
C338 C337 1.332 . S
C338 C339 1.267 . S
C339 H307 0.929 . S
C339 C338 1.267 . S
C339 C340 1.251 . S
C340 H310 0.929 . S
C340 N336 1.418 . S
C340 C339 1.251 . S
C341 H308 0.930 . S
C341 C343 1.406 . S
C341 C346 1.261 . S
C342 H309 0.930 . S
C342 N344 1.325 . S
C342 C345 1.357 . S
C343 H311 0.928 . S
C343 C341 1.406 . S
C343 N344 1.261 . S
N344 Co295 2.214 . S
N344 C342 1.325 . S
N344 C343 1.261 . S
C345 H315 0.931 . S
C345 C342 1.357 . S
C345 C346 1.312 . S
C346 H317 0.930 . S
C346 C341 1.261 . S
C346 C345 1.312 . S
C347 O319 1.214 . S
C347 O327 1.234 . S
C348 H320 0.929 . S
C348 C351 1.391 . S
C348 C353 1.391 . S
C349 H321 0.929 . S
C349 C350 1.390 . S
C349 N352 1.391 . S
C350 H322 0.930 . S
C350 C349 1.390 . S
C350 C351 1.392 . S
C351 H323 0.929 . S
C351 C348 1.391 . S
C351 C350 1.392 . S
N352 Co296 2.257 . S
N352 C349 1.391 . S
N352 C353 1.388 . S
C353 H324 0.930 . S
C353 C348 1.391 . S
C353 N352 1.388 . S
Co354 O356 2.143 . S
Co354 O362 2.074 . S
Co354 O365 2.093 . S
Co354 O378 2.097 . S
Co354 N395 2.151 . S
Co354 N403 2.214 . S
Co355 O356 2.160 . S
Co355 O361 2.058 . S
Co355 O371 2.057 . S
Co355 O386 2.037 . S
Co355 N390 2.145 1_545 S
Co355 N411 2.257 . S
O356 Co354 2.143 . S
O356 Co355 2.160 . S
C357 O358 1.278 . S
C357 O365 1.224 . S
O358 C357 1.278 . S
C359 O360 1.245 . S
C359 O371 1.232 . S
O360 C359 1.245 . S
O361 Co355 2.058 . S
O361 C387 1.269 . S
O362 Co354 2.074 . S
O362 C387 1.257 . S
H363 C388 0.930 . S
H364 C394 0.930 . S
O365 Co354 2.093 . S
O365 C357 1.224 . S
H366 C398 0.929 . S
H367 C400 0.930 . S
H368 C401 0.930 . S
H369 C399 0.929 . S
H370 C402 0.928 . S
O371 Co355 2.057 . S
O371 C359 1.232 . S
H372 C391 0.929 . S
H373 C392 0.929 . S
H374 C404 0.931 . S
H375 C396 0.929 . S
H376 C405 0.930 . S
H377 C397 0.931 . S
O378 Co354 2.097 . S
O378 C406 1.214 . S
H379 C407 0.929 . S
H380 C408 0.929 . S
H381 C409 0.930 . S
H382 C410 0.929 . S
H383 C412 0.930 . S
H384 C389 0.930 . S
H385 C393 0.930 . S
O386 Co355 2.037 . S
O386 C406 1.234 . S
C387 O361 1.269 . S
C387 O362 1.257 . S
C388 H363 0.930 . S
C388 C391 1.388 . S
C388 C393 1.418 . S
C389 H384 0.930 . S
C389 C392 1.404 . S
C389 C393 1.353 . S
N390 Co355 2.145 1_565 S
N390 C391 1.397 . S
N390 C392 1.334 . S
C391 H372 0.929 . S
C391 C388 1.388 . S
C391 N390 1.397 . S
C392 H373 0.929 . S
C392 C389 1.404 . S
C392 N390 1.334 . S
C393 H385 0.930 . S
C393 C388 1.418 . S
C393 C389 1.353 . S
C394 H364 0.930 . S
C394 N395 1.330 . S
C394 C396 1.446 . S
N395 Co354 2.151 . S
N395 C394 1.330 . S
N395 C399 1.418 . S
C396 H375 0.929 . S
C396 C394 1.446 . S
C396 C397 1.332 . S
C397 H377 0.931 . S
C397 C396 1.332 . S
C397 C398 1.267 . S
C398 H366 0.929 . S
C398 C397 1.267 . S
C398 C399 1.251 . S
C399 H369 0.929 . S
C399 N395 1.418 . S
C399 C398 1.251 . S
C400 H367 0.930 . S
C400 C402 1.406 . S
C400 C405 1.261 . S
C401 H368 0.930 . S
C401 N403 1.325 . S
C401 C404 1.357 . S
C402 H370 0.928 . S
C402 C400 1.406 . S
C402 N403 1.261 . S
N403 Co354 2.214 . S
N403 C401 1.325 . S
N403 C402 1.261 . S
C404 H374 0.931 . S
C404 C401 1.357 . S
C404 C405 1.312 . S
C405 H376 0.930 . S
C405 C400 1.261 . S
C405 C404 1.312 . S
C406 O378 1.214 . S
C406 O386 1.234 . S
C407 H379 0.929 . S
C407 C410 1.391 . S
C407 C412 1.391 1_565 S
C408 H380 0.929 . S
C408 C409 1.390 . S
C408 N411 1.391 1_565 S
C409 H381 0.930 . S
C409 C408 1.390 . S
C409 C410 1.392 . S
C410 H382 0.929 . S
C410 C407 1.391 . S
C410 C409 1.392 . S
N411 Co355 2.257 . S
N411 C408 1.391 1_545 S
N411 C412 1.388 . S
C412 H383 0.930 . S
C412 C407 1.391 1_545 S
C412 N411 1.388 . S
Co413 O415 2.143 . S
Co413 O421 2.074 . S
Co413 O424 2.093 . S
Co413 O437 2.097 . S
Co413 N454 2.151 . S
Co413 N462 2.214 . S
Co414 O415 2.160 . S
Co414 O420 2.058 . S
Co414 O430 2.057 . S
Co414 O445 2.037 . S
Co414 N449 2.145 1_655 S
Co414 N470 2.257 . S
O415 Co413 2.143 . S
O415 Co414 2.160 . S
C416 O417 1.278 . S
C416 O424 1.224 . S
O417 C416 1.278 . S
C418 O419 1.245 . S
C418 O430 1.232 . S
O419 C418 1.245 . S
O420 Co414 2.058 . S
O420 C446 1.269 . S
O421 Co413 2.074 . S
O421 C446 1.257 . S
H422 C447 0.930 . S
H423 C453 0.930 . S
O424 Co413 2.093 . S
O424 C416 1.224 . S
H425 C457 0.929 . S
H426 C459 0.930 . S
H427 C460 0.930 . S
H428 C458 0.929 . S
H429 C461 0.928 . S
O430 Co414 2.057 . S
O430 C418 1.232 . S
H431 C450 0.929 . S
H432 C451 0.929 . S
H433 C463 0.931 . S
H434 C455 0.929 . S
H435 C464 0.930 . S
H436 C456 0.931 . S
O437 Co413 2.097 . S
O437 C465 1.214 . S
H438 C466 0.929 . S
H439 C467 0.929 . S
H440 C468 0.930 . S
H441 C469 0.929 . S
H442 C471 0.930 . S
H443 C448 0.930 . S
H444 C452 0.930 . S
O445 Co414 2.037 . S
O445 C465 1.234 . S
C446 O420 1.269 . S
C446 O421 1.257 . S
C447 H422 0.930 . S
C447 C450 1.388 . S
C447 C452 1.418 . S
C448 H443 0.930 . S
C448 C451 1.404 . S
C448 C452 1.353 . S
N449 Co414 2.145 1_455 S
N449 C450 1.397 . S
N449 C451 1.334 . S
C450 H431 0.929 . S
C450 C447 1.388 . S
C450 N449 1.397 . S
C451 H432 0.929 . S
C451 C448 1.404 . S
C451 N449 1.334 . S
C452 H444 0.930 . S
C452 C447 1.418 . S
C452 C448 1.353 . S
C453 H423 0.930 . S
C453 N454 1.330 . S
C453 C455 1.446 . S
N454 Co413 2.151 . S
N454 C453 1.330 . S
N454 C458 1.418 . S
C455 H434 0.929 . S
C455 C453 1.446 . S
C455 C456 1.332 . S
C456 H436 0.931 . S
C456 C455 1.332 . S
C456 C457 1.267 . S
C457 H425 0.929 . S
C457 C456 1.267 . S
C457 C458 1.251 . S
C458 H428 0.929 . S
C458 N454 1.418 . S
C458 C457 1.251 . S
C459 H426 0.930 . S
C459 C461 1.406 1_545 S
C459 C464 1.261 . S
C460 H427 0.930 . S
C460 N462 1.325 . S
C460 C463 1.357 1_565 S
C461 H429 0.928 . S
C461 C459 1.406 1_565 S
C461 N462 1.261 . S
N462 Co413 2.214 . S
N462 C460 1.325 . S
N462 C461 1.261 . S
C463 H433 0.931 . S
C463 C460 1.357 1_545 S
C463 C464 1.312 . S
C464 H435 0.930 . S
C464 C459 1.261 . S
C464 C463 1.312 . S
C465 O437 1.214 . S
C465 O445 1.234 . S
C466 H438 0.929 . S
C466 C469 1.391 . S
C466 C471 1.391 1_455 S
C467 H439 0.929 . S
C467 C468 1.390 . S
C467 N470 1.391 1_455 S
C468 H440 0.930 . S
C468 C467 1.390 . S
C468 C469 1.392 . S
C469 H441 0.929 . S
C469 C466 1.391 . S
C469 C468 1.392 . S
N470 Co414 2.257 . S
N470 C467 1.391 1_655 S
N470 C471 1.388 . S
C471 H442 0.930 . S
C471 C466 1.391 1_655 S
C471 N470 1.388 . S
Co472 O474 2.143 . S
Co472 O480 2.074 . S
Co472 O483 2.093 . S
Co472 O496 2.097 . S
Co472 N513 2.151 . S
Co472 N521 2.214 . S
Co473 O474 2.160 . S
Co473 O479 2.058 . S
Co473 O489 2.057 . S
Co473 O504 2.037 . S
Co473 N508 2.145 . S
Co473 N529 2.257 . S
O474 Co472 2.143 . S
O474 Co473 2.160 . S
C475 O476 1.278 . S
C475 O483 1.224 . S
O476 C475 1.278 . S
C477 O478 1.245 . S
C477 O489 1.232 . S
O478 C477 1.245 . S
O479 Co473 2.058 . S
O479 C505 1.269 . S
O480 Co472 2.074 . S
O480 C505 1.257 . S
H481 C506 0.930 . S
H482 C512 0.930 . S
O483 Co472 2.093 . S
O483 C475 1.224 . S
H484 C516 0.929 . S
H485 C518 0.930 . S
H486 C519 0.930 . S
H487 C517 0.929 . S
H488 C520 0.928 . S
O489 Co473 2.057 . S
O489 C477 1.232 . S
H490 C509 0.929 . S
H491 C510 0.929 . S
H492 C522 0.931 . S
H493 C514 0.929 . S
H494 C523 0.930 . S
H495 C515 0.931 . S
O496 Co472 2.097 . S
O496 C524 1.214 . S
H497 C525 0.929 . S
H498 C526 0.929 . S
H499 C527 0.930 . S
H500 C528 0.929 . S
H501 C530 0.930 . S
H502 C507 0.930 1_554 S
H503 C511 0.930 . S
O504 Co473 2.037 . S
O504 C524 1.234 . S
C505 O479 1.269 . S
C505 O480 1.257 . S
C506 H481 0.930 . S
C506 C509 1.388 1_554 S
C506 C511 1.418 . S
C507 H502 0.930 1_556 S
C507 C510 1.404 . S
C507 C511 1.353 1_556 S
N508 Co473 2.145 . S
N508 C509 1.397 . S
N508 C510 1.334 . S
C509 H490 0.929 . S
C509 C506 1.388 1_556 S
C509 N508 1.397 . S
C510 H491 0.929 . S
C510 C507 1.404 . S
C510 N508 1.334 . S
C511 H503 0.930 . S
C511 C506 1.418 . S
C511 C507 1.353 1_554 S
C512 H482 0.930 . S
C512 N513 1.330 . S
C512 C514 1.446 . S
N513 Co472 2.151 . S
N513 C512 1.330 . S
N513 C517 1.418 . S
C514 H493 0.929 . S
C514 C512 1.446 . S
C514 C515 1.332 . S
C515 H495 0.931 . S
C515 C514 1.332 . S
C515 C516 1.267 . S
C516 H484 0.929 . S
C516 C515 1.267 . S
C516 C517 1.251 . S
C517 H487 0.929 . S
C517 N513 1.418 . S
C517 C516 1.251 . S
C518 H485 0.930 . S
C518 C520 1.406 . S
C518 C523 1.261 . S
C519 H486 0.930 . S
C519 N521 1.325 . S
C519 C522 1.357 . S
C520 H488 0.928 . S
C520 C518 1.406 . S
C520 N521 1.261 . S
N521 Co472 2.214 . S
N521 C519 1.325 . S
N521 C520 1.261 . S
C522 H492 0.931 . S
C522 C519 1.357 . S
C522 C523 1.312 . S
C523 H494 0.930 . S
C523 C518 1.261 . S
C523 C522 1.312 . S
C524 O496 1.214 . S
C524 O504 1.234 . S
C525 H497 0.929 . S
C525 C528 1.391 . S
C525 C530 1.391 . S
C526 H498 0.929 . S
C526 C527 1.390 . S
C526 N529 1.391 . S
C527 H499 0.930 . S
C527 C526 1.390 . S
C527 C528 1.392 . S
C528 H500 0.929 . S
C528 C525 1.391 . S
C528 C527 1.392 . S
N529 Co473 2.257 . S
N529 C526 1.391 . S
N529 C530 1.388 . S
C530 H501 0.930 . S
C530 C525 1.391 . S
C530 N529 1.388 . S
Co531 O533 2.143 . S
Co531 O539 2.074 . S
Co531 O542 2.093 1_554 S
Co531 O555 2.097 . S
Co531 N572 2.151 . S
Co531 N580 2.214 . S
Co532 O533 2.160 . S
Co532 O538 2.058 . S
Co532 O548 2.057 . S
Co532 O563 2.037 . S
Co532 N567 2.145 . S
Co532 N588 2.257 . S
O533 Co531 2.143 . S
O533 Co532 2.160 . S
C534 O535 1.278 . S
C534 O542 1.224 . S
O535 C534 1.278 . S
C536 O537 1.245 . S
C536 O548 1.232 . S
O537 C536 1.245 . S
O538 Co532 2.058 . S
O538 C564 1.269 . S
O539 Co531 2.074 . S
O539 C564 1.257 . S
H540 C565 0.930 . S
H541 C571 0.930 1_556 S
O542 Co531 2.093 1_556 S
O542 C534 1.224 . S
H543 C575 0.929 . S
H544 C577 0.930 . S
H545 C578 0.930 . S
H546 C576 0.929 . S
H547 C579 0.928 1_556 S
O548 Co532 2.057 . S
O548 C536 1.232 . S
H549 C568 0.929 . S
H550 C569 0.929 . S
H551 C581 0.931 . S
H552 C573 0.929 1_556 S
H553 C582 0.930 . S
H554 C574 0.931 . S
O555 Co531 2.097 . S
O555 C583 1.214 . S
H556 C584 0.929 . S
H557 C585 0.929 . S
H558 C586 0.929 1_556 S
H559 C587 0.929 . S
H560 C589 0.930 . S
H561 C566 0.930 . S
H562 C570 0.930 . S
O563 Co532 2.037 . S
O563 C583 1.234 . S
C564 O538 1.269 . S
C564 O539 1.257 . S
C565 H540 0.930 . S
C565 C568 1.388 . S
C565 C570 1.418 . S
C566 H561 0.930 . S
C566 C569 1.404 . S
C566 C570 1.353 . S
N567 Co532 2.145 . S
N567 C568 1.397 . S
N567 C569 1.334 . S
C568 H549 0.929 . S
C568 C565 1.388 . S
C568 N567 1.397 . S
C569 H550 0.929 . S
C569 C566 1.404 . S
C569 N567 1.334 . S
C570 H562 0.930 . S
C570 C565 1.418 . S
C570 C566 1.353 . S
C571 H541 0.930 1_554 S
C571 N572 1.330 . S
C571 C573 1.446 . S
N572 Co531 2.151 . S
N572 C571 1.330 . S
N572 C576 1.418 . S
C573 H552 0.929 1_554 S
C573 C571 1.446 . S
C573 C574 1.332 . S
C574 H554 0.931 . S
C574 C573 1.332 . S
C574 C575 1.267 . S
C575 H543 0.929 . S
C575 C574 1.267 . S
C575 C576 1.251 . S
C576 H546 0.929 . S
C576 N572 1.418 . S
C576 C575 1.251 . S
C577 H544 0.930 . S
C577 C579 1.406 1_565 S
C577 C582 1.261 . S
C578 H545 0.930 . S
C578 N580 1.325 . S
C578 C581 1.357 1_545 S
C579 H547 0.928 1_554 S
C579 C577 1.406 1_545 S
C579 N580 1.261 . S
N580 Co531 2.214 . S
N580 C578 1.325 . S
N580 C579 1.261 . S
C581 H551 0.931 . S
C581 C578 1.357 1_565 S
C581 C582 1.312 . S
C582 H553 0.930 . S
C582 C577 1.261 . S
C582 C581 1.312 . S
C583 O555 1.214 . S
C583 O563 1.234 . S
C584 H556 0.929 . S
C584 C587 1.391 . S
C584 C589 1.391 1_556 S
C585 H557 0.929 . S
C585 C586 1.398 . S
C585 N588 1.391 . S
C586 H558 0.929 1_554 S
C586 C585 1.398 . S
C586 C587 1.384 1_554 S
C587 H559 0.929 . S
C587 C584 1.391 . S
C587 C586 1.384 1_556 S
N588 Co532 2.257 . S
N588 C585 1.391 . S
N588 C589 1.388 . S
C589 H560 0.930 . S
C589 C584 1.391 1_554 S
C589 N588 1.388 . S
Co590 O592 2.143 . S
Co590 O598 2.074 . S
Co590 O601 2.093 . S
Co590 O614 2.097 . S
Co590 N631 2.151 . S
Co590 N639 2.214 . S
Co591 O592 2.160 . S
Co591 O597 2.058 . S
Co591 O607 2.057 . S
Co591 O622 2.037 . S
Co591 N626 2.145 1_565 S
Co591 N647 2.257 . S
O592 Co590 2.143 . S
O592 Co591 2.160 . S
C593 O594 1.278 . S
C593 O601 1.224 . S
O594 C593 1.278 . S
C595 O596 1.245 . S
C595 O607 1.232 . S
O596 C595 1.245 . S
O597 Co591 2.058 . S
O597 C623 1.269 . S
O598 Co590 2.074 . S
O598 C623 1.257 . S
H599 C624 0.930 . S
H600 C630 0.930 . S
O601 Co590 2.093 . S
O601 C593 1.224 . S
H602 C634 0.929 . S
H603 C636 0.930 . S
H604 C637 0.930 . S
H605 C635 0.929 . S
H606 C638 0.928 . S
O607 Co591 2.057 . S
O607 C595 1.232 . S
H608 C627 0.929 . S
H609 C628 0.929 . S
H610 C640 0.931 . S
H611 C632 0.929 . S
H612 C641 0.930 . S
H613 C633 0.931 . S
O614 Co590 2.097 . S
O614 C642 1.214 . S
H615 C643 0.929 . S
H616 C644 0.929 . S
H617 C645 0.930 . S
H618 C646 0.929 . S
H619 C648 0.930 . S
H620 C625 0.930 . S
H621 C629 0.930 . S
O622 Co591 2.037 . S
O622 C642 1.234 . S
C623 O597 1.269 . S
C623 O598 1.257 . S
C624 H599 0.930 . S
C624 C627 1.388 . S
C624 C629 1.418 . S
C625 H620 0.930 . S
C625 C628 1.404 . S
C625 C629 1.353 . S
N626 Co591 2.145 1_545 S
N626 C627 1.397 . S
N626 C628 1.334 . S
C627 H608 0.929 . S
C627 C624 1.388 . S
C627 N626 1.397 . S
C628 H609 0.929 . S
C628 C625 1.404 . S
C628 N626 1.334 . S
C629 H621 0.930 . S
C629 C624 1.418 . S
C629 C625 1.353 . S
C630 H600 0.930 . S
C630 N631 1.330 . S
C630 C632 1.446 . S
N631 Co590 2.151 . S
N631 C630 1.330 . S
N631 C635 1.418 . S
C632 H611 0.929 . S
C632 C630 1.446 . S
C632 C633 1.332 . S
C633 H613 0.931 . S
C633 C632 1.332 . S
C633 C634 1.267 . S
C634 H602 0.929 . S
C634 C633 1.267 . S
C634 C635 1.251 . S
C635 H605 0.929 . S
C635 N631 1.418 . S
C635 C634 1.251 . S
C636 H603 0.930 . S
C636 C638 1.406 1_455 S
C636 C641 1.261 . S
C637 H604 0.930 . S
C637 N639 1.325 . S
C637 C640 1.357 1_655 S
C638 H606 0.928 . S
C638 C636 1.406 1_655 S
C638 N639 1.261 . S
N639 Co590 2.214 . S
N639 C637 1.325 . S
N639 C638 1.261 . S
C640 H610 0.931 . S
C640 C637 1.357 1_455 S
C640 C641 1.312 . S
C641 H612 0.930 . S
C641 C636 1.261 . S
C641 C640 1.312 . S
C642 O614 1.214 . S
C642 O622 1.234 . S
C643 H615 0.929 . S
C643 C646 1.391 . S
C643 C648 1.391 1_545 S
C644 H616 0.929 . S
C644 C645 1.390 . S
C644 N647 1.391 1_545 S
C645 H617 0.930 . S
C645 C644 1.390 . S
C645 C646 1.392 . S
C646 H618 0.929 . S
C646 C643 1.391 . S
C646 C645 1.392 . S
N647 Co591 2.257 . S
N647 C644 1.391 1_565 S
N647 C648 1.388 . S
C648 H619 0.930 . S
C648 C643 1.391 1_565 S
C648 N647 1.388 . S
Co649 O651 2.143 . S
Co649 O657 2.074 . S
Co649 O660 2.093 . S
Co649 O673 2.097 . S
Co649 N690 2.151 . S
Co649 N698 2.214 . S
Co650 O651 2.160 . S
Co650 O656 2.058 . S
Co650 O666 2.057 . S
Co650 O681 2.037 . S
Co650 N685 2.145 1_455 S
Co650 N706 2.257 . S
O651 Co649 2.143 . S
O651 Co650 2.160 . S
C652 O653 1.278 . S
C652 O660 1.224 . S
O653 C652 1.278 . S
C654 O655 1.245 . S
C654 O666 1.232 . S
O655 C654 1.245 . S
O656 Co650 2.058 . S
O656 C682 1.269 . S
O657 Co649 2.074 . S
O657 C682 1.257 . S
H658 C683 0.930 . S
H659 C689 0.930 . S
O660 Co649 2.093 . S
O660 C652 1.224 . S
H661 C693 0.929 . S
H662 C695 0.930 . S
H663 C696 0.930 . S
H664 C694 0.929 . S
H665 C697 0.928 . S
O666 Co650 2.057 . S
O666 C654 1.232 . S
H667 C686 0.929 . S
H668 C687 0.929 . S
H669 C699 0.931 . S
H670 C691 0.929 . S
H671 C700 0.930 . S
H672 C692 0.931 . S
O673 Co649 2.097 . S
O673 C701 1.214 . S
H674 C702 0.929 . S
H675 C703 0.929 . S
H676 C704 0.930 . S
H677 C705 0.929 . S
H678 C707 0.930 . S
H679 C684 0.930 . S
H680 C688 0.930 . S
O681 Co650 2.037 . S
O681 C701 1.234 . S
C682 O656 1.269 . S
C682 O657 1.257 . S
C683 H658 0.930 . S
C683 C686 1.388 . S
C683 C688 1.418 . S
C684 H679 0.930 . S
C684 C687 1.404 . S
C684 C688 1.353 . S
N685 Co650 2.145 1_655 S
N685 C686 1.397 . S
N685 C687 1.334 . S
C686 H667 0.929 . S
C686 C683 1.388 . S
C686 N685 1.397 . S
C687 H668 0.929 . S
C687 C684 1.404 . S
C687 N685 1.334 . S
C688 H680 0.930 . S
C688 C683 1.418 . S
C688 C684 1.353 . S
C689 H659 0.930 . S
C689 N690 1.330 . S
C689 C691 1.446 . S
N690 Co649 2.151 . S
N690 C689 1.330 . S
N690 C694 1.418 . S
C691 H670 0.929 . S
C691 C689 1.446 . S
C691 C692 1.332 . S
C692 H672 0.931 . S
C692 C691 1.332 . S
C692 C693 1.267 . S
C693 H661 0.929 . S
C693 C692 1.267 . S
C693 C694 1.251 . S
C694 H664 0.929 . S
C694 N690 1.418 . S
C694 C693 1.251 . S
C695 H662 0.930 . S
C695 C697 1.406 . S
C695 C700 1.261 . S
C696 H663 0.930 . S
C696 N698 1.325 . S
C696 C699 1.357 . S
C697 H665 0.928 . S
C697 C695 1.406 . S
C697 N698 1.261 . S
N698 Co649 2.214 . S
N698 C696 1.325 . S
N698 C697 1.261 . S
C699 H669 0.931 . S
C699 C696 1.357 . S
C699 C700 1.312 . S
C700 H671 0.930 . S
C700 C695 1.261 . S
C700 C699 1.312 . S
C701 O673 1.214 . S
C701 O681 1.234 . S
C702 H674 0.929 . S
C702 C705 1.391 . S
C702 C707 1.391 1_655 S
C703 H675 0.929 . S
C703 C704 1.390 . S
C703 N706 1.391 1_655 S
C704 H676 0.930 . S
C704 C703 1.390 . S
C704 C705 1.392 . S
C705 H677 0.929 . S
C705 C702 1.391 . S
C705 C704 1.392 . S
N706 Co650 2.257 . S
N706 C703 1.391 1_455 S
N706 C707 1.388 . S
C707 H678 0.930 . S
C707 C702 1.391 1_455 S
C707 N706 1.388 . S
Co708 O710 2.143 . S
Co708 O716 2.074 . S
Co708 O719 2.093 . S
Co708 O732 2.097 . S
Co708 N749 2.151 . S
Co708 N757 2.214 . S
Co709 O710 2.160 . S
Co709 O715 2.058 . S
Co709 O725 2.057 . S
Co709 O740 2.037 . S
Co709 N744 2.145 1_565 S
Co709 N765 2.257 . S
O710 Co708 2.143 . S
O710 Co709 2.160 . S
C711 O712 1.278 . S
C711 O719 1.224 . S
O712 C711 1.278 . S
C713 O714 1.245 . S
C713 O725 1.232 . S
O714 C713 1.245 . S
O715 Co709 2.058 . S
O715 C741 1.269 . S
O716 Co708 2.074 . S
O716 C741 1.257 . S
H717 C742 0.930 . S
H718 C748 0.930 . S
O719 Co708 2.093 . S
O719 C711 1.224 . S
H720 C752 0.929 . S
H721 C754 0.930 . S
H722 C755 0.930 . S
H723 C753 0.929 . S
H724 C756 0.928 . S
O725 Co709 2.057 . S
O725 C713 1.232 . S
H726 C745 0.929 . S
H727 C746 0.929 . S
H728 C758 0.931 . S
H729 C750 0.929 . S
H730 C759 0.930 . S
H731 C751 0.931 . S
O732 Co708 2.097 . S
O732 C760 1.214 . S
H733 C761 0.929 . S
H734 C762 0.929 . S
H735 C763 0.930 . S
H736 C764 0.929 . S
H737 C766 0.930 . S
H738 C743 0.930 . S
H739 C747 0.930 . S
O740 Co709 2.037 . S
O740 C760 1.234 . S
C741 O715 1.269 . S
C741 O716 1.257 . S
C742 H717 0.930 . S
C742 C745 1.388 . S
C742 C747 1.418 . S
C743 H738 0.930 . S
C743 C746 1.404 . S
C743 C747 1.353 . S
N744 Co709 2.145 1_545 S
N744 C745 1.397 . S
N744 C746 1.334 . S
C745 H726 0.929 . S
C745 C742 1.388 . S
C745 N744 1.397 . S
C746 H727 0.929 . S
C746 C743 1.404 . S
C746 N744 1.334 . S
C747 H739 0.930 . S
C747 C742 1.418 . S
C747 C743 1.353 . S
C748 H718 0.930 . S
C748 N749 1.330 . S
C748 C750 1.446 . S
N749 Co708 2.151 . S
N749 C748 1.330 . S
N749 C753 1.418 . S
C750 H729 0.929 . S
C750 C748 1.446 . S
C750 C751 1.332 . S
C751 H731 0.931 . S
C751 C750 1.332 . S
C751 C752 1.267 . S
C752 H720 0.929 . S
C752 C751 1.267 . S
C752 C753 1.251 . S
C753 H723 0.929 . S
C753 N749 1.418 . S
C753 C752 1.251 . S
C754 H721 0.930 . S
C754 C756 1.406 . S
C754 C759 1.261 . S
C755 H722 0.930 . S
C755 N757 1.325 . S
C755 C758 1.357 . S
C756 H724 0.928 . S
C756 C754 1.406 . S
C756 N757 1.261 . S
N757 Co708 2.214 . S
N757 C755 1.325 . S
N757 C756 1.261 . S
C758 H728 0.931 . S
C758 C755 1.357 . S
C758 C759 1.312 . S
C759 H730 0.930 . S
C759 C754 1.261 . S
C759 C758 1.312 . S
C760 O732 1.214 . S
C760 O740 1.234 . S
C761 H733 0.929 . S
C761 C764 1.391 . S
C761 C766 1.391 1_545 S
C762 H734 0.929 . S
C762 C763 1.390 . S
C762 N765 1.391 1_545 S
C763 H735 0.930 . S
C763 C762 1.390 . S
C763 C764 1.392 . S
C764 H736 0.929 . S
C764 C761 1.391 . S
C764 C763 1.392 . S
N765 Co709 2.257 . S
N765 C762 1.391 1_565 S
N765 C766 1.388 . S
C766 H737 0.930 . S
C766 C761 1.391 1_565 S
C766 N765 1.388 . S
Co767 O769 2.143 . S
Co767 O775 2.074 . S
Co767 O778 2.093 . S
Co767 O791 2.097 . S
Co767 N808 2.151 . S
Co767 N816 2.214 . S
Co768 O769 2.160 . S
Co768 O774 2.058 . S
Co768 O784 2.057 . S
Co768 O799 2.037 . S
Co768 N803 2.145 1_455 S
Co768 N824 2.257 . S
O769 Co767 2.143 . S
O769 Co768 2.160 . S
C770 O771 1.278 . S
C770 O778 1.224 . S
O771 C770 1.278 . S
C772 O773 1.245 . S
C772 O784 1.232 . S
O773 C772 1.245 . S
O774 Co768 2.058 . S
O774 C800 1.269 . S
O775 Co767 2.074 . S
O775 C800 1.257 . S
H776 C801 0.930 . S
H777 C807 0.930 . S
O778 Co767 2.093 . S
O778 C770 1.224 . S
H779 C811 0.929 . S
H780 C813 0.930 . S
H781 C814 0.930 . S
H782 C812 0.929 . S
H783 C815 0.928 . S
O784 Co768 2.057 . S
O784 C772 1.232 . S
H785 C804 0.929 . S
H786 C805 0.929 . S
H787 C817 0.931 . S
H788 C809 0.929 . S
H789 C818 0.930 . S
H790 C810 0.931 . S
O791 Co767 2.097 . S
O791 C819 1.214 . S
H792 C820 0.929 . S
H793 C821 0.929 . S
H794 C822 0.930 . S
H795 C823 0.929 . S
H796 C825 0.930 . S
H797 C802 0.930 . S
H798 C806 0.930 . S
O799 Co768 2.037 . S
O799 C819 1.234 . S
C800 O774 1.269 . S
C800 O775 1.257 . S
C801 H776 0.930 . S
C801 C804 1.388 . S
C801 C806 1.418 . S
C802 H797 0.930 . S
C802 C805 1.404 . S
C802 C806 1.353 . S
N803 Co768 2.145 1_655 S
N803 C804 1.397 . S
N803 C805 1.334 . S
C804 H785 0.929 . S
C804 C801 1.388 . S
C804 N803 1.397 . S
C805 H786 0.929 . S
C805 C802 1.404 . S
C805 N803 1.334 . S
C806 H798 0.930 . S
C806 C801 1.418 . S
C806 C802 1.353 . S
C807 H777 0.930 . S
C807 N808 1.330 . S
C807 C809 1.446 . S
N808 Co767 2.151 . S
N808 C807 1.330 . S
N808 C812 1.418 . S
C809 H788 0.929 . S
C809 C807 1.446 . S
C809 C810 1.332 . S
C810 H790 0.931 . S
C810 C809 1.332 . S
C810 C811 1.267 . S
C811 H779 0.929 . S
C811 C810 1.267 . S
C811 C812 1.251 . S
C812 H782 0.929 . S
C812 N808 1.418 . S
C812 C811 1.251 . S
C813 H780 0.930 . S
C813 C815 1.406 1_565 S
C813 C818 1.261 . S
C814 H781 0.930 . S
C814 N816 1.325 . S
C814 C817 1.357 1_545 S
C815 H783 0.928 . S
C815 C813 1.406 1_545 S
C815 N816 1.261 . S
N816 Co767 2.214 . S
N816 C814 1.325 . S
N816 C815 1.261 . S
C817 H787 0.931 . S
C817 C814 1.357 1_565 S
C817 C818 1.312 . S
C818 H789 0.930 . S
C818 C813 1.261 . S
C818 C817 1.312 . S
C819 O791 1.214 . S
C819 O799 1.234 . S
C820 H792 0.929 . S
C820 C823 1.391 . S
C820 C825 1.391 1_655 S
C821 H793 0.929 . S
C821 C822 1.390 . S
C821 N824 1.391 1_655 S
C822 H794 0.930 . S
C822 C821 1.390 . S
C822 C823 1.392 . S
C823 H795 0.929 . S
C823 C820 1.391 . S
C823 C822 1.392 . S
N824 Co768 2.257 . S
N824 C821 1.391 1_455 S
N824 C825 1.388 . S
C825 H796 0.930 . S
C825 C820 1.391 1_455 S
C825 N824 1.388 . S
Co826 O828 2.143 . S
Co826 O834 2.074 1_554 S
Co826 O837 2.093 . S
Co826 O850 2.097 . S
Co826 N867 2.151 . S
Co826 N875 2.214 . S
Co827 O828 2.160 1_556 S
Co827 O833 2.058 . S
Co827 O843 2.057 . S
Co827 O858 2.037 . S
Co827 N862 2.145 . S
Co827 N883 2.257 1_556 S
O828 Co826 2.143 . S
O828 Co827 2.160 1_554 S
C829 O830 1.278 . S
C829 O837 1.224 . S
O830 C829 1.278 . S
C831 O832 1.245 1_556 S
C831 O843 1.232 . S
O832 C831 1.245 1_554 S
O833 Co827 2.058 . S
O833 C859 1.269 . S
O834 Co826 2.074 1_556 S
O834 C859 1.257 . S
H835 C860 0.930 . S
H836 C866 0.930 . S
O837 Co826 2.093 . S
O837 C829 1.224 . S
H838 C870 0.929 . S
H839 C872 0.930 . S
H840 C873 0.930 . S
H841 C871 0.929 . S
H842 C874 0.928 . S
O843 Co827 2.057 . S
O843 C831 1.232 . S
H844 C863 0.929 . S
H845 C864 0.929 . S
H846 C876 0.931 . S
H847 C868 0.929 . S
H848 C877 0.930 . S
H849 C869 0.931 . S
O850 Co826 2.097 . S
O850 C878 1.214 . S
H851 C879 0.929 . S
H852 C880 0.929 . S
H853 C881 0.930 . S
H854 C882 0.929 . S
H855 C884 0.930 . S
H856 C861 0.930 . S
H857 C865 0.930 . S
O858 Co827 2.037 . S
O858 C878 1.234 1_556 S
C859 O833 1.269 . S
C859 O834 1.257 . S
C860 H835 0.930 . S
C860 C863 1.388 . S
C860 C865 1.418 . S
C861 H856 0.930 . S
C861 C864 1.404 . S
C861 C865 1.353 . S
N862 Co827 2.145 . S
N862 C863 1.397 . S
N862 C864 1.334 . S
C863 H844 0.929 . S
C863 C860 1.388 . S
C863 N862 1.397 . S
C864 H845 0.929 . S
C864 C861 1.404 . S
C864 N862 1.334 . S
C865 H857 0.930 . S
C865 C860 1.418 . S
C865 C861 1.353 . S
C866 H836 0.930 . S
C866 N867 1.330 . S
C866 C868 1.446 . S
N867 Co826 2.151 . S
N867 C866 1.330 . S
N867 C871 1.418 1_554 S
C868 H847 0.929 . S
C868 C866 1.446 . S
C868 C869 1.332 . S
C869 H849 0.931 . S
C869 C868 1.332 . S
C869 C870 1.267 1_554 S
C870 H838 0.929 . S
C870 C869 1.267 1_556 S
C870 C871 1.251 . S
C871 H841 0.929 . S
C871 N867 1.418 1_556 S
C871 C870 1.251 . S
C872 H839 0.930 . S
C872 C874 1.406 1_455 S
C872 C877 1.261 . S
C873 H840 0.930 . S
C873 N875 1.325 1_556 S
C873 C876 1.357 1_655 S
C874 H842 0.928 . S
C874 C872 1.406 1_655 S
C874 N875 1.261 . S
N875 Co826 2.214 . S
N875 C873 1.325 1_554 S
N875 C874 1.261 . S
C876 H846 0.931 . S
C876 C873 1.357 1_455 S
C876 C877 1.312 1_556 S
C877 H848 0.930 . S
C877 C872 1.261 . S
C877 C876 1.312 1_554 S
C878 O850 1.214 . S
C878 O858 1.234 1_554 S
C879 H851 0.929 . S
C879 C882 1.391 . S
C879 C884 1.391 . S
C880 H852 0.929 . S
C880 C881 1.390 . S
C880 N883 1.391 . S
C881 H853 0.930 . S
C881 C880 1.390 . S
C881 C882 1.392 . S
C882 H854 0.929 . S
C882 C879 1.391 . S
C882 C881 1.392 . S
N883 Co827 2.257 1_554 S
N883 C880 1.391 . S
N883 C884 1.388 . S
C884 H855 0.930 . S
C884 C879 1.391 . S
C884 N883 1.388 . S
Co885 O887 2.143 . S
Co885 O893 2.074 . S
Co885 O896 2.093 . S
Co885 O909 2.097 . S
Co885 N926 2.151 . S
Co885 N934 2.214 . S
Co886 O887 2.160 . S
Co886 O892 2.058 . S
Co886 O902 2.057 . S
Co886 O917 2.037 . S
Co886 N921 2.145 . S
Co886 N942 2.257 . S
O887 Co885 2.143 . S
O887 Co886 2.160 . S
C888 O889 1.278 . S
C888 O896 1.224 . S
O889 C888 1.278 . S
C890 O891 1.245 . S
C890 O902 1.232 . S
O891 C890 1.245 . S
O892 Co886 2.058 . S
O892 C918 1.269 . S
O893 Co885 2.074 . S
O893 C918 1.257 . S
H894 C919 0.930 . S
H895 C925 0.930 . S
O896 Co885 2.093 . S
O896 C888 1.224 . S
H897 C929 0.929 . S
H898 C931 0.930 . S
H899 C932 0.930 . S
H900 C930 0.929 . S
H901 C933 0.928 . S
O902 Co886 2.057 . S
O902 C890 1.232 . S
H903 C922 0.929 . S
H904 C923 0.929 . S
H905 C935 0.931 . S
H906 C927 0.929 . S
H907 C936 0.930 . S
H908 C928 0.931 . S
O909 Co885 2.097 . S
O909 C937 1.214 . S
H910 C938 0.929 . S
H911 C939 0.929 . S
H912 C940 0.930 . S
H913 C941 0.929 . S
H914 C943 0.930 . S
H915 C920 0.930 . S
H916 C924 0.930 . S
O917 Co886 2.037 . S
O917 C937 1.234 . S
C918 O892 1.269 . S
C918 O893 1.257 . S
C919 H894 0.930 . S
C919 C922 1.388 . S
C919 C924 1.418 . S
C920 H915 0.930 . S
C920 C923 1.404 . S
C920 C924 1.353 . S
N921 Co886 2.145 . S
N921 C922 1.397 . S
N921 C923 1.334 . S
C922 H903 0.929 . S
C922 C919 1.388 . S
C922 N921 1.397 . S
C923 H904 0.929 . S
C923 C920 1.404 . S
C923 N921 1.334 . S
C924 H916 0.930 . S
C924 C919 1.418 . S
C924 C920 1.353 . S
C925 H895 0.930 . S
C925 N926 1.330 . S
C925 C927 1.446 . S
N926 Co885 2.151 . S
N926 C925 1.330 . S
N926 C930 1.418 . S
C927 H906 0.929 . S
C927 C925 1.446 . S
C927 C928 1.332 . S
C928 H908 0.931 . S
C928 C927 1.332 . S
C928 C929 1.267 . S
C929 H897 0.929 . S
C929 C928 1.267 . S
C929 C930 1.251 . S
C930 H900 0.929 . S
C930 N926 1.418 . S
C930 C929 1.251 . S
C931 H898 0.930 . S
C931 C933 1.406 . S
C931 C936 1.261 . S
C932 H899 0.930 . S
C932 N934 1.325 . S
C932 C935 1.357 . S
C933 H901 0.928 . S
C933 C931 1.406 . S
C933 N934 1.261 . S
N934 Co885 2.214 . S
N934 C932 1.325 . S
N934 C933 1.261 . S
C935 H905 0.931 . S
C935 C932 1.357 . S
C935 C936 1.312 . S
C936 H907 0.930 . S
C936 C931 1.261 . S
C936 C935 1.312 . S
C937 O909 1.214 . S
C937 O917 1.234 . S
C938 H910 0.929 . S
C938 C941 1.391 . S
C938 C943 1.391 . S
C939 H911 0.929 . S
C939 C940 1.390 . S
C939 N942 1.391 . S
C940 H912 0.930 . S
C940 C939 1.390 . S
C940 C941 1.392 . S
C941 H913 0.929 . S
C941 C938 1.391 . S
C941 C940 1.392 . S
N942 Co886 2.257 . S
N942 C939 1.391 . S
N942 C943 1.388 . S
C943 H914 0.930 . S
C943 C938 1.391 . S
C943 N942 1.388 . S
C944 C945 1.387 . S
C944 H948 0.950 . S
C944 C953 1.390 . S
C945 C944 1.387 . S
C945 C947 1.387 . S
H946 C953 0.950 . S
C947 C945 1.387 . S
C947 C949 1.390 . S
C947 H951 0.950 . S
H948 C944 0.950 . S
C949 C947 1.390 . S
C949 C950 1.387 . S
C949 H952 0.950 . S
C950 C949 1.387 . S
C950 C953 1.387 . S
H951 C947 0.950 . S
H952 C949 0.950 . S
C953 C944 1.390 . S
C953 H946 0.950 . S
C953 C950 1.387 . S
C954 C955 1.387 . S
C954 H958 0.950 . S
C954 C963 1.390 . S
C955 C954 1.387 . S
C955 C957 1.387 . S
H956 C963 0.950 . S
C957 C955 1.387 . S
C957 C959 1.390 . S
C957 H961 0.950 . S
H958 C954 0.950 . S
C959 C957 1.390 . S
C959 C960 1.387 . S
C959 H962 0.950 . S
C960 C959 1.387 . S
C960 C963 1.387 . S
H961 C957 0.950 . S
H962 C959 0.950 . S
C963 C954 1.390 . S
C963 H956 0.950 . S
C963 C960 1.387 . S
C964 C965 1.387 . S
C964 H968 0.950 . S
C964 C973 1.390 . S
C965 C964 1.387 . S
C965 C967 1.387 . S
H966 C973 0.950 . S
C967 C965 1.387 . S
C967 C969 1.390 . S
C967 H971 0.950 . S
H968 C964 0.950 . S
C969 C967 1.390 . S
C969 C970 1.387 . S
C969 H972 0.950 . S
C970 C969 1.387 . S
C970 C973 1.387 . S
H971 C967 0.950 . S
H972 C969 0.950 . S
C973 C964 1.390 . S
C973 H966 0.950 . S
C973 C970 1.387 . S
C974 C975 1.387 . S
C974 H978 0.950 . S
C974 C983 1.390 . S
C975 C974 1.387 . S
C975 C977 1.387 . S
H976 C983 0.950 . S
C977 C975 1.387 . S
C977 C979 1.390 . S
C977 H981 0.950 . S
H978 C974 0.950 . S
C979 C977 1.390 . S
C979 C980 1.387 . S
C979 H982 0.950 . S
C980 C979 1.387 . S
C980 C983 1.387 . S
H981 C977 0.950 . S
H982 C979 0.950 . S
C983 C974 1.390 . S
C983 H976 0.950 . S
C983 C980 1.387 . S
C984 C985 1.387 . S
C984 H988 0.950 . S
C984 C993 1.390 . S
C985 C984 1.387 . S
C985 C987 1.387 . S
H986 C993 0.950 . S
C987 C985 1.387 . S
C987 C989 1.390 . S
C987 H991 0.950 . S
H988 C984 0.950 . S
C989 C987 1.390 . S
C989 C990 1.387 . S
C989 H992 0.950 . S
C990 C989 1.387 . S
C990 C993 1.387 . S
H991 C987 0.950 . S
H992 C989 0.950 . S
C993 C984 1.390 . S
C993 H986 0.950 . S
C993 C990 1.387 . S
C994 C995 1.387 . S
C994 H998 0.950 . S
C994 C1003 1.390 . S
C995 C994 1.387 . S
C995 C997 1.387 . S
H996 C1003 0.950 . S
C997 C995 1.387 . S
C997 C999 1.390 . S
C997 H1001 0.950 . S
H998 C994 0.950 . S
C999 C997 1.390 . S
C999 C1000 1.387 . S
C999 H1002 0.950 . S
C1000 C999 1.387 . S
C1000 C1003 1.387 . S
H1001 C997 0.950 . S
H1002 C999 0.950 . S
C1003 C994 1.390 . S
C1003 H996 0.950 . S
C1003 C1000 1.387 . S
C1004 C1005 1.387 . S
C1004 H1008 0.950 . S
C1004 C1013 1.390 . S
C1005 C1004 1.387 . S
C1005 C1007 1.387 . S
H1006 C1013 0.950 . S
C1007 C1005 1.387 . S
C1007 C1009 1.390 . S
C1007 H1011 0.950 . S
H1008 C1004 0.950 . S
C1009 C1007 1.390 . S
C1009 C1010 1.387 . S
C1009 H1012 0.950 . S
C1010 C1009 1.387 . S
C1010 C1013 1.387 . S
H1011 C1007 0.950 . S
H1012 C1009 0.950 . S
C1013 C1004 1.390 . S
C1013 H1006 0.950 . S
C1013 C1010 1.387 . S
C1014 C1015 1.387 . S
C1014 H1018 0.950 . S
C1014 C1023 1.390 . S
C1015 C1014 1.387 . S
C1015 C1017 1.387 . S
H1016 C1023 0.950 . S
C1017 C1015 1.387 . S
C1017 C1019 1.390 . S
C1017 H1021 0.950 . S
H1018 C1014 0.950 . S
C1019 C1017 1.390 . S
C1019 C1020 1.387 . S
C1019 H1022 0.950 . S
C1020 C1019 1.387 . S
C1020 C1023 1.387 . S
H1021 C1017 0.950 . S
H1022 C1019 0.950 . S
C1023 C1014 1.390 . S
C1023 H1016 0.950 . S
C1023 C1020 1.387 . S
C1024 C1025 1.387 . S
C1024 H1028 0.950 . S
C1024 C1033 1.390 1_445 S
C1025 C1024 1.387 . S
C1025 C1027 1.387 . S
H1026 C1033 0.950 . S
C1027 C1025 1.387 . S
C1027 C1029 1.390 1_445 S
C1027 H1031 0.950 . S
H1028 C1024 0.950 . S
C1029 C1027 1.390 1_665 S
C1029 C1030 1.387 . S
C1029 H1032 0.950 . S
C1030 C1029 1.387 . S
C1030 C1033 1.387 . S
H1031 C1027 0.950 . S
H1032 C1029 0.950 . S
C1033 C1024 1.390 1_665 S
C1033 H1026 0.950 . S
C1033 C1030 1.387 . S
C1034 C1035 1.387 . S
C1034 H1038 0.950 . S
C1034 C1043 1.390 1_655 S
C1035 C1034 1.387 . S
C1035 C1037 1.387 . S
H1036 C1043 0.950 . S
C1037 C1035 1.387 . S
C1037 C1039 1.390 1_655 S
C1037 H1041 0.950 . S
H1038 C1034 0.950 . S
C1039 C1037 1.390 1_455 S
C1039 C1040 1.387 . S
C1039 H1042 0.950 . S
C1040 C1039 1.387 . S
C1040 C1043 1.387 . S
H1041 C1037 0.950 . S
H1042 C1039 0.950 . S
C1043 C1034 1.390 1_455 S
C1043 H1036 0.950 . S
C1043 C1040 1.387 . S
C1044 C1045 1.387 . S
C1044 H1048 0.950 . S
C1044 C1053 1.390 . S
C1045 C1044 1.387 . S
C1045 C1047 1.387 . S
H1046 C1053 0.950 . S
C1047 C1045 1.387 . S
C1047 C1049 1.390 . S
C1047 H1051 0.950 . S
H1048 C1044 0.950 . S
C1049 C1047 1.390 . S
C1049 C1050 1.387 . S
C1049 H1052 0.950 . S
C1050 C1049 1.387 . S
C1050 C1053 1.387 . S
H1051 C1047 0.950 . S
H1052 C1049 0.950 . S
C1053 C1044 1.390 . S
C1053 H1046 0.950 . S
C1053 C1050 1.387 . S
C1054 C1055 1.387 . S
C1054 H1058 0.950 1_554 S
C1054 C1063 1.390 1_565 S
C1055 C1054 1.387 . S
C1055 C1057 1.387 . S
H1056 C1063 0.950 1_556 S
C1057 C1055 1.387 . S
C1057 C1059 1.390 1_565 S
C1057 H1061 0.950 . S
H1058 C1054 0.950 1_556 S
C1059 C1057 1.390 1_545 S
C1059 C1060 1.387 . S
C1059 H1062 0.950 . S
C1060 C1059 1.387 . S
C1060 C1063 1.387 . S
H1061 C1057 0.950 . S
H1062 C1059 0.950 . S
C1063 C1054 1.390 1_545 S
C1063 H1056 0.950 1_554 S
C1063 C1060 1.387 . S
C1064 C1065 1.387 1_556 S
C1064 H1068 0.950 . S
C1064 C1073 1.390 1_455 S
C1065 C1064 1.387 1_554 S
C1065 C1067 1.387 . S
H1066 C1073 0.950 . S
C1067 C1065 1.387 . S
C1067 C1069 1.390 1_455 S
C1067 H1071 0.950 . S
H1068 C1064 0.950 . S
C1069 C1067 1.390 1_655 S
C1069 C1070 1.387 . S
C1069 H1072 0.950 . S
C1070 C1069 1.387 . S
C1070 C1073 1.387 1_554 S
H1071 C1067 0.950 . S
H1072 C1069 0.950 . S
C1073 C1064 1.390 1_655 S
C1073 H1066 0.950 . S
C1073 C1070 1.387 1_556 S
C1074 C1075 1.387 . S
C1074 H1078 0.950 . S
C1074 C1083 1.390 . S
C1075 C1074 1.387 . S
C1075 C1077 1.387 . S
H1076 C1083 0.950 . S
C1077 C1075 1.387 . S
C1077 C1079 1.390 . S
C1077 H1081 0.950 . S
H1078 C1074 0.950 . S
C1079 C1077 1.390 . S
C1079 C1080 1.387 . S
C1079 H1082 0.950 . S
C1080 C1079 1.387 . S
C1080 C1083 1.387 . S
H1081 C1077 0.950 . S
H1082 C1079 0.950 . S
C1083 C1074 1.390 . S
C1083 H1076 0.950 . S
C1083 C1080 1.387 . S
C1084 C1085 1.387 . S
C1084 H1088 0.950 . S
C1084 C1093 1.390 1_545 S
C1085 C1084 1.387 . S
C1085 C1087 1.387 . S
H1086 C1093 0.950 . S
C1087 C1085 1.387 . S
C1087 C1089 1.390 1_545 S
C1087 H1091 0.950 . S
H1088 C1084 0.950 . S
C1089 C1087 1.390 1_565 S
C1089 C1090 1.387 . S
C1089 H1092 0.950 . S
C1090 C1089 1.387 . S
C1090 C1093 1.387 . S
H1091 C1087 0.950 . S
H1092 C1089 0.950 . S
C1093 C1084 1.390 1_565 S
C1093 H1086 0.950 . S
C1093 C1090 1.387 . S
C1094 C1095 1.387 . S
C1094 H1098 0.950 . S
C1094 C1103 1.390 1_445 S
C1095 C1094 1.387 . S
C1095 C1097 1.387 . S
H1096 C1103 0.950 . S
C1097 C1095 1.387 . S
C1097 C1099 1.390 1_445 S
C1097 H1101 0.950 . S
H1098 C1094 0.950 . S
C1099 C1097 1.390 1_665 S
C1099 C1100 1.387 . S
C1099 H1102 0.950 . S
C1100 C1099 1.387 . S
C1100 C1103 1.387 . S
H1101 C1097 0.950 . S
H1102 C1099 0.950 . S
C1103 C1094 1.390 1_665 S
C1103 H1096 0.950 . S
C1103 C1100 1.387 . S
C1104 C1105 1.387 . S
C1104 H1108 0.950 . S
C1104 C1113 1.390 . S
C1105 C1104 1.387 . S
C1105 C1107 1.387 . S
H1106 C1113 0.950 . S
C1107 C1105 1.387 . S
C1107 C1109 1.390 . S
C1107 H1111 0.950 . S
H1108 C1104 0.950 . S
C1109 C1107 1.390 . S
C1109 C1110 1.387 . S
C1109 H1112 0.950 . S
C1110 C1109 1.387 . S
C1110 C1113 1.387 . S
H1111 C1107 0.950 . S
H1112 C1109 0.950 . S
C1113 C1104 1.390 . S
C1113 H1106 0.950 . S
C1113 C1110 1.387 . S
C1114 C1115 1.387 . S
C1114 H1118 0.950 . S
C1114 C1123 1.390 . S
C1115 C1114 1.387 . S
C1115 C1117 1.387 . S
H1116 C1123 0.950 . S
C1117 C1115 1.387 . S
C1117 C1119 1.390 . S
C1117 H1121 0.950 . S
H1118 C1114 0.950 . S
C1119 C1117 1.390 . S
C1119 C1120 1.387 . S
C1119 H1122 0.950 . S
C1120 C1119 1.387 . S
C1120 C1123 1.387 . S
H1121 C1117 0.950 . S
H1122 C1119 0.950 . S
C1123 C1114 1.390 . S
C1123 H1116 0.950 . S
C1123 C1120 1.387 . S
C1124 C1125 1.387 . S
C1124 H1128 0.950 . S
C1124 C1133 1.390 . S
C1125 C1124 1.387 . S
C1125 C1127 1.387 . S
H1126 C1133 0.950 1_556 S
C1127 C1125 1.387 . S
C1127 C1129 1.390 . S
C1127 H1131 0.950 . S
H1128 C1124 0.950 . S
C1129 C1127 1.390 . S
C1129 C1130 1.387 1_554 S
C1129 H1132 0.950 1_554 S
C1130 C1129 1.387 1_556 S
C1130 C1133 1.387 1_556 S
H1131 C1127 0.950 . S
H1132 C1129 0.950 1_556 S
C1133 C1124 1.390 . S
C1133 H1126 0.950 1_554 S
C1133 C1130 1.387 1_554 S
C1134 C1135 1.387 . S
C1134 H1138 0.950 . S
C1134 C1143 1.390 . S
C1135 C1134 1.387 . S
C1135 C1137 1.387 . S
H1136 C1143 0.950 . S
C1137 C1135 1.387 . S
C1137 C1139 1.390 . S
C1137 H1141 0.950 . S
H1138 C1134 0.950 . S
C1139 C1137 1.390 . S
C1139 C1140 1.387 . S
C1139 H1142 0.950 . S
C1140 C1139 1.387 . S
C1140 C1143 1.387 . S
H1141 C1137 0.950 . S
H1142 C1139 0.950 . S
C1143 C1134 1.390 . S
C1143 H1136 0.950 . S
C1143 C1140 1.387 . S
C1144 C1145 1.387 . S
C1144 H1148 0.950 . S
C1144 C1153 1.390 . S
C1145 C1144 1.387 . S
C1145 C1147 1.387 . S
H1146 C1153 0.950 . S
C1147 C1145 1.387 . S
C1147 C1149 1.390 . S
C1147 H1151 0.950 . S
H1148 C1144 0.950 . S
C1149 C1147 1.390 . S
C1149 C1150 1.387 . S
C1149 H1152 0.950 . S
C1150 C1149 1.387 . S
C1150 C1153 1.387 . S
H1151 C1147 0.950 . S
H1152 C1149 0.950 . S
C1153 C1144 1.390 . S
C1153 H1146 0.950 . S
C1153 C1150 1.387 . S
C1154 C1155 1.387 . S
C1154 H1158 0.950 . S
C1154 C1163 1.390 . S
C1155 C1154 1.387 . S
C1155 C1157 1.387 . S
H1156 C1163 0.950 1_556 S
C1157 C1155 1.387 . S
C1157 C1159 1.390 . S
C1157 H1161 0.950 . S
H1158 C1154 0.950 . S
C1159 C1157 1.390 . S
C1159 C1160 1.387 1_554 S
C1159 H1162 0.942 1_554 S
C1160 C1159 1.387 1_556 S
C1160 C1163 1.387 1_556 S
H1161 C1157 0.950 . S
H1162 C1159 0.942 1_556 S
C1163 C1154 1.390 . S
C1163 H1156 0.950 1_554 S
C1163 C1160 1.387 1_554 S
C1164 C1165 1.387 . S
C1164 H1168 0.950 . S
C1164 C1173 1.390 . S
C1165 C1164 1.387 . S
C1165 C1167 1.387 . S
H1166 C1173 0.950 . S
C1167 C1165 1.387 . S
C1167 C1169 1.390 . S
C1167 H1171 0.950 . S
H1168 C1164 0.950 . S
C1169 C1167 1.390 . S
C1169 C1170 1.387 . S
C1169 H1172 0.950 . S
C1170 C1169 1.387 . S
C1170 C1173 1.387 . S
H1171 C1167 0.950 . S
H1172 C1169 0.950 . S
C1173 C1164 1.390 . S
C1173 H1166 0.950 . S
C1173 C1170 1.387 . S
C1174 C1175 1.387 . S
C1174 H1178 0.950 . S
C1174 C1183 1.390 . S
C1175 C1174 1.387 . S
C1175 C1177 1.387 . S
H1176 C1183 0.950 . S
C1177 C1175 1.387 . S
C1177 C1179 1.390 . S
C1177 H1181 0.950 . S
H1178 C1174 0.950 . S
C1179 C1177 1.390 . S
C1179 C1180 1.387 . S
C1179 H1182 0.950 . S
C1180 C1179 1.387 . S
C1180 C1183 1.387 . S
H1181 C1177 0.950 . S
H1182 C1179 0.950 . S
C1183 C1174 1.390 . S
C1183 H1176 0.950 . S
C1183 C1180 1.387 . S
C1184 C1185 1.387 1_554 S
C1184 H1188 0.950 1_554 S
C1184 C1193 1.390 . S
C1185 C1184 1.387 1_556 S
C1185 C1187 1.387 1_556 S
H1186 C1193 0.950 . S
C1187 C1185 1.387 1_554 S
C1187 C1189 1.390 . S
C1187 H1191 0.950 . S
H1188 C1184 0.950 1_556 S
C1189 C1187 1.390 . S
C1189 C1190 1.387 . S
C1189 H1192 0.950 . S
C1190 C1189 1.387 . S
C1190 C1193 1.387 . S
H1191 C1187 0.950 . S
H1192 C1189 0.950 . S
C1193 C1184 1.390 . S
C1193 H1186 0.950 . S
C1193 C1190 1.387 . S
C1194 C1195 1.387 . S
C1194 H1198 0.950 . S
C1194 C1203 1.390 . S
C1195 C1194 1.387 . S
C1195 C1197 1.387 . S
H1196 C1203 0.950 . S
C1197 C1195 1.387 . S
C1197 C1199 1.390 . S
C1197 H1201 0.950 . S
H1198 C1194 0.950 . S
C1199 C1197 1.390 . S
C1199 C1200 1.387 . S
C1199 H1202 0.950 . S
C1200 C1199 1.387 . S
C1200 C1203 1.387 . S
H1201 C1197 0.950 . S
H1202 C1199 0.950 . S
C1203 C1194 1.390 . S
C1203 H1196 0.950 . S
C1203 C1200 1.387 . S
C1204 C1205 1.387 . S
C1204 H1208 0.950 . S
C1204 C1213 1.390 . S
C1205 C1204 1.387 . S
C1205 C1207 1.387 . S
H1206 C1213 0.950 . S
C1207 C1205 1.387 . S
C1207 C1209 1.390 . S
C1207 H1211 0.950 . S
H1208 C1204 0.950 . S
C1209 C1207 1.390 . S
C1209 C1210 1.387 . S
C1209 H1212 0.950 . S
C1210 C1209 1.387 . S
C1210 C1213 1.387 . S
H1211 C1207 0.950 . S
H1212 C1209 0.950 . S
C1213 C1204 1.390 . S
C1213 H1206 0.950 . S
C1213 C1210 1.387 . S
C1214 C1215 1.387 . S
C1214 H1218 0.950 . S
C1214 C1223 1.390 . S
C1215 C1214 1.387 . S
C1215 C1217 1.387 . S
H1216 C1223 0.950 . S
C1217 C1215 1.387 . S
C1217 C1219 1.390 . S
C1217 H1221 0.950 . S
H1218 C1214 0.950 . S
C1219 C1217 1.390 . S
C1219 C1220 1.387 . S
C1219 H1222 0.950 . S
C1220 C1219 1.387 . S
C1220 C1223 1.387 . S
H1221 C1217 0.950 . S
H1222 C1219 0.950 . S
C1223 C1214 1.390 . S
C1223 H1216 0.950 . S
C1223 C1220 1.387 . S
C1224 C1225 1.387 . S
C1224 H1228 0.950 . S
C1224 C1233 1.390 . S
C1225 C1224 1.387 . S
C1225 C1227 1.387 . S
H1226 C1233 0.950 . S
C1227 C1225 1.387 . S
C1227 C1229 1.390 . S
C1227 H1231 0.950 . S
H1228 C1224 0.950 . S
C1229 C1227 1.390 . S
C1229 C1230 1.387 . S
C1229 H1232 0.950 . S
C1230 C1229 1.387 . S
C1230 C1233 1.387 . S
H1231 C1227 0.950 . S
H1232 C1229 0.950 . S
C1233 C1224 1.390 . S
C1233 H1226 0.950 . S
C1233 C1230 1.387 . S
C1234 C1235 1.387 . S
C1234 H1238 0.950 . S
C1234 C1243 1.390 . S
C1235 C1234 1.387 . S
C1235 C1237 1.387 . S
H1236 C1243 0.950 . S
C1237 C1235 1.387 . S
C1237 C1239 1.390 . S
C1237 H1241 0.950 . S
H1238 C1234 0.950 . S
C1239 C1237 1.390 . S
C1239 C1240 1.387 . S
C1239 H1242 0.950 . S
C1240 C1239 1.387 . S
C1240 C1243 1.387 . S
H1241 C1237 0.950 . S
H1242 C1239 0.950 . S
C1243 C1234 1.390 . S
C1243 H1236 0.950 . S
C1243 C1240 1.387 . S
C1244 C1245 1.387 . S
C1244 H1248 0.950 . S
C1244 C1253 1.390 . S
C1245 C1244 1.387 . S
C1245 C1247 1.387 . S
H1246 C1253 0.950 . S
C1247 C1245 1.387 . S
C1247 C1249 1.390 . S
C1247 H1251 0.950 . S
H1248 C1244 0.950 . S
C1249 C1247 1.390 . S
C1249 C1250 1.387 . S
C1249 H1252 0.950 . S
C1250 C1249 1.387 . S
C1250 C1253 1.387 . S
H1251 C1247 0.950 . S
H1252 C1249 0.950 . S
C1253 C1244 1.390 . S
C1253 H1246 0.950 . S
C1253 C1250 1.387 . S
C1254 C1255 1.387 . S
C1254 H1258 0.950 . S
C1254 C1263 1.390 . S
C1255 C1254 1.387 . S
C1255 C1257 1.387 . S
H1256 C1263 0.950 1_556 S
C1257 C1255 1.387 . S
C1257 C1259 1.390 . S
C1257 H1261 0.950 . S
H1258 C1254 0.950 . S
C1259 C1257 1.390 . S
C1259 C1260 1.387 1_554 S
C1259 H1262 0.950 . S
C1260 C1259 1.387 1_556 S
C1260 C1263 1.387 1_556 S
H1261 C1257 0.950 . S
H1262 C1259 0.950 . S
C1263 C1254 1.390 . S
C1263 H1256 0.950 1_554 S
C1263 C1260 1.387 1_554 S
C945 C359 1.540 . S
C950 C5 1.540 . S
C955 C418 1.543 . S
C960 C64 1.543 . S
C965 C123 1.540 . S
C970 C241 1.540 . S
C975 C182 1.543 . S
C980 C300 1.543 . S
C985 C477 1.540 . S
C990 C831 1.540 . S
C995 C890 1.543 . S
C1000 C536 1.543 . S
C1005 C595 1.540 . S
C1010 C713 1.540 . S
C1015 C654 1.543 . S
C1020 C772 1.543 . S
C1025 C52 1.474 . S
C1030 C642 1.474 . S
C1035 C111 1.473 . S
C1040 C701 1.473 . S
C1045 C170 1.474 . S
C1050 C524 1.474 . S
C1055 C229 1.473 . S
C1060 C583 1.473 . S
C1065 C288 1.474 . S
C1070 C878 1.474 . S
C1075 C937 1.473 . S
C1080 C347 1.473 . S
C1085 C406 1.473 . S
C1090 C760 1.473 . S
C1095 C819 1.474 . S
C1100 C465 1.474 . S
C1105 C800 0.808 . S
C1110 C33 0.809 . S
C1115 C92 0.808 . S
C1120 C859 0.809 . S
C1125 C918 0.814 . S
C1130 C151 0.814 . S
C1135 C741 0.814 . S
C1140 C210 0.814 . S
C1145 C682 0.814 . S
C1150 C269 0.814 . S
C1155 C328 0.813 . S
C1160 C505 0.812 . S
C1165 C387 0.811 . S
C1170 C564 0.812 . S
C1175 C446 0.812 . S
C1180 C623 0.811 . S
C1185 C770 1.570 . S
C1190 C3 1.572 . S
C1195 C62 1.572 . S
C1200 C829 1.570 . S
C1205 C121 1.571 . S
C1210 C888 1.570 . S
C1215 C711 1.570 . S
C1220 C180 1.572 . S
C1225 C652 1.570 . S
C1230 C239 1.572 . S
C1235 C475 1.570 . S
C1240 C298 1.572 . S
C1245 C357 1.570 . S
C1250 C534 1.571 . S
C1255 C593 1.572 . S
C1260 C416 1.570 . S
