# Generated by pormake.
# Topology wio, (6)-cn, num edge types: 1
# Building blocks:
#     Node 0, Type 0, BuildingBlock: NUHQIS_clean_sbu_0, # of connection points: 6
#     Node 1, Type 0, BuildingBlock: NUHQIS_clean_sbu_0, # of connection points: 6
#     Node 2, Type 0, BuildingBlock: NUHQIS_clean_sbu_0, # of connection points: 6
#     Node 3, Type 0, BuildingBlock: NUHQIS_clean_sbu_0, # of connection points: 6
#     Node 4, Type 0, BuildingBlock: NUHQIS_clean_sbu_0, # of connection points: 6
#     Node 5, Type 0, BuildingBlock: NUHQIS_clean_sbu_0, # of connection points: 6
#     Node 6, Type 0, BuildingBlock: NUHQIS_clean_sbu_0, # of connection points: 6
#     Node 7, Type 0, BuildingBlock: NUHQIS_clean_sbu_0, # of connection points: 6
#     Node 8, Type 0, BuildingBlock: NUHQIS_clean_sbu_0, # of connection points: 6
#     Node 9, Type 0, BuildingBlock: NUHQIS_clean_sbu_0, # of connection points: 6
#     Node 10, Type 0, BuildingBlock: NUHQIS_clean_sbu_0, # of connection points: 6
#     Node 11, Type 0, BuildingBlock: NUHQIS_clean_sbu_0, # of connection points: 6
#     Node 12, Type 0, BuildingBlock: NUHQIS_clean_sbu_0, # of connection points: 6
#     Node 13, Type 0, BuildingBlock: NUHQIS_clean_sbu_0, # of connection points: 6
#     Node 14, Type 0, BuildingBlock: NUHQIS_clean_sbu_0, # of connection points: 6
#     Node 15, Type 0, BuildingBlock: NUHQIS_clean_sbu_0, # of connection points: 6
#     Node 16, Type 0, BuildingBlock: NUHQIS_clean_sbu_0, # of connection points: 6
#     Node 17, Type 0, BuildingBlock: NUHQIS_clean_sbu_0, # of connection points: 6
#     Node 18, Type 0, BuildingBlock: NUHQIS_clean_sbu_0, # of connection points: 6
#     Node 19, Type 0, BuildingBlock: NUHQIS_clean_sbu_0, # of connection points: 6
#     Node 20, Type 0, BuildingBlock: NUHQIS_clean_sbu_0, # of connection points: 6
#     Node 21, Type 0, BuildingBlock: NUHQIS_clean_sbu_0, # of connection points: 6
#     Node 22, Type 0, BuildingBlock: NUHQIS_clean_sbu_0, # of connection points: 6
#     Node 23, Type 0, BuildingBlock: NUHQIS_clean_sbu_0, # of connection points: 6
#     Node 24, Type 0, BuildingBlock: NUHQIS_clean_sbu_0, # of connection points: 6
#     Node 25, Type 0, BuildingBlock: NUHQIS_clean_sbu_0, # of connection points: 6
#     Node 26, Type 0, BuildingBlock: NUHQIS_clean_sbu_0, # of connection points: 6
#     Node 27, Type 0, BuildingBlock: NUHQIS_clean_sbu_0, # of connection points: 6
#     Node 28, Type 0, BuildingBlock: NUHQIS_clean_sbu_0, # of connection points: 6
#     Node 29, Type 0, BuildingBlock: NUHQIS_clean_sbu_0, # of connection points: 6
#     Node 30, Type 0, BuildingBlock: NUHQIS_clean_sbu_0, # of connection points: 6
#     Node 31, Type 0, BuildingBlock: NUHQIS_clean_sbu_0, # of connection points: 6
#     Edge 32, Type (0, 0), None
#     Edge 33, Type (0, 0), None
#     Edge 34, Type (0, 0), None
#     Edge 35, Type (0, 0), None
#     Edge 36, Type (0, 0), None
#     Edge 37, Type (0, 0), None
#     Edge 38, Type (0, 0), None
#     Edge 39, Type (0, 0), None
#     Edge 40, Type (0, 0), None
#     Edge 41, Type (0, 0), None
#     Edge 42, Type (0, 0), None
#     Edge 43, Type (0, 0), None
#     Edge 44, Type (0, 0), None
#     Edge 45, Type (0, 0), None
#     Edge 46, Type (0, 0), None
#     Edge 47, Type (0, 0), None
#     Edge 48, Type (0, 0), None
#     Edge 49, Type (0, 0), None
#     Edge 50, Type (0, 0), None
#     Edge 51, Type (0, 0), None
#     Edge 52, Type (0, 0), None
#     Edge 53, Type (0, 0), None
#     Edge 54, Type (0, 0), None
#     Edge 55, Type (0, 0), None
#     Edge 56, Type (0, 0), None
#     Edge 57, Type (0, 0), None
#     Edge 58, Type (0, 0), None
#     Edge 59, Type (0, 0), None
#     Edge 60, Type (0, 0), None
#     Edge 61, Type (0, 0), None
#     Edge 62, Type (0, 0), None
#     Edge 63, Type (0, 0), None
#     Edge 64, Type (0, 0), None
#     Edge 65, Type (0, 0), None
#     Edge 66, Type (0, 0), None
#     Edge 67, Type (0, 0), None
#     Edge 68, Type (0, 0), None
#     Edge 69, Type (0, 0), None
#     Edge 70, Type (0, 0), None
#     Edge 71, Type (0, 0), None
#     Edge 72, Type (0, 0), None
#     Edge 73, Type (0, 0), None
#     Edge 74, Type (0, 0), None
#     Edge 75, Type (0, 0), None
#     Edge 76, Type (0, 0), None
#     Edge 77, Type (0, 0), None
#     Edge 78, Type (0, 0), None
#     Edge 79, Type (0, 0), None
#     Edge 80, Type (0, 0), None
#     Edge 81, Type (0, 0), None
#     Edge 82, Type (0, 0), None
#     Edge 83, Type (0, 0), None
#     Edge 84, Type (0, 0), None
#     Edge 85, Type (0, 0), None
#     Edge 86, Type (0, 0), None
#     Edge 87, Type (0, 0), None
#     Edge 88, Type (0, 0), None
#     Edge 89, Type (0, 0), None
#     Edge 90, Type (0, 0), None
#     Edge 91, Type (0, 0), None
#     Edge 92, Type (0, 0), None
#     Edge 93, Type (0, 0), None
#     Edge 94, Type (0, 0), None
#     Edge 95, Type (0, 0), None
#     Edge 96, Type (0, 0), None
#     Edge 97, Type (0, 0), None
#     Edge 98, Type (0, 0), None
#     Edge 99, Type (0, 0), None
#     Edge 100, Type (0, 0), None
#     Edge 101, Type (0, 0), None
#     Edge 102, Type (0, 0), None
#     Edge 103, Type (0, 0), None
#     Edge 104, Type (0, 0), None
#     Edge 105, Type (0, 0), None
#     Edge 106, Type (0, 0), None
#     Edge 107, Type (0, 0), None
#     Edge 108, Type (0, 0), None
#     Edge 109, Type (0, 0), None
#     Edge 110, Type (0, 0), None
#     Edge 111, Type (0, 0), None
#     Edge 112, Type (0, 0), None
#     Edge 113, Type (0, 0), None
#     Edge 114, Type (0, 0), None
#     Edge 115, Type (0, 0), None
#     Edge 116, Type (0, 0), None
#     Edge 117, Type (0, 0), None
#     Edge 118, Type (0, 0), None
#     Edge 119, Type (0, 0), None
#     Edge 120, Type (0, 0), None
#     Edge 121, Type (0, 0), None
#     Edge 122, Type (0, 0), None
#     Edge 123, Type (0, 0), None
#     Edge 124, Type (0, 0), None
#     Edge 125, Type (0, 0), None
#     Edge 126, Type (0, 0), None
#     Edge 127, Type (0, 0), None
# Relax obj value: 0.253
# Max RMSD: 0.255
# Mean RMSD: 0.255
data_MOF--net-wio--node1-NUHQIS_clean_sbu_0--edge1-none
_symmetry_space_group_name_H-M    P1
_symmetry_Int_Tables_number       1
_symmetry_cell_setting            triclinic
loop_
_symmetry_equiv_pos_as_xyz
'x, y, z'
_cell_length_a     35.56877
_cell_length_b     35.567541
_cell_length_c     27.949808
_cell_angle_alpha  90.009786
_cell_angle_beta   89.98571
_cell_angle_gamma 89.99992
loop_
_atom_site_label
_atom_site_type_symbol
_atom_site_fract_x
_atom_site_fract_y
_atom_site_fract_z
_atom_type_partial_charge
Tb0 Tb 0.18421 0.11916 0.33359 0.0
Eu1 Eu 0.09155 0.12204 0.33218 0.0
C2 C 0.14331 0.18328 0.3913 0.0
C3 C 0.13829 0.09511 0.42564 0.0
C4 C 0.28333 0.13214 0.30176 0.0
C5 C 0.2977 0.17268 0.23467 0.0
C6 C 0.27497 0.16373 0.2736 0.0
C7 C 0.31614 0.11156 0.29343 0.0
C8 C 0.33862 0.12024 0.25425 0.0
C9 C 0.32837 0.14962 0.22332 0.0
C10 C 0.25502 0.11659 0.33365 0.0
O11 O 0.16698 0.0591 0.3348 0.0
O12 O 0.10258 0.05929 0.32316 0.0
O13 O 0.1092 0.1365 0.25356 0.0
O14 O 0.17388 0.13719 0.25917 0.0
C15 C 0.13455 0.04111 0.33007 0.0
O16 O 0.03434 0.09958 0.33752 0.0
O17 O 0.04287 0.15978 0.33641 0.0
O18 O 0.11136 0.16531 0.38628 0.0
O19 O 0.17229 0.17485 0.36405 0.0
O20 O 0.17013 0.10571 0.4065 0.0
O21 O 0.10624 0.09541 0.40255 0.0
C22 C 0.14295 0.14179 0.23383 0.0
O23 O 0.23556 0.14083 0.35807 0.0
O24 O 0.2337 0.09114 0.31407 0.0
C25 C 0.99875 0.13649 0.39366 0.0
C26 C 0.9595 0.14587 0.48235 0.0
C27 C 0.97904 0.11235 0.47209 0.0
C28 C 0.9985 0.10779 0.42854 0.0
C29 C 0.9798 0.17017 0.40426 0.0
C30 C 0.96058 0.17483 0.44783 0.0
C31 C 0.01987 0.13246 0.34742 0.0
H32 H 0.28927 0.19539 0.21116 0.0
H33 H 0.24947 0.17974 0.27951 0.0
H34 H 0.3228 0.08711 0.31495 0.0
H35 H 0.36251 0.10239 0.24629 0.0
H36 H 0.97872 0.08925 0.49732 0.0
H37 H 1.01318 0.08158 0.42216 0.0
H38 H 0.97965 0.19298 0.37858 0.0
H39 H 0.94573 0.20099 0.45386 0.0
Tb40 Tb 0.1706 0.93427 0.58359 0.0
Eu41 Eu 0.16771 0.8416 0.58221 0.0
C42 C 0.10648 0.89338 0.64134 0.0
C43 C 0.19464 0.88839 0.67565 0.0
C44 C 0.15764 0.03338 0.55171 0.0
C45 C 0.1171 0.04772 0.48462 0.0
C46 C 0.12605 0.02501 0.52354 0.0
C47 C 0.17822 0.06619 0.54337 0.0
C48 C 0.16954 0.08866 0.5042 0.0
C49 C 0.14016 0.0784 0.47327 0.0
C50 C 0.17318 1.00509 0.58361 0.0
O51 O 0.23065 0.91703 0.58478 0.0
O52 O 0.23046 0.85262 0.57321 0.0
O53 O 0.15328 0.85922 0.50357 0.0
O54 O 0.15252 0.92391 0.5092 0.0
C55 C 0.24865 0.88459 0.5801 0.0
O56 O 0.19017 0.78439 0.58756 0.0
O57 O 0.12997 0.79292 0.58645 0.0
O58 O 0.12443 0.86143 0.63629 0.0
O59 O 0.11493 0.92238 0.61413 0.0
O60 O 0.18406 0.92023 0.6565 0.0
O61 O 0.19432 0.85632 0.65258 0.0
C62 C 0.14795 0.89297 0.48385 0.0
O63 O 0.14893 0.98564 0.60804 0.0
O64 O 0.19863 0.98374 0.56406 0.0
C65 C 0.15325 0.7488 0.64369 0.0
C66 C 0.14389 0.70953 0.73235 0.0
C67 C 0.17741 0.72906 0.72209 0.0
C68 C 0.18197 0.74853 0.67856 0.0
C69 C 0.11958 0.72986 0.65429 0.0
C70 C 0.11491 0.71064 0.69785 0.0
C71 C 0.15729 0.76992 0.59745 0.0
H72 H 0.0944 0.03929 0.4611 0.0
H73 H 0.11004 0.99951 0.52945 0.0
H74 H 0.20267 0.07285 0.56489 0.0
H75 H 0.18739 0.11255 0.49623 0.0
H76 H 0.20052 0.72873 0.74731 0.0
H77 H 0.20818 0.76319 0.67217 0.0
H78 H 0.09676 0.72973 0.62862 0.0
H79 H 0.08875 0.69579 0.70387 0.0
Tb80 Tb 0.35549 0.92065 0.83363 0.0
Eu81 Eu 0.44817 0.91772 0.83223 0.0
C82 C 0.39636 0.85652 0.89135 0.0
C83 C 0.40139 0.94469 0.92568 0.0
C84 C 0.25639 0.90775 0.80172 0.0
C85 C 0.24201 0.86719 0.73464 0.0
C86 C 0.26472 0.87614 0.77356 0.0
C87 C 0.2236 0.92836 0.79337 0.0
C88 C 0.20113 0.91969 0.7542 0.0
C89 C 0.21135 0.89028 0.72328 0.0
C90 C 0.28468 0.92326 0.83365 0.0
O91 O 0.37276 0.9807 0.83481 0.0
O92 O 0.43717 0.98049 0.82324 0.0
O93 O 0.43054 0.90331 0.75359 0.0
O94 O 0.36585 0.90257 0.75923 0.0
C95 C 0.4052 0.99868 0.83011 0.0
O96 O 0.50538 0.94017 0.8376 0.0
O97 O 0.49684 0.87998 0.83646 0.0
O98 O 0.42832 0.87445 0.88629 0.0
O99 O 0.36736 0.86498 0.86416 0.0
O100 O 0.36955 0.93412 0.90654 0.0
O101 O 0.43345 0.94436 0.90261 0.0
C102 C 0.39679 0.898 0.73387 0.0
O103 O 0.30412 0.89899 0.85805 0.0
O104 O 0.30604 0.94871 0.81413 0.0
C105 C 0.54096 0.90324 0.89372 0.0
C106 C 0.58022 0.89387 0.98238 0.0
C107 C 0.56067 0.92739 0.97215 0.0
C108 C 0.54121 0.93195 0.92861 0.0
C109 C 0.55991 0.86957 0.90429 0.0
C110 C 0.57913 0.86491 0.94785 0.0
C111 C 0.51984 0.90729 0.84748 0.0
H112 H 0.25042 0.84447 0.71112 0.0
H113 H 0.2902 0.8601 0.77948 0.0
H114 H 0.21696 0.95283 0.81489 0.0
H115 H 0.17726 0.93756 0.74622 0.0
H116 H 0.561 0.9505 0.99738 0.0
H117 H 0.52654 0.95816 0.92225 0.0
H118 H 0.56005 0.84676 0.87861 0.0
H119 H 0.59398 0.83875 0.95386 0.0
Tb120 Tb 0.36913 0.10555 0.08364 0.0
Eu121 Eu 0.37203 0.19822 0.08222 0.0
C122 C 0.43326 0.14646 0.14133 0.0
C123 C 0.34509 0.15149 0.17568 0.0
C124 C 0.38207 1.00643 1.05179 0.0
C125 C 0.42261 0.99204 0.98469 0.0
C126 C 0.41368 1.01475 1.02363 0.0
C127 C 0.36145 0.97365 1.04343 0.0
C128 C 0.37011 0.95117 1.00424 0.0
C129 C 0.39951 0.96139 0.97333 0.0
C130 C 0.36655 0.03474 0.08371 0.0
O131 O 0.30908 0.1228 0.08484 0.0
O132 O 0.30928 0.1872 1.07319 0.0
O133 O 0.38648 0.18057 1.00359 0.0
O134 O 0.38717 0.11588 1.00921 0.0
C135 C 0.29109 0.15523 1.0801 0.0
O136 O 0.34958 0.25543 0.08759 0.0
O137 O 0.40977 0.24689 0.08642 0.0
O138 O 0.41529 0.17841 0.1363 0.0
O139 O 0.42482 0.11746 0.1141 0.0
O140 O 0.35568 0.11964 0.15655 0.0
O141 O 0.34538 0.18354 0.15259 0.0
C142 C 0.39177 0.14682 0.98386 0.0
O143 O 0.39082 0.0542 0.10808 0.0
O144 O 0.34109 0.05608 1.06418 0.0
C145 C 0.38651 0.29102 0.1437 0.0
C146 C 0.3959 0.33026 0.23238 0.0
C147 C 0.36239 0.3107 0.22217 0.0
C148 C 0.35782 0.29124 0.17862 0.0
C149 C 0.42017 0.30999 0.15426 0.0
C150 C 0.42484 0.3292 0.19783 0.0
C151 C 0.38246 0.2699 0.09746 0.0
H152 H 0.44534 1.00044 0.96118 0.0
H153 H 0.42973 0.04023 1.02956 0.0
H154 H 0.33698 0.96701 1.06495 0.0
H155 H 0.35222 0.92731 0.99626 0.0
H156 H 0.33929 0.311 0.24743 0.0
H157 H 0.33162 0.27655 0.17227 0.0
H158 H 0.44297 0.31015 0.12855 0.0
H159 H 0.451 0.34406 0.20383 0.0
Tb160 Tb 0.18425 0.92062 0.32985 0.0
Eu161 Eu 0.09157 0.91771 0.33124 0.0
C162 C 0.14337 0.85649 0.2721 0.0
C163 C 0.13836 0.94466 0.23779 0.0
C164 C 0.28335 0.90769 0.36175 0.0
C165 C 0.29771 0.86715 0.42883 0.0
C166 C 0.275 0.8761 0.38992 0.0
C167 C 0.31615 0.92828 0.37009 0.0
C168 C 0.33862 0.91961 0.40925 0.0
C169 C 0.32839 0.89023 0.44018 0.0
C170 C 0.25506 0.92322 0.32983 0.0
O171 O 0.16699 0.98067 0.32866 0.0
O172 O 0.10258 0.98047 0.34022 0.0
O173 O 0.1092 0.9033 0.40988 0.0
O174 O 0.17389 0.90254 0.40424 0.0
C175 C 0.13456 0.99866 0.33334 0.0
O176 O 0.03436 0.94017 0.32588 0.0
O177 O 0.0429 0.87997 0.327 0.0
O178 O 0.11141 0.87443 0.27717 0.0
O179 O 0.17237 0.86495 0.2993 0.0
O180 O 0.17021 0.93408 0.25694 0.0
O181 O 0.1063 0.94433 0.26086 0.0
C182 C 0.14295 0.89797 0.42959 0.0
O183 O 0.23562 0.89895 0.30541 0.0
O184 O 0.23371 0.94867 0.34937 0.0
C185 C 0.99878 0.90325 0.26975 0.0
C186 C 0.95951 0.89389 0.1811 0.0
C187 C 0.97905 0.92741 0.19135 0.0
C188 C 0.99852 0.93197 0.23489 0.0
C189 C 0.97984 0.86958 0.25916 0.0
C190 C 0.96061 0.86492 0.2156 0.0
C191 C 0.0199 0.90729 0.31599 0.0
H192 H 0.28929 0.84444 0.45235 0.0
H193 H 0.24951 0.86007 0.384 0.0
H194 H 0.32281 0.95274 0.34856 0.0
H195 H 0.36251 0.93747 0.41722 0.0
H196 H 0.97871 0.95053 0.16614 0.0
H197 H 1.01318 0.95818 0.24127 0.0
H198 H 0.9797 0.84675 0.28483 0.0
H199 H 0.94577 0.83875 0.20958 0.0
Tb200 Tb 0.36913 0.93427 0.57986 0.0
Eu201 Eu 0.37203 0.8416 0.58126 0.0
C202 C 0.43326 0.89336 0.52214 0.0
C203 C 0.3451 0.88834 0.48781 0.0
C204 C 0.38211 0.03338 0.6117 0.0
C205 C 0.42266 0.04774 0.67879 0.0
C206 C 0.4137 0.02502 0.63987 0.0
C207 C 0.36155 0.0662 0.62003 0.0
C208 C 0.37023 0.08868 0.6592 0.0
C209 C 0.3996 0.07842 0.69014 0.0
C210 C 0.36656 1.00508 0.57981 0.0
O211 O 0.30908 0.91702 0.57865 0.0
O212 O 0.30927 0.85262 0.59028 0.0
O213 O 0.38647 0.85924 0.65989 0.0
O214 O 0.38719 0.92393 0.65427 0.0
C215 C 0.29109 0.88459 0.58337 0.0
O216 O 0.34956 0.78439 0.57592 0.0
O217 O 0.40976 0.79292 0.57703 0.0
O218 O 0.4153 0.86141 0.52717 0.0
O219 O 0.42482 0.92235 0.54937 0.0
O220 O 0.35568 0.92019 0.50695 0.0
O221 O 0.3454 0.85629 0.51089 0.0
C222 C 0.39178 0.89299 0.67961 0.0
O223 O 0.3908 0.98562 0.55538 0.0
O224 O 0.34112 0.98375 0.59939 0.0
C225 C 0.38647 0.74879 0.51978 0.0
C226 C 0.39584 0.70954 0.4311 0.0
C227 C 0.36232 0.72908 0.44136 0.0
C228 C 0.35776 0.74854 0.48491 0.0
C229 C 0.42015 0.72985 0.50918 0.0
C230 C 0.42481 0.71063 0.4656 0.0
C231 C 0.38244 0.76992 0.56602 0.0
H232 H 0.44535 0.0393 0.70231 0.0
H233 H 0.42971 0.99951 0.63396 0.0
H234 H 0.3371 0.07287 0.59851 0.0
H235 H 0.35238 0.11258 0.66717 0.0
H236 H 0.33922 0.72876 0.41614 0.0
H237 H 0.33156 0.76321 0.4913 0.0
H238 H 0.44297 0.72971 0.53485 0.0
H239 H 0.45097 0.69579 0.45957 0.0
Tb240 Tb 0.35553 0.11917 0.82982 0.0
Eu241 Eu 0.44819 0.12208 0.83124 0.0
C242 C 0.39643 0.1833 0.77214 0.0
C243 C 0.40147 0.09514 0.73778 0.0
C244 C 0.2564 0.1321 0.86165 0.0
C245 C 0.242 0.17265 0.92875 0.0
C246 C 0.26472 0.16371 0.88981 0.0
C247 C 0.22362 0.11148 0.87001 0.0
C248 C 0.20114 0.12014 0.90919 0.0
C249 C 0.21135 0.14954 0.94012 0.0
C250 C 0.28472 0.11658 0.82974 0.0
O251 O 0.37278 0.05912 0.82861 0.0
O252 O 0.43717 0.05932 0.84027 0.0
O253 O 0.43054 0.13653 0.90987 0.0
O254 O 0.36585 0.1372 0.90425 0.0
C255 C 0.4052 0.04113 0.83336 0.0
O256 O 0.5054 0.09962 0.82589 0.0
O257 O 0.49686 0.15982 0.82703 0.0
O258 O 0.42838 0.16534 0.77716 0.0
O259 O 0.36744 0.17487 0.79937 0.0
O260 O 0.36962 0.10573 0.75691 0.0
O261 O 0.43351 0.09542 0.76087 0.0
C262 C 0.39678 0.14181 0.9296 0.0
O263 O 0.30418 0.14086 0.80536 0.0
O264 O 0.30605 0.09113 0.84928 0.0
C265 C 0.54098 0.13655 0.76976 0.0
C266 C 0.58022 0.14593 0.68107 0.0
C267 C 0.56067 0.11242 0.6913 0.0
C268 C 0.54121 0.10785 0.73486 0.0
C269 C 0.55994 0.17022 0.75919 0.0
C270 C 0.57915 0.17489 0.71561 0.0
C271 C 0.51987 0.1325 0.816 0.0
H272 H 0.2504 0.19537 0.95226 0.0
H273 H 0.2902 0.17976 0.88389 0.0
H274 H 0.21699 0.08701 0.84849 0.0
H275 H 0.17728 0.10226 0.91717 0.0
H276 H 0.56098 0.08932 0.66606 0.0
H277 H 0.52653 0.08165 0.74122 0.0
H278 H 0.5601 0.19303 0.78489 0.0
H279 H 0.59401 0.20104 0.7096 0.0
Tb280 Tb 0.17061 0.10551 1.07981 0.0
Eu281 Eu 0.16768 0.19819 1.08121 0.0
C282 C 0.10648 0.14638 1.02209 0.0
C283 C 0.19464 0.15142 0.98775 0.0
C284 C 0.15772 1.0064 0.11171 0.0
C285 C 0.11716 0.99201 0.1788 0.0
C286 C 0.1261 1.01473 0.13987 0.0
C287 C 0.17833 0.97362 0.12007 0.0
C288 C 0.16966 0.95114 0.15924 0.0
C289 C 0.14025 0.96136 0.19016 0.0
C290 C 0.17323 0.0347 1.07978 0.0
O291 O 0.23066 0.12278 1.07862 0.0
O292 O 0.23044 0.18719 0.09022 0.0
O293 O 0.15326 0.18055 0.15985 0.0
O294 O 0.15254 0.11586 0.15421 0.0
C295 C 0.24864 0.15522 0.08333 0.0
O296 O 0.19013 0.2554 1.07584 0.0
O297 O 0.12993 0.24686 1.07699 0.0
O298 O 0.12441 0.17835 1.02715 0.0
O299 O 0.11494 0.11738 1.04928 0.0
O300 O 0.18408 0.11957 1.0069 0.0
O301 O 0.19432 0.18348 1.01083 0.0
C302 C 0.14796 0.1468 0.17957 0.0
O303 O 0.14895 0.05413 1.05539 0.0
O304 O 0.19868 0.05605 0.0993 0.0
C305 C 0.1532 0.29097 1.01972 0.0
C306 C 0.14383 0.33023 0.93105 0.0
C307 C 0.17734 0.31068 0.94128 0.0
C308 C 0.1819 0.29122 0.98482 0.0
C309 C 0.11953 0.30993 1.00915 0.0
C310 C 0.11486 0.32914 0.96559 0.0
C311 C 0.15725 0.26986 1.06596 0.0
H312 H 0.09444 1.00042 0.20231 0.0
H313 H 0.11006 0.04021 0.13395 0.0
H314 H 0.2028 0.96698 0.09855 0.0
H315 H 0.18754 0.92728 0.16722 0.0
H316 H 0.20045 0.311 0.91604 0.0
H317 H 0.20811 0.27655 0.99118 0.0
H318 H 0.09672 0.31007 1.03484 0.0
H319 H 0.0887 0.344 0.95958 0.0
Tb320 Tb 0.94712 0.91927 0.83162 0.0
Eu321 Eu 0.85433 0.91901 0.83 0.0
C322 C 0.90462 0.99865 0.8334 0.0
C323 C 0.89743 0.89653 0.92946 0.0
C324 C 0.0386 0.90651 0.77113 0.0
C325 C 0.06515 0.93281 0.69686 0.0
C326 C 0.0446 0.93715 0.73982 0.0
C327 C 0.05324 0.87135 0.75743 0.0
C328 C 0.07361 0.86698 0.71456 0.0
C329 C 0.0803 0.89766 0.68361 0.0
C330 C 1.01685 0.91054 0.81729 0.0
O331 O 0.92949 0.87639 0.77956 0.0
O332 O 0.86991 0.86145 0.8027 0.0
O333 O 0.87019 0.93038 0.75452 0.0
O334 O 0.93296 0.94472 0.76309 0.0
C335 C 0.89927 0.85539 0.77543 0.0
O336 O 0.80124 0.89638 0.80389 0.0
O337 O 0.8016 0.94631 0.84828 0.0
O338 O 0.87208 0.981 0.82897 0.0
O339 O 0.93642 0.98009 0.84052 0.0
O340 O 0.93028 0.90552 0.90856 0.0
O341 O 0.8658 0.89866 0.9054 0.0
C342 C 0.90208 0.94273 0.73751 0.0
O343 O 1.0014 0.94303 0.82646 0.0
O344 O 0.9942 0.88306 0.82871 0.0
C345 C 0.75273 0.90429 0.85954 0.0
C346 C 0.7087 0.88823 0.93934 0.0
C347 C 0.73961 0.86532 0.92849 0.0
C348 C 0.76181 0.87356 0.88885 0.0
C349 C 0.71949 0.92433 0.86721 0.0
C350 C 0.69748 0.91633 0.90705 0.0
C351 C 0.78115 0.92028 0.82822 0.0
H352 H 0.06989 0.95727 0.67459 0.0
H353 H 0.03372 0.96472 0.74866 0.0
H354 H 0.04923 0.84705 0.78023 0.0
H355 H 0.08488 0.83945 0.70628 0.0
H356 H 0.74871 0.84349 0.95292 0.0
H357 H 0.78765 0.85798 0.88346 0.0
H358 H 0.71229 0.94814 0.84481 0.0
H359 H 0.67331 0.93395 0.91449 0.0
Tb360 Tb 0.87048 0.19712 0.5816 0.0
Eu361 Eu 0.87072 0.10432 0.58 0.0
C362 C 0.79109 0.15463 0.58338 0.0
C363 C 0.89322 0.14746 0.67944 0.0
C364 C 0.88324 0.2886 0.5211 0.0
C365 C 0.85693 0.31519 0.44688 0.0
C366 C 0.85259 0.29464 0.48983 0.0
C367 C 0.91841 0.30321 0.50738 0.0
C368 C 0.92277 0.32358 0.46452 0.0
C369 C 0.89208 0.33031 0.4336 0.0
C370 C 0.87921 0.26686 0.56727 0.0
O371 O 0.91337 0.17946 0.52955 0.0
O372 O 0.92827 0.11986 0.55263 0.0
O373 O 0.85934 0.12014 0.50453 0.0
O374 O 0.84504 0.18293 0.51307 0.0
C375 C 0.93434 0.14923 0.5254 0.0
O376 O 0.89332 0.05119 0.55391 0.0
O377 O 0.84341 0.0516 0.59834 0.0
O378 O 0.80873 0.12209 0.57898 0.0
O379 O 0.80966 0.18644 0.59048 0.0
O380 O 0.88421 0.1803 0.65854 0.0
O381 O 0.89112 0.11582 0.65537 0.0
C382 C 0.84701 0.15203 0.4875 0.0
O383 O 0.84672 0.25141 0.57644 0.0
O384 O 0.9067 0.2442 0.57868 0.0
C385 C 0.88542 1.00273 0.60961 0.0
C386 C 0.90151 0.95871 0.68939 0.0
C387 C 0.9244 0.98964 0.67856 0.0
C388 C 0.91614 1.01183 0.63893 0.0
C389 C 0.8654 0.96948 0.61727 0.0
C390 C 0.87341 0.94747 0.6571 0.0
C391 C 0.86942 0.03113 0.57828 0.0
H392 H 0.83247 0.31996 0.42465 0.0
H393 H 0.82501 0.28378 0.49869 0.0
H394 H 0.94272 0.29917 0.53015 0.0
H395 H 0.95031 0.33482 0.45623 0.0
H396 H 0.94622 0.99876 0.70299 0.0
H397 H 0.9317 0.03769 0.63354 0.0
H398 H 0.8416 0.96226 0.59487 0.0
H399 H 0.85581 0.92329 0.66454 0.0
Tb400 Tb 0.59261 0.12053 0.33158 0.0
Eu401 Eu 0.68541 0.12076 0.32996 0.0
C402 C 0.63509 0.04113 0.33337 0.0
C403 C 0.64229 0.14325 0.42942 0.0
C404 C 0.50115 0.13332 0.27107 0.0
C405 C 0.47461 0.10704 0.19679 0.0
C406 C 0.49517 0.10269 0.23973 0.0
C407 C 0.48648 0.16848 0.25743 0.0
C408 C 0.46611 0.17284 0.21458 0.0
C409 C 0.45943 0.14217 0.18359 0.0
C410 C 0.52289 0.12928 0.31724 0.0
O411 O 0.61028 0.16341 0.27954 0.0
O412 O 0.66988 0.1783 0.30261 0.0
O413 O 0.66959 0.10938 0.25449 0.0
O414 O 0.6068 0.09507 0.26305 0.0
C415 C 0.64052 0.18438 0.27538 0.0
O416 O 0.73855 0.14336 0.30391 0.0
O417 O 0.73812 0.09342 0.34824 0.0
O418 O 0.66764 0.05877 0.32895 0.0
O419 O 0.60328 0.05971 0.34046 0.0
O420 O 0.60944 0.13426 0.40852 0.0
O421 O 0.67392 0.14114 0.40535 0.0
C422 C 0.6377 0.09705 0.23747 0.0
O423 O 0.53832 0.09678 0.32638 0.0
O424 O 0.54555 0.15676 0.32867 0.0
C425 C 0.78701 0.1354 0.35959 0.0
C426 C 0.83103 0.15145 0.43938 0.0
C427 C 0.80014 0.17438 0.42854 0.0
C428 C 0.77794 0.16614 0.3889 0.0
C429 C 0.82023 0.11533 0.36726 0.0
C430 C 0.84223 0.12332 0.4071 0.0
C431 C 0.7586 0.11944 0.32823 0.0
H432 H 0.46989 0.08258 0.1745 0.0
H433 H 0.50607 0.07512 0.24853 0.0
H434 H 0.49047 0.19277 0.28025 0.0
H435 H 0.45482 0.20037 0.20634 0.0
H436 H 0.79104 0.19623 0.45297 0.0
H437 H 0.75211 0.18174 0.38351 0.0
H438 H 0.82742 0.09151 0.34486 0.0
H439 H 0.86638 0.10569 0.41454 0.0
Tb440 Tb 0.66924 0.84264 1.08159 0.0
Eu441 Eu 0.66901 0.93543 1.07996 0.0
C442 C 0.74864 0.88512 0.08338 0.0
C443 C 0.64652 0.89233 0.17943 0.0
C444 C 0.65646 0.75116 1.02108 0.0
C445 C 0.68273 0.72464 0.94678 0.0
C446 C 0.68708 0.74518 0.98974 0.0
C447 C 0.62129 0.73651 1.00742 0.0
C448 C 0.61692 0.71615 0.96455 0.0
C449 C 0.64759 0.70948 0.93356 0.0
C450 C 0.6605 0.7729 1.06725 0.0
O451 O 0.62636 0.86028 1.02955 0.0
O452 O 0.61145 0.91988 1.05265 0.0
O453 O 0.68038 0.91957 1.00448 0.0
O454 O 0.69471 0.85679 1.01306 0.0
C455 C 0.60538 0.89051 1.02542 0.0
O456 O 0.6464 0.98854 1.05387 0.0
O457 O 0.69633 0.98815 0.09823 0.0
O458 O 0.73099 0.91766 1.07894 0.0
O459 O 0.73006 0.85331 0.09049 0.0
O460 O 0.65549 0.85947 0.15853 0.0
O461 O 0.64865 0.92396 0.15537 0.0
C462 C 0.69271 0.88767 0.98747 0.0
O463 O 0.69299 0.78834 1.0764 0.0
O464 O 0.63302 0.79556 1.0787 0.0
C465 C 0.65433 0.03704 0.10953 0.0
C466 C 0.63827 0.08107 0.18934 0.0
C467 C 0.61534 0.05017 0.17848 0.0
C468 C 0.62359 0.02797 0.13884 0.0
C469 C 0.6744 0.07026 0.11721 0.0
C470 C 0.6664 0.09227 0.15705 0.0
C471 C 0.67031 1.00861 1.07819 0.0
H472 H 0.70719 0.71991 0.92449 0.0
H473 H 0.71466 0.75607 0.99855 0.0
H474 H 0.597 0.74051 1.03025 0.0
H475 H 0.58939 0.70488 0.9563 0.0
H476 H 0.5935 0.04107 0.20291 0.0
H477 H 0.608 1.00214 0.13344 0.0
H478 H 0.69822 0.07746 0.09482 0.0
H479 H 0.68402 0.11643 0.16451 0.0
Tb480 Tb 0.9471 0.1205 0.83185 0.0
Eu481 Eu 0.8543 0.12074 0.83345 0.0
C482 C 0.90462 0.04111 0.83007 0.0
C483 C 0.89744 0.14324 0.73402 0.0
C484 C 0.03858 0.13326 0.89235 0.0
C485 C 0.06516 0.10695 0.96658 0.0
C486 C 0.0446 0.10262 0.92363 0.0
C487 C 0.0532 0.16843 0.90605 0.0
C488 C 0.07358 0.17279 0.94891 0.0
C489 C 0.0803 0.1421 0.97984 0.0
C490 C 1.01683 0.12923 0.84619 0.0
O491 O 0.92944 0.16339 0.8839 0.0
O492 O 0.86984 0.17829 0.86081 0.0
O493 O 0.87012 0.10936 0.90893 0.0
O494 O 0.9329 0.09506 0.90038 0.0
C495 C 0.89921 0.18436 0.88805 0.0
O496 O 0.80117 0.14334 0.85953 0.0
O497 O 0.80159 0.09343 0.81512 0.0
O498 O 0.87207 0.05875 0.83447 0.0
O499 O 0.93642 0.05968 0.82297 0.0
O500 O 0.93029 0.13423 0.7549 0.0
O501 O 0.8658 0.14113 0.75808 0.0
C502 C 0.90201 0.09703 0.92595 0.0
O503 O 1.00139 0.09674 0.83702 0.0
O504 O 0.99418 0.15672 0.83477 0.0
C505 C 0.75271 0.13543 0.80383 0.0
C506 C 0.70869 0.15152 0.72406 0.0
C507 C 0.73961 0.17441 0.73489 0.0
C508 C 0.76181 0.16615 0.77452 0.0
C509 C 0.71947 0.1154 0.79617 0.0
C510 C 0.69746 0.12341 0.75635 0.0
C511 C 0.78111 0.11944 0.83517 0.0
H512 H 0.06992 0.08249 0.98882 0.0
H513 H 0.03374 0.07504 0.91479 0.0
H514 H 0.04918 0.19273 0.88327 0.0
H515 H 0.08483 0.20032 0.95719 0.0
H516 H 0.74873 0.19624 0.71046 0.0
H517 H 0.78766 0.18172 0.7799 0.0
H518 H 0.71225 0.09159 0.81858 0.0
H519 H 0.67329 0.10581 0.74892 0.0
Tb520 Tb 0.66926 0.19715 0.58183 0.0
Eu521 Eu 0.66899 0.10435 0.58345 0.0
C522 C 0.74864 0.15464 0.58006 0.0
C523 C 0.6465 0.14747 0.484 0.0
C524 C 0.65651 0.28863 0.64233 0.0
C525 C 0.68281 0.31521 0.71657 0.0
C526 C 0.68715 0.29466 0.67361 0.0
C527 C 0.62134 0.30325 0.65604 0.0
C528 C 0.61697 0.32361 0.69891 0.0
C529 C 0.64766 0.33033 0.72985 0.0
C530 C 0.66054 0.26689 0.59616 0.0
O531 O 0.62637 0.17951 0.63388 0.0
O532 O 0.61144 0.11993 0.61076 0.0
O533 O 0.68036 0.1202 0.65892 0.0
O534 O 0.6947 0.18298 0.65036 0.0
C535 C 0.60537 0.14929 0.63801 0.0
O536 O 0.64637 0.05125 0.60956 0.0
O537 O 0.69628 0.05162 0.56514 0.0
O538 O 0.73098 0.1221 0.58448 0.0
O539 O 0.73007 0.18645 0.57293 0.0
O540 O 0.65551 0.18032 0.50489 0.0
O541 O 0.64863 0.11583 0.50806 0.0
C542 C 0.6927 0.1521 0.67594 0.0
O543 O 0.69303 0.25143 0.587 0.0
O544 O 0.63305 0.24423 0.58474 0.0
C545 C 0.65426 1.00275 0.55389 0.0
C546 C 0.63819 0.95873 0.47409 0.0
C547 C 0.61529 0.98965 0.48494 0.0
C548 C 0.62354 1.01185 0.52458 0.0
C549 C 0.67429 0.9695 0.54622 0.0
C550 C 0.66628 0.9475 0.50639 0.0
C551 C 0.67026 0.03117 0.58521 0.0
H552 H 0.70727 0.31997 0.73881 0.0
H553 H 0.71473 0.28381 0.66475 0.0
H554 H 0.59703 0.29922 0.63327 0.0
H555 H 0.58944 0.33486 0.70721 0.0
H556 H 0.59347 0.99877 0.46051 0.0
H557 H 0.60798 0.0377 0.52996 0.0
H558 H 0.69809 0.96229 0.56862 0.0
H559 H 0.68388 0.92332 0.49895 0.0
Tb560 Tb 0.5926 0.91928 0.33185 0.0
Eu561 Eu 0.68539 0.91904 0.33348 0.0
C562 C 0.63508 0.99867 0.33006 0.0
C563 C 0.6423 0.89655 0.23401 0.0
C564 C 0.50112 0.90651 0.39235 0.0
C565 C 0.47459 0.93279 0.46665 0.0
C566 C 0.49513 0.93714 0.42369 0.0
C567 C 0.48648 0.87134 0.40602 0.0
C568 C 0.46612 0.86697 0.44889 0.0
C569 C 0.45943 0.89765 0.47987 0.0
C570 C 0.52286 0.91054 0.34618 0.0
O571 O 0.61024 0.8764 0.38389 0.0
O572 O 0.66982 0.86148 0.36076 0.0
O573 O 0.66952 0.9304 0.40896 0.0
O574 O 0.60675 0.94475 0.40038 0.0
C575 C 0.64046 0.85541 0.38801 0.0
O576 O 0.73849 0.89643 0.35958 0.0
O577 O 0.73812 0.94635 0.31521 0.0
O578 O 0.66763 0.98103 0.33451 0.0
O579 O 0.60328 0.9801 0.32294 0.0
O580 O 0.60944 0.90552 0.25491 0.0
O581 O 0.67393 0.8987 0.25807 0.0
C582 C 0.63762 0.94274 0.42597 0.0
O583 O 0.53831 0.94304 0.33703 0.0
O584 O 0.54552 0.88306 0.33474 0.0
C585 C 0.787 0.90434 0.30393 0.0
C586 C 0.83103 0.88828 0.22412 0.0
C587 C 0.80013 0.86536 0.23497 0.0
C588 C 0.77793 0.87361 0.27461 0.0
C589 C 0.82022 0.92441 0.29625 0.0
C590 C 0.84223 0.9164 0.25641 0.0
C591 C 0.75857 0.92033 0.33526 0.0
H592 H 0.46986 0.95724 0.48893 0.0
H593 H 0.50602 0.96471 0.41487 0.0
H594 H 0.49048 0.84705 0.3832 0.0
H595 H 0.45484 0.83944 0.45715 0.0
H596 H 0.79103 0.84352 0.21055 0.0
H597 H 0.75209 0.85802 0.28001 0.0
H598 H 0.82742 0.94822 0.31865 0.0
H599 H 0.86639 0.93403 0.24896 0.0
Tb600 Tb 0.87049 0.84263 0.08188 0.0
Eu601 Eu 0.87072 0.93544 0.0835 0.0
C602 C 0.79109 0.88512 1.08009 0.0
C603 C 0.89322 0.89231 0.98404 0.0
C604 C 0.88327 0.75116 0.14239 0.0
C605 C 0.85699 0.72462 0.21667 0.0
C606 C 0.85264 0.74517 0.17372 0.0
C607 C 0.91844 0.73652 0.15604 0.0
C608 C 0.92281 0.71615 0.1989 0.0
C609 C 0.89214 0.70946 0.22988 0.0
C610 C 0.87923 0.7729 0.09622 0.0
O611 O 0.91337 0.8603 0.13391 0.0
O612 O 0.92826 0.91991 0.11084 0.0
O613 O 0.85934 0.91961 0.15898 0.0
O614 O 0.84503 0.85682 0.15041 0.0
C615 C 0.93435 0.89053 0.13806 0.0
O616 O 0.89332 0.98857 0.10955 0.0
O617 O 0.84338 0.98815 1.06522 0.0
O618 O 0.80873 0.91766 0.08451 0.0
O619 O 0.80967 0.85331 1.07299 0.0
O620 O 0.88422 0.85946 1.00493 0.0
O621 O 0.8911 0.92395 1.00811 0.0
C622 C 0.84702 0.88771 0.176 0.0
O623 O 0.84674 0.78835 0.08708 0.0
O624 O 0.90671 0.79556 0.08478 0.0
C625 C 0.88537 0.03704 1.05388 0.0
C626 C 0.90143 0.08105 0.97407 0.0
C627 C 0.92435 0.05016 0.98492 0.0
C628 C 0.91611 0.02797 1.02456 0.0
C629 C 0.8653 0.07026 1.0462 0.0
C630 C 0.8733 0.09226 1.00636 0.0
C631 C 0.8694 1.00863 0.08523 0.0
H632 H 0.83254 0.71988 0.23895 0.0
H633 H 0.82507 0.75605 0.16491 0.0
H634 H 0.94273 0.74052 0.13323 0.0
H635 H 0.95034 0.70488 0.20715 0.0
H636 H 0.9462 0.04106 0.9605 0.0
H637 H 0.9317 1.00214 1.02996 0.0
H638 H 0.84148 0.07745 1.0686 0.0
H639 H 0.85567 0.11641 0.99891 0.0
Tb640 Tb 0.68422 0.61918 0.83358 0.0
Eu641 Eu 0.59155 0.62207 0.83218 0.0
C642 C 0.64331 0.6833 0.89129 0.0
C643 C 0.63829 0.59513 0.92563 0.0
C644 C 0.78334 0.63215 0.80176 0.0
C645 C 0.79771 0.67268 0.73467 0.0
C646 C 0.77499 0.66374 0.7736 0.0
C647 C 0.81614 0.61156 0.79342 0.0
C648 C 0.83862 0.62023 0.75424 0.0
C649 C 0.82838 0.64961 0.72331 0.0
C650 C 0.75502 0.6166 0.83365 0.0
O651 O 0.66698 0.55912 0.83479 0.0
O652 O 0.60258 0.55931 0.82316 0.0
O653 O 0.6092 0.63651 0.75356 0.0
O654 O 0.67389 0.63722 0.75917 0.0
C655 C 0.63455 0.54113 0.83007 0.0
O656 O 0.53434 0.5996 0.83752 0.0
O657 O 0.54288 0.6598 0.83641 0.0
O658 O 0.61136 0.66534 0.88627 0.0
O659 O 0.6723 0.67487 0.86405 0.0
O660 O 0.67013 0.60573 0.9065 0.0
O661 O 0.60624 0.59543 0.90255 0.0
C662 C 0.64295 0.64181 0.73383 0.0
O663 O 0.73556 0.64086 0.85806 0.0
O664 O 0.7337 0.59115 0.81408 0.0
C665 C 0.49875 0.63652 0.89366 0.0
C666 C 0.4595 0.64589 0.98234 0.0
C667 C 0.47905 0.61237 0.97209 0.0
C668 C 0.49851 0.60781 0.92854 0.0
C669 C 0.4798 0.67019 0.90425 0.0
C670 C 0.46058 0.67485 0.94783 0.0
C671 C 0.51987 0.63248 0.84742 0.0
H672 H 0.78929 0.69539 0.71115 0.0
H673 H 0.74949 0.67977 0.77951 0.0
H674 H 0.82279 0.5871 0.81494 0.0
H675 H 0.8625 0.60237 0.74627 0.0
H676 H 0.47873 0.58927 0.99732 0.0
H677 H 0.51318 0.58161 0.92216 0.0
H678 H 0.47965 0.693 0.87857 0.0
H679 H 0.44573 0.70102 0.95385 0.0
Tb680 Tb 0.67061 0.43429 0.08358 0.0
Eu681 Eu 0.6677 0.34161 0.0822 0.0
C682 C 0.60648 0.39341 0.14133 0.0
C683 C 0.69464 0.3884 0.17564 0.0
C684 C 0.65766 0.53339 1.0517 0.0
C685 C 0.61711 0.54774 0.98461 0.0
C686 C 0.62607 0.52503 1.02353 0.0
C687 C 0.67823 0.56621 1.04336 0.0
C688 C 0.66955 0.58868 1.00419 0.0
C689 C 0.64017 0.57843 0.97327 0.0
C690 C 0.6732 0.5051 0.0836 0.0
O691 O 0.73066 0.41703 0.08477 0.0
O692 O 0.73046 0.35262 1.07321 0.0
O693 O 0.65328 0.35924 1.00356 0.0
O694 O 0.65252 0.42393 1.0092 0.0
C695 C 0.74864 0.3846 1.08009 0.0
O696 O 0.69015 0.2844 0.08755 0.0
O697 O 0.62996 0.29294 0.08644 0.0
O698 O 0.62442 0.36145 0.13627 0.0
O699 O 0.61493 0.42241 0.11413 0.0
O700 O 0.68407 0.42024 0.15649 0.0
O701 O 0.69431 0.35633 0.15258 0.0
C702 C 0.64795 0.39299 0.98384 0.0
O703 O 0.64895 0.48566 0.10804 0.0
O704 O 0.69864 0.48375 1.06403 0.0
C705 C 0.65324 0.24882 0.14368 0.0
C706 C 0.64388 0.20954 0.23234 0.0
C707 C 0.6774 0.22908 0.22209 0.0
C708 C 0.68195 0.24855 0.17855 0.0
C709 C 0.61956 0.22987 0.15428 0.0
C710 C 0.6149 0.21065 0.19785 0.0
C711 C 0.65728 0.26994 0.09745 0.0
H712 H 0.59441 0.53931 0.9611 0.0
H713 H 0.61006 0.49953 1.02944 0.0
H714 H 0.70268 0.57288 1.06488 0.0
H715 H 0.6874 0.61257 0.99623 0.0
H716 H 0.70051 0.22875 0.2473 0.0
H717 H 0.70816 0.26322 0.17217 0.0
H718 H 0.59674 0.22974 0.12862 0.0
H719 H 0.58874 0.19581 0.20387 0.0
Tb720 Tb 0.85549 0.42063 0.33363 0.0
Eu721 Eu 0.94817 0.4177 0.33223 0.0
C722 C 0.89636 0.35649 0.39135 0.0
C723 C 0.90139 0.44466 0.42568 0.0
C724 C 0.75638 0.40774 0.30172 0.0
C725 C 0.74199 0.36719 0.23463 0.0
C726 C 0.76471 0.37612 0.27356 0.0
C727 C 0.72361 0.42836 0.29336 0.0
C728 C 0.70113 0.4197 0.25419 0.0
C729 C 0.71135 0.39029 0.22327 0.0
C730 C 0.78468 0.42324 0.33365 0.0
O731 O 0.87276 0.48067 0.33481 0.0
O732 O 0.93717 0.48046 0.32323 0.0
O733 O 0.93053 0.40329 0.25359 0.0
O734 O 0.86585 0.40255 0.25923 0.0
C735 C 0.9052 0.49866 0.33011 0.0
O736 O 1.00538 0.44015 0.3376 0.0
O737 O 0.99684 0.37995 0.33645 0.0
O738 O 0.92833 0.37442 0.38628 0.0
O739 O 0.86736 0.36496 0.36417 0.0
O740 O 0.86954 0.43409 0.40654 0.0
O741 O 0.93345 0.44433 0.4026 0.0
C742 C 0.89678 0.39798 0.23386 0.0
O743 O 0.80411 0.39896 0.35804 0.0
O744 O 0.80604 0.44869 0.31414 0.0
C745 C 0.04095 0.40322 0.39372 0.0
C746 C 0.08021 0.39385 0.48237 0.0
C747 C 0.06067 0.42737 0.47215 0.0
C748 C 0.0412 0.43193 0.42861 0.0
C749 C 0.0599 0.36955 0.40429 0.0
C750 C 0.07912 0.36489 0.44785 0.0
C751 C 1.01984 0.40727 0.34748 0.0
H752 H 0.7504 0.34446 0.21112 0.0
H753 H 0.79018 0.36007 0.27948 0.0
H754 H 0.71697 0.45283 0.31488 0.0
H755 H 0.67727 0.43758 0.24621 0.0
H756 H 0.06099 0.45048 0.49738 0.0
H757 H 0.02653 0.45813 0.42225 0.0
H758 H 0.06005 0.34673 0.3786 0.0
H759 H 0.09398 0.33872 0.45385 0.0
Tb760 Tb 0.86913 0.60554 0.58362 0.0
Eu761 Eu 0.87204 0.69821 0.58221 0.0
C762 C 0.93326 0.64643 0.64132 0.0
C763 C 0.84509 0.65148 0.67567 0.0
C764 C 0.88205 0.50641 0.55178 0.0
C765 C 0.92261 0.49202 0.48469 0.0
C766 C 0.91366 0.51474 0.52362 0.0
C767 C 0.86144 0.47363 0.54342 0.0
C768 C 0.8701 0.45115 0.50424 0.0
C769 C 0.89951 0.46137 0.47332 0.0
C770 C 0.86653 0.53473 0.58369 0.0
O771 O 0.80908 0.62279 0.58482 0.0
O772 O 0.80928 0.68719 0.57318 0.0
O773 O 0.88649 0.68055 0.50358 0.0
O774 O 0.88717 0.61586 0.5092 0.0
C775 C 0.79109 0.65523 0.58009 0.0
O776 O 0.84959 0.75542 0.58757 0.0
O777 O 0.90979 0.74687 0.58642 0.0
O778 O 0.9153 0.67838 0.63629 0.0
O779 O 0.92481 0.61743 0.6141 0.0
O780 O 0.85567 0.61963 0.65654 0.0
O781 O 0.84539 0.68352 0.65258 0.0
C782 C 0.89177 0.6468 0.48385 0.0
O783 O 0.8908 0.55418 0.60808 0.0
O784 O 0.84108 0.55606 0.56415 0.0
C785 C 0.88652 0.791 0.6437 0.0
C786 C 0.8959 0.83024 0.73237 0.0
C787 C 0.86239 0.81067 0.72216 0.0
C788 C 0.85783 0.79122 0.67861 0.0
C789 C 0.92018 0.80997 0.65425 0.0
C790 C 0.92485 0.82918 0.69783 0.0
C791 C 0.88247 0.76988 0.59745 0.0
H792 H 0.94533 0.50042 0.46118 0.0
H793 H 0.92971 0.54022 0.52954 0.0
H794 H 0.83697 0.46699 0.56494 0.0
H795 H 0.85222 0.42728 0.49626 0.0
H796 H 0.8393 0.81097 0.74742 0.0
H797 H 0.83163 0.77653 0.67226 0.0
H798 H 0.94299 0.81013 0.62855 0.0
H799 H 0.95101 0.84405 0.70382 0.0
Tb800 Tb 0.68425 0.42064 0.82985 0.0
Eu801 Eu 0.59157 0.41773 0.83123 0.0
C802 C 0.64337 0.35651 0.77211 0.0
C803 C 0.63837 0.44468 0.73779 0.0
C804 C 0.78335 0.40771 0.86175 0.0
C805 C 0.7977 0.36716 0.92883 0.0
C806 C 0.77499 0.37611 0.88992 0.0
C807 C 0.81616 0.42828 0.87008 0.0
C808 C 0.83863 0.4196 0.90925 0.0
C809 C 0.82839 0.39022 0.94018 0.0
C810 C 0.75506 0.42324 0.82984 0.0
O811 O 0.66699 0.48069 0.82866 0.0
O812 O 0.60258 0.4805 0.84022 0.0
O813 O 0.6092 0.40332 0.90987 0.0
O814 O 0.67389 0.40255 0.90423 0.0
C815 C 0.63456 0.49868 0.83334 0.0
O816 O 0.53437 0.44019 0.82587 0.0
O817 O 0.5429 0.38 0.82699 0.0
O818 O 0.61141 0.37445 0.77717 0.0
O819 O 0.67238 0.36497 0.7993 0.0
O820 O 0.67021 0.43411 0.75694 0.0
O821 O 0.6063 0.44434 0.76085 0.0
C822 C 0.64295 0.39799 0.92959 0.0
O823 O 0.73563 0.39899 0.8054 0.0
O824 O 0.73371 0.44869 0.84939 0.0
C825 C 0.49878 0.40328 0.76974 0.0
C826 C 0.45951 0.39392 0.68109 0.0
C827 C 0.47904 0.42744 0.69134 0.0
C828 C 0.49851 0.432 0.73488 0.0
C829 C 0.47984 0.3696 0.75915 0.0
C830 C 0.46062 0.36494 0.71559 0.0
C831 C 0.5199 0.40732 0.81598 0.0
H832 H 0.78927 0.34445 0.95235 0.0
H833 H 0.74949 0.3601 0.88401 0.0
H834 H 0.82283 0.45274 0.84856 0.0
H835 H 0.86253 0.43745 0.91721 0.0
H836 H 0.4787 0.45055 0.66613 0.0
H837 H 0.51317 0.45821 0.74126 0.0
H838 H 0.47971 0.34678 0.78481 0.0
H839 H 0.44578 0.33877 0.70956 0.0
Tb840 Tb 0.86914 0.43425 1.07985 0.0
Eu841 Eu 0.87202 0.34158 1.08125 0.0
C842 C 0.93326 0.39334 1.02214 0.0
C843 C 0.8451 0.38833 0.9878 0.0
C844 C 0.88212 0.53337 0.11169 0.0
C845 C 0.92266 0.54772 0.17878 0.0
C846 C 0.91371 0.52501 0.13985 0.0
C847 C 0.86155 0.56618 0.12003 0.0
C848 C 0.87022 0.58866 0.1592 0.0
C849 C 0.8996 0.57841 0.19013 0.0
C850 C 0.86657 0.50506 1.0798 0.0
O851 O 0.80909 0.41701 1.07864 0.0
O852 O 0.80927 0.35261 0.09027 0.0
O853 O 0.88647 0.35922 0.15988 0.0
O854 O 0.88719 0.42391 0.15426 0.0
C855 C 0.79109 0.38459 0.08336 0.0
O856 O 0.84955 0.28437 1.07591 0.0
O857 O 0.90975 0.2929 1.07703 0.0
O858 O 0.91529 0.36139 1.02717 0.0
O859 O 0.92483 0.42233 1.04937 0.0
O860 O 0.85569 0.42018 1.00694 0.0
O861 O 0.84539 0.35628 1.01088 0.0
C862 C 0.89178 0.39297 0.1796 0.0
O863 O 0.89082 0.4856 1.05537 0.0
O864 O 0.84112 0.48373 0.09937 0.0
C865 C 0.88647 0.24878 1.01978 0.0
C866 C 0.89584 0.20952 0.9311 0.0
C867 C 0.86232 0.22907 0.94135 0.0
C868 C 0.85776 0.24853 0.9849 0.0
C869 C 0.92014 0.22982 1.00919 0.0
C870 C 0.9248 0.21061 0.96561 0.0
C871 C 0.88243 0.2699 1.06602 0.0
H872 H 0.94536 0.53929 0.2023 0.0
H873 H 0.92972 0.4995 0.13394 0.0
H874 H 0.83709 0.57284 0.0985 0.0
H875 H 0.85237 0.61255 0.16717 0.0
H876 H 0.83922 0.22875 0.91612 0.0
H877 H 0.83156 0.26321 0.99128 0.0
H878 H 0.94295 0.22968 1.03486 0.0
H879 H 0.95096 0.19575 0.95959 0.0
Tb880 Tb 0.85552 0.61915 0.32982 0.0
Eu881 Eu 0.94819 0.62206 0.33123 0.0
C882 C 0.89642 0.68328 0.27214 0.0
C883 C 0.90147 0.59512 0.23777 0.0
C884 C 0.7564 0.63209 0.36165 0.0
C885 C 0.74201 0.67264 0.42874 0.0
C886 C 0.76473 0.6637 0.38982 0.0
C887 C 0.72361 0.61148 0.37001 0.0
C888 C 0.70113 0.62015 0.40918 0.0
C889 C 0.71135 0.64955 0.44011 0.0
C890 C 0.78472 0.61656 0.32975 0.0
O891 O 0.87277 0.5591 0.32861 0.0
O892 O 0.93717 0.5593 0.34027 0.0
O893 O 0.93054 0.6365 0.40986 0.0
O894 O 0.86585 0.63718 0.40424 0.0
C895 C 0.9052 0.54111 0.33335 0.0
O896 O 1.0054 0.5996 0.32587 0.0
O897 O 0.99686 0.6598 0.32702 0.0
O898 O 0.92837 0.66532 0.27716 0.0
O899 O 0.86743 0.67484 0.29936 0.0
O900 O 0.86962 0.60571 0.2569 0.0
O901 O 0.93351 0.59541 0.26086 0.0
C902 C 0.89678 0.64179 0.42959 0.0
O903 O 0.80417 0.64082 0.30535 0.0
O904 O 0.80605 0.59111 0.3493 0.0
C905 C 0.04098 0.63652 0.26975 0.0
C906 C 0.08022 0.64591 0.18106 0.0
C907 C 0.06067 0.61239 0.19129 0.0
C908 C 0.04122 0.60782 0.23485 0.0
C909 C 0.05994 0.6702 0.25918 0.0
C910 C 0.07915 0.67486 0.2156 0.0
C911 C 0.01987 0.63248 0.31599 0.0
H912 H 0.75042 0.69536 0.45226 0.0
H913 H 0.79022 0.67974 0.38389 0.0
H914 H 0.71697 0.58702 0.34849 0.0
H915 H 0.67726 0.60228 0.41716 0.0
H916 H 0.06098 0.58929 0.16605 0.0
H917 H 0.02654 0.58162 0.24121 0.0
H918 H 0.06009 0.693 0.28487 0.0
H919 H 0.09401 0.70102 0.20959 0.0
Tb920 Tb 0.67061 0.60553 0.5798 0.0
Eu921 Eu 0.66769 0.6982 0.5812 0.0
C922 C 0.60648 0.64641 0.52208 0.0
C923 C 0.69464 0.65143 0.48775 0.0
C924 C 0.65771 0.50641 0.6117 0.0
C925 C 0.61716 0.49202 0.67879 0.0
C926 C 0.62609 0.51474 0.63986 0.0
C927 C 0.67833 0.47364 0.62006 0.0
C928 C 0.66967 0.45116 0.65924 0.0
C929 C 0.64026 0.46138 0.69015 0.0
C930 C 0.67322 0.53471 0.57977 0.0
O931 O 0.73066 0.62279 0.57861 0.0
O932 O 0.73045 0.6872 0.59021 0.0
O933 O 0.65327 0.68057 0.65984 0.0
O934 O 0.65254 0.61588 0.65421 0.0
C935 C 0.74864 0.65522 0.58333 0.0
O936 O 0.69014 0.75542 0.57583 0.0
O937 O 0.62995 0.74687 0.57699 0.0
O938 O 0.62442 0.67837 0.52715 0.0
O939 O 0.61494 0.6174 0.54928 0.0
O940 O 0.68407 0.61959 0.50689 0.0
O941 O 0.69433 0.68349 0.51083 0.0
C942 C 0.64796 0.64682 0.67956 0.0
O943 O 0.64894 0.55415 0.55538 0.0
O944 O 0.69867 0.55607 0.59928 0.0
C945 C 0.65321 0.79099 0.51972 0.0
C946 C 0.64383 0.83025 0.43106 0.0
C947 C 0.67734 0.8107 0.44127 0.0
C948 C 0.68191 0.79123 0.48481 0.0
C949 C 0.61954 0.80995 0.50916 0.0
C950 C 0.61487 0.82917 0.4656 0.0
C951 C 0.65726 0.76988 0.56596 0.0
H952 H 0.59443 0.50043 0.7023 0.0
H953 H 0.61004 0.54021 0.63393 0.0
H954 H 0.7028 0.467 0.59854 0.0
H955 H 0.68755 0.4273 0.66722 0.0
H956 H 0.70044 0.81101 0.41603 0.0
H957 H 0.70811 0.77655 0.49116 0.0
H958 H 0.59673 0.8101 0.53486 0.0
H959 H 0.58871 0.84403 0.4596 0.0
Tb960 Tb 0.44712 0.41929 0.33162 0.0
Eu961 Eu 0.35433 0.41903 0.33 0.0
C962 C 0.40462 0.49868 0.33339 0.0
C963 C 0.39743 0.39655 0.42945 0.0
C964 C 0.5386 0.40654 0.27112 0.0
C965 C 0.56518 0.43284 0.19687 0.0
C966 C 0.54463 0.43719 0.23983 0.0
C967 C 0.55321 0.37137 0.2574 0.0
C968 C 0.57358 0.367 0.21453 0.0
C969 C 0.5803 0.39769 0.1836 0.0
C970 C 0.51685 0.41057 0.31729 0.0
O971 O 0.42948 0.37641 0.27956 0.0
O972 O 0.3699 0.36147 0.3027 0.0
O973 O 0.37019 0.4304 0.25452 0.0
O974 O 0.43296 0.44474 0.26309 0.0
C975 C 0.39927 0.35541 0.27544 0.0
O976 O 0.30123 0.39642 0.30388 0.0
O977 O 0.3016 0.44632 0.3483 0.0
O978 O 0.37208 0.48102 0.32897 0.0
O979 O 0.43642 0.48011 0.34052 0.0
O980 O 0.43029 0.40554 0.40855 0.0
O981 O 0.3658 0.39868 0.4054 0.0
C982 C 0.40208 0.44275 0.23751 0.0
O983 O 0.5014 0.44306 0.32645 0.0
O984 O 0.4942 0.38308 0.32871 0.0
C985 C 0.25273 0.4043 0.35954 0.0
C986 C 0.20869 0.38822 0.43933 0.0
C987 C 0.23961 0.36532 0.42849 0.0
C988 C 0.26181 0.37358 0.38885 0.0
C989 C 0.21948 0.42434 0.36721 0.0
C990 C 0.19747 0.41632 0.40704 0.0
C991 C 0.28115 0.42031 0.32823 0.0
H992 H 0.56994 0.45731 0.17463 0.0
H993 H 0.53378 0.46476 0.24869 0.0
H994 H 0.54918 0.34706 0.28018 0.0
H995 H 0.58482 0.33947 0.20623 0.0
H996 H 0.24872 0.34349 0.45292 0.0
H997 H 0.28766 0.35801 0.38346 0.0
H998 H 0.21227 0.44814 0.34481 0.0
H999 H 0.1733 0.43393 0.41449 0.0
Tb1000 Tb 0.37047 0.69714 1.0816 0.0
Eu1001 Eu 0.37073 0.60434 1.07999 0.0
C1002 C 0.29109 0.65464 0.08338 0.0
C1003 C 0.39322 0.64747 0.17943 0.0
C1004 C 0.38323 0.78862 1.0211 0.0
C1005 C 0.35693 0.81521 0.94687 0.0
C1006 C 0.35259 0.79465 0.98982 0.0
C1007 C 0.4184 0.80324 1.00739 0.0
C1008 C 0.42276 0.82361 0.96454 0.0
C1009 C 0.39208 0.83033 0.93361 0.0
C1010 C 0.3792 0.76687 1.06726 0.0
O1011 O 0.41336 0.67948 1.02955 0.0
O1012 O 0.42827 0.61989 1.05263 0.0
O1013 O 0.35935 0.62015 1.00452 0.0
O1014 O 0.34504 0.68294 1.01307 0.0
C1015 C 0.43434 0.64925 1.0254 0.0
O1016 O 0.39333 0.55121 1.05391 0.0
O1017 O 0.34342 0.55162 0.09833 0.0
O1018 O 0.30874 0.62209 1.07898 0.0
O1019 O 0.30966 0.68645 0.09048 0.0
O1020 O 0.38421 0.68032 0.15854 0.0
O1021 O 0.39112 0.61584 0.15537 0.0
C1022 C 0.34702 0.65205 0.9875 0.0
O1023 O 0.34671 0.75142 1.07642 0.0
O1024 O 0.40668 0.74422 1.07868 0.0
C1025 C 0.38543 0.50274 0.1096 0.0
C1026 C 0.40151 0.45873 0.18938 0.0
C1027 C 0.42441 0.48965 0.17855 0.0
C1028 C 0.41615 0.51184 0.13892 0.0
C1029 C 0.3654 0.4695 0.11727 0.0
C1030 C 0.37341 0.44749 0.1571 0.0
C1031 C 0.36944 0.53115 1.07827 0.0
H1032 H 0.33247 0.81997 0.92463 0.0
H1033 H 0.32501 0.78379 0.99867 0.0
H1034 H 0.44271 0.7992 1.03017 0.0
H1035 H 0.4503 0.83486 0.95625 0.0
H1036 H 0.44623 0.49877 0.20298 0.0
H1037 H 0.43172 0.53769 0.13353 0.0
H1038 H 0.34159 0.46228 0.09487 0.0
H1039 H 0.3558 0.42332 0.16454 0.0
Tb1040 Tb 0.09262 0.62051 0.83157 0.0
Eu1041 Eu 0.18542 0.62074 0.82996 0.0
C1042 C 0.13509 0.54111 0.83336 0.0
C1043 C 0.14229 0.64323 0.92941 0.0
C1044 C 1.00115 0.63329 0.77106 0.0
C1045 C 0.97459 0.607 0.6968 0.0
C1046 C 0.99514 0.60266 0.73974 0.0
C1047 C 0.98651 0.66846 0.75739 0.0
C1048 C 0.96614 0.67282 0.71454 0.0
C1049 C 0.95944 0.64215 0.68357 0.0
C1050 C 0.02289 0.62926 0.81723 0.0
O1051 O 0.11029 0.6634 0.77954 0.0
O1052 O 0.16989 0.67828 0.8026 0.0
O1053 O 0.16959 0.60935 0.75448 0.0
O1054 O 0.10681 0.59506 0.76304 0.0
C1055 C 0.14052 0.68436 0.77539 0.0
O1056 O 0.23855 0.64333 0.8039 0.0
O1057 O 0.23812 0.5934 0.84826 0.0
O1058 O 0.16764 0.55875 0.82895 0.0
O1059 O 0.10328 0.55969 0.84045 0.0
O1060 O 0.10944 0.63424 0.90852 0.0
O1061 O 0.17392 0.64112 0.90534 0.0
C1062 C 0.1377 0.59703 0.73746 0.0
O1063 O 0.03833 0.59676 0.82637 0.0
O1064 O 0.04554 0.65674 0.82866 0.0
C1065 C 0.28701 0.63539 0.85959 0.0
C1066 C 0.33103 0.65146 0.93938 0.0
C1067 C 0.30013 0.67438 0.92854 0.0
C1068 C 0.27793 0.66612 0.8889 0.0
C1069 C 0.32024 0.61532 0.86726 0.0
C1070 C 0.34224 0.62333 0.90709 0.0
C1071 C 0.2586 0.61941 0.82824 0.0
H1072 H 0.96984 0.58254 0.67453 0.0
H1073 H 1.00602 0.57508 0.74856 0.0
H1074 H 0.99052 0.69276 0.7802 0.0
H1075 H 0.95487 0.70036 0.70628 0.0
H1076 H 0.29103 0.69622 0.95296 0.0
H1077 H 0.2521 0.68171 0.88351 0.0
H1078 H 0.32744 0.59151 0.84486 0.0
H1079 H 0.3664 0.60571 0.91454 0.0
Tb1080 Tb 0.16924 0.34262 0.58158 0.0
Eu1081 Eu 0.169 0.43541 0.57995 0.0
C1082 C 0.24864 0.38511 0.58337 0.0
C1083 C 0.14652 0.39232 0.67943 0.0
C1084 C 0.15646 0.25115 0.52108 0.0
C1085 C 0.18273 0.22462 0.44677 0.0
C1086 C 0.18709 0.24517 0.48973 0.0
C1087 C 0.1213 0.23648 0.50743 0.0
C1088 C 0.11693 0.21612 0.46456 0.0
C1089 C 0.14759 0.20945 0.43356 0.0
C1090 C 0.16051 0.27289 0.56725 0.0
O1091 O 0.12636 0.36026 0.52954 0.0
O1092 O 0.11145 0.41986 0.55265 0.0
O1093 O 0.18037 0.41955 0.50448 0.0
O1094 O 0.19471 0.35678 0.51305 0.0
C1095 C 0.10537 0.39049 0.52542 0.0
O1096 O 0.14639 0.48852 0.55387 0.0
O1097 O 0.19632 0.48814 0.59821 0.0
O1098 O 0.23099 0.41765 0.57893 0.0
O1099 O 0.23006 0.35331 0.59049 0.0
O1100 O 0.1555 0.35946 0.65852 0.0
O1101 O 0.14865 0.42395 0.65536 0.0
C1102 C 0.19271 0.38766 0.48746 0.0
O1103 O 0.193 0.28833 0.57639 0.0
O1104 O 0.13303 0.29554 0.57869 0.0
C1105 C 0.15432 0.53703 0.60952 0.0
C1106 C 0.13827 0.58105 0.68933 0.0
C1107 C 0.11534 0.55016 0.67847 0.0
C1108 C 0.12358 0.52796 0.63883 0.0
C1109 C 0.1744 0.57024 0.61721 0.0
C1110 C 0.1664 0.59225 0.65705 0.0
C1111 C 0.1703 0.5086 0.57818 0.0
H1112 H 0.20718 0.2199 0.42447 0.0
H1113 H 0.21466 0.25607 0.49853 0.0
H1114 H 0.09701 0.24048 0.53026 0.0
H1115 H 0.0894 0.20484 0.45632 0.0
H1116 H 0.09349 0.54107 0.7029 0.0
H1117 H 0.10798 0.50213 0.63343 0.0
H1118 H 0.19822 0.57743 0.59481 0.0
H1119 H 0.18404 0.6164 0.66451 0.0
Tb1120 Tb 0.4471 0.62052 0.33185 0.0
Eu1121 Eu 0.3543 0.62076 0.33345 0.0
C1122 C 0.40461 0.54113 0.33007 0.0
C1123 C 0.39743 0.64326 0.23402 0.0
C1124 C 0.53857 0.63328 0.39235 0.0
C1125 C 0.56516 0.60698 0.46658 0.0
C1126 C 0.5446 0.60264 0.42364 0.0
C1127 C 0.5532 0.66845 0.40604 0.0
C1128 C 0.57358 0.67281 0.4489 0.0
C1129 C 0.5803 0.64213 0.47983 0.0
C1130 C 0.51683 0.62925 0.34619 0.0
O1131 O 0.42944 0.66341 0.38389 0.0
O1132 O 0.36983 0.67831 0.36082 0.0
O1133 O 0.37011 0.60939 0.40893 0.0
O1134 O 0.4329 0.59509 0.40038 0.0
C1135 C 0.39921 0.68439 0.38804 0.0
O1136 O 0.30117 0.64336 0.35952 0.0
O1137 O 0.30159 0.59344 0.31513 0.0
O1138 O 0.37207 0.55877 0.33447 0.0
O1139 O 0.43642 0.5597 0.32297 0.0
O1140 O 0.43028 0.63425 0.2549 0.0
O1141 O 0.3658 0.64116 0.25808 0.0
C1142 C 0.402 0.59706 0.42595 0.0
O1143 O 0.50139 0.59676 0.33702 0.0
O1144 O 0.49418 0.65674 0.33477 0.0
C1145 C 0.2527 0.63544 0.30383 0.0
C1146 C 0.20868 0.65151 0.22405 0.0
C1147 C 0.2396 0.67441 0.23488 0.0
C1148 C 0.2618 0.66616 0.27451 0.0
C1149 C 0.21947 0.6154 0.29617 0.0
C1150 C 0.19746 0.6234 0.25634 0.0
C1151 C 0.28111 0.61946 0.33517 0.0
H1152 H 0.56991 0.58252 0.48883 0.0
H1153 H 0.53373 0.57506 0.41479 0.0
H1154 H 0.54918 0.69276 0.38326 0.0
H1155 H 0.58484 0.70035 0.45718 0.0
H1156 H 0.24871 0.69625 0.21045 0.0
H1157 H 0.28764 0.68174 0.2799 0.0
H1158 H 0.21226 0.59159 0.31857 0.0
H1159 H 0.17329 0.60579 0.2489 0.0
Tb1160 Tb 0.16925 0.69714 0.08182 0.0
Eu1161 Eu 0.169 0.60434 0.08344 0.0
C1162 C 0.24864 0.65464 1.08005 0.0
C1163 C 0.1465 0.64745 0.984 0.0
C1164 C 0.1565 0.78862 0.14232 0.0
C1165 C 0.1828 0.81518 0.21657 0.0
C1166 C 0.18714 0.79464 0.17361 0.0
C1167 C 0.12133 0.80324 0.15603 0.0
C1168 C 0.11697 0.8236 0.1989 0.0
C1169 C 0.14765 0.83032 0.22984 0.0
C1170 C 0.16053 0.76687 0.09615 0.0
O1171 O 0.12636 0.6795 0.13387 0.0
O1172 O 0.11144 0.61991 0.11076 0.0
O1173 O 0.18036 0.62019 0.15891 0.0
O1174 O 0.19469 0.68297 0.15035 0.0
C1175 C 0.10537 0.64927 0.138 0.0
O1176 O 0.14639 0.55123 0.10955 0.0
O1177 O 0.19629 0.55161 1.06512 0.0
O1178 O 0.23099 0.6221 0.08447 0.0
O1179 O 0.23007 0.68644 1.07293 0.0
O1180 O 0.1555 0.6803 1.00489 0.0
O1181 O 0.14863 0.61581 1.00805 0.0
C1182 C 0.1927 0.65209 0.17593 0.0
O1183 O 0.19302 0.75142 0.08698 0.0
O1184 O 0.13304 0.74422 0.08473 0.0
C1185 C 0.15427 0.50274 1.05388 0.0
C1186 C 0.13819 0.4587 0.97409 0.0
C1187 C 0.1153 0.48963 0.98493 0.0
C1188 C 0.12355 0.51183 1.02457 0.0
C1189 C 0.1743 0.46949 1.04622 0.0
C1190 C 0.16629 0.44747 1.00639 0.0
C1191 C 0.17028 0.53115 0.08519 0.0
H1192 H 0.20726 0.81994 0.23882 0.0
H1193 H 0.21472 0.78377 0.16475 0.0
H1194 H 0.09703 0.79921 0.13325 0.0
H1195 H 0.08943 0.83486 0.2072 0.0
H1196 H 0.09347 0.49875 0.9605 0.0
H1197 H 0.10799 0.53769 1.02995 0.0
H1198 H 0.1981 0.46227 1.06861 0.0
H1199 H 0.18389 0.4233 0.99895 0.0
Tb1200 Tb 0.0926 0.41926 0.83185 0.0
Eu1201 Eu 0.18539 0.41901 0.83348 0.0
C1202 C 0.13509 0.49865 0.83006 0.0
C1203 C 0.1423 0.39653 0.73401 0.0
C1204 C 1.00112 0.40648 0.89235 0.0
C1205 C 0.9746 0.43276 0.96665 0.0
C1206 C 0.99514 0.43711 0.92369 0.0
C1207 C 0.98647 0.37132 0.90601 0.0
C1208 C 0.96611 0.36695 0.94888 0.0
C1209 C 0.95943 0.39762 0.97987 0.0
C1210 C 0.02287 0.41052 0.84618 0.0
O1211 O 0.11024 0.37637 0.88389 0.0
O1212 O 0.16983 0.36146 0.86076 0.0
O1213 O 0.16952 0.43038 0.90895 0.0
O1214 O 0.10675 0.44472 0.90037 0.0
C1215 C 0.14046 0.35538 0.88801 0.0
O1216 O 0.23849 0.3964 0.85957 0.0
O1217 O 0.23812 0.44634 0.81522 0.0
O1218 O 0.16763 0.48101 0.83451 0.0
O1219 O 0.10328 0.48008 0.82294 0.0
O1220 O 0.10944 0.40551 0.75491 0.0
O1221 O 0.17393 0.39867 0.75807 0.0
C1222 C 0.13762 0.44272 0.92597 0.0
O1223 O 0.03831 0.44301 0.83703 0.0
O1224 O 0.04552 0.38304 0.83474 0.0
C1225 C 0.287 0.40434 0.80392 0.0
C1226 C 0.33103 0.38829 0.72411 0.0
C1227 C 0.30014 0.36536 0.73497 0.0
C1228 C 0.27794 0.3736 0.77461 0.0
C1229 C 0.32022 0.42441 0.79624 0.0
C1230 C 0.34223 0.41641 0.7564 0.0
C1231 C 0.25857 0.42031 0.83526 0.0
H1232 H 0.96987 0.45721 0.98894 0.0
H1233 H 1.00603 0.46468 0.91487 0.0
H1234 H 0.99047 0.34703 0.88319 0.0
H1235 H 0.95483 0.33942 0.95714 0.0
H1236 H 0.29105 0.34351 0.71055 0.0
H1237 H 0.25211 0.358 0.78001 0.0
H1238 H 0.32741 0.44823 0.81864 0.0
H1239 H 0.36638 0.43405 0.74895 0.0
Tb1240 Tb 0.37049 0.34265 0.58187 0.0
Eu1241 Eu 0.37071 0.43545 0.58349 0.0
C1242 C 0.29109 0.38512 0.58008 0.0
C1243 C 0.39322 0.39233 0.48404 0.0
C1244 C 0.38328 0.25118 0.64238 0.0
C1245 C 0.357 0.22464 0.71667 0.0
C1246 C 0.35266 0.2452 0.67372 0.0
C1247 C 0.41844 0.23653 0.65603 0.0
C1248 C 0.42282 0.21616 0.69889 0.0
C1249 C 0.39215 0.20948 0.72988 0.0
C1250 C 0.37924 0.27292 0.59621 0.0
O1251 O 0.41338 0.36032 0.6339 0.0
O1252 O 0.42826 0.41993 0.61084 0.0
O1253 O 0.35934 0.41962 0.65897 0.0
O1254 O 0.34504 0.35683 0.6504 0.0
C1255 C 0.43434 0.39056 0.63805 0.0
O1256 O 0.3933 0.48859 0.60955 0.0
O1257 O 0.34337 0.48816 0.5652 0.0
O1258 O 0.30873 0.41767 0.5845 0.0
O1259 O 0.30968 0.35331 0.57298 0.0
O1260 O 0.38423 0.35947 0.50492 0.0
O1261 O 0.3911 0.42397 0.5081 0.0
C1262 C 0.34702 0.38772 0.67599 0.0
O1263 O 0.34675 0.28836 0.58707 0.0
O1264 O 0.40672 0.29558 0.58477 0.0
C1265 C 0.38536 0.53706 0.55387 0.0
C1266 C 0.40142 0.58108 0.47407 0.0
C1267 C 0.42434 0.55018 0.48492 0.0
C1268 C 0.4161 0.52798 0.52455 0.0
C1269 C 0.36529 0.57028 0.54619 0.0
C1270 C 0.37329 0.59228 0.50635 0.0
C1271 C 0.36938 0.50864 0.58522 0.0
H1272 H 0.33255 0.21992 0.73896 0.0
H1273 H 0.32508 0.25609 0.66491 0.0
H1274 H 0.44274 0.24052 0.63321 0.0
H1275 H 0.45034 0.20488 0.70714 0.0
H1276 H 0.44619 0.54108 0.46049 0.0
H1277 H 0.43169 0.50215 0.52995 0.0
H1278 H 0.34147 0.57747 0.56859 0.0
H1279 H 0.35566 0.61644 0.49891 0.0
loop_
_geom_bond_atom_site_label_1
_geom_bond_atom_site_label_2
_geom_bond_distance
_geom_bond_site_symmetry_2
_ccdc_geom_bond_type
Tb0 C10 2.825 . S
Tb0 O11 2.347 . S
Tb0 O14 2.366 . S
Tb0 O19 2.418 . S
Tb0 O20 2.384 . S
Tb0 O23 2.479 . S
Tb0 O24 2.471 . S
Eu1 O12 2.418 . S
Eu1 O13 2.384 . S
Eu1 O16 2.479 . S
Eu1 O17 2.471 . S
Eu1 O18 2.347 . S
Eu1 O21 2.366 . S
Eu1 C31 2.825 . S
C2 O18 1.259 . S
C2 O19 1.265 . S
C3 O20 1.255 . S
C3 O21 1.265 . S
C4 C6 1.380 . S
C4 C7 1.374 . S
C4 C10 1.507 . S
C5 C6 1.384 . S
C5 C9 1.387 . S
C5 H32 0.930 . S
C6 C4 1.380 . S
C6 C5 1.384 . S
C6 H33 0.931 . S
C7 C4 1.374 . S
C7 C8 1.390 . S
C7 H34 0.930 . S
C8 C7 1.390 . S
C8 C9 1.391 . S
C8 H35 0.930 . S
C9 C5 1.387 . S
C9 C8 1.391 . S
C10 Tb0 2.825 . S
C10 C4 1.507 . S
C10 O23 1.238 . S
C10 O24 1.247 . S
O11 Tb0 2.347 . S
O11 C15 1.259 . S
O12 Eu1 2.418 . S
O12 C15 1.265 . S
O13 Eu1 2.384 . S
O13 C22 1.255 . S
O14 Tb0 2.366 . S
O14 C22 1.265 . S
C15 O11 1.259 . S
C15 O12 1.265 . S
O16 Eu1 2.479 . S
O16 C31 1.238 . S
O17 Eu1 2.471 . S
O17 C31 1.247 . S
O18 Eu1 2.347 . S
O18 C2 1.259 . S
O19 Tb0 2.418 . S
O19 C2 1.265 . S
O20 Tb0 2.384 . S
O20 C3 1.255 . S
O21 Eu1 2.366 . S
O21 C3 1.265 . S
C22 O13 1.255 . S
C22 O14 1.265 . S
O23 Tb0 2.479 . S
O23 C10 1.238 . S
O24 Tb0 2.471 . S
O24 C10 1.247 . S
C25 C28 1.380 . S
C25 C29 1.374 . S
C25 C31 1.507 1_655 S
C26 C27 1.387 . S
C26 C30 1.391 . S
C27 C26 1.387 . S
C27 C28 1.384 . S
C27 H36 0.930 . S
C28 C25 1.380 . S
C28 C27 1.384 . S
C28 H37 0.931 . S
C29 C25 1.374 . S
C29 C30 1.390 . S
C29 H38 0.930 1_655 S
C30 C26 1.391 . S
C30 C29 1.390 . S
C30 H39 0.930 . S
C31 Eu1 2.825 . S
C31 O16 1.238 . S
C31 O17 1.247 . S
C31 C25 1.507 1_455 S
H32 C5 0.930 . S
H33 C6 0.931 . S
H34 C7 0.930 . S
H35 C8 0.930 . S
H36 C27 0.930 . S
H37 C28 0.931 . S
H38 C29 0.930 1_455 S
H39 C30 0.930 . S
Tb40 C50 2.825 . S
Tb40 O51 2.347 . S
Tb40 O54 2.366 . S
Tb40 O59 2.418 . S
Tb40 O60 2.384 . S
Tb40 O63 2.479 . S
Tb40 O64 2.471 . S
Eu41 O52 2.418 . S
Eu41 O53 2.384 . S
Eu41 O56 2.479 . S
Eu41 O57 2.471 . S
Eu41 O58 2.347 . S
Eu41 O61 2.366 . S
Eu41 C71 2.825 . S
C42 O58 1.259 . S
C42 O59 1.265 . S
C43 O60 1.255 . S
C43 O61 1.265 . S
C44 C46 1.380 . S
C44 C47 1.374 . S
C44 C50 1.507 1_545 S
C45 C46 1.384 . S
C45 C49 1.387 . S
C45 H72 0.930 . S
C46 C44 1.380 . S
C46 C45 1.384 . S
C46 H73 0.931 . S
C47 C44 1.374 . S
C47 C48 1.390 . S
C47 H74 0.930 1_545 S
C48 C47 1.390 . S
C48 C49 1.391 . S
C48 H75 0.930 . S
C49 C45 1.387 . S
C49 C48 1.391 . S
C50 Tb40 2.825 . S
C50 C44 1.507 1_565 S
C50 O63 1.238 . S
C50 O64 1.247 . S
O51 Tb40 2.347 . S
O51 C55 1.259 . S
O52 Eu41 2.418 . S
O52 C55 1.265 . S
O53 Eu41 2.384 . S
O53 C62 1.255 . S
O54 Tb40 2.366 . S
O54 C62 1.265 . S
C55 O51 1.259 . S
C55 O52 1.265 . S
O56 Eu41 2.479 . S
O56 C71 1.238 . S
O57 Eu41 2.471 . S
O57 C71 1.247 . S
O58 Eu41 2.347 . S
O58 C42 1.259 . S
O59 Tb40 2.418 . S
O59 C42 1.265 . S
O60 Tb40 2.384 . S
O60 C43 1.255 . S
O61 Eu41 2.366 . S
O61 C43 1.265 . S
C62 O53 1.255 . S
C62 O54 1.265 . S
O63 Tb40 2.479 . S
O63 C50 1.238 . S
O64 Tb40 2.471 . S
O64 C50 1.247 . S
C65 C68 1.380 . S
C65 C69 1.374 . S
C65 C71 1.507 . S
C66 C67 1.387 . S
C66 C70 1.391 . S
C67 C66 1.387 . S
C67 C68 1.384 . S
C67 H76 0.930 . S
C68 C65 1.380 . S
C68 C67 1.384 . S
C68 H77 0.931 . S
C69 C65 1.374 . S
C69 C70 1.390 . S
C69 H78 0.930 . S
C70 C66 1.391 . S
C70 C69 1.390 . S
C70 H79 0.930 . S
C71 Eu41 2.825 . S
C71 O56 1.238 . S
C71 O57 1.247 . S
C71 C65 1.507 . S
H72 C45 0.930 . S
H73 C46 0.931 . S
H74 C47 0.930 1_565 S
H75 C48 0.930 . S
H76 C67 0.930 . S
H77 C68 0.931 . S
H78 C69 0.930 . S
H79 C70 0.930 . S
Tb80 C90 2.825 . S
Tb80 O91 2.347 . S
Tb80 O94 2.366 . S
Tb80 O99 2.418 . S
Tb80 O100 2.384 . S
Tb80 O103 2.479 . S
Tb80 O104 2.471 . S
Eu81 O92 2.418 . S
Eu81 O93 2.384 . S
Eu81 O96 2.479 . S
Eu81 O97 2.471 . S
Eu81 O98 2.347 . S
Eu81 O101 2.366 . S
Eu81 C111 2.825 . S
C82 O98 1.259 . S
C82 O99 1.265 . S
C83 O100 1.255 . S
C83 O101 1.265 . S
C84 C86 1.380 . S
C84 C87 1.374 . S
C84 C90 1.507 . S
C85 C86 1.384 . S
C85 C89 1.387 . S
C85 H112 0.930 . S
C86 C84 1.380 . S
C86 C85 1.384 . S
C86 H113 0.931 . S
C87 C84 1.374 . S
C87 C88 1.390 . S
C87 H114 0.930 . S
C88 C87 1.390 . S
C88 C89 1.391 . S
C88 H115 0.930 . S
C89 C85 1.387 . S
C89 C88 1.391 . S
C90 Tb80 2.825 . S
C90 C84 1.507 . S
C90 O103 1.238 . S
C90 O104 1.247 . S
O91 Tb80 2.347 . S
O91 C95 1.259 . S
O92 Eu81 2.418 . S
O92 C95 1.265 . S
O93 Eu81 2.384 . S
O93 C102 1.255 . S
O94 Tb80 2.366 . S
O94 C102 1.265 . S
C95 O91 1.259 . S
C95 O92 1.265 . S
O96 Eu81 2.479 . S
O96 C111 1.238 . S
O97 Eu81 2.471 . S
O97 C111 1.247 . S
O98 Eu81 2.347 . S
O98 C82 1.259 . S
O99 Tb80 2.418 . S
O99 C82 1.265 . S
O100 Tb80 2.384 . S
O100 C83 1.255 . S
O101 Eu81 2.366 . S
O101 C83 1.265 . S
C102 O93 1.255 . S
C102 O94 1.265 . S
O103 Tb80 2.479 . S
O103 C90 1.238 . S
O104 Tb80 2.471 . S
O104 C90 1.247 . S
C105 C108 1.380 . S
C105 C109 1.374 . S
C105 C111 1.507 . S
C106 C107 1.387 . S
C106 C110 1.391 . S
C107 C106 1.387 . S
C107 C108 1.384 . S
C107 H116 0.930 . S
C108 C105 1.380 . S
C108 C107 1.384 . S
C108 H117 0.931 . S
C109 C105 1.374 . S
C109 C110 1.390 . S
C109 H118 0.930 . S
C110 C106 1.391 . S
C110 C109 1.390 . S
C110 H119 0.930 . S
C111 Eu81 2.825 . S
C111 O96 1.238 . S
C111 O97 1.247 . S
C111 C105 1.507 . S
H112 C85 0.930 . S
H113 C86 0.931 . S
H114 C87 0.930 . S
H115 C88 0.930 . S
H116 C107 0.930 . S
H117 C108 0.931 . S
H118 C109 0.930 . S
H119 C110 0.930 . S
Tb120 C130 2.825 1_554 S
Tb120 O131 2.347 1_554 S
Tb120 O134 2.366 1_554 S
Tb120 O139 2.418 . S
Tb120 O140 2.384 . S
Tb120 O143 2.479 1_554 S
Tb120 O144 2.471 1_554 S
Eu121 O132 2.418 1_554 S
Eu121 O133 2.384 1_554 S
Eu121 O136 2.479 . S
Eu121 O137 2.471 . S
Eu121 O138 2.347 . S
Eu121 O141 2.366 . S
Eu121 C151 2.825 . S
C122 O138 1.259 . S
C122 O139 1.265 . S
C123 O140 1.255 . S
C123 O141 1.265 . S
C124 C126 1.380 . S
C124 C127 1.374 . S
C124 C130 1.507 1_565 S
C125 C126 1.384 . S
C125 C129 1.387 . S
C125 H152 0.930 . S
C126 C124 1.380 . S
C126 C125 1.384 . S
C126 H153 0.931 . S
C127 C124 1.374 . S
C127 C128 1.390 . S
C127 H154 0.930 1_565 S
C128 C127 1.390 . S
C128 C129 1.391 . S
C128 H155 0.930 . S
C129 C125 1.387 . S
C129 C128 1.391 . S
C130 Tb120 2.825 1_556 S
C130 C124 1.507 1_545 S
C130 O143 1.238 . S
C130 O144 1.247 . S
O131 Tb120 2.347 1_556 S
O131 C135 1.259 . S
O132 Eu121 2.418 1_556 S
O132 C135 1.265 . S
O133 Eu121 2.384 1_556 S
O133 C142 1.255 . S
O134 Tb120 2.366 1_556 S
O134 C142 1.265 . S
C135 O131 1.259 . S
C135 O132 1.265 . S
O136 Eu121 2.479 . S
O136 C151 1.238 . S
O137 Eu121 2.471 . S
O137 C151 1.247 . S
O138 Eu121 2.347 . S
O138 C122 1.259 . S
O139 Tb120 2.418 . S
O139 C122 1.265 . S
O140 Tb120 2.384 . S
O140 C123 1.255 . S
O141 Eu121 2.366 . S
O141 C123 1.265 . S
C142 O133 1.255 . S
C142 O134 1.265 . S
O143 Tb120 2.479 1_556 S
O143 C130 1.238 . S
O144 Tb120 2.471 1_556 S
O144 C130 1.247 . S
C145 C148 1.380 . S
C145 C149 1.374 . S
C145 C151 1.507 . S
C146 C147 1.387 . S
C146 C150 1.391 . S
C147 C146 1.387 . S
C147 C148 1.384 . S
C147 H156 0.930 . S
C148 C145 1.380 . S
C148 C147 1.384 . S
C148 H157 0.931 . S
C149 C145 1.374 . S
C149 C150 1.390 . S
C149 H158 0.930 . S
C150 C146 1.391 . S
C150 C149 1.390 . S
C150 H159 0.930 . S
C151 Eu121 2.825 . S
C151 O136 1.238 . S
C151 O137 1.247 . S
C151 C145 1.507 . S
H152 C125 0.930 . S
H153 C126 0.931 . S
H154 C127 0.930 1_545 S
H155 C128 0.930 . S
H156 C147 0.930 . S
H157 C148 0.931 . S
H158 C149 0.930 . S
H159 C150 0.930 . S
Tb160 C170 2.825 . S
Tb160 O171 2.347 . S
Tb160 O174 2.366 . S
Tb160 O179 2.418 . S
Tb160 O180 2.384 . S
Tb160 O183 2.479 . S
Tb160 O184 2.471 . S
Eu161 O172 2.418 . S
Eu161 O173 2.384 . S
Eu161 O176 2.479 . S
Eu161 O177 2.471 . S
Eu161 O178 2.347 . S
Eu161 O181 2.366 . S
Eu161 C191 2.825 . S
C162 O178 1.259 . S
C162 O179 1.265 . S
C163 O180 1.255 . S
C163 O181 1.265 . S
C164 C166 1.380 . S
C164 C167 1.374 . S
C164 C170 1.507 . S
C165 C166 1.384 . S
C165 C169 1.387 . S
C165 H192 0.930 . S
C166 C164 1.380 . S
C166 C165 1.384 . S
C166 H193 0.931 . S
C167 C164 1.374 . S
C167 C168 1.390 . S
C167 H194 0.930 . S
C168 C167 1.390 . S
C168 C169 1.391 . S
C168 H195 0.930 . S
C169 C165 1.387 . S
C169 C168 1.391 . S
C170 Tb160 2.825 . S
C170 C164 1.507 . S
C170 O183 1.238 . S
C170 O184 1.247 . S
O171 Tb160 2.347 . S
O171 C175 1.259 . S
O172 Eu161 2.418 . S
O172 C175 1.265 . S
O173 Eu161 2.384 . S
O173 C182 1.255 . S
O174 Tb160 2.366 . S
O174 C182 1.265 . S
C175 O171 1.259 . S
C175 O172 1.265 . S
O176 Eu161 2.479 . S
O176 C191 1.238 . S
O177 Eu161 2.471 . S
O177 C191 1.247 . S
O178 Eu161 2.347 . S
O178 C162 1.259 . S
O179 Tb160 2.418 . S
O179 C162 1.265 . S
O180 Tb160 2.384 . S
O180 C163 1.255 . S
O181 Eu161 2.366 . S
O181 C163 1.265 . S
C182 O173 1.255 . S
C182 O174 1.265 . S
O183 Tb160 2.479 . S
O183 C170 1.238 . S
O184 Tb160 2.471 . S
O184 C170 1.247 . S
C185 C188 1.380 . S
C185 C189 1.374 . S
C185 C191 1.507 1_655 S
C186 C187 1.387 . S
C186 C190 1.391 . S
C187 C186 1.387 . S
C187 C188 1.384 . S
C187 H196 0.930 . S
C188 C185 1.380 . S
C188 C187 1.384 . S
C188 H197 0.931 . S
C189 C185 1.374 . S
C189 C190 1.390 . S
C189 H198 0.930 1_655 S
C190 C186 1.391 . S
C190 C189 1.390 . S
C190 H199 0.930 . S
C191 Eu161 2.825 . S
C191 O176 1.238 . S
C191 O177 1.247 . S
C191 C185 1.507 1_455 S
H192 C165 0.930 . S
H193 C166 0.931 . S
H194 C167 0.930 . S
H195 C168 0.930 . S
H196 C187 0.930 . S
H197 C188 0.931 . S
H198 C189 0.930 1_455 S
H199 C190 0.930 . S
Tb200 C210 2.825 . S
Tb200 O211 2.347 . S
Tb200 O214 2.366 . S
Tb200 O219 2.418 . S
Tb200 O220 2.384 . S
Tb200 O223 2.479 . S
Tb200 O224 2.471 . S
Eu201 O212 2.418 . S
Eu201 O213 2.384 . S
Eu201 O216 2.479 . S
Eu201 O217 2.471 . S
Eu201 O218 2.347 . S
Eu201 O221 2.366 . S
Eu201 C231 2.825 . S
C202 O218 1.259 . S
C202 O219 1.265 . S
C203 O220 1.255 . S
C203 O221 1.265 . S
C204 C206 1.380 . S
C204 C207 1.374 . S
C204 C210 1.507 1_545 S
C205 C206 1.384 . S
C205 C209 1.387 . S
C205 H232 0.930 . S
C206 C204 1.380 . S
C206 C205 1.384 . S
C206 H233 0.931 . S
C207 C204 1.374 . S
C207 C208 1.390 . S
C207 H234 0.930 1_545 S
C208 C207 1.390 . S
C208 C209 1.391 . S
C208 H235 0.930 . S
C209 C205 1.387 . S
C209 C208 1.391 . S
C210 Tb200 2.825 . S
C210 C204 1.507 1_565 S
C210 O223 1.238 . S
C210 O224 1.247 . S
O211 Tb200 2.347 . S
O211 C215 1.259 . S
O212 Eu201 2.418 . S
O212 C215 1.265 . S
O213 Eu201 2.384 . S
O213 C222 1.255 . S
O214 Tb200 2.366 . S
O214 C222 1.265 . S
C215 O211 1.259 . S
C215 O212 1.265 . S
O216 Eu201 2.479 . S
O216 C231 1.238 . S
O217 Eu201 2.471 . S
O217 C231 1.247 . S
O218 Eu201 2.347 . S
O218 C202 1.259 . S
O219 Tb200 2.418 . S
O219 C202 1.265 . S
O220 Tb200 2.384 . S
O220 C203 1.255 . S
O221 Eu201 2.366 . S
O221 C203 1.265 . S
C222 O213 1.255 . S
C222 O214 1.265 . S
O223 Tb200 2.479 . S
O223 C210 1.238 . S
O224 Tb200 2.471 . S
O224 C210 1.247 . S
C225 C228 1.380 . S
C225 C229 1.374 . S
C225 C231 1.507 . S
C226 C227 1.387 . S
C226 C230 1.391 . S
C227 C226 1.387 . S
C227 C228 1.384 . S
C227 H236 0.930 . S
C228 C225 1.380 . S
C228 C227 1.384 . S
C228 H237 0.931 . S
C229 C225 1.374 . S
C229 C230 1.390 . S
C229 H238 0.930 . S
C230 C226 1.391 . S
C230 C229 1.390 . S
C230 H239 0.930 . S
C231 Eu201 2.825 . S
C231 O216 1.238 . S
C231 O217 1.247 . S
C231 C225 1.507 . S
H232 C205 0.930 . S
H233 C206 0.931 . S
H234 C207 0.930 1_565 S
H235 C208 0.930 . S
H236 C227 0.930 . S
H237 C228 0.931 . S
H238 C229 0.930 . S
H239 C230 0.930 . S
Tb240 C250 2.825 . S
Tb240 O251 2.347 . S
Tb240 O254 2.366 . S
Tb240 O259 2.418 . S
Tb240 O260 2.384 . S
Tb240 O263 2.479 . S
Tb240 O264 2.471 . S
Eu241 O252 2.418 . S
Eu241 O253 2.384 . S
Eu241 O256 2.479 . S
Eu241 O257 2.471 . S
Eu241 O258 2.347 . S
Eu241 O261 2.366 . S
Eu241 C271 2.825 . S
C242 O258 1.259 . S
C242 O259 1.265 . S
C243 O260 1.255 . S
C243 O261 1.265 . S
C244 C246 1.380 . S
C244 C247 1.374 . S
C244 C250 1.507 . S
C245 C246 1.384 . S
C245 C249 1.387 . S
C245 H272 0.930 . S
C246 C244 1.380 . S
C246 C245 1.384 . S
C246 H273 0.931 . S
C247 C244 1.374 . S
C247 C248 1.390 . S
C247 H274 0.930 . S
C248 C247 1.390 . S
C248 C249 1.391 . S
C248 H275 0.930 . S
C249 C245 1.387 . S
C249 C248 1.391 . S
C250 Tb240 2.825 . S
C250 C244 1.507 . S
C250 O263 1.238 . S
C250 O264 1.247 . S
O251 Tb240 2.347 . S
O251 C255 1.259 . S
O252 Eu241 2.418 . S
O252 C255 1.265 . S
O253 Eu241 2.384 . S
O253 C262 1.255 . S
O254 Tb240 2.366 . S
O254 C262 1.265 . S
C255 O251 1.259 . S
C255 O252 1.265 . S
O256 Eu241 2.479 . S
O256 C271 1.238 . S
O257 Eu241 2.471 . S
O257 C271 1.247 . S
O258 Eu241 2.347 . S
O258 C242 1.259 . S
O259 Tb240 2.418 . S
O259 C242 1.265 . S
O260 Tb240 2.384 . S
O260 C243 1.255 . S
O261 Eu241 2.366 . S
O261 C243 1.265 . S
C262 O253 1.255 . S
C262 O254 1.265 . S
O263 Tb240 2.479 . S
O263 C250 1.238 . S
O264 Tb240 2.471 . S
O264 C250 1.247 . S
C265 C268 1.380 . S
C265 C269 1.374 . S
C265 C271 1.507 . S
C266 C267 1.387 . S
C266 C270 1.391 . S
C267 C266 1.387 . S
C267 C268 1.384 . S
C267 H276 0.930 . S
C268 C265 1.380 . S
C268 C267 1.384 . S
C268 H277 0.931 . S
C269 C265 1.374 . S
C269 C270 1.390 . S
C269 H278 0.930 . S
C270 C266 1.391 . S
C270 C269 1.390 . S
C270 H279 0.930 . S
C271 Eu241 2.825 . S
C271 O256 1.238 . S
C271 O257 1.247 . S
C271 C265 1.507 . S
H272 C245 0.930 . S
H273 C246 0.931 . S
H274 C247 0.930 . S
H275 C248 0.930 . S
H276 C267 0.930 . S
H277 C268 0.931 . S
H278 C269 0.930 . S
H279 C270 0.930 . S
Tb280 C290 2.825 1_556 S
Tb280 O291 2.347 1_556 S
Tb280 O294 2.366 1_556 S
Tb280 O299 2.418 . S
Tb280 O300 2.384 . S
Tb280 O303 2.479 1_556 S
Tb280 O304 2.471 1_556 S
Eu281 O292 2.418 1_556 S
Eu281 O293 2.384 1_556 S
Eu281 O296 2.479 . S
Eu281 O297 2.471 . S
Eu281 O298 2.347 . S
Eu281 O301 2.366 . S
Eu281 C311 2.825 . S
C282 O298 1.259 . S
C282 O299 1.265 . S
C283 O300 1.255 . S
C283 O301 1.265 . S
C284 C286 1.380 . S
C284 C287 1.374 . S
C284 C290 1.507 1_565 S
C285 C286 1.384 . S
C285 C289 1.387 . S
C285 H312 0.930 . S
C286 C284 1.380 . S
C286 C285 1.384 . S
C286 H313 0.931 . S
C287 C284 1.374 . S
C287 C288 1.390 . S
C287 H314 0.930 1_565 S
C288 C287 1.390 . S
C288 C289 1.391 . S
C288 H315 0.930 . S
C289 C285 1.387 . S
C289 C288 1.391 . S
C290 Tb280 2.825 1_554 S
C290 C284 1.507 1_545 S
C290 O303 1.238 . S
C290 O304 1.247 . S
O291 Tb280 2.347 1_554 S
O291 C295 1.259 . S
O292 Eu281 2.418 1_554 S
O292 C295 1.265 . S
O293 Eu281 2.384 1_554 S
O293 C302 1.255 . S
O294 Tb280 2.366 1_554 S
O294 C302 1.265 . S
C295 O291 1.259 . S
C295 O292 1.265 . S
O296 Eu281 2.479 . S
O296 C311 1.238 . S
O297 Eu281 2.471 . S
O297 C311 1.247 . S
O298 Eu281 2.347 . S
O298 C282 1.259 . S
O299 Tb280 2.418 . S
O299 C282 1.265 . S
O300 Tb280 2.384 . S
O300 C283 1.255 . S
O301 Eu281 2.366 . S
O301 C283 1.265 . S
C302 O293 1.255 . S
C302 O294 1.265 . S
O303 Tb280 2.479 1_554 S
O303 C290 1.238 . S
O304 Tb280 2.471 1_554 S
O304 C290 1.247 . S
C305 C308 1.380 . S
C305 C309 1.374 . S
C305 C311 1.507 . S
C306 C307 1.387 . S
C306 C310 1.391 . S
C307 C306 1.387 . S
C307 C308 1.384 . S
C307 H316 0.930 . S
C308 C305 1.380 . S
C308 C307 1.384 . S
C308 H317 0.931 . S
C309 C305 1.374 . S
C309 C310 1.390 . S
C309 H318 0.930 . S
C310 C306 1.391 . S
C310 C309 1.390 . S
C310 H319 0.930 . S
C311 Eu281 2.825 . S
C311 O296 1.238 . S
C311 O297 1.247 . S
C311 C305 1.507 . S
H312 C285 0.930 . S
H313 C286 0.931 . S
H314 C287 0.930 1_545 S
H315 C288 0.930 . S
H316 C307 0.930 . S
H317 C308 0.931 . S
H318 C309 0.930 . S
H319 C310 0.930 . S
Tb320 C330 2.825 . S
Tb320 O331 2.347 . S
Tb320 O334 2.366 . S
Tb320 O339 2.418 . S
Tb320 O340 2.384 . S
Tb320 O343 2.479 . S
Tb320 O344 2.471 . S
Eu321 O332 2.418 . S
Eu321 O333 2.384 . S
Eu321 O336 2.479 . S
Eu321 O337 2.471 . S
Eu321 O338 2.347 . S
Eu321 O341 2.366 . S
Eu321 C351 2.825 . S
C322 O338 1.259 . S
C322 O339 1.265 . S
C323 O340 1.255 . S
C323 O341 1.265 . S
C324 C326 1.380 . S
C324 C327 1.374 . S
C324 C330 1.507 1_455 S
C325 C326 1.384 . S
C325 C329 1.387 . S
C325 H352 0.930 . S
C326 C324 1.380 . S
C326 C325 1.384 . S
C326 H353 0.931 . S
C327 C324 1.374 . S
C327 C328 1.390 . S
C327 H354 0.930 1_455 S
C328 C327 1.390 . S
C328 C329 1.391 . S
C328 H355 0.930 . S
C329 C325 1.387 . S
C329 C328 1.391 . S
C330 Tb320 2.825 . S
C330 C324 1.507 1_655 S
C330 O343 1.238 . S
C330 O344 1.247 . S
O331 Tb320 2.347 . S
O331 C335 1.259 . S
O332 Eu321 2.418 . S
O332 C335 1.265 . S
O333 Eu321 2.384 . S
O333 C342 1.255 . S
O334 Tb320 2.366 . S
O334 C342 1.265 . S
C335 O331 1.259 . S
C335 O332 1.265 . S
O336 Eu321 2.479 . S
O336 C351 1.238 . S
O337 Eu321 2.471 . S
O337 C351 1.247 . S
O338 Eu321 2.347 . S
O338 C322 1.259 . S
O339 Tb320 2.418 . S
O339 C322 1.265 . S
O340 Tb320 2.384 . S
O340 C323 1.255 . S
O341 Eu321 2.366 . S
O341 C323 1.265 . S
C342 O333 1.255 . S
C342 O334 1.265 . S
O343 Tb320 2.479 . S
O343 C330 1.238 . S
O344 Tb320 2.471 . S
O344 C330 1.247 . S
C345 C348 1.380 . S
C345 C349 1.374 . S
C345 C351 1.507 . S
C346 C347 1.387 . S
C346 C350 1.391 . S
C347 C346 1.387 . S
C347 C348 1.384 . S
C347 H356 0.930 . S
C348 C345 1.380 . S
C348 C347 1.384 . S
C348 H357 0.931 . S
C349 C345 1.374 . S
C349 C350 1.390 . S
C349 H358 0.930 . S
C350 C346 1.391 . S
C350 C349 1.390 . S
C350 H359 0.930 . S
C351 Eu321 2.825 . S
C351 O336 1.238 . S
C351 O337 1.247 . S
C351 C345 1.507 . S
H352 C325 0.930 . S
H353 C326 0.931 . S
H354 C327 0.930 1_655 S
H355 C328 0.930 . S
H356 C347 0.930 . S
H357 C348 0.931 . S
H358 C349 0.930 . S
H359 C350 0.930 . S
Tb360 C370 2.825 . S
Tb360 O371 2.347 . S
Tb360 O374 2.366 . S
Tb360 O379 2.418 . S
Tb360 O380 2.384 . S
Tb360 O383 2.479 . S
Tb360 O384 2.471 . S
Eu361 O372 2.418 . S
Eu361 O373 2.384 . S
Eu361 O376 2.479 . S
Eu361 O377 2.471 . S
Eu361 O378 2.347 . S
Eu361 O381 2.366 . S
Eu361 C391 2.825 . S
C362 O378 1.259 . S
C362 O379 1.265 . S
C363 O380 1.255 . S
C363 O381 1.265 . S
C364 C366 1.380 . S
C364 C367 1.374 . S
C364 C370 1.507 . S
C365 C366 1.384 . S
C365 C369 1.387 . S
C365 H392 0.930 . S
C366 C364 1.380 . S
C366 C365 1.384 . S
C366 H393 0.931 . S
C367 C364 1.374 . S
C367 C368 1.390 . S
C367 H394 0.930 . S
C368 C367 1.390 . S
C368 C369 1.391 . S
C368 H395 0.930 . S
C369 C365 1.387 . S
C369 C368 1.391 . S
C370 Tb360 2.825 . S
C370 C364 1.507 . S
C370 O383 1.238 . S
C370 O384 1.247 . S
O371 Tb360 2.347 . S
O371 C375 1.259 . S
O372 Eu361 2.418 . S
O372 C375 1.265 . S
O373 Eu361 2.384 . S
O373 C382 1.255 . S
O374 Tb360 2.366 . S
O374 C382 1.265 . S
C375 O371 1.259 . S
C375 O372 1.265 . S
O376 Eu361 2.479 . S
O376 C391 1.238 . S
O377 Eu361 2.471 . S
O377 C391 1.247 . S
O378 Eu361 2.347 . S
O378 C362 1.259 . S
O379 Tb360 2.418 . S
O379 C362 1.265 . S
O380 Tb360 2.384 . S
O380 C363 1.255 . S
O381 Eu361 2.366 . S
O381 C363 1.265 . S
C382 O373 1.255 . S
C382 O374 1.265 . S
O383 Tb360 2.479 . S
O383 C370 1.238 . S
O384 Tb360 2.471 . S
O384 C370 1.247 . S
C385 C388 1.380 . S
C385 C389 1.374 . S
C385 C391 1.507 1_565 S
C386 C387 1.387 . S
C386 C390 1.391 . S
C387 C386 1.387 . S
C387 C388 1.384 . S
C387 H396 0.930 . S
C388 C385 1.380 . S
C388 C387 1.384 . S
C388 H397 0.931 . S
C389 C385 1.374 . S
C389 C390 1.390 . S
C389 H398 0.930 1_565 S
C390 C386 1.391 . S
C390 C389 1.390 . S
C390 H399 0.930 . S
C391 Eu361 2.825 . S
C391 O376 1.238 . S
C391 O377 1.247 . S
C391 C385 1.507 1_545 S
H392 C365 0.930 . S
H393 C366 0.931 . S
H394 C367 0.930 . S
H395 C368 0.930 . S
H396 C387 0.930 . S
H397 C388 0.931 . S
H398 C389 0.930 1_545 S
H399 C390 0.930 . S
Tb400 C410 2.825 . S
Tb400 O411 2.347 . S
Tb400 O414 2.366 . S
Tb400 O419 2.418 . S
Tb400 O420 2.384 . S
Tb400 O423 2.479 . S
Tb400 O424 2.471 . S
Eu401 O412 2.418 . S
Eu401 O413 2.384 . S
Eu401 O416 2.479 . S
Eu401 O417 2.471 . S
Eu401 O418 2.347 . S
Eu401 O421 2.366 . S
Eu401 C431 2.825 . S
C402 O418 1.259 . S
C402 O419 1.265 . S
C403 O420 1.255 . S
C403 O421 1.265 . S
C404 C406 1.380 . S
C404 C407 1.374 . S
C404 C410 1.507 . S
C405 C406 1.384 . S
C405 C409 1.387 . S
C405 H432 0.930 . S
C406 C404 1.380 . S
C406 C405 1.384 . S
C406 H433 0.931 . S
C407 C404 1.374 . S
C407 C408 1.390 . S
C407 H434 0.930 . S
C408 C407 1.390 . S
C408 C409 1.391 . S
C408 H435 0.930 . S
C409 C405 1.387 . S
C409 C408 1.391 . S
C410 Tb400 2.825 . S
C410 C404 1.507 . S
C410 O423 1.238 . S
C410 O424 1.247 . S
O411 Tb400 2.347 . S
O411 C415 1.259 . S
O412 Eu401 2.418 . S
O412 C415 1.265 . S
O413 Eu401 2.384 . S
O413 C422 1.255 . S
O414 Tb400 2.366 . S
O414 C422 1.265 . S
C415 O411 1.259 . S
C415 O412 1.265 . S
O416 Eu401 2.479 . S
O416 C431 1.238 . S
O417 Eu401 2.471 . S
O417 C431 1.247 . S
O418 Eu401 2.347 . S
O418 C402 1.259 . S
O419 Tb400 2.418 . S
O419 C402 1.265 . S
O420 Tb400 2.384 . S
O420 C403 1.255 . S
O421 Eu401 2.366 . S
O421 C403 1.265 . S
C422 O413 1.255 . S
C422 O414 1.265 . S
O423 Tb400 2.479 . S
O423 C410 1.238 . S
O424 Tb400 2.471 . S
O424 C410 1.247 . S
C425 C428 1.380 . S
C425 C429 1.374 . S
C425 C431 1.507 . S
C426 C427 1.387 . S
C426 C430 1.391 . S
C427 C426 1.387 . S
C427 C428 1.384 . S
C427 H436 0.930 . S
C428 C425 1.380 . S
C428 C427 1.384 . S
C428 H437 0.931 . S
C429 C425 1.374 . S
C429 C430 1.390 . S
C429 H438 0.930 . S
C430 C426 1.391 . S
C430 C429 1.390 . S
C430 H439 0.930 . S
C431 Eu401 2.825 . S
C431 O416 1.238 . S
C431 O417 1.247 . S
C431 C425 1.507 . S
H432 C405 0.930 . S
H433 C406 0.931 . S
H434 C407 0.930 . S
H435 C408 0.930 . S
H436 C427 0.930 . S
H437 C428 0.931 . S
H438 C429 0.930 . S
H439 C430 0.930 . S
Tb440 C450 2.825 . S
Tb440 O451 2.347 . S
Tb440 O454 2.366 . S
Tb440 O459 2.418 1_556 S
Tb440 O460 2.384 1_556 S
Tb440 O463 2.479 . S
Tb440 O464 2.471 . S
Eu441 O452 2.418 . S
Eu441 O453 2.384 . S
Eu441 O456 2.479 1_556 S
Eu441 O457 2.471 1_556 S
Eu441 O458 2.347 1_556 S
Eu441 O461 2.366 1_556 S
Eu441 C471 2.825 1_556 S
C442 O458 1.259 . S
C442 O459 1.265 . S
C443 O460 1.255 . S
C443 O461 1.265 . S
C444 C446 1.380 . S
C444 C447 1.374 . S
C444 C450 1.507 . S
C445 C446 1.384 . S
C445 C449 1.387 . S
C445 H472 0.930 . S
C446 C444 1.380 . S
C446 C445 1.384 . S
C446 H473 0.931 . S
C447 C444 1.374 . S
C447 C448 1.390 . S
C447 H474 0.930 . S
C448 C447 1.390 . S
C448 C449 1.391 . S
C448 H475 0.930 . S
C449 C445 1.387 . S
C449 C448 1.391 . S
C450 Tb440 2.825 . S
C450 C444 1.507 . S
C450 O463 1.238 . S
C450 O464 1.247 . S
O451 Tb440 2.347 . S
O451 C455 1.259 . S
O452 Eu441 2.418 . S
O452 C455 1.265 . S
O453 Eu441 2.384 . S
O453 C462 1.255 . S
O454 Tb440 2.366 . S
O454 C462 1.265 . S
C455 O451 1.259 . S
C455 O452 1.265 . S
O456 Eu441 2.479 1_554 S
O456 C471 1.238 . S
O457 Eu441 2.471 1_554 S
O457 C471 1.247 . S
O458 Eu441 2.347 1_554 S
O458 C442 1.259 . S
O459 Tb440 2.418 1_554 S
O459 C442 1.265 . S
O460 Tb440 2.384 1_554 S
O460 C443 1.255 . S
O461 Eu441 2.366 1_554 S
O461 C443 1.265 . S
C462 O453 1.255 . S
C462 O454 1.265 . S
O463 Tb440 2.479 . S
O463 C450 1.238 . S
O464 Tb440 2.471 . S
O464 C450 1.247 . S
C465 C468 1.380 . S
C465 C469 1.374 . S
C465 C471 1.507 1_545 S
C466 C467 1.387 . S
C466 C470 1.391 . S
C467 C466 1.387 . S
C467 C468 1.384 . S
C467 H476 0.930 . S
C468 C465 1.380 . S
C468 C467 1.384 . S
C468 H477 0.931 . S
C469 C465 1.374 . S
C469 C470 1.390 . S
C469 H478 0.930 1_545 S
C470 C466 1.391 . S
C470 C469 1.390 . S
C470 H479 0.930 . S
C471 Eu441 2.825 1_554 S
C471 O456 1.238 . S
C471 O457 1.247 . S
C471 C465 1.507 1_565 S
H472 C445 0.930 . S
H473 C446 0.931 . S
H474 C447 0.930 . S
H475 C448 0.930 . S
H476 C467 0.930 . S
H477 C468 0.931 . S
H478 C469 0.930 1_565 S
H479 C470 0.930 . S
Tb480 C490 2.825 . S
Tb480 O491 2.347 . S
Tb480 O494 2.366 . S
Tb480 O499 2.418 . S
Tb480 O500 2.384 . S
Tb480 O503 2.479 . S
Tb480 O504 2.471 . S
Eu481 O492 2.418 . S
Eu481 O493 2.384 . S
Eu481 O496 2.479 . S
Eu481 O497 2.471 . S
Eu481 O498 2.347 . S
Eu481 O501 2.366 . S
Eu481 C511 2.825 . S
C482 O498 1.259 . S
C482 O499 1.265 . S
C483 O500 1.255 . S
C483 O501 1.265 . S
C484 C486 1.380 . S
C484 C487 1.374 . S
C484 C490 1.507 1_455 S
C485 C486 1.384 . S
C485 C489 1.387 . S
C485 H512 0.930 . S
C486 C484 1.380 . S
C486 C485 1.384 . S
C486 H513 0.931 . S
C487 C484 1.374 . S
C487 C488 1.390 . S
C487 H514 0.930 1_455 S
C488 C487 1.390 . S
C488 C489 1.391 . S
C488 H515 0.930 . S
C489 C485 1.387 . S
C489 C488 1.391 . S
C490 Tb480 2.825 . S
C490 C484 1.507 1_655 S
C490 O503 1.238 . S
C490 O504 1.247 . S
O491 Tb480 2.347 . S
O491 C495 1.259 . S
O492 Eu481 2.418 . S
O492 C495 1.265 . S
O493 Eu481 2.384 . S
O493 C502 1.255 . S
O494 Tb480 2.366 . S
O494 C502 1.265 . S
C495 O491 1.259 . S
C495 O492 1.265 . S
O496 Eu481 2.479 . S
O496 C511 1.238 . S
O497 Eu481 2.471 . S
O497 C511 1.247 . S
O498 Eu481 2.347 . S
O498 C482 1.259 . S
O499 Tb480 2.418 . S
O499 C482 1.265 . S
O500 Tb480 2.384 . S
O500 C483 1.255 . S
O501 Eu481 2.366 . S
O501 C483 1.265 . S
C502 O493 1.255 . S
C502 O494 1.265 . S
O503 Tb480 2.479 . S
O503 C490 1.238 . S
O504 Tb480 2.471 . S
O504 C490 1.247 . S
C505 C508 1.380 . S
C505 C509 1.374 . S
C505 C511 1.507 . S
C506 C507 1.387 . S
C506 C510 1.391 . S
C507 C506 1.387 . S
C507 C508 1.384 . S
C507 H516 0.930 . S
C508 C505 1.380 . S
C508 C507 1.384 . S
C508 H517 0.931 . S
C509 C505 1.374 . S
C509 C510 1.390 . S
C509 H518 0.930 . S
C510 C506 1.391 . S
C510 C509 1.390 . S
C510 H519 0.930 . S
C511 Eu481 2.825 . S
C511 O496 1.238 . S
C511 O497 1.247 . S
C511 C505 1.507 . S
H512 C485 0.930 . S
H513 C486 0.931 . S
H514 C487 0.930 1_655 S
H515 C488 0.930 . S
H516 C507 0.930 . S
H517 C508 0.931 . S
H518 C509 0.930 . S
H519 C510 0.930 . S
Tb520 C530 2.825 . S
Tb520 O531 2.347 . S
Tb520 O534 2.366 . S
Tb520 O539 2.418 . S
Tb520 O540 2.384 . S
Tb520 O543 2.479 . S
Tb520 O544 2.471 . S
Eu521 O532 2.418 . S
Eu521 O533 2.384 . S
Eu521 O536 2.479 . S
Eu521 O537 2.471 . S
Eu521 O538 2.347 . S
Eu521 O541 2.366 . S
Eu521 C551 2.825 . S
C522 O538 1.259 . S
C522 O539 1.265 . S
C523 O540 1.255 . S
C523 O541 1.265 . S
C524 C526 1.380 . S
C524 C527 1.374 . S
C524 C530 1.507 . S
C525 C526 1.384 . S
C525 C529 1.387 . S
C525 H552 0.930 . S
C526 C524 1.380 . S
C526 C525 1.384 . S
C526 H553 0.931 . S
C527 C524 1.374 . S
C527 C528 1.390 . S
C527 H554 0.930 . S
C528 C527 1.390 . S
C528 C529 1.391 . S
C528 H555 0.930 . S
C529 C525 1.387 . S
C529 C528 1.391 . S
C530 Tb520 2.825 . S
C530 C524 1.507 . S
C530 O543 1.238 . S
C530 O544 1.247 . S
O531 Tb520 2.347 . S
O531 C535 1.259 . S
O532 Eu521 2.418 . S
O532 C535 1.265 . S
O533 Eu521 2.384 . S
O533 C542 1.255 . S
O534 Tb520 2.366 . S
O534 C542 1.265 . S
C535 O531 1.259 . S
C535 O532 1.265 . S
O536 Eu521 2.479 . S
O536 C551 1.238 . S
O537 Eu521 2.471 . S
O537 C551 1.247 . S
O538 Eu521 2.347 . S
O538 C522 1.259 . S
O539 Tb520 2.418 . S
O539 C522 1.265 . S
O540 Tb520 2.384 . S
O540 C523 1.255 . S
O541 Eu521 2.366 . S
O541 C523 1.265 . S
C542 O533 1.255 . S
C542 O534 1.265 . S
O543 Tb520 2.479 . S
O543 C530 1.238 . S
O544 Tb520 2.471 . S
O544 C530 1.247 . S
C545 C548 1.380 . S
C545 C549 1.374 . S
C545 C551 1.507 1_565 S
C546 C547 1.387 . S
C546 C550 1.391 . S
C547 C546 1.387 . S
C547 C548 1.384 . S
C547 H556 0.930 . S
C548 C545 1.380 . S
C548 C547 1.384 . S
C548 H557 0.931 . S
C549 C545 1.374 . S
C549 C550 1.390 . S
C549 H558 0.930 1_565 S
C550 C546 1.391 . S
C550 C549 1.390 . S
C550 H559 0.930 . S
C551 Eu521 2.825 . S
C551 O536 1.238 . S
C551 O537 1.247 . S
C551 C545 1.507 1_545 S
H552 C525 0.930 . S
H553 C526 0.931 . S
H554 C527 0.930 . S
H555 C528 0.930 . S
H556 C547 0.930 . S
H557 C548 0.931 . S
H558 C549 0.930 1_545 S
H559 C550 0.930 . S
Tb560 C570 2.825 . S
Tb560 O571 2.347 . S
Tb560 O574 2.366 . S
Tb560 O579 2.418 . S
Tb560 O580 2.384 . S
Tb560 O583 2.479 . S
Tb560 O584 2.471 . S
Eu561 O572 2.418 . S
Eu561 O573 2.384 . S
Eu561 O576 2.479 . S
Eu561 O577 2.471 . S
Eu561 O578 2.347 . S
Eu561 O581 2.366 . S
Eu561 C591 2.825 . S
C562 O578 1.259 . S
C562 O579 1.265 . S
C563 O580 1.255 . S
C563 O581 1.265 . S
C564 C566 1.380 . S
C564 C567 1.374 . S
C564 C570 1.507 . S
C565 C566 1.384 . S
C565 C569 1.387 . S
C565 H592 0.930 . S
C566 C564 1.380 . S
C566 C565 1.384 . S
C566 H593 0.931 . S
C567 C564 1.374 . S
C567 C568 1.390 . S
C567 H594 0.930 . S
C568 C567 1.390 . S
C568 C569 1.391 . S
C568 H595 0.930 . S
C569 C565 1.387 . S
C569 C568 1.391 . S
C570 Tb560 2.825 . S
C570 C564 1.507 . S
C570 O583 1.238 . S
C570 O584 1.247 . S
O571 Tb560 2.347 . S
O571 C575 1.259 . S
O572 Eu561 2.418 . S
O572 C575 1.265 . S
O573 Eu561 2.384 . S
O573 C582 1.255 . S
O574 Tb560 2.366 . S
O574 C582 1.265 . S
C575 O571 1.259 . S
C575 O572 1.265 . S
O576 Eu561 2.479 . S
O576 C591 1.238 . S
O577 Eu561 2.471 . S
O577 C591 1.247 . S
O578 Eu561 2.347 . S
O578 C562 1.259 . S
O579 Tb560 2.418 . S
O579 C562 1.265 . S
O580 Tb560 2.384 . S
O580 C563 1.255 . S
O581 Eu561 2.366 . S
O581 C563 1.265 . S
C582 O573 1.255 . S
C582 O574 1.265 . S
O583 Tb560 2.479 . S
O583 C570 1.238 . S
O584 Tb560 2.471 . S
O584 C570 1.247 . S
C585 C588 1.380 . S
C585 C589 1.374 . S
C585 C591 1.507 . S
C586 C587 1.387 . S
C586 C590 1.391 . S
C587 C586 1.387 . S
C587 C588 1.384 . S
C587 H596 0.930 . S
C588 C585 1.380 . S
C588 C587 1.384 . S
C588 H597 0.931 . S
C589 C585 1.374 . S
C589 C590 1.390 . S
C589 H598 0.930 . S
C590 C586 1.391 . S
C590 C589 1.390 . S
C590 H599 0.930 . S
C591 Eu561 2.825 . S
C591 O576 1.238 . S
C591 O577 1.247 . S
C591 C585 1.507 . S
H592 C565 0.930 . S
H593 C566 0.931 . S
H594 C567 0.930 . S
H595 C568 0.930 . S
H596 C587 0.930 . S
H597 C588 0.931 . S
H598 C589 0.930 . S
H599 C590 0.930 . S
Tb600 C610 2.825 . S
Tb600 O611 2.347 . S
Tb600 O614 2.366 . S
Tb600 O619 2.418 1_554 S
Tb600 O620 2.384 1_554 S
Tb600 O623 2.479 . S
Tb600 O624 2.471 . S
Eu601 O612 2.418 . S
Eu601 O613 2.384 . S
Eu601 O616 2.479 1_554 S
Eu601 O617 2.471 1_554 S
Eu601 O618 2.347 1_554 S
Eu601 O621 2.366 1_554 S
Eu601 C631 2.825 1_554 S
C602 O618 1.259 . S
C602 O619 1.265 . S
C603 O620 1.255 . S
C603 O621 1.265 . S
C604 C606 1.380 . S
C604 C607 1.374 . S
C604 C610 1.507 . S
C605 C606 1.384 . S
C605 C609 1.387 . S
C605 H632 0.930 . S
C606 C604 1.380 . S
C606 C605 1.384 . S
C606 H633 0.931 . S
C607 C604 1.374 . S
C607 C608 1.390 . S
C607 H634 0.930 . S
C608 C607 1.390 . S
C608 C609 1.391 . S
C608 H635 0.930 . S
C609 C605 1.387 . S
C609 C608 1.391 . S
C610 Tb600 2.825 . S
C610 C604 1.507 . S
C610 O623 1.238 . S
C610 O624 1.247 . S
O611 Tb600 2.347 . S
O611 C615 1.259 . S
O612 Eu601 2.418 . S
O612 C615 1.265 . S
O613 Eu601 2.384 . S
O613 C622 1.255 . S
O614 Tb600 2.366 . S
O614 C622 1.265 . S
C615 O611 1.259 . S
C615 O612 1.265 . S
O616 Eu601 2.479 1_556 S
O616 C631 1.238 . S
O617 Eu601 2.471 1_556 S
O617 C631 1.247 . S
O618 Eu601 2.347 1_556 S
O618 C602 1.259 . S
O619 Tb600 2.418 1_556 S
O619 C602 1.265 . S
O620 Tb600 2.384 1_556 S
O620 C603 1.255 . S
O621 Eu601 2.366 1_556 S
O621 C603 1.265 . S
C622 O613 1.255 . S
C622 O614 1.265 . S
O623 Tb600 2.479 . S
O623 C610 1.238 . S
O624 Tb600 2.471 . S
O624 C610 1.247 . S
C625 C628 1.380 . S
C625 C629 1.374 . S
C625 C631 1.507 1_545 S
C626 C627 1.387 . S
C626 C630 1.391 . S
C627 C626 1.387 . S
C627 C628 1.384 . S
C627 H636 0.930 . S
C628 C625 1.380 . S
C628 C627 1.384 . S
C628 H637 0.931 . S
C629 C625 1.374 . S
C629 C630 1.390 . S
C629 H638 0.930 1_545 S
C630 C626 1.391 . S
C630 C629 1.390 . S
C630 H639 0.930 . S
C631 Eu601 2.825 1_556 S
C631 O616 1.238 . S
C631 O617 1.247 . S
C631 C625 1.507 1_565 S
H632 C605 0.930 . S
H633 C606 0.931 . S
H634 C607 0.930 . S
H635 C608 0.930 . S
H636 C627 0.930 . S
H637 C628 0.931 . S
H638 C629 0.930 1_565 S
H639 C630 0.930 . S
Tb640 C650 2.825 . S
Tb640 O651 2.347 . S
Tb640 O654 2.366 . S
Tb640 O659 2.418 . S
Tb640 O660 2.384 . S
Tb640 O663 2.479 . S
Tb640 O664 2.471 . S
Eu641 O652 2.418 . S
Eu641 O653 2.384 . S
Eu641 O656 2.479 . S
Eu641 O657 2.471 . S
Eu641 O658 2.347 . S
Eu641 O661 2.366 . S
Eu641 C671 2.825 . S
C642 O658 1.259 . S
C642 O659 1.265 . S
C643 O660 1.255 . S
C643 O661 1.265 . S
C644 C646 1.380 . S
C644 C647 1.374 . S
C644 C650 1.507 . S
C645 C646 1.384 . S
C645 C649 1.387 . S
C645 H672 0.930 . S
C646 C644 1.380 . S
C646 C645 1.384 . S
C646 H673 0.931 . S
C647 C644 1.374 . S
C647 C648 1.390 . S
C647 H674 0.930 . S
C648 C647 1.390 . S
C648 C649 1.391 . S
C648 H675 0.930 . S
C649 C645 1.387 . S
C649 C648 1.391 . S
C650 Tb640 2.825 . S
C650 C644 1.507 . S
C650 O663 1.238 . S
C650 O664 1.247 . S
O651 Tb640 2.347 . S
O651 C655 1.259 . S
O652 Eu641 2.418 . S
O652 C655 1.265 . S
O653 Eu641 2.384 . S
O653 C662 1.255 . S
O654 Tb640 2.366 . S
O654 C662 1.265 . S
C655 O651 1.259 . S
C655 O652 1.265 . S
O656 Eu641 2.479 . S
O656 C671 1.238 . S
O657 Eu641 2.471 . S
O657 C671 1.247 . S
O658 Eu641 2.347 . S
O658 C642 1.259 . S
O659 Tb640 2.418 . S
O659 C642 1.265 . S
O660 Tb640 2.384 . S
O660 C643 1.255 . S
O661 Eu641 2.366 . S
O661 C643 1.265 . S
C662 O653 1.255 . S
C662 O654 1.265 . S
O663 Tb640 2.479 . S
O663 C650 1.238 . S
O664 Tb640 2.471 . S
O664 C650 1.247 . S
C665 C668 1.380 . S
C665 C669 1.374 . S
C665 C671 1.507 . S
C666 C667 1.387 . S
C666 C670 1.391 . S
C667 C666 1.387 . S
C667 C668 1.384 . S
C667 H676 0.930 . S
C668 C665 1.380 . S
C668 C667 1.384 . S
C668 H677 0.931 . S
C669 C665 1.374 . S
C669 C670 1.390 . S
C669 H678 0.930 . S
C670 C666 1.391 . S
C670 C669 1.390 . S
C670 H679 0.930 . S
C671 Eu641 2.825 . S
C671 O656 1.238 . S
C671 O657 1.247 . S
C671 C665 1.507 . S
H672 C645 0.930 . S
H673 C646 0.931 . S
H674 C647 0.930 . S
H675 C648 0.930 . S
H676 C667 0.930 . S
H677 C668 0.931 . S
H678 C669 0.930 . S
H679 C670 0.930 . S
Tb680 C690 2.825 1_554 S
Tb680 O691 2.347 1_554 S
Tb680 O694 2.366 1_554 S
Tb680 O699 2.418 . S
Tb680 O700 2.384 . S
Tb680 O703 2.479 1_554 S
Tb680 O704 2.471 1_554 S
Eu681 O692 2.418 1_554 S
Eu681 O693 2.384 1_554 S
Eu681 O696 2.479 . S
Eu681 O697 2.471 . S
Eu681 O698 2.347 . S
Eu681 O701 2.366 . S
Eu681 C711 2.825 . S
C682 O698 1.259 . S
C682 O699 1.265 . S
C683 O700 1.255 . S
C683 O701 1.265 . S
C684 C686 1.380 . S
C684 C687 1.374 . S
C684 C690 1.507 . S
C685 C686 1.384 . S
C685 C689 1.387 . S
C685 H712 0.930 . S
C686 C684 1.380 . S
C686 C685 1.384 . S
C686 H713 0.931 . S
C687 C684 1.374 . S
C687 C688 1.390 . S
C687 H714 0.930 . S
C688 C687 1.390 . S
C688 C689 1.391 . S
C688 H715 0.930 . S
C689 C685 1.387 . S
C689 C688 1.391 . S
C690 Tb680 2.825 1_556 S
C690 C684 1.507 . S
C690 O703 1.238 . S
C690 O704 1.247 . S
O691 Tb680 2.347 1_556 S
O691 C695 1.259 . S
O692 Eu681 2.418 1_556 S
O692 C695 1.265 . S
O693 Eu681 2.384 1_556 S
O693 C702 1.255 . S
O694 Tb680 2.366 1_556 S
O694 C702 1.265 . S
C695 O691 1.259 . S
C695 O692 1.265 . S
O696 Eu681 2.479 . S
O696 C711 1.238 . S
O697 Eu681 2.471 . S
O697 C711 1.247 . S
O698 Eu681 2.347 . S
O698 C682 1.259 . S
O699 Tb680 2.418 . S
O699 C682 1.265 . S
O700 Tb680 2.384 . S
O700 C683 1.255 . S
O701 Eu681 2.366 . S
O701 C683 1.265 . S
C702 O693 1.255 . S
C702 O694 1.265 . S
O703 Tb680 2.479 1_556 S
O703 C690 1.238 . S
O704 Tb680 2.471 1_556 S
O704 C690 1.247 . S
C705 C708 1.380 . S
C705 C709 1.374 . S
C705 C711 1.507 . S
C706 C707 1.387 . S
C706 C710 1.391 . S
C707 C706 1.387 . S
C707 C708 1.384 . S
C707 H716 0.930 . S
C708 C705 1.380 . S
C708 C707 1.384 . S
C708 H717 0.931 . S
C709 C705 1.374 . S
C709 C710 1.390 . S
C709 H718 0.930 . S
C710 C706 1.391 . S
C710 C709 1.390 . S
C710 H719 0.930 . S
C711 Eu681 2.825 . S
C711 O696 1.238 . S
C711 O697 1.247 . S
C711 C705 1.507 . S
H712 C685 0.930 . S
H713 C686 0.931 . S
H714 C687 0.930 . S
H715 C688 0.930 . S
H716 C707 0.930 . S
H717 C708 0.931 . S
H718 C709 0.930 . S
H719 C710 0.930 . S
Tb720 C730 2.825 . S
Tb720 O731 2.347 . S
Tb720 O734 2.366 . S
Tb720 O739 2.418 . S
Tb720 O740 2.384 . S
Tb720 O743 2.479 . S
Tb720 O744 2.471 . S
Eu721 O732 2.418 . S
Eu721 O733 2.384 . S
Eu721 O736 2.479 . S
Eu721 O737 2.471 . S
Eu721 O738 2.347 . S
Eu721 O741 2.366 . S
Eu721 C751 2.825 . S
C722 O738 1.259 . S
C722 O739 1.265 . S
C723 O740 1.255 . S
C723 O741 1.265 . S
C724 C726 1.380 . S
C724 C727 1.374 . S
C724 C730 1.507 . S
C725 C726 1.384 . S
C725 C729 1.387 . S
C725 H752 0.930 . S
C726 C724 1.380 . S
C726 C725 1.384 . S
C726 H753 0.931 . S
C727 C724 1.374 . S
C727 C728 1.390 . S
C727 H754 0.930 . S
C728 C727 1.390 . S
C728 C729 1.391 . S
C728 H755 0.930 . S
C729 C725 1.387 . S
C729 C728 1.391 . S
C730 Tb720 2.825 . S
C730 C724 1.507 . S
C730 O743 1.238 . S
C730 O744 1.247 . S
O731 Tb720 2.347 . S
O731 C735 1.259 . S
O732 Eu721 2.418 . S
O732 C735 1.265 . S
O733 Eu721 2.384 . S
O733 C742 1.255 . S
O734 Tb720 2.366 . S
O734 C742 1.265 . S
C735 O731 1.259 . S
C735 O732 1.265 . S
O736 Eu721 2.479 . S
O736 C751 1.238 . S
O737 Eu721 2.471 . S
O737 C751 1.247 . S
O738 Eu721 2.347 . S
O738 C722 1.259 . S
O739 Tb720 2.418 . S
O739 C722 1.265 . S
O740 Tb720 2.384 . S
O740 C723 1.255 . S
O741 Eu721 2.366 . S
O741 C723 1.265 . S
C742 O733 1.255 . S
C742 O734 1.265 . S
O743 Tb720 2.479 . S
O743 C730 1.238 . S
O744 Tb720 2.471 . S
O744 C730 1.247 . S
C745 C748 1.380 . S
C745 C749 1.374 . S
C745 C751 1.507 1_455 S
C746 C747 1.387 . S
C746 C750 1.391 . S
C747 C746 1.387 . S
C747 C748 1.384 . S
C747 H756 0.930 . S
C748 C745 1.380 . S
C748 C747 1.384 . S
C748 H757 0.931 . S
C749 C745 1.374 . S
C749 C750 1.390 . S
C749 H758 0.930 1_455 S
C750 C746 1.391 . S
C750 C749 1.390 . S
C750 H759 0.930 . S
C751 Eu721 2.825 . S
C751 O736 1.238 . S
C751 O737 1.247 . S
C751 C745 1.507 1_655 S
H752 C725 0.930 . S
H753 C726 0.931 . S
H754 C727 0.930 . S
H755 C728 0.930 . S
H756 C747 0.930 . S
H757 C748 0.931 . S
H758 C749 0.930 1_655 S
H759 C750 0.930 . S
Tb760 C770 2.825 . S
Tb760 O771 2.347 . S
Tb760 O774 2.366 . S
Tb760 O779 2.418 . S
Tb760 O780 2.384 . S
Tb760 O783 2.479 . S
Tb760 O784 2.471 . S
Eu761 O772 2.418 . S
Eu761 O773 2.384 . S
Eu761 O776 2.479 . S
Eu761 O777 2.471 . S
Eu761 O778 2.347 . S
Eu761 O781 2.366 . S
Eu761 C791 2.825 . S
C762 O778 1.259 . S
C762 O779 1.265 . S
C763 O780 1.255 . S
C763 O781 1.265 . S
C764 C766 1.380 . S
C764 C767 1.374 . S
C764 C770 1.507 . S
C765 C766 1.384 . S
C765 C769 1.387 . S
C765 H792 0.930 . S
C766 C764 1.380 . S
C766 C765 1.384 . S
C766 H793 0.931 . S
C767 C764 1.374 . S
C767 C768 1.390 . S
C767 H794 0.930 . S
C768 C767 1.390 . S
C768 C769 1.391 . S
C768 H795 0.930 . S
C769 C765 1.387 . S
C769 C768 1.391 . S
C770 Tb760 2.825 . S
C770 C764 1.507 . S
C770 O783 1.238 . S
C770 O784 1.247 . S
O771 Tb760 2.347 . S
O771 C775 1.259 . S
O772 Eu761 2.418 . S
O772 C775 1.265 . S
O773 Eu761 2.384 . S
O773 C782 1.255 . S
O774 Tb760 2.366 . S
O774 C782 1.265 . S
C775 O771 1.259 . S
C775 O772 1.265 . S
O776 Eu761 2.479 . S
O776 C791 1.238 . S
O777 Eu761 2.471 . S
O777 C791 1.247 . S
O778 Eu761 2.347 . S
O778 C762 1.259 . S
O779 Tb760 2.418 . S
O779 C762 1.265 . S
O780 Tb760 2.384 . S
O780 C763 1.255 . S
O781 Eu761 2.366 . S
O781 C763 1.265 . S
C782 O773 1.255 . S
C782 O774 1.265 . S
O783 Tb760 2.479 . S
O783 C770 1.238 . S
O784 Tb760 2.471 . S
O784 C770 1.247 . S
C785 C788 1.380 . S
C785 C789 1.374 . S
C785 C791 1.507 . S
C786 C787 1.387 . S
C786 C790 1.391 . S
C787 C786 1.387 . S
C787 C788 1.384 . S
C787 H796 0.930 . S
C788 C785 1.380 . S
C788 C787 1.384 . S
C788 H797 0.931 . S
C789 C785 1.374 . S
C789 C790 1.390 . S
C789 H798 0.930 . S
C790 C786 1.391 . S
C790 C789 1.390 . S
C790 H799 0.930 . S
C791 Eu761 2.825 . S
C791 O776 1.238 . S
C791 O777 1.247 . S
C791 C785 1.507 . S
H792 C765 0.930 . S
H793 C766 0.931 . S
H794 C767 0.930 . S
H795 C768 0.930 . S
H796 C787 0.930 . S
H797 C788 0.931 . S
H798 C789 0.930 . S
H799 C790 0.930 . S
Tb800 C810 2.825 . S
Tb800 O811 2.347 . S
Tb800 O814 2.366 . S
Tb800 O819 2.418 . S
Tb800 O820 2.384 . S
Tb800 O823 2.479 . S
Tb800 O824 2.471 . S
Eu801 O812 2.418 . S
Eu801 O813 2.384 . S
Eu801 O816 2.479 . S
Eu801 O817 2.471 . S
Eu801 O818 2.347 . S
Eu801 O821 2.366 . S
Eu801 C831 2.825 . S
C802 O818 1.259 . S
C802 O819 1.265 . S
C803 O820 1.255 . S
C803 O821 1.265 . S
C804 C806 1.380 . S
C804 C807 1.374 . S
C804 C810 1.507 . S
C805 C806 1.384 . S
C805 C809 1.387 . S
C805 H832 0.930 . S
C806 C804 1.380 . S
C806 C805 1.384 . S
C806 H833 0.931 . S
C807 C804 1.374 . S
C807 C808 1.390 . S
C807 H834 0.930 . S
C808 C807 1.390 . S
C808 C809 1.391 . S
C808 H835 0.930 . S
C809 C805 1.387 . S
C809 C808 1.391 . S
C810 Tb800 2.825 . S
C810 C804 1.507 . S
C810 O823 1.238 . S
C810 O824 1.247 . S
O811 Tb800 2.347 . S
O811 C815 1.259 . S
O812 Eu801 2.418 . S
O812 C815 1.265 . S
O813 Eu801 2.384 . S
O813 C822 1.255 . S
O814 Tb800 2.366 . S
O814 C822 1.265 . S
C815 O811 1.259 . S
C815 O812 1.265 . S
O816 Eu801 2.479 . S
O816 C831 1.238 . S
O817 Eu801 2.471 . S
O817 C831 1.247 . S
O818 Eu801 2.347 . S
O818 C802 1.259 . S
O819 Tb800 2.418 . S
O819 C802 1.265 . S
O820 Tb800 2.384 . S
O820 C803 1.255 . S
O821 Eu801 2.366 . S
O821 C803 1.265 . S
C822 O813 1.255 . S
C822 O814 1.265 . S
O823 Tb800 2.479 . S
O823 C810 1.238 . S
O824 Tb800 2.471 . S
O824 C810 1.247 . S
C825 C828 1.380 . S
C825 C829 1.374 . S
C825 C831 1.507 . S
C826 C827 1.387 . S
C826 C830 1.391 . S
C827 C826 1.387 . S
C827 C828 1.384 . S
C827 H836 0.930 . S
C828 C825 1.380 . S
C828 C827 1.384 . S
C828 H837 0.931 . S
C829 C825 1.374 . S
C829 C830 1.390 . S
C829 H838 0.930 . S
C830 C826 1.391 . S
C830 C829 1.390 . S
C830 H839 0.930 . S
C831 Eu801 2.825 . S
C831 O816 1.238 . S
C831 O817 1.247 . S
C831 C825 1.507 . S
H832 C805 0.930 . S
H833 C806 0.931 . S
H834 C807 0.930 . S
H835 C808 0.930 . S
H836 C827 0.930 . S
H837 C828 0.931 . S
H838 C829 0.930 . S
H839 C830 0.930 . S
Tb840 C850 2.825 1_556 S
Tb840 O851 2.347 1_556 S
Tb840 O854 2.366 1_556 S
Tb840 O859 2.418 . S
Tb840 O860 2.384 . S
Tb840 O863 2.479 1_556 S
Tb840 O864 2.471 1_556 S
Eu841 O852 2.418 1_556 S
Eu841 O853 2.384 1_556 S
Eu841 O856 2.479 . S
Eu841 O857 2.471 . S
Eu841 O858 2.347 . S
Eu841 O861 2.366 . S
Eu841 C871 2.825 . S
C842 O858 1.259 . S
C842 O859 1.265 . S
C843 O860 1.255 . S
C843 O861 1.265 . S
C844 C846 1.380 . S
C844 C847 1.374 . S
C844 C850 1.507 . S
C845 C846 1.384 . S
C845 C849 1.387 . S
C845 H872 0.930 . S
C846 C844 1.380 . S
C846 C845 1.384 . S
C846 H873 0.931 . S
C847 C844 1.374 . S
C847 C848 1.390 . S
C847 H874 0.930 . S
C848 C847 1.390 . S
C848 C849 1.391 . S
C848 H875 0.930 . S
C849 C845 1.387 . S
C849 C848 1.391 . S
C850 Tb840 2.825 1_554 S
C850 C844 1.507 . S
C850 O863 1.238 . S
C850 O864 1.247 . S
O851 Tb840 2.347 1_554 S
O851 C855 1.259 . S
O852 Eu841 2.418 1_554 S
O852 C855 1.265 . S
O853 Eu841 2.384 1_554 S
O853 C862 1.255 . S
O854 Tb840 2.366 1_554 S
O854 C862 1.265 . S
C855 O851 1.259 . S
C855 O852 1.265 . S
O856 Eu841 2.479 . S
O856 C871 1.238 . S
O857 Eu841 2.471 . S
O857 C871 1.247 . S
O858 Eu841 2.347 . S
O858 C842 1.259 . S
O859 Tb840 2.418 . S
O859 C842 1.265 . S
O860 Tb840 2.384 . S
O860 C843 1.255 . S
O861 Eu841 2.366 . S
O861 C843 1.265 . S
C862 O853 1.255 . S
C862 O854 1.265 . S
O863 Tb840 2.479 1_554 S
O863 C850 1.238 . S
O864 Tb840 2.471 1_554 S
O864 C850 1.247 . S
C865 C868 1.380 . S
C865 C869 1.374 . S
C865 C871 1.507 . S
C866 C867 1.387 . S
C866 C870 1.391 . S
C867 C866 1.387 . S
C867 C868 1.384 . S
C867 H876 0.930 . S
C868 C865 1.380 . S
C868 C867 1.384 . S
C868 H877 0.931 . S
C869 C865 1.374 . S
C869 C870 1.390 . S
C869 H878 0.930 . S
C870 C866 1.391 . S
C870 C869 1.390 . S
C870 H879 0.930 . S
C871 Eu841 2.825 . S
C871 O856 1.238 . S
C871 O857 1.247 . S
C871 C865 1.507 . S
H872 C845 0.930 . S
H873 C846 0.931 . S
H874 C847 0.930 . S
H875 C848 0.930 . S
H876 C867 0.930 . S
H877 C868 0.931 . S
H878 C869 0.930 . S
H879 C870 0.930 . S
Tb880 C890 2.825 . S
Tb880 O891 2.347 . S
Tb880 O894 2.366 . S
Tb880 O899 2.418 . S
Tb880 O900 2.384 . S
Tb880 O903 2.479 . S
Tb880 O904 2.471 . S
Eu881 O892 2.418 . S
Eu881 O893 2.384 . S
Eu881 O896 2.479 . S
Eu881 O897 2.471 . S
Eu881 O898 2.347 . S
Eu881 O901 2.366 . S
Eu881 C911 2.825 . S
C882 O898 1.259 . S
C882 O899 1.265 . S
C883 O900 1.255 . S
C883 O901 1.265 . S
C884 C886 1.380 . S
C884 C887 1.374 . S
C884 C890 1.507 . S
C885 C886 1.384 . S
C885 C889 1.387 . S
C885 H912 0.930 . S
C886 C884 1.380 . S
C886 C885 1.384 . S
C886 H913 0.931 . S
C887 C884 1.374 . S
C887 C888 1.390 . S
C887 H914 0.930 . S
C888 C887 1.390 . S
C888 C889 1.391 . S
C888 H915 0.930 . S
C889 C885 1.387 . S
C889 C888 1.391 . S
C890 Tb880 2.825 . S
C890 C884 1.507 . S
C890 O903 1.238 . S
C890 O904 1.247 . S
O891 Tb880 2.347 . S
O891 C895 1.259 . S
O892 Eu881 2.418 . S
O892 C895 1.265 . S
O893 Eu881 2.384 . S
O893 C902 1.255 . S
O894 Tb880 2.366 . S
O894 C902 1.265 . S
C895 O891 1.259 . S
C895 O892 1.265 . S
O896 Eu881 2.479 . S
O896 C911 1.238 . S
O897 Eu881 2.471 . S
O897 C911 1.247 . S
O898 Eu881 2.347 . S
O898 C882 1.259 . S
O899 Tb880 2.418 . S
O899 C882 1.265 . S
O900 Tb880 2.384 . S
O900 C883 1.255 . S
O901 Eu881 2.366 . S
O901 C883 1.265 . S
C902 O893 1.255 . S
C902 O894 1.265 . S
O903 Tb880 2.479 . S
O903 C890 1.238 . S
O904 Tb880 2.471 . S
O904 C890 1.247 . S
C905 C908 1.380 . S
C905 C909 1.374 . S
C905 C911 1.507 1_455 S
C906 C907 1.387 . S
C906 C910 1.391 . S
C907 C906 1.387 . S
C907 C908 1.384 . S
C907 H916 0.930 . S
C908 C905 1.380 . S
C908 C907 1.384 . S
C908 H917 0.931 . S
C909 C905 1.374 . S
C909 C910 1.390 . S
C909 H918 0.930 1_455 S
C910 C906 1.391 . S
C910 C909 1.390 . S
C910 H919 0.930 . S
C911 Eu881 2.825 . S
C911 O896 1.238 . S
C911 O897 1.247 . S
C911 C905 1.507 1_655 S
H912 C885 0.930 . S
H913 C886 0.931 . S
H914 C887 0.930 . S
H915 C888 0.930 . S
H916 C907 0.930 . S
H917 C908 0.931 . S
H918 C909 0.930 1_655 S
H919 C910 0.930 . S
Tb920 C930 2.825 . S
Tb920 O931 2.347 . S
Tb920 O934 2.366 . S
Tb920 O939 2.418 . S
Tb920 O940 2.384 . S
Tb920 O943 2.479 . S
Tb920 O944 2.471 . S
Eu921 O932 2.418 . S
Eu921 O933 2.384 . S
Eu921 O936 2.479 . S
Eu921 O937 2.471 . S
Eu921 O938 2.347 . S
Eu921 O941 2.366 . S
Eu921 C951 2.825 . S
C922 O938 1.259 . S
C922 O939 1.265 . S
C923 O940 1.255 . S
C923 O941 1.265 . S
C924 C926 1.380 . S
C924 C927 1.374 . S
C924 C930 1.507 . S
C925 C926 1.384 . S
C925 C929 1.387 . S
C925 H952 0.930 . S
C926 C924 1.380 . S
C926 C925 1.384 . S
C926 H953 0.931 . S
C927 C924 1.374 . S
C927 C928 1.390 . S
C927 H954 0.930 . S
C928 C927 1.390 . S
C928 C929 1.391 . S
C928 H955 0.930 . S
C929 C925 1.387 . S
C929 C928 1.391 . S
C930 Tb920 2.825 . S
C930 C924 1.507 . S
C930 O943 1.238 . S
C930 O944 1.247 . S
O931 Tb920 2.347 . S
O931 C935 1.259 . S
O932 Eu921 2.418 . S
O932 C935 1.265 . S
O933 Eu921 2.384 . S
O933 C942 1.255 . S
O934 Tb920 2.366 . S
O934 C942 1.265 . S
C935 O931 1.259 . S
C935 O932 1.265 . S
O936 Eu921 2.479 . S
O936 C951 1.238 . S
O937 Eu921 2.471 . S
O937 C951 1.247 . S
O938 Eu921 2.347 . S
O938 C922 1.259 . S
O939 Tb920 2.418 . S
O939 C922 1.265 . S
O940 Tb920 2.384 . S
O940 C923 1.255 . S
O941 Eu921 2.366 . S
O941 C923 1.265 . S
C942 O933 1.255 . S
C942 O934 1.265 . S
O943 Tb920 2.479 . S
O943 C930 1.238 . S
O944 Tb920 2.471 . S
O944 C930 1.247 . S
C945 C948 1.380 . S
C945 C949 1.374 . S
C945 C951 1.507 . S
C946 C947 1.387 . S
C946 C950 1.391 . S
C947 C946 1.387 . S
C947 C948 1.384 . S
C947 H956 0.930 . S
C948 C945 1.380 . S
C948 C947 1.384 . S
C948 H957 0.931 . S
C949 C945 1.374 . S
C949 C950 1.390 . S
C949 H958 0.930 . S
C950 C946 1.391 . S
C950 C949 1.390 . S
C950 H959 0.930 . S
C951 Eu921 2.825 . S
C951 O936 1.238 . S
C951 O937 1.247 . S
C951 C945 1.507 . S
H952 C925 0.930 . S
H953 C926 0.931 . S
H954 C927 0.930 . S
H955 C928 0.930 . S
H956 C947 0.930 . S
H957 C948 0.931 . S
H958 C949 0.930 . S
H959 C950 0.930 . S
Tb960 C970 2.825 . S
Tb960 O971 2.347 . S
Tb960 O974 2.366 . S
Tb960 O979 2.418 . S
Tb960 O980 2.384 . S
Tb960 O983 2.479 . S
Tb960 O984 2.471 . S
Eu961 O972 2.418 . S
Eu961 O973 2.384 . S
Eu961 O976 2.479 . S
Eu961 O977 2.471 . S
Eu961 O978 2.347 . S
Eu961 O981 2.366 . S
Eu961 C991 2.825 . S
C962 O978 1.259 . S
C962 O979 1.265 . S
C963 O980 1.255 . S
C963 O981 1.265 . S
C964 C966 1.380 . S
C964 C967 1.374 . S
C964 C970 1.507 . S
C965 C966 1.384 . S
C965 C969 1.387 . S
C965 H992 0.930 . S
C966 C964 1.380 . S
C966 C965 1.384 . S
C966 H993 0.931 . S
C967 C964 1.374 . S
C967 C968 1.390 . S
C967 H994 0.930 . S
C968 C967 1.390 . S
C968 C969 1.391 . S
C968 H995 0.930 . S
C969 C965 1.387 . S
C969 C968 1.391 . S
C970 Tb960 2.825 . S
C970 C964 1.507 . S
C970 O983 1.238 . S
C970 O984 1.247 . S
O971 Tb960 2.347 . S
O971 C975 1.259 . S
O972 Eu961 2.418 . S
O972 C975 1.265 . S
O973 Eu961 2.384 . S
O973 C982 1.255 . S
O974 Tb960 2.366 . S
O974 C982 1.265 . S
C975 O971 1.259 . S
C975 O972 1.265 . S
O976 Eu961 2.479 . S
O976 C991 1.238 . S
O977 Eu961 2.471 . S
O977 C991 1.247 . S
O978 Eu961 2.347 . S
O978 C962 1.259 . S
O979 Tb960 2.418 . S
O979 C962 1.265 . S
O980 Tb960 2.384 . S
O980 C963 1.255 . S
O981 Eu961 2.366 . S
O981 C963 1.265 . S
C982 O973 1.255 . S
C982 O974 1.265 . S
O983 Tb960 2.479 . S
O983 C970 1.238 . S
O984 Tb960 2.471 . S
O984 C970 1.247 . S
C985 C988 1.380 . S
C985 C989 1.374 . S
C985 C991 1.507 . S
C986 C987 1.387 . S
C986 C990 1.391 . S
C987 C986 1.387 . S
C987 C988 1.384 . S
C987 H996 0.930 . S
C988 C985 1.380 . S
C988 C987 1.384 . S
C988 H997 0.931 . S
C989 C985 1.374 . S
C989 C990 1.390 . S
C989 H998 0.930 . S
C990 C986 1.391 . S
C990 C989 1.390 . S
C990 H999 0.930 . S
C991 Eu961 2.825 . S
C991 O976 1.238 . S
C991 O977 1.247 . S
C991 C985 1.507 . S
H992 C965 0.930 . S
H993 C966 0.931 . S
H994 C967 0.930 . S
H995 C968 0.930 . S
H996 C987 0.930 . S
H997 C988 0.931 . S
H998 C989 0.930 . S
H999 C990 0.930 . S
Tb1000 C1010 2.825 . S
Tb1000 O1011 2.347 . S
Tb1000 O1014 2.366 . S
Tb1000 O1019 2.418 1_556 S
Tb1000 O1020 2.384 1_556 S
Tb1000 O1023 2.479 . S
Tb1000 O1024 2.471 . S
Eu1001 O1012 2.418 . S
Eu1001 O1013 2.384 . S
Eu1001 O1016 2.479 1_556 S
Eu1001 O1017 2.471 1_556 S
Eu1001 O1018 2.347 1_556 S
Eu1001 O1021 2.366 1_556 S
Eu1001 C1031 2.825 1_556 S
C1002 O1018 1.259 . S
C1002 O1019 1.265 . S
C1003 O1020 1.255 . S
C1003 O1021 1.265 . S
C1004 C1006 1.380 . S
C1004 C1007 1.374 . S
C1004 C1010 1.507 . S
C1005 C1006 1.384 . S
C1005 C1009 1.387 . S
C1005 H1032 0.930 . S
C1006 C1004 1.380 . S
C1006 C1005 1.384 . S
C1006 H1033 0.931 . S
C1007 C1004 1.374 . S
C1007 C1008 1.390 . S
C1007 H1034 0.930 . S
C1008 C1007 1.390 . S
C1008 C1009 1.391 . S
C1008 H1035 0.930 . S
C1009 C1005 1.387 . S
C1009 C1008 1.391 . S
C1010 Tb1000 2.825 . S
C1010 C1004 1.507 . S
C1010 O1023 1.238 . S
C1010 O1024 1.247 . S
O1011 Tb1000 2.347 . S
O1011 C1015 1.259 . S
O1012 Eu1001 2.418 . S
O1012 C1015 1.265 . S
O1013 Eu1001 2.384 . S
O1013 C1022 1.255 . S
O1014 Tb1000 2.366 . S
O1014 C1022 1.265 . S
C1015 O1011 1.259 . S
C1015 O1012 1.265 . S
O1016 Eu1001 2.479 1_554 S
O1016 C1031 1.238 . S
O1017 Eu1001 2.471 1_554 S
O1017 C1031 1.247 . S
O1018 Eu1001 2.347 1_554 S
O1018 C1002 1.259 . S
O1019 Tb1000 2.418 1_554 S
O1019 C1002 1.265 . S
O1020 Tb1000 2.384 1_554 S
O1020 C1003 1.255 . S
O1021 Eu1001 2.366 1_554 S
O1021 C1003 1.265 . S
C1022 O1013 1.255 . S
C1022 O1014 1.265 . S
O1023 Tb1000 2.479 . S
O1023 C1010 1.238 . S
O1024 Tb1000 2.471 . S
O1024 C1010 1.247 . S
C1025 C1028 1.380 . S
C1025 C1029 1.374 . S
C1025 C1031 1.507 . S
C1026 C1027 1.387 . S
C1026 C1030 1.391 . S
C1027 C1026 1.387 . S
C1027 C1028 1.384 . S
C1027 H1036 0.930 . S
C1028 C1025 1.380 . S
C1028 C1027 1.384 . S
C1028 H1037 0.931 . S
C1029 C1025 1.374 . S
C1029 C1030 1.390 . S
C1029 H1038 0.930 . S
C1030 C1026 1.391 . S
C1030 C1029 1.390 . S
C1030 H1039 0.930 . S
C1031 Eu1001 2.825 1_554 S
C1031 O1016 1.238 . S
C1031 O1017 1.247 . S
C1031 C1025 1.507 . S
H1032 C1005 0.930 . S
H1033 C1006 0.931 . S
H1034 C1007 0.930 . S
H1035 C1008 0.930 . S
H1036 C1027 0.930 . S
H1037 C1028 0.931 . S
H1038 C1029 0.930 . S
H1039 C1030 0.930 . S
Tb1040 C1050 2.825 . S
Tb1040 O1051 2.347 . S
Tb1040 O1054 2.366 . S
Tb1040 O1059 2.418 . S
Tb1040 O1060 2.384 . S
Tb1040 O1063 2.479 . S
Tb1040 O1064 2.471 . S
Eu1041 O1052 2.418 . S
Eu1041 O1053 2.384 . S
Eu1041 O1056 2.479 . S
Eu1041 O1057 2.471 . S
Eu1041 O1058 2.347 . S
Eu1041 O1061 2.366 . S
Eu1041 C1071 2.825 . S
C1042 O1058 1.259 . S
C1042 O1059 1.265 . S
C1043 O1060 1.255 . S
C1043 O1061 1.265 . S
C1044 C1046 1.380 . S
C1044 C1047 1.374 . S
C1044 C1050 1.507 1_655 S
C1045 C1046 1.384 . S
C1045 C1049 1.387 . S
C1045 H1072 0.930 . S
C1046 C1044 1.380 . S
C1046 C1045 1.384 . S
C1046 H1073 0.931 . S
C1047 C1044 1.374 . S
C1047 C1048 1.390 . S
C1047 H1074 0.930 1_655 S
C1048 C1047 1.390 . S
C1048 C1049 1.391 . S
C1048 H1075 0.930 . S
C1049 C1045 1.387 . S
C1049 C1048 1.391 . S
C1050 Tb1040 2.825 . S
C1050 C1044 1.507 1_455 S
C1050 O1063 1.238 . S
C1050 O1064 1.247 . S
O1051 Tb1040 2.347 . S
O1051 C1055 1.259 . S
O1052 Eu1041 2.418 . S
O1052 C1055 1.265 . S
O1053 Eu1041 2.384 . S
O1053 C1062 1.255 . S
O1054 Tb1040 2.366 . S
O1054 C1062 1.265 . S
C1055 O1051 1.259 . S
C1055 O1052 1.265 . S
O1056 Eu1041 2.479 . S
O1056 C1071 1.238 . S
O1057 Eu1041 2.471 . S
O1057 C1071 1.247 . S
O1058 Eu1041 2.347 . S
O1058 C1042 1.259 . S
O1059 Tb1040 2.418 . S
O1059 C1042 1.265 . S
O1060 Tb1040 2.384 . S
O1060 C1043 1.255 . S
O1061 Eu1041 2.366 . S
O1061 C1043 1.265 . S
C1062 O1053 1.255 . S
C1062 O1054 1.265 . S
O1063 Tb1040 2.479 . S
O1063 C1050 1.238 . S
O1064 Tb1040 2.471 . S
O1064 C1050 1.247 . S
C1065 C1068 1.380 . S
C1065 C1069 1.374 . S
C1065 C1071 1.507 . S
C1066 C1067 1.387 . S
C1066 C1070 1.391 . S
C1067 C1066 1.387 . S
C1067 C1068 1.384 . S
C1067 H1076 0.930 . S
C1068 C1065 1.380 . S
C1068 C1067 1.384 . S
C1068 H1077 0.931 . S
C1069 C1065 1.374 . S
C1069 C1070 1.390 . S
C1069 H1078 0.930 . S
C1070 C1066 1.391 . S
C1070 C1069 1.390 . S
C1070 H1079 0.930 . S
C1071 Eu1041 2.825 . S
C1071 O1056 1.238 . S
C1071 O1057 1.247 . S
C1071 C1065 1.507 . S
H1072 C1045 0.930 . S
H1073 C1046 0.931 . S
H1074 C1047 0.930 1_455 S
H1075 C1048 0.930 . S
H1076 C1067 0.930 . S
H1077 C1068 0.931 . S
H1078 C1069 0.930 . S
H1079 C1070 0.930 . S
Tb1080 C1090 2.825 . S
Tb1080 O1091 2.347 . S
Tb1080 O1094 2.366 . S
Tb1080 O1099 2.418 . S
Tb1080 O1100 2.384 . S
Tb1080 O1103 2.479 . S
Tb1080 O1104 2.471 . S
Eu1081 O1092 2.418 . S
Eu1081 O1093 2.384 . S
Eu1081 O1096 2.479 . S
Eu1081 O1097 2.471 . S
Eu1081 O1098 2.347 . S
Eu1081 O1101 2.366 . S
Eu1081 C1111 2.825 . S
C1082 O1098 1.259 . S
C1082 O1099 1.265 . S
C1083 O1100 1.255 . S
C1083 O1101 1.265 . S
C1084 C1086 1.380 . S
C1084 C1087 1.374 . S
C1084 C1090 1.507 . S
C1085 C1086 1.384 . S
C1085 C1089 1.387 . S
C1085 H1112 0.930 . S
C1086 C1084 1.380 . S
C1086 C1085 1.384 . S
C1086 H1113 0.931 . S
C1087 C1084 1.374 . S
C1087 C1088 1.390 . S
C1087 H1114 0.930 . S
C1088 C1087 1.390 . S
C1088 C1089 1.391 . S
C1088 H1115 0.930 . S
C1089 C1085 1.387 . S
C1089 C1088 1.391 . S
C1090 Tb1080 2.825 . S
C1090 C1084 1.507 . S
C1090 O1103 1.238 . S
C1090 O1104 1.247 . S
O1091 Tb1080 2.347 . S
O1091 C1095 1.259 . S
O1092 Eu1081 2.418 . S
O1092 C1095 1.265 . S
O1093 Eu1081 2.384 . S
O1093 C1102 1.255 . S
O1094 Tb1080 2.366 . S
O1094 C1102 1.265 . S
C1095 O1091 1.259 . S
C1095 O1092 1.265 . S
O1096 Eu1081 2.479 . S
O1096 C1111 1.238 . S
O1097 Eu1081 2.471 . S
O1097 C1111 1.247 . S
O1098 Eu1081 2.347 . S
O1098 C1082 1.259 . S
O1099 Tb1080 2.418 . S
O1099 C1082 1.265 . S
O1100 Tb1080 2.384 . S
O1100 C1083 1.255 . S
O1101 Eu1081 2.366 . S
O1101 C1083 1.265 . S
C1102 O1093 1.255 . S
C1102 O1094 1.265 . S
O1103 Tb1080 2.479 . S
O1103 C1090 1.238 . S
O1104 Tb1080 2.471 . S
O1104 C1090 1.247 . S
C1105 C1108 1.380 . S
C1105 C1109 1.374 . S
C1105 C1111 1.507 . S
C1106 C1107 1.387 . S
C1106 C1110 1.391 . S
C1107 C1106 1.387 . S
C1107 C1108 1.384 . S
C1107 H1116 0.930 . S
C1108 C1105 1.380 . S
C1108 C1107 1.384 . S
C1108 H1117 0.931 . S
C1109 C1105 1.374 . S
C1109 C1110 1.390 . S
C1109 H1118 0.930 . S
C1110 C1106 1.391 . S
C1110 C1109 1.390 . S
C1110 H1119 0.930 . S
C1111 Eu1081 2.825 . S
C1111 O1096 1.238 . S
C1111 O1097 1.247 . S
C1111 C1105 1.507 . S
H1112 C1085 0.930 . S
H1113 C1086 0.931 . S
H1114 C1087 0.930 . S
H1115 C1088 0.930 . S
H1116 C1107 0.930 . S
H1117 C1108 0.931 . S
H1118 C1109 0.930 . S
H1119 C1110 0.930 . S
Tb1120 C1130 2.825 . S
Tb1120 O1131 2.347 . S
Tb1120 O1134 2.366 . S
Tb1120 O1139 2.418 . S
Tb1120 O1140 2.384 . S
Tb1120 O1143 2.479 . S
Tb1120 O1144 2.471 . S
Eu1121 O1132 2.418 . S
Eu1121 O1133 2.384 . S
Eu1121 O1136 2.479 . S
Eu1121 O1137 2.471 . S
Eu1121 O1138 2.347 . S
Eu1121 O1141 2.366 . S
Eu1121 C1151 2.825 . S
C1122 O1138 1.259 . S
C1122 O1139 1.265 . S
C1123 O1140 1.255 . S
C1123 O1141 1.265 . S
C1124 C1126 1.380 . S
C1124 C1127 1.374 . S
C1124 C1130 1.507 . S
C1125 C1126 1.384 . S
C1125 C1129 1.387 . S
C1125 H1152 0.930 . S
C1126 C1124 1.380 . S
C1126 C1125 1.384 . S
C1126 H1153 0.931 . S
C1127 C1124 1.374 . S
C1127 C1128 1.390 . S
C1127 H1154 0.930 . S
C1128 C1127 1.390 . S
C1128 C1129 1.391 . S
C1128 H1155 0.930 . S
C1129 C1125 1.387 . S
C1129 C1128 1.391 . S
C1130 Tb1120 2.825 . S
C1130 C1124 1.507 . S
C1130 O1143 1.238 . S
C1130 O1144 1.247 . S
O1131 Tb1120 2.347 . S
O1131 C1135 1.259 . S
O1132 Eu1121 2.418 . S
O1132 C1135 1.265 . S
O1133 Eu1121 2.384 . S
O1133 C1142 1.255 . S
O1134 Tb1120 2.366 . S
O1134 C1142 1.265 . S
C1135 O1131 1.259 . S
C1135 O1132 1.265 . S
O1136 Eu1121 2.479 . S
O1136 C1151 1.238 . S
O1137 Eu1121 2.471 . S
O1137 C1151 1.247 . S
O1138 Eu1121 2.347 . S
O1138 C1122 1.259 . S
O1139 Tb1120 2.418 . S
O1139 C1122 1.265 . S
O1140 Tb1120 2.384 . S
O1140 C1123 1.255 . S
O1141 Eu1121 2.366 . S
O1141 C1123 1.265 . S
C1142 O1133 1.255 . S
C1142 O1134 1.265 . S
O1143 Tb1120 2.479 . S
O1143 C1130 1.238 . S
O1144 Tb1120 2.471 . S
O1144 C1130 1.247 . S
C1145 C1148 1.380 . S
C1145 C1149 1.374 . S
C1145 C1151 1.507 . S
C1146 C1147 1.387 . S
C1146 C1150 1.391 . S
C1147 C1146 1.387 . S
C1147 C1148 1.384 . S
C1147 H1156 0.930 . S
C1148 C1145 1.380 . S
C1148 C1147 1.384 . S
C1148 H1157 0.931 . S
C1149 C1145 1.374 . S
C1149 C1150 1.390 . S
C1149 H1158 0.930 . S
C1150 C1146 1.391 . S
C1150 C1149 1.390 . S
C1150 H1159 0.930 . S
C1151 Eu1121 2.825 . S
C1151 O1136 1.238 . S
C1151 O1137 1.247 . S
C1151 C1145 1.507 . S
H1152 C1125 0.930 . S
H1153 C1126 0.931 . S
H1154 C1127 0.930 . S
H1155 C1128 0.930 . S
H1156 C1147 0.930 . S
H1157 C1148 0.931 . S
H1158 C1149 0.930 . S
H1159 C1150 0.930 . S
Tb1160 C1170 2.825 . S
Tb1160 O1171 2.347 . S
Tb1160 O1174 2.366 . S
Tb1160 O1179 2.418 1_554 S
Tb1160 O1180 2.384 1_554 S
Tb1160 O1183 2.479 . S
Tb1160 O1184 2.471 . S
Eu1161 O1172 2.418 . S
Eu1161 O1173 2.384 . S
Eu1161 O1176 2.479 1_554 S
Eu1161 O1177 2.471 1_554 S
Eu1161 O1178 2.347 1_554 S
Eu1161 O1181 2.366 1_554 S
Eu1161 C1191 2.825 1_554 S
C1162 O1178 1.259 . S
C1162 O1179 1.265 . S
C1163 O1180 1.255 . S
C1163 O1181 1.265 . S
C1164 C1166 1.380 . S
C1164 C1167 1.374 . S
C1164 C1170 1.507 . S
C1165 C1166 1.384 . S
C1165 C1169 1.387 . S
C1165 H1192 0.930 . S
C1166 C1164 1.380 . S
C1166 C1165 1.384 . S
C1166 H1193 0.931 . S
C1167 C1164 1.374 . S
C1167 C1168 1.390 . S
C1167 H1194 0.930 . S
C1168 C1167 1.390 . S
C1168 C1169 1.391 . S
C1168 H1195 0.930 . S
C1169 C1165 1.387 . S
C1169 C1168 1.391 . S
C1170 Tb1160 2.825 . S
C1170 C1164 1.507 . S
C1170 O1183 1.238 . S
C1170 O1184 1.247 . S
O1171 Tb1160 2.347 . S
O1171 C1175 1.259 . S
O1172 Eu1161 2.418 . S
O1172 C1175 1.265 . S
O1173 Eu1161 2.384 . S
O1173 C1182 1.255 . S
O1174 Tb1160 2.366 . S
O1174 C1182 1.265 . S
C1175 O1171 1.259 . S
C1175 O1172 1.265 . S
O1176 Eu1161 2.479 1_556 S
O1176 C1191 1.238 . S
O1177 Eu1161 2.471 1_556 S
O1177 C1191 1.247 . S
O1178 Eu1161 2.347 1_556 S
O1178 C1162 1.259 . S
O1179 Tb1160 2.418 1_556 S
O1179 C1162 1.265 . S
O1180 Tb1160 2.384 1_556 S
O1180 C1163 1.255 . S
O1181 Eu1161 2.366 1_556 S
O1181 C1163 1.265 . S
C1182 O1173 1.255 . S
C1182 O1174 1.265 . S
O1183 Tb1160 2.479 . S
O1183 C1170 1.238 . S
O1184 Tb1160 2.471 . S
O1184 C1170 1.247 . S
C1185 C1188 1.380 . S
C1185 C1189 1.374 . S
C1185 C1191 1.507 . S
C1186 C1187 1.387 . S
C1186 C1190 1.391 . S
C1187 C1186 1.387 . S
C1187 C1188 1.384 . S
C1187 H1196 0.930 . S
C1188 C1185 1.380 . S
C1188 C1187 1.384 . S
C1188 H1197 0.931 . S
C1189 C1185 1.374 . S
C1189 C1190 1.390 . S
C1189 H1198 0.930 . S
C1190 C1186 1.391 . S
C1190 C1189 1.390 . S
C1190 H1199 0.930 . S
C1191 Eu1161 2.825 1_556 S
C1191 O1176 1.238 . S
C1191 O1177 1.247 . S
C1191 C1185 1.507 . S
H1192 C1165 0.930 . S
H1193 C1166 0.931 . S
H1194 C1167 0.930 . S
H1195 C1168 0.930 . S
H1196 C1187 0.930 . S
H1197 C1188 0.931 . S
H1198 C1189 0.930 . S
H1199 C1190 0.930 . S
Tb1200 C1210 2.825 . S
Tb1200 O1211 2.347 . S
Tb1200 O1214 2.366 . S
Tb1200 O1219 2.418 . S
Tb1200 O1220 2.384 . S
Tb1200 O1223 2.479 . S
Tb1200 O1224 2.471 . S
Eu1201 O1212 2.418 . S
Eu1201 O1213 2.384 . S
Eu1201 O1216 2.479 . S
Eu1201 O1217 2.471 . S
Eu1201 O1218 2.347 . S
Eu1201 O1221 2.366 . S
Eu1201 C1231 2.825 . S
C1202 O1218 1.259 . S
C1202 O1219 1.265 . S
C1203 O1220 1.255 . S
C1203 O1221 1.265 . S
C1204 C1206 1.380 . S
C1204 C1207 1.374 . S
C1204 C1210 1.507 1_655 S
C1205 C1206 1.384 . S
C1205 C1209 1.387 . S
C1205 H1232 0.930 . S
C1206 C1204 1.380 . S
C1206 C1205 1.384 . S
C1206 H1233 0.931 . S
C1207 C1204 1.374 . S
C1207 C1208 1.390 . S
C1207 H1234 0.930 1_655 S
C1208 C1207 1.390 . S
C1208 C1209 1.391 . S
C1208 H1235 0.930 . S
C1209 C1205 1.387 . S
C1209 C1208 1.391 . S
C1210 Tb1200 2.825 . S
C1210 C1204 1.507 1_455 S
C1210 O1223 1.238 . S
C1210 O1224 1.247 . S
O1211 Tb1200 2.347 . S
O1211 C1215 1.259 . S
O1212 Eu1201 2.418 . S
O1212 C1215 1.265 . S
O1213 Eu1201 2.384 . S
O1213 C1222 1.255 . S
O1214 Tb1200 2.366 . S
O1214 C1222 1.265 . S
C1215 O1211 1.259 . S
C1215 O1212 1.265 . S
O1216 Eu1201 2.479 . S
O1216 C1231 1.238 . S
O1217 Eu1201 2.471 . S
O1217 C1231 1.247 . S
O1218 Eu1201 2.347 . S
O1218 C1202 1.259 . S
O1219 Tb1200 2.418 . S
O1219 C1202 1.265 . S
O1220 Tb1200 2.384 . S
O1220 C1203 1.255 . S
O1221 Eu1201 2.366 . S
O1221 C1203 1.265 . S
C1222 O1213 1.255 . S
C1222 O1214 1.265 . S
O1223 Tb1200 2.479 . S
O1223 C1210 1.238 . S
O1224 Tb1200 2.471 . S
O1224 C1210 1.247 . S
C1225 C1228 1.380 . S
C1225 C1229 1.374 . S
C1225 C1231 1.507 . S
C1226 C1227 1.387 . S
C1226 C1230 1.391 . S
C1227 C1226 1.387 . S
C1227 C1228 1.384 . S
C1227 H1236 0.930 . S
C1228 C1225 1.380 . S
C1228 C1227 1.384 . S
C1228 H1237 0.931 . S
C1229 C1225 1.374 . S
C1229 C1230 1.390 . S
C1229 H1238 0.930 . S
C1230 C1226 1.391 . S
C1230 C1229 1.390 . S
C1230 H1239 0.930 . S
C1231 Eu1201 2.825 . S
C1231 O1216 1.238 . S
C1231 O1217 1.247 . S
C1231 C1225 1.507 . S
H1232 C1205 0.930 . S
H1233 C1206 0.931 . S
H1234 C1207 0.930 1_455 S
H1235 C1208 0.930 . S
H1236 C1227 0.930 . S
H1237 C1228 0.931 . S
H1238 C1229 0.930 . S
H1239 C1230 0.930 . S
Tb1240 C1250 2.825 . S
Tb1240 O1251 2.347 . S
Tb1240 O1254 2.366 . S
Tb1240 O1259 2.418 . S
Tb1240 O1260 2.384 . S
Tb1240 O1263 2.479 . S
Tb1240 O1264 2.471 . S
Eu1241 O1252 2.418 . S
Eu1241 O1253 2.384 . S
Eu1241 O1256 2.479 . S
Eu1241 O1257 2.471 . S
Eu1241 O1258 2.347 . S
Eu1241 O1261 2.366 . S
Eu1241 C1271 2.825 . S
C1242 O1258 1.259 . S
C1242 O1259 1.265 . S
C1243 O1260 1.255 . S
C1243 O1261 1.265 . S
C1244 C1246 1.380 . S
C1244 C1247 1.374 . S
C1244 C1250 1.507 . S
C1245 C1246 1.384 . S
C1245 C1249 1.387 . S
C1245 H1272 0.930 . S
C1246 C1244 1.380 . S
C1246 C1245 1.384 . S
C1246 H1273 0.931 . S
C1247 C1244 1.374 . S
C1247 C1248 1.390 . S
C1247 H1274 0.930 . S
C1248 C1247 1.390 . S
C1248 C1249 1.391 . S
C1248 H1275 0.930 . S
C1249 C1245 1.387 . S
C1249 C1248 1.391 . S
C1250 Tb1240 2.825 . S
C1250 C1244 1.507 . S
C1250 O1263 1.238 . S
C1250 O1264 1.247 . S
O1251 Tb1240 2.347 . S
O1251 C1255 1.259 . S
O1252 Eu1241 2.418 . S
O1252 C1255 1.265 . S
O1253 Eu1241 2.384 . S
O1253 C1262 1.255 . S
O1254 Tb1240 2.366 . S
O1254 C1262 1.265 . S
C1255 O1251 1.259 . S
C1255 O1252 1.265 . S
O1256 Eu1241 2.479 . S
O1256 C1271 1.238 . S
O1257 Eu1241 2.471 . S
O1257 C1271 1.247 . S
O1258 Eu1241 2.347 . S
O1258 C1242 1.259 . S
O1259 Tb1240 2.418 . S
O1259 C1242 1.265 . S
O1260 Tb1240 2.384 . S
O1260 C1243 1.255 . S
O1261 Eu1241 2.366 . S
O1261 C1243 1.265 . S
C1262 O1253 1.255 . S
C1262 O1254 1.265 . S
O1263 Tb1240 2.479 . S
O1263 C1250 1.238 . S
O1264 Tb1240 2.471 . S
O1264 C1250 1.247 . S
C1265 C1268 1.380 . S
C1265 C1269 1.374 . S
C1265 C1271 1.507 . S
C1266 C1267 1.387 . S
C1266 C1270 1.391 . S
C1267 C1266 1.387 . S
C1267 C1268 1.384 . S
C1267 H1276 0.930 . S
C1268 C1265 1.380 . S
C1268 C1267 1.384 . S
C1268 H1277 0.931 . S
C1269 C1265 1.374 . S
C1269 C1270 1.390 . S
C1269 H1278 0.930 . S
C1270 C1266 1.391 . S
C1270 C1269 1.390 . S
C1270 H1279 0.930 . S
C1271 Eu1241 2.825 . S
C1271 O1256 1.238 . S
C1271 O1257 1.247 . S
C1271 C1265 1.507 . S
H1272 C1245 0.930 . S
H1273 C1246 0.931 . S
H1274 C1247 0.930 . S
H1275 C1248 0.930 . S
H1276 C1267 0.930 . S
H1277 C1268 0.931 . S
H1278 C1269 0.930 . S
H1279 C1270 0.930 . S
C9 C123 0.826 . S
C3 C49 0.826 . S
C89 C43 0.826 . S
C83 C129 0.826 . S
C203 C169 0.826 . S
C209 C243 0.826 . S
C283 C249 0.826 . S
C163 C289 0.826 . S
C346 C462 0.826 . S
C386 C342 0.826 . S
C426 C382 0.826 . S
C466 C422 0.826 . S
C506 C542 0.826 . S
C546 C582 0.826 . S
C622 C586 0.826 . S
C502 C626 0.826 . S
C649 C763 0.826 . S
C643 C689 0.826 . S
C683 C729 0.826 . S
C769 C723 0.826 . S
C809 C843 0.826 . S
C883 C849 0.826 . S
C889 C923 0.826 . S
C803 C929 0.826 . S
C1102 C986 0.826 . S
C982 C1026 0.826 . S
C1066 C1022 0.826 . S
C1062 C1106 0.826 . S
C1182 C1146 0.826 . S
C1222 C1186 0.826 . S
C1262 C1226 0.826 . S
C1266 C1142 0.826 . S
C1089 C2 1.836 . S
C42 C329 1.836 . S
C82 C1009 1.836 . S
C122 C409 1.836 . S
C162 C1169 1.836 . S
C569 C202 1.836 . S
C1249 C242 1.836 . S
C282 C489 1.836 . S
C335 C786 1.836 . S
C26 C375 1.836 . S
C706 C415 1.836 . S
C106 C455 1.836 . S
C866 C495 1.836 . S
C266 C535 1.836 . S
C575 C946 1.836 . S
C615 C186 1.836 . S
C642 C449 1.836 . S
C682 C969 1.836 . S
C722 C369 1.836 . S
C762 C1049 1.836 . S
C802 C529 1.836 . S
C842 C1209 1.836 . S
C609 C882 1.836 . S
C922 C1129 1.836 . S
C146 C975 1.836 . S
C666 C1015 1.836 . S
C66 C1055 1.836 . S
C746 C1095 1.836 . S
C226 C1135 1.836 . S
C1175 C906 1.836 . S
C1215 C306 1.836 . S
C826 C1255 1.836 . S
C15 C175 2.891 1_545 S
C55 C215 2.891 . S
C95 C255 2.891 1_565 S
C295 C135 2.891 1_554 S
C482 C322 2.891 1_545 S
C522 C362 2.891 . S
C402 C562 2.891 1_545 S
C442 C602 2.891 1_554 S
C655 C815 2.891 . S
C855 C695 2.891 1_554 S
C895 C735 2.891 . S
C935 C775 2.891 . S
C1122 C962 2.891 . S
C1002 C1162 2.891 1_554 S
C1202 C1042 2.891 . S
C1082 C1242 2.891 . S
C302 C22 3.728 . S
C62 C182 3.728 . S
C102 C222 3.728 . S
C262 C142 3.728 . S
C323 C603 3.728 . S
C483 C363 3.728 . S
C523 C403 3.728 . S
C443 C563 3.728 . S
C662 C942 3.728 . S
C822 C702 3.728 . S
C862 C742 3.728 . S
C902 C782 3.728 . S
C963 C1243 3.728 . S
C1123 C1003 3.728 . S
C1043 C1163 3.728 . S
C1203 C1083 3.728 . S
