# Generated by pormake.
# Topology wjk, (5)-cn, num edge types: 1
# Building blocks:
#     Node 0, Type 0, BuildingBlock: BEQFEK_clean_sbu_0, # of connection points: 5
#     Node 1, Type 0, BuildingBlock: BEQFEK_clean_sbu_0, # of connection points: 5
#     Node 2, Type 0, BuildingBlock: BEQFEK_clean_sbu_0, # of connection points: 5
#     Node 3, Type 0, BuildingBlock: BEQFEK_clean_sbu_0, # of connection points: 5
#     Node 4, Type 0, BuildingBlock: BEQFEK_clean_sbu_0, # of connection points: 5
#     Node 5, Type 0, BuildingBlock: BEQFEK_clean_sbu_0, # of connection points: 5
#     Node 6, Type 0, BuildingBlock: BEQFEK_clean_sbu_0, # of connection points: 5
#     Node 7, Type 0, BuildingBlock: BEQFEK_clean_sbu_0, # of connection points: 5
#     Node 8, Type 0, BuildingBlock: BEQFEK_clean_sbu_0, # of connection points: 5
#     Node 9, Type 0, BuildingBlock: BEQFEK_clean_sbu_0, # of connection points: 5
#     Node 10, Type 0, BuildingBlock: BEQFEK_clean_sbu_0, # of connection points: 5
#     Node 11, Type 0, BuildingBlock: BEQFEK_clean_sbu_0, # of connection points: 5
#     Edge 12, Type (0, 0), BuildingBlock: ZUJKAS_clean_linker_0, # of connection points: 2
#     Edge 13, Type (0, 0), BuildingBlock: ZUJKAS_clean_linker_0, # of connection points: 2
#     Edge 14, Type (0, 0), BuildingBlock: ZUJKAS_clean_linker_0, # of connection points: 2
#     Edge 15, Type (0, 0), BuildingBlock: ZUJKAS_clean_linker_0, # of connection points: 2
#     Edge 16, Type (0, 0), BuildingBlock: ZUJKAS_clean_linker_0, # of connection points: 2
#     Edge 17, Type (0, 0), BuildingBlock: ZUJKAS_clean_linker_0, # of connection points: 2
#     Edge 18, Type (0, 0), BuildingBlock: ZUJKAS_clean_linker_0, # of connection points: 2
#     Edge 19, Type (0, 0), BuildingBlock: ZUJKAS_clean_linker_0, # of connection points: 2
#     Edge 20, Type (0, 0), BuildingBlock: ZUJKAS_clean_linker_0, # of connection points: 2
#     Edge 21, Type (0, 0), BuildingBlock: ZUJKAS_clean_linker_0, # of connection points: 2
#     Edge 22, Type (0, 0), BuildingBlock: ZUJKAS_clean_linker_0, # of connection points: 2
#     Edge 23, Type (0, 0), BuildingBlock: ZUJKAS_clean_linker_0, # of connection points: 2
#     Edge 24, Type (0, 0), BuildingBlock: ZUJKAS_clean_linker_0, # of connection points: 2
#     Edge 25, Type (0, 0), BuildingBlock: ZUJKAS_clean_linker_0, # of connection points: 2
#     Edge 26, Type (0, 0), BuildingBlock: ZUJKAS_clean_linker_0, # of connection points: 2
#     Edge 27, Type (0, 0), BuildingBlock: ZUJKAS_clean_linker_0, # of connection points: 2
#     Edge 28, Type (0, 0), BuildingBlock: ZUJKAS_clean_linker_0, # of connection points: 2
#     Edge 29, Type (0, 0), BuildingBlock: ZUJKAS_clean_linker_0, # of connection points: 2
#     Edge 30, Type (0, 0), BuildingBlock: ZUJKAS_clean_linker_0, # of connection points: 2
#     Edge 31, Type (0, 0), BuildingBlock: ZUJKAS_clean_linker_0, # of connection points: 2
#     Edge 32, Type (0, 0), BuildingBlock: ZUJKAS_clean_linker_0, # of connection points: 2
#     Edge 33, Type (0, 0), BuildingBlock: ZUJKAS_clean_linker_0, # of connection points: 2
#     Edge 34, Type (0, 0), BuildingBlock: ZUJKAS_clean_linker_0, # of connection points: 2
#     Edge 35, Type (0, 0), BuildingBlock: ZUJKAS_clean_linker_0, # of connection points: 2
#     Edge 36, Type (0, 0), BuildingBlock: ZUJKAS_clean_linker_0, # of connection points: 2
#     Edge 37, Type (0, 0), BuildingBlock: ZUJKAS_clean_linker_0, # of connection points: 2
#     Edge 38, Type (0, 0), BuildingBlock: ZUJKAS_clean_linker_0, # of connection points: 2
#     Edge 39, Type (0, 0), BuildingBlock: ZUJKAS_clean_linker_0, # of connection points: 2
#     Edge 40, Type (0, 0), BuildingBlock: ZUJKAS_clean_linker_0, # of connection points: 2
#     Edge 41, Type (0, 0), BuildingBlock: ZUJKAS_clean_linker_0, # of connection points: 2
# Relax obj value: 0.391
# Max RMSD: 0.210
# Mean RMSD: 0.210
data_MOF--net-wjk--node1-BEQFEK_clean_sbu_0--edge1-ZUJKAS_clean_linker_0
_symmetry_space_group_name_H-M    P1
_symmetry_Int_Tables_number       1
_symmetry_cell_setting            triclinic
loop_
_symmetry_equiv_pos_as_xyz
'x, y, z'
_cell_length_a     43.348344
_cell_length_b     43.323708
_cell_length_c     97.547899
_cell_angle_alpha  90.015984
_cell_angle_beta   90.007752
_cell_angle_gamma 120.02006
loop_
_atom_site_label
_atom_site_type_symbol
_atom_site_fract_x
_atom_site_fract_y
_atom_site_fract_z
_atom_type_partial_charge
Co0 Co 0.15222 0.22709 0.25011 0.0
Co1 Co 0.21723 0.29415 0.23747 0.0
C2 C 0.20489 0.22198 0.23105 0.0
O3 O 0.17662 0.20797 0.23832 0.0
O4 O 0.22431 0.25569 0.22996 0.0
C5 C 0.11956 0.16211 0.26505 0.0
O6 O 0.14861 0.16141 0.26178 0.0
C7 C 0.29077 0.34764 0.22968 0.0
C8 C 0.29069 0.39799 0.23311 0.0
C9 C 0.31266 0.38447 0.2297 0.0
N10 N 0.25762 0.3398 0.23324 0.0
N11 N 0.2577 0.37006 0.23508 0.0
C12 C 0.30055 0.32021 0.22577 0.0
H13 H 0.29842 0.30388 0.23487 0.0
H14 H 0.32779 0.33242 0.22143 0.0
H15 H 0.2815 0.30225 0.21794 0.0
C16 C 0.18785 0.26128 0.27591 0.0
N17 N 0.18455 0.26238 0.26222 0.0
N18 N 0.21364 0.28931 0.25716 0.0
C19 C 0.23727 0.3052 0.26753 0.0
C20 C 0.22172 0.28767 0.27981 0.0
C21 C 0.15915 0.23501 0.28517 0.0
H22 H 0.13265 0.22921 0.28139 0.0
H23 H 0.16004 0.2099 0.28539 0.0
H24 H 0.16288 0.24553 0.29579 0.0
O25 O 0.12789 0.24438 0.23816 0.0
O26 O 0.17333 0.2899 0.22771 0.0
H27 H 0.27704 0.35807 0.26199 0.0
H28 H 0.29156 0.338 0.27481 0.0
C29 C 0.27548 0.33289 0.26537 0.0
H30 H 0.28694 0.32401 0.25717 0.0
H31 H 0.23547 0.37164 0.23818 0.0
O32 O 0.11546 0.18756 0.26087 0.0
C33 C 0.13978 0.26892 0.2292 0.0
Co34 Co 0.92365 0.15351 0.58398 0.0
Co35 Co 0.91611 0.21525 0.57129 0.0
C36 C 0.97674 0.20613 0.56342 0.0
O37 O 0.96466 0.17895 0.57121 0.0
O38 O 0.96104 0.22421 0.56248 0.0
C39 C 0.96554 0.13594 0.59995 0.0
O40 O 0.98771 0.17015 0.59811 0.0
C41 C 0.9327 0.28801 0.56437 0.0
C42 C 0.87936 0.28283 0.56434 0.0
C43 C 0.9153 0.30738 0.56282 0.0
N44 N 0.90817 0.25366 0.56667 0.0
N45 N 0.87632 0.25071 0.56649 0.0
C46 C 0.97209 0.30237 0.56509 0.0
H47 H 0.97819 0.28504 0.57153 0.0
H48 H 0.98598 0.32979 0.56936 0.0
H49 H 0.98236 0.30315 0.5546 0.0
C50 C 0.92302 0.18835 0.60983 0.0
N51 N 0.91936 0.18514 0.59611 0.0
N52 N 0.91968 0.21339 0.59103 0.0
C53 C 0.92537 0.23638 0.60147 0.0
C54 C 0.92825 0.22139 0.61375 0.0
C55 C 0.92036 0.15985 0.61927 0.0
H56 H 0.9035 0.13312 0.61467 0.0
H57 H 0.94726 0.16393 0.62137 0.0
H58 H 0.9087 0.16117 0.62924 0.0
O59 O 0.88059 0.12558 0.57298 0.0
O60 O 0.87669 0.1692 0.56262 0.0
H61 H 0.90981 0.27255 0.59347 0.0
H62 H 0.93389 0.28679 0.60946 0.0
C63 C 0.9318 0.2734 0.59955 0.0
H64 H 0.957 0.28936 0.59385 0.0
H65 H 0.85257 0.22694 0.56828 0.0
O66 O 0.93471 0.12178 0.59459 0.0
C67 C 0.86585 0.13598 0.56428 0.0
Co68 Co 0.77024 0.92922 0.9186 0.0
Co69 Co 0.69998 0.91839 0.90536 0.0
C70 C 0.77119 0.98078 0.89785 0.0
O71 O 0.78708 0.97062 0.90611 0.0
O72 O 0.73737 0.96336 0.89661 0.0
C73 C 0.8365 0.96574 0.93276 0.0
O74 O 0.83684 0.99449 0.92826 0.0
C75 C 0.64547 0.93713 0.89869 0.0
C76 C 0.59647 0.8845 0.89744 0.0
C77 C 0.60881 0.92081 0.89693 0.0
N78 N 0.65422 0.91167 0.90045 0.0
N79 N 0.62486 0.88025 0.89954 0.0
C80 C 0.67234 0.97609 0.89795 0.0
H81 H 0.68993 0.98065 0.88903 0.0
H82 H 0.6893 0.98438 0.90726 0.0
H83 H 0.65996 0.99287 0.89657 0.0
C84 C 0.73488 0.9319 0.94398 0.0
N85 N 0.7342 0.92575 0.93041 0.0
N86 N 0.70462 0.92204 0.92512 0.0
C87 C 0.68575 0.92625 0.93533 0.0
C88 C 0.70448 0.93279 0.94758 0.0
C89 C 0.76544 0.93983 0.95328 0.0
H90 H 0.77466 0.92051 0.95143 0.0
H91 H 0.78764 0.96713 0.95118 0.0
H92 H 0.75774 0.93829 0.96422 0.0
O93 O 0.75496 0.88651 0.9072 0.0
O94 O 0.70567 0.87839 0.89703 0.0
H95 H 0.63318 0.90434 0.92704 0.0
H96 H 0.63956 0.92685 0.9433 0.0
C97 C 0.65215 0.92741 0.93332 0.0
H98 H 0.65827 0.95224 0.92786 0.0
H99 H 0.62407 0.85592 0.90074 0.0
O100 O 0.81076 0.93522 0.92962 0.0
C101 C 0.72958 0.86967 0.89875 0.0
Co102 Co 0.83689 0.77737 0.25045 0.0
Co103 Co 0.78272 0.70395 0.23776 0.0
C104 C 0.78294 0.77086 0.22972 0.0
O105 O 0.80783 0.78888 0.2382 0.0
O106 O 0.77061 0.7375 0.22828 0.0
C107 C 0.85259 0.83826 0.2658 0.0
O108 O 0.81859 0.82652 0.2636 0.0
C109 C 0.71148 0.64559 0.23137 0.0
C110 C 0.7196 0.59945 0.22902 0.0
C111 C 0.69356 0.60914 0.22884 0.0
N112 N 0.74636 0.65683 0.23291 0.0
N113 N 0.75111 0.62919 0.23138 0.0
C114 C 0.69557 0.6689 0.23368 0.0
H115 H 0.71288 0.69153 0.2405 0.0
H116 H 0.66866 0.65353 0.23832 0.0
H117 H 0.69322 0.67983 0.2237 0.0
C118 C 0.80404 0.73977 0.27632 0.0
N119 N 0.80818 0.73989 0.26262 0.0
N120 N 0.78343 0.7093 0.25751 0.0
C121 C 0.76212 0.68923 0.26796 0.0
C122 C 0.77443 0.70814 0.28017 0.0
C123 C 0.82708 0.7698 0.28577 0.0
H124 H 0.85502 0.78384 0.28212 0.0
H125 H 0.81688 0.78867 0.28631 0.0
H126 H 0.82629 0.75969 0.2963 0.0
O127 O 0.86752 0.76657 0.23882 0.0
O128 O 0.83027 0.71363 0.22982 0.0
H129 H 0.73433 0.6367 0.25934 0.0
H130 H 0.71969 0.6402 0.27635 0.0
C131 C 0.7291 0.65378 0.2663 0.0
H132 H 0.70779 0.65758 0.26179 0.0
H133 H 0.77573 0.63047 0.23229 0.0
O134 O 0.86678 0.8211 0.26092 0.0
C135 C 0.86161 0.7407 0.23096 0.0
Co136 Co 0.07033 0.84541 0.58493 0.0
Co137 Co 0.07744 0.78296 0.57244 0.0
C138 C 0.01613 0.79306 0.56503 0.0
O139 O 0.02826 0.82054 0.57268 0.0
O140 O 0.03206 0.77512 0.56408 0.0
C141 C 0.03488 0.87619 0.59891 0.0
O142 O 0.00607 0.84699 0.59498 0.0
C143 C 0.05825 0.70931 0.56578 0.0
C144 C 0.11061 0.71223 0.56575 0.0
C145 C 0.07438 0.68868 0.56444 0.0
N146 N 0.08371 0.74331 0.56805 0.0
N147 N 0.11498 0.74492 0.56789 0.0
C148 C 0.01967 0.69779 0.56401 0.0
H149 H 0.00991 0.70571 0.57312 0.0
H150 H 0.0029 0.66879 0.56217 0.0
H151 H 0.017 0.71187 0.55502 0.0
C152 C 0.06731 0.80877 0.61078 0.0
N153 N 0.07308 0.8131 0.59716 0.0
N154 N 0.07495 0.78589 0.59215 0.0
C155 C 0.06973 0.76301 0.60256 0.0
C156 C 0.06443 0.77672 0.61469 0.0
C157 C 0.06246 0.83377 0.61993 0.0
H158 H 0.08207 0.86174 0.61726 0.0
H159 H 0.03515 0.82937 0.61858 0.0
H160 H 0.06601 0.82917 0.63086 0.0
O161 O 0.11292 0.87126 0.57335 0.0
O162 O 0.11728 0.82755 0.56341 0.0
H163 H 0.06334 0.71374 0.61076 0.0
H164 H 0.04156 0.71002 0.59459 0.0
C165 C 0.06574 0.72692 0.60075 0.0
H166 H 0.08912 0.72939 0.59516 0.0
H167 H 0.13926 0.76821 0.56957 0.0
O168 O 0.06529 0.88117 0.59551 0.0
C169 C 0.12789 0.86075 0.56482 0.0
Co170 Co 0.22352 0.0683 0.91744 0.0
Co171 Co 0.29435 0.07942 0.90487 0.0
C172 C 0.2251 0.0171 0.89672 0.0
O173 O 0.20892 0.02772 0.90462 0.0
O174 O 0.25893 0.0342 0.89584 0.0
C175 C 0.16242 0.02591 0.93289 0.0
O176 O 0.17304 0.00269 0.93084 0.0
C177 C 0.35065 0.06318 0.89829 0.0
C178 C 0.39855 0.11666 0.89719 0.0
C179 C 0.38729 0.0806 0.89633 0.0
N180 N 0.34077 0.08779 0.90017 0.0
N181 N 0.36948 0.11972 0.89936 0.0
C182 C 0.3259 0.02389 0.89979 0.0
H183 H 0.30302 0.01856 0.90644 0.0
H184 H 0.33995 0.01073 0.90424 0.0
H185 H 0.31553 0.0122 0.88954 0.0
C186 C 0.2591 0.06867 0.94338 0.0
N187 N 0.25953 0.07299 0.92967 0.0
N188 N 0.28885 0.07557 0.9246 0.0
C189 C 0.30744 0.0718 0.93504 0.0
C190 C 0.28882 0.0668 0.94725 0.0
C191 C 0.23089 0.0664 0.95286 0.0
H192 H 0.21932 0.08235 0.94886 0.0
H193 H 0.20967 0.03817 0.95399 0.0
H194 H 0.24221 0.07644 0.9632 0.0
O195 O 0.23807 0.11151 0.90645 0.0
O196 O 0.28725 0.11861 0.89645 0.0
H197 H 0.35981 0.09205 0.92675 0.0
H198 H 0.35332 0.07095 0.9433 0.0
C199 C 0.34064 0.06976 0.93329 0.0
H200 H 0.33396 0.0443 0.92821 0.0
H201 H 0.36939 0.14358 0.90071 0.0
O202 O 0.18043 0.05702 0.92785 0.0
C203 C 0.26365 0.12786 0.89803 0.0
Co204 Co 0.7732 0.84034 0.446 0.0
Co205 Co 0.70188 0.78068 0.4587 0.0
C206 C 0.77135 0.78869 0.46733 0.0
O207 O 0.78759 0.81523 0.45932 0.0
O208 O 0.73748 0.77163 0.46803 0.0
C209 C 0.84074 0.86552 0.43371 0.0
O210 O 0.8387 0.83763 0.43988 0.0
C211 C 0.64559 0.70802 0.46506 0.0
C212 C 0.59746 0.7132 0.46609 0.0
C213 C 0.60887 0.68852 0.46676 0.0
N214 N 0.65529 0.74247 0.46322 0.0
N215 N 0.62645 0.74545 0.46396 0.0
C216 C 0.67167 0.69499 0.46602 0.0
H217 H 0.68863 0.70713 0.47518 0.0
H218 H 0.6894 0.70393 0.45692 0.0
H219 H 0.65858 0.66569 0.46712 0.0
C220 C 0.73827 0.80387 0.4203 0.0
N221 N 0.73755 0.80804 0.43397 0.0
N222 N 0.70789 0.78178 0.43904 0.0
C223 C 0.68913 0.75947 0.42862 0.0
C224 C 0.70778 0.77288 0.41642 0.0
C225 C 0.7692 0.82736 0.4113 0.0
H226 H 0.77767 0.85567 0.41336 0.0
H227 H 0.7917 0.82292 0.41365 0.0
H228 H 0.76268 0.82176 0.40026 0.0
O229 O 0.75788 0.86899 0.45668 0.0
O230 O 0.70863 0.82709 0.46673 0.0
H231 H 0.63582 0.73013 0.43631 0.0
H232 H 0.64255 0.71383 0.42016 0.0
C233 C 0.65465 0.72533 0.43026 0.0
H234 H 0.65941 0.70586 0.43587 0.0
H235 H 0.62644 0.76938 0.46271 0.0
O236 O 0.81573 0.8725 0.43512 0.0
C237 C 0.73216 0.85992 0.46502 0.0
Co238 Co 0.93037 0.7739 0.779 0.0
Co239 Co 0.91792 0.70304 0.79217 0.0
C240 C 0.98165 0.77195 0.79961 0.0
O241 O 0.97127 0.78805 0.79157 0.0
O242 O 0.9639 0.73819 0.80086 0.0
C243 C 0.97364 0.8336 0.763 0.0
O244 O 0.9958 0.82161 0.76491 0.0
C245 C 0.93221 0.64549 0.799 0.0
C246 C 0.87832 0.59806 0.79945 0.0
C247 C 0.91416 0.60866 0.80047 0.0
N248 N 0.90821 0.65605 0.79692 0.0
N249 N 0.87601 0.6276 0.79734 0.0
C250 C 0.97142 0.6708 0.80036 0.0
H251 H 0.98142 0.68809 0.79115 0.0
H252 H 0.98679 0.65702 0.80202 0.0
H253 H 0.97591 0.68824 0.80933 0.0
C254 C 0.92562 0.73533 0.75327 0.0
N255 N 0.9235 0.73657 0.76705 0.0
N256 N 0.92123 0.70766 0.77241 0.0
C257 C 0.92377 0.68799 0.76213 0.0
C258 C 0.92662 0.7049 0.74966 0.0
C259 C 0.92928 0.76403 0.74372 0.0
H260 H 0.91578 0.77786 0.74799 0.0
H261 H 0.95794 0.78336 0.74207 0.0
H262 H 0.91735 0.75296 0.73359 0.0
O263 O 0.88809 0.76108 0.79027 0.0
O264 O 0.87957 0.71166 0.80055 0.0
H265 H 0.92487 0.64193 0.75416 0.0
H266 H 0.94914 0.66019 0.76992 0.0
C267 C 0.92482 0.65431 0.76412 0.0
H268 H 0.90129 0.63514 0.77014 0.0
H269 H 0.85249 0.62824 0.79581 0.0
O270 O 0.94276 0.81695 0.76833 0.0
C271 C 0.87128 0.73594 0.79883 0.0
Co272 Co 0.16114 0.93522 0.11183 0.0
Co273 Co 0.21681 0.91873 0.12476 0.0
C274 C 0.21219 0.98368 0.13278 0.0
O275 O 0.18742 0.97617 0.12415 0.0
O276 O 0.22599 0.96386 0.1341 0.0
C277 C 0.11075 0.95613 0.10652 0.0
O278 O 0.11278 0.96067 0.11988 0.0
C279 C 0.28945 0.93561 0.13073 0.0
C280 C 0.28418 0.88266 0.13381 0.0
C281 C 0.30897 0.91876 0.13325 0.0
N282 N 0.25488 0.91061 0.12961 0.0
N283 N 0.25183 0.87901 0.13155 0.0
C284 C 0.30254 0.97483 0.13026 0.0
H285 H 0.29175 0.98118 0.12104 0.0
H286 H 0.33194 0.99125 0.13044 0.0
H287 H 0.29225 0.98209 0.13937 0.0
C288 C 0.19739 0.9363 0.08643 0.0
N289 N 0.19219 0.92998 0.09998 0.0
N290 N 0.21653 0.92358 0.10503 0.0
C291 C 0.23828 0.92571 0.09462 0.0
C292 C 0.22671 0.93371 0.08249 0.0
C293 C 0.17736 0.94915 0.07786 0.0
H294 H 0.14896 0.92793 0.0773 0.0
H295 H 0.17869 0.97286 0.0828 0.0
H296 H 0.18819 0.95653 0.06734 0.0
O297 O 0.13201 0.89316 0.12332 0.0
O298 O 0.17012 0.87933 0.13271 0.0
H299 H 0.27932 0.91706 0.08612 0.0
H300 H 0.2922 0.94583 0.10089 0.0
C301 C 0.27022 0.92138 0.0962 0.0
H302 H 0.26382 0.8985 0.10303 0.0
H303 H 0.22776 0.85492 0.13109 0.0
O304 O 0.12896 0.9443 0.10081 0.0
C305 C 0.13842 0.87388 0.13134 0.0
Co306 Co 0.22393 0.15385 0.44633 0.0
Co307 Co 0.29384 0.21519 0.45907 0.0
C308 C 0.22392 0.20525 0.46755 0.0
O309 O 0.20852 0.17827 0.45967 0.0
O310 O 0.25774 0.22345 0.46828 0.0
C311 C 0.15761 0.1294 0.43331 0.0
O312 O 0.16046 0.15836 0.43883 0.0
C313 C 0.3497 0.28794 0.46613 0.0
C314 C 0.39804 0.28305 0.46619 0.0
C315 C 0.38647 0.30745 0.46775 0.0
N316 N 0.3401 0.25368 0.46375 0.0
N317 N 0.36909 0.25089 0.46395 0.0
C318 C 0.32449 0.30207 0.46545 0.0
H319 H 0.3011 0.28464 0.459 0.0
H320 H 0.33788 0.32951 0.46121 0.0
H321 H 0.31496 0.30271 0.47595 0.0
C322 C 0.25779 0.19075 0.42071 0.0
N323 N 0.25918 0.18662 0.43433 0.0
N324 N 0.28792 0.21408 0.43938 0.0
C325 C 0.30523 0.23729 0.429 0.0
C326 C 0.28629 0.22339 0.41681 0.0
C327 C 0.22949 0.16385 0.41148 0.0
H328 H 0.22217 0.13655 0.4148 0.0
H329 H 0.20556 0.16683 0.41199 0.0
H330 H 0.23878 0.1676 0.40069 0.0
O331 O 0.24007 0.12591 0.45684 0.0
O332 O 0.2878 0.16903 0.46729 0.0
H333 H 0.35764 0.27157 0.43689 0.0
H334 H 0.34835 0.28702 0.42106 0.0
C335 C 0.33693 0.27362 0.43096 0.0
H336 H 0.32886 0.29028 0.43684 0.0
H337 H 0.36923 0.22722 0.46211 0.0
O338 O 0.18168 0.12139 0.43541 0.0
C339 C 0.26543 0.13589 0.46542 0.0
Co340 Co 0.06975 0.22533 0.77938 0.0
Co341 Co 0.07454 0.29352 0.7921 0.0
C342 C 0.0151 0.22157 0.7996 0.0
O343 O 0.02765 0.20686 0.79182 0.0
O344 O 0.03024 0.25536 0.80061 0.0
C345 C 0.0357 0.1595 0.76497 0.0
O346 O 0.00638 0.15901 0.76876 0.0
C347 C 0.05391 0.34696 0.79899 0.0
C348 C 0.10614 0.39658 0.79945 0.0
C349 C 0.06984 0.38365 0.80068 0.0
N350 N 0.07965 0.33872 0.79685 0.0
N351 N 0.1108 0.36848 0.7973 0.0
C352 C 0.01488 0.32058 0.79803 0.0
H353 H 0.01012 0.29735 0.7917 0.0
H354 H 0.00025 0.33306 0.79351 0.0
H355 H 0.00431 0.31097 0.80847 0.0
C356 C 0.06612 0.25875 0.75364 0.0
N357 N 0.07154 0.26018 0.76727 0.0
N358 N 0.07149 0.28826 0.77235 0.0
C359 C 0.06484 0.30504 0.76199 0.0
C360 C 0.06066 0.28647 0.74977 0.0
C361 C 0.06559 0.23093 0.74437 0.0
H362 H 0.08616 0.22439 0.74761 0.0
H363 H 0.03904 0.2065 0.74487 0.0
H364 H 0.0708 0.24034 0.73358 0.0
O365 O 0.11269 0.24295 0.79071 0.0
O366 O 0.11531 0.28989 0.80099 0.0
H367 H 0.08013 0.35661 0.77015 0.0
H368 H 0.05616 0.34694 0.75414 0.0
C369 C 0.05824 0.33549 0.76401 0.0
H370 H 0.03294 0.32598 0.76967 0.0
H371 H 0.13521 0.36973 0.79569 0.0
O372 O 0.06571 0.18519 0.76864 0.0
C373 C 0.12701 0.26825 0.79934 0.0
Co374 Co 0.83649 0.06499 0.11086 0.0
Co375 Co 0.78001 0.07855 0.12504 0.0
C376 C 0.78462 0.01369 0.13161 0.0
O377 O 0.81007 0.02318 0.12312 0.0
O378 O 0.77007 0.03261 0.13348 0.0
C379 C 0.85751 0.02301 0.09571 0.0
O380 O 0.82745 0.99669 0.10043 0.0
C381 C 0.70845 0.06281 0.13256 0.0
C382 C 0.71481 0.11634 0.13513 0.0
C383 C 0.68972 0.08029 0.1354 0.0
N384 N 0.74296 0.08734 0.13074 0.0
N385 N 0.74667 0.11929 0.13244 0.0
C386 C 0.69344 0.02373 0.13012 0.0
H387 H 0.71038 0.01921 0.12281 0.0
H388 H 0.66591 0.01131 0.12602 0.0
H389 H 0.69285 0.01064 0.13998 0.0
C390 C 0.80048 0.06901 0.08585 0.0
N391 N 0.8052 0.07197 0.09955 0.0
N392 N 0.77976 0.07571 0.10524 0.0
C393 C 0.75735 0.07412 0.0952 0.0
C394 C 0.76987 0.06989 0.0826 0.0
C395 C 0.82303 0.06215 0.07608 0.0
H396 H 0.85156 0.07964 0.07862 0.0
H397 H 0.81615 0.0339 0.07697 0.0
H398 H 0.81863 0.06708 0.06531 0.0
O399 O 0.86687 0.10699 0.12238 0.0
O400 O 0.82725 0.1167 0.13304 0.0
H401 H 0.72896 0.09724 0.10458 0.0
H402 H 0.71299 0.0788 0.0877 0.0
C403 C 0.72378 0.07515 0.09751 0.0
H404 H 0.70356 0.04972 0.10221 0.0
H405 H 0.77076 0.14314 0.13132 0.0
O406 O 0.86725 0.05489 0.09912 0.0
C407 C 0.85949 0.12427 0.13107 0.0
H408 H 0.65496 0.5419 0.23904 0.0
H409 H 0.59029 0.50204 0.23794 0.0
H410 H 0.57983 0.581 0.21471 0.0
H411 H 0.64445 0.62046 0.21542 0.0
H412 H 0.53851 0.51687 0.24824 0.0
H413 H 0.52133 0.48972 0.19232 0.0
H414 H 0.5641 0.50824 0.20071 0.0
H415 H 0.54562 0.5362 0.19673 0.0
C416 C 0.63888 0.55057 0.23357 0.0
C417 C 0.65468 0.58456 0.22753 0.0
C418 C 0.60197 0.52785 0.23299 0.0
C419 C 0.58028 0.53848 0.22618 0.0
C420 C 0.59609 0.5721 0.21989 0.0
H421 H 0.35166 0.44829 0.21682 0.0
H422 H 0.41682 0.48561 0.21595 0.0
C423 C 0.63298 0.59485 0.22049 0.0
C424 C 0.541 0.5151 0.22624 0.0
H425 H 0.46851 0.4703 0.20539 0.0
C426 C 0.5232 0.50648 0.23888 0.0
C427 C 0.52113 0.50179 0.214 0.0
C428 C 0.53897 0.50914 0.20016 0.0
C429 C 0.48596 0.48539 0.23963 0.0
C430 C 0.46606 0.47199 0.2274 0.0
C431 C 0.48385 0.48062 0.21474 0.0
C432 C 0.42674 0.4489 0.22756 0.0
C433 C 0.46818 0.47833 0.25348 0.0
C434 C 0.41081 0.41576 0.23421 0.0
C435 C 0.37373 0.39453 0.23474 0.0
C436 C 0.3519 0.40577 0.2284 0.0
C437 C 0.3679 0.43884 0.22165 0.0
C438 C 0.40503 0.46011 0.22114 0.0
H439 H 0.48589 0.49787 0.26128 0.0
H440 H 0.44311 0.47933 0.25293 0.0
H441 H 0.46149 0.45133 0.257 0.0
H442 H 0.42706 0.40646 0.23913 0.0
H443 H 0.3622 0.36978 0.24043 0.0
H444 H 0.09494 0.65123 0.5481 0.0
H445 H 0.06767 0.58615 0.54642 0.0
H446 H 0.98994 0.57313 0.57686 0.0
H447 H 0.0174 0.63792 0.57875 0.0
H448 H 0.05744 0.5373 0.56801 0.0
H449 H 0.92902 0.50913 0.54472 0.0
H450 H 0.96808 0.55305 0.54469 0.0
H451 H 0.94141 0.53624 0.55991 0.0
C452 C 0.07185 0.63439 0.55433 0.0
C453 C 0.05744 0.64951 0.56318 0.0
C454 C 0.05633 0.59732 0.55337 0.0
C455 C 0.02626 0.57486 0.56126 0.0
C456 C 0.01244 0.58997 0.57037 0.0
H457 H 0.89301 0.34894 0.57525 0.0
H458 H 0.92064 0.41392 0.5743 0.0
C459 C 0.02799 0.62697 0.57136 0.0
C460 C 0.01004 0.53562 0.5604 0.0
H461 H 0.93268 0.45924 0.55266 0.0
C462 C 0.03028 0.52018 0.56455 0.0
C463 C 0.97455 0.51345 0.55593 0.0
C464 C 0.95201 0.52873 0.55094 0.0
C465 C 0.01563 0.48302 0.56472 0.0
C466 C 0.98003 0.46079 0.56032 0.0
C467 C 0.95995 0.47631 0.55603 0.0
C468 C 0.96283 0.42134 0.56045 0.0
C469 C 0.03801 0.46789 0.57007 0.0
C470 C 0.97682 0.40385 0.55272 0.0
C471 C 0.96114 0.36674 0.55329 0.0
C472 C 0.9311 0.34648 0.56156 0.0
C473 C 0.91629 0.36391 0.56886 0.0
C474 C 0.93207 0.40101 0.56834 0.0
H475 H 0.0609 0.48773 0.57626 0.0
H476 H 0.02184 0.4439 0.57647 0.0
H477 H 0.0488 0.45999 0.56128 0.0
H478 H -0.00012 0.4189 0.54623 0.0
H479 H 0.97242 0.35393 0.5472 0.0
H480 H 0.4517 0.10396 0.90844 0.0
H481 H 0.48922 0.07645 0.90759 0.0
H482 H 0.41321 0.99445 0.88079 0.0
H483 H 0.37581 0.02209 0.88145 0.0
H484 H 0.4649 0.00203 0.91549 0.0
H485 H 0.51255 0.03344 0.86158 0.0
H486 H 0.49546 0.05792 0.87079 0.0
H487 H 0.46539 0.01419 0.86428 0.0
C488 C 0.44318 0.08026 0.90226 0.0
C489 C 0.4106 0.06483 0.89518 0.0
C490 C 0.46454 0.06453 0.90183 0.0
C491 C 0.454 0.03352 0.8941 0.0
C492 C 0.42189 0.01851 0.88675 0.0
H493 H 0.5517 0.90229 0.88031 0.0
H494 H 0.51279 0.92839 0.87976 0.0
C495 C 0.40038 0.03409 0.88726 0.0
C496 C 0.47596 0.01612 0.89419 0.0
H497 H 0.52862 0.99691 0.87407 0.0
C498 C 0.47891 0.00093 0.90646 0.0
C499 C 0.49386 0.0145 0.88234 0.0
C500 C 0.492 0.03105 0.86899 0.0
C501 C 0.49917 0.98389 0.90719 0.0
C502 C 0.51774 0.98287 0.89541 0.0
C503 C 0.51445 0.99778 0.88309 0.0
C504 C 0.54122 0.96707 0.89573 0.0
C505 C 0.49989 0.96654 0.92051 0.0
C506 C 0.57021 0.98029 0.90481 0.0
C507 C 0.59219 0.9653 0.90519 0.0
C508 C 0.58619 0.9374 0.89625 0.0
C509 C 0.55715 0.9241 0.88718 0.0
C510 C 0.535 0.939 0.88685 0.0
H511 H 0.47633 0.96016 0.92698 0.0
H512 H 0.50061 0.94161 0.91867 0.0
H513 H 0.52407 0.98518 0.92638 0.0
H514 H 0.57583 0.00221 0.91164 0.0
H515 H 0.61353 0.97518 0.91266 0.0
H516 H 0.61121 0.63716 0.45134 0.0
H517 H 0.57267 0.57246 0.45316 0.0
H518 H 0.51335 0.58702 0.48552 0.0
H519 H 0.55248 0.65196 0.48393 0.0
H520 H 0.55994 0.52891 0.47786 0.0
H521 H 0.43738 0.52162 0.45651 0.0
H522 H 0.48121 0.55972 0.45387 0.0
H523 H 0.45943 0.55314 0.47013 0.0
C524 C 0.59047 0.62654 0.45905 0.0
C525 C 0.58552 0.64944 0.46781 0.0
C526 C 0.56826 0.58963 0.45998 0.0
C527 C 0.54023 0.57502 0.46947 0.0
C528 C 0.53474 0.59783 0.47807 0.0
H529 H 0.37521 0.35367 0.48336 0.0
H530 H 0.41289 0.41861 0.48471 0.0
C531 C 0.5571 0.63481 0.47718 0.0
C532 C 0.51706 0.53583 0.47041 0.0
H533 H 0.43276 0.46777 0.46404 0.0
C534 C 0.5321 0.51548 0.47487 0.0
C535 C 0.48076 0.51853 0.46657 0.0
C536 C 0.46361 0.53921 0.4614 0.0
C537 C 0.51176 0.47815 0.47561 0.0
C538 C 0.47563 0.46071 0.47146 0.0
C539 C 0.46045 0.48116 0.46721 0.0
C540 C 0.45341 0.42126 0.47101 0.0
C541 C 0.52908 0.45783 0.48101 0.0
C542 C 0.46359 0.40119 0.46282 0.0
C543 C 0.44209 0.36416 0.46202 0.0
C544 C 0.40965 0.34653 0.46918 0.0
C545 C 0.39962 0.36659 0.47747 0.0
C546 C 0.42124 0.40365 0.47832 0.0
H547 H 0.55247 0.47492 0.48757 0.0
H548 H 0.50996 0.4342 0.48704 0.0
H549 H 0.5386 0.44849 0.47224 0.0
H550 H 0.48788 0.41423 0.45685 0.0
H551 H 0.45041 0.34939 0.45551 0.0
H552 H 0.89186 0.5504 0.81689 0.0
H553 H 0.9167 0.51038 0.81832 0.0
H554 H 0.99341 0.57171 0.78705 0.0
H555 H 0.96827 0.61108 0.78536 0.0
H556 H 0.92541 0.46988 0.79605 0.0
H557 H 0.05383 0.56855 0.81991 0.0
H558 H 0.01487 0.57354 0.82015 0.0
H559 H 0.04147 0.58393 0.8049 0.0
C560 C 0.91414 0.55534 0.81039 0.0
C561 C 0.92908 0.5846 0.8014 0.0
C562 C 0.92825 0.53254 0.81121 0.0
C563 C 0.95742 0.53866 0.80303 0.0
C564 C 0.97155 0.56715 0.79372 0.0
H565 H 0.09095 0.44766 0.78866 0.0
H566 H 0.06218 0.48384 0.78984 0.0
C567 C 0.95737 0.58978 0.79286 0.0
C568 C 0.97288 0.51502 0.80396 0.0
H569 H 0.0496 0.51495 0.81177 0.0
C570 C 0.95243 0.47952 0.7996 0.0
C571 C 0.00815 0.52784 0.80857 0.0
C572 C 0.03086 0.56546 0.81376 0.0
C573 C 0.9668 0.45676 0.79927 0.0
C574 C 0.00228 0.46971 0.80373 0.0
C575 C 0.02243 0.50506 0.80834 0.0
C576 C 0.01955 0.44754 0.80321 0.0
C577 C 0.94432 0.41955 0.79364 0.0
C578 C 0.00554 0.41542 0.81055 0.0
C579 C 0.0219 0.39461 0.80984 0.0
C580 C 0.05264 0.40569 0.80184 0.0
C581 C 0.06719 0.43837 0.79486 0.0
C582 C 0.05075 0.45903 0.7955 0.0
H583 H 0.92152 0.41688 0.78751 0.0
H584 H 0.96047 0.41199 0.7871 0.0
H585 H 0.93341 0.40038 0.80228 0.0
H586 H 0.98212 0.40656 0.8169 0.0
H587 H 0.01074 0.37014 0.81569 0.0
H588 H 0.35976 0.96856 0.11641 0.0
H589 H 0.42455 0.99574 0.1184 0.0
H590 H 0.41106 0.92959 0.15347 0.0
H591 H 0.34604 0.90305 0.15179 0.0
H592 H 0.46734 0.03015 0.1453 0.0
H593 H 0.47711 0.91647 0.12344 0.0
H594 H 0.44051 0.92367 0.11939 0.0
H595 H 0.44293 0.90715 0.13595 0.0
C596 C 0.37063 0.96045 0.12474 0.0
C597 C 0.34804 0.93467 0.13426 0.0
C598 C 0.40756 0.97567 0.12577 0.0
C599 C 0.42243 0.96477 0.13612 0.0
C600 C 0.39995 0.93833 0.14542 0.0
H601 H 0.64314 0.02077 0.14979 0.0
H602 H 0.57822 0.99346 0.151 0.0
C603 C 0.36296 0.92326 0.14446 0.0
C604 C 0.46155 0.98135 0.1372 0.0
H605 H 0.53049 0.96688 0.13045 0.0
C606 C 0.48125 0.01638 0.14211 0.0
C607 C 0.47936 0.9631 0.13309 0.0
C608 C 0.45911 0.92554 0.1276 0.0
C609 C 0.51856 0.03376 0.14305 0.0
C610 C 0.53659 0.01588 0.13858 0.0
C611 C 0.51669 0.98059 0.13385 0.0
C612 C 0.57606 0.03348 0.13841 0.0
C613 C 0.53816 0.07087 0.14901 0.0
C614 C 0.59645 0.06505 0.13094 0.0
C615 C 0.6335 0.08073 0.1303 0.0
C616 C 0.65076 0.06468 0.13684 0.0
C617 C 0.63043 0.03331 0.14443 0.0
C618 C 0.59339 0.0178 0.14517 0.0
H619 H 0.52062 0.07601 0.1558 0.0
H620 H 0.56183 0.07525 0.15498 0.0
H621 H 0.54728 0.09062 0.14056 0.0
H622 H 0.58365 0.07718 0.12536 0.0
H623 H 0.64855 0.10481 0.12432 0.0
H624 H 0.23511 0.23047 0.40368 0.0
H625 H 0.23607 0.25129 0.38045 0.0
H626 H 0.34678 0.2811 0.37669 0.0
H627 H 0.34474 0.25689 0.39968 0.0
H628 H 0.2671 0.30958 0.3676 0.0
H629 H 0.31152 0.22238 0.34342 0.0
H630 H 0.30029 0.2191 0.36132 0.0
H631 H 0.34301 0.25385 0.35534 0.0
C632 C 0.25962 0.24114 0.39786 0.0
C633 C 0.28965 0.24139 0.40343 0.0
C634 C 0.26027 0.25344 0.38458 0.0
C635 C 0.29123 0.26708 0.37653 0.0
C636 C 0.32213 0.2696 0.38242 0.0
H637 H 0.26303 0.34686 0.29584 0.0
H638 H 0.2875 0.34809 0.31872 0.0
C639 C 0.32119 0.25638 0.39568 0.0
C640 C 0.28999 0.27729 0.36194 0.0
H641 H 0.30121 0.25914 0.32878 0.0
C642 C 0.27468 0.2986 0.35911 0.0
C643 C 0.29974 0.26299 0.35077 0.0
C644 C 0.31424 0.23806 0.35282 0.0
C645 C 0.26703 0.30432 0.34563 0.0
C646 C 0.27663 0.28987 0.33446 0.0
C647 C 0.29381 0.27029 0.33727 0.0
C648 C 0.26543 0.29087 0.32001 0.0
C649 C 0.24664 0.32382 0.34364 0.0
C650 C 0.24687 0.25883 0.31263 0.0
C651 C 0.23423 0.25837 0.29943 0.0
C652 C 0.23898 0.28979 0.29328 0.0
C653 C 0.2587 0.32217 0.30036 0.0
C654 C 0.2722 0.32277 0.31354 0.0
H655 H 0.23346 0.32492 0.35325 0.0
H656 H 0.26535 0.35165 0.34044 0.0
H657 H 0.22589 0.31087 0.33561 0.0
H658 H 0.24142 0.2338 0.31719 0.0
H659 H 0.2202 0.23312 0.29409 0.0
H660 H 0.90518 0.25651 0.63092 0.0
H661 H 0.92881 0.28152 0.65373 0.0
H662 H 0.00626 0.24714 0.64999 0.0
H663 H 0.98501 0.22541 0.62701 0.0
H664 H 0.92932 0.25262 0.67618 0.0
H665 H 0.07055 0.34213 0.66449 0.0
H666 H 0.03766 0.32251 0.65109 0.0
H667 H 0.05864 0.29891 0.65808 0.0
C668 C 0.92794 0.25537 0.63486 0.0
C669 C 0.94323 0.23901 0.62717 0.0
C670 C 0.94127 0.26936 0.64795 0.0
C671 C 0.97 0.26705 0.65361 0.0
C672 C 0.98506 0.25063 0.64583 0.0
H673 H 0.0032 0.23363 0.73673 0.0
H674 H 0.98118 0.23419 0.71388 0.0
C675 C 0.97232 0.23744 0.63273 0.0
C676 C 0.98264 0.27897 0.66797 0.0
H677 H 0.05801 0.3171 0.68766 0.0
C678 C 0.95749 0.26738 0.67863 0.0
C679 C 0.01933 0.29931 0.67138 0.0
C680 C 0.04795 0.31675 0.6606 0.0
C681 C 0.96799 0.27328 0.69249 0.0
C682 C 0.0047 0.28973 0.69589 0.0
C683 C 0.02983 0.30362 0.68522 0.0
C684 C 0.01747 0.29038 0.71022 0.0
C685 C 0.93936 0.26175 0.70328 0.0
C686 C 0.0464 0.32139 0.71582 0.0
C687 C 0.06015 0.32068 0.7288 0.0
C688 C 0.04503 0.28903 0.73649 0.0
C689 C 0.01566 0.25839 0.73103 0.0
C690 C 0.00252 0.25888 0.71801 0.0
H691 H 0.9167 0.26449 0.69945 0.0
H692 H 0.92876 0.23317 0.70569 0.0
H693 H 0.9496 0.27761 0.71283 0.0
H694 H 0.05879 0.34605 0.71004 0.0
H695 H 0.08315 0.34456 0.73265 0.0
H696 H 0.71182 0.00682 0.0755 0.0
H697 H 0.69213 0.98467 0.05207 0.0
H698 H 0.76869 0.08769 0.03593 0.0
H699 H 0.78871 0.10953 0.05931 0.0
H700 H 0.6673 0.00545 0.02838 0.0
H701 H 0.80069 0.01998 0.02033 0.0
H702 H 0.78472 0.02311 0.03706 0.0
H703 H 0.80197 0.06038 0.02549 0.0
C704 C 0.72352 0.02497 0.06694 0.0
C705 C 0.75164 0.05986 0.06913 0.0
C706 C 0.71244 0.01228 0.05357 0.0
C707 C 0.72942 0.0343 0.04222 0.0
C708 C 0.7556 0.07003 0.04451 0.0
H709 H 0.74023 0.00193 0.95526 0.0
H710 H 0.74215 0.02648 0.97808 0.0
C711 C 0.76677 0.08263 0.05785 0.0
C712 C 0.72237 0.01915 0.02809 0.0
H713 H 0.76287 0.00374 1.001 0.0
C714 C 0.68814 0.00501 0.02239 0.0
C715 C 0.74945 0.01815 0.02031 0.0
C716 C 0.78618 0.03087 0.02612 0.0
C717 C 0.68064 0.99091 1.00897 0.0
C718 C 0.70796 0.99055 1.00114 0.0
C719 C 0.74199 0.0043 1.00694 0.0
C720 C 0.70236 0.97632 0.98687 0.0
C721 C 0.64381 0.97725 1.00317 0.0
C722 C 0.6788 0.94003 0.98408 0.0
C723 C 0.67757 0.92603 0.97096 0.0
C724 C 0.6999 0.94811 0.96049 0.0
C725 C 0.7224 0.98455 0.96314 0.0
C726 C 0.72362 0.99851 0.97619 0.0
H727 H 0.62848 0.98695 1.00912 0.0
H728 H 0.64519 0.98549 0.99231 0.0
H729 H 0.62902 0.94768 1.00353 0.0
H730 H 0.66268 0.9222 0.99219 0.0
H731 H 0.66056 0.89771 0.9692 0.0
H732 H 0.71086 0.71364 0.4093 0.0
H733 H 0.71396 0.69403 0.38591 0.0
H734 H 0.69438 0.77502 0.36942 0.0
H735 H 0.69205 0.79498 0.39274 0.0
H736 H 0.66991 0.67132 0.36216 0.0
H737 H 0.79241 0.80176 0.35401 0.0
H738 H 0.77262 0.78684 0.37071 0.0
H739 H 0.75461 0.80568 0.35891 0.0
C740 C 0.70627 0.72652 0.40065 0.0
C741 C 0.70123 0.75577 0.40275 0.0
C742 C 0.7082 0.71544 0.38731 0.0
C743 C 0.70517 0.73354 0.37589 0.0
C744 C 0.69751 0.76109 0.37805 0.0
H745 H 0.74017 0.74208 0.28881 0.0
H746 H 0.71984 0.74367 0.31208 0.0
C747 C 0.69581 0.77227 0.39136 0.0
C748 C 0.71285 0.72575 0.3618 0.0
H749 H 0.76841 0.76465 0.33448 0.0
C750 C 0.69153 0.69163 0.35612 0.0
C751 C 0.7414 0.75212 0.35396 0.0
C752 C 0.76682 0.78854 0.35973 0.0
C753 C 0.69724 0.68368 0.34265 0.0
C754 C 0.72513 0.71043 0.33472 0.0
C755 C 0.74681 0.74424 0.34051 0.0
C756 C 0.73215 0.70466 0.32025 0.0
C757 C 0.67291 0.6471 0.33684 0.0
C758 C 0.7451 0.68156 0.31699 0.0
C759 C 0.75665 0.68055 0.30361 0.0
C760 C 0.75534 0.70261 0.29336 0.0
C761 C 0.74094 0.72446 0.29651 0.0
C762 C 0.72951 0.7255 0.30981 0.0
H763 H 0.64888 0.63155 0.34331 0.0
H764 H 0.66435 0.64912 0.32631 0.0
H765 H 0.68754 0.63221 0.33621 0.0
H766 H 0.748 0.6657 0.32492 0.0
H767 H 0.76834 0.66406 0.30146 0.0
H768 H -0.00088 0.75651 0.62504 0.0
H769 H 0.97672 0.73406 0.64809 0.0
H770 H 0.07378 0.73362 0.65736 0.0
H771 H 0.09636 0.75637 0.63417 0.0
H772 H 0.96643 0.67215 0.66299 0.0
H773 H 0.06798 0.79964 0.68691 0.0
H774 H 0.05848 0.79569 0.66877 0.0
H775 H 0.08443 0.77779 0.67589 0.0
C776 C 0.01542 0.75109 0.63194 0.0
C777 C 0.04945 0.75818 0.62789 0.0
C778 C 0.00261 0.73826 0.6451 0.0
C779 C 0.02371 0.73257 0.65453 0.0
C780 C 0.0572 0.73823 0.65031 0.0
H781 H 0.98766 0.70459 0.74339 0.0
H782 H 0.01129 0.70533 0.72043 0.0
C783 C 0.06998 0.75093 0.63706 0.0
C784 C 0.0111 0.72265 0.66893 0.0
H785 H 0.02613 0.7558 0.70157 0.0
C786 C 0.97966 0.69026 0.67146 0.0
C787 C 0.02833 0.74628 0.67999 0.0
C788 C 0.06154 0.78194 0.67784 0.0
C789 C 0.96483 0.68105 0.6847 0.0
C790 C 0.98138 0.70524 0.69568 0.0
C791 C 0.0134 0.73716 0.6932 0.0
C792 C 0.96499 0.69934 0.7096 0.0
C793 C 0.93158 0.64542 0.68677 0.0
C794 C 0.93077 0.6949 0.71125 0.0
C795 C 0.91716 0.69408 0.72436 0.0
C796 C 0.93765 0.69815 0.73608 0.0
C797 C 0.97119 0.70101 0.7345 0.0
C798 C 0.98478 0.70172 0.72139 0.0
H799 H 0.92948 0.62575 0.67897 0.0
H800 H 0.93093 0.6345 0.69713 0.0
H801 H 0.90789 0.64866 0.68563 0.0
H802 H 0.91519 0.69379 0.70239 0.0
H803 H 0.89125 0.6919 0.72531 0.0
H804 H 0.2429 0.00327 0.95868 0.0
H805 H 0.24453 0.98206 0.98174 0.0
H806 H 0.34573 0.07695 0.98907 0.0
H807 H 0.34367 0.09866 0.9659 0.0
H808 H 0.29225 0.96757 0.99523 0.0
H809 H 0.28437 0.07845 0.02063 0.0
H810 H 0.27641 0.06949 1.00252 0.0
H811 H 0.32112 0.09136 1.00909 0.0
C812 C 0.26563 0.01949 0.96518 0.0
C813 C 0.29307 0.05268 0.96057 0.0
C814 C 0.2666 0.00731 0.97835 0.0
C815 C 0.29495 0.02809 0.98727 0.0
C816 C 0.32324 0.06069 0.98248 0.0
H817 H 0.29328 0.98806 0.07603 0.0
H818 H 0.31638 0.01096 0.05296 0.0
C819 C 0.32227 0.07293 0.96922 0.0
C820 C 0.2936 0.01578 1.00166 0.0
H821 H 0.2834 0.03437 0.03488 0.0
C822 C 0.29073 0.98239 1.00391 0.0
C823 C 0.29162 0.03505 1.01304 0.0
C824 C 0.29325 0.07045 1.01128 0.0
C825 C 0.28512 0.96744 0.01712 0.0
C826 C 0.28172 0.98607 0.02841 0.0
C827 C 0.28606 0.02009 0.02625 0.0
C828 C 0.27049 0.96959 0.04227 0.0
C829 C 0.28253 0.93162 0.01884 0.0
C830 C 0.23736 0.93839 0.04398 0.0
C831 C 0.2243 0.92533 0.0571 0.0
C832 C 0.244 0.94324 0.0688 0.0
C833 C 0.27784 0.9735 0.06715 0.0
C834 C 0.29088 0.98672 0.05398 0.0
H835 H 0.29701 0.92655 1.01054 0.0
H836 H 0.29345 0.92961 0.02888 0.0
H837 H 0.25413 0.9104 0.01831 0.0
H838 H 0.22071 0.92508 0.03518 0.0
H839 H 0.19795 0.90221 0.05813 0.0
H840 H 0.10891 0.09534 0.26919 0.0
H841 H 0.0572 0.04528 0.27991 0.0
H842 H 0.01611 0.11439 0.29089 0.0
H843 H 0.06724 0.16443 0.27973 0.0
H844 H 0.0215 0.02802 0.30543 0.0
H845 H 0.94213 0.04522 0.26408 0.0
H846 H 0.99011 0.0697 0.26391 0.0
H847 H 0.96605 0.08151 0.2758 0.0
C848 C 0.08915 0.09999 0.27407 0.0
C849 C 0.09149 0.13342 0.27331 0.0
C850 C 0.05976 0.07147 0.28028 0.0
C851 C 0.03257 0.07608 0.28595 0.0
C852 C 0.03648 0.1102 0.28631 0.0
H853 H 0.83043 0.88043 0.27823 0.0
H854 H 0.86784 0.93781 0.28953 0.0
C855 C 0.0656 0.13864 0.2799 0.0
C856 C -0.00168 0.04416 0.28941 0.0
H857 H 0.91677 0.99082 0.27518 0.0
C858 C -0.00186 0.02014 0.2991 0.0
C859 C 0.96766 0.03422 0.2813 0.0
C860 C 0.96628 0.05882 0.27064 0.0
C861 C 0.96939 0.98519 0.29994 0.0
C862 C 0.94066 0.97411 0.29069 0.0
C863 C 0.93901 -0.00066 0.28219 0.0
C864 C 0.91667 0.93615 0.28733 0.0
C865 C 0.97104 0.95992 0.31014 0.0
C866 C 0.93162 0.91593 0.28258 0.0
C867 C 0.91046 0.88338 0.27607 0.0
C868 C 0.87397 0.8706 0.27406 0.0
C869 C 0.85858 0.88982 0.27951 0.0
C870 C 0.87982 0.92242 0.28608 0.0
H871 H 0.9844 0.97422 0.31973 0.0
H872 H 0.94407 0.93757 0.31269 0.0
H873 H 0.98708 0.9488 0.30578 0.0
H874 H 0.96012 0.92639 0.28303 0.0
H875 H 0.92307 0.86908 0.27207 0.0
H876 H 0.92694 0.0646 0.60496 0.0
H877 H 0.94754 0.02781 0.61591 0.0
H878 H 0.04843 0.12154 0.62498 0.0
H879 H 0.02816 0.15868 0.61373 0.0
H880 H 0.0564 0.07546 0.61009 0.0
H881 H 0.9678 0.00092 0.6528 0.0
H882 H 0.94121 -0.00117 0.6384 0.0
H883 H 0.9709 0.04137 0.6462 0.0
C884 C 0.95323 0.07752 0.60954 0.0
C885 C 0.97619 0.11441 0.60825 0.0
C886 C 0.96479 0.05649 0.61602 0.0
C887 C -0.00065 0.07198 0.62148 0.0
C888 C 0.02154 0.10912 0.62097 0.0
H889 H 0.08678 0.92923 0.61439 0.0
H890 H 0.08424 0.97851 0.62557 0.0
C891 C 0.01002 0.13022 0.61443 0.0
C892 C 0.01417 0.04873 0.62482 0.0
H893 H 0.98876 0.96724 0.63863 0.0
C894 C 0.04257 0.05243 0.61674 0.0
C895 C 0.99634 0.01897 0.63359 0.0
C896 C 0.96763 0.01508 0.64334 0.0
C897 C 0.05047 0.02491 0.61578 0.0
C898 C 0.02981 0.99327 0.62338 0.0
C899 C 0.00422 0.99136 0.63269 0.0
C900 C 0.0296 0.96012 0.61973 0.0
C901 C 0.07825 0.02852 0.60554 0.0
C902 C -0.00096 0.93246 0.6135 0.0
C903 C 0.00025 0.90414 0.60727 0.0
C904 C 0.03218 0.90332 0.60706 0.0
C905 C 0.06204 0.92971 0.61414 0.0
C906 C 0.06063 0.95776 0.62057 0.0
H907 H 0.08858 0.05313 0.59926 0.0
H908 H 0.1011 0.02948 0.61105 0.0
H909 H 0.06703 0.00524 0.5985 0.0
H910 H 0.97481 0.93384 0.61276 0.0
H911 H 0.97677 0.88399 0.602 0.0
H912 H 0.13199 0.06659 0.93788 0.0
H913 H 0.07526 0.04817 0.94899 0.0
H914 H 0.06401 0.94556 0.95813 0.0
H915 H 0.12073 0.96361 0.94666 0.0
H916 H 0.01024 0.93909 0.94378 0.0
H917 H 0.02978 0.03089 0.986 0.0
H918 H 0.05399 0.05654 0.97137 0.0
H919 H 0.06599 0.0262 0.97916 0.0
C920 C 0.11786 0.04036 0.94249 0.0
C921 C 0.13045 0.0163 0.94117 0.0
C922 C 0.08564 0.03005 0.94908 0.0
C923 C 0.06564 0.99568 0.95463 0.0
C924 C 0.07923 0.97233 0.95405 0.0
H925 H 0.83643 0.91467 0.94912 0.0
H926 H 0.88794 0.91658 0.96027 0.0
C927 C 0.11145 0.98258 0.94738 0.0
C928 C 0.02793 0.98233 0.9582 0.0
H929 H 0.9748 0.01129 0.97212 0.0
C930 C 0.00216 0.95393 0.95039 0.0
C931 C 0.01743 0.00147 0.96693 0.0
C932 C 0.04336 0.03021 0.97644 0.0
C933 C 0.96712 0.94723 0.94965 0.0
C934 C 0.95762 0.96916 0.95719 0.0
C935 C 0.98233 0.99485 0.96622 0.0
C936 C 0.92512 0.97036 0.95371 0.0
C937 C 0.94176 0.91927 0.9397 0.0
C938 C 0.9287 0.00077 0.94712 0.0
C939 C 0.89936 -6e-05 0.94089 0.0
C940 C 0.86612 0.96852 0.94106 0.0
C941 C 0.86201 0.93899 0.94858 0.0
C942 C 0.8913 0.94004 0.95499 0.0
H943 H 0.95496 0.90777 0.93344 0.0
H944 H 0.91969 0.8972 0.94546 0.0
H945 H 0.93006 0.9308 0.93265 0.0
H946 H 0.95466 0.02445 0.94604 0.0
H947 H 0.90319 0.02317 0.93528 0.0
H948 H 0.84316 0.90186 0.4105 0.0
H949 H 0.8962 0.94262 0.39731 0.0
H950 H 0.96143 0.92397 0.42587 0.0
H951 H 0.90851 0.88131 0.43817 0.0
H952 H 0.94441 0.0011 0.40313 0.0
H953 H 0.01559 0.93013 0.3935 0.0
H954 H 0.96936 0.90612 0.39859 0.0
H955 H 0.00461 0.92178 0.41126 0.0
C956 C 0.86888 0.90598 0.41369 0.0
C957 C 0.87198 0.88862 0.42532 0.0
C958 C 0.89914 0.92914 0.40614 0.0
C959 C 0.93302 0.93595 0.41032 0.0
C960 C 0.93574 0.91812 0.42192 0.0
H961 H 0.09009 0.1151 0.43712 0.0
H962 H 0.03722 0.07191 0.4249 0.0
C963 C 0.90547 0.89414 0.42915 0.0
C964 C 0.96597 0.96562 0.40426 0.0
H965 H 0.05419 0.9926 0.4037 0.0
C966 C 0.96827 -0.00104 0.40272 0.0
C967 C 0.99721 0.96335 0.40267 0.0
C968 C 0.99625 0.92818 0.40141 0.0
C969 C 0.00143 0.0303 0.40213 0.0
C970 C 0.03267 0.02818 0.40404 0.0
C971 C 0.03036 0.99472 0.40303 0.0
C972 C 0.06562 0.05832 0.40991 0.0
C973 C 0.00238 0.06533 0.40028 0.0
C974 C 0.09948 0.06452 0.40601 0.0
C975 C 0.12965 0.08795 0.41355 0.0
C976 C 0.12652 0.10625 0.42486 0.0
C977 C 0.09312 0.10149 0.42835 0.0
C978 C 0.0629 0.07721 0.42115 0.0
H979 H 0.98314 0.0627 0.39221 0.0
H980 H 0.99389 0.07252 0.40992 0.0
H981 H 0.02931 0.08716 0.39737 0.0
H982 H 0.10244 0.05028 0.39745 0.0
H983 H 0.15533 0.0915 0.41062 0.0
H984 H 0.93432 0.86521 0.75743 0.0
H985 H 0.95461 0.92264 0.74659 0.0
H986 H 0.05703 0.9323 0.73867 0.0
H987 H 0.03705 0.8748 0.74984 0.0
H988 H 0.06306 0.98562 0.75341 0.0
H989 H 0.9763 0.97074 0.70995 0.0
H990 H 0.94897 0.94549 0.72408 0.0
H991 H 0.97975 0.93364 0.71663 0.0
C992 C 0.96091 0.87913 0.75313 0.0
C993 C 0.98433 0.86585 0.75473 0.0
C994 C 0.97231 0.91176 0.7467 0.0
C995 C 0.00717 0.93154 0.7416 0.0
C996 C 0.0299 0.91726 0.7424 0.0
H997 H 0.08891 0.16062 0.74968 0.0
H998 H 0.08834 0.10997 0.73829 0.0
C999 C 0.01853 0.88458 0.7489 0.0
C1000 C 0.02149 0.96962 0.73835 0.0
H1001 H 0.99486 0.02463 0.72444 0.0
C1002 C 0.04916 0.99452 0.74667 0.0
C1003 C 0.00359 0.98118 0.72945 0.0
C1004 C 0.97577 0.95626 0.71943 0.0
C1005 C 0.05609 0.02961 0.74775 0.0
C1006 C 0.03519 0.04008 0.74003 0.0
C1007 C 0.01047 0.01635 0.73048 0.0
C1008 C 0.03378 0.07234 0.74376 0.0
C1009 C 0.08302 0.0539 0.75823 0.0
C1010 C 0.00261 0.06829 0.74984 0.0
C1011 C 0.00269 0.09715 0.75619 0.0
C1012 C 0.0341 0.13037 0.75667 0.0
C1013 C 0.06455 0.13501 0.74972 0.0
C1014 C 0.06427 0.10622 0.74318 0.0
H1015 H 0.09368 0.03995 0.76452 0.0
H1016 H 0.10577 0.07641 0.75291 0.0
H1017 H 0.07089 0.06509 0.76523 0.0
H1018 H 0.97878 0.04229 0.75039 0.0
H1019 H 0.97877 0.09294 0.76136 0.0
H1020 H 0.86765 0.96654 0.09765 0.0
H1021 H 0.91445 0.95997 0.08669 0.0
H1022 H 0.94462 0.05447 0.06255 0.0
H1023 H 0.8994 0.06268 0.07445 0.0
H1024 H 0.93852 0.95394 0.06252 0.0
H1025 H 0.03328 0.08881 0.08373 0.0
H1026 H 0.98648 0.06772 0.0875 0.0
H1027 H 0.00268 0.08537 0.07065 0.0
C1028 C 0.88396 0.98561 0.08987 0.0
C1029 C 0.88083 0.01563 0.08715 0.0
C1030 C 0.91054 0.98173 0.0835 0.0
C1031 C 0.93384 0.00738 0.07407 0.0
C1032 C 0.9279 0.03515 0.07016 0.0
H1033 H 0.1063 0.95653 0.0785 0.0
H1034 H 0.06983 0.9736 0.06476 0.0
C1035 C 0.90205 0.03974 0.07692 0.0
C1036 C 0.96705 0.00747 0.07046 0.0
H1037 H 0.05349 0.04901 0.08114 0.0
C1038 C 0.96408 0.97515 0.06613 0.0
C1039 C 0.00063 0.03559 0.07487 0.0
C1040 C 0.00619 0.07132 0.07948 0.0
C1041 C 0.99191 0.96806 0.06833 0.0
C1042 C 0.02357 0.99451 0.07455 0.0
C1043 C 0.02869 0.02874 0.07661 0.0
C1044 C 0.04671 0.98495 0.08232 0.0
C1045 C 0.98574 0.93114 0.06556 0.0
C1046 C 0.04587 0.98607 0.09669 0.0
C1047 C 0.06664 0.97663 0.10454 0.0
C1048 C 0.08855 0.96574 0.09815 0.0
C1049 C 0.08944 0.96464 0.08372 0.0
C1050 C 0.06868 0.97432 0.07584 0.0
H1051 H 0.95937 0.91352 0.06077 0.0
H1052 H 0.00679 0.93279 0.05862 0.0
H1053 H 0.98736 0.91874 0.0753 0.0
H1054 H 0.02882 0.99405 0.10186 0.0
H1055 H 0.06537 0.97776 0.1156 0.0
H1056 H 0.93148 0.15567 0.12697 0.0
H1057 H 0.97916 0.1898 0.14345 0.0
H1058 H 0.90206 0.18507 0.17249 0.0
H1059 H 0.85399 0.151 0.156 0.0
H1060 H -0.00133 0.25745 0.16011 0.0
H1061 H 0.95441 0.13335 0.19037 0.0
H1062 H 0.94232 0.13247 0.1726 0.0
H1063 H 0.92099 0.14443 0.18562 0.0
C1064 C 0.9246 0.16244 0.13675 0.0
C1065 C 0.88872 0.15036 0.14014 0.0
C1066 C 0.952 0.18203 0.14617 0.0
C1067 C 0.94421 0.18973 0.15926 0.0
C1068 C 0.90869 0.17929 0.16247 0.0
H1069 H 0.07044 0.24915 0.23396 0.0
H1070 H 0.02386 0.2353 0.217 0.0
C1071 C 0.88123 0.15995 0.15299 0.0
C1072 C 0.97284 0.20601 0.16984 0.0
H1073 H 0.00373 0.18549 0.19864 0.0
C1074 C -0.00024 0.24185 0.16859 0.0
C1075 C 0.97432 0.18562 0.18087 0.0
C1076 C 0.94669 0.14676 0.1825 0.0
C1077 C 0.02782 0.25795 0.17819 0.0
C1078 C 0.02961 0.23737 0.18915 0.0
C1079 C 0.00251 0.2015 0.19034 0.0
C1080 C 0.05922 0.25184 0.19949 0.0
C1081 C 0.05478 0.297 0.17663 0.0
C1082 C 0.09515 0.2671 0.19547 0.0
C1083 C 0.12212 0.27584 0.20526 0.0
C1084 C 0.11362 0.26876 0.21925 0.0
C1085 C 0.07795 0.25507 0.22328 0.0
C1086 C 0.05119 0.2469 0.21356 0.0
H1087 H 0.04362 0.31118 0.17079 0.0
H1088 H 0.06409 0.31016 0.18676 0.0
H1089 H 0.07813 0.29985 0.17087 0.0
H1090 H 0.10221 0.27047 0.18471 0.0
H1091 H 0.14919 0.28567 0.20178 0.0
H1092 H 0.85222 0.14471 0.5375 0.0
H1093 H 0.81952 0.09757 0.52061 0.0
H1094 H 0.78752 0.01833 0.55246 0.0
H1095 H 0.8213 0.0652 0.56922 0.0
H1096 H 0.81549 0.00158 0.53242 0.0
H1097 H 0.71873 0.03418 0.50933 0.0
H1098 H 0.76347 0.07089 0.50837 0.0
H1099 H 0.74273 0.05519 0.52485 0.0
C1100 C 0.83729 0.11733 0.54097 0.0
C1101 C 0.83936 0.10879 0.55473 0.0
C1102 C 0.81847 0.09026 0.53128 0.0
C1103 C 0.80064 0.05412 0.53519 0.0
C1104 C 0.80101 0.04585 0.5491 0.0
H1105 H 0.69918 0.85139 0.48996 0.0
H1106 H 0.71158 0.89796 0.50697 0.0
C1107 C 0.82023 0.07276 0.55872 0.0
C1108 C 0.78506 0.02483 0.52473 0.0
H1109 H 0.72947 0.99253 0.4969 0.0
C1110 C 0.79628 -0.00055 0.52481 0.0
C1111 C 0.76008 0.02184 0.51466 0.0
C1112 C 0.74527 0.04677 0.51436 0.0
C1113 C 0.78394 0.9719 0.51505 0.0
C1114 C 0.7596 0.96937 0.50485 0.0
C1115 C 0.7481 0.99447 0.50474 0.0
C1116 C 0.74742 0.94166 0.49393 0.0
C1117 C 0.79769 0.94606 0.51545 0.0
C1118 C 0.76247 0.95083 0.48079 0.0
C1119 C 0.7556 0.9243 0.47108 0.0
C1120 C 0.73323 0.88795 0.47423 0.0
C1121 C 0.71632 0.87903 0.48712 0.0
C1122 C 0.72352 0.90563 0.49689 0.0
H1123 H 0.81953 0.95401 0.52303 0.0
H1124 H 0.77561 0.91917 0.51824 0.0
H1125 H 0.80759 0.94405 0.50518 0.0
H1126 H 0.78099 0.97842 0.47828 0.0
H1127 H 0.76906 0.93224 0.46127 0.0
H1128 H 0.84308 0.70111 0.82331 0.0
H1129 H 0.80915 0.71445 0.8401 0.0
H1130 H 0.80691 0.79025 0.8121 0.0
H1131 H 0.84077 0.77736 0.79541 0.0
H1132 H 0.83428 0.81914 0.83749 0.0
H1133 H 0.70541 0.69307 0.84335 0.0
H1134 H 0.74445 0.68884 0.84498 0.0
H1135 H 0.73445 0.70169 0.82881 0.0
C1136 C 0.83453 0.7199 0.82058 0.0
C1137 C 0.8449 0.73823 0.80799 0.0
C1138 C 0.81506 0.7275 0.8302 0.0
C1139 C 0.80531 0.75334 0.82738 0.0
C1140 C 0.81408 0.77025 0.81455 0.0
H1141 H 0.69519 0.84245 0.8741 0.0
H1142 H 0.7098 0.81017 0.85693 0.0
C1143 C 0.83348 0.76276 0.80499 0.0
C1144 C 0.78947 0.76572 0.83817 0.0
H1145 H 0.71737 0.73948 0.85928 0.0
C1146 C 0.80864 0.80168 0.84219 0.0
C1147 C 0.75593 0.74307 0.84431 0.0
C1148 C 0.73362 0.70457 0.8401 0.0
C1149 C 0.79554 0.81543 0.85223 0.0
C1150 C 0.76237 0.79271 0.85854 0.0
C1151 C 0.74284 0.75684 0.85445 0.0
C1152 C 0.74857 0.80621 0.86963 0.0
C1153 C 0.81732 0.85431 0.85608 0.0
C1154 C 0.76451 0.81351 0.88262 0.0
C1155 C 0.75621 0.83179 0.89243 0.0
C1156 C 0.73176 0.84336 0.88949 0.0
C1157 C 0.71397 0.83385 0.87677 0.0
C1158 C 0.72237 0.81547 0.86692 0.0
H1159 H 0.83963 0.86954 0.84881 0.0
H1160 H 0.80024 0.86667 0.85637 0.0
H1161 H 0.82867 0.85665 0.86648 0.0
H1162 H 0.7847 0.80653 0.88495 0.0
H1163 H 0.77035 0.83841 0.90211 0.0
H1164 H 0.07154 0.86455 0.13335 0.0
H1165 H 0.02633 0.83125 0.1504 0.0
H1166 H 0.09122 0.79067 0.16712 0.0
H1167 H 0.1381 0.826 0.15035 0.0
H1168 H 0.98511 0.76608 0.15689 0.0
H1169 H 0.07541 0.83032 0.2012 0.0
H1170 H 0.08911 0.84463 0.18382 0.0
H1171 H 0.08827 0.80531 0.19032 0.0
C1172 C 0.07639 0.84842 0.14055 0.0
C1173 C 0.10892 0.84844 0.14049 0.0
C1174 C 0.05023 0.82919 0.15036 0.0
C1175 C 0.05538 0.80892 0.16037 0.0
C1176 C 0.08688 0.80699 0.15985 0.0
H1177 H 0.86463 0.6907 0.2141 0.0
H1178 H 0.91186 0.70089 0.19772 0.0
C1179 C 0.11357 0.82687 0.15012 0.0
C1180 C 0.02799 0.7913 0.17145 0.0
H1181 H 0.01571 0.78933 0.20617 0.0
C1182 C 0.99187 0.77101 0.16768 0.0
C1183 C 0.03654 0.79776 0.18559 0.0
C1184 C 0.07436 0.82093 0.19051 0.0
C1185 C 0.96424 0.75868 0.17744 0.0
C1186 C 0.97279 0.76534 0.19157 0.0
C1187 C 0.00895 0.78404 0.19539 0.0
C1188 C 0.94509 0.75708 0.20239 0.0
C1189 C 0.92626 0.74066 0.17237 0.0
C1190 C 0.94865 0.78448 0.21111 0.0
C1191 C 0.92232 0.77844 0.22072 0.0
C1192 C 0.8912 0.74485 0.22186 0.0
C1193 C 0.88804 0.71696 0.21346 0.0
C1194 C 0.91493 0.72291 0.20396 0.0
H1195 H 0.92475 0.7457 0.16129 0.0
H1196 H 0.91385 0.71143 0.17379 0.0
H1197 H 0.91038 0.74998 0.17814 0.0
H1198 H 0.97148 0.81108 0.21023 0.0
H1199 H 0.9259 0.80073 0.22694 0.0
H1200 H 0.16744 0.93293 0.56835 0.0
H1201 H 0.20059 0.97807 0.55089 0.0
H1202 H 0.18013 0.89543 0.52164 0.0
H1203 H 0.14696 0.84987 0.53912 0.0
H1204 H 0.26128 0.99051 0.53132 0.0
H1205 H 0.13125 0.95366 0.50684 0.0
H1206 H 0.13439 0.94236 0.5244 0.0
H1207 H 0.14016 0.91821 0.51065 0.0
C1208 C 0.17066 0.92426 0.5583 0.0
C1209 C 0.15432 0.88765 0.55515 0.0
C1210 C 0.18968 0.95018 0.54832 0.0
C1211 C 0.19254 0.94018 0.53492 0.0
C1212 C 0.17811 0.90376 0.53191 0.0
H1213 H 0.23837 0.06514 0.46003 0.0
H1214 H 0.22591 0.01769 0.47641 0.0
C1215 C 0.15934 0.87773 0.54195 0.0
C1216 C 0.20753 0.96767 0.52389 0.0
H1217 H 0.1825 0.00044 0.4969 0.0
C1218 C 0.24417 0.9926 0.52371 0.0
C1219 C 0.18519 0.97046 0.514 0.0
C1220 C 0.1455 0.94498 0.51393 0.0
C1221 C 0.25909 0.02005 0.51383 0.0
C1222 C 0.23659 0.02333 0.50408 0.0
C1223 C 0.19995 0.99808 0.50426 0.0
C1224 C 0.24979 0.05292 0.49377 0.0
C1225 C 0.29888 0.04478 0.51381 0.0
C1226 C 0.26854 0.08895 0.49784 0.0
C1227 C 0.27641 0.11634 0.48836 0.0
C1228 C 0.26499 0.10827 0.47465 0.0
C1229 C 0.24762 0.07235 0.47049 0.0
C1230 C 0.2403 0.04511 0.47989 0.0
H1231 H 0.31299 0.03189 0.51848 0.0
H1232 H 0.3092 0.05343 0.50326 0.0
H1233 H 0.30535 0.06876 0.52 0.0
H1234 H 0.27545 0.09592 0.5085 0.0
H1235 H 0.28925 0.14363 0.49198 0.0
H1236 H 0.22773 0.16414 0.90186 0.0
H1237 H 0.21548 0.19806 0.88483 0.0
H1238 H 0.28264 0.1847 0.85573 0.0
H1239 H 0.2953 0.15079 0.87277 0.0
H1240 H 0.2639 0.26206 0.86664 0.0
H1241 H 0.17705 0.13438 0.83935 0.0
H1242 H 0.18992 0.13568 0.85704 0.0
H1243 H 0.22154 0.14446 0.84362 0.0
C1244 C 0.24061 0.16905 0.89194 0.0
C1245 C 0.26242 0.15451 0.88869 0.0
C1246 C 0.23355 0.18852 0.88221 0.0
C1247 C 0.24781 0.19363 0.86896 0.0
C1248 C 0.2712 0.18093 0.86588 0.0
H1249 H 0.17383 0.24509 0.79408 0.0
H1250 H 0.20823 0.23245 0.81068 0.0
C1251 C 0.27859 0.16172 0.87567 0.0
C1252 C 0.23551 0.20924 0.8581 0.0
H1253 H 0.18067 0.18605 0.83021 0.0
C1254 C 0.2459 0.24557 0.8586 0.0
C1255 C 0.21193 0.1877 0.84764 0.0
C1256 C 0.19913 0.14832 0.84683 0.0
C1257 C 0.2336 0.26099 0.84883 0.0
C1258 C 0.20938 0.23925 0.8385 0.0
C1259 C 0.19928 0.20293 0.83802 0.0
C1260 C 0.19342 0.25292 0.8282 0.0
C1261 C 0.24724 0.30051 0.84956 0.0
C1262 C 0.17445 0.26992 0.8323 0.0
C1263 C 0.15527 0.27794 0.8227 0.0
C1264 C 0.154 0.26839 0.80884 0.0
C1265 C 0.1743 0.2529 0.80467 0.0
C1266 C 0.19386 0.24545 0.8142 0.0
H1267 H 0.27356 0.3148 0.85476 0.0
H1268 H 0.24983 0.31213 0.8392 0.0
H1269 H 0.2283 0.30522 0.85561 0.0
H1270 H 0.17278 0.27525 0.84303 0.0
H1271 H 0.13942 0.28925 0.8263 0.0
H1272 H 0.26853 0.23928 0.21884 0.0
H1273 H 0.28079 0.20235 0.20332 0.0
H1274 H 0.17336 0.11547 0.20883 0.0
H1275 H 0.16126 0.15177 0.22465 0.0
H1276 H 0.21993 0.09178 0.20807 0.0
H1277 H 0.2456 0.18378 0.16436 0.0
H1278 H 0.27473 0.20376 0.17875 0.0
H1279 H 0.2279 0.18829 0.18047 0.0
C1280 C 0.24759 0.21224 0.21681 0.0
C1281 C 0.21375 0.19867 0.22284 0.0
C1282 C 0.2546 0.19121 0.20788 0.0
C1283 C 0.22772 0.15644 0.20461 0.0
C1284 C 0.19447 0.1423 0.21112 0.0
H1285 H 0.18431 0.02785 0.13396 0.0
H1286 H 0.19402 0.07166 0.15152 0.0
C1287 C 0.18758 0.16312 0.22017 0.0
C1288 C 0.23339 0.13504 0.19405 0.0
H1289 H 0.25026 0.13291 0.15995 0.0
C1290 C 0.22685 0.10085 0.19756 0.0
C1291 C 0.24214 0.14683 0.18031 0.0
C1292 C 0.2477 0.18251 0.17567 0.0
C1293 C 0.22769 0.0777 0.18767 0.0
C1294 C 0.23629 0.08946 0.17392 0.0
C1295 C 0.24398 0.12407 0.17051 0.0
C1296 C 0.2335 0.06504 0.16267 0.0
C1297 C 0.21748 0.04027 0.1919 0.0
C1298 C 0.2533 0.04743 0.16281 0.0
C1299 C 0.24753 0.0219 0.15279 0.0
C1300 C 0.22218 0.01389 0.14236 0.0
C1301 C 0.20394 0.03312 0.14185 0.0
C1302 C 0.20949 0.0583 0.1519 0.0
H1303 H 0.20408 0.03314 0.20206 0.0
H1304 H 0.19941 0.02055 0.18424 0.0
H1305 H 0.24185 0.03807 0.19263 0.0
H1306 H 0.27265 0.05286 0.17082 0.0
H1307 H 0.26219 0.00777 0.15347 0.0
H1308 H 0.01316 0.26402 0.54646 0.0
H1309 H 0.06125 0.27519 0.53048 0.0
H1310 H 0.05826 0.17906 0.54416 0.0
H1311 H 0.01118 0.16827 0.56037 0.0
H1312 H 0.12581 0.2325 0.54056 0.0
H1313 H 0.04402 0.22115 0.49489 0.0
H1314 H 0.05069 0.25556 0.5068 0.0
H1315 H 0.02537 0.20957 0.51189 0.0
C1316 C 0.02296 0.24543 0.54615 0.0
C1317 C 0.00801 0.21504 0.55461 0.0
C1318 C 0.05031 0.25174 0.53694 0.0
C1319 C 0.06283 0.22754 0.5359 0.0
C1320 C 0.04893 0.19803 0.54472 0.0
H1321 H 0.15184 0.16688 0.47117 0.0
H1322 H 0.11599 0.1779 0.48752 0.0
C1323 C 0.0219 0.19187 0.55399 0.0
C1324 C 0.08947 0.23182 0.52537 0.0
H1325 H 0.10179 0.23129 0.4908 0.0
C1326 C 0.12077 0.23259 0.52967 0.0
C1327 C 0.08265 0.2316 0.51117 0.0
C1328 C 0.04876 0.22912 0.50585 0.0
C1329 C 0.14483 0.23192 0.52019 0.0
C1330 C 0.13787 0.23144 0.50599 0.0
C1331 C 0.10719 0.2319 0.50169 0.0
C1332 C 0.16003 0.22677 0.49548 0.0
C1333 C 0.17644 0.22983 0.52552 0.0
C1334 C 0.19669 0.25104 0.49425 0.0
C1335 C 0.21749 0.24459 0.48497 0.0
C1336 C 0.20186 0.214 0.47661 0.0
C1337 C 0.16486 0.19065 0.47746 0.0
C1338 C 0.14424 0.19694 0.4868 0.0
H1339 H 0.17348 0.22235 0.53653 0.0
H1340 H 0.18024 0.21008 0.5196 0.0
H1341 H 0.20085 0.25627 0.5244 0.0
H1342 H 0.20932 0.27472 0.5006 0.0
H1343 H 0.24583 0.26332 0.48448 0.0
H1344 H 0.98317 0.1496 0.8037 0.0
H1345 H 0.93588 0.11342 0.81988 0.0
H1346 H 0.92843 0.20553 0.83153 0.0
H1347 H 0.97662 0.2423 0.81561 0.0
H1348 H 0.93165 0.17164 0.85352 0.0
H1349 H 0.83021 0.07219 0.81871 0.0
H1350 H 0.87212 0.074 0.8165 0.0
H1351 H 0.86822 0.11251 0.81247 0.0
C1352 C 0.97117 0.16215 0.80954 0.0
C1353 C 0.98378 0.19892 0.80835 0.0
C1354 C 0.94388 0.1413 0.81874 0.0
C1355 C 0.92811 0.15656 0.82678 0.0
C1356 C 0.94005 0.19311 0.82539 0.0
H1357 H 0.74783 0.01046 0.87845 0.0
H1358 H 0.78388 0.05733 0.86197 0.0
C1359 C 0.9676 0.21408 0.81627 0.0
C1360 C 0.90125 0.13492 0.83738 0.0
H1361 H 0.82534 0.05511 0.84253 0.0
C1362 C 0.9081 0.14641 0.85108 0.0
C1363 C 0.87009 0.10233 0.83422 0.0
C1364 C 0.85952 0.08976 0.81965 0.0
C1365 C 0.8857 0.12539 0.86175 0.0
C1366 C 0.85617 0.09148 0.85869 0.0
C1367 C 0.84826 0.08085 0.84493 0.0
C1368 C 0.83442 0.06573 0.86958 0.0
C1369 C 0.89406 0.13974 0.87619 0.0
C1370 C 0.85076 0.055 0.87943 0.0
C1371 C 0.83027 0.02851 0.88896 0.0
C1372 C 0.79283 0.01166 0.88873 0.0
C1373 C 0.77653 0.02291 0.879 0.0
C1374 C 0.79712 0.04965 0.86953 0.0
H1375 H 0.90847 0.16936 0.87626 0.0
H1376 H 0.86949 0.12983 0.88244 0.0
H1377 H 0.91161 0.13114 0.88111 0.0
H1378 H 0.87939 0.06624 0.87947 0.0
H1379 H 0.84381 0.02043 0.89621 0.0
H1380 H 0.74416 0.74678 0.2059 0.0
H1381 H 0.73504 0.78276 0.18869 0.0
H1382 H 0.78594 0.87429 0.21533 0.0
H1383 H 0.79562 0.83893 0.23244 0.0
H1384 H 0.70331 0.82852 0.18859 0.0
H1385 H 0.84978 0.90247 0.18067 0.0
H1386 H 0.82725 0.86091 0.18995 0.0
H1387 H 0.83634 0.9018 0.19814 0.0
C1388 C 0.7528 0.77439 0.2082 0.0
C1389 C 0.7712 0.79014 0.22044 0.0
C1390 C 0.74754 0.79489 0.19836 0.0
C1391 C 0.76048 0.83133 0.20064 0.0
C1392 C 0.77635 0.84636 0.21327 0.0
H1393 H 0.74224 0.99245 0.15454 0.0
H1394 H 0.73216 0.94455 0.17039 0.0
C1395 C 0.78181 0.82605 0.22305 0.0
C1396 C 0.76053 0.85453 0.18945 0.0
H1397 H 0.81692 0.92544 0.16964 0.0
C1398 C 0.72808 0.84963 0.18437 0.0
C1399 C 0.79289 0.88161 0.18381 0.0
C1400 C 0.82857 0.88691 0.18831 0.0
C1401 C 0.72722 0.87185 0.17402 0.0
C1402 C 0.75968 0.89987 0.16879 0.0
C1403 C 0.79202 0.9041 0.17369 0.0
C1404 C 0.76129 0.9256 0.15833 0.0
C1405 C 0.69163 0.86487 0.16869 0.0
C1406 C 0.78094 0.93094 0.14625 0.0
C1407 C 0.7872 0.95861 0.13729 0.0
C1408 C 0.7739 0.9816 0.14019 0.0
C1409 C 0.75278 0.97518 0.15196 0.0
C1410 C 0.74676 0.94761 0.16101 0.0
H1411 H 0.67035 0.83696 0.17068 0.0
H1412 H 0.68414 0.88283 0.17399 0.0
H1413 H 0.69277 0.8701 0.15751 0.0
H1414 H 0.79245 0.91434 0.14398 0.0
H1415 H 0.80339 0.9626 0.12828 0.0
H1416 H 0.8438 0.82268 0.46977 0.0
H1417 H 0.87881 0.81171 0.48649 0.0
H1418 H 0.78293 0.72296 0.50279 0.0
H1419 H 0.74734 0.73442 0.48626 0.0
H1420 H 0.82381 0.76553 0.52285 0.0
H1421 H 0.9083 0.73774 0.4886 0.0
H1422 H 0.91112 0.7792 0.48415 0.0
H1423 H 0.86921 0.73822 0.48252 0.0
C1424 C 0.83003 0.80046 0.47675 0.0
C1425 C 0.79263 0.77939 0.47661 0.0
C1426 C 0.85022 0.79405 0.48627 0.0
C1427 C 0.83363 0.76609 0.49576 0.0
C1428 C 0.79635 0.74453 0.4955 0.0
H1429 H 0.97843 0.73362 0.54891 0.0
H1430 H 0.92951 0.721 0.53323 0.0
C1431 C 0.77604 0.75107 0.48601 0.0
C1432 C 0.85517 0.76146 0.50655 0.0
H1433 H 0.93138 0.75806 0.51144 0.0
C1434 C 0.84699 0.76326 0.52036 0.0
C1435 C 0.88501 0.75776 0.50337 0.0
C1436 C 0.89367 0.75271 0.48885 0.0
C1437 C 0.86899 0.76358 0.531 0.0
C1438 C 0.90053 0.76303 0.52773 0.0
C1439 C 0.90754 0.75908 0.51397 0.0
C1440 C 0.92773 0.76874 0.53824 0.0
C1441 C 0.85826 0.76476 0.54561 0.0
C1442 C 0.94294 0.79966 0.54635 0.0
C1443 C 0.97069 0.80679 0.55542 0.0
C1444 C 0.98435 0.78346 0.5564 0.0
C1445 C 0.96869 0.7522 0.54842 0.0
C1446 C 0.94069 0.74494 0.53943 0.0
H1447 H 0.82887 0.75225 0.54657 0.0
H1448 H 0.86752 0.75095 0.55267 0.0
H1449 H 0.8702 0.79297 0.54891 0.0
H1450 H 0.93417 0.81898 0.54537 0.0
H1451 H 0.98221 0.83126 0.5613 0.0
H1452 H 0.24872 0.9819 0.88007 0.0
H1453 H 0.21346 0.93375 0.86382 0.0
H1454 H 0.11853 0.93474 0.87635 0.0
H1455 H 0.1531 0.98167 0.89286 0.0
H1456 H 0.10509 0.86811 0.87285 0.0
H1457 H 0.17911 0.94975 0.82765 0.0
H1458 H 0.20587 0.94289 0.83996 0.0
H1459 H 0.18514 0.96845 0.84461 0.0
C1460 C 0.22028 0.97163 0.87944 0.0
C1461 C 0.20383 0.98593 0.88769 0.0
C1462 C 0.2002 0.94427 0.87007 0.0
C1463 C 0.16344 0.93115 0.86862 0.0
C1464 C 0.14685 0.94449 0.87722 0.0
H1465 H 0.01854 0.84429 0.80261 0.0
H1466 H 0.06544 0.87938 0.81904 0.0
C1467 C 0.16674 0.97144 0.88666 0.0
C1468 C 0.14199 0.90441 0.85795 0.0
H1469 H 0.13159 0.89209 0.82329 0.0
C1470 C 0.11104 0.87316 0.86201 0.0
C1471 C 0.14966 0.91117 0.84379 0.0
C1472 C 0.18155 0.94498 0.83868 0.0
C1473 C 0.08683 0.84925 0.85235 0.0
C1474 C 0.09432 0.85619 0.83819 0.0
C1475 C 0.12599 0.88669 0.83414 0.0
C1476 C 0.06792 0.83445 0.82746 0.0
C1477 C 0.05252 0.81793 0.85744 0.0
C1478 C 0.05426 0.79751 0.82641 0.0
C1479 C 0.02691 0.77713 0.81708 0.0
C1480 C 0.01313 0.79344 0.80849 0.0
C1481 C 0.0283 0.83071 0.80908 0.0
C1482 C 0.05526 0.85091 0.81848 0.0
H1483 H 0.04734 0.82105 0.86836 0.0
H1484 H 0.0295 0.81443 0.85124 0.0
H1485 H 0.0542 0.79328 0.85655 0.0
H1486 H 0.06428 0.78431 0.83296 0.0
H1487 H 0.01617 0.7486 0.81681 0.0
loop_
_geom_bond_atom_site_label_1
_geom_bond_atom_site_label_2
_geom_bond_distance
_geom_bond_site_symmetry_2
_ccdc_geom_bond_type
Co0 O3 1.970 . S
Co0 N17 1.989 . S
Co0 O25 1.967 . S
Co0 O32 1.920 . S
Co1 O4 1.966 . S
Co1 N10 2.022 . S
Co1 N18 1.993 . S
Co1 O26 1.941 . S
C2 O3 1.258 . S
C2 O4 1.263 . S
O3 Co0 1.970 . S
O3 C2 1.258 . S
O4 Co1 1.966 . S
O4 C2 1.263 . S
C5 O6 1.235 . S
C5 O32 1.289 . S
O6 C5 1.235 . S
C7 C9 1.400 . S
C7 N10 1.351 . S
C7 C12 1.501 . S
C8 C9 1.387 . S
C8 N11 1.341 . S
C9 C7 1.400 . S
C9 C8 1.387 . S
N10 Co1 2.022 . S
N10 C7 1.351 . S
N10 N11 1.365 . S
N11 C8 1.341 . S
N11 N10 1.365 . S
N11 H31 0.862 . S
C12 C7 1.501 . S
C12 H13 0.961 . S
C12 H14 0.961 . S
C12 H15 0.960 . S
H13 C12 0.961 . S
H14 C12 0.961 . S
H15 C12 0.960 . S
C16 N17 1.342 . S
C16 C20 1.401 . S
C16 C21 1.499 . S
N17 Co0 1.989 . S
N17 C16 1.342 . S
N17 N18 1.388 . S
N18 Co1 1.993 . S
N18 N17 1.388 . S
N18 C19 1.346 . S
C19 N18 1.346 . S
C19 C20 1.396 . S
C19 C29 1.510 . S
C20 C16 1.401 . S
C20 C19 1.396 . S
C21 C16 1.499 . S
C21 H22 0.959 . S
C21 H23 0.960 . S
C21 H24 0.961 . S
H22 C21 0.959 . S
H23 C21 0.960 . S
H24 C21 0.961 . S
O25 Co0 1.967 . S
O25 C33 1.258 . S
O26 Co1 1.941 . S
O26 C33 1.266 . S
H27 C29 0.959 . S
H28 C29 0.961 . S
C29 C19 1.510 . S
C29 H27 0.959 . S
C29 H28 0.961 . S
C29 H30 0.960 . S
H30 C29 0.960 . S
H31 N11 0.862 . S
O32 Co0 1.920 . S
O32 C5 1.289 . S
C33 O25 1.258 . S
C33 O26 1.266 . S
Co34 O37 1.970 . S
Co34 N51 1.989 . S
Co34 O59 1.967 . S
Co34 O66 1.920 . S
Co35 O38 1.966 . S
Co35 N44 2.022 . S
Co35 N52 1.993 . S
Co35 O60 1.941 . S
C36 O37 1.258 . S
C36 O38 1.263 . S
O37 Co34 1.970 . S
O37 C36 1.258 . S
O38 Co35 1.966 . S
O38 C36 1.263 . S
C39 O40 1.235 1_655 S
C39 O66 1.289 . S
O40 C39 1.235 1_455 S
C41 C43 1.400 . S
C41 N44 1.351 . S
C41 C46 1.501 . S
C42 C43 1.387 . S
C42 N45 1.341 . S
C43 C41 1.400 . S
C43 C42 1.387 . S
N44 Co35 2.022 . S
N44 C41 1.351 . S
N44 N45 1.365 . S
N45 C42 1.341 . S
N45 N44 1.365 . S
N45 H65 0.862 . S
C46 C41 1.501 . S
C46 H47 0.961 . S
C46 H48 0.961 1_655 S
C46 H49 0.960 . S
H47 C46 0.961 . S
H48 C46 0.961 1_455 S
H49 C46 0.960 . S
C50 N51 1.342 . S
C50 C54 1.401 . S
C50 C55 1.499 . S
N51 Co34 1.989 . S
N51 C50 1.342 . S
N51 N52 1.388 . S
N52 Co35 1.993 . S
N52 N51 1.388 . S
N52 C53 1.346 . S
C53 N52 1.346 . S
C53 C54 1.396 . S
C53 C63 1.510 . S
C54 C50 1.401 . S
C54 C53 1.396 . S
C55 C50 1.499 . S
C55 H56 0.959 . S
C55 H57 0.960 . S
C55 H58 0.961 . S
H56 C55 0.959 . S
H57 C55 0.960 . S
H58 C55 0.961 . S
O59 Co34 1.967 . S
O59 C67 1.258 . S
O60 Co35 1.941 . S
O60 C67 1.266 . S
H61 C63 0.959 . S
H62 C63 0.961 . S
C63 C53 1.510 . S
C63 H61 0.959 . S
C63 H62 0.961 . S
C63 H64 0.960 . S
H64 C63 0.960 . S
H65 N45 0.862 . S
O66 Co34 1.920 . S
O66 C39 1.289 . S
C67 O59 1.258 . S
C67 O60 1.266 . S
Co68 O71 1.970 . S
Co68 N85 1.989 . S
Co68 O93 1.967 . S
Co68 O100 1.920 . S
Co69 O72 1.966 . S
Co69 N78 2.022 . S
Co69 N86 1.993 . S
Co69 O94 1.941 . S
C70 O71 1.258 . S
C70 O72 1.263 . S
O71 Co68 1.970 . S
O71 C70 1.258 . S
O72 Co69 1.966 . S
O72 C70 1.263 . S
C73 O74 1.235 1_565 S
C73 O100 1.289 . S
O74 C73 1.235 1_545 S
C75 C77 1.400 . S
C75 N78 1.351 . S
C75 C80 1.501 . S
C76 C77 1.387 . S
C76 N79 1.341 . S
C77 C75 1.400 . S
C77 C76 1.387 . S
N78 Co69 2.022 . S
N78 C75 1.351 . S
N78 N79 1.365 . S
N79 C76 1.341 . S
N79 N78 1.365 . S
N79 H99 0.862 . S
C80 C75 1.501 . S
C80 H81 0.961 . S
C80 H82 0.961 1_565 S
C80 H83 0.960 . S
H81 C80 0.961 . S
H82 C80 0.961 1_545 S
H83 C80 0.960 . S
C84 N85 1.342 . S
C84 C88 1.401 . S
C84 C89 1.499 . S
N85 Co68 1.989 . S
N85 C84 1.342 . S
N85 N86 1.388 . S
N86 Co69 1.993 . S
N86 N85 1.388 . S
N86 C87 1.346 . S
C87 N86 1.346 . S
C87 C88 1.396 . S
C87 C97 1.510 . S
C88 C84 1.401 . S
C88 C87 1.396 . S
C89 C84 1.499 . S
C89 H90 0.959 . S
C89 H91 0.960 . S
C89 H92 0.961 . S
H90 C89 0.959 . S
H91 C89 0.960 . S
H92 C89 0.961 . S
O93 Co68 1.967 . S
O93 C101 1.258 . S
O94 Co69 1.941 . S
O94 C101 1.266 . S
H95 C97 0.959 . S
H96 C97 0.961 . S
C97 C87 1.510 . S
C97 H95 0.959 . S
C97 H96 0.961 . S
C97 H98 0.960 . S
H98 C97 0.960 . S
H99 N79 0.862 . S
O100 Co68 1.920 . S
O100 C73 1.289 . S
C101 O93 1.258 . S
C101 O94 1.266 . S
Co102 O105 1.970 . S
Co102 N119 1.989 . S
Co102 O127 1.967 . S
Co102 O134 1.920 . S
Co103 O106 1.966 . S
Co103 N112 2.022 . S
Co103 N120 1.993 . S
Co103 O128 1.941 . S
C104 O105 1.258 . S
C104 O106 1.263 . S
O105 Co102 1.970 . S
O105 C104 1.258 . S
O106 Co103 1.966 . S
O106 C104 1.263 . S
C107 O108 1.235 . S
C107 O134 1.289 . S
O108 C107 1.235 . S
C109 C111 1.400 . S
C109 N112 1.351 . S
C109 C114 1.501 . S
C110 C111 1.387 . S
C110 N113 1.341 . S
C111 C109 1.400 . S
C111 C110 1.387 . S
N112 Co103 2.022 . S
N112 C109 1.351 . S
N112 N113 1.365 . S
N113 C110 1.341 . S
N113 N112 1.365 . S
N113 H133 0.862 . S
C114 C109 1.501 . S
C114 H115 0.961 . S
C114 H116 0.961 . S
C114 H117 0.960 . S
H115 C114 0.961 . S
H116 C114 0.961 . S
H117 C114 0.960 . S
C118 N119 1.342 . S
C118 C122 1.401 . S
C118 C123 1.499 . S
N119 Co102 1.989 . S
N119 C118 1.342 . S
N119 N120 1.388 . S
N120 Co103 1.993 . S
N120 N119 1.388 . S
N120 C121 1.346 . S
C121 N120 1.346 . S
C121 C122 1.396 . S
C121 C131 1.510 . S
C122 C118 1.401 . S
C122 C121 1.396 . S
C123 C118 1.499 . S
C123 H124 0.959 . S
C123 H125 0.960 . S
C123 H126 0.961 . S
H124 C123 0.959 . S
H125 C123 0.960 . S
H126 C123 0.961 . S
O127 Co102 1.967 . S
O127 C135 1.258 . S
O128 Co103 1.941 . S
O128 C135 1.266 . S
H129 C131 0.959 . S
H130 C131 0.961 . S
C131 C121 1.510 . S
C131 H129 0.959 . S
C131 H130 0.961 . S
C131 H132 0.960 . S
H132 C131 0.960 . S
H133 N113 0.862 . S
O134 Co102 1.920 . S
O134 C107 1.289 . S
C135 O127 1.258 . S
C135 O128 1.266 . S
Co136 O139 1.970 . S
Co136 N153 1.989 . S
Co136 O161 1.967 . S
Co136 O168 1.920 . S
Co137 O140 1.966 . S
Co137 N146 2.022 . S
Co137 N154 1.993 . S
Co137 O162 1.941 . S
C138 O139 1.258 . S
C138 O140 1.263 . S
O139 Co136 1.970 . S
O139 C138 1.258 . S
O140 Co137 1.966 . S
O140 C138 1.263 . S
C141 O142 1.235 1_455 S
C141 O168 1.289 . S
O142 C141 1.235 1_655 S
C143 C145 1.400 . S
C143 N146 1.351 . S
C143 C148 1.501 . S
C144 C145 1.387 . S
C144 N147 1.341 . S
C145 C143 1.400 . S
C145 C144 1.387 . S
N146 Co137 2.022 . S
N146 C143 1.351 . S
N146 N147 1.365 . S
N147 C144 1.341 . S
N147 N146 1.365 . S
N147 H167 0.862 . S
C148 C143 1.501 . S
C148 H149 0.961 . S
C148 H150 0.961 1_455 S
C148 H151 0.960 . S
H149 C148 0.961 . S
H150 C148 0.961 1_655 S
H151 C148 0.960 . S
C152 N153 1.342 . S
C152 C156 1.401 . S
C152 C157 1.499 . S
N153 Co136 1.989 . S
N153 C152 1.342 . S
N153 N154 1.388 . S
N154 Co137 1.993 . S
N154 N153 1.388 . S
N154 C155 1.346 . S
C155 N154 1.346 . S
C155 C156 1.396 . S
C155 C165 1.510 . S
C156 C152 1.401 . S
C156 C155 1.396 . S
C157 C152 1.499 . S
C157 H158 0.959 . S
C157 H159 0.960 . S
C157 H160 0.961 . S
H158 C157 0.959 . S
H159 C157 0.960 . S
H160 C157 0.961 . S
O161 Co136 1.967 . S
O161 C169 1.258 . S
O162 Co137 1.941 . S
O162 C169 1.266 . S
H163 C165 0.959 . S
H164 C165 0.961 . S
C165 C155 1.510 . S
C165 H163 0.959 . S
C165 H164 0.961 . S
C165 H166 0.960 . S
H166 C165 0.960 . S
H167 N147 0.862 . S
O168 Co136 1.920 . S
O168 C141 1.289 . S
C169 O161 1.258 . S
C169 O162 1.266 . S
Co170 O173 1.970 . S
Co170 N187 1.989 . S
Co170 O195 1.967 . S
Co170 O202 1.920 . S
Co171 O174 1.966 . S
Co171 N180 2.022 . S
Co171 N188 1.993 . S
Co171 O196 1.941 . S
C172 O173 1.258 . S
C172 O174 1.263 . S
O173 Co170 1.970 . S
O173 C172 1.258 . S
O174 Co171 1.966 . S
O174 C172 1.263 . S
C175 O176 1.235 1_545 S
C175 O202 1.289 . S
O176 C175 1.235 1_565 S
C177 C179 1.400 . S
C177 N180 1.351 . S
C177 C182 1.501 . S
C178 C179 1.387 . S
C178 N181 1.341 . S
C179 C177 1.400 . S
C179 C178 1.387 . S
N180 Co171 2.022 . S
N180 C177 1.351 . S
N180 N181 1.365 . S
N181 C178 1.341 . S
N181 N180 1.365 . S
N181 H201 0.862 . S
C182 C177 1.501 . S
C182 H183 0.961 . S
C182 H184 0.961 1_545 S
C182 H185 0.960 . S
H183 C182 0.961 . S
H184 C182 0.961 1_565 S
H185 C182 0.960 . S
C186 N187 1.342 . S
C186 C190 1.401 . S
C186 C191 1.499 . S
N187 Co170 1.989 . S
N187 C186 1.342 . S
N187 N188 1.388 . S
N188 Co171 1.993 . S
N188 N187 1.388 . S
N188 C189 1.346 . S
C189 N188 1.346 . S
C189 C190 1.396 . S
C189 C199 1.510 . S
C190 C186 1.401 . S
C190 C189 1.396 . S
C191 C186 1.499 . S
C191 H192 0.959 . S
C191 H193 0.960 . S
C191 H194 0.961 . S
H192 C191 0.959 . S
H193 C191 0.960 . S
H194 C191 0.961 . S
O195 Co170 1.967 . S
O195 C203 1.258 . S
O196 Co171 1.941 . S
O196 C203 1.266 . S
H197 C199 0.959 . S
H198 C199 0.961 . S
C199 C189 1.510 . S
C199 H197 0.959 . S
C199 H198 0.961 . S
C199 H200 0.960 . S
H200 C199 0.960 . S
H201 N181 0.862 . S
O202 Co170 1.920 . S
O202 C175 1.289 . S
C203 O195 1.258 . S
C203 O196 1.266 . S
Co204 O207 1.970 . S
Co204 N221 1.989 . S
Co204 O229 1.967 . S
Co204 O236 1.920 . S
Co205 O208 1.966 . S
Co205 N214 2.022 . S
Co205 N222 1.993 . S
Co205 O230 1.941 . S
C206 O207 1.258 . S
C206 O208 1.263 . S
O207 Co204 1.970 . S
O207 C206 1.258 . S
O208 Co205 1.966 . S
O208 C206 1.263 . S
C209 O210 1.235 . S
C209 O236 1.289 . S
O210 C209 1.235 . S
C211 C213 1.400 . S
C211 N214 1.351 . S
C211 C216 1.501 . S
C212 C213 1.387 . S
C212 N215 1.341 . S
C213 C211 1.400 . S
C213 C212 1.387 . S
N214 Co205 2.022 . S
N214 C211 1.351 . S
N214 N215 1.365 . S
N215 C212 1.341 . S
N215 N214 1.365 . S
N215 H235 0.862 . S
C216 C211 1.501 . S
C216 H217 0.961 . S
C216 H218 0.961 . S
C216 H219 0.960 . S
H217 C216 0.961 . S
H218 C216 0.961 . S
H219 C216 0.960 . S
C220 N221 1.342 . S
C220 C224 1.401 . S
C220 C225 1.499 . S
N221 Co204 1.989 . S
N221 C220 1.342 . S
N221 N222 1.388 . S
N222 Co205 1.993 . S
N222 N221 1.388 . S
N222 C223 1.346 . S
C223 N222 1.346 . S
C223 C224 1.396 . S
C223 C233 1.510 . S
C224 C220 1.401 . S
C224 C223 1.396 . S
C225 C220 1.499 . S
C225 H226 0.959 . S
C225 H227 0.960 . S
C225 H228 0.961 . S
H226 C225 0.959 . S
H227 C225 0.960 . S
H228 C225 0.961 . S
O229 Co204 1.967 . S
O229 C237 1.258 . S
O230 Co205 1.941 . S
O230 C237 1.266 . S
H231 C233 0.959 . S
H232 C233 0.961 . S
C233 C223 1.510 . S
C233 H231 0.959 . S
C233 H232 0.961 . S
C233 H234 0.960 . S
H234 C233 0.960 . S
H235 N215 0.862 . S
O236 Co204 1.920 . S
O236 C209 1.289 . S
C237 O229 1.258 . S
C237 O230 1.266 . S
Co238 O241 1.970 . S
Co238 N255 1.989 . S
Co238 O263 1.967 . S
Co238 O270 1.920 . S
Co239 O242 1.966 . S
Co239 N248 2.022 . S
Co239 N256 1.993 . S
Co239 O264 1.941 . S
C240 O241 1.258 . S
C240 O242 1.263 . S
O241 Co238 1.970 . S
O241 C240 1.258 . S
O242 Co239 1.966 . S
O242 C240 1.263 . S
C243 O244 1.235 1_655 S
C243 O270 1.289 . S
O244 C243 1.235 1_455 S
C245 C247 1.400 . S
C245 N248 1.351 . S
C245 C250 1.501 . S
C246 C247 1.387 . S
C246 N249 1.341 . S
C247 C245 1.400 . S
C247 C246 1.387 . S
N248 Co239 2.022 . S
N248 C245 1.351 . S
N248 N249 1.365 . S
N249 C246 1.341 . S
N249 N248 1.365 . S
N249 H269 0.862 . S
C250 C245 1.501 . S
C250 H251 0.961 . S
C250 H252 0.961 1_655 S
C250 H253 0.960 . S
H251 C250 0.961 . S
H252 C250 0.961 1_455 S
H253 C250 0.960 . S
C254 N255 1.342 . S
C254 C258 1.401 . S
C254 C259 1.499 . S
N255 Co238 1.989 . S
N255 C254 1.342 . S
N255 N256 1.388 . S
N256 Co239 1.993 . S
N256 N255 1.388 . S
N256 C257 1.346 . S
C257 N256 1.346 . S
C257 C258 1.396 . S
C257 C267 1.510 . S
C258 C254 1.401 . S
C258 C257 1.396 . S
C259 C254 1.499 . S
C259 H260 0.959 . S
C259 H261 0.960 . S
C259 H262 0.961 . S
H260 C259 0.959 . S
H261 C259 0.960 . S
H262 C259 0.961 . S
O263 Co238 1.967 . S
O263 C271 1.258 . S
O264 Co239 1.941 . S
O264 C271 1.266 . S
H265 C267 0.959 . S
H266 C267 0.961 . S
C267 C257 1.510 . S
C267 H265 0.959 . S
C267 H266 0.961 . S
C267 H268 0.960 . S
H268 C267 0.960 . S
H269 N249 0.862 . S
O270 Co238 1.920 . S
O270 C243 1.289 . S
C271 O263 1.258 . S
C271 O264 1.266 . S
Co272 O275 1.970 . S
Co272 N289 1.989 . S
Co272 O297 1.967 . S
Co272 O304 1.920 . S
Co273 O276 1.966 . S
Co273 N282 2.022 . S
Co273 N290 1.993 . S
Co273 O298 1.941 . S
C274 O275 1.258 . S
C274 O276 1.263 . S
O275 Co272 1.970 . S
O275 C274 1.258 . S
O276 Co273 1.966 . S
O276 C274 1.263 . S
C277 O278 1.235 1_565 S
C277 O304 1.289 . S
O278 C277 1.235 1_545 S
C279 C281 1.400 . S
C279 N282 1.351 . S
C279 C284 1.501 . S
C280 C281 1.387 . S
C280 N283 1.341 . S
C281 C279 1.400 . S
C281 C280 1.387 . S
N282 Co273 2.022 . S
N282 C279 1.351 . S
N282 N283 1.365 . S
N283 C280 1.341 . S
N283 N282 1.365 . S
N283 H303 0.862 . S
C284 C279 1.501 . S
C284 H285 0.961 . S
C284 H286 0.961 1_565 S
C284 H287 0.960 . S
H285 C284 0.961 . S
H286 C284 0.961 1_545 S
H287 C284 0.960 . S
C288 N289 1.342 . S
C288 C292 1.401 . S
C288 C293 1.499 . S
N289 Co272 1.989 . S
N289 C288 1.342 . S
N289 N290 1.388 . S
N290 Co273 1.993 . S
N290 N289 1.388 . S
N290 C291 1.346 . S
C291 N290 1.346 . S
C291 C292 1.396 . S
C291 C301 1.510 . S
C292 C288 1.401 . S
C292 C291 1.396 . S
C293 C288 1.499 . S
C293 H294 0.959 . S
C293 H295 0.960 . S
C293 H296 0.961 . S
H294 C293 0.959 . S
H295 C293 0.960 . S
H296 C293 0.961 . S
O297 Co272 1.967 . S
O297 C305 1.258 . S
O298 Co273 1.941 . S
O298 C305 1.266 . S
H299 C301 0.959 . S
H300 C301 0.961 . S
C301 C291 1.510 . S
C301 H299 0.959 . S
C301 H300 0.961 . S
C301 H302 0.960 . S
H302 C301 0.960 . S
H303 N283 0.862 . S
O304 Co272 1.920 . S
O304 C277 1.289 . S
C305 O297 1.258 . S
C305 O298 1.266 . S
Co306 O309 1.970 . S
Co306 N323 1.989 . S
Co306 O331 1.967 . S
Co306 O338 1.920 . S
Co307 O310 1.966 . S
Co307 N316 2.022 . S
Co307 N324 1.993 . S
Co307 O332 1.941 . S
C308 O309 1.258 . S
C308 O310 1.263 . S
O309 Co306 1.970 . S
O309 C308 1.258 . S
O310 Co307 1.966 . S
O310 C308 1.263 . S
C311 O312 1.235 . S
C311 O338 1.289 . S
O312 C311 1.235 . S
C313 C315 1.400 . S
C313 N316 1.351 . S
C313 C318 1.501 . S
C314 C315 1.387 . S
C314 N317 1.341 . S
C315 C313 1.400 . S
C315 C314 1.387 . S
N316 Co307 2.022 . S
N316 C313 1.351 . S
N316 N317 1.365 . S
N317 C314 1.341 . S
N317 N316 1.365 . S
N317 H337 0.862 . S
C318 C313 1.501 . S
C318 H319 0.961 . S
C318 H320 0.961 . S
C318 H321 0.960 . S
H319 C318 0.961 . S
H320 C318 0.961 . S
H321 C318 0.960 . S
C322 N323 1.342 . S
C322 C326 1.401 . S
C322 C327 1.499 . S
N323 Co306 1.989 . S
N323 C322 1.342 . S
N323 N324 1.388 . S
N324 Co307 1.993 . S
N324 N323 1.388 . S
N324 C325 1.346 . S
C325 N324 1.346 . S
C325 C326 1.396 . S
C325 C335 1.510 . S
C326 C322 1.401 . S
C326 C325 1.396 . S
C327 C322 1.499 . S
C327 H328 0.959 . S
C327 H329 0.960 . S
C327 H330 0.961 . S
H328 C327 0.959 . S
H329 C327 0.960 . S
H330 C327 0.961 . S
O331 Co306 1.967 . S
O331 C339 1.258 . S
O332 Co307 1.941 . S
O332 C339 1.266 . S
H333 C335 0.959 . S
H334 C335 0.961 . S
C335 C325 1.510 . S
C335 H333 0.959 . S
C335 H334 0.961 . S
C335 H336 0.960 . S
H336 C335 0.960 . S
H337 N317 0.862 . S
O338 Co306 1.920 . S
O338 C311 1.289 . S
C339 O331 1.258 . S
C339 O332 1.266 . S
Co340 O343 1.970 . S
Co340 N357 1.989 . S
Co340 O365 1.967 . S
Co340 O372 1.920 . S
Co341 O344 1.966 . S
Co341 N350 2.022 . S
Co341 N358 1.993 . S
Co341 O366 1.941 . S
C342 O343 1.258 . S
C342 O344 1.263 . S
O343 Co340 1.970 . S
O343 C342 1.258 . S
O344 Co341 1.966 . S
O344 C342 1.263 . S
C345 O346 1.235 1_455 S
C345 O372 1.289 . S
O346 C345 1.235 1_655 S
C347 C349 1.400 . S
C347 N350 1.351 . S
C347 C352 1.501 . S
C348 C349 1.387 . S
C348 N351 1.341 . S
C349 C347 1.400 . S
C349 C348 1.387 . S
N350 Co341 2.022 . S
N350 C347 1.351 . S
N350 N351 1.365 . S
N351 C348 1.341 . S
N351 N350 1.365 . S
N351 H371 0.862 . S
C352 C347 1.501 . S
C352 H353 0.961 . S
C352 H354 0.961 1_455 S
C352 H355 0.960 . S
H353 C352 0.961 . S
H354 C352 0.961 1_655 S
H355 C352 0.960 . S
C356 N357 1.342 . S
C356 C360 1.401 . S
C356 C361 1.499 . S
N357 Co340 1.989 . S
N357 C356 1.342 . S
N357 N358 1.388 . S
N358 Co341 1.993 . S
N358 N357 1.388 . S
N358 C359 1.346 . S
C359 N358 1.346 . S
C359 C360 1.396 . S
C359 C369 1.510 . S
C360 C356 1.401 . S
C360 C359 1.396 . S
C361 C356 1.499 . S
C361 H362 0.959 . S
C361 H363 0.960 . S
C361 H364 0.961 . S
H362 C361 0.959 . S
H363 C361 0.960 . S
H364 C361 0.961 . S
O365 Co340 1.967 . S
O365 C373 1.258 . S
O366 Co341 1.941 . S
O366 C373 1.266 . S
H367 C369 0.959 . S
H368 C369 0.961 . S
C369 C359 1.510 . S
C369 H367 0.959 . S
C369 H368 0.961 . S
C369 H370 0.960 . S
H370 C369 0.960 . S
H371 N351 0.862 . S
O372 Co340 1.920 . S
O372 C345 1.289 . S
C373 O365 1.258 . S
C373 O366 1.266 . S
Co374 O377 1.970 . S
Co374 N391 1.989 . S
Co374 O399 1.967 . S
Co374 O406 1.920 . S
Co375 O378 1.966 . S
Co375 N384 2.022 . S
Co375 N392 1.993 . S
Co375 O400 1.941 . S
C376 O377 1.258 . S
C376 O378 1.263 . S
O377 Co374 1.970 . S
O377 C376 1.258 . S
O378 Co375 1.966 . S
O378 C376 1.263 . S
C379 O380 1.235 1_545 S
C379 O406 1.289 . S
O380 C379 1.235 1_565 S
C381 C383 1.400 . S
C381 N384 1.351 . S
C381 C386 1.501 . S
C382 C383 1.387 . S
C382 N385 1.341 . S
C383 C381 1.400 . S
C383 C382 1.387 . S
N384 Co375 2.022 . S
N384 C381 1.351 . S
N384 N385 1.365 . S
N385 C382 1.341 . S
N385 N384 1.365 . S
N385 H405 0.862 . S
C386 C381 1.501 . S
C386 H387 0.961 . S
C386 H388 0.961 1_545 S
C386 H389 0.960 . S
H387 C386 0.961 . S
H388 C386 0.961 1_565 S
H389 C386 0.960 . S
C390 N391 1.342 . S
C390 C394 1.401 . S
C390 C395 1.499 . S
N391 Co374 1.989 . S
N391 C390 1.342 . S
N391 N392 1.388 . S
N392 Co375 1.993 . S
N392 N391 1.388 . S
N392 C393 1.346 . S
C393 N392 1.346 . S
C393 C394 1.396 . S
C393 C403 1.510 . S
C394 C390 1.401 . S
C394 C393 1.396 . S
C395 C390 1.499 . S
C395 H396 0.959 . S
C395 H397 0.960 . S
C395 H398 0.961 . S
H396 C395 0.959 . S
H397 C395 0.960 . S
H398 C395 0.961 . S
O399 Co374 1.967 . S
O399 C407 1.258 . S
O400 Co375 1.941 . S
O400 C407 1.266 . S
H401 C403 0.959 . S
H402 C403 0.961 . S
C403 C393 1.510 . S
C403 H401 0.959 . S
C403 H402 0.961 . S
C403 H404 0.960 . S
H404 C403 0.960 . S
H405 N385 0.862 . S
O406 Co374 1.920 . S
O406 C379 1.289 . S
C407 O399 1.258 . S
C407 O400 1.266 . S
H408 C416 0.929 . S
H409 C418 0.930 . S
H410 C420 0.930 . S
H411 C423 0.929 . S
H412 C426 0.930 . S
H413 C428 0.960 . S
H414 C428 0.960 . S
H415 C428 0.960 . S
C416 H408 0.929 . S
C416 C417 1.377 . S
C416 C418 1.384 . S
C417 C416 1.377 . S
C417 C423 1.390 . S
C418 H409 0.930 . S
C418 C416 1.384 . S
C418 C419 1.372 . S
C419 C418 1.372 . S
C419 C420 1.400 . S
C419 C424 1.490 . S
C420 H410 0.930 . S
C420 C419 1.400 . S
C420 C423 1.386 . S
H421 C437 0.930 . S
H422 C438 0.931 . S
C423 H411 0.929 . S
C423 C417 1.390 . S
C423 C420 1.386 . S
C424 C419 1.490 . S
C424 C426 1.395 . S
C424 C427 1.403 . S
H425 C431 0.930 . S
C426 H412 0.930 . S
C426 C424 1.395 . S
C426 C429 1.403 . S
C427 C424 1.403 . S
C427 C428 1.524 . S
C427 C431 1.400 . S
C428 H413 0.960 . S
C428 H414 0.960 . S
C428 H415 0.960 . S
C428 C427 1.524 . S
C429 C426 1.403 . S
C429 C430 1.392 . S
C429 C433 1.495 . S
C430 C429 1.392 . S
C430 C431 1.385 . S
C430 C432 1.478 . S
C431 H425 0.930 . S
C431 C427 1.400 . S
C431 C430 1.385 . S
C432 C430 1.478 . S
C432 C434 1.381 . S
C432 C438 1.383 . S
C433 C429 1.495 . S
C433 H439 0.959 . S
C433 H440 0.961 . S
C433 H441 0.960 . S
C434 C432 1.381 . S
C434 C435 1.394 . S
C434 H442 0.930 . S
C435 C434 1.394 . S
C435 C436 1.383 . S
C435 H443 0.929 . S
C436 C435 1.383 . S
C436 C437 1.377 . S
C437 H421 0.930 . S
C437 C436 1.377 . S
C437 C438 1.379 . S
C438 H422 0.931 . S
C438 C432 1.383 . S
C438 C437 1.379 . S
H439 C433 0.959 . S
H440 C433 0.961 . S
H441 C433 0.960 . S
H442 C434 0.930 . S
H443 C435 0.929 . S
H444 C452 0.929 . S
H445 C454 0.930 . S
H446 C456 0.930 . S
H447 C459 0.929 . S
H448 C462 0.930 . S
H449 C464 0.960 . S
H450 C464 0.960 . S
H451 C464 0.960 . S
C452 H444 0.929 . S
C452 C453 1.377 . S
C452 C454 1.384 . S
C453 C452 1.377 . S
C453 C459 1.390 . S
C454 H445 0.930 . S
C454 C452 1.384 . S
C454 C455 1.372 . S
C455 C454 1.372 . S
C455 C456 1.400 . S
C455 C460 1.490 . S
C456 H446 0.930 . S
C456 C455 1.400 . S
C456 C459 1.386 . S
H457 C473 0.930 . S
H458 C474 0.931 . S
C459 H447 0.929 . S
C459 C453 1.390 . S
C459 C456 1.386 . S
C460 C455 1.490 . S
C460 C462 1.395 . S
C460 C463 1.403 1_455 S
H461 C467 0.930 . S
C462 H448 0.930 . S
C462 C460 1.395 . S
C462 C465 1.403 . S
C463 C460 1.403 1_655 S
C463 C464 1.524 . S
C463 C467 1.400 . S
C464 H449 0.960 . S
C464 H450 0.960 . S
C464 H451 0.960 . S
C464 C463 1.524 . S
C465 C462 1.403 . S
C465 C466 1.392 1_455 S
C465 C469 1.495 . S
C466 C465 1.392 1_655 S
C466 C467 1.385 . S
C466 C468 1.478 . S
C467 H461 0.930 . S
C467 C463 1.400 . S
C467 C466 1.385 . S
C468 C466 1.478 . S
C468 C470 1.381 . S
C468 C474 1.383 . S
C469 C465 1.495 . S
C469 H475 0.959 . S
C469 H476 0.961 . S
C469 H477 0.960 . S
C470 C468 1.381 . S
C470 C471 1.394 . S
C470 H478 0.930 . S
C471 C470 1.394 . S
C471 C472 1.383 . S
C471 H479 0.929 . S
C472 C471 1.383 . S
C472 C473 1.377 . S
C473 H457 0.930 . S
C473 C472 1.377 . S
C473 C474 1.379 . S
C474 H458 0.931 . S
C474 C468 1.383 . S
C474 C473 1.379 . S
H475 C469 0.959 . S
H476 C469 0.961 . S
H477 C469 0.960 . S
H478 C470 0.930 . S
H479 C471 0.929 . S
H480 C488 0.929 . S
H481 C490 0.930 . S
H482 C492 0.916 1_565 S
H483 C495 0.929 . S
H484 C498 0.930 . S
H485 C500 0.960 . S
H486 C500 0.960 . S
H487 C500 0.960 . S
C488 H480 0.929 . S
C488 C489 1.377 . S
C488 C490 1.384 . S
C489 C488 1.377 . S
C489 C495 1.390 . S
C490 H481 0.930 . S
C490 C488 1.384 . S
C490 C491 1.372 . S
C491 C490 1.372 . S
C491 C492 1.400 . S
C491 C496 1.490 . S
C492 H482 0.916 1_545 S
C492 C491 1.400 . S
C492 C495 1.386 . S
H493 C509 0.930 . S
H494 C510 0.931 . S
C495 H483 0.929 . S
C495 C489 1.390 . S
C495 C492 1.386 . S
C496 C491 1.490 . S
C496 C498 1.395 1_545 S
C496 C499 1.403 . S
H497 C503 0.930 . S
C498 H484 0.930 . S
C498 C496 1.395 1_565 S
C498 C501 1.403 . S
C499 C496 1.403 . S
C499 C500 1.524 . S
C499 C503 1.400 . S
C500 H485 0.960 . S
C500 H486 0.960 . S
C500 H487 0.960 . S
C500 C499 1.524 . S
C501 C498 1.403 . S
C501 C502 1.392 . S
C501 C505 1.495 . S
C502 C501 1.392 . S
C502 C503 1.385 1_565 S
C502 C504 1.478 . S
C503 H497 0.930 . S
C503 C499 1.400 . S
C503 C502 1.385 1_545 S
C504 C502 1.478 . S
C504 C506 1.381 . S
C504 C510 1.383 . S
C505 C501 1.495 . S
C505 H511 0.959 . S
C505 H512 0.961 . S
C505 H513 0.960 . S
C506 C504 1.381 . S
C506 C507 1.394 . S
C506 H514 0.930 1_565 S
C507 C506 1.394 . S
C507 C508 1.383 . S
C507 H515 0.929 . S
C508 C507 1.383 . S
C508 C509 1.377 . S
C509 H493 0.930 . S
C509 C508 1.377 . S
C509 C510 1.379 . S
C510 H494 0.931 . S
C510 C504 1.383 . S
C510 C509 1.379 . S
H511 C505 0.959 . S
H512 C505 0.961 . S
H513 C505 0.960 . S
H514 C506 0.930 1_545 S
H515 C507 0.929 . S
H516 C524 0.929 . S
H517 C526 0.930 . S
H518 C528 0.930 . S
H519 C531 0.929 . S
H520 C534 0.930 . S
H521 C536 0.960 . S
H522 C536 0.960 . S
H523 C536 0.960 . S
C524 H516 0.929 . S
C524 C525 1.377 . S
C524 C526 1.384 . S
C525 C524 1.377 . S
C525 C531 1.390 . S
C526 H517 0.930 . S
C526 C524 1.384 . S
C526 C527 1.372 . S
C527 C526 1.372 . S
C527 C528 1.400 . S
C527 C532 1.490 . S
C528 H518 0.930 . S
C528 C527 1.400 . S
C528 C531 1.386 . S
H529 C545 0.930 . S
H530 C546 0.931 . S
C531 H519 0.929 . S
C531 C525 1.390 . S
C531 C528 1.386 . S
C532 C527 1.490 . S
C532 C534 1.395 . S
C532 C535 1.403 . S
H533 C539 0.930 . S
C534 H520 0.930 . S
C534 C532 1.395 . S
C534 C537 1.403 . S
C535 C532 1.403 . S
C535 C536 1.524 . S
C535 C539 1.400 . S
C536 H521 0.960 . S
C536 H522 0.960 . S
C536 H523 0.960 . S
C536 C535 1.524 . S
C537 C534 1.403 . S
C537 C538 1.392 . S
C537 C541 1.495 . S
C538 C537 1.392 . S
C538 C539 1.385 . S
C538 C540 1.478 . S
C539 H533 0.930 . S
C539 C535 1.400 . S
C539 C538 1.385 . S
C540 C538 1.478 . S
C540 C542 1.381 . S
C540 C546 1.383 . S
C541 C537 1.495 . S
C541 H547 0.959 . S
C541 H548 0.961 . S
C541 H549 0.960 . S
C542 C540 1.381 . S
C542 C543 1.394 . S
C542 H550 0.930 . S
C543 C542 1.394 . S
C543 C544 1.383 . S
C543 H551 0.929 . S
C544 C543 1.383 . S
C544 C545 1.377 . S
C545 H529 0.930 . S
C545 C544 1.377 . S
C545 C546 1.379 . S
C546 H530 0.931 . S
C546 C540 1.383 . S
C546 C545 1.379 . S
H547 C541 0.959 . S
H548 C541 0.961 . S
H549 C541 0.960 . S
H550 C542 0.930 . S
H551 C543 0.929 . S
H552 C560 0.929 . S
H553 C562 0.930 . S
H554 C564 0.930 . S
H555 C567 0.929 . S
H556 C570 0.930 . S
H557 C572 0.960 . S
H558 C572 0.960 . S
H559 C572 0.960 . S
C560 H552 0.929 . S
C560 C561 1.377 . S
C560 C562 1.384 . S
C561 C560 1.377 . S
C561 C567 1.390 . S
C562 H553 0.930 . S
C562 C560 1.384 . S
C562 C563 1.372 . S
C563 C562 1.372 . S
C563 C564 1.400 . S
C563 C568 1.490 . S
C564 H554 0.930 . S
C564 C563 1.400 . S
C564 C567 1.386 . S
H565 C581 0.930 . S
H566 C582 0.931 . S
C567 H555 0.929 . S
C567 C561 1.390 . S
C567 C564 1.386 . S
C568 C563 1.490 . S
C568 C570 1.395 . S
C568 C571 1.403 1_655 S
H569 C575 0.930 . S
C570 H556 0.930 . S
C570 C568 1.395 . S
C570 C573 1.403 . S
C571 C568 1.403 1_455 S
C571 C572 1.524 . S
C571 C575 1.400 . S
C572 H557 0.960 . S
C572 H558 0.960 . S
C572 H559 0.960 . S
C572 C571 1.524 . S
C573 C570 1.403 . S
C573 C574 1.392 1_655 S
C573 C577 1.495 . S
C574 C573 1.392 1_455 S
C574 C575 1.385 . S
C574 C576 1.478 . S
C575 H569 0.930 . S
C575 C571 1.400 . S
C575 C574 1.385 . S
C576 C574 1.478 . S
C576 C578 1.381 . S
C576 C582 1.383 . S
C577 C573 1.495 . S
C577 H583 0.959 . S
C577 H584 0.961 . S
C577 H585 0.960 . S
C578 C576 1.381 . S
C578 C579 1.394 . S
C578 H586 0.944 . S
C579 C578 1.394 . S
C579 C580 1.383 . S
C579 H587 0.929 . S
C580 C579 1.383 . S
C580 C581 1.377 . S
C581 H565 0.930 . S
C581 C580 1.377 . S
C581 C582 1.379 . S
C582 H566 0.931 . S
C582 C576 1.383 . S
C582 C581 1.379 . S
H583 C577 0.959 . S
H584 C577 0.961 . S
H585 C577 0.960 . S
H586 C578 0.944 . S
H587 C579 0.929 . S
H588 C596 0.929 . S
H589 C598 0.930 1_545 S
H590 C600 0.930 . S
H591 C603 0.929 . S
H592 C606 0.930 . S
H593 C608 0.960 . S
H594 C608 0.960 . S
H595 C608 0.960 . S
C596 H588 0.929 . S
C596 C597 1.377 . S
C596 C598 1.384 . S
C597 C596 1.377 . S
C597 C603 1.390 . S
C598 H589 0.930 1_565 S
C598 C596 1.384 . S
C598 C599 1.372 . S
C599 C598 1.372 . S
C599 C600 1.400 . S
C599 C604 1.490 . S
C600 H590 0.930 . S
C600 C599 1.400 . S
C600 C603 1.386 . S
H601 C617 0.930 . S
H602 C618 0.931 . S
C603 H591 0.929 . S
C603 C597 1.390 . S
C603 C600 1.386 . S
C604 C599 1.490 . S
C604 C606 1.395 1_565 S
C604 C607 1.403 . S
H605 C611 0.930 . S
C606 H592 0.930 . S
C606 C604 1.395 1_545 S
C606 C609 1.403 . S
C607 C604 1.403 . S
C607 C608 1.524 . S
C607 C611 1.400 . S
C608 H593 0.960 . S
C608 H594 0.960 . S
C608 H595 0.960 . S
C608 C607 1.524 . S
C609 C606 1.403 . S
C609 C610 1.392 . S
C609 C613 1.495 . S
C610 C609 1.392 . S
C610 C611 1.385 1_545 S
C610 C612 1.478 . S
C611 H605 0.930 . S
C611 C607 1.400 . S
C611 C610 1.385 1_565 S
C612 C610 1.478 . S
C612 C614 1.381 . S
C612 C618 1.383 . S
C613 C609 1.495 . S
C613 H619 0.959 . S
C613 H620 0.961 . S
C613 H621 0.960 . S
C614 C612 1.381 . S
C614 C615 1.394 . S
C614 H622 0.930 . S
C615 C614 1.394 . S
C615 C616 1.383 . S
C615 H623 0.929 . S
C616 C615 1.383 . S
C616 C617 1.377 . S
C617 H601 0.930 . S
C617 C616 1.377 . S
C617 C618 1.379 . S
C618 H602 0.931 . S
C618 C612 1.383 . S
C618 C617 1.379 . S
H619 C613 0.959 . S
H620 C613 0.961 . S
H621 C613 0.960 . S
H622 C614 0.930 . S
H623 C615 0.929 . S
H624 C632 0.929 . S
H625 C634 0.930 . S
H626 C636 0.930 . S
H627 C639 0.929 . S
H628 C642 0.930 . S
H629 C644 0.960 . S
H630 C644 0.960 . S
H631 C644 0.960 . S
C632 H624 0.929 . S
C632 C633 1.377 . S
C632 C634 1.384 . S
C633 C632 1.377 . S
C633 C639 1.390 . S
C634 H625 0.930 . S
C634 C632 1.384 . S
C634 C635 1.372 . S
C635 C634 1.372 . S
C635 C636 1.400 . S
C635 C640 1.490 . S
C636 H626 0.930 . S
C636 C635 1.400 . S
C636 C639 1.386 . S
H637 C653 0.930 . S
H638 C654 0.931 . S
C639 H627 0.929 . S
C639 C633 1.390 . S
C639 C636 1.386 . S
C640 C635 1.490 . S
C640 C642 1.395 . S
C640 C643 1.403 . S
H641 C647 0.930 . S
C642 H628 0.930 . S
C642 C640 1.395 . S
C642 C645 1.403 . S
C643 C640 1.403 . S
C643 C644 1.524 . S
C643 C647 1.400 . S
C644 H629 0.960 . S
C644 H630 0.960 . S
C644 H631 0.960 . S
C644 C643 1.524 . S
C645 C642 1.403 . S
C645 C646 1.392 . S
C645 C649 1.495 . S
C646 C645 1.392 . S
C646 C647 1.385 . S
C646 C648 1.478 . S
C647 H641 0.930 . S
C647 C643 1.400 . S
C647 C646 1.385 . S
C648 C646 1.478 . S
C648 C650 1.381 . S
C648 C654 1.383 . S
C649 C645 1.495 . S
C649 H655 0.959 . S
C649 H656 0.961 . S
C649 H657 0.960 . S
C650 C648 1.381 . S
C650 C651 1.394 . S
C650 H658 0.930 . S
C651 C650 1.394 . S
C651 C652 1.383 . S
C651 H659 0.929 . S
C652 C651 1.383 . S
C652 C653 1.377 . S
C653 H637 0.930 . S
C653 C652 1.377 . S
C653 C654 1.379 . S
C654 H638 0.931 . S
C654 C648 1.383 . S
C654 C653 1.379 . S
H655 C649 0.959 . S
H656 C649 0.961 . S
H657 C649 0.960 . S
H658 C650 0.930 . S
H659 C651 0.929 . S
H660 C668 0.929 . S
H661 C670 0.930 . S
H662 C672 0.930 . S
H663 C675 0.929 . S
H664 C678 0.930 . S
H665 C680 0.960 . S
H666 C680 0.960 . S
H667 C680 0.960 . S
C668 H660 0.929 . S
C668 C669 1.377 . S
C668 C670 1.384 . S
C669 C668 1.377 . S
C669 C675 1.390 . S
C670 H661 0.930 . S
C670 C668 1.384 . S
C670 C671 1.372 . S
C671 C670 1.372 . S
C671 C672 1.400 . S
C671 C676 1.490 . S
C672 H662 0.930 . S
C672 C671 1.400 . S
C672 C675 1.386 . S
H673 C689 0.930 . S
H674 C690 0.931 . S
C675 H663 0.929 . S
C675 C669 1.390 . S
C675 C672 1.386 . S
C676 C671 1.490 . S
C676 C678 1.395 . S
C676 C679 1.403 1_655 S
H677 C683 0.930 . S
C678 H664 0.930 . S
C678 C676 1.395 . S
C678 C681 1.403 . S
C679 C676 1.403 1_455 S
C679 C680 1.524 . S
C679 C683 1.400 . S
C680 H665 0.960 . S
C680 H666 0.960 . S
C680 H667 0.960 . S
C680 C679 1.524 . S
C681 C678 1.403 . S
C681 C682 1.392 1_655 S
C681 C685 1.495 . S
C682 C681 1.392 1_455 S
C682 C683 1.385 . S
C682 C684 1.478 . S
C683 H677 0.930 . S
C683 C679 1.400 . S
C683 C682 1.385 . S
C684 C682 1.478 . S
C684 C686 1.381 . S
C684 C690 1.383 . S
C685 C681 1.495 . S
C685 H691 0.959 . S
C685 H692 0.961 . S
C685 H693 0.960 . S
C686 C684 1.381 . S
C686 C687 1.394 . S
C686 H694 0.930 . S
C687 C686 1.394 . S
C687 C688 1.383 . S
C687 H695 0.929 . S
C688 C687 1.383 . S
C688 C689 1.377 . S
C689 H673 0.930 . S
C689 C688 1.377 . S
C689 C690 1.379 . S
C690 H674 0.931 . S
C690 C684 1.383 . S
C690 C689 1.379 . S
H691 C685 0.959 . S
H692 C685 0.961 . S
H693 C685 0.960 . S
H694 C686 0.930 . S
H695 C687 0.929 . S
H696 C704 0.929 . S
H697 C706 0.930 1_565 S
H698 C708 0.930 . S
H699 C711 0.929 . S
H700 C714 0.930 . S
H701 C716 0.960 . S
H702 C716 0.960 . S
H703 C716 0.960 . S
C704 H696 0.929 . S
C704 C705 1.377 . S
C704 C706 1.384 . S
C705 C704 1.377 . S
C705 C711 1.390 . S
C706 H697 0.930 1_545 S
C706 C704 1.384 . S
C706 C707 1.372 . S
C707 C706 1.372 . S
C707 C708 1.400 . S
C707 C712 1.490 . S
C708 H698 0.930 . S
C708 C707 1.400 . S
C708 C711 1.386 . S
H709 C725 0.930 . S
H710 C726 0.931 1_545 S
C711 H699 0.929 . S
C711 C705 1.390 . S
C711 C708 1.386 . S
C712 C707 1.490 . S
C712 C714 1.395 1_545 S
C712 C715 1.403 . S
H713 C719 0.930 . S
C714 H700 0.930 . S
C714 C712 1.395 1_565 S
C714 C717 1.403 1_554 S
C715 C712 1.403 . S
C715 C716 1.524 . S
C715 C719 1.400 1_544 S
C716 H701 0.960 . S
C716 H702 0.960 . S
C716 H703 0.960 . S
C716 C715 1.524 . S
C717 C714 1.403 1_556 S
C717 C718 1.392 . S
C717 C721 1.495 . S
C718 C717 1.392 . S
C718 C719 1.385 . S
C718 C720 1.478 . S
C719 H713 0.930 . S
C719 C715 1.400 1_566 S
C719 C718 1.385 . S
C720 C718 1.478 . S
C720 C722 1.381 . S
C720 C726 1.383 . S
C721 C717 1.495 . S
C721 H727 0.959 . S
C721 H728 0.961 . S
C721 H729 0.960 . S
C722 C720 1.381 . S
C722 C723 1.394 . S
C722 H730 0.930 . S
C723 C722 1.394 . S
C723 C724 1.383 . S
C723 H731 0.929 . S
C724 C723 1.383 . S
C724 C725 1.377 . S
C725 H709 0.930 . S
C725 C724 1.377 . S
C725 C726 1.379 . S
C726 H710 0.931 1_565 S
C726 C720 1.383 . S
C726 C725 1.379 . S
H727 C721 0.959 . S
H728 C721 0.961 . S
H729 C721 0.960 . S
H730 C722 0.930 . S
H731 C723 0.929 . S
H732 C740 0.929 . S
H733 C742 0.930 . S
H734 C744 0.930 . S
H735 C747 0.929 . S
H736 C750 0.930 . S
H737 C752 0.960 . S
H738 C752 0.960 . S
H739 C752 0.960 . S
C740 H732 0.929 . S
C740 C741 1.377 . S
C740 C742 1.384 . S
C741 C740 1.377 . S
C741 C747 1.390 . S
C742 H733 0.930 . S
C742 C740 1.384 . S
C742 C743 1.372 . S
C743 C742 1.372 . S
C743 C744 1.400 . S
C743 C748 1.490 . S
C744 H734 0.930 . S
C744 C743 1.400 . S
C744 C747 1.386 . S
H745 C761 0.930 . S
H746 C762 0.931 . S
C747 H735 0.929 . S
C747 C741 1.390 . S
C747 C744 1.386 . S
C748 C743 1.490 . S
C748 C750 1.395 . S
C748 C751 1.403 . S
H749 C755 0.930 . S
C750 H736 0.930 . S
C750 C748 1.395 . S
C750 C753 1.403 . S
C751 C748 1.403 . S
C751 C752 1.524 . S
C751 C755 1.400 . S
C752 H737 0.960 . S
C752 H738 0.960 . S
C752 H739 0.960 . S
C752 C751 1.524 . S
C753 C750 1.403 . S
C753 C754 1.392 . S
C753 C757 1.495 . S
C754 C753 1.392 . S
C754 C755 1.385 . S
C754 C756 1.478 . S
C755 H749 0.930 . S
C755 C751 1.400 . S
C755 C754 1.385 . S
C756 C754 1.478 . S
C756 C758 1.381 . S
C756 C762 1.383 . S
C757 C753 1.495 . S
C757 H763 0.959 . S
C757 H764 0.961 . S
C757 H765 0.960 . S
C758 C756 1.381 . S
C758 C759 1.394 . S
C758 H766 0.930 . S
C759 C758 1.394 . S
C759 C760 1.383 . S
C759 H767 0.929 . S
C760 C759 1.383 . S
C760 C761 1.377 . S
C761 H745 0.930 . S
C761 C760 1.377 . S
C761 C762 1.379 . S
C762 H746 0.931 . S
C762 C756 1.383 . S
C762 C761 1.379 . S
H763 C757 0.959 . S
H764 C757 0.961 . S
H765 C757 0.960 . S
H766 C758 0.930 . S
H767 C759 0.929 . S
H768 C776 0.929 . S
H769 C778 0.930 . S
H770 C780 0.930 . S
H771 C783 0.929 . S
H772 C786 0.930 . S
H773 C788 0.960 . S
H774 C788 0.960 . S
H775 C788 0.960 . S
C776 H768 0.929 . S
C776 C777 1.377 . S
C776 C778 1.384 . S
C777 C776 1.377 . S
C777 C783 1.390 . S
C778 H769 0.930 . S
C778 C776 1.384 . S
C778 C779 1.372 . S
C779 C778 1.372 . S
C779 C780 1.400 . S
C779 C784 1.490 . S
C780 H770 0.930 . S
C780 C779 1.400 . S
C780 C783 1.386 . S
H781 C797 0.930 . S
H782 C798 0.931 . S
C783 H771 0.929 . S
C783 C777 1.390 . S
C783 C780 1.386 . S
C784 C779 1.490 . S
C784 C786 1.395 1_455 S
C784 C787 1.403 . S
H785 C791 0.930 . S
C786 H772 0.930 . S
C786 C784 1.395 1_655 S
C786 C789 1.403 . S
C787 C784 1.403 . S
C787 C788 1.524 . S
C787 C791 1.400 . S
C788 H773 0.960 . S
C788 H774 0.960 . S
C788 H775 0.960 . S
C788 C787 1.524 . S
C789 C786 1.403 . S
C789 C790 1.392 . S
C789 C793 1.495 . S
C790 C789 1.392 . S
C790 C791 1.385 1_655 S
C790 C792 1.478 . S
C791 H785 0.930 . S
C791 C787 1.400 . S
C791 C790 1.385 1_455 S
C792 C790 1.478 . S
C792 C794 1.381 . S
C792 C798 1.383 . S
C793 C789 1.495 . S
C793 H799 0.959 . S
C793 H800 0.961 . S
C793 H801 0.960 . S
C794 C792 1.381 . S
C794 C795 1.394 . S
C794 H802 0.930 . S
C795 C794 1.394 . S
C795 C796 1.383 . S
C795 H803 0.929 . S
C796 C795 1.383 . S
C796 C797 1.377 . S
C797 H781 0.930 . S
C797 C796 1.377 . S
C797 C798 1.379 . S
C798 H782 0.931 . S
C798 C792 1.383 . S
C798 C797 1.379 . S
H799 C793 0.959 . S
H800 C793 0.961 . S
H801 C793 0.960 . S
H802 C794 0.930 . S
H803 C795 0.929 . S
H804 C812 0.929 . S
H805 C814 0.930 . S
H806 C816 0.930 . S
H807 C819 0.929 . S
H808 C822 0.930 . S
H809 C824 0.960 1_554 S
H810 C824 0.960 . S
H811 C824 0.960 . S
C812 H804 0.929 . S
C812 C813 1.377 . S
C812 C814 1.384 . S
C813 C812 1.377 . S
C813 C819 1.390 . S
C814 H805 0.930 . S
C814 C812 1.384 . S
C814 C815 1.372 . S
C815 C814 1.372 . S
C815 C816 1.400 . S
C815 C820 1.490 . S
C816 H806 0.930 . S
C816 C815 1.400 . S
C816 C819 1.386 . S
H817 C833 0.930 . S
H818 C834 0.931 . S
C819 H807 0.929 . S
C819 C813 1.390 . S
C819 C816 1.386 . S
C820 C815 1.490 . S
C820 C822 1.395 1_545 S
C820 C823 1.403 . S
H821 C827 0.930 . S
C822 H808 0.930 . S
C822 C820 1.395 1_565 S
C822 C825 1.403 1_556 S
C823 C820 1.403 . S
C823 C824 1.524 . S
C823 C827 1.400 1_556 S
C824 H809 0.960 1_556 S
C824 H810 0.960 . S
C824 H811 0.960 . S
C824 C823 1.524 . S
C825 C822 1.403 1_554 S
C825 C826 1.392 . S
C825 C829 1.495 . S
C826 C825 1.392 . S
C826 C827 1.385 1_565 S
C826 C828 1.478 . S
C827 H821 0.930 . S
C827 C823 1.400 1_554 S
C827 C826 1.385 1_545 S
C828 C826 1.478 . S
C828 C830 1.381 . S
C828 C834 1.383 . S
C829 C825 1.495 . S
C829 H835 0.959 1_554 S
C829 H836 0.961 . S
C829 H837 0.960 . S
C830 C828 1.381 . S
C830 C831 1.394 . S
C830 H838 0.930 . S
C831 C830 1.394 . S
C831 C832 1.383 . S
C831 H839 0.929 . S
C832 C831 1.383 . S
C832 C833 1.377 . S
C833 H817 0.930 . S
C833 C832 1.377 . S
C833 C834 1.379 . S
C834 H818 0.931 . S
C834 C828 1.383 . S
C834 C833 1.379 . S
H835 C829 0.959 1_556 S
H836 C829 0.961 . S
H837 C829 0.960 . S
H838 C830 0.930 . S
H839 C831 0.929 . S
H840 C848 0.929 . S
H841 C850 0.930 . S
H842 C852 0.930 . S
H843 C855 0.929 . S
H844 C858 0.930 . S
H845 C860 0.960 . S
H846 C860 0.960 . S
H847 C860 0.960 . S
C848 H840 0.929 . S
C848 C849 1.377 . S
C848 C850 1.384 . S
C849 C848 1.377 . S
C849 C855 1.390 . S
C850 H841 0.930 . S
C850 C848 1.384 . S
C850 C851 1.372 . S
C851 C850 1.372 . S
C851 C852 1.400 . S
C851 C856 1.490 . S
C852 H842 0.930 . S
C852 C851 1.400 . S
C852 C855 1.386 . S
H853 C869 0.930 . S
H854 C870 0.931 . S
C855 H843 0.929 . S
C855 C849 1.390 . S
C855 C852 1.386 . S
C856 C851 1.490 . S
C856 C858 1.395 . S
C856 C859 1.403 1_455 S
H857 C863 0.930 . S
C858 H844 0.930 . S
C858 C856 1.395 . S
C858 C861 1.403 1_545 S
C859 C856 1.403 1_655 S
C859 C860 1.524 . S
C859 C863 1.400 1_545 S
C860 H845 0.960 . S
C860 H846 0.960 . S
C860 H847 0.960 . S
C860 C859 1.524 . S
C861 C858 1.403 1_565 S
C861 C862 1.392 1_455 S
C861 C865 1.495 . S
C862 C861 1.392 1_655 S
C862 C863 1.385 . S
C862 C864 1.478 . S
C863 H857 0.930 . S
C863 C859 1.400 1_565 S
C863 C862 1.385 . S
C864 C862 1.478 . S
C864 C866 1.381 . S
C864 C870 1.383 . S
C865 C861 1.495 . S
C865 H871 0.959 . S
C865 H872 0.961 . S
C865 H873 0.960 . S
C866 C864 1.381 . S
C866 C867 1.394 . S
C866 H874 0.930 . S
C867 C866 1.394 . S
C867 C868 1.383 . S
C867 H875 0.929 . S
C868 C867 1.383 . S
C868 C869 1.377 . S
C869 H853 0.930 . S
C869 C868 1.377 . S
C869 C870 1.379 . S
C870 H854 0.931 . S
C870 C864 1.383 . S
C870 C869 1.379 . S
H871 C865 0.959 . S
H872 C865 0.961 . S
H873 C865 0.960 . S
H874 C866 0.930 . S
H875 C867 0.929 . S
H876 C884 0.929 . S
H877 C886 0.930 . S
H878 C888 0.930 . S
H879 C891 0.929 1_455 S
H880 C894 0.930 . S
H881 C896 0.960 . S
H882 C896 0.960 . S
H883 C896 0.960 . S
C884 H876 0.929 . S
C884 C885 1.377 . S
C884 C886 1.384 . S
C885 C884 1.377 . S
C885 C891 1.390 . S
C886 H877 0.930 . S
C886 C884 1.384 . S
C886 C887 1.372 . S
C887 C886 1.372 . S
C887 C888 1.400 1_655 S
C887 C892 1.490 . S
C888 H878 0.930 . S
C888 C887 1.400 1_455 S
C888 C891 1.386 1_455 S
H889 C905 0.930 . S
H890 C906 0.931 . S
C891 H879 0.929 1_655 S
C891 C885 1.390 . S
C891 C888 1.386 1_655 S
C892 C887 1.490 . S
C892 C894 1.395 . S
C892 C895 1.403 . S
H893 C899 0.934 . S
C894 H880 0.930 . S
C894 C892 1.395 . S
C894 C897 1.403 1_645 S
C895 C892 1.403 . S
C895 C896 1.524 . S
C895 C899 1.393 1_645 S
C896 H881 0.960 . S
C896 H882 0.960 . S
C896 H883 0.960 . S
C896 C895 1.524 . S
C897 C894 1.403 1_465 S
C897 C898 1.392 . S
C897 C901 1.495 . S
C898 C897 1.392 . S
C898 C899 1.389 . S
C898 C900 1.478 . S
C899 H893 0.934 . S
C899 C895 1.393 1_465 S
C899 C898 1.389 . S
C900 C898 1.478 . S
C900 C902 1.381 1_455 S
C900 C906 1.383 . S
C901 C897 1.495 . S
C901 H907 0.959 . S
C901 H908 0.961 . S
C901 H909 0.960 1_455 S
C902 C900 1.381 1_655 S
C902 C903 1.394 1_655 S
C902 H910 0.930 . S
C903 C902 1.394 1_455 S
C903 C904 1.383 . S
C903 H911 0.929 1_455 S
C904 C903 1.383 . S
C904 C905 1.377 . S
C905 H889 0.930 . S
C905 C904 1.377 . S
C905 C906 1.379 . S
C906 H890 0.931 . S
C906 C900 1.383 . S
C906 C905 1.379 . S
H907 C901 0.959 . S
H908 C901 0.961 . S
H909 C901 0.960 1_655 S
H910 C902 0.930 . S
H911 C903 0.929 1_655 S
H912 C920 0.929 . S
H913 C922 0.930 . S
H914 C924 0.930 1_565 S
H915 C927 0.929 . S
H916 C930 0.930 . S
H917 C932 0.960 . S
H918 C932 0.960 . S
H919 C932 0.960 . S
C920 H912 0.929 . S
C920 C921 1.377 . S
C920 C922 1.384 . S
C921 C920 1.377 . S
C921 C927 1.390 . S
C922 H913 0.930 . S
C922 C920 1.384 . S
C922 C923 1.372 . S
C923 C922 1.372 . S
C923 C924 1.400 . S
C923 C928 1.490 . S
C924 H914 0.930 1_545 S
C924 C923 1.400 . S
C924 C927 1.386 . S
H925 C941 0.930 . S
H926 C942 0.931 . S
C927 H915 0.929 . S
C927 C921 1.390 . S
C927 C924 1.386 . S
C928 C923 1.490 . S
C928 C930 1.395 1_545 S
C928 C931 1.403 . S
H929 C935 0.930 . S
C930 H916 0.930 . S
C930 C928 1.395 1_565 S
C930 C933 1.403 1_455 S
C931 C928 1.403 . S
C931 C932 1.524 . S
C931 C935 1.400 1_455 S
C932 H917 0.960 . S
C932 H918 0.960 . S
C932 H919 0.960 . S
C932 C931 1.524 . S
C933 C930 1.403 1_655 S
C933 C934 1.392 . S
C933 C937 1.495 . S
C934 C933 1.392 . S
C934 C935 1.385 1_565 S
C934 C936 1.478 . S
C935 H929 0.930 . S
C935 C931 1.400 1_655 S
C935 C934 1.385 1_545 S
C936 C934 1.478 . S
C936 C938 1.381 . S
C936 C942 1.383 . S
C937 C933 1.495 . S
C937 H943 0.959 . S
C937 H944 0.961 . S
C937 H945 0.960 . S
C938 C936 1.381 . S
C938 C939 1.394 . S
C938 H946 0.930 1_565 S
C939 C938 1.394 . S
C939 C940 1.383 . S
C939 H947 0.929 . S
C940 C939 1.383 . S
C940 C941 1.377 . S
C941 H925 0.930 . S
C941 C940 1.377 . S
C941 C942 1.379 . S
C942 H926 0.931 . S
C942 C936 1.383 . S
C942 C941 1.379 . S
H943 C937 0.959 . S
H944 C937 0.961 . S
H945 C937 0.960 . S
H946 C938 0.930 1_545 S
H947 C939 0.929 . S
H948 C956 0.929 . S
H949 C958 0.930 . S
H950 C960 0.930 . S
H951 C963 0.929 . S
H952 C966 0.930 . S
H953 C968 0.960 1_455 S
H954 C968 0.960 . S
H955 C968 0.960 . S
C956 H948 0.929 . S
C956 C957 1.377 . S
C956 C958 1.384 . S
C957 C956 1.377 . S
C957 C963 1.390 . S
C958 H949 0.930 . S
C958 C956 1.384 . S
C958 C959 1.372 . S
C959 C958 1.372 . S
C959 C960 1.400 . S
C959 C964 1.490 . S
C960 H950 0.930 . S
C960 C959 1.400 . S
C960 C963 1.386 . S
H961 C977 0.930 . S
H962 C978 0.931 . S
C963 H951 0.929 . S
C963 C957 1.390 . S
C963 C960 1.386 . S
C964 C959 1.490 . S
C964 C966 1.395 1_565 S
C964 C967 1.403 . S
H965 C971 0.930 . S
C966 H952 0.930 . S
C966 C964 1.395 1_545 S
C966 C969 1.403 1_655 S
C967 C964 1.403 . S
C967 C968 1.524 . S
C967 C971 1.400 1_655 S
C968 H953 0.960 1_655 S
C968 H954 0.960 . S
C968 H955 0.960 . S
C968 C967 1.524 . S
C969 C966 1.403 1_455 S
C969 C970 1.392 . S
C969 C973 1.495 . S
C970 C969 1.392 . S
C970 C971 1.385 1_545 S
C970 C972 1.478 . S
C971 H965 0.930 . S
C971 C967 1.400 1_455 S
C971 C970 1.385 1_565 S
C972 C970 1.478 . S
C972 C974 1.381 . S
C972 C978 1.383 . S
C973 C969 1.495 . S
C973 H979 0.959 1_455 S
C973 H980 0.961 . S
C973 H981 0.960 . S
C974 C972 1.381 . S
C974 C975 1.394 . S
C974 H982 0.930 . S
C975 C974 1.394 . S
C975 C976 1.383 . S
C975 H983 0.929 . S
C976 C975 1.383 . S
C976 C977 1.377 . S
C977 H961 0.930 . S
C977 C976 1.377 . S
C977 C978 1.379 . S
C978 H962 0.931 . S
C978 C972 1.383 . S
C978 C977 1.379 . S
H979 C973 0.959 1_655 S
H980 C973 0.961 . S
H981 C973 0.960 . S
H982 C974 0.930 . S
H983 C975 0.929 . S
H984 C992 0.929 . S
H985 C994 0.930 . S
H986 C996 0.930 . S
H987 C999 0.929 . S
H988 C1002 0.930 . S
H989 C1004 0.960 . S
H990 C1004 0.960 . S
H991 C1004 0.960 . S
C992 H984 0.929 . S
C992 C993 1.377 . S
C992 C994 1.384 . S
C993 C992 1.377 . S
C993 C999 1.390 . S
C994 H985 0.930 . S
C994 C992 1.384 . S
C994 C995 1.372 . S
C995 C994 1.372 . S
C995 C996 1.400 . S
C995 C1000 1.490 . S
C996 H986 0.930 . S
C996 C995 1.400 . S
C996 C999 1.386 . S
H997 C1013 0.930 . S
H998 C1014 0.931 . S
C999 H987 0.929 . S
C999 C993 1.390 . S
C999 C996 1.386 . S
C1000 C995 1.490 . S
C1000 C1002 1.395 1_655 S
C1000 C1003 1.403 . S
H1001 C1007 0.930 . S
C1002 H988 0.930 . S
C1002 C1000 1.395 1_455 S
C1002 C1005 1.403 1_565 S
C1003 C1000 1.403 . S
C1003 C1004 1.524 . S
C1003 C1007 1.400 1_565 S
C1004 H989 0.960 . S
C1004 H990 0.960 . S
C1004 H991 0.960 . S
C1004 C1003 1.524 . S
C1005 C1002 1.403 1_545 S
C1005 C1006 1.392 . S
C1005 C1009 1.495 . S
C1006 C1005 1.392 . S
C1006 C1007 1.385 1_455 S
C1006 C1008 1.478 . S
C1007 H1001 0.930 . S
C1007 C1003 1.400 1_545 S
C1007 C1006 1.385 1_655 S
C1008 C1006 1.478 . S
C1008 C1010 1.381 . S
C1008 C1014 1.383 . S
C1009 C1005 1.495 . S
C1009 H1015 0.959 . S
C1009 H1016 0.961 . S
C1009 H1017 0.960 . S
C1010 C1008 1.381 . S
C1010 C1011 1.394 . S
C1010 H1018 0.930 . S
C1011 C1010 1.394 . S
C1011 C1012 1.383 . S
C1011 H1019 0.929 . S
C1012 C1011 1.383 . S
C1012 C1013 1.377 . S
C1013 H997 0.930 . S
C1013 C1012 1.377 . S
C1013 C1014 1.379 . S
C1014 H998 0.931 . S
C1014 C1008 1.383 . S
C1014 C1013 1.379 . S
H1015 C1009 0.959 . S
H1016 C1009 0.961 . S
H1017 C1009 0.960 . S
H1018 C1010 0.930 . S
H1019 C1011 0.929 . S
H1020 C1028 0.929 . S
H1021 C1030 0.930 1_565 S
H1022 C1032 0.930 . S
H1023 C1035 0.929 . S
H1024 C1038 0.930 . S
H1025 C1040 0.960 . S
H1026 C1040 0.960 . S
H1027 C1040 0.960 . S
C1028 H1020 0.929 . S
C1028 C1029 1.377 . S
C1028 C1030 1.384 . S
C1029 C1028 1.377 . S
C1029 C1035 1.390 . S
C1030 H1021 0.930 1_545 S
C1030 C1028 1.384 . S
C1030 C1031 1.372 . S
C1031 C1030 1.372 . S
C1031 C1032 1.400 . S
C1031 C1036 1.490 . S
C1032 H1022 0.930 . S
C1032 C1031 1.400 . S
C1032 C1035 1.386 . S
H1033 C1049 0.930 . S
H1034 C1050 0.931 . S
C1035 H1023 0.929 . S
C1035 C1029 1.390 . S
C1035 C1032 1.386 . S
C1036 C1031 1.490 . S
C1036 C1038 1.395 1_545 S
C1036 C1039 1.403 1_655 S
H1037 C1043 0.930 . S
C1038 H1024 0.930 . S
C1038 C1036 1.395 1_565 S
C1038 C1041 1.403 . S
C1039 C1036 1.403 1_455 S
C1039 C1040 1.524 . S
C1039 C1043 1.400 . S
C1040 H1025 0.960 . S
C1040 H1026 0.960 . S
C1040 H1027 0.960 . S
C1040 C1039 1.524 . S
C1041 C1038 1.403 . S
C1041 C1042 1.392 1_655 S
C1041 C1045 1.495 . S
C1042 C1041 1.392 1_455 S
C1042 C1043 1.385 1_565 S
C1042 C1044 1.478 . S
C1043 H1037 0.930 . S
C1043 C1039 1.400 . S
C1043 C1042 1.385 1_545 S
C1044 C1042 1.478 . S
C1044 C1046 1.381 . S
C1044 C1050 1.383 . S
C1045 C1041 1.495 . S
C1045 H1051 0.959 . S
C1045 H1052 0.961 . S
C1045 H1053 0.960 . S
C1046 C1044 1.381 . S
C1046 C1047 1.394 . S
C1046 H1054 0.930 . S
C1047 C1046 1.394 . S
C1047 C1048 1.383 . S
C1047 H1055 0.929 . S
C1048 C1047 1.383 . S
C1048 C1049 1.377 . S
C1049 H1033 0.930 . S
C1049 C1048 1.377 . S
C1049 C1050 1.379 . S
C1050 H1034 0.931 . S
C1050 C1044 1.383 . S
C1050 C1049 1.379 . S
H1051 C1045 0.959 . S
H1052 C1045 0.961 . S
H1053 C1045 0.960 . S
H1054 C1046 0.930 . S
H1055 C1047 0.929 . S
H1056 C1064 0.929 . S
H1057 C1066 0.930 . S
H1058 C1068 0.930 . S
H1059 C1071 0.929 . S
H1060 C1074 0.930 . S
H1061 C1076 0.960 . S
H1062 C1076 0.960 . S
H1063 C1076 0.960 . S
C1064 H1056 0.929 . S
C1064 C1065 1.377 . S
C1064 C1066 1.384 . S
C1065 C1064 1.377 . S
C1065 C1071 1.390 . S
C1066 H1057 0.930 . S
C1066 C1064 1.384 . S
C1066 C1067 1.372 . S
C1067 C1066 1.372 . S
C1067 C1068 1.400 . S
C1067 C1072 1.490 . S
C1068 H1058 0.930 . S
C1068 C1067 1.400 . S
C1068 C1071 1.386 . S
H1069 C1085 0.930 . S
H1070 C1086 0.931 . S
C1071 H1059 0.929 . S
C1071 C1065 1.390 . S
C1071 C1068 1.386 . S
C1072 C1067 1.490 . S
C1072 C1074 1.395 1_655 S
C1072 C1075 1.403 . S
H1073 C1079 0.928 . S
C1074 H1060 0.930 . S
C1074 C1072 1.395 1_455 S
C1074 C1077 1.403 . S
C1075 C1072 1.403 . S
C1075 C1076 1.524 . S
C1075 C1079 1.400 1_655 S
C1076 H1061 0.960 . S
C1076 H1062 0.960 . S
C1076 H1063 0.960 . S
C1076 C1075 1.524 . S
C1077 C1074 1.403 . S
C1077 C1078 1.392 . S
C1077 C1081 1.495 . S
C1078 C1077 1.392 . S
C1078 C1079 1.385 . S
C1078 C1080 1.478 . S
C1079 H1073 0.928 . S
C1079 C1075 1.400 1_455 S
C1079 C1078 1.385 . S
C1080 C1078 1.478 . S
C1080 C1082 1.381 . S
C1080 C1086 1.383 . S
C1081 C1077 1.495 . S
C1081 H1087 0.959 . S
C1081 H1088 0.961 . S
C1081 H1089 0.960 . S
C1082 C1080 1.381 . S
C1082 C1083 1.394 . S
C1082 H1090 0.930 . S
C1083 C1082 1.394 . S
C1083 C1084 1.383 . S
C1083 H1091 0.929 . S
C1084 C1083 1.383 . S
C1084 C1085 1.377 . S
C1085 H1069 0.930 . S
C1085 C1084 1.377 . S
C1085 C1086 1.379 . S
C1086 H1070 0.931 . S
C1086 C1080 1.383 . S
C1086 C1085 1.379 . S
H1087 C1081 0.959 . S
H1088 C1081 0.961 . S
H1089 C1081 0.960 . S
H1090 C1082 0.930 . S
H1091 C1083 0.929 . S
H1092 C1100 0.929 . S
H1093 C1102 0.930 . S
H1094 C1104 0.930 . S
H1095 C1107 0.929 . S
H1096 C1110 0.930 . S
H1097 C1112 0.960 . S
H1098 C1112 0.960 . S
H1099 C1112 0.960 . S
C1100 H1092 0.929 . S
C1100 C1101 1.377 . S
C1100 C1102 1.384 . S
C1101 C1100 1.377 . S
C1101 C1107 1.390 . S
C1102 H1093 0.930 . S
C1102 C1100 1.384 . S
C1102 C1103 1.372 . S
C1103 C1102 1.372 . S
C1103 C1104 1.400 . S
C1103 C1108 1.490 . S
C1104 H1094 0.930 . S
C1104 C1103 1.400 . S
C1104 C1107 1.386 . S
H1105 C1121 0.930 . S
H1106 C1122 0.931 . S
C1107 H1095 0.929 . S
C1107 C1101 1.390 . S
C1107 C1104 1.386 . S
C1108 C1103 1.490 . S
C1108 C1110 1.395 . S
C1108 C1111 1.403 . S
H1109 C1115 0.930 . S
C1110 H1096 0.930 . S
C1110 C1108 1.395 . S
C1110 C1113 1.403 1_545 S
C1111 C1108 1.403 . S
C1111 C1112 1.524 . S
C1111 C1115 1.400 1_545 S
C1112 H1097 0.960 . S
C1112 H1098 0.960 . S
C1112 H1099 0.960 . S
C1112 C1111 1.524 . S
C1113 C1110 1.403 1_565 S
C1113 C1114 1.392 . S
C1113 C1117 1.495 . S
C1114 C1113 1.392 . S
C1114 C1115 1.385 . S
C1114 C1116 1.478 . S
C1115 H1109 0.930 . S
C1115 C1111 1.400 1_565 S
C1115 C1114 1.385 . S
C1116 C1114 1.478 . S
C1116 C1118 1.381 . S
C1116 C1122 1.383 . S
C1117 C1113 1.495 . S
C1117 H1123 0.959 . S
C1117 H1124 0.961 . S
C1117 H1125 0.960 . S
C1118 C1116 1.381 . S
C1118 C1119 1.394 . S
C1118 H1126 0.930 . S
C1119 C1118 1.394 . S
C1119 C1120 1.383 . S
C1119 H1127 0.929 . S
C1120 C1119 1.383 . S
C1120 C1121 1.377 . S
C1121 H1105 0.930 . S
C1121 C1120 1.377 . S
C1121 C1122 1.379 . S
C1122 H1106 0.931 . S
C1122 C1116 1.383 . S
C1122 C1121 1.379 . S
H1123 C1117 0.959 . S
H1124 C1117 0.961 . S
H1125 C1117 0.960 . S
H1126 C1118 0.930 . S
H1127 C1119 0.929 . S
H1128 C1136 0.929 . S
H1129 C1138 0.930 . S
H1130 C1140 0.930 . S
H1131 C1143 0.929 . S
H1132 C1146 0.930 . S
H1133 C1148 0.960 . S
H1134 C1148 0.960 . S
H1135 C1148 0.960 . S
C1136 H1128 0.929 . S
C1136 C1137 1.377 . S
C1136 C1138 1.384 . S
C1137 C1136 1.377 . S
C1137 C1143 1.390 . S
C1138 H1129 0.930 . S
C1138 C1136 1.384 . S
C1138 C1139 1.372 . S
C1139 C1138 1.372 . S
C1139 C1140 1.400 . S
C1139 C1144 1.490 . S
C1140 H1130 0.930 . S
C1140 C1139 1.400 . S
C1140 C1143 1.386 . S
H1141 C1157 0.930 . S
H1142 C1158 0.931 . S
C1143 H1131 0.929 . S
C1143 C1137 1.390 . S
C1143 C1140 1.386 . S
C1144 C1139 1.490 . S
C1144 C1146 1.395 . S
C1144 C1147 1.403 . S
H1145 C1151 0.930 . S
C1146 H1132 0.930 . S
C1146 C1144 1.395 . S
C1146 C1149 1.403 . S
C1147 C1144 1.403 . S
C1147 C1148 1.524 . S
C1147 C1151 1.400 . S
C1148 H1133 0.960 . S
C1148 H1134 0.960 . S
C1148 H1135 0.960 . S
C1148 C1147 1.524 . S
C1149 C1146 1.403 . S
C1149 C1150 1.392 . S
C1149 C1153 1.495 . S
C1150 C1149 1.392 . S
C1150 C1151 1.385 . S
C1150 C1152 1.478 . S
C1151 H1145 0.930 . S
C1151 C1147 1.400 . S
C1151 C1150 1.385 . S
C1152 C1150 1.478 . S
C1152 C1154 1.381 . S
C1152 C1158 1.383 . S
C1153 C1149 1.495 . S
C1153 H1159 0.959 . S
C1153 H1160 0.961 . S
C1153 H1161 0.960 . S
C1154 C1152 1.381 . S
C1154 C1155 1.394 . S
C1154 H1162 0.930 . S
C1155 C1154 1.394 . S
C1155 C1156 1.383 . S
C1155 H1163 0.929 . S
C1156 C1155 1.383 . S
C1156 C1157 1.377 . S
C1157 H1141 0.930 . S
C1157 C1156 1.377 . S
C1157 C1158 1.379 . S
C1158 H1142 0.931 . S
C1158 C1152 1.383 . S
C1158 C1157 1.379 . S
H1159 C1153 0.959 . S
H1160 C1153 0.961 . S
H1161 C1153 0.960 . S
H1162 C1154 0.930 . S
H1163 C1155 0.929 . S
H1164 C1172 0.929 . S
H1165 C1174 0.930 . S
H1166 C1176 0.930 . S
H1167 C1179 0.929 . S
H1168 C1182 0.930 . S
H1169 C1184 0.960 . S
H1170 C1184 0.960 . S
H1171 C1184 0.960 . S
C1172 H1164 0.929 . S
C1172 C1173 1.377 . S
C1172 C1174 1.384 . S
C1173 C1172 1.377 . S
C1173 C1179 1.390 . S
C1174 H1165 0.930 . S
C1174 C1172 1.384 . S
C1174 C1175 1.372 . S
C1175 C1174 1.372 . S
C1175 C1176 1.400 . S
C1175 C1180 1.490 . S
C1176 H1166 0.930 . S
C1176 C1175 1.400 . S
C1176 C1179 1.386 . S
H1177 C1193 0.930 . S
H1178 C1194 0.931 . S
C1179 H1167 0.929 . S
C1179 C1173 1.390 . S
C1179 C1176 1.386 . S
C1180 C1175 1.490 . S
C1180 C1182 1.395 1_455 S
C1180 C1183 1.403 . S
H1181 C1187 0.930 . S
C1182 H1168 0.930 . S
C1182 C1180 1.395 1_655 S
C1182 C1185 1.403 . S
C1183 C1180 1.403 . S
C1183 C1184 1.524 . S
C1183 C1187 1.399 . S
C1184 H1169 0.960 . S
C1184 H1170 0.960 . S
C1184 H1171 0.960 . S
C1184 C1183 1.524 . S
C1185 C1182 1.403 . S
C1185 C1186 1.392 . S
C1185 C1189 1.495 . S
C1186 C1185 1.392 . S
C1186 C1187 1.386 1_655 S
C1186 C1188 1.478 . S
C1187 H1181 0.930 . S
C1187 C1183 1.399 . S
C1187 C1186 1.386 1_455 S
C1188 C1186 1.478 . S
C1188 C1190 1.381 . S
C1188 C1194 1.383 . S
C1189 C1185 1.495 . S
C1189 H1195 0.959 . S
C1189 H1196 0.961 . S
C1189 H1197 0.960 . S
C1190 C1188 1.381 . S
C1190 C1191 1.394 . S
C1190 H1198 0.930 . S
C1191 C1190 1.394 . S
C1191 C1192 1.383 . S
C1191 H1199 0.929 . S
C1192 C1191 1.383 . S
C1192 C1193 1.377 . S
C1193 H1177 0.930 . S
C1193 C1192 1.377 . S
C1193 C1194 1.379 . S
C1194 H1178 0.931 . S
C1194 C1188 1.383 . S
C1194 C1193 1.379 . S
H1195 C1189 0.959 . S
H1196 C1189 0.961 . S
H1197 C1189 0.960 . S
H1198 C1190 0.930 . S
H1199 C1191 0.929 . S
H1200 C1208 0.929 . S
H1201 C1210 0.930 . S
H1202 C1212 0.930 . S
H1203 C1215 0.929 . S
H1204 C1218 0.930 . S
H1205 C1220 0.960 . S
H1206 C1220 0.960 . S
H1207 C1220 0.960 . S
C1208 H1200 0.929 . S
C1208 C1209 1.377 . S
C1208 C1210 1.384 . S
C1209 C1208 1.377 . S
C1209 C1215 1.390 . S
C1210 H1201 0.930 . S
C1210 C1208 1.384 . S
C1210 C1211 1.372 . S
C1211 C1210 1.372 . S
C1211 C1212 1.400 . S
C1211 C1216 1.490 . S
C1212 H1202 0.930 . S
C1212 C1211 1.400 . S
C1212 C1215 1.386 . S
H1213 C1229 0.930 . S
H1214 C1230 0.931 . S
C1215 H1203 0.929 . S
C1215 C1209 1.390 . S
C1215 C1212 1.386 . S
C1216 C1211 1.490 . S
C1216 C1218 1.395 1_565 S
C1216 C1219 1.403 . S
H1217 C1223 0.933 1_565 S
C1218 H1204 0.930 . S
C1218 C1216 1.395 1_545 S
C1218 C1221 1.403 . S
C1219 C1216 1.403 . S
C1219 C1220 1.524 . S
C1219 C1223 1.382 1_565 S
C1220 H1205 0.960 . S
C1220 H1206 0.960 . S
C1220 H1207 0.960 . S
C1220 C1219 1.524 . S
C1221 C1218 1.403 . S
C1221 C1222 1.392 . S
C1221 C1225 1.495 . S
C1222 C1221 1.392 . S
C1222 C1223 1.401 . S
C1222 C1224 1.478 . S
C1223 H1217 0.933 1_545 S
C1223 C1219 1.382 1_545 S
C1223 C1222 1.401 . S
C1224 C1222 1.478 . S
C1224 C1226 1.381 . S
C1224 C1230 1.383 . S
C1225 C1221 1.495 . S
C1225 H1231 0.959 . S
C1225 H1232 0.961 . S
C1225 H1233 0.960 . S
C1226 C1224 1.381 . S
C1226 C1227 1.394 . S
C1226 H1234 0.930 . S
C1227 C1226 1.394 . S
C1227 C1228 1.383 . S
C1227 H1235 0.929 . S
C1228 C1227 1.383 . S
C1228 C1229 1.377 . S
C1229 H1213 0.930 . S
C1229 C1228 1.377 . S
C1229 C1230 1.379 . S
C1230 H1214 0.931 . S
C1230 C1224 1.383 . S
C1230 C1229 1.379 . S
H1231 C1225 0.959 . S
H1232 C1225 0.961 . S
H1233 C1225 0.960 . S
H1234 C1226 0.930 . S
H1235 C1227 0.929 . S
H1236 C1244 0.929 . S
H1237 C1246 0.930 . S
H1238 C1248 0.930 . S
H1239 C1251 0.929 . S
H1240 C1254 0.930 . S
H1241 C1256 0.960 . S
H1242 C1256 0.960 . S
H1243 C1256 0.960 . S
C1244 H1236 0.929 . S
C1244 C1245 1.377 . S
C1244 C1246 1.384 . S
C1245 C1244 1.377 . S
C1245 C1251 1.390 . S
C1246 H1237 0.930 . S
C1246 C1244 1.384 . S
C1246 C1247 1.372 . S
C1247 C1246 1.372 . S
C1247 C1248 1.400 . S
C1247 C1252 1.490 . S
C1248 H1238 0.930 . S
C1248 C1247 1.400 . S
C1248 C1251 1.386 . S
H1249 C1265 0.930 . S
H1250 C1266 0.931 . S
C1251 H1239 0.929 . S
C1251 C1245 1.390 . S
C1251 C1248 1.386 . S
C1252 C1247 1.490 . S
C1252 C1254 1.395 . S
C1252 C1255 1.403 . S
H1253 C1259 0.930 . S
C1254 H1240 0.930 . S
C1254 C1252 1.395 . S
C1254 C1257 1.403 . S
C1255 C1252 1.403 . S
C1255 C1256 1.524 . S
C1255 C1259 1.400 . S
C1256 H1241 0.960 . S
C1256 H1242 0.960 . S
C1256 H1243 0.960 . S
C1256 C1255 1.524 . S
C1257 C1254 1.403 . S
C1257 C1258 1.392 . S
C1257 C1261 1.495 . S
C1258 C1257 1.392 . S
C1258 C1259 1.385 . S
C1258 C1260 1.478 . S
C1259 H1253 0.930 . S
C1259 C1255 1.400 . S
C1259 C1258 1.385 . S
C1260 C1258 1.478 . S
C1260 C1262 1.381 . S
C1260 C1266 1.383 . S
C1261 C1257 1.495 . S
C1261 H1267 0.959 . S
C1261 H1268 0.961 . S
C1261 H1269 0.960 . S
C1262 C1260 1.381 . S
C1262 C1263 1.394 . S
C1262 H1270 0.930 . S
C1263 C1262 1.394 . S
C1263 C1264 1.383 . S
C1263 H1271 0.929 . S
C1264 C1263 1.383 . S
C1264 C1265 1.377 . S
C1265 H1249 0.930 . S
C1265 C1264 1.377 . S
C1265 C1266 1.379 . S
C1266 H1250 0.931 . S
C1266 C1260 1.383 . S
C1266 C1265 1.379 . S
H1267 C1261 0.959 . S
H1268 C1261 0.961 . S
H1269 C1261 0.960 . S
H1270 C1262 0.930 . S
H1271 C1263 0.929 . S
H1272 C1280 0.929 . S
H1273 C1282 0.930 . S
H1274 C1284 0.930 . S
H1275 C1287 0.929 . S
H1276 C1290 0.930 . S
H1277 C1292 0.960 . S
H1278 C1292 0.960 . S
H1279 C1292 0.960 . S
C1280 H1272 0.929 . S
C1280 C1281 1.377 . S
C1280 C1282 1.384 . S
C1281 C1280 1.377 . S
C1281 C1287 1.390 . S
C1282 H1273 0.930 . S
C1282 C1280 1.384 . S
C1282 C1283 1.372 . S
C1283 C1282 1.372 . S
C1283 C1284 1.400 . S
C1283 C1288 1.490 . S
C1284 H1274 0.930 . S
C1284 C1283 1.400 . S
C1284 C1287 1.386 . S
H1285 C1301 0.930 . S
H1286 C1302 0.931 . S
C1287 H1275 0.929 . S
C1287 C1281 1.390 . S
C1287 C1284 1.386 . S
C1288 C1283 1.490 . S
C1288 C1290 1.395 . S
C1288 C1291 1.403 . S
H1289 C1295 0.930 . S
C1290 H1276 0.930 . S
C1290 C1288 1.395 . S
C1290 C1293 1.403 . S
C1291 C1288 1.403 . S
C1291 C1292 1.524 . S
C1291 C1295 1.400 . S
C1292 H1277 0.960 . S
C1292 H1278 0.960 . S
C1292 H1279 0.960 . S
C1292 C1291 1.524 . S
C1293 C1290 1.403 . S
C1293 C1294 1.392 . S
C1293 C1297 1.495 . S
C1294 C1293 1.392 . S
C1294 C1295 1.385 . S
C1294 C1296 1.478 . S
C1295 H1289 0.930 . S
C1295 C1291 1.400 . S
C1295 C1294 1.385 . S
C1296 C1294 1.478 . S
C1296 C1298 1.381 . S
C1296 C1302 1.383 . S
C1297 C1293 1.495 . S
C1297 H1303 0.959 . S
C1297 H1304 0.961 . S
C1297 H1305 0.960 . S
C1298 C1296 1.381 . S
C1298 C1299 1.394 . S
C1298 H1306 0.930 . S
C1299 C1298 1.394 . S
C1299 C1300 1.383 . S
C1299 H1307 0.929 . S
C1300 C1299 1.383 . S
C1300 C1301 1.377 1_545 S
C1301 H1285 0.930 . S
C1301 C1300 1.377 1_565 S
C1301 C1302 1.379 1_565 S
C1302 H1286 0.931 . S
C1302 C1296 1.383 . S
C1302 C1301 1.379 1_545 S
H1303 C1297 0.959 . S
H1304 C1297 0.961 . S
H1305 C1297 0.960 . S
H1306 C1298 0.930 . S
H1307 C1299 0.929 . S
H1308 C1316 0.929 1_655 S
H1309 C1318 0.930 . S
H1310 C1320 0.930 . S
H1311 C1323 0.929 . S
H1312 C1326 0.930 . S
H1313 C1328 0.960 . S
H1314 C1328 0.960 . S
H1315 C1328 0.960 . S
C1316 H1308 0.929 1_455 S
C1316 C1317 1.377 . S
C1316 C1318 1.384 . S
C1317 C1316 1.377 . S
C1317 C1323 1.390 . S
C1318 H1309 0.930 . S
C1318 C1316 1.384 . S
C1318 C1319 1.372 . S
C1319 C1318 1.372 . S
C1319 C1320 1.400 . S
C1319 C1324 1.490 . S
C1320 H1310 0.930 . S
C1320 C1319 1.400 . S
C1320 C1323 1.386 . S
H1321 C1337 0.930 . S
H1322 C1338 0.931 . S
C1323 H1311 0.929 . S
C1323 C1317 1.390 . S
C1323 C1320 1.386 . S
C1324 C1319 1.490 . S
C1324 C1326 1.395 . S
C1324 C1327 1.403 . S
H1325 C1331 0.930 . S
C1326 H1312 0.930 . S
C1326 C1324 1.395 . S
C1326 C1329 1.403 . S
C1327 C1324 1.403 . S
C1327 C1328 1.524 . S
C1327 C1331 1.400 . S
C1328 H1313 0.960 . S
C1328 H1314 0.960 . S
C1328 H1315 0.960 . S
C1328 C1327 1.524 . S
C1329 C1326 1.403 . S
C1329 C1330 1.392 . S
C1329 C1333 1.495 . S
C1330 C1329 1.392 . S
C1330 C1331 1.385 . S
C1330 C1332 1.478 . S
C1331 H1325 0.930 . S
C1331 C1327 1.400 . S
C1331 C1330 1.385 . S
C1332 C1330 1.478 . S
C1332 C1334 1.381 . S
C1332 C1338 1.383 . S
C1333 C1329 1.495 . S
C1333 H1339 0.959 . S
C1333 H1340 0.961 . S
C1333 H1341 0.960 . S
C1334 C1332 1.381 . S
C1334 C1335 1.394 . S
C1334 H1342 0.930 . S
C1335 C1334 1.394 . S
C1335 C1336 1.383 . S
C1335 H1343 0.929 . S
C1336 C1335 1.383 . S
C1336 C1337 1.377 . S
C1337 H1321 0.930 . S
C1337 C1336 1.377 . S
C1337 C1338 1.379 . S
C1338 H1322 0.931 . S
C1338 C1332 1.383 . S
C1338 C1337 1.379 . S
H1339 C1333 0.959 . S
H1340 C1333 0.961 . S
H1341 C1333 0.960 . S
H1342 C1334 0.930 . S
H1343 C1335 0.929 . S
H1344 C1352 0.929 1_455 S
H1345 C1354 0.930 . S
H1346 C1356 0.930 . S
H1347 C1359 0.929 . S
H1348 C1362 0.930 . S
H1349 C1364 0.960 . S
H1350 C1364 0.960 . S
H1351 C1364 0.960 . S
C1352 H1344 0.929 1_655 S
C1352 C1353 1.377 . S
C1352 C1354 1.384 . S
C1353 C1352 1.377 . S
C1353 C1359 1.390 . S
C1354 H1345 0.930 . S
C1354 C1352 1.384 . S
C1354 C1355 1.372 . S
C1355 C1354 1.372 . S
C1355 C1356 1.400 . S
C1355 C1360 1.490 . S
C1356 H1346 0.930 . S
C1356 C1355 1.400 . S
C1356 C1359 1.386 . S
H1357 C1373 0.930 . S
H1358 C1374 0.931 . S
C1359 H1347 0.929 . S
C1359 C1353 1.390 . S
C1359 C1356 1.386 . S
C1360 C1355 1.490 . S
C1360 C1362 1.395 . S
C1360 C1363 1.403 . S
H1361 C1367 0.930 . S
C1362 H1348 0.930 . S
C1362 C1360 1.395 . S
C1362 C1365 1.403 . S
C1363 C1360 1.403 . S
C1363 C1364 1.524 . S
C1363 C1367 1.400 . S
C1364 H1349 0.960 . S
C1364 H1350 0.960 . S
C1364 H1351 0.960 . S
C1364 C1363 1.524 . S
C1365 C1362 1.403 . S
C1365 C1366 1.392 . S
C1365 C1369 1.495 . S
C1366 C1365 1.392 . S
C1366 C1367 1.385 . S
C1366 C1368 1.478 . S
C1367 H1361 0.930 . S
C1367 C1363 1.400 . S
C1367 C1366 1.385 . S
C1368 C1366 1.478 . S
C1368 C1370 1.381 . S
C1368 C1374 1.383 . S
C1369 C1365 1.495 . S
C1369 H1375 0.959 . S
C1369 H1376 0.961 . S
C1369 H1377 0.960 . S
C1370 C1368 1.381 . S
C1370 C1371 1.394 1_545 S
C1370 H1378 0.930 . S
C1371 C1370 1.394 1_565 S
C1371 C1372 1.383 1_565 S
C1371 H1379 0.929 . S
C1372 C1371 1.383 1_545 S
C1372 C1373 1.377 . S
C1373 H1357 0.930 . S
C1373 C1372 1.377 . S
C1373 C1374 1.379 . S
C1374 H1358 0.931 . S
C1374 C1368 1.383 . S
C1374 C1373 1.379 . S
H1375 C1369 0.959 . S
H1376 C1369 0.961 . S
H1377 C1369 0.960 . S
H1378 C1370 0.930 . S
H1379 C1371 0.929 . S
H1380 C1388 0.929 . S
H1381 C1390 0.930 . S
H1382 C1392 0.930 . S
H1383 C1395 0.929 . S
H1384 C1398 0.930 . S
H1385 C1400 0.960 . S
H1386 C1400 0.960 . S
H1387 C1400 0.960 . S
C1388 H1380 0.929 . S
C1388 C1389 1.377 . S
C1388 C1390 1.384 . S
C1389 C1388 1.377 . S
C1389 C1395 1.390 . S
C1390 H1381 0.930 . S
C1390 C1388 1.384 . S
C1390 C1391 1.372 . S
C1391 C1390 1.372 . S
C1391 C1392 1.400 . S
C1391 C1396 1.490 . S
C1392 H1382 0.930 . S
C1392 C1391 1.400 . S
C1392 C1395 1.386 . S
H1393 C1409 0.930 1_545 S
H1394 C1410 0.931 . S
C1395 H1383 0.929 . S
C1395 C1389 1.390 . S
C1395 C1392 1.386 . S
C1396 C1391 1.490 . S
C1396 C1398 1.395 . S
C1396 C1399 1.403 . S
H1397 C1403 0.930 . S
C1398 H1384 0.930 . S
C1398 C1396 1.395 . S
C1398 C1401 1.403 . S
C1399 C1396 1.403 . S
C1399 C1400 1.524 . S
C1399 C1403 1.400 . S
C1400 H1385 0.960 . S
C1400 H1386 0.960 . S
C1400 H1387 0.960 . S
C1400 C1399 1.524 . S
C1401 C1398 1.403 . S
C1401 C1402 1.392 . S
C1401 C1405 1.495 . S
C1402 C1401 1.392 . S
C1402 C1403 1.385 . S
C1402 C1404 1.478 . S
C1403 H1397 0.930 . S
C1403 C1399 1.400 . S
C1403 C1402 1.385 . S
C1404 C1402 1.478 . S
C1404 C1406 1.381 . S
C1404 C1410 1.383 . S
C1405 C1401 1.495 . S
C1405 H1411 0.959 . S
C1405 H1412 0.961 . S
C1405 H1413 0.960 . S
C1406 C1404 1.381 . S
C1406 C1407 1.394 . S
C1406 H1414 0.930 . S
C1407 C1406 1.394 . S
C1407 C1408 1.383 . S
C1407 H1415 0.929 . S
C1408 C1407 1.383 . S
C1408 C1409 1.377 . S
C1409 H1393 0.930 1_565 S
C1409 C1408 1.377 . S
C1409 C1410 1.379 . S
C1410 H1394 0.931 . S
C1410 C1404 1.383 . S
C1410 C1409 1.379 . S
H1411 C1405 0.959 . S
H1412 C1405 0.961 . S
H1413 C1405 0.960 . S
H1414 C1406 0.930 . S
H1415 C1407 0.929 . S
H1416 C1424 0.929 . S
H1417 C1426 0.930 . S
H1418 C1428 0.930 . S
H1419 C1431 0.929 . S
H1420 C1434 0.930 . S
H1421 C1436 0.960 . S
H1422 C1436 0.960 . S
H1423 C1436 0.960 . S
C1424 H1416 0.929 . S
C1424 C1425 1.377 . S
C1424 C1426 1.384 . S
C1425 C1424 1.377 . S
C1425 C1431 1.390 . S
C1426 H1417 0.930 . S
C1426 C1424 1.384 . S
C1426 C1427 1.372 . S
C1427 C1426 1.372 . S
C1427 C1428 1.400 . S
C1427 C1432 1.490 . S
C1428 H1418 0.930 . S
C1428 C1427 1.400 . S
C1428 C1431 1.386 . S
H1429 C1445 0.930 . S
H1430 C1446 0.931 . S
C1431 H1419 0.929 . S
C1431 C1425 1.390 . S
C1431 C1428 1.386 . S
C1432 C1427 1.490 . S
C1432 C1434 1.395 . S
C1432 C1435 1.403 . S
H1433 C1439 0.930 . S
C1434 H1420 0.930 . S
C1434 C1432 1.395 . S
C1434 C1437 1.403 . S
C1435 C1432 1.403 . S
C1435 C1436 1.524 . S
C1435 C1439 1.400 . S
C1436 H1421 0.960 . S
C1436 H1422 0.960 . S
C1436 H1423 0.960 . S
C1436 C1435 1.524 . S
C1437 C1434 1.403 . S
C1437 C1438 1.392 . S
C1437 C1441 1.495 . S
C1438 C1437 1.392 . S
C1438 C1439 1.385 . S
C1438 C1440 1.478 . S
C1439 H1433 0.930 . S
C1439 C1435 1.400 . S
C1439 C1438 1.385 . S
C1440 C1438 1.478 . S
C1440 C1442 1.381 . S
C1440 C1446 1.383 . S
C1441 C1437 1.495 . S
C1441 H1447 0.959 . S
C1441 H1448 0.961 . S
C1441 H1449 0.960 . S
C1442 C1440 1.381 . S
C1442 C1443 1.394 . S
C1442 H1450 0.930 . S
C1443 C1442 1.394 . S
C1443 C1444 1.383 . S
C1443 H1451 0.929 1_655 S
C1444 C1443 1.383 . S
C1444 C1445 1.377 . S
C1445 H1429 0.930 . S
C1445 C1444 1.377 . S
C1445 C1446 1.379 . S
C1446 H1430 0.931 . S
C1446 C1440 1.383 . S
C1446 C1445 1.379 . S
H1447 C1441 0.959 . S
H1448 C1441 0.961 . S
H1449 C1441 0.960 . S
H1450 C1442 0.930 . S
H1451 C1443 0.929 1_455 S
H1452 C1460 0.929 . S
H1453 C1462 0.930 . S
H1454 C1464 0.930 . S
H1455 C1467 0.929 . S
H1456 C1470 0.930 . S
H1457 C1472 0.960 . S
H1458 C1472 0.960 . S
H1459 C1472 0.960 . S
C1460 H1452 0.929 . S
C1460 C1461 1.377 . S
C1460 C1462 1.384 . S
C1461 C1460 1.377 . S
C1461 C1467 1.390 1_565 S
C1462 H1453 0.930 . S
C1462 C1460 1.384 . S
C1462 C1463 1.372 . S
C1463 C1462 1.372 . S
C1463 C1464 1.400 . S
C1463 C1468 1.490 . S
C1464 H1454 0.930 . S
C1464 C1463 1.400 . S
C1464 C1467 1.386 1_565 S
H1465 C1481 0.930 1_655 S
H1466 C1482 0.931 . S
C1467 H1455 0.929 . S
C1467 C1461 1.390 1_545 S
C1467 C1464 1.386 1_545 S
C1468 C1463 1.490 . S
C1468 C1470 1.395 . S
C1468 C1471 1.403 . S
H1469 C1475 0.930 . S
C1470 H1456 0.930 . S
C1470 C1468 1.395 . S
C1470 C1473 1.403 . S
C1471 C1468 1.403 . S
C1471 C1472 1.524 . S
C1471 C1475 1.400 . S
C1472 H1457 0.960 . S
C1472 H1458 0.960 . S
C1472 H1459 0.960 . S
C1472 C1471 1.524 . S
C1473 C1470 1.403 . S
C1473 C1474 1.392 . S
C1473 C1477 1.495 . S
C1474 C1473 1.392 . S
C1474 C1475 1.385 . S
C1474 C1476 1.478 . S
C1475 H1469 0.930 . S
C1475 C1471 1.400 . S
C1475 C1474 1.385 . S
C1476 C1474 1.478 . S
C1476 C1478 1.381 . S
C1476 C1482 1.383 . S
C1477 C1473 1.495 . S
C1477 H1483 0.959 . S
C1477 H1484 0.961 . S
C1477 H1485 0.960 . S
C1478 C1476 1.381 . S
C1478 C1479 1.394 . S
C1478 H1486 0.930 . S
C1479 C1478 1.394 . S
C1479 C1480 1.414 . S
C1479 H1487 0.929 . S
C1480 C1479 1.414 . S
C1480 C1481 1.360 . S
C1481 H1465 0.930 1_455 S
C1481 C1480 1.360 . S
C1481 C1482 1.379 . S
C1482 H1466 0.931 . S
C1482 C1476 1.383 . S
C1482 C1481 1.379 . S
H1483 C1477 0.959 . S
H1484 C1477 0.961 . S
H1485 C1477 0.960 . S
H1486 C1478 0.930 . S
H1487 C1479 0.929 . S
C417 C111 1.409 . S
C436 C9 1.395 . S
C453 C145 1.414 . S
C472 C43 1.425 . S
C489 C179 1.409 . S
C508 C77 1.399 . S
C525 C213 1.413 . S
C544 C315 1.399 . S
C561 C247 1.414 . S
C580 C349 1.425 . S
C597 C281 1.412 . S
C616 C383 1.394 . S
C633 C326 1.919 . S
C652 C20 1.931 . S
C669 C54 1.915 . S
C688 C360 1.899 . S
C705 C394 1.913 . S
C724 C88 1.924 . S
C741 C224 1.913 . S
C760 C122 1.916 . S
C777 C156 1.918 . S
C796 C258 1.932 . S
C813 C190 1.917 . S
C832 C292 1.933 . S
C849 C5 0.474 . S
C868 C107 0.536 . S
C885 C39 0.486 . S
C904 C141 0.482 . S
C921 C175 0.485 . S
C940 C73 0.502 . S
C957 C209 0.474 . S
C976 C311 0.456 . S
C993 C243 0.481 . S
C1012 C345 0.524 . S
C1029 C379 0.477 . S
C1048 C277 0.532 . S
C1065 C407 1.371 . S
C1084 C33 1.388 . S
C1101 C67 1.375 . S
C1120 C237 1.349 . S
C1137 C271 1.378 . S
C1156 C101 1.343 . S
C1173 C305 1.372 . S
C1192 C135 1.363 . S
C1209 C169 1.371 . S
C1228 C339 1.385 . S
C1245 C203 1.371 . S
C1264 C373 1.367 . S
C1281 C2 0.800 . S
C1300 C274 0.829 1_545 S
C1317 C36 0.795 1_455 S
C1336 C308 0.827 . S
C1353 C342 0.784 1_655 S
C1372 C70 0.753 1_545 S
C1389 C104 0.788 . S
C1408 C376 0.801 1_565 S
C1425 C206 0.784 . S
C1444 C138 0.770 1_655 S
C1461 C172 0.801 1_565 S
C1480 C240 0.804 1_455 S
