# Generated by pormake.
# Topology qtz-e, (6)-cn, num edge types: 1
# Building blocks:
#     Node 0, Type 0, BuildingBlock: KUMBOL_clean_sbu_1, # of connection points: 6
#     Node 1, Type 0, BuildingBlock: KUMBOL_clean_sbu_1, # of connection points: 6
#     Node 2, Type 0, BuildingBlock: KUMBOL_clean_sbu_1, # of connection points: 6
#     Node 3, Type 0, BuildingBlock: KUMBOL_clean_sbu_1, # of connection points: 6
#     Node 4, Type 0, BuildingBlock: KUMBOL_clean_sbu_1, # of connection points: 6
#     Node 5, Type 0, BuildingBlock: KUMBOL_clean_sbu_1, # of connection points: 6
#     Edge 6, Type (0, 0), BuildingBlock: OJICUG_clean_linker_0, # of connection points: 2
#     Edge 7, Type (0, 0), BuildingBlock: OJICUG_clean_linker_0, # of connection points: 2
#     Edge 8, Type (0, 0), BuildingBlock: OJICUG_clean_linker_0, # of connection points: 2
#     Edge 9, Type (0, 0), BuildingBlock: OJICUG_clean_linker_0, # of connection points: 2
#     Edge 10, Type (0, 0), BuildingBlock: OJICUG_clean_linker_0, # of connection points: 2
#     Edge 11, Type (0, 0), BuildingBlock: OJICUG_clean_linker_0, # of connection points: 2
#     Edge 12, Type (0, 0), BuildingBlock: OJICUG_clean_linker_0, # of connection points: 2
#     Edge 13, Type (0, 0), BuildingBlock: OJICUG_clean_linker_0, # of connection points: 2
#     Edge 14, Type (0, 0), BuildingBlock: OJICUG_clean_linker_0, # of connection points: 2
#     Edge 15, Type (0, 0), BuildingBlock: OJICUG_clean_linker_0, # of connection points: 2
#     Edge 16, Type (0, 0), BuildingBlock: OJICUG_clean_linker_0, # of connection points: 2
#     Edge 17, Type (0, 0), BuildingBlock: OJICUG_clean_linker_0, # of connection points: 2
#     Edge 18, Type (0, 0), BuildingBlock: OJICUG_clean_linker_0, # of connection points: 2
#     Edge 19, Type (0, 0), BuildingBlock: OJICUG_clean_linker_0, # of connection points: 2
#     Edge 20, Type (0, 0), BuildingBlock: OJICUG_clean_linker_0, # of connection points: 2
#     Edge 21, Type (0, 0), BuildingBlock: OJICUG_clean_linker_0, # of connection points: 2
#     Edge 22, Type (0, 0), BuildingBlock: OJICUG_clean_linker_0, # of connection points: 2
#     Edge 23, Type (0, 0), BuildingBlock: OJICUG_clean_linker_0, # of connection points: 2
# Relax obj value: 0.149
# Max RMSD: 0.216
# Mean RMSD: 0.216
data_MOF--net-qtz-e--node1-KUMBOL_clean_sbu_1--edge1-OJICUG_clean_linker_0
_symmetry_space_group_name_H-M    P1
_symmetry_Int_Tables_number       1
_symmetry_cell_setting            triclinic
loop_
_symmetry_equiv_pos_as_xyz
'x, y, z'
_cell_length_a     21.015642
_cell_length_b     21.01581
_cell_length_c     39.619349
_cell_angle_alpha  89.879531
_cell_angle_beta   90.143934
_cell_angle_gamma 120.0478
loop_
_atom_site_label
_atom_site_type_symbol
_atom_site_fract_x
_atom_site_fract_y
_atom_site_fract_z
_atom_type_partial_charge
C0 C 0.41627 0.69021 0.01294 0.0
C1 C 0.35333 0.74822 0.98771 0.0
C2 C 0.3519 0.69117 0.00716 0.0
C3 C 0.41969 0.80183 0.97308 0.0
C4 C 0.48383 0.74619 5e-05 0.0
C5 C 0.48492 0.80106 0.97942 0.0
N6 N 0.41321 0.63601 0.03264 0.0
C7 C 0.47616 0.63917 0.04361 0.0
C8 C 0.5484 0.74649 0.0092 0.0
C9 C 0.54461 0.69347 0.03167 0.0
Gd10 Gd 0.18283 0.35082 0.99551 0.0
Gd11 Gd 0.29693 0.54355 0.05056 0.0
N12 N 0.28926 0.6397 0.02269 0.0
C13 C 0.28878 0.75152 0.98477 0.0
C14 C 0.22879 0.64796 0.02277 0.0
C15 C 0.22676 0.70206 0.003 0.0
H16 H 0.18228 0.61458 0.03861 0.0
H17 H 0.17769 0.70636 0.00253 0.0
H18 H 0.27346 0.26812 0.02389 0.0
H19 H 0.47368 0.60112 0.06232 0.0
H20 H 0.2492 0.16234 0.05999 0.0
H21 H 0.28736 0.79418 0.96994 0.0
H22 H 0.42162 0.84567 0.95787 0.0
H23 H 0.01682 0.33497 0.98018 0.0
H24 H 0.6015 0.78885 9e-05 0.0
H25 H 0.59432 0.69493 0.04017 0.0
H26 H 0.99403 0.05529 0.08976 0.0
H27 H 0.53614 0.84417 0.96899 0.0
H28 H 0.85685 0.15598 0.03911 0.0
H29 H 0.88951 0.25849 -0.00047 0.0
N30 N 0.05813 0.27948 0.01037 0.0
C31 C 0.04049 0.22037 0.03047 0.0
C32 C 0.00443 0.29211 -0.00159 0.0
C33 C 0.91339 0.18992 0.03109 0.0
C34 C 0.93165 0.24806 0.00886 0.0
C35 C 0.96787 0.17487 0.04189 0.0
H36 H 0.89654 0.08072 0.07287 0.0
N37 N 0.16451 0.24943 0.02783 0.0
C38 C 0.09491 0.2042 0.03906 0.0
C39 C 0.13526 0.12916 0.06784 0.0
C40 C 0.07874 0.14368 0.05999 0.0
C41 C 0.21912 0.23379 0.03412 0.0
C42 C 0.20547 0.17381 0.05446 0.0
O43 O 0.34301 0.54201 -0.00035 0.0
O44 O 0.2306 0.46697 0.97898 0.0
O45 O 0.23107 0.31768 0.9539 0.0
O46 O 0.11604 0.28913 0.95324 0.0
O47 O 0.17459 0.49963 0.04264 0.0
O48 O 0.13834 0.43167 0.99263 0.0
O49 O 0.18949 0.34649 0.05296 0.0
O50 O 0.19039 0.45053 0.07222 0.0
O51 O 0.30944 0.61688 0.09164 0.0
O52 O 0.35681 0.54605 0.09525 0.0
O53 O 0.30558 0.39261 0.00159 0.0
O54 O 0.31932 0.44911 0.05229 0.0
C55 C 0.301 0.50713 0.97407 0.0
C56 C 0.12884 0.47002 0.01683 0.0
C57 C 0.15342 0.24358 0.90562 0.0
C58 C 0.19166 0.20842 0.85343 0.0
C59 C 0.06185 0.15545 0.86683 0.0
C60 C 0.07967 0.19571 0.89662 0.0
C61 C 0.11702 0.16173 0.84542 0.0
C62 C 0.2098 0.25017 0.88371 0.0
C63 C 0.16835 0.28478 0.938 0.0
C64 C 0.00722 0.10045 0.0727 0.0
C65 C 0.95178 0.11552 0.0634 0.0
H66 H 0.12531 0.08351 0.08403 0.0
C67 C 0.17177 0.38084 0.07563 0.0
C68 C 0.34682 0.42883 0.02772 0.0
C69 C 0.29698 0.55568 0.14313 0.0
C70 C 0.23062 0.56532 0.19107 0.0
C71 C 0.24562 0.45838 0.1851 0.0
C72 C 0.28512 0.4877 0.15546 0.0
C73 C 0.21921 0.49715 0.20307 0.0
C74 C 0.26787 0.59296 0.16055 0.0
C75 C 0.33674 0.58683 0.11147 0.0
H76 H 0.00476 0.11911 0.86025 0.0
H77 H 0.03514 0.18899 0.91274 0.0
H78 H 0.10099 0.13031 0.8222 0.0
H79 H 0.26691 0.28665 0.89027 0.0
H80 H 0.23698 0.40632 0.1946 0.0
H81 H 0.30597 0.45688 0.14224 0.0
H82 H 0.19281 0.47492 0.22707 0.0
H83 H 0.27567 0.64443 0.15055 0.0
C84 C 0.72285 0.42739 0.35313 0.0
C85 C 0.60223 0.37261 0.32711 0.0
C86 C 0.65588 0.36534 0.34544 0.0
C87 C 0.61631 0.44272 0.31718 0.0
C88 C 0.73643 0.49799 0.34395 0.0
C89 C 0.68303 0.50525 0.32575 0.0
N90 N 0.77486 0.41855 0.36952 0.0
C91 C 0.83681 0.47809 0.38139 0.0
C92 C 0.80297 0.55927 0.35375 0.0
C93 C 0.85274 0.54927 0.37318 0.0
Gd94 Gd 0.84135 0.18747 0.32866 0.0
Gd95 Gd 0.74396 0.29747 0.38253 0.0
N96 N 0.64416 0.29791 0.35514 0.0
C97 C 0.53619 0.30912 0.31904 0.0
C98 C 0.57836 0.23632 0.34858 0.0
C99 C 0.52429 0.24085 0.32992 0.0
H100 H 0.56626 0.18334 0.35777 0.0
H101 H 0.4734 0.19143 0.32403 0.0
H102 H 0.00809 0.27661 0.36276 0.0
H103 H 0.87234 0.4707 0.39835 0.0
H104 H 0.08857 0.248 0.39781 0.0
H105 H 0.49389 0.31224 0.30468 0.0
H106 H 0.57573 0.44923 0.30304 0.0
H107 H 0.70618 0.02553 0.29872 0.0
H108 H 0.81536 0.61448 0.34738 0.0
H109 H 0.90275 0.59629 0.38231 0.0
H110 H 0.94934 0.98473 0.41037 0.0
H111 H 0.6927 0.559 0.31829 0.0
H112 H 0.72407 0.85398 0.34825 0.0
H113 H 0.65852 0.89357 0.30911 0.0
N114 N 0.79579 0.06054 0.33301 0.0
C115 C 0.83478 0.03989 0.35302 0.0
C116 C 0.73457 0.00913 0.31638 0.0
C117 C 0.74497 0.91205 0.34399 0.0
C118 C 0.70775 0.93419 0.32192 0.0
C119 C 0.80997 0.96511 0.35947 0.0
H120 H 0.83265 0.88869 0.38638 0.0
N121 N 0.92382 0.165 0.35867 0.0
C122 C 0.90121 0.0938 0.36605 0.0
C123 C 0.01236 0.13119 0.39801 0.0
C124 C 0.94437 0.07484 0.38631 0.0
C125 C 0.99063 0.22019 0.36918 0.0
C126 C 0.03592 0.20414 0.3891 0.0
O127 O 0.75908 0.3298 0.32767 0.0
O128 O 0.78535 0.24626 0.33413 0.0
O129 O 0.93225 0.23837 0.29276 0.0
O130 O 0.82248 0.16176 0.27526 0.0
O131 O 0.67054 0.17472 0.37197 0.0
O132 O 0.71375 0.13082 0.32718 0.0
O133 O 0.84496 0.18811 0.3864 0.0
O134 O 0.7406 0.19302 0.40316 0.0
O135 O 0.66982 0.29259 0.42131 0.0
O136 O 0.78858 0.35513 0.42927 0.0
O137 O 0.91396 0.31264 0.33612 0.0
O138 O 0.86306 0.32557 0.38485 0.0
C139 C 0.77628 0.28697 0.31284 0.0
C140 C 0.66124 0.12667 0.34777 0.0
C141 C 0.92158 0.17777 0.24037 0.0
C142 C 0.99463 0.20186 0.1885 0.0
C143 C 0.92353 0.07744 0.21129 0.0
C144 C 0.89948 0.10299 0.23806 0.0
C145 C 0.97003 0.12599 0.18665 0.0
C146 C 0.96952 0.22714 0.21569 0.0
C147 C 0.89106 0.20437 0.26683 0.0
C148 C 0.91821 1.00059 0.39416 0.0
C149 C 0.85134 0.94582 0.38066 0.0
H150 H 0.04719 0.11897 0.4137 0.0
C151 C 0.79177 0.17428 0.40834 0.0
C152 C 0.91069 0.35467 0.36021 0.0
C153 C 0.71445 0.28342 0.47379 0.0
C154 C 0.64004 0.22284 0.52234 0.0
C155 C 0.75201 0.21931 0.51295 0.0
C156 C 0.76514 0.26182 0.4839 0.0
C157 C 0.68941 0.19962 0.53223 0.0
C158 C 0.65154 0.26236 0.49263 0.0
C159 C 0.7236 0.32494 0.443 0.0
H160 H 0.90526 0.01941 0.20936 0.0
H161 H 0.86256 0.06416 0.2566 0.0
H162 H 0.98557 0.1035 0.16577 0.0
H163 H 0.98684 0.28499 0.21773 0.0
H164 H 0.79098 0.20279 0.52082 0.0
H165 H 0.81429 0.27709 0.46935 0.0
H166 H 0.68186 0.17021 0.55573 0.0
H167 H 0.61299 0.2799 0.48503 0.0
C168 C 0.32841 0.73379 0.67427 0.0
C169 C 0.27755 0.61965 0.64326 0.0
C170 C 0.32956 0.67028 0.66626 0.0
C171 C 0.22687 0.63547 0.62765 0.0
C172 C 0.27488 0.74785 0.66029 0.0
C173 C 0.22525 0.69923 0.63631 0.0
N174 N 0.37763 0.7802 0.69723 0.0
C175 C 0.36967 0.83524 0.7108 0.0
C176 C 0.27101 0.80873 0.67192 0.0
C177 C 0.31758 0.85163 0.69792 0.0
Gd178 Gd 0.65794 0.84157 0.66707 0.0
Gd179 Gd 0.46276 0.74991 0.71902 0.0
N180 N 0.37762 0.65545 0.68289 0.0
C181 C 0.27582 0.55314 0.6378 0.0
C182 C 0.36983 0.58716 0.68042 0.0
C183 C 0.32132 0.53634 0.65693 0.0
H184 H 0.39859 0.57012 0.69725 0.0
H185 H 0.31783 0.48351 0.65423 0.0
H186 H 0.7399 0.00915 0.70138 0.0
H187 H 0.40132 0.86427 0.73254 0.0
H188 H 0.84644 0.08483 0.73851 0.0
H189 H 0.23703 0.51291 0.62021 0.0
H190 H 0.18685 0.59736 0.6098 0.0
H191 H 0.68189 0.70281 0.63886 0.0
H192 H 0.23015 0.82099 0.66214 0.0
H193 H 0.31233 0.89619 0.70855 0.0
H194 H 0.95356 0.93258 0.75839 0.0
H195 H 0.18409 0.70936 0.62505 0.0
H196 H 0.85882 0.70932 0.69529 0.0
H197 H 0.76064 0.65029 0.65245 0.0
N198 N 0.73152 0.78807 0.67554 0.0
C199 C 0.78835 0.82427 0.69754 0.0
C200 C 0.72291 0.72786 0.65846 0.0
C201 C 0.82367 0.7321 0.68988 0.0
C202 C 0.76805 0.69838 0.66577 0.0
C203 C 0.83544 0.7967 0.70559 0.0
H204 H 0.93017 0.81468 0.73499 0.0
N205 N 0.75747 0.91797 0.70156 0.0
C206 C 0.8024 0.89158 0.71049 0.0
C207 C 0.87834 1.00224 0.74242 0.0
C208 C 0.86331 0.93248 0.7318 0.0
C209 C 0.77399 0.98746 0.71018 0.0
C210 C 0.83422 0.03032 0.73108 0.0
O211 O 0.47708 0.80534 0.66932 0.0
O212 O 0.54865 0.76693 0.64448 0.0
O213 O 0.66704 0.91466 0.62488 0.0
O214 O 0.7438 0.8761 0.62941 0.0
O215 O 0.51258 0.67717 0.71252 0.0
O216 O 0.58383 0.71476 0.66333 0.0
O217 O 0.6562 0.84987 0.72453 0.0
O218 O 0.55667 0.74337 0.7445 0.0
O219 O 0.37183 0.67403 0.75025 0.0
O220 O 0.44065 0.78816 0.76587 0.0
O221 O 0.61123 0.91701 0.67811 0.0
O222 O 0.54716 0.86949 0.72753 0.0
C223 C 0.50359 0.7923 0.64222 0.0
C224 C 0.54474 0.66458 0.68676 0.0
C225 C 0.72883 0.9114 0.57377 0.0
C226 C 0.75544 0.97176 0.51768 0.0
C227 C 0.75131 0.85475 0.52511 0.0
C228 C 0.73459 0.85348 0.55924 0.0
C229 C 0.76228 0.91341 0.50463 0.0
C230 C 0.73814 0.97037 0.55251 0.0
C231 C 0.7234 0.91462 0.61143 0.0
C232 C 0.90774 0.90308 0.74132 0.0
C233 C 0.89404 0.83555 0.72816 0.0
H234 H 0.92461 0.03542 0.7588 0.0
C235 C 0.62665 0.79498 0.74634 0.0
C236 C 0.57368 0.92071 0.70409 0.0
C237 C 0.36024 0.70456 0.80654 0.0
C238 C 0.34981 0.63542 0.85675 0.0
C239 C 0.29434 0.71261 0.8549 0.0
C240 C 0.3198 0.73294 0.82207 0.0
C241 C 0.30921 0.66397 0.87223 0.0
C242 C 0.37569 0.65572 0.82385 0.0
C243 C 0.38206 0.72513 0.77176 0.0
H244 H 0.7568 0.81031 0.51451 0.0
H245 H 0.72823 0.80784 0.57451 0.0
H246 H 0.77575 0.91295 0.47827 0.0
H247 H 0.7348 0.016 0.5632 0.0
H248 H 0.26277 0.73414 0.86682 0.0
H249 H 0.3073 0.77033 0.8086 0.0
H250 H 0.28872 0.64811 0.89776 0.0
H251 H 0.4065 0.63331 0.81181 0.0
C252 C 0.58569 0.30557 0.02204 0.0
C253 C 0.63757 0.24704 0.98814 0.0
C254 C 0.64698 0.30436 0.00988 0.0
C255 C 0.56652 0.19175 0.97898 0.0
C256 C 0.51416 0.24913 0.01355 0.0
C257 C 0.50498 0.1926 0.99179 0.0
N258 N 0.59601 0.36205 0.04227 0.0
C259 C 0.53766 0.36106 0.0577 0.0
C260 C 0.45387 0.25073 0.02753 0.0
C261 C 0.46577 0.30637 0.05016 0.0
Gd262 Gd 0.82632 0.64897 0.99571 0.0
Gd263 Gd 0.71786 0.45404 0.05283 0.0
N264 N 0.71538 0.35854 0.0195 0.0
C265 C 0.69981 0.24668 0.97623 0.0
C266 C 0.7757 0.35477 0.00963 0.0
C267 C 0.76902 0.30064 0.98713 0.0
H268 H 0.82941 0.39173 0.01914 0.0
H269 H 0.81745 0.30046 0.97826 0.0
H270 H 0.73163 0.72566 0.02567 0.0
H271 H 0.54639 0.40133 0.07651 0.0
H272 H 0.75519 0.83386 0.05962 0.0
H273 H 0.69498 0.20431 0.95912 0.0
H274 H 0.55856 0.14755 0.9623 0.0
H275 H 0.99188 0.67927 0.97022 0.0
H276 H 0.39811 0.20833 0.02172 0.0
H277 H 0.41967 0.30675 0.06208 0.0
H278 H 0.01654 0.96125 0.07806 0.0
H279 H 0.4505 0.14899 0.98488 0.0
H280 H 0.15663 0.87348 0.01949 0.0
H281 H 0.12229 0.76911 0.9807 0.0
N282 N 0.95223 0.73252 0.00259 0.0
C283 C 0.96994 0.79228 0.02199 0.0
C284 C 0.0059 0.72432 0.98737 0.0
C285 C 0.09913 0.83442 0.01486 0.0
C286 C 0.08001 0.77517 0.99321 0.0
C287 C 0.04383 0.84408 0.02926 0.0
H288 H 0.11645 0.94428 0.05639 0.0
N289 N 0.84373 0.75319 0.0251 0.0
C290 C 0.91402 0.80328 0.03341 0.0
C291 C 0.87197 0.87581 0.06291 0.0
C292 C 0.93002 0.86529 0.05307 0.0
C293 C 0.78711 0.76445 0.03337 0.0
C294 C 0.8003 0.82566 0.0526 0.0
O295 O 0.66762 0.44862 0.00199 0.0
O296 O 0.78066 0.53038 0.98958 0.0
O297 O 0.76676 0.67279 0.95654 0.0
O298 O 0.87251 0.68468 0.9458 0.0
O299 O 0.84062 0.49734 0.04348 0.0
O300 O 0.88393 0.57915 0.99713 0.0
O301 O 0.82436 0.65738 0.05309 0.0
O302 O 0.82302 0.55274 0.07308 0.0
O303 O 0.71448 0.3779 0.09065 0.0
O304 O 0.668 0.44785 0.10112 0.0
O305 O 0.70347 0.60244 0.00336 0.0
O306 O 0.69178 0.54621 0.05425 0.0
C307 C 0.71399 0.48967 0.97923 0.0
C308 C 0.89076 0.53584 0.01992 0.0
C309 C 0.83685 0.75434 0.91124 0.0
C310 C 0.809 0.80474 0.86047 0.0
C311 C 0.92892 0.87172 0.88816 0.0
C312 C 0.90706 0.81699 0.9126 0.0
C313 C 0.88113 0.8654 0.8622 0.0
C314 C 0.78761 0.74878 0.88532 0.0
C315 C 0.81819 0.69122 0.93411 0.0
C316 C 1.00321 0.91469 0.06207 0.0
C317 C 0.06008 0.90453 0.04997 0.0
H318 H 0.88196 0.92286 0.078 0.0
C319 C 0.84073 0.62239 0.07626 0.0
C320 C 0.66296 0.56463 0.02932 0.0
C321 C 0.73379 0.43017 0.1444 0.0
C322 C 0.79186 0.4049 0.19126 0.0
C323 C 0.81018 0.52762 0.18363 0.0
C324 C 0.76497 0.50357 0.15522 0.0
C325 C 0.82394 0.4787 0.20156 0.0
C326 C 0.74754 0.38126 0.16245 0.0
C327 C 0.68971 0.40445 0.11358 0.0
H328 H 0.98392 0.9189 0.88897 0.0
H329 H 0.94601 0.82271 0.93201 0.0
H330 H 0.90175 0.90803 0.84314 0.0
H331 H 0.73326 0.70062 0.88449 0.0
H332 H 0.83366 0.58394 0.19206 0.0
H333 H 0.75485 0.54249 0.14174 0.0
H334 H 0.85653 0.49765 0.22443 0.0
H335 H 0.72245 0.32432 0.15451 0.0
C336 C 0.27237 0.58784 0.34547 0.0
C337 C 0.37419 0.63539 0.30599 0.0
C338 C 0.33223 0.64753 0.33024 0.0
C339 C 0.35447 0.56329 0.29684 0.0
C340 C 0.25338 0.51531 0.33674 0.0
C341 C 0.29432 0.50347 0.31218 0.0
N342 N 0.23321 0.60061 0.36909 0.0
C343 C 0.17767 0.54356 0.38623 0.0
C344 C 0.19429 0.45664 0.35328 0.0
C345 C 0.15686 0.4709 0.37844 0.0
Gd346 Gd 0.18529 0.83513 0.32774 0.0
Gd347 Gd 0.27009 0.72463 0.37932 0.0
N348 N 0.34991 0.71713 0.33938 0.0
C349 C 0.43566 0.69606 0.29201 0.0
C350 C 0.4128 0.77588 0.32737 0.0
C351 C 0.45559 0.76648 0.30312 0.0
H352 H 0.43232 0.83002 0.33693 0.0
H353 H 0.50477 0.81363 0.29344 0.0
H354 H 0.018 0.72648 0.36546 0.0
H355 H 0.1523 0.5546 0.40723 0.0
H356 H 0.94075 0.74046 0.40738 0.0
H357 H 0.46929 0.68899 0.27338 0.0
H358 H 0.38604 0.55316 0.27821 0.0
H359 H 0.31496 0.0054 0.30736 0.0
H360 H 0.17824 0.40022 0.34738 0.0
H361 H 0.11274 0.426 0.39221 0.0
H362 H 0.06155 0.99993 0.428 0.0
H363 H 0.28039 0.44818 0.30514 0.0
H364 H 0.27508 0.15672 0.36268 0.0
H365 H 0.34817 0.13296 0.32118 0.0
N366 N 0.22048 0.95768 0.3389 0.0
C367 C 0.17802 0.96938 0.36094 0.0
C368 C 0.28166 0.01521 0.32501 0.0
C369 C 0.25914 0.10062 0.35617 0.0
C370 C 0.30106 0.08746 0.33296 0.0
C371 C 0.19714 0.04129 0.37071 0.0
H372 H 0.16893 0.10651 0.40302 0.0
N373 N 0.09956 0.84025 0.36457 0.0
C374 C 0.11625 0.90903 0.37442 0.0
C375 C 0.00969 0.85795 0.41072 0.0
C376 C 0.0726 0.91954 0.39827 0.0
C377 C 0.03581 0.78045 0.37522 0.0
C378 C 0.99062 0.78827 0.39871 0.0
O379 O 0.22122 0.68339 0.3282 0.0
O380 O 0.25576 0.79457 0.3059 0.0
O381 O 0.09714 0.78503 0.28868 0.0
O382 O 0.19139 0.89482 0.28247 0.0
O383 O 0.3451 0.84606 0.37075 0.0
O384 O 0.30967 0.88449 0.32265 0.0
O385 O 0.22947 0.87516 0.38111 0.0
O386 O 0.20647 0.7688 0.40813 0.0
O387 O 0.36068 0.77664 0.4149 0.0
O388 O 0.27813 0.66173 0.42048 0.0
O389 O 0.11014 0.71163 0.33747 0.0
O390 O 0.15189 0.69218 0.38801 0.0
C391 C 0.22819 0.72436 0.30221 0.0
C392 C 0.35777 0.89443 0.34672 0.0
C393 C 0.10476 0.85361 0.23582 0.0
C394 C 0.02968 0.81044 0.18377 0.0
C395 C 0.12117 0.93975 0.19087 0.0
C396 C 0.13965 0.92536 0.22255 0.0
C397 C 0.06715 0.88319 0.17168 0.0
C398 C 0.04937 0.79545 0.21608 0.0
C399 C 0.1312 0.84269 0.26932 0.0
C400 C 0.09297 0.99097 0.4089 0.0
C401 C 0.1545 0.05171 0.39486 0.0
H402 H 0.97465 0.86375 0.429 0.0
C403 C 0.22396 0.83843 0.40902 0.0
C404 C 0.10278 0.66925 0.36367 0.0
C405 C 0.31279 0.7338 0.46866 0.0
C406 C 0.35398 0.78292 0.52452 0.0
C407 C 0.22396 0.72291 0.51061 0.0
C408 C 0.23967 0.70977 0.47814 0.0
C409 C 0.28063 0.75855 0.53391 0.0
C410 C 0.36969 0.77236 0.49143 0.0
C411 C 0.33015 0.71975 0.43493 0.0
H412 H 0.14928 0.99527 0.18101 0.0
H413 H 0.18225 0.97111 0.2366 0.0
H414 H 0.05516 0.89653 0.14689 0.0
H415 H 0.02207 0.73966 0.22566 0.0
H416 H 0.16764 0.70352 0.51802 0.0
H417 H 0.19465 0.68031 0.46061 0.0
H418 H 0.26643 0.76378 0.55961 0.0
H419 H 0.42591 0.7916 0.48368 0.0
C420 C 0.68084 0.27528 0.67841 0.0
C421 C 0.73867 0.38649 0.64478 0.0
C422 C 0.68283 0.33886 0.66722 0.0
C423 C 0.79136 0.36883 0.63361 0.0
C424 C 0.7357 0.25912 0.66849 0.0
C425 C 0.79015 0.30554 0.6456 0.0
N426 N 0.62749 0.23118 0.70046 0.0
C427 C 0.63088 0.1755 0.71642 0.0
C428 C 0.73584 0.19831 0.68289 0.0
C429 C 0.68404 0.15723 0.70752 0.0
Gd430 Gd 0.34694 0.17672 0.66437 0.0
Gd431 Gd 0.54154 0.26613 0.71537 0.0
N432 N 0.6324 0.35573 0.67943 0.0
C433 C 0.74123 0.45158 0.63493 0.0
C434 C 0.63844 0.42184 0.67166 0.0
C435 C 0.6913 0.46957 0.64869 0.0
H436 H 0.60465 0.43979 0.68365 0.0
H437 H 0.69423 0.52089 0.64206 0.0
H438 H 0.27552 0.00523 0.69364 0.0
H439 H 0.59425 0.14674 0.7369 0.0
H440 H 0.17318 0.9198 0.73054 0.0
H441 H 0.78294 0.48938 0.6176 0.0
H442 H 0.83453 0.40485 0.6164 0.0
H443 H 0.3134 0.3144 0.64512 0.0
H444 H 0.7774 0.18446 0.6762 0.0
H445 H 0.68584 0.11239 0.7201 0.0
H446 H 0.05202 0.05453 0.76005 0.0
H447 H 0.8325 0.29384 0.63759 0.0
H448 H 0.13295 0.28625 0.70569 0.0
H449 H 0.22965 0.35749 0.6637 0.0
N450 N 0.26698 0.22096 0.67765 0.0
C451 C 0.21099 0.17846 0.69901 0.0
C452 C 0.27273 0.28352 0.66417 0.0
C453 C 0.16995 0.2672 0.6979 0.0
C454 C 0.22482 0.30784 0.67432 0.0
C455 C 0.1617 0.20103 0.71016 0.0
H456 H 0.06738 0.17329 0.7419 0.0
N457 N 0.24939 0.09042 0.69743 0.0
C458 C 0.20114 0.11069 0.70876 0.0
C459 C 0.13312 0.99514 0.73834 0.0
C460 C 0.1426 0.06423 0.73016 0.0
C461 C 0.23871 0.02197 0.70401 0.0
C462 C 0.18079 0.97355 0.72481 0.0
O463 O 0.53101 0.22162 0.66291 0.0
O464 O 0.45422 0.2594 0.64356 0.0
O465 O 0.32914 0.09916 0.62228 0.0
O466 O 0.27347 0.16281 0.62326 0.0
O467 O 0.49687 0.3434 0.71001 0.0
O468 O 0.417 0.30509 0.66352 0.0
O469 O 0.34769 0.16534 0.72158 0.0
O470 O 0.44758 0.27265 0.74014 0.0
O471 O 0.62707 0.34354 0.7486 0.0
O472 O 0.55616 0.22717 0.76382 0.0
O473 O 0.40049 0.10476 0.67094 0.0
O474 O 0.4571 0.14706 0.72197 0.0
C475 C 0.50099 0.23791 0.63799 0.0
C476 C 0.45973 0.35551 0.68632 0.0
C477 C 0.24376 0.08194 0.57454 0.0
C478 C 0.21406 0.00341 0.52366 0.0
C479 C 0.15007 0.07079 0.5347 0.0
C480 C 0.19047 0.09979 0.56417 0.0
C481 C 0.16137 0.02299 0.51478 0.0
C482 C 0.2562 0.03375 0.55373 0.0
C483 C 0.2836 0.11481 0.60712 0.0
C484 C 0.09578 0.08825 0.7427 0.0
C485 C 0.10502 0.15628 0.7326 0.0
H486 H 0.08876 0.95779 0.7547 0.0
C487 C 0.3791 0.21923 0.74368 0.0
C488 C 0.43544 0.09884 0.69758 0.0
C489 C 0.6513 0.30649 0.80217 0.0
C490 C 0.68591 0.36989 0.85519 0.0
C491 C 0.7221 0.27979 0.84207 0.0
C492 C 0.68624 0.26689 0.81105 0.0
C493 C 0.72196 0.33121 0.86418 0.0
C494 C 0.65099 0.35794 0.82416 0.0
C495 C 0.61164 0.29185 0.77079 0.0
H496 H 0.10948 0.08548 0.52724 0.0
H497 H 0.17938 0.1364 0.57899 0.0
H498 H 0.1292 1.00182 0.49187 0.0
H499 H 0.29726 0.01948 0.56093 0.0
H500 H 0.74926 0.24951 0.84913 0.0
H501 H 0.68569 0.22627 0.79407 0.0
H502 H 0.74884 0.34006 0.88851 0.0
H503 H 0.62257 0.38739 0.81747 0.0
C504 C 0.15849 0.61823 0.26498 0.0
C505 C 0.21397 0.69148 0.26889 0.0
H506 H 0.11558 0.52154 0.23496 0.0
C507 C 0.26285 0.72815 0.24253 0.0
H508 H 0.12017 0.58933 0.28508 0.0
C509 C 0.26357 0.68829 0.21471 0.0
C510 C 0.21381 0.61199 0.21282 0.0
H511 H 0.3057 0.78511 0.24513 0.0
H512 H 0.30809 0.71604 0.19688 0.0
C513 C 0.15687 0.57923 0.23653 0.0
C514 C 0.55734 0.2922 0.58418 0.0
C515 C 0.51788 0.2294 0.6038 0.0
H516 H 0.62775 0.33849 0.54189 0.0
C517 C 0.50413 0.16081 0.59235 0.0
H518 H 0.56692 0.34527 0.59273 0.0
C519 C 0.53972 0.15652 0.56374 0.0
C520 C 0.58687 0.22104 0.54627 0.0
H521 H 0.46855 0.11157 0.60623 0.0
H522 H 0.53385 0.10419 0.55642 0.0
C523 C 0.59175 0.28803 0.55527 0.0
C524 C 0.40038 0.58149 0.93326 0.0
C525 C 0.33053 0.52101 0.93974 0.0
H526 H 0.46451 0.66646 0.89786 0.0
C527 C 0.2839 0.4827 0.91263 0.0
H528 H 0.43859 0.61024 0.95361 0.0
C529 C 0.30037 0.51338 0.88051 0.0
C530 C 0.36188 0.58332 0.87607 0.0
H531 H 0.23064 0.43451 0.91683 0.0
H532 H 0.25852 0.48943 0.86106 0.0
C533 C 0.41611 0.61282 0.90118 0.0
C534 C 0.85452 0.33531 0.26241 0.0
C535 C 0.7858 0.28776 0.27659 0.0
H536 H 0.91112 0.41097 0.22228 0.0
C537 C 0.7223 0.26119 0.25689 0.0
H538 H 0.90439 0.35349 0.27668 0.0
C539 C 0.72604 0.29228 0.22548 0.0
C540 C 0.79334 0.35081 0.21419 0.0
H541 H 0.66879 0.2238 0.26755 0.0
H542 H 0.67505 0.27784 0.21259 0.0
C543 C 0.85842 0.36741 0.23119 0.0
C544 C 0.49635 0.78068 0.58005 0.0
C545 C 0.48388 0.80917 0.60954 0.0
H546 H 0.4636 0.74935 0.52926 0.0
C547 C 0.44402 0.84634 0.60814 0.0
H548 H 0.52849 0.75337 0.58043 0.0
C549 C 0.40871 0.84633 0.5786 0.0
C550 C 0.41138 0.80742 0.55052 0.0
H551 H 0.43505 0.87038 0.63046 0.0
H552 H 0.37395 0.87079 0.57873 0.0
C553 C 0.45973 0.77928 0.55062 0.0
C554 C 0.62793 0.425 0.93202 0.0
C555 C 0.69762 0.47897 0.94324 0.0
H556 H 0.5691 0.34714 0.89288 0.0
C557 C 0.75646 0.51131 0.92041 0.0
H558 H 0.58159 0.40014 0.94915 0.0
C559 C 0.74892 0.48224 0.8884 0.0
C560 C 0.68293 0.42006 0.87941 0.0
H561 H 0.81097 0.55221 0.92844 0.0
H562 H 0.79716 0.50186 0.87256 0.0
C563 C 0.62063 0.39516 0.89991 0.0
C564 C 0.46583 0.47685 0.05805 0.0
C565 C 0.42713 0.45844 0.02737 0.0
H566 H 0.5708 0.53038 0.08253 0.0
C567 C 0.46674 0.4765 0.99696 0.0
H568 H 0.43678 0.46384 0.08188 0.0
C569 C 0.54384 0.51337 -0.00262 0.0
C570 C 0.58233 0.53276 0.02822 0.0
H571 H 0.43833 0.46372 0.97292 0.0
H572 H 0.57321 0.52566 0.97366 0.0
C573 C 0.54255 0.5157 0.05843 0.0
C574 C 0.01259 0.55461 0.33283 0.0
C575 C 0.04602 0.59018 0.36316 0.0
H576 H 0.94479 0.45242 0.30791 0.0
C577 C 0.03108 0.54769 0.39258 0.0
H578 H 0.01964 0.58599 0.31006 0.0
C579 C 0.99157 0.47093 0.39099 0.0
C580 C 0.9611 0.43506 0.36035 0.0
H581 H 0.05315 0.57368 0.41672 0.0
H582 H 0.98276 0.4396 0.41398 0.0
C583 C 0.97089 0.47775 0.3314 0.0
C584 C 0.47643 0.0234 0.72956 0.0
C585 C 0.46412 0.0471 0.69826 0.0
H586 H 0.52613 0.97051 0.7562 0.0
C587 C 0.491 0.03114 0.669 0.0
H588 H 0.45705 0.03538 0.75268 0.0
C589 C 0.5309 0.99421 0.67099 0.0
C590 C 0.54345 0.97097 0.70233 0.0
H591 H 0.48312 0.04863 0.64467 0.0
H592 H 0.55036 0.98234 0.64788 0.0
C593 C 0.51747 0.98776 0.73167 0.0
C594 C 0.52054 0.5489 0.71469 0.0
C595 C 0.52977 0.58741 0.6844 0.0
H596 H 0.48817 0.44653 0.73886 0.0
C597 C 0.51212 0.54782 0.65382 0.0
H598 H 0.53273 0.57715 0.73873 0.0
C599 C 0.48509 0.47108 0.65391 0.0
C600 C 0.47568 0.43312 0.68456 0.0
H601 H 0.51708 0.57561 0.6301 0.0
H602 H 0.47331 0.44195 0.63014 0.0
C603 C 0.49383 0.47344 0.71478 0.0
C604 C 0.03483 0.488 0.04679 0.0
C605 C 0.06532 0.48314 0.01601 0.0
H606 H 0.95748 0.50916 0.07198 0.0
C607 C 0.0392 0.49793 0.98594 0.0
H608 H 0.05382 0.47743 0.07045 0.0
C609 C 0.98446 0.51817 0.98691 0.0
C610 C 0.95408 0.52259 0.01791 0.0
H611 H 0.06222 0.49556 0.96188 0.0
H612 H 0.96481 0.52875 0.96345 0.0
C613 C 0.97987 0.50681 0.04771 0.0
C614 C 0.47396 0.98034 0.37586 0.0
C615 C 0.43435 0.95688 0.34545 0.0
H616 H 0.5766 0.05015 0.4 0.0
C617 C 0.47142 0.98724 0.3149 0.0
H618 H 0.44732 0.95789 0.39984 0.0
C619 C 0.54701 0.0399 0.315 0.0
C620 C 0.58582 0.06314 0.34568 0.0
H621 H 0.44251 0.96922 0.29106 0.0
H622 H 0.57447 0.06392 0.29138 0.0
C623 C 0.54834 0.03266 0.37596 0.0
C624 C 0.351 0.28226 0.79082 0.0
C625 C 0.33768 0.21722 0.77448 0.0
H626 H 0.31545 0.33087 0.82879 0.0
C627 C 0.28237 0.14971 0.78721 0.0
H628 H 0.39375 0.33522 0.78176 0.0
C629 C 0.23827 0.14718 0.81413 0.0
C630 C 0.24807 0.21219 0.8292 0.0
H631 H 0.27234 0.09857 0.77599 0.0
H632 H 0.19478 0.09398 0.82256 0.0
C633 C 0.3065 0.27981 0.8179 0.0
C634 C 0.03911 0.31344 0.15008 0.0
C635 C 0.04467 0.25281 0.16156 0.0
H636 H 0.07511 0.40169 0.11417 0.0
C637 C 0.09677 0.23902 0.1459 0.0
H638 H 0.99977 0.32608 0.16122 0.0
C639 C 0.1389 0.28169 0.11866 0.0
C640 C 0.13086 0.33986 0.10628 0.0
H641 H 0.10495 0.19472 0.1545 0.0
H642 H 0.17783 0.26888 0.10718 0.0
C643 C 0.08205 0.35669 0.1229 0.0
C644 C 0.83467 0.07078 0.47602 0.0
C645 C 0.768 0.0328 0.49393 0.0
H646 H 0.89516 0.14615 0.43618 0.0
C647 C 0.71039 0.04513 0.48471 0.0
H648 H 0.88001 0.06212 0.48222 0.0
C649 C 0.71834 0.09185 0.45742 0.0
C650 C 0.78444 0.12817 0.43882 0.0
H651 H 0.658 0.01595 0.49756 0.0
H652 H 0.67197 0.09822 0.45049 0.0
C653 C 0.84298 0.11818 0.44917 0.0
C654 C 0.6605 0.73111 0.79108 0.0
C655 C 0.67028 0.79642 0.77637 0.0
H656 H 0.69695 0.68174 0.82815 0.0
C657 C 0.72284 0.86362 0.7905 0.0
H658 H 0.62026 0.67832 0.78078 0.0
C659 C 0.7656 0.86584 0.81813 0.0
C660 C 0.75841 0.8008 0.83233 0.0
H661 H 0.73046 0.91487 0.78039 0.0
H662 H 0.80425 0.9192 0.82838 0.0
C663 C 0.70436 0.7332 0.81849 0.0
C664 C 0.92233 0.7693 0.14432 0.0
C665 C 0.97184 0.75326 0.16118 0.0
H666 H 0.84286 0.74118 0.10488 0.0
C667 C 0.97263 0.68903 0.15191 0.0
H668 H 0.91943 0.81777 0.15096 0.0
C669 C 0.92842 0.6449 0.12502 0.0
C670 C 0.88271 0.6642 0.10681 0.0
H671 H 0.01015 0.67508 0.16417 0.0
H672 H 0.9321 0.59723 0.11769 0.0
C673 C 0.87881 0.72575 0.11756 0.0
C674 C 0.28773 0.97843 0.48069 0.0
C675 C 0.22322 0.95297 0.49987 0.0
H676 H 0.33805 0.96252 0.43658 0.0
C677 C 0.16139 0.88524 0.49066 0.0
H678 H 0.33574 0.03083 0.48659 0.0
C679 C 0.16297 0.84579 0.46232 0.0
C680 C 0.22586 0.87383 0.44193 0.0
H681 H 0.11032 0.86471 0.50442 0.0
H682 H 0.11353 0.79559 0.45521 0.0
C683 C 0.28873 0.93972 0.45183 0.0
loop_
_geom_bond_atom_site_label_1
_geom_bond_atom_site_label_2
_geom_bond_distance
_geom_bond_site_symmetry_2
_ccdc_geom_bond_type
C0 C2 1.422 . S
C0 C4 1.415 . S
C0 N6 1.369 . S
C1 C2 1.421 . S
C1 C3 1.417 . S
C1 C13 1.422 1_554 S
C2 C0 1.422 . S
C2 C1 1.421 . S
C2 N12 1.359 . S
C3 C1 1.417 . S
C3 C5 1.329 . S
C3 H22 0.930 1_554 S
C4 C0 1.415 . S
C4 C5 1.437 . S
C4 C8 1.413 . S
C5 C3 1.329 . S
C5 C4 1.437 . S
C5 H27 0.929 . S
N6 C0 1.369 . S
N6 C7 1.338 . S
N6 Gd11 2.622 . S
C7 N6 1.338 . S
C7 C9 1.378 . S
C7 H19 0.929 . S
C8 C4 1.413 . S
C8 C9 1.348 . S
C8 H24 0.931 . S
C9 C7 1.378 . S
C9 C8 1.348 . S
C9 H25 0.930 . S
Gd10 N30 2.622 1_556 S
Gd10 N37 2.570 1_556 S
Gd10 O44 2.353 . S
Gd10 O45 2.468 . S
Gd10 O46 2.427 . S
Gd10 O48 2.388 . S
Gd10 O49 2.386 1_556 S
Gd10 O53 2.307 1_556 S
Gd10 C63 2.805 . S
Gd11 N6 2.622 . S
Gd11 N12 2.570 . S
Gd11 O43 2.386 1_554 S
Gd11 O47 2.307 . S
Gd11 O50 2.353 . S
Gd11 O51 2.468 . S
Gd11 O52 2.427 . S
Gd11 O54 2.388 . S
Gd11 C75 2.805 . S
N12 C2 1.359 . S
N12 Gd11 2.570 . S
N12 C14 1.343 . S
C13 C1 1.422 1_556 S
C13 C15 1.321 1_556 S
C13 H21 0.931 . S
C14 N12 1.343 . S
C14 C15 1.390 . S
C14 H16 0.931 . S
C15 C13 1.321 1_554 S
C15 C14 1.390 . S
C15 H17 0.924 1_554 S
H16 C14 0.931 . S
H17 C15 0.924 1_556 S
H18 C41 0.931 . S
H19 C7 0.929 . S
H20 C42 0.930 . S
H21 C13 0.931 . S
H22 C3 0.930 1_556 S
H23 C32 0.929 . S
H24 C8 0.931 . S
H25 C9 0.930 . S
H26 C64 0.930 1_565 S
H27 C5 0.929 . S
H28 C33 0.931 . S
H29 C34 0.930 . S
N30 Gd10 2.622 1_554 S
N30 C31 1.368 . S
N30 C32 1.338 1_454 S
C31 N30 1.368 . S
C31 C35 1.415 1_455 S
C31 C38 1.422 . S
C32 H23 0.929 . S
C32 N30 1.338 1_656 S
C32 C34 1.378 . S
C33 H28 0.931 . S
C33 C34 1.348 1_554 S
C33 C35 1.413 . S
C34 H29 0.930 . S
C34 C32 1.378 . S
C34 C33 1.348 1_556 S
C35 C31 1.415 1_655 S
C35 C33 1.413 . S
C35 C65 1.437 . S
H36 C65 0.929 1_565 S
N37 Gd10 2.570 1_554 S
N37 C38 1.359 . S
N37 C41 1.343 . S
C38 C31 1.422 . S
C38 N37 1.359 . S
C38 C40 1.421 . S
C39 C40 1.422 . S
C39 C42 1.321 . S
C39 H66 0.931 . S
C40 C38 1.421 . S
C40 C39 1.422 . S
C40 C64 1.417 1_455 S
C41 H18 0.931 . S
C41 N37 1.343 . S
C41 C42 1.390 . S
C42 H20 0.930 . S
C42 C39 1.321 . S
C42 C41 1.390 . S
O43 Gd11 2.386 1_556 S
O43 C55 1.265 . S
O44 Gd10 2.353 . S
O44 C55 1.242 . S
O45 Gd10 2.468 . S
O45 C63 1.263 . S
O46 Gd10 2.427 . S
O46 C63 1.252 . S
O47 Gd11 2.307 . S
O47 C56 1.261 . S
O48 Gd10 2.388 . S
O48 C56 1.252 1_556 S
O49 Gd10 2.386 1_554 S
O49 C67 1.265 . S
O50 Gd11 2.353 . S
O50 C67 1.242 . S
O51 Gd11 2.468 . S
O51 C75 1.263 . S
O52 Gd11 2.427 . S
O52 C75 1.252 . S
O53 Gd10 2.307 1_554 S
O53 C68 1.261 . S
O54 Gd11 2.388 . S
O54 C68 1.252 . S
C55 O43 1.265 . S
C55 O44 1.242 . S
C56 O47 1.261 . S
C56 O48 1.252 1_554 S
C57 C60 1.394 . S
C57 C62 1.370 . S
C57 C63 1.500 . S
C58 C61 1.383 . S
C58 C62 1.395 . S
C59 C60 1.396 . S
C59 C61 1.365 . S
C59 H76 0.929 . S
C60 C57 1.394 . S
C60 C59 1.396 . S
C60 H77 0.930 . S
C61 C58 1.383 . S
C61 C59 1.365 . S
C61 H78 0.931 . S
C62 C57 1.370 . S
C62 C58 1.395 . S
C62 H79 0.930 . S
C63 Gd10 2.805 . S
C63 O45 1.263 . S
C63 O46 1.252 . S
C63 C57 1.500 . S
C64 H26 0.930 1_545 S
C64 C40 1.417 1_655 S
C64 C65 1.329 . S
C65 C35 1.437 . S
C65 H36 0.929 1_545 S
C65 C64 1.329 . S
H66 C39 0.931 . S
C67 O49 1.265 . S
C67 O50 1.242 . S
C68 O53 1.261 . S
C68 O54 1.252 . S
C69 C72 1.394 . S
C69 C74 1.370 . S
C69 C75 1.500 . S
C70 C73 1.383 . S
C70 C74 1.395 . S
C71 C72 1.396 . S
C71 C73 1.365 . S
C71 H80 0.929 . S
C72 C69 1.394 . S
C72 C71 1.396 . S
C72 H81 0.930 . S
C73 C70 1.383 . S
C73 C71 1.365 . S
C73 H82 0.931 . S
C74 C69 1.370 . S
C74 C70 1.395 . S
C74 H83 0.930 . S
C75 Gd11 2.805 . S
C75 O51 1.263 . S
C75 O52 1.252 . S
C75 C69 1.500 . S
H76 C59 0.929 . S
H77 C60 0.930 . S
H78 C61 0.931 . S
H79 C62 0.930 . S
H80 C71 0.929 . S
H81 C72 0.930 . S
H82 C73 0.931 . S
H83 C74 0.930 . S
C84 C86 1.422 . S
C84 C88 1.415 . S
C84 N90 1.369 . S
C85 C86 1.421 . S
C85 C87 1.417 . S
C85 C97 1.422 . S
C86 C84 1.422 . S
C86 C85 1.421 . S
C86 N96 1.359 . S
C87 C85 1.417 . S
C87 C89 1.329 . S
C87 H106 0.930 . S
C88 C84 1.415 . S
C88 C89 1.437 . S
C88 C92 1.413 . S
C89 C87 1.329 . S
C89 C88 1.437 . S
C89 H111 0.929 . S
N90 C84 1.369 . S
N90 C91 1.338 . S
N90 Gd95 2.622 . S
C91 N90 1.338 . S
C91 C93 1.378 . S
C91 H103 0.929 . S
C92 C88 1.413 . S
C92 C93 1.348 . S
C92 H108 0.931 . S
C93 C91 1.378 . S
C93 C92 1.348 . S
C93 H109 0.930 . S
Gd94 N114 2.622 . S
Gd94 N121 2.570 . S
Gd94 O128 2.353 . S
Gd94 O129 2.468 . S
Gd94 O130 2.427 . S
Gd94 O132 2.388 . S
Gd94 O133 2.386 . S
Gd94 O137 2.307 . S
Gd94 C147 2.805 . S
Gd95 N90 2.622 . S
Gd95 N96 2.570 . S
Gd95 O127 2.386 . S
Gd95 O131 2.307 . S
Gd95 O134 2.353 . S
Gd95 O135 2.468 . S
Gd95 O136 2.427 . S
Gd95 O138 2.388 . S
Gd95 C159 2.805 . S
N96 C86 1.359 . S
N96 Gd95 2.570 . S
N96 C98 1.343 . S
C97 C85 1.422 . S
C97 C99 1.321 . S
C97 H105 0.931 . S
C98 N96 1.343 . S
C98 C99 1.390 . S
C98 H100 0.931 . S
C99 C97 1.321 . S
C99 C98 1.390 . S
C99 H101 0.930 . S
H100 C98 0.931 . S
H101 C99 0.930 . S
H102 C125 0.931 . S
H103 C91 0.929 . S
H104 C126 0.930 . S
H105 C97 0.931 . S
H106 C87 0.930 . S
H107 C116 0.929 . S
H108 C92 0.931 . S
H109 C93 0.930 . S
H110 C148 0.930 . S
H111 C89 0.929 . S
H112 C117 0.931 . S
H113 C118 0.930 . S
N114 Gd94 2.622 . S
N114 C115 1.369 . S
N114 C116 1.338 1_545 S
C115 N114 1.369 . S
C115 C119 1.415 1_545 S
C115 C122 1.422 . S
C116 H107 0.929 . S
C116 N114 1.338 1_565 S
C116 C118 1.378 . S
C117 H112 0.931 . S
C117 C118 1.348 . S
C117 C119 1.413 . S
C118 H113 0.930 . S
C118 C116 1.378 . S
C118 C117 1.348 . S
C119 C115 1.415 1_565 S
C119 C117 1.413 . S
C119 C149 1.437 . S
H120 C149 0.929 . S
N121 Gd94 2.570 . S
N121 C122 1.359 . S
N121 C125 1.343 1_655 S
C122 C115 1.422 . S
C122 N121 1.359 . S
C122 C124 1.421 . S
C123 C124 1.422 1_455 S
C123 C126 1.321 . S
C123 H150 0.931 . S
C124 C122 1.421 . S
C124 C123 1.422 1_655 S
C124 C148 1.417 1_545 S
C125 H102 0.931 . S
C125 N121 1.343 1_455 S
C125 C126 1.390 . S
C126 H104 0.930 . S
C126 C123 1.321 . S
C126 C125 1.390 . S
O127 Gd95 2.386 . S
O127 C139 1.265 . S
O128 Gd94 2.353 . S
O128 C139 1.242 . S
O129 Gd94 2.468 . S
O129 C147 1.263 . S
O130 Gd94 2.427 . S
O130 C147 1.252 . S
O131 Gd95 2.307 . S
O131 C140 1.261 . S
O132 Gd94 2.388 . S
O132 C140 1.252 . S
O133 Gd94 2.386 . S
O133 C151 1.265 . S
O134 Gd95 2.353 . S
O134 C151 1.242 . S
O135 Gd95 2.468 . S
O135 C159 1.263 . S
O136 Gd95 2.427 . S
O136 C159 1.252 . S
O137 Gd94 2.307 . S
O137 C152 1.261 . S
O138 Gd95 2.388 . S
O138 C152 1.252 . S
C139 O127 1.265 . S
C139 O128 1.242 . S
C140 O131 1.261 . S
C140 O132 1.252 . S
C141 C144 1.394 . S
C141 C146 1.370 1_655 S
C141 C147 1.500 . S
C142 C145 1.383 . S
C142 C146 1.395 . S
C143 C144 1.396 . S
C143 C145 1.365 1_655 S
C143 H160 0.929 . S
C144 C141 1.394 . S
C144 C143 1.396 . S
C144 H161 0.930 . S
C145 C142 1.383 . S
C145 C143 1.365 1_455 S
C145 H162 0.931 . S
C146 C141 1.370 1_455 S
C146 C142 1.395 . S
C146 H163 0.930 . S
C147 Gd94 2.805 . S
C147 O129 1.263 . S
C147 O130 1.252 . S
C147 C141 1.500 . S
C148 H110 0.930 . S
C148 C124 1.417 1_565 S
C148 C149 1.329 . S
C149 C119 1.437 . S
C149 H120 0.929 . S
C149 C148 1.329 . S
H150 C123 0.931 . S
C151 O133 1.265 . S
C151 O134 1.242 . S
C152 O137 1.261 . S
C152 O138 1.252 . S
C153 C156 1.394 . S
C153 C158 1.370 . S
C153 C159 1.500 . S
C154 C157 1.383 . S
C154 C158 1.395 . S
C155 C156 1.396 . S
C155 C157 1.365 . S
C155 H164 0.929 . S
C156 C153 1.394 . S
C156 C155 1.396 . S
C156 H165 0.930 . S
C157 C154 1.383 . S
C157 C155 1.365 . S
C157 H166 0.931 . S
C158 C153 1.370 . S
C158 C154 1.395 . S
C158 H167 0.930 . S
C159 Gd95 2.805 . S
C159 O135 1.263 . S
C159 O136 1.252 . S
C159 C153 1.500 . S
H160 C143 0.929 . S
H161 C144 0.930 . S
H162 C145 0.931 . S
H163 C146 0.930 . S
H164 C155 0.929 . S
H165 C156 0.930 . S
H166 C157 0.931 . S
H167 C158 0.930 . S
C168 C170 1.422 . S
C168 C172 1.415 . S
C168 N174 1.369 . S
C169 C170 1.421 . S
C169 C171 1.417 . S
C169 C181 1.422 . S
C170 C168 1.422 . S
C170 C169 1.421 . S
C170 N180 1.359 . S
C171 C169 1.417 . S
C171 C173 1.329 . S
C171 H190 0.930 . S
C172 C168 1.415 . S
C172 C173 1.437 . S
C172 C176 1.413 . S
C173 C171 1.329 . S
C173 C172 1.437 . S
C173 H195 0.929 . S
N174 C168 1.369 . S
N174 C175 1.338 . S
N174 Gd179 2.622 . S
C175 N174 1.338 . S
C175 C177 1.378 . S
C175 H187 0.929 . S
C176 C172 1.413 . S
C176 C177 1.348 . S
C176 H192 0.931 . S
C177 C175 1.378 . S
C177 C176 1.348 . S
C177 H193 0.930 . S
Gd178 N198 2.622 . S
Gd178 N205 2.570 . S
Gd178 O212 2.353 . S
Gd178 O213 2.468 . S
Gd178 O214 2.427 . S
Gd178 O216 2.388 . S
Gd178 O217 2.386 . S
Gd178 O221 2.307 . S
Gd178 C231 2.805 . S
Gd179 N174 2.622 . S
Gd179 N180 2.570 . S
Gd179 O211 2.386 . S
Gd179 O215 2.307 . S
Gd179 O218 2.353 . S
Gd179 O219 2.468 . S
Gd179 O220 2.427 . S
Gd179 O222 2.388 . S
Gd179 C243 2.805 . S
N180 C170 1.359 . S
N180 Gd179 2.570 . S
N180 C182 1.343 . S
C181 C169 1.422 . S
C181 C183 1.321 . S
C181 H189 0.931 . S
C182 N180 1.343 . S
C182 C183 1.390 . S
C182 H184 0.931 . S
C183 C181 1.321 . S
C183 C182 1.390 . S
C183 H185 0.930 . S
H184 C182 0.931 . S
H185 C183 0.930 . S
H186 C209 0.931 . S
H187 C175 0.929 . S
H188 C210 0.930 . S
H189 C181 0.931 . S
H190 C171 0.930 . S
H191 C200 0.929 . S
H192 C176 0.931 . S
H193 C177 0.930 . S
H194 C232 0.930 1_455 S
H195 C173 0.929 . S
H196 C201 0.931 . S
H197 C202 0.930 . S
N198 Gd178 2.622 . S
N198 C199 1.369 . S
N198 C200 1.338 . S
C199 N198 1.369 . S
C199 C203 1.415 . S
C199 C206 1.422 . S
C200 H191 0.929 . S
C200 N198 1.338 . S
C200 C202 1.378 . S
C201 H196 0.931 . S
C201 C202 1.348 . S
C201 C203 1.413 . S
C202 H197 0.930 . S
C202 C200 1.378 . S
C202 C201 1.348 . S
C203 C199 1.415 . S
C203 C201 1.413 . S
C203 C233 1.437 . S
H204 C233 0.929 1_455 S
N205 Gd178 2.570 . S
N205 C206 1.359 . S
N205 C209 1.343 1_565 S
C206 C199 1.422 . S
C206 N205 1.359 . S
C206 C208 1.421 . S
C207 C208 1.422 1_545 S
C207 C210 1.321 . S
C207 H234 0.931 . S
C208 C206 1.421 . S
C208 C207 1.422 1_565 S
C208 C232 1.417 . S
C209 H186 0.931 . S
C209 N205 1.343 1_545 S
C209 C210 1.390 . S
C210 H188 0.930 . S
C210 C207 1.321 . S
C210 C209 1.390 . S
O211 Gd179 2.386 . S
O211 C223 1.265 . S
O212 Gd178 2.353 . S
O212 C223 1.242 . S
O213 Gd178 2.468 . S
O213 C231 1.263 . S
O214 Gd178 2.427 . S
O214 C231 1.252 . S
O215 Gd179 2.307 . S
O215 C224 1.261 . S
O216 Gd178 2.388 . S
O216 C224 1.252 . S
O217 Gd178 2.386 . S
O217 C235 1.265 . S
O218 Gd179 2.353 . S
O218 C235 1.242 . S
O219 Gd179 2.468 . S
O219 C243 1.263 . S
O220 Gd179 2.427 . S
O220 C243 1.252 . S
O221 Gd178 2.307 . S
O221 C236 1.261 . S
O222 Gd179 2.388 . S
O222 C236 1.252 . S
C223 O211 1.265 . S
C223 O212 1.242 . S
C224 O215 1.261 . S
C224 O216 1.252 . S
C225 C228 1.394 . S
C225 C230 1.370 1_565 S
C225 C231 1.500 . S
C226 C229 1.383 . S
C226 C230 1.395 . S
C227 C228 1.396 . S
C227 C229 1.365 1_565 S
C227 H244 0.929 . S
C228 C225 1.394 . S
C228 C227 1.396 . S
C228 H245 0.930 . S
C229 C226 1.383 . S
C229 C227 1.365 1_545 S
C229 H246 0.931 . S
C230 C225 1.370 1_545 S
C230 C226 1.395 . S
C230 H247 0.930 . S
C231 Gd178 2.805 . S
C231 O213 1.263 . S
C231 O214 1.252 . S
C231 C225 1.500 . S
C232 H194 0.930 1_655 S
C232 C208 1.417 . S
C232 C233 1.329 . S
C233 C203 1.437 . S
C233 H204 0.929 1_655 S
C233 C232 1.329 . S
H234 C207 0.931 . S
C235 O217 1.265 . S
C235 O218 1.242 . S
C236 O221 1.261 . S
C236 O222 1.252 . S
C237 C240 1.394 . S
C237 C242 1.370 . S
C237 C243 1.500 . S
C238 C241 1.383 . S
C238 C242 1.395 . S
C239 C240 1.396 . S
C239 C241 1.365 . S
C239 H248 0.929 . S
C240 C237 1.394 . S
C240 C239 1.396 . S
C240 H249 0.930 . S
C241 C238 1.383 . S
C241 C239 1.365 . S
C241 H250 0.931 . S
C242 C237 1.370 . S
C242 C238 1.395 . S
C242 H251 0.930 . S
C243 Gd179 2.805 . S
C243 O219 1.263 . S
C243 O220 1.252 . S
C243 C237 1.500 . S
H244 C227 0.929 . S
H245 C228 0.930 . S
H246 C229 0.931 . S
H247 C230 0.930 . S
H248 C239 0.929 . S
H249 C240 0.930 . S
H250 C241 0.931 . S
H251 C242 0.930 . S
C252 C254 1.422 . S
C252 C256 1.415 . S
C252 N258 1.369 . S
C253 C254 1.421 . S
C253 C255 1.417 . S
C253 C265 1.422 1_554 S
C254 C252 1.422 . S
C254 C253 1.421 . S
C254 N264 1.359 . S
C255 C253 1.417 . S
C255 C257 1.329 . S
C255 H274 0.930 1_554 S
C256 C252 1.415 . S
C256 C257 1.437 . S
C256 C260 1.413 . S
C257 C255 1.329 . S
C257 C256 1.437 . S
C257 H279 0.929 . S
N258 C252 1.369 . S
N258 C259 1.338 . S
N258 Gd263 2.622 . S
C259 N258 1.338 . S
C259 C261 1.378 . S
C259 H271 0.929 . S
C260 C256 1.413 . S
C260 C261 1.348 . S
C260 H276 0.931 . S
C261 C259 1.378 . S
C261 C260 1.348 . S
C261 H277 0.930 . S
Gd262 N282 2.622 1_556 S
Gd262 N289 2.570 1_556 S
Gd262 O296 2.353 . S
Gd262 O297 2.468 . S
Gd262 O298 2.427 . S
Gd262 O300 2.388 . S
Gd262 O301 2.386 1_556 S
Gd262 O305 2.307 1_556 S
Gd262 C315 2.805 . S
Gd263 N258 2.622 . S
Gd263 N264 2.570 . S
Gd263 O295 2.386 1_554 S
Gd263 O299 2.307 . S
Gd263 O302 2.353 . S
Gd263 O303 2.468 . S
Gd263 O304 2.427 . S
Gd263 O306 2.388 . S
Gd263 C327 2.805 . S
N264 C254 1.359 . S
N264 Gd263 2.570 . S
N264 C266 1.343 . S
C265 C253 1.422 1_556 S
C265 C267 1.321 1_556 S
C265 H273 0.931 . S
C266 N264 1.343 . S
C266 C267 1.390 . S
C266 H268 0.931 . S
C267 C265 1.321 1_554 S
C267 C266 1.390 . S
C267 H269 0.924 1_554 S
H268 C266 0.931 . S
H269 C267 0.924 1_556 S
H270 C293 0.931 . S
H271 C259 0.929 . S
H272 C294 0.930 . S
H273 C265 0.931 . S
H274 C255 0.930 1_556 S
H275 C284 0.929 . S
H276 C260 0.931 . S
H277 C261 0.930 . S
H278 C316 0.930 1_545 S
H279 C257 0.929 . S
H280 C285 0.931 . S
H281 C286 0.930 . S
N282 Gd262 2.622 1_554 S
N282 C283 1.368 . S
N282 C284 1.338 1_654 S
C283 N282 1.368 . S
C283 C287 1.415 1_655 S
C283 C290 1.422 . S
C284 H275 0.929 . S
C284 N282 1.338 1_456 S
C284 C286 1.378 . S
C285 H280 0.931 . S
C285 C286 1.348 1_554 S
C285 C287 1.413 . S
C286 H281 0.930 . S
C286 C284 1.378 . S
C286 C285 1.348 1_556 S
C287 C283 1.415 1_455 S
C287 C285 1.413 . S
C287 C317 1.437 . S
H288 C317 0.929 1_545 S
N289 Gd262 2.570 1_554 S
N289 C290 1.359 . S
N289 C293 1.343 . S
C290 C283 1.422 . S
C290 N289 1.359 . S
C290 C292 1.421 . S
C291 C292 1.422 . S
C291 C294 1.321 . S
C291 H318 0.931 . S
C292 C290 1.421 . S
C292 C291 1.422 . S
C292 C316 1.417 1_655 S
C293 H270 0.931 . S
C293 N289 1.343 . S
C293 C294 1.390 . S
C294 H272 0.930 . S
C294 C291 1.321 . S
C294 C293 1.390 . S
O295 Gd263 2.386 1_556 S
O295 C307 1.265 . S
O296 Gd262 2.353 . S
O296 C307 1.242 . S
O297 Gd262 2.468 . S
O297 C315 1.263 . S
O298 Gd262 2.427 . S
O298 C315 1.252 . S
O299 Gd263 2.307 . S
O299 C308 1.261 . S
O300 Gd262 2.388 . S
O300 C308 1.252 1_556 S
O301 Gd262 2.386 1_554 S
O301 C319 1.265 . S
O302 Gd263 2.353 . S
O302 C319 1.242 . S
O303 Gd263 2.468 . S
O303 C327 1.263 . S
O304 Gd263 2.427 . S
O304 C327 1.252 . S
O305 Gd262 2.307 1_554 S
O305 C320 1.261 . S
O306 Gd263 2.388 . S
O306 C320 1.252 . S
C307 O295 1.265 . S
C307 O296 1.242 . S
C308 O299 1.261 . S
C308 O300 1.252 1_554 S
C309 C312 1.394 . S
C309 C314 1.370 . S
C309 C315 1.500 . S
C310 C313 1.383 . S
C310 C314 1.395 . S
C311 C312 1.396 . S
C311 C313 1.365 . S
C311 H328 0.929 . S
C312 C309 1.394 . S
C312 C311 1.396 . S
C312 H329 0.930 . S
C313 C310 1.383 . S
C313 C311 1.365 . S
C313 H330 0.931 . S
C314 C309 1.370 . S
C314 C310 1.395 . S
C314 H331 0.930 . S
C315 Gd262 2.805 . S
C315 O297 1.263 . S
C315 O298 1.252 . S
C315 C309 1.500 . S
C316 H278 0.930 1_565 S
C316 C292 1.417 1_455 S
C316 C317 1.329 . S
C317 C287 1.437 . S
C317 H288 0.929 1_565 S
C317 C316 1.329 . S
H318 C291 0.931 . S
C319 O301 1.265 . S
C319 O302 1.242 . S
C320 O305 1.261 . S
C320 O306 1.252 . S
C321 C324 1.394 . S
C321 C326 1.370 . S
C321 C327 1.500 . S
C322 C325 1.383 . S
C322 C326 1.395 . S
C323 C324 1.396 . S
C323 C325 1.365 . S
C323 H332 0.929 . S
C324 C321 1.394 . S
C324 C323 1.396 . S
C324 H333 0.930 . S
C325 C322 1.383 . S
C325 C323 1.365 . S
C325 H334 0.931 . S
C326 C321 1.370 . S
C326 C322 1.395 . S
C326 H335 0.930 . S
C327 Gd263 2.805 . S
C327 O303 1.263 . S
C327 O304 1.252 . S
C327 C321 1.500 . S
H328 C311 0.929 . S
H329 C312 0.930 . S
H330 C313 0.931 . S
H331 C314 0.930 . S
H332 C323 0.929 . S
H333 C324 0.930 . S
H334 C325 0.931 . S
H335 C326 0.930 . S
C336 C338 1.422 . S
C336 C340 1.415 . S
C336 N342 1.369 . S
C337 C338 1.421 . S
C337 C339 1.417 . S
C337 C349 1.422 . S
C338 C336 1.422 . S
C338 C337 1.421 . S
C338 N348 1.359 . S
C339 C337 1.417 . S
C339 C341 1.329 . S
C339 H358 0.930 . S
C340 C336 1.415 . S
C340 C341 1.437 . S
C340 C344 1.413 . S
C341 C339 1.329 . S
C341 C340 1.437 . S
C341 H363 0.929 . S
N342 C336 1.369 . S
N342 C343 1.338 . S
N342 Gd347 2.622 . S
C343 N342 1.338 . S
C343 C345 1.378 . S
C343 H355 0.929 . S
C344 C340 1.413 . S
C344 C345 1.348 . S
C344 H360 0.931 . S
C345 C343 1.378 . S
C345 C344 1.348 . S
C345 H361 0.930 . S
Gd346 N366 2.622 . S
Gd346 N373 2.570 . S
Gd346 O380 2.353 . S
Gd346 O381 2.468 . S
Gd346 O382 2.427 . S
Gd346 O384 2.388 . S
Gd346 O385 2.386 . S
Gd346 O389 2.307 . S
Gd346 C399 2.805 . S
Gd347 N342 2.622 . S
Gd347 N348 2.570 . S
Gd347 O379 2.386 . S
Gd347 O383 2.307 . S
Gd347 O386 2.353 . S
Gd347 O387 2.468 . S
Gd347 O388 2.427 . S
Gd347 O390 2.388 . S
Gd347 C411 2.805 . S
N348 C338 1.359 . S
N348 Gd347 2.570 . S
N348 C350 1.343 . S
C349 C337 1.422 . S
C349 C351 1.321 . S
C349 H357 0.931 . S
C350 N348 1.343 . S
C350 C351 1.390 . S
C350 H352 0.931 . S
C351 C349 1.321 . S
C351 C350 1.390 . S
C351 H353 0.930 . S
H352 C350 0.931 . S
H353 C351 0.930 . S
H354 C377 0.931 . S
H355 C343 0.929 . S
H356 C378 0.930 . S
H357 C349 0.931 . S
H358 C339 0.930 . S
H359 C368 0.929 . S
H360 C344 0.931 . S
H361 C345 0.930 . S
H362 C400 0.930 . S
H363 C341 0.929 . S
H364 C369 0.931 . S
H365 C370 0.930 . S
N366 Gd346 2.622 . S
N366 C367 1.369 . S
N366 C368 1.338 1_565 S
C367 N366 1.369 . S
C367 C371 1.415 1_565 S
C367 C374 1.422 . S
C368 H359 0.929 . S
C368 N366 1.338 1_545 S
C368 C370 1.378 . S
C369 H364 0.931 . S
C369 C370 1.348 . S
C369 C371 1.413 . S
C370 H365 0.930 . S
C370 C368 1.378 . S
C370 C369 1.348 . S
C371 C367 1.415 1_545 S
C371 C369 1.413 . S
C371 C401 1.437 . S
H372 C401 0.929 . S
N373 Gd346 2.570 . S
N373 C374 1.359 . S
N373 C377 1.343 1_455 S
C374 C367 1.422 . S
C374 N373 1.359 . S
C374 C376 1.421 . S
C375 C376 1.422 1_655 S
C375 C378 1.321 . S
C375 H402 0.931 . S
C376 C374 1.421 . S
C376 C375 1.422 1_455 S
C376 C400 1.417 1_565 S
C377 H354 0.931 . S
C377 N373 1.343 1_655 S
C377 C378 1.390 . S
C378 H356 0.930 . S
C378 C375 1.321 . S
C378 C377 1.390 . S
O379 Gd347 2.386 . S
O379 C391 1.265 . S
O380 Gd346 2.353 . S
O380 C391 1.242 . S
O381 Gd346 2.468 . S
O381 C399 1.263 . S
O382 Gd346 2.427 . S
O382 C399 1.252 . S
O383 Gd347 2.307 . S
O383 C392 1.261 . S
O384 Gd346 2.388 . S
O384 C392 1.252 . S
O385 Gd346 2.386 . S
O385 C403 1.265 . S
O386 Gd347 2.353 . S
O386 C403 1.242 . S
O387 Gd347 2.468 . S
O387 C411 1.263 . S
O388 Gd347 2.427 . S
O388 C411 1.252 . S
O389 Gd346 2.307 . S
O389 C404 1.261 . S
O390 Gd347 2.388 . S
O390 C404 1.252 . S
C391 O379 1.265 . S
C391 O380 1.242 . S
C392 O383 1.261 . S
C392 O384 1.252 . S
C393 C396 1.394 . S
C393 C398 1.370 1_455 S
C393 C399 1.500 . S
C394 C397 1.383 . S
C394 C398 1.395 . S
C395 C396 1.396 . S
C395 C397 1.365 1_455 S
C395 H412 0.929 . S
C396 C393 1.394 . S
C396 C395 1.396 . S
C396 H413 0.930 . S
C397 C394 1.383 . S
C397 C395 1.365 1_655 S
C397 H414 0.931 . S
C398 C393 1.370 1_655 S
C398 C394 1.395 . S
C398 H415 0.930 . S
C399 Gd346 2.805 . S
C399 O381 1.263 . S
C399 O382 1.252 . S
C399 C393 1.500 . S
C400 H362 0.930 . S
C400 C376 1.417 1_545 S
C400 C401 1.329 . S
C401 C371 1.437 . S
C401 H372 0.929 . S
C401 C400 1.329 . S
H402 C375 0.931 . S
C403 O385 1.265 . S
C403 O386 1.242 . S
C404 O389 1.261 . S
C404 O390 1.252 . S
C405 C408 1.394 . S
C405 C410 1.370 . S
C405 C411 1.500 . S
C406 C409 1.383 . S
C406 C410 1.395 . S
C407 C408 1.396 . S
C407 C409 1.365 . S
C407 H416 0.929 . S
C408 C405 1.394 . S
C408 C407 1.396 . S
C408 H417 0.930 . S
C409 C406 1.383 . S
C409 C407 1.365 . S
C409 H418 0.931 . S
C410 C405 1.370 . S
C410 C406 1.395 . S
C410 H419 0.930 . S
C411 Gd347 2.805 . S
C411 O387 1.263 . S
C411 O388 1.252 . S
C411 C405 1.500 . S
H412 C395 0.929 . S
H413 C396 0.930 . S
H414 C397 0.931 . S
H415 C398 0.930 . S
H416 C407 0.929 . S
H417 C408 0.930 . S
H418 C409 0.931 . S
H419 C410 0.930 . S
C420 C422 1.422 . S
C420 C424 1.415 . S
C420 N426 1.369 . S
C421 C422 1.421 . S
C421 C423 1.417 . S
C421 C433 1.422 . S
C422 C420 1.422 . S
C422 C421 1.421 . S
C422 N432 1.359 . S
C423 C421 1.417 . S
C423 C425 1.329 . S
C423 H442 0.930 . S
C424 C420 1.415 . S
C424 C425 1.437 . S
C424 C428 1.413 . S
C425 C423 1.329 . S
C425 C424 1.437 . S
C425 H447 0.929 . S
N426 C420 1.369 . S
N426 C427 1.338 . S
N426 Gd431 2.622 . S
C427 N426 1.338 . S
C427 C429 1.378 . S
C427 H439 0.929 . S
C428 C424 1.413 . S
C428 C429 1.348 . S
C428 H444 0.931 . S
C429 C427 1.378 . S
C429 C428 1.348 . S
C429 H445 0.930 . S
Gd430 N450 2.622 . S
Gd430 N457 2.570 . S
Gd430 O464 2.353 . S
Gd430 O465 2.468 . S
Gd430 O466 2.427 . S
Gd430 O468 2.388 . S
Gd430 O469 2.386 . S
Gd430 O473 2.307 . S
Gd430 C483 2.805 . S
Gd431 N426 2.622 . S
Gd431 N432 2.570 . S
Gd431 O463 2.386 . S
Gd431 O467 2.307 . S
Gd431 O470 2.353 . S
Gd431 O471 2.468 . S
Gd431 O472 2.427 . S
Gd431 O474 2.388 . S
Gd431 C495 2.805 . S
N432 C422 1.359 . S
N432 Gd431 2.570 . S
N432 C434 1.343 . S
C433 C421 1.422 . S
C433 C435 1.321 . S
C433 H441 0.931 . S
C434 N432 1.343 . S
C434 C435 1.390 . S
C434 H436 0.931 . S
C435 C433 1.321 . S
C435 C434 1.390 . S
C435 H437 0.930 . S
H436 C434 0.931 . S
H437 C435 0.930 . S
H438 C461 0.931 . S
H439 C427 0.929 . S
H440 C462 0.930 . S
H441 C433 0.931 . S
H442 C423 0.930 . S
H443 C452 0.929 . S
H444 C428 0.931 . S
H445 C429 0.930 . S
H446 C484 0.930 1_655 S
H447 C425 0.929 . S
H448 C453 0.931 . S
H449 C454 0.930 . S
N450 Gd430 2.622 . S
N450 C451 1.369 . S
N450 C452 1.338 . S
C451 N450 1.369 . S
C451 C455 1.415 . S
C451 C458 1.422 . S
C452 H443 0.929 . S
C452 N450 1.338 . S
C452 C454 1.378 . S
C453 H448 0.931 . S
C453 C454 1.348 . S
C453 C455 1.413 . S
C454 H449 0.930 . S
C454 C452 1.378 . S
C454 C453 1.348 . S
C455 C451 1.415 . S
C455 C453 1.413 . S
C455 C485 1.437 . S
H456 C485 0.929 1_655 S
N457 Gd430 2.570 . S
N457 C458 1.359 . S
N457 C461 1.343 1_545 S
C458 C451 1.422 . S
C458 N457 1.359 . S
C458 C460 1.421 . S
C459 C460 1.422 1_565 S
C459 C462 1.321 . S
C459 H486 0.931 . S
C460 C458 1.421 . S
C460 C459 1.422 1_545 S
C460 C484 1.417 . S
C461 H438 0.931 . S
C461 N457 1.343 1_565 S
C461 C462 1.390 . S
C462 H440 0.930 . S
C462 C459 1.321 . S
C462 C461 1.390 . S
O463 Gd431 2.386 . S
O463 C475 1.265 . S
O464 Gd430 2.353 . S
O464 C475 1.242 . S
O465 Gd430 2.468 . S
O465 C483 1.263 . S
O466 Gd430 2.427 . S
O466 C483 1.252 . S
O467 Gd431 2.307 . S
O467 C476 1.261 . S
O468 Gd430 2.388 . S
O468 C476 1.252 . S
O469 Gd430 2.386 . S
O469 C487 1.265 . S
O470 Gd431 2.353 . S
O470 C487 1.242 . S
O471 Gd431 2.468 . S
O471 C495 1.263 . S
O472 Gd431 2.427 . S
O472 C495 1.252 . S
O473 Gd430 2.307 . S
O473 C488 1.261 . S
O474 Gd431 2.388 . S
O474 C488 1.252 . S
C475 O463 1.265 . S
C475 O464 1.242 . S
C476 O467 1.261 . S
C476 O468 1.252 . S
C477 C480 1.394 . S
C477 C482 1.370 1_545 S
C477 C483 1.500 . S
C478 C481 1.383 . S
C478 C482 1.395 . S
C479 C480 1.396 . S
C479 C481 1.365 1_545 S
C479 H496 0.929 . S
C480 C477 1.394 . S
C480 C479 1.396 . S
C480 H497 0.930 . S
C481 C478 1.383 . S
C481 C479 1.365 1_565 S
C481 H498 0.931 . S
C482 C477 1.370 1_565 S
C482 C478 1.395 . S
C482 H499 0.930 . S
C483 Gd430 2.805 . S
C483 O465 1.263 . S
C483 O466 1.252 . S
C483 C477 1.500 . S
C484 H446 0.930 1_455 S
C484 C460 1.417 . S
C484 C485 1.329 . S
C485 C455 1.437 . S
C485 H456 0.929 1_455 S
C485 C484 1.329 . S
H486 C459 0.931 . S
C487 O469 1.265 . S
C487 O470 1.242 . S
C488 O473 1.261 . S
C488 O474 1.252 . S
C489 C492 1.394 . S
C489 C494 1.370 . S
C489 C495 1.500 . S
C490 C493 1.383 . S
C490 C494 1.395 . S
C491 C492 1.396 . S
C491 C493 1.365 . S
C491 H500 0.929 . S
C492 C489 1.394 . S
C492 C491 1.396 . S
C492 H501 0.930 . S
C493 C490 1.383 . S
C493 C491 1.365 . S
C493 H502 0.931 . S
C494 C489 1.370 . S
C494 C490 1.395 . S
C494 H503 0.930 . S
C495 Gd431 2.805 . S
C495 O471 1.263 . S
C495 O472 1.252 . S
C495 C489 1.500 . S
H496 C479 0.929 . S
H497 C480 0.930 . S
H498 C481 0.931 . S
H499 C482 0.930 . S
H500 C491 0.929 . S
H501 C492 0.930 . S
H502 C493 0.931 . S
H503 C494 0.930 . S
C504 C505 1.387 . S
C504 H508 0.950 . S
C504 C513 1.390 . S
C505 C504 1.387 . S
C505 C507 1.387 . S
H506 C513 0.950 . S
C507 C505 1.387 . S
C507 C509 1.390 . S
C507 H511 0.950 . S
H508 C504 0.950 . S
C509 C507 1.390 . S
C509 C510 1.387 . S
C509 H512 0.950 . S
C510 C509 1.387 . S
C510 C513 1.387 . S
H511 C507 0.950 . S
H512 C509 0.950 . S
C513 C504 1.390 . S
C513 H506 0.950 . S
C513 C510 1.387 . S
C514 C515 1.387 . S
C514 H518 0.950 . S
C514 C523 1.390 . S
C515 C514 1.387 . S
C515 C517 1.387 . S
H516 C523 0.950 . S
C517 C515 1.387 . S
C517 C519 1.390 . S
C517 H521 0.950 . S
H518 C514 0.950 . S
C519 C517 1.390 . S
C519 C520 1.387 . S
C519 H522 0.950 . S
C520 C519 1.387 . S
C520 C523 1.387 . S
H521 C517 0.950 . S
H522 C519 0.950 . S
C523 C514 1.390 . S
C523 H516 0.950 . S
C523 C520 1.387 . S
C524 C525 1.387 . S
C524 H528 0.950 . S
C524 C533 1.390 . S
C525 C524 1.387 . S
C525 C527 1.387 . S
H526 C533 0.950 . S
C527 C525 1.387 . S
C527 C529 1.390 . S
C527 H531 0.950 . S
H528 C524 0.950 . S
C529 C527 1.390 . S
C529 C530 1.387 . S
C529 H532 0.950 . S
C530 C529 1.387 . S
C530 C533 1.387 . S
H531 C527 0.950 . S
H532 C529 0.950 . S
C533 C524 1.390 . S
C533 H526 0.950 . S
C533 C530 1.387 . S
C534 C535 1.387 . S
C534 H538 0.950 . S
C534 C543 1.390 . S
C535 C534 1.387 . S
C535 C537 1.387 . S
H536 C543 0.950 . S
C537 C535 1.387 . S
C537 C539 1.390 . S
C537 H541 0.950 . S
H538 C534 0.950 . S
C539 C537 1.390 . S
C539 C540 1.387 . S
C539 H542 0.950 . S
C540 C539 1.387 . S
C540 C543 1.387 . S
H541 C537 0.950 . S
H542 C539 0.950 . S
C543 C534 1.390 . S
C543 H536 0.950 . S
C543 C540 1.387 . S
C544 C545 1.387 . S
C544 H548 0.950 . S
C544 C553 1.390 . S
C545 C544 1.387 . S
C545 C547 1.387 . S
H546 C553 0.950 . S
C547 C545 1.387 . S
C547 C549 1.390 . S
C547 H551 0.950 . S
H548 C544 0.950 . S
C549 C547 1.390 . S
C549 C550 1.387 . S
C549 H552 0.950 . S
C550 C549 1.387 . S
C550 C553 1.387 . S
H551 C547 0.950 . S
H552 C549 0.950 . S
C553 C544 1.390 . S
C553 H546 0.950 . S
C553 C550 1.387 . S
C554 C555 1.387 . S
C554 H558 0.950 . S
C554 C563 1.390 . S
C555 C554 1.387 . S
C555 C557 1.387 . S
H556 C563 0.950 . S
C557 C555 1.387 . S
C557 C559 1.390 . S
C557 H561 0.950 . S
H558 C554 0.950 . S
C559 C557 1.390 . S
C559 C560 1.387 . S
C559 H562 0.950 . S
C560 C559 1.387 . S
C560 C563 1.387 . S
H561 C557 0.950 . S
H562 C559 0.950 . S
C563 C554 1.390 . S
C563 H556 0.950 . S
C563 C560 1.387 . S
C564 C565 1.387 . S
C564 H568 0.950 . S
C564 C573 1.390 . S
C565 C564 1.387 . S
C565 C567 1.409 . S
H566 C573 0.950 . S
C567 C565 1.409 . S
C567 C569 1.390 . S
C567 H571 0.928 1_554 S
H568 C564 0.950 . S
C569 C567 1.390 . S
C569 C570 1.409 . S
C569 H572 0.928 1_554 S
C570 C569 1.409 . S
C570 C573 1.387 . S
H571 C567 0.928 1_556 S
H572 C569 0.928 1_556 S
C573 C564 1.390 . S
C573 H566 0.950 . S
C573 C570 1.387 . S
C574 C575 1.387 . S
C574 H578 0.950 . S
C574 C583 1.390 1_455 S
C575 C574 1.387 . S
C575 C577 1.387 . S
H576 C583 0.950 . S
C577 C575 1.387 . S
C577 C579 1.390 1_455 S
C577 H581 0.950 . S
H578 C574 0.950 . S
C579 C577 1.390 1_655 S
C579 C580 1.387 . S
C579 H582 0.950 . S
C580 C579 1.387 . S
C580 C583 1.387 . S
H581 C577 0.950 . S
H582 C579 0.950 . S
C583 C574 1.390 1_655 S
C583 H576 0.950 . S
C583 C580 1.387 . S
C584 C585 1.387 . S
C584 H588 0.950 . S
C584 C593 1.390 1_545 S
C585 C584 1.387 . S
C585 C587 1.387 . S
H586 C593 0.950 . S
C587 C585 1.387 . S
C587 C589 1.390 1_545 S
C587 H591 0.950 . S
H588 C584 0.950 . S
C589 C587 1.390 1_565 S
C589 C590 1.387 . S
C589 H592 0.950 . S
C590 C589 1.387 . S
C590 C593 1.387 . S
H591 C587 0.950 . S
H592 C589 0.950 . S
C593 C584 1.390 1_565 S
C593 H586 0.950 . S
C593 C590 1.387 . S
C594 C595 1.387 . S
C594 H598 0.950 . S
C594 C603 1.390 . S
C595 C594 1.387 . S
C595 C597 1.387 . S
H596 C603 0.950 . S
C597 C595 1.387 . S
C597 C599 1.390 . S
C597 H601 0.950 . S
H598 C594 0.950 . S
C599 C597 1.390 . S
C599 C600 1.387 . S
C599 H602 0.950 . S
C600 C599 1.387 . S
C600 C603 1.387 . S
H601 C597 0.950 . S
H602 C599 0.950 . S
C603 C594 1.390 . S
C603 H596 0.950 . S
C603 C600 1.387 . S
C604 C605 1.387 . S
C604 H608 0.950 . S
C604 C613 1.390 1_455 S
C605 C604 1.387 . S
C605 C607 1.387 1_554 S
H606 C613 0.950 . S
C607 C605 1.387 1_556 S
C607 C609 1.390 1_455 S
C607 H611 0.950 . S
H608 C604 0.950 . S
C609 C607 1.390 1_655 S
C609 C610 1.387 1_556 S
C609 H612 0.950 . S
C610 C609 1.387 1_554 S
C610 C613 1.387 . S
H611 C607 0.950 . S
H612 C609 0.950 . S
C613 C604 1.390 1_655 S
C613 H606 0.950 . S
C613 C610 1.387 . S
C614 C615 1.387 . S
C614 H618 0.950 . S
C614 C623 1.390 1_565 S
C615 C614 1.387 . S
C615 C617 1.387 . S
H616 C623 0.950 . S
C617 C615 1.387 . S
C617 C619 1.390 1_565 S
C617 H621 0.950 . S
H618 C614 0.950 . S
C619 C617 1.390 1_545 S
C619 C620 1.387 . S
C619 H622 0.950 . S
C620 C619 1.387 . S
C620 C623 1.387 . S
H621 C617 0.950 . S
H622 C619 0.950 . S
C623 C614 1.390 1_545 S
C623 H616 0.950 . S
C623 C620 1.387 . S
C624 C625 1.387 . S
C624 H628 0.950 . S
C624 C633 1.390 . S
C625 C624 1.387 . S
C625 C627 1.387 . S
H626 C633 0.950 . S
C627 C625 1.387 . S
C627 C629 1.390 . S
C627 H631 0.950 . S
H628 C624 0.950 . S
C629 C627 1.390 . S
C629 C630 1.387 . S
C629 H632 0.950 . S
C630 C629 1.387 . S
C630 C633 1.387 . S
H631 C627 0.950 . S
H632 C629 0.950 . S
C633 C624 1.390 . S
C633 H626 0.950 . S
C633 C630 1.387 . S
C634 C635 1.387 . S
C634 H638 0.950 . S
C634 C643 1.390 . S
C635 C634 1.387 . S
C635 C637 1.387 . S
H636 C643 0.950 . S
C637 C635 1.387 . S
C637 C639 1.390 . S
C637 H641 0.950 . S
H638 C634 0.950 . S
C639 C637 1.390 . S
C639 C640 1.387 . S
C639 H642 0.950 . S
C640 C639 1.387 . S
C640 C643 1.387 . S
H641 C637 0.950 . S
H642 C639 0.950 . S
C643 C634 1.390 . S
C643 H636 0.950 . S
C643 C640 1.387 . S
C644 C645 1.387 . S
C644 H648 0.950 . S
C644 C653 1.390 . S
C645 C644 1.387 . S
C645 C647 1.387 . S
H646 C653 0.950 . S
C647 C645 1.387 . S
C647 C649 1.390 . S
C647 H651 0.950 . S
H648 C644 0.950 . S
C649 C647 1.390 . S
C649 C650 1.387 . S
C649 H652 0.950 . S
C650 C649 1.387 . S
C650 C653 1.387 . S
H651 C647 0.950 . S
H652 C649 0.950 . S
C653 C644 1.390 . S
C653 H646 0.950 . S
C653 C650 1.387 . S
C654 C655 1.387 . S
C654 H658 0.950 . S
C654 C663 1.390 . S
C655 C654 1.387 . S
C655 C657 1.387 . S
H656 C663 0.950 . S
C657 C655 1.387 . S
C657 C659 1.390 . S
C657 H661 0.950 . S
H658 C654 0.950 . S
C659 C657 1.390 . S
C659 C660 1.387 . S
C659 H662 0.950 . S
C660 C659 1.387 . S
C660 C663 1.387 . S
H661 C657 0.950 . S
H662 C659 0.950 . S
C663 C654 1.390 . S
C663 H656 0.950 . S
C663 C660 1.387 . S
C664 C665 1.387 . S
C664 H668 0.950 . S
C664 C673 1.390 . S
C665 C664 1.387 . S
C665 C667 1.387 . S
H666 C673 0.950 . S
C667 C665 1.387 . S
C667 C669 1.390 . S
C667 H671 0.950 . S
H668 C664 0.950 . S
C669 C667 1.390 . S
C669 C670 1.387 . S
C669 H672 0.950 . S
C670 C669 1.387 . S
C670 C673 1.387 . S
H671 C667 0.950 . S
H672 C669 0.950 . S
C673 C664 1.390 . S
C673 H666 0.950 . S
C673 C670 1.387 . S
C674 C675 1.387 . S
C674 H678 0.950 . S
C674 C683 1.390 . S
C675 C674 1.387 . S
C675 C677 1.387 . S
H676 C683 0.950 . S
C677 C675 1.387 . S
C677 C679 1.390 . S
C677 H681 0.950 . S
H678 C674 0.950 . S
C679 C677 1.390 . S
C679 C680 1.387 . S
C679 H682 0.950 . S
C680 C679 1.387 . S
C680 C683 1.387 . S
H681 C677 0.950 . S
H682 C679 0.950 . S
C683 C674 1.390 . S
C683 H676 0.950 . S
C683 C680 1.387 . S
C505 C391 1.285 . S
C510 C70 1.014 . S
C515 C475 1.284 . S
C520 C154 1.011 . S
C525 C55 1.286 . S
C530 C238 1.014 . S
C535 C139 1.285 . S
C540 C322 1.015 . S
C545 C223 1.283 . S
C550 C406 1.009 . S
C555 C307 1.286 . S
C560 C490 1.015 . S
C565 C68 1.811 . S
C570 C320 1.811 . S
C575 C404 1.815 . S
C580 C152 1.815 . S
C585 C488 1.811 . S
C590 C236 1.811 . S
C595 C224 1.871 . S
C600 C476 1.871 . S
C605 C56 1.872 . S
C610 C308 1.872 . S
C615 C392 1.872 . S
C620 C140 1.872 . S
C625 C487 1.237 . S
C630 C58 1.083 . S
C635 C142 1.083 . S
C640 C67 1.237 . S
C645 C226 1.089 . S
C650 C151 1.237 . S
C655 C235 1.237 . S
C660 C310 1.083 . S
C665 C394 1.089 . S
C670 C319 1.237 . S
C675 C478 1.083 . S
C680 C403 1.236 . S
