# Generated by pormake.
# Topology uop, (4)-cn, num edge types: 1
# Building blocks:
#     Node 0, Type 0, BuildingBlock: ICAMEG_clean_sbu_1, # of connection points: 4
#     Node 1, Type 0, BuildingBlock: ICAMEG_clean_sbu_1, # of connection points: 4
#     Node 2, Type 0, BuildingBlock: ICAMEG_clean_sbu_1, # of connection points: 4
#     Node 3, Type 0, BuildingBlock: ICAMEG_clean_sbu_1, # of connection points: 4
#     Node 4, Type 0, BuildingBlock: ICAMEG_clean_sbu_1, # of connection points: 4
#     Node 5, Type 0, BuildingBlock: ICAMEG_clean_sbu_1, # of connection points: 4
#     Node 6, Type 0, BuildingBlock: ICAMEG_clean_sbu_1, # of connection points: 4
#     Node 7, Type 0, BuildingBlock: ICAMEG_clean_sbu_1, # of connection points: 4
#     Node 8, Type 0, BuildingBlock: ICAMEG_clean_sbu_1, # of connection points: 4
#     Node 9, Type 0, BuildingBlock: ICAMEG_clean_sbu_1, # of connection points: 4
#     Node 10, Type 0, BuildingBlock: ICAMEG_clean_sbu_1, # of connection points: 4
#     Node 11, Type 0, BuildingBlock: ICAMEG_clean_sbu_1, # of connection points: 4
#     Edge 12, Type (0, 0), None
#     Edge 13, Type (0, 0), None
#     Edge 14, Type (0, 0), None
#     Edge 15, Type (0, 0), None
#     Edge 16, Type (0, 0), None
#     Edge 17, Type (0, 0), None
#     Edge 18, Type (0, 0), None
#     Edge 19, Type (0, 0), None
#     Edge 20, Type (0, 0), None
#     Edge 21, Type (0, 0), None
#     Edge 22, Type (0, 0), None
#     Edge 23, Type (0, 0), None
#     Edge 24, Type (0, 0), None
#     Edge 25, Type (0, 0), None
#     Edge 26, Type (0, 0), None
#     Edge 27, Type (0, 0), None
#     Edge 28, Type (0, 0), None
#     Edge 29, Type (0, 0), None
#     Edge 30, Type (0, 0), None
#     Edge 31, Type (0, 0), None
#     Edge 32, Type (0, 0), None
#     Edge 33, Type (0, 0), None
#     Edge 34, Type (0, 0), None
#     Edge 35, Type (0, 0), None
# Relax obj value: 0.110
# Max RMSD: 0.100
# Mean RMSD: 0.100
data_MOF--net-uop--node1-ICAMEG_clean_sbu_1--edge1-none
_symmetry_space_group_name_H-M    P1
_symmetry_Int_Tables_number       1
_symmetry_cell_setting            triclinic
loop_
_symmetry_equiv_pos_as_xyz
'x, y, z'
_cell_length_a     18.379833
_cell_length_b     18.438961
_cell_length_c     23.062532
_cell_angle_alpha  90.110429
_cell_angle_beta   89.252778
_cell_angle_gamma 120.20299
loop_
_atom_site_label
_atom_site_type_symbol
_atom_site_fract_x
_atom_site_fract_y
_atom_site_fract_z
_atom_type_partial_charge
Co0 Co 0.24718 0.42818 0.18494 0.0
Co1 Co 0.2107 0.28181 0.11416 0.0
O2 O 0.21132 0.38239 0.11356 0.0
C3 C 0.20208 0.56145 0.12736 0.0
O4 O 0.15944 0.51312 0.08413 0.0
C5 C -0.00577 0.18729 0.1287 0.0
O6 O -0.01177 0.19295 0.18509 0.0
O7 O 0.21674 0.29048 0.21042 0.0
O8 O 0.22202 0.30343 0.21473 0.0
H9 H 0.26266 0.10451 -0.00963 0.0
H10 H 0.0757 0.34967 0.11719 0.0
O11 O 0.24106 0.53777 0.16303 0.0
H12 H 0.05256 0.49818 0.28503 0.0
H13 H 0.34434 0.60482 0.00272 0.0
H14 H 0.4209 0.6091 0.2011 0.0
H15 H 0.12458 0.4207 0.29299 0.0
H16 H 0.28014 0.48649 0.05367 0.0
O17 O 0.07089 0.2192 0.10463 0.0
H18 H 0.31484 0.22237 0.05848 0.0
H19 H 0.07736 0.10823 0.14229 0.0
H20 H 0.48107 0.74206 0.15073 0.0
H21 H -0.01263 0.4102 0.11195 0.0
H22 H 0.43435 0.74561 0.05251 0.0
H23 H 0.00963 0.51666 0.18739 0.0
O24 O 0.36912 0.46029 0.16454 0.0
H25 H 0.32546 0.45108 0.93089 0.0
H26 H 0.11851 0.17039 0.00401 0.0
H27 H 0.13948 0.19548 0.90133 0.0
H28 H 0.22615 0.34402 0.86669 0.0
H29 H 0.25423 0.33099 0.03916 0.0
H30 H 0.01915 -0.00164 0.06795 0.0
H31 H 0.11442 -0.00735 -0.00661 0.0
O32 O 0.34718 0.34903 0.11489 0.0
C33 C 0.26632 0.28305 0.24882 0.0
C34 C 0.22346 0.1027 0.02584 0.0
C35 C 0.08547 0.04515 0.06714 0.0
N36 N 0.2005 0.1729 0.10591 0.0
C37 C 0.2536 0.16807 0.06632 0.0
C38 C 0.11901 0.10859 0.10891 0.0
C39 C 0.13891 0.04115 0.02607 0.0
C40 C 0.07097 0.37884 0.15561 0.0
N41 N 0.12596 0.39892 0.20071 0.0
C42 C 0.0202 0.41489 0.15158 0.0
C43 C 0.02695 0.47015 0.19474 0.0
C44 C 0.05806 0.46535 0.24782 0.0
C45 C 0.10145 0.42187 0.25096 0.0
C46 C 0.36133 0.61091 0.04698 0.0
C47 C 0.39526 0.60993 0.16113 0.0
C48 C 0.32552 0.53757 0.07806 0.0
N49 N 0.32582 0.53827 0.13858 0.0
C50 C 0.43263 0.6857 0.1313 0.0
C51 C 0.41069 0.68669 0.07462 0.0
C52 C 0.39929 0.42629 0.13123 0.0
C53 C 0.28351 0.38908 -0.05209 0.0
C54 C 0.17035 0.22842 -0.01104 0.0
C55 C 0.17994 0.24458 0.93022 0.0
C56 C 0.2283 0.32726 0.91101 0.0
N57 N 0.22272 0.29383 0.02814 0.0
C58 C 0.28607 0.37283 0.00636 0.0
Co59 Co 0.77818 0.2791 0.54557 0.0
Co60 Co 0.86311 0.23876 0.45119 0.0
O61 O 0.76891 0.24556 0.47105 0.0
C62 C 0.6124 0.24962 0.49295 0.0
O63 O 0.63011 0.22001 0.44667 0.0
C64 C 0.7777 0.02365 0.4474 0.0
O65 O 0.84743 0.0233 0.4371 0.0
O66 O 0.89142 0.25938 0.5464 0.0
O67 O 0.88739 0.26188 0.55077 0.0
H68 H 0.15727 0.36234 0.37893 0.0
H69 H 0.64584 0.11335 0.48354 0.0
O70 O 0.66523 0.28008 0.53567 0.0
H71 H 0.63558 0.05548 0.69061 0.0
H72 H 0.7616 0.4755 0.39548 0.0
H73 H 0.842 0.48246 0.58313 0.0
H74 H 0.76716 0.1703 0.64099 0.0
H75 H 0.77828 0.35906 0.42381 0.0
O76 O 0.78048 0.09733 0.45632 0.0
H77 H 0.05082 0.34557 0.45521 0.0
H78 H 0.87258 0.12787 0.3697 0.0
H79 H 0.75733 0.54617 0.56358 0.0
H80 H 0.52153 -0.00627 0.52479 0.0
H81 H 0.7009 0.52997 0.4668 0.0
H82 H 0.5122 -0.0299 0.63248 0.0
O83 O 0.8793 0.39668 0.52225 0.0
H84 H 0.65143 0.20549 0.30233 0.0
H85 H -0.04644 0.32017 0.33325 0.0
H86 H 0.90218 0.32106 0.23533 0.0
H87 H 0.7517 0.27158 0.22247 0.0
H88 H 0.78979 0.20561 0.38338 0.0
H89 H -0.02706 0.14029 0.29719 0.0
H90 H 0.11295 0.26673 0.29638 0.0
O91 O 0.93488 0.37372 0.44325 0.0
C92 C 0.94756 0.26881 0.58537 0.0
C93 C 0.09392 0.31152 0.37791 0.0
C94 C -0.00748 0.18407 0.33287 0.0
N95 N -0.04291 0.23051 0.42132 0.0
C96 C 0.03517 0.29959 0.42168 0.0
C97 C 0.9368 0.17299 0.37771 0.0
C98 C 0.07084 0.25529 0.33228 0.0
C99 C 0.6428 0.10552 0.5297 0.0
N100 N 0.70589 0.16063 0.56509 0.0
C101 C 0.57161 0.03634 0.55289 0.0
C102 C 0.56658 0.02302 0.61258 0.0
C103 C 0.63703 0.07125 0.64567 0.0
C104 C 0.70938 0.1356 0.61905 0.0
C105 C 0.7562 0.45803 0.43973 0.0
C106 C 0.79534 0.45574 0.55014 0.0
C107 C 0.77243 0.39673 0.45728 0.0
N108 N 0.79095 0.39164 0.51523 0.0
C109 C 0.75677 0.50046 0.53545 0.0
C110 C 0.72933 0.49466 0.48037 0.0
C111 C 0.93233 0.42708 0.47926 0.0
C112 C 0.7166 0.22324 0.30822 0.0
C113 C 0.88698 0.28668 0.32535 0.0
C114 C 0.85861 0.29096 0.27075 0.0
C115 C 0.77371 0.26175 0.263 0.0
N116 N 0.82712 0.23589 0.36936 0.0
C117 C 0.74036 0.20404 0.36061 0.0
Co118 Co 0.47207 0.77545 0.86036 0.0
Co119 Co 0.61486 0.8723 0.77827 0.0
O120 O 0.51097 0.7732 0.78854 0.0
C121 C 0.34029 0.61696 0.79683 0.0
O122 O 0.39482 0.62942 0.75528 0.0
C123 C 0.72677 0.77495 0.80079 0.0
O124 O 0.76429 0.81565 0.84807 0.0
O125 O 0.60743 0.8897 0.8713 0.0
O126 O 0.60054 0.88536 0.87418 0.0
H127 H 0.80741 0.16829 0.72746 0.0
H128 H 0.52537 0.65821 0.80217 0.0
O129 O 0.36121 0.66607 0.84097 0.0
H130 H 0.48956 0.59478 0.01067 0.0
H131 H 0.32207 0.73665 0.67466 0.0
H132 H 0.29351 0.79602 0.87205 0.0
H133 H 0.50774 0.72458 -0.02416 0.0
H134 H 0.43999 0.82249 0.73089 0.0
O135 O 0.67001 0.79008 0.77734 0.0
H136 H 0.69805 0.05539 0.79078 0.0
H137 H 0.77612 0.89042 0.72712 0.0
H138 H 0.16695 0.70267 0.82096 0.0
H139 H 0.51462 0.53036 0.83637 0.0
H140 H 0.17736 0.6599 0.72427 0.0
H141 H 0.48543 0.49524 -0.05541 0.0
O142 O 0.44945 0.86969 0.84064 0.0
H143 H 0.43225 0.7254 0.60615 0.0
H144 H 0.69882 -0.02644 0.65731 0.0
H145 H 0.66001 0.94994 0.55923 0.0
H146 H 0.5185 0.8308 0.53296 0.0
H147 H 0.56741 0.81729 0.70372 0.0
H148 H 0.87903 -0.00614 0.66547 0.0
H149 H 0.88602 0.12771 0.65553 0.0
O150 O 0.55398 0.94935 0.77876 0.0
C151 C 0.64916 0.95036 0.90808 0.0
C152 C 0.79792 0.10574 0.72661 0.0
C153 C 0.84105 0.00936 0.69345 0.0
N154 N 0.72712 0.96589 0.76314 0.0
C155 C 0.73912 0.04417 0.76429 0.0
C156 C 0.78279 0.95066 0.73199 0.0
C157 C 0.84492 0.08567 0.68828 0.0
C158 C 0.51722 0.64644 0.84807 0.0
N159 N 0.51115 0.70008 0.88639 0.0
C160 C 0.50815 0.57104 0.86716 0.0
C161 C 0.4932 0.55119 0.92608 0.0
C162 C 0.49487 0.60812 -0.0353 0.0
C163 C 0.50904 0.68424 -0.05575 0.0
C164 C 0.31223 0.73959 0.72014 0.0
C165 C 0.29937 0.76443 0.83564 0.0
C166 C 0.38231 0.78465 0.75325 0.0
N167 N 0.37886 0.78559 0.81367 0.0
C168 C 0.22712 0.71774 0.80392 0.0
C169 C 0.23399 0.69958 0.74706 0.0
C170 C 0.48744 0.93658 0.81008 0.0
C171 C 0.49238 0.77814 0.6182 0.0
C172 C 0.64615 0.91517 0.64769 0.0
C173 C 0.62064 0.90306 0.59072 0.0
C174 C 0.54169 0.83726 0.57657 0.0
N175 N 0.59701 0.85333 0.69133 0.0
C176 C 0.52089 0.78133 0.67455 0.0
Co177 Co 0.6528 0.48055 0.18829 0.0
Co178 Co 0.68268 0.61511 0.1078 0.0
O179 O 0.6717 0.50895 0.11383 0.0
C180 C 0.68895 0.36561 0.10594 0.0
O181 O 0.66163 0.38889 0.06163 0.0
C182 C 0.89545 0.72121 0.13792 0.0
O183 O 0.89341 0.73324 0.19388 0.0
O184 O 0.65525 0.6083 0.20206 0.0
O185 O 0.65266 0.60068 0.20604 0.0
H186 H 0.57099 0.79807 0.0519 0.0
H187 H 0.81311 0.53523 0.11673 0.0
O188 O 0.68442 0.39042 0.15821 0.0
H189 H 0.84706 0.51479 0.32489 0.0
H190 H 0.58828 0.23542 0.20597 0.0
H191 H 0.4302 0.37799 0.23599 0.0
H192 H 0.75842 0.57085 0.28733 0.0
H193 H 0.54039 0.29696 0.12454 0.0
O194 O 0.82238 0.67805 0.1105 0.0
H195 H 0.57358 0.69159 0.11822 0.0
H196 H 0.82555 0.78133 0.06251 0.0
H197 H 0.41702 0.27322 0.30646 0.0
H198 H 0.88535 0.46522 0.14922 0.0
H199 H 0.51729 0.21993 0.30059 0.0
H200 H 0.89685 0.4483 0.25707 0.0
O201 O 0.53514 0.43813 0.15087 0.0
H202 H 0.7018 0.46144 0.93112 0.0
H203 H 0.64862 0.68348 -0.01066 0.0
H204 H 0.67108 0.66847 0.88815 0.0
H205 H 0.68839 0.55118 0.8579 0.0
H206 H 0.70955 0.57913 0.03359 0.0
H207 H 0.81568 0.86525 -0.01145 0.0
H208 H 0.68446 0.86498 -0.02335 0.0
O209 O 0.54799 0.54941 0.10397 0.0
C210 C 0.64209 0.65488 0.23901 0.0
C211 C 0.62317 0.78742 0.05178 0.0
C212 C 0.76263 0.82901 0.01753 0.0
N213 N 0.69669 0.72476 0.09331 0.0
C214 C 0.62683 0.73174 0.09129 0.0
C215 C 0.76699 0.77965 0.0611 0.0
C216 C 0.6889 0.83054 0.01185 0.0
C217 C 0.82246 0.53465 0.16281 0.0
N218 N 0.77289 0.54689 0.20168 0.0
C219 C 0.86292 0.49264 0.18114 0.0
C220 C 0.86742 0.4814 0.2405 0.0
C221 C 0.83743 0.51778 0.27935 0.0
C222 C 0.79393 0.55576 0.25814 0.0
C223 C 0.54948 0.2632 0.21303 0.0
C224 C 0.46304 0.34459 0.22881 0.0
C225 C 0.53116 0.30461 0.16951 0.0
N226 N 0.52708 0.3742 0.18595 0.0
C227 C 0.45434 0.28413 0.2693 0.0
C228 C 0.50806 0.25214 0.26501 0.0
C229 C 0.49922 0.4731 0.12422 0.0
C230 C 0.69935 0.51626 -0.05562 0.0
C231 C 0.67261 0.64442 -0.02182 0.0
C232 C 0.68099 0.63217 0.91999 0.0
C233 C 0.69084 0.56589 0.90312 0.0
N234 N 0.69279 0.60178 0.02122 0.0
C235 C 0.70446 0.53497 0.00335 0.0
Co236 Co 0.13244 0.67429 0.53383 0.0
Co237 Co 0.03868 0.71861 0.45091 0.0
O238 O 0.13616 0.71691 0.46406 0.0
C239 C 0.3006 0.71262 0.47251 0.0
O240 O 0.29299 0.76123 0.43463 0.0
C241 C 0.14459 0.93822 0.47665 0.0
O242 O 0.14393 0.94259 0.53344 0.0
O243 O 0.01456 0.69131 0.54639 0.0
O244 O 0.01953 0.68846 0.5502 0.0
H245 H 0.74897 0.5917 0.38127 0.0
H246 H 0.23515 0.84837 0.46868 0.0
O247 O 0.24433 0.67534 0.51299 0.0
H248 H 0.3391 0.89842 0.66736 0.0
H249 H 0.17778 0.56816 0.34124 0.0
H250 H 0.12409 0.48205 0.5383 0.0
H251 H 0.21234 0.77029 0.6452 0.0
H252 H 0.10446 0.60991 0.40204 0.0
O253 O 0.11021 0.86129 0.45257 0.0
H254 H 0.86116 0.61066 0.45399 0.0
H255 H 0.01407 0.85468 0.39437 0.0
H256 H 0.20056 0.43478 0.47911 0.0
H257 H 0.36097 -0.02785 0.49063 0.0
H258 H 0.24932 0.49381 0.38345 0.0
H259 H 0.41909 -0.00645 0.58628 0.0
O260 O 0.04345 0.55611 0.51299 0.0
H261 H 0.22769 0.71842 0.29174 0.0
H262 H 0.94095 0.65931 0.33084 0.0
H263 H -0.01798 0.64404 0.23263 0.0
H264 H 0.12142 0.66131 0.21545 0.0
H265 H 0.10746 0.74653 0.37817 0.0
H266 H 0.92236 0.83618 0.31585 0.0
H267 H 0.78814 0.70426 0.30798 0.0
O268 O -0.02964 0.57971 0.44702 0.0
C269 C -0.04577 0.67029 0.58589 0.0
C270 C 0.80975 0.64786 0.38316 0.0
C271 C 0.90641 0.78511 0.34591 0.0
N272 N 0.94347 0.72882 0.42781 0.0
C273 C 0.86885 0.65808 0.42519 0.0
C274 C -0.04033 0.79437 0.39114 0.0
C275 C 0.83069 0.71099 0.34192 0.0
C276 C 0.25329 0.85459 0.5132 0.0
N277 N 0.21305 0.79305 0.55496 0.0
C278 C 0.32706 0.92784 0.52461 0.0
C279 C 0.35938 0.94098 0.57925 0.0
C280 C 0.31488 0.88626 0.62371 0.0
C281 C 0.24126 0.81289 0.61054 0.0
C282 C 0.179 0.55787 0.38639 0.0
C283 C 0.15498 0.51806 0.5012 0.0
C284 C 0.14099 0.58825 0.42264 0.0
N285 N 0.14263 0.58333 0.4827 0.0
C286 C 0.19433 0.48664 0.46584 0.0
C287 C 0.21442 0.5142 0.40953 0.0
C288 C -0.01671 0.52604 0.4772 0.0
C289 C 0.1661 0.71073 0.29999 0.0
C290 C 0.00501 0.68009 0.32232 0.0
C291 C 0.02675 0.66576 0.26729 0.0
C292 C 0.10602 0.67728 0.25714 0.0
N293 N 0.06831 0.72191 0.36544 0.0
C294 C 0.151 0.73931 0.35264 0.0
Co295 Co 0.4408 0.1224 0.8901 0.0
Co296 Co 0.30943 0.04947 0.79712 0.0
O297 O 0.41482 0.14456 0.81432 0.0
C298 C 0.57808 0.29838 0.83846 0.0
O299 O 0.51828 0.29938 0.80861 0.0
C300 C 0.18022 0.13949 0.80534 0.0
O301 O 0.11656 0.07777 0.83288 0.0
O302 O 0.30112 0.02342 0.89248 0.0
O303 O 0.30779 0.02667 0.89717 0.0
H304 H 0.14195 0.75729 0.72586 0.0
H305 H 0.29603 0.14882 0.88836 0.0
O306 O 0.5595 0.23591 0.87438 0.0
H307 H 0.53798 0.4167 0.94067 0.0
H308 H 0.674 0.16858 0.74321 0.0
H309 H 0.5884 0.11293 -0.05724 0.0
H310 H 0.53563 0.28947 -0.03624 0.0
H311 H 0.53492 0.14443 0.77096 0.0
O312 O 0.24903 0.13226 0.79477 0.0
H313 H 0.23914 0.86325 0.79818 0.0
H314 H 0.13865 0.01351 0.74859 0.0
H315 H 0.73081 0.15139 0.91103 0.0
H316 H 0.30929 0.27656 0.8493 0.0
H317 H 0.78162 0.21588 0.81242 0.0
H318 H 0.42672 0.40903 0.87165 0.0
O319 O 0.46181 0.03109 0.86382 0.0
H320 H 0.50315 0.12804 0.6218 0.0
H321 H 0.22841 0.08199 0.6829 0.0
H322 H 0.26748 0.09585 0.58036 0.0
H323 H 0.41178 0.13711 0.55416 0.0
H324 H 0.37216 0.07715 0.72557 0.0
H325 H 0.07533 0.93032 0.66424 0.0
H326 H 0.08079 0.80062 0.64987 0.0
O327 O 0.37732 -0.0193 0.78951 0.0
C328 C 0.25142 0.96475 0.92977 0.0
C329 C 0.15388 0.81996 0.72637 0.0
C330 C 0.11133 0.91451 0.69312 0.0
N331 N 0.20414 0.95116 0.77446 0.0
C332 C 0.20317 0.87746 0.76898 0.0
C333 C 0.14831 0.96219 0.7424 0.0
C334 C 0.11464 0.84232 0.68496 0.0
C335 C 0.35083 0.20722 0.89742 0.0
N336 N 0.42094 0.2107 0.9181 0.0
C337 C 0.35574 0.2793 0.87719 0.0
C338 C 0.42395 0.35522 0.8907 0.0
C339 C 0.48449 0.35852 0.92803 0.0
C340 C 0.48113 0.28425 -0.05731 0.0
C341 C 0.65905 0.17363 0.78663 0.0
C342 C 0.61043 0.13928 0.90032 0.0
C343 C 0.57927 0.15318 0.80372 0.0
N344 N 0.5599 0.15381 0.86326 0.0
C345 C 0.69083 0.15953 0.88243 0.0
C346 C 0.71839 0.19123 0.82736 0.0
C347 C 0.44339 -0.01002 0.81711 0.0
C348 C 0.44371 0.1178 0.63797 0.0
C349 C 0.28543 0.08475 0.67115 0.0
C350 C 0.30976 0.09942 0.61337 0.0
C351 C 0.39053 0.12128 0.59803 0.0
N352 N 0.3388 0.07783 0.71297 0.0
C353 C 0.41947 0.09342 0.69531 0.0
Co354 Co 0.48059 0.68014 0.37075 0.0
Co355 Co 0.62621 0.72424 0.43763 0.0
O356 O 0.53047 0.73339 0.43843 0.0
C357 C 0.35809 0.68138 0.45724 0.0
O358 O 0.38901 0.65572 0.49813 0.0
C359 C 0.69625 0.93378 0.44555 0.0
O360 O 0.62415 0.92812 0.45855 0.0
O361 O 0.61365 0.70003 0.34321 0.0
O362 O 0.60201 0.69394 0.3397 0.0
H363 H 0.80687 0.68384 0.5653 0.0
H364 H 0.48974 0.83412 0.41398 0.0
O365 O 0.37732 0.6799 0.40364 0.0
H366 H 0.47438 0.8386 0.20256 0.0
H367 H 0.22947 0.55982 0.26355 0.0
H368 H 0.48162 0.55177 0.30663 0.0
H369 H 0.52458 0.75102 0.24994 0.0
H370 H 0.34981 0.6834 0.29898 0.0
O371 O 0.69811 0.86408 0.43245 0.0
H372 H 0.68082 0.62584 0.50378 0.0
H373 H 0.80099 0.8396 0.39524 0.0
H374 H 0.3589 0.42518 0.27995 0.0
H375 H 0.45311 0.92857 0.36848 0.0
H376 H 0.23116 0.41896 0.27437 0.0
H377 H 0.44028 0.92688 0.25996 0.0
O378 O 0.43295 0.56381 0.40966 0.0
H379 H 0.5096 0.62125 0.63795 0.0
H380 H 0.74597 0.8507 0.52975 0.0
H381 H 0.75839 0.8335 0.63368 0.0
H382 H 0.63779 0.7149 0.68652 0.0
H383 H 0.58751 0.69707 0.51574 0.0
H384 H 0.92058 0.90542 0.46198 0.0
H385 H 0.92448 0.82648 0.54731 0.0
O386 O 0.55046 0.58481 0.44728 0.0
C387 C 0.62629 0.6487 0.30945 0.0
C388 C 0.80598 0.71704 0.52754 0.0
C389 C 0.8692 0.84282 0.47051 0.0
N390 N 0.73233 0.72813 0.44555 0.0
C391 C 0.73658 0.68252 0.49061 0.0
C392 C 0.801 0.80472 0.43286 0.0
C393 C 0.87174 0.79834 0.51811 0.0
C394 C 0.49505 0.83971 0.36747 0.0
N395 N 0.51099 0.78706 0.33498 0.0
C396 C 0.46956 0.89088 0.34162 0.0
C397 C 0.46108 0.88893 0.28171 0.0
C398 C 0.48355 0.84069 0.24869 0.0
C399 C 0.5133 0.79318 0.27591 0.0
C400 C 0.28301 0.55533 0.27551 0.0
C401 C 0.42849 0.55459 0.29472 0.0
C402 C 0.35362 0.62748 0.29169 0.0
N403 N 0.42306 0.62347 0.30551 0.0
C404 C 0.35774 0.48121 0.2832 0.0
C405 C 0.28404 0.48015 0.27787 0.0
C406 C 0.46958 0.53211 0.43721 0.0
C407 C 0.56282 0.66605 0.61239 0.0
C408 C 0.69536 0.79834 0.55244 0.0
C409 C 0.70269 0.7885 0.6111 0.0
C410 C 0.6365 0.72161 0.64045 0.0
N411 N 0.62428 0.73388 0.52249 0.0
C412 C 0.55463 0.66891 0.55292 0.0
Co413 Co 0.77367 0.48718 0.72752 0.0
Co414 Co 0.8865 0.63548 0.78484 0.0
O415 O 0.78906 0.5351 0.79761 0.0
C416 C 0.66621 0.35528 0.81849 0.0
O417 O 0.72916 0.38138 0.85433 0.0
C418 C 0.7654 0.726 0.76806 0.0
O419 O 0.77059 0.73163 0.71154 0.0
O420 O 0.88078 0.61949 0.69062 0.0
O421 O 0.87471 0.60812 0.68744 0.0
H422 H 0.08987 0.85315 0.89794 0.0
H423 H 0.61336 0.46277 0.78582 0.0
O424 O 0.67847 0.38264 0.76617 0.0
H425 H 0.63253 0.57276 0.58988 0.0
H426 H 0.54248 0.2744 0.64554 0.0
H427 H 0.84796 0.40226 0.65877 0.0
H428 H 0.75921 0.60473 0.64226 0.0
H429 H 0.63414 0.4197 0.62652 0.0
O430 O 0.80591 0.69285 0.79379 0.0
H431 H 0.05521 0.72698 0.84117 0.0
H432 H 0.9249 0.78632 0.71966 0.0
H433 H 0.76461 0.26231 0.68891 0.0
H434 H 0.48434 0.43623 0.73811 0.0
H435 H 0.60454 0.18926 0.67964 0.0
H436 H 0.4945 0.47897 0.63432 0.0
O437 O 0.85491 0.44596 0.75199 0.0
H438 H 0.87148 0.51907 -0.01433 0.0
H439 H 0.87867 0.75215 0.87855 0.0
H440 H 0.88122 0.75409 -0.01733 0.0
H441 H 0.88907 0.6398 0.03618 0.0
H442 H 0.89749 0.60635 0.86317 0.0
H443 H 0.9509 0.9105 0.77627 0.0
H444 H 0.026 0.93838 0.87077 0.0
O445 O -0.04225 0.5676 0.78294 0.0
C446 C 0.94238 0.63504 0.65344 0.0
C447 C 0.05487 0.84026 0.85833 0.0
C448 C -0.0249 0.87131 0.79109 0.0
N449 N -0.01742 0.74611 0.78023 0.0
C450 C 0.03677 0.76949 0.82541 0.0
C451 C -0.03822 0.80176 0.7585 0.0
C452 C 0.01953 0.88865 0.84271 0.0
C453 C 0.61835 0.48783 0.74298 0.0
N454 N 0.69259 0.52337 0.71213 0.0
C455 C 0.54469 0.47283 0.71632 0.0
C456 C 0.54986 0.49909 0.65926 0.0
C457 C 0.62793 0.55101 0.63367 0.0
C458 C 0.69978 0.56707 0.66299 0.0
C459 C 0.60913 0.30073 0.65097 0.0
C460 C 0.78056 0.37431 0.65802 0.0
C461 C 0.66181 0.38543 0.64264 0.0
N462 N 0.74449 0.42277 0.6585 0.0
C463 C 0.73202 0.29169 0.67194 0.0
C464 C 0.64456 0.25386 0.66875 0.0
C465 C 0.92888 0.48649 0.7725 0.0
C466 C 0.88213 0.57291 -0.03944 0.0
C467 C 0.88319 0.7034 0.90067 0.0
C468 C 0.88551 0.70514 -0.03979 0.0
C469 C 0.88929 0.64166 -0.0102 0.0
N470 N 0.89052 0.63962 0.87025 0.0
C471 C 0.88534 0.57047 0.90024 0.0
Co472 Co 0.23589 0.78483 0.0467 0.0
Co473 Co 0.19589 0.87656 0.12595 0.0
O474 O 0.19044 0.77396 0.11995 0.0
C475 C 0.23539 0.65154 0.1192 0.0
O476 O 0.26608 0.70275 0.16342 0.0
C477 C -0.01497 0.76937 0.10614 0.0
O478 O -0.01088 0.7997 0.05425 0.0
O479 O 0.20962 0.89293 0.03241 0.0
O480 O 0.21629 0.88944 0.02868 0.0
H481 H 0.30166 0.15044 0.21785 0.0
H482 H 0.07609 0.64157 0.09236 0.0
O483 O 0.23733 0.6793 0.06789 0.0
H484 H 0.07174 0.63254 0.88034 0.0
H485 H 0.37607 0.68586 0.9371 0.0
H486 H 0.36525 0.9328 -0.01549 0.0
H487 H 0.15564 0.7703 0.93078 0.0
H488 H 0.24071 0.6675 -0.03611 0.0
O489 O 0.05742 0.79571 0.13266 0.0
H490 H 0.30826 0.03598 0.16838 0.0
H491 H 0.05083 0.91538 0.13905 0.0
H492 H 0.49055 0.95047 -0.04677 0.0
H493 H -0.00654 0.50907 0.04305 0.0
H494 H 0.5034 0.82528 -0.05122 0.0
H495 H 0.00142 0.50682 0.93285 0.0
O496 O 0.35307 0.84604 0.07951 0.0
H497 H 0.32803 0.89667 0.32066 0.0
H498 H 0.06877 0.83966 0.2278 0.0
H499 H 0.0984 0.89797 0.32269 0.0
H500 H 0.23192 0.92996 0.37056 0.0
H501 H 0.23862 0.87465 0.20058 0.0
H502 H 0.03401 -0.01228 0.22096 0.0
H503 H 0.15985 0.11174 0.26022 0.0
O504 O 0.33847 0.94416 0.1209 0.0
C505 C 0.25743 0.95877 -0.00117 0.0
C506 C 0.24535 0.09439 0.20478 0.0
C507 C 0.09643 0.00357 0.20606 0.0
N508 N 0.18514 -0.02581 0.14281 0.0
C509 C 0.25219 0.03766 0.16854 0.0
C510 C 0.10702 0.96037 0.15963 0.0
C511 C 0.1668 0.07345 0.22761 0.0
C512 C 0.07428 0.64216 0.04561 0.0
N513 N 0.12627 0.71299 0.01432 0.0
C514 C 0.02998 0.56553 0.01779 0.0
C515 C 0.03473 0.56355 -0.0425 0.0
C516 C 0.07495 0.6374 0.92649 0.0
C517 C 0.11826 0.71341 -0.04437 0.0
C518 C 0.37221 0.73922 -0.05173 0.0
C519 C 0.35919 0.87748 -0.03344 0.0
C520 C 0.29524 0.72979 -0.03921 0.0
N521 N 0.29155 0.79869 -0.0239 0.0
C522 C 0.43664 0.88813 -0.04422 0.0
C523 C 0.44331 0.81784 -0.04802 0.0
C524 C 0.38963 0.91577 0.10413 0.0
C525 C 0.27895 0.89654 0.2961 0.0
C526 C 0.13002 0.85966 0.24493 0.0
C527 C 0.14583 0.89147 0.3001 0.0
C528 C 0.2213 0.91155 0.32561 0.0
N529 N 0.198 0.86561 0.21053 0.0
C530 C 0.27194 0.87758 0.23707 0.0
Co531 Co 0.41708 0.26773 0.39523 0.0
Co532 Co 0.27315 0.24434 0.45422 0.0
O533 O 0.37956 0.2574 0.46936 0.0
C534 C 0.53804 0.25949 0.48688 0.0
O535 O 0.51652 0.29444 0.52819 0.0
C536 C 0.17757 0.02508 0.44132 0.0
O537 O 0.15806 0.01824 0.38651 0.0
O538 O 0.29951 0.26568 0.36067 0.0
O539 O 0.30553 0.26737 0.35825 0.0
H540 H 0.03373 0.20303 0.55717 0.0
H541 H 0.38445 0.11269 0.46647 0.0
O542 O 0.50778 0.25005 0.4351 0.0
H543 H 0.3597 0.06711 0.25876 0.0
H544 H 0.66966 0.36321 0.34974 0.0
H545 H 0.45149 0.42831 0.32786 0.0
H546 H 0.29569 0.14113 0.30949 0.0
H547 H 0.60067 0.38833 0.43689 0.0
O548 O 0.21771 0.10303 0.46374 0.0
H549 H 0.16845 0.30429 0.5124 0.0
H550 H 0.13403 0.13601 0.37837 0.0
H551 H 0.5654 0.49095 0.26053 0.0
H552 H 0.45817 0.04647 0.42006 0.0
H553 H 0.65639 0.42368 0.26067 0.0
H554 H 0.45602 0.03695 0.31223 0.0
O555 O 0.45765 0.3897 0.43428 0.0
H556 H 0.39392 0.33232 0.65258 0.0
H557 H 0.14288 0.12628 0.54848 0.0
H558 H 0.13785 0.13292 0.65472 0.0
H559 H 0.27189 0.22638 0.70357 0.0
H560 H 0.29985 0.28243 0.53301 0.0
H561 H -0.00427 0.03314 0.41842 0.0
H562 H 0.94926 0.0633 0.51399 0.0
O563 O 0.33514 0.38096 0.45131 0.0
C564 C 0.25473 0.27327 0.31973 0.0
C565 C 0.05162 0.18992 0.51566 0.0
C566 C 0.03224 0.09301 0.43946 0.0
N567 N 0.16094 0.22396 0.44541 0.0
C568 C 0.12867 0.24758 0.49013 0.0
C569 C 0.11 0.15232 0.41596 0.0
C570 C 0.00511 0.11066 0.49161 0.0
C571 C 0.37932 0.10264 0.4208 0.0
N572 N 0.35426 0.14651 0.38715 0.0
C573 C 0.42197 0.06616 0.39472 0.0
C574 C 0.42103 0.06064 0.33473 0.0
C575 C 0.36886 0.0805 0.30391 0.0
C576 C 0.33079 0.1193 0.33262 0.0
C577 C 0.6304 0.39139 0.34767 0.0
C578 C 0.50942 0.43377 0.33805 0.0
C579 C 0.58621 0.39645 0.39456 0.0
N580 N 0.50912 0.38832 0.38523 0.0
C581 C 0.57555 0.46606 0.29854 0.0
C582 C 0.6266 0.43018 0.29863 0.0
C583 C 0.41768 0.42961 0.44618 0.0
C584 C 0.33644 0.29457 0.62915 0.0
C585 C 0.19333 0.17831 0.5708 0.0
C586 C 0.19142 0.18089 0.63061 0.0
C587 C 0.26497 0.23645 0.659 0.0
N588 N 0.2636 0.24409 0.53987 0.0
C589 C 0.33696 0.30266 0.56938 0.0
Co590 Co 0.12167 0.42694 0.70857 0.0
Co591 Co 0.0256 0.28905 0.788 0.0
O592 O 0.13167 0.38472 0.77732 0.0
C593 C 0.25089 0.55769 0.78615 0.0
O594 O 0.19686 0.53508 0.82914 0.0
C595 C 0.16756 0.21716 0.7879 0.0
O596 O 0.23429 0.28796 0.77327 0.0
O597 O 0.00989 0.28703 0.69179 0.0
O598 O 0.01613 0.30262 0.6874 0.0
H599 H 0.8165 0.11097 0.93458 0.0
H600 H 0.27584 0.43312 0.74818 0.0
O601 O 0.22555 0.53523 0.73414 0.0
H602 H 0.27814 0.42426 0.53702 0.0
H603 H 0.23481 0.67526 0.6121 0.0
H604 H -0.02149 0.41441 0.64473 0.0
H605 H 0.13984 0.363 0.5914 0.0
H606 H 0.24531 0.55453 0.63023 0.0
O607 O 0.0951 0.21738 0.79266 0.0
H608 H 0.88157 0.23593 0.87093 0.0
H609 H -0.03001 0.11377 0.75922 0.0
H610 H -0.03379 0.52599 0.62488 0.0
H611 H 0.40746 0.50263 0.69584 0.0
H612 H 0.09455 0.66812 0.62727 0.0
H613 H 0.40747 0.50476 0.58673 0.0
O614 O 0.05325 0.47498 0.74596 0.0
H615 H 0.13698 0.49066 -0.04574 0.0
H616 H 0.01098 0.19062 0.9052 0.0
H617 H 0.03656 0.23697 0.00612 0.0
H618 H 0.11302 0.38617 0.02822 0.0
H619 H 0.05124 0.35172 0.85828 0.0
H620 H 0.90801 -0.00904 0.82325 0.0
H621 H 0.82836 -0.012 0.91097 0.0
O622 O -0.04298 0.35989 0.7879 0.0
C623 C 0.94968 0.27967 0.6558 0.0
C624 C 0.84385 0.10937 0.89341 0.0
C625 C 0.89871 0.04307 0.83262 0.0
N626 N 0.92595 0.18238 0.80826 0.0
C627 C 0.87904 0.17914 0.85581 0.0
C628 C 0.93341 0.11347 0.79632 0.0
C629 C 0.85343 0.04101 0.88146 0.0
C630 C 0.27361 0.42694 0.70166 0.0
N631 N 0.19937 0.3976 0.67291 0.0
C632 C 0.34987 0.46896 0.67191 0.0
C633 C 0.34989 0.47114 0.61181 0.0
C634 C 0.27469 0.42626 0.58308 0.0
C635 C 0.19847 0.38806 0.61432 0.0
C636 C 0.17806 0.61855 0.62033 0.0
C637 C 0.03576 0.46683 0.63158 0.0
C638 C 0.1838 0.54843 0.6279 0.0
N639 N 0.1127 0.47532 0.64062 0.0
C640 C 0.02823 0.53583 0.62736 0.0
C641 C 0.10008 0.61336 0.62646 0.0
C642 C -0.01678 0.43853 0.77238 0.0
C643 C 0.10545 0.42491 -0.05698 0.0
C644 C 0.03185 0.25507 0.9157 0.0
C645 C 0.04902 0.28135 -0.02752 0.0
C646 C 0.09126 0.36602 -0.01479 0.0
N647 N 0.04498 0.31532 0.87194 0.0
C648 C 0.07822 0.40092 0.88659 0.0
Co649 Co 0.63388 0.11793 0.02987 0.0
Co650 Co 0.69092 0.02836 0.10856 0.0
O651 O 0.68014 0.12396 0.10415 0.0
C652 C 0.69804 0.29164 0.0959 0.0
O653 O 0.76068 0.28772 0.11909 0.0
C654 C 0.9094 0.13671 0.09389 0.0
O655 O 0.91572 0.11531 0.04056 0.0
O656 O 0.67965 0.02145 0.01142 0.0
O657 O 0.67296 0.029 0.00525 0.0
H658 H 0.66553 0.81183 0.23925 0.0
H659 H 0.80022 0.15524 0.03824 0.0
O660 O 0.6455 0.23303 0.06084 0.0
H661 H 0.83864 0.4014 0.93565 0.0
H662 H 0.44028 0.1124 0.18382 0.0
H663 H 0.51059 0.15742 -0.02188 0.0
H664 H 0.69553 0.28426 -0.04165 0.0
H665 H 0.56568 0.12009 0.14997 0.0
O666 O 0.83229 0.10954 0.11618 0.0
H667 H 0.60145 0.87153 0.17511 0.0
H668 H 0.81624 -0.02024 0.06855 0.0
H669 H 0.3912 0.16796 0.01666 0.0
H670 H 0.93897 0.28238 0.04084 0.0
H671 H 0.36844 0.16474 0.12089 0.0
H672 H -0.03936 0.40093 -0.01685 0.0
O673 O 0.51676 0.02125 0.05177 0.0
H674 H 0.5835 0.05182 0.3073 0.0
H675 H 0.81285 0.03929 0.20541 0.0
H676 H 0.79693 0.01922 0.30972 0.0
H677 H 0.6787 0.02266 0.36029 0.0
H678 H 0.65688 0.03791 0.18624 0.0
H679 H 0.88868 0.93129 0.1341 0.0
H680 H 0.81124 0.84432 0.22006 0.0
O681 O 0.55025 0.95418 0.11505 0.0
C682 C 0.6289 0.9613 -0.02485 0.0
C683 C 0.69856 0.84763 0.20126 0.0
C684 C 0.82504 0.91713 0.14369 0.0
N685 N 0.70633 0.93298 0.11989 0.0
C686 C 0.66149 0.87978 0.16427 0.0
C687 C 0.7847 0.94613 0.10722 0.0
C688 C 0.78138 0.86757 0.19131 0.0
C689 C 0.80878 0.21152 0.02134 0.0
N690 N 0.74027 0.21372 0.00423 0.0
C691 C 0.88749 0.28146 0.01863 0.0
C692 C 0.89853 0.34968 -0.01274 0.0
C693 C 0.83007 0.34945 -0.03798 0.0
C694 C 0.7498 0.28178 -0.02674 0.0
C695 C 0.45703 0.1271 0.13895 0.0
C696 C 0.5012 0.15759 0.02387 0.0
C697 C 0.53097 0.13482 0.11962 0.0
N698 N 0.55924 0.15808 0.06181 0.0
C699 C 0.4315 0.15975 0.04472 0.0
C700 C 0.41359 0.1507 0.10291 0.0
C701 C 0.4917 -0.03195 0.09292 0.0
C702 C 0.62853 0.04223 0.28329 0.0
C703 C 0.76065 0.03999 0.22639 0.0
C704 C 0.75222 0.02876 0.28583 0.0
C705 C 0.68497 0.02829 0.31388 0.0
N706 N 0.69428 0.04013 0.19415 0.0
C707 C 0.62969 0.0467 0.22297 0.0
loop_
_geom_bond_atom_site_label_1
_geom_bond_atom_site_label_2
_geom_bond_distance
_geom_bond_site_symmetry_2
_ccdc_geom_bond_type
Co0 O2 2.143 . S
Co0 O8 2.074 . S
Co0 O11 2.093 . S
Co0 O24 2.097 . S
Co0 N41 2.151 . S
Co0 N49 2.214 . S
Co1 O2 2.160 . S
Co1 O7 2.058 . S
Co1 O17 2.057 . S
Co1 O32 2.037 . S
Co1 N36 2.145 . S
Co1 N57 2.257 . S
O2 Co0 2.143 . S
O2 Co1 2.160 . S
C3 O4 1.278 . S
C3 O11 1.224 . S
O4 C3 1.278 . S
C5 O6 1.245 . S
C5 O17 1.232 . S
O6 C5 1.245 . S
O7 Co1 2.058 . S
O7 C33 1.269 . S
O8 Co0 2.074 . S
O8 C33 1.257 . S
H9 C34 0.930 . S
H10 C40 0.930 . S
O11 Co0 2.093 . S
O11 C3 1.224 . S
H12 C44 0.929 . S
H13 C46 0.930 . S
H14 C47 0.930 . S
H15 C45 0.929 . S
H16 C48 0.928 . S
O17 Co1 2.057 . S
O17 C5 1.232 . S
H18 C37 0.929 . S
H19 C38 0.929 . S
H20 C50 0.931 . S
H21 C42 0.929 . S
H22 C51 0.930 . S
H23 C43 0.931 . S
O24 Co0 2.097 . S
O24 C52 1.214 . S
H25 C53 0.929 . S
H26 C54 0.924 1_554 S
H27 C55 0.930 . S
H28 C56 0.929 . S
H29 C58 0.930 . S
H30 C35 0.930 1_565 S
H31 C39 0.930 1_565 S
O32 Co1 2.037 . S
O32 C52 1.234 . S
C33 O7 1.269 . S
C33 O8 1.257 . S
C34 H9 0.930 . S
C34 C37 1.388 . S
C34 C39 1.418 . S
C35 H30 0.930 1_545 S
C35 C38 1.404 . S
C35 C39 1.353 . S
N36 Co1 2.145 . S
N36 C37 1.397 . S
N36 C38 1.334 . S
C37 H18 0.929 . S
C37 C34 1.388 . S
C37 N36 1.397 . S
C38 H19 0.929 . S
C38 C35 1.404 . S
C38 N36 1.334 . S
C39 H31 0.930 1_545 S
C39 C34 1.418 . S
C39 C35 1.353 . S
C40 H10 0.930 . S
C40 N41 1.330 . S
C40 C42 1.446 . S
N41 Co0 2.151 . S
N41 C40 1.330 . S
N41 C45 1.418 . S
C42 H21 0.929 . S
C42 C40 1.446 . S
C42 C43 1.332 . S
C43 H23 0.931 . S
C43 C42 1.332 . S
C43 C44 1.267 . S
C44 H12 0.929 . S
C44 C43 1.267 . S
C44 C45 1.251 . S
C45 H15 0.929 . S
C45 N41 1.418 . S
C45 C44 1.251 . S
C46 H13 0.930 . S
C46 C48 1.406 . S
C46 C51 1.261 . S
C47 H14 0.930 . S
C47 N49 1.325 . S
C47 C50 1.357 . S
C48 H16 0.928 . S
C48 C46 1.406 . S
C48 N49 1.261 . S
N49 Co0 2.214 . S
N49 C47 1.325 . S
N49 C48 1.261 . S
C50 H20 0.931 . S
C50 C47 1.357 . S
C50 C51 1.312 . S
C51 H22 0.930 . S
C51 C46 1.261 . S
C51 C50 1.312 . S
C52 O24 1.214 . S
C52 O32 1.234 . S
C53 H25 0.929 . S
C53 C56 1.391 . S
C53 C58 1.391 1_556 S
C54 H26 0.924 1_556 S
C54 C55 1.405 . S
C54 N57 1.381 1_556 S
C55 H27 0.930 . S
C55 C54 1.405 . S
C55 C56 1.392 . S
C56 H28 0.929 . S
C56 C53 1.391 . S
C56 C55 1.392 . S
N57 Co1 2.257 . S
N57 C54 1.381 1_554 S
N57 C58 1.388 . S
C58 H29 0.930 . S
C58 C53 1.391 1_554 S
C58 N57 1.388 . S
Co59 O61 2.143 . S
Co59 O67 2.074 . S
Co59 O70 2.093 . S
Co59 O83 2.097 . S
Co59 N100 2.151 . S
Co59 N108 2.214 . S
Co60 O61 2.160 . S
Co60 O66 2.058 . S
Co60 O76 2.057 . S
Co60 O91 2.037 1_655 S
Co60 N95 2.145 1_655 S
Co60 N116 2.257 . S
O61 Co59 2.143 . S
O61 Co60 2.160 . S
C62 O63 1.278 . S
C62 O70 1.224 . S
O63 C62 1.278 . S
C64 O65 1.245 . S
C64 O76 1.232 . S
O65 C64 1.245 . S
O66 Co60 2.058 . S
O66 C92 1.269 . S
O67 Co59 2.074 . S
O67 C92 1.257 . S
H68 C93 0.930 . S
H69 C99 0.930 . S
O70 Co59 2.093 . S
O70 C62 1.224 . S
H71 C103 0.929 . S
H72 C105 0.930 . S
H73 C106 0.930 . S
H74 C104 0.929 . S
H75 C107 0.928 . S
O76 Co60 2.057 . S
O76 C64 1.232 . S
H77 C96 0.929 . S
H78 C97 0.929 . S
H79 C109 0.931 1_455 S
H80 C101 0.929 . S
H81 C110 0.930 . S
H82 C102 0.931 . S
O83 Co59 2.097 . S
O83 C111 1.203 1_655 S
H84 C112 0.929 . S
H85 C113 0.929 1_455 S
H86 C114 0.930 . S
H87 C115 0.929 . S
H88 C117 0.930 . S
H89 C94 0.930 . S
H90 C98 0.930 . S
O91 Co60 2.037 1_455 S
O91 C111 1.242 . S
C92 O66 1.269 . S
C92 O67 1.257 . S
C93 H68 0.930 . S
C93 C96 1.388 . S
C93 C98 1.418 . S
C94 H89 0.930 . S
C94 C97 1.404 . S
C94 C98 1.353 . S
N95 Co60 2.145 1_455 S
N95 C96 1.397 . S
N95 C97 1.334 . S
C96 H77 0.929 . S
C96 C93 1.388 . S
C96 N95 1.397 . S
C97 H78 0.929 . S
C97 C94 1.404 . S
C97 N95 1.334 . S
C98 H90 0.930 . S
C98 C93 1.418 . S
C98 C94 1.353 . S
C99 H69 0.930 . S
C99 N100 1.330 . S
C99 C101 1.446 . S
N100 Co59 2.151 . S
N100 C99 1.330 . S
N100 C104 1.418 . S
C101 H80 0.929 . S
C101 C99 1.446 . S
C101 C102 1.332 . S
C102 H82 0.931 . S
C102 C101 1.332 . S
C102 C103 1.267 . S
C103 H71 0.929 . S
C103 C102 1.267 . S
C103 C104 1.251 . S
C104 H74 0.929 . S
C104 N100 1.418 . S
C104 C103 1.251 . S
C105 H72 0.930 . S
C105 C107 1.406 . S
C105 C110 1.261 . S
C106 H73 0.930 . S
C106 N108 1.325 . S
C106 C109 1.357 . S
C107 H75 0.928 . S
C107 C105 1.406 . S
C107 N108 1.261 . S
N108 Co59 2.214 . S
N108 C106 1.325 . S
N108 C107 1.261 . S
C109 H79 0.931 1_655 S
C109 C106 1.357 . S
C109 C110 1.312 . S
C110 H81 0.930 . S
C110 C105 1.261 . S
C110 C109 1.312 . S
C111 O83 1.203 1_455 S
C111 O91 1.242 . S
C112 H84 0.929 . S
C112 C115 1.391 . S
C112 C117 1.391 . S
C113 H85 0.929 1_655 S
C113 C114 1.390 . S
C113 N116 1.391 . S
C114 H86 0.930 . S
C114 C113 1.390 . S
C114 C115 1.392 . S
C115 H87 0.929 . S
C115 C112 1.391 . S
C115 C114 1.392 . S
N116 Co60 2.257 . S
N116 C113 1.391 . S
N116 C117 1.388 . S
C117 H88 0.930 . S
C117 C112 1.391 . S
C117 N116 1.388 . S
Co118 O120 2.143 . S
Co118 O126 2.074 . S
Co118 O129 2.093 . S
Co118 O142 2.097 . S
Co118 N159 2.151 . S
Co118 N167 2.214 . S
Co119 O120 2.160 . S
Co119 O125 2.058 . S
Co119 O135 2.057 . S
Co119 O150 2.037 1_565 S
Co119 N154 2.145 1_565 S
Co119 N175 2.257 . S
O120 Co118 2.143 . S
O120 Co119 2.160 . S
C121 O122 1.278 . S
C121 O129 1.224 . S
O122 C121 1.278 . S
C123 O124 1.245 . S
C123 O135 1.232 . S
O124 C123 1.245 . S
O125 Co119 2.058 . S
O125 C151 1.269 . S
O126 Co118 2.074 . S
O126 C151 1.257 . S
H127 C152 0.930 . S
H128 C158 0.930 . S
O129 Co118 2.093 . S
O129 C121 1.224 . S
H130 C162 0.929 . S
H131 C164 0.930 . S
H132 C165 0.930 . S
H133 C163 0.929 . S
H134 C166 0.927 1_556 S
O135 Co119 2.057 . S
O135 C123 1.232 . S
H136 C155 0.929 . S
H137 C156 0.929 . S
H138 C168 0.931 1_545 S
H139 C160 0.929 . S
H140 C169 0.930 . S
H141 C161 0.931 . S
O142 Co118 2.097 . S
O142 C170 1.208 1_565 S
H143 C171 0.929 . S
H144 C172 0.929 1_545 S
H145 C173 0.930 . S
H146 C174 0.929 . S
H147 C176 0.930 . S
H148 C153 0.930 1_455 S
H149 C157 0.930 1_455 S
O150 Co119 2.037 1_545 S
O150 C170 1.230 . S
C151 O125 1.269 . S
C151 O126 1.257 . S
C152 H127 0.930 . S
C152 C155 1.388 . S
C152 C157 1.418 . S
C153 H148 0.930 1_655 S
C153 C156 1.404 . S
C153 C157 1.353 . S
N154 Co119 2.145 1_545 S
N154 C155 1.397 . S
N154 C156 1.334 . S
C155 H136 0.929 . S
C155 C152 1.388 . S
C155 N154 1.397 . S
C156 H137 0.929 . S
C156 C153 1.404 . S
C156 N154 1.334 . S
C157 H149 0.930 1_655 S
C157 C152 1.418 . S
C157 C153 1.353 . S
C158 H128 0.930 . S
C158 N159 1.330 . S
C158 C160 1.446 1_556 S
N159 Co118 2.151 . S
N159 C158 1.330 . S
N159 C163 1.418 1_556 S
C160 H139 0.929 . S
C160 C158 1.446 1_554 S
C160 C161 1.332 . S
C161 H141 0.931 . S
C161 C160 1.332 . S
C161 C162 1.267 . S
C162 H130 0.929 . S
C162 C161 1.267 . S
C162 C163 1.251 . S
C163 H133 0.929 . S
C163 N159 1.418 1_554 S
C163 C162 1.251 . S
C164 H131 0.930 . S
C164 C166 1.410 . S
C164 C169 1.261 . S
C165 H132 0.930 . S
C165 N167 1.325 . S
C165 C168 1.357 1_556 S
C166 H134 0.927 1_554 S
C166 C164 1.410 . S
C166 N167 1.258 1_554 S
N167 Co118 2.214 . S
N167 C165 1.325 . S
N167 C166 1.258 1_556 S
C168 H138 0.931 1_565 S
C168 C165 1.357 1_554 S
C168 C169 1.312 . S
C169 H140 0.930 . S
C169 C164 1.261 . S
C169 C168 1.312 . S
C170 O142 1.208 1_545 S
C170 O150 1.230 . S
C171 H143 0.929 . S
C171 C174 1.391 . S
C171 C176 1.391 . S
C172 H144 0.929 1_565 S
C172 C173 1.390 . S
C172 N175 1.391 . S
C173 H145 0.930 . S
C173 C172 1.390 . S
C173 C174 1.392 . S
C174 H146 0.929 . S
C174 C171 1.391 . S
C174 C173 1.392 . S
N175 Co119 2.257 . S
N175 C172 1.391 . S
N175 C176 1.388 . S
C176 H147 0.930 . S
C176 C171 1.391 . S
C176 N175 1.388 . S
Co177 O179 2.143 . S
Co177 O185 2.074 . S
Co177 O188 2.093 . S
Co177 O201 2.097 . S
Co177 N218 2.151 . S
Co177 N226 2.214 . S
Co178 O179 2.160 . S
Co178 O184 2.058 . S
Co178 O194 2.057 . S
Co178 O209 2.037 . S
Co178 N213 2.145 . S
Co178 N234 2.257 . S
O179 Co177 2.143 . S
O179 Co178 2.160 . S
C180 O181 1.278 . S
C180 O188 1.224 . S
O181 C180 1.278 . S
C182 O183 1.245 . S
C182 O194 1.232 . S
O183 C182 1.245 . S
O184 Co178 2.058 . S
O184 C210 1.269 . S
O185 Co177 2.074 . S
O185 C210 1.257 . S
H186 C211 0.930 . S
H187 C217 0.930 . S
O188 Co177 2.093 . S
O188 C180 1.224 . S
H189 C221 0.929 . S
H190 C223 0.930 . S
H191 C224 0.930 . S
H192 C222 0.929 . S
H193 C225 0.928 . S
O194 Co178 2.057 . S
O194 C182 1.232 . S
H195 C214 0.929 . S
H196 C215 0.929 . S
H197 C227 0.931 . S
H198 C219 0.929 . S
H199 C228 0.930 . S
H200 C220 0.931 . S
O201 Co177 2.097 . S
O201 C229 1.214 . S
H202 C230 0.929 . S
H203 C231 0.924 1_554 S
H204 C232 0.930 . S
H205 C233 0.929 . S
H206 C235 0.930 . S
H207 C212 0.930 1_545 S
H208 C216 0.930 1_545 S
O209 Co178 2.037 . S
O209 C229 1.234 . S
C210 O184 1.269 . S
C210 O185 1.257 . S
C211 H186 0.930 . S
C211 C214 1.388 . S
C211 C216 1.418 . S
C212 H207 0.930 1_565 S
C212 C215 1.404 . S
C212 C216 1.353 . S
N213 Co178 2.145 . S
N213 C214 1.397 . S
N213 C215 1.334 . S
C214 H195 0.929 . S
C214 C211 1.388 . S
C214 N213 1.397 . S
C215 H196 0.929 . S
C215 C212 1.404 . S
C215 N213 1.334 . S
C216 H208 0.930 1_565 S
C216 C211 1.418 . S
C216 C212 1.353 . S
C217 H187 0.930 . S
C217 N218 1.330 . S
C217 C219 1.446 . S
N218 Co177 2.151 . S
N218 C217 1.330 . S
N218 C222 1.418 . S
C219 H198 0.929 . S
C219 C217 1.446 . S
C219 C220 1.332 . S
C220 H200 0.931 . S
C220 C219 1.332 . S
C220 C221 1.267 . S
C221 H189 0.929 . S
C221 C220 1.267 . S
C221 C222 1.251 . S
C222 H192 0.929 . S
C222 N218 1.418 . S
C222 C221 1.251 . S
C223 H190 0.930 . S
C223 C225 1.406 . S
C223 C228 1.261 . S
C224 H191 0.930 . S
C224 N226 1.325 . S
C224 C227 1.357 . S
C225 H193 0.928 . S
C225 C223 1.406 . S
C225 N226 1.261 . S
N226 Co177 2.214 . S
N226 C224 1.325 . S
N226 C225 1.261 . S
C227 H197 0.931 . S
C227 C224 1.357 . S
C227 C228 1.312 . S
C228 H199 0.930 . S
C228 C223 1.261 . S
C228 C227 1.312 . S
C229 O201 1.214 . S
C229 O209 1.234 . S
C230 H202 0.929 . S
C230 C233 1.391 . S
C230 C235 1.391 1_556 S
C231 H203 0.924 1_556 S
C231 C232 1.405 . S
C231 N234 1.381 1_556 S
C232 H204 0.930 . S
C232 C231 1.405 . S
C232 C233 1.392 . S
C233 H205 0.929 . S
C233 C230 1.391 . S
C233 C232 1.392 . S
N234 Co178 2.257 . S
N234 C231 1.381 1_554 S
N234 C235 1.388 . S
C235 H206 0.930 . S
C235 C230 1.391 1_554 S
C235 N234 1.388 . S
Co236 O238 2.143 . S
Co236 O244 2.074 . S
Co236 O247 2.093 . S
Co236 O260 2.097 . S
Co236 N277 2.151 . S
Co236 N285 2.214 . S
Co237 O238 2.160 . S
Co237 O243 2.058 . S
Co237 O253 2.057 . S
Co237 O268 2.037 1_455 S
Co237 N272 2.145 1_455 S
Co237 N293 2.257 . S
O238 Co236 2.143 . S
O238 Co237 2.160 . S
C239 O240 1.278 . S
C239 O247 1.224 . S
O240 C239 1.278 . S
C241 O242 1.245 . S
C241 O253 1.232 . S
O242 C241 1.245 . S
O243 Co237 2.058 . S
O243 C269 1.269 . S
O244 Co236 2.074 . S
O244 C269 1.257 . S
H245 C270 0.930 . S
H246 C276 0.930 . S
O247 Co236 2.093 . S
O247 C239 1.224 . S
H248 C280 0.929 . S
H249 C282 0.930 . S
H250 C283 0.930 . S
H251 C281 0.929 . S
H252 C284 0.928 . S
O253 Co237 2.057 . S
O253 C241 1.232 . S
H254 C273 0.929 . S
H255 C274 0.929 . S
H256 C286 0.931 1_655 S
H257 C278 0.929 . S
H258 C287 0.930 . S
H259 C279 0.931 . S
O260 Co236 2.097 . S
O260 C288 1.203 1_455 S
H261 C289 0.929 . S
H262 C290 0.929 1_655 S
H263 C291 0.930 . S
H264 C292 0.929 . S
H265 C294 0.930 . S
H266 C271 0.930 . S
H267 C275 0.930 . S
O268 Co237 2.037 1_655 S
O268 C288 1.242 . S
C269 O243 1.269 . S
C269 O244 1.257 . S
C270 H245 0.930 . S
C270 C273 1.388 . S
C270 C275 1.418 . S
C271 H266 0.930 . S
C271 C274 1.404 . S
C271 C275 1.353 . S
N272 Co237 2.145 1_655 S
N272 C273 1.397 . S
N272 C274 1.334 . S
C273 H254 0.929 . S
C273 C270 1.388 . S
C273 N272 1.397 . S
C274 H255 0.929 . S
C274 C271 1.404 . S
C274 N272 1.334 . S
C275 H267 0.930 . S
C275 C270 1.418 . S
C275 C271 1.353 . S
C276 H246 0.930 . S
C276 N277 1.330 . S
C276 C278 1.446 . S
N277 Co236 2.151 . S
N277 C276 1.330 . S
N277 C281 1.418 . S
C278 H257 0.929 . S
C278 C276 1.446 . S
C278 C279 1.332 . S
C279 H259 0.931 . S
C279 C278 1.332 . S
C279 C280 1.267 . S
C280 H248 0.929 . S
C280 C279 1.267 . S
C280 C281 1.251 . S
C281 H251 0.929 . S
C281 N277 1.418 . S
C281 C280 1.251 . S
C282 H249 0.930 . S
C282 C284 1.406 . S
C282 C287 1.261 . S
C283 H250 0.930 . S
C283 N285 1.325 . S
C283 C286 1.357 . S
C284 H252 0.928 . S
C284 C282 1.406 . S
C284 N285 1.261 . S
N285 Co236 2.214 . S
N285 C283 1.325 . S
N285 C284 1.261 . S
C286 H256 0.931 1_455 S
C286 C283 1.357 . S
C286 C287 1.312 . S
C287 H258 0.930 . S
C287 C282 1.261 . S
C287 C286 1.312 . S
C288 O260 1.203 1_655 S
C288 O268 1.242 . S
C289 H261 0.929 . S
C289 C292 1.391 . S
C289 C294 1.391 . S
C290 H262 0.929 1_455 S
C290 C291 1.390 . S
C290 N293 1.391 . S
C291 H263 0.930 . S
C291 C290 1.390 . S
C291 C292 1.392 . S
C292 H264 0.929 . S
C292 C289 1.391 . S
C292 C291 1.392 . S
N293 Co237 2.257 . S
N293 C290 1.391 . S
N293 C294 1.388 . S
C294 H265 0.930 . S
C294 C289 1.391 . S
C294 N293 1.388 . S
Co295 O297 2.143 . S
Co295 O303 2.074 . S
Co295 O306 2.093 . S
Co295 O319 2.097 . S
Co295 N336 2.151 . S
Co295 N344 2.214 . S
Co296 O297 2.160 . S
Co296 O302 2.058 . S
Co296 O312 2.057 . S
Co296 O327 2.037 1_545 S
Co296 N331 2.145 1_545 S
Co296 N352 2.257 . S
O297 Co295 2.143 . S
O297 Co296 2.160 . S
C298 O299 1.278 . S
C298 O306 1.224 . S
O299 C298 1.278 . S
C300 O301 1.245 . S
C300 O312 1.232 . S
O301 C300 1.245 . S
O302 Co296 2.058 . S
O302 C328 1.269 . S
O303 Co295 2.074 . S
O303 C328 1.257 . S
H304 C329 0.930 . S
H305 C335 0.930 . S
O306 Co295 2.093 . S
O306 C298 1.224 . S
H307 C339 0.929 . S
H308 C341 0.930 . S
H309 C342 0.930 . S
H310 C340 0.929 . S
H311 C343 0.927 1_556 S
O312 Co296 2.057 . S
O312 C300 1.232 . S
H313 C332 0.929 . S
H314 C333 0.929 . S
H315 C345 0.931 1_565 S
H316 C337 0.929 . S
H317 C346 0.930 . S
H318 C338 0.931 . S
O319 Co295 2.097 . S
O319 C347 1.208 1_545 S
H320 C348 0.929 . S
H321 C349 0.929 1_565 S
H322 C350 0.930 . S
H323 C351 0.929 . S
H324 C353 0.930 . S
H325 C330 0.930 1_655 S
H326 C334 0.930 1_655 S
O327 Co296 2.037 1_565 S
O327 C347 1.230 . S
C328 O302 1.269 . S
C328 O303 1.257 . S
C329 H304 0.930 . S
C329 C332 1.388 . S
C329 C334 1.418 . S
C330 H325 0.930 1_455 S
C330 C333 1.404 . S
C330 C334 1.353 . S
N331 Co296 2.145 1_565 S
N331 C332 1.397 . S
N331 C333 1.334 . S
C332 H313 0.929 . S
C332 C329 1.388 . S
C332 N331 1.397 . S
C333 H314 0.929 . S
C333 C330 1.404 . S
C333 N331 1.334 . S
C334 H326 0.930 1_455 S
C334 C329 1.418 . S
C334 C330 1.353 . S
C335 H305 0.930 . S
C335 N336 1.330 . S
C335 C337 1.446 1_556 S
N336 Co295 2.151 . S
N336 C335 1.330 . S
N336 C340 1.418 1_556 S
C337 H316 0.929 . S
C337 C335 1.446 1_554 S
C337 C338 1.332 . S
C338 H318 0.931 . S
C338 C337 1.332 . S
C338 C339 1.267 . S
C339 H307 0.929 . S
C339 C338 1.267 . S
C339 C340 1.251 . S
C340 H310 0.929 . S
C340 N336 1.418 1_554 S
C340 C339 1.251 . S
C341 H308 0.930 . S
C341 C343 1.410 . S
C341 C346 1.261 . S
C342 H309 0.930 . S
C342 N344 1.325 . S
C342 C345 1.357 1_556 S
C343 H311 0.927 1_554 S
C343 C341 1.410 . S
C343 N344 1.258 1_554 S
N344 Co295 2.214 . S
N344 C342 1.325 . S
N344 C343 1.258 1_556 S
C345 H315 0.931 1_545 S
C345 C342 1.357 1_554 S
C345 C346 1.312 . S
C346 H317 0.930 . S
C346 C341 1.261 . S
C346 C345 1.312 . S
C347 O319 1.208 1_565 S
C347 O327 1.230 . S
C348 H320 0.929 . S
C348 C351 1.391 . S
C348 C353 1.391 . S
C349 H321 0.929 1_545 S
C349 C350 1.390 . S
C349 N352 1.391 . S
C350 H322 0.930 . S
C350 C349 1.390 . S
C350 C351 1.392 . S
C351 H323 0.929 . S
C351 C348 1.391 . S
C351 C350 1.392 . S
N352 Co296 2.257 . S
N352 C349 1.391 . S
N352 C353 1.388 . S
C353 H324 0.930 . S
C353 C348 1.391 . S
C353 N352 1.388 . S
Co354 O356 2.143 . S
Co354 O362 2.074 . S
Co354 O365 2.093 . S
Co354 O378 2.097 . S
Co354 N395 2.151 . S
Co354 N403 2.214 . S
Co355 O356 2.160 . S
Co355 O361 2.058 . S
Co355 O371 2.057 . S
Co355 O386 2.037 . S
Co355 N390 2.145 . S
Co355 N411 2.257 . S
O356 Co354 2.143 . S
O356 Co355 2.160 . S
C357 O358 1.278 . S
C357 O365 1.224 . S
O358 C357 1.278 . S
C359 O360 1.245 . S
C359 O371 1.232 . S
O360 C359 1.245 . S
O361 Co355 2.058 . S
O361 C387 1.269 . S
O362 Co354 2.074 . S
O362 C387 1.257 . S
H363 C388 0.930 . S
H364 C394 0.930 . S
O365 Co354 2.093 . S
O365 C357 1.224 . S
H366 C398 0.929 . S
H367 C400 0.930 . S
H368 C401 0.930 . S
H369 C399 0.929 . S
H370 C402 0.928 . S
O371 Co355 2.057 . S
O371 C359 1.232 . S
H372 C391 0.929 . S
H373 C392 0.929 . S
H374 C404 0.931 . S
H375 C396 0.929 . S
H376 C405 0.930 . S
H377 C397 0.931 . S
O378 Co354 2.097 . S
O378 C406 1.214 . S
H379 C407 0.929 . S
H380 C408 0.929 . S
H381 C409 0.930 . S
H382 C410 0.929 . S
H383 C412 0.930 . S
H384 C389 0.930 1_455 S
H385 C393 0.930 1_455 S
O386 Co355 2.037 . S
O386 C406 1.234 . S
C387 O361 1.269 . S
C387 O362 1.257 . S
C388 H363 0.930 . S
C388 C391 1.388 . S
C388 C393 1.418 . S
C389 H384 0.930 1_655 S
C389 C392 1.404 . S
C389 C393 1.353 . S
N390 Co355 2.145 . S
N390 C391 1.397 . S
N390 C392 1.334 . S
C391 H372 0.929 . S
C391 C388 1.388 . S
C391 N390 1.397 . S
C392 H373 0.929 . S
C392 C389 1.404 . S
C392 N390 1.334 . S
C393 H385 0.930 1_655 S
C393 C388 1.418 . S
C393 C389 1.353 . S
C394 H364 0.930 . S
C394 N395 1.330 . S
C394 C396 1.446 . S
N395 Co354 2.151 . S
N395 C394 1.330 . S
N395 C399 1.418 . S
C396 H375 0.929 . S
C396 C394 1.446 . S
C396 C397 1.332 . S
C397 H377 0.931 . S
C397 C396 1.332 . S
C397 C398 1.267 . S
C398 H366 0.929 . S
C398 C397 1.267 . S
C398 C399 1.251 . S
C399 H369 0.929 . S
C399 N395 1.418 . S
C399 C398 1.251 . S
C400 H367 0.930 . S
C400 C402 1.406 . S
C400 C405 1.261 . S
C401 H368 0.930 . S
C401 N403 1.325 . S
C401 C404 1.357 . S
C402 H370 0.928 . S
C402 C400 1.406 . S
C402 N403 1.261 . S
N403 Co354 2.214 . S
N403 C401 1.325 . S
N403 C402 1.261 . S
C404 H374 0.931 . S
C404 C401 1.357 . S
C404 C405 1.312 . S
C405 H376 0.930 . S
C405 C400 1.261 . S
C405 C404 1.312 . S
C406 O378 1.214 . S
C406 O386 1.234 . S
C407 H379 0.929 . S
C407 C410 1.391 . S
C407 C412 1.391 . S
C408 H380 0.929 . S
C408 C409 1.390 . S
C408 N411 1.391 . S
C409 H381 0.930 . S
C409 C408 1.390 . S
C409 C410 1.392 . S
C410 H382 0.929 . S
C410 C407 1.391 . S
C410 C409 1.392 . S
N411 Co355 2.257 . S
N411 C408 1.391 . S
N411 C412 1.388 . S
C412 H383 0.930 . S
C412 C407 1.391 . S
C412 N411 1.388 . S
Co413 O415 2.143 . S
Co413 O421 2.074 . S
Co413 O424 2.093 . S
Co413 O437 2.097 . S
Co413 N454 2.151 . S
Co413 N462 2.214 . S
Co414 O415 2.160 . S
Co414 O420 2.058 . S
Co414 O430 2.057 . S
Co414 O445 2.037 1_655 S
Co414 N449 2.145 1_655 S
Co414 N470 2.257 . S
O415 Co413 2.143 . S
O415 Co414 2.160 . S
C416 O417 1.278 . S
C416 O424 1.224 . S
O417 C416 1.278 . S
C418 O419 1.245 . S
C418 O430 1.232 . S
O419 C418 1.245 . S
O420 Co414 2.058 . S
O420 C446 1.269 . S
O421 Co413 2.074 . S
O421 C446 1.257 . S
H422 C447 0.930 . S
H423 C453 0.930 . S
O424 Co413 2.093 . S
O424 C416 1.224 . S
H425 C457 0.929 . S
H426 C459 0.930 . S
H427 C460 0.930 . S
H428 C458 0.929 . S
H429 C461 0.928 . S
O430 Co414 2.057 . S
O430 C418 1.232 . S
H431 C450 0.929 . S
H432 C451 0.929 . S
H433 C463 0.931 1_455 S
H434 C455 0.929 . S
H435 C464 0.930 . S
H436 C456 0.931 . S
O437 Co413 2.097 . S
O437 C465 1.208 1_655 S
H438 C466 0.929 . S
H439 C467 0.924 1_456 S
H440 C468 0.930 . S
H441 C469 0.929 . S
H442 C471 0.930 . S
H443 C448 0.930 1_545 S
H444 C452 0.930 1_545 S
O445 Co414 2.037 1_455 S
O445 C465 1.230 . S
C446 O420 1.269 . S
C446 O421 1.257 . S
C447 H422 0.930 . S
C447 C450 1.388 . S
C447 C452 1.418 . S
C448 H443 0.930 1_565 S
C448 C451 1.404 . S
C448 C452 1.353 . S
N449 Co414 2.145 1_455 S
N449 C450 1.397 . S
N449 C451 1.334 . S
C450 H431 0.929 . S
C450 C447 1.388 . S
C450 N449 1.397 . S
C451 H432 0.929 . S
C451 C448 1.404 . S
C451 N449 1.334 . S
C452 H444 0.930 1_565 S
C452 C447 1.418 . S
C452 C448 1.353 . S
C453 H423 0.930 . S
C453 N454 1.330 . S
C453 C455 1.446 . S
N454 Co413 2.151 . S
N454 C453 1.330 . S
N454 C458 1.418 . S
C455 H434 0.929 . S
C455 C453 1.446 . S
C455 C456 1.332 . S
C456 H436 0.931 . S
C456 C455 1.332 . S
C456 C457 1.267 . S
C457 H425 0.929 . S
C457 C456 1.267 . S
C457 C458 1.251 . S
C458 H428 0.929 . S
C458 N454 1.418 . S
C458 C457 1.251 . S
C459 H426 0.930 . S
C459 C461 1.406 . S
C459 C464 1.261 . S
C460 H427 0.930 . S
C460 N462 1.325 . S
C460 C463 1.357 . S
C461 H429 0.928 . S
C461 C459 1.406 . S
C461 N462 1.261 . S
N462 Co413 2.214 . S
N462 C460 1.325 . S
N462 C461 1.261 . S
C463 H433 0.931 1_655 S
C463 C460 1.357 . S
C463 C464 1.312 . S
C464 H435 0.930 . S
C464 C459 1.261 . S
C464 C463 1.312 . S
C465 O437 1.208 1_455 S
C465 O445 1.230 . S
C466 H438 0.929 . S
C466 C469 1.391 . S
C466 C471 1.391 1_554 S
C467 H439 0.924 1_654 S
C467 C468 1.405 . S
C467 N470 1.381 1_554 S
C468 H440 0.930 . S
C468 C467 1.405 . S
C468 C469 1.392 . S
C469 H441 0.929 . S
C469 C466 1.391 . S
C469 C468 1.392 . S
N470 Co414 2.257 . S
N470 C467 1.381 1_556 S
N470 C471 1.388 . S
C471 H442 0.930 . S
C471 C466 1.391 1_556 S
C471 N470 1.388 . S
Co472 O474 2.143 . S
Co472 O480 2.074 . S
Co472 O483 2.093 . S
Co472 O496 2.097 . S
Co472 N513 2.151 . S
Co472 N521 2.214 . S
Co473 O474 2.160 . S
Co473 O479 2.058 . S
Co473 O489 2.057 . S
Co473 O504 2.037 1_565 S
Co473 N508 2.145 1_565 S
Co473 N529 2.257 . S
O474 Co472 2.143 . S
O474 Co473 2.160 . S
C475 O476 1.278 . S
C475 O483 1.224 . S
O476 C475 1.278 . S
C477 O478 1.245 . S
C477 O489 1.232 . S
O478 C477 1.245 . S
O479 Co473 2.058 . S
O479 C505 1.269 . S
O480 Co472 2.074 . S
O480 C505 1.257 . S
H481 C506 0.930 . S
H482 C512 0.930 . S
O483 Co472 2.093 . S
O483 C475 1.224 . S
H484 C516 0.929 . S
H485 C518 0.930 . S
H486 C519 0.930 . S
H487 C517 0.929 . S
H488 C520 0.927 1_554 S
O489 Co473 2.057 . S
O489 C477 1.232 . S
H490 C509 0.929 . S
H491 C510 0.929 . S
H492 C522 0.931 1_545 S
H493 C514 0.929 . S
H494 C523 0.930 . S
H495 C515 0.931 . S
O496 Co472 2.097 . S
O496 C524 1.203 1_565 S
H497 C525 0.929 . S
H498 C526 0.929 1_545 S
H499 C527 0.930 . S
H500 C528 0.929 . S
H501 C530 0.930 . S
H502 C507 0.930 . S
H503 C511 0.930 . S
O504 Co473 2.037 1_545 S
O504 C524 1.242 . S
C505 O479 1.269 . S
C505 O480 1.257 . S
C506 H481 0.930 . S
C506 C509 1.388 . S
C506 C511 1.418 . S
C507 H502 0.930 . S
C507 C510 1.404 . S
C507 C511 1.353 . S
N508 Co473 2.145 1_545 S
N508 C509 1.397 . S
N508 C510 1.334 . S
C509 H490 0.929 . S
C509 C506 1.388 . S
C509 N508 1.397 . S
C510 H491 0.929 . S
C510 C507 1.404 . S
C510 N508 1.334 . S
C511 H503 0.930 . S
C511 C506 1.418 . S
C511 C507 1.353 . S
C512 H482 0.930 . S
C512 N513 1.330 . S
C512 C514 1.446 1_554 S
N513 Co472 2.151 . S
N513 C512 1.330 . S
N513 C517 1.418 1_554 S
C514 H493 0.929 . S
C514 C512 1.446 1_556 S
C514 C515 1.332 . S
C515 H495 0.931 . S
C515 C514 1.332 . S
C515 C516 1.267 . S
C516 H484 0.929 . S
C516 C515 1.267 . S
C516 C517 1.251 . S
C517 H487 0.929 . S
C517 N513 1.418 1_556 S
C517 C516 1.251 . S
C518 H485 0.930 . S
C518 C520 1.410 . S
C518 C523 1.261 . S
C519 H486 0.930 . S
C519 N521 1.325 . S
C519 C522 1.357 1_554 S
C520 H488 0.927 1_556 S
C520 C518 1.410 . S
C520 N521 1.258 1_556 S
N521 Co472 2.214 . S
N521 C519 1.325 . S
N521 C520 1.258 1_554 S
C522 H492 0.931 1_565 S
C522 C519 1.357 1_556 S
C522 C523 1.312 . S
C523 H494 0.930 . S
C523 C518 1.261 . S
C523 C522 1.312 . S
C524 O496 1.203 1_545 S
C524 O504 1.242 . S
C525 H497 0.929 . S
C525 C528 1.391 . S
C525 C530 1.391 . S
C526 H498 0.929 1_565 S
C526 C527 1.390 . S
C526 N529 1.391 . S
C527 H499 0.930 . S
C527 C526 1.390 . S
C527 C528 1.392 . S
C528 H500 0.929 . S
C528 C525 1.391 . S
C528 C527 1.392 . S
N529 Co473 2.257 . S
N529 C526 1.391 . S
N529 C530 1.388 . S
C530 H501 0.930 . S
C530 C525 1.391 . S
C530 N529 1.388 . S
Co531 O533 2.143 . S
Co531 O539 2.074 . S
Co531 O542 2.093 . S
Co531 O555 2.097 . S
Co531 N572 2.151 . S
Co531 N580 2.214 . S
Co532 O533 2.160 . S
Co532 O538 2.058 . S
Co532 O548 2.057 . S
Co532 O563 2.037 . S
Co532 N567 2.145 . S
Co532 N588 2.257 . S
O533 Co531 2.143 . S
O533 Co532 2.160 . S
C534 O535 1.278 . S
C534 O542 1.224 . S
O535 C534 1.278 . S
C536 O537 1.245 . S
C536 O548 1.232 . S
O537 C536 1.245 . S
O538 Co532 2.058 . S
O538 C564 1.269 . S
O539 Co531 2.074 . S
O539 C564 1.257 . S
H540 C565 0.930 . S
H541 C571 0.930 . S
O542 Co531 2.093 . S
O542 C534 1.224 . S
H543 C575 0.929 . S
H544 C577 0.930 . S
H545 C578 0.930 . S
H546 C576 0.929 . S
H547 C579 0.928 . S
O548 Co532 2.057 . S
O548 C536 1.232 . S
H549 C568 0.929 . S
H550 C569 0.929 . S
H551 C581 0.931 . S
H552 C573 0.929 . S
H553 C582 0.930 . S
H554 C574 0.931 . S
O555 Co531 2.097 . S
O555 C583 1.214 . S
H556 C584 0.929 . S
H557 C585 0.929 . S
H558 C586 0.930 . S
H559 C587 0.929 . S
H560 C589 0.930 . S
H561 C566 0.930 1_655 S
H562 C570 0.930 1_655 S
O563 Co532 2.037 . S
O563 C583 1.234 . S
C564 O538 1.269 . S
C564 O539 1.257 . S
C565 H540 0.930 . S
C565 C568 1.388 . S
C565 C570 1.418 . S
C566 H561 0.930 1_455 S
C566 C569 1.404 . S
C566 C570 1.353 . S
N567 Co532 2.145 . S
N567 C568 1.397 . S
N567 C569 1.334 . S
C568 H549 0.929 . S
C568 C565 1.388 . S
C568 N567 1.397 . S
C569 H550 0.929 . S
C569 C566 1.404 . S
C569 N567 1.334 . S
C570 H562 0.930 1_455 S
C570 C565 1.418 . S
C570 C566 1.353 . S
C571 H541 0.930 . S
C571 N572 1.330 . S
C571 C573 1.446 . S
N572 Co531 2.151 . S
N572 C571 1.330 . S
N572 C576 1.418 . S
C573 H552 0.929 . S
C573 C571 1.446 . S
C573 C574 1.332 . S
C574 H554 0.931 . S
C574 C573 1.332 . S
C574 C575 1.267 . S
C575 H543 0.929 . S
C575 C574 1.267 . S
C575 C576 1.251 . S
C576 H546 0.929 . S
C576 N572 1.418 . S
C576 C575 1.251 . S
C577 H544 0.930 . S
C577 C579 1.406 . S
C577 C582 1.261 . S
C578 H545 0.930 . S
C578 N580 1.325 . S
C578 C581 1.357 . S
C579 H547 0.928 . S
C579 C577 1.406 . S
C579 N580 1.261 . S
N580 Co531 2.214 . S
N580 C578 1.325 . S
N580 C579 1.261 . S
C581 H551 0.931 . S
C581 C578 1.357 . S
C581 C582 1.312 . S
C582 H553 0.930 . S
C582 C577 1.261 . S
C582 C581 1.312 . S
C583 O555 1.214 . S
C583 O563 1.234 . S
C584 H556 0.929 . S
C584 C587 1.391 . S
C584 C589 1.391 . S
C585 H557 0.929 . S
C585 C586 1.390 . S
C585 N588 1.391 . S
C586 H558 0.930 . S
C586 C585 1.390 . S
C586 C587 1.392 . S
C587 H559 0.929 . S
C587 C584 1.391 . S
C587 C586 1.392 . S
N588 Co532 2.257 . S
N588 C585 1.391 . S
N588 C589 1.388 . S
C589 H560 0.930 . S
C589 C584 1.391 . S
C589 N588 1.388 . S
Co590 O592 2.143 . S
Co590 O598 2.074 . S
Co590 O601 2.093 . S
Co590 O614 2.097 . S
Co590 N631 2.151 . S
Co590 N639 2.214 . S
Co591 O592 2.160 . S
Co591 O597 2.058 . S
Co591 O607 2.057 . S
Co591 O622 2.037 1_455 S
Co591 N626 2.145 1_455 S
Co591 N647 2.257 . S
O592 Co590 2.143 . S
O592 Co591 2.160 . S
C593 O594 1.278 . S
C593 O601 1.224 . S
O594 C593 1.278 . S
C595 O596 1.245 . S
C595 O607 1.232 . S
O596 C595 1.245 . S
O597 Co591 2.058 . S
O597 C623 1.269 . S
O598 Co590 2.074 . S
O598 C623 1.257 . S
H599 C624 0.930 . S
H600 C630 0.930 . S
O601 Co590 2.093 . S
O601 C593 1.224 . S
H602 C634 0.929 . S
H603 C636 0.930 . S
H604 C637 0.930 . S
H605 C635 0.929 . S
H606 C638 0.928 . S
O607 Co591 2.057 . S
O607 C595 1.232 . S
H608 C627 0.929 . S
H609 C628 0.929 . S
H610 C640 0.931 1_655 S
H611 C632 0.929 . S
H612 C641 0.930 . S
H613 C633 0.931 . S
O614 Co590 2.097 . S
O614 C642 1.208 1_455 S
H615 C643 0.929 . S
H616 C644 0.924 1_656 S
H617 C645 0.930 . S
H618 C646 0.929 . S
H619 C648 0.930 . S
H620 C625 0.930 1_565 S
H621 C629 0.930 1_565 S
O622 Co591 2.037 1_655 S
O622 C642 1.230 . S
C623 O597 1.269 . S
C623 O598 1.257 . S
C624 H599 0.930 . S
C624 C627 1.388 . S
C624 C629 1.418 . S
C625 H620 0.930 1_545 S
C625 C628 1.404 . S
C625 C629 1.353 . S
N626 Co591 2.145 1_655 S
N626 C627 1.397 . S
N626 C628 1.334 . S
C627 H608 0.929 . S
C627 C624 1.388 . S
C627 N626 1.397 . S
C628 H609 0.929 . S
C628 C625 1.404 . S
C628 N626 1.334 . S
C629 H621 0.930 1_545 S
C629 C624 1.418 . S
C629 C625 1.353 . S
C630 H600 0.930 . S
C630 N631 1.330 . S
C630 C632 1.446 . S
N631 Co590 2.151 . S
N631 C630 1.330 . S
N631 C635 1.418 . S
C632 H611 0.929 . S
C632 C630 1.446 . S
C632 C633 1.332 . S
C633 H613 0.931 . S
C633 C632 1.332 . S
C633 C634 1.267 . S
C634 H602 0.929 . S
C634 C633 1.267 . S
C634 C635 1.251 . S
C635 H605 0.929 . S
C635 N631 1.418 . S
C635 C634 1.251 . S
C636 H603 0.930 . S
C636 C638 1.406 . S
C636 C641 1.261 . S
C637 H604 0.930 . S
C637 N639 1.325 . S
C637 C640 1.357 . S
C638 H606 0.928 . S
C638 C636 1.406 . S
C638 N639 1.261 . S
N639 Co590 2.214 . S
N639 C637 1.325 . S
N639 C638 1.261 . S
C640 H610 0.931 1_455 S
C640 C637 1.357 . S
C640 C641 1.312 . S
C641 H612 0.930 . S
C641 C636 1.261 . S
C641 C640 1.312 . S
C642 O614 1.208 1_655 S
C642 O622 1.230 . S
C643 H615 0.929 . S
C643 C646 1.391 . S
C643 C648 1.391 1_554 S
C644 H616 0.924 1_454 S
C644 C645 1.405 . S
C644 N647 1.381 1_554 S
C645 H617 0.930 . S
C645 C644 1.405 . S
C645 C646 1.392 . S
C646 H618 0.929 . S
C646 C643 1.391 . S
C646 C645 1.392 . S
N647 Co591 2.257 . S
N647 C644 1.381 1_556 S
N647 C648 1.388 . S
C648 H619 0.930 . S
C648 C643 1.391 1_556 S
C648 N647 1.388 . S
Co649 O651 2.143 . S
Co649 O657 2.074 . S
Co649 O660 2.093 . S
Co649 O673 2.097 . S
Co649 N690 2.151 . S
Co649 N698 2.214 . S
Co650 O651 2.160 . S
Co650 O656 2.058 . S
Co650 O666 2.057 . S
Co650 O681 2.037 1_545 S
Co650 N685 2.145 1_545 S
Co650 N706 2.257 . S
O651 Co649 2.143 . S
O651 Co650 2.160 . S
C652 O653 1.278 . S
C652 O660 1.224 . S
O653 C652 1.278 . S
C654 O655 1.245 . S
C654 O666 1.232 . S
O655 C654 1.245 . S
O656 Co650 2.058 . S
O656 C682 1.269 . S
O657 Co649 2.074 . S
O657 C682 1.257 . S
H658 C683 0.930 . S
H659 C689 0.930 . S
O660 Co649 2.093 . S
O660 C652 1.224 . S
H661 C693 0.929 . S
H662 C695 0.930 . S
H663 C696 0.930 . S
H664 C694 0.929 . S
H665 C697 0.927 1_554 S
O666 Co650 2.057 . S
O666 C654 1.232 . S
H667 C686 0.929 . S
H668 C687 0.929 . S
H669 C699 0.931 1_565 S
H670 C691 0.929 . S
H671 C700 0.930 . S
H672 C692 0.931 . S
O673 Co649 2.097 . S
O673 C701 1.203 1_545 S
H674 C702 0.929 . S
H675 C703 0.929 1_565 S
H676 C704 0.930 . S
H677 C705 0.929 . S
H678 C707 0.930 . S
H679 C684 0.930 . S
H680 C688 0.930 . S
O681 Co650 2.037 1_565 S
O681 C701 1.242 . S
C682 O656 1.269 . S
C682 O657 1.257 . S
C683 H658 0.930 . S
C683 C686 1.388 . S
C683 C688 1.418 . S
C684 H679 0.930 . S
C684 C687 1.404 . S
C684 C688 1.353 . S
N685 Co650 2.145 1_565 S
N685 C686 1.397 . S
N685 C687 1.334 . S
C686 H667 0.929 . S
C686 C683 1.388 . S
C686 N685 1.397 . S
C687 H668 0.929 . S
C687 C684 1.404 . S
C687 N685 1.334 . S
C688 H680 0.930 . S
C688 C683 1.418 . S
C688 C684 1.353 . S
C689 H659 0.930 . S
C689 N690 1.330 . S
C689 C691 1.446 1_554 S
N690 Co649 2.151 . S
N690 C689 1.330 . S
N690 C694 1.418 1_554 S
C691 H670 0.929 . S
C691 C689 1.446 1_556 S
C691 C692 1.332 . S
C692 H672 0.931 . S
C692 C691 1.332 . S
C692 C693 1.267 . S
C693 H661 0.929 . S
C693 C692 1.267 . S
C693 C694 1.251 . S
C694 H664 0.929 . S
C694 N690 1.418 1_556 S
C694 C693 1.251 . S
C695 H662 0.930 . S
C695 C697 1.410 . S
C695 C700 1.261 . S
C696 H663 0.930 . S
C696 N698 1.325 . S
C696 C699 1.357 1_554 S
C697 H665 0.927 1_556 S
C697 C695 1.410 . S
C697 N698 1.258 1_556 S
N698 Co649 2.214 . S
N698 C696 1.325 . S
N698 C697 1.258 1_554 S
C699 H669 0.931 1_545 S
C699 C696 1.357 1_556 S
C699 C700 1.312 . S
C700 H671 0.930 . S
C700 C695 1.261 . S
C700 C699 1.312 . S
C701 O673 1.203 1_565 S
C701 O681 1.242 . S
C702 H674 0.929 . S
C702 C705 1.391 . S
C702 C707 1.391 . S
C703 H675 0.929 1_545 S
C703 C704 1.390 . S
C703 N706 1.391 . S
C704 H676 0.930 . S
C704 C703 1.390 . S
C704 C705 1.392 . S
C705 H677 0.929 . S
C705 C702 1.391 . S
C705 C704 1.392 . S
N706 Co650 2.257 . S
N706 C703 1.391 . S
N706 C707 1.388 . S
C707 H678 0.930 . S
C707 C702 1.391 . S
C707 N706 1.388 . S
C475 C3 1.758 . S
C62 C534 1.758 . S
C121 C593 1.758 . S
C180 C652 1.758 . S
C357 C239 1.758 . S
C298 C416 1.758 . S
C229 C52 1.786 . S
C288 C111 1.774 1_655 S
C347 C170 1.798 1_565 S
C406 C583 1.786 . S
C465 C642 1.798 1_455 S
C524 C701 1.774 1_545 S
C33 C564 1.872 . S
C92 C623 1.872 1_655 S
C151 C682 1.872 1_566 S
C387 C210 1.872 . S
C269 C446 1.872 1_455 S
C505 C328 1.872 1_564 S
C654 C5 1.752 1_655 S
C64 C359 1.752 1_545 S
C418 C123 1.752 . S
C182 C477 1.752 1_655 S
C241 C536 1.752 1_565 S
C595 C300 1.752 . S
