# Generated by pormake.
# Topology wke, (5)-cn, num edge types: 1
# Building blocks:
#     Node 0, Type 0, BuildingBlock: XOMCOT_clean_sbu_1, # of connection points: 5
#     Node 1, Type 0, BuildingBlock: XOMCOT_clean_sbu_1, # of connection points: 5
#     Node 2, Type 0, BuildingBlock: XOMCOT_clean_sbu_1, # of connection points: 5
#     Node 3, Type 0, BuildingBlock: XOMCOT_clean_sbu_1, # of connection points: 5
#     Node 4, Type 0, BuildingBlock: XOMCOT_clean_sbu_1, # of connection points: 5
#     Node 5, Type 0, BuildingBlock: XOMCOT_clean_sbu_1, # of connection points: 5
#     Node 6, Type 0, BuildingBlock: XOMCOT_clean_sbu_1, # of connection points: 5
#     Node 7, Type 0, BuildingBlock: XOMCOT_clean_sbu_1, # of connection points: 5
#     Node 8, Type 0, BuildingBlock: XOMCOT_clean_sbu_1, # of connection points: 5
#     Node 9, Type 0, BuildingBlock: XOMCOT_clean_sbu_1, # of connection points: 5
#     Node 10, Type 0, BuildingBlock: XOMCOT_clean_sbu_1, # of connection points: 5
#     Node 11, Type 0, BuildingBlock: XOMCOT_clean_sbu_1, # of connection points: 5
#     Edge 12, Type (0, 0), BuildingBlock: KIFKEQ_clean_linker_1, # of connection points: 2
#     Edge 13, Type (0, 0), BuildingBlock: KIFKEQ_clean_linker_1, # of connection points: 2
#     Edge 14, Type (0, 0), BuildingBlock: KIFKEQ_clean_linker_1, # of connection points: 2
#     Edge 15, Type (0, 0), BuildingBlock: KIFKEQ_clean_linker_1, # of connection points: 2
#     Edge 16, Type (0, 0), BuildingBlock: KIFKEQ_clean_linker_1, # of connection points: 2
#     Edge 17, Type (0, 0), BuildingBlock: KIFKEQ_clean_linker_1, # of connection points: 2
#     Edge 18, Type (0, 0), BuildingBlock: KIFKEQ_clean_linker_1, # of connection points: 2
#     Edge 19, Type (0, 0), BuildingBlock: KIFKEQ_clean_linker_1, # of connection points: 2
#     Edge 20, Type (0, 0), BuildingBlock: KIFKEQ_clean_linker_1, # of connection points: 2
#     Edge 21, Type (0, 0), BuildingBlock: KIFKEQ_clean_linker_1, # of connection points: 2
#     Edge 22, Type (0, 0), BuildingBlock: KIFKEQ_clean_linker_1, # of connection points: 2
#     Edge 23, Type (0, 0), BuildingBlock: KIFKEQ_clean_linker_1, # of connection points: 2
#     Edge 24, Type (0, 0), BuildingBlock: KIFKEQ_clean_linker_1, # of connection points: 2
#     Edge 25, Type (0, 0), BuildingBlock: KIFKEQ_clean_linker_1, # of connection points: 2
#     Edge 26, Type (0, 0), BuildingBlock: KIFKEQ_clean_linker_1, # of connection points: 2
#     Edge 27, Type (0, 0), BuildingBlock: KIFKEQ_clean_linker_1, # of connection points: 2
#     Edge 28, Type (0, 0), BuildingBlock: KIFKEQ_clean_linker_1, # of connection points: 2
#     Edge 29, Type (0, 0), BuildingBlock: KIFKEQ_clean_linker_1, # of connection points: 2
#     Edge 30, Type (0, 0), BuildingBlock: KIFKEQ_clean_linker_1, # of connection points: 2
#     Edge 31, Type (0, 0), BuildingBlock: KIFKEQ_clean_linker_1, # of connection points: 2
#     Edge 32, Type (0, 0), BuildingBlock: KIFKEQ_clean_linker_1, # of connection points: 2
#     Edge 33, Type (0, 0), BuildingBlock: KIFKEQ_clean_linker_1, # of connection points: 2
#     Edge 34, Type (0, 0), BuildingBlock: KIFKEQ_clean_linker_1, # of connection points: 2
#     Edge 35, Type (0, 0), BuildingBlock: KIFKEQ_clean_linker_1, # of connection points: 2
#     Edge 36, Type (0, 0), BuildingBlock: KIFKEQ_clean_linker_1, # of connection points: 2
#     Edge 37, Type (0, 0), BuildingBlock: KIFKEQ_clean_linker_1, # of connection points: 2
#     Edge 38, Type (0, 0), BuildingBlock: KIFKEQ_clean_linker_1, # of connection points: 2
#     Edge 39, Type (0, 0), BuildingBlock: KIFKEQ_clean_linker_1, # of connection points: 2
#     Edge 40, Type (0, 0), BuildingBlock: KIFKEQ_clean_linker_1, # of connection points: 2
#     Edge 41, Type (0, 0), BuildingBlock: KIFKEQ_clean_linker_1, # of connection points: 2
# Relax obj value: 0.162
# Max RMSD: 0.151
# Mean RMSD: 0.151
data_MOF--net-wke--node1-XOMCOT_clean_sbu_1--edge1-KIFKEQ_clean_linker_1
_symmetry_space_group_name_H-M    P1
_symmetry_Int_Tables_number       1
_symmetry_cell_setting            triclinic
loop_
_symmetry_equiv_pos_as_xyz
'x, y, z'
_cell_length_a     72.063343
_cell_length_b     72.061345
_cell_length_c     17.667964
_cell_angle_alpha  90.02119
_cell_angle_beta   89.992827
_cell_angle_gamma 119.98167
loop_
_atom_site_label
_atom_site_type_symbol
_atom_site_fract_x
_atom_site_fract_y
_atom_site_fract_z
_atom_type_partial_charge
C0 C 0.14617 0.45629 0.40261 0.0
C1 C 0.14898 0.45872 0.47987 0.0
N2 N 0.13477 0.44012 0.51318 0.0
N3 N 0.13014 0.43634 0.38733 0.0
C4 C 0.12374 0.42681 0.45562 0.0
H5 H 0.155 0.46838 0.36029 0.0
Co6 Co 0.11902 0.42527 0.29237 0.0
C7 C 0.0721 0.3974 0.32101 0.0
O8 O 0.06808 0.40433 0.25775 0.0
N9 N 0.1082 0.41372 0.19496 0.0
C10 C 0.09447 0.38976 0.10142 0.0
C11 C 0.09639 0.39261 0.17865 0.0
C12 C 0.11375 0.42325 0.12613 0.0
N13 N 0.10557 0.40911 0.06843 0.0
O14 O 0.13063 0.40628 0.30016 0.0
H15 H 0.09045 0.37991 0.22025 0.0
H16 H 0.12447 0.44008 0.11743 0.0
O17 O 0.09159 0.4041 0.34022 0.0
C18 C 0.14777 0.41411 0.26073 0.0
O19 O 0.15374 0.43208 0.22397 0.0
N20 N 0.11026 0.44594 0.28337 0.0
C21 C 0.1062 0.48266 0.27148 0.0
C22 C 0.09354 0.46615 0.32275 0.0
C23 C 0.09599 0.44805 0.3285 0.0
C24 C 0.12346 0.46235 0.23704 0.0
C25 C 0.1211 0.48023 0.22756 0.0
H26 H 0.08732 0.4365 0.37235 0.0
H27 H 0.1368 0.46217 0.21012 0.0
H28 H 0.11089 0.41055 0.46318 0.0
H29 H 0.16057 0.47308 0.50907 0.0
H30 H 0.08662 0.37456 0.07198 0.0
H31 H 0.08254 0.46756 0.3608 0.0
H32 H 0.13146 0.49227 0.18732 0.0
C33 C 0.6907 0.1411 0.90464 0.0
C34 C 0.69043 0.14354 0.98188 0.0
N35 N 0.69622 0.13039 0.0153 0.0
N36 N 0.69637 0.12627 0.88946 0.0
C37 C 0.69997 0.12032 0.95789 0.0
H38 H 0.68679 0.14943 0.8623 0.0
Co39 Co 0.698 0.11616 0.79432 0.0
C40 C 0.68453 0.06975 0.81986 0.0
O41 O 0.67598 0.06445 0.75204 0.0
N42 N 0.70034 0.10654 0.69716 0.0
C43 C 0.71353 0.09622 0.60234 0.0
C44 C 0.71279 0.09803 0.67962 0.0
C45 C 0.6942 0.11029 0.62914 0.0
N46 N 0.70192 0.10409 0.57063 0.0
O47 O 0.72876 0.12974 0.80498 0.0
H48 H 0.72159 0.09424 0.72045 0.0
H49 H 0.68507 0.11829 0.62187 0.0
O50 O 0.6936 0.08934 0.84144 0.0
C51 C 0.73767 0.1469 0.76557 0.0
O52 O 0.72531 0.15214 0.72737 0.0
N53 N 0.66824 0.1052 0.7823 0.0
C54 C 0.62615 0.09712 0.76477 0.0
C55 C 0.63051 0.08333 0.80785 0.0
C56 C 0.65171 0.08788 0.81721 0.0
C57 C 0.66432 0.11913 0.74301 0.0
C58 C 0.64353 0.11533 0.73277 0.0
H59 H 0.65462 0.07791 0.85506 0.0
H60 H 0.67762 0.13381 0.72148 0.0
H61 H 0.70488 0.10852 0.96566 0.0
H62 H 0.68633 0.15422 0.01103 0.0
H63 H 0.7229 0.09072 0.57186 0.0
H64 H 0.61772 0.06932 0.83517 0.0
H65 H 0.64126 0.12707 0.70224 0.0
C66 C 0.55897 0.69019 0.41345 0.0
C67 C 0.55653 0.69049 0.49072 0.0
N68 N 0.57541 0.69581 0.52387 0.0
N69 N 0.57922 0.69507 0.39796 0.0
C70 C 0.58891 0.69874 0.46617 0.0
H71 H 0.54668 0.68629 0.3713 0.0
Co72 Co 0.59055 0.69541 0.303 0.0
C73 C 0.62024 0.67831 0.33205 0.0
O74 O 0.61514 0.66824 0.26673 0.0
N75 N 0.60235 0.69656 0.20573 0.0
C76 C 0.62641 0.70812 0.11228 0.0
C77 C 0.62352 0.70704 0.18949 0.0
C78 C 0.5928 0.69201 0.13685 0.0
N79 N 0.60701 0.69878 0.07921 0.0
O80 O 0.60893 0.72607 0.31086 0.0
H81 H 0.63614 0.71447 0.23118 0.0
H82 H 0.57582 0.68486 0.12807 0.0
O83 O 0.61191 0.68968 0.3515 0.0
C84 C 0.59989 0.73433 0.27217 0.0
O85 O 0.58148 0.72141 0.23943 0.0
N86 N 0.57047 0.66592 0.2932 0.0
C87 C 0.53409 0.62499 0.27967 0.0
C88 C 0.55091 0.62872 0.32936 0.0
C89 C 0.5689 0.64935 0.33578 0.0
C90 C 0.55387 0.66274 0.24795 0.0
C91 C 0.53617 0.64247 0.23762 0.0
H92 H 0.58076 0.65207 0.3782 0.0
H93 H 0.55386 0.67631 0.22218 0.0
H94 H 0.60545 0.70301 0.47356 0.0
H95 H 0.54196 0.687 0.52004 0.0
H96 H 0.64161 0.71633 0.08291 0.0
H97 H 0.54985 0.61614 0.3657 0.0
H98 H 0.524 0.64087 0.19814 0.0
C99 C 0.87855 0.5589 0.90014 0.0
C100 C 0.87573 0.55647 0.9774 0.0
N101 N 0.88993 0.57507 0.01077 0.0
N102 N 0.89459 0.57885 0.88493 0.0
C103 C 0.90097 0.58838 0.95325 0.0
H104 H 0.86975 0.5468 0.85779 0.0
Co105 Co 0.90577 0.58991 0.79001 0.0
C106 C 0.95267 0.61781 0.81907 0.0
O107 O 0.95674 0.61087 0.75588 0.0
N108 N 0.91665 0.60144 0.69263 0.0
C109 C 0.93039 0.62539 0.59911 0.0
C110 C 0.92847 0.62256 0.67634 0.0
C111 C 0.91111 0.59191 0.62378 0.0
N112 N 0.91929 0.60604 0.5661 0.0
O113 O 0.89412 0.60886 0.79756 0.0
H114 H 0.93439 0.63526 0.71795 0.0
H115 H 0.90038 0.57508 0.61506 0.0
O116 O 0.93316 0.6111 0.83807 0.0
C117 C 0.87706 0.60107 0.75767 0.0
O118 O 0.87119 0.58316 0.72062 0.0
N119 N 0.91456 0.56927 0.78123 0.0
C120 C 0.9186 0.53253 0.76975 0.0
C121 C 0.93123 0.54906 0.82103 0.0
C122 C 0.92878 0.56716 0.82659 0.0
C123 C 0.90139 0.55284 0.73483 0.0
C124 C 0.90375 0.53496 0.72555 0.0
H125 H 0.93742 0.57872 0.87047 0.0
H126 H 0.88807 0.55301 0.70773 0.0
H127 H 0.91382 0.60464 0.96087 0.0
H128 H 0.86414 0.5421 1.00654 0.0
H129 H 0.93824 0.6406 0.56969 0.0
H130 H 0.94219 0.54765 0.85927 0.0
H131 H 0.89341 0.52289 0.68528 0.0
C132 C 0.33264 0.87484 0.40646 0.0
C133 C 0.33241 0.8721 0.48372 0.0
N134 N 0.32661 0.88528 0.51725 0.0
N135 N 0.32714 0.88975 0.39117 0.0
C136 C 0.32328 0.89556 0.45941 0.0
H137 H 0.33679 0.86668 0.36412 0.0
Co138 Co 0.32585 0.90016 0.29628 0.0
C139 C 0.33967 0.94635 0.32346 0.0
O140 O 0.34944 0.95155 0.25759 0.0
N141 N 0.3237 0.91015 0.19918 0.0
C142 C 0.3097 0.92041 0.10678 0.0
C143 C 0.31121 0.91877 0.18375 0.0
C144 C 0.32924 0.90636 0.12998 0.0
N145 N 0.32101 0.9125 0.07301 0.0
O146 O 0.295 0.88601 0.3049 0.0
H147 H 0.30278 0.92264 0.2259 0.0
H148 H 0.33759 0.89767 0.1204 0.0
O149 O 0.32952 0.92667 0.34412 0.0
C150 C 0.28637 0.86901 0.26461 0.0
O151 O 0.299 0.86416 0.22621 0.0
N152 N 0.35581 0.91183 0.28693 0.0
C153 C 0.3985 0.92177 0.27614 0.0
C154 C 0.39254 0.9327 0.32741 0.0
C155 C 0.37102 0.92736 0.33246 0.0
C156 C 0.36129 0.90016 0.24084 0.0
C157 C 0.3826 0.9053 0.23259 0.0
H158 H 0.36662 0.93495 0.37592 0.0
H159 H 0.34892 0.88601 0.21314 0.0
H160 H 0.31837 0.90735 0.46636 0.0
H161 H 0.33625 0.86119 0.51247 0.0
H162 H 0.30036 0.92624 0.07796 0.0
H163 H 0.40432 0.9449 0.36432 0.0
H164 H 0.38646 0.89577 0.19532 0.0
C165 C 0.46242 0.32254 0.90035 0.0
C166 C 0.46476 0.32201 0.97767 0.0
N167 N 0.44686 0.31956 0.01137 0.0
N168 N 0.44319 0.32055 0.88529 0.0
C169 C 0.43407 0.31859 0.95376 0.0
H170 H 0.474 0.32437 0.85778 0.0
Co171 Co 0.43214 0.32064 0.79023 0.0
C172 C 0.40367 0.33902 0.8187 0.0
O173 O 0.41067 0.35016 0.75586 0.0
N174 N 0.42054 0.31993 0.69296 0.0
C175 C 0.39613 0.30847 0.60071 0.0
C176 C 0.39931 0.3096 0.67768 0.0
C177 C 0.42986 0.32459 0.62363 0.0
N178 N 0.41542 0.31787 0.56679 0.0
O179 O 0.41354 0.28998 0.7973 0.0
H180 H 0.38682 0.30227 0.71986 0.0
H181 H 0.44673 0.33111 0.61372 0.0
O182 O 0.41059 0.32639 0.83782 0.0
C183 C 0.42142 0.28093 0.75658 0.0
O184 O 0.43917 0.29318 0.71898 0.0
N185 N 0.45247 0.35011 0.78202 0.0
C186 C 0.48909 0.39098 0.77191 0.0
C187 C 0.47251 0.38686 0.82331 0.0
C188 C 0.45444 0.36626 0.82807 0.0
C189 C 0.46889 0.35359 0.73529 0.0
C190 C 0.48671 0.37389 0.72663 0.0
H191 H 0.44281 0.36314 0.87188 0.0
H192 H 0.46875 0.34022 0.70721 0.0
H193 H 0.41841 0.31675 0.96127 0.0
H194 H 0.47857 0.32321 1.00641 0.0
H195 H 0.38082 0.30064 0.57199 0.0
H196 H 0.47384 0.39906 0.86224 0.0
H197 H 0.49875 0.3758 0.68597 0.0
C198 C 0.55544 0.87769 0.09661 0.0
C199 C 0.55289 0.87543 0.01934 0.0
N200 N 0.57229 0.88698 0.98669 0.0
N201 N 0.57633 0.89077 0.11259 0.0
C202 C 0.58622 0.89592 0.04464 0.0
H203 H 0.54286 0.87044 0.13849 0.0
Co204 Co 0.58829 0.89985 0.20814 0.0
C205 C 0.62163 0.94596 0.18523 0.0
O206 O 0.61776 0.95093 0.2527 0.0
N207 N 0.60052 0.90838 0.30527 0.0
C208 C 0.62454 0.91796 0.3982 0.0
C209 C 0.62155 0.91657 0.32109 0.0
C210 C 0.59106 0.90433 0.37414 0.0
N211 N 0.60528 0.91011 0.4315 0.0
O212 O 0.60449 0.88538 0.19513 0.0
H213 H 0.63389 0.92052 0.27906 0.0
H214 H 0.57404 0.89657 0.38304 0.0
O215 O 0.61137 0.92647 0.16262 0.0
C216 C 0.59266 0.86544 0.20897 0.0
O217 O 0.57243 0.85815 0.22597 0.0
N218 N 0.57052 0.91202 0.22197 0.0
C219 C 0.53801 0.92223 0.2361 0.0
C220 C 0.55528 0.93389 0.18702 0.0
C221 C 0.57133 0.92842 0.18023 0.0
C222 C 0.55306 0.89979 0.26611 0.0
C223 C 0.53701 0.90502 0.27602 0.0
H224 H 0.58355 0.93658 0.13797 0.0
H225 H 0.55093 0.88512 0.29053 0.0
H226 H 0.60328 0.90635 0.03777 0.0
H227 H 0.53789 0.86594 0.98967 0.0
H228 H 0.63958 0.92327 0.42734 0.0
H229 H 0.55603 0.94672 0.15277 0.0
H230 H 0.52332 0.89496 0.31137 0.0
C231 C 0.69769 0.55818 0.6196 0.0
C232 C 0.69795 0.55571 0.54223 0.0
N233 N 0.70091 0.57383 0.50906 0.0
N234 N 0.70046 0.57773 0.63483 0.0
C235 C 0.70265 0.58695 0.56643 0.0
H236 H 0.6954 0.5464 0.66205 0.0
Co237 Co 0.70096 0.58905 0.72979 0.0
C238 C 0.68412 0.61922 0.70323 0.0
O239 O 0.67514 0.61512 0.77043 0.0
N240 N 0.70226 0.60083 0.82695 0.0
C241 C 0.71502 0.62469 0.92078 0.0
C242 C 0.71401 0.62191 0.8436 0.0
C243 C 0.69658 0.59117 0.8955 0.0
N244 N 0.70415 0.60526 0.95359 0.0
O245 O 0.73159 0.60766 0.72017 0.0
H246 H 0.72232 0.63445 0.8022 0.0
H247 H 0.68795 0.57411 0.90349 0.0
O248 O 0.69481 0.61026 0.68237 0.0
C249 C 0.74096 0.59997 0.76003 0.0
O250 O 0.72902 0.58229 0.79839 0.0
N251 N 0.67157 0.56882 0.74036 0.0
C252 C 0.63073 0.53227 0.75274 0.0
C253 C 0.6343 0.54946 0.70524 0.0
C254 C 0.65486 0.56752 0.6994 0.0
C255 C 0.66857 0.55193 0.78357 0.0
C256 C 0.64833 0.53408 0.79327 0.0
H257 H 0.65741 0.57968 0.65854 0.0
H258 H 0.68224 0.55197 0.80894 0.0
H259 H 0.7058 0.60314 0.55848 0.0
H260 H 0.69562 0.54154 0.51272 0.0
H261 H 0.72418 0.63978 0.95015 0.0
H262 H 0.62163 0.54865 0.67003 0.0
H263 H 0.64684 0.52163 0.83118 0.0
C264 C 0.147 0.69043 0.11806 0.0
C265 C 0.1498 0.69078 0.04079 0.0
N266 N 0.13572 0.69536 1.00746 0.0
N267 N 0.13109 0.69455 0.13331 0.0
C268 C 0.12477 0.69778 0.065 0.0
H269 H 0.15572 0.68703 0.16039 0.0
Co270 Co 0.11999 0.69459 0.22827 0.0
C271 C 0.07318 0.67628 0.19905 0.0
O272 O 0.0689 0.66516 0.26201 0.0
N273 N 0.10918 0.6954 0.32565 0.0
C274 C 0.09571 0.7059 0.41923 0.0
C275 C 0.09762 0.70498 0.342 0.0
C276 C 0.11457 0.69124 0.39449 0.0
N277 N 0.10655 0.69737 0.4522 0.0
O278 O 0.13204 0.72523 0.22086 0.0
H279 H 0.09189 0.71194 0.30043 0.0
H280 H 0.12509 0.68487 0.40318 0.0
O281 O 0.09275 0.68884 0.18023 0.0
C282 C 0.14906 0.7343 0.26106 0.0
O283 O 0.15464 0.72209 0.29847 0.0
N284 N 0.11083 0.66509 0.23692 0.0
C285 C 0.10648 0.62418 0.24798 0.0
C286 C 0.09385 0.62819 0.19706 0.0
C287 C 0.09645 0.64881 0.19171 0.0
C288 C 0.12394 0.66169 0.28309 0.0
C289 C 0.12144 0.64139 0.29215 0.0
H290 H 0.08782 0.65182 0.14807 0.0
H291 H 0.13735 0.67512 0.31012 0.0
H292 H 0.11203 0.70135 0.0574 0.0
H293 H 0.16129 0.68785 0.01161 0.0
H294 H 0.08805 0.71346 0.44869 0.0
H295 H 0.08279 0.61586 0.15892 0.0
H296 H 0.13176 0.63956 0.33221 0.0
C297 C 0.46496 0.14137 0.60895 0.0
C298 C 0.46773 0.14388 0.53175 0.0
N299 N 0.44894 0.13038 0.49809 0.0
N300 N 0.4446 0.12616 0.62388 0.0
C301 C 0.43516 0.12005 0.55531 0.0
H302 H 0.47709 0.1499 0.65144 0.0
Co303 Co 0.43302 0.11576 0.71902 0.0
C304 C 0.40011 0.06933 0.69244 0.0
O305 O 0.40338 0.06388 0.75996 0.0
N306 N 0.42127 0.10588 0.81614 0.0
C307 C 0.39794 0.09537 0.91146 0.0
C308 C 0.40035 0.0973 0.83419 0.0
C309 C 0.43129 0.10955 0.88388 0.0
N310 N 0.41748 0.10324 0.94271 0.0
O311 O 0.41571 0.12925 0.7099 0.0
H312 H 0.38769 0.09357 0.79374 0.0
H313 H 0.44844 0.11761 0.8907 0.0
O314 O 0.41061 0.08897 0.67144 0.0
C315 C 0.424 0.14634 0.74977 0.0
O316 O 0.44164 0.1515 0.78755 0.0
N317 N 0.45199 0.10495 0.72948 0.0
C318 C 0.48697 0.09824 0.73838 0.0
C319 C 0.46837 0.0838 0.69911 0.0
C320 C 0.45121 0.08773 0.69365 0.0
C321 C 0.47007 0.11913 0.76732 0.0
C322 C 0.48763 0.11604 0.77299 0.0
H323 H 0.43807 0.07754 0.65711 0.0
H324 H 0.47125 0.13358 0.79043 0.0
H325 H 0.41858 0.10795 0.54727 0.0
H326 H 0.48243 0.15481 0.50278 0.0
H327 H 0.38312 0.08982 0.94233 0.0
H328 H 0.46757 0.07027 0.66938 0.0
H329 H 0.50183 0.12777 0.80274 0.0
C330 C 0.31301 0.44821 0.11785 0.0
C331 C 0.31256 0.45083 0.04071 0.0
N332 N 0.32162 0.44057 1.00666 0.0
N333 N 0.32211 0.43619 0.13245 0.0
C334 C 0.3274 0.43198 0.06353 0.0
H335 H 0.30639 0.45401 0.16052 0.0
Co336 Co 0.32316 0.42567 0.22806 0.0
C337 C 0.34165 0.39739 0.1989 0.0
O338 O 0.35266 0.40417 0.26212 0.0
N339 N 0.32337 0.41462 0.32606 0.0
C340 C 0.31207 0.39065 0.41977 0.0
C341 C 0.31271 0.39347 0.34265 0.0
C342 C 0.32892 0.42428 0.39493 0.0
N343 N 0.32225 0.41008 0.4526 0.0
O344 O 0.29248 0.40644 0.2231 0.0
H345 H 0.30477 0.38082 0.30132 0.0
H346 H 0.33608 0.44128 0.40403 0.0
O347 O 0.32906 0.40436 0.17997 0.0
C348 C 0.28294 0.41336 0.26587 0.0
O349 O 0.29469 0.43077 0.30582 0.0
N350 N 0.35244 0.44649 0.23438 0.0
C351 C 0.39299 0.48342 0.24691 0.0
C352 C 0.3895 0.46671 0.19701 0.0
C353 C 0.36906 0.44845 0.19111 0.0
C354 C 0.35529 0.46301 0.2794 0.0
C355 C 0.3754 0.48103 0.28917 0.0
H356 H 0.36655 0.43656 0.14907 0.0
H357 H 0.3416 0.46247 0.30662 0.0
H358 H 0.3345 0.42203 0.05457 0.0
H359 H 0.30571 0.45925 0.01187 0.0
H360 H 0.30396 0.3755 0.4495 0.0
H361 H 0.40213 0.468 0.16042 0.0
H362 H 0.37682 0.49309 0.32886 0.0
C363 C 0.87743 0.32451 0.61877 0.0
C364 C 0.87462 0.32416 0.54151 0.0
N365 N 0.88873 0.31964 0.50811 0.0
N366 N 0.89338 0.32044 0.63395 0.0
C367 C 0.89971 0.31725 0.5656 0.0
H368 H 0.86869 0.32788 0.66115 0.0
Co369 Co 0.90449 0.32045 0.7289 0.0
C370 C 0.95129 0.33873 0.69976 0.0
O371 O 0.95554 0.34988 0.76268 0.0
N372 N 0.91532 0.31968 0.82629 0.0
C373 C 0.92878 0.30918 0.91987 0.0
C374 C 0.92686 0.31009 0.84264 0.0
C375 C 0.90993 0.32386 0.89512 0.0
N376 N 0.91794 0.31773 0.95283 0.0
O377 O 0.89241 0.2898 0.72167 0.0
H378 H 0.93258 0.3031 0.80108 0.0
H379 H 0.89942 0.33023 0.90381 0.0
O380 O 0.93173 0.32615 0.68086 0.0
C381 C 0.87539 0.28081 0.76189 0.0
O382 O 0.86985 0.29311 0.79903 0.0
N383 N 0.91369 0.34997 0.73737 0.0
C384 C 0.91811 0.3909 0.74805 0.0
C385 C 0.93068 0.38682 0.69709 0.0
C386 C 0.92804 0.36618 0.69193 0.0
C387 C 0.90063 0.35343 0.78358 0.0
C388 C 0.90317 0.37376 0.79245 0.0
H389 H 0.93662 0.3631 0.64824 0.0
H390 H 0.88723 0.34004 0.81078 0.0
H391 H 0.91249 0.31374 0.55792 0.0
H392 H 0.86309 0.32705 0.51239 0.0
H393 H 0.93641 0.30161 0.94934 0.0
H394 H 0.94171 0.3991 0.65877 0.0
H395 H 0.89289 0.37565 0.83253 0.0
H396 H 0.07408 0.38385 0.4652 0.0
H397 H 0.02935 0.38218 0.29886 0.0
H398 H 0.045 0.36664 0.55692 0.0
H399 H 1.00043 0.36525 0.39047 0.0
H400 H 0.94895 0.32254 0.55643 0.0
H401 H 0.97795 0.33351 0.4648 0.0
H402 H 0.023 0.37685 0.6298 0.0
H403 H 0.99417 0.36576 0.72129 0.0
C404 C 0.05807 0.37971 0.44787 0.0
C405 C 0.05419 0.38467 0.37466 0.0
C406 C 0.04136 0.3699 0.50067 0.0
C407 C 0.02032 0.36466 0.48149 0.0
C408 C 0.01633 0.36882 0.40726 0.0
C409 C 0.03302 0.37869 0.35468 0.0
C410 C 0.96505 0.33425 0.57345 0.0
C411 C 0.96909 0.3434 0.64621 0.0
C412 C 0.9817 0.34063 0.52071 0.0
C413 C 1.00286 0.35621 0.53952 0.0
C414 C 1.007 0.36467 0.61332 0.0
C415 C 0.99036 0.35837 0.66583 0.0
H416 H 0.67977 0.07036 0.97338 0.0
H417 H 0.67797 0.02975 0.79078 0.0
H418 H 0.66716 0.04047 0.06085 0.0
H419 H 0.66638 0.99993 0.87875 0.0
H420 H 0.61861 0.9453 0.03074 0.0
H421 H 0.63637 0.97532 0.94413 0.0
H422 H 0.67249 0.01645 0.13076 0.0
H423 H 0.65373 0.98646 0.21771 0.0
C424 C 0.67731 0.05518 0.95236 0.0
C425 C 0.67991 0.05246 0.87512 0.0
C426 C 0.67005 0.03792 1.0027 0.0
C427 C 0.66552 0.0175 0.9774 0.0
C428 C 0.66913 0.01515 0.90049 0.0
C429 C 0.67601 0.03232 0.84996 0.0
C430 C 0.63061 0.96065 0.05308 0.0
C431 C 0.63473 0.96347 0.13119 0.0
C432 C 0.64092 0.97799 1.00321 0.0
C433 C 0.65592 0.99859 0.02988 0.0
C434 C 0.66072 1.00107 0.10785 0.0
C435 C 0.65011 0.9838 0.15784 0.0
H436 H 0.67821 0.61256 0.55113 0.0
H437 H 0.67651 0.65211 0.73079 0.0
H438 H 0.66497 0.62896 0.4624 0.0
H439 H 0.66427 0.66956 0.64161 0.0
H440 H 0.61727 0.67684 0.4866 0.0
H441 H 0.63472 0.66464 0.57513 0.0
H442 H 0.66998 0.65748 0.39 0.0
H443 H 0.65143 0.66853 0.30145 0.0
C444 C 0.67567 0.6253 0.57106 0.0
C445 C 0.67861 0.63117 0.64774 0.0
C446 C 0.66802 0.6348 0.52007 0.0
C447 C 0.6634 0.65073 0.54409 0.0
C448 C 0.66712 0.65708 0.6207 0.0
C449 C 0.67437 0.64724 0.67194 0.0
C450 C 0.629 0.67299 0.46507 0.0
C451 C 0.63297 0.67367 0.387 0.0
C452 C 0.63913 0.66599 0.516 0.0
C453 C 0.65382 0.65983 0.49039 0.0
C454 C 0.65842 0.66148 0.41229 0.0
C455 C 0.64794 0.66805 0.3613 0.0
H456 H 0.03029 0.6492 0.22014 0.0
H457 H 0.0756 0.69256 0.05588 0.0
H458 H 1.00152 0.63816 0.12838 0.0
H459 H 0.04668 0.68163 0.964 0.0
H460 H 0.95057 0.63129 0.9633 0.0
H461 H 0.97957 0.64843 0.05538 0.0
H462 H 0.02427 0.64991 0.88932 0.0
H463 H 0.99544 0.63304 0.79737 0.0
C464 C 0.03413 0.65663 0.16475 0.0
C465 C 0.05541 0.67163 0.14537 0.0
C466 C 0.01753 0.65036 0.11209 0.0
C467 C 0.02171 0.65887 0.03838 0.0
C468 C 0.04288 0.67447 0.01982 0.0
C469 C 0.0595 0.68082 0.07271 0.0
C470 C 0.96659 0.63543 0.94614 0.0
C471 C 0.97052 0.63051 0.87293 0.0
C472 C 0.98325 0.64521 0.99914 0.0
C473 C 1.00431 0.65045 0.98017 0.0
C474 C 1.00836 0.64634 0.90595 0.0
C475 C 0.99172 0.6365 0.85317 0.0
H476 H 0.36651 0.02935 0.72034 0.0
H477 H 0.40578 0.07014 0.53906 0.0
H478 H 0.34834 0.99969 0.63159 0.0
H479 H 0.38857 0.04043 0.45085 0.0
H480 H 0.34827 0.98692 0.29216 0.0
H481 H 0.35935 0.01671 0.38 0.0
H482 H 0.35359 0.97503 0.56568 0.0
H483 H 0.34149 0.94522 0.47808 0.0
C484 C 0.37116 0.032 0.66127 0.0
C485 C 0.38748 0.05215 0.63671 0.0
C486 C 0.36089 0.01492 0.6103 0.0
C487 C 0.36699 0.01737 0.53352 0.0
C488 C 0.383 0.0378 0.50885 0.0
C489 C 0.39298 0.05497 0.55963 0.0
C490 C 0.34902 0.9841 0.35202 0.0
C491 C 0.34388 0.96367 0.37812 0.0
C492 C 0.35561 1.00126 0.40253 0.0
C493 C 0.35769 0.99857 0.4805 0.0
C494 C 0.3519 0.97787 0.50661 0.0
C495 C 0.34493 0.96064 0.45618 0.0
H496 H 0.38887 0.36698 0.79852 0.0
H497 H 0.3885 0.32179 0.95993 0.0
H498 H 0.37099 0.37794 0.89003 0.0
H499 H 0.37048 0.33274 0.05164 0.0
H500 H 0.32646 0.38472 0.05387 0.0
H501 H 0.33829 0.36764 0.96117 0.0
H502 H 0.38029 0.36439 0.12832 0.0
H503 H 0.36844 0.38128 0.22074 0.0
C504 C 0.38475 0.35915 0.8532 0.0
C505 C 0.39047 0.34367 0.87196 0.0
C506 C 0.37435 0.36538 0.9057 0.0
C507 C 0.36939 0.35637 0.97861 0.0
C508 C 0.37436 0.34029 0.99646 0.0
C509 C 0.38468 0.33396 0.9437 0.0
C510 C 0.33807 0.3802 0.07108 0.0
C511 C 0.34666 0.38465 0.14472 0.0
C512 C 0.34493 0.37046 0.01777 0.0
C513 C 0.36039 0.36475 0.03694 0.0
C514 C 0.36823 0.36836 0.11155 0.0
C515 C 0.36149 0.37819 0.16459 0.0
H516 H 0.07173 0.58363 0.22213 0.0
H517 H 0.13903 0.61593 0.28058 0.0
H518 H 0.07093 0.54945 0.22454 0.0
H519 H 0.1375 0.58211 0.29232 0.0
H520 H 0.13879 0.52332 0.23741 0.0
H521 H 0.13737 0.55567 0.22514 0.0
H522 H 0.07092 0.52213 0.29439 0.0
H523 H 0.07158 0.48869 0.29731 0.0
C524 C 0.08632 0.58357 0.23606 0.0
C525 C 0.1054 0.60286 0.25153 0.0
C526 C 0.08576 0.56381 0.23875 0.0
C527 C 0.10418 0.56274 0.25822 0.0
C528 C 0.12305 0.58201 0.27508 0.0
C529 C 0.12377 0.60166 0.27029 0.0
C530 C 0.12357 0.52242 0.2479 0.0
C531 C 0.1052 0.50294 0.26732 0.0
C532 C 0.12292 0.54138 0.2428 0.0
C533 C 0.10412 0.54191 0.25998 0.0
C534 C 0.0857 0.52251 0.27995 0.0
C535 C 0.08618 0.50327 0.28295 0.0
H536 H 0.52746 0.12824 0.69889 0.0
H537 H 0.49005 0.06305 0.77778 0.0
H538 H 0.55975 0.12529 0.70173 0.0
H539 H 0.52263 0.06014 0.78148 0.0
H540 H 0.59346 0.08107 0.86984 0.0
H541 H 0.55857 0.07882 0.85931 0.0
H542 H 0.57389 0.10355 0.63169 0.0
H543 H 0.60837 0.10508 0.64061 0.0
C544 C 0.52618 0.11327 0.71693 0.0
C545 C 0.50629 0.0959 0.73844 0.0
C546 C 0.54463 0.11153 0.71804 0.0
C547 C 0.54369 0.09247 0.74169 0.0
C548 C 0.5238 0.07504 0.76325 0.0
C549 C 0.50519 0.07666 0.76079 0.0
C550 C 0.58923 0.08552 0.81681 0.0
C551 C 0.60395 0.09352 0.75641 0.0
C552 C 0.56924 0.08429 0.81097 0.0
C553 C 0.56364 0.09123 0.745 0.0
C554 C 0.57794 0.0984 0.68366 0.0
C555 C 0.59775 0.09937 0.68905 0.0
H556 H 0.49327 0.61681 0.24769 0.0
H557 H 0.5283 0.58427 0.3024 0.0
H558 H 0.46113 0.58311 0.2331 0.0
H559 H 0.49498 0.55011 0.2979 0.0
H560 H 0.43381 0.48958 0.22335 0.0
H561 H 0.46784 0.52299 0.22829 0.0
H562 H 0.43454 0.5563 0.29621 0.0
H563 H 0.40092 0.52407 0.28116 0.0
C564 C 0.49431 0.60252 0.2566 0.0
C565 C 0.51387 0.60365 0.27498 0.0
C566 C 0.47543 0.5829 0.25029 0.0
C567 C 0.47502 0.56353 0.26553 0.0
C568 C 0.49449 0.56453 0.28484 0.0
C569 C 0.51367 0.58428 0.28881 0.0
C570 C 0.43369 0.50411 0.23766 0.0
C571 C 0.41425 0.50373 0.25207 0.0
C572 C 0.45338 0.52334 0.24193 0.0
C573 C 0.45425 0.54269 0.26221 0.0
C574 C 0.43483 0.5421 0.27823 0.0
C575 C 0.41526 0.52316 0.2716 0.0
H576 H 0.95318 0.52648 0.79598 0.0
H577 H 0.88598 0.49186 0.73591 0.0
H578 H 0.95379 0.493 0.79351 0.0
H579 H 0.88734 0.45947 0.72413 0.0
H580 H 0.88561 0.39923 0.78055 0.0
H581 H 0.88718 0.43309 0.79185 0.0
H582 H 0.95373 0.46561 0.72381 0.0
H583 H 0.95288 0.43139 0.72179 0.0
C584 C 0.93857 0.51189 0.78167 0.0
C585 C 0.91957 0.51223 0.76586 0.0
C586 C 0.93902 0.49264 0.77894 0.0
C587 C 0.92058 0.47323 0.75906 0.0
C588 C 0.9018 0.47377 0.74171 0.0
C589 C 0.90118 0.49275 0.74654 0.0
C590 C 0.90087 0.41348 0.7701 0.0
C591 C 0.91921 0.41224 0.75138 0.0
C592 C 0.90162 0.43315 0.77464 0.0
C593 C 0.9205 0.45238 0.75758 0.0
C594 C 0.93889 0.45127 0.73817 0.0
C595 C 0.9383 0.4315 0.73571 0.0
H596 H 0.52452 0.93508 0.35889 0.0
H597 H 0.51049 0.91796 0.12377 0.0
H598 H 0.49278 0.93886 0.36912 0.0
H599 H 0.47791 0.92009 0.13419 0.0
H600 H 0.42529 0.9355 0.15472 0.0
H601 H 0.46091 0.93954 0.14503 0.0
H602 H 0.45628 0.91925 0.37832 0.0
H603 H 0.42143 0.91684 0.38836 0.0
C604 C 0.51457 0.9322 0.30937 0.0
C605 C 0.51991 0.92639 0.24048 0.0
C606 C 0.49621 0.93409 0.31521 0.0
C607 C 0.48241 0.9296 0.25273 0.0
C608 C 0.48816 0.92413 0.18337 0.0
C609 C 0.5068 0.92276 0.17722 0.0
C610 C 0.4322 0.93231 0.20403 0.0
C611 C 0.42079 0.92599 0.27233 0.0
C612 C 0.45252 0.93436 0.19848 0.0
C613 C 0.46166 0.92953 0.2606 0.0
C614 C 0.45019 0.92356 0.32944 0.0
C615 C 0.43011 0.92203 0.33536 0.0
H616 H 0.49522 0.43148 0.80244 0.0
H617 H 0.52974 0.39929 0.73581 0.0
H618 H 0.52867 0.46554 0.80146 0.0
H619 H 0.56205 0.43306 0.72506 0.0
H620 H 0.62251 0.49119 0.78012 0.0
H621 H 0.58875 0.45891 0.79172 0.0
H622 H 0.55586 0.49339 0.73435 0.0
H623 H 0.59001 0.52671 0.73278 0.0
C624 C 0.50977 0.43153 0.78698 0.0
C625 C 0.50939 0.41229 0.76888 0.0
C626 C 0.52902 0.45125 0.78508 0.0
C627 C 0.54839 0.45235 0.76364 0.0
C628 C 0.54781 0.43314 0.74399 0.0
C629 C 0.52884 0.41351 0.74814 0.0
C630 C 0.60823 0.49232 0.77223 0.0
C631 C 0.60938 0.51203 0.75655 0.0
C632 C 0.58858 0.47338 0.77683 0.0
C633 C 0.56924 0.47313 0.76265 0.0
C634 C 0.57026 0.49277 0.74641 0.0
C635 C 0.59002 0.51196 0.74412 0.0
H636 H 0.11747 0.40131 0.58218 0.0
H637 H 0.14354 0.46879 0.62655 0.0
H638 H 0.11028 0.39371 0.71666 0.0
H639 H 0.13632 0.4612 0.76095 0.0
H640 H 0.1409 0.44202 1.00372 0.0
H641 H 0.14809 0.44944 0.86943 0.0
H642 H 0.08715 0.39369 0.81657 0.0
H643 H 0.07998 0.38623 0.95151 0.0
C644 C 0.12156 0.41453 0.62043 0.0
C645 C 0.13112 0.43568 0.59324 0.0
C646 C 0.1174 0.41016 0.69766 0.0
C647 C 0.12268 0.42683 0.74976 0.0
C648 C 0.13233 0.44799 0.72264 0.0
C649 C 0.13651 0.45236 0.64543 0.0
C650 C 0.12888 0.43147 0.96369 0.0
C651 C 0.10976 0.41358 0.98861 0.0
C652 C 0.13304 0.43572 0.88647 0.0
C653 C 0.1182 0.42221 0.83203 0.0
C654 C 0.09908 0.40428 0.85688 0.0
C655 C 0.09493 0.40001 0.93424 0.0
H656 H 0.70278 0.08011 0.45428 0.0
H657 H 0.69757 0.13588 0.50603 0.0
H658 H 0.70113 0.08635 0.31937 0.0
H659 H 0.69617 0.14231 0.3715 0.0
H660 H 0.67316 0.13531 0.12674 0.0
H661 H 0.67392 0.12849 0.26137 0.0
H662 H 0.72214 0.11074 0.22051 0.0
H663 H 0.72118 0.11737 0.08578 0.0
C664 C 0.70138 0.09375 0.43681 0.0
C665 C 0.70025 0.10744 0.49097 0.0
C666 C 0.7005 0.09738 0.35948 0.0
C667 C 0.69857 0.11488 0.33437 0.0
C668 C 0.6973 0.12848 0.38867 0.0
C669 C 0.69808 0.12478 0.46598 0.0
C670 C 0.68408 0.13016 0.14654 0.0
C671 C 0.69712 0.12691 0.09534 0.0
C672 C 0.68451 0.12623 0.22384 0.0
C673 C 0.69807 0.11902 0.25198 0.0
C674 C 0.71121 0.1159 0.20076 0.0
C675 C 0.71071 0.11975 0.12342 0.0
H676 H 0.61406 0.71886 0.59303 0.0
H677 H 0.54712 0.67474 0.63705 0.0
H678 H 0.62182 0.71958 0.72755 0.0
H679 H 0.55487 0.6754 0.77137 0.0
H680 H 0.57295 0.69904 0.01459 0.0
H681 H 0.56543 0.69861 0.88029 0.0
H682 H 0.62327 0.69727 0.82728 0.0
H683 H 0.63084 0.6978 0.96224 0.0
C684 C 0.601 0.70921 0.63121 0.0
C685 C 0.57994 0.69676 0.60392 0.0
C686 C 0.60546 0.70959 0.70846 0.0
C687 C 0.58899 0.69753 0.76046 0.0
C688 C 0.56792 0.68516 0.7332 0.0
C689 C 0.56345 0.6848 0.656 0.0
C690 C 0.58394 0.69838 0.9745 0.0
C691 C 0.60245 0.6983 0.99939 0.0
C692 C 0.57964 0.69817 0.89727 0.0
C693 C 0.5937 0.69785 0.84277 0.0
C694 C 0.61224 0.69782 0.86761 0.0
C695 C 0.61657 0.69807 0.94498 0.0
H696 H 0.88393 0.57314 0.50141 0.0
H697 H 0.94485 0.62891 0.44913 0.0
H698 H 0.87668 0.56574 0.36713 0.0
H699 H 0.93762 0.62146 0.31419 0.0
H700 H 0.90726 0.61388 0.07992 0.0
H701 H 0.91449 0.62147 0.21441 0.0
H702 H 0.88838 0.55397 0.25845 0.0
H703 H 0.88112 0.54639 0.12406 0.0
C704 C 0.89594 0.58369 0.46137 0.0
C705 C 0.91507 0.60157 0.48627 0.0
C706 C 0.89175 0.57945 0.38415 0.0
C707 C 0.90657 0.59296 0.32968 0.0
C708 C 0.9257 0.61088 0.35452 0.0
C709 C 0.92988 0.61514 0.43187 0.0
C710 C 0.90316 0.60066 0.11812 0.0
C711 C 0.89358 0.5795 0.09085 0.0
C712 C 0.90735 0.60502 0.19536 0.0
C713 C 0.90206 0.58834 0.2474 0.0
C714 C 0.89237 0.56718 0.2202 0.0
C715 C 0.88817 0.56282 0.14298 0.0
H716 H 0.3425 0.87256 0.63404 0.0
H717 H 0.30772 0.90571 0.58518 0.0
H718 H 0.34072 0.87867 0.76819 0.0
H719 H 0.30716 0.91289 0.71855 0.0
H720 H 0.2902 0.90361 0.96843 0.0
H721 H 0.2912 0.89637 0.83444 0.0
H722 H 0.35501 0.90595 0.86205 0.0
H723 H 0.35366 0.91266 0.99685 0.0
C724 C 0.33446 0.88113 0.65132 0.0
C725 C 0.32528 0.88859 0.59757 0.0
C726 C 0.3337 0.8849 0.72867 0.0
C727 C 0.32387 0.89636 0.7546 0.0
C728 C 0.31464 0.90376 0.70105 0.0
C729 C 0.31523 0.89985 0.62385 0.0
C730 C 0.30451 0.90437 0.94574 0.0
C731 C 0.32189 0.9088 0.9932 0.0
C732 C 0.30511 0.90022 0.86876 0.0
C733 C 0.32321 0.9006 0.83697 0.0
C734 C 0.34065 0.90515 0.88456 0.0
C735 C 0.33995 0.90909 0.96179 0.0
H736 H 0.39094 0.28831 0.46177 0.0
H737 H 0.44996 0.34813 0.49099 0.0
H738 H 0.39882 0.28829 0.32786 0.0
H739 H 0.45773 0.3485 0.35633 0.0
H740 H 0.47544 0.33238 0.12806 0.0
H741 H 0.46783 0.33152 0.26243 0.0
H742 H 0.40065 0.30547 0.21218 0.0
H743 H 0.40796 0.30504 0.07885 0.0
C744 C 0.40546 0.30163 0.43928 0.0
C745 C 0.41979 0.31826 0.48695 0.0
C746 C 0.41001 0.30166 0.36235 0.0
C747 C 0.42892 0.31842 0.33085 0.0
C748 C 0.4432 0.33513 0.37864 0.0
C749 C 0.43872 0.33499 0.45579 0.0
C750 C 0.45899 0.32618 0.14542 0.0
C751 C 0.44239 0.31882 0.09162 0.0
C752 C 0.45466 0.32596 0.22278 0.0
C753 C 0.43362 0.3185 0.24853 0.0
C754 C 0.41703 0.31109 0.19484 0.0
C755 C 0.42132 0.31113 0.1177 0.0
H756 H 0.56886 0.8792 0.49747 0.0
H757 H 0.63117 0.93337 0.54719 0.0
H758 H 0.56104 0.87356 0.63206 0.0
H759 H 0.62331 0.92777 0.68238 0.0
H760 H 0.60988 0.89693 0.91824 0.0
H761 H 0.61807 0.90269 0.78354 0.0
H762 H 0.55381 0.88996 0.73897 0.0
H763 H 0.54563 0.88417 0.87342 0.0
C764 C 0.58081 0.89009 0.53703 0.0
C765 C 0.60062 0.90684 0.5114 0.0
C766 C 0.57632 0.88683 0.61436 0.0
C767 C 0.59151 0.90024 0.6681 0.0
C768 C 0.61136 0.91696 0.64255 0.0
C769 C 0.61586 0.9202 0.56509 0.0
C770 C 0.59754 0.89549 0.87982 0.0
C771 C 0.57707 0.89003 0.90682 0.0
C772 C 0.60225 0.89882 0.80254 0.0
C773 C 0.5866 0.89678 0.75039 0.0
C774 C 0.56613 0.89131 0.7774 0.0
C775 C 0.56143 0.88796 0.8546 0.0
H776 H 0.6867 0.59801 0.44134 0.0
H777 H 0.71553 0.55918 0.39583 0.0
H778 H 0.68695 0.60532 0.30693 0.0
H779 H 0.71636 0.56687 0.26087 0.0
H780 H 0.69577 0.56753 0.01904 0.0
H781 H 0.69426 0.5597 0.15287 0.0
H782 H 0.71 0.62452 0.20544 0.0
H783 H 0.71017 0.63201 0.07133 0.0
C784 C 0.69337 0.59127 0.40259 0.0
C785 C 0.7012 0.57811 0.42925 0.0
C786 C 0.69355 0.59548 0.32536 0.0
C787 C 0.70176 0.58678 0.2727 0.0
C788 C 0.7096 0.57359 0.29949 0.0
C789 C 0.70921 0.56921 0.37684 0.0
C790 C 0.69855 0.58008 0.05869 0.0
C791 C 0.70301 0.60045 0.03357 0.0
C792 C 0.69802 0.57564 0.13592 0.0
C793 C 0.70211 0.59147 0.19033 0.0
C794 C 0.70652 0.61182 0.16535 0.0
C795 C 0.70688 0.61621 0.08811 0.0
H796 H 0.14167 0.69929 0.51682 0.0
H797 H 0.08114 0.69505 0.56919 0.0
H798 H 0.14887 0.69904 0.65109 0.0
H799 H 0.08832 0.69473 0.70412 0.0
H800 H 0.11878 0.71721 0.93841 0.0
H801 H 0.11159 0.71766 0.80393 0.0
H802 H 0.13696 0.67562 0.75974 0.0
H803 H 0.14419 0.67522 0.89412 0.0
C804 C 0.12974 0.698 0.55689 0.0
C805 C 0.11073 0.69704 0.53201 0.0
C806 C 0.1339 0.6979 0.6341 0.0
C807 C 0.11917 0.69681 0.68859 0.0
C808 C 0.10016 0.69588 0.66378 0.0
C809 C 0.09601 0.69603 0.58643 0.0
C810 C 0.12272 0.70796 0.90018 0.0
C811 C 0.13209 0.69618 0.92739 0.0
C812 C 0.11856 0.70819 0.82294 0.0
C813 C 0.12365 0.69665 0.77087 0.0
C814 C 0.13313 0.68497 0.79802 0.0
C815 C 0.13731 0.68475 0.87523 0.0
H816 H 0.39294 0.07903 0.05907 0.0
H817 H 0.45348 0.13527 1.00709 0.0
H818 H 0.40077 0.08545 0.19395 0.0
H819 H 0.46124 0.14191 0.14166 0.0
H820 H 0.47727 0.13581 0.38733 0.0
H821 H 0.46993 0.12872 0.25267 0.0
H822 H 0.40358 0.10971 0.29209 0.0
H823 H 0.41093 0.11658 0.42685 0.0
C824 C 0.40789 0.09281 0.07651 0.0
C825 C 0.42258 0.10659 0.0223 0.0
C826 C 0.41237 0.09655 0.15382 0.0
C827 C 0.43162 0.11426 0.17889 0.0
C828 C 0.44641 0.12793 0.12454 0.0
C829 C 0.44197 0.12411 0.04722 0.0
C830 C 0.46117 0.13032 0.36719 0.0
C831 C 0.4447 0.12678 0.418 0.0
C832 C 0.45694 0.12624 0.28987 0.0
C833 C 0.43614 0.11859 0.26131 0.0
C834 C 0.4197 0.1152 0.31214 0.0
C835 C 0.42392 0.11919 0.3895 0.0
H836 H 0.35282 0.43761 0.93138 0.0
H837 H 0.29258 0.43585 0.90027 0.0
H838 H 0.35381 0.43081 0.79561 0.0
H839 H 0.29344 0.42882 0.76526 0.0
H840 H 0.29105 0.38836 0.55571 0.0
H841 H 0.29166 0.39658 0.69031 0.0
H842 H 0.35557 0.4505 0.66549 0.0
H843 H 0.35481 0.44241 0.5299 0.0
C844 C 0.33984 0.4358 0.89551 0.0
C845 C 0.32266 0.43733 0.92644 0.0
C846 C 0.34046 0.43203 0.8179 0.0
C847 C 0.32368 0.42925 0.76998 0.0
C848 C 0.30654 0.43081 0.80091 0.0
C849 C 0.30613 0.43499 0.87806 0.0
C850 C 0.30529 0.40187 0.57906 0.0
C851 C 0.32293 0.41471 0.53239 0.0
C852 C 0.30557 0.40667 0.65594 0.0
C853 C 0.32366 0.42418 0.68832 0.0
C854 C 0.34146 0.43685 0.64204 0.0
C855 C 0.341 0.43231 0.5646 0.0
H856 H 0.88021 0.33976 0.39492 0.0
H857 H 0.90571 0.29783 0.43889 0.0
H858 H 0.88744 0.33939 0.26052 0.0
H859 H 0.9129 0.29742 0.3044 0.0
H860 H 0.94335 0.32008 0.06981 0.0
H861 H 0.93616 0.32038 0.20474 0.0
H862 H 0.87558 0.31602 0.15171 0.0
H863 H 0.88281 0.3158 0.01743 0.0
C864 C 0.88712 0.33025 0.37595 0.0
C865 C 0.89236 0.31883 0.42803 0.0
C866 C 0.8913 0.33005 0.29873 0.0
C867 C 0.9008 0.3184 0.27149 0.0
C868 C 0.90591 0.30686 0.32348 0.0
C869 C 0.90175 0.30708 0.40072 0.0
C870 C 0.92848 0.31909 0.08705 0.0
C871 C 0.91376 0.31807 0.03264 0.0
C872 C 0.92432 0.31922 0.1644 0.0
C873 C 0.9053 0.31827 0.18921 0.0
C874 C 0.89057 0.31718 0.13472 0.0
C875 C 0.89474 0.31709 0.0575 0.0
H876 H 0.15474 0.39086 0.36981 0.0
H877 H 0.17333 0.41674 0.14462 0.0
H878 H 0.184 0.38267 0.37128 0.0
H879 H 0.20239 0.40891 0.14605 0.0
H880 H 0.25348 0.39209 0.15267 0.0
H881 H 0.2162 0.38432 0.15005 0.0
H882 H 0.22249 0.40658 0.38078 0.0
H883 H 0.25925 0.41398 0.38333 0.0
C884 C 0.16467 0.39423 0.31995 0.0
C885 C 0.16191 0.40465 0.25749 0.0
C886 C 0.18153 0.3897 0.32086 0.0
C887 C 0.19575 0.39531 0.25899 0.0
C888 C 0.19176 0.40415 0.19444 0.0
C889 C 0.17515 0.40883 0.19388 0.0
C890 C 0.2466 0.39463 0.20341 0.0
C891 C 0.25933 0.40384 0.26789 0.0
C892 C 0.22531 0.39036 0.20185 0.0
C893 C 0.21633 0.39505 0.26499 0.0
C894 C 0.22866 0.40258 0.33131 0.0
C895 C 0.24987 0.407 0.33257 0.0
H896 H 0.85135 0.25812 0.88107 0.0
H897 H 0.86597 0.2507 0.65013 0.0
H898 H 0.82125 0.22171 0.88095 0.0
H899 H 0.83563 0.21381 0.64981 0.0
H900 H 0.76009 0.17298 0.64971 0.0
H901 H 0.79719 0.20158 0.64899 0.0
H902 H 0.80596 0.18275 0.87222 0.0
H903 H 0.76834 0.15386 0.87286 0.0
C904 C 0.84845 0.24842 0.83079 0.0
C905 C 0.86088 0.25731 0.76534 0.0
C906 C 0.83124 0.22744 0.83091 0.0
C907 C 0.82582 0.21481 0.76518 0.0
C908 C 0.83924 0.22319 0.70121 0.0
C909 C 0.85672 0.24423 0.70144 0.0
C910 C 0.77002 0.17463 0.69817 0.0
C911 C 0.76121 0.16134 0.76179 0.0
C912 C 0.79142 0.19096 0.69741 0.0
C913 C 0.80463 0.19462 0.76067 0.0
C914 C 0.79618 0.18047 0.82275 0.0
C915 C 0.77469 0.16386 0.82308 0.0
H916 H 0.62926 0.86909 0.27236 0.0
H917 H 0.57307 0.8267 0.14296 0.0
H918 H 0.63796 0.84015 0.28554 0.0
H919 H 0.58177 0.79829 0.15453 0.0
H920 H 0.60519 0.75368 0.13787 0.0
H921 H 0.60969 0.78905 0.11512 0.0
H922 H 0.61848 0.80249 0.35463 0.0
H923 H 0.61426 0.76685 0.37718 0.0
C924 C 0.61918 0.85382 0.24495 0.0
C925 C 0.60061 0.85011 0.20603 0.0
C926 C 0.62401 0.83725 0.25309 0.0
C927 C 0.61062 0.81696 0.22075 0.0
C928 C 0.59261 0.81377 0.17921 0.0
C929 C 0.58758 0.83004 0.1726 0.0
C930 C 0.60889 0.7645 0.18538 0.0
C931 C 0.60934 0.75757 0.25924 0.0
C932 C 0.61135 0.78471 0.17241 0.0
C933 C 0.61405 0.79842 0.23316 0.0
C934 C 0.61651 0.79231 0.30662 0.0
C935 C 0.61417 0.77196 0.31961 0.0
H936 H 0.8692 0.62331 0.86818 0.0
H937 H 0.85223 0.59919 0.64023 0.0
H938 H 0.83957 0.63096 0.86944 0.0
H939 H 0.82282 0.60653 0.64138 0.0
H940 H 0.77091 0.62249 0.64939 0.0
H941 H 0.80838 0.63075 0.64791 0.0
H942 H 0.80109 0.60605 0.87537 0.0
H943 H 0.76415 0.5981 0.87675 0.0
C944 C 0.85957 0.62026 0.81768 0.0
C945 C 0.86287 0.61045 0.75445 0.0
C946 C 0.8425 0.62446 0.81847 0.0
C947 C 0.82861 0.61916 0.75571 0.0
C948 C 0.83317 0.61102 0.69047 0.0
C949 C 0.84999 0.60664 0.69004 0.0
C950 C 0.77759 0.61947 0.69967 0.0
C951 C 0.76455 0.60943 0.7628 0.0
C952 C 0.79899 0.62404 0.69878 0.0
C953 C 0.80777 0.61889 0.76134 0.0
C954 C 0.79508 0.61045 0.82644 0.0
C955 C 0.77376 0.60569 0.82697 0.0
H956 H 0.25546 0.86178 0.37116 0.0
H957 H 0.2643 0.84252 0.14898 0.0
H958 H 0.21798 0.83262 0.37028 0.0
H959 H 0.22732 0.81362 0.14805 0.0
H960 H 0.1585 0.76422 0.14864 0.0
H961 H 0.18877 0.80116 0.14801 0.0
H962 H 0.203 0.79368 0.37975 0.0
H963 H 0.17299 0.75721 0.38015 0.0
C964 C 0.24928 0.85167 0.32153 0.0
C965 C 0.26289 0.85426 0.2606 0.0
C966 C 0.22786 0.83491 0.32107 0.0
C967 C 0.21961 0.82065 0.2592 0.0
C968 C 0.23294 0.82433 0.19629 0.0
C969 C 0.25427 0.84082 0.19718 0.0
C970 C 0.16771 0.77079 0.2 0.0
C971 C 0.16353 0.75781 0.26418 0.0
C972 C 0.18515 0.79186 0.19958 0.0
C973 C 0.1985 0.80037 0.26367 0.0
C974 C 0.19306 0.78784 0.32962 0.0
C975 C 0.1759 0.76683 0.32967 0.0
H976 H 0.40063 0.25077 0.86806 0.0
H977 H 0.42258 0.25822 0.63702 0.0
H978 H 0.39375 0.21376 0.86771 0.0
H979 H 0.41594 0.22168 0.63649 0.0
H980 H 0.40045 0.15369 0.643 0.0
H981 H 0.39203 0.1828 0.6445 0.0
H982 H 0.41956 0.20106 0.86807 0.0
H983 H 0.42773 0.17221 0.86651 0.0
C984 C 0.40334 0.24429 0.8166 0.0
C985 C 0.41233 0.25741 0.75286 0.0
C986 C 0.39958 0.22317 0.81644 0.0
C987 C 0.40449 0.21476 0.75224 0.0
C988 C 0.41178 0.22744 0.6867 0.0
C989 C 0.41575 0.2485 0.68719 0.0
C990 C 0.40414 0.16361 0.69306 0.0
C991 C 0.41498 0.16085 0.75419 0.0
C992 C 0.39945 0.18035 0.69387 0.0
C993 C 0.40524 0.19442 0.75628 0.0
C994 C 0.41464 0.19051 0.8194 0.0
C995 C 0.41953 0.17405 0.81817 0.0
loop_
_geom_bond_atom_site_label_1
_geom_bond_atom_site_label_2
_geom_bond_distance
_geom_bond_site_symmetry_2
_ccdc_geom_bond_type
C0 C1 1.351 . S
C0 N3 1.368 . S
C0 H5 0.931 . S
C1 C0 1.351 . S
C1 N2 1.373 . S
C1 H29 0.930 . S
N2 C1 1.373 . S
N2 C4 1.340 . S
N3 C0 1.368 . S
N3 C4 1.321 . S
N3 Co6 2.135 . S
C4 N2 1.340 . S
C4 N3 1.321 . S
C4 H28 0.930 . S
H5 C0 0.931 . S
Co6 N3 2.135 . S
Co6 N9 2.121 . S
Co6 O14 2.055 . S
Co6 O17 2.039 . S
Co6 N20 2.140 . S
C7 O8 1.227 . S
C7 O17 1.265 . S
O8 C7 1.227 . S
N9 Co6 2.121 . S
N9 C11 1.375 . S
N9 C12 1.313 . S
C10 C11 1.338 . S
C10 N13 1.377 . S
C10 H30 0.930 . S
C11 N9 1.375 . S
C11 C10 1.338 . S
C11 H15 0.931 . S
C12 N9 1.313 . S
C12 N13 1.344 . S
C12 H16 0.930 . S
N13 C10 1.377 . S
N13 C12 1.344 . S
O14 Co6 2.055 . S
O14 C18 1.253 . S
H15 C11 0.931 . S
H16 C12 0.930 . S
O17 Co6 2.039 . S
O17 C7 1.265 . S
C18 O14 1.253 . S
C18 O19 1.227 . S
O19 C18 1.227 . S
N20 Co6 2.140 . S
N20 C23 1.346 . S
N20 C24 1.345 . S
C21 C22 1.387 . S
C21 C25 1.391 . S
C22 C21 1.387 . S
C22 C23 1.369 . S
C22 H31 0.929 . S
C23 N20 1.346 . S
C23 C22 1.369 . S
C23 H26 0.928 . S
C24 N20 1.345 . S
C24 C25 1.371 . S
C24 H27 0.931 . S
C25 C21 1.391 . S
C25 C24 1.371 . S
C25 H32 0.930 . S
H26 C23 0.928 . S
H27 C24 0.931 . S
H28 C4 0.930 . S
H29 C1 0.930 . S
H30 C10 0.930 . S
H31 C22 0.929 . S
H32 C25 0.930 . S
C33 C34 1.351 1_556 S
C33 N36 1.368 . S
C33 H38 0.931 . S
C34 C33 1.351 1_554 S
C34 N35 1.373 . S
C34 H62 0.930 . S
N35 C34 1.373 . S
N35 C37 1.340 . S
N36 C33 1.368 . S
N36 C37 1.321 1_556 S
N36 Co39 2.135 . S
C37 N35 1.340 . S
C37 N36 1.321 1_554 S
C37 H61 0.930 . S
H38 C33 0.931 . S
Co39 N36 2.135 . S
Co39 N42 2.121 . S
Co39 O47 2.055 . S
Co39 O50 2.039 . S
Co39 N53 2.140 . S
C40 O41 1.227 . S
C40 O50 1.265 . S
O41 C40 1.227 . S
N42 Co39 2.121 . S
N42 C44 1.375 . S
N42 C45 1.313 . S
C43 C44 1.338 . S
C43 N46 1.377 . S
C43 H63 0.930 . S
C44 N42 1.375 . S
C44 C43 1.338 . S
C44 H48 0.931 . S
C45 N42 1.313 . S
C45 N46 1.344 . S
C45 H49 0.930 . S
N46 C43 1.377 . S
N46 C45 1.344 . S
O47 Co39 2.055 . S
O47 C51 1.253 . S
H48 C44 0.931 . S
H49 C45 0.930 . S
O50 Co39 2.039 . S
O50 C40 1.265 . S
C51 O47 1.253 . S
C51 O52 1.227 . S
O52 C51 1.227 . S
N53 Co39 2.140 . S
N53 C56 1.346 . S
N53 C57 1.345 . S
C54 C55 1.387 . S
C54 C58 1.391 . S
C55 C54 1.387 . S
C55 C56 1.369 . S
C55 H64 0.929 . S
C56 N53 1.346 . S
C56 C55 1.369 . S
C56 H59 0.928 . S
C57 N53 1.345 . S
C57 C58 1.371 . S
C57 H60 0.931 . S
C58 C54 1.391 . S
C58 C57 1.371 . S
C58 H65 0.930 . S
H59 C56 0.928 . S
H60 C57 0.931 . S
H61 C37 0.930 . S
H62 C34 0.930 . S
H63 C43 0.930 . S
H64 C55 0.929 . S
H65 C58 0.930 . S
C66 C67 1.351 . S
C66 N69 1.368 . S
C66 H71 0.931 . S
C67 C66 1.351 . S
C67 N68 1.373 . S
C67 H95 0.930 . S
N68 C67 1.373 . S
N68 C70 1.340 . S
N69 C66 1.368 . S
N69 C70 1.321 . S
N69 Co72 2.135 . S
C70 N68 1.340 . S
C70 N69 1.321 . S
C70 H94 0.930 . S
H71 C66 0.931 . S
Co72 N69 2.135 . S
Co72 N75 2.121 . S
Co72 O80 2.055 . S
Co72 O83 2.039 . S
Co72 N86 2.140 . S
C73 O74 1.227 . S
C73 O83 1.265 . S
O74 C73 1.227 . S
N75 Co72 2.121 . S
N75 C77 1.375 . S
N75 C78 1.313 . S
C76 C77 1.338 . S
C76 N79 1.377 . S
C76 H96 0.930 . S
C77 N75 1.375 . S
C77 C76 1.338 . S
C77 H81 0.931 . S
C78 N75 1.313 . S
C78 N79 1.344 . S
C78 H82 0.930 . S
N79 C76 1.377 . S
N79 C78 1.344 . S
O80 Co72 2.055 . S
O80 C84 1.253 . S
H81 C77 0.931 . S
H82 C78 0.930 . S
O83 Co72 2.039 . S
O83 C73 1.265 . S
C84 O80 1.253 . S
C84 O85 1.227 . S
O85 C84 1.227 . S
N86 Co72 2.140 . S
N86 C89 1.346 . S
N86 C90 1.345 . S
C87 C88 1.387 . S
C87 C91 1.391 . S
C88 C87 1.387 . S
C88 C89 1.369 . S
C88 H97 0.929 . S
C89 N86 1.346 . S
C89 C88 1.369 . S
C89 H92 0.928 . S
C90 N86 1.345 . S
C90 C91 1.371 . S
C90 H93 0.931 . S
C91 C87 1.391 . S
C91 C90 1.371 . S
C91 H98 0.930 . S
H92 C89 0.928 . S
H93 C90 0.931 . S
H94 C70 0.930 . S
H95 C67 0.930 . S
H96 C76 0.930 . S
H97 C88 0.929 . S
H98 C91 0.930 . S
C99 C100 1.351 1_556 S
C99 N102 1.368 . S
C99 H104 0.931 . S
C100 C99 1.351 1_554 S
C100 N101 1.373 . S
C100 H128 0.930 . S
N101 C100 1.373 . S
N101 C103 1.340 . S
N102 C99 1.368 . S
N102 C103 1.321 1_556 S
N102 Co105 2.135 . S
C103 N101 1.340 . S
C103 N102 1.321 1_554 S
C103 H127 0.930 . S
H104 C99 0.931 . S
Co105 N102 2.135 . S
Co105 N108 2.121 . S
Co105 O113 2.055 . S
Co105 O116 2.039 . S
Co105 N119 2.140 . S
C106 O107 1.227 . S
C106 O116 1.265 . S
O107 C106 1.227 . S
N108 Co105 2.121 . S
N108 C110 1.375 . S
N108 C111 1.313 . S
C109 C110 1.338 . S
C109 N112 1.377 . S
C109 H129 0.930 . S
C110 N108 1.375 . S
C110 C109 1.338 . S
C110 H114 0.931 . S
C111 N108 1.313 . S
C111 N112 1.344 . S
C111 H115 0.930 . S
N112 C109 1.377 . S
N112 C111 1.344 . S
O113 Co105 2.055 . S
O113 C117 1.253 . S
H114 C110 0.931 . S
H115 C111 0.930 . S
O116 Co105 2.039 . S
O116 C106 1.265 . S
C117 O113 1.253 . S
C117 O118 1.227 . S
O118 C117 1.227 . S
N119 Co105 2.140 . S
N119 C122 1.346 . S
N119 C123 1.345 . S
C120 C121 1.387 . S
C120 C124 1.391 . S
C121 C120 1.387 . S
C121 C122 1.369 . S
C121 H130 0.929 . S
C122 N119 1.346 . S
C122 C121 1.369 . S
C122 H125 0.928 . S
C123 N119 1.345 . S
C123 C124 1.371 . S
C123 H126 0.931 . S
C124 C120 1.391 . S
C124 C123 1.371 . S
C124 H131 0.930 . S
H125 C122 0.928 . S
H126 C123 0.931 . S
H127 C103 0.930 . S
H128 C100 0.930 . S
H129 C109 0.930 . S
H130 C121 0.929 . S
H131 C124 0.930 . S
C132 C133 1.351 . S
C132 N135 1.368 . S
C132 H137 0.931 . S
C133 C132 1.351 . S
C133 N134 1.373 . S
C133 H161 0.930 . S
N134 C133 1.373 . S
N134 C136 1.340 . S
N135 C132 1.368 . S
N135 C136 1.321 . S
N135 Co138 2.135 . S
C136 N134 1.340 . S
C136 N135 1.321 . S
C136 H160 0.930 . S
H137 C132 0.931 . S
Co138 N135 2.135 . S
Co138 N141 2.121 . S
Co138 O146 2.055 . S
Co138 O149 2.039 . S
Co138 N152 2.140 . S
C139 O140 1.227 . S
C139 O149 1.265 . S
O140 C139 1.227 . S
N141 Co138 2.121 . S
N141 C143 1.375 . S
N141 C144 1.313 . S
C142 C143 1.338 . S
C142 N145 1.377 . S
C142 H162 0.930 . S
C143 N141 1.375 . S
C143 C142 1.338 . S
C143 H147 0.931 . S
C144 N141 1.313 . S
C144 N145 1.344 . S
C144 H148 0.930 . S
N145 C142 1.377 . S
N145 C144 1.344 . S
O146 Co138 2.055 . S
O146 C150 1.253 . S
H147 C143 0.931 . S
H148 C144 0.930 . S
O149 Co138 2.039 . S
O149 C139 1.265 . S
C150 O146 1.253 . S
C150 O151 1.227 . S
O151 C150 1.227 . S
N152 Co138 2.140 . S
N152 C155 1.346 . S
N152 C156 1.345 . S
C153 C154 1.387 . S
C153 C157 1.391 . S
C154 C153 1.387 . S
C154 C155 1.369 . S
C154 H163 0.929 . S
C155 N152 1.346 . S
C155 C154 1.369 . S
C155 H158 0.928 . S
C156 N152 1.345 . S
C156 C157 1.371 . S
C156 H159 0.931 . S
C157 C153 1.391 . S
C157 C156 1.371 . S
C157 H164 0.930 . S
H158 C155 0.928 . S
H159 C156 0.931 . S
H160 C136 0.930 . S
H161 C133 0.930 . S
H162 C142 0.930 . S
H163 C154 0.929 . S
H164 C157 0.930 . S
C165 C166 1.351 1_556 S
C165 N168 1.368 . S
C165 H170 0.931 . S
C166 C165 1.351 1_554 S
C166 N167 1.373 . S
C166 H194 0.930 . S
N167 C166 1.373 . S
N167 C169 1.340 . S
N168 C165 1.368 . S
N168 C169 1.321 1_556 S
N168 Co171 2.135 . S
C169 N167 1.340 . S
C169 N168 1.321 1_554 S
C169 H193 0.930 . S
H170 C165 0.931 . S
Co171 N168 2.135 . S
Co171 N174 2.121 . S
Co171 O179 2.055 . S
Co171 O182 2.039 . S
Co171 N185 2.140 . S
C172 O173 1.227 . S
C172 O182 1.265 . S
O173 C172 1.227 . S
N174 Co171 2.121 . S
N174 C176 1.375 . S
N174 C177 1.313 . S
C175 C176 1.338 . S
C175 N178 1.377 . S
C175 H195 0.930 . S
C176 N174 1.375 . S
C176 C175 1.338 . S
C176 H180 0.931 . S
C177 N174 1.313 . S
C177 N178 1.344 . S
C177 H181 0.930 . S
N178 C175 1.377 . S
N178 C177 1.344 . S
O179 Co171 2.055 . S
O179 C183 1.253 . S
H180 C176 0.931 . S
H181 C177 0.930 . S
O182 Co171 2.039 . S
O182 C172 1.265 . S
C183 O179 1.253 . S
C183 O184 1.227 . S
O184 C183 1.227 . S
N185 Co171 2.140 . S
N185 C188 1.346 . S
N185 C189 1.345 . S
C186 C187 1.387 . S
C186 C190 1.391 . S
C187 C186 1.387 . S
C187 C188 1.369 . S
C187 H196 0.929 . S
C188 N185 1.346 . S
C188 C187 1.369 . S
C188 H191 0.928 . S
C189 N185 1.345 . S
C189 C190 1.371 . S
C189 H192 0.931 . S
C190 C186 1.391 . S
C190 C189 1.371 . S
C190 H197 0.930 . S
H191 C188 0.928 . S
H192 C189 0.931 . S
H193 C169 0.930 . S
H194 C166 0.930 . S
H195 C175 0.930 . S
H196 C187 0.929 . S
H197 C190 0.930 . S
C198 C199 1.351 1_554 S
C198 N201 1.368 . S
C198 H203 0.931 . S
C199 C198 1.351 1_556 S
C199 N200 1.373 . S
C199 H227 0.930 . S
N200 C199 1.373 . S
N200 C202 1.340 . S
N201 C198 1.368 . S
N201 C202 1.321 1_554 S
N201 Co204 2.135 . S
C202 N200 1.340 . S
C202 N201 1.321 1_556 S
C202 H226 0.930 . S
H203 C198 0.931 . S
Co204 N201 2.135 . S
Co204 N207 2.121 . S
Co204 O212 2.055 . S
Co204 O215 2.039 . S
Co204 N218 2.140 . S
C205 O206 1.227 . S
C205 O215 1.265 . S
O206 C205 1.227 . S
N207 Co204 2.121 . S
N207 C209 1.375 . S
N207 C210 1.313 . S
C208 C209 1.338 . S
C208 N211 1.377 . S
C208 H228 0.930 . S
C209 N207 1.375 . S
C209 C208 1.338 . S
C209 H213 0.931 . S
C210 N207 1.313 . S
C210 N211 1.344 . S
C210 H214 0.930 . S
N211 C208 1.377 . S
N211 C210 1.344 . S
O212 Co204 2.055 . S
O212 C216 1.253 . S
H213 C209 0.931 . S
H214 C210 0.930 . S
O215 Co204 2.039 . S
O215 C205 1.265 . S
C216 O212 1.253 . S
C216 O217 1.227 . S
O217 C216 1.227 . S
N218 Co204 2.140 . S
N218 C221 1.346 . S
N218 C222 1.345 . S
C219 C220 1.387 . S
C219 C223 1.391 . S
C220 C219 1.387 . S
C220 C221 1.369 . S
C220 H229 0.929 . S
C221 N218 1.346 . S
C221 C220 1.369 . S
C221 H224 0.928 . S
C222 N218 1.345 . S
C222 C223 1.371 . S
C222 H225 0.931 . S
C223 C219 1.391 . S
C223 C222 1.371 . S
C223 H230 0.930 . S
H224 C221 0.928 . S
H225 C222 0.931 . S
H226 C202 0.930 . S
H227 C199 0.930 . S
H228 C208 0.930 . S
H229 C220 0.929 . S
H230 C223 0.930 . S
C231 C232 1.351 . S
C231 N234 1.368 . S
C231 H236 0.931 . S
C232 C231 1.351 . S
C232 N233 1.373 . S
C232 H260 0.930 . S
N233 C232 1.373 . S
N233 C235 1.340 . S
N234 C231 1.368 . S
N234 C235 1.321 . S
N234 Co237 2.135 . S
C235 N233 1.340 . S
C235 N234 1.321 . S
C235 H259 0.930 . S
H236 C231 0.931 . S
Co237 N234 2.135 . S
Co237 N240 2.121 . S
Co237 O245 2.055 . S
Co237 O248 2.039 . S
Co237 N251 2.140 . S
C238 O239 1.227 . S
C238 O248 1.265 . S
O239 C238 1.227 . S
N240 Co237 2.121 . S
N240 C242 1.375 . S
N240 C243 1.313 . S
C241 C242 1.338 . S
C241 N244 1.377 . S
C241 H261 0.930 . S
C242 N240 1.375 . S
C242 C241 1.338 . S
C242 H246 0.931 . S
C243 N240 1.313 . S
C243 N244 1.344 . S
C243 H247 0.930 . S
N244 C241 1.377 . S
N244 C243 1.344 . S
O245 Co237 2.055 . S
O245 C249 1.253 . S
H246 C242 0.931 . S
H247 C243 0.930 . S
O248 Co237 2.039 . S
O248 C238 1.265 . S
C249 O245 1.253 . S
C249 O250 1.227 . S
O250 C249 1.227 . S
N251 Co237 2.140 . S
N251 C254 1.346 . S
N251 C255 1.345 . S
C252 C253 1.387 . S
C252 C256 1.391 . S
C253 C252 1.387 . S
C253 C254 1.369 . S
C253 H262 0.929 . S
C254 N251 1.346 . S
C254 C253 1.369 . S
C254 H257 0.928 . S
C255 N251 1.345 . S
C255 C256 1.371 . S
C255 H258 0.931 . S
C256 C252 1.391 . S
C256 C255 1.371 . S
C256 H263 0.930 . S
H257 C254 0.928 . S
H258 C255 0.931 . S
H259 C235 0.930 . S
H260 C232 0.930 . S
H261 C241 0.930 . S
H262 C253 0.929 . S
H263 C256 0.930 . S
C264 C265 1.351 1_554 S
C264 N267 1.368 . S
C264 H269 0.931 . S
C265 C264 1.351 1_556 S
C265 N266 1.373 . S
C265 H293 0.930 . S
N266 C265 1.373 . S
N266 C268 1.340 . S
N267 C264 1.368 . S
N267 C268 1.321 1_554 S
N267 Co270 2.135 . S
C268 N266 1.340 . S
C268 N267 1.321 1_556 S
C268 H292 0.930 . S
H269 C264 0.931 . S
Co270 N267 2.135 . S
Co270 N273 2.121 . S
Co270 O278 2.055 . S
Co270 O281 2.039 . S
Co270 N284 2.140 . S
C271 O272 1.227 . S
C271 O281 1.265 . S
O272 C271 1.227 . S
N273 Co270 2.121 . S
N273 C275 1.375 . S
N273 C276 1.313 . S
C274 C275 1.338 . S
C274 N277 1.377 . S
C274 H294 0.930 . S
C275 N273 1.375 . S
C275 C274 1.338 . S
C275 H279 0.931 . S
C276 N273 1.313 . S
C276 N277 1.344 . S
C276 H280 0.930 . S
N277 C274 1.377 . S
N277 C276 1.344 . S
O278 Co270 2.055 . S
O278 C282 1.253 . S
H279 C275 0.931 . S
H280 C276 0.930 . S
O281 Co270 2.039 . S
O281 C271 1.265 . S
C282 O278 1.253 . S
C282 O283 1.227 . S
O283 C282 1.227 . S
N284 Co270 2.140 . S
N284 C287 1.346 . S
N284 C288 1.345 . S
C285 C286 1.387 . S
C285 C289 1.391 . S
C286 C285 1.387 . S
C286 C287 1.369 . S
C286 H295 0.929 . S
C287 N284 1.346 . S
C287 C286 1.369 . S
C287 H290 0.928 . S
C288 N284 1.345 . S
C288 C289 1.371 . S
C288 H291 0.931 . S
C289 C285 1.391 . S
C289 C288 1.371 . S
C289 H296 0.930 . S
H290 C287 0.928 . S
H291 C288 0.931 . S
H292 C268 0.930 . S
H293 C265 0.930 . S
H294 C274 0.930 . S
H295 C286 0.929 . S
H296 C289 0.930 . S
C297 C298 1.351 . S
C297 N300 1.368 . S
C297 H302 0.931 . S
C298 C297 1.351 . S
C298 N299 1.373 . S
C298 H326 0.930 . S
N299 C298 1.373 . S
N299 C301 1.340 . S
N300 C297 1.368 . S
N300 C301 1.321 . S
N300 Co303 2.135 . S
C301 N299 1.340 . S
C301 N300 1.321 . S
C301 H325 0.930 . S
H302 C297 0.931 . S
Co303 N300 2.135 . S
Co303 N306 2.121 . S
Co303 O311 2.055 . S
Co303 O314 2.039 . S
Co303 N317 2.140 . S
C304 O305 1.227 . S
C304 O314 1.265 . S
O305 C304 1.227 . S
N306 Co303 2.121 . S
N306 C308 1.375 . S
N306 C309 1.313 . S
C307 C308 1.338 . S
C307 N310 1.377 . S
C307 H327 0.930 . S
C308 N306 1.375 . S
C308 C307 1.338 . S
C308 H312 0.931 . S
C309 N306 1.313 . S
C309 N310 1.344 . S
C309 H313 0.930 . S
N310 C307 1.377 . S
N310 C309 1.344 . S
O311 Co303 2.055 . S
O311 C315 1.253 . S
H312 C308 0.931 . S
H313 C309 0.930 . S
O314 Co303 2.039 . S
O314 C304 1.265 . S
C315 O311 1.253 . S
C315 O316 1.227 . S
O316 C315 1.227 . S
N317 Co303 2.140 . S
N317 C320 1.346 . S
N317 C321 1.345 . S
C318 C319 1.387 . S
C318 C322 1.391 . S
C319 C318 1.387 . S
C319 C320 1.369 . S
C319 H328 0.929 . S
C320 N317 1.346 . S
C320 C319 1.369 . S
C320 H323 0.928 . S
C321 N317 1.345 . S
C321 C322 1.371 . S
C321 H324 0.931 . S
C322 C318 1.391 . S
C322 C321 1.371 . S
C322 H329 0.930 . S
H323 C320 0.928 . S
H324 C321 0.931 . S
H325 C301 0.930 . S
H326 C298 0.930 . S
H327 C307 0.930 . S
H328 C319 0.929 . S
H329 C322 0.930 . S
C330 C331 1.351 1_554 S
C330 N333 1.368 . S
C330 H335 0.931 . S
C331 C330 1.351 1_556 S
C331 N332 1.373 . S
C331 H359 0.930 . S
N332 C331 1.373 . S
N332 C334 1.340 . S
N333 C330 1.368 . S
N333 C334 1.321 1_554 S
N333 Co336 2.135 . S
C334 N332 1.340 . S
C334 N333 1.321 1_556 S
C334 H358 0.930 . S
H335 C330 0.931 . S
Co336 N333 2.135 . S
Co336 N339 2.121 . S
Co336 O344 2.055 . S
Co336 O347 2.039 . S
Co336 N350 2.140 . S
C337 O338 1.227 . S
C337 O347 1.265 . S
O338 C337 1.227 . S
N339 Co336 2.121 . S
N339 C341 1.375 . S
N339 C342 1.313 . S
C340 C341 1.338 . S
C340 N343 1.377 . S
C340 H360 0.930 . S
C341 N339 1.375 . S
C341 C340 1.338 . S
C341 H345 0.931 . S
C342 N339 1.313 . S
C342 N343 1.344 . S
C342 H346 0.930 . S
N343 C340 1.377 . S
N343 C342 1.344 . S
O344 Co336 2.055 . S
O344 C348 1.253 . S
H345 C341 0.931 . S
H346 C342 0.930 . S
O347 Co336 2.039 . S
O347 C337 1.265 . S
C348 O344 1.253 . S
C348 O349 1.227 . S
O349 C348 1.227 . S
N350 Co336 2.140 . S
N350 C353 1.346 . S
N350 C354 1.345 . S
C351 C352 1.387 . S
C351 C355 1.391 . S
C352 C351 1.387 . S
C352 C353 1.369 . S
C352 H361 0.929 . S
C353 N350 1.346 . S
C353 C352 1.369 . S
C353 H356 0.928 . S
C354 N350 1.345 . S
C354 C355 1.371 . S
C354 H357 0.931 . S
C355 C351 1.391 . S
C355 C354 1.371 . S
C355 H362 0.930 . S
H356 C353 0.928 . S
H357 C354 0.931 . S
H358 C334 0.930 . S
H359 C331 0.930 . S
H360 C340 0.930 . S
H361 C352 0.929 . S
H362 C355 0.930 . S
C363 C364 1.351 . S
C363 N366 1.368 . S
C363 H368 0.931 . S
C364 C363 1.351 . S
C364 N365 1.373 . S
C364 H392 0.930 . S
N365 C364 1.373 . S
N365 C367 1.340 . S
N366 C363 1.368 . S
N366 C367 1.321 . S
N366 Co369 2.135 . S
C367 N365 1.340 . S
C367 N366 1.321 . S
C367 H391 0.930 . S
H368 C363 0.931 . S
Co369 N366 2.135 . S
Co369 N372 2.121 . S
Co369 O377 2.055 . S
Co369 O380 2.039 . S
Co369 N383 2.140 . S
C370 O371 1.227 . S
C370 O380 1.265 . S
O371 C370 1.227 . S
N372 Co369 2.121 . S
N372 C374 1.375 . S
N372 C375 1.313 . S
C373 C374 1.338 . S
C373 N376 1.377 . S
C373 H393 0.930 . S
C374 N372 1.375 . S
C374 C373 1.338 . S
C374 H378 0.931 . S
C375 N372 1.313 . S
C375 N376 1.344 . S
C375 H379 0.930 . S
N376 C373 1.377 . S
N376 C375 1.344 . S
O377 Co369 2.055 . S
O377 C381 1.253 . S
H378 C374 0.931 . S
H379 C375 0.930 . S
O380 Co369 2.039 . S
O380 C370 1.265 . S
C381 O377 1.253 . S
C381 O382 1.227 . S
O382 C381 1.227 . S
N383 Co369 2.140 . S
N383 C386 1.346 . S
N383 C387 1.345 . S
C384 C385 1.387 . S
C384 C388 1.391 . S
C385 C384 1.387 . S
C385 C386 1.369 . S
C385 H394 0.929 . S
C386 N383 1.346 . S
C386 C385 1.369 . S
C386 H389 0.928 . S
C387 N383 1.345 . S
C387 C388 1.371 . S
C387 H390 0.931 . S
C388 C384 1.391 . S
C388 C387 1.371 . S
C388 H395 0.930 . S
H389 C386 0.928 . S
H390 C387 0.931 . S
H391 C367 0.930 . S
H392 C364 0.930 . S
H393 C373 0.930 . S
H394 C385 0.929 . S
H395 C388 0.930 . S
H396 C404 0.950 . S
H397 C409 0.950 . S
H398 C406 0.950 . S
H399 C408 0.950 1_655 S
H400 C410 0.950 . S
H401 C412 0.950 . S
H402 C414 0.950 1_455 S
H403 C415 0.950 . S
C404 H396 0.950 . S
C404 C405 1.386 . S
C404 C406 1.391 . S
C405 C404 1.386 . S
C405 C409 1.393 . S
C406 H398 0.950 . S
C406 C404 1.391 . S
C406 C407 1.400 . S
C407 C406 1.400 . S
C407 C408 1.398 . S
C407 C413 1.491 1_455 S
C408 H399 0.950 1_455 S
C408 C407 1.398 . S
C408 C409 1.391 . S
C409 H397 0.950 . S
C409 C405 1.393 . S
C409 C408 1.391 . S
C410 H400 0.950 . S
C410 C411 1.386 . S
C410 C412 1.391 . S
C411 C410 1.386 . S
C411 C415 1.393 . S
C412 H401 0.950 . S
C412 C410 1.391 . S
C412 C413 1.400 . S
C413 C407 1.491 1_655 S
C413 C412 1.400 . S
C413 C414 1.398 . S
C414 H402 0.950 1_655 S
C414 C413 1.398 . S
C414 C415 1.391 . S
C415 H403 0.950 . S
C415 C411 1.393 . S
C415 C414 1.391 . S
H416 C424 0.950 . S
H417 C429 0.950 . S
H418 C426 0.950 1_554 S
H419 C428 0.950 . S
H420 C430 0.950 . S
H421 C432 0.950 1_556 S
H422 C434 0.950 . S
H423 C435 0.950 . S
C424 H416 0.950 . S
C424 C425 1.386 . S
C424 C426 1.391 . S
C425 C424 1.386 . S
C425 C429 1.393 . S
C426 H418 0.950 1_556 S
C426 C424 1.391 . S
C426 C427 1.400 . S
C427 C426 1.400 . S
C427 C428 1.398 . S
C427 C433 1.491 1_546 S
C428 H419 0.950 . S
C428 C427 1.398 . S
C428 C429 1.391 . S
C429 H417 0.950 . S
C429 C425 1.393 . S
C429 C428 1.391 . S
C430 H420 0.950 . S
C430 C431 1.386 . S
C430 C432 1.391 . S
C431 C430 1.386 . S
C431 C435 1.393 . S
C432 H421 0.950 1_554 S
C432 C430 1.391 . S
C432 C433 1.400 . S
C433 C427 1.491 1_564 S
C433 C432 1.400 . S
C433 C434 1.398 . S
C434 H422 0.950 . S
C434 C433 1.398 . S
C434 C435 1.391 . S
C435 H423 0.950 . S
C435 C431 1.393 . S
C435 C434 1.391 . S
H436 C444 0.950 . S
H437 C449 0.950 . S
H438 C446 0.950 . S
H439 C448 0.950 . S
H440 C450 0.950 . S
H441 C452 0.950 . S
H442 C454 0.950 . S
H443 C455 0.950 . S
C444 H436 0.950 . S
C444 C445 1.386 . S
C444 C446 1.391 . S
C445 C444 1.386 . S
C445 C449 1.393 . S
C446 H438 0.950 . S
C446 C444 1.391 . S
C446 C447 1.400 . S
C447 C446 1.400 . S
C447 C448 1.398 . S
C447 C453 1.491 . S
C448 H439 0.950 . S
C448 C447 1.398 . S
C448 C449 1.391 . S
C449 H437 0.950 . S
C449 C445 1.393 . S
C449 C448 1.391 . S
C450 H440 0.950 . S
C450 C451 1.386 . S
C450 C452 1.391 . S
C451 C450 1.386 . S
C451 C455 1.393 . S
C452 H441 0.950 . S
C452 C450 1.391 . S
C452 C453 1.400 . S
C453 C447 1.491 . S
C453 C452 1.400 . S
C453 C454 1.398 . S
C454 H442 0.950 . S
C454 C453 1.398 . S
C454 C455 1.391 . S
C455 H443 0.950 . S
C455 C451 1.393 . S
C455 C454 1.391 . S
H456 C464 0.950 . S
H457 C469 0.950 . S
H458 C466 0.950 . S
H459 C468 0.950 . S
H460 C470 0.950 . S
H461 C472 0.950 . S
H462 C474 0.950 . S
H463 C475 0.950 . S
C464 H456 0.950 . S
C464 C465 1.386 . S
C464 C466 1.391 . S
C465 C464 1.386 . S
C465 C469 1.393 . S
C466 H458 0.950 . S
C466 C464 1.391 . S
C466 C467 1.400 . S
C467 C466 1.400 . S
C467 C468 1.398 . S
C467 C473 1.491 1_454 S
C468 H459 0.950 . S
C468 C467 1.398 . S
C468 C469 1.391 . S
C469 H457 0.950 . S
C469 C465 1.393 . S
C469 C468 1.391 . S
C470 H460 0.950 . S
C470 C471 1.386 . S
C470 C472 1.391 . S
C471 C470 1.386 . S
C471 C475 1.393 . S
C472 H461 0.950 . S
C472 C470 1.391 . S
C472 C473 1.400 . S
C473 C467 1.491 1_656 S
C473 C472 1.400 . S
C473 C474 1.398 . S
C474 H462 0.950 . S
C474 C473 1.398 . S
C474 C475 1.391 . S
C475 H463 0.950 . S
C475 C471 1.393 . S
C475 C474 1.391 . S
H476 C484 0.950 . S
H477 C489 0.950 . S
H478 C486 0.950 . S
H479 C488 0.950 . S
H480 C490 0.950 . S
H481 C492 0.950 . S
H482 C494 0.950 . S
H483 C495 0.950 . S
C484 H476 0.950 . S
C484 C485 1.386 . S
C484 C486 1.391 . S
C485 C484 1.386 . S
C485 C489 1.393 . S
C486 H478 0.950 . S
C486 C484 1.391 . S
C486 C487 1.400 . S
C487 C486 1.400 . S
C487 C488 1.398 . S
C487 C493 1.491 1_545 S
C488 H479 0.950 . S
C488 C487 1.398 . S
C488 C489 1.391 . S
C489 H477 0.950 . S
C489 C485 1.393 . S
C489 C488 1.391 . S
C490 H480 0.950 . S
C490 C491 1.386 . S
C490 C492 1.391 . S
C491 C490 1.386 . S
C491 C495 1.393 . S
C492 H481 0.950 . S
C492 C490 1.391 . S
C492 C493 1.400 . S
C493 C487 1.491 1_565 S
C493 C492 1.400 . S
C493 C494 1.398 . S
C494 H482 0.950 . S
C494 C493 1.398 . S
C494 C495 1.391 . S
C495 H483 0.950 . S
C495 C491 1.393 . S
C495 C494 1.391 . S
H496 C504 0.950 . S
H497 C509 0.950 . S
H498 C506 0.950 . S
H499 C508 0.950 . S
H500 C510 0.950 . S
H501 C512 0.950 . S
H502 C514 0.950 . S
H503 C515 0.950 . S
C504 H496 0.950 . S
C504 C505 1.386 . S
C504 C506 1.391 . S
C505 C504 1.386 . S
C505 C509 1.393 . S
C506 H498 0.950 . S
C506 C504 1.391 . S
C506 C507 1.400 . S
C507 C506 1.400 . S
C507 C508 1.398 . S
C507 C513 1.491 1_556 S
C508 H499 0.950 . S
C508 C507 1.398 . S
C508 C509 1.391 . S
C509 H497 0.950 . S
C509 C505 1.393 . S
C509 C508 1.391 . S
C510 H500 0.950 . S
C510 C511 1.386 . S
C510 C512 1.391 . S
C511 C510 1.386 . S
C511 C515 1.393 . S
C512 H501 0.950 . S
C512 C510 1.391 . S
C512 C513 1.400 . S
C513 C507 1.491 1_554 S
C513 C512 1.400 . S
C513 C514 1.398 . S
C514 H502 0.950 . S
C514 C513 1.398 . S
C514 C515 1.391 . S
C515 H503 0.950 . S
C515 C511 1.393 . S
C515 C514 1.391 . S
H516 C524 0.950 . S
H517 C529 0.950 . S
H518 C526 0.950 . S
H519 C528 0.950 . S
H520 C530 0.950 . S
H521 C532 0.950 . S
H522 C534 0.950 . S
H523 C535 0.950 . S
C524 H516 0.950 . S
C524 C525 1.386 . S
C524 C526 1.391 . S
C525 C524 1.386 . S
C525 C529 1.393 . S
C526 H518 0.950 . S
C526 C524 1.391 . S
C526 C527 1.400 . S
C527 C526 1.400 . S
C527 C528 1.398 . S
C527 C533 1.491 . S
C528 H519 0.950 . S
C528 C527 1.398 . S
C528 C529 1.391 . S
C529 H517 0.950 . S
C529 C525 1.393 . S
C529 C528 1.391 . S
C530 H520 0.950 . S
C530 C531 1.386 . S
C530 C532 1.391 . S
C531 C530 1.386 . S
C531 C535 1.393 . S
C532 H521 0.950 . S
C532 C530 1.391 . S
C532 C533 1.400 . S
C533 C527 1.491 . S
C533 C532 1.400 . S
C533 C534 1.398 . S
C534 H522 0.950 . S
C534 C533 1.398 . S
C534 C535 1.391 . S
C535 H523 0.950 . S
C535 C531 1.393 . S
C535 C534 1.391 . S
H536 C544 0.950 . S
H537 C549 0.950 . S
H538 C546 0.950 . S
H539 C548 0.950 . S
H540 C550 0.950 . S
H541 C552 0.950 . S
H542 C554 0.950 . S
H543 C555 0.950 . S
C544 H536 0.950 . S
C544 C545 1.386 . S
C544 C546 1.391 . S
C545 C544 1.386 . S
C545 C549 1.393 . S
C546 H538 0.950 . S
C546 C544 1.391 . S
C546 C547 1.400 . S
C547 C546 1.400 . S
C547 C548 1.398 . S
C547 C553 1.491 . S
C548 H539 0.950 . S
C548 C547 1.398 . S
C548 C549 1.391 . S
C549 H537 0.950 . S
C549 C545 1.393 . S
C549 C548 1.391 . S
C550 H540 0.950 . S
C550 C551 1.386 . S
C550 C552 1.391 . S
C551 C550 1.386 . S
C551 C555 1.393 . S
C552 H541 0.950 . S
C552 C550 1.391 . S
C552 C553 1.400 . S
C553 C547 1.491 . S
C553 C552 1.400 . S
C553 C554 1.398 . S
C554 H542 0.950 . S
C554 C553 1.398 . S
C554 C555 1.391 . S
C555 H543 0.950 . S
C555 C551 1.393 . S
C555 C554 1.391 . S
H556 C564 0.950 . S
H557 C569 0.950 . S
H558 C566 0.950 . S
H559 C568 0.950 . S
H560 C570 0.950 . S
H561 C572 0.950 . S
H562 C574 0.950 . S
H563 C575 0.950 . S
C564 H556 0.950 . S
C564 C565 1.386 . S
C564 C566 1.391 . S
C565 C564 1.386 . S
C565 C569 1.393 . S
C566 H558 0.950 . S
C566 C564 1.391 . S
C566 C567 1.400 . S
C567 C566 1.400 . S
C567 C568 1.398 . S
C567 C573 1.491 . S
C568 H559 0.950 . S
C568 C567 1.398 . S
C568 C569 1.391 . S
C569 H557 0.950 . S
C569 C565 1.393 . S
C569 C568 1.391 . S
C570 H560 0.950 . S
C570 C571 1.386 . S
C570 C572 1.391 . S
C571 C570 1.386 . S
C571 C575 1.393 . S
C572 H561 0.950 . S
C572 C570 1.391 . S
C572 C573 1.400 . S
C573 C567 1.491 . S
C573 C572 1.400 . S
C573 C574 1.398 . S
C574 H562 0.950 . S
C574 C573 1.398 . S
C574 C575 1.391 . S
C575 H563 0.950 . S
C575 C571 1.393 . S
C575 C574 1.391 . S
H576 C584 0.950 . S
H577 C589 0.950 . S
H578 C586 0.950 . S
H579 C588 0.950 . S
H580 C590 0.950 . S
H581 C592 0.950 . S
H582 C594 0.950 . S
H583 C595 0.950 . S
C584 H576 0.950 . S
C584 C585 1.386 . S
C584 C586 1.391 . S
C585 C584 1.386 . S
C585 C589 1.393 . S
C586 H578 0.950 . S
C586 C584 1.391 . S
C586 C587 1.400 . S
C587 C586 1.400 . S
C587 C588 1.398 . S
C587 C593 1.491 . S
C588 H579 0.950 . S
C588 C587 1.398 . S
C588 C589 1.391 . S
C589 H577 0.950 . S
C589 C585 1.393 . S
C589 C588 1.391 . S
C590 H580 0.950 . S
C590 C591 1.386 . S
C590 C592 1.391 . S
C591 C590 1.386 . S
C591 C595 1.393 . S
C592 H581 0.950 . S
C592 C590 1.391 . S
C592 C593 1.400 . S
C593 C587 1.491 . S
C593 C592 1.400 . S
C593 C594 1.398 . S
C594 H582 0.950 . S
C594 C593 1.398 . S
C594 C595 1.391 . S
C595 H583 0.950 . S
C595 C591 1.393 . S
C595 C594 1.391 . S
H596 C604 0.950 . S
H597 C609 0.950 . S
H598 C606 0.950 . S
H599 C608 0.950 . S
H600 C610 0.950 . S
H601 C612 0.950 . S
H602 C614 0.950 . S
H603 C615 0.950 . S
C604 H596 0.950 . S
C604 C605 1.386 . S
C604 C606 1.391 . S
C605 C604 1.386 . S
C605 C609 1.393 . S
C606 H598 0.950 . S
C606 C604 1.391 . S
C606 C607 1.400 . S
C607 C606 1.400 . S
C607 C608 1.398 . S
C607 C613 1.491 . S
C608 H599 0.950 . S
C608 C607 1.398 . S
C608 C609 1.391 . S
C609 H597 0.950 . S
C609 C605 1.393 . S
C609 C608 1.391 . S
C610 H600 0.950 . S
C610 C611 1.386 . S
C610 C612 1.391 . S
C611 C610 1.386 . S
C611 C615 1.393 . S
C612 H601 0.950 . S
C612 C610 1.391 . S
C612 C613 1.400 . S
C613 C607 1.491 . S
C613 C612 1.400 . S
C613 C614 1.398 . S
C614 H602 0.950 . S
C614 C613 1.398 . S
C614 C615 1.391 . S
C615 H603 0.950 . S
C615 C611 1.393 . S
C615 C614 1.391 . S
H616 C624 0.950 . S
H617 C629 0.950 . S
H618 C626 0.950 . S
H619 C628 0.950 . S
H620 C630 0.950 . S
H621 C632 0.950 . S
H622 C634 0.950 . S
H623 C635 0.950 . S
C624 H616 0.950 . S
C624 C625 1.386 . S
C624 C626 1.391 . S
C625 C624 1.386 . S
C625 C629 1.393 . S
C626 H618 0.950 . S
C626 C624 1.391 . S
C626 C627 1.400 . S
C627 C626 1.400 . S
C627 C628 1.398 . S
C627 C633 1.491 . S
C628 H619 0.950 . S
C628 C627 1.398 . S
C628 C629 1.391 . S
C629 H617 0.950 . S
C629 C625 1.393 . S
C629 C628 1.391 . S
C630 H620 0.950 . S
C630 C631 1.386 . S
C630 C632 1.391 . S
C631 C630 1.386 . S
C631 C635 1.393 . S
C632 H621 0.950 . S
C632 C630 1.391 . S
C632 C633 1.400 . S
C633 C627 1.491 . S
C633 C632 1.400 . S
C633 C634 1.398 . S
C634 H622 0.950 . S
C634 C633 1.398 . S
C634 C635 1.391 . S
C635 H623 0.950 . S
C635 C631 1.393 . S
C635 C634 1.391 . S
H636 C644 0.950 . S
H637 C649 0.950 . S
H638 C646 0.950 . S
H639 C648 0.950 . S
H640 C650 0.950 1_554 S
H641 C652 0.950 . S
H642 C654 0.950 . S
H643 C655 0.950 1_554 S
C644 H636 0.950 . S
C644 C645 1.386 . S
C644 C646 1.391 . S
C645 C644 1.386 . S
C645 C649 1.393 . S
C646 H638 0.950 . S
C646 C644 1.391 . S
C646 C647 1.400 . S
C647 C646 1.400 . S
C647 C648 1.398 . S
C647 C653 1.491 . S
C648 H639 0.950 . S
C648 C647 1.398 . S
C648 C649 1.391 . S
C649 H637 0.950 . S
C649 C645 1.393 . S
C649 C648 1.391 . S
C650 H640 0.950 1_556 S
C650 C651 1.386 1_556 S
C650 C652 1.391 . S
C651 C650 1.386 1_554 S
C651 C655 1.393 1_554 S
C652 H641 0.950 . S
C652 C650 1.391 . S
C652 C653 1.400 . S
C653 C647 1.491 . S
C653 C652 1.400 . S
C653 C654 1.398 . S
C654 H642 0.950 . S
C654 C653 1.398 . S
C654 C655 1.391 . S
C655 H643 0.950 1_556 S
C655 C651 1.393 1_556 S
C655 C654 1.391 . S
H656 C664 0.950 . S
H657 C669 0.950 . S
H658 C666 0.950 . S
H659 C668 0.950 . S
H660 C670 0.950 . S
H661 C672 0.950 . S
H662 C674 0.950 . S
H663 C675 0.950 . S
C664 H656 0.950 . S
C664 C665 1.386 . S
C664 C666 1.391 . S
C665 C664 1.386 . S
C665 C669 1.393 . S
C666 H658 0.950 . S
C666 C664 1.391 . S
C666 C667 1.400 . S
C667 C666 1.400 . S
C667 C668 1.398 . S
C667 C673 1.491 . S
C668 H659 0.950 . S
C668 C667 1.398 . S
C668 C669 1.391 . S
C669 H657 0.950 . S
C669 C665 1.393 . S
C669 C668 1.391 . S
C670 H660 0.950 . S
C670 C671 1.386 . S
C670 C672 1.391 . S
C671 C670 1.386 . S
C671 C675 1.393 . S
C672 H661 0.950 . S
C672 C670 1.391 . S
C672 C673 1.400 . S
C673 C667 1.491 . S
C673 C672 1.400 . S
C673 C674 1.398 . S
C674 H662 0.950 . S
C674 C673 1.398 . S
C674 C675 1.391 . S
C675 H663 0.950 . S
C675 C671 1.393 . S
C675 C674 1.391 . S
H676 C684 0.950 . S
H677 C689 0.950 . S
H678 C686 0.950 . S
H679 C688 0.950 . S
H680 C690 0.950 1_554 S
H681 C692 0.950 . S
H682 C694 0.950 . S
H683 C695 0.950 1_554 S
C684 H676 0.950 . S
C684 C685 1.386 . S
C684 C686 1.391 . S
C685 C684 1.386 . S
C685 C689 1.393 . S
C686 H678 0.950 . S
C686 C684 1.391 . S
C686 C687 1.400 . S
C687 C686 1.400 . S
C687 C688 1.398 . S
C687 C693 1.491 . S
C688 H679 0.950 . S
C688 C687 1.398 . S
C688 C689 1.391 . S
C689 H677 0.950 . S
C689 C685 1.393 . S
C689 C688 1.391 . S
C690 H680 0.950 1_556 S
C690 C691 1.386 1_556 S
C690 C692 1.391 . S
C691 C690 1.386 1_554 S
C691 C695 1.393 1_554 S
C692 H681 0.950 . S
C692 C690 1.391 . S
C692 C693 1.400 . S
C693 C687 1.491 . S
C693 C692 1.400 . S
C693 C694 1.398 . S
C694 H682 0.950 . S
C694 C693 1.398 . S
C694 C695 1.391 . S
C695 H683 0.950 1_556 S
C695 C691 1.393 1_556 S
C695 C694 1.391 . S
H696 C704 0.950 . S
H697 C709 0.950 . S
H698 C706 0.950 . S
H699 C708 0.950 . S
H700 C710 0.950 . S
H701 C712 0.950 . S
H702 C714 0.950 . S
H703 C715 0.950 . S
C704 H696 0.950 . S
C704 C705 1.386 . S
C704 C706 1.391 . S
C705 C704 1.386 . S
C705 C709 1.393 . S
C706 H698 0.950 . S
C706 C704 1.391 . S
C706 C707 1.400 . S
C707 C706 1.400 . S
C707 C708 1.398 . S
C707 C713 1.491 . S
C708 H699 0.950 . S
C708 C707 1.398 . S
C708 C709 1.391 . S
C709 H697 0.950 . S
C709 C705 1.393 . S
C709 C708 1.391 . S
C710 H700 0.950 . S
C710 C711 1.386 . S
C710 C712 1.391 . S
C711 C710 1.386 . S
C711 C715 1.393 . S
C712 H701 0.950 . S
C712 C710 1.391 . S
C712 C713 1.400 . S
C713 C707 1.491 . S
C713 C712 1.400 . S
C713 C714 1.398 . S
C714 H702 0.950 . S
C714 C713 1.398 . S
C714 C715 1.391 . S
C715 H703 0.950 . S
C715 C711 1.393 . S
C715 C714 1.391 . S
H716 C724 0.950 . S
H717 C729 0.950 . S
H718 C726 0.950 . S
H719 C728 0.950 . S
H720 C730 0.950 1_554 S
H721 C732 0.950 . S
H722 C734 0.950 . S
H723 C735 0.950 1_554 S
C724 H716 0.950 . S
C724 C725 1.386 . S
C724 C726 1.391 . S
C725 C724 1.386 . S
C725 C729 1.393 . S
C726 H718 0.950 . S
C726 C724 1.391 . S
C726 C727 1.400 . S
C727 C726 1.400 . S
C727 C728 1.398 . S
C727 C733 1.491 . S
C728 H719 0.950 . S
C728 C727 1.398 . S
C728 C729 1.391 . S
C729 H717 0.950 . S
C729 C725 1.393 . S
C729 C728 1.391 . S
C730 H720 0.950 1_556 S
C730 C731 1.386 1_556 S
C730 C732 1.391 . S
C731 C730 1.386 1_554 S
C731 C735 1.393 1_554 S
C732 H721 0.950 . S
C732 C730 1.391 . S
C732 C733 1.400 . S
C733 C727 1.491 . S
C733 C732 1.400 . S
C733 C734 1.398 . S
C734 H722 0.950 . S
C734 C733 1.398 . S
C734 C735 1.391 . S
C735 H723 0.950 1_556 S
C735 C731 1.393 1_556 S
C735 C734 1.391 . S
H736 C744 0.950 . S
H737 C749 0.950 . S
H738 C746 0.950 . S
H739 C748 0.950 . S
H740 C750 0.950 . S
H741 C752 0.950 . S
H742 C754 0.950 . S
H743 C755 0.950 . S
C744 H736 0.950 . S
C744 C745 1.386 . S
C744 C746 1.391 . S
C745 C744 1.386 . S
C745 C749 1.393 . S
C746 H738 0.950 . S
C746 C744 1.391 . S
C746 C747 1.400 . S
C747 C746 1.400 . S
C747 C748 1.398 . S
C747 C753 1.491 . S
C748 H739 0.950 . S
C748 C747 1.398 . S
C748 C749 1.391 . S
C749 H737 0.950 . S
C749 C745 1.393 . S
C749 C748 1.391 . S
C750 H740 0.950 . S
C750 C751 1.386 . S
C750 C752 1.391 . S
C751 C750 1.386 . S
C751 C755 1.393 . S
C752 H741 0.950 . S
C752 C750 1.391 . S
C752 C753 1.400 . S
C753 C747 1.491 . S
C753 C752 1.400 . S
C753 C754 1.398 . S
C754 H742 0.950 . S
C754 C753 1.398 . S
C754 C755 1.391 . S
C755 H743 0.950 . S
C755 C751 1.393 . S
C755 C754 1.391 . S
H756 C764 0.950 . S
H757 C769 0.950 . S
H758 C766 0.950 . S
H759 C768 0.950 . S
H760 C770 0.950 . S
H761 C772 0.950 . S
H762 C774 0.950 . S
H763 C775 0.950 . S
C764 H756 0.950 . S
C764 C765 1.386 . S
C764 C766 1.391 . S
C765 C764 1.386 . S
C765 C769 1.393 . S
C766 H758 0.950 . S
C766 C764 1.391 . S
C766 C767 1.400 . S
C767 C766 1.400 . S
C767 C768 1.398 . S
C767 C773 1.491 . S
C768 H759 0.950 . S
C768 C767 1.398 . S
C768 C769 1.391 . S
C769 H757 0.950 . S
C769 C765 1.393 . S
C769 C768 1.391 . S
C770 H760 0.950 . S
C770 C771 1.386 . S
C770 C772 1.391 . S
C771 C770 1.386 . S
C771 C775 1.393 . S
C772 H761 0.950 . S
C772 C770 1.391 . S
C772 C773 1.400 . S
C773 C767 1.491 . S
C773 C772 1.400 . S
C773 C774 1.398 . S
C774 H762 0.950 . S
C774 C773 1.398 . S
C774 C775 1.391 . S
C775 H763 0.950 . S
C775 C771 1.393 . S
C775 C774 1.391 . S
H776 C784 0.950 . S
H777 C789 0.950 . S
H778 C786 0.950 . S
H779 C788 0.950 . S
H780 C790 0.950 1_556 S
H781 C792 0.950 . S
H782 C794 0.950 . S
H783 C795 0.950 1_556 S
C784 H776 0.950 . S
C784 C785 1.386 . S
C784 C786 1.391 . S
C785 C784 1.386 . S
C785 C789 1.393 . S
C786 H778 0.950 . S
C786 C784 1.391 . S
C786 C787 1.400 . S
C787 C786 1.400 . S
C787 C788 1.398 . S
C787 C793 1.491 . S
C788 H779 0.950 . S
C788 C787 1.398 . S
C788 C789 1.391 . S
C789 H777 0.950 . S
C789 C785 1.393 . S
C789 C788 1.391 . S
C790 H780 0.950 1_554 S
C790 C791 1.386 1_554 S
C790 C792 1.391 . S
C791 C790 1.386 1_556 S
C791 C795 1.393 1_556 S
C792 H781 0.950 . S
C792 C790 1.391 . S
C792 C793 1.400 . S
C793 C787 1.491 . S
C793 C792 1.400 . S
C793 C794 1.398 . S
C794 H782 0.950 . S
C794 C793 1.398 . S
C794 C795 1.391 . S
C795 H783 0.950 1_554 S
C795 C791 1.393 1_554 S
C795 C794 1.391 . S
H796 C804 0.950 . S
H797 C809 0.950 . S
H798 C806 0.950 . S
H799 C808 0.950 . S
H800 C810 0.950 . S
H801 C812 0.950 . S
H802 C814 0.950 . S
H803 C815 0.950 . S
C804 H796 0.950 . S
C804 C805 1.386 . S
C804 C806 1.391 . S
C805 C804 1.386 . S
C805 C809 1.393 . S
C806 H798 0.950 . S
C806 C804 1.391 . S
C806 C807 1.400 . S
C807 C806 1.400 . S
C807 C808 1.398 . S
C807 C813 1.491 . S
C808 H799 0.950 . S
C808 C807 1.398 . S
C808 C809 1.391 . S
C809 H797 0.950 . S
C809 C805 1.393 . S
C809 C808 1.391 . S
C810 H800 0.950 . S
C810 C811 1.386 . S
C810 C812 1.391 . S
C811 C810 1.386 . S
C811 C815 1.393 . S
C812 H801 0.950 . S
C812 C810 1.391 . S
C812 C813 1.400 . S
C813 C807 1.491 . S
C813 C812 1.400 . S
C813 C814 1.398 . S
C814 H802 0.950 . S
C814 C813 1.398 . S
C814 C815 1.391 . S
C815 H803 0.950 . S
C815 C811 1.393 . S
C815 C814 1.391 . S
H816 C824 0.950 1_556 S
H817 C829 0.950 1_556 S
H818 C826 0.950 . S
H819 C828 0.950 . S
H820 C830 0.950 . S
H821 C832 0.950 . S
H822 C834 0.950 . S
H823 C835 0.950 . S
C824 H816 0.950 1_554 S
C824 C825 1.386 1_554 S
C824 C826 1.391 . S
C825 C824 1.386 1_556 S
C825 C829 1.393 1_556 S
C826 H818 0.950 . S
C826 C824 1.391 . S
C826 C827 1.400 . S
C827 C826 1.400 . S
C827 C828 1.398 . S
C827 C833 1.491 . S
C828 H819 0.950 . S
C828 C827 1.398 . S
C828 C829 1.391 . S
C829 H817 0.950 1_554 S
C829 C825 1.393 1_554 S
C829 C828 1.391 . S
C830 H820 0.950 . S
C830 C831 1.386 . S
C830 C832 1.391 . S
C831 C830 1.386 . S
C831 C835 1.393 . S
C832 H821 0.950 . S
C832 C830 1.391 . S
C832 C833 1.400 . S
C833 C827 1.491 . S
C833 C832 1.400 . S
C833 C834 1.398 . S
C834 H822 0.950 . S
C834 C833 1.398 . S
C834 C835 1.391 . S
C835 H823 0.950 . S
C835 C831 1.393 . S
C835 C834 1.391 . S
H836 C844 0.950 . S
H837 C849 0.950 . S
H838 C846 0.950 . S
H839 C848 0.950 . S
H840 C850 0.950 . S
H841 C852 0.950 . S
H842 C854 0.950 . S
H843 C855 0.950 . S
C844 H836 0.950 . S
C844 C845 1.386 . S
C844 C846 1.391 . S
C845 C844 1.386 . S
C845 C849 1.393 . S
C846 H838 0.950 . S
C846 C844 1.391 . S
C846 C847 1.400 . S
C847 C846 1.400 . S
C847 C848 1.398 . S
C847 C853 1.491 . S
C848 H839 0.950 . S
C848 C847 1.398 . S
C848 C849 1.391 . S
C849 H837 0.950 . S
C849 C845 1.393 . S
C849 C848 1.391 . S
C850 H840 0.950 . S
C850 C851 1.386 . S
C850 C852 1.391 . S
C851 C850 1.386 . S
C851 C855 1.393 . S
C852 H841 0.950 . S
C852 C850 1.391 . S
C852 C853 1.400 . S
C853 C847 1.491 . S
C853 C852 1.400 . S
C853 C854 1.398 . S
C854 H842 0.950 . S
C854 C853 1.398 . S
C854 C855 1.391 . S
C855 H843 0.950 . S
C855 C851 1.393 . S
C855 C854 1.391 . S
H856 C864 0.950 . S
H857 C869 0.950 . S
H858 C866 0.950 . S
H859 C868 0.950 . S
H860 C870 0.950 . S
H861 C872 0.950 . S
H862 C874 0.950 . S
H863 C875 0.945 1_556 S
C864 H856 0.950 . S
C864 C865 1.386 . S
C864 C866 1.391 . S
C865 C864 1.386 . S
C865 C869 1.393 . S
C866 H858 0.950 . S
C866 C864 1.391 . S
C866 C867 1.400 . S
C867 C866 1.400 . S
C867 C868 1.398 . S
C867 C873 1.491 . S
C868 H859 0.950 . S
C868 C867 1.398 . S
C868 C869 1.391 . S
C869 H857 0.950 . S
C869 C865 1.393 . S
C869 C868 1.391 . S
C870 H860 0.950 . S
C870 C871 1.386 1_554 S
C870 C872 1.391 . S
C871 C870 1.386 1_556 S
C871 C875 1.390 1_556 S
C872 H861 0.950 . S
C872 C870 1.391 . S
C872 C873 1.400 . S
C873 C867 1.491 . S
C873 C872 1.400 . S
C873 C874 1.398 . S
C874 H862 0.950 . S
C874 C873 1.398 . S
C874 C875 1.398 . S
C875 H863 0.945 1_554 S
C875 C871 1.390 1_554 S
C875 C874 1.398 . S
H876 C884 0.950 . S
H877 C889 0.950 . S
H878 C886 0.950 . S
H879 C888 0.950 . S
H880 C890 0.950 . S
H881 C892 0.950 . S
H882 C894 0.950 . S
H883 C895 0.950 . S
C884 H876 0.950 . S
C884 C885 1.386 . S
C884 C886 1.391 . S
C885 C884 1.386 . S
C885 C889 1.393 . S
C886 H878 0.950 . S
C886 C884 1.391 . S
C886 C887 1.400 . S
C887 C886 1.400 . S
C887 C888 1.398 . S
C887 C893 1.491 . S
C888 H879 0.950 . S
C888 C887 1.398 . S
C888 C889 1.391 . S
C889 H877 0.950 . S
C889 C885 1.393 . S
C889 C888 1.391 . S
C890 H880 0.950 . S
C890 C891 1.386 . S
C890 C892 1.391 . S
C891 C890 1.386 . S
C891 C895 1.393 . S
C892 H881 0.950 . S
C892 C890 1.391 . S
C892 C893 1.400 . S
C893 C887 1.491 . S
C893 C892 1.400 . S
C893 C894 1.398 . S
C894 H882 0.950 . S
C894 C893 1.398 . S
C894 C895 1.391 . S
C895 H883 0.950 . S
C895 C891 1.393 . S
C895 C894 1.391 . S
H896 C904 0.950 . S
H897 C909 0.950 . S
H898 C906 0.950 . S
H899 C908 0.950 . S
H900 C910 0.950 . S
H901 C912 0.950 . S
H902 C914 0.950 . S
H903 C915 0.950 . S
C904 H896 0.950 . S
C904 C905 1.386 . S
C904 C906 1.391 . S
C905 C904 1.386 . S
C905 C909 1.393 . S
C906 H898 0.950 . S
C906 C904 1.391 . S
C906 C907 1.400 . S
C907 C906 1.400 . S
C907 C908 1.398 . S
C907 C913 1.491 . S
C908 H899 0.950 . S
C908 C907 1.398 . S
C908 C909 1.391 . S
C909 H897 0.950 . S
C909 C905 1.393 . S
C909 C908 1.391 . S
C910 H900 0.950 . S
C910 C911 1.386 . S
C910 C912 1.391 . S
C911 C910 1.386 . S
C911 C915 1.393 . S
C912 H901 0.950 . S
C912 C910 1.391 . S
C912 C913 1.400 . S
C913 C907 1.491 . S
C913 C912 1.400 . S
C913 C914 1.398 . S
C914 H902 0.950 . S
C914 C913 1.398 . S
C914 C915 1.391 . S
C915 H903 0.950 . S
C915 C911 1.393 . S
C915 C914 1.391 . S
H916 C924 0.950 . S
H917 C929 0.950 . S
H918 C926 0.950 . S
H919 C928 0.950 . S
H920 C930 0.950 . S
H921 C932 0.950 . S
H922 C934 0.950 . S
H923 C935 0.950 . S
C924 H916 0.950 . S
C924 C925 1.386 . S
C924 C926 1.391 . S
C925 C924 1.386 . S
C925 C929 1.393 . S
C926 H918 0.950 . S
C926 C924 1.391 . S
C926 C927 1.400 . S
C927 C926 1.400 . S
C927 C928 1.398 . S
C927 C933 1.491 . S
C928 H919 0.950 . S
C928 C927 1.398 . S
C928 C929 1.391 . S
C929 H917 0.950 . S
C929 C925 1.393 . S
C929 C928 1.391 . S
C930 H920 0.950 . S
C930 C931 1.386 . S
C930 C932 1.391 . S
C931 C930 1.386 . S
C931 C935 1.393 . S
C932 H921 0.950 . S
C932 C930 1.391 . S
C932 C933 1.400 . S
C933 C927 1.491 . S
C933 C932 1.400 . S
C933 C934 1.398 . S
C934 H922 0.950 . S
C934 C933 1.398 . S
C934 C935 1.391 . S
C935 H923 0.950 . S
C935 C931 1.393 . S
C935 C934 1.391 . S
H936 C944 0.950 . S
H937 C949 0.950 . S
H938 C946 0.950 . S
H939 C948 0.950 . S
H940 C950 0.950 . S
H941 C952 0.950 . S
H942 C954 0.950 . S
H943 C955 0.950 . S
C944 H936 0.950 . S
C944 C945 1.386 . S
C944 C946 1.391 . S
C945 C944 1.386 . S
C945 C949 1.393 . S
C946 H938 0.950 . S
C946 C944 1.391 . S
C946 C947 1.400 . S
C947 C946 1.400 . S
C947 C948 1.398 . S
C947 C953 1.491 . S
C948 H939 0.950 . S
C948 C947 1.398 . S
C948 C949 1.391 . S
C949 H937 0.950 . S
C949 C945 1.393 . S
C949 C948 1.391 . S
C950 H940 0.950 . S
C950 C951 1.386 . S
C950 C952 1.391 . S
C951 C950 1.386 . S
C951 C955 1.393 . S
C952 H941 0.950 . S
C952 C950 1.391 . S
C952 C953 1.400 . S
C953 C947 1.491 . S
C953 C952 1.400 . S
C953 C954 1.398 . S
C954 H942 0.950 . S
C954 C953 1.398 . S
C954 C955 1.391 . S
C955 H943 0.950 . S
C955 C951 1.393 . S
C955 C954 1.391 . S
H956 C964 0.950 . S
H957 C969 0.950 . S
H958 C966 0.950 . S
H959 C968 0.950 . S
H960 C970 0.950 . S
H961 C972 0.950 . S
H962 C974 0.950 . S
H963 C975 0.950 . S
C964 H956 0.950 . S
C964 C965 1.386 . S
C964 C966 1.391 . S
C965 C964 1.386 . S
C965 C969 1.393 . S
C966 H958 0.950 . S
C966 C964 1.391 . S
C966 C967 1.400 . S
C967 C966 1.400 . S
C967 C968 1.398 . S
C967 C973 1.491 . S
C968 H959 0.950 . S
C968 C967 1.398 . S
C968 C969 1.391 . S
C969 H957 0.950 . S
C969 C965 1.393 . S
C969 C968 1.391 . S
C970 H960 0.950 . S
C970 C971 1.386 . S
C970 C972 1.391 . S
C971 C970 1.386 . S
C971 C975 1.393 . S
C972 H961 0.950 . S
C972 C970 1.391 . S
C972 C973 1.400 . S
C973 C967 1.491 . S
C973 C972 1.400 . S
C973 C974 1.398 . S
C974 H962 0.950 . S
C974 C973 1.398 . S
C974 C975 1.391 . S
C975 H963 0.950 . S
C975 C971 1.393 . S
C975 C974 1.391 . S
H976 C984 0.950 . S
H977 C989 0.950 . S
H978 C986 0.950 . S
H979 C988 0.950 . S
H980 C990 0.950 . S
H981 C992 0.950 . S
H982 C994 0.950 . S
H983 C995 0.950 . S
C984 H976 0.950 . S
C984 C985 1.386 . S
C984 C986 1.391 . S
C985 C984 1.386 . S
C985 C989 1.393 . S
C986 H978 0.950 . S
C986 C984 1.391 . S
C986 C987 1.400 . S
C987 C986 1.400 . S
C987 C988 1.398 . S
C987 C993 1.491 . S
C988 H979 0.950 . S
C988 C987 1.398 . S
C988 C989 1.391 . S
C989 H977 0.950 . S
C989 C985 1.393 . S
C989 C988 1.391 . S
C990 H980 0.950 . S
C990 C991 1.386 . S
C990 C992 1.391 . S
C991 C990 1.386 . S
C991 C995 1.393 . S
C992 H981 0.950 . S
C992 C990 1.391 . S
C992 C993 1.400 . S
C993 C987 1.491 . S
C993 C992 1.400 . S
C993 C994 1.398 . S
C994 H982 0.950 . S
C994 C993 1.398 . S
C994 C995 1.391 . S
C995 H983 0.950 . S
C995 C991 1.393 . S
C995 C994 1.391 . S
C405 C7 1.226 . S
C411 C370 1.250 . S
C425 C40 1.242 . S
C431 C205 1.254 . S
C445 C238 1.239 . S
C451 C73 1.255 . S
C465 C271 1.250 . S
C471 C106 1.249 . S
C485 C304 1.234 . S
C491 C139 1.221 . S
C505 C172 1.250 . S
C511 C337 1.250 . S
C525 C285 1.627 . S
C531 C21 1.625 . S
C545 C318 1.624 . S
C551 C54 1.620 . S
C565 C87 1.619 . S
C571 C351 1.620 . S
C585 C120 1.628 . S
C591 C384 1.625 . S
C605 C219 1.621 . S
C611 C153 1.626 . S
C625 C186 1.626 . S
C631 C252 1.627 . S
C645 N2 1.263 . S
C651 N13 1.265 . S
C665 N46 1.262 . S
C671 N35 1.259 . S
C685 N68 1.262 . S
C691 N79 1.264 . S
C705 N112 1.279 . S
C711 N101 1.278 . S
C725 N134 1.272 . S
C731 N145 1.273 . S
C745 N178 1.259 . S
C751 N167 1.257 . S
C765 N211 1.267 . S
C771 N200 1.265 . S
C785 N233 1.258 . S
C791 N244 1.260 . S
C805 N277 1.279 . S
C811 N266 1.278 . S
C825 N310 1.259 . S
C831 N299 1.257 . S
C845 N332 1.270 . S
C851 N343 1.272 . S
C865 N365 1.277 . S
C871 N376 1.278 . S
C885 C18 1.290 . S
C891 C348 1.281 . S
C905 C381 1.283 . S
C911 C51 1.289 . S
C925 C216 1.281 . S
C931 C84 1.287 . S
C945 C117 1.289 . S
C951 C249 1.280 . S
C965 C150 1.290 . S
C971 C282 1.281 . S
C985 C183 1.289 . S
C991 C315 1.280 . S
