# Generated by pormake.
# Topology wmi, (6)-cn, num edge types: 1
# Building blocks:
#     Node 0, Type 0, BuildingBlock: BETDIP_clean_sbu_0, # of connection points: 6
#     Node 1, Type 0, BuildingBlock: BETDIP_clean_sbu_0, # of connection points: 6
#     Node 2, Type 0, BuildingBlock: BETDIP_clean_sbu_0, # of connection points: 6
#     Node 3, Type 0, BuildingBlock: BETDIP_clean_sbu_0, # of connection points: 6
#     Node 4, Type 0, BuildingBlock: BETDIP_clean_sbu_0, # of connection points: 6
#     Node 5, Type 0, BuildingBlock: BETDIP_clean_sbu_0, # of connection points: 6
#     Node 6, Type 0, BuildingBlock: BETDIP_clean_sbu_0, # of connection points: 6
#     Node 7, Type 0, BuildingBlock: BETDIP_clean_sbu_0, # of connection points: 6
#     Node 8, Type 0, BuildingBlock: BETDIP_clean_sbu_0, # of connection points: 6
#     Node 9, Type 0, BuildingBlock: BETDIP_clean_sbu_0, # of connection points: 6
#     Node 10, Type 0, BuildingBlock: BETDIP_clean_sbu_0, # of connection points: 6
#     Node 11, Type 0, BuildingBlock: BETDIP_clean_sbu_0, # of connection points: 6
#     Node 12, Type 0, BuildingBlock: BETDIP_clean_sbu_0, # of connection points: 6
#     Node 13, Type 0, BuildingBlock: BETDIP_clean_sbu_0, # of connection points: 6
#     Node 14, Type 0, BuildingBlock: BETDIP_clean_sbu_0, # of connection points: 6
#     Node 15, Type 0, BuildingBlock: BETDIP_clean_sbu_0, # of connection points: 6
#     Node 16, Type 0, BuildingBlock: BETDIP_clean_sbu_0, # of connection points: 6
#     Node 17, Type 0, BuildingBlock: BETDIP_clean_sbu_0, # of connection points: 6
#     Edge 18, Type (0, 0), BuildingBlock: ZUJKAS_clean_linker_0, # of connection points: 2
#     Edge 19, Type (0, 0), BuildingBlock: ZUJKAS_clean_linker_0, # of connection points: 2
#     Edge 20, Type (0, 0), BuildingBlock: ZUJKAS_clean_linker_0, # of connection points: 2
#     Edge 21, Type (0, 0), BuildingBlock: ZUJKAS_clean_linker_0, # of connection points: 2
#     Edge 22, Type (0, 0), BuildingBlock: ZUJKAS_clean_linker_0, # of connection points: 2
#     Edge 23, Type (0, 0), BuildingBlock: ZUJKAS_clean_linker_0, # of connection points: 2
#     Edge 24, Type (0, 0), BuildingBlock: ZUJKAS_clean_linker_0, # of connection points: 2
#     Edge 25, Type (0, 0), BuildingBlock: ZUJKAS_clean_linker_0, # of connection points: 2
#     Edge 26, Type (0, 0), BuildingBlock: ZUJKAS_clean_linker_0, # of connection points: 2
#     Edge 27, Type (0, 0), BuildingBlock: ZUJKAS_clean_linker_0, # of connection points: 2
#     Edge 28, Type (0, 0), BuildingBlock: ZUJKAS_clean_linker_0, # of connection points: 2
#     Edge 29, Type (0, 0), BuildingBlock: ZUJKAS_clean_linker_0, # of connection points: 2
#     Edge 30, Type (0, 0), BuildingBlock: ZUJKAS_clean_linker_0, # of connection points: 2
#     Edge 31, Type (0, 0), BuildingBlock: ZUJKAS_clean_linker_0, # of connection points: 2
#     Edge 32, Type (0, 0), BuildingBlock: ZUJKAS_clean_linker_0, # of connection points: 2
#     Edge 33, Type (0, 0), BuildingBlock: ZUJKAS_clean_linker_0, # of connection points: 2
#     Edge 34, Type (0, 0), BuildingBlock: ZUJKAS_clean_linker_0, # of connection points: 2
#     Edge 35, Type (0, 0), BuildingBlock: ZUJKAS_clean_linker_0, # of connection points: 2
#     Edge 36, Type (0, 0), BuildingBlock: ZUJKAS_clean_linker_0, # of connection points: 2
#     Edge 37, Type (0, 0), BuildingBlock: ZUJKAS_clean_linker_0, # of connection points: 2
#     Edge 38, Type (0, 0), BuildingBlock: ZUJKAS_clean_linker_0, # of connection points: 2
#     Edge 39, Type (0, 0), BuildingBlock: ZUJKAS_clean_linker_0, # of connection points: 2
#     Edge 40, Type (0, 0), BuildingBlock: ZUJKAS_clean_linker_0, # of connection points: 2
#     Edge 41, Type (0, 0), BuildingBlock: ZUJKAS_clean_linker_0, # of connection points: 2
#     Edge 42, Type (0, 0), BuildingBlock: ZUJKAS_clean_linker_0, # of connection points: 2
#     Edge 43, Type (0, 0), BuildingBlock: ZUJKAS_clean_linker_0, # of connection points: 2
#     Edge 44, Type (0, 0), BuildingBlock: ZUJKAS_clean_linker_0, # of connection points: 2
#     Edge 45, Type (0, 0), BuildingBlock: ZUJKAS_clean_linker_0, # of connection points: 2
#     Edge 46, Type (0, 0), BuildingBlock: ZUJKAS_clean_linker_0, # of connection points: 2
#     Edge 47, Type (0, 0), BuildingBlock: ZUJKAS_clean_linker_0, # of connection points: 2
#     Edge 48, Type (0, 0), BuildingBlock: ZUJKAS_clean_linker_0, # of connection points: 2
#     Edge 49, Type (0, 0), BuildingBlock: ZUJKAS_clean_linker_0, # of connection points: 2
#     Edge 50, Type (0, 0), BuildingBlock: ZUJKAS_clean_linker_0, # of connection points: 2
#     Edge 51, Type (0, 0), BuildingBlock: ZUJKAS_clean_linker_0, # of connection points: 2
#     Edge 52, Type (0, 0), BuildingBlock: ZUJKAS_clean_linker_0, # of connection points: 2
#     Edge 53, Type (0, 0), BuildingBlock: ZUJKAS_clean_linker_0, # of connection points: 2
#     Edge 54, Type (0, 0), BuildingBlock: ZUJKAS_clean_linker_0, # of connection points: 2
#     Edge 55, Type (0, 0), BuildingBlock: ZUJKAS_clean_linker_0, # of connection points: 2
#     Edge 56, Type (0, 0), BuildingBlock: ZUJKAS_clean_linker_0, # of connection points: 2
#     Edge 57, Type (0, 0), BuildingBlock: ZUJKAS_clean_linker_0, # of connection points: 2
#     Edge 58, Type (0, 0), BuildingBlock: ZUJKAS_clean_linker_0, # of connection points: 2
#     Edge 59, Type (0, 0), BuildingBlock: ZUJKAS_clean_linker_0, # of connection points: 2
#     Edge 60, Type (0, 0), BuildingBlock: ZUJKAS_clean_linker_0, # of connection points: 2
#     Edge 61, Type (0, 0), BuildingBlock: ZUJKAS_clean_linker_0, # of connection points: 2
#     Edge 62, Type (0, 0), BuildingBlock: ZUJKAS_clean_linker_0, # of connection points: 2
#     Edge 63, Type (0, 0), BuildingBlock: ZUJKAS_clean_linker_0, # of connection points: 2
#     Edge 64, Type (0, 0), BuildingBlock: ZUJKAS_clean_linker_0, # of connection points: 2
#     Edge 65, Type (0, 0), BuildingBlock: ZUJKAS_clean_linker_0, # of connection points: 2
#     Edge 66, Type (0, 0), BuildingBlock: ZUJKAS_clean_linker_0, # of connection points: 2
#     Edge 67, Type (0, 0), BuildingBlock: ZUJKAS_clean_linker_0, # of connection points: 2
#     Edge 68, Type (0, 0), BuildingBlock: ZUJKAS_clean_linker_0, # of connection points: 2
#     Edge 69, Type (0, 0), BuildingBlock: ZUJKAS_clean_linker_0, # of connection points: 2
#     Edge 70, Type (0, 0), BuildingBlock: ZUJKAS_clean_linker_0, # of connection points: 2
#     Edge 71, Type (0, 0), BuildingBlock: ZUJKAS_clean_linker_0, # of connection points: 2
# Relax obj value: 0.097
# Max RMSD: 0.200
# Mean RMSD: 0.200
data_MOF--net-wmi--node1-BETDIP_clean_sbu_0--edge1-ZUJKAS_clean_linker_0
_symmetry_space_group_name_H-M    P1
_symmetry_Int_Tables_number       1
_symmetry_cell_setting            triclinic
loop_
_symmetry_equiv_pos_as_xyz
'x, y, z'
_cell_length_a     49.025614
_cell_length_b     49.042137
_cell_length_c     101.58931
_cell_angle_alpha  89.942122
_cell_angle_beta   90.167552
_cell_angle_gamma 120.03263
loop_
_atom_site_label
_atom_site_type_symbol
_atom_site_fract_x
_atom_site_fract_y
_atom_site_fract_z
_atom_type_partial_charge
Tb0 Tb 0.52925 0.04301 0.12264 0.0
Tb1 Tb 0.46112 1.00904 0.11566 0.0
C2 C 0.58829 0.07711 0.12451 0.0
C3 C 0.61651 0.10865 0.12303 0.0
C4 C 0.62406 0.12549 0.11112 0.0
C5 C 0.65353 0.15281 0.10951 0.0
C6 C 0.67602 0.16354 0.11973 0.0
C7 C 0.66775 0.14731 0.13179 0.0
C8 C 0.63838 0.12022 0.1334 0.0
C9 C 0.48925 0.02015 0.14267 0.0
C10 C 0.49464 0.08208 0.11716 0.0
C11 C 0.40289 0.97019 0.11563 0.0
C12 C 0.38349 0.93531 0.11558 0.0
C13 C 0.36739 0.9194 0.12704 0.0
C14 C 0.34938 0.88652 0.12728 0.0
C15 C 0.34677 0.86873 0.11602 0.0
C16 C 0.3627 0.88463 0.10451 0.0
C17 C 0.38091 0.91754 0.10429 0.0
C18 C 0.49856 0.03254 0.09527 0.0
C19 C 0.49835 0.97086 0.1197 0.0
O20 O 0.57369 0.06155 0.11387 0.0
O21 O 0.56892 0.07273 0.13417 0.0
O22 O 0.48689 0.03334 0.13251 0.0
O23 O 0.51565 0.02017 0.14219 0.0
O24 O 0.52131 0.08142 0.11666 0.0
O25 O 0.46711 0.0559 0.11873 0.0
O26 O 0.41932 0.98284 0.12632 0.0
O27 O 0.41894 0.98383 0.10498 0.0
O28 O 0.50326 0.0195 0.10512 0.0
O29 O 0.47154 0.03108 0.09647 0.0
O30 O 0.47092 0.97003 0.11895 0.0
O31 O 0.52516 0.9977 0.11998 0.0
H32 H 0.6077 0.11701 0.10292 0.0
H33 H 0.6592 0.16475 0.10009 0.0
H34 H 0.68426 0.15524 0.13994 0.0
H35 H 0.6332 0.10758 0.14265 0.0
H36 H 0.36875 0.93245 0.13586 0.0
H37 H 0.33703 0.87503 0.13624 0.0
H38 H 0.36134 0.87158 0.0957 0.0
H39 H 0.39301 0.92897 0.09529 0.0
Tb40 Tb 0.02825 0.50691 0.11985 0.0
Tb41 Tb 0.06172 0.47345 0.11159 0.0
C42 C 0.9934 0.53081 0.1227 0.0
C43 C 0.96121 0.52617 0.12104 0.0
C44 C 0.95311 0.53661 0.10955 0.0
C45 C 0.92511 0.53769 0.1089 0.0
C46 C 0.90462 0.52862 0.11975 0.0
C47 C 0.91213 0.51697 0.13103 0.0
C48 C 0.94009 0.51585 0.13168 0.0
C49 C 0.05243 0.48901 0.13922 0.0
C50 C 0.98888 0.43372 0.11337 0.0
C51 C 0.10006 0.45362 0.1098 0.0
C52 C 0.13468 0.46846 0.1106 0.0
C53 C 0.1524 0.49301 0.11953 0.0
C54 C 0.18525 0.50701 0.12001 0.0
C55 C 0.20105 0.49674 0.11159 0.0
C56 C 0.18315 0.4723 0.10261 0.0
C57 C 0.15034 0.45833 0.10214 0.0
C58 C 0.0372 0.48896 0.09187 0.0
C59 C 0.10018 0.5482 0.11701 0.0
O60 O 1.01005 0.5343 0.11213 0.0
O61 O 0.99792 0.51465 0.13184 0.0
O62 O 0.0387 0.47383 0.12903 0.0
O63 O 0.05199 0.51519 0.13918 0.0
O64 O 0.98963 0.46108 0.11347 0.0
O65 O 1.01506 0.4322 0.11437 0.0
O66 O 0.0855 0.45291 0.12067 0.0
O67 O 0.08908 0.46144 0.09963 0.0
O68 O 0.05088 0.5059 0.10185 0.0
O69 O 0.03803 0.46301 0.09269 0.0
O70 O 0.10075 0.52151 0.11613 0.0
O71 O 0.07344 0.54834 0.1172 0.0
H72 H 0.96904 0.54527 0.10125 0.0
H73 H 0.9203 0.54708 0.1001 0.0
H74 H 0.89668 0.50931 0.1395 0.0
H75 H 0.94571 0.50804 0.14074 0.0
H76 H 0.14088 0.50132 0.12617 0.0
H77 H 0.19819 0.52553 0.12714 0.0
H78 H 0.19453 0.46413 0.09583 0.0
H79 H 0.13716 0.43962 0.09511 0.0
Tb80 Tb 0.56017 0.5407 0.12291 0.0
Tb81 Tb 0.597 0.60873 0.11602 0.0
C82 C 0.53331 0.48149 0.12468 0.0
C83 C 0.53698 0.45335 0.12462 0.0
C84 C 0.55445 0.4483 0.11496 0.0
C85 C 0.55383 0.41939 0.1143 0.0
C86 C 0.53569 0.39498 0.12326 0.0
C87 C 0.519 0.40065 0.13311 0.0
C88 C 0.51968 0.42944 0.13377 0.0
C89 C 0.57551 0.58096 0.14278 0.0
C90 C 0.63466 0.57348 0.11899 0.0
C91 C 0.6179 0.66719 0.1156 0.0
C92 C 0.60314 0.6872 0.11635 0.0
C93 C 0.59051 0.69089 0.1282 0.0
C94 C 0.57636 0.7096 0.12867 0.0
C95 C 0.57436 0.7249 0.11729 0.0
C96 C 0.58707 0.72123 0.10547 0.0
C97 C 0.60141 0.70275 0.10503 0.0
C98 C 0.58357 0.57078 0.0957 0.0
C99 C 0.52146 0.57363 0.11841 0.0
O100 O 0.53729 0.49664 0.11359 0.0
O101 O 0.54424 0.50041 0.13482 0.0
O102 O 0.59239 0.58271 0.13321 0.0
O103 O 0.54866 0.55514 0.14175 0.0
O104 O 0.60691 0.54718 0.11885 0.0
O105 O 0.63696 0.60159 0.11953 0.0
O106 O 0.61703 0.65166 0.12622 0.0
O107 O 0.6119 0.65002 0.10498 0.0
O108 O 0.56535 0.56697 0.10521 0.0
O109 O 0.60971 0.59719 0.09727 0.0
O110 O 0.54863 0.60057 0.11895 0.0
O111 O 0.5206 0.5464 0.11818 0.0
H112 H 0.56798 0.46637 0.10776 0.0
H113 H 0.56733 0.41607 0.10669 0.0
H114 H 0.50437 0.3824 0.14006 0.0
H115 H 0.50572 0.43263 0.14121 0.0
H116 H 0.5914 0.67927 0.13713 0.0
H117 H 0.56664 0.71178 0.1379 0.0
H118 H 0.58641 0.73311 0.09658 0.0
H119 H 0.61115 0.70057 0.09579 0.0
Tb120 Tb 0.05013 0.51976 0.92976 0.0
Tb121 Tb 1.01383 0.44689 0.93462 0.0
C122 C 0.08483 0.57873 0.92935 0.0
C123 C 0.11498 0.6066 0.93346 0.0
C124 C 0.11451 0.62747 0.94281 0.0
C125 C 0.14122 0.65692 0.94501 0.0
C126 C 0.16908 0.66639 0.93787 0.0
C127 C 0.17004 0.64488 0.92897 0.0
C128 C 0.14327 0.61537 0.92676 0.0
C129 C 0.02759 0.48184 0.90901 0.0
C130 C 0.08804 0.48374 0.93562 0.0
C131 C 0.97891 0.38983 0.929 0.0
C132 C 0.94557 0.36687 0.93142 0.0
C133 C 0.9304 0.33967 0.92366 0.0
C134 C 0.8978 0.31975 0.92453 0.0
C135 C 0.87973 0.32675 0.93317 0.0
C136 C 0.8952 0.35369 0.94119 0.0
C137 C 0.92784 0.37367 0.94028 0.0
C138 C 0.02497 0.47719 0.95734 0.0
C139 C 0.9773 0.48623 0.93352 0.0
O140 O 0.06341 0.56356 0.93839 0.0
O141 O 0.08551 0.55994 0.92034 0.0
O142 O 0.03987 0.47817 0.91919 0.0
O143 O 0.02812 0.50847 0.90994 0.0
O144 O 0.08734 0.51047 0.93611 0.0
O145 O 0.06228 0.45589 0.93364 0.0
O146 O 0.98328 0.41302 0.92125 0.0
O147 O 0.9979 0.39947 0.93924 0.0
O148 O 0.03158 0.48859 0.94589 0.0
O149 O 1.01111 0.44677 0.95616 0.0
O150 O 0.97579 0.45843 0.93279 0.0
O151 O 1.00421 0.51317 0.93384 0.0
H152 H 0.09301 0.62158 0.94803 0.0
H153 H 0.13977 0.67263 0.9521 0.0
H154 H 0.19099 0.65143 0.92322 0.0
H155 H 0.1444 0.60007 0.91937 0.0
H156 H 0.94366 0.33429 0.91664 0.0
H157 H 0.88668 0.29898 0.91834 0.0
H158 H 0.88195 0.35992 0.94784 0.0
H159 H 0.9391 0.39494 0.94618 0.0
Tb160 Tb 0.54861 0.5523 0.93229 0.0
Tb161 Tb 0.61634 0.58693 0.93983 0.0
C162 C 0.48962 0.52749 0.92982 0.0
C163 C 0.46127 0.52993 0.93278 0.0
C164 C 0.43887 0.50848 0.94167 0.0
C165 C 0.40949 0.50635 0.94305 0.0
C166 C 0.40161 0.52551 0.93553 0.0
C167 C 0.42452 0.54796 0.92703 0.0
C168 C 0.45398 0.55005 0.92562 0.0
C169 C 0.58953 0.56731 0.9127 0.0
C170 C 0.58265 0.62596 0.9374 0.0
C171 C 0.67458 0.60682 0.94098 0.0
C172 C 0.69416 0.59168 0.94022 0.0
C173 C 0.69143 0.57193 0.92965 0.0
C174 C 0.70994 0.55756 0.92927 0.0
C175 C 0.73127 0.56236 0.93951 0.0
C176 C 0.73377 0.58195 0.95009 0.0
C177 C 0.7155 0.59654 0.95041 0.0
C178 C 0.57783 0.57408 0.95989 0.0
C179 C 0.57972 0.51168 0.93607 0.0
O180 O 0.50338 0.52186 0.93967 0.0
O181 O 0.50988 0.54661 0.92114 0.0
O182 O 0.59149 0.58385 0.92243 0.0
O183 O 0.56291 0.54116 0.91329 0.0
O184 O 0.55615 0.59852 0.93812 0.0
O185 O 0.61033 0.62752 0.9362 0.0
O186 O 0.65997 0.60711 0.93022 0.0
O187 O 0.65666 0.59995 0.95137 0.0
O188 O 0.57367 0.55595 0.95027 0.0
O189 O 0.60476 0.59971 0.95855 0.0
O190 O 0.60709 0.53843 0.93626 0.0
O191 O 0.55283 0.51152 0.93595 0.0
H192 H 0.44361 0.49242 0.94722 0.0
H193 H 0.39268 0.48918 0.94985 0.0
H194 H 0.41919 0.56296 0.92102 0.0
H195 H 0.47053 0.5666 0.91857 0.0
H196 H 0.67494 0.56745 0.92169 0.0
H197 H 0.7073 0.54239 0.92104 0.0
H198 H 0.75026 0.58643 0.95805 0.0
H199 H 0.71801 0.61163 0.95866 0.0
Tb200 Tb 0.51505 0.0181 0.93492 0.0
Tb201 Tb 0.47814 0.05485 0.93674 0.0
C202 C 0.53935 0.98388 0.93843 0.0
C203 C 0.53615 0.95247 0.93623 0.0
C204 C 0.52161 0.92851 0.94571 0.0
C205 C 0.52364 0.90107 0.94488 0.0
C206 C 0.54048 0.89702 0.9346 0.0
C207 C 0.55394 0.92044 0.92485 0.0
C208 C 0.5519 0.94785 0.92568 0.0
C209 C 0.49958 0.03549 0.9126 0.0
C210 C 0.43963 0.97987 0.9377 0.0
C211 C 0.45707 0.08928 0.929 0.0
C212 C 0.4678 0.12298 0.93072 0.0
C213 C 0.46532 0.13996 0.92013 0.0
C214 C 0.47919 0.17271 0.92084 0.0
C215 C 0.49575 0.18911 0.9322 0.0
C216 C 0.49751 0.17192 0.94294 0.0
C217 C 0.48386 0.13916 0.94217 0.0
C218 C 0.49899 0.05064 0.96038 0.0
C219 C 0.55336 0.09068 0.93773 0.0
O220 O 0.52031 0.98607 0.94684 0.0
O221 O 0.5454 1.00249 0.92826 0.0
O222 O 0.48382 0.02576 0.92294 0.0
O223 O 0.52543 0.03469 0.91419 0.0
O224 O 0.46658 0.97958 0.93707 0.0
O225 O 0.4382 1.0063 0.93701 0.0
O226 O 0.47632 0.08379 0.92209 0.0
O227 O 0.44623 0.07113 0.93946 0.0
O228 O 0.50261 0.04046 0.94953 0.0
O229 O 0.48251 0.06416 0.95803 0.0
O230 O 0.52793 0.09168 0.93389 0.0
O231 O 0.5521 0.06399 0.94097 0.0
H232 H 0.50977 0.93149 0.9541 0.0
H233 H 0.51325 0.88372 0.95264 0.0
H234 H 0.56667 0.9179 0.91669 0.0
H235 H 0.56373 0.96596 0.9183 0.0
H236 H 0.45341 0.12795 0.91114 0.0
H237 H 0.47714 0.18526 0.91247 0.0
H238 H 0.51036 0.18393 0.95176 0.0
H239 H 0.48666 0.1266 0.95036 0.0
Tb240 Tb 0.19396 0.37749 0.45572 0.0
Tb241 Tb 0.12131 0.33877 0.45007 0.0
C242 C 0.25263 0.4139 0.45708 0.0
C243 C 0.27999 0.44481 0.45338 0.0
C244 C 0.3 0.44673 0.44308 0.0
C245 C 0.32916 0.47412 0.4412 0.0
C246 C 0.33915 0.5001 0.44967 0.0
C247 C 0.31849 0.49869 0.45957 0.0
C248 C 0.28932 0.47138 0.46143 0.0
C249 C 0.15497 0.35541 0.47608 0.0
C250 C 0.15667 0.41265 0.44732 0.0
C251 C 0.06412 0.30401 0.45534 0.0
C252 C 0.04132 0.27033 0.45356 0.0
C253 C 1.01868 0.25451 0.46333 0.0
C254 C 0.99967 0.22176 0.46295 0.0
C255 C 1.0029 0.20423 0.45276 0.0
C256 C 0.02499 0.22024 0.44274 0.0
C257 C 0.04428 0.25304 0.4432 0.0
C258 C 0.15337 0.34701 0.42808 0.0
C259 C 0.16247 0.30457 0.45269 0.0
O260 O 0.23888 0.39237 0.4479 0.0
O261 O 0.23258 0.41357 0.46569 0.0
O262 O 0.15135 0.36674 0.46559 0.0
O263 O 0.18192 0.35653 0.47564 0.0
O264 O 0.18388 0.41293 0.44778 0.0
O265 O 0.12905 0.38676 0.44942 0.0
O266 O 0.08701 0.30962 0.46354 0.0
O267 O 0.07405 0.32172 0.44473 0.0
O268 O 0.16376 0.35663 0.43949 0.0
O269 O 0.12284 0.33134 0.42877 0.0
O270 O 0.13425 0.30218 0.45347 0.0
O271 O 0.18893 0.33195 0.45208 0.0
H272 H 0.29381 0.42654 0.43685 0.0
H273 H 0.34456 0.47429 0.43354 0.0
H274 H 0.32524 0.51845 0.46614 0.0
H275 H 0.27472 0.47069 0.46955 0.0
H276 H 1.01638 0.26741 0.4715 0.0
H277 H 0.98261 0.2101 0.47073 0.0
H278 H 0.02814 0.20729 0.43483 0.0
H279 H 0.0621 0.26476 0.4357 0.0
Tb280 Tb 0.69047 0.84029 0.45697 0.0
Tb281 Tb 0.72827 0.80543 0.45128 0.0
C282 C 0.65559 0.86415 0.45875 0.0
C283 C 0.62514 0.86258 0.45615 0.0
C284 C 0.61151 0.8572 0.44353 0.0
C285 C 0.58488 0.86032 0.4413 0.0
C286 C 0.57176 0.86926 0.4516 0.0
C287 C 0.58492 0.87351 0.46426 0.0
C288 C 0.61123 0.87018 0.46649 0.0
C289 C 0.71313 0.82356 0.47727 0.0
C290 C 0.65411 0.76755 0.44909 0.0
C291 C 0.76256 0.78231 0.45642 0.0
C292 C 0.79595 0.79205 0.4544 0.0
C293 C 0.81201 0.78586 0.46433 0.0
C294 C 0.84449 0.79782 0.46346 0.0
C295 C 0.86166 0.81619 0.45259 0.0
C296 C 0.84529 0.8219 0.44253 0.0
C297 C 0.81276 0.81011 0.44347 0.0
C298 C 0.71959 0.82911 0.42927 0.0
C299 C 0.76333 0.88079 0.45365 0.0
O300 O 0.67501 0.86966 0.44892 0.0
O301 O 0.6562 0.84486 0.46753 0.0
O302 O 0.70114 0.8083 0.4669 0.0
O303 O 0.7125 0.84963 0.47671 0.0
O304 O 0.65412 0.79462 0.44955 0.0
O305 O 0.67995 0.76558 0.45098 0.0
O306 O 0.758 0.80035 0.46454 0.0
O307 O 0.74423 0.77439 0.44597 0.0
O308 O 0.71057 0.83029 0.44072 0.0
O309 O 0.73493 0.81393 0.42991 0.0
O310 O 0.76532 0.85479 0.45465 0.0
O311 O 0.73613 0.88022 0.4529 0.0
H312 H 0.62188 0.85148 0.43536 0.0
H313 H 0.57529 0.85692 0.43143 0.0
H314 H 0.5751 0.87984 0.47245 0.0
H315 H 0.62139 0.8746 0.47628 0.0
H316 H 0.79955 0.7725 0.47297 0.0
H317 H 0.85623 0.79341 0.47153 0.0
H318 H 0.85759 0.83561 0.43394 0.0
H319 H 0.8009 0.81559 0.43578 0.0
Tb320 Tb 0.22884 0.87284 0.45537 0.0
Tb321 Tb 0.26183 0.94536 0.44996 0.0
C322 C 0.20645 0.81422 0.45683 0.0
C323 C 0.20902 0.78597 0.45404 0.0
C324 C 0.20974 0.77584 0.44116 0.0
C325 C 0.20692 0.74623 0.43899 0.0
C326 C 0.2029 0.72615 0.44965 0.0
C327 C 0.20347 0.737 0.46249 0.0
C328 C 0.20649 0.7665 0.46465 0.0
C329 C 0.24616 0.91168 0.47589 0.0
C330 C 0.30131 0.91083 0.44736 0.0
C331 C 0.28337 1.00266 0.4548 0.0
C332 C 0.27242 0.02496 0.45184 0.0
C333 C 0.28863 0.05552 0.45701 0.0
C334 C 0.27641 0.07574 0.45555 0.0
C335 C 0.24761 0.06564 0.44894 0.0
C336 C 0.23177 0.03511 0.44354 0.0
C337 C 0.24408 1.01496 0.44498 0.0
C338 C 0.23782 0.91369 0.42782 0.0
C339 C 0.18662 0.90345 0.45276 0.0
O340 O 0.20017 0.828 0.44716 0.0
O341 O 0.22551 0.83418 0.46566 0.0
O342 O 0.26073 0.91556 0.46531 0.0
O343 O 0.22052 0.88454 0.47547 0.0
O344 O 0.27455 0.88342 0.4476 0.0
O345 O 0.30255 0.93819 0.44958 0.0
O346 O 0.26502 0.97994 0.46284 0.0
O347 O 0.2927 0.99251 0.44476 0.0
O348 O 0.23723 0.90298 0.43915 0.0
O349 O 0.25265 0.94415 0.42875 0.0
O350 O 0.2123 0.93169 0.4538 0.0
O351 O 0.18784 0.87722 0.45184 0.0
H352 H 0.21142 0.79025 0.43277 0.0
H353 H 0.20653 0.7385 0.42897 0.0
H354 H 0.20096 0.72236 0.47092 0.0
H355 H 0.20562 0.77361 0.47466 0.0
H356 H 0.3103 0.06346 0.4625 0.0
H357 H 0.28901 0.09892 0.45997 0.0
H358 H 0.20977 0.02671 0.43827 0.0
H359 H 0.2311 0.9913 0.441 0.0
Tb360 Tb 0.7167 0.85188 0.26721 0.0
Tb361 Tb 0.67954 0.77879 0.27159 0.0
C362 C 0.75114 0.91089 0.26664 0.0
C363 C 0.78237 0.93922 0.26892 0.0
C364 C 0.79467 0.94962 0.28163 0.0
C365 C 0.8216 0.97933 0.28346 0.0
C366 C 0.83643 0.99929 0.27264 0.0
C367 C 0.82474 0.9882 0.25994 0.0
C368 C 0.79808 0.9586 0.25811 0.0
C369 C 0.69452 0.8147 0.24626 0.0
C370 C 0.75393 0.81531 0.27353 0.0
C371 C 0.64566 0.72191 0.26544 0.0
C372 C 0.61228 0.6982 0.26723 0.0
C373 C 0.59811 0.67257 0.25857 0.0
C374 C 0.56553 0.65218 0.25882 0.0
C375 C 0.54653 0.657 0.26779 0.0
C376 C 0.56097 0.68224 0.27673 0.0
C377 C 0.59358 0.70285 0.27638 0.0
C378 C 0.68722 0.80837 0.29429 0.0
C379 C 0.64382 0.81862 0.27069 0.0
O380 O 0.73363 0.89542 0.27677 0.0
O381 O 0.74846 0.89238 0.25682 0.0
O382 O 0.70662 0.81053 0.25641 0.0
O383 O 0.69453 0.84101 0.24748 0.0
O384 O 0.7539 0.84238 0.27322 0.0
O385 O 0.72794 0.78747 0.27189 0.0
O386 O 0.65029 0.74535 0.2578 0.0
O387 O 0.66366 0.73128 0.27599 0.0
O388 O 0.69667 0.8201 0.28304 0.0
O389 O 0.67217 0.77796 0.29294 0.0
O390 O 0.64209 0.7909 0.269 0.0
O391 O 0.67092 0.84528 0.27173 0.0
H392 H 0.78291 0.93537 0.29018 0.0
H393 H 0.82998 0.98723 0.29338 0.0
H394 H 0.83589 1.00271 0.25138 0.0
H395 H 0.78898 0.95136 0.24822 0.0
H396 H 0.61215 0.66883 0.25136 0.0
H397 H 0.55514 0.63275 0.25191 0.0
H398 H 0.54692 0.6867 0.28367 0.0
H399 H 0.60406 0.72291 0.28298 0.0
Tb400 Tb 0.21488 0.88959 0.26641 0.0
Tb401 Tb 0.28687 0.9202 0.27305 0.0
C402 C 0.15662 0.86928 0.2645 0.0
C403 C 0.12861 0.87016 0.26948 0.0
C404 C 0.10839 0.84751 0.27861 0.0
C405 C 0.0787 0.84372 0.2813 0.0
C406 C 0.06836 0.86236 0.27487 0.0
C407 C 0.08923 0.88609 0.26624 0.0
C408 C 0.11893 0.88985 0.26353 0.0
C409 C 0.25528 0.90812 0.24645 0.0
C410 C 0.25334 0.96015 0.27658 0.0
C411 C 0.34453 0.94147 0.26929 0.0
C412 C 0.36608 0.92962 0.27227 0.0
C413 C 0.39712 0.94592 0.26767 0.0
C414 C 0.41666 0.93289 0.26903 0.0
C415 C 0.40539 0.9032 0.27497 0.0
C416 C 0.37439 0.88728 0.27984 0.0
C417 C 0.3549 0.90038 0.2785 0.0
C418 C 0.25247 0.89413 0.29437 0.0
C419 C 0.2439 0.84582 0.26856 0.0
O420 O 0.16888 0.85624 0.27193 0.0
O421 O 0.17798 0.89353 0.25785 0.0
O422 O 0.25886 0.92147 0.25734 0.0
O423 O 0.22736 0.88354 0.24612 0.0
O424 O 0.22588 0.93349 0.27619 0.0
O425 O 0.28052 0.96134 0.274 0.0
O426 O 0.3226 0.92441 0.26067 0.0
O427 O 0.33351 0.94975 0.27937 0.0
O428 O 0.24335 0.89554 0.28295 0.0
O429 O 0.28296 0.90791 0.29409 0.0
O430 O 0.27254 0.87106 0.26816 0.0
O431 O 0.21801 0.84773 0.26934 0.0
H432 H 0.11487 0.83166 0.28326 0.0
H433 H 0.06346 0.82555 0.28816 0.0
H434 H 0.082 0.90069 0.26101 0.0
H435 H 0.13364 0.90718 0.25628 0.0
H436 H 0.40595 0.96829 0.26266 0.0
H437 H 0.44025 0.9456 0.26502 0.0
H438 H 0.36509 0.86458 0.28459 0.0
H439 H 0.33086 0.88734 0.28202 0.0
Tb440 Tb 0.17643 0.34523 0.26616 0.0
Tb441 Tb 0.14473 0.38621 0.27061 0.0
C442 C 0.19745 0.30775 0.26559 0.0
C443 C 0.19472 0.27757 0.26994 0.0
C444 C 0.21346 0.27714 0.28037 0.0
C445 C 0.21645 0.25057 0.28266 0.0
C446 C 0.20105 0.22393 0.27448 0.0
C447 C 0.181 0.22377 0.2645 0.0
C448 C 0.17793 0.25026 0.26225 0.0
C449 C 0.15973 0.36586 0.24509 0.0
C450 C 0.1045 0.31264 0.27453 0.0
C451 C 0.12321 0.42142 0.26463 0.0
C452 C 0.13329 0.45485 0.26653 0.0
C453 C 0.126 0.47042 0.25678 0.0
C454 C 0.13871 0.50301 0.25734 0.0
C455 C 0.15893 0.52065 0.2677 0.0
C456 C 0.16554 0.50487 0.27768 0.0
C457 C 0.15302 0.47221 0.27704 0.0
C458 C 0.16792 0.3792 0.29313 0.0
C459 C 0.21978 0.41811 0.26799 0.0
O460 O 0.20683 0.33087 0.27411 0.0
O461 O 0.17646 0.30674 0.25726 0.0
O462 O 0.14519 0.35617 0.25575 0.0
O463 O 0.18499 0.36374 0.24576 0.0
O464 O 0.13109 0.31173 0.27474 0.0
O465 O 0.10361 0.33861 0.27153 0.0
O466 O 0.14189 0.41657 0.25702 0.0
O467 O 0.11405 0.40315 0.27509 0.0
O468 O 0.16843 0.36828 0.28197 0.0
O469 O 0.15385 0.3955 0.29178 0.0
O470 O 0.19452 0.42132 0.2667 0.0
O471 O 0.21787 0.39041 0.26933 0.0
H472 H 0.22714 0.29793 0.28636 0.0
H473 H 0.23224 0.25159 0.29037 0.0
H474 H 0.16838 0.20345 0.25816 0.0
H475 H 0.16356 0.24981 0.25404 0.0
H476 H 0.11115 0.45744 0.2485 0.0
H477 H 0.13291 0.51447 0.2496 0.0
H478 H 0.18123 0.5179 0.28573 0.0
H479 H 0.15942 0.46067 0.28453 0.0
Tb480 Tb 0.86265 0.70921 0.78949 0.0
Tb481 Tb 0.78967 0.67218 0.78615 0.0
C482 C 0.92174 0.74381 0.78994 0.0
C483 C 0.9502 0.77507 0.78796 0.0
C484 C 0.9604 0.78837 0.7754 0.0
C485 C 0.99027 0.81521 0.77376 0.0
C486 C 1.01058 0.82889 0.78462 0.0
C487 C 0.99969 0.81624 0.7972 0.0
C488 C 0.96993 0.78971 0.79884 0.0
C489 C 0.82702 0.68778 0.8109 0.0
C490 C 0.82578 0.74641 0.78402 0.0
C491 C 0.73341 0.63779 0.79304 0.0
C492 C 0.70968 0.6044 0.79115 0.0
C493 C 0.68678 0.58886 0.80086 0.0
C494 C 0.66667 0.55626 0.80025 0.0
C495 C 0.66911 0.53855 0.78991 0.0
C496 C 0.69159 0.55434 0.77999 0.0
C497 C 0.71188 0.58699 0.78065 0.0
C498 C 0.81638 0.67915 0.76283 0.0
C499 C 0.82983 0.63669 0.78599 0.0
O500 O 0.906 0.727 0.77969 0.0
O501 O 0.90346 0.74049 0.79992 0.0
O502 O 0.82243 0.69988 0.80089 0.0
O503 O 0.85267 0.68677 0.80919 0.0
O504 O 0.8528 0.74628 0.78366 0.0
O505 O 0.7982 0.72053 0.78625 0.0
O506 O 0.75759 0.64233 0.80018 0.0
O507 O 0.74172 0.65624 0.78266 0.0
O508 O 0.82983 0.68875 0.77385 0.0
O509 O 0.78622 0.66493 0.76485 0.0
O510 O 0.80231 0.63491 0.78838 0.0
O511 O 0.85619 0.66378 0.78449 0.0
H512 H 0.94588 0.77745 0.7668 0.0
H513 H 0.99802 0.82437 0.76393 0.0
H514 H 1.01452 0.82648 0.80578 0.0
H515 H 0.96285 0.77982 0.80861 0.0
H516 H 0.68504 0.60185 0.80913 0.0
H517 H 0.64938 0.54486 0.80796 0.0
H518 H 0.69424 0.54132 0.77197 0.0
H519 H 0.72987 0.59847 0.7732 0.0
Tb520 Tb 0.35827 0.16971 0.78968 0.0
Tb521 Tb 0.39841 0.13724 0.78483 0.0
C522 C 0.3211 0.19106 0.79073 0.0
C523 C 0.2899 0.18722 0.78731 0.0
C524 C 0.28382 0.19533 0.77479 0.0
C525 C 0.25667 0.19741 0.77254 0.0
C526 C 0.23508 0.19163 0.78277 0.0
C527 C 0.24065 0.18227 0.79512 0.0
C528 C 0.2677 0.18016 0.79735 0.0
C529 C 0.38048 0.15381 0.81043 0.0
C530 C 0.32444 0.09703 0.78198 0.0
C531 C 0.43436 0.11637 0.79045 0.0
C532 C 0.46814 0.12739 0.78842 0.0
C533 C 0.48719 0.13183 0.79947 0.0
C534 C 0.51976 0.14523 0.79814 0.0
C535 C 0.53396 0.15418 0.78569 0.0
C536 C 0.51479 0.1489 0.77456 0.0
C537 C 0.48217 0.13584 0.77592 0.0
C538 C 0.39047 0.16011 0.76241 0.0
C539 C 0.431 0.21253 0.78732 0.0
O540 O 0.34213 0.19834 0.78141 0.0
O541 O 0.32204 0.17206 0.79958 0.0
O542 O 0.36953 0.13864 0.79997 0.0
O543 O 0.37915 0.17949 0.80971 0.0
O544 O 0.3235 0.12362 0.782 0.0
O545 O 0.35074 0.09621 0.78435 0.0
O546 O 0.42884 0.13414 0.79835 0.0
O547 O 0.41566 0.10693 0.78009 0.0
O548 O 0.38019 0.16098 0.77366 0.0
O549 O 0.4065 0.14572 0.7636 0.0
O550 O 0.43395 0.1871 0.78852 0.0
O551 O 0.40337 0.21085 0.7861 0.0
H552 H 0.30057 0.20123 0.76686 0.0
H553 H 0.25295 0.20422 0.76286 0.0
H554 H 0.22494 0.17809 0.8033 0.0
H555 H 0.27196 0.17446 0.80717 0.0
H556 H 0.47691 0.12558 0.80921 0.0
H557 H 0.53388 0.14864 0.80686 0.0
H558 H 0.52515 0.15573 0.76486 0.0
H559 H 0.4681 0.133 0.76724 0.0
Tb560 Tb 0.89653 0.20727 0.78624 0.0
Tb561 Tb 0.93347 0.28033 0.78287 0.0
C562 C 0.87229 0.14819 0.78651 0.0
C563 C 0.87649 0.12065 0.78401 0.0
C564 C 0.86818 0.10496 0.77181 0.0
C565 C 0.86639 0.07567 0.7703 0.0
C566 C 0.87261 0.06122 0.78098 0.0
C567 C 0.88208 0.07756 0.79302 0.0
C568 C 0.88392 0.10679 0.79452 0.0
C569 C 0.91121 0.24309 0.80763 0.0
C570 C 0.97077 0.24359 0.78088 0.0
C571 C 0.95573 0.33677 0.78962 0.0
C572 C 0.94576 0.36021 0.78767 0.0
C573 C 0.95633 0.38557 0.79643 0.0
C574 C 0.94373 0.40559 0.79596 0.0
C575 C 0.92021 0.40057 0.78671 0.0
C576 C 0.91024 0.37553 0.77771 0.0
C577 C 0.92277 0.35541 0.77824 0.0
C578 C 0.91295 0.25323 0.75959 0.0
C579 C 0.85774 0.24106 0.78286 0.0
O580 O 0.87012 0.16387 0.77647 0.0
O581 O 0.88754 0.16653 0.79646 0.0
O582 O 0.92783 0.24746 0.79764 0.0
O583 O 0.88442 0.21748 0.80594 0.0
O584 O 0.94338 0.2168 0.7804 0.0
O585 O 0.9729 0.27132 0.78314 0.0
O586 O 0.93637 0.31277 0.79686 0.0
O587 O 0.9655 0.32819 0.77922 0.0
O588 O 0.90927 0.24004 0.77064 0.0
O589 O 0.9293 0.2834 0.76154 0.0
O590 O 0.88387 0.26833 0.78518 0.0
O591 O 0.85778 0.21434 0.78136 0.0
H592 H 0.86189 0.1147 0.76355 0.0
H593 H 0.85948 0.06405 0.76082 0.0
H594 H 0.88662 0.06711 0.80154 0.0
H595 H 0.88976 0.11783 0.80413 0.0
H596 H 0.97371 0.38934 0.8039 0.0
H597 H 0.95222 0.42487 0.80292 0.0
H598 H 0.89194 0.37082 0.77057 0.0
H599 H 0.91383 0.33552 0.77156 0.0
Tb600 Tb 0.38501 0.18623 0.59992 0.0
Tb601 Tb 0.34423 0.11443 0.60687 0.0
C602 C 0.42288 0.24438 0.59771 0.0
C603 C 0.45344 0.27196 0.60159 0.0
C604 C 0.45806 0.28609 0.61406 0.0
C605 C 0.4849 0.31536 0.61662 0.0
C606 C 0.50762 0.33122 0.60677 0.0
C607 C 0.50344 0.31636 0.59449 0.0
C608 C 0.47671 0.28718 0.59194 0.0
C609 C 0.36263 0.14521 0.58018 0.0
C610 C 0.41799 0.14811 0.60978 0.0
C611 C 0.30794 0.05694 0.60261 0.0
C612 C 0.27432 0.03463 0.6048 0.0
C613 C 0.25825 1.00987 0.59585 0.0
C614 C 0.22551 0.99103 0.59645 0.0
C615 C 0.20822 0.99657 0.60604 0.0
C616 C 0.22449 0.02079 0.61528 0.0
C617 C 0.25731 0.0399 0.61459 0.0
C618 C 0.35373 0.1491 0.62816 0.0
C619 C 0.31217 0.15709 0.6024 0.0
O620 O 0.39996 0.23222 0.60636 0.0
O621 O 0.42343 0.22304 0.59012 0.0
O622 O 0.37296 0.14213 0.59105 0.0
O623 O 0.36544 0.1729 0.57979 0.0
O624 O 0.41896 0.17561 0.60903 0.0
O625 O 0.39172 0.12076 0.60772 0.0
O626 O 0.31327 0.07916 0.59411 0.0
O627 O 0.32641 0.0676 0.61301 0.0
O628 O 0.36329 0.15816 0.61663 0.0
O629 O 0.33753 0.11855 0.62803 0.0
O630 O 0.30878 0.12844 0.60272 0.0
O631 O 0.33997 0.18312 0.60252 0.0
H632 H 0.44048 0.27513 0.6217 0.0
H633 H 0.48754 0.32586 0.62625 0.0
H634 H 0.52008 0.32793 0.58658 0.0
H635 H 0.47354 0.27718 0.58217 0.0
H636 H 0.27095 1.00575 0.58812 0.0
H637 H 0.21364 0.97232 0.58929 0.0
H638 H 0.21172 0.02569 0.62272 0.0
H639 H 0.26926 0.05934 0.62143 0.0
Tb640 Tb 0.87788 0.22055 0.59824 0.0
Tb641 Tb 0.95044 0.25586 0.60421 0.0
C642 C 0.81909 0.19746 0.59692 0.0
C643 C 0.79158 0.2006 0.60076 0.0
C644 C 0.77286 0.18359 0.61156 0.0
C645 C 0.74363 0.1814 0.61375 0.0
C646 C 0.73227 0.19593 0.60512 0.0
C647 C 0.75163 0.21408 0.59467 0.0
C648 C 0.78087 0.21632 0.59249 0.0
C649 C 0.91727 0.23615 0.57807 0.0
C650 C 0.9146 0.29406 0.60521 0.0
C651 C 1.00783 0.27708 0.59971 0.0
C652 C 0.02956 0.26483 0.60196 0.0
C653 C 1.0207 0.23366 0.59859 0.0
C654 C 0.04171 0.22252 0.60024 0.0
C655 C 0.07211 0.24223 0.60533 0.0
C656 C 0.08076 0.2733 0.60889 0.0
C657 C 0.05968 0.28448 0.6072 0.0
C658 C 0.91792 0.23552 0.62635 0.0
C659 C 0.9098 0.18001 0.60288 0.0
O660 O 0.83319 0.19004 0.60608 0.0
O661 O 0.83888 0.21729 0.58825 0.0
O662 O 0.92056 0.25189 0.58827 0.0
O663 O 0.89031 0.2103 0.57864 0.0
O664 O 0.88758 0.26684 0.60505 0.0
O665 O 0.94244 0.29593 0.60358 0.0
O666 O 0.98545 0.26157 0.59105 0.0
O667 O 0.99762 0.28491 0.61018 0.0
O668 O 0.9078 0.23168 0.6147 0.0
O669 O 0.94843 0.25214 0.62578 0.0
O670 O 0.93794 0.20599 0.6022 0.0
O671 O 0.88319 0.18065 0.6028 0.0
H672 H 0.78009 0.17072 0.61799 0.0
H673 H 0.72927 0.167 0.62183 0.0
H674 H 0.74385 0.22599 0.58795 0.0
H675 H 0.79445 0.22933 0.58399 0.0
H676 H 0.99767 0.21792 0.59447 0.0
H677 H 0.03434 0.19866 0.59719 0.0
H678 H 0.10382 0.28901 0.61301 0.0
H679 H 0.06701 0.30855 0.60989 0.0
Tb680 Tb 0.8442 0.68399 0.60233 0.0
Tb681 Tb 0.80898 0.72151 0.60627 0.0
C682 C 0.86734 0.64827 0.60179 0.0
C683 C 0.86523 0.61822 0.60593 0.0
C684 C 0.88775 0.61902 0.61476 0.0
C685 C 0.8906 0.59231 0.61678 0.0
C686 C 0.87111 0.56412 0.60996 0.0
C687 C 0.84749 0.56286 0.60164 0.0
C688 C 0.84465 0.58961 0.59961 0.0
C689 C 0.82901 0.7054 0.58111 0.0
C690 C 0.77092 0.64776 0.60892 0.0
C691 C 0.78722 0.75655 0.60031 0.0
C692 C 0.79799 0.78986 0.60306 0.0
C693 C 0.78301 0.80457 0.59704 0.0
C694 C 0.79523 0.83704 0.59848 0.0
C695 C 0.82284 0.85539 0.60589 0.0
C696 C 0.83745 0.84034 0.61209 0.0
C697 C 0.82513 0.80787 0.61069 0.0
C698 C 0.83004 0.71423 0.62932 0.0
C699 C 0.88457 0.75667 0.60534 0.0
O700 O 0.87496 0.67043 0.61063 0.0
O701 O 0.847 0.64727 0.59312 0.0
O702 O 0.81297 0.69377 0.59129 0.0
O703 O 0.85523 0.70526 0.5824 0.0
O704 O 0.7982 0.64824 0.60968 0.0
O705 O 0.76909 0.67329 0.6061 0.0
O706 O 0.80622 0.75209 0.59273 0.0
O707 O 0.77715 0.73723 0.61041 0.0
O708 O 0.83303 0.7046 0.6182 0.0
O709 O 0.81423 0.72866 0.62758 0.0
O710 O 0.85865 0.75846 0.60351 0.0
O711 O 0.88393 0.72958 0.60664 0.0
H712 H 0.9042 0.64076 0.61967 0.0
H713 H 0.90868 0.59402 0.62343 0.0
H714 H 0.8322 0.54166 0.59614 0.0
H715 H 0.82728 0.58821 0.59261 0.0
H716 H 0.76231 0.7911 0.59096 0.0
H717 H 0.78361 0.84791 0.59345 0.0
H718 H 0.85851 0.85367 0.61799 0.0
H719 H 0.83716 0.79693 0.61534 0.0
H720 H 0.44957 0.9092 0.1177 0.0
H721 H 0.45403 0.8614 0.11691 0.0
H722 H 0.5549 0.9183 0.12094 0.0
H723 H 0.55088 0.96561 0.12167 0.0
H724 H 0.53449 0.87435 0.09991 0.0
H725 H 0.47731 0.81946 0.14754 0.0
H726 H 0.4561 0.83086 0.13643 0.0
H727 H 0.49173 0.86055 0.14402 0.0
C728 C 0.47265 0.91145 0.11849 0.0
C729 C 0.49984 0.94133 0.11972 0.0
C730 C 0.47515 0.88413 0.11809 0.0
C731 C 0.50483 0.88633 0.11892 0.0
C732 C 0.53179 0.91604 0.12026 0.0
H733 H 0.58159 0.76783 0.1362 0.0
H734 H 0.56037 0.80362 0.13615 0.0
C735 C 0.52936 0.94314 0.12068 0.0
C736 C 0.50866 0.8582 0.11803 0.0
H737 H 0.49904 0.79418 0.13533 0.0
C738 C 0.52637 0.85653 0.10755 0.0
C739 C 0.49834 0.83525 0.1281 0.0
C740 C 0.47995 0.83649 0.13973 0.0
C741 C 0.53488 0.83315 0.10705 0.0
C742 C 0.52494 0.81039 0.11721 0.0
C743 C 0.50651 0.81155 0.12753 0.0
C744 C 0.53531 0.78662 0.1177 0.0
C745 C 0.55576 0.83399 0.09597 0.0
C746 C 0.52769 0.76465 0.1075 0.0
C747 C 0.53991 0.74425 0.10748 0.0
C748 C 0.55973 0.74517 0.11773 0.0
C749 C 0.56627 0.76636 0.1282 0.0
C750 C 0.55418 0.78687 0.12817 0.0
H751 H 0.567 0.85691 0.09069 0.0
H752 H 0.57457 0.82968 0.09972 0.0
H753 H 0.54136 0.81523 0.08875 0.0
H754 H 0.51263 0.76356 0.09946 0.0
H755 H 0.53391 0.72779 0.09941 0.0
H756 H 0.34352 0.828 0.13525 0.0
H757 H 0.30875 0.7708 0.13606 0.0
H758 H 0.2698 0.77343 0.09826 0.0
H759 H 0.30475 0.83046 0.09733 0.0
H760 H 0.24664 0.73902 0.13682 0.0
H761 H 0.28396 0.7004 0.09278 0.0
H762 H 0.30693 0.73959 0.0995 0.0
H763 H 0.27415 0.73003 0.08868 0.0
C764 C 0.32769 0.81633 0.12707 0.0
C765 C 0.32693 0.83377 0.11622 0.0
C766 C 0.30793 0.78361 0.12751 0.0
C767 C 0.287 0.76762 0.11712 0.0
C768 C 0.28638 0.78499 0.10623 0.0
H769 H 0.10611 0.60637 0.11803 0.0
H770 H 0.15397 0.65729 0.11893 0.0
C771 C 0.30629 0.81767 0.10573 0.0
C772 C 0.26392 0.73332 0.11814 0.0
H773 H 0.23192 0.66395 0.10107 0.0
C774 C 0.24383 0.72256 0.12909 0.0
C775 C 0.2605 0.71153 0.10821 0.0
C776 C 0.28279 0.72092 0.09671 0.0
C777 C 0.21935 0.69118 0.13001 0.0
C778 C 0.21431 0.67007 0.11957 0.0
C779 C 0.23551 0.68025 0.10899 0.0
C780 C 0.18554 0.63848 0.11893 0.0
C781 C 0.19873 0.68107 0.14209 0.0
C782 C 0.18729 0.61076 0.11819 0.0
C783 C 0.15966 0.58121 0.11758 0.0
C784 C 0.12991 0.57901 0.1176 0.0
C785 C 0.12848 0.60696 0.11812 0.0
C786 C 0.15591 0.63624 0.11871 0.0
H787 H 0.21148 0.69591 0.15074 0.0
H788 H 0.1779 0.68378 0.14022 0.0
H789 H 0.19033 0.65604 0.14457 0.0
H790 H 0.20998 0.61199 0.11821 0.0
H791 H 0.16163 0.56021 0.1171 0.0
H792 H 0.23534 0.4668 0.10977 0.0
H793 H 0.29249 0.49009 0.11041 0.0
H794 H 0.30338 0.58221 0.11578 0.0
H795 H 0.24599 0.55914 0.11494 0.0
H796 H 0.33747 0.53852 0.09323 0.0
H797 H 0.35663 0.57417 0.14604 0.0
H798 H 0.31838 0.54551 0.13971 0.0
H799 H 0.33426 0.58653 0.13614 0.0
C800 C 0.2498 0.49206 0.11098 0.0
C801 C 0.23597 0.51107 0.11226 0.0
C802 C 0.2825 0.50531 0.11142 0.0
C803 C 0.30217 0.53783 0.11324 0.0
C804 C 0.2886 0.55699 0.11456 0.0
H805 H 0.51034 0.62363 0.11979 0.0
H806 H 0.45899 0.62116 0.1179 0.0
C807 C 0.25579 0.54373 0.1141 0.0
C808 C 0.33685 0.55131 0.11345 0.0
H809 H 0.40073 0.58149 0.13401 0.0
C810 C 0.3514 0.54836 0.10209 0.0
C811 C 0.35505 0.56443 0.12498 0.0
C812 C 0.34043 0.5678 0.13747 0.0
C813 C 0.38331 0.55688 0.10212 0.0
C814 C 0.40103 0.56817 0.11387 0.0
C815 C 0.38705 0.57286 0.12502 0.0
C816 C 0.43231 0.57063 0.1152 0.0
C817 C 0.39758 0.55269 0.08969 0.0
C818 C 0.43413 0.54307 0.11455 0.0
C819 C 0.46304 0.54434 0.11567 0.0
C820 C 0.49104 0.57327 0.1175 0.0
C821 C 0.48925 0.60099 0.11833 0.0
C822 C 0.45999 0.59964 0.11727 0.0
H823 H 0.38439 0.55289 0.08081 0.0
H824 H 0.42261 0.57148 0.08871 0.0
H825 H 0.39669 0.52964 0.09004 0.0
H826 H 0.41301 0.52041 0.11317 0.0
H827 H 0.46331 0.52243 0.11502 0.0
H828 H 0.91619 0.43849 0.93806 0.0
H829 H 0.86893 0.44364 0.93984 0.0
H830 H 0.92508 0.54301 0.93161 0.0
H831 H 0.97193 0.53832 0.93008 0.0
H832 H 0.88787 0.5313 0.95306 0.0
H833 H 0.81787 0.45628 0.91093 0.0
H834 H 0.83048 0.43785 0.92291 0.0
H835 H 0.85923 0.46951 0.91301 0.0
C836 C 0.91835 0.46136 0.93655 0.0
C837 C 0.94794 0.488 0.934 0.0
C838 C 0.8913 0.46424 0.93751 0.0
C839 C 0.89342 0.49372 0.93578 0.0
C840 C 0.92284 0.52006 0.93303 0.0
H841 H 0.76464 0.5591 0.91861 0.0
H842 H 0.80104 0.53857 0.91843 0.0
C843 C 0.94969 0.51728 0.93216 0.0
C844 C 0.86567 0.4981 0.93726 0.0
H845 H 0.79535 0.48079 0.92322 0.0
C846 C 0.86748 0.52002 0.94661 0.0
C847 C 0.83924 0.48359 0.92877 0.0
C848 C 0.8365 0.46066 0.91825 0.0
C849 C 0.8442 0.52862 0.94745 0.0
C850 C 0.81777 0.51422 0.93893 0.0
C851 C 0.81551 0.49167 0.92979 0.0
C852 C 0.79341 0.52386 0.93882 0.0
C853 C 0.84898 0.55418 0.95703 0.0
C854 C 0.77635 0.52169 0.95024 0.0
C855 C 0.75577 0.53369 0.95041 0.0
C856 C 0.75142 0.54762 0.93908 0.0
C857 C 0.76738 0.54841 0.92748 0.0
C858 C 0.78821 0.53669 0.92737 0.0
H859 H 0.87386 0.56809 0.96039 0.0
H860 H 0.84214 0.57056 0.95255 0.0
H861 H 0.83407 0.54329 0.96583 0.0
H862 H 0.77934 0.51118 0.95911 0.0
H863 H 0.74336 0.5322 0.95942 0.0
H864 H 0.53215 0.23096 0.9132 0.0
H865 H 0.55688 0.28838 0.9136 0.0
H866 H 0.51967 0.28362 0.9525 0.0
H867 H 0.49539 0.22623 0.95224 0.0
H868 H 0.52865 0.32182 0.91474 0.0
H869 H 0.60856 0.3541 0.9576 0.0
H870 H 0.59029 0.31541 0.95023 0.0
H871 H 0.569 0.32524 0.96193 0.0
C872 C 0.52939 0.24219 0.92187 0.0
C873 C 0.51173 0.22407 0.93268 0.0
C874 C 0.5437 0.27502 0.92212 0.0
C875 C 0.54066 0.29048 0.93317 0.0
C876 C 0.52322 0.27242 0.94402 0.0
H877 H 0.52747 0.45393 0.93832 0.0
H878 H 0.52342 0.40267 0.93698 0.0
C879 C 0.50914 0.23957 0.94382 0.0
C880 C 0.55313 0.32507 0.93285 0.0
H881 H 0.59457 0.39285 0.95072 0.0
C882 C 0.54354 0.33738 0.9225 0.0
C883 C 0.57302 0.34565 0.94284 0.0
C884 C 0.58609 0.33447 0.95369 0.0
C885 C 0.55171 0.36916 0.92227 0.0
C886 C 0.56946 0.38912 0.93278 0.0
C887 C 0.58068 0.3774 0.94274 0.0
C888 C 0.5733 0.42093 0.93424 0.0
C889 C 0.54051 0.38096 0.91092 0.0
C890 C 0.60299 0.4484 0.93357 0.0
C891 C 0.60552 0.4782 0.93435 0.0
C892 C 0.57836 0.48077 0.93589 0.0
C893 C 0.54891 0.45303 0.93697 0.0
C894 C 0.54646 0.42356 0.93619 0.0
H895 H 0.53574 0.36608 0.90202 0.0
H896 H 0.51825 0.38013 0.91372 0.0
H897 H 0.55813 0.40568 0.90841 0.0
H898 H 0.62403 0.44679 0.93216 0.0
H899 H 0.62855 0.49909 0.93354 0.0
H900 H 0.60496 0.09908 0.95114 0.0
H901 H 0.65816 0.14401 0.95039 0.0
H902 H 0.62661 0.19315 0.92491 0.0
H903 H 0.57261 0.14794 0.92573 0.0
H904 H 0.69211 0.16506 0.92715 0.0
H905 H 0.68291 0.26078 0.95236 0.0
H906 H 0.6535 0.2197 0.95417 0.0
H907 H 0.65494 0.2404 0.93938 0.0
C908 C 0.6091 0.11953 0.94548 0.0
C909 C 0.58456 0.11979 0.93838 0.0
C910 C 0.6396 0.14525 0.94509 0.0
C911 C 0.6464 0.17193 0.93761 0.0
C912 C 0.6218 0.17293 0.93089 0.0
H913 H 0.83932 0.30127 0.91231 0.0
H914 H 0.78227 0.26588 0.91285 0.0
C915 C 0.591 0.14708 0.93133 0.0
C916 C 0.67976 0.19716 0.93611 0.0
H917 H 0.73256 0.27399 0.94343 0.0
C918 C 0.70093 0.18893 0.93064 0.0
C919 C 0.69121 0.22817 0.94078 0.0
C920 C 0.66961 0.23792 0.9471 0.0
C921 C 0.73327 0.21068 0.92987 0.0
C922 C 0.74478 0.24179 0.93446 0.0
C923 C 0.72362 0.25018 0.93984 0.0
C924 C 0.77891 0.26545 0.93408 0.0
C925 C 0.75497 0.19981 0.92454 0.0
C926 C 0.79583 0.2778 0.94583 0.0
C927 C 0.8285 0.29808 0.94556 0.0
C928 C 0.84483 0.30636 0.93352 0.0
C929 C 0.82758 0.29476 0.92176 0.0
C930 C 0.79496 0.27463 0.92204 0.0
H931 H 0.74357 0.17371 0.92443 0.0
H932 H 0.76152 0.20831 0.91428 0.0
H933 H 0.77693 0.20949 0.93048 0.0
H934 H 0.78389 0.27102 0.95523 0.0
H935 H 0.84109 0.30654 0.95479 0.0
H936 H 0.18583 0.04979 0.45211 0.0
H937 H 0.16353 0.08468 0.45128 0.0
H938 H 0.25583 0.1638 0.44353 0.0
H939 H 0.27813 0.12904 0.44396 0.0
H940 H 0.17842 0.13652 0.46715 0.0
H941 H 0.20218 0.17236 0.41488 0.0
H942 H 0.20377 0.13884 0.4213 0.0
H943 H 0.2367 0.17803 0.42344 0.0
C944 C 0.2013 0.07453 0.45 0.0
C945 C 0.23378 0.08659 0.44804 0.0
C946 C 0.18853 0.09446 0.44962 0.0
C947 C 0.20791 0.12676 0.44715 0.0
C948 C 0.2403 0.13885 0.44519 0.0
H949 H 0.21617 0.30148 0.45024 0.0
H950 H 0.22156 0.25502 0.44868 0.0
C951 C 0.25309 0.11899 0.44559 0.0
C952 C 0.19476 0.14825 0.44717 0.0
H953 H 0.19203 0.20549 0.42904 0.0
C954 C 0.18083 0.15121 0.45875 0.0
C955 C 0.19768 0.16719 0.43616 0.0
C956 C 0.21059 0.16375 0.4232 0.0
C957 C 0.1716 0.17405 0.45986 0.0
C958 C 0.17618 0.19414 0.44909 0.0
C959 C 0.18866 0.19011 0.43731 0.0
C960 C 0.17171 0.22179 0.45027 0.0
C961 C 0.15864 0.17773 0.47277 0.0
C962 C 0.14171 0.21854 0.4517 0.0
C963 C 0.13841 0.24533 0.4526 0.0
C964 C 0.1651 0.27571 0.45209 0.0
C965 C 0.19501 0.27859 0.4507 0.0
C966 C 0.19822 0.252 0.44977 0.0
H967 H 0.15982 0.16259 0.48063 0.0
H968 H 0.17186 0.20266 0.47607 0.0
H969 H 0.13364 0.17127 0.47141 0.0
H970 H 0.1209 0.19536 0.45198 0.0
H971 H 0.11504 0.24223 0.4536 0.0
H972 H 0.99269 0.16473 0.47341 0.0
H973 H 0.95906 0.10743 0.47398 0.0
H974 H 0.93569 0.1077 0.43302 0.0
H975 H 0.96993 0.165 0.43234 0.0
H976 H 0.89789 0.07532 0.47057 0.0
H977 H 0.95203 0.03524 0.43328 0.0
H978 H 0.97188 0.07491 0.4397 0.0
H979 H 0.94331 0.06393 0.42665 0.0
C980 C 0.98055 0.15251 0.4645 0.0
C981 C 0.9838 0.16932 0.45284 0.0
C982 C 0.96148 0.11976 0.46482 0.0
C983 C 0.94517 0.10311 0.4535 0.0
C984 C 0.94871 0.11983 0.44178 0.0
H985 H 0.76767 0.93721 0.44834 0.0
H986 H 0.81417 0.98925 0.4489 0.0
C987 C 0.96809 0.15261 0.44142 0.0
C988 C 0.9222 0.06879 0.4543 0.0
H989 H 0.89814 0.9981 0.43912 0.0
C990 C 0.89831 0.05843 0.46381 0.0
C991 C 0.9229 0.04652 0.44564 0.0
C992 C 0.94913 0.05566 0.43585 0.0
C993 C 0.87434 0.02684 0.46447 0.0
C994 C 0.87376 1.00506 0.4552 0.0
C995 C 0.89844 1.01494 0.44612 0.0
C996 C 0.84625 0.97281 0.45416 0.0
C997 C 0.84948 0.01714 0.47499 0.0
C998 C 0.84903 0.94605 0.45647 0.0
C999 C 0.82224 0.91586 0.45611 0.0
C1000 C 0.79238 0.91213 0.4534 0.0
C1001 C 0.79011 0.93906 0.45066 0.0
C1002 C 0.81671 0.96897 0.45099 0.0
H1003 H 0.85825 0.03353 0.48352 0.0
H1004 H 0.82875 0.0176 0.47083 0.0
H1005 H 0.84161 0.99291 0.47855 0.0
H1006 H 0.87175 0.94857 0.45882 0.0
H1007 H 0.82484 0.89561 0.45818 0.0
H1008 H 0.13108 0.85169 0.44595 0.0
H1009 H 0.07885 0.8459 0.44519 0.0
H1010 H 0.11738 0.94232 0.4576 0.0
H1011 H 0.17044 0.94862 0.45832 0.0
H1012 H 0.06056 0.89185 0.47213 0.0
H1013 H 0.04607 0.88808 0.41783 0.0
H1014 H 0.06133 0.86412 0.42418 0.0
H1015 H 0.08424 0.9062 0.42577 0.0
C1016 C 0.12869 0.87182 0.44852 0.0
C1017 C 0.15506 0.90064 0.45225 0.0
C1018 C 0.09874 0.86845 0.44799 0.0
C1019 C 0.09433 0.89373 0.45121 0.0
C1020 C 0.12042 0.92259 0.455 0.0
H1021 H 0.90637 0.87427 0.44319 0.0
H1022 H 0.96364 0.89684 0.44278 0.0
C1023 C 0.15066 0.92612 0.45541 0.0
C1024 C 0.06203 0.88903 0.45103 0.0
H1025 H 0.99902 0.86794 0.43063 0.0
C1026 C 0.04723 0.88719 0.46306 0.0
C1027 C 0.04477 0.88305 0.43917 0.0
C1028 C 0.05991 0.88569 0.42597 0.0
C1029 C 1.01508 0.87787 0.46357 0.0
C1030 C 0.9974 0.87013 0.45176 0.0
C1031 C 1.01261 0.87365 0.43968 0.0
C1032 C 0.96274 0.8565 0.45183 0.0
C1033 C 1.0 0.87561 0.47674 0.0
C1034 C 0.9433 0.82609 0.4568 0.0
C1035 C 0.91058 0.81287 0.45685 0.0
C1036 C 0.89654 0.82986 0.45199 0.0
C1037 C 0.91621 0.86028 0.44686 0.0
C1038 C 0.94899 0.87337 0.44672 0.0
H1039 H 1.01785 0.88895 0.48448 0.0
H1040 H 0.98331 0.88466 0.47611 0.0
H1041 H 0.98649 0.85054 0.47979 0.0
H1042 H 0.95348 0.81247 0.46058 0.0
H1043 H 0.89629 0.78919 0.46061 0.0
H1044 H 0.4682 0.93165 0.28105 0.0
H1045 H 0.50198 0.90817 0.28104 0.0
H1046 H 0.42225 0.81804 0.27079 0.0
H1047 H 0.38839 0.84154 0.27042 0.0
H1048 H 0.49654 0.85682 0.29613 0.0
H1049 H 0.48795 0.83237 0.24229 0.0
H1050 H 0.47629 0.85866 0.24945 0.0
H1051 H 0.45143 0.81683 0.25112 0.0
C1052 C 0.45785 0.90688 0.2787 0.0
C1053 C 0.42561 0.88855 0.27566 0.0
C1054 C 0.47715 0.89345 0.27878 0.0
C1055 C 0.4647 0.86146 0.27575 0.0
C1056 C 0.43243 0.84288 0.27297 0.0
H1057 H 0.58202 0.77151 0.26703 0.0
H1058 H 0.53451 0.77629 0.26898 0.0
C1059 C 0.41306 0.85629 0.2729 0.0
C1060 C 0.48582 0.84793 0.27548 0.0
H1061 H 0.52098 0.8201 0.25467 0.0
C1062 C 0.50161 0.84844 0.2871 0.0
C1063 C 0.49218 0.83673 0.2637 0.0
C1064 C 0.4763 0.83622 0.25088 0.0
C1065 C 0.5244 0.83912 0.28717 0.0
C1066 C 0.53195 0.82951 0.27526 0.0
C1067 C 0.51506 0.82743 0.26378 0.0
C1068 C 0.56001 0.82567 0.27424 0.0
C1069 C 0.5408 0.84038 0.29993 0.0
C1070 C 0.5899 0.8519 0.27633 0.0
C1071 C 0.61683 0.84936 0.27516 0.0
C1072 C 0.61461 0.82046 0.27181 0.0
C1073 C 0.58457 0.79408 0.26965 0.0
C1074 C 0.55744 0.79675 0.27076 0.0
H1075 H 0.52617 0.83865 0.30857 0.0
H1076 H 0.54646 0.82113 0.30047 0.0
H1077 H 0.56319 0.8632 0.30057 0.0
H1078 H 0.59246 0.87457 0.27878 0.0
H1079 H 0.63945 0.87025 0.27691 0.0
H1080 H 0.19035 0.7903 0.27341 0.0
H1081 H 0.1829 0.73752 0.27308 0.0
H1082 H 0.2807 0.77517 0.26304 0.0
H1083 H 0.28871 0.82879 0.26363 0.0
H1084 H 0.19017 0.7073 0.25232 0.0
H1085 H 0.2691 0.71576 0.29346 0.0
H1086 H 0.2575 0.74494 0.29077 0.0
H1087 H 0.28729 0.74459 0.28065 0.0
C1088 C 0.21044 0.78759 0.27116 0.0
C1089 C 0.24014 0.81388 0.26847 0.0
C1090 C 0.20609 0.75727 0.27099 0.0
C1091 C 0.23124 0.75234 0.26813 0.0
C1092 C 0.26106 0.77846 0.2655 0.0
H1093 H 0.18746 0.56138 0.24734 0.0
H1094 H 0.20866 0.61837 0.24711 0.0
C1095 C 0.26555 0.80905 0.26575 0.0
C1096 C 0.22526 0.71956 0.26744 0.0
H1097 H 0.24259 0.66726 0.28208 0.0
C1098 C 0.20179 0.69859 0.25877 0.0
C1099 C 0.24023 0.7082 0.27596 0.0
C1100 C 0.26476 0.7294 0.28583 0.0
C1101 C 0.19231 0.66647 0.25856 0.0
C1102 C 0.20737 0.65507 0.26701 0.0
C1103 C 0.23125 0.67611 0.27555 0.0
C1104 C 0.19754 0.62112 0.26749 0.0
C1105 C 0.16534 0.64486 0.24966 0.0
C1106 C 0.18552 0.60394 0.27918 0.0
C1107 C 0.17365 0.57137 0.27937 0.0
C1108 C 0.17348 0.55545 0.26785 0.0
C1109 C 0.18665 0.57293 0.25629 0.0
C1110 C 0.19878 0.60547 0.25615 0.0
H1111 H 0.15127 0.65576 0.24645 0.0
H1112 H 0.17486 0.63965 0.24072 0.0
H1113 H 0.14937 0.62223 0.25465 0.0
H1114 H 0.18444 0.61557 0.28806 0.0
H1115 H 0.16366 0.5585 0.28841 0.0
H1116 H 0.50669 0.62995 0.2887 0.0
H1117 H 0.44967 0.59343 0.28804 0.0
H1118 H 0.45073 0.60139 0.24573 0.0
H1119 H 0.50771 0.63737 0.24632 0.0
H1120 H 0.39911 0.59775 0.2787 0.0
H1121 H 0.41165 0.50738 0.25081 0.0
H1122 H 0.44487 0.54127 0.2581 0.0
H1123 H 0.42867 0.54487 0.24271 0.0
C1124 C 0.4947 0.62403 0.27927 0.0
C1125 C 0.51174 0.63613 0.26754 0.0
C1126 C 0.46214 0.60319 0.2789 0.0
C1127 C 0.44601 0.5942 0.26682 0.0
C1128 C 0.46278 0.60732 0.25515 0.0
H1129 H 0.2384 0.47882 0.26002 0.0
H1130 H 0.29248 0.52384 0.25939 0.0
C1131 C 0.49534 0.62787 0.25549 0.0
C1132 C 0.41192 0.57021 0.2664 0.0
H1133 H 0.35989 0.49711 0.25452 0.0
C1134 C 0.39046 0.57576 0.27339 0.0
C1135 C 0.40073 0.5414 0.25957 0.0
C1136 C 0.42267 0.53315 0.25247 0.0
C1137 C 0.35816 0.55313 0.27382 0.0
C1138 C 0.347 0.52447 0.26688 0.0
C1139 C 0.36843 0.5192 0.25975 0.0
C1140 C 0.31383 0.4983 0.26775 0.0
C1141 C 0.33649 0.55962 0.28206 0.0
C1142 C 0.30788 0.46901 0.27254 0.0
C1143 C 0.27733 0.44337 0.27273 0.0
C1144 C 0.25178 0.44629 0.26817 0.0
C1145 C 0.25755 0.47582 0.26363 0.0
C1146 C 0.28841 0.5016 0.26333 0.0
H1147 H 0.34975 0.57955 0.28898 0.0
H1148 H 0.32225 0.56577 0.2755 0.0
H1149 H 0.32004 0.53845 0.28781 0.0
H1150 H 0.32704 0.46589 0.27604 0.0
H1151 H 0.27384 0.42113 0.27644 0.0
H1152 H 0.87616 0.63088 0.77417 0.0
H1153 H 0.88427 0.58591 0.77437 0.0
H1154 H 0.7978 0.53184 0.79595 0.0
H1155 H 0.78917 0.57719 0.79566 0.0
H1156 H 0.89167 0.55971 0.7973 0.0
H1157 H 0.79281 0.47033 0.76684 0.0
H1158 H 0.80484 0.51167 0.76638 0.0
H1159 H 0.78243 0.48783 0.78004 0.0
C1160 C 0.8586 0.60939 0.77888 0.0
C1161 C 0.83215 0.60775 0.78503 0.0
C1162 C 0.86329 0.58364 0.77895 0.0
C1163 C 0.84171 0.55551 0.78516 0.0
C1164 C 0.81459 0.55322 0.79095 0.0
H1165 H 0.90143 0.42113 0.80799 0.0
H1166 H 0.87954 0.4563 0.80816 0.0
C1167 C 0.80973 0.57914 0.79081 0.0
C1168 C 0.84941 0.5299 0.78632 0.0
H1169 H 0.82749 0.45524 0.77619 0.0
C1170 C 0.87751 0.53677 0.79277 0.0
C1171 C 0.83106 0.50014 0.78028 0.0
C1172 C 0.80119 0.49193 0.77289 0.0
C1173 C 0.88811 0.515 0.79315 0.0
C1174 C 0.86976 0.48516 0.78717 0.0
C1175 C 0.84142 0.47806 0.78084 0.0
C1176 C 0.88043 0.46164 0.787 0.0
C1177 C 0.9195 0.52465 0.79956 0.0
C1178 C 0.88722 0.45209 0.77502 0.0
C1179 C 0.89972 0.43191 0.77488 0.0
C1180 C 0.90567 0.42092 0.78674 0.0
C1181 C 0.89784 0.42975 0.7987 0.0
C1182 C 0.88522 0.44976 0.79882 0.0
H1183 H 0.93398 0.5506 0.80078 0.0
H1184 H 0.91547 0.51379 0.80947 0.0
H1185 H 0.93312 0.51649 0.79368 0.0
H1186 H 0.88369 0.46096 0.76578 0.0
H1187 H 0.90554 0.42562 0.76551 0.0
H1188 H 0.6552 0.49774 0.81047 0.0
H1189 H 0.62056 0.44057 0.81044 0.0
H1190 H 0.60215 0.44328 0.76905 0.0
H1191 H 0.63718 0.50048 0.76898 0.0
H1192 H 0.55933 0.40854 0.80553 0.0
H1193 H 0.61925 0.37103 0.7699 0.0
H1194 H 0.63802 0.41019 0.77682 0.0
H1195 H 0.61131 0.40014 0.76312 0.0
C1196 C 0.64384 0.48614 0.80134 0.0
C1197 C 0.64885 0.50365 0.78973 0.0
C1198 C 0.62419 0.45343 0.80133 0.0
C1199 C 0.60908 0.43746 0.78971 0.0
C1200 C 0.61419 0.45487 0.77806 0.0
H1201 H 0.43363 0.26806 0.78166 0.0
H1202 H 0.4788 0.32094 0.78278 0.0
C1203 C 0.63408 0.48761 0.77805 0.0
C1204 C 0.58611 0.40305 0.79003 0.0
H1205 H 0.56527 0.33303 0.77485 0.0
C1206 C 0.56092 0.39203 0.79893 0.0
C1207 C 0.58833 0.38129 0.78157 0.0
C1208 C 0.61588 0.3912 0.77241 0.0
C1209 C 0.53727 0.36023 0.79922 0.0
C1210 C 0.5384 0.33889 0.79018 0.0
C1211 C 0.56426 0.34951 0.78168 0.0
C1212 C 0.51172 0.30616 0.78885 0.0
C1213 C 0.51105 0.34982 0.80914 0.0
C1214 C 0.51542 0.28003 0.79142 0.0
C1215 C 0.4894 0.24935 0.79074 0.0
C1216 C 0.45937 0.24446 0.78743 0.0
C1217 C 0.4562 0.27078 0.78444 0.0
C1218 C 0.48205 0.30118 0.7851 0.0
H1219 H 0.51838 0.36609 0.8177 0.0
H1220 H 0.49058 0.34975 0.80441 0.0
H1221 H 0.50331 0.32566 0.81277 0.0
H1222 H 0.53824 0.2834 0.79423 0.0
H1223 H 0.4927 0.22962 0.79303 0.0
H1224 H 0.57887 0.20243 0.80039 0.0
H1225 H 0.63616 0.22627 0.7989 0.0
H1226 H 0.62468 0.16328 0.76702 0.0
H1227 H 0.56744 0.14001 0.76825 0.0
H1228 H 0.67085 0.20011 0.80307 0.0
H1229 H 0.69187 0.24456 0.75196 0.0
H1230 H 0.65472 0.23137 0.76016 0.0
H1231 H 0.66334 0.20337 0.75253 0.0
C1232 C 0.58863 0.19385 0.793 0.0
C1233 C 0.56872 0.16938 0.78442 0.0
C1234 C 0.62136 0.20755 0.79213 0.0
C1235 C 0.63487 0.19702 0.78269 0.0
C1236 C 0.61497 0.17256 0.77411 0.0
H1237 H 0.80387 0.19482 0.77175 0.0
H1238 H 0.75183 0.18975 0.77164 0.0
C1239 C 0.58223 0.1591 0.77487 0.0
C1240 C 0.66956 0.20997 0.78247 0.0
H1241 H 0.73321 0.23839 0.76198 0.0
C1242 C 0.68457 0.20907 0.79414 0.0
C1243 C 0.68761 0.22186 0.77084 0.0
C1244 C 0.6736 0.22568 0.75821 0.0
C1245 C 0.71666 0.21817 0.79432 0.0
C1246 C 0.73419 0.22844 0.78255 0.0
C1247 C 0.7196 0.23046 0.77099 0.0
C1248 C 0.76662 0.23368 0.7818 0.0
C1249 C 0.73138 0.21538 0.80694 0.0
C1250 C 0.79234 0.26047 0.78735 0.0
C1251 C 0.8224 0.2636 0.78738 0.0
C1252 C 0.82695 0.23976 0.78199 0.0
C1253 C 0.80118 0.21346 0.77613 0.0
C1254 C 0.7714 0.21055 0.77599 0.0
H1255 H 0.71403 0.20521 0.81508 0.0
H1256 H 0.74208 0.20034 0.80535 0.0
H1257 H 0.75051 0.23903 0.81 0.0
H1258 H 0.78902 0.27862 0.79185 0.0
H1259 H 0.84179 0.28414 0.79195 0.0
H1260 H 0.06039 0.18352 0.61296 0.0
H1261 H 0.09752 0.16391 0.61371 0.0
H1262 H 0.17235 0.25472 0.60117 0.0
H1263 H 0.13541 0.27436 0.60009 0.0
H1264 H 0.13563 0.16251 0.59241 0.0
H1265 H 0.20759 0.23445 0.63461 0.0
H1266 H 0.16863 0.228 0.63115 0.0
H1267 H 0.20195 0.25679 0.62196 0.0
C1268 C 0.08472 0.19933 0.61031 0.0
C1269 C 0.09489 0.2306 0.60649 0.0
C1270 C 0.10591 0.18809 0.61081 0.0
C1271 C 0.13771 0.20796 0.60764 0.0
C1272 C 0.148 0.23916 0.60389 0.0
H1273 H 0.31004 0.21049 0.59737 0.0
H1274 H 0.2651 0.21853 0.59897 0.0
C1275 C 0.12684 0.25039 0.60332 0.0
C1276 C 0.16017 0.19604 0.60787 0.0
H1277 H 0.22958 0.20986 0.62156 0.0
C1278 C 0.15598 0.17249 0.59889 0.0
C1279 C 0.18652 0.209 0.6164 0.0
C1280 C 0.19139 0.23325 0.62667 0.0
C1281 C 0.17845 0.1628 0.59772 0.0
C1282 C 0.20547 0.17672 0.6059 0.0
C1283 C 0.20891 0.19932 0.61525 0.0
C1284 C 0.23184 0.17035 0.60425 0.0
C1285 C 0.1739 0.1389 0.58734 0.0
C1286 C 0.22803 0.14037 0.60655 0.0
C1287 C 0.25388 0.13556 0.60558 0.0
C1288 C 0.28393 0.16077 0.60242 0.0
C1289 C 0.28735 0.19054 0.59991 0.0
C1290 C 0.26164 0.19524 0.60082 0.0
H1291 H 0.15487 0.13479 0.58027 0.0
H1292 H 0.19606 0.14668 0.58177 0.0
H1293 H 0.16749 0.11616 0.59216 0.0
H1294 H 0.20531 0.12091 0.6094 0.0
H1295 H 0.25049 0.1124 0.60766 0.0
H1296 H 0.8851 0.90116 0.6043 0.0
H1297 H 0.90765 0.95838 0.60548 0.0
H1298 H 0.81459 0.94551 0.61038 0.0
H1299 H 0.79196 0.88838 0.60953 0.0
H1300 H 0.89509 0.99678 0.58892 0.0
H1301 H 0.86453 1.0053 0.64059 0.0
H1302 H 0.86399 0.97072 0.63415 0.0
H1303 H 0.83136 0.97701 0.63116 0.0
C1304 C 0.86948 0.9105 0.60583 0.0
C1305 C 0.83671 0.89015 0.60688 0.0
C1306 C 0.8824 0.94321 0.60642 0.0
C1307 C 0.86287 0.9562 0.60821 0.0
C1308 C 0.83018 0.93599 0.60924 0.0
H1309 H 0.85608 0.1233 0.60552 0.0
H1310 H 0.85048 0.07143 0.60726 0.0
C1311 C 0.81724 0.90333 0.60861 0.0
C1312 C 0.87628 0.99088 0.60851 0.0
H1313 H 0.87733 0.04981 0.62676 0.0
C1314 C 0.89175 1.00856 0.59727 0.0
C1315 C 0.87214 1.00622 0.61946 0.0
C1316 C 0.85739 0.98891 0.63208 0.0
C1317 C 0.90135 0.04076 0.59639 0.0
C1318 C 0.89564 0.05565 0.60708 0.0
C1319 C 0.88161 0.03832 0.61856 0.0
C1320 C 0.90036 0.08792 0.60602 0.0
C1321 C 0.9159 0.05821 0.58378 0.0
C1322 C 0.93045 0.11468 0.60479 0.0
C1323 C 0.93387 0.14481 0.60377 0.0
C1324 C 0.90722 0.14857 0.60396 0.0
C1325 C 0.87724 0.12156 0.60527 0.0
C1326 C 0.87391 0.09172 0.60632 0.0
H1327 H 0.91502 0.04224 0.57583 0.0
H1328 H 0.9036 0.07075 0.58032 0.0
H1329 H 0.94093 0.07612 0.58559 0.0
H1330 H 0.95124 0.11227 0.6047 0.0
H1331 H 0.95729 0.16504 0.60285 0.0
H1332 H 0.1686 0.98252 0.58508 0.0
H1333 H 0.11133 0.94865 0.58467 0.0
H1334 H 0.11174 0.93319 0.62647 0.0
H1335 H 0.16907 0.96775 0.62696 0.0
H1336 H 0.07994 0.88831 0.58996 0.0
H1337 H 0.03847 0.94814 0.62379 0.0
H1338 H 0.07821 0.96719 0.6175 0.0
H1339 H 0.06735 0.941 0.6314 0.0
C1340 C 0.15642 0.9721 0.5942 0.0
C1341 C 0.17329 0.97761 0.60605 0.0
C1342 C 0.12368 0.95289 0.59397 0.0
C1343 C 0.10707 0.93865 0.60556 0.0
C1344 C 0.12384 0.94456 0.61746 0.0
H1345 H 0.94015 0.76169 0.6129 0.0
H1346 H 0.99236 0.80805 0.61255 0.0
C1347 C 0.15663 0.96412 0.61772 0.0
C1348 C 0.07281 0.91526 0.60492 0.0
H1349 H 1.00156 0.89355 0.61904 0.0
C1350 C 0.0628 0.88978 0.5962 0.0
C1351 C 0.05025 0.91728 0.61291 0.0
C1352 C 0.05906 0.94507 0.62182 0.0
C1353 C 0.03124 0.86568 0.59565 0.0
C1354 C 1.0091 0.86662 0.60426 0.0
C1355 C 1.01867 0.89273 0.61256 0.0
C1356 C 0.97667 0.83945 0.60537 0.0
C1357 C 1.02194 0.83914 0.58595 0.0
C1358 C 0.95023 0.84198 0.60194 0.0
C1359 C 0.91996 0.81528 0.60218 0.0
C1360 C 0.91584 0.78577 0.60586 0.0
C1361 C 0.94238 0.78384 0.60979 0.0
C1362 C 0.97235 0.81036 0.60959 0.0
H1363 H 0.03879 0.84639 0.57762 0.0
H1364 H 1.02196 0.81908 0.59101 0.0
H1365 H 0.99794 0.83083 0.58195 0.0
H1366 H 0.95311 0.86435 0.59876 0.0
H1367 H 0.9 0.81761 0.59919 0.0
H1368 H 0.49649 0.06831 0.07569 0.0
H1369 H 0.51222 0.07012 0.05283 0.0
H1370 H 0.5497 1.00939 0.06215 0.0
H1371 H 0.53371 1.00745 0.08531 0.0
H1372 H 0.57123 0.08768 0.04049 0.0
H1373 H 0.48198 0.96084 0.03324 0.0
H1374 H 0.48103 0.98235 0.04747 0.0
H1375 H 0.51083 0.97149 0.04614 0.0
C1376 C 0.5086 0.05578 0.07294 0.0
C1377 C 0.51373 0.03761 0.08224 0.0
C1378 C 0.5176 0.05684 0.05986 0.0
C1379 C 0.53172 0.03954 0.05571 0.0
C1380 C 0.53845 0.0226 0.06511 0.0
H1381 H 0.52978 0.01883 0.96843 0.0
H1382 H 0.5454 1.01469 0.99117 0.0
C1383 C 0.5296 0.02173 0.07834 0.0
C1384 C 0.53709 0.03819 0.04137 0.0
H1385 H 0.50289 0.99176 1.01434 0.0
C1386 C 0.55696 0.06649 0.03479 0.0
C1387 C 0.51859 1.01051 0.0339 0.0
C1388 C 0.49676 0.9795 0.04046 0.0
C1389 C 0.55705 0.06835 1.02099 0.0
C1390 C 0.53643 0.04136 1.01356 0.0
C1391 C 0.51864 1.01244 1.02006 0.0
C1392 C 0.52867 0.04412 0.99964 0.0
C1393 C 0.57793 0.09969 1.01448 0.0
C1394 C 0.51383 0.06159 0.99692 0.0
C1395 C 0.50472 0.06363 0.98413 0.0
C1396 C 0.51015 0.04824 0.97367 0.0
C1397 C 0.52525 0.03084 0.97629 0.0
C1398 C 0.5342 0.02854 0.98926 0.0
H1399 H 0.59898 0.11475 1.02062 0.0
H1400 H 0.58579 0.0966 1.00463 0.0
H1401 H 0.56454 0.11226 1.0132 0.0
H1402 H 0.50876 0.0733 1.00478 0.0
H1403 H 0.4931 0.0772 0.98247 0.0
H1404 H 0.03689 0.455 0.97935 0.0
H1405 H 0.04378 0.47551 1.00163 0.0
H1406 H 0.03875 0.55567 0.98729 0.0
H1407 H 0.03211 0.53504 0.96455 0.0
H1408 H 0.0904 0.53827 1.01274 0.0
H1409 H 0.96459 0.50748 1.01545 0.0
H1410 H 0.97748 0.48971 1.00323 0.0
H1411 H 0.98879 0.53045 1.00185 0.0
C1412 C 0.03778 0.47731 0.98085 0.0
C1413 C 0.03393 0.49342 0.97022 0.0
C1414 C 0.04177 0.48902 0.99362 0.0
C1415 C 0.04157 0.51698 0.99617 0.0
C1416 C 0.03887 0.53396 0.98553 0.0
H1417 H 0.06624 0.55006 0.08257 0.0
H1418 H 0.06774 0.5662 0.05946 0.0
C1419 C 0.03531 0.52233 0.97257 0.0
C1420 C 0.04211 0.52622 1.01016 0.0
H1421 H 0.99159 0.5148 0.03543 0.0
C1422 C 0.06914 0.53425 1.01771 0.0
C1423 C 1.01421 0.52055 1.01661 0.0
C1424 C 0.98447 0.51151 1.00896 0.0
C1425 C 0.06842 0.53459 0.03156 0.0
C1426 C 0.0399 0.52682 0.03805 0.0
C1427 C 1.01347 0.52092 0.03047 0.0
C1428 C 0.03562 0.51912 0.05237 0.0
C1429 C 0.09744 0.54064 0.03915 0.0
C1430 C 1.01599 0.48767 0.05615 0.0
C1431 C 1.01512 0.47852 0.06924 0.0
C1432 C 0.03363 0.50062 0.07889 0.0
C1433 C 0.05164 0.53255 0.07533 0.0
C1434 C 0.05271 0.54173 0.06213 0.0
H1435 H 0.11663 0.54306 0.03259 0.0
H1436 H 0.10638 0.56271 0.0449 0.0
H1437 H 0.09161 0.52115 0.04619 0.0
H1438 H 1.00256 0.4698 0.04884 0.0
H1439 H 1.00099 0.45377 0.0717 0.0
H1440 H 0.54121 0.51371 0.96947 0.0
H1441 H 0.52646 0.49873 0.99262 0.0
H1442 H 0.56914 0.59689 1.00314 0.0
H1443 H 0.5833 0.61171 0.98024 0.0
H1444 H 0.56725 0.51318 1.01275 0.0
H1445 H 0.48988 0.56113 1.02443 0.0
H1446 H 0.49861 0.55579 1.00768 0.0
H1447 H 0.52511 0.5909 1.01672 0.0
C1448 C 0.54653 0.53195 0.9767 0.0
C1449 C 0.56338 0.56389 0.97307 0.0
C1450 C 0.53826 0.5234 0.98993 0.0
C1451 C 0.54629 0.54665 0.99967 0.0
C1452 C 0.56189 0.57842 0.99585 0.0
H1453 H 0.62109 0.57718 0.07516 0.0
H1454 H 0.6059 0.56275 0.05228 0.0
C1455 C 0.57021 0.58691 0.98273 0.0
C1456 C 0.542 0.53858 1.01396 0.0
H1457 H 0.52095 0.55872 0.04282 0.0
C1458 C 0.55642 0.52246 1.0193 0.0
C1459 C 0.52731 0.54999 1.02259 0.0
C1460 C 0.50906 0.56509 1.01752 0.0
C1461 C 0.55889 0.51989 0.03299 0.0
C1462 C 0.54726 0.53439 0.04161 0.0
C1463 C 0.53042 0.54805 0.03628 0.0
C1464 C 0.55567 0.53917 0.05588 0.0
C1465 C 0.57478 0.50238 0.03806 0.0
C1466 C 0.53257 0.53089 0.06567 0.0
C1467 C 0.54132 0.53935 0.07889 0.0
C1468 C 0.57333 0.55661 0.08245 0.0
C1469 C 0.59624 0.56378 0.07272 0.0
C1470 C 0.58755 0.5553 0.05961 0.0
H1471 H 0.57104 0.48316 0.03121 0.0
H1472 H 0.60054 0.51888 0.03875 0.0
H1473 H 0.5659 0.49212 0.04795 0.0
H1474 H 0.50782 0.51867 0.06304 0.0
H1475 H 0.52315 0.53372 0.08617 0.0
H1476 H 0.18886 0.40087 0.41414 0.0
H1477 H 0.20264 0.40347 0.39073 0.0
H1478 H 0.16984 0.3038 0.39096 0.0
H1479 H 0.15473 0.30105 0.41411 0.0
H1480 H 0.23798 0.38917 0.37429 0.0
H1481 H 0.11067 0.30788 0.36472 0.0
H1482 H 0.12539 0.32504 0.38067 0.0
H1483 H 0.12834 0.29166 0.37527 0.0
C1484 C 0.18567 0.37982 0.40926 0.0
C1485 C 0.17099 0.35081 0.41587 0.0
C1486 C 0.19332 0.38122 0.39588 0.0
C1487 C 0.18644 0.35363 0.38895 0.0
C1488 C 0.17455 0.32523 0.39595 0.0
H1489 H 0.17082 0.32783 0.30246 0.0
H1490 H 0.181 0.31933 0.32551 0.0
C1491 C 0.16635 0.32373 0.40922 0.0
C1492 C 0.18871 0.35404 0.37428 0.0
H1493 H 0.1441 0.32451 0.34637 0.0
C1494 C 0.21751 0.37481 0.3682 0.0
C1495 C 0.16197 0.33537 0.36625 0.0
C1496 C 0.12979 0.31395 0.37202 0.0
C1497 C 0.22012 0.37778 0.3544 0.0
C1498 C 0.19324 0.35964 0.34644 0.0
C1499 C 0.16479 0.33807 0.35247 0.0
C1500 C 0.19264 0.3659 0.33213 0.0
C1501 C 0.2515 0.40075 0.34843 0.0
C1502 C 0.19621 0.3949 0.32818 0.0
C1503 C 0.19001 0.39952 0.31521 0.0
C1504 C 0.18043 0.3754 0.30582 0.0
C1505 C 0.1786 0.34692 0.30949 0.0
C1506 C 0.18428 0.34205 0.32263 0.0
H1507 H 0.27129 0.40538 0.35515 0.0
H1508 H 0.25499 0.39188 0.3389 0.0
H1509 H 0.2523 0.42345 0.3466 0.0
H1510 H 0.20198 0.41342 0.33532 0.0
H1511 H 0.19143 0.42165 0.31264 0.0
H1512 H 0.66571 0.8076 0.41498 0.0
H1513 H 0.66277 0.81833 0.39154 0.0
H1514 H 0.76096 0.89015 0.39228 0.0
H1515 H 0.76413 0.87833 0.41551 0.0
H1516 H 0.67401 0.86704 0.37513 0.0
H1517 H 0.76225 0.82965 0.3661 0.0
H1518 H 0.74439 0.82582 0.38197 0.0
H1519 H 0.77608 0.86337 0.37662 0.0
C1520 C 0.68629 0.82642 0.41022 0.0
C1521 C 0.71505 0.84239 0.41701 0.0
C1522 C 0.68471 0.83241 0.3968 0.0
C1523 C 0.71189 0.85446 0.39001 0.0
C1524 C 0.7399 0.87242 0.39717 0.0
H1525 H 0.73661 0.86464 0.30336 0.0
H1526 H 0.74469 0.88378 0.32633 0.0
C1527 C 0.74159 0.86603 0.41049 0.0
C1528 C 0.71158 0.85631 0.37533 0.0
H1529 H 0.74329 0.84369 0.34761 0.0
C1530 C 0.6894 0.86225 0.36913 0.0
C1531 C 0.7316 0.84999 0.36741 0.0
C1532 C 0.75472 0.84156 0.37333 0.0
C1533 C 0.68627 0.86136 0.35532 0.0
C1534 C 0.7057 0.85422 0.34748 0.0
C1535 C 0.7287 0.84958 0.35362 0.0
C1536 C 0.69945 0.84659 0.33321 0.0
C1537 C 0.66172 0.86741 0.34923 0.0
C1538 C 0.67134 0.8197 0.32944 0.0
C1539 C 0.66701 0.80865 0.31652 0.0
C1540 C 0.69049 0.82438 0.307 0.0
C1541 C 0.718 0.85235 0.3105 0.0
C1542 C 0.72263 0.86317 0.3236 0.0
H1543 H 0.65575 0.88171 0.35583 0.0
H1544 H 0.66986 0.87971 0.33963 0.0
H1545 H 0.63989 0.84456 0.34747 0.0
H1546 H 0.65339 0.80615 0.33668 0.0
H1547 H 0.64563 0.78695 0.31409 0.0
H1548 H 0.25252 0.84779 0.30849 0.0
H1549 H 0.23504 0.83363 0.33126 0.0
H1550 H 0.19696 0.89617 0.33045 0.0
H1551 H 0.21306 0.90894 0.30739 0.0
H1552 H 0.25998 0.87385 0.3498 0.0
H1553 H 0.13211 0.82864 0.35291 0.0
H1554 H 0.15143 0.83146 0.33745 0.0
H1555 H 0.15123 0.86534 0.34422 0.0
C1556 C 0.23902 0.85727 0.31301 0.0
C1557 C 0.2336 0.87899 0.30619 0.0
C1558 C 0.22926 0.84939 0.32606 0.0
C1559 C 0.21451 0.86366 0.33268 0.0
C1560 C 0.20746 0.88408 0.32557 0.0
H1561 H 0.21739 0.93365 0.40754 0.0
H1562 H 0.20597 0.913 0.38517 0.0
C1563 C 0.21667 0.89144 0.31236 0.0
C1564 C 0.21135 0.86119 0.34733 0.0
H1565 H 0.16229 0.85246 0.37288 0.0
C1566 C 0.23831 0.86832 0.35482 0.0
C1567 C 0.18319 0.85407 0.35399 0.0
C1568 C 0.1528 0.84412 0.34671 0.0
C1569 C 0.23846 0.87033 0.36861 0.0
C1570 C 0.21083 0.8649 0.37521 0.0
C1571 C 0.18344 0.85647 0.36782 0.0
C1572 C 0.21169 0.87293 0.38938 0.0
C1573 C 0.2688 0.88023 0.37599 0.0
C1574 C 0.21748 0.85652 0.39939 0.0
C1575 C 0.22378 0.86824 0.41236 0.0
C1576 C 0.2247 0.89664 0.41534 0.0
C1577 C 0.21697 0.91176 0.40548 0.0
C1578 C 0.21033 0.89993 0.39269 0.0
H1579 H 0.28901 0.88691 0.36926 0.0
H1580 H 0.27445 0.90053 0.38252 0.0
H1581 H 0.26603 0.86048 0.38226 0.0
H1582 H 0.21848 0.8355 0.39705 0.0
H1583 H 0.22984 0.85627 0.41978 0.0
H1584 H 0.7842 0.65522 0.74045 0.0
H1585 H 0.80369 0.66033 0.71823 0.0
H1586 H 0.89931 0.71466 0.7324 0.0
H1587 H 0.8794 0.71005 0.75512 0.0
H1588 H 0.89035 0.74175 0.71113 0.0
H1589 H 0.8419 0.61703 0.69892 0.0
H1590 H 0.8108 0.62163 0.7057 0.0
H1591 H 0.84468 0.63025 0.71572 0.0
C1592 C 0.80946 0.66804 0.73896 0.0
C1593 C 0.83027 0.68216 0.74959 0.0
C1594 C 0.82063 0.6706 0.72618 0.0
C1595 C 0.85304 0.68702 0.72358 0.0
C1596 C 0.87417 0.70137 0.73417 0.0
H1597 H 0.86143 0.68217 0.63644 0.0
H1598 H 0.87791 0.67717 0.65895 0.0
C1599 C 0.86285 0.69879 0.74713 0.0
C1600 C 0.86361 0.69116 0.70959 0.0
H1601 H 0.84289 0.65073 0.68048 0.0
C1602 C 0.88082 0.72178 0.70447 0.0
C1603 C 0.85227 0.66528 0.70079 0.0
C1604 C 0.83673 0.63174 0.70563 0.0
C1605 C 0.88364 0.72716 0.69081 0.0
C1606 C 0.86802 0.70134 0.68203 0.0
C1607 C 0.85417 0.67067 0.68713 0.0
C1608 C 0.86096 0.70574 0.66814 0.0
C1609 C 0.90211 0.76066 0.68595 0.0
C1610 C 0.84554 0.72284 0.66582 0.0
C1611 C 0.83627 0.72563 0.65317 0.0
C1612 C 0.84171 0.71106 0.64239 0.0
C1613 C 0.85712 0.69378 0.64456 0.0
C1614 C 0.86653 0.69098 0.65739 0.0
H1615 H 0.92255 0.77498 0.69251 0.0
H1616 H 0.91084 0.7619 0.67577 0.0
H1617 H 0.88683 0.77138 0.68612 0.0
H1618 H 0.8398 0.73347 0.6739 0.0
H1619 H 0.82427 0.73895 0.6519 0.0
H1620 H 0.40833 0.18064 0.64206 0.0
H1621 H 0.41229 0.19491 0.66544 0.0
H1622 H 0.31519 0.1723 0.66498 0.0
H1623 H 0.31096 0.15677 0.64181 0.0
H1624 H 0.40262 0.23378 0.68201 0.0
H1625 H 0.31208 0.1087 0.6909 0.0
H1626 H 0.33013 0.12261 0.67504 0.0
H1627 H 0.29919 0.12955 0.68043 0.0
C1628 C 0.38828 0.17995 0.64685 0.0
C1629 C 0.35945 0.16798 0.64017 0.0
C1630 C 0.39042 0.18784 0.66024 0.0
C1631 C 0.36376 0.18385 0.66711 0.0
C1632 C 0.33584 0.17479 0.66003 0.0
H1633 H 0.34062 0.16683 0.75378 0.0
H1634 H 0.33204 0.17863 0.73099 0.0
C1635 C 0.33356 0.1664 0.64674 0.0
C1636 C 0.3643 0.18583 0.68178 0.0
H1637 H 0.33232 0.14121 0.70943 0.0
C1638 C 0.387 0.21364 0.68799 0.0
C1639 C 0.34395 0.15953 0.68967 0.0
C1640 C 0.32015 0.12832 0.68371 0.0
C1641 C 0.39036 0.21559 0.70179 0.0
C1642 C 0.37068 0.189 0.70961 0.0
C1643 C 0.34713 0.1617 0.70345 0.0
C1644 C 0.37719 0.1871 0.72381 0.0
C1645 C 0.41542 0.2459 0.70789 0.0
C1646 C 0.4054 0.18826 0.72736 0.0
C1647 C 0.41003 0.18117 0.74018 0.0
C1648 C 0.38673 0.17301 0.74982 0.0
C1649 C 0.35909 0.17343 0.74655 0.0
C1650 C 0.35417 0.18005 0.73355 0.0
H1651 H 0.42117 0.26641 0.70145 0.0
H1652 H 0.40791 0.24988 0.71767 0.0
H1653 H 0.43723 0.24466 0.70926 0.0
H1654 H 0.42321 0.19294 0.72002 0.0
H1655 H 0.43152 0.18091 0.74242 0.0
H1656 H 0.9308 0.27381 0.647 0.0
H1657 H 0.91125 0.25945 0.66945 0.0
H1658 H 0.84784 0.16412 0.65691 0.0
H1659 H 0.8672 0.17881 0.63406 0.0
H1660 H 0.83984 0.22153 0.67986 0.0
H1661 H 0.91651 0.16872 0.68682 0.0
H1662 H 0.92681 0.19892 0.67453 0.0
H1663 H 0.89253 0.16096 0.67224 0.0
C1664 C 0.912 0.25 0.64894 0.0
C1665 C 0.90027 0.22748 0.63882 0.0
C1666 C 0.90094 0.24179 0.66177 0.0
C1667 C 0.87828 0.21072 0.66487 0.0
C1668 C 0.86533 0.18827 0.6547 0.0
H1669 H 0.88184 0.19018 0.75183 0.0
H1670 H 0.86404 0.16992 0.72925 0.0
C1671 C 0.87614 0.19669 0.64167 0.0
C1672 C 0.87081 0.20236 0.67897 0.0
H1673 H 0.90174 0.18558 0.70591 0.0
C1674 C 0.85244 0.21259 0.68555 0.0
C1675 C 0.88713 0.19059 0.6864 0.0
C1676 C 0.90688 0.17902 0.67972 0.0
C1677 C 0.85205 0.21374 0.69937 0.0
C1678 C 0.87121 0.20529 0.70679 0.0
C1679 C 0.88716 0.1922 0.70025 0.0
C1680 C 0.87997 0.21592 0.72068 0.0
C1681 C 0.83258 0.22587 0.70588 0.0
C1682 C 0.89525 0.24829 0.7233 0.0
C1683 C 0.9054 0.25967 0.73597 0.0
C1684 C 0.90077 0.2391 0.74646 0.0
C1685 C 0.88552 0.20654 0.74396 0.0
C1686 C 0.87538 0.19501 0.73109 0.0
H1687 H 0.81127 0.21997 0.69993 0.0
H1688 H 0.82517 0.21598 0.71592 0.0
H1689 H 0.84676 0.25191 0.70664 0.0
H1690 H 0.89992 0.265 0.71544 0.0
H1691 H 0.91721 0.28491 0.7375 0.0
H1692 H 0.25244 0.87925 0.22295 0.0
H1693 H 0.29228 0.89801 0.20552 0.0
H1694 H 0.35229 0.98052 0.22868 0.0
H1695 H 0.31158 0.96299 0.24555 0.0
H1696 H 0.35609 0.99809 0.20526 0.0
H1697 H 0.3698 0.89303 0.20326 0.0
H1698 H 0.33006 0.88301 0.19968 0.0
H1699 H 0.34655 0.89791 0.21575 0.0
C1700 C 0.27415 0.90139 0.22428 0.0
C1701 C 0.27914 0.91929 0.23576 0.0
C1702 C 0.29717 0.91195 0.21438 0.0
C1703 C 0.32601 0.9403 0.21586 0.0
C1704 C 0.33056 0.95844 0.22725 0.0
H1705 H 0.49024 0.99012 0.16538 0.0
H1706 H 0.45202 0.97197 0.18351 0.0
C1707 C 0.3073 0.94827 0.23697 0.0
C1708 C 0.351 0.95183 0.20545 0.0
H1709 H 0.3933 0.92999 0.1857 0.0
C1710 C 0.36432 0.98316 0.20109 0.0
C1711 C 0.36253 0.93283 0.20008 0.0
C1712 C 0.35174 0.89997 0.20504 0.0
C1713 C 0.38822 0.99578 0.19151 0.0
C1714 C 0.3983 0.97619 0.18554 0.0
C1715 C 0.38542 0.94502 0.19005 0.0
C1716 C 0.42189 0.98746 0.17458 0.0
C1717 C 0.40296 0.03034 0.18825 0.0
C1718 C 0.41783 1.00203 0.16341 0.0
C1719 C 0.44006 1.01312 0.15327 0.0
C1720 C 0.46633 1.00883 0.15372 0.0
C1721 C 0.47022 0.99374 0.16474 0.0
C1722 C 0.44826 0.98323 0.17507 0.0
H1723 H 0.40125 0.04384 0.19667 0.0
H1724 H 0.42817 0.04078 0.18557 0.0
H1725 H 0.39014 0.03326 0.17984 0.0
H1726 H 0.39735 1.00479 0.16248 0.0
H1727 H 0.43653 0.02501 0.14501 0.0
H1728 H 0.04914 0.43187 0.14083 0.0
H1729 H 0.06931 0.41229 0.15818 0.0
H1730 H 0.099 0.49765 0.18035 0.0
H1731 H 0.08119 0.51847 0.16235 0.0
H1732 H 0.14136 0.48223 0.18311 0.0
H1733 H 0.02825 0.3731 0.19143 0.0
H1734 H 0.04087 0.37461 0.1748 0.0
H1735 H 0.03141 0.40366 0.18061 0.0
C1736 C 0.06048 0.44675 0.14929 0.0
C1737 C 0.06394 0.47694 0.1501 0.0
C1738 C 0.07148 0.43522 0.15938 0.0
C1739 C 0.08505 0.45298 0.17086 0.0
C1740 C 0.08854 0.48326 0.17168 0.0
H1741 H 0.10385 0.3646 0.24228 0.0
H1742 H 0.08755 0.38736 0.22471 0.0
C1743 C 0.07821 0.49514 0.1614 0.0
C1744 C 0.09589 0.44014 0.18187 0.0
H1745 H 0.07367 0.37483 0.20095 0.0
C1746 C 0.1264 0.45882 0.18707 0.0
C1747 C 0.07639 0.40979 0.18734 0.0
C1748 C 0.04232 0.38933 0.18335 0.0
C1749 C 0.13799 0.448 0.19735 0.0
C1750 C 0.11913 0.41693 0.20227 0.0
C1751 C 0.08852 0.39843 0.19714 0.0
C1752 C 0.12988 0.4035 0.21308 0.0
C1753 C 0.16993 0.47053 0.20309 0.0
C1754 C 0.15903 0.40434 0.21251 0.0
C1755 C 0.16883 0.39208 0.22285 0.0
C1756 C 0.14941 0.37807 0.23384 0.0
C1757 C 0.11969 0.37584 0.23409 0.0
C1758 C 0.11024 0.38873 0.22396 0.0
H1759 H 0.1764 0.49543 0.20138 0.0
H1760 H 0.17067 0.46689 0.21385 0.0
H1761 H 0.18802 0.46676 0.19823 0.0
H1762 H 0.17423 0.41435 0.20406 0.0
H1763 H 0.19162 0.39363 0.22224 0.0
H1764 H 0.65371 0.81157 0.22694 0.0
H1765 H 0.62978 0.77205 0.20931 0.0
H1766 H 0.68171 0.72771 0.22277 0.0
H1767 H 0.70528 0.76679 0.24038 0.0
H1768 H 0.6555 0.75627 0.18877 0.0
H1769 H 0.59236 0.65358 0.22178 0.0
H1770 H 0.60943 0.69364 0.22754 0.0
H1771 H 0.6337 0.67603 0.22541 0.0
C1772 C 0.66 0.79339 0.2261 0.0
C1773 C 0.68104 0.79202 0.23515 0.0
C1774 C 0.64629 0.77078 0.21604 0.0
C1775 C 0.65332 0.74635 0.21486 0.0
C1776 C 0.67515 0.74569 0.22366 0.0
H1777 H 0.63457 0.62945 0.14793 0.0
H1778 H 0.65116 0.66964 0.16508 0.0
C1779 C 0.68881 0.76821 0.23367 0.0
C1780 C 0.63843 0.72187 0.20433 0.0
H1781 H 0.59716 0.64216 0.19926 0.0
C1782 C 0.64254 0.73134 0.19108 0.0
C1783 C 0.62085 0.68926 0.20728 0.0
C1784 C 0.61349 0.67748 0.22127 0.0
C1785 C 0.63075 0.70918 0.18075 0.0
C1786 C 0.61493 0.67654 0.18369 0.0
C1787 C 0.60967 0.6671 0.19694 0.0
C1788 C 0.6045 0.65192 0.17318 0.0
C1789 C 0.63514 0.721 0.16676 0.0
C1790 C 0.57284 0.62775 0.1722 0.0
C1791 C 0.5633 0.60452 0.16238 0.0
C1792 C 0.58525 0.60494 0.15339 0.0
C1793 C 0.61697 0.62877 0.15456 0.0
C1794 C 0.62648 0.6519 0.16434 0.0
H1795 H 0.63859 0.74516 0.16628 0.0
H1796 H 0.65642 0.72184 0.16256 0.0
H1797 H 0.61457 0.70521 0.16052 0.0
H1798 H 0.55544 0.62701 0.17896 0.0
H1799 H 0.53872 0.58639 0.16176 0.0
H1800 H 0.03833 0.43369 0.90395 0.0
H1801 H 1.01508 0.39363 0.88672 0.0
H1802 H 0.96303 0.43691 0.87215 0.0
H1803 H 0.98665 0.47744 0.88942 0.0
H1804 H 0.95298 0.35008 0.88219 0.0
H1805 H 1.00369 0.42818 0.8387 0.0
H1806 H 1.01773 0.44125 0.85523 0.0
H1807 H 0.98166 0.4386 0.84965 0.0
C1808 C 1.02207 0.43481 0.89702 0.0
C1809 C 1.01426 0.45869 0.89806 0.0
C1810 C 1.0087 0.41181 0.88719 0.0
C1811 C 0.98741 0.41222 0.87802 0.0
C1812 C 0.97976 0.43628 0.87895 0.0
H1813 H 0.87293 0.2487 0.8259 0.0
H1814 H 0.88877 0.2891 0.84316 0.0
C1815 C 0.99321 0.45941 0.88883 0.0
C1816 C 0.97311 0.38708 0.86773 0.0
H1817 H 0.96884 0.3743 0.83448 0.0
C1818 C 0.95631 0.35539 0.87175 0.0
C1819 C 0.97759 0.3939 0.85409 0.0
C1820 C 0.99636 0.42728 0.8491 0.0
C1821 C 0.94432 0.33048 0.86258 0.0
C1822 C 0.94882 0.3373 0.84895 0.0
C1823 C 0.96522 0.36899 0.84492 0.0
C1824 C 0.93861 0.31208 0.83873 0.0
C1825 C 0.92794 0.29705 0.8676 0.0
C1826 C 0.96116 0.31153 0.83042 0.0
C1827 C 0.95215 0.28857 0.8206 0.0
C1828 C 0.92029 0.26573 0.81874 0.0
C1829 C 0.89766 0.26588 0.82716 0.0
C1830 C 0.90672 0.28896 0.83703 0.0
H1831 H 0.93261 0.29589 0.87824 0.0
H1832 H 0.90214 0.28648 0.86626 0.0
H1833 H 0.93557 0.28256 0.86203 0.0
H1834 H 0.98588 0.32897 0.83151 0.0
H1835 H 0.97015 0.28902 0.81429 0.0
H1836 H 0.63944 0.62593 0.90838 0.0
H1837 H 0.67985 0.6427 0.89136 0.0
H1838 H 0.63531 0.54779 0.87629 0.0
H1839 H 0.59444 0.53096 0.89331 0.0
H1840 H 0.72302 0.6248 0.88617 0.0
H1841 H 0.64324 0.59739 0.84318 0.0
H1842 H 0.63065 0.59775 0.85982 0.0
H1843 H 0.63319 0.56457 0.85389 0.0
C1844 C 0.63824 0.60858 0.90145 0.0
C1845 C 0.61372 0.5771 0.90219 0.0
C1846 C 0.66141 0.61822 0.8917 0.0
C1847 C 0.66059 0.59668 0.88238 0.0
C1848 C 0.63621 0.56507 0.88316 0.0
H1849 H 0.82246 0.64503 0.82962 0.0
H1850 H 0.78278 0.62113 0.84714 0.0
C1851 C 0.6129 0.55542 0.89293 0.0
C1852 C 0.68539 0.60763 0.87194 0.0
H1853 H 0.69679 0.61546 0.83861 0.0
C1854 C 0.71726 0.62263 0.87577 0.0
C1855 C 0.67802 0.60511 0.85834 0.0
C1856 C 0.64447 0.5906 0.85351 0.0
C1857 C 0.7418 0.6354 0.86645 0.0
C1858 C 0.73442 0.63272 0.85285 0.0
C1859 C 0.70255 0.61739 0.84902 0.0
C1860 C 0.75921 0.64733 0.84245 0.0
C1861 C 0.77544 0.65266 0.87128 0.0
C1862 C 0.75916 0.66976 0.83386 0.0
C1863 C 0.78167 0.68327 0.82387 0.0
C1864 C 0.8047 0.67451 0.82211 0.0
C1865 C 0.80513 0.65237 0.83079 0.0
C1866 C 0.78247 0.63876 0.84081 0.0
H1867 H 0.77702 0.65912 0.88185 0.0
H1868 H 0.78584 0.63725 0.87012 0.0
H1869 H 0.78981 0.67444 0.86548 0.0
H1870 H 0.7416 0.67686 0.83487 0.0
H1871 H 0.78075 0.70032 0.81737 0.0
H1872 H 0.37186 0.09545 0.81502 0.0
H1873 H 0.39572 0.07908 0.83219 0.0
H1874 H 0.44503 0.17399 0.84733 0.0
H1875 H 0.4206 0.19035 0.8302 0.0
H1876 H 0.45682 0.09773 0.83716 0.0
H1877 H 0.4054 0.1244 0.88049 0.0
H1878 H 0.39185 0.12401 0.86393 0.0
H1879 H 0.42769 0.15733 0.86979 0.0
C1880 C 0.38762 0.1128 0.82208 0.0
C1881 C 0.39432 0.14419 0.82128 0.0
C1882 C 0.40136 0.10343 0.83187 0.0
C1883 C 0.42203 0.12513 0.8412 0.0
C1884 C 0.42873 0.15658 0.84044 0.0
H1885 H 0.53745 0.07689 0.89342 0.0
H1886 H 0.5214 0.10063 0.87585 0.0
C1887 C 0.41483 0.16597 0.83063 0.0
C1888 C 0.43653 0.11454 0.85154 0.0
H1889 H 0.44135 0.10678 0.88482 0.0
C1890 C 0.45352 0.09982 0.84758 0.0
C1891 C 0.43214 0.11703 0.86517 0.0
C1892 C 0.41306 0.13128 0.87015 0.0
C1893 C 0.46572 0.08715 0.8568 0.0
C1894 C 0.46138 0.0897 0.87044 0.0
C1895 C 0.44486 0.1049 0.87439 0.0
C1896 C 0.47175 0.07495 0.88075 0.0
C1897 C 0.48209 0.07009 0.85182 0.0
C1898 C 0.44943 0.05281 0.88946 0.0
C1899 C 0.45859 0.03946 0.89948 0.0
C1900 C 0.49037 0.048 0.90114 0.0
C1901 C 0.51276 0.06967 0.89231 0.0
C1902 C 0.50356 0.08321 0.88225 0.0
H1903 H 0.47685 0.06363 0.84126 0.0
H1904 H 0.50794 0.08564 0.85287 0.0
H1905 H 0.47501 0.04832 0.8576 0.0
H1906 H 0.42478 0.04593 0.88854 0.0
H1907 H 0.44077 0.0228 0.90612 0.0
H1908 H 0.96525 0.29538 0.57309 0.0
H1909 H 1.00481 0.31275 0.55567 0.0
H1910 H 0.96232 0.2174 0.54122 0.0
H1911 H 0.92213 0.20005 0.55855 0.0
H1912 H 0.04901 0.2974 0.55076 0.0
H1913 H 0.96894 0.26402 0.50763 0.0
H1914 H 0.95581 0.26426 0.52418 0.0
H1915 H 0.96015 0.23187 0.51855 0.0
C1916 C 0.96421 0.27813 0.56614 0.0
C1917 C 0.94057 0.24633 0.56719 0.0
C1918 C 0.98692 0.28808 0.55619 0.0
C1919 C 0.98653 0.26655 0.54696 0.0
C1920 C 0.96286 0.23469 0.54799 0.0
H1921 H 0.15084 0.31567 0.49601 0.0
H1922 H 0.11044 0.29258 0.51324 0.0
C1923 C 0.93995 0.22473 0.55794 0.0
C1924 C 1.01135 0.27767 0.53652 0.0
H1925 H 1.02277 0.28258 0.50318 0.0
C1926 C 0.04323 0.2941 0.54035 0.0
C1927 C 1.00399 0.27372 0.52291 0.0
C1928 C 0.97039 0.25778 0.51803 0.0
C1929 C 0.06776 0.30678 0.53104 0.0
C1930 C 0.06041 0.3024 0.51742 0.0
C1931 C 0.02854 0.2858 0.51359 0.0
C1932 C 0.08523 0.31617 0.50699 0.0
C1933 C 0.1013 0.32569 0.53589 0.0
C1934 C 0.08437 0.33664 0.49752 0.0
C1935 C 0.10726 0.3496 0.48764 0.0
C1936 C 0.13151 0.34225 0.4869 0.0
C1937 C 0.13256 0.32191 0.49638 0.0
C1938 C 0.10951 0.30879 0.50627 0.0
H1939 H 0.10247 0.33385 0.54619 0.0
H1940 H 0.11236 0.31073 0.53566 0.0
H1941 H 0.11534 0.34657 0.52955 0.0
H1942 H 0.06599 0.34276 0.49781 0.0
H1943 H 0.10587 0.36528 0.4805 0.0
H1944 H 0.70306 0.76453 0.48189 0.0
H1945 H 0.72534 0.74724 0.4994 0.0
H1946 H 0.77619 0.84215 0.51448 0.0
H1947 H 0.75333 0.8594 0.49706 0.0
H1948 H 0.78525 0.76366 0.50513 0.0
H1949 H 0.73419 0.79387 0.54749 0.0
H1950 H 0.72178 0.79384 0.53075 0.0
H1951 H 0.75775 0.82659 0.53687 0.0
C1952 C 0.71887 0.78169 0.48899 0.0
C1953 C 0.72641 0.81333 0.48811 0.0
C1954 C 0.73169 0.77179 0.49899 0.0
C1955 C 0.75222 0.79322 0.50843 0.0
C1956 C 0.7599 0.82494 0.50753 0.0
H1957 H 0.866 0.74549 0.56148 0.0
H1958 H 0.84953 0.76829 0.54372 0.0
C1959 C 0.74692 0.83484 0.49753 0.0
C1960 C 0.76564 0.78217 0.51906 0.0
H1961 H 0.77014 0.77647 0.55248 0.0
C1962 C 0.78197 0.76652 0.51549 0.0
C1963 C 0.76119 0.78555 0.53261 0.0
C1964 C 0.74253 0.8006 0.5372 0.0
C1965 C 0.79369 0.75404 0.52501 0.0
C1966 C 0.78964 0.75783 0.53856 0.0
C1967 C 0.77352 0.7737 0.54213 0.0
C1968 C 0.80024 0.74404 0.54921 0.0
C1969 C 0.80933 0.73595 0.52042 0.0
C1970 C 0.77833 0.72328 0.55842 0.0
C1971 C 0.78778 0.71055 0.5686 0.0
C1972 C 0.81943 0.71832 0.5699 0.0
C1973 C 0.84142 0.7389 0.56067 0.0
C1974 C 0.83196 0.75183 0.55048 0.0
H1975 H 0.80325 0.72812 0.51003 0.0
H1976 H 0.83528 0.75137 0.52105 0.0
H1977 H 0.80244 0.71493 0.52668 0.0
H1978 H 0.75376 0.71682 0.55772 0.0
H1979 H 0.77025 0.6947 0.57555 0.0
H1980 H 0.30233 0.96626 0.478 0.0
H1981 H 0.32056 1.00513 0.49566 0.0
H1982 H 0.23496 0.94667 0.51721 0.0
H1983 H 0.21566 0.90857 0.49899 0.0
H1984 H 0.24866 1.00466 0.51953 0.0
H1985 H 0.35867 1.00343 0.52955 0.0
H1986 H 0.35763 1.01414 0.51279 0.0
H1987 H 0.32886 0.97549 0.51858 0.0
C1988 C 0.28726 0.96174 0.48646 0.0
C1989 C 0.25739 0.93446 0.48702 0.0
C1990 C 0.29794 0.98385 0.49669 0.0
C1991 C 0.2796 0.97872 0.50802 0.0
C1992 C 0.24974 0.95129 0.50864 0.0
H1993 H 0.36351 0.09009 0.57915 0.0
H1994 H 0.34142 0.04934 0.5622 0.0
C1995 C 0.23873 0.92941 0.49824 0.0
C1996 C 0.29134 1.00229 0.51903 0.0
H1997 H 0.35556 0.04688 0.53853 0.0
C1998 C 0.27195 1.01365 0.52376 0.0
C1999 C 0.32151 1.01381 0.52482 0.0
C2000 C 0.34267 1.0008 0.52127 0.0
C2001 C 0.282 0.03644 0.53384 0.0
C2002 C 0.31293 0.04937 0.53905 0.0
C2003 C 0.33206 0.03756 0.53448 0.0
C2004 C 0.3257 0.07433 0.54952 0.0
C2005 C 0.25891 0.04564 0.53902 0.0
C2006 C 0.32479 0.10246 0.54813 0.0
C2007 C 0.33671 0.12552 0.55805 0.0
C2008 C 0.3504 0.12127 0.56948 0.0
C2009 C 0.3525 0.0938 0.57061 0.0
C2010 C 0.34001 0.07051 0.56085 0.0
H2011 H 0.23417 0.02677 0.53727 0.0
H2012 H 0.26217 0.05069 0.54974 0.0
H2013 H 0.26247 0.06706 0.5338 0.0
H2014 H 0.31506 0.10677 0.53932 0.0
H2015 H 0.33525 0.14668 0.55678 0.0
H2016 H 0.53184 0.36189 0.10078 0.0
H2017 H 0.52442 0.30884 0.09912 0.0
H2018 H 0.52428 0.30245 0.14146 0.0
H2019 H 0.53324 0.35595 0.14321 0.0
H2020 H 0.55847 0.2798 0.13087 0.0
H2021 H 0.44344 0.22713 0.10504 0.0
H2022 H 0.47432 0.26006 0.09645 0.0
H2023 H 0.46173 0.2659 0.1123 0.0
C2024 C 0.53068 0.34941 0.10975 0.0
C2025 C 0.53294 0.36328 0.12214 0.0
C2026 C 0.52591 0.3188 0.10878 0.0
C2027 C 0.52296 0.30122 0.12016 0.0
C2028 C 0.52608 0.31532 0.13252 0.0
H2029 H 0.45048 0.09791 0.1248 0.0
H2030 H 0.45674 0.15083 0.12542 0.0
C2031 C 0.53101 0.34592 0.13351 0.0
C2032 C 0.51728 0.26841 0.11928 0.0
H2033 H 0.46713 0.19512 0.10682 0.0
C2034 C 0.53844 0.2613 0.12563 0.0
C2035 C 0.49084 0.24402 0.11265 0.0
C2036 C 0.46609 0.2495 0.10634 0.0
C2037 C 0.53421 0.23076 0.12539 0.0
C2038 C 0.50851 0.20667 0.1183 0.0
C2039 C 0.48702 0.21361 0.11213 0.0
C2040 C 0.50373 0.17424 0.11717 0.0
C2041 C 0.55703 0.22453 0.133 0.0
C2042 C 0.52756 0.16958 0.11195 0.0
C2043 C 0.52416 0.13955 0.11171 0.0
C2044 C 0.49658 0.11326 0.11647 0.0
C2045 C 0.47202 0.11764 0.12109 0.0
C2046 C 0.4756 0.14789 0.12146 0.0
H2047 H 0.56898 0.24218 0.14095 0.0
H2048 H 0.54494 0.20069 0.13748 0.0
H2049 H 0.57548 0.22612 0.12623 0.0
H2050 H 0.54905 0.1893 0.1082 0.0
H2051 H 0.54338 0.13701 0.10789 0.0
H2052 H 0.69395 0.22049 0.10788 0.0
H2053 H 0.74764 0.2653 0.10534 0.0
H2054 H 0.78496 0.21265 0.1247 0.0
H2055 H 0.73166 0.16783 0.12714 0.0
H2056 H 0.79155 0.29735 0.12681 0.0
H2057 H 0.83853 0.24643 0.09065 0.0
H2058 H 0.79682 0.23079 0.09311 0.0
H2059 H 0.81919 0.2222 0.10472 0.0
C2060 C 0.71364 0.21836 0.11146 0.0
C2061 C 0.70849 0.19063 0.11777 0.0
C2062 C 0.74427 0.24399 0.11004 0.0
C2063 C 0.77032 0.24218 0.11471 0.0
C2064 C 0.76527 0.21443 0.12086 0.0
H2065 H 0.97327 0.37281 0.11934 0.0
H2066 H 0.92033 0.32603 0.11949 0.0
C2067 C 0.73473 0.18895 0.12237 0.0
C2068 C 0.80268 0.26979 0.11378 0.0
H2069 H 0.8754 0.29514 0.10039 0.0
C2070 C 0.80984 0.29698 0.12097 0.0
C2071 C 0.8266 0.26908 0.10628 0.0
C2072 C 0.81999 0.24068 0.09815 0.0
C2073 C 0.84039 0.32333 0.12104 0.0
C2074 C 0.8643 0.32285 0.1134 0.0
C2075 C 0.85713 0.29557 0.10623 0.0
C2076 C 0.89668 0.35066 0.1126 0.0
C2077 C 0.84688 0.35108 0.12961 0.0
C2078 C 0.90117 0.37981 0.10829 0.0
C2079 C 0.9312 0.40648 0.10831 0.0
C2080 C 0.95764 0.40458 0.11243 0.0
C2081 C 0.9534 0.37508 0.11614 0.0
C2082 C 0.92316 0.34835 0.11625 0.0
H2083 H 0.8294 0.34411 0.13769 0.0
H2084 H 0.87083 0.36207 0.13401 0.0
H2085 H 0.84524 0.36903 0.12354 0.0
H2086 H 0.88132 0.38205 0.10504 0.0
H2087 H 0.93361 0.4287 0.10518 0.0
H2088 H 0.69674 0.62022 0.12179 0.0
H2089 H 0.7435 0.61418 0.12173 0.0
H2090 H 0.68449 0.51439 0.11512 0.0
H2091 H 0.6379 0.52002 0.11541 0.0
H2092 H 0.72695 0.52647 0.13449 0.0
H2093 H 0.78717 0.5998 0.09076 0.0
H2094 H 0.77812 0.61985 0.10328 0.0
H2095 H 0.74667 0.58721 0.09466 0.0
C2096 C 0.69375 0.59703 0.12025 0.0
C2097 C 0.66348 0.57065 0.11861 0.0
C2098 C 0.72054 0.59363 0.12014 0.0
C2099 C 0.7176 0.56386 0.11826 0.0
C2100 C 0.68743 0.5376 0.11658 0.0
H2101 H 0.86298 0.51743 0.09945 0.0
H2102 H 0.81794 0.52617 0.09922 0.0
C2103 C 0.66074 0.54092 0.11674 0.0
C2104 C 0.74561 0.55952 0.11846 0.0
H2105 H 0.81547 0.58089 0.1031 0.0
C2106 C 0.7463 0.5384 0.12763 0.0
C2107 C 0.77069 0.57472 0.10939 0.0
C2108 C 0.77063 0.59645 0.09888 0.0
C2109 C 0.77135 0.53219 0.12803 0.0
C2110 C 0.79683 0.54799 0.11918 0.0
C2111 C 0.79607 0.56895 0.10994 0.0
C2112 C 0.82433 0.54288 0.11932 0.0
C2113 C 0.76988 0.50815 0.13772 0.0
C2114 C 0.84316 0.54966 0.13064 0.0
C2115 C 0.86887 0.54466 0.1308 0.0
C2116 C 0.87657 0.53299 0.11961 0.0
C2117 C 0.85787 0.52657 0.10822 0.0
C2118 C 0.83207 0.53151 0.10808 0.0
H2119 H 0.74542 0.49216 0.14115 0.0
H2120 H 0.77915 0.4937 0.13332 0.0
H2121 H 0.78449 0.5205 0.14646 0.0
H2122 H 0.83817 0.55917 0.13933 0.0
H2123 H 0.88314 0.5506 0.13964 0.0
H2124 H 0.34565 0.46975 0.93636 0.0
H2125 H 0.29227 0.46167 0.93669 0.0
H2126 H 0.3301 0.56219 0.9362 0.0
H2127 H 0.3837 0.57049 0.93581 0.0
H2128 H 0.26241 0.47963 0.95432 0.0
H2129 H 0.26843 0.53405 0.90576 0.0
H2130 H 0.29774 0.52449 0.91117 0.0
H2131 H 0.29901 0.55982 0.91689 0.0
C2132 C 0.34269 0.4902 0.93643 0.0
C2133 C 0.36907 0.52081 0.93604 0.0
C2134 C 0.31208 0.48551 0.93656 0.0
C2135 C 0.30704 0.51126 0.93626 0.0
C2136 C 0.3333 0.54189 0.93611 0.0
H2137 H 0.14549 0.53703 0.9385 0.0
H2138 H 0.19732 0.54174 0.93901 0.0
C2139 C 0.36397 0.54662 0.93591 0.0
C2140 C 0.27432 0.50598 0.93622 0.0
H2141 H 0.22376 0.5217 0.91897 0.0
C2142 C 0.2539 0.48866 0.94654 0.0
C2143 C 0.26308 0.51758 0.92604 0.0
C2144 C 0.28308 0.53475 0.91427 0.0
C2145 C 0.22294 0.4834 0.94715 0.0
C2146 C 0.21196 0.49548 0.93709 0.0
C2147 C 0.23224 0.51251 0.9267 0.0
C2148 C 0.1799 0.49175 0.93734 0.0
C2149 C 0.20249 0.4657 0.95872 0.0
C2150 C 0.15266 0.46196 0.93624 0.0
C2151 C 0.12268 0.45908 0.93592 0.0
C2152 C 0.11942 0.48598 0.93667 0.0
C2153 C 0.14687 0.5157 0.93792 0.0
C2154 C 0.17667 0.51852 0.93819 0.0
H2155 H 0.21638 0.46352 0.9669 0.0
H2156 H 0.18987 0.47761 0.96249 0.0
H2157 H 0.18457 0.44164 0.95553 0.0
H2158 H 0.1546 0.44099 0.93538 0.0
H2159 H 0.10216 0.43586 0.93489 0.0
H2160 H 0.49812 0.83527 0.9406 0.0
H2161 H 0.50748 0.79066 0.94123 0.0
H2162 H 0.60333 0.85142 0.92873 0.0
H2163 H 0.59449 0.89624 0.92843 0.0
H2164 H 0.52692 0.76564 0.92062 0.0
H2165 H 0.61361 0.80876 0.96168 0.0
H2166 H 0.58861 0.82515 0.95816 0.0
H2167 H 0.62294 0.83602 0.94832 0.0
C2168 C 0.52127 0.83921 0.93809 0.0
C2169 C 0.54554 0.86942 0.93448 0.0
C2170 C 0.52654 0.81365 0.93839 0.0
C2171 C 0.55625 0.81779 0.93522 0.0
C2172 C 0.58038 0.84776 0.93144 0.0
H2173 H 0.62927 0.68706 0.93252 0.0
H2174 H 0.62375 0.73414 0.93171 0.0
C2175 C 0.57513 0.8733 0.93111 0.0
C2176 C 0.56176 0.7906 0.93561 0.0
H2177 H 0.60529 0.76262 0.9507 0.0
C2178 C 0.544 0.76494 0.92722 0.0
C2179 C 0.58423 0.78981 0.94415 0.0
C2180 C 0.6033 0.81626 0.95368 0.0
C2181 C 0.54821 0.73863 0.92707 0.0
C2182 C 0.57033 0.73759 0.93576 0.0
C2183 C 0.58837 0.76342 0.94404 0.0
C2184 C 0.5742 0.70941 0.93669 0.0
C2185 C 0.52925 0.7124 0.91743 0.0
C2186 C 0.54846 0.68007 0.9401 0.0
C2187 C 0.5515 0.65324 0.94052 0.0
C2188 C 0.58049 0.65512 0.93769 0.0
C2189 C 0.6066 0.68475 0.93472 0.0
C2190 C 0.60347 0.71167 0.93424 0.0
H2191 H 0.52085 0.72074 0.90901 0.0
H2192 H 0.54327 0.7021 0.91354 0.0
H2193 H 0.50824 0.6935 0.92249 0.0
H2194 H 0.52587 0.67785 0.94238 0.0
H2195 H 0.53093 0.63094 0.94299 0.0
H2196 H 0.43415 0.92166 0.93857 0.0
H2197 H 0.38643 0.87047 0.93938 0.0
H2198 H 0.33005 0.91538 0.9397 0.0
H2199 H 0.37805 0.96724 0.93864 0.0
H2200 H 0.34007 0.84539 0.95808 0.0
H2201 H 0.29033 0.85202 0.90973 0.0
H2202 H 0.33048 0.87938 0.91445 0.0
H2203 H 0.29874 0.88368 0.9209 0.0
C2204 C 0.41169 0.9209 0.93876 0.0
C2205 C 0.41008 0.94879 0.93845 0.0
C2206 C 0.38434 0.89145 0.93926 0.0
C2207 C 0.35459 0.88896 0.93943 0.0
C2208 C 0.35273 0.91667 0.93931 0.0
H2209 H 0.16726 0.72118 0.93966 0.0
H2210 H 0.21152 0.77511 0.94091 0.0
C2211 C 0.38022 0.94633 0.93879 0.0
C2212 C 0.32584 0.85719 0.93987 0.0
H2213 H 0.25975 0.80653 0.92253 0.0
C2214 C 0.32247 0.83694 0.95032 0.0
C2215 C 0.30286 0.84611 0.92974 0.0
C2216 C 0.30577 0.86626 0.918 0.0
C2217 C 0.29686 0.80599 0.95091 0.0
C2218 C 0.27419 0.79475 0.94068 0.0
C2219 C 0.27719 0.81516 0.93036 0.0
C2220 C 0.2474 0.76178 0.94039 0.0
C2221 C 0.29416 0.78567 0.96255 0.0
C2222 C 0.25279 0.73625 0.93963 0.0
C2223 C 0.22748 0.70529 0.93899 0.0
C2224 C 0.19621 0.69919 0.93907 0.0
C2225 C 0.19096 0.72488 0.93984 0.0
C2226 C 0.21626 0.7558 0.94044 0.0
H2227 H 0.30828 0.80004 0.97108 0.0
H2228 H 0.26924 0.77097 0.96568 0.0
H2229 H 0.30311 0.76971 0.95975 0.0
H2230 H 0.27662 0.7403 0.93935 0.0
H2231 H 0.23241 0.68612 0.93845 0.0
H2232 H 0.1581 0.67228 0.46146 0.0
H2233 H 0.14906 0.61876 0.45892 0.0
H2234 H 0.22403 0.65208 0.43047 0.0
H2235 H 0.23334 0.70596 0.43299 0.0
H2236 H 0.13714 0.58118 0.43347 0.0
H2237 H 0.2451 0.60604 0.46142 0.0
H2238 H 0.22683 0.62996 0.46318 0.0
H2239 H 0.24897 0.63326 0.44866 0.0
C2240 C 0.17275 0.66827 0.45468 0.0
C2241 C 0.19668 0.69345 0.44752 0.0
C2242 C 0.16738 0.63763 0.45318 0.0
C2243 C 0.18599 0.63151 0.44458 0.0
C2244 C 0.20951 0.65639 0.43721 0.0
H2245 H 0.20417 0.46519 0.43585 0.0
H2246 H 0.20949 0.5172 0.43395 0.0
C2247 C 0.21472 0.68709 0.43861 0.0
C2248 C 0.1813 0.5992 0.44372 0.0
H2249 H 0.2137 0.55478 0.4532 0.0
C2250 C 0.15389 0.57533 0.43772 0.0
C2251 C 0.20318 0.59172 0.44928 0.0
C2252 C 0.23266 0.61643 0.45608 0.0
C2253 C 0.14794 0.54414 0.437 0.0
C2254 C 0.16957 0.53646 0.4428 0.0
C2255 C 0.19707 0.56053 0.44874 0.0
C2256 C 0.16446 0.50379 0.44287 0.0
C2257 C 0.11889 0.51996 0.4298 0.0
C2258 C 0.13714 0.47855 0.44836 0.0
C2259 C 0.13382 0.44848 0.4493 0.0
C2260 C 0.15805 0.44323 0.44501 0.0
C2261 C 0.18508 0.4684 0.43931 0.0
C2262 C 0.18819 0.49823 0.43823 0.0
H2263 H 0.1105 0.5312 0.42258 0.0
H2264 H 0.12337 0.50279 0.42451 0.0
H2265 H 0.09969 0.5069 0.437 0.0
H2266 H 0.1188 0.48229 0.45233 0.0
H2267 H 0.11288 0.42972 0.45388 0.0
H2268 H 0.63746 0.70624 0.45476 0.0
H2269 H 0.58464 0.65966 0.45354 0.0
H2270 H 0.54829 0.71665 0.43749 0.0
H2271 H 0.60053 0.76315 0.43896 0.0
H2272 H 0.5132 0.68206 0.45752 0.0
H2273 H 0.53208 0.60523 0.42322 0.0
H2274 H 0.55831 0.61804 0.43711 0.0
H2275 H 0.56055 0.64648 0.42532 0.0
C2276 C 0.6183 0.70872 0.45077 0.0
C2277 C 0.62324 0.73847 0.44701 0.0
C2278 C 0.5881 0.68203 0.45003 0.0
C2279 C 0.56243 0.68452 0.44531 0.0
C2280 C 0.56763 0.71406 0.44118 0.0
H2281 H 0.37255 0.53059 0.42745 0.0
H2282 H 0.42654 0.57527 0.42623 0.0
C2283 C 0.59761 0.74068 0.44203 0.0
C2284 C 0.52973 0.65711 0.44552 0.0
H2285 H 0.48298 0.58164 0.43456 0.0
C2286 C 0.50662 0.66016 0.45244 0.0
C2287 C 0.52095 0.62862 0.43878 0.0
C2288 C 0.54418 0.6244 0.43058 0.0
C2289 C 0.4752 0.63554 0.45294 0.0
C2290 C 0.46664 0.60664 0.44661 0.0
C2291 C 0.48959 0.60368 0.43951 0.0
C2292 C 0.43402 0.57926 0.44731 0.0
C2293 C 0.45136 0.64101 0.46005 0.0
C2294 C 0.42037 0.56635 0.45954 0.0
C2295 C 0.38955 0.54099 0.46027 0.0
C2296 C 0.37171 0.52767 0.44876 0.0
C2297 C 0.38563 0.54025 0.4365 0.0
C2298 C 0.41648 0.56579 0.43579 0.0
H2299 H 0.4594 0.66653 0.46092 0.0
H2300 H 0.42823 0.6292 0.45492 0.0
H2301 H 0.44801 0.63125 0.47015 0.0
H2302 H 0.43368 0.57575 0.46855 0.0
H2303 H 0.3799 0.53141 0.46986 0.0
H2304 H 0.51735 0.83351 0.43742 0.0
H2305 H 0.47271 0.84263 0.43468 0.0
H2306 H 0.52146 0.92746 0.45782 0.0
H2307 H 0.56606 0.91868 0.46051 0.0
H2308 H 0.43721 0.84862 0.4563 0.0
H2309 H 0.49182 0.95502 0.42452 0.0
H2310 H 0.50763 0.92885 0.42602 0.0
H2311 H 0.51428 0.95673 0.43883 0.0
C2312 C 0.5187 0.85431 0.44177 0.0
C2313 C 0.54519 0.87528 0.44923 0.0
C2314 C 0.49316 0.85944 0.44023 0.0
C2315 C 0.49389 0.88591 0.44593 0.0
C2316 C 0.52053 0.90713 0.45318 0.0
H2317 H 0.36195 0.95525 0.45427 0.0
H2318 H 0.40896 0.94961 0.45343 0.0
C2319 C 0.54588 0.90189 0.45482 0.0
C2320 C 0.46613 0.89045 0.44502 0.0
H2321 H 0.44187 0.94058 0.43367 0.0
C2322 C 0.43812 0.86857 0.45125 0.0
C2323 C 0.4675 0.91673 0.43859 0.0
C2324 C 0.49681 0.94061 0.43151 0.0
C2325 C 0.41163 0.87251 0.45146 0.0
C2326 C 0.41281 0.89864 0.44491 0.0
C2327 C 0.44088 0.92054 0.43866 0.0
C2328 C 0.38506 0.90338 0.44443 0.0
C2329 C 0.38296 0.84912 0.45907 0.0
C2330 C 0.35628 0.87988 0.43921 0.0
C2331 C 0.32945 0.88293 0.43979 0.0
C2332 C 0.33083 0.90984 0.44538 0.0
C2333 C 0.36007 0.93424 0.44991 0.0
C2334 C 0.38694 0.931 0.44945 0.0
H2335 H 0.38904 0.83654 0.46659 0.0
H2336 H 0.3715 0.86087 0.46408 0.0
H2337 H 0.36568 0.83123 0.45218 0.0
H2338 H 0.35439 0.85881 0.4349 0.0
H2339 H 0.30744 0.86386 0.43602 0.0
H2340 H 0.76738 0.76696 0.27311 0.0
H2341 H 0.81932 0.77128 0.27518 0.0
H2342 H 0.86248 0.87192 0.27961 0.0
H2343 H 0.81117 0.86792 0.2778 0.0
H2344 H 0.87145 0.80423 0.25927 0.0
H2345 H 0.90096 0.84987 0.3102 0.0
H2346 H 0.86149 0.83245 0.30362 0.0
H2347 H 0.89003 0.87285 0.30006 0.0
C2348 C 0.78788 0.78996 0.27468 0.0
C2349 C 0.78492 0.81704 0.27532 0.0
C2350 C 0.81758 0.7924 0.27584 0.0
C2351 C 0.84479 0.82188 0.27778 0.0
C2352 C 0.84182 0.84883 0.27845 0.0
H2353 H 0.0471 0.90451 0.27707 0.0
H2354 H 0.99236 0.8929 0.27808 0.0
C2355 C 0.81232 0.84646 0.2773 0.0
C2356 C 0.87659 0.82501 0.27842 0.0
H2357 H 0.94402 0.85609 0.2969 0.0
C2358 C 0.88717 0.81516 0.26757 0.0
C2359 C 0.89717 0.83937 0.28925 0.0
C2360 C 0.88675 0.84896 0.3015 0.0
C2361 C 0.91808 0.82036 0.26704 0.0
C2362 C 0.93888 0.83545 0.27772 0.0
C2363 C 0.92813 0.84471 0.28868 0.0
C2364 C 0.97206 0.84229 0.27757 0.0
C2365 C 0.92861 0.81068 0.25484 0.0
C2366 C 0.97887 0.81772 0.27721 0.0
C2367 C 1.01009 0.82427 0.2766 0.0
C2368 C 0.03526 0.85559 0.27639 0.0
C2369 C 0.02834 0.88016 0.27707 0.0
C2370 C 0.99707 0.87356 0.27771 0.0
H2371 H 0.91228 0.80589 0.24643 0.0
H2372 H 0.95263 0.82923 0.25189 0.0
H2373 H 0.92935 0.78884 0.25692 0.0
H2374 H 0.95998 0.79342 0.27728 0.0
H2375 H 1.01445 0.80474 0.27595 0.0
H2376 H 0.20642 0.96575 0.28824 0.0
H2377 H 0.2007 1.0123 0.28929 0.0
H2378 H 0.29164 0.06771 0.27111 0.0
H2379 H 0.29787 0.02104 0.27021 0.0
H2380 H 0.27986 0.1002 0.29119 0.0
H2381 H 0.1801 0.04501 0.25593 0.0
H2382 H 0.17448 0.02155 0.27033 0.0
H2383 H 0.20578 0.02925 0.25907 0.0
C2384 C 0.22544 0.98789 0.28459 0.0
C2385 C 0.25247 0.98957 0.27899 0.0
C2386 C 0.22204 1.01448 0.28515 0.0
C2387 C 0.24535 0.04331 0.27997 0.0
C2388 C 0.27322 0.04561 0.27507 0.0
H2389 H 0.21149 0.19281 0.25459 0.0
H2390 H 0.22362 0.15036 0.2563 0.0
C2391 C 0.27679 0.01895 0.27459 0.0
C2392 C 0.23973 0.0704 0.27909 0.0
H2393 H 0.18913 0.09229 0.26615 0.0
C2394 C 0.2601 0.09856 0.28569 0.0
C2395 C 0.2142 0.06842 0.27173 0.0
C2396 C 0.19255 0.03956 0.26375 0.0
C2397 C 0.25527 0.12456 0.28534 0.0
C2398 C 0.22903 0.12211 0.27838 0.0
C2399 C 0.20902 0.0941 0.27161 0.0
C2400 C 0.22229 0.14852 0.27758 0.0
C2401 C 0.27868 0.15458 0.29219 0.0
C2402 C 0.21711 0.16153 0.28898 0.0
C2403 C 0.21011 0.18591 0.28803 0.0
C2404 C 0.2077 0.19747 0.27565 0.0
C2405 C 0.21262 0.18416 0.26428 0.0
C2406 C 0.21979 0.15999 0.26524 0.0
H2407 H 0.30153 0.15551 0.29388 0.0
H2408 H 0.28303 0.17557 0.28639 0.0
H2409 H 0.26912 0.15582 0.30192 0.0
H2410 H 0.2181 0.15258 0.29861 0.0
H2411 H 0.20615 0.19541 0.29697 0.0
H2412 H 0.84456 0.05287 0.2608 0.0
H2413 H 0.88898 0.10656 0.26304 0.0
H2414 H 0.93268 0.07412 0.29103 0.0
H2415 H 0.88829 0.02007 0.28876 0.0
H2416 H 0.91479 0.14503 0.28716 0.0
H2417 H 0.99947 0.11996 0.26105 0.0
H2418 H 0.95732 0.09469 0.25964 0.0
H2419 H 0.97743 0.09379 0.27427 0.0
C2420 C 0.86369 0.05708 0.26739 0.0
C2421 C 0.86305 0.03209 0.27449 0.0
C2422 C 0.88894 0.08784 0.26873 0.0
C2423 C 0.91425 0.09429 0.2771 0.0
C2424 C 0.91349 0.06958 0.28442 0.0
H2425 H 0.09779 0.26091 0.2874 0.0
H2426 H 0.05067 0.20916 0.28916 0.0
C2427 C 0.88806 0.03877 0.28317 0.0
C2428 C 0.94172 0.12677 0.27787 0.0
H2429 H 1.01923 0.17115 0.26941 0.0
C2430 C 0.93768 0.15082 0.28332 0.0
C2431 C 0.97149 0.13421 0.27283 0.0
C2432 C 0.97686 0.10945 0.26652 0.0
C2433 C 0.96282 0.18208 0.28405 0.0
C2434 C 0.99258 0.18965 0.27885 0.0
C2435 C 0.9965 0.16546 0.27342 0.0
C2436 C 1.02018 0.2223 0.27894 0.0
C2437 C 0.95738 0.2065 0.29063 0.0
C2438 C 1.01881 0.24733 0.2728 0.0
C2439 C 0.04581 0.27727 0.27191 0.0
C2440 C 0.07482 0.28256 0.27694 0.0
C2441 C 0.07589 0.25766 0.28336 0.0
C2442 C 0.04892 0.22797 0.28437 0.0
H2443 H 0.93699 0.19551 0.29746 0.0
H2444 H 0.97852 0.22373 0.29623 0.0
H2445 H 0.95216 0.21948 0.283 0.0
H2446 H 0.99716 0.24348 0.26825 0.0
H2447 H 0.04427 0.29582 0.26678 0.0
H2448 H 0.87605 0.80192 0.77587 0.0
H2449 H 0.88041 0.85356 0.7745 0.0
H2450 H 0.78394 0.81349 0.78703 0.0
H2451 H 0.77928 0.76133 0.78852 0.0
H2452 H 0.84476 0.87413 0.75959 0.0
H2453 H 0.83488 0.88619 0.81356 0.0
H2454 H 0.84296 0.8571 0.80661 0.0
H2455 H 0.80375 0.85116 0.80604 0.0
C2456 C 0.85562 0.80388 0.77832 0.0
C2457 C 0.82732 0.77734 0.78241 0.0
C2458 C 0.85818 0.83353 0.77749 0.0
C2459 C 0.83266 0.83752 0.78081 0.0
C2460 C 0.80409 0.81104 0.78459 0.0
H2461 H 0.82549 1.01063 0.76771 0.0
H2462 H 0.81524 0.95645 0.76708 0.0
C2463 C 0.80142 0.7812 0.78537 0.0
C2464 C 0.83651 0.86961 0.78048 0.0
H2465 H 0.84049 0.928 0.80018 0.0
C2466 C 0.8436 0.88584 0.76844 0.0
C2467 C 0.83544 0.88503 0.79207 0.0
C2468 C 0.82909 0.86919 0.80535 0.0
C2469 C 0.84968 0.91705 0.76769 0.0
C2470 C 0.84845 0.93241 0.77927 0.0
C2471 C 0.8413 0.91616 0.7913 0.0
C2472 C 0.85532 0.96561 0.77918 0.0
C2473 C 0.85823 0.93368 0.75457 0.0
C2474 C 0.88121 0.98884 0.78623 0.0
C2475 C 0.88733 0.01996 0.78653 0.0
C2476 C 0.86749 0.02855 0.77988 0.0
C2477 C 0.84167 1.00517 0.77273 0.0
C2478 C 0.83566 0.97407 0.7724 0.0
H2479 H 0.86469 0.92111 0.74723 0.0
H2480 H 0.83774 0.93497 0.75067 0.0
H2481 H 0.87822 0.95812 0.75565 0.0
H2482 H 0.89673 0.98287 0.79151 0.0
H2483 H 0.90762 0.03729 0.792 0.0
H2484 H 0.26987 0.08992 0.77156 0.0
H2485 H 0.21826 0.04216 0.77065 0.0
H2486 H 0.25786 0.98877 0.78738 0.0
H2487 H 0.30993 0.03664 0.78831 0.0
H2488 H 0.19866 0.97936 0.75845 0.0
H2489 H 0.18451 0.97752 0.81286 0.0
H2490 H 0.21253 1.01249 0.80412 0.0
H2491 H 0.2205 0.98095 0.8067 0.0
C2492 C 0.26779 0.068 0.77494 0.0
C2493 C 0.29409 0.0672 0.7801 0.0
C2494 C 0.23822 0.04069 0.77438 0.0
C2495 C 0.23415 1.01201 0.77907 0.0
C2496 C 0.26047 1.01077 0.78381 0.0
H2497 H 0.06396 0.83433 0.79557 0.0
H2498 H 0.11809 0.87766 0.79341 0.0
C2499 C 0.29024 0.03811 0.78427 0.0
C2500 C 0.20203 0.9839 0.77953 0.0
H2501 H 0.14306 0.93716 0.80077 0.0
C2502 C 0.18648 0.96998 0.76769 0.0
C2503 C 0.18622 0.97182 0.79159 0.0
C2504 C 0.20156 0.98646 0.80458 0.0
C2505 C 0.15561 0.944 0.76759 0.0
C2506 C 0.13952 0.9322 0.77967 0.0
C2507 C 0.15527 0.94613 0.79151 0.0
C2508 C 0.1065 0.9053 0.78035 0.0
C2509 C 0.14088 0.92908 0.75456 0.0
C2510 C 0.08171 0.90624 0.77375 0.0
C2511 C 0.05061 0.88127 0.77491 0.0
C2512 C 0.0436 0.85514 0.7829 0.0
C2513 C 0.06847 0.85429 0.78947 0.0
C2514 C 0.09949 0.87903 0.78821 0.0
H2515 H 0.15906 0.9344 0.74693 0.0
H2516 H 0.12596 0.90311 0.75548 0.0
H2517 H 0.12585 0.93864 0.7511 0.0
H2518 H 0.08627 0.92656 0.76791 0.0
H2519 H 0.03195 0.88278 0.76983 0.0
H2520 H 0.23367 0.23894 0.76878 0.0
H2521 H 0.19065 0.2505 0.76728 0.0
H2522 H 0.13249 0.16958 0.79138 0.0
H2523 H 0.17505 0.15736 0.79272 0.0
H2524 H 0.12673 0.2124 0.75815 0.0
H2525 H 0.13331 0.24443 0.81093 0.0
H2526 H 0.16454 0.24188 0.80268 0.0
H2527 H 0.12978 0.20668 0.80793 0.0
C2528 C 0.21157 0.22322 0.77358 0.0
C2529 C 0.20801 0.19727 0.78094 0.0
C2530 C 0.18707 0.23004 0.77279 0.0
C2531 C 0.15857 0.21125 0.77941 0.0
C2532 C 0.15453 0.1848 0.78642 0.0
H2533 H 0.97547 0.1931 0.77263 0.0
H2534 H 1.02246 0.18815 0.77154 0.0
C2535 C 0.17894 0.17787 0.78718 0.0
C2536 C 0.13312 0.21937 0.77909 0.0
H2537 H 0.08947 0.2394 0.7988 0.0
C2538 C 0.1187 0.21848 0.76702 0.0
C2539 C 0.12298 0.22779 0.79064 0.0
C2540 C 0.13859 0.23058 0.80378 0.0
C2541 C 0.09367 0.22472 0.76626 0.0
C2542 C 0.08266 0.23184 0.7779 0.0
C2543 C 0.0978 0.23378 0.7899 0.0
C2544 C 0.05449 0.23581 0.77794 0.0
C2545 C 0.07921 0.22364 0.75301 0.0
C2546 C 0.05673 0.26423 0.78204 0.0
C2547 C 0.02975 0.26722 0.78268 0.0
C2548 C 0.99995 0.24166 0.7794 0.0
C2549 C 0.99795 0.21333 0.77522 0.0
C2550 C 0.02488 0.21047 0.77451 0.0
H2551 H 0.09542 0.22645 0.74484 0.0
H2552 H 0.0574 0.2005 0.7518 0.0
H2553 H 0.07282 0.24235 0.75219 0.0
H2554 H 0.07935 0.28404 0.78482 0.0
H2555 H 0.03217 0.2893 0.78601 0.0
H2556 H 0.43352 0.10274 0.60397 0.0
H2557 H 0.48617 0.10847 0.60475 0.0
H2558 H 0.52372 0.20137 0.62137 0.0
H2559 H 0.47163 0.1961 0.6204 0.0
H2560 H 0.55684 0.20181 0.60025 0.0
H2561 H 0.54134 0.10659 0.63427 0.0
H2562 H 0.51367 0.09334 0.62087 0.0
H2563 H 0.51293 0.11966 0.63298 0.0
C2564 C 0.45287 0.12409 0.60805 0.0
C2565 C 0.44836 0.149 0.61206 0.0
C2566 C 0.48298 0.12732 0.60853 0.0
C2567 C 0.50896 0.15532 0.61319 0.0
C2568 C 0.50412 0.17959 0.6177 0.0
H2569 H 0.70102 0.19453 0.6278 0.0
H2570 H 0.64692 0.18447 0.62988 0.0
C2571 C 0.47424 0.1765 0.61714 0.0
C2572 C 0.54162 0.16068 0.61238 0.0
H2573 H 0.58958 0.13253 0.62237 0.0
C2574 C 0.56398 0.18669 0.60513 0.0
C2575 C 0.55109 0.14117 0.61885 0.0
C2576 C 0.52862 0.11379 0.62729 0.0
C2577 C 0.59534 0.19358 0.60407 0.0
C2578 C 0.60461 0.17354 0.61019 0.0
C2579 C 0.58241 0.14774 0.61759 0.0
C2580 C 0.63723 0.17905 0.60896 0.0
C2581 C 0.61841 0.22265 0.59658 0.0
C2582 C 0.64966 0.17899 0.59654 0.0
C2583 C 0.68053 0.1848 0.59532 0.0
C2584 C 0.69965 0.19056 0.60652 0.0
C2585 C 0.68695 0.1901 0.61898 0.0
C2586 C 0.65604 0.18437 0.62019 0.0
H2587 H 0.61004 0.23986 0.59571 0.0
H2588 H 0.6419 0.23444 0.60142 0.0
H2589 H 0.62118 0.21579 0.58648 0.0
H2590 H 0.63538 0.1742 0.58776 0.0
H2591 H 0.68921 0.18418 0.5856 0.0
H2592 H 0.86169 0.29876 0.60809 0.0
H2593 H 0.85779 0.34616 0.60982 0.0
H2594 H 0.95898 0.40341 0.60803 0.0
H2595 H 0.9632 0.35579 0.60603 0.0
H2596 H 0.88086 0.39303 0.62829 0.0
H2597 H 0.9312 0.44194 0.57917 0.0
H2598 H 0.91946 0.40206 0.58384 0.0
H2599 H 0.95615 0.43427 0.58965 0.0
C2600 C 0.88326 0.32135 0.60805 0.0
C2601 C 0.91282 0.32332 0.60683 0.0
C2602 C 0.88092 0.34852 0.60907 0.0
C2603 C 0.90801 0.37843 0.60886 0.0
C2604 C 0.93766 0.38061 0.60793 0.0
H2605 H 0.92778 0.5657 0.61045 0.0
H2606 H 0.93734 0.52135 0.61108 0.0
C2607 C 0.94006 0.35333 0.60688 0.0
C2608 C 0.90478 0.40704 0.60965 0.0
H2609 H 0.91818 0.47288 0.5927 0.0
C2610 C 0.88909 0.41052 0.62051 0.0
C2611 C 0.91546 0.42988 0.5995 0.0
C2612 C 0.93127 0.42684 0.58731 0.0
C2613 C 0.88383 0.43613 0.62152 0.0
C2614 C 0.89412 0.45871 0.61129 0.0
C2615 C 0.91027 0.45555 0.60053 0.0
C2616 C 0.88804 0.48558 0.61146 0.0
C2617 C 0.86759 0.43896 0.6336 0.0
C2618 C 0.8571 0.48031 0.61142 0.0
C2619 C 0.85152 0.50569 0.61114 0.0
C2620 C 0.87677 0.53692 0.61087 0.0
C2621 C 0.90774 0.54205 0.61092 0.0
C2622 C 0.91328 0.51668 0.61117 0.0
H2623 H 0.86882 0.42495 0.64194 0.0
H2624 H 0.87819 0.46391 0.63675 0.0
H2625 H 0.84236 0.42997 0.63129 0.0
H2626 H 0.83722 0.45653 0.61141 0.0
H2627 H 0.8274 0.50083 0.61114 0.0
H2628 H 0.5687 0.35679 0.59817 0.0
H2629 H 0.61126 0.4115 0.59996 0.0
H2630 H 0.55037 0.43455 0.62188 0.0
H2631 H 0.50742 0.38003 0.61994 0.0
H2632 H 0.60929 0.46552 0.59057 0.0
H2633 H 0.63195 0.47137 0.64444 0.0
H2634 H 0.61086 0.43452 0.63564 0.0
H2635 H 0.59159 0.45638 0.63963 0.0
C2636 C 0.56428 0.37343 0.60338 0.0
C2637 C 0.5345 0.36386 0.6089 0.0
C2638 C 0.58871 0.4047 0.60443 0.0
C2639 C 0.58408 0.42707 0.61113 0.0
C2640 C 0.55464 0.41759 0.61686 0.0
H2641 H 0.70968 0.63198 0.60339 0.0
H2642 H 0.66257 0.57944 0.60443 0.0
C2643 C 0.53013 0.38632 0.61577 0.0
C2644 C 0.6097 0.46055 0.61161 0.0
H2645 H 0.66017 0.51883 0.63247 0.0
C2646 C 0.62034 0.47724 0.59973 0.0
C2647 C 0.62417 0.47573 0.62357 0.0
C2648 C 0.61433 0.45862 0.63656 0.0
C2649 C 0.64515 0.50864 0.59948 0.0
C2650 C 0.65955 0.52388 0.61144 0.0
C2651 C 0.64885 0.50722 0.62333 0.0
C2652 C 0.68732 0.55625 0.61169 0.0
C2653 C 0.65644 0.52497 0.58638 0.0
C2654 C 0.71664 0.56082 0.61579 0.0
C2655 C 0.7435 0.59069 0.61522 0.0
C2656 C 0.74165 0.61682 0.61061 0.0
C2657 C 0.71199 0.61243 0.60697 0.0
C2658 C 0.68507 0.58238 0.60748 0.0
H2659 H 0.64681 0.5082 0.578 0.0
H2660 H 0.64876 0.54262 0.58521 0.0
H2661 H 0.68257 0.5376 0.58589 0.0
H2662 H 0.71892 0.54105 0.61911 0.0
H2663 H 0.76584 0.59311 0.61819 0.0
loop_
_geom_bond_atom_site_label_1
_geom_bond_atom_site_label_2
_geom_bond_distance
_geom_bond_site_symmetry_2
_ccdc_geom_bond_type
Tb0 C2 2.809 . S
Tb0 O20 2.484 . S
Tb0 O21 2.440 . S
Tb0 O22 2.658 1_545 S
Tb0 O23 2.409 . S
Tb0 O24 2.378 . S
Tb0 O28 2.325 . S
Tb0 O31 2.341 1_545 S
Tb1 C11 2.809 . S
Tb1 O22 2.325 . S
Tb1 O25 2.341 1_565 S
Tb1 O26 2.484 . S
Tb1 O27 2.440 . S
Tb1 O28 2.658 1_565 S
Tb1 O29 2.409 . S
Tb1 O30 2.378 . S
C2 Tb0 2.809 . S
C2 C3 1.514 . S
C2 O20 1.248 . S
C2 O21 1.266 . S
C3 C2 1.514 . S
C3 C4 1.359 . S
C3 C8 1.348 . S
C4 C3 1.359 . S
C4 C5 1.380 . S
C4 H32 0.929 . S
C5 C4 1.380 . S
C5 C6 1.347 . S
C5 H33 0.931 . S
C6 C5 1.347 . S
C6 C7 1.369 . S
C7 C6 1.369 . S
C7 C8 1.408 . S
C7 H34 0.930 . S
C8 C3 1.348 . S
C8 C7 1.408 . S
C8 H35 0.930 . S
C9 O22 1.281 1_545 S
C9 O23 1.254 . S
C10 O24 1.236 . S
C10 O25 1.266 . S
C11 Tb1 2.809 . S
C11 C12 1.514 . S
C11 O26 1.248 . S
C11 O27 1.266 . S
C12 C11 1.514 . S
C12 C13 1.359 . S
C12 C17 1.348 . S
C13 C12 1.359 . S
C13 C14 1.380 . S
C13 H36 0.929 . S
C14 C13 1.380 . S
C14 C15 1.347 . S
C14 H37 0.931 . S
C15 C14 1.347 . S
C15 C16 1.369 . S
C16 C15 1.369 . S
C16 C17 1.408 . S
C16 H38 0.930 . S
C17 C12 1.348 . S
C17 C16 1.408 . S
C17 H39 0.930 . S
C18 O28 1.281 . S
C18 O29 1.254 1_545 S
C19 O30 1.236 . S
C19 O31 1.266 . S
O20 Tb0 2.484 . S
O20 C2 1.248 . S
O21 Tb0 2.440 . S
O21 C2 1.266 . S
O22 Tb0 2.658 1_565 S
O22 Tb1 2.325 . S
O22 C9 1.281 1_565 S
O23 Tb0 2.409 . S
O23 C9 1.254 . S
O24 Tb0 2.378 . S
O24 C10 1.236 . S
O25 Tb1 2.341 1_545 S
O25 C10 1.266 . S
O26 Tb1 2.484 . S
O26 C11 1.248 . S
O27 Tb1 2.440 . S
O27 C11 1.266 . S
O28 Tb0 2.325 . S
O28 Tb1 2.658 1_545 S
O28 C18 1.281 . S
O29 Tb1 2.409 . S
O29 C18 1.254 1_565 S
O30 Tb1 2.378 . S
O30 C19 1.236 . S
O31 Tb0 2.341 1_565 S
O31 C19 1.266 . S
H32 C4 0.929 . S
H33 C5 0.931 . S
H34 C7 0.930 . S
H35 C8 0.930 . S
H36 C13 0.929 . S
H37 C14 0.931 . S
H38 C16 0.930 . S
H39 C17 0.930 . S
Tb40 C42 2.782 1_455 S
Tb40 O60 2.461 1_455 S
Tb40 O61 2.416 1_455 S
Tb40 O62 2.683 . S
Tb40 O63 2.417 . S
Tb40 O64 2.375 1_455 S
Tb40 O68 2.336 . S
Tb40 O71 2.363 . S
Tb41 C51 2.809 . S
Tb41 O62 2.325 . S
Tb41 O65 2.341 1_455 S
Tb41 O66 2.484 . S
Tb41 O67 2.440 . S
Tb41 O68 2.658 . S
Tb41 O69 2.409 . S
Tb41 O70 2.378 . S
C42 Tb40 2.782 1_655 S
C42 C43 1.514 . S
C42 O60 1.248 . S
C42 O61 1.266 . S
C43 C42 1.514 . S
C43 C44 1.359 . S
C43 C48 1.348 . S
C44 C43 1.359 . S
C44 C45 1.380 . S
C44 H72 0.929 . S
C45 C44 1.380 . S
C45 C46 1.347 . S
C45 H73 0.931 . S
C46 C45 1.347 . S
C46 C47 1.369 . S
C47 C46 1.369 . S
C47 C48 1.408 . S
C47 H74 0.930 . S
C48 C43 1.348 . S
C48 C47 1.408 . S
C48 H75 0.930 . S
C49 O62 1.281 . S
C49 O63 1.254 . S
C50 O64 1.236 . S
C50 O65 1.266 . S
C51 Tb41 2.809 . S
C51 C52 1.514 . S
C51 O66 1.248 . S
C51 O67 1.266 . S
C52 C51 1.514 . S
C52 C53 1.359 . S
C52 C57 1.348 . S
C53 C52 1.359 . S
C53 C54 1.380 . S
C53 H76 0.929 . S
C54 C53 1.380 . S
C54 C55 1.347 . S
C54 H77 0.931 . S
C55 C54 1.347 . S
C55 C56 1.369 . S
C56 C55 1.369 . S
C56 C57 1.408 . S
C56 H78 0.930 . S
C57 C52 1.348 . S
C57 C56 1.408 . S
C57 H79 0.930 . S
C58 O68 1.281 . S
C58 O69 1.254 . S
C59 O70 1.236 . S
C59 O71 1.266 . S
O60 Tb40 2.461 1_655 S
O60 C42 1.248 . S
O61 Tb40 2.416 1_655 S
O61 C42 1.266 . S
O62 Tb40 2.683 . S
O62 Tb41 2.325 . S
O62 C49 1.281 . S
O63 Tb40 2.417 . S
O63 C49 1.254 . S
O64 Tb40 2.375 1_655 S
O64 C50 1.236 . S
O65 Tb41 2.341 1_655 S
O65 C50 1.266 . S
O66 Tb41 2.484 . S
O66 C51 1.248 . S
O67 Tb41 2.440 . S
O67 C51 1.266 . S
O68 Tb40 2.336 . S
O68 Tb41 2.658 . S
O68 C58 1.281 . S
O69 Tb41 2.409 . S
O69 C58 1.254 . S
O70 Tb41 2.378 . S
O70 C59 1.236 . S
O71 Tb40 2.363 . S
O71 C59 1.266 . S
H72 C44 0.929 . S
H73 C45 0.931 . S
H74 C47 0.930 . S
H75 C48 0.930 . S
H76 C53 0.929 . S
H77 C54 0.931 . S
H78 C56 0.930 . S
H79 C57 0.930 . S
Tb80 C82 2.809 . S
Tb80 O100 2.484 . S
Tb80 O101 2.440 . S
Tb80 O102 2.658 . S
Tb80 O103 2.409 . S
Tb80 O104 2.378 . S
Tb80 O108 2.325 . S
Tb80 O111 2.341 . S
Tb81 C91 2.809 . S
Tb81 O102 2.325 . S
Tb81 O105 2.341 . S
Tb81 O106 2.484 . S
Tb81 O107 2.440 . S
Tb81 O108 2.658 . S
Tb81 O109 2.409 . S
Tb81 O110 2.378 . S
C82 Tb80 2.809 . S
C82 C83 1.514 . S
C82 O100 1.248 . S
C82 O101 1.266 . S
C83 C82 1.514 . S
C83 C84 1.359 . S
C83 C88 1.348 . S
C84 C83 1.359 . S
C84 C85 1.380 . S
C84 H112 0.929 . S
C85 C84 1.380 . S
C85 C86 1.347 . S
C85 H113 0.931 . S
C86 C85 1.347 . S
C86 C87 1.369 . S
C87 C86 1.369 . S
C87 C88 1.408 . S
C87 H114 0.930 . S
C88 C83 1.348 . S
C88 C87 1.408 . S
C88 H115 0.930 . S
C89 O102 1.281 . S
C89 O103 1.254 . S
C90 O104 1.236 . S
C90 O105 1.266 . S
C91 Tb81 2.809 . S
C91 C92 1.514 . S
C91 O106 1.248 . S
C91 O107 1.266 . S
C92 C91 1.514 . S
C92 C93 1.359 . S
C92 C97 1.348 . S
C93 C92 1.359 . S
C93 C94 1.380 . S
C93 H116 0.929 . S
C94 C93 1.380 . S
C94 C95 1.347 . S
C94 H117 0.931 . S
C95 C94 1.347 . S
C95 C96 1.369 . S
C96 C95 1.369 . S
C96 C97 1.408 . S
C96 H118 0.930 . S
C97 C92 1.348 . S
C97 C96 1.408 . S
C97 H119 0.930 . S
C98 O108 1.281 . S
C98 O109 1.254 . S
C99 O110 1.236 . S
C99 O111 1.266 . S
O100 Tb80 2.484 . S
O100 C82 1.248 . S
O101 Tb80 2.440 . S
O101 C82 1.266 . S
O102 Tb80 2.658 . S
O102 Tb81 2.325 . S
O102 C89 1.281 . S
O103 Tb80 2.409 . S
O103 C89 1.254 . S
O104 Tb80 2.378 . S
O104 C90 1.236 . S
O105 Tb81 2.341 . S
O105 C90 1.266 . S
O106 Tb81 2.484 . S
O106 C91 1.248 . S
O107 Tb81 2.440 . S
O107 C91 1.266 . S
O108 Tb80 2.325 . S
O108 Tb81 2.658 . S
O108 C98 1.281 . S
O109 Tb81 2.409 . S
O109 C98 1.254 . S
O110 Tb81 2.378 . S
O110 C99 1.236 . S
O111 Tb80 2.341 . S
O111 C99 1.266 . S
H112 C84 0.929 . S
H113 C85 0.931 . S
H114 C87 0.930 . S
H115 C88 0.930 . S
H116 C93 0.929 . S
H117 C94 0.931 . S
H118 C96 0.930 . S
H119 C97 0.930 . S
Tb120 C122 2.809 . S
Tb120 O140 2.484 . S
Tb120 O141 2.440 . S
Tb120 O142 2.658 1_455 S
Tb120 O143 2.409 . S
Tb120 O144 2.378 . S
Tb120 O148 2.325 . S
Tb120 O151 2.341 1_455 S
Tb121 C131 2.809 . S
Tb121 O142 2.325 . S
Tb121 O145 2.341 1_655 S
Tb121 O146 2.484 . S
Tb121 O147 2.440 . S
Tb121 O148 2.658 1_655 S
Tb121 O149 2.409 . S
Tb121 O150 2.378 . S
C122 Tb120 2.809 . S
C122 C123 1.514 . S
C122 O140 1.248 . S
C122 O141 1.266 . S
C123 C122 1.514 . S
C123 C124 1.359 . S
C123 C128 1.348 . S
C124 C123 1.359 . S
C124 C125 1.380 . S
C124 H152 0.929 . S
C125 C124 1.380 . S
C125 C126 1.347 . S
C125 H153 0.931 . S
C126 C125 1.347 . S
C126 C127 1.369 . S
C127 C126 1.369 . S
C127 C128 1.408 . S
C127 H154 0.930 . S
C128 C123 1.348 . S
C128 C127 1.408 . S
C128 H155 0.930 . S
C129 O142 1.281 1_455 S
C129 O143 1.254 . S
C130 O144 1.236 . S
C130 O145 1.266 . S
C131 Tb121 2.809 . S
C131 C132 1.514 . S
C131 O146 1.248 . S
C131 O147 1.266 . S
C132 C131 1.514 . S
C132 C133 1.359 . S
C132 C137 1.348 . S
C133 C132 1.359 . S
C133 C134 1.380 . S
C133 H156 0.929 . S
C134 C133 1.380 . S
C134 C135 1.347 . S
C134 H157 0.931 . S
C135 C134 1.347 . S
C135 C136 1.369 . S
C136 C135 1.369 . S
C136 C137 1.408 . S
C136 H158 0.930 . S
C137 C132 1.348 . S
C137 C136 1.408 . S
C137 H159 0.930 . S
C138 O148 1.281 . S
C138 O149 1.254 1_455 S
C139 O150 1.236 . S
C139 O151 1.266 . S
O140 Tb120 2.484 . S
O140 C122 1.248 . S
O141 Tb120 2.440 . S
O141 C122 1.266 . S
O142 Tb120 2.658 1_655 S
O142 Tb121 2.325 . S
O142 C129 1.281 1_655 S
O143 Tb120 2.409 . S
O143 C129 1.254 . S
O144 Tb120 2.378 . S
O144 C130 1.236 . S
O145 Tb121 2.341 1_455 S
O145 C130 1.266 . S
O146 Tb121 2.484 . S
O146 C131 1.248 . S
O147 Tb121 2.440 . S
O147 C131 1.266 . S
O148 Tb120 2.325 . S
O148 Tb121 2.658 1_455 S
O148 C138 1.281 . S
O149 Tb121 2.409 . S
O149 C138 1.254 1_655 S
O150 Tb121 2.378 . S
O150 C139 1.236 . S
O151 Tb120 2.341 1_655 S
O151 C139 1.266 . S
H152 C124 0.929 . S
H153 C125 0.931 . S
H154 C127 0.930 . S
H155 C128 0.930 . S
H156 C133 0.929 . S
H157 C134 0.931 . S
H158 C136 0.930 . S
H159 C137 0.930 . S
Tb160 C162 2.809 . S
Tb160 O180 2.484 . S
Tb160 O181 2.440 . S
Tb160 O182 2.658 . S
Tb160 O183 2.409 . S
Tb160 O184 2.378 . S
Tb160 O188 2.325 . S
Tb160 O191 2.341 . S
Tb161 C171 2.809 . S
Tb161 O182 2.325 . S
Tb161 O185 2.341 . S
Tb161 O186 2.484 . S
Tb161 O187 2.440 . S
Tb161 O188 2.658 . S
Tb161 O189 2.409 . S
Tb161 O190 2.378 . S
C162 Tb160 2.809 . S
C162 C163 1.514 . S
C162 O180 1.248 . S
C162 O181 1.266 . S
C163 C162 1.514 . S
C163 C164 1.359 . S
C163 C168 1.348 . S
C164 C163 1.359 . S
C164 C165 1.380 . S
C164 H192 0.929 . S
C165 C164 1.380 . S
C165 C166 1.347 . S
C165 H193 0.931 . S
C166 C165 1.347 . S
C166 C167 1.369 . S
C167 C166 1.369 . S
C167 C168 1.408 . S
C167 H194 0.930 . S
C168 C163 1.348 . S
C168 C167 1.408 . S
C168 H195 0.930 . S
C169 O182 1.281 . S
C169 O183 1.254 . S
C170 O184 1.236 . S
C170 O185 1.266 . S
C171 Tb161 2.809 . S
C171 C172 1.514 . S
C171 O186 1.248 . S
C171 O187 1.266 . S
C172 C171 1.514 . S
C172 C173 1.359 . S
C172 C177 1.348 . S
C173 C172 1.359 . S
C173 C174 1.380 . S
C173 H196 0.929 . S
C174 C173 1.380 . S
C174 C175 1.347 . S
C174 H197 0.931 . S
C175 C174 1.347 . S
C175 C176 1.369 . S
C176 C175 1.369 . S
C176 C177 1.408 . S
C176 H198 0.930 . S
C177 C172 1.348 . S
C177 C176 1.408 . S
C177 H199 0.930 . S
C178 O188 1.281 . S
C178 O189 1.254 . S
C179 O190 1.236 . S
C179 O191 1.266 . S
O180 Tb160 2.484 . S
O180 C162 1.248 . S
O181 Tb160 2.440 . S
O181 C162 1.266 . S
O182 Tb160 2.658 . S
O182 Tb161 2.325 . S
O182 C169 1.281 . S
O183 Tb160 2.409 . S
O183 C169 1.254 . S
O184 Tb160 2.378 . S
O184 C170 1.236 . S
O185 Tb161 2.341 . S
O185 C170 1.266 . S
O186 Tb161 2.484 . S
O186 C171 1.248 . S
O187 Tb161 2.440 . S
O187 C171 1.266 . S
O188 Tb160 2.325 . S
O188 Tb161 2.658 . S
O188 C178 1.281 . S
O189 Tb161 2.409 . S
O189 C178 1.254 . S
O190 Tb161 2.378 . S
O190 C179 1.236 . S
O191 Tb160 2.341 . S
O191 C179 1.266 . S
H192 C164 0.929 . S
H193 C165 0.931 . S
H194 C167 0.930 . S
H195 C168 0.930 . S
H196 C173 0.929 . S
H197 C174 0.931 . S
H198 C176 0.930 . S
H199 C177 0.930 . S
Tb200 C202 2.782 1_545 S
Tb200 O220 2.461 1_545 S
Tb200 O221 2.416 1_545 S
Tb200 O222 2.683 . S
Tb200 O223 2.417 . S
Tb200 O224 2.375 1_545 S
Tb200 O228 2.336 . S
Tb200 O231 2.363 . S
Tb201 C211 2.809 . S
Tb201 O222 2.325 . S
Tb201 O225 2.341 1_545 S
Tb201 O226 2.484 . S
Tb201 O227 2.440 . S
Tb201 O228 2.658 . S
Tb201 O229 2.409 . S
Tb201 O230 2.378 . S
C202 Tb200 2.782 1_565 S
C202 C203 1.514 . S
C202 O220 1.248 . S
C202 O221 1.266 . S
C203 C202 1.514 . S
C203 C204 1.359 . S
C203 C208 1.348 . S
C204 C203 1.359 . S
C204 C205 1.380 . S
C204 H232 0.929 . S
C205 C204 1.380 . S
C205 C206 1.347 . S
C205 H233 0.931 . S
C206 C205 1.347 . S
C206 C207 1.369 . S
C207 C206 1.369 . S
C207 C208 1.408 . S
C207 H234 0.930 . S
C208 C203 1.348 . S
C208 C207 1.408 . S
C208 H235 0.930 . S
C209 O222 1.281 . S
C209 O223 1.254 . S
C210 O224 1.236 . S
C210 O225 1.266 . S
C211 Tb201 2.809 . S
C211 C212 1.514 . S
C211 O226 1.248 . S
C211 O227 1.266 . S
C212 C211 1.514 . S
C212 C213 1.359 . S
C212 C217 1.348 . S
C213 C212 1.359 . S
C213 C214 1.380 . S
C213 H236 0.929 . S
C214 C213 1.380 . S
C214 C215 1.347 . S
C214 H237 0.931 . S
C215 C214 1.347 . S
C215 C216 1.369 . S
C216 C215 1.369 . S
C216 C217 1.408 . S
C216 H238 0.930 . S
C217 C212 1.348 . S
C217 C216 1.408 . S
C217 H239 0.930 . S
C218 O228 1.281 . S
C218 O229 1.254 . S
C219 O230 1.236 . S
C219 O231 1.266 . S
O220 Tb200 2.461 1_565 S
O220 C202 1.248 . S
O221 Tb200 2.416 1_565 S
O221 C202 1.266 . S
O222 Tb200 2.683 . S
O222 Tb201 2.325 . S
O222 C209 1.281 . S
O223 Tb200 2.417 . S
O223 C209 1.254 . S
O224 Tb200 2.375 1_565 S
O224 C210 1.236 . S
O225 Tb201 2.341 1_565 S
O225 C210 1.266 . S
O226 Tb201 2.484 . S
O226 C211 1.248 . S
O227 Tb201 2.440 . S
O227 C211 1.266 . S
O228 Tb200 2.336 . S
O228 Tb201 2.658 . S
O228 C218 1.281 . S
O229 Tb201 2.409 . S
O229 C218 1.254 . S
O230 Tb201 2.378 . S
O230 C219 1.236 . S
O231 Tb200 2.363 . S
O231 C219 1.266 . S
H232 C204 0.929 . S
H233 C205 0.931 . S
H234 C207 0.930 . S
H235 C208 0.930 . S
H236 C213 0.929 . S
H237 C214 0.931 . S
H238 C216 0.930 . S
H239 C217 0.930 . S
Tb240 C242 2.809 . S
Tb240 O260 2.484 . S
Tb240 O261 2.440 . S
Tb240 O262 2.658 . S
Tb240 O263 2.409 . S
Tb240 O264 2.378 . S
Tb240 O268 2.325 . S
Tb240 O271 2.341 . S
Tb241 C251 2.809 . S
Tb241 O262 2.325 . S
Tb241 O265 2.341 . S
Tb241 O266 2.484 . S
Tb241 O267 2.440 . S
Tb241 O268 2.658 . S
Tb241 O269 2.409 . S
Tb241 O270 2.378 . S
C242 Tb240 2.809 . S
C242 C243 1.514 . S
C242 O260 1.248 . S
C242 O261 1.266 . S
C243 C242 1.514 . S
C243 C244 1.359 . S
C243 C248 1.348 . S
C244 C243 1.359 . S
C244 C245 1.380 . S
C244 H272 0.929 . S
C245 C244 1.380 . S
C245 C246 1.347 . S
C245 H273 0.931 . S
C246 C245 1.347 . S
C246 C247 1.369 . S
C247 C246 1.369 . S
C247 C248 1.408 . S
C247 H274 0.930 . S
C248 C243 1.348 . S
C248 C247 1.408 . S
C248 H275 0.930 . S
C249 O262 1.281 . S
C249 O263 1.254 . S
C250 O264 1.236 . S
C250 O265 1.266 . S
C251 Tb241 2.809 . S
C251 C252 1.514 . S
C251 O266 1.248 . S
C251 O267 1.266 . S
C252 C251 1.514 . S
C252 C253 1.359 . S
C252 C257 1.348 . S
C253 C252 1.359 . S
C253 C254 1.391 . S
C253 H276 0.929 . S
C254 C253 1.391 . S
C254 C255 1.338 1_455 S
C254 H277 0.930 1_455 S
C255 C254 1.338 1_655 S
C255 C256 1.369 . S
C256 C255 1.369 . S
C256 C257 1.408 1_655 S
C256 H278 0.930 . S
C257 C252 1.348 . S
C257 C256 1.408 1_455 S
C257 H279 0.930 . S
C258 O268 1.281 . S
C258 O269 1.254 . S
C259 O270 1.236 . S
C259 O271 1.266 . S
O260 Tb240 2.484 . S
O260 C242 1.248 . S
O261 Tb240 2.440 . S
O261 C242 1.266 . S
O262 Tb240 2.658 . S
O262 Tb241 2.325 . S
O262 C249 1.281 . S
O263 Tb240 2.409 . S
O263 C249 1.254 . S
O264 Tb240 2.378 . S
O264 C250 1.236 . S
O265 Tb241 2.341 . S
O265 C250 1.266 . S
O266 Tb241 2.484 . S
O266 C251 1.248 . S
O267 Tb241 2.440 . S
O267 C251 1.266 . S
O268 Tb240 2.325 . S
O268 Tb241 2.658 . S
O268 C258 1.281 . S
O269 Tb241 2.409 . S
O269 C258 1.254 . S
O270 Tb241 2.378 . S
O270 C259 1.236 . S
O271 Tb240 2.341 . S
O271 C259 1.266 . S
H272 C244 0.929 . S
H273 C245 0.931 . S
H274 C247 0.930 . S
H275 C248 0.930 . S
H276 C253 0.929 . S
H277 C254 0.930 1_655 S
H278 C256 0.930 . S
H279 C257 0.930 . S
Tb280 C282 2.809 . S
Tb280 O300 2.484 . S
Tb280 O301 2.440 . S
Tb280 O302 2.658 . S
Tb280 O303 2.409 . S
Tb280 O304 2.378 . S
Tb280 O308 2.325 . S
Tb280 O311 2.341 . S
Tb281 C291 2.809 . S
Tb281 O302 2.325 . S
Tb281 O305 2.341 . S
Tb281 O306 2.484 . S
Tb281 O307 2.440 . S
Tb281 O308 2.658 . S
Tb281 O309 2.409 . S
Tb281 O310 2.378 . S
C282 Tb280 2.809 . S
C282 C283 1.514 . S
C282 O300 1.248 . S
C282 O301 1.266 . S
C283 C282 1.514 . S
C283 C284 1.359 . S
C283 C288 1.348 . S
C284 C283 1.359 . S
C284 C285 1.380 . S
C284 H312 0.929 . S
C285 C284 1.380 . S
C285 C286 1.347 . S
C285 H313 0.931 . S
C286 C285 1.347 . S
C286 C287 1.369 . S
C287 C286 1.369 . S
C287 C288 1.408 . S
C287 H314 0.930 . S
C288 C283 1.348 . S
C288 C287 1.408 . S
C288 H315 0.930 . S
C289 O302 1.281 . S
C289 O303 1.254 . S
C290 O304 1.236 . S
C290 O305 1.266 . S
C291 Tb281 2.809 . S
C291 C292 1.514 . S
C291 O306 1.248 . S
C291 O307 1.266 . S
C292 C291 1.514 . S
C292 C293 1.359 . S
C292 C297 1.348 . S
C293 C292 1.359 . S
C293 C294 1.380 . S
C293 H316 0.929 . S
C294 C293 1.380 . S
C294 C295 1.347 . S
C294 H317 0.931 . S
C295 C294 1.347 . S
C295 C296 1.369 . S
C296 C295 1.369 . S
C296 C297 1.408 . S
C296 H318 0.930 . S
C297 C292 1.348 . S
C297 C296 1.408 . S
C297 H319 0.930 . S
C298 O308 1.281 . S
C298 O309 1.254 . S
C299 O310 1.236 . S
C299 O311 1.266 . S
O300 Tb280 2.484 . S
O300 C282 1.248 . S
O301 Tb280 2.440 . S
O301 C282 1.266 . S
O302 Tb280 2.658 . S
O302 Tb281 2.325 . S
O302 C289 1.281 . S
O303 Tb280 2.409 . S
O303 C289 1.254 . S
O304 Tb280 2.378 . S
O304 C290 1.236 . S
O305 Tb281 2.341 . S
O305 C290 1.266 . S
O306 Tb281 2.484 . S
O306 C291 1.248 . S
O307 Tb281 2.440 . S
O307 C291 1.266 . S
O308 Tb280 2.325 . S
O308 Tb281 2.658 . S
O308 C298 1.281 . S
O309 Tb281 2.409 . S
O309 C298 1.254 . S
O310 Tb281 2.378 . S
O310 C299 1.236 . S
O311 Tb280 2.341 . S
O311 C299 1.266 . S
H312 C284 0.929 . S
H313 C285 0.931 . S
H314 C287 0.930 . S
H315 C288 0.930 . S
H316 C293 0.929 . S
H317 C294 0.931 . S
H318 C296 0.930 . S
H319 C297 0.930 . S
Tb320 C322 2.809 . S
Tb320 O340 2.484 . S
Tb320 O341 2.440 . S
Tb320 O342 2.658 . S
Tb320 O343 2.409 . S
Tb320 O344 2.378 . S
Tb320 O348 2.325 . S
Tb320 O351 2.341 . S
Tb321 C331 2.809 . S
Tb321 O342 2.325 . S
Tb321 O345 2.341 . S
Tb321 O346 2.484 . S
Tb321 O347 2.440 . S
Tb321 O348 2.658 . S
Tb321 O349 2.409 . S
Tb321 O350 2.378 . S
C322 Tb320 2.809 . S
C322 C323 1.514 . S
C322 O340 1.248 . S
C322 O341 1.266 . S
C323 C322 1.514 . S
C323 C324 1.359 . S
C323 C328 1.348 . S
C324 C323 1.359 . S
C324 C325 1.380 . S
C324 H352 0.929 . S
C325 C324 1.380 . S
C325 C326 1.347 . S
C325 H353 0.931 . S
C326 C325 1.347 . S
C326 C327 1.369 . S
C327 C326 1.369 . S
C327 C328 1.408 . S
C327 H354 0.930 . S
C328 C323 1.348 . S
C328 C327 1.408 . S
C328 H355 0.930 . S
C329 O342 1.281 . S
C329 O343 1.254 . S
C330 O344 1.236 . S
C330 O345 1.266 . S
C331 Tb321 2.809 . S
C331 C332 1.514 . S
C331 O346 1.248 . S
C331 O347 1.266 . S
C332 C331 1.514 . S
C332 C333 1.359 1_565 S
C332 C337 1.348 1_565 S
C333 C332 1.359 1_545 S
C333 C334 1.380 . S
C333 H356 0.929 1_545 S
C334 C333 1.380 . S
C334 C335 1.347 . S
C334 H357 0.931 . S
C335 C334 1.347 . S
C335 C336 1.369 . S
C336 C335 1.369 . S
C336 C337 1.408 . S
C336 H358 0.930 . S
C337 C332 1.348 1_545 S
C337 C336 1.408 . S
C337 H359 0.930 1_545 S
C338 O348 1.281 . S
C338 O349 1.254 . S
C339 O350 1.236 . S
C339 O351 1.266 . S
O340 Tb320 2.484 . S
O340 C322 1.248 . S
O341 Tb320 2.440 . S
O341 C322 1.266 . S
O342 Tb320 2.658 . S
O342 Tb321 2.325 . S
O342 C329 1.281 . S
O343 Tb320 2.409 . S
O343 C329 1.254 . S
O344 Tb320 2.378 . S
O344 C330 1.236 . S
O345 Tb321 2.341 . S
O345 C330 1.266 . S
O346 Tb321 2.484 . S
O346 C331 1.248 . S
O347 Tb321 2.440 . S
O347 C331 1.266 . S
O348 Tb320 2.325 . S
O348 Tb321 2.658 . S
O348 C338 1.281 . S
O349 Tb321 2.409 . S
O349 C338 1.254 . S
O350 Tb321 2.378 . S
O350 C339 1.236 . S
O351 Tb320 2.341 . S
O351 C339 1.266 . S
H352 C324 0.929 . S
H353 C325 0.931 . S
H354 C327 0.930 . S
H355 C328 0.930 . S
H356 C333 0.929 1_565 S
H357 C334 0.931 . S
H358 C336 0.930 . S
H359 C337 0.930 1_565 S
Tb360 C362 2.809 . S
Tb360 O380 2.484 . S
Tb360 O381 2.440 . S
Tb360 O382 2.658 . S
Tb360 O383 2.409 . S
Tb360 O384 2.378 . S
Tb360 O388 2.325 . S
Tb360 O391 2.341 . S
Tb361 C371 2.809 . S
Tb361 O382 2.325 . S
Tb361 O385 2.341 . S
Tb361 O386 2.484 . S
Tb361 O387 2.440 . S
Tb361 O388 2.658 . S
Tb361 O389 2.409 . S
Tb361 O390 2.378 . S
C362 Tb360 2.809 . S
C362 C363 1.514 . S
C362 O380 1.248 . S
C362 O381 1.266 . S
C363 C362 1.514 . S
C363 C364 1.359 . S
C363 C368 1.348 . S
C364 C363 1.359 . S
C364 C365 1.380 . S
C364 H392 0.929 . S
C365 C364 1.380 . S
C365 C366 1.347 . S
C365 H393 0.931 . S
C366 C365 1.347 . S
C366 C367 1.369 . S
C367 C366 1.369 . S
C367 C368 1.408 . S
C367 H394 0.930 . S
C368 C363 1.348 . S
C368 C367 1.408 . S
C368 H395 0.930 . S
C369 O382 1.281 . S
C369 O383 1.254 . S
C370 O384 1.236 . S
C370 O385 1.266 . S
C371 Tb361 2.809 . S
C371 C372 1.514 . S
C371 O386 1.248 . S
C371 O387 1.266 . S
C372 C371 1.514 . S
C372 C373 1.359 . S
C372 C377 1.348 . S
C373 C372 1.359 . S
C373 C374 1.380 . S
C373 H396 0.929 . S
C374 C373 1.380 . S
C374 C375 1.347 . S
C374 H397 0.931 . S
C375 C374 1.347 . S
C375 C376 1.369 . S
C376 C375 1.369 . S
C376 C377 1.408 . S
C376 H398 0.930 . S
C377 C372 1.348 . S
C377 C376 1.408 . S
C377 H399 0.930 . S
C378 O388 1.281 . S
C378 O389 1.254 . S
C379 O390 1.236 . S
C379 O391 1.266 . S
O380 Tb360 2.484 . S
O380 C362 1.248 . S
O381 Tb360 2.440 . S
O381 C362 1.266 . S
O382 Tb360 2.658 . S
O382 Tb361 2.325 . S
O382 C369 1.281 . S
O383 Tb360 2.409 . S
O383 C369 1.254 . S
O384 Tb360 2.378 . S
O384 C370 1.236 . S
O385 Tb361 2.341 . S
O385 C370 1.266 . S
O386 Tb361 2.484 . S
O386 C371 1.248 . S
O387 Tb361 2.440 . S
O387 C371 1.266 . S
O388 Tb360 2.325 . S
O388 Tb361 2.658 . S
O388 C378 1.281 . S
O389 Tb361 2.409 . S
O389 C378 1.254 . S
O390 Tb361 2.378 . S
O390 C379 1.236 . S
O391 Tb360 2.341 . S
O391 C379 1.266 . S
H392 C364 0.929 . S
H393 C365 0.931 . S
H394 C367 0.930 . S
H395 C368 0.930 . S
H396 C373 0.929 . S
H397 C374 0.931 . S
H398 C376 0.930 . S
H399 C377 0.930 . S
Tb400 C402 2.809 . S
Tb400 O420 2.484 . S
Tb400 O421 2.440 . S
Tb400 O422 2.658 . S
Tb400 O423 2.409 . S
Tb400 O424 2.378 . S
Tb400 O428 2.325 . S
Tb400 O431 2.341 . S
Tb401 C411 2.809 . S
Tb401 O422 2.325 . S
Tb401 O425 2.341 . S
Tb401 O426 2.484 . S
Tb401 O427 2.440 . S
Tb401 O428 2.658 . S
Tb401 O429 2.409 . S
Tb401 O430 2.378 . S
C402 Tb400 2.809 . S
C402 C403 1.514 . S
C402 O420 1.248 . S
C402 O421 1.266 . S
C403 C402 1.514 . S
C403 C404 1.359 . S
C403 C408 1.348 . S
C404 C403 1.359 . S
C404 C405 1.380 . S
C404 H432 0.929 . S
C405 C404 1.380 . S
C405 C406 1.347 . S
C405 H433 0.931 . S
C406 C405 1.347 . S
C406 C407 1.369 . S
C407 C406 1.369 . S
C407 C408 1.408 . S
C407 H434 0.930 . S
C408 C403 1.348 . S
C408 C407 1.408 . S
C408 H435 0.930 . S
C409 O422 1.281 . S
C409 O423 1.254 . S
C410 O424 1.236 . S
C410 O425 1.266 . S
C411 Tb401 2.809 . S
C411 C412 1.514 . S
C411 O426 1.248 . S
C411 O427 1.266 . S
C412 C411 1.514 . S
C412 C413 1.359 . S
C412 C417 1.348 . S
C413 C412 1.359 . S
C413 C414 1.380 . S
C413 H436 0.929 . S
C414 C413 1.380 . S
C414 C415 1.347 . S
C414 H437 0.931 . S
C415 C414 1.347 . S
C415 C416 1.369 . S
C416 C415 1.369 . S
C416 C417 1.408 . S
C416 H438 0.930 . S
C417 C412 1.348 . S
C417 C416 1.408 . S
C417 H439 0.930 . S
C418 O428 1.281 . S
C418 O429 1.254 . S
C419 O430 1.236 . S
C419 O431 1.266 . S
O420 Tb400 2.484 . S
O420 C402 1.248 . S
O421 Tb400 2.440 . S
O421 C402 1.266 . S
O422 Tb400 2.658 . S
O422 Tb401 2.325 . S
O422 C409 1.281 . S
O423 Tb400 2.409 . S
O423 C409 1.254 . S
O424 Tb400 2.378 . S
O424 C410 1.236 . S
O425 Tb401 2.341 . S
O425 C410 1.266 . S
O426 Tb401 2.484 . S
O426 C411 1.248 . S
O427 Tb401 2.440 . S
O427 C411 1.266 . S
O428 Tb400 2.325 . S
O428 Tb401 2.658 . S
O428 C418 1.281 . S
O429 Tb401 2.409 . S
O429 C418 1.254 . S
O430 Tb401 2.378 . S
O430 C419 1.236 . S
O431 Tb400 2.341 . S
O431 C419 1.266 . S
H432 C404 0.929 . S
H433 C405 0.931 . S
H434 C407 0.930 . S
H435 C408 0.930 . S
H436 C413 0.929 . S
H437 C414 0.931 . S
H438 C416 0.930 . S
H439 C417 0.930 . S
Tb440 C442 2.809 . S
Tb440 O460 2.484 . S
Tb440 O461 2.440 . S
Tb440 O462 2.658 . S
Tb440 O463 2.409 . S
Tb440 O464 2.378 . S
Tb440 O468 2.325 . S
Tb440 O471 2.341 . S
Tb441 C451 2.809 . S
Tb441 O462 2.325 . S
Tb441 O465 2.341 . S
Tb441 O466 2.484 . S
Tb441 O467 2.440 . S
Tb441 O468 2.658 . S
Tb441 O469 2.409 . S
Tb441 O470 2.378 . S
C442 Tb440 2.809 . S
C442 C443 1.514 . S
C442 O460 1.248 . S
C442 O461 1.266 . S
C443 C442 1.514 . S
C443 C444 1.359 . S
C443 C448 1.348 . S
C444 C443 1.359 . S
C444 C445 1.380 . S
C444 H472 0.929 . S
C445 C444 1.380 . S
C445 C446 1.347 . S
C445 H473 0.931 . S
C446 C445 1.347 . S
C446 C447 1.369 . S
C447 C446 1.369 . S
C447 C448 1.408 . S
C447 H474 0.930 . S
C448 C443 1.348 . S
C448 C447 1.408 . S
C448 H475 0.930 . S
C449 O462 1.281 . S
C449 O463 1.254 . S
C450 O464 1.236 . S
C450 O465 1.266 . S
C451 Tb441 2.809 . S
C451 C452 1.514 . S
C451 O466 1.248 . S
C451 O467 1.266 . S
C452 C451 1.514 . S
C452 C453 1.359 . S
C452 C457 1.348 . S
C453 C452 1.359 . S
C453 C454 1.380 . S
C453 H476 0.929 . S
C454 C453 1.380 . S
C454 C455 1.347 . S
C454 H477 0.931 . S
C455 C454 1.347 . S
C455 C456 1.369 . S
C456 C455 1.369 . S
C456 C457 1.408 . S
C456 H478 0.930 . S
C457 C452 1.348 . S
C457 C456 1.408 . S
C457 H479 0.930 . S
C458 O468 1.281 . S
C458 O469 1.254 . S
C459 O470 1.236 . S
C459 O471 1.266 . S
O460 Tb440 2.484 . S
O460 C442 1.248 . S
O461 Tb440 2.440 . S
O461 C442 1.266 . S
O462 Tb440 2.658 . S
O462 Tb441 2.325 . S
O462 C449 1.281 . S
O463 Tb440 2.409 . S
O463 C449 1.254 . S
O464 Tb440 2.378 . S
O464 C450 1.236 . S
O465 Tb441 2.341 . S
O465 C450 1.266 . S
O466 Tb441 2.484 . S
O466 C451 1.248 . S
O467 Tb441 2.440 . S
O467 C451 1.266 . S
O468 Tb440 2.325 . S
O468 Tb441 2.658 . S
O468 C458 1.281 . S
O469 Tb441 2.409 . S
O469 C458 1.254 . S
O470 Tb441 2.378 . S
O470 C459 1.236 . S
O471 Tb440 2.341 . S
O471 C459 1.266 . S
H472 C444 0.929 . S
H473 C445 0.931 . S
H474 C447 0.930 . S
H475 C448 0.930 . S
H476 C453 0.929 . S
H477 C454 0.931 . S
H478 C456 0.930 . S
H479 C457 0.930 . S
Tb480 C482 2.809 . S
Tb480 O500 2.484 . S
Tb480 O501 2.440 . S
Tb480 O502 2.658 . S
Tb480 O503 2.409 . S
Tb480 O504 2.378 . S
Tb480 O508 2.325 . S
Tb480 O511 2.341 . S
Tb481 C491 2.809 . S
Tb481 O502 2.325 . S
Tb481 O505 2.341 . S
Tb481 O506 2.484 . S
Tb481 O507 2.440 . S
Tb481 O508 2.658 . S
Tb481 O509 2.409 . S
Tb481 O510 2.378 . S
C482 Tb480 2.809 . S
C482 C483 1.514 . S
C482 O500 1.248 . S
C482 O501 1.266 . S
C483 C482 1.514 . S
C483 C484 1.359 . S
C483 C488 1.348 . S
C484 C483 1.359 . S
C484 C485 1.380 . S
C484 H512 0.929 . S
C485 C484 1.380 . S
C485 C486 1.347 . S
C485 H513 0.931 . S
C486 C485 1.347 . S
C486 C487 1.369 . S
C487 C486 1.369 . S
C487 C488 1.408 . S
C487 H514 0.930 . S
C488 C483 1.348 . S
C488 C487 1.408 . S
C488 H515 0.930 . S
C489 O502 1.281 . S
C489 O503 1.254 . S
C490 O504 1.236 . S
C490 O505 1.266 . S
C491 Tb481 2.809 . S
C491 C492 1.514 . S
C491 O506 1.248 . S
C491 O507 1.266 . S
C492 C491 1.514 . S
C492 C493 1.359 . S
C492 C497 1.348 . S
C493 C492 1.359 . S
C493 C494 1.380 . S
C493 H516 0.929 . S
C494 C493 1.380 . S
C494 C495 1.347 . S
C494 H517 0.931 . S
C495 C494 1.347 . S
C495 C496 1.369 . S
C496 C495 1.369 . S
C496 C497 1.408 . S
C496 H518 0.930 . S
C497 C492 1.348 . S
C497 C496 1.408 . S
C497 H519 0.930 . S
C498 O508 1.281 . S
C498 O509 1.254 . S
C499 O510 1.236 . S
C499 O511 1.266 . S
O500 Tb480 2.484 . S
O500 C482 1.248 . S
O501 Tb480 2.440 . S
O501 C482 1.266 . S
O502 Tb480 2.658 . S
O502 Tb481 2.325 . S
O502 C489 1.281 . S
O503 Tb480 2.409 . S
O503 C489 1.254 . S
O504 Tb480 2.378 . S
O504 C490 1.236 . S
O505 Tb481 2.341 . S
O505 C490 1.266 . S
O506 Tb481 2.484 . S
O506 C491 1.248 . S
O507 Tb481 2.440 . S
O507 C491 1.266 . S
O508 Tb480 2.325 . S
O508 Tb481 2.658 . S
O508 C498 1.281 . S
O509 Tb481 2.409 . S
O509 C498 1.254 . S
O510 Tb481 2.378 . S
O510 C499 1.236 . S
O511 Tb480 2.341 . S
O511 C499 1.266 . S
H512 C484 0.929 . S
H513 C485 0.931 . S
H514 C487 0.930 . S
H515 C488 0.930 . S
H516 C493 0.929 . S
H517 C494 0.931 . S
H518 C496 0.930 . S
H519 C497 0.930 . S
Tb520 C522 2.809 . S
Tb520 O540 2.484 . S
Tb520 O541 2.440 . S
Tb520 O542 2.658 . S
Tb520 O543 2.409 . S
Tb520 O544 2.378 . S
Tb520 O548 2.325 . S
Tb520 O551 2.341 . S
Tb521 C531 2.809 . S
Tb521 O542 2.325 . S
Tb521 O545 2.341 . S
Tb521 O546 2.484 . S
Tb521 O547 2.440 . S
Tb521 O548 2.658 . S
Tb521 O549 2.409 . S
Tb521 O550 2.378 . S
C522 Tb520 2.809 . S
C522 C523 1.514 . S
C522 O540 1.248 . S
C522 O541 1.266 . S
C523 C522 1.514 . S
C523 C524 1.359 . S
C523 C528 1.348 . S
C524 C523 1.359 . S
C524 C525 1.380 . S
C524 H552 0.929 . S
C525 C524 1.380 . S
C525 C526 1.347 . S
C525 H553 0.931 . S
C526 C525 1.347 . S
C526 C527 1.369 . S
C527 C526 1.369 . S
C527 C528 1.408 . S
C527 H554 0.930 . S
C528 C523 1.348 . S
C528 C527 1.408 . S
C528 H555 0.930 . S
C529 O542 1.281 . S
C529 O543 1.254 . S
C530 O544 1.236 . S
C530 O545 1.266 . S
C531 Tb521 2.809 . S
C531 C532 1.514 . S
C531 O546 1.248 . S
C531 O547 1.266 . S
C532 C531 1.514 . S
C532 C533 1.359 . S
C532 C537 1.348 . S
C533 C532 1.359 . S
C533 C534 1.380 . S
C533 H556 0.929 . S
C534 C533 1.380 . S
C534 C535 1.347 . S
C534 H557 0.931 . S
C535 C534 1.347 . S
C535 C536 1.369 . S
C536 C535 1.369 . S
C536 C537 1.408 . S
C536 H558 0.930 . S
C537 C532 1.348 . S
C537 C536 1.408 . S
C537 H559 0.930 . S
C538 O548 1.281 . S
C538 O549 1.254 . S
C539 O550 1.236 . S
C539 O551 1.266 . S
O540 Tb520 2.484 . S
O540 C522 1.248 . S
O541 Tb520 2.440 . S
O541 C522 1.266 . S
O542 Tb520 2.658 . S
O542 Tb521 2.325 . S
O542 C529 1.281 . S
O543 Tb520 2.409 . S
O543 C529 1.254 . S
O544 Tb520 2.378 . S
O544 C530 1.236 . S
O545 Tb521 2.341 . S
O545 C530 1.266 . S
O546 Tb521 2.484 . S
O546 C531 1.248 . S
O547 Tb521 2.440 . S
O547 C531 1.266 . S
O548 Tb520 2.325 . S
O548 Tb521 2.658 . S
O548 C538 1.281 . S
O549 Tb521 2.409 . S
O549 C538 1.254 . S
O550 Tb521 2.378 . S
O550 C539 1.236 . S
O551 Tb520 2.341 . S
O551 C539 1.266 . S
H552 C524 0.929 . S
H553 C525 0.931 . S
H554 C527 0.930 . S
H555 C528 0.930 . S
H556 C533 0.929 . S
H557 C534 0.931 . S
H558 C536 0.930 . S
H559 C537 0.930 . S
Tb560 C562 2.809 . S
Tb560 O580 2.484 . S
Tb560 O581 2.440 . S
Tb560 O582 2.658 . S
Tb560 O583 2.409 . S
Tb560 O584 2.378 . S
Tb560 O588 2.325 . S
Tb560 O591 2.341 . S
Tb561 C571 2.809 . S
Tb561 O582 2.325 . S
Tb561 O585 2.341 . S
Tb561 O586 2.484 . S
Tb561 O587 2.440 . S
Tb561 O588 2.658 . S
Tb561 O589 2.409 . S
Tb561 O590 2.378 . S
C562 Tb560 2.809 . S
C562 C563 1.514 . S
C562 O580 1.248 . S
C562 O581 1.266 . S
C563 C562 1.514 . S
C563 C564 1.359 . S
C563 C568 1.348 . S
C564 C563 1.359 . S
C564 C565 1.380 . S
C564 H592 0.929 . S
C565 C564 1.380 . S
C565 C566 1.347 . S
C565 H593 0.931 . S
C566 C565 1.347 . S
C566 C567 1.369 . S
C567 C566 1.369 . S
C567 C568 1.408 . S
C567 H594 0.930 . S
C568 C563 1.348 . S
C568 C567 1.408 . S
C568 H595 0.930 . S
C569 O582 1.281 . S
C569 O583 1.254 . S
C570 O584 1.236 . S
C570 O585 1.266 . S
C571 Tb561 2.809 . S
C571 C572 1.514 . S
C571 O586 1.248 . S
C571 O587 1.266 . S
C572 C571 1.514 . S
C572 C573 1.359 . S
C572 C577 1.348 . S
C573 C572 1.359 . S
C573 C574 1.380 . S
C573 H596 0.929 . S
C574 C573 1.380 . S
C574 C575 1.347 . S
C574 H597 0.931 . S
C575 C574 1.347 . S
C575 C576 1.369 . S
C576 C575 1.369 . S
C576 C577 1.408 . S
C576 H598 0.930 . S
C577 C572 1.348 . S
C577 C576 1.408 . S
C577 H599 0.930 . S
C578 O588 1.281 . S
C578 O589 1.254 . S
C579 O590 1.236 . S
C579 O591 1.266 . S
O580 Tb560 2.484 . S
O580 C562 1.248 . S
O581 Tb560 2.440 . S
O581 C562 1.266 . S
O582 Tb560 2.658 . S
O582 Tb561 2.325 . S
O582 C569 1.281 . S
O583 Tb560 2.409 . S
O583 C569 1.254 . S
O584 Tb560 2.378 . S
O584 C570 1.236 . S
O585 Tb561 2.341 . S
O585 C570 1.266 . S
O586 Tb561 2.484 . S
O586 C571 1.248 . S
O587 Tb561 2.440 . S
O587 C571 1.266 . S
O588 Tb560 2.325 . S
O588 Tb561 2.658 . S
O588 C578 1.281 . S
O589 Tb561 2.409 . S
O589 C578 1.254 . S
O590 Tb561 2.378 . S
O590 C579 1.236 . S
O591 Tb560 2.341 . S
O591 C579 1.266 . S
H592 C564 0.929 . S
H593 C565 0.931 . S
H594 C567 0.930 . S
H595 C568 0.930 . S
H596 C573 0.929 . S
H597 C574 0.931 . S
H598 C576 0.930 . S
H599 C577 0.930 . S
Tb600 C602 2.809 . S
Tb600 O620 2.484 . S
Tb600 O621 2.440 . S
Tb600 O622 2.658 . S
Tb600 O623 2.409 . S
Tb600 O624 2.378 . S
Tb600 O628 2.325 . S
Tb600 O631 2.341 . S
Tb601 C611 2.809 . S
Tb601 O622 2.325 . S
Tb601 O625 2.341 . S
Tb601 O626 2.484 . S
Tb601 O627 2.440 . S
Tb601 O628 2.658 . S
Tb601 O629 2.409 . S
Tb601 O630 2.378 . S
C602 Tb600 2.809 . S
C602 C603 1.514 . S
C602 O620 1.248 . S
C602 O621 1.266 . S
C603 C602 1.514 . S
C603 C604 1.359 . S
C603 C608 1.348 . S
C604 C603 1.359 . S
C604 C605 1.380 . S
C604 H632 0.929 . S
C605 C604 1.380 . S
C605 C606 1.347 . S
C605 H633 0.931 . S
C606 C605 1.347 . S
C606 C607 1.369 . S
C607 C606 1.369 . S
C607 C608 1.408 . S
C607 H634 0.930 . S
C608 C603 1.348 . S
C608 C607 1.408 . S
C608 H635 0.930 . S
C609 O622 1.281 . S
C609 O623 1.254 . S
C610 O624 1.236 . S
C610 O625 1.266 . S
C611 Tb601 2.809 . S
C611 C612 1.514 . S
C611 O626 1.248 . S
C611 O627 1.266 . S
C612 C611 1.514 . S
C612 C613 1.359 . S
C612 C617 1.348 . S
C613 C612 1.359 . S
C613 C614 1.391 . S
C613 H636 0.929 . S
C614 C613 1.391 . S
C614 C615 1.338 1_545 S
C614 H637 0.930 1_545 S
C615 C614 1.338 1_565 S
C615 C616 1.369 . S
C616 C615 1.369 . S
C616 C617 1.408 1_565 S
C616 H638 0.930 . S
C617 C612 1.348 . S
C617 C616 1.408 1_545 S
C617 H639 0.930 . S
C618 O628 1.281 . S
C618 O629 1.254 . S
C619 O630 1.236 . S
C619 O631 1.266 . S
O620 Tb600 2.484 . S
O620 C602 1.248 . S
O621 Tb600 2.440 . S
O621 C602 1.266 . S
O622 Tb600 2.658 . S
O622 Tb601 2.325 . S
O622 C609 1.281 . S
O623 Tb600 2.409 . S
O623 C609 1.254 . S
O624 Tb600 2.378 . S
O624 C610 1.236 . S
O625 Tb601 2.341 . S
O625 C610 1.266 . S
O626 Tb601 2.484 . S
O626 C611 1.248 . S
O627 Tb601 2.440 . S
O627 C611 1.266 . S
O628 Tb600 2.325 . S
O628 Tb601 2.658 . S
O628 C618 1.281 . S
O629 Tb601 2.409 . S
O629 C618 1.254 . S
O630 Tb601 2.378 . S
O630 C619 1.236 . S
O631 Tb600 2.341 . S
O631 C619 1.266 . S
H632 C604 0.929 . S
H633 C605 0.931 . S
H634 C607 0.930 . S
H635 C608 0.930 . S
H636 C613 0.929 . S
H637 C614 0.930 1_565 S
H638 C616 0.930 . S
H639 C617 0.930 . S
Tb640 C642 2.809 . S
Tb640 O660 2.484 . S
Tb640 O661 2.440 . S
Tb640 O662 2.658 . S
Tb640 O663 2.409 . S
Tb640 O664 2.378 . S
Tb640 O668 2.325 . S
Tb640 O671 2.341 . S
Tb641 C651 2.809 . S
Tb641 O662 2.325 . S
Tb641 O665 2.341 . S
Tb641 O666 2.484 . S
Tb641 O667 2.440 . S
Tb641 O668 2.658 . S
Tb641 O669 2.409 . S
Tb641 O670 2.378 . S
C642 Tb640 2.809 . S
C642 C643 1.514 . S
C642 O660 1.248 . S
C642 O661 1.266 . S
C643 C642 1.514 . S
C643 C644 1.359 . S
C643 C648 1.348 . S
C644 C643 1.359 . S
C644 C645 1.380 . S
C644 H672 0.929 . S
C645 C644 1.380 . S
C645 C646 1.347 . S
C645 H673 0.931 . S
C646 C645 1.347 . S
C646 C647 1.369 . S
C647 C646 1.369 . S
C647 C648 1.408 . S
C647 H674 0.930 . S
C648 C643 1.348 . S
C648 C647 1.408 . S
C648 H675 0.930 . S
C649 O662 1.281 . S
C649 O663 1.254 . S
C650 O664 1.236 . S
C650 O665 1.266 . S
C651 Tb641 2.809 . S
C651 C652 1.514 . S
C651 O666 1.248 . S
C651 O667 1.266 . S
C652 C651 1.514 . S
C652 C653 1.359 1_655 S
C652 C657 1.348 1_655 S
C653 C652 1.359 1_455 S
C653 C654 1.380 . S
C653 H676 0.929 1_455 S
C654 C653 1.380 . S
C654 C655 1.347 . S
C654 H677 0.931 . S
C655 C654 1.347 . S
C655 C656 1.369 . S
C656 C655 1.369 . S
C656 C657 1.408 . S
C656 H678 0.930 . S
C657 C652 1.348 1_455 S
C657 C656 1.408 . S
C657 H679 0.930 1_455 S
C658 O668 1.281 . S
C658 O669 1.254 . S
C659 O670 1.236 . S
C659 O671 1.266 . S
O660 Tb640 2.484 . S
O660 C642 1.248 . S
O661 Tb640 2.440 . S
O661 C642 1.266 . S
O662 Tb640 2.658 . S
O662 Tb641 2.325 . S
O662 C649 1.281 . S
O663 Tb640 2.409 . S
O663 C649 1.254 . S
O664 Tb640 2.378 . S
O664 C650 1.236 . S
O665 Tb641 2.341 . S
O665 C650 1.266 . S
O666 Tb641 2.484 . S
O666 C651 1.248 . S
O667 Tb641 2.440 . S
O667 C651 1.266 . S
O668 Tb640 2.325 . S
O668 Tb641 2.658 . S
O668 C658 1.281 . S
O669 Tb641 2.409 . S
O669 C658 1.254 . S
O670 Tb641 2.378 . S
O670 C659 1.236 . S
O671 Tb640 2.341 . S
O671 C659 1.266 . S
H672 C644 0.929 . S
H673 C645 0.931 . S
H674 C647 0.930 . S
H675 C648 0.930 . S
H676 C653 0.929 1_655 S
H677 C654 0.931 . S
H678 C656 0.930 . S
H679 C657 0.930 1_655 S
Tb680 C682 2.809 . S
Tb680 O700 2.484 . S
Tb680 O701 2.440 . S
Tb680 O702 2.658 . S
Tb680 O703 2.409 . S
Tb680 O704 2.378 . S
Tb680 O708 2.325 . S
Tb680 O711 2.341 . S
Tb681 C691 2.809 . S
Tb681 O702 2.325 . S
Tb681 O705 2.341 . S
Tb681 O706 2.484 . S
Tb681 O707 2.440 . S
Tb681 O708 2.658 . S
Tb681 O709 2.409 . S
Tb681 O710 2.378 . S
C682 Tb680 2.809 . S
C682 C683 1.514 . S
C682 O700 1.248 . S
C682 O701 1.266 . S
C683 C682 1.514 . S
C683 C684 1.359 . S
C683 C688 1.348 . S
C684 C683 1.359 . S
C684 C685 1.380 . S
C684 H712 0.929 . S
C685 C684 1.380 . S
C685 C686 1.347 . S
C685 H713 0.931 . S
C686 C685 1.347 . S
C686 C687 1.369 . S
C687 C686 1.369 . S
C687 C688 1.408 . S
C687 H714 0.930 . S
C688 C683 1.348 . S
C688 C687 1.408 . S
C688 H715 0.930 . S
C689 O702 1.281 . S
C689 O703 1.254 . S
C690 O704 1.236 . S
C690 O705 1.266 . S
C691 Tb681 2.809 . S
C691 C692 1.514 . S
C691 O706 1.248 . S
C691 O707 1.266 . S
C692 C691 1.514 . S
C692 C693 1.359 . S
C692 C697 1.348 . S
C693 C692 1.359 . S
C693 C694 1.380 . S
C693 H716 0.929 . S
C694 C693 1.380 . S
C694 C695 1.347 . S
C694 H717 0.931 . S
C695 C694 1.347 . S
C695 C696 1.369 . S
C696 C695 1.369 . S
C696 C697 1.408 . S
C696 H718 0.930 . S
C697 C692 1.348 . S
C697 C696 1.408 . S
C697 H719 0.930 . S
C698 O708 1.281 . S
C698 O709 1.254 . S
C699 O710 1.236 . S
C699 O711 1.266 . S
O700 Tb680 2.484 . S
O700 C682 1.248 . S
O701 Tb680 2.440 . S
O701 C682 1.266 . S
O702 Tb680 2.658 . S
O702 Tb681 2.325 . S
O702 C689 1.281 . S
O703 Tb680 2.409 . S
O703 C689 1.254 . S
O704 Tb680 2.378 . S
O704 C690 1.236 . S
O705 Tb681 2.341 . S
O705 C690 1.266 . S
O706 Tb681 2.484 . S
O706 C691 1.248 . S
O707 Tb681 2.440 . S
O707 C691 1.266 . S
O708 Tb680 2.325 . S
O708 Tb681 2.658 . S
O708 C698 1.281 . S
O709 Tb681 2.409 . S
O709 C698 1.254 . S
O710 Tb681 2.378 . S
O710 C699 1.236 . S
O711 Tb680 2.341 . S
O711 C699 1.266 . S
H712 C684 0.929 . S
H713 C685 0.931 . S
H714 C687 0.930 . S
H715 C688 0.930 . S
H716 C693 0.929 . S
H717 C694 0.931 . S
H718 C696 0.930 . S
H719 C697 0.930 . S
H720 C728 0.929 . S
H721 C730 0.930 . S
H722 C732 0.930 . S
H723 C735 0.929 . S
H724 C738 0.930 . S
H725 C740 0.960 . S
H726 C740 0.960 . S
H727 C740 0.960 . S
C728 H720 0.929 . S
C728 C729 1.377 . S
C728 C730 1.384 . S
C729 C728 1.377 . S
C729 C735 1.390 . S
C730 H721 0.930 . S
C730 C728 1.384 . S
C730 C731 1.372 . S
C731 C730 1.372 . S
C731 C732 1.400 . S
C731 C736 1.490 . S
C732 H722 0.930 . S
C732 C731 1.400 . S
C732 C735 1.386 . S
H733 C749 0.930 . S
H734 C750 0.931 . S
C735 H723 0.929 . S
C735 C729 1.390 . S
C735 C732 1.386 . S
C736 C731 1.490 . S
C736 C738 1.395 . S
C736 C739 1.403 . S
H737 C743 0.930 . S
C738 H724 0.930 . S
C738 C736 1.395 . S
C738 C741 1.403 . S
C739 C736 1.403 . S
C739 C740 1.524 . S
C739 C743 1.400 . S
C740 H725 0.960 . S
C740 H726 0.960 . S
C740 H727 0.960 . S
C740 C739 1.524 . S
C741 C738 1.403 . S
C741 C742 1.392 . S
C741 C745 1.495 . S
C742 C741 1.392 . S
C742 C743 1.385 . S
C742 C744 1.478 . S
C743 H737 0.930 . S
C743 C739 1.400 . S
C743 C742 1.385 . S
C744 C742 1.478 . S
C744 C746 1.381 . S
C744 C750 1.383 . S
C745 C741 1.495 . S
C745 H751 0.959 . S
C745 H752 0.961 . S
C745 H753 0.960 . S
C746 C744 1.381 . S
C746 C747 1.394 . S
C746 H754 0.930 . S
C747 C746 1.394 . S
C747 C748 1.383 . S
C747 H755 0.929 . S
C748 C747 1.383 . S
C748 C749 1.377 . S
C749 H733 0.930 . S
C749 C748 1.377 . S
C749 C750 1.379 . S
C750 H734 0.931 . S
C750 C744 1.383 . S
C750 C749 1.379 . S
H751 C745 0.959 . S
H752 C745 0.961 . S
H753 C745 0.960 . S
H754 C746 0.930 . S
H755 C747 0.929 . S
H756 C764 0.929 . S
H757 C766 0.930 . S
H758 C768 0.930 . S
H759 C771 0.929 . S
H760 C774 0.930 . S
H761 C776 0.960 . S
H762 C776 0.960 . S
H763 C776 0.960 . S
C764 H756 0.929 . S
C764 C765 1.377 . S
C764 C766 1.384 . S
C765 C764 1.377 . S
C765 C771 1.390 . S
C766 H757 0.930 . S
C766 C764 1.384 . S
C766 C767 1.372 . S
C767 C766 1.372 . S
C767 C768 1.400 . S
C767 C772 1.490 . S
C768 H758 0.930 . S
C768 C767 1.400 . S
C768 C771 1.386 . S
H769 C785 0.930 . S
H770 C786 0.931 . S
C771 H759 0.929 . S
C771 C765 1.390 . S
C771 C768 1.386 . S
C772 C767 1.490 . S
C772 C774 1.395 . S
C772 C775 1.403 . S
H773 C779 0.930 . S
C774 H760 0.930 . S
C774 C772 1.395 . S
C774 C777 1.403 . S
C775 C772 1.403 . S
C775 C776 1.524 . S
C775 C779 1.400 . S
C776 H761 0.960 . S
C776 H762 0.960 . S
C776 H763 0.960 . S
C776 C775 1.524 . S
C777 C774 1.403 . S
C777 C778 1.392 . S
C777 C781 1.495 . S
C778 C777 1.392 . S
C778 C779 1.385 . S
C778 C780 1.478 . S
C779 H773 0.930 . S
C779 C775 1.400 . S
C779 C778 1.385 . S
C780 C778 1.478 . S
C780 C782 1.381 . S
C780 C786 1.383 . S
C781 C777 1.495 . S
C781 H787 0.959 . S
C781 H788 0.961 . S
C781 H789 0.960 . S
C782 C780 1.381 . S
C782 C783 1.394 . S
C782 H790 0.930 . S
C783 C782 1.394 . S
C783 C784 1.383 . S
C783 H791 0.929 . S
C784 C783 1.383 . S
C784 C785 1.377 . S
C785 H769 0.930 . S
C785 C784 1.377 . S
C785 C786 1.379 . S
C786 H770 0.931 . S
C786 C780 1.383 . S
C786 C785 1.379 . S
H787 C781 0.959 . S
H788 C781 0.961 . S
H789 C781 0.960 . S
H790 C782 0.930 . S
H791 C783 0.929 . S
H792 C800 0.929 . S
H793 C802 0.930 . S
H794 C804 0.930 . S
H795 C807 0.929 . S
H796 C810 0.930 . S
H797 C812 0.960 . S
H798 C812 0.960 . S
H799 C812 0.960 . S
C800 H792 0.929 . S
C800 C801 1.377 . S
C800 C802 1.384 . S
C801 C800 1.377 . S
C801 C807 1.390 . S
C802 H793 0.930 . S
C802 C800 1.384 . S
C802 C803 1.372 . S
C803 C802 1.372 . S
C803 C804 1.400 . S
C803 C808 1.490 . S
C804 H794 0.930 . S
C804 C803 1.400 . S
C804 C807 1.386 . S
H805 C821 0.930 . S
H806 C822 0.931 . S
C807 H795 0.929 . S
C807 C801 1.390 . S
C807 C804 1.386 . S
C808 C803 1.490 . S
C808 C810 1.395 . S
C808 C811 1.403 . S
H809 C815 0.930 . S
C810 H796 0.930 . S
C810 C808 1.395 . S
C810 C813 1.403 . S
C811 C808 1.403 . S
C811 C812 1.524 . S
C811 C815 1.400 . S
C812 H797 0.960 . S
C812 H798 0.960 . S
C812 H799 0.960 . S
C812 C811 1.524 . S
C813 C810 1.403 . S
C813 C814 1.392 . S
C813 C817 1.495 . S
C814 C813 1.392 . S
C814 C815 1.385 . S
C814 C816 1.478 . S
C815 H809 0.930 . S
C815 C811 1.400 . S
C815 C814 1.385 . S
C816 C814 1.478 . S
C816 C818 1.381 . S
C816 C822 1.383 . S
C817 C813 1.495 . S
C817 H823 0.959 . S
C817 H824 0.961 . S
C817 H825 0.960 . S
C818 C816 1.381 . S
C818 C819 1.394 . S
C818 H826 0.930 . S
C819 C818 1.394 . S
C819 C820 1.383 . S
C819 H827 0.929 . S
C820 C819 1.383 . S
C820 C821 1.377 . S
C821 H805 0.930 . S
C821 C820 1.377 . S
C821 C822 1.379 . S
C822 H806 0.931 . S
C822 C816 1.383 . S
C822 C821 1.379 . S
H823 C817 0.959 . S
H824 C817 0.961 . S
H825 C817 0.960 . S
H826 C818 0.930 . S
H827 C819 0.929 . S
H828 C836 0.929 . S
H829 C838 0.930 . S
H830 C840 0.930 . S
H831 C843 0.929 . S
H832 C846 0.930 . S
H833 C848 0.960 . S
H834 C848 0.960 . S
H835 C848 0.960 . S
C836 H828 0.929 . S
C836 C837 1.377 . S
C836 C838 1.384 . S
C837 C836 1.377 . S
C837 C843 1.390 . S
C838 H829 0.930 . S
C838 C836 1.384 . S
C838 C839 1.372 . S
C839 C838 1.372 . S
C839 C840 1.400 . S
C839 C844 1.490 . S
C840 H830 0.930 . S
C840 C839 1.400 . S
C840 C843 1.386 . S
H841 C857 0.930 . S
H842 C858 0.931 . S
C843 H831 0.929 . S
C843 C837 1.390 . S
C843 C840 1.386 . S
C844 C839 1.490 . S
C844 C846 1.395 . S
C844 C847 1.403 . S
H845 C851 0.930 . S
C846 H832 0.930 . S
C846 C844 1.395 . S
C846 C849 1.403 . S
C847 C844 1.403 . S
C847 C848 1.524 . S
C847 C851 1.400 . S
C848 H833 0.960 . S
C848 H834 0.960 . S
C848 H835 0.960 . S
C848 C847 1.524 . S
C849 C846 1.403 . S
C849 C850 1.392 . S
C849 C853 1.495 . S
C850 C849 1.392 . S
C850 C851 1.385 . S
C850 C852 1.478 . S
C851 H845 0.930 . S
C851 C847 1.400 . S
C851 C850 1.385 . S
C852 C850 1.478 . S
C852 C854 1.381 . S
C852 C858 1.383 . S
C853 C849 1.495 . S
C853 H859 0.959 . S
C853 H860 0.961 . S
C853 H861 0.960 . S
C854 C852 1.381 . S
C854 C855 1.394 . S
C854 H862 0.930 . S
C855 C854 1.394 . S
C855 C856 1.383 . S
C855 H863 0.929 . S
C856 C855 1.383 . S
C856 C857 1.377 . S
C857 H841 0.930 . S
C857 C856 1.377 . S
C857 C858 1.379 . S
C858 H842 0.931 . S
C858 C852 1.383 . S
C858 C857 1.379 . S
H859 C853 0.959 . S
H860 C853 0.961 . S
H861 C853 0.960 . S
H862 C854 0.930 . S
H863 C855 0.929 . S
H864 C872 0.929 . S
H865 C874 0.930 . S
H866 C876 0.930 . S
H867 C879 0.929 . S
H868 C882 0.930 . S
H869 C884 0.960 . S
H870 C884 0.960 . S
H871 C884 0.960 . S
C872 H864 0.929 . S
C872 C873 1.377 . S
C872 C874 1.384 . S
C873 C872 1.377 . S
C873 C879 1.390 . S
C874 H865 0.930 . S
C874 C872 1.384 . S
C874 C875 1.372 . S
C875 C874 1.372 . S
C875 C876 1.400 . S
C875 C880 1.490 . S
C876 H866 0.930 . S
C876 C875 1.400 . S
C876 C879 1.386 . S
H877 C893 0.930 . S
H878 C894 0.931 . S
C879 H867 0.929 . S
C879 C873 1.390 . S
C879 C876 1.386 . S
C880 C875 1.490 . S
C880 C882 1.395 . S
C880 C883 1.403 . S
H881 C887 0.930 . S
C882 H868 0.930 . S
C882 C880 1.395 . S
C882 C885 1.403 . S
C883 C880 1.403 . S
C883 C884 1.524 . S
C883 C887 1.400 . S
C884 H869 0.960 . S
C884 H870 0.960 . S
C884 H871 0.960 . S
C884 C883 1.524 . S
C885 C882 1.403 . S
C885 C886 1.392 . S
C885 C889 1.495 . S
C886 C885 1.392 . S
C886 C887 1.385 . S
C886 C888 1.478 . S
C887 H881 0.930 . S
C887 C883 1.400 . S
C887 C886 1.385 . S
C888 C886 1.478 . S
C888 C890 1.381 . S
C888 C894 1.383 . S
C889 C885 1.495 . S
C889 H895 0.959 . S
C889 H896 0.961 . S
C889 H897 0.960 . S
C890 C888 1.381 . S
C890 C891 1.394 . S
C890 H898 0.930 . S
C891 C890 1.394 . S
C891 C892 1.383 . S
C891 H899 0.929 . S
C892 C891 1.383 . S
C892 C893 1.377 . S
C893 H877 0.930 . S
C893 C892 1.377 . S
C893 C894 1.379 . S
C894 H878 0.931 . S
C894 C888 1.383 . S
C894 C893 1.379 . S
H895 C889 0.959 . S
H896 C889 0.961 . S
H897 C889 0.960 . S
H898 C890 0.930 . S
H899 C891 0.929 . S
H900 C908 0.929 . S
H901 C910 0.930 . S
H902 C912 0.930 . S
H903 C915 0.929 . S
H904 C918 0.930 . S
H905 C920 0.960 . S
H906 C920 0.960 . S
H907 C920 0.960 . S
C908 H900 0.929 . S
C908 C909 1.377 . S
C908 C910 1.384 . S
C909 C908 1.377 . S
C909 C915 1.390 . S
C910 H901 0.930 . S
C910 C908 1.384 . S
C910 C911 1.372 . S
C911 C910 1.372 . S
C911 C912 1.400 . S
C911 C916 1.490 . S
C912 H902 0.930 . S
C912 C911 1.400 . S
C912 C915 1.386 . S
H913 C929 0.930 . S
H914 C930 0.931 . S
C915 H903 0.929 . S
C915 C909 1.390 . S
C915 C912 1.386 . S
C916 C911 1.490 . S
C916 C918 1.395 . S
C916 C919 1.403 . S
H917 C923 0.930 . S
C918 H904 0.930 . S
C918 C916 1.395 . S
C918 C921 1.403 . S
C919 C916 1.403 . S
C919 C920 1.524 . S
C919 C923 1.400 . S
C920 H905 0.960 . S
C920 H906 0.960 . S
C920 H907 0.960 . S
C920 C919 1.524 . S
C921 C918 1.403 . S
C921 C922 1.392 . S
C921 C925 1.495 . S
C922 C921 1.392 . S
C922 C923 1.385 . S
C922 C924 1.478 . S
C923 H917 0.930 . S
C923 C919 1.400 . S
C923 C922 1.385 . S
C924 C922 1.478 . S
C924 C926 1.381 . S
C924 C930 1.383 . S
C925 C921 1.495 . S
C925 H931 0.959 . S
C925 H932 0.961 . S
C925 H933 0.960 . S
C926 C924 1.381 . S
C926 C927 1.394 . S
C926 H934 0.930 . S
C927 C926 1.394 . S
C927 C928 1.383 . S
C927 H935 0.929 . S
C928 C927 1.383 . S
C928 C929 1.377 . S
C929 H913 0.930 . S
C929 C928 1.377 . S
C929 C930 1.379 . S
C930 H914 0.931 . S
C930 C924 1.383 . S
C930 C929 1.379 . S
H931 C925 0.959 . S
H932 C925 0.961 . S
H933 C925 0.960 . S
H934 C926 0.930 . S
H935 C927 0.929 . S
H936 C944 0.929 . S
H937 C946 0.930 . S
H938 C948 0.930 . S
H939 C951 0.929 . S
H940 C954 0.930 . S
H941 C956 0.960 . S
H942 C956 0.960 . S
H943 C956 0.960 . S
C944 H936 0.929 . S
C944 C945 1.377 . S
C944 C946 1.384 . S
C945 C944 1.377 . S
C945 C951 1.390 . S
C946 H937 0.930 . S
C946 C944 1.384 . S
C946 C947 1.372 . S
C947 C946 1.372 . S
C947 C948 1.400 . S
C947 C952 1.490 . S
C948 H938 0.930 . S
C948 C947 1.400 . S
C948 C951 1.386 . S
H949 C965 0.930 . S
H950 C966 0.931 . S
C951 H939 0.929 . S
C951 C945 1.390 . S
C951 C948 1.386 . S
C952 C947 1.490 . S
C952 C954 1.395 . S
C952 C955 1.403 . S
H953 C959 0.930 . S
C954 H940 0.930 . S
C954 C952 1.395 . S
C954 C957 1.403 . S
C955 C952 1.403 . S
C955 C956 1.524 . S
C955 C959 1.400 . S
C956 H941 0.960 . S
C956 H942 0.960 . S
C956 H943 0.960 . S
C956 C955 1.524 . S
C957 C954 1.403 . S
C957 C958 1.392 . S
C957 C961 1.495 . S
C958 C957 1.392 . S
C958 C959 1.385 . S
C958 C960 1.478 . S
C959 H953 0.930 . S
C959 C955 1.400 . S
C959 C958 1.385 . S
C960 C958 1.478 . S
C960 C962 1.381 . S
C960 C966 1.383 . S
C961 C957 1.495 . S
C961 H967 0.959 . S
C961 H968 0.961 . S
C961 H969 0.960 . S
C962 C960 1.381 . S
C962 C963 1.394 . S
C962 H970 0.930 . S
C963 C962 1.394 . S
C963 C964 1.383 . S
C963 H971 0.929 . S
C964 C963 1.383 . S
C964 C965 1.377 . S
C965 H949 0.930 . S
C965 C964 1.377 . S
C965 C966 1.379 . S
C966 H950 0.931 . S
C966 C960 1.383 . S
C966 C965 1.379 . S
H967 C961 0.959 . S
H968 C961 0.961 . S
H969 C961 0.960 . S
H970 C962 0.930 . S
H971 C963 0.929 . S
H972 C980 0.929 . S
H973 C982 0.930 . S
H974 C984 0.930 . S
H975 C987 0.929 . S
H976 C990 0.930 . S
H977 C992 0.960 . S
H978 C992 0.960 . S
H979 C992 0.960 . S
C980 H972 0.929 . S
C980 C981 1.377 . S
C980 C982 1.384 . S
C981 C980 1.377 . S
C981 C987 1.390 . S
C982 H973 0.930 . S
C982 C980 1.384 . S
C982 C983 1.372 . S
C983 C982 1.372 . S
C983 C984 1.400 . S
C983 C988 1.490 . S
C984 H974 0.930 . S
C984 C983 1.400 . S
C984 C987 1.386 . S
H985 C1001 0.930 . S
H986 C1002 0.931 . S
C987 H975 0.929 . S
C987 C981 1.390 . S
C987 C984 1.386 . S
C988 C983 1.490 . S
C988 C990 1.395 . S
C988 C991 1.403 . S
H989 C995 0.948 . S
C990 H976 0.930 . S
C990 C988 1.395 . S
C990 C993 1.403 . S
C991 C988 1.403 . S
C991 C992 1.524 . S
C991 C995 1.380 1_545 S
C992 H977 0.960 . S
C992 H978 0.960 . S
C992 H979 0.960 . S
C992 C991 1.524 . S
C993 C990 1.403 . S
C993 C994 1.392 1_545 S
C993 C997 1.497 . S
C994 C993 1.392 1_565 S
C994 C995 1.389 . S
C994 C996 1.478 . S
C995 H989 0.948 . S
C995 C991 1.380 1_565 S
C995 C994 1.389 . S
C996 C994 1.478 . S
C996 C998 1.381 . S
C996 C1002 1.383 . S
C997 C993 1.497 . S
C997 H1003 0.974 . S
C997 H1004 0.969 1_545 S
C997 H1005 0.935 1_545 S
C998 C996 1.381 . S
C998 C999 1.394 . S
C998 H1006 0.930 . S
C999 C998 1.394 . S
C999 C1000 1.383 . S
C999 H1007 0.929 . S
C1000 C999 1.383 . S
C1000 C1001 1.377 . S
C1001 H985 0.930 . S
C1001 C1000 1.377 . S
C1001 C1002 1.379 . S
C1002 H986 0.931 . S
C1002 C996 1.383 . S
C1002 C1001 1.379 . S
H1003 C997 0.974 . S
H1004 C997 0.969 1_565 S
H1005 C997 0.935 1_565 S
H1006 C998 0.930 . S
H1007 C999 0.929 . S
H1008 C1016 0.929 . S
H1009 C1018 0.930 . S
H1010 C1020 0.930 . S
H1011 C1023 0.929 . S
H1012 C1026 0.930 . S
H1013 C1028 0.960 1_655 S
H1014 C1028 0.960 . S
H1015 C1028 0.960 . S
C1016 H1008 0.929 . S
C1016 C1017 1.377 . S
C1016 C1018 1.384 . S
C1017 C1016 1.377 . S
C1017 C1023 1.390 . S
C1018 H1009 0.930 . S
C1018 C1016 1.384 . S
C1018 C1019 1.372 . S
C1019 C1018 1.372 . S
C1019 C1020 1.400 . S
C1019 C1024 1.490 . S
C1020 H1010 0.930 . S
C1020 C1019 1.400 . S
C1020 C1023 1.386 . S
H1021 C1037 0.930 . S
H1022 C1038 0.931 . S
C1023 H1011 0.929 . S
C1023 C1017 1.390 . S
C1023 C1020 1.386 . S
C1024 C1019 1.490 . S
C1024 C1026 1.395 . S
C1024 C1027 1.403 . S
H1025 C1031 0.930 . S
C1026 H1012 0.930 . S
C1026 C1024 1.395 . S
C1026 C1029 1.403 . S
C1027 C1024 1.403 . S
C1027 C1028 1.524 . S
C1027 C1031 1.400 1_455 S
C1028 H1013 0.960 1_455 S
C1028 H1014 0.960 . S
C1028 H1015 0.960 . S
C1028 C1027 1.524 . S
C1029 C1026 1.403 . S
C1029 C1030 1.392 1_455 S
C1029 C1033 1.495 1_455 S
C1030 C1029 1.392 1_655 S
C1030 C1031 1.385 . S
C1030 C1032 1.478 . S
C1031 H1025 0.930 . S
C1031 C1027 1.400 1_655 S
C1031 C1030 1.385 . S
C1032 C1030 1.478 . S
C1032 C1034 1.381 . S
C1032 C1038 1.383 . S
C1033 C1029 1.495 1_655 S
C1033 H1039 0.959 1_655 S
C1033 H1040 0.961 . S
C1033 H1041 0.960 . S
C1034 C1032 1.381 . S
C1034 C1035 1.394 . S
C1034 H1042 0.930 . S
C1035 C1034 1.394 . S
C1035 C1036 1.383 . S
C1035 H1043 0.929 . S
C1036 C1035 1.383 . S
C1036 C1037 1.377 . S
C1037 H1021 0.930 . S
C1037 C1036 1.377 . S
C1037 C1038 1.379 . S
C1038 H1022 0.931 . S
C1038 C1032 1.383 . S
C1038 C1037 1.379 . S
H1039 C1033 0.959 1_455 S
H1040 C1033 0.961 . S
H1041 C1033 0.960 . S
H1042 C1034 0.930 . S
H1043 C1035 0.929 . S
H1044 C1052 0.929 . S
H1045 C1054 0.930 . S
H1046 C1056 0.930 . S
H1047 C1059 0.929 . S
H1048 C1062 0.930 . S
H1049 C1064 0.960 . S
H1050 C1064 0.960 . S
H1051 C1064 0.960 . S
C1052 H1044 0.929 . S
C1052 C1053 1.377 . S
C1052 C1054 1.384 . S
C1053 C1052 1.377 . S
C1053 C1059 1.390 . S
C1054 H1045 0.930 . S
C1054 C1052 1.384 . S
C1054 C1055 1.372 . S
C1055 C1054 1.372 . S
C1055 C1056 1.400 . S
C1055 C1060 1.490 . S
C1056 H1046 0.930 . S
C1056 C1055 1.400 . S
C1056 C1059 1.386 . S
H1057 C1073 0.930 . S
H1058 C1074 0.931 . S
C1059 H1047 0.929 . S
C1059 C1053 1.390 . S
C1059 C1056 1.386 . S
C1060 C1055 1.490 . S
C1060 C1062 1.395 . S
C1060 C1063 1.403 . S
H1061 C1067 0.930 . S
C1062 H1048 0.930 . S
C1062 C1060 1.395 . S
C1062 C1065 1.403 . S
C1063 C1060 1.403 . S
C1063 C1064 1.524 . S
C1063 C1067 1.400 . S
C1064 H1049 0.960 . S
C1064 H1050 0.960 . S
C1064 H1051 0.960 . S
C1064 C1063 1.524 . S
C1065 C1062 1.403 . S
C1065 C1066 1.392 . S
C1065 C1069 1.495 . S
C1066 C1065 1.392 . S
C1066 C1067 1.385 . S
C1066 C1068 1.478 . S
C1067 H1061 0.930 . S
C1067 C1063 1.400 . S
C1067 C1066 1.385 . S
C1068 C1066 1.478 . S
C1068 C1070 1.381 . S
C1068 C1074 1.383 . S
C1069 C1065 1.495 . S
C1069 H1075 0.959 . S
C1069 H1076 0.961 . S
C1069 H1077 0.960 . S
C1070 C1068 1.381 . S
C1070 C1071 1.394 . S
C1070 H1078 0.930 . S
C1071 C1070 1.394 . S
C1071 C1072 1.383 . S
C1071 H1079 0.929 . S
C1072 C1071 1.383 . S
C1072 C1073 1.377 . S
C1073 H1057 0.930 . S
C1073 C1072 1.377 . S
C1073 C1074 1.379 . S
C1074 H1058 0.931 . S
C1074 C1068 1.383 . S
C1074 C1073 1.379 . S
H1075 C1069 0.959 . S
H1076 C1069 0.961 . S
H1077 C1069 0.960 . S
H1078 C1070 0.930 . S
H1079 C1071 0.929 . S
H1080 C1088 0.929 . S
H1081 C1090 0.930 . S
H1082 C1092 0.930 . S
H1083 C1095 0.929 . S
H1084 C1098 0.930 . S
H1085 C1100 0.960 . S
H1086 C1100 0.960 . S
H1087 C1100 0.960 . S
C1088 H1080 0.929 . S
C1088 C1089 1.377 . S
C1088 C1090 1.384 . S
C1089 C1088 1.377 . S
C1089 C1095 1.390 . S
C1090 H1081 0.930 . S
C1090 C1088 1.384 . S
C1090 C1091 1.372 . S
C1091 C1090 1.372 . S
C1091 C1092 1.400 . S
C1091 C1096 1.490 . S
C1092 H1082 0.930 . S
C1092 C1091 1.400 . S
C1092 C1095 1.386 . S
H1093 C1109 0.930 . S
H1094 C1110 0.931 . S
C1095 H1083 0.929 . S
C1095 C1089 1.390 . S
C1095 C1092 1.386 . S
C1096 C1091 1.490 . S
C1096 C1098 1.395 . S
C1096 C1099 1.403 . S
H1097 C1103 0.930 . S
C1098 H1084 0.930 . S
C1098 C1096 1.395 . S
C1098 C1101 1.403 . S
C1099 C1096 1.403 . S
C1099 C1100 1.524 . S
C1099 C1103 1.400 . S
C1100 H1085 0.960 . S
C1100 H1086 0.960 . S
C1100 H1087 0.960 . S
C1100 C1099 1.524 . S
C1101 C1098 1.403 . S
C1101 C1102 1.392 . S
C1101 C1105 1.495 . S
C1102 C1101 1.392 . S
C1102 C1103 1.385 . S
C1102 C1104 1.478 . S
C1103 H1097 0.930 . S
C1103 C1099 1.400 . S
C1103 C1102 1.385 . S
C1104 C1102 1.478 . S
C1104 C1106 1.381 . S
C1104 C1110 1.383 . S
C1105 C1101 1.495 . S
C1105 H1111 0.959 . S
C1105 H1112 0.961 . S
C1105 H1113 0.960 . S
C1106 C1104 1.381 . S
C1106 C1107 1.394 . S
C1106 H1114 0.930 . S
C1107 C1106 1.394 . S
C1107 C1108 1.383 . S
C1107 H1115 0.929 . S
C1108 C1107 1.383 . S
C1108 C1109 1.377 . S
C1109 H1093 0.930 . S
C1109 C1108 1.377 . S
C1109 C1110 1.379 . S
C1110 H1094 0.931 . S
C1110 C1104 1.383 . S
C1110 C1109 1.379 . S
H1111 C1105 0.959 . S
H1112 C1105 0.961 . S
H1113 C1105 0.960 . S
H1114 C1106 0.930 . S
H1115 C1107 0.929 . S
H1116 C1124 0.929 . S
H1117 C1126 0.930 . S
H1118 C1128 0.930 . S
H1119 C1131 0.929 . S
H1120 C1134 0.930 . S
H1121 C1136 0.960 . S
H1122 C1136 0.960 . S
H1123 C1136 0.960 . S
C1124 H1116 0.929 . S
C1124 C1125 1.377 . S
C1124 C1126 1.384 . S
C1125 C1124 1.377 . S
C1125 C1131 1.390 . S
C1126 H1117 0.930 . S
C1126 C1124 1.384 . S
C1126 C1127 1.372 . S
C1127 C1126 1.372 . S
C1127 C1128 1.400 . S
C1127 C1132 1.490 . S
C1128 H1118 0.930 . S
C1128 C1127 1.400 . S
C1128 C1131 1.386 . S
H1129 C1145 0.930 . S
H1130 C1146 0.931 . S
C1131 H1119 0.929 . S
C1131 C1125 1.390 . S
C1131 C1128 1.386 . S
C1132 C1127 1.490 . S
C1132 C1134 1.395 . S
C1132 C1135 1.403 . S
H1133 C1139 0.930 . S
C1134 H1120 0.930 . S
C1134 C1132 1.395 . S
C1134 C1137 1.403 . S
C1135 C1132 1.403 . S
C1135 C1136 1.524 . S
C1135 C1139 1.400 . S
C1136 H1121 0.960 . S
C1136 H1122 0.960 . S
C1136 H1123 0.960 . S
C1136 C1135 1.524 . S
C1137 C1134 1.403 . S
C1137 C1138 1.392 . S
C1137 C1141 1.495 . S
C1138 C1137 1.392 . S
C1138 C1139 1.385 . S
C1138 C1140 1.478 . S
C1139 H1133 0.930 . S
C1139 C1135 1.400 . S
C1139 C1138 1.385 . S
C1140 C1138 1.478 . S
C1140 C1142 1.381 . S
C1140 C1146 1.383 . S
C1141 C1137 1.495 . S
C1141 H1147 0.959 . S
C1141 H1148 0.961 . S
C1141 H1149 0.960 . S
C1142 C1140 1.381 . S
C1142 C1143 1.394 . S
C1142 H1150 0.930 . S
C1143 C1142 1.394 . S
C1143 C1144 1.383 . S
C1143 H1151 0.929 . S
C1144 C1143 1.383 . S
C1144 C1145 1.377 . S
C1145 H1129 0.930 . S
C1145 C1144 1.377 . S
C1145 C1146 1.379 . S
C1146 H1130 0.931 . S
C1146 C1140 1.383 . S
C1146 C1145 1.379 . S
H1147 C1141 0.959 . S
H1148 C1141 0.961 . S
H1149 C1141 0.960 . S
H1150 C1142 0.930 . S
H1151 C1143 0.929 . S
H1152 C1160 0.929 . S
H1153 C1162 0.930 . S
H1154 C1164 0.930 . S
H1155 C1167 0.929 . S
H1156 C1170 0.930 . S
H1157 C1172 0.960 . S
H1158 C1172 0.960 . S
H1159 C1172 0.960 . S
C1160 H1152 0.929 . S
C1160 C1161 1.377 . S
C1160 C1162 1.384 . S
C1161 C1160 1.377 . S
C1161 C1167 1.390 . S
C1162 H1153 0.930 . S
C1162 C1160 1.384 . S
C1162 C1163 1.372 . S
C1163 C1162 1.372 . S
C1163 C1164 1.400 . S
C1163 C1168 1.490 . S
C1164 H1154 0.930 . S
C1164 C1163 1.400 . S
C1164 C1167 1.386 . S
H1165 C1181 0.930 . S
H1166 C1182 0.931 . S
C1167 H1155 0.929 . S
C1167 C1161 1.390 . S
C1167 C1164 1.386 . S
C1168 C1163 1.490 . S
C1168 C1170 1.395 . S
C1168 C1171 1.403 . S
H1169 C1175 0.930 . S
C1170 H1156 0.930 . S
C1170 C1168 1.395 . S
C1170 C1173 1.403 . S
C1171 C1168 1.403 . S
C1171 C1172 1.524 . S
C1171 C1175 1.400 . S
C1172 H1157 0.960 . S
C1172 H1158 0.960 . S
C1172 H1159 0.960 . S
C1172 C1171 1.524 . S
C1173 C1170 1.403 . S
C1173 C1174 1.392 . S
C1173 C1177 1.495 . S
C1174 C1173 1.392 . S
C1174 C1175 1.385 . S
C1174 C1176 1.478 . S
C1175 H1169 0.930 . S
C1175 C1171 1.400 . S
C1175 C1174 1.385 . S
C1176 C1174 1.478 . S
C1176 C1178 1.381 . S
C1176 C1182 1.383 . S
C1177 C1173 1.495 . S
C1177 H1183 0.959 . S
C1177 H1184 0.961 . S
C1177 H1185 0.960 . S
C1178 C1176 1.381 . S
C1178 C1179 1.394 . S
C1178 H1186 0.930 . S
C1179 C1178 1.394 . S
C1179 C1180 1.383 . S
C1179 H1187 0.929 . S
C1180 C1179 1.383 . S
C1180 C1181 1.377 . S
C1181 H1165 0.930 . S
C1181 C1180 1.377 . S
C1181 C1182 1.379 . S
C1182 H1166 0.931 . S
C1182 C1176 1.383 . S
C1182 C1181 1.379 . S
H1183 C1177 0.959 . S
H1184 C1177 0.961 . S
H1185 C1177 0.960 . S
H1186 C1178 0.930 . S
H1187 C1179 0.929 . S
H1188 C1196 0.929 . S
H1189 C1198 0.930 . S
H1190 C1200 0.930 . S
H1191 C1203 0.929 . S
H1192 C1206 0.930 . S
H1193 C1208 0.960 . S
H1194 C1208 0.960 . S
H1195 C1208 0.960 . S
C1196 H1188 0.929 . S
C1196 C1197 1.377 . S
C1196 C1198 1.384 . S
C1197 C1196 1.377 . S
C1197 C1203 1.390 . S
C1198 H1189 0.930 . S
C1198 C1196 1.384 . S
C1198 C1199 1.372 . S
C1199 C1198 1.372 . S
C1199 C1200 1.400 . S
C1199 C1204 1.490 . S
C1200 H1190 0.930 . S
C1200 C1199 1.400 . S
C1200 C1203 1.386 . S
H1201 C1217 0.930 . S
H1202 C1218 0.931 . S
C1203 H1191 0.929 . S
C1203 C1197 1.390 . S
C1203 C1200 1.386 . S
C1204 C1199 1.490 . S
C1204 C1206 1.395 . S
C1204 C1207 1.403 . S
H1205 C1211 0.930 . S
C1206 H1192 0.930 . S
C1206 C1204 1.395 . S
C1206 C1209 1.403 . S
C1207 C1204 1.403 . S
C1207 C1208 1.524 . S
C1207 C1211 1.400 . S
C1208 H1193 0.960 . S
C1208 H1194 0.960 . S
C1208 H1195 0.960 . S
C1208 C1207 1.524 . S
C1209 C1206 1.403 . S
C1209 C1210 1.392 . S
C1209 C1213 1.495 . S
C1210 C1209 1.392 . S
C1210 C1211 1.385 . S
C1210 C1212 1.478 . S
C1211 H1205 0.930 . S
C1211 C1207 1.400 . S
C1211 C1210 1.385 . S
C1212 C1210 1.478 . S
C1212 C1214 1.381 . S
C1212 C1218 1.383 . S
C1213 C1209 1.495 . S
C1213 H1219 0.959 . S
C1213 H1220 0.961 . S
C1213 H1221 0.960 . S
C1214 C1212 1.381 . S
C1214 C1215 1.394 . S
C1214 H1222 0.930 . S
C1215 C1214 1.394 . S
C1215 C1216 1.383 . S
C1215 H1223 0.929 . S
C1216 C1215 1.383 . S
C1216 C1217 1.377 . S
C1217 H1201 0.930 . S
C1217 C1216 1.377 . S
C1217 C1218 1.379 . S
C1218 H1202 0.931 . S
C1218 C1212 1.383 . S
C1218 C1217 1.379 . S
H1219 C1213 0.959 . S
H1220 C1213 0.961 . S
H1221 C1213 0.960 . S
H1222 C1214 0.930 . S
H1223 C1215 0.929 . S
H1224 C1232 0.929 . S
H1225 C1234 0.930 . S
H1226 C1236 0.930 . S
H1227 C1239 0.929 . S
H1228 C1242 0.930 . S
H1229 C1244 0.960 . S
H1230 C1244 0.960 . S
H1231 C1244 0.960 . S
C1232 H1224 0.929 . S
C1232 C1233 1.377 . S
C1232 C1234 1.384 . S
C1233 C1232 1.377 . S
C1233 C1239 1.390 . S
C1234 H1225 0.930 . S
C1234 C1232 1.384 . S
C1234 C1235 1.372 . S
C1235 C1234 1.372 . S
C1235 C1236 1.400 . S
C1235 C1240 1.490 . S
C1236 H1226 0.930 . S
C1236 C1235 1.400 . S
C1236 C1239 1.386 . S
H1237 C1253 0.930 . S
H1238 C1254 0.931 . S
C1239 H1227 0.929 . S
C1239 C1233 1.390 . S
C1239 C1236 1.386 . S
C1240 C1235 1.490 . S
C1240 C1242 1.395 . S
C1240 C1243 1.403 . S
H1241 C1247 0.930 . S
C1242 H1228 0.930 . S
C1242 C1240 1.395 . S
C1242 C1245 1.403 . S
C1243 C1240 1.403 . S
C1243 C1244 1.524 . S
C1243 C1247 1.400 . S
C1244 H1229 0.960 . S
C1244 H1230 0.960 . S
C1244 H1231 0.960 . S
C1244 C1243 1.524 . S
C1245 C1242 1.403 . S
C1245 C1246 1.392 . S
C1245 C1249 1.495 . S
C1246 C1245 1.392 . S
C1246 C1247 1.385 . S
C1246 C1248 1.478 . S
C1247 H1241 0.930 . S
C1247 C1243 1.400 . S
C1247 C1246 1.385 . S
C1248 C1246 1.478 . S
C1248 C1250 1.381 . S
C1248 C1254 1.383 . S
C1249 C1245 1.495 . S
C1249 H1255 0.959 . S
C1249 H1256 0.961 . S
C1249 H1257 0.960 . S
C1250 C1248 1.381 . S
C1250 C1251 1.394 . S
C1250 H1258 0.930 . S
C1251 C1250 1.394 . S
C1251 C1252 1.383 . S
C1251 H1259 0.929 . S
C1252 C1251 1.383 . S
C1252 C1253 1.377 . S
C1253 H1237 0.930 . S
C1253 C1252 1.377 . S
C1253 C1254 1.379 . S
C1254 H1238 0.931 . S
C1254 C1248 1.383 . S
C1254 C1253 1.379 . S
H1255 C1249 0.959 . S
H1256 C1249 0.961 . S
H1257 C1249 0.960 . S
H1258 C1250 0.930 . S
H1259 C1251 0.929 . S
H1260 C1268 0.929 . S
H1261 C1270 0.930 . S
H1262 C1272 0.930 . S
H1263 C1275 0.929 . S
H1264 C1278 0.930 . S
H1265 C1280 0.960 . S
H1266 C1280 0.960 . S
H1267 C1280 0.960 . S
C1268 H1260 0.929 . S
C1268 C1269 1.377 . S
C1268 C1270 1.384 . S
C1269 C1268 1.377 . S
C1269 C1275 1.390 . S
C1270 H1261 0.930 . S
C1270 C1268 1.384 . S
C1270 C1271 1.372 . S
C1271 C1270 1.372 . S
C1271 C1272 1.400 . S
C1271 C1276 1.490 . S
C1272 H1262 0.930 . S
C1272 C1271 1.400 . S
C1272 C1275 1.386 . S
H1273 C1289 0.930 . S
H1274 C1290 0.931 . S
C1275 H1263 0.929 . S
C1275 C1269 1.390 . S
C1275 C1272 1.386 . S
C1276 C1271 1.490 . S
C1276 C1278 1.395 . S
C1276 C1279 1.403 . S
H1277 C1283 0.930 . S
C1278 H1264 0.930 . S
C1278 C1276 1.395 . S
C1278 C1281 1.403 . S
C1279 C1276 1.403 . S
C1279 C1280 1.524 . S
C1279 C1283 1.400 . S
C1280 H1265 0.960 . S
C1280 H1266 0.960 . S
C1280 H1267 0.960 . S
C1280 C1279 1.524 . S
C1281 C1278 1.403 . S
C1281 C1282 1.392 . S
C1281 C1285 1.495 . S
C1282 C1281 1.392 . S
C1282 C1283 1.385 . S
C1282 C1284 1.478 . S
C1283 H1277 0.930 . S
C1283 C1279 1.400 . S
C1283 C1282 1.385 . S
C1284 C1282 1.478 . S
C1284 C1286 1.381 . S
C1284 C1290 1.383 . S
C1285 C1281 1.495 . S
C1285 H1291 0.959 . S
C1285 H1292 0.961 . S
C1285 H1293 0.960 . S
C1286 C1284 1.381 . S
C1286 C1287 1.394 . S
C1286 H1294 0.930 . S
C1287 C1286 1.394 . S
C1287 C1288 1.383 . S
C1287 H1295 0.929 . S
C1288 C1287 1.383 . S
C1288 C1289 1.377 . S
C1289 H1273 0.930 . S
C1289 C1288 1.377 . S
C1289 C1290 1.379 . S
C1290 H1274 0.931 . S
C1290 C1284 1.383 . S
C1290 C1289 1.379 . S
H1291 C1285 0.959 . S
H1292 C1285 0.961 . S
H1293 C1285 0.960 . S
H1294 C1286 0.930 . S
H1295 C1287 0.929 . S
H1296 C1304 0.929 . S
H1297 C1306 0.930 . S
H1298 C1308 0.930 . S
H1299 C1311 0.929 . S
H1300 C1314 0.930 1_565 S
H1301 C1316 0.960 . S
H1302 C1316 0.960 . S
H1303 C1316 0.960 . S
C1304 H1296 0.929 . S
C1304 C1305 1.377 . S
C1304 C1306 1.384 . S
C1305 C1304 1.377 . S
C1305 C1311 1.390 . S
C1306 H1297 0.930 . S
C1306 C1304 1.384 . S
C1306 C1307 1.372 . S
C1307 C1306 1.372 . S
C1307 C1308 1.400 . S
C1307 C1312 1.490 . S
C1308 H1298 0.930 . S
C1308 C1307 1.400 . S
C1308 C1311 1.386 . S
H1309 C1325 0.930 . S
H1310 C1326 0.931 . S
C1311 H1299 0.929 . S
C1311 C1305 1.390 . S
C1311 C1308 1.386 . S
C1312 C1307 1.490 . S
C1312 C1314 1.395 1_565 S
C1312 C1315 1.403 . S
H1313 C1319 0.930 . S
C1314 H1300 0.930 1_545 S
C1314 C1312 1.395 1_545 S
C1314 C1317 1.403 . S
C1315 C1312 1.403 . S
C1315 C1316 1.524 . S
C1315 C1319 1.400 1_565 S
C1316 H1301 0.960 . S
C1316 H1302 0.960 . S
C1316 H1303 0.960 . S
C1316 C1315 1.524 . S
C1317 C1314 1.403 . S
C1317 C1318 1.392 . S
C1317 C1321 1.495 . S
C1318 C1317 1.392 . S
C1318 C1319 1.385 . S
C1318 C1320 1.478 . S
C1319 H1313 0.930 . S
C1319 C1315 1.400 1_545 S
C1319 C1318 1.385 . S
C1320 C1318 1.478 . S
C1320 C1322 1.381 . S
C1320 C1326 1.383 . S
C1321 C1317 1.495 . S
C1321 H1327 0.959 . S
C1321 H1328 0.961 . S
C1321 H1329 0.960 . S
C1322 C1320 1.381 . S
C1322 C1323 1.394 . S
C1322 H1330 0.930 . S
C1323 C1322 1.394 . S
C1323 C1324 1.383 . S
C1323 H1331 0.929 . S
C1324 C1323 1.383 . S
C1324 C1325 1.377 . S
C1325 H1309 0.930 . S
C1325 C1324 1.377 . S
C1325 C1326 1.379 . S
C1326 H1310 0.931 . S
C1326 C1320 1.383 . S
C1326 C1325 1.379 . S
H1327 C1321 0.959 . S
H1328 C1321 0.961 . S
H1329 C1321 0.960 . S
H1330 C1322 0.930 . S
H1331 C1323 0.929 . S
H1332 C1340 0.929 . S
H1333 C1342 0.930 . S
H1334 C1344 0.930 . S
H1335 C1347 0.929 . S
H1336 C1350 0.930 . S
H1337 C1352 0.960 . S
H1338 C1352 0.960 . S
H1339 C1352 0.960 . S
C1340 H1332 0.929 . S
C1340 C1341 1.377 . S
C1340 C1342 1.384 . S
C1341 C1340 1.377 . S
C1341 C1347 1.390 . S
C1342 H1333 0.930 . S
C1342 C1340 1.384 . S
C1342 C1343 1.372 . S
C1343 C1342 1.372 . S
C1343 C1344 1.400 . S
C1343 C1348 1.490 . S
C1344 H1334 0.930 . S
C1344 C1343 1.400 . S
C1344 C1347 1.386 . S
H1345 C1361 0.930 . S
H1346 C1362 0.931 . S
C1347 H1335 0.929 . S
C1347 C1341 1.390 . S
C1347 C1344 1.386 . S
C1348 C1343 1.490 . S
C1348 C1350 1.395 . S
C1348 C1351 1.403 . S
H1349 C1355 0.930 . S
C1350 H1336 0.930 . S
C1350 C1348 1.395 . S
C1350 C1353 1.403 . S
C1351 C1348 1.403 . S
C1351 C1352 1.524 . S
C1351 C1355 1.400 1_455 S
C1352 H1337 0.960 . S
C1352 H1338 0.960 . S
C1352 H1339 0.960 . S
C1352 C1351 1.524 . S
C1353 C1350 1.403 . S
C1353 C1354 1.392 1_455 S
C1353 C1357 1.495 . S
C1354 C1353 1.392 1_655 S
C1354 C1355 1.385 . S
C1354 C1356 1.478 . S
C1355 H1349 0.930 . S
C1355 C1351 1.400 1_655 S
C1355 C1354 1.385 . S
C1356 C1354 1.478 . S
C1356 C1358 1.381 . S
C1356 C1362 1.383 . S
C1357 C1353 1.495 . S
C1357 H1363 0.959 . S
C1357 H1364 0.961 . S
C1357 H1365 0.960 1_455 S
C1358 C1356 1.381 . S
C1358 C1359 1.394 . S
C1358 H1366 0.930 . S
C1359 C1358 1.394 . S
C1359 C1360 1.383 . S
C1359 H1367 0.929 . S
C1360 C1359 1.383 . S
C1360 C1361 1.377 . S
C1361 H1345 0.930 . S
C1361 C1360 1.377 . S
C1361 C1362 1.379 . S
C1362 H1346 0.931 . S
C1362 C1356 1.383 . S
C1362 C1361 1.379 . S
H1363 C1357 0.959 . S
H1364 C1357 0.961 . S
H1365 C1357 0.960 1_655 S
H1366 C1358 0.930 . S
H1367 C1359 0.929 . S
H1368 C1376 0.929 . S
H1369 C1378 0.930 . S
H1370 C1380 0.930 1_565 S
H1371 C1383 0.929 1_565 S
H1372 C1386 0.930 . S
H1373 C1388 0.960 . S
H1374 C1388 0.960 . S
H1375 C1388 0.960 . S
C1376 H1368 0.929 . S
C1376 C1377 1.377 . S
C1376 C1378 1.384 . S
C1377 C1376 1.377 . S
C1377 C1383 1.390 . S
C1378 H1369 0.930 . S
C1378 C1376 1.384 . S
C1378 C1379 1.372 . S
C1379 C1378 1.372 . S
C1379 C1380 1.400 . S
C1379 C1384 1.490 . S
C1380 H1370 0.930 1_545 S
C1380 C1379 1.400 . S
C1380 C1383 1.386 . S
H1381 C1397 0.930 . S
H1382 C1398 0.931 . S
C1383 H1371 0.929 1_545 S
C1383 C1377 1.390 . S
C1383 C1380 1.386 . S
C1384 C1379 1.490 . S
C1384 C1386 1.395 . S
C1384 C1387 1.403 1_545 S
H1385 C1391 0.930 . S
C1386 H1372 0.930 . S
C1386 C1384 1.395 . S
C1386 C1389 1.403 1_554 S
C1387 C1384 1.403 1_565 S
C1387 C1388 1.524 . S
C1387 C1391 1.400 1_554 S
C1388 H1373 0.960 . S
C1388 H1374 0.960 . S
C1388 H1375 0.960 . S
C1388 C1387 1.524 . S
C1389 C1386 1.403 1_556 S
C1389 C1390 1.392 . S
C1389 C1393 1.495 . S
C1390 C1389 1.392 . S
C1390 C1391 1.385 1_545 S
C1390 C1392 1.478 . S
C1391 H1385 0.930 . S
C1391 C1387 1.400 1_556 S
C1391 C1390 1.385 1_565 S
C1392 C1390 1.478 . S
C1392 C1394 1.381 . S
C1392 C1398 1.383 . S
C1393 C1389 1.495 . S
C1393 H1399 0.959 . S
C1393 H1400 0.961 . S
C1393 H1401 0.960 . S
C1394 C1392 1.381 . S
C1394 C1395 1.394 . S
C1394 H1402 0.930 . S
C1395 C1394 1.394 . S
C1395 C1396 1.383 . S
C1395 H1403 0.929 . S
C1396 C1395 1.383 . S
C1396 C1397 1.377 . S
C1397 H1381 0.930 . S
C1397 C1396 1.377 . S
C1397 C1398 1.379 . S
C1398 H1382 0.931 . S
C1398 C1392 1.383 . S
C1398 C1397 1.379 . S
H1399 C1393 0.959 . S
H1400 C1393 0.961 . S
H1401 C1393 0.960 . S
H1402 C1394 0.930 . S
H1403 C1395 0.929 . S
H1404 C1412 0.929 . S
H1405 C1414 0.930 . S
H1406 C1416 0.930 . S
H1407 C1419 0.929 . S
H1408 C1422 0.930 . S
H1409 C1424 0.960 . S
H1410 C1424 0.960 . S
H1411 C1424 0.960 . S
C1412 H1404 0.929 . S
C1412 C1413 1.377 . S
C1412 C1414 1.384 . S
C1413 C1412 1.377 . S
C1413 C1419 1.390 1_455 S
C1414 H1405 0.930 . S
C1414 C1412 1.384 . S
C1414 C1415 1.372 . S
C1415 C1414 1.372 . S
C1415 C1416 1.400 1_455 S
C1415 C1420 1.490 . S
C1416 H1406 0.930 . S
C1416 C1415 1.400 1_655 S
C1416 C1419 1.386 . S
H1417 C1433 0.930 . S
H1418 C1434 0.931 . S
C1419 H1407 0.929 . S
C1419 C1413 1.390 1_655 S
C1419 C1416 1.386 . S
C1420 C1415 1.490 . S
C1420 C1422 1.395 . S
C1420 C1423 1.403 1_455 S
H1421 C1427 0.930 . S
C1422 H1408 0.930 . S
C1422 C1420 1.395 . S
C1422 C1425 1.403 1_556 S
C1423 C1420 1.403 1_655 S
C1423 C1424 1.524 . S
C1423 C1427 1.400 1_556 S
C1424 H1409 0.960 . S
C1424 H1410 0.960 . S
C1424 H1411 0.960 . S
C1424 C1423 1.524 . S
C1425 C1422 1.403 1_554 S
C1425 C1426 1.392 . S
C1425 C1429 1.495 . S
C1426 C1425 1.392 . S
C1426 C1427 1.385 1_455 S
C1426 C1428 1.478 . S
C1427 H1421 0.930 . S
C1427 C1423 1.400 1_554 S
C1427 C1426 1.385 1_655 S
C1428 C1426 1.478 . S
C1428 C1430 1.381 . S
C1428 C1434 1.383 1_455 S
C1429 C1425 1.495 . S
C1429 H1435 0.959 . S
C1429 H1436 0.961 . S
C1429 H1437 0.960 . S
C1430 C1428 1.381 . S
C1430 C1431 1.394 . S
C1430 H1438 0.930 . S
C1431 C1430 1.394 . S
C1431 C1432 1.383 . S
C1431 H1439 0.929 . S
C1432 C1431 1.383 . S
C1432 C1433 1.377 1_455 S
C1433 H1417 0.930 . S
C1433 C1432 1.377 1_655 S
C1433 C1434 1.379 . S
C1434 H1418 0.931 . S
C1434 C1428 1.383 1_655 S
C1434 C1433 1.379 . S
H1435 C1429 0.959 . S
H1436 C1429 0.961 . S
H1437 C1429 0.960 . S
H1438 C1430 0.930 . S
H1439 C1431 0.929 . S
H1440 C1448 0.929 . S
H1441 C1450 0.930 . S
H1442 C1452 0.930 . S
H1443 C1455 0.929 . S
H1444 C1458 0.930 . S
H1445 C1460 0.960 . S
H1446 C1460 0.960 . S
H1447 C1460 0.960 . S
C1448 H1440 0.929 . S
C1448 C1449 1.377 . S
C1448 C1450 1.384 . S
C1449 C1448 1.377 . S
C1449 C1455 1.390 . S
C1450 H1441 0.930 . S
C1450 C1448 1.384 . S
C1450 C1451 1.372 . S
C1451 C1450 1.372 . S
C1451 C1452 1.400 . S
C1451 C1456 1.490 . S
C1452 H1442 0.930 . S
C1452 C1451 1.400 . S
C1452 C1455 1.386 . S
H1453 C1469 0.930 . S
H1454 C1470 0.931 . S
C1455 H1443 0.929 . S
C1455 C1449 1.390 . S
C1455 C1452 1.386 . S
C1456 C1451 1.490 . S
C1456 C1458 1.395 . S
C1456 C1459 1.403 . S
H1457 C1463 0.930 . S
C1458 H1444 0.930 . S
C1458 C1456 1.395 . S
C1458 C1461 1.403 1_556 S
C1459 C1456 1.403 . S
C1459 C1460 1.524 . S
C1459 C1463 1.400 1_556 S
C1460 H1445 0.960 . S
C1460 H1446 0.960 . S
C1460 H1447 0.960 . S
C1460 C1459 1.524 . S
C1461 C1458 1.403 1_554 S
C1461 C1462 1.392 . S
C1461 C1465 1.495 . S
C1462 C1461 1.392 . S
C1462 C1463 1.385 . S
C1462 C1464 1.478 . S
C1463 H1457 0.930 . S
C1463 C1459 1.400 1_554 S
C1463 C1462 1.385 . S
C1464 C1462 1.478 . S
C1464 C1466 1.381 . S
C1464 C1470 1.383 . S
C1465 C1461 1.495 . S
C1465 H1471 0.959 . S
C1465 H1472 0.961 . S
C1465 H1473 0.960 . S
C1466 C1464 1.381 . S
C1466 C1467 1.394 . S
C1466 H1474 0.930 . S
C1467 C1466 1.394 . S
C1467 C1468 1.383 . S
C1467 H1475 0.929 . S
C1468 C1467 1.383 . S
C1468 C1469 1.377 . S
C1469 H1453 0.930 . S
C1469 C1468 1.377 . S
C1469 C1470 1.379 . S
C1470 H1454 0.931 . S
C1470 C1464 1.383 . S
C1470 C1469 1.379 . S
H1471 C1465 0.959 . S
H1472 C1465 0.961 . S
H1473 C1465 0.960 . S
H1474 C1466 0.930 . S
H1475 C1467 0.929 . S
H1476 C1484 0.929 . S
H1477 C1486 0.930 . S
H1478 C1488 0.930 . S
H1479 C1491 0.929 . S
H1480 C1494 0.930 . S
H1481 C1496 0.960 . S
H1482 C1496 0.960 . S
H1483 C1496 0.960 . S
C1484 H1476 0.929 . S
C1484 C1485 1.377 . S
C1484 C1486 1.384 . S
C1485 C1484 1.377 . S
C1485 C1491 1.390 . S
C1486 H1477 0.930 . S
C1486 C1484 1.384 . S
C1486 C1487 1.372 . S
C1487 C1486 1.372 . S
C1487 C1488 1.400 . S
C1487 C1492 1.490 . S
C1488 H1478 0.930 . S
C1488 C1487 1.400 . S
C1488 C1491 1.386 . S
H1489 C1505 0.930 . S
H1490 C1506 0.931 . S
C1491 H1479 0.929 . S
C1491 C1485 1.390 . S
C1491 C1488 1.386 . S
C1492 C1487 1.490 . S
C1492 C1494 1.395 . S
C1492 C1495 1.403 . S
H1493 C1499 0.930 . S
C1494 H1480 0.930 . S
C1494 C1492 1.395 . S
C1494 C1497 1.403 . S
C1495 C1492 1.403 . S
C1495 C1496 1.524 . S
C1495 C1499 1.400 . S
C1496 H1481 0.960 . S
C1496 H1482 0.960 . S
C1496 H1483 0.960 . S
C1496 C1495 1.524 . S
C1497 C1494 1.403 . S
C1497 C1498 1.392 . S
C1497 C1501 1.495 . S
C1498 C1497 1.392 . S
C1498 C1499 1.385 . S
C1498 C1500 1.478 . S
C1499 H1493 0.930 . S
C1499 C1495 1.400 . S
C1499 C1498 1.385 . S
C1500 C1498 1.478 . S
C1500 C1502 1.381 . S
C1500 C1506 1.383 . S
C1501 C1497 1.495 . S
C1501 H1507 0.959 . S
C1501 H1508 0.961 . S
C1501 H1509 0.960 . S
C1502 C1500 1.381 . S
C1502 C1503 1.394 . S
C1502 H1510 0.930 . S
C1503 C1502 1.394 . S
C1503 C1504 1.383 . S
C1503 H1511 0.929 . S
C1504 C1503 1.383 . S
C1504 C1505 1.377 . S
C1505 H1489 0.930 . S
C1505 C1504 1.377 . S
C1505 C1506 1.379 . S
C1506 H1490 0.931 . S
C1506 C1500 1.383 . S
C1506 C1505 1.379 . S
H1507 C1501 0.959 . S
H1508 C1501 0.961 . S
H1509 C1501 0.960 . S
H1510 C1502 0.930 . S
H1511 C1503 0.929 . S
H1512 C1520 0.929 . S
H1513 C1522 0.930 . S
H1514 C1524 0.930 . S
H1515 C1527 0.929 . S
H1516 C1530 0.930 . S
H1517 C1532 0.960 . S
H1518 C1532 0.960 . S
H1519 C1532 0.960 . S
C1520 H1512 0.929 . S
C1520 C1521 1.377 . S
C1520 C1522 1.384 . S
C1521 C1520 1.377 . S
C1521 C1527 1.390 . S
C1522 H1513 0.930 . S
C1522 C1520 1.384 . S
C1522 C1523 1.372 . S
C1523 C1522 1.372 . S
C1523 C1524 1.400 . S
C1523 C1528 1.490 . S
C1524 H1514 0.930 . S
C1524 C1523 1.400 . S
C1524 C1527 1.386 . S
H1525 C1541 0.930 . S
H1526 C1542 0.931 . S
C1527 H1515 0.929 . S
C1527 C1521 1.390 . S
C1527 C1524 1.386 . S
C1528 C1523 1.490 . S
C1528 C1530 1.395 . S
C1528 C1531 1.403 . S
H1529 C1535 0.930 . S
C1530 H1516 0.930 . S
C1530 C1528 1.395 . S
C1530 C1533 1.403 . S
C1531 C1528 1.403 . S
C1531 C1532 1.524 . S
C1531 C1535 1.400 . S
C1532 H1517 0.960 . S
C1532 H1518 0.960 . S
C1532 H1519 0.960 . S
C1532 C1531 1.524 . S
C1533 C1530 1.403 . S
C1533 C1534 1.392 . S
C1533 C1537 1.495 . S
C1534 C1533 1.392 . S
C1534 C1535 1.385 . S
C1534 C1536 1.478 . S
C1535 H1529 0.930 . S
C1535 C1531 1.400 . S
C1535 C1534 1.385 . S
C1536 C1534 1.478 . S
C1536 C1538 1.381 . S
C1536 C1542 1.383 . S
C1537 C1533 1.495 . S
C1537 H1543 0.959 . S
C1537 H1544 0.961 . S
C1537 H1545 0.960 . S
C1538 C1536 1.381 . S
C1538 C1539 1.394 . S
C1538 H1546 0.930 . S
C1539 C1538 1.394 . S
C1539 C1540 1.383 . S
C1539 H1547 0.929 . S
C1540 C1539 1.383 . S
C1540 C1541 1.377 . S
C1541 H1525 0.930 . S
C1541 C1540 1.377 . S
C1541 C1542 1.379 . S
C1542 H1526 0.931 . S
C1542 C1536 1.383 . S
C1542 C1541 1.379 . S
H1543 C1537 0.959 . S
H1544 C1537 0.961 . S
H1545 C1537 0.960 . S
H1546 C1538 0.930 . S
H1547 C1539 0.929 . S
H1548 C1556 0.929 . S
H1549 C1558 0.930 . S
H1550 C1560 0.930 . S
H1551 C1563 0.929 . S
H1552 C1566 0.930 . S
H1553 C1568 0.960 . S
H1554 C1568 0.960 . S
H1555 C1568 0.960 . S
C1556 H1548 0.929 . S
C1556 C1557 1.377 . S
C1556 C1558 1.384 . S
C1557 C1556 1.377 . S
C1557 C1563 1.390 . S
C1558 H1549 0.930 . S
C1558 C1556 1.384 . S
C1558 C1559 1.372 . S
C1559 C1558 1.372 . S
C1559 C1560 1.400 . S
C1559 C1564 1.490 . S
C1560 H1550 0.930 . S
C1560 C1559 1.400 . S
C1560 C1563 1.386 . S
H1561 C1577 0.930 . S
H1562 C1578 0.931 . S
C1563 H1551 0.929 . S
C1563 C1557 1.390 . S
C1563 C1560 1.386 . S
C1564 C1559 1.490 . S
C1564 C1566 1.395 . S
C1564 C1567 1.403 . S
H1565 C1571 0.930 . S
C1566 H1552 0.930 . S
C1566 C1564 1.395 . S
C1566 C1569 1.403 . S
C1567 C1564 1.403 . S
C1567 C1568 1.524 . S
C1567 C1571 1.400 . S
C1568 H1553 0.960 . S
C1568 H1554 0.960 . S
C1568 H1555 0.960 . S
C1568 C1567 1.524 . S
C1569 C1566 1.403 . S
C1569 C1570 1.392 . S
C1569 C1573 1.495 . S
C1570 C1569 1.392 . S
C1570 C1571 1.385 . S
C1570 C1572 1.478 . S
C1571 H1565 0.930 . S
C1571 C1567 1.400 . S
C1571 C1570 1.385 . S
C1572 C1570 1.478 . S
C1572 C1574 1.381 . S
C1572 C1578 1.383 . S
C1573 C1569 1.495 . S
C1573 H1579 0.959 . S
C1573 H1580 0.961 . S
C1573 H1581 0.960 . S
C1574 C1572 1.381 . S
C1574 C1575 1.394 . S
C1574 H1582 0.930 . S
C1575 C1574 1.394 . S
C1575 C1576 1.383 . S
C1575 H1583 0.929 . S
C1576 C1575 1.383 . S
C1576 C1577 1.377 . S
C1577 H1561 0.930 . S
C1577 C1576 1.377 . S
C1577 C1578 1.379 . S
C1578 H1562 0.931 . S
C1578 C1572 1.383 . S
C1578 C1577 1.379 . S
H1579 C1573 0.959 . S
H1580 C1573 0.961 . S
H1581 C1573 0.960 . S
H1582 C1574 0.930 . S
H1583 C1575 0.929 . S
H1584 C1592 0.929 . S
H1585 C1594 0.930 . S
H1586 C1596 0.930 . S
H1587 C1599 0.929 . S
H1588 C1602 0.930 . S
H1589 C1604 0.960 . S
H1590 C1604 0.960 . S
H1591 C1604 0.960 . S
C1592 H1584 0.929 . S
C1592 C1593 1.377 . S
C1592 C1594 1.384 . S
C1593 C1592 1.377 . S
C1593 C1599 1.390 . S
C1594 H1585 0.930 . S
C1594 C1592 1.384 . S
C1594 C1595 1.372 . S
C1595 C1594 1.372 . S
C1595 C1596 1.400 . S
C1595 C1600 1.490 . S
C1596 H1586 0.930 . S
C1596 C1595 1.400 . S
C1596 C1599 1.386 . S
H1597 C1613 0.930 . S
H1598 C1614 0.931 . S
C1599 H1587 0.929 . S
C1599 C1593 1.390 . S
C1599 C1596 1.386 . S
C1600 C1595 1.490 . S
C1600 C1602 1.395 . S
C1600 C1603 1.403 . S
H1601 C1607 0.930 . S
C1602 H1588 0.930 . S
C1602 C1600 1.395 . S
C1602 C1605 1.403 . S
C1603 C1600 1.403 . S
C1603 C1604 1.524 . S
C1603 C1607 1.400 . S
C1604 H1589 0.960 . S
C1604 H1590 0.960 . S
C1604 H1591 0.960 . S
C1604 C1603 1.524 . S
C1605 C1602 1.403 . S
C1605 C1606 1.392 . S
C1605 C1609 1.495 . S
C1606 C1605 1.392 . S
C1606 C1607 1.385 . S
C1606 C1608 1.478 . S
C1607 H1601 0.930 . S
C1607 C1603 1.400 . S
C1607 C1606 1.385 . S
C1608 C1606 1.478 . S
C1608 C1610 1.381 . S
C1608 C1614 1.383 . S
C1609 C1605 1.495 . S
C1609 H1615 0.959 . S
C1609 H1616 0.961 . S
C1609 H1617 0.960 . S
C1610 C1608 1.381 . S
C1610 C1611 1.394 . S
C1610 H1618 0.930 . S
C1611 C1610 1.394 . S
C1611 C1612 1.383 . S
C1611 H1619 0.929 . S
C1612 C1611 1.383 . S
C1612 C1613 1.377 . S
C1613 H1597 0.930 . S
C1613 C1612 1.377 . S
C1613 C1614 1.379 . S
C1614 H1598 0.931 . S
C1614 C1608 1.383 . S
C1614 C1613 1.379 . S
H1615 C1609 0.959 . S
H1616 C1609 0.961 . S
H1617 C1609 0.960 . S
H1618 C1610 0.930 . S
H1619 C1611 0.929 . S
H1620 C1628 0.929 . S
H1621 C1630 0.930 . S
H1622 C1632 0.930 . S
H1623 C1635 0.929 . S
H1624 C1638 0.930 . S
H1625 C1640 0.960 . S
H1626 C1640 0.960 . S
H1627 C1640 0.960 . S
C1628 H1620 0.929 . S
C1628 C1629 1.377 . S
C1628 C1630 1.384 . S
C1629 C1628 1.377 . S
C1629 C1635 1.390 . S
C1630 H1621 0.930 . S
C1630 C1628 1.384 . S
C1630 C1631 1.372 . S
C1631 C1630 1.372 . S
C1631 C1632 1.400 . S
C1631 C1636 1.490 . S
C1632 H1622 0.930 . S
C1632 C1631 1.400 . S
C1632 C1635 1.386 . S
H1633 C1649 0.930 . S
H1634 C1650 0.931 . S
C1635 H1623 0.929 . S
C1635 C1629 1.390 . S
C1635 C1632 1.386 . S
C1636 C1631 1.490 . S
C1636 C1638 1.395 . S
C1636 C1639 1.403 . S
H1637 C1643 0.930 . S
C1638 H1624 0.930 . S
C1638 C1636 1.395 . S
C1638 C1641 1.403 . S
C1639 C1636 1.403 . S
C1639 C1640 1.524 . S
C1639 C1643 1.400 . S
C1640 H1625 0.960 . S
C1640 H1626 0.960 . S
C1640 H1627 0.960 . S
C1640 C1639 1.524 . S
C1641 C1638 1.403 . S
C1641 C1642 1.392 . S
C1641 C1645 1.495 . S
C1642 C1641 1.392 . S
C1642 C1643 1.385 . S
C1642 C1644 1.478 . S
C1643 H1637 0.930 . S
C1643 C1639 1.400 . S
C1643 C1642 1.385 . S
C1644 C1642 1.478 . S
C1644 C1646 1.381 . S
C1644 C1650 1.383 . S
C1645 C1641 1.495 . S
C1645 H1651 0.959 . S
C1645 H1652 0.961 . S
C1645 H1653 0.960 . S
C1646 C1644 1.381 . S
C1646 C1647 1.394 . S
C1646 H1654 0.930 . S
C1647 C1646 1.394 . S
C1647 C1648 1.383 . S
C1647 H1655 0.929 . S
C1648 C1647 1.383 . S
C1648 C1649 1.377 . S
C1649 H1633 0.930 . S
C1649 C1648 1.377 . S
C1649 C1650 1.379 . S
C1650 H1634 0.931 . S
C1650 C1644 1.383 . S
C1650 C1649 1.379 . S
H1651 C1645 0.959 . S
H1652 C1645 0.961 . S
H1653 C1645 0.960 . S
H1654 C1646 0.930 . S
H1655 C1647 0.929 . S
H1656 C1664 0.929 . S
H1657 C1666 0.930 . S
H1658 C1668 0.930 . S
H1659 C1671 0.929 . S
H1660 C1674 0.930 . S
H1661 C1676 0.960 . S
H1662 C1676 0.960 . S
H1663 C1676 0.960 . S
C1664 H1656 0.929 . S
C1664 C1665 1.377 . S
C1664 C1666 1.384 . S
C1665 C1664 1.377 . S
C1665 C1671 1.390 . S
C1666 H1657 0.930 . S
C1666 C1664 1.384 . S
C1666 C1667 1.372 . S
C1667 C1666 1.372 . S
C1667 C1668 1.400 . S
C1667 C1672 1.490 . S
C1668 H1658 0.930 . S
C1668 C1667 1.400 . S
C1668 C1671 1.386 . S
H1669 C1685 0.930 . S
H1670 C1686 0.931 . S
C1671 H1659 0.929 . S
C1671 C1665 1.390 . S
C1671 C1668 1.386 . S
C1672 C1667 1.490 . S
C1672 C1674 1.395 . S
C1672 C1675 1.403 . S
H1673 C1679 0.930 . S
C1674 H1660 0.930 . S
C1674 C1672 1.395 . S
C1674 C1677 1.403 . S
C1675 C1672 1.403 . S
C1675 C1676 1.524 . S
C1675 C1679 1.400 . S
C1676 H1661 0.960 . S
C1676 H1662 0.960 . S
C1676 H1663 0.960 . S
C1676 C1675 1.524 . S
C1677 C1674 1.403 . S
C1677 C1678 1.392 . S
C1677 C1681 1.495 . S
C1678 C1677 1.392 . S
C1678 C1679 1.385 . S
C1678 C1680 1.478 . S
C1679 H1673 0.930 . S
C1679 C1675 1.400 . S
C1679 C1678 1.385 . S
C1680 C1678 1.478 . S
C1680 C1682 1.381 . S
C1680 C1686 1.383 . S
C1681 C1677 1.495 . S
C1681 H1687 0.959 . S
C1681 H1688 0.961 . S
C1681 H1689 0.960 . S
C1682 C1680 1.381 . S
C1682 C1683 1.394 . S
C1682 H1690 0.930 . S
C1683 C1682 1.394 . S
C1683 C1684 1.383 . S
C1683 H1691 0.929 . S
C1684 C1683 1.383 . S
C1684 C1685 1.377 . S
C1685 H1669 0.930 . S
C1685 C1684 1.377 . S
C1685 C1686 1.379 . S
C1686 H1670 0.931 . S
C1686 C1680 1.383 . S
C1686 C1685 1.379 . S
H1687 C1681 0.959 . S
H1688 C1681 0.961 . S
H1689 C1681 0.960 . S
H1690 C1682 0.930 . S
H1691 C1683 0.929 . S
H1692 C1700 0.929 . S
H1693 C1702 0.930 . S
H1694 C1704 0.930 . S
H1695 C1707 0.929 . S
H1696 C1710 0.930 . S
H1697 C1712 0.960 . S
H1698 C1712 0.960 . S
H1699 C1712 0.960 . S
C1700 H1692 0.929 . S
C1700 C1701 1.377 . S
C1700 C1702 1.384 . S
C1701 C1700 1.377 . S
C1701 C1707 1.390 . S
C1702 H1693 0.930 . S
C1702 C1700 1.384 . S
C1702 C1703 1.372 . S
C1703 C1702 1.372 . S
C1703 C1704 1.400 . S
C1703 C1708 1.490 . S
C1704 H1694 0.930 . S
C1704 C1703 1.400 . S
C1704 C1707 1.386 . S
H1705 C1721 0.930 1_545 S
H1706 C1722 0.931 . S
C1707 H1695 0.929 . S
C1707 C1701 1.390 . S
C1707 C1704 1.386 . S
C1708 C1703 1.490 . S
C1708 C1710 1.395 . S
C1708 C1711 1.403 . S
H1709 C1715 0.930 . S
C1710 H1696 0.930 . S
C1710 C1708 1.395 . S
C1710 C1713 1.403 . S
C1711 C1708 1.403 . S
C1711 C1712 1.524 . S
C1711 C1715 1.400 . S
C1712 H1697 0.960 . S
C1712 H1698 0.960 . S
C1712 H1699 0.960 . S
C1712 C1711 1.524 . S
C1713 C1710 1.403 . S
C1713 C1714 1.392 . S
C1713 C1717 1.495 . S
C1714 C1713 1.392 . S
C1714 C1715 1.385 . S
C1714 C1716 1.478 . S
C1715 H1709 0.930 . S
C1715 C1711 1.400 . S
C1715 C1714 1.385 . S
C1716 C1714 1.478 . S
C1716 C1718 1.381 . S
C1716 C1722 1.383 . S
C1717 C1713 1.495 . S
C1717 H1723 0.959 . S
C1717 H1724 0.961 . S
C1717 H1725 0.960 . S
C1718 C1716 1.381 . S
C1718 C1719 1.394 . S
C1718 H1726 0.930 . S
C1719 C1718 1.394 . S
C1719 C1720 1.383 . S
C1719 H1727 0.929 . S
C1720 C1719 1.383 . S
C1720 C1721 1.377 . S
C1721 H1705 0.930 1_565 S
C1721 C1720 1.377 . S
C1721 C1722 1.379 . S
C1722 H1706 0.931 . S
C1722 C1716 1.383 . S
C1722 C1721 1.379 . S
H1723 C1717 0.959 . S
H1724 C1717 0.961 . S
H1725 C1717 0.960 . S
H1726 C1718 0.930 . S
H1727 C1719 0.929 . S
H1728 C1736 0.929 . S
H1729 C1738 0.930 . S
H1730 C1740 0.930 . S
H1731 C1743 0.929 . S
H1732 C1746 0.930 . S
H1733 C1748 0.960 . S
H1734 C1748 0.960 . S
H1735 C1748 0.960 . S
C1736 H1728 0.929 . S
C1736 C1737 1.377 . S
C1736 C1738 1.384 . S
C1737 C1736 1.377 . S
C1737 C1743 1.390 . S
C1738 H1729 0.930 . S
C1738 C1736 1.384 . S
C1738 C1739 1.372 . S
C1739 C1738 1.372 . S
C1739 C1740 1.400 . S
C1739 C1744 1.490 . S
C1740 H1730 0.930 . S
C1740 C1739 1.400 . S
C1740 C1743 1.386 . S
H1741 C1757 0.930 . S
H1742 C1758 0.931 . S
C1743 H1731 0.929 . S
C1743 C1737 1.390 . S
C1743 C1740 1.386 . S
C1744 C1739 1.490 . S
C1744 C1746 1.395 . S
C1744 C1747 1.403 . S
H1745 C1751 0.930 . S
C1746 H1732 0.930 . S
C1746 C1744 1.395 . S
C1746 C1749 1.403 . S
C1747 C1744 1.403 . S
C1747 C1748 1.524 . S
C1747 C1751 1.400 . S
C1748 H1733 0.960 . S
C1748 H1734 0.960 . S
C1748 H1735 0.960 . S
C1748 C1747 1.524 . S
C1749 C1746 1.403 . S
C1749 C1750 1.392 . S
C1749 C1753 1.495 . S
C1750 C1749 1.392 . S
C1750 C1751 1.385 . S
C1750 C1752 1.478 . S
C1751 H1745 0.930 . S
C1751 C1747 1.400 . S
C1751 C1750 1.385 . S
C1752 C1750 1.478 . S
C1752 C1754 1.381 . S
C1752 C1758 1.383 . S
C1753 C1749 1.495 . S
C1753 H1759 0.959 . S
C1753 H1760 0.961 . S
C1753 H1761 0.960 . S
C1754 C1752 1.381 . S
C1754 C1755 1.394 . S
C1754 H1762 0.930 . S
C1755 C1754 1.394 . S
C1755 C1756 1.383 . S
C1755 H1763 0.929 . S
C1756 C1755 1.383 . S
C1756 C1757 1.377 . S
C1757 H1741 0.930 . S
C1757 C1756 1.377 . S
C1757 C1758 1.379 . S
C1758 H1742 0.931 . S
C1758 C1752 1.383 . S
C1758 C1757 1.379 . S
H1759 C1753 0.959 . S
H1760 C1753 0.961 . S
H1761 C1753 0.960 . S
H1762 C1754 0.930 . S
H1763 C1755 0.929 . S
H1764 C1772 0.929 . S
H1765 C1774 0.930 . S
H1766 C1776 0.930 . S
H1767 C1779 0.929 . S
H1768 C1782 0.930 . S
H1769 C1784 0.960 . S
H1770 C1784 0.960 . S
H1771 C1784 0.960 . S
C1772 H1764 0.929 . S
C1772 C1773 1.377 . S
C1772 C1774 1.384 . S
C1773 C1772 1.377 . S
C1773 C1779 1.390 . S
C1774 H1765 0.930 . S
C1774 C1772 1.384 . S
C1774 C1775 1.372 . S
C1775 C1774 1.372 . S
C1775 C1776 1.400 . S
C1775 C1780 1.490 . S
C1776 H1766 0.930 . S
C1776 C1775 1.400 . S
C1776 C1779 1.386 . S
H1777 C1793 0.930 . S
H1778 C1794 0.931 . S
C1779 H1767 0.929 . S
C1779 C1773 1.390 . S
C1779 C1776 1.386 . S
C1780 C1775 1.490 . S
C1780 C1782 1.395 . S
C1780 C1783 1.403 . S
H1781 C1787 0.930 . S
C1782 H1768 0.930 . S
C1782 C1780 1.395 . S
C1782 C1785 1.403 . S
C1783 C1780 1.403 . S
C1783 C1784 1.524 . S
C1783 C1787 1.400 . S
C1784 H1769 0.960 . S
C1784 H1770 0.960 . S
C1784 H1771 0.960 . S
C1784 C1783 1.524 . S
C1785 C1782 1.403 . S
C1785 C1786 1.392 . S
C1785 C1789 1.495 . S
C1786 C1785 1.392 . S
C1786 C1787 1.385 . S
C1786 C1788 1.478 . S
C1787 H1781 0.930 . S
C1787 C1783 1.400 . S
C1787 C1786 1.385 . S
C1788 C1786 1.478 . S
C1788 C1790 1.381 . S
C1788 C1794 1.383 . S
C1789 C1785 1.495 . S
C1789 H1795 0.959 . S
C1789 H1796 0.961 . S
C1789 H1797 0.960 . S
C1790 C1788 1.381 . S
C1790 C1791 1.394 . S
C1790 H1798 0.930 . S
C1791 C1790 1.394 . S
C1791 C1792 1.383 . S
C1791 H1799 0.929 . S
C1792 C1791 1.383 . S
C1792 C1793 1.377 . S
C1793 H1777 0.930 . S
C1793 C1792 1.377 . S
C1793 C1794 1.379 . S
C1794 H1778 0.931 . S
C1794 C1788 1.383 . S
C1794 C1793 1.379 . S
H1795 C1789 0.959 . S
H1796 C1789 0.961 . S
H1797 C1789 0.960 . S
H1798 C1790 0.930 . S
H1799 C1791 0.929 . S
H1800 C1808 0.929 . S
H1801 C1810 0.930 1_455 S
H1802 C1812 0.930 . S
H1803 C1815 0.929 . S
H1804 C1818 0.930 . S
H1805 C1820 0.960 . S
H1806 C1820 0.960 . S
H1807 C1820 0.960 . S
C1808 H1800 0.929 . S
C1808 C1809 1.377 1_455 S
C1808 C1810 1.384 1_455 S
C1809 C1808 1.377 1_655 S
C1809 C1815 1.390 . S
C1810 H1801 0.930 1_655 S
C1810 C1808 1.384 1_655 S
C1810 C1811 1.372 . S
C1811 C1810 1.372 . S
C1811 C1812 1.400 . S
C1811 C1816 1.490 . S
C1812 H1802 0.930 . S
C1812 C1811 1.400 . S
C1812 C1815 1.386 . S
H1813 C1829 0.930 . S
H1814 C1830 0.931 . S
C1815 H1803 0.929 . S
C1815 C1809 1.390 . S
C1815 C1812 1.386 . S
C1816 C1811 1.490 . S
C1816 C1818 1.395 . S
C1816 C1819 1.403 . S
H1817 C1823 0.930 . S
C1818 H1804 0.930 . S
C1818 C1816 1.395 . S
C1818 C1821 1.403 . S
C1819 C1816 1.403 . S
C1819 C1820 1.524 . S
C1819 C1823 1.400 . S
C1820 H1805 0.960 . S
C1820 H1806 0.960 . S
C1820 H1807 0.960 . S
C1820 C1819 1.524 . S
C1821 C1818 1.403 . S
C1821 C1822 1.392 . S
C1821 C1825 1.495 . S
C1822 C1821 1.392 . S
C1822 C1823 1.385 . S
C1822 C1824 1.478 . S
C1823 H1817 0.930 . S
C1823 C1819 1.400 . S
C1823 C1822 1.385 . S
C1824 C1822 1.478 . S
C1824 C1826 1.381 . S
C1824 C1830 1.383 . S
C1825 C1821 1.495 . S
C1825 H1831 0.959 . S
C1825 H1832 0.961 . S
C1825 H1833 0.960 . S
C1826 C1824 1.381 . S
C1826 C1827 1.394 . S
C1826 H1834 0.930 . S
C1827 C1826 1.394 . S
C1827 C1828 1.383 . S
C1827 H1835 0.929 . S
C1828 C1827 1.383 . S
C1828 C1829 1.377 . S
C1829 H1813 0.930 . S
C1829 C1828 1.377 . S
C1829 C1830 1.379 . S
C1830 H1814 0.931 . S
C1830 C1824 1.383 . S
C1830 C1829 1.379 . S
H1831 C1825 0.959 . S
H1832 C1825 0.961 . S
H1833 C1825 0.960 . S
H1834 C1826 0.930 . S
H1835 C1827 0.929 . S
H1836 C1844 0.929 . S
H1837 C1846 0.930 . S
H1838 C1848 0.930 . S
H1839 C1851 0.929 . S
H1840 C1854 0.930 . S
H1841 C1856 0.960 . S
H1842 C1856 0.960 . S
H1843 C1856 0.960 . S
C1844 H1836 0.929 . S
C1844 C1845 1.377 . S
C1844 C1846 1.384 . S
C1845 C1844 1.377 . S
C1845 C1851 1.390 . S
C1846 H1837 0.930 . S
C1846 C1844 1.384 . S
C1846 C1847 1.372 . S
C1847 C1846 1.372 . S
C1847 C1848 1.400 . S
C1847 C1852 1.490 . S
C1848 H1838 0.930 . S
C1848 C1847 1.400 . S
C1848 C1851 1.386 . S
H1849 C1865 0.930 . S
H1850 C1866 0.931 . S
C1851 H1839 0.929 . S
C1851 C1845 1.390 . S
C1851 C1848 1.386 . S
C1852 C1847 1.490 . S
C1852 C1854 1.395 . S
C1852 C1855 1.403 . S
H1853 C1859 0.930 . S
C1854 H1840 0.930 . S
C1854 C1852 1.395 . S
C1854 C1857 1.403 . S
C1855 C1852 1.403 . S
C1855 C1856 1.524 . S
C1855 C1859 1.400 . S
C1856 H1841 0.960 . S
C1856 H1842 0.960 . S
C1856 H1843 0.960 . S
C1856 C1855 1.524 . S
C1857 C1854 1.403 . S
C1857 C1858 1.392 . S
C1857 C1861 1.495 . S
C1858 C1857 1.392 . S
C1858 C1859 1.385 . S
C1858 C1860 1.478 . S
C1859 H1853 0.930 . S
C1859 C1855 1.400 . S
C1859 C1858 1.385 . S
C1860 C1858 1.478 . S
C1860 C1862 1.381 . S
C1860 C1866 1.383 . S
C1861 C1857 1.495 . S
C1861 H1867 0.959 . S
C1861 H1868 0.961 . S
C1861 H1869 0.960 . S
C1862 C1860 1.381 . S
C1862 C1863 1.394 . S
C1862 H1870 0.930 . S
C1863 C1862 1.394 . S
C1863 C1864 1.383 . S
C1863 H1871 0.929 . S
C1864 C1863 1.383 . S
C1864 C1865 1.377 . S
C1865 H1849 0.930 . S
C1865 C1864 1.377 . S
C1865 C1866 1.379 . S
C1866 H1850 0.931 . S
C1866 C1860 1.383 . S
C1866 C1865 1.379 . S
H1867 C1861 0.959 . S
H1868 C1861 0.961 . S
H1869 C1861 0.960 . S
H1870 C1862 0.930 . S
H1871 C1863 0.929 . S
H1872 C1880 0.929 . S
H1873 C1882 0.930 . S
H1874 C1884 0.930 . S
H1875 C1887 0.929 . S
H1876 C1890 0.930 . S
H1877 C1892 0.960 . S
H1878 C1892 0.960 . S
H1879 C1892 0.960 . S
C1880 H1872 0.929 . S
C1880 C1881 1.377 . S
C1880 C1882 1.384 . S
C1881 C1880 1.377 . S
C1881 C1887 1.390 . S
C1882 H1873 0.930 . S
C1882 C1880 1.384 . S
C1882 C1883 1.372 . S
C1883 C1882 1.372 . S
C1883 C1884 1.400 . S
C1883 C1888 1.490 . S
C1884 H1874 0.930 . S
C1884 C1883 1.400 . S
C1884 C1887 1.386 . S
H1885 C1901 0.930 . S
H1886 C1902 0.931 . S
C1887 H1875 0.929 . S
C1887 C1881 1.390 . S
C1887 C1884 1.386 . S
C1888 C1883 1.490 . S
C1888 C1890 1.395 . S
C1888 C1891 1.403 . S
H1889 C1895 0.930 . S
C1890 H1876 0.930 . S
C1890 C1888 1.395 . S
C1890 C1893 1.403 . S
C1891 C1888 1.403 . S
C1891 C1892 1.524 . S
C1891 C1895 1.400 . S
C1892 H1877 0.960 . S
C1892 H1878 0.960 . S
C1892 H1879 0.960 . S
C1892 C1891 1.524 . S
C1893 C1890 1.403 . S
C1893 C1894 1.392 . S
C1893 C1897 1.495 . S
C1894 C1893 1.392 . S
C1894 C1895 1.385 . S
C1894 C1896 1.478 . S
C1895 H1889 0.930 . S
C1895 C1891 1.400 . S
C1895 C1894 1.385 . S
C1896 C1894 1.478 . S
C1896 C1898 1.381 . S
C1896 C1902 1.383 . S
C1897 C1893 1.495 . S
C1897 H1903 0.959 . S
C1897 H1904 0.961 . S
C1897 H1905 0.960 . S
C1898 C1896 1.381 . S
C1898 C1899 1.394 . S
C1898 H1906 0.930 . S
C1899 C1898 1.394 . S
C1899 C1900 1.383 . S
C1899 H1907 0.929 . S
C1900 C1899 1.383 . S
C1900 C1901 1.377 . S
C1901 H1885 0.930 . S
C1901 C1900 1.377 . S
C1901 C1902 1.379 . S
C1902 H1886 0.931 . S
C1902 C1896 1.383 . S
C1902 C1901 1.379 . S
H1903 C1897 0.959 . S
H1904 C1897 0.961 . S
H1905 C1897 0.960 . S
H1906 C1898 0.930 . S
H1907 C1899 0.929 . S
H1908 C1916 0.929 . S
H1909 C1918 0.930 . S
H1910 C1920 0.930 . S
H1911 C1923 0.929 . S
H1912 C1926 0.930 . S
H1913 C1928 0.960 . S
H1914 C1928 0.960 . S
H1915 C1928 0.960 . S
C1916 H1908 0.929 . S
C1916 C1917 1.377 . S
C1916 C1918 1.384 . S
C1917 C1916 1.377 . S
C1917 C1923 1.390 . S
C1918 H1909 0.930 . S
C1918 C1916 1.384 . S
C1918 C1919 1.372 . S
C1919 C1918 1.372 . S
C1919 C1920 1.400 . S
C1919 C1924 1.490 . S
C1920 H1910 0.930 . S
C1920 C1919 1.400 . S
C1920 C1923 1.386 . S
H1921 C1937 0.930 . S
H1922 C1938 0.931 . S
C1923 H1911 0.929 . S
C1923 C1917 1.390 . S
C1923 C1920 1.386 . S
C1924 C1919 1.490 . S
C1924 C1926 1.395 1_655 S
C1924 C1927 1.403 . S
H1925 C1931 0.930 . S
C1926 H1912 0.930 . S
C1926 C1924 1.395 1_455 S
C1926 C1929 1.403 . S
C1927 C1924 1.403 . S
C1927 C1928 1.524 . S
C1927 C1931 1.400 1_655 S
C1928 H1913 0.960 . S
C1928 H1914 0.960 . S
C1928 H1915 0.960 . S
C1928 C1927 1.524 . S
C1929 C1926 1.403 . S
C1929 C1930 1.392 . S
C1929 C1933 1.495 . S
C1930 C1929 1.392 . S
C1930 C1931 1.385 . S
C1930 C1932 1.478 . S
C1931 H1925 0.930 . S
C1931 C1927 1.400 1_455 S
C1931 C1930 1.385 . S
C1932 C1930 1.478 . S
C1932 C1934 1.381 . S
C1932 C1938 1.383 . S
C1933 C1929 1.495 . S
C1933 H1939 0.959 . S
C1933 H1940 0.961 . S
C1933 H1941 0.960 . S
C1934 C1932 1.381 . S
C1934 C1935 1.394 . S
C1934 H1942 0.930 . S
C1935 C1934 1.394 . S
C1935 C1936 1.383 . S
C1935 H1943 0.929 . S
C1936 C1935 1.383 . S
C1936 C1937 1.377 . S
C1937 H1921 0.930 . S
C1937 C1936 1.377 . S
C1937 C1938 1.379 . S
C1938 H1922 0.931 . S
C1938 C1932 1.383 . S
C1938 C1937 1.379 . S
H1939 C1933 0.959 . S
H1940 C1933 0.961 . S
H1941 C1933 0.960 . S
H1942 C1934 0.930 . S
H1943 C1935 0.929 . S
H1944 C1952 0.929 . S
H1945 C1954 0.930 . S
H1946 C1956 0.930 . S
H1947 C1959 0.929 . S
H1948 C1962 0.930 . S
H1949 C1964 0.960 . S
H1950 C1964 0.960 . S
H1951 C1964 0.960 . S
C1952 H1944 0.929 . S
C1952 C1953 1.377 . S
C1952 C1954 1.384 . S
C1953 C1952 1.377 . S
C1953 C1959 1.390 . S
C1954 H1945 0.930 . S
C1954 C1952 1.384 . S
C1954 C1955 1.372 . S
C1955 C1954 1.372 . S
C1955 C1956 1.400 . S
C1955 C1960 1.490 . S
C1956 H1946 0.930 . S
C1956 C1955 1.400 . S
C1956 C1959 1.386 . S
H1957 C1973 0.930 . S
H1958 C1974 0.931 . S
C1959 H1947 0.929 . S
C1959 C1953 1.390 . S
C1959 C1956 1.386 . S
C1960 C1955 1.490 . S
C1960 C1962 1.395 . S
C1960 C1963 1.403 . S
H1961 C1967 0.930 . S
C1962 H1948 0.930 . S
C1962 C1960 1.395 . S
C1962 C1965 1.403 . S
C1963 C1960 1.403 . S
C1963 C1964 1.524 . S
C1963 C1967 1.400 . S
C1964 H1949 0.960 . S
C1964 H1950 0.960 . S
C1964 H1951 0.960 . S
C1964 C1963 1.524 . S
C1965 C1962 1.403 . S
C1965 C1966 1.392 . S
C1965 C1969 1.495 . S
C1966 C1965 1.392 . S
C1966 C1967 1.385 . S
C1966 C1968 1.478 . S
C1967 H1961 0.930 . S
C1967 C1963 1.400 . S
C1967 C1966 1.385 . S
C1968 C1966 1.478 . S
C1968 C1970 1.381 . S
C1968 C1974 1.383 . S
C1969 C1965 1.495 . S
C1969 H1975 0.959 . S
C1969 H1976 0.961 . S
C1969 H1977 0.960 . S
C1970 C1968 1.381 . S
C1970 C1971 1.394 . S
C1970 H1978 0.930 . S
C1971 C1970 1.394 . S
C1971 C1972 1.383 . S
C1971 H1979 0.929 . S
C1972 C1971 1.383 . S
C1972 C1973 1.377 . S
C1973 H1957 0.930 . S
C1973 C1972 1.377 . S
C1973 C1974 1.379 . S
C1974 H1958 0.931 . S
C1974 C1968 1.383 . S
C1974 C1973 1.379 . S
H1975 C1969 0.959 . S
H1976 C1969 0.961 . S
H1977 C1969 0.960 . S
H1978 C1970 0.930 . S
H1979 C1971 0.929 . S
H1980 C1988 0.929 . S
H1981 C1990 0.930 . S
H1982 C1992 0.930 . S
H1983 C1995 0.929 . S
H1984 C1998 0.930 1_565 S
H1985 C2000 0.961 . S
H1986 C2000 0.960 . S
H1987 C2000 0.960 . S
C1988 H1980 0.929 . S
C1988 C1989 1.377 . S
C1988 C1990 1.384 . S
C1989 C1988 1.377 . S
C1989 C1995 1.390 . S
C1990 H1981 0.930 . S
C1990 C1988 1.384 . S
C1990 C1991 1.372 . S
C1991 C1990 1.372 . S
C1991 C1992 1.400 . S
C1991 C1996 1.490 . S
C1992 H1982 0.930 . S
C1992 C1991 1.400 . S
C1992 C1995 1.386 . S
H1993 C2009 0.930 . S
H1994 C2010 0.931 . S
C1995 H1983 0.929 . S
C1995 C1989 1.390 . S
C1995 C1992 1.386 . S
C1996 C1991 1.490 . S
C1996 C1998 1.395 1_565 S
C1996 C1999 1.403 1_565 S
H1997 C2003 0.930 . S
C1998 H1984 0.930 1_545 S
C1998 C1996 1.395 1_545 S
C1998 C2001 1.403 . S
C1999 C1996 1.403 1_545 S
C1999 C2000 1.524 1_545 S
C1999 C2003 1.400 . S
C2000 H1985 0.961 . S
C2000 H1986 0.960 . S
C2000 H1987 0.960 . S
C2000 C1999 1.524 1_565 S
C2001 C1998 1.403 . S
C2001 C2002 1.392 . S
C2001 C2005 1.495 . S
C2002 C2001 1.392 . S
C2002 C2003 1.385 . S
C2002 C2004 1.478 . S
C2003 H1997 0.930 . S
C2003 C1999 1.400 . S
C2003 C2002 1.385 . S
C2004 C2002 1.478 . S
C2004 C2006 1.381 . S
C2004 C2010 1.383 . S
C2005 C2001 1.495 . S
C2005 H2011 0.959 . S
C2005 H2012 0.961 . S
C2005 H2013 0.960 . S
C2006 C2004 1.381 . S
C2006 C2007 1.394 . S
C2006 H2014 0.930 . S
C2007 C2006 1.394 . S
C2007 C2008 1.383 . S
C2007 H2015 0.929 . S
C2008 C2007 1.383 . S
C2008 C2009 1.377 . S
C2009 H1993 0.930 . S
C2009 C2008 1.377 . S
C2009 C2010 1.379 . S
C2010 H1994 0.931 . S
C2010 C2004 1.383 . S
C2010 C2009 1.379 . S
H2011 C2005 0.959 . S
H2012 C2005 0.961 . S
H2013 C2005 0.960 . S
H2014 C2006 0.930 . S
H2015 C2007 0.929 . S
H2016 C2024 0.929 . S
H2017 C2026 0.930 . S
H2018 C2028 0.930 . S
H2019 C2031 0.929 . S
H2020 C2034 0.930 . S
H2021 C2036 0.960 . S
H2022 C2036 0.960 . S
H2023 C2036 0.960 . S
C2024 H2016 0.929 . S
C2024 C2025 1.377 . S
C2024 C2026 1.384 . S
C2025 C2024 1.377 . S
C2025 C2031 1.390 . S
C2026 H2017 0.930 . S
C2026 C2024 1.384 . S
C2026 C2027 1.372 . S
C2027 C2026 1.372 . S
C2027 C2028 1.400 . S
C2027 C2032 1.490 . S
C2028 H2018 0.930 . S
C2028 C2027 1.400 . S
C2028 C2031 1.386 . S
H2029 C2045 0.930 . S
H2030 C2046 0.931 . S
C2031 H2019 0.929 . S
C2031 C2025 1.390 . S
C2031 C2028 1.386 . S
C2032 C2027 1.490 . S
C2032 C2034 1.395 . S
C2032 C2035 1.403 . S
H2033 C2039 0.930 . S
C2034 H2020 0.930 . S
C2034 C2032 1.395 . S
C2034 C2037 1.403 . S
C2035 C2032 1.403 . S
C2035 C2036 1.524 . S
C2035 C2039 1.400 . S
C2036 H2021 0.960 . S
C2036 H2022 0.960 . S
C2036 H2023 0.960 . S
C2036 C2035 1.524 . S
C2037 C2034 1.403 . S
C2037 C2038 1.392 . S
C2037 C2041 1.495 . S
C2038 C2037 1.392 . S
C2038 C2039 1.385 . S
C2038 C2040 1.478 . S
C2039 H2033 0.930 . S
C2039 C2035 1.400 . S
C2039 C2038 1.385 . S
C2040 C2038 1.478 . S
C2040 C2042 1.381 . S
C2040 C2046 1.383 . S
C2041 C2037 1.495 . S
C2041 H2047 0.959 . S
C2041 H2048 0.961 . S
C2041 H2049 0.960 . S
C2042 C2040 1.381 . S
C2042 C2043 1.394 . S
C2042 H2050 0.930 . S
C2043 C2042 1.394 . S
C2043 C2044 1.383 . S
C2043 H2051 0.929 . S
C2044 C2043 1.383 . S
C2044 C2045 1.377 . S
C2045 H2029 0.930 . S
C2045 C2044 1.377 . S
C2045 C2046 1.379 . S
C2046 H2030 0.931 . S
C2046 C2040 1.383 . S
C2046 C2045 1.379 . S
H2047 C2041 0.959 . S
H2048 C2041 0.961 . S
H2049 C2041 0.960 . S
H2050 C2042 0.930 . S
H2051 C2043 0.929 . S
H2052 C2060 0.929 . S
H2053 C2062 0.930 . S
H2054 C2064 0.930 . S
H2055 C2067 0.929 . S
H2056 C2070 0.930 . S
H2057 C2072 0.960 . S
H2058 C2072 0.960 . S
H2059 C2072 0.960 . S
C2060 H2052 0.929 . S
C2060 C2061 1.377 . S
C2060 C2062 1.384 . S
C2061 C2060 1.377 . S
C2061 C2067 1.390 . S
C2062 H2053 0.930 . S
C2062 C2060 1.384 . S
C2062 C2063 1.372 . S
C2063 C2062 1.372 . S
C2063 C2064 1.400 . S
C2063 C2068 1.490 . S
C2064 H2054 0.930 . S
C2064 C2063 1.400 . S
C2064 C2067 1.386 . S
H2065 C2081 0.930 . S
H2066 C2082 0.931 . S
C2067 H2055 0.929 . S
C2067 C2061 1.390 . S
C2067 C2064 1.386 . S
C2068 C2063 1.490 . S
C2068 C2070 1.395 . S
C2068 C2071 1.403 . S
H2069 C2075 0.930 . S
C2070 H2056 0.930 . S
C2070 C2068 1.395 . S
C2070 C2073 1.403 . S
C2071 C2068 1.403 . S
C2071 C2072 1.524 . S
C2071 C2075 1.400 . S
C2072 H2057 0.960 . S
C2072 H2058 0.960 . S
C2072 H2059 0.960 . S
C2072 C2071 1.524 . S
C2073 C2070 1.403 . S
C2073 C2074 1.392 . S
C2073 C2077 1.495 . S
C2074 C2073 1.392 . S
C2074 C2075 1.385 . S
C2074 C2076 1.478 . S
C2075 H2069 0.930 . S
C2075 C2071 1.400 . S
C2075 C2074 1.385 . S
C2076 C2074 1.478 . S
C2076 C2078 1.381 . S
C2076 C2082 1.383 . S
C2077 C2073 1.495 . S
C2077 H2083 0.959 . S
C2077 H2084 0.961 . S
C2077 H2085 0.960 . S
C2078 C2076 1.381 . S
C2078 C2079 1.394 . S
C2078 H2086 0.930 . S
C2079 C2078 1.394 . S
C2079 C2080 1.383 . S
C2079 H2087 0.929 . S
C2080 C2079 1.383 . S
C2080 C2081 1.377 . S
C2081 H2065 0.930 . S
C2081 C2080 1.377 . S
C2081 C2082 1.379 . S
C2082 H2066 0.931 . S
C2082 C2076 1.383 . S
C2082 C2081 1.379 . S
H2083 C2077 0.959 . S
H2084 C2077 0.961 . S
H2085 C2077 0.960 . S
H2086 C2078 0.930 . S
H2087 C2079 0.929 . S
H2088 C2096 0.929 . S
H2089 C2098 0.930 . S
H2090 C2100 0.930 . S
H2091 C2103 0.929 . S
H2092 C2106 0.930 . S
H2093 C2108 0.960 . S
H2094 C2108 0.960 . S
H2095 C2108 0.960 . S
C2096 H2088 0.929 . S
C2096 C2097 1.377 . S
C2096 C2098 1.384 . S
C2097 C2096 1.377 . S
C2097 C2103 1.390 . S
C2098 H2089 0.930 . S
C2098 C2096 1.384 . S
C2098 C2099 1.372 . S
C2099 C2098 1.372 . S
C2099 C2100 1.400 . S
C2099 C2104 1.490 . S
C2100 H2090 0.930 . S
C2100 C2099 1.400 . S
C2100 C2103 1.386 . S
H2101 C2117 0.930 . S
H2102 C2118 0.931 . S
C2103 H2091 0.929 . S
C2103 C2097 1.390 . S
C2103 C2100 1.386 . S
C2104 C2099 1.490 . S
C2104 C2106 1.395 . S
C2104 C2107 1.403 . S
H2105 C2111 0.930 . S
C2106 H2092 0.930 . S
C2106 C2104 1.395 . S
C2106 C2109 1.403 . S
C2107 C2104 1.403 . S
C2107 C2108 1.524 . S
C2107 C2111 1.400 . S
C2108 H2093 0.960 . S
C2108 H2094 0.960 . S
C2108 H2095 0.960 . S
C2108 C2107 1.524 . S
C2109 C2106 1.403 . S
C2109 C2110 1.392 . S
C2109 C2113 1.495 . S
C2110 C2109 1.392 . S
C2110 C2111 1.385 . S
C2110 C2112 1.478 . S
C2111 H2105 0.930 . S
C2111 C2107 1.400 . S
C2111 C2110 1.385 . S
C2112 C2110 1.478 . S
C2112 C2114 1.381 . S
C2112 C2118 1.383 . S
C2113 C2109 1.495 . S
C2113 H2119 0.959 . S
C2113 H2120 0.961 . S
C2113 H2121 0.960 . S
C2114 C2112 1.381 . S
C2114 C2115 1.394 . S
C2114 H2122 0.930 . S
C2115 C2114 1.394 . S
C2115 C2116 1.383 . S
C2115 H2123 0.929 . S
C2116 C2115 1.383 . S
C2116 C2117 1.377 . S
C2117 H2101 0.930 . S
C2117 C2116 1.377 . S
C2117 C2118 1.379 . S
C2118 H2102 0.931 . S
C2118 C2112 1.383 . S
C2118 C2117 1.379 . S
H2119 C2113 0.959 . S
H2120 C2113 0.961 . S
H2121 C2113 0.960 . S
H2122 C2114 0.930 . S
H2123 C2115 0.929 . S
H2124 C2132 0.929 . S
H2125 C2134 0.930 . S
H2126 C2136 0.930 . S
H2127 C2139 0.929 . S
H2128 C2142 0.930 . S
H2129 C2144 0.960 . S
H2130 C2144 0.960 . S
H2131 C2144 0.960 . S
C2132 H2124 0.929 . S
C2132 C2133 1.377 . S
C2132 C2134 1.384 . S
C2133 C2132 1.377 . S
C2133 C2139 1.390 . S
C2134 H2125 0.930 . S
C2134 C2132 1.384 . S
C2134 C2135 1.372 . S
C2135 C2134 1.372 . S
C2135 C2136 1.400 . S
C2135 C2140 1.490 . S
C2136 H2126 0.930 . S
C2136 C2135 1.400 . S
C2136 C2139 1.386 . S
H2137 C2153 0.930 . S
H2138 C2154 0.931 . S
C2139 H2127 0.929 . S
C2139 C2133 1.390 . S
C2139 C2136 1.386 . S
C2140 C2135 1.490 . S
C2140 C2142 1.395 . S
C2140 C2143 1.403 . S
H2141 C2147 0.930 . S
C2142 H2128 0.930 . S
C2142 C2140 1.395 . S
C2142 C2145 1.403 . S
C2143 C2140 1.403 . S
C2143 C2144 1.524 . S
C2143 C2147 1.400 . S
C2144 H2129 0.960 . S
C2144 H2130 0.960 . S
C2144 H2131 0.960 . S
C2144 C2143 1.524 . S
C2145 C2142 1.403 . S
C2145 C2146 1.392 . S
C2145 C2149 1.495 . S
C2146 C2145 1.392 . S
C2146 C2147 1.385 . S
C2146 C2148 1.478 . S
C2147 H2141 0.930 . S
C2147 C2143 1.400 . S
C2147 C2146 1.385 . S
C2148 C2146 1.478 . S
C2148 C2150 1.381 . S
C2148 C2154 1.383 . S
C2149 C2145 1.495 . S
C2149 H2155 0.959 . S
C2149 H2156 0.961 . S
C2149 H2157 0.960 . S
C2150 C2148 1.381 . S
C2150 C2151 1.394 . S
C2150 H2158 0.930 . S
C2151 C2150 1.394 . S
C2151 C2152 1.383 . S
C2151 H2159 0.929 . S
C2152 C2151 1.383 . S
C2152 C2153 1.377 . S
C2153 H2137 0.930 . S
C2153 C2152 1.377 . S
C2153 C2154 1.379 . S
C2154 H2138 0.931 . S
C2154 C2148 1.383 . S
C2154 C2153 1.379 . S
H2155 C2149 0.959 . S
H2156 C2149 0.961 . S
H2157 C2149 0.960 . S
H2158 C2150 0.930 . S
H2159 C2151 0.929 . S
H2160 C2168 0.929 . S
H2161 C2170 0.930 . S
H2162 C2172 0.930 . S
H2163 C2175 0.929 . S
H2164 C2178 0.930 . S
H2165 C2180 0.960 . S
H2166 C2180 0.960 . S
H2167 C2180 0.960 . S
C2168 H2160 0.929 . S
C2168 C2169 1.377 . S
C2168 C2170 1.384 . S
C2169 C2168 1.377 . S
C2169 C2175 1.390 . S
C2170 H2161 0.930 . S
C2170 C2168 1.384 . S
C2170 C2171 1.372 . S
C2171 C2170 1.372 . S
C2171 C2172 1.400 . S
C2171 C2176 1.490 . S
C2172 H2162 0.930 . S
C2172 C2171 1.400 . S
C2172 C2175 1.386 . S
H2173 C2189 0.930 . S
H2174 C2190 0.931 . S
C2175 H2163 0.929 . S
C2175 C2169 1.390 . S
C2175 C2172 1.386 . S
C2176 C2171 1.490 . S
C2176 C2178 1.395 . S
C2176 C2179 1.403 . S
H2177 C2183 0.930 . S
C2178 H2164 0.930 . S
C2178 C2176 1.395 . S
C2178 C2181 1.403 . S
C2179 C2176 1.403 . S
C2179 C2180 1.524 . S
C2179 C2183 1.400 . S
C2180 H2165 0.960 . S
C2180 H2166 0.960 . S
C2180 H2167 0.960 . S
C2180 C2179 1.524 . S
C2181 C2178 1.403 . S
C2181 C2182 1.392 . S
C2181 C2185 1.495 . S
C2182 C2181 1.392 . S
C2182 C2183 1.385 . S
C2182 C2184 1.478 . S
C2183 H2177 0.930 . S
C2183 C2179 1.400 . S
C2183 C2182 1.385 . S
C2184 C2182 1.478 . S
C2184 C2186 1.381 . S
C2184 C2190 1.383 . S
C2185 C2181 1.495 . S
C2185 H2191 0.959 . S
C2185 H2192 0.961 . S
C2185 H2193 0.960 . S
C2186 C2184 1.381 . S
C2186 C2187 1.394 . S
C2186 H2194 0.930 . S
C2187 C2186 1.394 . S
C2187 C2188 1.383 . S
C2187 H2195 0.929 . S
C2188 C2187 1.383 . S
C2188 C2189 1.377 . S
C2189 H2173 0.930 . S
C2189 C2188 1.377 . S
C2189 C2190 1.379 . S
C2190 H2174 0.931 . S
C2190 C2184 1.383 . S
C2190 C2189 1.379 . S
H2191 C2185 0.959 . S
H2192 C2185 0.961 . S
H2193 C2185 0.960 . S
H2194 C2186 0.930 . S
H2195 C2187 0.929 . S
H2196 C2204 0.929 . S
H2197 C2206 0.930 . S
H2198 C2208 0.930 . S
H2199 C2211 0.929 . S
H2200 C2214 0.930 . S
H2201 C2216 0.960 . S
H2202 C2216 0.960 . S
H2203 C2216 0.960 . S
C2204 H2196 0.929 . S
C2204 C2205 1.377 . S
C2204 C2206 1.384 . S
C2205 C2204 1.377 . S
C2205 C2211 1.390 . S
C2206 H2197 0.930 . S
C2206 C2204 1.384 . S
C2206 C2207 1.372 . S
C2207 C2206 1.372 . S
C2207 C2208 1.400 . S
C2207 C2212 1.490 . S
C2208 H2198 0.930 . S
C2208 C2207 1.400 . S
C2208 C2211 1.386 . S
H2209 C2225 0.930 . S
H2210 C2226 0.931 . S
C2211 H2199 0.929 . S
C2211 C2205 1.390 . S
C2211 C2208 1.386 . S
C2212 C2207 1.490 . S
C2212 C2214 1.395 . S
C2212 C2215 1.403 . S
H2213 C2219 0.930 . S
C2214 H2200 0.930 . S
C2214 C2212 1.395 . S
C2214 C2217 1.403 . S
C2215 C2212 1.403 . S
C2215 C2216 1.524 . S
C2215 C2219 1.400 . S
C2216 H2201 0.960 . S
C2216 H2202 0.960 . S
C2216 H2203 0.960 . S
C2216 C2215 1.524 . S
C2217 C2214 1.403 . S
C2217 C2218 1.392 . S
C2217 C2221 1.495 . S
C2218 C2217 1.392 . S
C2218 C2219 1.385 . S
C2218 C2220 1.478 . S
C2219 H2213 0.930 . S
C2219 C2215 1.400 . S
C2219 C2218 1.385 . S
C2220 C2218 1.478 . S
C2220 C2222 1.381 . S
C2220 C2226 1.383 . S
C2221 C2217 1.495 . S
C2221 H2227 0.959 . S
C2221 H2228 0.961 . S
C2221 H2229 0.960 . S
C2222 C2220 1.381 . S
C2222 C2223 1.394 . S
C2222 H2230 0.930 . S
C2223 C2222 1.394 . S
C2223 C2224 1.383 . S
C2223 H2231 0.929 . S
C2224 C2223 1.383 . S
C2224 C2225 1.377 . S
C2225 H2209 0.930 . S
C2225 C2224 1.377 . S
C2225 C2226 1.379 . S
C2226 H2210 0.931 . S
C2226 C2220 1.383 . S
C2226 C2225 1.379 . S
H2227 C2221 0.959 . S
H2228 C2221 0.961 . S
H2229 C2221 0.960 . S
H2230 C2222 0.930 . S
H2231 C2223 0.929 . S
H2232 C2240 0.929 . S
H2233 C2242 0.930 . S
H2234 C2244 0.930 . S
H2235 C2247 0.929 . S
H2236 C2250 0.930 . S
H2237 C2252 0.960 . S
H2238 C2252 0.960 . S
H2239 C2252 0.960 . S
C2240 H2232 0.929 . S
C2240 C2241 1.377 . S
C2240 C2242 1.384 . S
C2241 C2240 1.377 . S
C2241 C2247 1.390 . S
C2242 H2233 0.930 . S
C2242 C2240 1.384 . S
C2242 C2243 1.372 . S
C2243 C2242 1.372 . S
C2243 C2244 1.400 . S
C2243 C2248 1.490 . S
C2244 H2234 0.930 . S
C2244 C2243 1.400 . S
C2244 C2247 1.386 . S
H2245 C2261 0.930 . S
H2246 C2262 0.931 . S
C2247 H2235 0.929 . S
C2247 C2241 1.390 . S
C2247 C2244 1.386 . S
C2248 C2243 1.490 . S
C2248 C2250 1.395 . S
C2248 C2251 1.403 . S
H2249 C2255 0.930 . S
C2250 H2236 0.930 . S
C2250 C2248 1.395 . S
C2250 C2253 1.403 . S
C2251 C2248 1.403 . S
C2251 C2252 1.524 . S
C2251 C2255 1.400 . S
C2252 H2237 0.960 . S
C2252 H2238 0.960 . S
C2252 H2239 0.960 . S
C2252 C2251 1.524 . S
C2253 C2250 1.403 . S
C2253 C2254 1.392 . S
C2253 C2257 1.495 . S
C2254 C2253 1.392 . S
C2254 C2255 1.385 . S
C2254 C2256 1.478 . S
C2255 H2249 0.930 . S
C2255 C2251 1.400 . S
C2255 C2254 1.385 . S
C2256 C2254 1.478 . S
C2256 C2258 1.381 . S
C2256 C2262 1.383 . S
C2257 C2253 1.495 . S
C2257 H2263 0.959 . S
C2257 H2264 0.961 . S
C2257 H2265 0.960 . S
C2258 C2256 1.381 . S
C2258 C2259 1.394 . S
C2258 H2266 0.930 . S
C2259 C2258 1.394 . S
C2259 C2260 1.383 . S
C2259 H2267 0.929 . S
C2260 C2259 1.383 . S
C2260 C2261 1.377 . S
C2261 H2245 0.930 . S
C2261 C2260 1.377 . S
C2261 C2262 1.379 . S
C2262 H2246 0.931 . S
C2262 C2256 1.383 . S
C2262 C2261 1.379 . S
H2263 C2257 0.959 . S
H2264 C2257 0.961 . S
H2265 C2257 0.960 . S
H2266 C2258 0.930 . S
H2267 C2259 0.929 . S
H2268 C2276 0.929 . S
H2269 C2278 0.930 . S
H2270 C2280 0.930 . S
H2271 C2283 0.929 . S
H2272 C2286 0.930 . S
H2273 C2288 0.960 . S
H2274 C2288 0.960 . S
H2275 C2288 0.960 . S
C2276 H2268 0.929 . S
C2276 C2277 1.377 . S
C2276 C2278 1.384 . S
C2277 C2276 1.377 . S
C2277 C2283 1.390 . S
C2278 H2269 0.930 . S
C2278 C2276 1.384 . S
C2278 C2279 1.372 . S
C2279 C2278 1.372 . S
C2279 C2280 1.400 . S
C2279 C2284 1.490 . S
C2280 H2270 0.930 . S
C2280 C2279 1.400 . S
C2280 C2283 1.386 . S
H2281 C2297 0.930 . S
H2282 C2298 0.931 . S
C2283 H2271 0.929 . S
C2283 C2277 1.390 . S
C2283 C2280 1.386 . S
C2284 C2279 1.490 . S
C2284 C2286 1.395 . S
C2284 C2287 1.403 . S
H2285 C2291 0.930 . S
C2286 H2272 0.930 . S
C2286 C2284 1.395 . S
C2286 C2289 1.403 . S
C2287 C2284 1.403 . S
C2287 C2288 1.524 . S
C2287 C2291 1.400 . S
C2288 H2273 0.960 . S
C2288 H2274 0.960 . S
C2288 H2275 0.960 . S
C2288 C2287 1.524 . S
C2289 C2286 1.403 . S
C2289 C2290 1.392 . S
C2289 C2293 1.495 . S
C2290 C2289 1.392 . S
C2290 C2291 1.385 . S
C2290 C2292 1.478 . S
C2291 H2285 0.930 . S
C2291 C2287 1.400 . S
C2291 C2290 1.385 . S
C2292 C2290 1.478 . S
C2292 C2294 1.381 . S
C2292 C2298 1.383 . S
C2293 C2289 1.495 . S
C2293 H2299 0.959 . S
C2293 H2300 0.961 . S
C2293 H2301 0.960 . S
C2294 C2292 1.381 . S
C2294 C2295 1.394 . S
C2294 H2302 0.930 . S
C2295 C2294 1.394 . S
C2295 C2296 1.383 . S
C2295 H2303 0.929 . S
C2296 C2295 1.383 . S
C2296 C2297 1.377 . S
C2297 H2281 0.930 . S
C2297 C2296 1.377 . S
C2297 C2298 1.379 . S
C2298 H2282 0.931 . S
C2298 C2292 1.383 . S
C2298 C2297 1.379 . S
H2299 C2293 0.959 . S
H2300 C2293 0.961 . S
H2301 C2293 0.960 . S
H2302 C2294 0.930 . S
H2303 C2295 0.929 . S
H2304 C2312 0.929 . S
H2305 C2314 0.930 . S
H2306 C2316 0.930 . S
H2307 C2319 0.929 . S
H2308 C2322 0.930 . S
H2309 C2324 0.960 . S
H2310 C2324 0.960 . S
H2311 C2324 0.960 . S
C2312 H2304 0.929 . S
C2312 C2313 1.377 . S
C2312 C2314 1.384 . S
C2313 C2312 1.377 . S
C2313 C2319 1.390 . S
C2314 H2305 0.930 . S
C2314 C2312 1.384 . S
C2314 C2315 1.372 . S
C2315 C2314 1.372 . S
C2315 C2316 1.400 . S
C2315 C2320 1.490 . S
C2316 H2306 0.930 . S
C2316 C2315 1.400 . S
C2316 C2319 1.386 . S
H2317 C2333 0.930 . S
H2318 C2334 0.931 . S
C2319 H2307 0.929 . S
C2319 C2313 1.390 . S
C2319 C2316 1.386 . S
C2320 C2315 1.490 . S
C2320 C2322 1.395 . S
C2320 C2323 1.403 . S
H2321 C2327 0.930 . S
C2322 H2308 0.930 . S
C2322 C2320 1.395 . S
C2322 C2325 1.403 . S
C2323 C2320 1.403 . S
C2323 C2324 1.524 . S
C2323 C2327 1.400 . S
C2324 H2309 0.960 . S
C2324 H2310 0.960 . S
C2324 H2311 0.960 . S
C2324 C2323 1.524 . S
C2325 C2322 1.403 . S
C2325 C2326 1.392 . S
C2325 C2329 1.495 . S
C2326 C2325 1.392 . S
C2326 C2327 1.385 . S
C2326 C2328 1.478 . S
C2327 H2321 0.930 . S
C2327 C2323 1.400 . S
C2327 C2326 1.385 . S
C2328 C2326 1.478 . S
C2328 C2330 1.381 . S
C2328 C2334 1.383 . S
C2329 C2325 1.495 . S
C2329 H2335 0.959 . S
C2329 H2336 0.961 . S
C2329 H2337 0.960 . S
C2330 C2328 1.381 . S
C2330 C2331 1.394 . S
C2330 H2338 0.930 . S
C2331 C2330 1.394 . S
C2331 C2332 1.383 . S
C2331 H2339 0.929 . S
C2332 C2331 1.383 . S
C2332 C2333 1.377 . S
C2333 H2317 0.930 . S
C2333 C2332 1.377 . S
C2333 C2334 1.379 . S
C2334 H2318 0.931 . S
C2334 C2328 1.383 . S
C2334 C2333 1.379 . S
H2335 C2329 0.959 . S
H2336 C2329 0.961 . S
H2337 C2329 0.960 . S
H2338 C2330 0.930 . S
H2339 C2331 0.929 . S
H2340 C2348 0.929 . S
H2341 C2350 0.930 . S
H2342 C2352 0.930 . S
H2343 C2355 0.929 . S
H2344 C2358 0.930 . S
H2345 C2360 0.960 . S
H2346 C2360 0.960 . S
H2347 C2360 0.960 . S
C2348 H2340 0.929 . S
C2348 C2349 1.377 . S
C2348 C2350 1.384 . S
C2349 C2348 1.377 . S
C2349 C2355 1.390 . S
C2350 H2341 0.930 . S
C2350 C2348 1.384 . S
C2350 C2351 1.372 . S
C2351 C2350 1.372 . S
C2351 C2352 1.400 . S
C2351 C2356 1.490 . S
C2352 H2342 0.930 . S
C2352 C2351 1.400 . S
C2352 C2355 1.386 . S
H2353 C2369 0.930 1_455 S
H2354 C2370 0.931 . S
C2355 H2343 0.929 . S
C2355 C2349 1.390 . S
C2355 C2352 1.386 . S
C2356 C2351 1.490 . S
C2356 C2358 1.395 . S
C2356 C2359 1.403 . S
H2357 C2363 0.930 . S
C2358 H2344 0.930 . S
C2358 C2356 1.395 . S
C2358 C2361 1.403 . S
C2359 C2356 1.403 . S
C2359 C2360 1.524 . S
C2359 C2363 1.400 . S
C2360 H2345 0.960 . S
C2360 H2346 0.960 . S
C2360 H2347 0.960 . S
C2360 C2359 1.524 . S
C2361 C2358 1.403 . S
C2361 C2362 1.392 . S
C2361 C2365 1.495 . S
C2362 C2361 1.392 . S
C2362 C2363 1.385 . S
C2362 C2364 1.478 . S
C2363 H2357 0.930 . S
C2363 C2359 1.400 . S
C2363 C2362 1.385 . S
C2364 C2362 1.478 . S
C2364 C2366 1.381 . S
C2364 C2370 1.383 . S
C2365 C2361 1.495 . S
C2365 H2371 0.959 . S
C2365 H2372 0.961 . S
C2365 H2373 0.960 . S
C2366 C2364 1.381 . S
C2366 C2367 1.394 . S
C2366 H2374 0.930 . S
C2367 C2366 1.394 . S
C2367 C2368 1.383 1_655 S
C2367 H2375 0.929 1_655 S
C2368 C2367 1.383 1_455 S
C2368 C2369 1.377 1_455 S
C2369 H2353 0.930 1_655 S
C2369 C2368 1.377 1_655 S
C2369 C2370 1.379 . S
C2370 H2354 0.931 . S
C2370 C2364 1.383 . S
C2370 C2369 1.379 . S
H2371 C2365 0.959 . S
H2372 C2365 0.961 . S
H2373 C2365 0.960 . S
H2374 C2366 0.930 . S
H2375 C2367 0.929 1_455 S
H2376 C2384 0.929 . S
H2377 C2386 0.930 . S
H2378 C2388 0.930 1_545 S
H2379 C2391 0.929 . S
H2380 C2394 0.930 . S
H2381 C2396 0.960 . S
H2382 C2396 0.960 1_565 S
H2383 C2396 0.960 . S
C2384 H2376 0.929 . S
C2384 C2385 1.377 . S
C2384 C2386 1.384 . S
C2385 C2384 1.377 . S
C2385 C2391 1.390 . S
C2386 H2377 0.930 . S
C2386 C2384 1.384 . S
C2386 C2387 1.358 1_565 S
C2387 C2386 1.358 1_545 S
C2387 C2388 1.390 1_545 S
C2387 C2392 1.513 . S
C2388 H2378 0.930 1_565 S
C2388 C2387 1.390 1_565 S
C2388 C2391 1.386 . S
H2389 C2405 0.930 . S
H2390 C2406 0.931 . S
C2391 H2379 0.929 . S
C2391 C2385 1.390 . S
C2391 C2388 1.386 . S
C2392 C2387 1.513 . S
C2392 C2394 1.395 . S
C2392 C2395 1.403 . S
H2393 C2399 0.930 . S
C2394 H2380 0.930 . S
C2394 C2392 1.395 . S
C2394 C2397 1.403 . S
C2395 C2392 1.403 . S
C2395 C2396 1.524 . S
C2395 C2399 1.400 . S
C2396 H2381 0.960 . S
C2396 H2382 0.960 1_545 S
C2396 H2383 0.960 . S
C2396 C2395 1.524 . S
C2397 C2394 1.403 . S
C2397 C2398 1.392 . S
C2397 C2401 1.495 . S
C2398 C2397 1.392 . S
C2398 C2399 1.385 . S
C2398 C2400 1.478 . S
C2399 H2393 0.930 . S
C2399 C2395 1.400 . S
C2399 C2398 1.385 . S
C2400 C2398 1.478 . S
C2400 C2402 1.381 . S
C2400 C2406 1.383 . S
C2401 C2397 1.495 . S
C2401 H2407 0.959 . S
C2401 H2408 0.961 . S
C2401 H2409 0.960 . S
C2402 C2400 1.381 . S
C2402 C2403 1.394 . S
C2402 H2410 0.930 . S
C2403 C2402 1.394 . S
C2403 C2404 1.383 . S
C2403 H2411 0.929 . S
C2404 C2403 1.383 . S
C2404 C2405 1.377 . S
C2405 H2389 0.930 . S
C2405 C2404 1.377 . S
C2405 C2406 1.379 . S
C2406 H2390 0.931 . S
C2406 C2400 1.383 . S
C2406 C2405 1.379 . S
H2407 C2401 0.959 . S
H2408 C2401 0.961 . S
H2409 C2401 0.960 . S
H2410 C2402 0.930 . S
H2411 C2403 0.929 . S
H2412 C2420 0.929 . S
H2413 C2422 0.930 . S
H2414 C2424 0.930 . S
H2415 C2427 0.929 . S
H2416 C2430 0.930 . S
H2417 C2432 0.960 1_455 S
H2418 C2432 0.960 . S
H2419 C2432 0.960 . S
C2420 H2412 0.929 . S
C2420 C2421 1.377 . S
C2420 C2422 1.384 . S
C2421 C2420 1.377 . S
C2421 C2427 1.390 . S
C2422 H2413 0.930 . S
C2422 C2420 1.384 . S
C2422 C2423 1.372 . S
C2423 C2422 1.372 . S
C2423 C2424 1.400 . S
C2423 C2428 1.490 . S
C2424 H2414 0.930 . S
C2424 C2423 1.400 . S
C2424 C2427 1.386 . S
H2425 C2441 0.930 . S
H2426 C2442 0.931 . S
C2427 H2415 0.929 . S
C2427 C2421 1.390 . S
C2427 C2424 1.386 . S
C2428 C2423 1.490 . S
C2428 C2430 1.395 . S
C2428 C2431 1.403 . S
H2429 C2435 0.930 . S
C2430 H2416 0.930 . S
C2430 C2428 1.395 . S
C2430 C2433 1.403 . S
C2431 C2428 1.403 . S
C2431 C2432 1.524 . S
C2431 C2435 1.400 1_655 S
C2432 H2417 0.960 1_655 S
C2432 H2418 0.960 . S
C2432 H2419 0.960 . S
C2432 C2431 1.524 . S
C2433 C2430 1.403 . S
C2433 C2434 1.392 . S
C2433 C2437 1.495 . S
C2434 C2433 1.392 . S
C2434 C2435 1.385 1_655 S
C2434 C2436 1.478 1_655 S
C2435 H2429 0.930 . S
C2435 C2431 1.400 1_455 S
C2435 C2434 1.385 1_455 S
C2436 C2434 1.478 1_455 S
C2436 C2438 1.381 . S
C2436 C2442 1.383 . S
C2437 C2433 1.495 . S
C2437 H2443 0.959 . S
C2437 H2444 0.961 . S
C2437 H2445 0.960 . S
C2438 C2436 1.381 . S
C2438 C2439 1.394 . S
C2438 H2446 0.930 . S
C2439 C2438 1.394 . S
C2439 C2440 1.383 . S
C2439 H2447 0.929 . S
C2440 C2439 1.383 . S
C2440 C2441 1.377 . S
C2441 H2425 0.930 . S
C2441 C2440 1.377 . S
C2441 C2442 1.379 . S
C2442 H2426 0.931 . S
C2442 C2436 1.383 . S
C2442 C2441 1.379 . S
H2443 C2437 0.959 . S
H2444 C2437 0.961 . S
H2445 C2437 0.960 . S
H2446 C2438 0.930 . S
H2447 C2439 0.929 . S
H2448 C2456 0.929 . S
H2449 C2458 0.930 . S
H2450 C2460 0.930 . S
H2451 C2463 0.929 . S
H2452 C2466 0.930 . S
H2453 C2468 0.960 . S
H2454 C2468 0.960 . S
H2455 C2468 0.960 . S
C2456 H2448 0.929 . S
C2456 C2457 1.377 . S
C2456 C2458 1.384 . S
C2457 C2456 1.377 . S
C2457 C2463 1.390 . S
C2458 H2449 0.930 . S
C2458 C2456 1.384 . S
C2458 C2459 1.372 . S
C2459 C2458 1.372 . S
C2459 C2460 1.400 . S
C2459 C2464 1.490 . S
C2460 H2450 0.930 . S
C2460 C2459 1.400 . S
C2460 C2463 1.386 . S
H2461 C2477 0.930 . S
H2462 C2478 0.931 . S
C2463 H2451 0.929 . S
C2463 C2457 1.390 . S
C2463 C2460 1.386 . S
C2464 C2459 1.490 . S
C2464 C2466 1.395 . S
C2464 C2467 1.403 . S
H2465 C2471 0.930 . S
C2466 H2452 0.930 . S
C2466 C2464 1.395 . S
C2466 C2469 1.403 . S
C2467 C2464 1.403 . S
C2467 C2468 1.524 . S
C2467 C2471 1.400 . S
C2468 H2453 0.960 . S
C2468 H2454 0.960 . S
C2468 H2455 0.960 . S
C2468 C2467 1.524 . S
C2469 C2466 1.403 . S
C2469 C2470 1.392 . S
C2469 C2473 1.495 . S
C2470 C2469 1.392 . S
C2470 C2471 1.385 . S
C2470 C2472 1.478 . S
C2471 H2465 0.930 . S
C2471 C2467 1.400 . S
C2471 C2470 1.385 . S
C2472 C2470 1.478 . S
C2472 C2474 1.381 . S
C2472 C2478 1.383 . S
C2473 C2469 1.495 . S
C2473 H2479 0.959 . S
C2473 H2480 0.961 . S
C2473 H2481 0.960 . S
C2474 C2472 1.381 . S
C2474 C2475 1.394 1_565 S
C2474 H2482 0.930 . S
C2475 C2474 1.394 1_545 S
C2475 C2476 1.383 . S
C2475 H2483 0.929 . S
C2476 C2475 1.383 . S
C2476 C2477 1.377 1_545 S
C2477 H2461 0.930 . S
C2477 C2476 1.377 1_565 S
C2477 C2478 1.379 . S
C2478 H2462 0.931 . S
C2478 C2472 1.383 . S
C2478 C2477 1.379 . S
H2479 C2473 0.959 . S
H2480 C2473 0.961 . S
H2481 C2473 0.960 . S
H2482 C2474 0.930 . S
H2483 C2475 0.929 . S
H2484 C2492 0.929 . S
H2485 C2494 0.930 . S
H2486 C2496 0.930 . S
H2487 C2499 0.929 . S
H2488 C2502 0.930 . S
H2489 C2504 0.960 . S
H2490 C2504 0.960 . S
H2491 C2504 0.960 . S
C2492 H2484 0.929 . S
C2492 C2493 1.377 . S
C2492 C2494 1.384 . S
C2493 C2492 1.377 . S
C2493 C2499 1.390 . S
C2494 H2485 0.930 . S
C2494 C2492 1.384 . S
C2494 C2495 1.372 . S
C2495 C2494 1.372 . S
C2495 C2496 1.400 . S
C2495 C2500 1.504 . S
C2496 H2486 0.930 . S
C2496 C2495 1.400 . S
C2496 C2499 1.386 . S
H2497 C2513 0.930 . S
H2498 C2514 0.931 . S
C2499 H2487 0.929 . S
C2499 C2493 1.390 . S
C2499 C2496 1.386 . S
C2500 C2495 1.504 . S
C2500 C2502 1.378 1_545 S
C2500 C2503 1.407 1_545 S
H2501 C2507 0.930 . S
C2502 H2488 0.930 . S
C2502 C2500 1.378 1_565 S
C2502 C2505 1.403 . S
C2503 C2500 1.407 1_565 S
C2503 C2504 1.524 1_565 S
C2503 C2507 1.400 . S
C2504 H2489 0.960 . S
C2504 H2490 0.960 . S
C2504 H2491 0.960 . S
C2504 C2503 1.524 1_545 S
C2505 C2502 1.403 . S
C2505 C2506 1.392 . S
C2505 C2509 1.495 . S
C2506 C2505 1.392 . S
C2506 C2507 1.385 . S
C2506 C2508 1.478 . S
C2507 H2501 0.930 . S
C2507 C2503 1.400 . S
C2507 C2506 1.385 . S
C2508 C2506 1.478 . S
C2508 C2510 1.381 . S
C2508 C2514 1.383 . S
C2509 C2505 1.495 . S
C2509 H2515 0.959 . S
C2509 H2516 0.961 . S
C2509 H2517 0.960 . S
C2510 C2508 1.381 . S
C2510 C2511 1.394 . S
C2510 H2518 0.930 . S
C2511 C2510 1.394 . S
C2511 C2512 1.383 . S
C2511 H2519 0.929 . S
C2512 C2511 1.383 . S
C2512 C2513 1.377 . S
C2513 H2497 0.930 . S
C2513 C2512 1.377 . S
C2513 C2514 1.379 . S
C2514 H2498 0.931 . S
C2514 C2508 1.383 . S
C2514 C2513 1.379 . S
H2515 C2509 0.959 . S
H2516 C2509 0.961 . S
H2517 C2509 0.960 . S
H2518 C2510 0.930 . S
H2519 C2511 0.929 . S
H2520 C2528 0.929 . S
H2521 C2530 0.930 . S
H2522 C2532 0.930 . S
H2523 C2535 0.929 . S
H2524 C2538 0.930 . S
H2525 C2540 0.960 . S
H2526 C2540 0.960 . S
H2527 C2540 0.960 . S
C2528 H2520 0.929 . S
C2528 C2529 1.377 . S
C2528 C2530 1.384 . S
C2529 C2528 1.377 . S
C2529 C2535 1.390 . S
C2530 H2521 0.930 . S
C2530 C2528 1.384 . S
C2530 C2531 1.372 . S
C2531 C2530 1.372 . S
C2531 C2532 1.400 . S
C2531 C2536 1.490 . S
C2532 H2522 0.930 . S
C2532 C2531 1.400 . S
C2532 C2535 1.386 . S
H2533 C2549 0.930 . S
H2534 C2550 0.931 . S
C2535 H2523 0.929 . S
C2535 C2529 1.390 . S
C2535 C2532 1.386 . S
C2536 C2531 1.490 . S
C2536 C2538 1.395 . S
C2536 C2539 1.403 . S
H2537 C2543 0.930 . S
C2538 H2524 0.930 . S
C2538 C2536 1.395 . S
C2538 C2541 1.403 . S
C2539 C2536 1.403 . S
C2539 C2540 1.524 . S
C2539 C2543 1.400 . S
C2540 H2525 0.960 . S
C2540 H2526 0.960 . S
C2540 H2527 0.960 . S
C2540 C2539 1.524 . S
C2541 C2538 1.403 . S
C2541 C2542 1.392 . S
C2541 C2545 1.504 . S
C2542 C2541 1.392 . S
C2542 C2543 1.385 . S
C2542 C2544 1.478 1_455 S
C2543 H2537 0.930 . S
C2543 C2539 1.400 . S
C2543 C2542 1.385 . S
C2544 C2542 1.478 1_655 S
C2544 C2546 1.381 . S
C2544 C2550 1.383 . S
C2545 C2541 1.504 . S
C2545 H2551 0.970 . S
C2545 H2552 0.949 1_455 S
C2545 H2553 0.952 1_455 S
C2546 C2544 1.381 . S
C2546 C2547 1.394 . S
C2546 H2554 0.930 1_655 S
C2547 C2546 1.394 . S
C2547 C2548 1.383 . S
C2547 H2555 0.929 . S
C2548 C2547 1.383 . S
C2548 C2549 1.377 . S
C2549 H2533 0.930 . S
C2549 C2548 1.377 . S
C2549 C2550 1.379 . S
C2550 H2534 0.931 . S
C2550 C2544 1.383 . S
C2550 C2549 1.379 . S
H2551 C2545 0.970 . S
H2552 C2545 0.949 1_655 S
H2553 C2545 0.952 1_655 S
H2554 C2546 0.930 1_455 S
H2555 C2547 0.929 . S
H2556 C2564 0.929 . S
H2557 C2566 0.930 . S
H2558 C2568 0.930 . S
H2559 C2571 0.929 . S
H2560 C2574 0.930 . S
H2561 C2576 0.960 . S
H2562 C2576 0.960 . S
H2563 C2576 0.960 . S
C2564 H2556 0.929 . S
C2564 C2565 1.377 . S
C2564 C2566 1.384 . S
C2565 C2564 1.377 . S
C2565 C2571 1.390 . S
C2566 H2557 0.930 . S
C2566 C2564 1.384 . S
C2566 C2567 1.372 . S
C2567 C2566 1.372 . S
C2567 C2568 1.400 . S
C2567 C2572 1.490 . S
C2568 H2558 0.930 . S
C2568 C2567 1.400 . S
C2568 C2571 1.386 . S
H2569 C2585 0.930 . S
H2570 C2586 0.931 . S
C2571 H2559 0.929 . S
C2571 C2565 1.390 . S
C2571 C2568 1.386 . S
C2572 C2567 1.490 . S
C2572 C2574 1.395 . S
C2572 C2575 1.403 . S
H2573 C2579 0.930 . S
C2574 H2560 0.930 . S
C2574 C2572 1.395 . S
C2574 C2577 1.403 . S
C2575 C2572 1.403 . S
C2575 C2576 1.524 . S
C2575 C2579 1.400 . S
C2576 H2561 0.960 . S
C2576 H2562 0.960 . S
C2576 H2563 0.960 . S
C2576 C2575 1.524 . S
C2577 C2574 1.403 . S
C2577 C2578 1.392 . S
C2577 C2581 1.495 . S
C2578 C2577 1.392 . S
C2578 C2579 1.385 . S
C2578 C2580 1.478 . S
C2579 H2573 0.930 . S
C2579 C2575 1.400 . S
C2579 C2578 1.385 . S
C2580 C2578 1.478 . S
C2580 C2582 1.381 . S
C2580 C2586 1.383 . S
C2581 C2577 1.495 . S
C2581 H2587 0.959 . S
C2581 H2588 0.961 . S
C2581 H2589 0.960 . S
C2582 C2580 1.381 . S
C2582 C2583 1.394 . S
C2582 H2590 0.930 . S
C2583 C2582 1.394 . S
C2583 C2584 1.383 . S
C2583 H2591 0.929 . S
C2584 C2583 1.383 . S
C2584 C2585 1.377 . S
C2585 H2569 0.930 . S
C2585 C2584 1.377 . S
C2585 C2586 1.379 . S
C2586 H2570 0.931 . S
C2586 C2580 1.383 . S
C2586 C2585 1.379 . S
H2587 C2581 0.959 . S
H2588 C2581 0.961 . S
H2589 C2581 0.960 . S
H2590 C2582 0.930 . S
H2591 C2583 0.929 . S
H2592 C2600 0.929 . S
H2593 C2602 0.930 . S
H2594 C2604 0.930 . S
H2595 C2607 0.929 . S
H2596 C2610 0.930 . S
H2597 C2612 0.960 . S
H2598 C2612 0.960 . S
H2599 C2612 0.960 . S
C2600 H2592 0.929 . S
C2600 C2601 1.377 . S
C2600 C2602 1.384 . S
C2601 C2600 1.377 . S
C2601 C2607 1.390 . S
C2602 H2593 0.930 . S
C2602 C2600 1.384 . S
C2602 C2603 1.372 . S
C2603 C2602 1.372 . S
C2603 C2604 1.400 . S
C2603 C2608 1.490 . S
C2604 H2594 0.930 . S
C2604 C2603 1.400 . S
C2604 C2607 1.386 . S
H2605 C2621 0.930 . S
H2606 C2622 0.931 . S
C2607 H2595 0.929 . S
C2607 C2601 1.390 . S
C2607 C2604 1.386 . S
C2608 C2603 1.490 . S
C2608 C2610 1.395 . S
C2608 C2611 1.403 . S
H2609 C2615 0.930 . S
C2610 H2596 0.930 . S
C2610 C2608 1.395 . S
C2610 C2613 1.403 . S
C2611 C2608 1.403 . S
C2611 C2612 1.524 . S
C2611 C2615 1.400 . S
C2612 H2597 0.960 . S
C2612 H2598 0.960 . S
C2612 H2599 0.960 . S
C2612 C2611 1.524 . S
C2613 C2610 1.403 . S
C2613 C2614 1.392 . S
C2613 C2617 1.495 . S
C2614 C2613 1.392 . S
C2614 C2615 1.385 . S
C2614 C2616 1.478 . S
C2615 H2609 0.930 . S
C2615 C2611 1.400 . S
C2615 C2614 1.385 . S
C2616 C2614 1.478 . S
C2616 C2618 1.381 . S
C2616 C2622 1.383 . S
C2617 C2613 1.495 . S
C2617 H2623 0.959 . S
C2617 H2624 0.961 . S
C2617 H2625 0.960 . S
C2618 C2616 1.381 . S
C2618 C2619 1.394 . S
C2618 H2626 0.930 . S
C2619 C2618 1.394 . S
C2619 C2620 1.383 . S
C2619 H2627 0.929 . S
C2620 C2619 1.383 . S
C2620 C2621 1.377 . S
C2621 H2605 0.930 . S
C2621 C2620 1.377 . S
C2621 C2622 1.379 . S
C2622 H2606 0.931 . S
C2622 C2616 1.383 . S
C2622 C2621 1.379 . S
H2623 C2617 0.959 . S
H2624 C2617 0.961 . S
H2625 C2617 0.960 . S
H2626 C2618 0.930 . S
H2627 C2619 0.929 . S
H2628 C2636 0.929 . S
H2629 C2638 0.930 . S
H2630 C2640 0.930 . S
H2631 C2643 0.929 . S
H2632 C2646 0.930 . S
H2633 C2648 0.960 . S
H2634 C2648 0.960 . S
H2635 C2648 0.960 . S
C2636 H2628 0.929 . S
C2636 C2637 1.377 . S
C2636 C2638 1.384 . S
C2637 C2636 1.377 . S
C2637 C2643 1.390 . S
C2638 H2629 0.930 . S
C2638 C2636 1.384 . S
C2638 C2639 1.372 . S
C2639 C2638 1.372 . S
C2639 C2640 1.400 . S
C2639 C2644 1.490 . S
C2640 H2630 0.930 . S
C2640 C2639 1.400 . S
C2640 C2643 1.386 . S
H2641 C2657 0.930 . S
H2642 C2658 0.931 . S
C2643 H2631 0.929 . S
C2643 C2637 1.390 . S
C2643 C2640 1.386 . S
C2644 C2639 1.490 . S
C2644 C2646 1.395 . S
C2644 C2647 1.403 . S
H2645 C2651 0.930 . S
C2646 H2632 0.930 . S
C2646 C2644 1.395 . S
C2646 C2649 1.403 . S
C2647 C2644 1.403 . S
C2647 C2648 1.524 . S
C2647 C2651 1.400 . S
C2648 H2633 0.960 . S
C2648 H2634 0.960 . S
C2648 H2635 0.960 . S
C2648 C2647 1.524 . S
C2649 C2646 1.403 . S
C2649 C2650 1.392 . S
C2649 C2653 1.495 . S
C2650 C2649 1.392 . S
C2650 C2651 1.385 . S
C2650 C2652 1.478 . S
C2651 H2645 0.930 . S
C2651 C2647 1.400 . S
C2651 C2650 1.385 . S
C2652 C2650 1.478 . S
C2652 C2654 1.381 . S
C2652 C2658 1.383 . S
C2653 C2649 1.495 . S
C2653 H2659 0.959 . S
C2653 H2660 0.961 . S
C2653 H2661 0.960 . S
C2654 C2652 1.381 . S
C2654 C2655 1.394 . S
C2654 H2662 0.930 . S
C2655 C2654 1.394 . S
C2655 C2656 1.383 . S
C2655 H2663 0.929 . S
C2656 C2655 1.383 . S
C2656 C2657 1.377 . S
C2657 H2641 0.930 . S
C2657 C2656 1.377 . S
C2657 C2658 1.379 . S
C2658 H2642 0.931 . S
C2658 C2652 1.383 . S
C2658 C2657 1.379 . S
H2659 C2653 0.959 . S
H2660 C2653 0.961 . S
H2661 C2653 0.960 . S
H2662 C2654 0.930 . S
H2663 C2655 0.929 . S
C729 C19 1.153 . S
C748 C95 1.176 . S
C765 C15 1.172 . S
C784 C59 1.153 . S
C801 C55 1.171 . S
C820 C99 1.126 . S
C837 C139 1.153 . S
C856 C175 1.177 . S
C873 C215 1.172 . S
C892 C179 1.161 . S
C909 C219 1.147 . S
C928 C135 1.168 . S
C945 C335 1.174 . S
C964 C259 1.173 . S
C981 C255 1.172 . S
C1000 C299 1.159 . S
C1017 C339 1.149 . S
C1036 C295 1.164 . S
C1053 C415 1.170 . S
C1072 C379 1.128 . S
C1089 C419 1.148 . S
C1108 C455 1.170 . S
C1125 C375 1.173 . S
C1144 C459 1.148 . S
C1161 C499 1.147 . S
C1180 C575 1.168 . S
C1197 C495 1.172 . S
C1216 C539 1.154 . S
C1233 C535 1.173 . S
C1252 C579 1.170 . S
C1269 C655 1.173 . S
C1288 C619 1.170 . S
C1305 C695 1.174 . S
C1324 C659 1.173 . S
C1341 C615 1.171 . S
C1360 C699 1.151 . S
C1377 C18 1.716 . S
C1396 C218 1.705 . S
C1413 C138 1.716 . S
C1432 C58 1.722 . S
C1449 C178 1.726 . S
C1468 C98 1.745 . S
C1485 C258 1.720 . S
C1504 C458 1.743 . S
C1521 C298 1.717 . S
C1540 C378 1.729 . S
C1557 C418 1.725 . S
C1576 C338 1.698 . S
C1593 C498 1.716 . S
C1612 C698 1.701 . S
C1629 C618 1.718 . S
C1648 C538 1.735 . S
C1665 C658 1.716 . S
C1684 C578 1.699 . S
C1701 C409 2.227 . S
C1720 C9 2.225 1_565 S
C1737 C49 2.229 . S
C1756 C449 2.223 . S
C1773 C369 2.228 . S
C1792 C89 2.223 . S
C1809 C129 2.228 1_655 S
C1828 C569 2.227 . S
C1845 C169 2.229 . S
C1864 C489 2.225 . S
C1881 C529 2.229 . S
C1900 C209 2.227 . S
C1917 C649 2.228 . S
C1936 C249 2.227 . S
C1953 C289 2.229 . S
C1972 C689 2.228 . S
C1989 C329 2.228 . S
C2008 C609 2.221 . S
C2025 C86 1.807 . S
C2044 C10 1.821 . S
C2061 C6 1.811 . S
C2080 C50 1.807 . S
C2097 C90 1.822 . S
C2116 C46 1.819 . S
C2133 C166 1.808 . S
C2152 C130 1.830 . S
C2169 C206 1.808 . S
C2188 C170 1.818 . S
C2205 C210 1.820 . S
C2224 C126 1.820 . S
C2241 C326 1.812 . S
C2260 C250 1.822 . S
C2277 C290 1.822 . S
C2296 C246 1.820 . S
C2313 C286 1.810 . S
C2332 C330 1.809 . S
C2349 C370 1.824 . S
C2368 C406 1.792 . S
C2385 C410 1.822 . S
C2404 C446 1.795 . S
C2421 C366 1.811 1_545 S
C2440 C450 1.826 . S
C2457 C490 1.820 . S
C2476 C566 1.810 . S
C2493 C530 1.822 . S
C2512 C486 1.796 1_455 S
C2529 C526 1.807 . S
C2548 C570 1.824 . S
C2565 C610 1.822 . S
C2584 C646 1.821 . S
C2601 C650 1.821 . S
C2620 C686 1.821 . S
C2637 C606 1.813 . S
C2656 C690 1.814 . S
