# Generated by pormake.
# Topology ukd, (4)-cn, num edge types: 1
# Building blocks:
#     Node 0, Type 0, BuildingBlock: TATPOV_clean_sbu_0, # of connection points: 4
#     Node 1, Type 0, BuildingBlock: TATPOV_clean_sbu_0, # of connection points: 4
#     Node 2, Type 0, BuildingBlock: TATPOV_clean_sbu_0, # of connection points: 4
#     Node 3, Type 0, BuildingBlock: TATPOV_clean_sbu_0, # of connection points: 4
#     Node 4, Type 0, BuildingBlock: TATPOV_clean_sbu_0, # of connection points: 4
#     Node 5, Type 0, BuildingBlock: TATPOV_clean_sbu_0, # of connection points: 4
#     Node 6, Type 0, BuildingBlock: TATPOV_clean_sbu_0, # of connection points: 4
#     Node 7, Type 0, BuildingBlock: TATPOV_clean_sbu_0, # of connection points: 4
#     Node 8, Type 0, BuildingBlock: TATPOV_clean_sbu_0, # of connection points: 4
#     Node 9, Type 0, BuildingBlock: TATPOV_clean_sbu_0, # of connection points: 4
#     Node 10, Type 0, BuildingBlock: TATPOV_clean_sbu_0, # of connection points: 4
#     Node 11, Type 0, BuildingBlock: TATPOV_clean_sbu_0, # of connection points: 4
#     Node 12, Type 0, BuildingBlock: TATPOV_clean_sbu_0, # of connection points: 4
#     Node 13, Type 0, BuildingBlock: TATPOV_clean_sbu_0, # of connection points: 4
#     Node 14, Type 0, BuildingBlock: TATPOV_clean_sbu_0, # of connection points: 4
#     Node 15, Type 0, BuildingBlock: TATPOV_clean_sbu_0, # of connection points: 4
#     Node 16, Type 0, BuildingBlock: TATPOV_clean_sbu_0, # of connection points: 4
#     Node 17, Type 0, BuildingBlock: TATPOV_clean_sbu_0, # of connection points: 4
#     Node 18, Type 0, BuildingBlock: TATPOV_clean_sbu_0, # of connection points: 4
#     Node 19, Type 0, BuildingBlock: TATPOV_clean_sbu_0, # of connection points: 4
#     Node 20, Type 0, BuildingBlock: TATPOV_clean_sbu_0, # of connection points: 4
#     Node 21, Type 0, BuildingBlock: TATPOV_clean_sbu_0, # of connection points: 4
#     Node 22, Type 0, BuildingBlock: TATPOV_clean_sbu_0, # of connection points: 4
#     Node 23, Type 0, BuildingBlock: TATPOV_clean_sbu_0, # of connection points: 4
#     Node 24, Type 0, BuildingBlock: TATPOV_clean_sbu_0, # of connection points: 4
#     Node 25, Type 0, BuildingBlock: TATPOV_clean_sbu_0, # of connection points: 4
#     Node 26, Type 0, BuildingBlock: TATPOV_clean_sbu_0, # of connection points: 4
#     Node 27, Type 0, BuildingBlock: TATPOV_clean_sbu_0, # of connection points: 4
#     Node 28, Type 0, BuildingBlock: TATPOV_clean_sbu_0, # of connection points: 4
#     Node 29, Type 0, BuildingBlock: TATPOV_clean_sbu_0, # of connection points: 4
#     Node 30, Type 0, BuildingBlock: TATPOV_clean_sbu_0, # of connection points: 4
#     Node 31, Type 0, BuildingBlock: TATPOV_clean_sbu_0, # of connection points: 4
#     Edge 32, Type (0, 0), BuildingBlock: TEMPAE_clean_linker_10, # of connection points: 2
#     Edge 33, Type (0, 0), BuildingBlock: TEMPAE_clean_linker_10, # of connection points: 2
#     Edge 34, Type (0, 0), BuildingBlock: TEMPAE_clean_linker_10, # of connection points: 2
#     Edge 35, Type (0, 0), BuildingBlock: TEMPAE_clean_linker_10, # of connection points: 2
#     Edge 36, Type (0, 0), BuildingBlock: TEMPAE_clean_linker_10, # of connection points: 2
#     Edge 37, Type (0, 0), BuildingBlock: TEMPAE_clean_linker_10, # of connection points: 2
#     Edge 38, Type (0, 0), BuildingBlock: TEMPAE_clean_linker_10, # of connection points: 2
#     Edge 39, Type (0, 0), BuildingBlock: TEMPAE_clean_linker_10, # of connection points: 2
#     Edge 40, Type (0, 0), BuildingBlock: TEMPAE_clean_linker_10, # of connection points: 2
#     Edge 41, Type (0, 0), BuildingBlock: TEMPAE_clean_linker_10, # of connection points: 2
#     Edge 42, Type (0, 0), BuildingBlock: TEMPAE_clean_linker_10, # of connection points: 2
#     Edge 43, Type (0, 0), BuildingBlock: TEMPAE_clean_linker_10, # of connection points: 2
#     Edge 44, Type (0, 0), BuildingBlock: TEMPAE_clean_linker_10, # of connection points: 2
#     Edge 45, Type (0, 0), BuildingBlock: TEMPAE_clean_linker_10, # of connection points: 2
#     Edge 46, Type (0, 0), BuildingBlock: TEMPAE_clean_linker_10, # of connection points: 2
#     Edge 47, Type (0, 0), BuildingBlock: TEMPAE_clean_linker_10, # of connection points: 2
#     Edge 48, Type (0, 0), BuildingBlock: TEMPAE_clean_linker_10, # of connection points: 2
#     Edge 49, Type (0, 0), BuildingBlock: TEMPAE_clean_linker_10, # of connection points: 2
#     Edge 50, Type (0, 0), BuildingBlock: TEMPAE_clean_linker_10, # of connection points: 2
#     Edge 51, Type (0, 0), BuildingBlock: TEMPAE_clean_linker_10, # of connection points: 2
#     Edge 52, Type (0, 0), BuildingBlock: TEMPAE_clean_linker_10, # of connection points: 2
#     Edge 53, Type (0, 0), BuildingBlock: TEMPAE_clean_linker_10, # of connection points: 2
#     Edge 54, Type (0, 0), BuildingBlock: TEMPAE_clean_linker_10, # of connection points: 2
#     Edge 55, Type (0, 0), BuildingBlock: TEMPAE_clean_linker_10, # of connection points: 2
#     Edge 56, Type (0, 0), BuildingBlock: TEMPAE_clean_linker_10, # of connection points: 2
#     Edge 57, Type (0, 0), BuildingBlock: TEMPAE_clean_linker_10, # of connection points: 2
#     Edge 58, Type (0, 0), BuildingBlock: TEMPAE_clean_linker_10, # of connection points: 2
#     Edge 59, Type (0, 0), BuildingBlock: TEMPAE_clean_linker_10, # of connection points: 2
#     Edge 60, Type (0, 0), BuildingBlock: TEMPAE_clean_linker_10, # of connection points: 2
#     Edge 61, Type (0, 0), BuildingBlock: TEMPAE_clean_linker_10, # of connection points: 2
#     Edge 62, Type (0, 0), BuildingBlock: TEMPAE_clean_linker_10, # of connection points: 2
#     Edge 63, Type (0, 0), BuildingBlock: TEMPAE_clean_linker_10, # of connection points: 2
#     Edge 64, Type (0, 0), BuildingBlock: TEMPAE_clean_linker_10, # of connection points: 2
#     Edge 65, Type (0, 0), BuildingBlock: TEMPAE_clean_linker_10, # of connection points: 2
#     Edge 66, Type (0, 0), BuildingBlock: TEMPAE_clean_linker_10, # of connection points: 2
#     Edge 67, Type (0, 0), BuildingBlock: TEMPAE_clean_linker_10, # of connection points: 2
#     Edge 68, Type (0, 0), BuildingBlock: TEMPAE_clean_linker_10, # of connection points: 2
#     Edge 69, Type (0, 0), BuildingBlock: TEMPAE_clean_linker_10, # of connection points: 2
#     Edge 70, Type (0, 0), BuildingBlock: TEMPAE_clean_linker_10, # of connection points: 2
#     Edge 71, Type (0, 0), BuildingBlock: TEMPAE_clean_linker_10, # of connection points: 2
#     Edge 72, Type (0, 0), BuildingBlock: TEMPAE_clean_linker_10, # of connection points: 2
#     Edge 73, Type (0, 0), BuildingBlock: TEMPAE_clean_linker_10, # of connection points: 2
#     Edge 74, Type (0, 0), BuildingBlock: TEMPAE_clean_linker_10, # of connection points: 2
#     Edge 75, Type (0, 0), BuildingBlock: TEMPAE_clean_linker_10, # of connection points: 2
#     Edge 76, Type (0, 0), BuildingBlock: TEMPAE_clean_linker_10, # of connection points: 2
#     Edge 77, Type (0, 0), BuildingBlock: TEMPAE_clean_linker_10, # of connection points: 2
#     Edge 78, Type (0, 0), BuildingBlock: TEMPAE_clean_linker_10, # of connection points: 2
#     Edge 79, Type (0, 0), BuildingBlock: TEMPAE_clean_linker_10, # of connection points: 2
#     Edge 80, Type (0, 0), BuildingBlock: TEMPAE_clean_linker_10, # of connection points: 2
#     Edge 81, Type (0, 0), BuildingBlock: TEMPAE_clean_linker_10, # of connection points: 2
#     Edge 82, Type (0, 0), BuildingBlock: TEMPAE_clean_linker_10, # of connection points: 2
#     Edge 83, Type (0, 0), BuildingBlock: TEMPAE_clean_linker_10, # of connection points: 2
#     Edge 84, Type (0, 0), BuildingBlock: TEMPAE_clean_linker_10, # of connection points: 2
#     Edge 85, Type (0, 0), BuildingBlock: TEMPAE_clean_linker_10, # of connection points: 2
#     Edge 86, Type (0, 0), BuildingBlock: TEMPAE_clean_linker_10, # of connection points: 2
#     Edge 87, Type (0, 0), BuildingBlock: TEMPAE_clean_linker_10, # of connection points: 2
#     Edge 88, Type (0, 0), BuildingBlock: TEMPAE_clean_linker_10, # of connection points: 2
#     Edge 89, Type (0, 0), BuildingBlock: TEMPAE_clean_linker_10, # of connection points: 2
#     Edge 90, Type (0, 0), BuildingBlock: TEMPAE_clean_linker_10, # of connection points: 2
#     Edge 91, Type (0, 0), BuildingBlock: TEMPAE_clean_linker_10, # of connection points: 2
#     Edge 92, Type (0, 0), BuildingBlock: TEMPAE_clean_linker_10, # of connection points: 2
#     Edge 93, Type (0, 0), BuildingBlock: TEMPAE_clean_linker_10, # of connection points: 2
#     Edge 94, Type (0, 0), BuildingBlock: TEMPAE_clean_linker_10, # of connection points: 2
#     Edge 95, Type (0, 0), BuildingBlock: TEMPAE_clean_linker_10, # of connection points: 2
# Relax obj value: 0.129
# Max RMSD: 0.184
# Mean RMSD: 0.177
data_MOF--net-ukd--node1-TATPOV_clean_sbu_0--edge1-TEMPAE_clean_linker_10
_symmetry_space_group_name_H-M    P1
_symmetry_Int_Tables_number       1
_symmetry_cell_setting            triclinic
loop_
_symmetry_equiv_pos_as_xyz
'x, y, z'
_cell_length_a     43.692403
_cell_length_b     42.938771
_cell_length_c     77.661393
_cell_angle_alpha  89.980736
_cell_angle_beta   90.015482
_cell_angle_gamma 89.988346
loop_
_atom_site_label
_atom_site_type_symbol
_atom_site_fract_x
_atom_site_fract_y
_atom_site_fract_z
_atom_type_partial_charge
Zn0 Zn 0.11131 0.23143 0.32692 0.0
Zn1 Zn 0.16527 0.21476 0.34161 0.0
O2 O 0.13629 0.17817 0.34627 0.0
O3 O 0.09198 0.19113 0.3349 0.0
O4 O 0.20494 0.19807 0.35076 0.0
O5 O 0.13185 0.23465 0.30359 0.0
O6 O 0.1757 0.22541 0.31666 0.0
C7 C 0.10832 0.17195 0.34321 0.0
C8 C 0.13346 0.27223 0.35479 0.0
O9 O 0.15561 0.2531 0.35594 0.0
O10 O 0.11272 0.2682 0.34354 0.0
C11 C 0.22771 0.21376 0.35608 0.0
O12 O 0.22623 0.24432 0.35616 0.0
C13 C 0.16071 0.23223 0.30311 0.0
Zn14 Zn 0.06742 0.99532 0.66101 0.0
Zn15 Zn 0.06595 0.99593 0.62618 0.0
O16 O 0.02154 0.99775 0.63428 0.0
O17 O 0.02109 -0.00127 0.66251 0.0
O18 O 0.05911 0.9948 0.60065 0.0
O19 O 0.0945 0.0333 0.65963 0.0
O20 O 0.09382 0.03345 0.63125 0.0
C21 C 0.00672 -0.00138 0.64835 0.0
C22 C 0.09371 0.94033 0.64478 0.0
O23 O 0.08667 0.95436 0.63091 0.0
O24 O 0.08772 0.95264 0.65924 0.0
C25 C 0.04108 0.9734 0.59557 0.0
O26 O 0.03059 0.95327 0.60687 0.0
C27 C 0.10322 0.04491 0.64545 0.0
Zn28 Zn 0.40705 0.75854 0.82297 0.0
Zn29 Zn 0.35209 0.78519 0.8307 0.0
O30 O 0.38337 0.81889 0.83678 0.0
O31 O 0.42806 0.79897 0.82978 0.0
O32 O 0.31206 0.80608 0.83612 0.0
O33 O 0.39175 0.75036 0.79873 0.0
O34 O 0.34806 0.77302 0.80536 0.0
C35 C 0.41236 0.82129 0.83579 0.0
C36 C 0.37286 0.72696 0.84992 0.0
O37 O 0.35303 0.74801 0.84702 0.0
O38 O 0.39781 0.72663 0.84158 0.0
C39 C 0.28809 0.79144 0.84069 0.0
O40 O 0.28879 0.76091 0.84171 0.0
C41 C 0.36508 0.75905 0.79451 0.0
Zn42 Zn 0.42041 0.98071 0.144 0.0
Zn43 Zn 0.42456 0.98394 0.10926 0.0
O44 O 0.46834 0.98658 0.11863 0.0
O45 O 0.46637 0.98223 0.1468 0.0
O46 O 0.43321 0.98959 0.08409 0.0
O47 O 0.39936 0.93949 0.1406 0.0
O48 O 0.40126 0.94262 0.11227 0.0
C49 C 0.48182 0.98553 0.13314 0.0
C50 C 0.38911 0.03381 0.1287 0.0
O51 O 0.39851 0.02179 0.11471 0.0
O52 O 0.3956 0.02107 0.14298 0.0
C53 C 0.44675 0.01501 0.08044 0.0
O54 O 0.4518 0.03524 0.09281 0.0
C55 C 0.39324 0.92823 0.12592 0.0
Zn56 Zn 0.09602 0.76732 0.17057 0.0
Zn57 Zn 0.15099 0.79137 0.15993 0.0
O58 O 0.11993 0.82473 0.15321 0.0
O59 O 0.07546 0.8072 0.1623 0.0
O60 O 0.1908 0.81005 0.15204 0.0
O61 O 0.11415 0.76268 0.19453 0.0
O62 O 0.15741 0.7836 0.18557 0.0
C63 C 0.09114 0.82808 0.15485 0.0
C64 C 0.12699 0.73057 0.14456 0.0
O65 O 0.14738 0.75155 0.14587 0.0
O66 O 0.10271 0.73221 0.15345 0.0
C67 C 0.21276 0.79443 0.14563 0.0
O68 O 0.21025 0.76406 0.14427 0.0
C69 C 0.14128 0.77161 0.19751 0.0
Zn70 Zn 0.43611 0.02511 0.3444 0.0
Zn71 Zn 0.43993 0.01911 0.37915 0.0
O72 O 0.48393 0.01692 0.37053 0.0
O73 O 0.48246 0.02302 0.34245 0.0
O74 O 0.4463 0.01177 0.40439 0.0
O75 O 0.41483 0.06622 0.34867 0.0
O76 O 0.41713 0.06077 0.37686 0.0
C77 C 0.49767 0.01872 0.35613 0.0
C78 C 0.40469 0.97084 0.35806 0.0
O79 O 0.41421 0.98169 0.37231 0.0
O80 O 0.41092 0.98486 0.3441 0.0
C81 C 0.45575 0.98485 0.40876 0.0
O82 O 0.46003 0.96364 0.39681 0.0
C83 C 0.40887 0.07629 0.36365 0.0
Zn84 Zn 0.39946 0.22488 0.67869 0.0
Zn85 Zn 0.34192 0.20302 0.67094 0.0
O86 O 0.36939 0.16479 0.66834 0.0
O87 O 0.41605 0.18129 0.67401 0.0
O88 O 0.29998 0.187 0.66489 0.0
O89 O 0.38289 0.23775 0.70216 0.0
O90 O 0.33746 0.21887 0.69546 0.0
C91 C 0.39792 0.15953 0.6698 0.0
C92 C 0.37038 0.25601 0.64987 0.0
O93 O 0.34842 0.23749 0.65317 0.0
O94 O 0.39475 0.25501 0.65872 0.0
C95 C 0.29679 0.16733 0.65279 0.0
O96 O 0.32106 0.15765 0.64436 0.0
C97 C 0.35525 0.23231 0.7061 0.0
Zn98 Zn 0.08378 0.98748 0.8361 0.0
Zn99 Zn 0.07603 0.98642 0.87074 0.0
O100 O 0.03335 0.9905 0.86018 0.0
O101 O 0.03805 0.99061 0.83203 0.0
O102 O 0.06518 0.98805 0.89584 0.0
O103 O 0.10426 0.94557 0.83841 0.0
O104 O 0.0999 0.94573 0.86669 0.0
C105 C 0.02128 0.99208 0.8453 0.0
C106 C 0.11318 0.03861 0.85449 0.0
O107 O 0.10194 0.02525 0.86766 0.0
O108 O 0.10886 0.0272 0.83962 0.0
C109 C 0.04943 0.01168 0.90026 0.0
O110 O 0.04329 0.03311 0.88868 0.0
C111 C 0.10918 0.93279 0.85286 0.0
Zn112 Zn 0.83096 0.79762 0.68185 0.0
Zn113 Zn 0.7874 0.80947 0.6589 0.0
O114 O 0.81669 0.84786 0.65762 0.0
O115 O 0.85256 0.83699 0.67662 0.0
O116 O 0.75166 0.82195 0.64384 0.0
O117 O 0.80103 0.79487 0.70133 0.0
O118 O 0.76507 0.80098 0.68177 0.0
C119 C 0.8416 0.85489 0.66526 0.0
C120 C 0.8275 0.75245 0.65414 0.0
O121 O 0.80533 0.76901 0.6486 0.0
O122 O 0.84149 0.75992 0.66781 0.0
C123 C 0.7536 0.84049 0.63112 0.0
O124 O 0.78066 0.85069 0.62637 0.0
C125 C 0.77301 0.7961 0.69732 0.0
Zn126 Zn 0.95738 0.07926 0.45929 0.0
Zn127 Zn 0.93811 0.02888 0.44347 0.0
O128 O 0.90689 0.06383 0.43816 0.0
O129 O 0.9217 0.10538 0.45233 0.0
O130 O 0.9172 0.99181 0.43267 0.0
O131 O 0.95818 0.05851 0.48212 0.0
O132 O 0.94664 0.0149 0.46868 0.0
C133 C 0.90316 0.0924 0.44211 0.0
C134 C 0.99673 0.05795 0.43114 0.0
O135 O 0.97688 0.03647 0.42928 0.0
O136 O 0.99385 0.07765 0.4432 0.0
C137 C 0.90728 0.99462 0.41735 0.0
O138 O 0.91312 0.02045 0.40889 0.0
C139 C 0.9536 0.02946 0.48245 0.0
Zn140 Zn 0.66311 0.17621 0.18393 0.0
Zn141 Zn 0.70427 0.16689 0.15921 0.0
O142 O 0.67387 0.12965 0.1575 0.0
O143 O 0.64036 0.13768 0.17818 0.0
O144 O 0.73749 0.15525 0.14232 0.0
O145 O 0.69532 0.17659 0.20234 0.0
O146 O 0.72918 0.17269 0.18147 0.0
C147 C 0.6498 0.12156 0.16564 0.0
C148 C 0.66495 0.22474 0.15774 0.0
O149 O 0.68637 0.20865 0.15101 0.0
O150 O 0.65191 0.21568 0.17143 0.0
C151 C 0.73222 0.13988 0.12865 0.0
O152 O 0.70379 0.13314 0.12458 0.0
C153 C 0.72288 0.17586 0.19739 0.0
Zn154 Zn 0.56233 0.93421 0.95146 0.0
Zn155 Zn 0.57721 0.98451 0.93424 0.0
O156 O 0.6126 0.95288 0.93163 0.0
O157 O 0.6016 0.91198 0.94735 0.0
O158 O 0.59562 0.02162 0.9221 0.0
O159 O 0.55628 0.95775 0.97307 0.0
O160 O 0.56421 0.00096 0.95841 0.0
C161 C 0.61947 0.92577 0.93708 0.0
C162 C 0.52405 0.9466 0.92129 0.0
O163 O 0.54119 0.97033 0.91926 0.0
O164 O 0.52804 0.92874 0.93411 0.0
C165 C 0.60657 0.01675 0.90717 0.0
O166 O 0.60273 0.98921 0.90011 0.0
C167 C 0.55745 0.98712 0.97245 0.0
Zn168 Zn 0.84995 0.20433 0.81014 0.0
Zn169 Zn 0.80268 0.18394 0.82804 0.0
O170 O 0.83426 0.14783 0.82906 0.0
O171 O 0.87163 0.1637 0.81221 0.0
O172 O 0.76666 0.16656 0.84121 0.0
O173 O 0.82259 0.21449 0.79014 0.0
O174 O 0.78419 0.19299 0.80418 0.0
C175 C 0.86016 0.14317 0.82194 0.0
C176 C 0.83815 0.2417 0.83971 0.0
O177 O 0.81467 0.22422 0.84117 0.0
O178 O 0.85759 0.23676 0.82796 0.0
C179 C 0.77056 0.15166 0.85518 0.0
O180 O 0.7984 0.1487 0.86137 0.0
C181 C 0.79481 0.20629 0.79078 0.0
Zn182 Zn 0.49255 0.03246 0.55431 0.0
Zn183 Zn 0.52552 0.98764 0.56797 0.0
O184 O 0.55399 0.02548 0.56782 0.0
O185 O 0.52815 0.06236 0.55468 0.0
O186 O 0.55378 0.95438 0.57725 0.0
O187 O 0.48217 0.00749 0.53378 0.0
O188 O 0.51267 0.97081 0.54382 0.0
C189 C 0.55224 0.0533 0.56224 0.0
C190 C 0.46974 0.01299 0.5872 0.0
O191 O 0.49208 0.99384 0.58672 0.0
O192 O 0.46499 0.03117 0.57465 0.0
C193 C 0.56879 0.9602 0.5909 0.0
O194 O 0.56366 0.98655 0.59902 0.0
C195 C 0.49477 0.98119 0.53217 0.0
Zn196 Zn 0.67276 0.81658 0.31324 0.0
Zn197 Zn 0.71514 0.82871 0.33688 0.0
O198 O 0.68544 0.86669 0.33721 0.0
O199 O 0.65088 0.85623 0.31743 0.0
O200 O 0.74878 0.84227 0.35308 0.0
O201 O 0.70432 0.81332 0.29462 0.0
O202 O 0.73939 0.82019 0.31463 0.0
C203 C 0.6612 0.87404 0.329 0.0
C204 C 0.67472 0.77197 0.34135 0.0
O205 O 0.69689 0.78836 0.34701 0.0
O206 O 0.6612 0.77939 0.32752 0.0
C207 C 0.74347 0.85879 0.36633 0.0
O208 O 0.71498 0.8653 0.37037 0.0
C209 C 0.73215 0.81493 0.29901 0.0
Zn210 Zn 0.94308 0.92203 0.0343 0.0
Zn211 Zn 0.9266 0.97442 0.04937 0.0
O212 O 0.89238 0.94219 0.05361 0.0
O213 O 0.90448 0.89934 0.03986 0.0
O214 O 0.90718 0.01247 0.06001 0.0
O215 O 0.94807 0.94292 0.01167 0.0
O216 O 0.93863 0.98769 0.0245 0.0
C217 C 0.88636 0.9141 0.04957 0.0
C218 C 0.981 0.94021 0.06376 0.0
O219 O 0.96314 0.9636 0.06474 0.0
O220 O 0.9776 0.92043 0.05178 0.0
C221 C 0.89733 0.00925 0.07532 0.0
O222 O 0.90288 0.983 0.08345 0.0
C223 C 0.94582 0.97224 0.01106 0.0
Zn224 Zn 0.6059 0.73432 0.82651 0.0
Zn225 Zn 0.66124 0.70851 0.83479 0.0
O226 O 0.63012 0.6757 0.84234 0.0
O227 O 0.5852 0.69482 0.83511 0.0
O228 O 0.70132 0.68837 0.84099 0.0
O229 O 0.62099 0.73918 0.80195 0.0
O230 O 0.66473 0.71698 0.80902 0.0
C231 C 0.60111 0.67321 0.84172 0.0
C232 C 0.64094 0.76949 0.85156 0.0
O233 O 0.66058 0.74801 0.84933 0.0
O234 O 0.6156 0.76871 0.84361 0.0
C235 C 0.72459 0.70315 0.84646 0.0
O236 O 0.72335 0.73361 0.84785 0.0
C237 C 0.64745 0.72969 0.79783 0.0
Zn238 Zn 0.5705 0.49798 0.16298 0.0
Zn239 Zn 0.56621 0.49894 0.12811 0.0
O240 O 0.52242 0.49906 0.13715 0.0
O241 O 0.52414 0.49985 0.16539 0.0
O242 O 0.55826 0.49781 0.10271 0.0
O243 O 0.59649 0.53676 0.16103 0.0
O244 O 0.59312 0.53723 0.13271 0.0
C245 C 0.5087 0.49923 0.15158 0.0
C246 C 0.59663 0.44385 0.14583 0.0
O247 O 0.58824 0.45799 0.13225 0.0
O248 O 0.59159 0.45577 0.1605 0.0
C249 C 0.54093 0.4758 0.09765 0.0
O250 O 0.53116 0.45531 0.10896 0.0
C251 C 0.60347 0.54882 0.14666 0.0
Zn252 Zn 0.8953 0.2698 0.31906 0.0
Zn253 Zn 0.83863 0.29235 0.32774 0.0
O254 O 0.86681 0.33032 0.32983 0.0
O255 O 0.91276 0.3131 0.32311 0.0
O256 O 0.79709 0.30887 0.33442 0.0
O257 O 0.87757 0.25651 0.29603 0.0
O258 O 0.83263 0.2758 0.30336 0.0
C259 C 0.89532 0.33514 0.32776 0.0
C260 C 0.86783 0.23947 0.34858 0.0
O261 O 0.84582 0.25814 0.3456 0.0
O262 O 0.89163 0.2401 0.33926 0.0
C263 C 0.7946 0.32916 0.34626 0.0
O264 O 0.81935 0.33937 0.35403 0.0
C265 C 0.84974 0.26191 0.29253 0.0
Zn266 Zn 0.93201 0.48292 0.64754 0.0
Zn267 Zn 0.93749 0.4883 0.61298 0.0
O268 O 0.98115 0.48889 0.62236 0.0
O269 O 0.97828 0.48166 0.65031 0.0
O270 O 0.94551 0.49432 0.5878 0.0
O271 O 0.90732 0.44393 0.64328 0.0
O272 O 0.91216 0.44811 0.61513 0.0
C273 C 0.99422 0.48595 0.6369 0.0
C274 C 0.90394 0.5386 0.63325 0.0
O275 O 0.91305 0.52703 0.61909 0.0
O276 O 0.90957 0.52469 0.64732 0.0
C277 C 0.95678 0.52036 0.58321 0.0
O278 O 0.9616 0.54189 0.59492 0.0
C279 C 0.9015 0.43396 0.62827 0.0
Zn280 Zn 0.61629 0.26123 0.66452 0.0
Zn281 Zn 0.66963 0.27489 0.64806 0.0
O282 O 0.64246 0.31348 0.64439 0.0
O283 O 0.59881 0.30267 0.65716 0.0
O284 O 0.7102 0.28733 0.63778 0.0
O285 O 0.63862 0.25666 0.68718 0.0
O286 O 0.68153 0.26357 0.67277 0.0
C287 C 0.61518 0.32109 0.64836 0.0
C288 C 0.63267 0.2197 0.63589 0.0
O289 O 0.6557 0.23753 0.63403 0.0
O290 O 0.61359 0.2246 0.64791 0.0
C291 C 0.71242 0.30708 0.62565 0.0
O292 O 0.68743 0.31882 0.61884 0.0
C293 C 0.66756 0.25756 0.68677 0.0
Zn294 Zn 0.93041 0.50996 0.84758 0.0
Zn295 Zn 0.93102 0.50674 0.88244 0.0
O296 O 0.97563 0.50353 0.87465 0.0
O297 O 0.97663 0.50738 0.84646 0.0
O298 O 0.93669 0.501 0.90787 0.0
O299 O 0.90952 0.55155 0.8503 0.0
O300 O 0.90866 0.54833 0.87864 0.0
C301 C 0.99062 0.50404 0.86062 0.0
C302 C 0.89703 0.45729 0.86185 0.0
O303 O 0.90525 0.46917 0.8761 0.0
O304 O 0.90493 0.47 0.84779 0.0
C305 C 0.9494 0.4754 0.91207 0.0
O306 O 0.95578 0.45507 0.89994 0.0
C307 C 0.90209 0.56285 0.86479 0.0
Zn308 Zn 0.89536 0.74059 0.17032 0.0
Zn309 Zn 0.83894 0.7157 0.16358 0.0
O310 O 0.8686 0.68052 0.15751 0.0
O311 O 0.91434 0.69919 0.16333 0.0
O312 O 0.79733 0.69749 0.15891 0.0
O313 O 0.88161 0.74937 0.19481 0.0
O314 O 0.83699 0.7279 0.18893 0.0
C315 C 0.89753 0.67716 0.15798 0.0
C316 C 0.86079 0.77295 0.14379 0.0
O317 O 0.84045 0.75261 0.14709 0.0
O318 O 0.88612 0.77258 0.15176 0.0
C319 C 0.79319 0.6781 0.14677 0.0
O320 O 0.81648 0.66974 0.13713 0.0
C321 C 0.85501 0.74126 0.19949 0.0
Zn322 Zn 0.57006 0.50493 0.34027 0.0
Zn323 Zn 0.56663 0.50338 0.37483 0.0
O324 O 0.52264 0.50515 0.36571 0.0
O325 O 0.52398 0.50419 0.33748 0.0
O326 O 0.55805 0.50358 0.40025 0.0
O327 O 0.59491 0.46558 0.34134 0.0
O328 O 0.59312 0.46457 0.36968 0.0
C329 C 0.50874 0.50538 0.35132 0.0
C330 C 0.59841 0.55787 0.35754 0.0
O331 O 0.58998 0.54387 0.37117 0.0
O332 O 0.5924 0.54632 0.34289 0.0
C333 C 0.54122 0.52595 0.40538 0.0
O334 O 0.53296 0.54745 0.39427 0.0
C335 C 0.60257 0.4531 0.35548 0.0
Zn336 Zn 0.33821 0.28685 0.17837 0.0
Zn337 Zn 0.29114 0.30639 0.16027 0.0
O338 O 0.32154 0.34367 0.15966 0.0
O339 O 0.35873 0.3281 0.17674 0.0
O340 O 0.2549 0.32197 0.14661 0.0
O341 O 0.31062 0.27547 0.19804 0.0
O342 O 0.27217 0.29685 0.18397 0.0
C343 C 0.34711 0.34868 0.1671 0.0
C344 C 0.32862 0.24952 0.14879 0.0
O345 O 0.30475 0.26643 0.14727 0.0
O346 O 0.34774 0.25487 0.16065 0.0
C347 C 0.25854 0.33663 0.13254 0.0
O348 O 0.28643 0.34112 0.12671 0.0
C349 C 0.28275 0.28333 0.19731 0.0
Zn350 Zn 0.45292 0.57578 0.96023 0.0
Zn351 Zn 0.43607 0.52379 0.94496 0.0
O352 O 0.40231 0.55623 0.94009 0.0
O353 O 0.41494 0.59893 0.95385 0.0
O354 O 0.41699 0.48533 0.93463 0.0
O355 O 0.45636 0.55532 0.98305 0.0
O356 O 0.44647 0.51082 0.97009 0.0
C357 C 0.3968 0.5845 0.944 0.0
C358 C 0.49176 0.55694 0.93135 0.0
O359 O 0.47336 0.53404 0.93 0.0
O360 O 0.48837 0.57659 0.94339 0.0
C361 C 0.40624 0.48741 0.91946 0.0
O362 O 0.41043 0.51338 0.91081 0.0
C363 C 0.4533 0.52609 0.98364 0.0
Zn364 Zn 0.17492 0.67792 0.68646 0.0
Zn365 Zn 0.21483 0.66892 0.66114 0.0
O366 O 0.18553 0.6305 0.66059 0.0
O367 O 0.15322 0.63827 0.68189 0.0
O368 O 0.24706 0.65798 0.6434 0.0
O369 O 0.20822 0.68052 0.70413 0.0
O370 O 0.24117 0.67638 0.68281 0.0
C371 C 0.16233 0.62193 0.66937 0.0
C372 C 0.1729 0.72514 0.65971 0.0
O373 O 0.19469 0.70971 0.65286 0.0
O374 O 0.16099 0.71618 0.67373 0.0
C375 C 0.24101 0.64189 0.63008 0.0
O376 O 0.21254 0.63364 0.62712 0.0
C377 C 0.23555 0.68023 0.69877 0.0
Zn378 Zn 0.00987 0.46089 0.44048 0.0
Zn379 Zn 0.03906 0.50637 0.42511 0.0
O380 O 0.06874 0.4692 0.42445 0.0
O381 O 0.046 0.43207 0.43909 0.0
O382 O 0.06525 0.54065 0.41508 0.0
O383 O 0.00112 0.48564 0.46129 0.0
O384 O 0.02729 0.52385 0.4493 0.0
C385 C 0.06866 0.44155 0.4304 0.0
C386 C 0.9822 0.47887 0.40827 0.0
O387 O 0.00385 0.49882 0.40761 0.0
O388 O 0.97989 0.46091 0.42113 0.0
C389 C 0.08054 0.53564 0.40143 0.0
O390 O 0.07713 0.50889 0.39343 0.0
C391 C 0.01185 0.5129 0.46186 0.0
Zn392 Zn 0.33421 0.70871 0.31032 0.0
Zn393 Zn 0.29122 0.6975 0.33398 0.0
O394 O 0.32123 0.65982 0.33548 0.0
O395 O 0.35662 0.66984 0.31608 0.0
O396 O 0.25607 0.6845 0.34936 0.0
O397 O 0.30333 0.70991 0.29114 0.0
O398 O 0.26822 0.70468 0.31125 0.0
C399 C 0.34603 0.65251 0.32781 0.0
C400 C 0.33017 0.75553 0.33742 0.0
O401 O 0.30852 0.73885 0.34348 0.0
O402 O 0.344 0.74744 0.3238 0.0
C403 C 0.25879 0.66584 0.36199 0.0
O404 O 0.28624 0.65645 0.36656 0.0
C405 C 0.27548 0.70878 0.29553 0.0
Zn406 Zn 0.04149 0.55698 0.04509 0.0
Zn407 Zn 0.05897 0.5084 0.06326 0.0
O408 O 0.09223 0.54221 0.06595 0.0
O409 O 0.07886 0.58197 0.04987 0.0
O410 O 0.07912 0.47364 0.07668 0.0
O411 O 0.03889 0.53229 0.02368 0.0
O412 O 0.04877 0.49024 0.039 0.0
C413 C 0.09736 0.56964 0.06036 0.0
C414 C 0.00258 0.54342 0.07467 0.0
O415 O 0.02135 0.52122 0.0774 0.0
O416 O 0.00576 0.56066 0.06153 0.0
C417 C 0.08793 0.44759 0.07066 0.0
O418 O 0.08151 0.44042 0.05463 0.0
C419 C 0.04219 0.50314 0.02467 0.0
Zn420 Zn 0.1721 0.30661 0.81853 0.0
Zn421 Zn 0.21403 0.31791 0.84258 0.0
O422 O 0.18246 0.35414 0.84454 0.0
O423 O 0.14783 0.34393 0.82474 0.0
O424 O 0.24767 0.33111 0.85885 0.0
O425 O 0.20339 0.30815 0.79964 0.0
O426 O 0.23809 0.31336 0.81998 0.0
C427 C 0.15751 0.36091 0.83686 0.0
C428 C 0.17751 0.25813 0.84455 0.0
O429 O 0.19834 0.27529 0.85106 0.0
O430 O 0.16353 0.26657 0.83103 0.0
C431 C 0.24276 0.34729 0.87227 0.0
O432 O 0.2144 0.35363 0.87668 0.0
C433 C 0.23113 0.31015 0.80415 0.0
Zn434 Zn 0.45106 0.42079 0.53861 0.0
Zn435 Zn 0.43528 0.47022 0.5563 0.0
O436 O 0.40442 0.43498 0.56187 0.0
O437 O 0.41583 0.39449 0.5459 0.0
O438 O 0.41542 0.50586 0.56925 0.0
O439 O 0.45016 0.44315 0.51628 0.0
O440 O 0.44223 0.48602 0.53118 0.0
C441 C 0.39924 0.40694 0.5573 0.0
C442 C 0.49437 0.43896 0.56572 0.0
O443 O 0.4755 0.46089 0.56883 0.0
O444 O 0.48929 0.42019 0.55343 0.0
C445 C 0.40369 0.53003 0.56244 0.0
O446 O 0.4064 0.53439 0.54577 0.0
C447 C 0.44709 0.47238 0.51683 0.0
C448 C 0.11117 0.42648 0.41056 0.0
C449 C 0.09129 0.41859 0.42407 0.0
C450 C 0.12525 0.40324 0.40063 0.0
C451 C 0.1192 0.37157 0.40435 0.0
C452 C 0.10246 0.36362 0.41931 0.0
C453 C 0.0888 0.38729 0.42906 0.0
C454 C 0.14367 0.41267 0.38504 0.0
C455 C 0.0958 0.33012 0.42388 0.0
C456 C 0.10496 0.31766 0.36671 0.0
C457 C 0.13111 0.29876 0.36689 0.0
C458 C 0.10129 0.34182 0.37861 0.0
C459 C 0.1245 0.34747 0.39097 0.0
C460 C 0.15144 0.32919 0.39091 0.0
C461 C 0.15438 0.30487 0.37891 0.0
C462 C 0.07212 0.36078 0.37821 0.0
C463 C 0.17677 0.3348 0.40376 0.0
H464 H 0.1137 0.45064 0.40677 0.0
H465 H 0.07399 0.38098 0.4397 0.0
H466 H 0.1637 0.39712 0.38328 0.0
H467 H 0.12914 0.41067 0.37337 0.0
H468 H 0.15181 0.43712 0.38602 0.0
H469 H 0.08729 0.32773 0.4373 0.0
H470 H 0.07804 0.32091 0.41503 0.0
H471 H 0.11653 0.31548 0.42236 0.0
H472 H 0.08688 0.3132 0.35745 0.0
H473 H 0.17473 0.29049 0.37908 0.0
H474 H 0.07756 0.38587 0.37675 0.0
H475 H 0.0596 0.35796 0.39055 0.0
H476 H 0.05665 0.35381 0.36753 0.0
H477 H 0.18246 0.35995 0.40444 0.0
H478 H 0.19785 0.32158 0.4005 0.0
H479 H 0.16907 0.32756 0.41676 0.0
C480 C 0.95655 0.99303 0.66354 0.0
C481 C 0.97328 0.99293 0.64814 0.0
C482 C 0.92811 0.97798 0.66457 0.0
C483 C 0.9167 0.96197 0.64998 0.0
C484 C 0.93121 0.96596 0.63385 0.0
C485 C 0.95933 0.98164 0.63309 0.0
C486 C 0.91247 0.9756 0.68183 0.0
C487 C 0.91952 0.94989 0.61787 0.0
C488 C 0.89163 0.88044 0.66125 0.0
C489 C 0.85972 0.88237 0.66018 0.0
C490 C 0.91014 0.90598 0.65741 0.0
C491 C 0.89641 0.93462 0.65267 0.0
C492 C 0.86412 0.93666 0.65116 0.0
C493 C 0.84605 0.91027 0.65481 0.0
C494 C 0.9445 0.90229 0.65877 0.0
C495 C 0.84857 0.96682 0.64641 0.0
H496 H 0.96674 0.00254 0.67513 0.0
H497 H 0.97171 0.98212 0.62099 0.0
H498 H 0.88723 0.97656 0.68034 0.0
H499 H 0.91836 0.95294 0.68787 0.0
H500 H 0.91985 0.99451 0.69066 0.0
H501 H 0.92885 0.9607 0.60598 0.0
H502 H 0.92675 0.9251 0.61813 0.0
H503 H 0.89416 0.95044 0.61732 0.0
H504 H 0.90228 0.85871 0.66511 0.0
H505 H 0.82132 0.91175 0.65402 0.0
H506 H 0.95348 0.91752 0.66914 0.0
H507 H 0.95562 0.90943 0.64655 0.0
H508 H 0.95141 0.87794 0.66167 0.0
H509 H 0.84698 0.98175 0.65804 0.0
H510 H 0.82501 0.9628 0.64151 0.0
H511 H 0.86178 0.97984 0.63657 0.0
C512 C 0.36246 0.58984 0.91848 0.0
C513 C 0.37481 0.60273 0.93358 0.0
C514 C 0.3528 0.60914 0.90495 0.0
C515 C 0.35577 0.64181 0.90665 0.0
C516 C 0.36331 0.65476 0.92285 0.0
C517 C 0.37251 0.63497 0.93623 0.0
C518 C 0.34324 0.5945 0.88813 0.0
C519 C 0.36596 0.68951 0.92537 0.0
C520 C 0.39177 0.6852 0.86947 0.0
C521 C 0.36743 0.70352 0.86354 0.0
C522 C 0.38786 0.66444 0.88318 0.0
C523 C 0.35869 0.66149 0.89101 0.0
C524 C 0.33362 0.67881 0.88458 0.0
C525 C 0.33838 0.69996 0.87103 0.0
C526 C 0.41535 0.64646 0.88964 0.0
C527 C 0.30204 0.67589 0.89227 0.0
H528 H 0.3633 0.56487 0.91647 0.0
H529 H 0.38113 0.64509 0.94806 0.0
H530 H 0.32479 0.60824 0.8819 0.0
H531 H 0.36311 0.59405 0.87923 0.0
H532 H 0.3352 0.57018 0.89 0.0
H533 H 0.36704 0.69588 0.93922 0.0
H534 H 0.38714 0.69795 0.91901 0.0
H535 H 0.34632 0.70176 0.91938 0.0
H536 H 0.41425 0.68776 0.86375 0.0
H537 H 0.31936 0.71386 0.8664 0.0
H538 H 0.41068 0.62109 0.88916 0.0
H539 H 0.42001 0.65264 0.90326 0.0
H540 H 0.4363 0.65123 0.88198 0.0
H541 H 0.29725 0.65167 0.89646 0.0
H542 H 0.28408 0.68322 0.88297 0.0
H543 H 0.30034 0.69118 0.90374 0.0
C544 C 0.53137 0.98621 0.14917 0.0
C545 C 0.51462 0.99353 0.13432 0.0
C546 C 0.55958 0.0006 0.15246 0.0
C547 C 0.57056 0.02356 0.14093 0.0
C548 C 0.55553 0.02821 0.12498 0.0
C549 C 0.52782 0.0128 0.12177 0.0
C550 C 0.57583 0.99382 0.16919 0.0
C551 C 0.56646 0.05238 0.11228 0.0
C552 C 0.59918 0.09627 0.16296 0.0
C553 C 0.63065 0.09545 0.15958 0.0
C554 C 0.57965 0.07309 0.1568 0.0
C555 C 0.59196 0.04775 0.14741 0.0
C556 C 0.62388 0.04626 0.14426 0.0
C557 C 0.64287 0.07058 0.15011 0.0
C558 C 0.54567 0.07609 0.16019 0.0
C559 C 0.63799 0.01936 0.13462 0.0
H560 H 0.52157 0.97072 0.15872 0.0
H561 H 0.51514 0.01828 0.11015 0.0
H562 H 0.60102 0.99374 0.16732 0.0
H563 H 0.57028 0.01228 0.17868 0.0
H564 H 0.56871 0.97105 0.17467 0.0
H565 H 0.55551 0.04953 0.09947 0.0
H566 H 0.56075 0.07593 0.11724 0.0
H567 H 0.59164 0.05121 0.1107 0.0
H568 H 0.58954 0.11566 0.17007 0.0
H569 H 0.66722 0.06994 0.14746 0.0
H570 H 0.53768 0.05627 0.16816 0.0
H571 H 0.53282 0.07543 0.14787 0.0
H572 H 0.53978 0.09805 0.16699 0.0
H573 H 0.62685 0.997 0.13811 0.0
H574 H 0.66294 0.01745 0.13721 0.0
H575 H 0.63486 0.02295 0.12059 0.0
C576 C 0.10629 0.68577 0.12787 0.0
C577 C 0.1312 0.70466 0.13227 0.0
C578 C 0.1092 0.66232 0.11548 0.0
C579 C 0.13792 0.65727 0.10745 0.0
C580 C 0.16353 0.67535 0.11235 0.0
C581 C 0.15978 0.69913 0.12457 0.0
C582 C 0.08117 0.64358 0.11063 0.0
C583 C 0.19465 0.67035 0.10437 0.0
C584 C 0.13246 0.58024 0.08502 0.0
C585 C 0.11961 0.58989 0.06933 0.0
C586 C 0.14274 0.60225 0.09705 0.0
C587 C 0.13987 0.63433 0.09322 0.0
C588 C 0.1317 0.64377 0.07638 0.0
C589 C 0.12189 0.62132 0.06454 0.0
C590 C 0.1529 0.59127 0.1146 0.0
C591 C 0.12908 0.67775 0.07162 0.0
H592 H 0.08416 0.68986 0.13377 0.0
H593 H 0.17924 0.71348 0.12802 0.0
H594 H 0.0759 0.64698 0.09677 0.0
H595 H 0.08555 0.6184 0.11266 0.0
H596 H 0.06068 0.65026 0.11825 0.0
H597 H 0.21318 0.67977 0.11267 0.0
H598 H 0.19911 0.64527 0.10199 0.0
H599 H 0.19568 0.68258 0.09181 0.0
H600 H 0.13158 0.55589 0.08868 0.0
H601 H 0.11287 0.62888 0.05222 0.0
H602 H 0.1334 0.59295 0.12371 0.0
H603 H 0.17169 0.60607 0.11964 0.0
H604 H 0.16071 0.56665 0.11428 0.0
H605 H 0.10814 0.68763 0.07759 0.0
H606 H 0.12755 0.68111 0.05746 0.0
H607 H 0.14895 0.69109 0.07655 0.0
C608 C 0.54688 0.01503 0.33979 0.0
C609 C 0.53041 0.01017 0.35505 0.0
C610 C 0.57468 -0.00046 0.33688 0.0
C611 C 0.5856 0.97811 0.34931 0.0
C612 C 0.57103 0.97616 0.36555 0.0
C613 C 0.54371 0.99253 0.36829 0.0
C614 C 0.59035 0.00333 0.3197 0.0
C615 C 0.58179 0.9536 0.37918 0.0
C616 C 0.61141 0.90122 0.33081 0.0
C617 C 0.64299 0.9016 0.3339 0.0
C618 C 0.59277 0.926 0.33583 0.0
C619 C 0.60609 0.9524 0.34378 0.0
C620 C 0.6381 0.95331 0.34669 0.0
C621 C 0.65623 0.9276 0.34189 0.0
C622 C 0.55863 0.92355 0.33283 0.0
C623 C 0.65318 0.9815 0.35459 0.0
H624 H 0.53708 0.02926 0.32966 0.0
H625 H 0.53135 0.98898 0.38024 0.0
H626 H 0.6156 0.00261 0.32118 0.0
H627 H 0.5836 0.98388 0.3111 0.0
H628 H 0.5838 0.02556 0.31337 0.0
H629 H 0.57209 0.95926 0.39203 0.0
H630 H 0.57434 0.92973 0.37564 0.0
H631 H 0.60711 0.95343 0.38013 0.0
H632 H 0.60099 0.88102 0.32483 0.0
H633 H 0.6807 0.92798 0.34419 0.0
H634 H 0.55095 0.94236 0.32404 0.0
H635 H 0.54616 0.92644 0.34518 0.0
H636 H 0.55192 0.90085 0.32711 0.0
H637 H 0.65202 0.00121 0.34537 0.0
H638 H 0.67759 0.97715 0.35782 0.0
H639 H 0.64096 0.98886 0.36642 0.0
C640 C 0.33931 0.28436 0.62761 0.0
C641 C 0.36759 0.27887 0.63567 0.0
C642 C 0.33668 0.3061 0.61415 0.0
C643 C 0.36301 0.32233 0.60852 0.0
C644 C 0.39155 0.31696 0.61668 0.0
C645 C 0.39343 0.29545 0.63018 0.0
C646 C 0.30585 0.31158 0.60591 0.0
C647 C 0.42031 0.33366 0.611 0.0
C648 C 0.37754 0.3548 0.56433 0.0
C649 C 0.37946 0.38673 0.56804 0.0
C650 C 0.36891 0.33337 0.57705 0.0
C651 C 0.36163 0.34427 0.59374 0.0
C652 C 0.35926 0.37669 0.59679 0.0
C653 C 0.36825 0.39763 0.58386 0.0
C654 C 0.37141 0.29901 0.57317 0.0
C655 C 0.35072 0.38927 0.61428 0.0
H656 H 0.31918 0.27178 0.63187 0.0
H657 H 0.41536 0.29135 0.63631 0.0
H658 H 0.30016 0.33676 0.60615 0.0
H659 H 0.30652 0.30436 0.59221 0.0
H660 H 0.28728 0.29849 0.61248 0.0
H661 H 0.44064 0.32686 0.61874 0.0
H662 H 0.42507 0.32843 0.59727 0.0
H663 H 0.41715 0.35921 0.61214 0.0
H664 H 0.38554 0.34617 0.55201 0.0
H665 H 0.3691 0.42231 0.58677 0.0
H666 H 0.35229 0.28587 0.5791 0.0
H667 H 0.39307 0.28991 0.5787 0.0
H668 H 0.37154 0.29439 0.55909 0.0
H669 H 0.33212 0.3753 0.62018 0.0
H670 H 0.3433 0.41399 0.61354 0.0
H671 H 0.3709 0.38792 0.62292 0.0
C672 C 0.97432 0.0009 0.82753 0.0
C673 C 0.98887 0.00157 0.84362 0.0
C674 C 0.94719 0.01764 0.82472 0.0
C675 C 0.93494 0.03604 0.83819 0.0
C676 C 0.94753 0.03377 0.85494 0.0
C677 C 0.9742 0.01622 0.8575 0.0
C678 C 0.93373 0.01844 0.80683 0.0
C679 C 0.93537 0.05305 0.86969 0.0
C680 C 0.91027 0.11655 0.82435 0.0
C681 C 0.87837 0.11509 0.82592 0.0
C682 C 0.92868 0.091 0.82845 0.0
C683 C 0.91484 0.06285 0.83389 0.0
C684 C 0.88257 0.06096 0.83532 0.0
C685 C 0.86464 0.08734 0.8315 0.0
C686 C 0.96306 0.09439 0.82711 0.0
C687 C 0.86705 0.03107 0.84062 0.0
H688 H 0.98518 0.98903 0.81683 0.0
H689 H 0.98506 0.01654 0.87005 0.0
H690 H 0.90836 0.01907 0.80734 0.0
H691 H 0.94157 0.03983 0.80013 0.0
H692 H 0.94102 0.99798 0.79911 0.0
H693 H 0.94345 0.04417 0.88234 0.0
H694 H 0.94345 0.07741 0.86823 0.0
H695 H 0.91 0.05348 0.8697 0.0
H696 H 0.92105 0.13805 0.82024 0.0
H697 H 0.83994 0.08614 0.83265 0.0
H698 H 0.97215 0.07784 0.81741 0.0
H699 H 0.97393 0.08871 0.83963 0.0
H700 H 0.9701 0.11829 0.82333 0.0
H701 H 0.87093 0.01308 0.8306 0.0
H702 H 0.84199 0.0341 0.84239 0.0
H703 H 0.87703 0.02208 0.85277 0.0
C704 C 0.87481 0.58033 0.64856 0.0
C705 C 0.88788 0.56897 0.63333 0.0
C706 C 0.86185 0.61017 0.64922 0.0
C707 C 0.86218 0.62922 0.63432 0.0
C708 C 0.87397 0.61734 0.61869 0.0
C709 C 0.88665 0.5873 0.61836 0.0
C710 C 0.84925 0.62189 0.66613 0.0
C711 C 0.87475 0.63695 0.60255 0.0
C712 C 0.81487 0.70307 0.63855 0.0
C713 C 0.8367 0.72339 0.64549 0.0
C714 C 0.82308 0.67257 0.6338 0.0
C715 C 0.8538 0.66263 0.63589 0.0
C716 C 0.87628 0.68405 0.64151 0.0
C717 C 0.86739 0.71408 0.64635 0.0
C718 C 0.79853 0.6504 0.62778 0.0
C719 C 0.90939 0.67464 0.64363 0.0
H720 H 0.87532 0.56619 0.66012 0.0
H721 H 0.89657 0.57865 0.6065 0.0
H722 H 0.86416 0.64074 0.67115 0.0
H723 H 0.82607 0.63188 0.66426 0.0
H724 H 0.84789 0.60321 0.676 0.0
H725 H 0.88046 0.62293 0.59097 0.0
H726 H 0.85239 0.64859 0.60045 0.0
H727 H 0.89225 0.65548 0.60399 0.0
H728 H 0.7911 0.71025 0.63794 0.0
H729 H 0.88435 0.72997 0.65154 0.0
H730 H 0.79309 0.63378 0.63829 0.0
H731 H 0.80658 0.63657 0.6166 0.0
H732 H 0.77718 0.66282 0.62413 0.0
H733 H 0.91149 0.65798 0.6545 0.0
H734 H 0.92445 0.69493 0.64629 0.0
H735 H 0.91778 0.66271 0.63188 0.0
C736 C 0.06219 0.14472 0.3545 0.0
C737 C 0.09385 0.14476 0.35162 0.0
C738 C 0.04883 0.12339 0.3659 0.0
C739 C 0.06753 0.10106 0.37426 0.0
C740 C 0.09887 0.0987 0.36986 0.0
C741 C 0.11182 0.12093 0.35877 0.0
C742 C 0.01529 0.12686 0.37025 0.0
C743 C 0.11924 0.07428 0.37786 0.0
C744 C 0.04067 0.08854 0.41981 0.0
C745 C 0.02043 0.06344 0.41784 0.0
C746 C 0.05788 0.09962 0.40592 0.0
C747 C 0.05539 0.08477 0.38971 0.0
C748 C 0.03771 0.0573 0.38811 0.0
C749 C 0.02012 0.04707 0.40219 0.0
C750 C 0.07651 0.12899 0.40827 0.0
C751 C 0.03555 0.04001 0.37125 0.0
H752 H 0.0481 0.1629 0.34893 0.0
H753 H 0.13625 0.12048 0.35634 0.0
H754 H 0.00353 0.10403 0.36951 0.0
H755 H 0.01293 0.13548 0.38366 0.0
H756 H 0.00342 0.14343 0.36152 0.0
H757 H 0.14018 0.07036 0.37004 0.0
H758 H 0.12642 0.08205 0.39087 0.0
H759 H 0.1069 0.05185 0.37932 0.0
H760 H 0.04153 0.10101 0.43193 0.0
H761 H 0.00486 0.02737 0.40059 0.0
H762 H 0.06623 0.14812 0.40058 0.0
H763 H 0.1002 0.12548 0.40357 0.0
H764 H 0.07756 0.13652 0.42194 0.0
H765 H 0.01842 0.05157 0.36286 0.0
H766 H 0.02819 0.0155 0.37322 0.0
H767 H 0.0578 0.04014 0.36437 0.0
C768 C 0.60974 0.39585 0.12909 0.0
C769 C 0.61107 0.41278 0.14454 0.0
C770 C 0.62073 0.36516 0.1282 0.0
C771 C 0.63351 0.35128 0.14307 0.0
C772 C 0.63643 0.36886 0.15841 0.0
C773 C 0.62502 0.39933 0.15899 0.0
C774 C 0.6171 0.34711 0.11165 0.0
C775 C 0.65027 0.35498 0.17451 0.0
C776 C 0.62593 0.26567 0.15295 0.0
C777 C 0.65597 0.25515 0.15055 0.0
C778 C 0.61784 0.29649 0.14933 0.0
C779 C 0.64052 0.31744 0.14342 0.0
C780 C 0.67043 0.30645 0.13986 0.0
C781 C 0.6778 0.2752 0.14337 0.0
C782 C 0.5855 0.3071 0.15297 0.0
C783 C 0.69519 0.32813 0.13356 0.0
H784 H 0.59904 0.40612 0.11784 0.0
H785 H 0.62648 0.41241 0.1709 0.0
H786 H 0.63857 0.33465 0.1084 0.0
H787 H 0.59894 0.32929 0.11329 0.0
H788 H 0.61071 0.3624 0.10068 0.0
H789 H 0.65365 0.37263 0.18479 0.0
H790 H 0.63501 0.33644 0.17956 0.0
H791 H 0.67267 0.34406 0.17155 0.0
H792 H 0.60894 0.25002 0.15832 0.0
H793 H 0.70107 0.26708 0.14156 0.0
H794 H 0.57631 0.32056 0.14193 0.0
H795 H 0.58544 0.3227 0.16436 0.0
H796 H 0.56989 0.28724 0.1556 0.0
H797 H 0.68652 0.34323 0.12304 0.0
H798 H 0.71559 0.31522 0.12887 0.0
H799 H 0.70242 0.34359 0.14426 0.0
C800 C 0.50258 0.95096 0.89135 0.0
C801 C 0.50207 0.93712 0.90773 0.0
C802 C 0.48598 0.93797 0.87759 0.0
C803 C 0.46881 0.91044 0.8803 0.0
C804 C 0.46654 0.89774 0.89708 0.0
C805 C 0.48303 0.91133 0.91057 0.0
C806 C 0.48835 0.95262 0.85998 0.0
C807 C 0.44838 0.86846 0.90059 0.0
C808 C 0.41094 0.8733 0.85044 0.0
C809 C 0.42797 0.84822 0.8439 0.0
C810 C 0.42462 0.8957 0.86115 0.0
C811 C 0.45589 0.89261 0.86558 0.0
C812 C 0.47372 0.86887 0.85786 0.0
C813 C 0.45958 0.8471 0.84701 0.0
C814 C 0.40506 0.92121 0.86872 0.0
C815 C 0.50718 0.86473 0.86223 0.0
H816 H 0.51712 0.97099 0.88904 0.0
H817 H 0.48214 0.9007 0.92322 0.0
H818 H 0.50425 0.93875 0.85191 0.0
H819 H 0.46577 0.95278 0.85344 0.0
H820 H 0.49715 0.97686 0.86066 0.0
H821 H 0.44737 0.86275 0.91454 0.0
H822 H 0.42466 0.87096 0.8957 0.0
H823 H 0.45899 0.84854 0.89372 0.0
H824 H 0.38658 0.87466 0.8479 0.0
H825 H 0.47302 0.828 0.8419 0.0
H826 H 0.41761 0.94367 0.8689 0.0
H827 H 0.39922 0.91525 0.88223 0.0
H828 H 0.38339 0.92431 0.86143 0.0
H829 H 0.51954 0.8872 0.86113 0.0
H830 H 0.51855 0.8474 0.85376 0.0
H831 H 0.50938 0.85673 0.87577 0.0
C832 C 0.87252 0.41314 0.84608 0.0
C833 C 0.88035 0.42726 0.86174 0.0
C834 C 0.86077 0.3828 0.84564 0.0
C835 C 0.85669 0.36618 0.86124 0.0
C836 C 0.86237 0.38111 0.87715 0.0
C837 C 0.87423 0.41149 0.87722 0.0
C838 C 0.85477 0.36778 0.82838 0.0
C839 C 0.85787 0.36436 0.89405 0.0
C840 C 0.81661 0.28912 0.85385 0.0
C841 C 0.84182 0.27011 0.85012 0.0
C842 C 0.82092 0.3202 0.85903 0.0
C843 C 0.85105 0.3321 0.86051 0.0
C844 C 0.87639 0.31186 0.85857 0.0
C845 C 0.87143 0.28113 0.85334 0.0
C846 C 0.79334 0.34091 0.86133 0.0
C847 C 0.90891 0.3234 0.86032 0.0
H848 H 0.87679 0.42526 0.83409 0.0
H849 H 0.87989 0.42234 0.88942 0.0
H850 H 0.87188 0.34913 0.82608 0.0
H851 H 0.8318 0.35681 0.8282 0.0
H852 H 0.85616 0.38476 0.81761 0.0
H853 H 0.8571 0.38083 0.90507 0.0
H854 H 0.83646 0.35048 0.89391 0.0
H855 H 0.87716 0.34799 0.89616 0.0
H856 H 0.79368 0.28061 0.85134 0.0
H857 H 0.89091 0.26625 0.85065 0.0
H858 H 0.79009 0.35518 0.84956 0.0
H859 H 0.79661 0.35712 0.8723 0.0
H860 H 0.77218 0.32712 0.8635 0.0
H861 H 0.91443 0.33894 0.84933 0.0
H862 H 0.92572 0.30399 0.86047 0.0
H863 H 0.91168 0.33715 0.8723 0.0
C864 C 0.43779 0.12841 0.65491 0.0
C865 C 0.4102 0.12925 0.66405 0.0
C866 C 0.44641 0.10176 0.6457 0.0
C867 C 0.4275 0.0749 0.64622 0.0
C868 C 0.40157 0.0745 0.65715 0.0
C869 C 0.39273 0.102 0.66559 0.0
C870 C 0.47406 0.10358 0.63404 0.0
C871 C 0.38186 0.04587 0.65907 0.0
C872 C 0.42651 0.03808 0.60242 0.0
C873 C 0.45258 0.01908 0.60328 0.0
C874 C 0.41619 0.05439 0.61686 0.0
C875 C 0.43162 0.05062 0.63276 0.0
C876 C 0.45471 0.02762 0.63432 0.0
C877 C 0.46535 0.01234 0.61944 0.0
C878 C 0.39115 0.07834 0.61454 0.0
C879 C 0.47 0.02108 0.65135 0.0
H880 H 0.45133 0.14946 0.65372 0.0
H881 H 0.37161 0.10246 0.67291 0.0
H882 H 0.48981 0.0839 0.63662 0.0
H883 H 0.46667 0.10181 0.6204 0.0
H884 H 0.48696 0.12567 0.63568 0.0
H885 H 0.37196 0.04463 0.67223 0.0
H886 H 0.36251 0.04709 0.64985 0.0
H887 H 0.39493 0.02418 0.65654 0.0
H888 H 0.41595 0.04265 0.59003 0.0
H889 H 0.48516 0.99722 0.6203 0.0
H890 H 0.40054 0.10203 0.61675 0.0
H891 H 0.37266 0.07452 0.62407 0.0
H892 H 0.38092 0.07763 0.60145 0.0
H893 H 0.48918 0.03763 0.65328 0.0
H894 H 0.47955 0.99711 0.65169 0.0
H895 H 0.4537 0.02397 0.6622 0.0
C896 C 0.63446 0.7339 0.34896 0.0
C897 C 0.66517 0.74304 0.35001 0.0
C898 C 0.62542 0.7038 0.35358 0.0
C899 C 0.64777 0.68217 0.35914 0.0
C900 C 0.67842 0.69202 0.36158 0.0
C901 C 0.68679 0.72258 0.35705 0.0
C902 C 0.59237 0.69448 0.35109 0.0
C903 C 0.70283 0.66965 0.36757 0.0
C904 C 0.6148 0.60507 0.37417 0.0
C905 C 0.61431 0.58822 0.35868 0.0
C906 C 0.62728 0.6352 0.37486 0.0
C907 C 0.63961 0.6486 0.35973 0.0
C908 C 0.64074 0.63098 0.34434 0.0
C909 C 0.62798 0.60108 0.34398 0.0
C910 C 0.6257 0.65325 0.39151 0.0
C911 C 0.65397 0.64431 0.32794 0.0
H912 H 0.61767 0.74991 0.34372 0.0
H913 H 0.71057 0.72966 0.35784 0.0
H914 H 0.59049 0.67872 0.33982 0.0
H915 H 0.58382 0.6816 0.3625 0.0
H916 H 0.5773 0.71493 0.34885 0.0
H917 H 0.72382 0.68203 0.37186 0.0
H918 H 0.69431 0.65493 0.37829 0.0
H919 H 0.70909 0.65391 0.3568 0.0
H920 H 0.60441 0.59522 0.38561 0.0
H921 H 0.62809 0.58805 0.33203 0.0
H922 H 0.60771 0.67139 0.39048 0.0
H923 H 0.64769 0.6653 0.39408 0.0
H924 H 0.62017 0.63801 0.40264 0.0
H925 H 0.63919 0.66356 0.32326 0.0
H926 H 0.65581 0.62658 0.31757 0.0
H927 H 0.67704 0.65415 0.33038 0.0
C928 C 0.09265 0.87832 0.13846 0.0
C929 C 0.07556 0.85403 0.14581 0.0
C930 C 0.07914 0.89927 0.12683 0.0
C931 C 0.04802 0.89542 0.12225 0.0
C932 C 0.03007 0.87268 0.13078 0.0
C933 C 0.04402 0.85242 0.14257 0.0
C934 C 0.09879 0.92388 0.11845 0.0
C935 C 0.99677 0.86779 0.12629 0.0
C936 C 0.00175 0.94941 0.09351 0.0
C937 C 0.00293 0.93325 0.07781 0.0
C938 C 0.01804 0.93866 0.10797 0.0
C939 C 0.03554 0.91101 0.10666 0.0
C940 C 0.03856 0.896 0.09052 0.0
C941 C 0.0224 0.90743 0.0763 0.0
C942 C 0.01493 0.95577 0.12484 0.0
C943 C 0.0571 0.8665 0.0885 0.0
H944 H 0.11695 0.88006 0.14111 0.0
H945 H 0.03057 0.83391 0.14829 0.0
H946 H 0.10525 0.91615 0.10532 0.0
H947 H 0.08605 0.94612 0.11716 0.0
H948 H 0.12011 0.92818 0.12587 0.0
H949 H 0.98522 0.85161 0.13537 0.0
H950 H 0.98428 0.89027 0.12632 0.0
H951 H 0.995 0.85794 0.11311 0.0
H952 H 0.98689 0.9695 0.09479 0.0
H953 H 0.0238 0.89501 0.06417 0.0
H954 H 0.03718 0.95679 0.1317 0.0
H955 H 0.99855 0.94317 0.13324 0.0
H956 H 0.00629 0.97987 0.12295 0.0
H957 H 0.08064 0.86996 0.09349 0.0
H958 H 0.05862 0.8588 0.07487 0.0
H959 H 0.04646 0.84752 0.09614 0.0
C960 C 0.62326 0.81403 0.8695 0.0
C961 C 0.64725 0.79499 0.86385 0.0
C962 C 0.62818 0.83708 0.88191 0.0
C963 C 0.65802 0.84162 0.88867 0.0
C964 C 0.68266 0.82346 0.88245 0.0
C965 C 0.6769 0.80002 0.87026 0.0
C966 C 0.60109 0.85588 0.88817 0.0
C967 C 0.71492 0.82793 0.88895 0.0
C968 C 0.65411 0.9176 0.91198 0.0
C969 C 0.6427 0.90708 0.92784 0.0
C970 C 0.66396 0.89625 0.89948 0.0
C971 C 0.6621 0.864 0.90305 0.0
C972 C 0.65609 0.85388 0.92005 0.0
C973 C 0.6467 0.8757 0.93236 0.0
C974 C 0.6722 0.90799 0.88177 0.0
C975 C 0.65497 0.81972 0.92458 0.0
H976 H 0.60032 0.81033 0.86458 0.0
H977 H 0.69565 0.78558 0.86581 0.0
H978 H 0.59789 0.85228 0.90221 0.0
H979 H 0.60528 0.88107 0.88606 0.0
H980 H 0.57948 0.84946 0.88152 0.0
H981 H 0.73196 0.82056 0.87914 0.0
H982 H 0.71946 0.85252 0.89251 0.0
H983 H 0.71843 0.81332 0.90056 0.0
H984 H 0.65209 0.94199 0.90854 0.0
H985 H 0.63897 0.86753 0.94484 0.0
H986 H 0.65182 0.90645 0.87328 0.0
H987 H 0.6906 0.89357 0.87598 0.0
H988 H 0.67978 0.93268 0.88215 0.0
H989 H 0.63374 0.80936 0.91921 0.0
H990 H 0.65503 0.81594 0.93874 0.0
H991 H 0.67469 0.80717 0.91889 0.0
C992 C 0.46103 0.48035 0.13736 0.0
C993 C 0.47556 0.49197 0.15216 0.0
C994 C 0.4337 0.46342 0.13863 0.0
C995 C 0.4204 0.45863 0.15504 0.0
C996 C 0.43228 0.47467 0.16949 0.0
C997 C 0.46002 0.49092 0.16794 0.0
C998 C 0.42166 0.44708 0.12281 0.0
C999 C 0.41791 0.47137 0.18705 0.0
C1000 C 0.35073 0.40545 0.15917 0.0
C1001 C 0.36486 0.37729 0.1637 0.0
C1002 C 0.3683 0.43251 0.15636 0.0
C1003 C 0.4006 0.43094 0.15783 0.0
C1004 C 0.41483 0.40228 0.16203 0.0
C1005 C 0.39679 0.37603 0.16508 0.0
C1006 C 0.35226 0.46277 0.15235 0.0
C1007 C 0.44926 0.39918 0.16332 0.0
H1008 H 0.47249 0.48162 0.125 0.0
H1009 H 0.47067 0.50057 0.17936 0.0
H1010 H 0.42939 0.42245 0.12298 0.0
H1011 H 0.39628 0.44708 0.1226 0.0
H1012 H 0.43021 0.45807 0.11078 0.0
H1013 H 0.42517 0.4904 0.19584 0.0
H1014 H 0.39258 0.47137 0.18611 0.0
H1015 H 0.42504 0.44886 0.19283 0.0
H1016 H 0.326 0.40648 0.15818 0.0
H1017 H 0.40786 0.3542 0.16835 0.0
H1018 H 0.36423 0.47568 0.14197 0.0
H1019 H 0.35247 0.47774 0.16399 0.0
H1020 H 0.32807 0.459 0.14845 0.0
H1021 H 0.46017 0.40699 0.15116 0.0
H1022 H 0.45661 0.37486 0.16592 0.0
H1023 H 0.45802 0.41421 0.17383 0.0
C1024 C 0.86955 0.10057 0.41646 0.0
C1025 C 0.88244 0.11221 0.43171 0.0
C1026 C 0.85958 0.12089 0.40346 0.0
C1027 C 0.86263 0.15343 0.40585 0.0
C1028 C 0.87162 0.16516 0.42211 0.0
C1029 C 0.88125 0.14435 0.43491 0.0
C1030 C 0.84925 0.10743 0.38648 0.0
C1031 C 0.87489 0.19969 0.4253 0.0
C1032 C 0.89184 0.20006 0.36792 0.0
C1033 C 0.86584 0.21696 0.36299 0.0
C1034 C 0.8908 0.17903 0.38168 0.0
C1035 C 0.86295 0.1745 0.39068 0.0
C1036 C 0.83639 0.19095 0.38557 0.0
C1037 C 0.8382 0.2122 0.37184 0.0
C1038 C 0.91977 0.16205 0.38675 0.0
C1039 C 0.80625 0.18634 0.39472 0.0
H1040 H 0.86985 0.07573 0.41397 0.0
H1041 H 0.89055 0.15355 0.44681 0.0
H1042 H 0.83032 0.12134 0.38088 0.0
H1043 H 0.86862 0.10796 0.37724 0.0
H1044 H 0.8416 0.08288 0.38787 0.0
H1045 H 0.87653 0.2051 0.43926 0.0
H1046 H 0.89603 0.20818 0.41891 0.0
H1047 H 0.85533 0.21273 0.41976 0.0
H1048 H 0.91328 0.20357 0.36117 0.0
H1049 H 0.81793 0.22502 0.36802 0.0
H1050 H 0.91607 0.13652 0.38613 0.0
H1051 H 0.92595 0.16789 0.40023 0.0
H1052 H 0.93944 0.16803 0.37831 0.0
H1053 H 0.80054 0.16119 0.39539 0.0
H1054 H 0.78719 0.19883 0.38823 0.0
H1055 H 0.80803 0.19493 0.40814 0.0
C1056 C 0.15558 0.56993 0.65483 0.0
C1057 C 0.14334 0.59526 0.66391 0.0
C1058 C 0.13657 0.54538 0.64928 0.0
C1059 C 0.10466 0.54694 0.65246 0.0
C1060 C 0.09237 0.57261 0.66158 0.0
C1061 C 0.1119 0.5961 0.66738 0.0
C1062 C 0.15057 0.51777 0.64022 0.0
C1063 C 0.05839 0.57581 0.66489 0.0
C1064 C 0.04115 0.51244 0.62616 0.0
C1065 C 0.02715 0.4934 0.63855 0.0
C1066 C 0.06885 0.52761 0.62972 0.0
C1067 C 0.08318 0.52289 0.64586 0.0
C1068 C 0.07141 0.50018 0.65731 0.0
C1069 C 0.04317 0.48605 0.65366 0.0
C1070 C 0.08033 0.55177 0.61716 0.0
C1071 C 0.0868 0.49341 0.67429 0.0
H1072 H 0.17994 0.5692 0.65222 0.0
H1073 H 0.10225 0.61581 0.67421 0.0
H1074 H 0.14779 0.4967 0.64835 0.0
H1075 H 0.13862 0.51316 0.62788 0.0
H1076 H 0.17534 0.52118 0.63759 0.0
H1077 H 0.05254 0.59791 0.67155 0.0
H1078 H 0.04562 0.57498 0.65254 0.0
H1079 H 0.05024 0.55617 0.67295 0.0
H1080 H 0.02906 0.51801 0.61436 0.0
H1081 H 0.03278 0.4708 0.66312 0.0
H1082 H 0.10563 0.55121 0.61616 0.0
H1083 H 0.07371 0.57527 0.62182 0.0
H1084 H 0.07042 0.54846 0.60411 0.0
H1085 H 0.11207 0.4936 0.67291 0.0
H1086 H 0.07957 0.47051 0.67957 0.0
H1087 H 0.0805 0.51169 0.68374 0.0
C1088 C 0.57109 0.10808 0.5636 0.0
C1089 C 0.57525 0.07656 0.56773 0.0
C1090 C 0.58642 0.13142 0.57279 0.0
C1091 C 0.60643 0.12294 0.58633 0.0
C1092 C 0.61359 0.09119 0.58909 0.0
C1093 C 0.59791 0.06829 0.57971 0.0
C1094 C 0.57847 0.16506 0.56927 0.0
C1095 C 0.63527 0.08121 0.60318 0.0
C1096 C 0.64759 0.18816 0.60999 0.0
C1097 C 0.62735 0.19377 0.62369 0.0
C1098 C 0.64165 0.16459 0.59789 0.0
C1099 C 0.61477 0.14647 0.59952 0.0
C1100 C 0.59466 0.15157 0.61354 0.0
C1101 C 0.60124 0.17507 0.62545 0.0
C1102 C 0.66368 0.15961 0.58318 0.0
C1103 C 0.56572 0.13267 0.61577 0.0
H1104 H 0.55403 0.11469 0.55414 0.0
H1105 H 0.60166 0.04397 0.58282 0.0
H1106 H 0.56278 0.1736 0.57947 0.0
H1107 H 0.59925 0.17987 0.56956 0.0
H1108 H 0.56698 0.16802 0.55662 0.0
H1109 H 0.64315 0.05682 0.60138 0.0
H1110 H 0.65553 0.09673 0.60374 0.0
H1111 H 0.62339 0.08275 0.61579 0.0
H1112 H 0.66788 0.20244 0.60857 0.0
H1113 H 0.58551 0.17912 0.63601 0.0
H1114 H 0.65267 0.16662 0.57091 0.0
H1115 H 0.66969 0.13459 0.58204 0.0
H1116 H 0.68507 0.17329 0.58478 0.0
H1117 H 0.55043 0.13622 0.60453 0.0
H1118 H 0.55294 0.13909 0.62762 0.0
H1119 H 0.5713 0.10749 0.61639 0.0
C1120 C 0.1507 0.41348 0.85069 0.0
C1121 C 0.13825 0.38713 0.84264 0.0
C1122 C 0.1318 0.43856 0.85556 0.0
C1123 C 0.09985 0.43672 0.85258 0.0
C1124 C 0.08725 0.40969 0.8449 0.0
C1125 C 0.10662 0.38549 0.83989 0.0
C1126 C 0.14611 0.46723 0.86338 0.0
C1127 C 0.05322 0.40629 0.84183 0.0
C1128 C 0.03553 0.47863 0.87458 0.0
C1129 C 0.02335 0.49525 0.86061 0.0
C1130 C 0.06305 0.46209 0.87292 0.0
C1131 C 0.07884 0.46271 0.85701 0.0
C1132 C 0.06892 0.4831 0.84381 0.0
C1133 C 0.04101 0.49888 0.84568 0.0
C1134 C 0.07289 0.44084 0.88739 0.0
C1135 C 0.08579 0.48536 0.82691 0.0
H1136 H 0.1752 0.41479 0.85278 0.0
H1137 H 0.09683 0.36496 0.83392 0.0
H1138 H 0.14627 0.48619 0.85367 0.0
H1139 H 0.13262 0.47559 0.87456 0.0
H1140 H 0.17005 0.46294 0.86759 0.0
H1141 H 0.04709 0.38308 0.83654 0.0
H1142 H 0.04049 0.40974 0.85404 0.0
H1143 H 0.04532 0.42434 0.83261 0.0
H1144 H 0.02224 0.47605 0.88629 0.0
H1145 H 0.03206 0.51232 0.83498 0.0
H1146 H 0.09815 0.44069 0.8888 0.0
H1147 H 0.06553 0.41669 0.88442 0.0
H1148 H 0.06245 0.44778 0.89986 0.0
H1149 H 0.11091 0.48533 0.82901 0.0
H1150 H 0.07936 0.50672 0.81969 0.0
H1151 H 0.08006 0.46485 0.81884 0.0
C1152 C 0.85142 0.90949 0.07484 0.0
C1153 C 0.86382 0.8963 0.05984 0.0
C1154 C 0.84146 0.89043 0.08841 0.0
C1155 C 0.84414 0.85772 0.08682 0.0
C1156 C 0.85161 0.84453 0.07067 0.0
C1157 C 0.86115 0.86408 0.05727 0.0
C1158 C 0.83198 0.90536 0.10516 0.0
C1159 C 0.85388 0.80973 0.06826 0.0
C1160 C 0.87993 0.8144 0.12411 0.0
C1161 C 0.85547 0.79636 0.13013 0.0
C1162 C 0.87612 0.83508 0.11035 0.0
C1163 C 0.84695 0.8382 0.10253 0.0
C1164 C 0.82177 0.82118 0.10905 0.0
C1165 C 0.8264 0.80014 0.12267 0.0
C1166 C 0.90372 0.85279 0.10383 0.0
C1167 C 0.79018 0.82429 0.10138 0.0
H1168 H 0.85253 0.93446 0.07679 0.0
H1169 H 0.86979 0.85374 0.04549 0.0
H1170 H 0.8134 0.89185 0.11143 0.0
H1171 H 0.85183 0.90575 0.11408 0.0
H1172 H 0.82414 0.92972 0.1032 0.0
H1173 H 0.85489 0.8032 0.05443 0.0
H1174 H 0.87498 0.8011 0.07465 0.0
H1175 H 0.83412 0.79777 0.07429 0.0
H1176 H 0.90242 0.81172 0.12982 0.0
H1177 H 0.80729 0.78646 0.12736 0.0
H1178 H 0.89921 0.8782 0.1042 0.0
H1179 H 0.90834 0.84639 0.09023 0.0
H1180 H 0.92465 0.84797 0.11151 0.0
H1181 H 0.78562 0.84845 0.097 0.0
H1182 H 0.7722 0.81741 0.11076 0.0
H1183 H 0.78826 0.80871 0.09004 0.0
C1184 C 0.45962 0.5118 0.33518 0.0
C1185 C 0.47582 0.51348 0.35073 0.0
C1186 C 0.43196 0.52798 0.33305 0.0
C1187 C 0.42086 0.54682 0.34664 0.0
C1188 C 0.43497 0.54519 0.36303 0.0
C1189 C 0.4622 0.52822 0.36493 0.0
C1190 C 0.41677 0.52794 0.31561 0.0
C1191 C 0.42382 0.56467 0.37794 0.0
C1192 C 0.39608 0.62652 0.33152 0.0
C1193 C 0.36422 0.62526 0.33326 0.0
C1194 C 0.41451 0.60136 0.33624 0.0
C1195 C 0.40074 0.57373 0.3425 0.0
C1196 C 0.3685 0.57226 0.34444 0.0
C1197 C 0.35055 0.59831 0.33995 0.0
C1198 C 0.44885 0.60441 0.33436 0.0
C1199 C 0.35292 0.54302 0.35068 0.0
H1200 H 0.46963 0.49979 0.32427 0.0
H1201 H 0.47428 0.52922 0.37711 0.0
H1202 H 0.39148 0.52812 0.31692 0.0
H1203 H 0.42353 0.54925 0.30847 0.0
H1204 H 0.42366 0.50736 0.30786 0.0
H1205 H 0.43292 0.55605 0.39043 0.0
H1206 H 0.43166 0.58905 0.37615 0.0
H1207 H 0.39847 0.56494 0.37853 0.0
H1208 H 0.40677 0.6475 0.32659 0.0
H1209 H 0.32586 0.5973 0.34124 0.0
H1210 H 0.45734 0.58746 0.3247 0.0
H1211 H 0.46029 0.5991 0.34678 0.0
H1212 H 0.45588 0.62812 0.33022 0.0
H1213 H 0.3528 0.52559 0.34013 0.0
H1214 H 0.32886 0.54746 0.3546 0.0
H1215 H 0.36543 0.53257 0.36169 0.0
C1216 C 0.36394 0.07842 0.14372 0.0
C1217 C 0.37261 0.06394 0.1283 0.0
C1218 C 0.3522 0.10878 0.14374 0.0
C1219 C 0.34894 0.12504 0.12797 0.0
C1220 C 0.35551 0.10976 0.11227 0.0
C1221 C 0.36739 0.07939 0.11262 0.0
C1222 C 0.34526 0.12418 0.1608 0.0
C1223 C 0.35186 0.12611 0.09519 0.0
C1224 C 0.30807 0.20194 0.13436 0.0
C1225 C 0.33297 0.22112 0.13844 0.0
C1226 C 0.31282 0.17084 0.12933 0.0
C1227 C 0.34308 0.1591 0.12837 0.0
C1228 C 0.36819 0.17952 0.13061 0.0
C1229 C 0.36279 0.21028 0.13567 0.0
C1230 C 0.28549 0.14994 0.12666 0.0
C1231 C 0.40085 0.16816 0.12943 0.0
H1232 H 0.36753 0.06656 0.15587 0.0
H1233 H 0.3737 0.06826 0.1006 0.0
H1234 H 0.36211 0.14302 0.16321 0.0
H1235 H 0.32221 0.13497 0.16053 0.0
H1236 H 0.34625 0.10749 0.17172 0.0
H1237 H 0.35167 0.10939 0.08427 0.0
H1238 H 0.33044 0.13998 0.09487 0.0
H1239 H 0.37124 0.14244 0.09328 0.0
H1240 H 0.28497 0.21031 0.1365 0.0
H1241 H 0.38206 0.2253 0.13861 0.0
H1242 H 0.28168 0.13585 0.13845 0.0
H1243 H 0.28942 0.13357 0.11584 0.0
H1244 H 0.26438 0.16359 0.12406 0.0
H1245 H 0.40594 0.15287 0.1406 0.0
H1246 H 0.41754 0.18767 0.12942 0.0
H1247 H 0.40427 0.15419 0.11758 0.0
C1248 C 0.53461 0.58874 0.91966 0.0
C1249 C 0.5142 0.56382 0.91756 0.0
C1250 C 0.55091 0.60084 0.90567 0.0
C1251 C 0.54707 0.58743 0.88916 0.0
C1252 C 0.52881 0.56042 0.88724 0.0
C1253 C 0.5124 0.54897 0.90148 0.0
C1254 C 0.57029 0.62959 0.90835 0.0
C1255 C 0.52487 0.54491 0.86996 0.0
C1256 C 0.55457 0.649 0.85472 0.0
C1257 C 0.58584 0.64711 0.85078 0.0
C1258 C 0.54103 0.62807 0.86629 0.0
C1259 C 0.55909 0.60435 0.87388 0.0
C1260 C 0.58988 0.60045 0.86867 0.0
C1261 C 0.60301 0.62208 0.85728 0.0
C1262 C 0.50807 0.63308 0.87149 0.0
C1263 C 0.60959 0.57484 0.87603 0.0
H1264 H 0.53652 0.60008 0.93208 0.0
H1265 H 0.49683 0.52956 0.89975 0.0
H1266 H 0.59347 0.62613 0.90288 0.0
H1267 H 0.55973 0.64961 0.90152 0.0
H1268 H 0.57266 0.63575 0.92218 0.0
H1269 H 0.51585 0.52084 0.87128 0.0
H1270 H 0.50845 0.55854 0.86208 0.0
H1271 H 0.54688 0.5441 0.86285 0.0
H1272 H 0.54105 0.66809 0.84966 0.0
H1273 H 0.62709 0.62013 0.85409 0.0
H1274 H 0.50716 0.64142 0.88501 0.0
H1275 H 0.49515 0.61089 0.87088 0.0
H1276 H 0.49637 0.65049 0.86319 0.0
H1277 H 0.61697 0.58135 0.88922 0.0
H1278 H 0.63039 0.57082 0.86812 0.0
H1279 H 0.59657 0.55273 0.877 0.0
C1280 C 0.18242 0.77579 0.64472 0.0
C1281 C 0.16195 0.75458 0.65214 0.0
C1282 C 0.173 0.80632 0.64083 0.0
C1283 C 0.14239 0.81538 0.64422 0.0
C1284 C 0.12114 0.79314 0.65036 0.0
C1285 C 0.13127 0.7631 0.6544 0.0
C1286 C 0.19632 0.82943 0.63434 0.0
C1287 C 0.08815 0.80161 0.65382 0.0
C1288 C 0.12246 0.89694 0.65879 0.0
C1289 C 0.10844 0.90933 0.64407 0.0
C1290 C 0.13505 0.86694 0.65867 0.0
C1291 C 0.13323 0.84868 0.64352 0.0
C1292 C 0.12001 0.86137 0.62844 0.0
C1293 C 0.10789 0.89167 0.62887 0.0
C1294 C 0.14929 0.85436 0.67499 0.0
C1295 C 0.11742 0.84251 0.61211 0.0
H1296 H 0.20619 0.76921 0.64303 0.0
H1297 H 0.11536 0.74654 0.65997 0.0
H1298 H 0.18682 0.8434 0.62358 0.0
H1299 H 0.20229 0.84583 0.64486 0.0
H1300 H 0.21763 0.8178 0.62991 0.0
H1301 H 0.07384 0.78079 0.65651 0.0
H1302 H 0.08693 0.81739 0.66511 0.0
H1303 H 0.07824 0.81422 0.64266 0.0
H1304 H 0.1233 0.9106 0.67052 0.0
H1305 H 0.09711 0.90112 0.61743 0.0
H1306 H 0.17238 0.84482 0.67227 0.0
H1307 H 0.13509 0.83501 0.68007 0.0
H1308 H 0.15135 0.87245 0.68515 0.0
H1309 H 0.1397 0.83159 0.60888 0.0
H1310 H 0.10978 0.85686 0.601 0.0
H1311 H 0.10066 0.8234 0.61404 0.0
C1312 C 0.93744 0.45228 0.39536 0.0
C1313 C 0.9626 0.47217 0.39316 0.0
C1314 C 0.92454 0.43653 0.38138 0.0
C1315 C 0.93638 0.44165 0.36466 0.0
C1316 C 0.95864 0.46519 0.36204 0.0
C1317 C 0.9719 0.47997 0.37641 0.0
C1318 C 0.90064 0.41186 0.38487 0.0
C1319 C 0.97024 0.47297 0.34428 0.0
C1320 C 0.93797 0.36553 0.3406 0.0
C1321 C 0.90863 0.36511 0.33334 0.0
C1322 C 0.94846 0.3916 0.3497 0.0
C1323 C 0.92953 0.41833 0.35102 0.0
C1324 C 0.90146 0.41933 0.34192 0.0
C1325 C 0.89095 0.39238 0.33352 0.0
C1326 C 0.97842 0.3892 0.35936 0.0
C1327 C 0.88143 0.44794 0.34202 0.0
H1328 H 0.92953 0.44682 0.40824 0.0
H1329 H 0.99099 0.49574 0.37455 0.0
H1330 H 0.88026 0.41567 0.37665 0.0
H1331 H 0.91003 0.38853 0.38168 0.0
H1332 H 0.89313 0.41164 0.39854 0.0
H1333 H 0.97934 0.49711 0.34376 0.0
H1334 H 0.98912 0.45687 0.34083 0.0
H1335 H 0.95189 0.47042 0.33449 0.0
H1336 H 0.95176 0.34453 0.34044 0.0
H1337 H 0.86843 0.39234 0.32765 0.0
H1338 H 0.97396 0.38957 0.37343 0.0
H1339 H 0.9933 0.40936 0.35632 0.0
H1340 H 0.99111 0.3675 0.35623 0.0
H1341 H 0.86499 0.44646 0.35287 0.0
H1342 H 0.86792 0.44958 0.32993 0.0
H1343 H 0.8951 0.46955 0.34355 0.0
C1344 C 0.31682 0.80537 0.35242 0.0
C1345 C 0.33889 0.78539 0.34541 0.0
C1346 C 0.32442 0.83621 0.35683 0.0
C1347 C 0.35481 0.84687 0.35435 0.0
C1348 C 0.37754 0.82595 0.34847 0.0
C1349 C 0.36924 0.79557 0.34396 0.0
C1350 C 0.29959 0.85786 0.36306 0.0
C1351 C 0.41035 0.83613 0.34596 0.0
C1352 C 0.37475 0.9299 0.34249 0.0
C1353 C 0.3881 0.94075 0.35776 0.0
C1354 C 0.3619 0.90002 0.34157 0.0
C1355 C 0.36269 0.88038 0.35623 0.0
C1356 C 0.37466 0.89178 0.37194 0.0
C1357 C 0.38713 0.92189 0.37253 0.0
C1358 C 0.34901 0.88884 0.32462 0.0
C1359 C 0.37603 0.87156 0.38782 0.0
H1360 H 0.2933 0.79754 0.35346 0.0
H1361 H 0.3864 0.78 0.33869 0.0
H1362 H 0.30754 0.87151 0.37433 0.0
H1363 H 0.29385 0.87468 0.3527 0.0
H1364 H 0.27844 0.84506 0.36666 0.0
H1365 H 0.42571 0.81627 0.34288 0.0
H1366 H 0.41161 0.85321 0.33526 0.0
H1367 H 0.41903 0.84783 0.35772 0.0
H1368 H 0.37508 0.94444 0.33107 0.0
H1369 H 0.39729 0.9301 0.38443 0.0
H1370 H 0.32612 0.87822 0.32655 0.0
H1371 H 0.36418 0.8706 0.31917 0.0
H1372 H 0.34693 0.90798 0.31506 0.0
H1373 H 0.35383 0.85963 0.38996 0.0
H1374 H 0.38191 0.88515 0.39953 0.0
H1375 H 0.39365 0.85324 0.38602 0.0
C1376 C 0.95983 0.57734 0.08452 0.0
C1377 C 0.98003 0.55271 0.08797 0.0
C1378 C 0.94378 0.59211 0.09779 0.0
C1379 C 0.94757 0.58169 0.11495 0.0
C1380 C 0.96539 0.55481 0.11831 0.0
C1381 C 0.98163 0.54069 0.10476 0.0
C1382 C 0.92489 0.62061 0.09358 0.0
C1383 C 0.96915 0.54235 0.13635 0.0
C1384 C 0.94284 0.64934 0.14587 0.0
C1385 C 0.91166 0.64917 0.15015 0.0
C1386 C 0.95538 0.62607 0.13537 0.0
C1387 C 0.9364 0.60171 0.12925 0.0
C1388 C 0.90566 0.59978 0.13488 0.0
C1389 C 0.89353 0.62374 0.14513 0.0
C1390 C 0.98832 0.6291 0.12965 0.0
C1391 C 0.88498 0.57364 0.12912 0.0
H1392 H 0.95802 0.58648 0.07155 0.0
H1393 H 0.99695 0.52148 0.10755 0.0
H1394 H 0.90178 0.61874 0.09937 0.0
H1395 H 0.93602 0.64157 0.09913 0.0
H1396 H 0.92231 0.62417 0.07948 0.0
H1397 H 0.9776 0.51795 0.13633 0.0
H1398 H 0.98595 0.5569 0.14342 0.0
H1399 H 0.94718 0.54334 0.14351 0.0
H1400 H 0.95709 0.66875 0.14977 0.0
H1401 H 0.8695 0.62317 0.14859 0.0
H1402 H 0.98906 0.63465 0.11569 0.0
H1403 H 0.00068 0.60681 0.13154 0.0
H1404 H 0.00069 0.64771 0.13674 0.0
H1405 H 0.87719 0.57812 0.11575 0.0
H1406 H 0.86442 0.57162 0.13746 0.0
H1407 H 0.89736 0.55108 0.12916 0.0
C1408 C 0.19315 0.20806 0.85855 0.0
C1409 C 0.1702 0.22727 0.85177 0.0
C1410 C 0.18728 0.17642 0.86193 0.0
C1411 C 0.15776 0.16415 0.85858 0.0
C1412 C 0.13398 0.18422 0.8531 0.0
C1413 C 0.14056 0.21546 0.84967 0.0
C1414 C 0.21315 0.15576 0.86786 0.0
C1415 C 0.10202 0.17226 0.84968 0.0
C1416 C 0.14348 0.08267 0.84219 0.0
C1417 C 0.12923 0.06878 0.85642 0.0
C1418 C 0.15506 0.11305 0.84316 0.0
C1419 C 0.15214 0.13003 0.85871 0.0
C1420 C 0.1397 0.11542 0.87346 0.0
C1421 C 0.12841 0.0849 0.87215 0.0
C1422 C 0.16851 0.12769 0.82718 0.0
C1423 C 0.13633 0.13268 0.89028 0.0
H1424 H 0.21612 0.21718 0.86013 0.0
H1425 H 0.12269 0.23045 0.84462 0.0
H1426 H 0.20535 0.13963 0.87812 0.0
H1427 H 0.22117 0.14135 0.8569 0.0
H1428 H 0.23285 0.16952 0.87276 0.0
H1429 H 0.08552 0.19143 0.84717 0.0
H1430 H 0.10232 0.15667 0.83828 0.0
H1431 H 0.09365 0.15843 0.86078 0.0
H1432 H 0.1446 0.07023 0.83006 0.0
H1433 H 0.11763 0.07428 0.88326 0.0
H1434 H 0.19054 0.13928 0.83022 0.0
H1435 H 0.15266 0.1458 0.82223 0.0
H1436 H 0.17246 0.11035 0.81681 0.0
H1437 H 0.15737 0.14609 0.89327 0.0
H1438 H 0.13139 0.11666 0.90116 0.0
H1439 H 0.11721 0.14958 0.88922 0.0
C1440 C 0.52373 0.44912 0.59304 0.0
C1441 C 0.51982 0.43206 0.57777 0.0
C1442 C 0.54345 0.43839 0.60608 0.0
C1443 C 0.55891 0.40967 0.6039 0.0
C1444 C 0.55699 0.39384 0.58795 0.0
C1445 C 0.5378 0.40544 0.57504 0.0
C1446 C 0.54602 0.45669 0.6226 0.0
C1447 C 0.57299 0.36307 0.58502 0.0
C1448 C 0.61893 0.371 0.63168 0.0
C1449 C 0.60102 0.34895 0.64043 0.0
C1450 C 0.60527 0.39357 0.62106 0.0
C1451 C 0.57313 0.39336 0.61878 0.0
C1452 C 0.55486 0.37294 0.62876 0.0
C1453 C 0.56904 0.35127 0.63963 0.0
C1454 C 0.62543 0.41596 0.61129 0.0
C1455 C 0.52048 0.37174 0.62669 0.0
H1456 H 0.51029 0.46998 0.59519 0.0
H1457 H 0.53539 0.39233 0.56319 0.0
H1458 H 0.53012 0.44682 0.6323 0.0
H1459 H 0.56954 0.45536 0.62795 0.0
H1460 H 0.53987 0.48155 0.62062 0.0
H1461 H 0.5706 0.35472 0.57155 0.0
H1462 H 0.59771 0.3651 0.58804 0.0
H1463 H 0.56321 0.34517 0.59375 0.0
H1464 H 0.64368 0.36975 0.63248 0.0
H1465 H 0.55498 0.33454 0.64646 0.0
H1466 H 0.61442 0.43916 0.61016 0.0
H1467 H 0.62929 0.40698 0.59807 0.0
H1468 H 0.64809 0.41871 0.6176 0.0
H1469 H 0.51051 0.39539 0.62775 0.0
H1470 H 0.50944 0.35651 0.63644 0.0
H1471 H 0.51474 0.36266 0.6137 0.0
C1472 C 0.23944 0.29602 0.21707 0.0
C1473 C 0.2625 0.27551 0.2118 0.0
C1474 C 0.22145 0.2893 0.23158 0.0
C1475 C 0.22609 0.26095 0.24056 0.0
C1476 C 0.24853 0.23962 0.23479 0.0
C1477 C 0.26684 0.24742 0.22065 0.0
C1478 C 0.19833 0.31298 0.23768 0.0
C1479 C 0.25353 0.20874 0.2437 0.0
C1480 C 0.2059 0.25378 0.28781 0.0
C1481 C 0.17726 0.2392 0.28706 0.0
C1482 C 0.22157 0.26185 0.27273 0.0
C1483 C 0.20871 0.25417 0.25654 0.0
C1484 C 0.17994 0.23907 0.25572 0.0
C1485 C 0.16426 0.23224 0.27103 0.0
C1486 C 0.25183 0.27869 0.27412 0.0
C1487 C 0.16606 0.22959 0.2387 0.0
H1488 H 0.23625 0.31779 0.21022 0.0
H1489 H 0.28447 0.23139 0.2164 0.0
H1490 H 0.17531 0.30224 0.23858 0.0
H1491 H 0.20457 0.32109 0.25079 0.0
H1492 H 0.19699 0.33351 0.22901 0.0
H1493 H 0.26999 0.19368 0.23666 0.0
H1494 H 0.26245 0.2127 0.25689 0.0
H1495 H 0.2315 0.19609 0.24497 0.0
H1496 H 0.21574 0.25954 0.30023 0.0
H1497 H 0.14213 0.22086 0.27049 0.0
H1498 H 0.25123 0.3004 0.26637 0.0
H1499 H 0.27041 0.2639 0.26884 0.0
H1500 H 0.25763 0.28477 0.28763 0.0
H1501 H 0.16298 0.2503 0.23034 0.0
H1502 H 0.14354 0.21793 0.2403 0.0
H1503 H 0.18177 0.21347 0.23188 0.0
C1504 C 0.00165 0.9575 0.57403 0.0
C1505 C 0.02875 0.97364 0.57786 0.0
C1506 C 0.98731 0.96084 0.55797 0.0
C1507 C 0.00062 0.9805 0.54543 0.0
C1508 C 0.02901 0.99522 0.54884 0.0
C1509 C 0.04263 0.99179 0.56508 0.0
C1510 C 0.95699 0.94495 0.55487 0.0
C1511 C 0.04416 0.01603 0.53568 0.0
C1512 C 0.97535 0.98446 0.49871 0.0
C1513 C 0.9595 0.01282 0.49868 0.0
C1514 C 0.98758 0.97244 0.51409 0.0
C1515 C 0.98332 0.98905 0.52966 0.0
C1516 C 0.965 0.01624 0.52983 0.0
C1517 C 0.95357 0.02794 0.5143 0.0
C1518 C 0.00699 0.9434 0.51341 0.0
C1519 C 0.9593 0.03428 0.54622 0.0
H1520 H 0.99076 0.94342 0.58387 0.0
H1521 H 0.06373 0.00404 0.56792 0.0
H1522 H 0.93841 0.96258 0.55507 0.0
H1523 H 0.95659 0.93371 0.54201 0.0
H1524 H 0.95194 0.92709 0.56482 0.0
H1525 H 0.06767 0.02291 0.5396 0.0
H1526 H 0.04537 0.00414 0.52302 0.0
H1527 H 0.03033 0.03748 0.53395 0.0
H1528 H 0.98011 0.97289 0.48659 0.0
H1529 H 0.94108 0.04978 0.51426 0.0
H1530 H 0.00138 0.92757 0.52425 0.0
H1531 H 0.03146 0.94992 0.5147 0.0
H1532 H 0.004 0.93059 0.5011 0.0
H1533 H 0.95171 0.01843 0.55665 0.0
H1534 H 0.94175 0.05274 0.54447 0.0
H1535 H 0.98091 0.04545 0.5505 0.0
C1536 C 0.25699 0.6803 0.72841 0.0
C1537 C 0.26039 0.68763 0.71094 0.0
C1538 C 0.27789 0.69126 0.74066 0.0
C1539 C 0.30233 0.71066 0.73534 0.0
C1540 C 0.30664 0.71706 0.71762 0.0
C1541 C 0.28572 0.70513 0.70557 0.0
C1542 C 0.27295 0.68324 0.75939 0.0
C1543 C 0.33213 0.73804 0.7115 0.0
C1544 C 0.32663 0.76528 0.771 0.0
C1545 C 0.35227 0.74983 0.77766 0.0
C1546 C 0.31139 0.75389 0.75641 0.0
C1547 C 0.32168 0.72601 0.74857 0.0
C1548 C 0.34849 0.71122 0.75469 0.0
C1549 C 0.36368 0.72351 0.76909 0.0
C1550 C 0.28329 0.77077 0.74999 0.0
C1551 C 0.35992 0.68124 0.74683 0.0
H1552 H 0.23749 0.6666 0.73255 0.0
H1553 H 0.2882 0.71106 0.69207 0.0
H1554 H 0.29448 0.67441 0.76519 0.0
H1555 H 0.26626 0.70449 0.76659 0.0
H1556 H 0.25479 0.66542 0.76116 0.0
H1557 H 0.33446 0.73784 0.69726 0.0
H1558 H 0.32744 0.76228 0.7157 0.0
H1559 H 0.35427 0.731 0.7173 0.0
H1560 H 0.31792 0.7858 0.77749 0.0
H1561 H 0.38344 0.71139 0.77423 0.0
H1562 H 0.26261 0.75672 0.75288 0.0
H1563 H 0.28438 0.77383 0.73582 0.0
H1564 H 0.28058 0.79401 0.75609 0.0
H1565 H 0.34381 0.66211 0.75003 0.0
H1566 H 0.38301 0.6748 0.75164 0.0
H1567 H 0.36078 0.68308 0.73259 0.0
C1568 C 0.45467 -0.00108 0.04985 0.0
C1569 C 0.46042 0.01996 0.06324 0.0
C1570 C 0.47083 0.0008 0.0343 0.0
C1571 C 0.49343 0.02416 0.03215 0.0
C1572 C 0.49788 0.04673 0.04516 0.0
C1573 C 0.48126 0.0444 0.06056 0.0
C1574 C 0.4651 0.97649 0.02062 0.0
C1575 C 0.52163 0.07204 0.04334 0.0
C1576 C 0.55644 0.99316 0.00399 0.0
C1577 C 0.54757 0.00431 0.98782 0.0
C1578 C 0.54062 0.00192 0.01887 0.0
C1579 C 0.51497 0.0219 0.01742 0.0
C1580 C 0.50779 0.03562 0.00132 0.0
C1581 C 0.52439 0.02672 0.98661 0.0
C1582 C 0.54952 0.98729 0.03584 0.0
C1583 C 0.48083 0.05726 -0.00069 0.0
H1584 H 0.43833 0.98023 0.05175 0.0
H1585 H 0.48572 0.06092 0.07081 0.0
H1586 H 0.46192 0.9877 0.00787 0.0
H1587 H 0.48527 0.96086 0.01966 0.0
H1588 H 0.44462 0.96206 0.02349 0.0
H1589 H 0.51828 0.09094 0.05292 0.0
H1590 H 0.54473 0.06191 0.04532 0.0
H1591 H 0.52113 0.08226 0.03022 0.0
H1592 H 0.57449 0.97588 0.00486 0.0
H1593 H 0.5174 0.03511 0.97404 0.0
H1594 H 0.53219 0.9696 0.03951 0.0
H1595 H 0.55014 0.00507 0.04619 0.0
H1596 H 0.57223 0.97571 0.03519 0.0
H1597 H 0.4594 0.04339 -0.00083 0.0
H1598 H 0.4821 0.07073 0.98711 0.0
H1599 H 0.47938 0.07376 0.01027 0.0
C1600 C 0.25658 0.70716 0.26532 0.0
C1601 C 0.25162 0.71502 0.28259 0.0
C1602 C 0.2356 0.71586 0.25256 0.0
C1603 C 0.20955 0.73367 0.25714 0.0
C1604 C 0.20406 0.74105 0.27463 0.0
C1605 C 0.22501 0.73123 0.28721 0.0
C1606 C 0.24179 0.70677 0.23409 0.0
C1607 C 0.17694 0.76061 0.27994 0.0
C1608 C 0.18032 0.78265 0.2201 0.0
C1609 C 0.15562 0.76475 0.21427 0.0
C1610 C 0.19692 0.77377 0.23475 0.0
C1611 C 0.18914 0.74585 0.24342 0.0
C1612 C 0.16347 0.72835 0.23798 0.0
C1613 C 0.14673 0.73826 0.22358 0.0
C1614 C 0.22363 0.79354 0.24048 0.0
C1615 C 0.15488 0.69811 0.24667 0.0
H1616 H 0.27709 0.69446 0.26178 0.0
H1617 H 0.22134 0.7376 0.30056 0.0
H1618 H 0.22128 0.69552 0.22841 0.0
H1619 H 0.24676 0.7279 0.22636 0.0
H1620 H 0.2615 0.69056 0.23292 0.0
H1621 H 0.1748 0.76251 0.29415 0.0
H1622 H 0.17935 0.78439 0.2745 0.0
H1623 H 0.15544 0.75066 0.27471 0.0
H1624 H 0.18708 0.80325 0.21298 0.0
H1625 H 0.12779 0.72422 0.21899 0.0
H1626 H 0.24536 0.78101 0.23791 0.0
H1627 H 0.22243 0.79789 0.25455 0.0
H1628 H 0.22437 0.8163 0.23368 0.0
H1629 H 0.17296 0.68051 0.24421 0.0
H1630 H 0.13273 0.68879 0.2419 0.0
H1631 H 0.15334 0.70126 0.26081 0.0
C1632 C 0.46639 0.94668 0.43237 0.0
C1633 C 0.46265 0.97765 0.42695 0.0
C1634 C 0.47284 0.9396 0.44965 0.0
C1635 C 0.47597 0.96412 0.46167 0.0
C1636 C 0.47275 0.99544 0.45618 0.0
C1637 C 0.46589 0.00179 0.43892 0.0
C1638 C 0.47566 0.90598 0.45511 0.0
C1639 C 0.47624 0.02233 0.46858 0.0
C1640 C 0.461 0.96158 0.50923 0.0
C1641 C 0.49068 0.96506 0.51571 0.0
C1642 C 0.45596 0.9574 0.49159 0.0
C1643 C 0.48125 0.95762 0.48022 0.0
C1644 C 0.51142 0.95775 0.48694 0.0
C1645 C 0.5158 0.96126 0.50475 0.0
C1646 C 0.42345 0.9565 0.48501 0.0
C1647 C 0.539 0.95805 0.47525 0.0
H1648 H 0.46383 0.92791 0.42315 0.0
H1649 H 0.46329 0.02575 0.43477 0.0
H1650 H 0.49762 0.90215 0.46196 0.0
H1651 H 0.45701 0.90014 0.46425 0.0
H1652 H 0.47442 0.88974 0.444 0.0
H1653 H 0.47457 0.0453 0.46205 0.0
H1654 H 0.45819 0.0211 0.4786 0.0
H1655 H 0.49869 0.02093 0.47521 0.0
H1656 H 0.44163 0.96465 0.5178 0.0
H1657 H 0.53873 0.96438 0.5098 0.0
H1658 H 0.42108 0.93943 0.47438 0.0
H1659 H 0.41718 0.97975 0.47986 0.0
H1660 H 0.40698 0.95039 0.49537 0.0
H1661 H 0.53603 0.94163 0.46436 0.0
H1662 H 0.56029 0.95193 0.48231 0.0
H1663 H 0.54181 0.98174 0.46975 0.0
C1664 C 0.28206 0.28908 0.7957 0.0
C1665 C 0.2552 0.30496 0.7912 0.0
C1666 C 0.30234 0.2785 0.78297 0.0
C1667 C 0.29581 0.28468 0.76544 0.0
C1668 C 0.26996 0.30286 0.76099 0.0
C1669 C 0.24971 0.31244 0.77392 0.0
C1670 C 0.32939 0.25876 0.78819 0.0
C1671 C 0.26267 0.31066 0.74247 0.0
C1672 C 0.3542 0.27092 0.7301 0.0
C1673 C 0.34277 0.24361 0.72258 0.0
C1674 C 0.33974 0.28422 0.74447 0.0
C1675 C 0.31378 0.26937 0.75162 0.0
C1676 C 0.30333 0.2408 0.74467 0.0
C1677 C 0.31772 0.22849 0.73007 0.0
C1678 C 0.35116 0.31498 0.75134 0.0
C1679 C 0.27617 0.22385 0.75221 0.0
H1680 H 0.28621 0.28309 0.80906 0.0
H1681 H 0.22904 0.32496 0.77047 0.0
H1682 H 0.32512 0.23422 0.7844 0.0
H1683 H 0.35044 0.26648 0.78145 0.0
H1684 H 0.33352 0.2595 0.8023 0.0
H1685 H 0.24411 0.32825 0.74138 0.0
H1686 H 0.28331 0.31967 0.73581 0.0
H1687 H 0.25531 0.28926 0.73562 0.0
H1688 H 0.37346 0.28276 0.72423 0.0
H1689 H 0.30905 0.20722 0.72434 0.0
H1690 H 0.35391 0.31394 0.76553 0.0
H1691 H 0.33405 0.3334 0.74853 0.0
H1692 H 0.37335 0.32188 0.7455 0.0
H1693 H 0.27899 0.22112 0.76633 0.0
H1694 H 0.27294 0.20044 0.74641 0.0
H1695 H 0.25506 0.23766 0.75002 0.0
C1696 C 0.01068 0.0338 0.92049 0.0
C1697 C 0.03523 0.0134 0.9175 0.0
C1698 C 0.99454 0.03316 0.93611 0.0
C1699 C 0.00341 0.01184 0.94906 0.0
C1700 C 0.02932 0.99253 0.94649 0.0
C1701 C 0.04479 0.99339 0.93069 0.0
C1702 C 0.96694 0.05394 0.93831 0.0
C1703 C 0.03978 0.96977 0.96012 0.0
C1704 C 0.97461 0.0133 0.99516 0.0
C1705 C 0.95461 0.98782 0.99494 0.0
C1706 C 0.98952 0.02287 0.98001 0.0
C1707 C 0.98376 0.00679 0.96441 0.0
C1708 C 0.9614 0.98296 0.96394 0.0
C1709 C 0.94734 0.97356 0.97926 0.0
C1710 C 0.01323 0.04835 0.98102 0.0
C1711 C 0.95403 0.96569 0.94751 0.0
H1712 H 0.00314 0.04936 0.91035 0.0
H1713 H 0.06395 0.97782 0.92851 0.0
H1714 H 0.94584 0.03961 0.93774 0.0
H1715 H 0.96737 0.06553 0.95107 0.0
H1716 H 0.96558 0.07206 0.92812 0.0
H1717 H 0.06208 0.95885 0.95685 0.0
H1718 H 0.04197 0.98164 0.97274 0.0
H1719 H 0.02246 0.95106 0.96159 0.0
H1720 H 0.98041 0.02411 0.00734 0.0
H1721 H 0.93172 0.95392 0.97913 0.0
H1722 H 0.01109 0.06453 0.96995 0.0
H1723 H 0.03641 0.03783 0.98044 0.0
H1724 H 0.01134 0.06189 0.99316 0.0
H1725 H 0.94999 0.98231 0.9368 0.0
H1726 H 0.93353 0.95059 0.94889 0.0
H1727 H 0.97376 0.95083 0.94384 0.0
C1728 C 0.72315 0.7729 0.70622 0.0
C1729 C 0.74981 0.78929 0.71054 0.0
C1730 C 0.70303 0.76244 0.71907 0.0
C1731 C 0.70946 0.76932 0.73653 0.0
C1732 C 0.73551 0.78734 0.74082 0.0
C1733 C 0.75562 0.79671 0.72778 0.0
C1734 C 0.67585 0.74272 0.71406 0.0
C1735 C 0.7427 0.79588 0.75925 0.0
C1736 C 0.64967 0.7632 0.77166 0.0
C1737 C 0.65981 0.73674 0.78059 0.0
C1738 C 0.6648 0.77345 0.75678 0.0
C1739 C 0.69014 0.75635 0.75051 0.0
C1740 C 0.69901 0.72836 0.75877 0.0
C1741 C 0.68399 0.71911 0.77388 0.0
C1742 C 0.65505 0.80371 0.74852 0.0
C1743 C 0.72541 0.70904 0.75218 0.0
H1744 H 0.71883 0.76689 0.69288 0.0
H1745 H 0.77616 0.80956 0.73108 0.0
H1746 H 0.67908 0.7187 0.71901 0.0
H1747 H 0.6546 0.75198 0.71996 0.0
H1748 H 0.67269 0.74159 0.69988 0.0
H1749 H 0.76225 0.81232 0.76022 0.0
H1750 H 0.72241 0.80665 0.76544 0.0
H1751 H 0.74842 0.77456 0.76665 0.0
H1752 H 0.63109 0.77701 0.77689 0.0
H1753 H 0.69169 0.6985 0.78069 0.0
H1754 H 0.65277 0.80095 0.73438 0.0
H1755 H 0.67286 0.82165 0.75083 0.0
H1756 H 0.63298 0.81237 0.75377 0.0
H1757 H 0.72319 0.70521 0.73811 0.0
H1758 H 0.72683 0.68604 0.7587 0.0
H1759 H 0.74721 0.72165 0.7544 0.0
C1760 C 0.74304 0.17555 0.22734 0.0
C1761 C 0.74729 0.18272 0.20991 0.0
C1762 C 0.76338 0.18662 0.23986 0.0
C1763 C 0.78803 0.206 0.23484 0.0
C1764 C 0.79331 0.21202 0.21717 0.0
C1765 C 0.77301 0.19995 0.20486 0.0
C1766 C 0.75748 0.17897 0.25855 0.0
C1767 C 0.81903 0.23299 0.21135 0.0
C1768 C 0.8101 0.2637 0.26949 0.0
C1769 C 0.8363 0.24978 0.27645 0.0
C1770 C 0.79514 0.2505 0.2553 0.0
C1771 C 0.80623 0.22226 0.24823 0.0
C1772 C 0.83325 0.20862 0.25486 0.0
C1773 C 0.8482 0.22278 0.26881 0.0
C1774 C 0.76679 0.26617 0.2483 0.0
C1775 C 0.8454 0.17824 0.24787 0.0
H1776 H 0.72325 0.16204 0.23123 0.0
H1777 H 0.77617 0.20574 0.19138 0.0
H1778 H 0.77886 0.17097 0.26488 0.0
H1779 H 0.74968 0.2002 0.26541 0.0
H1780 H 0.73973 0.16066 0.2601 0.0
H1781 H 0.82223 0.23237 0.19716 0.0
H1782 H 0.81392 0.25732 0.21522 0.0
H1783 H 0.84086 0.2263 0.21763 0.0
H1784 H 0.80103 0.28472 0.2753 0.0
H1785 H 0.86836 0.21184 0.27426 0.0
H1786 H 0.74645 0.25149 0.25098 0.0
H1787 H 0.76853 0.26883 0.23412 0.0
H1788 H 0.76298 0.2895 0.2541 0.0
H1789 H 0.82912 0.15922 0.25098 0.0
H1790 H 0.86812 0.1722 0.25336 0.0
H1791 H 0.84738 0.17928 0.23364 0.0
C1792 C 0.75088 0.19347 0.77146 0.0
C1793 C 0.7746 0.21364 0.77617 0.0
C1794 C 0.73242 0.20002 0.7571 0.0
C1795 C 0.73729 0.22788 0.74771 0.0
C1796 C 0.7606 0.24878 0.75282 0.0
C1797 C 0.77932 0.24114 0.76683 0.0
C1798 C 0.70833 0.17679 0.7517 0.0
C1799 C 0.76589 0.27916 0.74346 0.0
C1800 C 0.71331 0.23464 0.70098 0.0
C1801 C 0.68524 0.25016 0.70239 0.0
C1802 C 0.73002 0.22638 0.71569 0.0
C1803 C 0.71881 0.23481 0.73214 0.0
C1804 C 0.6906 0.25083 0.73362 0.0
C1805 C 0.67386 0.25787 0.7187 0.0
C1806 C 0.75961 0.20858 0.71363 0.0
C1807 C 0.67845 0.26108 0.75092 0.0
H1808 H 0.74737 0.17215 0.77868 0.0
H1809 H 0.79745 0.25693 0.77065 0.0
H1810 H 0.68548 0.18803 0.75145 0.0
H1811 H 0.71319 0.16849 0.73844 0.0
H1812 H 0.70736 0.15634 0.76044 0.0
H1813 H 0.78353 0.29378 0.74984 0.0
H1814 H 0.77337 0.27448 0.73006 0.0
H1815 H 0.74424 0.29261 0.74272 0.0
H1816 H 0.72191 0.22834 0.68835 0.0
H1817 H 0.65217 0.26999 0.71975 0.0
H1818 H 0.75902 0.18705 0.72153 0.0
H1819 H 0.77904 0.22287 0.71831 0.0
H1820 H 0.76409 0.20206 0.70002 0.0
H1821 H 0.67548 0.24065 0.75949 0.0
H1822 H 0.65618 0.27342 0.74984 0.0
H1823 H 0.69519 0.27684 0.75721 0.0
C1824 C 0.78245 0.7919 0.29073 0.0
C1825 C 0.75588 0.80816 0.28609 0.0
C1826 C 0.80271 0.7809 0.27807 0.0
C1827 C 0.79644 0.78702 0.26051 0.0
C1828 C 0.77065 0.80518 0.25591 0.0
C1829 C 0.75046 0.81518 0.26876 0.0
C1830 C 0.82968 0.76117 0.28343 0.0
C1831 C 0.76359 0.81289 0.23735 0.0
C1832 C 0.85478 0.7768 0.22489 0.0
C1833 C 0.84357 0.75005 0.21668 0.0
C1834 C 0.8406 0.78844 0.23976 0.0
C1835 C 0.81511 0.77249 0.24672 0.0
C1836 C 0.80521 0.74419 0.2392 0.0
C1837 C 0.81933 0.73351 0.22412 0.0
C1838 C 0.85151 0.81891 0.24726 0.0
C1839 C 0.77858 0.72608 0.24651 0.0
H1840 H 0.7865 0.78625 0.30414 0.0
H1841 H 0.73 0.82797 0.2652 0.0
H1842 H 0.8257 0.73671 0.27938 0.0
H1843 H 0.85089 0.7692 0.27696 0.0
H1844 H 0.83335 0.76156 0.29758 0.0
H1845 H 0.74452 0.82987 0.23612 0.0
H1846 H 0.78413 0.82266 0.23091 0.0
H1847 H 0.75716 0.79133 0.23036 0.0
H1848 H 0.87346 0.78972 0.21911 0.0
H1849 H 0.81084 0.71263 0.21789 0.0
H1850 H 0.8538 0.81719 0.26145 0.0
H1851 H 0.83435 0.83732 0.24453 0.0
H1852 H 0.87383 0.82629 0.24176 0.0
H1853 H 0.78122 0.72317 0.26063 0.0
H1854 H 0.77632 0.70269 0.24053 0.0
H1855 H 0.75703 0.73914 0.24426 0.0
C1856 C 0.54254 0.49379 0.06711 0.0
C1857 C 0.529 0.47534 0.07987 0.0
C1858 C 0.52931 0.49634 0.05072 0.0
C1859 C 0.50165 0.4804 0.04713 0.0
C1860 C 0.48875 0.46043 0.05967 0.0
C1861 C 0.5027 0.458 0.07589 0.0
C1862 C 0.54403 0.51752 0.03759 0.0
C1863 C 0.45919 0.44323 0.05637 0.0
C1864 C 0.45342 0.52539 0.01548 0.0
C1865 C 0.46016 0.51022 -1e-05 0.0
C1866 C 0.46508 0.51446 0.03113 0.0
C1867 C 0.48445 0.48804 0.0312 0.0
C1868 C 0.48969 0.47139 0.01573 0.0
C1869 C 0.47721 0.4826 0.00023 0.0
C1870 C 0.45834 0.5325 0.04739 0.0
C1871 C 0.51028 0.44318 0.01532 0.0
H1872 H 0.56307 0.50693 0.07006 0.0
H1873 H 0.49211 0.44365 0.0857 0.0
H1874 H 0.54601 0.5055 0.02499 0.0
H1875 H 0.52947 0.5384 0.03563 0.0
H1876 H 0.56716 0.52535 0.04166 0.0
H1877 H 0.45457 0.42534 0.06637 0.0
H1878 H 0.43992 0.46007 0.0563 0.0
H1879 H 0.45964 0.43178 0.04357 0.0
H1880 H 0.43999 0.54663 0.01527 0.0
H1881 H 0.48257 0.47101 0.98821 0.0
H1882 H 0.47942 0.54451 0.05179 0.0
H1883 H 0.45105 0.51652 0.05784 0.0
H1884 H 0.44018 0.55028 0.04544 0.0
H1885 H 0.53443 0.45074 0.01677 0.0
H1886 H 0.50812 0.43011 0.00304 0.0
H1887 H 0.50505 0.42726 0.02617 0.0
C1888 C 0.03057 0.53118 0.49003 0.0
C1889 C 0.00719 0.53051 0.47775 0.0
C1890 C 0.02376 0.53623 0.50747 0.0
C1891 C 0.99291 0.54084 0.5125 0.0
C1892 C 0.96988 0.54387 0.49979 0.0
C1893 C 0.97728 0.53824 0.48252 0.0
C1894 C 0.04899 0.53282 0.52061 0.0
C1895 C 0.93684 0.54939 0.50455 0.0
C1896 C 0.96692 0.50107 0.55348 0.0
C1897 C 0.96562 0.52595 0.56511 0.0
C1898 C 0.97614 0.50572 0.53641 0.0
C1899 C 0.98388 0.53609 0.53074 0.0
C1900 C 0.98241 0.56139 0.54236 0.0
C1901 C 0.97345 0.55599 0.55947 0.0
C1902 C 0.97763 0.47801 0.52444 0.0
C1903 C 0.99009 0.5941 0.53668 0.0
H1904 H 0.0536 0.52463 0.48628 0.0
H1905 H 0.95921 0.5373 0.47294 0.0
H1906 H 0.04658 0.55027 0.53104 0.0
H1907 H 0.04754 0.50937 0.52658 0.0
H1908 H 0.07199 0.53534 0.51467 0.0
H1909 H 0.92313 0.55725 0.49331 0.0
H1910 H 0.92674 0.52738 0.50944 0.0
H1911 H 0.93493 0.56704 0.51493 0.0
H1912 H 0.96108 0.4778 0.55778 0.0
H1913 H 0.9724 0.57535 0.5684 0.0
H1914 H 0.00098 0.47581 0.51897 0.0
H1915 H 0.96158 0.48138 0.51352 0.0
H1916 H 0.97171 0.45584 0.53102 0.0
H1917 H 0.01374 0.59493 0.53151 0.0
H1918 H 0.98813 0.61118 0.54737 0.0
H1919 H 0.97452 0.60132 0.52612 0.0
C1920 C 0.04755 0.49515 0.99347 0.0
C1921 C 0.0355 0.48491 0.00916 0.0
C1922 C 0.0343 0.48613 0.97786 0.0
C1923 C 0.00802 0.46685 0.97806 0.0
C1924 C 0.99777 0.45382 0.9938 0.0
C1925 C 0.01181 0.46298 0.00928 0.0
C1926 C 0.04644 0.50001 0.96134 0.0
C1927 C 0.9701 0.43286 0.9945 0.0
C1928 C 0.95348 0.4915 0.94287 0.0
C1929 C 0.96052 0.4702 0.92982 0.0
C1930 C 0.96727 0.48925 0.95912 0.0
C1931 C 0.98875 0.46518 0.96234 0.0
C1932 C 0.99442 0.4424 0.9496 0.0
C1933 C 0.98019 0.44516 0.93346 0.0
C1934 C 0.9603 0.51385 0.97246 0.0
C1935 C 0.01699 0.41633 0.95255 0.0
H1936 H 0.06593 0.51214 0.99347 0.0
H1937 H 0.00236 0.45534 0.02148 0.0
H1938 H 0.04809 0.482 0.95115 0.0
H1939 H 0.03043 0.51826 0.95672 0.0
H1940 H 0.06935 0.51077 0.96312 0.0
H1941 H 0.96914 0.41955 0.00675 0.0
H1942 H 0.94907 0.44725 0.99352 0.0
H1943 H 0.97001 0.41625 0.98356 0.0
H1944 H 0.93802 0.51066 0.94022 0.0
H1945 H 0.98563 0.42844 0.92347 0.0
H1946 H 0.9808 0.52869 0.97443 0.0
H1947 H 0.95471 0.50284 0.98499 0.0
H1948 H 0.94091 0.52904 0.96858 0.0
H1949 H 0.04061 0.4256 0.95147 0.0
H1950 H 0.01424 0.39734 0.94296 0.0
H1951 H 0.01444 0.40642 0.96567 0.0
C1952 C 0.50259 0.54472 0.42672 0.0
C1953 C 0.5279 0.52578 0.42288 0.0
C1954 C 0.48727 0.5421 0.44253 0.0
C1955 C 0.49771 0.52024 0.45483 0.0
C1956 C 0.52432 0.5024 0.45141 0.0
C1957 C 0.53899 0.50525 0.43543 0.0
C1958 C 0.45892 0.56139 0.44564 0.0
C1959 C 0.53643 0.47911 0.4643 0.0
C1960 C 0.47196 0.51658 0.50143 0.0
C1961 C 0.45327 0.49009 0.50098 0.0
C1962 C 0.48522 0.52822 0.48624 0.0
C1963 C 0.47914 0.51317 0.47037 0.0
C1964 C 0.45784 0.48837 0.46974 0.0
C1965 C 0.44539 0.47695 0.48509 0.0
C1966 C 0.50774 0.55476 0.48743 0.0
C1967 C 0.45014 0.47212 0.45304 0.0
H1968 H 0.49386 0.56067 0.41707 0.0
H1969 H 0.5587 0.49079 0.43261 0.0
H1970 H 0.43843 0.54617 0.44498 0.0
H1971 H 0.45942 0.57191 0.45868 0.0
H1972 H 0.45631 0.58026 0.43596 0.0
H1973 H 0.55895 0.46938 0.46041 0.0
H1974 H 0.53887 0.49012 0.47715 0.0
H1975 H 0.51996 0.45959 0.46564 0.0
H1976 H 0.47824 0.52659 0.51375 0.0
H1977 H 0.43076 0.45655 0.48477 0.0
H1978 H 0.50425 0.57159 0.47676 0.0
H1979 H 0.53135 0.54546 0.48624 0.0
H1980 H 0.50588 0.56732 0.49989 0.0
H1981 H 0.44482 0.48937 0.44284 0.0
H1982 H 0.43034 0.45609 0.45443 0.0
H1983 H 0.47019 0.45838 0.44866 0.0
C1984 C 0.28289 0.2139 0.36529 0.0
C1985 C 0.25634 0.19736 0.36081 0.0
C1986 C 0.3107 0.19827 0.36824 0.0
C1987 C 0.31193 0.16547 0.36651 0.0
C1988 C 0.2849 0.14863 0.36275 0.0
C1989 C 0.25749 0.16475 0.36001 0.0
C1990 C 0.33897 0.21695 0.37249 0.0
C1991 C 0.28516 0.11361 0.36077 0.0
C1992 C 0.38096 0.12126 0.35074 0.0
C1993 C 0.38903 0.1041 0.36543 0.0
C1994 C 0.3574 0.14334 0.35126 0.0
C1995 C 0.34162 0.14858 0.3669 0.0
C1996 C 0.35158 0.13357 0.38215 0.0
C1997 C 0.37519 0.11138 0.38123 0.0
C1998 C 0.34765 0.15897 0.33471 0.0
C1999 C 0.33575 0.13906 0.39914 0.0
H2000 H 0.28216 0.23909 0.36607 0.0
H2001 H 0.23707 0.1517 0.35673 0.0
H2002 H 0.35179 0.20599 0.38324 0.0
H2003 H 0.35438 0.21744 0.36115 0.0
H2004 H 0.33333 0.24133 0.37607 0.0
H2005 H 0.26186 0.1039 0.35876 0.0
H2006 H 0.29961 0.10705 0.3496 0.0
H2007 H 0.29524 0.10255 0.37237 0.0
H2008 H 0.39188 0.1162 0.33852 0.0
H2009 H 0.38148 0.0985 0.3927 0.0
H2010 H 0.3445 0.18433 0.33669 0.0
H2011 H 0.32532 0.14927 0.3305 0.0
H2012 H 0.36453 0.1554 0.3242 0.0
H2013 H 0.33077 0.16417 0.401 0.0
H2014 H 0.34969 0.13062 0.41016 0.0
H2015 H 0.31357 0.12647 0.39925 0.0
C2016 C 0.1445 0.0738 0.6607 0.0
C2017 C 0.12737 0.06911 0.64563 0.0
C2018 C 0.17049 0.09284 0.66072 0.0
C2019 C 0.17921 0.10829 0.64539 0.0
C2020 C 0.16093 0.10534 0.63041 0.0
C2021 C 0.13539 0.0854 0.63063 0.0
C2022 C 0.1896 0.09492 0.67691 0.0
C2023 C 0.169 0.12228 0.61401 0.0
C2024 C 0.23964 0.17008 0.65313 0.0
C2025 C 0.26647 0.15371 0.64913 0.0
C2026 C 0.21076 0.15635 0.65081 0.0
C2027 C 0.20885 0.12524 0.64489 0.0
C2028 C 0.23588 0.109 0.64033 0.0
C2029 C 0.26436 0.12362 0.64228 0.0
C2030 C 0.18241 0.17472 0.6553 0.0
C2031 C 0.23491 0.07555 0.63433 0.0
H2032 H 0.13857 0.06129 0.67235 0.0
H2033 H 0.12213 0.08207 0.61898 0.0
H2034 H 0.21261 0.08489 0.67448 0.0
H2035 H 0.19288 0.11959 0.68067 0.0
H2036 H 0.17906 0.08229 0.6879 0.0
H2037 H 0.1502 0.12121 0.60439 0.0
H2038 H 0.17432 0.14706 0.61674 0.0
H2039 H 0.18976 0.1117 0.60823 0.0
H2040 H 0.24123 0.19353 0.65822 0.0
H2041 H 0.28509 0.1109 0.6392 0.0
H2042 H 0.17227 0.16547 0.66735 0.0
H2043 H 0.16493 0.17231 0.64501 0.0
H2044 H 0.18746 0.19985 0.6572 0.0
H2045 H 0.22614 0.06054 0.64487 0.0
H2046 H 0.25781 0.06682 0.63041 0.0
H2047 H 0.21901 0.07306 0.62329 0.0
C2048 C 0.25921 0.84138 0.84333 0.0
C2049 C 0.25964 0.80881 0.84461 0.0
C2050 C 0.23234 0.85828 0.84638 0.0
C2051 C 0.20515 0.84226 0.85086 0.0
C2052 C 0.20555 0.80947 0.85264 0.0
C2053 C 0.23282 0.79308 0.84946 0.0
C2054 C 0.23288 0.89328 0.84434 0.0
C2055 C 0.17703 0.79166 0.85747 0.0
C2056 C 0.14451 0.8966 0.86858 0.0
C2057 C 0.12894 0.9048 0.85345 0.0
C2058 C 0.1681 0.87436 0.86826 0.0
C2059 C 0.17611 0.86005 0.85245 0.0
C2060 C 0.15866 0.86628 0.8375 0.0
C2061 C 0.1353 0.88858 0.83818 0.0
C2062 C 0.18597 0.86803 0.88452 0.0
C2063 C 0.16622 0.85131 0.82042 0.0
H2064 H 0.27983 0.85376 0.83969 0.0
H2065 H 0.233 0.76792 0.85058 0.0
H2066 H 0.21747 0.90027 0.83366 0.0
H2067 H 0.22434 0.90463 0.85624 0.0
H2068 H 0.2562 0.90228 0.84155 0.0
H2069 H 0.18178 0.76661 0.85985 0.0
H2070 H 0.16649 0.80183 0.86919 0.0
H2071 H 0.15994 0.79353 0.84695 0.0
H2072 H 0.13962 0.90892 0.88045 0.0
H2073 H 0.12304 0.89444 0.82648 0.0
H2074 H 0.20852 0.87982 0.88373 0.0
H2075 H 0.19033 0.84273 0.88606 0.0
H2076 H 0.17385 0.87672 0.89614 0.0
H2077 H 0.1881 0.86096 0.8155 0.0
H2078 H 0.14816 0.85552 0.81062 0.0
H2079 H 0.16932 0.82583 0.82195 0.0
C2080 C 0.24398 0.84269 0.1423 0.0
C2081 C 0.24098 0.81047 0.13995 0.0
C2082 C 0.27091 0.85823 0.13767 0.0
C2083 C 0.29549 0.84118 0.13043 0.0
C2084 C 0.29233 0.80882 0.12749 0.0
C2085 C 0.2651 0.79379 0.13235 0.0
C2086 C 0.27337 0.8928 0.14106 0.0
C2087 C 0.31797 0.78998 0.11968 0.0
C2088 C 0.35435 0.89521 0.11084 0.0
C2089 C 0.37336 0.90043 0.1251 0.0
C2090 C 0.33015 0.87373 0.1118 0.0
C2091 C 0.32509 0.85722 0.12734 0.0
C2092 C 0.34614 0.86015 0.14108 0.0
C2093 C 0.37001 0.88174 0.13979 0.0
C2094 C 0.30846 0.87082 0.09676 0.0
C2095 C 0.34181 0.84275 0.15782 0.0
H2096 H 0.22542 0.8558 0.14807 0.0
H2097 H 0.26287 0.76891 0.13037 0.0
H2098 H 0.2917 0.89724 0.15064 0.0
H2099 H 0.27971 0.90525 0.12906 0.0
H2100 H 0.25167 0.90285 0.14602 0.0
H2101 H 0.31064 0.76593 0.1164 0.0
H2102 H 0.32668 0.80148 0.10786 0.0
H2103 H 0.33731 0.78856 0.1289 0.0
H2104 H 0.35692 0.90947 0.09941 0.0
H2105 H 0.385 0.8853 0.15075 0.0
H2106 H 0.2872 0.88401 0.09959 0.0
H2107 H 0.30193 0.84616 0.09463 0.0
H2108 H 0.31858 0.88024 0.08472 0.0
H2109 H 0.32207 0.85279 0.16489 0.0
H2110 H 0.36235 0.84422 0.16622 0.0
H2111 H 0.33663 0.81787 0.15536 0.0
C2112 C 0.69642 0.84436 0.62926 0.0
C2113 C 0.72538 0.85354 0.62328 0.0
C2114 C 0.66966 0.85909 0.6234 0.0
C2115 C 0.67188 0.88361 0.61128 0.0
C2116 C 0.70089 0.89205 0.60463 0.0
C2117 C 0.72728 0.87691 0.61069 0.0
C2118 C 0.63915 0.84929 0.63074 0.0
C2119 C 0.70421 0.91801 0.59164 0.0
C2120 C 0.60123 0.91232 0.58733 0.0
C2121 C 0.59371 0.93919 0.59672 0.0
C2122 C 0.62628 0.89363 0.59207 0.0
C2123 C 0.64423 0.90202 0.60653 0.0
C2124 C 0.63629 0.92868 0.61628 0.0
C2125 C 0.61116 0.9469 0.61127 0.0
C2126 C 0.63396 0.8653 0.58141 0.0
C2127 C 0.65478 0.9384 0.63182 0.0
H2128 H 0.69466 0.82623 0.63892 0.0
H2129 H 0.7495 0.88411 0.60594 0.0
H2130 H 0.62965 0.86841 0.63872 0.0
H2131 H 0.62255 0.84475 0.62022 0.0
H2132 H 0.64101 0.82806 0.63886 0.0
H2133 H 0.72803 0.92018 0.58678 0.0
H2134 H 0.68871 0.91405 0.58054 0.0
H2135 H 0.6975 0.94045 0.59763 0.0
H2136 H 0.58788 0.90616 0.57607 0.0
H2137 H 0.60554 0.96757 0.61863 0.0
H2138 H 0.63521 0.84434 0.58973 0.0
H2139 H 0.65679 0.86832 0.57538 0.0
H2140 H 0.61687 0.86107 0.57107 0.0
H2141 H 0.65588 0.91903 0.64126 0.0
H2142 H 0.64506 0.95921 0.63832 0.0
H2143 H 0.67861 0.94376 0.62787 0.0
C2144 C 0.87205 0.9766 0.39404 0.0
C2145 C 0.88659 0.97086 0.40983 0.0
C2146 C 0.85014 0.95591 0.38745 0.0
C2147 C 0.84269 0.92864 0.39681 0.0
C2148 C 0.85809 0.92207 0.41244 0.0
C2149 C 0.87979 0.94333 0.41881 0.0
C2150 C 0.83421 0.96381 0.37075 0.0
C2151 C 0.851 0.89307 0.42268 0.0
C2152 C 0.76315 0.89683 0.38807 0.0
C2153 C 0.7691 0.87388 0.37567 0.0
C2154 C 0.78703 0.91404 0.39553 0.0
C2155 C 0.81765 0.908 0.39057 0.0
C2156 C 0.82394 0.88383 0.3787 0.0
C2157 C 0.79959 0.86712 0.37134 0.0
C2158 C 0.77935 0.93966 0.40813 0.0
C2159 C 0.8563 0.87647 0.37323 0.0
H2160 H 0.87713 0.99777 0.387 0.0
H2161 H 0.89099 0.93863 0.43099 0.0
H2162 H 0.83656 0.9443 0.36148 0.0
H2163 H 0.80939 0.96722 0.37312 0.0
H2164 H 0.84349 0.98528 0.3647 0.0
H2165 H 0.86664 0.89012 0.43384 0.0
H2166 H 0.82714 0.89417 0.42752 0.0
H2167 H 0.85273 0.87216 0.41434 0.0
H2168 H 0.73971 0.90219 0.39154 0.0
H2169 H 0.80444 0.8493 0.36184 0.0
H2170 H 0.78554 0.96255 0.40249 0.0
H2171 H 0.79285 0.93685 0.42013 0.0
H2172 H 0.75464 0.94004 0.41151 0.0
H2173 H 0.86564 0.89616 0.36562 0.0
H2174 H 0.85759 0.85501 0.36527 0.0
H2175 H 0.87121 0.87351 0.38468 0.0
C2176 C 0.78838 0.13346 0.12302 0.0
C2177 C 0.75798 0.12613 0.1188 0.0
C2178 C 0.81297 0.11777 0.11524 0.0
C2179 C 0.807 0.09403 0.10305 0.0
C2180 C 0.77643 0.08755 0.09816 0.0
C2181 C 0.75231 0.10377 0.10603 0.0
C2182 C 0.84525 0.12563 0.12065 0.0
C2183 C 0.76909 0.06234 0.08524 0.0
C2184 C 0.86947 0.06043 0.07439 0.0
C2185 C 0.87665 0.03273 0.08311 0.0
C2186 C 0.84755 0.08122 0.08099 0.0
C2187 C 0.83233 0.07399 0.09659 0.0
C2188 C 0.84021 0.04658 0.1057 0.0
C2189 C 0.86233 0.02638 0.09889 0.0
C2190 C 0.84 0.11042 0.07103 0.0
C2191 C 0.82449 0.03796 0.12236 0.0
H2192 H 0.793 0.15088 0.13278 0.0
H2193 H 0.72892 0.09798 0.10264 0.0
H2194 H 0.855 0.10597 0.12813 0.0
H2195 H 0.86 0.12906 0.10918 0.0
H2196 H 0.84622 0.14695 0.12873 0.0
H2197 H 0.74439 0.06177 0.08186 0.0
H2198 H 0.78254 0.0658 0.07328 0.0
H2199 H 0.77559 0.03932 0.09061 0.0
H2200 H 0.88049 0.06557 0.06222 0.0
H2201 H 0.8677 0.00507 0.10574 0.0
H2202 H 0.84128 0.13108 0.07957 0.0
H2203 H 0.8162 0.10902 0.06611 0.0
H2204 H 0.85565 0.114 0.05993 0.0
H2205 H 0.82664 0.05722 0.13179 0.0
H2206 H 0.83409 0.01644 0.12819 0.0
H2207 H 0.7997 0.03428 0.11999 0.0
C2208 C 0.63165 0.06936 0.90628 0.0
C2209 C 0.62677 0.04003 0.8988 0.0
C2210 C 0.65316 0.09022 0.89932 0.0
C2211 C 0.67034 0.0814 0.88465 0.0
C2212 C 0.66476 0.05226 0.87673 0.0
C2213 C 0.64297 0.03202 0.88385 0.0
C2214 C 0.65822 0.12124 0.908 0.0
C2215 C 0.68266 0.04191 0.8611 0.0
C2216 C 0.71443 0.14009 0.85764 0.0
C2217 C 0.74445 0.13573 0.86364 0.0
C2218 C 0.68985 0.1234 0.86478 0.0
C2219 C 0.69545 0.10165 0.87812 0.0
C2220 C 0.72556 0.0978 0.88454 0.0
C2221 C 0.74964 0.11497 0.87727 0.0
C2222 C 0.65802 0.12839 0.85772 0.0
C2223 C 0.73252 0.07471 0.89869 0.0
H2224 H 0.61915 0.07579 0.91779 0.0
H2225 H 0.63939 0.00943 0.87796 0.0
H2226 H 0.68147 0.1219 0.91373 0.0
H2227 H 0.65689 0.14038 0.89843 0.0
H2228 H 0.64123 0.12572 0.91835 0.0
H2229 H 0.67456 0.01919 0.856 0.0
H2230 H 0.68088 0.05958 0.85073 0.0
H2231 H 0.70724 0.03969 0.86448 0.0
H2232 H 0.71016 0.15622 0.84718 0.0
H2233 H 0.77273 0.11145 0.88201 0.0
H2234 H 0.64176 0.13327 0.86836 0.0
H2235 H 0.65007 0.10689 0.85119 0.0
H2236 H 0.65709 0.14793 0.84836 0.0
H2237 H 0.71785 0.07933 0.91006 0.0
H2238 H 0.75687 0.07554 0.90279 0.0
H2239 H 0.72729 0.05078 0.89418 0.0
C2240 C 0.7542 0.65367 0.84897 0.0
C2241 C 0.75273 0.68602 0.85126 0.0
C2242 C 0.78078 0.63701 0.85305 0.0
C2243 C 0.80657 0.65304 0.85964 0.0
C2244 C 0.80508 0.68558 0.86236 0.0
C2245 C 0.77816 0.70174 0.85808 0.0
C2246 C 0.78146 0.60228 0.84992 0.0
C2247 C 0.83208 0.70336 0.86945 0.0
C2248 C 0.86399 0.59751 0.87942 0.0
C2249 C 0.88247 0.59092 0.86511 0.0
C2250 C 0.84044 0.61971 0.87831 0.0
C2251 C 0.83546 0.63559 0.86257 0.0
C2252 C 0.85587 0.63108 0.84866 0.0
C2253 C 0.87913 0.60881 0.8501 0.0
C2254 C 0.81939 0.62423 0.89351 0.0
C2255 C 0.85157 0.64775 0.8317 0.0
H2256 H 0.73465 0.6413 0.84378 0.0
H2257 H 0.77714 0.72673 0.85998 0.0
H2258 H 0.79914 0.59667 0.84014 0.0
H2259 H 0.78773 0.58984 0.86193 0.0
H2260 H 0.7591 0.59319 0.84532 0.0
H2261 H 0.82641 0.72812 0.87212 0.0
H2262 H 0.84034 0.69235 0.88151 0.0
H2263 H 0.85125 0.70264 0.86009 0.0
H2264 H 0.86655 0.58391 0.89109 0.0
H2265 H 0.89367 0.60421 0.83908 0.0
H2266 H 0.79736 0.61222 0.89098 0.0
H2267 H 0.81428 0.64928 0.89548 0.0
H2268 H 0.82932 0.6146 0.90556 0.0
H2269 H 0.83111 0.63825 0.82505 0.0
H2270 H 0.87165 0.64492 0.82307 0.0
H2271 H 0.84756 0.67297 0.8338 0.0
C2272 C 0.761 0.63339 0.13736 0.0
C2273 C 0.763 0.66335 0.14439 0.0
C2274 C 0.7329 0.6177 0.13661 0.0
C2275 C 0.70607 0.63271 0.14259 0.0
C2276 C 0.70769 0.6637 0.14873 0.0
C2277 C 0.73627 0.6785 0.14982 0.0
C2278 C 0.73226 0.58442 0.13031 0.0
C2279 C 0.67944 0.68079 0.15473 0.0
C2280 C 0.63222 0.5909 0.13106 0.0
C2281 C 0.6268 0.57379 0.14615 0.0
C2282 C 0.657 0.61169 0.12999 0.0
C2283 C 0.67719 0.61468 0.14417 0.0
C2284 C 0.67111 0.59836 0.15962 0.0
C2285 C 0.6458 0.57846 0.16048 0.0
C2286 C 0.66225 0.62951 0.1135 0.0
C2287 C 0.69233 0.60049 0.17495 0.0
H2288 H 0.78166 0.6216 0.13319 0.0
H2289 H 0.73773 0.70186 0.15506 0.0
H2290 H 0.72552 0.56877 0.14104 0.0
H2291 H 0.71497 0.58167 0.11997 0.0
H2292 H 0.75483 0.57668 0.1253 0.0
H2293 H 0.68386 0.706 0.15676 0.0
H2294 H 0.66067 0.67816 0.14521 0.0
H2295 H 0.67135 0.67065 0.16705 0.0
H2296 H 0.61749 0.58757 0.11998 0.0
H2297 H 0.64187 0.56528 0.17219 0.0
H2298 H 0.68256 0.61996 0.10675 0.0
H2299 H 0.667 0.65438 0.11631 0.0
H2300 H 0.64228 0.62804 0.10468 0.0
H2301 H 0.71523 0.59132 0.1714 0.0
H2302 H 0.68374 0.58712 0.18621 0.0
H2303 H 0.69538 0.62512 0.17887 0.0
C2304 C 0.73747 0.32602 0.3474 0.0
C2305 C 0.76446 0.34284 0.35034 0.0
C2306 C 0.70868 0.3397 0.35017 0.0
C2307 C 0.70697 0.37122 0.35542 0.0
C2308 C 0.73422 0.38794 0.35894 0.0
C2309 C 0.76263 0.37338 0.35659 0.0
C2310 C 0.68015 0.32081 0.34684 0.0
C2311 C 0.73346 0.42181 0.36418 0.0
C2312 C 0.64168 0.42171 0.33991 0.0
C2313 C 0.62589 0.42799 0.35527 0.0
C2314 C 0.6674 0.40229 0.33972 0.0
C2315 C 0.67721 0.38803 0.35518 0.0
C2316 C 0.66009 0.39234 0.37049 0.0
C2317 C 0.63479 0.41264 0.37041 0.0
C2318 C 0.6852 0.39872 0.32315 0.0
C2319 C 0.66927 0.37664 0.38709 0.0
H2320 H 0.73885 0.30222 0.3428 0.0
H2321 H 0.78348 0.38644 0.35886 0.0
H2322 H 0.66339 0.3241 0.35742 0.0
H2323 H 0.66912 0.32887 0.33477 0.0
H2324 H 0.68525 0.29557 0.34556 0.0
H2325 H 0.75658 0.43097 0.36731 0.0
H2326 H 0.72372 0.43596 0.35355 0.0
H2327 H 0.71847 0.42502 0.37556 0.0
H2328 H 0.63502 0.43334 0.3281 0.0
H2329 H 0.62258 0.41714 0.3823 0.0
H2330 H 0.68825 0.37374 0.31998 0.0
H2331 H 0.70836 0.40896 0.32472 0.0
H2332 H 0.67379 0.41035 0.31209 0.0
H2333 H 0.67481 0.35176 0.38481 0.0
H2334 H 0.65096 0.37814 0.39698 0.0
H2335 H 0.69015 0.38793 0.39229 0.0
C2336 C 0.87343 0.39482 0.61006 0.0
C2337 C 0.87888 0.40853 0.62618 0.0
C2338 C 0.84892 0.374 0.6077 0.0
C2339 C 0.82903 0.36755 0.62165 0.0
C2340 C 0.83531 0.38023 0.63809 0.0
C2341 C 0.86035 0.40018 0.64019 0.0
C2342 C 0.84357 0.36001 0.59013 0.0
C2343 C 0.81449 0.37432 0.65329 0.0
C2344 C 0.74467 0.35133 0.61565 0.0
C2345 C 0.74263 0.3205 0.62144 0.0
C2346 C 0.77304 0.36645 0.61461 0.0
C2347 C 0.80006 0.35002 0.61901 0.0
C2348 C 0.79833 0.31806 0.62337 0.0
C2349 C 0.76954 0.30378 0.62481 0.0
C2350 C 0.77378 0.4007 0.61019 0.0
C2351 C 0.8267 0.29945 0.62754 0.0
H2352 H 0.8878 0.40094 0.5992 0.0
H2353 H 0.86433 0.4106 0.6527 0.0
H2354 H 0.83799 0.33487 0.59123 0.0
H2355 H 0.82379 0.37166 0.58392 0.0
H2356 H 0.86383 0.36275 0.58162 0.0
H2357 H 0.82311 0.38524 0.66532 0.0
H2358 H 0.79135 0.38377 0.65054 0.0
H2359 H 0.81198 0.34895 0.65554 0.0
H2360 H 0.72391 0.36435 0.61304 0.0
H2361 H 0.76804 0.27978 0.62908 0.0
H2362 H 0.79103 0.40534 0.60004 0.0
H2363 H 0.78057 0.41424 0.62175 0.0
H2364 H 0.7512 0.40937 0.60568 0.0
H2365 H 0.84531 0.30479 0.61828 0.0
H2366 H 0.82218 0.274 0.62733 0.0
H2367 H 0.83499 0.30579 0.64058 0.0
C2368 C 0.12188 0.43916 0.09619 0.0
C2369 C 0.109 0.42776 0.08088 0.0
C2370 C 0.14472 0.42248 0.10493 0.0
C2371 C 0.1547 0.39347 0.09834 0.0
C2372 C 0.14075 0.38109 0.08337 0.0
C2373 C 0.11818 0.39847 0.07476 0.0
C2374 C 0.15913 0.43659 0.1208 0.0
C2375 C 0.15044 0.35001 0.0761 0.0
C2376 C 0.23622 0.37002 0.1093 0.0
C2377 C 0.23182 0.34976 0.12325 0.0
C2378 C 0.21128 0.38394 0.10091 0.0
C2379 C 0.18113 0.37724 0.10649 0.0
C2380 C 0.17646 0.35618 0.12026 0.0
C2381 C 0.20187 0.3428 0.12854 0.0
C2382 C 0.21724 0.40644 0.08634 0.0
C2383 C 0.14465 0.34821 0.12645 0.0
H2384 H 0.11498 0.46176 0.10104 0.0
H2385 H 0.10823 0.38939 0.063 0.0
H2386 H 0.15828 0.41985 0.13167 0.0
H2387 H 0.1836 0.44174 0.11824 0.0
H2388 H 0.14762 0.45849 0.12481 0.0
H2389 H 0.13541 0.34231 0.06538 0.0
H2390 H 0.17426 0.35161 0.07124 0.0
H2391 H 0.15016 0.33195 0.08632 0.0
H2392 H 0.25926 0.37555 0.10512 0.0
H2393 H 0.19824 0.32703 0.13925 0.0
H2394 H 0.20839 0.42985 0.08979 0.0
H2395 H 0.20491 0.39882 0.07458 0.0
H2396 H 0.24198 0.40852 0.08326 0.0
H2397 H 0.13345 0.36935 0.13171 0.0
H2398 H 0.14483 0.32998 0.1366 0.0
H2399 H 0.13044 0.33996 0.11553 0.0
C2400 C 0.38059 0.43524 0.92175 0.0
C2401 C 0.38602 0.46274 0.91245 0.0
C2402 C 0.35908 0.41324 0.91598 0.0
C2403 C 0.34249 0.41901 0.90065 0.0
C2404 C 0.34863 0.44621 0.89093 0.0
C2405 C 0.37037 0.46765 0.89691 0.0
C2406 C 0.35342 0.38433 0.92658 0.0
C2407 C 0.33141 0.45326 0.87451 0.0
C2408 C 0.29899 0.35621 0.87643 0.0
C2409 C 0.26866 0.36257 0.88127 0.0
C2410 C 0.32349 0.3734 0.88326 0.0
C2411 C 0.3175 0.39766 0.89513 0.0
C2412 C 0.28711 0.4032 0.90067 0.0
C2413 C 0.26308 0.38552 0.89373 0.0
C2414 C 0.35561 0.36653 0.87719 0.0
C2415 C 0.27976 0.42888 0.9133 0.0
H2416 H 0.39266 0.43119 0.93373 0.0
H2417 H 0.3744 0.48879 0.88963 0.0
H2418 H 0.32996 0.38508 0.93203 0.0
H2419 H 0.35488 0.36327 0.91835 0.0
H2420 H 0.37001 0.38196 0.93734 0.0
H2421 H 0.33979 0.47476 0.8681 0.0
H2422 H 0.33357 0.43354 0.86537 0.0
H2423 H 0.3067 0.45618 0.87739 0.0
H2424 H 0.30356 0.33838 0.86689 0.0
H2425 H 0.23977 0.39057 0.89759 0.0
H2426 H 0.37136 0.36437 0.88833 0.0
H2427 H 0.36398 0.38612 0.86915 0.0
H2428 H 0.35682 0.3448 0.86946 0.0
H2429 H 0.2942 0.42666 0.92498 0.0
H2430 H 0.25532 0.42873 0.91725 0.0
H2431 H 0.28497 0.4518 0.90738 0.0
C2432 C 0.37447 0.54169 0.58941 0.0
C2433 C 0.38362 0.55067 0.57281 0.0
C2434 C 0.35264 0.55893 0.59861 0.0
C2435 C 0.33986 0.58608 0.59115 0.0
C2436 C 0.35006 0.59612 0.57476 0.0
C2437 C 0.37168 0.57819 0.56573 0.0
C2438 C 0.34228 0.54732 0.61602 0.0
C2439 C 0.33734 0.6252 0.56649 0.0
C2440 C 0.25997 0.60732 0.60644 0.0
C2441 C 0.2661 0.62986 0.61905 0.0
C2442 C 0.28373 0.5935 0.59698 0.0
C2443 C 0.3144 0.60262 0.60006 0.0
C2444 C 0.32066 0.62622 0.61228 0.0
C2445 C 0.29646 0.63946 0.6217 0.0
C2446 C 0.27607 0.5683 0.58411 0.0
C2447 C 0.35301 0.63686 0.61577 0.0
H2448 H 0.38352 0.52046 0.595 0.0
H2449 H 0.37875 0.58543 0.55297 0.0
H2450 H 0.34453 0.56602 0.62578 0.0
H2451 H 0.31772 0.54078 0.61542 0.0
H2452 H 0.35558 0.52674 0.62041 0.0
H2453 H 0.34972 0.63147 0.55449 0.0
H2454 H 0.31283 0.62166 0.56332 0.0
H2455 H 0.33867 0.6451 0.57557 0.0
H2456 H 0.23663 0.59974 0.60429 0.0
H2457 H 0.30142 0.65699 0.63135 0.0
H2458 H 0.28657 0.54597 0.58824 0.0
H2459 H 0.28573 0.57419 0.57132 0.0
H2460 H 0.251 0.56478 0.58272 0.0
H2461 H 0.36628 0.61755 0.62163 0.0
H2462 H 0.35382 0.6572 0.6246 0.0
H2463 H 0.36455 0.64319 0.60354 0.0
C2464 C 0.10998 0.58546 0.40498 0.0
C2465 C 0.10412 0.55817 0.39558 0.0
C2466 C 0.13393 0.60563 0.4003 0.0
C2467 C 0.15246 0.59832 0.38591 0.0
C2468 C 0.14614 0.57125 0.37612 0.0
C2469 C 0.12207 0.55154 0.38107 0.0
C2470 C 0.13989 0.63432 0.41102 0.0
C2471 C 0.16529 0.56267 0.36064 0.0
C2472 C 0.20184 0.65901 0.36361 0.0
C2473 C 0.23115 0.65139 0.36973 0.0
C2474 C 0.17582 0.64274 0.36926 0.0
C2475 C 0.17916 0.61826 0.38132 0.0
C2476 C 0.20847 0.6114 0.38814 0.0
C2477 C 0.23409 0.62805 0.38227 0.0
C2478 C 0.14495 0.65087 0.36175 0.0
C2479 C 0.21297 0.58556 0.40109 0.0
H2480 H 0.09623 0.59081 0.41621 0.0
H2481 H 0.11773 0.53056 0.37371 0.0
H2482 H 0.16273 0.63254 0.41719 0.0
H2483 H 0.1402 0.65534 0.40271 0.0
H2484 H 0.1224 0.63761 0.42124 0.0
H2485 H 0.15672 0.54143 0.35405 0.0
H2486 H 0.16551 0.58216 0.35126 0.0
H2487 H 0.18931 0.55854 0.36468 0.0
H2488 H 0.19928 0.67708 0.35396 0.0
H2489 H 0.25658 0.62204 0.38713 0.0
H2490 H 0.12795 0.65438 0.37218 0.0
H2491 H 0.13667 0.63131 0.35367 0.0
H2492 H 0.1458 0.67223 0.35369 0.0
H2493 H 0.19711 0.58858 0.41211 0.0
H2494 H 0.23679 0.58466 0.40607 0.0
H2495 H 0.20755 0.56283 0.39501 0.0
loop_
_geom_bond_atom_site_label_1
_geom_bond_atom_site_label_2
_geom_bond_distance
_geom_bond_site_symmetry_2
_ccdc_geom_bond_type
Zn0 O3 2.031 . S
Zn0 O5 2.049 . S
Zn0 O10 2.067 . S
Zn1 O2 1.962 . S
Zn1 O4 1.986 . S
Zn1 O6 1.996 . S
Zn1 O9 1.943 . S
O2 Zn1 1.962 . S
O2 C7 1.254 . S
O3 Zn0 2.031 . S
O3 C7 1.269 . S
O4 Zn1 1.986 . S
O4 C11 1.262 . S
O5 Zn0 2.049 . S
O5 C13 1.260 . S
O6 Zn1 1.996 . S
O6 C13 1.257 . S
C7 O2 1.254 . S
C7 O3 1.269 . S
C8 O9 1.249 . S
C8 O10 1.270 . S
O9 Zn1 1.943 . S
O9 C8 1.249 . S
O10 Zn0 2.067 . S
O10 C8 1.270 . S
C11 O4 1.262 . S
C11 O12 1.232 . S
O12 C11 1.232 . S
C13 O5 1.260 . S
C13 O6 1.257 . S
Zn14 O17 2.031 . S
Zn14 O19 2.022 1_565 S
Zn14 O24 2.067 . S
Zn15 O16 1.962 . S
Zn15 O18 1.986 . S
Zn15 O20 1.976 1_565 S
Zn15 O23 1.943 . S
O16 Zn15 1.962 . S
O16 C21 1.254 . S
O17 Zn14 2.031 . S
O17 C21 1.269 . S
O18 Zn15 1.986 . S
O18 C25 1.262 . S
O19 Zn14 2.022 1_545 S
O19 C27 1.275 . S
O20 Zn15 1.976 1_545 S
O20 C27 1.269 . S
C21 O16 1.254 . S
C21 O17 1.269 . S
C22 O23 1.249 . S
C22 O24 1.270 . S
O23 Zn15 1.943 . S
O23 C22 1.249 . S
O24 Zn14 2.067 . S
O24 C22 1.270 . S
C25 O18 1.262 . S
C25 O26 1.232 . S
O26 C25 1.232 . S
C27 O19 1.275 . S
C27 O20 1.269 . S
Zn28 O31 2.031 . S
Zn28 O33 2.049 . S
Zn28 O38 2.067 . S
Zn29 O30 1.962 . S
Zn29 O32 1.986 . S
Zn29 O34 1.996 . S
Zn29 O37 1.943 . S
O30 Zn29 1.962 . S
O30 C35 1.254 . S
O31 Zn28 2.031 . S
O31 C35 1.269 . S
O32 Zn29 1.986 . S
O32 C39 1.262 . S
O33 Zn28 2.049 . S
O33 C41 1.260 . S
O34 Zn29 1.996 . S
O34 C41 1.257 . S
C35 O30 1.254 . S
C35 O31 1.269 . S
C36 O37 1.249 . S
C36 O38 1.270 . S
O37 Zn29 1.943 . S
O37 C36 1.249 . S
O38 Zn28 2.067 . S
O38 C36 1.270 . S
C39 O32 1.262 . S
C39 O40 1.232 . S
O40 C39 1.232 . S
C41 O33 1.260 . S
C41 O34 1.257 . S
Zn42 O45 2.031 . S
Zn42 O47 2.022 1_545 S
Zn42 O52 2.067 . S
Zn43 O44 1.962 . S
Zn43 O46 1.986 . S
Zn43 O48 1.977 1_545 S
Zn43 O51 1.943 . S
O44 Zn43 1.962 . S
O44 C49 1.254 . S
O45 Zn42 2.031 . S
O45 C49 1.269 . S
O46 Zn43 1.986 . S
O46 C53 1.262 . S
O47 Zn42 2.022 1_565 S
O47 C55 1.274 . S
O48 Zn43 1.977 1_565 S
O48 C55 1.269 . S
C49 O44 1.254 . S
C49 O45 1.269 . S
C50 O51 1.249 . S
C50 O52 1.270 . S
O51 Zn43 1.943 . S
O51 C50 1.249 . S
O52 Zn42 2.067 . S
O52 C50 1.270 . S
C53 O46 1.262 . S
C53 O54 1.232 . S
O54 C53 1.232 . S
C55 O47 1.274 . S
C55 O48 1.269 . S
Zn56 O59 2.031 . S
Zn56 O61 2.049 . S
Zn56 O66 2.067 . S
Zn57 O58 1.962 . S
Zn57 O60 1.986 . S
Zn57 O62 1.996 . S
Zn57 O65 1.943 . S
O58 Zn57 1.962 . S
O58 C63 1.254 . S
O59 Zn56 2.031 . S
O59 C63 1.269 . S
O60 Zn57 1.986 . S
O60 C67 1.262 . S
O61 Zn56 2.049 . S
O61 C69 1.260 . S
O62 Zn57 1.996 . S
O62 C69 1.257 . S
C63 O58 1.254 . S
C63 O59 1.269 . S
C64 O65 1.249 . S
C64 O66 1.270 . S
O65 Zn57 1.943 . S
O65 C64 1.249 . S
O66 Zn56 2.067 . S
O66 C64 1.270 . S
C67 O60 1.262 . S
C67 O68 1.232 . S
O68 C67 1.232 . S
C69 O61 1.260 . S
C69 O62 1.257 . S
Zn70 O73 2.031 . S
Zn70 O75 2.022 1_565 S
Zn70 O80 2.067 . S
Zn71 O72 1.962 . S
Zn71 O74 1.986 . S
Zn71 O76 1.977 1_565 S
Zn71 O79 1.943 . S
O72 Zn71 1.962 . S
O72 C77 1.254 . S
O73 Zn70 2.031 . S
O73 C77 1.269 . S
O74 Zn71 1.986 . S
O74 C81 1.262 . S
O75 Zn70 2.022 1_545 S
O75 C83 1.274 . S
O76 Zn71 1.977 1_545 S
O76 C83 1.269 . S
C77 O72 1.254 . S
C77 O73 1.269 . S
C78 O79 1.249 . S
C78 O80 1.270 . S
O79 Zn71 1.943 . S
O79 C78 1.249 . S
O80 Zn70 2.067 . S
O80 C78 1.270 . S
C81 O74 1.262 . S
C81 O82 1.232 . S
O82 C81 1.232 . S
C83 O75 1.274 . S
C83 O76 1.269 . S
Zn84 O87 2.031 . S
Zn84 O89 2.049 . S
Zn84 O94 2.067 . S
Zn85 O86 1.962 . S
Zn85 O88 1.986 . S
Zn85 O90 1.996 . S
Zn85 O93 1.943 . S
O86 Zn85 1.962 . S
O86 C91 1.254 . S
O87 Zn84 2.031 . S
O87 C91 1.269 . S
O88 Zn85 1.986 . S
O88 C95 1.262 . S
O89 Zn84 2.049 . S
O89 C97 1.260 . S
O90 Zn85 1.996 . S
O90 C97 1.257 . S
C91 O86 1.254 . S
C91 O87 1.269 . S
C92 O93 1.249 . S
C92 O94 1.270 . S
O93 Zn85 1.943 . S
O93 C92 1.249 . S
O94 Zn84 2.067 . S
O94 C92 1.270 . S
C95 O88 1.262 . S
C95 O96 1.232 . S
O96 C95 1.232 . S
C97 O89 1.260 . S
C97 O90 1.257 . S
Zn98 O101 2.031 . S
Zn98 O103 2.022 1_545 S
Zn98 O108 2.067 . S
Zn99 O100 1.962 . S
Zn99 O102 1.986 . S
Zn99 O104 1.976 1_545 S
Zn99 O107 1.943 . S
O100 Zn99 1.962 . S
O100 C105 1.254 . S
O101 Zn98 2.031 . S
O101 C105 1.269 . S
O102 Zn99 1.986 . S
O102 C109 1.262 . S
O103 Zn98 2.022 1_565 S
O103 C111 1.275 . S
O104 Zn99 1.976 1_565 S
O104 C111 1.269 . S
C105 O100 1.254 . S
C105 O101 1.269 . S
C106 O107 1.249 . S
C106 O108 1.270 . S
O107 Zn99 1.943 . S
O107 C106 1.249 . S
O108 Zn98 2.067 . S
O108 C106 1.270 . S
C109 O102 1.262 . S
C109 O110 1.232 . S
O110 C109 1.232 . S
C111 O103 1.275 . S
C111 O104 1.269 . S
Zn112 O115 2.031 . S
Zn112 O117 2.049 . S
Zn112 O122 2.067 . S
Zn113 O114 1.962 . S
Zn113 O116 1.986 . S
Zn113 O118 1.996 . S
Zn113 O121 1.943 . S
O114 Zn113 1.962 . S
O114 C119 1.254 . S
O115 Zn112 2.031 . S
O115 C119 1.269 . S
O116 Zn113 1.986 . S
O116 C123 1.262 . S
O117 Zn112 2.049 . S
O117 C125 1.260 . S
O118 Zn113 1.996 . S
O118 C125 1.257 . S
C119 O114 1.254 . S
C119 O115 1.269 . S
C120 O121 1.249 . S
C120 O122 1.270 . S
O121 Zn113 1.943 . S
O121 C120 1.249 . S
O122 Zn112 2.067 . S
O122 C120 1.270 . S
C123 O116 1.262 . S
C123 O124 1.232 . S
O124 C123 1.232 . S
C125 O117 1.260 . S
C125 O118 1.257 . S
Zn126 O129 2.031 . S
Zn126 O131 2.049 . S
Zn126 O136 2.067 1_655 S
Zn127 O128 1.962 . S
Zn127 O130 1.986 1_545 S
Zn127 O132 1.996 . S
Zn127 O135 1.943 . S
O128 Zn127 1.962 . S
O128 C133 1.254 . S
O129 Zn126 2.031 . S
O129 C133 1.269 . S
O130 Zn127 1.986 1_565 S
O130 C137 1.262 . S
O131 Zn126 2.049 . S
O131 C139 1.260 . S
O132 Zn127 1.996 . S
O132 C139 1.257 . S
C133 O128 1.254 . S
C133 O129 1.269 . S
C134 O135 1.249 . S
C134 O136 1.270 1_655 S
O135 Zn127 1.943 . S
O135 C134 1.249 . S
O136 Zn126 2.067 1_455 S
O136 C134 1.270 1_455 S
C137 O130 1.262 . S
C137 O138 1.232 1_565 S
O138 C137 1.232 1_545 S
C139 O131 1.260 . S
C139 O132 1.257 . S
Zn140 O143 2.031 . S
Zn140 O145 2.049 . S
Zn140 O150 2.067 . S
Zn141 O142 1.962 . S
Zn141 O144 1.986 . S
Zn141 O146 1.996 . S
Zn141 O149 1.943 . S
O142 Zn141 1.962 . S
O142 C147 1.254 . S
O143 Zn140 2.031 . S
O143 C147 1.269 . S
O144 Zn141 1.986 . S
O144 C151 1.262 . S
O145 Zn140 2.049 . S
O145 C153 1.260 . S
O146 Zn141 1.996 . S
O146 C153 1.257 . S
C147 O142 1.254 . S
C147 O143 1.269 . S
C148 O149 1.249 . S
C148 O150 1.270 . S
O149 Zn141 1.943 . S
O149 C148 1.249 . S
O150 Zn140 2.067 . S
O150 C148 1.270 . S
C151 O144 1.262 . S
C151 O152 1.232 . S
O152 C151 1.232 . S
C153 O145 1.260 . S
C153 O146 1.257 . S
Zn154 O157 2.031 . S
Zn154 O159 2.049 . S
Zn154 O164 2.067 . S
Zn155 O156 1.962 . S
Zn155 O158 1.986 1_565 S
Zn155 O160 1.996 . S
Zn155 O163 1.943 . S
O156 Zn155 1.962 . S
O156 C161 1.254 . S
O157 Zn154 2.031 . S
O157 C161 1.269 . S
O158 Zn155 1.986 1_545 S
O158 C165 1.262 . S
O159 Zn154 2.049 . S
O159 C167 1.260 . S
O160 Zn155 1.996 . S
O160 C167 1.257 . S
C161 O156 1.254 . S
C161 O157 1.269 . S
C162 O163 1.249 . S
C162 O164 1.270 . S
O163 Zn155 1.943 . S
O163 C162 1.249 . S
O164 Zn154 2.067 . S
O164 C162 1.270 . S
C165 O158 1.262 . S
C165 O166 1.232 1_545 S
O166 C165 1.232 1_565 S
C167 O159 1.260 . S
C167 O160 1.257 . S
Zn168 O171 2.031 . S
Zn168 O173 2.049 . S
Zn168 O178 2.067 . S
Zn169 O170 1.962 . S
Zn169 O172 1.986 . S
Zn169 O174 1.996 . S
Zn169 O177 1.943 . S
O170 Zn169 1.962 . S
O170 C175 1.254 . S
O171 Zn168 2.031 . S
O171 C175 1.269 . S
O172 Zn169 1.986 . S
O172 C179 1.262 . S
O173 Zn168 2.049 . S
O173 C181 1.260 . S
O174 Zn169 1.996 . S
O174 C181 1.257 . S
C175 O170 1.254 . S
C175 O171 1.269 . S
C176 O177 1.249 . S
C176 O178 1.270 . S
O177 Zn169 1.943 . S
O177 C176 1.249 . S
O178 Zn168 2.067 . S
O178 C176 1.270 . S
C179 O172 1.262 . S
C179 O180 1.232 . S
O180 C179 1.232 . S
C181 O173 1.260 . S
C181 O174 1.257 . S
Zn182 O185 2.031 . S
Zn182 O187 2.049 . S
Zn182 O192 2.067 . S
Zn183 O184 1.962 . S
Zn183 O186 1.986 1_545 S
Zn183 O188 1.996 . S
Zn183 O191 1.943 . S
O184 Zn183 1.962 . S
O184 C189 1.254 . S
O185 Zn182 2.031 . S
O185 C189 1.269 . S
O186 Zn183 1.986 1_565 S
O186 C193 1.262 . S
O187 Zn182 2.049 . S
O187 C195 1.260 . S
O188 Zn183 1.996 . S
O188 C195 1.257 . S
C189 O184 1.254 . S
C189 O185 1.269 . S
C190 O191 1.249 . S
C190 O192 1.270 . S
O191 Zn183 1.943 . S
O191 C190 1.249 . S
O192 Zn182 2.067 . S
O192 C190 1.270 . S
C193 O186 1.262 . S
C193 O194 1.232 1_565 S
O194 C193 1.232 1_545 S
C195 O187 1.260 . S
C195 O188 1.257 . S
Zn196 O199 2.031 . S
Zn196 O201 2.049 . S
Zn196 O206 2.067 . S
Zn197 O198 1.962 . S
Zn197 O200 1.986 . S
Zn197 O202 1.996 . S
Zn197 O205 1.943 . S
O198 Zn197 1.962 . S
O198 C203 1.254 . S
O199 Zn196 2.031 . S
O199 C203 1.269 . S
O200 Zn197 1.986 . S
O200 C207 1.262 . S
O201 Zn196 2.049 . S
O201 C209 1.260 . S
O202 Zn197 1.996 . S
O202 C209 1.257 . S
C203 O198 1.254 . S
C203 O199 1.269 . S
C204 O205 1.249 . S
C204 O206 1.270 . S
O205 Zn197 1.943 . S
O205 C204 1.249 . S
O206 Zn196 2.067 . S
O206 C204 1.270 . S
C207 O200 1.262 . S
C207 O208 1.232 . S
O208 C207 1.232 . S
C209 O201 1.260 . S
C209 O202 1.257 . S
Zn210 O213 2.031 . S
Zn210 O215 2.049 . S
Zn210 O220 2.067 1_655 S
Zn211 O212 1.962 . S
Zn211 O214 1.986 1_565 S
Zn211 O216 1.996 . S
Zn211 O219 1.943 . S
O212 Zn211 1.962 . S
O212 C217 1.254 . S
O213 Zn210 2.031 . S
O213 C217 1.269 . S
O214 Zn211 1.986 1_545 S
O214 C221 1.262 . S
O215 Zn210 2.049 . S
O215 C223 1.260 . S
O216 Zn211 1.996 . S
O216 C223 1.257 . S
C217 O212 1.254 . S
C217 O213 1.269 . S
C218 O219 1.249 . S
C218 O220 1.270 1_655 S
O219 Zn211 1.943 . S
O219 C218 1.249 . S
O220 Zn210 2.067 1_455 S
O220 C218 1.270 1_455 S
C221 O214 1.262 . S
C221 O222 1.232 1_545 S
O222 C221 1.232 1_565 S
C223 O215 1.260 . S
C223 O216 1.257 . S
Zn224 O227 2.031 . S
Zn224 O229 2.049 . S
Zn224 O234 2.067 . S
Zn225 O226 1.962 . S
Zn225 O228 1.986 . S
Zn225 O230 1.996 . S
Zn225 O233 1.943 . S
O226 Zn225 1.962 . S
O226 C231 1.254 . S
O227 Zn224 2.031 . S
O227 C231 1.269 . S
O228 Zn225 1.986 . S
O228 C235 1.262 . S
O229 Zn224 2.049 . S
O229 C237 1.260 . S
O230 Zn225 1.996 . S
O230 C237 1.257 . S
C231 O226 1.254 . S
C231 O227 1.269 . S
C232 O233 1.249 . S
C232 O234 1.270 . S
O233 Zn225 1.943 . S
O233 C232 1.249 . S
O234 Zn224 2.067 . S
O234 C232 1.270 . S
C235 O228 1.262 . S
C235 O236 1.232 . S
O236 C235 1.232 . S
C237 O229 1.260 . S
C237 O230 1.257 . S
Zn238 O241 2.031 . S
Zn238 O243 2.049 . S
Zn238 O248 2.067 . S
Zn239 O240 1.962 . S
Zn239 O242 1.986 . S
Zn239 O244 1.996 . S
Zn239 O247 1.943 . S
O240 Zn239 1.962 . S
O240 C245 1.254 . S
O241 Zn238 2.031 . S
O241 C245 1.269 . S
O242 Zn239 1.986 . S
O242 C249 1.262 . S
O243 Zn238 2.049 . S
O243 C251 1.260 . S
O244 Zn239 1.996 . S
O244 C251 1.257 . S
C245 O240 1.254 . S
C245 O241 1.269 . S
C246 O247 1.249 . S
C246 O248 1.270 . S
O247 Zn239 1.943 . S
O247 C246 1.249 . S
O248 Zn238 2.067 . S
O248 C246 1.270 . S
C249 O242 1.262 . S
C249 O250 1.232 . S
O250 C249 1.232 . S
C251 O243 1.260 . S
C251 O244 1.257 . S
Zn252 O255 2.031 . S
Zn252 O257 2.049 . S
Zn252 O262 2.067 . S
Zn253 O254 1.962 . S
Zn253 O256 1.986 . S
Zn253 O258 1.996 . S
Zn253 O261 1.943 . S
O254 Zn253 1.962 . S
O254 C259 1.254 . S
O255 Zn252 2.031 . S
O255 C259 1.269 . S
O256 Zn253 1.986 . S
O256 C263 1.262 . S
O257 Zn252 2.049 . S
O257 C265 1.260 . S
O258 Zn253 1.996 . S
O258 C265 1.257 . S
C259 O254 1.254 . S
C259 O255 1.269 . S
C260 O261 1.249 . S
C260 O262 1.270 . S
O261 Zn253 1.943 . S
O261 C260 1.249 . S
O262 Zn252 2.067 . S
O262 C260 1.270 . S
C263 O256 1.262 . S
C263 O264 1.232 . S
O264 C263 1.232 . S
C265 O257 1.260 . S
C265 O258 1.257 . S
Zn266 O269 2.031 . S
Zn266 O271 2.049 . S
Zn266 O276 2.067 . S
Zn267 O268 1.962 . S
Zn267 O270 1.986 . S
Zn267 O272 1.996 . S
Zn267 O275 1.943 . S
O268 Zn267 1.962 . S
O268 C273 1.254 . S
O269 Zn266 2.031 . S
O269 C273 1.269 . S
O270 Zn267 1.986 . S
O270 C277 1.262 . S
O271 Zn266 2.049 . S
O271 C279 1.260 . S
O272 Zn267 1.996 . S
O272 C279 1.257 . S
C273 O268 1.254 . S
C273 O269 1.269 . S
C274 O275 1.249 . S
C274 O276 1.270 . S
O275 Zn267 1.943 . S
O275 C274 1.249 . S
O276 Zn266 2.067 . S
O276 C274 1.270 . S
C277 O270 1.262 . S
C277 O278 1.232 . S
O278 C277 1.232 . S
C279 O271 1.260 . S
C279 O272 1.257 . S
Zn280 O283 2.031 . S
Zn280 O285 2.049 . S
Zn280 O290 2.067 . S
Zn281 O282 1.962 . S
Zn281 O284 1.986 . S
Zn281 O286 1.996 . S
Zn281 O289 1.943 . S
O282 Zn281 1.962 . S
O282 C287 1.254 . S
O283 Zn280 2.031 . S
O283 C287 1.269 . S
O284 Zn281 1.986 . S
O284 C291 1.262 . S
O285 Zn280 2.049 . S
O285 C293 1.260 . S
O286 Zn281 1.996 . S
O286 C293 1.257 . S
C287 O282 1.254 . S
C287 O283 1.269 . S
C288 O289 1.249 . S
C288 O290 1.270 . S
O289 Zn281 1.943 . S
O289 C288 1.249 . S
O290 Zn280 2.067 . S
O290 C288 1.270 . S
C291 O284 1.262 . S
C291 O292 1.232 . S
O292 C291 1.232 . S
C293 O285 1.260 . S
C293 O286 1.257 . S
Zn294 O297 2.031 . S
Zn294 O299 2.049 . S
Zn294 O304 2.067 . S
Zn295 O296 1.962 . S
Zn295 O298 1.986 . S
Zn295 O300 1.996 . S
Zn295 O303 1.943 . S
O296 Zn295 1.962 . S
O296 C301 1.254 . S
O297 Zn294 2.031 . S
O297 C301 1.269 . S
O298 Zn295 1.986 . S
O298 C305 1.262 . S
O299 Zn294 2.049 . S
O299 C307 1.260 . S
O300 Zn295 1.996 . S
O300 C307 1.257 . S
C301 O296 1.254 . S
C301 O297 1.269 . S
C302 O303 1.249 . S
C302 O304 1.270 . S
O303 Zn295 1.943 . S
O303 C302 1.249 . S
O304 Zn294 2.067 . S
O304 C302 1.270 . S
C305 O298 1.262 . S
C305 O306 1.232 . S
O306 C305 1.232 . S
C307 O299 1.260 . S
C307 O300 1.257 . S
Zn308 O311 2.031 . S
Zn308 O313 2.049 . S
Zn308 O318 2.067 . S
Zn309 O310 1.962 . S
Zn309 O312 1.986 . S
Zn309 O314 1.996 . S
Zn309 O317 1.943 . S
O310 Zn309 1.962 . S
O310 C315 1.254 . S
O311 Zn308 2.031 . S
O311 C315 1.269 . S
O312 Zn309 1.986 . S
O312 C319 1.262 . S
O313 Zn308 2.049 . S
O313 C321 1.260 . S
O314 Zn309 1.996 . S
O314 C321 1.257 . S
C315 O310 1.254 . S
C315 O311 1.269 . S
C316 O317 1.249 . S
C316 O318 1.270 . S
O317 Zn309 1.943 . S
O317 C316 1.249 . S
O318 Zn308 2.067 . S
O318 C316 1.270 . S
C319 O312 1.262 . S
C319 O320 1.232 . S
O320 C319 1.232 . S
C321 O313 1.260 . S
C321 O314 1.257 . S
Zn322 O325 2.031 . S
Zn322 O327 2.049 . S
Zn322 O332 2.067 . S
Zn323 O324 1.962 . S
Zn323 O326 1.986 . S
Zn323 O328 1.996 . S
Zn323 O331 1.943 . S
O324 Zn323 1.962 . S
O324 C329 1.254 . S
O325 Zn322 2.031 . S
O325 C329 1.269 . S
O326 Zn323 1.986 . S
O326 C333 1.262 . S
O327 Zn322 2.049 . S
O327 C335 1.260 . S
O328 Zn323 1.996 . S
O328 C335 1.257 . S
C329 O324 1.254 . S
C329 O325 1.269 . S
C330 O331 1.249 . S
C330 O332 1.270 . S
O331 Zn323 1.943 . S
O331 C330 1.249 . S
O332 Zn322 2.067 . S
O332 C330 1.270 . S
C333 O326 1.262 . S
C333 O334 1.232 . S
O334 C333 1.232 . S
C335 O327 1.260 . S
C335 O328 1.257 . S
Zn336 O339 2.031 . S
Zn336 O341 2.049 . S
Zn336 O346 2.067 . S
Zn337 O338 1.962 . S
Zn337 O340 1.986 . S
Zn337 O342 1.996 . S
Zn337 O345 1.943 . S
O338 Zn337 1.962 . S
O338 C343 1.254 . S
O339 Zn336 2.031 . S
O339 C343 1.269 . S
O340 Zn337 1.986 . S
O340 C347 1.262 . S
O341 Zn336 2.049 . S
O341 C349 1.260 . S
O342 Zn337 1.996 . S
O342 C349 1.257 . S
C343 O338 1.254 . S
C343 O339 1.269 . S
C344 O345 1.249 . S
C344 O346 1.270 . S
O345 Zn337 1.943 . S
O345 C344 1.249 . S
O346 Zn336 2.067 . S
O346 C344 1.270 . S
C347 O340 1.262 . S
C347 O348 1.232 . S
O348 C347 1.232 . S
C349 O341 1.260 . S
C349 O342 1.257 . S
Zn350 O353 2.031 . S
Zn350 O355 2.049 . S
Zn350 O360 2.067 . S
Zn351 O352 1.962 . S
Zn351 O354 1.986 . S
Zn351 O356 1.996 . S
Zn351 O359 1.943 . S
O352 Zn351 1.962 . S
O352 C357 1.254 . S
O353 Zn350 2.031 . S
O353 C357 1.269 . S
O354 Zn351 1.986 . S
O354 C361 1.262 . S
O355 Zn350 2.049 . S
O355 C363 1.260 . S
O356 Zn351 1.996 . S
O356 C363 1.257 . S
C357 O352 1.254 . S
C357 O353 1.269 . S
C358 O359 1.249 . S
C358 O360 1.270 . S
O359 Zn351 1.943 . S
O359 C358 1.249 . S
O360 Zn350 2.067 . S
O360 C358 1.270 . S
C361 O354 1.262 . S
C361 O362 1.232 . S
O362 C361 1.232 . S
C363 O355 1.260 . S
C363 O356 1.257 . S
Zn364 O367 2.031 . S
Zn364 O369 2.049 . S
Zn364 O374 2.067 . S
Zn365 O366 1.962 . S
Zn365 O368 1.986 . S
Zn365 O370 1.996 . S
Zn365 O373 1.943 . S
O366 Zn365 1.962 . S
O366 C371 1.254 . S
O367 Zn364 2.031 . S
O367 C371 1.269 . S
O368 Zn365 1.986 . S
O368 C375 1.262 . S
O369 Zn364 2.049 . S
O369 C377 1.260 . S
O370 Zn365 1.996 . S
O370 C377 1.257 . S
C371 O366 1.254 . S
C371 O367 1.269 . S
C372 O373 1.249 . S
C372 O374 1.270 . S
O373 Zn365 1.943 . S
O373 C372 1.249 . S
O374 Zn364 2.067 . S
O374 C372 1.270 . S
C375 O368 1.262 . S
C375 O376 1.232 . S
O376 C375 1.232 . S
C377 O369 1.260 . S
C377 O370 1.257 . S
Zn378 O381 2.031 . S
Zn378 O383 2.049 . S
Zn378 O388 2.067 1_455 S
Zn379 O380 1.962 . S
Zn379 O382 1.986 . S
Zn379 O384 1.996 . S
Zn379 O387 1.943 . S
O380 Zn379 1.962 . S
O380 C385 1.254 . S
O381 Zn378 2.031 . S
O381 C385 1.269 . S
O382 Zn379 1.986 . S
O382 C389 1.262 . S
O383 Zn378 2.049 . S
O383 C391 1.260 . S
O384 Zn379 1.996 . S
O384 C391 1.257 . S
C385 O380 1.254 . S
C385 O381 1.269 . S
C386 O387 1.249 . S
C386 O388 1.270 1_455 S
O387 Zn379 1.943 . S
O387 C386 1.249 . S
O388 Zn378 2.067 1_655 S
O388 C386 1.270 1_655 S
C389 O382 1.262 . S
C389 O390 1.232 . S
O390 C389 1.232 . S
C391 O383 1.260 . S
C391 O384 1.257 . S
Zn392 O395 2.031 . S
Zn392 O397 2.049 . S
Zn392 O402 2.067 . S
Zn393 O394 1.962 . S
Zn393 O396 1.986 . S
Zn393 O398 1.996 . S
Zn393 O401 1.943 . S
O394 Zn393 1.962 . S
O394 C399 1.254 . S
O395 Zn392 2.031 . S
O395 C399 1.269 . S
O396 Zn393 1.986 . S
O396 C403 1.262 . S
O397 Zn392 2.049 . S
O397 C405 1.260 . S
O398 Zn393 1.996 . S
O398 C405 1.257 . S
C399 O394 1.254 . S
C399 O395 1.269 . S
C400 O401 1.249 . S
C400 O402 1.270 . S
O401 Zn393 1.943 . S
O401 C400 1.249 . S
O402 Zn392 2.067 . S
O402 C400 1.270 . S
C403 O396 1.262 . S
C403 O404 1.232 . S
O404 C403 1.232 . S
C405 O397 1.260 . S
C405 O398 1.257 . S
Zn406 O409 2.031 . S
Zn406 O411 2.049 . S
Zn406 O416 2.067 1_455 S
Zn407 O408 1.962 . S
Zn407 O410 1.986 . S
Zn407 O412 1.996 . S
Zn407 O415 1.943 . S
O408 Zn407 1.962 . S
O408 C413 1.254 . S
O409 Zn406 2.031 . S
O409 C413 1.269 . S
O410 Zn407 1.986 . S
O410 C417 1.262 . S
O411 Zn406 2.049 . S
O411 C419 1.260 . S
O412 Zn407 1.996 . S
O412 C419 1.257 . S
C413 O408 1.254 . S
C413 O409 1.269 . S
C414 O415 1.249 . S
C414 O416 1.270 1_455 S
O415 Zn407 1.943 . S
O415 C414 1.249 . S
O416 Zn406 2.067 1_655 S
O416 C414 1.270 1_655 S
C417 O410 1.262 . S
C417 O418 1.232 . S
O418 C417 1.232 . S
C419 O411 1.260 . S
C419 O412 1.257 . S
Zn420 O423 2.031 . S
Zn420 O425 2.049 . S
Zn420 O430 2.067 . S
Zn421 O422 1.962 . S
Zn421 O424 1.986 . S
Zn421 O426 1.996 . S
Zn421 O429 1.943 . S
O422 Zn421 1.962 . S
O422 C427 1.254 . S
O423 Zn420 2.031 . S
O423 C427 1.269 . S
O424 Zn421 1.986 . S
O424 C431 1.262 . S
O425 Zn420 2.049 . S
O425 C433 1.260 . S
O426 Zn421 1.996 . S
O426 C433 1.257 . S
C427 O422 1.254 . S
C427 O423 1.269 . S
C428 O429 1.249 . S
C428 O430 1.270 . S
O429 Zn421 1.943 . S
O429 C428 1.249 . S
O430 Zn420 2.067 . S
O430 C428 1.270 . S
C431 O424 1.262 . S
C431 O432 1.232 . S
O432 C431 1.232 . S
C433 O425 1.260 . S
C433 O426 1.257 . S
Zn434 O437 2.031 . S
Zn434 O439 2.049 . S
Zn434 O444 2.067 . S
Zn435 O436 1.962 . S
Zn435 O438 1.986 . S
Zn435 O440 1.996 . S
Zn435 O443 1.943 . S
O436 Zn435 1.962 . S
O436 C441 1.254 . S
O437 Zn434 2.031 . S
O437 C441 1.269 . S
O438 Zn435 1.986 . S
O438 C445 1.262 . S
O439 Zn434 2.049 . S
O439 C447 1.260 . S
O440 Zn435 1.996 . S
O440 C447 1.257 . S
C441 O436 1.254 . S
C441 O437 1.269 . S
C442 O443 1.249 . S
C442 O444 1.270 . S
O443 Zn435 1.943 . S
O443 C442 1.249 . S
O444 Zn434 2.067 . S
O444 C442 1.270 . S
C445 O438 1.262 . S
C445 O446 1.232 . S
O446 C445 1.232 . S
C447 O439 1.260 . S
C447 O440 1.257 . S
C448 C449 1.391 . S
C448 C450 1.394 . S
C448 H464 0.931 . S
C449 C448 1.391 . S
C449 C453 1.376 . S
C450 C448 1.394 . S
C450 C451 1.369 . S
C450 C454 1.531 . S
C451 C450 1.369 . S
C451 C452 1.410 . S
C451 C459 1.503 . S
C452 C451 1.410 . S
C452 C453 1.392 . S
C452 C455 1.511 . S
C453 C449 1.376 . S
C453 C452 1.392 . S
C453 H465 0.929 . S
C454 C450 1.531 . S
C454 H466 0.960 . S
C454 H467 0.962 . S
C454 H468 0.960 . S
C455 C452 1.511 . S
C455 H469 0.961 . S
C455 H470 0.961 . S
C455 H471 0.961 . S
C456 C457 1.370 . S
C456 C458 1.363 . S
C456 H472 0.931 . S
C457 C456 1.370 . S
C457 C461 1.408 . S
C458 C456 1.363 . S
C458 C459 1.370 . S
C458 C462 1.524 . S
C459 C451 1.503 . S
C459 C458 1.370 . S
C459 C460 1.403 . S
C460 C459 1.403 . S
C460 C461 1.404 . S
C460 C463 1.539 . S
C461 C457 1.408 . S
C461 C460 1.404 . S
C461 H473 0.930 . S
C462 C458 1.524 . S
C462 H474 0.956 . S
C462 H475 0.961 . S
C462 H476 0.961 . S
C463 C460 1.539 . S
C463 H477 0.958 . S
C463 H478 0.961 . S
C463 H479 0.960 . S
H464 C448 0.931 . S
H465 C453 0.929 . S
H466 C454 0.960 . S
H467 C454 0.962 . S
H468 C454 0.960 . S
H469 C455 0.961 . S
H470 C455 0.961 . S
H471 C455 0.961 . S
H472 C456 0.931 . S
H473 C461 0.930 . S
H474 C462 0.956 . S
H475 C462 0.961 . S
H476 C462 0.961 . S
H477 C463 0.958 . S
H478 C463 0.961 . S
H479 C463 0.960 . S
C480 C481 1.391 . S
C480 C482 1.394 . S
C480 H496 0.931 . S
C481 C480 1.391 . S
C481 C485 1.376 . S
C482 C480 1.394 . S
C482 C483 1.369 . S
C482 C486 1.531 . S
C483 C482 1.369 . S
C483 C484 1.410 . S
C483 C491 1.503 . S
C484 C483 1.410 . S
C484 C485 1.392 . S
C484 C487 1.511 . S
C485 C481 1.376 . S
C485 C484 1.392 . S
C485 H497 0.929 . S
C486 C482 1.531 . S
C486 H498 0.960 . S
C486 H499 0.962 . S
C486 H500 0.960 . S
C487 C484 1.511 . S
C487 H501 0.961 . S
C487 H502 0.961 . S
C487 H503 0.961 . S
C488 C489 1.370 . S
C488 C490 1.363 . S
C488 H504 0.931 . S
C489 C488 1.370 . S
C489 C493 1.408 . S
C490 C488 1.363 . S
C490 C491 1.370 . S
C490 C494 1.524 . S
C491 C483 1.503 . S
C491 C490 1.370 . S
C491 C492 1.403 . S
C492 C491 1.403 . S
C492 C493 1.404 . S
C492 C495 1.539 . S
C493 C489 1.408 . S
C493 C492 1.404 . S
C493 H505 0.930 . S
C494 C490 1.524 . S
C494 H506 0.956 . S
C494 H507 0.961 . S
C494 H508 0.961 . S
C495 C492 1.539 . S
C495 H509 0.958 . S
C495 H510 0.961 . S
C495 H511 0.960 . S
H496 C480 0.931 . S
H497 C485 0.929 . S
H498 C486 0.960 . S
H499 C486 0.962 . S
H500 C486 0.960 . S
H501 C487 0.961 . S
H502 C487 0.961 . S
H503 C487 0.961 . S
H504 C488 0.931 . S
H505 C493 0.930 . S
H506 C494 0.956 . S
H507 C494 0.961 . S
H508 C494 0.961 . S
H509 C495 0.958 . S
H510 C495 0.961 . S
H511 C495 0.960 . S
C512 C513 1.391 . S
C512 C514 1.394 . S
C512 H528 0.931 . S
C513 C512 1.391 . S
C513 C517 1.376 . S
C514 C512 1.394 . S
C514 C515 1.369 . S
C514 C518 1.531 . S
C515 C514 1.369 . S
C515 C516 1.410 . S
C515 C523 1.503 . S
C516 C515 1.410 . S
C516 C517 1.392 . S
C516 C519 1.511 . S
C517 C513 1.376 . S
C517 C516 1.392 . S
C517 H529 0.929 . S
C518 C514 1.531 . S
C518 H530 0.960 . S
C518 H531 0.962 . S
C518 H532 0.960 . S
C519 C516 1.511 . S
C519 H533 0.961 . S
C519 H534 0.961 . S
C519 H535 0.961 . S
C520 C521 1.370 . S
C520 C522 1.363 . S
C520 H536 0.931 . S
C521 C520 1.370 . S
C521 C525 1.408 . S
C522 C520 1.363 . S
C522 C523 1.370 . S
C522 C526 1.524 . S
C523 C515 1.503 . S
C523 C522 1.370 . S
C523 C524 1.403 . S
C524 C523 1.403 . S
C524 C525 1.404 . S
C524 C527 1.539 . S
C525 C521 1.408 . S
C525 C524 1.404 . S
C525 H537 0.930 . S
C526 C522 1.524 . S
C526 H538 0.956 . S
C526 H539 0.961 . S
C526 H540 0.961 . S
C527 C524 1.539 . S
C527 H541 0.958 . S
C527 H542 0.961 . S
C527 H543 0.960 . S
H528 C512 0.931 . S
H529 C517 0.929 . S
H530 C518 0.960 . S
H531 C518 0.962 . S
H532 C518 0.960 . S
H533 C519 0.961 . S
H534 C519 0.961 . S
H535 C519 0.961 . S
H536 C520 0.931 . S
H537 C525 0.930 . S
H538 C526 0.956 . S
H539 C526 0.961 . S
H540 C526 0.961 . S
H541 C527 0.958 . S
H542 C527 0.961 . S
H543 C527 0.960 . S
C544 C545 1.391 . S
C544 C546 1.394 . S
C544 H560 0.931 . S
C545 C544 1.391 . S
C545 C549 1.376 . S
C546 C544 1.394 . S
C546 C547 1.369 . S
C546 C550 1.531 . S
C547 C546 1.369 . S
C547 C548 1.410 . S
C547 C555 1.503 . S
C548 C547 1.410 . S
C548 C549 1.392 . S
C548 C551 1.511 . S
C549 C545 1.376 . S
C549 C548 1.392 . S
C549 H561 0.929 . S
C550 C546 1.531 . S
C550 H562 0.960 . S
C550 H563 0.962 . S
C550 H564 0.960 . S
C551 C548 1.511 . S
C551 H565 0.961 . S
C551 H566 0.961 . S
C551 H567 0.961 . S
C552 C553 1.370 . S
C552 C554 1.363 . S
C552 H568 0.931 . S
C553 C552 1.370 . S
C553 C557 1.408 . S
C554 C552 1.363 . S
C554 C555 1.370 . S
C554 C558 1.524 . S
C555 C547 1.503 . S
C555 C554 1.370 . S
C555 C556 1.403 . S
C556 C555 1.403 . S
C556 C557 1.404 . S
C556 C559 1.539 . S
C557 C553 1.408 . S
C557 C556 1.404 . S
C557 H569 0.930 . S
C558 C554 1.524 . S
C558 H570 0.956 . S
C558 H571 0.961 . S
C558 H572 0.961 . S
C559 C556 1.539 . S
C559 H573 0.958 . S
C559 H574 0.961 . S
C559 H575 0.960 . S
H560 C544 0.931 . S
H561 C549 0.929 . S
H562 C550 0.960 . S
H563 C550 0.962 . S
H564 C550 0.960 . S
H565 C551 0.961 . S
H566 C551 0.961 . S
H567 C551 0.961 . S
H568 C552 0.931 . S
H569 C557 0.930 . S
H570 C558 0.956 . S
H571 C558 0.961 . S
H572 C558 0.961 . S
H573 C559 0.958 . S
H574 C559 0.961 . S
H575 C559 0.960 . S
C576 C577 1.391 . S
C576 C578 1.394 . S
C576 H592 0.931 . S
C577 C576 1.391 . S
C577 C581 1.376 . S
C578 C576 1.394 . S
C578 C579 1.369 . S
C578 C582 1.531 . S
C579 C578 1.369 . S
C579 C580 1.410 . S
C579 C587 1.503 . S
C580 C579 1.410 . S
C580 C581 1.392 . S
C580 C583 1.511 . S
C581 C577 1.376 . S
C581 C580 1.392 . S
C581 H593 0.929 . S
C582 C578 1.531 . S
C582 H594 0.960 . S
C582 H595 0.962 . S
C582 H596 0.960 . S
C583 C580 1.511 . S
C583 H597 0.961 . S
C583 H598 0.961 . S
C583 H599 0.961 . S
C584 C585 1.370 . S
C584 C586 1.363 . S
C584 H600 0.931 . S
C585 C584 1.370 . S
C585 C589 1.408 . S
C586 C584 1.363 . S
C586 C587 1.370 . S
C586 C590 1.524 . S
C587 C579 1.503 . S
C587 C586 1.370 . S
C587 C588 1.403 . S
C588 C587 1.403 . S
C588 C589 1.404 . S
C588 C591 1.539 . S
C589 C585 1.408 . S
C589 C588 1.404 . S
C589 H601 0.930 . S
C590 C586 1.524 . S
C590 H602 0.956 . S
C590 H603 0.961 . S
C590 H604 0.961 . S
C591 C588 1.539 . S
C591 H605 0.958 . S
C591 H606 0.961 . S
C591 H607 0.960 . S
H592 C576 0.931 . S
H593 C581 0.929 . S
H594 C582 0.960 . S
H595 C582 0.962 . S
H596 C582 0.960 . S
H597 C583 0.961 . S
H598 C583 0.961 . S
H599 C583 0.961 . S
H600 C584 0.931 . S
H601 C589 0.930 . S
H602 C590 0.956 . S
H603 C590 0.961 . S
H604 C590 0.961 . S
H605 C591 0.958 . S
H606 C591 0.961 . S
H607 C591 0.960 . S
C608 C609 1.391 . S
C608 C610 1.394 . S
C608 H624 0.931 . S
C609 C608 1.391 . S
C609 C613 1.376 . S
C610 C608 1.394 . S
C610 C611 1.369 . S
C610 C614 1.531 . S
C611 C610 1.369 . S
C611 C612 1.410 . S
C611 C619 1.503 . S
C612 C611 1.410 . S
C612 C613 1.392 . S
C612 C615 1.511 . S
C613 C609 1.376 . S
C613 C612 1.392 . S
C613 H625 0.929 . S
C614 C610 1.531 . S
C614 H626 0.960 . S
C614 H627 0.962 . S
C614 H628 0.960 . S
C615 C612 1.511 . S
C615 H629 0.961 . S
C615 H630 0.961 . S
C615 H631 0.961 . S
C616 C617 1.370 . S
C616 C618 1.363 . S
C616 H632 0.931 . S
C617 C616 1.370 . S
C617 C621 1.408 . S
C618 C616 1.363 . S
C618 C619 1.370 . S
C618 C622 1.524 . S
C619 C611 1.503 . S
C619 C618 1.370 . S
C619 C620 1.403 . S
C620 C619 1.403 . S
C620 C621 1.404 . S
C620 C623 1.539 . S
C621 C617 1.408 . S
C621 C620 1.404 . S
C621 H633 0.930 . S
C622 C618 1.524 . S
C622 H634 0.956 . S
C622 H635 0.961 . S
C622 H636 0.961 . S
C623 C620 1.539 . S
C623 H637 0.958 . S
C623 H638 0.961 . S
C623 H639 0.960 . S
H624 C608 0.931 . S
H625 C613 0.929 . S
H626 C614 0.960 . S
H627 C614 0.962 . S
H628 C614 0.960 . S
H629 C615 0.961 . S
H630 C615 0.961 . S
H631 C615 0.961 . S
H632 C616 0.931 . S
H633 C621 0.930 . S
H634 C622 0.956 . S
H635 C622 0.961 . S
H636 C622 0.961 . S
H637 C623 0.958 . S
H638 C623 0.961 . S
H639 C623 0.960 . S
C640 C641 1.391 . S
C640 C642 1.394 . S
C640 H656 0.931 . S
C641 C640 1.391 . S
C641 C645 1.376 . S
C642 C640 1.394 . S
C642 C643 1.369 . S
C642 C646 1.531 . S
C643 C642 1.369 . S
C643 C644 1.410 . S
C643 C651 1.503 . S
C644 C643 1.410 . S
C644 C645 1.392 . S
C644 C647 1.511 . S
C645 C641 1.376 . S
C645 C644 1.392 . S
C645 H657 0.929 . S
C646 C642 1.531 . S
C646 H658 0.960 . S
C646 H659 0.962 . S
C646 H660 0.960 . S
C647 C644 1.511 . S
C647 H661 0.961 . S
C647 H662 0.961 . S
C647 H663 0.961 . S
C648 C649 1.370 . S
C648 C650 1.363 . S
C648 H664 0.931 . S
C649 C648 1.370 . S
C649 C653 1.408 . S
C650 C648 1.363 . S
C650 C651 1.370 . S
C650 C654 1.524 . S
C651 C643 1.503 . S
C651 C650 1.370 . S
C651 C652 1.403 . S
C652 C651 1.403 . S
C652 C653 1.404 . S
C652 C655 1.539 . S
C653 C649 1.408 . S
C653 C652 1.404 . S
C653 H665 0.930 . S
C654 C650 1.524 . S
C654 H666 0.956 . S
C654 H667 0.961 . S
C654 H668 0.961 . S
C655 C652 1.539 . S
C655 H669 0.958 . S
C655 H670 0.961 . S
C655 H671 0.960 . S
H656 C640 0.931 . S
H657 C645 0.929 . S
H658 C646 0.960 . S
H659 C646 0.962 . S
H660 C646 0.960 . S
H661 C647 0.961 . S
H662 C647 0.961 . S
H663 C647 0.961 . S
H664 C648 0.931 . S
H665 C653 0.930 . S
H666 C654 0.956 . S
H667 C654 0.961 . S
H668 C654 0.961 . S
H669 C655 0.958 . S
H670 C655 0.961 . S
H671 C655 0.960 . S
C672 C673 1.391 . S
C672 C674 1.394 . S
C672 H688 0.931 . S
C673 C672 1.391 . S
C673 C677 1.376 . S
C674 C672 1.394 . S
C674 C675 1.369 . S
C674 C678 1.531 . S
C675 C674 1.369 . S
C675 C676 1.410 . S
C675 C683 1.503 . S
C676 C675 1.410 . S
C676 C677 1.392 . S
C676 C679 1.511 . S
C677 C673 1.376 . S
C677 C676 1.392 . S
C677 H689 0.929 1_655 S
C678 C674 1.531 . S
C678 H690 0.960 . S
C678 H691 0.962 . S
C678 H692 0.960 . S
C679 C676 1.511 . S
C679 H693 0.961 . S
C679 H694 0.961 . S
C679 H695 0.961 . S
C680 C681 1.370 . S
C680 C682 1.363 . S
C680 H696 0.931 . S
C681 C680 1.370 . S
C681 C685 1.408 . S
C682 C680 1.363 . S
C682 C683 1.370 . S
C682 C686 1.524 . S
C683 C675 1.503 . S
C683 C682 1.370 . S
C683 C684 1.403 . S
C684 C683 1.403 . S
C684 C685 1.404 . S
C684 C687 1.539 . S
C685 C681 1.408 . S
C685 C684 1.404 . S
C685 H697 0.930 . S
C686 C682 1.524 . S
C686 H698 0.956 . S
C686 H699 0.961 . S
C686 H700 0.961 . S
C687 C684 1.539 . S
C687 H701 0.958 . S
C687 H702 0.961 . S
C687 H703 0.960 . S
H688 C672 0.931 . S
H689 C677 0.929 1_455 S
H690 C678 0.960 . S
H691 C678 0.962 . S
H692 C678 0.960 . S
H693 C679 0.961 . S
H694 C679 0.961 . S
H695 C679 0.961 . S
H696 C680 0.931 . S
H697 C685 0.930 . S
H698 C686 0.956 . S
H699 C686 0.961 . S
H700 C686 0.961 . S
H701 C687 0.958 . S
H702 C687 0.961 . S
H703 C687 0.960 . S
C704 C705 1.391 . S
C704 C706 1.394 . S
C704 H720 0.931 . S
C705 C704 1.391 . S
C705 C709 1.376 . S
C706 C704 1.394 . S
C706 C707 1.369 . S
C706 C710 1.531 . S
C707 C706 1.369 . S
C707 C708 1.410 . S
C707 C715 1.503 . S
C708 C707 1.410 . S
C708 C709 1.392 . S
C708 C711 1.511 . S
C709 C705 1.376 . S
C709 C708 1.392 . S
C709 H721 0.929 . S
C710 C706 1.531 . S
C710 H722 0.960 . S
C710 H723 0.962 . S
C710 H724 0.960 . S
C711 C708 1.511 . S
C711 H725 0.961 . S
C711 H726 0.961 . S
C711 H727 0.961 . S
C712 C713 1.370 . S
C712 C714 1.363 . S
C712 H728 0.931 . S
C713 C712 1.370 . S
C713 C717 1.408 . S
C714 C712 1.363 . S
C714 C715 1.370 . S
C714 C718 1.524 . S
C715 C707 1.503 . S
C715 C714 1.370 . S
C715 C716 1.403 . S
C716 C715 1.403 . S
C716 C717 1.404 . S
C716 C719 1.539 . S
C717 C713 1.408 . S
C717 C716 1.404 . S
C717 H729 0.930 . S
C718 C714 1.524 . S
C718 H730 0.956 . S
C718 H731 0.961 . S
C718 H732 0.961 . S
C719 C716 1.539 . S
C719 H733 0.958 . S
C719 H734 0.961 . S
C719 H735 0.960 . S
H720 C704 0.931 . S
H721 C709 0.929 . S
H722 C710 0.960 . S
H723 C710 0.962 . S
H724 C710 0.960 . S
H725 C711 0.961 . S
H726 C711 0.961 . S
H727 C711 0.961 . S
H728 C712 0.931 . S
H729 C717 0.930 . S
H730 C718 0.956 . S
H731 C718 0.961 . S
H732 C718 0.961 . S
H733 C719 0.958 . S
H734 C719 0.961 . S
H735 C719 0.960 . S
C736 C737 1.391 . S
C736 C738 1.394 . S
C736 H752 0.931 . S
C737 C736 1.391 . S
C737 C741 1.376 . S
C738 C736 1.394 . S
C738 C739 1.369 . S
C738 C742 1.531 . S
C739 C738 1.369 . S
C739 C740 1.410 . S
C739 C747 1.503 . S
C740 C739 1.410 . S
C740 C741 1.392 . S
C740 C743 1.511 . S
C741 C737 1.376 . S
C741 C740 1.392 . S
C741 H753 0.929 . S
C742 C738 1.531 . S
C742 H754 0.960 . S
C742 H755 0.962 . S
C742 H756 0.960 . S
C743 C740 1.511 . S
C743 H757 0.961 . S
C743 H758 0.961 . S
C743 H759 0.961 . S
C744 C745 1.370 . S
C744 C746 1.363 . S
C744 H760 0.931 . S
C745 C744 1.370 . S
C745 C749 1.408 . S
C746 C744 1.363 . S
C746 C747 1.370 . S
C746 C750 1.524 . S
C747 C739 1.503 . S
C747 C746 1.370 . S
C747 C748 1.403 . S
C748 C747 1.403 . S
C748 C749 1.404 . S
C748 C751 1.539 . S
C749 C745 1.408 . S
C749 C748 1.404 . S
C749 H761 0.930 1_455 S
C750 C746 1.524 . S
C750 H762 0.956 . S
C750 H763 0.961 . S
C750 H764 0.961 . S
C751 C748 1.539 . S
C751 H765 0.958 . S
C751 H766 0.961 . S
C751 H767 0.960 . S
H752 C736 0.931 . S
H753 C741 0.929 . S
H754 C742 0.960 . S
H755 C742 0.962 . S
H756 C742 0.960 . S
H757 C743 0.961 . S
H758 C743 0.961 . S
H759 C743 0.961 . S
H760 C744 0.931 . S
H761 C749 0.930 1_655 S
H762 C750 0.956 . S
H763 C750 0.961 . S
H764 C750 0.961 . S
H765 C751 0.958 . S
H766 C751 0.961 . S
H767 C751 0.960 . S
C768 C769 1.391 . S
C768 C770 1.394 . S
C768 H784 0.931 . S
C769 C768 1.391 . S
C769 C773 1.376 . S
C770 C768 1.394 . S
C770 C771 1.369 . S
C770 C774 1.531 . S
C771 C770 1.369 . S
C771 C772 1.410 . S
C771 C779 1.503 . S
C772 C771 1.410 . S
C772 C773 1.392 . S
C772 C775 1.511 . S
C773 C769 1.376 . S
C773 C772 1.392 . S
C773 H785 0.929 . S
C774 C770 1.531 . S
C774 H786 0.960 . S
C774 H787 0.962 . S
C774 H788 0.960 . S
C775 C772 1.511 . S
C775 H789 0.961 . S
C775 H790 0.961 . S
C775 H791 0.961 . S
C776 C777 1.370 . S
C776 C778 1.363 . S
C776 H792 0.931 . S
C777 C776 1.370 . S
C777 C781 1.408 . S
C778 C776 1.363 . S
C778 C779 1.370 . S
C778 C782 1.524 . S
C779 C771 1.503 . S
C779 C778 1.370 . S
C779 C780 1.403 . S
C780 C779 1.403 . S
C780 C781 1.404 . S
C780 C783 1.539 . S
C781 C777 1.408 . S
C781 C780 1.404 . S
C781 H793 0.930 . S
C782 C778 1.524 . S
C782 H794 0.956 . S
C782 H795 0.961 . S
C782 H796 0.961 . S
C783 C780 1.539 . S
C783 H797 0.958 . S
C783 H798 0.961 . S
C783 H799 0.960 . S
H784 C768 0.931 . S
H785 C773 0.929 . S
H786 C774 0.960 . S
H787 C774 0.962 . S
H788 C774 0.960 . S
H789 C775 0.961 . S
H790 C775 0.961 . S
H791 C775 0.961 . S
H792 C776 0.931 . S
H793 C781 0.930 . S
H794 C782 0.956 . S
H795 C782 0.961 . S
H796 C782 0.961 . S
H797 C783 0.958 . S
H798 C783 0.961 . S
H799 C783 0.960 . S
C800 C801 1.391 . S
C800 C802 1.394 . S
C800 H816 0.931 . S
C801 C800 1.391 . S
C801 C805 1.376 . S
C802 C800 1.394 . S
C802 C803 1.369 . S
C802 C806 1.531 . S
C803 C802 1.369 . S
C803 C804 1.410 . S
C803 C811 1.503 . S
C804 C803 1.410 . S
C804 C805 1.392 . S
C804 C807 1.511 . S
C805 C801 1.376 . S
C805 C804 1.392 . S
C805 H817 0.929 . S
C806 C802 1.531 . S
C806 H818 0.960 . S
C806 H819 0.962 . S
C806 H820 0.960 . S
C807 C804 1.511 . S
C807 H821 0.961 . S
C807 H822 0.961 . S
C807 H823 0.961 . S
C808 C809 1.370 . S
C808 C810 1.363 . S
C808 H824 0.931 . S
C809 C808 1.370 . S
C809 C813 1.408 . S
C810 C808 1.363 . S
C810 C811 1.370 . S
C810 C814 1.524 . S
C811 C803 1.503 . S
C811 C810 1.370 . S
C811 C812 1.403 . S
C812 C811 1.403 . S
C812 C813 1.404 . S
C812 C815 1.539 . S
C813 C809 1.408 . S
C813 C812 1.404 . S
C813 H825 0.930 . S
C814 C810 1.524 . S
C814 H826 0.956 . S
C814 H827 0.961 . S
C814 H828 0.961 . S
C815 C812 1.539 . S
C815 H829 0.958 . S
C815 H830 0.961 . S
C815 H831 0.960 . S
H816 C800 0.931 . S
H817 C805 0.929 . S
H818 C806 0.960 . S
H819 C806 0.962 . S
H820 C806 0.960 . S
H821 C807 0.961 . S
H822 C807 0.961 . S
H823 C807 0.961 . S
H824 C808 0.931 . S
H825 C813 0.930 . S
H826 C814 0.956 . S
H827 C814 0.961 . S
H828 C814 0.961 . S
H829 C815 0.958 . S
H830 C815 0.961 . S
H831 C815 0.960 . S
C832 C833 1.391 . S
C832 C834 1.394 . S
C832 H848 0.931 . S
C833 C832 1.391 . S
C833 C837 1.376 . S
C834 C832 1.394 . S
C834 C835 1.369 . S
C834 C838 1.531 . S
C835 C834 1.369 . S
C835 C836 1.410 . S
C835 C843 1.503 . S
C836 C835 1.410 . S
C836 C837 1.392 . S
C836 C839 1.511 . S
C837 C833 1.376 . S
C837 C836 1.392 . S
C837 H849 0.929 . S
C838 C834 1.531 . S
C838 H850 0.960 . S
C838 H851 0.962 . S
C838 H852 0.960 . S
C839 C836 1.511 . S
C839 H853 0.961 . S
C839 H854 0.961 . S
C839 H855 0.961 . S
C840 C841 1.370 . S
C840 C842 1.363 . S
C840 H856 0.931 . S
C841 C840 1.370 . S
C841 C845 1.408 . S
C842 C840 1.363 . S
C842 C843 1.370 . S
C842 C846 1.524 . S
C843 C835 1.503 . S
C843 C842 1.370 . S
C843 C844 1.403 . S
C844 C843 1.403 . S
C844 C845 1.404 . S
C844 C847 1.539 . S
C845 C841 1.408 . S
C845 C844 1.404 . S
C845 H857 0.930 . S
C846 C842 1.524 . S
C846 H858 0.956 . S
C846 H859 0.961 . S
C846 H860 0.961 . S
C847 C844 1.539 . S
C847 H861 0.958 . S
C847 H862 0.961 . S
C847 H863 0.960 . S
H848 C832 0.931 . S
H849 C837 0.929 . S
H850 C838 0.960 . S
H851 C838 0.962 . S
H852 C838 0.960 . S
H853 C839 0.961 . S
H854 C839 0.961 . S
H855 C839 0.961 . S
H856 C840 0.931 . S
H857 C845 0.930 . S
H858 C846 0.956 . S
H859 C846 0.961 . S
H860 C846 0.961 . S
H861 C847 0.958 . S
H862 C847 0.961 . S
H863 C847 0.960 . S
C864 C865 1.391 . S
C864 C866 1.394 . S
C864 H880 0.931 . S
C865 C864 1.391 . S
C865 C869 1.376 . S
C866 C864 1.394 . S
C866 C867 1.369 . S
C866 C870 1.531 . S
C867 C866 1.369 . S
C867 C868 1.410 . S
C867 C875 1.503 . S
C868 C867 1.410 . S
C868 C869 1.392 . S
C868 C871 1.511 . S
C869 C865 1.376 . S
C869 C868 1.392 . S
C869 H881 0.929 . S
C870 C866 1.531 . S
C870 H882 0.960 . S
C870 H883 0.962 . S
C870 H884 0.960 . S
C871 C868 1.511 . S
C871 H885 0.961 . S
C871 H886 0.961 . S
C871 H887 0.961 . S
C872 C873 1.370 . S
C872 C874 1.363 . S
C872 H888 0.931 . S
C873 C872 1.370 . S
C873 C877 1.408 . S
C874 C872 1.363 . S
C874 C875 1.370 . S
C874 C878 1.524 . S
C875 C867 1.503 . S
C875 C874 1.370 . S
C875 C876 1.403 . S
C876 C875 1.403 . S
C876 C877 1.404 . S
C876 C879 1.539 . S
C877 C873 1.408 . S
C877 C876 1.404 . S
C877 H889 0.930 . S
C878 C874 1.524 . S
C878 H890 0.956 . S
C878 H891 0.961 . S
C878 H892 0.961 . S
C879 C876 1.539 . S
C879 H893 0.958 . S
C879 H894 0.961 . S
C879 H895 0.960 . S
H880 C864 0.931 . S
H881 C869 0.929 . S
H882 C870 0.960 . S
H883 C870 0.962 . S
H884 C870 0.960 . S
H885 C871 0.961 . S
H886 C871 0.961 . S
H887 C871 0.961 . S
H888 C872 0.931 . S
H889 C877 0.930 . S
H890 C878 0.956 . S
H891 C878 0.961 . S
H892 C878 0.961 . S
H893 C879 0.958 . S
H894 C879 0.961 . S
H895 C879 0.960 . S
C896 C897 1.391 . S
C896 C898 1.394 . S
C896 H912 0.931 . S
C897 C896 1.391 . S
C897 C901 1.376 . S
C898 C896 1.394 . S
C898 C899 1.369 . S
C898 C902 1.531 . S
C899 C898 1.369 . S
C899 C900 1.410 . S
C899 C907 1.503 . S
C900 C899 1.410 . S
C900 C901 1.392 . S
C900 C903 1.511 . S
C901 C897 1.376 . S
C901 C900 1.392 . S
C901 H913 0.929 . S
C902 C898 1.531 . S
C902 H914 0.960 . S
C902 H915 0.962 . S
C902 H916 0.960 . S
C903 C900 1.511 . S
C903 H917 0.961 . S
C903 H918 0.961 . S
C903 H919 0.961 . S
C904 C905 1.370 . S
C904 C906 1.363 . S
C904 H920 0.931 . S
C905 C904 1.370 . S
C905 C909 1.408 . S
C906 C904 1.363 . S
C906 C907 1.370 . S
C906 C910 1.524 . S
C907 C899 1.503 . S
C907 C906 1.370 . S
C907 C908 1.403 . S
C908 C907 1.403 . S
C908 C909 1.404 . S
C908 C911 1.539 . S
C909 C905 1.408 . S
C909 C908 1.404 . S
C909 H921 0.930 . S
C910 C906 1.524 . S
C910 H922 0.956 . S
C910 H923 0.961 . S
C910 H924 0.961 . S
C911 C908 1.539 . S
C911 H925 0.958 . S
C911 H926 0.961 . S
C911 H927 0.960 . S
H912 C896 0.931 . S
H913 C901 0.929 . S
H914 C902 0.960 . S
H915 C902 0.962 . S
H916 C902 0.960 . S
H917 C903 0.961 . S
H918 C903 0.961 . S
H919 C903 0.961 . S
H920 C904 0.931 . S
H921 C909 0.930 . S
H922 C910 0.956 . S
H923 C910 0.961 . S
H924 C910 0.961 . S
H925 C911 0.958 . S
H926 C911 0.961 . S
H927 C911 0.960 . S
C928 C929 1.391 . S
C928 C930 1.394 . S
C928 H944 0.931 . S
C929 C928 1.391 . S
C929 C933 1.376 . S
C930 C928 1.394 . S
C930 C931 1.369 . S
C930 C934 1.531 . S
C931 C930 1.369 . S
C931 C932 1.410 . S
C931 C939 1.503 . S
C932 C931 1.410 . S
C932 C933 1.392 . S
C932 C935 1.511 . S
C933 C929 1.376 . S
C933 C932 1.392 . S
C933 H945 0.929 . S
C934 C930 1.531 . S
C934 H946 0.960 . S
C934 H947 0.962 . S
C934 H948 0.960 . S
C935 C932 1.511 . S
C935 H949 0.961 . S
C935 H950 0.961 . S
C935 H951 0.961 . S
C936 C937 1.370 . S
C936 C938 1.363 . S
C936 H952 0.931 . S
C937 C936 1.370 . S
C937 C941 1.408 . S
C938 C936 1.363 . S
C938 C939 1.370 . S
C938 C942 1.524 . S
C939 C931 1.503 . S
C939 C938 1.370 . S
C939 C940 1.403 . S
C940 C939 1.403 . S
C940 C941 1.404 . S
C940 C943 1.539 . S
C941 C937 1.408 . S
C941 C940 1.404 . S
C941 H953 0.930 . S
C942 C938 1.524 . S
C942 H954 0.956 . S
C942 H955 0.961 . S
C942 H956 0.961 . S
C943 C940 1.539 . S
C943 H957 0.958 . S
C943 H958 0.961 . S
C943 H959 0.960 . S
H944 C928 0.931 . S
H945 C933 0.929 . S
H946 C934 0.960 . S
H947 C934 0.962 . S
H948 C934 0.960 . S
H949 C935 0.961 . S
H950 C935 0.961 . S
H951 C935 0.961 . S
H952 C936 0.931 . S
H953 C941 0.930 . S
H954 C942 0.956 . S
H955 C942 0.961 . S
H956 C942 0.961 . S
H957 C943 0.958 . S
H958 C943 0.961 . S
H959 C943 0.960 . S
C960 C961 1.391 . S
C960 C962 1.394 . S
C960 H976 0.931 . S
C961 C960 1.391 . S
C961 C965 1.376 . S
C962 C960 1.394 . S
C962 C963 1.369 . S
C962 C966 1.531 . S
C963 C962 1.369 . S
C963 C964 1.410 . S
C963 C971 1.503 . S
C964 C963 1.410 . S
C964 C965 1.392 . S
C964 C967 1.511 . S
C965 C961 1.376 . S
C965 C964 1.392 . S
C965 H977 0.929 . S
C966 C962 1.531 . S
C966 H978 0.960 . S
C966 H979 0.962 . S
C966 H980 0.960 . S
C967 C964 1.511 . S
C967 H981 0.961 . S
C967 H982 0.961 . S
C967 H983 0.961 . S
C968 C969 1.370 . S
C968 C970 1.363 . S
C968 H984 0.931 . S
C969 C968 1.370 . S
C969 C973 1.408 . S
C970 C968 1.363 . S
C970 C971 1.370 . S
C970 C974 1.524 . S
C971 C963 1.503 . S
C971 C970 1.370 . S
C971 C972 1.403 . S
C972 C971 1.403 . S
C972 C973 1.404 . S
C972 C975 1.539 . S
C973 C969 1.408 . S
C973 C972 1.404 . S
C973 H985 0.930 . S
C974 C970 1.524 . S
C974 H986 0.956 . S
C974 H987 0.961 . S
C974 H988 0.961 . S
C975 C972 1.539 . S
C975 H989 0.958 . S
C975 H990 0.961 . S
C975 H991 0.960 . S
H976 C960 0.931 . S
H977 C965 0.929 . S
H978 C966 0.960 . S
H979 C966 0.962 . S
H980 C966 0.960 . S
H981 C967 0.961 . S
H982 C967 0.961 . S
H983 C967 0.961 . S
H984 C968 0.931 . S
H985 C973 0.930 . S
H986 C974 0.956 . S
H987 C974 0.961 . S
H988 C974 0.961 . S
H989 C975 0.958 . S
H990 C975 0.961 . S
H991 C975 0.960 . S
C992 C993 1.391 . S
C992 C994 1.394 . S
C992 H1008 0.931 . S
C993 C992 1.391 . S
C993 C997 1.376 . S
C994 C992 1.394 . S
C994 C995 1.369 . S
C994 C998 1.531 . S
C995 C994 1.369 . S
C995 C996 1.410 . S
C995 C1003 1.503 . S
C996 C995 1.410 . S
C996 C997 1.392 . S
C996 C999 1.511 . S
C997 C993 1.376 . S
C997 C996 1.392 . S
C997 H1009 0.929 . S
C998 C994 1.531 . S
C998 H1010 0.960 . S
C998 H1011 0.962 . S
C998 H1012 0.960 . S
C999 C996 1.511 . S
C999 H1013 0.961 . S
C999 H1014 0.961 . S
C999 H1015 0.961 . S
C1000 C1001 1.370 . S
C1000 C1002 1.363 . S
C1000 H1016 0.931 . S
C1001 C1000 1.370 . S
C1001 C1005 1.408 . S
C1002 C1000 1.363 . S
C1002 C1003 1.370 . S
C1002 C1006 1.524 . S
C1003 C995 1.503 . S
C1003 C1002 1.370 . S
C1003 C1004 1.403 . S
C1004 C1003 1.403 . S
C1004 C1005 1.404 . S
C1004 C1007 1.539 . S
C1005 C1001 1.408 . S
C1005 C1004 1.404 . S
C1005 H1017 0.930 . S
C1006 C1002 1.524 . S
C1006 H1018 0.956 . S
C1006 H1019 0.961 . S
C1006 H1020 0.961 . S
C1007 C1004 1.539 . S
C1007 H1021 0.958 . S
C1007 H1022 0.961 . S
C1007 H1023 0.960 . S
H1008 C992 0.931 . S
H1009 C997 0.929 . S
H1010 C998 0.960 . S
H1011 C998 0.962 . S
H1012 C998 0.960 . S
H1013 C999 0.961 . S
H1014 C999 0.961 . S
H1015 C999 0.961 . S
H1016 C1000 0.931 . S
H1017 C1005 0.930 . S
H1018 C1006 0.956 . S
H1019 C1006 0.961 . S
H1020 C1006 0.961 . S
H1021 C1007 0.958 . S
H1022 C1007 0.961 . S
H1023 C1007 0.960 . S
C1024 C1025 1.391 . S
C1024 C1026 1.394 . S
C1024 H1040 0.931 . S
C1025 C1024 1.391 . S
C1025 C1029 1.376 . S
C1026 C1024 1.394 . S
C1026 C1027 1.369 . S
C1026 C1030 1.531 . S
C1027 C1026 1.369 . S
C1027 C1028 1.410 . S
C1027 C1035 1.503 . S
C1028 C1027 1.410 . S
C1028 C1029 1.392 . S
C1028 C1031 1.511 . S
C1029 C1025 1.376 . S
C1029 C1028 1.392 . S
C1029 H1041 0.929 . S
C1030 C1026 1.531 . S
C1030 H1042 0.960 . S
C1030 H1043 0.962 . S
C1030 H1044 0.960 . S
C1031 C1028 1.511 . S
C1031 H1045 0.961 . S
C1031 H1046 0.961 . S
C1031 H1047 0.961 . S
C1032 C1033 1.370 . S
C1032 C1034 1.363 . S
C1032 H1048 0.931 . S
C1033 C1032 1.370 . S
C1033 C1037 1.408 . S
C1034 C1032 1.363 . S
C1034 C1035 1.370 . S
C1034 C1038 1.524 . S
C1035 C1027 1.503 . S
C1035 C1034 1.370 . S
C1035 C1036 1.403 . S
C1036 C1035 1.403 . S
C1036 C1037 1.404 . S
C1036 C1039 1.539 . S
C1037 C1033 1.408 . S
C1037 C1036 1.404 . S
C1037 H1049 0.930 . S
C1038 C1034 1.524 . S
C1038 H1050 0.956 . S
C1038 H1051 0.961 . S
C1038 H1052 0.961 . S
C1039 C1036 1.539 . S
C1039 H1053 0.958 . S
C1039 H1054 0.961 . S
C1039 H1055 0.960 . S
H1040 C1024 0.931 . S
H1041 C1029 0.929 . S
H1042 C1030 0.960 . S
H1043 C1030 0.962 . S
H1044 C1030 0.960 . S
H1045 C1031 0.961 . S
H1046 C1031 0.961 . S
H1047 C1031 0.961 . S
H1048 C1032 0.931 . S
H1049 C1037 0.930 . S
H1050 C1038 0.956 . S
H1051 C1038 0.961 . S
H1052 C1038 0.961 . S
H1053 C1039 0.958 . S
H1054 C1039 0.961 . S
H1055 C1039 0.960 . S
C1056 C1057 1.391 . S
C1056 C1058 1.394 . S
C1056 H1072 0.931 . S
C1057 C1056 1.391 . S
C1057 C1061 1.376 . S
C1058 C1056 1.394 . S
C1058 C1059 1.369 . S
C1058 C1062 1.531 . S
C1059 C1058 1.369 . S
C1059 C1060 1.410 . S
C1059 C1067 1.503 . S
C1060 C1059 1.410 . S
C1060 C1061 1.392 . S
C1060 C1063 1.511 . S
C1061 C1057 1.376 . S
C1061 C1060 1.392 . S
C1061 H1073 0.929 . S
C1062 C1058 1.531 . S
C1062 H1074 0.960 . S
C1062 H1075 0.962 . S
C1062 H1076 0.960 . S
C1063 C1060 1.511 . S
C1063 H1077 0.961 . S
C1063 H1078 0.961 . S
C1063 H1079 0.961 . S
C1064 C1065 1.370 . S
C1064 C1066 1.363 . S
C1064 H1080 0.931 . S
C1065 C1064 1.370 . S
C1065 C1069 1.408 . S
C1066 C1064 1.363 . S
C1066 C1067 1.370 . S
C1066 C1070 1.524 . S
C1067 C1059 1.503 . S
C1067 C1066 1.370 . S
C1067 C1068 1.403 . S
C1068 C1067 1.403 . S
C1068 C1069 1.404 . S
C1068 C1071 1.539 . S
C1069 C1065 1.408 . S
C1069 C1068 1.404 . S
C1069 H1081 0.930 . S
C1070 C1066 1.524 . S
C1070 H1082 0.956 . S
C1070 H1083 0.961 . S
C1070 H1084 0.961 . S
C1071 C1068 1.539 . S
C1071 H1085 0.958 . S
C1071 H1086 0.961 . S
C1071 H1087 0.960 . S
H1072 C1056 0.931 . S
H1073 C1061 0.929 . S
H1074 C1062 0.960 . S
H1075 C1062 0.962 . S
H1076 C1062 0.960 . S
H1077 C1063 0.961 . S
H1078 C1063 0.961 . S
H1079 C1063 0.961 . S
H1080 C1064 0.931 . S
H1081 C1069 0.930 . S
H1082 C1070 0.956 . S
H1083 C1070 0.961 . S
H1084 C1070 0.961 . S
H1085 C1071 0.958 . S
H1086 C1071 0.961 . S
H1087 C1071 0.960 . S
C1088 C1089 1.391 . S
C1088 C1090 1.394 . S
C1088 H1104 0.931 . S
C1089 C1088 1.391 . S
C1089 C1093 1.376 . S
C1090 C1088 1.394 . S
C1090 C1091 1.369 . S
C1090 C1094 1.531 . S
C1091 C1090 1.369 . S
C1091 C1092 1.410 . S
C1091 C1099 1.503 . S
C1092 C1091 1.410 . S
C1092 C1093 1.392 . S
C1092 C1095 1.511 . S
C1093 C1089 1.376 . S
C1093 C1092 1.392 . S
C1093 H1105 0.929 . S
C1094 C1090 1.531 . S
C1094 H1106 0.960 . S
C1094 H1107 0.962 . S
C1094 H1108 0.960 . S
C1095 C1092 1.511 . S
C1095 H1109 0.961 . S
C1095 H1110 0.961 . S
C1095 H1111 0.961 . S
C1096 C1097 1.370 . S
C1096 C1098 1.363 . S
C1096 H1112 0.931 . S
C1097 C1096 1.370 . S
C1097 C1101 1.408 . S
C1098 C1096 1.363 . S
C1098 C1099 1.370 . S
C1098 C1102 1.524 . S
C1099 C1091 1.503 . S
C1099 C1098 1.370 . S
C1099 C1100 1.403 . S
C1100 C1099 1.403 . S
C1100 C1101 1.404 . S
C1100 C1103 1.539 . S
C1101 C1097 1.408 . S
C1101 C1100 1.404 . S
C1101 H1113 0.930 . S
C1102 C1098 1.524 . S
C1102 H1114 0.956 . S
C1102 H1115 0.961 . S
C1102 H1116 0.961 . S
C1103 C1100 1.539 . S
C1103 H1117 0.958 . S
C1103 H1118 0.961 . S
C1103 H1119 0.960 . S
H1104 C1088 0.931 . S
H1105 C1093 0.929 . S
H1106 C1094 0.960 . S
H1107 C1094 0.962 . S
H1108 C1094 0.960 . S
H1109 C1095 0.961 . S
H1110 C1095 0.961 . S
H1111 C1095 0.961 . S
H1112 C1096 0.931 . S
H1113 C1101 0.930 . S
H1114 C1102 0.956 . S
H1115 C1102 0.961 . S
H1116 C1102 0.961 . S
H1117 C1103 0.958 . S
H1118 C1103 0.961 . S
H1119 C1103 0.960 . S
C1120 C1121 1.391 . S
C1120 C1122 1.394 . S
C1120 H1136 0.931 . S
C1121 C1120 1.391 . S
C1121 C1125 1.376 . S
C1122 C1120 1.394 . S
C1122 C1123 1.369 . S
C1122 C1126 1.531 . S
C1123 C1122 1.369 . S
C1123 C1124 1.410 . S
C1123 C1131 1.503 . S
C1124 C1123 1.410 . S
C1124 C1125 1.392 . S
C1124 C1127 1.511 . S
C1125 C1121 1.376 . S
C1125 C1124 1.392 . S
C1125 H1137 0.929 . S
C1126 C1122 1.531 . S
C1126 H1138 0.960 . S
C1126 H1139 0.962 . S
C1126 H1140 0.960 . S
C1127 C1124 1.511 . S
C1127 H1141 0.961 . S
C1127 H1142 0.961 . S
C1127 H1143 0.961 . S
C1128 C1129 1.370 . S
C1128 C1130 1.363 . S
C1128 H1144 0.931 . S
C1129 C1128 1.370 . S
C1129 C1133 1.408 . S
C1130 C1128 1.363 . S
C1130 C1131 1.370 . S
C1130 C1134 1.524 . S
C1131 C1123 1.503 . S
C1131 C1130 1.370 . S
C1131 C1132 1.403 . S
C1132 C1131 1.403 . S
C1132 C1133 1.404 . S
C1132 C1135 1.539 . S
C1133 C1129 1.408 . S
C1133 C1132 1.404 . S
C1133 H1145 0.930 . S
C1134 C1130 1.524 . S
C1134 H1146 0.956 . S
C1134 H1147 0.961 . S
C1134 H1148 0.961 . S
C1135 C1132 1.539 . S
C1135 H1149 0.958 . S
C1135 H1150 0.961 . S
C1135 H1151 0.960 . S
H1136 C1120 0.931 . S
H1137 C1125 0.929 . S
H1138 C1126 0.960 . S
H1139 C1126 0.962 . S
H1140 C1126 0.960 . S
H1141 C1127 0.961 . S
H1142 C1127 0.961 . S
H1143 C1127 0.961 . S
H1144 C1128 0.931 . S
H1145 C1133 0.930 . S
H1146 C1134 0.956 . S
H1147 C1134 0.961 . S
H1148 C1134 0.961 . S
H1149 C1135 0.958 . S
H1150 C1135 0.961 . S
H1151 C1135 0.960 . S
C1152 C1153 1.391 . S
C1152 C1154 1.394 . S
C1152 H1168 0.931 . S
C1153 C1152 1.391 . S
C1153 C1157 1.376 . S
C1154 C1152 1.394 . S
C1154 C1155 1.369 . S
C1154 C1158 1.531 . S
C1155 C1154 1.369 . S
C1155 C1156 1.410 . S
C1155 C1163 1.503 . S
C1156 C1155 1.410 . S
C1156 C1157 1.392 . S
C1156 C1159 1.511 . S
C1157 C1153 1.376 . S
C1157 C1156 1.392 . S
C1157 H1169 0.929 . S
C1158 C1154 1.531 . S
C1158 H1170 0.960 . S
C1158 H1171 0.962 . S
C1158 H1172 0.960 . S
C1159 C1156 1.511 . S
C1159 H1173 0.961 . S
C1159 H1174 0.961 . S
C1159 H1175 0.961 . S
C1160 C1161 1.370 . S
C1160 C1162 1.363 . S
C1160 H1176 0.931 . S
C1161 C1160 1.370 . S
C1161 C1165 1.408 . S
C1162 C1160 1.363 . S
C1162 C1163 1.370 . S
C1162 C1166 1.524 . S
C1163 C1155 1.503 . S
C1163 C1162 1.370 . S
C1163 C1164 1.403 . S
C1164 C1163 1.403 . S
C1164 C1165 1.404 . S
C1164 C1167 1.539 . S
C1165 C1161 1.408 . S
C1165 C1164 1.404 . S
C1165 H1177 0.930 . S
C1166 C1162 1.524 . S
C1166 H1178 0.956 . S
C1166 H1179 0.961 . S
C1166 H1180 0.961 . S
C1167 C1164 1.539 . S
C1167 H1181 0.958 . S
C1167 H1182 0.961 . S
C1167 H1183 0.960 . S
H1168 C1152 0.931 . S
H1169 C1157 0.929 . S
H1170 C1158 0.960 . S
H1171 C1158 0.962 . S
H1172 C1158 0.960 . S
H1173 C1159 0.961 . S
H1174 C1159 0.961 . S
H1175 C1159 0.961 . S
H1176 C1160 0.931 . S
H1177 C1165 0.930 . S
H1178 C1166 0.956 . S
H1179 C1166 0.961 . S
H1180 C1166 0.961 . S
H1181 C1167 0.958 . S
H1182 C1167 0.961 . S
H1183 C1167 0.960 . S
C1184 C1185 1.391 . S
C1184 C1186 1.394 . S
C1184 H1200 0.931 . S
C1185 C1184 1.391 . S
C1185 C1189 1.376 . S
C1186 C1184 1.394 . S
C1186 C1187 1.369 . S
C1186 C1190 1.531 . S
C1187 C1186 1.369 . S
C1187 C1188 1.410 . S
C1187 C1195 1.503 . S
C1188 C1187 1.410 . S
C1188 C1189 1.392 . S
C1188 C1191 1.511 . S
C1189 C1185 1.376 . S
C1189 C1188 1.392 . S
C1189 H1201 0.929 . S
C1190 C1186 1.531 . S
C1190 H1202 0.960 . S
C1190 H1203 0.962 . S
C1190 H1204 0.960 . S
C1191 C1188 1.511 . S
C1191 H1205 0.961 . S
C1191 H1206 0.961 . S
C1191 H1207 0.961 . S
C1192 C1193 1.370 . S
C1192 C1194 1.363 . S
C1192 H1208 0.931 . S
C1193 C1192 1.370 . S
C1193 C1197 1.408 . S
C1194 C1192 1.363 . S
C1194 C1195 1.370 . S
C1194 C1198 1.524 . S
C1195 C1187 1.503 . S
C1195 C1194 1.370 . S
C1195 C1196 1.403 . S
C1196 C1195 1.403 . S
C1196 C1197 1.404 . S
C1196 C1199 1.539 . S
C1197 C1193 1.408 . S
C1197 C1196 1.404 . S
C1197 H1209 0.930 . S
C1198 C1194 1.524 . S
C1198 H1210 0.956 . S
C1198 H1211 0.961 . S
C1198 H1212 0.961 . S
C1199 C1196 1.539 . S
C1199 H1213 0.958 . S
C1199 H1214 0.961 . S
C1199 H1215 0.960 . S
H1200 C1184 0.931 . S
H1201 C1189 0.929 . S
H1202 C1190 0.960 . S
H1203 C1190 0.962 . S
H1204 C1190 0.960 . S
H1205 C1191 0.961 . S
H1206 C1191 0.961 . S
H1207 C1191 0.961 . S
H1208 C1192 0.931 . S
H1209 C1197 0.930 . S
H1210 C1198 0.956 . S
H1211 C1198 0.961 . S
H1212 C1198 0.961 . S
H1213 C1199 0.958 . S
H1214 C1199 0.961 . S
H1215 C1199 0.960 . S
C1216 C1217 1.391 . S
C1216 C1218 1.394 . S
C1216 H1232 0.931 . S
C1217 C1216 1.391 . S
C1217 C1221 1.376 . S
C1218 C1216 1.394 . S
C1218 C1219 1.369 . S
C1218 C1222 1.531 . S
C1219 C1218 1.369 . S
C1219 C1220 1.410 . S
C1219 C1227 1.503 . S
C1220 C1219 1.410 . S
C1220 C1221 1.392 . S
C1220 C1223 1.511 . S
C1221 C1217 1.376 . S
C1221 C1220 1.392 . S
C1221 H1233 0.929 . S
C1222 C1218 1.531 . S
C1222 H1234 0.960 . S
C1222 H1235 0.962 . S
C1222 H1236 0.960 . S
C1223 C1220 1.511 . S
C1223 H1237 0.961 . S
C1223 H1238 0.961 . S
C1223 H1239 0.961 . S
C1224 C1225 1.370 . S
C1224 C1226 1.363 . S
C1224 H1240 0.931 . S
C1225 C1224 1.370 . S
C1225 C1229 1.408 . S
C1226 C1224 1.363 . S
C1226 C1227 1.370 . S
C1226 C1230 1.524 . S
C1227 C1219 1.503 . S
C1227 C1226 1.370 . S
C1227 C1228 1.403 . S
C1228 C1227 1.403 . S
C1228 C1229 1.404 . S
C1228 C1231 1.539 . S
C1229 C1225 1.408 . S
C1229 C1228 1.404 . S
C1229 H1241 0.930 . S
C1230 C1226 1.524 . S
C1230 H1242 0.956 . S
C1230 H1243 0.961 . S
C1230 H1244 0.961 . S
C1231 C1228 1.539 . S
C1231 H1245 0.958 . S
C1231 H1246 0.961 . S
C1231 H1247 0.960 . S
H1232 C1216 0.931 . S
H1233 C1221 0.929 . S
H1234 C1222 0.960 . S
H1235 C1222 0.962 . S
H1236 C1222 0.960 . S
H1237 C1223 0.961 . S
H1238 C1223 0.961 . S
H1239 C1223 0.961 . S
H1240 C1224 0.931 . S
H1241 C1229 0.930 . S
H1242 C1230 0.956 . S
H1243 C1230 0.961 . S
H1244 C1230 0.961 . S
H1245 C1231 0.958 . S
H1246 C1231 0.961 . S
H1247 C1231 0.960 . S
C1248 C1249 1.391 . S
C1248 C1250 1.394 . S
C1248 H1264 0.931 . S
C1249 C1248 1.391 . S
C1249 C1253 1.376 . S
C1250 C1248 1.394 . S
C1250 C1251 1.369 . S
C1250 C1254 1.531 . S
C1251 C1250 1.369 . S
C1251 C1252 1.410 . S
C1251 C1259 1.503 . S
C1252 C1251 1.410 . S
C1252 C1253 1.392 . S
C1252 C1255 1.511 . S
C1253 C1249 1.376 . S
C1253 C1252 1.392 . S
C1253 H1265 0.929 . S
C1254 C1250 1.531 . S
C1254 H1266 0.960 . S
C1254 H1267 0.962 . S
C1254 H1268 0.960 . S
C1255 C1252 1.511 . S
C1255 H1269 0.961 . S
C1255 H1270 0.961 . S
C1255 H1271 0.961 . S
C1256 C1257 1.370 . S
C1256 C1258 1.363 . S
C1256 H1272 0.931 . S
C1257 C1256 1.370 . S
C1257 C1261 1.408 . S
C1258 C1256 1.363 . S
C1258 C1259 1.370 . S
C1258 C1262 1.524 . S
C1259 C1251 1.503 . S
C1259 C1258 1.370 . S
C1259 C1260 1.403 . S
C1260 C1259 1.403 . S
C1260 C1261 1.404 . S
C1260 C1263 1.539 . S
C1261 C1257 1.408 . S
C1261 C1260 1.404 . S
C1261 H1273 0.930 . S
C1262 C1258 1.524 . S
C1262 H1274 0.956 . S
C1262 H1275 0.961 . S
C1262 H1276 0.961 . S
C1263 C1260 1.539 . S
C1263 H1277 0.958 . S
C1263 H1278 0.961 . S
C1263 H1279 0.960 . S
H1264 C1248 0.931 . S
H1265 C1253 0.929 . S
H1266 C1254 0.960 . S
H1267 C1254 0.962 . S
H1268 C1254 0.960 . S
H1269 C1255 0.961 . S
H1270 C1255 0.961 . S
H1271 C1255 0.961 . S
H1272 C1256 0.931 . S
H1273 C1261 0.930 . S
H1274 C1262 0.956 . S
H1275 C1262 0.961 . S
H1276 C1262 0.961 . S
H1277 C1263 0.958 . S
H1278 C1263 0.961 . S
H1279 C1263 0.960 . S
C1280 C1281 1.391 . S
C1280 C1282 1.394 . S
C1280 H1296 0.931 . S
C1281 C1280 1.391 . S
C1281 C1285 1.376 . S
C1282 C1280 1.394 . S
C1282 C1283 1.369 . S
C1282 C1286 1.531 . S
C1283 C1282 1.369 . S
C1283 C1284 1.410 . S
C1283 C1291 1.503 . S
C1284 C1283 1.410 . S
C1284 C1285 1.392 . S
C1284 C1287 1.511 . S
C1285 C1281 1.376 . S
C1285 C1284 1.392 . S
C1285 H1297 0.929 . S
C1286 C1282 1.531 . S
C1286 H1298 0.960 . S
C1286 H1299 0.962 . S
C1286 H1300 0.960 . S
C1287 C1284 1.511 . S
C1287 H1301 0.961 . S
C1287 H1302 0.961 . S
C1287 H1303 0.961 . S
C1288 C1289 1.370 . S
C1288 C1290 1.363 . S
C1288 H1304 0.931 . S
C1289 C1288 1.370 . S
C1289 C1293 1.408 . S
C1290 C1288 1.363 . S
C1290 C1291 1.370 . S
C1290 C1294 1.524 . S
C1291 C1283 1.503 . S
C1291 C1290 1.370 . S
C1291 C1292 1.403 . S
C1292 C1291 1.403 . S
C1292 C1293 1.404 . S
C1292 C1295 1.539 . S
C1293 C1289 1.408 . S
C1293 C1292 1.404 . S
C1293 H1305 0.930 . S
C1294 C1290 1.524 . S
C1294 H1306 0.956 . S
C1294 H1307 0.961 . S
C1294 H1308 0.961 . S
C1295 C1292 1.539 . S
C1295 H1309 0.958 . S
C1295 H1310 0.961 . S
C1295 H1311 0.960 . S
H1296 C1280 0.931 . S
H1297 C1285 0.929 . S
H1298 C1286 0.960 . S
H1299 C1286 0.962 . S
H1300 C1286 0.960 . S
H1301 C1287 0.961 . S
H1302 C1287 0.961 . S
H1303 C1287 0.961 . S
H1304 C1288 0.931 . S
H1305 C1293 0.930 . S
H1306 C1294 0.956 . S
H1307 C1294 0.961 . S
H1308 C1294 0.961 . S
H1309 C1295 0.958 . S
H1310 C1295 0.961 . S
H1311 C1295 0.960 . S
C1312 C1313 1.391 . S
C1312 C1314 1.394 . S
C1312 H1328 0.931 . S
C1313 C1312 1.391 . S
C1313 C1317 1.376 . S
C1314 C1312 1.394 . S
C1314 C1315 1.369 . S
C1314 C1318 1.531 . S
C1315 C1314 1.369 . S
C1315 C1316 1.410 . S
C1315 C1323 1.503 . S
C1316 C1315 1.410 . S
C1316 C1317 1.392 . S
C1316 C1319 1.511 . S
C1317 C1313 1.376 . S
C1317 C1316 1.392 . S
C1317 H1329 0.929 . S
C1318 C1314 1.531 . S
C1318 H1330 0.960 . S
C1318 H1331 0.962 . S
C1318 H1332 0.960 . S
C1319 C1316 1.511 . S
C1319 H1333 0.961 . S
C1319 H1334 0.961 . S
C1319 H1335 0.961 . S
C1320 C1321 1.370 . S
C1320 C1322 1.363 . S
C1320 H1336 0.931 . S
C1321 C1320 1.370 . S
C1321 C1325 1.408 . S
C1322 C1320 1.363 . S
C1322 C1323 1.370 . S
C1322 C1326 1.524 . S
C1323 C1315 1.503 . S
C1323 C1322 1.370 . S
C1323 C1324 1.403 . S
C1324 C1323 1.403 . S
C1324 C1325 1.404 . S
C1324 C1327 1.539 . S
C1325 C1321 1.408 . S
C1325 C1324 1.404 . S
C1325 H1337 0.930 . S
C1326 C1322 1.524 . S
C1326 H1338 0.956 . S
C1326 H1339 0.961 . S
C1326 H1340 0.961 . S
C1327 C1324 1.539 . S
C1327 H1341 0.958 . S
C1327 H1342 0.961 . S
C1327 H1343 0.960 . S
H1328 C1312 0.931 . S
H1329 C1317 0.929 . S
H1330 C1318 0.960 . S
H1331 C1318 0.962 . S
H1332 C1318 0.960 . S
H1333 C1319 0.961 . S
H1334 C1319 0.961 . S
H1335 C1319 0.961 . S
H1336 C1320 0.931 . S
H1337 C1325 0.930 . S
H1338 C1326 0.956 . S
H1339 C1326 0.961 . S
H1340 C1326 0.961 . S
H1341 C1327 0.958 . S
H1342 C1327 0.961 . S
H1343 C1327 0.960 . S
C1344 C1345 1.391 . S
C1344 C1346 1.394 . S
C1344 H1360 0.931 . S
C1345 C1344 1.391 . S
C1345 C1349 1.376 . S
C1346 C1344 1.394 . S
C1346 C1347 1.369 . S
C1346 C1350 1.531 . S
C1347 C1346 1.369 . S
C1347 C1348 1.410 . S
C1347 C1355 1.503 . S
C1348 C1347 1.410 . S
C1348 C1349 1.392 . S
C1348 C1351 1.511 . S
C1349 C1345 1.376 . S
C1349 C1348 1.392 . S
C1349 H1361 0.929 . S
C1350 C1346 1.531 . S
C1350 H1362 0.960 . S
C1350 H1363 0.962 . S
C1350 H1364 0.960 . S
C1351 C1348 1.511 . S
C1351 H1365 0.961 . S
C1351 H1366 0.961 . S
C1351 H1367 0.961 . S
C1352 C1353 1.370 . S
C1352 C1354 1.363 . S
C1352 H1368 0.931 . S
C1353 C1352 1.370 . S
C1353 C1357 1.408 . S
C1354 C1352 1.363 . S
C1354 C1355 1.370 . S
C1354 C1358 1.524 . S
C1355 C1347 1.503 . S
C1355 C1354 1.370 . S
C1355 C1356 1.403 . S
C1356 C1355 1.403 . S
C1356 C1357 1.404 . S
C1356 C1359 1.539 . S
C1357 C1353 1.408 . S
C1357 C1356 1.404 . S
C1357 H1369 0.930 . S
C1358 C1354 1.524 . S
C1358 H1370 0.956 . S
C1358 H1371 0.961 . S
C1358 H1372 0.961 . S
C1359 C1356 1.539 . S
C1359 H1373 0.958 . S
C1359 H1374 0.961 . S
C1359 H1375 0.960 . S
H1360 C1344 0.931 . S
H1361 C1349 0.929 . S
H1362 C1350 0.960 . S
H1363 C1350 0.962 . S
H1364 C1350 0.960 . S
H1365 C1351 0.961 . S
H1366 C1351 0.961 . S
H1367 C1351 0.961 . S
H1368 C1352 0.931 . S
H1369 C1357 0.930 . S
H1370 C1358 0.956 . S
H1371 C1358 0.961 . S
H1372 C1358 0.961 . S
H1373 C1359 0.958 . S
H1374 C1359 0.961 . S
H1375 C1359 0.960 . S
C1376 C1377 1.391 . S
C1376 C1378 1.394 . S
C1376 H1392 0.931 . S
C1377 C1376 1.391 . S
C1377 C1381 1.376 . S
C1378 C1376 1.394 . S
C1378 C1379 1.369 . S
C1378 C1382 1.531 . S
C1379 C1378 1.369 . S
C1379 C1380 1.410 . S
C1379 C1387 1.503 . S
C1380 C1379 1.410 . S
C1380 C1381 1.392 . S
C1380 C1383 1.511 . S
C1381 C1377 1.376 . S
C1381 C1380 1.392 . S
C1381 H1393 0.929 . S
C1382 C1378 1.531 . S
C1382 H1394 0.960 . S
C1382 H1395 0.962 . S
C1382 H1396 0.960 . S
C1383 C1380 1.511 . S
C1383 H1397 0.961 . S
C1383 H1398 0.961 . S
C1383 H1399 0.961 . S
C1384 C1385 1.370 . S
C1384 C1386 1.363 . S
C1384 H1400 0.931 . S
C1385 C1384 1.370 . S
C1385 C1389 1.408 . S
C1386 C1384 1.363 . S
C1386 C1387 1.370 . S
C1386 C1390 1.524 . S
C1387 C1379 1.503 . S
C1387 C1386 1.370 . S
C1387 C1388 1.403 . S
C1388 C1387 1.403 . S
C1388 C1389 1.404 . S
C1388 C1391 1.539 . S
C1389 C1385 1.408 . S
C1389 C1388 1.404 . S
C1389 H1401 0.930 . S
C1390 C1386 1.524 . S
C1390 H1402 0.956 . S
C1390 H1403 0.961 . S
C1390 H1404 0.961 . S
C1391 C1388 1.539 . S
C1391 H1405 0.958 . S
C1391 H1406 0.961 . S
C1391 H1407 0.960 . S
H1392 C1376 0.931 . S
H1393 C1381 0.929 . S
H1394 C1382 0.960 . S
H1395 C1382 0.962 . S
H1396 C1382 0.960 . S
H1397 C1383 0.961 . S
H1398 C1383 0.961 . S
H1399 C1383 0.961 . S
H1400 C1384 0.931 . S
H1401 C1389 0.930 . S
H1402 C1390 0.956 . S
H1403 C1390 0.961 . S
H1404 C1390 0.961 . S
H1405 C1391 0.958 . S
H1406 C1391 0.961 . S
H1407 C1391 0.960 . S
C1408 C1409 1.391 . S
C1408 C1410 1.394 . S
C1408 H1424 0.931 . S
C1409 C1408 1.391 . S
C1409 C1413 1.376 . S
C1410 C1408 1.394 . S
C1410 C1411 1.369 . S
C1410 C1414 1.531 . S
C1411 C1410 1.369 . S
C1411 C1412 1.410 . S
C1411 C1419 1.503 . S
C1412 C1411 1.410 . S
C1412 C1413 1.392 . S
C1412 C1415 1.511 . S
C1413 C1409 1.376 . S
C1413 C1412 1.392 . S
C1413 H1425 0.929 . S
C1414 C1410 1.531 . S
C1414 H1426 0.960 . S
C1414 H1427 0.962 . S
C1414 H1428 0.960 . S
C1415 C1412 1.511 . S
C1415 H1429 0.961 . S
C1415 H1430 0.961 . S
C1415 H1431 0.961 . S
C1416 C1417 1.370 . S
C1416 C1418 1.363 . S
C1416 H1432 0.931 . S
C1417 C1416 1.370 . S
C1417 C1421 1.408 . S
C1418 C1416 1.363 . S
C1418 C1419 1.370 . S
C1418 C1422 1.524 . S
C1419 C1411 1.503 . S
C1419 C1418 1.370 . S
C1419 C1420 1.403 . S
C1420 C1419 1.403 . S
C1420 C1421 1.404 . S
C1420 C1423 1.539 . S
C1421 C1417 1.408 . S
C1421 C1420 1.404 . S
C1421 H1433 0.930 . S
C1422 C1418 1.524 . S
C1422 H1434 0.956 . S
C1422 H1435 0.961 . S
C1422 H1436 0.961 . S
C1423 C1420 1.539 . S
C1423 H1437 0.958 . S
C1423 H1438 0.961 . S
C1423 H1439 0.960 . S
H1424 C1408 0.931 . S
H1425 C1413 0.929 . S
H1426 C1414 0.960 . S
H1427 C1414 0.962 . S
H1428 C1414 0.960 . S
H1429 C1415 0.961 . S
H1430 C1415 0.961 . S
H1431 C1415 0.961 . S
H1432 C1416 0.931 . S
H1433 C1421 0.930 . S
H1434 C1422 0.956 . S
H1435 C1422 0.961 . S
H1436 C1422 0.961 . S
H1437 C1423 0.958 . S
H1438 C1423 0.961 . S
H1439 C1423 0.960 . S
C1440 C1441 1.391 . S
C1440 C1442 1.394 . S
C1440 H1456 0.931 . S
C1441 C1440 1.391 . S
C1441 C1445 1.376 . S
C1442 C1440 1.394 . S
C1442 C1443 1.369 . S
C1442 C1446 1.531 . S
C1443 C1442 1.369 . S
C1443 C1444 1.410 . S
C1443 C1451 1.503 . S
C1444 C1443 1.410 . S
C1444 C1445 1.392 . S
C1444 C1447 1.511 . S
C1445 C1441 1.376 . S
C1445 C1444 1.392 . S
C1445 H1457 0.929 . S
C1446 C1442 1.531 . S
C1446 H1458 0.960 . S
C1446 H1459 0.962 . S
C1446 H1460 0.960 . S
C1447 C1444 1.511 . S
C1447 H1461 0.961 . S
C1447 H1462 0.961 . S
C1447 H1463 0.961 . S
C1448 C1449 1.370 . S
C1448 C1450 1.363 . S
C1448 H1464 0.931 . S
C1449 C1448 1.370 . S
C1449 C1453 1.408 . S
C1450 C1448 1.363 . S
C1450 C1451 1.370 . S
C1450 C1454 1.524 . S
C1451 C1443 1.503 . S
C1451 C1450 1.370 . S
C1451 C1452 1.403 . S
C1452 C1451 1.403 . S
C1452 C1453 1.404 . S
C1452 C1455 1.539 . S
C1453 C1449 1.408 . S
C1453 C1452 1.404 . S
C1453 H1465 0.930 . S
C1454 C1450 1.524 . S
C1454 H1466 0.956 . S
C1454 H1467 0.961 . S
C1454 H1468 0.961 . S
C1455 C1452 1.539 . S
C1455 H1469 0.958 . S
C1455 H1470 0.961 . S
C1455 H1471 0.960 . S
H1456 C1440 0.931 . S
H1457 C1445 0.929 . S
H1458 C1446 0.960 . S
H1459 C1446 0.962 . S
H1460 C1446 0.960 . S
H1461 C1447 0.961 . S
H1462 C1447 0.961 . S
H1463 C1447 0.961 . S
H1464 C1448 0.931 . S
H1465 C1453 0.930 . S
H1466 C1454 0.956 . S
H1467 C1454 0.961 . S
H1468 C1454 0.961 . S
H1469 C1455 0.958 . S
H1470 C1455 0.961 . S
H1471 C1455 0.960 . S
C1472 C1473 1.391 . S
C1472 C1474 1.394 . S
C1472 H1488 0.931 . S
C1473 C1472 1.391 . S
C1473 C1477 1.376 . S
C1474 C1472 1.394 . S
C1474 C1475 1.369 . S
C1474 C1478 1.531 . S
C1475 C1474 1.369 . S
C1475 C1476 1.410 . S
C1475 C1483 1.503 . S
C1476 C1475 1.410 . S
C1476 C1477 1.392 . S
C1476 C1479 1.511 . S
C1477 C1473 1.376 . S
C1477 C1476 1.392 . S
C1477 H1489 0.929 . S
C1478 C1474 1.531 . S
C1478 H1490 0.960 . S
C1478 H1491 0.962 . S
C1478 H1492 0.960 . S
C1479 C1476 1.511 . S
C1479 H1493 0.961 . S
C1479 H1494 0.961 . S
C1479 H1495 0.961 . S
C1480 C1481 1.370 . S
C1480 C1482 1.363 . S
C1480 H1496 0.931 . S
C1481 C1480 1.370 . S
C1481 C1485 1.408 . S
C1482 C1480 1.363 . S
C1482 C1483 1.370 . S
C1482 C1486 1.524 . S
C1483 C1475 1.503 . S
C1483 C1482 1.370 . S
C1483 C1484 1.403 . S
C1484 C1483 1.403 . S
C1484 C1485 1.404 . S
C1484 C1487 1.539 . S
C1485 C1481 1.408 . S
C1485 C1484 1.404 . S
C1485 H1497 0.930 . S
C1486 C1482 1.524 . S
C1486 H1498 0.956 . S
C1486 H1499 0.961 . S
C1486 H1500 0.961 . S
C1487 C1484 1.539 . S
C1487 H1501 0.958 . S
C1487 H1502 0.961 . S
C1487 H1503 0.960 . S
H1488 C1472 0.931 . S
H1489 C1477 0.929 . S
H1490 C1478 0.960 . S
H1491 C1478 0.962 . S
H1492 C1478 0.960 . S
H1493 C1479 0.961 . S
H1494 C1479 0.961 . S
H1495 C1479 0.961 . S
H1496 C1480 0.931 . S
H1497 C1485 0.930 . S
H1498 C1486 0.956 . S
H1499 C1486 0.961 . S
H1500 C1486 0.961 . S
H1501 C1487 0.958 . S
H1502 C1487 0.961 . S
H1503 C1487 0.960 . S
C1504 C1505 1.391 1_655 S
C1504 C1506 1.387 1_565 S
C1504 H1520 0.931 . S
C1505 C1504 1.391 1_455 S
C1505 C1509 1.376 . S
C1506 C1504 1.387 1_545 S
C1506 C1507 1.372 1_655 S
C1506 C1510 1.536 . S
C1507 C1506 1.372 1_455 S
C1507 C1508 1.406 1_545 S
C1507 C1515 1.503 1_455 S
C1508 C1507 1.406 1_565 S
C1508 C1509 1.400 . S
C1508 C1511 1.508 1_565 S
C1509 C1505 1.376 . S
C1509 C1508 1.400 . S
C1509 H1521 0.929 . S
C1510 C1506 1.536 . S
C1510 H1522 0.960 . S
C1510 H1523 0.962 1_545 S
C1510 H1524 0.960 . S
C1511 C1508 1.508 1_545 S
C1511 H1525 0.961 1_545 S
C1511 H1526 0.961 1_545 S
C1511 H1527 0.961 . S
C1512 C1513 1.370 1_565 S
C1512 C1514 1.363 . S
C1512 H1528 0.931 . S
C1513 C1512 1.370 1_545 S
C1513 C1517 1.408 . S
C1514 C1512 1.363 . S
C1514 C1515 1.370 1_565 S
C1514 C1518 1.524 . S
C1515 C1507 1.503 1_655 S
C1515 C1514 1.370 1_545 S
C1515 C1516 1.403 . S
C1516 C1515 1.403 . S
C1516 C1517 1.404 . S
C1516 C1519 1.539 1_655 S
C1517 C1513 1.408 . S
C1517 C1516 1.404 . S
C1517 H1529 0.930 . S
C1518 C1514 1.524 . S
C1518 H1530 0.956 . S
C1518 H1531 0.961 1_655 S
C1518 H1532 0.961 . S
C1519 C1516 1.539 1_455 S
C1519 H1533 0.958 1_455 S
C1519 H1534 0.961 . S
C1519 H1535 0.960 . S
H1520 C1504 0.931 . S
H1521 C1509 0.929 . S
H1522 C1510 0.960 . S
H1523 C1510 0.962 1_565 S
H1524 C1510 0.960 . S
H1525 C1511 0.961 1_565 S
H1526 C1511 0.961 1_565 S
H1527 C1511 0.961 . S
H1528 C1512 0.931 . S
H1529 C1517 0.930 . S
H1530 C1518 0.956 . S
H1531 C1518 0.961 1_455 S
H1532 C1518 0.961 . S
H1533 C1519 0.958 1_655 S
H1534 C1519 0.961 . S
H1535 C1519 0.960 . S
C1536 C1537 1.391 . S
C1536 C1538 1.394 . S
C1536 H1552 0.931 . S
C1537 C1536 1.391 . S
C1537 C1541 1.376 . S
C1538 C1536 1.394 . S
C1538 C1539 1.369 . S
C1538 C1542 1.531 . S
C1539 C1538 1.369 . S
C1539 C1540 1.410 . S
C1539 C1547 1.503 . S
C1540 C1539 1.410 . S
C1540 C1541 1.392 . S
C1540 C1543 1.511 . S
C1541 C1537 1.376 . S
C1541 C1540 1.392 . S
C1541 H1553 0.929 . S
C1542 C1538 1.531 . S
C1542 H1554 0.960 . S
C1542 H1555 0.962 . S
C1542 H1556 0.960 . S
C1543 C1540 1.511 . S
C1543 H1557 0.961 . S
C1543 H1558 0.961 . S
C1543 H1559 0.961 . S
C1544 C1545 1.370 . S
C1544 C1546 1.363 . S
C1544 H1560 0.931 . S
C1545 C1544 1.370 . S
C1545 C1549 1.408 . S
C1546 C1544 1.363 . S
C1546 C1547 1.370 . S
C1546 C1550 1.524 . S
C1547 C1539 1.503 . S
C1547 C1546 1.370 . S
C1547 C1548 1.403 . S
C1548 C1547 1.403 . S
C1548 C1549 1.404 . S
C1548 C1551 1.539 . S
C1549 C1545 1.408 . S
C1549 C1548 1.404 . S
C1549 H1561 0.930 . S
C1550 C1546 1.524 . S
C1550 H1562 0.956 . S
C1550 H1563 0.961 . S
C1550 H1564 0.961 . S
C1551 C1548 1.539 . S
C1551 H1565 0.958 . S
C1551 H1566 0.961 . S
C1551 H1567 0.960 . S
H1552 C1536 0.931 . S
H1553 C1541 0.929 . S
H1554 C1542 0.960 . S
H1555 C1542 0.962 . S
H1556 C1542 0.960 . S
H1557 C1543 0.961 . S
H1558 C1543 0.961 . S
H1559 C1543 0.961 . S
H1560 C1544 0.931 . S
H1561 C1549 0.930 . S
H1562 C1550 0.956 . S
H1563 C1550 0.961 . S
H1564 C1550 0.961 . S
H1565 C1551 0.958 . S
H1566 C1551 0.961 . S
H1567 C1551 0.960 . S
C1568 C1569 1.391 . S
C1568 C1570 1.394 . S
C1568 H1584 0.931 . S
C1569 C1568 1.391 . S
C1569 C1573 1.376 . S
C1570 C1568 1.394 . S
C1570 C1571 1.369 . S
C1570 C1574 1.531 1_554 S
C1571 C1570 1.369 . S
C1571 C1572 1.410 . S
C1571 C1579 1.503 1_554 S
C1572 C1571 1.410 . S
C1572 C1573 1.392 . S
C1572 C1575 1.511 1_545 S
C1573 C1569 1.376 . S
C1573 C1572 1.392 . S
C1573 H1585 0.934 . S
C1574 C1570 1.531 1_556 S
C1574 H1586 0.960 . S
C1574 H1587 0.962 . S
C1574 H1588 0.960 . S
C1575 C1572 1.511 1_565 S
C1575 H1589 0.961 . S
C1575 H1590 0.961 . S
C1575 H1591 0.961 1_565 S
C1576 C1577 1.370 . S
C1576 C1578 1.363 . S
C1576 H1592 0.931 . S
C1577 C1576 1.370 . S
C1577 C1581 1.408 1_565 S
C1578 C1576 1.363 . S
C1578 C1579 1.370 1_565 S
C1578 C1582 1.524 . S
C1579 C1571 1.503 1_556 S
C1579 C1578 1.370 1_545 S
C1579 C1580 1.403 . S
C1580 C1579 1.403 . S
C1580 C1581 1.404 . S
C1580 C1583 1.539 . S
C1581 C1577 1.408 1_545 S
C1581 C1580 1.404 . S
C1581 H1593 0.930 . S
C1582 C1578 1.524 . S
C1582 H1594 0.956 . S
C1582 H1595 0.961 1_556 S
C1582 H1596 0.961 . S
C1583 C1580 1.539 . S
C1583 H1597 0.958 . S
C1583 H1598 0.961 . S
C1583 H1599 0.960 . S
H1584 C1568 0.931 . S
H1585 C1573 0.934 . S
H1586 C1574 0.960 . S
H1587 C1574 0.962 . S
H1588 C1574 0.960 . S
H1589 C1575 0.961 . S
H1590 C1575 0.961 . S
H1591 C1575 0.961 1_545 S
H1592 C1576 0.931 . S
H1593 C1581 0.930 . S
H1594 C1582 0.956 . S
H1595 C1582 0.961 1_554 S
H1596 C1582 0.961 . S
H1597 C1583 0.958 . S
H1598 C1583 0.961 . S
H1599 C1583 0.960 . S
C1600 C1601 1.391 . S
C1600 C1602 1.394 . S
C1600 H1616 0.931 . S
C1601 C1600 1.391 . S
C1601 C1605 1.376 . S
C1602 C1600 1.394 . S
C1602 C1603 1.369 . S
C1602 C1606 1.531 . S
C1603 C1602 1.369 . S
C1603 C1604 1.410 . S
C1603 C1611 1.503 . S
C1604 C1603 1.410 . S
C1604 C1605 1.392 . S
C1604 C1607 1.511 . S
C1605 C1601 1.376 . S
C1605 C1604 1.392 . S
C1605 H1617 0.929 . S
C1606 C1602 1.531 . S
C1606 H1618 0.960 . S
C1606 H1619 0.962 . S
C1606 H1620 0.960 . S
C1607 C1604 1.511 . S
C1607 H1621 0.961 . S
C1607 H1622 0.961 . S
C1607 H1623 0.961 . S
C1608 C1609 1.370 . S
C1608 C1610 1.363 . S
C1608 H1624 0.931 . S
C1609 C1608 1.370 . S
C1609 C1613 1.408 . S
C1610 C1608 1.363 . S
C1610 C1611 1.370 . S
C1610 C1614 1.524 . S
C1611 C1603 1.503 . S
C1611 C1610 1.370 . S
C1611 C1612 1.403 . S
C1612 C1611 1.403 . S
C1612 C1613 1.404 . S
C1612 C1615 1.539 . S
C1613 C1609 1.408 . S
C1613 C1612 1.404 . S
C1613 H1625 0.930 . S
C1614 C1610 1.524 . S
C1614 H1626 0.956 . S
C1614 H1627 0.961 . S
C1614 H1628 0.961 . S
C1615 C1612 1.539 . S
C1615 H1629 0.958 . S
C1615 H1630 0.961 . S
C1615 H1631 0.960 . S
H1616 C1600 0.931 . S
H1617 C1605 0.929 . S
H1618 C1606 0.960 . S
H1619 C1606 0.962 . S
H1620 C1606 0.960 . S
H1621 C1607 0.961 . S
H1622 C1607 0.961 . S
H1623 C1607 0.961 . S
H1624 C1608 0.931 . S
H1625 C1613 0.930 . S
H1626 C1614 0.956 . S
H1627 C1614 0.961 . S
H1628 C1614 0.961 . S
H1629 C1615 0.958 . S
H1630 C1615 0.961 . S
H1631 C1615 0.960 . S
C1632 C1633 1.391 . S
C1632 C1634 1.394 . S
C1632 H1648 0.931 . S
C1633 C1632 1.391 . S
C1633 C1637 1.376 1_565 S
C1634 C1632 1.394 . S
C1634 C1635 1.369 . S
C1634 C1638 1.531 . S
C1635 C1634 1.369 . S
C1635 C1636 1.410 1_565 S
C1635 C1643 1.503 1_565 S
C1636 C1635 1.410 1_545 S
C1636 C1637 1.392 . S
C1636 C1639 1.511 . S
C1637 C1633 1.376 1_545 S
C1637 C1636 1.392 . S
C1637 H1649 0.929 . S
C1638 C1634 1.531 . S
C1638 H1650 0.960 . S
C1638 H1651 0.962 . S
C1638 H1652 0.960 . S
C1639 C1636 1.511 . S
C1639 H1653 0.961 . S
C1639 H1654 0.961 . S
C1639 H1655 0.961 . S
C1640 C1641 1.370 . S
C1640 C1642 1.363 . S
C1640 H1656 0.931 . S
C1641 C1640 1.370 . S
C1641 C1645 1.408 . S
C1642 C1640 1.363 . S
C1642 C1643 1.370 . S
C1642 C1646 1.524 . S
C1643 C1635 1.503 1_545 S
C1643 C1642 1.370 . S
C1643 C1644 1.403 1_545 S
C1644 C1643 1.403 1_565 S
C1644 C1645 1.404 1_565 S
C1644 C1647 1.539 . S
C1645 C1641 1.408 . S
C1645 C1644 1.404 1_545 S
C1645 H1657 0.930 1_545 S
C1646 C1642 1.524 . S
C1646 H1658 0.956 . S
C1646 H1659 0.961 . S
C1646 H1660 0.961 . S
C1647 C1644 1.539 . S
C1647 H1661 0.958 . S
C1647 H1662 0.961 . S
C1647 H1663 0.960 . S
H1648 C1632 0.931 . S
H1649 C1637 0.929 . S
H1650 C1638 0.960 . S
H1651 C1638 0.962 . S
H1652 C1638 0.960 . S
H1653 C1639 0.961 . S
H1654 C1639 0.961 . S
H1655 C1639 0.961 . S
H1656 C1640 0.931 . S
H1657 C1645 0.930 1_565 S
H1658 C1646 0.956 . S
H1659 C1646 0.961 . S
H1660 C1646 0.961 . S
H1661 C1647 0.958 . S
H1662 C1647 0.961 . S
H1663 C1647 0.960 . S
C1664 C1665 1.391 . S
C1664 C1666 1.394 . S
C1664 H1680 0.931 . S
C1665 C1664 1.391 . S
C1665 C1669 1.376 . S
C1666 C1664 1.394 . S
C1666 C1667 1.369 . S
C1666 C1670 1.531 . S
C1667 C1666 1.369 . S
C1667 C1668 1.410 . S
C1667 C1675 1.503 . S
C1668 C1667 1.410 . S
C1668 C1669 1.392 . S
C1668 C1671 1.511 . S
C1669 C1665 1.376 . S
C1669 C1668 1.392 . S
C1669 H1681 0.929 . S
C1670 C1666 1.531 . S
C1670 H1682 0.960 . S
C1670 H1683 0.962 . S
C1670 H1684 0.960 . S
C1671 C1668 1.511 . S
C1671 H1685 0.961 . S
C1671 H1686 0.961 . S
C1671 H1687 0.961 . S
C1672 C1673 1.370 . S
C1672 C1674 1.363 . S
C1672 H1688 0.931 . S
C1673 C1672 1.370 . S
C1673 C1677 1.408 . S
C1674 C1672 1.363 . S
C1674 C1675 1.370 . S
C1674 C1678 1.524 . S
C1675 C1667 1.503 . S
C1675 C1674 1.370 . S
C1675 C1676 1.403 . S
C1676 C1675 1.403 . S
C1676 C1677 1.404 . S
C1676 C1679 1.539 . S
C1677 C1673 1.408 . S
C1677 C1676 1.404 . S
C1677 H1689 0.930 . S
C1678 C1674 1.524 . S
C1678 H1690 0.956 . S
C1678 H1691 0.961 . S
C1678 H1692 0.961 . S
C1679 C1676 1.539 . S
C1679 H1693 0.958 . S
C1679 H1694 0.961 . S
C1679 H1695 0.960 . S
H1680 C1664 0.931 . S
H1681 C1669 0.929 . S
H1682 C1670 0.960 . S
H1683 C1670 0.962 . S
H1684 C1670 0.960 . S
H1685 C1671 0.961 . S
H1686 C1671 0.961 . S
H1687 C1671 0.961 . S
H1688 C1672 0.931 . S
H1689 C1677 0.930 . S
H1690 C1678 0.956 . S
H1691 C1678 0.961 . S
H1692 C1678 0.961 . S
H1693 C1679 0.958 . S
H1694 C1679 0.961 . S
H1695 C1679 0.960 . S
C1696 C1697 1.391 . S
C1696 C1698 1.394 . S
C1696 H1712 0.931 . S
C1697 C1696 1.391 . S
C1697 C1701 1.376 1_545 S
C1698 C1696 1.394 . S
C1698 C1699 1.371 . S
C1698 C1702 1.531 1_556 S
C1699 C1698 1.371 . S
C1699 C1700 1.410 1_545 S
C1699 C1707 1.501 1_446 S
C1700 C1699 1.410 1_565 S
C1700 C1701 1.392 . S
C1700 C1703 1.511 1_455 S
C1701 C1697 1.376 1_565 S
C1701 C1700 1.392 . S
C1701 H1713 0.929 . S
C1702 C1698 1.531 1_554 S
C1702 H1714 0.960 1_455 S
C1702 H1715 0.962 . S
C1702 H1716 0.961 1_554 S
C1703 C1700 1.511 1_655 S
C1703 H1717 0.961 1_655 S
C1703 H1718 0.961 . S
C1703 H1719 0.961 . S
C1704 C1705 1.370 1_455 S
C1704 C1706 1.363 . S
C1704 H1720 0.931 . S
C1705 C1704 1.370 1_655 S
C1705 C1709 1.408 . S
C1706 C1704 1.363 . S
C1706 C1707 1.370 1_455 S
C1706 C1710 1.524 . S
C1707 C1699 1.501 1_664 S
C1707 C1706 1.370 1_655 S
C1707 C1708 1.403 . S
C1708 C1707 1.403 . S
C1708 C1709 1.404 . S
C1708 C1711 1.539 1_565 S
C1709 C1705 1.408 . S
C1709 C1708 1.404 . S
C1709 H1721 0.930 . S
C1710 C1706 1.524 . S
C1710 H1722 0.956 1_565 S
C1710 H1723 0.961 . S
C1710 H1724 0.961 . S
C1711 C1708 1.539 1_545 S
C1711 H1725 0.958 . S
C1711 H1726 0.961 1_545 S
C1711 H1727 0.960 1_544 S
H1712 C1696 0.931 . S
H1713 C1701 0.929 . S
H1714 C1702 0.960 1_655 S
H1715 C1702 0.962 . S
H1716 C1702 0.961 1_556 S
H1717 C1703 0.961 1_455 S
H1718 C1703 0.961 . S
H1719 C1703 0.961 . S
H1720 C1704 0.931 . S
H1721 C1709 0.930 . S
H1722 C1710 0.956 1_545 S
H1723 C1710 0.961 . S
H1724 C1710 0.961 . S
H1725 C1711 0.958 . S
H1726 C1711 0.961 1_565 S
H1727 C1711 0.960 1_566 S
C1728 C1729 1.391 . S
C1728 C1730 1.394 . S
C1728 H1744 0.931 . S
C1729 C1728 1.391 . S
C1729 C1733 1.376 . S
C1730 C1728 1.394 . S
C1730 C1731 1.369 . S
C1730 C1734 1.531 . S
C1731 C1730 1.369 . S
C1731 C1732 1.410 . S
C1731 C1739 1.503 . S
C1732 C1731 1.410 . S
C1732 C1733 1.392 . S
C1732 C1735 1.511 . S
C1733 C1729 1.376 . S
C1733 C1732 1.392 . S
C1733 H1745 0.929 . S
C1734 C1730 1.531 . S
C1734 H1746 0.960 . S
C1734 H1747 0.962 . S
C1734 H1748 0.960 . S
C1735 C1732 1.511 . S
C1735 H1749 0.961 . S
C1735 H1750 0.961 . S
C1735 H1751 0.961 . S
C1736 C1737 1.370 . S
C1736 C1738 1.363 . S
C1736 H1752 0.931 . S
C1737 C1736 1.370 . S
C1737 C1741 1.408 . S
C1738 C1736 1.363 . S
C1738 C1739 1.370 . S
C1738 C1742 1.524 . S
C1739 C1731 1.503 . S
C1739 C1738 1.370 . S
C1739 C1740 1.403 . S
C1740 C1739 1.403 . S
C1740 C1741 1.404 . S
C1740 C1743 1.539 . S
C1741 C1737 1.408 . S
C1741 C1740 1.404 . S
C1741 H1753 0.930 . S
C1742 C1738 1.524 . S
C1742 H1754 0.956 . S
C1742 H1755 0.961 . S
C1742 H1756 0.961 . S
C1743 C1740 1.539 . S
C1743 H1757 0.958 . S
C1743 H1758 0.961 . S
C1743 H1759 0.960 . S
H1744 C1728 0.931 . S
H1745 C1733 0.929 . S
H1746 C1734 0.960 . S
H1747 C1734 0.962 . S
H1748 C1734 0.960 . S
H1749 C1735 0.961 . S
H1750 C1735 0.961 . S
H1751 C1735 0.961 . S
H1752 C1736 0.931 . S
H1753 C1741 0.930 . S
H1754 C1742 0.956 . S
H1755 C1742 0.961 . S
H1756 C1742 0.961 . S
H1757 C1743 0.958 . S
H1758 C1743 0.961 . S
H1759 C1743 0.960 . S
C1760 C1761 1.391 . S
C1760 C1762 1.394 . S
C1760 H1776 0.931 . S
C1761 C1760 1.391 . S
C1761 C1765 1.376 . S
C1762 C1760 1.394 . S
C1762 C1763 1.369 . S
C1762 C1766 1.531 . S
C1763 C1762 1.369 . S
C1763 C1764 1.410 . S
C1763 C1771 1.503 . S
C1764 C1763 1.410 . S
C1764 C1765 1.392 . S
C1764 C1767 1.511 . S
C1765 C1761 1.376 . S
C1765 C1764 1.392 . S
C1765 H1777 0.929 . S
C1766 C1762 1.531 . S
C1766 H1778 0.960 . S
C1766 H1779 0.962 . S
C1766 H1780 0.960 . S
C1767 C1764 1.511 . S
C1767 H1781 0.961 . S
C1767 H1782 0.961 . S
C1767 H1783 0.961 . S
C1768 C1769 1.370 . S
C1768 C1770 1.363 . S
C1768 H1784 0.931 . S
C1769 C1768 1.370 . S
C1769 C1773 1.408 . S
C1770 C1768 1.363 . S
C1770 C1771 1.370 . S
C1770 C1774 1.524 . S
C1771 C1763 1.503 . S
C1771 C1770 1.370 . S
C1771 C1772 1.403 . S
C1772 C1771 1.403 . S
C1772 C1773 1.404 . S
C1772 C1775 1.539 . S
C1773 C1769 1.408 . S
C1773 C1772 1.404 . S
C1773 H1785 0.930 . S
C1774 C1770 1.524 . S
C1774 H1786 0.956 . S
C1774 H1787 0.961 . S
C1774 H1788 0.961 . S
C1775 C1772 1.539 . S
C1775 H1789 0.958 . S
C1775 H1790 0.961 . S
C1775 H1791 0.960 . S
H1776 C1760 0.931 . S
H1777 C1765 0.929 . S
H1778 C1766 0.960 . S
H1779 C1766 0.962 . S
H1780 C1766 0.960 . S
H1781 C1767 0.961 . S
H1782 C1767 0.961 . S
H1783 C1767 0.961 . S
H1784 C1768 0.931 . S
H1785 C1773 0.930 . S
H1786 C1774 0.956 . S
H1787 C1774 0.961 . S
H1788 C1774 0.961 . S
H1789 C1775 0.958 . S
H1790 C1775 0.961 . S
H1791 C1775 0.960 . S
C1792 C1793 1.391 . S
C1792 C1794 1.394 . S
C1792 H1808 0.931 . S
C1793 C1792 1.391 . S
C1793 C1797 1.376 . S
C1794 C1792 1.394 . S
C1794 C1795 1.369 . S
C1794 C1798 1.531 . S
C1795 C1794 1.369 . S
C1795 C1796 1.410 . S
C1795 C1803 1.503 . S
C1796 C1795 1.410 . S
C1796 C1797 1.392 . S
C1796 C1799 1.511 . S
C1797 C1793 1.376 . S
C1797 C1796 1.392 . S
C1797 H1809 0.929 . S
C1798 C1794 1.531 . S
C1798 H1810 0.960 . S
C1798 H1811 0.962 . S
C1798 H1812 0.960 . S
C1799 C1796 1.511 . S
C1799 H1813 0.961 . S
C1799 H1814 0.961 . S
C1799 H1815 0.961 . S
C1800 C1801 1.370 . S
C1800 C1802 1.363 . S
C1800 H1816 0.931 . S
C1801 C1800 1.370 . S
C1801 C1805 1.408 . S
C1802 C1800 1.363 . S
C1802 C1803 1.370 . S
C1802 C1806 1.524 . S
C1803 C1795 1.503 . S
C1803 C1802 1.370 . S
C1803 C1804 1.403 . S
C1804 C1803 1.403 . S
C1804 C1805 1.404 . S
C1804 C1807 1.539 . S
C1805 C1801 1.408 . S
C1805 C1804 1.404 . S
C1805 H1817 0.930 . S
C1806 C1802 1.524 . S
C1806 H1818 0.956 . S
C1806 H1819 0.961 . S
C1806 H1820 0.961 . S
C1807 C1804 1.539 . S
C1807 H1821 0.958 . S
C1807 H1822 0.961 . S
C1807 H1823 0.960 . S
H1808 C1792 0.931 . S
H1809 C1797 0.929 . S
H1810 C1798 0.960 . S
H1811 C1798 0.962 . S
H1812 C1798 0.960 . S
H1813 C1799 0.961 . S
H1814 C1799 0.961 . S
H1815 C1799 0.961 . S
H1816 C1800 0.931 . S
H1817 C1805 0.930 . S
H1818 C1806 0.956 . S
H1819 C1806 0.961 . S
H1820 C1806 0.961 . S
H1821 C1807 0.958 . S
H1822 C1807 0.961 . S
H1823 C1807 0.960 . S
C1824 C1825 1.391 . S
C1824 C1826 1.394 . S
C1824 H1840 0.931 . S
C1825 C1824 1.391 . S
C1825 C1829 1.376 . S
C1826 C1824 1.394 . S
C1826 C1827 1.369 . S
C1826 C1830 1.531 . S
C1827 C1826 1.369 . S
C1827 C1828 1.410 . S
C1827 C1835 1.503 . S
C1828 C1827 1.410 . S
C1828 C1829 1.392 . S
C1828 C1831 1.511 . S
C1829 C1825 1.376 . S
C1829 C1828 1.392 . S
C1829 H1841 0.929 . S
C1830 C1826 1.531 . S
C1830 H1842 0.960 . S
C1830 H1843 0.962 . S
C1830 H1844 0.960 . S
C1831 C1828 1.511 . S
C1831 H1845 0.961 . S
C1831 H1846 0.961 . S
C1831 H1847 0.961 . S
C1832 C1833 1.370 . S
C1832 C1834 1.363 . S
C1832 H1848 0.931 . S
C1833 C1832 1.370 . S
C1833 C1837 1.408 . S
C1834 C1832 1.363 . S
C1834 C1835 1.370 . S
C1834 C1838 1.524 . S
C1835 C1827 1.503 . S
C1835 C1834 1.370 . S
C1835 C1836 1.403 . S
C1836 C1835 1.403 . S
C1836 C1837 1.404 . S
C1836 C1839 1.539 . S
C1837 C1833 1.408 . S
C1837 C1836 1.404 . S
C1837 H1849 0.930 . S
C1838 C1834 1.524 . S
C1838 H1850 0.956 . S
C1838 H1851 0.961 . S
C1838 H1852 0.961 . S
C1839 C1836 1.539 . S
C1839 H1853 0.958 . S
C1839 H1854 0.961 . S
C1839 H1855 0.960 . S
H1840 C1824 0.931 . S
H1841 C1829 0.929 . S
H1842 C1830 0.960 . S
H1843 C1830 0.962 . S
H1844 C1830 0.960 . S
H1845 C1831 0.961 . S
H1846 C1831 0.961 . S
H1847 C1831 0.961 . S
H1848 C1832 0.931 . S
H1849 C1837 0.930 . S
H1850 C1838 0.956 . S
H1851 C1838 0.961 . S
H1852 C1838 0.961 . S
H1853 C1839 0.958 . S
H1854 C1839 0.961 . S
H1855 C1839 0.960 . S
C1856 C1857 1.391 . S
C1856 C1858 1.394 . S
C1856 H1872 0.931 . S
C1857 C1856 1.391 . S
C1857 C1861 1.376 . S
C1858 C1856 1.394 . S
C1858 C1859 1.369 . S
C1858 C1862 1.531 1_554 S
C1859 C1858 1.369 . S
C1859 C1860 1.410 . S
C1859 C1867 1.503 1_554 S
C1860 C1859 1.410 . S
C1860 C1861 1.392 . S
C1860 C1863 1.511 . S
C1861 C1857 1.376 . S
C1861 C1860 1.392 . S
C1861 H1873 0.929 . S
C1862 C1858 1.531 1_556 S
C1862 H1874 0.960 . S
C1862 H1875 0.962 . S
C1862 H1876 0.960 . S
C1863 C1860 1.511 . S
C1863 H1877 0.961 . S
C1863 H1878 0.961 . S
C1863 H1879 0.961 . S
C1864 C1865 1.370 . S
C1864 C1866 1.363 . S
C1864 H1880 0.931 . S
C1865 C1864 1.370 . S
C1865 C1869 1.408 . S
C1866 C1864 1.363 . S
C1866 C1867 1.370 . S
C1866 C1870 1.524 . S
C1867 C1859 1.503 1_556 S
C1867 C1866 1.370 . S
C1867 C1868 1.403 . S
C1868 C1867 1.403 . S
C1868 C1869 1.404 . S
C1868 C1871 1.539 . S
C1869 C1865 1.408 . S
C1869 C1868 1.404 . S
C1869 H1881 0.930 . S
C1870 C1866 1.524 . S
C1870 H1882 0.956 . S
C1870 H1883 0.961 1_556 S
C1870 H1884 0.961 . S
C1871 C1868 1.539 . S
C1871 H1885 0.958 . S
C1871 H1886 0.961 . S
C1871 H1887 0.960 . S
H1872 C1856 0.931 . S
H1873 C1861 0.929 . S
H1874 C1862 0.960 . S
H1875 C1862 0.962 . S
H1876 C1862 0.960 . S
H1877 C1863 0.961 . S
H1878 C1863 0.961 . S
H1879 C1863 0.961 . S
H1880 C1864 0.931 . S
H1881 C1869 0.930 . S
H1882 C1870 0.956 . S
H1883 C1870 0.961 1_554 S
H1884 C1870 0.961 . S
H1885 C1871 0.958 . S
H1886 C1871 0.961 . S
H1887 C1871 0.960 . S
C1888 C1889 1.391 . S
C1888 C1890 1.394 . S
C1888 H1904 0.931 . S
C1889 C1888 1.391 . S
C1889 C1893 1.376 1_455 S
C1890 C1888 1.394 . S
C1890 C1891 1.369 . S
C1890 C1894 1.531 . S
C1891 C1890 1.369 . S
C1891 C1892 1.410 1_455 S
C1891 C1899 1.503 1_455 S
C1892 C1891 1.410 1_655 S
C1892 C1893 1.392 . S
C1892 C1895 1.511 . S
C1893 C1889 1.376 1_655 S
C1893 C1892 1.392 . S
C1893 H1905 0.929 . S
C1894 C1890 1.531 . S
C1894 H1906 0.960 . S
C1894 H1907 0.962 . S
C1894 H1908 0.960 . S
C1895 C1892 1.511 . S
C1895 H1909 0.961 . S
C1895 H1910 0.961 . S
C1895 H1911 0.961 . S
C1896 C1897 1.370 . S
C1896 C1898 1.363 . S
C1896 H1912 0.931 . S
C1897 C1896 1.370 . S
C1897 C1901 1.408 . S
C1898 C1896 1.363 . S
C1898 C1899 1.370 . S
C1898 C1902 1.524 1_655 S
C1899 C1891 1.503 1_655 S
C1899 C1898 1.370 . S
C1899 C1900 1.403 . S
C1900 C1899 1.403 . S
C1900 C1901 1.404 . S
C1900 C1903 1.539 . S
C1901 C1897 1.408 . S
C1901 C1900 1.404 . S
C1901 H1913 0.930 . S
C1902 C1898 1.524 1_455 S
C1902 H1914 0.956 . S
C1902 H1915 0.961 . S
C1902 H1916 0.961 . S
C1903 C1900 1.539 . S
C1903 H1917 0.958 . S
C1903 H1918 0.961 . S
C1903 H1919 0.960 . S
H1904 C1888 0.931 . S
H1905 C1893 0.929 . S
H1906 C1894 0.960 . S
H1907 C1894 0.962 . S
H1908 C1894 0.960 . S
H1909 C1895 0.961 . S
H1910 C1895 0.961 . S
H1911 C1895 0.961 . S
H1912 C1896 0.931 . S
H1913 C1901 0.930 . S
H1914 C1902 0.956 . S
H1915 C1902 0.961 . S
H1916 C1902 0.961 . S
H1917 C1903 0.958 . S
H1918 C1903 0.961 . S
H1919 C1903 0.960 . S
C1920 C1921 1.391 . S
C1920 C1922 1.394 . S
C1920 H1936 0.931 . S
C1921 C1920 1.391 . S
C1921 C1925 1.370 1_455 S
C1922 C1920 1.394 . S
C1922 C1923 1.369 . S
C1922 C1926 1.531 . S
C1923 C1922 1.369 . S
C1923 C1924 1.410 1_455 S
C1923 C1931 1.503 1_454 S
C1924 C1923 1.410 1_655 S
C1924 C1925 1.395 . S
C1924 C1927 1.511 . S
C1925 C1921 1.370 1_655 S
C1925 C1924 1.395 . S
C1925 H1937 0.932 . S
C1926 C1922 1.531 . S
C1926 H1938 0.960 . S
C1926 H1939 0.976 . S
C1926 H1940 0.960 . S
C1927 C1924 1.511 . S
C1927 H1941 0.961 . S
C1927 H1942 0.961 . S
C1927 H1943 0.961 . S
C1928 C1929 1.370 . S
C1928 C1930 1.356 1_655 S
C1928 H1944 0.931 . S
C1929 C1928 1.370 . S
C1929 C1933 1.408 . S
C1930 C1928 1.356 1_455 S
C1930 C1931 1.363 1_455 S
C1930 C1934 1.540 . S
C1931 C1923 1.503 1_656 S
C1931 C1930 1.363 1_655 S
C1931 C1932 1.403 . S
C1932 C1931 1.403 . S
C1932 C1933 1.404 . S
C1932 C1935 1.539 1_556 S
C1933 C1929 1.408 . S
C1933 C1932 1.404 . S
C1933 H1945 0.930 . S
C1934 C1930 1.540 . S
C1934 H1946 0.956 . S
C1934 H1947 0.961 . S
C1934 H1948 0.961 . S
C1935 C1932 1.539 1_554 S
C1935 H1949 0.958 . S
C1935 H1950 0.961 . S
C1935 H1951 0.960 . S
H1936 C1920 0.931 . S
H1937 C1925 0.932 . S
H1938 C1926 0.960 . S
H1939 C1926 0.976 . S
H1940 C1926 0.960 . S
H1941 C1927 0.961 . S
H1942 C1927 0.961 . S
H1943 C1927 0.961 . S
H1944 C1928 0.931 . S
H1945 C1933 0.930 . S
H1946 C1934 0.956 . S
H1947 C1934 0.961 . S
H1948 C1934 0.961 . S
H1949 C1935 0.958 . S
H1950 C1935 0.961 . S
H1951 C1935 0.960 . S
C1952 C1953 1.391 . S
C1952 C1954 1.394 . S
C1952 H1968 0.931 . S
C1953 C1952 1.391 . S
C1953 C1957 1.376 . S
C1954 C1952 1.394 . S
C1954 C1955 1.369 . S
C1954 C1958 1.531 . S
C1955 C1954 1.369 . S
C1955 C1956 1.410 . S
C1955 C1963 1.503 . S
C1956 C1955 1.410 . S
C1956 C1957 1.392 . S
C1956 C1959 1.511 . S
C1957 C1953 1.376 . S
C1957 C1956 1.392 . S
C1957 H1969 0.929 . S
C1958 C1954 1.531 . S
C1958 H1970 0.960 . S
C1958 H1971 0.962 . S
C1958 H1972 0.960 . S
C1959 C1956 1.511 . S
C1959 H1973 0.961 . S
C1959 H1974 0.961 . S
C1959 H1975 0.961 . S
C1960 C1961 1.370 . S
C1960 C1962 1.363 . S
C1960 H1976 0.931 . S
C1961 C1960 1.370 . S
C1961 C1965 1.408 . S
C1962 C1960 1.363 . S
C1962 C1963 1.370 . S
C1962 C1966 1.524 . S
C1963 C1955 1.503 . S
C1963 C1962 1.370 . S
C1963 C1964 1.403 . S
C1964 C1963 1.403 . S
C1964 C1965 1.404 . S
C1964 C1967 1.539 . S
C1965 C1961 1.408 . S
C1965 C1964 1.404 . S
C1965 H1977 0.930 . S
C1966 C1962 1.524 . S
C1966 H1978 0.956 . S
C1966 H1979 0.961 . S
C1966 H1980 0.961 . S
C1967 C1964 1.539 . S
C1967 H1981 0.958 . S
C1967 H1982 0.961 . S
C1967 H1983 0.960 . S
H1968 C1952 0.931 . S
H1969 C1957 0.929 . S
H1970 C1958 0.960 . S
H1971 C1958 0.962 . S
H1972 C1958 0.960 . S
H1973 C1959 0.961 . S
H1974 C1959 0.961 . S
H1975 C1959 0.961 . S
H1976 C1960 0.931 . S
H1977 C1965 0.930 . S
H1978 C1966 0.956 . S
H1979 C1966 0.961 . S
H1980 C1966 0.961 . S
H1981 C1967 0.958 . S
H1982 C1967 0.961 . S
H1983 C1967 0.960 . S
C1984 C1985 1.391 . S
C1984 C1986 1.394 . S
C1984 H2000 0.931 . S
C1985 C1984 1.391 . S
C1985 C1989 1.376 . S
C1986 C1984 1.394 . S
C1986 C1987 1.369 . S
C1986 C1990 1.531 . S
C1987 C1986 1.369 . S
C1987 C1988 1.410 . S
C1987 C1995 1.503 . S
C1988 C1987 1.410 . S
C1988 C1989 1.392 . S
C1988 C1991 1.511 . S
C1989 C1985 1.376 . S
C1989 C1988 1.392 . S
C1989 H2001 0.929 . S
C1990 C1986 1.531 . S
C1990 H2002 0.960 . S
C1990 H2003 0.962 . S
C1990 H2004 0.960 . S
C1991 C1988 1.511 . S
C1991 H2005 0.961 . S
C1991 H2006 0.961 . S
C1991 H2007 0.961 . S
C1992 C1993 1.370 . S
C1992 C1994 1.363 . S
C1992 H2008 0.931 . S
C1993 C1992 1.370 . S
C1993 C1997 1.408 . S
C1994 C1992 1.363 . S
C1994 C1995 1.370 . S
C1994 C1998 1.524 . S
C1995 C1987 1.503 . S
C1995 C1994 1.370 . S
C1995 C1996 1.403 . S
C1996 C1995 1.403 . S
C1996 C1997 1.404 . S
C1996 C1999 1.539 . S
C1997 C1993 1.408 . S
C1997 C1996 1.404 . S
C1997 H2009 0.930 . S
C1998 C1994 1.524 . S
C1998 H2010 0.956 . S
C1998 H2011 0.961 . S
C1998 H2012 0.961 . S
C1999 C1996 1.539 . S
C1999 H2013 0.958 . S
C1999 H2014 0.961 . S
C1999 H2015 0.960 . S
H2000 C1984 0.931 . S
H2001 C1989 0.929 . S
H2002 C1990 0.960 . S
H2003 C1990 0.962 . S
H2004 C1990 0.960 . S
H2005 C1991 0.961 . S
H2006 C1991 0.961 . S
H2007 C1991 0.961 . S
H2008 C1992 0.931 . S
H2009 C1997 0.930 . S
H2010 C1998 0.956 . S
H2011 C1998 0.961 . S
H2012 C1998 0.961 . S
H2013 C1999 0.958 . S
H2014 C1999 0.961 . S
H2015 C1999 0.960 . S
C2016 C2017 1.391 . S
C2016 C2018 1.394 . S
C2016 H2032 0.931 . S
C2017 C2016 1.391 . S
C2017 C2021 1.376 . S
C2018 C2016 1.394 . S
C2018 C2019 1.369 . S
C2018 C2022 1.531 . S
C2019 C2018 1.369 . S
C2019 C2020 1.410 . S
C2019 C2027 1.503 . S
C2020 C2019 1.410 . S
C2020 C2021 1.392 . S
C2020 C2023 1.511 . S
C2021 C2017 1.376 . S
C2021 C2020 1.392 . S
C2021 H2033 0.929 . S
C2022 C2018 1.531 . S
C2022 H2034 0.960 . S
C2022 H2035 0.962 . S
C2022 H2036 0.960 . S
C2023 C2020 1.511 . S
C2023 H2037 0.961 . S
C2023 H2038 0.961 . S
C2023 H2039 0.961 . S
C2024 C2025 1.370 . S
C2024 C2026 1.363 . S
C2024 H2040 0.931 . S
C2025 C2024 1.370 . S
C2025 C2029 1.408 . S
C2026 C2024 1.363 . S
C2026 C2027 1.370 . S
C2026 C2030 1.524 . S
C2027 C2019 1.503 . S
C2027 C2026 1.370 . S
C2027 C2028 1.403 . S
C2028 C2027 1.403 . S
C2028 C2029 1.404 . S
C2028 C2031 1.539 . S
C2029 C2025 1.408 . S
C2029 C2028 1.404 . S
C2029 H2041 0.930 . S
C2030 C2026 1.524 . S
C2030 H2042 0.956 . S
C2030 H2043 0.961 . S
C2030 H2044 0.961 . S
C2031 C2028 1.539 . S
C2031 H2045 0.958 . S
C2031 H2046 0.961 . S
C2031 H2047 0.960 . S
H2032 C2016 0.931 . S
H2033 C2021 0.929 . S
H2034 C2022 0.960 . S
H2035 C2022 0.962 . S
H2036 C2022 0.960 . S
H2037 C2023 0.961 . S
H2038 C2023 0.961 . S
H2039 C2023 0.961 . S
H2040 C2024 0.931 . S
H2041 C2029 0.930 . S
H2042 C2030 0.956 . S
H2043 C2030 0.961 . S
H2044 C2030 0.961 . S
H2045 C2031 0.958 . S
H2046 C2031 0.961 . S
H2047 C2031 0.960 . S
C2048 C2049 1.391 . S
C2048 C2050 1.394 . S
C2048 H2064 0.931 . S
C2049 C2048 1.391 . S
C2049 C2053 1.376 . S
C2050 C2048 1.394 . S
C2050 C2051 1.369 . S
C2050 C2054 1.531 . S
C2051 C2050 1.369 . S
C2051 C2052 1.410 . S
C2051 C2059 1.503 . S
C2052 C2051 1.410 . S
C2052 C2053 1.392 . S
C2052 C2055 1.511 . S
C2053 C2049 1.376 . S
C2053 C2052 1.392 . S
C2053 H2065 0.929 . S
C2054 C2050 1.531 . S
C2054 H2066 0.960 . S
C2054 H2067 0.962 . S
C2054 H2068 0.960 . S
C2055 C2052 1.511 . S
C2055 H2069 0.961 . S
C2055 H2070 0.961 . S
C2055 H2071 0.961 . S
C2056 C2057 1.370 . S
C2056 C2058 1.363 . S
C2056 H2072 0.931 . S
C2057 C2056 1.370 . S
C2057 C2061 1.408 . S
C2058 C2056 1.363 . S
C2058 C2059 1.370 . S
C2058 C2062 1.524 . S
C2059 C2051 1.503 . S
C2059 C2058 1.370 . S
C2059 C2060 1.403 . S
C2060 C2059 1.403 . S
C2060 C2061 1.404 . S
C2060 C2063 1.539 . S
C2061 C2057 1.408 . S
C2061 C2060 1.404 . S
C2061 H2073 0.930 . S
C2062 C2058 1.524 . S
C2062 H2074 0.956 . S
C2062 H2075 0.961 . S
C2062 H2076 0.961 . S
C2063 C2060 1.539 . S
C2063 H2077 0.958 . S
C2063 H2078 0.961 . S
C2063 H2079 0.960 . S
H2064 C2048 0.931 . S
H2065 C2053 0.929 . S
H2066 C2054 0.960 . S
H2067 C2054 0.962 . S
H2068 C2054 0.960 . S
H2069 C2055 0.961 . S
H2070 C2055 0.961 . S
H2071 C2055 0.961 . S
H2072 C2056 0.931 . S
H2073 C2061 0.930 . S
H2074 C2062 0.956 . S
H2075 C2062 0.961 . S
H2076 C2062 0.961 . S
H2077 C2063 0.958 . S
H2078 C2063 0.961 . S
H2079 C2063 0.960 . S
C2080 C2081 1.391 . S
C2080 C2082 1.394 . S
C2080 H2096 0.931 . S
C2081 C2080 1.391 . S
C2081 C2085 1.376 . S
C2082 C2080 1.394 . S
C2082 C2083 1.369 . S
C2082 C2086 1.531 . S
C2083 C2082 1.369 . S
C2083 C2084 1.410 . S
C2083 C2091 1.503 . S
C2084 C2083 1.410 . S
C2084 C2085 1.392 . S
C2084 C2087 1.511 . S
C2085 C2081 1.376 . S
C2085 C2084 1.392 . S
C2085 H2097 0.929 . S
C2086 C2082 1.531 . S
C2086 H2098 0.960 . S
C2086 H2099 0.962 . S
C2086 H2100 0.960 . S
C2087 C2084 1.511 . S
C2087 H2101 0.961 . S
C2087 H2102 0.961 . S
C2087 H2103 0.961 . S
C2088 C2089 1.370 . S
C2088 C2090 1.363 . S
C2088 H2104 0.931 . S
C2089 C2088 1.370 . S
C2089 C2093 1.408 . S
C2090 C2088 1.363 . S
C2090 C2091 1.370 . S
C2090 C2094 1.524 . S
C2091 C2083 1.503 . S
C2091 C2090 1.370 . S
C2091 C2092 1.403 . S
C2092 C2091 1.403 . S
C2092 C2093 1.404 . S
C2092 C2095 1.539 . S
C2093 C2089 1.408 . S
C2093 C2092 1.404 . S
C2093 H2105 0.930 . S
C2094 C2090 1.524 . S
C2094 H2106 0.956 . S
C2094 H2107 0.961 . S
C2094 H2108 0.961 . S
C2095 C2092 1.539 . S
C2095 H2109 0.958 . S
C2095 H2110 0.961 . S
C2095 H2111 0.960 . S
H2096 C2080 0.931 . S
H2097 C2085 0.929 . S
H2098 C2086 0.960 . S
H2099 C2086 0.962 . S
H2100 C2086 0.960 . S
H2101 C2087 0.961 . S
H2102 C2087 0.961 . S
H2103 C2087 0.961 . S
H2104 C2088 0.931 . S
H2105 C2093 0.930 . S
H2106 C2094 0.956 . S
H2107 C2094 0.961 . S
H2108 C2094 0.961 . S
H2109 C2095 0.958 . S
H2110 C2095 0.961 . S
H2111 C2095 0.960 . S
C2112 C2113 1.391 . S
C2112 C2114 1.394 . S
C2112 H2128 0.931 . S
C2113 C2112 1.391 . S
C2113 C2117 1.376 . S
C2114 C2112 1.394 . S
C2114 C2115 1.369 . S
C2114 C2118 1.531 . S
C2115 C2114 1.369 . S
C2115 C2116 1.410 . S
C2115 C2123 1.503 . S
C2116 C2115 1.410 . S
C2116 C2117 1.392 . S
C2116 C2119 1.511 . S
C2117 C2113 1.376 . S
C2117 C2116 1.392 . S
C2117 H2129 0.929 . S
C2118 C2114 1.531 . S
C2118 H2130 0.960 . S
C2118 H2131 0.962 . S
C2118 H2132 0.960 . S
C2119 C2116 1.511 . S
C2119 H2133 0.961 . S
C2119 H2134 0.961 . S
C2119 H2135 0.961 . S
C2120 C2121 1.370 . S
C2120 C2122 1.363 . S
C2120 H2136 0.931 . S
C2121 C2120 1.370 . S
C2121 C2125 1.408 . S
C2122 C2120 1.363 . S
C2122 C2123 1.370 . S
C2122 C2126 1.524 . S
C2123 C2115 1.503 . S
C2123 C2122 1.370 . S
C2123 C2124 1.403 . S
C2124 C2123 1.403 . S
C2124 C2125 1.404 . S
C2124 C2127 1.539 . S
C2125 C2121 1.408 . S
C2125 C2124 1.404 . S
C2125 H2137 0.930 . S
C2126 C2122 1.524 . S
C2126 H2138 0.956 . S
C2126 H2139 0.961 . S
C2126 H2140 0.961 . S
C2127 C2124 1.539 . S
C2127 H2141 0.958 . S
C2127 H2142 0.961 . S
C2127 H2143 0.960 . S
H2128 C2112 0.931 . S
H2129 C2117 0.929 . S
H2130 C2118 0.960 . S
H2131 C2118 0.962 . S
H2132 C2118 0.960 . S
H2133 C2119 0.961 . S
H2134 C2119 0.961 . S
H2135 C2119 0.961 . S
H2136 C2120 0.931 . S
H2137 C2125 0.930 . S
H2138 C2126 0.956 . S
H2139 C2126 0.961 . S
H2140 C2126 0.961 . S
H2141 C2127 0.958 . S
H2142 C2127 0.961 . S
H2143 C2127 0.960 . S
C2144 C2145 1.391 . S
C2144 C2146 1.394 . S
C2144 H2160 0.931 . S
C2145 C2144 1.391 . S
C2145 C2149 1.376 . S
C2146 C2144 1.394 . S
C2146 C2147 1.369 . S
C2146 C2150 1.531 . S
C2147 C2146 1.369 . S
C2147 C2148 1.410 . S
C2147 C2155 1.503 . S
C2148 C2147 1.410 . S
C2148 C2149 1.392 . S
C2148 C2151 1.511 . S
C2149 C2145 1.376 . S
C2149 C2148 1.392 . S
C2149 H2161 0.929 . S
C2150 C2146 1.531 . S
C2150 H2162 0.960 . S
C2150 H2163 0.962 . S
C2150 H2164 0.960 . S
C2151 C2148 1.511 . S
C2151 H2165 0.961 . S
C2151 H2166 0.961 . S
C2151 H2167 0.961 . S
C2152 C2153 1.370 . S
C2152 C2154 1.363 . S
C2152 H2168 0.931 . S
C2153 C2152 1.370 . S
C2153 C2157 1.408 . S
C2154 C2152 1.363 . S
C2154 C2155 1.370 . S
C2154 C2158 1.524 . S
C2155 C2147 1.503 . S
C2155 C2154 1.370 . S
C2155 C2156 1.403 . S
C2156 C2155 1.403 . S
C2156 C2157 1.404 . S
C2156 C2159 1.539 . S
C2157 C2153 1.408 . S
C2157 C2156 1.404 . S
C2157 H2169 0.930 . S
C2158 C2154 1.524 . S
C2158 H2170 0.956 . S
C2158 H2171 0.961 . S
C2158 H2172 0.961 . S
C2159 C2156 1.539 . S
C2159 H2173 0.958 . S
C2159 H2174 0.961 . S
C2159 H2175 0.960 . S
H2160 C2144 0.931 . S
H2161 C2149 0.929 . S
H2162 C2150 0.960 . S
H2163 C2150 0.962 . S
H2164 C2150 0.960 . S
H2165 C2151 0.961 . S
H2166 C2151 0.961 . S
H2167 C2151 0.961 . S
H2168 C2152 0.931 . S
H2169 C2157 0.930 . S
H2170 C2158 0.956 . S
H2171 C2158 0.961 . S
H2172 C2158 0.961 . S
H2173 C2159 0.958 . S
H2174 C2159 0.961 . S
H2175 C2159 0.960 . S
C2176 C2177 1.391 . S
C2176 C2178 1.394 . S
C2176 H2192 0.931 . S
C2177 C2176 1.391 . S
C2177 C2181 1.376 . S
C2178 C2176 1.394 . S
C2178 C2179 1.369 . S
C2178 C2182 1.531 . S
C2179 C2178 1.369 . S
C2179 C2180 1.410 . S
C2179 C2187 1.503 . S
C2180 C2179 1.410 . S
C2180 C2181 1.392 . S
C2180 C2183 1.511 . S
C2181 C2177 1.376 . S
C2181 C2180 1.392 . S
C2181 H2193 0.929 . S
C2182 C2178 1.531 . S
C2182 H2194 0.960 . S
C2182 H2195 0.962 . S
C2182 H2196 0.960 . S
C2183 C2180 1.511 . S
C2183 H2197 0.961 . S
C2183 H2198 0.961 . S
C2183 H2199 0.961 . S
C2184 C2185 1.370 . S
C2184 C2186 1.363 . S
C2184 H2200 0.931 . S
C2185 C2184 1.370 . S
C2185 C2189 1.408 . S
C2186 C2184 1.363 . S
C2186 C2187 1.370 . S
C2186 C2190 1.524 . S
C2187 C2179 1.503 . S
C2187 C2186 1.370 . S
C2187 C2188 1.403 . S
C2188 C2187 1.403 . S
C2188 C2189 1.404 . S
C2188 C2191 1.539 . S
C2189 C2185 1.408 . S
C2189 C2188 1.404 . S
C2189 H2201 0.930 . S
C2190 C2186 1.524 . S
C2190 H2202 0.956 . S
C2190 H2203 0.961 . S
C2190 H2204 0.961 . S
C2191 C2188 1.539 . S
C2191 H2205 0.958 . S
C2191 H2206 0.961 . S
C2191 H2207 0.960 . S
H2192 C2176 0.931 . S
H2193 C2181 0.929 . S
H2194 C2182 0.960 . S
H2195 C2182 0.962 . S
H2196 C2182 0.960 . S
H2197 C2183 0.961 . S
H2198 C2183 0.961 . S
H2199 C2183 0.961 . S
H2200 C2184 0.931 . S
H2201 C2189 0.930 . S
H2202 C2190 0.956 . S
H2203 C2190 0.961 . S
H2204 C2190 0.961 . S
H2205 C2191 0.958 . S
H2206 C2191 0.961 . S
H2207 C2191 0.960 . S
C2208 C2209 1.391 . S
C2208 C2210 1.394 . S
C2208 H2224 0.931 . S
C2209 C2208 1.391 . S
C2209 C2213 1.376 . S
C2210 C2208 1.394 . S
C2210 C2211 1.369 . S
C2210 C2214 1.531 . S
C2211 C2210 1.369 . S
C2211 C2212 1.410 . S
C2211 C2219 1.503 . S
C2212 C2211 1.410 . S
C2212 C2213 1.392 . S
C2212 C2215 1.511 . S
C2213 C2209 1.376 . S
C2213 C2212 1.392 . S
C2213 H2225 0.929 . S
C2214 C2210 1.531 . S
C2214 H2226 0.960 . S
C2214 H2227 0.962 . S
C2214 H2228 0.960 . S
C2215 C2212 1.511 . S
C2215 H2229 0.961 . S
C2215 H2230 0.961 . S
C2215 H2231 0.961 . S
C2216 C2217 1.370 . S
C2216 C2218 1.363 . S
C2216 H2232 0.931 . S
C2217 C2216 1.370 . S
C2217 C2221 1.408 . S
C2218 C2216 1.363 . S
C2218 C2219 1.370 . S
C2218 C2222 1.524 . S
C2219 C2211 1.503 . S
C2219 C2218 1.370 . S
C2219 C2220 1.403 . S
C2220 C2219 1.403 . S
C2220 C2221 1.404 . S
C2220 C2223 1.539 . S
C2221 C2217 1.408 . S
C2221 C2220 1.404 . S
C2221 H2233 0.930 . S
C2222 C2218 1.524 . S
C2222 H2234 0.956 . S
C2222 H2235 0.961 . S
C2222 H2236 0.961 . S
C2223 C2220 1.539 . S
C2223 H2237 0.958 . S
C2223 H2238 0.961 . S
C2223 H2239 0.960 . S
H2224 C2208 0.931 . S
H2225 C2213 0.929 . S
H2226 C2214 0.960 . S
H2227 C2214 0.962 . S
H2228 C2214 0.960 . S
H2229 C2215 0.961 . S
H2230 C2215 0.961 . S
H2231 C2215 0.961 . S
H2232 C2216 0.931 . S
H2233 C2221 0.930 . S
H2234 C2222 0.956 . S
H2235 C2222 0.961 . S
H2236 C2222 0.961 . S
H2237 C2223 0.958 . S
H2238 C2223 0.961 . S
H2239 C2223 0.960 . S
C2240 C2241 1.391 . S
C2240 C2242 1.394 . S
C2240 H2256 0.931 . S
C2241 C2240 1.391 . S
C2241 C2245 1.376 . S
C2242 C2240 1.394 . S
C2242 C2243 1.369 . S
C2242 C2246 1.531 . S
C2243 C2242 1.369 . S
C2243 C2244 1.410 . S
C2243 C2251 1.503 . S
C2244 C2243 1.410 . S
C2244 C2245 1.392 . S
C2244 C2247 1.511 . S
C2245 C2241 1.376 . S
C2245 C2244 1.392 . S
C2245 H2257 0.929 . S
C2246 C2242 1.531 . S
C2246 H2258 0.960 . S
C2246 H2259 0.962 . S
C2246 H2260 0.960 . S
C2247 C2244 1.511 . S
C2247 H2261 0.961 . S
C2247 H2262 0.961 . S
C2247 H2263 0.961 . S
C2248 C2249 1.370 . S
C2248 C2250 1.363 . S
C2248 H2264 0.931 . S
C2249 C2248 1.370 . S
C2249 C2253 1.408 . S
C2250 C2248 1.363 . S
C2250 C2251 1.370 . S
C2250 C2254 1.524 . S
C2251 C2243 1.503 . S
C2251 C2250 1.370 . S
C2251 C2252 1.403 . S
C2252 C2251 1.403 . S
C2252 C2253 1.404 . S
C2252 C2255 1.539 . S
C2253 C2249 1.408 . S
C2253 C2252 1.404 . S
C2253 H2265 0.930 . S
C2254 C2250 1.524 . S
C2254 H2266 0.956 . S
C2254 H2267 0.961 . S
C2254 H2268 0.961 . S
C2255 C2252 1.539 . S
C2255 H2269 0.958 . S
C2255 H2270 0.961 . S
C2255 H2271 0.960 . S
H2256 C2240 0.931 . S
H2257 C2245 0.929 . S
H2258 C2246 0.960 . S
H2259 C2246 0.962 . S
H2260 C2246 0.960 . S
H2261 C2247 0.961 . S
H2262 C2247 0.961 . S
H2263 C2247 0.961 . S
H2264 C2248 0.931 . S
H2265 C2253 0.930 . S
H2266 C2254 0.956 . S
H2267 C2254 0.961 . S
H2268 C2254 0.961 . S
H2269 C2255 0.958 . S
H2270 C2255 0.961 . S
H2271 C2255 0.960 . S
C2272 C2273 1.391 . S
C2272 C2274 1.394 . S
C2272 H2288 0.931 . S
C2273 C2272 1.391 . S
C2273 C2277 1.376 . S
C2274 C2272 1.394 . S
C2274 C2275 1.369 . S
C2274 C2278 1.531 . S
C2275 C2274 1.369 . S
C2275 C2276 1.410 . S
C2275 C2283 1.503 . S
C2276 C2275 1.410 . S
C2276 C2277 1.392 . S
C2276 C2279 1.511 . S
C2277 C2273 1.376 . S
C2277 C2276 1.392 . S
C2277 H2289 0.929 . S
C2278 C2274 1.531 . S
C2278 H2290 0.960 . S
C2278 H2291 0.962 . S
C2278 H2292 0.960 . S
C2279 C2276 1.511 . S
C2279 H2293 0.961 . S
C2279 H2294 0.961 . S
C2279 H2295 0.961 . S
C2280 C2281 1.370 . S
C2280 C2282 1.363 . S
C2280 H2296 0.931 . S
C2281 C2280 1.370 . S
C2281 C2285 1.408 . S
C2282 C2280 1.363 . S
C2282 C2283 1.370 . S
C2282 C2286 1.524 . S
C2283 C2275 1.503 . S
C2283 C2282 1.370 . S
C2283 C2284 1.403 . S
C2284 C2283 1.403 . S
C2284 C2285 1.404 . S
C2284 C2287 1.539 . S
C2285 C2281 1.408 . S
C2285 C2284 1.404 . S
C2285 H2297 0.930 . S
C2286 C2282 1.524 . S
C2286 H2298 0.956 . S
C2286 H2299 0.961 . S
C2286 H2300 0.961 . S
C2287 C2284 1.539 . S
C2287 H2301 0.958 . S
C2287 H2302 0.961 . S
C2287 H2303 0.960 . S
H2288 C2272 0.931 . S
H2289 C2277 0.929 . S
H2290 C2278 0.960 . S
H2291 C2278 0.962 . S
H2292 C2278 0.960 . S
H2293 C2279 0.961 . S
H2294 C2279 0.961 . S
H2295 C2279 0.961 . S
H2296 C2280 0.931 . S
H2297 C2285 0.930 . S
H2298 C2286 0.956 . S
H2299 C2286 0.961 . S
H2300 C2286 0.961 . S
H2301 C2287 0.958 . S
H2302 C2287 0.961 . S
H2303 C2287 0.960 . S
C2304 C2305 1.391 . S
C2304 C2306 1.394 . S
C2304 H2320 0.931 . S
C2305 C2304 1.391 . S
C2305 C2309 1.376 . S
C2306 C2304 1.394 . S
C2306 C2307 1.369 . S
C2306 C2310 1.531 . S
C2307 C2306 1.369 . S
C2307 C2308 1.410 . S
C2307 C2315 1.503 . S
C2308 C2307 1.410 . S
C2308 C2309 1.392 . S
C2308 C2311 1.511 . S
C2309 C2305 1.376 . S
C2309 C2308 1.392 . S
C2309 H2321 0.929 . S
C2310 C2306 1.531 . S
C2310 H2322 0.960 . S
C2310 H2323 0.962 . S
C2310 H2324 0.960 . S
C2311 C2308 1.511 . S
C2311 H2325 0.961 . S
C2311 H2326 0.961 . S
C2311 H2327 0.961 . S
C2312 C2313 1.370 . S
C2312 C2314 1.363 . S
C2312 H2328 0.931 . S
C2313 C2312 1.370 . S
C2313 C2317 1.408 . S
C2314 C2312 1.363 . S
C2314 C2315 1.370 . S
C2314 C2318 1.524 . S
C2315 C2307 1.503 . S
C2315 C2314 1.370 . S
C2315 C2316 1.403 . S
C2316 C2315 1.403 . S
C2316 C2317 1.404 . S
C2316 C2319 1.539 . S
C2317 C2313 1.408 . S
C2317 C2316 1.404 . S
C2317 H2329 0.930 . S
C2318 C2314 1.524 . S
C2318 H2330 0.956 . S
C2318 H2331 0.961 . S
C2318 H2332 0.961 . S
C2319 C2316 1.539 . S
C2319 H2333 0.958 . S
C2319 H2334 0.961 . S
C2319 H2335 0.960 . S
H2320 C2304 0.931 . S
H2321 C2309 0.929 . S
H2322 C2310 0.960 . S
H2323 C2310 0.962 . S
H2324 C2310 0.960 . S
H2325 C2311 0.961 . S
H2326 C2311 0.961 . S
H2327 C2311 0.961 . S
H2328 C2312 0.931 . S
H2329 C2317 0.930 . S
H2330 C2318 0.956 . S
H2331 C2318 0.961 . S
H2332 C2318 0.961 . S
H2333 C2319 0.958 . S
H2334 C2319 0.961 . S
H2335 C2319 0.960 . S
C2336 C2337 1.391 . S
C2336 C2338 1.394 . S
C2336 H2352 0.931 . S
C2337 C2336 1.391 . S
C2337 C2341 1.376 . S
C2338 C2336 1.394 . S
C2338 C2339 1.369 . S
C2338 C2342 1.531 . S
C2339 C2338 1.369 . S
C2339 C2340 1.410 . S
C2339 C2347 1.503 . S
C2340 C2339 1.410 . S
C2340 C2341 1.392 . S
C2340 C2343 1.511 . S
C2341 C2337 1.376 . S
C2341 C2340 1.392 . S
C2341 H2353 0.929 . S
C2342 C2338 1.531 . S
C2342 H2354 0.960 . S
C2342 H2355 0.962 . S
C2342 H2356 0.960 . S
C2343 C2340 1.511 . S
C2343 H2357 0.961 . S
C2343 H2358 0.961 . S
C2343 H2359 0.961 . S
C2344 C2345 1.370 . S
C2344 C2346 1.363 . S
C2344 H2360 0.931 . S
C2345 C2344 1.370 . S
C2345 C2349 1.408 . S
C2346 C2344 1.363 . S
C2346 C2347 1.370 . S
C2346 C2350 1.524 . S
C2347 C2339 1.503 . S
C2347 C2346 1.370 . S
C2347 C2348 1.403 . S
C2348 C2347 1.403 . S
C2348 C2349 1.404 . S
C2348 C2351 1.539 . S
C2349 C2345 1.408 . S
C2349 C2348 1.404 . S
C2349 H2361 0.930 . S
C2350 C2346 1.524 . S
C2350 H2362 0.956 . S
C2350 H2363 0.961 . S
C2350 H2364 0.961 . S
C2351 C2348 1.539 . S
C2351 H2365 0.958 . S
C2351 H2366 0.961 . S
C2351 H2367 0.960 . S
H2352 C2336 0.931 . S
H2353 C2341 0.929 . S
H2354 C2342 0.960 . S
H2355 C2342 0.962 . S
H2356 C2342 0.960 . S
H2357 C2343 0.961 . S
H2358 C2343 0.961 . S
H2359 C2343 0.961 . S
H2360 C2344 0.931 . S
H2361 C2349 0.930 . S
H2362 C2350 0.956 . S
H2363 C2350 0.961 . S
H2364 C2350 0.961 . S
H2365 C2351 0.958 . S
H2366 C2351 0.961 . S
H2367 C2351 0.960 . S
C2368 C2369 1.391 . S
C2368 C2370 1.394 . S
C2368 H2384 0.931 . S
C2369 C2368 1.391 . S
C2369 C2373 1.376 . S
C2370 C2368 1.394 . S
C2370 C2371 1.369 . S
C2370 C2374 1.531 . S
C2371 C2370 1.369 . S
C2371 C2372 1.410 . S
C2371 C2379 1.503 . S
C2372 C2371 1.410 . S
C2372 C2373 1.392 . S
C2372 C2375 1.511 . S
C2373 C2369 1.376 . S
C2373 C2372 1.392 . S
C2373 H2385 0.929 . S
C2374 C2370 1.531 . S
C2374 H2386 0.960 . S
C2374 H2387 0.962 . S
C2374 H2388 0.960 . S
C2375 C2372 1.511 . S
C2375 H2389 0.961 . S
C2375 H2390 0.961 . S
C2375 H2391 0.961 . S
C2376 C2377 1.370 . S
C2376 C2378 1.363 . S
C2376 H2392 0.931 . S
C2377 C2376 1.370 . S
C2377 C2381 1.408 . S
C2378 C2376 1.363 . S
C2378 C2379 1.370 . S
C2378 C2382 1.524 . S
C2379 C2371 1.503 . S
C2379 C2378 1.370 . S
C2379 C2380 1.403 . S
C2380 C2379 1.403 . S
C2380 C2381 1.404 . S
C2380 C2383 1.539 . S
C2381 C2377 1.408 . S
C2381 C2380 1.404 . S
C2381 H2393 0.930 . S
C2382 C2378 1.524 . S
C2382 H2394 0.956 . S
C2382 H2395 0.961 . S
C2382 H2396 0.961 . S
C2383 C2380 1.539 . S
C2383 H2397 0.958 . S
C2383 H2398 0.961 . S
C2383 H2399 0.960 . S
H2384 C2368 0.931 . S
H2385 C2373 0.929 . S
H2386 C2374 0.960 . S
H2387 C2374 0.962 . S
H2388 C2374 0.960 . S
H2389 C2375 0.961 . S
H2390 C2375 0.961 . S
H2391 C2375 0.961 . S
H2392 C2376 0.931 . S
H2393 C2381 0.930 . S
H2394 C2382 0.956 . S
H2395 C2382 0.961 . S
H2396 C2382 0.961 . S
H2397 C2383 0.958 . S
H2398 C2383 0.961 . S
H2399 C2383 0.960 . S
C2400 C2401 1.391 . S
C2400 C2402 1.394 . S
C2400 H2416 0.931 . S
C2401 C2400 1.391 . S
C2401 C2405 1.376 . S
C2402 C2400 1.394 . S
C2402 C2403 1.369 . S
C2402 C2406 1.531 . S
C2403 C2402 1.369 . S
C2403 C2404 1.410 . S
C2403 C2411 1.503 . S
C2404 C2403 1.410 . S
C2404 C2405 1.392 . S
C2404 C2407 1.511 . S
C2405 C2401 1.376 . S
C2405 C2404 1.392 . S
C2405 H2417 0.929 . S
C2406 C2402 1.531 . S
C2406 H2418 0.960 . S
C2406 H2419 0.962 . S
C2406 H2420 0.960 . S
C2407 C2404 1.511 . S
C2407 H2421 0.961 . S
C2407 H2422 0.961 . S
C2407 H2423 0.961 . S
C2408 C2409 1.370 . S
C2408 C2410 1.363 . S
C2408 H2424 0.931 . S
C2409 C2408 1.370 . S
C2409 C2413 1.408 . S
C2410 C2408 1.363 . S
C2410 C2411 1.370 . S
C2410 C2414 1.524 . S
C2411 C2403 1.503 . S
C2411 C2410 1.370 . S
C2411 C2412 1.403 . S
C2412 C2411 1.403 . S
C2412 C2413 1.404 . S
C2412 C2415 1.539 . S
C2413 C2409 1.408 . S
C2413 C2412 1.404 . S
C2413 H2425 0.930 . S
C2414 C2410 1.524 . S
C2414 H2426 0.956 . S
C2414 H2427 0.961 . S
C2414 H2428 0.961 . S
C2415 C2412 1.539 . S
C2415 H2429 0.958 . S
C2415 H2430 0.961 . S
C2415 H2431 0.960 . S
H2416 C2400 0.931 . S
H2417 C2405 0.929 . S
H2418 C2406 0.960 . S
H2419 C2406 0.962 . S
H2420 C2406 0.960 . S
H2421 C2407 0.961 . S
H2422 C2407 0.961 . S
H2423 C2407 0.961 . S
H2424 C2408 0.931 . S
H2425 C2413 0.930 . S
H2426 C2414 0.956 . S
H2427 C2414 0.961 . S
H2428 C2414 0.961 . S
H2429 C2415 0.958 . S
H2430 C2415 0.961 . S
H2431 C2415 0.960 . S
C2432 C2433 1.391 . S
C2432 C2434 1.394 . S
C2432 H2448 0.931 . S
C2433 C2432 1.391 . S
C2433 C2437 1.376 . S
C2434 C2432 1.394 . S
C2434 C2435 1.369 . S
C2434 C2438 1.531 . S
C2435 C2434 1.369 . S
C2435 C2436 1.410 . S
C2435 C2443 1.503 . S
C2436 C2435 1.410 . S
C2436 C2437 1.392 . S
C2436 C2439 1.511 . S
C2437 C2433 1.376 . S
C2437 C2436 1.392 . S
C2437 H2449 0.929 . S
C2438 C2434 1.531 . S
C2438 H2450 0.960 . S
C2438 H2451 0.962 . S
C2438 H2452 0.960 . S
C2439 C2436 1.511 . S
C2439 H2453 0.961 . S
C2439 H2454 0.961 . S
C2439 H2455 0.961 . S
C2440 C2441 1.370 . S
C2440 C2442 1.363 . S
C2440 H2456 0.931 . S
C2441 C2440 1.370 . S
C2441 C2445 1.408 . S
C2442 C2440 1.363 . S
C2442 C2443 1.370 . S
C2442 C2446 1.524 . S
C2443 C2435 1.503 . S
C2443 C2442 1.370 . S
C2443 C2444 1.403 . S
C2444 C2443 1.403 . S
C2444 C2445 1.404 . S
C2444 C2447 1.539 . S
C2445 C2441 1.408 . S
C2445 C2444 1.404 . S
C2445 H2457 0.930 . S
C2446 C2442 1.524 . S
C2446 H2458 0.956 . S
C2446 H2459 0.961 . S
C2446 H2460 0.961 . S
C2447 C2444 1.539 . S
C2447 H2461 0.958 . S
C2447 H2462 0.961 . S
C2447 H2463 0.960 . S
H2448 C2432 0.931 . S
H2449 C2437 0.929 . S
H2450 C2438 0.960 . S
H2451 C2438 0.962 . S
H2452 C2438 0.960 . S
H2453 C2439 0.961 . S
H2454 C2439 0.961 . S
H2455 C2439 0.961 . S
H2456 C2440 0.931 . S
H2457 C2445 0.930 . S
H2458 C2446 0.956 . S
H2459 C2446 0.961 . S
H2460 C2446 0.961 . S
H2461 C2447 0.958 . S
H2462 C2447 0.961 . S
H2463 C2447 0.960 . S
C2464 C2465 1.391 . S
C2464 C2466 1.394 . S
C2464 H2480 0.931 . S
C2465 C2464 1.391 . S
C2465 C2469 1.376 . S
C2466 C2464 1.394 . S
C2466 C2467 1.369 . S
C2466 C2470 1.531 . S
C2467 C2466 1.369 . S
C2467 C2468 1.410 . S
C2467 C2475 1.503 . S
C2468 C2467 1.410 . S
C2468 C2469 1.392 . S
C2468 C2471 1.511 . S
C2469 C2465 1.376 . S
C2469 C2468 1.392 . S
C2469 H2481 0.929 . S
C2470 C2466 1.531 . S
C2470 H2482 0.960 . S
C2470 H2483 0.962 . S
C2470 H2484 0.960 . S
C2471 C2468 1.511 . S
C2471 H2485 0.961 . S
C2471 H2486 0.961 . S
C2471 H2487 0.961 . S
C2472 C2473 1.370 . S
C2472 C2474 1.363 . S
C2472 H2488 0.931 . S
C2473 C2472 1.370 . S
C2473 C2477 1.408 . S
C2474 C2472 1.363 . S
C2474 C2475 1.370 . S
C2474 C2478 1.524 . S
C2475 C2467 1.503 . S
C2475 C2474 1.370 . S
C2475 C2476 1.403 . S
C2476 C2475 1.403 . S
C2476 C2477 1.404 . S
C2476 C2479 1.539 . S
C2477 C2473 1.408 . S
C2477 C2476 1.404 . S
C2477 H2489 0.930 . S
C2478 C2474 1.524 . S
C2478 H2490 0.956 . S
C2478 H2491 0.961 . S
C2478 H2492 0.961 . S
C2479 C2476 1.539 . S
C2479 H2493 0.958 . S
C2479 H2494 0.961 . S
C2479 H2495 0.960 . S
H2480 C2464 0.931 . S
H2481 C2469 0.929 . S
H2482 C2470 0.960 . S
H2483 C2470 0.962 . S
H2484 C2470 0.960 . S
H2485 C2471 0.961 . S
H2486 C2471 0.961 . S
H2487 C2471 0.961 . S
H2488 C2472 0.931 . S
H2489 C2477 0.930 . S
H2490 C2478 0.956 . S
H2491 C2478 0.961 . S
H2492 C2478 0.961 . S
H2493 C2479 0.958 . S
H2494 C2479 0.961 . S
H2495 C2479 0.960 . S
C449 C385 1.332 . S
C457 C8 1.270 . S
C481 C21 1.223 1_655 S
C489 C119 1.220 . S
C513 C357 1.333 . S
C521 C36 1.274 . S
C545 C49 1.210 . S
C553 C147 1.220 . S
C577 C64 1.238 . S
C585 C413 1.338 . S
C609 C77 1.209 . S
C617 C203 1.220 . S
C641 C92 1.232 . S
C649 C441 1.340 . S
C673 C105 1.206 1_655 S
C681 C175 1.220 . S
C705 C274 1.235 . S
C713 C120 1.233 . S
C737 C7 1.165 . S
C745 C134 1.121 1_455 S
C769 C246 1.202 . S
C777 C148 1.224 . S
C801 C162 1.096 . S
C809 C35 1.172 . S
C833 C302 1.194 . S
C841 C176 1.196 . S
C865 C91 1.166 . S
C873 C190 1.129 . S
C897 C204 1.192 . S
C905 C330 1.205 . S
C929 C63 1.171 . S
C937 C218 1.099 1_455 S
C961 C232 1.310 . S
C969 C161 1.339 . S
C993 C245 1.192 . S
C1001 C343 1.220 . S
C1025 C133 1.332 . S
C1033 C260 1.265 . S
C1057 C371 1.218 . S
C1065 C273 1.214 1_455 S
C1089 C189 1.337 . S
C1097 C288 1.255 . S
C1121 C427 1.216 . S
C1129 C301 1.204 1_455 S
C1153 C217 1.334 . S
C1161 C316 1.287 . S
C1185 C329 1.212 . S
C1193 C399 1.220 . S
C1217 C50 1.199 . S
C1225 C344 1.196 . S
C1249 C358 1.164 . S
C1257 C231 1.174 . S
C1281 C372 1.212 . S
C1289 C22 1.236 . S
C1313 C386 1.130 1_655 S
C1321 C259 1.177 . S
C1345 C400 1.232 . S
C1353 C78 1.239 . S
C1377 C414 1.104 1_655 S
C1385 C315 1.177 . S
C1409 C428 1.227 . S
C1417 C106 1.212 . S
C1441 C442 1.104 . S
C1449 C287 1.172 . S
C1473 C349 1.424 . S
C1481 C13 1.368 . S
C1505 C25 1.503 . S
C1513 C139 1.406 . S
C1537 C377 1.420 . S
C1545 C41 1.367 . S
C1569 C53 1.487 . S
C1577 C167 1.440 . S
C1601 C405 1.421 . S
C1609 C69 1.367 . S
C1633 C81 1.477 . S
C1641 C195 1.432 . S
C1665 C433 1.359 . S
C1673 C97 1.397 . S
C1697 C109 1.477 . S
C1705 C223 1.429 . S
C1729 C125 1.362 . S
C1737 C237 1.397 . S
C1761 C153 1.427 . S
C1769 C265 1.367 . S
C1793 C181 1.421 . S
C1801 C293 1.371 . S
C1825 C209 1.352 . S
C1833 C321 1.400 . S
C1857 C249 1.492 . S
C1865 C363 1.440 . S
C1889 C391 1.447 . S
C1897 C277 1.507 . S
C1921 C419 1.441 . S
C1929 C305 1.508 . S
C1953 C333 1.493 . S
C1961 C447 1.408 . S
C1985 C11 1.183 . S
C1993 C83 1.166 . S
C2017 C27 1.156 . S
C2025 C95 1.188 . S
C2049 C39 1.199 . S
C2057 C111 1.148 . S
C2081 C67 1.220 . S
C2089 C55 1.166 . S
C2113 C123 1.190 . S
C2121 C193 1.219 . S
C2145 C137 1.250 . S
C2153 C207 1.234 . S
C2177 C151 1.195 . S
C2185 C221 1.221 . S
C2209 C165 1.214 . S
C2217 C179 1.219 . S
C2241 C235 1.205 . S
C2249 C307 1.152 . S
C2273 C319 1.167 . S
C2281 C251 1.141 . S
C2305 C263 1.210 . S
C2313 C335 1.178 . S
C2337 C279 1.124 . S
C2345 C291 1.197 . S
C2369 C417 1.221 . S
C2377 C347 1.216 . S
C2401 C361 1.209 . S
C2409 C431 1.216 . S
C2433 C445 1.219 . S
C2441 C375 1.215 . S
C2465 C389 1.198 . S
C2473 C403 1.209 . S
