# Generated by pormake.
# Topology snp, (6)-cn, num edge types: 1
# Building blocks:
#     Node 0, Type 0, BuildingBlock: BETDAH_clean_sbu_0, # of connection points: 6
#     Node 1, Type 0, BuildingBlock: BETDAH_clean_sbu_0, # of connection points: 6
#     Node 2, Type 0, BuildingBlock: BETDAH_clean_sbu_0, # of connection points: 6
#     Node 3, Type 0, BuildingBlock: BETDAH_clean_sbu_0, # of connection points: 6
#     Edge 4, Type (0, 0), BuildingBlock: XUDNAN_clean_linker_2, # of connection points: 2
#     Edge 5, Type (0, 0), BuildingBlock: XUDNAN_clean_linker_2, # of connection points: 2
#     Edge 6, Type (0, 0), BuildingBlock: XUDNAN_clean_linker_2, # of connection points: 2
#     Edge 7, Type (0, 0), BuildingBlock: XUDNAN_clean_linker_2, # of connection points: 2
#     Edge 8, Type (0, 0), BuildingBlock: XUDNAN_clean_linker_2, # of connection points: 2
#     Edge 9, Type (0, 0), BuildingBlock: XUDNAN_clean_linker_2, # of connection points: 2
#     Edge 10, Type (0, 0), BuildingBlock: XUDNAN_clean_linker_2, # of connection points: 2
#     Edge 11, Type (0, 0), BuildingBlock: XUDNAN_clean_linker_2, # of connection points: 2
#     Edge 12, Type (0, 0), BuildingBlock: XUDNAN_clean_linker_2, # of connection points: 2
#     Edge 13, Type (0, 0), BuildingBlock: XUDNAN_clean_linker_2, # of connection points: 2
#     Edge 14, Type (0, 0), BuildingBlock: XUDNAN_clean_linker_2, # of connection points: 2
#     Edge 15, Type (0, 0), BuildingBlock: XUDNAN_clean_linker_2, # of connection points: 2
# Relax obj value: 0.717
# Max RMSD: 0.173
# Mean RMSD: 0.173
data_MOF--net-snp--node1-BETDAH_clean_sbu_0--edge1-XUDNAN_clean_linker_2
_symmetry_space_group_name_H-M    P1
_symmetry_Int_Tables_number       1
_symmetry_cell_setting            triclinic
loop_
_symmetry_equiv_pos_as_xyz
'x, y, z'
_cell_length_a     26.585724
_cell_length_b     25.501096
_cell_length_c     25.710826
_cell_angle_alpha  89.440277
_cell_angle_beta   89.739972
_cell_angle_gamma 90.794325
loop_
_atom_site_label
_atom_site_type_symbol
_atom_site_fract_x
_atom_site_fract_y
_atom_site_fract_z
_atom_type_partial_charge
Ho0 Ho 0.26997 0.95145 1.24379 0.0
Ho1 Ho 0.26162 0.0632 1.19654 0.0
C2 C 0.26733 0.05751 0.32136 0.0
C3 C 0.31399 0.8749 0.29002 0.0
C4 C 0.34103 0.87435 0.33981 0.0
C5 C 0.38761 0.84931 0.3444 0.0
C6 C 0.41608 0.85443 0.38995 0.0
C7 C 0.39861 0.88554 0.43087 0.0
C8 C 0.35158 0.90974 0.42615 0.0
C9 C 0.32324 0.90428 0.38126 0.0
C10 C 0.17856 -0.00886 1.24128 0.0
C11 C 0.22371 0.95865 1.12869 0.0
C12 C 0.24532 0.15128 1.14952 0.0
C13 C 0.2337 0.20566 1.16298 0.0
C14 C 0.19931 0.21818 1.20253 0.0
C15 C 0.18507 0.27033 1.20982 0.0
C16 C 0.20551 0.3106 1.17806 0.0
C17 C 0.24237 0.29775 1.14089 0.0
C18 C 0.25617 0.24593 1.13348 0.0
C19 C 0.35403 0.02295 1.20298 0.0
O20 O 0.28091 0.00731 0.31503 0.0
O21 O 0.2527 0.08595 0.28073 0.0
O22 O 0.2652 0.88186 0.29246 0.0
O23 O 0.33573 0.90367 0.25377 0.0
O24 O 0.18573 0.94069 1.23754 0.0
O25 O 0.21889 0.01471 0.25019 0.0
O26 O 0.22613 0.01059 1.1346 0.0
O27 O 0.24383 0.92605 1.16345 0.0
O28 O 0.21035 0.11569 1.15788 0.0
O29 O 0.29018 0.13528 1.16177 0.0
O30 O 0.34386 0.07117 1.21303 0.0
O31 O 0.31503 -0.00138 1.18889 0.0
H32 H 0.40228 0.82662 0.31246 0.0
H33 H 0.45183 0.8348 0.39297 0.0
H34 H 0.33619 0.93257 0.45763 0.0
H35 H 0.28762 0.92422 0.37883 0.0
H36 H 0.18226 0.18767 1.22653 0.0
H37 H 0.15667 0.27888 1.23874 0.0
H38 H 0.25822 0.32718 1.11471 0.0
H39 H 0.28296 0.23706 1.10301 0.0
Ho40 Ho 0.10896 0.27013 0.75873 0.0
Ho41 Ho 0.01632 0.24305 0.69259 0.0
C42 C 0.00327 0.25087 0.82009 0.0
C43 C 0.17985 0.32969 0.79363 0.0
C44 C 0.17777 0.37393 0.82992 0.0
C45 C 0.13647 0.40786 0.83002 0.0
C46 C 0.12999 0.44347 0.87042 0.0
C47 C 0.16423 0.44518 0.91192 0.0
C48 C 0.20748 0.41379 0.90939 0.0
C49 C 0.21414 0.37862 0.86874 0.0
C50 C 0.08256 0.16972 0.76259 0.0
C51 C 0.12445 0.22322 0.63827 0.0
C52 C 0.93135 0.20936 0.65658 0.0
C53 C 0.87746 0.22245 0.6616 0.0
C54 C 0.85547 0.25766 0.62641 0.0
C55 C 0.80365 0.26544 0.62698 0.0
C56 C 0.77241 0.23777 0.66236 0.0
C57 C 0.79456 0.20428 0.69912 0.0
C58 C 0.84663 0.19691 0.69893 0.0
C59 C 0.04392 0.34548 0.69442 0.0
O60 O 0.0502 0.26945 0.82416 0.0
O61 O -0.01639 0.23914 0.77429 0.0
O62 O 0.16905 0.28352 0.81391 0.0
O63 O 0.15836 0.33723 0.74855 0.0
O64 O 0.10793 0.19228 0.79967 0.0
O65 O 0.07977 0.19976 0.72359 0.0
O66 O 0.07518 0.21403 0.63617 0.0
O67 O 0.14522 0.24544 0.68033 0.0
O68 O 0.95293 0.18941 0.69763 0.0
O69 O 0.96054 0.24291 0.63162 0.0
O70 O 0.02477 0.32281 0.65428 0.0
O71 O 0.04352 0.31412 0.73251 0.0
H72 H 0.10768 0.40492 0.80051 0.0
H73 H 0.09657 0.46728 0.87081 0.0
H74 H 0.23433 0.41299 0.94091 0.0
H75 H 0.24611 0.35272 0.86946 0.0
H76 H 0.87798 0.27775 0.59697 0.0
H77 H 0.78776 0.29067 0.59736 0.0
H78 H 0.77142 0.18237 0.72673 0.0
H79 H 0.86243 0.16982 0.72691 0.0
Ho80 Ho 0.76202 0.09314 1.23872 0.0
Ho81 Ho 0.81713 -0.00474 1.20133 0.0
C82 C 0.80415 0.0049 0.32277 0.0
C83 C 0.69463 0.15579 0.27398 0.0
C84 C 0.65756 0.15294 0.31651 0.0
C85 C 0.61611 0.18627 0.31668 0.0
C86 C 0.5864 0.19074 0.36152 0.0
C87 C 0.59874 0.16306 0.40737 0.0
C88 C 0.63751 0.12585 0.40476 0.0
C89 C 0.66624 0.12065 0.35976 0.0
C90 C 0.8614 0.1053 1.23252 0.0
C91 C 0.8139 0.09738 1.12351 0.0
C92 C 0.86159 0.91399 1.16667 0.0
C93 C 0.83947 0.86187 1.15634 0.0
C94 C 0.79658 0.85695 1.12507 0.0
C95 C 0.77252 0.80851 1.11961 0.0
C96 C 0.79021 0.76374 1.14584 0.0
C97 C 0.83287 0.76886 1.17771 0.0
C98 C 0.85732 0.81749 1.18279 0.0
C99 C 0.71619 0.98452 1.21224 0.0
O100 O 0.76696 0.03816 0.31163 0.0
O101 O 0.83619 -0.00869 0.28607 0.0
O102 O 0.74172 0.15681 0.28866 0.0
O103 O 0.68682 0.12487 1.23446 0.0
O104 O 0.83096 0.14428 1.22676 0.0
O105 O 0.83756 0.06459 1.24612 0.0
O106 O 0.83608 0.05268 1.13571 0.0
O107 O 0.77798 0.11719 1.15384 0.0
O108 O 0.86203 0.92683 1.21574 0.0
O109 O 0.84766 0.95267 1.13624 0.0
O110 O 0.7474 0.94725 1.21939 0.0
O111 O 0.73927 0.02405 1.19437 0.0
H112 H 0.60826 0.21077 0.28311 0.0
H113 H 0.55599 0.21851 0.3612 0.0
H114 H 0.64922 0.10377 0.43861 0.0
H115 H 0.69763 0.09407 0.3602 0.0
H116 H 0.78123 0.89058 1.10492 0.0
H117 H 0.74078 0.8061 1.09346 0.0
H118 H 0.84749 0.73528 1.19851 0.0
H119 H 0.88974 0.82065 1.20802 0.0
Ho120 Ho 0.94929 0.75783 0.74588 0.0
Ho121 Ho 0.03446 0.83467 0.71372 0.0
C122 C 0.03262 0.80305 0.83425 0.0
C123 C 0.90174 0.67064 0.7677 0.0
C124 C 0.86163 0.65006 0.8017 0.0
C125 C 0.85527 0.59564 0.80796 0.0
C126 C 0.82089 0.57538 0.84443 0.0
C127 C 0.79134 0.60943 0.87373 0.0
C128 C 0.79523 0.66382 0.86455 0.0
C129 C 0.83045 0.68406 0.82905 0.0
C130 C 0.92287 0.85576 0.75827 0.0
C131 C 0.93781 0.82617 0.63853 0.0
C132 C 0.09962 0.90561 0.687 0.0
C133 C 0.15478 0.90672 0.69221 0.0
C134 C 0.18236 0.86116 0.68347 0.0
C135 C 0.23456 0.86203 0.68715 0.0
C136 C 0.2608 0.90838 0.70031 0.0
C137 C 0.23279 0.95345 0.7116 0.0
C138 C 0.18019 0.9526 0.70748 0.0
C139 C 0.05471 0.7307 0.70428 0.0
O140 O -0.00781 0.77245 0.82408 0.0
O141 O 0.05456 0.83155 0.79754 0.0
O142 O 0.88791 0.70367 0.73167 0.0
O143 O 0.94368 0.68509 0.79021 0.0
O144 O 0.8897 0.81801 0.75601 0.0
O145 O 0.96679 0.8384 0.764 0.0
O146 O -0.02396 0.85544 0.65432 0.0
O147 O 0.92464 0.78197 0.66364 0.0
O148 O 0.0744 0.907 0.73077 0.0
O149 O 0.08109 0.87126 0.65436 0.0
O150 O 0.0879 0.76595 0.71627 0.0
O151 O 0.01397 0.75284 0.69418 0.0
H152 H 0.87802 0.56881 0.78597 0.0
H153 H 0.81895 0.53345 0.85147 0.0
H154 H 0.77362 0.69089 0.88764 0.0
H155 H 0.83464 0.72617 0.82434 0.0
H156 H 0.16373 0.82497 0.67235 0.0
H157 H 0.25426 0.82675 0.67677 0.0
H158 H 0.25153 -0.01028 0.72223 0.0
H159 H 0.15944 0.98793 0.71539 0.0
H160 H 0.90609 0.01972 1.19729 0.0
H161 H 0.92711 0.18687 1.21561 0.0
H162 H 0.01581 0.17852 1.18826 0.0
H163 H -0.00433 0.97492 1.2482 0.0
H164 H 0.01613 0.92413 1.20478 0.0
H165 H 0.95301 0.94487 1.20292 0.0
H166 H 0.95925 0.96885 1.10494 0.0
H167 H 0.02264 0.94473 1.10601 0.0
H168 H 0.01041 0.01009 1.08204 0.0
H169 H 0.09579 0.14531 1.20998 0.0
H170 H 0.16333 0.09485 1.24864 0.0
H171 H 0.09804 0.95089 1.19077 0.0
C172 C 0.9287 0.05487 1.19266 0.0
C173 C 0.91087 0.10361 1.20885 0.0
C174 C 0.94093 0.14911 1.20352 0.0
C175 C -0.00921 0.14473 1.18715 0.0
C176 C 0.0083 0.09507 1.17409 0.0
C177 C -0.02286 0.05125 1.1736 0.0
C178 C 0.006 0.00122 1.16689 0.0
C179 C -0.00809 0.95904 1.20826 0.0
C180 C -0.00075 0.98001 1.11164 0.0
C181 C 0.05829 0.02236 1.17483 0.0
C182 C 0.05894 0.07686 1.17799 0.0
C183 C 0.09736 0.10352 1.2034 0.0
C184 C 0.13516 0.07435 1.22617 0.0
C185 C 0.13624 0.01942 1.22053 0.0
C186 C 0.09826 -0.00677 1.19365 0.0
H187 H 0.91647 0.93185 0.68762 0.0
H188 H 0.90735 0.89836 0.85225 0.0
H189 H 0.92949 -0.00983 0.87139 0.0
H190 H 0.02062 0.98567 0.68791 0.0
H191 H 0.01372 0.03777 0.64086 0.0
H192 H -0.02657 0.98116 0.63787 0.0
H193 H 0.89406 0.038 0.6447 0.0
H194 H 0.9343 0.09536 0.64459 0.0
H195 H 0.88871 0.08505 0.69609 0.0
H196 H -0.01364 0.06355 0.8723 0.0
H197 H 0.05414 0.12857 0.85639 0.0
H198 H 0.03043 0.11584 0.69039 0.0
C199 C 0.91581 0.94536 0.72738 0.0
C200 C 0.91067 0.90952 0.76865 0.0
C201 C 0.91099 0.92645 0.82053 0.0
C202 C 0.92351 0.97841 0.83154 0.0
C203 C 0.93511 0.01199 0.78993 0.0
C204 C 0.92952 -0.00319 0.73854 0.0
C205 C 0.95502 0.03516 0.7014 0.0
C206 C -0.0071 0.00825 0.66497 0.0
C207 C 0.91568 0.06529 0.6699 0.0
C208 C -0.01873 0.07003 0.74011 0.0
C209 C 0.96817 0.05701 0.79081 0.0
C210 C -0.00549 0.07685 0.83315 0.0
C211 C 0.0337 0.11265 0.8237 0.0
C212 C 0.04607 0.12775 0.77227 0.0
C213 C 0.02021 0.10572 0.73011 0.0
H214 H 0.64519 0.04364 0.25826 0.0
H215 H 0.6651 0.90493 1.16541 0.0
H216 H 0.57239 0.89342 1.15984 0.0
H217 H 0.53264 0.0022 0.32795 0.0
H218 H 0.50543 0.06652 0.32522 0.0
H219 H 0.57275 0.05974 0.32595 0.0
H220 H 0.58032 0.11412 1.23936 0.0
H221 H 0.51325 0.12197 1.24086 0.0
H222 H 0.54316 0.09461 1.18438 0.0
H223 H 0.47738 0.90262 1.15819 0.0
H224 H 0.38887 0.93229 1.15966 0.0
H225 H 0.4337 0.0667 0.25134 0.0
C226 C 0.62998 0.01184 1.23565 0.0
C227 C 0.66165 0.9764 1.21061 0.0
C228 C 0.64084 0.9328 1.18434 0.0
C229 C 0.58847 0.92595 1.18111 0.0
C230 C 0.55796 0.96281 1.20495 0.0
C231 C 0.57809 0.00484 1.23181 0.0
C232 C 0.53773 0.04077 0.2514 0.0
C233 C 0.5371 0.04236 0.31118 0.0
C234 C 0.54396 0.09612 1.22758 0.0
C235 C 0.49168 0.01305 1.23053 0.0
C236 C 0.50382 0.96784 1.20431 0.0
C237 C 0.46736 0.93757 1.17917 0.0
C238 C 0.41735 0.9546 1.18017 0.0
C239 C 0.40485 0.00152 1.20577 0.0
C240 C 0.44234 0.03046 1.23177 0.0
H241 H -0.01736 0.42566 0.72155 0.0
H242 H 0.13316 0.39206 0.66775 0.0
H243 H 0.1548 0.48694 0.66867 0.0
H244 H 0.96391 0.53783 0.643 0.0
H245 H 0.92966 0.57339 0.69168 0.0
H246 H 0.92856 0.50284 0.69265 0.0
H247 H 0.95836 0.50532 0.78731 0.0
H248 H 0.96601 0.57578 0.7878 0.0
H249 H 0.01836 0.53483 0.80284 0.0
H250 H 0.15984 0.58711 0.67882 0.0
H251 H 0.14438 0.68267 0.68506 0.0
H252 H -0.01339 0.65004 0.71336 0.0
C253 C 0.02027 0.43846 0.71059 0.0
C254 C 0.05697 0.4018 0.6965 0.0
C255 C 0.10531 0.41967 0.68072 0.0
C256 C 0.11776 0.47344 0.68079 0.0
C257 C 0.08083 0.50888 0.69522 0.0
C258 C 0.03279 0.49208 0.7089 0.0
C259 C -0.00081 0.53813 0.71991 0.0
C260 C 0.95259 0.53803 0.68468 0.0
C261 C -0.01549 0.53846 0.77785 0.0
C262 C 0.03469 0.58342 0.70707 0.0
C263 C 0.08234 0.56596 0.69552 0.0
C264 C 0.12241 0.60107 0.68707 0.0
C265 C 0.11332 0.65522 0.69061 0.0
C266 C 0.06419 0.67372 0.70022 0.0
C267 C 0.02448 0.63713 0.70727 0.0
H268 H 0.1028 0.21104 0.53382 0.0
H269 H 0.21932 0.1815 0.6472 0.0
H270 H 0.26864 0.13489 0.58023 0.0
H271 H 0.10998 0.09046 0.46523 0.0
H272 H 0.10079 0.11943 0.40182 0.0
H273 H 0.07495 0.15015 0.45858 0.0
H274 H 0.12196 0.23676 0.43478 0.0
H275 H 0.14762 0.20638 0.37771 0.0
H276 H 0.18908 0.23622 0.42452 0.0
H277 H 0.30236 0.08405 0.4996 0.0
H278 H 0.3214 0.04555 0.41313 0.0
H279 H 0.18711 0.11676 0.35098 0.0
C280 C 0.13897 0.19528 0.5445 0.0
C281 C 0.157 0.20026 0.5962 0.0
C282 C 0.20467 0.17891 0.60806 0.0
C283 C 0.23287 0.15193 0.57017 0.0
C284 C 0.21373 0.14726 0.51975 0.0
C285 C 0.16822 0.16945 0.50672 0.0
C286 C 0.15652 0.16058 0.44953 0.0
C287 C 0.10766 0.12823 0.44345 0.0
C288 C 0.15363 0.21311 0.41989 0.0
C289 C 0.20208 0.1295 0.43237 0.0
C290 C 0.23441 0.12132 0.47348 0.0
C291 C 0.27757 0.09097 0.46714 0.0
C292 C 0.28815 0.06914 0.41782 0.0
C293 C 0.25651 0.07883 0.37466 0.0
C294 C 0.21288 0.10944 0.38266 0.0
H295 H 0.02461 0.19714 0.91316 0.0
H296 H 0.90518 0.2775 0.83232 0.0
H297 H 0.84533 0.25122 0.90199 0.0
H298 H 0.94736 0.08512 0.95252 0.0
H299 H -0.02115 0.07665 1.01374 0.0
H300 H 0.01217 0.1061 0.95951 0.0
H301 H 0.03229 0.18683 1.01782 0.0
H302 H -0.00251 0.15647 1.0706 0.0
H303 H -0.01886 0.22112 1.04801 0.0
H304 H 0.79657 0.2142 0.98115 0.0
H305 H 0.76337 0.16517 1.05808 0.0
H306 H 0.91119 0.10042 1.08373 0.0
C307 C -0.01386 0.21017 0.91074 0.0
C308 C 0.9702 0.24081 0.86732 0.0
C309 C 0.91887 0.25521 0.8653 0.0
C310 C 0.88438 0.24016 0.9048 0.0
C311 C 0.90088 0.20928 0.94638 0.0
C312 C 0.95055 0.19398 0.94943 0.0
C313 C 0.95745 0.15753 0.99642 0.0
C314 C -0.02494 0.10314 0.97946 0.0
C315 C -0.00572 0.18197 1.03553 0.0
C316 C 0.90411 0.15446 1.01882 0.0
C317 C 0.87221 0.18538 0.98991 0.0
C318 C 0.82137 0.18964 1.00371 0.0
C319 C 0.80266 0.16154 1.04763 0.0
C320 C 0.83406 0.12812 1.07706 0.0
C321 C 0.88565 0.12491 1.06199 0.0
H322 H -0.02879 0.88663 0.55536 0.0
H323 H 0.83596 0.81402 0.61928 0.0
H324 H 0.78571 0.85621 0.5496 0.0
H325 H 0.91802 0.00872 0.51497 0.0
H326 H 0.95422 0.01375 0.45564 0.0
H327 H -0.02108 0.97882 0.51095 0.0
H328 H -0.00988 0.8959 0.45498 0.0
H329 H 0.96617 0.93076 0.39933 0.0
H330 H 0.93708 0.86967 0.4198 0.0
H331 H 0.74925 0.91275 0.47294 0.0
H332 H 0.73339 0.96358 0.39169 0.0
H333 H 0.89355 -0.00818 0.37413 0.0
C334 C 0.93103 0.87916 0.55456 0.0
C335 C 0.90774 0.84661 0.59317 0.0
C336 C 0.85499 0.83812 0.59018 0.0
C337 C 0.82603 0.86245 0.55083 0.0
C338 C 0.85017 0.8948 0.51377 0.0
C339 C 0.9018 0.9021 0.51483 0.0
C340 C 0.91935 0.9365 0.46935 0.0
C341 C 0.94409 0.98746 0.4889 0.0
C342 C 0.9553 0.9064 0.43376 0.0
C343 C 0.86974 0.94752 0.44225 0.0
C344 C 0.82996 0.92419 0.46895 0.0
C345 C 0.78041 0.93061 0.45175 0.0
C346 C 0.77157 0.96003 0.40567 0.0
C347 C 0.81202 0.98197 0.37628 0.0
C348 C 0.86165 0.97571 0.39553 0.0
H349 H 0.11545 0.77309 0.89481 0.0
H350 H -0.01352 0.87484 0.89277 0.0
H351 H 0.02185 0.92457 0.96617 0.0
H352 H 0.12677 0.77218 1.04261 0.0
H353 H 0.19448 0.76995 1.04028 0.0
H354 H 0.15779 0.74001 0.98947 0.0
H355 H 0.20672 0.79561 0.92102 0.0
H356 H 0.24289 0.82648 0.9716 0.0
H357 H 0.20797 0.86606 0.92631 0.0
H358 H 0.07899 0.97381 1.02697 0.0
H359 H 0.14047 0.00549 1.09074 0.0
H360 H 0.22904 0.86579 1.06806 0.0
C361 C 0.09354 0.80422 0.91153 0.0
C362 C 0.04688 0.8188 0.88857 0.0
C363 C 0.02095 0.8615 0.9104 0.0
C364 C 0.04132 0.89061 0.95179 0.0
C365 C 0.08767 0.87623 0.97252 0.0
C366 C 0.11263 0.83273 0.95474 0.0
C367 C 0.16156 0.82576 0.98538 0.0
C368 C 0.16006 0.77388 1.01627 0.0
C369 C 0.2075 0.82864 0.94889 0.0
C370 C 0.16075 0.87289 1.02194 0.0
C371 C 0.11818 0.90196 1.0125 0.0
C372 C 0.11113 0.95008 1.03647 0.0
C373 C 0.14687 0.96802 1.07258 0.0
C374 C 0.1895 0.93794 1.08621 0.0
C375 C 0.19646 0.88944 1.05995 0.0
H376 H 0.83973 0.67245 1.13193 0.0
H377 H 0.69063 0.73786 1.13023 0.0
H378 H 0.66152 0.66643 1.07443 0.0
H379 H 0.86088 0.65439 1.02312 0.0
H380 H 0.88844 0.59018 1.01977 0.0
H381 H 0.88977 0.62467 1.07945 0.0
H382 H 0.84492 0.54702 1.12599 0.0
H383 H 0.84363 0.51171 1.06552 0.0
H384 H 0.78621 0.52156 1.1014 0.0
H385 H 0.66254 0.62694 0.99059 0.0
H386 H 0.69219 0.61894 0.90045 0.0
H387 H 0.83571 0.56512 0.9551 0.0
C388 C 0.80017 0.66942 1.12283 0.0
C389 C 0.76799 0.71146 1.1337 0.0
C390 C 0.71646 0.70682 1.12091 0.0
C391 C 0.69939 0.66577 1.08966 0.0
C392 C 0.73386 0.62863 1.073 0.0
C393 C 0.78277 0.62819 1.09171 0.0
C394 C 0.81514 0.59164 1.06015 0.0
C395 C 0.86639 0.61688 1.04463 0.0
C396 C 0.82289 0.53992 1.09004 0.0
C397 C 0.7809 0.58276 1.014 0.0
C398 C 0.73283 0.60112 1.02376 0.0
C399 C 0.69898 0.61009 0.9832 0.0
C400 C 0.71598 0.60551 0.93185 0.0
C401 C 0.76596 0.59093 0.92165 0.0
C402 C 0.79687 0.5747 0.96283 0.0
H403 H 0.41737 0.97397 0.48422 0.0
H404 H 0.43719 0.80655 0.49057 0.0
H405 H 0.44319 0.80978 0.58554 0.0
H406 H 0.47309 0.00092 0.63307 0.0
H407 H 0.42503 0.04955 0.63971 0.0
H408 H 0.45858 0.04337 0.57896 0.0
H409 H 0.3743 0.03314 0.53116 0.0
H410 H 0.341 0.0392 0.59085 0.0
H411 H 0.33029 0.9821 0.55113 0.0
H412 H 0.40731 0.82057 0.67044 0.0
H413 H 0.33024 0.8317 0.72131 0.0
H414 H 0.31717 -0.01021 0.66106 0.0
C415 C 0.42607 0.93885 0.50615 0.0
C416 C 0.42581 0.89012 0.48083 0.0
C417 C 0.43739 0.84441 0.50932 0.0
C418 C 0.44085 0.84612 0.56366 0.0
C419 C 0.43215 0.89366 0.58878 0.0
C420 C 0.42644 0.93999 0.56057 0.0
C421 C 0.40205 0.98166 0.59363 0.0
C422 C 0.44207 0.02116 0.61248 0.0
C423 C 0.3593 0.01044 0.56499 0.0
C424 C 0.38331 0.94783 0.63868 0.0
C425 C 0.40633 0.8993 0.63845 0.0
C426 C 0.38967 0.85854 0.6711 0.0
C427 C 0.3452 0.86498 0.69948 0.0
C428 C 0.31651 0.9109 0.69308 0.0
C429 C 0.33838 0.95435 0.6666 0.0
H430 H 0.22605 0.49558 0.98041 0.0
H431 H 0.07127 0.44746 0.95795 0.0
H432 H 0.057 0.44862 1.0514 0.0
H433 H 0.25898 0.41531 1.0524 0.0
H434 H 0.29651 0.44811 1.10097 0.0
H435 H 0.2874 0.4789 1.03948 0.0
H436 H 0.25171 0.56041 1.08427 0.0
H437 H 0.26104 0.52946 1.14684 0.0
H438 H 0.19999 0.55375 1.12947 0.0
H439 H 0.06933 0.40705 1.13295 0.0
H440 H 0.10558 0.33423 1.18131 0.0
H441 H 0.2534 0.40496 1.16533 0.0
C442 C 0.18862 0.48818 0.99565 0.0
C443 C 0.15045 0.46997 0.96215 0.0
C444 C 0.10148 0.46147 0.98248 0.0
C445 C 0.09299 0.46204 1.03617 0.0
C446 C 0.13368 0.4712 1.06921 0.0
C447 C 0.18044 0.4867 1.04963 0.0
C448 C 0.22077 0.48065 1.09077 0.0
C449 C 0.26854 0.454 1.0696 0.0
C450 C 0.23412 0.53424 1.11424 0.0
C451 C 0.19226 0.44691 1.13026 0.0
C452 C 0.14106 0.44621 1.11971 0.0
C453 C 0.10892 0.40858 1.14252 0.0
C454 C 0.12992 0.36696 1.17042 0.0
C455 C 0.18264 0.36346 1.17544 0.0
C456 C 0.21303 0.40701 1.16092 0.0
H457 H 0.58675 0.10447 0.49723 0.0
H458 H 0.57136 0.26248 0.43662 0.0
H459 H 0.58172 0.2972 0.5235 0.0
H460 H 0.55697 0.13914 0.64812 0.0
H461 H 0.60638 0.09506 0.66646 0.0
H462 H 0.56572 0.07935 0.61263 0.0
H463 H 0.64388 0.06897 0.55365 0.0
H464 H 0.68414 0.08487 0.60652 0.0
H465 H 0.68828 0.12286 0.54701 0.0
H466 H 0.63156 0.31844 0.59762 0.0
H467 H 0.71188 0.32202 0.64426 0.0
H468 H 0.71009 0.15296 0.65826 0.0
C469 C 0.58376 0.14628 0.50284 0.0
C470 C 0.58039 0.18049 0.45945 0.0
C471 C 0.57422 0.23473 0.46851 0.0
C472 C 0.5803 0.25513 0.51845 0.0
C473 C 0.59302 0.22112 0.55901 0.0
C474 C 0.59343 0.16723 0.55206 0.0
C475 C 0.62223 0.14036 0.59542 0.0
C476 C 0.58564 0.11182 0.63288 0.0
C477 C 0.662 0.10221 0.57431 0.0
C478 C 0.64589 0.18776 0.6214 0.0
C479 C 0.62519 0.23385 0.60279 0.0
C480 C 0.64694 0.2827 0.61359 0.0
C481 C 0.69291 0.28446 0.63984 0.0
C482 C 0.71716 0.23763 0.65432 0.0
C483 C 0.69154 0.18922 0.6485 0.0
loop_
_geom_bond_atom_site_label_1
_geom_bond_atom_site_label_2
_geom_bond_distance
_geom_bond_site_symmetry_2
_ccdc_geom_bond_type
Ho0 C3 2.811 1_545 S
Ho0 O20 2.322 . S
Ho0 O22 2.378 1_545 S
Ho0 O23 2.524 . S
Ho0 O24 2.381 . S
Ho0 O25 2.669 1_554 S
Ho0 O27 2.346 1_554 S
Ho0 O31 2.305 . S
Ho1 C12 2.811 . S
Ho1 O21 2.346 1_556 S
Ho1 O25 2.305 . S
Ho1 O26 2.322 . S
Ho1 O28 2.378 . S
Ho1 O29 2.524 . S
Ho1 O30 2.381 . S
Ho1 O31 2.669 1_556 S
C2 O20 1.259 . S
C2 O21 1.268 . S
C3 Ho0 2.811 1_565 S
C3 C4 1.488 . S
C3 O22 1.215 . S
C3 O23 1.289 1_565 S
C4 C3 1.488 . S
C4 C5 1.348 . S
C4 C9 1.413 . S
C5 C4 1.348 . S
C5 C6 1.442 . S
C5 H32 0.929 1_565 S
C6 C5 1.442 . S
C6 C7 1.381 . S
C6 H33 0.931 . S
C7 C6 1.381 . S
C7 C8 1.321 . S
C8 C7 1.321 . S
C8 C9 1.403 . S
C8 H34 0.934 . S
C9 C4 1.413 . S
C9 C8 1.403 . S
C9 H35 0.930 . S
C10 O24 1.275 . S
C10 O25 1.256 1_554 S
C11 O26 1.259 . S
C11 O27 1.268 . S
C12 Ho1 2.811 . S
C12 C13 1.488 . S
C12 O28 1.215 . S
C12 O29 1.289 . S
C13 C12 1.488 . S
C13 C14 1.348 . S
C13 C18 1.413 . S
C14 C13 1.348 . S
C14 C15 1.442 . S
C14 H36 0.930 . S
C15 C14 1.442 . S
C15 C16 1.381 . S
C15 H37 0.931 . S
C16 C15 1.381 . S
C16 C17 1.321 . S
C17 C16 1.321 . S
C17 C18 1.403 . S
C17 H38 0.934 . S
C18 C13 1.413 . S
C18 C17 1.403 . S
C18 H39 0.930 . S
C19 O30 1.275 1_554 S
C19 O31 1.256 . S
O20 Ho0 2.322 . S
O20 C2 1.259 . S
O21 Ho1 2.346 1_554 S
O21 C2 1.268 . S
O22 Ho0 2.378 1_565 S
O22 C3 1.215 . S
O23 Ho0 2.524 . S
O23 C3 1.289 1_545 S
O24 Ho0 2.381 . S
O24 C10 1.275 . S
O25 Ho0 2.669 1_556 S
O25 Ho1 2.305 . S
O25 C10 1.256 1_556 S
O26 Ho1 2.322 . S
O26 C11 1.259 . S
O27 Ho0 2.346 1_556 S
O27 C11 1.268 . S
O28 Ho1 2.378 . S
O28 C12 1.215 . S
O29 Ho1 2.524 . S
O29 C12 1.289 . S
O30 Ho1 2.381 . S
O30 C19 1.275 1_556 S
O31 Ho0 2.305 . S
O31 Ho1 2.669 1_554 S
O31 C19 1.256 . S
H32 C5 0.929 1_545 S
H33 C6 0.931 . S
H34 C8 0.934 . S
H35 C9 0.930 . S
H36 C14 0.930 . S
H37 C15 0.931 . S
H38 C17 0.934 . S
H39 C18 0.930 . S
Ho40 C43 2.811 . S
Ho40 O60 2.322 1_455 S
Ho40 O62 2.378 . S
Ho40 O63 2.524 . S
Ho40 O64 2.381 . S
Ho40 O65 2.669 1_455 S
Ho40 O67 2.346 . S
Ho40 O71 2.305 . S
Ho41 C52 2.811 . S
Ho41 O61 2.346 . S
Ho41 O65 2.305 . S
Ho41 O66 2.322 1_655 S
Ho41 O68 2.378 . S
Ho41 O69 2.524 . S
Ho41 O70 2.381 . S
Ho41 O71 2.669 1_655 S
C42 O60 1.259 . S
C42 O61 1.268 . S
C43 Ho40 2.811 . S
C43 C44 1.488 . S
C43 O62 1.215 . S
C43 O63 1.289 . S
C44 C43 1.488 . S
C44 C45 1.348 . S
C44 C49 1.413 . S
C45 C44 1.348 . S
C45 C46 1.442 . S
C45 H72 0.930 . S
C46 C45 1.442 . S
C46 C47 1.381 . S
C46 H73 0.931 . S
C47 C46 1.381 . S
C47 C48 1.321 . S
C48 C47 1.321 . S
C48 C49 1.403 . S
C48 H74 0.934 . S
C49 C44 1.413 . S
C49 C48 1.403 . S
C49 H75 0.930 . S
C50 O64 1.275 . S
C50 O65 1.256 1_455 S
C51 O66 1.259 . S
C51 O67 1.268 . S
C52 Ho41 2.811 . S
C52 C53 1.488 . S
C52 O68 1.215 . S
C52 O69 1.289 . S
C53 C52 1.488 . S
C53 C54 1.348 . S
C53 C58 1.413 . S
C54 C53 1.348 . S
C54 C55 1.442 . S
C54 H76 0.930 . S
C55 C54 1.442 . S
C55 C56 1.381 . S
C55 H77 0.931 . S
C56 C55 1.381 . S
C56 C57 1.321 . S
C57 C56 1.321 . S
C57 C58 1.403 . S
C57 H78 0.934 . S
C58 C53 1.413 . S
C58 C57 1.403 . S
C58 H79 0.930 . S
C59 O70 1.275 . S
C59 O71 1.256 1_655 S
O60 Ho40 2.322 1_655 S
O60 C42 1.259 . S
O61 Ho41 2.346 . S
O61 C42 1.268 . S
O62 Ho40 2.378 . S
O62 C43 1.215 . S
O63 Ho40 2.524 . S
O63 C43 1.289 . S
O64 Ho40 2.381 . S
O64 C50 1.275 . S
O65 Ho40 2.669 1_655 S
O65 Ho41 2.305 . S
O65 C50 1.256 1_655 S
O66 Ho41 2.322 1_455 S
O66 C51 1.259 . S
O67 Ho40 2.346 . S
O67 C51 1.268 . S
O68 Ho41 2.378 . S
O68 C52 1.215 . S
O69 Ho41 2.524 . S
O69 C52 1.289 . S
O70 Ho41 2.381 . S
O70 C59 1.275 . S
O71 Ho40 2.305 . S
O71 Ho41 2.669 1_455 S
O71 C59 1.256 1_455 S
H72 C45 0.930 . S
H73 C46 0.931 . S
H74 C48 0.934 . S
H75 C49 0.930 . S
H76 C54 0.930 . S
H77 C55 0.931 . S
H78 C57 0.934 . S
H79 C58 0.930 . S
Ho80 C83 2.811 . S
Ho80 O100 2.322 1_545 S
Ho80 O102 2.378 . S
Ho80 O103 2.524 . S
Ho80 O104 2.381 . S
Ho80 O105 2.669 1_544 S
Ho80 O107 2.346 1_554 S
Ho80 O111 2.305 . S
Ho81 C92 2.811 . S
Ho81 O101 2.346 1_556 S
Ho81 O105 2.305 . S
Ho81 O106 2.322 1_565 S
Ho81 O108 2.378 . S
Ho81 O109 2.524 . S
Ho81 O110 2.381 . S
Ho81 O111 2.669 1_566 S
C82 O100 1.259 . S
C82 O101 1.268 . S
C83 Ho80 2.811 . S
C83 C84 1.488 . S
C83 O102 1.215 . S
C83 O103 1.289 . S
C84 C83 1.488 . S
C84 C85 1.348 . S
C84 C89 1.413 . S
C85 C84 1.348 . S
C85 C86 1.442 . S
C85 H112 0.930 . S
C86 C85 1.442 . S
C86 C87 1.381 . S
C86 H113 0.931 . S
C87 C86 1.381 . S
C87 C88 1.321 . S
C88 C87 1.321 . S
C88 C89 1.403 . S
C88 H114 0.934 . S
C89 C84 1.413 . S
C89 C88 1.403 . S
C89 H115 0.930 . S
C90 O104 1.275 . S
C90 O105 1.256 1_544 S
C91 O106 1.259 . S
C91 O107 1.268 . S
C92 Ho81 2.811 . S
C92 C93 1.488 . S
C92 O108 1.215 . S
C92 O109 1.289 . S
C93 C92 1.488 . S
C93 C94 1.348 . S
C93 C98 1.413 . S
C94 C93 1.348 . S
C94 C95 1.442 . S
C94 H116 0.930 . S
C95 C94 1.442 . S
C95 C96 1.381 . S
C95 H117 0.931 . S
C96 C95 1.381 . S
C96 C97 1.321 . S
C97 C96 1.321 . S
C97 C98 1.403 . S
C97 H118 0.934 . S
C98 C93 1.413 . S
C98 C97 1.403 . S
C98 H119 0.930 . S
C99 O110 1.275 1_554 S
C99 O111 1.256 1_565 S
O100 Ho80 2.322 1_565 S
O100 C82 1.259 . S
O101 Ho81 2.346 1_554 S
O101 C82 1.268 . S
O102 Ho80 2.378 . S
O102 C83 1.215 . S
O103 Ho80 2.524 . S
O103 C83 1.289 . S
O104 Ho80 2.381 . S
O104 C90 1.275 . S
O105 Ho80 2.669 1_566 S
O105 Ho81 2.305 . S
O105 C90 1.256 1_566 S
O106 Ho81 2.322 1_545 S
O106 C91 1.259 . S
O107 Ho80 2.346 1_556 S
O107 C91 1.268 . S
O108 Ho81 2.378 . S
O108 C92 1.215 . S
O109 Ho81 2.524 . S
O109 C92 1.289 . S
O110 Ho81 2.381 . S
O110 C99 1.275 1_556 S
O111 Ho80 2.305 . S
O111 Ho81 2.669 1_544 S
O111 C99 1.256 1_545 S
H112 C85 0.930 . S
H113 C86 0.931 . S
H114 C88 0.934 . S
H115 C89 0.930 . S
H116 C94 0.930 . S
H117 C95 0.931 . S
H118 C97 0.934 . S
H119 C98 0.930 . S
Ho120 C123 2.811 1_455 S
Ho120 O140 2.322 . S
Ho120 O142 2.378 1_455 S
Ho120 O143 2.524 . S
Ho120 O144 2.381 . S
Ho120 O145 2.669 . S
Ho120 O147 2.346 . S
Ho120 O151 2.305 . S
Ho121 C132 2.811 . S
Ho121 O141 2.346 . S
Ho121 O145 2.305 . S
Ho121 O146 2.322 . S
Ho121 O148 2.378 . S
Ho121 O149 2.524 . S
Ho121 O150 2.381 . S
Ho121 O151 2.669 . S
C122 O140 1.259 . S
C122 O141 1.268 . S
C123 Ho120 2.811 1_655 S
C123 C124 1.488 . S
C123 O142 1.215 . S
C123 O143 1.289 1_655 S
C124 C123 1.488 . S
C124 C125 1.348 . S
C124 C129 1.413 . S
C125 C124 1.348 . S
C125 C126 1.442 . S
C125 H152 0.921 1_655 S
C126 C125 1.442 . S
C126 C127 1.381 . S
C126 H153 0.931 . S
C127 C126 1.381 . S
C127 C128 1.321 . S
C128 C127 1.321 . S
C128 C129 1.403 . S
C128 H154 0.934 . S
C129 C124 1.413 . S
C129 C128 1.403 . S
C129 H155 0.930 . S
C130 O144 1.275 . S
C130 O145 1.256 . S
C131 O146 1.259 . S
C131 O147 1.268 . S
C132 Ho121 2.811 . S
C132 C133 1.488 . S
C132 O148 1.215 . S
C132 O149 1.289 . S
C133 C132 1.488 . S
C133 C134 1.348 . S
C133 C138 1.413 . S
C134 C133 1.348 . S
C134 C135 1.442 . S
C134 H156 0.930 . S
C135 C134 1.442 . S
C135 C136 1.381 . S
C135 H157 0.931 . S
C136 C135 1.381 . S
C136 C137 1.321 . S
C137 C136 1.321 . S
C137 C138 1.403 . S
C137 H158 0.934 . S
C138 C133 1.413 . S
C138 C137 1.403 . S
C138 H159 0.930 . S
C139 O150 1.275 . S
C139 O151 1.256 . S
O140 Ho120 2.322 . S
O140 C122 1.259 . S
O141 Ho121 2.346 . S
O141 C122 1.268 . S
O142 Ho120 2.378 1_655 S
O142 C123 1.215 . S
O143 Ho120 2.524 . S
O143 C123 1.289 1_455 S
O144 Ho120 2.381 . S
O144 C130 1.275 . S
O145 Ho120 2.669 . S
O145 Ho121 2.305 . S
O145 C130 1.256 . S
O146 Ho121 2.322 . S
O146 C131 1.259 . S
O147 Ho120 2.346 . S
O147 C131 1.268 . S
O148 Ho121 2.378 . S
O148 C132 1.215 . S
O149 Ho121 2.524 . S
O149 C132 1.289 . S
O150 Ho121 2.381 . S
O150 C139 1.275 . S
O151 Ho120 2.305 . S
O151 Ho121 2.669 . S
O151 C139 1.256 . S
H152 C125 0.921 1_455 S
H153 C126 0.931 . S
H154 C128 0.934 . S
H155 C129 0.930 . S
H156 C134 0.930 . S
H157 C135 0.931 . S
H158 C137 0.934 . S
H159 C138 0.930 . S
H160 C172 0.930 . S
H161 C174 0.930 . S
H162 C175 0.930 . S
H163 C179 0.959 1_565 S
H164 C179 0.959 . S
H165 C179 0.961 1_565 S
H166 C180 0.960 1_655 S
H167 C180 0.961 . S
H168 C180 0.959 . S
H169 C183 0.929 . S
H170 C184 0.931 . S
H171 C186 0.930 . S
C172 H160 0.930 . S
C172 C173 1.415 . S
C172 C177 1.399 . S
C173 C172 1.415 . S
C173 C174 1.356 1_556 S
C174 H161 0.930 . S
C174 C173 1.356 1_554 S
C174 C175 1.388 . S
C175 H162 0.930 . S
C175 C174 1.388 . S
C175 C176 1.390 1_655 S
C176 C175 1.390 1_455 S
C176 C177 1.394 1_454 S
C176 C182 1.465 . S
C177 C172 1.399 . S
C177 C176 1.394 1_656 S
C177 C178 1.516 1_655 S
C178 C177 1.516 1_455 S
C178 C179 1.502 . S
C178 C180 1.561 . S
C178 C181 1.526 . S
C179 H163 0.959 1_545 S
C179 H164 0.959 . S
C179 H165 0.961 1_545 S
C179 C178 1.502 . S
C180 H166 0.960 1_455 S
C180 H167 0.961 . S
C180 H168 0.959 . S
C180 C178 1.561 . S
C181 C178 1.526 . S
C181 C182 1.396 1_556 S
C181 C186 1.390 . S
C182 C176 1.465 . S
C182 C181 1.396 1_554 S
C182 C183 1.399 . S
C183 H169 0.929 . S
C183 C182 1.399 . S
C183 C184 1.385 . S
C184 H170 0.931 . S
C184 C183 1.385 . S
C184 C185 1.381 1_554 S
C185 C184 1.381 1_556 S
C185 C186 1.393 . S
C186 H171 0.930 . S
C186 C181 1.390 . S
C186 C185 1.393 . S
H187 C199 0.930 . S
H188 C201 0.930 . S
H189 C202 0.930 . S
H190 C206 0.959 . S
H191 C206 0.959 . S
H192 C206 0.961 . S
H193 C207 0.953 1_565 S
H194 C207 0.961 1_655 S
H195 C207 0.959 1_655 S
H196 C210 0.929 1_655 S
H197 C211 0.931 . S
H198 C213 0.930 . S
C199 H187 0.930 . S
C199 C200 1.399 . S
C199 C204 1.412 . S
C200 C199 1.399 . S
C200 C201 1.376 . S
C201 H188 0.930 . S
C201 C200 1.376 . S
C201 C202 1.388 . S
C202 H189 0.930 . S
C202 C201 1.388 . S
C202 C203 1.390 1_565 S
C203 C202 1.390 1_545 S
C203 C204 1.391 1_545 S
C203 C209 1.465 . S
C204 C199 1.412 . S
C204 C203 1.391 1_565 S
C204 C205 1.505 1_565 S
C205 C204 1.505 1_545 S
C205 C206 1.502 . S
C205 C207 1.561 . S
C205 C208 1.526 . S
C206 H190 0.959 . S
C206 H191 0.959 . S
C206 H192 0.961 . S
C206 C205 1.502 . S
C207 H193 0.953 1_545 S
C207 H194 0.961 1_455 S
C207 H195 0.959 1_455 S
C207 C205 1.561 . S
C208 C205 1.526 . S
C208 C209 1.396 . S
C208 C213 1.390 . S
C209 C203 1.465 . S
C209 C208 1.396 . S
C209 C210 1.399 . S
C210 H196 0.929 1_455 S
C210 C209 1.399 . S
C210 C211 1.385 1_455 S
C211 H197 0.931 . S
C211 C210 1.385 1_655 S
C211 C212 1.389 . S
C212 C211 1.389 . S
C212 C213 1.387 1_655 S
C213 H198 0.930 . S
C213 C208 1.390 . S
C213 C212 1.387 1_455 S
H214 C226 0.930 . S
H215 C228 0.930 . S
H216 C229 0.930 . S
H217 C233 0.959 . S
H218 C233 0.959 . S
H219 C233 0.961 . S
H220 C234 0.960 . S
H221 C234 0.961 . S
H222 C234 0.959 . S
H223 C237 0.929 . S
H224 C238 0.931 . S
H225 C240 0.930 . S
C226 H214 0.930 . S
C226 C227 1.399 . S
C226 C231 1.399 1_565 S
C227 C226 1.399 . S
C227 C228 1.374 1_564 S
C228 H215 0.930 . S
C228 C227 1.374 1_546 S
C228 C229 1.388 . S
C229 H216 0.930 . S
C229 C228 1.388 . S
C229 C230 1.390 . S
C230 C229 1.390 . S
C230 C231 1.394 1_556 S
C230 C236 1.465 . S
C231 C226 1.399 1_545 S
C231 C230 1.394 1_554 S
C231 C232 1.516 . S
C232 C231 1.516 . S
C232 C233 1.502 1_545 S
C232 C234 1.561 . S
C232 C235 1.526 . S
C233 H217 0.959 . S
C233 H218 0.959 . S
C233 H219 0.961 . S
C233 C232 1.502 1_565 S
C234 H220 0.960 . S
C234 H221 0.961 . S
C234 H222 0.959 . S
C234 C232 1.561 . S
C235 C232 1.526 . S
C235 C236 1.396 1_554 S
C235 C240 1.390 . S
C236 C230 1.465 . S
C236 C235 1.396 1_556 S
C236 C237 1.399 . S
C237 H223 0.929 . S
C237 C236 1.399 . S
C237 C238 1.385 . S
C238 H224 0.931 . S
C238 C237 1.385 . S
C238 C239 1.389 1_556 S
C239 C238 1.389 1_554 S
C239 C240 1.387 . S
C240 H225 0.930 . S
C240 C235 1.390 . S
C240 C239 1.387 . S
H241 C253 0.930 . S
H242 C255 0.930 . S
H243 C256 0.930 . S
H244 C260 0.959 . S
H245 C260 0.959 . S
H246 C260 0.961 . S
H247 C261 0.960 . S
H248 C261 0.961 . S
H249 C261 0.959 . S
H250 C264 0.929 . S
H251 C265 0.931 . S
H252 C267 0.930 . S
C253 H241 0.930 . S
C253 C254 1.396 1_655 S
C253 C258 1.399 1_655 S
C254 C253 1.396 1_455 S
C254 C255 1.390 . S
C255 H242 0.930 . S
C255 C254 1.390 . S
C255 C256 1.388 . S
C256 H243 0.930 . S
C256 C255 1.388 . S
C256 C257 1.390 . S
C257 C256 1.390 . S
C257 C258 1.394 . S
C257 C263 1.465 . S
C258 C253 1.399 1_455 S
C258 C257 1.394 . S
C258 C259 1.516 . S
C259 C258 1.516 . S
C259 C260 1.502 1_455 S
C259 C261 1.561 . S
C259 C262 1.526 . S
C260 H244 0.959 . S
C260 H245 0.959 . S
C260 H246 0.961 . S
C260 C259 1.502 1_655 S
C261 H247 0.960 . S
C261 H248 0.961 . S
C261 H249 0.959 . S
C261 C259 1.561 . S
C262 C259 1.526 . S
C262 C263 1.396 . S
C262 C267 1.390 . S
C263 C257 1.465 . S
C263 C262 1.396 . S
C263 C264 1.399 . S
C264 H250 0.929 . S
C264 C263 1.399 . S
C264 C265 1.385 . S
C265 H251 0.931 . S
C265 C264 1.385 . S
C265 C266 1.389 . S
C266 C265 1.389 . S
C266 C267 1.387 . S
C267 H252 0.930 . S
C267 C262 1.390 . S
C267 C266 1.387 . S
H268 C280 0.930 . S
H269 C282 0.930 . S
H270 C283 0.930 . S
H271 C287 0.959 . S
H272 C287 0.959 . S
H273 C287 0.961 . S
H274 C288 0.960 . S
H275 C288 0.961 . S
H276 C288 0.959 . S
H277 C291 0.929 . S
H278 C292 0.931 . S
H279 C294 0.930 . S
C280 H268 0.930 . S
C280 C281 1.399 . S
C280 C285 1.399 . S
C281 C280 1.399 . S
C281 C282 1.376 . S
C282 H269 0.930 . S
C282 C281 1.376 . S
C282 C283 1.388 . S
C283 H270 0.930 . S
C283 C282 1.388 . S
C283 C284 1.390 . S
C284 C283 1.390 . S
C284 C285 1.394 . S
C284 C290 1.465 . S
C285 C280 1.399 . S
C285 C284 1.394 . S
C285 C286 1.516 . S
C286 C285 1.516 . S
C286 C287 1.502 . S
C286 C288 1.561 . S
C286 C289 1.526 . S
C287 H271 0.959 . S
C287 H272 0.959 . S
C287 H273 0.961 . S
C287 C286 1.502 . S
C288 H274 0.960 . S
C288 H275 0.961 . S
C288 H276 0.959 . S
C288 C286 1.561 . S
C289 C286 1.526 . S
C289 C290 1.396 . S
C289 C294 1.390 . S
C290 C284 1.465 . S
C290 C289 1.396 . S
C290 C291 1.399 . S
C291 H277 0.929 . S
C291 C290 1.399 . S
C291 C292 1.385 . S
C292 H278 0.931 . S
C292 C291 1.385 . S
C292 C293 1.389 . S
C293 C292 1.389 . S
C293 C294 1.387 . S
C294 H279 0.930 . S
C294 C289 1.390 . S
C294 C293 1.387 . S
H295 C307 0.930 . S
H296 C309 0.930 . S
H297 C310 0.930 . S
H298 C314 0.959 . S
H299 C314 0.959 . S
H300 C314 0.961 . S
H301 C315 0.960 . S
H302 C315 0.961 . S
H303 C315 0.959 . S
H304 C318 0.929 . S
H305 C319 0.931 . S
H306 C321 0.930 . S
C307 H295 0.930 . S
C307 C308 1.399 . S
C307 C312 1.399 . S
C308 C307 1.399 . S
C308 C309 1.376 . S
C309 H296 0.930 . S
C309 C308 1.376 . S
C309 C310 1.388 . S
C310 H297 0.930 . S
C310 C309 1.388 . S
C310 C311 1.390 . S
C311 C310 1.390 . S
C311 C312 1.394 . S
C311 C317 1.465 . S
C312 C307 1.399 . S
C312 C311 1.394 . S
C312 C313 1.516 . S
C313 C312 1.516 . S
C313 C314 1.502 . S
C313 C315 1.561 . S
C313 C316 1.526 . S
C314 H298 0.959 . S
C314 H299 0.959 . S
C314 H300 0.961 . S
C314 C313 1.502 . S
C315 H301 0.960 . S
C315 H302 0.961 . S
C315 H303 0.959 . S
C315 C313 1.561 . S
C316 C313 1.526 . S
C316 C317 1.396 . S
C316 C321 1.390 . S
C317 C311 1.465 . S
C317 C316 1.396 . S
C317 C318 1.399 . S
C318 H304 0.929 . S
C318 C317 1.399 . S
C318 C319 1.385 . S
C319 H305 0.931 . S
C319 C318 1.385 . S
C319 C320 1.389 . S
C320 C319 1.389 . S
C320 C321 1.387 . S
C321 H306 0.930 . S
C321 C316 1.390 . S
C321 C320 1.387 . S
H322 C334 0.930 1_455 S
H323 C336 0.930 . S
H324 C337 0.930 . S
H325 C341 0.959 . S
H326 C341 0.959 . S
H327 C341 0.961 . S
H328 C342 0.960 . S
H329 C342 0.961 . S
H330 C342 0.959 . S
H331 C345 0.929 . S
H332 C346 0.931 . S
H333 C348 0.930 . S
C334 H322 0.930 1_655 S
C334 C335 1.399 . S
C334 C339 1.399 . S
C335 C334 1.399 . S
C335 C336 1.376 . S
C336 H323 0.930 . S
C336 C335 1.376 . S
C336 C337 1.388 . S
C337 H324 0.930 . S
C337 C336 1.388 . S
C337 C338 1.390 . S
C338 C337 1.390 . S
C338 C339 1.394 . S
C338 C344 1.465 . S
C339 C334 1.399 . S
C339 C338 1.394 . S
C339 C340 1.516 . S
C340 C339 1.516 . S
C340 C341 1.502 1_655 S
C340 C342 1.561 . S
C340 C343 1.526 . S
C341 H325 0.959 . S
C341 H326 0.959 . S
C341 H327 0.961 . S
C341 C340 1.502 1_455 S
C342 H328 0.960 . S
C342 H329 0.961 . S
C342 H330 0.959 . S
C342 C340 1.561 . S
C343 C340 1.526 . S
C343 C344 1.396 . S
C343 C348 1.390 . S
C344 C338 1.465 . S
C344 C343 1.396 . S
C344 C345 1.399 . S
C345 H331 0.929 . S
C345 C344 1.399 . S
C345 C346 1.385 . S
C346 H332 0.931 . S
C346 C345 1.385 . S
C346 C347 1.389 . S
C347 C346 1.389 . S
C347 C348 1.387 . S
C348 H333 0.930 . S
C348 C343 1.390 . S
C348 C347 1.387 . S
H349 C361 0.930 . S
H350 C363 0.930 . S
H351 C364 0.930 . S
H352 C368 0.959 . S
H353 C368 0.959 . S
H354 C368 0.961 . S
H355 C369 0.960 . S
H356 C369 0.961 . S
H357 C369 0.959 . S
H358 C372 0.930 . S
H359 C373 0.931 . S
H360 C375 0.930 . S
C361 H349 0.930 . S
C361 C362 1.399 . S
C361 C366 1.399 . S
C362 C361 1.399 . S
C362 C363 1.376 . S
C363 H350 0.930 . S
C363 C362 1.376 . S
C363 C364 1.388 . S
C364 H351 0.930 . S
C364 C363 1.388 . S
C364 C365 1.390 . S
C365 C364 1.390 . S
C365 C366 1.394 . S
C365 C371 1.465 . S
C366 C361 1.399 . S
C366 C365 1.394 . S
C366 C367 1.516 . S
C367 C366 1.516 . S
C367 C368 1.502 . S
C367 C369 1.561 . S
C367 C370 1.526 . S
C368 H352 0.959 . S
C368 H353 0.959 . S
C368 H354 0.961 . S
C368 C367 1.502 . S
C369 H355 0.960 . S
C369 H356 0.961 . S
C369 H357 0.959 . S
C369 C367 1.561 . S
C370 C367 1.526 . S
C370 C371 1.396 . S
C370 C375 1.390 . S
C371 C365 1.465 . S
C371 C370 1.396 . S
C371 C372 1.397 1_565 S
C372 H358 0.930 . S
C372 C371 1.397 1_545 S
C372 C373 1.385 . S
C373 H359 0.931 . S
C373 C372 1.385 . S
C373 C374 1.389 1_545 S
C374 C373 1.389 1_565 S
C374 C375 1.387 . S
C375 H360 0.930 . S
C375 C370 1.390 . S
C375 C374 1.387 . S
H376 C388 0.930 . S
H377 C390 0.930 . S
H378 C391 0.930 . S
H379 C395 0.959 . S
H380 C395 0.959 . S
H381 C395 0.961 . S
H382 C396 0.960 . S
H383 C396 0.961 . S
H384 C396 0.959 . S
H385 C399 0.929 . S
H386 C400 0.931 . S
H387 C402 0.930 . S
C388 H376 0.930 . S
C388 C389 1.399 . S
C388 C393 1.399 . S
C389 C388 1.399 . S
C389 C390 1.376 . S
C390 H377 0.930 . S
C390 C389 1.376 . S
C390 C391 1.388 . S
C391 H378 0.930 . S
C391 C390 1.388 . S
C391 C392 1.390 . S
C392 C391 1.390 . S
C392 C393 1.394 . S
C392 C398 1.465 . S
C393 C388 1.399 . S
C393 C392 1.394 . S
C393 C394 1.516 . S
C394 C393 1.516 . S
C394 C395 1.502 . S
C394 C396 1.561 . S
C394 C397 1.526 . S
C395 H379 0.959 . S
C395 H380 0.959 . S
C395 H381 0.961 . S
C395 C394 1.502 . S
C396 H382 0.960 . S
C396 H383 0.961 . S
C396 H384 0.959 . S
C396 C394 1.561 . S
C397 C394 1.526 . S
C397 C398 1.396 . S
C397 C402 1.390 . S
C398 C392 1.465 . S
C398 C397 1.396 . S
C398 C399 1.399 . S
C399 H385 0.929 . S
C399 C398 1.399 . S
C399 C400 1.385 . S
C400 H386 0.931 . S
C400 C399 1.385 . S
C400 C401 1.389 . S
C401 C400 1.389 . S
C401 C402 1.387 . S
C402 H387 0.930 . S
C402 C397 1.390 . S
C402 C401 1.387 . S
H403 C415 0.930 . S
H404 C417 0.930 . S
H405 C418 0.930 . S
H406 C422 0.959 . S
H407 C422 0.959 . S
H408 C422 0.961 . S
H409 C423 0.960 . S
H410 C423 0.961 . S
H411 C423 0.959 . S
H412 C426 0.929 . S
H413 C427 0.931 . S
H414 C429 0.930 . S
C415 H403 0.930 . S
C415 C416 1.399 . S
C415 C420 1.399 . S
C416 C415 1.399 . S
C416 C417 1.376 . S
C417 H404 0.930 . S
C417 C416 1.376 . S
C417 C418 1.388 . S
C418 H405 0.930 . S
C418 C417 1.388 . S
C418 C419 1.390 . S
C419 C418 1.390 . S
C419 C420 1.394 . S
C419 C425 1.465 . S
C420 C415 1.399 . S
C420 C419 1.394 . S
C420 C421 1.516 . S
C421 C420 1.516 . S
C421 C422 1.502 . S
C421 C423 1.561 . S
C421 C424 1.526 . S
C422 H406 0.959 . S
C422 H407 0.959 . S
C422 H408 0.961 . S
C422 C421 1.502 . S
C423 H409 0.960 . S
C423 H410 0.961 . S
C423 H411 0.959 . S
C423 C421 1.561 . S
C424 C421 1.526 . S
C424 C425 1.396 . S
C424 C429 1.390 . S
C425 C419 1.465 . S
C425 C424 1.396 . S
C425 C426 1.399 . S
C426 H412 0.929 . S
C426 C425 1.399 . S
C426 C427 1.385 . S
C427 H413 0.931 . S
C427 C426 1.385 . S
C427 C428 1.389 . S
C428 C427 1.389 . S
C428 C429 1.387 . S
C429 H414 0.930 . S
C429 C424 1.390 . S
C429 C428 1.387 . S
H430 C442 0.930 . S
H431 C444 0.930 . S
H432 C445 0.930 . S
H433 C449 0.959 . S
H434 C449 0.959 . S
H435 C449 0.961 . S
H436 C450 0.960 . S
H437 C450 0.961 . S
H438 C450 0.959 . S
H439 C453 0.929 . S
H440 C454 0.931 . S
H441 C456 0.930 . S
C442 H430 0.930 . S
C442 C443 1.399 . S
C442 C447 1.399 . S
C443 C442 1.399 . S
C443 C444 1.376 . S
C444 H431 0.930 . S
C444 C443 1.376 . S
C444 C445 1.388 . S
C445 H432 0.930 . S
C445 C444 1.388 . S
C445 C446 1.390 . S
C446 C445 1.390 . S
C446 C447 1.394 . S
C446 C452 1.465 . S
C447 C442 1.399 . S
C447 C446 1.394 . S
C447 C448 1.516 . S
C448 C447 1.516 . S
C448 C449 1.502 . S
C448 C450 1.561 . S
C448 C451 1.526 . S
C449 H433 0.959 . S
C449 H434 0.959 . S
C449 H435 0.961 . S
C449 C448 1.502 . S
C450 H436 0.960 . S
C450 H437 0.961 . S
C450 H438 0.959 . S
C450 C448 1.561 . S
C451 C448 1.526 . S
C451 C452 1.396 . S
C451 C456 1.390 . S
C452 C446 1.465 . S
C452 C451 1.396 . S
C452 C453 1.399 . S
C453 H439 0.929 . S
C453 C452 1.399 . S
C453 C454 1.385 . S
C454 H440 0.931 . S
C454 C453 1.385 . S
C454 C455 1.389 . S
C455 C454 1.389 . S
C455 C456 1.387 . S
C456 H441 0.930 . S
C456 C451 1.390 . S
C456 C455 1.387 . S
H457 C469 0.930 . S
H458 C471 0.930 . S
H459 C472 0.930 . S
H460 C476 0.959 . S
H461 C476 0.959 . S
H462 C476 0.961 . S
H463 C477 0.960 . S
H464 C477 0.961 . S
H465 C477 0.959 . S
H466 C480 0.929 . S
H467 C481 0.931 . S
H468 C483 0.930 . S
C469 H457 0.930 . S
C469 C470 1.399 . S
C469 C474 1.399 . S
C470 C469 1.399 . S
C470 C471 1.376 . S
C471 H458 0.930 . S
C471 C470 1.376 . S
C471 C472 1.388 . S
C472 H459 0.930 . S
C472 C471 1.388 . S
C472 C473 1.390 . S
C473 C472 1.390 . S
C473 C474 1.394 . S
C473 C479 1.465 . S
C474 C469 1.399 . S
C474 C473 1.394 . S
C474 C475 1.516 . S
C475 C474 1.516 . S
C475 C476 1.502 . S
C475 C477 1.561 . S
C475 C478 1.526 . S
C476 H460 0.959 . S
C476 H461 0.959 . S
C476 H462 0.961 . S
C476 C475 1.502 . S
C477 H463 0.960 . S
C477 H464 0.961 . S
C477 H465 0.959 . S
C477 C475 1.561 . S
C478 C475 1.526 . S
C478 C479 1.396 . S
C478 C483 1.390 . S
C479 C473 1.465 . S
C479 C478 1.396 . S
C479 C480 1.399 . S
C480 H466 0.929 . S
C480 C479 1.399 . S
C480 C481 1.385 . S
C481 H467 0.931 . S
C481 C480 1.385 . S
C481 C482 1.389 . S
C482 C481 1.389 . S
C482 C483 1.387 . S
C483 H468 0.930 . S
C483 C478 1.390 . S
C483 C482 1.387 . S
C173 C90 0.389 1_556 S
C185 C10 0.491 1_556 S
C200 C130 0.379 . S
C212 C50 0.510 1_655 S
C227 C99 0.875 . S
C239 C19 0.865 . S
C254 C59 0.868 1_455 S
C266 C139 0.869 . S
C281 C51 4.642 . S
C293 C2 4.537 . S
C308 C42 4.532 . S
C320 C91 4.643 . S
C335 C131 4.642 1_655 S
C347 C82 4.542 . S
C362 C122 4.524 . S
C374 C11 4.643 1_565 S
C389 C96 1.100 . S
C401 C127 0.992 . S
C416 C7 0.990 . S
C428 C136 1.084 . S
C443 C47 1.021 . S
C455 C16 1.032 . S
C470 C87 0.990 . S
C482 C56 1.085 . S
