# Generated by pormake.
# Topology upb, (4)-cn, num edge types: 1
# Building blocks:
#     Node 0, Type 0, BuildingBlock: TATPOV_clean_sbu_0, # of connection points: 4
#     Node 1, Type 0, BuildingBlock: TATPOV_clean_sbu_0, # of connection points: 4
#     Node 2, Type 0, BuildingBlock: TATPOV_clean_sbu_0, # of connection points: 4
#     Node 3, Type 0, BuildingBlock: TATPOV_clean_sbu_0, # of connection points: 4
#     Node 4, Type 0, BuildingBlock: TATPOV_clean_sbu_0, # of connection points: 4
#     Node 5, Type 0, BuildingBlock: TATPOV_clean_sbu_0, # of connection points: 4
#     Node 6, Type 0, BuildingBlock: TATPOV_clean_sbu_0, # of connection points: 4
#     Node 7, Type 0, BuildingBlock: TATPOV_clean_sbu_0, # of connection points: 4
#     Node 8, Type 0, BuildingBlock: TATPOV_clean_sbu_0, # of connection points: 4
#     Node 9, Type 0, BuildingBlock: TATPOV_clean_sbu_0, # of connection points: 4
#     Node 10, Type 0, BuildingBlock: TATPOV_clean_sbu_0, # of connection points: 4
#     Node 11, Type 0, BuildingBlock: TATPOV_clean_sbu_0, # of connection points: 4
#     Node 12, Type 0, BuildingBlock: TATPOV_clean_sbu_0, # of connection points: 4
#     Node 13, Type 0, BuildingBlock: TATPOV_clean_sbu_0, # of connection points: 4
#     Node 14, Type 0, BuildingBlock: TATPOV_clean_sbu_0, # of connection points: 4
#     Node 15, Type 0, BuildingBlock: TATPOV_clean_sbu_0, # of connection points: 4
#     Edge 16, Type (0, 0), BuildingBlock: OJICUG_clean_linker_0, # of connection points: 2
#     Edge 17, Type (0, 0), BuildingBlock: OJICUG_clean_linker_0, # of connection points: 2
#     Edge 18, Type (0, 0), BuildingBlock: OJICUG_clean_linker_0, # of connection points: 2
#     Edge 19, Type (0, 0), BuildingBlock: OJICUG_clean_linker_0, # of connection points: 2
#     Edge 20, Type (0, 0), BuildingBlock: OJICUG_clean_linker_0, # of connection points: 2
#     Edge 21, Type (0, 0), BuildingBlock: OJICUG_clean_linker_0, # of connection points: 2
#     Edge 22, Type (0, 0), BuildingBlock: OJICUG_clean_linker_0, # of connection points: 2
#     Edge 23, Type (0, 0), BuildingBlock: OJICUG_clean_linker_0, # of connection points: 2
#     Edge 24, Type (0, 0), BuildingBlock: OJICUG_clean_linker_0, # of connection points: 2
#     Edge 25, Type (0, 0), BuildingBlock: OJICUG_clean_linker_0, # of connection points: 2
#     Edge 26, Type (0, 0), BuildingBlock: OJICUG_clean_linker_0, # of connection points: 2
#     Edge 27, Type (0, 0), BuildingBlock: OJICUG_clean_linker_0, # of connection points: 2
#     Edge 28, Type (0, 0), BuildingBlock: OJICUG_clean_linker_0, # of connection points: 2
#     Edge 29, Type (0, 0), BuildingBlock: OJICUG_clean_linker_0, # of connection points: 2
#     Edge 30, Type (0, 0), BuildingBlock: OJICUG_clean_linker_0, # of connection points: 2
#     Edge 31, Type (0, 0), BuildingBlock: OJICUG_clean_linker_0, # of connection points: 2
#     Edge 32, Type (0, 0), BuildingBlock: OJICUG_clean_linker_0, # of connection points: 2
#     Edge 33, Type (0, 0), BuildingBlock: OJICUG_clean_linker_0, # of connection points: 2
#     Edge 34, Type (0, 0), BuildingBlock: OJICUG_clean_linker_0, # of connection points: 2
#     Edge 35, Type (0, 0), BuildingBlock: OJICUG_clean_linker_0, # of connection points: 2
#     Edge 36, Type (0, 0), BuildingBlock: OJICUG_clean_linker_0, # of connection points: 2
#     Edge 37, Type (0, 0), BuildingBlock: OJICUG_clean_linker_0, # of connection points: 2
#     Edge 38, Type (0, 0), BuildingBlock: OJICUG_clean_linker_0, # of connection points: 2
#     Edge 39, Type (0, 0), BuildingBlock: OJICUG_clean_linker_0, # of connection points: 2
#     Edge 40, Type (0, 0), BuildingBlock: OJICUG_clean_linker_0, # of connection points: 2
#     Edge 41, Type (0, 0), BuildingBlock: OJICUG_clean_linker_0, # of connection points: 2
#     Edge 42, Type (0, 0), BuildingBlock: OJICUG_clean_linker_0, # of connection points: 2
#     Edge 43, Type (0, 0), BuildingBlock: OJICUG_clean_linker_0, # of connection points: 2
#     Edge 44, Type (0, 0), BuildingBlock: OJICUG_clean_linker_0, # of connection points: 2
#     Edge 45, Type (0, 0), BuildingBlock: OJICUG_clean_linker_0, # of connection points: 2
#     Edge 46, Type (0, 0), BuildingBlock: OJICUG_clean_linker_0, # of connection points: 2
#     Edge 47, Type (0, 0), BuildingBlock: OJICUG_clean_linker_0, # of connection points: 2
# Relax obj value: 0.237
# Max RMSD: 0.117
# Mean RMSD: 0.117
data_MOF--net-upb--node1-TATPOV_clean_sbu_0--edge1-OJICUG_clean_linker_0
_symmetry_space_group_name_H-M    P1
_symmetry_Int_Tables_number       1
_symmetry_cell_setting            triclinic
loop_
_symmetry_equiv_pos_as_xyz
'x, y, z'
_cell_length_a     29.215543
_cell_length_b     29.366622
_cell_length_c     32.795373
_cell_angle_alpha  89.957423
_cell_angle_beta   90.029861
_cell_angle_gamma 90.091266
loop_
_atom_site_label
_atom_site_type_symbol
_atom_site_fract_x
_atom_site_fract_y
_atom_site_fract_z
_atom_type_partial_charge
Zn0 Zn 0.04336 0.24355 0.38198 0.0
Zn1 Zn 0.04671 0.29197 0.31963 0.0
O2 O 0.02678 0.33328 0.36945 0.0
O3 O 0.04495 0.29256 0.42307 0.0
O4 O 0.06144 0.3366 0.27452 0.0
O5 O 0.10033 0.20889 0.37296 0.0
O6 O 0.10693 0.2527 0.31896 0.0
C7 C 0.03118 0.32962 0.40808 0.0
C8 C 0.97008 0.22596 0.32368 0.0
O9 O 0.99315 0.25211 0.30043 0.0
O10 O 0.98265 0.2195 0.36024 0.0
C11 C 0.05635 0.37957 0.27642 0.0
O12 O 0.03517 0.39737 0.3079 0.0
C13 C 0.12246 0.22108 0.34178 0.0
Zn14 Zn 0.87636 0.98564 0.3443 0.0
Zn15 Zn 0.78999 0.00313 0.33866 0.0
O16 O 0.79322 0.00124 0.40057 0.0
O17 O 0.86668 0.98564 0.40631 0.0
O18 O 0.72523 0.02176 0.32477 0.0
O19 O 0.89921 0.04064 0.31577 0.0
O20 O 0.82643 0.05925 0.31609 0.0
C21 C 0.82804 0.99297 0.42276 0.0
C22 C 0.832 0.91224 0.30809 0.0
O23 O 0.7974 0.93645 0.31756 0.0
O24 O 0.87188 0.92784 0.31328 0.0
C25 C 0.70076 0.0026 0.29764 0.0
O26 O 0.71635 0.96608 0.27922 0.0
C27 C 0.86804 0.06907 0.30808 0.0
Zn28 Zn 0.98667 0.77521 0.38854 0.0
Zn29 Zn 0.99592 0.704 0.35783 0.0
O30 O 0.0021 0.68994 0.42062 0.0
O31 O 0.0204 0.75934 0.43906 0.0
O32 O 0.98817 0.64272 0.33139 0.0
O33 O 0.91775 0.77638 0.38839 0.0
O34 O 0.93637 0.7349 0.33593 0.0
C35 C 0.01739 0.71751 0.44747 0.0
C36 C 0.05295 0.77943 0.32658 0.0
O37 O 0.05338 0.73666 0.33361 0.0
O38 O 0.02183 0.80371 0.34224 0.0
C39 C 0.9935 0.63818 0.29317 0.0
O40 O 0.01208 0.6717 0.27239 0.0
C41 C 0.90715 0.75974 0.35418 0.0
Zn42 Zn 0.19519 0.98015 0.3632 0.0
Zn43 Zn 0.26582 0.97297 0.33079 0.0
O44 O 0.28303 0.9737 0.39241 0.0
O45 O 0.21716 0.94649 0.41279 0.0
O46 O 0.325 0.95917 0.30114 0.0
O47 O 0.15692 0.94814 0.32196 0.0
O48 O 0.22416 0.91686 0.31403 0.0
C49 C 0.25844 0.95622 0.4204 0.0
C50 C 0.22065 0.06444 0.33393 0.0
O51 O 0.24582 0.03861 0.31211 0.0
O52 O 0.19811 0.04766 0.36314 0.0
C53 C 0.35351 0.93187 0.31735 0.0
O54 O 0.34471 0.91543 0.35378 0.0
C55 C 0.18083 0.9155 0.30895 0.0
Zn56 Zn 0.98391 0.79089 0.66761 0.0
Zn57 Zn 0.01099 0.73153 0.70709 0.0
O58 O 0.01157 0.70633 0.64697 0.0
O59 O 0.0181 0.77303 0.61766 0.0
O60 O 0.03311 0.67905 0.74133 0.0
O61 O 0.01201 0.83696 0.70584 0.0
O62 O 0.06031 0.78158 0.71723 0.0
C63 C 0.0204 0.73021 0.61544 0.0
C64 C 0.91351 0.76577 0.7117 0.0
O65 O 0.94864 0.75297 0.73176 0.0
O66 O 0.91792 0.77243 0.67389 0.0
C67 C 0.02752 0.63764 0.73114 0.0
O68 O 0.00327 0.62801 0.69852 0.0
C69 C 0.05013 0.82368 0.71972 0.0
Zn70 Zn 0.16011 0.01407 0.62367 0.0
Zn71 Zn 0.22143 0.04239 0.66038 0.0
O72 O 0.25116 0.02103 0.6057 0.0
O73 O 0.19811 0.97107 0.59096 0.0
O74 O 0.27516 0.06789 0.69232 0.0
O75 O 0.14004 0.07274 0.59957 0.0
O76 O 0.17547 0.09779 0.65398 0.0
C77 C 0.23742 0.9874 0.58433 0.0
C78 C 0.15443 0.97549 0.69769 0.0
O79 O 0.19636 0.9875 0.69541 0.0
O80 O 0.12636 0.9907 0.67184 0.0
C81 C 0.30346 0.0422 0.7108 0.0
O82 O 0.2974 0.99788 0.70975 0.0
C83 C 0.14763 0.10464 0.62448 0.0
Zn84 Zn 0.91379 0.26032 0.5747 0.0
Zn85 Zn 0.93978 0.30856 0.63282 0.0
O86 O 0.94883 0.34437 0.5778 0.0
O87 O 0.90775 0.30845 0.53219 0.0
O88 O 0.93462 0.35573 0.67719 0.0
O89 O 0.8573 0.23164 0.59747 0.0
O90 O 0.8844 0.26817 0.65034 0.0
C91 C 0.93311 0.34168 0.54153 0.0
C92 C 0.00575 0.23907 0.61355 0.0
O93 O 0.99696 0.26989 0.63974 0.0
O94 O 0.97734 0.2309 0.58498 0.0
C95 C 0.91538 0.3936 0.66945 0.0
O96 O 0.90772 0.40495 0.63132 0.0
C97 C 0.8551 0.24095 0.63497 0.0
Zn98 Zn 0.84363 0.00139 0.68291 0.0
Zn99 Zn 0.75634 0.98845 0.67533 0.0
O100 O 0.77184 0.98436 0.61517 0.0
O101 O 0.84639 0.99388 0.6205 0.0
O102 O 0.689 0.97458 0.6804 0.0
O103 O 0.85553 0.94882 0.72009 0.0
O104 O 0.78352 0.93329 0.70723 0.0
C105 C 0.81105 0.98777 0.59856 0.0
C106 C 0.79729 0.08133 0.70255 0.0
O107 O 0.76359 0.05648 0.69154 0.0
O108 O 0.83675 0.06404 0.70556 0.0
C109 C 0.672 0.94266 0.659 0.0
O110 O 0.69772 0.92313 0.63122 0.0
C111 C 0.82161 0.92237 0.72349 0.0
Zn112 Zn 0.4767 0.72635 0.83412 0.0
Zn113 Zn 0.4952 0.78971 0.79574 0.0
O114 O 0.48891 0.81615 0.85491 0.0
O115 O 0.50595 0.75131 0.88431 0.0
O116 O 0.51399 0.84305 0.76114 0.0
O117 O 0.5131 0.68444 0.79738 0.0
O118 O 0.55178 0.74762 0.79011 0.0
C119 C 0.50098 0.79393 0.88656 0.0
C120 C 0.40426 0.74147 0.78841 0.0
O121 O 0.43754 0.75938 0.76894 0.0
O122 O 0.40909 0.73452 0.82613 0.0
C123 C 0.52568 0.83575 0.72441 0.0
O124 O 0.5192 0.79494 0.70902 0.0
C125 C 0.54953 0.70447 0.78674 0.0
Zn126 Zn 0.34269 0.49668 0.81535 0.0
Zn127 Zn 0.2556 0.51144 0.82431 0.0
O128 O 0.27212 0.51261 0.88439 0.0
O129 O 0.34595 0.4992 0.87812 0.0
O130 O 0.18905 0.5281 0.82124 0.0
O131 O 0.35571 0.55163 0.78103 0.0
O132 O 0.28341 0.56649 0.79288 0.0
C133 C 0.31115 0.5058 0.90057 0.0
C134 C 0.29267 0.41933 0.79263 0.0
O135 O 0.26011 0.44416 0.80581 0.0
O136 O 0.3324 0.43604 0.78909 0.0
C137 C 0.16494 0.51623 0.79078 0.0
O138 O 0.1824 0.48791 0.764 0.0
C139 C 0.32178 0.57796 0.77745 0.0
Zn140 Zn 0.41386 0.25326 0.91836 0.0
Zn141 Zn 0.44944 0.21137 0.85982 0.0
O142 O 0.46483 0.17575 0.91364 0.0
O143 O 0.42006 0.20468 0.96051 0.0
O144 O 0.44945 0.1656 0.81382 0.0
O145 O 0.35193 0.26952 0.89667 0.0
O146 O 0.38867 0.24334 0.84369 0.0
C147 C 0.4498 0.17575 0.95019 0.0
C148 C 0.49985 0.2929 0.87919 0.0
O149 O 0.49925 0.25949 0.85433 0.0
O150 O 0.46903 0.29599 0.90653 0.0
C151 C 0.43028 0.12747 0.82102 0.0
O152 O 0.42202 0.11601 0.85902 0.0
C153 C 0.35374 0.26312 0.85865 0.0
Zn154 Zn 0.67336 0.52494 0.8972 0.0
Zn155 Zn 0.72286 0.48418 0.84355 0.0
O156 O 0.76416 0.49043 0.89532 0.0
O157 O 0.72315 0.53172 0.93752 0.0
O158 O 0.76796 0.45655 0.80414 0.0
O159 O 0.63097 0.47026 0.89757 0.0
O160 O 0.67149 0.43577 0.85031 0.0
C161 C 0.76005 0.51158 0.92905 0.0
C162 C 0.67552 0.57657 0.82585 0.0
O163 O 0.69908 0.54272 0.8135 0.0
O164 O 0.66041 0.57761 0.86187 0.0
C165 C 0.79594 0.48141 0.78437 0.0
O166 O 0.79387 0.52588 0.78817 0.0
C167 C 0.63703 0.4364 0.87422 0.0
Zn168 Zn 0.52887 0.25467 0.13457 0.0
Zn169 Zn 0.54416 0.20055 0.18501 0.0
O170 O 0.53028 0.16736 0.1294 0.0
O171 O 0.5555 0.21962 0.08776 0.0
O172 O 0.56286 0.15136 0.22477 0.0
O173 O 0.56497 0.30336 0.16226 0.0
O174 O 0.60004 0.24507 0.18981 0.0
C175 C 0.54149 0.17944 0.09337 0.0
C176 C 0.45448 0.24816 0.18514 0.0
O177 O 0.48653 0.2328 0.2077 0.0
O178 O 0.46116 0.25104 0.14711 0.0
C179 C 0.56323 0.10894 0.21697 0.0
O180 O 0.54586 0.09443 0.18239 0.0
C181 C 0.59776 0.28774 0.18303 0.0
Zn182 Zn 0.7125 0.50518 0.13332 0.0
Zn183 Zn 0.77473 0.5151 0.17566 0.0
O184 O 0.80063 0.51651 0.11632 0.0
O185 O 0.7485 0.47154 0.09082 0.0
O186 O 0.82954 0.52728 0.21215 0.0
O187 O 0.69985 0.57218 0.12737 0.0
O188 O 0.7311 0.5703 0.18801 0.0
C189 C 0.7869 0.4909 0.08745 0.0
C190 C 0.70499 0.44269 0.19308 0.0
O191 O 0.7478 0.45144 0.19266 0.0
O192 O 0.67792 0.46915 0.17467 0.0
C193 C 0.87069 0.52808 0.19936 0.0
O194 O 0.87927 0.51746 0.16124 0.0
C195 C 0.7072 0.59114 0.16131 0.0
Zn196 Zn 0.4879 0.71659 0.10401 0.0
Zn197 Zn 0.49188 0.7858 0.14458 0.0
O198 O 0.49024 0.81121 0.08473 0.0
O199 O 0.50721 0.74753 0.05301 0.0
O200 O 0.48272 0.8411 0.17984 0.0
O201 O 0.4214 0.70343 0.11349 0.0
O202 O 0.43657 0.74728 0.16562 0.0
C203 C 0.50138 0.7901 0.05223 0.0
C204 C 0.56343 0.71396 0.15782 0.0
O205 O 0.55461 0.75647 0.15986 0.0
O206 O 0.53632 0.68753 0.13922 0.0
C207 C 0.48219 0.83479 0.21818 0.0
O208 O 0.49536 0.7951 0.23249 0.0
C209 C 0.41019 0.71894 0.14794 0.0
Zn210 Zn 0.37495 0.48872 0.15462 0.0
Zn211 Zn 0.28691 0.4762 0.15948 0.0
O212 O 0.2925 0.47916 0.09756 0.0
O213 O 0.36685 0.49027 0.0925 0.0
O214 O 0.2209 0.46014 0.17056 0.0
O215 O 0.39255 0.43222 0.18395 0.0
O216 O 0.31858 0.41869 0.18439 0.0
C217 C 0.32792 0.48589 0.07571 0.0
C218 C 0.33307 0.56391 0.1918 0.0
O219 O 0.29709 0.54164 0.1823 0.0
O220 O 0.37206 0.54653 0.18598 0.0
C221 C 0.19253 0.4828 0.19177 0.0
O222 O 0.20455 0.5229 0.20594 0.0
C223 C 0.35937 0.4065 0.19287 0.0
C224 C 0.16151 0.16726 0.29475 0.0
C225 C 0.16268 0.19375 0.33043 0.0
H226 H 0.18112 0.10381 0.26724 0.0
C227 C 0.19459 0.18317 0.36092 0.0
H228 H 0.13658 0.17442 0.27114 0.0
C229 C 0.22029 0.1433 0.35846 0.0
C230 C 0.21413 0.11321 0.32568 0.0
H231 H 0.19583 0.20293 0.3888 0.0
H232 H 0.24055 0.13319 0.38464 0.0
C233 C 0.1871 0.1269 0.29245 0.0
C234 C 0.94534 0.16428 0.27737 0.0
C235 C 0.93393 0.1962 0.30747 0.0
H236 H 0.93241 0.09742 0.25377 0.0
C237 C 0.8932 0.19063 0.32963 0.0
H238 H 0.97695 0.16763 0.26035 0.0
C239 C 0.8669 0.15115 0.32494 0.0
C240 C 0.88209 0.11618 0.29915 0.0
H241 H 0.88408 0.21471 0.35327 0.0
H242 H 0.83818 0.14564 0.34525 0.0
C243 C 0.91992 0.1241 0.27366 0.0
C244 C 0.81089 0.83941 0.33903 0.0
C245 C 0.8283 0.86245 0.30483 0.0
H246 H 0.82375 0.78668 0.38268 0.0
C247 C 0.85929 0.83971 0.27926 0.0
H248 H 0.78682 0.85612 0.3592 0.0
C249 C 0.87973 0.7992 0.29226 0.0
C250 C 0.86993 0.78202 0.3313 0.0
H251 H 0.87305 0.85674 0.25262 0.0
H252 H 0.90832 0.78602 0.27488 0.0
C253 C 0.83232 0.79969 0.35271 0.0
C254 C 0.08093 0.84255 0.28347 0.0
C255 C 0.09115 0.80354 0.3065 0.0
H256 H 0.10282 0.9089 0.26501 0.0
C257 C 0.13639 0.79662 0.31966 0.0
H258 H 0.04631 0.84858 0.27286 0.0
C259 C 0.16904 0.83145 0.31511 0.0
C260 C 0.15647 0.87329 0.29745 0.0
H261 H 0.14501 0.767 0.3378 0.0
H262 H 0.20202 0.82772 0.32985 0.0
C263 C 0.1133 0.87712 0.27897 0.0
C264 C 0.13012 0.85444 0.7194 0.0
C265 C 0.08409 0.85872 0.73123 0.0
H266 H 0.19066 0.89024 0.7006 0.0
C267 C 0.06829 0.90117 0.74495 0.0
H268 H 0.14317 0.82206 0.70873 0.0
C269 C 0.09549 0.93992 0.74063 0.0
C270 C 0.13884 0.93677 0.72252 0.0
H271 H 0.03313 0.90528 0.75478 0.0
H272 H 0.08037 0.97295 0.74651 0.0
C273 C 0.15749 0.89347 0.71506 0.0
C274 C 0.09792 0.15586 0.58367 0.0
C275 C 0.11916 0.14624 0.62114 0.0
H276 H 0.04603 0.1927 0.55204 0.0
C277 C 0.10698 0.17212 0.65556 0.0
H278 H 0.10686 0.13698 0.55645 0.0
C279 C 0.07162 0.2045 0.653 0.0
C280 C 0.04797 0.21117 0.61604 0.0
H281 H 0.12262 0.16533 0.68489 0.0
H282 H 0.06109 0.22228 0.68034 0.0
C283 C 0.0628 0.18773 0.58118 0.0
C284 C 0.84298 0.19897 0.70004 0.0
C285 C 0.82626 0.21216 0.66162 0.0
H286 H 0.84558 0.14565 0.74456 0.0
C287 C 0.78845 0.18891 0.64521 0.0
H288 H 0.87186 0.21645 0.71367 0.0
C289 C 0.77241 0.14904 0.66369 0.0
C290 C 0.79503 0.13128 0.69802 0.0
H291 H 0.77448 0.19877 0.6159 0.0
H292 H 0.74701 0.12896 0.64765 0.0
C293 C 0.82775 0.15845 0.71795 0.0
C294 C 0.86705 0.86598 0.76312 0.0
C295 C 0.83031 0.87505 0.73669 0.0
H296 H 0.92163 0.82056 0.77784 0.0
C297 C 0.81164 0.83907 0.71385 0.0
H298 H 0.8817 0.893 0.78147 0.0
C299 C 0.83505 0.79764 0.71121 0.0
C300 C 0.87678 0.79174 0.73191 0.0
H301 H 0.78309 0.84494 0.69342 0.0
H302 H 0.82415 0.77304 0.68857 0.0
C303 C 0.88974 0.82416 0.76126 0.0
C304 C 0.58655 0.63213 0.76522 0.0
C305 C 0.59091 0.67673 0.78027 0.0
H306 H 0.6134 0.56435 0.76623 0.0
C307 C 0.63231 0.69004 0.79849 0.0
H308 H 0.55502 0.62118 0.75081 0.0
C309 C 0.66542 0.6573 0.80778 0.0
C310 C 0.65791 0.61136 0.79794 0.0
H311 H 0.63656 0.7242 0.81038 0.0
H312 H 0.69399 0.66687 0.82706 0.0
C313 C 0.62021 0.59969 0.77362 0.0
C314 C 0.32838 0.70414 0.78657 0.0
C315 C 0.37084 0.7119 0.76765 0.0
H316 H 0.27818 0.65452 0.80348 0.0
C317 C 0.38801 0.67884 0.74079 0.0
H318 H 0.31446 0.72912 0.80746 0.0
C319 C 0.36814 0.63551 0.73958 0.0
C320 C 0.33006 0.62539 0.76417 0.0
H321 H 0.42073 0.68383 0.72587 0.0
H322 H 0.38557 0.60868 0.72311 0.0
C323 C 0.30781 0.66116 0.78453 0.0
C324 C 0.32191 0.34259 0.77506 0.0
C325 C 0.28948 0.36928 0.79568 0.0
H326 H 0.36724 0.28578 0.77878 0.0
C327 C 0.2672 0.35069 0.82987 0.0
H328 H 0.33917 0.35583 0.74831 0.0
C329 C 0.28419 0.31112 0.84812 0.0
C330 C 0.32273 0.28924 0.83166 0.0
H331 H 0.24168 0.37019 0.84622 0.0
H332 H 0.27077 0.30102 0.87757 0.0
C333 C 0.33822 0.30248 0.79281 0.0
C334 C 0.60533 0.36162 0.8477 0.0
C335 C 0.60313 0.39854 0.87503 0.0
H336 H 0.57438 0.29912 0.82728 0.0
C337 C 0.56713 0.39981 0.90342 0.0
H338 H 0.63257 0.3596 0.8254 0.0
C339 C 0.53414 0.36553 0.90448 0.0
C340 C 0.53587 0.32872 0.87715 0.0
H341 H 0.56416 0.42753 0.92503 0.0
H342 H 0.50703 0.36817 0.92687 0.0
C343 C 0.57195 0.32704 0.84872 0.0
C344 C 0.64206 0.39784 0.22287 0.0
C345 C 0.68632 0.39848 0.20633 0.0
H346 H 0.57926 0.36102 0.22865 0.0
C347 C 0.70508 0.35775 0.19119 0.0
H348 H 0.62682 0.42882 0.23456 0.0
C349 C 0.67759 0.31863 0.1877 0.0
C350 C 0.6314 0.32026 0.19942 0.0
H351 H 0.73892 0.35762 0.17769 0.0
H352 H 0.69091 0.28904 0.172 0.0
C353 C 0.61479 0.35913 0.21928 0.0
C354 C 0.6452 0.70068 0.14351 0.0
C355 C 0.60798 0.69515 0.17006 0.0
H356 H 0.70686 0.67111 0.12 0.0
C357 C 0.60964 0.6608 0.19985 0.0
H358 H 0.64406 0.72618 0.11963 0.0
C359 C 0.6462 0.62998 0.20077 0.0
C360 C 0.68067 0.63234 0.17103 0.0
H361 H 0.58073 0.65527 0.21994 0.0
H362 H 0.64471 0.60138 0.22163 0.0
C363 C 0.68102 0.66909 0.14362 0.0
C364 C 0.38575 0.67529 0.20863 0.0
C365 C 0.37436 0.6945 0.17075 0.0
H366 H 0.37935 0.61631 0.24661 0.0
C367 C 0.33578 0.67814 0.14982 0.0
H368 H 0.41532 0.68738 0.22541 0.0
C369 C 0.31396 0.63835 0.16292 0.0
C370 C 0.332 0.61374 0.19594 0.0
H371 H 0.3262 0.69268 0.12066 0.0
H372 H 0.28858 0.62301 0.14308 0.0
C373 C 0.36491 0.63466 0.22098 0.0
C374 C 0.35276 0.32328 0.18199 0.0
C375 C 0.36989 0.3595 0.20536 0.0
H376 H 0.36697 0.25715 0.15755 0.0
C377 C 0.40669 0.35161 0.232 0.0
H378 H 0.32454 0.32862 0.16109 0.0
C379 C 0.43012 0.31017 0.23093 0.0
C380 C 0.4179 0.27693 0.20214 0.0
H381 H 0.42039 0.37912 0.25034 0.0
H382 H 0.46159 0.30709 0.24821 0.0
C383 C 0.37701 0.28229 0.18003 0.0
C384 C 0.1076 0.38966 0.21602 0.0
C385 C 0.08312 0.40904 0.24852 0.0
H386 H 0.1609 0.39803 0.17208 0.0
C387 C 0.08964 0.45545 0.25741 0.0
H388 H 0.10294 0.35418 0.20797 0.0
C389 C 0.12315 0.48068 0.23686 0.0
C390 C 0.15059 0.45998 0.20697 0.0
H391 H 0.07101 0.47159 0.28201 0.0
H392 H 0.12932 0.51554 0.24614 0.0
C393 C 0.14091 0.41486 0.19542 0.0
C394 C 0.64661 0.06869 0.29739 0.0
C395 C 0.65929 0.02584 0.28202 0.0
H396 H 0.60582 0.12839 0.28919 0.0
C397 C 0.63498 0.00785 0.2487 0.0
H398 H 0.66427 0.08338 0.32329 0.0
C399 C 0.60127 0.03368 0.22916 0.0
C400 C 0.59132 0.07807 0.24249 0.0
H401 H 0.64352 0.97474 0.23636 0.0
H402 H 0.5849 0.01977 0.20226 0.0
C403 C 0.61303 0.09454 0.27781 0.0
C404 C 0.90057 0.55367 0.26717 0.0
C405 C 0.90706 0.54837 0.22501 0.0
H406 H 0.92376 0.5852 0.32218 0.0
C407 C 0.94647 0.56705 0.20688 0.0
H408 H 0.87078 0.53928 0.28206 0.0
C409 C 0.97658 0.5939 0.22975 0.0
C410 C 0.96829 0.60188 0.27131 0.0
H411 H 0.95259 0.56339 0.17448 0.0
H412 H 0.00507 0.61022 0.21444 0.0
C413 C 0.93112 0.57981 0.29018 0.0
C414 C 0.39832 0.92511 0.25225 0.0
C415 C 0.39243 0.91353 0.29352 0.0
H416 H 0.43209 0.9098 0.19598 0.0
C417 C 0.42155 0.88078 0.31094 0.0
H418 H 0.37675 0.95051 0.23797 0.0
C419 C 0.45326 0.85749 0.28692 0.0
C420 C 0.45665 0.86646 0.24494 0.0
H421 H 0.41839 0.87145 0.34277 0.0
H422 H 0.47343 0.83077 0.30089 0.0
C423 C 0.43019 0.90185 0.22819 0.0
C424 C 0.09686 0.53051 0.74616 0.0
C425 C 0.12285 0.5419 0.78077 0.0
H426 H 0.04554 0.55163 0.7036 0.0
C427 C 0.1119 0.58172 0.80244 0.0
H428 H 0.10415 0.49985 0.72902 0.0
C429 C 0.07865 0.61159 0.78767 0.0
C430 C 0.05529 0.602 0.7512 0.0
H431 H 0.131 0.59138 0.82941 0.0
H432 H 0.07289 0.64328 0.80374 0.0
C433 C 0.0632 0.56018 0.73162 0.0
C434 C 0.3926 0.05745 0.79362 0.0
C435 C 0.40548 0.10317 0.78822 0.0
H436 H 0.35076 0.00211 0.77299 0.0
C437 C 0.3878 0.12739 0.75475 0.0
H438 H 0.40554 0.03805 0.81925 0.0
C439 C 0.35549 0.10721 0.72888 0.0
C440 C 0.34097 0.06214 0.73546 0.0
H441 H 0.39664 0.16285 0.75004 0.0
H442 H 0.34097 0.12732 0.70439 0.0
C443 C 0.36108 0.03697 0.76722 0.0
C444 C 0.87506 0.39466 0.73656 0.0
C445 C 0.8911 0.41833 0.70212 0.0
H446 H 0.83152 0.39583 0.78909 0.0
C447 C 0.87805 0.46393 0.6965 0.0
H448 H 0.88411 0.35933 0.74151 0.0
C449 C 0.84835 0.485 0.72408 0.0
C450 C 0.83025 0.46046 0.75716 0.0
H451 H 0.88977 0.48289 0.67014 0.0
H452 H 0.83809 0.5199 0.71853 0.0
C453 C 0.84451 0.41537 0.76354 0.0
C454 C 0.60507 0.93545 0.7064 0.0
C455 C 0.6279 0.92151 0.67082 0.0
H456 H 0.5542 0.9195 0.75113 0.0
C457 C 0.61138 0.88334 0.64954 0.0
H458 H 0.61663 0.96497 0.72334 0.0
C459 C 0.57552 0.85729 0.66545 0.0
C460 C 0.55551 0.86884 0.703 0.0
H461 H 0.62781 0.872 0.62175 0.0
H462 H 0.56543 0.8266 0.64948 0.0
C463 C 0.56923 0.90935 0.72235 0.0
C464 C 0.96076 0.3652 0.43362 0.0
C465 C 0.00852 0.36113 0.43648 0.0
H466 H 0.89765 0.36294 0.4667 0.0
C467 C 0.02971 0.36961 0.47419 0.0
H468 H 0.94356 0.35887 0.40489 0.0
C469 C 0.00336 0.37275 0.50967 0.0
C470 C 0.95575 0.36622 0.50765 0.0
H471 H 0.06655 0.36682 0.4771 0.0
H472 H 0.0209 0.37257 0.53879 0.0
C473 C 0.93438 0.36728 0.46919 0.0
C474 C 0.77607 0.9894 0.52871 0.0
C475 C 0.81525 0.98717 0.55355 0.0
H476 H 0.74932 0.99346 0.46802 0.0
C477 C 0.85859 0.98643 0.53497 0.0
H478 H 0.74216 0.99021 0.54203 0.0
C479 C 0.86267 0.98815 0.49255 0.0
C480 C 0.82353 0.99106 0.46772 0.0
H481 H 0.88947 0.98474 0.55319 0.0
H482 H 0.8966 0.98763 0.47927 0.0
C483 C 0.78017 0.99153 0.48626 0.0
C484 C 0.06503 0.72828 0.55192 0.0
C485 C 0.02916 0.71008 0.57516 0.0
H486 H 0.08995 0.74329 0.4922 0.0
C487 C 0.9955 0.68349 0.55583 0.0
H488 H 0.09123 0.74902 0.56621 0.0
C489 C 0.99463 0.68031 0.51308 0.0
C490 C 0.02741 0.70376 0.48974 0.0
H491 H 0.96716 0.66969 0.57322 0.0
H492 H 0.96564 0.66411 0.49841 0.0
C493 C 0.06424 0.72504 0.50958 0.0
C494 C 0.28453 0.00471 0.52258 0.0
C495 C 0.26132 0.97279 0.54696 0.0
H496 H 0.30304 0.02365 0.46155 0.0
C497 C 0.25074 0.92987 0.53053 0.0
H498 H 0.29315 0.03802 0.53453 0.0
C499 C 0.25617 0.92179 0.48898 0.0
C500 C 0.27274 0.95632 0.46338 0.0
H501 H 0.2335 0.90435 0.54885 0.0
H502 H 0.24271 0.89048 0.47621 0.0
C503 C 0.2903 0.99643 0.48079 0.0
C504 C 0.54658 0.80727 0.94832 0.0
C505 C 0.50572 0.81492 0.92697 0.0
H506 H 0.5773 0.795 0.00647 0.0
C507 C 0.46634 0.82775 0.94864 0.0
H508 H 0.57715 0.79671 0.9322 0.0
C509 C 0.4664 0.8267 0.99144 0.0
C510 C 0.50585 0.81287 0.01253 0.0
H511 H 0.43423 0.83283 0.93275 0.0
H512 H 0.43434 0.83101 0.00757 0.0
C513 C 0.54665 0.80629 0.99082 0.0
C514 C 0.27627 0.50043 0.97032 0.0
C515 C 0.31549 0.50245 0.94552 0.0
H516 H 0.24936 0.493 0.03066 0.0
C517 C 0.3588 0.49876 0.96393 0.0
H518 H 0.24237 0.50285 0.95713 0.0
C519 C 0.3628 0.49315 0.00612 0.0
C520 C 0.32358 0.49069 0.03087 0.0
H521 H 0.38971 0.50004 0.94574 0.0
H522 H 0.39671 0.49054 0.01928 0.0
C523 C 0.28027 0.49443 0.01248 0.0
C524 C 0.47742 0.14258 0.05674 0.0
C525 C 0.52387 0.15502 0.05734 0.0
H526 H 0.41635 0.13916 0.02065 0.0
C527 C 0.54751 0.1587 0.02019 0.0
H528 H 0.45829 0.13973 0.08493 0.0
C529 C 0.52364 0.15711 0.98322 0.0
C530 C 0.47569 0.15325 0.9832 0.0
H531 H 0.58333 0.16833 0.01989 0.0
H532 H 0.54184 0.16564 0.95546 0.0
C533 C 0.4533 0.14235 0.01986 0.0
C534 C 0.79743 0.4613 0.97875 0.0
C535 C 0.79273 0.50523 0.96254 0.0
H536 H 0.80004 0.42189 0.03363 0.0
C537 C 0.8037 0.54297 0.98697 0.0
H538 H 0.78889 0.43173 0.96049 0.0
C539 C 0.81124 0.53727 0.02874 0.0
C540 C 0.80644 0.49394 0.04627 0.0
H541 H 0.80016 0.57718 0.97499 0.0
H542 H 0.81328 0.56732 0.04783 0.0
C543 C 0.8037 0.45567 0.02069 0.0
loop_
_geom_bond_atom_site_label_1
_geom_bond_atom_site_label_2
_geom_bond_distance
_geom_bond_site_symmetry_2
_ccdc_geom_bond_type
Zn0 O3 2.031 1_455 S
Zn0 O5 2.049 . S
Zn0 O10 2.067 1_455 S
Zn1 O2 1.962 . S
Zn1 O4 1.986 . S
Zn1 O6 1.996 . S
Zn1 O9 1.943 1_455 S
O2 Zn1 1.962 . S
O2 C7 1.254 . S
O3 Zn0 2.031 1_655 S
O3 C7 1.269 1_655 S
O4 Zn1 1.986 . S
O4 C11 1.262 . S
O5 Zn0 2.049 . S
O5 C13 1.260 . S
O6 Zn1 1.996 . S
O6 C13 1.257 . S
C7 O2 1.254 . S
C7 O3 1.269 1_455 S
C8 O9 1.249 . S
C8 O10 1.270 . S
O9 Zn1 1.943 1_655 S
O9 C8 1.249 . S
O10 Zn0 2.067 1_655 S
O10 C8 1.270 . S
C11 O4 1.262 . S
C11 O12 1.232 . S
O12 C11 1.232 . S
C13 O5 1.260 . S
C13 O6 1.257 . S
Zn14 O17 2.031 1_545 S
Zn14 O19 2.049 . S
Zn14 O24 2.067 1_545 S
Zn15 O16 1.962 . S
Zn15 O18 1.986 . S
Zn15 O20 1.996 . S
Zn15 O23 1.943 1_545 S
O16 Zn15 1.962 . S
O16 C21 1.254 . S
O17 Zn14 2.031 1_565 S
O17 C21 1.269 1_565 S
O18 Zn15 1.986 . S
O18 C25 1.262 . S
O19 Zn14 2.049 . S
O19 C27 1.260 . S
O20 Zn15 1.996 . S
O20 C27 1.257 . S
C21 O16 1.254 . S
C21 O17 1.269 1_545 S
C22 O23 1.249 . S
C22 O24 1.270 . S
O23 Zn15 1.943 1_565 S
O23 C22 1.249 . S
O24 Zn14 2.067 1_565 S
O24 C22 1.270 . S
C25 O18 1.262 . S
C25 O26 1.232 . S
O26 C25 1.232 . S
C27 O19 1.260 . S
C27 O20 1.257 . S
Zn28 O31 2.031 1_655 S
Zn28 O33 2.049 . S
Zn28 O38 2.067 1_655 S
Zn29 O30 1.962 . S
Zn29 O32 1.986 . S
Zn29 O34 1.996 . S
Zn29 O37 1.943 1_655 S
O30 Zn29 1.962 . S
O30 C35 1.254 . S
O31 Zn28 2.031 1_455 S
O31 C35 1.269 1_455 S
O32 Zn29 1.986 . S
O32 C39 1.262 . S
O33 Zn28 2.049 . S
O33 C41 1.260 . S
O34 Zn29 1.996 . S
O34 C41 1.257 . S
C35 O30 1.254 . S
C35 O31 1.269 1_655 S
C36 O37 1.249 . S
C36 O38 1.270 . S
O37 Zn29 1.943 1_455 S
O37 C36 1.249 . S
O38 Zn28 2.067 1_455 S
O38 C36 1.270 . S
C39 O32 1.262 . S
C39 O40 1.232 . S
O40 C39 1.232 . S
C41 O33 1.260 . S
C41 O34 1.257 . S
Zn42 O45 2.031 1_565 S
Zn42 O47 2.049 . S
Zn42 O52 2.067 1_565 S
Zn43 O44 1.962 . S
Zn43 O46 1.986 . S
Zn43 O48 1.996 . S
Zn43 O51 1.943 1_565 S
O44 Zn43 1.962 . S
O44 C49 1.254 . S
O45 Zn42 2.031 1_545 S
O45 C49 1.269 1_545 S
O46 Zn43 1.986 . S
O46 C53 1.262 . S
O47 Zn42 2.049 . S
O47 C55 1.260 . S
O48 Zn43 1.996 . S
O48 C55 1.257 . S
C49 O44 1.254 . S
C49 O45 1.269 1_565 S
C50 O51 1.249 . S
C50 O52 1.270 . S
O51 Zn43 1.943 1_545 S
O51 C50 1.249 . S
O52 Zn42 2.067 1_545 S
O52 C50 1.270 . S
C53 O46 1.262 . S
C53 O54 1.232 . S
O54 C53 1.232 . S
C55 O47 1.260 . S
C55 O48 1.257 . S
Zn56 O59 2.031 1_455 S
Zn56 O61 2.049 . S
Zn56 O66 2.067 1_455 S
Zn57 O58 1.962 . S
Zn57 O60 1.986 . S
Zn57 O62 1.996 . S
Zn57 O65 1.943 1_455 S
O58 Zn57 1.962 . S
O58 C63 1.254 . S
O59 Zn56 2.031 1_655 S
O59 C63 1.269 1_655 S
O60 Zn57 1.986 . S
O60 C67 1.262 . S
O61 Zn56 2.049 . S
O61 C69 1.260 . S
O62 Zn57 1.996 . S
O62 C69 1.257 . S
C63 O58 1.254 . S
C63 O59 1.269 1_455 S
C64 O65 1.249 . S
C64 O66 1.270 . S
O65 Zn57 1.943 1_655 S
O65 C64 1.249 . S
O66 Zn56 2.067 1_655 S
O66 C64 1.270 . S
C67 O60 1.262 . S
C67 O68 1.232 . S
O68 C67 1.232 . S
C69 O61 1.260 . S
C69 O62 1.257 . S
Zn70 O73 2.031 1_545 S
Zn70 O75 2.049 . S
Zn70 O80 2.067 1_545 S
Zn71 O72 1.962 . S
Zn71 O74 1.986 . S
Zn71 O76 1.996 . S
Zn71 O79 1.943 1_545 S
O72 Zn71 1.962 . S
O72 C77 1.254 . S
O73 Zn70 2.031 1_565 S
O73 C77 1.269 1_565 S
O74 Zn71 1.986 . S
O74 C81 1.262 . S
O75 Zn70 2.049 . S
O75 C83 1.260 . S
O76 Zn71 1.996 . S
O76 C83 1.257 . S
C77 O72 1.254 . S
C77 O73 1.269 1_545 S
C78 O79 1.249 . S
C78 O80 1.270 . S
O79 Zn71 1.943 1_565 S
O79 C78 1.249 . S
O80 Zn70 2.067 1_565 S
O80 C78 1.270 . S
C81 O74 1.262 . S
C81 O82 1.232 . S
O82 C81 1.232 . S
C83 O75 1.260 . S
C83 O76 1.257 . S
Zn84 O87 2.031 1_655 S
Zn84 O89 2.049 . S
Zn84 O94 2.067 1_655 S
Zn85 O86 1.962 . S
Zn85 O88 1.986 . S
Zn85 O90 1.996 . S
Zn85 O93 1.943 1_655 S
O86 Zn85 1.962 . S
O86 C91 1.254 . S
O87 Zn84 2.031 1_455 S
O87 C91 1.269 1_455 S
O88 Zn85 1.986 . S
O88 C95 1.262 . S
O89 Zn84 2.049 . S
O89 C97 1.260 . S
O90 Zn85 1.996 . S
O90 C97 1.257 . S
C91 O86 1.254 . S
C91 O87 1.269 1_655 S
C92 O93 1.249 . S
C92 O94 1.270 . S
O93 Zn85 1.943 1_455 S
O93 C92 1.249 . S
O94 Zn84 2.067 1_455 S
O94 C92 1.270 . S
C95 O88 1.262 . S
C95 O96 1.232 . S
O96 C95 1.232 . S
C97 O89 1.260 . S
C97 O90 1.257 . S
Zn98 O101 2.031 1_565 S
Zn98 O103 2.049 . S
Zn98 O108 2.067 1_565 S
Zn99 O100 1.962 . S
Zn99 O102 1.986 . S
Zn99 O104 1.996 . S
Zn99 O107 1.943 1_565 S
O100 Zn99 1.962 . S
O100 C105 1.254 . S
O101 Zn98 2.031 1_545 S
O101 C105 1.269 1_545 S
O102 Zn99 1.986 . S
O102 C109 1.262 . S
O103 Zn98 2.049 . S
O103 C111 1.260 . S
O104 Zn99 1.996 . S
O104 C111 1.257 . S
C105 O100 1.254 . S
C105 O101 1.269 1_565 S
C106 O107 1.249 . S
C106 O108 1.270 . S
O107 Zn99 1.943 1_545 S
O107 C106 1.249 . S
O108 Zn98 2.067 1_545 S
O108 C106 1.270 . S
C109 O102 1.262 . S
C109 O110 1.232 . S
O110 C109 1.232 . S
C111 O103 1.260 . S
C111 O104 1.257 . S
Zn112 O115 2.031 . S
Zn112 O117 2.049 . S
Zn112 O122 2.067 . S
Zn113 O114 1.962 . S
Zn113 O116 1.986 . S
Zn113 O118 1.996 . S
Zn113 O121 1.943 . S
O114 Zn113 1.962 . S
O114 C119 1.254 . S
O115 Zn112 2.031 . S
O115 C119 1.269 . S
O116 Zn113 1.986 . S
O116 C123 1.262 . S
O117 Zn112 2.049 . S
O117 C125 1.260 . S
O118 Zn113 1.996 . S
O118 C125 1.257 . S
C119 O114 1.254 . S
C119 O115 1.269 . S
C120 O121 1.249 . S
C120 O122 1.270 . S
O121 Zn113 1.943 . S
O121 C120 1.249 . S
O122 Zn112 2.067 . S
O122 C120 1.270 . S
C123 O116 1.262 . S
C123 O124 1.232 . S
O124 C123 1.232 . S
C125 O117 1.260 . S
C125 O118 1.257 . S
Zn126 O129 2.031 . S
Zn126 O131 2.049 . S
Zn126 O136 2.067 . S
Zn127 O128 1.962 . S
Zn127 O130 1.986 . S
Zn127 O132 1.996 . S
Zn127 O135 1.943 . S
O128 Zn127 1.962 . S
O128 C133 1.254 . S
O129 Zn126 2.031 . S
O129 C133 1.269 . S
O130 Zn127 1.986 . S
O130 C137 1.262 . S
O131 Zn126 2.049 . S
O131 C139 1.260 . S
O132 Zn127 1.996 . S
O132 C139 1.257 . S
C133 O128 1.254 . S
C133 O129 1.269 . S
C134 O135 1.249 . S
C134 O136 1.270 . S
O135 Zn127 1.943 . S
O135 C134 1.249 . S
O136 Zn126 2.067 . S
O136 C134 1.270 . S
C137 O130 1.262 . S
C137 O138 1.232 . S
O138 C137 1.232 . S
C139 O131 1.260 . S
C139 O132 1.257 . S
Zn140 O143 2.031 . S
Zn140 O145 2.049 . S
Zn140 O150 2.067 . S
Zn141 O142 1.962 . S
Zn141 O144 1.986 . S
Zn141 O146 1.996 . S
Zn141 O149 1.943 . S
O142 Zn141 1.962 . S
O142 C147 1.254 . S
O143 Zn140 2.031 . S
O143 C147 1.269 . S
O144 Zn141 1.986 . S
O144 C151 1.262 . S
O145 Zn140 2.049 . S
O145 C153 1.260 . S
O146 Zn141 1.996 . S
O146 C153 1.257 . S
C147 O142 1.254 . S
C147 O143 1.269 . S
C148 O149 1.249 . S
C148 O150 1.270 . S
O149 Zn141 1.943 . S
O149 C148 1.249 . S
O150 Zn140 2.067 . S
O150 C148 1.270 . S
C151 O144 1.262 . S
C151 O152 1.232 . S
O152 C151 1.232 . S
C153 O145 1.260 . S
C153 O146 1.257 . S
Zn154 O157 2.031 . S
Zn154 O159 2.049 . S
Zn154 O164 2.067 . S
Zn155 O156 1.962 . S
Zn155 O158 1.986 . S
Zn155 O160 1.996 . S
Zn155 O163 1.943 . S
O156 Zn155 1.962 . S
O156 C161 1.254 . S
O157 Zn154 2.031 . S
O157 C161 1.269 . S
O158 Zn155 1.986 . S
O158 C165 1.262 . S
O159 Zn154 2.049 . S
O159 C167 1.260 . S
O160 Zn155 1.996 . S
O160 C167 1.257 . S
C161 O156 1.254 . S
C161 O157 1.269 . S
C162 O163 1.249 . S
C162 O164 1.270 . S
O163 Zn155 1.943 . S
O163 C162 1.249 . S
O164 Zn154 2.067 . S
O164 C162 1.270 . S
C165 O158 1.262 . S
C165 O166 1.232 . S
O166 C165 1.232 . S
C167 O159 1.260 . S
C167 O160 1.257 . S
Zn168 O171 2.031 . S
Zn168 O173 2.049 . S
Zn168 O178 2.067 . S
Zn169 O170 1.962 . S
Zn169 O172 1.986 . S
Zn169 O174 1.996 . S
Zn169 O177 1.943 . S
O170 Zn169 1.962 . S
O170 C175 1.254 . S
O171 Zn168 2.031 . S
O171 C175 1.269 . S
O172 Zn169 1.986 . S
O172 C179 1.262 . S
O173 Zn168 2.049 . S
O173 C181 1.260 . S
O174 Zn169 1.996 . S
O174 C181 1.257 . S
C175 O170 1.254 . S
C175 O171 1.269 . S
C176 O177 1.249 . S
C176 O178 1.270 . S
O177 Zn169 1.943 . S
O177 C176 1.249 . S
O178 Zn168 2.067 . S
O178 C176 1.270 . S
C179 O172 1.262 . S
C179 O180 1.232 . S
O180 C179 1.232 . S
C181 O173 1.260 . S
C181 O174 1.257 . S
Zn182 O185 2.031 . S
Zn182 O187 2.049 . S
Zn182 O192 2.067 . S
Zn183 O184 1.962 . S
Zn183 O186 1.986 . S
Zn183 O188 1.996 . S
Zn183 O191 1.943 . S
O184 Zn183 1.962 . S
O184 C189 1.254 . S
O185 Zn182 2.031 . S
O185 C189 1.269 . S
O186 Zn183 1.986 . S
O186 C193 1.262 . S
O187 Zn182 2.049 . S
O187 C195 1.260 . S
O188 Zn183 1.996 . S
O188 C195 1.257 . S
C189 O184 1.254 . S
C189 O185 1.269 . S
C190 O191 1.249 . S
C190 O192 1.270 . S
O191 Zn183 1.943 . S
O191 C190 1.249 . S
O192 Zn182 2.067 . S
O192 C190 1.270 . S
C193 O186 1.262 . S
C193 O194 1.232 . S
O194 C193 1.232 . S
C195 O187 1.260 . S
C195 O188 1.257 . S
Zn196 O199 2.031 . S
Zn196 O201 2.049 . S
Zn196 O206 2.067 . S
Zn197 O198 1.962 . S
Zn197 O200 1.986 . S
Zn197 O202 1.996 . S
Zn197 O205 1.943 . S
O198 Zn197 1.962 . S
O198 C203 1.254 . S
O199 Zn196 2.031 . S
O199 C203 1.269 . S
O200 Zn197 1.986 . S
O200 C207 1.262 . S
O201 Zn196 2.049 . S
O201 C209 1.260 . S
O202 Zn197 1.996 . S
O202 C209 1.257 . S
C203 O198 1.254 . S
C203 O199 1.269 . S
C204 O205 1.249 . S
C204 O206 1.270 . S
O205 Zn197 1.943 . S
O205 C204 1.249 . S
O206 Zn196 2.067 . S
O206 C204 1.270 . S
C207 O200 1.262 . S
C207 O208 1.232 . S
O208 C207 1.232 . S
C209 O201 1.260 . S
C209 O202 1.257 . S
Zn210 O213 2.031 . S
Zn210 O215 2.049 . S
Zn210 O220 2.067 . S
Zn211 O212 1.962 . S
Zn211 O214 1.986 . S
Zn211 O216 1.996 . S
Zn211 O219 1.943 . S
O212 Zn211 1.962 . S
O212 C217 1.254 . S
O213 Zn210 2.031 . S
O213 C217 1.269 . S
O214 Zn211 1.986 . S
O214 C221 1.262 . S
O215 Zn210 2.049 . S
O215 C223 1.260 . S
O216 Zn211 1.996 . S
O216 C223 1.257 . S
C217 O212 1.254 . S
C217 O213 1.269 . S
C218 O219 1.249 . S
C218 O220 1.270 . S
O219 Zn211 1.943 . S
O219 C218 1.249 . S
O220 Zn210 2.067 . S
O220 C218 1.270 . S
C221 O214 1.262 . S
C221 O222 1.232 . S
O222 C221 1.232 . S
C223 O215 1.260 . S
C223 O216 1.257 . S
C224 C225 1.387 . S
C224 H228 0.950 . S
C224 C233 1.390 . S
C225 C224 1.387 . S
C225 C227 1.387 . S
H226 C233 0.950 . S
C227 C225 1.387 . S
C227 C229 1.390 . S
C227 H231 0.950 . S
H228 C224 0.950 . S
C229 C227 1.390 . S
C229 C230 1.387 . S
C229 H232 0.950 . S
C230 C229 1.387 . S
C230 C233 1.387 . S
H231 C227 0.950 . S
H232 C229 0.950 . S
C233 C224 1.390 . S
C233 H226 0.950 . S
C233 C230 1.387 . S
C234 C235 1.387 . S
C234 H238 0.950 . S
C234 C243 1.390 . S
C235 C234 1.387 . S
C235 C237 1.387 . S
H236 C243 0.950 . S
C237 C235 1.387 . S
C237 C239 1.390 . S
C237 H241 0.950 . S
H238 C234 0.950 . S
C239 C237 1.390 . S
C239 C240 1.387 . S
C239 H242 0.950 . S
C240 C239 1.387 . S
C240 C243 1.387 . S
H241 C237 0.950 . S
H242 C239 0.950 . S
C243 C234 1.390 . S
C243 H236 0.950 . S
C243 C240 1.387 . S
C244 C245 1.387 . S
C244 H248 0.950 . S
C244 C253 1.390 . S
C245 C244 1.387 . S
C245 C247 1.387 . S
H246 C253 0.950 . S
C247 C245 1.387 . S
C247 C249 1.390 . S
C247 H251 0.950 . S
H248 C244 0.950 . S
C249 C247 1.390 . S
C249 C250 1.387 . S
C249 H252 0.950 . S
C250 C249 1.387 . S
C250 C253 1.387 . S
H251 C247 0.950 . S
H252 C249 0.950 . S
C253 C244 1.390 . S
C253 H246 0.950 . S
C253 C250 1.387 . S
C254 C255 1.387 . S
C254 H258 0.950 . S
C254 C263 1.390 . S
C255 C254 1.387 . S
C255 C257 1.387 . S
H256 C263 0.950 . S
C257 C255 1.387 . S
C257 C259 1.390 . S
C257 H261 0.950 . S
H258 C254 0.950 . S
C259 C257 1.390 . S
C259 C260 1.387 . S
C259 H262 0.950 . S
C260 C259 1.387 . S
C260 C263 1.387 . S
H261 C257 0.950 . S
H262 C259 0.950 . S
C263 C254 1.390 . S
C263 H256 0.950 . S
C263 C260 1.387 . S
C264 C265 1.387 . S
C264 H268 0.950 . S
C264 C273 1.390 . S
C265 C264 1.387 . S
C265 C267 1.387 . S
H266 C273 0.950 . S
C267 C265 1.387 . S
C267 C269 1.390 . S
C267 H271 0.950 . S
H268 C264 0.950 . S
C269 C267 1.390 . S
C269 C270 1.387 . S
C269 H272 0.950 . S
C270 C269 1.387 . S
C270 C273 1.387 . S
H271 C267 0.950 . S
H272 C269 0.950 . S
C273 C264 1.390 . S
C273 H266 0.950 . S
C273 C270 1.387 . S
C274 C275 1.387 . S
C274 H278 0.950 . S
C274 C283 1.390 . S
C275 C274 1.387 . S
C275 C277 1.387 . S
H276 C283 0.950 . S
C277 C275 1.387 . S
C277 C279 1.390 . S
C277 H281 0.950 . S
H278 C274 0.950 . S
C279 C277 1.390 . S
C279 C280 1.387 . S
C279 H282 0.950 . S
C280 C279 1.387 . S
C280 C283 1.387 . S
H281 C277 0.950 . S
H282 C279 0.950 . S
C283 C274 1.390 . S
C283 H276 0.950 . S
C283 C280 1.387 . S
C284 C285 1.387 . S
C284 H288 0.950 . S
C284 C293 1.390 . S
C285 C284 1.387 . S
C285 C287 1.387 . S
H286 C293 0.950 . S
C287 C285 1.387 . S
C287 C289 1.390 . S
C287 H291 0.950 . S
H288 C284 0.950 . S
C289 C287 1.390 . S
C289 C290 1.387 . S
C289 H292 0.950 . S
C290 C289 1.387 . S
C290 C293 1.387 . S
H291 C287 0.950 . S
H292 C289 0.950 . S
C293 C284 1.390 . S
C293 H286 0.950 . S
C293 C290 1.387 . S
C294 C295 1.387 . S
C294 H298 0.950 . S
C294 C303 1.390 . S
C295 C294 1.387 . S
C295 C297 1.387 . S
H296 C303 0.950 . S
C297 C295 1.387 . S
C297 C299 1.390 . S
C297 H301 0.950 . S
H298 C294 0.950 . S
C299 C297 1.390 . S
C299 C300 1.387 . S
C299 H302 0.950 . S
C300 C299 1.387 . S
C300 C303 1.387 . S
H301 C297 0.950 . S
H302 C299 0.950 . S
C303 C294 1.390 . S
C303 H296 0.950 . S
C303 C300 1.387 . S
C304 C305 1.387 . S
C304 H308 0.950 . S
C304 C313 1.390 . S
C305 C304 1.387 . S
C305 C307 1.387 . S
H306 C313 0.950 . S
C307 C305 1.387 . S
C307 C309 1.390 . S
C307 H311 0.950 . S
H308 C304 0.950 . S
C309 C307 1.390 . S
C309 C310 1.387 . S
C309 H312 0.950 . S
C310 C309 1.387 . S
C310 C313 1.387 . S
H311 C307 0.950 . S
H312 C309 0.950 . S
C313 C304 1.390 . S
C313 H306 0.950 . S
C313 C310 1.387 . S
C314 C315 1.387 . S
C314 H318 0.950 . S
C314 C323 1.390 . S
C315 C314 1.387 . S
C315 C317 1.387 . S
H316 C323 0.950 . S
C317 C315 1.387 . S
C317 C319 1.390 . S
C317 H321 0.950 . S
H318 C314 0.950 . S
C319 C317 1.390 . S
C319 C320 1.387 . S
C319 H322 0.950 . S
C320 C319 1.387 . S
C320 C323 1.387 . S
H321 C317 0.950 . S
H322 C319 0.950 . S
C323 C314 1.390 . S
C323 H316 0.950 . S
C323 C320 1.387 . S
C324 C325 1.387 . S
C324 H328 0.950 . S
C324 C333 1.390 . S
C325 C324 1.387 . S
C325 C327 1.387 . S
H326 C333 0.950 . S
C327 C325 1.387 . S
C327 C329 1.390 . S
C327 H331 0.950 . S
H328 C324 0.950 . S
C329 C327 1.390 . S
C329 C330 1.387 . S
C329 H332 0.950 . S
C330 C329 1.387 . S
C330 C333 1.387 . S
H331 C327 0.950 . S
H332 C329 0.950 . S
C333 C324 1.390 . S
C333 H326 0.950 . S
C333 C330 1.387 . S
C334 C335 1.387 . S
C334 H338 0.950 . S
C334 C343 1.390 . S
C335 C334 1.387 . S
C335 C337 1.387 . S
H336 C343 0.950 . S
C337 C335 1.387 . S
C337 C339 1.390 . S
C337 H341 0.950 . S
H338 C334 0.950 . S
C339 C337 1.390 . S
C339 C340 1.387 . S
C339 H342 0.950 . S
C340 C339 1.387 . S
C340 C343 1.387 . S
H341 C337 0.950 . S
H342 C339 0.950 . S
C343 C334 1.390 . S
C343 H336 0.950 . S
C343 C340 1.387 . S
C344 C345 1.387 . S
C344 H348 0.950 . S
C344 C353 1.390 . S
C345 C344 1.387 . S
C345 C347 1.387 . S
H346 C353 0.950 . S
C347 C345 1.387 . S
C347 C349 1.390 . S
C347 H351 0.950 . S
H348 C344 0.950 . S
C349 C347 1.390 . S
C349 C350 1.387 . S
C349 H352 0.950 . S
C350 C349 1.387 . S
C350 C353 1.387 . S
H351 C347 0.950 . S
H352 C349 0.950 . S
C353 C344 1.390 . S
C353 H346 0.950 . S
C353 C350 1.387 . S
C354 C355 1.387 . S
C354 H358 0.950 . S
C354 C363 1.390 . S
C355 C354 1.387 . S
C355 C357 1.387 . S
H356 C363 0.950 . S
C357 C355 1.387 . S
C357 C359 1.390 . S
C357 H361 0.950 . S
H358 C354 0.950 . S
C359 C357 1.390 . S
C359 C360 1.387 . S
C359 H362 0.950 . S
C360 C359 1.387 . S
C360 C363 1.387 . S
H361 C357 0.950 . S
H362 C359 0.950 . S
C363 C354 1.390 . S
C363 H356 0.950 . S
C363 C360 1.387 . S
C364 C365 1.387 . S
C364 H368 0.950 . S
C364 C373 1.390 . S
C365 C364 1.387 . S
C365 C367 1.387 . S
H366 C373 0.950 . S
C367 C365 1.387 . S
C367 C369 1.390 . S
C367 H371 0.950 . S
H368 C364 0.950 . S
C369 C367 1.390 . S
C369 C370 1.387 . S
C369 H372 0.950 . S
C370 C369 1.387 . S
C370 C373 1.387 . S
H371 C367 0.950 . S
H372 C369 0.950 . S
C373 C364 1.390 . S
C373 H366 0.950 . S
C373 C370 1.387 . S
C374 C375 1.387 . S
C374 H378 0.950 . S
C374 C383 1.390 . S
C375 C374 1.387 . S
C375 C377 1.387 . S
H376 C383 0.950 . S
C377 C375 1.387 . S
C377 C379 1.390 . S
C377 H381 0.950 . S
H378 C374 0.950 . S
C379 C377 1.390 . S
C379 C380 1.387 . S
C379 H382 0.950 . S
C380 C379 1.387 . S
C380 C383 1.387 . S
H381 C377 0.950 . S
H382 C379 0.950 . S
C383 C374 1.390 . S
C383 H376 0.950 . S
C383 C380 1.387 . S
C384 C385 1.387 . S
C384 H388 0.950 . S
C384 C393 1.390 . S
C385 C384 1.387 . S
C385 C387 1.387 . S
H386 C393 0.950 . S
C387 C385 1.387 . S
C387 C389 1.390 . S
C387 H391 0.950 . S
H388 C384 0.950 . S
C389 C387 1.390 . S
C389 C390 1.387 . S
C389 H392 0.950 . S
C390 C389 1.387 . S
C390 C393 1.387 . S
H391 C387 0.950 . S
H392 C389 0.950 . S
C393 C384 1.390 . S
C393 H386 0.950 . S
C393 C390 1.387 . S
C394 C395 1.387 . S
C394 H398 0.950 . S
C394 C403 1.390 . S
C395 C394 1.387 . S
C395 C397 1.387 . S
H396 C403 0.950 . S
C397 C395 1.387 . S
C397 C399 1.390 . S
C397 H401 0.950 . S
H398 C394 0.950 . S
C399 C397 1.390 . S
C399 C400 1.387 . S
C399 H402 0.950 . S
C400 C399 1.387 . S
C400 C403 1.387 . S
H401 C397 0.950 . S
H402 C399 0.950 . S
C403 C394 1.390 . S
C403 H396 0.950 . S
C403 C400 1.387 . S
C404 C405 1.387 . S
C404 H408 0.950 . S
C404 C413 1.390 . S
C405 C404 1.387 . S
C405 C407 1.387 . S
H406 C413 0.950 . S
C407 C405 1.387 . S
C407 C409 1.390 . S
C407 H411 0.950 . S
H408 C404 0.950 . S
C409 C407 1.390 . S
C409 C410 1.387 . S
C409 H412 0.950 . S
C410 C409 1.387 . S
C410 C413 1.387 . S
H411 C407 0.950 . S
H412 C409 0.950 . S
C413 C404 1.390 . S
C413 H406 0.950 . S
C413 C410 1.387 . S
C414 C415 1.387 . S
C414 H418 0.950 . S
C414 C423 1.390 . S
C415 C414 1.387 . S
C415 C417 1.387 . S
H416 C423 0.950 . S
C417 C415 1.387 . S
C417 C419 1.390 . S
C417 H421 0.950 . S
H418 C414 0.950 . S
C419 C417 1.390 . S
C419 C420 1.387 . S
C419 H422 0.950 . S
C420 C419 1.387 . S
C420 C423 1.387 . S
H421 C417 0.950 . S
H422 C419 0.950 . S
C423 C414 1.390 . S
C423 H416 0.950 . S
C423 C420 1.387 . S
C424 C425 1.387 . S
C424 H428 0.950 . S
C424 C433 1.390 . S
C425 C424 1.387 . S
C425 C427 1.387 . S
H426 C433 0.950 . S
C427 C425 1.387 . S
C427 C429 1.390 . S
C427 H431 0.950 . S
H428 C424 0.950 . S
C429 C427 1.390 . S
C429 C430 1.387 . S
C429 H432 0.950 . S
C430 C429 1.387 . S
C430 C433 1.387 . S
H431 C427 0.950 . S
H432 C429 0.950 . S
C433 C424 1.390 . S
C433 H426 0.950 . S
C433 C430 1.387 . S
C434 C435 1.387 . S
C434 H438 0.950 . S
C434 C443 1.390 . S
C435 C434 1.387 . S
C435 C437 1.387 . S
H436 C443 0.950 . S
C437 C435 1.387 . S
C437 C439 1.390 . S
C437 H441 0.950 . S
H438 C434 0.950 . S
C439 C437 1.390 . S
C439 C440 1.387 . S
C439 H442 0.950 . S
C440 C439 1.387 . S
C440 C443 1.387 . S
H441 C437 0.950 . S
H442 C439 0.950 . S
C443 C434 1.390 . S
C443 H436 0.950 . S
C443 C440 1.387 . S
C444 C445 1.387 . S
C444 H448 0.950 . S
C444 C453 1.390 . S
C445 C444 1.387 . S
C445 C447 1.387 . S
H446 C453 0.950 . S
C447 C445 1.387 . S
C447 C449 1.390 . S
C447 H451 0.950 . S
H448 C444 0.950 . S
C449 C447 1.390 . S
C449 C450 1.387 . S
C449 H452 0.950 . S
C450 C449 1.387 . S
C450 C453 1.387 . S
H451 C447 0.950 . S
H452 C449 0.950 . S
C453 C444 1.390 . S
C453 H446 0.950 . S
C453 C450 1.387 . S
C454 C455 1.387 . S
C454 H458 0.950 . S
C454 C463 1.390 . S
C455 C454 1.387 . S
C455 C457 1.387 . S
H456 C463 0.950 . S
C457 C455 1.387 . S
C457 C459 1.390 . S
C457 H461 0.950 . S
H458 C454 0.950 . S
C459 C457 1.390 . S
C459 C460 1.387 . S
C459 H462 0.950 . S
C460 C459 1.387 . S
C460 C463 1.387 . S
H461 C457 0.950 . S
H462 C459 0.950 . S
C463 C454 1.390 . S
C463 H456 0.950 . S
C463 C460 1.387 . S
C464 C465 1.387 . S
C464 H468 0.950 . S
C464 C473 1.390 1_455 S
C465 C464 1.387 . S
C465 C467 1.387 . S
H466 C473 0.950 . S
C467 C465 1.387 . S
C467 C469 1.390 1_455 S
C467 H471 0.950 . S
H468 C464 0.950 . S
C469 C467 1.390 1_655 S
C469 C470 1.387 . S
C469 H472 0.950 . S
C470 C469 1.387 . S
C470 C473 1.387 . S
H471 C467 0.950 . S
H472 C469 0.950 . S
C473 C464 1.390 1_655 S
C473 H466 0.950 . S
C473 C470 1.387 . S
C474 C475 1.387 . S
C474 H478 0.950 . S
C474 C483 1.390 1_565 S
C475 C474 1.387 . S
C475 C477 1.387 . S
H476 C483 0.950 . S
C477 C475 1.387 . S
C477 C479 1.390 1_565 S
C477 H481 0.950 . S
H478 C474 0.950 . S
C479 C477 1.390 1_545 S
C479 C480 1.387 . S
C479 H482 0.950 . S
C480 C479 1.387 . S
C480 C483 1.387 . S
H481 C477 0.950 . S
H482 C479 0.950 . S
C483 C474 1.390 1_545 S
C483 H476 0.950 . S
C483 C480 1.387 . S
C484 C485 1.387 . S
C484 H488 0.950 . S
C484 C493 1.390 1_455 S
C485 C484 1.387 . S
C485 C487 1.387 . S
H486 C493 0.950 . S
C487 C485 1.387 . S
C487 C489 1.390 1_455 S
C487 H491 0.950 . S
H488 C484 0.950 . S
C489 C487 1.390 1_655 S
C489 C490 1.387 . S
C489 H492 0.950 . S
C490 C489 1.387 . S
C490 C493 1.387 . S
H491 C487 0.950 . S
H492 C489 0.950 . S
C493 C484 1.390 1_655 S
C493 H486 0.950 . S
C493 C490 1.387 . S
C494 C495 1.387 . S
C494 H498 0.950 . S
C494 C503 1.390 1_545 S
C495 C494 1.387 . S
C495 C497 1.387 . S
H496 C503 0.950 . S
C497 C495 1.387 . S
C497 C499 1.390 1_545 S
C497 H501 0.950 . S
H498 C494 0.950 . S
C499 C497 1.390 1_565 S
C499 C500 1.387 . S
C499 H502 0.950 . S
C500 C499 1.387 . S
C500 C503 1.387 . S
H501 C497 0.950 . S
H502 C499 0.950 . S
C503 C494 1.390 1_565 S
C503 H496 0.950 . S
C503 C500 1.387 . S
C504 C505 1.387 . S
C504 H508 0.950 . S
C504 C513 1.390 1_556 S
C505 C504 1.387 . S
C505 C507 1.387 . S
H506 C513 0.950 . S
C507 C505 1.387 . S
C507 C509 1.390 1_556 S
C507 H511 0.950 . S
H508 C504 0.950 . S
C509 C507 1.390 1_554 S
C509 C510 1.387 . S
C509 H512 0.950 . S
C510 C509 1.387 . S
C510 C513 1.387 . S
H511 C507 0.950 . S
H512 C509 0.950 . S
C513 C504 1.390 1_554 S
C513 H506 0.950 . S
C513 C510 1.387 . S
C514 C515 1.387 . S
C514 H518 0.950 . S
C514 C523 1.390 1_556 S
C515 C514 1.387 . S
C515 C517 1.387 . S
H516 C523 0.950 . S
C517 C515 1.387 . S
C517 C519 1.390 1_556 S
C517 H521 0.950 . S
H518 C514 0.950 . S
C519 C517 1.390 1_554 S
C519 C520 1.387 . S
C519 H522 0.950 . S
C520 C519 1.387 . S
C520 C523 1.387 . S
H521 C517 0.950 . S
H522 C519 0.950 . S
C523 C514 1.390 1_554 S
C523 H516 0.950 . S
C523 C520 1.387 . S
C524 C525 1.387 . S
C524 H528 0.950 . S
C524 C533 1.390 1_554 S
C525 C524 1.387 . S
C525 C527 1.387 . S
H526 C533 0.950 . S
C527 C525 1.387 . S
C527 C529 1.390 1_554 S
C527 H531 0.950 . S
H528 C524 0.950 . S
C529 C527 1.390 1_556 S
C529 C530 1.387 . S
C529 H532 0.950 . S
C530 C529 1.387 . S
C530 C533 1.387 . S
H531 C527 0.950 . S
H532 C529 0.950 . S
C533 C524 1.390 1_556 S
C533 H526 0.950 . S
C533 C530 1.387 . S
C534 C535 1.387 . S
C534 H538 0.950 . S
C534 C543 1.390 1_556 S
C535 C534 1.387 . S
C535 C537 1.387 . S
H536 C543 0.950 . S
C537 C535 1.387 . S
C537 C539 1.390 1_556 S
C537 H541 0.950 . S
H538 C534 0.950 . S
C539 C537 1.390 1_554 S
C539 C540 1.387 . S
C539 H542 0.950 . S
C540 C539 1.387 . S
C540 C543 1.387 . S
H541 C537 0.950 . S
H542 C539 0.950 . S
C543 C534 1.390 1_554 S
C543 H536 0.950 . S
C543 C540 1.387 . S
C225 C13 1.368 . S
C230 C50 1.293 . S
C235 C8 1.294 . S
C240 C27 1.368 . S
C245 C22 1.289 . S
C250 C41 1.370 . S
C255 C36 1.294 . S
C260 C55 1.367 . S
C265 C69 1.370 . S
C270 C78 1.289 . S
C275 C83 1.370 . S
C280 C92 1.289 . S
C285 C97 1.368 . S
C290 C106 1.293 . S
C295 C111 1.367 . S
C300 C64 1.294 . S
C305 C125 1.368 . S
C310 C162 1.294 . S
C315 C120 1.288 . S
C320 C139 1.370 . S
C325 C134 1.293 . S
C330 C153 1.368 . S
C335 C167 1.370 . S
C340 C148 1.288 . S
C345 C190 1.293 . S
C350 C181 1.368 . S
C355 C204 1.290 . S
C360 C195 1.368 . S
C365 C209 1.368 . S
C370 C218 1.293 . S
C375 C223 1.371 . S
C380 C176 1.289 . S
C385 C11 1.195 . S
C390 C221 1.197 . S
C395 C25 1.196 . S
C400 C179 1.195 . S
C405 C193 1.195 . S
C410 C39 1.197 . S
C415 C53 1.195 . S
C420 C207 1.197 . S
C425 C137 1.197 . S
C430 C67 1.198 . S
C435 C151 1.198 . S
C440 C81 1.197 . S
C445 C95 1.195 . S
C450 C165 1.196 . S
C455 C109 1.195 . S
C460 C123 1.196 . S
C465 C7 1.442 . S
C470 C91 1.442 . S
C475 C105 1.441 . S
C480 C21 1.441 . S
C485 C63 1.442 . S
C490 C35 1.442 . S
C495 C77 1.441 . S
C500 C49 1.441 . S
C505 C119 1.442 . S
C510 C203 1.442 . S
C515 C133 1.441 . S
C520 C217 1.441 . S
C525 C175 1.441 . S
C530 C147 1.441 . S
C535 C161 1.441 . S
C540 C189 1.441 . S
