# Generated by pormake.
# Topology uli, (4)-cn, num edge types: 1
# Building blocks:
#     Node 0, Type 0, BuildingBlock: CEKHIL_clean_sbu_0, # of connection points: 4
#     Node 1, Type 0, BuildingBlock: CEKHIL_clean_sbu_0, # of connection points: 4
#     Node 2, Type 0, BuildingBlock: CEKHIL_clean_sbu_0, # of connection points: 4
#     Node 3, Type 0, BuildingBlock: CEKHIL_clean_sbu_0, # of connection points: 4
#     Node 4, Type 0, BuildingBlock: CEKHIL_clean_sbu_0, # of connection points: 4
#     Node 5, Type 0, BuildingBlock: CEKHIL_clean_sbu_0, # of connection points: 4
#     Node 6, Type 0, BuildingBlock: CEKHIL_clean_sbu_0, # of connection points: 4
#     Node 7, Type 0, BuildingBlock: CEKHIL_clean_sbu_0, # of connection points: 4
#     Node 8, Type 0, BuildingBlock: CEKHIL_clean_sbu_0, # of connection points: 4
#     Node 9, Type 0, BuildingBlock: CEKHIL_clean_sbu_0, # of connection points: 4
#     Node 10, Type 0, BuildingBlock: CEKHIL_clean_sbu_0, # of connection points: 4
#     Node 11, Type 0, BuildingBlock: CEKHIL_clean_sbu_0, # of connection points: 4
#     Node 12, Type 0, BuildingBlock: CEKHIL_clean_sbu_0, # of connection points: 4
#     Node 13, Type 0, BuildingBlock: CEKHIL_clean_sbu_0, # of connection points: 4
#     Node 14, Type 0, BuildingBlock: CEKHIL_clean_sbu_0, # of connection points: 4
#     Node 15, Type 0, BuildingBlock: CEKHIL_clean_sbu_0, # of connection points: 4
#     Node 16, Type 0, BuildingBlock: CEKHIL_clean_sbu_0, # of connection points: 4
#     Node 17, Type 0, BuildingBlock: CEKHIL_clean_sbu_0, # of connection points: 4
#     Node 18, Type 0, BuildingBlock: CEKHIL_clean_sbu_0, # of connection points: 4
#     Node 19, Type 0, BuildingBlock: CEKHIL_clean_sbu_0, # of connection points: 4
#     Node 20, Type 0, BuildingBlock: CEKHIL_clean_sbu_0, # of connection points: 4
#     Node 21, Type 0, BuildingBlock: CEKHIL_clean_sbu_0, # of connection points: 4
#     Node 22, Type 0, BuildingBlock: CEKHIL_clean_sbu_0, # of connection points: 4
#     Node 23, Type 0, BuildingBlock: CEKHIL_clean_sbu_0, # of connection points: 4
#     Node 24, Type 0, BuildingBlock: CEKHIL_clean_sbu_0, # of connection points: 4
#     Node 25, Type 0, BuildingBlock: CEKHIL_clean_sbu_0, # of connection points: 4
#     Node 26, Type 0, BuildingBlock: CEKHIL_clean_sbu_0, # of connection points: 4
#     Node 27, Type 0, BuildingBlock: CEKHIL_clean_sbu_0, # of connection points: 4
#     Node 28, Type 0, BuildingBlock: CEKHIL_clean_sbu_0, # of connection points: 4
#     Node 29, Type 0, BuildingBlock: CEKHIL_clean_sbu_0, # of connection points: 4
#     Node 30, Type 0, BuildingBlock: CEKHIL_clean_sbu_0, # of connection points: 4
#     Node 31, Type 0, BuildingBlock: CEKHIL_clean_sbu_0, # of connection points: 4
#     Node 32, Type 0, BuildingBlock: CEKHIL_clean_sbu_0, # of connection points: 4
#     Node 33, Type 0, BuildingBlock: CEKHIL_clean_sbu_0, # of connection points: 4
#     Node 34, Type 0, BuildingBlock: CEKHIL_clean_sbu_0, # of connection points: 4
#     Node 35, Type 0, BuildingBlock: CEKHIL_clean_sbu_0, # of connection points: 4
#     Node 36, Type 0, BuildingBlock: CEKHIL_clean_sbu_0, # of connection points: 4
#     Node 37, Type 0, BuildingBlock: CEKHIL_clean_sbu_0, # of connection points: 4
#     Node 38, Type 0, BuildingBlock: CEKHIL_clean_sbu_0, # of connection points: 4
#     Node 39, Type 0, BuildingBlock: CEKHIL_clean_sbu_0, # of connection points: 4
#     Node 40, Type 0, BuildingBlock: CEKHIL_clean_sbu_0, # of connection points: 4
#     Node 41, Type 0, BuildingBlock: CEKHIL_clean_sbu_0, # of connection points: 4
#     Node 42, Type 0, BuildingBlock: CEKHIL_clean_sbu_0, # of connection points: 4
#     Node 43, Type 0, BuildingBlock: CEKHIL_clean_sbu_0, # of connection points: 4
#     Node 44, Type 0, BuildingBlock: CEKHIL_clean_sbu_0, # of connection points: 4
#     Node 45, Type 0, BuildingBlock: CEKHIL_clean_sbu_0, # of connection points: 4
#     Node 46, Type 0, BuildingBlock: CEKHIL_clean_sbu_0, # of connection points: 4
#     Node 47, Type 0, BuildingBlock: CEKHIL_clean_sbu_0, # of connection points: 4
#     Edge 48, Type (0, 0), BuildingBlock: OJICUG_clean_linker_0, # of connection points: 2
#     Edge 49, Type (0, 0), BuildingBlock: OJICUG_clean_linker_0, # of connection points: 2
#     Edge 50, Type (0, 0), BuildingBlock: OJICUG_clean_linker_0, # of connection points: 2
#     Edge 51, Type (0, 0), BuildingBlock: OJICUG_clean_linker_0, # of connection points: 2
#     Edge 52, Type (0, 0), BuildingBlock: OJICUG_clean_linker_0, # of connection points: 2
#     Edge 53, Type (0, 0), BuildingBlock: OJICUG_clean_linker_0, # of connection points: 2
#     Edge 54, Type (0, 0), BuildingBlock: OJICUG_clean_linker_0, # of connection points: 2
#     Edge 55, Type (0, 0), BuildingBlock: OJICUG_clean_linker_0, # of connection points: 2
#     Edge 56, Type (0, 0), BuildingBlock: OJICUG_clean_linker_0, # of connection points: 2
#     Edge 57, Type (0, 0), BuildingBlock: OJICUG_clean_linker_0, # of connection points: 2
#     Edge 58, Type (0, 0), BuildingBlock: OJICUG_clean_linker_0, # of connection points: 2
#     Edge 59, Type (0, 0), BuildingBlock: OJICUG_clean_linker_0, # of connection points: 2
#     Edge 60, Type (0, 0), BuildingBlock: OJICUG_clean_linker_0, # of connection points: 2
#     Edge 61, Type (0, 0), BuildingBlock: OJICUG_clean_linker_0, # of connection points: 2
#     Edge 62, Type (0, 0), BuildingBlock: OJICUG_clean_linker_0, # of connection points: 2
#     Edge 63, Type (0, 0), BuildingBlock: OJICUG_clean_linker_0, # of connection points: 2
#     Edge 64, Type (0, 0), BuildingBlock: OJICUG_clean_linker_0, # of connection points: 2
#     Edge 65, Type (0, 0), BuildingBlock: OJICUG_clean_linker_0, # of connection points: 2
#     Edge 66, Type (0, 0), BuildingBlock: OJICUG_clean_linker_0, # of connection points: 2
#     Edge 67, Type (0, 0), BuildingBlock: OJICUG_clean_linker_0, # of connection points: 2
#     Edge 68, Type (0, 0), BuildingBlock: OJICUG_clean_linker_0, # of connection points: 2
#     Edge 69, Type (0, 0), BuildingBlock: OJICUG_clean_linker_0, # of connection points: 2
#     Edge 70, Type (0, 0), BuildingBlock: OJICUG_clean_linker_0, # of connection points: 2
#     Edge 71, Type (0, 0), BuildingBlock: OJICUG_clean_linker_0, # of connection points: 2
#     Edge 72, Type (0, 0), BuildingBlock: OJICUG_clean_linker_0, # of connection points: 2
#     Edge 73, Type (0, 0), BuildingBlock: OJICUG_clean_linker_0, # of connection points: 2
#     Edge 74, Type (0, 0), BuildingBlock: OJICUG_clean_linker_0, # of connection points: 2
#     Edge 75, Type (0, 0), BuildingBlock: OJICUG_clean_linker_0, # of connection points: 2
#     Edge 76, Type (0, 0), BuildingBlock: OJICUG_clean_linker_0, # of connection points: 2
#     Edge 77, Type (0, 0), BuildingBlock: OJICUG_clean_linker_0, # of connection points: 2
#     Edge 78, Type (0, 0), BuildingBlock: OJICUG_clean_linker_0, # of connection points: 2
#     Edge 79, Type (0, 0), BuildingBlock: OJICUG_clean_linker_0, # of connection points: 2
#     Edge 80, Type (0, 0), BuildingBlock: OJICUG_clean_linker_0, # of connection points: 2
#     Edge 81, Type (0, 0), BuildingBlock: OJICUG_clean_linker_0, # of connection points: 2
#     Edge 82, Type (0, 0), BuildingBlock: OJICUG_clean_linker_0, # of connection points: 2
#     Edge 83, Type (0, 0), BuildingBlock: OJICUG_clean_linker_0, # of connection points: 2
#     Edge 84, Type (0, 0), BuildingBlock: OJICUG_clean_linker_0, # of connection points: 2
#     Edge 85, Type (0, 0), BuildingBlock: OJICUG_clean_linker_0, # of connection points: 2
#     Edge 86, Type (0, 0), BuildingBlock: OJICUG_clean_linker_0, # of connection points: 2
#     Edge 87, Type (0, 0), BuildingBlock: OJICUG_clean_linker_0, # of connection points: 2
#     Edge 88, Type (0, 0), BuildingBlock: OJICUG_clean_linker_0, # of connection points: 2
#     Edge 89, Type (0, 0), BuildingBlock: OJICUG_clean_linker_0, # of connection points: 2
#     Edge 90, Type (0, 0), BuildingBlock: OJICUG_clean_linker_0, # of connection points: 2
#     Edge 91, Type (0, 0), BuildingBlock: OJICUG_clean_linker_0, # of connection points: 2
#     Edge 92, Type (0, 0), BuildingBlock: OJICUG_clean_linker_0, # of connection points: 2
#     Edge 93, Type (0, 0), BuildingBlock: OJICUG_clean_linker_0, # of connection points: 2
#     Edge 94, Type (0, 0), BuildingBlock: OJICUG_clean_linker_0, # of connection points: 2
#     Edge 95, Type (0, 0), BuildingBlock: OJICUG_clean_linker_0, # of connection points: 2
#     Edge 96, Type (0, 0), BuildingBlock: OJICUG_clean_linker_0, # of connection points: 2
#     Edge 97, Type (0, 0), BuildingBlock: OJICUG_clean_linker_0, # of connection points: 2
#     Edge 98, Type (0, 0), BuildingBlock: OJICUG_clean_linker_0, # of connection points: 2
#     Edge 99, Type (0, 0), BuildingBlock: OJICUG_clean_linker_0, # of connection points: 2
#     Edge 100, Type (0, 0), BuildingBlock: OJICUG_clean_linker_0, # of connection points: 2
#     Edge 101, Type (0, 0), BuildingBlock: OJICUG_clean_linker_0, # of connection points: 2
#     Edge 102, Type (0, 0), BuildingBlock: OJICUG_clean_linker_0, # of connection points: 2
#     Edge 103, Type (0, 0), BuildingBlock: OJICUG_clean_linker_0, # of connection points: 2
#     Edge 104, Type (0, 0), BuildingBlock: OJICUG_clean_linker_0, # of connection points: 2
#     Edge 105, Type (0, 0), BuildingBlock: OJICUG_clean_linker_0, # of connection points: 2
#     Edge 106, Type (0, 0), BuildingBlock: OJICUG_clean_linker_0, # of connection points: 2
#     Edge 107, Type (0, 0), BuildingBlock: OJICUG_clean_linker_0, # of connection points: 2
#     Edge 108, Type (0, 0), BuildingBlock: OJICUG_clean_linker_0, # of connection points: 2
#     Edge 109, Type (0, 0), BuildingBlock: OJICUG_clean_linker_0, # of connection points: 2
#     Edge 110, Type (0, 0), BuildingBlock: OJICUG_clean_linker_0, # of connection points: 2
#     Edge 111, Type (0, 0), BuildingBlock: OJICUG_clean_linker_0, # of connection points: 2
#     Edge 112, Type (0, 0), BuildingBlock: OJICUG_clean_linker_0, # of connection points: 2
#     Edge 113, Type (0, 0), BuildingBlock: OJICUG_clean_linker_0, # of connection points: 2
#     Edge 114, Type (0, 0), BuildingBlock: OJICUG_clean_linker_0, # of connection points: 2
#     Edge 115, Type (0, 0), BuildingBlock: OJICUG_clean_linker_0, # of connection points: 2
#     Edge 116, Type (0, 0), BuildingBlock: OJICUG_clean_linker_0, # of connection points: 2
#     Edge 117, Type (0, 0), BuildingBlock: OJICUG_clean_linker_0, # of connection points: 2
#     Edge 118, Type (0, 0), BuildingBlock: OJICUG_clean_linker_0, # of connection points: 2
#     Edge 119, Type (0, 0), BuildingBlock: OJICUG_clean_linker_0, # of connection points: 2
#     Edge 120, Type (0, 0), BuildingBlock: OJICUG_clean_linker_0, # of connection points: 2
#     Edge 121, Type (0, 0), BuildingBlock: OJICUG_clean_linker_0, # of connection points: 2
#     Edge 122, Type (0, 0), BuildingBlock: OJICUG_clean_linker_0, # of connection points: 2
#     Edge 123, Type (0, 0), BuildingBlock: OJICUG_clean_linker_0, # of connection points: 2
#     Edge 124, Type (0, 0), BuildingBlock: OJICUG_clean_linker_0, # of connection points: 2
#     Edge 125, Type (0, 0), BuildingBlock: OJICUG_clean_linker_0, # of connection points: 2
#     Edge 126, Type (0, 0), BuildingBlock: OJICUG_clean_linker_0, # of connection points: 2
#     Edge 127, Type (0, 0), BuildingBlock: OJICUG_clean_linker_0, # of connection points: 2
#     Edge 128, Type (0, 0), BuildingBlock: OJICUG_clean_linker_0, # of connection points: 2
#     Edge 129, Type (0, 0), BuildingBlock: OJICUG_clean_linker_0, # of connection points: 2
#     Edge 130, Type (0, 0), BuildingBlock: OJICUG_clean_linker_0, # of connection points: 2
#     Edge 131, Type (0, 0), BuildingBlock: OJICUG_clean_linker_0, # of connection points: 2
#     Edge 132, Type (0, 0), BuildingBlock: OJICUG_clean_linker_0, # of connection points: 2
#     Edge 133, Type (0, 0), BuildingBlock: OJICUG_clean_linker_0, # of connection points: 2
#     Edge 134, Type (0, 0), BuildingBlock: OJICUG_clean_linker_0, # of connection points: 2
#     Edge 135, Type (0, 0), BuildingBlock: OJICUG_clean_linker_0, # of connection points: 2
#     Edge 136, Type (0, 0), BuildingBlock: OJICUG_clean_linker_0, # of connection points: 2
#     Edge 137, Type (0, 0), BuildingBlock: OJICUG_clean_linker_0, # of connection points: 2
#     Edge 138, Type (0, 0), BuildingBlock: OJICUG_clean_linker_0, # of connection points: 2
#     Edge 139, Type (0, 0), BuildingBlock: OJICUG_clean_linker_0, # of connection points: 2
#     Edge 140, Type (0, 0), BuildingBlock: OJICUG_clean_linker_0, # of connection points: 2
#     Edge 141, Type (0, 0), BuildingBlock: OJICUG_clean_linker_0, # of connection points: 2
#     Edge 142, Type (0, 0), BuildingBlock: OJICUG_clean_linker_0, # of connection points: 2
#     Edge 143, Type (0, 0), BuildingBlock: OJICUG_clean_linker_0, # of connection points: 2
# Relax obj value: 0.459
# Max RMSD: 0.156
# Mean RMSD: 0.156
data_MOF--net-uli--node1-CEKHIL_clean_sbu_0--edge1-OJICUG_clean_linker_0
_symmetry_space_group_name_H-M    P1
_symmetry_Int_Tables_number       1
_symmetry_cell_setting            triclinic
loop_
_symmetry_equiv_pos_as_xyz
'x, y, z'
_cell_length_a     49.362353
_cell_length_b     49.216864
_cell_length_c     49.247262
_cell_angle_alpha  89.991006
_cell_angle_beta   90.10852
_cell_angle_gamma 89.939934
loop_
_atom_site_label
_atom_site_type_symbol
_atom_site_fract_x
_atom_site_fract_y
_atom_site_fract_z
_atom_type_partial_charge
Co0 Co 0.09409 0.2521 0.24238 0.0
O1 O 0.06157 0.25061 0.26345 0.0
O2 O 0.06305 0.25356 0.21841 0.0
C3 C 0.11683 0.21751 0.26204 0.0
O4 O 0.12446 0.25394 0.21459 0.0
Co5 Co 0.14661 0.26783 0.27409 0.0
O6 O 0.16291 0.26389 0.23744 0.0
C7 C 0.10912 0.31064 0.25764 0.0
C8 C 0.04874 0.25183 0.24052 0.0
C9 C 0.15003 0.25912 0.21544 0.0
O10 O 0.09502 0.29317 0.24427 0.0
O11 O 0.12752 0.30374 0.27464 0.0
O12 O 0.09829 0.21258 0.24399 0.0
O13 O 0.11737 0.24226 0.27072 0.0
Co14 Co 0.73413 0.09545 0.24654 0.0
O15 O 0.73916 0.06342 0.26805 0.0
O16 O 0.73092 0.06369 0.22369 0.0
C17 C 0.76954 0.1195 0.26249 0.0
O18 O 0.72889 0.12505 0.21819 0.0
Co19 Co 0.72002 0.14885 0.27761 0.0
O20 O 0.72128 0.16445 0.2404 0.0
C21 C 0.67689 0.10997 0.26603 0.0
C22 C 0.73589 0.04989 0.24572 0.0
C23 C 0.7241 0.15079 0.21855 0.0
O24 O 0.69355 0.09533 0.25225 0.0
O25 O 0.68462 0.12944 0.28142 0.0
O26 O 0.77334 0.10078 0.24432 0.0
O27 O 0.74571 0.11974 0.27325 0.0
Co28 Co 0.88993 0.73542 0.24753 0.0
O29 O 0.9215 0.73973 0.26985 0.0
O30 O 0.92196 0.73463 0.22509 0.0
C31 C 0.86468 0.76926 0.26512 0.0
O32 O 0.86097 0.73126 0.21836 0.0
Co33 Co 0.83683 0.7178 0.27685 0.0
O34 O 0.82186 0.72048 0.23944 0.0
C35 C 0.87726 0.67668 0.26403 0.0
C36 C 0.93539 0.7384 0.24757 0.0
C37 C 0.83556 0.72531 0.21802 0.0
O38 O 0.89104 0.69443 0.25073 0.0
O39 O 0.85798 0.68323 0.28009 0.0
O40 O 0.88361 0.77467 0.2477 0.0
O41 O 0.86495 0.74473 0.27443 0.0
Co42 Co 0.25293 0.88959 0.24749 0.0
O43 O 0.24835 0.92146 0.26939 0.0
O44 O 0.25506 0.92157 0.22482 0.0
C45 C 0.21819 0.86516 0.26421 0.0
O46 O 0.25731 0.86029 0.21868 0.0
Co47 Co 0.26839 0.83596 0.27754 0.0
O48 O 0.26542 0.82066 0.2403 0.0
C49 C 0.31082 0.87531 0.26548 0.0
C50 C 0.25053 0.93517 0.24703 0.0
C51 C 0.2619 0.83451 0.21866 0.0
O52 O 0.29372 0.88985 0.25202 0.0
O53 O 0.30355 0.85584 0.28106 0.0
O54 O 0.21371 0.8841 0.24642 0.0
O55 O 0.24236 0.86491 0.27428 0.0
Co56 Co 0.09517 0.73767 0.74003 0.0
O57 O 0.06298 0.74281 0.71883 0.0
O58 O 0.06378 0.73463 0.76318 0.0
C59 C 0.11928 0.77301 0.72394 0.0
O60 O 0.12485 0.73235 0.7682 0.0
Co61 Co 0.14817 0.72317 0.7088 0.0
O62 O 0.16404 0.72477 0.7459 0.0
C63 C 0.10937 0.68004 0.7208 0.0
C64 C 0.04975 0.7396 0.74131 0.0
C65 C 0.15051 0.72761 0.76778 0.0
O66 O 0.09479 0.69694 0.73439 0.0
O67 O 0.12892 0.68755 0.70552 0.0
O68 O 0.10071 0.77696 0.74216 0.0
O69 O 0.11927 0.7491 0.71314 0.0
Co70 Co 0.25277 0.09821 0.74016 0.0
O71 O 0.24734 0.06575 0.71942 0.0
O72 O 0.25685 0.06693 0.76351 0.0
C73 C 0.21679 0.1219 0.72493 0.0
O74 O 0.25848 0.12828 0.76791 0.0
Co75 Co 0.2657 0.15131 0.70826 0.0
O76 O 0.26411 0.16766 0.74515 0.0
C77 C 0.30934 0.11257 0.71872 0.0
C78 C 0.25129 0.05268 0.74194 0.0
C79 C 0.26222 0.15418 0.76721 0.0
O80 O 0.29314 0.0981 0.7332 0.0
O81 O 0.30111 0.13205 0.70358 0.0
O82 O 0.21365 0.10337 0.74342 0.0
O83 O 0.24029 0.1221 0.71343 0.0
Co84 Co 0.88972 0.25369 0.74003 0.0
O85 O 0.92146 0.2516 0.71781 0.0
O86 O 0.92161 0.25454 0.76284 0.0
C87 C 0.86576 0.21945 0.72137 0.0
O88 O 0.86049 0.25608 0.76898 0.0
Co89 Co 0.83627 0.27026 0.71039 0.0
O90 O 0.82138 0.26697 0.74771 0.0
C91 C 0.8752 0.31233 0.72467 0.0
C92 C 0.93515 0.25247 0.74028 0.0
C93 C 0.83503 0.26188 0.76917 0.0
O94 O 0.88929 0.29478 0.73801 0.0
O95 O 0.85637 0.30549 0.70814 0.0
O96 O 0.88492 0.21426 0.73869 0.0
O97 O 0.86522 0.24419 0.71264 0.0
Co98 Co 0.73356 0.89154 0.73732 0.0
O99 O 0.7386 0.92376 0.71597 0.0
O100 O 0.73055 0.92316 0.76031 0.0
C101 C 0.76883 0.8673 0.72135 0.0
O102 O 0.72848 0.86202 0.76577 0.0
Co103 Co 0.7193 0.83788 0.70684 0.0
O104 O 0.72122 0.82233 0.74406 0.0
C105 C 0.67636 0.87724 0.71746 0.0
C106 C 0.73555 0.93713 0.73845 0.0
C107 C 0.72406 0.83624 0.76575 0.0
O108 O 0.69294 0.89176 0.73152 0.0
O109 O 0.68419 0.85772 0.7022 0.0
O110 O 0.77275 0.88607 0.73946 0.0
O111 O 0.74495 0.8671 0.71062 0.0
Co112 Co 0.24225 0.09705 0.25434 0.0
O113 O 0.26421 0.06529 0.24971 0.0
O114 O 0.2198 0.06494 0.25677 0.0
C115 C 0.25887 0.12135 0.21935 0.0
O116 O 0.21353 0.12646 0.25896 0.0
Co117 Co 0.27248 0.15053 0.2696 0.0
O118 O 0.23534 0.16596 0.26694 0.0
C119 C 0.26083 0.11105 0.31217 0.0
C120 C 0.24206 0.05145 0.25226 0.0
C121 C 0.21365 0.15225 0.26361 0.0
O122 O 0.2471 0.09672 0.29515 0.0
O123 O 0.27633 0.13051 0.30477 0.0
O124 O 0.24094 0.10256 0.21499 0.0
O125 O 0.26892 0.12162 0.24356 0.0
Co126 Co 0.8876 0.24675 0.25152 0.0
O127 O 0.91891 0.26939 0.24783 0.0
O128 O 0.91986 0.22445 0.25171 0.0
C129 C 0.86213 0.26443 0.21783 0.0
O130 O 0.85879 0.21745 0.25538 0.0
Co131 Co 0.83458 0.27607 0.26957 0.0
O132 O 0.81981 0.23862 0.26674 0.0
C133 C 0.87549 0.26355 0.31026 0.0
C134 C 0.93301 0.24717 0.24865 0.0
C135 C 0.83343 0.21718 0.26159 0.0
O136 O 0.88873 0.24963 0.29255 0.0
O137 O 0.85632 0.27982 0.3037 0.0
O138 O 0.88132 0.24728 0.21229 0.0
O139 O 0.86239 0.27362 0.2424 0.0
Co140 Co 0.73836 0.88791 0.25397 0.0
O141 O 0.71707 0.92005 0.2485 0.0
O142 O 0.76124 0.91953 0.2572 0.0
C143 C 0.7228 0.86369 0.21845 0.0
O144 O 0.76666 0.85833 0.25957 0.0
Co145 Co 0.70767 0.83452 0.26813 0.0
O146 O 0.7447 0.81871 0.26607 0.0
C147 C 0.71808 0.87395 0.31119 0.0
C148 C 0.73944 0.93344 0.25182 0.0
C149 C 0.76645 0.83247 0.26369 0.0
O150 O 0.73215 0.88837 0.29458 0.0
O151 O 0.70312 0.8542 0.30339 0.0
O152 O 0.74093 0.88241 0.21477 0.0
O153 O 0.71183 0.86351 0.24223 0.0
Co154 Co 0.09676 0.74172 0.25378 0.0
O155 O 0.06415 0.72117 0.24911 0.0
O156 O 0.06585 0.76555 0.25738 0.0
C157 C 0.11985 0.72513 0.21801 0.0
O158 O 0.12705 0.76928 0.25859 0.0
Co159 Co 0.14949 0.70949 0.26731 0.0
O160 O 0.16608 0.74621 0.26494 0.0
C161 C 0.11156 0.72199 0.31108 0.0
C162 C 0.05143 0.74396 0.25254 0.0
C163 C 0.15285 0.76837 0.2625 0.0
O164 O 0.09695 0.73595 0.29446 0.0
O165 O 0.13084 0.70647 0.30323 0.0
O166 O 0.10159 0.7438 0.21444 0.0
O167 O 0.12018 0.71434 0.24191 0.0
Co168 Co 0.2464 0.89063 0.73686 0.0
O169 O 0.26826 0.92244 0.74183 0.0
O170 O 0.22381 0.92257 0.73471 0.0
C171 C 0.26292 0.86562 0.77147 0.0
O172 O 0.21758 0.86155 0.7319 0.0
Co173 Co 0.27618 0.8371 0.72087 0.0
O174 O 0.23889 0.82198 0.72295 0.0
C175 C 0.26448 0.87711 0.67878 0.0
C176 C 0.24597 0.93617 0.73923 0.0
C177 C 0.2174 0.83592 0.72664 0.0
O178 O 0.25105 0.89141 0.69604 0.0
O179 O 0.27985 0.85738 0.68586 0.0
O180 O 0.24522 0.88458 0.77612 0.0
O181 O 0.27304 0.86573 0.74732 0.0
Co182 Co 0.09642 0.24704 0.7354 0.0
O183 O 0.06429 0.26876 0.73748 0.0
O184 O 0.06496 0.22375 0.73358 0.0
C185 C 0.11966 0.26537 0.7703 0.0
O186 O 0.12627 0.21863 0.73282 0.0
Co187 Co 0.14948 0.27787 0.72023 0.0
O188 O 0.1652 0.24082 0.72354 0.0
C189 C 0.1113 0.26358 0.67723 0.0
C190 C 0.05103 0.24612 0.73581 0.0
C191 C 0.15188 0.21902 0.72778 0.0
O192 O 0.09713 0.24996 0.69441 0.0
O193 O 0.13025 0.2798 0.68444 0.0
O194 O 0.10082 0.2476 0.77488 0.0
O195 O 0.12024 0.27466 0.74577 0.0
Co196 Co 0.74093 0.09932 0.73411 0.0
O197 O 0.7196 0.06729 0.73961 0.0
O198 O 0.76369 0.0675 0.73076 0.0
C199 C 0.72551 0.12369 0.76962 0.0
O200 O 0.76913 0.12895 0.7283 0.0
Co201 Co 0.70974 0.15254 0.71985 0.0
O202 O 0.74676 0.16837 0.72144 0.0
C203 C 0.72039 0.11315 0.67685 0.0
C204 C 0.74181 0.05371 0.736 0.0
C205 C 0.76866 0.15476 0.72384 0.0
O206 O 0.73452 0.09879 0.69353 0.0
O207 O 0.70532 0.13286 0.68456 0.0
O208 O 0.74372 0.10498 0.77335 0.0
O209 O 0.71443 0.12373 0.74585 0.0
Co210 Co 0.88813 0.7417 0.73475 0.0
O211 O 0.92032 0.72049 0.74001 0.0
O212 O 0.91952 0.76488 0.73192 0.0
C213 C 0.86386 0.72553 0.7699 0.0
O214 O 0.85852 0.76994 0.72938 0.0
Co215 Co 0.83514 0.71064 0.71984 0.0
O216 O 0.81932 0.74778 0.72135 0.0
C217 C 0.87448 0.72196 0.67721 0.0
C218 C 0.93354 0.74302 0.73694 0.0
C219 C 0.83289 0.76963 0.72445 0.0
O220 O 0.88867 0.73606 0.69404 0.0
O221 O 0.85514 0.70643 0.68478 0.0
O222 O 0.88245 0.74373 0.77399 0.0
O223 O 0.86391 0.71481 0.74597 0.0
Co224 Co 0.25277 0.2448 0.09674 0.0
O225 O 0.24842 0.26624 0.06461 0.0
O226 O 0.25663 0.22187 0.06505 0.0
C227 C 0.21674 0.2607 0.11978 0.0
O228 O 0.2572 0.21658 0.12665 0.0
Co229 Co 0.26554 0.2763 0.1502 0.0
O230 O 0.26244 0.23933 0.16613 0.0
C231 C 0.30977 0.26425 0.11268 0.0
C232 C 0.25177 0.24388 0.05117 0.0
C233 C 0.2604 0.21728 0.15263 0.0
O234 O 0.29337 0.2506 0.09757 0.0
O235 O 0.30171 0.27939 0.13219 0.0
O236 O 0.21347 0.24248 0.10102 0.0
O237 O 0.24051 0.2716 0.12058 0.0
Co238 Co 0.25029 0.73867 0.88946 0.0
O239 O 0.24486 0.7174 0.92163 0.0
O240 O 0.25369 0.76164 0.92102 0.0
C241 C 0.21477 0.72327 0.86522 0.0
O242 O 0.25586 0.76705 0.85999 0.0
Co243 Co 0.26412 0.70798 0.83591 0.0
O244 O 0.26254 0.74522 0.82029 0.0
C245 C 0.30722 0.71795 0.87535 0.0
C246 C 0.24831 0.73984 0.93497 0.0
C247 C 0.26012 0.76697 0.8342 0.0
O248 O 0.29078 0.73218 0.88983 0.0
O249 O 0.29926 0.70299 0.85563 0.0
O250 O 0.21116 0.74146 0.88396 0.0
O251 O 0.23847 0.71213 0.86504 0.0
Co252 Co 0.24608 0.25344 0.88938 0.0
O253 O 0.26808 0.24851 0.92113 0.0
O254 O 0.22357 0.25502 0.92138 0.0
C255 C 0.26304 0.21905 0.86442 0.0
O256 O 0.21721 0.25827 0.86019 0.0
Co257 Co 0.27595 0.27 0.83613 0.0
O258 O 0.2387 0.26766 0.82089 0.0
C259 C 0.26349 0.31181 0.87613 0.0
C260 C 0.24582 0.2505 0.9349 0.0
C261 C 0.21713 0.26373 0.83459 0.0
O262 O 0.25024 0.29434 0.89033 0.0
O263 O 0.27922 0.30492 0.85667 0.0
O264 O 0.24532 0.21418 0.88324 0.0
O265 O 0.27283 0.24336 0.86455 0.0
Co266 Co 0.73604 0.24834 0.89055 0.0
O267 O 0.74061 0.2695 0.92291 0.0
O268 O 0.73231 0.22517 0.92199 0.0
C269 C 0.77175 0.26429 0.86709 0.0
O270 O 0.73127 0.22021 0.86066 0.0
Co271 Co 0.72274 0.27972 0.83712 0.0
O272 O 0.72501 0.24268 0.82118 0.0
C273 C 0.67899 0.2682 0.87528 0.0
C274 C 0.73706 0.24701 0.93613 0.0
C275 C 0.7274 0.22073 0.83478 0.0
O276 O 0.69546 0.25429 0.89011 0.0
O277 O 0.68696 0.2834 0.85579 0.0
O278 O 0.7753 0.246 0.88578 0.0
O279 O 0.74797 0.27522 0.86666 0.0
Co280 Co 0.73871 0.73864 0.88918 0.0
O281 O 0.71772 0.74419 0.92146 0.0
O282 O 0.762 0.73616 0.92059 0.0
C283 C 0.72232 0.77346 0.86437 0.0
O284 O 0.76677 0.73302 0.85952 0.0
Co285 Co 0.70769 0.72294 0.83634 0.0
O286 O 0.74458 0.72483 0.82029 0.0
C287 C 0.71919 0.6808 0.87647 0.0
C288 C 0.74027 0.74113 0.93468 0.0
C289 C 0.7664 0.72805 0.83384 0.0
O290 O 0.73318 0.69793 0.89039 0.0
O291 O 0.7039 0.68795 0.8567 0.0
O292 O 0.74055 0.77784 0.88292 0.0
O293 O 0.71172 0.74948 0.86479 0.0
Co294 Co 0.7359 0.74053 0.09673 0.0
O295 O 0.74095 0.72011 0.06399 0.0
O296 O 0.7321 0.76433 0.06576 0.0
C297 C 0.77171 0.72442 0.12019 0.0
O298 O 0.73059 0.768 0.12705 0.0
Co299 Co 0.7227 0.70812 0.14948 0.0
O300 O 0.72442 0.74488 0.16612 0.0
C301 C 0.67891 0.72023 0.11124 0.0
C302 C 0.73724 0.74285 0.05122 0.0
C303 C 0.72656 0.76706 0.15286 0.0
O304 O 0.69539 0.73422 0.0966 0.0
O305 O 0.68682 0.70495 0.13074 0.0
O306 O 0.77511 0.74314 0.10193 0.0
O307 O 0.74804 0.71328 0.12025 0.0
Co308 Co 0.24378 0.73533 0.0969 0.0
O309 O 0.2651 0.73991 0.06478 0.0
O310 O 0.22066 0.73288 0.06528 0.0
C311 C 0.2608 0.77023 0.1211 0.0
O312 O 0.21559 0.7307 0.12662 0.0
Co313 Co 0.27481 0.71991 0.14995 0.0
O314 O 0.23788 0.72237 0.16581 0.0
C315 C 0.26191 0.67727 0.1108 0.0
C316 C 0.24264 0.73723 0.05138 0.0
C317 C 0.21604 0.72583 0.15232 0.0
O318 O 0.24844 0.69449 0.09644 0.0
O319 O 0.27753 0.68441 0.1303 0.0
O320 O 0.24264 0.77468 0.10251 0.0
O321 O 0.2709 0.74603 0.12111 0.0
Co322 Co 0.73681 0.25193 0.09829 0.0
O323 O 0.71609 0.24695 0.06569 0.0
O324 O 0.7602 0.25569 0.06712 0.0
C325 C 0.72096 0.21601 0.12173 0.0
O326 O 0.7646 0.25719 0.1284 0.0
Co327 Co 0.70527 0.26517 0.15144 0.0
O328 O 0.74205 0.26266 0.1678 0.0
C329 C 0.71693 0.30915 0.11321 0.0
C330 C 0.73864 0.25059 0.05274 0.0
C331 C 0.76401 0.26077 0.15432 0.0
O332 O 0.73053 0.29256 0.09829 0.0
O333 O 0.70207 0.30128 0.13298 0.0
O334 O 0.73943 0.21262 0.1033 0.0
O335 O 0.7099 0.2398 0.12204 0.0
Co336 Co 0.5948 0.75321 0.74603 0.0
O337 O 0.56253 0.75139 0.7675 0.0
O338 O 0.56345 0.75453 0.72248 0.0
C339 C 0.61799 0.71862 0.76514 0.0
O340 O 0.62475 0.75532 0.71779 0.0
Co341 Co 0.64783 0.76894 0.77681 0.0
O342 O 0.66368 0.76485 0.73997 0.0
C343 C 0.60963 0.81168 0.76178 0.0
C344 C 0.5494 0.75252 0.74473 0.0
C345 C 0.65039 0.76024 0.71819 0.0
O346 O 0.59553 0.7943 0.74826 0.0
O347 O 0.62842 0.80464 0.77831 0.0
O348 O 0.59921 0.71373 0.74733 0.0
O349 O 0.61857 0.74333 0.77397 0.0
Co350 Co 0.23198 0.59715 0.74545 0.0
O351 O 0.23656 0.56492 0.76676 0.0
O352 O 0.22824 0.56555 0.72243 0.0
C353 C 0.26786 0.62051 0.76141 0.0
O354 O 0.22718 0.627 0.71729 0.0
Co355 Co 0.21891 0.65062 0.77687 0.0
O356 O 0.22075 0.66645 0.73978 0.0
C357 C 0.17493 0.61275 0.76482 0.0
C358 C 0.23313 0.55156 0.74434 0.0
C359 C 0.2231 0.65286 0.71784 0.0
O360 O 0.19139 0.59768 0.75124 0.0
O361 O 0.18293 0.63222 0.78008 0.0
O362 O 0.27127 0.60183 0.74313 0.0
O363 O 0.24408 0.62109 0.77227 0.0
Co364 Co 0.3887 0.23691 0.74524 0.0
O365 O 0.42009 0.23992 0.76791 0.0
O366 O 0.42091 0.23618 0.72297 0.0
C367 C 0.36381 0.27091 0.76306 0.0
O368 O 0.35972 0.23354 0.71598 0.0
Co369 Co 0.33555 0.21952 0.77463 0.0
O370 O 0.32075 0.22229 0.73717 0.0
C371 C 0.37572 0.17825 0.76166 0.0
C372 C 0.43414 0.23868 0.74574 0.0
C373 C 0.33434 0.22739 0.71573 0.0
O374 O 0.38921 0.19589 0.74793 0.0
O375 O 0.35665 0.18491 0.77792 0.0
O376 O 0.383 0.27628 0.74591 0.0
O377 O 0.36378 0.24629 0.77215 0.0
Co378 Co 0.74986 0.39019 0.74968 0.0
O379 O 0.74459 0.42215 0.77129 0.0
O380 O 0.75305 0.42207 0.72702 0.0
C381 C 0.71449 0.36586 0.76499 0.0
O382 O 0.75519 0.36077 0.72112 0.0
Co383 Co 0.76399 0.33653 0.78023 0.0
O384 O 0.76161 0.321 0.74304 0.0
C385 C 0.80705 0.37577 0.76976 0.0
C386 C 0.74782 0.43578 0.74901 0.0
C387 C 0.75914 0.33488 0.72127 0.0
O388 O 0.79042 0.39042 0.75586 0.0
O389 O 0.79931 0.35595 0.78467 0.0
O390 O 0.71073 0.38483 0.74704 0.0
O391 O 0.73821 0.36563 0.77609 0.0
Co392 Co 0.59669 0.23473 0.24248 0.0
O393 O 0.56434 0.23951 0.22147 0.0
O394 O 0.56543 0.23131 0.26581 0.0
C395 C 0.62014 0.27041 0.22618 0.0
O396 O 0.62669 0.22981 0.27043 0.0
Co397 Co 0.64963 0.22096 0.21087 0.0
O398 O 0.66585 0.22312 0.24779 0.0
C399 C 0.61133 0.17735 0.2229 0.0
C400 C 0.55126 0.23617 0.24401 0.0
C401 C 0.65246 0.22568 0.26979 0.0
O402 O 0.59673 0.19403 0.23673 0.0
O403 O 0.63077 0.18512 0.2076 0.0
O404 O 0.60173 0.27409 0.24461 0.0
O405 O 0.62041 0.24649 0.21542 0.0
Co406 Co 0.75317 0.59766 0.23856 0.0
O407 O 0.74848 0.56529 0.21747 0.0
O408 O 0.75677 0.56629 0.26183 0.0
C409 C 0.71742 0.62112 0.22241 0.0
O410 O 0.7579 0.6275 0.26673 0.0
Co411 Co 0.76646 0.65123 0.20765 0.0
O412 O 0.76362 0.66721 0.24462 0.0
C413 C 0.81022 0.61272 0.21892 0.0
C414 C 0.75179 0.55214 0.24006 0.0
C415 C 0.76137 0.65343 0.26645 0.0
O416 O 0.79375 0.59788 0.2327 0.0
O417 O 0.80227 0.63248 0.20398 0.0
O418 O 0.71394 0.60249 0.24074 0.0
O419 O 0.74125 0.62167 0.21164 0.0
Co420 Co 0.38837 0.75001 0.23859 0.0
O421 O 0.42021 0.74502 0.21686 0.0
O422 O 0.42015 0.75226 0.26137 0.0
C423 C 0.36368 0.71523 0.22211 0.0
O424 O 0.35922 0.75491 0.26732 0.0
Co425 Co 0.33498 0.76567 0.20852 0.0
O426 O 0.31967 0.763 0.24574 0.0
C427 C 0.3746 0.80807 0.22022 0.0
C428 C 0.43381 0.74759 0.23927 0.0
C429 C 0.33355 0.75961 0.26737 0.0
O430 O 0.38901 0.79087 0.23369 0.0
O431 O 0.35481 0.80092 0.20501 0.0
O432 O 0.38255 0.71073 0.23996 0.0
O433 O 0.36368 0.73936 0.21182 0.0
Co434 Co 0.23522 0.3885 0.2346 0.0
O435 O 0.24044 0.42088 0.21354 0.0
O436 O 0.23108 0.4199 0.25763 0.0
C437 C 0.27116 0.36465 0.21962 0.0
O438 O 0.22967 0.35891 0.26284 0.0
Co439 Co 0.22237 0.3347 0.20384 0.0
O440 O 0.22379 0.31904 0.24105 0.0
C441 C 0.17861 0.37355 0.21348 0.0
C442 C 0.23637 0.43407 0.23597 0.0
C443 C 0.22575 0.33305 0.26277 0.0
O444 O 0.19481 0.3884 0.22763 0.0
O445 O 0.18682 0.35367 0.19888 0.0
O446 O 0.27437 0.38343 0.23786 0.0
O447 O 0.2476 0.36424 0.20817 0.0
Co448 Co 0.74286 0.59786 0.75558 0.0
O449 O 0.76436 0.56577 0.75097 0.0
O450 O 0.72003 0.5661 0.75854 0.0
C451 C 0.75931 0.62169 0.72019 0.0
O452 O 0.71451 0.62759 0.7603 0.0
Co453 Co 0.77372 0.65125 0.76995 0.0
O454 O 0.73667 0.66699 0.76774 0.0
C455 C 0.76206 0.61232 0.81307 0.0
C456 C 0.74204 0.55226 0.75387 0.0
C457 C 0.71485 0.65339 0.76479 0.0
O458 O 0.74817 0.59784 0.79632 0.0
O459 O 0.7776 0.63163 0.80535 0.0
O460 O 0.74115 0.60304 0.71622 0.0
O461 O 0.76968 0.62207 0.74427 0.0
Co462 Co 0.38804 0.74616 0.75235 0.0
O463 O 0.41958 0.76862 0.74987 0.0
O464 O 0.42018 0.72361 0.75297 0.0
C465 C 0.36354 0.76462 0.71834 0.0
O466 O 0.35881 0.71712 0.75511 0.0
Co467 Co 0.33496 0.77599 0.76954 0.0
O468 O 0.3199 0.73873 0.76601 0.0
C469 C 0.37456 0.76193 0.81107 0.0
C470 C 0.43352 0.74632 0.75075 0.0
C471 C 0.33334 0.71715 0.7609 0.0
O472 O 0.38819 0.74833 0.79341 0.0
O473 O 0.35573 0.77854 0.80439 0.0
O474 O 0.38269 0.74736 0.71298 0.0
O475 O 0.36337 0.77343 0.74304 0.0
Co476 Co 0.23711 0.38946 0.75109 0.0
O477 O 0.21552 0.42146 0.74596 0.0
O478 O 0.25979 0.42127 0.75407 0.0
C479 C 0.22118 0.36518 0.71574 0.0
O480 O 0.26566 0.36002 0.75634 0.0
Co481 Co 0.20677 0.3359 0.76553 0.0
O482 O 0.24384 0.32032 0.76282 0.0
C483 C 0.218 0.37513 0.80866 0.0
C484 C 0.2378 0.43504 0.74906 0.0
C485 C 0.26554 0.33414 0.76037 0.0
O486 O 0.23147 0.38983 0.79179 0.0
O487 O 0.20318 0.35516 0.80114 0.0
O488 O 0.23918 0.38398 0.71183 0.0
O489 O 0.21054 0.36495 0.73967 0.0
Co490 Co 0.59538 0.2405 0.75224 0.0
O491 O 0.56281 0.21945 0.75007 0.0
O492 O 0.56444 0.26442 0.75427 0.0
C493 C 0.61815 0.22199 0.71717 0.0
O494 O 0.62551 0.26846 0.75487 0.0
Co495 Co 0.64836 0.20913 0.76698 0.0
O496 O 0.66437 0.24606 0.76414 0.0
C497 C 0.61085 0.22387 0.8103 0.0
C498 C 0.55006 0.24242 0.75179 0.0
C499 C 0.6511 0.26795 0.75998 0.0
O500 O 0.5964 0.23745 0.79322 0.0
O501 O 0.62954 0.20743 0.80292 0.0
O502 O 0.59947 0.24004 0.71277 0.0
O503 O 0.61883 0.21256 0.74165 0.0
Co504 Co 0.74574 0.39018 0.23574 0.0
O505 O 0.76768 0.422 0.23989 0.0
O506 O 0.72308 0.42213 0.23376 0.0
C507 C 0.76308 0.36563 0.27028 0.0
O508 O 0.71697 0.3609 0.23167 0.0
Co509 Co 0.77571 0.33678 0.21957 0.0
O510 O 0.73854 0.32153 0.22237 0.0
C511 C 0.76248 0.37617 0.17735 0.0
C512 C 0.74536 0.43573 0.23767 0.0
C513 C 0.71698 0.33525 0.22647 0.0
O514 O 0.74944 0.39057 0.19482 0.0
O515 O 0.77823 0.35666 0.18422 0.0
O516 O 0.74541 0.38458 0.27509 0.0
O517 O 0.77268 0.3655 0.24591 0.0
Co518 Co 0.59542 0.74447 0.23339 0.0
O519 O 0.56311 0.76558 0.23778 0.0
O520 O 0.5641 0.72113 0.23007 0.0
C521 C 0.61882 0.7611 0.26905 0.0
O522 O 0.6254 0.71647 0.22886 0.0
Co523 Co 0.64834 0.77624 0.21962 0.0
O524 O 0.66441 0.73924 0.22164 0.0
C525 C 0.61036 0.76344 0.17594 0.0
C526 C 0.54997 0.743 0.23469 0.0
C527 C 0.65111 0.7172 0.22445 0.0
O528 O 0.59568 0.74974 0.19263 0.0
O529 O 0.62946 0.7792 0.18375 0.0
O530 O 0.60036 0.74272 0.2728 0.0
O531 O 0.61915 0.77164 0.24504 0.0
Co532 Co 0.23793 0.59636 0.23434 0.0
O533 O 0.21682 0.56401 0.2389 0.0
O534 O 0.26098 0.56491 0.23035 0.0
C535 C 0.2222 0.61986 0.2703 0.0
O536 O 0.26606 0.6261 0.22945 0.0
Co537 Co 0.20693 0.65 0.2212 0.0
O538 O 0.24398 0.66574 0.22304 0.0
C539 C 0.21804 0.61171 0.17725 0.0
C540 C 0.23921 0.55077 0.23507 0.0
C541 C 0.26576 0.65194 0.22539 0.0
O542 O 0.23181 0.59678 0.19372 0.0
O543 O 0.20308 0.63139 0.18526 0.0
O544 O 0.24043 0.60111 0.27371 0.0
O545 O 0.21125 0.62043 0.24647 0.0
Co546 Co 0.38968 0.2386 0.23639 0.0
O547 O 0.42173 0.21719 0.24187 0.0
O548 O 0.42118 0.26168 0.23433 0.0
C549 C 0.36476 0.22214 0.27096 0.0
O550 O 0.36029 0.26703 0.23088 0.0
Co551 Co 0.33683 0.20784 0.22029 0.0
O552 O 0.32126 0.2451 0.22148 0.0
C553 C 0.37663 0.21989 0.17836 0.0
C554 C 0.43507 0.23972 0.23926 0.0
C555 C 0.33482 0.26686 0.22517 0.0
O556 O 0.39074 0.23356 0.19561 0.0
O557 O 0.3573 0.20413 0.18546 0.0
O558 O 0.3834 0.24016 0.27557 0.0
O559 O 0.36516 0.21168 0.24692 0.0
Co560 Co 0.75039 0.74434 0.59719 0.0
O561 O 0.74521 0.76529 0.56483 0.0
O562 O 0.75344 0.72092 0.56584 0.0
C563 C 0.71505 0.76059 0.62106 0.0
O564 O 0.75561 0.7165 0.6273 0.0
Co565 Co 0.76473 0.77632 0.64994 0.0
O566 O 0.76247 0.73949 0.66636 0.0
C567 C 0.80771 0.76429 0.61108 0.0
C568 C 0.74831 0.74269 0.55169 0.0
C569 C 0.75981 0.71736 0.65312 0.0
O570 O 0.79098 0.75014 0.59683 0.0
O571 O 0.80009 0.77985 0.63044 0.0
O572 O 0.71122 0.74215 0.6026 0.0
O573 O 0.73886 0.77146 0.62106 0.0
Co574 Co 0.75325 0.24049 0.39058 0.0
O575 O 0.7481 0.21946 0.42293 0.0
O576 O 0.75626 0.26382 0.422 0.0
C577 C 0.7179 0.22427 0.36657 0.0
O578 O 0.75841 0.26858 0.36072 0.0
Co579 Co 0.76746 0.20917 0.33747 0.0
O580 O 0.76512 0.24615 0.32136 0.0
C581 C 0.81041 0.22023 0.37673 0.0
C582 C 0.7511 0.24206 0.43611 0.0
C583 C 0.7625 0.26811 0.33489 0.0
O584 O 0.79385 0.23458 0.39097 0.0
O585 O 0.80255 0.20473 0.3574 0.0
O586 O 0.71407 0.24266 0.38507 0.0
O587 O 0.74176 0.21351 0.36649 0.0
Co588 Co 0.74352 0.75067 0.38993 0.0
O589 O 0.76504 0.74551 0.42195 0.0
O590 O 0.7205 0.75196 0.42158 0.0
C591 C 0.76088 0.71663 0.36481 0.0
O592 O 0.71507 0.75562 0.36037 0.0
Co593 Co 0.77399 0.76796 0.33732 0.0
O594 O 0.73704 0.7653 0.32142 0.0
C595 C 0.76137 0.80915 0.37785 0.0
C596 C 0.74258 0.74746 0.43539 0.0
C597 C 0.71532 0.76109 0.33478 0.0
O598 O 0.74763 0.79156 0.3914 0.0
O599 O 0.77734 0.80248 0.35853 0.0
O600 O 0.74296 0.71147 0.38336 0.0
O601 O 0.77064 0.74096 0.36538 0.0
Co602 Co 0.23584 0.74526 0.39047 0.0
O603 O 0.24121 0.76705 0.42227 0.0
O604 O 0.23324 0.72265 0.42245 0.0
C605 C 0.27069 0.76119 0.36567 0.0
O606 O 0.23034 0.7166 0.36116 0.0
Co607 Co 0.22048 0.7759 0.33716 0.0
O608 O 0.22195 0.73857 0.32179 0.0
C609 C 0.17828 0.76483 0.377 0.0
C610 C 0.23817 0.74481 0.43602 0.0
C611 C 0.22518 0.71679 0.3355 0.0
O612 O 0.19522 0.75085 0.39119 0.0
O613 O 0.18565 0.78025 0.35743 0.0
O614 O 0.27499 0.74321 0.38449 0.0
O615 O 0.24678 0.77183 0.36578 0.0
Co616 Co 0.23734 0.23676 0.38748 0.0
O617 O 0.21594 0.24278 0.41941 0.0
O618 O 0.2602 0.23456 0.41917 0.0
C619 C 0.2215 0.2713 0.36197 0.0
O620 O 0.26582 0.23067 0.35833 0.0
Co621 Co 0.20717 0.22047 0.33437 0.0
O622 O 0.24432 0.22195 0.31885 0.0
C623 C 0.21761 0.17889 0.37527 0.0
C624 C 0.23832 0.23977 0.43294 0.0
C625 C 0.26591 0.22534 0.33273 0.0
O626 O 0.23162 0.19609 0.38909 0.0
O627 O 0.20252 0.18595 0.35531 0.0
O628 O 0.23942 0.27585 0.38077 0.0
O629 O 0.21077 0.24739 0.36253 0.0
Co630 Co 0.23388 0.24099 0.59496 0.0
O631 O 0.23878 0.2202 0.56246 0.0
O632 O 0.22964 0.26438 0.56373 0.0
C633 C 0.26998 0.22542 0.61829 0.0
O634 O 0.22864 0.26879 0.62501 0.0
Co635 Co 0.22136 0.20907 0.64819 0.0
O636 O 0.22252 0.24608 0.66434 0.0
C637 C 0.1773 0.22015 0.61009 0.0
C638 C 0.23483 0.24275 0.54944 0.0
C639 C 0.22458 0.26812 0.65082 0.0
O640 O 0.19344 0.23438 0.59531 0.0
O641 O 0.18565 0.20482 0.62937 0.0
O642 O 0.27312 0.24394 0.59978 0.0
O643 O 0.24639 0.21413 0.61867 0.0
Co644 Co 0.7436 0.23644 0.59797 0.0
O645 O 0.76537 0.24219 0.56631 0.0
O646 O 0.72109 0.2343 0.56588 0.0
C647 C 0.75959 0.27107 0.62328 0.0
O648 O 0.71501 0.23053 0.62714 0.0
Co649 Co 0.77412 0.22023 0.65105 0.0
O650 O 0.73691 0.22145 0.66638 0.0
C651 C 0.76295 0.1785 0.61057 0.0
C652 C 0.74322 0.23934 0.55244 0.0
C653 C 0.71518 0.2249 0.6527 0.0
O654 O 0.74906 0.19573 0.59663 0.0
O655 O 0.7784 0.18558 0.63022 0.0
O656 O 0.74165 0.27564 0.60451 0.0
O657 O 0.7701 0.24705 0.62289 0.0
Co658 Co 0.23865 0.75423 0.59795 0.0
O659 O 0.21774 0.74952 0.56545 0.0
O660 O 0.26205 0.7572 0.56667 0.0
C661 C 0.22198 0.71872 0.62146 0.0
O662 O 0.26657 0.75897 0.62804 0.0
Co663 Co 0.2073 0.7683 0.65104 0.0
O664 O 0.24407 0.76544 0.66734 0.0
C665 C 0.21971 0.81181 0.61258 0.0
C666 C 0.24034 0.75235 0.5524 0.0
C667 C 0.26601 0.7629 0.65391 0.0
O668 O 0.23328 0.795 0.59787 0.0
O669 O 0.2044 0.80417 0.63209 0.0
O670 O 0.24038 0.71488 0.60307 0.0
O671 O 0.21149 0.74277 0.62174 0.0
C672 C 0.977 0.22682 0.23368 0.0
C673 C 0.96265 0.24817 0.24596 0.0
H674 H 0.01603 0.21182 0.22134 0.0
C675 C 0.97675 0.27123 0.25501 0.0
H676 H 0.96648 0.20896 0.22634 0.0
C677 C 0.00485 0.27261 0.25257 0.0
C678 C 0.01913 0.2514 0.2402 0.0
H679 H 0.96611 0.28795 0.26455 0.0
H680 H 0.01547 0.29017 0.2605 0.0
C681 C 0.00513 0.22858 0.23052 0.0
C682 C 0.72193 0.97605 0.23095 0.0
C683 C 0.73977 0.96316 0.24914 0.0
H684 H 0.70728 0.01392 0.215 0.0
C685 C 0.75718 0.97891 0.26517 0.0
H686 H 0.70842 0.96422 0.21825 0.0
C687 C 0.75597 0.00723 0.26384 0.0
C688 C 0.73799 0.02012 0.2458 0.0
H689 H 0.77105 0.96937 0.27935 0.0
H690 H 0.76908 0.01907 0.27694 0.0
C691 C 0.72135 0.00436 0.22897 0.0
C692 C 0.00626 0.75388 0.27235 0.0
C693 C 0.02187 0.74487 0.25045 0.0
H694 H 0.96641 0.75831 0.28878 0.0
C695 C 0.00906 0.73462 0.22715 0.0
H696 H 0.0159 0.76156 0.29059 0.0
C697 C 0.98083 0.73322 0.22581 0.0
C698 C 0.96511 0.7413 0.2481 0.0
H699 H 0.02094 0.72753 0.21008 0.0
H700 H 0.97139 0.72512 0.20767 0.0
C701 C 0.97805 0.75181 0.27133 0.0
C702 C 0.2292 0.97711 0.26551 0.0
C703 C 0.24724 0.96485 0.24714 0.0
H704 H 0.21275 0.01444 0.28094 0.0
C705 C 0.26248 0.98119 0.2296 0.0
H706 H 0.21711 0.96482 0.27913 0.0
C707 C 0.26053 0.00946 0.23121 0.0
C708 C 0.24263 0.02172 0.2497 0.0
H709 H 0.27652 0.97215 0.21533 0.0
H710 H 0.27306 0.02177 0.21801 0.0
C711 C 0.22657 0.00537 0.26647 0.0
C712 C 0.9764 0.72546 0.75708 0.0
C713 C 0.96322 0.74345 0.73925 0.0
H714 H 0.01444 0.71071 0.7723 0.0
C715 C 0.97863 0.76101 0.72309 0.0
H716 H 0.96483 0.71181 0.76985 0.0
C717 C 0.00689 0.7598 0.72394 0.0
C718 C 0.02007 0.74167 0.74163 0.0
H719 H 0.96886 0.77499 0.70916 0.0
H720 H 0.01846 0.77303 0.71075 0.0
C721 C 0.00466 0.72489 0.75859 0.0
C722 C 0.26618 0.00739 0.75915 0.0
C723 C 0.24897 0.02295 0.74267 0.0
H724 H 0.27904 0.96733 0.77043 0.0
C725 C 0.22995 0.00987 0.72593 0.0
H726 H 0.28103 0.0171 0.77214 0.0
C727 C 0.22826 0.98156 0.72553 0.0
C728 C 0.24617 0.96596 0.7412 0.0
H729 H 0.21638 0.02157 0.71315 0.0
H730 H 0.21358 0.97189 0.71233 0.0
C731 C 0.26509 0.97904 0.75808 0.0
C732 C 0.00726 0.26324 0.7183 0.0
C733 C 0.02139 0.24636 0.73635 0.0
H734 H 0.96852 0.27792 0.70521 0.0
C735 C 0.00714 0.23168 0.75613 0.0
H736 H 0.01802 0.27488 0.70308 0.0
C737 C 0.97897 0.23431 0.7581 0.0
C738 C 0.96482 0.25091 0.73972 0.0
H739 H 0.01785 0.21885 0.77045 0.0
H740 H 0.9682 0.223 0.77356 0.0
C741 C 0.97911 0.26507 0.71962 0.0
C742 C 0.75802 0.00823 0.72058 0.0
C743 C 0.7417 0.0239 0.73779 0.0
H744 H 0.76828 0.96818 0.70692 0.0
C745 C 0.72404 0.01087 0.75596 0.0
H746 H 0.77167 0.01789 0.70633 0.0
C747 C 0.72263 0.98253 0.75683 0.0
C748 C 0.73818 0.96689 0.7389 0.0
H749 H 0.71131 0.02261 0.76948 0.0
H750 H 0.70879 0.97291 0.7709 0.0
C751 C 0.75595 0.97991 0.72083 0.0
C752 C 0.26661 0.22828 0.00533 0.0
C753 C 0.24919 0.24387 0.02147 0.0
H754 H 0.27952 0.21876 0.9649 0.0
C755 C 0.22982 0.26074 0.00901 0.0
H756 H 0.28174 0.21525 0.01456 0.0
C757 C 0.22801 0.26218 0.98075 0.0
C758 C 0.24615 0.24747 0.96459 0.0
H759 H 0.21609 0.27286 0.02117 0.0
H760 H 0.21306 0.27547 0.97158 0.0
C761 C 0.26539 0.23042 0.97705 0.0
C762 C 0.26188 0.75785 0.98028 0.0
C763 C 0.24579 0.74034 0.96468 0.0
H764 H 0.27376 0.77009 0.0203 0.0
C765 C 0.22763 0.72266 0.97772 0.0
H766 H 0.27603 0.7716 0.97063 0.0
C767 C 0.22572 0.72238 0.00602 0.0
C768 C 0.24259 0.73913 0.02163 0.0
H769 H 0.2149 0.70908 0.96601 0.0
H770 H 0.21178 0.70843 0.01571 0.0
C771 C 0.26061 0.75692 0.00858 0.0
C772 C 0.756 0.26467 0.97953 0.0
C773 C 0.73854 0.24667 0.96594 0.0
H774 H 0.77026 0.27948 0.01796 0.0
C775 C 0.72193 0.22927 0.98105 0.0
H776 H 0.76909 0.27821 0.96822 0.0
C777 C 0.72205 0.23058 0.00939 0.0
C778 C 0.73943 0.24866 0.02298 0.0
H779 H 0.70826 0.21531 0.97096 0.0
H780 H 0.70858 0.21742 0.0207 0.0
C781 C 0.75677 0.26534 0.00788 0.0
C782 C 0.7586 0.72665 0.97957 0.0
C783 C 0.74079 0.74292 0.96446 0.0
H784 H 0.77091 0.71355 0.0192 0.0
C785 C 0.72258 0.76014 0.97804 0.0
H786 H 0.77273 0.71315 0.9695 0.0
C787 C 0.72206 0.76096 0.0064 0.0
C788 C 0.73913 0.74388 0.02148 0.0
H789 H 0.70871 0.77295 0.96672 0.0
H790 H 0.70772 0.77421 0.0165 0.0
C791 C 0.75746 0.72681 0.0079 0.0
C792 C 0.50601 0.72999 0.73202 0.0
C793 C 0.51977 0.75148 0.74468 0.0
H794 H 0.46748 0.71091 0.72488 0.0
C795 C 0.5052 0.77083 0.75953 0.0
H796 H 0.51709 0.71465 0.72082 0.0
C797 C 0.47708 0.76906 0.76135 0.0
C798 C 0.46323 0.74732 0.74919 0.0
H799 H 0.51559 0.78736 0.76967 0.0
H800 H 0.46618 0.78445 0.77266 0.0
C801 C 0.47785 0.72768 0.73462 0.0
C802 C 0.21956 0.47773 0.72893 0.0
C803 C 0.23779 0.4648 0.74671 0.0
H804 H 0.20435 0.51566 0.71364 0.0
C805 C 0.25519 0.48053 0.76277 0.0
H806 H 0.20603 0.46592 0.71625 0.0
C807 C 0.25365 0.50885 0.76183 0.0
C808 C 0.23534 0.52179 0.74416 0.0
H809 H 0.26933 0.47097 0.77666 0.0
H810 H 0.26681 0.52066 0.77491 0.0
C811 C 0.21866 0.50607 0.72733 0.0
C812 C 0.47744 0.22893 0.76949 0.0
C813 C 0.46385 0.23987 0.74692 0.0
H814 H 0.5158 0.22091 0.78838 0.0
C815 C 0.4788 0.25256 0.72628 0.0
H816 H 0.4663 0.21901 0.78563 0.0
C817 C 0.50701 0.25448 0.7284 0.0
C818 C 0.52048 0.24306 0.75076 0.0
H819 H 0.46866 0.2613 0.70881 0.0
H820 H 0.51836 0.26422 0.7123 0.0
C821 C 0.50561 0.2301 0.77116 0.0
C822 C 0.72705 0.47826 0.76691 0.0
C823 C 0.74522 0.46553 0.74899 0.0
H824 H 0.7112 0.516 0.78193 0.0
C825 C 0.76135 0.48146 0.73188 0.0
H826 H 0.7143 0.4663 0.7802 0.0
C827 C 0.76012 0.50976 0.73345 0.0
C828 C 0.74209 0.5225 0.75149 0.0
H829 H 0.77552 0.47205 0.71797 0.0
H830 H 0.77328 0.52173 0.72056 0.0
C831 C 0.72517 0.50658 0.76783 0.0
C832 C 0.48023 0.25804 0.22621 0.0
C833 C 0.46474 0.24005 0.2418 0.0
H834 H 0.52009 0.27041 0.21438 0.0
C835 C 0.47784 0.22158 0.25922 0.0
H836 H 0.47054 0.27239 0.2126 0.0
C837 C 0.50611 0.221 0.26086 0.0
C838 C 0.52158 0.23824 0.24442 0.0
H839 H 0.46622 0.20759 0.27155 0.0
H840 H 0.51585 0.20645 0.27421 0.0
C841 C 0.50847 0.25683 0.22717 0.0
C842 C 0.72804 0.48123 0.22374 0.0
C843 C 0.74574 0.46551 0.23953 0.0
H844 H 0.71667 0.52133 0.21114 0.0
C845 C 0.76479 0.47845 0.25637 0.0
H846 H 0.71328 0.47164 0.21056 0.0
C847 C 0.76622 0.50677 0.25731 0.0
C848 C 0.74923 0.52245 0.24072 0.0
H849 H 0.7786 0.46664 0.2688 0.0
H850 H 0.78114 0.51637 0.27029 0.0
C851 C 0.73009 0.50953 0.22399 0.0
C852 C 0.50464 0.72614 0.21987 0.0
C853 C 0.52031 0.74262 0.23694 0.0
H854 H 0.46459 0.71538 0.20686 0.0
C855 C 0.50741 0.75988 0.25562 0.0
H856 H 0.51422 0.71278 0.20526 0.0
C857 C 0.47918 0.7608 0.2571 0.0
C858 C 0.46348 0.74516 0.23928 0.0
H859 H 0.51919 0.77269 0.26908 0.0
H860 H 0.46965 0.7744 0.27153 0.0
C861 C 0.47638 0.72775 0.22072 0.0
C862 C 0.25683 0.506 0.21921 0.0
C863 C 0.23957 0.52095 0.23615 0.0
H864 H 0.26879 0.46646 0.20547 0.0
C865 C 0.22181 0.50717 0.25364 0.0
H866 H 0.27059 0.51625 0.2055 0.0
C867 C 0.2213 0.47881 0.25419 0.0
C868 C 0.23792 0.46387 0.23661 0.0
H869 H 0.20837 0.51835 0.26696 0.0
H870 H 0.20741 0.46859 0.26779 0.0
C871 C 0.25569 0.47764 0.21912 0.0
C872 C 0.7624 0.72567 0.50616 0.0
C873 C 0.74556 0.74218 0.52201 0.0
H874 H 0.77497 0.71496 0.46592 0.0
C875 C 0.7267 0.75939 0.50925 0.0
H876 H 0.77713 0.71234 0.51562 0.0
C877 C 0.72488 0.76031 0.48096 0.0
C878 C 0.74255 0.74471 0.46509 0.0
H879 H 0.71341 0.77221 0.52117 0.0
H880 H 0.71041 0.77394 0.47153 0.0
C881 C 0.76122 0.72728 0.47785 0.0
C882 C 0.72942 0.22524 0.47845 0.0
C883 C 0.74799 0.24274 0.46578 0.0
H884 H 0.71273 0.21107 0.51608 0.0
C885 C 0.76392 0.26011 0.4817 0.0
H886 H 0.71679 0.21178 0.46649 0.0
C887 C 0.76211 0.25914 0.50999 0.0
C888 C 0.74369 0.24147 0.52268 0.0
H889 H 0.77839 0.27372 0.47232 0.0
H890 H 0.77517 0.27215 0.52199 0.0
C891 C 0.72696 0.22493 0.50671 0.0
C892 C 0.22287 0.72899 0.48154 0.0
C893 C 0.24005 0.7452 0.4658 0.0
H894 H 0.20913 0.71915 0.52159 0.0
C895 C 0.25819 0.76305 0.4787 0.0
H896 H 0.20865 0.71521 0.47198 0.0
C897 C 0.25902 0.76477 0.50701 0.0
C898 C 0.24106 0.74936 0.52272 0.0
H899 H 0.27169 0.77571 0.46686 0.0
H900 H 0.27303 0.77877 0.51656 0.0
C901 C 0.22306 0.73138 0.50981 0.0
C902 C 0.21953 0.26019 0.50436 0.0
C903 C 0.23669 0.24343 0.51969 0.0
H904 H 0.20624 0.27164 0.46449 0.0
C905 C 0.25518 0.22633 0.50637 0.0
H906 H 0.20507 0.27346 0.51427 0.0
C907 C 0.25641 0.22586 0.47806 0.0
C908 C 0.23855 0.24182 0.4627 0.0
H909 H 0.26871 0.21332 0.51786 0.0
H910 H 0.27069 0.21236 0.4682 0.0
C911 C 0.22014 0.25906 0.47601 0.0
C912 C 0.16403 0.15748 0.25298 0.0
C913 C 0.18768 0.16715 0.26557 0.0
H914 H 0.12281 0.16592 0.24204 0.0
C915 C 0.18671 0.19204 0.27955 0.0
H916 H 0.16411 0.13831 0.24218 0.0
C917 C 0.16306 0.20753 0.27996 0.0
C918 C 0.13993 0.19876 0.26593 0.0
H919 H 0.20445 0.19985 0.28981 0.0
H920 H 0.16334 0.2269 0.29035 0.0
C921 C 0.14039 0.17326 0.25299 0.0
C922 C 0.7957 0.18918 0.27991 0.0
C923 C 0.81898 0.19099 0.26362 0.0
H924 H 0.7624 0.16494 0.29306 0.0
C925 C 0.82753 0.16799 0.2491 0.0
H926 H 0.78889 0.20639 0.29175 0.0
C927 C 0.8121 0.14413 0.24967 0.0
C928 C 0.78813 0.14284 0.26505 0.0
H929 H 0.84548 0.16877 0.23651 0.0
H930 H 0.81846 0.12704 0.23736 0.0
C931 C 0.78057 0.16534 0.28078 0.0
C932 C 0.84043 0.81308 0.25598 0.0
C933 C 0.84081 0.78714 0.26799 0.0
H934 H 0.81659 0.84798 0.24531 0.0
C935 C 0.81715 0.77727 0.28021 0.0
H936 H 0.85841 0.82124 0.24644 0.0
C937 C 0.79318 0.79222 0.27903 0.0
C938 C 0.79245 0.81771 0.26613 0.0
H939 H 0.81679 0.7575 0.28981 0.0
H940 H 0.77512 0.78361 0.28791 0.0
C941 C 0.81649 0.82833 0.25526 0.0
C942 C 0.1744 0.84173 0.25367 0.0
C943 C 0.19973 0.84172 0.26682 0.0
H944 H 0.1395 0.81848 0.24208 0.0
C945 C 0.20848 0.81803 0.28005 0.0
H946 H 0.16711 0.85974 0.24333 0.0
C947 C 0.19302 0.79439 0.27882 0.0
C948 C 0.16818 0.79403 0.26483 0.0
H949 H 0.22774 0.81738 0.29055 0.0
H950 H 0.20071 0.77625 0.28859 0.0
C951 C 0.15864 0.81812 0.25288 0.0
C952 C 0.16556 0.78326 0.70661 0.0
C953 C 0.14283 0.79134 0.72165 0.0
H954 H 0.20693 0.79091 0.69678 0.0
C955 C 0.14407 0.81555 0.7368 0.0
H956 H 0.16523 0.7649 0.69452 0.0
C957 C 0.16804 0.83071 0.73783 0.0
C958 C 0.19123 0.82163 0.72407 0.0
H959 H 0.12682 0.82232 0.74856 0.0
H960 H 0.16873 0.84888 0.75022 0.0
C961 C 0.18954 0.79809 0.70802 0.0
C962 C 0.17424 0.1461 0.73857 0.0
C963 C 0.19807 0.14523 0.72295 0.0
H964 H 0.14071 0.17024 0.75236 0.0
C965 C 0.20536 0.16809 0.70761 0.0
H966 H 0.1681 0.12873 0.75058 0.0
C967 C 0.19006 0.19184 0.70909 0.0
C968 C 0.16686 0.19315 0.72554 0.0
H969 H 0.22341 0.16804 0.69517 0.0
H970 H 0.19659 0.20932 0.69747 0.0
C971 C 0.15862 0.16983 0.73969 0.0
C972 C 0.81841 0.21033 0.70613 0.0
C973 C 0.8423 0.20103 0.7185 0.0
H974 H 0.77645 0.20322 0.69862 0.0
C975 C 0.84243 0.17524 0.73085 0.0
H976 H 0.81766 0.22994 0.69625 0.0
C977 C 0.81875 0.15963 0.73189 0.0
C978 C 0.79446 0.16975 0.72095 0.0
H979 H 0.86059 0.1675 0.74052 0.0
H980 H 0.81923 0.14018 0.74216 0.0
C981 C 0.79472 0.19501 0.70759 0.0
C982 C 0.82726 0.81925 0.73481 0.0
C983 C 0.81817 0.79562 0.72171 0.0
H984 H 0.81865 0.86072 0.74496 0.0
C985 C 0.79427 0.7967 0.70622 0.0
H986 H 0.8457 0.81903 0.74677 0.0
C987 C 0.77914 0.82058 0.7047 0.0
C988 C 0.7873 0.84378 0.71911 0.0
H989 H 0.78703 0.77894 0.6955 0.0
H990 H 0.76054 0.82047 0.69303 0.0
C991 C 0.81182 0.84311 0.7337 0.0
C992 C 0.27619 0.16772 0.20895 0.0
C993 C 0.26223 0.1444 0.20048 0.0
H994 H 0.28622 0.20901 0.20055 0.0
C995 C 0.24935 0.14444 0.17496 0.0
H996 H 0.2865 0.16831 0.22835 0.0
C997 C 0.24951 0.16781 0.15874 0.0
C998 C 0.26216 0.1916 0.16803 0.0
H999 H 0.23847 0.12669 0.16788 0.0
H1000 H 0.23882 0.1676 0.13951 0.0
C1001 C 0.27594 0.19112 0.19304 0.0
C1002 C 0.81436 0.25414 0.15851 0.0
C1003 C 0.7898 0.26352 0.16942 0.0
H1004 H 0.85669 0.24715 0.16535 0.0
C1005 C 0.78991 0.27554 0.19533 0.0
H1006 H 0.81497 0.24492 0.13854 0.0
C1007 C 0.81382 0.27742 0.21033 0.0
C1008 C 0.83807 0.26675 0.20008 0.0
H1009 H 0.77143 0.28324 0.20423 0.0
H1010 H 0.81298 0.28629 0.23039 0.0
C1011 C 0.83825 0.25552 0.17381 0.0
C1012 C 0.7072 0.81664 0.20802 0.0
C1013 C 0.7207 0.84031 0.19979 0.0
H1014 H 0.69894 0.77487 0.1998 0.0
C1015 C 0.73459 0.84035 0.17488 0.0
H1016 H 0.69611 0.81597 0.22694 0.0
C1017 C 0.73588 0.81677 0.15905 0.0
C1018 C 0.72369 0.79269 0.16815 0.0
H1019 H 0.74514 0.85836 0.16798 0.0
H1020 H 0.74725 0.81713 0.14027 0.0
C1021 C 0.70893 0.79301 0.19252 0.0
C1022 C 0.14338 0.73682 0.1745 0.0
C1023 C 0.14281 0.7222 0.19905 0.0
H1024 H 0.16708 0.74937 0.14022 0.0
C1025 C 0.16568 0.70708 0.20675 0.0
H1026 H 0.12599 0.74861 0.16801 0.0
C1027 C 0.18921 0.70797 0.19118 0.0
C1028 C 0.19026 0.72357 0.1673 0.0
H1029 H 0.16585 0.69537 0.22535 0.0
H1030 H 0.20676 0.69672 0.19809 0.0
C1031 C 0.16688 0.73733 0.15863 0.0
C1032 C 0.25177 0.84102 0.8146 0.0
C1033 C 0.2653 0.84174 0.7895 0.0
H1034 H 0.23963 0.81673 0.84866 0.0
C1035 C 0.2787 0.81831 0.78038 0.0
H1036 H 0.2413 0.85881 0.82218 0.0
C1037 C 0.2772 0.79421 0.79516 0.0
C1038 C 0.26281 0.79311 0.81971 0.0
H1039 H 0.28952 0.81824 0.76132 0.0
H1040 H 0.28706 0.77629 0.78713 0.0
C1041 C 0.25073 0.81694 0.82972 0.0
C1042 C 0.14372 0.25405 0.81377 0.0
C1043 C 0.14297 0.26824 0.78894 0.0
H1044 H 0.16783 0.24149 0.84789 0.0
C1045 C 0.16601 0.28261 0.78062 0.0
H1046 H 0.12622 0.2428 0.82074 0.0
C1047 C 0.18981 0.28141 0.79583 0.0
C1048 C 0.19105 0.26623 0.81998 0.0
H1049 H 0.16606 0.29396 0.76179 0.0
H1050 H 0.20744 0.29206 0.78842 0.0
C1051 C 0.16753 0.25321 0.82926 0.0
C1052 C 0.73747 0.14757 0.81297 0.0
C1053 C 0.72313 0.14708 0.78826 0.0
H1054 H 0.74995 0.17133 0.84734 0.0
C1055 C 0.70869 0.17029 0.78017 0.0
H1056 H 0.74876 0.12993 0.81975 0.0
C1057 C 0.70985 0.19399 0.79561 0.0
C1058 C 0.72502 0.19488 0.81976 0.0
H1059 H 0.69725 0.17055 0.76141 0.0
H1060 H 0.6991 0.21178 0.78843 0.0
C1061 C 0.73821 0.17123 0.82874 0.0
C1062 C 0.79331 0.71044 0.79483 0.0
C1063 C 0.79229 0.72547 0.81907 0.0
H1064 H 0.81698 0.69774 0.7609 0.0
C1065 C 0.81593 0.73827 0.82846 0.0
H1066 H 0.77555 0.69999 0.78729 0.0
C1067 C 0.83972 0.7373 0.81305 0.0
C1068 C 0.84034 0.72314 0.78824 0.0
H1069 H 0.81578 0.74988 0.84715 0.0
H1070 H 0.85734 0.74831 0.82015 0.0
C1071 C 0.81713 0.70905 0.77974 0.0
C1072 C 0.18884 0.27729 0.18892 0.0
C1073 C 0.1655 0.26098 0.18989 0.0
H1074 H 0.22275 0.29077 0.16576 0.0
C1075 C 0.15759 0.24667 0.16655 0.0
H1076 H 0.1951 0.28904 0.20641 0.0
C1077 C 0.17364 0.24751 0.14315 0.0
C1078 C 0.19761 0.26298 0.14267 0.0
H1079 H 0.13958 0.23412 0.16667 0.0
H1080 H 0.16773 0.2354 0.12577 0.0
C1081 C 0.2046 0.27845 0.16553 0.0
C1082 C 0.17187 0.73619 0.8412 0.0
C1083 C 0.19625 0.72135 0.84173 0.0
H1084 H 0.13806 0.74974 0.8173 0.0
C1085 C 0.20421 0.70704 0.81843 0.0
H1086 H 0.16519 0.74738 0.8589 0.0
C1087 C 0.18905 0.70888 0.7946 0.0
C1088 C 0.1653 0.72461 0.79368 0.0
H1089 H 0.2227 0.69519 0.8182 0.0
H1090 H 0.19612 0.6982 0.77676 0.0
C1091 C 0.15639 0.73762 0.81741 0.0
C1092 C 0.25394 0.17491 0.84085 0.0
C1093 C 0.26603 0.20077 0.84085 0.0
H1094 H 0.2434 0.13965 0.81751 0.0
C1095 C 0.27856 0.21014 0.81709 0.0
H1096 H 0.24418 0.16712 0.85892 0.0
C1097 C 0.2776 0.19475 0.79336 0.0
C1098 C 0.26461 0.16935 0.79299 0.0
H1099 H 0.28822 0.22983 0.81647 0.0
H1100 H 0.2867 0.20297 0.77516 0.0
C1101 C 0.25344 0.15921 0.81715 0.0
C1102 C 0.81385 0.25035 0.84225 0.0
C1103 C 0.7903 0.26643 0.84371 0.0
H1104 H 0.8467 0.23626 0.81738 0.0
C1105 C 0.78294 0.28235 0.82125 0.0
H1106 H 0.82004 0.23788 0.8593 0.0
C1107 C 0.79781 0.28099 0.79729 0.0
C1108 C 0.82065 0.26403 0.79533 0.0
H1109 H 0.76512 0.29518 0.82177 0.0
H1110 H 0.79122 0.29306 0.78013 0.0
C1111 C 0.82904 0.24931 0.81828 0.0
C1112 C 0.70683 0.79745 0.79331 0.0
C1113 C 0.72167 0.82176 0.79192 0.0
H1114 H 0.69447 0.76374 0.81754 0.0
C1115 C 0.73448 0.83151 0.81546 0.0
H1116 H 0.69637 0.78967 0.77562 0.0
C1117 C 0.73371 0.81638 0.83952 0.0
C1118 C 0.71975 0.7915 0.84053 0.0
H1119 H 0.74594 0.85026 0.81501 0.0
H1120 H 0.74474 0.82376 0.85707 0.0
C1121 C 0.70564 0.78264 0.8174 0.0
C1122 C 0.78316 0.70558 0.16576 0.0
C1123 C 0.79041 0.72179 0.1435 0.0
H1124 H 0.79172 0.69429 0.20672 0.0
C1125 C 0.81409 0.73763 0.14508 0.0
H1126 H 0.76524 0.69293 0.16514 0.0
C1127 C 0.82949 0.73819 0.16899 0.0
C1128 C 0.8212 0.72322 0.19177 0.0
H1129 H 0.82021 0.75031 0.12819 0.0
H1130 H 0.84719 0.75115 0.17 0.0
C1131 C 0.79826 0.70647 0.18967 0.0
C1132 C 0.27896 0.7803 0.16725 0.0
C1133 C 0.26406 0.78874 0.14447 0.0
H1134 H 0.28961 0.78807 0.20852 0.0
C1135 C 0.25008 0.81365 0.14548 0.0
H1136 H 0.29016 0.76138 0.16709 0.0
C1137 C 0.25004 0.8292 0.1693 0.0
C1138 C 0.26365 0.81985 0.19256 0.0
H1139 H 0.23845 0.8207 0.12818 0.0
H1140 H 0.23851 0.84793 0.16983 0.0
C1141 C 0.27855 0.79555 0.19107 0.0
C1142 C 0.70522 0.18924 0.19162 0.0
C1143 C 0.72116 0.16559 0.19264 0.0
H1144 H 0.69178 0.22313 0.16812 0.0
C1145 C 0.73466 0.15699 0.16909 0.0
H1146 H 0.69418 0.19606 0.20931 0.0
C1147 C 0.73356 0.17275 0.14545 0.0
C1148 C 0.7186 0.1971 0.14489 0.0
H1149 H 0.74695 0.13874 0.16928 0.0
H1150 H 0.74516 0.16634 0.12793 0.0
C1151 C 0.70374 0.20469 0.16794 0.0
C1152 C 0.66511 0.65873 0.75497 0.0
C1153 C 0.68898 0.66839 0.76713 0.0
H1154 H 0.62368 0.66714 0.74488 0.0
C1155 C 0.68828 0.69325 0.78118 0.0
H1156 H 0.66499 0.63958 0.74415 0.0
C1157 C 0.66462 0.70872 0.78208 0.0
C1158 C 0.64122 0.69995 0.7685 0.0
H1159 H 0.7062 0.70103 0.79114 0.0
H1160 H 0.66507 0.72806 0.79252 0.0
C1161 C 0.64147 0.67448 0.75549 0.0
C1162 C 0.27988 0.66594 0.78008 0.0
C1163 C 0.28687 0.64351 0.764 0.0
H1164 H 0.28907 0.70669 0.79148 0.0
C1165 C 0.31067 0.6446 0.74832 0.0
H1166 H 0.26186 0.6657 0.79258 0.0
C1167 C 0.3265 0.66821 0.74784 0.0
C1168 C 0.31852 0.69116 0.76275 0.0
H1169 H 0.31659 0.62756 0.73573 0.0
H1170 H 0.3443 0.66886 0.73504 0.0
C1171 C 0.29541 0.68952 0.77932 0.0
C1172 C 0.33962 0.31466 0.7532 0.0
C1173 C 0.33994 0.28888 0.76557 0.0
H1174 H 0.3158 0.34943 0.74194 0.0
C1175 C 0.3162 0.27915 0.77772 0.0
H1176 H 0.35766 0.32271 0.74367 0.0
C1177 C 0.29224 0.29408 0.77619 0.0
C1178 C 0.29156 0.3194 0.76298 0.0
H1179 H 0.31578 0.25951 0.78756 0.0
H1180 H 0.27413 0.28555 0.78507 0.0
C1181 C 0.31566 0.32991 0.75212 0.0
C1182 C 0.68935 0.29498 0.77882 0.0
C1183 C 0.66595 0.29382 0.76256 0.0
H1184 H 0.72239 0.31892 0.79325 0.0
C1185 C 0.6571 0.31743 0.74922 0.0
H1186 H 0.69631 0.27727 0.78984 0.0
C1187 C 0.67227 0.34138 0.75098 0.0
C1188 C 0.69625 0.34217 0.76644 0.0
H1189 H 0.639 0.31716 0.73676 0.0
H1190 H 0.66562 0.35901 0.7396 0.0
C1191 C 0.7042 0.31894 0.78094 0.0
C1192 C 0.66806 0.32906 0.23905 0.0
C1193 C 0.69097 0.3206 0.22446 0.0
H1194 H 0.6274 0.31967 0.25103 0.0
C1195 C 0.68926 0.29718 0.20824 0.0
H1196 H 0.66879 0.34712 0.25159 0.0
C1197 C 0.6656 0.28179 0.20751 0.0
C1198 C 0.64321 0.28925 0.22336 0.0
H1199 H 0.70642 0.2905 0.19635 0.0
H1200 H 0.66528 0.26351 0.19529 0.0
C1201 C 0.6444 0.31338 0.23865 0.0
C1202 C 0.67388 0.64434 0.23442 0.0
C1203 C 0.69837 0.64413 0.21985 0.0
H1204 H 0.63946 0.66773 0.24724 0.0
C1205 C 0.70589 0.66733 0.20514 0.0
H1206 H 0.66753 0.6267 0.2459 0.0
C1207 C 0.69015 0.69081 0.20635 0.0
C1208 C 0.66631 0.6915 0.22188 0.0
H1209 H 0.72445 0.66777 0.19349 0.0
H1210 H 0.69687 0.70863 0.19539 0.0
C1211 C 0.65784 0.6678 0.23526 0.0
C1212 C 0.29259 0.69111 0.20802 0.0
C1213 C 0.2917 0.66661 0.22265 0.0
H1214 H 0.31628 0.72505 0.19538 0.0
C1215 C 0.31554 0.65679 0.23478 0.0
H1216 H 0.27466 0.69895 0.19805 0.0
C1217 C 0.33944 0.67203 0.23358 0.0
C1218 C 0.33997 0.69709 0.21984 0.0
H1219 H 0.31548 0.63789 0.24604 0.0
H1220 H 0.35725 0.66459 0.24411 0.0
C1221 C 0.31652 0.70602 0.20637 0.0
C1222 C 0.3288 0.31642 0.23568 0.0
C1223 C 0.32034 0.29292 0.22194 0.0
H1224 H 0.31974 0.35783 0.24571 0.0
C1225 C 0.29732 0.2942 0.20519 0.0
H1226 H 0.34658 0.31604 0.24859 0.0
C1227 C 0.28234 0.31812 0.20306 0.0
C1228 C 0.28975 0.34117 0.21808 0.0
H1229 H 0.29066 0.27655 0.19393 0.0
H1230 H 0.26438 0.31814 0.19042 0.0
C1231 C 0.31349 0.34033 0.23394 0.0
C1232 C 0.74901 0.64466 0.67595 0.0
C1233 C 0.76248 0.64462 0.70115 0.0
H1234 H 0.73772 0.66776 0.64072 0.0
C1235 C 0.77679 0.66789 0.70921 0.0
H1236 H 0.73786 0.62696 0.66918 0.0
C1237 C 0.77627 0.69125 0.69324 0.0
C1238 C 0.76187 0.69174 0.66859 0.0
H1239 H 0.78757 0.66847 0.72835 0.0
H1240 H 0.78682 0.70912 0.70043 0.0
C1241 C 0.74888 0.66799 0.65968 0.0
C1242 C 0.33984 0.75544 0.67425 0.0
C1243 C 0.33984 0.76743 0.70019 0.0
H1244 H 0.31648 0.74466 0.63907 0.0
C1245 C 0.31594 0.77943 0.70981 0.0
H1246 H 0.358 0.74604 0.66627 0.0
C1247 C 0.29215 0.77809 0.69458 0.0
C1248 C 0.2918 0.76524 0.66908 0.0
H1249 H 0.31527 0.78898 0.72957 0.0
H1250 H 0.27391 0.78685 0.703 0.0
C1251 C 0.31606 0.75455 0.65872 0.0
C1252 C 0.23293 0.34153 0.6723 0.0
C1253 C 0.21891 0.34176 0.69714 0.0
H1254 H 0.24563 0.31797 0.63793 0.0
C1255 C 0.20513 0.31826 0.70541 0.0
H1256 H 0.24369 0.3594 0.66537 0.0
C1257 C 0.20674 0.29453 0.69006 0.0
C1258 C 0.22168 0.29391 0.66582 0.0
H1259 H 0.19391 0.31782 0.72426 0.0
H1260 H 0.19654 0.27652 0.69738 0.0
C1261 C 0.23411 0.31784 0.65664 0.0
C1262 C 0.66536 0.23424 0.65794 0.0
C1263 C 0.68922 0.22182 0.66733 0.0
H1264 H 0.62389 0.24393 0.66642 0.0
C1265 C 0.68844 0.20682 0.69162 0.0
H1266 H 0.6653 0.24578 0.63922 0.0
C1267 C 0.66473 0.20527 0.70686 0.0
C1268 C 0.64135 0.21916 0.69846 0.0
H1269 H 0.70636 0.19664 0.69916 0.0
H1270 H 0.66513 0.19412 0.7258 0.0
C1271 C 0.64166 0.23308 0.67348 0.0
C1272 C 0.75358 0.34187 0.31429 0.0
C1273 C 0.76606 0.34207 0.28863 0.0
H1274 H 0.7428 0.31829 0.3493 0.0
C1275 C 0.77897 0.31842 0.27941 0.0
H1276 H 0.74351 0.35985 0.32196 0.0
C1277 C 0.778 0.29461 0.29467 0.0
C1278 C 0.76467 0.29402 0.31985 0.0
H1279 H 0.78896 0.31795 0.2599 0.0
H1280 H 0.7874 0.27652 0.28652 0.0
C1281 C 0.7531 0.31808 0.3299 0.0
C1282 C 0.64264 0.74948 0.31256 0.0
C1283 C 0.64186 0.76406 0.28798 0.0
H1284 H 0.66655 0.73717 0.34691 0.0
C1285 C 0.6646 0.77926 0.28025 0.0
H1286 H 0.62537 0.73761 0.31907 0.0
C1287 C 0.68817 0.77856 0.29583 0.0
C1288 C 0.68944 0.76308 0.31978 0.0
H1289 H 0.66461 0.79092 0.26161 0.0
H1290 H 0.7056 0.78985 0.28887 0.0
C1291 C 0.6662 0.74916 0.32846 0.0
C1292 C 0.23611 0.6673 0.32926 0.0
C1293 C 0.22231 0.69079 0.3208 0.0
H1294 H 0.2469 0.62617 0.31978 0.0
C1295 C 0.20619 0.68968 0.29728 0.0
H1296 H 0.24857 0.66756 0.34739 0.0
C1297 C 0.20481 0.66601 0.28182 0.0
C1298 C 0.21992 0.64301 0.28926 0.0
H1299 H 0.19493 0.70732 0.29054 0.0
H1300 H 0.19269 0.66615 0.26348 0.0
C1301 C 0.23508 0.64364 0.31349 0.0
C1302 C 0.31567 0.23499 0.3285 0.0
C1303 C 0.29208 0.22259 0.31847 0.0
H1304 H 0.35739 0.24454 0.32125 0.0
C1305 C 0.29346 0.20776 0.29412 0.0
H1306 H 0.31525 0.24644 0.34729 0.0
C1307 C 0.31762 0.20615 0.2796 0.0
C1308 C 0.34081 0.21985 0.28875 0.0
H1309 H 0.27574 0.19765 0.28606 0.0
H1310 H 0.31775 0.19499 0.26067 0.0
C1311 C 0.3398 0.23382 0.31365 0.0
C1312 C 0.70447 0.77832 0.66723 0.0
C1313 C 0.69655 0.7632 0.64443 0.0
H1314 H 0.69623 0.78887 0.7084 0.0
C1315 C 0.6722 0.74838 0.64537 0.0
H1316 H 0.72295 0.79014 0.66712 0.0
C1317 C 0.65664 0.74786 0.6691 0.0
C1318 C 0.66544 0.76181 0.69236 0.0
H1319 H 0.66557 0.73655 0.62805 0.0
H1320 H 0.63829 0.73582 0.66954 0.0
C1321 C 0.68922 0.77744 0.69098 0.0
C1322 C 0.67436 0.23556 0.34289 0.0
C1323 C 0.69923 0.22158 0.34326 0.0
H1324 H 0.63982 0.24773 0.31929 0.0
C1325 C 0.7074 0.20733 0.31999 0.0
H1326 H 0.66751 0.24668 0.36058 0.0
C1327 C 0.6919 0.20841 0.29633 0.0
C1328 C 0.6676 0.2233 0.29556 0.0
H1329 H 0.72628 0.19614 0.31964 0.0
H1330 H 0.69915 0.19785 0.27849 0.0
C1331 C 0.65855 0.23623 0.31928 0.0
C1332 C 0.75161 0.65773 0.31629 0.0
C1333 C 0.76322 0.66824 0.29248 0.0
H1334 H 0.74176 0.66493 0.35805 0.0
C1335 C 0.77629 0.69357 0.29351 0.0
H1336 H 0.7415 0.6382 0.31614 0.0
C1337 C 0.77698 0.70851 0.31753 0.0
C1338 C 0.76408 0.69877 0.34094 0.0
H1339 H 0.78574 0.70206 0.27561 0.0
H1340 H 0.78677 0.72816 0.31741 0.0
C1341 C 0.75183 0.67299 0.34027 0.0
C1342 C 0.3134 0.74918 0.3409 0.0
C1343 C 0.28881 0.76363 0.34197 0.0
H1344 H 0.34708 0.73665 0.31636 0.0
C1345 C 0.28028 0.77822 0.31902 0.0
H1346 H 0.32051 0.73776 0.35832 0.0
C1347 C 0.29511 0.7771 0.29502 0.0
C1348 C 0.31913 0.76183 0.29352 0.0
H1349 H 0.26161 0.78976 0.31923 0.0
H1350 H 0.28756 0.78798 0.27747 0.0
C1351 C 0.32857 0.74847 0.3169 0.0
C1352 C 0.20641 0.27964 0.31429 0.0
C1353 C 0.21954 0.28899 0.33781 0.0
H1354 H 0.19859 0.28602 0.2721 0.0
C1355 C 0.23323 0.31402 0.33698 0.0
H1356 H 0.19549 0.26061 0.31426 0.0
C1357 C 0.23465 0.32887 0.31279 0.0
C1358 C 0.22281 0.31868 0.28893 0.0
H1359 H 0.24351 0.32177 0.35482 0.0
H1360 H 0.24584 0.34779 0.31254 0.0
C1361 C 0.2083 0.29416 0.29006 0.0
C1362 C 0.32785 0.24015 0.6667 0.0
C1363 C 0.31987 0.22514 0.68956 0.0
H1364 H 0.31818 0.252 0.62591 0.0
C1365 C 0.29714 0.20806 0.68763 0.0
H1366 H 0.34539 0.25333 0.66759 0.0
C1367 C 0.28193 0.2069 0.66382 0.0
C1368 C 0.28886 0.22313 0.64148 0.0
H1369 H 0.29083 0.1958 0.70474 0.0
H1370 H 0.26418 0.19401 0.66335 0.0
C1371 C 0.31233 0.2393 0.64287 0.0
C1372 C 0.74915 0.31456 0.64766 0.0
C1373 C 0.76236 0.28923 0.64701 0.0
H1374 H 0.73791 0.34914 0.67172 0.0
C1375 C 0.77607 0.28017 0.67029 0.0
H1376 H 0.73845 0.32209 0.62997 0.0
C1377 C 0.77528 0.2953 0.69419 0.0
C1378 C 0.76125 0.32014 0.69523 0.0
H1379 H 0.78661 0.26089 0.67043 0.0
H1380 H 0.7854 0.28732 0.712 0.0
C1381 C 0.74879 0.33002 0.67153 0.0
C1382 C 0.20553 0.69216 0.69125 0.0
C1383 C 0.22057 0.66791 0.69204 0.0
H1384 H 0.19329 0.72669 0.66803 0.0
C1385 C 0.23362 0.65895 0.66838 0.0
H1386 H 0.19485 0.69929 0.70904 0.0
C1387 C 0.23303 0.67489 0.64485 0.0
C1388 C 0.21901 0.6998 0.64452 0.0
H1389 H 0.24522 0.64025 0.66839 0.0
H1390 H 0.24429 0.66815 0.62724 0.0
C1391 C 0.20453 0.7078 0.66768 0.0
C1392 C 0.1437 0.37573 0.24936 0.0
C1393 C 0.1497 0.37259 0.22159 0.0
H1394 H 0.12436 0.35758 0.2837 0.0
C1395 C 0.13142 0.35777 0.20544 0.0
H1396 H 0.15679 0.38768 0.26239 0.0
C1397 C 0.11223 0.34089 0.21774 0.0
C1398 C 0.11176 0.33839 0.24622 0.0
H1399 H 0.13493 0.35561 0.18383 0.0
H1400 H 0.10169 0.32636 0.20503 0.0
C1401 C 0.12495 0.3584 0.26172 0.0
C1402 C 0.64417 0.11095 0.22809 0.0
C1403 C 0.64847 0.11174 0.25636 0.0
H1404 H 0.62742 0.1323 0.19413 0.0
C1405 C 0.62944 0.12562 0.27242 0.0
H1406 H 0.65789 0.09981 0.21502 0.0
C1407 C 0.61134 0.14388 0.26028 0.0
C1408 C 0.61275 0.1487 0.23213 0.0
H1409 H 0.63166 0.126 0.29432 0.0
H1410 H 0.60025 0.15758 0.27342 0.0
C1411 C 0.62657 0.12969 0.21596 0.0
C1412 C 0.84436 0.61096 0.25569 0.0
C1413 C 0.83895 0.61381 0.22775 0.0
H1414 H 0.86269 0.62965 0.29036 0.0
C1415 C 0.85753 0.62857 0.21195 0.0
H1416 H 0.83107 0.59903 0.26848 0.0
C1417 C 0.87627 0.64576 0.2246 0.0
C1418 C 0.87592 0.64866 0.25305 0.0
H1419 H 0.85452 0.63048 0.19023 0.0
H1420 H 0.88696 0.66026 0.21202 0.0
C1421 C 0.86267 0.62858 0.26838 0.0
C1422 C 0.35991 0.85604 0.21421 0.0
C1423 C 0.37385 0.83662 0.22987 0.0
H1424 H 0.32883 0.88617 0.21422 0.0
C1425 C 0.37596 0.84108 0.25804 0.0
H1426 H 0.35858 0.85374 0.19236 0.0
C1427 C 0.35834 0.85938 0.27074 0.0
C1428 C 0.33902 0.87359 0.25522 0.0
H1429 H 0.38721 0.82708 0.27077 0.0
H1430 H 0.35664 0.85873 0.29267 0.0
C1431 C 0.34273 0.87476 0.2269 0.0
C1432 C 0.12449 0.63225 0.71457 0.0
C1433 C 0.11078 0.65154 0.73051 0.0
H1434 H 0.15573 0.60228 0.71393 0.0
C1435 C 0.10955 0.6472 0.75875 0.0
H1436 H 0.12522 0.63453 0.6927 0.0
C1437 C 0.12768 0.62909 0.77108 0.0
C1438 C 0.14654 0.61483 0.75514 0.0
H1439 H 0.09857 0.66115 0.77171 0.0
H1440 H 0.13 0.62982 0.79295 0.0
C1441 C 0.14211 0.61365 0.7269 0.0
C1442 C 0.36192 0.13004 0.76717 0.0
C1443 C 0.37462 0.15001 0.75125 0.0
H1444 H 0.331 0.09985 0.76823 0.0
C1445 C 0.37484 0.14646 0.72288 0.0
H1446 H 0.36211 0.13163 0.78911 0.0
C1447 C 0.35639 0.12858 0.71078 0.0
C1448 C 0.33819 0.11391 0.72709 0.0
H1449 H 0.38515 0.16089 0.7099 0.0
H1450 H 0.35317 0.12996 0.68905 0.0
C1451 C 0.34393 0.11172 0.75503 0.0
C1452 C 0.85448 0.36019 0.77685 0.0
C1453 C 0.83577 0.37484 0.76098 0.0
H1454 H 0.88417 0.32868 0.77689 0.0
C1455 C 0.8411 0.37768 0.73305 0.0
H1456 H 0.85151 0.35829 0.79856 0.0
C1457 C 0.85954 0.36016 0.72042 0.0
C1458 C 0.87306 0.34024 0.73582 0.0
H1459 H 0.8277 0.3895 0.7202 0.0
H1460 H 0.85959 0.3591 0.69845 0.0
C1461 C 0.87333 0.3431 0.76427 0.0
C1462 C 0.64273 0.87776 0.75457 0.0
C1463 C 0.64774 0.87577 0.7265 0.0
H1464 H 0.62509 0.85793 0.7889 0.0
C1465 C 0.6291 0.86122 0.7105 0.0
H1466 H 0.65608 0.88947 0.76754 0.0
C1467 C 0.6108 0.84341 0.72286 0.0
C1468 C 0.61147 0.83984 0.75122 0.0
H1469 H 0.63181 0.85996 0.6887 0.0
H1470 H 0.60008 0.82913 0.71002 0.0
C1471 C 0.62483 0.85956 0.76696 0.0
C1472 C 0.25453 0.14508 0.37742 0.0
C1473 C 0.22652 0.15011 0.37528 0.0
H1474 H 0.28869 0.12678 0.35796 0.0
C1475 C 0.21049 0.13081 0.36168 0.0
H1476 H 0.26753 0.15891 0.38854 0.0
C1477 C 0.22276 0.11176 0.34454 0.0
C1478 C 0.25099 0.11256 0.34057 0.0
H1479 H 0.18873 0.13349 0.36042 0.0
H1480 H 0.20985 0.10049 0.33076 0.0
C1481 C 0.26682 0.12648 0.35981 0.0
C1482 C 0.87564 0.22514 0.34258 0.0
C1483 C 0.8748 0.25346 0.33863 0.0
H1484 H 0.85486 0.19112 0.35973 0.0
C1485 C 0.8619 0.26941 0.35848 0.0
H1486 H 0.88613 0.21214 0.32828 0.0
C1487 C 0.84425 0.25719 0.37703 0.0
C1488 C 0.8391 0.22911 0.37528 0.0
H1489 H 0.86164 0.29134 0.35662 0.0
H1490 H 0.83109 0.27031 0.38877 0.0
C1491 C 0.8576 0.21294 0.36077 0.0
C1492 C 0.75463 0.87532 0.34549 0.0
C1493 C 0.7267 0.87309 0.34005 0.0
H1494 H 0.7888 0.85566 0.36371 0.0
C1495 C 0.71061 0.85875 0.35872 0.0
H1496 H 0.76765 0.88696 0.33218 0.0
C1497 C 0.72286 0.84116 0.37742 0.0
C1498 C 0.75115 0.83749 0.37691 0.0
H1499 H 0.6889 0.85738 0.35573 0.0
H1500 H 0.70998 0.82693 0.38811 0.0
C1501 C 0.7669 0.85729 0.36375 0.0
C1502 C 0.14527 0.72719 0.37693 0.0
C1503 C 0.14977 0.75542 0.37585 0.0
H1504 H 0.12793 0.69324 0.3561 0.0
C1505 C 0.13058 0.7716 0.36224 0.0
H1506 H 0.15909 0.71404 0.38792 0.0
C1507 C 0.11209 0.75952 0.34437 0.0
C1508 C 0.11328 0.73132 0.33967 0.0
H1509 H 0.13292 0.79348 0.36169 0.0
H1510 H 0.10085 0.77269 0.33077 0.0
C1511 C 0.12726 0.71511 0.35858 0.0
C1512 C 0.21366 0.85937 0.62848 0.0
C1513 C 0.22935 0.84031 0.61415 0.0
H1514 H 0.21351 0.88857 0.66047 0.0
C1515 C 0.25748 0.84472 0.61249 0.0
H1516 H 0.19185 0.85711 0.6295 0.0
C1517 C 0.27007 0.86241 0.63084 0.0
C1518 C 0.25446 0.87612 0.65038 0.0
H1519 H 0.27024 0.83103 0.60096 0.0
H1520 H 0.29192 0.86161 0.63279 0.0
C1521 C 0.22624 0.87752 0.64637 0.0
C1522 C 0.13039 0.21292 0.62683 0.0
C1523 C 0.14869 0.22914 0.61219 0.0
H1524 H 0.10186 0.212 0.6593 0.0
C1525 C 0.14356 0.25726 0.61065 0.0
H1526 H 0.13322 0.1911 0.62779 0.0
C1527 C 0.12597 0.26941 0.62931 0.0
C1528 C 0.11293 0.25338 0.64896 0.0
H1529 H 0.15667 0.27041 0.59891 0.0
H1530 H 0.12619 0.29134 0.63125 0.0
C1531 C 0.11231 0.22505 0.64504 0.0
C1532 C 0.75718 0.1123 0.64296 0.0
C1533 C 0.72917 0.1141 0.64808 0.0
H1534 H 0.79114 0.1325 0.62516 0.0
C1535 C 0.71297 0.12816 0.62923 0.0
H1536 H 0.77031 0.10088 0.65645 0.0
C1537 C 0.72506 0.14587 0.61061 0.0
C1538 C 0.75328 0.15 0.61144 0.0
H1539 H 0.69122 0.12922 0.632 0.0
H1540 H 0.71201 0.15987 0.59974 0.0
C1541 C 0.76928 0.1305 0.62484 0.0
C1542 C 0.85526 0.77148 0.62613 0.0
C1543 C 0.83632 0.75513 0.61241 0.0
H1544 H 0.88487 0.7728 0.65769 0.0
C1545 C 0.84123 0.72696 0.61122 0.0
H1546 H 0.85262 0.79333 0.62675 0.0
C1547 C 0.85938 0.71503 0.62955 0.0
C1548 C 0.87304 0.73132 0.64861 0.0
H1549 H 0.82763 0.7137 0.60014 0.0
H1550 H 0.85902 0.69314 0.63195 0.0
C1551 C 0.87388 0.75955 0.644 0.0
C1552 C 0.35704 0.27098 0.1289 0.0
C1553 C 0.33833 0.25499 0.11446 0.0
H1554 H 0.38654 0.27144 0.16059 0.0
C1555 C 0.34331 0.22688 0.1125 0.0
H1556 H 0.35429 0.29279 0.13019 0.0
C1557 C 0.36148 0.21446 0.13051 0.0
C1558 C 0.37505 0.2302 0.15009 0.0
H1559 H 0.32984 0.21391 0.10093 0.0
H1560 H 0.36123 0.19251 0.13221 0.0
C1561 C 0.37567 0.25858 0.14643 0.0
C1562 C 0.35988 0.76672 0.85907 0.0
C1563 C 0.37294 0.75106 0.83911 0.0
H1564 H 0.3285 0.76741 0.88876 0.0
C1565 C 0.37312 0.72263 0.84226 0.0
H1566 H 0.36007 0.7887 0.85779 0.0
C1567 C 0.35446 0.7103 0.8597 0.0
C1568 C 0.33604 0.72643 0.87434 0.0
H1569 H 0.38367 0.70982 0.82783 0.0
H1570 H 0.35132 0.68858 0.85802 0.0
C1571 C 0.34164 0.75436 0.87693 0.0
C1572 C 0.26794 0.35968 0.86078 0.0
C1573 C 0.2527 0.33991 0.87458 0.0
H1574 H 0.2678 0.38877 0.82867 0.0
C1575 C 0.22435 0.34305 0.87529 0.0
H1576 H 0.28986 0.35842 0.86052 0.0
C1577 C 0.21157 0.36005 0.85641 0.0
C1578 C 0.22717 0.37443 0.83736 0.0
H1579 H 0.21187 0.3288 0.88641 0.0
H1580 H 0.18985 0.35824 0.85371 0.0
C1581 C 0.25513 0.37716 0.84235 0.0
C1582 C 0.627 0.21872 0.85788 0.0
C1583 C 0.61333 0.23449 0.83837 0.0
H1584 H 0.65875 0.21803 0.88731 0.0
C1585 C 0.61296 0.26289 0.84183 0.0
H1586 H 0.62707 0.19676 0.85629 0.0
C1587 C 0.63169 0.27522 0.85926 0.0
C1588 C 0.65038 0.25914 0.87369 0.0
H1589 H 0.60205 0.27576 0.82768 0.0
H1590 H 0.63453 0.297 0.85787 0.0
C1591 C 0.64528 0.23107 0.87577 0.0
C1592 C 0.76837 0.62833 0.86049 0.0
C1593 C 0.75238 0.61424 0.8415 0.0
H1594 H 0.76936 0.66093 0.88899 0.0
C1595 C 0.72417 0.61356 0.84566 0.0
H1596 H 0.79023 0.62857 0.85845 0.0
C1597 C 0.71205 0.63274 0.86276 0.0
C1598 C 0.72821 0.65205 0.87619 0.0
H1599 H 0.71115 0.60219 0.83206 0.0
H1600 H 0.69029 0.63543 0.86165 0.0
C1601 C 0.75625 0.64705 0.87808 0.0
C1602 C 0.63147 0.71292 0.12654 0.0
C1603 C 0.65024 0.7292 0.11257 0.0
H1604 H 0.6015 0.71191 0.15765 0.0
C1605 C 0.64503 0.75728 0.11076 0.0
H1606 H 0.63441 0.69112 0.12771 0.0
C1607 C 0.62649 0.76938 0.12853 0.0
C1608 C 0.61272 0.75334 0.14767 0.0
H1609 H 0.65856 0.77048 0.09956 0.0
H1610 H 0.62651 0.79132 0.13042 0.0
C1611 C 0.61246 0.72499 0.14381 0.0
C1612 C 0.21111 0.62763 0.12984 0.0
C1613 C 0.22708 0.61318 0.14859 0.0
H1614 H 0.2106 0.65948 0.10048 0.0
C1615 C 0.2551 0.61118 0.14362 0.0
H1616 H 0.18936 0.62892 0.13255 0.0
C1617 C 0.26747 0.62934 0.12563 0.0
C1618 C 0.25173 0.64898 0.11214 0.0
H1619 H 0.26805 0.59955 0.15709 0.0
H1620 H 0.28935 0.63107 0.12599 0.0
C1621 C 0.22345 0.64528 0.11133 0.0
C1622 C 0.72316 0.37531 0.14634 0.0
C1623 C 0.75154 0.37465 0.14934 0.0
H1624 H 0.68869 0.35392 0.13097 0.0
C1625 C 0.76675 0.36107 0.1294 0.0
H1626 H 0.7107 0.38623 0.16078 0.0
C1627 C 0.75395 0.3429 0.11169 0.0
C1628 C 0.726 0.33786 0.1144 0.0
H1629 H 0.78868 0.36082 0.13059 0.0
H1630 H 0.76662 0.32941 0.09983 0.0
C1631 C 0.71039 0.35666 0.12912 0.0
loop_
_geom_bond_atom_site_label_1
_geom_bond_atom_site_label_2
_geom_bond_distance
_geom_bond_site_symmetry_2
_ccdc_geom_bond_type
Co0 O1 2.216 . S
Co0 O2 2.091 . S
Co0 O4 2.004 . S
Co0 O10 2.021 . S
Co0 O12 2.137 . S
Co0 O13 2.244 . S
O1 Co0 2.216 . S
O1 C8 1.247 . S
O2 Co0 2.091 . S
O2 C8 1.261 . S
C3 O12 1.247 . S
C3 O13 1.272 . S
O4 Co0 2.004 . S
O4 C9 1.259 . S
Co5 O6 2.061 . S
Co5 O11 2.052 . S
Co5 O13 2.135 . S
O6 Co5 2.061 . S
O6 C9 1.235 . S
C7 O10 1.238 . S
C7 O11 1.241 . S
C8 O1 1.247 . S
C8 O2 1.261 . S
C9 O4 1.259 . S
C9 O6 1.235 . S
O10 Co0 2.021 . S
O10 C7 1.238 . S
O11 Co5 2.052 . S
O11 C7 1.241 . S
O12 Co0 2.137 . S
O12 C3 1.247 . S
O13 Co0 2.244 . S
O13 C3 1.272 . S
O13 Co5 2.135 . S
Co14 O15 2.216 . S
Co14 O16 2.091 . S
Co14 O18 2.004 . S
Co14 O24 2.021 . S
Co14 O26 2.137 . S
Co14 O27 2.244 . S
O15 Co14 2.216 . S
O15 C22 1.247 . S
O16 Co14 2.091 . S
O16 C22 1.261 . S
C17 O26 1.247 . S
C17 O27 1.272 . S
O18 Co14 2.004 . S
O18 C23 1.259 . S
Co19 O20 2.061 . S
Co19 O25 2.052 . S
Co19 O27 2.135 . S
O20 Co19 2.061 . S
O20 C23 1.235 . S
C21 O24 1.238 . S
C21 O25 1.241 . S
C22 O15 1.247 . S
C22 O16 1.261 . S
C23 O18 1.259 . S
C23 O20 1.235 . S
O24 Co14 2.021 . S
O24 C21 1.238 . S
O25 Co19 2.052 . S
O25 C21 1.241 . S
O26 Co14 2.137 . S
O26 C17 1.247 . S
O27 Co14 2.244 . S
O27 C17 1.272 . S
O27 Co19 2.135 . S
Co28 O29 2.216 . S
Co28 O30 2.091 . S
Co28 O32 2.004 . S
Co28 O38 2.021 . S
Co28 O40 2.137 . S
Co28 O41 2.244 . S
O29 Co28 2.216 . S
O29 C36 1.247 . S
O30 Co28 2.091 . S
O30 C36 1.261 . S
C31 O40 1.247 . S
C31 O41 1.272 . S
O32 Co28 2.004 . S
O32 C37 1.259 . S
Co33 O34 2.061 . S
Co33 O39 2.052 . S
Co33 O41 2.135 . S
O34 Co33 2.061 . S
O34 C37 1.235 . S
C35 O38 1.238 . S
C35 O39 1.241 . S
C36 O29 1.247 . S
C36 O30 1.261 . S
C37 O32 1.259 . S
C37 O34 1.235 . S
O38 Co28 2.021 . S
O38 C35 1.238 . S
O39 Co33 2.052 . S
O39 C35 1.241 . S
O40 Co28 2.137 . S
O40 C31 1.247 . S
O41 Co28 2.244 . S
O41 C31 1.272 . S
O41 Co33 2.135 . S
Co42 O43 2.216 . S
Co42 O44 2.091 . S
Co42 O46 2.004 . S
Co42 O52 2.021 . S
Co42 O54 2.137 . S
Co42 O55 2.244 . S
O43 Co42 2.216 . S
O43 C50 1.247 . S
O44 Co42 2.091 . S
O44 C50 1.261 . S
C45 O54 1.247 . S
C45 O55 1.272 . S
O46 Co42 2.004 . S
O46 C51 1.259 . S
Co47 O48 2.061 . S
Co47 O53 2.052 . S
Co47 O55 2.135 . S
O48 Co47 2.061 . S
O48 C51 1.235 . S
C49 O52 1.238 . S
C49 O53 1.241 . S
C50 O43 1.247 . S
C50 O44 1.261 . S
C51 O46 1.259 . S
C51 O48 1.235 . S
O52 Co42 2.021 . S
O52 C49 1.238 . S
O53 Co47 2.052 . S
O53 C49 1.241 . S
O54 Co42 2.137 . S
O54 C45 1.247 . S
O55 Co42 2.244 . S
O55 C45 1.272 . S
O55 Co47 2.135 . S
Co56 O57 2.216 . S
Co56 O58 2.091 . S
Co56 O60 2.004 . S
Co56 O66 2.021 . S
Co56 O68 2.137 . S
Co56 O69 2.244 . S
O57 Co56 2.216 . S
O57 C64 1.247 . S
O58 Co56 2.091 . S
O58 C64 1.261 . S
C59 O68 1.247 . S
C59 O69 1.272 . S
O60 Co56 2.004 . S
O60 C65 1.259 . S
Co61 O62 2.061 . S
Co61 O67 2.052 . S
Co61 O69 2.135 . S
O62 Co61 2.061 . S
O62 C65 1.235 . S
C63 O66 1.238 . S
C63 O67 1.241 . S
C64 O57 1.247 . S
C64 O58 1.261 . S
C65 O60 1.259 . S
C65 O62 1.235 . S
O66 Co56 2.021 . S
O66 C63 1.238 . S
O67 Co61 2.052 . S
O67 C63 1.241 . S
O68 Co56 2.137 . S
O68 C59 1.247 . S
O69 Co56 2.244 . S
O69 C59 1.272 . S
O69 Co61 2.135 . S
Co70 O71 2.216 . S
Co70 O72 2.091 . S
Co70 O74 2.004 . S
Co70 O80 2.021 . S
Co70 O82 2.137 . S
Co70 O83 2.244 . S
O71 Co70 2.216 . S
O71 C78 1.247 . S
O72 Co70 2.091 . S
O72 C78 1.261 . S
C73 O82 1.247 . S
C73 O83 1.272 . S
O74 Co70 2.004 . S
O74 C79 1.259 . S
Co75 O76 2.061 . S
Co75 O81 2.052 . S
Co75 O83 2.135 . S
O76 Co75 2.061 . S
O76 C79 1.235 . S
C77 O80 1.238 . S
C77 O81 1.241 . S
C78 O71 1.247 . S
C78 O72 1.261 . S
C79 O74 1.259 . S
C79 O76 1.235 . S
O80 Co70 2.021 . S
O80 C77 1.238 . S
O81 Co75 2.052 . S
O81 C77 1.241 . S
O82 Co70 2.137 . S
O82 C73 1.247 . S
O83 Co70 2.244 . S
O83 C73 1.272 . S
O83 Co75 2.135 . S
Co84 O85 2.216 . S
Co84 O86 2.091 . S
Co84 O88 2.004 . S
Co84 O94 2.021 . S
Co84 O96 2.137 . S
Co84 O97 2.244 . S
O85 Co84 2.216 . S
O85 C92 1.247 . S
O86 Co84 2.091 . S
O86 C92 1.261 . S
C87 O96 1.247 . S
C87 O97 1.272 . S
O88 Co84 2.004 . S
O88 C93 1.259 . S
Co89 O90 2.061 . S
Co89 O95 2.052 . S
Co89 O97 2.135 . S
O90 Co89 2.061 . S
O90 C93 1.235 . S
C91 O94 1.238 . S
C91 O95 1.241 . S
C92 O85 1.247 . S
C92 O86 1.261 . S
C93 O88 1.259 . S
C93 O90 1.235 . S
O94 Co84 2.021 . S
O94 C91 1.238 . S
O95 Co89 2.052 . S
O95 C91 1.241 . S
O96 Co84 2.137 . S
O96 C87 1.247 . S
O97 Co84 2.244 . S
O97 C87 1.272 . S
O97 Co89 2.135 . S
Co98 O99 2.216 . S
Co98 O100 2.091 . S
Co98 O102 2.004 . S
Co98 O108 2.021 . S
Co98 O110 2.137 . S
Co98 O111 2.244 . S
O99 Co98 2.216 . S
O99 C106 1.247 . S
O100 Co98 2.091 . S
O100 C106 1.261 . S
C101 O110 1.247 . S
C101 O111 1.272 . S
O102 Co98 2.004 . S
O102 C107 1.259 . S
Co103 O104 2.061 . S
Co103 O109 2.052 . S
Co103 O111 2.135 . S
O104 Co103 2.061 . S
O104 C107 1.235 . S
C105 O108 1.238 . S
C105 O109 1.241 . S
C106 O99 1.247 . S
C106 O100 1.261 . S
C107 O102 1.259 . S
C107 O104 1.235 . S
O108 Co98 2.021 . S
O108 C105 1.238 . S
O109 Co103 2.052 . S
O109 C105 1.241 . S
O110 Co98 2.137 . S
O110 C101 1.247 . S
O111 Co98 2.244 . S
O111 C101 1.272 . S
O111 Co103 2.135 . S
Co112 O113 2.216 . S
Co112 O114 2.091 . S
Co112 O116 2.004 . S
Co112 O122 2.021 . S
Co112 O124 2.137 . S
Co112 O125 2.244 . S
O113 Co112 2.216 . S
O113 C120 1.247 . S
O114 Co112 2.091 . S
O114 C120 1.261 . S
C115 O124 1.247 . S
C115 O125 1.272 . S
O116 Co112 2.004 . S
O116 C121 1.259 . S
Co117 O118 2.061 . S
Co117 O123 2.052 . S
Co117 O125 2.135 . S
O118 Co117 2.061 . S
O118 C121 1.235 . S
C119 O122 1.238 . S
C119 O123 1.241 . S
C120 O113 1.247 . S
C120 O114 1.261 . S
C121 O116 1.259 . S
C121 O118 1.235 . S
O122 Co112 2.021 . S
O122 C119 1.238 . S
O123 Co117 2.052 . S
O123 C119 1.241 . S
O124 Co112 2.137 . S
O124 C115 1.247 . S
O125 Co112 2.244 . S
O125 C115 1.272 . S
O125 Co117 2.135 . S
Co126 O127 2.216 . S
Co126 O128 2.091 . S
Co126 O130 2.004 . S
Co126 O136 2.021 . S
Co126 O138 2.137 . S
Co126 O139 2.244 . S
O127 Co126 2.216 . S
O127 C134 1.247 . S
O128 Co126 2.091 . S
O128 C134 1.261 . S
C129 O138 1.247 . S
C129 O139 1.272 . S
O130 Co126 2.004 . S
O130 C135 1.259 . S
Co131 O132 2.061 . S
Co131 O137 2.052 . S
Co131 O139 2.135 . S
O132 Co131 2.061 . S
O132 C135 1.235 . S
C133 O136 1.238 . S
C133 O137 1.241 . S
C134 O127 1.247 . S
C134 O128 1.261 . S
C135 O130 1.259 . S
C135 O132 1.235 . S
O136 Co126 2.021 . S
O136 C133 1.238 . S
O137 Co131 2.052 . S
O137 C133 1.241 . S
O138 Co126 2.137 . S
O138 C129 1.247 . S
O139 Co126 2.244 . S
O139 C129 1.272 . S
O139 Co131 2.135 . S
Co140 O141 2.216 . S
Co140 O142 2.091 . S
Co140 O144 2.004 . S
Co140 O150 2.021 . S
Co140 O152 2.137 . S
Co140 O153 2.244 . S
O141 Co140 2.216 . S
O141 C148 1.247 . S
O142 Co140 2.091 . S
O142 C148 1.261 . S
C143 O152 1.247 . S
C143 O153 1.272 . S
O144 Co140 2.004 . S
O144 C149 1.259 . S
Co145 O146 2.061 . S
Co145 O151 2.052 . S
Co145 O153 2.135 . S
O146 Co145 2.061 . S
O146 C149 1.235 . S
C147 O150 1.238 . S
C147 O151 1.241 . S
C148 O141 1.247 . S
C148 O142 1.261 . S
C149 O144 1.259 . S
C149 O146 1.235 . S
O150 Co140 2.021 . S
O150 C147 1.238 . S
O151 Co145 2.052 . S
O151 C147 1.241 . S
O152 Co140 2.137 . S
O152 C143 1.247 . S
O153 Co140 2.244 . S
O153 C143 1.272 . S
O153 Co145 2.135 . S
Co154 O155 2.216 . S
Co154 O156 2.091 . S
Co154 O158 2.004 . S
Co154 O164 2.021 . S
Co154 O166 2.137 . S
Co154 O167 2.244 . S
O155 Co154 2.216 . S
O155 C162 1.247 . S
O156 Co154 2.091 . S
O156 C162 1.261 . S
C157 O166 1.247 . S
C157 O167 1.272 . S
O158 Co154 2.004 . S
O158 C163 1.259 . S
Co159 O160 2.061 . S
Co159 O165 2.052 . S
Co159 O167 2.135 . S
O160 Co159 2.061 . S
O160 C163 1.235 . S
C161 O164 1.238 . S
C161 O165 1.241 . S
C162 O155 1.247 . S
C162 O156 1.261 . S
C163 O158 1.259 . S
C163 O160 1.235 . S
O164 Co154 2.021 . S
O164 C161 1.238 . S
O165 Co159 2.052 . S
O165 C161 1.241 . S
O166 Co154 2.137 . S
O166 C157 1.247 . S
O167 Co154 2.244 . S
O167 C157 1.272 . S
O167 Co159 2.135 . S
Co168 O169 2.216 . S
Co168 O170 2.091 . S
Co168 O172 2.004 . S
Co168 O178 2.021 . S
Co168 O180 2.137 . S
Co168 O181 2.244 . S
O169 Co168 2.216 . S
O169 C176 1.247 . S
O170 Co168 2.091 . S
O170 C176 1.261 . S
C171 O180 1.247 . S
C171 O181 1.272 . S
O172 Co168 2.004 . S
O172 C177 1.259 . S
Co173 O174 2.061 . S
Co173 O179 2.052 . S
Co173 O181 2.135 . S
O174 Co173 2.061 . S
O174 C177 1.235 . S
C175 O178 1.238 . S
C175 O179 1.241 . S
C176 O169 1.247 . S
C176 O170 1.261 . S
C177 O172 1.259 . S
C177 O174 1.235 . S
O178 Co168 2.021 . S
O178 C175 1.238 . S
O179 Co173 2.052 . S
O179 C175 1.241 . S
O180 Co168 2.137 . S
O180 C171 1.247 . S
O181 Co168 2.244 . S
O181 C171 1.272 . S
O181 Co173 2.135 . S
Co182 O183 2.216 . S
Co182 O184 2.091 . S
Co182 O186 2.004 . S
Co182 O192 2.021 . S
Co182 O194 2.137 . S
Co182 O195 2.244 . S
O183 Co182 2.216 . S
O183 C190 1.247 . S
O184 Co182 2.091 . S
O184 C190 1.261 . S
C185 O194 1.247 . S
C185 O195 1.272 . S
O186 Co182 2.004 . S
O186 C191 1.259 . S
Co187 O188 2.061 . S
Co187 O193 2.052 . S
Co187 O195 2.135 . S
O188 Co187 2.061 . S
O188 C191 1.235 . S
C189 O192 1.238 . S
C189 O193 1.241 . S
C190 O183 1.247 . S
C190 O184 1.261 . S
C191 O186 1.259 . S
C191 O188 1.235 . S
O192 Co182 2.021 . S
O192 C189 1.238 . S
O193 Co187 2.052 . S
O193 C189 1.241 . S
O194 Co182 2.137 . S
O194 C185 1.247 . S
O195 Co182 2.244 . S
O195 C185 1.272 . S
O195 Co187 2.135 . S
Co196 O197 2.216 . S
Co196 O198 2.091 . S
Co196 O200 2.004 . S
Co196 O206 2.021 . S
Co196 O208 2.137 . S
Co196 O209 2.244 . S
O197 Co196 2.216 . S
O197 C204 1.247 . S
O198 Co196 2.091 . S
O198 C204 1.261 . S
C199 O208 1.247 . S
C199 O209 1.272 . S
O200 Co196 2.004 . S
O200 C205 1.259 . S
Co201 O202 2.061 . S
Co201 O207 2.052 . S
Co201 O209 2.135 . S
O202 Co201 2.061 . S
O202 C205 1.235 . S
C203 O206 1.238 . S
C203 O207 1.241 . S
C204 O197 1.247 . S
C204 O198 1.261 . S
C205 O200 1.259 . S
C205 O202 1.235 . S
O206 Co196 2.021 . S
O206 C203 1.238 . S
O207 Co201 2.052 . S
O207 C203 1.241 . S
O208 Co196 2.137 . S
O208 C199 1.247 . S
O209 Co196 2.244 . S
O209 C199 1.272 . S
O209 Co201 2.135 . S
Co210 O211 2.216 . S
Co210 O212 2.091 . S
Co210 O214 2.004 . S
Co210 O220 2.021 . S
Co210 O222 2.137 . S
Co210 O223 2.244 . S
O211 Co210 2.216 . S
O211 C218 1.247 . S
O212 Co210 2.091 . S
O212 C218 1.261 . S
C213 O222 1.247 . S
C213 O223 1.272 . S
O214 Co210 2.004 . S
O214 C219 1.259 . S
Co215 O216 2.061 . S
Co215 O221 2.052 . S
Co215 O223 2.135 . S
O216 Co215 2.061 . S
O216 C219 1.235 . S
C217 O220 1.238 . S
C217 O221 1.241 . S
C218 O211 1.247 . S
C218 O212 1.261 . S
C219 O214 1.259 . S
C219 O216 1.235 . S
O220 Co210 2.021 . S
O220 C217 1.238 . S
O221 Co215 2.052 . S
O221 C217 1.241 . S
O222 Co210 2.137 . S
O222 C213 1.247 . S
O223 Co210 2.244 . S
O223 C213 1.272 . S
O223 Co215 2.135 . S
Co224 O225 2.216 . S
Co224 O226 2.091 . S
Co224 O228 2.004 . S
Co224 O234 2.021 . S
Co224 O236 2.137 . S
Co224 O237 2.244 . S
O225 Co224 2.216 . S
O225 C232 1.247 . S
O226 Co224 2.091 . S
O226 C232 1.261 . S
C227 O236 1.247 . S
C227 O237 1.272 . S
O228 Co224 2.004 . S
O228 C233 1.259 . S
Co229 O230 2.061 . S
Co229 O235 2.052 . S
Co229 O237 2.135 . S
O230 Co229 2.061 . S
O230 C233 1.235 . S
C231 O234 1.238 . S
C231 O235 1.241 . S
C232 O225 1.247 . S
C232 O226 1.261 . S
C233 O228 1.259 . S
C233 O230 1.235 . S
O234 Co224 2.021 . S
O234 C231 1.238 . S
O235 Co229 2.052 . S
O235 C231 1.241 . S
O236 Co224 2.137 . S
O236 C227 1.247 . S
O237 Co224 2.244 . S
O237 C227 1.272 . S
O237 Co229 2.135 . S
Co238 O239 2.216 . S
Co238 O240 2.091 . S
Co238 O242 2.004 . S
Co238 O248 2.021 . S
Co238 O250 2.137 . S
Co238 O251 2.244 . S
O239 Co238 2.216 . S
O239 C246 1.247 . S
O240 Co238 2.091 . S
O240 C246 1.261 . S
C241 O250 1.247 . S
C241 O251 1.272 . S
O242 Co238 2.004 . S
O242 C247 1.259 . S
Co243 O244 2.061 . S
Co243 O249 2.052 . S
Co243 O251 2.135 . S
O244 Co243 2.061 . S
O244 C247 1.235 . S
C245 O248 1.238 . S
C245 O249 1.241 . S
C246 O239 1.247 . S
C246 O240 1.261 . S
C247 O242 1.259 . S
C247 O244 1.235 . S
O248 Co238 2.021 . S
O248 C245 1.238 . S
O249 Co243 2.052 . S
O249 C245 1.241 . S
O250 Co238 2.137 . S
O250 C241 1.247 . S
O251 Co238 2.244 . S
O251 C241 1.272 . S
O251 Co243 2.135 . S
Co252 O253 2.216 . S
Co252 O254 2.091 . S
Co252 O256 2.004 . S
Co252 O262 2.021 . S
Co252 O264 2.137 . S
Co252 O265 2.244 . S
O253 Co252 2.216 . S
O253 C260 1.247 . S
O254 Co252 2.091 . S
O254 C260 1.261 . S
C255 O264 1.247 . S
C255 O265 1.272 . S
O256 Co252 2.004 . S
O256 C261 1.259 . S
Co257 O258 2.061 . S
Co257 O263 2.052 . S
Co257 O265 2.135 . S
O258 Co257 2.061 . S
O258 C261 1.235 . S
C259 O262 1.238 . S
C259 O263 1.241 . S
C260 O253 1.247 . S
C260 O254 1.261 . S
C261 O256 1.259 . S
C261 O258 1.235 . S
O262 Co252 2.021 . S
O262 C259 1.238 . S
O263 Co257 2.052 . S
O263 C259 1.241 . S
O264 Co252 2.137 . S
O264 C255 1.247 . S
O265 Co252 2.244 . S
O265 C255 1.272 . S
O265 Co257 2.135 . S
Co266 O267 2.216 . S
Co266 O268 2.091 . S
Co266 O270 2.004 . S
Co266 O276 2.021 . S
Co266 O278 2.137 . S
Co266 O279 2.244 . S
O267 Co266 2.216 . S
O267 C274 1.247 . S
O268 Co266 2.091 . S
O268 C274 1.261 . S
C269 O278 1.247 . S
C269 O279 1.272 . S
O270 Co266 2.004 . S
O270 C275 1.259 . S
Co271 O272 2.061 . S
Co271 O277 2.052 . S
Co271 O279 2.135 . S
O272 Co271 2.061 . S
O272 C275 1.235 . S
C273 O276 1.238 . S
C273 O277 1.241 . S
C274 O267 1.247 . S
C274 O268 1.261 . S
C275 O270 1.259 . S
C275 O272 1.235 . S
O276 Co266 2.021 . S
O276 C273 1.238 . S
O277 Co271 2.052 . S
O277 C273 1.241 . S
O278 Co266 2.137 . S
O278 C269 1.247 . S
O279 Co266 2.244 . S
O279 C269 1.272 . S
O279 Co271 2.135 . S
Co280 O281 2.216 . S
Co280 O282 2.091 . S
Co280 O284 2.004 . S
Co280 O290 2.021 . S
Co280 O292 2.137 . S
Co280 O293 2.244 . S
O281 Co280 2.216 . S
O281 C288 1.247 . S
O282 Co280 2.091 . S
O282 C288 1.261 . S
C283 O292 1.247 . S
C283 O293 1.272 . S
O284 Co280 2.004 . S
O284 C289 1.259 . S
Co285 O286 2.061 . S
Co285 O291 2.052 . S
Co285 O293 2.135 . S
O286 Co285 2.061 . S
O286 C289 1.235 . S
C287 O290 1.238 . S
C287 O291 1.241 . S
C288 O281 1.247 . S
C288 O282 1.261 . S
C289 O284 1.259 . S
C289 O286 1.235 . S
O290 Co280 2.021 . S
O290 C287 1.238 . S
O291 Co285 2.052 . S
O291 C287 1.241 . S
O292 Co280 2.137 . S
O292 C283 1.247 . S
O293 Co280 2.244 . S
O293 C283 1.272 . S
O293 Co285 2.135 . S
Co294 O295 2.216 . S
Co294 O296 2.091 . S
Co294 O298 2.004 . S
Co294 O304 2.021 . S
Co294 O306 2.137 . S
Co294 O307 2.244 . S
O295 Co294 2.216 . S
O295 C302 1.247 . S
O296 Co294 2.091 . S
O296 C302 1.261 . S
C297 O306 1.247 . S
C297 O307 1.272 . S
O298 Co294 2.004 . S
O298 C303 1.259 . S
Co299 O300 2.061 . S
Co299 O305 2.052 . S
Co299 O307 2.135 . S
O300 Co299 2.061 . S
O300 C303 1.235 . S
C301 O304 1.238 . S
C301 O305 1.241 . S
C302 O295 1.247 . S
C302 O296 1.261 . S
C303 O298 1.259 . S
C303 O300 1.235 . S
O304 Co294 2.021 . S
O304 C301 1.238 . S
O305 Co299 2.052 . S
O305 C301 1.241 . S
O306 Co294 2.137 . S
O306 C297 1.247 . S
O307 Co294 2.244 . S
O307 C297 1.272 . S
O307 Co299 2.135 . S
Co308 O309 2.216 . S
Co308 O310 2.091 . S
Co308 O312 2.004 . S
Co308 O318 2.021 . S
Co308 O320 2.137 . S
Co308 O321 2.244 . S
O309 Co308 2.216 . S
O309 C316 1.247 . S
O310 Co308 2.091 . S
O310 C316 1.261 . S
C311 O320 1.247 . S
C311 O321 1.272 . S
O312 Co308 2.004 . S
O312 C317 1.259 . S
Co313 O314 2.061 . S
Co313 O319 2.052 . S
Co313 O321 2.135 . S
O314 Co313 2.061 . S
O314 C317 1.235 . S
C315 O318 1.238 . S
C315 O319 1.241 . S
C316 O309 1.247 . S
C316 O310 1.261 . S
C317 O312 1.259 . S
C317 O314 1.235 . S
O318 Co308 2.021 . S
O318 C315 1.238 . S
O319 Co313 2.052 . S
O319 C315 1.241 . S
O320 Co308 2.137 . S
O320 C311 1.247 . S
O321 Co308 2.244 . S
O321 C311 1.272 . S
O321 Co313 2.135 . S
Co322 O323 2.216 . S
Co322 O324 2.091 . S
Co322 O326 2.004 . S
Co322 O332 2.021 . S
Co322 O334 2.137 . S
Co322 O335 2.244 . S
O323 Co322 2.216 . S
O323 C330 1.247 . S
O324 Co322 2.091 . S
O324 C330 1.261 . S
C325 O334 1.247 . S
C325 O335 1.272 . S
O326 Co322 2.004 . S
O326 C331 1.259 . S
Co327 O328 2.061 . S
Co327 O333 2.052 . S
Co327 O335 2.135 . S
O328 Co327 2.061 . S
O328 C331 1.235 . S
C329 O332 1.238 . S
C329 O333 1.241 . S
C330 O323 1.247 . S
C330 O324 1.261 . S
C331 O326 1.259 . S
C331 O328 1.235 . S
O332 Co322 2.021 . S
O332 C329 1.238 . S
O333 Co327 2.052 . S
O333 C329 1.241 . S
O334 Co322 2.137 . S
O334 C325 1.247 . S
O335 Co322 2.244 . S
O335 C325 1.272 . S
O335 Co327 2.135 . S
Co336 O337 2.216 . S
Co336 O338 2.091 . S
Co336 O340 2.004 . S
Co336 O346 2.021 . S
Co336 O348 2.137 . S
Co336 O349 2.244 . S
O337 Co336 2.216 . S
O337 C344 1.247 . S
O338 Co336 2.091 . S
O338 C344 1.261 . S
C339 O348 1.247 . S
C339 O349 1.272 . S
O340 Co336 2.004 . S
O340 C345 1.259 . S
Co341 O342 2.061 . S
Co341 O347 2.052 . S
Co341 O349 2.135 . S
O342 Co341 2.061 . S
O342 C345 1.235 . S
C343 O346 1.238 . S
C343 O347 1.241 . S
C344 O337 1.247 . S
C344 O338 1.261 . S
C345 O340 1.259 . S
C345 O342 1.235 . S
O346 Co336 2.021 . S
O346 C343 1.238 . S
O347 Co341 2.052 . S
O347 C343 1.241 . S
O348 Co336 2.137 . S
O348 C339 1.247 . S
O349 Co336 2.244 . S
O349 C339 1.272 . S
O349 Co341 2.135 . S
Co350 O351 2.216 . S
Co350 O352 2.091 . S
Co350 O354 2.004 . S
Co350 O360 2.021 . S
Co350 O362 2.137 . S
Co350 O363 2.244 . S
O351 Co350 2.216 . S
O351 C358 1.247 . S
O352 Co350 2.091 . S
O352 C358 1.261 . S
C353 O362 1.247 . S
C353 O363 1.272 . S
O354 Co350 2.004 . S
O354 C359 1.259 . S
Co355 O356 2.061 . S
Co355 O361 2.052 . S
Co355 O363 2.135 . S
O356 Co355 2.061 . S
O356 C359 1.235 . S
C357 O360 1.238 . S
C357 O361 1.241 . S
C358 O351 1.247 . S
C358 O352 1.261 . S
C359 O354 1.259 . S
C359 O356 1.235 . S
O360 Co350 2.021 . S
O360 C357 1.238 . S
O361 Co355 2.052 . S
O361 C357 1.241 . S
O362 Co350 2.137 . S
O362 C353 1.247 . S
O363 Co350 2.244 . S
O363 C353 1.272 . S
O363 Co355 2.135 . S
Co364 O365 2.216 . S
Co364 O366 2.091 . S
Co364 O368 2.004 . S
Co364 O374 2.021 . S
Co364 O376 2.137 . S
Co364 O377 2.244 . S
O365 Co364 2.216 . S
O365 C372 1.247 . S
O366 Co364 2.091 . S
O366 C372 1.261 . S
C367 O376 1.247 . S
C367 O377 1.272 . S
O368 Co364 2.004 . S
O368 C373 1.259 . S
Co369 O370 2.061 . S
Co369 O375 2.052 . S
Co369 O377 2.135 . S
O370 Co369 2.061 . S
O370 C373 1.235 . S
C371 O374 1.238 . S
C371 O375 1.241 . S
C372 O365 1.247 . S
C372 O366 1.261 . S
C373 O368 1.259 . S
C373 O370 1.235 . S
O374 Co364 2.021 . S
O374 C371 1.238 . S
O375 Co369 2.052 . S
O375 C371 1.241 . S
O376 Co364 2.137 . S
O376 C367 1.247 . S
O377 Co364 2.244 . S
O377 C367 1.272 . S
O377 Co369 2.135 . S
Co378 O379 2.216 . S
Co378 O380 2.091 . S
Co378 O382 2.004 . S
Co378 O388 2.021 . S
Co378 O390 2.137 . S
Co378 O391 2.244 . S
O379 Co378 2.216 . S
O379 C386 1.247 . S
O380 Co378 2.091 . S
O380 C386 1.261 . S
C381 O390 1.247 . S
C381 O391 1.272 . S
O382 Co378 2.004 . S
O382 C387 1.259 . S
Co383 O384 2.061 . S
Co383 O389 2.052 . S
Co383 O391 2.135 . S
O384 Co383 2.061 . S
O384 C387 1.235 . S
C385 O388 1.238 . S
C385 O389 1.241 . S
C386 O379 1.247 . S
C386 O380 1.261 . S
C387 O382 1.259 . S
C387 O384 1.235 . S
O388 Co378 2.021 . S
O388 C385 1.238 . S
O389 Co383 2.052 . S
O389 C385 1.241 . S
O390 Co378 2.137 . S
O390 C381 1.247 . S
O391 Co378 2.244 . S
O391 C381 1.272 . S
O391 Co383 2.135 . S
Co392 O393 2.216 . S
Co392 O394 2.091 . S
Co392 O396 2.004 . S
Co392 O402 2.021 . S
Co392 O404 2.137 . S
Co392 O405 2.244 . S
O393 Co392 2.216 . S
O393 C400 1.247 . S
O394 Co392 2.091 . S
O394 C400 1.261 . S
C395 O404 1.247 . S
C395 O405 1.272 . S
O396 Co392 2.004 . S
O396 C401 1.259 . S
Co397 O398 2.061 . S
Co397 O403 2.052 . S
Co397 O405 2.135 . S
O398 Co397 2.061 . S
O398 C401 1.235 . S
C399 O402 1.238 . S
C399 O403 1.241 . S
C400 O393 1.247 . S
C400 O394 1.261 . S
C401 O396 1.259 . S
C401 O398 1.235 . S
O402 Co392 2.021 . S
O402 C399 1.238 . S
O403 Co397 2.052 . S
O403 C399 1.241 . S
O404 Co392 2.137 . S
O404 C395 1.247 . S
O405 Co392 2.244 . S
O405 C395 1.272 . S
O405 Co397 2.135 . S
Co406 O407 2.216 . S
Co406 O408 2.091 . S
Co406 O410 2.004 . S
Co406 O416 2.021 . S
Co406 O418 2.137 . S
Co406 O419 2.244 . S
O407 Co406 2.216 . S
O407 C414 1.247 . S
O408 Co406 2.091 . S
O408 C414 1.261 . S
C409 O418 1.247 . S
C409 O419 1.272 . S
O410 Co406 2.004 . S
O410 C415 1.259 . S
Co411 O412 2.061 . S
Co411 O417 2.052 . S
Co411 O419 2.135 . S
O412 Co411 2.061 . S
O412 C415 1.235 . S
C413 O416 1.238 . S
C413 O417 1.241 . S
C414 O407 1.247 . S
C414 O408 1.261 . S
C415 O410 1.259 . S
C415 O412 1.235 . S
O416 Co406 2.021 . S
O416 C413 1.238 . S
O417 Co411 2.052 . S
O417 C413 1.241 . S
O418 Co406 2.137 . S
O418 C409 1.247 . S
O419 Co406 2.244 . S
O419 C409 1.272 . S
O419 Co411 2.135 . S
Co420 O421 2.216 . S
Co420 O422 2.091 . S
Co420 O424 2.004 . S
Co420 O430 2.021 . S
Co420 O432 2.137 . S
Co420 O433 2.244 . S
O421 Co420 2.216 . S
O421 C428 1.247 . S
O422 Co420 2.091 . S
O422 C428 1.261 . S
C423 O432 1.247 . S
C423 O433 1.272 . S
O424 Co420 2.004 . S
O424 C429 1.259 . S
Co425 O426 2.061 . S
Co425 O431 2.052 . S
Co425 O433 2.135 . S
O426 Co425 2.061 . S
O426 C429 1.235 . S
C427 O430 1.238 . S
C427 O431 1.241 . S
C428 O421 1.247 . S
C428 O422 1.261 . S
C429 O424 1.259 . S
C429 O426 1.235 . S
O430 Co420 2.021 . S
O430 C427 1.238 . S
O431 Co425 2.052 . S
O431 C427 1.241 . S
O432 Co420 2.137 . S
O432 C423 1.247 . S
O433 Co420 2.244 . S
O433 C423 1.272 . S
O433 Co425 2.135 . S
Co434 O435 2.216 . S
Co434 O436 2.091 . S
Co434 O438 2.004 . S
Co434 O444 2.021 . S
Co434 O446 2.137 . S
Co434 O447 2.244 . S
O435 Co434 2.216 . S
O435 C442 1.247 . S
O436 Co434 2.091 . S
O436 C442 1.261 . S
C437 O446 1.247 . S
C437 O447 1.272 . S
O438 Co434 2.004 . S
O438 C443 1.259 . S
Co439 O440 2.061 . S
Co439 O445 2.052 . S
Co439 O447 2.135 . S
O440 Co439 2.061 . S
O440 C443 1.235 . S
C441 O444 1.238 . S
C441 O445 1.241 . S
C442 O435 1.247 . S
C442 O436 1.261 . S
C443 O438 1.259 . S
C443 O440 1.235 . S
O444 Co434 2.021 . S
O444 C441 1.238 . S
O445 Co439 2.052 . S
O445 C441 1.241 . S
O446 Co434 2.137 . S
O446 C437 1.247 . S
O447 Co434 2.244 . S
O447 C437 1.272 . S
O447 Co439 2.135 . S
Co448 O449 2.216 . S
Co448 O450 2.091 . S
Co448 O452 2.004 . S
Co448 O458 2.021 . S
Co448 O460 2.137 . S
Co448 O461 2.244 . S
O449 Co448 2.216 . S
O449 C456 1.247 . S
O450 Co448 2.091 . S
O450 C456 1.261 . S
C451 O460 1.247 . S
C451 O461 1.272 . S
O452 Co448 2.004 . S
O452 C457 1.259 . S
Co453 O454 2.061 . S
Co453 O459 2.052 . S
Co453 O461 2.135 . S
O454 Co453 2.061 . S
O454 C457 1.235 . S
C455 O458 1.238 . S
C455 O459 1.241 . S
C456 O449 1.247 . S
C456 O450 1.261 . S
C457 O452 1.259 . S
C457 O454 1.235 . S
O458 Co448 2.021 . S
O458 C455 1.238 . S
O459 Co453 2.052 . S
O459 C455 1.241 . S
O460 Co448 2.137 . S
O460 C451 1.247 . S
O461 Co448 2.244 . S
O461 C451 1.272 . S
O461 Co453 2.135 . S
Co462 O463 2.216 . S
Co462 O464 2.091 . S
Co462 O466 2.004 . S
Co462 O472 2.021 . S
Co462 O474 2.137 . S
Co462 O475 2.244 . S
O463 Co462 2.216 . S
O463 C470 1.247 . S
O464 Co462 2.091 . S
O464 C470 1.261 . S
C465 O474 1.247 . S
C465 O475 1.272 . S
O466 Co462 2.004 . S
O466 C471 1.259 . S
Co467 O468 2.061 . S
Co467 O473 2.052 . S
Co467 O475 2.135 . S
O468 Co467 2.061 . S
O468 C471 1.235 . S
C469 O472 1.238 . S
C469 O473 1.241 . S
C470 O463 1.247 . S
C470 O464 1.261 . S
C471 O466 1.259 . S
C471 O468 1.235 . S
O472 Co462 2.021 . S
O472 C469 1.238 . S
O473 Co467 2.052 . S
O473 C469 1.241 . S
O474 Co462 2.137 . S
O474 C465 1.247 . S
O475 Co462 2.244 . S
O475 C465 1.272 . S
O475 Co467 2.135 . S
Co476 O477 2.216 . S
Co476 O478 2.091 . S
Co476 O480 2.004 . S
Co476 O486 2.021 . S
Co476 O488 2.137 . S
Co476 O489 2.244 . S
O477 Co476 2.216 . S
O477 C484 1.247 . S
O478 Co476 2.091 . S
O478 C484 1.261 . S
C479 O488 1.247 . S
C479 O489 1.272 . S
O480 Co476 2.004 . S
O480 C485 1.259 . S
Co481 O482 2.061 . S
Co481 O487 2.052 . S
Co481 O489 2.135 . S
O482 Co481 2.061 . S
O482 C485 1.235 . S
C483 O486 1.238 . S
C483 O487 1.241 . S
C484 O477 1.247 . S
C484 O478 1.261 . S
C485 O480 1.259 . S
C485 O482 1.235 . S
O486 Co476 2.021 . S
O486 C483 1.238 . S
O487 Co481 2.052 . S
O487 C483 1.241 . S
O488 Co476 2.137 . S
O488 C479 1.247 . S
O489 Co476 2.244 . S
O489 C479 1.272 . S
O489 Co481 2.135 . S
Co490 O491 2.216 . S
Co490 O492 2.091 . S
Co490 O494 2.004 . S
Co490 O500 2.021 . S
Co490 O502 2.137 . S
Co490 O503 2.244 . S
O491 Co490 2.216 . S
O491 C498 1.247 . S
O492 Co490 2.091 . S
O492 C498 1.261 . S
C493 O502 1.247 . S
C493 O503 1.272 . S
O494 Co490 2.004 . S
O494 C499 1.259 . S
Co495 O496 2.061 . S
Co495 O501 2.052 . S
Co495 O503 2.135 . S
O496 Co495 2.061 . S
O496 C499 1.235 . S
C497 O500 1.238 . S
C497 O501 1.241 . S
C498 O491 1.247 . S
C498 O492 1.261 . S
C499 O494 1.259 . S
C499 O496 1.235 . S
O500 Co490 2.021 . S
O500 C497 1.238 . S
O501 Co495 2.052 . S
O501 C497 1.241 . S
O502 Co490 2.137 . S
O502 C493 1.247 . S
O503 Co490 2.244 . S
O503 C493 1.272 . S
O503 Co495 2.135 . S
Co504 O505 2.216 . S
Co504 O506 2.091 . S
Co504 O508 2.004 . S
Co504 O514 2.021 . S
Co504 O516 2.137 . S
Co504 O517 2.244 . S
O505 Co504 2.216 . S
O505 C512 1.247 . S
O506 Co504 2.091 . S
O506 C512 1.261 . S
C507 O516 1.247 . S
C507 O517 1.272 . S
O508 Co504 2.004 . S
O508 C513 1.259 . S
Co509 O510 2.061 . S
Co509 O515 2.052 . S
Co509 O517 2.135 . S
O510 Co509 2.061 . S
O510 C513 1.235 . S
C511 O514 1.238 . S
C511 O515 1.241 . S
C512 O505 1.247 . S
C512 O506 1.261 . S
C513 O508 1.259 . S
C513 O510 1.235 . S
O514 Co504 2.021 . S
O514 C511 1.238 . S
O515 Co509 2.052 . S
O515 C511 1.241 . S
O516 Co504 2.137 . S
O516 C507 1.247 . S
O517 Co504 2.244 . S
O517 C507 1.272 . S
O517 Co509 2.135 . S
Co518 O519 2.216 . S
Co518 O520 2.091 . S
Co518 O522 2.004 . S
Co518 O528 2.021 . S
Co518 O530 2.137 . S
Co518 O531 2.244 . S
O519 Co518 2.216 . S
O519 C526 1.247 . S
O520 Co518 2.091 . S
O520 C526 1.261 . S
C521 O530 1.247 . S
C521 O531 1.272 . S
O522 Co518 2.004 . S
O522 C527 1.259 . S
Co523 O524 2.061 . S
Co523 O529 2.052 . S
Co523 O531 2.135 . S
O524 Co523 2.061 . S
O524 C527 1.235 . S
C525 O528 1.238 . S
C525 O529 1.241 . S
C526 O519 1.247 . S
C526 O520 1.261 . S
C527 O522 1.259 . S
C527 O524 1.235 . S
O528 Co518 2.021 . S
O528 C525 1.238 . S
O529 Co523 2.052 . S
O529 C525 1.241 . S
O530 Co518 2.137 . S
O530 C521 1.247 . S
O531 Co518 2.244 . S
O531 C521 1.272 . S
O531 Co523 2.135 . S
Co532 O533 2.216 . S
Co532 O534 2.091 . S
Co532 O536 2.004 . S
Co532 O542 2.021 . S
Co532 O544 2.137 . S
Co532 O545 2.244 . S
O533 Co532 2.216 . S
O533 C540 1.247 . S
O534 Co532 2.091 . S
O534 C540 1.261 . S
C535 O544 1.247 . S
C535 O545 1.272 . S
O536 Co532 2.004 . S
O536 C541 1.259 . S
Co537 O538 2.061 . S
Co537 O543 2.052 . S
Co537 O545 2.135 . S
O538 Co537 2.061 . S
O538 C541 1.235 . S
C539 O542 1.238 . S
C539 O543 1.241 . S
C540 O533 1.247 . S
C540 O534 1.261 . S
C541 O536 1.259 . S
C541 O538 1.235 . S
O542 Co532 2.021 . S
O542 C539 1.238 . S
O543 Co537 2.052 . S
O543 C539 1.241 . S
O544 Co532 2.137 . S
O544 C535 1.247 . S
O545 Co532 2.244 . S
O545 C535 1.272 . S
O545 Co537 2.135 . S
Co546 O547 2.216 . S
Co546 O548 2.091 . S
Co546 O550 2.004 . S
Co546 O556 2.021 . S
Co546 O558 2.137 . S
Co546 O559 2.244 . S
O547 Co546 2.216 . S
O547 C554 1.247 . S
O548 Co546 2.091 . S
O548 C554 1.261 . S
C549 O558 1.247 . S
C549 O559 1.272 . S
O550 Co546 2.004 . S
O550 C555 1.259 . S
Co551 O552 2.061 . S
Co551 O557 2.052 . S
Co551 O559 2.135 . S
O552 Co551 2.061 . S
O552 C555 1.235 . S
C553 O556 1.238 . S
C553 O557 1.241 . S
C554 O547 1.247 . S
C554 O548 1.261 . S
C555 O550 1.259 . S
C555 O552 1.235 . S
O556 Co546 2.021 . S
O556 C553 1.238 . S
O557 Co551 2.052 . S
O557 C553 1.241 . S
O558 Co546 2.137 . S
O558 C549 1.247 . S
O559 Co546 2.244 . S
O559 C549 1.272 . S
O559 Co551 2.135 . S
Co560 O561 2.216 . S
Co560 O562 2.091 . S
Co560 O564 2.004 . S
Co560 O570 2.021 . S
Co560 O572 2.137 . S
Co560 O573 2.244 . S
O561 Co560 2.216 . S
O561 C568 1.247 . S
O562 Co560 2.091 . S
O562 C568 1.261 . S
C563 O572 1.247 . S
C563 O573 1.272 . S
O564 Co560 2.004 . S
O564 C569 1.259 . S
Co565 O566 2.061 . S
Co565 O571 2.052 . S
Co565 O573 2.135 . S
O566 Co565 2.061 . S
O566 C569 1.235 . S
C567 O570 1.238 . S
C567 O571 1.241 . S
C568 O561 1.247 . S
C568 O562 1.261 . S
C569 O564 1.259 . S
C569 O566 1.235 . S
O570 Co560 2.021 . S
O570 C567 1.238 . S
O571 Co565 2.052 . S
O571 C567 1.241 . S
O572 Co560 2.137 . S
O572 C563 1.247 . S
O573 Co560 2.244 . S
O573 C563 1.272 . S
O573 Co565 2.135 . S
Co574 O575 2.216 . S
Co574 O576 2.091 . S
Co574 O578 2.004 . S
Co574 O584 2.021 . S
Co574 O586 2.137 . S
Co574 O587 2.244 . S
O575 Co574 2.216 . S
O575 C582 1.247 . S
O576 Co574 2.091 . S
O576 C582 1.261 . S
C577 O586 1.247 . S
C577 O587 1.272 . S
O578 Co574 2.004 . S
O578 C583 1.259 . S
Co579 O580 2.061 . S
Co579 O585 2.052 . S
Co579 O587 2.135 . S
O580 Co579 2.061 . S
O580 C583 1.235 . S
C581 O584 1.238 . S
C581 O585 1.241 . S
C582 O575 1.247 . S
C582 O576 1.261 . S
C583 O578 1.259 . S
C583 O580 1.235 . S
O584 Co574 2.021 . S
O584 C581 1.238 . S
O585 Co579 2.052 . S
O585 C581 1.241 . S
O586 Co574 2.137 . S
O586 C577 1.247 . S
O587 Co574 2.244 . S
O587 C577 1.272 . S
O587 Co579 2.135 . S
Co588 O589 2.216 . S
Co588 O590 2.091 . S
Co588 O592 2.004 . S
Co588 O598 2.021 . S
Co588 O600 2.137 . S
Co588 O601 2.244 . S
O589 Co588 2.216 . S
O589 C596 1.247 . S
O590 Co588 2.091 . S
O590 C596 1.261 . S
C591 O600 1.247 . S
C591 O601 1.272 . S
O592 Co588 2.004 . S
O592 C597 1.259 . S
Co593 O594 2.061 . S
Co593 O599 2.052 . S
Co593 O601 2.135 . S
O594 Co593 2.061 . S
O594 C597 1.235 . S
C595 O598 1.238 . S
C595 O599 1.241 . S
C596 O589 1.247 . S
C596 O590 1.261 . S
C597 O592 1.259 . S
C597 O594 1.235 . S
O598 Co588 2.021 . S
O598 C595 1.238 . S
O599 Co593 2.052 . S
O599 C595 1.241 . S
O600 Co588 2.137 . S
O600 C591 1.247 . S
O601 Co588 2.244 . S
O601 C591 1.272 . S
O601 Co593 2.135 . S
Co602 O603 2.216 . S
Co602 O604 2.091 . S
Co602 O606 2.004 . S
Co602 O612 2.021 . S
Co602 O614 2.137 . S
Co602 O615 2.244 . S
O603 Co602 2.216 . S
O603 C610 1.247 . S
O604 Co602 2.091 . S
O604 C610 1.261 . S
C605 O614 1.247 . S
C605 O615 1.272 . S
O606 Co602 2.004 . S
O606 C611 1.259 . S
Co607 O608 2.061 . S
Co607 O613 2.052 . S
Co607 O615 2.135 . S
O608 Co607 2.061 . S
O608 C611 1.235 . S
C609 O612 1.238 . S
C609 O613 1.241 . S
C610 O603 1.247 . S
C610 O604 1.261 . S
C611 O606 1.259 . S
C611 O608 1.235 . S
O612 Co602 2.021 . S
O612 C609 1.238 . S
O613 Co607 2.052 . S
O613 C609 1.241 . S
O614 Co602 2.137 . S
O614 C605 1.247 . S
O615 Co602 2.244 . S
O615 C605 1.272 . S
O615 Co607 2.135 . S
Co616 O617 2.216 . S
Co616 O618 2.091 . S
Co616 O620 2.004 . S
Co616 O626 2.021 . S
Co616 O628 2.137 . S
Co616 O629 2.244 . S
O617 Co616 2.216 . S
O617 C624 1.247 . S
O618 Co616 2.091 . S
O618 C624 1.261 . S
C619 O628 1.247 . S
C619 O629 1.272 . S
O620 Co616 2.004 . S
O620 C625 1.259 . S
Co621 O622 2.061 . S
Co621 O627 2.052 . S
Co621 O629 2.135 . S
O622 Co621 2.061 . S
O622 C625 1.235 . S
C623 O626 1.238 . S
C623 O627 1.241 . S
C624 O617 1.247 . S
C624 O618 1.261 . S
C625 O620 1.259 . S
C625 O622 1.235 . S
O626 Co616 2.021 . S
O626 C623 1.238 . S
O627 Co621 2.052 . S
O627 C623 1.241 . S
O628 Co616 2.137 . S
O628 C619 1.247 . S
O629 Co616 2.244 . S
O629 C619 1.272 . S
O629 Co621 2.135 . S
Co630 O631 2.216 . S
Co630 O632 2.091 . S
Co630 O634 2.004 . S
Co630 O640 2.021 . S
Co630 O642 2.137 . S
Co630 O643 2.244 . S
O631 Co630 2.216 . S
O631 C638 1.247 . S
O632 Co630 2.091 . S
O632 C638 1.261 . S
C633 O642 1.247 . S
C633 O643 1.272 . S
O634 Co630 2.004 . S
O634 C639 1.259 . S
Co635 O636 2.061 . S
Co635 O641 2.052 . S
Co635 O643 2.135 . S
O636 Co635 2.061 . S
O636 C639 1.235 . S
C637 O640 1.238 . S
C637 O641 1.241 . S
C638 O631 1.247 . S
C638 O632 1.261 . S
C639 O634 1.259 . S
C639 O636 1.235 . S
O640 Co630 2.021 . S
O640 C637 1.238 . S
O641 Co635 2.052 . S
O641 C637 1.241 . S
O642 Co630 2.137 . S
O642 C633 1.247 . S
O643 Co630 2.244 . S
O643 C633 1.272 . S
O643 Co635 2.135 . S
Co644 O645 2.216 . S
Co644 O646 2.091 . S
Co644 O648 2.004 . S
Co644 O654 2.021 . S
Co644 O656 2.137 . S
Co644 O657 2.244 . S
O645 Co644 2.216 . S
O645 C652 1.247 . S
O646 Co644 2.091 . S
O646 C652 1.261 . S
C647 O656 1.247 . S
C647 O657 1.272 . S
O648 Co644 2.004 . S
O648 C653 1.259 . S
Co649 O650 2.061 . S
Co649 O655 2.052 . S
Co649 O657 2.135 . S
O650 Co649 2.061 . S
O650 C653 1.235 . S
C651 O654 1.238 . S
C651 O655 1.241 . S
C652 O645 1.247 . S
C652 O646 1.261 . S
C653 O648 1.259 . S
C653 O650 1.235 . S
O654 Co644 2.021 . S
O654 C651 1.238 . S
O655 Co649 2.052 . S
O655 C651 1.241 . S
O656 Co644 2.137 . S
O656 C647 1.247 . S
O657 Co644 2.244 . S
O657 C647 1.272 . S
O657 Co649 2.135 . S
Co658 O659 2.216 . S
Co658 O660 2.091 . S
Co658 O662 2.004 . S
Co658 O668 2.021 . S
Co658 O670 2.137 . S
Co658 O671 2.244 . S
O659 Co658 2.216 . S
O659 C666 1.247 . S
O660 Co658 2.091 . S
O660 C666 1.261 . S
C661 O670 1.247 . S
C661 O671 1.272 . S
O662 Co658 2.004 . S
O662 C667 1.259 . S
Co663 O664 2.061 . S
Co663 O669 2.052 . S
Co663 O671 2.135 . S
O664 Co663 2.061 . S
O664 C667 1.235 . S
C665 O668 1.238 . S
C665 O669 1.241 . S
C666 O659 1.247 . S
C666 O660 1.261 . S
C667 O662 1.259 . S
C667 O664 1.235 . S
O668 Co658 2.021 . S
O668 C665 1.238 . S
O669 Co663 2.052 . S
O669 C665 1.241 . S
O670 Co658 2.137 . S
O670 C661 1.247 . S
O671 Co658 2.244 . S
O671 C661 1.272 . S
O671 Co663 2.135 . S
C672 C673 1.387 . S
C672 H676 0.950 . S
C672 C681 1.390 1_655 S
C673 C672 1.387 . S
C673 C675 1.387 . S
H674 C681 0.950 . S
C675 C673 1.387 . S
C675 C677 1.390 1_655 S
C675 H679 0.950 . S
H676 C672 0.950 . S
C677 C675 1.390 1_455 S
C677 C678 1.387 . S
C677 H680 0.950 . S
C678 C677 1.387 . S
C678 C681 1.387 . S
H679 C675 0.950 . S
H680 C677 0.950 . S
C681 C672 1.390 1_455 S
C681 H674 0.950 . S
C681 C678 1.387 . S
C682 C683 1.387 . S
C682 H686 0.950 . S
C682 C691 1.390 . S
C683 C682 1.387 . S
C683 C685 1.387 1_565 S
H684 C691 0.950 . S
C685 C683 1.387 1_545 S
C685 C687 1.390 . S
C685 H689 0.950 . S
H686 C682 0.950 . S
C687 C685 1.390 . S
C687 C688 1.387 . S
C687 H690 0.950 . S
C688 C687 1.387 . S
C688 C691 1.387 1_545 S
H689 C685 0.950 . S
H690 C687 0.950 . S
C691 C682 1.390 . S
C691 H684 0.950 . S
C691 C688 1.387 1_565 S
C692 C693 1.387 1_655 S
C692 H696 0.950 . S
C692 C701 1.390 . S
C693 C692 1.387 1_455 S
C693 C695 1.387 . S
H694 C701 0.950 . S
C695 C693 1.387 . S
C695 C697 1.390 . S
C695 H699 0.950 . S
H696 C692 0.950 . S
C697 C695 1.390 . S
C697 C698 1.387 1_455 S
C697 H700 0.950 . S
C698 C697 1.387 1_655 S
C698 C701 1.387 . S
H699 C695 0.950 . S
H700 C697 0.950 . S
C701 C692 1.390 . S
C701 H694 0.950 . S
C701 C698 1.387 . S
C702 C703 1.387 . S
C702 H706 0.950 . S
C702 C711 1.390 . S
C703 C702 1.387 . S
C703 C705 1.387 1_565 S
H704 C711 0.950 . S
C705 C703 1.387 1_545 S
C705 C707 1.390 . S
C705 H709 0.950 . S
H706 C702 0.950 . S
C707 C705 1.390 . S
C707 C708 1.387 . S
C707 H710 0.950 . S
C708 C707 1.387 . S
C708 C711 1.387 1_545 S
H709 C705 0.950 . S
H710 C707 0.950 . S
C711 C702 1.390 . S
C711 H704 0.950 . S
C711 C708 1.387 1_565 S
C712 C713 1.387 . S
C712 H716 0.950 . S
C712 C721 1.390 1_655 S
C713 C712 1.387 . S
C713 C715 1.387 . S
H714 C721 0.950 . S
C715 C713 1.387 . S
C715 C717 1.390 1_655 S
C715 H719 0.950 . S
H716 C712 0.950 . S
C717 C715 1.390 1_455 S
C717 C718 1.387 . S
C717 H720 0.950 . S
C718 C717 1.387 . S
C718 C721 1.387 . S
H719 C715 0.950 . S
H720 C717 0.950 . S
C721 C712 1.390 1_455 S
C721 H714 0.950 . S
C721 C718 1.387 . S
C722 C723 1.387 . S
C722 H726 0.950 . S
C722 C731 1.373 1_545 S
C723 C722 1.387 . S
C723 C725 1.404 . S
H724 C731 0.951 . S
C725 C723 1.404 . S
C725 C727 1.373 1_545 S
C725 H729 0.951 . S
H726 C722 0.950 . S
C727 C725 1.373 1_565 S
C727 C728 1.387 . S
C727 H730 0.950 . S
C728 C727 1.387 . S
C728 C731 1.404 . S
H729 C725 0.951 . S
H730 C727 0.950 . S
C731 C722 1.373 1_565 S
C731 H724 0.951 . S
C731 C728 1.404 . S
C732 C733 1.387 1_655 S
C732 H736 0.950 . S
C732 C741 1.390 . S
C733 C732 1.387 1_455 S
C733 C735 1.387 . S
H734 C741 0.950 . S
C735 C733 1.387 . S
C735 C737 1.390 . S
C735 H739 0.950 . S
H736 C732 0.950 . S
C737 C735 1.390 . S
C737 C738 1.387 1_455 S
C737 H740 0.950 . S
C738 C737 1.387 1_655 S
C738 C741 1.387 . S
H739 C735 0.950 . S
H740 C737 0.950 . S
C741 C732 1.390 . S
C741 H734 0.950 . S
C741 C738 1.387 . S
C742 C743 1.387 1_565 S
C742 H746 0.950 . S
C742 C751 1.390 . S
C743 C742 1.387 1_545 S
C743 C745 1.387 . S
H744 C751 0.950 . S
C745 C743 1.387 . S
C745 C747 1.390 . S
C745 H749 0.950 . S
H746 C742 0.950 . S
C747 C745 1.390 . S
C747 C748 1.387 1_545 S
C747 H750 0.950 . S
C748 C747 1.387 1_565 S
C748 C751 1.387 . S
H749 C745 0.950 . S
H750 C747 0.950 . S
C751 C742 1.390 . S
C751 H744 0.950 . S
C751 C748 1.387 . S
C752 C753 1.387 . S
C752 H756 0.950 . S
C752 C761 1.390 . S
C753 C752 1.387 . S
C753 C755 1.387 1_554 S
H754 C761 0.950 . S
C755 C753 1.387 1_556 S
C755 C757 1.390 . S
C755 H759 0.950 . S
H756 C752 0.950 . S
C757 C755 1.390 . S
C757 C758 1.387 . S
C757 H760 0.950 . S
C758 C757 1.387 . S
C758 C761 1.387 1_556 S
H759 C755 0.950 . S
H760 C757 0.950 . S
C761 C752 1.390 . S
C761 H754 0.950 . S
C761 C758 1.387 1_554 S
C762 C763 1.387 1_554 S
C762 H766 0.950 . S
C762 C771 1.390 . S
C763 C762 1.387 1_556 S
C763 C765 1.387 . S
H764 C771 0.950 . S
C765 C763 1.387 . S
C765 C767 1.390 . S
C765 H769 0.950 . S
H766 C762 0.950 . S
C767 C765 1.390 . S
C767 C768 1.387 1_556 S
C767 H770 0.950 . S
C768 C767 1.387 1_554 S
C768 C771 1.387 . S
H769 C765 0.950 . S
H770 C767 0.950 . S
C771 C762 1.390 . S
C771 H764 0.950 . S
C771 C768 1.387 . S
C772 C773 1.387 . S
C772 H776 0.950 . S
C772 C781 1.390 . S
C773 C772 1.387 . S
C773 C775 1.387 1_556 S
H774 C781 0.950 . S
C775 C773 1.387 1_554 S
C775 C777 1.390 . S
C775 H779 0.950 . S
H776 C772 0.950 . S
C777 C775 1.390 . S
C777 C778 1.387 . S
C777 H780 0.950 . S
C778 C777 1.387 . S
C778 C781 1.387 1_554 S
H779 C775 0.950 . S
H780 C777 0.950 . S
C781 C772 1.390 . S
C781 H774 0.950 . S
C781 C778 1.387 1_556 S
C782 C783 1.387 . S
C782 H786 0.950 . S
C782 C791 1.390 . S
C783 C782 1.387 . S
C783 C785 1.387 1_556 S
H784 C791 0.950 . S
C785 C783 1.387 1_554 S
C785 C787 1.390 . S
C785 H789 0.950 . S
H786 C782 0.950 . S
C787 C785 1.390 . S
C787 C788 1.387 . S
C787 H790 0.950 . S
C788 C787 1.387 . S
C788 C791 1.387 1_554 S
H789 C785 0.950 . S
H790 C787 0.950 . S
C791 C782 1.390 . S
C791 H784 0.950 . S
C791 C788 1.387 1_556 S
C792 C793 1.387 . S
C792 H796 0.950 . S
C792 C801 1.390 . S
C793 C792 1.387 . S
C793 C795 1.387 . S
H794 C801 0.950 . S
C795 C793 1.387 . S
C795 C797 1.390 . S
C795 H799 0.950 . S
H796 C792 0.950 . S
C797 C795 1.390 . S
C797 C798 1.387 . S
C797 H800 0.950 . S
C798 C797 1.387 . S
C798 C801 1.387 . S
H799 C795 0.950 . S
H800 C797 0.950 . S
C801 C792 1.390 . S
C801 H794 0.950 . S
C801 C798 1.387 . S
C802 C803 1.387 . S
C802 H806 0.950 . S
C802 C811 1.390 . S
C803 C802 1.387 . S
C803 C805 1.387 . S
H804 C811 0.950 . S
C805 C803 1.387 . S
C805 C807 1.390 . S
C805 H809 0.950 . S
H806 C802 0.950 . S
C807 C805 1.390 . S
C807 C808 1.387 . S
C807 H810 0.950 . S
C808 C807 1.387 . S
C808 C811 1.387 . S
H809 C805 0.950 . S
H810 C807 0.950 . S
C811 C802 1.390 . S
C811 H804 0.950 . S
C811 C808 1.387 . S
C812 C813 1.387 . S
C812 H816 0.950 . S
C812 C821 1.390 . S
C813 C812 1.387 . S
C813 C815 1.387 . S
H814 C821 0.950 . S
C815 C813 1.387 . S
C815 C817 1.390 . S
C815 H819 0.950 . S
H816 C812 0.950 . S
C817 C815 1.390 . S
C817 C818 1.387 . S
C817 H820 0.950 . S
C818 C817 1.387 . S
C818 C821 1.387 . S
H819 C815 0.950 . S
H820 C817 0.950 . S
C821 C812 1.390 . S
C821 H814 0.950 . S
C821 C818 1.387 . S
C822 C823 1.387 . S
C822 H826 0.950 . S
C822 C831 1.390 . S
C823 C822 1.387 . S
C823 C825 1.387 . S
H824 C831 0.950 . S
C825 C823 1.387 . S
C825 C827 1.390 . S
C825 H829 0.950 . S
H826 C822 0.950 . S
C827 C825 1.390 . S
C827 C828 1.387 . S
C827 H830 0.950 . S
C828 C827 1.387 . S
C828 C831 1.387 . S
H829 C825 0.950 . S
H830 C827 0.950 . S
C831 C822 1.390 . S
C831 H824 0.950 . S
C831 C828 1.387 . S
C832 C833 1.387 . S
C832 H836 0.950 . S
C832 C841 1.390 . S
C833 C832 1.387 . S
C833 C835 1.387 . S
H834 C841 0.950 . S
C835 C833 1.387 . S
C835 C837 1.390 . S
C835 H839 0.950 . S
H836 C832 0.950 . S
C837 C835 1.390 . S
C837 C838 1.387 . S
C837 H840 0.950 . S
C838 C837 1.387 . S
C838 C841 1.387 . S
H839 C835 0.950 . S
H840 C837 0.950 . S
C841 C832 1.390 . S
C841 H834 0.950 . S
C841 C838 1.387 . S
C842 C843 1.387 . S
C842 H846 0.950 . S
C842 C851 1.390 . S
C843 C842 1.387 . S
C843 C845 1.387 . S
H844 C851 0.950 . S
C845 C843 1.387 . S
C845 C847 1.390 . S
C845 H849 0.950 . S
H846 C842 0.950 . S
C847 C845 1.390 . S
C847 C848 1.387 . S
C847 H850 0.950 . S
C848 C847 1.387 . S
C848 C851 1.387 . S
H849 C845 0.950 . S
H850 C847 0.950 . S
C851 C842 1.390 . S
C851 H844 0.950 . S
C851 C848 1.387 . S
C852 C853 1.387 . S
C852 H856 0.950 . S
C852 C861 1.390 . S
C853 C852 1.387 . S
C853 C855 1.387 . S
H854 C861 0.950 . S
C855 C853 1.387 . S
C855 C857 1.390 . S
C855 H859 0.950 . S
H856 C852 0.950 . S
C857 C855 1.390 . S
C857 C858 1.387 . S
C857 H860 0.950 . S
C858 C857 1.387 . S
C858 C861 1.387 . S
H859 C855 0.950 . S
H860 C857 0.950 . S
C861 C852 1.390 . S
C861 H854 0.950 . S
C861 C858 1.387 . S
C862 C863 1.387 . S
C862 H866 0.950 . S
C862 C871 1.390 . S
C863 C862 1.387 . S
C863 C865 1.387 . S
H864 C871 0.950 . S
C865 C863 1.387 . S
C865 C867 1.390 . S
C865 H869 0.950 . S
H866 C862 0.950 . S
C867 C865 1.390 . S
C867 C868 1.387 . S
C867 H870 0.950 . S
C868 C867 1.387 . S
C868 C871 1.387 . S
H869 C865 0.950 . S
H870 C867 0.950 . S
C871 C862 1.390 . S
C871 H864 0.950 . S
C871 C868 1.387 . S
C872 C873 1.387 . S
C872 H876 0.950 . S
C872 C881 1.390 . S
C873 C872 1.387 . S
C873 C875 1.387 . S
H874 C881 0.950 . S
C875 C873 1.387 . S
C875 C877 1.390 . S
C875 H879 0.950 . S
H876 C872 0.950 . S
C877 C875 1.390 . S
C877 C878 1.387 . S
C877 H880 0.950 . S
C878 C877 1.387 . S
C878 C881 1.387 . S
H879 C875 0.950 . S
H880 C877 0.950 . S
C881 C872 1.390 . S
C881 H874 0.950 . S
C881 C878 1.387 . S
C882 C883 1.387 . S
C882 H886 0.950 . S
C882 C891 1.390 . S
C883 C882 1.387 . S
C883 C885 1.387 . S
H884 C891 0.950 . S
C885 C883 1.387 . S
C885 C887 1.390 . S
C885 H889 0.950 . S
H886 C882 0.950 . S
C887 C885 1.390 . S
C887 C888 1.387 . S
C887 H890 0.950 . S
C888 C887 1.387 . S
C888 C891 1.387 . S
H889 C885 0.950 . S
H890 C887 0.950 . S
C891 C882 1.390 . S
C891 H884 0.950 . S
C891 C888 1.387 . S
C892 C893 1.387 . S
C892 H896 0.950 . S
C892 C901 1.390 . S
C893 C892 1.387 . S
C893 C895 1.387 . S
H894 C901 0.950 . S
C895 C893 1.387 . S
C895 C897 1.390 . S
C895 H899 0.950 . S
H896 C892 0.950 . S
C897 C895 1.390 . S
C897 C898 1.387 . S
C897 H900 0.950 . S
C898 C897 1.387 . S
C898 C901 1.387 . S
H899 C895 0.950 . S
H900 C897 0.950 . S
C901 C892 1.390 . S
C901 H894 0.950 . S
C901 C898 1.387 . S
C902 C903 1.387 . S
C902 H906 0.950 . S
C902 C911 1.390 . S
C903 C902 1.387 . S
C903 C905 1.387 . S
H904 C911 0.950 . S
C905 C903 1.387 . S
C905 C907 1.390 . S
C905 H909 0.950 . S
H906 C902 0.950 . S
C907 C905 1.390 . S
C907 C908 1.387 . S
C907 H910 0.950 . S
C908 C907 1.387 . S
C908 C911 1.387 . S
H909 C905 0.950 . S
H910 C907 0.950 . S
C911 C902 1.390 . S
C911 H904 0.950 . S
C911 C908 1.387 . S
C912 C913 1.387 . S
C912 H916 0.950 . S
C912 C921 1.390 . S
C913 C912 1.387 . S
C913 C915 1.387 . S
H914 C921 0.950 . S
C915 C913 1.387 . S
C915 C917 1.390 . S
C915 H919 0.950 . S
H916 C912 0.950 . S
C917 C915 1.390 . S
C917 C918 1.387 . S
C917 H920 0.950 . S
C918 C917 1.387 . S
C918 C921 1.387 . S
H919 C915 0.950 . S
H920 C917 0.950 . S
C921 C912 1.390 . S
C921 H914 0.950 . S
C921 C918 1.387 . S
C922 C923 1.387 . S
C922 H926 0.950 . S
C922 C931 1.390 . S
C923 C922 1.387 . S
C923 C925 1.387 . S
H924 C931 0.950 . S
C925 C923 1.387 . S
C925 C927 1.390 . S
C925 H929 0.950 . S
H926 C922 0.950 . S
C927 C925 1.390 . S
C927 C928 1.387 . S
C927 H930 0.950 . S
C928 C927 1.387 . S
C928 C931 1.387 . S
H929 C925 0.950 . S
H930 C927 0.950 . S
C931 C922 1.390 . S
C931 H924 0.950 . S
C931 C928 1.387 . S
C932 C933 1.387 . S
C932 H936 0.950 . S
C932 C941 1.390 . S
C933 C932 1.387 . S
C933 C935 1.387 . S
H934 C941 0.950 . S
C935 C933 1.387 . S
C935 C937 1.390 . S
C935 H939 0.950 . S
H936 C932 0.950 . S
C937 C935 1.390 . S
C937 C938 1.387 . S
C937 H940 0.950 . S
C938 C937 1.387 . S
C938 C941 1.387 . S
H939 C935 0.950 . S
H940 C937 0.950 . S
C941 C932 1.390 . S
C941 H934 0.950 . S
C941 C938 1.387 . S
C942 C943 1.387 . S
C942 H946 0.950 . S
C942 C951 1.390 . S
C943 C942 1.387 . S
C943 C945 1.387 . S
H944 C951 0.950 . S
C945 C943 1.387 . S
C945 C947 1.390 . S
C945 H949 0.950 . S
H946 C942 0.950 . S
C947 C945 1.390 . S
C947 C948 1.387 . S
C947 H950 0.950 . S
C948 C947 1.387 . S
C948 C951 1.387 . S
H949 C945 0.950 . S
H950 C947 0.950 . S
C951 C942 1.390 . S
C951 H944 0.950 . S
C951 C948 1.387 . S
C952 C953 1.387 . S
C952 H956 0.950 . S
C952 C961 1.390 . S
C953 C952 1.387 . S
C953 C955 1.387 . S
H954 C961 0.950 . S
C955 C953 1.387 . S
C955 C957 1.390 . S
C955 H959 0.950 . S
H956 C952 0.950 . S
C957 C955 1.390 . S
C957 C958 1.387 . S
C957 H960 0.950 . S
C958 C957 1.387 . S
C958 C961 1.387 . S
H959 C955 0.950 . S
H960 C957 0.950 . S
C961 C952 1.390 . S
C961 H954 0.950 . S
C961 C958 1.387 . S
C962 C963 1.387 . S
C962 H966 0.950 . S
C962 C971 1.390 . S
C963 C962 1.387 . S
C963 C965 1.387 . S
H964 C971 0.950 . S
C965 C963 1.387 . S
C965 C967 1.390 . S
C965 H969 0.950 . S
H966 C962 0.950 . S
C967 C965 1.390 . S
C967 C968 1.387 . S
C967 H970 0.950 . S
C968 C967 1.387 . S
C968 C971 1.387 . S
H969 C965 0.950 . S
H970 C967 0.950 . S
C971 C962 1.390 . S
C971 H964 0.950 . S
C971 C968 1.387 . S
C972 C973 1.387 . S
C972 H976 0.950 . S
C972 C981 1.390 . S
C973 C972 1.387 . S
C973 C975 1.387 . S
H974 C981 0.950 . S
C975 C973 1.387 . S
C975 C977 1.390 . S
C975 H979 0.950 . S
H976 C972 0.950 . S
C977 C975 1.390 . S
C977 C978 1.387 . S
C977 H980 0.950 . S
C978 C977 1.387 . S
C978 C981 1.387 . S
H979 C975 0.950 . S
H980 C977 0.950 . S
C981 C972 1.390 . S
C981 H974 0.950 . S
C981 C978 1.387 . S
C982 C983 1.387 . S
C982 H986 0.950 . S
C982 C991 1.390 . S
C983 C982 1.387 . S
C983 C985 1.387 . S
H984 C991 0.950 . S
C985 C983 1.387 . S
C985 C987 1.390 . S
C985 H989 0.950 . S
H986 C982 0.950 . S
C987 C985 1.390 . S
C987 C988 1.387 . S
C987 H990 0.950 . S
C988 C987 1.387 . S
C988 C991 1.387 . S
H989 C985 0.950 . S
H990 C987 0.950 . S
C991 C982 1.390 . S
C991 H984 0.950 . S
C991 C988 1.387 . S
C992 C993 1.387 . S
C992 H996 0.950 . S
C992 C1001 1.390 . S
C993 C992 1.387 . S
C993 C995 1.387 . S
H994 C1001 0.950 . S
C995 C993 1.387 . S
C995 C997 1.390 . S
C995 H999 0.950 . S
H996 C992 0.950 . S
C997 C995 1.390 . S
C997 C998 1.387 . S
C997 H1000 0.950 . S
C998 C997 1.387 . S
C998 C1001 1.387 . S
H999 C995 0.950 . S
H1000 C997 0.950 . S
C1001 C992 1.390 . S
C1001 H994 0.950 . S
C1001 C998 1.387 . S
C1002 C1003 1.387 . S
C1002 H1006 0.950 . S
C1002 C1011 1.390 . S
C1003 C1002 1.387 . S
C1003 C1005 1.387 . S
H1004 C1011 0.950 . S
C1005 C1003 1.387 . S
C1005 C1007 1.390 . S
C1005 H1009 0.950 . S
H1006 C1002 0.950 . S
C1007 C1005 1.390 . S
C1007 C1008 1.387 . S
C1007 H1010 0.950 . S
C1008 C1007 1.387 . S
C1008 C1011 1.387 . S
H1009 C1005 0.950 . S
H1010 C1007 0.950 . S
C1011 C1002 1.390 . S
C1011 H1004 0.950 . S
C1011 C1008 1.387 . S
C1012 C1013 1.387 . S
C1012 H1016 0.950 . S
C1012 C1021 1.390 . S
C1013 C1012 1.387 . S
C1013 C1015 1.387 . S
H1014 C1021 0.950 . S
C1015 C1013 1.387 . S
C1015 C1017 1.390 . S
C1015 H1019 0.950 . S
H1016 C1012 0.950 . S
C1017 C1015 1.390 . S
C1017 C1018 1.387 . S
C1017 H1020 0.950 . S
C1018 C1017 1.387 . S
C1018 C1021 1.387 . S
H1019 C1015 0.950 . S
H1020 C1017 0.950 . S
C1021 C1012 1.390 . S
C1021 H1014 0.950 . S
C1021 C1018 1.387 . S
C1022 C1023 1.387 . S
C1022 H1026 0.950 . S
C1022 C1031 1.390 . S
C1023 C1022 1.387 . S
C1023 C1025 1.387 . S
H1024 C1031 0.950 . S
C1025 C1023 1.387 . S
C1025 C1027 1.390 . S
C1025 H1029 0.950 . S
H1026 C1022 0.950 . S
C1027 C1025 1.390 . S
C1027 C1028 1.387 . S
C1027 H1030 0.950 . S
C1028 C1027 1.387 . S
C1028 C1031 1.387 . S
H1029 C1025 0.950 . S
H1030 C1027 0.950 . S
C1031 C1022 1.390 . S
C1031 H1024 0.950 . S
C1031 C1028 1.387 . S
C1032 C1033 1.387 . S
C1032 H1036 0.950 . S
C1032 C1041 1.390 . S
C1033 C1032 1.387 . S
C1033 C1035 1.387 . S
H1034 C1041 0.950 . S
C1035 C1033 1.387 . S
C1035 C1037 1.390 . S
C1035 H1039 0.950 . S
H1036 C1032 0.950 . S
C1037 C1035 1.390 . S
C1037 C1038 1.387 . S
C1037 H1040 0.950 . S
C1038 C1037 1.387 . S
C1038 C1041 1.387 . S
H1039 C1035 0.950 . S
H1040 C1037 0.950 . S
C1041 C1032 1.390 . S
C1041 H1034 0.950 . S
C1041 C1038 1.387 . S
C1042 C1043 1.387 . S
C1042 H1046 0.950 . S
C1042 C1051 1.390 . S
C1043 C1042 1.387 . S
C1043 C1045 1.387 . S
H1044 C1051 0.950 . S
C1045 C1043 1.387 . S
C1045 C1047 1.390 . S
C1045 H1049 0.950 . S
H1046 C1042 0.950 . S
C1047 C1045 1.390 . S
C1047 C1048 1.387 . S
C1047 H1050 0.950 . S
C1048 C1047 1.387 . S
C1048 C1051 1.387 . S
H1049 C1045 0.950 . S
H1050 C1047 0.950 . S
C1051 C1042 1.390 . S
C1051 H1044 0.950 . S
C1051 C1048 1.387 . S
C1052 C1053 1.387 . S
C1052 H1056 0.950 . S
C1052 C1061 1.390 . S
C1053 C1052 1.387 . S
C1053 C1055 1.387 . S
H1054 C1061 0.950 . S
C1055 C1053 1.387 . S
C1055 C1057 1.390 . S
C1055 H1059 0.950 . S
H1056 C1052 0.950 . S
C1057 C1055 1.390 . S
C1057 C1058 1.387 . S
C1057 H1060 0.950 . S
C1058 C1057 1.387 . S
C1058 C1061 1.387 . S
H1059 C1055 0.950 . S
H1060 C1057 0.950 . S
C1061 C1052 1.390 . S
C1061 H1054 0.950 . S
C1061 C1058 1.387 . S
C1062 C1063 1.387 . S
C1062 H1066 0.950 . S
C1062 C1071 1.390 . S
C1063 C1062 1.387 . S
C1063 C1065 1.387 . S
H1064 C1071 0.950 . S
C1065 C1063 1.387 . S
C1065 C1067 1.390 . S
C1065 H1069 0.950 . S
H1066 C1062 0.950 . S
C1067 C1065 1.390 . S
C1067 C1068 1.387 . S
C1067 H1070 0.950 . S
C1068 C1067 1.387 . S
C1068 C1071 1.387 . S
H1069 C1065 0.950 . S
H1070 C1067 0.950 . S
C1071 C1062 1.390 . S
C1071 H1064 0.950 . S
C1071 C1068 1.387 . S
C1072 C1073 1.387 . S
C1072 H1076 0.950 . S
C1072 C1081 1.390 . S
C1073 C1072 1.387 . S
C1073 C1075 1.387 . S
H1074 C1081 0.950 . S
C1075 C1073 1.387 . S
C1075 C1077 1.390 . S
C1075 H1079 0.950 . S
H1076 C1072 0.950 . S
C1077 C1075 1.390 . S
C1077 C1078 1.387 . S
C1077 H1080 0.950 . S
C1078 C1077 1.387 . S
C1078 C1081 1.387 . S
H1079 C1075 0.950 . S
H1080 C1077 0.950 . S
C1081 C1072 1.390 . S
C1081 H1074 0.950 . S
C1081 C1078 1.387 . S
C1082 C1083 1.387 . S
C1082 H1086 0.950 . S
C1082 C1091 1.390 . S
C1083 C1082 1.387 . S
C1083 C1085 1.387 . S
H1084 C1091 0.950 . S
C1085 C1083 1.387 . S
C1085 C1087 1.390 . S
C1085 H1089 0.950 . S
H1086 C1082 0.950 . S
C1087 C1085 1.390 . S
C1087 C1088 1.387 . S
C1087 H1090 0.950 . S
C1088 C1087 1.387 . S
C1088 C1091 1.387 . S
H1089 C1085 0.950 . S
H1090 C1087 0.950 . S
C1091 C1082 1.390 . S
C1091 H1084 0.950 . S
C1091 C1088 1.387 . S
C1092 C1093 1.387 . S
C1092 H1096 0.950 . S
C1092 C1101 1.390 . S
C1093 C1092 1.387 . S
C1093 C1095 1.387 . S
H1094 C1101 0.950 . S
C1095 C1093 1.387 . S
C1095 C1097 1.390 . S
C1095 H1099 0.950 . S
H1096 C1092 0.950 . S
C1097 C1095 1.390 . S
C1097 C1098 1.387 . S
C1097 H1100 0.950 . S
C1098 C1097 1.387 . S
C1098 C1101 1.387 . S
H1099 C1095 0.950 . S
H1100 C1097 0.950 . S
C1101 C1092 1.390 . S
C1101 H1094 0.950 . S
C1101 C1098 1.387 . S
C1102 C1103 1.387 . S
C1102 H1106 0.950 . S
C1102 C1111 1.390 . S
C1103 C1102 1.387 . S
C1103 C1105 1.387 . S
H1104 C1111 0.950 . S
C1105 C1103 1.387 . S
C1105 C1107 1.390 . S
C1105 H1109 0.950 . S
H1106 C1102 0.950 . S
C1107 C1105 1.390 . S
C1107 C1108 1.387 . S
C1107 H1110 0.950 . S
C1108 C1107 1.387 . S
C1108 C1111 1.387 . S
H1109 C1105 0.950 . S
H1110 C1107 0.950 . S
C1111 C1102 1.390 . S
C1111 H1104 0.950 . S
C1111 C1108 1.387 . S
C1112 C1113 1.387 . S
C1112 H1116 0.950 . S
C1112 C1121 1.390 . S
C1113 C1112 1.387 . S
C1113 C1115 1.387 . S
H1114 C1121 0.950 . S
C1115 C1113 1.387 . S
C1115 C1117 1.390 . S
C1115 H1119 0.950 . S
H1116 C1112 0.950 . S
C1117 C1115 1.390 . S
C1117 C1118 1.387 . S
C1117 H1120 0.950 . S
C1118 C1117 1.387 . S
C1118 C1121 1.387 . S
H1119 C1115 0.950 . S
H1120 C1117 0.950 . S
C1121 C1112 1.390 . S
C1121 H1114 0.950 . S
C1121 C1118 1.387 . S
C1122 C1123 1.387 . S
C1122 H1126 0.950 . S
C1122 C1131 1.390 . S
C1123 C1122 1.387 . S
C1123 C1125 1.387 . S
H1124 C1131 0.950 . S
C1125 C1123 1.387 . S
C1125 C1127 1.390 . S
C1125 H1129 0.950 . S
H1126 C1122 0.950 . S
C1127 C1125 1.390 . S
C1127 C1128 1.387 . S
C1127 H1130 0.950 . S
C1128 C1127 1.387 . S
C1128 C1131 1.387 . S
H1129 C1125 0.950 . S
H1130 C1127 0.950 . S
C1131 C1122 1.390 . S
C1131 H1124 0.950 . S
C1131 C1128 1.387 . S
C1132 C1133 1.387 . S
C1132 H1136 0.950 . S
C1132 C1141 1.390 . S
C1133 C1132 1.387 . S
C1133 C1135 1.387 . S
H1134 C1141 0.950 . S
C1135 C1133 1.387 . S
C1135 C1137 1.390 . S
C1135 H1139 0.950 . S
H1136 C1132 0.950 . S
C1137 C1135 1.390 . S
C1137 C1138 1.387 . S
C1137 H1140 0.950 . S
C1138 C1137 1.387 . S
C1138 C1141 1.387 . S
H1139 C1135 0.950 . S
H1140 C1137 0.950 . S
C1141 C1132 1.390 . S
C1141 H1134 0.950 . S
C1141 C1138 1.387 . S
C1142 C1143 1.387 . S
C1142 H1146 0.950 . S
C1142 C1151 1.390 . S
C1143 C1142 1.387 . S
C1143 C1145 1.387 . S
H1144 C1151 0.950 . S
C1145 C1143 1.387 . S
C1145 C1147 1.390 . S
C1145 H1149 0.950 . S
H1146 C1142 0.950 . S
C1147 C1145 1.390 . S
C1147 C1148 1.387 . S
C1147 H1150 0.950 . S
C1148 C1147 1.387 . S
C1148 C1151 1.387 . S
H1149 C1145 0.950 . S
H1150 C1147 0.950 . S
C1151 C1142 1.390 . S
C1151 H1144 0.950 . S
C1151 C1148 1.387 . S
C1152 C1153 1.387 . S
C1152 H1156 0.950 . S
C1152 C1161 1.390 . S
C1153 C1152 1.387 . S
C1153 C1155 1.387 . S
H1154 C1161 0.950 . S
C1155 C1153 1.387 . S
C1155 C1157 1.390 . S
C1155 H1159 0.950 . S
H1156 C1152 0.950 . S
C1157 C1155 1.390 . S
C1157 C1158 1.387 . S
C1157 H1160 0.950 . S
C1158 C1157 1.387 . S
C1158 C1161 1.387 . S
H1159 C1155 0.950 . S
H1160 C1157 0.950 . S
C1161 C1152 1.390 . S
C1161 H1154 0.950 . S
C1161 C1158 1.387 . S
C1162 C1163 1.387 . S
C1162 H1166 0.950 . S
C1162 C1171 1.390 . S
C1163 C1162 1.387 . S
C1163 C1165 1.387 . S
H1164 C1171 0.950 . S
C1165 C1163 1.387 . S
C1165 C1167 1.390 . S
C1165 H1169 0.950 . S
H1166 C1162 0.950 . S
C1167 C1165 1.390 . S
C1167 C1168 1.387 . S
C1167 H1170 0.950 . S
C1168 C1167 1.387 . S
C1168 C1171 1.387 . S
H1169 C1165 0.950 . S
H1170 C1167 0.950 . S
C1171 C1162 1.390 . S
C1171 H1164 0.950 . S
C1171 C1168 1.387 . S
C1172 C1173 1.387 . S
C1172 H1176 0.950 . S
C1172 C1181 1.390 . S
C1173 C1172 1.387 . S
C1173 C1175 1.387 . S
H1174 C1181 0.950 . S
C1175 C1173 1.387 . S
C1175 C1177 1.390 . S
C1175 H1179 0.950 . S
H1176 C1172 0.950 . S
C1177 C1175 1.390 . S
C1177 C1178 1.387 . S
C1177 H1180 0.950 . S
C1178 C1177 1.387 . S
C1178 C1181 1.387 . S
H1179 C1175 0.950 . S
H1180 C1177 0.950 . S
C1181 C1172 1.390 . S
C1181 H1174 0.950 . S
C1181 C1178 1.387 . S
C1182 C1183 1.387 . S
C1182 H1186 0.950 . S
C1182 C1191 1.390 . S
C1183 C1182 1.387 . S
C1183 C1185 1.387 . S
H1184 C1191 0.950 . S
C1185 C1183 1.387 . S
C1185 C1187 1.390 . S
C1185 H1189 0.950 . S
H1186 C1182 0.950 . S
C1187 C1185 1.390 . S
C1187 C1188 1.387 . S
C1187 H1190 0.950 . S
C1188 C1187 1.387 . S
C1188 C1191 1.387 . S
H1189 C1185 0.950 . S
H1190 C1187 0.950 . S
C1191 C1182 1.390 . S
C1191 H1184 0.950 . S
C1191 C1188 1.387 . S
C1192 C1193 1.387 . S
C1192 H1196 0.950 . S
C1192 C1201 1.390 . S
C1193 C1192 1.387 . S
C1193 C1195 1.387 . S
H1194 C1201 0.950 . S
C1195 C1193 1.387 . S
C1195 C1197 1.390 . S
C1195 H1199 0.950 . S
H1196 C1192 0.950 . S
C1197 C1195 1.390 . S
C1197 C1198 1.387 . S
C1197 H1200 0.950 . S
C1198 C1197 1.387 . S
C1198 C1201 1.387 . S
H1199 C1195 0.950 . S
H1200 C1197 0.950 . S
C1201 C1192 1.390 . S
C1201 H1194 0.950 . S
C1201 C1198 1.387 . S
C1202 C1203 1.387 . S
C1202 H1206 0.950 . S
C1202 C1211 1.390 . S
C1203 C1202 1.387 . S
C1203 C1205 1.387 . S
H1204 C1211 0.950 . S
C1205 C1203 1.387 . S
C1205 C1207 1.390 . S
C1205 H1209 0.950 . S
H1206 C1202 0.950 . S
C1207 C1205 1.390 . S
C1207 C1208 1.387 . S
C1207 H1210 0.950 . S
C1208 C1207 1.387 . S
C1208 C1211 1.387 . S
H1209 C1205 0.950 . S
H1210 C1207 0.950 . S
C1211 C1202 1.390 . S
C1211 H1204 0.950 . S
C1211 C1208 1.387 . S
C1212 C1213 1.387 . S
C1212 H1216 0.950 . S
C1212 C1221 1.390 . S
C1213 C1212 1.387 . S
C1213 C1215 1.387 . S
H1214 C1221 0.950 . S
C1215 C1213 1.387 . S
C1215 C1217 1.390 . S
C1215 H1219 0.950 . S
H1216 C1212 0.950 . S
C1217 C1215 1.390 . S
C1217 C1218 1.387 . S
C1217 H1220 0.950 . S
C1218 C1217 1.387 . S
C1218 C1221 1.387 . S
H1219 C1215 0.950 . S
H1220 C1217 0.950 . S
C1221 C1212 1.390 . S
C1221 H1214 0.950 . S
C1221 C1218 1.387 . S
C1222 C1223 1.387 . S
C1222 H1226 0.950 . S
C1222 C1231 1.390 . S
C1223 C1222 1.387 . S
C1223 C1225 1.387 . S
H1224 C1231 0.950 . S
C1225 C1223 1.387 . S
C1225 C1227 1.390 . S
C1225 H1229 0.950 . S
H1226 C1222 0.950 . S
C1227 C1225 1.390 . S
C1227 C1228 1.387 . S
C1227 H1230 0.950 . S
C1228 C1227 1.387 . S
C1228 C1231 1.387 . S
H1229 C1225 0.950 . S
H1230 C1227 0.950 . S
C1231 C1222 1.390 . S
C1231 H1224 0.950 . S
C1231 C1228 1.387 . S
C1232 C1233 1.387 . S
C1232 H1236 0.950 . S
C1232 C1241 1.390 . S
C1233 C1232 1.387 . S
C1233 C1235 1.387 . S
H1234 C1241 0.950 . S
C1235 C1233 1.387 . S
C1235 C1237 1.390 . S
C1235 H1239 0.950 . S
H1236 C1232 0.950 . S
C1237 C1235 1.390 . S
C1237 C1238 1.387 . S
C1237 H1240 0.950 . S
C1238 C1237 1.387 . S
C1238 C1241 1.387 . S
H1239 C1235 0.950 . S
H1240 C1237 0.950 . S
C1241 C1232 1.390 . S
C1241 H1234 0.950 . S
C1241 C1238 1.387 . S
C1242 C1243 1.387 . S
C1242 H1246 0.950 . S
C1242 C1251 1.390 . S
C1243 C1242 1.387 . S
C1243 C1245 1.387 . S
H1244 C1251 0.950 . S
C1245 C1243 1.387 . S
C1245 C1247 1.390 . S
C1245 H1249 0.950 . S
H1246 C1242 0.950 . S
C1247 C1245 1.390 . S
C1247 C1248 1.387 . S
C1247 H1250 0.950 . S
C1248 C1247 1.387 . S
C1248 C1251 1.387 . S
H1249 C1245 0.950 . S
H1250 C1247 0.950 . S
C1251 C1242 1.390 . S
C1251 H1244 0.950 . S
C1251 C1248 1.387 . S
C1252 C1253 1.387 . S
C1252 H1256 0.950 . S
C1252 C1261 1.390 . S
C1253 C1252 1.387 . S
C1253 C1255 1.387 . S
H1254 C1261 0.950 . S
C1255 C1253 1.387 . S
C1255 C1257 1.390 . S
C1255 H1259 0.950 . S
H1256 C1252 0.950 . S
C1257 C1255 1.390 . S
C1257 C1258 1.387 . S
C1257 H1260 0.950 . S
C1258 C1257 1.387 . S
C1258 C1261 1.387 . S
H1259 C1255 0.950 . S
H1260 C1257 0.950 . S
C1261 C1252 1.390 . S
C1261 H1254 0.950 . S
C1261 C1258 1.387 . S
C1262 C1263 1.387 . S
C1262 H1266 0.950 . S
C1262 C1271 1.390 . S
C1263 C1262 1.387 . S
C1263 C1265 1.387 . S
H1264 C1271 0.950 . S
C1265 C1263 1.387 . S
C1265 C1267 1.390 . S
C1265 H1269 0.950 . S
H1266 C1262 0.950 . S
C1267 C1265 1.390 . S
C1267 C1268 1.387 . S
C1267 H1270 0.950 . S
C1268 C1267 1.387 . S
C1268 C1271 1.387 . S
H1269 C1265 0.950 . S
H1270 C1267 0.950 . S
C1271 C1262 1.390 . S
C1271 H1264 0.950 . S
C1271 C1268 1.387 . S
C1272 C1273 1.387 . S
C1272 H1276 0.950 . S
C1272 C1281 1.390 . S
C1273 C1272 1.387 . S
C1273 C1275 1.387 . S
H1274 C1281 0.950 . S
C1275 C1273 1.387 . S
C1275 C1277 1.390 . S
C1275 H1279 0.950 . S
H1276 C1272 0.950 . S
C1277 C1275 1.390 . S
C1277 C1278 1.387 . S
C1277 H1280 0.950 . S
C1278 C1277 1.387 . S
C1278 C1281 1.387 . S
H1279 C1275 0.950 . S
H1280 C1277 0.950 . S
C1281 C1272 1.390 . S
C1281 H1274 0.950 . S
C1281 C1278 1.387 . S
C1282 C1283 1.387 . S
C1282 H1286 0.950 . S
C1282 C1291 1.390 . S
C1283 C1282 1.387 . S
C1283 C1285 1.387 . S
H1284 C1291 0.950 . S
C1285 C1283 1.387 . S
C1285 C1287 1.390 . S
C1285 H1289 0.950 . S
H1286 C1282 0.950 . S
C1287 C1285 1.390 . S
C1287 C1288 1.387 . S
C1287 H1290 0.950 . S
C1288 C1287 1.387 . S
C1288 C1291 1.387 . S
H1289 C1285 0.950 . S
H1290 C1287 0.950 . S
C1291 C1282 1.390 . S
C1291 H1284 0.950 . S
C1291 C1288 1.387 . S
C1292 C1293 1.387 . S
C1292 H1296 0.950 . S
C1292 C1301 1.390 . S
C1293 C1292 1.387 . S
C1293 C1295 1.387 . S
H1294 C1301 0.950 . S
C1295 C1293 1.387 . S
C1295 C1297 1.390 . S
C1295 H1299 0.950 . S
H1296 C1292 0.950 . S
C1297 C1295 1.390 . S
C1297 C1298 1.387 . S
C1297 H1300 0.950 . S
C1298 C1297 1.387 . S
C1298 C1301 1.387 . S
H1299 C1295 0.950 . S
H1300 C1297 0.950 . S
C1301 C1292 1.390 . S
C1301 H1294 0.950 . S
C1301 C1298 1.387 . S
C1302 C1303 1.387 . S
C1302 H1306 0.950 . S
C1302 C1311 1.390 . S
C1303 C1302 1.387 . S
C1303 C1305 1.387 . S
H1304 C1311 0.950 . S
C1305 C1303 1.387 . S
C1305 C1307 1.390 . S
C1305 H1309 0.950 . S
H1306 C1302 0.950 . S
C1307 C1305 1.390 . S
C1307 C1308 1.387 . S
C1307 H1310 0.950 . S
C1308 C1307 1.387 . S
C1308 C1311 1.387 . S
H1309 C1305 0.950 . S
H1310 C1307 0.950 . S
C1311 C1302 1.390 . S
C1311 H1304 0.950 . S
C1311 C1308 1.387 . S
C1312 C1313 1.387 . S
C1312 H1316 0.950 . S
C1312 C1321 1.390 . S
C1313 C1312 1.387 . S
C1313 C1315 1.387 . S
H1314 C1321 0.950 . S
C1315 C1313 1.387 . S
C1315 C1317 1.390 . S
C1315 H1319 0.950 . S
H1316 C1312 0.950 . S
C1317 C1315 1.390 . S
C1317 C1318 1.387 . S
C1317 H1320 0.950 . S
C1318 C1317 1.387 . S
C1318 C1321 1.387 . S
H1319 C1315 0.950 . S
H1320 C1317 0.950 . S
C1321 C1312 1.390 . S
C1321 H1314 0.950 . S
C1321 C1318 1.387 . S
C1322 C1323 1.387 . S
C1322 H1326 0.950 . S
C1322 C1331 1.390 . S
C1323 C1322 1.387 . S
C1323 C1325 1.387 . S
H1324 C1331 0.950 . S
C1325 C1323 1.387 . S
C1325 C1327 1.390 . S
C1325 H1329 0.950 . S
H1326 C1322 0.950 . S
C1327 C1325 1.390 . S
C1327 C1328 1.387 . S
C1327 H1330 0.950 . S
C1328 C1327 1.387 . S
C1328 C1331 1.387 . S
H1329 C1325 0.950 . S
H1330 C1327 0.950 . S
C1331 C1322 1.390 . S
C1331 H1324 0.950 . S
C1331 C1328 1.387 . S
C1332 C1333 1.387 . S
C1332 H1336 0.950 . S
C1332 C1341 1.390 . S
C1333 C1332 1.387 . S
C1333 C1335 1.387 . S
H1334 C1341 0.950 . S
C1335 C1333 1.387 . S
C1335 C1337 1.390 . S
C1335 H1339 0.950 . S
H1336 C1332 0.950 . S
C1337 C1335 1.390 . S
C1337 C1338 1.387 . S
C1337 H1340 0.950 . S
C1338 C1337 1.387 . S
C1338 C1341 1.387 . S
H1339 C1335 0.950 . S
H1340 C1337 0.950 . S
C1341 C1332 1.390 . S
C1341 H1334 0.950 . S
C1341 C1338 1.387 . S
C1342 C1343 1.387 . S
C1342 H1346 0.950 . S
C1342 C1351 1.390 . S
C1343 C1342 1.387 . S
C1343 C1345 1.387 . S
H1344 C1351 0.950 . S
C1345 C1343 1.387 . S
C1345 C1347 1.390 . S
C1345 H1349 0.950 . S
H1346 C1342 0.950 . S
C1347 C1345 1.390 . S
C1347 C1348 1.387 . S
C1347 H1350 0.950 . S
C1348 C1347 1.387 . S
C1348 C1351 1.387 . S
H1349 C1345 0.950 . S
H1350 C1347 0.950 . S
C1351 C1342 1.390 . S
C1351 H1344 0.950 . S
C1351 C1348 1.387 . S
C1352 C1353 1.387 . S
C1352 H1356 0.950 . S
C1352 C1361 1.390 . S
C1353 C1352 1.387 . S
C1353 C1355 1.387 . S
H1354 C1361 0.950 . S
C1355 C1353 1.387 . S
C1355 C1357 1.390 . S
C1355 H1359 0.950 . S
H1356 C1352 0.950 . S
C1357 C1355 1.390 . S
C1357 C1358 1.387 . S
C1357 H1360 0.950 . S
C1358 C1357 1.387 . S
C1358 C1361 1.387 . S
H1359 C1355 0.950 . S
H1360 C1357 0.950 . S
C1361 C1352 1.390 . S
C1361 H1354 0.950 . S
C1361 C1358 1.387 . S
C1362 C1363 1.387 . S
C1362 H1366 0.950 . S
C1362 C1371 1.390 . S
C1363 C1362 1.387 . S
C1363 C1365 1.387 . S
H1364 C1371 0.950 . S
C1365 C1363 1.387 . S
C1365 C1367 1.390 . S
C1365 H1369 0.950 . S
H1366 C1362 0.950 . S
C1367 C1365 1.390 . S
C1367 C1368 1.387 . S
C1367 H1370 0.950 . S
C1368 C1367 1.387 . S
C1368 C1371 1.387 . S
H1369 C1365 0.950 . S
H1370 C1367 0.950 . S
C1371 C1362 1.390 . S
C1371 H1364 0.950 . S
C1371 C1368 1.387 . S
C1372 C1373 1.387 . S
C1372 H1376 0.950 . S
C1372 C1381 1.390 . S
C1373 C1372 1.387 . S
C1373 C1375 1.387 . S
H1374 C1381 0.950 . S
C1375 C1373 1.387 . S
C1375 C1377 1.390 . S
C1375 H1379 0.950 . S
H1376 C1372 0.950 . S
C1377 C1375 1.390 . S
C1377 C1378 1.387 . S
C1377 H1380 0.950 . S
C1378 C1377 1.387 . S
C1378 C1381 1.387 . S
H1379 C1375 0.950 . S
H1380 C1377 0.950 . S
C1381 C1372 1.390 . S
C1381 H1374 0.950 . S
C1381 C1378 1.387 . S
C1382 C1383 1.387 . S
C1382 H1386 0.950 . S
C1382 C1391 1.390 . S
C1383 C1382 1.387 . S
C1383 C1385 1.387 . S
H1384 C1391 0.950 . S
C1385 C1383 1.387 . S
C1385 C1387 1.390 . S
C1385 H1389 0.950 . S
H1386 C1382 0.950 . S
C1387 C1385 1.390 . S
C1387 C1388 1.387 . S
C1387 H1390 0.950 . S
C1388 C1387 1.387 . S
C1388 C1391 1.387 . S
H1389 C1385 0.950 . S
H1390 C1387 0.950 . S
C1391 C1382 1.390 . S
C1391 H1384 0.950 . S
C1391 C1388 1.387 . S
C1392 C1393 1.387 . S
C1392 H1396 0.950 . S
C1392 C1401 1.390 . S
C1393 C1392 1.387 . S
C1393 C1395 1.387 . S
H1394 C1401 0.950 . S
C1395 C1393 1.387 . S
C1395 C1397 1.390 . S
C1395 H1399 0.950 . S
H1396 C1392 0.950 . S
C1397 C1395 1.390 . S
C1397 C1398 1.387 . S
C1397 H1400 0.950 . S
C1398 C1397 1.387 . S
C1398 C1401 1.387 . S
H1399 C1395 0.950 . S
H1400 C1397 0.950 . S
C1401 C1392 1.390 . S
C1401 H1394 0.950 . S
C1401 C1398 1.387 . S
C1402 C1403 1.387 . S
C1402 H1406 0.950 . S
C1402 C1411 1.390 . S
C1403 C1402 1.387 . S
C1403 C1405 1.387 . S
H1404 C1411 0.950 . S
C1405 C1403 1.387 . S
C1405 C1407 1.390 . S
C1405 H1409 0.950 . S
H1406 C1402 0.950 . S
C1407 C1405 1.390 . S
C1407 C1408 1.387 . S
C1407 H1410 0.950 . S
C1408 C1407 1.387 . S
C1408 C1411 1.387 . S
H1409 C1405 0.950 . S
H1410 C1407 0.950 . S
C1411 C1402 1.390 . S
C1411 H1404 0.950 . S
C1411 C1408 1.387 . S
C1412 C1413 1.387 . S
C1412 H1416 0.950 . S
C1412 C1421 1.390 . S
C1413 C1412 1.387 . S
C1413 C1415 1.387 . S
H1414 C1421 0.950 . S
C1415 C1413 1.387 . S
C1415 C1417 1.390 . S
C1415 H1419 0.950 . S
H1416 C1412 0.950 . S
C1417 C1415 1.390 . S
C1417 C1418 1.387 . S
C1417 H1420 0.950 . S
C1418 C1417 1.387 . S
C1418 C1421 1.387 . S
H1419 C1415 0.950 . S
H1420 C1417 0.950 . S
C1421 C1412 1.390 . S
C1421 H1414 0.950 . S
C1421 C1418 1.387 . S
C1422 C1423 1.387 . S
C1422 H1426 0.950 . S
C1422 C1431 1.390 . S
C1423 C1422 1.387 . S
C1423 C1425 1.387 . S
H1424 C1431 0.950 . S
C1425 C1423 1.387 . S
C1425 C1427 1.390 . S
C1425 H1429 0.950 . S
H1426 C1422 0.950 . S
C1427 C1425 1.390 . S
C1427 C1428 1.387 . S
C1427 H1430 0.950 . S
C1428 C1427 1.387 . S
C1428 C1431 1.387 . S
H1429 C1425 0.950 . S
H1430 C1427 0.950 . S
C1431 C1422 1.390 . S
C1431 H1424 0.950 . S
C1431 C1428 1.387 . S
C1432 C1433 1.387 . S
C1432 H1436 0.950 . S
C1432 C1441 1.390 . S
C1433 C1432 1.387 . S
C1433 C1435 1.387 . S
H1434 C1441 0.950 . S
C1435 C1433 1.387 . S
C1435 C1437 1.390 . S
C1435 H1439 0.950 . S
H1436 C1432 0.950 . S
C1437 C1435 1.390 . S
C1437 C1438 1.387 . S
C1437 H1440 0.950 . S
C1438 C1437 1.387 . S
C1438 C1441 1.387 . S
H1439 C1435 0.950 . S
H1440 C1437 0.950 . S
C1441 C1432 1.390 . S
C1441 H1434 0.950 . S
C1441 C1438 1.387 . S
C1442 C1443 1.387 . S
C1442 H1446 0.950 . S
C1442 C1451 1.390 . S
C1443 C1442 1.387 . S
C1443 C1445 1.387 . S
H1444 C1451 0.950 . S
C1445 C1443 1.387 . S
C1445 C1447 1.390 . S
C1445 H1449 0.950 . S
H1446 C1442 0.950 . S
C1447 C1445 1.390 . S
C1447 C1448 1.387 . S
C1447 H1450 0.950 . S
C1448 C1447 1.387 . S
C1448 C1451 1.387 . S
H1449 C1445 0.950 . S
H1450 C1447 0.950 . S
C1451 C1442 1.390 . S
C1451 H1444 0.950 . S
C1451 C1448 1.387 . S
C1452 C1453 1.387 . S
C1452 H1456 0.950 . S
C1452 C1461 1.390 . S
C1453 C1452 1.387 . S
C1453 C1455 1.387 . S
H1454 C1461 0.950 . S
C1455 C1453 1.387 . S
C1455 C1457 1.390 . S
C1455 H1459 0.950 . S
H1456 C1452 0.950 . S
C1457 C1455 1.390 . S
C1457 C1458 1.387 . S
C1457 H1460 0.950 . S
C1458 C1457 1.387 . S
C1458 C1461 1.387 . S
H1459 C1455 0.950 . S
H1460 C1457 0.950 . S
C1461 C1452 1.390 . S
C1461 H1454 0.950 . S
C1461 C1458 1.387 . S
C1462 C1463 1.387 . S
C1462 H1466 0.950 . S
C1462 C1471 1.390 . S
C1463 C1462 1.387 . S
C1463 C1465 1.387 . S
H1464 C1471 0.950 . S
C1465 C1463 1.387 . S
C1465 C1467 1.390 . S
C1465 H1469 0.950 . S
H1466 C1462 0.950 . S
C1467 C1465 1.390 . S
C1467 C1468 1.387 . S
C1467 H1470 0.950 . S
C1468 C1467 1.387 . S
C1468 C1471 1.387 . S
H1469 C1465 0.950 . S
H1470 C1467 0.950 . S
C1471 C1462 1.390 . S
C1471 H1464 0.950 . S
C1471 C1468 1.387 . S
C1472 C1473 1.387 . S
C1472 H1476 0.950 . S
C1472 C1481 1.390 . S
C1473 C1472 1.387 . S
C1473 C1475 1.387 . S
H1474 C1481 0.950 . S
C1475 C1473 1.387 . S
C1475 C1477 1.390 . S
C1475 H1479 0.950 . S
H1476 C1472 0.950 . S
C1477 C1475 1.390 . S
C1477 C1478 1.387 . S
C1477 H1480 0.950 . S
C1478 C1477 1.387 . S
C1478 C1481 1.387 . S
H1479 C1475 0.950 . S
H1480 C1477 0.950 . S
C1481 C1472 1.390 . S
C1481 H1474 0.950 . S
C1481 C1478 1.387 . S
C1482 C1483 1.387 . S
C1482 H1486 0.950 . S
C1482 C1491 1.390 . S
C1483 C1482 1.387 . S
C1483 C1485 1.387 . S
H1484 C1491 0.950 . S
C1485 C1483 1.387 . S
C1485 C1487 1.390 . S
C1485 H1489 0.950 . S
H1486 C1482 0.950 . S
C1487 C1485 1.390 . S
C1487 C1488 1.387 . S
C1487 H1490 0.950 . S
C1488 C1487 1.387 . S
C1488 C1491 1.387 . S
H1489 C1485 0.950 . S
H1490 C1487 0.950 . S
C1491 C1482 1.390 . S
C1491 H1484 0.950 . S
C1491 C1488 1.387 . S
C1492 C1493 1.387 . S
C1492 H1496 0.950 . S
C1492 C1501 1.390 . S
C1493 C1492 1.387 . S
C1493 C1495 1.387 . S
H1494 C1501 0.950 . S
C1495 C1493 1.387 . S
C1495 C1497 1.390 . S
C1495 H1499 0.950 . S
H1496 C1492 0.950 . S
C1497 C1495 1.390 . S
C1497 C1498 1.387 . S
C1497 H1500 0.950 . S
C1498 C1497 1.387 . S
C1498 C1501 1.387 . S
H1499 C1495 0.950 . S
H1500 C1497 0.950 . S
C1501 C1492 1.390 . S
C1501 H1494 0.950 . S
C1501 C1498 1.387 . S
C1502 C1503 1.387 . S
C1502 H1506 0.950 . S
C1502 C1511 1.390 . S
C1503 C1502 1.387 . S
C1503 C1505 1.387 . S
H1504 C1511 0.950 . S
C1505 C1503 1.387 . S
C1505 C1507 1.390 . S
C1505 H1509 0.950 . S
H1506 C1502 0.950 . S
C1507 C1505 1.390 . S
C1507 C1508 1.387 . S
C1507 H1510 0.950 . S
C1508 C1507 1.387 . S
C1508 C1511 1.387 . S
H1509 C1505 0.950 . S
H1510 C1507 0.950 . S
C1511 C1502 1.390 . S
C1511 H1504 0.950 . S
C1511 C1508 1.387 . S
C1512 C1513 1.387 . S
C1512 H1516 0.950 . S
C1512 C1521 1.390 . S
C1513 C1512 1.387 . S
C1513 C1515 1.387 . S
H1514 C1521 0.950 . S
C1515 C1513 1.387 . S
C1515 C1517 1.390 . S
C1515 H1519 0.950 . S
H1516 C1512 0.950 . S
C1517 C1515 1.390 . S
C1517 C1518 1.387 . S
C1517 H1520 0.950 . S
C1518 C1517 1.387 . S
C1518 C1521 1.387 . S
H1519 C1515 0.950 . S
H1520 C1517 0.950 . S
C1521 C1512 1.390 . S
C1521 H1514 0.950 . S
C1521 C1518 1.387 . S
C1522 C1523 1.387 . S
C1522 H1526 0.950 . S
C1522 C1531 1.390 . S
C1523 C1522 1.387 . S
C1523 C1525 1.387 . S
H1524 C1531 0.950 . S
C1525 C1523 1.387 . S
C1525 C1527 1.390 . S
C1525 H1529 0.950 . S
H1526 C1522 0.950 . S
C1527 C1525 1.390 . S
C1527 C1528 1.387 . S
C1527 H1530 0.950 . S
C1528 C1527 1.387 . S
C1528 C1531 1.387 . S
H1529 C1525 0.950 . S
H1530 C1527 0.950 . S
C1531 C1522 1.390 . S
C1531 H1524 0.950 . S
C1531 C1528 1.387 . S
C1532 C1533 1.387 . S
C1532 H1536 0.950 . S
C1532 C1541 1.390 . S
C1533 C1532 1.387 . S
C1533 C1535 1.387 . S
H1534 C1541 0.950 . S
C1535 C1533 1.387 . S
C1535 C1537 1.390 . S
C1535 H1539 0.950 . S
H1536 C1532 0.950 . S
C1537 C1535 1.390 . S
C1537 C1538 1.387 . S
C1537 H1540 0.950 . S
C1538 C1537 1.387 . S
C1538 C1541 1.387 . S
H1539 C1535 0.950 . S
H1540 C1537 0.950 . S
C1541 C1532 1.390 . S
C1541 H1534 0.950 . S
C1541 C1538 1.387 . S
C1542 C1543 1.387 . S
C1542 H1546 0.950 . S
C1542 C1551 1.390 . S
C1543 C1542 1.387 . S
C1543 C1545 1.387 . S
H1544 C1551 0.950 . S
C1545 C1543 1.387 . S
C1545 C1547 1.390 . S
C1545 H1549 0.950 . S
H1546 C1542 0.950 . S
C1547 C1545 1.390 . S
C1547 C1548 1.387 . S
C1547 H1550 0.950 . S
C1548 C1547 1.387 . S
C1548 C1551 1.387 . S
H1549 C1545 0.950 . S
H1550 C1547 0.950 . S
C1551 C1542 1.390 . S
C1551 H1544 0.950 . S
C1551 C1548 1.387 . S
C1552 C1553 1.387 . S
C1552 H1556 0.950 . S
C1552 C1561 1.390 . S
C1553 C1552 1.387 . S
C1553 C1555 1.387 . S
H1554 C1561 0.950 . S
C1555 C1553 1.387 . S
C1555 C1557 1.390 . S
C1555 H1559 0.950 . S
H1556 C1552 0.950 . S
C1557 C1555 1.390 . S
C1557 C1558 1.387 . S
C1557 H1560 0.950 . S
C1558 C1557 1.387 . S
C1558 C1561 1.387 . S
H1559 C1555 0.950 . S
H1560 C1557 0.950 . S
C1561 C1552 1.390 . S
C1561 H1554 0.950 . S
C1561 C1558 1.387 . S
C1562 C1563 1.387 . S
C1562 H1566 0.950 . S
C1562 C1571 1.390 . S
C1563 C1562 1.387 . S
C1563 C1565 1.387 . S
H1564 C1571 0.950 . S
C1565 C1563 1.387 . S
C1565 C1567 1.390 . S
C1565 H1569 0.950 . S
H1566 C1562 0.950 . S
C1567 C1565 1.390 . S
C1567 C1568 1.387 . S
C1567 H1570 0.950 . S
C1568 C1567 1.387 . S
C1568 C1571 1.387 . S
H1569 C1565 0.950 . S
H1570 C1567 0.950 . S
C1571 C1562 1.390 . S
C1571 H1564 0.950 . S
C1571 C1568 1.387 . S
C1572 C1573 1.387 . S
C1572 H1576 0.950 . S
C1572 C1581 1.390 . S
C1573 C1572 1.387 . S
C1573 C1575 1.387 . S
H1574 C1581 0.950 . S
C1575 C1573 1.387 . S
C1575 C1577 1.390 . S
C1575 H1579 0.950 . S
H1576 C1572 0.950 . S
C1577 C1575 1.390 . S
C1577 C1578 1.387 . S
C1577 H1580 0.950 . S
C1578 C1577 1.387 . S
C1578 C1581 1.387 . S
H1579 C1575 0.950 . S
H1580 C1577 0.950 . S
C1581 C1572 1.390 . S
C1581 H1574 0.950 . S
C1581 C1578 1.387 . S
C1582 C1583 1.387 . S
C1582 H1586 0.950 . S
C1582 C1591 1.390 . S
C1583 C1582 1.387 . S
C1583 C1585 1.387 . S
H1584 C1591 0.950 . S
C1585 C1583 1.387 . S
C1585 C1587 1.390 . S
C1585 H1589 0.950 . S
H1586 C1582 0.950 . S
C1587 C1585 1.390 . S
C1587 C1588 1.387 . S
C1587 H1590 0.950 . S
C1588 C1587 1.387 . S
C1588 C1591 1.387 . S
H1589 C1585 0.950 . S
H1590 C1587 0.950 . S
C1591 C1582 1.390 . S
C1591 H1584 0.950 . S
C1591 C1588 1.387 . S
C1592 C1593 1.387 . S
C1592 H1596 0.950 . S
C1592 C1601 1.390 . S
C1593 C1592 1.387 . S
C1593 C1595 1.387 . S
H1594 C1601 0.950 . S
C1595 C1593 1.387 . S
C1595 C1597 1.390 . S
C1595 H1599 0.950 . S
H1596 C1592 0.950 . S
C1597 C1595 1.390 . S
C1597 C1598 1.387 . S
C1597 H1600 0.950 . S
C1598 C1597 1.387 . S
C1598 C1601 1.387 . S
H1599 C1595 0.950 . S
H1600 C1597 0.950 . S
C1601 C1592 1.390 . S
C1601 H1594 0.950 . S
C1601 C1598 1.387 . S
C1602 C1603 1.387 . S
C1602 H1606 0.950 . S
C1602 C1611 1.390 . S
C1603 C1602 1.387 . S
C1603 C1605 1.387 . S
H1604 C1611 0.950 . S
C1605 C1603 1.387 . S
C1605 C1607 1.390 . S
C1605 H1609 0.950 . S
H1606 C1602 0.950 . S
C1607 C1605 1.390 . S
C1607 C1608 1.387 . S
C1607 H1610 0.950 . S
C1608 C1607 1.387 . S
C1608 C1611 1.387 . S
H1609 C1605 0.950 . S
H1610 C1607 0.950 . S
C1611 C1602 1.390 . S
C1611 H1604 0.950 . S
C1611 C1608 1.387 . S
C1612 C1613 1.387 . S
C1612 H1616 0.950 . S
C1612 C1621 1.390 . S
C1613 C1612 1.387 . S
C1613 C1615 1.387 . S
H1614 C1621 0.950 . S
C1615 C1613 1.387 . S
C1615 C1617 1.390 . S
C1615 H1619 0.950 . S
H1616 C1612 0.950 . S
C1617 C1615 1.390 . S
C1617 C1618 1.387 . S
C1617 H1620 0.950 . S
C1618 C1617 1.387 . S
C1618 C1621 1.387 . S
H1619 C1615 0.950 . S
H1620 C1617 0.950 . S
C1621 C1612 1.390 . S
C1621 H1614 0.950 . S
C1621 C1618 1.387 . S
C1622 C1623 1.387 . S
C1622 H1626 0.950 . S
C1622 C1631 1.390 . S
C1623 C1622 1.387 . S
C1623 C1625 1.387 . S
H1624 C1631 0.950 . S
C1625 C1623 1.387 . S
C1625 C1627 1.390 . S
C1625 H1629 0.950 . S
H1626 C1622 0.950 . S
C1627 C1625 1.390 . S
C1627 C1628 1.387 . S
C1627 H1630 0.950 . S
C1628 C1627 1.387 . S
C1628 C1631 1.387 . S
H1629 C1625 0.950 . S
H1630 C1627 0.950 . S
C1631 C1622 1.390 . S
C1631 H1624 0.950 . S
C1631 C1628 1.387 . S
C673 C134 1.735 . S
C678 C8 1.735 . S
C683 C148 1.733 . S
C688 C22 1.734 . S
C693 C162 1.731 . S
C698 C36 1.731 . S
C703 C50 1.732 . S
C708 C120 1.733 . S
C713 C218 1.731 . S
C718 C64 1.731 . S
C723 C78 1.731 . S
C728 C176 1.731 . S
C733 C190 1.732 . S
C738 C92 1.731 . S
C743 C204 1.733 . S
C748 C106 1.732 . S
C753 C232 1.731 . S
C758 C260 1.732 . S
C763 C246 1.734 . S
C768 C316 1.733 . S
C773 C274 1.731 . S
C778 C330 1.731 . S
C783 C288 1.734 . S
C788 C302 1.735 . S
C793 C344 1.735 . S
C798 C470 1.735 . S
C803 C484 1.733 . S
C808 C358 1.734 . S
C813 C372 1.731 . S
C818 C498 1.731 . S
C823 C386 1.732 . S
C828 C456 1.733 . S
C833 C554 1.735 . S
C838 C400 1.734 . S
C843 C512 1.734 . S
C848 C414 1.734 . S
C853 C526 1.732 . S
C858 C428 1.731 . S
C863 C540 1.733 . S
C868 C442 1.732 . S
C873 C568 1.733 . S
C878 C596 1.732 . S
C883 C582 1.734 . S
C888 C652 1.734 . S
C893 C610 1.732 . S
C898 C666 1.731 . S
C903 C638 1.732 . S
C908 C624 1.731 . S
C913 C121 1.248 . S
C918 C3 1.446 . S
C923 C135 1.252 . S
C928 C17 1.446 . S
C933 C31 1.446 . S
C938 C149 1.249 . S
C943 C45 1.447 . S
C948 C163 1.251 . S
C953 C59 1.446 . S
C958 C177 1.254 . S
C963 C73 1.447 . S
C968 C191 1.251 . S
C973 C87 1.446 . S
C978 C205 1.252 . S
C983 C219 1.249 . S
C988 C101 1.446 . S
C993 C115 1.447 . S
C998 C233 1.251 . S
C1003 C331 1.249 . S
C1008 C129 1.446 . S
C1013 C143 1.447 . S
C1018 C303 1.253 . S
C1023 C157 1.446 . S
C1028 C317 1.250 . S
C1033 C171 1.446 . S
C1038 C247 1.250 . S
C1043 C185 1.446 . S
C1048 C261 1.248 . S
C1053 C199 1.447 . S
C1058 C275 1.251 . S
C1063 C289 1.253 . S
C1068 C213 1.446 . S
C1073 C9 1.251 . S
C1078 C227 1.446 . S
C1083 C241 1.447 . S
C1088 C65 1.251 . S
C1093 C255 1.446 . S
C1098 C79 1.250 . S
C1103 C269 1.446 . S
C1108 C93 1.250 . S
C1113 C107 1.253 . S
C1118 C283 1.447 . S
C1123 C297 1.446 . S
C1128 C37 1.253 . S
C1133 C311 1.446 . S
C1138 C51 1.251 . S
C1143 C23 1.251 . S
C1148 C325 1.446 . S
C1153 C457 1.250 . S
C1158 C339 1.446 . S
C1163 C353 1.446 . S
C1168 C471 1.254 . S
C1173 C367 1.446 . S
C1178 C485 1.249 . S
C1183 C499 1.252 . S
C1188 C381 1.446 . S
C1193 C513 1.250 . S
C1198 C395 1.446 . S
C1203 C409 1.447 . S
C1208 C527 1.252 . S
C1213 C541 1.251 . S
C1218 C423 1.447 . S
C1223 C555 1.250 . S
C1228 C437 1.446 . S
C1233 C451 1.446 . S
C1238 C569 1.249 . S
C1243 C465 1.446 . S
C1248 C667 1.251 . S
C1253 C479 1.446 . S
C1258 C639 1.250 . S
C1263 C653 1.250 . S
C1268 C493 1.446 . S
C1273 C507 1.446 . S
C1278 C583 1.250 . S
C1283 C521 1.446 . S
C1288 C597 1.248 . S
C1293 C611 1.251 . S
C1298 C535 1.447 . S
C1303 C625 1.249 . S
C1308 C549 1.446 . S
C1313 C563 1.446 . S
C1318 C345 1.251 . S
C1323 C577 1.446 . S
C1328 C401 1.249 . S
C1333 C415 1.250 . S
C1338 C591 1.446 . S
C1343 C605 1.446 . S
C1348 C429 1.249 . S
C1353 C619 1.447 . S
C1358 C443 1.254 . S
C1363 C373 1.251 . S
C1368 C633 1.446 . S
C1373 C647 1.446 . S
C1378 C387 1.251 . S
C1383 C359 1.254 . S
C1388 C661 1.447 . S
C1393 C441 1.454 . S
C1398 C7 1.458 . S
C1403 C21 1.455 . S
C1408 C399 1.456 . S
C1413 C413 1.454 . S
C1418 C35 1.458 . S
C1423 C427 1.458 . S
C1428 C49 1.454 . S
C1433 C63 1.458 . S
C1438 C357 1.454 . S
C1443 C371 1.457 . S
C1448 C77 1.455 . S
C1453 C385 1.458 . S
C1458 C91 1.455 . S
C1463 C105 1.454 . S
C1468 C343 1.458 . S
C1473 C623 1.455 . S
C1478 C119 1.458 . S
C1483 C133 1.454 . S
C1488 C581 1.459 . S
C1493 C147 1.454 . S
C1498 C595 1.458 . S
C1503 C609 1.454 . S
C1508 C161 1.458 . S
C1513 C665 1.458 . S
C1518 C175 1.455 . S
C1523 C637 1.457 . S
C1528 C189 1.456 . S
C1533 C203 1.454 . S
C1538 C651 1.458 . S
C1543 C567 1.458 . S
C1548 C217 1.455 . S
C1553 C231 1.456 . S
C1558 C553 1.456 . S
C1563 C469 1.458 . S
C1568 C245 1.454 . S
C1573 C259 1.457 . S
C1578 C483 1.456 . S
C1583 C497 1.458 . S
C1588 C273 1.454 . S
C1593 C455 1.458 . S
C1598 C287 1.454 . S
C1603 C301 1.457 . S
C1608 C525 1.455 . S
C1613 C539 1.457 . S
C1618 C315 1.455 . S
C1623 C511 1.455 . S
C1628 C329 1.457 . S
