# Generated by pormake.
# Topology wmi, (6)-cn, num edge types: 1
# Building blocks:
#     Node 0, Type 0, BuildingBlock: CUKXOW_clean_sbu_0, # of connection points: 6
#     Node 1, Type 0, BuildingBlock: CUKXOW_clean_sbu_0, # of connection points: 6
#     Node 2, Type 0, BuildingBlock: CUKXOW_clean_sbu_0, # of connection points: 6
#     Node 3, Type 0, BuildingBlock: CUKXOW_clean_sbu_0, # of connection points: 6
#     Node 4, Type 0, BuildingBlock: CUKXOW_clean_sbu_0, # of connection points: 6
#     Node 5, Type 0, BuildingBlock: CUKXOW_clean_sbu_0, # of connection points: 6
#     Node 6, Type 0, BuildingBlock: CUKXOW_clean_sbu_0, # of connection points: 6
#     Node 7, Type 0, BuildingBlock: CUKXOW_clean_sbu_0, # of connection points: 6
#     Node 8, Type 0, BuildingBlock: CUKXOW_clean_sbu_0, # of connection points: 6
#     Node 9, Type 0, BuildingBlock: CUKXOW_clean_sbu_0, # of connection points: 6
#     Node 10, Type 0, BuildingBlock: CUKXOW_clean_sbu_0, # of connection points: 6
#     Node 11, Type 0, BuildingBlock: CUKXOW_clean_sbu_0, # of connection points: 6
#     Node 12, Type 0, BuildingBlock: CUKXOW_clean_sbu_0, # of connection points: 6
#     Node 13, Type 0, BuildingBlock: CUKXOW_clean_sbu_0, # of connection points: 6
#     Node 14, Type 0, BuildingBlock: CUKXOW_clean_sbu_0, # of connection points: 6
#     Node 15, Type 0, BuildingBlock: CUKXOW_clean_sbu_0, # of connection points: 6
#     Node 16, Type 0, BuildingBlock: CUKXOW_clean_sbu_0, # of connection points: 6
#     Node 17, Type 0, BuildingBlock: CUKXOW_clean_sbu_0, # of connection points: 6
#     Edge 18, Type (0, 0), BuildingBlock: TEMPAE_clean_linker_10, # of connection points: 2
#     Edge 19, Type (0, 0), BuildingBlock: TEMPAE_clean_linker_10, # of connection points: 2
#     Edge 20, Type (0, 0), BuildingBlock: TEMPAE_clean_linker_10, # of connection points: 2
#     Edge 21, Type (0, 0), BuildingBlock: TEMPAE_clean_linker_10, # of connection points: 2
#     Edge 22, Type (0, 0), BuildingBlock: TEMPAE_clean_linker_10, # of connection points: 2
#     Edge 23, Type (0, 0), BuildingBlock: TEMPAE_clean_linker_10, # of connection points: 2
#     Edge 24, Type (0, 0), BuildingBlock: TEMPAE_clean_linker_10, # of connection points: 2
#     Edge 25, Type (0, 0), BuildingBlock: TEMPAE_clean_linker_10, # of connection points: 2
#     Edge 26, Type (0, 0), BuildingBlock: TEMPAE_clean_linker_10, # of connection points: 2
#     Edge 27, Type (0, 0), BuildingBlock: TEMPAE_clean_linker_10, # of connection points: 2
#     Edge 28, Type (0, 0), BuildingBlock: TEMPAE_clean_linker_10, # of connection points: 2
#     Edge 29, Type (0, 0), BuildingBlock: TEMPAE_clean_linker_10, # of connection points: 2
#     Edge 30, Type (0, 0), BuildingBlock: TEMPAE_clean_linker_10, # of connection points: 2
#     Edge 31, Type (0, 0), BuildingBlock: TEMPAE_clean_linker_10, # of connection points: 2
#     Edge 32, Type (0, 0), BuildingBlock: TEMPAE_clean_linker_10, # of connection points: 2
#     Edge 33, Type (0, 0), BuildingBlock: TEMPAE_clean_linker_10, # of connection points: 2
#     Edge 34, Type (0, 0), BuildingBlock: TEMPAE_clean_linker_10, # of connection points: 2
#     Edge 35, Type (0, 0), BuildingBlock: TEMPAE_clean_linker_10, # of connection points: 2
#     Edge 36, Type (0, 0), BuildingBlock: TEMPAE_clean_linker_10, # of connection points: 2
#     Edge 37, Type (0, 0), BuildingBlock: TEMPAE_clean_linker_10, # of connection points: 2
#     Edge 38, Type (0, 0), BuildingBlock: TEMPAE_clean_linker_10, # of connection points: 2
#     Edge 39, Type (0, 0), BuildingBlock: TEMPAE_clean_linker_10, # of connection points: 2
#     Edge 40, Type (0, 0), BuildingBlock: TEMPAE_clean_linker_10, # of connection points: 2
#     Edge 41, Type (0, 0), BuildingBlock: TEMPAE_clean_linker_10, # of connection points: 2
#     Edge 42, Type (0, 0), BuildingBlock: TEMPAE_clean_linker_10, # of connection points: 2
#     Edge 43, Type (0, 0), BuildingBlock: TEMPAE_clean_linker_10, # of connection points: 2
#     Edge 44, Type (0, 0), BuildingBlock: TEMPAE_clean_linker_10, # of connection points: 2
#     Edge 45, Type (0, 0), BuildingBlock: TEMPAE_clean_linker_10, # of connection points: 2
#     Edge 46, Type (0, 0), BuildingBlock: TEMPAE_clean_linker_10, # of connection points: 2
#     Edge 47, Type (0, 0), BuildingBlock: TEMPAE_clean_linker_10, # of connection points: 2
#     Edge 48, Type (0, 0), BuildingBlock: TEMPAE_clean_linker_10, # of connection points: 2
#     Edge 49, Type (0, 0), BuildingBlock: TEMPAE_clean_linker_10, # of connection points: 2
#     Edge 50, Type (0, 0), BuildingBlock: TEMPAE_clean_linker_10, # of connection points: 2
#     Edge 51, Type (0, 0), BuildingBlock: TEMPAE_clean_linker_10, # of connection points: 2
#     Edge 52, Type (0, 0), BuildingBlock: TEMPAE_clean_linker_10, # of connection points: 2
#     Edge 53, Type (0, 0), BuildingBlock: TEMPAE_clean_linker_10, # of connection points: 2
#     Edge 54, Type (0, 0), BuildingBlock: TEMPAE_clean_linker_10, # of connection points: 2
#     Edge 55, Type (0, 0), BuildingBlock: TEMPAE_clean_linker_10, # of connection points: 2
#     Edge 56, Type (0, 0), BuildingBlock: TEMPAE_clean_linker_10, # of connection points: 2
#     Edge 57, Type (0, 0), BuildingBlock: TEMPAE_clean_linker_10, # of connection points: 2
#     Edge 58, Type (0, 0), BuildingBlock: TEMPAE_clean_linker_10, # of connection points: 2
#     Edge 59, Type (0, 0), BuildingBlock: TEMPAE_clean_linker_10, # of connection points: 2
#     Edge 60, Type (0, 0), BuildingBlock: TEMPAE_clean_linker_10, # of connection points: 2
#     Edge 61, Type (0, 0), BuildingBlock: TEMPAE_clean_linker_10, # of connection points: 2
#     Edge 62, Type (0, 0), BuildingBlock: TEMPAE_clean_linker_10, # of connection points: 2
#     Edge 63, Type (0, 0), BuildingBlock: TEMPAE_clean_linker_10, # of connection points: 2
#     Edge 64, Type (0, 0), BuildingBlock: TEMPAE_clean_linker_10, # of connection points: 2
#     Edge 65, Type (0, 0), BuildingBlock: TEMPAE_clean_linker_10, # of connection points: 2
#     Edge 66, Type (0, 0), BuildingBlock: TEMPAE_clean_linker_10, # of connection points: 2
#     Edge 67, Type (0, 0), BuildingBlock: TEMPAE_clean_linker_10, # of connection points: 2
#     Edge 68, Type (0, 0), BuildingBlock: TEMPAE_clean_linker_10, # of connection points: 2
#     Edge 69, Type (0, 0), BuildingBlock: TEMPAE_clean_linker_10, # of connection points: 2
#     Edge 70, Type (0, 0), BuildingBlock: TEMPAE_clean_linker_10, # of connection points: 2
#     Edge 71, Type (0, 0), BuildingBlock: TEMPAE_clean_linker_10, # of connection points: 2
# Relax obj value: 0.053
# Max RMSD: 0.152
# Mean RMSD: 0.152
data_MOF--net-wmi--node1-CUKXOW_clean_sbu_0--edge1-TEMPAE_clean_linker_10
_symmetry_space_group_name_H-M    P1
_symmetry_Int_Tables_number       1
_symmetry_cell_setting            triclinic
loop_
_symmetry_equiv_pos_as_xyz
'x, y, z'
_cell_length_a     32.417765
_cell_length_b     32.394626
_cell_length_c     86.321935
_cell_angle_alpha  89.910714
_cell_angle_beta   89.999563
_cell_angle_gamma 119.94718
loop_
_atom_site_label
_atom_site_type_symbol
_atom_site_fract_x
_atom_site_fract_y
_atom_site_fract_z
_atom_type_partial_charge
Tb0 Tb 0.49631 0.0685 0.09308 0.0
C1 C 0.46474 1.00343 0.12264 0.0
Tb2 Tb 0.51622 0.9845 0.09424 0.0
O3 O 0.41857 0.02105 0.0944 0.0
O4 O 0.46266 0.99709 0.08558 0.0
O5 O 0.47826 0.04676 0.11719 0.0
C6 C 0.52006 0.90398 0.09624 0.0
O7 O 0.47179 0.97191 0.1149 0.0
C8 C 0.59123 0.07012 0.09644 0.0
C9 C 0.52614 0.03567 0.06232 0.0
O10 O 0.50956 0.91972 0.08391 0.0
O11 O 0.52789 0.93333 0.10757 0.0
O12 O 0.59254 0.0335 0.09114 0.0
O13 O 0.55042 0.05645 0.10187 0.0
O14 O 0.51668 0.99524 0.0693 0.0
O15 O 0.52613 0.07147 0.06991 0.0
C16 C 0.5111 0.15749 0.09371 0.0
O17 O 0.48255 0.12423 0.08424 0.0
O18 O 0.53093 0.14047 0.10275 0.0
C19 C 0.42064 0.98385 0.08976 0.0
Tb20 Tb 0.9894 0.45527 0.09821 0.0
C21 C 0.05411 0.49508 0.12725 0.0
Tb22 Tb 0.07245 0.55916 0.09776 0.0
O23 O 0.0371 0.42498 0.09876 0.0
O24 O 0.05966 0.49234 0.08987 0.0
O25 O 1.00906 0.46887 0.12271 0.0
C26 C 0.15342 0.6432 0.09744 0.0
O27 O 0.08695 0.52925 0.11838 0.0
C28 C 0.98735 0.54939 0.10131 0.0
C29 C 0.02211 0.51149 0.06599 0.0
O30 O 0.12845 0.62228 0.10972 0.0
O31 O 0.13324 0.61644 0.08552 0.0
O32 O 0.02377 0.58695 0.09573 0.0
O33 O 1.00113 0.52198 0.10656 0.0
O34 O 0.06025 0.54625 0.07293 0.0
O35 O 0.98867 0.47403 0.07371 0.0
C36 C 0.90149 0.37912 0.09843 0.0
O37 O 0.91379 0.41945 0.09168 0.0
O38 O 0.93881 0.3815 0.10483 0.0
C39 C 0.07375 0.46425 0.09396 0.0
Tb40 Tb 0.60142 0.55992 0.09857 0.0
C41 C 0.56892 0.5943 0.12804 0.0
Tb42 Tb 0.49624 0.53886 0.10072 0.0
O43 O 0.63171 0.63793 0.09789 0.0
O44 O 0.5617 0.59159 0.09146 0.0
O45 O 0.60038 0.58362 0.12215 0.0
C46 C 0.41337 0.53783 0.10086 0.0
O47 O 0.52798 0.58343 0.12119 0.0
C48 C 0.50717 0.46416 0.10368 0.0
C49 C 0.53612 0.52752 0.06865 0.0
O50 O 0.43595 0.53666 0.11314 0.0
O51 O 0.43775 0.54023 0.08868 0.0
O52 O 0.46701 0.46146 0.1003 0.0
O53 O 0.53592 0.50619 0.10773 0.0
O54 O 0.50612 0.53789 0.0758 0.0
O55 O 0.57214 0.52725 0.07598 0.0
C56 C 0.67585 0.54582 0.09966 0.0
O57 O 0.665 0.564 0.08798 0.0
O58 O 0.64508 0.53595 0.11067 0.0
C59 C 0.5909 0.63445 0.09446 0.0
Tb60 Tb 0.06683 0.48771 0.91734 0.0
C61 C 1.00712 0.46634 0.88674 0.0
Tb62 Tb 0.98544 0.5107 0.91628 0.0
O63 O 0.01762 0.41041 0.916 0.0
O64 O 0.9956 0.45587 0.92496 0.0
O65 O 0.04953 0.47829 0.8927 0.0
C66 C 0.90651 0.51771 0.91572 0.0
O67 O 0.97544 0.47375 0.89417 0.0
C68 C 0.07168 0.58379 0.91284 0.0
C69 C 0.02959 0.50898 0.94883 0.0
O70 O 0.91533 0.49169 0.90636 0.0
O71 O 0.9418 0.53922 0.9252 0.0
O72 O 0.03613 0.5868 0.91818 0.0
O73 O 0.05673 0.54233 0.90782 0.0
O74 O 0.99078 0.50172 0.94122 0.0
O75 O 0.06568 0.50845 0.9416 0.0
C76 C 0.15477 0.49973 0.91793 0.0
O77 O 0.11581 0.45979 0.91543 0.0
O78 O 0.14421 0.53293 0.92033 0.0
C79 C 0.98121 0.41399 0.92049 0.0
Tb80 Tb 0.56064 0.59418 0.92033 0.0
C81 C 0.58546 0.55735 0.89024 0.0
Tb82 Tb 0.54021 0.49072 0.91991 0.0
O83 O 0.63714 0.62229 0.91672 0.0
O84 O 0.59495 0.5571 0.92784 0.0
O85 O 0.57346 0.5881 0.89587 0.0
C86 C 0.53764 0.40723 0.91873 0.0
O87 O 0.57899 0.51917 0.8981 0.0
C88 C 0.46571 0.50225 0.91882 0.0
C89 C 0.53382 0.53343 0.95179 0.0
O90 O 0.51341 0.41982 0.90987 0.0
O91 O 0.5639 0.44198 0.92802 0.0
O92 O 0.46529 0.46566 0.92505 0.0
O93 O 0.50532 0.5279 0.91236 0.0
O94 O 0.53957 0.50028 0.94473 0.0
O95 O 0.53621 0.5706 0.94428 0.0
C96 C 0.54735 0.66911 0.92058 0.0
O97 O 0.58228 0.66727 0.92731 0.0
O98 O 0.52011 0.62886 0.91375 0.0
C99 C 0.63576 0.5843 0.92237 0.0
Tb100 Tb 0.45244 0.98283 0.91569 0.0
C101 C 0.48973 0.03567 0.88291 0.0
Tb102 Tb 0.56156 0.06503 0.91148 0.0
O103 O 0.43537 0.0332 0.92738 0.0
O104 O 0.49286 0.05653 0.91227 0.0
O105 O 0.45716 0.99731 0.89061 0.0
C106 C 0.6422 0.14837 0.91191 0.0
O107 O 0.53089 0.06833 0.88918 0.0
C108 C 0.54921 0.97795 0.90983 0.0
C109 C 0.51766 0.0234 0.94521 0.0
O110 O 0.62549 0.12053 0.89993 0.0
O111 O 0.61322 0.1295 0.92353 0.0
O112 O 0.5903 0.01611 0.90786 0.0
O113 O 0.52004 0.99173 0.91214 0.0
O114 O 0.55143 0.05866 0.93676 0.0
O115 O 0.47853 0.98715 0.93917 0.0
C116 C 0.37653 0.89561 0.91395 0.0
O117 O 0.37617 0.9351 0.91145 0.0
O118 O 0.4193 0.90549 0.91759 0.0
C119 C 0.4733 0.0704 0.92183 0.0
Tb120 Tb 0.16737 0.40524 0.42942 0.0
C121 C 0.15251 0.35486 0.46284 0.0
Tb122 Tb 0.19489 0.32692 0.43409 0.0
O123 O 0.09704 0.35423 0.41947 0.0
O124 O 0.13321 0.33245 0.43409 0.0
O125 O 0.15353 0.38997 0.45439 0.0
C126 C 0.20554 0.25002 0.43273 0.0
O127 O 0.16538 0.32464 0.45718 0.0
C128 C 0.26255 0.41515 0.43883 0.0
C129 C 0.18727 0.36203 0.4002 0.0
O130 O 0.23209 0.2903 0.42576 0.0
O131 O 0.17298 0.25302 0.44056 0.0
O132 O 0.26033 0.37856 0.44582 0.0
O133 O 0.23025 0.40061 0.42878 0.0
O134 O 0.18199 0.32578 0.40897 0.0
O135 O 0.19115 0.40148 0.40625 0.0
C136 C 0.17741 0.49231 0.43119 0.0
O137 O 0.14622 0.45749 0.42271 0.0
O138 O 0.20247 0.47782 0.43875 0.0
C139 C 0.09826 0.31753 0.42519 0.0
Tb140 Tb 0.66625 0.79176 0.43149 0.0
C141 C 0.72925 0.82665 0.46159 0.0
Tb142 Tb 0.74804 0.89685 0.43306 0.0
O143 O 0.71664 0.76516 0.4332 0.0
O144 O 0.73693 0.83206 0.4238 0.0
O145 O 0.68822 0.79405 0.45543 0.0
C146 C 0.82823 0.98064 0.43389 0.0
O147 O 0.75896 0.86771 0.45467 0.0
C148 C 0.66192 0.88383 0.43472 0.0
C149 C 0.69707 0.85644 0.401 0.0
O150 O 0.79126 0.96842 0.44261 0.0
O151 O 0.82046 0.94523 0.425 0.0
O152 O 0.69831 0.92313 0.43002 0.0
O153 O 0.67592 0.85683 0.44019 0.0
O154 O 0.73571 0.88966 0.40818 0.0
O155 O 0.66331 0.81791 0.40822 0.0
C156 C 0.57848 0.7166 0.43183 0.0
O157 O 0.61331 0.72069 0.42324 0.0
O158 O 0.59331 0.75452 0.44025 0.0
C159 C 0.75214 0.80503 0.42811 0.0
Tb160 Tb 0.28306 0.90368 0.42556 0.0
C161 C 0.24895 0.93121 0.45636 0.0
Tb162 Tb 0.17538 0.88085 0.42874 0.0
O163 O 0.31032 0.9807 0.42699 0.0
O164 O 0.24105 0.93431 0.41941 0.0
O165 O 0.28018 0.92126 0.4498 0.0
C166 C 0.09234 0.87894 0.42735 0.0
O167 O 0.20745 0.92103 0.45 0.0
C168 C 0.18696 0.80736 0.43617 0.0
C169 C 0.21649 0.87247 0.39584 0.0
O170 O 0.12801 0.90751 0.43609 0.0
O171 O 0.10391 0.85227 0.41941 0.0
O172 O 0.1466 0.80641 0.43726 0.0
O173 O 0.21618 0.84854 0.43182 0.0
O174 O 0.1844 0.87881 0.40358 0.0
O175 O 0.25507 0.87561 0.40251 0.0
C176 C 0.35593 0.88759 0.42601 0.0
O177 O 0.35141 0.91613 0.41638 0.0
O178 O 0.31964 0.86858 0.43535 0.0
C179 C 0.26938 0.97672 0.42335 0.0
Tb180 Tb 0.73446 0.82911 0.25332 0.0
C181 C 0.67225 0.80295 0.22316 0.0
Tb182 Tb 0.65221 0.85129 0.25217 0.0
O183 O 0.68615 0.75226 0.25079 0.0
O184 O 0.66285 0.79604 0.26058 0.0
O185 O 0.71386 0.81251 0.22916 0.0
C186 C 0.57254 0.85644 0.25143 0.0
O187 O 0.64149 0.81216 0.23041 0.0
C188 C 0.73874 0.92472 0.25088 0.0
C189 C 0.70144 0.85845 0.28422 0.0
O190 O 0.60807 0.87808 0.24189 0.0
O191 O 0.58156 0.8313 0.26106 0.0
O192 O 0.70284 0.92634 0.25676 0.0
O193 O 0.72429 0.88455 0.2448 0.0
O194 O 0.66265 0.85255 0.27704 0.0
O195 O 0.73612 0.85561 0.2769 0.0
C196 C 0.82253 0.84206 0.25331 0.0
O197 O 0.78657 0.80892 0.26092 0.0
O198 O 0.80877 0.8677 0.24576 0.0
C199 C 0.64932 0.75454 0.2557 0.0
Tb200 Tb 0.23121 0.93789 0.24839 0.0
C201 C 0.24993 0.89819 0.21686 0.0
Tb202 Tb 0.20455 0.8282 0.24582 0.0
O203 O 0.29878 0.95677 0.2604 0.0
O204 O 0.26449 0.89706 0.24638 0.0
O205 O 0.24092 0.93025 0.22341 0.0
C206 C 0.20563 0.74669 0.24715 0.0
O207 O 0.24301 0.85879 0.22411 0.0
C208 C 0.12995 0.84059 0.2428 0.0
C209 C 0.20557 0.87501 0.27871 0.0
O210 O 0.19556 0.76334 0.23487 0.0
O211 O 0.2158 0.77635 0.25857 0.0
O212 O 0.12718 0.79935 0.24156 0.0
O213 O 0.17281 0.86994 0.24509 0.0
O214 O 0.20747 0.8405 0.27089 0.0
O215 O 0.20871 0.91363 0.27206 0.0
C216 C 0.22008 0.01387 0.24587 0.0
O217 O 0.25945 0.01365 0.24307 0.0
O218 O 0.18754 0.97163 0.25017 0.0
C219 C 0.29799 0.9179 0.2558 0.0
Tb220 Tb 0.12206 0.32225 0.25121 0.0
C221 C 0.15982 0.38793 0.22222 0.0
Tb222 Tb 0.22567 0.40533 0.2514 0.0
O223 O 0.09217 0.3703 0.25126 0.0
O224 O 0.15958 0.39218 0.25999 0.0
O225 O 0.13299 0.34301 0.22684 0.0
C226 C 0.30978 0.48617 0.25086 0.0
O227 O 0.19503 0.4202 0.23092 0.0
C228 C 0.21501 0.32037 0.24725 0.0
C229 C 0.17958 0.35248 0.28311 0.0
O230 O 0.28609 0.46272 0.23873 0.0
O231 O 0.28582 0.46457 0.26316 0.0
O232 O 0.25258 0.3558 0.25317 0.0
O233 O 0.18824 0.33501 0.24216 0.0
O234 O 0.21342 0.39177 0.27629 0.0
O235 O 0.14202 0.31934 0.27539 0.0
C236 C 0.04725 0.2338 0.25044 0.0
O237 O 0.09038 0.24487 0.25413 0.0
O238 O 0.04624 0.27253 0.24739 0.0
C239 C 0.13147 0.40654 0.25622 0.0
Tb240 Tb 0.8274 0.72643 0.76682 0.0
C241 C 0.8004 0.66262 0.79615 0.0
Tb242 Tb 0.84798 0.64323 0.76758 0.0
O243 O 0.74934 0.67906 0.76648 0.0
O244 O 0.79467 0.65578 0.75875 0.0
O245 O 0.82001 0.70759 0.79142 0.0
C246 C 0.85005 0.56183 0.76856 0.0
O247 O 0.80189 0.62937 0.78762 0.0
C248 C 0.92323 0.72826 0.77109 0.0
C249 C 0.85499 0.69374 0.73545 0.0
O250 O 0.85489 0.58836 0.78046 0.0
O251 O 0.84344 0.58081 0.75629 0.0
O252 O 0.92453 0.69142 0.76602 0.0
O253 O 0.88175 0.71498 0.77596 0.0
O254 O 0.85039 0.65535 0.74266 0.0
O255 O 0.85027 0.72734 0.74277 0.0
C256 C 0.8389 0.81435 0.76685 0.0
O257 O 0.86598 0.8017 0.75966 0.0
O258 O 0.80491 0.77731 0.7737 0.0
C259 C 0.75218 0.64202 0.7623 0.0
Tb260 Tb 0.317 0.11372 0.75988 0.0
C261 C 0.3848 0.14493 0.7889 0.0
Tb262 Tb 0.40086 0.21822 0.76159 0.0
O263 O 0.36386 0.08258 0.75929 0.0
O264 O 0.38826 0.15261 0.75248 0.0
O265 O 0.34253 0.11355 0.78319 0.0
C266 C 0.48135 0.30241 0.76335 0.0
O267 O 0.41437 0.18609 0.78201 0.0
C268 C 0.3148 0.20634 0.76435 0.0
C269 C 0.34915 0.17857 0.72962 0.0
O270 O 0.45283 0.28048 0.77485 0.0
O271 O 0.46481 0.2767 0.75097 0.0
O272 O 0.35104 0.24502 0.75925 0.0
O273 O 0.32907 0.17913 0.76929 0.0
O274 O 0.38962 0.20905 0.73664 0.0
O275 O 0.31337 0.14232 0.7371 0.0
C276 C 0.22786 0.04088 0.76196 0.0
O277 O 0.25666 0.04839 0.75043 0.0
O278 O 0.24935 0.07408 0.77221 0.0
C279 C 0.40144 0.12297 0.75562 0.0
Tb280 Tb 0.92936 0.21782 0.76546 0.0
C281 C 0.89093 0.24352 0.79493 0.0
Tb282 Tb 0.82465 0.1965 0.76586 0.0
O283 O 0.95978 0.2956 0.76584 0.0
O284 O 0.8912 0.25076 0.75782 0.0
O285 O 0.9191 0.22742 0.78991 0.0
C286 C 0.74007 0.19245 0.76612 0.0
O287 O 0.85463 0.23985 0.78668 0.0
C288 C 0.83682 0.12246 0.76844 0.0
C289 C 0.87128 0.19437 0.73367 0.0
O290 O 0.75937 0.18361 0.77792 0.0
O291 O 0.76867 0.20415 0.75438 0.0
O292 O 0.79897 0.12063 0.76282 0.0
O293 O 0.86315 0.16326 0.77404 0.0
O294 O 0.83644 0.197 0.74093 0.0
O295 O 0.90958 0.19907 0.74102 0.0
C296 C 1.00452 0.20443 0.76571 0.0
O297 O 0.9618 0.17317 0.76135 0.0
O298 O 1.00489 0.24321 0.7697 0.0
C299 C 0.91991 0.29296 0.76175 0.0
Tb300 Tb 0.40771 0.16045 0.58344 0.0
C301 C 0.35602 0.14472 0.5505 0.0
Tb302 Tb 0.32622 0.18814 0.57869 0.0
O303 O 0.35695 0.09329 0.59515 0.0
O304 O 0.33413 0.12749 0.57983 0.0
O305 O 0.39418 0.15069 0.55835 0.0
C306 C 0.24421 0.18835 0.57872 0.0
O307 O 0.32321 0.15349 0.55653 0.0
C308 C 0.41341 0.26257 0.57721 0.0
C309 C 0.36624 0.18571 0.61264 0.0
O310 O 0.27302 0.19988 0.56696 0.0
O311 O 0.26117 0.17578 0.59029 0.0
O312 O 0.37539 0.26558 0.57506 0.0
O313 O 0.39957 0.21959 0.57957 0.0
O314 O 0.3315 0.18455 0.60401 0.0
O315 O 0.40256 0.18248 0.60681 0.0
C316 C 0.49439 0.17004 0.58233 0.0
O317 O 0.45482 0.13095 0.57932 0.0
O318 O 0.4849 0.20316 0.58606 0.0
C319 C 0.31998 0.09417 0.58947 0.0
Tb320 Tb 0.90342 0.27197 0.5867 0.0
C321 C 0.9372 0.24233 0.5567 0.0
Tb322 Tb 0.88305 0.16811 0.58407 0.0
O323 O 0.98122 0.30258 0.58588 0.0
O324 O 0.93642 0.23298 0.59338 0.0
O325 O 0.92579 0.27293 0.56286 0.0
C326 C 0.87859 0.08364 0.5822 0.0
O327 O 0.92679 0.20109 0.56335 0.0
C328 C 0.80848 0.17942 0.5826 0.0
C329 C 0.87329 0.20602 0.61666 0.0
O330 O 0.86884 0.10416 0.57097 0.0
O331 O 0.89146 0.11098 0.59426 0.0
O332 O 0.80703 0.14095 0.58743 0.0
O333 O 0.84923 0.20707 0.57719 0.0
O334 O 0.88235 0.17566 0.60913 0.0
O335 O 0.87365 0.24284 0.60965 0.0
C336 C 0.88845 0.34589 0.5874 0.0
O337 O 0.9172 0.34015 0.59648 0.0
O338 O 0.8684 0.31015 0.57792 0.0
C339 C 0.97871 0.26239 0.58965 0.0
Tb340 Tb 0.79464 0.65867 0.58772 0.0
C341 C 0.83069 0.72134 0.55744 0.0
Tb342 Tb 0.89992 0.74134 0.58626 0.0
O343 O 0.7652 0.70659 0.58581 0.0
O344 O 0.83383 0.73069 0.59424 0.0
O345 O 0.79837 0.67995 0.56357 0.0
C346 C 0.98369 0.82194 0.58586 0.0
O347 O 0.87112 0.75172 0.56452 0.0
C348 C 0.88748 0.65499 0.58522 0.0
C349 C 0.85709 0.69179 0.61844 0.0
O350 O 0.9681 0.78965 0.57509 0.0
O351 O 0.95188 0.80915 0.59667 0.0
O352 O 0.92692 0.69197 0.58943 0.0
O353 O 0.86052 0.66874 0.57964 0.0
O354 O 0.89002 0.73055 0.6112 0.0
O355 O 0.81989 0.65682 0.61114 0.0
C356 C 0.71997 0.57064 0.58748 0.0
O357 O 0.72441 0.60506 0.59635 0.0
O358 O 0.75728 0.58601 0.5787 0.0
C359 C 0.80526 0.74396 0.58974 0.0
C360 C 0.53002 0.84155 0.08288 0.0
C361 C 0.52693 0.86225 0.09674 0.0
C362 C 0.54001 0.80411 0.08293 0.0
C363 C 0.54599 0.78621 0.09723 0.0
C364 C 0.54151 0.80611 0.11131 0.0
C365 C 0.53254 0.84434 0.11089 0.0
C366 C 0.54526 0.78444 0.06767 0.0
C367 C 0.54651 0.78721 0.12678 0.0
C368 C 0.53214 0.66274 0.09549 0.0
C369 C 0.57959 0.67323 0.09548 0.0
C370 C 0.52059 0.699 0.09662 0.0
C371 C 0.55756 0.74711 0.09733 0.0
C372 C 0.60567 0.75791 0.09737 0.0
C373 C 0.61609 0.72072 0.09664 0.0
C374 C 0.46884 0.68581 0.09693 0.0
C375 C 0.64613 0.80877 0.09784 0.0
H376 H 0.5259 0.85551 0.07193 0.0
H377 H 0.52998 0.86026 0.12162 0.0
H378 H 0.58127 0.7885 0.06685 0.0
H379 H 0.51908 0.74582 0.06694 0.0
H380 H 0.53997 0.80262 0.05758 0.0
H381 H 0.53972 0.80499 0.13665 0.0
H382 H 0.52129 0.74832 0.12752 0.0
H383 H 0.58292 0.79254 0.12798 0.0
H384 H 0.50396 0.62608 0.09476 0.0
H385 H 0.65284 0.72887 0.09667 0.0
H386 H 0.46034 0.70001 0.08646 0.0
H387 H 0.46177 0.70212 0.10714 0.0
H388 H 0.44447 0.64664 0.09736 0.0
H389 H 0.64425 0.82843 0.08757 0.0
H390 H 0.68151 0.81112 0.09797 0.0
H391 H 0.64304 0.82701 0.10826 0.0
C392 C 0.33534 0.92303 0.09463 0.0
C393 C 0.38187 0.9338 0.09116 0.0
C394 C 0.29837 0.87547 0.09596 0.0
C395 C 0.30856 0.83795 0.09416 0.0
C396 C 0.35579 0.84885 0.09102 0.0
C397 C 0.39161 0.89659 0.08932 0.0
C398 C 0.24834 0.86535 0.09905 0.0
C399 C 0.36856 0.81014 0.08943 0.0
C400 C 0.21833 0.71599 0.11017 0.0
C401 C 0.19466 0.69194 0.09668 0.0
C402 C 0.25606 0.7633 0.1095 0.0
C403 C 0.2696 0.78731 0.09505 0.0
C404 C 0.24578 0.76291 0.0814 0.0
C405 C 0.20897 0.71534 0.08236 0.0
C406 C 0.2814 0.78767 0.12422 0.0
C407 C 0.25853 0.78735 0.0658 0.0
H408 H 0.32769 0.95177 0.09609 0.0
H409 H 0.42744 0.90483 0.08669 0.0
H410 H 0.22442 0.84323 0.08957 0.0
H411 H 0.23468 0.84473 0.10995 0.0
H412 H 0.24628 0.89847 0.10001 0.0
H413 H 0.40747 0.82476 0.08794 0.0
H414 H 0.3566 0.78682 0.09982 0.0
H415 H 0.34995 0.78743 0.07929 0.0
H416 H 0.20737 0.69782 0.12124 0.0
H417 H 0.19048 0.69682 0.07191 0.0
H418 H 0.27826 0.81982 0.12612 0.0
H419 H 0.31987 0.79966 0.12315 0.0
H420 H 0.26693 0.7641 0.13452 0.0
H421 H 0.2543 0.81929 0.06608 0.0
H422 H 0.23605 0.76359 0.05632 0.0
H423 H 0.29637 0.79974 0.06306 0.0
C424 C 0.13567 0.44282 0.10068 0.0
C425 C 0.12398 0.47674 0.09556 0.0
C426 C 0.18344 0.4548 0.10249 0.0
C427 C 0.22015 0.50186 0.09923 0.0
C428 C 0.20836 0.53655 0.09455 0.0
C429 C 0.16041 0.52334 0.09255 0.0
C430 C 0.19472 0.41705 0.10771 0.0
C431 C 0.24639 0.58762 0.0917 0.0
C432 C 0.34422 0.53707 0.11393 0.0
C433 C 0.36534 0.53196 0.10048 0.0
C434 C 0.29743 0.52901 0.11367 0.0
C435 C 0.27084 0.51398 0.09972 0.0
C436 C 0.29247 0.50937 0.08608 0.0
C437 C 0.33966 0.51902 0.08659 0.0
C438 C 0.27694 0.53552 0.12854 0.0
C439 C 0.26536 0.49303 0.07101 0.0
H440 H 0.10749 0.40687 0.1032 0.0
H441 H 0.15142 0.5496 0.08871 0.0
H442 H 0.21526 0.41116 0.09855 0.0
H443 H 0.21732 0.42921 0.11824 0.0
H444 H 0.16212 0.3826 0.11031 0.0
H445 H 0.26948 0.60189 0.10208 0.0
H446 H 0.26937 0.58945 0.0819 0.0
H447 H 0.23117 0.61087 0.08902 0.0
H448 H 0.36418 0.54728 0.12468 0.0
H449 H 0.35599 0.51495 0.07618 0.0
H450 H 0.26819 0.50485 0.13629 0.0
H451 H 0.24446 0.53818 0.12677 0.0
H452 H 0.30387 0.56808 0.13464 0.0
H453 H 0.23355 0.45723 0.07256 0.0
H454 H 0.28737 0.49119 0.06146 0.0
H455 H 0.25258 0.51768 0.0675 0.0
C456 C 0.86271 0.55646 0.92586 0.0
C457 C 0.86425 0.52362 0.91569 0.0
C458 C 0.82374 0.56392 0.92608 0.0
C459 C 0.78503 0.53762 0.91593 0.0
C460 C 0.78602 0.50379 0.90574 0.0
C461 C 0.82594 0.49745 0.90566 0.0
C462 C 0.82411 0.60015 0.93717 0.0
C463 C 0.74568 0.47504 0.89468 0.0
C464 C 0.67135 0.53379 0.92882 0.0
C465 C 0.67287 0.57116 0.92021 0.0
C466 C 0.70625 0.52067 0.92691 0.0
C467 C 0.74383 0.54596 0.91624 0.0
C468 C 0.74455 0.5827 0.90711 0.0
C469 C 0.70917 0.59511 0.90929 0.0
C470 C 0.70362 0.4806 0.93661 0.0
C471 C 0.78338 0.60977 0.89537 0.0
H472 H 0.89231 0.57675 0.93364 0.0
H473 H 0.82712 0.47203 0.89778 0.0
H474 H 0.82114 0.62807 0.93063 0.0
H475 H 0.79296 0.5827 0.94505 0.0
H476 H 0.857 0.61762 0.9443 0.0
H477 H 0.74564 0.4423 0.89084 0.0
H478 H 0.71061 0.46469 0.89995 0.0
H479 H 0.75001 0.49698 0.88429 0.0
H480 H 0.64344 0.5155 0.93734 0.0
H481 H 0.70989 0.62352 0.90243 0.0
H482 H 0.73398 0.49496 0.94482 0.0
H483 H 0.70649 0.45436 0.9291 0.0
H484 H 0.66995 0.46179 0.94334 0.0
H485 H 0.77611 0.63377 0.8881 0.0
H486 H 0.78744 0.58461 0.88768 0.0
H487 H 0.81779 0.63152 0.90144 0.0
C488 C 0.45858 0.13399 0.93228 0.0
C489 C 0.48632 0.12074 0.92347 0.0
C490 C 0.46871 0.18157 0.93243 0.0
C491 C 0.50739 0.21629 0.92357 0.0
C492 C 0.53653 0.20321 0.91517 0.0
C493 C 0.52553 0.1556 0.9152 0.0
C494 C 0.43713 0.19439 0.94164 0.0
C495 C 0.5782 0.23904 0.90561 0.0
C496 C 0.50131 0.32383 0.90915 0.0
C497 C 0.53192 0.35922 0.91946 0.0
C498 C 0.49305 0.27712 0.91038 0.0
C499 C 0.51576 0.26563 0.92227 0.0
C500 C 0.54716 0.30146 0.93261 0.0
C501 C 0.55501 0.34797 0.93104 0.0
C502 C 0.45989 0.24003 0.89898 0.0
C503 C 0.57211 0.29055 0.94539 0.0
H504 H 0.42829 0.10704 0.93869 0.0
H505 H 0.54697 0.14545 0.90832 0.0
H506 H 0.45898 0.225 0.94937 0.0
H507 H 0.41767 0.20551 0.93364 0.0
H508 H 0.41073 0.16412 0.94878 0.0
H509 H 0.59972 0.22392 0.90088 0.0
H510 H 0.56498 0.25136 0.89579 0.0
H511 H 0.60175 0.27079 0.91267 0.0
H512 H 0.48344 0.33256 0.9002 0.0
H513 H 0.57865 0.37537 0.93905 0.0
H514 H 0.42992 0.21024 0.90525 0.0
H515 H 0.47907 0.22491 0.89263 0.0
H516 H 0.44509 0.25479 0.89041 0.0
H517 H 0.54542 0.26254 0.95312 0.0
H518 H 0.5954 0.32245 0.95247 0.0
H519 H 0.59413 0.27644 0.9404 0.0
C520 C 0.71421 0.21511 0.89945 0.0
C521 C 0.68968 0.19113 0.91289 0.0
C522 C 0.76095 0.25375 0.90031 0.0
C523 C 0.78393 0.26744 0.91489 0.0
C524 C 0.75892 0.24355 0.92849 0.0
C525 C 0.71177 0.20616 0.92734 0.0
C526 C 0.78599 0.2794 0.88562 0.0
C527 C 0.78255 0.25619 0.9442 0.0
C528 C 0.91899 0.32975 0.91552 0.0
C529 C 0.93093 0.37646 0.9192 0.0
C530 C 0.87119 0.29381 0.91414 0.0
C531 C 0.8347 0.30542 0.91594 0.0
C532 C 0.84675 0.35287 0.91935 0.0
C533 C 0.89473 0.38755 0.92133 0.0
C534 C 0.85974 0.24333 0.91101 0.0
C535 C 0.80907 0.36708 0.9208 0.0
H536 H 0.69691 0.20353 0.88829 0.0
H537 H 0.69284 0.18734 0.93772 0.0
H538 H 0.80086 0.31836 0.88698 0.0
H539 H 0.81628 0.27352 0.88324 0.0
H540 H 0.76185 0.26709 0.87543 0.0
H541 H 0.75808 0.23416 0.95364 0.0
H542 H 0.81394 0.25106 0.94419 0.0
H543 H 0.79562 0.29424 0.94682 0.0
H544 H 0.94703 0.32114 0.91394 0.0
H545 H 0.90396 0.42352 0.9244 0.0
H546 H 0.84027 0.23071 0.8999 0.0
H547 H 0.83615 0.21932 0.92026 0.0
H548 H 0.89221 0.24003 0.91043 0.0
H549 H 0.78721 0.35719 0.9101 0.0
H550 H 0.82461 0.40593 0.92277 0.0
H551 H 0.78474 0.34761 0.93054 0.0
C552 C 0.21607 0.01052 0.41852 0.0
C553 C 0.25658 0.01412 0.42562 0.0
C554 C 0.20472 0.0469 0.42016 0.0
C555 C 0.23405 0.08724 0.4294 0.0
C556 C 0.27378 0.0898 0.43716 0.0
C557 C 0.28498 0.05357 0.43497 0.0
C558 C 0.16227 0.04288 0.41159 0.0
C559 C 0.30505 0.13125 0.44756 0.0
C560 C 0.24195 0.20602 0.42058 0.0
C561 C 0.21164 0.2078 0.43178 0.0
C562 C 0.2487 0.16655 0.41951 0.0
C563 C 0.22528 0.12826 0.43011 0.0
C564 C 0.19455 0.12988 0.44147 0.0
C565 C 0.18771 0.16949 0.44207 0.0
C566 C 0.28112 0.16593 0.40706 0.0
C567 C 0.16971 0.09027 0.45317 0.0
H568 H 0.19395 0.97983 0.41135 0.0
H569 H 0.316 0.0561 0.44064 0.0
H570 H 0.13829 0.04739 0.4197 0.0
H571 H 0.17449 0.07176 0.40283 0.0
H572 H 0.14156 1.00806 0.40561 0.0
H573 H 0.33121 0.12528 0.45406 0.0
H574 H 0.32479 0.16407 0.44049 0.0
H575 H 0.283 0.1376 0.456 0.0
H576 H 0.26027 0.23548 0.41256 0.0
H577 H 0.1643 0.17087 0.45077 0.0
H578 H 0.26177 0.13322 0.39995 0.0
H579 H 0.31182 0.16522 0.41245 0.0
H580 H 0.29492 0.19745 0.39929 0.0
H581 H 0.14806 0.05572 0.44718 0.0
H582 H 0.14614 0.09638 0.46103 0.0
H583 H 0.19654 0.0871 0.46027 0.0
C584 C 0.01973 0.25231 0.41544 0.0
C585 C 0.05937 0.2676 0.42509 0.0
C586 C 0.98201 0.20494 0.41612 0.0
C587 C 0.98441 0.1726 0.42667 0.0
C588 C 0.02485 0.18789 0.43622 0.0
C589 C 0.06159 0.23522 0.43536 0.0
C590 C 0.93928 0.18969 0.40579 0.0
C591 C 0.0289 0.15465 0.44763 0.0
C592 C 0.87093 0.06612 0.44139 0.0
C593 C 0.86927 0.02912 0.43256 0.0
C594 C 0.9079 0.11318 0.43941 0.0
C595 C 0.94396 0.12326 0.42833 0.0
C596 C 0.94266 0.08586 0.41948 0.0
C597 C 0.90521 0.03911 0.42171 0.0
C598 C 0.90841 0.15209 0.44917 0.0
C599 C 0.98084 0.09524 0.40772 0.0
H600 H 0.01797 0.27741 0.40753 0.0
H601 H 0.09165 0.24713 0.44309 0.0
H602 H 0.93281 0.15824 0.39884 0.0
H603 H 0.9071 0.17887 0.41298 0.0
H604 H 0.94374 0.21854 0.39779 0.0
H605 H 0.06414 0.17145 0.45347 0.0
H606 H 1.00086 0.14355 0.45662 0.0
H607 H 0.02327 0.12192 0.44167 0.0
H608 H 0.84298 0.05837 0.44974 0.0
H609 H 0.90381 0.01044 0.41485 0.0
H610 H 0.90924 0.18022 0.44161 0.0
H611 H 0.94104 0.16909 0.4564 0.0
H612 H 0.87691 0.13848 0.45692 0.0
H613 H 0.98315 0.12162 0.39904 0.0
H614 H 0.97405 0.06233 0.40156 0.0
H615 H 0.01599 0.11077 0.41352 0.0
C616 C 1.00963 0.84038 0.41737 0.0
C617 C 0.04438 0.87348 0.42737 0.0
C618 C 0.96269 0.83143 0.41784 0.0
C619 C 0.95012 0.85619 0.42861 0.0
C620 C 0.98532 0.8905 0.43854 0.0
C621 C 0.03223 0.89881 0.4378 0.0
C622 C 0.92634 0.79485 0.40696 0.0
C623 C 0.9732 0.91766 0.45014 0.0
C624 C 0.83578 0.8563 0.4194 0.0
C625 C 0.80275 0.81859 0.42859 0.0
C626 C 0.88425 0.87021 0.41974 0.0
C627 C 0.89988 0.84546 0.42944 0.0
C628 C 0.86665 0.80782 0.43898 0.0
C629 C 0.81831 0.79463 0.43837 0.0
C630 C 0.91847 0.91053 0.40941 0.0
C631 C 0.88195 0.78083 0.44958 0.0
H632 H 0.01898 0.8208 0.40927 0.0
H633 H 0.05911 0.9244 0.44555 0.0
H634 H 0.89754 0.76544 0.41373 0.0
H635 H 0.9097 0.81122 0.39988 0.0
H636 H 0.94218 0.7795 0.39904 0.0
H637 H 1.00498 0.94437 0.45662 0.0
H638 H 0.95676 0.93625 0.44418 0.0
H639 H 0.94666 0.89248 0.45856 0.0
H640 H 0.82353 0.8743 0.41166 0.0
H641 H 0.79272 0.76567 0.44556 0.0
H642 H 0.93343 0.89676 0.40059 0.0
H643 H 0.94872 0.93769 0.41631 0.0
H644 H 0.90111 0.92813 0.40336 0.0
H645 H 0.89478 0.7608 0.44257 0.0
H646 H 0.85248 0.75526 0.45716 0.0
H647 H 0.91196 0.80598 0.457 0.0
C648 C 0.37855 0.93677 0.26538 0.0
C649 C 0.33652 0.90652 0.25742 0.0
C650 C 0.41703 0.92816 0.26532 0.0
C651 C 0.41313 0.88859 0.25704 0.0
C652 C 0.37007 0.85716 0.24943 0.0
C653 C 0.33233 0.86647 0.24976 0.0
C654 C 0.46224 0.96208 0.27373 0.0
C655 C 0.36439 0.8147 0.2404 0.0
C656 C 0.5253 0.89294 0.24189 0.0
C657 C 0.5311 0.86351 0.25249 0.0
C658 C 0.48721 0.90172 0.24332 0.0
C659 C 0.45453 0.88086 0.25572 0.0
C660 C 0.46032 0.85108 0.26645 0.0
C661 C 0.49848 0.84261 0.26467 0.0
C662 C 0.48193 0.93332 0.23156 0.0
C663 C 0.42624 0.8282 0.27982 0.0
H664 H 0.38181 0.96774 0.27131 0.0
H665 H 0.29991 0.84298 0.24357 0.0
H666 H 0.4728 0.9421 0.28172 0.0
H667 H 0.49159 0.98076 0.26525 0.0
H668 H 0.45844 0.98916 0.28048 0.0
H669 H 0.32751 0.79201 0.23604 0.0
H670 H 0.38907 0.82718 0.23035 0.0
H671 H 0.37383 0.79248 0.24773 0.0
H672 H 0.55066 0.90929 0.23251 0.0
H673 H 0.50311 0.82003 0.27294 0.0
H674 H 0.48579 0.96559 0.23736 0.0
H675 H 0.44585 0.91436 0.22638 0.0
H676 H 0.50871 0.94461 0.22212 0.0
H677 H 0.42487 0.85599 0.28694 0.0
H678 H 0.43648 0.80702 0.28738 0.0
H679 H 0.38976 0.80442 0.27536 0.0
C680 C 0.19735 0.67286 0.23521 0.0
C681 C 0.20008 0.69883 0.2485 0.0
C682 C 0.18843 0.62585 0.23637 0.0
C683 C 0.18085 0.60407 0.25113 0.0
C684 C 0.18422 0.6305 0.2646 0.0
C685 C 0.19443 0.67783 0.26312 0.0
C686 C 0.18658 0.59929 0.22181 0.0
C687 C 0.1755 0.6083 0.28052 0.0
C688 C 0.10832 0.46877 0.25266 0.0
C689 C 0.14374 0.4569 0.25528 0.0
C690 C 0.11986 0.51662 0.25146 0.0
C691 C 0.16811 0.55324 0.25249 0.0
C692 C 0.20405 0.54126 0.25492 0.0
C693 C 0.19126 0.49323 0.25653 0.0
C694 C 0.08041 0.52799 0.24918 0.0
C695 C 0.25601 0.57906 0.25562 0.0
H696 H 0.20196 0.68924 0.2239 0.0
H697 H 0.19624 0.69786 0.2734 0.0
H698 H 0.21174 0.58557 0.22276 0.0
H699 H 0.15043 0.56805 0.22033 0.0
H700 H 0.19563 0.62202 0.21129 0.0
H701 H 0.17985 0.63383 0.28982 0.0
H702 H 0.13886 0.57728 0.28117 0.0
H703 H 0.20043 0.59488 0.28276 0.0
H704 H 0.07151 0.44065 0.2517 0.0
H705 H 0.21863 0.48405 0.25848 0.0
H706 H 0.08543 0.547 0.23803 0.0
H707 H 0.08156 0.55202 0.25853 0.0
H708 H 0.04464 0.49549 0.24916 0.0
H709 H 0.26648 0.60025 0.24476 0.0
H710 H 0.27961 0.56367 0.25727 0.0
H711 H 0.26212 0.60402 0.26528 0.0
C712 C 0.58822 0.6736 0.24663 0.0
C713 C 0.59937 0.71589 0.25437 0.0
C714 C 0.54079 0.63659 0.24529 0.0
C715 C 0.50369 0.64271 0.25147 0.0
C716 C 0.51485 0.68592 0.25895 0.0
C717 C 0.56266 0.72139 0.26067 0.0
C718 C 0.53056 0.59054 0.23765 0.0
C719 C 0.4764 0.69454 0.26531 0.0
C720 C 0.37696 0.55749 0.23811 0.0
C721 C 0.35862 0.5271 0.25093 0.0
C722 C 0.424 0.59592 0.23817 0.0
C723 C 0.45358 0.60277 0.25114 0.0
C724 C 0.43515 0.57161 0.26401 0.0
C725 C 0.38763 0.53471 0.26386 0.0
C726 C 0.44189 0.6294 0.22447 0.0
C727 C 0.46584 0.57672 0.27786 0.0
H728 H 0.61661 0.66918 0.24177 0.0
H729 H 0.57134 0.75319 0.26714 0.0
H730 H 0.51282 0.56074 0.24605 0.0
H731 H 0.5058 0.58249 0.22778 0.0
H732 H 0.5634 0.5917 0.23332 0.0
H733 H 0.4907 0.73197 0.26915 0.0
H734 H 0.44865 0.68618 0.2564 0.0
H735 H 0.45883 0.67068 0.27534 0.0
H736 H 0.35432 0.55159 0.22814 0.0
H737 H 0.37351 0.51086 0.27372 0.0
H738 H 0.4723 0.62844 0.21896 0.0
H739 H 0.45508 0.66652 0.22841 0.0
H740 H 0.41382 0.6203 0.2156 0.0
H741 H 0.49817 0.57597 0.27407 0.0
H742 H 0.44672 0.54803 0.28656 0.0
H743 H 0.47786 0.61154 0.28357 0.0
C744 C 0.86494 0.50412 0.75435 0.0
C745 C 0.85675 0.5201 0.76846 0.0
C746 C 0.87494 0.46678 0.75387 0.0
C747 C 0.87554 0.44408 0.76782 0.0
C748 C 0.86599 0.45921 0.7821 0.0
C749 C 0.85723 0.49757 0.78227 0.0
C750 C 0.88586 0.45234 0.73845 0.0
C751 C 0.86518 0.43498 0.79715 0.0
C752 C 0.86155 0.32172 0.76224 0.0
C753 C 0.90858 0.33149 0.76353 0.0
C754 C 0.84992 0.35761 0.7643 0.0
C755 C 0.88658 0.40475 0.76732 0.0
C756 C 0.93426 0.41481 0.76875 0.0
C757 C 0.94463 0.37788 0.76696 0.0
C758 C 0.79849 0.34514 0.76303 0.0
C759 C 0.97445 0.46475 0.77177 0.0
H760 H 0.86486 0.52173 0.74367 0.0
H761 H 0.85073 0.50992 0.79317 0.0
H762 H 0.92173 0.45593 0.73879 0.0
H763 H 0.85988 0.4144 0.73606 0.0
H764 H 0.88479 0.47426 0.72872 0.0
H765 H 0.85571 0.45006 0.80719 0.0
H766 H 0.83908 0.39631 0.7964 0.0
H767 H 0.90054 0.43858 0.79933 0.0
H768 H 0.83377 0.2859 0.75973 0.0
H769 H 0.98107 0.38544 0.76805 0.0
H770 H 0.79378 0.36277 0.7527 0.0
H771 H 0.78815 0.35841 0.77332 0.0
H772 H 0.77391 0.30612 0.76203 0.0
H773 H 0.977 0.48845 0.76208 0.0
H774 H 1.0093 0.46629 0.77304 0.0
H775 H 0.96734 0.47909 0.78247 0.0
C776 C 0.72321 0.55477 0.76143 0.0
C777 C 0.71327 0.5919 0.76313 0.0
C778 C 0.68705 0.50695 0.76251 0.0
C779 C 0.63942 0.49595 0.76489 0.0
C780 C 0.62922 0.53339 0.7668 0.0
C781 C 0.66639 0.58099 0.76604 0.0
C782 C 0.69984 0.4682 0.76121 0.0
C783 C 0.57899 0.52314 0.76949 0.0
C784 C 0.54161 0.37641 0.75007 0.0
C785 C 0.52332 0.35074 0.76384 0.0
C786 C 0.57928 0.42369 0.7503 0.0
C787 C 0.6001 0.44538 0.76463 0.0
C788 C 0.58276 0.41887 0.77855 0.0
C789 C 0.54398 0.3721 0.778 0.0
C790 C 0.59599 0.45085 0.73523 0.0
C791 C 0.60379 0.43975 0.79414 0.0
H792 H 0.7594 0.56311 0.75939 0.0
H793 H 0.65866 0.60966 0.76753 0.0
H794 H 0.68253 0.44597 0.75086 0.0
H795 H 0.73889 0.48275 0.76031 0.0
H796 H 0.68636 0.44448 0.7715 0.0
H797 H 0.57676 0.5562 0.77028 0.0
H798 H 0.55558 0.50086 0.75994 0.0
H799 H 0.56499 0.50268 0.78041 0.0
H800 H 0.52547 0.35999 0.73911 0.0
H801 H 0.52987 0.35225 0.78867 0.0
H802 H 0.63424 0.46302 0.73337 0.0
H803 H 0.59229 0.48309 0.73572 0.0
H804 H 0.57558 0.42906 0.72511 0.0
H805 H 0.60058 0.41164 0.80226 0.0
H806 H 0.58352 0.45573 0.79919 0.0
H807 H 0.64182 0.46774 0.79335 0.0
C808 C 0.46152 0.09721 0.75975 0.0
C809 C 0.45121 0.13399 0.75765 0.0
C810 C 0.50865 0.10722 0.7618 0.0
C811 C 0.54614 0.15523 0.76217 0.0
C812 C 0.53562 0.19249 0.7605 0.0
C813 C 0.48836 0.18132 0.75802 0.0
C814 C 0.51841 0.06643 0.76325 0.0
C815 C 0.57424 0.24415 0.76126 0.0
C816 C 0.66499 0.17934 0.77891 0.0
C817 C 0.69139 0.18529 0.76541 0.0
C818 C 0.61788 0.17048 0.77808 0.0
C819 C 0.59656 0.16641 0.7634 0.0
C820 C 0.6233 0.17255 0.74976 0.0
C821 C 0.67055 0.18249 0.75095 0.0
C822 C 0.59089 0.16542 0.79287 0.0
C823 C 0.6017 0.1676 0.73389 0.0
H824 H 0.43278 0.06052 0.75956 0.0
H825 H 0.48041 0.2097 0.7566 0.0
H826 H 0.54222 0.06825 0.75371 0.0
H827 H 0.53706 0.06915 0.7743 0.0
H828 H 0.48529 0.03117 0.76284 0.0
H829 H 0.55966 0.26875 0.76095 0.0
H830 H 0.59533 0.25085 0.77203 0.0
H831 H 0.59905 0.25274 0.75136 0.0
H832 H 0.68119 0.18169 0.7901 0.0
H833 H 0.69083 0.18685 0.74048 0.0
H834 H 0.55829 0.12987 0.79333 0.0
H835 H 0.57927 0.19235 0.79314 0.0
H836 H 0.6126 0.16988 0.80336 0.0
H837 H 0.56972 0.13177 0.73268 0.0
H838 H 0.62706 0.1726 0.72444 0.0
H839 H 0.58996 0.19417 0.73239 0.0
C840 C 1.00641 0.20373 0.58645 0.0
C841 C 0.01723 0.25117 0.58752 0.0
C842 C 0.04209 0.19201 0.58412 0.0
C843 C 0.09015 0.22884 0.58324 0.0
C844 C 0.10143 0.27704 0.58427 0.0
C845 C 0.06466 0.28766 0.5862 0.0
C846 C 0.02832 0.14022 0.58264 0.0
C847 C 0.15235 0.31729 0.58366 0.0
C848 C 0.18397 0.19656 0.59412 0.0
C849 C 0.20268 0.1953 0.57962 0.0
C850 C 0.14754 0.20774 0.59545 0.0
C851 C 0.12864 0.21674 0.5819 0.0
C852 C 0.14642 0.21403 0.56717 0.0
C853 C 0.18372 0.20385 0.56622 0.0
C854 C 0.13004 0.21098 0.61137 0.0
C855 C 0.12625 0.22217 0.55246 0.0
H856 H 0.96985 0.17573 0.58715 0.0
H857 H 0.07307 0.32446 0.58695 0.0
H858 H 0.04307 0.13458 0.57177 0.0
H859 H 0.04366 0.12994 0.59239 0.0
H860 H 0.9891 0.11613 0.58265 0.0
H861 H 0.15509 0.35278 0.58459 0.0
H862 H 0.17294 0.31342 0.59327 0.0
H863 H 0.16928 0.31588 0.57266 0.0
H864 H 0.19886 0.19027 0.60451 0.0
H865 H 0.19818 0.20278 0.555 0.0
H866 H 0.09143 0.18509 0.61243 0.0
H867 H 0.13484 0.24705 0.61313 0.0
H868 H 0.14911 0.2038 0.62075 0.0
H869 H 0.08735 0.19694 0.5519 0.0
H870 H 0.14321 0.21762 0.54192 0.0
H871 H 0.13135 0.25866 0.55241 0.0
C872 C 0.86348 0.82979 0.58509 0.0
C873 C 0.81649 0.79364 0.58751 0.0
C874 C 0.87486 0.87719 0.58293 0.0
C875 C 0.83818 0.88875 0.58344 0.0
C876 C 0.79034 0.85215 0.58559 0.0
C877 C 0.78 0.80484 0.58742 0.0
C878 C 0.92619 0.91491 0.58031 0.0
C879 C 0.75031 0.86317 0.58643 0.0
C880 C 0.87252 0.01378 0.5961 0.0
C881 C 0.87099 0.03485 0.58209 0.0
C882 C 0.86183 0.96625 0.59666 0.0
C883 C 0.85026 0.93941 0.58281 0.0
C884 C 0.84999 0.96093 0.56853 0.0
C885 C 0.85996 1.00845 0.56836 0.0
C886 C 0.862 0.94447 0.61213 0.0
C887 C 0.83883 0.93365 0.55349 0.0
H888 H 0.89128 0.8209 0.58458 0.0
H889 H 0.7435 0.77674 0.58915 0.0
H890 H 0.92935 0.9359 0.56975 0.0
H891 H 0.93909 0.94003 0.59021 0.0
H892 H 0.94984 0.89944 0.57903 0.0
H893 H 0.71494 0.83049 0.58765 0.0
H894 H 0.7559 0.88673 0.59648 0.0
H895 H 0.75005 0.8826 0.57588 0.0
H896 H 0.8809 0.03414 0.60674 0.0
H897 H 0.8589 0.02485 0.55752 0.0
H898 H 0.88798 0.93166 0.61196 0.0
H899 H 0.8264 0.91313 0.61443 0.0
H900 H 0.87124 0.97008 0.62184 0.0
H901 H 0.86306 0.91903 0.55189 0.0
H902 H 0.8423 0.95618 0.54331 0.0
H903 H 0.802 0.90294 0.55381 0.0
C904 C 0.25684 0.01441 0.59901 0.0
C905 C 0.26976 0.05661 0.59092 0.0
C906 C 0.20947 0.97675 0.59889 0.0
C907 C 0.17452 0.98192 0.59062 0.0
C908 C 0.18724 0.02531 0.58298 0.0
C909 C 0.23478 0.06192 0.58312 0.0
C910 C 0.19713 0.93089 0.60715 0.0
C911 C 0.15102 0.03256 0.57419 0.0
C912 C 0.066 0.87087 0.5755 0.0
C913 C 0.03164 0.8641 0.58658 0.0
C914 C 0.11276 0.90909 0.57671 0.0
C915 C 0.12516 0.94127 0.58927 0.0
C916 C 0.09026 0.93502 0.60032 0.0
C917 C 0.04385 0.89636 0.59886 0.0
C918 C 0.14901 0.91478 0.56465 0.0
C919 C 0.10202 0.969 0.61372 0.0
H920 H 0.28394 0.01027 0.605 0.0
H921 H 0.24474 0.09437 0.57673 0.0
H922 H 0.16718 0.92105 0.6153 0.0
H923 H 0.18525 0.90161 0.59859 0.0
H924 H 0.22782 0.93344 0.6137 0.0
H925 H 0.16587 0.06989 0.57013 0.0
H926 H 0.13842 1.00868 0.56397 0.0
H927 H 0.11954 0.02315 0.58159 0.0
H928 H 0.05654 0.84583 0.56602 0.0
H929 H 0.01718 0.89114 0.60741 0.0
H930 H 0.17931 0.91386 0.57028 0.0
H931 H 0.16351 0.94989 0.55884 0.0
H932 H 0.1337 0.88645 0.55569 0.0
H933 H 0.13053 0.96926 0.6209 0.0
H934 H 0.07063 0.95938 0.62123 0.0
H935 H 0.11574 1.00578 0.60933 0.0
C936 C 0.54193 1.00657 0.03734 0.0
C937 C 0.5323 0.03874 0.0452 0.0
C938 C 0.54333 1.0058 0.02107 0.0
C939 C 0.53418 0.03749 0.01237 0.0
C940 C 0.52579 0.07099 0.02024 0.0
C941 C 0.52531 0.07146 0.03655 0.0
C942 C 0.55321 0.97006 0.01317 0.0
C943 C 0.51538 0.10507 0.01144 0.0
C944 C 0.56633 0.05745 0.96941 0.0
C945 C 0.52262 0.02604 0.96238 0.0
C946 C 0.57081 0.06128 0.98564 0.0
C947 C 0.5305 0.03358 0.99511 0.0
C948 C 0.48634 1.00186 0.98808 0.0
C949 C 0.48303 0.99823 0.97186 0.0
C950 C 0.61869 0.09497 0.99267 0.0
C951 C 0.44232 0.97207 0.99772 0.0
H952 H 0.54775 0.98139 0.04391 0.0
H953 H 0.51763 0.09631 0.04249 0.0
H954 H 0.52104 0.9437 1.00681 0.0
H955 H 0.58222 0.98819 1.00454 0.0
H956 H 0.56343 0.95062 0.02153 0.0
H957 H 0.51213 0.1306 0.01921 0.0
H958 H 0.54392 0.12549 1.00285 0.0
H959 H 0.48161 0.0847 1.00491 0.0
H960 H 0.5972 0.07902 0.96223 0.0
H961 H 0.44898 0.97414 0.9666 0.0
H962 H 0.6297 0.07516 1.00056 0.0
H963 H 0.61624 0.12226 0.99972 0.0
H964 H 0.64676 0.11334 0.98374 0.0
H965 H 0.44833 0.94853 1.00561 0.0
H966 H 0.41053 0.94958 0.99048 0.0
H967 H 0.43463 0.99554 1.00505 0.0
C968 C 0.06109 0.50403 0.97496 0.0
C969 C 0.0295 0.51182 0.966 0.0
C970 C 0.05921 0.50405 0.99124 0.0
C971 C 0.0254 0.51275 0.99875 0.0
C972 C 0.99408 0.52156 0.98976 0.0
C973 C 0.99632 0.52071 0.97352 0.0
C974 C 0.09297 0.49412 1.00041 0.0
C975 C 0.95805 0.53174 0.99729 0.0
C976 C 0.99084 0.47061 0.04044 0.0
C977 C 0.02015 0.51228 0.0488 0.0
C978 C 0.99207 0.47027 0.02415 0.0
C979 C 0.02285 0.51274 0.01601 0.0
C980 C 0.05151 0.55519 0.02438 0.0
C981 C 0.05001 0.55439 0.04065 0.0
C982 C 0.9612 0.42419 0.01566 0.0
C983 C 0.08424 0.6014 0.01616 0.0
H984 H 0.08668 0.49691 0.96926 0.0
H985 H 0.97197 0.5271 0.96671 0.0
H986 H 0.11503 0.52456 0.00817 0.0
H987 H 0.07246 0.46233 0.00787 0.0
H988 H 0.11699 0.48781 0.99284 0.0
H989 H 0.93697 0.53891 0.98866 0.0
H990 H 0.93321 0.50099 1.00455 0.0
H991 H 0.97635 0.56302 1.00506 0.0
H992 H 0.96788 0.43785 0.04662 0.0
H993 H 0.07261 0.58686 0.04699 0.0
H994 H 0.98391 0.41429 0.0088 0.0
H995 H 0.93756 0.42872 1.00739 0.0
H996 H 0.93882 0.39438 0.02366 0.0
H997 H 0.11127 0.59761 0.0094 0.0
H998 H 0.10296 0.63164 0.02433 0.0
H999 H 0.06367 0.61017 0.00783 0.0
C1000 C 0.54012 0.57079 0.97778 0.0
C1001 C 0.52844 0.53024 0.96888 0.0
C1002 C 0.53985 0.56879 0.99406 0.0
C1003 C 0.52692 0.52507 1.0016 0.0
C1004 C 0.51349 0.4837 0.99266 0.0
C1005 C 0.51469 0.48685 0.97644 0.0
C1006 C 0.55473 0.61378 1.00319 0.0
C1007 C 0.49867 0.43624 1.00024 0.0
C1008 C 0.57171 0.52939 0.04268 0.0
C1009 C 0.53241 0.52213 0.05156 0.0
C1010 C 0.57031 0.53015 0.02641 0.0
C1011 C 0.52837 0.52277 0.01883 0.0
C1012 C 0.48803 0.5137 0.02773 0.0
C1013 C 0.49063 0.51378 0.04397 0.0
C1014 C 0.61419 0.54023 0.01732 0.0
C1015 C 0.44238 0.50479 0.02011 0.0
H1016 H 0.55106 0.60449 0.97204 0.0
H1017 H 0.50524 0.45522 0.96965 0.0
H1018 H 0.52616 0.6084 0.01142 0.0
H1019 H 0.58684 0.62252 0.01015 0.0
H1020 H 0.5628 0.64467 0.99561 0.0
H1021 H 0.48699 0.40699 0.99165 0.0
H1022 H 0.52886 0.43842 1.00696 0.0
H1023 H 0.46913 0.42705 0.00851 0.0
H1024 H 0.60425 0.53623 0.04843 0.0
H1025 H 0.45998 0.50789 0.05074 0.0
H1026 H 0.62673 0.57332 0.01043 0.0
H1027 H 0.60562 0.51089 0.00904 0.0
H1028 H 0.6437 0.54445 0.02493 0.0
H1029 H 0.44873 0.5368 0.01348 0.0
H1030 H 0.41353 0.49611 0.02866 0.0
H1031 H 0.43004 0.47496 0.01175 0.0
C1032 C 0.17933 0.389 0.37373 0.0
C1033 C 0.18709 0.35794 0.38303 0.0
C1034 C 0.17785 0.38531 0.3575 0.0
C1035 C 0.185 0.35013 0.3503 0.0
C1036 C 0.19315 0.3188 0.3596 0.0
C1037 C 0.19371 0.32281 0.37585 0.0
C1038 C 0.1684 0.41904 0.34807 0.0
C1039 C 0.20163 0.28129 0.35236 0.0
C1040 C 0.14048 0.31831 0.30874 0.0
C1041 C 0.18164 0.34829 0.30021 0.0
C1042 C 0.14128 0.31754 0.32504 0.0
C1043 C 0.18445 0.34686 0.33302 0.0
C1044 C 0.22651 0.37563 0.32443 0.0
C1045 C 0.22453 0.37628 0.30818 0.0
C1046 C 0.09551 0.2868 0.33374 0.0
C1047 C 0.27342 0.40685 0.33244 0.0
H1048 H 0.1737 0.41597 0.37912 0.0
H1049 H 0.19983 0.29872 0.38293 0.0
H1050 H 0.19902 0.44066 0.3403 0.0
H1051 H 0.13667 0.39854 0.34063 0.0
H1052 H 0.16232 0.44357 0.35545 0.0
H1053 H 0.20771 0.25986 0.36117 0.0
H1054 H 0.17063 0.25693 0.34515 0.0
H1055 H 0.23307 0.29842 0.34458 0.0
H1056 H 0.10714 0.29666 0.30272 0.0
H1057 H 0.25664 0.39921 0.30169 0.0
H1058 H 0.08559 0.30978 0.34043 0.0
H1059 H 0.10032 0.26368 0.34217 0.0
H1060 H 0.06561 0.26392 0.32587 0.0
H1061 H 0.27152 0.43524 0.33903 0.0
H1062 H 0.30355 0.42394 0.32413 0.0
H1063 H 0.28097 0.38561 0.34089 0.0
C1064 C 0.72561 0.90291 0.3763 0.0
C1065 C 0.69451 0.86017 0.38394 0.0
C1066 C 0.72727 0.90575 0.36006 0.0
C1067 C 0.69747 0.86475 0.35122 0.0
C1068 C 0.66511 0.82183 0.35884 0.0
C1069 C 0.6638 0.82014 0.37511 0.0
C1070 C 0.7617 0.95236 0.35237 0.0
C1071 C 0.63289 0.77727 0.34981 0.0
C1072 C 0.67252 0.87587 0.30887 0.0
C1073 C 0.70367 0.86421 0.30129 0.0
C1074 C 0.67093 0.8773 0.3251 0.0
C1075 C 0.70087 0.86634 0.334 0.0
C1076 C 0.73321 0.85565 0.32643 0.0
C1077 C 0.73444 0.85501 0.31017 0.0
C1078 C 0.6365 0.88958 0.33272 0.0
C1079 C 0.76552 0.84349 0.33553 0.0
H1080 H 0.7493 0.93413 0.38301 0.0
H1081 H 0.63983 0.7869 0.38088 0.0
H1082 H 0.78859 0.94811 0.34569 0.0
H1083 H 0.74256 0.96292 0.34403 0.0
H1084 H 0.78055 0.9816 0.36087 0.0
H1085 H 0.60889 0.74712 0.35746 0.0
H1086 H 0.61082 0.78428 0.34158 0.0
H1087 H 0.65468 0.7664 0.34287 0.0
H1088 H 0.64884 0.88339 0.30211 0.0
H1089 H 0.75844 0.84575 0.30442 0.0
H1090 H 0.65567 0.91947 0.34096 0.0
H1091 H 0.60972 0.8586 0.33949 0.0
H1092 H 0.61751 0.89973 0.32416 0.0
H1093 H 0.7876 0.87271 0.34369 0.0
H1094 H 0.78949 0.83722 0.32793 0.0
H1095 H 0.74379 0.81096 0.34256 0.0
C1096 C 0.21361 0.91159 0.30496 0.0
C1097 C 0.2025 0.87139 0.29591 0.0
C1098 C 0.21409 0.90958 0.32122 0.0
C1099 C 0.20255 0.86615 0.3287 0.0
C1100 C 0.1901 0.82512 0.31966 0.0
C1101 C 0.19053 0.8283 0.3034 0.0
C1102 C 0.22808 0.95431 0.33041 0.0
C1103 C 0.1769 0.77799 0.32717 0.0
C1104 C 0.25054 0.87442 0.36955 0.0
C1105 C 0.21157 0.86676 0.37872 0.0
C1106 C 0.24783 0.87358 0.35328 0.0
C1107 C 0.2049 0.86419 0.34596 0.0
C1108 C 0.16492 0.85478 0.35515 0.0
C1109 C 0.16882 0.85649 0.37139 0.0
C1110 C 0.29145 0.88426 0.34393 0.0
C1111 C 0.11828 0.84388 0.34781 0.0
H1112 H 0.2232 0.94515 0.29934 0.0
H1113 H 0.18164 0.79692 0.29655 0.0
H1114 H 0.19937 0.94818 0.33868 0.0
H1115 H 0.26046 0.96377 0.33732 0.0
H1116 H 0.23534 0.98506 0.32288 0.0
H1117 H 0.16589 0.74891 0.31855 0.0
H1118 H 0.20767 0.78117 0.3338 0.0
H1119 H 0.14735 0.76789 0.33552 0.0
H1120 H 0.28383 0.88261 0.37504 0.0
H1121 H 0.13839 0.85022 0.37835 0.0
H1122 H 0.30294 0.91703 0.33696 0.0
H1123 H 0.28303 0.85482 0.33571 0.0
H1124 H 0.32165 0.88942 0.35136 0.0
H1125 H 0.12303 0.87531 0.34117 0.0
H1126 H 0.08971 0.83436 0.35653 0.0
H1127 H 0.10651 0.814 0.3395 0.0
C1128 C 0.8735 0.66613 0.71069 0.0
C1129 C 0.86053 0.69618 0.71835 0.0
C1130 C 0.87544 0.66521 0.69445 0.0
C1131 C 0.86359 0.69464 0.6856 0.0
C1132 C 0.85136 0.72574 0.69325 0.0
C1133 C 0.85029 0.72637 0.70953 0.0
C1134 C 0.88937 0.63211 0.68675 0.0
C1135 C 0.83815 0.75742 0.68423 0.0
C1136 C 0.90177 0.72183 0.6434 0.0
C1137 C 0.85989 0.68978 0.63558 0.0
C1138 C 0.90379 0.72315 0.65966 0.0
C1139 C 0.8628 0.69206 0.66834 0.0
C1140 C 0.8207 0.659 0.66053 0.0
C1141 C 0.81984 0.65804 0.64426 0.0
C1142 C 0.94958 0.75838 0.66754 0.0
C1143 C 0.77612 0.62546 0.66937 0.0
H1144 H 0.88181 0.6429 0.71739 0.0
H1145 H 0.84002 0.74954 0.71532 0.0
H1146 H 0.85914 0.60515 0.67979 0.0
H1147 H 0.91952 0.65239 0.67867 0.0
H1148 H 0.89982 0.61326 0.69527 0.0
H1149 H 0.8305 0.78031 0.69189 0.0
H1150 H 0.86743 0.78063 0.67622 0.0
H1151 H 0.80621 0.73524 0.67704 0.0
H1152 H 0.933 0.74634 0.63681 0.0
H1153 H 0.78724 0.63333 0.63835 0.0
H1154 H 0.96084 0.73959 0.67579 0.0
H1155 H 0.94391 0.78414 0.67435 0.0
H1156 H 0.97891 0.77853 0.65915 0.0
H1157 H 0.78358 0.60347 0.67751 0.0
H1158 H 0.74657 0.60133 0.66159 0.0
H1159 H 0.7642 0.64623 0.6764 0.0
C1160 C 0.33086 0.19984 0.63664 0.0
C1161 C 0.36285 0.18793 0.62979 0.0
C1162 C 0.32619 0.20017 0.65285 0.0
C1163 C 0.35363 0.18762 0.66248 0.0
C1164 C 0.386 0.17565 0.65564 0.0
C1165 C 0.39044 0.17627 0.63944 0.0
C1166 C 0.29183 0.21386 0.65968 0.0
C1167 C 0.41557 0.16154 0.66545 0.0
C1168 C 0.37835 0.22468 0.70483 0.0
C1169 C 0.34626 0.18247 0.71253 0.0
C1170 C 0.37972 0.22747 0.68856 0.0
C1171 C 0.34873 0.18687 0.67972 0.0
C1172 C 0.31517 0.14462 0.68743 0.0
C1173 C 0.31409 0.14305 0.70373 0.0
C1174 C 0.41546 0.27346 0.68084 0.0
C1175 C 0.28183 0.10036 0.67846 0.0
H1176 H 0.30944 0.20903 0.62933 0.0
H1177 H 0.41499 0.16661 0.63433 0.0
H1178 H 0.26427 0.18381 0.66658 0.0
H1179 H 0.31095 0.24444 0.66767 0.0
H1180 H 0.27385 0.22369 0.65064 0.0
H1181 H 0.4387 0.15271 0.65835 0.0
H1182 H 0.43843 0.19095 0.67345 0.0
H1183 H 0.39195 0.13012 0.67268 0.0
H1184 H 0.40311 0.25548 0.71151 0.0
H1185 H 0.28932 0.1102 0.70955 0.0
H1186 H 0.3976 0.28427 0.67209 0.0
H1187 H 0.4425 0.26822 0.67466 0.0
H1188 H 0.43405 0.30294 0.68929 0.0
H1189 H 0.26184 0.1086 0.66974 0.0
H1190 H 0.25595 0.07133 0.68611 0.0
H1191 H 0.30273 0.08724 0.67208 0.0
C1192 C 0.87358 0.23972 0.64284 0.0
C1193 C 0.86753 0.20122 0.63375 0.0
C1194 C 0.87291 0.23712 0.65911 0.0
C1195 C 0.86534 0.19478 0.66648 0.0
C1196 C 0.85765 0.15527 0.65737 0.0
C1197 C 0.85913 0.15906 0.64113 0.0
C1198 C 0.8816 0.28018 0.66841 0.0
C1199 C 0.84866 0.10923 0.66476 0.0
C1200 C 0.91055 0.20419 0.70779 0.0
C1201 C 0.86929 0.19117 0.7165 0.0
C1202 C 0.90969 0.20519 0.69151 0.0
C1203 C 0.8664 0.1922 0.68373 0.0
C1204 C 0.82436 0.17765 0.69245 0.0
C1205 C 0.82637 0.17758 0.7087 0.0
C1206 C 0.95538 0.2213 0.68263 0.0
C1207 C 0.77736 0.16282 0.68461 0.0
H1208 H 0.88038 0.27254 0.63727 0.0
H1209 H 0.85414 0.12901 0.63422 0.0
H1210 H 0.8515 0.27062 0.67647 0.0
H1211 H 0.91414 0.29264 0.67555 0.0
H1212 H 0.88603 0.31009 0.66094 0.0
H1213 H 0.84107 0.08108 0.65606 0.0
H1214 H 0.8802 0.11549 0.67162 0.0
H1215 H 0.81811 0.09596 0.67288 0.0
H1216 H 0.94392 0.215 0.71369 0.0
H1217 H 0.7942 0.16714 0.71531 0.0
H1218 H 0.96404 0.25365 0.67578 0.0
H1219 H 0.95106 0.19332 0.67433 0.0
H1220 H 0.98589 0.22949 0.69038 0.0
H1221 H 0.77966 0.19324 0.67796 0.0
H1222 H 0.74754 0.15043 0.69302 0.0
H1223 H 0.76901 0.13376 0.67622 0.0
C1224 C 0.26789 0.92845 0.18942 0.0
C1225 C 0.28 0.91245 0.2028 0.0
C1226 C 0.29783 0.94272 0.17629 0.0
C1227 C 0.34174 0.94299 0.17687 0.0
C1228 C 0.3543 0.92768 0.19055 0.0
C1229 C 0.32296 0.91191 0.20322 0.0
C1230 C 0.28222 0.95687 0.16172 0.0
C1231 C 0.40114 0.92847 0.19187 0.0
C1232 C 0.40304 0.93948 0.13958 0.0
C1233 C 0.43571 0.9879 0.13704 0.0
C1234 C 0.37238 0.92445 0.15248 0.0
C1235 C 0.37438 0.95855 0.16316 0.0
C1236 C 0.40817 1.00736 0.16088 0.0
C1237 C 0.43801 0.02148 0.14778 0.0
C1238 C 0.33695 0.8721 0.15437 0.0
C1239 C 0.41296 0.04467 0.17234 0.0
H1240 H 0.23471 0.92894 0.18913 0.0
H1241 H 0.33274 0.90034 0.2137 0.0
H1242 H 0.3083 0.99426 0.15863 0.0
H1243 H 0.28115 0.93414 0.15194 0.0
H1244 H 0.24654 0.95345 0.16297 0.0
H1245 H 0.40456 0.91348 0.20305 0.0
H1246 H 0.40502 0.90779 0.18232 0.0
H1247 H 0.43094 0.96569 0.19084 0.0
H1248 H 0.40035 0.91328 0.13122 0.0
H1249 H 0.46324 0.05894 0.14593 0.0
H1250 H 0.30114 0.86544 0.15095 0.0
H1251 H 0.3346 0.86049 0.16658 0.0
H1252 H 0.34642 0.8498 0.14712 0.0
H1253 H 0.37924 0.04556 0.17291 0.0
H1254 H 0.44228 0.08083 0.16925 0.0
H1255 H 0.41976 0.03549 0.1841 0.0
C1256 C 0.11249 0.47947 0.14096 0.0
C1257 C 0.07002 0.48098 0.14138 0.0
C1258 C 0.12701 0.4626 0.15363 0.0
C1259 C 0.09988 0.44942 0.16747 0.0
C1260 C 0.05742 0.45192 0.16809 0.0
C1261 C 0.04237 0.46657 0.15489 0.0
C1262 C 0.1716 0.45921 0.15212 0.0
C1263 C 0.02811 0.43943 0.18272 0.0
C1264 C 0.11511 0.37017 0.19702 0.0
C1265 C 0.14695 0.40364 0.20767 0.0
C1266 C 0.09992 0.38456 0.18384 0.0
C1267 C 0.11631 0.4336 0.18131 0.0
C1268 C 0.14911 0.46758 0.19186 0.0
C1269 C 0.16396 0.45225 0.20489 0.0
C1270 C 0.06661 0.34731 0.17253 0.0
C1271 C 0.16766 0.52017 0.18964 0.0
H1272 H 0.1338 0.49013 0.13048 0.0
H1273 H 1.00946 0.4676 0.15523 0.0
H1274 H 0.16784 0.42711 0.15805 0.0
H1275 H 0.18052 0.45789 0.13978 0.0
H1276 H 0.20177 0.49096 0.15754 0.0
H1277 H 0.99669 0.44429 0.18146 0.0
H1278 H 0.01555 0.40186 0.18597 0.0
H1279 H 0.05043 0.46208 0.1924 0.0
H1280 H 0.10187 0.33257 0.19901 0.0
H1281 H 0.18805 0.47848 0.21312 0.0
H1282 H 0.08293 0.35514 0.16081 0.0
H1283 H 0.03295 0.34826 0.17168 0.0
H1284 H 0.058 0.31078 0.17593 0.0
H1285 H 0.17941 0.53107 0.17751 0.0
H1286 H 0.19808 0.54216 0.19742 0.0
H1287 H 0.13863 0.52801 0.19205 0.0
C1288 C 0.66259 0.7342 0.20772 0.0
C1289 C 0.6566 0.77402 0.20889 0.0
C1290 C 0.64591 0.70407 0.19479 0.0
C1291 C 0.62421 0.71499 0.18243 0.0
C1292 C 0.6184 0.75551 0.1835 0.0
C1293 C 0.6338 0.78404 0.19691 0.0
C1294 C 0.65127 0.66037 0.19441 0.0
C1295 C 0.5967 0.76912 0.17038 0.0
C1296 C 0.62918 0.66242 0.14359 0.0
C1297 C 0.58255 0.62432 0.14208 0.0
C1298 C 0.64264 0.69316 0.15638 0.0
C1299 C 0.6091 0.68464 0.16824 0.0
C1300 C 0.56195 0.6459 0.16683 0.0
C1301 C 0.54898 0.61674 0.15359 0.0
C1302 C 0.69281 0.73484 0.15718 0.0
C1303 C 0.52556 0.63466 0.17944 0.0
H1304 H 0.67928 0.72583 0.21716 0.0
H1305 H 0.62893 0.8147 0.19789 0.0
H1306 H 0.6162 0.62815 0.19228 0.0
H1307 H 0.67516 0.66326 0.18476 0.0
H1308 H 0.66609 0.6553 0.20539 0.0
H1309 H 0.59536 0.80205 0.17291 0.0
H1310 H 0.61767 0.77481 0.15963 0.0
H1311 H 0.56003 0.7398 0.16804 0.0
H1312 H 0.6549 0.66892 0.13452 0.0
H1313 H 0.51285 0.58736 0.15238 0.0
H1314 H 0.71173 0.73045 0.16719 0.0
H1315 H 0.69209 0.76839 0.159 0.0
H1316 H 0.71349 0.73851 0.1465 0.0
H1317 H 0.53853 0.62771 0.1905 0.0
H1318 H 0.49054 0.60314 0.17662 0.0
H1319 H 0.52043 0.66563 0.18139 0.0
C1320 C 1.01285 0.41061 0.86802 0.0
C1321 C 0.99232 0.43826 0.87216 0.0
C1322 C 0.99535 0.37879 0.85548 0.0
C1323 C 0.957 0.37519 0.84657 0.0
C1324 C 0.93707 0.40413 0.85036 0.0
C1325 C 0.95448 0.43478 0.86325 0.0
C1326 C 0.01716 0.34809 0.85202 0.0
C1327 C 0.89705 0.40238 0.84091 0.0
C1328 C 0.94436 0.32273 0.80627 0.0
C1329 C 0.907 0.27599 0.80833 0.0
C1330 C 0.95982 0.35577 0.81845 0.0
C1331 C 0.93826 0.34132 0.83323 0.0
C1332 C 0.90025 0.29394 0.83535 0.0
C1333 C 0.88461 0.26191 0.82278 0.0
C1334 C 0.99935 0.40613 0.81548 0.0
C1335 C 0.8766 0.27696 0.85094 0.0
H1336 H 0.0415 0.41233 0.87498 0.0
H1337 H 0.93826 0.45585 0.8664 0.0
H1338 H 0.98941 0.3099 0.85268 0.0
H1339 H 0.03168 0.35503 0.84007 0.0
H1340 H 0.04626 0.3546 0.8602 0.0
H1341 H 0.88778 0.42954 0.84467 0.0
H1342 H 0.907 0.40817 0.82847 0.0
H1343 H 0.86489 0.36664 0.84196 0.0
H1344 H 0.96126 0.33362 0.79502 0.0
H1345 H 0.85539 0.22581 0.82427 0.0
H1346 H 0.03104 0.41362 0.82248 0.0
H1347 H 0.98807 0.43186 0.8191 0.0
H1348 H 1.00991 0.41252 0.80308 0.0
H1349 H 0.90335 0.28071 0.85968 0.0
H1350 H 0.84757 0.23918 0.85069 0.0
H1351 H 0.86156 0.29934 0.85485 0.0
C1352 C 0.61166 0.60145 0.86492 0.0
C1353 C 0.6136 0.56994 0.87567 0.0
C1354 C 0.64148 0.61678 0.85181 0.0
C1355 C 0.67497 0.60131 0.8496 0.0
C1356 C 0.67685 0.56931 0.86038 0.0
C1357 C 0.64589 0.55367 0.87318 0.0
C1358 C 0.6369 0.6492 0.84022 0.0
C1359 C 0.71215 0.55218 0.85855 0.0
C1360 C 0.72606 0.60448 0.80964 0.0
C1361 C 0.76966 0.64728 0.81007 0.0
C1362 C 0.69429 0.58996 0.82218 0.0
C1363 C 0.70738 0.61772 0.83586 0.0
C1364 C 0.75183 0.66071 0.83646 0.0
C1365 C 0.78203 0.67554 0.82341 0.0
C1366 C 0.64696 0.54465 0.82062 0.0
C1367 C 0.76767 0.69073 0.85094 0.0
H1368 H 0.58679 0.61413 0.86676 0.0
H1369 H 0.64821 0.5299 0.88154 0.0
H1370 H 0.6711 0.68321 0.83927 0.0
H1371 H 0.62879 0.63233 0.8286 0.0
H1372 H 0.60847 0.65725 0.84343 0.0
H1373 H 0.70963 0.52803 0.8681 0.0
H1374 H 0.70596 0.53296 0.8474 0.0
H1375 H 0.7489 0.58311 0.85825 0.0
H1376 H 0.71602 0.58281 0.79924 0.0
H1377 H 0.81568 0.70871 0.82373 0.0
H1378 H 0.61843 0.5461 0.82727 0.0
H1379 H 0.65034 0.51432 0.82507 0.0
H1380 H 0.63582 0.53745 0.8083 0.0
H1381 H 0.742 0.70271 0.85387 0.0
H1382 H 0.80363 0.72258 0.84967 0.0
H1383 H 0.76824 0.66911 0.86084 0.0
C1384 C 0.41911 0.1574 0.81565 0.0
C1385 C 0.40247 0.12969 0.80223 0.0
C1386 C 0.4347 0.14171 0.82843 0.0
C1387 C 0.43532 0.09826 0.82747 0.0
C1388 C 0.42041 0.07136 0.81362 0.0
C1389 C 0.40336 0.08697 0.80129 0.0
C1390 C 0.44934 0.17097 0.84308 0.0
C1391 C 0.42216 0.0259 0.81184 0.0
C1392 C 0.5106 0.07825 0.85728 0.0
C1393 C 0.4759 0.04727 0.86782 0.0
C1394 C 0.49788 0.09412 0.84388 0.0
C1395 C 0.44945 0.07983 0.84117 0.0
C1396 C 0.41426 0.04808 0.85168 0.0
C1397 C 0.42783 0.03172 0.86473 0.0
C1398 C 0.53628 0.12646 0.83267 0.0
C1399 C 0.36234 0.03266 0.84943 0.0
H1400 H 0.41862 0.19057 0.81629 0.0
H1401 H 0.3913 0.06606 0.79076 0.0
H1402 H 0.42618 0.14941 0.85282 0.0
H1403 H 0.48641 0.18114 0.84619 0.0
H1404 H 0.44696 0.20388 0.84195 0.0
H1405 H 0.41324 0.01145 0.79988 0.0
H1406 H 0.45818 0.03223 0.81478 0.0
H1407 H 0.39667 0.99853 0.81998 0.0
H1408 H 0.5478 0.09044 0.8596 0.0
H1409 H 0.40081 1.00844 0.87292 0.0
H1410 H 0.53763 0.1613 0.83192 0.0
H1411 H 0.52789 0.11057 0.82092 0.0
H1412 H 0.57201 0.13278 0.8361 0.0
H1413 H 0.35775 0.0644 0.84926 0.0
H1414 H 0.33941 1.00814 0.85871 0.0
H1415 H 0.34974 0.01451 0.8381 0.0
C1416 C 0.96332 0.22745 0.53093 0.0
C1417 C 0.96933 0.25847 0.54311 0.0
C1418 C 0.99459 0.24316 0.51815 0.0
C1419 C 0.03388 0.29036 0.51791 0.0
C1420 C 0.04093 0.3211 0.53052 0.0
C1421 C 1.00814 0.30506 0.54281 0.0
C1422 C 0.98499 0.20966 0.50475 0.0
C1423 C 0.08314 0.37102 0.53104 0.0
C1424 C 0.13495 0.31819 0.48948 0.0
C1425 C 0.12587 0.34244 0.4777 0.0
C1426 C 0.10606 0.30197 0.50283 0.0
C1427 C 0.06609 0.30856 0.50413 0.0
C1428 C 0.05683 0.33295 0.49222 0.0
C1429 C 0.0872 0.35021 0.47932 0.0
C1430 C 0.11821 0.27777 0.51553 0.0
C1431 C 0.01395 0.33963 0.49288 0.0
H1432 H 0.93353 0.19131 0.53123 0.0
H1433 H 1.01353 0.32874 0.55242 0.0
H1434 H 0.9797 0.22525 0.49399 0.0
H1435 H 0.01606 0.20473 0.5028 0.0
H1436 H 0.953 0.17419 0.50671 0.0
H1437 H 0.08562 0.38903 0.54223 0.0
H1438 H 0.1166 0.37017 0.52923 0.0
H1439 H 0.08049 0.3927 0.52155 0.0
H1440 H 0.16462 0.31185 0.48824 0.0
H1441 H 0.07924 0.36797 0.47011 0.0
H1442 H 0.08861 0.24073 0.51716 0.0
H1443 H 0.12279 0.29672 0.52665 0.0
H1444 H 0.15131 0.27677 0.51302 0.0
H1445 H 0.98099 0.30446 0.4939 0.0
H1446 H 1.01098 0.35817 0.48247 0.0
H1447 H 0.0159 0.36061 0.50327 0.0
C1448 C 0.76715 0.84571 0.48794 0.0
C1449 C 0.7454 0.81336 0.47579 0.0
C1450 C 0.78263 0.8325 0.50135 0.0
C1451 C 0.77804 0.78663 0.50225 0.0
C1452 C 0.75758 0.75461 0.48971 0.0
C1453 C 0.7407 0.76803 0.47679 0.0
C1454 C 0.80284 0.86711 0.51467 0.0
C1455 C 0.75352 0.70609 0.48991 0.0
C1456 C 0.85217 0.76405 0.53184 0.0
C1457 C 0.81783 0.73714 0.54305 0.0
C1458 C 0.8398 0.78028 0.51843 0.0
C1459 C 0.79245 0.77099 0.51655 0.0
C1460 C 0.75807 0.74491 0.52808 0.0
C1461 C 0.77098 0.72766 0.54104 0.0
C1462 C 0.87714 0.80665 0.50618 0.0
C1463 C 0.7076 0.73542 0.5268 0.0
H1464 H 0.77098 0.88085 0.48711 0.0
H1465 H 0.72475 0.74333 0.46724 0.0
H1466 H 0.78091 0.85107 0.52521 0.0
H1467 H 0.8394 0.87469 0.51738 0.0
H1468 H 0.80398 0.90132 0.51217 0.0
H1469 H 0.7401 0.68693 0.47875 0.0
H1470 H 0.78876 0.70966 0.49237 0.0
H1471 H 0.72895 0.68402 0.49929 0.0
H1472 H 0.88847 0.77166 0.53344 0.0
H1473 H 0.74459 0.70782 0.54987 0.0
H1474 H 0.88197 0.84272 0.50441 0.0
H1475 H 0.86528 0.78758 0.49496 0.0
H1476 H 0.91208 0.81031 0.50926 0.0
H1477 H 0.70767 0.76941 0.52507 0.0
H1478 H 0.68605 0.71735 0.53725 0.0
H1479 H 0.68999 0.71269 0.51657 0.0
C1480 C 0.31092 1.00148 0.47061 0.0
C1481 C 0.26479 0.96193 0.47027 0.0
C1482 C 0.32624 0.03387 0.48297 0.0
C1483 C 0.29542 0.02544 0.49569 0.0
C1484 C 0.2489 0.98508 0.49551 0.0
C1485 C 0.23374 0.95438 0.4826 0.0
C1486 C 0.37527 0.07742 0.48233 0.0
C1487 C 0.21543 0.97395 0.50903 0.0
C1488 C 0.35466 0.08084 0.53411 0.0
C1489 C 0.34452 0.11795 0.53572 0.0
C1490 C 0.33838 0.05025 0.52126 0.0
C1491 C 0.31267 0.05785 0.50941 0.0
C1492 C 0.30382 0.0964 0.51068 0.0
C1493 C 0.31896 0.12538 0.524 0.0
C1494 C 0.34747 1.00887 0.52061 0.0
C1495 C 0.27816 0.10686 0.49803 0.0
H1496 H 0.33465 1.00797 0.4609 0.0
H1497 H 0.19795 0.924 0.48228 0.0
H1498 H 0.37274 0.11005 0.48399 0.0
H1499 H 0.39756 0.07616 0.49186 0.0
H1500 H 0.39356 0.08044 0.47116 0.0
H1501 H 0.18097 0.94059 0.50727 0.0
H1502 H 0.23221 0.97031 0.51977 0.0
H1503 H 0.20826 1.00365 0.51089 0.0
H1504 H 0.37349 0.07424 0.54329 0.0
H1505 H 0.31082 0.15385 0.52525 0.0
H1506 H 0.36869 0.01178 0.51016 0.0
H1507 H 0.31315 0.97493 0.51968 0.0
H1508 H 0.36678 1.00705 0.53098 0.0
H1509 H 0.29584 0.11026 0.48671 0.0
H1510 H 0.27712 0.14009 0.50025 0.0
H1511 H 0.24109 0.07691 0.497 0.0
C1512 C 0.47769 0.37845 0.1083 0.0
C1513 C 0.51498 0.42306 0.10375 0.0
C1514 C 0.48166 0.33742 0.10705 0.0
C1515 C 0.52346 0.34083 0.10062 0.0
C1516 C 0.56164 0.38608 0.09619 0.0
C1517 C 0.55701 0.42681 0.09792 0.0
C1518 C 0.44055 0.2902 0.11228 0.0
C1519 C 0.60639 0.39121 0.08899 0.0
C1520 C 0.54028 0.23428 0.1078 0.0
C1521 C 0.51803 0.20609 0.09476 0.0
C1522 C 0.54389 0.27907 0.10964 0.0
C1523 C 0.52573 0.29649 0.09799 0.0
C1524 C 0.50545 0.26911 0.08442 0.0
C1525 C 0.5013 0.22393 0.08306 0.0
C1526 C 0.56499 0.30663 0.12438 0.0
C1527 C 0.48676 0.28688 0.07155 0.0
H1528 H 0.44508 0.3756 0.11274 0.0
H1529 H 0.58518 0.46106 0.09395 0.0
H1530 H 0.42467 0.26638 0.10215 0.0
H1531 H 0.45331 0.27238 0.12039 0.0
H1532 H 0.41223 0.29423 0.11812 0.0
H1533 H 0.63428 0.42914 0.08744 0.0
H1534 H 0.62107 0.37325 0.09622 0.0
H1535 H 0.59783 0.37361 0.07749 0.0
H1536 H 0.55341 0.22059 0.11685 0.0
H1537 H 0.48455 0.20239 0.0729 0.0
H1538 H 0.53679 0.30837 0.13115 0.0
H1539 H 0.59276 0.34378 0.1217 0.0
H1540 H 0.58094 0.29005 0.13173 0.0
H1541 H 0.45475 0.28776 0.07561 0.0
H1542 H 0.47699 0.26393 0.0611 0.0
H1543 H 0.51381 0.32378 0.06825 0.0
C1544 C 0.66939 0.13097 0.08586 0.0
C1545 C 0.63226 0.11913 0.0964 0.0
C1546 C 0.71059 0.17597 0.08609 0.0
C1547 C 0.71518 0.20986 0.09731 0.0
C1548 C 0.67709 0.19859 0.10771 0.0
C1549 C 0.63593 0.15324 0.10711 0.0
C1550 C 0.74988 0.18665 0.07462 0.0
C1551 C 0.6806 0.23358 0.11988 0.0
C1552 C 0.84379 0.29724 0.10768 0.0
C1553 C 0.85295 0.33726 0.09886 0.0
C1554 C 0.79842 0.25639 0.10783 0.0
C1555 C 0.7614 0.25531 0.09879 0.0
C1556 C 0.77014 0.29624 0.09021 0.0
C1557 C 0.81584 0.33687 0.0904 0.0
C1558 C 0.79052 0.21382 0.11731 0.0
C1559 C 0.73177 0.2965 0.08038 0.0
H1560 H 0.66642 0.1047 0.07749 0.0
H1561 H 0.60752 0.14386 0.11542 0.0
H1562 H 0.76046 0.22065 0.0685 0.0
H1563 H 0.78172 0.1909 0.08084 0.0
H1564 H 0.73918 0.15797 0.06587 0.0
H1565 H 0.64594 0.22188 0.12573 0.0
H1566 H 0.70707 0.23749 0.12875 0.0
H1567 H 0.69318 0.26925 0.11469 0.0
H1568 H 0.8723 0.29762 0.11435 0.0
H1569 H 0.82277 0.36797 0.08367 0.0
H1570 H 0.7835 0.18385 0.10949 0.0
H1571 H 0.75883 0.2017 0.12486 0.0
H1572 H 0.8217 0.22174 0.12468 0.0
H1573 H 0.72303 0.27132 0.07059 0.0
H1574 H 0.74284 0.33242 0.0756 0.0
H1575 H 0.69872 0.28424 0.08724 0.0
C1576 C 0.73566 0.52924 0.08727 0.0
C1577 C 0.71739 0.53886 0.1006 0.0
C1578 C 0.77626 0.52421 0.08805 0.0
C1579 C 0.80022 0.5311 0.10238 0.0
C1580 C 0.78114 0.53988 0.11593 0.0
C1581 C 0.73936 0.54269 0.11491 0.0
C1582 C 0.79434 0.51299 0.07345 0.0
C1583 C 0.80637 0.54919 0.13132 0.0
C1584 C 0.89951 0.50105 0.10712 0.0
C1585 C 0.93941 0.54406 0.10265 0.0
C1586 C 0.85359 0.49563 0.10677 0.0
C1587 C 0.8481 0.53515 0.10281 0.0
C1588 C 0.88879 0.57938 0.09917 0.0
C1589 C 0.93365 0.58294 0.09882 0.0
C1590 C 0.81098 0.44739 0.11014 0.0
C1591 C 0.88504 0.62304 0.09554 0.0
H1592 H 0.71812 0.52551 0.07624 0.0
H1593 H 0.72511 0.55014 0.12522 0.0
H1594 H 0.82767 0.54495 0.06963 0.0
H1595 H 0.8028 0.48426 0.07566 0.0
H1596 H 0.76807 0.50176 0.06386 0.0
H1597 H 0.78527 0.5523 0.14092 0.0
H1598 H 0.81401 0.52028 0.13414 0.0
H1599 H 0.84106 0.58283 0.13063 0.0
H1600 H 0.90403 0.47151 0.11062 0.0
H1601 H 0.96447 0.61657 0.09558 0.0
H1602 H 0.78774 0.4345 0.09976 0.0
H1603 H 0.7895 0.44995 0.11968 0.0
H1604 H 0.82136 0.42056 0.11332 0.0
H1605 H 0.86472 0.61743 0.08466 0.0
H1606 H 0.92048 0.65554 0.09417 0.0
H1607 H 0.86541 0.62938 0.1049 0.0
C1608 C 0.41805 0.53613 0.90721 0.0
C1609 C 0.42515 0.51096 0.91913 0.0
C1610 C 0.37666 0.53995 0.90678 0.0
C1611 C 0.34221 0.51885 0.91872 0.0
C1612 C 0.35083 0.49581 0.93123 0.0
C1613 C 0.39183 0.49157 0.93116 0.0
C1614 C 0.36863 0.56426 0.89314 0.0
C1615 C 0.31586 0.47405 0.94444 0.0
C1616 C 0.24217 0.5475 0.92359 0.0
C1617 C 0.20326 0.50622 0.91758 0.0
C1618 C 0.28803 0.55282 0.92377 0.0
C1619 C 0.2951 0.51639 0.91749 0.0
C1620 C 0.25607 0.47552 0.91089 0.0
C1621 C 0.21059 0.47069 0.9112 0.0
C1622 C 0.32842 0.59653 0.93116 0.0
C1623 C 0.26217 0.43637 0.90373 0.0
H1624 H 0.44378 0.55095 0.89787 0.0
H1625 H 0.39763 0.47257 0.94049 0.0
H1626 H 0.33901 0.53728 0.88597 0.0
H1627 H 0.35808 0.59022 0.89711 0.0
H1628 H 0.40084 0.58317 0.88573 0.0
H1629 H 0.33037 0.4624 0.95409 0.0
H1630 H 0.30603 0.5 0.949 0.0
H1631 H 0.28276 0.44265 0.94021 0.0
H1632 H 0.23655 0.57511 0.92849 0.0
H1633 H 0.18064 0.43899 0.90638 0.0
H1634 H 0.35962 0.61331 0.92329 0.0
H1635 H 0.3399 0.58604 0.94185 0.0
H1636 H 0.31808 0.62344 0.93424 0.0
H1637 H 0.29152 0.45156 0.89512 0.0
H1638 H 0.22923 0.40902 0.89791 0.0
H1639 H 0.27195 0.41856 0.91283 0.0
C1640 C 0.56685 0.91567 0.90099 0.0
C1641 C 0.54076 0.92899 0.91059 0.0
C1642 C 0.56309 0.87081 0.90249 0.0
C1643 C 0.53326 0.839 0.91413 0.0
C1644 C 0.5061 0.85205 0.92368 0.0
C1645 C 0.51036 0.89712 0.92182 0.0
C1646 C 0.59222 0.85807 0.89195 0.0
C1647 C 0.47428 0.8194 0.93631 0.0
C1648 C 0.50522 0.7106 0.91074 0.0
C1649 C 0.54113 0.71117 0.91995 0.0
C1650 C 0.50114 0.75156 0.9091 0.0
C1651 C 0.53354 0.79382 0.91695 0.0
C1652 C 0.5686 0.79386 0.92677 0.0
C1653 C 0.57212 0.75255 0.92808 0.0
C1654 C 0.46336 0.7501 0.89851 0.0
C1655 C 0.60333 0.83799 0.93555 0.0
H1656 H 0.59071 0.94069 0.8924 0.0
H1657 H 0.49187 0.90835 0.9297 0.0
H1658 H 0.61937 0.85481 0.89883 0.0
H1659 H 0.56909 0.82306 0.88639 0.0
H1660 H 0.6107 0.88517 0.88274 0.0
H1661 H 0.45248 0.83309 0.94181 0.0
H1662 H 0.45005 0.78337 0.93161 0.0
H1663 H 0.49637 0.8155 0.94538 0.0
H1664 H 0.48104 0.67846 0.90449 0.0
H1665 H 0.59967 0.75289 0.93529 0.0
H1666 H 0.48056 0.77383 0.88842 0.0
H1667 H 0.44227 0.7635 0.90462 0.0
H1668 H 0.43871 0.71358 0.8942 0.0
H1669 H 0.62682 0.86621 0.92726 0.0
H1670 H 0.62598 0.83109 0.94359 0.0
H1671 H 0.5839 0.85202 0.94232 0.0
C1672 C 0.33801 0.80803 0.91862 0.0
C1673 C 0.33522 0.84698 0.91277 0.0
C1674 C 0.29843 0.76174 0.91816 0.0
C1675 C 0.25538 0.75426 0.91144 0.0
C1676 C 0.25319 0.79332 0.90491 0.0
C1677 C 0.293 0.83931 0.90581 0.0
C1678 C 0.30208 0.72134 0.92551 0.0
C1679 C 0.20829 0.78676 0.89735 0.0
C1680 C 0.15357 0.63027 0.90139 0.0
C1681 C 0.12122 0.62337 0.91323 0.0
C1682 C 0.19837 0.67219 0.90084 0.0
C1683 C 0.21113 0.70696 0.91263 0.0
C1684 C 0.17955 0.69824 0.92514 0.0
C1685 C 0.13475 0.65694 0.92514 0.0
C1686 C 0.23079 0.68047 0.88723 0.0
C1687 C 0.19221 0.73348 0.93821 0.0
H1688 H 0.3708 0.81392 0.92396 0.0
H1689 H 0.29101 0.86933 0.90111 0.0
H1690 H 0.28005 0.70949 0.93618 0.0
H1691 H 0.28805 0.69028 0.91761 0.0
H1692 H 0.33933 0.73195 0.92864 0.0
H1693 H 0.21394 0.8196 0.89139 0.0
H1694 H 0.19487 0.75733 0.8888 0.0
H1695 H 0.18018 0.77683 0.90625 0.0
H1696 H 0.1429 0.60422 0.89217 0.0
H1697 H 0.1098 0.65121 0.93439 0.0
H1698 H 0.26745 0.69187 0.89122 0.0
H1699 H 0.23272 0.70962 0.87993 0.0
H1700 H 0.21805 0.64811 0.87995 0.0
H1701 H 0.22796 0.74377 0.94287 0.0
H1702 H 0.16599 0.71897 0.94785 0.0
H1703 H 0.19356 0.76634 0.93383 0.0
C1704 C 0.22841 0.76279 0.42841 0.0
C1705 C 0.19357 0.76549 0.43724 0.0
C1706 C 0.23029 0.72032 0.42775 0.0
C1707 C 0.19647 0.6797 0.43612 0.0
C1708 C 0.16251 0.68309 0.44555 0.0
C1709 C 0.16121 0.72577 0.44587 0.0
C1710 C 0.26685 0.71828 0.41745 0.0
C1711 C 0.12634 0.64105 0.45489 0.0
C1712 C 0.15844 0.55429 0.4221 0.0
C1713 C 0.18369 0.54077 0.43208 0.0
C1714 C 0.16354 0.59996 0.42297 0.0
C1715 C 0.19413 0.63271 0.43426 0.0
C1716 C 0.22024 0.61939 0.44423 0.0
C1717 C 0.21492 0.57367 0.44296 0.0
C1718 C 0.13561 0.61291 0.41194 0.0
C1719 C 0.2529 0.653 0.45649 0.0
H1720 H 0.25257 0.793 0.42137 0.0
H1721 H 0.13411 0.72779 0.45265 0.0
H1722 H 0.28517 0.70208 0.4237 0.0
H1723 H 0.24878 0.69543 0.40728 0.0
H1724 H 0.29402 0.75415 0.41324 0.0
H1725 H 0.10507 0.65066 0.46263 0.0
H1726 H 0.10164 0.61241 0.44695 0.0
H1727 H 0.14437 0.62626 0.46204 0.0
H1728 H 0.13457 0.5291 0.4136 0.0
H1729 H 0.23466 0.56339 0.45067 0.0
H1730 H 0.15992 0.6465 0.40577 0.0
H1731 H 0.10983 0.61913 0.41853 0.0
H1732 H 0.1157 0.58459 0.40323 0.0
H1733 H 0.27914 0.68747 0.45118 0.0
H1734 H 0.27248 0.63818 0.46281 0.0
H1735 H 0.23183 0.66059 0.46497 0.0
C1736 C 0.51836 0.6341 0.42382 0.0
C1737 C 0.52984 0.67522 0.43231 0.0
C1738 C 0.4728 0.59371 0.42483 0.0
C1739 C 0.43801 0.59464 0.43454 0.0
C1740 C 0.44909 0.63668 0.44277 0.0
C1741 C 0.49498 0.6765 0.44157 0.0
C1742 C 0.46223 0.54964 0.41578 0.0
C1743 C 0.41292 0.63921 0.45315 0.0
C1744 C 0.31001 0.4972 0.42784 0.0
C1745 C 0.30508 0.46314 0.43884 0.0
C1746 C 0.35258 0.54098 0.42662 0.0
C1747 C 0.39098 0.55075 0.43664 0.0
C1748 C 0.38533 0.51724 0.4482 0.0
C1749 C 0.34241 0.47379 0.44916 0.0
C1750 C 0.35709 0.57591 0.41422 0.0
C1751 C 0.42525 0.52653 0.45922 0.0
H1752 H 0.54525 0.63319 0.4166 0.0
H1753 H 0.50372 0.70851 0.44805 0.0
H1754 H 0.45444 0.52001 0.42389 0.0
H1755 H 0.43016 0.53818 0.40848 0.0
H1756 H 0.49237 0.55546 0.4082 0.0
H1757 H 0.426 0.6756 0.45783 0.0
H1758 H 0.37935 0.62807 0.44673 0.0
H1759 H 0.40427 0.6142 0.46302 0.0
H1760 H 0.28114 0.48905 0.41985 0.0
H1761 H 0.33855 0.44758 0.45772 0.0
H1762 H 0.38332 0.57888 0.40539 0.0
H1763 H 0.3705 0.61187 0.41925 0.0
H1764 H 0.32264 0.56492 0.40834 0.0
H1765 H 0.45569 0.52874 0.45264 0.0
H1766 H 0.41416 0.49817 0.46814 0.0
H1767 H 0.43813 0.5612 0.46514 0.0
C1768 C 0.57581 0.837 0.42779 0.0
C1769 C 0.61324 0.87608 0.43524 0.0
C1770 C 0.53083 0.83323 0.4264 0.0
C1771 C 0.52359 0.86972 0.43253 0.0
C1772 C 0.56114 0.9085 0.44048 0.0
C1773 C 0.60567 0.91144 0.44157 0.0
C1774 C 0.49197 0.79154 0.41771 0.0
C1775 C 0.55478 0.94777 0.4474 0.0
C1776 C 0.43316 0.8994 0.41578 0.0
C1777 C 0.39684 0.87952 0.42687 0.0
C1778 C 0.47361 0.89434 0.41707 0.0
C1779 C 0.47803 0.86939 0.42988 0.0
C1780 C 0.44061 0.84787 0.44083 0.0
C1781 C 0.4003 0.85297 0.43913 0.0
C1782 C 0.51234 0.91703 0.40499 0.0
C1783 C 0.44403 0.82119 0.45467 0.0
H1784 H 0.58235 0.81081 0.42229 0.0
H1785 H 0.63499 0.94196 0.44716 0.0
H1786 H 0.45796 0.77573 0.42424 0.0
H1787 H 0.48596 0.80408 0.40642 0.0
H1788 H 0.50119 0.76331 0.41551 0.0
H1789 H 0.5863 0.97342 0.45421 0.0
H1790 H 0.54866 0.96758 0.43803 0.0
H1791 H 0.52305 0.93245 0.45506 0.0
H1792 H 0.43031 0.91954 0.40621 0.0
H1793 H 0.37206 0.83729 0.44768 0.0
H1794 H 0.52186 0.89071 0.40059 0.0
H1795 H 0.54483 0.94667 0.41027 0.0
H1796 H 0.5016 0.93137 0.39504 0.0
H1797 H 0.4531 0.79393 0.45093 0.0
H1798 H 0.41036 0.80334 0.46143 0.0
H1799 H 0.47304 0.84635 0.46241 0.0
C1800 C 0.8817 0.81806 0.26109 0.0
C1801 C 0.8707 0.84805 0.25254 0.0
C1802 C 0.92642 0.82139 0.25971 0.0
C1803 C 0.96075 0.85529 0.24942 0.0
C1804 C 0.95026 0.88666 0.24111 0.0
C1805 C 0.90533 0.88273 0.24281 0.0
C1806 C 0.93645 0.78774 0.26894 0.0
C1807 C 0.98585 0.92324 0.23005 0.0
C1808 C 0.08778 0.88006 0.2542 0.0
C1809 C 0.08923 0.8488 0.24333 0.0
C1810 C 0.0468 0.88404 0.25595 0.0
C1811 C 1.00628 0.85559 0.24669 0.0
C1812 C 1.00814 0.82476 0.23543 0.0
C1813 C 0.04949 0.82141 0.23401 0.0
C1814 C 0.04617 0.91703 0.26816 0.0
C1815 C 0.96591 0.79416 0.22523 0.0
H1816 H 0.85505 0.79143 0.26869 0.0
H1817 H 0.89694 0.90615 0.23624 0.0
H1818 H 0.9411 0.76354 0.26097 0.0
H1819 H 0.97009 0.80803 0.27554 0.0
H1820 H 0.90731 0.76576 0.2772 0.0
H1821 H 0.97352 0.94717 0.22533 0.0
H1822 H 0.02054 0.94527 0.23592 0.0
H1823 H 0.99209 0.90492 0.22024 0.0
H1824 H 0.11767 0.89945 0.26193 0.0
H1825 H 0.05056 0.79681 0.22573 0.0
H1826 H 0.02046 0.89578 0.27741 0.0
H1827 H 0.03416 0.94073 0.26309 0.0
H1828 H 0.08173 0.93943 0.27351 0.0
H1829 H 0.93598 0.7677 0.23243 0.0
H1830 H 0.97431 0.77473 0.21632 0.0
H1831 H 0.95353 0.81644 0.21931 0.0
C1832 C 0.24732 0.09735 0.23744 0.0
C1833 C 0.21316 0.05549 0.24471 0.0
C1834 C 0.24185 0.13769 0.2368 0.0
C1835 C 0.20179 0.13638 0.24391 0.0
C1836 C 0.16649 0.09365 0.2509 0.0
C1837 C 0.17243 0.05354 0.25109 0.0
C1838 C 0.27978 0.18223 0.22894 0.0
C1839 C 0.1237 0.09091 0.25886 0.0
C1840 C 0.22766 0.25724 0.25837 0.0
C1841 C 0.20624 0.27116 0.24701 0.0
C1842 C 0.2242 0.21242 0.2579 0.0
C1843 C 0.19985 0.18119 0.24547 0.0
C1844 C 0.17675 0.19446 0.23419 0.0
C1845 C 0.17971 0.23928 0.23521 0.0
C1846 C 0.24801 0.19919 0.27045 0.0
C1847 C 0.151 0.16243 0.22067 0.0
H1848 H 0.27854 0.0987 0.23234 0.0
H1849 H 0.14584 0.02105 0.25668 0.0
H1850 H 0.26329 0.19622 0.22075 0.0
H1851 H 0.29946 0.21024 0.23773 0.0
H1852 H 0.30574 0.17585 0.22249 0.0
H1853 H 0.09697 0.05383 0.26217 0.0
H1854 H 0.13539 0.11302 0.26951 0.0
H1855 H 0.1063 0.10543 0.2513 0.0
H1856 H 0.24768 0.28177 0.26762 0.0
H1857 H 0.1632 0.2502 0.22643 0.0
H1858 H 0.27847 0.19708 0.26549 0.0
H1859 H 0.22272 0.1636 0.2753 0.0
H1860 H 0.26145 0.22548 0.28006 0.0
H1861 H 0.17714 0.15975 0.21305 0.0
H1862 H 0.13141 0.17594 0.2137 0.0
H1863 H 0.12547 0.12591 0.22475 0.0
C1864 C 0.8208 0.97038 0.23961 0.0
C1865 C 0.78825 0.96455 0.25126 0.0
C1866 C 0.86636 0.01123 0.23919 0.0
C1867 C 0.87958 0.04647 0.25083 0.0
C1868 C 0.84758 0.03912 0.2631 0.0
C1869 C 0.80212 0.99856 0.26304 0.0
C1870 C 0.89919 0.01785 0.22585 0.0
C1871 C 0.86061 0.07506 0.27597 0.0
C1872 C 1.00771 0.14643 0.25622 0.0
C1873 C 1.00577 0.18513 0.24973 0.0
C1874 C 0.96732 0.10053 0.25628 0.0
C1875 C 0.92442 0.09326 0.24946 0.0
C1876 C 0.92314 0.13201 0.24231 0.0
C1877 C 0.96366 0.17753 0.24269 0.0
C1878 C 0.97003 0.06037 0.2642 0.0
C1879 C 0.87852 0.12567 0.2346 0.0
H1880 H 0.8099 0.94415 0.23045 0.0
H1881 H 0.77706 0.99372 0.27216 0.0
H1882 H 0.90203 0.04667 0.21817 0.0
H1883 H 0.93552 0.02886 0.2301 0.0
H1884 H 0.88619 0.98485 0.21888 0.0
H1885 H 0.83404 0.0615 0.28551 0.0
H1886 H 0.89601 0.08474 0.28081 0.0
H1887 H 0.86298 0.10811 0.2713 0.0
H1888 H 0.04038 0.15228 0.26162 0.0
H1889 H 0.96227 0.20733 0.23751 0.0
H1890 H 0.95526 0.02847 0.25665 0.0
H1891 H 0.94813 0.05008 0.27491 0.0
H1892 H 1.00712 0.07052 0.26739 0.0
H1893 H 0.86474 0.09569 0.22624 0.0
H1894 H 0.88467 0.15828 0.22835 0.0
H1895 H 0.85044 0.11671 0.24344 0.0
C1896 C 0.81681 0.87245 0.77714 0.0
C1897 C 0.8462 0.86313 0.76763 0.0
C1898 C 0.82195 0.91806 0.77778 0.0
C1899 C 0.85705 0.95522 0.76856 0.0
C1900 C 0.88798 0.9464 0.75932 0.0
C1901 C 0.88224 0.90037 0.759 0.0
C1902 C 0.78863 0.92601 0.78794 0.0
C1903 C 0.92576 0.98495 0.74929 0.0
C1904 C 0.82115 0.04577 0.75713 0.0
C1905 C 0.84667 0.08266 0.7677 0.0
C1906 C 0.82639 1.00541 0.75674 0.0
C1907 C 0.85738 1.00133 0.76738 0.0
C1908 C 0.88478 0.0394 0.77771 0.0
C1909 C 0.87924 0.07988 0.7777 0.0
C1910 C 0.79721 0.96624 0.74532 0.0
C1911 C 0.91818 0.03643 0.78923 0.0
H1912 H 0.78929 0.84386 0.78398 0.0
H1913 H 0.90532 0.89331 0.75175 0.0
H1914 H 0.80914 0.95775 0.79538 0.0
H1915 H 0.76466 0.93297 0.7806 0.0
H1916 H 0.7664 0.89482 0.79548 0.0
H1917 H 0.95083 0.9743 0.74445 0.0
H1918 H 0.90851 0.99288 0.73953 0.0
H1919 H 0.94636 0.01837 0.75597 0.0
H1920 H 0.79638 0.04815 0.74924 0.0
H1921 H 0.89906 0.10848 0.78586 0.0
H1922 H 0.7704 0.93412 0.75164 0.0
H1923 H 0.82035 0.95612 0.73881 0.0
H1924 H 0.77828 0.97685 0.73688 0.0
H1925 H 0.89714 0.00952 0.79822 0.0
H1926 H 0.94124 0.07111 0.79503 0.0
H1927 H 0.94114 0.02465 0.78348 0.0
C1928 C 0.16305 0.9813 0.77875 0.0
C1929 C 0.17971 0.99936 0.76389 0.0
C1930 C 0.11901 0.93953 0.78087 0.0
C1931 C 0.09008 0.91646 0.76784 0.0
C1932 C 0.10556 0.93648 0.75288 0.0
C1933 C 0.15078 0.97711 0.75104 0.0
C1934 C 0.10486 0.91858 0.79693 0.0
C1935 C 0.07495 0.91416 0.73877 0.0
C1936 C 1.01009 0.78223 0.76792 0.0
C1937 C 0.96548 0.77668 0.77161 0.0
C1938 C 0.0509 0.82739 0.76721 0.0
C1939 C 0.04688 0.86846 0.76958 0.0
C1940 C 1.00199 0.86318 0.77353 0.0
C1941 C 0.96204 0.81712 0.77498 0.0
C1942 C 0.09832 0.83102 0.76376 0.0
C1943 C 0.99567 0.90596 0.77558 0.0
H1944 H 0.18554 0.9986 0.7887 0.0
H1945 H 0.16344 0.99157 0.73956 0.0
H1946 H 0.06854 0.91144 0.7998 0.0
H1947 H 0.10411 0.88396 0.79737 0.0
H1948 H 0.12987 0.94236 0.80595 0.0
H1949 H 0.08878 0.93771 0.72844 0.0
H1950 H 0.07366 0.88008 0.73606 0.0
H1951 H 0.03791 0.90595 0.74103 0.0
H1952 H 1.01323 0.75105 0.76557 0.0
H1953 H 0.92809 0.81287 0.77843 0.0
H1954 H 0.12504 0.8536 0.77257 0.0
H1955 H 0.11162 0.84818 0.75232 0.0
H1956 H 0.09599 0.79562 0.76361 0.0
H1957 H 0.02305 0.9323 0.7835 0.0
H1958 H 0.95985 0.89601 0.78016 0.0
H1959 H 1.00036 0.92385 0.76421 0.0
C1960 C 0.2318 0.1673 0.77505 0.0
C1961 C 0.2652 0.19656 0.76395 0.0
C1962 C 0.18613 0.16242 0.77555 0.0
C1963 C 0.17355 0.18668 0.76449 0.0
C1964 C 0.20646 0.21399 0.75273 0.0
C1965 C 0.25206 0.21912 0.75275 0.0
C1966 C 0.15243 0.13353 0.7884 0.0
C1967 C 0.19422 0.23938 0.74045 0.0
C1968 C 0.04535 0.15851 0.7588 0.0
C1969 C 0.04625 0.19749 0.76616 0.0
C1970 C 0.08609 0.15351 0.7585 0.0
C1971 C 0.12828 0.18788 0.766 0.0
C1972 C 0.12846 0.22611 0.77402 0.0
C1973 C 0.08766 0.2307 0.77385 0.0
C1974 C 0.08453 0.11263 0.74964 0.0
C1975 C 0.17225 0.26299 0.78245 0.0
H1976 H 0.24212 0.15012 0.78379 0.0
H1977 H 0.27776 0.24133 0.74404 0.0
H1978 H 0.14898 0.15787 0.79666 0.0
H1979 H 0.11642 0.10909 0.78374 0.0
H1980 H 0.16506 0.11224 0.79486 0.0
H1981 H 0.22156 0.25453 0.73115 0.0
H1982 H 0.1593 0.21459 0.73512 0.0
H1983 H 0.19117 0.26885 0.74581 0.0
H1984 H 1.01324 0.13266 0.75289 0.0
H1985 H 0.08827 0.26059 0.77971 0.0
H1986 H 0.0987 0.09405 0.7568 0.0
H1987 H 0.10754 0.12664 0.73923 0.0
H1988 H 0.04787 0.08632 0.74587 0.0
H1989 H 0.18569 0.24535 0.79038 0.0
H1990 H 0.16521 0.28783 0.78931 0.0
H1991 H 0.20093 0.28412 0.77398 0.0
C1992 C 0.55073 0.14257 0.57426 0.0
C1993 C 0.54274 0.17643 0.58161 0.0
C1994 C 0.59656 0.14816 0.57369 0.0
C1995 C 0.63503 0.18798 0.58098 0.0
C1996 C 0.62716 0.22266 0.58822 0.0
C1997 C 0.58115 0.21669 0.5883 0.0
C1998 C 0.60362 0.11091 0.56556 0.0
C1999 C 0.66687 0.26505 0.59641 0.0
C2000 C 0.73253 0.1641 0.59434 0.0
C2001 C 0.76732 0.18704 0.5829 0.0
C2002 C 0.69044 0.16627 0.59425 0.0
C2003 C 0.68228 0.19085 0.58215 0.0
C2004 C 0.71804 0.21538 0.57079 0.0
C2005 C 0.76057 0.21364 0.57142 0.0
C2006 C 0.65407 0.14095 0.60688 0.0
C2007 C 0.71042 0.24138 0.55758 0.0
H2008 H 0.52113 0.1117 0.56894 0.0
H2009 H 0.57501 0.24301 0.59396 0.0
H2010 H 0.63362 0.12812 0.55723 0.0
H2011 H 0.61295 0.0914 0.57415 0.0
H2012 H 0.57123 0.0847 0.55922 0.0
H2013 H 0.65576 0.29065 0.6004 0.0
H2014 H 0.67852 0.25265 0.60662 0.0
H2015 H 0.69816 0.28406 0.58867 0.0
H2016 H 0.73806 0.14389 0.60332 0.0
H2017 H 0.78744 0.23111 0.56252 0.0
H2018 H 0.62179 0.11029 0.60189 0.0
H2019 H 0.64305 0.16528 0.61206 0.0
H2020 H 0.66784 0.1275 0.61623 0.0
H2021 H 0.68184 0.21522 0.54992 0.0
H2022 H 0.74319 0.2622 0.55055 0.0
H2023 H 0.69855 0.26589 0.56199 0.0
C2024 C 0.85679 0.39426 0.57511 0.0
C2025 C 0.88129 0.38748 0.58733 0.0
C2026 C 0.85267 0.4354 0.57431 0.0
C2027 C 0.87291 0.47009 0.58615 0.0
C2028 C 0.89579 0.46223 0.59887 0.0
C2029 C 0.9001 0.4212 0.59923 0.0
C2030 C 0.82841 0.44263 0.56049 0.0
C2031 C 0.91698 0.49786 0.6119 0.0
C2032 C 0.9171 0.60061 0.57779 0.0
C2033 C 0.88078 0.60671 0.5841 0.0
C2034 C 0.91392 0.55581 0.57781 0.0
C2035 C 0.87388 0.51641 0.58467 0.0
C2036 C 0.83662 0.52232 0.59085 0.0
C2037 C 0.84062 0.5676 0.59051 0.0
C2038 C 0.95405 0.55098 0.57086 0.0
C2039 C 0.79363 0.48147 0.59843 0.0
H2040 H 0.84205 0.36808 0.56591 0.0
H2041 H 0.91866 0.41576 0.60876 0.0
H2042 H 0.80071 0.45094 0.56434 0.0
H2043 H 0.85487 0.47351 0.5536 0.0
H2044 H 0.81158 0.41083 0.55286 0.0
H2045 H 0.92969 0.48448 0.62159 0.0
H2046 H 0.94748 0.53143 0.60748 0.0
H2047 H 0.89027 0.50662 0.61646 0.0
H2048 H 0.94833 0.63112 0.57295 0.0
H2049 H 0.81354 0.57286 0.59596 0.0
H2050 H 0.93981 0.52134 0.56237 0.0
H2051 H 0.9723 0.54226 0.58009 0.0
H2052 H 0.9808 0.58412 0.56494 0.0
H2053 H 0.7782 0.44954 0.59089 0.0
H2054 H 0.76555 0.49057 0.60107 0.0
H2055 H 0.80455 0.4718 0.60941 0.0
C2056 C 0.47473 0.34311 0.56866 0.0
C2057 C 0.46222 0.30317 0.57796 0.0
C2058 C 0.51921 0.38447 0.57023 0.0
C2059 C 0.55164 0.38599 0.58152 0.0
C2060 C 0.53948 0.34524 0.59073 0.0
C2061 C 0.49458 0.30433 0.58891 0.0
C2062 C 0.53084 0.42707 0.56014 0.0
C2063 C 0.57301 0.34552 0.60292 0.0
C2064 C 0.67866 0.48777 0.57718 0.0
C2065 C 0.67845 0.52214 0.58697 0.0
C2066 C 0.63821 0.44241 0.57575 0.0
C2067 C 0.59669 0.43141 0.5843 0.0
C2068 C 0.59704 0.46546 0.59467 0.0
C2069 C 0.63801 0.51049 0.59588 0.0
C2070 C 0.63933 0.40697 0.56467 0.0
C2071 C 0.55357 0.45496 0.60407 0.0
H2072 H 0.4493 0.34223 0.56031 0.0
H2073 H 0.48388 0.27431 0.59663 0.0
H2074 H 0.53463 0.45691 0.56745 0.0
H2075 H 0.56531 0.43942 0.55413 0.0
H2076 H 0.50293 0.41909 0.5513 0.0
H2077 H 0.5597 0.30986 0.60827 0.0
H2078 H 0.6086 0.35733 0.59781 0.0
H2079 H 0.57774 0.37126 0.61217 0.0
H2080 H 0.71017 0.49664 0.57039 0.0
H2081 H 0.63798 0.53697 0.60354 0.0
H2082 H 0.61506 0.40107 0.55481 0.0
H2083 H 0.62647 0.37209 0.57049 0.0
H2084 H 0.67563 0.41932 0.56004 0.0
H2085 H 0.52451 0.45038 0.59621 0.0
H2086 H 0.56077 0.48388 0.61241 0.0
H2087 H 0.54054 0.42115 0.61059 0.0
loop_
_geom_bond_atom_site_label_1
_geom_bond_atom_site_label_2
_geom_bond_distance
_geom_bond_site_symmetry_2
_ccdc_geom_bond_type
Tb0 O3 2.453 1_545 S
Tb0 O4 2.596 1_545 S
Tb0 O5 2.374 . S
Tb0 O13 2.343 . S
Tb0 O15 2.353 . S
Tb0 O17 2.427 . S
Tb0 O18 2.513 . S
C1 O5 1.251 1_565 S
C1 O7 1.263 . S
Tb2 O4 2.343 . S
Tb2 O7 2.353 . S
Tb2 O10 2.427 . S
Tb2 O11 2.513 . S
Tb2 O12 2.453 1_565 S
Tb2 O13 2.596 1_565 S
Tb2 O14 2.374 . S
O3 Tb0 2.453 1_565 S
O3 C19 1.245 . S
O4 Tb0 2.596 1_565 S
O4 Tb2 2.343 . S
O4 C19 1.259 . S
O5 Tb0 2.374 . S
O5 C1 1.251 1_545 S
C6 O10 1.275 . S
C6 O11 1.246 . S
O7 C1 1.263 . S
O7 Tb2 2.353 . S
C8 O12 1.245 . S
C8 O13 1.259 . S
C9 O14 1.250 1_545 S
C9 O15 1.263 . S
O10 Tb2 2.427 . S
O10 C6 1.275 . S
O11 Tb2 2.513 . S
O11 C6 1.246 . S
O12 Tb2 2.453 1_545 S
O12 C8 1.245 . S
O13 Tb0 2.343 . S
O13 Tb2 2.596 1_545 S
O13 C8 1.259 . S
O14 Tb2 2.374 . S
O14 C9 1.250 1_565 S
O15 Tb0 2.353 . S
O15 C9 1.263 . S
C16 O17 1.275 . S
C16 O18 1.246 . S
O17 Tb0 2.427 . S
O17 C16 1.275 . S
O18 Tb0 2.513 . S
O18 C16 1.246 . S
C19 O3 1.245 . S
C19 O4 1.259 . S
Tb20 O23 2.453 . S
Tb20 O24 2.596 . S
Tb20 O25 2.374 . S
Tb20 O33 2.343 1_455 S
Tb20 O35 2.353 . S
Tb20 O37 2.427 1_455 S
Tb20 O38 2.513 1_455 S
C21 O25 1.251 . S
C21 O27 1.263 . S
Tb22 O24 2.343 . S
Tb22 O27 2.353 . S
Tb22 O30 2.427 . S
Tb22 O31 2.513 . S
Tb22 O32 2.453 1_455 S
Tb22 O33 2.596 1_455 S
Tb22 O34 2.374 . S
O23 Tb20 2.453 . S
O23 C39 1.245 . S
O24 Tb20 2.596 . S
O24 Tb22 2.343 . S
O24 C39 1.259 . S
O25 Tb20 2.374 . S
O25 C21 1.251 . S
C26 O30 1.275 . S
C26 O31 1.246 . S
O27 C21 1.263 . S
O27 Tb22 2.353 . S
C28 O32 1.245 . S
C28 O33 1.259 . S
C29 O34 1.250 . S
C29 O35 1.263 . S
O30 Tb22 2.427 . S
O30 C26 1.275 . S
O31 Tb22 2.513 . S
O31 C26 1.246 . S
O32 Tb22 2.453 1_655 S
O32 C28 1.245 . S
O33 Tb20 2.343 1_655 S
O33 Tb22 2.596 1_655 S
O33 C28 1.259 . S
O34 Tb22 2.374 . S
O34 C29 1.250 . S
O35 Tb20 2.353 . S
O35 C29 1.263 . S
C36 O37 1.275 . S
C36 O38 1.246 . S
O37 Tb20 2.427 1_655 S
O37 C36 1.275 . S
O38 Tb20 2.513 1_655 S
O38 C36 1.246 . S
C39 O23 1.245 . S
C39 O24 1.259 . S
Tb40 O43 2.453 . S
Tb40 O44 2.596 . S
Tb40 O45 2.374 . S
Tb40 O53 2.343 . S
Tb40 O55 2.353 . S
Tb40 O57 2.427 . S
Tb40 O58 2.513 . S
C41 O45 1.251 . S
C41 O47 1.263 . S
Tb42 O44 2.343 . S
Tb42 O47 2.353 . S
Tb42 O50 2.427 . S
Tb42 O51 2.513 . S
Tb42 O52 2.453 . S
Tb42 O53 2.596 . S
Tb42 O54 2.374 . S
O43 Tb40 2.453 . S
O43 C59 1.245 . S
O44 Tb40 2.596 . S
O44 Tb42 2.343 . S
O44 C59 1.259 . S
O45 Tb40 2.374 . S
O45 C41 1.251 . S
C46 O50 1.275 . S
C46 O51 1.246 . S
O47 C41 1.263 . S
O47 Tb42 2.353 . S
C48 O52 1.245 . S
C48 O53 1.259 . S
C49 O54 1.250 . S
C49 O55 1.263 . S
O50 Tb42 2.427 . S
O50 C46 1.275 . S
O51 Tb42 2.513 . S
O51 C46 1.246 . S
O52 Tb42 2.453 . S
O52 C48 1.245 . S
O53 Tb40 2.343 . S
O53 Tb42 2.596 . S
O53 C48 1.259 . S
O54 Tb42 2.374 . S
O54 C49 1.250 . S
O55 Tb40 2.353 . S
O55 C49 1.263 . S
C56 O57 1.275 . S
C56 O58 1.246 . S
O57 Tb40 2.427 . S
O57 C56 1.275 . S
O58 Tb40 2.513 . S
O58 C56 1.246 . S
C59 O43 1.245 . S
C59 O44 1.259 . S
Tb60 O63 2.453 1_455 S
Tb60 O64 2.596 1_455 S
Tb60 O65 2.374 . S
Tb60 O73 2.343 . S
Tb60 O75 2.353 . S
Tb60 O77 2.427 . S
Tb60 O78 2.513 . S
C61 O65 1.251 1_655 S
C61 O67 1.263 . S
Tb62 O64 2.343 . S
Tb62 O67 2.353 . S
Tb62 O70 2.427 . S
Tb62 O71 2.513 . S
Tb62 O72 2.453 1_655 S
Tb62 O73 2.596 1_655 S
Tb62 O74 2.374 . S
O63 Tb60 2.453 1_655 S
O63 C79 1.245 . S
O64 Tb60 2.596 1_655 S
O64 Tb62 2.343 . S
O64 C79 1.259 . S
O65 Tb60 2.374 . S
O65 C61 1.251 1_455 S
C66 O70 1.275 . S
C66 O71 1.246 . S
O67 C61 1.263 . S
O67 Tb62 2.353 . S
C68 O72 1.245 . S
C68 O73 1.259 . S
C69 O74 1.250 1_455 S
C69 O75 1.263 . S
O70 Tb62 2.427 . S
O70 C66 1.275 . S
O71 Tb62 2.513 . S
O71 C66 1.246 . S
O72 Tb62 2.453 1_455 S
O72 C68 1.245 . S
O73 Tb60 2.343 . S
O73 Tb62 2.596 1_455 S
O73 C68 1.259 . S
O74 Tb62 2.374 . S
O74 C69 1.250 1_655 S
O75 Tb60 2.353 . S
O75 C69 1.263 . S
C76 O77 1.275 . S
C76 O78 1.246 . S
O77 Tb60 2.427 . S
O77 C76 1.275 . S
O78 Tb60 2.513 . S
O78 C76 1.246 . S
C79 O63 1.245 . S
C79 O64 1.259 . S
Tb80 O83 2.453 . S
Tb80 O84 2.596 . S
Tb80 O85 2.374 . S
Tb80 O93 2.343 . S
Tb80 O95 2.353 . S
Tb80 O97 2.427 . S
Tb80 O98 2.513 . S
C81 O85 1.251 . S
C81 O87 1.263 . S
Tb82 O84 2.343 . S
Tb82 O87 2.353 . S
Tb82 O90 2.427 . S
Tb82 O91 2.513 . S
Tb82 O92 2.453 . S
Tb82 O93 2.596 . S
Tb82 O94 2.374 . S
O83 Tb80 2.453 . S
O83 C99 1.245 . S
O84 Tb80 2.596 . S
O84 Tb82 2.343 . S
O84 C99 1.259 . S
O85 Tb80 2.374 . S
O85 C81 1.251 . S
C86 O90 1.275 . S
C86 O91 1.246 . S
O87 C81 1.263 . S
O87 Tb82 2.353 . S
C88 O92 1.245 . S
C88 O93 1.259 . S
C89 O94 1.250 . S
C89 O95 1.263 . S
O90 Tb82 2.427 . S
O90 C86 1.275 . S
O91 Tb82 2.513 . S
O91 C86 1.246 . S
O92 Tb82 2.453 . S
O92 C88 1.245 . S
O93 Tb80 2.343 . S
O93 Tb82 2.596 . S
O93 C88 1.259 . S
O94 Tb82 2.374 . S
O94 C89 1.250 . S
O95 Tb80 2.353 . S
O95 C89 1.263 . S
C96 O97 1.275 . S
C96 O98 1.246 . S
O97 Tb80 2.427 . S
O97 C96 1.275 . S
O98 Tb80 2.513 . S
O98 C96 1.246 . S
C99 O83 1.245 . S
C99 O84 1.259 . S
Tb100 O103 2.453 . S
Tb100 O104 2.596 . S
Tb100 O105 2.374 . S
Tb100 O113 2.343 1_545 S
Tb100 O115 2.353 . S
Tb100 O117 2.427 1_545 S
Tb100 O118 2.513 1_545 S
C101 O105 1.251 . S
C101 O107 1.263 . S
Tb102 O104 2.343 . S
Tb102 O107 2.353 . S
Tb102 O110 2.427 . S
Tb102 O111 2.513 . S
Tb102 O112 2.453 1_545 S
Tb102 O113 2.596 1_545 S
Tb102 O114 2.374 . S
O103 Tb100 2.453 . S
O103 C119 1.245 . S
O104 Tb100 2.596 . S
O104 Tb102 2.343 . S
O104 C119 1.259 . S
O105 Tb100 2.374 . S
O105 C101 1.251 . S
C106 O110 1.275 . S
C106 O111 1.246 . S
O107 C101 1.263 . S
O107 Tb102 2.353 . S
C108 O112 1.245 . S
C108 O113 1.259 . S
C109 O114 1.250 . S
C109 O115 1.263 . S
O110 Tb102 2.427 . S
O110 C106 1.275 . S
O111 Tb102 2.513 . S
O111 C106 1.246 . S
O112 Tb102 2.453 1_565 S
O112 C108 1.245 . S
O113 Tb100 2.343 1_565 S
O113 Tb102 2.596 1_565 S
O113 C108 1.259 . S
O114 Tb102 2.374 . S
O114 C109 1.250 . S
O115 Tb100 2.353 . S
O115 C109 1.263 . S
C116 O117 1.275 . S
C116 O118 1.246 . S
O117 Tb100 2.427 1_565 S
O117 C116 1.275 . S
O118 Tb100 2.513 1_565 S
O118 C116 1.246 . S
C119 O103 1.245 . S
C119 O104 1.259 . S
Tb120 O123 2.453 . S
Tb120 O124 2.596 . S
Tb120 O125 2.374 . S
Tb120 O133 2.343 . S
Tb120 O135 2.353 . S
Tb120 O137 2.427 . S
Tb120 O138 2.513 . S
C121 O125 1.251 . S
C121 O127 1.263 . S
Tb122 O124 2.343 . S
Tb122 O127 2.353 . S
Tb122 O130 2.427 . S
Tb122 O131 2.513 . S
Tb122 O132 2.453 . S
Tb122 O133 2.596 . S
Tb122 O134 2.374 . S
O123 Tb120 2.453 . S
O123 C139 1.245 . S
O124 Tb120 2.596 . S
O124 Tb122 2.343 . S
O124 C139 1.259 . S
O125 Tb120 2.374 . S
O125 C121 1.251 . S
C126 O130 1.275 . S
C126 O131 1.246 . S
O127 C121 1.263 . S
O127 Tb122 2.353 . S
C128 O132 1.245 . S
C128 O133 1.259 . S
C129 O134 1.250 . S
C129 O135 1.263 . S
O130 Tb122 2.427 . S
O130 C126 1.275 . S
O131 Tb122 2.513 . S
O131 C126 1.246 . S
O132 Tb122 2.453 . S
O132 C128 1.245 . S
O133 Tb120 2.343 . S
O133 Tb122 2.596 . S
O133 C128 1.259 . S
O134 Tb122 2.374 . S
O134 C129 1.250 . S
O135 Tb120 2.353 . S
O135 C129 1.263 . S
C136 O137 1.275 . S
C136 O138 1.246 . S
O137 Tb120 2.427 . S
O137 C136 1.275 . S
O138 Tb120 2.513 . S
O138 C136 1.246 . S
C139 O123 1.245 . S
C139 O124 1.259 . S
Tb140 O143 2.453 . S
Tb140 O144 2.596 . S
Tb140 O145 2.374 . S
Tb140 O153 2.343 . S
Tb140 O155 2.353 . S
Tb140 O157 2.427 . S
Tb140 O158 2.513 . S
C141 O145 1.251 . S
C141 O147 1.263 . S
Tb142 O144 2.343 . S
Tb142 O147 2.353 . S
Tb142 O150 2.427 . S
Tb142 O151 2.513 . S
Tb142 O152 2.453 . S
Tb142 O153 2.596 . S
Tb142 O154 2.374 . S
O143 Tb140 2.453 . S
O143 C159 1.245 . S
O144 Tb140 2.596 . S
O144 Tb142 2.343 . S
O144 C159 1.259 . S
O145 Tb140 2.374 . S
O145 C141 1.251 . S
C146 O150 1.275 . S
C146 O151 1.246 . S
O147 C141 1.263 . S
O147 Tb142 2.353 . S
C148 O152 1.245 . S
C148 O153 1.259 . S
C149 O154 1.250 . S
C149 O155 1.263 . S
O150 Tb142 2.427 . S
O150 C146 1.275 . S
O151 Tb142 2.513 . S
O151 C146 1.246 . S
O152 Tb142 2.453 . S
O152 C148 1.245 . S
O153 Tb140 2.343 . S
O153 Tb142 2.596 . S
O153 C148 1.259 . S
O154 Tb142 2.374 . S
O154 C149 1.250 . S
O155 Tb140 2.353 . S
O155 C149 1.263 . S
C156 O157 1.275 . S
C156 O158 1.246 . S
O157 Tb140 2.427 . S
O157 C156 1.275 . S
O158 Tb140 2.513 . S
O158 C156 1.246 . S
C159 O143 1.245 . S
C159 O144 1.259 . S
Tb160 O163 2.453 . S
Tb160 O164 2.596 . S
Tb160 O165 2.374 . S
Tb160 O173 2.343 . S
Tb160 O175 2.353 . S
Tb160 O177 2.427 . S
Tb160 O178 2.513 . S
C161 O165 1.251 . S
C161 O167 1.263 . S
Tb162 O164 2.343 . S
Tb162 O167 2.353 . S
Tb162 O170 2.427 . S
Tb162 O171 2.513 . S
Tb162 O172 2.453 . S
Tb162 O173 2.596 . S
Tb162 O174 2.374 . S
O163 Tb160 2.453 . S
O163 C179 1.245 . S
O164 Tb160 2.596 . S
O164 Tb162 2.343 . S
O164 C179 1.259 . S
O165 Tb160 2.374 . S
O165 C161 1.251 . S
C166 O170 1.275 . S
C166 O171 1.246 . S
O167 C161 1.263 . S
O167 Tb162 2.353 . S
C168 O172 1.245 . S
C168 O173 1.259 . S
C169 O174 1.250 . S
C169 O175 1.263 . S
O170 Tb162 2.427 . S
O170 C166 1.275 . S
O171 Tb162 2.513 . S
O171 C166 1.246 . S
O172 Tb162 2.453 . S
O172 C168 1.245 . S
O173 Tb160 2.343 . S
O173 Tb162 2.596 . S
O173 C168 1.259 . S
O174 Tb162 2.374 . S
O174 C169 1.250 . S
O175 Tb160 2.353 . S
O175 C169 1.263 . S
C176 O177 1.275 . S
C176 O178 1.246 . S
O177 Tb160 2.427 . S
O177 C176 1.275 . S
O178 Tb160 2.513 . S
O178 C176 1.246 . S
C179 O163 1.245 . S
C179 O164 1.259 . S
Tb180 O183 2.453 . S
Tb180 O184 2.596 . S
Tb180 O185 2.374 . S
Tb180 O193 2.343 . S
Tb180 O195 2.353 . S
Tb180 O197 2.427 . S
Tb180 O198 2.513 . S
C181 O185 1.251 . S
C181 O187 1.263 . S
Tb182 O184 2.343 . S
Tb182 O187 2.353 . S
Tb182 O190 2.427 . S
Tb182 O191 2.513 . S
Tb182 O192 2.453 . S
Tb182 O193 2.596 . S
Tb182 O194 2.374 . S
O183 Tb180 2.453 . S
O183 C199 1.245 . S
O184 Tb180 2.596 . S
O184 Tb182 2.343 . S
O184 C199 1.259 . S
O185 Tb180 2.374 . S
O185 C181 1.251 . S
C186 O190 1.275 . S
C186 O191 1.246 . S
O187 C181 1.263 . S
O187 Tb182 2.353 . S
C188 O192 1.245 . S
C188 O193 1.259 . S
C189 O194 1.250 . S
C189 O195 1.263 . S
O190 Tb182 2.427 . S
O190 C186 1.275 . S
O191 Tb182 2.513 . S
O191 C186 1.246 . S
O192 Tb182 2.453 . S
O192 C188 1.245 . S
O193 Tb180 2.343 . S
O193 Tb182 2.596 . S
O193 C188 1.259 . S
O194 Tb182 2.374 . S
O194 C189 1.250 . S
O195 Tb180 2.353 . S
O195 C189 1.263 . S
C196 O197 1.275 . S
C196 O198 1.246 . S
O197 Tb180 2.427 . S
O197 C196 1.275 . S
O198 Tb180 2.513 . S
O198 C196 1.246 . S
C199 O183 1.245 . S
C199 O184 1.259 . S
Tb200 O203 2.453 . S
Tb200 O204 2.596 . S
Tb200 O205 2.374 . S
Tb200 O213 2.343 . S
Tb200 O215 2.353 . S
Tb200 O217 2.427 . S
Tb200 O218 2.513 . S
C201 O205 1.251 . S
C201 O207 1.263 . S
Tb202 O204 2.343 . S
Tb202 O207 2.353 . S
Tb202 O210 2.427 . S
Tb202 O211 2.513 . S
Tb202 O212 2.453 . S
Tb202 O213 2.596 . S
Tb202 O214 2.374 . S
O203 Tb200 2.453 . S
O203 C219 1.245 . S
O204 Tb200 2.596 . S
O204 Tb202 2.343 . S
O204 C219 1.259 . S
O205 Tb200 2.374 . S
O205 C201 1.251 . S
C206 O210 1.275 . S
C206 O211 1.246 . S
O207 C201 1.263 . S
O207 Tb202 2.353 . S
C208 O212 1.245 . S
C208 O213 1.259 . S
C209 O214 1.250 . S
C209 O215 1.263 . S
O210 Tb202 2.427 . S
O210 C206 1.275 . S
O211 Tb202 2.513 . S
O211 C206 1.246 . S
O212 Tb202 2.453 . S
O212 C208 1.245 . S
O213 Tb200 2.343 . S
O213 Tb202 2.596 . S
O213 C208 1.259 . S
O214 Tb202 2.374 . S
O214 C209 1.250 . S
O215 Tb200 2.353 . S
O215 C209 1.263 . S
C216 O217 1.275 . S
C216 O218 1.246 . S
O217 Tb200 2.427 . S
O217 C216 1.275 . S
O218 Tb200 2.513 . S
O218 C216 1.246 . S
C219 O203 1.245 . S
C219 O204 1.259 . S
Tb220 O223 2.453 . S
Tb220 O224 2.596 . S
Tb220 O225 2.374 . S
Tb220 O233 2.343 . S
Tb220 O235 2.353 . S
Tb220 O237 2.427 . S
Tb220 O238 2.513 . S
C221 O225 1.251 . S
C221 O227 1.263 . S
Tb222 O224 2.343 . S
Tb222 O227 2.353 . S
Tb222 O230 2.427 . S
Tb222 O231 2.513 . S
Tb222 O232 2.453 . S
Tb222 O233 2.596 . S
Tb222 O234 2.374 . S
O223 Tb220 2.453 . S
O223 C239 1.245 . S
O224 Tb220 2.596 . S
O224 Tb222 2.343 . S
O224 C239 1.259 . S
O225 Tb220 2.374 . S
O225 C221 1.251 . S
C226 O230 1.275 . S
C226 O231 1.246 . S
O227 C221 1.263 . S
O227 Tb222 2.353 . S
C228 O232 1.245 . S
C228 O233 1.259 . S
C229 O234 1.250 . S
C229 O235 1.263 . S
O230 Tb222 2.427 . S
O230 C226 1.275 . S
O231 Tb222 2.513 . S
O231 C226 1.246 . S
O232 Tb222 2.453 . S
O232 C228 1.245 . S
O233 Tb220 2.343 . S
O233 Tb222 2.596 . S
O233 C228 1.259 . S
O234 Tb222 2.374 . S
O234 C229 1.250 . S
O235 Tb220 2.353 . S
O235 C229 1.263 . S
C236 O237 1.275 . S
C236 O238 1.246 . S
O237 Tb220 2.427 . S
O237 C236 1.275 . S
O238 Tb220 2.513 . S
O238 C236 1.246 . S
C239 O223 1.245 . S
C239 O224 1.259 . S
Tb240 O243 2.453 . S
Tb240 O244 2.596 . S
Tb240 O245 2.374 . S
Tb240 O253 2.343 . S
Tb240 O255 2.353 . S
Tb240 O257 2.427 . S
Tb240 O258 2.513 . S
C241 O245 1.251 . S
C241 O247 1.263 . S
Tb242 O244 2.343 . S
Tb242 O247 2.353 . S
Tb242 O250 2.427 . S
Tb242 O251 2.513 . S
Tb242 O252 2.453 . S
Tb242 O253 2.596 . S
Tb242 O254 2.374 . S
O243 Tb240 2.453 . S
O243 C259 1.245 . S
O244 Tb240 2.596 . S
O244 Tb242 2.343 . S
O244 C259 1.259 . S
O245 Tb240 2.374 . S
O245 C241 1.251 . S
C246 O250 1.275 . S
C246 O251 1.246 . S
O247 C241 1.263 . S
O247 Tb242 2.353 . S
C248 O252 1.245 . S
C248 O253 1.259 . S
C249 O254 1.250 . S
C249 O255 1.263 . S
O250 Tb242 2.427 . S
O250 C246 1.275 . S
O251 Tb242 2.513 . S
O251 C246 1.246 . S
O252 Tb242 2.453 . S
O252 C248 1.245 . S
O253 Tb240 2.343 . S
O253 Tb242 2.596 . S
O253 C248 1.259 . S
O254 Tb242 2.374 . S
O254 C249 1.250 . S
O255 Tb240 2.353 . S
O255 C249 1.263 . S
C256 O257 1.275 . S
C256 O258 1.246 . S
O257 Tb240 2.427 . S
O257 C256 1.275 . S
O258 Tb240 2.513 . S
O258 C256 1.246 . S
C259 O243 1.245 . S
C259 O244 1.259 . S
Tb260 O263 2.453 . S
Tb260 O264 2.596 . S
Tb260 O265 2.374 . S
Tb260 O273 2.343 . S
Tb260 O275 2.353 . S
Tb260 O277 2.427 . S
Tb260 O278 2.513 . S
C261 O265 1.251 . S
C261 O267 1.263 . S
Tb262 O264 2.343 . S
Tb262 O267 2.353 . S
Tb262 O270 2.427 . S
Tb262 O271 2.513 . S
Tb262 O272 2.453 . S
Tb262 O273 2.596 . S
Tb262 O274 2.374 . S
O263 Tb260 2.453 . S
O263 C279 1.245 . S
O264 Tb260 2.596 . S
O264 Tb262 2.343 . S
O264 C279 1.259 . S
O265 Tb260 2.374 . S
O265 C261 1.251 . S
C266 O270 1.275 . S
C266 O271 1.246 . S
O267 C261 1.263 . S
O267 Tb262 2.353 . S
C268 O272 1.245 . S
C268 O273 1.259 . S
C269 O274 1.250 . S
C269 O275 1.263 . S
O270 Tb262 2.427 . S
O270 C266 1.275 . S
O271 Tb262 2.513 . S
O271 C266 1.246 . S
O272 Tb262 2.453 . S
O272 C268 1.245 . S
O273 Tb260 2.343 . S
O273 Tb262 2.596 . S
O273 C268 1.259 . S
O274 Tb262 2.374 . S
O274 C269 1.250 . S
O275 Tb260 2.353 . S
O275 C269 1.263 . S
C276 O277 1.275 . S
C276 O278 1.246 . S
O277 Tb260 2.427 . S
O277 C276 1.275 . S
O278 Tb260 2.513 . S
O278 C276 1.246 . S
C279 O263 1.245 . S
C279 O264 1.259 . S
Tb280 O283 2.453 . S
Tb280 O284 2.596 . S
Tb280 O285 2.374 . S
Tb280 O293 2.343 . S
Tb280 O295 2.353 . S
Tb280 O297 2.427 . S
Tb280 O298 2.513 . S
C281 O285 1.251 . S
C281 O287 1.263 . S
Tb282 O284 2.343 . S
Tb282 O287 2.353 . S
Tb282 O290 2.427 . S
Tb282 O291 2.513 . S
Tb282 O292 2.453 . S
Tb282 O293 2.596 . S
Tb282 O294 2.374 . S
O283 Tb280 2.453 . S
O283 C299 1.245 . S
O284 Tb280 2.596 . S
O284 Tb282 2.343 . S
O284 C299 1.259 . S
O285 Tb280 2.374 . S
O285 C281 1.251 . S
C286 O290 1.275 . S
C286 O291 1.246 . S
O287 C281 1.263 . S
O287 Tb282 2.353 . S
C288 O292 1.245 . S
C288 O293 1.259 . S
C289 O294 1.250 . S
C289 O295 1.263 . S
O290 Tb282 2.427 . S
O290 C286 1.275 . S
O291 Tb282 2.513 . S
O291 C286 1.246 . S
O292 Tb282 2.453 . S
O292 C288 1.245 . S
O293 Tb280 2.343 . S
O293 Tb282 2.596 . S
O293 C288 1.259 . S
O294 Tb282 2.374 . S
O294 C289 1.250 . S
O295 Tb280 2.353 . S
O295 C289 1.263 . S
C296 O297 1.275 . S
C296 O298 1.246 . S
O297 Tb280 2.427 . S
O297 C296 1.275 . S
O298 Tb280 2.513 . S
O298 C296 1.246 . S
C299 O283 1.245 . S
C299 O284 1.259 . S
Tb300 O303 2.453 . S
Tb300 O304 2.596 . S
Tb300 O305 2.374 . S
Tb300 O313 2.343 . S
Tb300 O315 2.353 . S
Tb300 O317 2.427 . S
Tb300 O318 2.513 . S
C301 O305 1.251 . S
C301 O307 1.263 . S
Tb302 O304 2.343 . S
Tb302 O307 2.353 . S
Tb302 O310 2.427 . S
Tb302 O311 2.513 . S
Tb302 O312 2.453 . S
Tb302 O313 2.596 . S
Tb302 O314 2.374 . S
O303 Tb300 2.453 . S
O303 C319 1.245 . S
O304 Tb300 2.596 . S
O304 Tb302 2.343 . S
O304 C319 1.259 . S
O305 Tb300 2.374 . S
O305 C301 1.251 . S
C306 O310 1.275 . S
C306 O311 1.246 . S
O307 C301 1.263 . S
O307 Tb302 2.353 . S
C308 O312 1.245 . S
C308 O313 1.259 . S
C309 O314 1.250 . S
C309 O315 1.263 . S
O310 Tb302 2.427 . S
O310 C306 1.275 . S
O311 Tb302 2.513 . S
O311 C306 1.246 . S
O312 Tb302 2.453 . S
O312 C308 1.245 . S
O313 Tb300 2.343 . S
O313 Tb302 2.596 . S
O313 C308 1.259 . S
O314 Tb302 2.374 . S
O314 C309 1.250 . S
O315 Tb300 2.353 . S
O315 C309 1.263 . S
C316 O317 1.275 . S
C316 O318 1.246 . S
O317 Tb300 2.427 . S
O317 C316 1.275 . S
O318 Tb300 2.513 . S
O318 C316 1.246 . S
C319 O303 1.245 . S
C319 O304 1.259 . S
Tb320 O323 2.453 . S
Tb320 O324 2.596 . S
Tb320 O325 2.374 . S
Tb320 O333 2.343 . S
Tb320 O335 2.353 . S
Tb320 O337 2.427 . S
Tb320 O338 2.513 . S
C321 O325 1.251 . S
C321 O327 1.263 . S
Tb322 O324 2.343 . S
Tb322 O327 2.353 . S
Tb322 O330 2.427 . S
Tb322 O331 2.513 . S
Tb322 O332 2.453 . S
Tb322 O333 2.596 . S
Tb322 O334 2.374 . S
O323 Tb320 2.453 . S
O323 C339 1.245 . S
O324 Tb320 2.596 . S
O324 Tb322 2.343 . S
O324 C339 1.259 . S
O325 Tb320 2.374 . S
O325 C321 1.251 . S
C326 O330 1.275 . S
C326 O331 1.246 . S
O327 C321 1.263 . S
O327 Tb322 2.353 . S
C328 O332 1.245 . S
C328 O333 1.259 . S
C329 O334 1.250 . S
C329 O335 1.263 . S
O330 Tb322 2.427 . S
O330 C326 1.275 . S
O331 Tb322 2.513 . S
O331 C326 1.246 . S
O332 Tb322 2.453 . S
O332 C328 1.245 . S
O333 Tb320 2.343 . S
O333 Tb322 2.596 . S
O333 C328 1.259 . S
O334 Tb322 2.374 . S
O334 C329 1.250 . S
O335 Tb320 2.353 . S
O335 C329 1.263 . S
C336 O337 1.275 . S
C336 O338 1.246 . S
O337 Tb320 2.427 . S
O337 C336 1.275 . S
O338 Tb320 2.513 . S
O338 C336 1.246 . S
C339 O323 1.245 . S
C339 O324 1.259 . S
Tb340 O343 2.453 . S
Tb340 O344 2.596 . S
Tb340 O345 2.374 . S
Tb340 O353 2.343 . S
Tb340 O355 2.353 . S
Tb340 O357 2.427 . S
Tb340 O358 2.513 . S
C341 O345 1.251 . S
C341 O347 1.263 . S
Tb342 O344 2.343 . S
Tb342 O347 2.353 . S
Tb342 O350 2.427 . S
Tb342 O351 2.513 . S
Tb342 O352 2.453 . S
Tb342 O353 2.596 . S
Tb342 O354 2.374 . S
O343 Tb340 2.453 . S
O343 C359 1.245 . S
O344 Tb340 2.596 . S
O344 Tb342 2.343 . S
O344 C359 1.259 . S
O345 Tb340 2.374 . S
O345 C341 1.251 . S
C346 O350 1.275 . S
C346 O351 1.246 . S
O347 C341 1.263 . S
O347 Tb342 2.353 . S
C348 O352 1.245 . S
C348 O353 1.259 . S
C349 O354 1.250 . S
C349 O355 1.263 . S
O350 Tb342 2.427 . S
O350 C346 1.275 . S
O351 Tb342 2.513 . S
O351 C346 1.246 . S
O352 Tb342 2.453 . S
O352 C348 1.245 . S
O353 Tb340 2.343 . S
O353 Tb342 2.596 . S
O353 C348 1.259 . S
O354 Tb342 2.374 . S
O354 C349 1.250 . S
O355 Tb340 2.353 . S
O355 C349 1.263 . S
C356 O357 1.275 . S
C356 O358 1.246 . S
O357 Tb340 2.427 . S
O357 C356 1.275 . S
O358 Tb340 2.513 . S
O358 C356 1.246 . S
C359 O343 1.245 . S
C359 O344 1.259 . S
C360 C361 1.391 . S
C360 C362 1.394 . S
C360 H376 0.931 . S
C361 C360 1.391 . S
C361 C365 1.376 . S
C362 C360 1.394 . S
C362 C363 1.369 . S
C362 C366 1.531 . S
C363 C362 1.369 . S
C363 C364 1.410 . S
C363 C371 1.503 . S
C364 C363 1.410 . S
C364 C365 1.392 . S
C364 C367 1.511 . S
C365 C361 1.376 . S
C365 C364 1.392 . S
C365 H377 0.929 . S
C366 C362 1.531 . S
C366 H378 0.960 . S
C366 H379 0.962 . S
C366 H380 0.960 . S
C367 C364 1.511 . S
C367 H381 0.961 . S
C367 H382 0.961 . S
C367 H383 0.961 . S
C368 C369 1.370 . S
C368 C370 1.363 . S
C368 H384 0.931 . S
C369 C368 1.370 . S
C369 C373 1.408 . S
C370 C368 1.363 . S
C370 C371 1.370 . S
C370 C374 1.524 . S
C371 C363 1.503 . S
C371 C370 1.370 . S
C371 C372 1.403 . S
C372 C371 1.403 . S
C372 C373 1.404 . S
C372 C375 1.539 . S
C373 C369 1.408 . S
C373 C372 1.404 . S
C373 H385 0.930 . S
C374 C370 1.524 . S
C374 H386 0.956 . S
C374 H387 0.961 . S
C374 H388 0.961 . S
C375 C372 1.539 . S
C375 H389 0.958 . S
C375 H390 0.961 . S
C375 H391 0.960 . S
H376 C360 0.931 . S
H377 C365 0.929 . S
H378 C366 0.960 . S
H379 C366 0.962 . S
H380 C366 0.960 . S
H381 C367 0.961 . S
H382 C367 0.961 . S
H383 C367 0.961 . S
H384 C368 0.931 . S
H385 C373 0.930 . S
H386 C374 0.956 . S
H387 C374 0.961 . S
H388 C374 0.961 . S
H389 C375 0.958 . S
H390 C375 0.961 . S
H391 C375 0.960 . S
C392 C393 1.391 . S
C392 C394 1.394 . S
C392 H408 0.931 . S
C393 C392 1.391 . S
C393 C397 1.376 . S
C394 C392 1.394 . S
C394 C395 1.369 . S
C394 C398 1.531 . S
C395 C394 1.369 . S
C395 C396 1.410 . S
C395 C403 1.503 . S
C396 C395 1.410 . S
C396 C397 1.392 . S
C396 C399 1.511 . S
C397 C393 1.376 . S
C397 C396 1.392 . S
C397 H409 0.929 . S
C398 C394 1.531 . S
C398 H410 0.960 . S
C398 H411 0.962 . S
C398 H412 0.960 . S
C399 C396 1.511 . S
C399 H413 0.961 . S
C399 H414 0.961 . S
C399 H415 0.961 . S
C400 C401 1.370 . S
C400 C402 1.363 . S
C400 H416 0.931 . S
C401 C400 1.370 . S
C401 C405 1.408 . S
C402 C400 1.363 . S
C402 C403 1.370 . S
C402 C406 1.524 . S
C403 C395 1.503 . S
C403 C402 1.370 . S
C403 C404 1.403 . S
C404 C403 1.403 . S
C404 C405 1.404 . S
C404 C407 1.539 . S
C405 C401 1.408 . S
C405 C404 1.404 . S
C405 H417 0.930 . S
C406 C402 1.524 . S
C406 H418 0.956 . S
C406 H419 0.961 . S
C406 H420 0.961 . S
C407 C404 1.539 . S
C407 H421 0.958 . S
C407 H422 0.961 . S
C407 H423 0.960 . S
H408 C392 0.931 . S
H409 C397 0.929 . S
H410 C398 0.960 . S
H411 C398 0.962 . S
H412 C398 0.960 . S
H413 C399 0.961 . S
H414 C399 0.961 . S
H415 C399 0.961 . S
H416 C400 0.931 . S
H417 C405 0.930 . S
H418 C406 0.956 . S
H419 C406 0.961 . S
H420 C406 0.961 . S
H421 C407 0.958 . S
H422 C407 0.961 . S
H423 C407 0.960 . S
C424 C425 1.391 . S
C424 C426 1.394 . S
C424 H440 0.931 . S
C425 C424 1.391 . S
C425 C429 1.376 . S
C426 C424 1.394 . S
C426 C427 1.369 . S
C426 C430 1.531 . S
C427 C426 1.369 . S
C427 C428 1.410 . S
C427 C435 1.503 . S
C428 C427 1.410 . S
C428 C429 1.392 . S
C428 C431 1.511 . S
C429 C425 1.376 . S
C429 C428 1.392 . S
C429 H441 0.929 . S
C430 C426 1.531 . S
C430 H442 0.960 . S
C430 H443 0.962 . S
C430 H444 0.960 . S
C431 C428 1.511 . S
C431 H445 0.961 . S
C431 H446 0.961 . S
C431 H447 0.961 . S
C432 C433 1.370 . S
C432 C434 1.363 . S
C432 H448 0.931 . S
C433 C432 1.370 . S
C433 C437 1.408 . S
C434 C432 1.363 . S
C434 C435 1.370 . S
C434 C438 1.524 . S
C435 C427 1.503 . S
C435 C434 1.370 . S
C435 C436 1.403 . S
C436 C435 1.403 . S
C436 C437 1.404 . S
C436 C439 1.539 . S
C437 C433 1.408 . S
C437 C436 1.404 . S
C437 H449 0.930 . S
C438 C434 1.524 . S
C438 H450 0.956 . S
C438 H451 0.961 . S
C438 H452 0.961 . S
C439 C436 1.539 . S
C439 H453 0.958 . S
C439 H454 0.961 . S
C439 H455 0.960 . S
H440 C424 0.931 . S
H441 C429 0.929 . S
H442 C430 0.960 . S
H443 C430 0.962 . S
H444 C430 0.960 . S
H445 C431 0.961 . S
H446 C431 0.961 . S
H447 C431 0.961 . S
H448 C432 0.931 . S
H449 C437 0.930 . S
H450 C438 0.956 . S
H451 C438 0.961 . S
H452 C438 0.961 . S
H453 C439 0.958 . S
H454 C439 0.961 . S
H455 C439 0.960 . S
C456 C457 1.391 . S
C456 C458 1.394 . S
C456 H472 0.931 . S
C457 C456 1.391 . S
C457 C461 1.376 . S
C458 C456 1.394 . S
C458 C459 1.369 . S
C458 C462 1.531 . S
C459 C458 1.369 . S
C459 C460 1.410 . S
C459 C467 1.503 . S
C460 C459 1.410 . S
C460 C461 1.392 . S
C460 C463 1.511 . S
C461 C457 1.376 . S
C461 C460 1.392 . S
C461 H473 0.929 . S
C462 C458 1.531 . S
C462 H474 0.960 . S
C462 H475 0.962 . S
C462 H476 0.960 . S
C463 C460 1.511 . S
C463 H477 0.961 . S
C463 H478 0.961 . S
C463 H479 0.961 . S
C464 C465 1.370 . S
C464 C466 1.363 . S
C464 H480 0.931 . S
C465 C464 1.370 . S
C465 C469 1.408 . S
C466 C464 1.363 . S
C466 C467 1.370 . S
C466 C470 1.524 . S
C467 C459 1.503 . S
C467 C466 1.370 . S
C467 C468 1.403 . S
C468 C467 1.403 . S
C468 C469 1.404 . S
C468 C471 1.539 . S
C469 C465 1.408 . S
C469 C468 1.404 . S
C469 H481 0.930 . S
C470 C466 1.524 . S
C470 H482 0.956 . S
C470 H483 0.961 . S
C470 H484 0.961 . S
C471 C468 1.539 . S
C471 H485 0.958 . S
C471 H486 0.961 . S
C471 H487 0.960 . S
H472 C456 0.931 . S
H473 C461 0.929 . S
H474 C462 0.960 . S
H475 C462 0.962 . S
H476 C462 0.960 . S
H477 C463 0.961 . S
H478 C463 0.961 . S
H479 C463 0.961 . S
H480 C464 0.931 . S
H481 C469 0.930 . S
H482 C470 0.956 . S
H483 C470 0.961 . S
H484 C470 0.961 . S
H485 C471 0.958 . S
H486 C471 0.961 . S
H487 C471 0.960 . S
C488 C489 1.391 . S
C488 C490 1.394 . S
C488 H504 0.931 . S
C489 C488 1.391 . S
C489 C493 1.376 . S
C490 C488 1.394 . S
C490 C491 1.369 . S
C490 C494 1.531 . S
C491 C490 1.369 . S
C491 C492 1.410 . S
C491 C499 1.503 . S
C492 C491 1.410 . S
C492 C493 1.392 . S
C492 C495 1.511 . S
C493 C489 1.376 . S
C493 C492 1.392 . S
C493 H505 0.929 . S
C494 C490 1.531 . S
C494 H506 0.960 . S
C494 H507 0.962 . S
C494 H508 0.960 . S
C495 C492 1.511 . S
C495 H509 0.961 . S
C495 H510 0.961 . S
C495 H511 0.961 . S
C496 C497 1.370 . S
C496 C498 1.363 . S
C496 H512 0.931 . S
C497 C496 1.370 . S
C497 C501 1.408 . S
C498 C496 1.363 . S
C498 C499 1.370 . S
C498 C502 1.524 . S
C499 C491 1.503 . S
C499 C498 1.370 . S
C499 C500 1.403 . S
C500 C499 1.403 . S
C500 C501 1.404 . S
C500 C503 1.539 . S
C501 C497 1.408 . S
C501 C500 1.404 . S
C501 H513 0.930 . S
C502 C498 1.524 . S
C502 H514 0.956 . S
C502 H515 0.961 . S
C502 H516 0.961 . S
C503 C500 1.539 . S
C503 H517 0.958 . S
C503 H518 0.961 . S
C503 H519 0.960 . S
H504 C488 0.931 . S
H505 C493 0.929 . S
H506 C494 0.960 . S
H507 C494 0.962 . S
H508 C494 0.960 . S
H509 C495 0.961 . S
H510 C495 0.961 . S
H511 C495 0.961 . S
H512 C496 0.931 . S
H513 C501 0.930 . S
H514 C502 0.956 . S
H515 C502 0.961 . S
H516 C502 0.961 . S
H517 C503 0.958 . S
H518 C503 0.961 . S
H519 C503 0.960 . S
C520 C521 1.391 . S
C520 C522 1.394 . S
C520 H536 0.931 . S
C521 C520 1.391 . S
C521 C525 1.376 . S
C522 C520 1.394 . S
C522 C523 1.369 . S
C522 C526 1.531 . S
C523 C522 1.369 . S
C523 C524 1.410 . S
C523 C531 1.503 . S
C524 C523 1.410 . S
C524 C525 1.392 . S
C524 C527 1.511 . S
C525 C521 1.376 . S
C525 C524 1.392 . S
C525 H537 0.929 . S
C526 C522 1.531 . S
C526 H538 0.960 . S
C526 H539 0.962 . S
C526 H540 0.960 . S
C527 C524 1.511 . S
C527 H541 0.961 . S
C527 H542 0.961 . S
C527 H543 0.961 . S
C528 C529 1.370 . S
C528 C530 1.363 . S
C528 H544 0.931 . S
C529 C528 1.370 . S
C529 C533 1.408 . S
C530 C528 1.363 . S
C530 C531 1.370 . S
C530 C534 1.524 . S
C531 C523 1.503 . S
C531 C530 1.370 . S
C531 C532 1.403 . S
C532 C531 1.403 . S
C532 C533 1.404 . S
C532 C535 1.539 . S
C533 C529 1.408 . S
C533 C532 1.404 . S
C533 H545 0.930 . S
C534 C530 1.524 . S
C534 H546 0.956 . S
C534 H547 0.961 . S
C534 H548 0.961 . S
C535 C532 1.539 . S
C535 H549 0.958 . S
C535 H550 0.961 . S
C535 H551 0.960 . S
H536 C520 0.931 . S
H537 C525 0.929 . S
H538 C526 0.960 . S
H539 C526 0.962 . S
H540 C526 0.960 . S
H541 C527 0.961 . S
H542 C527 0.961 . S
H543 C527 0.961 . S
H544 C528 0.931 . S
H545 C533 0.930 . S
H546 C534 0.956 . S
H547 C534 0.961 . S
H548 C534 0.961 . S
H549 C535 0.958 . S
H550 C535 0.961 . S
H551 C535 0.960 . S
C552 C553 1.391 . S
C552 C554 1.394 1_565 S
C552 H568 0.931 . S
C553 C552 1.391 . S
C553 C557 1.376 . S
C554 C552 1.394 1_545 S
C554 C555 1.369 . S
C554 C558 1.531 . S
C555 C554 1.369 . S
C555 C556 1.410 . S
C555 C563 1.503 . S
C556 C555 1.410 . S
C556 C557 1.392 1_545 S
C556 C559 1.511 . S
C557 C553 1.376 . S
C557 C556 1.392 1_565 S
C557 H569 0.929 . S
C558 C554 1.531 . S
C558 H570 0.960 . S
C558 H571 0.962 . S
C558 H572 0.960 . S
C559 C556 1.511 . S
C559 H573 0.961 . S
C559 H574 0.961 . S
C559 H575 0.961 . S
C560 C561 1.370 . S
C560 C562 1.363 . S
C560 H576 0.931 . S
C561 C560 1.370 . S
C561 C565 1.408 . S
C562 C560 1.363 . S
C562 C563 1.370 . S
C562 C566 1.524 . S
C563 C555 1.503 . S
C563 C562 1.370 . S
C563 C564 1.403 . S
C564 C563 1.403 . S
C564 C565 1.404 . S
C564 C567 1.539 . S
C565 C561 1.408 . S
C565 C564 1.404 . S
C565 H577 0.930 . S
C566 C562 1.524 . S
C566 H578 0.956 . S
C566 H579 0.961 . S
C566 H580 0.961 . S
C567 C564 1.539 . S
C567 H581 0.958 . S
C567 H582 0.961 . S
C567 H583 0.960 . S
H568 C552 0.931 . S
H569 C557 0.929 . S
H570 C558 0.960 . S
H571 C558 0.962 . S
H572 C558 0.960 . S
H573 C559 0.961 . S
H574 C559 0.961 . S
H575 C559 0.961 . S
H576 C560 0.931 . S
H577 C565 0.930 . S
H578 C566 0.956 . S
H579 C566 0.961 . S
H580 C566 0.961 . S
H581 C567 0.958 . S
H582 C567 0.961 . S
H583 C567 0.960 . S
C584 C585 1.391 . S
C584 C586 1.394 1_455 S
C584 H600 0.931 . S
C585 C584 1.391 . S
C585 C589 1.376 . S
C586 C584 1.394 1_655 S
C586 C587 1.369 . S
C586 C590 1.531 . S
C587 C586 1.369 . S
C587 C588 1.410 1_655 S
C587 C595 1.503 . S
C588 C587 1.410 1_455 S
C588 C589 1.392 . S
C588 C591 1.511 . S
C589 C585 1.376 . S
C589 C588 1.392 . S
C589 H601 0.929 . S
C590 C586 1.531 . S
C590 H602 0.960 . S
C590 H603 0.962 . S
C590 H604 0.960 . S
C591 C588 1.511 . S
C591 H605 0.961 . S
C591 H606 0.961 1_455 S
C591 H607 0.961 . S
C592 C593 1.370 1_545 S
C592 C594 1.363 . S
C592 H608 0.931 . S
C593 C592 1.370 1_565 S
C593 C597 1.408 1_565 S
C594 C592 1.363 . S
C594 C595 1.370 . S
C594 C598 1.524 . S
C595 C587 1.503 . S
C595 C594 1.370 . S
C595 C596 1.403 . S
C596 C595 1.403 . S
C596 C597 1.404 . S
C596 C599 1.539 . S
C597 C593 1.408 1_545 S
C597 C596 1.404 . S
C597 H609 0.930 1_545 S
C598 C594 1.524 . S
C598 H610 0.956 . S
C598 H611 0.961 . S
C598 H612 0.961 . S
C599 C596 1.539 . S
C599 H613 0.958 . S
C599 H614 0.961 . S
C599 H615 0.960 . S
H600 C584 0.931 . S
H601 C589 0.929 . S
H602 C590 0.960 . S
H603 C590 0.962 . S
H604 C590 0.960 . S
H605 C591 0.961 . S
H606 C591 0.961 1_655 S
H607 C591 0.961 . S
H608 C592 0.931 . S
H609 C597 0.930 1_565 S
H610 C598 0.956 . S
H611 C598 0.961 . S
H612 C598 0.961 . S
H613 C599 0.958 . S
H614 C599 0.961 . S
H615 C599 0.960 . S
C616 C617 1.387 1_655 S
C616 C618 1.403 . S
C616 H632 0.925 1_655 S
C617 C616 1.387 1_455 S
C617 C621 1.376 . S
C618 C616 1.403 . S
C618 C619 1.369 . S
C618 C622 1.531 . S
C619 C618 1.369 . S
C619 C620 1.410 . S
C619 C627 1.503 . S
C620 C619 1.410 . S
C620 C621 1.392 1_655 S
C620 C623 1.511 . S
C621 C617 1.376 . S
C621 C620 1.392 1_455 S
C621 H633 0.929 . S
C622 C618 1.531 . S
C622 H634 0.960 . S
C622 H635 0.962 . S
C622 H636 0.960 . S
C623 C620 1.511 . S
C623 H637 0.961 . S
C623 H638 0.961 . S
C623 H639 0.961 . S
C624 C625 1.370 . S
C624 C626 1.363 . S
C624 H640 0.931 . S
C625 C624 1.370 . S
C625 C629 1.408 . S
C626 C624 1.363 . S
C626 C627 1.370 . S
C626 C630 1.524 . S
C627 C619 1.503 . S
C627 C626 1.370 . S
C627 C628 1.403 . S
C628 C627 1.403 . S
C628 C629 1.404 . S
C628 C631 1.539 . S
C629 C625 1.408 . S
C629 C628 1.404 . S
C629 H641 0.930 . S
C630 C626 1.524 . S
C630 H642 0.956 . S
C630 H643 0.961 . S
C630 H644 0.961 . S
C631 C628 1.539 . S
C631 H645 0.958 . S
C631 H646 0.961 . S
C631 H647 0.960 . S
H632 C616 0.925 1_455 S
H633 C621 0.929 . S
H634 C622 0.960 . S
H635 C622 0.962 . S
H636 C622 0.960 . S
H637 C623 0.961 . S
H638 C623 0.961 . S
H639 C623 0.961 . S
H640 C624 0.931 . S
H641 C629 0.930 . S
H642 C630 0.956 . S
H643 C630 0.961 . S
H644 C630 0.961 . S
H645 C631 0.958 . S
H646 C631 0.961 . S
H647 C631 0.960 . S
C648 C649 1.391 . S
C648 C650 1.394 . S
C648 H664 0.931 . S
C649 C648 1.391 . S
C649 C653 1.376 . S
C650 C648 1.394 . S
C650 C651 1.369 . S
C650 C654 1.531 . S
C651 C650 1.369 . S
C651 C652 1.410 . S
C651 C659 1.503 . S
C652 C651 1.410 . S
C652 C653 1.392 . S
C652 C655 1.511 . S
C653 C649 1.376 . S
C653 C652 1.392 . S
C653 H665 0.929 . S
C654 C650 1.531 . S
C654 H666 0.960 . S
C654 H667 0.962 . S
C654 H668 0.960 . S
C655 C652 1.511 . S
C655 H669 0.961 . S
C655 H670 0.961 . S
C655 H671 0.961 . S
C656 C657 1.370 . S
C656 C658 1.363 . S
C656 H672 0.931 . S
C657 C656 1.370 . S
C657 C661 1.408 . S
C658 C656 1.363 . S
C658 C659 1.370 . S
C658 C662 1.524 . S
C659 C651 1.503 . S
C659 C658 1.370 . S
C659 C660 1.403 . S
C660 C659 1.403 . S
C660 C661 1.404 . S
C660 C663 1.539 . S
C661 C657 1.408 . S
C661 C660 1.404 . S
C661 H673 0.930 . S
C662 C658 1.524 . S
C662 H674 0.956 . S
C662 H675 0.961 . S
C662 H676 0.961 . S
C663 C660 1.539 . S
C663 H677 0.958 . S
C663 H678 0.961 . S
C663 H679 0.960 . S
H664 C648 0.931 . S
H665 C653 0.929 . S
H666 C654 0.960 . S
H667 C654 0.962 . S
H668 C654 0.960 . S
H669 C655 0.961 . S
H670 C655 0.961 . S
H671 C655 0.961 . S
H672 C656 0.931 . S
H673 C661 0.930 . S
H674 C662 0.956 . S
H675 C662 0.961 . S
H676 C662 0.961 . S
H677 C663 0.958 . S
H678 C663 0.961 . S
H679 C663 0.960 . S
C680 C681 1.391 . S
C680 C682 1.394 . S
C680 H696 0.931 . S
C681 C680 1.391 . S
C681 C685 1.376 . S
C682 C680 1.394 . S
C682 C683 1.369 . S
C682 C686 1.531 . S
C683 C682 1.369 . S
C683 C684 1.410 . S
C683 C691 1.503 . S
C684 C683 1.410 . S
C684 C685 1.392 . S
C684 C687 1.511 . S
C685 C681 1.376 . S
C685 C684 1.392 . S
C685 H697 0.929 . S
C686 C682 1.531 . S
C686 H698 0.960 . S
C686 H699 0.962 . S
C686 H700 0.960 . S
C687 C684 1.511 . S
C687 H701 0.961 . S
C687 H702 0.961 . S
C687 H703 0.961 . S
C688 C689 1.370 . S
C688 C690 1.363 . S
C688 H704 0.931 . S
C689 C688 1.370 . S
C689 C693 1.408 . S
C690 C688 1.363 . S
C690 C691 1.370 . S
C690 C694 1.524 . S
C691 C683 1.503 . S
C691 C690 1.370 . S
C691 C692 1.403 . S
C692 C691 1.403 . S
C692 C693 1.404 . S
C692 C695 1.539 . S
C693 C689 1.408 . S
C693 C692 1.404 . S
C693 H705 0.930 . S
C694 C690 1.524 . S
C694 H706 0.956 . S
C694 H707 0.961 . S
C694 H708 0.961 . S
C695 C692 1.539 . S
C695 H709 0.958 . S
C695 H710 0.961 . S
C695 H711 0.960 . S
H696 C680 0.931 . S
H697 C685 0.929 . S
H698 C686 0.960 . S
H699 C686 0.962 . S
H700 C686 0.960 . S
H701 C687 0.961 . S
H702 C687 0.961 . S
H703 C687 0.961 . S
H704 C688 0.931 . S
H705 C693 0.930 . S
H706 C694 0.956 . S
H707 C694 0.961 . S
H708 C694 0.961 . S
H709 C695 0.958 . S
H710 C695 0.961 . S
H711 C695 0.960 . S
C712 C713 1.391 . S
C712 C714 1.394 . S
C712 H728 0.931 . S
C713 C712 1.391 . S
C713 C717 1.376 . S
C714 C712 1.394 . S
C714 C715 1.369 . S
C714 C718 1.531 . S
C715 C714 1.369 . S
C715 C716 1.410 . S
C715 C723 1.503 . S
C716 C715 1.410 . S
C716 C717 1.392 . S
C716 C719 1.511 . S
C717 C713 1.376 . S
C717 C716 1.392 . S
C717 H729 0.929 . S
C718 C714 1.531 . S
C718 H730 0.960 . S
C718 H731 0.962 . S
C718 H732 0.960 . S
C719 C716 1.511 . S
C719 H733 0.961 . S
C719 H734 0.961 . S
C719 H735 0.961 . S
C720 C721 1.370 . S
C720 C722 1.363 . S
C720 H736 0.931 . S
C721 C720 1.370 . S
C721 C725 1.408 . S
C722 C720 1.363 . S
C722 C723 1.370 . S
C722 C726 1.524 . S
C723 C715 1.503 . S
C723 C722 1.370 . S
C723 C724 1.403 . S
C724 C723 1.403 . S
C724 C725 1.404 . S
C724 C727 1.539 . S
C725 C721 1.408 . S
C725 C724 1.404 . S
C725 H737 0.930 . S
C726 C722 1.524 . S
C726 H738 0.956 . S
C726 H739 0.961 . S
C726 H740 0.961 . S
C727 C724 1.539 . S
C727 H741 0.958 . S
C727 H742 0.961 . S
C727 H743 0.960 . S
H728 C712 0.931 . S
H729 C717 0.929 . S
H730 C718 0.960 . S
H731 C718 0.962 . S
H732 C718 0.960 . S
H733 C719 0.961 . S
H734 C719 0.961 . S
H735 C719 0.961 . S
H736 C720 0.931 . S
H737 C725 0.930 . S
H738 C726 0.956 . S
H739 C726 0.961 . S
H740 C726 0.961 . S
H741 C727 0.958 . S
H742 C727 0.961 . S
H743 C727 0.960 . S
C744 C745 1.391 . S
C744 C746 1.394 . S
C744 H760 0.931 . S
C745 C744 1.391 . S
C745 C749 1.376 . S
C746 C744 1.394 . S
C746 C747 1.369 . S
C746 C750 1.531 . S
C747 C746 1.369 . S
C747 C748 1.410 . S
C747 C755 1.503 . S
C748 C747 1.410 . S
C748 C749 1.392 . S
C748 C751 1.511 . S
C749 C745 1.376 . S
C749 C748 1.392 . S
C749 H761 0.929 . S
C750 C746 1.531 . S
C750 H762 0.960 . S
C750 H763 0.962 . S
C750 H764 0.960 . S
C751 C748 1.511 . S
C751 H765 0.961 . S
C751 H766 0.961 . S
C751 H767 0.961 . S
C752 C753 1.370 . S
C752 C754 1.363 . S
C752 H768 0.931 . S
C753 C752 1.370 . S
C753 C757 1.408 . S
C754 C752 1.363 . S
C754 C755 1.370 . S
C754 C758 1.524 . S
C755 C747 1.503 . S
C755 C754 1.370 . S
C755 C756 1.403 . S
C756 C755 1.403 . S
C756 C757 1.404 . S
C756 C759 1.539 . S
C757 C753 1.408 . S
C757 C756 1.404 . S
C757 H769 0.930 . S
C758 C754 1.524 . S
C758 H770 0.956 . S
C758 H771 0.961 . S
C758 H772 0.961 . S
C759 C756 1.539 . S
C759 H773 0.958 . S
C759 H774 0.961 . S
C759 H775 0.960 . S
H760 C744 0.931 . S
H761 C749 0.929 . S
H762 C750 0.960 . S
H763 C750 0.962 . S
H764 C750 0.960 . S
H765 C751 0.961 . S
H766 C751 0.961 . S
H767 C751 0.961 . S
H768 C752 0.931 . S
H769 C757 0.930 . S
H770 C758 0.956 . S
H771 C758 0.961 . S
H772 C758 0.961 . S
H773 C759 0.958 . S
H774 C759 0.961 . S
H775 C759 0.960 . S
C776 C777 1.391 . S
C776 C778 1.394 . S
C776 H792 0.931 . S
C777 C776 1.391 . S
C777 C781 1.376 . S
C778 C776 1.394 . S
C778 C779 1.369 . S
C778 C782 1.531 . S
C779 C778 1.369 . S
C779 C780 1.410 . S
C779 C787 1.503 . S
C780 C779 1.410 . S
C780 C781 1.392 . S
C780 C783 1.511 . S
C781 C777 1.376 . S
C781 C780 1.392 . S
C781 H793 0.929 . S
C782 C778 1.531 . S
C782 H794 0.960 . S
C782 H795 0.962 . S
C782 H796 0.960 . S
C783 C780 1.511 . S
C783 H797 0.961 . S
C783 H798 0.961 . S
C783 H799 0.961 . S
C784 C785 1.370 . S
C784 C786 1.363 . S
C784 H800 0.931 . S
C785 C784 1.370 . S
C785 C789 1.408 . S
C786 C784 1.363 . S
C786 C787 1.370 . S
C786 C790 1.524 . S
C787 C779 1.503 . S
C787 C786 1.370 . S
C787 C788 1.403 . S
C788 C787 1.403 . S
C788 C789 1.404 . S
C788 C791 1.539 . S
C789 C785 1.408 . S
C789 C788 1.404 . S
C789 H801 0.930 . S
C790 C786 1.524 . S
C790 H802 0.956 . S
C790 H803 0.961 . S
C790 H804 0.961 . S
C791 C788 1.539 . S
C791 H805 0.958 . S
C791 H806 0.961 . S
C791 H807 0.960 . S
H792 C776 0.931 . S
H793 C781 0.929 . S
H794 C782 0.960 . S
H795 C782 0.962 . S
H796 C782 0.960 . S
H797 C783 0.961 . S
H798 C783 0.961 . S
H799 C783 0.961 . S
H800 C784 0.931 . S
H801 C789 0.930 . S
H802 C790 0.956 . S
H803 C790 0.961 . S
H804 C790 0.961 . S
H805 C791 0.958 . S
H806 C791 0.961 . S
H807 C791 0.960 . S
C808 C809 1.391 . S
C808 C810 1.394 . S
C808 H824 0.931 . S
C809 C808 1.391 . S
C809 C813 1.376 . S
C810 C808 1.394 . S
C810 C811 1.369 . S
C810 C814 1.531 . S
C811 C810 1.369 . S
C811 C812 1.410 . S
C811 C819 1.503 . S
C812 C811 1.410 . S
C812 C813 1.392 . S
C812 C815 1.511 . S
C813 C809 1.376 . S
C813 C812 1.392 . S
C813 H825 0.929 . S
C814 C810 1.531 . S
C814 H826 0.960 . S
C814 H827 0.962 . S
C814 H828 0.960 . S
C815 C812 1.511 . S
C815 H829 0.961 . S
C815 H830 0.961 . S
C815 H831 0.961 . S
C816 C817 1.370 . S
C816 C818 1.363 . S
C816 H832 0.931 . S
C817 C816 1.370 . S
C817 C821 1.408 . S
C818 C816 1.363 . S
C818 C819 1.370 . S
C818 C822 1.524 . S
C819 C811 1.503 . S
C819 C818 1.370 . S
C819 C820 1.403 . S
C820 C819 1.403 . S
C820 C821 1.404 . S
C820 C823 1.539 . S
C821 C817 1.408 . S
C821 C820 1.404 . S
C821 H833 0.930 . S
C822 C818 1.524 . S
C822 H834 0.956 . S
C822 H835 0.961 . S
C822 H836 0.961 . S
C823 C820 1.539 . S
C823 H837 0.958 . S
C823 H838 0.961 . S
C823 H839 0.960 . S
H824 C808 0.931 . S
H825 C813 0.929 . S
H826 C814 0.960 . S
H827 C814 0.962 . S
H828 C814 0.960 . S
H829 C815 0.961 . S
H830 C815 0.961 . S
H831 C815 0.961 . S
H832 C816 0.931 . S
H833 C821 0.930 . S
H834 C822 0.956 . S
H835 C822 0.961 . S
H836 C822 0.961 . S
H837 C823 0.958 . S
H838 C823 0.961 . S
H839 C823 0.960 . S
C840 C841 1.391 . S
C840 C842 1.394 1_655 S
C840 H856 0.931 . S
C841 C840 1.391 . S
C841 C845 1.376 1_655 S
C842 C840 1.394 1_455 S
C842 C843 1.369 . S
C842 C846 1.531 . S
C843 C842 1.369 . S
C843 C844 1.410 . S
C843 C851 1.503 . S
C844 C843 1.410 . S
C844 C845 1.392 . S
C844 C847 1.511 . S
C845 C841 1.376 1_455 S
C845 C844 1.392 . S
C845 H857 0.929 . S
C846 C842 1.531 . S
C846 H858 0.960 . S
C846 H859 0.962 . S
C846 H860 0.960 1_455 S
C847 C844 1.511 . S
C847 H861 0.961 . S
C847 H862 0.961 . S
C847 H863 0.961 . S
C848 C849 1.370 . S
C848 C850 1.363 . S
C848 H864 0.931 . S
C849 C848 1.370 . S
C849 C853 1.408 . S
C850 C848 1.363 . S
C850 C851 1.370 . S
C850 C854 1.524 . S
C851 C843 1.503 . S
C851 C850 1.370 . S
C851 C852 1.403 . S
C852 C851 1.403 . S
C852 C853 1.404 . S
C852 C855 1.539 . S
C853 C849 1.408 . S
C853 C852 1.404 . S
C853 H865 0.930 . S
C854 C850 1.524 . S
C854 H866 0.956 . S
C854 H867 0.961 . S
C854 H868 0.961 . S
C855 C852 1.539 . S
C855 H869 0.958 . S
C855 H870 0.961 . S
C855 H871 0.960 . S
H856 C840 0.931 . S
H857 C845 0.929 . S
H858 C846 0.960 . S
H859 C846 0.962 . S
H860 C846 0.960 1_655 S
H861 C847 0.961 . S
H862 C847 0.961 . S
H863 C847 0.961 . S
H864 C848 0.931 . S
H865 C853 0.930 . S
H866 C854 0.956 . S
H867 C854 0.961 . S
H868 C854 0.961 . S
H869 C855 0.958 . S
H870 C855 0.961 . S
H871 C855 0.960 . S
C872 C873 1.391 . S
C872 C874 1.394 . S
C872 H888 0.931 . S
C873 C872 1.391 . S
C873 C877 1.376 . S
C874 C872 1.394 . S
C874 C875 1.369 . S
C874 C878 1.531 . S
C875 C874 1.369 . S
C875 C876 1.410 . S
C875 C883 1.503 . S
C876 C875 1.410 . S
C876 C877 1.392 . S
C876 C879 1.511 . S
C877 C873 1.376 . S
C877 C876 1.392 . S
C877 H889 0.929 . S
C878 C874 1.531 . S
C878 H890 0.960 . S
C878 H891 0.962 . S
C878 H892 0.960 . S
C879 C876 1.511 . S
C879 H893 0.961 . S
C879 H894 0.961 . S
C879 H895 0.961 . S
C880 C881 1.370 . S
C880 C882 1.363 1_545 S
C880 H896 0.931 . S
C881 C880 1.370 . S
C881 C885 1.408 . S
C882 C880 1.363 1_565 S
C882 C883 1.370 . S
C882 C886 1.524 . S
C883 C875 1.503 . S
C883 C882 1.370 . S
C883 C884 1.403 . S
C884 C883 1.403 . S
C884 C885 1.404 1_565 S
C884 C887 1.539 . S
C885 C881 1.408 . S
C885 C884 1.404 1_545 S
C885 H897 0.930 . S
C886 C882 1.524 . S
C886 H898 0.956 . S
C886 H899 0.961 . S
C886 H900 0.961 . S
C887 C884 1.539 . S
C887 H901 0.958 . S
C887 H902 0.961 . S
C887 H903 0.960 . S
H888 C872 0.931 . S
H889 C877 0.929 . S
H890 C878 0.960 . S
H891 C878 0.962 . S
H892 C878 0.960 . S
H893 C879 0.961 . S
H894 C879 0.961 . S
H895 C879 0.961 . S
H896 C880 0.931 . S
H897 C885 0.930 . S
H898 C886 0.956 . S
H899 C886 0.961 . S
H900 C886 0.961 . S
H901 C887 0.958 . S
H902 C887 0.961 . S
H903 C887 0.960 . S
C904 C905 1.391 . S
C904 C906 1.394 1_545 S
C904 H920 0.931 . S
C905 C904 1.391 . S
C905 C909 1.376 . S
C906 C904 1.394 1_565 S
C906 C907 1.369 . S
C906 C910 1.531 . S
C907 C906 1.369 . S
C907 C908 1.410 1_565 S
C907 C915 1.503 . S
C908 C907 1.410 1_545 S
C908 C909 1.392 . S
C908 C911 1.511 . S
C909 C905 1.376 . S
C909 C908 1.392 . S
C909 H921 0.929 . S
C910 C906 1.531 . S
C910 H922 0.960 . S
C910 H923 0.962 . S
C910 H924 0.960 . S
C911 C908 1.511 . S
C911 H925 0.961 . S
C911 H926 0.961 1_545 S
C911 H927 0.961 . S
C912 C913 1.370 1_455 S
C912 C914 1.363 . S
C912 H928 0.931 . S
C913 C912 1.370 1_655 S
C913 C917 1.408 1_655 S
C914 C912 1.363 . S
C914 C915 1.370 . S
C914 C918 1.524 . S
C915 C907 1.503 . S
C915 C914 1.370 . S
C915 C916 1.403 . S
C916 C915 1.403 . S
C916 C917 1.404 . S
C916 C919 1.539 . S
C917 C913 1.408 1_455 S
C917 C916 1.404 . S
C917 H929 0.930 1_455 S
C918 C914 1.524 . S
C918 H930 0.956 . S
C918 H931 0.961 . S
C918 H932 0.961 . S
C919 C916 1.539 . S
C919 H933 0.958 . S
C919 H934 0.961 . S
C919 H935 0.960 1_565 S
H920 C904 0.931 . S
H921 C909 0.929 . S
H922 C910 0.960 . S
H923 C910 0.962 . S
H924 C910 0.960 . S
H925 C911 0.961 . S
H926 C911 0.961 1_565 S
H927 C911 0.961 . S
H928 C912 0.931 . S
H929 C917 0.930 1_655 S
H930 C918 0.956 . S
H931 C918 0.961 . S
H932 C918 0.961 . S
H933 C919 0.958 . S
H934 C919 0.961 . S
H935 C919 0.960 1_545 S
C936 C937 1.391 1_565 S
C936 C938 1.394 . S
C936 H952 0.931 . S
C937 C936 1.391 1_545 S
C937 C941 1.376 . S
C938 C936 1.394 . S
C938 C939 1.369 1_565 S
C938 C942 1.531 . S
C939 C938 1.369 1_545 S
C939 C940 1.410 . S
C939 C947 1.503 1_554 S
C940 C939 1.410 . S
C940 C941 1.392 . S
C940 C943 1.511 . S
C941 C937 1.376 . S
C941 C940 1.392 . S
C941 H953 0.929 . S
C942 C938 1.531 . S
C942 H954 0.957 1_554 S
C942 H955 0.962 . S
C942 H956 0.960 . S
C943 C940 1.511 . S
C943 H957 0.961 . S
C943 H958 0.961 1_554 S
C943 H959 0.961 . S
C944 C945 1.370 . S
C944 C946 1.363 . S
C944 H960 0.931 . S
C945 C944 1.370 . S
C945 C949 1.408 1_545 S
C946 C944 1.363 . S
C946 C947 1.370 . S
C946 C950 1.524 . S
C947 C939 1.503 1_556 S
C947 C946 1.370 . S
C947 C948 1.403 1_545 S
C948 C947 1.403 1_565 S
C948 C949 1.404 . S
C948 C951 1.539 . S
C949 C945 1.408 1_565 S
C949 C948 1.404 . S
C949 H961 0.930 . S
C950 C946 1.524 . S
C950 H962 0.956 . S
C950 H963 0.994 . S
C950 H964 0.961 . S
C951 C948 1.539 . S
C951 H965 0.958 . S
C951 H966 0.961 . S
C951 H967 0.960 1_556 S
H952 C936 0.931 . S
H953 C941 0.929 . S
H954 C942 0.957 1_556 S
H955 C942 0.962 . S
H956 C942 0.960 . S
H957 C943 0.961 . S
H958 C943 0.961 1_556 S
H959 C943 0.961 . S
H960 C944 0.931 . S
H961 C949 0.930 . S
H962 C950 0.956 . S
H963 C950 0.994 . S
H964 C950 0.961 . S
H965 C951 0.958 . S
H966 C951 0.961 . S
H967 C951 0.960 1_554 S
C968 C969 1.391 . S
C968 C970 1.394 . S
C968 H984 0.931 . S
C969 C968 1.391 . S
C969 C973 1.376 1_455 S
C970 C968 1.394 . S
C970 C971 1.369 . S
C970 C974 1.531 . S
C971 C970 1.369 . S
C971 C972 1.410 1_455 S
C971 C979 1.503 1_556 S
C972 C971 1.410 1_655 S
C972 C973 1.392 . S
C972 C975 1.511 . S
C973 C969 1.376 1_655 S
C973 C972 1.392 . S
C973 H985 0.929 . S
C974 C970 1.531 . S
C974 H986 0.960 1_556 S
C974 H987 0.962 . S
C974 H988 0.960 . S
C975 C972 1.511 . S
C975 H989 0.961 . S
C975 H990 0.955 . S
C975 H991 0.961 . S
C976 C977 1.370 . S
C976 C978 1.363 . S
C976 H992 0.931 . S
C977 C976 1.370 . S
C977 C981 1.408 . S
C978 C976 1.363 . S
C978 C979 1.370 . S
C978 C982 1.524 . S
C979 C971 1.503 1_554 S
C979 C978 1.370 . S
C979 C980 1.403 . S
C980 C979 1.403 . S
C980 C981 1.404 . S
C980 C983 1.539 . S
C981 C977 1.408 . S
C981 C980 1.404 . S
C981 H993 0.930 . S
C982 C978 1.524 . S
C982 H994 0.956 . S
C982 H995 0.961 1_454 S
C982 H996 0.961 . S
C983 C980 1.539 . S
C983 H997 0.958 . S
C983 H998 0.961 1_455 S
C983 H999 0.962 1_554 S
H984 C968 0.931 . S
H985 C973 0.929 . S
H986 C974 0.960 1_554 S
H987 C974 0.962 . S
H988 C974 0.960 . S
H989 C975 0.961 . S
H990 C975 0.955 . S
H991 C975 0.961 . S
H992 C976 0.931 . S
H993 C981 0.930 . S
H994 C982 0.956 . S
H995 C982 0.961 1_656 S
H996 C982 0.961 . S
H997 C983 0.958 . S
H998 C983 0.961 1_655 S
H999 C983 0.962 1_556 S
C1000 C1001 1.391 . S
C1000 C1002 1.394 . S
C1000 H1016 0.931 . S
C1001 C1000 1.391 . S
C1001 C1005 1.376 . S
C1002 C1000 1.394 . S
C1002 C1003 1.369 . S
C1002 C1006 1.531 . S
C1003 C1002 1.369 . S
C1003 C1004 1.410 . S
C1003 C1011 1.503 1_556 S
C1004 C1003 1.410 . S
C1004 C1005 1.392 . S
C1004 C1007 1.511 . S
C1005 C1001 1.376 . S
C1005 C1004 1.392 . S
C1005 H1017 0.929 . S
C1006 C1002 1.531 . S
C1006 H1018 0.960 1_556 S
C1006 H1019 0.962 . S
C1006 H1020 0.960 . S
C1007 C1004 1.511 . S
C1007 H1021 0.961 . S
C1007 H1022 0.961 1_556 S
C1007 H1023 0.961 . S
C1008 C1009 1.370 . S
C1008 C1010 1.363 . S
C1008 H1024 0.931 . S
C1009 C1008 1.370 . S
C1009 C1013 1.408 . S
C1010 C1008 1.363 . S
C1010 C1011 1.370 . S
C1010 C1014 1.524 . S
C1011 C1003 1.503 1_554 S
C1011 C1010 1.370 . S
C1011 C1012 1.403 . S
C1012 C1011 1.403 . S
C1012 C1013 1.404 . S
C1012 C1015 1.539 . S
C1013 C1009 1.408 . S
C1013 C1012 1.404 . S
C1013 H1025 0.930 . S
C1014 C1010 1.524 . S
C1014 H1026 0.975 . S
C1014 H1027 0.961 1_554 S
C1014 H1028 0.961 . S
C1015 C1012 1.539 . S
C1015 H1029 0.958 . S
C1015 H1030 0.961 . S
C1015 H1031 1.001 . S
H1016 C1000 0.931 . S
H1017 C1005 0.929 . S
H1018 C1006 0.960 1_554 S
H1019 C1006 0.962 . S
H1020 C1006 0.960 . S
H1021 C1007 0.961 . S
H1022 C1007 0.961 1_554 S
H1023 C1007 0.961 . S
H1024 C1008 0.931 . S
H1025 C1013 0.930 . S
H1026 C1014 0.975 . S
H1027 C1014 0.961 1_556 S
H1028 C1014 0.961 . S
H1029 C1015 0.958 . S
H1030 C1015 0.961 . S
H1031 C1015 1.001 . S
C1032 C1033 1.391 . S
C1032 C1034 1.394 . S
C1032 H1048 0.931 . S
C1033 C1032 1.391 . S
C1033 C1037 1.376 . S
C1034 C1032 1.394 . S
C1034 C1035 1.369 . S
C1034 C1038 1.531 . S
C1035 C1034 1.369 . S
C1035 C1036 1.410 . S
C1035 C1043 1.503 . S
C1036 C1035 1.410 . S
C1036 C1037 1.392 . S
C1036 C1039 1.511 . S
C1037 C1033 1.376 . S
C1037 C1036 1.392 . S
C1037 H1049 0.929 . S
C1038 C1034 1.531 . S
C1038 H1050 0.960 . S
C1038 H1051 0.962 . S
C1038 H1052 0.960 . S
C1039 C1036 1.511 . S
C1039 H1053 0.961 . S
C1039 H1054 0.961 . S
C1039 H1055 0.961 . S
C1040 C1041 1.370 . S
C1040 C1042 1.363 . S
C1040 H1056 0.931 . S
C1041 C1040 1.370 . S
C1041 C1045 1.408 . S
C1042 C1040 1.363 . S
C1042 C1043 1.370 . S
C1042 C1046 1.524 . S
C1043 C1035 1.503 . S
C1043 C1042 1.370 . S
C1043 C1044 1.403 . S
C1044 C1043 1.403 . S
C1044 C1045 1.404 . S
C1044 C1047 1.539 . S
C1045 C1041 1.408 . S
C1045 C1044 1.404 . S
C1045 H1057 0.930 . S
C1046 C1042 1.524 . S
C1046 H1058 0.956 . S
C1046 H1059 0.961 . S
C1046 H1060 0.961 . S
C1047 C1044 1.539 . S
C1047 H1061 0.958 . S
C1047 H1062 0.961 . S
C1047 H1063 0.960 . S
H1048 C1032 0.931 . S
H1049 C1037 0.929 . S
H1050 C1038 0.960 . S
H1051 C1038 0.962 . S
H1052 C1038 0.960 . S
H1053 C1039 0.961 . S
H1054 C1039 0.961 . S
H1055 C1039 0.961 . S
H1056 C1040 0.931 . S
H1057 C1045 0.930 . S
H1058 C1046 0.956 . S
H1059 C1046 0.961 . S
H1060 C1046 0.961 . S
H1061 C1047 0.958 . S
H1062 C1047 0.961 . S
H1063 C1047 0.960 . S
C1064 C1065 1.391 . S
C1064 C1066 1.394 . S
C1064 H1080 0.931 . S
C1065 C1064 1.391 . S
C1065 C1069 1.376 . S
C1066 C1064 1.394 . S
C1066 C1067 1.369 . S
C1066 C1070 1.531 . S
C1067 C1066 1.369 . S
C1067 C1068 1.410 . S
C1067 C1075 1.503 . S
C1068 C1067 1.410 . S
C1068 C1069 1.392 . S
C1068 C1071 1.511 . S
C1069 C1065 1.376 . S
C1069 C1068 1.392 . S
C1069 H1081 0.929 . S
C1070 C1066 1.531 . S
C1070 H1082 0.960 . S
C1070 H1083 0.962 . S
C1070 H1084 0.960 . S
C1071 C1068 1.511 . S
C1071 H1085 0.961 . S
C1071 H1086 0.961 . S
C1071 H1087 0.961 . S
C1072 C1073 1.370 . S
C1072 C1074 1.363 . S
C1072 H1088 0.931 . S
C1073 C1072 1.370 . S
C1073 C1077 1.408 . S
C1074 C1072 1.363 . S
C1074 C1075 1.370 . S
C1074 C1078 1.524 . S
C1075 C1067 1.503 . S
C1075 C1074 1.370 . S
C1075 C1076 1.403 . S
C1076 C1075 1.403 . S
C1076 C1077 1.404 . S
C1076 C1079 1.539 . S
C1077 C1073 1.408 . S
C1077 C1076 1.404 . S
C1077 H1089 0.930 . S
C1078 C1074 1.524 . S
C1078 H1090 0.956 . S
C1078 H1091 0.961 . S
C1078 H1092 0.961 . S
C1079 C1076 1.539 . S
C1079 H1093 0.958 . S
C1079 H1094 0.961 . S
C1079 H1095 0.960 . S
H1080 C1064 0.931 . S
H1081 C1069 0.929 . S
H1082 C1070 0.960 . S
H1083 C1070 0.962 . S
H1084 C1070 0.960 . S
H1085 C1071 0.961 . S
H1086 C1071 0.961 . S
H1087 C1071 0.961 . S
H1088 C1072 0.931 . S
H1089 C1077 0.930 . S
H1090 C1078 0.956 . S
H1091 C1078 0.961 . S
H1092 C1078 0.961 . S
H1093 C1079 0.958 . S
H1094 C1079 0.961 . S
H1095 C1079 0.960 . S
C1096 C1097 1.391 . S
C1096 C1098 1.394 . S
C1096 H1112 0.931 . S
C1097 C1096 1.391 . S
C1097 C1101 1.376 . S
C1098 C1096 1.394 . S
C1098 C1099 1.369 . S
C1098 C1102 1.531 . S
C1099 C1098 1.369 . S
C1099 C1100 1.410 . S
C1099 C1107 1.503 . S
C1100 C1099 1.410 . S
C1100 C1101 1.392 . S
C1100 C1103 1.511 . S
C1101 C1097 1.376 . S
C1101 C1100 1.392 . S
C1101 H1113 0.929 . S
C1102 C1098 1.531 . S
C1102 H1114 0.960 . S
C1102 H1115 0.962 . S
C1102 H1116 0.960 . S
C1103 C1100 1.511 . S
C1103 H1117 0.961 . S
C1103 H1118 0.961 . S
C1103 H1119 0.961 . S
C1104 C1105 1.370 . S
C1104 C1106 1.363 . S
C1104 H1120 0.931 . S
C1105 C1104 1.370 . S
C1105 C1109 1.408 . S
C1106 C1104 1.363 . S
C1106 C1107 1.370 . S
C1106 C1110 1.524 . S
C1107 C1099 1.503 . S
C1107 C1106 1.370 . S
C1107 C1108 1.403 . S
C1108 C1107 1.403 . S
C1108 C1109 1.404 . S
C1108 C1111 1.539 . S
C1109 C1105 1.408 . S
C1109 C1108 1.404 . S
C1109 H1121 0.930 . S
C1110 C1106 1.524 . S
C1110 H1122 0.956 . S
C1110 H1123 0.961 . S
C1110 H1124 0.961 . S
C1111 C1108 1.539 . S
C1111 H1125 0.958 . S
C1111 H1126 0.961 . S
C1111 H1127 0.960 . S
H1112 C1096 0.931 . S
H1113 C1101 0.929 . S
H1114 C1102 0.960 . S
H1115 C1102 0.962 . S
H1116 C1102 0.960 . S
H1117 C1103 0.961 . S
H1118 C1103 0.961 . S
H1119 C1103 0.961 . S
H1120 C1104 0.931 . S
H1121 C1109 0.930 . S
H1122 C1110 0.956 . S
H1123 C1110 0.961 . S
H1124 C1110 0.961 . S
H1125 C1111 0.958 . S
H1126 C1111 0.961 . S
H1127 C1111 0.960 . S
C1128 C1129 1.391 . S
C1128 C1130 1.394 . S
C1128 H1144 0.931 . S
C1129 C1128 1.391 . S
C1129 C1133 1.376 . S
C1130 C1128 1.394 . S
C1130 C1131 1.369 . S
C1130 C1134 1.531 . S
C1131 C1130 1.369 . S
C1131 C1132 1.410 . S
C1131 C1139 1.503 . S
C1132 C1131 1.410 . S
C1132 C1133 1.392 . S
C1132 C1135 1.511 . S
C1133 C1129 1.376 . S
C1133 C1132 1.392 . S
C1133 H1145 0.929 . S
C1134 C1130 1.531 . S
C1134 H1146 0.960 . S
C1134 H1147 0.962 . S
C1134 H1148 0.960 . S
C1135 C1132 1.511 . S
C1135 H1149 0.961 . S
C1135 H1150 0.961 . S
C1135 H1151 0.961 . S
C1136 C1137 1.370 . S
C1136 C1138 1.363 . S
C1136 H1152 0.931 . S
C1137 C1136 1.370 . S
C1137 C1141 1.408 . S
C1138 C1136 1.363 . S
C1138 C1139 1.370 . S
C1138 C1142 1.524 . S
C1139 C1131 1.503 . S
C1139 C1138 1.370 . S
C1139 C1140 1.403 . S
C1140 C1139 1.403 . S
C1140 C1141 1.404 . S
C1140 C1143 1.539 . S
C1141 C1137 1.408 . S
C1141 C1140 1.404 . S
C1141 H1153 0.930 . S
C1142 C1138 1.524 . S
C1142 H1154 0.956 . S
C1142 H1155 0.961 . S
C1142 H1156 0.961 . S
C1143 C1140 1.539 . S
C1143 H1157 0.958 . S
C1143 H1158 0.961 . S
C1143 H1159 0.960 . S
H1144 C1128 0.931 . S
H1145 C1133 0.929 . S
H1146 C1134 0.960 . S
H1147 C1134 0.962 . S
H1148 C1134 0.960 . S
H1149 C1135 0.961 . S
H1150 C1135 0.961 . S
H1151 C1135 0.961 . S
H1152 C1136 0.931 . S
H1153 C1141 0.930 . S
H1154 C1142 0.956 . S
H1155 C1142 0.961 . S
H1156 C1142 0.961 . S
H1157 C1143 0.958 . S
H1158 C1143 0.961 . S
H1159 C1143 0.960 . S
C1160 C1161 1.391 . S
C1160 C1162 1.394 . S
C1160 H1176 0.931 . S
C1161 C1160 1.391 . S
C1161 C1165 1.376 . S
C1162 C1160 1.394 . S
C1162 C1163 1.369 . S
C1162 C1166 1.531 . S
C1163 C1162 1.369 . S
C1163 C1164 1.410 . S
C1163 C1171 1.503 . S
C1164 C1163 1.410 . S
C1164 C1165 1.392 . S
C1164 C1167 1.511 . S
C1165 C1161 1.376 . S
C1165 C1164 1.392 . S
C1165 H1177 0.929 . S
C1166 C1162 1.531 . S
C1166 H1178 0.960 . S
C1166 H1179 0.962 . S
C1166 H1180 0.960 . S
C1167 C1164 1.511 . S
C1167 H1181 0.961 . S
C1167 H1182 0.961 . S
C1167 H1183 0.961 . S
C1168 C1169 1.370 . S
C1168 C1170 1.363 . S
C1168 H1184 0.931 . S
C1169 C1168 1.370 . S
C1169 C1173 1.408 . S
C1170 C1168 1.363 . S
C1170 C1171 1.370 . S
C1170 C1174 1.524 . S
C1171 C1163 1.503 . S
C1171 C1170 1.370 . S
C1171 C1172 1.403 . S
C1172 C1171 1.403 . S
C1172 C1173 1.404 . S
C1172 C1175 1.539 . S
C1173 C1169 1.408 . S
C1173 C1172 1.404 . S
C1173 H1185 0.930 . S
C1174 C1170 1.524 . S
C1174 H1186 0.956 . S
C1174 H1187 0.961 . S
C1174 H1188 0.961 . S
C1175 C1172 1.539 . S
C1175 H1189 0.958 . S
C1175 H1190 0.961 . S
C1175 H1191 0.960 . S
H1176 C1160 0.931 . S
H1177 C1165 0.929 . S
H1178 C1166 0.960 . S
H1179 C1166 0.962 . S
H1180 C1166 0.960 . S
H1181 C1167 0.961 . S
H1182 C1167 0.961 . S
H1183 C1167 0.961 . S
H1184 C1168 0.931 . S
H1185 C1173 0.930 . S
H1186 C1174 0.956 . S
H1187 C1174 0.961 . S
H1188 C1174 0.961 . S
H1189 C1175 0.958 . S
H1190 C1175 0.961 . S
H1191 C1175 0.960 . S
C1192 C1193 1.391 . S
C1192 C1194 1.394 . S
C1192 H1208 0.931 . S
C1193 C1192 1.391 . S
C1193 C1197 1.376 . S
C1194 C1192 1.394 . S
C1194 C1195 1.369 . S
C1194 C1198 1.531 . S
C1195 C1194 1.369 . S
C1195 C1196 1.410 . S
C1195 C1203 1.503 . S
C1196 C1195 1.410 . S
C1196 C1197 1.392 . S
C1196 C1199 1.511 . S
C1197 C1193 1.376 . S
C1197 C1196 1.392 . S
C1197 H1209 0.929 . S
C1198 C1194 1.531 . S
C1198 H1210 0.960 . S
C1198 H1211 0.962 . S
C1198 H1212 0.960 . S
C1199 C1196 1.511 . S
C1199 H1213 0.961 . S
C1199 H1214 0.961 . S
C1199 H1215 0.961 . S
C1200 C1201 1.370 . S
C1200 C1202 1.363 . S
C1200 H1216 0.931 . S
C1201 C1200 1.370 . S
C1201 C1205 1.408 . S
C1202 C1200 1.363 . S
C1202 C1203 1.370 . S
C1202 C1206 1.524 . S
C1203 C1195 1.503 . S
C1203 C1202 1.370 . S
C1203 C1204 1.403 . S
C1204 C1203 1.403 . S
C1204 C1205 1.404 . S
C1204 C1207 1.539 . S
C1205 C1201 1.408 . S
C1205 C1204 1.404 . S
C1205 H1217 0.930 . S
C1206 C1202 1.524 . S
C1206 H1218 0.956 . S
C1206 H1219 0.961 . S
C1206 H1220 0.961 . S
C1207 C1204 1.539 . S
C1207 H1221 0.958 . S
C1207 H1222 0.961 . S
C1207 H1223 0.960 . S
H1208 C1192 0.931 . S
H1209 C1197 0.929 . S
H1210 C1198 0.960 . S
H1211 C1198 0.962 . S
H1212 C1198 0.960 . S
H1213 C1199 0.961 . S
H1214 C1199 0.961 . S
H1215 C1199 0.961 . S
H1216 C1200 0.931 . S
H1217 C1205 0.930 . S
H1218 C1206 0.956 . S
H1219 C1206 0.961 . S
H1220 C1206 0.961 . S
H1221 C1207 0.958 . S
H1222 C1207 0.961 . S
H1223 C1207 0.960 . S
C1224 C1225 1.391 . S
C1224 C1226 1.394 . S
C1224 H1240 0.931 . S
C1225 C1224 1.391 . S
C1225 C1229 1.376 . S
C1226 C1224 1.394 . S
C1226 C1227 1.369 . S
C1226 C1230 1.531 . S
C1227 C1226 1.369 . S
C1227 C1228 1.410 . S
C1227 C1235 1.503 . S
C1228 C1227 1.410 . S
C1228 C1229 1.392 . S
C1228 C1231 1.511 . S
C1229 C1225 1.376 . S
C1229 C1228 1.392 . S
C1229 H1241 0.929 . S
C1230 C1226 1.531 . S
C1230 H1242 0.960 . S
C1230 H1243 0.962 . S
C1230 H1244 0.960 . S
C1231 C1228 1.511 . S
C1231 H1245 0.961 . S
C1231 H1246 0.961 . S
C1231 H1247 0.961 . S
C1232 C1233 1.370 . S
C1232 C1234 1.363 . S
C1232 H1248 0.931 . S
C1233 C1232 1.370 . S
C1233 C1237 1.408 1_565 S
C1234 C1232 1.363 . S
C1234 C1235 1.370 . S
C1234 C1238 1.524 . S
C1235 C1227 1.503 . S
C1235 C1234 1.370 . S
C1235 C1236 1.403 . S
C1236 C1235 1.403 . S
C1236 C1237 1.404 1_565 S
C1236 C1239 1.539 1_565 S
C1237 C1233 1.408 1_545 S
C1237 C1236 1.404 1_545 S
C1237 H1249 0.930 . S
C1238 C1234 1.524 . S
C1238 H1250 0.956 . S
C1238 H1251 0.961 . S
C1238 H1252 0.961 . S
C1239 C1236 1.539 1_545 S
C1239 H1253 0.958 . S
C1239 H1254 0.961 . S
C1239 H1255 0.960 . S
H1240 C1224 0.931 . S
H1241 C1229 0.929 . S
H1242 C1230 0.960 . S
H1243 C1230 0.962 . S
H1244 C1230 0.960 . S
H1245 C1231 0.961 . S
H1246 C1231 0.961 . S
H1247 C1231 0.961 . S
H1248 C1232 0.931 . S
H1249 C1237 0.930 . S
H1250 C1238 0.956 . S
H1251 C1238 0.961 . S
H1252 C1238 0.961 . S
H1253 C1239 0.958 . S
H1254 C1239 0.961 . S
H1255 C1239 0.960 . S
C1256 C1257 1.391 . S
C1256 C1258 1.394 . S
C1256 H1272 0.931 . S
C1257 C1256 1.391 . S
C1257 C1261 1.376 . S
C1258 C1256 1.394 . S
C1258 C1259 1.369 . S
C1258 C1262 1.531 . S
C1259 C1258 1.369 . S
C1259 C1260 1.410 . S
C1259 C1267 1.503 . S
C1260 C1259 1.410 . S
C1260 C1261 1.392 . S
C1260 C1263 1.511 . S
C1261 C1257 1.376 . S
C1261 C1260 1.392 . S
C1261 H1273 0.929 . S
C1262 C1258 1.531 . S
C1262 H1274 0.960 . S
C1262 H1275 0.962 . S
C1262 H1276 0.960 . S
C1263 C1260 1.511 . S
C1263 H1277 0.961 1_455 S
C1263 H1278 0.961 . S
C1263 H1279 0.961 . S
C1264 C1265 1.370 . S
C1264 C1266 1.363 . S
C1264 H1280 0.931 . S
C1265 C1264 1.370 . S
C1265 C1269 1.408 . S
C1266 C1264 1.363 . S
C1266 C1267 1.370 . S
C1266 C1270 1.524 . S
C1267 C1259 1.503 . S
C1267 C1266 1.370 . S
C1267 C1268 1.403 . S
C1268 C1267 1.403 . S
C1268 C1269 1.404 . S
C1268 C1271 1.539 . S
C1269 C1265 1.408 . S
C1269 C1268 1.404 . S
C1269 H1281 0.930 . S
C1270 C1266 1.524 . S
C1270 H1282 0.956 . S
C1270 H1283 0.961 . S
C1270 H1284 0.961 . S
C1271 C1268 1.539 . S
C1271 H1285 0.958 . S
C1271 H1286 0.961 . S
C1271 H1287 0.960 . S
H1272 C1256 0.931 . S
H1273 C1261 0.929 . S
H1274 C1262 0.960 . S
H1275 C1262 0.962 . S
H1276 C1262 0.960 . S
H1277 C1263 0.961 1_655 S
H1278 C1263 0.961 . S
H1279 C1263 0.961 . S
H1280 C1264 0.931 . S
H1281 C1269 0.930 . S
H1282 C1270 0.956 . S
H1283 C1270 0.961 . S
H1284 C1270 0.961 . S
H1285 C1271 0.958 . S
H1286 C1271 0.961 . S
H1287 C1271 0.960 . S
C1288 C1289 1.391 . S
C1288 C1290 1.394 . S
C1288 H1304 0.931 . S
C1289 C1288 1.391 . S
C1289 C1293 1.376 . S
C1290 C1288 1.394 . S
C1290 C1291 1.369 . S
C1290 C1294 1.531 . S
C1291 C1290 1.369 . S
C1291 C1292 1.410 . S
C1291 C1299 1.503 . S
C1292 C1291 1.410 . S
C1292 C1293 1.392 . S
C1292 C1295 1.511 . S
C1293 C1289 1.376 . S
C1293 C1292 1.392 . S
C1293 H1305 0.929 . S
C1294 C1290 1.531 . S
C1294 H1306 0.960 . S
C1294 H1307 0.962 . S
C1294 H1308 0.960 . S
C1295 C1292 1.511 . S
C1295 H1309 0.961 . S
C1295 H1310 0.961 . S
C1295 H1311 0.961 . S
C1296 C1297 1.370 . S
C1296 C1298 1.363 . S
C1296 H1312 0.931 . S
C1297 C1296 1.370 . S
C1297 C1301 1.408 . S
C1298 C1296 1.363 . S
C1298 C1299 1.370 . S
C1298 C1302 1.524 . S
C1299 C1291 1.503 . S
C1299 C1298 1.370 . S
C1299 C1300 1.403 . S
C1300 C1299 1.403 . S
C1300 C1301 1.404 . S
C1300 C1303 1.539 . S
C1301 C1297 1.408 . S
C1301 C1300 1.404 . S
C1301 H1313 0.930 . S
C1302 C1298 1.524 . S
C1302 H1314 0.956 . S
C1302 H1315 0.961 . S
C1302 H1316 0.961 . S
C1303 C1300 1.539 . S
C1303 H1317 0.958 . S
C1303 H1318 0.961 . S
C1303 H1319 0.960 . S
H1304 C1288 0.931 . S
H1305 C1293 0.929 . S
H1306 C1294 0.960 . S
H1307 C1294 0.962 . S
H1308 C1294 0.960 . S
H1309 C1295 0.961 . S
H1310 C1295 0.961 . S
H1311 C1295 0.961 . S
H1312 C1296 0.931 . S
H1313 C1301 0.930 . S
H1314 C1302 0.956 . S
H1315 C1302 0.961 . S
H1316 C1302 0.961 . S
H1317 C1303 0.958 . S
H1318 C1303 0.961 . S
H1319 C1303 0.960 . S
C1320 C1321 1.391 . S
C1320 C1322 1.394 . S
C1320 H1336 0.931 1_655 S
C1321 C1320 1.391 . S
C1321 C1325 1.376 . S
C1322 C1320 1.394 . S
C1322 C1323 1.369 . S
C1322 C1326 1.531 . S
C1323 C1322 1.369 . S
C1323 C1324 1.410 . S
C1323 C1331 1.503 . S
C1324 C1323 1.410 . S
C1324 C1325 1.392 . S
C1324 C1327 1.511 . S
C1325 C1321 1.376 . S
C1325 C1324 1.392 . S
C1325 H1337 0.929 . S
C1326 C1322 1.531 . S
C1326 H1338 0.960 . S
C1326 H1339 0.962 1_655 S
C1326 H1340 0.961 1_655 S
C1327 C1324 1.511 . S
C1327 H1341 0.961 . S
C1327 H1342 0.961 . S
C1327 H1343 0.961 . S
C1328 C1329 1.370 . S
C1328 C1330 1.363 . S
C1328 H1344 0.931 . S
C1329 C1328 1.370 . S
C1329 C1333 1.408 . S
C1330 C1328 1.363 . S
C1330 C1331 1.370 . S
C1330 C1334 1.524 . S
C1331 C1323 1.503 . S
C1331 C1330 1.370 . S
C1331 C1332 1.403 . S
C1332 C1331 1.403 . S
C1332 C1333 1.404 . S
C1332 C1335 1.539 . S
C1333 C1329 1.408 . S
C1333 C1332 1.404 . S
C1333 H1345 0.930 . S
C1334 C1330 1.524 . S
C1334 H1346 0.956 . S
C1334 H1347 0.961 . S
C1334 H1348 0.961 . S
C1335 C1332 1.539 . S
C1335 H1349 0.958 . S
C1335 H1350 0.961 . S
C1335 H1351 0.960 . S
H1336 C1320 0.931 1_455 S
H1337 C1325 0.929 . S
H1338 C1326 0.960 . S
H1339 C1326 0.962 1_455 S
H1340 C1326 0.961 1_455 S
H1341 C1327 0.961 . S
H1342 C1327 0.961 . S
H1343 C1327 0.961 . S
H1344 C1328 0.931 . S
H1345 C1333 0.930 . S
H1346 C1334 0.956 . S
H1347 C1334 0.961 . S
H1348 C1334 0.961 . S
H1349 C1335 0.958 . S
H1350 C1335 0.961 . S
H1351 C1335 0.960 . S
C1352 C1353 1.391 . S
C1352 C1354 1.394 . S
C1352 H1368 0.931 . S
C1353 C1352 1.391 . S
C1353 C1357 1.376 . S
C1354 C1352 1.394 . S
C1354 C1355 1.369 . S
C1354 C1358 1.531 . S
C1355 C1354 1.369 . S
C1355 C1356 1.410 . S
C1355 C1363 1.503 . S
C1356 C1355 1.410 . S
C1356 C1357 1.392 . S
C1356 C1359 1.511 . S
C1357 C1353 1.376 . S
C1357 C1356 1.392 . S
C1357 H1369 0.929 . S
C1358 C1354 1.531 . S
C1358 H1370 0.960 . S
C1358 H1371 0.962 . S
C1358 H1372 0.960 . S
C1359 C1356 1.511 . S
C1359 H1373 0.961 . S
C1359 H1374 0.961 . S
C1359 H1375 0.961 . S
C1360 C1361 1.370 . S
C1360 C1362 1.363 . S
C1360 H1376 0.931 . S
C1361 C1360 1.370 . S
C1361 C1365 1.408 . S
C1362 C1360 1.363 . S
C1362 C1363 1.370 . S
C1362 C1366 1.524 . S
C1363 C1355 1.503 . S
C1363 C1362 1.370 . S
C1363 C1364 1.403 . S
C1364 C1363 1.403 . S
C1364 C1365 1.404 . S
C1364 C1367 1.539 . S
C1365 C1361 1.408 . S
C1365 C1364 1.404 . S
C1365 H1377 0.930 . S
C1366 C1362 1.524 . S
C1366 H1378 0.956 . S
C1366 H1379 0.961 . S
C1366 H1380 0.961 . S
C1367 C1364 1.539 . S
C1367 H1381 0.958 . S
C1367 H1382 0.961 . S
C1367 H1383 0.960 . S
H1368 C1352 0.931 . S
H1369 C1357 0.929 . S
H1370 C1358 0.960 . S
H1371 C1358 0.962 . S
H1372 C1358 0.960 . S
H1373 C1359 0.961 . S
H1374 C1359 0.961 . S
H1375 C1359 0.961 . S
H1376 C1360 0.931 . S
H1377 C1365 0.930 . S
H1378 C1366 0.956 . S
H1379 C1366 0.961 . S
H1380 C1366 0.961 . S
H1381 C1367 0.958 . S
H1382 C1367 0.961 . S
H1383 C1367 0.960 . S
C1384 C1385 1.391 . S
C1384 C1386 1.394 . S
C1384 H1400 0.931 . S
C1385 C1384 1.391 . S
C1385 C1389 1.376 . S
C1386 C1384 1.394 . S
C1386 C1387 1.369 . S
C1386 C1390 1.531 . S
C1387 C1386 1.369 . S
C1387 C1388 1.410 . S
C1387 C1395 1.503 . S
C1388 C1387 1.410 . S
C1388 C1389 1.392 . S
C1388 C1391 1.511 . S
C1389 C1385 1.376 . S
C1389 C1388 1.392 . S
C1389 H1401 0.929 . S
C1390 C1386 1.531 . S
C1390 H1402 0.960 . S
C1390 H1403 0.962 . S
C1390 H1404 0.960 . S
C1391 C1388 1.511 . S
C1391 H1405 0.961 . S
C1391 H1406 0.961 . S
C1391 H1407 0.961 . S
C1392 C1393 1.370 . S
C1392 C1394 1.363 . S
C1392 H1408 0.931 . S
C1393 C1392 1.370 . S
C1393 C1397 1.408 . S
C1394 C1392 1.363 . S
C1394 C1395 1.370 . S
C1394 C1398 1.524 . S
C1395 C1387 1.503 . S
C1395 C1394 1.370 . S
C1395 C1396 1.403 . S
C1396 C1395 1.403 . S
C1396 C1397 1.404 . S
C1396 C1399 1.539 . S
C1397 C1393 1.408 . S
C1397 C1396 1.404 . S
C1397 H1409 0.930 . S
C1398 C1394 1.524 . S
C1398 H1410 0.956 . S
C1398 H1411 0.961 . S
C1398 H1412 0.961 . S
C1399 C1396 1.539 . S
C1399 H1413 0.958 . S
C1399 H1414 0.961 1_545 S
C1399 H1415 0.960 . S
H1400 C1384 0.931 . S
H1401 C1389 0.929 . S
H1402 C1390 0.960 . S
H1403 C1390 0.962 . S
H1404 C1390 0.960 . S
H1405 C1391 0.961 . S
H1406 C1391 0.961 . S
H1407 C1391 0.961 . S
H1408 C1392 0.931 . S
H1409 C1397 0.930 . S
H1410 C1398 0.956 . S
H1411 C1398 0.961 . S
H1412 C1398 0.961 . S
H1413 C1399 0.958 . S
H1414 C1399 0.961 1_565 S
H1415 C1399 0.960 . S
C1416 C1417 1.391 . S
C1416 C1418 1.394 . S
C1416 H1432 0.931 . S
C1417 C1416 1.391 . S
C1417 C1421 1.376 . S
C1418 C1416 1.394 . S
C1418 C1419 1.369 . S
C1418 C1422 1.531 . S
C1419 C1418 1.369 . S
C1419 C1420 1.410 . S
C1419 C1427 1.503 1_655 S
C1420 C1419 1.410 . S
C1420 C1421 1.392 . S
C1420 C1423 1.511 1_655 S
C1421 C1417 1.376 . S
C1421 C1420 1.392 . S
C1421 H1433 0.929 . S
C1422 C1418 1.531 . S
C1422 H1434 0.960 . S
C1422 H1435 0.962 . S
C1422 H1436 0.960 . S
C1423 C1420 1.511 1_455 S
C1423 H1437 0.961 . S
C1423 H1438 0.961 . S
C1423 H1439 0.961 1_455 S
C1424 C1425 1.370 . S
C1424 C1426 1.363 . S
C1424 H1440 0.931 . S
C1425 C1424 1.370 . S
C1425 C1429 1.408 . S
C1426 C1424 1.363 . S
C1426 C1427 1.370 . S
C1426 C1430 1.524 . S
C1427 C1419 1.503 1_455 S
C1427 C1426 1.370 . S
C1427 C1428 1.403 . S
C1428 C1427 1.403 . S
C1428 C1429 1.404 . S
C1428 C1431 1.539 1_455 S
C1429 C1425 1.408 . S
C1429 C1428 1.404 . S
C1429 H1441 0.930 . S
C1430 C1426 1.524 . S
C1430 H1442 0.956 . S
C1430 H1443 0.961 . S
C1430 H1444 0.961 . S
C1431 C1428 1.539 1_655 S
C1431 H1445 0.958 . S
C1431 H1446 0.961 . S
C1431 H1447 0.960 . S
H1432 C1416 0.931 . S
H1433 C1421 0.929 . S
H1434 C1422 0.960 . S
H1435 C1422 0.962 . S
H1436 C1422 0.960 . S
H1437 C1423 0.961 . S
H1438 C1423 0.961 . S
H1439 C1423 0.961 1_655 S
H1440 C1424 0.931 . S
H1441 C1429 0.930 . S
H1442 C1430 0.956 . S
H1443 C1430 0.961 . S
H1444 C1430 0.961 . S
H1445 C1431 0.958 . S
H1446 C1431 0.961 . S
H1447 C1431 0.960 . S
C1448 C1449 1.391 . S
C1448 C1450 1.394 . S
C1448 H1464 0.931 . S
C1449 C1448 1.391 . S
C1449 C1453 1.376 . S
C1450 C1448 1.394 . S
C1450 C1451 1.369 . S
C1450 C1454 1.531 . S
C1451 C1450 1.369 . S
C1451 C1452 1.410 . S
C1451 C1459 1.503 . S
C1452 C1451 1.410 . S
C1452 C1453 1.392 . S
C1452 C1455 1.511 . S
C1453 C1449 1.376 . S
C1453 C1452 1.392 . S
C1453 H1465 0.929 . S
C1454 C1450 1.531 . S
C1454 H1466 0.960 . S
C1454 H1467 0.962 . S
C1454 H1468 0.960 . S
C1455 C1452 1.511 . S
C1455 H1469 0.961 . S
C1455 H1470 0.961 . S
C1455 H1471 0.961 . S
C1456 C1457 1.370 . S
C1456 C1458 1.363 . S
C1456 H1472 0.931 . S
C1457 C1456 1.370 . S
C1457 C1461 1.408 . S
C1458 C1456 1.363 . S
C1458 C1459 1.370 . S
C1458 C1462 1.524 . S
C1459 C1451 1.503 . S
C1459 C1458 1.370 . S
C1459 C1460 1.403 . S
C1460 C1459 1.403 . S
C1460 C1461 1.404 . S
C1460 C1463 1.539 . S
C1461 C1457 1.408 . S
C1461 C1460 1.404 . S
C1461 H1473 0.930 . S
C1462 C1458 1.524 . S
C1462 H1474 0.956 . S
C1462 H1475 0.961 . S
C1462 H1476 0.961 . S
C1463 C1460 1.539 . S
C1463 H1477 0.958 . S
C1463 H1478 0.961 . S
C1463 H1479 0.960 . S
H1464 C1448 0.931 . S
H1465 C1453 0.929 . S
H1466 C1454 0.960 . S
H1467 C1454 0.962 . S
H1468 C1454 0.960 . S
H1469 C1455 0.961 . S
H1470 C1455 0.961 . S
H1471 C1455 0.961 . S
H1472 C1456 0.931 . S
H1473 C1461 0.930 . S
H1474 C1462 0.956 . S
H1475 C1462 0.961 . S
H1476 C1462 0.961 . S
H1477 C1463 0.958 . S
H1478 C1463 0.961 . S
H1479 C1463 0.960 . S
C1480 C1481 1.391 . S
C1480 C1482 1.394 . S
C1480 H1496 0.931 . S
C1481 C1480 1.391 . S
C1481 C1485 1.376 . S
C1482 C1480 1.394 . S
C1482 C1483 1.369 1_565 S
C1482 C1486 1.531 1_565 S
C1483 C1482 1.369 1_545 S
C1483 C1484 1.410 1_545 S
C1483 C1491 1.503 . S
C1484 C1483 1.410 1_565 S
C1484 C1485 1.392 . S
C1484 C1487 1.511 . S
C1485 C1481 1.376 . S
C1485 C1484 1.392 . S
C1485 H1497 0.929 . S
C1486 C1482 1.531 1_545 S
C1486 H1498 0.960 . S
C1486 H1499 0.962 . S
C1486 H1500 0.960 . S
C1487 C1484 1.511 . S
C1487 H1501 0.961 . S
C1487 H1502 0.961 1_565 S
C1487 H1503 0.961 1_565 S
C1488 C1489 1.370 . S
C1488 C1490 1.363 . S
C1488 H1504 0.931 . S
C1489 C1488 1.370 . S
C1489 C1493 1.408 . S
C1490 C1488 1.363 . S
C1490 C1491 1.370 . S
C1490 C1494 1.524 1_545 S
C1491 C1483 1.503 . S
C1491 C1490 1.370 . S
C1491 C1492 1.403 . S
C1492 C1491 1.403 . S
C1492 C1493 1.404 . S
C1492 C1495 1.539 . S
C1493 C1489 1.408 . S
C1493 C1492 1.404 . S
C1493 H1505 0.930 . S
C1494 C1490 1.524 1_565 S
C1494 H1506 0.956 . S
C1494 H1507 0.961 . S
C1494 H1508 0.961 . S
C1495 C1492 1.539 . S
C1495 H1509 0.958 . S
C1495 H1510 0.961 . S
C1495 H1511 0.960 . S
H1496 C1480 0.931 . S
H1497 C1485 0.929 . S
H1498 C1486 0.960 . S
H1499 C1486 0.962 . S
H1500 C1486 0.960 . S
H1501 C1487 0.961 . S
H1502 C1487 0.961 1_545 S
H1503 C1487 0.961 1_545 S
H1504 C1488 0.931 . S
H1505 C1493 0.930 . S
H1506 C1494 0.956 . S
H1507 C1494 0.961 . S
H1508 C1494 0.961 . S
H1509 C1495 0.958 . S
H1510 C1495 0.961 . S
H1511 C1495 0.960 . S
C1512 C1513 1.391 . S
C1512 C1514 1.394 . S
C1512 H1528 0.931 . S
C1513 C1512 1.391 . S
C1513 C1517 1.376 . S
C1514 C1512 1.394 . S
C1514 C1515 1.369 . S
C1514 C1518 1.531 . S
C1515 C1514 1.369 . S
C1515 C1516 1.410 . S
C1515 C1523 1.503 . S
C1516 C1515 1.410 . S
C1516 C1517 1.392 . S
C1516 C1519 1.511 . S
C1517 C1513 1.376 . S
C1517 C1516 1.392 . S
C1517 H1529 0.929 . S
C1518 C1514 1.531 . S
C1518 H1530 0.960 . S
C1518 H1531 0.962 . S
C1518 H1532 0.960 . S
C1519 C1516 1.511 . S
C1519 H1533 0.961 . S
C1519 H1534 0.961 . S
C1519 H1535 0.961 . S
C1520 C1521 1.370 . S
C1520 C1522 1.363 . S
C1520 H1536 0.931 . S
C1521 C1520 1.370 . S
C1521 C1525 1.408 . S
C1522 C1520 1.363 . S
C1522 C1523 1.370 . S
C1522 C1526 1.524 . S
C1523 C1515 1.503 . S
C1523 C1522 1.370 . S
C1523 C1524 1.403 . S
C1524 C1523 1.403 . S
C1524 C1525 1.404 . S
C1524 C1527 1.539 . S
C1525 C1521 1.408 . S
C1525 C1524 1.404 . S
C1525 H1537 0.930 . S
C1526 C1522 1.524 . S
C1526 H1538 0.956 . S
C1526 H1539 0.961 . S
C1526 H1540 0.961 . S
C1527 C1524 1.539 . S
C1527 H1541 0.958 . S
C1527 H1542 0.961 . S
C1527 H1543 0.960 . S
H1528 C1512 0.931 . S
H1529 C1517 0.929 . S
H1530 C1518 0.960 . S
H1531 C1518 0.962 . S
H1532 C1518 0.960 . S
H1533 C1519 0.961 . S
H1534 C1519 0.961 . S
H1535 C1519 0.961 . S
H1536 C1520 0.931 . S
H1537 C1525 0.930 . S
H1538 C1526 0.956 . S
H1539 C1526 0.961 . S
H1540 C1526 0.961 . S
H1541 C1527 0.958 . S
H1542 C1527 0.961 . S
H1543 C1527 0.960 . S
C1544 C1545 1.391 . S
C1544 C1546 1.394 . S
C1544 H1560 0.931 . S
C1545 C1544 1.391 . S
C1545 C1549 1.376 . S
C1546 C1544 1.394 . S
C1546 C1547 1.369 . S
C1546 C1550 1.531 . S
C1547 C1546 1.369 . S
C1547 C1548 1.410 . S
C1547 C1555 1.503 . S
C1548 C1547 1.410 . S
C1548 C1549 1.392 . S
C1548 C1551 1.511 . S
C1549 C1545 1.376 . S
C1549 C1548 1.392 . S
C1549 H1561 0.929 . S
C1550 C1546 1.531 . S
C1550 H1562 0.960 . S
C1550 H1563 0.962 . S
C1550 H1564 0.960 . S
C1551 C1548 1.511 . S
C1551 H1565 0.961 . S
C1551 H1566 0.961 . S
C1551 H1567 0.961 . S
C1552 C1553 1.370 . S
C1552 C1554 1.363 . S
C1552 H1568 0.931 . S
C1553 C1552 1.370 . S
C1553 C1557 1.408 . S
C1554 C1552 1.363 . S
C1554 C1555 1.370 . S
C1554 C1558 1.524 . S
C1555 C1547 1.503 . S
C1555 C1554 1.370 . S
C1555 C1556 1.403 . S
C1556 C1555 1.403 . S
C1556 C1557 1.404 . S
C1556 C1559 1.539 . S
C1557 C1553 1.408 . S
C1557 C1556 1.404 . S
C1557 H1569 0.930 . S
C1558 C1554 1.524 . S
C1558 H1570 0.956 . S
C1558 H1571 0.961 . S
C1558 H1572 0.961 . S
C1559 C1556 1.539 . S
C1559 H1573 0.958 . S
C1559 H1574 0.961 . S
C1559 H1575 0.960 . S
H1560 C1544 0.931 . S
H1561 C1549 0.929 . S
H1562 C1550 0.960 . S
H1563 C1550 0.962 . S
H1564 C1550 0.960 . S
H1565 C1551 0.961 . S
H1566 C1551 0.961 . S
H1567 C1551 0.961 . S
H1568 C1552 0.931 . S
H1569 C1557 0.930 . S
H1570 C1558 0.956 . S
H1571 C1558 0.961 . S
H1572 C1558 0.961 . S
H1573 C1559 0.958 . S
H1574 C1559 0.961 . S
H1575 C1559 0.960 . S
C1576 C1577 1.391 . S
C1576 C1578 1.394 . S
C1576 H1592 0.931 . S
C1577 C1576 1.391 . S
C1577 C1581 1.376 . S
C1578 C1576 1.394 . S
C1578 C1579 1.369 . S
C1578 C1582 1.531 . S
C1579 C1578 1.369 . S
C1579 C1580 1.410 . S
C1579 C1587 1.503 . S
C1580 C1579 1.410 . S
C1580 C1581 1.392 . S
C1580 C1583 1.511 . S
C1581 C1577 1.376 . S
C1581 C1580 1.392 . S
C1581 H1593 0.929 . S
C1582 C1578 1.531 . S
C1582 H1594 0.960 . S
C1582 H1595 0.962 . S
C1582 H1596 0.960 . S
C1583 C1580 1.511 . S
C1583 H1597 0.961 . S
C1583 H1598 0.961 . S
C1583 H1599 0.961 . S
C1584 C1585 1.370 . S
C1584 C1586 1.363 . S
C1584 H1600 0.931 . S
C1585 C1584 1.370 . S
C1585 C1589 1.408 . S
C1586 C1584 1.363 . S
C1586 C1587 1.370 . S
C1586 C1590 1.524 . S
C1587 C1579 1.503 . S
C1587 C1586 1.370 . S
C1587 C1588 1.403 . S
C1588 C1587 1.403 . S
C1588 C1589 1.404 . S
C1588 C1591 1.539 . S
C1589 C1585 1.408 . S
C1589 C1588 1.404 . S
C1589 H1601 0.930 . S
C1590 C1586 1.524 . S
C1590 H1602 0.956 . S
C1590 H1603 0.961 . S
C1590 H1604 0.961 . S
C1591 C1588 1.539 . S
C1591 H1605 0.958 . S
C1591 H1606 0.961 . S
C1591 H1607 0.960 . S
H1592 C1576 0.931 . S
H1593 C1581 0.929 . S
H1594 C1582 0.960 . S
H1595 C1582 0.962 . S
H1596 C1582 0.960 . S
H1597 C1583 0.961 . S
H1598 C1583 0.961 . S
H1599 C1583 0.961 . S
H1600 C1584 0.931 . S
H1601 C1589 0.930 . S
H1602 C1590 0.956 . S
H1603 C1590 0.961 . S
H1604 C1590 0.961 . S
H1605 C1591 0.958 . S
H1606 C1591 0.961 . S
H1607 C1591 0.960 . S
C1608 C1609 1.391 . S
C1608 C1610 1.394 . S
C1608 H1624 0.931 . S
C1609 C1608 1.391 . S
C1609 C1613 1.376 . S
C1610 C1608 1.394 . S
C1610 C1611 1.369 . S
C1610 C1614 1.531 . S
C1611 C1610 1.369 . S
C1611 C1612 1.410 . S
C1611 C1619 1.503 . S
C1612 C1611 1.410 . S
C1612 C1613 1.392 . S
C1612 C1615 1.511 . S
C1613 C1609 1.376 . S
C1613 C1612 1.392 . S
C1613 H1625 0.929 . S
C1614 C1610 1.531 . S
C1614 H1626 0.960 . S
C1614 H1627 0.962 . S
C1614 H1628 0.960 . S
C1615 C1612 1.511 . S
C1615 H1629 0.961 . S
C1615 H1630 0.961 . S
C1615 H1631 0.961 . S
C1616 C1617 1.370 . S
C1616 C1618 1.363 . S
C1616 H1632 0.931 . S
C1617 C1616 1.370 . S
C1617 C1621 1.408 . S
C1618 C1616 1.363 . S
C1618 C1619 1.370 . S
C1618 C1622 1.524 . S
C1619 C1611 1.503 . S
C1619 C1618 1.370 . S
C1619 C1620 1.403 . S
C1620 C1619 1.403 . S
C1620 C1621 1.404 . S
C1620 C1623 1.539 . S
C1621 C1617 1.408 . S
C1621 C1620 1.404 . S
C1621 H1633 0.930 . S
C1622 C1618 1.524 . S
C1622 H1634 0.956 . S
C1622 H1635 0.961 . S
C1622 H1636 0.961 . S
C1623 C1620 1.539 . S
C1623 H1637 0.958 . S
C1623 H1638 0.961 . S
C1623 H1639 0.960 . S
H1624 C1608 0.931 . S
H1625 C1613 0.929 . S
H1626 C1614 0.960 . S
H1627 C1614 0.962 . S
H1628 C1614 0.960 . S
H1629 C1615 0.961 . S
H1630 C1615 0.961 . S
H1631 C1615 0.961 . S
H1632 C1616 0.931 . S
H1633 C1621 0.930 . S
H1634 C1622 0.956 . S
H1635 C1622 0.961 . S
H1636 C1622 0.961 . S
H1637 C1623 0.958 . S
H1638 C1623 0.961 . S
H1639 C1623 0.960 . S
C1640 C1641 1.391 . S
C1640 C1642 1.394 . S
C1640 H1656 0.931 . S
C1641 C1640 1.391 . S
C1641 C1645 1.376 . S
C1642 C1640 1.394 . S
C1642 C1643 1.369 . S
C1642 C1646 1.531 . S
C1643 C1642 1.369 . S
C1643 C1644 1.410 . S
C1643 C1651 1.503 . S
C1644 C1643 1.410 . S
C1644 C1645 1.392 . S
C1644 C1647 1.511 . S
C1645 C1641 1.376 . S
C1645 C1644 1.392 . S
C1645 H1657 0.929 . S
C1646 C1642 1.531 . S
C1646 H1658 0.960 . S
C1646 H1659 0.962 . S
C1646 H1660 0.960 . S
C1647 C1644 1.511 . S
C1647 H1661 0.961 . S
C1647 H1662 0.961 . S
C1647 H1663 0.961 . S
C1648 C1649 1.370 . S
C1648 C1650 1.363 . S
C1648 H1664 0.931 . S
C1649 C1648 1.370 . S
C1649 C1653 1.408 . S
C1650 C1648 1.363 . S
C1650 C1651 1.370 . S
C1650 C1654 1.524 . S
C1651 C1643 1.503 . S
C1651 C1650 1.370 . S
C1651 C1652 1.403 . S
C1652 C1651 1.403 . S
C1652 C1653 1.404 . S
C1652 C1655 1.539 . S
C1653 C1649 1.408 . S
C1653 C1652 1.404 . S
C1653 H1665 0.930 . S
C1654 C1650 1.524 . S
C1654 H1666 0.956 . S
C1654 H1667 0.961 . S
C1654 H1668 0.961 . S
C1655 C1652 1.539 . S
C1655 H1669 0.958 . S
C1655 H1670 0.961 . S
C1655 H1671 0.960 . S
H1656 C1640 0.931 . S
H1657 C1645 0.929 . S
H1658 C1646 0.960 . S
H1659 C1646 0.962 . S
H1660 C1646 0.960 . S
H1661 C1647 0.961 . S
H1662 C1647 0.961 . S
H1663 C1647 0.961 . S
H1664 C1648 0.931 . S
H1665 C1653 0.930 . S
H1666 C1654 0.956 . S
H1667 C1654 0.961 . S
H1668 C1654 0.961 . S
H1669 C1655 0.958 . S
H1670 C1655 0.961 . S
H1671 C1655 0.960 . S
C1672 C1673 1.391 . S
C1672 C1674 1.394 . S
C1672 H1688 0.931 . S
C1673 C1672 1.391 . S
C1673 C1677 1.376 . S
C1674 C1672 1.394 . S
C1674 C1675 1.369 . S
C1674 C1678 1.531 . S
C1675 C1674 1.369 . S
C1675 C1676 1.410 . S
C1675 C1683 1.503 . S
C1676 C1675 1.410 . S
C1676 C1677 1.392 . S
C1676 C1679 1.511 . S
C1677 C1673 1.376 . S
C1677 C1676 1.392 . S
C1677 H1689 0.929 . S
C1678 C1674 1.531 . S
C1678 H1690 0.960 . S
C1678 H1691 0.962 . S
C1678 H1692 0.960 . S
C1679 C1676 1.511 . S
C1679 H1693 0.961 . S
C1679 H1694 0.961 . S
C1679 H1695 0.961 . S
C1680 C1681 1.370 . S
C1680 C1682 1.363 . S
C1680 H1696 0.931 . S
C1681 C1680 1.370 . S
C1681 C1685 1.408 . S
C1682 C1680 1.363 . S
C1682 C1683 1.370 . S
C1682 C1686 1.524 . S
C1683 C1675 1.503 . S
C1683 C1682 1.370 . S
C1683 C1684 1.403 . S
C1684 C1683 1.403 . S
C1684 C1685 1.404 . S
C1684 C1687 1.539 . S
C1685 C1681 1.408 . S
C1685 C1684 1.404 . S
C1685 H1697 0.930 . S
C1686 C1682 1.524 . S
C1686 H1698 0.956 . S
C1686 H1699 0.961 . S
C1686 H1700 0.961 . S
C1687 C1684 1.539 . S
C1687 H1701 0.958 . S
C1687 H1702 0.961 . S
C1687 H1703 0.960 . S
H1688 C1672 0.931 . S
H1689 C1677 0.929 . S
H1690 C1678 0.960 . S
H1691 C1678 0.962 . S
H1692 C1678 0.960 . S
H1693 C1679 0.961 . S
H1694 C1679 0.961 . S
H1695 C1679 0.961 . S
H1696 C1680 0.931 . S
H1697 C1685 0.930 . S
H1698 C1686 0.956 . S
H1699 C1686 0.961 . S
H1700 C1686 0.961 . S
H1701 C1687 0.958 . S
H1702 C1687 0.961 . S
H1703 C1687 0.960 . S
C1704 C1705 1.391 . S
C1704 C1706 1.394 . S
C1704 H1720 0.931 . S
C1705 C1704 1.391 . S
C1705 C1709 1.376 . S
C1706 C1704 1.394 . S
C1706 C1707 1.369 . S
C1706 C1710 1.531 . S
C1707 C1706 1.369 . S
C1707 C1708 1.410 . S
C1707 C1715 1.503 . S
C1708 C1707 1.410 . S
C1708 C1709 1.392 . S
C1708 C1711 1.511 . S
C1709 C1705 1.376 . S
C1709 C1708 1.392 . S
C1709 H1721 0.929 . S
C1710 C1706 1.531 . S
C1710 H1722 0.960 . S
C1710 H1723 0.962 . S
C1710 H1724 0.960 . S
C1711 C1708 1.511 . S
C1711 H1725 0.961 . S
C1711 H1726 0.961 . S
C1711 H1727 0.961 . S
C1712 C1713 1.370 . S
C1712 C1714 1.363 . S
C1712 H1728 0.931 . S
C1713 C1712 1.370 . S
C1713 C1717 1.408 . S
C1714 C1712 1.363 . S
C1714 C1715 1.370 . S
C1714 C1718 1.524 . S
C1715 C1707 1.503 . S
C1715 C1714 1.370 . S
C1715 C1716 1.403 . S
C1716 C1715 1.403 . S
C1716 C1717 1.404 . S
C1716 C1719 1.539 . S
C1717 C1713 1.408 . S
C1717 C1716 1.404 . S
C1717 H1729 0.930 . S
C1718 C1714 1.524 . S
C1718 H1730 0.956 . S
C1718 H1731 0.961 . S
C1718 H1732 0.961 . S
C1719 C1716 1.539 . S
C1719 H1733 0.958 . S
C1719 H1734 0.961 . S
C1719 H1735 0.960 . S
H1720 C1704 0.931 . S
H1721 C1709 0.929 . S
H1722 C1710 0.960 . S
H1723 C1710 0.962 . S
H1724 C1710 0.960 . S
H1725 C1711 0.961 . S
H1726 C1711 0.961 . S
H1727 C1711 0.961 . S
H1728 C1712 0.931 . S
H1729 C1717 0.930 . S
H1730 C1718 0.956 . S
H1731 C1718 0.961 . S
H1732 C1718 0.961 . S
H1733 C1719 0.958 . S
H1734 C1719 0.961 . S
H1735 C1719 0.960 . S
C1736 C1737 1.391 . S
C1736 C1738 1.394 . S
C1736 H1752 0.931 . S
C1737 C1736 1.391 . S
C1737 C1741 1.376 . S
C1738 C1736 1.394 . S
C1738 C1739 1.369 . S
C1738 C1742 1.531 . S
C1739 C1738 1.369 . S
C1739 C1740 1.410 . S
C1739 C1747 1.503 . S
C1740 C1739 1.410 . S
C1740 C1741 1.392 . S
C1740 C1743 1.511 . S
C1741 C1737 1.376 . S
C1741 C1740 1.392 . S
C1741 H1753 0.929 . S
C1742 C1738 1.531 . S
C1742 H1754 0.960 . S
C1742 H1755 0.962 . S
C1742 H1756 0.960 . S
C1743 C1740 1.511 . S
C1743 H1757 0.961 . S
C1743 H1758 0.961 . S
C1743 H1759 0.961 . S
C1744 C1745 1.370 . S
C1744 C1746 1.363 . S
C1744 H1760 0.931 . S
C1745 C1744 1.370 . S
C1745 C1749 1.408 . S
C1746 C1744 1.363 . S
C1746 C1747 1.370 . S
C1746 C1750 1.524 . S
C1747 C1739 1.503 . S
C1747 C1746 1.370 . S
C1747 C1748 1.403 . S
C1748 C1747 1.403 . S
C1748 C1749 1.404 . S
C1748 C1751 1.539 . S
C1749 C1745 1.408 . S
C1749 C1748 1.404 . S
C1749 H1761 0.930 . S
C1750 C1746 1.524 . S
C1750 H1762 0.956 . S
C1750 H1763 0.961 . S
C1750 H1764 0.961 . S
C1751 C1748 1.539 . S
C1751 H1765 0.958 . S
C1751 H1766 0.961 . S
C1751 H1767 0.960 . S
H1752 C1736 0.931 . S
H1753 C1741 0.929 . S
H1754 C1742 0.960 . S
H1755 C1742 0.962 . S
H1756 C1742 0.960 . S
H1757 C1743 0.961 . S
H1758 C1743 0.961 . S
H1759 C1743 0.961 . S
H1760 C1744 0.931 . S
H1761 C1749 0.930 . S
H1762 C1750 0.956 . S
H1763 C1750 0.961 . S
H1764 C1750 0.961 . S
H1765 C1751 0.958 . S
H1766 C1751 0.961 . S
H1767 C1751 0.960 . S
C1768 C1769 1.391 . S
C1768 C1770 1.394 . S
C1768 H1784 0.931 . S
C1769 C1768 1.391 . S
C1769 C1773 1.376 . S
C1770 C1768 1.394 . S
C1770 C1771 1.369 . S
C1770 C1774 1.531 . S
C1771 C1770 1.369 . S
C1771 C1772 1.410 . S
C1771 C1779 1.503 . S
C1772 C1771 1.410 . S
C1772 C1773 1.392 . S
C1772 C1775 1.511 . S
C1773 C1769 1.376 . S
C1773 C1772 1.392 . S
C1773 H1785 0.929 . S
C1774 C1770 1.531 . S
C1774 H1786 0.960 . S
C1774 H1787 0.962 . S
C1774 H1788 0.960 . S
C1775 C1772 1.511 . S
C1775 H1789 0.961 . S
C1775 H1790 0.961 . S
C1775 H1791 0.961 . S
C1776 C1777 1.370 . S
C1776 C1778 1.363 . S
C1776 H1792 0.931 . S
C1777 C1776 1.370 . S
C1777 C1781 1.408 . S
C1778 C1776 1.363 . S
C1778 C1779 1.370 . S
C1778 C1782 1.524 . S
C1779 C1771 1.503 . S
C1779 C1778 1.370 . S
C1779 C1780 1.403 . S
C1780 C1779 1.403 . S
C1780 C1781 1.404 . S
C1780 C1783 1.539 . S
C1781 C1777 1.408 . S
C1781 C1780 1.404 . S
C1781 H1793 0.930 . S
C1782 C1778 1.524 . S
C1782 H1794 0.956 . S
C1782 H1795 0.961 . S
C1782 H1796 0.961 . S
C1783 C1780 1.539 . S
C1783 H1797 0.958 . S
C1783 H1798 0.961 . S
C1783 H1799 0.960 . S
H1784 C1768 0.931 . S
H1785 C1773 0.929 . S
H1786 C1774 0.960 . S
H1787 C1774 0.962 . S
H1788 C1774 0.960 . S
H1789 C1775 0.961 . S
H1790 C1775 0.961 . S
H1791 C1775 0.961 . S
H1792 C1776 0.931 . S
H1793 C1781 0.930 . S
H1794 C1782 0.956 . S
H1795 C1782 0.961 . S
H1796 C1782 0.961 . S
H1797 C1783 0.958 . S
H1798 C1783 0.961 . S
H1799 C1783 0.960 . S
C1800 C1801 1.391 . S
C1800 C1802 1.394 . S
C1800 H1816 0.931 . S
C1801 C1800 1.391 . S
C1801 C1805 1.376 . S
C1802 C1800 1.394 . S
C1802 C1803 1.369 . S
C1802 C1806 1.531 . S
C1803 C1802 1.369 . S
C1803 C1804 1.410 . S
C1803 C1811 1.503 . S
C1804 C1803 1.410 . S
C1804 C1805 1.392 . S
C1804 C1807 1.511 . S
C1805 C1801 1.376 . S
C1805 C1804 1.392 . S
C1805 H1817 0.929 . S
C1806 C1802 1.531 . S
C1806 H1818 0.960 . S
C1806 H1819 0.962 . S
C1806 H1820 0.960 . S
C1807 C1804 1.511 . S
C1807 H1821 0.961 . S
C1807 H1822 0.961 1_655 S
C1807 H1823 0.961 . S
C1808 C1809 1.370 . S
C1808 C1810 1.363 . S
C1808 H1824 0.931 . S
C1809 C1808 1.370 . S
C1809 C1813 1.408 . S
C1810 C1808 1.363 . S
C1810 C1811 1.370 1_455 S
C1810 C1814 1.524 1_455 S
C1811 C1803 1.503 . S
C1811 C1810 1.370 1_655 S
C1811 C1812 1.403 1_655 S
C1812 C1811 1.403 1_455 S
C1812 C1813 1.404 . S
C1812 C1815 1.529 1_455 S
C1813 C1809 1.408 . S
C1813 C1812 1.404 . S
C1813 H1825 0.930 . S
C1814 C1810 1.524 1_655 S
C1814 H1826 0.956 . S
C1814 H1827 0.961 . S
C1814 H1828 0.958 1_655 S
C1815 C1812 1.529 1_655 S
C1815 H1829 0.960 . S
C1815 H1830 0.950 1_655 S
C1815 H1831 0.980 . S
H1816 C1800 0.931 . S
H1817 C1805 0.929 . S
H1818 C1806 0.960 . S
H1819 C1806 0.962 . S
H1820 C1806 0.960 . S
H1821 C1807 0.961 . S
H1822 C1807 0.961 1_455 S
H1823 C1807 0.961 . S
H1824 C1808 0.931 . S
H1825 C1813 0.930 . S
H1826 C1814 0.956 . S
H1827 C1814 0.961 . S
H1828 C1814 0.958 1_455 S
H1829 C1815 0.960 . S
H1830 C1815 0.950 1_455 S
H1831 C1815 0.980 . S
C1832 C1833 1.391 . S
C1832 C1834 1.394 . S
C1832 H1848 0.931 . S
C1833 C1832 1.391 . S
C1833 C1837 1.376 . S
C1834 C1832 1.394 . S
C1834 C1835 1.369 . S
C1834 C1838 1.531 . S
C1835 C1834 1.369 . S
C1835 C1836 1.410 . S
C1835 C1843 1.503 . S
C1836 C1835 1.410 . S
C1836 C1837 1.392 . S
C1836 C1839 1.511 . S
C1837 C1833 1.376 . S
C1837 C1836 1.392 . S
C1837 H1849 0.929 . S
C1838 C1834 1.531 . S
C1838 H1850 0.960 . S
C1838 H1851 0.962 . S
C1838 H1852 0.960 . S
C1839 C1836 1.511 . S
C1839 H1853 0.961 . S
C1839 H1854 0.961 . S
C1839 H1855 0.961 . S
C1840 C1841 1.370 . S
C1840 C1842 1.363 . S
C1840 H1856 0.931 . S
C1841 C1840 1.370 . S
C1841 C1845 1.408 . S
C1842 C1840 1.363 . S
C1842 C1843 1.370 . S
C1842 C1846 1.524 . S
C1843 C1835 1.503 . S
C1843 C1842 1.370 . S
C1843 C1844 1.403 . S
C1844 C1843 1.403 . S
C1844 C1845 1.404 . S
C1844 C1847 1.539 . S
C1845 C1841 1.408 . S
C1845 C1844 1.404 . S
C1845 H1857 0.930 . S
C1846 C1842 1.524 . S
C1846 H1858 0.956 . S
C1846 H1859 0.961 . S
C1846 H1860 0.961 . S
C1847 C1844 1.539 . S
C1847 H1861 0.958 . S
C1847 H1862 0.961 . S
C1847 H1863 0.960 . S
H1848 C1832 0.931 . S
H1849 C1837 0.929 . S
H1850 C1838 0.960 . S
H1851 C1838 0.962 . S
H1852 C1838 0.960 . S
H1853 C1839 0.961 . S
H1854 C1839 0.961 . S
H1855 C1839 0.961 . S
H1856 C1840 0.931 . S
H1857 C1845 0.930 . S
H1858 C1846 0.956 . S
H1859 C1846 0.961 . S
H1860 C1846 0.961 . S
H1861 C1847 0.958 . S
H1862 C1847 0.961 . S
H1863 C1847 0.960 . S
C1864 C1865 1.391 . S
C1864 C1866 1.394 1_565 S
C1864 H1880 0.931 . S
C1865 C1864 1.391 . S
C1865 C1869 1.376 . S
C1866 C1864 1.394 1_545 S
C1866 C1867 1.369 . S
C1866 C1870 1.531 . S
C1867 C1866 1.369 . S
C1867 C1868 1.410 . S
C1867 C1875 1.503 . S
C1868 C1867 1.410 . S
C1868 C1869 1.392 1_545 S
C1868 C1871 1.511 . S
C1869 C1865 1.376 . S
C1869 C1868 1.392 1_565 S
C1869 H1881 0.929 . S
C1870 C1866 1.531 . S
C1870 H1882 0.960 . S
C1870 H1883 0.962 . S
C1870 H1884 0.971 . S
C1871 C1868 1.511 . S
C1871 H1885 0.961 . S
C1871 H1886 0.961 . S
C1871 H1887 0.961 . S
C1872 C1873 1.371 1_655 S
C1872 C1874 1.363 . S
C1872 H1888 0.931 1_655 S
C1873 C1872 1.371 1_455 S
C1873 C1877 1.406 1_455 S
C1874 C1872 1.363 . S
C1874 C1875 1.370 . S
C1874 C1878 1.524 . S
C1875 C1867 1.503 . S
C1875 C1874 1.370 . S
C1875 C1876 1.403 . S
C1876 C1875 1.403 . S
C1876 C1877 1.404 . S
C1876 C1879 1.539 . S
C1877 C1873 1.406 1_655 S
C1877 C1876 1.404 . S
C1877 H1889 0.930 . S
C1878 C1874 1.524 . S
C1878 H1890 0.956 . S
C1878 H1891 0.961 . S
C1878 H1892 0.961 . S
C1879 C1876 1.539 . S
C1879 H1893 0.958 . S
C1879 H1894 0.961 . S
C1879 H1895 0.960 . S
H1880 C1864 0.931 . S
H1881 C1869 0.929 . S
H1882 C1870 0.960 . S
H1883 C1870 0.962 . S
H1884 C1870 0.971 . S
H1885 C1871 0.961 . S
H1886 C1871 0.961 . S
H1887 C1871 0.961 . S
H1888 C1872 0.931 1_455 S
H1889 C1877 0.930 . S
H1890 C1878 0.956 . S
H1891 C1878 0.961 . S
H1892 C1878 0.961 . S
H1893 C1879 0.958 . S
H1894 C1879 0.961 . S
H1895 C1879 0.960 . S
C1896 C1897 1.391 . S
C1896 C1898 1.394 . S
C1896 H1912 0.931 . S
C1897 C1896 1.391 . S
C1897 C1901 1.376 . S
C1898 C1896 1.394 . S
C1898 C1899 1.369 . S
C1898 C1902 1.531 . S
C1899 C1898 1.369 . S
C1899 C1900 1.410 . S
C1899 C1907 1.503 . S
C1900 C1899 1.410 . S
C1900 C1901 1.392 . S
C1900 C1903 1.511 . S
C1901 C1897 1.376 . S
C1901 C1900 1.392 . S
C1901 H1913 0.929 . S
C1902 C1898 1.531 . S
C1902 H1914 0.960 . S
C1902 H1915 0.962 . S
C1902 H1916 0.960 . S
C1903 C1900 1.511 . S
C1903 H1917 0.961 . S
C1903 H1918 0.961 . S
C1903 H1919 0.961 . S
C1904 C1905 1.370 . S
C1904 C1906 1.373 . S
C1904 H1920 0.931 . S
C1905 C1904 1.370 . S
C1905 C1909 1.408 . S
C1906 C1904 1.373 . S
C1906 C1907 1.365 1_545 S
C1906 C1910 1.519 1_545 S
C1907 C1899 1.503 . S
C1907 C1906 1.365 1_565 S
C1907 C1908 1.403 1_565 S
C1908 C1907 1.403 1_545 S
C1908 C1909 1.404 . S
C1908 C1911 1.539 . S
C1909 C1905 1.408 . S
C1909 C1908 1.404 . S
C1909 H1921 0.930 . S
C1910 C1906 1.519 1_565 S
C1910 H1922 0.956 . S
C1910 H1923 0.961 . S
C1910 H1924 0.961 . S
C1911 C1908 1.539 . S
C1911 H1925 0.958 . S
C1911 H1926 0.961 . S
C1911 H1927 0.959 1_545 S
H1912 C1896 0.931 . S
H1913 C1901 0.929 . S
H1914 C1902 0.960 . S
H1915 C1902 0.962 . S
H1916 C1902 0.960 . S
H1917 C1903 0.961 . S
H1918 C1903 0.961 . S
H1919 C1903 0.961 . S
H1920 C1904 0.931 . S
H1921 C1909 0.930 . S
H1922 C1910 0.956 . S
H1923 C1910 0.961 . S
H1924 C1910 0.961 . S
H1925 C1911 0.958 . S
H1926 C1911 0.961 . S
H1927 C1911 0.959 1_565 S
C1928 C1929 1.391 1_565 S
C1928 C1930 1.394 . S
C1928 H1944 0.931 1_565 S
C1929 C1928 1.391 1_545 S
C1929 C1933 1.376 1_545 S
C1930 C1928 1.394 . S
C1930 C1931 1.369 . S
C1930 C1934 1.531 . S
C1931 C1930 1.369 . S
C1931 C1932 1.410 . S
C1931 C1939 1.503 . S
C1932 C1931 1.410 . S
C1932 C1933 1.392 . S
C1932 C1935 1.511 . S
C1933 C1929 1.376 1_565 S
C1933 C1932 1.392 . S
C1933 H1945 0.929 . S
C1934 C1930 1.531 . S
C1934 H1946 0.960 . S
C1934 H1947 0.962 . S
C1934 H1948 0.960 . S
C1935 C1932 1.511 . S
C1935 H1949 0.961 . S
C1935 H1950 0.961 . S
C1935 H1951 0.961 . S
C1936 C1937 1.370 . S
C1936 C1938 1.363 1_655 S
C1936 H1952 0.931 . S
C1937 C1936 1.370 . S
C1937 C1941 1.408 . S
C1938 C1936 1.363 1_455 S
C1938 C1939 1.370 . S
C1938 C1942 1.524 . S
C1939 C1931 1.503 . S
C1939 C1938 1.370 . S
C1939 C1940 1.376 1_455 S
C1940 C1939 1.376 1_655 S
C1940 C1941 1.418 . S
C1940 C1943 1.542 . S
C1941 C1937 1.408 . S
C1941 C1940 1.418 . S
C1941 H1953 0.930 . S
C1942 C1938 1.524 . S
C1942 H1954 0.956 . S
C1942 H1955 0.961 . S
C1942 H1956 0.961 . S
C1943 C1940 1.542 . S
C1943 H1957 0.965 . S
C1943 H1958 0.978 . S
C1943 H1959 0.947 1_655 S
H1944 C1928 0.931 1_545 S
H1945 C1933 0.929 . S
H1946 C1934 0.960 . S
H1947 C1934 0.962 . S
H1948 C1934 0.960 . S
H1949 C1935 0.961 . S
H1950 C1935 0.961 . S
H1951 C1935 0.961 . S
H1952 C1936 0.931 . S
H1953 C1941 0.930 . S
H1954 C1942 0.956 . S
H1955 C1942 0.961 . S
H1956 C1942 0.961 . S
H1957 C1943 0.965 . S
H1958 C1943 0.978 . S
H1959 C1943 0.947 1_455 S
C1960 C1961 1.391 . S
C1960 C1962 1.394 . S
C1960 H1976 0.931 . S
C1961 C1960 1.391 . S
C1961 C1965 1.376 . S
C1962 C1960 1.394 . S
C1962 C1963 1.369 . S
C1962 C1966 1.531 . S
C1963 C1962 1.369 . S
C1963 C1964 1.410 . S
C1963 C1971 1.503 . S
C1964 C1963 1.410 . S
C1964 C1965 1.392 . S
C1964 C1967 1.511 . S
C1965 C1961 1.376 . S
C1965 C1964 1.392 . S
C1965 H1977 0.929 . S
C1966 C1962 1.531 . S
C1966 H1978 0.960 . S
C1966 H1979 0.962 . S
C1966 H1980 0.960 . S
C1967 C1964 1.511 . S
C1967 H1981 0.961 . S
C1967 H1982 0.961 . S
C1967 H1983 0.961 . S
C1968 C1969 1.370 . S
C1968 C1970 1.363 . S
C1968 H1984 0.931 . S
C1969 C1968 1.370 . S
C1969 C1973 1.408 . S
C1970 C1968 1.363 . S
C1970 C1971 1.370 . S
C1970 C1974 1.524 . S
C1971 C1963 1.503 . S
C1971 C1970 1.370 . S
C1971 C1972 1.403 . S
C1972 C1971 1.403 . S
C1972 C1973 1.404 . S
C1972 C1975 1.539 . S
C1973 C1969 1.408 . S
C1973 C1972 1.404 . S
C1973 H1985 0.930 . S
C1974 C1970 1.524 . S
C1974 H1986 0.956 . S
C1974 H1987 0.961 . S
C1974 H1988 0.961 . S
C1975 C1972 1.539 . S
C1975 H1989 0.958 . S
C1975 H1990 0.961 . S
C1975 H1991 0.960 . S
H1976 C1960 0.931 . S
H1977 C1965 0.929 . S
H1978 C1966 0.960 . S
H1979 C1966 0.962 . S
H1980 C1966 0.960 . S
H1981 C1967 0.961 . S
H1982 C1967 0.961 . S
H1983 C1967 0.961 . S
H1984 C1968 0.931 . S
H1985 C1973 0.930 . S
H1986 C1974 0.956 . S
H1987 C1974 0.961 . S
H1988 C1974 0.961 . S
H1989 C1975 0.958 . S
H1990 C1975 0.961 . S
H1991 C1975 0.960 . S
C1992 C1993 1.391 . S
C1992 C1994 1.394 . S
C1992 H2008 0.931 . S
C1993 C1992 1.391 . S
C1993 C1997 1.376 . S
C1994 C1992 1.394 . S
C1994 C1995 1.369 . S
C1994 C1998 1.531 . S
C1995 C1994 1.369 . S
C1995 C1996 1.410 . S
C1995 C2003 1.503 . S
C1996 C1995 1.410 . S
C1996 C1997 1.392 . S
C1996 C1999 1.511 . S
C1997 C1993 1.376 . S
C1997 C1996 1.392 . S
C1997 H2009 0.929 . S
C1998 C1994 1.531 . S
C1998 H2010 0.960 . S
C1998 H2011 0.962 . S
C1998 H2012 0.960 . S
C1999 C1996 1.511 . S
C1999 H2013 0.961 . S
C1999 H2014 0.961 . S
C1999 H2015 0.961 . S
C2000 C2001 1.370 . S
C2000 C2002 1.363 . S
C2000 H2016 0.931 . S
C2001 C2000 1.370 . S
C2001 C2005 1.408 . S
C2002 C2000 1.363 . S
C2002 C2003 1.370 . S
C2002 C2006 1.524 . S
C2003 C1995 1.503 . S
C2003 C2002 1.370 . S
C2003 C2004 1.403 . S
C2004 C2003 1.403 . S
C2004 C2005 1.404 . S
C2004 C2007 1.539 . S
C2005 C2001 1.408 . S
C2005 C2004 1.404 . S
C2005 H2017 0.930 . S
C2006 C2002 1.524 . S
C2006 H2018 0.956 . S
C2006 H2019 0.961 . S
C2006 H2020 0.961 . S
C2007 C2004 1.539 . S
C2007 H2021 0.958 . S
C2007 H2022 0.961 . S
C2007 H2023 0.960 . S
H2008 C1992 0.931 . S
H2009 C1997 0.929 . S
H2010 C1998 0.960 . S
H2011 C1998 0.962 . S
H2012 C1998 0.960 . S
H2013 C1999 0.961 . S
H2014 C1999 0.961 . S
H2015 C1999 0.961 . S
H2016 C2000 0.931 . S
H2017 C2005 0.930 . S
H2018 C2006 0.956 . S
H2019 C2006 0.961 . S
H2020 C2006 0.961 . S
H2021 C2007 0.958 . S
H2022 C2007 0.961 . S
H2023 C2007 0.960 . S
C2024 C2025 1.391 . S
C2024 C2026 1.394 . S
C2024 H2040 0.931 . S
C2025 C2024 1.391 . S
C2025 C2029 1.376 . S
C2026 C2024 1.394 . S
C2026 C2027 1.369 . S
C2026 C2030 1.531 . S
C2027 C2026 1.369 . S
C2027 C2028 1.410 . S
C2027 C2035 1.503 . S
C2028 C2027 1.410 . S
C2028 C2029 1.392 . S
C2028 C2031 1.511 . S
C2029 C2025 1.376 . S
C2029 C2028 1.392 . S
C2029 H2041 0.929 . S
C2030 C2026 1.531 . S
C2030 H2042 0.960 . S
C2030 H2043 0.962 . S
C2030 H2044 0.960 . S
C2031 C2028 1.511 . S
C2031 H2045 0.961 . S
C2031 H2046 0.961 . S
C2031 H2047 0.961 . S
C2032 C2033 1.370 . S
C2032 C2034 1.363 . S
C2032 H2048 0.931 . S
C2033 C2032 1.370 . S
C2033 C2037 1.408 . S
C2034 C2032 1.363 . S
C2034 C2035 1.370 . S
C2034 C2038 1.524 . S
C2035 C2027 1.503 . S
C2035 C2034 1.370 . S
C2035 C2036 1.403 . S
C2036 C2035 1.403 . S
C2036 C2037 1.404 . S
C2036 C2039 1.539 . S
C2037 C2033 1.408 . S
C2037 C2036 1.404 . S
C2037 H2049 0.930 . S
C2038 C2034 1.524 . S
C2038 H2050 0.956 . S
C2038 H2051 0.961 . S
C2038 H2052 0.961 . S
C2039 C2036 1.539 . S
C2039 H2053 0.958 . S
C2039 H2054 0.961 . S
C2039 H2055 0.960 . S
H2040 C2024 0.931 . S
H2041 C2029 0.929 . S
H2042 C2030 0.960 . S
H2043 C2030 0.962 . S
H2044 C2030 0.960 . S
H2045 C2031 0.961 . S
H2046 C2031 0.961 . S
H2047 C2031 0.961 . S
H2048 C2032 0.931 . S
H2049 C2037 0.930 . S
H2050 C2038 0.956 . S
H2051 C2038 0.961 . S
H2052 C2038 0.961 . S
H2053 C2039 0.958 . S
H2054 C2039 0.961 . S
H2055 C2039 0.960 . S
C2056 C2057 1.391 . S
C2056 C2058 1.394 . S
C2056 H2072 0.931 . S
C2057 C2056 1.391 . S
C2057 C2061 1.376 . S
C2058 C2056 1.394 . S
C2058 C2059 1.369 . S
C2058 C2062 1.531 . S
C2059 C2058 1.369 . S
C2059 C2060 1.410 . S
C2059 C2067 1.503 . S
C2060 C2059 1.410 . S
C2060 C2061 1.392 . S
C2060 C2063 1.511 . S
C2061 C2057 1.376 . S
C2061 C2060 1.392 . S
C2061 H2073 0.929 . S
C2062 C2058 1.531 . S
C2062 H2074 0.960 . S
C2062 H2075 0.962 . S
C2062 H2076 0.960 . S
C2063 C2060 1.511 . S
C2063 H2077 0.961 . S
C2063 H2078 0.961 . S
C2063 H2079 0.961 . S
C2064 C2065 1.370 . S
C2064 C2066 1.363 . S
C2064 H2080 0.931 . S
C2065 C2064 1.370 . S
C2065 C2069 1.408 . S
C2066 C2064 1.363 . S
C2066 C2067 1.370 . S
C2066 C2070 1.524 . S
C2067 C2059 1.503 . S
C2067 C2066 1.370 . S
C2067 C2068 1.403 . S
C2068 C2067 1.403 . S
C2068 C2069 1.404 . S
C2068 C2071 1.539 . S
C2069 C2065 1.408 . S
C2069 C2068 1.404 . S
C2069 H2081 0.930 . S
C2070 C2066 1.524 . S
C2070 H2082 0.956 . S
C2070 H2083 0.961 . S
C2070 H2084 0.961 . S
C2071 C2068 1.539 . S
C2071 H2085 0.958 . S
C2071 H2086 0.961 . S
C2071 H2087 0.960 . S
H2072 C2056 0.931 . S
H2073 C2061 0.929 . S
H2074 C2062 0.960 . S
H2075 C2062 0.962 . S
H2076 C2062 0.960 . S
H2077 C2063 0.961 . S
H2078 C2063 0.961 . S
H2079 C2063 0.961 . S
H2080 C2064 0.931 . S
H2081 C2069 0.930 . S
H2082 C2070 0.956 . S
H2083 C2070 0.961 . S
H2084 C2070 0.961 . S
H2085 C2071 0.958 . S
H2086 C2071 0.961 . S
H2087 C2071 0.960 . S
C361 C6 1.117 . S
C369 C59 1.142 . S
C393 C19 1.100 . S
C401 C26 1.118 . S
C425 C39 1.123 . S
C433 C46 1.135 . S
C457 C66 1.116 . S
C465 C99 1.142 . S
C489 C119 1.131 . S
C497 C86 1.138 . S
C521 C106 1.152 . S
C529 C79 1.152 . S
C553 C179 1.167 . S
C561 C126 1.147 . S
C585 C139 1.137 . S
C593 C146 1.141 . S
C617 C166 1.108 . S
C625 C159 1.139 . S
C649 C219 1.150 . S
C657 C186 1.145 . S
C681 C206 1.150 . S
C689 C239 1.151 . S
C713 C199 1.105 . S
C721 C226 1.124 . S
C745 C246 1.122 . S
C753 C299 1.144 . S
C777 C259 1.154 . S
C785 C266 1.130 . S
C809 C279 1.158 . S
C817 C286 1.146 . S
C841 C339 1.144 . S
C849 C306 1.125 . S
C873 C359 1.155 . S
C881 C326 1.131 . S
C905 C319 1.152 . S
C913 C346 1.145 . S
C937 C9 1.692 . S
C945 C109 1.729 . S
C969 C69 1.735 . S
C977 C29 1.731 . S
C1001 C89 1.743 . S
C1009 C49 1.728 . S
C1033 C129 1.748 . S
C1041 C229 1.723 . S
C1065 C149 1.696 . S
C1073 C189 1.733 . S
C1097 C209 1.732 . S
C1105 C169 1.712 . S
C1129 C249 1.692 . S
C1137 C349 1.729 . S
C1161 C309 1.715 . S
C1169 C269 1.714 . S
C1193 C329 1.747 . S
C1201 C289 1.718 . S
C1225 C201 1.873 . S
C1233 C1 1.888 . S
C1257 C21 1.902 . S
C1265 C221 1.889 . S
C1289 C181 1.880 . S
C1297 C41 1.896 . S
C1321 C61 1.876 . S
C1329 C281 1.897 . S
C1353 C81 1.869 . S
C1361 C241 1.891 . S
C1385 C261 1.877 . S
C1393 C101 1.886 . S
C1417 C321 1.893 . S
C1425 C121 1.883 . S
C1449 C141 1.887 . S
C1457 C341 1.884 . S
C1481 C161 1.877 . S
C1489 C301 1.897 . S
C1513 C48 1.749 . S
C1521 C16 1.807 . S
C1545 C8 1.757 . S
C1553 C36 1.809 . S
C1577 C56 1.788 . S
C1585 C28 1.721 . S
C1609 C88 1.694 . S
C1617 C76 1.797 . S
C1641 C108 1.724 . S
C1649 C96 1.802 . S
C1673 C116 1.792 . S
C1681 C68 1.725 . S
C1705 C168 1.736 . S
C1713 C136 1.806 . S
C1737 C156 1.787 . S
C1745 C128 1.719 . S
C1769 C148 1.710 . S
C1777 C176 1.800 . S
C1801 C196 1.798 . S
C1809 C208 1.729 . S
C1833 C216 1.799 1_545 S
C1841 C228 1.729 . S
C1865 C188 1.698 . S
C1873 C236 1.799 . S
C1897 C256 1.807 . S
C1905 C288 1.737 . S
C1929 C276 1.813 . S
C1937 C248 1.743 . S
C1961 C268 1.695 . S
C1969 C296 1.797 1_455 S
C1993 C316 1.797 . S
C2001 C328 1.728 . S
C2025 C336 1.810 . S
C2033 C348 1.739 . S
C2057 C308 1.698 . S
C2065 C356 1.797 . S
