# Generated by pormake.
# Topology wmi, (6)-cn, num edge types: 1
# Building blocks:
#     Node 0, Type 0, BuildingBlock: CUKXOW_clean_sbu_0, # of connection points: 6
#     Node 1, Type 0, BuildingBlock: CUKXOW_clean_sbu_0, # of connection points: 6
#     Node 2, Type 0, BuildingBlock: CUKXOW_clean_sbu_0, # of connection points: 6
#     Node 3, Type 0, BuildingBlock: CUKXOW_clean_sbu_0, # of connection points: 6
#     Node 4, Type 0, BuildingBlock: CUKXOW_clean_sbu_0, # of connection points: 6
#     Node 5, Type 0, BuildingBlock: CUKXOW_clean_sbu_0, # of connection points: 6
#     Node 6, Type 0, BuildingBlock: CUKXOW_clean_sbu_0, # of connection points: 6
#     Node 7, Type 0, BuildingBlock: CUKXOW_clean_sbu_0, # of connection points: 6
#     Node 8, Type 0, BuildingBlock: CUKXOW_clean_sbu_0, # of connection points: 6
#     Node 9, Type 0, BuildingBlock: CUKXOW_clean_sbu_0, # of connection points: 6
#     Node 10, Type 0, BuildingBlock: CUKXOW_clean_sbu_0, # of connection points: 6
#     Node 11, Type 0, BuildingBlock: CUKXOW_clean_sbu_0, # of connection points: 6
#     Node 12, Type 0, BuildingBlock: CUKXOW_clean_sbu_0, # of connection points: 6
#     Node 13, Type 0, BuildingBlock: CUKXOW_clean_sbu_0, # of connection points: 6
#     Node 14, Type 0, BuildingBlock: CUKXOW_clean_sbu_0, # of connection points: 6
#     Node 15, Type 0, BuildingBlock: CUKXOW_clean_sbu_0, # of connection points: 6
#     Node 16, Type 0, BuildingBlock: CUKXOW_clean_sbu_0, # of connection points: 6
#     Node 17, Type 0, BuildingBlock: CUKXOW_clean_sbu_0, # of connection points: 6
#     Edge 18, Type (0, 0), BuildingBlock: AJUNOK_clean_linker_0, # of connection points: 2
#     Edge 19, Type (0, 0), BuildingBlock: AJUNOK_clean_linker_0, # of connection points: 2
#     Edge 20, Type (0, 0), BuildingBlock: AJUNOK_clean_linker_0, # of connection points: 2
#     Edge 21, Type (0, 0), BuildingBlock: AJUNOK_clean_linker_0, # of connection points: 2
#     Edge 22, Type (0, 0), BuildingBlock: AJUNOK_clean_linker_0, # of connection points: 2
#     Edge 23, Type (0, 0), BuildingBlock: AJUNOK_clean_linker_0, # of connection points: 2
#     Edge 24, Type (0, 0), BuildingBlock: AJUNOK_clean_linker_0, # of connection points: 2
#     Edge 25, Type (0, 0), BuildingBlock: AJUNOK_clean_linker_0, # of connection points: 2
#     Edge 26, Type (0, 0), BuildingBlock: AJUNOK_clean_linker_0, # of connection points: 2
#     Edge 27, Type (0, 0), BuildingBlock: AJUNOK_clean_linker_0, # of connection points: 2
#     Edge 28, Type (0, 0), BuildingBlock: AJUNOK_clean_linker_0, # of connection points: 2
#     Edge 29, Type (0, 0), BuildingBlock: AJUNOK_clean_linker_0, # of connection points: 2
#     Edge 30, Type (0, 0), BuildingBlock: AJUNOK_clean_linker_0, # of connection points: 2
#     Edge 31, Type (0, 0), BuildingBlock: AJUNOK_clean_linker_0, # of connection points: 2
#     Edge 32, Type (0, 0), BuildingBlock: AJUNOK_clean_linker_0, # of connection points: 2
#     Edge 33, Type (0, 0), BuildingBlock: AJUNOK_clean_linker_0, # of connection points: 2
#     Edge 34, Type (0, 0), BuildingBlock: AJUNOK_clean_linker_0, # of connection points: 2
#     Edge 35, Type (0, 0), BuildingBlock: AJUNOK_clean_linker_0, # of connection points: 2
#     Edge 36, Type (0, 0), BuildingBlock: AJUNOK_clean_linker_0, # of connection points: 2
#     Edge 37, Type (0, 0), BuildingBlock: AJUNOK_clean_linker_0, # of connection points: 2
#     Edge 38, Type (0, 0), BuildingBlock: AJUNOK_clean_linker_0, # of connection points: 2
#     Edge 39, Type (0, 0), BuildingBlock: AJUNOK_clean_linker_0, # of connection points: 2
#     Edge 40, Type (0, 0), BuildingBlock: AJUNOK_clean_linker_0, # of connection points: 2
#     Edge 41, Type (0, 0), BuildingBlock: AJUNOK_clean_linker_0, # of connection points: 2
#     Edge 42, Type (0, 0), BuildingBlock: AJUNOK_clean_linker_0, # of connection points: 2
#     Edge 43, Type (0, 0), BuildingBlock: AJUNOK_clean_linker_0, # of connection points: 2
#     Edge 44, Type (0, 0), BuildingBlock: AJUNOK_clean_linker_0, # of connection points: 2
#     Edge 45, Type (0, 0), BuildingBlock: AJUNOK_clean_linker_0, # of connection points: 2
#     Edge 46, Type (0, 0), BuildingBlock: AJUNOK_clean_linker_0, # of connection points: 2
#     Edge 47, Type (0, 0), BuildingBlock: AJUNOK_clean_linker_0, # of connection points: 2
#     Edge 48, Type (0, 0), BuildingBlock: AJUNOK_clean_linker_0, # of connection points: 2
#     Edge 49, Type (0, 0), BuildingBlock: AJUNOK_clean_linker_0, # of connection points: 2
#     Edge 50, Type (0, 0), BuildingBlock: AJUNOK_clean_linker_0, # of connection points: 2
#     Edge 51, Type (0, 0), BuildingBlock: AJUNOK_clean_linker_0, # of connection points: 2
#     Edge 52, Type (0, 0), BuildingBlock: AJUNOK_clean_linker_0, # of connection points: 2
#     Edge 53, Type (0, 0), BuildingBlock: AJUNOK_clean_linker_0, # of connection points: 2
#     Edge 54, Type (0, 0), BuildingBlock: AJUNOK_clean_linker_0, # of connection points: 2
#     Edge 55, Type (0, 0), BuildingBlock: AJUNOK_clean_linker_0, # of connection points: 2
#     Edge 56, Type (0, 0), BuildingBlock: AJUNOK_clean_linker_0, # of connection points: 2
#     Edge 57, Type (0, 0), BuildingBlock: AJUNOK_clean_linker_0, # of connection points: 2
#     Edge 58, Type (0, 0), BuildingBlock: AJUNOK_clean_linker_0, # of connection points: 2
#     Edge 59, Type (0, 0), BuildingBlock: AJUNOK_clean_linker_0, # of connection points: 2
#     Edge 60, Type (0, 0), BuildingBlock: AJUNOK_clean_linker_0, # of connection points: 2
#     Edge 61, Type (0, 0), BuildingBlock: AJUNOK_clean_linker_0, # of connection points: 2
#     Edge 62, Type (0, 0), BuildingBlock: AJUNOK_clean_linker_0, # of connection points: 2
#     Edge 63, Type (0, 0), BuildingBlock: AJUNOK_clean_linker_0, # of connection points: 2
#     Edge 64, Type (0, 0), BuildingBlock: AJUNOK_clean_linker_0, # of connection points: 2
#     Edge 65, Type (0, 0), BuildingBlock: AJUNOK_clean_linker_0, # of connection points: 2
#     Edge 66, Type (0, 0), BuildingBlock: AJUNOK_clean_linker_0, # of connection points: 2
#     Edge 67, Type (0, 0), BuildingBlock: AJUNOK_clean_linker_0, # of connection points: 2
#     Edge 68, Type (0, 0), BuildingBlock: AJUNOK_clean_linker_0, # of connection points: 2
#     Edge 69, Type (0, 0), BuildingBlock: AJUNOK_clean_linker_0, # of connection points: 2
#     Edge 70, Type (0, 0), BuildingBlock: AJUNOK_clean_linker_0, # of connection points: 2
#     Edge 71, Type (0, 0), BuildingBlock: AJUNOK_clean_linker_0, # of connection points: 2
# Relax obj value: 0.054
# Max RMSD: 0.155
# Mean RMSD: 0.155
data_MOF--net-wmi--node1-CUKXOW_clean_sbu_0--edge1-AJUNOK_clean_linker_0
_symmetry_space_group_name_H-M    P1
_symmetry_Int_Tables_number       1
_symmetry_cell_setting            triclinic
loop_
_symmetry_equiv_pos_as_xyz
'x, y, z'
_cell_length_a     23.846698
_cell_length_b     23.95918
_cell_length_c     62.390026
_cell_angle_alpha  90.74973
_cell_angle_beta   89.525511
_cell_angle_gamma 119.8094
loop_
_atom_site_label
_atom_site_type_symbol
_atom_site_fract_x
_atom_site_fract_y
_atom_site_fract_z
_atom_type_partial_charge
Tb0 Tb 0.50339 0.08856 0.10676 0.0
C1 C 0.47294 1.00794 0.14883 0.0
Tb2 Tb 0.53955 0.98414 0.10781 0.0
O3 O 0.40057 0.01824 0.1115 0.0
O4 O 0.4624 0.99288 0.09583 0.0
O5 O 0.48163 0.06223 0.14029 0.0
C6 C 0.55629 0.88282 0.10764 0.0
O7 O 0.49261 0.97083 0.13915 0.0
C8 C 0.63671 0.10183 0.10811 0.0
C9 C 0.54026 0.04283 0.06352 0.0
O10 O 0.501 0.88048 0.10599 0.0
O11 O 0.60166 0.94174 0.11027 0.0
O12 O 0.63801 0.05349 0.09926 0.0
O13 O 0.5837 0.08243 0.11794 0.0
O14 O 0.53067 0.99034 0.07352 0.0
O15 O 0.53969 0.09131 0.074 0.0
C16 C 0.51264 0.20377 0.10542 0.0
O17 O 0.46985 0.15279 0.09525 0.0
O18 O 0.54963 0.18957 0.11639 0.0
C19 C 0.40639 0.97115 0.10327 0.0
Tb20 Tb 0.98764 0.4523 0.10119 0.0
C21 C 0.07451 0.49367 0.14235 0.0
Tb22 Tb 0.10133 0.58915 0.10361 0.0
O23 O 0.05113 0.4105 0.10421 0.0
O24 O 0.08438 0.50055 0.09065 0.0
O25 O 1.01619 0.45392 0.13445 0.0
C26 C 0.20913 0.70264 0.10785 0.0
O27 O 0.11642 0.54701 0.13234 0.0
C28 C 0.98675 0.57911 0.1048 0.0
C29 C 0.03716 0.5365 0.05867 0.0
O30 O 0.15799 0.68218 0.1198 0.0
O31 O 0.19994 0.65841 0.09382 0.0
O32 O 0.03761 0.62711 0.09665 0.0
O33 O 1.00243 0.54158 0.11356 0.0
O34 O 0.09034 0.5781 0.06907 0.0
O35 O 0.98728 0.48824 0.06872 0.0
C36 C 0.86832 0.35026 0.10079 0.0
O37 O 0.91581 0.35801 0.08846 0.0
O38 O 0.888 0.40035 0.11318 0.0
C39 C 0.10146 0.46157 0.09685 0.0
Tb40 Tb 0.6315 0.57956 0.09937 0.0
C41 C 0.5844 0.6061 0.14453 0.0
Tb42 Tb 0.48757 0.536 0.10531 0.0
O43 O 0.65266 0.67278 0.08559 0.0
O44 O 0.57488 0.6224 0.10554 0.0
O45 O 0.62758 0.59598 0.13407 0.0
C46 C 0.36615 0.51415 0.10269 0.0
O47 O 0.5286 0.59274 0.13522 0.0
C48 C 0.52053 0.44761 0.11172 0.0
C49 C 0.54462 0.53779 0.05852 0.0
O50 O 0.39025 0.49959 0.11882 0.0
O51 O 0.41057 0.54153 0.08819 0.0
O52 O 0.471 0.44738 0.1204 0.0
O53 O 0.54312 0.49129 0.09803 0.0
O54 O 0.49898 0.541 0.07004 0.0
O55 O 0.59663 0.54131 0.06744 0.0
C56 C 0.74174 0.57643 0.10215 0.0
O57 O 0.73217 0.61459 0.08998 0.0
O58 O 0.68925 0.54038 0.11285 0.0
C59 C 0.59971 0.66898 0.09312 0.0
Tb60 Tb 0.0997 0.49166 0.92545 0.0
C61 C 0.03405 0.46779 0.87961 0.0
Tb62 Tb 0.99481 0.53004 0.91874 0.0
O63 O 1.0282 0.40203 0.94196 0.0
O64 O 1.00074 0.44654 0.91975 0.0
O65 O 0.0838 0.47396 0.89101 0.0
C66 C 0.88925 0.53938 0.91405 0.0
O67 O 0.99434 0.48805 0.88698 0.0
C68 C 0.11238 0.62576 0.92452 0.0
C69 C 0.04221 0.52578 0.96536 0.0
O70 O 0.94136 0.56924 0.90242 0.0
O71 O 0.89638 0.5033 0.92786 0.0
O72 O 0.06067 0.62773 0.92947 0.0
O73 O 0.0968 0.57401 0.91453 0.0
O74 O 0.99188 0.51538 0.95347 0.0
O75 O 0.09467 0.52808 0.95705 0.0
C76 C 0.21336 0.49484 0.92438 0.0
O77 O 0.20412 0.5412 0.93103 0.0
O78 O 0.15815 0.44596 0.91883 0.0
C79 C 0.97906 0.40204 0.93289 0.0
Tb80 Tb 0.58723 0.61983 0.9223 0.0
C81 C 0.63004 0.57377 0.88063 0.0
Tb82 Tb 0.55848 0.4798 0.91981 0.0
O83 O 0.69173 0.65895 0.91904 0.0
O84 O 0.63265 0.56828 0.93188 0.0
O85 O 0.61393 0.61558 0.88881 0.0
C86 C 0.54751 0.36331 0.91668 0.0
O87 O 0.61541 0.51924 0.89046 0.0
C88 C 0.45658 0.49486 0.92007 0.0
C89 C 0.54905 0.53516 0.96487 0.0
O90 O 0.51856 0.38481 0.90457 0.0
O91 O 0.58433 0.40839 0.93013 0.0
O92 O 0.4565 0.44388 0.92658 0.0
O93 O 0.51002 0.53121 0.91104 0.0
O94 O 0.55925 0.49228 0.95444 0.0
O95 O 0.54976 0.58448 0.95488 0.0
C96 C 0.57675 0.72594 0.92307 0.0
O97 O 0.60959 0.71258 0.93654 0.0
O98 O 0.54942 0.67921 0.9092 0.0
C99 C 0.689 0.60617 0.92538 0.0
Tb100 Tb 0.46042 0.9798 0.92766 0.0
C101 C 0.51032 0.05861 0.88504 0.0
Tb102 Tb 0.59864 0.08775 0.92619 0.0
O103 O 0.42289 0.04525 0.92137 0.0
O104 O 0.51052 0.07767 0.93713 0.0
O105 O 0.46746 1.00307 0.89378 0.0
C106 C 0.71588 0.19053 0.92869 0.0
O107 O 0.56509 0.10006 0.89489 0.0
C108 C 0.58377 0.97137 0.92396 0.0
C109 C 0.53787 0.03483 0.97055 0.0
O110 O 0.67226 0.18215 0.91464 0.0
O111 O 0.69344 0.14122 0.94099 0.0
O112 O 0.63407 0.02088 0.93161 0.0
O113 O 0.54804 0.98972 0.91559 0.0
O114 O 0.57439 0.08791 0.95968 0.0
O115 O 0.49481 0.98149 0.9605 0.0
C116 C 0.35678 0.8626 0.92949 0.0
O117 O 0.3623 0.91388 0.93883 0.0
O118 O 0.40954 0.87751 0.91907 0.0
C119 C 0.47439 0.09557 0.92874 0.0
Tb120 Tb 0.15811 0.41912 0.43262 0.0
C121 C 0.12099 0.33303 0.47424 0.0
Tb122 Tb 0.19513 0.3091 0.43592 0.0
O123 O 0.05364 0.34846 0.43423 0.0
O124 O 0.12001 0.32204 0.42388 0.0
O125 O 0.13789 0.39023 0.46606 0.0
C126 C 0.20662 0.20508 0.43059 0.0
O127 O 0.13579 0.29171 0.46481 0.0
C128 C 0.2949 0.42591 0.44457 0.0
C129 C 0.19936 0.37241 0.391 0.0
O130 O 0.17158 0.2121 0.44536 0.0
O131 O 0.23444 0.25628 0.41899 0.0
O132 O 0.29693 0.37304 0.446 0.0
O133 O 0.23748 0.40864 0.4401 0.0
O134 O 0.18946 0.32016 0.40141 0.0
O135 O 0.198 0.42182 0.40059 0.0
C136 C 0.17069 0.53504 0.43726 0.0
O137 O 0.14332 0.49678 0.42088 0.0
O138 O 0.19149 0.50838 0.45058 0.0
C139 C 0.06186 0.30009 0.42898 0.0
Tb140 Tb 0.65279 0.7768 0.43737 0.0
C141 C 0.73499 0.82508 0.47913 0.0
Tb142 Tb 0.76541 0.91571 0.43945 0.0
O143 O 0.71772 0.73675 0.44022 0.0
O144 O 0.75018 0.82693 0.42738 0.0
O145 O 0.67524 0.79028 0.47157 0.0
C146 C 0.8718 0.03147 0.44205 0.0
O147 O 0.78007 0.87533 0.46858 0.0
C148 C 0.64927 0.90233 0.44031 0.0
C149 C 0.70523 0.85708 0.39408 0.0
O150 O 0.82003 1.01234 0.4536 0.0
O151 O 0.86426 0.98447 0.42956 0.0
O152 O 0.69972 0.95042 0.43201 0.0
O153 O 0.66582 0.86591 0.44947 0.0
O154 O 0.75523 0.90268 0.40487 0.0
O155 O 0.65713 0.80574 0.4036 0.0
C156 C 0.53608 0.66943 0.43783 0.0
O157 O 0.5469 0.72623 0.43252 0.0
O158 O 0.59089 0.67334 0.44221 0.0
C159 C 0.76823 0.78898 0.43381 0.0
Tb160 Tb 0.29761 0.91095 0.43752 0.0
C161 C 0.25528 0.94159 0.48341 0.0
Tb162 Tb 0.15612 0.87305 0.44523 0.0
O163 O 0.31779 1.0004 0.42132 0.0
O164 O 0.24519 0.95782 0.4442 0.0
O165 O 0.29774 0.93178 0.47224 0.0
C166 C 0.03577 0.85461 0.44485 0.0
O167 O 0.19839 0.92755 0.47502 0.0
C168 C 0.18577 0.78153 0.45016 0.0
C169 C 0.20723 0.87175 0.39764 0.0
O170 O 0.08371 0.89646 0.43345 0.0
O171 O 0.05605 0.82406 0.4566 0.0
O172 O 0.14128 0.78541 0.46098 0.0
O173 O 0.20741 0.825 0.43642 0.0
O174 O 0.16255 0.87446 0.40988 0.0
O175 O 0.25968 0.87403 0.40575 0.0
C176 C 0.40546 0.90295 0.4392 0.0
O177 O 0.39911 0.94686 0.42924 0.0
O178 O 0.35097 0.86366 0.44835 0.0
C179 C 0.26827 1.00058 0.43027 0.0
Tb180 Tb 0.76114 0.82446 0.25823 0.0
C181 C 0.67891 0.79192 0.21601 0.0
Tb182 Tb 0.65636 0.86283 0.2549 0.0
O183 O 0.69104 0.72166 0.25323 0.0
O184 O 0.66313 0.78423 0.26655 0.0
O185 O 0.73753 0.81228 0.22401 0.0
C186 C 0.56052 0.88922 0.25917 0.0
O187 O 0.63608 0.80299 0.2261 0.0
C188 C 0.77506 0.94999 0.24231 0.0
C189 C 0.71395 0.86149 0.30084 0.0
O190 O 0.55412 0.8352 0.25197 0.0
O191 O 0.62057 0.92783 0.26398 0.0
O192 O 0.72194 0.94255 0.23412 0.0
O193 O 0.75867 0.9112 0.25751 0.0
O194 O 0.6667 0.86244 0.28986 0.0
O195 O 0.75909 0.85203 0.29158 0.0
C196 C 0.87821 0.83624 0.25869 0.0
O197 O 0.82948 0.79709 0.27055 0.0
O198 O 0.86066 0.86832 0.24649 0.0
C199 C 0.64224 0.72788 0.2596 0.0
Tb200 Tb 0.24868 0.95836 0.26143 0.0
C201 C 0.2899 0.91113 0.22053 0.0
Tb202 Tb 0.2214 0.81891 0.25956 0.0
O203 O 0.35407 0.99887 0.26067 0.0
O204 O 0.29389 0.90708 0.27215 0.0
O205 O 0.26576 0.94746 0.22759 0.0
C206 C 0.20961 0.70231 0.25616 0.0
O207 O 0.28269 0.86074 0.2314 0.0
C208 C 0.11975 0.83308 0.25716 0.0
C209 C 0.21089 0.87685 0.30441 0.0
O210 O 0.1895 0.72794 0.24216 0.0
O211 O 0.23754 0.74299 0.27178 0.0
O212 O 0.11984 0.78383 0.26525 0.0
O213 O 0.17424 0.86968 0.24874 0.0
O214 O 0.2191 0.83226 0.29418 0.0
O215 O 0.2157 0.92812 0.29451 0.0
C216 C 0.2405 0.06602 0.25964 0.0
O217 O 0.19167 1.0082 0.26154 0.0
O218 O 0.29308 0.06278 0.25962 0.0
C219 C 0.35119 0.94597 0.26678 0.0
Tb220 Tb 0.11539 0.31499 0.25487 0.0
C221 C 0.16354 0.40005 0.21346 0.0
Tb222 Tb 0.25744 0.42384 0.25284 0.0
O223 O 0.0809 0.38458 0.25124 0.0
O224 O 0.16971 0.41107 0.26513 0.0
O225 O 0.12096 0.34321 0.22144 0.0
C226 C 0.37348 0.52975 0.2504 0.0
O227 O 0.21829 0.43987 0.22347 0.0
C228 C 0.24 0.30693 0.25284 0.0
C229 C 0.20048 0.36346 0.29779 0.0
O230 O 0.3267 0.52209 0.26303 0.0
O231 O 0.35422 0.47812 0.23875 0.0
O232 O 0.29144 0.35734 0.25977 0.0
O233 O 0.20407 0.32432 0.24368 0.0
O234 O 0.24538 0.41389 0.28725 0.0
O235 O 0.1491 0.31543 0.28793 0.0
C236 C 1.00866 0.1985 0.25323 0.0
O237 O 1.01501 0.24768 0.26433 0.0
O238 O 0.06285 0.21481 0.24349 0.0
C239 C 0.13421 0.43226 0.2588 0.0
Tb240 Tb 0.85272 0.75154 0.76711 0.0
C241 C 0.81386 0.66488 0.80833 0.0
Tb242 Tb 0.88743 0.6438 0.7686 0.0
O243 O 0.74842 0.68519 0.76989 0.0
O244 O 0.80949 0.65378 0.75759 0.0
O245 O 0.82877 0.7222 0.80052 0.0
C246 C 0.91181 0.54632 0.76549 0.0
O247 O 0.82944 0.62498 0.79815 0.0
C248 C 0.98554 0.76179 0.76997 0.0
C249 C 0.8877 0.70368 0.72442 0.0
O250 O 0.90998 0.57421 0.78335 0.0
O251 O 0.89628 0.57085 0.74988 0.0
O252 O 0.98868 0.71302 0.76264 0.0
O253 O 0.93115 0.74228 0.7785 0.0
O254 O 0.87304 0.64971 0.73448 0.0
O255 O 0.89235 0.75443 0.73492 0.0
C256 C 0.86145 0.86748 0.7655 0.0
O257 O 0.82521 0.81821 0.75335 0.0
O258 O 0.89246 0.85117 0.77871 0.0
C259 C 0.75271 0.63509 0.76403 0.0
Tb260 Tb 0.33564 0.11233 0.77203 0.0
C261 C 0.41922 0.15284 0.81476 0.0
Tb262 Tb 0.44512 0.25717 0.77947 0.0
O263 O 0.40665 0.07944 0.77264 0.0
O264 O 0.43336 0.17314 0.76372 0.0
O265 O 0.36279 0.11288 0.80547 0.0
C266 C 0.54461 0.37541 0.77768 0.0
O267 O 0.46015 0.21112 0.80717 0.0
C268 C 0.32776 0.23629 0.78995 0.0
C269 C 0.38244 0.2087 0.73314 0.0
O270 O 0.54717 0.32633 0.78534 0.0
O271 O 0.48685 0.35748 0.77103 0.0
O272 O 0.38027 0.29078 0.79262 0.0
O273 O 0.34602 0.19844 0.78345 0.0
O274 O 0.43365 0.2501 0.74455 0.0
O275 O 0.33391 0.15565 0.74155 0.0
C276 C 0.21921 1.00864 0.76971 0.0
O277 O 0.26722 0.02128 0.75681 0.0
O278 O 0.23711 0.05424 0.78398 0.0
C279 C 0.45491 0.13609 0.76802 0.0
Tb280 Tb 0.97749 0.23586 0.76855 0.0
C281 C 0.93168 0.26818 0.81273 0.0
Tb282 Tb 0.83658 0.20632 0.77269 0.0
O283 O 1.00378 0.32488 0.75047 0.0
O284 O 0.92859 0.28749 0.77216 0.0
O285 O 0.97399 0.25612 0.80267 0.0
C286 C 0.72278 0.20122 0.77635 0.0
O287 O 0.87494 0.25336 0.80397 0.0
C288 C 0.85296 0.10572 0.76904 0.0
C289 C 0.89418 0.20524 0.72715 0.0
O290 O 0.74169 0.1687 0.78787 0.0
O291 O 0.76883 0.23774 0.76322 0.0
O292 O 0.80242 0.10714 0.76251 0.0
O293 O 0.88879 0.15716 0.77915 0.0
O294 O 0.85446 0.21898 0.73814 0.0
O295 O 0.94066 0.19913 0.73652 0.0
C296 C 0.08677 0.23257 0.77427 0.0
O297 O 0.07921 0.28204 0.77744 0.0
O298 O 0.03299 0.18495 0.76705 0.0
C299 C 0.95582 0.33007 0.75841 0.0
Tb300 Tb 0.4304 0.16539 0.59803 0.0
C301 C 0.34557 0.12158 0.55653 0.0
Tb302 Tb 0.3184 0.19236 0.59553 0.0
O303 O 0.36423 0.06103 0.59451 0.0
O304 O 0.33358 0.12042 0.60849 0.0
O305 O 0.40405 0.14148 0.56451 0.0
C306 C 0.21204 0.20209 0.59525 0.0
O307 O 0.30244 0.13274 0.56658 0.0
C308 C 0.43449 0.29401 0.59368 0.0
C309 C 0.38418 0.20729 0.64008 0.0
O310 O 0.25629 0.22376 0.58045 0.0
O311 O 0.2262 0.17226 0.60948 0.0
O312 O 0.38446 0.29436 0.60158 0.0
O313 O 0.41701 0.23959 0.58537 0.0
O314 O 0.33023 0.19418 0.63 0.0
O315 O 0.43332 0.20663 0.63003 0.0
C316 C 0.54839 0.17865 0.5991 0.0
O317 O 0.49838 0.13643 0.60971 0.0
O318 O 0.53186 0.21348 0.58797 0.0
C319 C 0.31472 0.06393 0.60209 0.0
Tb320 Tb 0.91694 0.29088 0.59272 0.0
C321 C 0.94244 0.24368 0.54746 0.0
Tb322 Tb 0.88438 0.14925 0.58738 0.0
O323 O 1.00723 0.3154 0.6101 0.0
O324 O 0.96659 0.24043 0.58814 0.0
O325 O 0.93373 0.28716 0.55827 0.0
C326 C 0.87486 0.03423 0.58236 0.0
O327 O 0.92771 0.18696 0.55583 0.0
C328 C 0.78521 0.16776 0.59215 0.0
C329 C 0.8886 0.20592 0.63363 0.0
O330 O 0.84237 0.05499 0.57165 0.0
O331 O 0.91433 0.07937 0.59539 0.0
O332 O 0.78585 0.11668 0.59815 0.0
O333 O 0.83659 0.20323 0.58206 0.0
O334 O 0.8993 0.16529 0.62197 0.0
O335 O 0.88294 0.25309 0.62478 0.0
C336 C 0.9129 0.40039 0.59014 0.0
O337 O 0.86752 0.34673 0.59799 0.0
O338 O 0.96085 0.39249 0.5842 0.0
C339 C 1.0098 0.26643 0.6019 0.0
Tb340 Tb 0.78583 0.64905 0.59065 0.0
C341 C 0.83058 0.73118 0.54825 0.0
Tb342 Tb 0.93279 0.76189 0.58552 0.0
O343 O 0.74955 0.71723 0.5883 0.0
O344 O 0.84359 0.74757 0.59794 0.0
O345 O 0.79182 0.67367 0.55675 0.0
C346 C 0.0467 0.87068 0.58724 0.0
O347 O 0.88598 0.77454 0.55739 0.0
C348 C 0.91794 0.64426 0.58061 0.0
C349 C 0.88017 0.69888 0.63121 0.0
O350 O 1.02624 0.8301 0.57124 0.0
O351 O 1.00202 0.85081 0.60184 0.0
O352 O 0.97311 0.69704 0.57979 0.0
O353 O 0.87671 0.66177 0.58283 0.0
O354 O 0.92621 0.74694 0.62 0.0
O355 O 0.82531 0.65241 0.62262 0.0
C356 C 0.68007 0.53293 0.59212 0.0
O357 O 0.6939 0.58029 0.60545 0.0
O358 O 0.7261 0.55108 0.57798 0.0
C359 C 0.8055 0.76716 0.59279 0.0
C360 C 0.62514 0.83803 0.09485 0.0
C361 C 0.56682 0.8284 0.10392 0.0
C362 C 0.63463 0.7858 0.09034 0.0
C363 C 0.58654 0.72279 0.09522 0.0
H364 H 0.66334 0.88608 0.091 0.0
H365 H 0.68041 0.79503 0.08358 0.0
S366 S 0.42608 0.67382 0.11974 0.0
N367 N 0.46071 0.75254 0.11751 0.0
N368 N 0.47898 0.65472 0.11001 0.0
C369 C 0.52816 0.71321 0.10435 0.0
C370 C 0.51816 0.76602 0.10848 0.0
C371 C 0.30931 0.88074 0.12033 0.0
C372 C 0.35795 0.90223 0.10461 0.0
C373 C 0.26283 0.81539 0.12188 0.0
C374 C 0.26332 0.76947 0.1077 0.0
H375 H 0.30709 0.9146 0.1315 0.0
H376 H 0.22543 0.80103 0.13398 0.0
S377 S 0.38146 0.80117 0.06396 0.0
N378 N 0.40424 0.8726 0.07471 0.0
N379 N 0.31769 0.7498 0.07786 0.0
C380 C 0.31266 0.79021 0.09225 0.0
C381 C 0.35976 0.85668 0.09062 0.0
C382 C 0.18703 0.44525 0.11352 0.0
C383 C 0.16889 0.47515 0.09795 0.0
C384 C 0.25132 0.45897 0.1152 0.0
C385 C 0.29924 0.50204 0.10111 0.0
H386 H 0.15153 0.41175 0.12467 0.0
H387 H 0.26338 0.43509 0.12747 0.0
S388 S 0.27625 0.59264 0.05754 0.0
N389 N 0.20374 0.54984 0.06828 0.0
N390 N 0.32424 0.57496 0.07123 0.0
C391 C 0.28161 0.53217 0.08548 0.0
C392 C 0.21645 0.51889 0.08396 0.0
C393 C 0.78354 0.51848 0.92878 0.0
C394 C 0.83534 0.55284 0.91458 0.0
C395 C 0.73609 0.53586 0.93205 0.0
C396 C 0.73909 0.58843 0.92135 0.0
H397 H 0.78047 0.47886 0.93789 0.0
H398 H 0.6978 0.50903 0.94348 0.0
S399 S 0.86186 0.6908 0.88117 0.0
N400 N 0.88445 0.63905 0.88862 0.0
N401 N 0.79586 0.67261 0.89508 0.0
C402 C 0.78951 0.62204 0.90661 0.0
C403 C 0.8374 0.60381 0.90308 0.0
C404 C 0.54633 0.21307 0.93565 0.0
C405 C 0.49329 0.16341 0.9247 0.0
C406 C 0.56496 0.27784 0.9324 0.0
C407 C 0.53179 0.29536 0.91785 0.0
H408 H 0.57302 0.20186 0.94715 0.0
H409 H 0.60493 0.31434 0.94165 0.0
S410 S 0.39307 0.18378 0.88378 0.0
N411 N 0.40996 0.13619 0.8979 0.0
N412 N 0.44571 0.25787 0.89143 0.0
C413 C 0.48024 0.24626 0.90617 0.0
C414 C 0.46071 0.18026 0.90971 0.0
C415 C 0.82546 0.24607 0.94533 0.0
C416 C 0.78147 0.24591 0.93033 0.0
C417 C 0.88929 0.29731 0.94648 0.0
C418 C 0.91085 0.34986 0.93269 0.0
H419 H 0.8108 0.20594 0.95605 0.0
H420 H 0.922 0.29535 0.95799 0.0
S421 S 0.81276 0.37238 0.89102 0.0
N422 N 0.76265 0.3028 0.90201 0.0
N423 N 0.88183 0.39819 0.9037 0.0
C424 C 0.86645 0.35024 0.91788 0.0
C425 C 0.80185 0.29843 0.91681 0.0
C426 C 0.20348 0.04993 0.44272 0.0
C427 C 0.24955 0.05032 0.42835 0.0
C428 C 0.18824 0.09917 0.44284 0.0
C429 C 0.21827 0.15043 0.42852 0.0
H430 H 0.18003 1.01221 0.45442 0.0
H431 H 0.15391 0.09781 0.4546 0.0
S432 S 0.33657 0.17016 0.38602 0.0
N433 N 0.32107 0.1033 0.3983 0.0
N434 N 0.29224 0.19623 0.39834 0.0
C435 C 0.26201 0.14987 0.41332 0.0
C436 C 0.27774 0.09967 0.41328 0.0
C437 C 0.96274 0.2135 0.44667 0.0
C438 C 1.01509 0.23134 0.43258 0.0
C439 C 0.9182 0.14849 0.45045 0.0
C440 C 0.92412 0.09909 0.4401 0.0
H441 H 0.95615 0.24999 0.45486 0.0
H442 H 0.87789 0.13695 0.46112 0.0
S443 S 0.05365 0.12057 0.40208 0.0
N444 N 0.07114 0.19451 0.40859 0.0
N445 N 0.98753 0.07255 0.41564 0.0
C446 C 0.97705 0.11636 0.42633 0.0
C447 C 1.0225 0.18247 0.42257 0.0
C448 C 0.95078 0.87278 0.42854 0.0
C449 C 0.96776 0.83932 0.44309 0.0
C450 C 0.886 0.85625 0.42563 0.0
C451 C 0.83604 0.80542 0.43706 0.0
H452 H 0.98766 0.91151 0.41912 0.0
H453 H 0.87489 0.88271 0.41408 0.0
S454 S 0.85509 0.70502 0.47792 0.0
N455 N 0.92946 0.75483 0.46975 0.0
N456 N 0.80792 0.7233 0.46402 0.0
C457 C 0.8524 0.77218 0.45185 0.0
C458 C 0.91828 0.78936 0.45497 0.0
C459 C 0.39286 0.86896 0.26307 0.0
C460 C 0.4052 0.93242 0.26559 0.0
C461 C 0.44333 0.85526 0.26085 0.0
C462 C 0.50811 0.9047 0.26145 0.0
H463 H 0.34393 0.82975 0.2622 0.0
H464 H 0.43147 0.80562 0.25871 0.0
S465 S 0.56657 0.07929 0.26789 0.0
N466 N 0.48701 0.04532 0.26845 0.0
N467 N 0.5822 0.0198 0.26483 0.0
C468 C 0.5213 0.96846 0.26417 0.0
C469 C 0.46978 0.98233 0.26606 0.0
C470 C 0.15138 0.59065 0.24083 0.0
C471 C 0.19429 0.63455 0.25612 0.0
C472 C 0.13115 0.52478 0.2419 0.0
C473 C 0.15391 0.50105 0.25813 0.0
H474 H 0.13228 0.60701 0.2282 0.0
H475 H 0.09803 0.49241 0.22987 0.0
S476 S 0.26642 0.59589 0.30199 0.0
N477 N 0.25886 0.6495 0.28787 0.0
N478 N 0.22086 0.52607 0.28987 0.0
C479 C 0.19735 0.54452 0.2733 0.0
C480 C 0.21762 0.61127 0.27229 0.0
C481 C 0.55508 0.62717 0.24272 0.0
C482 C 0.5733 0.67927 0.25697 0.0
C483 C 0.48991 0.58025 0.24005 0.0
C484 C 0.44079 0.5836 0.25165 0.0
H485 H 0.5914 0.62254 0.23356 0.0
H486 H 0.47815 0.54032 0.22918 0.0
S487 S 0.46324 0.71138 0.29063 0.0
N488 N 0.53713 0.73214 0.28256 0.0
N489 N 0.41479 0.64434 0.27746 0.0
C490 C 0.45834 0.63623 0.26562 0.0
C491 C 0.52462 0.68398 0.26831 0.0
C492 C 0.93285 0.46377 0.78139 0.0
C493 C 0.927 0.49384 0.76311 0.0
C494 C 0.94454 0.41221 0.77953 0.0
C495 C 0.95167 0.38931 0.75937 0.0
H496 H 0.92705 0.47923 0.79725 0.0
H497 H 0.94744 0.38965 0.79404 0.0
S498 S 0.9429 0.45266 0.70656 0.0
N499 N 0.93076 0.49801 0.72406 0.0
N500 N 0.95367 0.40115 0.72083 0.0
C501 C 0.9479 0.41994 0.74097 0.0
C502 C 0.93517 0.47216 0.74279 0.0
C503 C 0.63693 0.55487 0.76948 0.0
C504 C 0.70096 0.56789 0.76719 0.0
C505 C 0.5865 0.49228 0.77313 0.0
C506 C 0.59878 0.44104 0.77535 0.0
H507 H 0.62549 0.59317 0.76818 0.0
H508 H 0.5376 0.48403 0.7743 0.0
S509 S 0.75698 0.44896 0.77148 0.0
N510 N 0.77299 0.52337 0.76716 0.0
N511 N 0.67853 0.4068 0.77572 0.0
C512 C 0.6623 0.45336 0.7737 0.0
C513 C 0.71336 0.51656 0.76912 0.0
C514 C 0.54161 0.12154 0.78455 0.0
C515 C 0.5238 0.15601 0.77076 0.0
C516 C 0.60659 0.13847 0.78704 0.0
C517 C 0.65592 0.18988 0.77559 0.0
H518 H 0.50506 0.08104 0.79344 0.0
H519 H 0.61798 0.10984 0.79755 0.0
S520 S 0.63428 0.29544 0.73755 0.0
N521 N 0.56041 0.24454 0.74588 0.0
N522 N 0.68244 0.27582 0.75022 0.0
C523 C 0.63876 0.2255 0.76207 0.0
C524 C 0.57267 0.20868 0.75974 0.0
C525 C 0.09505 0.25908 0.58161 0.0
C526 C 0.06617 0.25753 0.60151 0.0
C527 C 0.14227 0.24095 0.57973 0.0
C528 C 0.16079 0.21895 0.59757 0.0
H529 H 0.08026 0.27355 0.56732 0.0
H530 H 0.16358 0.24314 0.56414 0.0
S531 S 0.09922 0.20605 0.65322 0.0
N532 N 0.05947 0.23356 0.63936 0.0
N533 N 0.14736 0.19757 0.63591 0.0
C534 C 0.13232 0.21736 0.61761 0.0
C535 C 0.08517 0.23724 0.61957 0.0
C536 C 0.87836 0.88467 0.59937 0.0
C537 C 0.82405 0.83495 0.589 0.0
C538 C 0.89603 0.94935 0.59646 0.0
C539 C 0.86033 0.96658 0.5829 0.0
H540 H 0.90625 0.87347 0.61033 0.0
H541 H 0.93703 0.98596 0.60531 0.0
S542 S 0.71677 0.8544 0.5508 0.0
N543 N 0.73633 0.80716 0.56394 0.0
N544 N 0.7702 0.92861 0.55808 0.0
C545 C 0.80726 0.91733 0.57184 0.0
C546 C 0.7888 0.85148 0.57504 0.0
C547 C 0.22883 0.97079 0.58147 0.0
C548 C 0.24627 1.01491 0.59863 0.0
C549 C 0.16374 0.9261 0.57727 0.0
C550 C 0.11401 0.92316 0.59036 0.0
H551 H 0.26563 0.9712 0.57106 0.0
H552 H 0.15251 0.89262 0.564 0.0
S553 S 0.13464 0.02735 0.6376 0.0
N554 N 0.20893 0.05268 0.62886 0.0
N555 N 0.08678 0.96831 0.62119 0.0
C556 C 0.13092 0.96709 0.60756 0.0
C557 C 0.19706 1.01301 0.61166 0.0
C558 C 0.51769 0.98398 0.02857 0.0
C559 C 0.54288 0.04288 0.03988 0.0
C560 C 0.51601 0.9817 1.00616 0.0
C561 C 0.54027 0.03827 0.9942 0.0
H562 H 0.49784 0.93891 0.03707 0.0
H563 H 0.49578 0.93529 0.99817 0.0
S564 S 0.61273 0.20503 0.01611 0.0
N565 N 0.59345 0.15912 0.03747 0.0
N566 N 0.59082 0.15532 0.99534 0.0
C567 C 0.56644 0.09769 1.0053 0.0
C568 C 0.56756 0.09985 0.02814 0.0
C569 C 0.98212 0.49673 1.00039 0.0
C570 C 0.03978 0.53357 0.98888 0.0
C571 C 0.98103 0.4992 0.02294 0.0
C572 C 0.03734 0.53948 0.03478 0.0
H573 H 0.93808 0.46392 0.99198 0.0
H574 H 0.93598 0.46832 0.03112 0.0
S575 S 0.19925 0.65105 1.01166 0.0
N576 N 0.15327 0.61478 0.99066 0.0
N577 N 0.15164 0.62088 0.03272 0.0
C578 C 0.09462 0.57897 0.02321 0.0
C579 C 0.09575 0.57558 1.00036 0.0
C580 C 0.52004 0.56698 1.0003 0.0
C581 C 0.54224 0.53065 0.98876 0.0
C582 C 0.51771 0.56664 0.02289 0.0
C583 C 0.53863 0.53093 0.03482 0.0
H584 H 0.50518 0.59668 0.99185 0.0
H585 H 0.50194 0.59662 0.03108 0.0
S586 S 0.59645 0.42398 1.01278 0.0
N587 N 0.58173 0.45458 0.99143 0.0
N588 N 0.57832 0.45533 0.03357 0.0
C589 C 0.55898 0.49298 0.02357 0.0
C590 C 0.56048 0.49243 1.00065 0.0
C591 C 0.16267 0.31341 0.35613 0.0
C592 C 0.20305 0.37077 0.36742 0.0
C593 C 0.16282 0.31099 0.33365 0.0
C594 C 0.20445 0.3655 0.32162 0.0
H595 H 0.12932 0.2704 0.36472 0.0
H596 H 0.12966 0.26619 0.32568 0.0
S597 S 0.32443 0.52584 0.34411 0.0
N598 N 0.28777 0.48209 0.36533 0.0
N599 N 0.29078 0.47793 0.32321 0.0
C600 C 0.24708 0.42263 0.33294 0.0
C601 C 0.2456 0.42521 0.3558 0.0
C602 C 0.65097 0.83485 0.35815 0.0
C603 C 0.70793 0.86059 0.37035 0.0
C604 C 0.65335 0.83752 0.33564 0.0
C605 C 0.71273 0.86467 0.32455 0.0
H606 H 0.60428 0.81271 0.36604 0.0
H607 H 0.60827 0.81643 0.32685 0.0
S608 S 0.87574 0.93849 0.34898 0.0
N609 N 0.82558 0.91464 0.36959 0.0
N610 N 0.82967 0.91849 0.32746 0.0
C611 C 0.76993 0.89072 0.33657 0.0
C612 C 0.76764 0.88901 0.35942 0.0
C613 C 0.2254 0.8362 0.33946 0.0
C614 C 0.20362 0.87232 0.32814 0.0
C615 C 0.2244 0.83471 0.36191 0.0
C616 C 0.2003 0.86809 0.37401 0.0
H617 H 0.24557 0.81046 0.33099 0.0
H618 H 0.24359 0.80786 0.36987 0.0
S619 S 0.13433 0.96718 0.3524 0.0
N620 N 0.15508 0.94065 0.33088 0.0
N621 N 0.15225 0.93682 0.37313 0.0
C622 C 0.17613 0.9025 0.36299 0.0
C623 C 0.17814 0.90497 0.34006 0.0
C624 C 0.85621 0.64539 0.6892 0.0
C625 C 0.8907 0.70377 0.70069 0.0
C626 C 0.85415 0.64401 0.66674 0.0
C627 C 0.88755 0.7008 0.65484 0.0
H628 H 0.82885 0.60039 0.69762 0.0
H629 H 0.82564 0.59811 0.65865 0.0
S630 S 0.98833 0.86591 0.67726 0.0
N631 N 0.96104 0.81947 0.69852 0.0
N632 N 0.95821 0.81718 0.65633 0.0
C633 C 0.92407 0.75937 0.66614 0.0
C634 C 0.92529 0.76079 0.68904 0.0
C635 C 0.32696 0.18337 0.67528 0.0
C636 C 0.38538 0.21447 0.66369 0.0
C637 C 0.32635 0.18377 0.69773 0.0
C638 C 0.38402 0.21629 0.70952 0.0
H639 H 0.28126 0.15626 0.66698 0.0
H640 H 0.2803 0.15723 0.70588 0.0
S641 S 0.54953 0.31061 0.68669 0.0
N642 N 0.502 0.28195 0.66553 0.0
N643 N 0.5012 0.28427 0.70774 0.0
C644 C 0.44264 0.25037 0.69809 0.0
C645 C 0.44325 0.24893 0.67518 0.0
C646 C 0.86829 0.23928 0.66988 0.0
C647 C 0.88636 0.20111 0.65748 0.0
C648 C 0.86926 0.23888 0.69237 0.0
C649 C 0.88926 0.20106 0.70344 0.0
H650 H 0.85379 0.27041 0.66222 0.0
H651 H 0.85594 0.26993 0.70112 0.0
S652 S 0.93643 0.08842 0.67899 0.0
N653 N 0.92092 0.12095 0.65833 0.0
N654 N 0.92384 0.12152 0.70052 0.0
C655 C 0.90599 0.16151 0.69138 0.0
C656 C 0.90416 0.16111 0.66845 0.0
C657 C 0.36182 0.99731 0.19479 0.0
C658 C 0.3346 0.93329 0.20172 0.0
C659 C 0.40851 0.02162 0.17844 0.0
C660 C 0.43027 0.98311 0.16814 0.0
H661 H 0.34775 0.02958 0.20225 0.0
H662 H 0.42703 0.07106 0.17369 0.0
S663 S 0.3731 0.81115 0.17986 0.0
N664 N 0.33245 0.83135 0.19678 0.0
N665 N 0.41956 0.87658 0.16603 0.0
C666 C 0.40348 0.91884 0.17494 0.0
C667 C 0.35588 0.89408 0.19165 0.0
C668 C 0.05985 0.40958 0.16901 0.0
C669 C 0.09745 0.47253 0.16116 0.0
C670 C 0.08261 0.38597 0.18526 0.0
C671 C 0.14411 0.42409 0.1945 0.0
H672 H 1.01247 0.37759 0.16239 0.0
H673 H 0.05103 0.33742 0.19075 0.0
S674 S 0.26212 0.59294 0.17991 0.0
N675 N 0.19971 0.57294 0.1641 0.0
N676 N 0.2424 0.52877 0.19447 0.0
C677 C 0.18244 0.48725 0.18679 0.0
C678 C 0.15914 0.51136 0.17024 0.0
C679 C 0.59617 0.72578 0.18783 0.0
C680 C 0.65682 0.74601 0.19735 0.0
C681 C 0.57181 0.67859 0.17148 0.0
C682 C 0.60668 0.64888 0.16398 0.0
H683 H 0.56704 0.74662 0.193 0.0
H684 H 0.52577 0.66643 0.16438 0.0
S685 S 0.76591 0.68057 0.18456 0.0
N686 N 0.74988 0.72989 0.19855 0.0
N687 N 0.70395 0.64117 0.16827 0.0
C688 C 0.66666 0.66744 0.17374 0.0
C689 C 0.69177 0.71593 0.19023 0.0
C690 C 0.95058 0.39962 0.85203 0.0
C691 C 1.01202 0.4213 0.86113 0.0
C692 C 0.92319 0.34748 0.83751 0.0
C693 C 0.95618 0.31477 0.83116 0.0
H694 H 0.92254 0.42231 0.8564 0.0
H695 H 0.87637 0.334 0.83078 0.0
S696 S 0.11859 0.35174 0.8502 0.0
N697 N 0.10523 0.40539 0.86248 0.0
N698 N 0.05382 0.3077 0.83549 0.0
C699 C 1.01766 0.33582 0.84015 0.0
C700 C 0.04566 0.38906 0.85488 0.0
C701 C 0.69272 0.65229 0.8513 0.0
C702 C 0.67437 0.59351 0.8615 0.0
C703 C 0.73896 0.67548 0.83474 0.0
C704 C 0.76945 0.64115 0.8274 0.0
H705 H 0.67167 0.68138 0.85625 0.0
H706 H 0.75013 0.72065 0.82747 0.0
S707 S 0.74108 0.48541 0.84903 0.0
N708 N 0.6923 0.50198 0.86319 0.0
N709 N 0.77838 0.54528 0.83207 0.0
C710 C 0.75183 0.58231 0.83745 0.0
C711 C 0.70466 0.55859 0.85441 0.0
C712 C 0.49927 0.1686 0.84368 0.0
C713 C 0.44112 0.12784 0.83282 0.0
C714 C 0.52313 0.14525 0.85972 0.0
C715 C 0.49021 0.0799 0.86557 0.0
H716 H 0.52661 0.21929 0.83993 0.0
H717 H 0.56682 0.17935 0.86803 0.0
S718 S 0.33831 0.9515 0.841 0.0
N719 N 0.35282 0.01762 0.82852 0.0
N720 N 0.39791 0.97403 0.85826 0.0
C721 C 0.43299 0.03822 0.85441 0.0
C722 C 0.40837 0.06204 0.83822 0.0
C723 C 1.00581 0.22632 0.51811 0.0
C724 C 0.98248 0.26485 0.52745 0.0
C725 C 0.05144 0.24907 0.50134 0.0
C726 C 0.07635 0.3116 0.49319 0.0
H727 H 0.98987 0.17848 0.52408 0.0
H728 H 0.0672 0.21709 0.49474 0.0
S729 S 0.02917 0.43138 0.51129 0.0
N730 N 0.98618 0.3682 0.52647 0.0
N731 N 0.07215 0.41116 0.49552 0.0
C732 C 0.05264 0.35036 0.50217 0.0
C733 C 1.00572 0.32692 0.51906 0.0
C734 C 0.81822 0.83911 0.50634 0.0
C735 C 0.75576 0.80117 0.49775 0.0
C736 C 0.84261 0.81533 0.52201 0.0
C737 C 0.80596 0.75218 0.52981 0.0
H738 H 0.84912 0.88776 0.50081 0.0
H739 H 0.8906 0.84733 0.52817 0.0
S740 S 0.63974 0.63192 0.51227 0.0
N741 N 0.65789 0.69644 0.49811 0.0
N742 N 0.70353 0.65167 0.52736 0.0
C743 C 0.74341 0.71344 0.52127 0.0
C744 C 0.71835 0.73792 0.5054 0.0
C745 C 0.23874 1.00589 0.51252 0.0
C746 C 0.27781 0.98325 0.50311 0.0
C747 C 0.26152 0.05159 0.5293 0.0
C748 C 0.32455 0.07713 0.53748 0.0
H749 H 0.19027 0.98913 0.50667 0.0
H750 H 0.22904 0.06673 0.53593 0.0
S751 S 0.44583 0.03187 0.51923 0.0
N752 N 0.38231 0.98848 0.50392 0.0
N753 N 0.42521 0.07426 0.53514 0.0
C754 C 0.36395 0.05423 0.52842 0.0
C755 C 0.34054 1.00736 0.51141 0.0
C756 C 0.56403 0.37587 0.12074 0.0
C757 C 0.52182 0.38774 0.1087 0.0
C758 C 0.56177 0.31638 0.11916 0.0
C759 C 0.51694 0.26721 0.10558 0.0
H760 H 0.59798 0.41217 0.13172 0.0
H761 H 0.59438 0.30845 0.12897 0.0
S762 S 0.39914 0.27756 0.06976 0.0
N763 N 0.43656 0.34817 0.0821 0.0
N764 N 0.43179 0.23603 0.0791 0.0
C765 C 0.47583 0.27961 0.09301 0.0
C766 C 0.47838 0.34012 0.0946 0.0
C767 C 0.73329 0.18215 0.08849 0.0
C768 C 0.69021 0.16856 0.10576 0.0
C769 C 0.78941 0.24197 0.08664 0.0
C770 C 0.80476 0.29076 0.10199 0.0
H771 H 0.72441 0.1456 0.07648 0.0
H772 H 0.82184 0.24937 0.07335 0.0
S773 S 0.7067 0.28074 0.14984 0.0
N774 N 0.66559 0.20926 0.13822 0.0
N775 N 0.77095 0.3227 0.13461 0.0
C776 C 0.76083 0.27892 0.11891 0.0
C777 C 0.7035 0.21753 0.12083 0.0
C778 C 0.85182 0.60894 0.08826 0.0
C779 C 0.80247 0.57392 0.10314 0.0
C780 C 0.9104 0.60877 0.08884 0.0
C781 C 0.92215 0.57361 0.10432 0.0
H782 H 0.84534 0.63699 0.07606 0.0
H783 H 0.94703 0.63686 0.07706 0.0
S784 S 0.80971 0.47608 0.14752 0.0
N785 N 0.76932 0.50366 0.13407 0.0
N786 N 0.88036 0.50446 0.13536 0.0
C787 C 0.87328 0.53817 0.1193 0.0
C788 C 0.81321 0.53811 0.11867 0.0
C789 C 0.33965 0.44664 0.91204 0.0
C790 C 0.39736 0.4999 0.9193 0.0
C791 C 0.2805 0.4458 0.91349 0.0
C792 C 0.27678 0.49793 0.92253 0.0
H793 H 0.34008 0.4048 0.90543 0.0
H794 H 0.2373 0.4036 0.90774 0.0
S795 S 0.41333 0.64722 0.9452 0.0
N796 N 0.4465 0.60449 0.93686 0.0
N797 N 0.33588 0.60402 0.93914 0.0
C798 C 0.3342 0.55167 0.92977 0.0
C799 C 0.39442 0.55238 0.92829 0.0
C800 C 0.60666 0.89071 0.9398 0.0
C801 C 0.57514 0.90595 0.92391 0.0
C802 C 0.60533 0.83169 0.93962 0.0
C803 C 0.57287 0.78569 0.92342 0.0
H804 H 0.63341 0.92513 0.95241 0.0
H805 H 0.63109 0.82266 0.95209 0.0
S806 S 0.48289 0.80217 0.87795 0.0
N807 N 0.51024 0.87043 0.89153 0.0
N808 N 0.50745 0.75886 0.89113 0.0
C809 C 0.53989 0.79963 0.90761 0.0
C810 C 0.54104 0.85995 0.90787 0.0
C811 C 0.24454 0.78989 0.94177 0.0
C812 C 0.2978 0.79887 0.92944 0.0
C813 C 0.18567 0.73238 0.94058 0.0
C814 C 0.17769 0.68177 0.92693 0.0
H815 H 0.24776 0.82812 0.95208 0.0
H816 H 0.14555 0.72822 0.95008 0.0
S817 S 0.30363 0.67945 0.89235 0.0
N818 N 0.34039 0.75091 0.90418 0.0
N819 N 0.22864 0.6431 0.90147 0.0
C820 C 0.23116 0.68898 0.91509 0.0
C821 C 0.29156 0.74758 0.91646 0.0
C822 C 0.18966 0.69869 0.42658 0.0
C823 C 0.18634 0.72077 0.44732 0.0
C824 C 0.18378 0.63796 0.42334 0.0
C825 C 0.1764 0.59847 0.44079 0.0
H826 H 0.19481 0.72761 0.4127 0.0
H827 H 0.18553 0.62207 0.40714 0.0
S828 S 0.16745 0.63541 0.49822 0.0
N829 N 0.17572 0.69905 0.48545 0.0
N830 N 0.16764 0.58608 0.47951 0.0
C831 C 0.17489 0.62083 0.46162 0.0
C832 C 0.17907 0.68177 0.46485 0.0
C833 C 0.46908 0.55737 0.45096 0.0
C834 C 0.47233 0.61005 0.44015 0.0
C835 C 0.41067 0.4994 0.45302 0.0
C836 C 0.35283 0.49128 0.44432 0.0
H837 H 0.51226 0.56061 0.45778 0.0
H838 H 0.4112 0.46 0.46117 0.0
S839 S 0.3353 0.61401 0.41402 0.0
N840 N 0.41247 0.6508 0.42075 0.0
N841 N 0.30293 0.54081 0.42396 0.0
C842 C 0.35507 0.54377 0.43364 0.0
C843 C 0.41476 0.60339 0.43172 0.0
C844 C 0.57723 0.94229 0.42794 0.0
C845 C 0.58491 0.89775 0.44029 0.0
C846 C 0.51901 0.94303 0.42772 0.0
C847 C 0.46553 0.899 0.43972 0.0
H848 H 0.61686 0.97759 0.41838 0.0
H849 H 0.51611 0.97875 0.41805 0.0
S850 S 0.45922 0.77129 0.47446 0.0
N851 N 0.53375 0.80812 0.46488 0.0
N852 N 0.42307 0.80823 0.46403 0.0
C853 C 0.47178 0.85326 0.45192 0.0
C854 C 0.53175 0.85292 0.45231 0.0
C855 C 0.95357 0.8021 0.27252 0.0
C856 C 0.9425 0.84113 0.25863 0.0
C857 C 1.01204 0.80194 0.27213 0.0
C858 C 0.062 0.84076 0.25784 0.0
H859 H 0.91636 0.77045 0.28359 0.0
H860 H 1.01761 0.77014 0.283 0.0
S861 S 0.05875 0.95438 0.21885 0.0
N862 N 0.98743 0.92226 0.23078 0.0
N863 N 0.09747 0.92084 0.22984 0.0
C864 C 0.05256 0.88152 0.24423 0.0
C865 C 0.9927 0.88192 0.24467 0.0
C866 C 0.18173 0.12916 0.26097 0.0
C867 C 0.23784 0.1258 0.25622 0.0
C868 C 0.18086 0.18727 0.25881 0.0
C869 C 0.2356 0.24322 0.25142 0.0
H870 H 0.13913 0.0874 0.26712 0.0
H871 H 0.13851 0.18913 0.26406 0.0
S872 S 0.39195 0.25793 0.23472 0.0
N873 N 0.34785 0.18256 0.24242 0.0
N874 N 0.3456 0.29048 0.23809 0.0
C875 C 0.29077 0.23949 0.2458 0.0
C876 C 0.292 0.18105 0.2482 0.0
C877 C 0.89392 0.02401 0.23716 0.0
C878 C 0.83347 1.01421 0.24402 0.0
C879 C 0.9504 0.08381 0.24024 0.0
C880 C 0.94846 0.13547 0.25063 0.0
H881 H 0.89762 0.98533 0.22936 0.0
H882 H 0.99597 0.08941 0.23458 0.0
S883 S 0.80166 0.13304 0.27209 0.0
N884 N 0.77475 0.06025 0.26184 0.0
N885 N 0.88052 0.17209 0.26789 0.0
C886 C 0.88815 0.12583 0.25769 0.0
C887 C 0.83074 0.06532 0.25432 0.0
C888 C 0.89905 0.97812 0.78081 0.0
C889 C 0.86422 0.93075 0.76507 0.0
C890 C 0.8979 0.03634 0.78159 0.0
C891 C 0.8615 0.04877 0.76674 0.0
H892 H 0.92605 0.96951 0.79293 0.0
H893 H 0.92361 0.07063 0.79434 0.0
S894 S 0.76949 0.94472 0.72067 0.0
N895 N 0.79785 0.90347 0.73306 0.0
N896 N 0.79539 1.01208 0.73461 0.0
C897 C 0.82926 1.00325 0.75034 0.0
C898 C 0.83066 0.94441 0.74949 0.0
C899 C 0.14486 0.90219 0.75347 0.0
C900 C 0.1559 0.94923 0.76907 0.0
C901 C 0.08811 0.84261 0.75359 0.0
C902 C 0.04017 0.82795 0.76925 0.0
H903 H 0.18105 0.91067 0.74138 0.0
H904 H 0.08238 0.80717 0.74154 0.0
S905 S 0.04387 0.93584 0.81294 0.0
N906 N 0.11277 0.97874 0.79998 0.0
N907 N 1.00607 0.86565 0.80033 0.0
C908 C 0.04922 0.87525 0.78447 0.0
C909 C 0.10724 0.93626 0.78436 0.0
C910 C 0.21414 0.18097 0.77568 0.0
C911 C 0.26261 0.2291 0.7886 0.0
C912 C 0.15632 0.18117 0.77147 0.0
C913 C 0.1459 0.23029 0.77967 0.0
H914 H 0.22207 0.14483 0.76794 0.0
H915 H 0.12068 0.14403 0.76112 0.0
S916 S 0.25591 0.36452 0.81563 0.0
N917 N 0.29435 0.3244 0.81069 0.0
N918 N 0.18718 0.3259 0.80234 0.0
C919 C 0.1932 0.2774 0.79312 0.0
C920 C 0.25121 0.27653 0.79767 0.0
C921 C 0.62141 0.13827 0.61038 0.0
C922 C 0.61189 0.1819 0.59831 0.0
C923 C 0.67859 0.13572 0.60859 0.0
C924 C 0.72848 0.17661 0.59464 0.0
H925 H 0.58384 0.10475 0.62098 0.0
H926 H 0.68318 0.10048 0.61798 0.0
S927 S 0.72894 0.30183 0.56024 0.0
N928 N 0.65842 0.26933 0.57269 0.0
N929 N 0.76551 0.26329 0.56893 0.0
C930 C 0.72053 0.22179 0.5829 0.0
C931 C 0.66226 0.22472 0.58483 0.0
C932 C 0.95961 0.5115 0.57591 0.0
C933 C 0.91022 0.46042 0.5874 0.0
C934 C 0.95986 0.56964 0.57336 0.0
C935 C 0.9107 0.57924 0.58211 0.0
H936 H 0.99885 0.50684 0.56893 0.0
H937 H 0.99955 0.60785 0.56462 0.0
S938 S 0.7713 0.46128 0.61427 0.0
N939 N 0.81066 0.42301 0.60771 0.0
N940 N 0.81242 0.53326 0.60344 0.0
C941 C 0.86075 0.52849 0.59357 0.0
C942 C 0.86021 0.46884 0.59607 0.0
C943 C 0.51524 0.39935 0.60922 0.0
C944 C 0.49994 0.35121 0.59355 0.0
C945 C 0.57428 0.45712 0.60888 0.0
C946 C 0.62024 0.46935 0.59272 0.0
H947 H 0.48087 0.39267 0.62179 0.0
H948 H 0.58334 0.49296 0.62117 0.0
S949 S 0.60369 0.35893 0.54784 0.0
N950 N 0.53551 0.31921 0.56145 0.0
N951 N 0.64694 0.42796 0.56075 0.0
C952 C 0.60623 0.42107 0.57715 0.0
C953 C 0.54595 0.36189 0.57758 0.0
loop_
_geom_bond_atom_site_label_1
_geom_bond_atom_site_label_2
_geom_bond_distance
_geom_bond_site_symmetry_2
_ccdc_geom_bond_type
Tb0 O3 2.453 1_545 S
Tb0 O4 2.596 1_545 S
Tb0 O5 2.374 . S
Tb0 O13 2.343 . S
Tb0 O15 2.353 . S
Tb0 O17 2.427 . S
Tb0 O18 2.513 . S
C1 O5 1.251 1_565 S
C1 O7 1.263 . S
Tb2 O4 2.343 . S
Tb2 O7 2.353 . S
Tb2 O10 2.427 . S
Tb2 O11 2.513 . S
Tb2 O12 2.453 1_565 S
Tb2 O13 2.596 1_565 S
Tb2 O14 2.374 . S
O3 Tb0 2.453 1_565 S
O3 C19 1.245 . S
O4 Tb0 2.596 1_565 S
O4 Tb2 2.343 . S
O4 C19 1.259 . S
O5 Tb0 2.374 . S
O5 C1 1.251 1_545 S
C6 O10 1.275 . S
C6 O11 1.246 . S
O7 C1 1.263 . S
O7 Tb2 2.353 . S
C8 O12 1.245 . S
C8 O13 1.259 . S
C9 O14 1.250 1_545 S
C9 O15 1.263 . S
O10 Tb2 2.427 . S
O10 C6 1.275 . S
O11 Tb2 2.513 . S
O11 C6 1.246 . S
O12 Tb2 2.453 1_545 S
O12 C8 1.245 . S
O13 Tb0 2.343 . S
O13 Tb2 2.596 1_545 S
O13 C8 1.259 . S
O14 Tb2 2.374 . S
O14 C9 1.250 1_565 S
O15 Tb0 2.353 . S
O15 C9 1.263 . S
C16 O17 1.275 . S
C16 O18 1.246 . S
O17 Tb0 2.427 . S
O17 C16 1.275 . S
O18 Tb0 2.513 . S
O18 C16 1.246 . S
C19 O3 1.245 . S
C19 O4 1.259 . S
Tb20 O23 2.453 1_655 S
Tb20 O24 2.596 1_655 S
Tb20 O25 2.374 1_655 S
Tb20 O33 2.343 . S
Tb20 O35 2.353 1_655 S
Tb20 O37 2.427 . S
Tb20 O38 2.513 . S
C21 O25 1.251 . S
C21 O27 1.263 . S
Tb22 O24 2.343 . S
Tb22 O27 2.353 . S
Tb22 O30 2.427 . S
Tb22 O31 2.513 . S
Tb22 O32 2.453 1_455 S
Tb22 O33 2.596 1_455 S
Tb22 O34 2.374 . S
O23 Tb20 2.453 1_455 S
O23 C39 1.245 . S
O24 Tb20 2.596 1_455 S
O24 Tb22 2.343 . S
O24 C39 1.259 . S
O25 Tb20 2.374 1_455 S
O25 C21 1.251 . S
C26 O30 1.275 . S
C26 O31 1.246 . S
O27 C21 1.263 . S
O27 Tb22 2.353 . S
C28 O32 1.245 . S
C28 O33 1.259 . S
C29 O34 1.250 . S
C29 O35 1.263 . S
O30 Tb22 2.427 . S
O30 C26 1.275 . S
O31 Tb22 2.513 . S
O31 C26 1.246 . S
O32 Tb22 2.453 1_655 S
O32 C28 1.245 . S
O33 Tb20 2.343 . S
O33 Tb22 2.596 1_655 S
O33 C28 1.259 . S
O34 Tb22 2.374 . S
O34 C29 1.250 . S
O35 Tb20 2.353 1_455 S
O35 C29 1.263 . S
C36 O37 1.275 . S
C36 O38 1.246 . S
O37 Tb20 2.427 . S
O37 C36 1.275 . S
O38 Tb20 2.513 . S
O38 C36 1.246 . S
C39 O23 1.245 . S
C39 O24 1.259 . S
Tb40 O43 2.453 . S
Tb40 O44 2.596 . S
Tb40 O45 2.374 . S
Tb40 O53 2.343 . S
Tb40 O55 2.353 . S
Tb40 O57 2.427 . S
Tb40 O58 2.513 . S
C41 O45 1.251 . S
C41 O47 1.263 . S
Tb42 O44 2.343 . S
Tb42 O47 2.353 . S
Tb42 O50 2.427 . S
Tb42 O51 2.513 . S
Tb42 O52 2.453 . S
Tb42 O53 2.596 . S
Tb42 O54 2.374 . S
O43 Tb40 2.453 . S
O43 C59 1.245 . S
O44 Tb40 2.596 . S
O44 Tb42 2.343 . S
O44 C59 1.259 . S
O45 Tb40 2.374 . S
O45 C41 1.251 . S
C46 O50 1.275 . S
C46 O51 1.246 . S
O47 C41 1.263 . S
O47 Tb42 2.353 . S
C48 O52 1.245 . S
C48 O53 1.259 . S
C49 O54 1.250 . S
C49 O55 1.263 . S
O50 Tb42 2.427 . S
O50 C46 1.275 . S
O51 Tb42 2.513 . S
O51 C46 1.246 . S
O52 Tb42 2.453 . S
O52 C48 1.245 . S
O53 Tb40 2.343 . S
O53 Tb42 2.596 . S
O53 C48 1.259 . S
O54 Tb42 2.374 . S
O54 C49 1.250 . S
O55 Tb40 2.353 . S
O55 C49 1.263 . S
C56 O57 1.275 . S
C56 O58 1.246 . S
O57 Tb40 2.427 . S
O57 C56 1.275 . S
O58 Tb40 2.513 . S
O58 C56 1.246 . S
C59 O43 1.245 . S
C59 O44 1.259 . S
Tb60 O63 2.453 1_455 S
Tb60 O64 2.596 1_455 S
Tb60 O65 2.374 . S
Tb60 O73 2.343 . S
Tb60 O75 2.353 . S
Tb60 O77 2.427 . S
Tb60 O78 2.513 . S
C61 O65 1.251 1_655 S
C61 O67 1.263 . S
Tb62 O64 2.343 . S
Tb62 O67 2.353 . S
Tb62 O70 2.427 . S
Tb62 O71 2.513 . S
Tb62 O72 2.453 1_655 S
Tb62 O73 2.596 1_655 S
Tb62 O74 2.374 . S
O63 Tb60 2.453 1_655 S
O63 C79 1.245 . S
O64 Tb60 2.596 1_655 S
O64 Tb62 2.343 . S
O64 C79 1.259 . S
O65 Tb60 2.374 . S
O65 C61 1.251 1_455 S
C66 O70 1.275 . S
C66 O71 1.246 . S
O67 C61 1.263 . S
O67 Tb62 2.353 . S
C68 O72 1.245 . S
C68 O73 1.259 . S
C69 O74 1.250 1_455 S
C69 O75 1.263 . S
O70 Tb62 2.427 . S
O70 C66 1.275 . S
O71 Tb62 2.513 . S
O71 C66 1.246 . S
O72 Tb62 2.453 1_455 S
O72 C68 1.245 . S
O73 Tb60 2.343 . S
O73 Tb62 2.596 1_455 S
O73 C68 1.259 . S
O74 Tb62 2.374 . S
O74 C69 1.250 1_655 S
O75 Tb60 2.353 . S
O75 C69 1.263 . S
C76 O77 1.275 . S
C76 O78 1.246 . S
O77 Tb60 2.427 . S
O77 C76 1.275 . S
O78 Tb60 2.513 . S
O78 C76 1.246 . S
C79 O63 1.245 . S
C79 O64 1.259 . S
Tb80 O83 2.453 . S
Tb80 O84 2.596 . S
Tb80 O85 2.374 . S
Tb80 O93 2.343 . S
Tb80 O95 2.353 . S
Tb80 O97 2.427 . S
Tb80 O98 2.513 . S
C81 O85 1.251 . S
C81 O87 1.263 . S
Tb82 O84 2.343 . S
Tb82 O87 2.353 . S
Tb82 O90 2.427 . S
Tb82 O91 2.513 . S
Tb82 O92 2.453 . S
Tb82 O93 2.596 . S
Tb82 O94 2.374 . S
O83 Tb80 2.453 . S
O83 C99 1.245 . S
O84 Tb80 2.596 . S
O84 Tb82 2.343 . S
O84 C99 1.259 . S
O85 Tb80 2.374 . S
O85 C81 1.251 . S
C86 O90 1.275 . S
C86 O91 1.246 . S
O87 C81 1.263 . S
O87 Tb82 2.353 . S
C88 O92 1.245 . S
C88 O93 1.259 . S
C89 O94 1.250 . S
C89 O95 1.263 . S
O90 Tb82 2.427 . S
O90 C86 1.275 . S
O91 Tb82 2.513 . S
O91 C86 1.246 . S
O92 Tb82 2.453 . S
O92 C88 1.245 . S
O93 Tb80 2.343 . S
O93 Tb82 2.596 . S
O93 C88 1.259 . S
O94 Tb82 2.374 . S
O94 C89 1.250 . S
O95 Tb80 2.353 . S
O95 C89 1.263 . S
C96 O97 1.275 . S
C96 O98 1.246 . S
O97 Tb80 2.427 . S
O97 C96 1.275 . S
O98 Tb80 2.513 . S
O98 C96 1.246 . S
C99 O83 1.245 . S
C99 O84 1.259 . S
Tb100 O103 2.453 1_565 S
Tb100 O104 2.596 1_565 S
Tb100 O105 2.374 1_565 S
Tb100 O113 2.343 . S
Tb100 O115 2.353 1_565 S
Tb100 O117 2.427 . S
Tb100 O118 2.513 . S
C101 O105 1.251 . S
C101 O107 1.263 . S
Tb102 O104 2.343 . S
Tb102 O107 2.353 . S
Tb102 O110 2.427 . S
Tb102 O111 2.513 . S
Tb102 O112 2.453 1_545 S
Tb102 O113 2.596 1_545 S
Tb102 O114 2.374 . S
O103 Tb100 2.453 1_545 S
O103 C119 1.245 . S
O104 Tb100 2.596 1_545 S
O104 Tb102 2.343 . S
O104 C119 1.259 . S
O105 Tb100 2.374 1_545 S
O105 C101 1.251 . S
C106 O110 1.275 . S
C106 O111 1.246 . S
O107 C101 1.263 . S
O107 Tb102 2.353 . S
C108 O112 1.245 . S
C108 O113 1.259 . S
C109 O114 1.250 . S
C109 O115 1.263 . S
O110 Tb102 2.427 . S
O110 C106 1.275 . S
O111 Tb102 2.513 . S
O111 C106 1.246 . S
O112 Tb102 2.453 1_565 S
O112 C108 1.245 . S
O113 Tb100 2.343 . S
O113 Tb102 2.596 1_565 S
O113 C108 1.259 . S
O114 Tb102 2.374 . S
O114 C109 1.250 . S
O115 Tb100 2.353 1_545 S
O115 C109 1.263 . S
C116 O117 1.275 . S
C116 O118 1.246 . S
O117 Tb100 2.427 . S
O117 C116 1.275 . S
O118 Tb100 2.513 . S
O118 C116 1.246 . S
C119 O103 1.245 . S
C119 O104 1.259 . S
Tb120 O123 2.453 . S
Tb120 O124 2.596 . S
Tb120 O125 2.374 . S
Tb120 O133 2.343 . S
Tb120 O135 2.353 . S
Tb120 O137 2.427 . S
Tb120 O138 2.513 . S
C121 O125 1.251 . S
C121 O127 1.263 . S
Tb122 O124 2.343 . S
Tb122 O127 2.353 . S
Tb122 O130 2.427 . S
Tb122 O131 2.513 . S
Tb122 O132 2.453 . S
Tb122 O133 2.596 . S
Tb122 O134 2.374 . S
O123 Tb120 2.453 . S
O123 C139 1.245 . S
O124 Tb120 2.596 . S
O124 Tb122 2.343 . S
O124 C139 1.259 . S
O125 Tb120 2.374 . S
O125 C121 1.251 . S
C126 O130 1.275 . S
C126 O131 1.246 . S
O127 C121 1.263 . S
O127 Tb122 2.353 . S
C128 O132 1.245 . S
C128 O133 1.259 . S
C129 O134 1.250 . S
C129 O135 1.263 . S
O130 Tb122 2.427 . S
O130 C126 1.275 . S
O131 Tb122 2.513 . S
O131 C126 1.246 . S
O132 Tb122 2.453 . S
O132 C128 1.245 . S
O133 Tb120 2.343 . S
O133 Tb122 2.596 . S
O133 C128 1.259 . S
O134 Tb122 2.374 . S
O134 C129 1.250 . S
O135 Tb120 2.353 . S
O135 C129 1.263 . S
C136 O137 1.275 . S
C136 O138 1.246 . S
O137 Tb120 2.427 . S
O137 C136 1.275 . S
O138 Tb120 2.513 . S
O138 C136 1.246 . S
C139 O123 1.245 . S
C139 O124 1.259 . S
Tb140 O143 2.453 . S
Tb140 O144 2.596 . S
Tb140 O145 2.374 . S
Tb140 O153 2.343 . S
Tb140 O155 2.353 . S
Tb140 O157 2.427 . S
Tb140 O158 2.513 . S
C141 O145 1.251 . S
C141 O147 1.263 . S
Tb142 O144 2.343 . S
Tb142 O147 2.353 . S
Tb142 O150 2.427 . S
Tb142 O151 2.513 . S
Tb142 O152 2.453 . S
Tb142 O153 2.596 . S
Tb142 O154 2.374 . S
O143 Tb140 2.453 . S
O143 C159 1.245 . S
O144 Tb140 2.596 . S
O144 Tb142 2.343 . S
O144 C159 1.259 . S
O145 Tb140 2.374 . S
O145 C141 1.251 . S
C146 O150 1.275 1_545 S
C146 O151 1.246 1_545 S
O147 C141 1.263 . S
O147 Tb142 2.353 . S
C148 O152 1.245 . S
C148 O153 1.259 . S
C149 O154 1.250 . S
C149 O155 1.263 . S
O150 Tb142 2.427 . S
O150 C146 1.275 1_565 S
O151 Tb142 2.513 . S
O151 C146 1.246 1_565 S
O152 Tb142 2.453 . S
O152 C148 1.245 . S
O153 Tb140 2.343 . S
O153 Tb142 2.596 . S
O153 C148 1.259 . S
O154 Tb142 2.374 . S
O154 C149 1.250 . S
O155 Tb140 2.353 . S
O155 C149 1.263 . S
C156 O157 1.275 . S
C156 O158 1.246 . S
O157 Tb140 2.427 . S
O157 C156 1.275 . S
O158 Tb140 2.513 . S
O158 C156 1.246 . S
C159 O143 1.245 . S
C159 O144 1.259 . S
Tb160 O163 2.453 1_565 S
Tb160 O164 2.596 . S
Tb160 O165 2.374 . S
Tb160 O173 2.343 . S
Tb160 O175 2.353 . S
Tb160 O177 2.427 . S
Tb160 O178 2.513 . S
C161 O165 1.251 . S
C161 O167 1.263 . S
Tb162 O164 2.343 . S
Tb162 O167 2.353 . S
Tb162 O170 2.427 . S
Tb162 O171 2.513 . S
Tb162 O172 2.453 . S
Tb162 O173 2.596 . S
Tb162 O174 2.374 . S
O163 Tb160 2.453 1_545 S
O163 C179 1.245 1_545 S
O164 Tb160 2.596 . S
O164 Tb162 2.343 . S
O164 C179 1.259 . S
O165 Tb160 2.374 . S
O165 C161 1.251 . S
C166 O170 1.275 . S
C166 O171 1.246 . S
O167 C161 1.263 . S
O167 Tb162 2.353 . S
C168 O172 1.245 . S
C168 O173 1.259 . S
C169 O174 1.250 . S
C169 O175 1.263 . S
O170 Tb162 2.427 . S
O170 C166 1.275 . S
O171 Tb162 2.513 . S
O171 C166 1.246 . S
O172 Tb162 2.453 . S
O172 C168 1.245 . S
O173 Tb160 2.343 . S
O173 Tb162 2.596 . S
O173 C168 1.259 . S
O174 Tb162 2.374 . S
O174 C169 1.250 . S
O175 Tb160 2.353 . S
O175 C169 1.263 . S
C176 O177 1.275 . S
C176 O178 1.246 . S
O177 Tb160 2.427 . S
O177 C176 1.275 . S
O178 Tb160 2.513 . S
O178 C176 1.246 . S
C179 O163 1.245 1_565 S
C179 O164 1.259 . S
Tb180 O183 2.453 . S
Tb180 O184 2.596 . S
Tb180 O185 2.374 . S
Tb180 O193 2.343 . S
Tb180 O195 2.353 . S
Tb180 O197 2.427 . S
Tb180 O198 2.513 . S
C181 O185 1.251 . S
C181 O187 1.263 . S
Tb182 O184 2.343 . S
Tb182 O187 2.353 . S
Tb182 O190 2.427 . S
Tb182 O191 2.513 . S
Tb182 O192 2.453 . S
Tb182 O193 2.596 . S
Tb182 O194 2.374 . S
O183 Tb180 2.453 . S
O183 C199 1.245 . S
O184 Tb180 2.596 . S
O184 Tb182 2.343 . S
O184 C199 1.259 . S
O185 Tb180 2.374 . S
O185 C181 1.251 . S
C186 O190 1.275 . S
C186 O191 1.246 . S
O187 C181 1.263 . S
O187 Tb182 2.353 . S
C188 O192 1.245 . S
C188 O193 1.259 . S
C189 O194 1.250 . S
C189 O195 1.263 . S
O190 Tb182 2.427 . S
O190 C186 1.275 . S
O191 Tb182 2.513 . S
O191 C186 1.246 . S
O192 Tb182 2.453 . S
O192 C188 1.245 . S
O193 Tb180 2.343 . S
O193 Tb182 2.596 . S
O193 C188 1.259 . S
O194 Tb182 2.374 . S
O194 C189 1.250 . S
O195 Tb180 2.353 . S
O195 C189 1.263 . S
C196 O197 1.275 . S
C196 O198 1.246 . S
O197 Tb180 2.427 . S
O197 C196 1.275 . S
O198 Tb180 2.513 . S
O198 C196 1.246 . S
C199 O183 1.245 . S
C199 O184 1.259 . S
Tb200 O203 2.453 . S
Tb200 O204 2.596 . S
Tb200 O205 2.374 . S
Tb200 O213 2.343 . S
Tb200 O215 2.353 . S
Tb200 O217 2.427 1_565 S
Tb200 O218 2.513 1_565 S
C201 O205 1.251 . S
C201 O207 1.263 . S
Tb202 O204 2.343 . S
Tb202 O207 2.353 . S
Tb202 O210 2.427 . S
Tb202 O211 2.513 . S
Tb202 O212 2.453 . S
Tb202 O213 2.596 . S
Tb202 O214 2.374 . S
O203 Tb200 2.453 . S
O203 C219 1.245 . S
O204 Tb200 2.596 . S
O204 Tb202 2.343 . S
O204 C219 1.259 . S
O205 Tb200 2.374 . S
O205 C201 1.251 . S
C206 O210 1.275 . S
C206 O211 1.246 . S
O207 C201 1.263 . S
O207 Tb202 2.353 . S
C208 O212 1.245 . S
C208 O213 1.259 . S
C209 O214 1.250 . S
C209 O215 1.263 . S
O210 Tb202 2.427 . S
O210 C206 1.275 . S
O211 Tb202 2.513 . S
O211 C206 1.246 . S
O212 Tb202 2.453 . S
O212 C208 1.245 . S
O213 Tb200 2.343 . S
O213 Tb202 2.596 . S
O213 C208 1.259 . S
O214 Tb202 2.374 . S
O214 C209 1.250 . S
O215 Tb200 2.353 . S
O215 C209 1.263 . S
C216 O217 1.275 . S
C216 O218 1.246 . S
O217 Tb200 2.427 1_545 S
O217 C216 1.275 . S
O218 Tb200 2.513 1_545 S
O218 C216 1.246 . S
C219 O203 1.245 . S
C219 O204 1.259 . S
Tb220 O223 2.453 . S
Tb220 O224 2.596 . S
Tb220 O225 2.374 . S
Tb220 O233 2.343 . S
Tb220 O235 2.353 . S
Tb220 O237 2.427 . S
Tb220 O238 2.513 . S
C221 O225 1.251 . S
C221 O227 1.263 . S
Tb222 O224 2.343 . S
Tb222 O227 2.353 . S
Tb222 O230 2.427 . S
Tb222 O231 2.513 . S
Tb222 O232 2.453 . S
Tb222 O233 2.596 . S
Tb222 O234 2.374 . S
O223 Tb220 2.453 . S
O223 C239 1.245 . S
O224 Tb220 2.596 . S
O224 Tb222 2.343 . S
O224 C239 1.259 . S
O225 Tb220 2.374 . S
O225 C221 1.251 . S
C226 O230 1.275 . S
C226 O231 1.246 . S
O227 C221 1.263 . S
O227 Tb222 2.353 . S
C228 O232 1.245 . S
C228 O233 1.259 . S
C229 O234 1.250 . S
C229 O235 1.263 . S
O230 Tb222 2.427 . S
O230 C226 1.275 . S
O231 Tb222 2.513 . S
O231 C226 1.246 . S
O232 Tb222 2.453 . S
O232 C228 1.245 . S
O233 Tb220 2.343 . S
O233 Tb222 2.596 . S
O233 C228 1.259 . S
O234 Tb222 2.374 . S
O234 C229 1.250 . S
O235 Tb220 2.353 . S
O235 C229 1.263 . S
C236 O237 1.275 . S
C236 O238 1.246 . S
O237 Tb220 2.427 . S
O237 C236 1.275 . S
O238 Tb220 2.513 . S
O238 C236 1.246 . S
C239 O223 1.245 . S
C239 O224 1.259 . S
Tb240 O243 2.453 . S
Tb240 O244 2.596 . S
Tb240 O245 2.374 . S
Tb240 O253 2.343 . S
Tb240 O255 2.353 . S
Tb240 O257 2.427 . S
Tb240 O258 2.513 . S
C241 O245 1.251 . S
C241 O247 1.263 . S
Tb242 O244 2.343 . S
Tb242 O247 2.353 . S
Tb242 O250 2.427 . S
Tb242 O251 2.513 . S
Tb242 O252 2.453 . S
Tb242 O253 2.596 . S
Tb242 O254 2.374 . S
O243 Tb240 2.453 . S
O243 C259 1.245 . S
O244 Tb240 2.596 . S
O244 Tb242 2.343 . S
O244 C259 1.259 . S
O245 Tb240 2.374 . S
O245 C241 1.251 . S
C246 O250 1.275 . S
C246 O251 1.246 . S
O247 C241 1.263 . S
O247 Tb242 2.353 . S
C248 O252 1.245 . S
C248 O253 1.259 . S
C249 O254 1.250 . S
C249 O255 1.263 . S
O250 Tb242 2.427 . S
O250 C246 1.275 . S
O251 Tb242 2.513 . S
O251 C246 1.246 . S
O252 Tb242 2.453 . S
O252 C248 1.245 . S
O253 Tb240 2.343 . S
O253 Tb242 2.596 . S
O253 C248 1.259 . S
O254 Tb242 2.374 . S
O254 C249 1.250 . S
O255 Tb240 2.353 . S
O255 C249 1.263 . S
C256 O257 1.275 . S
C256 O258 1.246 . S
O257 Tb240 2.427 . S
O257 C256 1.275 . S
O258 Tb240 2.513 . S
O258 C256 1.246 . S
C259 O243 1.245 . S
C259 O244 1.259 . S
Tb260 O263 2.453 . S
Tb260 O264 2.596 . S
Tb260 O265 2.374 . S
Tb260 O273 2.343 . S
Tb260 O275 2.353 . S
Tb260 O277 2.427 . S
Tb260 O278 2.513 . S
C261 O265 1.251 . S
C261 O267 1.263 . S
Tb262 O264 2.343 . S
Tb262 O267 2.353 . S
Tb262 O270 2.427 . S
Tb262 O271 2.513 . S
Tb262 O272 2.453 . S
Tb262 O273 2.596 . S
Tb262 O274 2.374 . S
O263 Tb260 2.453 . S
O263 C279 1.245 . S
O264 Tb260 2.596 . S
O264 Tb262 2.343 . S
O264 C279 1.259 . S
O265 Tb260 2.374 . S
O265 C261 1.251 . S
C266 O270 1.275 . S
C266 O271 1.246 . S
O267 C261 1.263 . S
O267 Tb262 2.353 . S
C268 O272 1.245 . S
C268 O273 1.259 . S
C269 O274 1.250 . S
C269 O275 1.263 . S
O270 Tb262 2.427 . S
O270 C266 1.275 . S
O271 Tb262 2.513 . S
O271 C266 1.246 . S
O272 Tb262 2.453 . S
O272 C268 1.245 . S
O273 Tb260 2.343 . S
O273 Tb262 2.596 . S
O273 C268 1.259 . S
O274 Tb262 2.374 . S
O274 C269 1.250 . S
O275 Tb260 2.353 . S
O275 C269 1.263 . S
C276 O277 1.275 . S
C276 O278 1.246 . S
O277 Tb260 2.427 . S
O277 C276 1.275 . S
O278 Tb260 2.513 . S
O278 C276 1.246 . S
C279 O263 1.245 . S
C279 O264 1.259 . S
Tb280 O283 2.453 . S
Tb280 O284 2.596 . S
Tb280 O285 2.374 . S
Tb280 O293 2.343 . S
Tb280 O295 2.353 . S
Tb280 O297 2.427 1_655 S
Tb280 O298 2.513 1_655 S
C281 O285 1.251 . S
C281 O287 1.263 . S
Tb282 O284 2.343 . S
Tb282 O287 2.353 . S
Tb282 O290 2.427 . S
Tb282 O291 2.513 . S
Tb282 O292 2.453 . S
Tb282 O293 2.596 . S
Tb282 O294 2.374 . S
O283 Tb280 2.453 . S
O283 C299 1.245 . S
O284 Tb280 2.596 . S
O284 Tb282 2.343 . S
O284 C299 1.259 . S
O285 Tb280 2.374 . S
O285 C281 1.251 . S
C286 O290 1.275 . S
C286 O291 1.246 . S
O287 C281 1.263 . S
O287 Tb282 2.353 . S
C288 O292 1.245 . S
C288 O293 1.259 . S
C289 O294 1.250 . S
C289 O295 1.263 . S
O290 Tb282 2.427 . S
O290 C286 1.275 . S
O291 Tb282 2.513 . S
O291 C286 1.246 . S
O292 Tb282 2.453 . S
O292 C288 1.245 . S
O293 Tb280 2.343 . S
O293 Tb282 2.596 . S
O293 C288 1.259 . S
O294 Tb282 2.374 . S
O294 C289 1.250 . S
O295 Tb280 2.353 . S
O295 C289 1.263 . S
C296 O297 1.275 . S
C296 O298 1.246 . S
O297 Tb280 2.427 1_455 S
O297 C296 1.275 . S
O298 Tb280 2.513 1_455 S
O298 C296 1.246 . S
C299 O283 1.245 . S
C299 O284 1.259 . S
Tb300 O303 2.453 . S
Tb300 O304 2.596 . S
Tb300 O305 2.374 . S
Tb300 O313 2.343 . S
Tb300 O315 2.353 . S
Tb300 O317 2.427 . S
Tb300 O318 2.513 . S
C301 O305 1.251 . S
C301 O307 1.263 . S
Tb302 O304 2.343 . S
Tb302 O307 2.353 . S
Tb302 O310 2.427 . S
Tb302 O311 2.513 . S
Tb302 O312 2.453 . S
Tb302 O313 2.596 . S
Tb302 O314 2.374 . S
O303 Tb300 2.453 . S
O303 C319 1.245 . S
O304 Tb300 2.596 . S
O304 Tb302 2.343 . S
O304 C319 1.259 . S
O305 Tb300 2.374 . S
O305 C301 1.251 . S
C306 O310 1.275 . S
C306 O311 1.246 . S
O307 C301 1.263 . S
O307 Tb302 2.353 . S
C308 O312 1.245 . S
C308 O313 1.259 . S
C309 O314 1.250 . S
C309 O315 1.263 . S
O310 Tb302 2.427 . S
O310 C306 1.275 . S
O311 Tb302 2.513 . S
O311 C306 1.246 . S
O312 Tb302 2.453 . S
O312 C308 1.245 . S
O313 Tb300 2.343 . S
O313 Tb302 2.596 . S
O313 C308 1.259 . S
O314 Tb302 2.374 . S
O314 C309 1.250 . S
O315 Tb300 2.353 . S
O315 C309 1.263 . S
C316 O317 1.275 . S
C316 O318 1.246 . S
O317 Tb300 2.427 . S
O317 C316 1.275 . S
O318 Tb300 2.513 . S
O318 C316 1.246 . S
C319 O303 1.245 . S
C319 O304 1.259 . S
Tb320 O323 2.453 1_655 S
Tb320 O324 2.596 . S
Tb320 O325 2.374 . S
Tb320 O333 2.343 . S
Tb320 O335 2.353 . S
Tb320 O337 2.427 . S
Tb320 O338 2.513 . S
C321 O325 1.251 . S
C321 O327 1.263 . S
Tb322 O324 2.343 . S
Tb322 O327 2.353 . S
Tb322 O330 2.427 . S
Tb322 O331 2.513 . S
Tb322 O332 2.453 . S
Tb322 O333 2.596 . S
Tb322 O334 2.374 . S
O323 Tb320 2.453 1_455 S
O323 C339 1.245 1_455 S
O324 Tb320 2.596 . S
O324 Tb322 2.343 . S
O324 C339 1.259 . S
O325 Tb320 2.374 . S
O325 C321 1.251 . S
C326 O330 1.275 . S
C326 O331 1.246 . S
O327 C321 1.263 . S
O327 Tb322 2.353 . S
C328 O332 1.245 . S
C328 O333 1.259 . S
C329 O334 1.250 . S
C329 O335 1.263 . S
O330 Tb322 2.427 . S
O330 C326 1.275 . S
O331 Tb322 2.513 . S
O331 C326 1.246 . S
O332 Tb322 2.453 . S
O332 C328 1.245 . S
O333 Tb320 2.343 . S
O333 Tb322 2.596 . S
O333 C328 1.259 . S
O334 Tb322 2.374 . S
O334 C329 1.250 . S
O335 Tb320 2.353 . S
O335 C329 1.263 . S
C336 O337 1.275 . S
C336 O338 1.246 . S
O337 Tb320 2.427 . S
O337 C336 1.275 . S
O338 Tb320 2.513 . S
O338 C336 1.246 . S
C339 O323 1.245 1_655 S
C339 O324 1.259 . S
Tb340 O343 2.453 . S
Tb340 O344 2.596 . S
Tb340 O345 2.374 . S
Tb340 O353 2.343 . S
Tb340 O355 2.353 . S
Tb340 O357 2.427 . S
Tb340 O358 2.513 . S
C341 O345 1.251 . S
C341 O347 1.263 . S
Tb342 O344 2.343 . S
Tb342 O347 2.353 . S
Tb342 O350 2.427 . S
Tb342 O351 2.513 . S
Tb342 O352 2.453 . S
Tb342 O353 2.596 . S
Tb342 O354 2.374 . S
O343 Tb340 2.453 . S
O343 C359 1.245 . S
O344 Tb340 2.596 . S
O344 Tb342 2.343 . S
O344 C359 1.259 . S
O345 Tb340 2.374 . S
O345 C341 1.251 . S
C346 O350 1.275 1_455 S
C346 O351 1.246 1_455 S
O347 C341 1.263 . S
O347 Tb342 2.353 . S
C348 O352 1.245 . S
C348 O353 1.259 . S
C349 O354 1.250 . S
C349 O355 1.263 . S
O350 Tb342 2.427 . S
O350 C346 1.275 1_655 S
O351 Tb342 2.513 . S
O351 C346 1.246 1_655 S
O352 Tb342 2.453 . S
O352 C348 1.245 . S
O353 Tb340 2.343 . S
O353 Tb342 2.596 . S
O353 C348 1.259 . S
O354 Tb342 2.374 . S
O354 C349 1.250 . S
O355 Tb340 2.353 . S
O355 C349 1.263 . S
C356 O357 1.275 . S
C356 O358 1.246 . S
O357 Tb340 2.427 . S
O357 C356 1.275 . S
O358 Tb340 2.513 . S
O358 C356 1.246 . S
C359 O343 1.245 . S
C359 O344 1.259 . S
C360 C361 1.369 . S
C360 C362 1.419 . S
C360 H364 0.930 . S
C361 C360 1.369 . S
C361 C370 1.429 . S
C362 C360 1.419 . S
C362 C363 1.363 . S
C362 H365 0.929 . S
C363 C362 1.363 . S
C363 C369 1.428 . S
H364 C360 0.930 . S
H365 C362 0.929 . S
S366 N367 1.613 . S
S366 N368 1.610 . S
N367 S366 1.613 . S
N367 C370 1.350 . S
N368 S366 1.610 . S
N368 C369 1.351 . S
C369 C363 1.428 . S
C369 N368 1.351 . S
C369 C370 1.434 . S
C370 C361 1.429 . S
C370 N367 1.350 . S
C370 C369 1.434 . S
C371 C372 1.369 . S
C371 C373 1.419 . S
C371 H375 0.930 . S
C372 C371 1.369 . S
C372 C381 1.429 . S
C373 C371 1.419 . S
C373 C374 1.363 . S
C373 H376 0.929 . S
C374 C373 1.363 . S
C374 C380 1.428 . S
H375 C371 0.930 . S
H376 C373 0.929 . S
S377 N378 1.613 . S
S377 N379 1.610 . S
N378 S377 1.613 . S
N378 C381 1.350 . S
N379 S377 1.610 . S
N379 C380 1.351 . S
C380 C374 1.428 . S
C380 N379 1.351 . S
C380 C381 1.434 . S
C381 C372 1.429 . S
C381 N378 1.350 . S
C381 C380 1.434 . S
C382 C383 1.369 . S
C382 C384 1.419 . S
C382 H386 0.930 . S
C383 C382 1.369 . S
C383 C392 1.429 . S
C384 C382 1.419 . S
C384 C385 1.363 . S
C384 H387 0.929 . S
C385 C384 1.363 . S
C385 C391 1.428 . S
H386 C382 0.930 . S
H387 C384 0.929 . S
S388 N389 1.613 . S
S388 N390 1.610 . S
N389 S388 1.613 . S
N389 C392 1.350 . S
N390 S388 1.610 . S
N390 C391 1.351 . S
C391 C385 1.428 . S
C391 N390 1.351 . S
C391 C392 1.434 . S
C392 C383 1.429 . S
C392 N389 1.350 . S
C392 C391 1.434 . S
C393 C394 1.369 . S
C393 C395 1.419 . S
C393 H397 0.930 . S
C394 C393 1.369 . S
C394 C403 1.429 . S
C395 C393 1.419 . S
C395 C396 1.363 . S
C395 H398 0.929 . S
C396 C395 1.363 . S
C396 C402 1.428 . S
H397 C393 0.930 . S
H398 C395 0.929 . S
S399 N400 1.613 . S
S399 N401 1.610 . S
N400 S399 1.613 . S
N400 C403 1.350 . S
N401 S399 1.610 . S
N401 C402 1.351 . S
C402 C396 1.428 . S
C402 N401 1.351 . S
C402 C403 1.434 . S
C403 C394 1.429 . S
C403 N400 1.350 . S
C403 C402 1.434 . S
C404 C405 1.369 . S
C404 C406 1.419 . S
C404 H408 0.930 . S
C405 C404 1.369 . S
C405 C414 1.429 . S
C406 C404 1.419 . S
C406 C407 1.363 . S
C406 H409 0.929 . S
C407 C406 1.363 . S
C407 C413 1.428 . S
H408 C404 0.930 . S
H409 C406 0.929 . S
S410 N411 1.613 . S
S410 N412 1.610 . S
N411 S410 1.613 . S
N411 C414 1.350 . S
N412 S410 1.610 . S
N412 C413 1.351 . S
C413 C407 1.428 . S
C413 N412 1.351 . S
C413 C414 1.434 . S
C414 C405 1.429 . S
C414 N411 1.350 . S
C414 C413 1.434 . S
C415 C416 1.369 . S
C415 C417 1.419 . S
C415 H419 0.930 . S
C416 C415 1.369 . S
C416 C425 1.429 . S
C417 C415 1.419 . S
C417 C418 1.363 . S
C417 H420 0.929 . S
C418 C417 1.363 . S
C418 C424 1.428 . S
H419 C415 0.930 . S
H420 C417 0.929 . S
S421 N422 1.613 . S
S421 N423 1.610 . S
N422 S421 1.613 . S
N422 C425 1.350 . S
N423 S421 1.610 . S
N423 C424 1.351 . S
C424 C418 1.428 . S
C424 N423 1.351 . S
C424 C425 1.434 . S
C425 C416 1.429 . S
C425 N422 1.350 . S
C425 C424 1.434 . S
C426 C427 1.369 . S
C426 C428 1.419 . S
C426 H430 0.930 1_545 S
C427 C426 1.369 . S
C427 C436 1.429 . S
C428 C426 1.419 . S
C428 C429 1.363 . S
C428 H431 0.929 . S
C429 C428 1.363 . S
C429 C435 1.428 . S
H430 C426 0.930 1_565 S
H431 C428 0.929 . S
S432 N433 1.613 . S
S432 N434 1.610 . S
N433 S432 1.613 . S
N433 C436 1.350 . S
N434 S432 1.610 . S
N434 C435 1.351 . S
C435 C429 1.428 . S
C435 N434 1.351 . S
C435 C436 1.434 . S
C436 C427 1.429 . S
C436 N433 1.350 . S
C436 C435 1.434 . S
C437 C438 1.369 1_655 S
C437 C439 1.419 . S
C437 H441 0.930 1_655 S
C438 C437 1.369 1_455 S
C438 C447 1.429 1_455 S
C439 C437 1.419 . S
C439 C440 1.363 . S
C439 H442 0.929 . S
C440 C439 1.363 . S
C440 C446 1.428 . S
H441 C437 0.930 1_455 S
H442 C439 0.929 . S
S443 N444 1.613 . S
S443 N445 1.610 . S
N444 S443 1.613 . S
N444 C447 1.350 . S
N445 S443 1.610 . S
N445 C446 1.351 . S
C446 C440 1.428 . S
C446 N445 1.351 . S
C446 C447 1.434 . S
C447 C438 1.429 1_655 S
C447 N444 1.350 . S
C447 C446 1.434 . S
C448 C449 1.369 . S
C448 C450 1.419 . S
C448 H452 0.930 . S
C449 C448 1.369 . S
C449 C458 1.429 . S
C450 C448 1.419 . S
C450 C451 1.363 . S
C450 H453 0.929 . S
C451 C450 1.363 . S
C451 C457 1.428 . S
H452 C448 0.930 . S
H453 C450 0.929 . S
S454 N455 1.613 . S
S454 N456 1.610 . S
N455 S454 1.613 . S
N455 C458 1.350 . S
N456 S454 1.610 . S
N456 C457 1.351 . S
C457 C451 1.428 . S
C457 N456 1.351 . S
C457 C458 1.434 . S
C458 C449 1.429 . S
C458 N455 1.350 . S
C458 C457 1.434 . S
C459 C460 1.369 . S
C459 C461 1.419 . S
C459 H463 0.930 . S
C460 C459 1.369 . S
C460 C469 1.429 . S
C461 C459 1.419 . S
C461 C462 1.363 . S
C461 H464 0.929 . S
C462 C461 1.363 . S
C462 C468 1.428 . S
H463 C459 0.930 . S
H464 C461 0.929 . S
S465 N466 1.613 . S
S465 N467 1.610 . S
N466 S465 1.613 . S
N466 C469 1.350 . S
N467 S465 1.610 . S
N467 C468 1.351 . S
C468 C462 1.428 . S
C468 N467 1.351 . S
C468 C469 1.434 . S
C469 C460 1.429 . S
C469 N466 1.350 . S
C469 C468 1.434 . S
C470 C471 1.369 . S
C470 C472 1.419 . S
C470 H474 0.930 . S
C471 C470 1.369 . S
C471 C480 1.429 . S
C472 C470 1.419 . S
C472 C473 1.363 . S
C472 H475 0.929 . S
C473 C472 1.363 . S
C473 C479 1.428 . S
H474 C470 0.930 . S
H475 C472 0.929 . S
S476 N477 1.613 . S
S476 N478 1.610 . S
N477 S476 1.613 . S
N477 C480 1.350 . S
N478 S476 1.610 . S
N478 C479 1.351 . S
C479 C473 1.428 . S
C479 N478 1.351 . S
C479 C480 1.434 . S
C480 C471 1.429 . S
C480 N477 1.350 . S
C480 C479 1.434 . S
C481 C482 1.369 . S
C481 C483 1.419 . S
C481 H485 0.930 . S
C482 C481 1.369 . S
C482 C491 1.429 . S
C483 C481 1.419 . S
C483 C484 1.363 . S
C483 H486 0.929 . S
C484 C483 1.363 . S
C484 C490 1.428 . S
H485 C481 0.930 . S
H486 C483 0.929 . S
S487 N488 1.613 . S
S487 N489 1.610 . S
N488 S487 1.613 . S
N488 C491 1.350 . S
N489 S487 1.610 . S
N489 C490 1.351 . S
C490 C484 1.428 . S
C490 N489 1.351 . S
C490 C491 1.434 . S
C491 C482 1.429 . S
C491 N488 1.350 . S
C491 C490 1.434 . S
C492 C493 1.369 . S
C492 C494 1.419 . S
C492 H496 0.930 . S
C493 C492 1.369 . S
C493 C502 1.429 . S
C494 C492 1.419 . S
C494 C495 1.363 . S
C494 H497 0.929 . S
C495 C494 1.363 . S
C495 C501 1.428 . S
H496 C492 0.930 . S
H497 C494 0.929 . S
S498 N499 1.613 . S
S498 N500 1.610 . S
N499 S498 1.613 . S
N499 C502 1.350 . S
N500 S498 1.610 . S
N500 C501 1.351 . S
C501 C495 1.428 . S
C501 N500 1.351 . S
C501 C502 1.434 . S
C502 C493 1.429 . S
C502 N499 1.350 . S
C502 C501 1.434 . S
C503 C504 1.369 . S
C503 C505 1.419 . S
C503 H507 0.930 . S
C504 C503 1.369 . S
C504 C513 1.429 . S
C505 C503 1.419 . S
C505 C506 1.363 . S
C505 H508 0.929 . S
C506 C505 1.363 . S
C506 C512 1.428 . S
H507 C503 0.930 . S
H508 C505 0.929 . S
S509 N510 1.613 . S
S509 N511 1.610 . S
N510 S509 1.613 . S
N510 C513 1.350 . S
N511 S509 1.610 . S
N511 C512 1.351 . S
C512 C506 1.428 . S
C512 N511 1.351 . S
C512 C513 1.434 . S
C513 C504 1.429 . S
C513 N510 1.350 . S
C513 C512 1.434 . S
C514 C515 1.369 . S
C514 C516 1.419 . S
C514 H518 0.930 . S
C515 C514 1.369 . S
C515 C524 1.429 . S
C516 C514 1.419 . S
C516 C517 1.363 . S
C516 H519 0.929 . S
C517 C516 1.363 . S
C517 C523 1.428 . S
H518 C514 0.930 . S
H519 C516 0.929 . S
S520 N521 1.613 . S
S520 N522 1.610 . S
N521 S520 1.613 . S
N521 C524 1.350 . S
N522 S520 1.610 . S
N522 C523 1.351 . S
C523 C517 1.428 . S
C523 N522 1.351 . S
C523 C524 1.434 . S
C524 C515 1.429 . S
C524 N521 1.350 . S
C524 C523 1.434 . S
C525 C526 1.369 . S
C525 C527 1.419 . S
C525 H529 0.930 . S
C526 C525 1.369 . S
C526 C535 1.429 . S
C527 C525 1.419 . S
C527 C528 1.363 . S
C527 H530 0.929 . S
C528 C527 1.363 . S
C528 C534 1.428 . S
H529 C525 0.930 . S
H530 C527 0.929 . S
S531 N532 1.613 . S
S531 N533 1.610 . S
N532 S531 1.613 . S
N532 C535 1.350 . S
N533 S531 1.610 . S
N533 C534 1.351 . S
C534 C528 1.428 . S
C534 N533 1.351 . S
C534 C535 1.434 . S
C535 C526 1.429 . S
C535 N532 1.350 . S
C535 C534 1.434 . S
C536 C537 1.369 . S
C536 C538 1.419 . S
C536 H540 0.930 . S
C537 C536 1.369 . S
C537 C546 1.429 . S
C538 C536 1.419 . S
C538 C539 1.363 . S
C538 H541 0.929 . S
C539 C538 1.363 . S
C539 C545 1.428 . S
H540 C536 0.930 . S
H541 C538 0.929 . S
S542 N543 1.613 . S
S542 N544 1.610 . S
N543 S542 1.613 . S
N543 C546 1.350 . S
N544 S542 1.610 . S
N544 C545 1.351 . S
C545 C539 1.428 . S
C545 N544 1.351 . S
C545 C546 1.434 . S
C546 C537 1.429 . S
C546 N543 1.350 . S
C546 C545 1.434 . S
C547 C548 1.369 1_565 S
C547 C549 1.419 . S
C547 H551 0.930 . S
C548 C547 1.369 1_545 S
C548 C557 1.429 . S
C549 C547 1.419 . S
C549 C550 1.363 . S
C549 H552 0.929 . S
C550 C549 1.363 . S
C550 C556 1.428 . S
H551 C547 0.930 . S
H552 C549 0.929 . S
S553 N554 1.613 . S
S553 N555 1.608 1_545 S
N554 S553 1.613 . S
N554 C557 1.350 . S
N555 S553 1.608 1_565 S
N555 C556 1.353 . S
C556 C550 1.428 . S
C556 N555 1.353 . S
C556 C557 1.434 1_565 S
C557 C548 1.429 . S
C557 N554 1.350 . S
C557 C556 1.434 1_545 S
C558 C559 1.369 1_565 S
C558 C560 1.419 1_554 S
C558 H562 0.930 . S
C559 C558 1.369 1_545 S
C559 C568 1.429 . S
C560 C558 1.419 1_556 S
C560 C561 1.363 1_565 S
C560 H563 0.929 . S
C561 C560 1.363 1_545 S
C561 C567 1.428 . S
H562 C558 0.930 . S
H563 C560 0.929 . S
S564 N565 1.613 1_556 S
S564 N566 1.610 . S
N565 S564 1.613 1_554 S
N565 C568 1.350 . S
N566 S564 1.610 . S
N566 C567 1.351 . S
C567 C561 1.428 . S
C567 N566 1.351 . S
C567 C568 1.434 1_556 S
C568 C559 1.429 . S
C568 N565 1.350 . S
C568 C567 1.434 1_554 S
C569 C570 1.369 . S
C569 C571 1.419 1_456 S
C569 H573 0.930 1_455 S
C570 C569 1.369 . S
C570 C579 1.429 . S
C571 C569 1.419 1_654 S
C571 C572 1.363 1_655 S
C571 H574 0.929 . S
C572 C571 1.363 1_455 S
C572 C578 1.428 . S
H573 C569 0.930 1_655 S
H574 C571 0.929 . S
S575 N576 1.613 1_554 S
S575 N577 1.610 . S
N576 S575 1.613 1_556 S
N576 C579 1.350 . S
N577 S575 1.610 . S
N577 C578 1.351 . S
C578 C572 1.428 . S
C578 N577 1.351 . S
C578 C579 1.434 1_554 S
C579 C570 1.429 . S
C579 N576 1.350 . S
C579 C578 1.434 1_556 S
C580 C581 1.369 . S
C580 C582 1.419 1_556 S
C580 H584 0.930 . S
C581 C580 1.369 . S
C581 C590 1.429 . S
C582 C580 1.419 1_554 S
C582 C583 1.363 . S
C582 H585 0.929 . S
C583 C582 1.363 . S
C583 C589 1.428 . S
H584 C580 0.930 . S
H585 C582 0.929 . S
S586 N587 1.613 . S
S586 N588 1.610 1_556 S
N587 S586 1.613 . S
N587 C590 1.350 . S
N588 S586 1.610 1_554 S
N588 C589 1.351 . S
C589 C583 1.428 . S
C589 N588 1.351 . S
C589 C590 1.434 1_554 S
C590 C581 1.429 . S
C590 N587 1.350 . S
C590 C589 1.434 1_556 S
C591 C592 1.369 . S
C591 C593 1.419 . S
C591 H595 0.930 . S
C592 C591 1.369 . S
C592 C601 1.429 . S
C593 C591 1.419 . S
C593 C594 1.363 . S
C593 H596 0.929 . S
C594 C593 1.363 . S
C594 C600 1.428 . S
H595 C591 0.930 . S
H596 C593 0.929 . S
S597 N598 1.613 . S
S597 N599 1.610 . S
N598 S597 1.613 . S
N598 C601 1.350 . S
N599 S597 1.610 . S
N599 C600 1.351 . S
C600 C594 1.428 . S
C600 N599 1.351 . S
C600 C601 1.434 . S
C601 C592 1.429 . S
C601 N598 1.350 . S
C601 C600 1.434 . S
C602 C603 1.369 . S
C602 C604 1.419 . S
C602 H606 0.930 . S
C603 C602 1.369 . S
C603 C612 1.429 . S
C604 C602 1.419 . S
C604 C605 1.363 . S
C604 H607 0.929 . S
C605 C604 1.363 . S
C605 C611 1.428 . S
H606 C602 0.930 . S
H607 C604 0.929 . S
S608 N609 1.613 . S
S608 N610 1.610 . S
N609 S608 1.613 . S
N609 C612 1.350 . S
N610 S608 1.610 . S
N610 C611 1.351 . S
C611 C605 1.428 . S
C611 N610 1.351 . S
C611 C612 1.434 . S
C612 C603 1.429 . S
C612 N609 1.350 . S
C612 C611 1.434 . S
C613 C614 1.369 . S
C613 C615 1.419 . S
C613 H617 0.930 . S
C614 C613 1.369 . S
C614 C623 1.429 . S
C615 C613 1.419 . S
C615 C616 1.363 . S
C615 H618 0.929 . S
C616 C615 1.363 . S
C616 C622 1.428 . S
H617 C613 0.930 . S
H618 C615 0.929 . S
S619 N620 1.613 . S
S619 N621 1.610 . S
N620 S619 1.613 . S
N620 C623 1.350 . S
N621 S619 1.610 . S
N621 C622 1.351 . S
C622 C616 1.428 . S
C622 N621 1.351 . S
C622 C623 1.434 . S
C623 C614 1.429 . S
C623 N620 1.350 . S
C623 C622 1.434 . S
C624 C625 1.369 . S
C624 C626 1.419 . S
C624 H628 0.930 . S
C625 C624 1.369 . S
C625 C634 1.429 . S
C626 C624 1.419 . S
C626 C627 1.363 . S
C626 H629 0.929 . S
C627 C626 1.363 . S
C627 C633 1.428 . S
H628 C624 0.930 . S
H629 C626 0.929 . S
S630 N631 1.613 1_455 S
S630 N632 1.610 1_455 S
N631 S630 1.613 1_655 S
N631 C634 1.350 . S
N632 S630 1.610 1_655 S
N632 C633 1.351 . S
C633 C627 1.428 . S
C633 N632 1.351 . S
C633 C634 1.434 . S
C634 C625 1.429 . S
C634 N631 1.350 . S
C634 C633 1.434 . S
C635 C636 1.369 . S
C635 C637 1.419 . S
C635 H639 0.930 . S
C636 C635 1.369 . S
C636 C645 1.429 . S
C637 C635 1.419 . S
C637 C638 1.363 . S
C637 H640 0.929 . S
C638 C637 1.363 . S
C638 C644 1.428 . S
H639 C635 0.930 . S
H640 C637 0.929 . S
S641 N642 1.613 . S
S641 N643 1.610 . S
N642 S641 1.613 . S
N642 C645 1.350 . S
N643 S641 1.610 . S
N643 C644 1.351 . S
C644 C638 1.428 . S
C644 N643 1.351 . S
C644 C645 1.434 . S
C645 C636 1.429 . S
C645 N642 1.350 . S
C645 C644 1.434 . S
C646 C647 1.369 . S
C646 C648 1.419 . S
C646 H650 0.930 . S
C647 C646 1.369 . S
C647 C656 1.429 . S
C648 C646 1.419 . S
C648 C649 1.363 . S
C648 H651 0.929 . S
C649 C648 1.363 . S
C649 C655 1.428 . S
H650 C646 0.930 . S
H651 C648 0.929 . S
S652 N653 1.613 . S
S652 N654 1.610 . S
N653 S652 1.613 . S
N653 C656 1.350 . S
N654 S652 1.610 . S
N654 C655 1.351 . S
C655 C649 1.428 . S
C655 N654 1.351 . S
C655 C656 1.434 . S
C656 C647 1.429 . S
C656 N653 1.350 . S
C656 C655 1.434 . S
C657 C658 1.369 . S
C657 C659 1.419 . S
C657 H661 0.930 . S
C658 C657 1.369 . S
C658 C667 1.429 . S
C659 C657 1.419 . S
C659 C660 1.363 . S
C659 H662 0.929 . S
C660 C659 1.363 . S
C660 C666 1.428 . S
H661 C657 0.930 . S
H662 C659 0.929 . S
S663 N664 1.613 . S
S663 N665 1.610 . S
N664 S663 1.613 . S
N664 C667 1.350 . S
N665 S663 1.610 . S
N665 C666 1.351 . S
C666 C660 1.428 . S
C666 N665 1.351 . S
C666 C667 1.434 . S
C667 C658 1.429 . S
C667 N664 1.350 . S
C667 C666 1.434 . S
C668 C669 1.369 . S
C668 C670 1.419 . S
C668 H672 0.930 . S
C669 C668 1.369 . S
C669 C678 1.429 . S
C670 C668 1.419 . S
C670 C671 1.363 . S
C670 H673 0.929 . S
C671 C670 1.363 . S
C671 C677 1.428 . S
H672 C668 0.930 . S
H673 C670 0.929 . S
S674 N675 1.613 . S
S674 N676 1.610 . S
N675 S674 1.613 . S
N675 C678 1.350 . S
N676 S674 1.610 . S
N676 C677 1.351 . S
C677 C671 1.428 . S
C677 N676 1.351 . S
C677 C678 1.434 . S
C678 C669 1.429 . S
C678 N675 1.350 . S
C678 C677 1.434 . S
C679 C680 1.369 . S
C679 C681 1.419 . S
C679 H683 0.930 . S
C680 C679 1.369 . S
C680 C689 1.429 . S
C681 C679 1.419 . S
C681 C682 1.363 . S
C681 H684 0.929 . S
C682 C681 1.363 . S
C682 C688 1.428 . S
H683 C679 0.930 . S
H684 C681 0.929 . S
S685 N686 1.613 . S
S685 N687 1.610 . S
N686 S685 1.613 . S
N686 C689 1.350 . S
N687 S685 1.610 . S
N687 C688 1.351 . S
C688 C682 1.428 . S
C688 N687 1.351 . S
C688 C689 1.434 . S
C689 C680 1.429 . S
C689 N686 1.350 . S
C689 C688 1.434 . S
C690 C691 1.369 . S
C690 C692 1.419 . S
C690 H694 0.930 . S
C691 C690 1.369 . S
C691 C700 1.429 . S
C692 C690 1.419 . S
C692 C693 1.363 . S
C692 H695 0.929 . S
C693 C692 1.363 . S
C693 C699 1.428 . S
H694 C690 0.930 . S
H695 C692 0.929 . S
S696 N697 1.613 . S
S696 N698 1.610 1_455 S
N697 S696 1.613 . S
N697 C700 1.350 1_455 S
N698 S696 1.610 1_655 S
N698 C699 1.351 . S
C699 C693 1.428 . S
C699 N698 1.351 . S
C699 C700 1.434 . S
C700 C691 1.429 . S
C700 N697 1.350 1_655 S
C700 C699 1.434 . S
C701 C702 1.369 . S
C701 C703 1.419 . S
C701 H705 0.930 . S
C702 C701 1.369 . S
C702 C711 1.429 . S
C703 C701 1.419 . S
C703 C704 1.363 . S
C703 H706 0.929 . S
C704 C703 1.363 . S
C704 C710 1.428 . S
H705 C701 0.930 . S
H706 C703 0.929 . S
S707 N708 1.613 . S
S707 N709 1.610 . S
N708 S707 1.613 . S
N708 C711 1.350 . S
N709 S707 1.610 . S
N709 C710 1.351 . S
C710 C704 1.428 . S
C710 N709 1.351 . S
C710 C711 1.434 . S
C711 C702 1.429 . S
C711 N708 1.350 . S
C711 C710 1.434 . S
C712 C713 1.369 . S
C712 C714 1.419 . S
C712 H716 0.930 . S
C713 C712 1.369 . S
C713 C722 1.429 . S
C714 C712 1.419 . S
C714 C715 1.363 . S
C714 H717 0.929 . S
C715 C714 1.363 . S
C715 C721 1.428 . S
H716 C712 0.930 . S
H717 C714 0.929 . S
S718 N719 1.613 1_565 S
S718 N720 1.610 . S
N719 S718 1.613 1_545 S
N719 C722 1.350 . S
N720 S718 1.610 . S
N720 C721 1.351 1_565 S
C721 C715 1.428 . S
C721 N720 1.351 1_545 S
C721 C722 1.434 . S
C722 C713 1.429 . S
C722 N719 1.350 . S
C722 C721 1.434 . S
C723 C724 1.369 1_455 S
C723 C725 1.419 . S
C723 H727 0.930 . S
C724 C723 1.369 1_655 S
C724 C733 1.429 . S
C725 C723 1.419 . S
C725 C726 1.363 . S
C725 H728 0.929 . S
C726 C725 1.363 . S
C726 C732 1.428 . S
H727 C723 0.930 . S
H728 C725 0.929 . S
S729 N730 1.613 . S
S729 N731 1.610 1_655 S
N730 S729 1.613 . S
N730 C733 1.350 . S
N731 S729 1.610 1_455 S
N731 C732 1.351 . S
C732 C726 1.428 . S
C732 N731 1.351 . S
C732 C733 1.434 1_455 S
C733 C724 1.429 . S
C733 N730 1.350 . S
C733 C732 1.434 1_655 S
C734 C735 1.369 . S
C734 C736 1.419 . S
C734 H738 0.930 . S
C735 C734 1.369 . S
C735 C744 1.429 . S
C736 C734 1.419 . S
C736 C737 1.363 . S
C736 H739 0.929 . S
C737 C736 1.363 . S
C737 C743 1.428 . S
H738 C734 0.930 . S
H739 C736 0.929 . S
S740 N741 1.613 . S
S740 N742 1.610 . S
N741 S740 1.613 . S
N741 C744 1.350 . S
N742 S740 1.610 . S
N742 C743 1.351 . S
C743 C737 1.428 . S
C743 N742 1.351 . S
C743 C744 1.434 . S
C744 C735 1.429 . S
C744 N741 1.350 . S
C744 C743 1.434 . S
C745 C746 1.369 1_545 S
C745 C747 1.419 . S
C745 H749 0.930 . S
C746 C745 1.369 1_565 S
C746 C755 1.429 . S
C747 C745 1.419 . S
C747 C748 1.363 . S
C747 H750 0.929 . S
C748 C747 1.363 . S
C748 C754 1.428 . S
H749 C745 0.930 . S
H750 C747 0.929 . S
S751 N752 1.613 . S
S751 N753 1.610 . S
N752 S751 1.613 . S
N752 C755 1.350 . S
N753 S751 1.610 . S
N753 C754 1.351 1_565 S
C754 C748 1.428 . S
C754 N753 1.351 1_545 S
C754 C755 1.434 1_545 S
C755 C746 1.429 . S
C755 N752 1.350 . S
C755 C754 1.434 1_565 S
C756 C757 1.369 . S
C756 C758 1.419 . S
C756 H760 0.930 . S
C757 C756 1.369 . S
C757 C766 1.429 . S
C758 C756 1.419 . S
C758 C759 1.363 . S
C758 H761 0.929 . S
C759 C758 1.363 . S
C759 C765 1.428 . S
H760 C756 0.930 . S
H761 C758 0.929 . S
S762 N763 1.613 . S
S762 N764 1.610 . S
N763 S762 1.613 . S
N763 C766 1.350 . S
N764 S762 1.610 . S
N764 C765 1.351 . S
C765 C759 1.428 . S
C765 N764 1.351 . S
C765 C766 1.434 . S
C766 C757 1.429 . S
C766 N763 1.350 . S
C766 C765 1.434 . S
C767 C768 1.369 . S
C767 C769 1.419 . S
C767 H771 0.930 . S
C768 C767 1.369 . S
C768 C777 1.429 . S
C769 C767 1.419 . S
C769 C770 1.363 . S
C769 H772 0.929 . S
C770 C769 1.363 . S
C770 C776 1.428 . S
H771 C767 0.930 . S
H772 C769 0.929 . S
S773 N774 1.613 . S
S773 N775 1.610 . S
N774 S773 1.613 . S
N774 C777 1.350 . S
N775 S773 1.610 . S
N775 C776 1.351 . S
C776 C770 1.428 . S
C776 N775 1.351 . S
C776 C777 1.434 . S
C777 C768 1.429 . S
C777 N774 1.350 . S
C777 C776 1.434 . S
C778 C779 1.369 . S
C778 C780 1.419 . S
C778 H782 0.930 . S
C779 C778 1.369 . S
C779 C788 1.429 . S
C780 C778 1.419 . S
C780 C781 1.363 . S
C780 H783 0.929 . S
C781 C780 1.363 . S
C781 C787 1.428 . S
H782 C778 0.930 . S
H783 C780 0.929 . S
S784 N785 1.613 . S
S784 N786 1.610 . S
N785 S784 1.613 . S
N785 C788 1.350 . S
N786 S784 1.610 . S
N786 C787 1.351 . S
C787 C781 1.428 . S
C787 N786 1.351 . S
C787 C788 1.434 . S
C788 C779 1.429 . S
C788 N785 1.350 . S
C788 C787 1.434 . S
C789 C790 1.369 . S
C789 C791 1.419 . S
C789 H793 0.930 . S
C790 C789 1.369 . S
C790 C799 1.429 . S
C791 C789 1.419 . S
C791 C792 1.363 . S
C791 H794 0.929 . S
C792 C791 1.363 . S
C792 C798 1.428 . S
H793 C789 0.930 . S
H794 C791 0.929 . S
S795 N796 1.613 . S
S795 N797 1.610 . S
N796 S795 1.613 . S
N796 C799 1.350 . S
N797 S795 1.610 . S
N797 C798 1.351 . S
C798 C792 1.428 . S
C798 N797 1.351 . S
C798 C799 1.434 . S
C799 C790 1.429 . S
C799 N796 1.350 . S
C799 C798 1.434 . S
C800 C801 1.369 . S
C800 C802 1.419 . S
C800 H804 0.930 . S
C801 C800 1.369 . S
C801 C810 1.429 . S
C802 C800 1.419 . S
C802 C803 1.363 . S
C802 H805 0.929 . S
C803 C802 1.363 . S
C803 C809 1.428 . S
H804 C800 0.930 . S
H805 C802 0.929 . S
S806 N807 1.613 . S
S806 N808 1.610 . S
N807 S806 1.613 . S
N807 C810 1.350 . S
N808 S806 1.610 . S
N808 C809 1.351 . S
C809 C803 1.428 . S
C809 N808 1.351 . S
C809 C810 1.434 . S
C810 C801 1.429 . S
C810 N807 1.350 . S
C810 C809 1.434 . S
C811 C812 1.369 . S
C811 C813 1.419 . S
C811 H815 0.930 . S
C812 C811 1.369 . S
C812 C821 1.429 . S
C813 C811 1.419 . S
C813 C814 1.363 . S
C813 H816 0.929 . S
C814 C813 1.363 . S
C814 C820 1.428 . S
H815 C811 0.930 . S
H816 C813 0.929 . S
S817 N818 1.613 . S
S817 N819 1.610 . S
N818 S817 1.613 . S
N818 C821 1.350 . S
N819 S817 1.610 . S
N819 C820 1.351 . S
C820 C814 1.428 . S
C820 N819 1.351 . S
C820 C821 1.434 . S
C821 C812 1.429 . S
C821 N818 1.350 . S
C821 C820 1.434 . S
C822 C823 1.369 . S
C822 C824 1.419 . S
C822 H826 0.930 . S
C823 C822 1.369 . S
C823 C832 1.429 . S
C824 C822 1.419 . S
C824 C825 1.363 . S
C824 H827 0.929 . S
C825 C824 1.363 . S
C825 C831 1.428 . S
H826 C822 0.930 . S
H827 C824 0.929 . S
S828 N829 1.613 . S
S828 N830 1.610 . S
N829 S828 1.613 . S
N829 C832 1.350 . S
N830 S828 1.610 . S
N830 C831 1.351 . S
C831 C825 1.428 . S
C831 N830 1.351 . S
C831 C832 1.434 . S
C832 C823 1.429 . S
C832 N829 1.350 . S
C832 C831 1.434 . S
C833 C834 1.369 . S
C833 C835 1.419 . S
C833 H837 0.930 . S
C834 C833 1.369 . S
C834 C843 1.429 . S
C835 C833 1.419 . S
C835 C836 1.363 . S
C835 H838 0.929 . S
C836 C835 1.363 . S
C836 C842 1.428 . S
H837 C833 0.930 . S
H838 C835 0.929 . S
S839 N840 1.613 . S
S839 N841 1.610 . S
N840 S839 1.613 . S
N840 C843 1.350 . S
N841 S839 1.610 . S
N841 C842 1.351 . S
C842 C836 1.428 . S
C842 N841 1.351 . S
C842 C843 1.434 . S
C843 C834 1.429 . S
C843 N840 1.350 . S
C843 C842 1.434 . S
C844 C845 1.369 . S
C844 C846 1.419 . S
C844 H848 0.930 . S
C845 C844 1.369 . S
C845 C854 1.429 . S
C846 C844 1.419 . S
C846 C847 1.363 . S
C846 H849 0.929 . S
C847 C846 1.363 . S
C847 C853 1.428 . S
H848 C844 0.930 . S
H849 C846 0.929 . S
S850 N851 1.613 . S
S850 N852 1.610 . S
N851 S850 1.613 . S
N851 C854 1.350 . S
N852 S850 1.610 . S
N852 C853 1.351 . S
C853 C847 1.428 . S
C853 N852 1.351 . S
C853 C854 1.434 . S
C854 C845 1.429 . S
C854 N851 1.350 . S
C854 C853 1.434 . S
C855 C856 1.369 . S
C855 C857 1.419 . S
C855 H859 0.930 . S
C856 C855 1.369 . S
C856 C865 1.429 . S
C857 C855 1.419 . S
C857 C858 1.363 1_655 S
C857 H860 0.929 . S
C858 C857 1.363 1_455 S
C858 C864 1.428 . S
H859 C855 0.930 . S
H860 C857 0.929 . S
S861 N862 1.613 1_445 S
S861 N863 1.610 1_545 S
N862 S861 1.613 1_665 S
N862 C865 1.350 . S
N863 S861 1.610 1_565 S
N863 C864 1.351 . S
C864 C858 1.428 . S
C864 N863 1.351 . S
C864 C865 1.434 1_455 S
C865 C856 1.429 . S
C865 N862 1.350 . S
C865 C864 1.434 1_655 S
C866 C867 1.369 . S
C866 C868 1.419 . S
C866 H870 0.930 . S
C867 C866 1.369 . S
C867 C876 1.429 . S
C868 C866 1.419 . S
C868 C869 1.363 . S
C868 H871 0.929 . S
C869 C868 1.363 . S
C869 C875 1.428 . S
H870 C866 0.930 . S
H871 C868 0.929 . S
S872 N873 1.613 . S
S872 N874 1.610 . S
N873 S872 1.613 . S
N873 C876 1.350 . S
N874 S872 1.610 . S
N874 C875 1.351 . S
C875 C869 1.428 . S
C875 N874 1.351 . S
C875 C876 1.434 . S
C876 C867 1.429 . S
C876 N873 1.350 . S
C876 C875 1.434 . S
C877 C878 1.369 1_545 S
C877 C879 1.419 . S
C877 H881 0.930 1_545 S
C878 C877 1.369 1_565 S
C878 C887 1.429 1_565 S
C879 C877 1.419 . S
C879 C880 1.363 . S
C879 H882 0.929 . S
C880 C879 1.363 . S
C880 C886 1.428 . S
H881 C877 0.930 1_565 S
H882 C879 0.929 . S
S883 N884 1.613 . S
S883 N885 1.610 . S
N884 S883 1.613 . S
N884 C887 1.350 . S
N885 S883 1.610 . S
N885 C886 1.351 . S
C886 C880 1.428 . S
C886 N885 1.351 . S
C886 C887 1.434 . S
C887 C878 1.429 1_545 S
C887 N884 1.350 . S
C887 C886 1.434 . S
C888 C889 1.369 . S
C888 C890 1.419 1_565 S
C888 H892 0.930 . S
C889 C888 1.369 . S
C889 C898 1.429 . S
C890 C888 1.419 1_545 S
C890 C891 1.363 . S
C890 H893 0.929 . S
C891 C890 1.363 . S
C891 C897 1.428 . S
H892 C888 0.930 . S
H893 C890 0.929 . S
S894 N895 1.613 . S
S894 N896 1.610 1_565 S
N895 S894 1.613 . S
N895 C898 1.350 . S
N896 S894 1.610 1_545 S
N896 C897 1.351 . S
C897 C891 1.428 . S
C897 N896 1.351 . S
C897 C898 1.434 1_545 S
C898 C889 1.429 . S
C898 N895 1.350 . S
C898 C897 1.434 1_565 S
C899 C900 1.369 . S
C899 C901 1.419 . S
C899 H903 0.930 . S
C900 C899 1.369 . S
C900 C909 1.429 . S
C901 C899 1.419 . S
C901 C902 1.363 1_455 S
C901 H904 0.929 . S
C902 C901 1.363 1_655 S
C902 C908 1.428 1_655 S
H903 C899 0.930 . S
H904 C901 0.929 . S
S905 N906 1.613 . S
S905 N907 1.610 1_455 S
N906 S905 1.613 . S
N906 C909 1.350 . S
N907 S905 1.610 1_655 S
N907 C908 1.351 1_655 S
C908 C902 1.428 1_455 S
C908 N907 1.351 1_455 S
C908 C909 1.434 . S
C909 C900 1.429 . S
C909 N906 1.350 . S
C909 C908 1.434 . S
C910 C911 1.369 . S
C910 C912 1.419 . S
C910 H914 0.930 . S
C911 C910 1.369 . S
C911 C920 1.429 . S
C912 C910 1.419 . S
C912 C913 1.363 . S
C912 H915 0.929 . S
C913 C912 1.363 . S
C913 C919 1.428 . S
H914 C910 0.930 . S
H915 C912 0.929 . S
S916 N917 1.613 . S
S916 N918 1.610 . S
N917 S916 1.613 . S
N917 C920 1.350 . S
N918 S916 1.610 . S
N918 C919 1.351 . S
C919 C913 1.428 . S
C919 N918 1.351 . S
C919 C920 1.434 . S
C920 C911 1.429 . S
C920 N917 1.350 . S
C920 C919 1.434 . S
C921 C922 1.369 . S
C921 C923 1.419 . S
C921 H925 0.930 . S
C922 C921 1.369 . S
C922 C931 1.429 . S
C923 C921 1.419 . S
C923 C924 1.363 . S
C923 H926 0.929 . S
C924 C923 1.363 . S
C924 C930 1.428 . S
H925 C921 0.930 . S
H926 C923 0.929 . S
S927 N928 1.613 . S
S927 N929 1.610 . S
N928 S927 1.613 . S
N928 C931 1.350 . S
N929 S927 1.610 . S
N929 C930 1.351 . S
C930 C924 1.428 . S
C930 N929 1.351 . S
C930 C931 1.434 . S
C931 C922 1.429 . S
C931 N928 1.350 . S
C931 C930 1.434 . S
C932 C933 1.369 . S
C932 C934 1.419 . S
C932 H936 0.930 . S
C933 C932 1.369 . S
C933 C942 1.429 . S
C934 C932 1.419 . S
C934 C935 1.363 . S
C934 H937 0.929 . S
C935 C934 1.363 . S
C935 C941 1.428 . S
H936 C932 0.930 . S
H937 C934 0.929 . S
S938 N939 1.613 . S
S938 N940 1.610 . S
N939 S938 1.613 . S
N939 C942 1.350 . S
N940 S938 1.610 . S
N940 C941 1.351 . S
C941 C935 1.428 . S
C941 N940 1.351 . S
C941 C942 1.434 . S
C942 C933 1.429 . S
C942 N939 1.350 . S
C942 C941 1.434 . S
C943 C944 1.369 . S
C943 C945 1.419 . S
C943 H947 0.930 . S
C944 C943 1.369 . S
C944 C953 1.429 . S
C945 C943 1.419 . S
C945 C946 1.363 . S
C945 H948 0.929 . S
C946 C945 1.363 . S
C946 C952 1.428 . S
H947 C943 0.930 . S
H948 C945 0.929 . S
S949 N950 1.613 . S
S949 N951 1.610 . S
N950 S949 1.613 . S
N950 C953 1.350 . S
N951 S949 1.610 . S
N951 C952 1.351 . S
C952 C946 1.428 . S
C952 N951 1.351 . S
C952 C953 1.434 . S
C953 C944 1.429 . S
C953 N950 1.350 . S
C953 C952 1.434 . S
C361 C6 1.217 . S
C363 C59 1.247 . S
C372 C19 1.241 . S
C374 C26 1.212 . S
C383 C39 1.243 . S
C385 C46 1.216 . S
C394 C66 1.208 . S
C396 C99 1.242 . S
C405 C119 1.243 . S
C407 C86 1.211 . S
C416 C106 1.214 . S
C418 C79 1.246 . S
C427 C179 1.240 1_545 S
C429 C126 1.210 . S
C438 C139 1.241 . S
C440 C146 1.212 . S
C449 C166 1.210 1_655 S
C451 C159 1.241 . S
C460 C219 1.240 . S
C462 C186 1.209 . S
C471 C206 1.220 . S
C473 C239 1.246 . S
C482 C199 1.247 . S
C484 C226 1.219 . S
C493 C246 1.213 . S
C495 C299 1.242 . S
C504 C259 1.248 . S
C506 C266 1.217 . S
C515 C279 1.240 . S
C517 C286 1.210 . S
C526 C339 1.240 1_455 S
C528 C306 1.212 . S
C537 C359 1.241 . S
C539 C326 1.209 1_565 S
C548 C319 1.246 . S
C550 C346 1.219 . S
C559 C9 1.697 . S
C561 C109 1.690 . S
C570 C69 1.691 . S
C572 C29 1.692 . S
C581 C89 1.696 . S
C583 C49 1.696 . S
C592 C129 1.696 . S
C594 C229 1.690 . S
C603 C149 1.690 . S
C605 C189 1.697 . S
C614 C209 1.695 . S
C616 C169 1.690 . S
C625 C249 1.698 . S
C627 C349 1.694 . S
C636 C309 1.690 . S
C638 C269 1.693 . S
C647 C329 1.692 . S
C649 C289 1.697 . S
C658 C201 1.902 . S
C660 C1 1.907 . S
C669 C21 1.908 . S
C671 C221 1.905 . S
C680 C181 1.907 . S
C682 C41 1.903 . S
C691 C61 1.904 . S
C693 C281 1.904 . S
C702 C81 1.904 . S
C704 C241 1.908 . S
C713 C261 1.905 . S
C715 C101 1.904 . S
C724 C321 1.907 . S
C726 C121 1.903 . S
C735 C141 1.905 . S
C737 C341 1.904 . S
C746 C161 1.908 . S
C748 C301 1.903 . S
C757 C48 1.642 . S
C759 C16 1.728 . S
C768 C8 1.651 . S
C770 C36 1.731 . S
C779 C56 1.730 . S
C781 C28 1.648 . S
C790 C88 1.652 . S
C792 C76 1.731 . S
C801 C108 1.650 . S
C803 C96 1.731 . S
C812 C116 1.732 . S
C814 C68 1.651 . S
C823 C168 1.644 . S
C825 C136 1.729 . S
C834 C156 1.732 . S
C836 C128 1.651 . S
C845 C148 1.652 . S
C847 C176 1.731 . S
C856 C196 1.731 . S
C858 C208 1.649 . S
C867 C216 1.728 . S
C869 C228 1.644 . S
C878 C188 1.643 . S
C880 C236 1.728 1_655 S
C889 C256 1.731 . S
C891 C288 1.649 . S
C900 C276 1.730 1_565 S
C902 C248 1.647 . S
C911 C268 1.643 . S
C913 C296 1.728 . S
C922 C316 1.731 . S
C924 C328 1.650 . S
C933 C336 1.732 . S
C935 C348 1.651 . S
C944 C308 1.652 . S
C946 C356 1.731 . S
