# Generated by pormake.
# Topology mer, (4)-cn, num edge types: 1
# Building blocks:
#     Node 0, Type 0, BuildingBlock: QUQFOY_clean_sbu_1, # of connection points: 4
#     Node 1, Type 0, BuildingBlock: QUQFOY_clean_sbu_1, # of connection points: 4
#     Node 2, Type 0, BuildingBlock: QUQFOY_clean_sbu_1, # of connection points: 4
#     Node 3, Type 0, BuildingBlock: QUQFOY_clean_sbu_1, # of connection points: 4
#     Node 4, Type 0, BuildingBlock: QUQFOY_clean_sbu_1, # of connection points: 4
#     Node 5, Type 0, BuildingBlock: QUQFOY_clean_sbu_1, # of connection points: 4
#     Node 6, Type 0, BuildingBlock: QUQFOY_clean_sbu_1, # of connection points: 4
#     Node 7, Type 0, BuildingBlock: QUQFOY_clean_sbu_1, # of connection points: 4
#     Node 8, Type 0, BuildingBlock: QUQFOY_clean_sbu_1, # of connection points: 4
#     Node 9, Type 0, BuildingBlock: QUQFOY_clean_sbu_1, # of connection points: 4
#     Node 10, Type 0, BuildingBlock: QUQFOY_clean_sbu_1, # of connection points: 4
#     Node 11, Type 0, BuildingBlock: QUQFOY_clean_sbu_1, # of connection points: 4
#     Node 12, Type 0, BuildingBlock: QUQFOY_clean_sbu_1, # of connection points: 4
#     Node 13, Type 0, BuildingBlock: QUQFOY_clean_sbu_1, # of connection points: 4
#     Node 14, Type 0, BuildingBlock: QUQFOY_clean_sbu_1, # of connection points: 4
#     Node 15, Type 0, BuildingBlock: QUQFOY_clean_sbu_1, # of connection points: 4
#     Node 16, Type 0, BuildingBlock: QUQFOY_clean_sbu_1, # of connection points: 4
#     Node 17, Type 0, BuildingBlock: QUQFOY_clean_sbu_1, # of connection points: 4
#     Node 18, Type 0, BuildingBlock: QUQFOY_clean_sbu_1, # of connection points: 4
#     Node 19, Type 0, BuildingBlock: QUQFOY_clean_sbu_1, # of connection points: 4
#     Node 20, Type 0, BuildingBlock: QUQFOY_clean_sbu_1, # of connection points: 4
#     Node 21, Type 0, BuildingBlock: QUQFOY_clean_sbu_1, # of connection points: 4
#     Node 22, Type 0, BuildingBlock: QUQFOY_clean_sbu_1, # of connection points: 4
#     Node 23, Type 0, BuildingBlock: QUQFOY_clean_sbu_1, # of connection points: 4
#     Node 24, Type 0, BuildingBlock: QUQFOY_clean_sbu_1, # of connection points: 4
#     Node 25, Type 0, BuildingBlock: QUQFOY_clean_sbu_1, # of connection points: 4
#     Node 26, Type 0, BuildingBlock: QUQFOY_clean_sbu_1, # of connection points: 4
#     Node 27, Type 0, BuildingBlock: QUQFOY_clean_sbu_1, # of connection points: 4
#     Node 28, Type 0, BuildingBlock: QUQFOY_clean_sbu_1, # of connection points: 4
#     Node 29, Type 0, BuildingBlock: QUQFOY_clean_sbu_1, # of connection points: 4
#     Node 30, Type 0, BuildingBlock: QUQFOY_clean_sbu_1, # of connection points: 4
#     Node 31, Type 0, BuildingBlock: QUQFOY_clean_sbu_1, # of connection points: 4
#     Edge 32, Type (0, 0), BuildingBlock: OJICUG_clean_linker_0, # of connection points: 2
#     Edge 33, Type (0, 0), BuildingBlock: OJICUG_clean_linker_0, # of connection points: 2
#     Edge 34, Type (0, 0), BuildingBlock: OJICUG_clean_linker_0, # of connection points: 2
#     Edge 35, Type (0, 0), BuildingBlock: OJICUG_clean_linker_0, # of connection points: 2
#     Edge 36, Type (0, 0), BuildingBlock: OJICUG_clean_linker_0, # of connection points: 2
#     Edge 37, Type (0, 0), BuildingBlock: OJICUG_clean_linker_0, # of connection points: 2
#     Edge 38, Type (0, 0), BuildingBlock: OJICUG_clean_linker_0, # of connection points: 2
#     Edge 39, Type (0, 0), BuildingBlock: OJICUG_clean_linker_0, # of connection points: 2
#     Edge 40, Type (0, 0), BuildingBlock: OJICUG_clean_linker_0, # of connection points: 2
#     Edge 41, Type (0, 0), BuildingBlock: OJICUG_clean_linker_0, # of connection points: 2
#     Edge 42, Type (0, 0), BuildingBlock: OJICUG_clean_linker_0, # of connection points: 2
#     Edge 43, Type (0, 0), BuildingBlock: OJICUG_clean_linker_0, # of connection points: 2
#     Edge 44, Type (0, 0), BuildingBlock: OJICUG_clean_linker_0, # of connection points: 2
#     Edge 45, Type (0, 0), BuildingBlock: OJICUG_clean_linker_0, # of connection points: 2
#     Edge 46, Type (0, 0), BuildingBlock: OJICUG_clean_linker_0, # of connection points: 2
#     Edge 47, Type (0, 0), BuildingBlock: OJICUG_clean_linker_0, # of connection points: 2
#     Edge 48, Type (0, 0), BuildingBlock: OJICUG_clean_linker_0, # of connection points: 2
#     Edge 49, Type (0, 0), BuildingBlock: OJICUG_clean_linker_0, # of connection points: 2
#     Edge 50, Type (0, 0), BuildingBlock: OJICUG_clean_linker_0, # of connection points: 2
#     Edge 51, Type (0, 0), BuildingBlock: OJICUG_clean_linker_0, # of connection points: 2
#     Edge 52, Type (0, 0), BuildingBlock: OJICUG_clean_linker_0, # of connection points: 2
#     Edge 53, Type (0, 0), BuildingBlock: OJICUG_clean_linker_0, # of connection points: 2
#     Edge 54, Type (0, 0), BuildingBlock: OJICUG_clean_linker_0, # of connection points: 2
#     Edge 55, Type (0, 0), BuildingBlock: OJICUG_clean_linker_0, # of connection points: 2
#     Edge 56, Type (0, 0), BuildingBlock: OJICUG_clean_linker_0, # of connection points: 2
#     Edge 57, Type (0, 0), BuildingBlock: OJICUG_clean_linker_0, # of connection points: 2
#     Edge 58, Type (0, 0), BuildingBlock: OJICUG_clean_linker_0, # of connection points: 2
#     Edge 59, Type (0, 0), BuildingBlock: OJICUG_clean_linker_0, # of connection points: 2
#     Edge 60, Type (0, 0), BuildingBlock: OJICUG_clean_linker_0, # of connection points: 2
#     Edge 61, Type (0, 0), BuildingBlock: OJICUG_clean_linker_0, # of connection points: 2
#     Edge 62, Type (0, 0), BuildingBlock: OJICUG_clean_linker_0, # of connection points: 2
#     Edge 63, Type (0, 0), BuildingBlock: OJICUG_clean_linker_0, # of connection points: 2
#     Edge 64, Type (0, 0), BuildingBlock: OJICUG_clean_linker_0, # of connection points: 2
#     Edge 65, Type (0, 0), BuildingBlock: OJICUG_clean_linker_0, # of connection points: 2
#     Edge 66, Type (0, 0), BuildingBlock: OJICUG_clean_linker_0, # of connection points: 2
#     Edge 67, Type (0, 0), BuildingBlock: OJICUG_clean_linker_0, # of connection points: 2
#     Edge 68, Type (0, 0), BuildingBlock: OJICUG_clean_linker_0, # of connection points: 2
#     Edge 69, Type (0, 0), BuildingBlock: OJICUG_clean_linker_0, # of connection points: 2
#     Edge 70, Type (0, 0), BuildingBlock: OJICUG_clean_linker_0, # of connection points: 2
#     Edge 71, Type (0, 0), BuildingBlock: OJICUG_clean_linker_0, # of connection points: 2
#     Edge 72, Type (0, 0), BuildingBlock: OJICUG_clean_linker_0, # of connection points: 2
#     Edge 73, Type (0, 0), BuildingBlock: OJICUG_clean_linker_0, # of connection points: 2
#     Edge 74, Type (0, 0), BuildingBlock: OJICUG_clean_linker_0, # of connection points: 2
#     Edge 75, Type (0, 0), BuildingBlock: OJICUG_clean_linker_0, # of connection points: 2
#     Edge 76, Type (0, 0), BuildingBlock: OJICUG_clean_linker_0, # of connection points: 2
#     Edge 77, Type (0, 0), BuildingBlock: OJICUG_clean_linker_0, # of connection points: 2
#     Edge 78, Type (0, 0), BuildingBlock: OJICUG_clean_linker_0, # of connection points: 2
#     Edge 79, Type (0, 0), BuildingBlock: OJICUG_clean_linker_0, # of connection points: 2
#     Edge 80, Type (0, 0), BuildingBlock: OJICUG_clean_linker_0, # of connection points: 2
#     Edge 81, Type (0, 0), BuildingBlock: OJICUG_clean_linker_0, # of connection points: 2
#     Edge 82, Type (0, 0), BuildingBlock: OJICUG_clean_linker_0, # of connection points: 2
#     Edge 83, Type (0, 0), BuildingBlock: OJICUG_clean_linker_0, # of connection points: 2
#     Edge 84, Type (0, 0), BuildingBlock: OJICUG_clean_linker_0, # of connection points: 2
#     Edge 85, Type (0, 0), BuildingBlock: OJICUG_clean_linker_0, # of connection points: 2
#     Edge 86, Type (0, 0), BuildingBlock: OJICUG_clean_linker_0, # of connection points: 2
#     Edge 87, Type (0, 0), BuildingBlock: OJICUG_clean_linker_0, # of connection points: 2
#     Edge 88, Type (0, 0), BuildingBlock: OJICUG_clean_linker_0, # of connection points: 2
#     Edge 89, Type (0, 0), BuildingBlock: OJICUG_clean_linker_0, # of connection points: 2
#     Edge 90, Type (0, 0), BuildingBlock: OJICUG_clean_linker_0, # of connection points: 2
#     Edge 91, Type (0, 0), BuildingBlock: OJICUG_clean_linker_0, # of connection points: 2
#     Edge 92, Type (0, 0), BuildingBlock: OJICUG_clean_linker_0, # of connection points: 2
#     Edge 93, Type (0, 0), BuildingBlock: OJICUG_clean_linker_0, # of connection points: 2
#     Edge 94, Type (0, 0), BuildingBlock: OJICUG_clean_linker_0, # of connection points: 2
#     Edge 95, Type (0, 0), BuildingBlock: OJICUG_clean_linker_0, # of connection points: 2
# Relax obj value: 0.010
# Max RMSD: 0.049
# Mean RMSD: 0.049
data_MOF--net-mer--node1-QUQFOY_clean_sbu_1--edge1-OJICUG_clean_linker_0
_symmetry_space_group_name_H-M    P1
_symmetry_Int_Tables_number       1
_symmetry_cell_setting            triclinic
loop_
_symmetry_equiv_pos_as_xyz
'x, y, z'
_cell_length_a     50.131275
_cell_length_b     50.128522
_cell_length_c     39.616782
_cell_angle_alpha  90.000734
_cell_angle_beta   90.000545
_cell_angle_gamma 89.999037
loop_
_atom_site_label
_atom_site_type_symbol
_atom_site_fract_x
_atom_site_fract_y
_atom_site_fract_z
_atom_type_partial_charge
O0 O 0.17269 0.27091 0.37591 0.0
Cd1 Cd 0.14804 0.30369 0.37974 0.0
Cd2 Cd 0.11027 0.26587 0.38339 0.0
O3 O 0.14109 0.24096 0.36807 0.0
O4 O 0.16693 0.33382 0.35712 0.0
O5 O 0.13023 0.31519 0.33674 0.0
C6 C 0.14965 0.33194 0.33306 0.0
C7 C 0.06656 0.26042 0.3633 0.0
C8 C 0.16571 0.24707 0.3694 0.0
C9 C 0.12193 0.29915 0.44606 0.0
O10 O 0.11119 0.27864 0.43294 0.0
O11 O 0.13656 0.31434 0.4282 0.0
O12 O 0.07774 0.24298 0.38252 0.0
O13 O 0.0808 0.2805 0.35367 0.0
O14 O 0.74729 0.1728 0.3758 0.0
Cd15 Cd 0.71436 0.14834 0.37962 0.0
Cd16 Cd 0.752 0.11033 0.38336 0.0
O17 O 0.77707 0.14102 0.36808 0.0
O18 O 0.68436 0.1674 0.35697 0.0
O19 O 0.70277 0.13057 0.33662 0.0
C20 C 0.68614 0.15009 0.33293 0.0
C21 C 0.75744 0.06657 0.3634 0.0
C22 C 0.7711 0.16568 0.36935 0.0
C23 C 0.71869 0.12221 0.44596 0.0
O24 O 0.73914 0.11133 0.43287 0.0
O25 O 0.70362 0.13694 0.42808 0.0
O26 O 0.77484 0.07775 0.38268 0.0
O27 O 0.7374 0.08082 0.35365 0.0
O28 O 0.84597 0.74769 0.37595 0.0
Cd29 Cd 0.87058 0.71488 0.37979 0.0
Cd30 Cd 0.90839 0.75267 0.38344 0.0
O31 O 0.8776 0.77761 0.36812 0.0
O32 O 0.85167 0.68477 0.35716 0.0
O33 O 0.88839 0.70337 0.33679 0.0
C34 C 0.86896 0.68664 0.33311 0.0
C35 C 0.95211 0.75809 0.36338 0.0
C36 C 0.85297 0.77152 0.36944 0.0
C37 C 0.89669 0.7194 0.44611 0.0
O38 O 0.90746 0.7399 0.43299 0.0
O39 O 0.88205 0.70422 0.42825 0.0
O40 O 0.94094 0.77554 0.38259 0.0
O41 O 0.93787 0.73802 0.35373 0.0
O42 O 0.27127 0.8459 0.37588 0.0
Cd43 Cd 0.30416 0.8704 0.37969 0.0
Cd44 Cd 0.2665 0.90834 0.38339 0.0
O45 O 0.24145 0.87763 0.36809 0.0
O46 O 0.3342 0.85139 0.35705 0.0
O47 O 0.31572 0.88818 0.3367 0.0
C48 C 0.33239 0.8687 0.33301 0.0
C49 C 0.26111 0.95209 0.36339 0.0
C50 C 0.24746 0.85298 0.36939 0.0
C51 C 0.29977 0.89652 0.44603 0.0
O52 O 0.27931 0.90737 0.43293 0.0
O53 O 0.31488 0.88182 0.42815 0.0
O54 O 0.24368 0.94093 0.38263 0.0
O55 O 0.28115 0.93782 0.35369 0.0
O56 O 0.17268 0.74767 0.66154 0.0
Cd57 Cd 0.14806 0.71487 0.65772 0.0
Cd58 Cd 0.11026 0.75267 0.65404 0.0
O59 O 0.14106 0.77761 0.66934 0.0
O60 O 0.16697 0.68476 0.68036 0.0
O61 O 0.13025 0.70337 0.70072 0.0
C62 C 0.14968 0.68663 0.70441 0.0
C63 C 0.06654 0.75812 0.6741 0.0
C64 C 0.16569 0.77151 0.66803 0.0
C65 C 0.12196 0.71937 0.59139 0.0
O66 O 0.11119 0.73987 0.6045 0.0
O67 O 0.1366 0.7042 0.60926 0.0
O68 O 0.07773 0.77555 0.65487 0.0
O69 O 0.08078 0.73805 0.68376 0.0
O70 O 0.27137 0.17277 0.66144 0.0
Cd71 Cd 0.30429 0.1483 0.65762 0.0
Cd72 Cd 0.26665 0.1103 0.65392 0.0
O73 O 0.24159 0.14099 0.66921 0.0
O74 O 0.33431 0.16735 0.68025 0.0
O75 O 0.31588 0.13054 0.70061 0.0
C76 C 0.33252 0.15005 0.7043 0.0
C77 C 0.26123 0.06655 0.6739 0.0
C78 C 0.24757 0.16565 0.66792 0.0
C79 C 0.29993 0.12216 0.59129 0.0
O80 O 0.27949 0.11128 0.60439 0.0
O81 O 0.31502 0.13689 0.60916 0.0
O82 O 0.24382 0.07772 0.65463 0.0
O83 O 0.28127 0.0808 0.68363 0.0
O84 O 0.84598 0.27094 0.66142 0.0
Cd85 Cd 0.87064 0.30372 0.65761 0.0
Cd86 Cd 0.90839 0.26587 0.65395 0.0
O87 O 0.87757 0.24097 0.66925 0.0
O88 O 0.85176 0.33385 0.68024 0.0
O89 O 0.88846 0.3152 0.70062 0.0
C90 C 0.86905 0.33195 0.7043 0.0
C91 C 0.9521 0.26042 0.67404 0.0
C92 C 0.85295 0.24709 0.66792 0.0
C93 C 0.89675 0.29917 0.59129 0.0
O94 O 0.90749 0.27865 0.6044 0.0
O95 O 0.88214 0.31437 0.60915 0.0
O96 O 0.94092 0.24297 0.65482 0.0
O97 O 0.93787 0.2805 0.68368 0.0
O98 O 0.74735 0.84596 0.66151 0.0
Cd99 Cd 0.71445 0.87044 0.65767 0.0
Cd100 Cd 0.7521 0.90841 0.65397 0.0
O101 O 0.77716 0.87771 0.66929 0.0
O102 O 0.68442 0.85142 0.68031 0.0
O103 O 0.70287 0.88822 0.70066 0.0
C104 C 0.68621 0.86873 0.70435 0.0
C105 C 0.75748 0.95217 0.67394 0.0
C106 C 0.77116 0.85306 0.668 0.0
C107 C 0.71884 0.89655 0.59133 0.0
O108 O 0.7393 0.90741 0.60443 0.0
O109 O 0.70373 0.88185 0.6092 0.0
O110 O 0.77492 0.941 0.65471 0.0
O111 O 0.73744 0.9379 0.68365 0.0
O112 O 0.84598 0.74774 0.66155 0.0
Cd113 Cd 0.87059 0.71494 0.65773 0.0
Cd114 Cd 0.90839 0.75273 0.65404 0.0
O115 O 0.8776 0.77768 0.66935 0.0
O116 O 0.85168 0.68483 0.68036 0.0
O117 O 0.88841 0.70344 0.70073 0.0
C118 C 0.86898 0.6867 0.70441 0.0
C119 C 0.95211 0.75816 0.67411 0.0
C120 C 0.85297 0.77158 0.66804 0.0
C121 C 0.89669 0.71944 0.59139 0.0
O122 O 0.90746 0.73994 0.6045 0.0
O123 O 0.88206 0.70426 0.60927 0.0
O124 O 0.94094 0.7756 0.65488 0.0
O125 O 0.93787 0.73809 0.68376 0.0
O126 O 0.27129 0.8459 0.66148 0.0
Cd127 Cd 0.30419 0.8704 0.65764 0.0
Cd128 Cd 0.26653 0.90835 0.65396 0.0
O129 O 0.24149 0.87765 0.66928 0.0
O130 O 0.33423 0.85138 0.68028 0.0
O131 O 0.31576 0.88818 0.70063 0.0
C132 C 0.33242 0.86869 0.70432 0.0
C133 C 0.26115 0.95211 0.67395 0.0
C134 C 0.24748 0.85299 0.66798 0.0
C135 C 0.29978 0.89651 0.59131 0.0
O136 O 0.27933 0.90737 0.60442 0.0
O137 O 0.3149 0.88182 0.60918 0.0
O138 O 0.24371 0.94094 0.65472 0.0
O139 O 0.28119 0.93784 0.68365 0.0
O140 O 0.17265 0.2709 0.6615 0.0
Cd141 Cd 0.148 0.30368 0.65768 0.0
Cd142 Cd 0.11025 0.26585 0.65401 0.0
O143 O 0.14106 0.24093 0.66931 0.0
O144 O 0.16689 0.33381 0.68032 0.0
O145 O 0.13019 0.31517 0.70068 0.0
C146 C 0.1496 0.33192 0.70437 0.0
C147 C 0.06653 0.2604 0.67408 0.0
C148 C 0.16568 0.24705 0.66799 0.0
C149 C 0.12191 0.29914 0.59135 0.0
O150 O 0.11117 0.27863 0.60446 0.0
O151 O 0.13652 0.31434 0.60922 0.0
O152 O 0.07771 0.24296 0.65486 0.0
O153 O 0.08077 0.28048 0.68372 0.0
O154 O 0.74724 0.17284 0.66139 0.0
Cd155 Cd 0.71432 0.14838 0.65757 0.0
Cd156 Cd 0.75195 0.11036 0.65387 0.0
O157 O 0.77702 0.14106 0.66915 0.0
O158 O 0.6843 0.16744 0.6802 0.0
O159 O 0.70272 0.13062 0.70056 0.0
C160 C 0.68608 0.15014 0.70425 0.0
C161 C 0.75738 0.06661 0.67385 0.0
C162 C 0.77105 0.16572 0.66786 0.0
C163 C 0.71867 0.12224 0.59124 0.0
O164 O 0.7391 0.11135 0.60434 0.0
O165 O 0.70358 0.13697 0.60911 0.0
O166 O 0.77478 0.07779 0.65458 0.0
O167 O 0.73734 0.08086 0.68359 0.0
O168 O 0.84601 0.27091 0.37585 0.0
Cd169 Cd 0.87066 0.3037 0.37967 0.0
Cd170 Cd 0.90842 0.26586 0.38334 0.0
O171 O 0.87761 0.24095 0.36802 0.0
O172 O 0.85177 0.33382 0.35704 0.0
O173 O 0.88847 0.31519 0.33667 0.0
C174 C 0.86906 0.33194 0.33299 0.0
C175 C 0.95213 0.26042 0.36327 0.0
C176 C 0.85298 0.24707 0.36934 0.0
C177 C 0.89676 0.29916 0.446 0.0
O178 O 0.9075 0.27864 0.43289 0.0
O179 O 0.88214 0.31435 0.42813 0.0
O180 O 0.94095 0.24297 0.38248 0.0
O181 O 0.9379 0.2805 0.35363 0.0
O182 O 0.74737 0.84592 0.37589 0.0
Cd183 Cd 0.71447 0.87042 0.37971 0.0
Cd184 Cd 0.75213 0.90838 0.38342 0.0
O185 O 0.77718 0.87767 0.36812 0.0
O186 O 0.68444 0.8514 0.35707 0.0
O187 O 0.7029 0.8882 0.33672 0.0
C188 C 0.68624 0.86871 0.33303 0.0
C189 C 0.75752 0.95213 0.36342 0.0
C190 C 0.77118 0.85301 0.36942 0.0
C191 C 0.71885 0.89654 0.44605 0.0
O192 O 0.73931 0.90739 0.43295 0.0
O193 O 0.70375 0.88184 0.42817 0.0
O194 O 0.77495 0.94096 0.38267 0.0
O195 O 0.73749 0.93786 0.35371 0.0
O196 O 0.17269 0.74764 0.37595 0.0
Cd197 Cd 0.14808 0.71483 0.37978 0.0
Cd198 Cd 0.11027 0.75262 0.38344 0.0
O199 O 0.14105 0.77756 0.36812 0.0
O200 O 0.167 0.68472 0.35715 0.0
O201 O 0.13027 0.70332 0.33679 0.0
C202 C 0.1497 0.68659 0.3331 0.0
C203 C 0.06654 0.75806 0.36338 0.0
C204 C 0.16568 0.77148 0.36944 0.0
C205 C 0.12197 0.71935 0.44611 0.0
O206 O 0.1112 0.73984 0.43299 0.0
O207 O 0.13661 0.70417 0.42824 0.0
O208 O 0.07772 0.7755 0.3826 0.0
O209 O 0.08078 0.73799 0.35373 0.0
O210 O 0.27138 0.17275 0.37586 0.0
Cd211 Cd 0.30429 0.14828 0.37967 0.0
Cd212 Cd 0.26664 0.11029 0.38338 0.0
O213 O 0.24159 0.14099 0.3681 0.0
O214 O 0.33431 0.16732 0.35703 0.0
O215 O 0.31587 0.13051 0.33667 0.0
C216 C 0.33252 0.15002 0.33298 0.0
C217 C 0.2612 0.06653 0.36341 0.0
C218 C 0.24757 0.16565 0.36939 0.0
C219 C 0.29994 0.12215 0.44601 0.0
O220 O 0.27949 0.11127 0.43291 0.0
O221 O 0.31503 0.13687 0.42813 0.0
O222 O 0.2438 0.07772 0.38267 0.0
O223 O 0.28125 0.08078 0.35367 0.0
O224 O 0.67267 0.77104 0.87589 0.0
Cd225 Cd 0.64806 0.80385 0.87971 0.0
Cd226 Cd 0.61026 0.76605 0.8834 0.0
O227 O 0.64105 0.74111 0.8681 0.0
O228 O 0.66697 0.83396 0.85708 0.0
O229 O 0.63025 0.81536 0.83672 0.0
C230 C 0.64968 0.83209 0.83303 0.0
C231 C 0.56653 0.7606 0.86335 0.0
C232 C 0.66568 0.7472 0.86941 0.0
C233 C 0.62196 0.79935 0.94605 0.0
O234 O 0.61119 0.77885 0.93294 0.0
O235 O 0.6366 0.81452 0.92817 0.0
O236 O 0.57772 0.74317 0.88259 0.0
O237 O 0.58077 0.78067 0.85368 0.0
O238 O 0.24735 0.67277 0.87593 0.0
Cd239 Cd 0.21444 0.64828 0.87977 0.0
Cd240 Cd 0.2521 0.61032 0.88347 0.0
O241 O 0.27715 0.64102 0.86816 0.0
O242 O 0.18441 0.66731 0.85713 0.0
O243 O 0.20286 0.6305 0.83679 0.0
C244 C 0.1862 0.65 0.8331 0.0
C245 C 0.25748 0.56656 0.86348 0.0
C246 C 0.27115 0.66567 0.86945 0.0
C247 C 0.21883 0.62217 0.94611 0.0
O248 O 0.23928 0.61131 0.933 0.0
O249 O 0.20372 0.63687 0.92823 0.0
O250 O 0.27491 0.57773 0.88273 0.0
O251 O 0.23744 0.58083 0.85377 0.0
O252 O 0.34596 0.24776 0.87586 0.0
Cd253 Cd 0.37061 0.21497 0.87967 0.0
Cd254 Cd 0.40837 0.25281 0.88336 0.0
O255 O 0.37755 0.27772 0.86807 0.0
O256 O 0.35172 0.18485 0.85704 0.0
O257 O 0.38842 0.20349 0.83667 0.0
C258 C 0.36901 0.18673 0.83299 0.0
C259 C 0.45209 0.25828 0.86329 0.0
C260 C 0.35293 0.27161 0.86938 0.0
C261 C 0.39671 0.21949 0.94601 0.0
O262 O 0.40746 0.24001 0.9329 0.0
O263 O 0.38209 0.20431 0.92813 0.0
O264 O 0.4409 0.27571 0.88252 0.0
O265 O 0.43786 0.2382 0.85363 0.0
O266 O 0.77138 0.34595 0.87583 0.0
Cd267 Cd 0.80431 0.37039 0.87966 0.0
Cd268 Cd 0.76668 0.40842 0.8834 0.0
O269 O 0.7416 0.37774 0.86811 0.0
O270 O 0.83431 0.35132 0.85702 0.0
O271 O 0.81592 0.38815 0.83667 0.0
C272 C 0.83255 0.36863 0.83298 0.0
C273 C 0.76125 0.45218 0.86346 0.0
C274 C 0.74757 0.35307 0.86937 0.0
C275 C 0.79998 0.39651 0.94601 0.0
O276 O 0.77954 0.40741 0.93292 0.0
O277 O 0.81506 0.38178 0.92812 0.0
O278 O 0.74385 0.441 0.88273 0.0
O279 O 0.78129 0.43793 0.8537 0.0
O280 O 0.67268 0.24779 0.16139 0.0
Cd281 Cd 0.64803 0.21501 0.15756 0.0
Cd282 Cd 0.61027 0.25284 0.15391 0.0
O283 O 0.64108 0.27775 0.16922 0.0
O284 O 0.66692 0.18488 0.18019 0.0
O285 O 0.63022 0.20351 0.20056 0.0
C286 C 0.64964 0.18676 0.20424 0.0
C287 C 0.56655 0.25827 0.17399 0.0
C288 C 0.6657 0.27164 0.1679 0.0
C289 C 0.62193 0.21956 0.09124 0.0
O290 O 0.61118 0.24007 0.10436 0.0
O291 O 0.63655 0.20436 0.1091 0.0
O292 O 0.57773 0.27572 0.15478 0.0
O293 O 0.5808 0.2382 0.18363 0.0
O294 O 0.77129 0.67279 0.16156 0.0
Cd295 Cd 0.80419 0.6483 0.15773 0.0
Cd296 Cd 0.76654 0.61034 0.154 0.0
O297 O 0.74148 0.64104 0.1693 0.0
O298 O 0.83422 0.66733 0.18038 0.0
O299 O 0.81577 0.63052 0.20072 0.0
C300 C 0.83242 0.65002 0.20442 0.0
C301 C 0.76115 0.56658 0.17396 0.0
C302 C 0.74747 0.6657 0.16802 0.0
C303 C 0.79983 0.62221 0.09138 0.0
O304 O 0.77937 0.61134 0.10447 0.0
O305 O 0.81493 0.63691 0.10927 0.0
O306 O 0.74372 0.57775 0.15471 0.0
O307 O 0.78118 0.58085 0.18369 0.0
O308 O 0.34595 0.77101 0.16148 0.0
Cd309 Cd 0.37055 0.80382 0.15765 0.0
Cd310 Cd 0.40837 0.76604 0.15397 0.0
O311 O 0.37759 0.74109 0.16928 0.0
O312 O 0.35162 0.83393 0.18027 0.0
O313 O 0.38836 0.81535 0.20063 0.0
C314 C 0.36892 0.83207 0.20432 0.0
C315 C 0.4521 0.7606 0.17401 0.0
C316 C 0.35296 0.74717 0.16797 0.0
C317 C 0.39665 0.79933 0.09131 0.0
O318 O 0.40743 0.77883 0.10442 0.0
O319 O 0.382 0.81449 0.10918 0.0
O320 O 0.44092 0.74317 0.15478 0.0
O321 O 0.43786 0.78067 0.18368 0.0
O322 O 0.24729 0.34588 0.1615 0.0
Cd323 Cd 0.21437 0.37035 0.15769 0.0
Cd324 Cd 0.25202 0.40835 0.15395 0.0
O325 O 0.27709 0.37765 0.16923 0.0
O326 O 0.18436 0.3513 0.18033 0.0
O327 O 0.20279 0.38811 0.20069 0.0
C328 C 0.18615 0.3686 0.20438 0.0
C329 C 0.25746 0.45211 0.17393 0.0
C330 C 0.2711 0.35299 0.16795 0.0
C331 C 0.2187 0.39648 0.09135 0.0
O332 O 0.23915 0.40736 0.10444 0.0
O333 O 0.20363 0.38175 0.10923 0.0
O334 O 0.27485 0.44092 0.15465 0.0
O335 O 0.23742 0.43786 0.18368 0.0
O336 O 0.34599 0.24773 0.16145 0.0
Cd337 Cd 0.37063 0.21494 0.15762 0.0
Cd338 Cd 0.4084 0.25277 0.15395 0.0
O339 O 0.37759 0.27769 0.16926 0.0
O340 O 0.35173 0.18482 0.18025 0.0
O341 O 0.38844 0.20344 0.20062 0.0
C342 C 0.36902 0.18669 0.2043 0.0
C343 C 0.45212 0.25823 0.17401 0.0
C344 C 0.35297 0.27158 0.16795 0.0
C345 C 0.39672 0.21948 0.09129 0.0
O346 O 0.40748 0.23998 0.1044 0.0
O347 O 0.3821 0.20429 0.10916 0.0
O348 O 0.44093 0.27567 0.15478 0.0
O349 O 0.43789 0.23815 0.18366 0.0
O350 O 0.7714 0.34591 0.16144 0.0
Cd351 Cd 0.80433 0.37037 0.15762 0.0
Cd352 Cd 0.76669 0.40838 0.1539 0.0
O353 O 0.74162 0.37769 0.16917 0.0
O354 O 0.83434 0.3513 0.18026 0.0
O355 O 0.81592 0.38813 0.20061 0.0
C356 C 0.83256 0.36861 0.2043 0.0
C357 C 0.76125 0.45214 0.17387 0.0
C358 C 0.74759 0.35303 0.16789 0.0
C359 C 0.79999 0.3965 0.09128 0.0
O360 O 0.77955 0.40739 0.10438 0.0
O361 O 0.81507 0.38177 0.10916 0.0
O362 O 0.74385 0.44096 0.15459 0.0
O363 O 0.78129 0.43788 0.18362 0.0
O364 O 0.67268 0.77102 0.16149 0.0
Cd365 Cd 0.64808 0.80384 0.15766 0.0
Cd366 Cd 0.61026 0.76604 0.15398 0.0
O367 O 0.64105 0.74109 0.16928 0.0
O368 O 0.667 0.83394 0.18029 0.0
O369 O 0.63027 0.81535 0.20066 0.0
C370 C 0.64971 0.83208 0.20434 0.0
C371 C 0.56653 0.7606 0.17402 0.0
C372 C 0.66568 0.74718 0.16798 0.0
C373 C 0.62197 0.79934 0.09133 0.0
O374 O 0.6112 0.77884 0.10443 0.0
O375 O 0.63662 0.81451 0.1092 0.0
O376 O 0.57771 0.74317 0.15479 0.0
O377 O 0.58077 0.78067 0.18369 0.0
O378 O 0.24737 0.67275 0.16155 0.0
Cd379 Cd 0.21447 0.64826 0.15773 0.0
Cd380 Cd 0.25214 0.61031 0.154 0.0
O381 O 0.27719 0.64101 0.1693 0.0
O382 O 0.18444 0.66728 0.18038 0.0
O383 O 0.2029 0.63048 0.20072 0.0
C384 C 0.18624 0.64997 0.20441 0.0
C385 C 0.25753 0.56655 0.17398 0.0
C386 C 0.27118 0.66567 0.16801 0.0
C387 C 0.21885 0.62215 0.09138 0.0
O388 O 0.23931 0.6113 0.10448 0.0
O389 O 0.20374 0.63685 0.10927 0.0
O390 O 0.27496 0.57772 0.15473 0.0
O391 O 0.2375 0.58081 0.18371 0.0
O392 O 0.34595 0.77099 0.87587 0.0
Cd393 Cd 0.37056 0.80381 0.87969 0.0
Cd394 Cd 0.40837 0.76601 0.88339 0.0
O395 O 0.37758 0.74106 0.86809 0.0
O396 O 0.35164 0.83391 0.85706 0.0
O397 O 0.38837 0.81532 0.8367 0.0
C398 C 0.36894 0.83205 0.83301 0.0
C399 C 0.4521 0.76058 0.86334 0.0
C400 C 0.35295 0.74715 0.86939 0.0
C401 C 0.39666 0.79932 0.94603 0.0
O402 O 0.40743 0.77882 0.93293 0.0
O403 O 0.38202 0.81449 0.92815 0.0
O404 O 0.44092 0.74314 0.88257 0.0
O405 O 0.43785 0.78064 0.85367 0.0
O406 O 0.24724 0.34589 0.87591 0.0
Cd407 Cd 0.21432 0.37035 0.87974 0.0
Cd408 Cd 0.25196 0.40836 0.88345 0.0
O409 O 0.27702 0.37766 0.86816 0.0
O410 O 0.18431 0.35129 0.8571 0.0
O411 O 0.20272 0.38811 0.83675 0.0
C412 C 0.18609 0.3686 0.83306 0.0
C413 C 0.25739 0.45212 0.86349 0.0
C414 C 0.27105 0.353 0.86944 0.0
C415 C 0.21867 0.39648 0.94607 0.0
O416 O 0.23911 0.40736 0.93297 0.0
O417 O 0.20359 0.38175 0.9282 0.0
O418 O 0.2748 0.44093 0.88276 0.0
O419 O 0.23735 0.43787 0.85375 0.0
O420 O 0.67264 0.24785 0.8758 0.0
Cd421 Cd 0.64799 0.21506 0.87961 0.0
Cd422 Cd 0.61024 0.2529 0.88331 0.0
O423 O 0.64105 0.27782 0.86801 0.0
O424 O 0.66688 0.18494 0.85698 0.0
O425 O 0.63018 0.20358 0.83661 0.0
C426 C 0.64959 0.18682 0.83293 0.0
C427 C 0.56652 0.25834 0.86325 0.0
C428 C 0.66567 0.2717 0.86932 0.0
C429 C 0.62191 0.21959 0.94596 0.0
O430 O 0.61116 0.24011 0.93286 0.0
O431 O 0.63652 0.2044 0.92807 0.0
O432 O 0.57769 0.27578 0.88247 0.0
O433 O 0.58076 0.23827 0.85359 0.0
O434 O 0.77131 0.67284 0.87594 0.0
Cd435 Cd 0.80421 0.64836 0.87978 0.0
Cd436 Cd 0.76656 0.61038 0.88347 0.0
O437 O 0.74151 0.64108 0.86817 0.0
O438 O 0.83424 0.66739 0.85714 0.0
O439 O 0.8158 0.63058 0.83679 0.0
C440 C 0.83245 0.65008 0.8331 0.0
C441 C 0.76118 0.56663 0.86348 0.0
C442 C 0.7475 0.66574 0.86946 0.0
C443 C 0.79984 0.62223 0.94611 0.0
O444 O 0.77939 0.61137 0.933 0.0
O445 O 0.81493 0.63695 0.92824 0.0
O446 O 0.74375 0.57779 0.88273 0.0
O447 O 0.78121 0.5809 0.85377 0.0
C448 C 0.19946 0.17931 0.36313 0.0
C449 C 0.22657 0.18633 0.36564 0.0
H450 H 0.15892 0.19293 0.3622 0.0
C451 C 0.2334 0.21352 0.36671 0.0
H452 H 0.19348 0.15856 0.3622 0.0
C453 C 0.21365 0.23316 0.36671 0.0
C454 C 0.1865 0.22617 0.36565 0.0
H455 H 0.25406 0.21971 0.36842 0.0
H456 H 0.21973 0.25385 0.36842 0.0
C457 C 0.17963 0.19903 0.36314 0.0
C458 C 0.81921 0.17932 0.36311 0.0
C459 C 0.79211 0.18635 0.3656 0.0
H460 H 0.85976 0.19293 0.36218 0.0
C461 C 0.78528 0.21354 0.36664 0.0
H462 H 0.82519 0.15857 0.36219 0.0
C463 C 0.80504 0.23318 0.36664 0.0
C464 C 0.83218 0.22618 0.36559 0.0
H465 H 0.76462 0.21974 0.36834 0.0
H466 H 0.79897 0.25387 0.36833 0.0
C467 C 0.83904 0.19903 0.3631 0.0
C468 C 0.83909 0.81957 0.36318 0.0
C469 C 0.8322 0.79243 0.36568 0.0
H470 H 0.82528 0.86005 0.36225 0.0
C471 C 0.80504 0.78547 0.36673 0.0
H472 H 0.85981 0.82565 0.36226 0.0
C473 C 0.78531 0.80513 0.36672 0.0
C474 C 0.79217 0.83232 0.36567 0.0
H475 H 0.79895 0.76478 0.36843 0.0
H476 H 0.76465 0.79896 0.36842 0.0
C477 C 0.81928 0.83931 0.36318 0.0
C478 C 0.17956 0.81953 0.36316 0.0
C479 C 0.18645 0.79239 0.36567 0.0
H480 H 0.19336 0.86001 0.36221 0.0
C481 C 0.21361 0.78543 0.36673 0.0
H482 H 0.15884 0.8256 0.36223 0.0
C483 C 0.23334 0.8051 0.36671 0.0
C484 C 0.22648 0.83228 0.36565 0.0
H485 H 0.21971 0.76475 0.36844 0.0
H486 H 0.25401 0.79893 0.36842 0.0
C487 C 0.19936 0.83927 0.36315 0.0
C488 C 0.17957 0.81956 0.67427 0.0
C489 C 0.18646 0.79242 0.67177 0.0
H490 H 0.19339 0.86004 0.67518 0.0
C491 C 0.21362 0.78546 0.67071 0.0
H492 H 0.15886 0.82564 0.67521 0.0
C493 C 0.23335 0.80511 0.67069 0.0
C494 C 0.2265 0.8323 0.67175 0.0
H495 H 0.21971 0.76477 0.66901 0.0
H496 H 0.25402 0.79894 0.66898 0.0
C497 C 0.19938 0.8393 0.67426 0.0
C498 C 0.19945 0.1793 0.6742 0.0
C499 C 0.22656 0.18633 0.67169 0.0
H500 H 0.15891 0.19292 0.67516 0.0
C501 C 0.23339 0.21352 0.67064 0.0
H502 H 0.19348 0.15855 0.67513 0.0
C503 C 0.21363 0.23316 0.67066 0.0
C504 C 0.18648 0.22616 0.67173 0.0
H505 H 0.25404 0.21971 0.66893 0.0
H506 H 0.2197 0.25385 0.66896 0.0
C507 C 0.17962 0.19902 0.67422 0.0
C508 C 0.78524 0.21358 0.67057 0.0
C509 C 0.79206 0.18639 0.67163 0.0
H510 H 0.79893 0.25391 0.66889 0.0
C511 C 0.81916 0.17935 0.67414 0.0
H512 H 0.76458 0.21978 0.66886 0.0
C513 C 0.839 0.19906 0.67416 0.0
C514 C 0.83214 0.22621 0.67166 0.0
H515 H 0.82513 0.1586 0.67507 0.0
H516 H 0.85971 0.19296 0.6751 0.0
C517 C 0.805 0.23321 0.67059 0.0
C518 C 0.83908 0.81963 0.67427 0.0
C519 C 0.83219 0.79249 0.67178 0.0
H520 H 0.82526 0.86011 0.67517 0.0
C521 C 0.80504 0.78552 0.67073 0.0
H522 H 0.8598 0.82572 0.67519 0.0
C523 C 0.7853 0.80518 0.67072 0.0
C524 C 0.79216 0.83237 0.67176 0.0
H525 H 0.79895 0.76483 0.66905 0.0
H526 H 0.76464 0.799 0.66903 0.0
C527 C 0.81927 0.83937 0.67426 0.0
C528 C 0.71361 0.73327 0.86671 0.0
C529 C 0.68646 0.7263 0.86567 0.0
H530 H 0.75402 0.71979 0.86841 0.0
C531 C 0.67957 0.69915 0.8632 0.0
H532 H 0.7197 0.75396 0.86839 0.0
C533 C 0.69939 0.67942 0.86321 0.0
C534 C 0.7265 0.68643 0.8657 0.0
H535 H 0.65886 0.69307 0.86228 0.0
H536 H 0.6934 0.65868 0.86231 0.0
C537 C 0.73335 0.71361 0.86672 0.0
C538 C 0.28529 0.71355 0.86671 0.0
C539 C 0.29215 0.68636 0.86568 0.0
H540 H 0.29893 0.7539 0.86837 0.0
C541 C 0.31926 0.67937 0.8632 0.0
H542 H 0.26462 0.71973 0.86839 0.0
C543 C 0.33907 0.6991 0.86319 0.0
C544 C 0.33218 0.72624 0.86565 0.0
H545 H 0.32526 0.65862 0.8623 0.0
H546 H 0.35979 0.69302 0.86227 0.0
C547 C 0.30502 0.73321 0.86669 0.0
C548 C 0.33899 0.31964 0.86317 0.0
C549 C 0.33213 0.29249 0.86564 0.0
H550 H 0.32514 0.36011 0.86227 0.0
C551 C 0.30498 0.2855 0.8667 0.0
H552 H 0.35971 0.32574 0.86224 0.0
C553 C 0.28523 0.30514 0.86671 0.0
C554 C 0.29206 0.33233 0.86568 0.0
H555 H 0.29891 0.26481 0.86838 0.0
H556 H 0.26457 0.29894 0.86841 0.0
C557 C 0.31916 0.33936 0.86318 0.0
C558 C 0.67961 0.31973 0.86312 0.0
C559 C 0.68647 0.29258 0.86557 0.0
H560 H 0.69348 0.36019 0.86223 0.0
C561 C 0.71362 0.28558 0.86661 0.0
H562 H 0.6589 0.32584 0.86221 0.0
C563 C 0.73338 0.30521 0.86662 0.0
C564 C 0.72655 0.33241 0.86561 0.0
H565 H 0.71969 0.26488 0.86828 0.0
H566 H 0.75403 0.29901 0.86831 0.0
C567 C 0.69945 0.33944 0.86313 0.0
C568 C 0.71365 0.28553 0.1706 0.0
C569 C 0.6865 0.29252 0.17165 0.0
H570 H 0.75406 0.29897 0.1689 0.0
C571 C 0.67964 0.31967 0.17413 0.0
H572 H 0.71972 0.26483 0.16891 0.0
C573 C 0.69948 0.33938 0.17413 0.0
C574 C 0.72658 0.33236 0.17164 0.0
H575 H 0.65893 0.32577 0.17505 0.0
H576 H 0.6935 0.36013 0.17505 0.0
C577 C 0.73341 0.30516 0.1706 0.0
C578 C 0.73334 0.71358 0.17074 0.0
C579 C 0.72648 0.68639 0.17177 0.0
H580 H 0.7197 0.75392 0.16905 0.0
C581 C 0.69937 0.67939 0.17423 0.0
H582 H 0.75401 0.71975 0.16907 0.0
C583 C 0.67956 0.69913 0.17422 0.0
C584 C 0.68645 0.72627 0.17175 0.0
H585 H 0.69337 0.65865 0.17513 0.0
H586 H 0.65884 0.69305 0.17512 0.0
C587 C 0.71361 0.73323 0.17073 0.0
C588 C 0.31928 0.67938 0.17423 0.0
C589 C 0.29217 0.68637 0.17176 0.0
H590 H 0.35981 0.69304 0.17512 0.0
C591 C 0.2853 0.71355 0.17073 0.0
H592 H 0.32529 0.65863 0.17514 0.0
C593 C 0.30503 0.73321 0.17072 0.0
C594 C 0.33219 0.72625 0.17174 0.0
H595 H 0.26464 0.71972 0.16905 0.0
H596 H 0.29893 0.7539 0.16903 0.0
C597 C 0.33909 0.69911 0.17422 0.0
C598 C 0.28527 0.30513 0.17066 0.0
C599 C 0.29211 0.33232 0.1717 0.0
H600 H 0.29895 0.26479 0.16898 0.0
C601 C 0.31922 0.33934 0.17418 0.0
H602 H 0.26462 0.29894 0.16898 0.0
C603 C 0.33905 0.31962 0.17418 0.0
C604 C 0.33218 0.29247 0.1717 0.0
H605 H 0.3252 0.36008 0.1751 0.0
H606 H 0.35976 0.32571 0.1751 0.0
C607 C 0.30503 0.28548 0.17066 0.0
C608 C 0.99535 0.28084 0.34374 0.0
C609 C 0.98114 0.25871 0.35615 0.0
H610 H 0.03377 0.29873 0.33594 0.0
C611 C 0.99543 0.23588 0.36598 0.0
H612 H 0.98492 0.29873 0.33593 0.0
C613 C 0.02327 0.23588 0.36599 0.0
C614 C 0.03756 0.25872 0.35616 0.0
H615 H 0.98513 0.21839 0.37535 0.0
H616 H 0.03357 0.21839 0.37537 0.0
C617 C 0.02335 0.28084 0.34375 0.0
C618 C 0.78198 0.02329 0.36619 0.0
C619 C 0.75916 0.03756 0.35631 0.0
H620 H 0.7995 0.98516 0.3756 0.0
C621 C 0.73706 0.02333 0.34386 0.0
H622 H 0.79946 0.0336 0.3756 0.0
C623 C 0.73708 0.99533 0.34386 0.0
C624 C 0.7592 0.98113 0.35632 0.0
H625 H 0.71917 0.03375 0.33601 0.0
H626 H 0.71921 0.98489 0.33602 0.0
C627 C 0.782 0.99544 0.36619 0.0
C628 C 0.02326 0.7826 0.36608 0.0
C629 C 0.03754 0.75977 0.35626 0.0
H630 H 0.98512 0.80011 0.37545 0.0
C631 C 0.02332 0.73764 0.34385 0.0
H632 H 0.03356 0.8001 0.37545 0.0
C633 C 0.99532 0.73765 0.34385 0.0
C634 C 0.98112 0.75978 0.35626 0.0
H635 H 0.03375 0.71975 0.33605 0.0
H636 H 0.98489 0.71976 0.33605 0.0
C637 C 0.99541 0.78261 0.36608 0.0
C638 C 0.23663 0.99541 0.36615 0.0
C639 C 0.25944 0.9811 0.35629 0.0
H640 H 0.21917 0.03357 0.37556 0.0
C641 C 0.28157 0.9953 0.34385 0.0
H642 H 0.21913 0.98512 0.37554 0.0
C643 C 0.28159 0.0233 0.34386 0.0
C644 C 0.25948 0.03753 0.3563 0.0
H645 H 0.29944 0.98486 0.33602 0.0
H646 H 0.29948 0.03371 0.33603 0.0
C647 C 0.23665 0.02326 0.36616 0.0
C648 C 0.02326 0.78267 0.67139 0.0
C649 C 0.03754 0.75984 0.68122 0.0
H650 H 0.98512 0.80017 0.662 0.0
C651 C 0.02332 0.73772 0.69365 0.0
H652 H 0.03356 0.80016 0.662 0.0
C653 C 0.99532 0.73773 0.69365 0.0
C654 C 0.98112 0.75986 0.68123 0.0
H655 H 0.03374 0.71983 0.70146 0.0
H656 H 0.98489 0.71985 0.70147 0.0
C657 C 0.99541 0.78268 0.67139 0.0
C658 C 0.23666 0.99542 0.67119 0.0
C659 C 0.25947 0.98112 0.68104 0.0
H660 H 0.2192 0.03357 0.66178 0.0
C661 C 0.2816 0.99532 0.69346 0.0
H662 H 0.21916 0.98513 0.6618 0.0
C663 C 0.28162 0.02332 0.69345 0.0
C664 C 0.25951 0.03754 0.68101 0.0
H665 H 0.29948 0.98488 0.70129 0.0
H666 H 0.29951 0.03374 0.70127 0.0
C667 C 0.23668 0.02327 0.67117 0.0
C668 C 0.02324 0.23587 0.67136 0.0
C669 C 0.03753 0.2587 0.6812 0.0
H670 H 0.98509 0.21838 0.66196 0.0
C671 C 0.02331 0.28082 0.69361 0.0
H672 H 0.03354 0.21838 0.66198 0.0
C673 C 0.99532 0.28083 0.69361 0.0
C674 C 0.9811 0.25871 0.68118 0.0
H675 H 0.03374 0.29871 0.70143 0.0
H676 H 0.98489 0.29872 0.70142 0.0
C677 C 0.99539 0.23587 0.67135 0.0
C678 C 0.78193 0.02333 0.67112 0.0
C679 C 0.7591 0.03761 0.68097 0.0
H680 H 0.79945 0.9852 0.66175 0.0
C681 C 0.737 0.02338 0.69342 0.0
H682 H 0.79941 0.03364 0.66172 0.0
C683 C 0.73702 0.99538 0.69344 0.0
C684 C 0.75915 0.98118 0.68102 0.0
H685 H 0.71911 0.0338 0.70125 0.0
H686 H 0.71915 0.98494 0.70128 0.0
C687 C 0.78196 0.99549 0.67114 0.0
C688 C 0.52331 0.781 0.8438 0.0
C689 C 0.53753 0.75889 0.85624 0.0
H690 H 0.48488 0.79888 0.83596 0.0
C691 C 0.52324 0.73606 0.8661 0.0
H692 H 0.53374 0.79888 0.83597 0.0
C693 C 0.4954 0.73605 0.86609 0.0
C694 C 0.4811 0.75888 0.85623 0.0
H695 H 0.53354 0.71858 0.87549 0.0
H696 H 0.4851 0.71857 0.87549 0.0
C697 C 0.49531 0.78099 0.84379 0.0
C698 C 0.28194 0.4954 0.86627 0.0
C699 C 0.25911 0.48112 0.85639 0.0
H700 H 0.29945 0.53353 0.87567 0.0
C701 C 0.23701 0.49535 0.84395 0.0
H702 H 0.29941 0.48508 0.87567 0.0
C703 C 0.23703 0.52335 0.84394 0.0
C704 C 0.25915 0.53755 0.85639 0.0
H705 H 0.21912 0.48494 0.83611 0.0
H706 H 0.21916 0.5338 0.8361 0.0
C707 C 0.28196 0.52324 0.86626 0.0
C708 C 0.49537 0.28284 0.866 0.0
C709 C 0.48109 0.26001 0.85615 0.0
H710 H 0.5335 0.30035 0.87539 0.0
C711 C 0.49531 0.2379 0.84371 0.0
H712 H 0.48506 0.30032 0.87541 0.0
C713 C 0.52331 0.23791 0.8437 0.0
C714 C 0.53751 0.26004 0.85614 0.0
H715 H 0.48489 0.22001 0.83588 0.0
H716 H 0.53374 0.22003 0.83587 0.0
C717 C 0.52321 0.28285 0.86599 0.0
C718 C 0.73671 0.49547 0.86625 0.0
C719 C 0.75954 0.48119 0.85637 0.0
H720 H 0.7192 0.5336 0.87567 0.0
C721 C 0.78164 0.49542 0.84392 0.0
H722 H 0.71924 0.48515 0.87566 0.0
C723 C 0.78162 0.52342 0.84393 0.0
C724 C 0.7595 0.53762 0.85638 0.0
H725 H 0.79952 0.485 0.83607 0.0
H726 H 0.79949 0.53386 0.83608 0.0
C727 C 0.73669 0.52331 0.86626 0.0
C728 C 0.4954 0.28278 0.17128 0.0
C729 C 0.48112 0.25995 0.18113 0.0
H730 H 0.53354 0.30029 0.16189 0.0
C731 C 0.49535 0.23783 0.19355 0.0
H732 H 0.4851 0.30027 0.1619 0.0
C733 C 0.52335 0.23784 0.19354 0.0
C734 C 0.53755 0.25997 0.18112 0.0
H735 H 0.48493 0.21994 0.20137 0.0
H736 H 0.53378 0.21996 0.20136 0.0
C737 C 0.52325 0.28279 0.17128 0.0
C738 C 0.7816 0.52337 0.19348 0.0
C739 C 0.75948 0.53757 0.18103 0.0
H740 H 0.79951 0.48495 0.2013 0.0
C741 C 0.73667 0.52326 0.17113 0.0
H742 H 0.79946 0.53381 0.20134 0.0
C743 C 0.7367 0.49541 0.17111 0.0
C744 C 0.75953 0.48114 0.18099 0.0
H745 H 0.71918 0.53355 0.16173 0.0
H746 H 0.71923 0.48511 0.16169 0.0
C747 C 0.78162 0.49537 0.19346 0.0
C748 C 0.49532 0.78102 0.19356 0.0
C749 C 0.4811 0.7589 0.18112 0.0
H750 H 0.53374 0.79891 0.20139 0.0
C751 C 0.49539 0.73608 0.17127 0.0
H752 H 0.48489 0.7989 0.20138 0.0
C753 C 0.52324 0.73608 0.17128 0.0
C754 C 0.53753 0.7589 0.18113 0.0
H755 H 0.4851 0.71859 0.16188 0.0
H756 H 0.53354 0.71859 0.16188 0.0
C757 C 0.52332 0.78102 0.19356 0.0
C758 C 0.282 0.49539 0.17115 0.0
C759 C 0.25917 0.48111 0.18104 0.0
H760 H 0.29951 0.53352 0.16176 0.0
C761 C 0.23708 0.49534 0.1935 0.0
H762 H 0.29947 0.48508 0.16173 0.0
C763 C 0.2371 0.52334 0.19352 0.0
C764 C 0.25922 0.53754 0.18106 0.0
H765 H 0.2192 0.48492 0.20135 0.0
H766 H 0.21923 0.53378 0.20137 0.0
C767 C 0.28202 0.52323 0.17117 0.0
C768 C 0.10017 0.2885 0.5011 0.0
C769 C 0.11911 0.30341 0.48298 0.0
H770 H 0.08594 0.27587 0.54928 0.0
C771 C 0.13685 0.31988 0.50098 0.0
H772 H 0.08595 0.27588 0.4881 0.0
C773 C 0.13685 0.31988 0.53644 0.0
C774 C 0.1191 0.3034 0.55443 0.0
H775 H 0.15166 0.33165 0.48778 0.0
H776 H 0.15165 0.33164 0.54966 0.0
C777 C 0.10016 0.2885 0.5363 0.0
C778 C 0.69806 0.13732 0.53632 0.0
C779 C 0.71438 0.11944 0.55432 0.0
H780 H 0.68643 0.15223 0.48764 0.0
C781 C 0.72911 0.10037 0.53621 0.0
H782 H 0.68642 0.15223 0.54952 0.0
C783 C 0.72912 0.10036 0.50101 0.0
C784 C 0.71439 0.11943 0.48287 0.0
H785 H 0.74162 0.08604 0.54921 0.0
H786 H 0.74163 0.08603 0.48802 0.0
C787 C 0.69806 0.13732 0.50086 0.0
C788 C 0.91846 0.73002 0.50115 0.0
C789 C 0.8995 0.71514 0.48303 0.0
H790 H 0.9327 0.74264 0.54933 0.0
C791 C 0.88174 0.6987 0.50103 0.0
H792 H 0.9327 0.74263 0.48815 0.0
C793 C 0.88174 0.69871 0.53649 0.0
C794 C 0.8995 0.71516 0.55448 0.0
H795 H 0.86691 0.68695 0.48783 0.0
H796 H 0.86691 0.68697 0.54971 0.0
C797 C 0.91846 0.73003 0.53635 0.0
C798 C 0.32043 0.88147 0.5364 0.0
C799 C 0.30406 0.89931 0.55439 0.0
H800 H 0.3321 0.86659 0.48772 0.0
C801 C 0.28927 0.91834 0.53627 0.0
H802 H 0.33211 0.86659 0.54961 0.0
C803 C 0.28926 0.91834 0.50107 0.0
C804 C 0.30405 0.89931 0.48294 0.0
H805 H 0.27672 0.93263 0.54927 0.0
H806 H 0.27672 0.93263 0.48808 0.0
C807 C 0.32043 0.88147 0.50094 0.0
C808 C 0.1002 0.72997 0.50115 0.0
C809 C 0.11916 0.71509 0.48302 0.0
H810 H 0.08595 0.74258 0.54933 0.0
C811 C 0.13692 0.69864 0.50103 0.0
H812 H 0.08596 0.74257 0.48815 0.0
C813 C 0.13692 0.69865 0.53648 0.0
C814 C 0.11915 0.7151 0.55447 0.0
H815 H 0.15175 0.6869 0.48782 0.0
H816 H 0.15175 0.68691 0.5497 0.0
C817 C 0.10019 0.72997 0.53634 0.0
C818 C 0.28947 0.10031 0.50105 0.0
C819 C 0.30423 0.11936 0.48292 0.0
H820 H 0.27695 0.086 0.54924 0.0
C821 C 0.32057 0.13723 0.50092 0.0
H822 H 0.27696 0.08599 0.48806 0.0
C823 C 0.32057 0.13723 0.53637 0.0
C824 C 0.30423 0.11937 0.55437 0.0
H825 H 0.33222 0.15213 0.4877 0.0
H826 H 0.33222 0.15213 0.54958 0.0
C827 C 0.28947 0.10031 0.53625 0.0
C828 C 0.91851 0.28851 0.50105 0.0
C829 C 0.89957 0.30342 0.48292 0.0
H830 H 0.93272 0.27589 0.54924 0.0
C831 C 0.88183 0.31989 0.50091 0.0
H832 H 0.93273 0.27588 0.48806 0.0
C833 C 0.88183 0.3199 0.53637 0.0
C834 C 0.89957 0.30342 0.55437 0.0
H835 H 0.86702 0.33166 0.4877 0.0
H836 H 0.86702 0.33167 0.54958 0.0
C837 C 0.91851 0.28852 0.53624 0.0
C838 C 0.69821 0.88149 0.53642 0.0
C839 C 0.71456 0.89934 0.55441 0.0
H840 H 0.68654 0.86659 0.48775 0.0
C841 C 0.72934 0.91838 0.53628 0.0
H842 H 0.68654 0.8666 0.54963 0.0
C843 C 0.72934 0.91837 0.50109 0.0
C844 C 0.71456 0.89933 0.48296 0.0
H845 H 0.74187 0.93268 0.54928 0.0
H846 H 0.74187 0.93268 0.4881 0.0
C847 C 0.69821 0.88148 0.50096 0.0
C848 C 0.60019 0.78876 0.03629 0.0
C849 C 0.61916 0.80362 0.05441 0.0
H850 H 0.58593 0.77617 0.9881 0.0
C851 C 0.63694 0.82005 0.03642 0.0
H852 H 0.58594 0.77617 0.04928 0.0
C853 C 0.63694 0.82005 1.00096 0.0
C854 C 0.61915 0.80362 0.98296 0.0
H855 H 0.65178 0.83178 0.04963 0.0
H856 H 0.65177 0.83179 0.98775 0.0
C857 C 0.60018 0.78876 1.00109 0.0
C858 C 0.22931 0.60032 1.00114 0.0
C859 C 0.21454 0.61937 0.98302 0.0
H860 H 0.24184 0.58601 0.04933 0.0
C861 C 0.1982 0.63723 1.00102 0.0
H862 H 0.24184 0.58601 0.98814 0.0
C863 C 0.1982 0.63723 0.03648 0.0
C864 C 0.21455 0.61936 0.05447 0.0
H865 H 0.18654 0.65212 0.98782 0.0
H866 H 0.18654 0.65212 0.0497 0.0
C867 C 0.22932 0.60032 0.03634 0.0
C868 C 0.38177 0.19876 0.03637 0.0
C869 C 0.39953 0.21522 0.05437 0.0
H870 H 0.36695 0.18701 0.9877 0.0
C871 C 0.41849 0.2301 0.03624 0.0
H872 H 0.36695 0.18701 0.04958 0.0
C873 C 0.41848 0.2301 1.00105 0.0
C874 C 0.39953 0.21522 0.98292 0.0
H875 H 0.43272 0.24271 0.04924 0.0
H876 H 0.43272 0.24272 0.98806 0.0
C877 C 0.38177 0.19876 1.00091 0.0
C878 C 0.78957 0.41837 0.03625 0.0
C879 C 0.80429 0.39929 0.05437 0.0
H880 H 0.77707 0.43272 0.98806 0.0
C881 C 0.8206 0.3814 0.03637 0.0
H882 H 0.77707 0.43271 0.04924 0.0
C883 C 0.8206 0.3814 1.00091 0.0
C884 C 0.80429 0.3993 0.98292 0.0
H885 H 0.83223 0.36648 0.04958 0.0
H886 H 0.83222 0.36649 0.9877 0.0
C887 C 0.78956 0.41838 1.00105 0.0
C888 C 0.60016 0.2302 0.0362 0.0
C889 C 0.61911 0.2153 0.05432 0.0
H890 H 0.58593 0.24283 0.98802 0.0
C891 C 0.63686 0.19884 0.03631 0.0
H892 H 0.58593 0.24282 0.04921 0.0
C893 C 0.63685 0.19885 1.00086 0.0
C894 C 0.6191 0.21532 0.98287 0.0
H895 H 0.65167 0.18708 0.04952 0.0
H896 H 0.65166 0.18709 0.98764 0.0
C897 C 0.60015 0.23021 1.00101 0.0
C898 C 0.78936 0.60037 0.03634 0.0
C899 C 0.80412 0.61942 0.05447 0.0
H900 H 0.77685 0.58607 0.98814 0.0
C901 C 0.82046 0.63729 0.03648 0.0
H902 H 0.77684 0.58605 0.04932 0.0
C903 C 0.82046 0.6373 1.00102 0.0
C904 C 0.80412 0.61944 0.98302 0.0
H905 H 0.83212 0.65219 0.0497 0.0
H906 H 0.83212 0.6522 0.98782 0.0
C907 C 0.78937 0.60038 1.00114 0.0
C908 C 0.41844 0.78874 1.00108 0.0
C909 C 0.39946 0.80359 0.98295 0.0
H910 H 0.43269 0.77615 0.04927 0.0
C911 C 0.38168 0.82002 1.00094 0.0
H912 H 0.43269 0.77615 0.98808 0.0
C913 C 0.38168 0.82002 0.0364 0.0
C914 C 0.39946 0.8036 0.0544 0.0
H915 H 0.36684 0.83175 0.98772 0.0
H916 H 0.36684 0.83175 0.04961 0.0
C917 C 0.41844 0.78874 0.03627 0.0
C918 C 0.22912 0.41834 1.00111 0.0
C919 C 0.21438 0.39927 0.98299 0.0
H920 H 0.24163 0.43267 0.0493 0.0
C921 C 0.19806 0.38139 1.00099 0.0
H922 H 0.24162 0.43267 0.98811 0.0
C923 C 0.19807 0.38139 0.03645 0.0
C924 C 0.2144 0.39927 0.05444 0.0
H925 H 0.18642 0.36647 0.98778 0.0
H926 H 0.18644 0.36647 0.04966 0.0
C927 C 0.22913 0.41834 0.03631 0.0
C928 C 0.18202 0.37551 0.26677 0.0
C929 C 0.17228 0.36393 0.2369 0.0
H930 H 0.18242 0.37446 0.32084 0.0
C931 C 0.15182 0.34482 0.23916 0.0
H932 H 0.19779 0.39027 0.26591 0.0
C933 C 0.14273 0.33602 0.27067 0.0
C934 C 0.15425 0.34583 0.30054 0.0
H935 H 0.14379 0.33562 0.2166 0.0
H936 H 0.12805 0.32018 0.27152 0.0
C937 C 0.17326 0.36638 0.29828 0.0
C938 C 0.67325 0.15232 0.23903 0.0
C939 C 0.65425 0.17287 0.23677 0.0
H940 H 0.69778 0.12843 0.27139 0.0
C941 C 0.64272 0.18268 0.26664 0.0
H942 H 0.68241 0.14424 0.21646 0.0
C943 C 0.65181 0.17388 0.29814 0.0
C944 C 0.67227 0.15476 0.3004 0.0
H945 H 0.62804 0.19852 0.26578 0.0
H946 H 0.64379 0.18308 0.32071 0.0
C947 C 0.68201 0.14319 0.27054 0.0
C948 C 0.86678 0.67377 0.23921 0.0
C949 C 0.8463 0.65467 0.23694 0.0
H950 H 0.89057 0.69838 0.27157 0.0
C951 C 0.83654 0.6431 0.26681 0.0
H952 H 0.87481 0.68296 0.21664 0.0
C953 C 0.84532 0.65221 0.29832 0.0
C954 C 0.86434 0.67275 0.30058 0.0
H955 H 0.82076 0.62835 0.26595 0.0
H956 H 0.83615 0.64415 0.32088 0.0
C957 C 0.87588 0.68255 0.27072 0.0
C958 C 0.34527 0.86649 0.23911 0.0
C959 C 0.3643 0.84596 0.23684 0.0
H960 H 0.32071 0.89034 0.27147 0.0
C961 C 0.37585 0.83617 0.26671 0.0
H962 H 0.33609 0.87455 0.21655 0.0
C963 C 0.36675 0.84496 0.29822 0.0
C964 C 0.34627 0.86404 0.30048 0.0
H965 H 0.39055 0.82035 0.26585 0.0
H966 H 0.37479 0.83577 0.32078 0.0
C967 C 0.3365 0.87561 0.27062 0.0
C968 C 0.15186 0.67376 0.79831 0.0
C969 C 0.17233 0.65466 0.80057 0.0
H970 H 0.12808 0.69839 0.76595 0.0
C971 C 0.18208 0.64308 0.77071 0.0
H972 H 0.14383 0.68296 0.82087 0.0
C973 C 0.17331 0.6522 0.7392 0.0
C974 C 0.15429 0.67275 0.73693 0.0
H975 H 0.19785 0.62833 0.77156 0.0
H976 H 0.18247 0.64413 0.71663 0.0
C977 C 0.14276 0.68255 0.7668 0.0
C978 C 0.36684 0.17385 0.73909 0.0
C979 C 0.34639 0.15473 0.73682 0.0
H980 H 0.3906 0.1985 0.77145 0.0
C981 C 0.33664 0.14315 0.76669 0.0
H982 H 0.37486 0.18305 0.71652 0.0
C983 C 0.3454 0.15228 0.7982 0.0
C984 C 0.3644 0.17284 0.80046 0.0
H985 H 0.32088 0.12839 0.76584 0.0
H986 H 0.33624 0.14421 0.82076 0.0
C987 C 0.37593 0.18265 0.7706 0.0
C988 C 0.84544 0.36641 0.73908 0.0
C989 C 0.86444 0.34584 0.73682 0.0
H990 H 0.82092 0.39031 0.77144 0.0
C991 C 0.87595 0.33602 0.76669 0.0
H992 H 0.8363 0.37449 0.71652 0.0
C993 C 0.86686 0.34483 0.7982 0.0
C994 C 0.84642 0.36395 0.80046 0.0
H995 H 0.89062 0.32017 0.76584 0.0
H996 H 0.87488 0.33562 0.82076 0.0
C997 C 0.83668 0.37554 0.77059 0.0
C998 C 0.65186 0.84497 0.73913 0.0
C999 C 0.67234 0.86407 0.73687 0.0
H1000 H 0.62808 0.82034 0.77149 0.0
C1001 C 0.68209 0.87564 0.76674 0.0
H1002 H 0.64384 0.83577 0.71657 0.0
C1003 C 0.67332 0.86652 0.79824 0.0
C1004 C 0.6543 0.84598 0.80051 0.0
H1005 H 0.69787 0.89039 0.76588 0.0
H1006 H 0.68248 0.87459 0.82081 0.0
C1007 C 0.64277 0.83618 0.77064 0.0
C1008 C 0.87589 0.68263 0.7668 0.0
C1009 C 0.86436 0.67282 0.73694 0.0
H1010 H 0.87482 0.68304 0.82087 0.0
C1011 C 0.84534 0.65227 0.7392 0.0
H1012 H 0.89058 0.69846 0.76595 0.0
C1013 C 0.83658 0.64315 0.77071 0.0
C1014 C 0.84633 0.65473 0.80058 0.0
H1015 H 0.83618 0.6442 0.71664 0.0
H1016 H 0.8208 0.6284 0.77157 0.0
C1017 C 0.8668 0.67383 0.79831 0.0
C1018 C 0.3453 0.86647 0.79822 0.0
C1019 C 0.36432 0.84593 0.80049 0.0
H1020 H 0.32076 0.89034 0.76586 0.0
C1021 C 0.37586 0.83614 0.77062 0.0
H1022 H 0.33613 0.87454 0.82078 0.0
C1023 C 0.36677 0.84493 0.73911 0.0
C1024 C 0.3463 0.86403 0.73685 0.0
H1025 H 0.39056 0.82031 0.77148 0.0
H1026 H 0.3748 0.83574 0.71655 0.0
C1027 C 0.33654 0.8756 0.76671 0.0
C1028 C 0.1732 0.36637 0.73916 0.0
C1029 C 0.1542 0.34581 0.73689 0.0
H1030 H 0.19772 0.39027 0.77152 0.0
C1031 C 0.14268 0.336 0.76676 0.0
H1032 H 0.18235 0.37445 0.71659 0.0
C1033 C 0.15177 0.3448 0.79827 0.0
C1034 C 0.17222 0.36392 0.80053 0.0
H1035 H 0.12801 0.32015 0.76591 0.0
H1036 H 0.14375 0.3356 0.82083 0.0
C1037 C 0.18196 0.3755 0.77067 0.0
C1038 C 0.65176 0.17394 0.73903 0.0
C1039 C 0.67222 0.15482 0.73677 0.0
H1040 H 0.628 0.19859 0.77139 0.0
C1041 C 0.68196 0.14324 0.76664 0.0
H1042 H 0.64375 0.18314 0.71646 0.0
C1043 C 0.6732 0.15237 0.79814 0.0
C1044 C 0.6542 0.17293 0.8004 0.0
H1045 H 0.69772 0.12847 0.76579 0.0
H1046 H 0.68235 0.14429 0.82071 0.0
C1047 C 0.64268 0.18274 0.77054 0.0
C1048 C 0.83669 0.37552 0.26669 0.0
C1049 C 0.84643 0.36393 0.23682 0.0
H1050 H 0.8363 0.37447 0.32076 0.0
C1051 C 0.86688 0.34481 0.23909 0.0
H1052 H 0.82093 0.39028 0.26584 0.0
C1053 C 0.87597 0.33601 0.27059 0.0
C1054 C 0.86445 0.34583 0.30046 0.0
H1055 H 0.8749 0.33561 0.21652 0.0
H1056 H 0.89065 0.32017 0.27144 0.0
C1057 C 0.84545 0.36639 0.2982 0.0
C1058 C 0.67336 0.8665 0.23913 0.0
C1059 C 0.65433 0.84596 0.23687 0.0
H1060 H 0.69791 0.89036 0.27149 0.0
C1061 C 0.64279 0.83617 0.26673 0.0
H1062 H 0.68252 0.87456 0.21657 0.0
C1063 C 0.65188 0.84496 0.29824 0.0
C1064 C 0.67237 0.86405 0.30051 0.0
H1065 H 0.62809 0.82034 0.26588 0.0
H1066 H 0.64385 0.83577 0.32081 0.0
C1067 C 0.68212 0.87562 0.27064 0.0
C1068 C 0.17335 0.65217 0.29831 0.0
C1069 C 0.15432 0.6727 0.30058 0.0
H1070 H 0.19791 0.62831 0.26595 0.0
C1071 C 0.14279 0.6825 0.27071 0.0
H1072 H 0.18252 0.6441 0.32088 0.0
C1073 C 0.15188 0.67371 0.2392 0.0
C1074 C 0.17236 0.65462 0.23694 0.0
H1075 H 0.12809 0.69833 0.27157 0.0
H1076 H 0.14385 0.6829 0.21664 0.0
C1077 C 0.18212 0.64305 0.2668 0.0
C1078 C 0.33664 0.14312 0.27059 0.0
C1079 C 0.34639 0.15469 0.30046 0.0
H1080 H 0.33623 0.14418 0.21652 0.0
C1081 C 0.36685 0.1738 0.2982 0.0
H1082 H 0.32087 0.12837 0.27144 0.0
C1083 C 0.37594 0.1826 0.26669 0.0
C1084 C 0.36441 0.1728 0.23682 0.0
H1085 H 0.37488 0.183 0.32076 0.0
H1086 H 0.39062 0.19844 0.26584 0.0
C1087 C 0.3454 0.15225 0.23908 0.0
loop_
_geom_bond_atom_site_label_1
_geom_bond_atom_site_label_2
_geom_bond_distance
_geom_bond_site_symmetry_2
_ccdc_geom_bond_type
O0 Cd1 2.223 . S
O0 C8 1.315 . S
Cd1 O0 2.223 . S
Cd1 O4 2.297 . S
Cd1 O5 2.439 . S
Cd1 O11 2.240 . S
Cd2 O3 2.240 . S
Cd2 O10 2.223 . S
Cd2 O12 2.297 . S
Cd2 O13 2.439 . S
O3 Cd2 2.240 . S
O3 C8 1.279 . S
O4 Cd1 2.297 . S
O4 C6 1.247 . S
O5 Cd1 2.439 . S
O5 C6 1.208 . S
C6 O4 1.247 . S
C6 O5 1.208 . S
C7 O12 1.247 . S
C7 O13 1.208 . S
C8 O0 1.315 . S
C8 O3 1.279 . S
C9 O10 1.315 . S
C9 O11 1.279 . S
O10 Cd2 2.223 . S
O10 C9 1.315 . S
O11 Cd1 2.240 . S
O11 C9 1.279 . S
O12 Cd2 2.297 . S
O12 C7 1.247 . S
O13 Cd2 2.439 . S
O13 C7 1.208 . S
O14 Cd15 2.223 . S
O14 C22 1.315 . S
Cd15 O14 2.223 . S
Cd15 O18 2.297 . S
Cd15 O19 2.439 . S
Cd15 O25 2.240 . S
Cd16 O17 2.240 . S
Cd16 O24 2.223 . S
Cd16 O26 2.297 . S
Cd16 O27 2.439 . S
O17 Cd16 2.240 . S
O17 C22 1.279 . S
O18 Cd15 2.297 . S
O18 C20 1.247 . S
O19 Cd15 2.439 . S
O19 C20 1.208 . S
C20 O18 1.247 . S
C20 O19 1.208 . S
C21 O26 1.247 . S
C21 O27 1.208 . S
C22 O14 1.315 . S
C22 O17 1.279 . S
C23 O24 1.315 . S
C23 O25 1.279 . S
O24 Cd16 2.223 . S
O24 C23 1.315 . S
O25 Cd15 2.240 . S
O25 C23 1.279 . S
O26 Cd16 2.297 . S
O26 C21 1.247 . S
O27 Cd16 2.439 . S
O27 C21 1.208 . S
O28 Cd29 2.223 . S
O28 C36 1.315 . S
Cd29 O28 2.223 . S
Cd29 O32 2.297 . S
Cd29 O33 2.439 . S
Cd29 O39 2.240 . S
Cd30 O31 2.240 . S
Cd30 O38 2.223 . S
Cd30 O40 2.297 . S
Cd30 O41 2.439 . S
O31 Cd30 2.240 . S
O31 C36 1.279 . S
O32 Cd29 2.297 . S
O32 C34 1.247 . S
O33 Cd29 2.439 . S
O33 C34 1.208 . S
C34 O32 1.247 . S
C34 O33 1.208 . S
C35 O40 1.247 . S
C35 O41 1.208 . S
C36 O28 1.315 . S
C36 O31 1.279 . S
C37 O38 1.315 . S
C37 O39 1.279 . S
O38 Cd30 2.223 . S
O38 C37 1.315 . S
O39 Cd29 2.240 . S
O39 C37 1.279 . S
O40 Cd30 2.297 . S
O40 C35 1.247 . S
O41 Cd30 2.439 . S
O41 C35 1.208 . S
O42 Cd43 2.223 . S
O42 C50 1.315 . S
Cd43 O42 2.223 . S
Cd43 O46 2.297 . S
Cd43 O47 2.439 . S
Cd43 O53 2.240 . S
Cd44 O45 2.240 . S
Cd44 O52 2.223 . S
Cd44 O54 2.297 . S
Cd44 O55 2.439 . S
O45 Cd44 2.240 . S
O45 C50 1.279 . S
O46 Cd43 2.297 . S
O46 C48 1.247 . S
O47 Cd43 2.439 . S
O47 C48 1.208 . S
C48 O46 1.247 . S
C48 O47 1.208 . S
C49 O54 1.247 . S
C49 O55 1.208 . S
C50 O42 1.315 . S
C50 O45 1.279 . S
C51 O52 1.315 . S
C51 O53 1.279 . S
O52 Cd44 2.223 . S
O52 C51 1.315 . S
O53 Cd43 2.240 . S
O53 C51 1.279 . S
O54 Cd44 2.297 . S
O54 C49 1.247 . S
O55 Cd44 2.439 . S
O55 C49 1.208 . S
O56 Cd57 2.223 . S
O56 C64 1.315 . S
Cd57 O56 2.223 . S
Cd57 O60 2.297 . S
Cd57 O61 2.439 . S
Cd57 O67 2.240 . S
Cd58 O59 2.240 . S
Cd58 O66 2.223 . S
Cd58 O68 2.297 . S
Cd58 O69 2.439 . S
O59 Cd58 2.240 . S
O59 C64 1.279 . S
O60 Cd57 2.297 . S
O60 C62 1.247 . S
O61 Cd57 2.439 . S
O61 C62 1.208 . S
C62 O60 1.247 . S
C62 O61 1.208 . S
C63 O68 1.247 . S
C63 O69 1.208 . S
C64 O56 1.315 . S
C64 O59 1.279 . S
C65 O66 1.315 . S
C65 O67 1.279 . S
O66 Cd58 2.223 . S
O66 C65 1.315 . S
O67 Cd57 2.240 . S
O67 C65 1.279 . S
O68 Cd58 2.297 . S
O68 C63 1.247 . S
O69 Cd58 2.439 . S
O69 C63 1.208 . S
O70 Cd71 2.223 . S
O70 C78 1.315 . S
Cd71 O70 2.223 . S
Cd71 O74 2.297 . S
Cd71 O75 2.439 . S
Cd71 O81 2.240 . S
Cd72 O73 2.240 . S
Cd72 O80 2.223 . S
Cd72 O82 2.297 . S
Cd72 O83 2.439 . S
O73 Cd72 2.240 . S
O73 C78 1.279 . S
O74 Cd71 2.297 . S
O74 C76 1.247 . S
O75 Cd71 2.439 . S
O75 C76 1.208 . S
C76 O74 1.247 . S
C76 O75 1.208 . S
C77 O82 1.247 . S
C77 O83 1.208 . S
C78 O70 1.315 . S
C78 O73 1.279 . S
C79 O80 1.315 . S
C79 O81 1.279 . S
O80 Cd72 2.223 . S
O80 C79 1.315 . S
O81 Cd71 2.240 . S
O81 C79 1.279 . S
O82 Cd72 2.297 . S
O82 C77 1.247 . S
O83 Cd72 2.439 . S
O83 C77 1.208 . S
O84 Cd85 2.223 . S
O84 C92 1.315 . S
Cd85 O84 2.223 . S
Cd85 O88 2.297 . S
Cd85 O89 2.439 . S
Cd85 O95 2.240 . S
Cd86 O87 2.240 . S
Cd86 O94 2.223 . S
Cd86 O96 2.297 . S
Cd86 O97 2.439 . S
O87 Cd86 2.240 . S
O87 C92 1.279 . S
O88 Cd85 2.297 . S
O88 C90 1.247 . S
O89 Cd85 2.439 . S
O89 C90 1.208 . S
C90 O88 1.247 . S
C90 O89 1.208 . S
C91 O96 1.247 . S
C91 O97 1.208 . S
C92 O84 1.315 . S
C92 O87 1.279 . S
C93 O94 1.315 . S
C93 O95 1.279 . S
O94 Cd86 2.223 . S
O94 C93 1.315 . S
O95 Cd85 2.240 . S
O95 C93 1.279 . S
O96 Cd86 2.297 . S
O96 C91 1.247 . S
O97 Cd86 2.439 . S
O97 C91 1.208 . S
O98 Cd99 2.223 . S
O98 C106 1.315 . S
Cd99 O98 2.223 . S
Cd99 O102 2.297 . S
Cd99 O103 2.439 . S
Cd99 O109 2.240 . S
Cd100 O101 2.240 . S
Cd100 O108 2.223 . S
Cd100 O110 2.297 . S
Cd100 O111 2.439 . S
O101 Cd100 2.240 . S
O101 C106 1.279 . S
O102 Cd99 2.297 . S
O102 C104 1.247 . S
O103 Cd99 2.439 . S
O103 C104 1.208 . S
C104 O102 1.247 . S
C104 O103 1.208 . S
C105 O110 1.247 . S
C105 O111 1.208 . S
C106 O98 1.315 . S
C106 O101 1.279 . S
C107 O108 1.315 . S
C107 O109 1.279 . S
O108 Cd100 2.223 . S
O108 C107 1.315 . S
O109 Cd99 2.240 . S
O109 C107 1.279 . S
O110 Cd100 2.297 . S
O110 C105 1.247 . S
O111 Cd100 2.439 . S
O111 C105 1.208 . S
O112 Cd113 2.223 . S
O112 C120 1.315 . S
Cd113 O112 2.223 . S
Cd113 O116 2.297 . S
Cd113 O117 2.439 . S
Cd113 O123 2.240 . S
Cd114 O115 2.240 . S
Cd114 O122 2.223 . S
Cd114 O124 2.297 . S
Cd114 O125 2.439 . S
O115 Cd114 2.240 . S
O115 C120 1.279 . S
O116 Cd113 2.297 . S
O116 C118 1.247 . S
O117 Cd113 2.439 . S
O117 C118 1.208 . S
C118 O116 1.247 . S
C118 O117 1.208 . S
C119 O124 1.247 . S
C119 O125 1.208 . S
C120 O112 1.315 . S
C120 O115 1.279 . S
C121 O122 1.315 . S
C121 O123 1.279 . S
O122 Cd114 2.223 . S
O122 C121 1.315 . S
O123 Cd113 2.240 . S
O123 C121 1.279 . S
O124 Cd114 2.297 . S
O124 C119 1.247 . S
O125 Cd114 2.439 . S
O125 C119 1.208 . S
O126 Cd127 2.223 . S
O126 C134 1.315 . S
Cd127 O126 2.223 . S
Cd127 O130 2.297 . S
Cd127 O131 2.439 . S
Cd127 O137 2.240 . S
Cd128 O129 2.240 . S
Cd128 O136 2.223 . S
Cd128 O138 2.297 . S
Cd128 O139 2.439 . S
O129 Cd128 2.240 . S
O129 C134 1.279 . S
O130 Cd127 2.297 . S
O130 C132 1.247 . S
O131 Cd127 2.439 . S
O131 C132 1.208 . S
C132 O130 1.247 . S
C132 O131 1.208 . S
C133 O138 1.247 . S
C133 O139 1.208 . S
C134 O126 1.315 . S
C134 O129 1.279 . S
C135 O136 1.315 . S
C135 O137 1.279 . S
O136 Cd128 2.223 . S
O136 C135 1.315 . S
O137 Cd127 2.240 . S
O137 C135 1.279 . S
O138 Cd128 2.297 . S
O138 C133 1.247 . S
O139 Cd128 2.439 . S
O139 C133 1.208 . S
O140 Cd141 2.223 . S
O140 C148 1.315 . S
Cd141 O140 2.223 . S
Cd141 O144 2.297 . S
Cd141 O145 2.439 . S
Cd141 O151 2.240 . S
Cd142 O143 2.240 . S
Cd142 O150 2.223 . S
Cd142 O152 2.297 . S
Cd142 O153 2.439 . S
O143 Cd142 2.240 . S
O143 C148 1.279 . S
O144 Cd141 2.297 . S
O144 C146 1.247 . S
O145 Cd141 2.439 . S
O145 C146 1.208 . S
C146 O144 1.247 . S
C146 O145 1.208 . S
C147 O152 1.247 . S
C147 O153 1.208 . S
C148 O140 1.315 . S
C148 O143 1.279 . S
C149 O150 1.315 . S
C149 O151 1.279 . S
O150 Cd142 2.223 . S
O150 C149 1.315 . S
O151 Cd141 2.240 . S
O151 C149 1.279 . S
O152 Cd142 2.297 . S
O152 C147 1.247 . S
O153 Cd142 2.439 . S
O153 C147 1.208 . S
O154 Cd155 2.223 . S
O154 C162 1.315 . S
Cd155 O154 2.223 . S
Cd155 O158 2.297 . S
Cd155 O159 2.439 . S
Cd155 O165 2.240 . S
Cd156 O157 2.240 . S
Cd156 O164 2.223 . S
Cd156 O166 2.297 . S
Cd156 O167 2.439 . S
O157 Cd156 2.240 . S
O157 C162 1.279 . S
O158 Cd155 2.297 . S
O158 C160 1.247 . S
O159 Cd155 2.439 . S
O159 C160 1.208 . S
C160 O158 1.247 . S
C160 O159 1.208 . S
C161 O166 1.247 . S
C161 O167 1.208 . S
C162 O154 1.315 . S
C162 O157 1.279 . S
C163 O164 1.315 . S
C163 O165 1.279 . S
O164 Cd156 2.223 . S
O164 C163 1.315 . S
O165 Cd155 2.240 . S
O165 C163 1.279 . S
O166 Cd156 2.297 . S
O166 C161 1.247 . S
O167 Cd156 2.439 . S
O167 C161 1.208 . S
O168 Cd169 2.223 . S
O168 C176 1.315 . S
Cd169 O168 2.223 . S
Cd169 O172 2.297 . S
Cd169 O173 2.439 . S
Cd169 O179 2.240 . S
Cd170 O171 2.240 . S
Cd170 O178 2.223 . S
Cd170 O180 2.297 . S
Cd170 O181 2.439 . S
O171 Cd170 2.240 . S
O171 C176 1.279 . S
O172 Cd169 2.297 . S
O172 C174 1.247 . S
O173 Cd169 2.439 . S
O173 C174 1.208 . S
C174 O172 1.247 . S
C174 O173 1.208 . S
C175 O180 1.247 . S
C175 O181 1.208 . S
C176 O168 1.315 . S
C176 O171 1.279 . S
C177 O178 1.315 . S
C177 O179 1.279 . S
O178 Cd170 2.223 . S
O178 C177 1.315 . S
O179 Cd169 2.240 . S
O179 C177 1.279 . S
O180 Cd170 2.297 . S
O180 C175 1.247 . S
O181 Cd170 2.439 . S
O181 C175 1.208 . S
O182 Cd183 2.223 . S
O182 C190 1.315 . S
Cd183 O182 2.223 . S
Cd183 O186 2.297 . S
Cd183 O187 2.439 . S
Cd183 O193 2.240 . S
Cd184 O185 2.240 . S
Cd184 O192 2.223 . S
Cd184 O194 2.297 . S
Cd184 O195 2.439 . S
O185 Cd184 2.240 . S
O185 C190 1.279 . S
O186 Cd183 2.297 . S
O186 C188 1.247 . S
O187 Cd183 2.439 . S
O187 C188 1.208 . S
C188 O186 1.247 . S
C188 O187 1.208 . S
C189 O194 1.247 . S
C189 O195 1.208 . S
C190 O182 1.315 . S
C190 O185 1.279 . S
C191 O192 1.315 . S
C191 O193 1.279 . S
O192 Cd184 2.223 . S
O192 C191 1.315 . S
O193 Cd183 2.240 . S
O193 C191 1.279 . S
O194 Cd184 2.297 . S
O194 C189 1.247 . S
O195 Cd184 2.439 . S
O195 C189 1.208 . S
O196 Cd197 2.223 . S
O196 C204 1.315 . S
Cd197 O196 2.223 . S
Cd197 O200 2.297 . S
Cd197 O201 2.439 . S
Cd197 O207 2.240 . S
Cd198 O199 2.240 . S
Cd198 O206 2.223 . S
Cd198 O208 2.297 . S
Cd198 O209 2.439 . S
O199 Cd198 2.240 . S
O199 C204 1.279 . S
O200 Cd197 2.297 . S
O200 C202 1.247 . S
O201 Cd197 2.439 . S
O201 C202 1.208 . S
C202 O200 1.247 . S
C202 O201 1.208 . S
C203 O208 1.247 . S
C203 O209 1.208 . S
C204 O196 1.315 . S
C204 O199 1.279 . S
C205 O206 1.315 . S
C205 O207 1.279 . S
O206 Cd198 2.223 . S
O206 C205 1.315 . S
O207 Cd197 2.240 . S
O207 C205 1.279 . S
O208 Cd198 2.297 . S
O208 C203 1.247 . S
O209 Cd198 2.439 . S
O209 C203 1.208 . S
O210 Cd211 2.223 . S
O210 C218 1.315 . S
Cd211 O210 2.223 . S
Cd211 O214 2.297 . S
Cd211 O215 2.439 . S
Cd211 O221 2.240 . S
Cd212 O213 2.240 . S
Cd212 O220 2.223 . S
Cd212 O222 2.297 . S
Cd212 O223 2.439 . S
O213 Cd212 2.240 . S
O213 C218 1.279 . S
O214 Cd211 2.297 . S
O214 C216 1.247 . S
O215 Cd211 2.439 . S
O215 C216 1.208 . S
C216 O214 1.247 . S
C216 O215 1.208 . S
C217 O222 1.247 . S
C217 O223 1.208 . S
C218 O210 1.315 . S
C218 O213 1.279 . S
C219 O220 1.315 . S
C219 O221 1.279 . S
O220 Cd212 2.223 . S
O220 C219 1.315 . S
O221 Cd211 2.240 . S
O221 C219 1.279 . S
O222 Cd212 2.297 . S
O222 C217 1.247 . S
O223 Cd212 2.439 . S
O223 C217 1.208 . S
O224 Cd225 2.223 . S
O224 C232 1.315 . S
Cd225 O224 2.223 . S
Cd225 O228 2.297 . S
Cd225 O229 2.439 . S
Cd225 O235 2.240 . S
Cd226 O227 2.240 . S
Cd226 O234 2.223 . S
Cd226 O236 2.297 . S
Cd226 O237 2.439 . S
O227 Cd226 2.240 . S
O227 C232 1.279 . S
O228 Cd225 2.297 . S
O228 C230 1.247 . S
O229 Cd225 2.439 . S
O229 C230 1.208 . S
C230 O228 1.247 . S
C230 O229 1.208 . S
C231 O236 1.247 . S
C231 O237 1.208 . S
C232 O224 1.315 . S
C232 O227 1.279 . S
C233 O234 1.315 . S
C233 O235 1.279 . S
O234 Cd226 2.223 . S
O234 C233 1.315 . S
O235 Cd225 2.240 . S
O235 C233 1.279 . S
O236 Cd226 2.297 . S
O236 C231 1.247 . S
O237 Cd226 2.439 . S
O237 C231 1.208 . S
O238 Cd239 2.223 . S
O238 C246 1.315 . S
Cd239 O238 2.223 . S
Cd239 O242 2.297 . S
Cd239 O243 2.439 . S
Cd239 O249 2.240 . S
Cd240 O241 2.240 . S
Cd240 O248 2.223 . S
Cd240 O250 2.297 . S
Cd240 O251 2.439 . S
O241 Cd240 2.240 . S
O241 C246 1.279 . S
O242 Cd239 2.297 . S
O242 C244 1.247 . S
O243 Cd239 2.439 . S
O243 C244 1.208 . S
C244 O242 1.247 . S
C244 O243 1.208 . S
C245 O250 1.247 . S
C245 O251 1.208 . S
C246 O238 1.315 . S
C246 O241 1.279 . S
C247 O248 1.315 . S
C247 O249 1.279 . S
O248 Cd240 2.223 . S
O248 C247 1.315 . S
O249 Cd239 2.240 . S
O249 C247 1.279 . S
O250 Cd240 2.297 . S
O250 C245 1.247 . S
O251 Cd240 2.439 . S
O251 C245 1.208 . S
O252 Cd253 2.223 . S
O252 C260 1.315 . S
Cd253 O252 2.223 . S
Cd253 O256 2.297 . S
Cd253 O257 2.439 . S
Cd253 O263 2.240 . S
Cd254 O255 2.240 . S
Cd254 O262 2.223 . S
Cd254 O264 2.297 . S
Cd254 O265 2.439 . S
O255 Cd254 2.240 . S
O255 C260 1.279 . S
O256 Cd253 2.297 . S
O256 C258 1.247 . S
O257 Cd253 2.439 . S
O257 C258 1.208 . S
C258 O256 1.247 . S
C258 O257 1.208 . S
C259 O264 1.247 . S
C259 O265 1.208 . S
C260 O252 1.315 . S
C260 O255 1.279 . S
C261 O262 1.315 . S
C261 O263 1.279 . S
O262 Cd254 2.223 . S
O262 C261 1.315 . S
O263 Cd253 2.240 . S
O263 C261 1.279 . S
O264 Cd254 2.297 . S
O264 C259 1.247 . S
O265 Cd254 2.439 . S
O265 C259 1.208 . S
O266 Cd267 2.223 . S
O266 C274 1.315 . S
Cd267 O266 2.223 . S
Cd267 O270 2.297 . S
Cd267 O271 2.439 . S
Cd267 O277 2.240 . S
Cd268 O269 2.240 . S
Cd268 O276 2.223 . S
Cd268 O278 2.297 . S
Cd268 O279 2.439 . S
O269 Cd268 2.240 . S
O269 C274 1.279 . S
O270 Cd267 2.297 . S
O270 C272 1.247 . S
O271 Cd267 2.439 . S
O271 C272 1.208 . S
C272 O270 1.247 . S
C272 O271 1.208 . S
C273 O278 1.247 . S
C273 O279 1.208 . S
C274 O266 1.315 . S
C274 O269 1.279 . S
C275 O276 1.315 . S
C275 O277 1.279 . S
O276 Cd268 2.223 . S
O276 C275 1.315 . S
O277 Cd267 2.240 . S
O277 C275 1.279 . S
O278 Cd268 2.297 . S
O278 C273 1.247 . S
O279 Cd268 2.439 . S
O279 C273 1.208 . S
O280 Cd281 2.223 . S
O280 C288 1.315 . S
Cd281 O280 2.223 . S
Cd281 O284 2.297 . S
Cd281 O285 2.439 . S
Cd281 O291 2.240 . S
Cd282 O283 2.240 . S
Cd282 O290 2.223 . S
Cd282 O292 2.297 . S
Cd282 O293 2.439 . S
O283 Cd282 2.240 . S
O283 C288 1.279 . S
O284 Cd281 2.297 . S
O284 C286 1.247 . S
O285 Cd281 2.439 . S
O285 C286 1.208 . S
C286 O284 1.247 . S
C286 O285 1.208 . S
C287 O292 1.247 . S
C287 O293 1.208 . S
C288 O280 1.315 . S
C288 O283 1.279 . S
C289 O290 1.315 . S
C289 O291 1.279 . S
O290 Cd282 2.223 . S
O290 C289 1.315 . S
O291 Cd281 2.240 . S
O291 C289 1.279 . S
O292 Cd282 2.297 . S
O292 C287 1.247 . S
O293 Cd282 2.439 . S
O293 C287 1.208 . S
O294 Cd295 2.223 . S
O294 C302 1.315 . S
Cd295 O294 2.223 . S
Cd295 O298 2.297 . S
Cd295 O299 2.439 . S
Cd295 O305 2.240 . S
Cd296 O297 2.240 . S
Cd296 O304 2.223 . S
Cd296 O306 2.297 . S
Cd296 O307 2.439 . S
O297 Cd296 2.240 . S
O297 C302 1.279 . S
O298 Cd295 2.297 . S
O298 C300 1.247 . S
O299 Cd295 2.439 . S
O299 C300 1.208 . S
C300 O298 1.247 . S
C300 O299 1.208 . S
C301 O306 1.247 . S
C301 O307 1.208 . S
C302 O294 1.315 . S
C302 O297 1.279 . S
C303 O304 1.315 . S
C303 O305 1.279 . S
O304 Cd296 2.223 . S
O304 C303 1.315 . S
O305 Cd295 2.240 . S
O305 C303 1.279 . S
O306 Cd296 2.297 . S
O306 C301 1.247 . S
O307 Cd296 2.439 . S
O307 C301 1.208 . S
O308 Cd309 2.223 . S
O308 C316 1.315 . S
Cd309 O308 2.223 . S
Cd309 O312 2.297 . S
Cd309 O313 2.439 . S
Cd309 O319 2.240 . S
Cd310 O311 2.240 . S
Cd310 O318 2.223 . S
Cd310 O320 2.297 . S
Cd310 O321 2.439 . S
O311 Cd310 2.240 . S
O311 C316 1.279 . S
O312 Cd309 2.297 . S
O312 C314 1.247 . S
O313 Cd309 2.439 . S
O313 C314 1.208 . S
C314 O312 1.247 . S
C314 O313 1.208 . S
C315 O320 1.247 . S
C315 O321 1.208 . S
C316 O308 1.315 . S
C316 O311 1.279 . S
C317 O318 1.315 . S
C317 O319 1.279 . S
O318 Cd310 2.223 . S
O318 C317 1.315 . S
O319 Cd309 2.240 . S
O319 C317 1.279 . S
O320 Cd310 2.297 . S
O320 C315 1.247 . S
O321 Cd310 2.439 . S
O321 C315 1.208 . S
O322 Cd323 2.223 . S
O322 C330 1.315 . S
Cd323 O322 2.223 . S
Cd323 O326 2.297 . S
Cd323 O327 2.439 . S
Cd323 O333 2.240 . S
Cd324 O325 2.240 . S
Cd324 O332 2.223 . S
Cd324 O334 2.297 . S
Cd324 O335 2.439 . S
O325 Cd324 2.240 . S
O325 C330 1.279 . S
O326 Cd323 2.297 . S
O326 C328 1.247 . S
O327 Cd323 2.439 . S
O327 C328 1.208 . S
C328 O326 1.247 . S
C328 O327 1.208 . S
C329 O334 1.247 . S
C329 O335 1.208 . S
C330 O322 1.315 . S
C330 O325 1.279 . S
C331 O332 1.315 . S
C331 O333 1.279 . S
O332 Cd324 2.223 . S
O332 C331 1.315 . S
O333 Cd323 2.240 . S
O333 C331 1.279 . S
O334 Cd324 2.297 . S
O334 C329 1.247 . S
O335 Cd324 2.439 . S
O335 C329 1.208 . S
O336 Cd337 2.223 . S
O336 C344 1.315 . S
Cd337 O336 2.223 . S
Cd337 O340 2.297 . S
Cd337 O341 2.439 . S
Cd337 O347 2.240 . S
Cd338 O339 2.240 . S
Cd338 O346 2.223 . S
Cd338 O348 2.297 . S
Cd338 O349 2.439 . S
O339 Cd338 2.240 . S
O339 C344 1.279 . S
O340 Cd337 2.297 . S
O340 C342 1.247 . S
O341 Cd337 2.439 . S
O341 C342 1.208 . S
C342 O340 1.247 . S
C342 O341 1.208 . S
C343 O348 1.247 . S
C343 O349 1.208 . S
C344 O336 1.315 . S
C344 O339 1.279 . S
C345 O346 1.315 . S
C345 O347 1.279 . S
O346 Cd338 2.223 . S
O346 C345 1.315 . S
O347 Cd337 2.240 . S
O347 C345 1.279 . S
O348 Cd338 2.297 . S
O348 C343 1.247 . S
O349 Cd338 2.439 . S
O349 C343 1.208 . S
O350 Cd351 2.223 . S
O350 C358 1.315 . S
Cd351 O350 2.223 . S
Cd351 O354 2.297 . S
Cd351 O355 2.439 . S
Cd351 O361 2.240 . S
Cd352 O353 2.240 . S
Cd352 O360 2.223 . S
Cd352 O362 2.297 . S
Cd352 O363 2.439 . S
O353 Cd352 2.240 . S
O353 C358 1.279 . S
O354 Cd351 2.297 . S
O354 C356 1.247 . S
O355 Cd351 2.439 . S
O355 C356 1.208 . S
C356 O354 1.247 . S
C356 O355 1.208 . S
C357 O362 1.247 . S
C357 O363 1.208 . S
C358 O350 1.315 . S
C358 O353 1.279 . S
C359 O360 1.315 . S
C359 O361 1.279 . S
O360 Cd352 2.223 . S
O360 C359 1.315 . S
O361 Cd351 2.240 . S
O361 C359 1.279 . S
O362 Cd352 2.297 . S
O362 C357 1.247 . S
O363 Cd352 2.439 . S
O363 C357 1.208 . S
O364 Cd365 2.223 . S
O364 C372 1.315 . S
Cd365 O364 2.223 . S
Cd365 O368 2.297 . S
Cd365 O369 2.439 . S
Cd365 O375 2.240 . S
Cd366 O367 2.240 . S
Cd366 O374 2.223 . S
Cd366 O376 2.297 . S
Cd366 O377 2.439 . S
O367 Cd366 2.240 . S
O367 C372 1.279 . S
O368 Cd365 2.297 . S
O368 C370 1.247 . S
O369 Cd365 2.439 . S
O369 C370 1.208 . S
C370 O368 1.247 . S
C370 O369 1.208 . S
C371 O376 1.247 . S
C371 O377 1.208 . S
C372 O364 1.315 . S
C372 O367 1.279 . S
C373 O374 1.315 . S
C373 O375 1.279 . S
O374 Cd366 2.223 . S
O374 C373 1.315 . S
O375 Cd365 2.240 . S
O375 C373 1.279 . S
O376 Cd366 2.297 . S
O376 C371 1.247 . S
O377 Cd366 2.439 . S
O377 C371 1.208 . S
O378 Cd379 2.223 . S
O378 C386 1.315 . S
Cd379 O378 2.223 . S
Cd379 O382 2.297 . S
Cd379 O383 2.439 . S
Cd379 O389 2.240 . S
Cd380 O381 2.240 . S
Cd380 O388 2.223 . S
Cd380 O390 2.297 . S
Cd380 O391 2.439 . S
O381 Cd380 2.240 . S
O381 C386 1.279 . S
O382 Cd379 2.297 . S
O382 C384 1.247 . S
O383 Cd379 2.439 . S
O383 C384 1.208 . S
C384 O382 1.247 . S
C384 O383 1.208 . S
C385 O390 1.247 . S
C385 O391 1.208 . S
C386 O378 1.315 . S
C386 O381 1.279 . S
C387 O388 1.315 . S
C387 O389 1.279 . S
O388 Cd380 2.223 . S
O388 C387 1.315 . S
O389 Cd379 2.240 . S
O389 C387 1.279 . S
O390 Cd380 2.297 . S
O390 C385 1.247 . S
O391 Cd380 2.439 . S
O391 C385 1.208 . S
O392 Cd393 2.223 . S
O392 C400 1.315 . S
Cd393 O392 2.223 . S
Cd393 O396 2.297 . S
Cd393 O397 2.439 . S
Cd393 O403 2.240 . S
Cd394 O395 2.240 . S
Cd394 O402 2.223 . S
Cd394 O404 2.297 . S
Cd394 O405 2.439 . S
O395 Cd394 2.240 . S
O395 C400 1.279 . S
O396 Cd393 2.297 . S
O396 C398 1.247 . S
O397 Cd393 2.439 . S
O397 C398 1.208 . S
C398 O396 1.247 . S
C398 O397 1.208 . S
C399 O404 1.247 . S
C399 O405 1.208 . S
C400 O392 1.315 . S
C400 O395 1.279 . S
C401 O402 1.315 . S
C401 O403 1.279 . S
O402 Cd394 2.223 . S
O402 C401 1.315 . S
O403 Cd393 2.240 . S
O403 C401 1.279 . S
O404 Cd394 2.297 . S
O404 C399 1.247 . S
O405 Cd394 2.439 . S
O405 C399 1.208 . S
O406 Cd407 2.223 . S
O406 C414 1.315 . S
Cd407 O406 2.223 . S
Cd407 O410 2.297 . S
Cd407 O411 2.439 . S
Cd407 O417 2.240 . S
Cd408 O409 2.240 . S
Cd408 O416 2.223 . S
Cd408 O418 2.297 . S
Cd408 O419 2.439 . S
O409 Cd408 2.240 . S
O409 C414 1.279 . S
O410 Cd407 2.297 . S
O410 C412 1.247 . S
O411 Cd407 2.439 . S
O411 C412 1.208 . S
C412 O410 1.247 . S
C412 O411 1.208 . S
C413 O418 1.247 . S
C413 O419 1.208 . S
C414 O406 1.315 . S
C414 O409 1.279 . S
C415 O416 1.315 . S
C415 O417 1.279 . S
O416 Cd408 2.223 . S
O416 C415 1.315 . S
O417 Cd407 2.240 . S
O417 C415 1.279 . S
O418 Cd408 2.297 . S
O418 C413 1.247 . S
O419 Cd408 2.439 . S
O419 C413 1.208 . S
O420 Cd421 2.223 . S
O420 C428 1.315 . S
Cd421 O420 2.223 . S
Cd421 O424 2.297 . S
Cd421 O425 2.439 . S
Cd421 O431 2.240 . S
Cd422 O423 2.240 . S
Cd422 O430 2.223 . S
Cd422 O432 2.297 . S
Cd422 O433 2.439 . S
O423 Cd422 2.240 . S
O423 C428 1.279 . S
O424 Cd421 2.297 . S
O424 C426 1.247 . S
O425 Cd421 2.439 . S
O425 C426 1.208 . S
C426 O424 1.247 . S
C426 O425 1.208 . S
C427 O432 1.247 . S
C427 O433 1.208 . S
C428 O420 1.315 . S
C428 O423 1.279 . S
C429 O430 1.315 . S
C429 O431 1.279 . S
O430 Cd422 2.223 . S
O430 C429 1.315 . S
O431 Cd421 2.240 . S
O431 C429 1.279 . S
O432 Cd422 2.297 . S
O432 C427 1.247 . S
O433 Cd422 2.439 . S
O433 C427 1.208 . S
O434 Cd435 2.223 . S
O434 C442 1.315 . S
Cd435 O434 2.223 . S
Cd435 O438 2.297 . S
Cd435 O439 2.439 . S
Cd435 O445 2.240 . S
Cd436 O437 2.240 . S
Cd436 O444 2.223 . S
Cd436 O446 2.297 . S
Cd436 O447 2.439 . S
O437 Cd436 2.240 . S
O437 C442 1.279 . S
O438 Cd435 2.297 . S
O438 C440 1.247 . S
O439 Cd435 2.439 . S
O439 C440 1.208 . S
C440 O438 1.247 . S
C440 O439 1.208 . S
C441 O446 1.247 . S
C441 O447 1.208 . S
C442 O434 1.315 . S
C442 O437 1.279 . S
C443 O444 1.315 . S
C443 O445 1.279 . S
O444 Cd436 2.223 . S
O444 C443 1.315 . S
O445 Cd435 2.240 . S
O445 C443 1.279 . S
O446 Cd436 2.297 . S
O446 C441 1.247 . S
O447 Cd436 2.439 . S
O447 C441 1.208 . S
C448 C449 1.387 . S
C448 H452 0.950 . S
C448 C457 1.390 . S
C449 C448 1.387 . S
C449 C451 1.387 . S
H450 C457 0.950 . S
C451 C449 1.387 . S
C451 C453 1.390 . S
C451 H455 0.950 . S
H452 C448 0.950 . S
C453 C451 1.390 . S
C453 C454 1.387 . S
C453 H456 0.950 . S
C454 C453 1.387 . S
C454 C457 1.387 . S
H455 C451 0.950 . S
H456 C453 0.950 . S
C457 C448 1.390 . S
C457 H450 0.950 . S
C457 C454 1.387 . S
C458 C459 1.387 . S
C458 H462 0.950 . S
C458 C467 1.390 . S
C459 C458 1.387 . S
C459 C461 1.387 . S
H460 C467 0.950 . S
C461 C459 1.387 . S
C461 C463 1.390 . S
C461 H465 0.950 . S
H462 C458 0.950 . S
C463 C461 1.390 . S
C463 C464 1.387 . S
C463 H466 0.950 . S
C464 C463 1.387 . S
C464 C467 1.387 . S
H465 C461 0.950 . S
H466 C463 0.950 . S
C467 C458 1.390 . S
C467 H460 0.950 . S
C467 C464 1.387 . S
C468 C469 1.387 . S
C468 H472 0.950 . S
C468 C477 1.390 . S
C469 C468 1.387 . S
C469 C471 1.387 . S
H470 C477 0.950 . S
C471 C469 1.387 . S
C471 C473 1.390 . S
C471 H475 0.950 . S
H472 C468 0.950 . S
C473 C471 1.390 . S
C473 C474 1.387 . S
C473 H476 0.950 . S
C474 C473 1.387 . S
C474 C477 1.387 . S
H475 C471 0.950 . S
H476 C473 0.950 . S
C477 C468 1.390 . S
C477 H470 0.950 . S
C477 C474 1.387 . S
C478 C479 1.387 . S
C478 H482 0.950 . S
C478 C487 1.390 . S
C479 C478 1.387 . S
C479 C481 1.387 . S
H480 C487 0.950 . S
C481 C479 1.387 . S
C481 C483 1.390 . S
C481 H485 0.950 . S
H482 C478 0.950 . S
C483 C481 1.390 . S
C483 C484 1.387 . S
C483 H486 0.950 . S
C484 C483 1.387 . S
C484 C487 1.387 . S
H485 C481 0.950 . S
H486 C483 0.950 . S
C487 C478 1.390 . S
C487 H480 0.950 . S
C487 C484 1.387 . S
C488 C489 1.387 . S
C488 H492 0.950 . S
C488 C497 1.390 . S
C489 C488 1.387 . S
C489 C491 1.387 . S
H490 C497 0.950 . S
C491 C489 1.387 . S
C491 C493 1.390 . S
C491 H495 0.950 . S
H492 C488 0.950 . S
C493 C491 1.390 . S
C493 C494 1.387 . S
C493 H496 0.950 . S
C494 C493 1.387 . S
C494 C497 1.387 . S
H495 C491 0.950 . S
H496 C493 0.950 . S
C497 C488 1.390 . S
C497 H490 0.950 . S
C497 C494 1.387 . S
C498 C499 1.387 . S
C498 H502 0.950 . S
C498 C507 1.390 . S
C499 C498 1.387 . S
C499 C501 1.387 . S
H500 C507 0.950 . S
C501 C499 1.387 . S
C501 C503 1.390 . S
C501 H505 0.950 . S
H502 C498 0.950 . S
C503 C501 1.390 . S
C503 C504 1.387 . S
C503 H506 0.950 . S
C504 C503 1.387 . S
C504 C507 1.387 . S
H505 C501 0.950 . S
H506 C503 0.950 . S
C507 C498 1.390 . S
C507 H500 0.950 . S
C507 C504 1.387 . S
C508 C509 1.387 . S
C508 H512 0.950 . S
C508 C517 1.390 . S
C509 C508 1.387 . S
C509 C511 1.387 . S
H510 C517 0.950 . S
C511 C509 1.387 . S
C511 C513 1.390 . S
C511 H515 0.950 . S
H512 C508 0.950 . S
C513 C511 1.390 . S
C513 C514 1.387 . S
C513 H516 0.950 . S
C514 C513 1.387 . S
C514 C517 1.387 . S
H515 C511 0.950 . S
H516 C513 0.950 . S
C517 C508 1.390 . S
C517 H510 0.950 . S
C517 C514 1.387 . S
C518 C519 1.387 . S
C518 H522 0.950 . S
C518 C527 1.390 . S
C519 C518 1.387 . S
C519 C521 1.387 . S
H520 C527 0.950 . S
C521 C519 1.387 . S
C521 C523 1.390 . S
C521 H525 0.950 . S
H522 C518 0.950 . S
C523 C521 1.390 . S
C523 C524 1.387 . S
C523 H526 0.950 . S
C524 C523 1.387 . S
C524 C527 1.387 . S
H525 C521 0.950 . S
H526 C523 0.950 . S
C527 C518 1.390 . S
C527 H520 0.950 . S
C527 C524 1.387 . S
C528 C529 1.387 . S
C528 H532 0.950 . S
C528 C537 1.390 . S
C529 C528 1.387 . S
C529 C531 1.387 . S
H530 C537 0.950 . S
C531 C529 1.387 . S
C531 C533 1.390 . S
C531 H535 0.950 . S
H532 C528 0.950 . S
C533 C531 1.390 . S
C533 C534 1.387 . S
C533 H536 0.950 . S
C534 C533 1.387 . S
C534 C537 1.387 . S
H535 C531 0.950 . S
H536 C533 0.950 . S
C537 C528 1.390 . S
C537 H530 0.950 . S
C537 C534 1.387 . S
C538 C539 1.387 . S
C538 H542 0.950 . S
C538 C547 1.390 . S
C539 C538 1.387 . S
C539 C541 1.387 . S
H540 C547 0.950 . S
C541 C539 1.387 . S
C541 C543 1.390 . S
C541 H545 0.950 . S
H542 C538 0.950 . S
C543 C541 1.390 . S
C543 C544 1.387 . S
C543 H546 0.950 . S
C544 C543 1.387 . S
C544 C547 1.387 . S
H545 C541 0.950 . S
H546 C543 0.950 . S
C547 C538 1.390 . S
C547 H540 0.950 . S
C547 C544 1.387 . S
C548 C549 1.387 . S
C548 H552 0.950 . S
C548 C557 1.390 . S
C549 C548 1.387 . S
C549 C551 1.387 . S
H550 C557 0.950 . S
C551 C549 1.387 . S
C551 C553 1.390 . S
C551 H555 0.950 . S
H552 C548 0.950 . S
C553 C551 1.390 . S
C553 C554 1.387 . S
C553 H556 0.950 . S
C554 C553 1.387 . S
C554 C557 1.387 . S
H555 C551 0.950 . S
H556 C553 0.950 . S
C557 C548 1.390 . S
C557 H550 0.950 . S
C557 C554 1.387 . S
C558 C559 1.387 . S
C558 H562 0.950 . S
C558 C567 1.390 . S
C559 C558 1.387 . S
C559 C561 1.387 . S
H560 C567 0.950 . S
C561 C559 1.387 . S
C561 C563 1.390 . S
C561 H565 0.950 . S
H562 C558 0.950 . S
C563 C561 1.390 . S
C563 C564 1.387 . S
C563 H566 0.950 . S
C564 C563 1.387 . S
C564 C567 1.387 . S
H565 C561 0.950 . S
H566 C563 0.950 . S
C567 C558 1.390 . S
C567 H560 0.950 . S
C567 C564 1.387 . S
C568 C569 1.387 . S
C568 H572 0.950 . S
C568 C577 1.390 . S
C569 C568 1.387 . S
C569 C571 1.387 . S
H570 C577 0.950 . S
C571 C569 1.387 . S
C571 C573 1.390 . S
C571 H575 0.950 . S
H572 C568 0.950 . S
C573 C571 1.390 . S
C573 C574 1.387 . S
C573 H576 0.950 . S
C574 C573 1.387 . S
C574 C577 1.387 . S
H575 C571 0.950 . S
H576 C573 0.950 . S
C577 C568 1.390 . S
C577 H570 0.950 . S
C577 C574 1.387 . S
C578 C579 1.387 . S
C578 H582 0.950 . S
C578 C587 1.390 . S
C579 C578 1.387 . S
C579 C581 1.387 . S
H580 C587 0.950 . S
C581 C579 1.387 . S
C581 C583 1.390 . S
C581 H585 0.950 . S
H582 C578 0.950 . S
C583 C581 1.390 . S
C583 C584 1.387 . S
C583 H586 0.950 . S
C584 C583 1.387 . S
C584 C587 1.387 . S
H585 C581 0.950 . S
H586 C583 0.950 . S
C587 C578 1.390 . S
C587 H580 0.950 . S
C587 C584 1.387 . S
C588 C589 1.387 . S
C588 H592 0.950 . S
C588 C597 1.390 . S
C589 C588 1.387 . S
C589 C591 1.387 . S
H590 C597 0.950 . S
C591 C589 1.387 . S
C591 C593 1.390 . S
C591 H595 0.950 . S
H592 C588 0.950 . S
C593 C591 1.390 . S
C593 C594 1.387 . S
C593 H596 0.950 . S
C594 C593 1.387 . S
C594 C597 1.387 . S
H595 C591 0.950 . S
H596 C593 0.950 . S
C597 C588 1.390 . S
C597 H590 0.950 . S
C597 C594 1.387 . S
C598 C599 1.387 . S
C598 H602 0.950 . S
C598 C607 1.390 . S
C599 C598 1.387 . S
C599 C601 1.387 . S
H600 C607 0.950 . S
C601 C599 1.387 . S
C601 C603 1.390 . S
C601 H605 0.950 . S
H602 C598 0.950 . S
C603 C601 1.390 . S
C603 C604 1.387 . S
C603 H606 0.950 . S
C604 C603 1.387 . S
C604 C607 1.387 . S
H605 C601 0.950 . S
H606 C603 0.950 . S
C607 C598 1.390 . S
C607 H600 0.950 . S
C607 C604 1.387 . S
C608 C609 1.387 . S
C608 H612 0.950 . S
C608 C617 1.390 1_655 S
C609 C608 1.387 . S
C609 C611 1.387 . S
H610 C617 0.950 . S
C611 C609 1.387 . S
C611 C613 1.390 1_655 S
C611 H615 0.950 . S
H612 C608 0.950 . S
C613 C611 1.390 1_455 S
C613 C614 1.387 . S
C613 H616 0.950 . S
C614 C613 1.387 . S
C614 C617 1.387 . S
H615 C611 0.950 . S
H616 C613 0.950 . S
C617 C608 1.390 1_455 S
C617 H610 0.950 . S
C617 C614 1.387 . S
C618 C619 1.387 . S
C618 H622 0.950 . S
C618 C627 1.390 1_545 S
C619 C618 1.387 . S
C619 C621 1.387 . S
H620 C627 0.950 . S
C621 C619 1.387 . S
C621 C623 1.390 1_545 S
C621 H625 0.950 . S
H622 C618 0.950 . S
C623 C621 1.390 1_565 S
C623 C624 1.387 . S
C623 H626 0.950 . S
C624 C623 1.387 . S
C624 C627 1.387 . S
H625 C621 0.950 . S
H626 C623 0.950 . S
C627 C618 1.390 1_565 S
C627 H620 0.950 . S
C627 C624 1.387 . S
C628 C629 1.387 . S
C628 H632 0.950 . S
C628 C637 1.390 1_455 S
C629 C628 1.387 . S
C629 C631 1.387 . S
H630 C637 0.950 . S
C631 C629 1.387 . S
C631 C633 1.390 1_455 S
C631 H635 0.950 . S
H632 C628 0.950 . S
C633 C631 1.390 1_655 S
C633 C634 1.387 . S
C633 H636 0.950 . S
C634 C633 1.387 . S
C634 C637 1.387 . S
H635 C631 0.950 . S
H636 C633 0.950 . S
C637 C628 1.390 1_655 S
C637 H630 0.950 . S
C637 C634 1.387 . S
C638 C639 1.387 . S
C638 H642 0.950 . S
C638 C647 1.390 1_565 S
C639 C638 1.387 . S
C639 C641 1.387 . S
H640 C647 0.950 . S
C641 C639 1.387 . S
C641 C643 1.390 1_565 S
C641 H645 0.950 . S
H642 C638 0.950 . S
C643 C641 1.390 1_545 S
C643 C644 1.387 . S
C643 H646 0.950 . S
C644 C643 1.387 . S
C644 C647 1.387 . S
H645 C641 0.950 . S
H646 C643 0.950 . S
C647 C638 1.390 1_545 S
C647 H640 0.950 . S
C647 C644 1.387 . S
C648 C649 1.387 . S
C648 H652 0.950 . S
C648 C657 1.390 1_455 S
C649 C648 1.387 . S
C649 C651 1.387 . S
H650 C657 0.950 . S
C651 C649 1.387 . S
C651 C653 1.390 1_455 S
C651 H655 0.950 . S
H652 C648 0.950 . S
C653 C651 1.390 1_655 S
C653 C654 1.387 . S
C653 H656 0.950 . S
C654 C653 1.387 . S
C654 C657 1.387 . S
H655 C651 0.950 . S
H656 C653 0.950 . S
C657 C648 1.390 1_655 S
C657 H650 0.950 . S
C657 C654 1.387 . S
C658 C659 1.387 . S
C658 H662 0.950 . S
C658 C667 1.390 1_565 S
C659 C658 1.387 . S
C659 C661 1.387 . S
H660 C667 0.950 . S
C661 C659 1.387 . S
C661 C663 1.390 1_565 S
C661 H665 0.950 . S
H662 C658 0.950 . S
C663 C661 1.390 1_545 S
C663 C664 1.387 . S
C663 H666 0.950 . S
C664 C663 1.387 . S
C664 C667 1.387 . S
H665 C661 0.950 . S
H666 C663 0.950 . S
C667 C658 1.390 1_545 S
C667 H660 0.950 . S
C667 C664 1.387 . S
C668 C669 1.387 . S
C668 H672 0.950 . S
C668 C677 1.390 1_455 S
C669 C668 1.387 . S
C669 C671 1.387 . S
H670 C677 0.950 . S
C671 C669 1.387 . S
C671 C673 1.390 1_455 S
C671 H675 0.950 . S
H672 C668 0.950 . S
C673 C671 1.390 1_655 S
C673 C674 1.387 . S
C673 H676 0.950 . S
C674 C673 1.387 . S
C674 C677 1.387 . S
H675 C671 0.950 . S
H676 C673 0.950 . S
C677 C668 1.390 1_655 S
C677 H670 0.950 . S
C677 C674 1.387 . S
C678 C679 1.387 . S
C678 H682 0.950 . S
C678 C687 1.390 1_545 S
C679 C678 1.387 . S
C679 C681 1.387 . S
H680 C687 0.950 . S
C681 C679 1.387 . S
C681 C683 1.390 1_545 S
C681 H685 0.950 . S
H682 C678 0.950 . S
C683 C681 1.390 1_565 S
C683 C684 1.387 . S
C683 H686 0.950 . S
C684 C683 1.387 . S
C684 C687 1.387 . S
H685 C681 0.950 . S
H686 C683 0.950 . S
C687 C678 1.390 1_565 S
C687 H680 0.950 . S
C687 C684 1.387 . S
C688 C689 1.387 . S
C688 H692 0.950 . S
C688 C697 1.390 . S
C689 C688 1.387 . S
C689 C691 1.387 . S
H690 C697 0.950 . S
C691 C689 1.387 . S
C691 C693 1.390 . S
C691 H695 0.950 . S
H692 C688 0.950 . S
C693 C691 1.390 . S
C693 C694 1.387 . S
C693 H696 0.950 . S
C694 C693 1.387 . S
C694 C697 1.387 . S
H695 C691 0.950 . S
H696 C693 0.950 . S
C697 C688 1.390 . S
C697 H690 0.950 . S
C697 C694 1.387 . S
C698 C699 1.387 . S
C698 H702 0.950 . S
C698 C707 1.390 . S
C699 C698 1.387 . S
C699 C701 1.387 . S
H700 C707 0.950 . S
C701 C699 1.387 . S
C701 C703 1.390 . S
C701 H705 0.950 . S
H702 C698 0.950 . S
C703 C701 1.390 . S
C703 C704 1.387 . S
C703 H706 0.950 . S
C704 C703 1.387 . S
C704 C707 1.387 . S
H705 C701 0.950 . S
H706 C703 0.950 . S
C707 C698 1.390 . S
C707 H700 0.950 . S
C707 C704 1.387 . S
C708 C709 1.387 . S
C708 H712 0.950 . S
C708 C717 1.390 . S
C709 C708 1.387 . S
C709 C711 1.387 . S
H710 C717 0.950 . S
C711 C709 1.387 . S
C711 C713 1.390 . S
C711 H715 0.950 . S
H712 C708 0.950 . S
C713 C711 1.390 . S
C713 C714 1.387 . S
C713 H716 0.950 . S
C714 C713 1.387 . S
C714 C717 1.387 . S
H715 C711 0.950 . S
H716 C713 0.950 . S
C717 C708 1.390 . S
C717 H710 0.950 . S
C717 C714 1.387 . S
C718 C719 1.387 . S
C718 H722 0.950 . S
C718 C727 1.390 . S
C719 C718 1.387 . S
C719 C721 1.387 . S
H720 C727 0.950 . S
C721 C719 1.387 . S
C721 C723 1.390 . S
C721 H725 0.950 . S
H722 C718 0.950 . S
C723 C721 1.390 . S
C723 C724 1.387 . S
C723 H726 0.950 . S
C724 C723 1.387 . S
C724 C727 1.387 . S
H725 C721 0.950 . S
H726 C723 0.950 . S
C727 C718 1.390 . S
C727 H720 0.950 . S
C727 C724 1.387 . S
C728 C729 1.387 . S
C728 H732 0.950 . S
C728 C737 1.390 . S
C729 C728 1.387 . S
C729 C731 1.387 . S
H730 C737 0.950 . S
C731 C729 1.387 . S
C731 C733 1.390 . S
C731 H735 0.950 . S
H732 C728 0.950 . S
C733 C731 1.390 . S
C733 C734 1.387 . S
C733 H736 0.950 . S
C734 C733 1.387 . S
C734 C737 1.387 . S
H735 C731 0.950 . S
H736 C733 0.950 . S
C737 C728 1.390 . S
C737 H730 0.950 . S
C737 C734 1.387 . S
C738 C739 1.387 . S
C738 H742 0.950 . S
C738 C747 1.390 . S
C739 C738 1.387 . S
C739 C741 1.387 . S
H740 C747 0.950 . S
C741 C739 1.387 . S
C741 C743 1.390 . S
C741 H745 0.950 . S
H742 C738 0.950 . S
C743 C741 1.390 . S
C743 C744 1.387 . S
C743 H746 0.950 . S
C744 C743 1.387 . S
C744 C747 1.387 . S
H745 C741 0.950 . S
H746 C743 0.950 . S
C747 C738 1.390 . S
C747 H740 0.950 . S
C747 C744 1.387 . S
C748 C749 1.387 . S
C748 H752 0.950 . S
C748 C757 1.390 . S
C749 C748 1.387 . S
C749 C751 1.387 . S
H750 C757 0.950 . S
C751 C749 1.387 . S
C751 C753 1.390 . S
C751 H755 0.950 . S
H752 C748 0.950 . S
C753 C751 1.390 . S
C753 C754 1.387 . S
C753 H756 0.950 . S
C754 C753 1.387 . S
C754 C757 1.387 . S
H755 C751 0.950 . S
H756 C753 0.950 . S
C757 C748 1.390 . S
C757 H750 0.950 . S
C757 C754 1.387 . S
C758 C759 1.387 . S
C758 H762 0.950 . S
C758 C767 1.390 . S
C759 C758 1.387 . S
C759 C761 1.387 . S
H760 C767 0.950 . S
C761 C759 1.387 . S
C761 C763 1.390 . S
C761 H765 0.950 . S
H762 C758 0.950 . S
C763 C761 1.390 . S
C763 C764 1.387 . S
C763 H766 0.950 . S
C764 C763 1.387 . S
C764 C767 1.387 . S
H765 C761 0.950 . S
H766 C763 0.950 . S
C767 C758 1.390 . S
C767 H760 0.950 . S
C767 C764 1.387 . S
C768 C769 1.387 . S
C768 H772 0.950 . S
C768 C777 1.390 . S
C769 C768 1.387 . S
C769 C771 1.387 . S
H770 C777 0.950 . S
C771 C769 1.387 . S
C771 C773 1.390 . S
C771 H775 0.950 . S
H772 C768 0.950 . S
C773 C771 1.390 . S
C773 C774 1.387 . S
C773 H776 0.950 . S
C774 C773 1.387 . S
C774 C777 1.387 . S
H775 C771 0.950 . S
H776 C773 0.950 . S
C777 C768 1.390 . S
C777 H770 0.950 . S
C777 C774 1.387 . S
C778 C779 1.387 . S
C778 H782 0.950 . S
C778 C787 1.390 . S
C779 C778 1.387 . S
C779 C781 1.387 . S
H780 C787 0.950 . S
C781 C779 1.387 . S
C781 C783 1.390 . S
C781 H785 0.950 . S
H782 C778 0.950 . S
C783 C781 1.390 . S
C783 C784 1.387 . S
C783 H786 0.950 . S
C784 C783 1.387 . S
C784 C787 1.387 . S
H785 C781 0.950 . S
H786 C783 0.950 . S
C787 C778 1.390 . S
C787 H780 0.950 . S
C787 C784 1.387 . S
C788 C789 1.387 . S
C788 H792 0.950 . S
C788 C797 1.390 . S
C789 C788 1.387 . S
C789 C791 1.387 . S
H790 C797 0.950 . S
C791 C789 1.387 . S
C791 C793 1.390 . S
C791 H795 0.950 . S
H792 C788 0.950 . S
C793 C791 1.390 . S
C793 C794 1.387 . S
C793 H796 0.950 . S
C794 C793 1.387 . S
C794 C797 1.387 . S
H795 C791 0.950 . S
H796 C793 0.950 . S
C797 C788 1.390 . S
C797 H790 0.950 . S
C797 C794 1.387 . S
C798 C799 1.387 . S
C798 H802 0.950 . S
C798 C807 1.390 . S
C799 C798 1.387 . S
C799 C801 1.387 . S
H800 C807 0.950 . S
C801 C799 1.387 . S
C801 C803 1.390 . S
C801 H805 0.950 . S
H802 C798 0.950 . S
C803 C801 1.390 . S
C803 C804 1.387 . S
C803 H806 0.950 . S
C804 C803 1.387 . S
C804 C807 1.387 . S
H805 C801 0.950 . S
H806 C803 0.950 . S
C807 C798 1.390 . S
C807 H800 0.950 . S
C807 C804 1.387 . S
C808 C809 1.387 . S
C808 H812 0.950 . S
C808 C817 1.390 . S
C809 C808 1.387 . S
C809 C811 1.387 . S
H810 C817 0.950 . S
C811 C809 1.387 . S
C811 C813 1.390 . S
C811 H815 0.950 . S
H812 C808 0.950 . S
C813 C811 1.390 . S
C813 C814 1.387 . S
C813 H816 0.950 . S
C814 C813 1.387 . S
C814 C817 1.387 . S
H815 C811 0.950 . S
H816 C813 0.950 . S
C817 C808 1.390 . S
C817 H810 0.950 . S
C817 C814 1.387 . S
C818 C819 1.387 . S
C818 H822 0.950 . S
C818 C827 1.390 . S
C819 C818 1.387 . S
C819 C821 1.387 . S
H820 C827 0.950 . S
C821 C819 1.387 . S
C821 C823 1.390 . S
C821 H825 0.950 . S
H822 C818 0.950 . S
C823 C821 1.390 . S
C823 C824 1.387 . S
C823 H826 0.950 . S
C824 C823 1.387 . S
C824 C827 1.387 . S
H825 C821 0.950 . S
H826 C823 0.950 . S
C827 C818 1.390 . S
C827 H820 0.950 . S
C827 C824 1.387 . S
C828 C829 1.387 . S
C828 H832 0.950 . S
C828 C837 1.390 . S
C829 C828 1.387 . S
C829 C831 1.387 . S
H830 C837 0.950 . S
C831 C829 1.387 . S
C831 C833 1.390 . S
C831 H835 0.950 . S
H832 C828 0.950 . S
C833 C831 1.390 . S
C833 C834 1.387 . S
C833 H836 0.950 . S
C834 C833 1.387 . S
C834 C837 1.387 . S
H835 C831 0.950 . S
H836 C833 0.950 . S
C837 C828 1.390 . S
C837 H830 0.950 . S
C837 C834 1.387 . S
C838 C839 1.387 . S
C838 H842 0.950 . S
C838 C847 1.390 . S
C839 C838 1.387 . S
C839 C841 1.387 . S
H840 C847 0.950 . S
C841 C839 1.387 . S
C841 C843 1.390 . S
C841 H845 0.950 . S
H842 C838 0.950 . S
C843 C841 1.390 . S
C843 C844 1.387 . S
C843 H846 0.950 . S
C844 C843 1.387 . S
C844 C847 1.387 . S
H845 C841 0.950 . S
H846 C843 0.950 . S
C847 C838 1.390 . S
C847 H840 0.950 . S
C847 C844 1.387 . S
C848 C849 1.387 . S
C848 H852 0.950 . S
C848 C857 1.390 1_554 S
C849 C848 1.387 . S
C849 C851 1.387 . S
H850 C857 0.950 . S
C851 C849 1.387 . S
C851 C853 1.390 1_554 S
C851 H855 0.950 . S
H852 C848 0.950 . S
C853 C851 1.390 1_556 S
C853 C854 1.387 . S
C853 H856 0.950 . S
C854 C853 1.387 . S
C854 C857 1.387 . S
H855 C851 0.950 . S
H856 C853 0.950 . S
C857 C848 1.390 1_556 S
C857 H850 0.950 . S
C857 C854 1.387 . S
C858 C859 1.387 . S
C858 H862 0.950 . S
C858 C867 1.390 1_556 S
C859 C858 1.387 . S
C859 C861 1.387 . S
H860 C867 0.950 . S
C861 C859 1.387 . S
C861 C863 1.390 1_556 S
C861 H865 0.950 . S
H862 C858 0.950 . S
C863 C861 1.390 1_554 S
C863 C864 1.387 . S
C863 H866 0.950 . S
C864 C863 1.387 . S
C864 C867 1.387 . S
H865 C861 0.950 . S
H866 C863 0.950 . S
C867 C858 1.390 1_554 S
C867 H860 0.950 . S
C867 C864 1.387 . S
C868 C869 1.387 . S
C868 H872 0.950 . S
C868 C877 1.390 1_554 S
C869 C868 1.387 . S
C869 C871 1.387 . S
H870 C877 0.950 . S
C871 C869 1.387 . S
C871 C873 1.390 1_554 S
C871 H875 0.950 . S
H872 C868 0.950 . S
C873 C871 1.390 1_556 S
C873 C874 1.387 . S
C873 H876 0.950 . S
C874 C873 1.387 . S
C874 C877 1.387 . S
H875 C871 0.950 . S
H876 C873 0.950 . S
C877 C868 1.390 1_556 S
C877 H870 0.950 . S
C877 C874 1.387 . S
C878 C879 1.387 . S
C878 H882 0.950 . S
C878 C887 1.390 1_554 S
C879 C878 1.387 . S
C879 C881 1.387 . S
H880 C887 0.950 . S
C881 C879 1.387 . S
C881 C883 1.390 1_554 S
C881 H885 0.950 . S
H882 C878 0.950 . S
C883 C881 1.390 1_556 S
C883 C884 1.387 . S
C883 H886 0.950 . S
C884 C883 1.387 . S
C884 C887 1.387 . S
H885 C881 0.950 . S
H886 C883 0.950 . S
C887 C878 1.390 1_556 S
C887 H880 0.950 . S
C887 C884 1.387 . S
C888 C889 1.387 . S
C888 H892 0.950 . S
C888 C897 1.390 1_554 S
C889 C888 1.387 . S
C889 C891 1.387 . S
H890 C897 0.950 . S
C891 C889 1.387 . S
C891 C893 1.390 1_554 S
C891 H895 0.950 . S
H892 C888 0.950 . S
C893 C891 1.390 1_556 S
C893 C894 1.387 . S
C893 H896 0.950 . S
C894 C893 1.387 . S
C894 C897 1.387 . S
H895 C891 0.950 . S
H896 C893 0.950 . S
C897 C888 1.390 1_556 S
C897 H890 0.950 . S
C897 C894 1.387 . S
C898 C899 1.387 . S
C898 H902 0.950 . S
C898 C907 1.390 1_554 S
C899 C898 1.387 . S
C899 C901 1.387 . S
H900 C907 0.950 . S
C901 C899 1.387 . S
C901 C903 1.390 1_554 S
C901 H905 0.950 . S
H902 C898 0.950 . S
C903 C901 1.390 1_556 S
C903 C904 1.387 . S
C903 H906 0.950 . S
C904 C903 1.387 . S
C904 C907 1.387 . S
H905 C901 0.950 . S
H906 C903 0.950 . S
C907 C898 1.390 1_556 S
C907 H900 0.950 . S
C907 C904 1.387 . S
C908 C909 1.387 . S
C908 H912 0.950 . S
C908 C917 1.390 1_556 S
C909 C908 1.387 . S
C909 C911 1.387 . S
H910 C917 0.950 . S
C911 C909 1.387 . S
C911 C913 1.390 1_556 S
C911 H915 0.950 . S
H912 C908 0.950 . S
C913 C911 1.390 1_554 S
C913 C914 1.387 . S
C913 H916 0.950 . S
C914 C913 1.387 . S
C914 C917 1.387 . S
H915 C911 0.950 . S
H916 C913 0.950 . S
C917 C908 1.390 1_554 S
C917 H910 0.950 . S
C917 C914 1.387 . S
C918 C919 1.387 . S
C918 H922 0.950 . S
C918 C927 1.390 1_556 S
C919 C918 1.387 . S
C919 C921 1.387 . S
H920 C927 0.950 . S
C921 C919 1.387 . S
C921 C923 1.390 1_556 S
C921 H925 0.950 . S
H922 C918 0.950 . S
C923 C921 1.390 1_554 S
C923 C924 1.387 . S
C923 H926 0.950 . S
C924 C923 1.387 . S
C924 C927 1.387 . S
H925 C921 0.950 . S
H926 C923 0.950 . S
C927 C918 1.390 1_554 S
C927 H920 0.950 . S
C927 C924 1.387 . S
C928 C929 1.387 . S
C928 H932 0.950 . S
C928 C937 1.390 . S
C929 C928 1.387 . S
C929 C931 1.387 . S
H930 C937 0.950 . S
C931 C929 1.387 . S
C931 C933 1.390 . S
C931 H935 0.950 . S
H932 C928 0.950 . S
C933 C931 1.390 . S
C933 C934 1.387 . S
C933 H936 0.950 . S
C934 C933 1.387 . S
C934 C937 1.387 . S
H935 C931 0.950 . S
H936 C933 0.950 . S
C937 C928 1.390 . S
C937 H930 0.950 . S
C937 C934 1.387 . S
C938 C939 1.387 . S
C938 H942 0.950 . S
C938 C947 1.390 . S
C939 C938 1.387 . S
C939 C941 1.387 . S
H940 C947 0.950 . S
C941 C939 1.387 . S
C941 C943 1.390 . S
C941 H945 0.950 . S
H942 C938 0.950 . S
C943 C941 1.390 . S
C943 C944 1.387 . S
C943 H946 0.950 . S
C944 C943 1.387 . S
C944 C947 1.387 . S
H945 C941 0.950 . S
H946 C943 0.950 . S
C947 C938 1.390 . S
C947 H940 0.950 . S
C947 C944 1.387 . S
C948 C949 1.387 . S
C948 H952 0.950 . S
C948 C957 1.390 . S
C949 C948 1.387 . S
C949 C951 1.387 . S
H950 C957 0.950 . S
C951 C949 1.387 . S
C951 C953 1.390 . S
C951 H955 0.950 . S
H952 C948 0.950 . S
C953 C951 1.390 . S
C953 C954 1.387 . S
C953 H956 0.950 . S
C954 C953 1.387 . S
C954 C957 1.387 . S
H955 C951 0.950 . S
H956 C953 0.950 . S
C957 C948 1.390 . S
C957 H950 0.950 . S
C957 C954 1.387 . S
C958 C959 1.387 . S
C958 H962 0.950 . S
C958 C967 1.390 . S
C959 C958 1.387 . S
C959 C961 1.387 . S
H960 C967 0.950 . S
C961 C959 1.387 . S
C961 C963 1.390 . S
C961 H965 0.950 . S
H962 C958 0.950 . S
C963 C961 1.390 . S
C963 C964 1.387 . S
C963 H966 0.950 . S
C964 C963 1.387 . S
C964 C967 1.387 . S
H965 C961 0.950 . S
H966 C963 0.950 . S
C967 C958 1.390 . S
C967 H960 0.950 . S
C967 C964 1.387 . S
C968 C969 1.387 . S
C968 H972 0.950 . S
C968 C977 1.390 . S
C969 C968 1.387 . S
C969 C971 1.387 . S
H970 C977 0.950 . S
C971 C969 1.387 . S
C971 C973 1.390 . S
C971 H975 0.950 . S
H972 C968 0.950 . S
C973 C971 1.390 . S
C973 C974 1.387 . S
C973 H976 0.950 . S
C974 C973 1.387 . S
C974 C977 1.387 . S
H975 C971 0.950 . S
H976 C973 0.950 . S
C977 C968 1.390 . S
C977 H970 0.950 . S
C977 C974 1.387 . S
C978 C979 1.387 . S
C978 H982 0.950 . S
C978 C987 1.390 . S
C979 C978 1.387 . S
C979 C981 1.387 . S
H980 C987 0.950 . S
C981 C979 1.387 . S
C981 C983 1.390 . S
C981 H985 0.950 . S
H982 C978 0.950 . S
C983 C981 1.390 . S
C983 C984 1.387 . S
C983 H986 0.950 . S
C984 C983 1.387 . S
C984 C987 1.387 . S
H985 C981 0.950 . S
H986 C983 0.950 . S
C987 C978 1.390 . S
C987 H980 0.950 . S
C987 C984 1.387 . S
C988 C989 1.387 . S
C988 H992 0.950 . S
C988 C997 1.390 . S
C989 C988 1.387 . S
C989 C991 1.387 . S
H990 C997 0.950 . S
C991 C989 1.387 . S
C991 C993 1.390 . S
C991 H995 0.950 . S
H992 C988 0.950 . S
C993 C991 1.390 . S
C993 C994 1.387 . S
C993 H996 0.950 . S
C994 C993 1.387 . S
C994 C997 1.387 . S
H995 C991 0.950 . S
H996 C993 0.950 . S
C997 C988 1.390 . S
C997 H990 0.950 . S
C997 C994 1.387 . S
C998 C999 1.387 . S
C998 H1002 0.950 . S
C998 C1007 1.390 . S
C999 C998 1.387 . S
C999 C1001 1.387 . S
H1000 C1007 0.950 . S
C1001 C999 1.387 . S
C1001 C1003 1.390 . S
C1001 H1005 0.950 . S
H1002 C998 0.950 . S
C1003 C1001 1.390 . S
C1003 C1004 1.387 . S
C1003 H1006 0.950 . S
C1004 C1003 1.387 . S
C1004 C1007 1.387 . S
H1005 C1001 0.950 . S
H1006 C1003 0.950 . S
C1007 C998 1.390 . S
C1007 H1000 0.950 . S
C1007 C1004 1.387 . S
C1008 C1009 1.387 . S
C1008 H1012 0.950 . S
C1008 C1017 1.390 . S
C1009 C1008 1.387 . S
C1009 C1011 1.387 . S
H1010 C1017 0.950 . S
C1011 C1009 1.387 . S
C1011 C1013 1.390 . S
C1011 H1015 0.950 . S
H1012 C1008 0.950 . S
C1013 C1011 1.390 . S
C1013 C1014 1.387 . S
C1013 H1016 0.950 . S
C1014 C1013 1.387 . S
C1014 C1017 1.387 . S
H1015 C1011 0.950 . S
H1016 C1013 0.950 . S
C1017 C1008 1.390 . S
C1017 H1010 0.950 . S
C1017 C1014 1.387 . S
C1018 C1019 1.387 . S
C1018 H1022 0.950 . S
C1018 C1027 1.390 . S
C1019 C1018 1.387 . S
C1019 C1021 1.387 . S
H1020 C1027 0.950 . S
C1021 C1019 1.387 . S
C1021 C1023 1.390 . S
C1021 H1025 0.950 . S
H1022 C1018 0.950 . S
C1023 C1021 1.390 . S
C1023 C1024 1.387 . S
C1023 H1026 0.950 . S
C1024 C1023 1.387 . S
C1024 C1027 1.387 . S
H1025 C1021 0.950 . S
H1026 C1023 0.950 . S
C1027 C1018 1.390 . S
C1027 H1020 0.950 . S
C1027 C1024 1.387 . S
C1028 C1029 1.387 . S
C1028 H1032 0.950 . S
C1028 C1037 1.390 . S
C1029 C1028 1.387 . S
C1029 C1031 1.387 . S
H1030 C1037 0.950 . S
C1031 C1029 1.387 . S
C1031 C1033 1.390 . S
C1031 H1035 0.950 . S
H1032 C1028 0.950 . S
C1033 C1031 1.390 . S
C1033 C1034 1.387 . S
C1033 H1036 0.950 . S
C1034 C1033 1.387 . S
C1034 C1037 1.387 . S
H1035 C1031 0.950 . S
H1036 C1033 0.950 . S
C1037 C1028 1.390 . S
C1037 H1030 0.950 . S
C1037 C1034 1.387 . S
C1038 C1039 1.387 . S
C1038 H1042 0.950 . S
C1038 C1047 1.390 . S
C1039 C1038 1.387 . S
C1039 C1041 1.387 . S
H1040 C1047 0.950 . S
C1041 C1039 1.387 . S
C1041 C1043 1.390 . S
C1041 H1045 0.950 . S
H1042 C1038 0.950 . S
C1043 C1041 1.390 . S
C1043 C1044 1.387 . S
C1043 H1046 0.950 . S
C1044 C1043 1.387 . S
C1044 C1047 1.387 . S
H1045 C1041 0.950 . S
H1046 C1043 0.950 . S
C1047 C1038 1.390 . S
C1047 H1040 0.950 . S
C1047 C1044 1.387 . S
C1048 C1049 1.387 . S
C1048 H1052 0.950 . S
C1048 C1057 1.390 . S
C1049 C1048 1.387 . S
C1049 C1051 1.387 . S
H1050 C1057 0.950 . S
C1051 C1049 1.387 . S
C1051 C1053 1.390 . S
C1051 H1055 0.950 . S
H1052 C1048 0.950 . S
C1053 C1051 1.390 . S
C1053 C1054 1.387 . S
C1053 H1056 0.950 . S
C1054 C1053 1.387 . S
C1054 C1057 1.387 . S
H1055 C1051 0.950 . S
H1056 C1053 0.950 . S
C1057 C1048 1.390 . S
C1057 H1050 0.950 . S
C1057 C1054 1.387 . S
C1058 C1059 1.387 . S
C1058 H1062 0.950 . S
C1058 C1067 1.390 . S
C1059 C1058 1.387 . S
C1059 C1061 1.387 . S
H1060 C1067 0.950 . S
C1061 C1059 1.387 . S
C1061 C1063 1.390 . S
C1061 H1065 0.950 . S
H1062 C1058 0.950 . S
C1063 C1061 1.390 . S
C1063 C1064 1.387 . S
C1063 H1066 0.950 . S
C1064 C1063 1.387 . S
C1064 C1067 1.387 . S
H1065 C1061 0.950 . S
H1066 C1063 0.950 . S
C1067 C1058 1.390 . S
C1067 H1060 0.950 . S
C1067 C1064 1.387 . S
C1068 C1069 1.387 . S
C1068 H1072 0.950 . S
C1068 C1077 1.390 . S
C1069 C1068 1.387 . S
C1069 C1071 1.387 . S
H1070 C1077 0.950 . S
C1071 C1069 1.387 . S
C1071 C1073 1.390 . S
C1071 H1075 0.950 . S
H1072 C1068 0.950 . S
C1073 C1071 1.390 . S
C1073 C1074 1.387 . S
C1073 H1076 0.950 . S
C1074 C1073 1.387 . S
C1074 C1077 1.387 . S
H1075 C1071 0.950 . S
H1076 C1073 0.950 . S
C1077 C1068 1.390 . S
C1077 H1070 0.950 . S
C1077 C1074 1.387 . S
C1078 C1079 1.387 . S
C1078 H1082 0.950 . S
C1078 C1087 1.390 . S
C1079 C1078 1.387 . S
C1079 C1081 1.387 . S
H1080 C1087 0.950 . S
C1081 C1079 1.387 . S
C1081 C1083 1.390 . S
C1081 H1085 0.950 . S
H1082 C1078 0.950 . S
C1083 C1081 1.390 . S
C1083 C1084 1.387 . S
C1083 H1086 0.950 . S
C1084 C1083 1.387 . S
C1084 C1087 1.387 . S
H1085 C1081 0.950 . S
H1086 C1083 0.950 . S
C1087 C1078 1.390 . S
C1087 H1080 0.950 . S
C1087 C1084 1.387 . S
C449 C218 1.505 . S
C454 C8 1.507 . S
C459 C22 1.507 . S
C464 C176 1.505 . S
C469 C36 1.507 . S
C474 C190 1.505 . S
C479 C204 1.505 . S
C484 C50 1.507 . S
C489 C64 1.507 . S
C494 C134 1.505 . S
C499 C78 1.507 . S
C504 C148 1.505 . S
C509 C162 1.507 . S
C514 C92 1.505 . S
C519 C120 1.505 . S
C524 C106 1.507 . S
C529 C232 1.505 . S
C534 C442 1.507 . S
C539 C246 1.505 . S
C544 C400 1.507 . S
C549 C260 1.507 . S
C554 C414 1.505 . S
C559 C428 1.505 . S
C564 C274 1.507 . S
C569 C288 1.505 . S
C574 C358 1.507 . S
C579 C302 1.505 . S
C584 C372 1.507 . S
C589 C386 1.505 . S
C594 C316 1.507 . S
C599 C330 1.505 . S
C604 C344 1.507 . S
C609 C175 1.462 . S
C614 C7 1.464 . S
C619 C21 1.462 . S
C624 C189 1.464 . S
C629 C203 1.464 . S
C634 C35 1.462 . S
C639 C49 1.462 . S
C644 C217 1.464 . S
C649 C63 1.462 . S
C654 C119 1.464 . S
C659 C133 1.464 . S
C664 C77 1.462 . S
C669 C147 1.464 . S
C674 C91 1.462 . S
C679 C161 1.464 . S
C684 C105 1.462 . S
C689 C231 1.464 . S
C694 C399 1.462 . S
C699 C413 1.464 . S
C704 C245 1.462 . S
C709 C259 1.462 . S
C714 C427 1.464 . S
C719 C273 1.462 . S
C724 C441 1.464 . S
C729 C343 1.463 . S
C734 C287 1.462 . S
C739 C301 1.464 . S
C744 C357 1.462 . S
C749 C315 1.464 . S
C754 C371 1.462 . S
C759 C329 1.462 . S
C764 C385 1.464 . S
C769 C9 1.398 . S
C774 C149 1.400 . S
C779 C163 1.398 . S
C784 C23 1.399 . S
C789 C37 1.398 . S
C794 C121 1.400 . S
C799 C135 1.397 . S
C804 C51 1.400 . S
C809 C205 1.399 . S
C814 C65 1.398 . S
C819 C219 1.400 . S
C824 C79 1.397 . S
C829 C177 1.400 . S
C834 C93 1.398 . S
C839 C107 1.400 . S
C844 C191 1.398 . S
C849 C373 1.398 . S
C854 C233 1.399 . S
C859 C247 1.399 . S
C864 C387 1.398 . S
C869 C345 1.398 . S
C874 C261 1.400 . S
C879 C359 1.399 . S
C884 C275 1.399 . S
C889 C289 1.398 . S
C894 C429 1.400 . S
C899 C303 1.398 . S
C904 C443 1.399 . S
C909 C401 1.400 . S
C914 C317 1.398 . S
C919 C415 1.399 . S
C924 C331 1.398 . S
C929 C328 1.430 . S
C934 C6 1.431 . S
C939 C286 1.431 . S
C944 C20 1.430 . S
C949 C300 1.430 . S
C954 C34 1.429 . S
C959 C314 1.430 . S
C964 C48 1.429 . S
C969 C244 1.430 . S
C974 C62 1.429 . S
C979 C76 1.430 . S
C984 C258 1.429 . S
C989 C90 1.431 . S
C994 C272 1.431 . S
C999 C104 1.430 . S
C1004 C230 1.429 . S
C1009 C118 1.431 . S
C1014 C440 1.430 . S
C1019 C398 1.429 . S
C1024 C132 1.430 . S
C1029 C146 1.429 . S
C1034 C412 1.429 . S
C1039 C160 1.429 . S
C1044 C426 1.429 . S
C1049 C356 1.430 . S
C1054 C174 1.429 . S
C1059 C370 1.430 . S
C1064 C188 1.431 . S
C1069 C202 1.429 . S
C1074 C384 1.430 . S
C1079 C216 1.430 . S
C1084 C342 1.429 . S
