# Generated by pormake.
# Topology wjr, (5)-cn, num edge types: 1
# Building blocks:
#     Node 0, Type 0, BuildingBlock: BEQFEK_clean_sbu_0, # of connection points: 5
#     Node 1, Type 0, BuildingBlock: BEQFEK_clean_sbu_0, # of connection points: 5
#     Node 2, Type 0, BuildingBlock: BEQFEK_clean_sbu_0, # of connection points: 5
#     Node 3, Type 0, BuildingBlock: BEQFEK_clean_sbu_0, # of connection points: 5
#     Node 4, Type 0, BuildingBlock: BEQFEK_clean_sbu_0, # of connection points: 5
#     Node 5, Type 0, BuildingBlock: BEQFEK_clean_sbu_0, # of connection points: 5
#     Node 6, Type 0, BuildingBlock: BEQFEK_clean_sbu_0, # of connection points: 5
#     Node 7, Type 0, BuildingBlock: BEQFEK_clean_sbu_0, # of connection points: 5
#     Node 8, Type 0, BuildingBlock: BEQFEK_clean_sbu_0, # of connection points: 5
#     Node 9, Type 0, BuildingBlock: BEQFEK_clean_sbu_0, # of connection points: 5
#     Node 10, Type 0, BuildingBlock: BEQFEK_clean_sbu_0, # of connection points: 5
#     Node 11, Type 0, BuildingBlock: BEQFEK_clean_sbu_0, # of connection points: 5
#     Node 12, Type 0, BuildingBlock: BEQFEK_clean_sbu_0, # of connection points: 5
#     Node 13, Type 0, BuildingBlock: BEQFEK_clean_sbu_0, # of connection points: 5
#     Node 14, Type 0, BuildingBlock: BEQFEK_clean_sbu_0, # of connection points: 5
#     Node 15, Type 0, BuildingBlock: BEQFEK_clean_sbu_0, # of connection points: 5
#     Node 16, Type 0, BuildingBlock: BEQFEK_clean_sbu_0, # of connection points: 5
#     Node 17, Type 0, BuildingBlock: BEQFEK_clean_sbu_0, # of connection points: 5
#     Node 18, Type 0, BuildingBlock: BEQFEK_clean_sbu_0, # of connection points: 5
#     Node 19, Type 0, BuildingBlock: BEQFEK_clean_sbu_0, # of connection points: 5
#     Node 20, Type 0, BuildingBlock: BEQFEK_clean_sbu_0, # of connection points: 5
#     Node 21, Type 0, BuildingBlock: BEQFEK_clean_sbu_0, # of connection points: 5
#     Node 22, Type 0, BuildingBlock: BEQFEK_clean_sbu_0, # of connection points: 5
#     Node 23, Type 0, BuildingBlock: BEQFEK_clean_sbu_0, # of connection points: 5
#     Edge 24, Type (0, 0), BuildingBlock: UVAHIK_clean_linker_0, # of connection points: 2
#     Edge 25, Type (0, 0), BuildingBlock: UVAHIK_clean_linker_0, # of connection points: 2
#     Edge 26, Type (0, 0), BuildingBlock: UVAHIK_clean_linker_0, # of connection points: 2
#     Edge 27, Type (0, 0), BuildingBlock: UVAHIK_clean_linker_0, # of connection points: 2
#     Edge 28, Type (0, 0), BuildingBlock: UVAHIK_clean_linker_0, # of connection points: 2
#     Edge 29, Type (0, 0), BuildingBlock: UVAHIK_clean_linker_0, # of connection points: 2
#     Edge 30, Type (0, 0), BuildingBlock: UVAHIK_clean_linker_0, # of connection points: 2
#     Edge 31, Type (0, 0), BuildingBlock: UVAHIK_clean_linker_0, # of connection points: 2
#     Edge 32, Type (0, 0), BuildingBlock: UVAHIK_clean_linker_0, # of connection points: 2
#     Edge 33, Type (0, 0), BuildingBlock: UVAHIK_clean_linker_0, # of connection points: 2
#     Edge 34, Type (0, 0), BuildingBlock: UVAHIK_clean_linker_0, # of connection points: 2
#     Edge 35, Type (0, 0), BuildingBlock: UVAHIK_clean_linker_0, # of connection points: 2
#     Edge 36, Type (0, 0), BuildingBlock: UVAHIK_clean_linker_0, # of connection points: 2
#     Edge 37, Type (0, 0), BuildingBlock: UVAHIK_clean_linker_0, # of connection points: 2
#     Edge 38, Type (0, 0), BuildingBlock: UVAHIK_clean_linker_0, # of connection points: 2
#     Edge 39, Type (0, 0), BuildingBlock: UVAHIK_clean_linker_0, # of connection points: 2
#     Edge 40, Type (0, 0), BuildingBlock: UVAHIK_clean_linker_0, # of connection points: 2
#     Edge 41, Type (0, 0), BuildingBlock: UVAHIK_clean_linker_0, # of connection points: 2
#     Edge 42, Type (0, 0), BuildingBlock: UVAHIK_clean_linker_0, # of connection points: 2
#     Edge 43, Type (0, 0), BuildingBlock: UVAHIK_clean_linker_0, # of connection points: 2
#     Edge 44, Type (0, 0), BuildingBlock: UVAHIK_clean_linker_0, # of connection points: 2
#     Edge 45, Type (0, 0), BuildingBlock: UVAHIK_clean_linker_0, # of connection points: 2
#     Edge 46, Type (0, 0), BuildingBlock: UVAHIK_clean_linker_0, # of connection points: 2
#     Edge 47, Type (0, 0), BuildingBlock: UVAHIK_clean_linker_0, # of connection points: 2
#     Edge 48, Type (0, 0), BuildingBlock: UVAHIK_clean_linker_0, # of connection points: 2
#     Edge 49, Type (0, 0), BuildingBlock: UVAHIK_clean_linker_0, # of connection points: 2
#     Edge 50, Type (0, 0), BuildingBlock: UVAHIK_clean_linker_0, # of connection points: 2
#     Edge 51, Type (0, 0), BuildingBlock: UVAHIK_clean_linker_0, # of connection points: 2
#     Edge 52, Type (0, 0), BuildingBlock: UVAHIK_clean_linker_0, # of connection points: 2
#     Edge 53, Type (0, 0), BuildingBlock: UVAHIK_clean_linker_0, # of connection points: 2
#     Edge 54, Type (0, 0), BuildingBlock: UVAHIK_clean_linker_0, # of connection points: 2
#     Edge 55, Type (0, 0), BuildingBlock: UVAHIK_clean_linker_0, # of connection points: 2
#     Edge 56, Type (0, 0), BuildingBlock: UVAHIK_clean_linker_0, # of connection points: 2
#     Edge 57, Type (0, 0), BuildingBlock: UVAHIK_clean_linker_0, # of connection points: 2
#     Edge 58, Type (0, 0), BuildingBlock: UVAHIK_clean_linker_0, # of connection points: 2
#     Edge 59, Type (0, 0), BuildingBlock: UVAHIK_clean_linker_0, # of connection points: 2
#     Edge 60, Type (0, 0), BuildingBlock: UVAHIK_clean_linker_0, # of connection points: 2
#     Edge 61, Type (0, 0), BuildingBlock: UVAHIK_clean_linker_0, # of connection points: 2
#     Edge 62, Type (0, 0), BuildingBlock: UVAHIK_clean_linker_0, # of connection points: 2
#     Edge 63, Type (0, 0), BuildingBlock: UVAHIK_clean_linker_0, # of connection points: 2
#     Edge 64, Type (0, 0), BuildingBlock: UVAHIK_clean_linker_0, # of connection points: 2
#     Edge 65, Type (0, 0), BuildingBlock: UVAHIK_clean_linker_0, # of connection points: 2
#     Edge 66, Type (0, 0), BuildingBlock: UVAHIK_clean_linker_0, # of connection points: 2
#     Edge 67, Type (0, 0), BuildingBlock: UVAHIK_clean_linker_0, # of connection points: 2
#     Edge 68, Type (0, 0), BuildingBlock: UVAHIK_clean_linker_0, # of connection points: 2
#     Edge 69, Type (0, 0), BuildingBlock: UVAHIK_clean_linker_0, # of connection points: 2
#     Edge 70, Type (0, 0), BuildingBlock: UVAHIK_clean_linker_0, # of connection points: 2
#     Edge 71, Type (0, 0), BuildingBlock: UVAHIK_clean_linker_0, # of connection points: 2
#     Edge 72, Type (0, 0), BuildingBlock: UVAHIK_clean_linker_0, # of connection points: 2
#     Edge 73, Type (0, 0), BuildingBlock: UVAHIK_clean_linker_0, # of connection points: 2
#     Edge 74, Type (0, 0), BuildingBlock: UVAHIK_clean_linker_0, # of connection points: 2
#     Edge 75, Type (0, 0), BuildingBlock: UVAHIK_clean_linker_0, # of connection points: 2
#     Edge 76, Type (0, 0), BuildingBlock: UVAHIK_clean_linker_0, # of connection points: 2
#     Edge 77, Type (0, 0), BuildingBlock: UVAHIK_clean_linker_0, # of connection points: 2
#     Edge 78, Type (0, 0), BuildingBlock: UVAHIK_clean_linker_0, # of connection points: 2
#     Edge 79, Type (0, 0), BuildingBlock: UVAHIK_clean_linker_0, # of connection points: 2
#     Edge 80, Type (0, 0), BuildingBlock: UVAHIK_clean_linker_0, # of connection points: 2
#     Edge 81, Type (0, 0), BuildingBlock: UVAHIK_clean_linker_0, # of connection points: 2
#     Edge 82, Type (0, 0), BuildingBlock: UVAHIK_clean_linker_0, # of connection points: 2
#     Edge 83, Type (0, 0), BuildingBlock: UVAHIK_clean_linker_0, # of connection points: 2
# Relax obj value: 0.373
# Max RMSD: 0.173
# Mean RMSD: 0.173
data_MOF--net-wjr--node1-BEQFEK_clean_sbu_0--edge1-UVAHIK_clean_linker_0
_symmetry_space_group_name_H-M    P1
_symmetry_Int_Tables_number       1
_symmetry_cell_setting            triclinic
loop_
_symmetry_equiv_pos_as_xyz
'x, y, z'
_cell_length_a     86.369965
_cell_length_b     86.33595
_cell_length_c     62.323446
_cell_angle_alpha  89.997888
_cell_angle_beta   89.995004
_cell_angle_gamma 120.01221
loop_
_atom_site_label
_atom_site_type_symbol
_atom_site_fract_x
_atom_site_fract_y
_atom_site_fract_z
_atom_type_partial_charge
Co0 Co 0.46129 0.08161 0.14707 0.0
Co1 Co 0.45459 0.10951 0.17126 0.0
C2 C 0.48677 0.10694 0.18073 0.0
O3 O 0.48156 0.09415 0.16732 0.0
O4 O 0.47775 0.11473 0.18405 0.0
C5 C 0.48203 0.06957 0.12391 0.0
O6 O 0.49554 0.08516 0.12955 0.0
C7 C 0.45733 0.14264 0.18859 0.0
C8 C 0.42889 0.13539 0.18773 0.0
C9 C 0.44584 0.14914 0.19293 0.0
N10 N 0.44754 0.12585 0.18112 0.0
N11 N 0.43057 0.12158 0.18079 0.0
C12 C 0.47731 0.15255 0.1898 0.0
H13 H 0.48292 0.14735 0.17761 0.0
H14 H 0.48279 0.16709 0.18728 0.0
H15 H 0.48145 0.15047 0.2059 0.0
C16 C 0.45955 0.10145 0.1095 0.0
N17 N 0.45859 0.09839 0.13073 0.0
N18 N 0.45597 0.11031 0.14074 0.0
C19 C 0.4553 0.12147 0.12608 0.0
C20 C 0.4576 0.11622 0.10585 0.0
C21 C 0.4619 0.09013 0.09309 0.0
H22 H 0.45368 0.07581 0.09749 0.0
H23 H 0.47614 0.09363 0.0928 0.0
H24 H 0.458 0.0922 0.07685 0.0
O25 O 0.4392 0.06598 0.16298 0.0
O26 O 0.43564 0.08582 0.18171 0.0
H27 H 0.44032 0.13314 0.13823 0.0
H28 H 0.45587 0.14604 0.1172 0.0
C29 C 0.45378 0.13754 0.13148 0.0
H30 H 0.46387 0.14562 0.14378 0.0
H31 H 0.42015 0.10929 0.17551 0.0
O32 O 0.46625 0.06573 0.12899 0.0
C33 C 0.43074 0.06972 0.1768 0.0
Co34 Co 0.37817 0.46319 0.14534 0.0
Co35 Co 0.34303 0.45488 0.16963 0.0
C36 C 0.37747 0.48763 0.17946 0.0
O37 O 0.38551 0.48346 0.16547 0.0
O38 O 0.36079 0.47776 0.18301 0.0
C39 C 0.41027 0.48473 0.1215 0.0
O40 O 0.40677 0.49755 0.12591 0.0
C41 C 0.31357 0.45709 0.19035 0.0
C42 C 0.29243 0.42859 0.19017 0.0
C43 C 0.29622 0.44538 0.19699 0.0
N44 N 0.31972 0.44757 0.18004 0.0
N45 N 0.30698 0.4306 0.17983 0.0
C46 C 0.32489 0.47653 0.19562 0.0
H47 H 0.33216 0.484 0.18103 0.0
H48 H 0.3169 0.48225 0.20217 0.0
H49 H 0.33499 0.47818 0.20776 0.0
C50 C 0.35609 0.46114 0.10796 0.0
N51 N 0.35833 0.45992 0.12912 0.0
N52 N 0.34368 0.45681 0.13929 0.0
C53 C 0.3317 0.4561 0.12488 0.0
C54 C 0.33921 0.4588 0.10465 0.0
C55 C 0.37004 0.46497 0.09132 0.0
H56 H 0.37647 0.45684 0.09452 0.0
H57 H 0.38047 0.47929 0.09224 0.0
H58 H 0.36424 0.46208 0.07493 0.0
O59 O 0.37254 0.44134 0.16169 0.0
O60 O 0.34809 0.4361 0.17928 0.0
H61 H 0.30523 0.43984 0.13698 0.0
H62 H 0.30702 0.45525 0.1162 0.0
C63 C 0.31372 0.45351 0.13045 0.0
H64 H 0.31518 0.46323 0.14305 0.0
H65 H 0.30843 0.42031 0.17315 0.0
O66 O 0.39924 0.46883 0.12733 0.0
C67 C 0.36006 0.43213 0.17495 0.0
Co68 Co 0.91202 0.3788 0.1437 0.0
Co69 Co 0.88567 0.34494 0.1704 0.0
C70 C 0.88873 0.38008 0.17919 0.0
O71 O 0.90077 0.38723 0.16485 0.0
O72 O 0.88117 0.3634 0.18315 0.0
C73 C 0.92179 0.41086 0.12076 0.0
O74 O 0.90651 0.40822 0.12851 0.0
C75 C 0.85327 0.31642 0.19081 0.0
C76 C 0.86049 0.29536 0.19481 0.0
C77 C 0.84711 0.29934 0.19888 0.0
N78 N 0.86955 0.3222 0.1823 0.0
N79 N 0.87374 0.30952 0.18461 0.0
C80 C 0.84489 0.32788 0.19297 0.0
H81 H 0.8467 0.3354 0.17786 0.0
H82 H 0.83051 0.32002 0.19708 0.0
H83 H 0.85183 0.33776 0.20596 0.0
C84 C 0.89044 0.3556 0.10804 0.0
N85 N 0.89437 0.35863 0.12902 0.0
N86 N 0.88323 0.34434 0.14005 0.0
C87 C 0.87178 0.3317 0.12635 0.0
C88 C 0.87594 0.33847 0.10565 0.0
C89 C 0.90095 0.36864 0.09067 0.0
H90 H 0.89735 0.3793 0.09021 0.0
H91 H 0.89825 0.36206 0.07474 0.0
H92 H 0.91544 0.375 0.09422 0.0
O93 O 0.92863 0.37297 0.15854 0.0
O94 O 0.90993 0.35006 0.17886 0.0
H95 H 0.84817 0.30623 0.11928 0.0
H96 H 0.84842 0.31572 0.14518 0.0
C97 C 0.85673 0.31384 0.13307 0.0
H98 H 0.86227 0.306 0.14061 0.0
H99 H 0.8858 0.31069 0.1796 0.0
O100 O 0.92645 0.39925 0.12423 0.0
C101 C 0.92572 0.3612 0.1727 0.0
Co102 Co 0.53764 0.91639 0.14928 0.0
Co103 Co 0.54327 0.88712 0.17178 0.0
C104 C 0.51216 0.89112 0.18299 0.0
O105 O 0.51755 0.90413 0.16986 0.0
O106 O 0.52073 0.88279 0.18556 0.0
C107 C 0.51723 0.92833 0.12569 0.0
O108 O 0.50424 0.91186 0.12896 0.0
C109 C 0.53912 0.85381 0.19021 0.0
C110 C 0.56513 0.8563 0.18163 0.0
C111 C 0.54887 0.84508 0.19131 0.0
N112 N 0.54915 0.86951 0.18015 0.0
N113 N 0.56474 0.871 0.1753 0.0
C114 C 0.52019 0.84685 0.1971 0.0
H115 H 0.51265 0.84884 0.18401 0.0
H116 H 0.51352 0.83245 0.20135 0.0
H117 H 0.52005 0.85459 0.21124 0.0
C118 C 0.53803 0.89682 0.11059 0.0
N119 N 0.53923 0.89942 0.13194 0.0
N120 N 0.54105 0.88675 0.14129 0.0
C121 C 0.54067 0.87542 0.1261 0.0
C122 C 0.5388 0.88148 0.1062 0.0
C123 C 0.53682 0.90916 0.09469 0.0
H124 H 0.54493 0.9232 0.10019 0.0
H125 H 0.52268 0.90584 0.09331 0.0
H126 H 0.54157 0.90782 0.07862 0.0
O127 O 0.56019 0.931 0.16479 0.0
O128 O 0.56326 0.91031 0.18233 0.0
H129 H 0.55455 0.86147 0.13375 0.0
H130 H 0.53539 0.84909 0.1167 0.0
C131 C 0.54066 0.85839 0.13056 0.0
H132 H 0.53234 0.8517 0.14484 0.0
H133 H 0.57496 0.88189 0.1672 0.0
O134 O 0.53286 0.93295 0.13236 0.0
C135 C 0.56861 0.92661 0.1779 0.0
Co136 Co 0.62124 0.54098 0.15015 0.0
Co137 Co 0.6569 0.54702 0.17098 0.0
C138 C 0.62227 0.51512 0.18224 0.0
O139 O 0.61415 0.52052 0.16993 0.0
O140 O 0.63923 0.52393 0.18428 0.0
C141 C 0.58734 0.52086 0.12898 0.0
O142 O 0.58921 0.50711 0.13405 0.0
C143 C 0.687 0.54467 0.1899 0.0
C144 C 0.70899 0.57243 0.18494 0.0
C145 C 0.705 0.5562 0.19395 0.0
N146 N 0.68068 0.55374 0.17892 0.0
N147 N 0.69392 0.57025 0.17585 0.0
C148 C 0.67547 0.5261 0.19829 0.0
H149 H 0.66738 0.51718 0.18498 0.0
H150 H 0.68342 0.52077 0.20595 0.0
H151 H 0.66608 0.52624 0.21034 0.0
C152 C 0.64027 0.54118 0.1107 0.0
N153 N 0.63971 0.54324 0.13201 0.0
N154 N 0.65463 0.54555 0.14066 0.0
C155 C 0.66513 0.54493 0.12505 0.0
C156 C 0.65634 0.54215 0.10562 0.0
C157 C 0.62536 0.53758 0.09562 0.0
H158 H 0.61988 0.54643 0.09951 0.0
H159 H 0.61451 0.5235 0.09755 0.0
H160 H 0.62995 0.53975 0.07868 0.0
O161 O 0.62884 0.563 0.16689 0.0
O162 O 0.65323 0.56624 0.18277 0.0
H163 H 0.69274 0.55896 0.13367 0.0
H164 H 0.68698 0.54133 0.11435 0.0
C165 C 0.68238 0.54525 0.12893 0.0
H166 H 0.68071 0.53605 0.14228 0.0
H167 H 0.69251 0.58019 0.16812 0.0
O168 O 0.59973 0.53654 0.13374 0.0
C169 C 0.6419 0.57133 0.17971 0.0
Co170 Co 0.08038 0.61917 0.14993 0.0
Co171 Co 0.11068 0.65438 0.17096 0.0
C172 C 0.10541 0.61942 0.18453 0.0
O173 O 0.09208 0.61191 0.17186 0.0
O174 O 0.1148 0.6364 0.18584 0.0
C175 C 0.06686 0.58447 0.13186 0.0
O176 O 0.08141 0.58598 0.14054 0.0
C177 C 0.14321 0.68409 0.1902 0.0
C178 C 0.13843 0.7066 0.18413 0.0
C179 C 0.15013 0.70222 0.19386 0.0
N180 N 0.12808 0.67807 0.17877 0.0
N181 N 0.1254 0.69162 0.17503 0.0
C182 C 0.14959 0.67223 0.19929 0.0
H183 H 0.13976 0.66316 0.21132 0.0
H184 H 0.15029 0.6638 0.18631 0.0
H185 H 0.16283 0.67997 0.20714 0.0
C186 C 0.10079 0.63701 0.11095 0.0
N187 N 0.09785 0.63685 0.13213 0.0
N188 N 0.11072 0.65159 0.1408 0.0
C189 C 0.12233 0.66162 0.1253 0.0
C190 C 0.11641 0.65265 0.10596 0.0
C191 C 0.08889 0.62235 0.09587 0.0
H192 H 0.0747 0.61793 0.09945 0.0
H193 H 0.09095 0.61077 0.09823 0.0
H194 H 0.09178 0.62676 0.07889 0.0
O195 O 0.06606 0.62796 0.16461 0.0
O196 O 0.08768 0.65163 0.18119 0.0
H197 H 0.1362 0.68941 0.13308 0.0
H198 H 0.14823 0.68291 0.11493 0.0
C199 C 0.13937 0.67877 0.12921 0.0
H200 H 0.14646 0.67721 0.14315 0.0
H201 H 0.11435 0.69048 0.16682 0.0
O202 O 0.06385 0.59742 0.13332 0.0
C203 C 0.07116 0.64112 0.17738 0.0
Co204 Co 0.91824 0.53973 0.34533 0.0
Co205 Co 0.89028 0.5471 0.32241 0.0
C206 C 0.89252 0.51506 0.31134 0.0
O207 O 0.90546 0.52007 0.32446 0.0
O208 O 0.88467 0.5241 0.30874 0.0
C209 C 0.92832 0.51735 0.3677 0.0
O210 O 0.91184 0.50502 0.36308 0.0
C211 C 0.85707 0.54481 0.30625 0.0
C212 C 0.8647 0.57337 0.30703 0.0
C213 C 0.85073 0.55647 0.30206 0.0
N214 N 0.87399 0.55447 0.31336 0.0
N215 N 0.87848 0.57151 0.31369 0.0
C216 C 0.847 0.52483 0.30507 0.0
H217 H 0.85235 0.51914 0.31697 0.0
H218 H 0.83253 0.51947 0.30805 0.0
H219 H 0.84871 0.52062 0.28883 0.0
C220 C 0.89817 0.54006 0.38355 0.0
N221 N 0.90155 0.54209 0.36237 0.0
N222 N 0.8897 0.54511 0.35286 0.0
C223 C 0.87837 0.54507 0.3678 0.0
C224 C 0.88339 0.54183 0.38763 0.0
C225 C 0.90853 0.53592 0.39951 0.0
H226 H 0.92302 0.54389 0.39589 0.0
H227 H 0.90435 0.52153 0.39837 0.0
H228 H 0.90606 0.5388 0.41612 0.0
O229 O 0.93397 0.56222 0.33004 0.0
O230 O 0.91398 0.56606 0.31203 0.0
H231 H 0.86667 0.55996 0.35546 0.0
H232 H 0.85466 0.54566 0.37784 0.0
C233 C 0.86233 0.5468 0.36306 0.0
H234 H 0.85352 0.5362 0.35162 0.0
H235 H 0.89091 0.58185 0.31868 0.0
O236 O 0.93372 0.53349 0.36242 0.0
C237 C 0.93011 0.57088 0.31663 0.0
Co238 Co 0.37839 0.91632 0.34676 0.0
Co239 Co 0.34351 0.88704 0.32428 0.0
C240 C 0.37826 0.88955 0.31504 0.0
O241 O 0.38591 0.90293 0.32765 0.0
O242 O 0.3614 0.88145 0.31204 0.0
C243 C 0.41131 0.92918 0.36967 0.0
O244 O 0.40888 0.91323 0.36527 0.0
C245 C 0.31289 0.85329 0.3084 0.0
C246 C 0.29172 0.86057 0.30887 0.0
C247 C 0.29486 0.8467 0.30416 0.0
N248 N 0.31996 0.87025 0.31532 0.0
N249 N 0.30726 0.87452 0.31546 0.0
C250 C 0.32301 0.84342 0.30749 0.0
H251 H 0.3339 0.84886 0.31957 0.0
H252 H 0.31399 0.82891 0.31039 0.0
H253 H 0.32913 0.84523 0.29136 0.0
C254 C 0.35732 0.89819 0.3855 0.0
N255 N 0.35916 0.90025 0.36409 0.0
N256 N 0.34457 0.88775 0.35475 0.0
C257 C 0.33296 0.87725 0.36999 0.0
C258 C 0.34069 0.88353 0.38993 0.0
C259 C 0.37117 0.91024 0.40131 0.0
H260 H 0.37718 0.92435 0.396 0.0
H261 H 0.38194 0.9068 0.40203 0.0
H262 H 0.36539 0.90883 0.41757 0.0
O263 O 0.37166 0.93108 0.32927 0.0
O264 O 0.34787 0.9101 0.31223 0.0
H265 H 0.30604 0.86473 0.35863 0.0
H266 H 0.30943 0.85278 0.3802 0.0
C267 C 0.31542 0.8608 0.36548 0.0
H268 H 0.31736 0.85242 0.35354 0.0
H269 H 0.30919 0.88694 0.32027 0.0
O270 O 0.3995 0.93303 0.36399 0.0
C271 C 0.35912 0.92648 0.31569 0.0
Co272 Co 0.46506 0.38015 0.34592 0.0
Co273 Co 0.4586 0.34593 0.32092 0.0
C274 C 0.49175 0.3805 0.31395 0.0
O275 O 0.4862 0.38801 0.32702 0.0
O276 O 0.48258 0.36379 0.31002 0.0
C277 C 0.48519 0.41243 0.37038 0.0
O278 O 0.4989 0.41057 0.36507 0.0
C279 C 0.46059 0.31611 0.30046 0.0
C280 C 0.4319 0.2955 0.30002 0.0
C281 C 0.44867 0.29878 0.29385 0.0
N282 N 0.4512 0.3227 0.31015 0.0
N283 N 0.43411 0.31028 0.30993 0.0
C284 C 0.48019 0.32694 0.2959 0.0
H285 H 0.48257 0.33777 0.2845 0.0
H286 H 0.48747 0.33334 0.31095 0.0
H287 H 0.48552 0.31878 0.2888 0.0
C288 C 0.46065 0.35702 0.38298 0.0
N289 N 0.46094 0.3599 0.36176 0.0
N290 N 0.45832 0.3455 0.35139 0.0
C291 C 0.45636 0.33298 0.36577 0.0
C292 C 0.4578 0.3399 0.38623 0.0
C293 C 0.46275 0.37037 0.39972 0.0
H294 H 0.47703 0.38092 0.40068 0.0
H295 H 0.45826 0.36402 0.41571 0.0
H296 H 0.45489 0.37681 0.39513 0.0
O297 O 0.44393 0.37479 0.32849 0.0
O298 O 0.44081 0.35178 0.30927 0.0
H299 H 0.45622 0.30856 0.37417 0.0
H300 H 0.46428 0.31708 0.34753 0.0
C301 C 0.45435 0.31524 0.36001 0.0
H302 H 0.44079 0.30652 0.35333 0.0
H303 H 0.4239 0.31207 0.31618 0.0
O304 O 0.46958 0.40055 0.36463 0.0
C305 C 0.43605 0.36313 0.31392 0.0
Co306 Co 0.0792 0.45717 0.34428 0.0
Co307 Co 0.1094 0.45347 0.32108 0.0
C308 C 0.10723 0.48619 0.31554 0.0
O309 O 0.09347 0.47944 0.32761 0.0
O310 O 0.11542 0.47772 0.31117 0.0
C311 C 0.06568 0.47576 0.36894 0.0
O312 O 0.08187 0.48937 0.36604 0.0
C313 C 0.14366 0.45732 0.30588 0.0
C314 C 0.1365 0.42888 0.30551 0.0
C315 C 0.15045 0.44604 0.30177 0.0
N316 N 0.12647 0.44718 0.31187 0.0
N317 N 0.12227 0.43022 0.31144 0.0
C318 C 0.15354 0.47732 0.30573 0.0
H319 H 0.14786 0.48245 0.31792 0.0
H320 H 0.16798 0.48274 0.30892 0.0
H321 H 0.15201 0.48204 0.28972 0.0
C322 C 0.09632 0.4521 0.38248 0.0
N323 N 0.09459 0.45274 0.36112 0.0
N324 N 0.10773 0.45189 0.35155 0.0
C325 C 0.11843 0.45098 0.36666 0.0
C326 C 0.11143 0.45093 0.38664 0.0
C327 C 0.08463 0.45415 0.39859 0.0
H328 H 0.07041 0.44594 0.39375 0.0
H329 H 0.08806 0.46837 0.39906 0.0
H330 H 0.0865 0.45013 0.41487 0.0
O331 O 0.06517 0.43708 0.32463 0.0
O332 O 0.08675 0.43561 0.30716 0.0
H333 H 0.1329 0.43908 0.35365 0.0
H334 H 0.14306 0.45251 0.3772 0.0
C335 C 0.13569 0.45147 0.36219 0.0
H336 H 0.14415 0.46303 0.3517 0.0
H337 H 0.10973 0.41957 0.3156 0.0
O338 O 0.06189 0.46046 0.36182 0.0
C339 C 0.07026 0.4302 0.3102 0.0
Co340 Co 0.62094 0.08077 0.34366 0.0
Co341 Co 0.65559 0.11017 0.3209 0.0
C342 C 0.62034 0.10657 0.31124 0.0
O343 O 0.61285 0.09343 0.32418 0.0
O344 O 0.63718 0.11474 0.30821 0.0
C345 C 0.58903 0.06903 0.36787 0.0
O346 O 0.59284 0.08563 0.36484 0.0
C347 C 0.68441 0.14465 0.30478 0.0
C348 C 0.70719 0.13972 0.30447 0.0
C349 C 0.7025 0.15257 0.30006 0.0
N350 N 0.67872 0.12788 0.31161 0.0
N351 N 0.69237 0.125 0.3113 0.0
C352 C 0.67299 0.15317 0.30448 0.0
H353 H 0.66269 0.14735 0.31726 0.0
H354 H 0.6812 0.16785 0.30681 0.0
H355 H 0.66609 0.15049 0.28876 0.0
C356 C 0.64177 0.09982 0.38222 0.0
N357 N 0.63999 0.09742 0.36086 0.0
N358 N 0.65448 0.10998 0.35139 0.0
C359 C 0.66591 0.12089 0.36651 0.0
C360 C 0.65819 0.11482 0.3865 0.0
C361 C 0.62816 0.08773 0.39824 0.0
H362 H 0.62193 0.07364 0.3928 0.0
H363 H 0.61756 0.09135 0.39966 0.0
H364 H 0.63429 0.08899 0.41427 0.0
O365 O 0.62825 0.06621 0.32671 0.0
O366 O 0.65213 0.08714 0.30966 0.0
H367 H 0.69271 0.13369 0.35468 0.0
H368 H 0.68939 0.14551 0.37649 0.0
C369 C 0.6833 0.13747 0.36181 0.0
H370 H 0.6811 0.14577 0.35003 0.0
H371 H 0.69158 0.11303 0.31595 0.0
O372 O 0.59977 0.06417 0.36089 0.0
C373 C 0.641 0.07076 0.31342 0.0
Co374 Co 0.53795 0.62023 0.34615 0.0
Co375 Co 0.54368 0.65475 0.32229 0.0
C376 C 0.5127 0.61915 0.31192 0.0
O377 O 0.51766 0.61175 0.32587 0.0
O378 O 0.5216 0.63591 0.3084 0.0
C379 C 0.51781 0.58786 0.36985 0.0
O380 O 0.50456 0.59074 0.36564 0.0
C381 C 0.53864 0.68251 0.30148 0.0
C382 C 0.56422 0.70688 0.30921 0.0
C383 C 0.54801 0.70092 0.29895 0.0
N384 N 0.54887 0.67779 0.3128 0.0
N385 N 0.56419 0.6924 0.31723 0.0
C386 C 0.5199 0.66973 0.29452 0.0
H387 H 0.52022 0.66141 0.28114 0.0
H388 H 0.51241 0.66068 0.30801 0.0
H389 H 0.51287 0.67684 0.28917 0.0
C390 C 0.53681 0.64042 0.38372 0.0
N391 N 0.53922 0.63907 0.36265 0.0
N392 N 0.5411 0.65339 0.35273 0.0
C393 C 0.5397 0.66421 0.36729 0.0
C394 C 0.53699 0.65631 0.38729 0.0
C395 C 0.53387 0.62653 0.40009 0.0
H396 H 0.54253 0.62076 0.39656 0.0
H397 H 0.51971 0.61566 0.39943 0.0
H398 H 0.53674 0.63226 0.41652 0.0
O399 O 0.56053 0.62809 0.3305 0.0
O400 O 0.56402 0.65192 0.31274 0.0
H401 H 0.55317 0.69172 0.3582 0.0
H402 H 0.53434 0.68539 0.37569 0.0
C403 C 0.5394 0.68096 0.36201 0.0
H404 H 0.53083 0.67871 0.34778 0.0
H405 H 0.57453 0.69248 0.32596 0.0
O406 O 0.53351 0.59929 0.3638 0.0
C407 C 0.56921 0.64091 0.31746 0.0
Co408 Co 0.53777 0.918 0.84754 0.0
Co409 Co 0.54526 0.89045 0.82369 0.0
C410 C 0.51286 0.8928 0.8137 0.0
O411 O 0.51757 0.90535 0.82736 0.0
O412 O 0.52227 0.88542 0.81042 0.0
C413 C 0.51697 0.93011 0.87053 0.0
O414 O 0.50342 0.91461 0.86467 0.0
C415 C 0.54297 0.8586 0.80315 0.0
C416 C 0.57129 0.86546 0.8047 0.0
C417 C 0.55464 0.85271 0.7972 0.0
N418 N 0.55237 0.87416 0.81372 0.0
N419 N 0.56923 0.87808 0.81476 0.0
C420 C 0.52375 0.85078 0.79702 0.0
H421 H 0.51594 0.85087 0.81112 0.0
H422 H 0.51798 0.83699 0.79071 0.0
H423 H 0.52271 0.85928 0.78441 0.0
C424 C 0.53919 0.89796 0.88516 0.0
N425 N 0.54061 0.90128 0.86397 0.0
N426 N 0.54336 0.88941 0.85404 0.0
C427 C 0.54359 0.87801 0.86865 0.0
C428 C 0.54091 0.88304 0.88883 0.0
C429 C 0.53651 0.90911 0.90151 0.0
H430 H 0.54472 0.92347 0.89729 0.0
H431 H 0.52225 0.90551 0.90151 0.0
H432 H 0.54022 0.90696 0.91783 0.0
O433 O 0.55962 0.93373 0.83124 0.0
O434 O 0.56449 0.9142 0.81388 0.0
H435 H 0.55879 0.86616 0.85795 0.0
H436 H 0.54147 0.85264 0.87701 0.0
C437 C 0.54493 0.86185 0.86314 0.0
H438 H 0.53581 0.8546 0.84961 0.0
H439 H 0.57943 0.88966 0.82181 0.0
O440 O 0.53275 0.93386 0.86561 0.0
C441 C 0.56875 0.93025 0.81813 0.0
Co442 Co 0.61758 0.53551 0.84313 0.0
Co443 Co 0.6529 0.54276 0.82029 0.0
C444 C 0.61838 0.51065 0.80933 0.0
O445 O 0.61035 0.51562 0.8224 0.0
O446 O 0.63529 0.51973 0.80682 0.0
C447 C 0.58402 0.51464 0.86499 0.0
O448 O 0.58555 0.50098 0.85855 0.0
C449 C 0.68317 0.54141 0.80019 0.0
C450 C 0.70462 0.56954 0.8044 0.0
C451 C 0.701 0.55334 0.79562 0.0
N452 N 0.67661 0.55023 0.81124 0.0
N453 N 0.68952 0.56697 0.81381 0.0
C454 C 0.67196 0.52262 0.79235 0.0
H455 H 0.66459 0.51377 0.80605 0.0
H456 H 0.68003 0.51764 0.7842 0.0
H457 H 0.66192 0.52211 0.78084 0.0
C458 C 0.63776 0.53554 0.88126 0.0
N459 N 0.63657 0.53774 0.8601 0.0
N460 N 0.65144 0.54069 0.85067 0.0
C461 C 0.66258 0.54039 0.86563 0.0
C462 C 0.65421 0.53708 0.88543 0.0
C463 C 0.62323 0.5317 0.89708 0.0
H464 H 0.61762 0.54056 0.89393 0.0
H465 H 0.61235 0.51763 0.89511 0.0
H466 H 0.62824 0.53369 0.91383 0.0
O467 O 0.62451 0.55796 0.82773 0.0
O468 O 0.64836 0.5618 0.80981 0.0
H469 H 0.68985 0.55571 0.85584 0.0
H470 H 0.68564 0.53838 0.87506 0.0
C471 C 0.68021 0.54181 0.86084 0.0
H472 H 0.67869 0.53276 0.84736 0.0
H473 H 0.68787 0.57676 0.82156 0.0
O474 O 0.59643 0.53042 0.8607 0.0
C475 C 0.63705 0.56663 0.81438 0.0
Co476 Co 0.07971 0.61965 0.83877 0.0
Co477 Co 0.11036 0.65536 0.81921 0.0
C478 C 0.10776 0.62073 0.80855 0.0
O479 O 0.09378 0.61264 0.82014 0.0
O480 O 0.11609 0.63771 0.80654 0.0
C481 C 0.06485 0.58559 0.85979 0.0
O482 O 0.08053 0.58728 0.85556 0.0
C483 C 0.14495 0.68599 0.80547 0.0
C484 C 0.13909 0.70803 0.80909 0.0
C485 C 0.15239 0.70436 0.80321 0.0
N486 N 0.12802 0.67919 0.81238 0.0
N487 N 0.12461 0.69242 0.81441 0.0
C488 C 0.15399 0.6752 0.80262 0.0
H489 H 0.14868 0.66405 0.81436 0.0
H490 H 0.16868 0.68362 0.80468 0.0
H491 H 0.15116 0.66938 0.78624 0.0
C492 C 0.09707 0.63799 0.87904 0.0
N493 N 0.09522 0.63782 0.85762 0.0
N494 N 0.10831 0.65274 0.84955 0.0
C495 C 0.11899 0.66285 0.8657 0.0
C496 C 0.1122 0.6538 0.88483 0.0
C497 C 0.08508 0.62292 0.89358 0.0
H498 H 0.07093 0.61761 0.88888 0.0
H499 H 0.08827 0.61202 0.892 0.0
H500 H 0.08688 0.6273 0.91058 0.0
O501 O 0.06623 0.62765 0.82094 0.0
O502 O 0.08807 0.65205 0.80578 0.0
H503 H 0.13371 0.69033 0.85645 0.0
H504 H 0.14394 0.68458 0.87791 0.0
C505 C 0.13637 0.67985 0.86266 0.0
H506 H 0.1446 0.67772 0.85068 0.0
H507 H 0.1124 0.69079 0.81963 0.0
O508 O 0.06187 0.59808 0.85449 0.0
C509 C 0.07153 0.64079 0.8081 0.0
Co510 Co 0.46278 0.08376 0.84627 0.0
Co511 Co 0.45726 0.11292 0.82334 0.0
C512 C 0.4896 0.11052 0.81465 0.0
O513 O 0.48381 0.09711 0.82723 0.0
O514 O 0.48084 0.1186 0.81155 0.0
C515 C 0.48276 0.07188 0.87105 0.0
O516 O 0.49579 0.08841 0.86828 0.0
C517 C 0.45908 0.14432 0.80196 0.0
C518 C 0.43136 0.13864 0.80705 0.0
C519 C 0.44741 0.15053 0.79737 0.0
N520 N 0.45026 0.12943 0.8139 0.0
N521 N 0.43377 0.12619 0.81697 0.0
C522 C 0.47752 0.15107 0.79331 0.0
H523 H 0.47756 0.14052 0.78319 0.0
H524 H 0.4869 0.15378 0.80683 0.0
H525 H 0.48218 0.16332 0.7835 0.0
C526 C 0.45982 0.10225 0.88471 0.0
N527 N 0.45949 0.09992 0.86334 0.0
N528 N 0.45762 0.11248 0.85377 0.0
C529 C 0.45697 0.12338 0.86879 0.0
C530 C 0.45833 0.11723 0.88885 0.0
C531 C 0.46131 0.09019 0.9008 0.0
H532 H 0.45368 0.07612 0.89525 0.0
H533 H 0.47556 0.09399 0.90249 0.0
H534 H 0.45619 0.09131 0.91672 0.0
O535 O 0.44142 0.06882 0.82874 0.0
O536 O 0.43874 0.08974 0.81137 0.0
H537 H 0.44276 0.13669 0.85974 0.0
H538 H 0.46101 0.14932 0.87799 0.0
C539 C 0.45661 0.14018 0.86397 0.0
H540 H 0.46542 0.14715 0.8501 0.0
H541 H 0.42401 0.11517 0.82539 0.0
O542 O 0.46733 0.06727 0.86368 0.0
C543 C 0.4336 0.07337 0.81494 0.0
Co544 Co 0.37794 0.46292 0.84758 0.0
Co545 Co 0.34395 0.45669 0.82228 0.0
C546 C 0.37878 0.48968 0.81559 0.0
O547 O 0.38616 0.4845 0.82932 0.0
O548 O 0.36226 0.4802 0.81091 0.0
C549 C 0.40919 0.48258 0.87361 0.0
O550 O 0.40614 0.49585 0.87028 0.0
C551 C 0.31524 0.45963 0.80049 0.0
C552 C 0.29381 0.43124 0.80044 0.0
C553 C 0.29797 0.4481 0.79345 0.0
N554 N 0.32099 0.44994 0.81119 0.0
N555 N 0.30807 0.43303 0.81125 0.0
C556 C 0.32685 0.47905 0.79531 0.0
H557 H 0.33761 0.48066 0.78421 0.0
H558 H 0.33332 0.48655 0.8102 0.0
H559 H 0.31924 0.48475 0.78761 0.0
C560 C 0.35456 0.45872 0.88445 0.0
N561 N 0.35757 0.45879 0.86328 0.0
N562 N 0.34353 0.45691 0.8527 0.0
C563 C 0.33129 0.45597 0.86686 0.0
C564 C 0.33786 0.45695 0.88736 0.0
C565 C 0.36787 0.46139 0.90149 0.0
H566 H 0.37429 0.45334 0.8977 0.0
H567 H 0.37842 0.47569 0.90185 0.0
H568 H 0.3615 0.45759 0.91755 0.0
O569 O 0.37272 0.44203 0.82958 0.0
O570 O 0.34906 0.43825 0.81137 0.0
H571 H 0.30493 0.44148 0.8539 0.0
H572 H 0.3074 0.45689 0.87498 0.0
C573 C 0.314 0.45486 0.86085 0.0
H574 H 0.31644 0.46506 0.84846 0.0
H575 H 0.30921 0.42264 0.81815 0.0
O576 O 0.39823 0.46717 0.86627 0.0
C577 C 0.36066 0.43372 0.81555 0.0
Co578 Co 0.91211 0.37732 0.84853 0.0
Co579 Co 0.88512 0.34204 0.82468 0.0
C580 C 0.8852 0.37587 0.81635 0.0
O581 O 0.89785 0.38398 0.8298 0.0
O582 O 0.87866 0.35929 0.81226 0.0
C583 C 0.92276 0.40934 0.87273 0.0
O584 O 0.90621 0.40551 0.86931 0.0
C585 C 0.85248 0.31074 0.80785 0.0
C586 C 0.86119 0.29062 0.8075 0.0
C587 C 0.8468 0.29297 0.80301 0.0
N588 N 0.86945 0.31843 0.81489 0.0
N589 N 0.87458 0.30636 0.81453 0.0
C590 C 0.84174 0.31998 0.80743 0.0
H591 H 0.84671 0.33066 0.81977 0.0
H592 H 0.82737 0.31033 0.81027 0.0
H593 H 0.84322 0.32627 0.79147 0.0
C594 C 0.89402 0.35496 0.88644 0.0
N595 N 0.8966 0.35728 0.86515 0.0
N596 N 0.88499 0.34252 0.85523 0.0
C597 C 0.87457 0.33031 0.87001 0.0
C598 C 0.87994 0.33782 0.89023 0.0
C599 C 0.90494 0.36888 0.90279 0.0
H600 H 0.90032 0.37877 0.90366 0.0
H601 H 0.90363 0.36287 0.9189 0.0
H602 H 0.91921 0.37602 0.89795 0.0
O603 O 0.92818 0.37231 0.83102 0.0
O604 O 0.90883 0.34783 0.81359 0.0
H605 H 0.85097 0.3055 0.87926 0.0
H606 H 0.85025 0.31387 0.853 0.0
C607 C 0.85897 0.31232 0.86479 0.0
H608 H 0.86388 0.30387 0.85747 0.0
H609 H 0.8872 0.30884 0.81932 0.0
O610 O 0.92773 0.39856 0.86619 0.0
C611 C 0.92481 0.36 0.81748 0.0
Co612 Co 0.08156 0.46117 0.6487 0.0
Co613 Co 0.11001 0.45463 0.67171 0.0
C614 C 0.10831 0.48755 0.68033 0.0
O615 O 0.09503 0.4822 0.66762 0.0
O616 O 0.11588 0.47831 0.68357 0.0
C617 C 0.06725 0.48028 0.62584 0.0
O618 O 0.08235 0.49459 0.63116 0.0
C619 C 0.14404 0.45807 0.68653 0.0
C620 C 0.13673 0.4296 0.68729 0.0
C621 C 0.15079 0.44678 0.69069 0.0
N622 N 0.12679 0.44795 0.68083 0.0
N623 N 0.12249 0.43096 0.68149 0.0
C624 C 0.15401 0.47808 0.68626 0.0
H625 H 0.1481 0.48308 0.67421 0.0
H626 H 0.16836 0.48337 0.68259 0.0
H627 H 0.1529 0.48305 0.70228 0.0
C628 C 0.10018 0.45879 0.61038 0.0
N629 N 0.09757 0.45784 0.6317 0.0
N630 N 0.10957 0.45501 0.64117 0.0
C631 C 0.12021 0.45404 0.626 0.0
C632 C 0.11457 0.45643 0.60612 0.0
C633 C 0.08944 0.46248 0.59449 0.0
H634 H 0.07498 0.45345 0.59759 0.0
H635 H 0.09237 0.47646 0.59654 0.0
H636 H 0.09259 0.46062 0.57775 0.0
O637 O 0.06663 0.43971 0.666 0.0
O638 O 0.08683 0.43616 0.68391 0.0
H639 H 0.13171 0.43916 0.63895 0.0
H640 H 0.14304 0.45207 0.61541 0.0
C641 C 0.13609 0.45196 0.63044 0.0
H642 H 0.14557 0.46303 0.64092 0.0
H643 H 0.10989 0.42032 0.67756 0.0
O644 O 0.06467 0.46495 0.63108 0.0
C645 C 0.07065 0.43146 0.67979 0.0
Co646 Co 0.61816 0.08217 0.64603 0.0
Co647 Co 0.65361 0.10935 0.66941 0.0
C648 C 0.61932 0.10795 0.67965 0.0
O649 O 0.61116 0.09535 0.66612 0.0
O650 O 0.6361 0.11498 0.68277 0.0
C651 C 0.58612 0.07137 0.62162 0.0
O652 O 0.58957 0.08777 0.62537 0.0
C653 C 0.68376 0.1407 0.69005 0.0
C654 C 0.70507 0.13375 0.68664 0.0
C655 C 0.70147 0.14645 0.69509 0.0
N656 N 0.67724 0.1253 0.67904 0.0
N657 N 0.69007 0.1213 0.67695 0.0
C658 C 0.67257 0.14844 0.69742 0.0
H659 H 0.66247 0.13906 0.709 0.0
H660 H 0.66529 0.14978 0.68353 0.0
H661 H 0.68062 0.16157 0.70538 0.0
C662 C 0.63978 0.10141 0.60801 0.0
N663 N 0.63781 0.09845 0.62927 0.0
N664 N 0.65257 0.11021 0.63905 0.0
C665 C 0.66435 0.12121 0.62427 0.0
C666 C 0.6566 0.11599 0.60414 0.0
C667 C 0.62597 0.09012 0.59172 0.0
H668 H 0.61918 0.07587 0.59664 0.0
H669 H 0.61581 0.09437 0.59073 0.0
H670 H 0.63202 0.09149 0.57563 0.0
O671 O 0.62393 0.06618 0.66237 0.0
O672 O 0.64869 0.08549 0.6793 0.0
H673 H 0.69156 0.13254 0.63408 0.0
H674 H 0.6877 0.14636 0.61561 0.0
C675 C 0.68211 0.13713 0.62949 0.0
H676 H 0.68071 0.14445 0.64329 0.0
H677 H 0.68843 0.10982 0.66933 0.0
O678 O 0.59696 0.06654 0.62833 0.0
C679 C 0.63662 0.0695 0.67526 0.0
Co680 Co 0.53508 0.62046 0.6506 0.0
Co681 Co 0.54352 0.65704 0.67114 0.0
C682 C 0.51123 0.62302 0.68404 0.0
O683 O 0.5152 0.61417 0.67099 0.0
O684 O 0.52105 0.63992 0.68609 0.0
C685 C 0.5143 0.58603 0.63027 0.0
O686 O 0.50052 0.58748 0.63637 0.0
C687 C 0.54105 0.68822 0.68584 0.0
C688 C 0.56932 0.70956 0.68294 0.0
C689 C 0.55251 0.70644 0.68872 0.0
N690 N 0.55072 0.68099 0.67867 0.0
N691 N 0.56759 0.6938 0.67707 0.0
C692 C 0.52115 0.67797 0.6883 0.0
H693 H 0.51518 0.66664 0.6768 0.0
H694 H 0.51537 0.68675 0.68561 0.0
H695 H 0.51777 0.67243 0.70479 0.0
C696 C 0.53465 0.63917 0.61122 0.0
N697 N 0.53739 0.63889 0.6324 0.0
N698 N 0.54079 0.65424 0.64089 0.0
C699 C 0.54037 0.66482 0.62524 0.0
C700 C 0.53639 0.65556 0.60602 0.0
C701 C 0.53002 0.62384 0.59636 0.0
H702 H 0.53886 0.61822 0.59957 0.0
H703 H 0.51601 0.61321 0.59933 0.0
H704 H 0.53141 0.62804 0.5793 0.0
O705 O 0.55744 0.62769 0.6666 0.0
O706 O 0.56287 0.65316 0.68169 0.0
H707 H 0.55578 0.69208 0.63523 0.0
H708 H 0.54019 0.68846 0.61387 0.0
C709 C 0.54224 0.68281 0.62888 0.0
H710 H 0.5323 0.68165 0.64097 0.0
H711 H 0.57791 0.69178 0.67177 0.0
O712 O 0.53001 0.59873 0.63422 0.0
C713 C 0.56692 0.64107 0.6786 0.0
Co714 Co 0.91173 0.53094 0.648 0.0
Co715 Co 0.88642 0.54186 0.67108 0.0
C716 C 0.88691 0.50887 0.6837 0.0
O717 O 0.89881 0.51195 0.66963 0.0
O718 O 0.88069 0.51938 0.68635 0.0
C719 C 0.92182 0.50804 0.62577 0.0
O720 O 0.90587 0.49514 0.6314 0.0
C721 C 0.85411 0.54122 0.68737 0.0
C722 C 0.86292 0.57008 0.68694 0.0
C723 C 0.84848 0.55341 0.69173 0.0
N724 N 0.87108 0.55034 0.68033 0.0
N725 N 0.87629 0.56757 0.68021 0.0
C726 C 0.84334 0.52124 0.68823 0.0
H727 H 0.84855 0.51531 0.67649 0.0
H728 H 0.82904 0.51648 0.68483 0.0
H729 H 0.84446 0.51669 0.70451 0.0
C730 C 0.89118 0.53109 0.61028 0.0
N731 N 0.89515 0.5337 0.63129 0.0
N732 N 0.88446 0.53835 0.64079 0.0
C733 C 0.87338 0.53895 0.62595 0.0
C734 C 0.87723 0.53422 0.60626 0.0
C735 C 0.9007 0.52583 0.59436 0.0
H736 H 0.91533 0.5338 0.5971 0.0
H737 H 0.89641 0.5115 0.59662 0.0
H738 H 0.89771 0.52789 0.57763 0.0
O739 O 0.92872 0.55372 0.66202 0.0
O740 O 0.91071 0.56074 0.67947 0.0
H741 H 0.86477 0.55656 0.63808 0.0
H742 H 0.85153 0.5428 0.61591 0.0
C743 C 0.85888 0.54312 0.63066 0.0
H744 H 0.84933 0.5332 0.64224 0.0
H745 H 0.88891 0.57759 0.6753 0.0
O746 O 0.9265 0.5241 0.63056 0.0
C747 C 0.92632 0.56401 0.67443 0.0
Co748 Co 0.37936 0.91679 0.64565 0.0
Co749 Co 0.34544 0.8895 0.67166 0.0
C750 C 0.38072 0.89243 0.67955 0.0
O751 O 0.38799 0.90485 0.66561 0.0
O752 O 0.36404 0.8849 0.68358 0.0
C753 C 0.41153 0.9289 0.62099 0.0
O754 O 0.41016 0.91369 0.62708 0.0
C755 C 0.31538 0.85684 0.6913 0.0
C756 C 0.29672 0.86684 0.69762 0.0
C757 C 0.29899 0.8522 0.70049 0.0
N758 N 0.32251 0.87357 0.68345 0.0
N759 N 0.31115 0.87931 0.68706 0.0
C760 C 0.32455 0.84602 0.69131 0.0
H761 H 0.33841 0.85391 0.68529 0.0
H762 H 0.31717 0.83425 0.6807 0.0
H763 H 0.3245 0.84105 0.70775 0.0
C764 C 0.35637 0.896 0.60943 0.0
N765 N 0.35919 0.89958 0.63049 0.0
N766 N 0.34491 0.88803 0.64124 0.0
C767 C 0.3325 0.87667 0.62726 0.0
C768 C 0.33943 0.8813 0.60667 0.0
C769 C 0.36957 0.90678 0.59232 0.0
H770 H 0.3757 0.92123 0.59602 0.0
H771 H 0.38036 0.90336 0.59201 0.0
H772 H 0.36318 0.90414 0.57627 0.0
O773 O 0.37357 0.93284 0.6618 0.0
O774 O 0.35065 0.91346 0.6815 0.0
H775 H 0.30682 0.86597 0.64199 0.0
H776 H 0.30737 0.85283 0.61966 0.0
C777 C 0.31491 0.86106 0.63369 0.0
H778 H 0.31721 0.85259 0.64514 0.0
H779 H 0.31351 0.89202 0.68288 0.0
O780 O 0.39942 0.9324 0.62637 0.0
C781 C 0.3618 0.92944 0.67609 0.0
Co782 Co 0.46182 0.37847 0.64399 0.0
Co783 Co 0.45466 0.34362 0.66793 0.0
C784 C 0.488 0.37784 0.67588 0.0
O785 O 0.48275 0.3857 0.66295 0.0
O786 O 0.47858 0.36109 0.67946 0.0
C787 C 0.48239 0.41059 0.61951 0.0
O788 O 0.49549 0.40728 0.62278 0.0
C789 C 0.45698 0.31271 0.6841 0.0
C790 C 0.42826 0.2924 0.68607 0.0
C791 C 0.44524 0.29496 0.68941 0.0
N792 N 0.44729 0.32018 0.67789 0.0
N793 N 0.43016 0.30801 0.67922 0.0
C794 C 0.47696 0.32211 0.68329 0.0
H795 H 0.48208 0.33273 0.67086 0.0
H796 H 0.48168 0.31254 0.67981 0.0
H797 H 0.4824 0.3285 0.69906 0.0
C798 C 0.45746 0.35608 0.60613 0.0
N799 N 0.45759 0.35853 0.62744 0.0
N800 N 0.45461 0.34383 0.63736 0.0
C801 C 0.45252 0.33152 0.62257 0.0
C802 C 0.45431 0.33892 0.60234 0.0
C803 C 0.46006 0.36987 0.58978 0.0
H804 H 0.47449 0.37999 0.5888 0.0
H805 H 0.45534 0.3638 0.5737 0.0
H806 H 0.4527 0.37676 0.59472 0.0
O807 O 0.44062 0.37291 0.66134 0.0
O808 O 0.43684 0.34934 0.67988 0.0
H809 H 0.45048 0.30638 0.61311 0.0
H810 H 0.46085 0.31509 0.63876 0.0
C811 C 0.4501 0.31351 0.62772 0.0
H812 H 0.43708 0.30533 0.63591 0.0
H813 H 0.41977 0.31032 0.67519 0.0
O814 O 0.46682 0.39952 0.62629 0.0
C815 C 0.43239 0.36097 0.67551 0.0
C816 C 0.50259 0.05819 0.11363 0.0
C817 C 0.4852 0.05562 0.11463 0.0
C818 C 0.50531 0.04404 0.10811 0.0
C819 C 0.48149 0.99516 0.11138 0.0
H820 H 0.52358 0.00019 0.08263 0.0
C821 C 0.49587 0.93715 0.11054 0.0
C822 C 0.51336 0.94187 0.1166 0.0
C823 C 0.49178 0.95031 0.10463 0.0
C824 C 0.51176 0.99859 0.09069 0.0
H825 H 0.45717 0.03662 0.1089 0.0
H826 H 0.46196 0.01203 0.09898 0.0
H827 H 0.51752 0.02498 0.08209 0.0
H828 H 0.5405 0.96403 0.11994 0.0
H829 H 0.53332 0.98695 0.11001 0.0
H830 H 0.47602 0.96911 0.12068 0.0
C831 C 0.47345 0.02485 0.10297 0.0
C832 C 0.50829 0.01278 0.09039 0.0
C833 C 0.47072 0.03897 0.10857 0.0
C834 C 0.52686 0.95993 0.11546 0.0
C835 C 0.52277 0.97309 0.1096 0.0
C836 C 0.48495 0.98102 0.11169 0.0
C837 C 0.49071 0.02705 0.10337 0.0
C838 C 0.49331 0.01135 0.10112 0.0
C839 C 0.50509 0.96848 0.10469 0.0
C840 C 0.50032 0.98268 0.10176 0.0
H841 H 0.51404 0.07087 0.11815 0.0
H842 H 0.51877 0.04618 0.10874 0.0
H843 H 0.47 0.99369 0.12014 0.0
H844 H 0.48519 0.92334 0.11104 0.0
H845 H 0.47809 0.9463 0.10058 0.0
C846 C 0.55556 0.50075 0.11769 0.0
C847 C 0.5703 0.51809 0.11991 0.0
C848 C 0.53887 0.49821 0.11162 0.0
C849 C 0.51325 0.52148 0.11467 0.0
H850 H 0.47833 0.4811 0.08139 0.0
C851 C 0.44099 0.50691 0.10853 0.0
C852 C 0.428 0.4891 0.11296 0.0
C853 C 0.45857 0.5114 0.10377 0.0
C854 C 0.48794 0.49244 0.09073 0.0
H855 H 0.57935 0.54634 0.11612 0.0
H856 H 0.55028 0.54189 0.10533 0.0
H857 H 0.50918 0.4873 0.08327 0.0
H858 H 0.42298 0.46185 0.11439 0.0
H859 H 0.45361 0.46968 0.10646 0.0
H860 H 0.49201 0.5263 0.1228 0.0
C861 C 0.55154 0.53026 0.10869 0.0
C862 C 0.5056 0.49598 0.09181 0.0
C863 C 0.56822 0.5328 0.1148 0.0
C864 C 0.43268 0.47572 0.11116 0.0
C865 C 0.45025 0.48021 0.10647 0.0
C866 C 0.49564 0.51794 0.11361 0.0
C867 C 0.53656 0.51296 0.10758 0.0
C868 C 0.51837 0.51034 0.10416 0.0
C869 C 0.46353 0.49817 0.10338 0.0
C870 C 0.48267 0.50317 0.10199 0.0
H871 H 0.55672 0.48912 0.12145 0.0
H872 H 0.52759 0.48471 0.11112 0.0
H873 H 0.52264 0.53247 0.12462 0.0
H874 H 0.43779 0.51752 0.10956 0.0
H875 H 0.46841 0.52531 0.10107 0.0
C876 C 0.05267 0.55135 0.12895 0.0
C877 C 0.05327 0.56723 0.12259 0.0
C878 C 0.03884 0.53481 0.12207 0.0
C879 C 0.99256 0.51373 0.10054 0.0
H880 H 0.99849 0.47213 0.10077 0.0
C881 C 0.93404 0.44373 0.11795 0.0
C882 C 0.93488 0.42851 0.11195 0.0
C883 C 0.94804 0.46081 0.113 0.0
C884 C 0.99648 0.48353 0.10008 0.0
H885 H 0.04048 0.57836 0.10304 0.0
H886 H 0.01675 0.54949 0.09007 0.0
H887 H 0.02455 0.50164 0.1024 0.0
H888 H 0.95022 0.41908 0.09444 0.0
H889 H 0.97422 0.44885 0.08462 0.0
H890 H 0.96454 0.49564 0.09726 0.0
C891 C 0.02655 0.54971 0.10107 0.0
C892 C 0.01153 0.50057 0.10149 0.0
C893 C 0.04022 0.56629 0.10838 0.0
C894 C 0.94936 0.43063 0.09949 0.0
C895 C 0.96319 0.44773 0.09406 0.0
C896 C 0.97753 0.49669 0.09855 0.0
C897 C 0.02543 0.53369 0.10822 0.0
C898 C 0.00975 0.51588 0.10273 0.0
C899 C 0.96308 0.4631 0.10147 0.0
C900 C 0.97919 0.48129 0.09926 0.0
H901 H 0.06247 0.55164 0.14005 0.0
H902 H 0.03835 0.5229 0.12841 0.0
H903 H 0.99049 0.52508 0.10143 0.0
H904 H 0.9231 0.44253 0.12769 0.0
H905 H 0.94742 0.47214 0.11937 0.0
C906 C 0.05449 0.49606 0.38102 0.0
C907 C 0.05137 0.47863 0.37766 0.0
C908 C 0.04038 0.49894 0.38615 0.0
C909 C 0.99188 0.47738 0.37817 0.0
H910 H 0.99668 0.51716 0.4122 0.0
C911 C 0.93552 0.49416 0.38045 0.0
C912 C 0.94105 0.51221 0.37646 0.0
C913 C 0.94799 0.489 0.38588 0.0
C914 C 0.99515 0.50599 0.40264 0.0
H915 H 0.03124 0.45048 0.37864 0.0
H916 H 0.00668 0.4555 0.38795 0.0
H917 H 0.02057 0.50979 0.41256 0.0
H918 H 0.96388 0.53915 0.37638 0.0
H919 H 0.98563 0.53014 0.38558 0.0
H920 H 0.96678 0.47388 0.36772 0.0
C921 C 0.01995 0.46697 0.3861 0.0
C922 C 0.00883 0.50178 0.40284 0.0
C923 C 0.03405 0.46409 0.38087 0.0
C924 C 0.95917 0.52511 0.37925 0.0
C925 C 0.97165 0.51996 0.38467 0.0
C926 C 0.97823 0.48156 0.37801 0.0
C927 C 0.02284 0.48445 0.38814 0.0
C928 C 0.00751 0.48764 0.39024 0.0
C929 C 0.96627 0.50179 0.38745 0.0
C930 C 0.97984 0.49613 0.3899 0.0
H931 H 0.06768 0.50756 0.37871 0.0
H932 H 0.04309 0.51258 0.38741 0.0
H933 H 0.99052 0.46662 0.36796 0.0
H934 H 0.92163 0.48389 0.37864 0.0
H935 H 0.94338 0.47493 0.38827 0.0
C936 C 0.44318 0.94041 0.38008 0.0
C937 C 0.42858 0.94328 0.37844 0.0
C938 C 0.46017 0.9545 0.38532 0.0
C939 C 0.48613 0.00338 0.38068 0.0
H940 H 0.52238 0.99789 0.41081 0.0
C941 C 0.55887 0.06065 0.38265 0.0
C942 C 0.5715 0.05566 0.37685 0.0
C943 C 0.54147 0.04767 0.3883 0.0
C944 C 0.51239 -0.00038 0.40236 0.0
H945 H 0.42008 0.96286 0.3826 0.0
H946 H 0.44964 0.98736 0.39208 0.0
H947 H 0.49132 0.97352 0.41122 0.0
H948 H 0.57608 0.03323 0.37377 0.0
H949 H 0.54571 0.01062 0.38336 0.0
H950 H 0.50715 0.02919 0.37125 0.0
C951 C 0.44806 0.97433 0.3888 0.0
C952 C 0.49461 0.98567 0.40258 0.0
C953 C 0.4311 0.96026 0.38346 0.0
C954 C 0.56665 0.03753 0.37805 0.0
C955 C 0.54925 0.02456 0.3837 0.0
C956 C 0.50384 0.01731 0.3805 0.0
C957 C 0.46291 0.97176 0.38913 0.0
C958 C 0.48134 0.98725 0.39135 0.0
C959 C 0.53633 0.02944 0.38829 0.0
C960 C 0.51725 0.01547 0.39095 0.0
H961 H 0.4417 0.92748 0.37635 0.0
H962 H 0.4713 0.95206 0.38524 0.0
H963 H 0.47635 0.00498 0.37153 0.0
H964 H 0.56221 0.07452 0.38209 0.0
H965 H 0.5319 0.05189 0.39212 0.0
C966 C 0.47335 0.43124 0.38581 0.0
C967 C 0.48804 0.42934 0.37997 0.0
C968 C 0.47581 0.44795 0.39161 0.0
C969 C 0.5101 0.49494 0.40501 0.0
H970 H 0.47779 0.50602 0.37433 0.0
C971 C 0.52792 0.56636 0.38056 0.0
C972 C 0.51421 0.57058 0.3791 0.0
C973 C 0.52405 0.54915 0.38637 0.0
C974 C 0.48672 0.50313 0.38343 0.0
H975 H 0.51694 0.44327 0.37709 0.0
H976 H 0.52119 0.47245 0.38684 0.0
H977 H 0.47218 0.47556 0.37462 0.0
H978 H 0.48589 0.56043 0.38417 0.0
H979 H 0.47918 0.53048 0.39458 0.0
H980 H 0.525 0.52278 0.41313 0.0
C981 C 0.50778 0.46102 0.38714 0.0
C982 C 0.4835 0.4856 0.3836 0.0
C983 C 0.50533 0.44428 0.38143 0.0
C984 C 0.49673 0.55756 0.38489 0.0
C985 C 0.49287 0.54036 0.39077 0.0
C986 C 0.51334 0.51253 0.40485 0.0
C987 C 0.49299 0.46315 0.39162 0.0
C988 C 0.49533 0.48134 0.394 0.0
C989 C 0.50639 0.5358 0.39093 0.0
C990 C 0.50188 0.51689 0.39366 0.0
H991 H 0.45986 0.41994 0.38513 0.0
H992 H 0.46417 0.44907 0.39541 0.0
H993 H 0.51935 0.49206 0.41342 0.0
H994 H 0.54155 0.5761 0.37629 0.0
H995 H 0.53477 0.54609 0.38615 0.0
C996 C 0.50385 0.06284 0.88654 0.0
C997 C 0.48645 0.05823 0.8802 0.0
C998 C 0.50783 0.04957 0.89232 0.0
C999 C 0.48761 0.00108 0.90526 0.0
H1000 H 0.52951 0.00623 0.87591 0.0
C1001 C 0.49652 0.94158 0.88096 0.0
C1002 C 0.51386 0.94404 0.88 0.0
C1003 C 0.49388 0.95573 0.88678 0.0
C1004 C 0.51798 0.00467 0.88465 0.0
H1005 H 0.45933 0.03616 0.87632 0.0
H1006 H 0.46632 0.01307 0.88605 0.0
H1007 H 0.52365 0.03092 0.87596 0.0
H1008 H 0.5419 0.96284 0.88605 0.0
H1009 H 0.53725 0.98741 0.89648 0.0
H1010 H 0.48165 0.9745 0.91323 0.0
C1011 C 0.47689 0.02692 0.88676 0.0
C1012 C 0.51461 0.01888 0.88468 0.0
C1013 C 0.4729 0.04017 0.88101 0.0
C1014 C 0.52838 0.96057 0.88635 0.0
C1015 C 0.52573 0.97469 0.89225 0.0
C1016 C 0.49099 0.98682 0.90523 0.0
C1017 C 0.4945 0.03141 0.89188 0.0
C1018 C 0.49919 0.01713 0.89456 0.0
C1019 C 0.50852 0.97261 0.89185 0.0
C1020 C 0.50602 0.98833 0.89451 0.0
H1021 H 0.51457 0.07664 0.88629 0.0
H1022 H 0.52147 0.05349 0.89656 0.0
H1023 H 0.47575 -0.00061 0.91328 0.0
H1024 H 0.48504 0.929 0.87622 0.0
H1025 H 0.48045 0.95369 0.88614 0.0
C1026 C 0.43074 0.47232 0.88335 0.0
C1027 C 0.42648 0.48604 0.88267 0.0
C1028 C 0.44805 0.47615 0.88845 0.0
C1029 C 0.49386 0.51358 0.88428 0.0
H1030 H 0.50578 0.48035 0.9111 0.0
C1031 C 0.56565 0.52643 0.88181 0.0
C1032 C 0.56722 0.51178 0.87492 0.0
C1033 C 0.54915 0.52401 0.88855 0.0
C1034 C 0.50266 0.48976 0.90357 0.0
H1035 H 0.43665 0.51427 0.88857 0.0
H1036 H 0.4668 0.52089 0.89778 0.0
H1037 H 0.47517 0.47485 0.91317 0.0
H1038 H 0.55295 0.48295 0.87093 0.0
H1039 H 0.52413 0.47877 0.88234 0.0
H1040 H 0.52107 0.52815 0.87401 0.0
C1041 C 0.45686 0.50725 0.89387 0.0
C1042 C 0.48514 0.48662 0.90477 0.0
C1043 C 0.43955 0.50343 0.8887 0.0
C1044 C 0.55218 0.49453 0.87607 0.0
C1045 C 0.53566 0.49212 0.88275 0.0
C1046 C 0.51133 0.51672 0.88311 0.0
C1047 C 0.46146 0.49376 0.89308 0.0
C1048 C 0.48045 0.49829 0.8947 0.0
C1049 C 0.53386 0.5069 0.88849 0.0
C1050 C 0.51586 0.50465 0.89232 0.0
H1051 H 0.42096 0.45875 0.8789 0.0
H1052 H 0.45112 0.46545 0.88752 0.0
H1053 H 0.4907 0.52268 0.876 0.0
H1054 H 0.57703 0.53988 0.88137 0.0
H1055 H 0.54828 0.53563 0.89324 0.0
C1056 C 0.93148 0.4403 0.88498 0.0
C1057 C 0.93621 0.42719 0.88088 0.0
C1058 C 0.94467 0.45797 0.88921 0.0
C1059 C 0.9931 0.4875 0.90136 0.0
H1060 H 0.98786 0.52137 0.86566 0.0
C1061 C 0.0527 0.55395 0.87201 0.0
C1062 C 0.05033 0.56877 0.86902 0.0
C1063 C 0.03841 0.5375 0.87856 0.0
C1064 C 0.98944 0.51223 0.87611 0.0
H1065 H 0.95837 0.42207 0.87958 0.0
H1066 H 0.9813 0.45283 0.88665 0.0
H1067 H 0.96321 0.4909 0.86876 0.0
H1068 H 0.03139 0.57822 0.87181 0.0
H1069 H 0.00653 0.54958 0.88346 0.0
H1070 H 0.01963 0.5088 0.90806 0.0
C1071 C 0.96744 0.44951 0.88674 0.0
C1072 C 0.97526 0.49471 0.8779 0.0
C1073 C 0.95427 0.43186 0.88253 0.0
C1074 C 0.03361 0.56701 0.87373 0.0
C1075 C 0.01934 0.55058 0.88034 0.0
C1076 C 0.00732 0.50507 0.89956 0.0
C1077 C 0.96285 0.46288 0.88944 0.0
C1078 C 0.97705 0.48202 0.89016 0.0
C1079 C 0.02146 0.53552 0.88234 0.0
C1080 C 0.00578 0.51753 0.88653 0.0
H1081 H 0.91768 0.43712 0.88403 0.0
H1082 H 0.94067 0.4679 0.8916 0.0
H1083 H 0.99481 0.47811 0.91116 0.0
H1084 H 0.06542 0.55486 0.86856 0.0
H1085 H 0.04047 0.52615 0.87972 0.0
C1086 C 0.95274 0.51761 0.61284 0.0
C1087 C 0.93505 0.50387 0.61639 0.0
C1088 C 0.96592 0.51358 0.60697 0.0
C1089 C 0.97581 0.47724 0.61331 0.0
H1090 H 0.01794 0.50874 0.58001 0.0
C1091 C 0.03607 0.46656 0.61147 0.0
C1092 C 0.05243 0.48195 0.61639 0.0
C1093 C 0.02123 0.46796 0.60556 0.0
C1094 C 0.00624 0.4998 0.58931 0.0
H1095 H 0.91708 0.47519 0.61497 0.0
H1096 H 0.94007 0.46817 0.60436 0.0
H1097 H 0.99217 0.51325 0.57979 0.0
H1098 H 0.06634 0.51094 0.61754 0.0
H1099 H 0.04038 0.51337 0.60746 0.0
H1100 H 0.98999 0.46415 0.62338 0.0
C1101 C 0.94381 0.48205 0.60661 0.0
C1102 C 0.99148 0.50238 0.58921 0.0
C1103 C 0.93061 0.48607 0.61259 0.0
C1104 C 0.05392 0.49882 0.61395 0.0
C1105 C 0.03905 0.50022 0.60804 0.0
C1106 C 0.99049 0.47463 0.61334 0.0
C1107 C 0.96173 0.49572 0.60439 0.0
C1108 C 0.97627 0.49142 0.60167 0.0
C1109 C 0.02241 0.48477 0.60443 0.0
C1110 C 0.00604 0.48614 0.60178 0.0
H1111 H 0.95661 0.53148 0.61553 0.0
H1112 H 0.97958 0.52446 0.60562 0.0
H1113 H 0.96448 0.46872 0.62338 0.0
H1114 H 0.03452 0.45335 0.61294 0.0
H1115 H 0.00866 0.45583 0.60253 0.0
C1116 C 0.55598 0.06271 0.60641 0.0
C1117 C 0.56884 0.058 0.61207 0.0
C1118 C 0.5388 0.04957 0.60019 0.0
C1119 C 0.51088 0.00143 0.58509 0.0
H1120 H 0.47383 0.00525 0.61564 0.0
C1121 C 0.44329 0.94088 0.60942 0.0
C1122 C 0.42822 0.94299 0.611 0.0
C1123 C 0.45986 0.95526 0.60337 0.0
C1124 C 0.4839 0.00408 0.60656 0.0
H1125 H 0.57408 0.03595 0.61431 0.0
H1126 H 0.54413 0.01308 0.6039 0.0
H1127 H 0.50424 0.0302 0.616 0.0
H1128 H 0.41838 0.9614 0.60569 0.0
H1129 H 0.44722 0.9864 0.5949 0.0
H1130 H 0.49051 0.97492 0.57645 0.0
C1131 C 0.5473 0.02691 0.60402 0.0
C1132 C 0.50139 0.01844 0.60676 0.0
C1133 C 0.56447 0.04003 0.61017 0.0
C1134 C 0.42979 0.95939 0.60492 0.0
C1135 C 0.44633 0.97375 0.59881 0.0
C1136 C 0.49334 0.98701 0.58492 0.0
C1137 C 0.5341 0.03144 0.59955 0.0
C1138 C 0.51518 0.01715 0.59648 0.0
C1139 C 0.46168 0.97204 0.59869 0.0
C1140 C 0.47973 0.98803 0.59609 0.0
H1141 H 0.55897 0.07645 0.60749 0.0
H1142 H 0.52903 0.05355 0.59649 0.0
H1143 H 0.52115 0.0001 0.57673 0.0
H1144 H 0.44253 0.9284 0.61392 0.0
H1145 H 0.47142 0.9535 0.60359 0.0
C1146 C 0.50371 0.44144 0.60602 0.0
C1147 C 0.48616 0.42819 0.61113 0.0
C1148 C 0.50767 0.4589 0.60142 0.0
C1149 C 0.48728 0.48736 0.59027 0.0
H1150 H 0.52792 0.52275 0.62276 0.0
C1151 C 0.49447 0.55408 0.61932 0.0
C1152 C 0.51167 0.56915 0.62081 0.0
C1153 C 0.49221 0.53758 0.61279 0.0
C1154 C 0.51674 0.51316 0.61321 0.0
H1155 H 0.45877 0.42256 0.61389 0.0
H1156 H 0.4657 0.45296 0.60626 0.0
H1157 H 0.52254 0.4924 0.6203 0.0
H1158 H 0.53989 0.579 0.61526 0.0
H1159 H 0.53591 0.55026 0.60371 0.0
H1160 H 0.48116 0.50811 0.58393 0.0
C1161 C 0.47643 0.44992 0.60561 0.0
C1162 C 0.51365 0.49571 0.61176 0.0
C1163 C 0.47247 0.43248 0.61015 0.0
C1164 C 0.52647 0.5676 0.61453 0.0
C1165 C 0.5242 0.55112 0.60798 0.0
C1166 C 0.49036 0.50485 0.59176 0.0
C1167 C 0.49416 0.46347 0.60185 0.0
C1168 C 0.49868 0.48249 0.60068 0.0
C1169 C 0.5071 0.53582 0.60757 0.0
C1170 C 0.50492 0.51785 0.60363 0.0
H1171 H 0.51455 0.43854 0.60642 0.0
H1172 H 0.52142 0.46896 0.59819 0.0
H1173 H 0.47577 0.47756 0.58135 0.0
H1174 H 0.48278 0.55483 0.62398 0.0
H1175 H 0.47886 0.52604 0.61283 0.0
C1176 C 0.46488 0.28186 0.28795 0.0
C1177 C 0.45203 0.28629 0.28139 0.0
C1178 C 0.46643 0.26844 0.27726 0.0
C1179 C 0.43893 0.22834 0.24487 0.0
H1180 H 0.48365 0.23008 0.23158 0.0
C1181 C 0.43974 0.17433 0.19339 0.0
C1182 C 0.44987 0.16686 0.20092 0.0
C1183 C 0.4419 0.1901 0.20224 0.0
C1184 C 0.47108 0.22941 0.23535 0.0
H1185 H 0.43115 0.28077 0.25834 0.0
H1186 H 0.43404 0.25767 0.2394 0.0
H1187 H 0.48406 0.25581 0.24888 0.0
H1188 H 0.47033 0.17007 0.22357 0.0
H1189 H 0.47417 0.19781 0.2391 0.0
H1190 H 0.4259 0.20207 0.23153 0.0
C1191 C 0.44273 0.26425 0.25296 0.0
C1192 C 0.47131 0.24409 0.24524 0.0
C1193 C 0.44112 0.27752 0.2637 0.0
C1194 C 0.46262 0.17574 0.21711 0.0
C1195 C 0.46478 0.19157 0.22605 0.0
C1196 C 0.4387 0.21378 0.235 0.0
C1197 C 0.45508 0.25925 0.25993 0.0
C1198 C 0.45521 0.24375 0.24987 0.0
C1199 C 0.45413 0.19866 0.21901 0.0
C1200 C 0.45475 0.2142 0.22992 0.0
H1201 H 0.47316 0.2882 0.30188 0.0
H1202 H 0.47594 0.26475 0.28312 0.0
H1203 H 0.42628 0.22745 0.24876 0.0
H1204 H 0.4299 0.16781 0.18082 0.0
H1205 H 0.43374 0.19542 0.19622 0.0
C1206 C 0.28013 0.46212 0.20477 0.0
C1207 C 0.28436 0.44895 0.21045 0.0
C1208 C 0.26754 0.46417 0.21669 0.0
C1209 C 0.2289 0.43778 0.25171 0.0
H1210 H 0.23224 0.4833 0.26468 0.0
C1211 C 0.1758 0.44024 0.30309 0.0
C1212 C 0.16854 0.4504 0.29499 0.0
C1213 C 0.1917 0.44232 0.29482 0.0
C1214 C 0.23113 0.47052 0.26107 0.0
H1215 H 0.27933 0.42794 0.23312 0.0
H1216 H 0.25768 0.43171 0.2542 0.0
H1217 H 0.25701 0.4827 0.24623 0.0
H1218 H 0.17238 0.47101 0.27223 0.0
H1219 H 0.20028 0.4746 0.25759 0.0
H1220 H 0.20309 0.42553 0.26622 0.0
C1221 C 0.26377 0.44028 0.24041 0.0
C1222 C 0.24527 0.47017 0.2505 0.0
C1223 C 0.2762 0.43816 0.22843 0.0
C1224 C 0.17786 0.46324 0.27905 0.0
C1225 C 0.1938 0.46527 0.27064 0.0
C1226 C 0.21488 0.43813 0.26226 0.0
C1227 C 0.25899 0.45303 0.23441 0.0
C1228 C 0.24429 0.45376 0.2458 0.0
C1229 C 0.20058 0.45443 0.27804 0.0
C1230 C 0.21584 0.45447 0.26714 0.0
H1231 H 0.28602 0.47033 0.19066 0.0
H1232 H 0.26398 0.47396 0.2115 0.0
H1233 H 0.22749 0.42491 0.24783 0.0
H1234 H 0.16893 0.43034 0.31551 0.0
H1235 H 0.19679 0.43403 0.30113 0.0
C1236 C 0.83135 0.27975 0.22993 0.0
C1237 C 0.83052 0.28778 0.21076 0.0
C1238 C 0.81572 0.26792 0.24078 0.0
C1239 C 0.76847 0.23644 0.23108 0.0
H1240 H 0.76638 0.23434 0.29325 0.0
C1241 C 0.7095 0.17866 0.27617 0.0
C1242 C 0.71484 0.17076 0.29205 0.0
C1243 C 0.72185 0.19523 0.2674 0.0
C1244 C 0.76676 0.23479 0.27588 0.0
H1245 H 0.81284 0.28946 0.18742 0.0
H1246 H 0.78536 0.26887 0.20658 0.0
H1247 H 0.7915 0.25961 0.27548 0.0
H1248 H 0.73707 0.17397 0.31146 0.0
H1249 H 0.75861 0.20279 0.29614 0.0
H1250 H 0.74405 0.21132 0.23147 0.0
C1251 C 0.79811 0.27187 0.21334 0.0
C1252 C 0.78113 0.24923 0.26572 0.0
C1253 C 0.81381 0.28379 0.20252 0.0
C1254 C 0.7326 0.17983 0.2993 0.0
C1255 C 0.74488 0.19639 0.29066 0.0
C1256 C 0.75408 0.222 0.24125 0.0
C1257 C 0.79892 0.26373 0.23253 0.0
C1258 C 0.7824 0.24993 0.24322 0.0
C1259 C 0.73971 0.20416 0.2744 0.0
C1260 C 0.75336 0.22077 0.26375 0.0
H1261 H 0.84411 0.28251 0.23645 0.0
H1262 H 0.81679 0.26159 0.25528 0.0
H1263 H 0.76915 0.23652 0.21373 0.0
H1264 H 0.69601 0.17177 0.26991 0.0
H1265 H 0.7175 0.2009 0.25489 0.0
C1266 C 0.53826 0.82375 0.22197 0.0
C1267 C 0.54351 0.82743 0.20045 0.0
C1268 C 0.53496 0.80764 0.23121 0.0
C1269 C 0.54558 0.77136 0.22246 0.0
H1270 H 0.51451 0.75052 0.27176 0.0
C1271 C 0.53667 0.70842 0.26605 0.0
C1272 C 0.54261 0.71229 0.28737 0.0
C1273 C 0.53338 0.72029 0.25439 0.0
C1274 C 0.52311 0.75617 0.25788 0.0
H1275 H 0.54865 0.81718 0.1713 0.0
H1276 H 0.54188 0.78858 0.18692 0.0
H1277 H 0.51442 0.77505 0.2523 0.0
H1278 H 0.54929 0.73106 0.31354 0.0
H1279 H 0.543 0.75164 0.29328 0.0
H1280 H 0.554 0.75222 0.22801 0.0
C1281 C 0.54098 0.79828 0.19706 0.0
C1282 C 0.52321 0.77031 0.24684 0.0
C1283 C 0.54472 0.81458 0.18802 0.0
C1284 C 0.54464 0.72783 0.29712 0.0
C1285 C 0.54096 0.73949 0.28562 0.0
C1286 C 0.54514 0.75698 0.2332 0.0
C1287 C 0.53653 0.79477 0.21896 0.0
C1288 C 0.53479 0.7784 0.22928 0.0
C1289 C 0.53566 0.73598 0.26406 0.0
C1290 C 0.53421 0.74955 0.25125 0.0
H1291 H 0.53744 0.83364 0.23185 0.0
H1292 H 0.5319 0.80566 0.24817 0.0
H1293 H 0.55496 0.77738 0.20937 0.0
H1294 H 0.53528 0.6966 0.25817 0.0
H1295 H 0.5294 0.71742 0.23772 0.0
C1296 C 0.72043 0.53905 0.20309 0.0
C1297 C 0.71735 0.55325 0.20726 0.0
C1298 C 0.73342 0.53744 0.21472 0.0
C1299 C 0.77432 0.56545 0.24612 0.0
H1300 H 0.76951 0.52022 0.26408 0.0
C1301 C 0.82618 0.56352 0.30075 0.0
C1302 C 0.83312 0.55271 0.29394 0.0
C1303 C 0.81069 0.56174 0.29151 0.0
C1304 C 0.77102 0.53291 0.25905 0.0
H1305 H 0.7248 0.57654 0.22703 0.0
H1306 H 0.74704 0.57352 0.24775 0.0
H1307 H 0.74471 0.52058 0.24539 0.0
H1308 H 0.82918 0.53144 0.27217 0.0
H1309 H 0.80185 0.52816 0.25617 0.0
H1310 H 0.80048 0.57781 0.25979 0.0
C1311 C 0.73984 0.56384 0.23524 0.0
C1312 C 0.75688 0.53313 0.24832 0.0
C1313 C 0.72705 0.56553 0.2235 0.0
C1314 C 0.82391 0.53964 0.27817 0.0
C1315 C 0.80832 0.53782 0.26892 0.0
C1316 C 0.78831 0.56523 0.25693 0.0
C1317 C 0.74348 0.55002 0.23069 0.0
C1318 C 0.75835 0.54944 0.24188 0.0
C1319 C 0.80184 0.54917 0.27516 0.0
C1320 C 0.78678 0.549 0.26363 0.0
H1321 H 0.71327 0.52961 0.19035 0.0
H1322 H 0.73603 0.52677 0.21066 0.0
H1323 H 0.77614 0.57821 0.24087 0.0
H1324 H 0.83295 0.57365 0.31296 0.0
H1325 H 0.80583 0.57049 0.29684 0.0
C1326 C 0.26334 0.822 0.30269 0.0
C1327 C 0.28115 0.82901 0.29608 0.0
C1328 C 0.24972 0.80655 0.29326 0.0
C1329 C 0.23886 0.76703 0.26066 0.0
H1330 H 0.19959 0.77311 0.24115 0.0
C1331 C 0.18251 0.71704 0.20382 0.0
C1332 C 0.16532 0.71439 0.20743 0.0
C1333 C 0.19706 0.72987 0.21567 0.0
C1334 C 0.21027 0.77102 0.24677 0.0
H1335 H 0.29868 0.82516 0.27455 0.0
H1336 H 0.27477 0.79788 0.25824 0.0
H1337 H 0.22424 0.79713 0.26058 0.0
H1338 H 0.14955 0.7224 0.22645 0.0
H1339 H 0.1747 0.74433 0.2476 0.0
H1340 H 0.2247 0.74076 0.24692 0.0
C1341 C 0.27148 0.80429 0.27096 0.0
C1342 C 0.22443 0.78483 0.25786 0.0
C1343 C 0.28517 0.81985 0.28038 0.0
C1344 C 0.16275 0.72433 0.22335 0.0
C1345 C 0.17717 0.73694 0.23533 0.0
C1346 C 0.22454 0.75306 0.24967 0.0
C1347 C 0.25359 0.79781 0.27693 0.0
C1348 C 0.23879 0.78295 0.26505 0.0
C1349 C 0.19457 0.74017 0.23133 0.0
C1350 C 0.21001 0.75488 0.24276 0.0
H1351 H 0.25987 0.82872 0.31483 0.0
H1352 H 0.23606 0.80168 0.29837 0.0
H1353 H 0.24981 0.76527 0.26606 0.0
H1354 H 0.18478 0.70966 0.19134 0.0
H1355 H 0.2103 0.73215 0.21203 0.0
C1356 C 0.56224 0.84004 0.76596 0.0
C1357 C 0.55122 0.83735 0.7837 0.0
C1358 C 0.56017 0.82554 0.75391 0.0
C1359 C 0.52998 0.77718 0.74336 0.0
H1360 H 0.57439 0.7796 0.72668 0.0
C1361 C 0.53652 0.71682 0.7134 0.0
C1362 C 0.54868 0.7203 0.69659 0.0
C1363 C 0.53481 0.73073 0.72242 0.0
C1364 C 0.56186 0.7788 0.73096 0.0
H1365 H 0.52948 0.81757 0.80303 0.0
H1366 H 0.526 0.79198 0.78215 0.0
H1367 H 0.57525 0.80453 0.74566 0.0
H1368 H 0.56802 0.7408 0.67547 0.0
H1369 H 0.56499 0.76501 0.69113 0.0
H1370 H 0.51668 0.75109 0.72897 0.0
C1371 C 0.53592 0.80534 0.77716 0.0
C1372 C 0.56234 0.79312 0.74182 0.0
C1373 C 0.53789 0.81994 0.78911 0.0
C1374 C 0.55861 0.73776 0.68849 0.0
C1375 C 0.55691 0.75161 0.69747 0.0
C1376 C 0.52951 0.76274 0.73255 0.0
C1377 C 0.54726 0.80798 0.75963 0.0
C1378 C 0.54643 0.79256 0.74804 0.0
C1379 C 0.54534 0.74833 0.71487 0.0
C1380 C 0.54547 0.76349 0.72613 0.0
H1381 H 0.57257 0.8534 0.76149 0.0
H1382 H 0.56888 0.82808 0.74025 0.0
H1383 H 0.51748 0.77639 0.74782 0.0
H1384 H 0.52903 0.7036 0.72035 0.0
H1385 H 0.52593 0.72787 0.73598 0.0
C1386 C 0.82476 0.56168 0.69292 0.0
C1387 C 0.83103 0.55028 0.69966 0.0
C1388 C 0.80925 0.56019 0.70172 0.0
C1389 C 0.76846 0.53103 0.73243 0.0
H1390 H 0.77317 0.57615 0.75063 0.0
C1391 C 0.71686 0.53653 0.78698 0.0
C1392 C 0.71364 0.55061 0.7826 0.0
C1393 C 0.73012 0.53513 0.7757 0.0
C1394 C 0.77149 0.56344 0.74535 0.0
H1395 H 0.82596 0.5284 0.72102 0.0
H1396 H 0.79863 0.52565 0.73625 0.0
H1397 H 0.79799 0.57592 0.73267 0.0
H1398 H 0.72123 0.57399 0.76292 0.0
H1399 H 0.74401 0.57135 0.74285 0.0
H1400 H 0.74185 0.51858 0.74517 0.0
C1401 C 0.80562 0.53553 0.72386 0.0
C1402 C 0.78575 0.56332 0.73509 0.0
C1403 C 0.82121 0.53705 0.71504 0.0
C1404 C 0.72355 0.56304 0.76657 0.0
C1405 C 0.73664 0.56157 0.7552 0.0
C1406 C 0.75408 0.53115 0.74263 0.0
C1407 C 0.79971 0.54734 0.71757 0.0
C1408 C 0.78437 0.54715 0.72842 0.0
C1409 C 0.74034 0.54782 0.75991 0.0
C1410 C 0.75544 0.5474 0.7491 0.0
H1411 H 0.83202 0.57196 0.68102 0.0
H1412 H 0.80486 0.56931 0.69636 0.0
H1413 H 0.76704 0.51838 0.72737 0.0
H1414 H 0.70961 0.52703 0.79963 0.0
H1415 H 0.7328 0.52453 0.7799 0.0
C1416 C 0.27954 0.83823 0.73215 0.0
C1417 C 0.2869 0.83618 0.71305 0.0
C1418 C 0.26693 0.82332 0.74347 0.0
C1419 C 0.2464 0.77425 0.74934 0.0
H1420 H 0.20613 0.77826 0.76974 0.0
C1421 C 0.17855 0.71455 0.7783 0.0
C1422 C 0.17037 0.71789 0.79578 0.0
C1423 C 0.19443 0.72836 0.76963 0.0
C1424 C 0.21739 0.77699 0.76444 0.0
H1425 H 0.2869 0.81695 0.69072 0.0
H1426 H 0.26461 0.79071 0.71044 0.0
H1427 H 0.23071 0.80347 0.75177 0.0
H1428 H 0.17267 0.7379 0.81853 0.0
H1429 H 0.20042 0.7619 0.80362 0.0
H1430 H 0.23266 0.74747 0.76179 0.0
C1431 C 0.26894 0.80389 0.71693 0.0
C1432 C 0.23151 0.79146 0.75414 0.0
C1433 C 0.28173 0.8189 0.70567 0.0
C1434 C 0.17867 0.73501 0.80497 0.0
C1435 C 0.1945 0.74875 0.79639 0.0
C1436 C 0.23216 0.75966 0.75966 0.0
C1437 C 0.26115 0.80598 0.73574 0.0
C1438 C 0.24624 0.79034 0.7466 0.0
C1439 C 0.20228 0.74571 0.77826 0.0
C1440 C 0.21758 0.76097 0.76744 0.0
H1441 H 0.28343 0.85144 0.73827 0.0
H1442 H 0.26148 0.82539 0.75814 0.0
H1443 H 0.25762 0.77301 0.74378 0.0
H1444 H 0.17223 0.70158 0.77059 0.0
H1445 H 0.20004 0.72569 0.75552 0.0
C1446 C 0.46471 0.18278 0.78666 0.0
C1447 C 0.45015 0.1655 0.78353 0.0
C1448 C 0.46611 0.19715 0.77471 0.0
C1449 C 0.43728 0.20991 0.74512 0.0
H1450 H 0.48187 0.2493 0.7239 0.0
C1451 C 0.43748 0.26315 0.69104 0.0
C1452 C 0.44902 0.28099 0.69702 0.0
C1453 C 0.4394 0.24941 0.69994 0.0
C1454 C 0.46936 0.23841 0.72985 0.0
H1455 H 0.426 0.14941 0.76524 0.0
H1456 H 0.42862 0.17428 0.74399 0.0
H1457 H 0.48192 0.22433 0.74256 0.0
H1458 H 0.47176 0.29847 0.71689 0.0
H1459 H 0.47524 0.27436 0.73234 0.0
H1460 H 0.42469 0.22383 0.73249 0.0
C1461 C 0.43877 0.17693 0.75591 0.0
C1462 C 0.46938 0.22415 0.74054 0.0
C1463 C 0.4373 0.16267 0.76796 0.0
C1464 C 0.46294 0.28491 0.71156 0.0
C1465 C 0.46488 0.2711 0.72049 0.0
C1466 C 0.43725 0.22402 0.73437 0.0
C1467 C 0.45295 0.1944 0.75948 0.0
C1468 C 0.45329 0.20969 0.74817 0.0
C1469 C 0.45284 0.2532 0.71514 0.0
C1470 C 0.45325 0.23836 0.7265 0.0
H1471 H 0.4746 0.18527 0.79889 0.0
H1472 H 0.47709 0.21047 0.778 0.0
H1473 H 0.42472 0.19925 0.7513 0.0
H1474 H 0.42669 0.25975 0.67977 0.0
H1475 H 0.43009 0.23574 0.69529 0.0
C1476 C 0.17857 0.46431 0.71269 0.0
C1477 C 0.16896 0.45119 0.69713 0.0
C1478 C 0.19473 0.46659 0.72063 0.0
C1479 C 0.21645 0.43999 0.72857 0.0
H1480 H 0.2585 0.48505 0.74335 0.0
C1481 C 0.27837 0.44102 0.76165 0.0
C1482 C 0.28644 0.45185 0.77962 0.0
C1483 C 0.26595 0.44306 0.74957 0.0
C1484 C 0.24679 0.47238 0.7394 0.0
H1485 H 0.16903 0.43085 0.67683 0.0
H1486 H 0.19729 0.43499 0.69039 0.0
H1487 H 0.23322 0.48504 0.72543 0.0
H1488 H 0.2881 0.47336 0.79916 0.0
H1489 H 0.26602 0.47682 0.77816 0.0
H1490 H 0.2296 0.42724 0.74281 0.0
C1491 C 0.19226 0.4433 0.69677 0.0
C1492 C 0.23236 0.47238 0.72916 0.0
C1493 C 0.17613 0.44096 0.68896 0.0
C1494 C 0.28225 0.46509 0.78508 0.0
C1495 C 0.26964 0.46705 0.77307 0.0
C1496 C 0.23076 0.43999 0.73879 0.0
C1497 C 0.20146 0.45574 0.71314 0.0
C1498 C 0.21708 0.45615 0.72357 0.0
C1499 C 0.26107 0.45576 0.75547 0.0
C1500 C 0.24613 0.45615 0.74426 0.0
H1501 H 0.17317 0.47213 0.71954 0.0
H1502 H 0.20145 0.47616 0.7334 0.0
H1503 H 0.20468 0.42725 0.725 0.0
H1504 H 0.28149 0.43077 0.75713 0.0
H1505 H 0.25985 0.4344 0.73586 0.0
C1506 C 0.72359 0.15922 0.72461 0.0
C1507 C 0.71399 0.16181 0.70824 0.0
C1508 C 0.73646 0.17374 0.73626 0.0
C1509 C 0.75344 0.22144 0.74921 0.0
H1510 H 0.79724 0.22075 0.76056 0.0
C1511 C 0.81981 0.28249 0.77933 0.0
C1512 C 0.82937 0.27882 0.7948 0.0
C1513 C 0.80438 0.26853 0.77003 0.0
C1514 C 0.78502 0.22105 0.75775 0.0
H1515 H 0.71035 0.18145 0.69085 0.0
H1516 H 0.7331 0.20706 0.71112 0.0
H1517 H 0.77292 0.19584 0.74176 0.0
H1518 H 0.83004 0.25786 0.81321 0.0
H1519 H 0.80315 0.23358 0.79708 0.0
H1520 H 0.7659 0.24696 0.765 0.0
C1521 C 0.73035 0.19375 0.71535 0.0
C1522 C 0.77105 0.20676 0.747 0.0
C1523 C 0.71733 0.17914 0.70377 0.0
C1524 C 0.82297 0.26106 0.80123 0.0
C1525 C 0.80762 0.24717 0.79197 0.0
C1526 C 0.76752 0.23585 0.75994 0.0
C1527 C 0.74023 0.19121 0.73152 0.0
C1528 C 0.75504 0.20669 0.74276 0.0
C1529 C 0.79839 0.2507 0.77593 0.0
C1530 C 0.78337 0.23569 0.76446 0.0
H1531 H 0.72119 0.14594 0.72834 0.0
H1532 H 0.74359 0.17128 0.74888 0.0
H1533 H 0.74122 0.22172 0.74628 0.0
H1534 H 0.82466 0.29599 0.77364 0.0
H1535 H 0.79762 0.27161 0.75753 0.0
C1536 C 0.40573 0.03814 0.17922 0.0
C1537 C 0.41596 0.05502 0.18871 0.0
C1538 C 0.39339 0.0236 0.19142 0.0
C1539 C 0.37292 0.01056 0.24654 0.0
H1540 H 0.37456 0.96746 0.23373 0.0
C1541 C 0.36871 0.95849 0.30786 0.0
C1542 C 0.3586 0.94032 0.30225 0.0
C1543 C 0.37023 0.9717 0.29364 0.0
C1544 C 0.37368 0.97928 0.23731 0.0
H1545 H 0.42078 0.07024 0.21803 0.0
H1546 H 0.40017 0.04483 0.23963 0.0
H1547 H 0.38746 0.99217 0.20865 0.0
H1548 H 0.34128 0.92171 0.27792 0.0
H1549 H 0.34441 0.94486 0.25289 0.0
H1550 H 0.36041 0.99784 0.27624 0.0
C1551 C 0.40104 0.04273 0.22266 0.0
C1552 C 0.38099 0.99349 0.22285 0.0
C1553 C 0.41301 0.05734 0.2103 0.0
C1554 C 0.34922 0.93559 0.28269 0.0
C1555 C 0.35099 0.9488 0.26835 0.0
C1556 C 0.36593 0.99642 0.26125 0.0
C1557 C 0.39143 0.02553 0.21354 0.0
C1558 C 0.38112 0.00952 0.22746 0.0
C1559 C 0.36188 0.96695 0.27348 0.0
C1560 C 0.36659 0.98083 0.2569 0.0
H1561 H 0.40757 0.03608 0.16248 0.0
H1562 H 0.38585 0.01073 0.18361 0.0
H1563 H 0.37235 0.02248 0.25046 0.0
H1564 H 0.37597 0.96255 0.32288 0.0
H1565 H 0.37882 0.98563 0.29787 0.0
C1566 C 0.3722 0.41154 0.18143 0.0
C1567 C 0.36061 0.41782 0.18737 0.0
C1568 C 0.37486 0.40025 0.1951 0.0
C1569 C 0.3785 0.39545 0.25105 0.0
H1570 H 0.38041 0.35265 0.23738 0.0
C1571 C 0.41126 0.36989 0.31008 0.0
C1572 C 0.42199 0.36363 0.3011 0.0
C1573 C 0.39922 0.3721 0.29729 0.0
C1574 C 0.38011 0.36469 0.24143 0.0
H1575 H 0.34179 0.41619 0.21165 0.0
H1576 H 0.34689 0.3969 0.23571 0.0
H1577 H 0.3675 0.36437 0.21159 0.0
H1578 H 0.42821 0.35419 0.27196 0.0
H1579 H 0.40817 0.35907 0.24935 0.0
H1580 H 0.39232 0.39693 0.27989 0.0
C1581 C 0.35376 0.40063 0.22041 0.0
C1582 C 0.37257 0.37126 0.22671 0.0
C1583 C 0.35087 0.41166 0.20661 0.0
C1584 C 0.42002 0.35898 0.2793 0.0
C1585 C 0.40837 0.36166 0.26637 0.0
C1586 C 0.3864 0.38918 0.26551 0.0
C1587 C 0.36616 0.39528 0.21504 0.0
C1588 C 0.37194 0.38682 0.23133 0.0
C1589 C 0.39808 0.36864 0.27508 0.0
C1590 C 0.38762 0.37388 0.26077 0.0
H1591 H 0.37979 0.41594 0.16664 0.0
H1592 H 0.38457 0.39636 0.19072 0.0
H1593 H 0.37839 0.40766 0.25481 0.0
H1594 H 0.41235 0.37332 0.32696 0.0
H1595 H 0.39116 0.37695 0.30479 0.0
C1596 C 0.0619 0.41398 0.27509 0.0
C1597 C 0.05683 0.4167 0.29557 0.0
C1598 C 0.04893 0.40324 0.26008 0.0
C1599 C 0.00183 0.36914 0.25215 0.0
H1600 H 0.00412 0.39734 0.2026 0.0
C1601 C 0.93941 0.3554 0.20471 0.0
C1602 C 0.94108 0.36152 0.18351 0.0
C1603 C 0.95447 0.35817 0.21617 0.0
C1604 C 0.00338 0.38894 0.21591 0.0
H1605 H 0.03435 0.40924 0.31691 0.0
H1606 H 0.01173 0.39022 0.29075 0.0
H1607 H 0.02916 0.40877 0.22722 0.0
H1608 H 0.95947 0.37388 0.15701 0.0
H1609 H 0.98564 0.37789 0.17659 0.0
H1610 H 0.97601 0.3493 0.24098 0.0
C1611 C 0.02571 0.39651 0.28632 0.0
C1612 C 0.01778 0.3956 0.2301 0.0
C1613 C 0.03864 0.4075 0.30121 0.0
C1614 C 0.95786 0.36929 0.17347 0.0
C1615 C 0.97287 0.37168 0.18477 0.0
C1616 C 0.98753 0.36228 0.2377 0.0
C1617 C 0.03072 0.39475 0.26543 0.0
C1618 C 0.01688 0.38603 0.24869 0.0
C1619 C 0.97151 0.3668 0.20655 0.0
C1620 C 0.98784 0.37239 0.21979 0.0
H1621 H 0.07582 0.42088 0.27027 0.0
H1622 H 0.05308 0.40204 0.24405 0.0
H1623 H 0.00093 0.36147 0.26634 0.0
H1624 H 0.92664 0.3494 0.21289 0.0
H1625 H 0.9528 0.35441 0.23294 0.0
C1626 C 0.58647 0.93864 0.21138 0.0
C1627 C 0.5839 0.94088 0.18963 0.0
C1628 C 0.59875 0.9532 0.22361 0.0
C1629 C 0.62031 0.00259 0.22253 0.0
H1630 H 0.63937 0.99828 0.27712 0.0
C1631 C 0.65148 0.06118 0.28129 0.0
C1632 C 0.64186 0.05676 0.30068 0.0
C1633 C 0.64989 0.04773 0.26746 0.0
C1634 C 0.63429 -0.00032 0.26179 0.0
H1635 H 0.59329 0.95947 0.16301 0.0
H1636 H 0.61556 0.98461 0.18389 0.0
H1637 H 0.62722 0.97323 0.25191 0.0
H1638 H 0.62431 0.03486 0.32161 0.0
H1639 H 0.62174 0.0114 0.29751 0.0
H1640 H 0.6273 0.02897 0.23251 0.0
C1641 C 0.60749 0.97193 0.19193 0.0
C1642 C 0.62718 0.98531 0.2474 0.0
C1643 C 0.59485 0.9575 0.17987 0.0
C1644 C 0.63175 0.03868 0.3067 0.0
C1645 C 0.63039 0.02525 0.293 0.0
C1646 C 0.62773 0.01701 0.23669 0.0
C1647 C 0.60902 0.97021 0.21419 0.0
C1648 C 0.61952 0.98635 0.22787 0.0
C1649 C 0.63893 0.02966 0.27293 0.0
C1650 C 0.63426 0.0155 0.25671 0.0
H1651 H 0.57812 0.92594 0.2193 0.0
H1652 H 0.5993 0.95126 0.24069 0.0
H1653 H 0.61427 0.00394 0.20797 0.0
H1654 H 0.65944 0.07499 0.27621 0.0
H1655 H 0.65665 0.05144 0.25208 0.0
C1656 C 0.59503 0.63555 0.31561 0.0
C1657 C 0.58457 0.64186 0.30597 0.0
C1658 C 0.60782 0.63393 0.30364 0.0
C1659 C 0.62111 0.61695 0.27236 0.0
H1660 H 0.6413 0.64198 0.2189 0.0
C1661 C 0.65265 0.59096 0.21216 0.0
C1662 C 0.6429 0.58604 0.19287 0.0
C1663 C 0.65114 0.60258 0.22647 0.0
C1664 C 0.63591 0.63503 0.23393 0.0
H1665 H 0.57981 0.65229 0.27664 0.0
H1666 H 0.60119 0.64846 0.25539 0.0
H1667 H 0.62911 0.65438 0.24474 0.0
H1668 H 0.62519 0.59066 0.17259 0.0
H1669 H 0.6228 0.6112 0.19751 0.0
H1670 H 0.6279 0.59763 0.26144 0.0
C1671 C 0.60017 0.64534 0.27233 0.0
C1672 C 0.62878 0.642 0.24867 0.0
C1673 C 0.58776 0.64743 0.28448 0.0
C1674 C 0.63274 0.59408 0.18741 0.0
C1675 C 0.63148 0.60594 0.20157 0.0
C1676 C 0.6286 0.61024 0.25788 0.0
C1677 C 0.60999 0.63801 0.28156 0.0
C1678 C 0.62065 0.63268 0.26775 0.0
C1679 C 0.64014 0.60975 0.22155 0.0
C1680 C 0.63551 0.61889 0.23825 0.0
H1681 H 0.59299 0.63143 0.33228 0.0
H1682 H 0.6155 0.62882 0.31155 0.0
H1683 H 0.61474 0.6091 0.28655 0.0
H1684 H 0.66064 0.58504 0.21681 0.0
H1685 H 0.65796 0.60537 0.24178 0.0
C1686 C 0.96161 0.59609 0.314 0.0
C1687 C 0.94466 0.58581 0.30472 0.0
C1688 C 0.97595 0.60868 0.30174 0.0
C1689 C 0.98818 0.62951 0.24663 0.0
H1690 H 0.0318 0.62866 0.25848 0.0
C1691 C 0.03944 0.63293 0.1847 0.0
C1692 C 0.05767 0.64291 0.19007 0.0
C1693 C 0.02645 0.632 0.19886 0.0
C1694 C 0.01984 0.62935 0.25517 0.0
H1695 H 0.92913 0.58109 0.27569 0.0
H1696 H 0.95418 0.60207 0.25395 0.0
H1697 H 0.00747 0.61552 0.28399 0.0
H1698 H 0.07662 0.66087 0.21372 0.0
H1699 H 0.05386 0.65879 0.23863 0.0
H1700 H 0.00038 0.64199 0.2167 0.0
C1701 C 0.9565 0.6011 0.27083 0.0
C1702 C 0.00583 0.62188 0.26989 0.0
C1703 C 0.94208 0.5889 0.28327 0.0
C1704 C 0.06269 0.65299 0.20913 0.0
C1705 C 0.0497 0.65182 0.22342 0.0
C1706 C 0.00211 0.63663 0.23165 0.0
C1707 C 0.97377 0.61081 0.27973 0.0
C1708 C 0.98959 0.62141 0.26562 0.0
C1709 C 0.03148 0.64084 0.21871 0.0
C1710 C 0.0179 0.63625 0.23564 0.0
H1711 H 0.96387 0.59414 0.33064 0.0
H1712 H 0.98886 0.61629 0.30942 0.0
H1713 H 0.97611 0.62986 0.24297 0.0
H1714 H 0.03515 0.62514 0.17005 0.0
H1715 H 0.01247 0.62334 0.19495 0.0
C1716 C 0.59316 0.94161 0.79053 0.0
C1717 C 0.58352 0.94508 0.80614 0.0
C1718 C 0.6052 0.95526 0.77701 0.0
C1719 C 0.62794 0.0046 0.76775 0.0
H1720 H 0.61934 0.99078 0.70784 0.0
C1721 C 0.65018 0.05786 0.70182 0.0
C1722 C 0.63653 0.05459 0.68708 0.0
C1723 C 0.64882 0.04414 0.71502 0.0
C1724 C 0.62198 0.99486 0.72449 0.0
H1725 H 0.57993 0.96589 0.82076 0.0
H1726 H 0.60051 0.98947 0.79705 0.0
H1727 H 0.60791 0.96781 0.73545 0.0
H1728 H 0.61133 0.03407 0.67374 0.0
H1729 H 0.60877 0.01038 0.69696 0.0
H1730 H 0.64074 0.03166 0.75684 0.0
C1731 C 0.59901 0.97631 0.79532 0.0
C1732 C 0.61563 0.98168 0.74035 0.0
C1733 C 0.58705 0.9627 0.80885 0.0
C1734 C 0.62205 0.03709 0.68496 0.0
C1735 C 0.62067 0.02343 0.69819 0.0
C1736 C 0.63417 0.01779 0.75189 0.0
C1737 C 0.60783 0.97265 0.77881 0.0
C1738 C 0.6179 0.98641 0.76219 0.0
C1739 C 0.63378 0.02689 0.71379 0.0
C1740 C 0.63061 0.01306 0.73011 0.0
H1741 H 0.59091 0.92821 0.78817 0.0
H1742 H 0.61201 0.95207 0.76469 0.0
H1743 H 0.63024 0.00869 0.78442 0.0
H1744 H 0.66163 0.07115 0.70369 0.0
H1745 H 0.65929 0.04718 0.72663 0.0
C1746 C 0.63129 0.59218 0.8122 0.0
C1747 C 0.63748 0.58162 0.80257 0.0
C1748 C 0.6295 0.60482 0.80012 0.0
C1749 C 0.63713 0.62531 0.7449 0.0
H1750 H 0.5936 0.62579 0.75867 0.0
C1751 C 0.58871 0.6305 0.68529 0.0
C1752 C 0.58173 0.64154 0.691 0.0
C1753 C 0.60058 0.62876 0.69896 0.0
C1754 C 0.60598 0.62608 0.75482 0.0
H1755 H 0.64741 0.57642 0.77313 0.0
H1756 H 0.64323 0.5975 0.7517 0.0
H1757 H 0.60484 0.61218 0.78345 0.0
H1758 H 0.58259 0.66032 0.71482 0.0
H1759 H 0.60289 0.65678 0.73896 0.0
H1760 H 0.63703 0.63787 0.71518 0.0
C1761 C 0.64037 0.59671 0.76869 0.0
C1762 C 0.61256 0.61835 0.76912 0.0
C1763 C 0.64265 0.58446 0.78095 0.0
C1764 C 0.58771 0.65167 0.70998 0.0
C1765 C 0.5993 0.64967 0.72381 0.0
C1766 C 0.63025 0.63267 0.73034 0.0
C1767 C 0.63328 0.60672 0.77796 0.0
C1768 C 0.628 0.61745 0.76417 0.0
C1769 C 0.60542 0.63782 0.71868 0.0
C1770 C 0.61444 0.63278 0.73505 0.0
H1771 H 0.62747 0.5904 0.82897 0.0
H1772 H 0.62459 0.61267 0.80806 0.0
H1773 H 0.64929 0.62532 0.74071 0.0
H1774 H 0.58445 0.62264 0.6707 0.0
H1775 H 0.60503 0.61944 0.69476 0.0
C1776 C 0.04015 0.63296 0.79972 0.0
C1777 C 0.05833 0.64182 0.79404 0.0
C1778 C 0.02729 0.63138 0.78495 0.0
C1779 C 0.01929 0.62371 0.72931 0.0
H1780 H 0.97776 0.62882 0.73912 0.0
C1781 C 0.95864 0.58753 0.6742 0.0
C1782 C 0.94196 0.57929 0.68447 0.0
C1783 C 0.97384 0.60061 0.68479 0.0
C1784 C 0.9892 0.62717 0.73615 0.0
H1785 H 0.07741 0.65691 0.76895 0.0
H1786 H 0.05476 0.65356 0.74288 0.0
H1787 H 0.00285 0.64231 0.76419 0.0
H1788 H 0.92785 0.5787 0.71348 0.0
H1789 H 0.95434 0.60058 0.73246 0.0
H1790 H 0.00536 0.60728 0.70261 0.0
C1791 C 0.05058 0.6481 0.75886 0.0
C1792 C 0.00361 0.63507 0.75041 0.0
C1793 C 0.06349 0.65 0.77378 0.0
C1794 C 0.94057 0.58489 0.70516 0.0
C1795 C 0.95582 0.59761 0.71598 0.0
C1796 C 0.00476 0.61547 0.71537 0.0
C1797 C 0.03236 0.63835 0.76416 0.0
C1798 C 0.01858 0.63303 0.74735 0.0
C1799 C 0.97276 0.60534 0.70615 0.0
C1800 C 0.98927 0.61664 0.71891 0.0
H1801 H 0.03581 0.62663 0.81527 0.0
H1802 H 0.01329 0.62366 0.78932 0.0
H1803 H 0.03061 0.62175 0.72679 0.0
H1804 H 0.96 0.58363 0.65809 0.0
H1805 H 0.9865 0.60661 0.6764 0.0
C1806 C 0.41501 0.06417 0.78161 0.0
C1807 C 0.41939 0.05949 0.80139 0.0
C1808 C 0.40375 0.05092 0.76719 0.0
C1809 C 0.371 0.00338 0.76009 0.0
H1810 H 0.39729 0.00724 0.70807 0.0
C1811 C 0.35679 0.94217 0.70953 0.0
C1812 C 0.36214 0.94438 0.68796 0.0
C1813 C 0.35966 0.95688 0.72182 0.0
C1814 C 0.38938 0.00604 0.7221 0.0
H1815 H 0.41427 0.03732 0.82228 0.0
H1816 H 0.39434 0.01418 0.79714 0.0
H1817 H 0.40904 0.03201 0.73308 0.0
H1818 H 0.37313 0.9633 0.66173 0.0
H1819 H 0.37719 0.98884 0.68277 0.0
H1820 H 0.35129 0.9774 0.7492 0.0
C1821 C 0.39975 0.0281 0.7928 0.0
C1822 C 0.39624 0.02028 0.73652 0.0
C1823 C 0.41125 0.04133 0.8071 0.0
C1824 C 0.36917 0.9613 0.67845 0.0
C1825 C 0.3716 0.97595 0.69059 0.0
C1826 C 0.3639 0.98922 0.74542 0.0
C1827 C 0.39641 0.03279 0.77247 0.0
C1828 C 0.38739 0.01887 0.75591 0.0
C1829 C 0.36756 0.97409 0.71267 0.0
C1830 C 0.37332 0.99013 0.72655 0.0
H1831 H 0.42103 0.07804 0.77674 0.0
H1832 H 0.40131 0.05482 0.75159 0.0
H1833 H 0.36391 0.00207 0.77493 0.0
H1834 H 0.35138 0.92925 0.71728 0.0
H1835 H 0.35657 0.95483 0.73877 0.0
C1836 C 0.37193 0.41251 0.80841 0.0
C1837 C 0.36104 0.41963 0.80249 0.0
C1838 C 0.37414 0.40105 0.79454 0.0
C1839 C 0.37758 0.39611 0.73837 0.0
H1840 H 0.37734 0.35224 0.75226 0.0
C1841 C 0.41633 0.35692 0.7101 0.0
C1842 C 0.41837 0.36158 0.6883 0.0
C1843 C 0.405 0.36006 0.72307 0.0
C1844 C 0.37763 0.36456 0.74814 0.0
H1845 H 0.34309 0.41944 0.77795 0.0
H1846 H 0.34738 0.3998 0.75356 0.0
H1847 H 0.36548 0.36501 0.77804 0.0
H1848 H 0.4091 0.37163 0.66245 0.0
H1849 H 0.38844 0.37606 0.68468 0.0
H1850 H 0.39093 0.39675 0.70944 0.0
C1851 C 0.35407 0.40303 0.76899 0.0
C1852 C 0.37069 0.37175 0.76286 0.0
C1853 C 0.35163 0.41426 0.78297 0.0
C1854 C 0.40795 0.3682 0.67932 0.0
C1855 C 0.39623 0.37086 0.69214 0.0
C1856 C 0.38485 0.38919 0.7239 0.0
C1857 C 0.36569 0.39672 0.77443 0.0
C1858 C 0.37086 0.38771 0.75817 0.0
C1859 C 0.39513 0.36752 0.71438 0.0
C1860 C 0.38528 0.37347 0.72871 0.0
H1861 H 0.37925 0.4163 0.82341 0.0
H1862 H 0.38327 0.39642 0.799 0.0
H1863 H 0.37809 0.40861 0.73454 0.0
H1864 H 0.4243 0.35186 0.71742 0.0
H1865 H 0.40478 0.3575 0.7401 0.0
C1866 C 0.03935 0.40626 0.68336 0.0
C1867 C 0.05621 0.4172 0.69253 0.0
C1868 C 0.02494 0.39451 0.69614 0.0
C1869 C 0.9948 0.3834 0.72714 0.0
H1870 H -0.00074 0.36564 0.78261 0.0
C1871 C 0.93585 0.35087 0.78552 0.0
C1872 C 0.93955 0.36061 0.80476 0.0
C1873 C 0.94973 0.35329 0.77194 0.0
C1874 C 0.99784 0.37041 0.76706 0.0
H1875 H 0.07158 0.42396 0.72194 0.0
H1876 H 0.04634 0.40438 0.74452 0.0
H1877 H 0.02422 0.37717 0.75731 0.0
H1878 H 0.96073 0.37949 0.8256 0.0
H1879 H 0.98502 0.38349 0.8019 0.0
H1880 H 0.9684 0.37654 0.73693 0.0
C1881 C 0.04417 0.40422 0.72741 0.0
C1882 C 0.01215 0.37715 0.75261 0.0
C1883 C 0.05868 0.41558 0.71449 0.0
C1884 C 0.95746 0.37191 0.81081 0.0
C1885 C 0.97136 0.3741 0.79735 0.0
C1886 C 0.98043 0.37632 0.74136 0.0
C1887 C 0.02696 0.39392 0.71851 0.0
C1888 C 0.011 0.38422 0.73267 0.0
C1889 C 0.96757 0.36523 0.77752 0.0
C1890 C 0.98197 0.3702 0.76163 0.0
H1891 H 0.0372 0.4071 0.66637 0.0
H1892 H 0.01209 0.38636 0.68852 0.0
H1893 H 0.99339 0.38904 0.71226 0.0
H1894 H 0.9222 0.34201 0.78042 0.0
H1895 H 0.94653 0.34629 0.75672 0.0
C1896 C 0.5137 0.10427 0.18873 0.0
C1897 C 0.50335 0.11232 0.19309 0.0
C1898 C 0.52867 0.10828 0.20116 0.0
C1899 C 0.54671 0.12333 0.25503 0.0
H1900 H 0.58825 0.12373 0.23071 0.0
C1901 C 0.6163 0.12504 0.28297 0.0
C1902 C 0.60902 0.11193 0.29913 0.0
C1903 C 0.60522 0.1291 0.27068 0.0
C1904 C 0.57692 0.12398 0.23779 0.0
H1905 H 0.50103 0.13141 0.21352 0.0
H1906 H 0.52731 0.13845 0.23528 0.0
H1907 H 0.56607 0.12423 0.20701 0.0
H1908 H 0.58446 0.0933 0.31554 0.0
H1909 H 0.56527 0.10019 0.29404 0.0
H1910 H 0.55745 0.12284 0.28581 0.0
C1911 C 0.52367 0.1289 0.22232 0.0
C1912 C 0.5641 0.12406 0.22419 0.0
C1913 C 0.50866 0.12491 0.2098 0.0
C1914 C 0.59054 0.10343 0.30318 0.0
C1915 C 0.57952 0.1075 0.29096 0.0
C1916 C 0.55954 0.12327 0.26863 0.0
C1917 C 0.5337 0.12045 0.21828 0.0
C1918 C 0.54859 0.1232 0.23265 0.0
C1919 C 0.58667 0.12019 0.27438 0.0
C1920 C 0.57452 0.12306 0.26015 0.0
H1921 H 0.51006 0.09455 0.17597 0.0
H1922 H 0.53591 0.10132 0.19781 0.0
H1923 H 0.53489 0.12258 0.26208 0.0
H1924 H 0.63049 0.13191 0.27951 0.0
H1925 H 0.61115 0.13907 0.25814 0.0
C1926 C 0.49487 0.61191 0.27807 0.0
C1927 C 0.49635 0.60784 0.29949 0.0
C1928 C 0.47997 0.60022 0.26584 0.0
C1929 C 0.44301 0.55273 0.26577 0.0
H1930 H 0.4268 0.56856 0.21684 0.0
C1931 C 0.38279 0.50443 0.21388 0.0
C1932 C 0.38809 0.50366 0.19277 0.0
C1933 C 0.39408 0.51848 0.22743 0.0
C1934 C 0.43116 0.56404 0.23057 0.0
H1935 H 0.48301 0.58911 0.32543 0.0
H1936 H 0.45659 0.56933 0.30466 0.0
H1937 H 0.44988 0.59071 0.24041 0.0
H1938 H 0.40876 0.5175 0.16884 0.0
H1939 H 0.42824 0.54237 0.19241 0.0
H1940 H 0.42396 0.52607 0.25603 0.0
C1941 C 0.46723 0.58098 0.2968 0.0
C1942 C 0.44449 0.57667 0.24397 0.0
C1943 C 0.48232 0.59239 0.30881 0.0
C1944 C 0.40439 0.51773 0.18508 0.0
C1945 C 0.41547 0.53197 0.19847 0.0
C1946 C 0.42943 0.54018 0.25269 0.0
C1947 C 0.46603 0.58444 0.27496 0.0
C1948 C 0.45084 0.57118 0.26157 0.0
C1949 C 0.41062 0.5322 0.2199 0.0
C1950 C 0.4236 0.54571 0.23482 0.0
H1951 H 0.50556 0.62373 0.27051 0.0
H1952 H 0.47976 0.6033 0.24905 0.0
H1953 H 0.44774 0.54784 0.27874 0.0
H1954 H 0.37033 0.49373 0.22025 0.0
H1955 H 0.39012 0.51843 0.24394 0.0
C1956 C 0.89502 0.48818 0.30248 0.0
C1957 C 0.88693 0.49857 0.29868 0.0
C1958 C 0.89068 0.47318 0.28996 0.0
C1959 C 0.87413 0.43759 0.26736 0.0
H1960 H 0.87369 0.4436 0.20577 0.0
C1961 C 0.87147 0.38464 0.20862 0.0
C1962 C 0.88391 0.39163 0.19173 0.0
C1963 C 0.86783 0.39591 0.22111 0.0
C1964 C 0.87374 0.44169 0.22295 0.0
H1965 H 0.86745 0.50097 0.27911 0.0
H1966 H 0.85981 0.4746 0.25716 0.0
H1967 H 0.87472 0.46648 0.2296 0.0
H1968 H 0.90186 0.41592 0.17436 0.0
H1969 H 0.89575 0.43546 0.19625 0.0
H1970 H 0.87421 0.41334 0.26073 0.0
C1971 C 0.86966 0.47824 0.26977 0.0
C1972 C 0.87411 0.4547 0.23661 0.0
C1973 C 0.874 0.4933 0.28238 0.0
C1974 C 0.89222 0.41004 0.18725 0.0
C1975 C 0.88859 0.42127 0.1997 0.0
C1976 C 0.87381 0.42461 0.25371 0.0
C1977 C 0.8781 0.46813 0.27331 0.0
C1978 C 0.87485 0.45305 0.25896 0.0
C1979 C 0.87652 0.4144 0.21695 0.0
C1980 C 0.87413 0.42677 0.23134 0.0
H1981 H 0.90501 0.49179 0.31492 0.0
H1982 H 0.89766 0.46589 0.2929 0.0
H1983 H 0.8744 0.43579 0.28453 0.0
H1984 H 0.86477 0.37053 0.21245 0.0
H1985 H 0.85833 0.39018 0.23416 0.0
C1986 C 0.38232 0.87136 0.28637 0.0
C1987 C 0.3895 0.88401 0.30303 0.0
C1988 C 0.39346 0.86752 0.27387 0.0
C1989 C 0.43908 0.87316 0.27163 0.0
H1990 H 0.43345 0.87473 0.21009 0.0
C1991 C 0.4858 0.89452 0.19209 0.0
C1992 C 0.49579 0.88597 0.19572 0.0
C1993 C 0.47087 0.89044 0.20465 0.0
C1994 C 0.43517 0.87421 0.22724 0.0
H1995 H 0.4139 0.90192 0.3202 0.0
H1996 H 0.43317 0.89539 0.29841 0.0
H1997 H 0.41098 0.87437 0.23406 0.0
H1998 H 0.49755 0.86601 0.21507 0.0
H1999 H 0.47137 0.85887 0.23704 0.0
H2000 H 0.46375 0.87397 0.26483 0.0
C2001 C 0.41897 0.88829 0.29505 0.0
C2002 C 0.42218 0.87379 0.24098 0.0
C2003 C 0.40789 0.89216 0.30745 0.0
C2004 C 0.49021 0.87291 0.21191 0.0
C2005 C 0.47525 0.86885 0.22454 0.0
C2006 C 0.45207 0.87359 0.25789 0.0
C2007 C 0.41196 0.87617 0.27787 0.0
C2008 C 0.42424 0.87377 0.26335 0.0
C2009 C 0.46552 0.87771 0.22117 0.0
C2010 C 0.45051 0.87463 0.23555 0.0
H2011 H 0.36819 0.86478 0.2826 0.0
H2012 H 0.38763 0.85799 0.26087 0.0
H2013 H 0.44092 0.87289 0.28878 0.0
H2014 H 0.48966 0.90462 0.17974 0.0
H2015 H 0.46387 0.89773 0.20183 0.0
C2016 C 0.59298 0.4882 0.19149 0.0
C2017 C 0.61154 0.49851 0.19478 0.0
C2018 C 0.58253 0.47315 0.20406 0.0
C2019 C 0.56395 0.43744 0.2266 0.0
H2020 H 0.57143 0.44346 0.28807 0.0
C2021 C 0.51426 0.38463 0.28566 0.0
C2022 C 0.50873 0.39175 0.30231 0.0
C2023 C 0.52933 0.39578 0.27332 0.0
C2024 C 0.56921 0.44154 0.27093 0.0
H2025 H 0.63374 0.5007 0.21349 0.0
H2026 H 0.61539 0.4743 0.23551 0.0
H2027 H 0.59286 0.46637 0.26387 0.0
H2028 H 0.51527 0.41607 0.31972 0.0
H2029 H 0.54125 0.43541 0.29814 0.0
H2030 H 0.5398 0.41313 0.23365 0.0
C2031 C 0.60897 0.47802 0.22326 0.0
C2032 C 0.58159 0.45457 0.25706 0.0
C2033 C 0.61948 0.4931 0.21059 0.0
C2034 C 0.51907 0.41011 0.30697 0.0
C2035 C 0.5341 0.42121 0.29469 0.0
C2036 C 0.55157 0.42442 0.24046 0.0
C2037 C 0.59035 0.468 0.22027 0.0
C2038 C 0.5788 0.45292 0.23476 0.0
C2039 C 0.53921 0.41426 0.27744 0.0
C2040 C 0.55379 0.42658 0.26281 0.0
H2041 H 0.5864 0.49192 0.17944 0.0
H2042 H 0.5682 0.46591 0.20155 0.0
H2043 H 0.56157 0.43565 0.20947 0.0
H2044 H 0.50668 0.37054 0.28171 0.0
H2045 H 0.53305 0.38999 0.2603 0.0
C2046 C 0.09772 0.5893 0.19836 0.0
C2047 C 0.10937 0.60792 0.19843 0.0
C2048 C 0.10048 0.57829 0.21224 0.0
C2049 C 0.13289 0.57365 0.24477 0.0
H2050 H 0.09058 0.53985 0.27623 0.0
C2051 C 0.12325 0.50917 0.28677 0.0
C2052 C 0.11291 0.50378 0.3056 0.0
C2053 C 0.12605 0.5245 0.27572 0.0
C2054 C 0.10261 0.54934 0.26783 0.0
H2055 H 0.13352 0.62946 0.21262 0.0
H2056 H 0.13838 0.60995 0.237 0.0
H2057 H 0.08916 0.56147 0.25261 0.0
H2058 H 0.0989 0.51114 0.32872 0.0
H2059 H 0.10401 0.53785 0.30972 0.0
H2060 H 0.14622 0.56115 0.25987 0.0
C2061 C 0.12709 0.60405 0.22612 0.0
C2062 C 0.10173 0.5616 0.25413 0.0
C2063 C 0.12425 0.61519 0.21226 0.0
C2064 C 0.10662 0.51472 0.31403 0.0
C2065 C 0.10953 0.53003 0.30312 0.0
C2066 C 0.13375 0.5612 0.25844 0.0
C2067 C 0.115 0.58555 0.22649 0.0
C2068 C 0.11675 0.57369 0.24223 0.0
C2069 C 0.11865 0.5347 0.28343 0.0
C2070 C 0.11854 0.54883 0.26999 0.0
H2071 H 0.08619 0.58317 0.18787 0.0
H2072 H 0.09111 0.56403 0.21198 0.0
H2073 H 0.14464 0.58283 0.2357 0.0
H2074 H 0.12833 0.50105 0.27994 0.0
H2075 H 0.1331 0.52775 0.26054 0.0
C2076 C 0.49171 0.87506 0.78391 0.0
C2077 C 0.49647 0.88733 0.8009 0.0
C2078 C 0.47695 0.87107 0.77094 0.0
C2079 C 0.45439 0.8767 0.73761 0.0
H2080 H 0.41204 0.87538 0.7607 0.0
C2081 C 0.4106 0.89586 0.68798 0.0
C2082 C 0.39209 0.88721 0.6918 0.0
C2083 C 0.42161 0.89195 0.70048 0.0
C2084 C 0.42361 0.8754 0.75395 0.0
H2085 H 0.48899 0.90452 0.81805 0.0
H2086 H 0.46357 0.89778 0.79539 0.0
H2087 H 0.43385 0.8749 0.78504 0.0
H2088 H 0.37053 0.86709 0.71122 0.0
H2089 H 0.38982 0.86018 0.73297 0.0
H2090 H 0.44421 0.87735 0.70652 0.0
C2091 C 0.47106 0.89105 0.79217 0.0
C2092 C 0.43621 0.87534 0.76792 0.0
C2093 C 0.48578 0.89504 0.80507 0.0
C2094 C 0.38476 0.8741 0.70795 0.0
C2095 C 0.39581 0.87018 0.72047 0.0
C2096 C 0.44175 0.87671 0.72363 0.0
C2097 C 0.46661 0.87922 0.77477 0.0
C2098 C 0.452 0.87651 0.75994 0.0
C2099 C 0.4144 0.87926 0.71708 0.0
C2100 C 0.42647 0.87658 0.73166 0.0
H2101 H 0.4996 0.86882 0.78031 0.0
H2102 H 0.47375 0.86177 0.75777 0.0
H2103 H 0.46643 0.8777 0.73092 0.0
H2104 H 0.41671 0.90601 0.67566 0.0
H2105 H 0.43589 0.8994 0.69762 0.0
C2106 C 0.51562 0.40708 0.68324 0.0
C2107 C 0.50493 0.38874 0.68775 0.0
C2108 C 0.53061 0.41791 0.69572 0.0
C2109 C 0.5475 0.42054 0.75015 0.0
H2110 H 0.58922 0.46232 0.72718 0.0
C2111 C 0.61555 0.48887 0.78063 0.0
C2112 C 0.60762 0.4942 0.79653 0.0
C2113 C 0.60504 0.47387 0.76784 0.0
C2114 C 0.57784 0.45057 0.73389 0.0
H2115 H 0.50221 0.36721 0.70827 0.0
H2116 H 0.52854 0.38619 0.73007 0.0
H2117 H 0.56788 0.43962 0.70277 0.0
H2118 H 0.58245 0.48759 0.81184 0.0
H2119 H 0.56425 0.46177 0.78949 0.0
H2120 H 0.55734 0.43159 0.78125 0.0
C2121 C 0.52512 0.39219 0.717 0.0
C2122 C 0.5655 0.43765 0.71988 0.0
C2123 C 0.51008 0.38131 0.70446 0.0
C2124 C 0.58905 0.48392 0.79974 0.0
C2125 C 0.57859 0.46897 0.78702 0.0
C2126 C 0.55985 0.43343 0.76415 0.0
C2127 C 0.53534 0.41068 0.71302 0.0
C2128 C 0.5499 0.42277 0.72783 0.0
C2129 C 0.5864 0.46387 0.77077 0.0
C2130 C 0.57487 0.44887 0.75616 0.0
H2131 H 0.51213 0.41326 0.67044 0.0
H2132 H 0.53801 0.43212 0.69236 0.0
H2133 H 0.5356 0.40931 0.75683 0.0
H2134 H 0.62982 0.49642 0.77779 0.0
H2135 H 0.61147 0.47019 0.75556 0.0
C2136 C 0.10678 0.51522 0.68771 0.0
C2137 C 0.1145 0.50457 0.69207 0.0
C2138 C 0.11146 0.53055 0.69976 0.0
C2139 C 0.1275 0.54894 0.75315 0.0
H2140 H 0.12757 0.59034 0.72885 0.0
C2141 C 0.12748 0.6177 0.78114 0.0
C2142 C 0.11397 0.60994 0.79678 0.0
C2143 C 0.1322 0.60703 0.76902 0.0
C2144 C 0.12794 0.57907 0.73591 0.0
H2145 H 0.1338 0.50215 0.71197 0.0
H2146 H 0.14199 0.52904 0.73308 0.0
H2147 H 0.12807 0.56815 0.70512 0.0
H2148 H 0.09539 0.58501 0.81255 0.0
H2149 H 0.10347 0.56656 0.79143 0.0
H2150 H 0.127 0.55967 0.78392 0.0
C2151 C 0.13218 0.52536 0.72042 0.0
C2152 C 0.12802 0.56625 0.7223 0.0
C2153 C 0.12752 0.51 0.70828 0.0
C2154 C 0.1058 0.59145 0.80058 0.0
C2155 C 0.11056 0.58085 0.78859 0.0
C2156 C 0.12743 0.56176 0.76675 0.0
C2157 C 0.12398 0.53565 0.71649 0.0
C2158 C 0.12718 0.55074 0.73077 0.0
C2159 C 0.12361 0.58845 0.77245 0.0
C2160 C 0.12702 0.57665 0.75826 0.0
H2161 H 0.09676 0.51151 0.6753 0.0
H2162 H 0.10468 0.53799 0.6965 0.0
H2163 H 0.12677 0.53713 0.7602 0.0
H2164 H 0.13409 0.63192 0.77788 0.0
H2165 H 0.14241 0.61328 0.75679 0.0
C2166 C 0.51619 0.10732 0.80629 0.0
C2167 C 0.5064 0.11607 0.80266 0.0
C2168 C 0.5311 0.11125 0.79377 0.0
C2169 C 0.5663 0.1262 0.77031 0.0
H2170 H 0.55965 0.12782 0.709 0.0
C2171 C 0.61669 0.12625 0.70933 0.0
C2172 C 0.60879 0.11388 0.69249 0.0
C2173 C 0.60627 0.13066 0.7224 0.0
C2174 C 0.56174 0.12744 0.72609 0.0
H2175 H 0.50517 0.13648 0.78363 0.0
H2176 H 0.53133 0.14342 0.76179 0.0
H2177 H 0.53786 0.12794 0.7337 0.0
H2178 H 0.58386 0.097 0.67571 0.0
H2179 H 0.5658 0.10447 0.69854 0.0
H2180 H 0.58963 0.12465 0.76265 0.0
C2181 C 0.52727 0.13332 0.77419 0.0
C2182 C 0.54936 0.12773 0.74026 0.0
C2183 C 0.51232 0.12939 0.78676 0.0
C2184 C 0.5904 0.10653 0.68856 0.0
C2185 C 0.58004 0.11094 0.70156 0.0
C2186 C 0.57867 0.12587 0.75613 0.0
C2187 C 0.53664 0.12407 0.77731 0.0
C2188 C 0.55122 0.12659 0.76252 0.0
C2189 C 0.58778 0.12285 0.71883 0.0
C2190 C 0.57624 0.12597 0.73384 0.0
H2191 H 0.51208 0.09703 0.81844 0.0
H2192 H 0.53783 0.10368 0.79644 0.0
H2193 H 0.56826 0.12558 0.78738 0.0
H2194 H 0.63082 0.13223 0.71275 0.0
H2195 H 0.61266 0.14001 0.73545 0.0
C2196 C 0.40512 0.52056 0.81405 0.0
C2197 C 0.38995 0.50665 0.80412 0.0
C2198 C 0.41664 0.53601 0.80261 0.0
C2199 C 0.42194 0.55954 0.75 0.0
H2200 H 0.47231 0.57931 0.76268 0.0
C2201 C 0.48096 0.59678 0.69082 0.0
C2202 C 0.49533 0.61316 0.6978 0.0
C2203 C 0.4667 0.58643 0.70456 0.0
C2204 C 0.45827 0.57408 0.75918 0.0
H2205 H 0.37465 0.49805 0.77465 0.0
H2206 H 0.39522 0.52444 0.75426 0.0
H2207 H 0.45011 0.55594 0.78548 0.0
H2208 H 0.50586 0.63184 0.72435 0.0
H2209 H 0.48112 0.61328 0.74876 0.0
H2210 H 0.43053 0.57695 0.72258 0.0
C2211 C 0.398 0.5239 0.77109 0.0
C2212 C 0.44547 0.56073 0.77232 0.0
C2213 C 0.38622 0.50865 0.78272 0.0
C2214 C 0.49491 0.61929 0.71856 0.0
C2215 C 0.48084 0.60871 0.7325 0.0
C2216 C 0.43481 0.57262 0.73657 0.0
C2217 C 0.41356 0.53769 0.78076 0.0
C2218 C 0.42709 0.55307 0.76779 0.0
C2219 C 0.46676 0.59211 0.72567 0.0
C2220 C 0.45306 0.57984 0.74097 0.0
H2221 H 0.40816 0.51944 0.83065 0.0
H2222 H 0.42813 0.5465 0.81089 0.0
H2223 H 0.40797 0.55434 0.7462 0.0
H2224 H 0.48091 0.59178 0.67485 0.0
H2225 H 0.45603 0.5736 0.69904 0.0
C2226 C 0.8745 0.49285 0.7185 0.0
C2227 C 0.88076 0.49302 0.69764 0.0
C2228 C 0.8706 0.47861 0.73239 0.0
C2229 C 0.8597 0.43193 0.73558 0.0
H2230 H 0.88939 0.44629 0.78652 0.0
C2231 C 0.87394 0.38292 0.78291 0.0
C2232 C 0.8788 0.38641 0.80459 0.0
C2233 C 0.87054 0.39465 0.771 0.0
C2234 C 0.88058 0.4419 0.77274 0.0
H2235 H 0.88682 0.47802 0.67451 0.0
H2236 H 0.87954 0.45298 0.69862 0.0
H2237 H 0.88918 0.46893 0.76364 0.0
H2238 H 0.8825 0.40393 0.83135 0.0
H2239 H 0.87548 0.42371 0.8111 0.0
H2240 H 0.85091 0.40489 0.74465 0.0
C2241 C 0.87786 0.46392 0.70427 0.0
C2242 C 0.88057 0.45496 0.75957 0.0
C2243 C 0.88213 0.47829 0.69056 0.0
C2244 C 0.87903 0.4011 0.81454 0.0
C2245 C 0.87517 0.41253 0.80283 0.0
C2246 C 0.8594 0.41879 0.74901 0.0
C2247 C 0.87246 0.46415 0.72544 0.0
C2248 C 0.87044 0.45012 0.74065 0.0
C2249 C 0.87152 0.40987 0.7807 0.0
C2250 C 0.87016 0.42361 0.76755 0.0
H2251 H 0.87334 0.50403 0.72438 0.0
H2252 H 0.86645 0.47905 0.74868 0.0
H2253 H 0.85172 0.42791 0.72107 0.0
H2254 H 0.87376 0.37172 0.77484 0.0
H2255 H 0.868 0.39217 0.75399 0.0
C2256 C 0.44451 0.12711 0.07799 0.0
C2257 C 0.45862 0.12477 0.08505 0.0
C2258 C 0.44465 0.13324 0.05718 0.0
C2259 C 0.47335 0.15277 0.0088 0.0
H2260 H 0.43023 0.12018 0.97782 0.0
C2261 C 0.47344 0.12921 0.9238 0.0
C2262 C 0.45922 0.12535 0.90991 0.0
C2263 C 0.47354 0.13522 0.94456 0.0
C2264 C 0.44223 0.12974 0.98621 0.0
H2265 H 0.48438 0.12795 0.07683 0.0
H2266 H 0.48461 0.13837 0.04047 0.0
H2267 H 0.43007 0.12004 0.01681 0.0
H2268 H 0.43439 0.12549 0.90608 0.0
H2269 H 0.43438 0.13588 0.94276 0.0
H2270 H 0.4858 0.1616 0.97807 0.0
C2271 C 0.4735 0.13572 0.05087 0.0
C2272 C 0.44214 0.12968 0.00861 0.0
C2273 C 0.4733 0.12955 0.07157 0.0
C2274 C 0.44547 0.12838 0.91666 0.0
C2275 C 0.44546 0.13426 0.93757 0.0
C2276 C 0.47345 0.15279 0.9864 0.0
C2277 C 0.45896 0.13719 0.04323 0.0
C2278 C 0.45793 0.14058 0.0201 0.0
C2279 C 0.45933 0.13739 0.95185 0.0
C2280 C 0.45812 0.14069 0.97493 0.0
H2281 H 0.43305 0.12347 0.08823 0.0
H2282 H 0.43332 0.13435 0.05178 0.0
H2283 H 0.48562 0.16158 0.01725 0.0
H2284 H 0.48426 0.12711 0.91877 0.0
H2285 H 0.48429 0.13727 0.95526 0.0
C2286 C 0.33554 0.47645 0.07574 0.0
C2287 C 0.33151 0.4598 0.08411 0.0
C2288 C 0.33053 0.47771 0.05479 0.0
C2289 C 0.30447 0.45062 0.00743 0.0
H2290 H 0.34473 0.48735 0.97569 0.0
C2291 C 0.32182 0.4428 0.92109 0.0
C2292 C 0.32998 0.45787 0.9078 0.0
C2293 C 0.31698 0.44432 0.94201 0.0
C2294 C 0.33315 0.47728 0.98428 0.0
H2295 H 0.31868 0.43139 0.07814 0.0
H2296 H 0.31023 0.43346 0.04132 0.0
H2297 H 0.34536 0.48786 0.01455 0.0
H2298 H 0.33886 0.48605 0.90501 0.0
H2299 H 0.33047 0.48885 0.94182 0.0
H2300 H 0.29286 0.43944 0.97688 0.0
C2301 C 0.31682 0.44555 0.05086 0.0
C2302 C 0.33349 0.47757 0.00664 0.0
C2303 C 0.32174 0.44432 0.07185 0.0
C2304 C 0.33248 0.47429 0.91515 0.0
C2305 C 0.32775 0.47587 0.93613 0.0
C2306 C 0.30418 0.45027 0.98501 0.0
C2307 C 0.32163 0.46233 0.04187 0.0
C2308 C 0.31945 0.46389 0.01848 0.0
C2309 C 0.32044 0.46101 0.94996 0.0
C2310 C 0.31881 0.46326 0.97325 0.0
H2311 H 0.34313 0.48852 0.08512 0.0
H2312 H 0.33422 0.49079 0.04845 0.0
H2313 H 0.29329 0.44008 0.0161 0.0
H2314 H 0.31997 0.43007 0.91561 0.0
H2315 H 0.31162 0.4327 0.95236 0.0
C2316 C 0.86122 0.3382 0.07137 0.0
C2317 C 0.86725 0.32968 0.08539 0.0
C2318 C 0.85556 0.33152 0.05076 0.0
C2319 C 0.86609 0.30844 0.00999 0.0
H2320 H 0.83226 0.31587 0.97705 0.0
C2321 C 0.87058 0.314 0.9181 0.0
C2322 C 0.87177 0.33 0.91107 0.0
C2323 C 0.86437 0.30759 0.93876 0.0
C2324 C 0.84163 0.31353 0.98605 0.0
H2325 H 0.87121 0.30703 0.0897 0.0
H2326 H 0.86126 0.2952 0.05341 0.0
H2327 H 0.83078 0.31537 0.0162 0.0
H2328 H 0.86665 0.35137 0.91925 0.0
H2329 H 0.85593 0.34035 0.95535 0.0
H2330 H 0.87761 0.30766 0.97995 0.0
C2331 C 0.86096 0.30707 0.05832 0.0
C2332 C 0.84079 0.31325 0.00843 0.0
C2333 C 0.86655 0.31375 0.07905 0.0
C2334 C 0.86592 0.33905 0.92448 0.0
C2335 C 0.8596 0.33261 0.94501 0.0
C2336 C 0.86691 0.30868 0.98762 0.0
C2337 C 0.85592 0.31621 0.04376 0.0
C2338 C 0.85359 0.31161 0.02062 0.0
C2339 C 0.85912 0.31702 0.95255 0.0
C2340 C 0.85525 0.31212 0.97549 0.0
H2341 H 0.86163 0.35048 0.07606 0.0
H2342 H 0.85202 0.33904 0.03988 0.0
H2343 H 0.87623 0.30727 0.01889 0.0
H2344 H 0.87506 0.30685 0.9079 0.0
H2345 H 0.86411 0.29553 0.94416 0.0
C2346 C 0.551 0.86983 0.07818 0.0
C2347 C 0.53762 0.87339 0.08503 0.0
C2348 C 0.55082 0.86396 0.05723 0.0
C2349 C 0.5228 0.84639 0.00829 0.0
H2350 H 0.5668 0.87792 0.97815 0.0
C2351 C 0.52448 0.86968 0.92272 0.0
C2352 C 0.53928 0.87416 0.90955 0.0
C2353 C 0.52384 0.86339 0.94347 0.0
C2354 C 0.55454 0.86861 0.98628 0.0
H2355 H 0.51304 0.87265 0.07622 0.0
H2356 H 0.5127 0.86254 0.0396 0.0
H2357 H 0.56641 0.87787 0.01713 0.0
H2358 H 0.5645 0.87466 0.90692 0.0
H2359 H 0.56342 0.86352 0.94341 0.0
H2360 H 0.51072 0.83782 0.97736 0.0
C2361 C 0.52329 0.86414 0.05029 0.0
C2362 C 0.55431 0.8686 0.00867 0.0
C2363 C 0.52357 0.87012 0.07113 0.0
C2364 C 0.55298 0.87129 0.91692 0.0
C2365 C 0.55238 0.86501 0.93776 0.0
C2366 C 0.52304 0.84635 0.98589 0.0
C2367 C 0.53714 0.86141 0.04295 0.0
C2368 C 0.53826 0.8581 0.01985 0.0
C2369 C 0.53802 0.86146 0.95145 0.0
C2370 C 0.53871 0.85809 0.97466 0.0
H2371 H 0.56197 0.87228 0.08874 0.0
H2372 H 0.56162 0.8619 0.052 0.0
H2373 H 0.51031 0.83793 0.01654 0.0
H2374 H 0.51369 0.87164 0.91721 0.0
H2375 H 0.5127 0.86103 0.95364 0.0
C2376 C 0.65124 0.52136 0.07557 0.0
C2377 C 0.66145 0.53837 0.08465 0.0
C2378 C 0.65421 0.51831 0.05441 0.0
C2379 C 0.68392 0.53836 0.00682 0.0
H2380 H 0.63879 0.51362 0.97638 0.0
C2381 C 0.67429 0.54845 0.91721 0.0
C2382 C 0.66037 0.53413 0.90618 0.0
C2383 C 0.67761 0.54645 0.9387 0.0
C2384 C 0.65156 0.52019 0.98457 0.0
H2385 H 0.68331 0.56528 0.07971 0.0
H2386 H 0.68819 0.56023 0.04225 0.0
H2387 H 0.63882 0.51464 0.01507 0.0
H2388 H 0.64002 0.5062 0.90774 0.0
H2389 H 0.64611 0.50242 0.94507 0.0
H2390 H 0.69653 0.54455 0.97588 0.0
C2391 C 0.67817 0.5491 0.0515 0.0
C2392 C 0.65158 0.52078 0.00686 0.0
C2393 C 0.67534 0.55206 0.07284 0.0
C2394 C 0.65076 0.51742 0.91616 0.0
C2395 C 0.65419 0.51533 0.93749 0.0
C2396 C 0.68389 0.5378 0.98436 0.0
C2397 C 0.6672 0.53233 0.04184 0.0
C2398 C 0.66771 0.5301 0.01828 0.0
C2399 C 0.66707 0.53003 0.94929 0.0
C2400 C 0.66767 0.52892 0.97301 0.0
H2401 H 0.64055 0.51061 0.08462 0.0
H2402 H 0.64581 0.50514 0.04761 0.0
H2403 H 0.69658 0.54552 0.01517 0.0
H2404 H 0.68178 0.56146 0.90966 0.0
H2405 H 0.68755 0.55806 0.94736 0.0
C2406 C 0.12208 0.67258 0.91785 0.0
C2407 C 0.12072 0.65814 0.90606 0.0
C2408 C 0.12775 0.67499 0.93922 0.0
C2409 C 0.1268 0.64725 0.98399 0.0
H2410 H 0.15214 0.69229 0.01459 0.0
C2411 C 0.13027 0.6466 0.07467 0.0
C2412 C 0.12507 0.65772 0.08485 0.0
C2413 C 0.13543 0.64937 0.05319 0.0
C2414 C 0.14507 0.67962 0.00622 0.0
H2415 H 0.12541 0.63578 0.9062 0.0
H2416 H 0.13579 0.64019 0.94333 0.0
H2417 H 0.15085 0.69225 0.97531 0.0
H2418 H 0.12219 0.68108 0.08154 0.0
H2419 H 0.13067 0.68571 0.04359 0.0
H2420 H 0.12034 0.63457 0.01457 0.0
C2421 C 0.13206 0.64938 0.93645 0.0
C2422 C 0.14432 0.6796 0.98378 0.0
C2423 C 0.1262 0.64688 0.91525 0.0
C2424 C 0.12621 0.6724 0.07383 0.0
C2425 C 0.13115 0.67506 0.05219 0.0
C2426 C 0.12754 0.64727 0.00628 0.0
C2427 C 0.13224 0.66304 0.94894 0.0
C2428 C 0.13494 0.66339 0.97247 0.0
C2429 C 0.13512 0.66313 0.04144 0.0
C2430 C 0.13645 0.66344 0.0177 0.0
H2431 H 0.11789 0.68139 0.91089 0.0
H2432 H 0.12762 0.68556 0.94844 0.0
H2433 H 0.11908 0.63454 0.97587 0.0
H2434 H 0.12958 0.63529 0.08308 0.0
H2435 H 0.1388 0.6402 0.04549 0.0
C2436 C 0.87525 0.55261 0.42039 0.0
C2437 C 0.87386 0.53839 0.40811 0.0
C2438 C 0.86873 0.54961 0.4414 0.0
C2439 C 0.86188 0.51856 0.48499 0.0
H2440 H 0.84531 0.54638 0.51619 0.0
C2441 C 0.85946 0.51533 0.57573 0.0
C2442 C 0.86825 0.53214 0.58559 0.0
C2443 C 0.85385 0.51372 0.55446 0.0
C2444 C 0.84987 0.53847 0.50765 0.0
H2445 H 0.86365 0.50988 0.40698 0.0
H2446 H 0.85168 0.50441 0.44346 0.0
H2447 H 0.84676 0.5478 0.47694 0.0
H2448 H 0.8772 0.56028 0.58196 0.0
H2449 H 0.86792 0.55768 0.54442 0.0
H2450 H 0.8658 0.50982 0.51539 0.0
C2451 C 0.85815 0.51793 0.43724 0.0
C2452 C 0.85071 0.53929 0.48522 0.0
C2453 C 0.86487 0.52099 0.41639 0.0
C2454 C 0.87035 0.54718 0.57452 0.0
C2455 C 0.86494 0.54564 0.55311 0.0
C2456 C 0.86103 0.51773 0.50727 0.0
C2457 C 0.86065 0.5323 0.45029 0.0
C2458 C 0.85711 0.52964 0.47369 0.0
C2459 C 0.85728 0.52898 0.54261 0.0
C2460 C 0.8554 0.52797 0.51892 0.0
H2461 H 0.88224 0.56613 0.41415 0.0
H2462 H 0.87104 0.56099 0.45106 0.0
H2463 H 0.86726 0.51125 0.47673 0.0
H2464 H 0.85768 0.50357 0.58417 0.0
H2465 H 0.84766 0.50065 0.54697 0.0
C2466 C 0.31695 0.87363 0.41797 0.0
C2467 C 0.3334 0.87581 0.41113 0.0
C2468 C 0.31083 0.86768 0.43879 0.0
C2469 C 0.31831 0.84682 0.48676 0.0
H2470 H 0.30912 0.87994 0.51864 0.0
C2471 C 0.34053 0.86686 0.57276 0.0
C2472 C 0.33125 0.87239 0.58626 0.0
C2473 C 0.33446 0.86108 0.55198 0.0
C2474 C 0.31111 0.87019 0.51 0.0
H2475 H 0.35597 0.87277 0.41988 0.0
H2476 H 0.34541 0.86246 0.45626 0.0
H2477 H 0.31002 0.88118 0.47968 0.0
H2478 H 0.30787 0.87525 0.5895 0.0
H2479 H 0.29707 0.86501 0.55293 0.0
H2480 H 0.32032 0.83645 0.51717 0.0
C2481 C 0.33713 0.86518 0.44564 0.0
C2482 C 0.31167 0.87094 0.48763 0.0
C2483 C 0.34328 0.87127 0.42495 0.0
C2484 C 0.31518 0.871 0.57924 0.0
C2485 C 0.3091 0.86525 0.55835 0.0
C2486 C 0.31767 0.84601 0.50913 0.0
C2487 C 0.32101 0.86365 0.45292 0.0
C2488 C 0.31611 0.85984 0.47586 0.0
C2489 C 0.319 0.86077 0.54429 0.0
C2490 C 0.31494 0.85829 0.52101 0.0
H2491 H 0.30915 0.87709 0.40746 0.0
H2492 H 0.29836 0.86659 0.44399 0.0
H2493 H 0.32144 0.83788 0.47802 0.0
H2494 H 0.35293 0.86778 0.57799 0.0
H2495 H 0.34257 0.85797 0.54154 0.0
C2496 C 0.47165 0.34019 0.42119 0.0
C2497 C 0.45731 0.33147 0.40691 0.0
C2498 C 0.4705 0.33351 0.44182 0.0
C2499 C 0.43714 0.31011 0.48249 0.0
H2500 H 0.47834 0.31646 0.51469 0.0
C2501 C 0.43917 0.31518 0.57451 0.0
C2502 C 0.45425 0.33099 0.58143 0.0
C2503 C 0.43859 0.30878 0.55374 0.0
C2504 C 0.46665 0.31442 0.5059 0.0
H2505 H 0.43092 0.30859 0.40223 0.0
H2506 H 0.42872 0.29686 0.4387 0.0
H2507 H 0.47908 0.31642 0.47552 0.0
H2508 H 0.48082 0.35205 0.57297 0.0
H2509 H 0.47988 0.34104 0.53671 0.0
H2510 H 0.42514 0.30927 0.5128 0.0
C2511 C 0.44086 0.30883 0.4339 0.0
C2512 C 0.46707 0.31439 0.48352 0.0
C2513 C 0.44212 0.31547 0.41311 0.0
C2514 C 0.46904 0.33986 0.56782 0.0
C2515 C 0.46855 0.33342 0.54719 0.0
C2516 C 0.43672 0.31015 0.50488 0.0
C2517 C 0.45491 0.31803 0.4486 0.0
C2518 C 0.45267 0.31315 0.47162 0.0
C2519 C 0.45318 0.31804 0.53975 0.0
C2520 C 0.45183 0.31321 0.51676 0.0
H2521 H 0.48352 0.35252 0.41659 0.0
H2522 H 0.48144 0.34106 0.45284 0.0
H2523 H 0.42588 0.30923 0.47377 0.0
H2524 H 0.42763 0.30819 0.58488 0.0
H2525 H 0.4266 0.29689 0.54842 0.0
C2526 C 0.13208 0.47009 0.41521 0.0
C2527 C 0.1199 0.45297 0.40762 0.0
C2528 C 0.13815 0.47241 0.43635 0.0
C2529 C 0.13964 0.44878 0.4853 0.0
H2530 H 0.13043 0.48302 0.51445 0.0
C2531 C 0.11904 0.44245 0.57372 0.0
C2532 C 0.12288 0.4579 0.58516 0.0
C2533 C 0.12445 0.44373 0.55237 0.0
C2534 C 0.13359 0.47373 0.50664 0.0
H2535 H 0.10499 0.42479 0.41518 0.0
H2536 H 0.11556 0.42872 0.45234 0.0
H2537 H 0.12988 0.48186 0.47564 0.0
H2538 H 0.13616 0.48677 0.58438 0.0
H2539 H 0.14623 0.48921 0.54721 0.0
H2540 H 0.14279 0.44029 0.51647 0.0
C2541 C 0.12064 0.44035 0.44201 0.0
C2542 C 0.13322 0.47305 0.48432 0.0
C2543 C 0.11451 0.43807 0.42089 0.0
C2544 C 0.13309 0.47472 0.57562 0.0
C2545 C 0.13871 0.47605 0.55438 0.0
C2546 C 0.14016 0.44956 0.50771 0.0
C2547 C 0.1321 0.4576 0.45013 0.0
C2548 C 0.13571 0.46022 0.47344 0.0
C2549 C 0.13388 0.46054 0.54225 0.0
C2550 C 0.13657 0.46168 0.51864 0.0
H2551 H 0.13628 0.48171 0.40506 0.0
H2552 H 0.14705 0.48582 0.44217 0.0
H2553 H 0.14179 0.43889 0.47726 0.0
H2554 H 0.11105 0.42937 0.58093 0.0
H2555 H 0.12029 0.4315 0.54348 0.0
C2556 C 0.68168 0.12556 0.41495 0.0
C2557 C 0.66518 0.12293 0.40763 0.0
C2558 C 0.6873 0.13148 0.43591 0.0
C2559 C 0.67755 0.15074 0.4839 0.0
H2560 H 0.68779 0.11824 0.51554 0.0
C2561 C 0.65424 0.12881 0.56943 0.0
C2562 C 0.66415 0.12426 0.58322 0.0
C2563 C 0.66022 0.13463 0.54862 0.0
C2564 C 0.68545 0.12779 0.50698 0.0
H2565 H 0.64205 0.12524 0.41561 0.0
H2566 H 0.65169 0.13543 0.45222 0.0
H2567 H 0.68793 0.11783 0.47655 0.0
H2568 H 0.68845 0.12307 0.58683 0.0
H2569 H 0.69903 0.1333 0.55021 0.0
H2570 H 0.6741 0.16 0.51441 0.0
C2571 C 0.66042 0.13312 0.4419 0.0
C2572 C 0.68553 0.12755 0.48459 0.0
C2573 C 0.65478 0.1271 0.42106 0.0
C2574 C 0.68062 0.12652 0.57636 0.0
C2575 C 0.6866 0.13228 0.55545 0.0
C2576 C 0.67751 0.15101 0.5063 0.0
C2577 C 0.67654 0.13498 0.44972 0.0
C2578 C 0.68076 0.13844 0.47286 0.0
C2579 C 0.67622 0.13597 0.5412 0.0
C2580 C 0.68064 0.13895 0.51804 0.0
H2581 H 0.68986 0.12237 0.40475 0.0
H2582 H 0.6998 0.13285 0.44151 0.0
H2583 H 0.67416 0.15952 0.47523 0.0
H2584 H 0.64157 0.12731 0.57453 0.0
H2585 H 0.65177 0.13711 0.538 0.0
C2586 C 0.51576 0.65099 0.57594 0.0
C2587 C 0.53277 0.6609 0.5851 0.0
C2588 C 0.51282 0.6543 0.55488 0.0
C2589 C 0.53339 0.68455 0.50784 0.0
H2590 H 0.50923 0.63979 0.47657 0.0
C2591 C 0.54675 0.67604 0.41937 0.0
C2592 C 0.53302 0.66214 0.40762 0.0
C2593 C 0.54374 0.67913 0.44056 0.0
C2594 C 0.51561 0.65247 0.48497 0.0
H2595 H 0.5598 0.68261 0.58043 0.0
H2596 H 0.55494 0.68811 0.54318 0.0
H2597 H 0.5093 0.63935 0.51526 0.0
H2598 H 0.50515 0.64157 0.40752 0.0
H2599 H 0.49959 0.64729 0.44432 0.0
H2600 H 0.54039 0.69754 0.47716 0.0
C2601 C 0.54372 0.67805 0.55228 0.0
C2602 C 0.51566 0.65222 0.50727 0.0
C2603 C 0.54658 0.67485 0.57349 0.0
C2604 C 0.5159 0.6523 0.41652 0.0
C2605 C 0.5128 0.65552 0.43755 0.0
C2606 C 0.53335 0.68481 0.48538 0.0
C2607 C 0.52695 0.66738 0.54252 0.0
C2608 C 0.52487 0.6682 0.519 0.0
C2609 C 0.52689 0.66839 0.45014 0.0
C2610 C 0.52478 0.66871 0.47372 0.0
H2611 H 0.50491 0.64027 0.58484 0.0
H2612 H 0.49966 0.64611 0.54798 0.0
H2613 H 0.54044 0.69711 0.51644 0.0
H2614 H 0.56006 0.68369 0.41264 0.0
H2615 H 0.55492 0.68904 0.44984 0.0
loop_
_geom_bond_atom_site_label_1
_geom_bond_atom_site_label_2
_geom_bond_distance
_geom_bond_site_symmetry_2
_ccdc_geom_bond_type
Co0 O3 1.970 . S
Co0 N17 1.989 . S
Co0 O25 1.967 . S
Co0 O32 1.920 . S
Co1 O4 1.966 . S
Co1 N10 2.022 . S
Co1 N18 1.993 . S
Co1 O26 1.941 . S
C2 O3 1.258 . S
C2 O4 1.263 . S
O3 Co0 1.970 . S
O3 C2 1.258 . S
O4 Co1 1.966 . S
O4 C2 1.263 . S
C5 O6 1.235 . S
C5 O32 1.289 . S
O6 C5 1.235 . S
C7 C9 1.400 . S
C7 N10 1.351 . S
C7 C12 1.501 . S
C8 C9 1.387 . S
C8 N11 1.341 . S
C9 C7 1.400 . S
C9 C8 1.387 . S
N10 Co1 2.022 . S
N10 C7 1.351 . S
N10 N11 1.365 . S
N11 C8 1.341 . S
N11 N10 1.365 . S
N11 H31 0.862 . S
C12 C7 1.501 . S
C12 H13 0.961 . S
C12 H14 0.961 . S
C12 H15 0.960 . S
H13 C12 0.961 . S
H14 C12 0.961 . S
H15 C12 0.960 . S
C16 N17 1.342 . S
C16 C20 1.401 . S
C16 C21 1.499 . S
N17 Co0 1.989 . S
N17 C16 1.342 . S
N17 N18 1.388 . S
N18 Co1 1.993 . S
N18 N17 1.388 . S
N18 C19 1.346 . S
C19 N18 1.346 . S
C19 C20 1.396 . S
C19 C29 1.510 . S
C20 C16 1.401 . S
C20 C19 1.396 . S
C21 C16 1.499 . S
C21 H22 0.959 . S
C21 H23 0.960 . S
C21 H24 0.961 . S
H22 C21 0.959 . S
H23 C21 0.960 . S
H24 C21 0.961 . S
O25 Co0 1.967 . S
O25 C33 1.258 . S
O26 Co1 1.941 . S
O26 C33 1.266 . S
H27 C29 0.959 . S
H28 C29 0.961 . S
C29 C19 1.510 . S
C29 H27 0.959 . S
C29 H28 0.961 . S
C29 H30 0.960 . S
H30 C29 0.960 . S
H31 N11 0.862 . S
O32 Co0 1.920 . S
O32 C5 1.289 . S
C33 O25 1.258 . S
C33 O26 1.266 . S
Co34 O37 1.970 . S
Co34 N51 1.989 . S
Co34 O59 1.967 . S
Co34 O66 1.920 . S
Co35 O38 1.966 . S
Co35 N44 2.022 . S
Co35 N52 1.993 . S
Co35 O60 1.941 . S
C36 O37 1.258 . S
C36 O38 1.263 . S
O37 Co34 1.970 . S
O37 C36 1.258 . S
O38 Co35 1.966 . S
O38 C36 1.263 . S
C39 O40 1.235 . S
C39 O66 1.289 . S
O40 C39 1.235 . S
C41 C43 1.400 . S
C41 N44 1.351 . S
C41 C46 1.501 . S
C42 C43 1.387 . S
C42 N45 1.341 . S
C43 C41 1.400 . S
C43 C42 1.387 . S
N44 Co35 2.022 . S
N44 C41 1.351 . S
N44 N45 1.365 . S
N45 C42 1.341 . S
N45 N44 1.365 . S
N45 H65 0.862 . S
C46 C41 1.501 . S
C46 H47 0.961 . S
C46 H48 0.961 . S
C46 H49 0.960 . S
H47 C46 0.961 . S
H48 C46 0.961 . S
H49 C46 0.960 . S
C50 N51 1.342 . S
C50 C54 1.401 . S
C50 C55 1.499 . S
N51 Co34 1.989 . S
N51 C50 1.342 . S
N51 N52 1.388 . S
N52 Co35 1.993 . S
N52 N51 1.388 . S
N52 C53 1.346 . S
C53 N52 1.346 . S
C53 C54 1.396 . S
C53 C63 1.510 . S
C54 C50 1.401 . S
C54 C53 1.396 . S
C55 C50 1.499 . S
C55 H56 0.959 . S
C55 H57 0.960 . S
C55 H58 0.961 . S
H56 C55 0.959 . S
H57 C55 0.960 . S
H58 C55 0.961 . S
O59 Co34 1.967 . S
O59 C67 1.258 . S
O60 Co35 1.941 . S
O60 C67 1.266 . S
H61 C63 0.959 . S
H62 C63 0.961 . S
C63 C53 1.510 . S
C63 H61 0.959 . S
C63 H62 0.961 . S
C63 H64 0.960 . S
H64 C63 0.960 . S
H65 N45 0.862 . S
O66 Co34 1.920 . S
O66 C39 1.289 . S
C67 O59 1.258 . S
C67 O60 1.266 . S
Co68 O71 1.970 . S
Co68 N85 1.989 . S
Co68 O93 1.967 . S
Co68 O100 1.920 . S
Co69 O72 1.966 . S
Co69 N78 2.022 . S
Co69 N86 1.993 . S
Co69 O94 1.941 . S
C70 O71 1.258 . S
C70 O72 1.263 . S
O71 Co68 1.970 . S
O71 C70 1.258 . S
O72 Co69 1.966 . S
O72 C70 1.263 . S
C73 O74 1.235 . S
C73 O100 1.289 . S
O74 C73 1.235 . S
C75 C77 1.400 . S
C75 N78 1.351 . S
C75 C80 1.501 . S
C76 C77 1.387 . S
C76 N79 1.341 . S
C77 C75 1.400 . S
C77 C76 1.387 . S
N78 Co69 2.022 . S
N78 C75 1.351 . S
N78 N79 1.365 . S
N79 C76 1.341 . S
N79 N78 1.365 . S
N79 H99 0.862 . S
C80 C75 1.501 . S
C80 H81 0.961 . S
C80 H82 0.961 . S
C80 H83 0.960 . S
H81 C80 0.961 . S
H82 C80 0.961 . S
H83 C80 0.960 . S
C84 N85 1.342 . S
C84 C88 1.401 . S
C84 C89 1.499 . S
N85 Co68 1.989 . S
N85 C84 1.342 . S
N85 N86 1.388 . S
N86 Co69 1.993 . S
N86 N85 1.388 . S
N86 C87 1.346 . S
C87 N86 1.346 . S
C87 C88 1.396 . S
C87 C97 1.510 . S
C88 C84 1.401 . S
C88 C87 1.396 . S
C89 C84 1.499 . S
C89 H90 0.959 . S
C89 H91 0.960 . S
C89 H92 0.961 . S
H90 C89 0.959 . S
H91 C89 0.960 . S
H92 C89 0.961 . S
O93 Co68 1.967 . S
O93 C101 1.258 . S
O94 Co69 1.941 . S
O94 C101 1.266 . S
H95 C97 0.959 . S
H96 C97 0.961 . S
C97 C87 1.510 . S
C97 H95 0.959 . S
C97 H96 0.961 . S
C97 H98 0.960 . S
H98 C97 0.960 . S
H99 N79 0.862 . S
O100 Co68 1.920 . S
O100 C73 1.289 . S
C101 O93 1.258 . S
C101 O94 1.266 . S
Co102 O105 1.970 . S
Co102 N119 1.989 . S
Co102 O127 1.967 . S
Co102 O134 1.920 . S
Co103 O106 1.966 . S
Co103 N112 2.022 . S
Co103 N120 1.993 . S
Co103 O128 1.941 . S
C104 O105 1.258 . S
C104 O106 1.263 . S
O105 Co102 1.970 . S
O105 C104 1.258 . S
O106 Co103 1.966 . S
O106 C104 1.263 . S
C107 O108 1.235 . S
C107 O134 1.289 . S
O108 C107 1.235 . S
C109 C111 1.400 . S
C109 N112 1.351 . S
C109 C114 1.501 . S
C110 C111 1.387 . S
C110 N113 1.341 . S
C111 C109 1.400 . S
C111 C110 1.387 . S
N112 Co103 2.022 . S
N112 C109 1.351 . S
N112 N113 1.365 . S
N113 C110 1.341 . S
N113 N112 1.365 . S
N113 H133 0.862 . S
C114 C109 1.501 . S
C114 H115 0.961 . S
C114 H116 0.961 . S
C114 H117 0.960 . S
H115 C114 0.961 . S
H116 C114 0.961 . S
H117 C114 0.960 . S
C118 N119 1.342 . S
C118 C122 1.401 . S
C118 C123 1.499 . S
N119 Co102 1.989 . S
N119 C118 1.342 . S
N119 N120 1.388 . S
N120 Co103 1.993 . S
N120 N119 1.388 . S
N120 C121 1.346 . S
C121 N120 1.346 . S
C121 C122 1.396 . S
C121 C131 1.510 . S
C122 C118 1.401 . S
C122 C121 1.396 . S
C123 C118 1.499 . S
C123 H124 0.959 . S
C123 H125 0.960 . S
C123 H126 0.961 . S
H124 C123 0.959 . S
H125 C123 0.960 . S
H126 C123 0.961 . S
O127 Co102 1.967 . S
O127 C135 1.258 . S
O128 Co103 1.941 . S
O128 C135 1.266 . S
H129 C131 0.959 . S
H130 C131 0.961 . S
C131 C121 1.510 . S
C131 H129 0.959 . S
C131 H130 0.961 . S
C131 H132 0.960 . S
H132 C131 0.960 . S
H133 N113 0.862 . S
O134 Co102 1.920 . S
O134 C107 1.289 . S
C135 O127 1.258 . S
C135 O128 1.266 . S
Co136 O139 1.970 . S
Co136 N153 1.989 . S
Co136 O161 1.967 . S
Co136 O168 1.920 . S
Co137 O140 1.966 . S
Co137 N146 2.022 . S
Co137 N154 1.993 . S
Co137 O162 1.941 . S
C138 O139 1.258 . S
C138 O140 1.263 . S
O139 Co136 1.970 . S
O139 C138 1.258 . S
O140 Co137 1.966 . S
O140 C138 1.263 . S
C141 O142 1.235 . S
C141 O168 1.289 . S
O142 C141 1.235 . S
C143 C145 1.400 . S
C143 N146 1.351 . S
C143 C148 1.501 . S
C144 C145 1.387 . S
C144 N147 1.341 . S
C145 C143 1.400 . S
C145 C144 1.387 . S
N146 Co137 2.022 . S
N146 C143 1.351 . S
N146 N147 1.365 . S
N147 C144 1.341 . S
N147 N146 1.365 . S
N147 H167 0.862 . S
C148 C143 1.501 . S
C148 H149 0.961 . S
C148 H150 0.961 . S
C148 H151 0.960 . S
H149 C148 0.961 . S
H150 C148 0.961 . S
H151 C148 0.960 . S
C152 N153 1.342 . S
C152 C156 1.401 . S
C152 C157 1.499 . S
N153 Co136 1.989 . S
N153 C152 1.342 . S
N153 N154 1.388 . S
N154 Co137 1.993 . S
N154 N153 1.388 . S
N154 C155 1.346 . S
C155 N154 1.346 . S
C155 C156 1.396 . S
C155 C165 1.510 . S
C156 C152 1.401 . S
C156 C155 1.396 . S
C157 C152 1.499 . S
C157 H158 0.959 . S
C157 H159 0.960 . S
C157 H160 0.961 . S
H158 C157 0.959 . S
H159 C157 0.960 . S
H160 C157 0.961 . S
O161 Co136 1.967 . S
O161 C169 1.258 . S
O162 Co137 1.941 . S
O162 C169 1.266 . S
H163 C165 0.959 . S
H164 C165 0.961 . S
C165 C155 1.510 . S
C165 H163 0.959 . S
C165 H164 0.961 . S
C165 H166 0.960 . S
H166 C165 0.960 . S
H167 N147 0.862 . S
O168 Co136 1.920 . S
O168 C141 1.289 . S
C169 O161 1.258 . S
C169 O162 1.266 . S
Co170 O173 1.970 . S
Co170 N187 1.989 . S
Co170 O195 1.967 . S
Co170 O202 1.920 . S
Co171 O174 1.966 . S
Co171 N180 2.022 . S
Co171 N188 1.993 . S
Co171 O196 1.941 . S
C172 O173 1.258 . S
C172 O174 1.263 . S
O173 Co170 1.970 . S
O173 C172 1.258 . S
O174 Co171 1.966 . S
O174 C172 1.263 . S
C175 O176 1.235 . S
C175 O202 1.289 . S
O176 C175 1.235 . S
C177 C179 1.400 . S
C177 N180 1.351 . S
C177 C182 1.501 . S
C178 C179 1.387 . S
C178 N181 1.341 . S
C179 C177 1.400 . S
C179 C178 1.387 . S
N180 Co171 2.022 . S
N180 C177 1.351 . S
N180 N181 1.365 . S
N181 C178 1.341 . S
N181 N180 1.365 . S
N181 H201 0.862 . S
C182 C177 1.501 . S
C182 H183 0.961 . S
C182 H184 0.961 . S
C182 H185 0.960 . S
H183 C182 0.961 . S
H184 C182 0.961 . S
H185 C182 0.960 . S
C186 N187 1.342 . S
C186 C190 1.401 . S
C186 C191 1.499 . S
N187 Co170 1.989 . S
N187 C186 1.342 . S
N187 N188 1.388 . S
N188 Co171 1.993 . S
N188 N187 1.388 . S
N188 C189 1.346 . S
C189 N188 1.346 . S
C189 C190 1.396 . S
C189 C199 1.510 . S
C190 C186 1.401 . S
C190 C189 1.396 . S
C191 C186 1.499 . S
C191 H192 0.959 . S
C191 H193 0.960 . S
C191 H194 0.961 . S
H192 C191 0.959 . S
H193 C191 0.960 . S
H194 C191 0.961 . S
O195 Co170 1.967 . S
O195 C203 1.258 . S
O196 Co171 1.941 . S
O196 C203 1.266 . S
H197 C199 0.959 . S
H198 C199 0.961 . S
C199 C189 1.510 . S
C199 H197 0.959 . S
C199 H198 0.961 . S
C199 H200 0.960 . S
H200 C199 0.960 . S
H201 N181 0.862 . S
O202 Co170 1.920 . S
O202 C175 1.289 . S
C203 O195 1.258 . S
C203 O196 1.266 . S
Co204 O207 1.970 . S
Co204 N221 1.989 . S
Co204 O229 1.967 . S
Co204 O236 1.920 . S
Co205 O208 1.966 . S
Co205 N214 2.022 . S
Co205 N222 1.993 . S
Co205 O230 1.941 . S
C206 O207 1.258 . S
C206 O208 1.263 . S
O207 Co204 1.970 . S
O207 C206 1.258 . S
O208 Co205 1.966 . S
O208 C206 1.263 . S
C209 O210 1.235 . S
C209 O236 1.289 . S
O210 C209 1.235 . S
C211 C213 1.400 . S
C211 N214 1.351 . S
C211 C216 1.501 . S
C212 C213 1.387 . S
C212 N215 1.341 . S
C213 C211 1.400 . S
C213 C212 1.387 . S
N214 Co205 2.022 . S
N214 C211 1.351 . S
N214 N215 1.365 . S
N215 C212 1.341 . S
N215 N214 1.365 . S
N215 H235 0.862 . S
C216 C211 1.501 . S
C216 H217 0.961 . S
C216 H218 0.961 . S
C216 H219 0.960 . S
H217 C216 0.961 . S
H218 C216 0.961 . S
H219 C216 0.960 . S
C220 N221 1.342 . S
C220 C224 1.401 . S
C220 C225 1.499 . S
N221 Co204 1.989 . S
N221 C220 1.342 . S
N221 N222 1.388 . S
N222 Co205 1.993 . S
N222 N221 1.388 . S
N222 C223 1.346 . S
C223 N222 1.346 . S
C223 C224 1.396 . S
C223 C233 1.510 . S
C224 C220 1.401 . S
C224 C223 1.396 . S
C225 C220 1.499 . S
C225 H226 0.959 . S
C225 H227 0.960 . S
C225 H228 0.961 . S
H226 C225 0.959 . S
H227 C225 0.960 . S
H228 C225 0.961 . S
O229 Co204 1.967 . S
O229 C237 1.258 . S
O230 Co205 1.941 . S
O230 C237 1.266 . S
H231 C233 0.959 . S
H232 C233 0.961 . S
C233 C223 1.510 . S
C233 H231 0.959 . S
C233 H232 0.961 . S
C233 H234 0.960 . S
H234 C233 0.960 . S
H235 N215 0.862 . S
O236 Co204 1.920 . S
O236 C209 1.289 . S
C237 O229 1.258 . S
C237 O230 1.266 . S
Co238 O241 1.970 . S
Co238 N255 1.989 . S
Co238 O263 1.967 . S
Co238 O270 1.920 . S
Co239 O242 1.966 . S
Co239 N248 2.022 . S
Co239 N256 1.993 . S
Co239 O264 1.941 . S
C240 O241 1.258 . S
C240 O242 1.263 . S
O241 Co238 1.970 . S
O241 C240 1.258 . S
O242 Co239 1.966 . S
O242 C240 1.263 . S
C243 O244 1.235 . S
C243 O270 1.289 . S
O244 C243 1.235 . S
C245 C247 1.400 . S
C245 N248 1.351 . S
C245 C250 1.501 . S
C246 C247 1.387 . S
C246 N249 1.341 . S
C247 C245 1.400 . S
C247 C246 1.387 . S
N248 Co239 2.022 . S
N248 C245 1.351 . S
N248 N249 1.365 . S
N249 C246 1.341 . S
N249 N248 1.365 . S
N249 H269 0.862 . S
C250 C245 1.501 . S
C250 H251 0.961 . S
C250 H252 0.961 . S
C250 H253 0.960 . S
H251 C250 0.961 . S
H252 C250 0.961 . S
H253 C250 0.960 . S
C254 N255 1.342 . S
C254 C258 1.401 . S
C254 C259 1.499 . S
N255 Co238 1.989 . S
N255 C254 1.342 . S
N255 N256 1.388 . S
N256 Co239 1.993 . S
N256 N255 1.388 . S
N256 C257 1.346 . S
C257 N256 1.346 . S
C257 C258 1.396 . S
C257 C267 1.510 . S
C258 C254 1.401 . S
C258 C257 1.396 . S
C259 C254 1.499 . S
C259 H260 0.959 . S
C259 H261 0.960 . S
C259 H262 0.961 . S
H260 C259 0.959 . S
H261 C259 0.960 . S
H262 C259 0.961 . S
O263 Co238 1.967 . S
O263 C271 1.258 . S
O264 Co239 1.941 . S
O264 C271 1.266 . S
H265 C267 0.959 . S
H266 C267 0.961 . S
C267 C257 1.510 . S
C267 H265 0.959 . S
C267 H266 0.961 . S
C267 H268 0.960 . S
H268 C267 0.960 . S
H269 N249 0.862 . S
O270 Co238 1.920 . S
O270 C243 1.289 . S
C271 O263 1.258 . S
C271 O264 1.266 . S
Co272 O275 1.970 . S
Co272 N289 1.989 . S
Co272 O297 1.967 . S
Co272 O304 1.920 . S
Co273 O276 1.966 . S
Co273 N282 2.022 . S
Co273 N290 1.993 . S
Co273 O298 1.941 . S
C274 O275 1.258 . S
C274 O276 1.263 . S
O275 Co272 1.970 . S
O275 C274 1.258 . S
O276 Co273 1.966 . S
O276 C274 1.263 . S
C277 O278 1.235 . S
C277 O304 1.289 . S
O278 C277 1.235 . S
C279 C281 1.400 . S
C279 N282 1.351 . S
C279 C284 1.501 . S
C280 C281 1.387 . S
C280 N283 1.341 . S
C281 C279 1.400 . S
C281 C280 1.387 . S
N282 Co273 2.022 . S
N282 C279 1.351 . S
N282 N283 1.365 . S
N283 C280 1.341 . S
N283 N282 1.365 . S
N283 H303 0.862 . S
C284 C279 1.501 . S
C284 H285 0.961 . S
C284 H286 0.961 . S
C284 H287 0.960 . S
H285 C284 0.961 . S
H286 C284 0.961 . S
H287 C284 0.960 . S
C288 N289 1.342 . S
C288 C292 1.401 . S
C288 C293 1.499 . S
N289 Co272 1.989 . S
N289 C288 1.342 . S
N289 N290 1.388 . S
N290 Co273 1.993 . S
N290 N289 1.388 . S
N290 C291 1.346 . S
C291 N290 1.346 . S
C291 C292 1.396 . S
C291 C301 1.510 . S
C292 C288 1.401 . S
C292 C291 1.396 . S
C293 C288 1.499 . S
C293 H294 0.959 . S
C293 H295 0.960 . S
C293 H296 0.961 . S
H294 C293 0.959 . S
H295 C293 0.960 . S
H296 C293 0.961 . S
O297 Co272 1.967 . S
O297 C305 1.258 . S
O298 Co273 1.941 . S
O298 C305 1.266 . S
H299 C301 0.959 . S
H300 C301 0.961 . S
C301 C291 1.510 . S
C301 H299 0.959 . S
C301 H300 0.961 . S
C301 H302 0.960 . S
H302 C301 0.960 . S
H303 N283 0.862 . S
O304 Co272 1.920 . S
O304 C277 1.289 . S
C305 O297 1.258 . S
C305 O298 1.266 . S
Co306 O309 1.970 . S
Co306 N323 1.989 . S
Co306 O331 1.967 . S
Co306 O338 1.920 . S
Co307 O310 1.966 . S
Co307 N316 2.022 . S
Co307 N324 1.993 . S
Co307 O332 1.941 . S
C308 O309 1.258 . S
C308 O310 1.263 . S
O309 Co306 1.970 . S
O309 C308 1.258 . S
O310 Co307 1.966 . S
O310 C308 1.263 . S
C311 O312 1.235 . S
C311 O338 1.289 . S
O312 C311 1.235 . S
C313 C315 1.400 . S
C313 N316 1.351 . S
C313 C318 1.501 . S
C314 C315 1.387 . S
C314 N317 1.341 . S
C315 C313 1.400 . S
C315 C314 1.387 . S
N316 Co307 2.022 . S
N316 C313 1.351 . S
N316 N317 1.365 . S
N317 C314 1.341 . S
N317 N316 1.365 . S
N317 H337 0.862 . S
C318 C313 1.501 . S
C318 H319 0.961 . S
C318 H320 0.961 . S
C318 H321 0.960 . S
H319 C318 0.961 . S
H320 C318 0.961 . S
H321 C318 0.960 . S
C322 N323 1.342 . S
C322 C326 1.401 . S
C322 C327 1.499 . S
N323 Co306 1.989 . S
N323 C322 1.342 . S
N323 N324 1.388 . S
N324 Co307 1.993 . S
N324 N323 1.388 . S
N324 C325 1.346 . S
C325 N324 1.346 . S
C325 C326 1.396 . S
C325 C335 1.510 . S
C326 C322 1.401 . S
C326 C325 1.396 . S
C327 C322 1.499 . S
C327 H328 0.959 . S
C327 H329 0.960 . S
C327 H330 0.961 . S
H328 C327 0.959 . S
H329 C327 0.960 . S
H330 C327 0.961 . S
O331 Co306 1.967 . S
O331 C339 1.258 . S
O332 Co307 1.941 . S
O332 C339 1.266 . S
H333 C335 0.959 . S
H334 C335 0.961 . S
C335 C325 1.510 . S
C335 H333 0.959 . S
C335 H334 0.961 . S
C335 H336 0.960 . S
H336 C335 0.960 . S
H337 N317 0.862 . S
O338 Co306 1.920 . S
O338 C311 1.289 . S
C339 O331 1.258 . S
C339 O332 1.266 . S
Co340 O343 1.970 . S
Co340 N357 1.989 . S
Co340 O365 1.967 . S
Co340 O372 1.920 . S
Co341 O344 1.966 . S
Co341 N350 2.022 . S
Co341 N358 1.993 . S
Co341 O366 1.941 . S
C342 O343 1.258 . S
C342 O344 1.263 . S
O343 Co340 1.970 . S
O343 C342 1.258 . S
O344 Co341 1.966 . S
O344 C342 1.263 . S
C345 O346 1.235 . S
C345 O372 1.289 . S
O346 C345 1.235 . S
C347 C349 1.400 . S
C347 N350 1.351 . S
C347 C352 1.501 . S
C348 C349 1.387 . S
C348 N351 1.341 . S
C349 C347 1.400 . S
C349 C348 1.387 . S
N350 Co341 2.022 . S
N350 C347 1.351 . S
N350 N351 1.365 . S
N351 C348 1.341 . S
N351 N350 1.365 . S
N351 H371 0.862 . S
C352 C347 1.501 . S
C352 H353 0.961 . S
C352 H354 0.961 . S
C352 H355 0.960 . S
H353 C352 0.961 . S
H354 C352 0.961 . S
H355 C352 0.960 . S
C356 N357 1.342 . S
C356 C360 1.401 . S
C356 C361 1.499 . S
N357 Co340 1.989 . S
N357 C356 1.342 . S
N357 N358 1.388 . S
N358 Co341 1.993 . S
N358 N357 1.388 . S
N358 C359 1.346 . S
C359 N358 1.346 . S
C359 C360 1.396 . S
C359 C369 1.510 . S
C360 C356 1.401 . S
C360 C359 1.396 . S
C361 C356 1.499 . S
C361 H362 0.959 . S
C361 H363 0.960 . S
C361 H364 0.961 . S
H362 C361 0.959 . S
H363 C361 0.960 . S
H364 C361 0.961 . S
O365 Co340 1.967 . S
O365 C373 1.258 . S
O366 Co341 1.941 . S
O366 C373 1.266 . S
H367 C369 0.959 . S
H368 C369 0.961 . S
C369 C359 1.510 . S
C369 H367 0.959 . S
C369 H368 0.961 . S
C369 H370 0.960 . S
H370 C369 0.960 . S
H371 N351 0.862 . S
O372 Co340 1.920 . S
O372 C345 1.289 . S
C373 O365 1.258 . S
C373 O366 1.266 . S
Co374 O377 1.970 . S
Co374 N391 1.989 . S
Co374 O399 1.967 . S
Co374 O406 1.920 . S
Co375 O378 1.966 . S
Co375 N384 2.022 . S
Co375 N392 1.993 . S
Co375 O400 1.941 . S
C376 O377 1.258 . S
C376 O378 1.263 . S
O377 Co374 1.970 . S
O377 C376 1.258 . S
O378 Co375 1.966 . S
O378 C376 1.263 . S
C379 O380 1.235 . S
C379 O406 1.289 . S
O380 C379 1.235 . S
C381 C383 1.400 . S
C381 N384 1.351 . S
C381 C386 1.501 . S
C382 C383 1.387 . S
C382 N385 1.341 . S
C383 C381 1.400 . S
C383 C382 1.387 . S
N384 Co375 2.022 . S
N384 C381 1.351 . S
N384 N385 1.365 . S
N385 C382 1.341 . S
N385 N384 1.365 . S
N385 H405 0.862 . S
C386 C381 1.501 . S
C386 H387 0.961 . S
C386 H388 0.961 . S
C386 H389 0.960 . S
H387 C386 0.961 . S
H388 C386 0.961 . S
H389 C386 0.960 . S
C390 N391 1.342 . S
C390 C394 1.401 . S
C390 C395 1.499 . S
N391 Co374 1.989 . S
N391 C390 1.342 . S
N391 N392 1.388 . S
N392 Co375 1.993 . S
N392 N391 1.388 . S
N392 C393 1.346 . S
C393 N392 1.346 . S
C393 C394 1.396 . S
C393 C403 1.510 . S
C394 C390 1.401 . S
C394 C393 1.396 . S
C395 C390 1.499 . S
C395 H396 0.959 . S
C395 H397 0.960 . S
C395 H398 0.961 . S
H396 C395 0.959 . S
H397 C395 0.960 . S
H398 C395 0.961 . S
O399 Co374 1.967 . S
O399 C407 1.258 . S
O400 Co375 1.941 . S
O400 C407 1.266 . S
H401 C403 0.959 . S
H402 C403 0.961 . S
C403 C393 1.510 . S
C403 H401 0.959 . S
C403 H402 0.961 . S
C403 H404 0.960 . S
H404 C403 0.960 . S
H405 N385 0.862 . S
O406 Co374 1.920 . S
O406 C379 1.289 . S
C407 O399 1.258 . S
C407 O400 1.266 . S
Co408 O411 1.970 . S
Co408 N425 1.989 . S
Co408 O433 1.967 . S
Co408 O440 1.920 . S
Co409 O412 1.966 . S
Co409 N418 2.022 . S
Co409 N426 1.993 . S
Co409 O434 1.941 . S
C410 O411 1.258 . S
C410 O412 1.263 . S
O411 Co408 1.970 . S
O411 C410 1.258 . S
O412 Co409 1.966 . S
O412 C410 1.263 . S
C413 O414 1.235 . S
C413 O440 1.289 . S
O414 C413 1.235 . S
C415 C417 1.400 . S
C415 N418 1.351 . S
C415 C420 1.501 . S
C416 C417 1.387 . S
C416 N419 1.341 . S
C417 C415 1.400 . S
C417 C416 1.387 . S
N418 Co409 2.022 . S
N418 C415 1.351 . S
N418 N419 1.365 . S
N419 C416 1.341 . S
N419 N418 1.365 . S
N419 H439 0.862 . S
C420 C415 1.501 . S
C420 H421 0.961 . S
C420 H422 0.961 . S
C420 H423 0.960 . S
H421 C420 0.961 . S
H422 C420 0.961 . S
H423 C420 0.960 . S
C424 N425 1.342 . S
C424 C428 1.401 . S
C424 C429 1.499 . S
N425 Co408 1.989 . S
N425 C424 1.342 . S
N425 N426 1.388 . S
N426 Co409 1.993 . S
N426 N425 1.388 . S
N426 C427 1.346 . S
C427 N426 1.346 . S
C427 C428 1.396 . S
C427 C437 1.510 . S
C428 C424 1.401 . S
C428 C427 1.396 . S
C429 C424 1.499 . S
C429 H430 0.959 . S
C429 H431 0.960 . S
C429 H432 0.961 . S
H430 C429 0.959 . S
H431 C429 0.960 . S
H432 C429 0.961 . S
O433 Co408 1.967 . S
O433 C441 1.258 . S
O434 Co409 1.941 . S
O434 C441 1.266 . S
H435 C437 0.959 . S
H436 C437 0.961 . S
C437 C427 1.510 . S
C437 H435 0.959 . S
C437 H436 0.961 . S
C437 H438 0.960 . S
H438 C437 0.960 . S
H439 N419 0.862 . S
O440 Co408 1.920 . S
O440 C413 1.289 . S
C441 O433 1.258 . S
C441 O434 1.266 . S
Co442 O445 1.970 . S
Co442 N459 1.989 . S
Co442 O467 1.967 . S
Co442 O474 1.920 . S
Co443 O446 1.966 . S
Co443 N452 2.022 . S
Co443 N460 1.993 . S
Co443 O468 1.941 . S
C444 O445 1.258 . S
C444 O446 1.263 . S
O445 Co442 1.970 . S
O445 C444 1.258 . S
O446 Co443 1.966 . S
O446 C444 1.263 . S
C447 O448 1.235 . S
C447 O474 1.289 . S
O448 C447 1.235 . S
C449 C451 1.400 . S
C449 N452 1.351 . S
C449 C454 1.501 . S
C450 C451 1.387 . S
C450 N453 1.341 . S
C451 C449 1.400 . S
C451 C450 1.387 . S
N452 Co443 2.022 . S
N452 C449 1.351 . S
N452 N453 1.365 . S
N453 C450 1.341 . S
N453 N452 1.365 . S
N453 H473 0.862 . S
C454 C449 1.501 . S
C454 H455 0.961 . S
C454 H456 0.961 . S
C454 H457 0.960 . S
H455 C454 0.961 . S
H456 C454 0.961 . S
H457 C454 0.960 . S
C458 N459 1.342 . S
C458 C462 1.401 . S
C458 C463 1.499 . S
N459 Co442 1.989 . S
N459 C458 1.342 . S
N459 N460 1.388 . S
N460 Co443 1.993 . S
N460 N459 1.388 . S
N460 C461 1.346 . S
C461 N460 1.346 . S
C461 C462 1.396 . S
C461 C471 1.510 . S
C462 C458 1.401 . S
C462 C461 1.396 . S
C463 C458 1.499 . S
C463 H464 0.959 . S
C463 H465 0.960 . S
C463 H466 0.961 . S
H464 C463 0.959 . S
H465 C463 0.960 . S
H466 C463 0.961 . S
O467 Co442 1.967 . S
O467 C475 1.258 . S
O468 Co443 1.941 . S
O468 C475 1.266 . S
H469 C471 0.959 . S
H470 C471 0.961 . S
C471 C461 1.510 . S
C471 H469 0.959 . S
C471 H470 0.961 . S
C471 H472 0.960 . S
H472 C471 0.960 . S
H473 N453 0.862 . S
O474 Co442 1.920 . S
O474 C447 1.289 . S
C475 O467 1.258 . S
C475 O468 1.266 . S
Co476 O479 1.970 . S
Co476 N493 1.989 . S
Co476 O501 1.967 . S
Co476 O508 1.920 . S
Co477 O480 1.966 . S
Co477 N486 2.022 . S
Co477 N494 1.993 . S
Co477 O502 1.941 . S
C478 O479 1.258 . S
C478 O480 1.263 . S
O479 Co476 1.970 . S
O479 C478 1.258 . S
O480 Co477 1.966 . S
O480 C478 1.263 . S
C481 O482 1.235 . S
C481 O508 1.289 . S
O482 C481 1.235 . S
C483 C485 1.400 . S
C483 N486 1.351 . S
C483 C488 1.501 . S
C484 C485 1.387 . S
C484 N487 1.341 . S
C485 C483 1.400 . S
C485 C484 1.387 . S
N486 Co477 2.022 . S
N486 C483 1.351 . S
N486 N487 1.365 . S
N487 C484 1.341 . S
N487 N486 1.365 . S
N487 H507 0.862 . S
C488 C483 1.501 . S
C488 H489 0.961 . S
C488 H490 0.961 . S
C488 H491 0.960 . S
H489 C488 0.961 . S
H490 C488 0.961 . S
H491 C488 0.960 . S
C492 N493 1.342 . S
C492 C496 1.401 . S
C492 C497 1.499 . S
N493 Co476 1.989 . S
N493 C492 1.342 . S
N493 N494 1.388 . S
N494 Co477 1.993 . S
N494 N493 1.388 . S
N494 C495 1.346 . S
C495 N494 1.346 . S
C495 C496 1.396 . S
C495 C505 1.510 . S
C496 C492 1.401 . S
C496 C495 1.396 . S
C497 C492 1.499 . S
C497 H498 0.959 . S
C497 H499 0.960 . S
C497 H500 0.961 . S
H498 C497 0.959 . S
H499 C497 0.960 . S
H500 C497 0.961 . S
O501 Co476 1.967 . S
O501 C509 1.258 . S
O502 Co477 1.941 . S
O502 C509 1.266 . S
H503 C505 0.959 . S
H504 C505 0.961 . S
C505 C495 1.510 . S
C505 H503 0.959 . S
C505 H504 0.961 . S
C505 H506 0.960 . S
H506 C505 0.960 . S
H507 N487 0.862 . S
O508 Co476 1.920 . S
O508 C481 1.289 . S
C509 O501 1.258 . S
C509 O502 1.266 . S
Co510 O513 1.970 . S
Co510 N527 1.989 . S
Co510 O535 1.967 . S
Co510 O542 1.920 . S
Co511 O514 1.966 . S
Co511 N520 2.022 . S
Co511 N528 1.993 . S
Co511 O536 1.941 . S
C512 O513 1.258 . S
C512 O514 1.263 . S
O513 Co510 1.970 . S
O513 C512 1.258 . S
O514 Co511 1.966 . S
O514 C512 1.263 . S
C515 O516 1.235 . S
C515 O542 1.289 . S
O516 C515 1.235 . S
C517 C519 1.400 . S
C517 N520 1.351 . S
C517 C522 1.501 . S
C518 C519 1.387 . S
C518 N521 1.341 . S
C519 C517 1.400 . S
C519 C518 1.387 . S
N520 Co511 2.022 . S
N520 C517 1.351 . S
N520 N521 1.365 . S
N521 C518 1.341 . S
N521 N520 1.365 . S
N521 H541 0.862 . S
C522 C517 1.501 . S
C522 H523 0.961 . S
C522 H524 0.961 . S
C522 H525 0.960 . S
H523 C522 0.961 . S
H524 C522 0.961 . S
H525 C522 0.960 . S
C526 N527 1.342 . S
C526 C530 1.401 . S
C526 C531 1.499 . S
N527 Co510 1.989 . S
N527 C526 1.342 . S
N527 N528 1.388 . S
N528 Co511 1.993 . S
N528 N527 1.388 . S
N528 C529 1.346 . S
C529 N528 1.346 . S
C529 C530 1.396 . S
C529 C539 1.510 . S
C530 C526 1.401 . S
C530 C529 1.396 . S
C531 C526 1.499 . S
C531 H532 0.959 . S
C531 H533 0.960 . S
C531 H534 0.961 . S
H532 C531 0.959 . S
H533 C531 0.960 . S
H534 C531 0.961 . S
O535 Co510 1.967 . S
O535 C543 1.258 . S
O536 Co511 1.941 . S
O536 C543 1.266 . S
H537 C539 0.959 . S
H538 C539 0.961 . S
C539 C529 1.510 . S
C539 H537 0.959 . S
C539 H538 0.961 . S
C539 H540 0.960 . S
H540 C539 0.960 . S
H541 N521 0.862 . S
O542 Co510 1.920 . S
O542 C515 1.289 . S
C543 O535 1.258 . S
C543 O536 1.266 . S
Co544 O547 1.970 . S
Co544 N561 1.989 . S
Co544 O569 1.967 . S
Co544 O576 1.920 . S
Co545 O548 1.966 . S
Co545 N554 2.022 . S
Co545 N562 1.993 . S
Co545 O570 1.941 . S
C546 O547 1.258 . S
C546 O548 1.263 . S
O547 Co544 1.970 . S
O547 C546 1.258 . S
O548 Co545 1.966 . S
O548 C546 1.263 . S
C549 O550 1.235 . S
C549 O576 1.289 . S
O550 C549 1.235 . S
C551 C553 1.400 . S
C551 N554 1.351 . S
C551 C556 1.501 . S
C552 C553 1.387 . S
C552 N555 1.341 . S
C553 C551 1.400 . S
C553 C552 1.387 . S
N554 Co545 2.022 . S
N554 C551 1.351 . S
N554 N555 1.365 . S
N555 C552 1.341 . S
N555 N554 1.365 . S
N555 H575 0.862 . S
C556 C551 1.501 . S
C556 H557 0.961 . S
C556 H558 0.961 . S
C556 H559 0.960 . S
H557 C556 0.961 . S
H558 C556 0.961 . S
H559 C556 0.960 . S
C560 N561 1.342 . S
C560 C564 1.401 . S
C560 C565 1.499 . S
N561 Co544 1.989 . S
N561 C560 1.342 . S
N561 N562 1.388 . S
N562 Co545 1.993 . S
N562 N561 1.388 . S
N562 C563 1.346 . S
C563 N562 1.346 . S
C563 C564 1.396 . S
C563 C573 1.510 . S
C564 C560 1.401 . S
C564 C563 1.396 . S
C565 C560 1.499 . S
C565 H566 0.959 . S
C565 H567 0.960 . S
C565 H568 0.961 . S
H566 C565 0.959 . S
H567 C565 0.960 . S
H568 C565 0.961 . S
O569 Co544 1.967 . S
O569 C577 1.258 . S
O570 Co545 1.941 . S
O570 C577 1.266 . S
H571 C573 0.959 . S
H572 C573 0.961 . S
C573 C563 1.510 . S
C573 H571 0.959 . S
C573 H572 0.961 . S
C573 H574 0.960 . S
H574 C573 0.960 . S
H575 N555 0.862 . S
O576 Co544 1.920 . S
O576 C549 1.289 . S
C577 O569 1.258 . S
C577 O570 1.266 . S
Co578 O581 1.970 . S
Co578 N595 1.989 . S
Co578 O603 1.967 . S
Co578 O610 1.920 . S
Co579 O582 1.966 . S
Co579 N588 2.022 . S
Co579 N596 1.993 . S
Co579 O604 1.941 . S
C580 O581 1.258 . S
C580 O582 1.263 . S
O581 Co578 1.970 . S
O581 C580 1.258 . S
O582 Co579 1.966 . S
O582 C580 1.263 . S
C583 O584 1.235 . S
C583 O610 1.289 . S
O584 C583 1.235 . S
C585 C587 1.400 . S
C585 N588 1.351 . S
C585 C590 1.501 . S
C586 C587 1.387 . S
C586 N589 1.341 . S
C587 C585 1.400 . S
C587 C586 1.387 . S
N588 Co579 2.022 . S
N588 C585 1.351 . S
N588 N589 1.365 . S
N589 C586 1.341 . S
N589 N588 1.365 . S
N589 H609 0.862 . S
C590 C585 1.501 . S
C590 H591 0.961 . S
C590 H592 0.961 . S
C590 H593 0.960 . S
H591 C590 0.961 . S
H592 C590 0.961 . S
H593 C590 0.960 . S
C594 N595 1.342 . S
C594 C598 1.401 . S
C594 C599 1.499 . S
N595 Co578 1.989 . S
N595 C594 1.342 . S
N595 N596 1.388 . S
N596 Co579 1.993 . S
N596 N595 1.388 . S
N596 C597 1.346 . S
C597 N596 1.346 . S
C597 C598 1.396 . S
C597 C607 1.510 . S
C598 C594 1.401 . S
C598 C597 1.396 . S
C599 C594 1.499 . S
C599 H600 0.959 . S
C599 H601 0.960 . S
C599 H602 0.961 . S
H600 C599 0.959 . S
H601 C599 0.960 . S
H602 C599 0.961 . S
O603 Co578 1.967 . S
O603 C611 1.258 . S
O604 Co579 1.941 . S
O604 C611 1.266 . S
H605 C607 0.959 . S
H606 C607 0.961 . S
C607 C597 1.510 . S
C607 H605 0.959 . S
C607 H606 0.961 . S
C607 H608 0.960 . S
H608 C607 0.960 . S
H609 N589 0.862 . S
O610 Co578 1.920 . S
O610 C583 1.289 . S
C611 O603 1.258 . S
C611 O604 1.266 . S
Co612 O615 1.970 . S
Co612 N629 1.989 . S
Co612 O637 1.967 . S
Co612 O644 1.920 . S
Co613 O616 1.966 . S
Co613 N622 2.022 . S
Co613 N630 1.993 . S
Co613 O638 1.941 . S
C614 O615 1.258 . S
C614 O616 1.263 . S
O615 Co612 1.970 . S
O615 C614 1.258 . S
O616 Co613 1.966 . S
O616 C614 1.263 . S
C617 O618 1.235 . S
C617 O644 1.289 . S
O618 C617 1.235 . S
C619 C621 1.400 . S
C619 N622 1.351 . S
C619 C624 1.501 . S
C620 C621 1.387 . S
C620 N623 1.341 . S
C621 C619 1.400 . S
C621 C620 1.387 . S
N622 Co613 2.022 . S
N622 C619 1.351 . S
N622 N623 1.365 . S
N623 C620 1.341 . S
N623 N622 1.365 . S
N623 H643 0.862 . S
C624 C619 1.501 . S
C624 H625 0.961 . S
C624 H626 0.961 . S
C624 H627 0.960 . S
H625 C624 0.961 . S
H626 C624 0.961 . S
H627 C624 0.960 . S
C628 N629 1.342 . S
C628 C632 1.401 . S
C628 C633 1.499 . S
N629 Co612 1.989 . S
N629 C628 1.342 . S
N629 N630 1.388 . S
N630 Co613 1.993 . S
N630 N629 1.388 . S
N630 C631 1.346 . S
C631 N630 1.346 . S
C631 C632 1.396 . S
C631 C641 1.510 . S
C632 C628 1.401 . S
C632 C631 1.396 . S
C633 C628 1.499 . S
C633 H634 0.959 . S
C633 H635 0.960 . S
C633 H636 0.961 . S
H634 C633 0.959 . S
H635 C633 0.960 . S
H636 C633 0.961 . S
O637 Co612 1.967 . S
O637 C645 1.258 . S
O638 Co613 1.941 . S
O638 C645 1.266 . S
H639 C641 0.959 . S
H640 C641 0.961 . S
C641 C631 1.510 . S
C641 H639 0.959 . S
C641 H640 0.961 . S
C641 H642 0.960 . S
H642 C641 0.960 . S
H643 N623 0.862 . S
O644 Co612 1.920 . S
O644 C617 1.289 . S
C645 O637 1.258 . S
C645 O638 1.266 . S
Co646 O649 1.970 . S
Co646 N663 1.989 . S
Co646 O671 1.967 . S
Co646 O678 1.920 . S
Co647 O650 1.966 . S
Co647 N656 2.022 . S
Co647 N664 1.993 . S
Co647 O672 1.941 . S
C648 O649 1.258 . S
C648 O650 1.263 . S
O649 Co646 1.970 . S
O649 C648 1.258 . S
O650 Co647 1.966 . S
O650 C648 1.263 . S
C651 O652 1.235 . S
C651 O678 1.289 . S
O652 C651 1.235 . S
C653 C655 1.400 . S
C653 N656 1.351 . S
C653 C658 1.501 . S
C654 C655 1.387 . S
C654 N657 1.341 . S
C655 C653 1.400 . S
C655 C654 1.387 . S
N656 Co647 2.022 . S
N656 C653 1.351 . S
N656 N657 1.365 . S
N657 C654 1.341 . S
N657 N656 1.365 . S
N657 H677 0.862 . S
C658 C653 1.501 . S
C658 H659 0.961 . S
C658 H660 0.961 . S
C658 H661 0.960 . S
H659 C658 0.961 . S
H660 C658 0.961 . S
H661 C658 0.960 . S
C662 N663 1.342 . S
C662 C666 1.401 . S
C662 C667 1.499 . S
N663 Co646 1.989 . S
N663 C662 1.342 . S
N663 N664 1.388 . S
N664 Co647 1.993 . S
N664 N663 1.388 . S
N664 C665 1.346 . S
C665 N664 1.346 . S
C665 C666 1.396 . S
C665 C675 1.510 . S
C666 C662 1.401 . S
C666 C665 1.396 . S
C667 C662 1.499 . S
C667 H668 0.959 . S
C667 H669 0.960 . S
C667 H670 0.961 . S
H668 C667 0.959 . S
H669 C667 0.960 . S
H670 C667 0.961 . S
O671 Co646 1.967 . S
O671 C679 1.258 . S
O672 Co647 1.941 . S
O672 C679 1.266 . S
H673 C675 0.959 . S
H674 C675 0.961 . S
C675 C665 1.510 . S
C675 H673 0.959 . S
C675 H674 0.961 . S
C675 H676 0.960 . S
H676 C675 0.960 . S
H677 N657 0.862 . S
O678 Co646 1.920 . S
O678 C651 1.289 . S
C679 O671 1.258 . S
C679 O672 1.266 . S
Co680 O683 1.970 . S
Co680 N697 1.989 . S
Co680 O705 1.967 . S
Co680 O712 1.920 . S
Co681 O684 1.966 . S
Co681 N690 2.022 . S
Co681 N698 1.993 . S
Co681 O706 1.941 . S
C682 O683 1.258 . S
C682 O684 1.263 . S
O683 Co680 1.970 . S
O683 C682 1.258 . S
O684 Co681 1.966 . S
O684 C682 1.263 . S
C685 O686 1.235 . S
C685 O712 1.289 . S
O686 C685 1.235 . S
C687 C689 1.400 . S
C687 N690 1.351 . S
C687 C692 1.501 . S
C688 C689 1.387 . S
C688 N691 1.341 . S
C689 C687 1.400 . S
C689 C688 1.387 . S
N690 Co681 2.022 . S
N690 C687 1.351 . S
N690 N691 1.365 . S
N691 C688 1.341 . S
N691 N690 1.365 . S
N691 H711 0.862 . S
C692 C687 1.501 . S
C692 H693 0.961 . S
C692 H694 0.961 . S
C692 H695 0.960 . S
H693 C692 0.961 . S
H694 C692 0.961 . S
H695 C692 0.960 . S
C696 N697 1.342 . S
C696 C700 1.401 . S
C696 C701 1.499 . S
N697 Co680 1.989 . S
N697 C696 1.342 . S
N697 N698 1.388 . S
N698 Co681 1.993 . S
N698 N697 1.388 . S
N698 C699 1.346 . S
C699 N698 1.346 . S
C699 C700 1.396 . S
C699 C709 1.510 . S
C700 C696 1.401 . S
C700 C699 1.396 . S
C701 C696 1.499 . S
C701 H702 0.959 . S
C701 H703 0.960 . S
C701 H704 0.961 . S
H702 C701 0.959 . S
H703 C701 0.960 . S
H704 C701 0.961 . S
O705 Co680 1.967 . S
O705 C713 1.258 . S
O706 Co681 1.941 . S
O706 C713 1.266 . S
H707 C709 0.959 . S
H708 C709 0.961 . S
C709 C699 1.510 . S
C709 H707 0.959 . S
C709 H708 0.961 . S
C709 H710 0.960 . S
H710 C709 0.960 . S
H711 N691 0.862 . S
O712 Co680 1.920 . S
O712 C685 1.289 . S
C713 O705 1.258 . S
C713 O706 1.266 . S
Co714 O717 1.970 . S
Co714 N731 1.989 . S
Co714 O739 1.967 . S
Co714 O746 1.920 . S
Co715 O718 1.966 . S
Co715 N724 2.022 . S
Co715 N732 1.993 . S
Co715 O740 1.941 . S
C716 O717 1.258 . S
C716 O718 1.263 . S
O717 Co714 1.970 . S
O717 C716 1.258 . S
O718 Co715 1.966 . S
O718 C716 1.263 . S
C719 O720 1.235 . S
C719 O746 1.289 . S
O720 C719 1.235 . S
C721 C723 1.400 . S
C721 N724 1.351 . S
C721 C726 1.501 . S
C722 C723 1.387 . S
C722 N725 1.341 . S
C723 C721 1.400 . S
C723 C722 1.387 . S
N724 Co715 2.022 . S
N724 C721 1.351 . S
N724 N725 1.365 . S
N725 C722 1.341 . S
N725 N724 1.365 . S
N725 H745 0.862 . S
C726 C721 1.501 . S
C726 H727 0.961 . S
C726 H728 0.961 . S
C726 H729 0.960 . S
H727 C726 0.961 . S
H728 C726 0.961 . S
H729 C726 0.960 . S
C730 N731 1.342 . S
C730 C734 1.401 . S
C730 C735 1.499 . S
N731 Co714 1.989 . S
N731 C730 1.342 . S
N731 N732 1.388 . S
N732 Co715 1.993 . S
N732 N731 1.388 . S
N732 C733 1.346 . S
C733 N732 1.346 . S
C733 C734 1.396 . S
C733 C743 1.510 . S
C734 C730 1.401 . S
C734 C733 1.396 . S
C735 C730 1.499 . S
C735 H736 0.959 . S
C735 H737 0.960 . S
C735 H738 0.961 . S
H736 C735 0.959 . S
H737 C735 0.960 . S
H738 C735 0.961 . S
O739 Co714 1.967 . S
O739 C747 1.258 . S
O740 Co715 1.941 . S
O740 C747 1.266 . S
H741 C743 0.959 . S
H742 C743 0.961 . S
C743 C733 1.510 . S
C743 H741 0.959 . S
C743 H742 0.961 . S
C743 H744 0.960 . S
H744 C743 0.960 . S
H745 N725 0.862 . S
O746 Co714 1.920 . S
O746 C719 1.289 . S
C747 O739 1.258 . S
C747 O740 1.266 . S
Co748 O751 1.970 . S
Co748 N765 1.989 . S
Co748 O773 1.967 . S
Co748 O780 1.920 . S
Co749 O752 1.966 . S
Co749 N758 2.022 . S
Co749 N766 1.993 . S
Co749 O774 1.941 . S
C750 O751 1.258 . S
C750 O752 1.263 . S
O751 Co748 1.970 . S
O751 C750 1.258 . S
O752 Co749 1.966 . S
O752 C750 1.263 . S
C753 O754 1.235 . S
C753 O780 1.289 . S
O754 C753 1.235 . S
C755 C757 1.400 . S
C755 N758 1.351 . S
C755 C760 1.501 . S
C756 C757 1.387 . S
C756 N759 1.341 . S
C757 C755 1.400 . S
C757 C756 1.387 . S
N758 Co749 2.022 . S
N758 C755 1.351 . S
N758 N759 1.365 . S
N759 C756 1.341 . S
N759 N758 1.365 . S
N759 H779 0.862 . S
C760 C755 1.501 . S
C760 H761 0.961 . S
C760 H762 0.961 . S
C760 H763 0.960 . S
H761 C760 0.961 . S
H762 C760 0.961 . S
H763 C760 0.960 . S
C764 N765 1.342 . S
C764 C768 1.401 . S
C764 C769 1.499 . S
N765 Co748 1.989 . S
N765 C764 1.342 . S
N765 N766 1.388 . S
N766 Co749 1.993 . S
N766 N765 1.388 . S
N766 C767 1.346 . S
C767 N766 1.346 . S
C767 C768 1.396 . S
C767 C777 1.510 . S
C768 C764 1.401 . S
C768 C767 1.396 . S
C769 C764 1.499 . S
C769 H770 0.959 . S
C769 H771 0.960 . S
C769 H772 0.961 . S
H770 C769 0.959 . S
H771 C769 0.960 . S
H772 C769 0.961 . S
O773 Co748 1.967 . S
O773 C781 1.258 . S
O774 Co749 1.941 . S
O774 C781 1.266 . S
H775 C777 0.959 . S
H776 C777 0.961 . S
C777 C767 1.510 . S
C777 H775 0.959 . S
C777 H776 0.961 . S
C777 H778 0.960 . S
H778 C777 0.960 . S
H779 N759 0.862 . S
O780 Co748 1.920 . S
O780 C753 1.289 . S
C781 O773 1.258 . S
C781 O774 1.266 . S
Co782 O785 1.970 . S
Co782 N799 1.989 . S
Co782 O807 1.967 . S
Co782 O814 1.920 . S
Co783 O786 1.966 . S
Co783 N792 2.022 . S
Co783 N800 1.993 . S
Co783 O808 1.941 . S
C784 O785 1.258 . S
C784 O786 1.263 . S
O785 Co782 1.970 . S
O785 C784 1.258 . S
O786 Co783 1.966 . S
O786 C784 1.263 . S
C787 O788 1.235 . S
C787 O814 1.289 . S
O788 C787 1.235 . S
C789 C791 1.400 . S
C789 N792 1.351 . S
C789 C794 1.501 . S
C790 C791 1.387 . S
C790 N793 1.341 . S
C791 C789 1.400 . S
C791 C790 1.387 . S
N792 Co783 2.022 . S
N792 C789 1.351 . S
N792 N793 1.365 . S
N793 C790 1.341 . S
N793 N792 1.365 . S
N793 H813 0.862 . S
C794 C789 1.501 . S
C794 H795 0.961 . S
C794 H796 0.961 . S
C794 H797 0.960 . S
H795 C794 0.961 . S
H796 C794 0.961 . S
H797 C794 0.960 . S
C798 N799 1.342 . S
C798 C802 1.401 . S
C798 C803 1.499 . S
N799 Co782 1.989 . S
N799 C798 1.342 . S
N799 N800 1.388 . S
N800 Co783 1.993 . S
N800 N799 1.388 . S
N800 C801 1.346 . S
C801 N800 1.346 . S
C801 C802 1.396 . S
C801 C811 1.510 . S
C802 C798 1.401 . S
C802 C801 1.396 . S
C803 C798 1.499 . S
C803 H804 0.959 . S
C803 H805 0.960 . S
C803 H806 0.961 . S
H804 C803 0.959 . S
H805 C803 0.960 . S
H806 C803 0.961 . S
O807 Co782 1.967 . S
O807 C815 1.258 . S
O808 Co783 1.941 . S
O808 C815 1.266 . S
H809 C811 0.959 . S
H810 C811 0.961 . S
C811 C801 1.510 . S
C811 H809 0.959 . S
C811 H810 0.961 . S
C811 H812 0.960 . S
H812 C811 0.960 . S
H813 N793 0.862 . S
O814 Co782 1.920 . S
O814 C787 1.289 . S
C815 O807 1.258 . S
C815 O808 1.266 . S
C816 C817 1.349 . S
C816 C818 1.327 . S
C816 H841 0.950 . S
C817 C816 1.349 . S
C817 C833 1.349 . S
C818 C816 1.327 . S
C818 C837 1.429 . S
C818 H842 0.950 . S
C819 C836 1.499 1_545 S
C819 C838 1.408 . S
C819 H843 0.984 . S
H820 C824 0.984 . S
C821 C822 1.349 . S
C821 C823 1.327 . S
C821 H844 0.950 . S
C822 C821 1.349 . S
C822 C834 1.349 . S
C823 C821 1.327 . S
C823 C839 1.429 . S
C823 H845 0.950 . S
C824 H820 0.984 . S
C824 C832 1.499 1_565 S
C824 C840 1.408 . S
H825 C833 0.950 . S
H826 C831 0.950 . S
H827 C832 0.949 . S
H828 C834 0.950 . S
H829 C835 0.950 . S
H830 C836 0.949 . S
C831 H826 0.950 . S
C831 C833 1.327 . S
C831 C837 1.429 . S
C832 C824 1.499 1_545 S
C832 H827 0.949 . S
C832 C838 1.368 . S
C833 C817 1.349 . S
C833 H825 0.950 . S
C833 C831 1.327 . S
C834 C822 1.349 . S
C834 H828 0.950 . S
C834 C835 1.327 . S
C835 H829 0.950 . S
C835 C834 1.327 . S
C835 C839 1.429 . S
C836 C819 1.499 1_565 S
C836 H830 0.949 . S
C836 C840 1.368 . S
C837 C818 1.429 . S
C837 C831 1.429 . S
C837 C838 1.523 . S
C838 C819 1.408 . S
C838 C832 1.368 . S
C838 C837 1.523 . S
C839 C823 1.429 . S
C839 C835 1.429 . S
C839 C840 1.523 . S
C840 C824 1.408 . S
C840 C836 1.368 . S
C840 C839 1.523 . S
H841 C816 0.950 . S
H842 C818 0.950 . S
H843 C819 0.984 . S
H844 C821 0.950 . S
H845 C823 0.950 . S
C846 C847 1.349 . S
C846 C848 1.327 . S
C846 H871 0.950 . S
C847 C846 1.349 . S
C847 C863 1.349 . S
C848 C846 1.327 . S
C848 C867 1.429 . S
C848 H872 0.950 . S
C849 C866 1.574 . S
C849 C868 1.368 . S
C849 H873 0.949 . S
H850 C854 0.949 . S
C851 C852 1.349 . S
C851 C853 1.327 . S
C851 H874 0.950 . S
C852 C851 1.349 . S
C852 C864 1.349 . S
C853 C851 1.327 . S
C853 C869 1.429 . S
C853 H875 0.950 . S
C854 H850 0.949 . S
C854 C862 1.574 . S
C854 C870 1.368 . S
H855 C863 0.950 . S
H856 C861 0.950 . S
H857 C862 0.949 . S
H858 C864 0.950 . S
H859 C865 0.950 . S
H860 C866 0.949 . S
C861 H856 0.950 . S
C861 C863 1.327 . S
C861 C867 1.429 . S
C862 C854 1.574 . S
C862 H857 0.949 . S
C862 C868 1.368 . S
C863 C847 1.349 . S
C863 H855 0.950 . S
C863 C861 1.327 . S
C864 C852 1.349 . S
C864 H858 0.950 . S
C864 C865 1.327 . S
C865 H859 0.950 . S
C865 C864 1.327 . S
C865 C869 1.429 . S
C866 C849 1.574 . S
C866 H860 0.949 . S
C866 C870 1.368 . S
C867 C848 1.429 . S
C867 C861 1.429 . S
C867 C868 1.523 . S
C868 C849 1.368 . S
C868 C862 1.368 . S
C868 C867 1.523 . S
C869 C853 1.429 . S
C869 C865 1.429 . S
C869 C870 1.523 . S
C870 C854 1.368 . S
C870 C866 1.368 . S
C870 C869 1.523 . S
H871 C846 0.950 . S
H872 C848 0.950 . S
H873 C849 0.949 . S
H874 C851 0.950 . S
H875 C853 0.950 . S
C876 C877 1.349 . S
C876 C878 1.327 . S
C876 H901 0.950 . S
C877 C876 1.349 . S
C877 C893 1.349 . S
C878 C876 1.327 . S
C878 C897 1.429 . S
C878 H902 0.950 . S
C879 C896 1.553 1_455 S
C879 C898 1.417 . S
C879 H903 0.929 . S
H880 C884 0.929 . S
C881 C882 1.349 . S
C881 C883 1.327 . S
C881 H904 0.950 . S
C882 C881 1.349 . S
C882 C894 1.349 . S
C883 C881 1.327 . S
C883 C899 1.429 . S
C883 H905 0.950 . S
C884 H880 0.929 . S
C884 C892 1.553 1_655 S
C884 C900 1.417 . S
H885 C893 0.950 . S
H886 C891 0.950 . S
H887 C892 0.949 . S
H888 C894 0.950 . S
H889 C895 0.950 . S
H890 C896 0.949 . S
C891 H886 0.950 . S
C891 C893 1.327 . S
C891 C897 1.429 . S
C892 C884 1.553 1_455 S
C892 H887 0.949 . S
C892 C898 1.368 . S
C893 C877 1.349 . S
C893 H885 0.950 . S
C893 C891 1.327 . S
C894 C882 1.349 . S
C894 H888 0.950 . S
C894 C895 1.327 . S
C895 H889 0.950 . S
C895 C894 1.327 . S
C895 C899 1.429 . S
C896 C879 1.553 1_655 S
C896 H890 0.949 . S
C896 C900 1.368 . S
C897 C878 1.429 . S
C897 C891 1.429 . S
C897 C898 1.523 . S
C898 C879 1.417 . S
C898 C892 1.368 . S
C898 C897 1.523 . S
C899 C883 1.429 . S
C899 C895 1.429 . S
C899 C900 1.523 . S
C900 C884 1.417 . S
C900 C896 1.368 . S
C900 C899 1.523 . S
H901 C876 0.950 . S
H902 C878 0.950 . S
H903 C879 0.929 . S
H904 C881 0.950 . S
H905 C883 0.950 . S
C906 C907 1.349 . S
C906 C908 1.327 . S
C906 H931 0.950 . S
C907 C906 1.349 . S
C907 C923 1.349 . S
C908 C906 1.327 . S
C908 C927 1.429 . S
C908 H932 0.950 . S
C909 C926 1.499 1_455 S
C909 C928 1.408 . S
C909 H933 0.984 . S
H910 C914 0.984 . S
C911 C912 1.349 . S
C911 C913 1.327 . S
C911 H934 0.950 . S
C912 C911 1.349 . S
C912 C924 1.349 . S
C913 C911 1.327 . S
C913 C929 1.429 . S
C913 H935 0.950 . S
C914 H910 0.984 . S
C914 C922 1.499 1_655 S
C914 C930 1.408 . S
H915 C923 0.950 . S
H916 C921 0.950 . S
H917 C922 0.949 . S
H918 C924 0.950 . S
H919 C925 0.950 . S
H920 C926 0.949 . S
C921 H916 0.950 . S
C921 C923 1.327 . S
C921 C927 1.429 . S
C922 C914 1.499 1_455 S
C922 H917 0.949 . S
C922 C928 1.368 . S
C923 C907 1.349 . S
C923 H915 0.950 . S
C923 C921 1.327 . S
C924 C912 1.349 . S
C924 H918 0.950 . S
C924 C925 1.327 . S
C925 H919 0.950 . S
C925 C924 1.327 . S
C925 C929 1.429 . S
C926 C909 1.499 1_655 S
C926 H920 0.949 . S
C926 C930 1.368 . S
C927 C908 1.429 . S
C927 C921 1.429 . S
C927 C928 1.523 . S
C928 C909 1.408 . S
C928 C922 1.368 . S
C928 C927 1.523 . S
C929 C913 1.429 . S
C929 C925 1.429 . S
C929 C930 1.523 . S
C930 C914 1.408 . S
C930 C926 1.368 . S
C930 C929 1.523 . S
H931 C906 0.950 . S
H932 C908 0.950 . S
H933 C909 0.984 . S
H934 C911 0.950 . S
H935 C913 0.950 . S
C936 C937 1.349 . S
C936 C938 1.327 . S
C936 H961 0.950 . S
C937 C936 1.349 . S
C937 C953 1.349 . S
C938 C936 1.327 . S
C938 C957 1.429 . S
C938 H962 0.950 . S
C939 C956 1.553 1_565 S
C939 C958 1.417 . S
C939 H963 0.929 . S
H940 C944 0.929 . S
C941 C942 1.349 . S
C941 C943 1.327 . S
C941 H964 0.950 . S
C942 C941 1.349 . S
C942 C954 1.349 . S
C943 C941 1.327 . S
C943 C959 1.429 . S
C943 H965 0.950 . S
C944 H940 0.929 . S
C944 C952 1.553 1_545 S
C944 C960 1.417 . S
H945 C953 0.950 . S
H946 C951 0.950 . S
H947 C952 0.949 . S
H948 C954 0.950 . S
H949 C955 0.950 . S
H950 C956 0.949 . S
C951 H946 0.950 . S
C951 C953 1.327 . S
C951 C957 1.429 . S
C952 C944 1.553 1_565 S
C952 H947 0.949 . S
C952 C958 1.368 . S
C953 C937 1.349 . S
C953 H945 0.950 . S
C953 C951 1.327 . S
C954 C942 1.349 . S
C954 H948 0.950 . S
C954 C955 1.327 . S
C955 H949 0.950 . S
C955 C954 1.327 . S
C955 C959 1.429 . S
C956 C939 1.553 1_545 S
C956 H950 0.949 . S
C956 C960 1.368 . S
C957 C938 1.429 . S
C957 C951 1.429 . S
C957 C958 1.523 . S
C958 C939 1.417 . S
C958 C952 1.368 . S
C958 C957 1.523 . S
C959 C943 1.429 . S
C959 C955 1.429 . S
C959 C960 1.523 . S
C960 C944 1.417 . S
C960 C956 1.368 . S
C960 C959 1.523 . S
H961 C936 0.950 . S
H962 C938 0.950 . S
H963 C939 0.929 . S
H964 C941 0.950 . S
H965 C943 0.950 . S
C966 C967 1.349 . S
C966 C968 1.327 . S
C966 H991 0.950 . S
C967 C966 1.349 . S
C967 C983 1.349 . S
C968 C966 1.327 . S
C968 C987 1.429 . S
C968 H992 0.950 . S
C969 C986 1.574 . S
C969 C988 1.368 . S
C969 H993 0.949 . S
H970 C974 0.949 . S
C971 C972 1.349 . S
C971 C973 1.327 . S
C971 H994 0.950 . S
C972 C971 1.349 . S
C972 C984 1.349 . S
C973 C971 1.327 . S
C973 C989 1.429 . S
C973 H995 0.950 . S
C974 H970 0.949 . S
C974 C982 1.574 . S
C974 C990 1.368 . S
H975 C983 0.950 . S
H976 C981 0.950 . S
H977 C982 0.949 . S
H978 C984 0.950 . S
H979 C985 0.950 . S
H980 C986 0.949 . S
C981 H976 0.950 . S
C981 C983 1.327 . S
C981 C987 1.429 . S
C982 C974 1.574 . S
C982 H977 0.949 . S
C982 C988 1.368 . S
C983 C967 1.349 . S
C983 H975 0.950 . S
C983 C981 1.327 . S
C984 C972 1.349 . S
C984 H978 0.950 . S
C984 C985 1.327 . S
C985 H979 0.950 . S
C985 C984 1.327 . S
C985 C989 1.429 . S
C986 C969 1.574 . S
C986 H980 0.949 . S
C986 C990 1.368 . S
C987 C968 1.429 . S
C987 C981 1.429 . S
C987 C988 1.523 . S
C988 C969 1.368 . S
C988 C982 1.368 . S
C988 C987 1.523 . S
C989 C973 1.429 . S
C989 C985 1.429 . S
C989 C990 1.523 . S
C990 C974 1.368 . S
C990 C986 1.368 . S
C990 C989 1.523 . S
H991 C966 0.950 . S
H992 C968 0.950 . S
H993 C969 0.949 . S
H994 C971 0.950 . S
H995 C973 0.950 . S
C996 C997 1.349 . S
C996 C998 1.327 . S
C996 H1021 0.950 . S
C997 C996 1.349 . S
C997 C1013 1.349 . S
C998 C996 1.327 . S
C998 C1017 1.429 . S
C998 H1022 0.950 . S
C999 C1016 1.499 1_545 S
C999 C1018 1.408 . S
C999 H1023 0.984 . S
H1000 C1004 0.984 . S
C1001 C1002 1.349 . S
C1001 C1003 1.327 . S
C1001 H1024 0.950 . S
C1002 C1001 1.349 . S
C1002 C1014 1.349 . S
C1003 C1001 1.327 . S
C1003 C1019 1.429 . S
C1003 H1025 0.950 . S
C1004 H1000 0.984 . S
C1004 C1012 1.499 1_565 S
C1004 C1020 1.408 . S
H1005 C1013 0.950 . S
H1006 C1011 0.950 . S
H1007 C1012 0.949 . S
H1008 C1014 0.950 . S
H1009 C1015 0.950 . S
H1010 C1016 0.949 . S
C1011 H1006 0.950 . S
C1011 C1013 1.327 . S
C1011 C1017 1.429 . S
C1012 C1004 1.499 1_545 S
C1012 H1007 0.949 . S
C1012 C1018 1.368 . S
C1013 C997 1.349 . S
C1013 H1005 0.950 . S
C1013 C1011 1.327 . S
C1014 C1002 1.349 . S
C1014 H1008 0.950 . S
C1014 C1015 1.327 . S
C1015 H1009 0.950 . S
C1015 C1014 1.327 . S
C1015 C1019 1.429 . S
C1016 C999 1.499 1_565 S
C1016 H1010 0.949 . S
C1016 C1020 1.368 . S
C1017 C998 1.429 . S
C1017 C1011 1.429 . S
C1017 C1018 1.523 . S
C1018 C999 1.408 . S
C1018 C1012 1.368 . S
C1018 C1017 1.523 . S
C1019 C1003 1.429 . S
C1019 C1015 1.429 . S
C1019 C1020 1.523 . S
C1020 C1004 1.408 . S
C1020 C1016 1.368 . S
C1020 C1019 1.523 . S
H1021 C996 0.950 . S
H1022 C998 0.950 . S
H1023 C999 0.984 . S
H1024 C1001 0.950 . S
H1025 C1003 0.950 . S
C1026 C1027 1.349 . S
C1026 C1028 1.327 . S
C1026 H1051 0.950 . S
C1027 C1026 1.349 . S
C1027 C1043 1.349 . S
C1028 C1026 1.327 . S
C1028 C1047 1.429 . S
C1028 H1052 0.950 . S
C1029 C1046 1.574 . S
C1029 C1048 1.368 . S
C1029 H1053 0.949 . S
H1030 C1034 0.949 . S
C1031 C1032 1.349 . S
C1031 C1033 1.327 . S
C1031 H1054 0.950 . S
C1032 C1031 1.349 . S
C1032 C1044 1.349 . S
C1033 C1031 1.327 . S
C1033 C1049 1.429 . S
C1033 H1055 0.950 . S
C1034 H1030 0.949 . S
C1034 C1042 1.574 . S
C1034 C1050 1.368 . S
H1035 C1043 0.950 . S
H1036 C1041 0.950 . S
H1037 C1042 0.949 . S
H1038 C1044 0.950 . S
H1039 C1045 0.950 . S
H1040 C1046 0.949 . S
C1041 H1036 0.950 . S
C1041 C1043 1.327 . S
C1041 C1047 1.429 . S
C1042 C1034 1.574 . S
C1042 H1037 0.949 . S
C1042 C1048 1.368 . S
C1043 C1027 1.349 . S
C1043 H1035 0.950 . S
C1043 C1041 1.327 . S
C1044 C1032 1.349 . S
C1044 H1038 0.950 . S
C1044 C1045 1.327 . S
C1045 H1039 0.950 . S
C1045 C1044 1.327 . S
C1045 C1049 1.429 . S
C1046 C1029 1.574 . S
C1046 H1040 0.949 . S
C1046 C1050 1.368 . S
C1047 C1028 1.429 . S
C1047 C1041 1.429 . S
C1047 C1048 1.523 . S
C1048 C1029 1.368 . S
C1048 C1042 1.368 . S
C1048 C1047 1.523 . S
C1049 C1033 1.429 . S
C1049 C1045 1.429 . S
C1049 C1050 1.523 . S
C1050 C1034 1.368 . S
C1050 C1046 1.368 . S
C1050 C1049 1.523 . S
H1051 C1026 0.950 . S
H1052 C1028 0.950 . S
H1053 C1029 0.949 . S
H1054 C1031 0.950 . S
H1055 C1033 0.950 . S
C1056 C1057 1.349 . S
C1056 C1058 1.327 . S
C1056 H1081 0.950 . S
C1057 C1056 1.349 . S
C1057 C1073 1.349 . S
C1058 C1056 1.327 . S
C1058 C1077 1.429 . S
C1058 H1082 0.950 . S
C1059 C1076 1.553 1_655 S
C1059 C1078 1.417 . S
C1059 H1083 0.929 . S
H1060 C1064 0.929 . S
C1061 C1062 1.349 . S
C1061 C1063 1.327 . S
C1061 H1084 0.950 . S
C1062 C1061 1.349 . S
C1062 C1074 1.349 . S
C1063 C1061 1.327 . S
C1063 C1079 1.429 . S
C1063 H1085 0.950 . S
C1064 H1060 0.929 . S
C1064 C1072 1.553 1_455 S
C1064 C1080 1.417 . S
H1065 C1073 0.950 . S
H1066 C1071 0.950 . S
H1067 C1072 0.949 . S
H1068 C1074 0.950 . S
H1069 C1075 0.950 . S
H1070 C1076 0.949 . S
C1071 H1066 0.950 . S
C1071 C1073 1.327 . S
C1071 C1077 1.429 . S
C1072 C1064 1.553 1_655 S
C1072 H1067 0.949 . S
C1072 C1078 1.368 . S
C1073 C1057 1.349 . S
C1073 H1065 0.950 . S
C1073 C1071 1.327 . S
C1074 C1062 1.349 . S
C1074 H1068 0.950 . S
C1074 C1075 1.327 . S
C1075 H1069 0.950 . S
C1075 C1074 1.327 . S
C1075 C1079 1.429 . S
C1076 C1059 1.553 1_455 S
C1076 H1070 0.949 . S
C1076 C1080 1.368 . S
C1077 C1058 1.429 . S
C1077 C1071 1.429 . S
C1077 C1078 1.523 . S
C1078 C1059 1.417 . S
C1078 C1072 1.368 . S
C1078 C1077 1.523 . S
C1079 C1063 1.429 . S
C1079 C1075 1.429 . S
C1079 C1080 1.523 . S
C1080 C1064 1.417 . S
C1080 C1076 1.368 . S
C1080 C1079 1.523 . S
H1081 C1056 0.950 . S
H1082 C1058 0.950 . S
H1083 C1059 0.929 . S
H1084 C1061 0.950 . S
H1085 C1063 0.950 . S
C1086 C1087 1.349 . S
C1086 C1088 1.327 . S
C1086 H1111 0.950 . S
C1087 C1086 1.349 . S
C1087 C1103 1.349 . S
C1088 C1086 1.327 . S
C1088 C1107 1.429 . S
C1088 H1112 0.950 . S
C1089 C1106 1.499 1_655 S
C1089 C1108 1.368 . S
C1089 H1113 0.949 . S
H1090 C1094 0.949 . S
C1091 C1092 1.349 . S
C1091 C1093 1.327 . S
C1091 H1114 0.950 . S
C1092 C1091 1.349 . S
C1092 C1104 1.349 . S
C1093 C1091 1.327 . S
C1093 C1109 1.429 . S
C1093 H1115 0.950 . S
C1094 H1090 0.949 . S
C1094 C1102 1.499 1_455 S
C1094 C1110 1.368 . S
H1095 C1103 0.950 . S
H1096 C1101 0.950 . S
H1097 C1102 0.984 . S
H1098 C1104 0.950 . S
H1099 C1105 0.950 . S
H1100 C1106 0.984 . S
C1101 H1096 0.950 . S
C1101 C1103 1.327 . S
C1101 C1107 1.429 . S
C1102 C1094 1.499 1_655 S
C1102 H1097 0.984 . S
C1102 C1108 1.408 . S
C1103 C1087 1.349 . S
C1103 H1095 0.950 . S
C1103 C1101 1.327 . S
C1104 C1092 1.349 . S
C1104 H1098 0.950 . S
C1104 C1105 1.327 . S
C1105 H1099 0.950 . S
C1105 C1104 1.327 . S
C1105 C1109 1.429 . S
C1106 C1089 1.499 1_455 S
C1106 H1100 0.984 . S
C1106 C1110 1.408 . S
C1107 C1088 1.429 . S
C1107 C1101 1.429 . S
C1107 C1108 1.523 . S
C1108 C1089 1.368 . S
C1108 C1102 1.408 . S
C1108 C1107 1.523 . S
C1109 C1093 1.429 . S
C1109 C1105 1.429 . S
C1109 C1110 1.523 . S
C1110 C1094 1.368 . S
C1110 C1106 1.408 . S
C1110 C1109 1.523 . S
H1111 C1086 0.950 . S
H1112 C1088 0.950 . S
H1113 C1089 0.949 . S
H1114 C1091 0.950 . S
H1115 C1093 0.950 . S
C1116 C1117 1.349 . S
C1116 C1118 1.327 . S
C1116 H1141 0.950 . S
C1117 C1116 1.349 . S
C1117 C1133 1.349 . S
C1118 C1116 1.327 . S
C1118 C1137 1.429 . S
C1118 H1142 0.950 . S
C1119 C1136 1.553 1_545 S
C1119 C1138 1.417 . S
C1119 H1143 0.929 . S
H1120 C1124 0.929 . S
C1121 C1122 1.349 . S
C1121 C1123 1.327 . S
C1121 H1144 0.950 . S
C1122 C1121 1.349 . S
C1122 C1134 1.349 . S
C1123 C1121 1.327 . S
C1123 C1139 1.429 . S
C1123 H1145 0.950 . S
C1124 H1120 0.929 . S
C1124 C1132 1.553 1_565 S
C1124 C1140 1.417 . S
H1125 C1133 0.950 . S
H1126 C1131 0.950 . S
H1127 C1132 0.949 . S
H1128 C1134 0.950 . S
H1129 C1135 0.950 . S
H1130 C1136 0.949 . S
C1131 H1126 0.950 . S
C1131 C1133 1.327 . S
C1131 C1137 1.429 . S
C1132 C1124 1.553 1_545 S
C1132 H1127 0.949 . S
C1132 C1138 1.368 . S
C1133 C1117 1.349 . S
C1133 H1125 0.950 . S
C1133 C1131 1.327 . S
C1134 C1122 1.349 . S
C1134 H1128 0.950 . S
C1134 C1135 1.327 . S
C1135 H1129 0.950 . S
C1135 C1134 1.327 . S
C1135 C1139 1.429 . S
C1136 C1119 1.553 1_565 S
C1136 H1130 0.949 . S
C1136 C1140 1.368 . S
C1137 C1118 1.429 . S
C1137 C1131 1.429 . S
C1137 C1138 1.523 . S
C1138 C1119 1.417 . S
C1138 C1132 1.368 . S
C1138 C1137 1.523 . S
C1139 C1123 1.429 . S
C1139 C1135 1.429 . S
C1139 C1140 1.523 . S
C1140 C1124 1.417 . S
C1140 C1136 1.368 . S
C1140 C1139 1.523 . S
H1141 C1116 0.950 . S
H1142 C1118 0.950 . S
H1143 C1119 0.929 . S
H1144 C1121 0.950 . S
H1145 C1123 0.950 . S
C1146 C1147 1.349 . S
C1146 C1148 1.327 . S
C1146 H1171 0.950 . S
C1147 C1146 1.349 . S
C1147 C1163 1.349 . S
C1148 C1146 1.327 . S
C1148 C1167 1.429 . S
C1148 H1172 0.950 . S
C1149 C1166 1.574 . S
C1149 C1168 1.368 . S
C1149 H1173 0.949 . S
H1150 C1154 0.949 . S
C1151 C1152 1.349 . S
C1151 C1153 1.327 . S
C1151 H1174 0.950 . S
C1152 C1151 1.349 . S
C1152 C1164 1.349 . S
C1153 C1151 1.327 . S
C1153 C1169 1.429 . S
C1153 H1175 0.950 . S
C1154 H1150 0.949 . S
C1154 C1162 1.574 . S
C1154 C1170 1.368 . S
H1155 C1163 0.950 . S
H1156 C1161 0.950 . S
H1157 C1162 0.949 . S
H1158 C1164 0.950 . S
H1159 C1165 0.950 . S
H1160 C1166 0.949 . S
C1161 H1156 0.950 . S
C1161 C1163 1.327 . S
C1161 C1167 1.429 . S
C1162 C1154 1.574 . S
C1162 H1157 0.949 . S
C1162 C1168 1.368 . S
C1163 C1147 1.349 . S
C1163 H1155 0.950 . S
C1163 C1161 1.327 . S
C1164 C1152 1.349 . S
C1164 H1158 0.950 . S
C1164 C1165 1.327 . S
C1165 H1159 0.950 . S
C1165 C1164 1.327 . S
C1165 C1169 1.429 . S
C1166 C1149 1.574 . S
C1166 H1160 0.949 . S
C1166 C1170 1.368 . S
C1167 C1148 1.429 . S
C1167 C1161 1.429 . S
C1167 C1168 1.523 . S
C1168 C1149 1.368 . S
C1168 C1162 1.368 . S
C1168 C1167 1.523 . S
C1169 C1153 1.429 . S
C1169 C1165 1.429 . S
C1169 C1170 1.523 . S
C1170 C1154 1.368 . S
C1170 C1166 1.368 . S
C1170 C1169 1.523 . S
H1171 C1146 0.950 . S
H1172 C1148 0.950 . S
H1173 C1149 0.949 . S
H1174 C1151 0.950 . S
H1175 C1153 0.950 . S
C1176 C1177 1.349 . S
C1176 C1178 1.327 . S
C1176 H1201 0.950 . S
C1177 C1176 1.349 . S
C1177 C1193 1.349 . S
C1178 C1176 1.327 . S
C1178 C1197 1.429 . S
C1178 H1202 0.950 . S
C1179 C1196 1.574 . S
C1179 C1198 1.368 . S
C1179 H1203 0.949 . S
H1180 C1184 0.949 . S
C1181 C1182 1.349 . S
C1181 C1183 1.327 . S
C1181 H1204 0.950 . S
C1182 C1181 1.349 . S
C1182 C1194 1.349 . S
C1183 C1181 1.327 . S
C1183 C1199 1.429 . S
C1183 H1205 0.950 . S
C1184 H1180 0.949 . S
C1184 C1192 1.574 . S
C1184 C1200 1.368 . S
H1185 C1193 0.950 . S
H1186 C1191 0.950 . S
H1187 C1192 0.949 . S
H1188 C1194 0.950 . S
H1189 C1195 0.950 . S
H1190 C1196 0.949 . S
C1191 H1186 0.950 . S
C1191 C1193 1.327 . S
C1191 C1197 1.429 . S
C1192 C1184 1.574 . S
C1192 H1187 0.949 . S
C1192 C1198 1.368 . S
C1193 C1177 1.349 . S
C1193 H1185 0.950 . S
C1193 C1191 1.327 . S
C1194 C1182 1.349 . S
C1194 H1188 0.950 . S
C1194 C1195 1.327 . S
C1195 H1189 0.950 . S
C1195 C1194 1.327 . S
C1195 C1199 1.429 . S
C1196 C1179 1.574 . S
C1196 H1190 0.949 . S
C1196 C1200 1.368 . S
C1197 C1178 1.429 . S
C1197 C1191 1.429 . S
C1197 C1198 1.523 . S
C1198 C1179 1.368 . S
C1198 C1192 1.368 . S
C1198 C1197 1.523 . S
C1199 C1183 1.429 . S
C1199 C1195 1.429 . S
C1199 C1200 1.523 . S
C1200 C1184 1.368 . S
C1200 C1196 1.368 . S
C1200 C1199 1.523 . S
H1201 C1176 0.950 . S
H1202 C1178 0.950 . S
H1203 C1179 0.949 . S
H1204 C1181 0.950 . S
H1205 C1183 0.950 . S
C1206 C1207 1.349 . S
C1206 C1208 1.327 . S
C1206 H1231 0.950 . S
C1207 C1206 1.349 . S
C1207 C1223 1.349 . S
C1208 C1206 1.327 . S
C1208 C1227 1.429 . S
C1208 H1232 0.950 . S
C1209 C1226 1.574 . S
C1209 C1228 1.368 . S
C1209 H1233 0.949 . S
H1210 C1214 0.949 . S
C1211 C1212 1.349 . S
C1211 C1213 1.327 . S
C1211 H1234 0.950 . S
C1212 C1211 1.349 . S
C1212 C1224 1.349 . S
C1213 C1211 1.327 . S
C1213 C1229 1.429 . S
C1213 H1235 0.950 . S
C1214 H1210 0.949 . S
C1214 C1222 1.574 . S
C1214 C1230 1.368 . S
H1215 C1223 0.950 . S
H1216 C1221 0.950 . S
H1217 C1222 0.949 . S
H1218 C1224 0.950 . S
H1219 C1225 0.950 . S
H1220 C1226 0.949 . S
C1221 H1216 0.950 . S
C1221 C1223 1.327 . S
C1221 C1227 1.429 . S
C1222 C1214 1.574 . S
C1222 H1217 0.949 . S
C1222 C1228 1.368 . S
C1223 C1207 1.349 . S
C1223 H1215 0.950 . S
C1223 C1221 1.327 . S
C1224 C1212 1.349 . S
C1224 H1218 0.950 . S
C1224 C1225 1.327 . S
C1225 H1219 0.950 . S
C1225 C1224 1.327 . S
C1225 C1229 1.429 . S
C1226 C1209 1.574 . S
C1226 H1220 0.949 . S
C1226 C1230 1.368 . S
C1227 C1208 1.429 . S
C1227 C1221 1.429 . S
C1227 C1228 1.523 . S
C1228 C1209 1.368 . S
C1228 C1222 1.368 . S
C1228 C1227 1.523 . S
C1229 C1213 1.429 . S
C1229 C1225 1.429 . S
C1229 C1230 1.523 . S
C1230 C1214 1.368 . S
C1230 C1226 1.368 . S
C1230 C1229 1.523 . S
H1231 C1206 0.950 . S
H1232 C1208 0.950 . S
H1233 C1209 0.949 . S
H1234 C1211 0.950 . S
H1235 C1213 0.950 . S
C1236 C1237 1.349 . S
C1236 C1238 1.327 . S
C1236 H1261 0.950 . S
C1237 C1236 1.349 . S
C1237 C1253 1.349 . S
C1238 C1236 1.327 . S
C1238 C1257 1.429 . S
C1238 H1262 0.950 . S
C1239 C1256 1.574 . S
C1239 C1258 1.368 . S
C1239 H1263 0.949 . S
H1240 C1244 0.949 . S
C1241 C1242 1.349 . S
C1241 C1243 1.327 . S
C1241 H1264 0.950 . S
C1242 C1241 1.349 . S
C1242 C1254 1.349 . S
C1243 C1241 1.327 . S
C1243 C1259 1.429 . S
C1243 H1265 0.950 . S
C1244 H1240 0.949 . S
C1244 C1252 1.574 . S
C1244 C1260 1.368 . S
H1245 C1253 0.950 . S
H1246 C1251 0.950 . S
H1247 C1252 0.949 . S
H1248 C1254 0.950 . S
H1249 C1255 0.950 . S
H1250 C1256 0.949 . S
C1251 H1246 0.950 . S
C1251 C1253 1.327 . S
C1251 C1257 1.429 . S
C1252 C1244 1.574 . S
C1252 H1247 0.949 . S
C1252 C1258 1.368 . S
C1253 C1237 1.349 . S
C1253 H1245 0.950 . S
C1253 C1251 1.327 . S
C1254 C1242 1.349 . S
C1254 H1248 0.950 . S
C1254 C1255 1.327 . S
C1255 H1249 0.950 . S
C1255 C1254 1.327 . S
C1255 C1259 1.429 . S
C1256 C1239 1.574 . S
C1256 H1250 0.949 . S
C1256 C1260 1.368 . S
C1257 C1238 1.429 . S
C1257 C1251 1.429 . S
C1257 C1258 1.523 . S
C1258 C1239 1.368 . S
C1258 C1252 1.368 . S
C1258 C1257 1.523 . S
C1259 C1243 1.429 . S
C1259 C1255 1.429 . S
C1259 C1260 1.523 . S
C1260 C1244 1.368 . S
C1260 C1256 1.368 . S
C1260 C1259 1.523 . S
H1261 C1236 0.950 . S
H1262 C1238 0.950 . S
H1263 C1239 0.949 . S
H1264 C1241 0.950 . S
H1265 C1243 0.950 . S
C1266 C1267 1.349 . S
C1266 C1268 1.327 . S
C1266 H1291 0.950 . S
C1267 C1266 1.349 . S
C1267 C1283 1.349 . S
C1268 C1266 1.327 . S
C1268 C1287 1.429 . S
C1268 H1292 0.950 . S
C1269 C1286 1.574 . S
C1269 C1288 1.368 . S
C1269 H1293 0.949 . S
H1270 C1274 0.949 . S
C1271 C1272 1.349 . S
C1271 C1273 1.327 . S
C1271 H1294 0.950 . S
C1272 C1271 1.349 . S
C1272 C1284 1.349 . S
C1273 C1271 1.327 . S
C1273 C1289 1.429 . S
C1273 H1295 0.950 . S
C1274 H1270 0.949 . S
C1274 C1282 1.574 . S
C1274 C1290 1.368 . S
H1275 C1283 0.950 . S
H1276 C1281 0.950 . S
H1277 C1282 0.949 . S
H1278 C1284 0.950 . S
H1279 C1285 0.950 . S
H1280 C1286 0.949 . S
C1281 H1276 0.950 . S
C1281 C1283 1.327 . S
C1281 C1287 1.429 . S
C1282 C1274 1.574 . S
C1282 H1277 0.949 . S
C1282 C1288 1.368 . S
C1283 C1267 1.349 . S
C1283 H1275 0.950 . S
C1283 C1281 1.327 . S
C1284 C1272 1.349 . S
C1284 H1278 0.950 . S
C1284 C1285 1.327 . S
C1285 H1279 0.950 . S
C1285 C1284 1.327 . S
C1285 C1289 1.429 . S
C1286 C1269 1.574 . S
C1286 H1280 0.949 . S
C1286 C1290 1.368 . S
C1287 C1268 1.429 . S
C1287 C1281 1.429 . S
C1287 C1288 1.523 . S
C1288 C1269 1.368 . S
C1288 C1282 1.368 . S
C1288 C1287 1.523 . S
C1289 C1273 1.429 . S
C1289 C1285 1.429 . S
C1289 C1290 1.523 . S
C1290 C1274 1.368 . S
C1290 C1286 1.368 . S
C1290 C1289 1.523 . S
H1291 C1266 0.950 . S
H1292 C1268 0.950 . S
H1293 C1269 0.949 . S
H1294 C1271 0.950 . S
H1295 C1273 0.950 . S
C1296 C1297 1.349 . S
C1296 C1298 1.327 . S
C1296 H1321 0.950 . S
C1297 C1296 1.349 . S
C1297 C1313 1.349 . S
C1298 C1296 1.327 . S
C1298 C1317 1.429 . S
C1298 H1322 0.950 . S
C1299 C1316 1.574 . S
C1299 C1318 1.368 . S
C1299 H1323 0.949 . S
H1300 C1304 0.949 . S
C1301 C1302 1.349 . S
C1301 C1303 1.327 . S
C1301 H1324 0.950 . S
C1302 C1301 1.349 . S
C1302 C1314 1.349 . S
C1303 C1301 1.327 . S
C1303 C1319 1.429 . S
C1303 H1325 0.950 . S
C1304 H1300 0.949 . S
C1304 C1312 1.574 . S
C1304 C1320 1.368 . S
H1305 C1313 0.950 . S
H1306 C1311 0.950 . S
H1307 C1312 0.949 . S
H1308 C1314 0.950 . S
H1309 C1315 0.950 . S
H1310 C1316 0.949 . S
C1311 H1306 0.950 . S
C1311 C1313 1.327 . S
C1311 C1317 1.429 . S
C1312 C1304 1.574 . S
C1312 H1307 0.949 . S
C1312 C1318 1.368 . S
C1313 C1297 1.349 . S
C1313 H1305 0.950 . S
C1313 C1311 1.327 . S
C1314 C1302 1.349 . S
C1314 H1308 0.950 . S
C1314 C1315 1.327 . S
C1315 H1309 0.950 . S
C1315 C1314 1.327 . S
C1315 C1319 1.429 . S
C1316 C1299 1.574 . S
C1316 H1310 0.949 . S
C1316 C1320 1.368 . S
C1317 C1298 1.429 . S
C1317 C1311 1.429 . S
C1317 C1318 1.523 . S
C1318 C1299 1.368 . S
C1318 C1312 1.368 . S
C1318 C1317 1.523 . S
C1319 C1303 1.429 . S
C1319 C1315 1.429 . S
C1319 C1320 1.523 . S
C1320 C1304 1.368 . S
C1320 C1316 1.368 . S
C1320 C1319 1.523 . S
H1321 C1296 0.950 . S
H1322 C1298 0.950 . S
H1323 C1299 0.949 . S
H1324 C1301 0.950 . S
H1325 C1303 0.950 . S
C1326 C1327 1.349 . S
C1326 C1328 1.327 . S
C1326 H1351 0.950 . S
C1327 C1326 1.349 . S
C1327 C1343 1.349 . S
C1328 C1326 1.327 . S
C1328 C1347 1.429 . S
C1328 H1352 0.950 . S
C1329 C1346 1.574 . S
C1329 C1348 1.368 . S
C1329 H1353 0.949 . S
H1330 C1334 0.949 . S
C1331 C1332 1.349 . S
C1331 C1333 1.327 . S
C1331 H1354 0.950 . S
C1332 C1331 1.349 . S
C1332 C1344 1.349 . S
C1333 C1331 1.327 . S
C1333 C1349 1.429 . S
C1333 H1355 0.950 . S
C1334 H1330 0.949 . S
C1334 C1342 1.574 . S
C1334 C1350 1.368 . S
H1335 C1343 0.950 . S
H1336 C1341 0.950 . S
H1337 C1342 0.949 . S
H1338 C1344 0.950 . S
H1339 C1345 0.950 . S
H1340 C1346 0.949 . S
C1341 H1336 0.950 . S
C1341 C1343 1.327 . S
C1341 C1347 1.429 . S
C1342 C1334 1.574 . S
C1342 H1337 0.949 . S
C1342 C1348 1.368 . S
C1343 C1327 1.349 . S
C1343 H1335 0.950 . S
C1343 C1341 1.327 . S
C1344 C1332 1.349 . S
C1344 H1338 0.950 . S
C1344 C1345 1.327 . S
C1345 H1339 0.950 . S
C1345 C1344 1.327 . S
C1345 C1349 1.429 . S
C1346 C1329 1.574 . S
C1346 H1340 0.949 . S
C1346 C1350 1.368 . S
C1347 C1328 1.429 . S
C1347 C1341 1.429 . S
C1347 C1348 1.523 . S
C1348 C1329 1.368 . S
C1348 C1342 1.368 . S
C1348 C1347 1.523 . S
C1349 C1333 1.429 . S
C1349 C1345 1.429 . S
C1349 C1350 1.523 . S
C1350 C1334 1.368 . S
C1350 C1346 1.368 . S
C1350 C1349 1.523 . S
H1351 C1326 0.950 . S
H1352 C1328 0.950 . S
H1353 C1329 0.949 . S
H1354 C1331 0.950 . S
H1355 C1333 0.950 . S
C1356 C1357 1.349 . S
C1356 C1358 1.327 . S
C1356 H1381 0.950 . S
C1357 C1356 1.349 . S
C1357 C1373 1.349 . S
C1358 C1356 1.327 . S
C1358 C1377 1.429 . S
C1358 H1382 0.950 . S
C1359 C1376 1.574 . S
C1359 C1378 1.368 . S
C1359 H1383 0.949 . S
H1360 C1364 0.949 . S
C1361 C1362 1.349 . S
C1361 C1363 1.327 . S
C1361 H1384 0.950 . S
C1362 C1361 1.349 . S
C1362 C1374 1.349 . S
C1363 C1361 1.327 . S
C1363 C1379 1.429 . S
C1363 H1385 0.950 . S
C1364 H1360 0.949 . S
C1364 C1372 1.574 . S
C1364 C1380 1.368 . S
H1365 C1373 0.950 . S
H1366 C1371 0.950 . S
H1367 C1372 0.949 . S
H1368 C1374 0.950 . S
H1369 C1375 0.950 . S
H1370 C1376 0.949 . S
C1371 H1366 0.950 . S
C1371 C1373 1.327 . S
C1371 C1377 1.429 . S
C1372 C1364 1.574 . S
C1372 H1367 0.949 . S
C1372 C1378 1.368 . S
C1373 C1357 1.349 . S
C1373 H1365 0.950 . S
C1373 C1371 1.327 . S
C1374 C1362 1.349 . S
C1374 H1368 0.950 . S
C1374 C1375 1.327 . S
C1375 H1369 0.950 . S
C1375 C1374 1.327 . S
C1375 C1379 1.429 . S
C1376 C1359 1.574 . S
C1376 H1370 0.949 . S
C1376 C1380 1.368 . S
C1377 C1358 1.429 . S
C1377 C1371 1.429 . S
C1377 C1378 1.523 . S
C1378 C1359 1.368 . S
C1378 C1372 1.368 . S
C1378 C1377 1.523 . S
C1379 C1363 1.429 . S
C1379 C1375 1.429 . S
C1379 C1380 1.523 . S
C1380 C1364 1.368 . S
C1380 C1376 1.368 . S
C1380 C1379 1.523 . S
H1381 C1356 0.950 . S
H1382 C1358 0.950 . S
H1383 C1359 0.949 . S
H1384 C1361 0.950 . S
H1385 C1363 0.950 . S
C1386 C1387 1.349 . S
C1386 C1388 1.327 . S
C1386 H1411 0.950 . S
C1387 C1386 1.349 . S
C1387 C1403 1.349 . S
C1388 C1386 1.327 . S
C1388 C1407 1.429 . S
C1388 H1412 0.950 . S
C1389 C1406 1.574 . S
C1389 C1408 1.368 . S
C1389 H1413 0.949 . S
H1390 C1394 0.949 . S
C1391 C1392 1.349 . S
C1391 C1393 1.327 . S
C1391 H1414 0.950 . S
C1392 C1391 1.349 . S
C1392 C1404 1.349 . S
C1393 C1391 1.327 . S
C1393 C1409 1.429 . S
C1393 H1415 0.950 . S
C1394 H1390 0.949 . S
C1394 C1402 1.574 . S
C1394 C1410 1.368 . S
H1395 C1403 0.950 . S
H1396 C1401 0.950 . S
H1397 C1402 0.949 . S
H1398 C1404 0.950 . S
H1399 C1405 0.950 . S
H1400 C1406 0.949 . S
C1401 H1396 0.950 . S
C1401 C1403 1.327 . S
C1401 C1407 1.429 . S
C1402 C1394 1.574 . S
C1402 H1397 0.949 . S
C1402 C1408 1.368 . S
C1403 C1387 1.349 . S
C1403 H1395 0.950 . S
C1403 C1401 1.327 . S
C1404 C1392 1.349 . S
C1404 H1398 0.950 . S
C1404 C1405 1.327 . S
C1405 H1399 0.950 . S
C1405 C1404 1.327 . S
C1405 C1409 1.429 . S
C1406 C1389 1.574 . S
C1406 H1400 0.949 . S
C1406 C1410 1.368 . S
C1407 C1388 1.429 . S
C1407 C1401 1.429 . S
C1407 C1408 1.523 . S
C1408 C1389 1.368 . S
C1408 C1402 1.368 . S
C1408 C1407 1.523 . S
C1409 C1393 1.429 . S
C1409 C1405 1.429 . S
C1409 C1410 1.523 . S
C1410 C1394 1.368 . S
C1410 C1406 1.368 . S
C1410 C1409 1.523 . S
H1411 C1386 0.950 . S
H1412 C1388 0.950 . S
H1413 C1389 0.949 . S
H1414 C1391 0.950 . S
H1415 C1393 0.950 . S
C1416 C1417 1.349 . S
C1416 C1418 1.327 . S
C1416 H1441 0.950 . S
C1417 C1416 1.349 . S
C1417 C1433 1.349 . S
C1418 C1416 1.327 . S
C1418 C1437 1.429 . S
C1418 H1442 0.950 . S
C1419 C1436 1.574 . S
C1419 C1438 1.368 . S
C1419 H1443 0.949 . S
H1420 C1424 0.949 . S
C1421 C1422 1.349 . S
C1421 C1423 1.327 . S
C1421 H1444 0.950 . S
C1422 C1421 1.349 . S
C1422 C1434 1.349 . S
C1423 C1421 1.327 . S
C1423 C1439 1.429 . S
C1423 H1445 0.950 . S
C1424 H1420 0.949 . S
C1424 C1432 1.574 . S
C1424 C1440 1.368 . S
H1425 C1433 0.950 . S
H1426 C1431 0.950 . S
H1427 C1432 0.949 . S
H1428 C1434 0.950 . S
H1429 C1435 0.950 . S
H1430 C1436 0.949 . S
C1431 H1426 0.950 . S
C1431 C1433 1.327 . S
C1431 C1437 1.429 . S
C1432 C1424 1.574 . S
C1432 H1427 0.949 . S
C1432 C1438 1.368 . S
C1433 C1417 1.349 . S
C1433 H1425 0.950 . S
C1433 C1431 1.327 . S
C1434 C1422 1.349 . S
C1434 H1428 0.950 . S
C1434 C1435 1.327 . S
C1435 H1429 0.950 . S
C1435 C1434 1.327 . S
C1435 C1439 1.429 . S
C1436 C1419 1.574 . S
C1436 H1430 0.949 . S
C1436 C1440 1.368 . S
C1437 C1418 1.429 . S
C1437 C1431 1.429 . S
C1437 C1438 1.523 . S
C1438 C1419 1.368 . S
C1438 C1432 1.368 . S
C1438 C1437 1.523 . S
C1439 C1423 1.429 . S
C1439 C1435 1.429 . S
C1439 C1440 1.523 . S
C1440 C1424 1.368 . S
C1440 C1436 1.368 . S
C1440 C1439 1.523 . S
H1441 C1416 0.950 . S
H1442 C1418 0.950 . S
H1443 C1419 0.949 . S
H1444 C1421 0.950 . S
H1445 C1423 0.950 . S
C1446 C1447 1.349 . S
C1446 C1448 1.327 . S
C1446 H1471 0.950 . S
C1447 C1446 1.349 . S
C1447 C1463 1.349 . S
C1448 C1446 1.327 . S
C1448 C1467 1.429 . S
C1448 H1472 0.950 . S
C1449 C1466 1.574 . S
C1449 C1468 1.368 . S
C1449 H1473 0.949 . S
H1450 C1454 0.949 . S
C1451 C1452 1.349 . S
C1451 C1453 1.327 . S
C1451 H1474 0.950 . S
C1452 C1451 1.349 . S
C1452 C1464 1.349 . S
C1453 C1451 1.327 . S
C1453 C1469 1.429 . S
C1453 H1475 0.950 . S
C1454 H1450 0.949 . S
C1454 C1462 1.574 . S
C1454 C1470 1.368 . S
H1455 C1463 0.950 . S
H1456 C1461 0.950 . S
H1457 C1462 0.949 . S
H1458 C1464 0.950 . S
H1459 C1465 0.950 . S
H1460 C1466 0.949 . S
C1461 H1456 0.950 . S
C1461 C1463 1.327 . S
C1461 C1467 1.429 . S
C1462 C1454 1.574 . S
C1462 H1457 0.949 . S
C1462 C1468 1.368 . S
C1463 C1447 1.349 . S
C1463 H1455 0.950 . S
C1463 C1461 1.327 . S
C1464 C1452 1.349 . S
C1464 H1458 0.950 . S
C1464 C1465 1.327 . S
C1465 H1459 0.950 . S
C1465 C1464 1.327 . S
C1465 C1469 1.429 . S
C1466 C1449 1.574 . S
C1466 H1460 0.949 . S
C1466 C1470 1.368 . S
C1467 C1448 1.429 . S
C1467 C1461 1.429 . S
C1467 C1468 1.523 . S
C1468 C1449 1.368 . S
C1468 C1462 1.368 . S
C1468 C1467 1.523 . S
C1469 C1453 1.429 . S
C1469 C1465 1.429 . S
C1469 C1470 1.523 . S
C1470 C1454 1.368 . S
C1470 C1466 1.368 . S
C1470 C1469 1.523 . S
H1471 C1446 0.950 . S
H1472 C1448 0.950 . S
H1473 C1449 0.949 . S
H1474 C1451 0.950 . S
H1475 C1453 0.950 . S
C1476 C1477 1.349 . S
C1476 C1478 1.327 . S
C1476 H1501 0.950 . S
C1477 C1476 1.349 . S
C1477 C1493 1.349 . S
C1478 C1476 1.327 . S
C1478 C1497 1.429 . S
C1478 H1502 0.950 . S
C1479 C1496 1.574 . S
C1479 C1498 1.368 . S
C1479 H1503 0.949 . S
H1480 C1484 0.949 . S
C1481 C1482 1.349 . S
C1481 C1483 1.327 . S
C1481 H1504 0.950 . S
C1482 C1481 1.349 . S
C1482 C1494 1.349 . S
C1483 C1481 1.327 . S
C1483 C1499 1.429 . S
C1483 H1505 0.950 . S
C1484 H1480 0.949 . S
C1484 C1492 1.574 . S
C1484 C1500 1.368 . S
H1485 C1493 0.950 . S
H1486 C1491 0.950 . S
H1487 C1492 0.949 . S
H1488 C1494 0.950 . S
H1489 C1495 0.950 . S
H1490 C1496 0.949 . S
C1491 H1486 0.950 . S
C1491 C1493 1.327 . S
C1491 C1497 1.429 . S
C1492 C1484 1.574 . S
C1492 H1487 0.949 . S
C1492 C1498 1.368 . S
C1493 C1477 1.349 . S
C1493 H1485 0.950 . S
C1493 C1491 1.327 . S
C1494 C1482 1.349 . S
C1494 H1488 0.950 . S
C1494 C1495 1.327 . S
C1495 H1489 0.950 . S
C1495 C1494 1.327 . S
C1495 C1499 1.429 . S
C1496 C1479 1.574 . S
C1496 H1490 0.949 . S
C1496 C1500 1.368 . S
C1497 C1478 1.429 . S
C1497 C1491 1.429 . S
C1497 C1498 1.523 . S
C1498 C1479 1.368 . S
C1498 C1492 1.368 . S
C1498 C1497 1.523 . S
C1499 C1483 1.429 . S
C1499 C1495 1.429 . S
C1499 C1500 1.523 . S
C1500 C1484 1.368 . S
C1500 C1496 1.368 . S
C1500 C1499 1.523 . S
H1501 C1476 0.950 . S
H1502 C1478 0.950 . S
H1503 C1479 0.949 . S
H1504 C1481 0.950 . S
H1505 C1483 0.950 . S
C1506 C1507 1.349 . S
C1506 C1508 1.327 . S
C1506 H1531 0.950 . S
C1507 C1506 1.349 . S
C1507 C1523 1.349 . S
C1508 C1506 1.327 . S
C1508 C1527 1.429 . S
C1508 H1532 0.950 . S
C1509 C1526 1.574 . S
C1509 C1528 1.368 . S
C1509 H1533 0.949 . S
H1510 C1514 0.949 . S
C1511 C1512 1.349 . S
C1511 C1513 1.327 . S
C1511 H1534 0.950 . S
C1512 C1511 1.349 . S
C1512 C1524 1.349 . S
C1513 C1511 1.327 . S
C1513 C1529 1.429 . S
C1513 H1535 0.950 . S
C1514 H1510 0.949 . S
C1514 C1522 1.574 . S
C1514 C1530 1.368 . S
H1515 C1523 0.950 . S
H1516 C1521 0.950 . S
H1517 C1522 0.949 . S
H1518 C1524 0.950 . S
H1519 C1525 0.950 . S
H1520 C1526 0.949 . S
C1521 H1516 0.950 . S
C1521 C1523 1.327 . S
C1521 C1527 1.429 . S
C1522 C1514 1.574 . S
C1522 H1517 0.949 . S
C1522 C1528 1.368 . S
C1523 C1507 1.349 . S
C1523 H1515 0.950 . S
C1523 C1521 1.327 . S
C1524 C1512 1.349 . S
C1524 H1518 0.950 . S
C1524 C1525 1.327 . S
C1525 H1519 0.950 . S
C1525 C1524 1.327 . S
C1525 C1529 1.429 . S
C1526 C1509 1.574 . S
C1526 H1520 0.949 . S
C1526 C1530 1.368 . S
C1527 C1508 1.429 . S
C1527 C1521 1.429 . S
C1527 C1528 1.523 . S
C1528 C1509 1.368 . S
C1528 C1522 1.368 . S
C1528 C1527 1.523 . S
C1529 C1513 1.429 . S
C1529 C1525 1.429 . S
C1529 C1530 1.523 . S
C1530 C1514 1.368 . S
C1530 C1526 1.368 . S
C1530 C1529 1.523 . S
H1531 C1506 0.950 . S
H1532 C1508 0.950 . S
H1533 C1509 0.949 . S
H1534 C1511 0.950 . S
H1535 C1513 0.950 . S
C1536 C1537 1.349 . S
C1536 C1538 1.327 . S
C1536 H1561 0.950 . S
C1537 C1536 1.349 . S
C1537 C1553 1.349 . S
C1538 C1536 1.327 . S
C1538 C1557 1.429 . S
C1538 H1562 0.950 . S
C1539 C1556 1.574 1_545 S
C1539 C1558 1.368 . S
C1539 H1563 0.949 . S
H1540 C1544 0.949 . S
C1541 C1542 1.349 . S
C1541 C1543 1.327 . S
C1541 H1564 0.950 . S
C1542 C1541 1.349 . S
C1542 C1554 1.349 . S
C1543 C1541 1.327 . S
C1543 C1559 1.429 . S
C1543 H1565 0.950 . S
C1544 H1540 0.949 . S
C1544 C1552 1.574 1_565 S
C1544 C1560 1.368 . S
H1545 C1553 0.950 . S
H1546 C1551 0.950 . S
H1547 C1552 0.949 . S
H1548 C1554 0.950 . S
H1549 C1555 0.950 . S
H1550 C1556 0.949 . S
C1551 H1546 0.950 . S
C1551 C1553 1.327 . S
C1551 C1557 1.429 . S
C1552 C1544 1.574 1_545 S
C1552 H1547 0.949 . S
C1552 C1558 1.368 . S
C1553 C1537 1.349 . S
C1553 H1545 0.950 . S
C1553 C1551 1.327 . S
C1554 C1542 1.349 . S
C1554 H1548 0.950 . S
C1554 C1555 1.327 . S
C1555 H1549 0.950 . S
C1555 C1554 1.327 . S
C1555 C1559 1.429 . S
C1556 C1539 1.574 1_565 S
C1556 H1550 0.949 . S
C1556 C1560 1.368 . S
C1557 C1538 1.429 . S
C1557 C1551 1.429 . S
C1557 C1558 1.523 . S
C1558 C1539 1.368 . S
C1558 C1552 1.368 . S
C1558 C1557 1.523 . S
C1559 C1543 1.429 . S
C1559 C1555 1.429 . S
C1559 C1560 1.523 . S
C1560 C1544 1.368 . S
C1560 C1556 1.368 . S
C1560 C1559 1.523 . S
H1561 C1536 0.950 . S
H1562 C1538 0.950 . S
H1563 C1539 0.949 . S
H1564 C1541 0.950 . S
H1565 C1543 0.950 . S
C1566 C1567 1.349 . S
C1566 C1568 1.327 . S
C1566 H1591 0.950 . S
C1567 C1566 1.349 . S
C1567 C1583 1.349 . S
C1568 C1566 1.327 . S
C1568 C1587 1.429 . S
C1568 H1592 0.950 . S
C1569 C1586 1.574 . S
C1569 C1588 1.368 . S
C1569 H1593 0.949 . S
H1570 C1574 0.949 . S
C1571 C1572 1.349 . S
C1571 C1573 1.327 . S
C1571 H1594 0.950 . S
C1572 C1571 1.349 . S
C1572 C1584 1.349 . S
C1573 C1571 1.327 . S
C1573 C1589 1.429 . S
C1573 H1595 0.950 . S
C1574 H1570 0.949 . S
C1574 C1582 1.574 . S
C1574 C1590 1.368 . S
H1575 C1583 0.950 . S
H1576 C1581 0.950 . S
H1577 C1582 0.949 . S
H1578 C1584 0.950 . S
H1579 C1585 0.950 . S
H1580 C1586 0.949 . S
C1581 H1576 0.950 . S
C1581 C1583 1.327 . S
C1581 C1587 1.429 . S
C1582 C1574 1.574 . S
C1582 H1577 0.949 . S
C1582 C1588 1.368 . S
C1583 C1567 1.349 . S
C1583 H1575 0.950 . S
C1583 C1581 1.327 . S
C1584 C1572 1.349 . S
C1584 H1578 0.950 . S
C1584 C1585 1.327 . S
C1585 H1579 0.950 . S
C1585 C1584 1.327 . S
C1585 C1589 1.429 . S
C1586 C1569 1.574 . S
C1586 H1580 0.949 . S
C1586 C1590 1.368 . S
C1587 C1568 1.429 . S
C1587 C1581 1.429 . S
C1587 C1588 1.523 . S
C1588 C1569 1.368 . S
C1588 C1582 1.368 . S
C1588 C1587 1.523 . S
C1589 C1573 1.429 . S
C1589 C1585 1.429 . S
C1589 C1590 1.523 . S
C1590 C1574 1.368 . S
C1590 C1586 1.368 . S
C1590 C1589 1.523 . S
H1591 C1566 0.950 . S
H1592 C1568 0.950 . S
H1593 C1569 0.949 . S
H1594 C1571 0.950 . S
H1595 C1573 0.950 . S
C1596 C1597 1.349 . S
C1596 C1598 1.327 . S
C1596 H1621 0.950 . S
C1597 C1596 1.349 . S
C1597 C1613 1.349 . S
C1598 C1596 1.327 . S
C1598 C1617 1.429 . S
C1598 H1622 0.950 . S
C1599 C1616 1.569 1_455 S
C1599 C1618 1.372 . S
C1599 H1623 0.943 . S
H1600 C1604 0.943 . S
C1601 C1602 1.349 . S
C1601 C1603 1.327 . S
C1601 H1624 0.950 . S
C1602 C1601 1.349 . S
C1602 C1614 1.349 . S
C1603 C1601 1.327 . S
C1603 C1619 1.429 . S
C1603 H1625 0.950 . S
C1604 H1600 0.943 . S
C1604 C1612 1.568 1_655 S
C1604 C1620 1.372 . S
H1605 C1613 0.950 . S
H1606 C1611 0.950 . S
H1607 C1612 0.949 . S
H1608 C1614 0.950 . S
H1609 C1615 0.950 . S
H1610 C1616 0.949 . S
C1611 H1606 0.950 . S
C1611 C1613 1.327 . S
C1611 C1617 1.429 . S
C1612 C1604 1.568 1_455 S
C1612 H1607 0.949 . S
C1612 C1618 1.368 . S
C1613 C1597 1.349 . S
C1613 H1605 0.950 . S
C1613 C1611 1.327 . S
C1614 C1602 1.349 . S
C1614 H1608 0.950 . S
C1614 C1615 1.327 . S
C1615 H1609 0.950 . S
C1615 C1614 1.327 . S
C1615 C1619 1.429 . S
C1616 C1599 1.569 1_655 S
C1616 H1610 0.949 . S
C1616 C1620 1.368 . S
C1617 C1598 1.429 . S
C1617 C1611 1.429 . S
C1617 C1618 1.523 . S
C1618 C1599 1.372 . S
C1618 C1612 1.368 . S
C1618 C1617 1.523 . S
C1619 C1603 1.429 . S
C1619 C1615 1.429 . S
C1619 C1620 1.523 . S
C1620 C1604 1.372 . S
C1620 C1616 1.368 . S
C1620 C1619 1.523 . S
H1621 C1596 0.950 . S
H1622 C1598 0.950 . S
H1623 C1599 0.943 . S
H1624 C1601 0.950 . S
H1625 C1603 0.950 . S
C1626 C1627 1.349 . S
C1626 C1628 1.327 . S
C1626 H1651 0.950 . S
C1627 C1626 1.349 . S
C1627 C1643 1.349 . S
C1628 C1626 1.327 . S
C1628 C1647 1.429 . S
C1628 H1652 0.950 . S
C1629 C1646 1.579 . S
C1629 C1648 1.363 1_545 S
C1629 H1653 0.949 1_545 S
H1630 C1634 0.949 1_545 S
C1631 C1632 1.349 . S
C1631 C1633 1.327 . S
C1631 H1654 0.950 . S
C1632 C1631 1.349 . S
C1632 C1644 1.349 . S
C1633 C1631 1.327 . S
C1633 C1649 1.429 . S
C1633 H1655 0.950 . S
C1634 H1630 0.949 1_565 S
C1634 C1642 1.578 . S
C1634 C1650 1.363 1_565 S
H1635 C1643 0.950 . S
H1636 C1641 0.950 . S
H1637 C1642 0.949 . S
H1638 C1644 0.950 . S
H1639 C1645 0.950 . S
H1640 C1646 0.949 . S
C1641 H1636 0.950 . S
C1641 C1643 1.327 . S
C1641 C1647 1.429 . S
C1642 C1634 1.578 . S
C1642 H1637 0.949 . S
C1642 C1648 1.368 . S
C1643 C1627 1.349 . S
C1643 H1635 0.950 . S
C1643 C1641 1.327 . S
C1644 C1632 1.349 . S
C1644 H1638 0.950 . S
C1644 C1645 1.327 . S
C1645 H1639 0.950 . S
C1645 C1644 1.327 . S
C1645 C1649 1.429 . S
C1646 C1629 1.579 . S
C1646 H1640 0.949 . S
C1646 C1650 1.368 . S
C1647 C1628 1.429 . S
C1647 C1641 1.429 . S
C1647 C1648 1.523 . S
C1648 C1629 1.363 1_565 S
C1648 C1642 1.368 . S
C1648 C1647 1.523 . S
C1649 C1633 1.429 . S
C1649 C1645 1.429 . S
C1649 C1650 1.523 . S
C1650 C1634 1.363 1_545 S
C1650 C1646 1.368 . S
C1650 C1649 1.523 . S
H1651 C1626 0.950 . S
H1652 C1628 0.950 . S
H1653 C1629 0.949 1_565 S
H1654 C1631 0.950 . S
H1655 C1633 0.950 . S
C1656 C1657 1.349 . S
C1656 C1658 1.327 . S
C1656 H1681 0.950 . S
C1657 C1656 1.349 . S
C1657 C1673 1.349 . S
C1658 C1656 1.327 . S
C1658 C1677 1.429 . S
C1658 H1682 0.950 . S
C1659 C1676 1.574 . S
C1659 C1678 1.368 . S
C1659 H1683 0.949 . S
H1660 C1664 0.949 . S
C1661 C1662 1.349 . S
C1661 C1663 1.327 . S
C1661 H1684 0.950 . S
C1662 C1661 1.349 . S
C1662 C1674 1.349 . S
C1663 C1661 1.327 . S
C1663 C1679 1.429 . S
C1663 H1685 0.950 . S
C1664 H1660 0.949 . S
C1664 C1672 1.574 . S
C1664 C1680 1.368 . S
H1665 C1673 0.950 . S
H1666 C1671 0.950 . S
H1667 C1672 0.949 . S
H1668 C1674 0.950 . S
H1669 C1675 0.950 . S
H1670 C1676 0.949 . S
C1671 H1666 0.950 . S
C1671 C1673 1.327 . S
C1671 C1677 1.429 . S
C1672 C1664 1.574 . S
C1672 H1667 0.949 . S
C1672 C1678 1.368 . S
C1673 C1657 1.349 . S
C1673 H1665 0.950 . S
C1673 C1671 1.327 . S
C1674 C1662 1.349 . S
C1674 H1668 0.950 . S
C1674 C1675 1.327 . S
C1675 H1669 0.950 . S
C1675 C1674 1.327 . S
C1675 C1679 1.429 . S
C1676 C1659 1.574 . S
C1676 H1670 0.949 . S
C1676 C1680 1.368 . S
C1677 C1658 1.429 . S
C1677 C1671 1.429 . S
C1677 C1678 1.523 . S
C1678 C1659 1.368 . S
C1678 C1672 1.368 . S
C1678 C1677 1.523 . S
C1679 C1663 1.429 . S
C1679 C1675 1.429 . S
C1679 C1680 1.523 . S
C1680 C1664 1.368 . S
C1680 C1676 1.368 . S
C1680 C1679 1.523 . S
H1681 C1656 0.950 . S
H1682 C1658 0.950 . S
H1683 C1659 0.949 . S
H1684 C1661 0.950 . S
H1685 C1663 0.950 . S
C1686 C1687 1.349 . S
C1686 C1688 1.327 . S
C1686 H1711 0.950 . S
C1687 C1686 1.349 . S
C1687 C1703 1.349 . S
C1688 C1686 1.327 . S
C1688 C1707 1.429 . S
C1688 H1712 0.950 . S
C1689 C1706 1.560 1_655 S
C1689 C1708 1.368 . S
C1689 H1713 0.949 . S
H1690 C1694 0.949 . S
C1691 C1692 1.349 . S
C1691 C1693 1.327 . S
C1691 H1714 0.950 . S
C1692 C1691 1.349 . S
C1692 C1704 1.349 . S
C1693 C1691 1.327 . S
C1693 C1709 1.429 . S
C1693 H1715 0.950 . S
C1694 H1690 0.949 . S
C1694 C1702 1.561 1_455 S
C1694 C1710 1.368 . S
H1695 C1703 0.950 . S
H1696 C1701 0.950 . S
H1697 C1702 0.956 . S
H1698 C1704 0.950 . S
H1699 C1705 0.950 . S
H1700 C1706 0.956 . S
C1701 H1696 0.950 . S
C1701 C1703 1.327 . S
C1701 C1707 1.429 . S
C1702 C1694 1.561 1_655 S
C1702 H1697 0.956 . S
C1702 C1708 1.384 . S
C1703 C1687 1.349 . S
C1703 H1695 0.950 . S
C1703 C1701 1.327 . S
C1704 C1692 1.349 . S
C1704 H1698 0.950 . S
C1704 C1705 1.327 . S
C1705 H1699 0.950 . S
C1705 C1704 1.327 . S
C1705 C1709 1.429 . S
C1706 C1689 1.560 1_455 S
C1706 H1700 0.956 . S
C1706 C1710 1.385 . S
C1707 C1688 1.429 . S
C1707 C1701 1.429 . S
C1707 C1708 1.523 . S
C1708 C1689 1.368 . S
C1708 C1702 1.384 . S
C1708 C1707 1.523 . S
C1709 C1693 1.429 . S
C1709 C1705 1.429 . S
C1709 C1710 1.523 . S
C1710 C1694 1.368 . S
C1710 C1706 1.385 . S
C1710 C1709 1.523 . S
H1711 C1686 0.950 . S
H1712 C1688 0.950 . S
H1713 C1689 0.949 . S
H1714 C1691 0.950 . S
H1715 C1693 0.950 . S
C1716 C1717 1.349 . S
C1716 C1718 1.327 . S
C1716 H1741 0.950 . S
C1717 C1716 1.349 . S
C1717 C1733 1.349 . S
C1718 C1716 1.327 . S
C1718 C1737 1.429 . S
C1718 H1742 0.950 . S
C1719 C1736 1.574 1_565 S
C1719 C1738 1.368 . S
C1719 H1743 0.949 . S
H1720 C1724 0.949 . S
C1721 C1722 1.349 . S
C1721 C1723 1.327 . S
C1721 H1744 0.950 . S
C1722 C1721 1.349 . S
C1722 C1734 1.349 . S
C1723 C1721 1.327 . S
C1723 C1739 1.429 . S
C1723 H1745 0.950 . S
C1724 H1720 0.949 . S
C1724 C1732 1.574 1_545 S
C1724 C1740 1.368 . S
H1725 C1733 0.950 . S
H1726 C1731 0.950 . S
H1727 C1732 0.949 . S
H1728 C1734 0.950 . S
H1729 C1735 0.950 . S
H1730 C1736 0.949 . S
C1731 H1726 0.950 . S
C1731 C1733 1.327 . S
C1731 C1737 1.429 . S
C1732 C1724 1.574 1_565 S
C1732 H1727 0.949 . S
C1732 C1738 1.368 . S
C1733 C1717 1.349 . S
C1733 H1725 0.950 . S
C1733 C1731 1.327 . S
C1734 C1722 1.349 . S
C1734 H1728 0.950 . S
C1734 C1735 1.327 . S
C1735 H1729 0.950 . S
C1735 C1734 1.327 . S
C1735 C1739 1.429 . S
C1736 C1719 1.574 1_545 S
C1736 H1730 0.949 . S
C1736 C1740 1.368 . S
C1737 C1718 1.429 . S
C1737 C1731 1.429 . S
C1737 C1738 1.523 . S
C1738 C1719 1.368 . S
C1738 C1732 1.368 . S
C1738 C1737 1.523 . S
C1739 C1723 1.429 . S
C1739 C1735 1.429 . S
C1739 C1740 1.523 . S
C1740 C1724 1.368 . S
C1740 C1736 1.368 . S
C1740 C1739 1.523 . S
H1741 C1716 0.950 . S
H1742 C1718 0.950 . S
H1743 C1719 0.949 . S
H1744 C1721 0.950 . S
H1745 C1723 0.950 . S
C1746 C1747 1.349 . S
C1746 C1748 1.327 . S
C1746 H1771 0.950 . S
C1747 C1746 1.349 . S
C1747 C1763 1.349 . S
C1748 C1746 1.327 . S
C1748 C1767 1.429 . S
C1748 H1772 0.950 . S
C1749 C1766 1.574 . S
C1749 C1768 1.368 . S
C1749 H1773 0.949 . S
H1750 C1754 0.949 . S
C1751 C1752 1.349 . S
C1751 C1753 1.327 . S
C1751 H1774 0.950 . S
C1752 C1751 1.349 . S
C1752 C1764 1.349 . S
C1753 C1751 1.327 . S
C1753 C1769 1.429 . S
C1753 H1775 0.950 . S
C1754 H1750 0.949 . S
C1754 C1762 1.574 . S
C1754 C1770 1.368 . S
H1755 C1763 0.950 . S
H1756 C1761 0.950 . S
H1757 C1762 0.949 . S
H1758 C1764 0.950 . S
H1759 C1765 0.950 . S
H1760 C1766 0.949 . S
C1761 H1756 0.950 . S
C1761 C1763 1.327 . S
C1761 C1767 1.429 . S
C1762 C1754 1.574 . S
C1762 H1757 0.949 . S
C1762 C1768 1.368 . S
C1763 C1747 1.349 . S
C1763 H1755 0.950 . S
C1763 C1761 1.327 . S
C1764 C1752 1.349 . S
C1764 H1758 0.950 . S
C1764 C1765 1.327 . S
C1765 H1759 0.950 . S
C1765 C1764 1.327 . S
C1765 C1769 1.429 . S
C1766 C1749 1.574 . S
C1766 H1760 0.949 . S
C1766 C1770 1.368 . S
C1767 C1748 1.429 . S
C1767 C1761 1.429 . S
C1767 C1768 1.523 . S
C1768 C1749 1.368 . S
C1768 C1762 1.368 . S
C1768 C1767 1.523 . S
C1769 C1753 1.429 . S
C1769 C1765 1.429 . S
C1769 C1770 1.523 . S
C1770 C1754 1.368 . S
C1770 C1766 1.368 . S
C1770 C1769 1.523 . S
H1771 C1746 0.950 . S
H1772 C1748 0.950 . S
H1773 C1749 0.949 . S
H1774 C1751 0.950 . S
H1775 C1753 0.950 . S
C1776 C1777 1.349 . S
C1776 C1778 1.327 . S
C1776 H1801 0.950 . S
C1777 C1776 1.349 . S
C1777 C1793 1.349 . S
C1778 C1776 1.327 . S
C1778 C1797 1.429 . S
C1778 H1802 0.950 . S
C1779 C1796 1.574 1_455 S
C1779 C1798 1.368 . S
C1779 H1803 0.949 . S
H1780 C1784 0.949 . S
C1781 C1782 1.349 . S
C1781 C1783 1.327 . S
C1781 H1804 0.950 . S
C1782 C1781 1.349 . S
C1782 C1794 1.349 . S
C1783 C1781 1.327 . S
C1783 C1799 1.429 . S
C1783 H1805 0.950 . S
C1784 H1780 0.949 . S
C1784 C1792 1.574 1_655 S
C1784 C1800 1.368 . S
H1785 C1793 0.950 . S
H1786 C1791 0.950 . S
H1787 C1792 0.949 . S
H1788 C1794 0.950 . S
H1789 C1795 0.950 . S
H1790 C1796 0.949 . S
C1791 H1786 0.950 . S
C1791 C1793 1.327 . S
C1791 C1797 1.429 . S
C1792 C1784 1.574 1_455 S
C1792 H1787 0.949 . S
C1792 C1798 1.368 . S
C1793 C1777 1.349 . S
C1793 H1785 0.950 . S
C1793 C1791 1.327 . S
C1794 C1782 1.349 . S
C1794 H1788 0.950 . S
C1794 C1795 1.327 . S
C1795 H1789 0.950 . S
C1795 C1794 1.327 . S
C1795 C1799 1.429 . S
C1796 C1779 1.574 1_655 S
C1796 H1790 0.949 . S
C1796 C1800 1.368 . S
C1797 C1778 1.429 . S
C1797 C1791 1.429 . S
C1797 C1798 1.523 . S
C1798 C1779 1.368 . S
C1798 C1792 1.368 . S
C1798 C1797 1.523 . S
C1799 C1783 1.429 . S
C1799 C1795 1.429 . S
C1799 C1800 1.523 . S
C1800 C1784 1.368 . S
C1800 C1796 1.368 . S
C1800 C1799 1.523 . S
H1801 C1776 0.950 . S
H1802 C1778 0.950 . S
H1803 C1779 0.949 . S
H1804 C1781 0.950 . S
H1805 C1783 0.950 . S
C1806 C1807 1.349 . S
C1806 C1808 1.327 . S
C1806 H1831 0.950 . S
C1807 C1806 1.349 . S
C1807 C1823 1.349 . S
C1808 C1806 1.327 . S
C1808 C1827 1.429 . S
C1808 H1832 0.950 . S
C1809 C1826 1.574 1_545 S
C1809 C1828 1.368 . S
C1809 H1833 0.949 . S
H1810 C1814 0.949 . S
C1811 C1812 1.349 . S
C1811 C1813 1.327 . S
C1811 H1834 0.950 . S
C1812 C1811 1.349 . S
C1812 C1824 1.349 . S
C1813 C1811 1.327 . S
C1813 C1829 1.429 . S
C1813 H1835 0.950 . S
C1814 H1810 0.949 . S
C1814 C1822 1.574 1_565 S
C1814 C1830 1.368 . S
H1815 C1823 0.950 . S
H1816 C1821 0.950 . S
H1817 C1822 0.949 . S
H1818 C1824 0.950 . S
H1819 C1825 0.950 . S
H1820 C1826 0.949 . S
C1821 H1816 0.950 . S
C1821 C1823 1.327 . S
C1821 C1827 1.429 . S
C1822 C1814 1.574 1_545 S
C1822 H1817 0.949 . S
C1822 C1828 1.368 . S
C1823 C1807 1.349 . S
C1823 H1815 0.950 . S
C1823 C1821 1.327 . S
C1824 C1812 1.349 . S
C1824 H1818 0.950 . S
C1824 C1825 1.327 . S
C1825 H1819 0.950 . S
C1825 C1824 1.327 . S
C1825 C1829 1.429 . S
C1826 C1809 1.574 1_565 S
C1826 H1820 0.949 . S
C1826 C1830 1.368 . S
C1827 C1808 1.429 . S
C1827 C1821 1.429 . S
C1827 C1828 1.523 . S
C1828 C1809 1.368 . S
C1828 C1822 1.368 . S
C1828 C1827 1.523 . S
C1829 C1813 1.429 . S
C1829 C1825 1.429 . S
C1829 C1830 1.523 . S
C1830 C1814 1.368 . S
C1830 C1826 1.368 . S
C1830 C1829 1.523 . S
H1831 C1806 0.950 . S
H1832 C1808 0.950 . S
H1833 C1809 0.949 . S
H1834 C1811 0.950 . S
H1835 C1813 0.950 . S
C1836 C1837 1.349 . S
C1836 C1838 1.327 . S
C1836 H1861 0.950 . S
C1837 C1836 1.349 . S
C1837 C1853 1.349 . S
C1838 C1836 1.327 . S
C1838 C1857 1.429 . S
C1838 H1862 0.950 . S
C1839 C1856 1.574 . S
C1839 C1858 1.368 . S
C1839 H1863 0.949 . S
H1840 C1844 0.949 . S
C1841 C1842 1.349 . S
C1841 C1843 1.327 . S
C1841 H1864 0.950 . S
C1842 C1841 1.349 . S
C1842 C1854 1.349 . S
C1843 C1841 1.327 . S
C1843 C1859 1.429 . S
C1843 H1865 0.950 . S
C1844 H1840 0.949 . S
C1844 C1852 1.574 . S
C1844 C1860 1.368 . S
H1845 C1853 0.950 . S
H1846 C1851 0.950 . S
H1847 C1852 0.949 . S
H1848 C1854 0.950 . S
H1849 C1855 0.950 . S
H1850 C1856 0.949 . S
C1851 H1846 0.950 . S
C1851 C1853 1.327 . S
C1851 C1857 1.429 . S
C1852 C1844 1.574 . S
C1852 H1847 0.949 . S
C1852 C1858 1.368 . S
C1853 C1837 1.349 . S
C1853 H1845 0.950 . S
C1853 C1851 1.327 . S
C1854 C1842 1.349 . S
C1854 H1848 0.950 . S
C1854 C1855 1.327 . S
C1855 H1849 0.950 . S
C1855 C1854 1.327 . S
C1855 C1859 1.429 . S
C1856 C1839 1.574 . S
C1856 H1850 0.949 . S
C1856 C1860 1.368 . S
C1857 C1838 1.429 . S
C1857 C1851 1.429 . S
C1857 C1858 1.523 . S
C1858 C1839 1.368 . S
C1858 C1852 1.368 . S
C1858 C1857 1.523 . S
C1859 C1843 1.429 . S
C1859 C1855 1.429 . S
C1859 C1860 1.523 . S
C1860 C1844 1.368 . S
C1860 C1856 1.368 . S
C1860 C1859 1.523 . S
H1861 C1836 0.950 . S
H1862 C1838 0.950 . S
H1863 C1839 0.949 . S
H1864 C1841 0.950 . S
H1865 C1843 0.950 . S
C1866 C1867 1.349 . S
C1866 C1868 1.327 . S
C1866 H1891 0.950 . S
C1867 C1866 1.349 . S
C1867 C1883 1.349 . S
C1868 C1866 1.327 . S
C1868 C1887 1.429 . S
C1868 H1892 0.950 . S
C1869 C1886 1.574 1_455 S
C1869 C1888 1.368 . S
C1869 H1893 0.949 . S
H1870 C1874 0.949 . S
C1871 C1872 1.349 . S
C1871 C1873 1.327 . S
C1871 H1894 0.950 . S
C1872 C1871 1.349 . S
C1872 C1884 1.349 . S
C1873 C1871 1.327 . S
C1873 C1889 1.429 . S
C1873 H1895 0.950 . S
C1874 H1870 0.949 . S
C1874 C1882 1.574 1_655 S
C1874 C1890 1.368 . S
H1875 C1883 0.950 . S
H1876 C1881 0.950 . S
H1877 C1882 0.949 . S
H1878 C1884 0.950 . S
H1879 C1885 0.950 . S
H1880 C1886 0.949 . S
C1881 H1876 0.950 . S
C1881 C1883 1.327 . S
C1881 C1887 1.429 . S
C1882 C1874 1.574 1_455 S
C1882 H1877 0.949 . S
C1882 C1888 1.368 . S
C1883 C1867 1.349 . S
C1883 H1875 0.950 . S
C1883 C1881 1.327 . S
C1884 C1872 1.349 . S
C1884 H1878 0.950 . S
C1884 C1885 1.327 . S
C1885 H1879 0.950 . S
C1885 C1884 1.327 . S
C1885 C1889 1.429 . S
C1886 C1869 1.574 1_655 S
C1886 H1880 0.949 . S
C1886 C1890 1.368 . S
C1887 C1868 1.429 . S
C1887 C1881 1.429 . S
C1887 C1888 1.523 . S
C1888 C1869 1.368 . S
C1888 C1882 1.368 . S
C1888 C1887 1.523 . S
C1889 C1873 1.429 . S
C1889 C1885 1.429 . S
C1889 C1890 1.523 . S
C1890 C1874 1.368 . S
C1890 C1886 1.368 . S
C1890 C1889 1.523 . S
H1891 C1866 0.950 . S
H1892 C1868 0.950 . S
H1893 C1869 0.949 . S
H1894 C1871 0.950 . S
H1895 C1873 0.950 . S
C1896 C1897 1.349 . S
C1896 C1898 1.327 . S
C1896 H1921 0.950 . S
C1897 C1896 1.349 . S
C1897 C1913 1.349 . S
C1898 C1896 1.327 . S
C1898 C1917 1.429 . S
C1898 H1922 0.950 . S
C1899 C1916 1.574 . S
C1899 C1918 1.368 . S
C1899 H1923 0.949 . S
H1900 C1904 0.949 . S
C1901 C1902 1.349 . S
C1901 C1903 1.327 . S
C1901 H1924 0.950 . S
C1902 C1901 1.349 . S
C1902 C1914 1.349 . S
C1903 C1901 1.327 . S
C1903 C1919 1.429 . S
C1903 H1925 0.950 . S
C1904 H1900 0.949 . S
C1904 C1912 1.574 . S
C1904 C1920 1.368 . S
H1905 C1913 0.950 . S
H1906 C1911 0.950 . S
H1907 C1912 0.949 . S
H1908 C1914 0.950 . S
H1909 C1915 0.950 . S
H1910 C1916 0.949 . S
C1911 H1906 0.950 . S
C1911 C1913 1.327 . S
C1911 C1917 1.429 . S
C1912 C1904 1.574 . S
C1912 H1907 0.949 . S
C1912 C1918 1.368 . S
C1913 C1897 1.349 . S
C1913 H1905 0.950 . S
C1913 C1911 1.327 . S
C1914 C1902 1.349 . S
C1914 H1908 0.950 . S
C1914 C1915 1.327 . S
C1915 H1909 0.950 . S
C1915 C1914 1.327 . S
C1915 C1919 1.429 . S
C1916 C1899 1.574 . S
C1916 H1910 0.949 . S
C1916 C1920 1.368 . S
C1917 C1898 1.429 . S
C1917 C1911 1.429 . S
C1917 C1918 1.523 . S
C1918 C1899 1.368 . S
C1918 C1912 1.368 . S
C1918 C1917 1.523 . S
C1919 C1903 1.429 . S
C1919 C1915 1.429 . S
C1919 C1920 1.523 . S
C1920 C1904 1.368 . S
C1920 C1916 1.368 . S
C1920 C1919 1.523 . S
H1921 C1896 0.950 . S
H1922 C1898 0.950 . S
H1923 C1899 0.949 . S
H1924 C1901 0.950 . S
H1925 C1903 0.950 . S
C1926 C1927 1.349 . S
C1926 C1928 1.327 . S
C1926 H1951 0.950 . S
C1927 C1926 1.349 . S
C1927 C1943 1.349 . S
C1928 C1926 1.327 . S
C1928 C1947 1.429 . S
C1928 H1952 0.950 . S
C1929 C1946 1.574 . S
C1929 C1948 1.368 . S
C1929 H1953 0.949 . S
H1930 C1934 0.949 . S
C1931 C1932 1.349 . S
C1931 C1933 1.327 . S
C1931 H1954 0.950 . S
C1932 C1931 1.349 . S
C1932 C1944 1.349 . S
C1933 C1931 1.327 . S
C1933 C1949 1.429 . S
C1933 H1955 0.950 . S
C1934 H1930 0.949 . S
C1934 C1942 1.574 . S
C1934 C1950 1.368 . S
H1935 C1943 0.950 . S
H1936 C1941 0.950 . S
H1937 C1942 0.949 . S
H1938 C1944 0.950 . S
H1939 C1945 0.950 . S
H1940 C1946 0.949 . S
C1941 H1936 0.950 . S
C1941 C1943 1.327 . S
C1941 C1947 1.429 . S
C1942 C1934 1.574 . S
C1942 H1937 0.949 . S
C1942 C1948 1.368 . S
C1943 C1927 1.349 . S
C1943 H1935 0.950 . S
C1943 C1941 1.327 . S
C1944 C1932 1.349 . S
C1944 H1938 0.950 . S
C1944 C1945 1.327 . S
C1945 H1939 0.950 . S
C1945 C1944 1.327 . S
C1945 C1949 1.429 . S
C1946 C1929 1.574 . S
C1946 H1940 0.949 . S
C1946 C1950 1.368 . S
C1947 C1928 1.429 . S
C1947 C1941 1.429 . S
C1947 C1948 1.523 . S
C1948 C1929 1.368 . S
C1948 C1942 1.368 . S
C1948 C1947 1.523 . S
C1949 C1933 1.429 . S
C1949 C1945 1.429 . S
C1949 C1950 1.523 . S
C1950 C1934 1.368 . S
C1950 C1946 1.368 . S
C1950 C1949 1.523 . S
H1951 C1926 0.950 . S
H1952 C1928 0.950 . S
H1953 C1929 0.949 . S
H1954 C1931 0.950 . S
H1955 C1933 0.950 . S
C1956 C1957 1.349 . S
C1956 C1958 1.327 . S
C1956 H1981 0.950 . S
C1957 C1956 1.349 . S
C1957 C1973 1.349 . S
C1958 C1956 1.327 . S
C1958 C1977 1.429 . S
C1958 H1982 0.950 . S
C1959 C1976 1.574 . S
C1959 C1978 1.368 . S
C1959 H1983 0.949 . S
H1960 C1964 0.949 . S
C1961 C1962 1.349 . S
C1961 C1963 1.327 . S
C1961 H1984 0.950 . S
C1962 C1961 1.349 . S
C1962 C1974 1.349 . S
C1963 C1961 1.327 . S
C1963 C1979 1.429 . S
C1963 H1985 0.950 . S
C1964 H1960 0.949 . S
C1964 C1972 1.574 . S
C1964 C1980 1.368 . S
H1965 C1973 0.950 . S
H1966 C1971 0.950 . S
H1967 C1972 0.949 . S
H1968 C1974 0.950 . S
H1969 C1975 0.950 . S
H1970 C1976 0.949 . S
C1971 H1966 0.950 . S
C1971 C1973 1.327 . S
C1971 C1977 1.429 . S
C1972 C1964 1.574 . S
C1972 H1967 0.949 . S
C1972 C1978 1.368 . S
C1973 C1957 1.349 . S
C1973 H1965 0.950 . S
C1973 C1971 1.327 . S
C1974 C1962 1.349 . S
C1974 H1968 0.950 . S
C1974 C1975 1.327 . S
C1975 H1969 0.950 . S
C1975 C1974 1.327 . S
C1975 C1979 1.429 . S
C1976 C1959 1.574 . S
C1976 H1970 0.949 . S
C1976 C1980 1.368 . S
C1977 C1958 1.429 . S
C1977 C1971 1.429 . S
C1977 C1978 1.523 . S
C1978 C1959 1.368 . S
C1978 C1972 1.368 . S
C1978 C1977 1.523 . S
C1979 C1963 1.429 . S
C1979 C1975 1.429 . S
C1979 C1980 1.523 . S
C1980 C1964 1.368 . S
C1980 C1976 1.368 . S
C1980 C1979 1.523 . S
H1981 C1956 0.950 . S
H1982 C1958 0.950 . S
H1983 C1959 0.949 . S
H1984 C1961 0.950 . S
H1985 C1963 0.950 . S
C1986 C1987 1.349 . S
C1986 C1988 1.327 . S
C1986 H2011 0.950 . S
C1987 C1986 1.349 . S
C1987 C2003 1.349 . S
C1988 C1986 1.327 . S
C1988 C2007 1.429 . S
C1988 H2012 0.950 . S
C1989 C2006 1.574 . S
C1989 C2008 1.368 . S
C1989 H2013 0.949 . S
H1990 C1994 0.949 . S
C1991 C1992 1.349 . S
C1991 C1993 1.327 . S
C1991 H2014 0.950 . S
C1992 C1991 1.349 . S
C1992 C2004 1.349 . S
C1993 C1991 1.327 . S
C1993 C2009 1.429 . S
C1993 H2015 0.950 . S
C1994 H1990 0.949 . S
C1994 C2002 1.574 . S
C1994 C2010 1.368 . S
H1995 C2003 0.950 . S
H1996 C2001 0.950 . S
H1997 C2002 0.949 . S
H1998 C2004 0.950 . S
H1999 C2005 0.950 . S
H2000 C2006 0.949 . S
C2001 H1996 0.950 . S
C2001 C2003 1.327 . S
C2001 C2007 1.429 . S
C2002 C1994 1.574 . S
C2002 H1997 0.949 . S
C2002 C2008 1.368 . S
C2003 C1987 1.349 . S
C2003 H1995 0.950 . S
C2003 C2001 1.327 . S
C2004 C1992 1.349 . S
C2004 H1998 0.950 . S
C2004 C2005 1.327 . S
C2005 H1999 0.950 . S
C2005 C2004 1.327 . S
C2005 C2009 1.429 . S
C2006 C1989 1.574 . S
C2006 H2000 0.949 . S
C2006 C2010 1.368 . S
C2007 C1988 1.429 . S
C2007 C2001 1.429 . S
C2007 C2008 1.523 . S
C2008 C1989 1.368 . S
C2008 C2002 1.368 . S
C2008 C2007 1.523 . S
C2009 C1993 1.429 . S
C2009 C2005 1.429 . S
C2009 C2010 1.523 . S
C2010 C1994 1.368 . S
C2010 C2006 1.368 . S
C2010 C2009 1.523 . S
H2011 C1986 0.950 . S
H2012 C1988 0.950 . S
H2013 C1989 0.949 . S
H2014 C1991 0.950 . S
H2015 C1993 0.950 . S
C2016 C2017 1.349 . S
C2016 C2018 1.327 . S
C2016 H2041 0.950 . S
C2017 C2016 1.349 . S
C2017 C2033 1.349 . S
C2018 C2016 1.327 . S
C2018 C2037 1.429 . S
C2018 H2042 0.950 . S
C2019 C2036 1.574 . S
C2019 C2038 1.368 . S
C2019 H2043 0.949 . S
H2020 C2024 0.949 . S
C2021 C2022 1.349 . S
C2021 C2023 1.327 . S
C2021 H2044 0.950 . S
C2022 C2021 1.349 . S
C2022 C2034 1.349 . S
C2023 C2021 1.327 . S
C2023 C2039 1.429 . S
C2023 H2045 0.950 . S
C2024 H2020 0.949 . S
C2024 C2032 1.574 . S
C2024 C2040 1.368 . S
H2025 C2033 0.950 . S
H2026 C2031 0.950 . S
H2027 C2032 0.949 . S
H2028 C2034 0.950 . S
H2029 C2035 0.950 . S
H2030 C2036 0.949 . S
C2031 H2026 0.950 . S
C2031 C2033 1.327 . S
C2031 C2037 1.429 . S
C2032 C2024 1.574 . S
C2032 H2027 0.949 . S
C2032 C2038 1.368 . S
C2033 C2017 1.349 . S
C2033 H2025 0.950 . S
C2033 C2031 1.327 . S
C2034 C2022 1.349 . S
C2034 H2028 0.950 . S
C2034 C2035 1.327 . S
C2035 H2029 0.950 . S
C2035 C2034 1.327 . S
C2035 C2039 1.429 . S
C2036 C2019 1.574 . S
C2036 H2030 0.949 . S
C2036 C2040 1.368 . S
C2037 C2018 1.429 . S
C2037 C2031 1.429 . S
C2037 C2038 1.523 . S
C2038 C2019 1.368 . S
C2038 C2032 1.368 . S
C2038 C2037 1.523 . S
C2039 C2023 1.429 . S
C2039 C2035 1.429 . S
C2039 C2040 1.523 . S
C2040 C2024 1.368 . S
C2040 C2036 1.368 . S
C2040 C2039 1.523 . S
H2041 C2016 0.950 . S
H2042 C2018 0.950 . S
H2043 C2019 0.949 . S
H2044 C2021 0.950 . S
H2045 C2023 0.950 . S
C2046 C2047 1.349 . S
C2046 C2048 1.327 . S
C2046 H2071 0.950 . S
C2047 C2046 1.349 . S
C2047 C2063 1.349 . S
C2048 C2046 1.327 . S
C2048 C2067 1.429 . S
C2048 H2072 0.950 . S
C2049 C2066 1.574 . S
C2049 C2068 1.368 . S
C2049 H2073 0.949 . S
H2050 C2054 0.949 . S
C2051 C2052 1.349 . S
C2051 C2053 1.327 . S
C2051 H2074 0.950 . S
C2052 C2051 1.349 . S
C2052 C2064 1.349 . S
C2053 C2051 1.327 . S
C2053 C2069 1.429 . S
C2053 H2075 0.950 . S
C2054 H2050 0.949 . S
C2054 C2062 1.574 . S
C2054 C2070 1.368 . S
H2055 C2063 0.950 . S
H2056 C2061 0.950 . S
H2057 C2062 0.949 . S
H2058 C2064 0.950 . S
H2059 C2065 0.950 . S
H2060 C2066 0.949 . S
C2061 H2056 0.950 . S
C2061 C2063 1.327 . S
C2061 C2067 1.429 . S
C2062 C2054 1.574 . S
C2062 H2057 0.949 . S
C2062 C2068 1.368 . S
C2063 C2047 1.349 . S
C2063 H2055 0.950 . S
C2063 C2061 1.327 . S
C2064 C2052 1.349 . S
C2064 H2058 0.950 . S
C2064 C2065 1.327 . S
C2065 H2059 0.950 . S
C2065 C2064 1.327 . S
C2065 C2069 1.429 . S
C2066 C2049 1.574 . S
C2066 H2060 0.949 . S
C2066 C2070 1.368 . S
C2067 C2048 1.429 . S
C2067 C2061 1.429 . S
C2067 C2068 1.523 . S
C2068 C2049 1.368 . S
C2068 C2062 1.368 . S
C2068 C2067 1.523 . S
C2069 C2053 1.429 . S
C2069 C2065 1.429 . S
C2069 C2070 1.523 . S
C2070 C2054 1.368 . S
C2070 C2066 1.368 . S
C2070 C2069 1.523 . S
H2071 C2046 0.950 . S
H2072 C2048 0.950 . S
H2073 C2049 0.949 . S
H2074 C2051 0.950 . S
H2075 C2053 0.950 . S
C2076 C2077 1.349 . S
C2076 C2078 1.327 . S
C2076 H2101 0.950 . S
C2077 C2076 1.349 . S
C2077 C2093 1.349 . S
C2078 C2076 1.327 . S
C2078 C2097 1.429 . S
C2078 H2102 0.950 . S
C2079 C2096 1.574 . S
C2079 C2098 1.368 . S
C2079 H2103 0.949 . S
H2080 C2084 0.949 . S
C2081 C2082 1.349 . S
C2081 C2083 1.327 . S
C2081 H2104 0.950 . S
C2082 C2081 1.349 . S
C2082 C2094 1.349 . S
C2083 C2081 1.327 . S
C2083 C2099 1.429 . S
C2083 H2105 0.950 . S
C2084 H2080 0.949 . S
C2084 C2092 1.574 . S
C2084 C2100 1.368 . S
H2085 C2093 0.950 . S
H2086 C2091 0.950 . S
H2087 C2092 0.949 . S
H2088 C2094 0.950 . S
H2089 C2095 0.950 . S
H2090 C2096 0.949 . S
C2091 H2086 0.950 . S
C2091 C2093 1.327 . S
C2091 C2097 1.429 . S
C2092 C2084 1.574 . S
C2092 H2087 0.949 . S
C2092 C2098 1.368 . S
C2093 C2077 1.349 . S
C2093 H2085 0.950 . S
C2093 C2091 1.327 . S
C2094 C2082 1.349 . S
C2094 H2088 0.950 . S
C2094 C2095 1.327 . S
C2095 H2089 0.950 . S
C2095 C2094 1.327 . S
C2095 C2099 1.429 . S
C2096 C2079 1.574 . S
C2096 H2090 0.949 . S
C2096 C2100 1.368 . S
C2097 C2078 1.429 . S
C2097 C2091 1.429 . S
C2097 C2098 1.523 . S
C2098 C2079 1.368 . S
C2098 C2092 1.368 . S
C2098 C2097 1.523 . S
C2099 C2083 1.429 . S
C2099 C2095 1.429 . S
C2099 C2100 1.523 . S
C2100 C2084 1.368 . S
C2100 C2096 1.368 . S
C2100 C2099 1.523 . S
H2101 C2076 0.950 . S
H2102 C2078 0.950 . S
H2103 C2079 0.949 . S
H2104 C2081 0.950 . S
H2105 C2083 0.950 . S
C2106 C2107 1.349 . S
C2106 C2108 1.327 . S
C2106 H2131 0.950 . S
C2107 C2106 1.349 . S
C2107 C2123 1.349 . S
C2108 C2106 1.327 . S
C2108 C2127 1.429 . S
C2108 H2132 0.950 . S
C2109 C2126 1.574 . S
C2109 C2128 1.368 . S
C2109 H2133 0.949 . S
H2110 C2114 0.949 . S
C2111 C2112 1.349 . S
C2111 C2113 1.327 . S
C2111 H2134 0.950 . S
C2112 C2111 1.349 . S
C2112 C2124 1.349 . S
C2113 C2111 1.327 . S
C2113 C2129 1.429 . S
C2113 H2135 0.950 . S
C2114 H2110 0.949 . S
C2114 C2122 1.574 . S
C2114 C2130 1.368 . S
H2115 C2123 0.950 . S
H2116 C2121 0.950 . S
H2117 C2122 0.949 . S
H2118 C2124 0.950 . S
H2119 C2125 0.950 . S
H2120 C2126 0.949 . S
C2121 H2116 0.950 . S
C2121 C2123 1.327 . S
C2121 C2127 1.429 . S
C2122 C2114 1.574 . S
C2122 H2117 0.949 . S
C2122 C2128 1.368 . S
C2123 C2107 1.349 . S
C2123 H2115 0.950 . S
C2123 C2121 1.327 . S
C2124 C2112 1.349 . S
C2124 H2118 0.950 . S
C2124 C2125 1.327 . S
C2125 H2119 0.950 . S
C2125 C2124 1.327 . S
C2125 C2129 1.429 . S
C2126 C2109 1.574 . S
C2126 H2120 0.949 . S
C2126 C2130 1.368 . S
C2127 C2108 1.429 . S
C2127 C2121 1.429 . S
C2127 C2128 1.523 . S
C2128 C2109 1.368 . S
C2128 C2122 1.368 . S
C2128 C2127 1.523 . S
C2129 C2113 1.429 . S
C2129 C2125 1.429 . S
C2129 C2130 1.523 . S
C2130 C2114 1.368 . S
C2130 C2126 1.368 . S
C2130 C2129 1.523 . S
H2131 C2106 0.950 . S
H2132 C2108 0.950 . S
H2133 C2109 0.949 . S
H2134 C2111 0.950 . S
H2135 C2113 0.950 . S
C2136 C2137 1.349 . S
C2136 C2138 1.327 . S
C2136 H2161 0.950 . S
C2137 C2136 1.349 . S
C2137 C2153 1.349 . S
C2138 C2136 1.327 . S
C2138 C2157 1.429 . S
C2138 H2162 0.950 . S
C2139 C2156 1.574 . S
C2139 C2158 1.368 . S
C2139 H2163 0.949 . S
H2140 C2144 0.949 . S
C2141 C2142 1.349 . S
C2141 C2143 1.327 . S
C2141 H2164 0.950 . S
C2142 C2141 1.349 . S
C2142 C2154 1.349 . S
C2143 C2141 1.327 . S
C2143 C2159 1.429 . S
C2143 H2165 0.950 . S
C2144 H2140 0.949 . S
C2144 C2152 1.574 . S
C2144 C2160 1.368 . S
H2145 C2153 0.950 . S
H2146 C2151 0.950 . S
H2147 C2152 0.949 . S
H2148 C2154 0.950 . S
H2149 C2155 0.950 . S
H2150 C2156 0.949 . S
C2151 H2146 0.950 . S
C2151 C2153 1.327 . S
C2151 C2157 1.429 . S
C2152 C2144 1.574 . S
C2152 H2147 0.949 . S
C2152 C2158 1.368 . S
C2153 C2137 1.349 . S
C2153 H2145 0.950 . S
C2153 C2151 1.327 . S
C2154 C2142 1.349 . S
C2154 H2148 0.950 . S
C2154 C2155 1.327 . S
C2155 H2149 0.950 . S
C2155 C2154 1.327 . S
C2155 C2159 1.429 . S
C2156 C2139 1.574 . S
C2156 H2150 0.949 . S
C2156 C2160 1.368 . S
C2157 C2138 1.429 . S
C2157 C2151 1.429 . S
C2157 C2158 1.523 . S
C2158 C2139 1.368 . S
C2158 C2152 1.368 . S
C2158 C2157 1.523 . S
C2159 C2143 1.429 . S
C2159 C2155 1.429 . S
C2159 C2160 1.523 . S
C2160 C2144 1.368 . S
C2160 C2156 1.368 . S
C2160 C2159 1.523 . S
H2161 C2136 0.950 . S
H2162 C2138 0.950 . S
H2163 C2139 0.949 . S
H2164 C2141 0.950 . S
H2165 C2143 0.950 . S
C2166 C2167 1.349 . S
C2166 C2168 1.327 . S
C2166 H2191 0.950 . S
C2167 C2166 1.349 . S
C2167 C2183 1.349 . S
C2168 C2166 1.327 . S
C2168 C2187 1.429 . S
C2168 H2192 0.950 . S
C2169 C2186 1.574 . S
C2169 C2188 1.368 . S
C2169 H2193 0.949 . S
H2170 C2174 0.949 . S
C2171 C2172 1.349 . S
C2171 C2173 1.327 . S
C2171 H2194 0.950 . S
C2172 C2171 1.349 . S
C2172 C2184 1.349 . S
C2173 C2171 1.327 . S
C2173 C2189 1.429 . S
C2173 H2195 0.950 . S
C2174 H2170 0.949 . S
C2174 C2182 1.574 . S
C2174 C2190 1.368 . S
H2175 C2183 0.950 . S
H2176 C2181 0.950 . S
H2177 C2182 0.949 . S
H2178 C2184 0.950 . S
H2179 C2185 0.950 . S
H2180 C2186 0.949 . S
C2181 H2176 0.950 . S
C2181 C2183 1.327 . S
C2181 C2187 1.429 . S
C2182 C2174 1.574 . S
C2182 H2177 0.949 . S
C2182 C2188 1.368 . S
C2183 C2167 1.349 . S
C2183 H2175 0.950 . S
C2183 C2181 1.327 . S
C2184 C2172 1.349 . S
C2184 H2178 0.950 . S
C2184 C2185 1.327 . S
C2185 H2179 0.950 . S
C2185 C2184 1.327 . S
C2185 C2189 1.429 . S
C2186 C2169 1.574 . S
C2186 H2180 0.949 . S
C2186 C2190 1.368 . S
C2187 C2168 1.429 . S
C2187 C2181 1.429 . S
C2187 C2188 1.523 . S
C2188 C2169 1.368 . S
C2188 C2182 1.368 . S
C2188 C2187 1.523 . S
C2189 C2173 1.429 . S
C2189 C2185 1.429 . S
C2189 C2190 1.523 . S
C2190 C2174 1.368 . S
C2190 C2186 1.368 . S
C2190 C2189 1.523 . S
H2191 C2166 0.950 . S
H2192 C2168 0.950 . S
H2193 C2169 0.949 . S
H2194 C2171 0.950 . S
H2195 C2173 0.950 . S
C2196 C2197 1.349 . S
C2196 C2198 1.327 . S
C2196 H2221 0.950 . S
C2197 C2196 1.349 . S
C2197 C2213 1.349 . S
C2198 C2196 1.327 . S
C2198 C2217 1.429 . S
C2198 H2222 0.950 . S
C2199 C2216 1.574 . S
C2199 C2218 1.368 . S
C2199 H2223 0.949 . S
H2200 C2204 0.949 . S
C2201 C2202 1.349 . S
C2201 C2203 1.327 . S
C2201 H2224 0.950 . S
C2202 C2201 1.349 . S
C2202 C2214 1.349 . S
C2203 C2201 1.327 . S
C2203 C2219 1.429 . S
C2203 H2225 0.950 . S
C2204 H2200 0.949 . S
C2204 C2212 1.574 . S
C2204 C2220 1.368 . S
H2205 C2213 0.950 . S
H2206 C2211 0.950 . S
H2207 C2212 0.949 . S
H2208 C2214 0.950 . S
H2209 C2215 0.950 . S
H2210 C2216 0.949 . S
C2211 H2206 0.950 . S
C2211 C2213 1.327 . S
C2211 C2217 1.429 . S
C2212 C2204 1.574 . S
C2212 H2207 0.949 . S
C2212 C2218 1.368 . S
C2213 C2197 1.349 . S
C2213 H2205 0.950 . S
C2213 C2211 1.327 . S
C2214 C2202 1.349 . S
C2214 H2208 0.950 . S
C2214 C2215 1.327 . S
C2215 H2209 0.950 . S
C2215 C2214 1.327 . S
C2215 C2219 1.429 . S
C2216 C2199 1.574 . S
C2216 H2210 0.949 . S
C2216 C2220 1.368 . S
C2217 C2198 1.429 . S
C2217 C2211 1.429 . S
C2217 C2218 1.523 . S
C2218 C2199 1.368 . S
C2218 C2212 1.368 . S
C2218 C2217 1.523 . S
C2219 C2203 1.429 . S
C2219 C2215 1.429 . S
C2219 C2220 1.523 . S
C2220 C2204 1.368 . S
C2220 C2216 1.368 . S
C2220 C2219 1.523 . S
H2221 C2196 0.950 . S
H2222 C2198 0.950 . S
H2223 C2199 0.949 . S
H2224 C2201 0.950 . S
H2225 C2203 0.950 . S
C2226 C2227 1.349 . S
C2226 C2228 1.327 . S
C2226 H2251 0.950 . S
C2227 C2226 1.349 . S
C2227 C2243 1.349 . S
C2228 C2226 1.327 . S
C2228 C2247 1.429 . S
C2228 H2252 0.950 . S
C2229 C2246 1.574 . S
C2229 C2248 1.368 . S
C2229 H2253 0.949 . S
H2230 C2234 0.949 . S
C2231 C2232 1.349 . S
C2231 C2233 1.327 . S
C2231 H2254 0.950 . S
C2232 C2231 1.349 . S
C2232 C2244 1.349 . S
C2233 C2231 1.327 . S
C2233 C2249 1.429 . S
C2233 H2255 0.950 . S
C2234 H2230 0.949 . S
C2234 C2242 1.574 . S
C2234 C2250 1.368 . S
H2235 C2243 0.950 . S
H2236 C2241 0.950 . S
H2237 C2242 0.949 . S
H2238 C2244 0.950 . S
H2239 C2245 0.950 . S
H2240 C2246 0.949 . S
C2241 H2236 0.950 . S
C2241 C2243 1.327 . S
C2241 C2247 1.429 . S
C2242 C2234 1.574 . S
C2242 H2237 0.949 . S
C2242 C2248 1.368 . S
C2243 C2227 1.349 . S
C2243 H2235 0.950 . S
C2243 C2241 1.327 . S
C2244 C2232 1.349 . S
C2244 H2238 0.950 . S
C2244 C2245 1.327 . S
C2245 H2239 0.950 . S
C2245 C2244 1.327 . S
C2245 C2249 1.429 . S
C2246 C2229 1.574 . S
C2246 H2240 0.949 . S
C2246 C2250 1.368 . S
C2247 C2228 1.429 . S
C2247 C2241 1.429 . S
C2247 C2248 1.523 . S
C2248 C2229 1.368 . S
C2248 C2242 1.368 . S
C2248 C2247 1.523 . S
C2249 C2233 1.429 . S
C2249 C2245 1.429 . S
C2249 C2250 1.523 . S
C2250 C2234 1.368 . S
C2250 C2246 1.368 . S
C2250 C2249 1.523 . S
H2251 C2226 0.950 . S
H2252 C2228 0.950 . S
H2253 C2229 0.949 . S
H2254 C2231 0.950 . S
H2255 C2233 0.950 . S
C2256 C2257 1.349 . S
C2256 C2258 1.327 . S
C2256 H2281 0.950 . S
C2257 C2256 1.349 . S
C2257 C2273 1.349 . S
C2258 C2256 1.327 . S
C2258 C2277 1.429 . S
C2258 H2282 0.950 . S
C2259 C2276 1.574 1_554 S
C2259 C2278 1.368 . S
C2259 H2283 0.949 . S
H2260 C2264 0.949 . S
C2261 C2262 1.349 . S
C2261 C2263 1.327 . S
C2261 H2284 0.950 . S
C2262 C2261 1.349 . S
C2262 C2274 1.349 . S
C2263 C2261 1.327 . S
C2263 C2279 1.429 . S
C2263 H2285 0.950 . S
C2264 H2260 0.949 . S
C2264 C2272 1.574 1_556 S
C2264 C2280 1.368 . S
H2265 C2273 0.950 . S
H2266 C2271 0.950 . S
H2267 C2272 0.949 . S
H2268 C2274 0.950 . S
H2269 C2275 0.950 . S
H2270 C2276 0.949 . S
C2271 H2266 0.950 . S
C2271 C2273 1.327 . S
C2271 C2277 1.429 . S
C2272 C2264 1.574 1_554 S
C2272 H2267 0.949 . S
C2272 C2278 1.368 . S
C2273 C2257 1.349 . S
C2273 H2265 0.950 . S
C2273 C2271 1.327 . S
C2274 C2262 1.349 . S
C2274 H2268 0.950 . S
C2274 C2275 1.327 . S
C2275 H2269 0.950 . S
C2275 C2274 1.327 . S
C2275 C2279 1.429 . S
C2276 C2259 1.574 1_556 S
C2276 H2270 0.949 . S
C2276 C2280 1.368 . S
C2277 C2258 1.429 . S
C2277 C2271 1.429 . S
C2277 C2278 1.523 . S
C2278 C2259 1.368 . S
C2278 C2272 1.368 . S
C2278 C2277 1.523 . S
C2279 C2263 1.429 . S
C2279 C2275 1.429 . S
C2279 C2280 1.523 . S
C2280 C2264 1.368 . S
C2280 C2276 1.368 . S
C2280 C2279 1.523 . S
H2281 C2256 0.950 . S
H2282 C2258 0.950 . S
H2283 C2259 0.949 . S
H2284 C2261 0.950 . S
H2285 C2263 0.950 . S
C2286 C2287 1.349 . S
C2286 C2288 1.327 . S
C2286 H2311 0.950 . S
C2287 C2286 1.349 . S
C2287 C2303 1.349 . S
C2288 C2286 1.327 . S
C2288 C2307 1.429 . S
C2288 H2312 0.950 . S
C2289 C2306 1.574 1_554 S
C2289 C2308 1.368 . S
C2289 H2313 0.949 . S
H2290 C2294 0.949 . S
C2291 C2292 1.349 . S
C2291 C2293 1.327 . S
C2291 H2314 0.950 . S
C2292 C2291 1.349 . S
C2292 C2304 1.349 . S
C2293 C2291 1.327 . S
C2293 C2309 1.429 . S
C2293 H2315 0.950 . S
C2294 H2290 0.949 . S
C2294 C2302 1.574 1_556 S
C2294 C2310 1.368 . S
H2295 C2303 0.950 . S
H2296 C2301 0.950 . S
H2297 C2302 0.949 . S
H2298 C2304 0.950 . S
H2299 C2305 0.950 . S
H2300 C2306 0.949 . S
C2301 H2296 0.950 . S
C2301 C2303 1.327 . S
C2301 C2307 1.429 . S
C2302 C2294 1.574 1_554 S
C2302 H2297 0.949 . S
C2302 C2308 1.368 . S
C2303 C2287 1.349 . S
C2303 H2295 0.950 . S
C2303 C2301 1.327 . S
C2304 C2292 1.349 . S
C2304 H2298 0.950 . S
C2304 C2305 1.327 . S
C2305 H2299 0.950 . S
C2305 C2304 1.327 . S
C2305 C2309 1.429 . S
C2306 C2289 1.574 1_556 S
C2306 H2300 0.949 . S
C2306 C2310 1.368 . S
C2307 C2288 1.429 . S
C2307 C2301 1.429 . S
C2307 C2308 1.523 . S
C2308 C2289 1.368 . S
C2308 C2302 1.368 . S
C2308 C2307 1.523 . S
C2309 C2293 1.429 . S
C2309 C2305 1.429 . S
C2309 C2310 1.523 . S
C2310 C2294 1.368 . S
C2310 C2306 1.368 . S
C2310 C2309 1.523 . S
H2311 C2286 0.950 . S
H2312 C2288 0.950 . S
H2313 C2289 0.949 . S
H2314 C2291 0.950 . S
H2315 C2293 0.950 . S
C2316 C2317 1.349 . S
C2316 C2318 1.327 . S
C2316 H2341 0.950 . S
C2317 C2316 1.349 . S
C2317 C2333 1.349 . S
C2318 C2316 1.327 . S
C2318 C2337 1.429 . S
C2318 H2342 0.950 . S
C2319 C2336 1.574 1_554 S
C2319 C2338 1.368 . S
C2319 H2343 0.949 . S
H2320 C2324 0.949 . S
C2321 C2322 1.349 . S
C2321 C2323 1.327 . S
C2321 H2344 0.950 . S
C2322 C2321 1.349 . S
C2322 C2334 1.349 . S
C2323 C2321 1.327 . S
C2323 C2339 1.429 . S
C2323 H2345 0.950 . S
C2324 H2320 0.949 . S
C2324 C2332 1.574 1_556 S
C2324 C2340 1.368 . S
H2325 C2333 0.950 . S
H2326 C2331 0.950 . S
H2327 C2332 0.949 . S
H2328 C2334 0.950 . S
H2329 C2335 0.950 . S
H2330 C2336 0.949 . S
C2331 H2326 0.950 . S
C2331 C2333 1.327 . S
C2331 C2337 1.429 . S
C2332 C2324 1.574 1_554 S
C2332 H2327 0.949 . S
C2332 C2338 1.368 . S
C2333 C2317 1.349 . S
C2333 H2325 0.950 . S
C2333 C2331 1.327 . S
C2334 C2322 1.349 . S
C2334 H2328 0.950 . S
C2334 C2335 1.327 . S
C2335 H2329 0.950 . S
C2335 C2334 1.327 . S
C2335 C2339 1.429 . S
C2336 C2319 1.574 1_556 S
C2336 H2330 0.949 . S
C2336 C2340 1.368 . S
C2337 C2318 1.429 . S
C2337 C2331 1.429 . S
C2337 C2338 1.523 . S
C2338 C2319 1.368 . S
C2338 C2332 1.368 . S
C2338 C2337 1.523 . S
C2339 C2323 1.429 . S
C2339 C2335 1.429 . S
C2339 C2340 1.523 . S
C2340 C2324 1.368 . S
C2340 C2336 1.368 . S
C2340 C2339 1.523 . S
H2341 C2316 0.950 . S
H2342 C2318 0.950 . S
H2343 C2319 0.949 . S
H2344 C2321 0.950 . S
H2345 C2323 0.950 . S
C2346 C2347 1.349 . S
C2346 C2348 1.327 . S
C2346 H2371 0.950 . S
C2347 C2346 1.349 . S
C2347 C2363 1.349 . S
C2348 C2346 1.327 . S
C2348 C2367 1.429 . S
C2348 H2372 0.950 . S
C2349 C2366 1.574 1_554 S
C2349 C2368 1.368 . S
C2349 H2373 0.949 . S
H2350 C2354 0.949 . S
C2351 C2352 1.349 . S
C2351 C2353 1.327 . S
C2351 H2374 0.950 . S
C2352 C2351 1.349 . S
C2352 C2364 1.349 . S
C2353 C2351 1.327 . S
C2353 C2369 1.429 . S
C2353 H2375 0.950 . S
C2354 H2350 0.949 . S
C2354 C2362 1.574 1_556 S
C2354 C2370 1.368 . S
H2355 C2363 0.950 . S
H2356 C2361 0.950 . S
H2357 C2362 0.949 . S
H2358 C2364 0.950 . S
H2359 C2365 0.950 . S
H2360 C2366 0.949 . S
C2361 H2356 0.950 . S
C2361 C2363 1.327 . S
C2361 C2367 1.429 . S
C2362 C2354 1.574 1_554 S
C2362 H2357 0.949 . S
C2362 C2368 1.368 . S
C2363 C2347 1.349 . S
C2363 H2355 0.950 . S
C2363 C2361 1.327 . S
C2364 C2352 1.349 . S
C2364 H2358 0.950 . S
C2364 C2365 1.327 . S
C2365 H2359 0.950 . S
C2365 C2364 1.327 . S
C2365 C2369 1.429 . S
C2366 C2349 1.574 1_556 S
C2366 H2360 0.949 . S
C2366 C2370 1.368 . S
C2367 C2348 1.429 . S
C2367 C2361 1.429 . S
C2367 C2368 1.523 . S
C2368 C2349 1.368 . S
C2368 C2362 1.368 . S
C2368 C2367 1.523 . S
C2369 C2353 1.429 . S
C2369 C2365 1.429 . S
C2369 C2370 1.523 . S
C2370 C2354 1.368 . S
C2370 C2366 1.368 . S
C2370 C2369 1.523 . S
H2371 C2346 0.950 . S
H2372 C2348 0.950 . S
H2373 C2349 0.949 . S
H2374 C2351 0.950 . S
H2375 C2353 0.950 . S
C2376 C2377 1.349 . S
C2376 C2378 1.327 . S
C2376 H2401 0.950 . S
C2377 C2376 1.349 . S
C2377 C2393 1.349 . S
C2378 C2376 1.327 . S
C2378 C2397 1.429 . S
C2378 H2402 0.950 . S
C2379 C2396 1.574 1_554 S
C2379 C2398 1.368 . S
C2379 H2403 0.949 . S
H2380 C2384 0.949 . S
C2381 C2382 1.349 . S
C2381 C2383 1.327 . S
C2381 H2404 0.950 . S
C2382 C2381 1.349 . S
C2382 C2394 1.349 . S
C2383 C2381 1.327 . S
C2383 C2399 1.429 . S
C2383 H2405 0.950 . S
C2384 H2380 0.949 . S
C2384 C2392 1.574 1_556 S
C2384 C2400 1.368 . S
H2385 C2393 0.950 . S
H2386 C2391 0.950 . S
H2387 C2392 0.949 . S
H2388 C2394 0.950 . S
H2389 C2395 0.950 . S
H2390 C2396 0.949 . S
C2391 H2386 0.950 . S
C2391 C2393 1.327 . S
C2391 C2397 1.429 . S
C2392 C2384 1.574 1_554 S
C2392 H2387 0.949 . S
C2392 C2398 1.368 . S
C2393 C2377 1.349 . S
C2393 H2385 0.950 . S
C2393 C2391 1.327 . S
C2394 C2382 1.349 . S
C2394 H2388 0.950 . S
C2394 C2395 1.327 . S
C2395 H2389 0.950 . S
C2395 C2394 1.327 . S
C2395 C2399 1.429 . S
C2396 C2379 1.574 1_556 S
C2396 H2390 0.949 . S
C2396 C2400 1.368 . S
C2397 C2378 1.429 . S
C2397 C2391 1.429 . S
C2397 C2398 1.523 . S
C2398 C2379 1.368 . S
C2398 C2392 1.368 . S
C2398 C2397 1.523 . S
C2399 C2383 1.429 . S
C2399 C2395 1.429 . S
C2399 C2400 1.523 . S
C2400 C2384 1.368 . S
C2400 C2396 1.368 . S
C2400 C2399 1.523 . S
H2401 C2376 0.950 . S
H2402 C2378 0.950 . S
H2403 C2379 0.949 . S
H2404 C2381 0.950 . S
H2405 C2383 0.950 . S
C2406 C2407 1.349 . S
C2406 C2408 1.327 . S
C2406 H2431 0.950 . S
C2407 C2406 1.349 . S
C2407 C2423 1.349 . S
C2408 C2406 1.327 . S
C2408 C2427 1.429 . S
C2408 H2432 0.950 . S
C2409 C2426 1.574 1_556 S
C2409 C2428 1.368 . S
C2409 H2433 0.949 . S
H2410 C2414 0.949 . S
C2411 C2412 1.349 . S
C2411 C2413 1.327 . S
C2411 H2434 0.950 . S
C2412 C2411 1.349 . S
C2412 C2424 1.349 . S
C2413 C2411 1.327 . S
C2413 C2429 1.429 . S
C2413 H2435 0.950 . S
C2414 H2410 0.949 . S
C2414 C2422 1.574 1_554 S
C2414 C2430 1.368 . S
H2415 C2423 0.950 . S
H2416 C2421 0.950 . S
H2417 C2422 0.949 . S
H2418 C2424 0.950 . S
H2419 C2425 0.950 . S
H2420 C2426 0.949 . S
C2421 H2416 0.950 . S
C2421 C2423 1.327 . S
C2421 C2427 1.429 . S
C2422 C2414 1.574 1_556 S
C2422 H2417 0.949 . S
C2422 C2428 1.368 . S
C2423 C2407 1.349 . S
C2423 H2415 0.950 . S
C2423 C2421 1.327 . S
C2424 C2412 1.349 . S
C2424 H2418 0.950 . S
C2424 C2425 1.327 . S
C2425 H2419 0.950 . S
C2425 C2424 1.327 . S
C2425 C2429 1.429 . S
C2426 C2409 1.574 1_554 S
C2426 H2420 0.949 . S
C2426 C2430 1.368 . S
C2427 C2408 1.429 . S
C2427 C2421 1.429 . S
C2427 C2428 1.523 . S
C2428 C2409 1.368 . S
C2428 C2422 1.368 . S
C2428 C2427 1.523 . S
C2429 C2413 1.429 . S
C2429 C2425 1.429 . S
C2429 C2430 1.523 . S
C2430 C2414 1.368 . S
C2430 C2426 1.368 . S
C2430 C2429 1.523 . S
H2431 C2406 0.950 . S
H2432 C2408 0.950 . S
H2433 C2409 0.949 . S
H2434 C2411 0.950 . S
H2435 C2413 0.950 . S
C2436 C2437 1.349 . S
C2436 C2438 1.327 . S
C2436 H2461 0.950 . S
C2437 C2436 1.349 . S
C2437 C2453 1.349 . S
C2438 C2436 1.327 . S
C2438 C2457 1.429 . S
C2438 H2462 0.950 . S
C2439 C2456 1.574 . S
C2439 C2458 1.368 . S
C2439 H2463 0.949 . S
H2440 C2444 0.949 . S
C2441 C2442 1.349 . S
C2441 C2443 1.327 . S
C2441 H2464 0.950 . S
C2442 C2441 1.349 . S
C2442 C2454 1.349 . S
C2443 C2441 1.327 . S
C2443 C2459 1.429 . S
C2443 H2465 0.950 . S
C2444 H2440 0.949 . S
C2444 C2452 1.574 . S
C2444 C2460 1.368 . S
H2445 C2453 0.950 . S
H2446 C2451 0.950 . S
H2447 C2452 0.949 . S
H2448 C2454 0.950 . S
H2449 C2455 0.950 . S
H2450 C2456 0.949 . S
C2451 H2446 0.950 . S
C2451 C2453 1.327 . S
C2451 C2457 1.429 . S
C2452 C2444 1.574 . S
C2452 H2447 0.949 . S
C2452 C2458 1.368 . S
C2453 C2437 1.349 . S
C2453 H2445 0.950 . S
C2453 C2451 1.327 . S
C2454 C2442 1.349 . S
C2454 H2448 0.950 . S
C2454 C2455 1.327 . S
C2455 H2449 0.950 . S
C2455 C2454 1.327 . S
C2455 C2459 1.429 . S
C2456 C2439 1.574 . S
C2456 H2450 0.949 . S
C2456 C2460 1.368 . S
C2457 C2438 1.429 . S
C2457 C2451 1.429 . S
C2457 C2458 1.523 . S
C2458 C2439 1.368 . S
C2458 C2452 1.368 . S
C2458 C2457 1.523 . S
C2459 C2443 1.429 . S
C2459 C2455 1.429 . S
C2459 C2460 1.523 . S
C2460 C2444 1.368 . S
C2460 C2456 1.368 . S
C2460 C2459 1.523 . S
H2461 C2436 0.950 . S
H2462 C2438 0.950 . S
H2463 C2439 0.949 . S
H2464 C2441 0.950 . S
H2465 C2443 0.950 . S
C2466 C2467 1.349 . S
C2466 C2468 1.327 . S
C2466 H2491 0.950 . S
C2467 C2466 1.349 . S
C2467 C2483 1.349 . S
C2468 C2466 1.327 . S
C2468 C2487 1.429 . S
C2468 H2492 0.950 . S
C2469 C2486 1.574 . S
C2469 C2488 1.368 . S
C2469 H2493 0.949 . S
H2470 C2474 0.949 . S
C2471 C2472 1.349 . S
C2471 C2473 1.327 . S
C2471 H2494 0.950 . S
C2472 C2471 1.349 . S
C2472 C2484 1.349 . S
C2473 C2471 1.327 . S
C2473 C2489 1.429 . S
C2473 H2495 0.950 . S
C2474 H2470 0.949 . S
C2474 C2482 1.574 . S
C2474 C2490 1.368 . S
H2475 C2483 0.950 . S
H2476 C2481 0.950 . S
H2477 C2482 0.949 . S
H2478 C2484 0.950 . S
H2479 C2485 0.950 . S
H2480 C2486 0.949 . S
C2481 H2476 0.950 . S
C2481 C2483 1.327 . S
C2481 C2487 1.429 . S
C2482 C2474 1.574 . S
C2482 H2477 0.949 . S
C2482 C2488 1.368 . S
C2483 C2467 1.349 . S
C2483 H2475 0.950 . S
C2483 C2481 1.327 . S
C2484 C2472 1.349 . S
C2484 H2478 0.950 . S
C2484 C2485 1.327 . S
C2485 H2479 0.950 . S
C2485 C2484 1.327 . S
C2485 C2489 1.429 . S
C2486 C2469 1.574 . S
C2486 H2480 0.949 . S
C2486 C2490 1.368 . S
C2487 C2468 1.429 . S
C2487 C2481 1.429 . S
C2487 C2488 1.523 . S
C2488 C2469 1.368 . S
C2488 C2482 1.368 . S
C2488 C2487 1.523 . S
C2489 C2473 1.429 . S
C2489 C2485 1.429 . S
C2489 C2490 1.523 . S
C2490 C2474 1.368 . S
C2490 C2486 1.368 . S
C2490 C2489 1.523 . S
H2491 C2466 0.950 . S
H2492 C2468 0.950 . S
H2493 C2469 0.949 . S
H2494 C2471 0.950 . S
H2495 C2473 0.950 . S
C2496 C2497 1.349 . S
C2496 C2498 1.327 . S
C2496 H2521 0.950 . S
C2497 C2496 1.349 . S
C2497 C2513 1.349 . S
C2498 C2496 1.327 . S
C2498 C2517 1.429 . S
C2498 H2522 0.950 . S
C2499 C2516 1.574 . S
C2499 C2518 1.368 . S
C2499 H2523 0.949 . S
H2500 C2504 0.949 . S
C2501 C2502 1.349 . S
C2501 C2503 1.327 . S
C2501 H2524 0.950 . S
C2502 C2501 1.349 . S
C2502 C2514 1.349 . S
C2503 C2501 1.327 . S
C2503 C2519 1.429 . S
C2503 H2525 0.950 . S
C2504 H2500 0.949 . S
C2504 C2512 1.574 . S
C2504 C2520 1.368 . S
H2505 C2513 0.950 . S
H2506 C2511 0.950 . S
H2507 C2512 0.949 . S
H2508 C2514 0.950 . S
H2509 C2515 0.950 . S
H2510 C2516 0.949 . S
C2511 H2506 0.950 . S
C2511 C2513 1.327 . S
C2511 C2517 1.429 . S
C2512 C2504 1.574 . S
C2512 H2507 0.949 . S
C2512 C2518 1.368 . S
C2513 C2497 1.349 . S
C2513 H2505 0.950 . S
C2513 C2511 1.327 . S
C2514 C2502 1.349 . S
C2514 H2508 0.950 . S
C2514 C2515 1.327 . S
C2515 H2509 0.950 . S
C2515 C2514 1.327 . S
C2515 C2519 1.429 . S
C2516 C2499 1.574 . S
C2516 H2510 0.949 . S
C2516 C2520 1.368 . S
C2517 C2498 1.429 . S
C2517 C2511 1.429 . S
C2517 C2518 1.523 . S
C2518 C2499 1.368 . S
C2518 C2512 1.368 . S
C2518 C2517 1.523 . S
C2519 C2503 1.429 . S
C2519 C2515 1.429 . S
C2519 C2520 1.523 . S
C2520 C2504 1.368 . S
C2520 C2516 1.368 . S
C2520 C2519 1.523 . S
H2521 C2496 0.950 . S
H2522 C2498 0.950 . S
H2523 C2499 0.949 . S
H2524 C2501 0.950 . S
H2525 C2503 0.950 . S
C2526 C2527 1.349 . S
C2526 C2528 1.327 . S
C2526 H2551 0.950 . S
C2527 C2526 1.349 . S
C2527 C2543 1.349 . S
C2528 C2526 1.327 . S
C2528 C2547 1.429 . S
C2528 H2552 0.950 . S
C2529 C2546 1.574 . S
C2529 C2548 1.368 . S
C2529 H2553 0.949 . S
H2530 C2534 0.949 . S
C2531 C2532 1.349 . S
C2531 C2533 1.327 . S
C2531 H2554 0.950 . S
C2532 C2531 1.349 . S
C2532 C2544 1.349 . S
C2533 C2531 1.327 . S
C2533 C2549 1.429 . S
C2533 H2555 0.950 . S
C2534 H2530 0.949 . S
C2534 C2542 1.574 . S
C2534 C2550 1.368 . S
H2535 C2543 0.950 . S
H2536 C2541 0.950 . S
H2537 C2542 0.949 . S
H2538 C2544 0.950 . S
H2539 C2545 0.950 . S
H2540 C2546 0.949 . S
C2541 H2536 0.950 . S
C2541 C2543 1.327 . S
C2541 C2547 1.429 . S
C2542 C2534 1.574 . S
C2542 H2537 0.949 . S
C2542 C2548 1.368 . S
C2543 C2527 1.349 . S
C2543 H2535 0.950 . S
C2543 C2541 1.327 . S
C2544 C2532 1.349 . S
C2544 H2538 0.950 . S
C2544 C2545 1.327 . S
C2545 H2539 0.950 . S
C2545 C2544 1.327 . S
C2545 C2549 1.429 . S
C2546 C2529 1.574 . S
C2546 H2540 0.949 . S
C2546 C2550 1.368 . S
C2547 C2528 1.429 . S
C2547 C2541 1.429 . S
C2547 C2548 1.523 . S
C2548 C2529 1.368 . S
C2548 C2542 1.368 . S
C2548 C2547 1.523 . S
C2549 C2533 1.429 . S
C2549 C2545 1.429 . S
C2549 C2550 1.523 . S
C2550 C2534 1.368 . S
C2550 C2546 1.368 . S
C2550 C2549 1.523 . S
H2551 C2526 0.950 . S
H2552 C2528 0.950 . S
H2553 C2529 0.949 . S
H2554 C2531 0.950 . S
H2555 C2533 0.950 . S
C2556 C2557 1.349 . S
C2556 C2558 1.327 . S
C2556 H2581 0.950 . S
C2557 C2556 1.349 . S
C2557 C2573 1.349 . S
C2558 C2556 1.327 . S
C2558 C2577 1.429 . S
C2558 H2582 0.950 . S
C2559 C2576 1.574 . S
C2559 C2578 1.368 . S
C2559 H2583 0.949 . S
H2560 C2564 0.949 . S
C2561 C2562 1.349 . S
C2561 C2563 1.327 . S
C2561 H2584 0.950 . S
C2562 C2561 1.349 . S
C2562 C2574 1.349 . S
C2563 C2561 1.327 . S
C2563 C2579 1.429 . S
C2563 H2585 0.950 . S
C2564 H2560 0.949 . S
C2564 C2572 1.574 . S
C2564 C2580 1.368 . S
H2565 C2573 0.950 . S
H2566 C2571 0.950 . S
H2567 C2572 0.949 . S
H2568 C2574 0.950 . S
H2569 C2575 0.950 . S
H2570 C2576 0.949 . S
C2571 H2566 0.950 . S
C2571 C2573 1.327 . S
C2571 C2577 1.429 . S
C2572 C2564 1.574 . S
C2572 H2567 0.949 . S
C2572 C2578 1.368 . S
C2573 C2557 1.349 . S
C2573 H2565 0.950 . S
C2573 C2571 1.327 . S
C2574 C2562 1.349 . S
C2574 H2568 0.950 . S
C2574 C2575 1.327 . S
C2575 H2569 0.950 . S
C2575 C2574 1.327 . S
C2575 C2579 1.429 . S
C2576 C2559 1.574 . S
C2576 H2570 0.949 . S
C2576 C2580 1.368 . S
C2577 C2558 1.429 . S
C2577 C2571 1.429 . S
C2577 C2578 1.523 . S
C2578 C2559 1.368 . S
C2578 C2572 1.368 . S
C2578 C2577 1.523 . S
C2579 C2563 1.429 . S
C2579 C2575 1.429 . S
C2579 C2580 1.523 . S
C2580 C2564 1.368 . S
C2580 C2576 1.368 . S
C2580 C2579 1.523 . S
H2581 C2556 0.950 . S
H2582 C2558 0.950 . S
H2583 C2559 0.949 . S
H2584 C2561 0.950 . S
H2585 C2563 0.950 . S
C2586 C2587 1.349 . S
C2586 C2588 1.327 . S
C2586 H2611 0.950 . S
C2587 C2586 1.349 . S
C2587 C2603 1.349 . S
C2588 C2586 1.327 . S
C2588 C2607 1.429 . S
C2588 H2612 0.950 . S
C2589 C2606 1.574 . S
C2589 C2608 1.368 . S
C2589 H2613 0.949 . S
H2590 C2594 0.949 . S
C2591 C2592 1.349 . S
C2591 C2593 1.327 . S
C2591 H2614 0.950 . S
C2592 C2591 1.349 . S
C2592 C2604 1.349 . S
C2593 C2591 1.327 . S
C2593 C2609 1.429 . S
C2593 H2615 0.950 . S
C2594 H2590 0.949 . S
C2594 C2602 1.574 . S
C2594 C2610 1.368 . S
H2595 C2603 0.950 . S
H2596 C2601 0.950 . S
H2597 C2602 0.949 . S
H2598 C2604 0.950 . S
H2599 C2605 0.950 . S
H2600 C2606 0.949 . S
C2601 H2596 0.950 . S
C2601 C2603 1.327 . S
C2601 C2607 1.429 . S
C2602 C2594 1.574 . S
C2602 H2597 0.949 . S
C2602 C2608 1.368 . S
C2603 C2587 1.349 . S
C2603 H2595 0.950 . S
C2603 C2601 1.327 . S
C2604 C2592 1.349 . S
C2604 H2598 0.950 . S
C2604 C2605 1.327 . S
C2605 H2599 0.950 . S
C2605 C2604 1.327 . S
C2605 C2609 1.429 . S
C2606 C2589 1.574 . S
C2606 H2600 0.949 . S
C2606 C2610 1.368 . S
C2607 C2588 1.429 . S
C2607 C2601 1.429 . S
C2607 C2608 1.523 . S
C2608 C2589 1.368 . S
C2608 C2602 1.368 . S
C2608 C2607 1.523 . S
C2609 C2593 1.429 . S
C2609 C2605 1.429 . S
C2609 C2610 1.523 . S
C2610 C2594 1.368 . S
C2610 C2606 1.368 . S
C2610 C2609 1.523 . S
H2611 C2586 0.950 . S
H2612 C2588 0.950 . S
H2613 C2589 0.949 . S
H2614 C2591 0.950 . S
H2615 C2593 0.950 . S
C817 C5 0.616 . S
C822 C107 0.616 . S
C847 C141 0.616 . S
C852 C39 0.616 . S
C877 C175 0.616 . S
C882 C73 0.616 . S
C907 C311 0.616 . S
C912 C209 0.616 . S
C937 C243 0.616 . S
C942 C345 0.616 . S
C967 C277 0.616 . S
C972 C379 0.616 . S
C997 C515 0.616 . S
C1002 C413 0.616 . S
C1027 C549 0.616 . S
C1032 C447 0.616 . S
C1057 C583 0.616 . S
C1062 C481 0.616 . S
C1087 C719 0.616 . S
C1092 C617 0.616 . S
C1117 C651 0.616 . S
C1122 C753 0.616 . S
C1147 C787 0.616 . S
C1152 C685 0.616 . S
C1177 C281 1.805 . S
C1182 C9 1.805 . S
C1207 C43 1.805 . S
C1212 C315 1.805 . S
C1237 C77 1.805 . S
C1242 C349 1.805 . S
C1267 C111 1.805 . S
C1272 C383 1.805 . S
C1297 C145 1.805 . S
C1302 C213 1.805 . S
C1327 C247 1.805 . S
C1332 C179 1.805 . S
C1357 C417 1.805 . S
C1362 C689 1.805 . S
C1387 C723 1.805 . S
C1392 C451 1.805 . S
C1417 C757 1.805 . S
C1422 C485 1.805 . S
C1447 C519 1.805 . S
C1452 C791 1.805 . S
C1477 C621 1.805 . S
C1482 C553 1.805 . S
C1507 C655 1.805 . S
C1512 C587 1.805 . S
C1537 C33 0.772 . S
C1542 C271 0.772 . S
C1567 C67 0.772 . S
C1572 C305 0.772 . S
C1597 C339 0.772 . S
C1602 C101 0.772 . S
C1627 C135 0.772 . S
C1632 C373 0.772 . S
C1657 C407 0.772 . S
C1662 C169 0.772 . S
C1687 C237 0.772 . S
C1692 C203 0.772 . S
C1717 C441 0.772 . S
C1722 C679 0.772 . S
C1747 C475 0.772 . S
C1752 C713 0.772 . S
C1777 C509 0.772 . S
C1782 C747 0.772 . S
C1807 C543 0.772 . S
C1812 C781 0.772 . S
C1837 C577 0.772 . S
C1842 C815 0.772 . S
C1867 C645 0.772 . S
C1872 C611 0.772 . S
C1897 C2 0.952 . S
C1902 C342 0.952 . S
C1927 C376 0.952 . S
C1932 C36 0.952 . S
C1957 C206 0.952 . S
C1962 C70 0.952 . S
C1987 C240 0.952 . S
C1992 C104 0.952 . S
C2017 C138 0.952 . S
C2022 C274 0.952 . S
C2047 C172 0.952 . S
C2052 C308 0.952 . S
C2077 C410 0.952 . S
C2082 C750 0.952 . S
C2107 C784 0.952 . S
C2112 C444 0.952 . S
C2137 C614 0.952 . S
C2142 C478 0.952 . S
C2167 C512 0.952 . S
C2172 C648 0.952 . S
C2197 C546 0.952 . S
C2202 C682 0.952 . S
C2227 C716 0.952 . S
C2232 C580 0.952 . S
C2257 C20 1.387 . S
C2262 C530 1.387 . S
C2287 C54 1.387 . S
C2292 C564 1.387 . S
C2317 C88 1.387 . S
C2322 C598 1.387 . S
C2347 C122 1.387 . S
C2352 C428 1.387 . S
C2377 C156 1.387 . S
C2382 C462 1.387 . S
C2407 C496 1.387 . S
C2412 C190 1.387 . S
C2437 C224 1.387 . S
C2442 C734 1.387 . S
C2467 C258 1.387 . S
C2472 C768 1.387 . S
C2497 C292 1.387 . S
C2502 C802 1.387 . S
C2527 C326 1.387 . S
C2532 C632 1.387 . S
C2557 C360 1.387 . S
C2562 C666 1.387 . S
C2587 C700 1.387 . S
C2592 C394 1.387 . S
