# Generated by pormake.
# Topology som, (6)-cn, num edge types: 1
# Building blocks:
#     Node 0, Type 0, BuildingBlock: CUWYAW_clean_sbu_0, # of connection points: 6
#     Node 1, Type 0, BuildingBlock: CUWYAW_clean_sbu_0, # of connection points: 6
#     Node 2, Type 0, BuildingBlock: CUWYAW_clean_sbu_0, # of connection points: 6
#     Node 3, Type 0, BuildingBlock: CUWYAW_clean_sbu_0, # of connection points: 6
#     Node 4, Type 0, BuildingBlock: CUWYAW_clean_sbu_0, # of connection points: 6
#     Node 5, Type 0, BuildingBlock: CUWYAW_clean_sbu_0, # of connection points: 6
#     Node 6, Type 0, BuildingBlock: CUWYAW_clean_sbu_0, # of connection points: 6
#     Node 7, Type 0, BuildingBlock: CUWYAW_clean_sbu_0, # of connection points: 6
#     Node 8, Type 0, BuildingBlock: CUWYAW_clean_sbu_0, # of connection points: 6
#     Node 9, Type 0, BuildingBlock: CUWYAW_clean_sbu_0, # of connection points: 6
#     Node 10, Type 0, BuildingBlock: CUWYAW_clean_sbu_0, # of connection points: 6
#     Node 11, Type 0, BuildingBlock: CUWYAW_clean_sbu_0, # of connection points: 6
#     Node 12, Type 0, BuildingBlock: CUWYAW_clean_sbu_0, # of connection points: 6
#     Node 13, Type 0, BuildingBlock: CUWYAW_clean_sbu_0, # of connection points: 6
#     Node 14, Type 0, BuildingBlock: CUWYAW_clean_sbu_0, # of connection points: 6
#     Node 15, Type 0, BuildingBlock: CUWYAW_clean_sbu_0, # of connection points: 6
#     Node 16, Type 0, BuildingBlock: CUWYAW_clean_sbu_0, # of connection points: 6
#     Node 17, Type 0, BuildingBlock: CUWYAW_clean_sbu_0, # of connection points: 6
#     Node 18, Type 0, BuildingBlock: CUWYAW_clean_sbu_0, # of connection points: 6
#     Node 19, Type 0, BuildingBlock: CUWYAW_clean_sbu_0, # of connection points: 6
#     Node 20, Type 0, BuildingBlock: CUWYAW_clean_sbu_0, # of connection points: 6
#     Node 21, Type 0, BuildingBlock: CUWYAW_clean_sbu_0, # of connection points: 6
#     Node 22, Type 0, BuildingBlock: CUWYAW_clean_sbu_0, # of connection points: 6
#     Node 23, Type 0, BuildingBlock: CUWYAW_clean_sbu_0, # of connection points: 6
#     Node 24, Type 0, BuildingBlock: CUWYAW_clean_sbu_0, # of connection points: 6
#     Node 25, Type 0, BuildingBlock: CUWYAW_clean_sbu_0, # of connection points: 6
#     Node 26, Type 0, BuildingBlock: CUWYAW_clean_sbu_0, # of connection points: 6
#     Node 27, Type 0, BuildingBlock: CUWYAW_clean_sbu_0, # of connection points: 6
#     Node 28, Type 0, BuildingBlock: CUWYAW_clean_sbu_0, # of connection points: 6
#     Node 29, Type 0, BuildingBlock: CUWYAW_clean_sbu_0, # of connection points: 6
#     Node 30, Type 0, BuildingBlock: CUWYAW_clean_sbu_0, # of connection points: 6
#     Node 31, Type 0, BuildingBlock: CUWYAW_clean_sbu_0, # of connection points: 6
#     Edge 32, Type (0, 0), BuildingBlock: XIVTED_clean_linker_0, # of connection points: 2
#     Edge 33, Type (0, 0), BuildingBlock: XIVTED_clean_linker_0, # of connection points: 2
#     Edge 34, Type (0, 0), BuildingBlock: XIVTED_clean_linker_0, # of connection points: 2
#     Edge 35, Type (0, 0), BuildingBlock: XIVTED_clean_linker_0, # of connection points: 2
#     Edge 36, Type (0, 0), BuildingBlock: XIVTED_clean_linker_0, # of connection points: 2
#     Edge 37, Type (0, 0), BuildingBlock: XIVTED_clean_linker_0, # of connection points: 2
#     Edge 38, Type (0, 0), BuildingBlock: XIVTED_clean_linker_0, # of connection points: 2
#     Edge 39, Type (0, 0), BuildingBlock: XIVTED_clean_linker_0, # of connection points: 2
#     Edge 40, Type (0, 0), BuildingBlock: XIVTED_clean_linker_0, # of connection points: 2
#     Edge 41, Type (0, 0), BuildingBlock: XIVTED_clean_linker_0, # of connection points: 2
#     Edge 42, Type (0, 0), BuildingBlock: XIVTED_clean_linker_0, # of connection points: 2
#     Edge 43, Type (0, 0), BuildingBlock: XIVTED_clean_linker_0, # of connection points: 2
#     Edge 44, Type (0, 0), BuildingBlock: XIVTED_clean_linker_0, # of connection points: 2
#     Edge 45, Type (0, 0), BuildingBlock: XIVTED_clean_linker_0, # of connection points: 2
#     Edge 46, Type (0, 0), BuildingBlock: XIVTED_clean_linker_0, # of connection points: 2
#     Edge 47, Type (0, 0), BuildingBlock: XIVTED_clean_linker_0, # of connection points: 2
#     Edge 48, Type (0, 0), BuildingBlock: XIVTED_clean_linker_0, # of connection points: 2
#     Edge 49, Type (0, 0), BuildingBlock: XIVTED_clean_linker_0, # of connection points: 2
#     Edge 50, Type (0, 0), BuildingBlock: XIVTED_clean_linker_0, # of connection points: 2
#     Edge 51, Type (0, 0), BuildingBlock: XIVTED_clean_linker_0, # of connection points: 2
#     Edge 52, Type (0, 0), BuildingBlock: XIVTED_clean_linker_0, # of connection points: 2
#     Edge 53, Type (0, 0), BuildingBlock: XIVTED_clean_linker_0, # of connection points: 2
#     Edge 54, Type (0, 0), BuildingBlock: XIVTED_clean_linker_0, # of connection points: 2
#     Edge 55, Type (0, 0), BuildingBlock: XIVTED_clean_linker_0, # of connection points: 2
#     Edge 56, Type (0, 0), BuildingBlock: XIVTED_clean_linker_0, # of connection points: 2
#     Edge 57, Type (0, 0), BuildingBlock: XIVTED_clean_linker_0, # of connection points: 2
#     Edge 58, Type (0, 0), BuildingBlock: XIVTED_clean_linker_0, # of connection points: 2
#     Edge 59, Type (0, 0), BuildingBlock: XIVTED_clean_linker_0, # of connection points: 2
#     Edge 60, Type (0, 0), BuildingBlock: XIVTED_clean_linker_0, # of connection points: 2
#     Edge 61, Type (0, 0), BuildingBlock: XIVTED_clean_linker_0, # of connection points: 2
#     Edge 62, Type (0, 0), BuildingBlock: XIVTED_clean_linker_0, # of connection points: 2
#     Edge 63, Type (0, 0), BuildingBlock: XIVTED_clean_linker_0, # of connection points: 2
#     Edge 64, Type (0, 0), BuildingBlock: XIVTED_clean_linker_0, # of connection points: 2
#     Edge 65, Type (0, 0), BuildingBlock: XIVTED_clean_linker_0, # of connection points: 2
#     Edge 66, Type (0, 0), BuildingBlock: XIVTED_clean_linker_0, # of connection points: 2
#     Edge 67, Type (0, 0), BuildingBlock: XIVTED_clean_linker_0, # of connection points: 2
#     Edge 68, Type (0, 0), BuildingBlock: XIVTED_clean_linker_0, # of connection points: 2
#     Edge 69, Type (0, 0), BuildingBlock: XIVTED_clean_linker_0, # of connection points: 2
#     Edge 70, Type (0, 0), BuildingBlock: XIVTED_clean_linker_0, # of connection points: 2
#     Edge 71, Type (0, 0), BuildingBlock: XIVTED_clean_linker_0, # of connection points: 2
#     Edge 72, Type (0, 0), BuildingBlock: XIVTED_clean_linker_0, # of connection points: 2
#     Edge 73, Type (0, 0), BuildingBlock: XIVTED_clean_linker_0, # of connection points: 2
#     Edge 74, Type (0, 0), BuildingBlock: XIVTED_clean_linker_0, # of connection points: 2
#     Edge 75, Type (0, 0), BuildingBlock: XIVTED_clean_linker_0, # of connection points: 2
#     Edge 76, Type (0, 0), BuildingBlock: XIVTED_clean_linker_0, # of connection points: 2
#     Edge 77, Type (0, 0), BuildingBlock: XIVTED_clean_linker_0, # of connection points: 2
#     Edge 78, Type (0, 0), BuildingBlock: XIVTED_clean_linker_0, # of connection points: 2
#     Edge 79, Type (0, 0), BuildingBlock: XIVTED_clean_linker_0, # of connection points: 2
#     Edge 80, Type (0, 0), BuildingBlock: XIVTED_clean_linker_0, # of connection points: 2
#     Edge 81, Type (0, 0), BuildingBlock: XIVTED_clean_linker_0, # of connection points: 2
#     Edge 82, Type (0, 0), BuildingBlock: XIVTED_clean_linker_0, # of connection points: 2
#     Edge 83, Type (0, 0), BuildingBlock: XIVTED_clean_linker_0, # of connection points: 2
#     Edge 84, Type (0, 0), BuildingBlock: XIVTED_clean_linker_0, # of connection points: 2
#     Edge 85, Type (0, 0), BuildingBlock: XIVTED_clean_linker_0, # of connection points: 2
#     Edge 86, Type (0, 0), BuildingBlock: XIVTED_clean_linker_0, # of connection points: 2
#     Edge 87, Type (0, 0), BuildingBlock: XIVTED_clean_linker_0, # of connection points: 2
#     Edge 88, Type (0, 0), BuildingBlock: XIVTED_clean_linker_0, # of connection points: 2
#     Edge 89, Type (0, 0), BuildingBlock: XIVTED_clean_linker_0, # of connection points: 2
#     Edge 90, Type (0, 0), BuildingBlock: XIVTED_clean_linker_0, # of connection points: 2
#     Edge 91, Type (0, 0), BuildingBlock: XIVTED_clean_linker_0, # of connection points: 2
#     Edge 92, Type (0, 0), BuildingBlock: XIVTED_clean_linker_0, # of connection points: 2
#     Edge 93, Type (0, 0), BuildingBlock: XIVTED_clean_linker_0, # of connection points: 2
#     Edge 94, Type (0, 0), BuildingBlock: XIVTED_clean_linker_0, # of connection points: 2
#     Edge 95, Type (0, 0), BuildingBlock: XIVTED_clean_linker_0, # of connection points: 2
#     Edge 96, Type (0, 0), BuildingBlock: XIVTED_clean_linker_0, # of connection points: 2
#     Edge 97, Type (0, 0), BuildingBlock: XIVTED_clean_linker_0, # of connection points: 2
#     Edge 98, Type (0, 0), BuildingBlock: XIVTED_clean_linker_0, # of connection points: 2
#     Edge 99, Type (0, 0), BuildingBlock: XIVTED_clean_linker_0, # of connection points: 2
#     Edge 100, Type (0, 0), BuildingBlock: XIVTED_clean_linker_0, # of connection points: 2
#     Edge 101, Type (0, 0), BuildingBlock: XIVTED_clean_linker_0, # of connection points: 2
#     Edge 102, Type (0, 0), BuildingBlock: XIVTED_clean_linker_0, # of connection points: 2
#     Edge 103, Type (0, 0), BuildingBlock: XIVTED_clean_linker_0, # of connection points: 2
#     Edge 104, Type (0, 0), BuildingBlock: XIVTED_clean_linker_0, # of connection points: 2
#     Edge 105, Type (0, 0), BuildingBlock: XIVTED_clean_linker_0, # of connection points: 2
#     Edge 106, Type (0, 0), BuildingBlock: XIVTED_clean_linker_0, # of connection points: 2
#     Edge 107, Type (0, 0), BuildingBlock: XIVTED_clean_linker_0, # of connection points: 2
#     Edge 108, Type (0, 0), BuildingBlock: XIVTED_clean_linker_0, # of connection points: 2
#     Edge 109, Type (0, 0), BuildingBlock: XIVTED_clean_linker_0, # of connection points: 2
#     Edge 110, Type (0, 0), BuildingBlock: XIVTED_clean_linker_0, # of connection points: 2
#     Edge 111, Type (0, 0), BuildingBlock: XIVTED_clean_linker_0, # of connection points: 2
#     Edge 112, Type (0, 0), BuildingBlock: XIVTED_clean_linker_0, # of connection points: 2
#     Edge 113, Type (0, 0), BuildingBlock: XIVTED_clean_linker_0, # of connection points: 2
#     Edge 114, Type (0, 0), BuildingBlock: XIVTED_clean_linker_0, # of connection points: 2
#     Edge 115, Type (0, 0), BuildingBlock: XIVTED_clean_linker_0, # of connection points: 2
#     Edge 116, Type (0, 0), BuildingBlock: XIVTED_clean_linker_0, # of connection points: 2
#     Edge 117, Type (0, 0), BuildingBlock: XIVTED_clean_linker_0, # of connection points: 2
#     Edge 118, Type (0, 0), BuildingBlock: XIVTED_clean_linker_0, # of connection points: 2
#     Edge 119, Type (0, 0), BuildingBlock: XIVTED_clean_linker_0, # of connection points: 2
#     Edge 120, Type (0, 0), BuildingBlock: XIVTED_clean_linker_0, # of connection points: 2
#     Edge 121, Type (0, 0), BuildingBlock: XIVTED_clean_linker_0, # of connection points: 2
#     Edge 122, Type (0, 0), BuildingBlock: XIVTED_clean_linker_0, # of connection points: 2
#     Edge 123, Type (0, 0), BuildingBlock: XIVTED_clean_linker_0, # of connection points: 2
#     Edge 124, Type (0, 0), BuildingBlock: XIVTED_clean_linker_0, # of connection points: 2
#     Edge 125, Type (0, 0), BuildingBlock: XIVTED_clean_linker_0, # of connection points: 2
#     Edge 126, Type (0, 0), BuildingBlock: XIVTED_clean_linker_0, # of connection points: 2
#     Edge 127, Type (0, 0), BuildingBlock: XIVTED_clean_linker_0, # of connection points: 2
# Relax obj value: 0.050
# Max RMSD: 0.119
# Mean RMSD: 0.119
data_MOF--net-som--node1-CUWYAW_clean_sbu_0--edge1-XIVTED_clean_linker_0
_symmetry_space_group_name_H-M    P1
_symmetry_Int_Tables_number       1
_symmetry_cell_setting            triclinic
loop_
_symmetry_equiv_pos_as_xyz
'x, y, z'
_cell_length_a     25.980415
_cell_length_b     56.17387
_cell_length_c     110.88075
_cell_angle_alpha  89.97757
_cell_angle_beta   89.989799
_cell_angle_gamma 90.178612
loop_
_atom_site_label
_atom_site_type_symbol
_atom_site_fract_x
_atom_site_fract_y
_atom_site_fract_z
_atom_type_partial_charge
C0 C 0.18629 0.45556 0.08408 0.0
Eu1 Eu 0.09721 0.46995 0.07616 0.0
C2 C 0.24173 0.45779 0.08134 0.0
C3 C 0.26145 0.47736 0.07493 0.0
C4 C 0.31465 0.47978 0.0731 0.0
C5 C 0.34917 0.46268 0.07766 0.0
C6 C 0.32888 0.44287 0.08386 0.0
C7 C 0.2758 0.44049 0.08567 0.0
C8 C 0.06692 0.47584 0.05274 0.0
C9 C 0.08509 0.52753 0.0717 0.0
C10 C 0.89239 0.5099 0.07195 0.0
Eu11 Eu 0.98686 0.49542 0.07524 0.0
C12 C 0.83871 0.50136 0.07102 0.0
C13 C 0.82248 0.48012 0.07654 0.0
C14 C 0.77024 0.4737 0.07652 0.0
C15 C 0.73319 0.48842 0.07099 0.0
C16 C 0.75013 0.50934 0.0652 0.0
C17 C 0.80225 0.5157 0.06522 0.0
C18 C 0.03873 0.49491 0.09662 0.0
C19 C 0.99338 0.43802 0.07831 0.0
O20 O 0.1632 0.47484 0.08795 0.0
O21 O 0.15805 0.44316 0.07652 0.0
O22 O 0.10984 0.46588 0.05591 0.0
O23 O 0.04313 0.48181 0.06216 0.0
O24 O 0.11342 0.50987 0.0761 0.0
O25 O 0.03652 0.5248 0.06852 0.0
O26 O 0.9238 0.50496 0.06305 0.0
O27 O 0.91433 0.50813 0.08253 0.0
O28 O 1.01183 0.51295 0.09291 0.0
O29 O 0.03564 0.4782 0.08912 0.0
O30 O 0.96589 0.45668 0.07503 0.0
O31 O 0.04363 0.43914 0.08042 0.0
H32 H 0.2358 0.49097 0.07152 0.0
H33 H 0.32878 0.49537 0.06839 0.0
H34 H 0.35405 0.42914 0.08731 0.0
H35 H 0.26135 0.42522 0.09062 0.0
H36 H 0.84999 0.46878 0.08109 0.0
H37 H 0.75885 0.45729 0.08091 0.0
H38 H 0.7229 0.52131 0.061 0.0
H39 H 0.81392 0.53225 0.06098 0.0
C40 C 0.11234 0.76542 0.09131 0.0
Eu41 Eu 0.20626 0.75124 0.08702 0.0
C42 C 0.05747 0.75924 0.08966 0.0
C43 C 0.02362 0.7769 0.08559 0.0
C44 C 0.97076 0.77243 0.08485 0.0
C45 C 0.95043 0.75016 0.08823 0.0
C46 C 0.98461 0.73228 0.09208 0.0
C47 C 0.03765 0.73675 0.09277 0.0
C48 C 0.25288 0.74942 0.06509 0.0
C49 C 0.21457 0.69356 0.0828 0.0
C50 C 0.40366 0.71173 0.0847 0.0
Eu51 Eu 0.30956 0.72699 0.08758 0.0
C52 C 0.45836 0.71819 0.08631 0.0
C53 C 0.49248 0.70082 0.09056 0.0
C54 C 0.54522 0.70556 0.09132 0.0
C55 C 0.56512 0.72784 0.08782 0.0
C56 C 0.53063 0.74544 0.08379 0.0
C57 C 0.47771 0.74067 0.08305 0.0
C58 C 0.25807 0.72861 0.10898 0.0
C59 C 0.3052 0.78425 0.09037 0.0
O60 O 0.13934 0.75253 0.09883 0.0
O61 O 0.13841 0.77167 0.08173 0.0
O62 O 0.22572 0.76722 0.06892 0.0
O63 O 0.25267 0.73291 0.07284 0.0
O64 O 0.18496 0.71154 0.08623 0.0
O65 O 0.264 0.69648 0.08076 0.0
O66 O 0.37766 0.7229 0.07633 0.0
O67 O 0.37654 0.70779 0.09444 0.0
O68 O 0.28355 0.7102 0.10529 0.0
O69 O 0.26238 0.7453 0.10148 0.0
O70 O 0.33247 0.7656 0.08711 0.0
O71 O 0.2553 0.78265 0.09255 0.0
H72 H 0.03799 0.79443 0.08323 0.0
H73 H 0.94564 0.78672 0.082 0.0
H74 H 0.97036 0.71484 0.09459 0.0
H75 H 0.06294 0.72277 0.09591 0.0
H76 H 0.47842 0.68331 0.09304 0.0
H77 H 0.57056 0.69147 0.09431 0.0
H78 H 0.54454 0.76288 0.08117 0.0
H79 H 0.45213 0.75442 0.07977 0.0
C80 C 0.18884 0.76596 0.19832 0.0
Eu81 Eu 0.0954 0.75267 0.20405 0.0
C82 C 0.24366 0.75945 0.19959 0.0
C83 C 0.26421 0.75126 0.21055 0.0
C84 C 0.31715 0.7469 0.21164 0.0
C85 C 0.35055 0.75058 0.20179 0.0
C86 C 0.32941 0.75831 0.19078 0.0
C87 C 0.27663 0.76269 0.18971 0.0
C88 C 0.05587 0.75062 0.22675 0.0
C89 C 0.08628 0.69482 0.20755 0.0
C90 C 0.89741 0.71458 0.21076 0.0
Eu91 Eu 0.99091 0.72849 0.20557 0.0
C92 C 0.84272 0.72153 0.20975 0.0
C93 C 0.82216 0.73086 0.19902 0.0
C94 C 0.76925 0.73539 0.19807 0.0
C95 C 0.7359 0.73078 0.20782 0.0
C96 C 0.75703 0.72201 0.21862 0.0
C97 C 0.80978 0.71741 0.21955 0.0
C98 C 0.03474 0.72972 0.18324 0.0
C99 C 0.99649 0.78565 0.2015 0.0
O100 O 0.16021 0.75242 0.19145 0.0
O101 O 0.16458 0.77331 0.20795 0.0
O102 O 0.08236 0.76838 0.22256 0.0
O103 O 0.05339 0.73421 0.21899 0.0
O104 O 0.11419 0.71298 0.20357 0.0
O105 O 0.03845 0.69759 0.21117 0.0
O106 O 0.92632 0.72676 0.21822 0.0
O107 O 0.92156 0.70875 0.20084 0.0
O108 O 1.00855 0.71173 0.18732 0.0
O109 O 0.0341 0.7464 0.19081 0.0
O110 O 0.96986 0.7674 0.20568 0.0
O111 O 0.04558 0.78364 0.19853 0.0
H112 H 0.23953 0.7485 0.2183 0.0
H113 H 0.33191 0.74065 0.2202 0.0
H114 H 0.35384 0.76165 0.18304 0.0
H115 H 0.26165 0.7691 0.18119 0.0
H116 H 0.84677 0.73432 0.19133 0.0
H117 H 0.75446 0.74246 0.18967 0.0
H118 H 0.73257 0.71797 0.22627 0.0
H119 H 0.82473 0.71011 0.22789 0.0
C120 C 0.11449 0.45742 0.18838 0.0
Eu121 Eu 0.20849 0.47166 0.19281 0.0
C122 C 0.05961 0.46347 0.18998 0.0
C123 C 0.02529 0.44547 0.19354 0.0
C124 C 0.97249 0.44993 0.1943 0.0
C125 C 0.95268 0.47254 0.19148 0.0
C126 C 0.98732 0.49072 0.18812 0.0
C127 C 0.04031 0.48625 0.18739 0.0
C128 C 0.25443 0.47335 0.21484 0.0
C129 C 0.21714 0.52924 0.19711 0.0
C130 C 0.40627 0.5112 0.19568 0.0
Eu131 Eu 0.31209 0.49596 0.19253 0.0
C132 C 0.46099 0.50491 0.19408 0.0
C133 C 0.49551 0.52265 0.19033 0.0
C134 C 0.54819 0.51795 0.18952 0.0
C135 C 0.56766 0.49534 0.19247 0.0
C136 C 0.53277 0.4774 0.19603 0.0
C137 C 0.47989 0.48213 0.19682 0.0
C138 C 0.26143 0.49494 0.17103 0.0
C139 C 0.30693 0.43861 0.18979 0.0
O140 O 0.14176 0.47037 0.18092 0.0
O141 O 0.14026 0.45121 0.198 0.0
O142 O 0.22714 0.45559 0.21094 0.0
O143 O 0.25459 0.48992 0.20713 0.0
O144 O 0.18761 0.51127 0.19355 0.0
O145 O 0.26641 0.52636 0.19935 0.0
O146 O 0.37999 0.49968 0.20391 0.0
O147 O 0.37944 0.51546 0.18595 0.0
O148 O 0.28737 0.51314 0.1749 0.0
O149 O 0.26502 0.47796 0.1784 0.0
O150 O 0.33441 0.45735 0.19293 0.0
O151 O 0.25712 0.44012 0.18753 0.0
H152 H 0.03927 0.42773 0.19549 0.0
H153 H 0.94704 0.43541 0.19675 0.0
H154 H 0.97347 0.50842 0.18604 0.0
H155 H 0.066 0.50049 0.18466 0.0
H156 H 0.48178 0.54038 0.18825 0.0
H157 H 0.57383 0.53229 0.18691 0.0
H158 H 0.54632 0.45971 0.19822 0.0
H159 H 0.45398 0.4681 0.19971 0.0
C160 C 0.1408 0.46655 0.94792 0.0
Eu161 Eu 0.04649 0.47997 0.94368 0.0
C162 C 0.19489 0.47471 0.94765 0.0
C163 C 0.21624 0.48595 0.93747 0.0
C164 C 0.26892 0.49136 0.93709 0.0
C165 C 0.30122 0.48563 0.94687 0.0
C166 C 0.27916 0.47513 0.95718 0.0
C167 C 0.22665 0.4697 0.95754 0.0
C168 C 0.99519 0.47891 0.92229 0.0
C169 C 0.03744 0.53732 0.94038 0.0
C170 C 0.84728 0.51735 0.93354 0.0
Eu171 Eu 0.93516 0.50393 0.94249 0.0
C172 C 0.79164 0.51486 0.93563 0.0
C173 C 0.77218 0.50574 0.94649 0.0
C174 C 0.71893 0.5034 0.94818 0.0
C175 C 0.68431 0.51012 0.93901 0.0
C176 C 0.70433 0.51919 0.92814 0.0
C177 C 0.75743 0.52152 0.92648 0.0
C178 C 0.96481 0.49931 0.96595 0.0
C179 C 0.9499 0.44748 0.94912 0.0
O180 O 0.11083 0.47572 0.95618 0.0
O181 O 0.1174 0.46333 0.93759 0.0
O182 O 1.02286 0.4613 0.92623 0.0
O183 O 0.99716 0.49601 0.9296 0.0
O184 O 0.06686 0.51858 0.94233 0.0
O185 O 0.98657 0.5361 0.93941 0.0
O186 O 0.87151 0.49809 0.93006 0.0
O187 O 0.87338 0.52994 0.94143 0.0
O188 O 0.92118 0.50853 0.96266 0.0
O189 O 0.98938 0.49334 0.95662 0.0
O190 O 0.91962 0.46388 0.94418 0.0
O191 O 0.99862 0.45149 0.95172 0.0
H192 H 0.19256 0.49006 0.92971 0.0
H193 H 0.28459 0.49928 0.92898 0.0
H194 H 0.30257 0.47091 0.96497 0.0
H195 H 0.21099 0.46109 0.96549 0.0
H196 H 0.79812 0.50045 0.95365 0.0
H197 H 0.70489 0.49656 0.9567 0.0
H198 H 0.67899 0.52414 0.9208 0.0
H199 H 0.77185 0.52843 0.91799 0.0
C200 C 0.64716 0.25856 0.96444 0.0
Eu201 Eu 0.74045 0.24602 0.95852 0.0
C202 C 0.5928 0.25136 0.96311 0.0
C203 C 0.57505 0.23912 0.95288 0.0
C204 C 0.52254 0.23383 0.95159 0.0
C205 C 0.48691 0.24057 0.96054 0.0
C206 C 0.50529 0.25238 0.97088 0.0
C207 C 0.55763 0.25772 0.97213 0.0
C208 C 0.78655 0.2461 0.93645 0.0
C209 C 0.74967 0.18877 0.95395 0.0
C210 C 0.94007 0.20894 0.94707 0.0
Eu211 Eu 0.85234 0.22208 0.95625 0.0
C212 C 0.9958 0.21176 0.94904 0.0
C213 C 1.01537 0.22203 0.95963 0.0
C214 C 0.06863 0.22489 0.96115 0.0
C215 C 0.10319 0.21763 0.95207 0.0
C216 C 0.08307 0.2073 0.9415 0.0
C217 C 0.02997 0.20443 0.94002 0.0
C218 C 0.82644 0.22797 0.97999 0.0
C219 C 0.83739 0.27907 0.96121 0.0
O220 O 0.6763 0.24517 0.97126 0.0
O221 O 0.6709 0.2662 0.95476 0.0
O222 O 0.75746 0.26333 0.94026 0.0
O223 O 0.78735 0.2296 0.94411 0.0
O224 O 0.72025 0.20734 0.9564 0.0
O225 O 0.80049 0.19021 0.95283 0.0
O226 O 0.91526 0.22807 0.94364 0.0
O227 O 0.91451 0.19624 0.95502 0.0
O228 O 0.86938 0.21851 0.97642 0.0
O229 O 0.80082 0.23348 0.97077 0.0
O230 O 0.8655 0.2622 0.95604 0.0
O231 O 0.79067 0.27508 0.96542 0.0
H232 H 0.60162 0.23391 0.94584 0.0
H233 H 0.50985 0.22444 0.9436 0.0
H234 H 0.47904 0.25812 0.97788 0.0
H235 H 0.57055 0.26723 0.98008 0.0
H236 H 0.98948 0.22795 0.96667 0.0
H237 H 0.08266 0.23315 0.96934 0.0
H238 H 0.10841 0.20119 0.9344 0.0
H239 H 1.01552 0.19649 0.93177 0.0
C240 C 0.15386 0.25992 0.83654 0.0
Eu241 Eu 0.05931 0.24608 0.84043 0.0
C242 C 0.2077 0.25148 0.83634 0.0
C243 C 0.22752 0.23662 0.84541 0.0
C244 C 0.28006 0.23099 0.84564 0.0
C245 C 0.31381 0.24008 0.8368 0.0
C246 C 0.29323 0.25423 0.82751 0.0
C247 C 0.24084 0.25989 0.82731 0.0
C248 C 1.0067 0.24757 0.86163 0.0
C249 C 0.05114 0.18856 0.84386 0.0
C250 C 0.85985 0.20768 0.85023 0.0
Eu251 Eu 0.94852 0.22111 0.84155 0.0
C252 C 0.80439 0.21032 0.84786 0.0
C253 C 0.78632 0.22255 0.83769 0.0
C254 C 0.73328 0.22533 0.83582 0.0
C255 C 0.69742 0.21593 0.84411 0.0
C256 C 0.71605 0.20363 0.85427 0.0
C257 C 0.76896 0.20088 0.85611 0.0
C258 C 0.9791 0.22542 0.81814 0.0
C259 C 0.96185 0.27765 0.83465 0.0
O260 O 0.12314 0.25251 0.82795 0.0
O261 O 0.13104 0.26121 0.84705 0.0
O262 O 0.03404 0.26526 0.85757 0.0
O263 O 1.0096 0.23013 0.85454 0.0
O264 O 0.08003 0.20744 0.84161 0.0
O265 O 1.00036 0.18949 0.84506 0.0
O266 O 0.88422 0.22693 0.85377 0.0
O267 O 0.88635 0.19502 0.84248 0.0
O268 O 0.93588 0.21566 0.82142 0.0
O269 O 1.00316 0.23187 0.82746 0.0
O270 O 0.93196 0.26087 0.83946 0.0
O271 O 1.01116 0.27444 0.83241 0.0
H272 H 0.20272 0.22985 0.85249 0.0
H273 H 0.29447 0.22018 0.85298 0.0
H274 H 0.3177 0.26114 0.82041 0.0
H275 H 0.22638 0.27132 0.82021 0.0
H276 H 0.8132 0.23001 0.83123 0.0
H277 H 0.72039 0.23469 0.82784 0.0
H278 H 0.68979 0.1965 0.86095 0.0
H279 H 0.78226 0.19153 0.86407 0.0
C280 C 0.64343 0.46271 0.81891 0.0
Eu281 Eu 0.7367 0.47652 0.82433 0.0
C282 C 0.58863 0.4696 0.81974 0.0
C283 C 0.56639 0.47721 0.83063 0.0
C284 C 0.51335 0.48156 0.83134 0.0
C285 C 0.48147 0.47841 0.82118 0.0
C286 C 0.50432 0.47147 0.81023 0.0
C287 C 0.55721 0.46707 0.80954 0.0
C288 C 0.78035 0.47731 0.84666 0.0
C289 C 0.74206 0.53353 0.82888 0.0
C290 C 0.93466 0.51404 0.83192 0.0
Eu291 Eu 0.8415 0.50077 0.82597 0.0
C292 C 0.98969 0.50793 0.83061 0.0
C293 C 1.01127 0.50159 0.81945 0.0
C294 C 0.06441 0.49773 0.81841 0.0
C295 C 0.09698 0.50017 0.8285 0.0
C296 C 0.07481 0.50592 0.8397 0.0
C297 C 1.02184 0.50977 0.84073 0.0
C298 C 0.80175 0.4991 0.80328 0.0
C299 C 0.83241 0.44293 0.82224 0.0
O300 O 0.67272 0.47493 0.81154 0.0
O301 O 0.66709 0.45678 0.82888 0.0
O302 O 0.75388 0.45946 0.84254 0.0
O303 O 0.78008 0.49413 0.83916 0.0
O304 O 0.71546 0.51542 0.82454 0.0
O305 O 0.79125 0.53147 0.83176 0.0
O306 O 0.90627 0.49994 0.83856 0.0
O307 O 0.91032 0.5219 0.8224 0.0
O308 O 0.82918 0.5166 0.80742 0.0
O309 O 0.7993 0.48266 0.81103 0.0
O310 O 0.86044 0.46106 0.82623 0.0
O311 O 0.78446 0.4457 0.81871 0.0
H312 H 0.58973 0.47931 0.83866 0.0
H313 H 0.49716 0.4867 0.83995 0.0
H314 H 0.48131 0.46931 0.80216 0.0
H315 H 0.57349 0.46126 0.80104 0.0
H316 H 0.98729 0.50004 0.8115 0.0
H317 H 0.08012 0.49349 0.80962 0.0
H318 H 0.09842 0.5075 0.84771 0.0
H319 H 1.00602 0.51458 0.84943 0.0
C320 C 0.18782 0.95782 0.58733 0.0
Eu321 Eu 0.09394 0.97162 0.58259 0.0
C322 C 0.24273 0.9637 0.58538 0.0
C323 C 0.27613 0.94566 0.58155 0.0
C324 C 0.32899 0.94994 0.58051 0.0
C325 C 0.3498 0.9724 0.58335 0.0
C326 C 0.3161 -0.00937 0.587 0.0
C327 C 0.26305 0.98634 0.58799 0.0
C328 C 0.0503 0.97276 0.5603 0.0
C329 C 0.08566 0.02918 0.57831 0.0
C330 C 0.8968 0.01065 0.57826 0.0
Eu331 Eu 0.99065 -0.00413 0.58208 0.0
C332 C 0.84196 0.00471 0.58022 0.0
C333 C 0.80858 0.02267 0.58416 0.0
C334 C 0.75576 0.01833 0.58523 0.0
C335 C 0.73497 -0.0041 0.58233 0.0
C336 C 0.7687 0.97774 0.57859 0.0
C337 C 0.82169 0.98209 0.57755 0.0
C338 C 0.03881 -0.00522 0.60396 0.0
C339 C 0.99476 0.93892 0.58619 0.0
O340 O 0.16099 0.9717 0.5944 0.0
O341 O 0.16152 0.95033 0.57802 0.0
O342 O 0.07673 0.95507 0.56449 0.0
O343 O 0.04972 -0.01044 0.56787 0.0
O344 O 0.114 0.01139 0.58247 0.0
O345 O 0.03746 0.02592 0.57512 0.0
O346 O 0.92278 -0.00236 0.5706 0.0
O347 O 0.92393 0.01675 0.5877 0.0
O348 O 1.01353 0.01303 0.59998 0.0
O349 O 0.03571 0.97799 0.59651 0.0
O350 O 0.96804 0.95715 0.58214 0.0
O351 O 0.04426 0.9409 0.58877 0.0
H352 H 0.26142 0.92801 0.57958 0.0
H353 H 0.35373 0.93539 0.57784 0.0
H354 H 0.33071 0.00822 0.58911 0.0
H355 H 0.23816 0.00063 0.59096 0.0
H356 H 0.82328 0.0403 0.58618 0.0
H357 H 0.73101 0.03283 0.58798 0.0
H358 H 0.75412 0.96017 0.57644 0.0
H359 H 0.84661 0.96789 0.57451 0.0
C360 C 0.1014 0.2687 0.5978 0.0
Eu361 Eu 0.19112 0.25448 0.59026 0.0
C362 C 0.04642 0.26614 0.59486 0.0
C363 C 0.02876 0.24808 0.58715 0.0
C364 C 0.97596 0.24536 0.58494 0.0
C365 C 0.93994 0.26068 0.59039 0.0
C366 C 0.95817 0.27894 0.59798 0.0
C367 C 1.01087 0.28161 0.60018 0.0
C368 C 0.22521 0.24932 0.56716 0.0
C369 C 0.20644 0.19742 0.585 0.0
C370 C 0.39702 0.21642 0.58895 0.0
Eu371 Eu 0.30176 0.23049 0.59066 0.0
C372 C 0.45043 0.22437 0.58671 0.0
C373 C 0.47165 0.24424 0.59262 0.0
C374 C 0.52431 0.24935 0.5916 0.0
C375 C 0.55675 0.23468 0.58467 0.0
C376 C 0.53472 0.21547 0.57834 0.0
C377 C 0.48221 0.21037 0.57938 0.0
C378 C 0.24537 0.2301 0.61139 0.0
C379 C 0.29245 0.28789 0.59147 0.0
O380 O 0.12453 0.2496 0.60187 0.0
O381 O 0.12971 0.28089 0.59018 0.0
O382 O 0.18095 0.25843 0.57 0.0
O383 O 0.24837 0.24348 0.57672 0.0
O384 O 0.17537 0.21445 0.58901 0.0
O385 O 0.25595 0.20083 0.58311 0.0
O386 O 0.36497 0.21616 0.57983 0.0
O387 O 0.37543 0.22309 0.59907 0.0
O388 O 0.27291 0.21222 0.60779 0.0
O389 O 0.24972 0.24708 0.60406 0.0
O390 O 0.32106 0.26914 0.58904 0.0
O391 O 0.24223 0.28658 0.59349 0.0
H392 H 0.05574 0.23598 0.58294 0.0
H393 H 0.96337 0.23129 0.57895 0.0
H394 H 0.93165 0.29084 0.60247 0.0
H395 H 0.02383 0.29559 0.6062 0.0
H396 H 0.44797 0.25535 0.59835 0.0
H397 H 0.53991 0.26419 0.59666 0.0
H398 H 0.55826 0.20409 0.57273 0.0
H399 H 0.46668 0.19497 0.57474 0.0
C400 C 0.18055 0.26605 0.70086 0.0
Eu401 Eu 0.08755 0.25294 0.70701 0.0
C402 C 0.23567 0.26034 0.70235 0.0
C403 C 0.25696 0.25451 0.71361 0.0
C404 C 0.31013 0.25089 0.71479 0.0
C405 C 0.343 0.25308 0.70473 0.0
C406 C 0.32113 0.25835 0.69344 0.0
C407 C 0.26814 0.26196 0.69228 0.0
C408 C 0.049 0.2508 0.72982 0.0
C409 C 0.07792 0.19509 0.7107 0.0
C410 C 0.8892 0.21519 0.71416 0.0
Eu411 Eu 0.98252 0.22892 0.70872 0.0
C412 C 0.83448 0.22227 0.7134 0.0
C413 C 0.81196 0.2297 0.70251 0.0
C414 C 0.75897 0.23421 0.70188 0.0
C415 C 0.7274 0.23139 0.71213 0.0
C416 C 0.75054 0.22461 0.72307 0.0
C417 C 0.80338 0.22006 0.72368 0.0
C418 C 0.02603 0.22985 0.68635 0.0
C419 C 0.98821 0.28586 0.70425 0.0
O420 O 0.15261 0.25121 0.69454 0.0
O421 O 0.15588 0.27466 0.71016 0.0
O422 O 0.07678 0.26824 0.72574 0.0
O423 O 0.04556 0.23464 0.72195 0.0
O424 O 0.1061 0.21317 0.70669 0.0
O425 O 0.03005 0.19798 0.71427 0.0
O426 O 0.91873 0.22716 0.72157 0.0
O427 O 0.91267 0.20943 0.70413 0.0
O428 O 0.99951 0.212 0.69046 0.0
O429 O 0.02577 0.24657 0.69389 0.0
O430 O 0.96176 0.26788 0.70877 0.0
O431 O 0.03716 0.28359 0.70119 0.0
H432 H 0.2327 0.25315 0.72153 0.0
H433 H 0.32562 0.24702 0.72364 0.0
H434 H 0.34499 0.25972 0.68546 0.0
H435 H 0.25254 0.26637 0.68349 0.0
H436 H 0.83502 0.23156 0.69442 0.0
H437 H 0.74255 0.2392 0.69328 0.0
H438 H 0.72777 0.22269 0.7312 0.0
H439 H 0.81987 0.21438 0.73218 0.0
C440 C 0.11395 0.95895 0.69365 0.0
Eu441 Eu 0.20736 0.97253 0.69912 0.0
C442 C 0.05919 0.96555 0.69461 0.0
C443 C 0.03893 0.97635 0.70499 0.0
C444 C 0.98598 0.98079 0.70588 0.0
C445 C 0.95241 0.97459 0.6964 0.0
C446 C 0.97329 0.96426 0.68593 0.0
C447 C 0.02606 0.9598 0.68507 0.0
C448 C 0.2501 0.97429 0.72147 0.0
C449 C 0.2172 0.03029 0.70314 0.0
C450 C 0.4061 0.01082 0.70398 0.0
Eu451 Eu 0.31219 -0.00359 0.69971 0.0
C452 C 0.46065 0.00366 0.70327 0.0
C453 C 0.4807 -0.00827 0.69318 0.0
C454 C 0.53355 -0.01301 0.6924 0.0
C455 C 0.56726 -0.006 0.70171 0.0
C456 C 0.54661 0.00539 0.71192 0.0
C457 C 0.49394 0.01018 0.71266 0.0
C458 C 0.26465 -0.00471 0.67782 0.0
C459 C 0.30577 0.93911 0.69662 0.0
O460 O 0.14282 0.97177 0.68647 0.0
O461 O 0.13775 0.95266 0.70354 0.0
O462 O 0.22243 0.9567 0.7175 0.0
O463 O 0.25192 -0.00931 0.71369 0.0
O464 O 0.18769 0.0123 0.69957 0.0
O465 O 0.26616 0.02736 0.70572 0.0
O466 O 0.37736 0.00016 0.71205 0.0
O467 O 0.38178 0.01473 0.69385 0.0
O468 O 0.29088 0.01339 0.68174 0.0
O469 O 0.26666 0.97854 0.68535 0.0
O470 O 0.33323 0.9576 0.70015 0.0
O471 O 0.25628 0.94094 0.69404 0.0
H472 H 0.06386 0.98106 0.71245 0.0
H473 H 0.97135 -0.01093 0.714 0.0
H474 H 0.94868 0.95896 0.67852 0.0
H475 H 0.0409 0.95138 0.677 0.0
H476 H 0.45573 0.9864 0.68584 0.0
H477 H 0.54804 0.9779 0.6845 0.0
H478 H 0.57138 0.0113 0.71918 0.0
H479 H 0.47932 0.0195 0.7205 0.0
C480 C 0.15685 0.9607 0.45292 0.0
Eu481 Eu 0.06289 0.97539 0.44916 0.0
C482 C 0.21148 0.96792 0.45232 0.0
C483 C 0.23162 0.9807 0.44249 0.0
C484 C 0.28453 0.98551 0.44179 0.0
C485 C 0.31821 0.97771 0.45093 0.0
C486 C 0.29749 0.96545 0.46088 0.0
C487 C 0.24477 0.96059 0.46155 0.0
C488 C 1.01466 0.9773 0.42735 0.0
C489 C 0.05777 0.03271 0.44673 0.0
C490 C 0.86548 0.01323 0.44385 0.0
Eu491 Eu 0.95888 -0.00073 0.44893 0.0
C492 C 0.81068 0.0064 0.44457 0.0
C493 C 0.79012 -0.00538 0.45466 0.0
C494 C 0.7371 -0.0099 0.4554 0.0
C495 C 0.70374 -0.00279 0.44606 0.0
C496 C 0.72492 0.0085 0.43586 0.0
C497 C 0.77777 0.01303 0.43514 0.0
C498 C 1.00294 -0.00238 0.47112 0.0
C499 C 0.96817 0.94139 0.45267 0.0
O500 O 0.12842 0.97053 0.46127 0.0
O501 O 0.13222 0.95777 0.44273 0.0
O502 O 0.03991 0.95888 0.43115 0.0
O503 O 1.01739 -0.0062 0.43498 0.0
O504 O 0.08474 0.01405 0.4501 0.0
O505 O 1.00827 0.03104 0.44408 0.0
O506 O 0.89443 0.00144 0.4363 0.0
O507 O 0.88918 0.0183 0.45394 0.0
O508 O 0.97602 0.01535 0.46712 0.0
O509 O 1.00359 0.98102 0.46342 0.0
O510 O 0.93869 0.9594 0.4492 0.0
O511 O 1.01713 0.94438 0.45521 0.0
H512 H 0.20666 -0.01334 0.43528 0.0
H513 H 0.29908 -0.00473 0.43408 0.0
H514 H 0.32223 0.95891 0.468 0.0
H515 H 0.23008 0.95061 0.46918 0.0
H516 H 0.81485 -0.01077 0.46203 0.0
H517 H 0.72223 0.98107 0.46331 0.0
H518 H 0.70049 0.0145 0.42856 0.0
H519 H 0.79284 0.02222 0.4273 0.0
C520 C 0.64071 0.75791 0.45896 0.0
Eu521 Eu 0.73432 0.74362 0.45437 0.0
C522 C 0.5863 0.75016 0.45908 0.0
C523 C 0.56808 0.73188 0.45155 0.0
C524 C 0.5153 0.72645 0.45113 0.0
C525 C 0.47975 0.73926 0.4582 0.0
C526 C 0.49869 0.75704 0.46598 0.0
C527 C 0.55128 0.76242 0.4664 0.0
C528 C 0.78393 0.74376 0.43269 0.0
C529 C 0.73982 0.68629 0.45014 0.0
C530 C 0.93322 0.70435 0.44408 0.0
Eu531 Eu 0.8444 0.7179 0.45257 0.0
C532 C 0.98862 0.70708 0.44672 0.0
C533 C 1.00648 0.72422 0.45494 0.0
C534 C 0.05946 0.72733 0.45685 0.0
C535 C 0.09567 0.71335 0.45058 0.0
C536 C 0.07727 0.69598 0.44248 0.0
C537 C 0.02436 0.69292 0.44058 0.0
C538 C 0.81654 0.72309 0.47618 0.0
C539 C 0.83299 0.77515 0.45814 0.0
O540 O 0.6714 0.74912 0.4672 0.0
O541 O 0.66291 0.75998 0.44841 0.0
O542 O 0.75731 0.76169 0.43666 0.0
O543 O 0.78162 0.72684 0.44009 0.0
O544 O 0.71237 0.70506 0.45327 0.0
O545 O 0.79041 0.68712 0.44838 0.0
O546 O 0.9092 0.7236 0.44049 0.0
O547 O 0.90591 0.69152 0.45165 0.0
O548 O 0.85867 0.71281 0.4727 0.0
O549 O 0.79198 0.72949 0.46694 0.0
O550 O 0.86074 0.75788 0.45316 0.0
O551 O 0.78488 0.77209 0.46159 0.0
H552 H 0.59445 0.72218 0.44581 0.0
H553 H 0.5022 0.71274 0.44498 0.0
H554 H 0.4728 0.76696 0.47174 0.0
H555 H 0.56453 0.77654 0.47229 0.0
H556 H 0.97947 0.73535 0.45978 0.0
H557 H 0.07203 0.74066 0.46327 0.0
H558 H 0.10377 0.68512 0.43735 0.0
H559 H 1.01136 0.67969 0.43415 0.0
C560 C 0.1583 0.76077 0.33459 0.0
Eu561 Eu 0.0642 0.74562 0.33794 0.0
C562 C 0.21305 0.75468 0.33625 0.0
C563 C 0.24763 0.77282 0.33943 0.0
C564 C 0.30034 0.76823 0.34028 0.0
C565 C 0.31975 0.74534 0.33794 0.0
C566 C 0.28479 0.72702 0.33497 0.0
C567 C 0.23189 0.73164 0.33414 0.0
C568 C 1.01399 0.74456 0.35951 0.0
C569 C 0.05842 0.68832 0.34089 0.0
C570 C 0.86627 0.70727 0.34209 0.0
Eu571 Eu 0.96032 0.72154 0.33774 0.0
C572 C 0.81141 0.71327 0.34049 0.0
C573 C 0.77681 0.69499 0.33753 0.0
C574 C 0.72405 0.69948 0.33675 0.0
C575 C 0.7046 0.72242 0.33893 0.0
C576 C 0.73953 0.74086 0.34171 0.0
C577 C 0.7925 0.73634 0.34247 0.0
C578 C 1.00642 0.72324 0.31571 0.0
C579 C 0.96972 0.77915 0.33367 0.0
O580 O 0.13213 0.74874 0.32653 0.0
O581 O 0.13146 0.76548 0.34427 0.0
O582 O 0.04026 0.76269 0.35567 0.0
O583 O 1.01705 0.72765 0.35208 0.0
O584 O 0.08615 0.70693 0.33765 0.0
O585 O 1.00866 0.69001 0.34317 0.0
O586 O 0.89339 0.72021 0.34957 0.0
O587 O 0.8921 0.7012 0.33246 0.0
O588 O 0.9792 0.70546 0.31962 0.0
O589 O 1.00631 0.73979 0.32341 0.0
O590 O 0.94018 0.76126 0.33734 0.0
O591 O 1.01863 0.77604 0.33113 0.0
H592 H 0.23393 0.79075 0.34103 0.0
H593 H 0.32603 0.78285 0.34242 0.0
H594 H 0.2983 0.70912 0.33326 0.0
H595 H 0.20589 0.71732 0.3317 0.0
H596 H 0.79055 0.67703 0.33605 0.0
H597 H 0.69837 0.68478 0.33476 0.0
H598 H 0.72595 0.75879 0.34331 0.0
H599 H 0.81848 0.75078 0.34473 0.0
C600 C 0.64457 0.96443 0.32734 0.0
Eu601 Eu 0.73829 0.9784 0.33214 0.0
C602 C 0.58991 0.97155 0.32827 0.0
C603 C 0.56578 0.97508 0.33948 0.0
C604 C 0.51282 0.97953 0.3401 0.0
C605 C 0.48283 0.98052 0.32953 0.0
C606 C 0.50746 0.97763 0.31832 0.0
C607 C 0.5603 0.97313 0.31772 0.0
C608 C 0.78438 0.97887 0.35421 0.0
C609 C 0.74386 0.0354 0.33647 0.0
C610 C 0.93617 0.0158 0.33861 0.0
Eu611 Eu 0.84252 0.00247 0.33322 0.0
C612 C 0.991 0.00924 0.33736 0.0
C613 C 1.01458 0.00667 0.32602 0.0
C614 C 0.06766 0.00263 0.32517 0.0
C615 C 0.09823 0.00113 0.33563 0.0
C616 C 0.07413 0.00308 0.34695 0.0
C617 C 1.0212 0.00713 0.34779 0.0
C618 C 0.80054 0.0011 0.31073 0.0
C619 C 0.8332 0.94476 0.32916 0.0
O620 O 0.67345 0.97608 0.31966 0.0
O621 O 0.669 0.95899 0.33729 0.0
O622 O 0.75823 0.96092 0.35009 0.0
O623 O 0.7829 -0.00416 0.34681 0.0
O624 O 0.71687 0.01726 0.33231 0.0
O625 O 0.79321 0.03332 0.33914 0.0
O626 O 0.90769 0.00252 0.34566 0.0
O627 O 0.91154 0.02299 0.329 0.0
O628 O 0.8272 0.01882 0.31491 0.0
O629 O 0.79927 0.9845 0.31839 0.0
O630 O 0.86178 0.96271 0.33315 0.0
O631 O 0.78497 0.94778 0.32595 0.0
H632 H 0.5875 0.97387 0.34779 0.0
H633 H 0.49514 0.98143 0.34888 0.0
H634 H 0.48585 0.97869 0.30999 0.0
H635 H 0.5779 0.97041 0.30897 0.0
H636 H 0.99232 0.00828 0.31781 0.0
H637 H 0.08495 0.00142 0.31631 0.0
H638 H 0.09624 0.00159 0.3552 0.0
H639 H 1.00395 0.00908 0.35664 0.0
C640 C 0.68218 0.45781 0.58131 0.0
Eu641 Eu 0.58849 0.47135 0.5762 0.0
C642 C 0.7371 0.46402 0.57944 0.0
C643 C 0.76912 0.44797 0.5733 0.0
C644 C 0.82204 0.45223 0.57235 0.0
C645 C 0.84436 0.47259 0.5776 0.0
C646 C 0.81209 0.4889 0.58355 0.0
C647 C 0.75905 0.48468 0.58446 0.0
C648 C 0.54692 0.47283 0.55371 0.0
C649 C 0.58047 0.52905 0.57227 0.0
C650 C 0.39131 0.51023 0.5711 0.0
Eu651 Eu 0.4851 0.49575 0.57524 0.0
C652 C 0.33659 0.5036 0.5728 0.0
C653 C 0.30371 0.5196 0.5787 0.0
C654 C 0.25101 0.51485 0.57964 0.0
C655 C 0.22979 0.49401 0.57464 0.0
C656 C 0.26293 0.47776 0.56891 0.0
C657 C 0.31581 0.48247 0.56802 0.0
C658 C 0.53153 0.49455 0.59733 0.0
C659 C 0.48875 0.43886 0.57942 0.0
O660 O 0.65466 0.47162 0.58827 0.0
O661 O 0.65633 0.44998 0.572 0.0
O662 O 0.57362 0.45521 0.55788 0.0
O663 O 0.54543 0.48948 0.56136 0.0
O664 O 0.60824 0.51108 0.57644 0.0
O665 O 0.53259 0.52602 0.56877 0.0
O666 O 0.4185 0.49794 0.56336 0.0
O667 O 0.4175 0.5161 0.58072 0.0
O668 O 0.50641 0.51279 0.59327 0.0
O669 O 0.52905 0.47779 0.58984 0.0
O670 O 0.46267 0.457 0.57506 0.0
O671 O 0.53794 0.44087 0.58231 0.0
H672 H 0.75335 0.43178 0.56947 0.0
H673 H 0.8457 0.43913 0.56784 0.0
H674 H 0.82786 0.50491 0.58756 0.0
H675 H 0.7355 0.4974 0.58928 0.0
H676 H 0.31869 0.5361 0.58237 0.0
H677 H 0.22664 0.52791 0.58398 0.0
H678 H 0.24798 0.4614 0.5651 0.0
H679 H 0.34018 0.46975 0.56343 0.0
C680 C 0.60978 0.76596 0.59147 0.0
Eu681 Eu 0.70344 0.75234 0.58652 0.0
C682 C 0.5549 0.7601 0.58953 0.0
C683 C 0.52247 0.77747 0.58459 0.0
C684 C 0.46955 0.7734 0.5836 0.0
C685 C 0.44772 0.75186 0.58762 0.0
C686 C 0.48049 0.73421 0.59231 0.0
C687 C 0.53355 0.73828 0.59327 0.0
C688 C 0.74722 0.75106 0.56426 0.0
C689 C 0.71269 0.69483 0.58204 0.0
C690 C 0.90118 0.71366 0.58265 0.0
Eu691 Eu 0.80733 0.7285 0.58626 0.0
C692 C 0.95592 0.71991 0.58438 0.0
C693 C 0.98903 0.70277 0.58926 0.0
C694 C 0.04186 0.70715 0.59009 0.0
C695 C 0.06289 0.72879 0.58598 0.0
C696 C 0.02939 0.74626 0.58139 0.0
C697 C 0.97637 0.74186 0.58059 0.0
C698 C 0.75828 0.72927 0.60799 0.0
C699 C 0.80238 0.78548 0.58978 0.0
O700 O 0.63679 0.75192 0.59843 0.0
O701 O 0.6359 0.77377 0.5822 0.0
O702 O 0.71928 0.76845 0.56823 0.0
O703 O 0.7486 0.73451 0.57197 0.0
O704 O 0.68311 0.71254 0.58582 0.0
O705 O 0.76148 0.69816 0.57941 0.0
O706 O 0.87483 0.72583 0.57471 0.0
O707 O 0.87444 0.70842 0.59229 0.0
O708 O 0.78405 0.71117 0.60403 0.0
O709 O 0.76128 0.74619 0.60059 0.0
O710 O 0.82957 0.76714 0.58608 0.0
O711 O 0.75276 0.78356 0.59224 0.0
H712 H 0.53798 0.79445 0.58167 0.0
H713 H 0.4457 0.78722 0.57974 0.0
H714 H 0.46498 0.7175 0.59559 0.0
H715 H 0.55758 0.72455 0.59716 0.0
H716 H 0.9741 0.68572 0.59225 0.0
H717 H 0.06628 0.69349 0.5939 0.0
H718 H 0.04427 0.76306 0.57807 0.0
H719 H 0.95165 0.75542 0.57679 0.0
C720 C 0.68655 0.76554 0.6988 0.0
Eu721 Eu 0.59269 0.75161 0.70368 0.0
C722 C 0.74141 0.75964 0.70064 0.0
C723 C 0.77573 0.77796 0.70375 0.0
C724 C 0.82849 0.77352 0.70474 0.0
C725 C 0.84827 0.75062 0.70261 0.0
C726 C 0.81362 0.73215 0.69968 0.0
C727 C 0.76068 0.7366 0.69873 0.0
C728 C 0.55068 0.74934 0.72613 0.0
C729 C 0.58378 0.69381 0.70707 0.0
C730 C 0.39508 0.71263 0.70854 0.0
Eu731 Eu 0.48884 0.72747 0.70436 0.0
C732 C 0.34018 0.71856 0.70684 0.0
C733 C 0.3059 0.70038 0.70352 0.0
C734 C 0.25313 0.70483 0.7026 0.0
C735 C 0.23329 0.72762 0.70499 0.0
C736 C 0.26792 0.74597 0.70813 0.0
C737 C 0.32087 0.74149 0.70904 0.0
C738 C 0.53518 0.7294 0.68229 0.0
C739 C 0.49401 0.78464 0.70075 0.0
O740 O 0.65938 0.75168 0.69175 0.0
O741 O 0.66063 0.77291 0.70817 0.0
O742 O 0.57716 0.7672 0.72207 0.0
O743 O 0.54923 0.73293 0.71835 0.0
O744 O 0.61211 0.71189 0.70314 0.0
O745 O 0.53582 0.69683 0.7105 0.0
O746 O 0.42181 0.72556 0.71613 0.0
O747 O 0.42136 0.70672 0.69895 0.0
O748 O 0.50938 0.71114 0.68614 0.0
O749 O 0.53327 0.74588 0.68994 0.0
O750 O 0.46705 0.7663 0.70469 0.0
O751 O 0.5433 0.78264 0.69798 0.0
H752 H 0.76179 0.7959 0.70518 0.0
H753 H 0.85394 0.78825 0.70684 0.0
H754 H 0.8274 0.71424 0.69813 0.0
H755 H 0.73501 0.72211 0.69635 0.0
H756 H 0.3199 0.68252 0.70187 0.0
H757 H 0.22773 0.69018 0.70033 0.0
H758 H 0.25412 0.7638 0.70989 0.0
H759 H 0.34652 0.75586 0.7116 0.0
C760 C 0.60394 0.45624 0.68291 0.0
Eu761 Eu 0.69195 0.46973 0.69192 0.0
C762 C 0.54823 0.45885 0.68494 0.0
C763 C 0.5289 0.47308 0.69428 0.0
C764 C 0.47562 0.47569 0.6958 0.0
C765 C 0.44079 0.46417 0.68797 0.0
C766 C 0.46068 0.44981 0.67868 0.0
C767 C 0.51382 0.44721 0.67719 0.0
C768 C 0.72026 0.47495 0.71545 0.0
C769 C 0.70677 0.52645 0.69808 0.0
C770 C 0.89784 0.50738 0.69799 0.0
Eu771 Eu 0.80359 0.49391 0.69341 0.0
C772 C 0.95171 0.49921 0.6975 0.0
C773 C 0.96845 0.48265 0.68888 0.0
C774 C 1.02074 0.47673 0.68804 0.0
C775 C 0.05717 0.48719 0.69585 0.0
C776 C 0.03975 0.50329 0.70466 0.0
C777 C 0.98763 0.50923 0.70546 0.0
C778 C 0.75357 0.4945 0.67183 0.0
C779 C 0.79393 0.43636 0.69045 0.0
O780 O 0.6287 0.47539 0.67939 0.0
O781 O 0.62961 0.44374 0.69088 0.0
O782 O 0.67696 0.46543 0.71206 0.0
O783 O 0.74531 0.48088 0.70617 0.0
O784 O 0.67696 0.50976 0.69318 0.0
O785 O 0.75529 0.52273 0.70097 0.0
O786 O 0.86773 0.49753 0.70606 0.0
O787 O 0.87466 0.51106 0.68768 0.0
O788 O 0.78151 0.51211 0.67574 0.0
O789 O 0.75497 0.47754 0.67924 0.0
O790 O 0.82346 0.45521 0.69226 0.0
O791 O 0.74313 0.4375 0.6893 0.0
H792 H 0.55499 0.48229 0.70032 0.0
H793 H 0.46175 0.48709 0.70297 0.0
H794 H 0.43518 0.44038 0.6726 0.0
H795 H 0.52808 0.43613 0.66993 0.0
H796 H 0.94128 0.4746 0.68268 0.0
H797 H 0.03265 0.46402 0.68126 0.0
H798 H 0.06663 0.51193 0.71072 0.0
H799 H 0.9755 0.52211 0.71214 0.0
C800 C 0.6474 0.46276 0.44836 0.0
Eu801 Eu 0.55395 0.47666 0.44349 0.0
C802 C 0.70213 0.46878 0.44658 0.0
C803 C 0.73845 0.45042 0.44686 0.0
C804 C 0.79097 0.45547 0.44586 0.0
C805 C 0.80837 0.47907 0.44453 0.0
C806 C 0.77169 0.49747 0.444 0.0
C807 C 0.71898 0.49237 0.44504 0.0
C808 C 0.50425 0.47641 0.42185 0.0
C809 C 0.54636 0.534 0.43972 0.0
C810 C 0.35485 0.51425 0.43332 0.0
Eu811 Eu 0.44325 0.50103 0.44205 0.0
C812 C 0.29927 0.51106 0.43562 0.0
C813 C 0.26582 0.53024 0.43375 0.0
C814 C 0.2127 0.52743 0.43531 0.0
C815 C 0.1918 0.50528 0.43874 0.0
C816 C 0.22567 0.48614 0.44077 0.0
C817 C 0.27885 0.48901 0.43925 0.0
C818 C 0.47154 0.49629 0.46558 0.0
C819 C 0.45685 0.44476 0.4489 0.0
O820 O 0.6205 0.47672 0.45541 0.0
O821 O 0.62158 0.45549 0.43891 0.0
O822 O 0.53195 0.45873 0.42568 0.0
O823 O 0.50584 0.49318 0.42933 0.0
O824 O 0.57552 0.51505 0.44138 0.0
O825 O 0.49532 0.53307 0.43909 0.0
O826 O 0.38017 0.49553 0.4295 0.0
O827 O 0.38084 0.52695 0.44118 0.0
O828 O 0.42858 0.5059 0.46213 0.0
O829 O 0.49654 0.49004 0.45637 0.0
O830 O 0.42737 0.46099 0.44357 0.0
O831 O 0.50496 0.44903 0.45193 0.0
H832 H 0.72619 0.43209 0.44801 0.0
H833 H 0.81798 0.44083 0.44609 0.0
H834 H 0.78377 0.51584 0.44306 0.0
H835 H 0.69152 0.50682 0.44483 0.0
H836 H 0.28079 0.54742 0.43098 0.0
H837 H 0.18804 0.54267 0.43388 0.0
H838 H 0.21108 0.46876 0.44328 0.0
H839 H 0.30389 0.47392 0.44076 0.0
C840 C 0.14505 0.25773 0.46363 0.0
Eu841 Eu 0.23834 0.24444 0.45814 0.0
C842 C 0.09048 0.25048 0.46292 0.0
C843 C 0.07055 0.23811 0.45295 0.0
C844 C 1.0177 0.23312 0.4522 0.0
C845 C 0.98386 0.24043 0.46142 0.0
C846 C 1.0045 0.25219 0.47153 0.0
C847 C 0.05716 0.25717 0.47226 0.0
C848 C 0.28573 0.24378 0.43621 0.0
C849 C 0.24704 0.18706 0.45429 0.0
C850 C 0.43795 0.20647 0.44756 0.0
Eu851 Eu 0.35005 0.22028 0.45639 0.0
C852 C 0.4936 0.20907 0.44969 0.0
C853 C 0.51269 0.22007 0.46014 0.0
C854 C 0.56589 0.22274 0.46181 0.0
C855 C 0.60091 0.21448 0.45306 0.0
C856 C 0.58126 0.20347 0.44262 0.0
C857 C 0.52819 0.20082 0.44097 0.0
C858 C 0.32335 0.22713 0.48 0.0
C859 C 0.3353 0.27753 0.46072 0.0
O860 O 0.17468 0.24582 0.47101 0.0
O861 O 0.16817 0.26345 0.45353 0.0
O862 O 0.25698 0.26127 0.43987 0.0
O863 O 0.28582 0.22746 0.44398 0.0
O864 O 0.2178 0.20573 0.45662 0.0
O865 O 0.29787 0.1884 0.45313 0.0
O866 O 0.41378 0.22563 0.44392 0.0
O867 O 0.41167 0.1941 0.45551 0.0
O868 O 0.36636 0.21746 0.47663 0.0
O869 O 0.29805 0.23226 0.47068 0.0
O870 O 0.36366 0.26041 0.45582 0.0
O871 O 0.28831 0.27377 0.4648 0.0
H872 H 0.09561 0.2327 0.44564 0.0
H873 H 1.00318 0.22417 0.44425 0.0
H874 H 0.97991 0.25765 0.47891 0.0
H875 H 0.07179 0.26663 0.48006 0.0
H876 H 0.48647 0.22662 0.46697 0.0
H877 H 0.57959 0.23108 0.47001 0.0
H878 H 0.60686 0.19726 0.43559 0.0
H879 H 0.5141 0.19245 0.4328 0.0
C880 C 0.65492 0.26079 0.33694 0.0
Eu881 Eu 0.56063 0.24625 0.34055 0.0
C882 C 0.70936 0.2534 0.33766 0.0
C883 C 0.73088 0.24437 0.34835 0.0
C884 C 0.78371 0.23964 0.34903 0.0
C885 C 0.81599 0.24375 0.33904 0.0
C886 C 0.79394 0.25217 0.32827 0.0
C887 C 0.74127 0.25698 0.32762 0.0
C888 C 0.51051 0.24541 0.3621 0.0
C889 C 0.5545 0.18895 0.34344 0.0
C890 C 0.36254 0.20856 0.34526 0.0
Eu891 Eu 0.45643 0.22231 0.34042 0.0
C892 C 0.30795 0.21554 0.34435 0.0
C893 C 0.28627 0.22361 0.33349 0.0
C894 C 0.23336 0.22814 0.33273 0.0
C895 C 0.20119 0.22474 0.34282 0.0
C896 C 0.22344 0.21721 0.35373 0.0
C897 C 0.27618 0.21264 0.35447 0.0
C898 C 0.50224 0.22387 0.31836 0.0
C899 C 0.4662 0.28002 0.33631 0.0
O900 O 0.62657 0.25095 0.32854 0.0
O901 O 0.62987 0.26401 0.34704 0.0
O902 O 0.53681 0.26353 0.35824 0.0
O903 O 0.51344 0.22847 0.35469 0.0
O904 O 0.58221 0.20755 0.34018 0.0
O905 O 0.50468 0.19062 0.34565 0.0
O906 O 0.39131 0.22041 0.35286 0.0
O907 O 0.38683 0.20312 0.3353 0.0
O908 O 0.47481 0.20613 0.32227 0.0
O909 O 0.50245 0.2404 0.32609 0.0
O910 O 0.43613 0.26203 0.33962 0.0
O911 O 0.51556 0.27713 0.33422 0.0
H912 H 0.70715 0.24135 0.35624 0.0
H913 H 0.79934 0.23286 0.35741 0.0
H914 H 0.81766 0.25582 0.32045 0.0
H915 H 0.72561 0.26409 0.31931 0.0
H916 H 0.30999 0.22609 0.32555 0.0
H917 H 0.21762 0.23423 0.32424 0.0
H918 H 0.19985 0.21411 0.36164 0.0
H919 H 0.29204 0.2063 0.36292 0.0
C920 C 0.14575 0.46445 0.3195 0.0
Eu921 Eu 0.23908 0.47816 0.32492 0.0
C922 C 0.09105 0.4713 0.32048 0.0
C923 C 0.07086 0.48165 0.33099 0.0
C924 C 1.01795 0.48617 0.33194 0.0
C925 C 0.98428 0.48052 0.32239 0.0
C926 C 1.00506 0.4707 0.31179 0.0
C927 C 0.05781 0.46613 0.31086 0.0
C928 C 0.28335 0.4783 0.34718 0.0
C929 C 0.24526 0.53511 0.32981 0.0
C930 C 0.43743 0.51535 0.33207 0.0
Eu931 Eu 0.34381 0.50213 0.32648 0.0
C932 C 0.49223 0.50889 0.3308 0.0
C933 C 0.51236 0.49973 0.32001 0.0
C934 C 0.56529 0.49536 0.31891 0.0
C935 C 0.59904 0.5 0.32859 0.0
C936 C 0.57829 0.50872 0.33944 0.0
C937 C 0.52555 0.51311 0.34052 0.0
C938 C 0.30329 0.50065 0.30383 0.0
C939 C 0.3342 0.4444 0.32278 0.0
O940 O 0.1748 0.47695 0.31219 0.0
O941 O 0.16956 0.45834 0.32942 0.0
O942 O 0.25657 0.46061 0.34298 0.0
O943 O 0.28298 0.49532 0.33979 0.0
O944 O 0.21813 0.51716 0.32546 0.0
O945 O 0.29451 0.53283 0.33254 0.0
O946 O 0.40891 0.50183 0.33898 0.0
O947 O 0.41309 0.52259 0.32243 0.0
O948 O 0.32967 0.51838 0.30809 0.0
O949 O 0.30146 0.48411 0.31152 0.0
O950 O 0.3622 0.46243 0.32688 0.0
O951 O 0.28651 0.44736 0.31911 0.0
H952 H 0.09579 0.48593 0.33852 0.0
H953 H 1.00339 0.49405 0.34017 0.0
H954 H 0.98036 0.46585 0.30431 0.0
H955 H 0.07253 0.45804 0.3027 0.0
H956 H 0.48735 0.49622 0.31239 0.0
H957 H 0.57977 0.48834 0.31047 0.0
H958 H 0.603 0.51282 0.34703 0.0
H959 H 0.51085 0.52027 0.34891 0.0
C960 C 0.69078 0.95679 0.08719 0.0
Eu961 Eu 0.59709 0.97075 0.08239 0.0
C962 C 0.74574 0.9626 0.08528 0.0
C963 C 0.77904 0.94453 0.08142 0.0
C964 C 0.83195 0.94871 0.08045 0.0
C965 C 0.85295 0.97109 0.08339 0.0
C966 C 0.8193 -0.01061 0.08698 0.0
C967 C 0.76621 0.98519 0.08793 0.0
C968 C 0.55451 0.97289 0.05998 0.0
C969 C 0.5891 0.02847 0.07869 0.0
C970 C 0.40016 0.00996 0.07783 0.0
Eu971 Eu 0.49371 -0.00501 0.08184 0.0
C972 C 0.34516 0.00403 0.07952 0.0
C973 C 0.3116 0.02194 0.08343 0.0
C974 C 0.25869 0.01765 0.08426 0.0
C975 C 0.23798 -0.0047 0.08115 0.0
C976 C 0.27192 0.97715 0.0775 0.0
C977 C 0.32501 0.98147 0.07669 0.0
C978 C 0.54099 -0.00652 0.10381 0.0
C979 C 0.49776 0.93792 0.08559 0.0
O980 O 0.66398 0.97073 0.09424 0.0
O981 O 0.66452 0.94931 0.07788 0.0
O982 O 0.58087 0.95504 0.06402 0.0
O983 O 0.55352 -0.0107 0.06776 0.0
O984 O 0.61733 0.01048 0.08267 0.0
O985 O 0.54097 0.02538 0.07539 0.0
O986 O 0.42659 -0.00278 0.07013 0.0
O987 O 0.42664 0.01565 0.08743 0.0
O988 O 0.51546 0.01171 0.09989 0.0
O989 O 0.5384 0.97682 0.09626 0.0
O990 O 0.47113 0.95625 0.08161 0.0
O991 O 0.54717 0.93987 0.08827 0.0
H992 H 0.76416 0.92696 0.07933 0.0
H993 H 0.85643 0.93433 0.07743 0.0
H994 H 0.83409 0.00679 0.08941 0.0
H995 H 0.74143 -0.00053 0.09095 0.0
H996 H 0.32627 0.03947 0.08567 0.0
H997 H 0.23397 0.03191 0.08732 0.0
H998 H 0.25736 0.95978 0.07495 0.0
H999 H 0.35007 0.96733 0.07363 0.0
C1000 C 0.61079 0.2669 0.09975 0.0
Eu1001 Eu 0.69845 0.2532 0.09072 0.0
C1002 C 0.555 0.26419 0.09786 0.0
C1003 C 0.53519 0.25151 0.08799 0.0
C1004 C 0.48183 0.24885 0.08656 0.0
C1005 C 0.44744 0.25875 0.09501 0.0
C1006 C 0.46781 0.27152 0.10484 0.0
C1007 C 0.52101 0.27418 0.10624 0.0
C1008 C 0.72633 0.24746 0.06718 0.0
C1009 C 0.71282 0.19644 0.08492 0.0
C1010 C 0.9039 0.2158 0.08456 0.0
Eu1011 Eu 0.80985 0.22911 0.08929 0.0
C1012 C 0.95798 0.22369 0.08542 0.0
C1013 C 0.97512 0.23875 0.0947 0.0
C1014 C 0.02748 0.24458 0.09569 0.0
C1015 C 0.06355 0.23556 0.08738 0.0
C1016 C 0.04576 0.22094 0.07795 0.0
C1017 C 0.99358 0.21507 0.077 0.0
C1018 C 0.76033 0.22906 0.11094 0.0
C1019 C 0.80095 0.28659 0.09221 0.0
O1020 O 0.63544 0.24787 0.10339 0.0
O1021 O 0.63636 0.27915 0.09163 0.0
O1022 O 0.68294 0.25679 0.07056 0.0
O1023 O 0.7515 0.24181 0.07647 0.0
O1024 O 0.68338 0.21313 0.08986 0.0
O1025 O 0.76106 0.20028 0.08179 0.0
O1026 O 0.87458 0.22679 0.07675 0.0
O1027 O 0.88003 0.21091 0.09467 0.0
O1028 O 0.7883 0.21143 0.10715 0.0
O1029 O 0.76161 0.24578 0.1034 0.0
O1030 O 0.83033 0.26771 0.09062 0.0
O1031 O 0.75004 0.28553 0.09312 0.0
H1032 H 0.56095 0.24356 0.08146 0.0
H1033 H 0.46758 0.23868 0.07896 0.0
H1034 H 0.44263 0.27969 0.11142 0.0
H1035 H 0.53565 0.28405 0.11391 0.0
H1036 H 0.94819 0.24573 0.10126 0.0
H1037 H 0.03972 0.25614 0.10297 0.0
H1038 H 0.07237 0.21342 0.07148 0.0
H1039 H 0.98112 0.20338 0.06979 0.0
C1040 C 0.68954 0.26836 0.20247 0.0
Eu1041 Eu 0.59548 0.25436 0.2071 0.0
C1042 C 0.74435 0.26257 0.20447 0.0
C1043 C 0.77881 0.28109 0.20714 0.0
C1044 C 0.83158 0.27668 0.20816 0.0
C1045 C 0.85122 0.2536 0.2065 0.0
C1046 C 0.8164 0.23493 0.20404 0.0
C1047 C 0.76346 0.23936 0.20305 0.0
C1048 C 0.55184 0.25245 0.22943 0.0
C1049 C 0.58728 0.19667 0.21085 0.0
C1050 C 0.39804 0.215 0.21178 0.0
Eu1051 Eu 0.49176 0.22987 0.20759 0.0
C1052 C 0.34311 0.22093 0.21013 0.0
C1053 C 0.30849 0.2026 0.20726 0.0
C1054 C 0.25572 0.20711 0.2064 0.0
C1055 C 0.23623 0.23012 0.20842 0.0
C1056 C 0.27122 0.24859 0.21111 0.0
C1057 C 0.32417 0.24405 0.21196 0.0
C1058 C 0.5399 0.23073 0.18573 0.0
C1059 C 0.49657 0.28681 0.20301 0.0
O1060 O 0.66288 0.25431 0.19541 0.0
O1061 O 0.66304 0.27586 0.21173 0.0
O1062 O 0.5782 0.27036 0.22536 0.0
O1063 O 0.55123 0.23595 0.22171 0.0
O1064 O 0.61555 0.21477 0.20694 0.0
O1065 O 0.53892 0.19949 0.21402 0.0
O1066 O 0.4248 0.22789 0.21938 0.0
O1067 O 0.42422 0.20919 0.20215 0.0
O1068 O 0.51358 0.21268 0.18967 0.0
O1069 O 0.53732 0.24761 0.19315 0.0
O1070 O 0.46945 0.26869 0.20718 0.0
O1071 O 0.54619 0.28477 0.20062 0.0
H1072 H 0.76498 0.29915 0.20819 0.0
H1073 H 0.85715 0.29155 0.2099 0.0
H1074 H 0.83006 0.21689 0.20286 0.0
H1075 H 0.73767 0.22471 0.20101 0.0
H1076 H 0.32221 0.1846 0.2059 0.0
H1077 H 0.23005 0.19236 0.20449 0.0
H1078 H 0.25771 0.26658 0.21257 0.0
H1079 H 0.35013 0.25852 0.21417 0.0
C1080 C 0.61393 0.95915 0.19403 0.0
Eu1081 Eu 0.70751 0.97256 0.19942 0.0
C1082 C 0.55926 0.96606 0.19495 0.0
C1083 C 0.53723 0.97347 0.2059 0.0
C1084 C 0.48429 0.97799 0.20663 0.0
C1085 C 0.45244 0.97526 0.19644 0.0
C1086 C 0.47504 0.96838 0.18546 0.0
C1087 C 0.5278 0.96381 0.18474 0.0
C1088 C 0.7505 0.97412 0.22174 0.0
C1089 C 0.71729 0.03029 0.20352 0.0
C1090 C 0.90613 0.01069 0.20413 0.0
Eu1091 Eu 0.81202 -0.00353 0.19996 0.0
C1092 C 0.96061 0.00334 0.20333 0.0
C1093 C 0.98235 -0.00494 0.19251 0.0
C1094 C 0.03518 -0.00972 0.19181 0.0
C1095 C 0.06724 -0.00641 0.20192 0.0
C1096 C 0.04497 0.0013 0.21279 0.0
C1097 C 0.99231 0.00616 0.21347 0.0
C1098 C 0.7644 -0.00472 0.17807 0.0
C1099 C 0.80582 0.93919 0.19683 0.0
O1100 O 0.64306 0.97162 0.18676 0.0
O1101 O 0.63773 0.9529 0.20393 0.0
O1102 O 0.72306 0.9565 0.21772 0.0
O1103 O 0.75209 -0.00935 0.21401 0.0
O1104 O 0.68781 0.01234 0.19989 0.0
O1105 O 0.76621 0.02733 0.20611 0.0
O1106 O 0.87745 4e-05 0.21222 0.0
O1107 O 0.88147 0.01491 0.19407 0.0
O1108 O 0.79036 0.01345 0.182 0.0
O1109 O 0.7666 0.97854 0.1856 0.0
O1110 O 0.8332 0.9577 0.20037 0.0
O1111 O 0.75629 0.94097 0.19429 0.0
H1112 H 0.56068 0.97544 0.21391 0.0
H1113 H 0.4683 0.98358 0.21519 0.0
H1114 H 0.45171 0.9658 0.17747 0.0
H1115 H 0.54393 0.95799 0.17623 0.0
H1116 H 0.95878 -0.00736 0.18454 0.0
H1117 H 0.05095 0.98407 0.18334 0.0
H1118 H 0.06851 0.00432 0.22071 0.0
H1119 H 0.97649 0.01268 0.22188 0.0
C1120 C 0.66004 0.96151 0.95057 0.0
Eu1121 Eu 0.56582 0.97688 0.94806 0.0
C1122 C 0.71468 0.96834 0.94917 0.0
C1123 C 0.74842 0.95225 0.94365 0.0
C1124 C 0.80113 0.95714 0.943 0.0
C1125 C 0.82141 0.97827 0.94791 0.0
C1126 C 0.78731 -0.00535 0.95323 0.0
C1127 C 0.73442 -0.01024 0.95384 0.0
C1128 C 0.51386 0.97902 0.92675 0.0
C1129 C 0.56177 0.03425 0.94593 0.0
C1130 C 0.36882 0.01584 0.94526 0.0
Eu1131 Eu 0.46294 0.00124 0.94896 0.0
C1132 C 0.31396 0.00928 0.94664 0.0
C1133 C 0.28063 0.02541 0.95229 0.0
C1134 C 0.22776 0.02086 0.95286 0.0
C1135 C 0.20685 8e-05 0.94772 0.0
C1136 C 0.24048 0.98367 0.94226 0.0
C1137 C 0.29353 -0.0118 0.94173 0.0
C1138 C 0.51063 -0.00127 0.97076 0.0
C1139 C 0.471 0.94337 0.95229 0.0
O1140 O 0.63373 0.97155 0.95925 0.0
O1141 O 0.63308 0.95861 0.94072 0.0
O1142 O 0.53927 0.96051 0.93034 0.0
O1143 O 0.51829 -0.00439 0.93431 0.0
O1144 O 0.58884 0.01542 0.94902 0.0
O1145 O 0.51193 0.0328 0.94367 0.0
O1146 O 0.39606 0.00439 0.93722 0.0
O1147 O 0.39479 0.02053 0.95507 0.0
O1148 O 0.48421 0.01684 0.96703 0.0
O1149 O 0.50938 0.98235 0.96295 0.0
O1150 O 0.44174 0.96156 0.949 0.0
O1151 O 0.52028 0.9461 0.95457 0.0
H1152 H 0.73411 0.93555 0.94005 0.0
H1153 H 0.8262 0.94398 0.93897 0.0
H1154 H 0.80153 0.01122 0.95697 0.0
H1155 H 0.70918 0.00254 0.95812 0.0
H1156 H 0.29541 0.04188 0.95604 0.0
H1157 H 0.20307 0.03405 0.95699 0.0
H1158 H 0.22579 0.96735 0.93835 0.0
H1159 H 0.31832 0.97541 0.93733 0.0
C1160 C 0.13877 0.76043 0.95796 0.0
Eu1161 Eu 0.23236 0.74539 0.95396 0.0
C1162 C 0.08377 0.7543 0.95636 0.0
C1163 C 0.04957 0.77218 0.95272 0.0
C1164 C 0.99675 0.76758 0.95189 0.0
C1165 C 0.97674 0.74494 0.9547 0.0
C1166 C 1.0113 0.72689 0.95817 0.0
C1167 C 0.06428 0.73152 0.959 0.0
C1168 C 0.27968 0.74347 0.93202 0.0
C1169 C 0.23538 0.68835 0.95015 0.0
C1170 C 0.4292 0.70639 0.94881 0.0
Eu1171 Eu 0.33549 0.72059 0.95349 0.0
C1172 C 0.48417 0.71227 0.95071 0.0
C1173 C 0.51817 0.69401 0.95396 0.0
C1174 C 0.57104 0.69841 0.95492 0.0
C1175 C 0.59127 0.72123 0.95262 0.0
C1176 C 0.55693 0.73966 0.94957 0.0
C1177 C 0.50391 0.73524 0.94865 0.0
C1178 C 0.29228 0.723 0.97583 0.0
C1179 C 0.32844 0.77843 0.9571 0.0
O1180 O 0.16544 0.74798 0.96573 0.0
O1181 O 0.16508 0.76583 0.94828 0.0
O1182 O 0.25434 0.76183 0.93585 0.0
O1183 O 0.27697 0.72692 0.93963 0.0
O1184 O 0.20937 0.70671 0.9543 0.0
O1185 O 0.28479 0.69011 0.94741 0.0
O1186 O 0.40252 0.7202 0.94168 0.0
O1187 O 0.40279 0.69913 0.95816 0.0
O1188 O 0.31811 0.70495 0.97183 0.0
O1189 O 0.29215 0.73938 0.96803 0.0
O1190 O 0.3563 0.76024 0.9532 0.0
O1191 O 0.28006 0.77571 0.96029 0.0
H1192 H 0.06366 0.78993 0.95074 0.0
H1193 H 0.97144 0.78203 0.94936 0.0
H1194 H 0.99742 0.70916 0.96026 0.0
H1195 H 0.08984 0.71739 0.96183 0.0
H1196 H 0.50391 0.67611 0.9555 0.0
H1197 H 0.59622 0.68371 0.95713 0.0
H1198 H 0.57104 0.75751 0.94789 0.0
H1199 H 0.47854 0.7497 0.94615 0.0
C1200 C 0.65447 0.75942 0.83416 0.0
Eu1201 Eu 0.56005 0.74456 0.83734 0.0
C1202 C 0.70897 0.75187 0.83523 0.0
C1203 C 0.73802 0.75831 0.84542 0.0
C1204 C 0.79076 0.75347 0.84597 0.0
C1205 C 0.81587 0.74225 0.83628 0.0
C1206 C 0.7866 0.73539 0.82619 0.0
C1207 C 0.73382 0.74018 0.82565 0.0
C1208 C 0.5099 0.74326 0.85889 0.0
C1209 C 0.55581 0.68711 0.83994 0.0
C1210 C 0.36284 0.70575 0.84138 0.0
Eu1211 Eu 0.45708 0.71991 0.83713 0.0
C1212 C 0.30819 0.71307 0.84034 0.0
C1213 C 0.27953 0.7075 0.82996 0.0
C1214 C 0.22667 0.71207 0.82948 0.0
C1215 C 0.20104 0.72218 0.8394 0.0
C1216 C 0.22994 0.72818 0.8497 0.0
C1217 C 0.28282 0.72361 0.85018 0.0
C1218 C 0.50308 0.72185 0.81512 0.0
C1219 C 0.46498 0.77778 0.8334 0.0
O1220 O 0.6265 0.74981 0.82562 0.0
O1221 O 0.62854 0.76266 0.84414 0.0
O1222 O 0.53532 0.76161 0.85499 0.0
O1223 O 0.51353 0.72632 0.85149 0.0
O1224 O 0.58279 0.706 0.83677 0.0
O1225 O 0.50599 0.68835 0.84222 0.0
O1226 O 0.39157 0.71667 0.84935 0.0
O1227 O 0.38784 0.70099 0.83144 0.0
O1228 O 0.47686 0.70378 0.81909 0.0
O1229 O 0.50237 0.73847 0.8228 0.0
O1230 O 0.43608 0.75954 0.83691 0.0
O1231 O 0.51412 0.7752 0.83094 0.0
H1232 H 0.7203 0.76768 0.85287 0.0
H1233 H 0.81218 0.7593 0.85381 0.0
H1234 H 0.80458 0.72647 0.81863 0.0
H1235 H 0.71278 0.73516 0.81761 0.0
H1236 H 0.29762 0.699 0.82229 0.0
H1237 H 0.20559 0.7069 0.82147 0.0
H1238 H 0.21161 0.73625 0.85745 0.0
H1239 H 0.30359 0.72788 0.85837 0.0
C1240 C 0.1405 0.96285 0.82747 0.0
Eu1241 Eu 0.23404 0.97736 0.83218 0.0
C1242 C 0.08577 0.96993 0.828 0.0
C1243 C 0.06503 0.98197 0.83797 0.0
C1244 C 1.01207 -0.01335 0.83857 0.0
C1245 C 0.97882 0.9794 0.82921 0.0
C1246 C 1.00024 0.96795 0.8191 0.0
C1247 C 0.05302 0.96326 0.81853 0.0
C1248 C 0.27995 0.9788 0.85427 0.0
C1249 C 0.23876 0.03449 0.83594 0.0
C1250 C 0.43173 0.01586 0.83856 0.0
Eu1251 Eu 0.33838 0.00189 0.83316 0.0
C1252 C 0.48675 0.00973 0.83738 0.0
C1253 C 0.50681 -0.00087 0.82692 0.0
C1254 C 0.55988 -0.005 0.82587 0.0
C1255 C 0.59385 0.00143 0.83524 0.0
C1256 C 0.57316 0.01153 0.84579 0.0
C1257 C 0.52029 0.01562 0.84683 0.0
C1258 C 0.29664 -0.00038 0.81067 0.0
C1259 C 0.32986 0.94393 0.82966 0.0
O1260 O 0.1698 0.97364 0.81956 0.0
O1261 O 0.16413 0.95882 0.83769 0.0
O1262 O 0.254 0.96064 0.85031 0.0
O1263 O 0.2784 -0.00453 0.84669 0.0
O1264 O 0.21241 0.01614 0.8318 0.0
O1265 O 0.28803 0.03269 0.83879 0.0
O1266 O 0.4036 0.00249 0.84563 0.0
O1267 O 0.40721 0.02248 0.82882 0.0
O1268 O 0.32322 0.01752 0.8147 0.0
O1269 O 0.29538 0.98329 0.81849 0.0
O1270 O 0.35821 0.96219 0.83338 0.0
O1271 O 0.28138 0.94651 0.82653 0.0
H1272 H 0.08951 -0.01265 0.8454 0.0
H1273 H 0.99702 -0.00465 0.84654 0.0
H1274 H 0.97618 0.96253 0.81161 0.0
H1275 H 0.06821 0.95401 0.81073 0.0
H1276 H 0.48164 -0.0056 0.81951 0.0
H1277 H 0.57441 -0.01266 0.81759 0.0
H1278 H 0.59786 0.01627 0.85329 0.0
H1279 H 0.50559 0.02373 0.855 0.0
H1280 H 0.89133 0.42927 0.07438 0.0
H1281 H 0.90192 0.29502 0.09719 0.0
H1282 H 0.02996 0.39595 0.08764 0.0
H1283 H 0.76092 0.33081 0.08755 0.0
H1284 H 0.94879 0.3322 0.09452 0.0
H1285 H 0.8431 0.39354 0.07939 0.0
C1286 C 0.91181 0.41442 0.07832 0.0
C1287 C 0.96497 0.41567 0.0806 0.0
C1288 C 0.90756 0.33203 0.0931 0.0
C1289 C 0.90947 0.37457 0.08639 0.0
C1290 C 0.88067 0.3108 0.09463 0.0
C1291 C 0.82744 0.3098 0.09246 0.0
C1292 C 0.88118 0.35239 0.08926 0.0
C1293 C 0.80191 0.33082 0.0893 0.0
C1294 C 0.88402 0.39402 0.08123 0.0
C1295 C 0.98914 0.39577 0.08568 0.0
N1296 N 0.82918 0.35125 0.08766 0.0
N1297 N 0.96116 0.37601 0.0884 0.0
H1298 H 0.53833 0.89419 0.09114 0.0
H1299 H 0.26348 0.829 0.09199 0.0
H1300 H 0.39413 0.93013 0.08473 0.0
H1301 H 0.40872 0.79183 0.09131 0.0
H1302 H 0.31051 0.86687 0.09219 0.0
H1303 H 0.49089 0.85686 0.09392 0.0
C1304 C 0.49677 0.89425 0.09036 0.0
C1305 C 0.47024 0.91525 0.0876 0.0
C1306 C 0.33199 0.85038 0.09205 0.0
C1307 C 0.41581 0.87277 0.09082 0.0
C1308 C 0.30517 0.8288 0.09199 0.0
C1309 C 0.33219 0.80727 0.09151 0.0
C1310 C 0.3861 0.85034 0.09171 0.0
C1311 C 0.38625 0.80802 0.09153 0.0
C1312 C 0.46972 0.87297 0.09194 0.0
C1313 C 0.41631 0.91433 0.08673 0.0
N1314 N 0.4114 0.82919 0.09158 0.0
N1315 N 0.39091 0.89344 0.08831 0.0
H1316 H 0.76343 0.89447 0.19505 0.0
H1317 H 0.03737 0.82932 0.19575 0.0
H1318 H 0.90919 0.93162 0.19604 0.0
H1319 H 0.893 0.79341 0.2026 0.0
H1320 H 0.9903 0.8666 0.19298 0.0
H1321 H 0.80997 0.85658 0.19481 0.0
C1322 C 0.80512 0.89466 0.19511 0.0
C1323 C 0.83245 0.91618 0.19569 0.0
C1324 C 0.96901 0.85051 0.19506 0.0
C1325 C 0.88575 0.87312 0.19543 0.0
C1326 C 0.99585 0.82925 0.19664 0.0
C1327 C 0.96917 0.80829 0.19952 0.0
C1328 C 0.91516 0.85071 0.1963 0.0
C1329 C 0.91529 0.8092 0.20051 0.0
C1330 C 0.83165 0.87308 0.19502 0.0
C1331 C 0.88649 0.91543 0.19574 0.0
N1332 N 0.89008 0.83006 0.19892 0.0
N1333 N 0.91134 0.89426 0.19566 0.0
H1334 H 0.26408 0.39389 0.19041 0.0
H1335 H 0.53778 0.32926 0.19541 0.0
H1336 H 0.41004 0.43066 0.18843 0.0
H1337 H 0.39298 0.29498 0.20372 0.0
H1338 H 0.49101 0.36561 0.19034 0.0
H1339 H 0.31034 0.35614 0.19244 0.0
C1340 C 0.30576 0.39398 0.19023 0.0
C1341 C 0.33325 0.41542 0.18938 0.0
C1342 C 0.46953 0.3501 0.19327 0.0
C1343 C 0.38626 0.37253 0.19178 0.0
C1344 C 0.49622 0.32937 0.19618 0.0
C1345 C 0.46933 0.3091 0.20008 0.0
C1346 C 0.41558 0.35051 0.1942 0.0
C1347 C 0.41541 0.31022 0.20085 0.0
C1348 C 0.33214 0.37249 0.19147 0.0
C1349 C 0.38727 0.41456 0.18922 0.0
N1350 N 0.39032 0.33059 0.19795 0.0
N1351 N 0.41198 0.39349 0.19048 0.0
H1352 H 0.99624 0.58206 0.94287 0.0
H1353 H 0.27273 0.64575 0.94176 0.0
H1354 H 0.13921 0.54533 0.93613 0.0
H1355 H 0.13226 0.68057 0.95271 0.0
H1356 H 0.22308 0.60962 0.93754 0.0
H1357 H 0.04414 0.61964 0.94401 0.0
C1358 C 0.0375 0.58194 0.94147 0.0
C1359 C 0.06382 0.56054 0.93956 0.0
C1360 C 0.2032 0.62522 0.94085 0.0
C1361 C 0.11877 0.60323 0.94094 0.0
C1362 C 0.23156 0.64581 0.94329 0.0
C1363 C 0.20674 0.66616 0.94768 0.0
C1364 C 0.1497 0.62505 0.94279 0.0
C1365 C 0.15318 0.66527 0.94943 0.0
C1366 C 0.06488 0.60334 0.94219 0.0
C1367 C 0.11737 0.56138 0.93781 0.0
N1368 N 0.1265 0.64506 0.947 0.0
N1369 N 0.14308 0.58234 0.93862 0.0
H1370 H 0.79284 0.14476 0.95019 0.0
H1371 H 0.51998 0.07894 0.94398 0.0
H1372 H 0.64619 0.18059 0.95251 0.0
H1373 H 0.66531 0.04211 0.94651 0.0
H1374 H 0.56639 0.1169 0.94476 0.0
H1375 H 0.74721 0.10721 0.94672 0.0
C1376 C 0.75117 0.14476 0.94996 0.0
C1377 C 0.7234 0.16584 0.95173 0.0
C1378 C 0.58806 0.10047 0.94508 0.0
C1379 C 0.67102 0.12306 0.94771 0.0
C1380 C 0.56159 0.07883 0.94459 0.0
C1381 C 0.58873 0.05736 0.9453 0.0
C1382 C 0.64197 0.10057 0.94624 0.0
C1383 C 0.64269 0.05824 0.94607 0.0
C1384 C 0.72513 0.12334 0.94797 0.0
C1385 C 0.66935 0.16479 0.95129 0.0
N1386 N 0.66749 0.07949 0.94658 0.0
N1387 N 0.64499 0.14376 0.94934 0.0
H1388 H 0.1538 0.18107 0.84718 0.0
H1389 H 0.13537 0.04198 0.83402 0.0
H1390 H 1.00986 0.14354 0.84245 0.0
H1391 H 0.27761 0.07795 0.8429 0.0
H1392 H 0.08881 0.0788 0.83753 0.0
H1393 H 0.19932 0.14333 0.8464 0.0
C1394 C 0.13163 0.16485 0.84606 0.0
C1395 C 0.07786 0.16548 0.84475 0.0
C1396 C 0.13016 0.07866 0.83876 0.0
C1397 C 0.13008 0.12214 0.84377 0.0
C1398 C 0.15695 0.05764 0.8367 0.0
C1399 C 0.21068 0.05691 0.83808 0.0
C1400 C 0.15718 0.09921 0.84217 0.0
C1401 C 0.23628 0.07773 0.84168 0.0
C1402 C 0.15777 0.14328 0.84562 0.0
C1403 C 0.05129 0.14388 0.84346 0.0
N1404 N 0.20928 0.0981 0.84354 0.0
N1405 N 0.07777 0.12307 0.84288 0.0
H1406 H 0.65916 0.67987 0.84141 0.0
H1407 H 0.6385 0.54125 0.8276 0.0
H1408 H 0.51443 0.64207 0.83943 0.0
H1409 H 0.7819 0.57659 0.83609 0.0
H1410 H 0.59257 0.57795 0.83192 0.0
H1411 H 0.70463 0.64218 0.83984 0.0
C1412 C 0.63688 0.66359 0.84074 0.0
C1413 C 0.58286 0.6641 0.84045 0.0
C1414 C 0.63404 0.57768 0.83289 0.0
C1415 C 0.63489 0.62087 0.83853 0.0
C1416 C 0.66045 0.55675 0.83035 0.0
C1417 C 0.71431 0.55588 0.83141 0.0
C1418 C 0.66159 0.598 0.83642 0.0
C1419 C 0.74044 0.57648 0.83512 0.0
C1420 C 0.66295 0.64206 0.83986 0.0
C1421 C 0.55608 0.64246 0.83969 0.0
N1422 N 0.71382 0.59677 0.83743 0.0
N1423 N 0.58243 0.62169 0.83862 0.0
H1424 H 0.03552 0.89512 0.59147 0.0
H1425 H 0.76064 0.83005 0.59241 0.0
H1426 H 0.89106 0.93139 0.58592 0.0
H1427 H 0.90586 0.79299 0.59052 0.0
H1428 H 0.80771 0.86789 0.59319 0.0
H1429 H 0.98809 0.85778 0.59419 0.0
C1430 C 0.99391 0.89525 0.59088 0.0
C1431 C 0.96728 0.91632 0.58833 0.0
C1432 C 0.82915 0.85142 0.59267 0.0
C1433 C 0.91289 0.87385 0.59148 0.0
C1434 C 0.80233 0.82986 0.59227 0.0
C1435 C 0.82934 0.80841 0.59126 0.0
C1436 C 0.88324 0.85141 0.59214 0.0
C1437 C 0.88339 0.80915 0.59113 0.0
C1438 C 0.96686 0.87397 0.59242 0.0
C1439 C 0.91328 0.91551 0.58771 0.0
N1440 N 0.90853 0.8303 0.59151 0.0
N1441 N 0.88789 0.89461 0.58924 0.0
H1442 H 0.25064 0.33255 0.58901 0.0
H1443 H 0.52674 0.39659 0.58801 0.0
H1444 H 0.39491 0.29596 0.59424 0.0
H1445 H 0.38566 0.43077 0.57693 0.0
H1446 H 0.47763 0.36049 0.59256 0.0
H1447 H 0.29825 0.37014 0.58711 0.0
C1448 C 0.29216 0.33247 0.5899 0.0
C1449 C 0.3189 0.31112 0.59163 0.0
C1450 C 0.45749 0.37593 0.58914 0.0
C1451 C 0.3734 0.35377 0.58943 0.0
C1452 C 0.48554 0.3965 0.58652 0.0
C1453 C 0.46039 0.41666 0.58201 0.0
C1454 C 0.40396 0.37559 0.58728 0.0
C1455 C 0.40681 0.4156 0.58031 0.0
C1456 C 0.31933 0.35386 0.58875 0.0
C1457 C 0.37274 0.31198 0.59272 0.0
N1458 N 0.3804 0.3954 0.58294 0.0
N1459 N 0.3982 0.33292 0.59154 0.0
H1460 H 0.02673 0.3276 0.69495 0.0
H1461 H 0.75176 0.39193 0.69383 0.0
H1462 H 0.8855 0.29449 0.70703 0.0
H1463 H 0.89585 0.42785 0.68672 0.0
H1464 H 0.79888 0.3545 0.69621 0.0
H1465 H 0.97814 0.36345 0.68986 0.0
C1466 C 0.98562 0.32787 0.69657 0.0
C1467 C 0.96028 0.30806 0.7015 0.0
C1468 C 0.82004 0.37058 0.69404 0.0
C1469 C 0.9044 0.34886 0.69558 0.0
C1470 C 0.79312 0.39188 0.6926 0.0
C1471 C 0.81994 0.41305 0.69021 0.0
C1472 C 0.87402 0.37052 0.69302 0.0
C1473 C 0.87361 0.412 0.68873 0.0
C1474 C 0.95786 0.34831 0.69363 0.0
C1475 C 0.90682 0.30938 0.70333 0.0
N1476 N 0.89887 0.39113 0.69023 0.0
N1477 N 0.8807 0.32942 0.70037 0.0
H1478 H 0.53582 0.82841 0.69559 0.0
H1479 H 0.26293 0.89452 0.69455 0.0
H1480 H 0.39054 0.79271 0.70157 0.0
H1481 H 0.40915 0.93118 0.69623 0.0
H1482 H 0.3089 0.8565 0.69428 0.0
H1483 H 0.4895 0.86596 0.69308 0.0
C1484 C 0.49425 0.82844 0.69634 0.0
C1485 C 0.46708 0.80744 0.6989 0.0
C1486 C 0.33081 0.87291 0.69465 0.0
C1487 C 0.41392 0.8502 0.69598 0.0
C1488 C 0.30462 0.89458 0.69476 0.0
C1489 C 0.33221 0.91601 0.69553 0.0
C1490 C 0.38488 0.87276 0.69522 0.0
C1491 C 0.38623 0.91508 0.69577 0.0
C1492 C 0.46784 0.84986 0.69491 0.0
C1493 C 0.41317 0.80851 0.69973 0.0
N1494 N 0.41077 0.89381 0.69565 0.0
N1495 N 0.38838 0.82953 0.69829 0.0
H1496 H 1.01605 0.07747 0.44485 0.0
H1497 H 0.28968 0.1429 0.45059 0.0
H1498 H 0.16124 0.04049 0.4472 0.0
H1499 H 0.14344 0.17902 0.45315 0.0
H1500 H 0.24357 0.10541 0.44729 0.0
H1501 H 0.06273 0.1154 0.44559 0.0
C1502 C 0.05767 0.07732 0.44541 0.0
C1503 C 0.08471 0.05582 0.44609 0.0
C1504 C 0.22168 0.12159 0.44856 0.0
C1505 C 0.13824 0.09897 0.44698 0.0
C1506 C 0.248 0.14298 0.45045 0.0
C1507 C 0.2205 0.16412 0.45224 0.0
C1508 C 0.16755 0.12141 0.4484 0.0
C1509 C 0.16642 0.16316 0.45191 0.0
C1510 C 0.08429 0.09894 0.44588 0.0
C1511 C 0.13869 0.05665 0.4468 0.0
N1512 N 0.14178 0.14218 0.45005 0.0
N1513 N 0.16363 0.07786 0.44729 0.0
H1514 H 0.63624 0.67908 0.45217 0.0
H1515 H 0.64756 0.54176 0.43457 0.0
H1516 H 0.77703 0.64284 0.44265 0.0
H1517 H 0.50682 0.57878 0.44314 0.0
H1518 H 0.69468 0.57911 0.4361 0.0
H1519 H 0.58813 0.64301 0.44791 0.0
C1520 C 0.65725 0.66353 0.4492 0.0
C1521 C 0.71105 0.66402 0.44782 0.0
C1522 C 0.65347 0.57915 0.43756 0.0
C1523 C 0.65553 0.62248 0.44287 0.0
C1524 C 0.62643 0.55781 0.43669 0.0
C1525 C 0.5732 0.5571 0.4389 0.0
C1526 C 0.62719 0.59998 0.44071 0.0
C1527 C 0.54782 0.5785 0.4414 0.0
C1528 C 0.6295 0.64291 0.44672 0.0
C1529 C 0.73572 0.64326 0.4439 0.0
N1530 N 0.5752 0.59908 0.44237 0.0
N1531 N 0.70773 0.62328 0.44159 0.0
H1532 H 0.28705 0.57759 0.33715 0.0
H1533 H 1.01479 0.64375 0.34084 0.0
H1534 H 0.14188 0.5437 0.32879 0.0
H1535 H 0.16146 0.68003 0.34217 0.0
H1536 H 0.06029 0.60571 0.33937 0.0
H1537 H 0.24093 0.6144 0.34165 0.0
C1538 C 0.24554 0.57787 0.33626 0.0
C1539 C 0.21837 0.5576 0.3325 0.0
C1540 C 0.08241 0.62202 0.34007 0.0
C1541 C 0.16537 0.59953 0.33772 0.0
C1542 C 0.05648 0.64369 0.34098 0.0
C1543 C 0.08439 0.66506 0.3415 0.0
C1544 C 0.13651 0.62182 0.33976 0.0
C1545 C 0.13838 0.66399 0.34163 0.0
C1546 C 0.21923 0.59887 0.33885 0.0
C1547 C 0.16452 0.55896 0.33156 0.0
N1548 N 0.16266 0.64274 0.3407 0.0
N1549 N 0.13981 0.57958 0.33414 0.0
H1550 H 0.78513 0.07867 0.34281 0.0
H1551 H 0.51167 0.14422 0.34441 0.0
H1552 H 0.64041 0.04346 0.33547 0.0
H1553 H 0.65775 0.18114 0.34462 0.0
H1554 H 0.55787 0.10626 0.34407 0.0
H1555 H 0.73839 0.11582 0.34623 0.0
C1556 C 0.74361 0.07873 0.34194 0.0
C1557 C 0.71673 0.05799 0.33875 0.0
C1558 C 0.5797 0.12271 0.34426 0.0
C1559 C 0.66308 0.10028 0.34271 0.0
C1560 C 0.55336 0.14434 0.34451 0.0
C1561 C 0.58089 0.16583 0.34441 0.0
C1562 C 0.63382 0.12267 0.34399 0.0
C1563 C 0.63492 0.16498 0.34454 0.0
C1564 C 0.71695 0.09991 0.34389 0.0
C1565 C 0.66285 0.05906 0.3378 0.0
N1566 N 0.65959 0.14376 0.34428 0.0
N1567 N 0.63783 0.07986 0.33976 0.0
H1568 H 0.08506 0.45654 0.10717 0.0
H1569 H 0.23442 0.53301 0.15714 0.0
H1570 H 0.06714 0.53243 0.11097 0.0
H1571 H 0.21465 0.45697 0.15984 0.0
H1572 H 0.18012 0.53307 0.13908 0.0
H1573 H 0.13934 0.45622 0.12527 0.0
C1574 C 0.09256 0.47314 0.11183 0.0
C1575 C 0.07149 0.49455 0.10758 0.0
C1576 C 0.1876 0.51636 0.14361 0.0
C1577 C 0.13388 0.49435 0.12827 0.0
C1578 C 0.21876 0.5163 0.1539 0.0
C1579 C 0.2291 0.49494 0.16 0.0
C1580 C 0.16702 0.49486 0.13926 0.0
C1581 C 0.20762 0.47383 0.15542 0.0
C1582 C 0.12344 0.47294 0.12217 0.0
C1583 C 0.08247 0.51553 0.11396 0.0
N1584 N 0.17781 0.4743 0.1453 0.0
N1585 N 0.11307 0.51493 0.12394 0.0
H1586 H 0.21288 0.7674 0.11951 0.0
H1587 H 0.05986 0.6915 0.16921 0.0
H1588 H 0.22849 0.69139 0.12333 0.0
H1589 H 0.08165 0.76741 0.17197 0.0
H1590 H 0.11427 0.69124 0.15114 0.0
H1591 H 0.15784 0.76795 0.13751 0.0
C1592 C 0.20475 0.75083 0.12415 0.0
C1593 C 0.22538 0.72932 0.11995 0.0
C1594 C 0.10714 0.70797 0.15568 0.0
C1595 C 0.16206 0.72977 0.14047 0.0
C1596 C 0.07588 0.70814 0.16596 0.0
C1597 C 0.06621 0.72951 0.17208 0.0
C1598 C 0.12844 0.72938 0.15138 0.0
C1599 C 0.08818 0.75054 0.16752 0.0
C1600 C 0.17341 0.75116 0.13443 0.0
C1601 C 0.21356 0.70838 0.12629 0.0
N1602 N 0.1181 0.74996 0.15743 0.0
N1603 N 0.18252 0.7091 0.13619 0.0
H1604 H 0.80433 0.43917 0.86096 0.0
H1605 H 0.94938 0.5167 0.91122 0.0
H1606 H 0.82604 0.51507 0.85804 0.0
H1607 H 0.96854 0.44075 0.9081 0.0
H1608 H 0.89657 0.51634 0.89292 0.0
H1609 H 0.85676 0.43923 0.87938 0.0
C1610 C 0.81992 0.45586 0.86424 0.0
C1611 C 0.81077 0.47715 0.85798 0.0
C1612 C 0.91239 0.49974 0.89621 0.0
C1613 C 0.8706 0.47738 0.87907 0.0
C1614 C 0.94246 0.49993 0.90667 0.0
C1615 C 0.96345 0.47872 0.91117 0.0
C1616 C 0.90267 0.47814 0.89023 0.0
C1617 C 0.95323 0.45751 0.90491 0.0
C1618 C 0.85003 0.45587 0.87472 0.0
C1619 C 0.83215 0.49825 0.86259 0.0
N1620 N 0.92337 0.45773 0.89479 0.0
N1621 N 0.86084 0.49785 0.87287 0.0
H1622 H 0.97764 0.28626 0.8751 0.0
H1623 H 0.83481 0.20867 0.92573 0.0
H1624 H 0.9617 0.20995 0.87318 0.0
H1625 H 0.81024 0.28414 0.92184 0.0
H1626 H 0.88815 0.20919 0.90753 0.0
H1627 H 0.9231 0.28634 0.89322 0.0
C1628 C 0.96276 0.26953 0.87851 0.0
C1629 C 0.97417 0.24807 0.87263 0.0
C1630 C 0.87099 0.22565 0.91061 0.0
C1631 C 0.91214 0.24798 0.89338 0.0
C1632 C 0.84059 0.22536 0.92101 0.0
C1633 C 0.81797 0.24639 0.92528 0.0
C1634 C 0.87942 0.24718 0.90444 0.0
C1635 C 0.82679 0.26751 0.91882 0.0
C1636 C 0.9315 0.26959 0.88882 0.0
C1637 C 0.95379 0.2269 0.87742 0.0
N1638 N 0.85706 0.26741 0.90876 0.0
N1639 N 0.92403 0.22738 0.88752 0.0
H1640 H 0.08416 0.95638 0.61473 0.0
H1641 H 0.23736 0.03339 0.6639 0.0
H1642 H 0.06764 0.03241 0.61817 0.0
H1643 H 0.21797 0.95735 0.66672 0.0
H1644 H 0.18186 0.03335 0.64602 0.0
H1645 H 0.13939 0.95628 0.63268 0.0
C1646 C 0.09208 0.97305 0.61929 0.0
C1647 C 0.07116 -0.00557 0.61499 0.0
C1648 C 0.18972 0.01666 0.65054 0.0
C1649 C 0.13479 -0.0055 0.63546 0.0
C1650 C 0.22159 0.01666 0.66072 0.0
C1651 C 0.23227 -0.00466 0.6668 0.0
C1652 C 0.16881 -0.00487 0.6463 0.0
C1653 C 0.21064 0.97419 0.6623 0.0
C1654 C 0.12355 0.97298 0.62954 0.0
C1655 C 0.08277 0.01552 0.62122 0.0
N1656 N 0.18012 0.9746 0.65231 0.0
N1657 N 0.11398 0.01504 0.6311 0.0
H1658 H 0.1984 0.26832 0.62193 0.0
H1659 H 0.04965 0.19172 0.67207 0.0
H1660 H 0.21636 0.19239 0.62556 0.0
H1661 H 0.07251 0.26754 0.675 0.0
H1662 H 0.10247 0.19161 0.65371 0.0
H1663 H 0.1441 0.26842 0.64004 0.0
C1664 C 0.19084 0.25166 0.62654 0.0
C1665 C 0.21203 0.23031 0.62226 0.0
C1666 C 0.09589 0.20828 0.65836 0.0
C1667 C 0.14959 0.23026 0.64294 0.0
C1668 C 0.06557 0.20836 0.6688 0.0
C1669 C 0.05666 0.22968 0.67505 0.0
C1670 C 0.11695 0.22971 0.65402 0.0
C1671 C 0.07845 0.25071 0.67045 0.0
C1672 C 0.15995 0.25173 0.63689 0.0
C1673 C 0.20095 0.20925 0.62858 0.0
N1674 N 0.10739 0.25022 0.6602 0.0
N1675 N 0.17035 0.20973 0.63856 0.0
H1676 H 0.96998 0.01603 0.41674 0.0
H1677 H 0.81207 0.94028 0.3678 0.0
H1678 H 0.98416 0.93992 0.41313 0.0
H1679 H 0.83163 0.01638 0.36549 0.0
H1680 H 0.86877 0.93977 0.3855 0.0
H1681 H 0.91351 0.01656 0.39902 0.0
C1682 C 0.96129 -0.00057 0.41218 0.0
C1683 C 0.98185 0.9779 0.4164 0.0
C1684 C 0.86065 0.95658 0.38113 0.0
C1685 C 0.91683 0.97832 0.39615 0.0
C1686 C 0.82808 0.9569 0.37107 0.0
C1687 C 0.8171 0.97841 0.36518 0.0
C1688 C 0.88199 0.97798 0.38545 0.0
C1689 C 0.83913 -0.0006 0.36976 0.0
C1690 C 0.92909 -0.00026 0.40206 0.0
C1691 C 0.9693 0.95693 0.41016 0.0
N1692 N 0.87034 -0.00132 0.37963 0.0
N1693 N 0.93742 0.95764 0.4004 0.0
H1694 H 0.98618 0.78271 0.37333 0.0
H1695 H 0.82896 0.70564 0.42178 0.0
H1696 H 0.96557 0.70676 0.37036 0.0
H1697 H 0.8143 0.78184 0.41881 0.0
H1698 H 0.88493 0.70571 0.404 0.0
H1699 H 0.9295 0.7828 0.39102 0.0
C1700 C 0.96987 0.76603 0.37644 0.0
C1701 C 0.98064 0.74469 0.37037 0.0
C1702 C 0.86937 0.72242 0.40719 0.0
C1703 C 0.91583 0.74463 0.39066 0.0
C1704 C 0.83747 0.7224 0.41736 0.0
C1705 C 0.81689 0.74377 0.42176 0.0
C1706 C 0.88133 0.74401 0.40142 0.0
C1707 C 0.82921 0.76496 0.41568 0.0
C1708 C 0.93734 0.76611 0.3865 0.0
C1709 C 0.95826 0.72362 0.37476 0.0
N1710 N 0.86083 0.76456 0.40587 0.0
N1711 N 0.92713 0.7241 0.38465 0.0
H1712 H 0.57618 0.4562 0.60828 0.0
H1713 H 0.72698 0.53297 0.65799 0.0
H1714 H 0.55961 0.53225 0.61158 0.0
H1715 H 0.7064 0.45697 0.66062 0.0
H1716 H 0.67225 0.53317 0.63993 0.0
H1717 H 0.63023 0.45614 0.62641 0.0
C1718 C 0.58384 0.47288 0.61285 0.0
C1719 C 0.56323 0.49425 0.60845 0.0
C1720 C 0.67967 0.51645 0.64446 0.0
C1721 C 0.62553 0.49438 0.62915 0.0
C1722 C 0.71106 0.51632 0.65474 0.0
C1723 C 0.72118 0.49493 0.66081 0.0
C1724 C 0.65878 0.49497 0.64012 0.0
C1725 C 0.69947 0.47387 0.65622 0.0
C1726 C 0.61465 0.47284 0.6232 0.0
C1727 C 0.5745 0.51536 0.61471 0.0
N1728 N 0.66951 0.47441 0.64615 0.0
N1729 N 0.60508 0.51492 0.62469 0.0
H1730 H 0.73069 0.69117 0.62191 0.0
H1731 H 0.58167 0.76787 0.67168 0.0
H1732 H 0.71202 0.7672 0.6191 0.0
H1733 H 0.56169 0.69206 0.66774 0.0
H1734 H 0.63604 0.76812 0.65357 0.0
H1735 H 0.67573 0.6912 0.63989 0.0
C1736 C 0.71517 0.70789 0.62511 0.0
C1737 C 0.72596 0.72922 0.61902 0.0
C1738 C 0.61961 0.75144 0.65664 0.0
C1739 C 0.66316 0.72942 0.63963 0.0
C1740 C 0.58864 0.75129 0.66698 0.0
C1741 C 0.56701 0.72992 0.67119 0.0
C1742 C 0.62962 0.73001 0.65054 0.0
C1743 C 0.57739 0.70894 0.66477 0.0
C1744 C 0.68362 0.70788 0.63534 0.0
C1745 C 0.70464 0.75036 0.62353 0.0
N1746 N 0.60815 0.70949 0.65482 0.0
N1747 N 0.67446 0.74995 0.63359 0.0
H1748 H 0.30849 0.43947 0.36089 0.0
H1749 H 0.45944 0.51471 0.41108 0.0
H1750 H 0.33053 0.51545 0.35873 0.0
H1751 H 0.47627 0.43874 0.4074 0.0
H1752 H 0.4055 0.51514 0.39299 0.0
H1753 H 0.36293 0.43861 0.37899 0.0
C1754 C 0.32457 0.45598 0.36427 0.0
C1755 C 0.3149 0.47758 0.35832 0.0
C1756 C 0.42107 0.49837 0.3961 0.0
C1757 C 0.37709 0.47674 0.37904 0.0
C1758 C 0.45182 0.4981 0.40644 0.0
C1759 C 0.47242 0.47665 0.41074 0.0
C1760 C 0.41025 0.47698 0.39003 0.0
C1761 C 0.46128 0.45567 0.40437 0.0
C1762 C 0.35584 0.45546 0.37456 0.0
C1763 C 0.33698 0.49842 0.36304 0.0
N1764 N 0.43072 0.45633 0.39437 0.0
N1765 N 0.36682 0.4975 0.37313 0.0
H1766 H 0.33416 0.20601 0.42573 0.0
H1767 H 0.48164 0.28354 0.37584 0.0
H1768 H 0.31113 0.28155 0.42163 0.0
H1769 H 0.46485 0.20733 0.37335 0.0
H1770 H 0.42623 0.28334 0.39376 0.0
H1771 H 0.38885 0.20626 0.40771 0.0
C1772 C 0.34056 0.22266 0.42101 0.0
C1773 C 0.31798 0.24379 0.42517 0.0
C1774 C 0.43464 0.26666 0.3893 0.0
C1775 C 0.38096 0.24426 0.40457 0.0
C1776 C 0.46644 0.26675 0.3791 0.0
C1777 C 0.47788 0.24541 0.3731 0.0
C1778 C 0.41462 0.24503 0.39366 0.0
C1779 C 0.45696 0.22419 0.37769 0.0
C1780 C 0.37171 0.22278 0.41071 0.0
C1781 C 0.32761 0.26484 0.41871 0.0
N1782 N 0.42657 0.22451 0.38771 0.0
N1783 N 0.35859 0.26457 0.40878 0.0
H1784 H 0.73701 0.03314 0.16399 0.0
H1785 H 0.58737 0.95525 0.11456 0.0
H1786 H 0.71883 0.95705 0.16697 0.0
H1787 H 0.56842 0.03114 0.11809 0.0
H1788 H 0.64212 0.95542 0.13261 0.0
H1789 H 0.68225 0.0327 0.14598 0.0
C1790 C 0.72166 0.01632 0.16082 0.0
C1791 C 0.73246 -0.0049 0.16698 0.0
C1792 C 0.62585 0.97202 0.12946 0.0
C1793 C 0.66987 -0.00557 0.14633 0.0
C1794 C 0.59466 0.97193 0.11916 0.0
C1795 C 0.57318 -0.0068 0.11486 0.0
C1796 C 0.63624 -0.00641 0.13543 0.0
C1797 C 0.58399 0.01432 0.12114 0.0
C1798 C 0.69021 0.01609 0.15057 0.0
C1799 C 0.71139 0.97383 0.16249 0.0
N1800 N 0.61493 0.01401 0.13106 0.0
N1801 N 0.68128 0.97401 0.15242 0.0
H1802 H 0.73374 0.19097 0.1251 0.0
H1803 H 0.58631 0.26882 0.17476 0.0
H1804 H 0.71399 0.26689 0.12198 0.0
H1805 H 0.56651 0.19287 0.17151 0.0
H1806 H 0.64008 0.2685 0.15656 0.0
H1807 H 0.67962 0.19125 0.14326 0.0
C1808 C 0.71814 0.2077 0.12827 0.0
C1809 C 0.72831 0.22893 0.12202 0.0
C1810 C 0.62385 0.25191 0.1598 0.0
C1811 C 0.66665 0.22944 0.14284 0.0
C1812 C 0.59323 0.25208 0.1702 0.0
C1813 C 0.57175 0.23085 0.17462 0.0
C1814 C 0.63371 0.23029 0.15386 0.0
C1815 C 0.58209 0.20966 0.16837 0.0
C1816 C 0.6871 0.20785 0.1386 0.0
C1817 C 0.70701 0.25011 0.12651 0.0
N1818 N 0.61251 0.20989 0.15836 0.0
N1819 N 0.67741 0.24984 0.13665 0.0
H1820 H 0.30799 0.94071 0.86814 0.0
H1821 H 0.46709 0.01765 0.9164 0.0
H1822 H 0.32683 0.01677 0.86526 0.0
H1823 H 0.48233 0.94159 0.91279 0.0
H1824 H 0.40921 0.01787 0.8989 0.0
H1825 H 0.36488 0.9408 0.88578 0.0
C1826 C 0.32388 0.95745 0.87127 0.0
C1827 C 0.31269 0.97876 0.86523 0.0
C1828 C 0.42533 0.00114 0.90191 0.0
C1829 C 0.3778 0.97903 0.88545 0.0
C1830 C 0.4583 0.00101 0.91191 0.0
C1831 C 0.47965 0.97958 0.91603 0.0
C1832 C 0.4131 0.97964 0.89607 0.0
C1833 C 0.46691 0.95853 0.90988 0.0
C1834 C 0.35655 0.95748 0.88131 0.0
C1835 C 0.33453 -7e-05 0.86965 0.0
N1836 N 0.43434 0.95907 0.90026 0.0
N1837 N 0.36589 -0.00045 0.8795 0.0
H1838 H 0.47988 0.78146 0.87235 0.0
H1839 H 0.32583 0.70492 0.92157 0.0
H1840 H 0.46333 0.70522 0.87002 0.0
H1841 H 0.3081 0.78078 0.91755 0.0
H1842 H 0.38173 0.70454 0.90374 0.0
H1843 H 0.42297 0.78151 0.88997 0.0
C1844 C 0.46441 0.7647 0.87559 0.0
C1845 C 0.47637 0.74329 0.86972 0.0
C1846 C 0.36545 0.72126 0.90672 0.0
C1847 C 0.41123 0.7432 0.88994 0.0
C1848 C 0.3336 0.72149 0.9169 0.0
C1849 C 0.3122 0.74291 0.92102 0.0
C1850 C 0.37656 0.74267 0.90067 0.0
C1851 C 0.32361 0.76386 0.91465 0.0
C1852 C 0.43173 0.76476 0.88562 0.0
C1853 C 0.45504 0.72212 0.87428 0.0
N1854 N 0.3552 0.76324 0.90484 0.0
N1855 N 0.42369 0.72259 0.88413 0.0
H1856 H 0.11286 0.67965 0.08093 0.0
H1857 H 0.18417 0.54173 0.07625 0.0
H1858 H 0.26843 0.65269 0.08023 0.0
H1859 H 0.03332 0.56901 0.06753 0.0
H1860 H 0.21497 0.58254 0.07861 0.0
H1861 H 0.08118 0.63901 0.07721 0.0
C1862 C 0.14022 0.66525 0.08001 0.0
C1863 C 0.19325 0.66956 0.08084 0.0
C1864 C 0.17521 0.57957 0.07609 0.0
C1865 C 0.15767 0.62339 0.07663 0.0
C1866 C 0.15768 0.55627 0.07471 0.0
C1867 C 0.10612 0.55192 0.07172 0.0
C1868 C 0.1408 0.59862 0.07459 0.0
C1869 C 0.07345 0.57149 0.06984 0.0
C1870 C 0.12224 0.64215 0.07783 0.0
C1871 C 0.22717 0.65029 0.07957 0.0
N1872 N 0.09123 0.59401 0.07141 0.0
N1873 N 0.20879 0.62809 0.07757 0.0
H1874 H 0.18516 0.68115 0.20262 0.0
H1875 H 0.11542 0.54288 0.19828 0.0
H1876 H 0.03461 0.65315 0.21138 0.0
H1877 H 0.27087 0.57027 0.19996 0.0
H1878 H 0.08329 0.58347 0.20153 0.0
H1879 H 0.21639 0.64044 0.20027 0.0
C1880 C 0.15883 0.66646 0.20415 0.0
C1881 C 0.10731 0.67053 0.20721 0.0
C1882 C 0.12441 0.58045 0.20123 0.0
C1883 C 0.14242 0.62404 0.20437 0.0
C1884 C 0.14267 0.55737 0.19933 0.0
C1885 C 0.19579 0.55321 0.19891 0.0
C1886 C 0.15966 0.59933 0.20255 0.0
C1887 C 0.22954 0.57259 0.20031 0.0
C1888 C 0.1766 0.64325 0.20279 0.0
C1889 C 0.07475 0.65083 0.20905 0.0
N1890 N 0.21091 0.59478 0.20203 0.0
N1891 N 0.09277 0.62841 0.20752 0.0
H1892 H 0.9344 0.29542 0.95615 0.0
H1893 H 0.8495 0.43113 0.94999 0.0
H1894 H 0.78139 0.31933 0.9653 0.0
H1895 H 1.0075 0.40829 0.9535 0.0
H1896 H 0.82168 0.38991 0.95389 0.0
H1897 H 0.96076 0.33689 0.9536 0.0
C1898 C 0.90653 0.30937 0.95774 0.0
C1899 C 0.85574 0.30391 0.96096 0.0
C1900 C 0.86238 0.39412 0.95385 0.0
C1901 C 0.88524 0.35128 0.95786 0.0
C1902 C 0.87818 0.41754 0.95158 0.0
C1903 C 0.93077 0.42318 0.95146 0.0
C1904 C 0.89958 0.37638 0.95581 0.0
C1905 C 0.96646 0.40489 0.95358 0.0
C1906 C 0.92151 0.33303 0.95627 0.0
C1907 C 0.82109 0.32272 0.96287 0.0
N1908 N 0.95021 0.38236 0.95561 0.0
N1909 N 0.83636 0.3456 0.96118 0.0
H1910 H 0.93193 0.42915 0.82646 0.0
H1911 H 0.86048 0.29191 0.834 0.0
H1912 H 0.78001 0.40128 0.81903 0.0
H1913 H 1.01611 0.31776 0.82938 0.0
H1914 H 0.82891 0.33228 0.82995 0.0
H1915 H 0.96306 0.38838 0.82885 0.0
C1916 C 0.90528 0.41448 0.82522 0.0
C1917 C 0.85339 0.41861 0.82254 0.0
C1918 C 0.86993 0.32896 0.82977 0.0
C1919 C 0.88838 0.37209 0.82544 0.0
C1920 C 0.8879 0.30599 0.83212 0.0
C1921 C 0.94092 0.30145 0.83203 0.0
C1922 C 0.90536 0.34739 0.82748 0.0
C1923 C 0.97485 0.32035 0.82951 0.0
C1924 C 0.923 0.39124 0.82659 0.0
C1925 C 0.82043 0.39894 0.82106 0.0
N1926 N 0.9565 0.34248 0.82741 0.0
N1927 N 0.83839 0.37651 0.82263 0.0
H1928 H 0.18413 0.0446 0.58302 0.0
H1929 H 0.10593 0.18168 0.58417 0.0
H1930 H 0.033 0.0696 0.57289 0.0
H1931 H 0.26334 0.15744 0.58175 0.0
H1932 H 0.07698 0.14033 0.58163 0.0
H1933 H 0.21347 0.08604 0.58403 0.0
C1934 C 0.15733 0.05874 0.5809 0.0
C1935 C 0.10614 0.05364 0.57788 0.0
C1936 C 0.11783 0.14422 0.58159 0.0
C1937 C 0.13897 0.10085 0.57921 0.0
C1938 C 0.13428 0.16775 0.58307 0.0
C1939 C 0.18701 0.17303 0.58314 0.0
C1940 C 0.15449 0.126 0.58036 0.0
C1941 C 0.22222 0.15429 0.58169 0.0
C1942 C 0.17399 0.08235 0.5815 0.0
C1943 C 0.07289 0.07266 0.57526 0.0
N1944 N 0.20533 0.13162 0.58043 0.0
N1945 N 0.08977 0.09543 0.57609 0.0
H1946 H 0.02635 0.15364 0.71516 0.0
H1947 H 0.27127 0.07143 0.70538 0.0
H1948 H 0.17681 0.18106 0.70587 0.0
H1949 H 0.11565 0.04423 0.7039 0.0
H1950 H 0.23784 0.11141 0.70783 0.0
H1951 H 0.0595 0.11326 0.7135 0.0
C1952 C 0.06652 0.15121 0.71287 0.0
C1953 C 0.09896 0.17079 0.71064 0.0
C1954 C 0.21095 0.09674 0.70696 0.0
C1955 C 0.13679 0.12457 0.70868 0.0
C1956 C 0.22993 0.07384 0.70561 0.0
C1957 C 0.19609 0.05442 0.70448 0.0
C1958 C 0.1577 0.10035 0.70728 0.0
C1959 C 0.14301 0.05872 0.70472 0.0
C1960 C 0.08522 0.12812 0.71185 0.0
C1961 C 0.15048 0.1665 0.70765 0.0
N1962 N 0.12534 0.08131 0.70616 0.0
N1963 N 0.16785 0.1438 0.70677 0.0
H1964 H 0.782 0.81578 0.46437 0.0
H1965 H 0.02312 0.90058 0.45393 0.0
H1966 H 0.93108 0.79031 0.45296 0.0
H1967 H 0.86683 0.92665 0.4539 0.0
H1968 H 0.99097 0.86025 0.45607 0.0
H1969 H 0.81407 0.85648 0.46328 0.0
C1970 C 0.82168 0.81867 0.46175 0.0
C1971 C 0.85395 0.79953 0.45871 0.0
C1972 C 0.96363 0.87474 0.45558 0.0
C1973 C 0.89053 0.84619 0.45742 0.0
C1974 C 0.98187 0.89785 0.45441 0.0
C1975 C 0.94749 0.91706 0.45379 0.0
C1976 C 0.91056 0.87068 0.45623 0.0
C1977 C 0.89457 0.91233 0.45433 0.0
C1978 C 0.83973 0.84197 0.46105 0.0
C1979 C 0.90486 0.80448 0.45536 0.0
N1980 N 0.87761 0.88951 0.45559 0.0
N1981 N 0.92159 0.82738 0.45479 0.0
H1982 H 0.02438 0.81988 0.33037 0.0
H1983 H 0.78041 0.9038 0.32457 0.0
H1984 H 0.86859 0.79374 0.33416 0.0
H1985 H 0.93266 0.93014 0.33301 0.0
H1986 H 0.81298 0.86328 0.32527 0.0
H1987 H 0.9917 0.86015 0.32863 0.0
C1988 C 0.98315 0.82256 0.33078 0.0
C1989 C 0.94903 0.80337 0.33239 0.0
C1990 C 0.83923 0.87793 0.32694 0.0
C1991 C 0.91159 0.84961 0.3304 0.0
C1992 C 0.82086 0.90112 0.32648 0.0
C1993 C 0.85398 0.92043 0.32874 0.0
C1994 C 0.89117 0.874 0.32958 0.0
C1995 C 0.90584 0.91579 0.33122 0.0
C1996 C 0.96465 0.84563 0.32984 0.0
C1997 C 0.89615 0.80803 0.33293 0.0
N1998 N 0.92291 0.89297 0.33156 0.0
N1999 N 0.87894 0.83078 0.3319 0.0
H2000 H 0.52958 0.57002 0.56673 0.0
H2001 H 0.76817 0.65427 0.58065 0.0
H2002 H 0.67771 0.54385 0.57839 0.0
H2003 H 0.61166 0.68002 0.5801 0.0
H2004 H 0.73677 0.61406 0.57758 0.0
H2005 H 0.56084 0.61065 0.56907 0.0
C2006 C 0.56891 0.57277 0.56967 0.0
C2007 C 0.60117 0.55346 0.5724 0.0
C2008 C 0.70921 0.62845 0.57814 0.0
C2009 C 0.63677 0.59999 0.57513 0.0
C2010 C 0.72702 0.65148 0.57985 0.0
C2011 C 0.69236 0.67056 0.58055 0.0
C2012 C 0.6563 0.62436 0.57703 0.0
C2013 C 0.63958 0.66579 0.57961 0.0
C2014 C 0.58647 0.59601 0.57108 0.0
C2015 C 0.65158 0.55818 0.57619 0.0
N2016 N 0.62305 0.64305 0.57781 0.0
N2017 N 0.66785 0.58103 0.57746 0.0
H2018 H 0.60625 0.54187 0.69791 0.0
H2019 H 0.68279 0.67915 0.70263 0.0
H2020 H 0.76283 0.56646 0.70241 0.0
H2021 H 0.53042 0.6527 0.71088 0.0
H2022 H 0.71255 0.63797 0.7008 0.0
H2023 H 0.57652 0.58292 0.70079 0.0
C2024 C 0.63426 0.55583 0.69952 0.0
C2025 C 0.68697 0.55072 0.69997 0.0
C2026 C 0.67269 0.64127 0.7031 0.0
C2027 C 0.65356 0.59745 0.70314 0.0
C2028 C 0.65576 0.66473 0.70415 0.0
C2029 C 0.60415 0.66936 0.70693 0.0
C2030 C 0.63753 0.62244 0.70467 0.0
C2031 C 0.57065 0.64999 0.70876 0.0
C2032 C 0.61735 0.57919 0.70119 0.0
C2033 C 0.72173 0.5695 0.70208 0.0
N2034 N 0.58784 0.62738 0.70751 0.0
N2035 N 0.70443 0.59203 0.70352 0.0
H2036 H 0.51439 0.40572 0.45365 0.0
H2037 H 0.27951 0.31787 0.46479 0.0
H2038 H 0.35656 0.42815 0.4492 0.0
H2039 H 0.43239 0.2939 0.45554 0.0
H2040 H 0.30787 0.35897 0.46219 0.0
H2041 H 0.48505 0.36541 0.45733 0.0
C2042 C 0.47337 0.40223 0.4535 0.0
C2043 C 0.43775 0.42043 0.45114 0.0
C2044 C 0.33514 0.34469 0.46078 0.0
C2045 C 0.40408 0.37399 0.45536 0.0
C2046 C 0.31925 0.32121 0.46235 0.0
C2047 C 0.35376 0.30236 0.46038 0.0
C2048 C 0.38602 0.34939 0.45736 0.0
C2049 C 0.40454 0.30784 0.45714 0.0
C2050 C 0.45677 0.3791 0.45554 0.0
C2051 C 0.38524 0.41464 0.45096 0.0
N2052 N 0.41918 0.3309 0.45575 0.0
N2053 N 0.36986 0.39183 0.4531 0.0
H2054 H 0.52044 0.32113 0.33591 0.0
H2055 H 0.28331 0.40294 0.31775 0.0
H2056 H 0.36558 0.29373 0.33253 0.0
H2057 H 0.43093 0.43024 0.32932 0.0
H2058 H 0.31431 0.36252 0.32101 0.0
H2059 H 0.48907 0.36084 0.33177 0.0
C2060 C 0.47964 0.32348 0.33429 0.0
C2061 C 0.4455 0.30407 0.33449 0.0
C2062 C 0.3399 0.37737 0.32278 0.0
C2063 C 0.40934 0.34973 0.32972 0.0
C2064 C 0.32246 0.40046 0.32084 0.0
C2065 C 0.35464 0.42003 0.3233 0.0
C2066 C 0.3899 0.37383 0.32713 0.0
C2067 C 0.40482 0.41571 0.32732 0.0
C2068 C 0.46179 0.34623 0.33195 0.0
C2069 C 0.39308 0.30825 0.33247 0.0
N2070 N 0.42088 0.39304 0.32914 0.0
N2071 N 0.37651 0.33073 0.33009 0.0
H2072 H 0.68845 0.04344 0.0828 0.0
H2073 H 0.6125 0.18069 0.08576 0.0
H2074 H 0.53603 0.06926 0.07444 0.0
H2075 H 0.76878 0.15649 0.08074 0.0
H2076 H 0.58279 0.1394 0.08363 0.0
H2077 H 0.7186 0.08479 0.08394 0.0
C2078 C 0.6615 0.05774 0.08112 0.0
C2079 C 0.60977 0.0529 0.07851 0.0
C2080 C 0.62354 0.14327 0.08294 0.0
C2081 C 0.64355 0.09996 0.07998 0.0
C2082 C 0.64044 0.16676 0.08419 0.0
C2083 C 0.69305 0.17204 0.08337 0.0
C2084 C 0.65968 0.12504 0.08106 0.0
C2085 C 0.72774 0.1533 0.08134 0.0
C2086 C 0.67864 0.08128 0.08177 0.0
C2087 C 0.57635 0.07212 0.07645 0.0
N2088 N 0.71046 0.13063 0.08032 0.0
N2089 N 0.59374 0.0948 0.07732 0.0
H2090 H 0.68657 0.18269 0.20644 0.0
H2091 H 0.61581 0.04435 0.20405 0.0
H2092 H 0.53549 0.15529 0.21519 0.0
H2093 H 0.77154 0.07129 0.20603 0.0
H2094 H 0.58412 0.08521 0.20651 0.0
H2095 H 0.71783 0.1418 0.20487 0.0
C2096 C 0.66013 0.16811 0.20813 0.0
C2097 C 0.60844 0.1724 0.21095 0.0
C2098 C 0.62521 0.08204 0.20644 0.0
C2099 C 0.64356 0.12573 0.209 0.0
C2100 C 0.64321 0.0588 0.20499 0.0
C2101 C 0.69626 0.05443 0.20489 0.0
C2102 C 0.66065 0.10088 0.20764 0.0
C2103 C 0.73024 0.07378 0.20615 0.0
C2104 C 0.67791 0.1448 0.20722 0.0
C2105 C 0.57574 0.15283 0.21302 0.0
N2106 N 0.71186 0.09614 0.20743 0.0
N2107 N 0.59377 0.13033 0.21191 0.0
H2108 H 0.27777 0.81967 0.96202 0.0
H2109 H 0.52447 0.90219 0.95464 0.0
H2110 H 0.42811 0.79248 0.95275 0.0
H2111 H 0.36929 0.92935 0.9525 0.0
H2112 H 0.49042 0.86209 0.95641 0.0
H2113 H 0.31187 0.86 0.96115 0.0
C2114 C 0.31813 0.82213 0.95989 0.0
C2115 C 0.35024 0.80263 0.95744 0.0
C2116 C 0.46379 0.87679 0.95555 0.0
C2117 C 0.38919 0.84885 0.9564 0.0
C2118 C 0.48309 0.89976 0.95459 0.0
C2119 C 0.44954 0.9192 0.95346 0.0
C2120 C 0.41051 0.87313 0.95547 0.0
C2121 C 0.39643 0.91486 0.95335 0.0
C2122 C 0.33738 0.84521 0.95933 0.0
C2123 C 0.40204 0.80698 0.9547 0.0
N2124 N 0.37844 0.8922 0.9544 0.0
N2125 N 0.41998 0.8297 0.95426 0.0
H2126 H 0.36336 0.79143 0.83435 0.0
H2127 H 0.43029 0.93026 0.83298 0.0
H2128 H 0.51771 0.81913 0.83018 0.0
H2129 H 0.27798 0.90237 0.826 0.0
H2130 H 0.4629 0.88942 0.83361 0.0
H2131 H 0.33038 0.83223 0.83299 0.0
C2132 C 0.3902 0.80602 0.83312 0.0
C2133 C 0.44324 0.80187 0.83233 0.0
C2134 C 0.42239 0.89233 0.83187 0.0
C2135 C 0.40613 0.84832 0.83089 0.0
C2136 C 0.40383 0.9156 0.83152 0.0
C2137 C 0.35146 0.91972 0.82941 0.0
C2138 C 0.38815 0.87316 0.83025 0.0
C2139 C 0.31876 0.90006 0.8276 0.0
C2140 C 0.37145 0.82925 0.83232 0.0
C2141 C 0.47644 0.82143 0.83076 0.0
N2142 N 0.33759 0.87762 0.82814 0.0
N2143 N 0.45735 0.84379 0.83015 0.0
H2144 H 0.67916 0.46929 0.09005 0.0
H2145 H 0.40315 0.47952 0.05798 0.0
H2146 H 0.65841 0.49466 0.05362 0.0
H2147 H 0.42541 0.45282 0.09411 0.0
H2148 H 0.49637 0.48474 0.05607 0.0
H2149 H 0.58665 0.462 0.09141 0.0
C2150 C 0.65536 0.4731 0.08227 0.0
C2151 C 0.677 0.48267 0.0717 0.0
C2152 C 0.48086 0.47767 0.06441 0.0
C2153 C 0.57024 0.4747 0.0733 0.0
C2154 C 0.42751 0.47481 0.06554 0.0
C2155 C 0.40607 0.46568 0.07623 0.0
C2156 C 0.51329 0.47145 0.07405 0.0
C2157 C 0.43995 0.4596 0.08563 0.0
C2158 C 0.60231 0.4691 0.0831 0.0
C2159 C 0.64363 0.48761 0.06202 0.0
N2160 N 0.49164 0.46264 0.08432 0.0
N2161 N 0.59208 0.48363 0.06307 0.0
H2162 H 0.62413 0.75161 0.0711 0.0
H2163 H 0.89137 0.7264 0.10493 0.0
H2164 H 0.63564 0.71388 0.1049 0.0
H2165 H 0.87984 0.76472 0.0713 0.0
H2166 H 0.79793 0.72124 0.10495 0.0
H2167 H 0.71752 0.757 0.07113 0.0
C2168 C 0.64617 0.74465 0.07859 0.0
C2169 C 0.62177 0.73224 0.08801 0.0
C2170 C 0.81582 0.73075 0.09755 0.0
C2171 C 0.72916 0.73805 0.088 0.0
C2172 C 0.8693 0.73354 0.09748 0.0
C2173 C 0.89371 0.74602 0.08809 0.0
C2174 C 0.78626 0.74046 0.08816 0.0
C2175 C 0.86278 0.75523 0.0788 0.0
C2176 C 0.69963 0.74758 0.07855 0.0
C2177 C 0.65268 0.72329 0.09737 0.0
N2178 N 0.81079 0.75227 0.07907 0.0
N2179 N 0.70463 0.72634 0.09712 0.0
H2180 H 0.67362 0.72044 0.18846 0.0
H2181 H 0.41301 0.76205 0.22098 0.0
H2182 H 0.6684 0.74895 0.22458 0.0
H2183 H 0.41796 0.73128 0.18534 0.0
H2184 H 0.50632 0.75741 0.22248 0.0
H2185 H 0.58031 0.72506 0.18701 0.0
C2186 C 0.65299 0.72788 0.19606 0.0
C2187 C 0.67916 0.73432 0.20666 0.0
C2188 C 0.487 0.75163 0.21434 0.0
C2189 C 0.57176 0.73938 0.20511 0.0
C2190 C 0.43356 0.75411 0.2135 0.0
C2191 C 0.40729 0.74706 0.20301 0.0
C2192 C 0.5147 0.74201 0.20461 0.0
C2193 C 0.43642 0.73729 0.19354 0.0
C2194 C 0.59955 0.73034 0.19525 0.0
C2195 C 0.64996 0.74347 0.21627 0.0
N2196 N 0.48839 0.73508 0.19457 0.0
N2197 N 0.59798 0.74572 0.21527 0.0
H2198 H 0.89414 0.49818 0.17546 0.0
H2199 H 0.62617 0.46973 0.20852 0.0
H2200 H 0.88165 0.4563 0.20797 0.0
H2201 H 0.63858 0.511 0.17581 0.0
H2202 H 0.71947 0.46423 0.20835 0.0
H2203 H 0.80078 0.50348 0.17557 0.0
C2204 C 0.87189 0.49027 0.18269 0.0
C2205 C 0.89601 0.47676 0.19172 0.0
C2206 C 0.70179 0.47446 0.2012 0.0
C2207 C 0.78864 0.48248 0.19181 0.0
C2208 C 0.64838 0.47746 0.20123 0.0
C2209 C 0.62426 0.49089 0.19217 0.0
C2210 C 0.73157 0.48495 0.19203 0.0
C2211 C 0.6554 0.50079 0.18308 0.0
C2212 C 0.81845 0.49315 0.1827 0.0
C2213 C 0.86483 0.46661 0.20074 0.0
N2214 N 0.7073 0.49764 0.18325 0.0
N2215 N 0.8129 0.46967 0.20055 0.0
H2216 H 0.60767 0.54063 0.93181 0.0
H2217 H 0.37847 0.45667 0.95511 0.0
H2218 H 0.63139 0.47354 0.94994 0.0
H2219 H 0.35363 0.52365 0.93696 0.0
H2220 H 0.47111 0.46318 0.95376 0.0
H2221 H 0.51476 0.53517 0.93391 0.0
C2222 C 0.59341 0.5247 0.93621 0.0
C2223 C 0.62762 0.50747 0.94066 0.0
C2224 C 0.44546 0.47651 0.95009 0.0
C2225 C 0.52093 0.50122 0.9432 0.0
C2226 C 0.3924 0.47288 0.95093 0.0
C2227 C 0.35792 0.48968 0.94619 0.0
C2228 C 0.46456 0.49709 0.94444 0.0
C2229 C 0.37859 0.51008 0.94064 0.0
C2230 C 0.54027 0.52167 0.93746 0.0
C2231 C 0.60669 0.48743 0.94647 0.0
N2232 N 0.43049 0.5132 0.93992 0.0
N2233 N 0.55481 0.48483 0.94753 0.0
H2234 H 0.42855 0.24484 0.93999 0.0
H2235 H 0.162 0.21111 0.97246 0.0
H2236 H 0.41665 0.22608 0.97763 0.0
H2237 H 0.17407 0.23145 0.93502 0.0
H2238 H 0.25517 0.21607 0.97451 0.0
H2239 H 0.33576 0.23888 0.93788 0.0
C2240 C 0.40657 0.23925 0.94779 0.0
C2241 C 0.43067 0.23599 0.95901 0.0
C2242 C 0.23743 0.21944 0.96584 0.0
C2243 C 0.32388 0.22942 0.95669 0.0
C2244 C 0.18411 0.21676 0.96468 0.0
C2245 C 0.15991 0.22083 0.95354 0.0
C2246 C 0.26702 0.2263 0.9558 0.0
C2247 C 0.19093 0.22776 0.94374 0.0
C2248 C 0.35343 0.23601 0.9466 0.0
C2249 C 0.3998 0.22911 0.96884 0.0
N2250 N 0.2427 0.23028 0.94511 0.0
N2251 N 0.34814 0.22608 0.96746 0.0
H2252 H 0.64652 0.25551 0.83576 0.0
H2253 H 0.3643 0.19904 0.84356 0.0
H2254 H 0.61903 0.18397 0.84849 0.0
H2255 H 0.39288 0.2711 0.83172 0.0
H2256 H 0.45727 0.19278 0.84501 0.0
H2257 H 0.55376 0.26093 0.83351 0.0
C2258 C 0.62109 0.24085 0.83799 0.0
C2259 C 0.6409 0.21925 0.84235 0.0
C2260 C 0.44317 0.20994 0.84206 0.0
C2261 C 0.53411 0.22548 0.83993 0.0
C2262 C 0.39 0.21358 0.84129 0.0
C2263 C 0.37041 0.23564 0.83749 0.0
C2264 C 0.47726 0.22849 0.83903 0.0
C2265 C 0.40591 0.25367 0.83451 0.0
C2266 C 0.56799 0.24402 0.83678 0.0
C2267 C 0.60569 0.20105 0.84527 0.0
N2268 N 0.4574 0.24971 0.83537 0.0
N2269 N 0.55416 0.20459 0.84402 0.0
H2270 H 0.17332 0.52652 0.83932 0.0
H2271 H 0.40509 0.45188 0.81044 0.0
H2272 H 0.15087 0.46739 0.81502 0.0
H2273 H 0.42746 0.51227 0.83394 0.0
H2274 H 0.31216 0.45737 0.81194 0.0
H2275 H 0.26628 0.52136 0.83757 0.0
C2276 C 0.18785 0.51233 0.83367 0.0
C2277 C 0.15391 0.49729 0.82736 0.0
C2278 C 0.33735 0.46945 0.81677 0.0
C2279 C 0.26092 0.49147 0.8252 0.0
C2280 C 0.39059 0.46643 0.81585 0.0
C2281 C 0.42452 0.48169 0.82203 0.0
C2282 C 0.31749 0.48785 0.82394 0.0
C2283 C 0.40304 0.49989 0.82911 0.0
C2284 C 0.24108 0.5095 0.83261 0.0
C2285 C 0.17534 0.47955 0.81997 0.0
N2286 N 0.35104 0.50246 0.82986 0.0
N2287 N 0.22735 0.47711 0.81913 0.0
H2288 H 0.41863 0.95638 0.56637 0.0
H2289 H 0.6662 0.01173 0.59938 0.0
H2290 H 0.41076 -0.0026 0.59922 0.0
H2291 H 0.67397 0.97097 0.56645 0.0
H2292 H 0.57278 0.00658 0.5995 0.0
H2293 H 0.51206 0.9615 0.56626 0.0
C2294 C 0.4365 0.96643 0.57358 0.0
C2295 C 0.40657 0.97642 0.58283 0.0
C2296 C 0.59489 -0.00128 0.59225 0.0
C2297 C 0.51393 0.98247 0.58272 0.0
C2298 C 0.64831 0.00173 0.59215 0.0
C2299 C 0.67822 -0.00817 0.58287 0.0
C2300 C 0.57086 0.98574 0.583 0.0
C2301 C 0.65274 0.9787 0.57387 0.0
C2302 C 0.48993 0.96942 0.57349 0.0
C2303 C 0.43202 -0.0104 0.59182 0.0
N2304 N 0.60064 0.97611 0.57414 0.0
N2305 N 0.48412 -0.00783 0.59156 0.0
H2306 H 0.6328 0.20096 0.58536 0.0
H2307 H 0.86539 0.29488 0.58738 0.0
H2308 H 0.61074 0.27705 0.58398 0.0
H2309 H 0.88553 0.21872 0.58919 0.0
H2310 H 0.77252 0.28885 0.58539 0.0
H2311 H 0.72562 0.20727 0.58583 0.0
C2312 C 0.6474 0.21902 0.58501 0.0
C2313 C 0.61362 0.23849 0.58458 0.0
C2314 C 0.79728 0.27345 0.58618 0.0
C2315 C 0.72051 0.24587 0.58533 0.0
C2316 C 0.85035 0.27688 0.58738 0.0
C2317 C 0.88354 0.25728 0.58851 0.0
C2318 C 0.77697 0.25025 0.58613 0.0
C2319 C 0.86171 0.23437 0.58821 0.0
C2320 C 0.70057 0.22261 0.58537 0.0
C2321 C 0.63513 0.26149 0.58444 0.0
N2322 N 0.80992 0.23151 0.58711 0.0
N2323 N 0.68713 0.26453 0.58482 0.0
H2324 H 0.65104 0.20531 0.72317 0.0
H2325 H 0.41936 0.27927 0.69382 0.0
H2326 H 0.67343 0.26509 0.69924 0.0
H2327 H 0.39681 0.22083 0.71856 0.0
H2328 H 0.51231 0.27424 0.69566 0.0
H2329 H 0.55812 0.21091 0.72173 0.0
C2330 C 0.63655 0.21976 0.71769 0.0
C2331 C 0.67047 0.23479 0.71135 0.0
C2332 C 0.48709 0.26251 0.70069 0.0
C2333 C 0.56347 0.24108 0.70951 0.0
C2334 C 0.43387 0.26527 0.69959 0.0
C2335 C 0.39992 0.25036 0.70599 0.0
C2336 C 0.50691 0.24468 0.70825 0.0
C2337 C 0.42131 0.23287 0.71353 0.0
C2338 C 0.58332 0.22284 0.71681 0.0
C2339 C 0.649 0.25287 0.70419 0.0
N2340 N 0.47332 0.23048 0.71442 0.0
N2341 N 0.59701 0.25549 0.70347 0.0
H2342 H 0.89073 0.96747 0.71624 0.0
H2343 H 0.62867 -0.00023 0.68175 0.0
H2344 H 0.88442 -0.01035 0.67899 0.0
H2345 H 0.63528 0.97998 0.71933 0.0
H2346 H 0.72204 -0.00477 0.68045 0.0
H2347 H 0.79733 0.9719 0.71756 0.0
C2348 C 0.86985 0.97349 0.70836 0.0
C2349 C 0.89571 0.97817 0.69748 0.0
C2350 C 0.70309 -0.00816 0.68898 0.0
C2351 C 0.7883 0.98294 0.69888 0.0
C2352 C 0.64964 -0.00576 0.6897 0.0
C2353 C 0.62389 -0.00974 0.70067 0.0
C2354 C 0.73125 0.98534 0.69929 0.0
C2355 C 0.65343 0.98353 0.71072 0.0
C2356 C 0.81638 0.97584 0.7091 0.0
C2357 C 0.86623 0.98551 0.68753 0.0
N2358 N 0.70541 0.9813 0.70979 0.0
N2359 N 0.81424 -0.01236 0.68847 0.0
H2360 H 0.64211 0.00255 0.46603 0.0
H2361 H 0.37949 0.97373 0.43083 0.0
H2362 H 0.63549 0.98394 0.4283 0.0
H2363 H 0.3865 -0.00984 0.46882 0.0
H2364 H 0.47294 0.97833 0.42963 0.0
H2365 H 0.54864 -0.00186 0.46723 0.0
C2366 C 0.62114 -0.00268 0.45801 0.0
C2367 C 0.64696 -0.00637 0.44704 0.0
C2368 C 0.45405 0.98097 0.43823 0.0
C2369 C 0.53944 -0.01111 0.44831 0.0
C2370 C 0.40056 0.97853 0.4389 0.0
C2371 C 0.3749 0.98154 0.44995 0.0
C2372 C 0.48234 0.98652 0.44866 0.0
C2373 C 0.40457 -0.01263 0.46014 0.0
C2374 C 0.56763 -0.00502 0.45869 0.0
C2375 C 0.61735 -0.01271 0.43691 0.0
N2376 N 0.45658 -0.01035 0.45925 0.0
N2377 N 0.56531 0.98515 0.4378 0.0
H2378 H 0.42858 0.69635 0.45578 0.0
H2379 H 0.14788 0.75569 0.45342 0.0
H2380 H 0.40123 0.77192 0.45834 0.0
H2381 H 0.17317 0.6799 0.45136 0.0
H2382 H 0.24054 0.76174 0.45556 0.0
H2383 H 0.33556 0.68978 0.45415 0.0
C2384 C 0.40315 0.71158 0.45596 0.0
C2385 C 0.42309 0.73473 0.45725 0.0
C2386 C 0.22588 0.74376 0.45466 0.0
C2387 C 0.31616 0.7273 0.45547 0.0
C2388 C 0.17276 0.74027 0.45352 0.0
C2389 C 0.15229 0.71722 0.45221 0.0
C2390 C 0.25922 0.7241 0.45448 0.0
C2391 C 0.18698 0.69802 0.45219 0.0
C2392 C 0.34994 0.70779 0.45509 0.0
C2393 C 0.38789 0.75371 0.45757 0.0
N2394 N 0.23857 0.70188 0.45329 0.0
N2395 N 0.3364 0.74958 0.45667 0.0
H2396 H 0.37773 0.71801 0.32254 0.0
H2397 H 0.64672 0.74995 0.35426 0.0
H2398 H 0.39117 0.76284 0.35399 0.0
H2399 H 0.63308 0.70455 0.32303 0.0
H2400 H 0.55338 0.75534 0.35414 0.0
H2401 H 0.47102 0.71254 0.32269 0.0
C2402 C 0.40017 0.72653 0.32955 0.0
C2403 C 0.37634 0.74094 0.33826 0.0
C2404 C 0.57079 0.74422 0.3473 0.0
C2405 C 0.48363 0.73504 0.33838 0.0
C2406 C 0.62422 0.74128 0.34731 0.0
C2407 C 0.64799 0.72674 0.33865 0.0
C2408 C 0.54069 0.73258 0.33856 0.0
C2409 C 0.61652 0.71566 0.32998 0.0
C2410 C 0.45357 0.72355 0.32958 0.0
C2411 C 0.40776 0.75184 0.347 0.0
N2412 N 0.56463 0.71879 0.33017 0.0
N2413 N 0.45965 0.74869 0.34682 0.0
H2414 H 0.17292 0.02278 0.34932 0.0
H2415 H 0.40814 0.95873 0.31587 0.0
H2416 H 0.15367 0.97313 0.31995 0.0
H2417 H 0.42738 0.00953 0.34473 0.0
H2418 H 0.31508 0.96394 0.31715 0.0
H2419 H 0.26602 0.01789 0.34787 0.0
C2420 C 0.18819 0.0107 0.34261 0.0
C2421 C 0.15516 -0.00174 0.33478 0.0
C2422 C 0.33963 0.97398 0.3232 0.0
C2423 C 0.26225 -0.00717 0.33296 0.0
C2424 C 0.39291 0.97114 0.32242 0.0
C2425 C 0.42593 0.98377 0.33018 0.0
C2426 C 0.31886 -0.01046 0.33182 0.0
C2427 C 0.40359 -0.00079 0.33865 0.0
C2428 C 0.24148 0.00805 0.34174 0.0
C2429 C 0.17749 0.98326 0.32611 0.0
N2430 N 0.35156 0.00166 0.33923 0.0
N2431 N 0.22954 0.98094 0.32545 0.0
H2432 H 0.16694 0.47633 0.55682 0.0
H2433 H 0.90779 0.48905 0.5956 0.0
H2434 H 0.16315 0.50218 0.59345 0.0
H2435 H 0.91092 0.46434 0.55875 0.0
H2436 H 1.00124 0.4939 0.59497 0.0
H2437 H 0.07353 0.47102 0.55748 0.0
C2438 C 0.14658 0.48068 0.56505 0.0
C2439 C 0.17313 0.48974 0.57509 0.0
C2440 C 0.98151 0.48746 0.58701 0.0
C2441 C 0.06577 0.48398 0.57586 0.0
C2442 C 0.92801 0.48484 0.58733 0.0
C2443 C 0.90122 0.4763 0.5772 0.0
C2444 C 1.00872 0.48152 0.57648 0.0
C2445 C 0.92986 0.47072 0.56683 0.0
C2446 C 0.09312 0.47781 0.56538 0.0
C2447 C 0.14437 0.49544 0.58543 0.0
N2448 N 0.98193 0.47343 0.56674 0.0
N2449 N 0.09238 0.49247 0.58554 0.0
H2450 H 0.39419 0.71111 0.58179 0.0
H2451 H 0.11616 0.76978 0.5916 0.0
H2452 H 0.37147 0.78416 0.59257 0.0
H2453 H 0.13929 0.69679 0.58076 0.0
H2454 H 0.20951 0.77556 0.59181 0.0
H2455 H 0.30086 0.70552 0.58142 0.0
C2456 C 0.36965 0.72596 0.58412 0.0
C2457 C 0.39092 0.74816 0.58719 0.0
C2458 C 0.19414 0.75827 0.5894 0.0
C2459 C 0.28374 0.74193 0.58668 0.0
C2460 C 0.14078 0.75499 0.58921 0.0
C2461 C 0.11965 0.73273 0.5862 0.0
C2462 C 0.22678 0.73918 0.58652 0.0
C2463 C 0.15368 0.71415 0.58334 0.0
C2464 C 0.31629 0.72279 0.58384 0.0
C2465 C 0.35698 0.76683 0.58997 0.0
N2466 N 0.20541 0.7178 0.58357 0.0
N2467 N 0.3052 0.76329 0.58966 0.0
H2468 H 0.90727 0.72309 0.6875 0.0
H2469 H 0.17417 0.75472 0.72029 0.0
H2470 H 0.91881 0.76856 0.71876 0.0
H2471 H 0.16278 0.71014 0.6887 0.0
H2472 H 0.08089 0.7602 0.71981 0.0
H2473 H 1.00056 0.71762 0.688 0.0
C2474 C 0.92929 0.73176 0.69454 0.0
C2475 C 0.90491 0.74634 0.7031 0.0
C2476 C 0.09879 0.74924 0.71297 0.0
C2477 C 1.01223 0.74039 0.70362 0.0
C2478 C 0.1522 0.74624 0.71318 0.0
C2479 C 0.17663 0.73191 0.70453 0.0
C2480 C 0.0693 0.73785 0.70403 0.0
C2481 C 0.14575 0.72107 0.69567 0.0
C2482 C 0.9827 0.72877 0.69476 0.0
C2483 C 0.93582 0.75742 0.71188 0.0
N2484 N 0.09385 0.72425 0.69565 0.0
N2485 N 0.98772 0.75422 0.7119 0.0
H2486 H 0.11347 0.4823 0.67501 0.0
H2487 H 0.38396 0.46601 0.70892 0.0
H2488 H 0.12925 0.48082 0.71375 0.0
H2489 H 0.36779 0.4692 0.67022 0.0
H2490 H 0.29076 0.47073 0.71091 0.0
H2491 H 0.20614 0.47604 0.67311 0.0
C2492 C 0.13626 0.48041 0.68313 0.0
C2493 C 0.11328 0.48213 0.69457 0.0
C2494 C 0.3076 0.47037 0.70198 0.0
C2495 C 0.21998 0.47528 0.69244 0.0
C2496 C 0.36094 0.46783 0.70084 0.0
C2497 C 0.38401 0.46717 0.68938 0.0
C2498 C 0.27687 0.47233 0.6916 0.0
C2499 C 0.35185 0.46925 0.67923 0.0
C2500 C 0.18935 0.47701 0.68203 0.0
C2501 C 0.14521 0.47994 0.70475 0.0
N2502 N 0.3001 0.47175 0.68058 0.0
N2503 N 0.1968 0.47667 0.70345 0.0
H2504 H 0.85914 0.51085 0.42978 0.0
H2505 H 0.13898 0.47873 0.45559 0.0
H2506 H 0.88598 0.45922 0.4579 0.0
H2507 H 0.11454 0.52447 0.42483 0.0
H2508 H 0.04604 0.47302 0.4572 0.0
H2509 H 0.95204 0.51814 0.42865 0.0
C2510 C 0.88449 0.50115 0.43577 0.0
C2511 C 0.86461 0.48428 0.4439 0.0
C2512 C 0.06099 0.48434 0.45011 0.0
C2513 C 0.97115 0.49244 0.4426 0.0
C2514 C 0.1142 0.48751 0.44913 0.0
C2515 C 0.13497 0.50207 0.44003 0.0
C2516 C 0.02795 0.49583 0.44195 0.0
C2517 C 0.10051 0.51334 0.43209 0.0
C2518 C 0.93757 0.50522 0.43507 0.0
C2519 C 0.8995 0.47209 0.45135 0.0
N2520 N 0.04884 0.50996 0.43322 0.0
N2521 N 0.9509 0.4764 0.45052 0.0
H2522 H 0.90591 0.27074 0.46789 0.0
H2523 H 0.67826 0.18311 0.4473 0.0
H2524 H 0.93211 0.20124 0.45252 0.0
H2525 H 0.65322 0.25289 0.46245 0.0
H2526 H 0.77105 0.18913 0.44934 0.0
H2527 H 0.81336 0.26408 0.4663 0.0
C2528 C 0.89229 0.25397 0.46426 0.0
C2529 C 0.92716 0.23648 0.4604 0.0
C2530 C 0.74528 0.20311 0.45224 0.0
C2531 C 0.82058 0.22886 0.45839 0.0
C2532 C 0.69219 0.19975 0.45102 0.0
C2533 C 0.6576 0.21755 0.45467 0.0
C2534 C 0.76423 0.22446 0.45714 0.0
C2535 C 0.67817 0.23854 0.45964 0.0
C2536 C 0.83928 0.25025 0.46329 0.0
C2537 C 0.90688 0.21534 0.45552 0.0
N2538 N 0.73001 0.24142 0.46069 0.0
N2539 N 0.85502 0.21213 0.45467 0.0
H2540 H 0.1368 0.21218 0.32422 0.0
H2541 H 0.88018 0.25528 0.35782 0.0
H2542 H 0.13597 0.24492 0.35943 0.0
H2543 H 0.88124 0.22437 0.3222 0.0
H2544 H 0.97364 0.25086 0.35874 0.0
H2545 H 0.04333 0.21653 0.32329 0.0
C2546 C 0.11708 0.2205 0.33171 0.0
C2547 C 0.14447 0.22819 0.34192 0.0
C2548 C 0.95345 0.245 0.35072 0.0
C2549 C 0.03705 0.23291 0.34099 0.0
C2550 C 0.89997 0.24735 0.35023 0.0
C2551 C 0.87266 0.24018 0.33991 0.0
C2552 C 0.98005 0.23537 0.34084 0.0
C2553 C 0.90066 0.23041 0.33028 0.0
C2554 C 0.06358 0.22281 0.33121 0.0
C2555 C 0.11652 0.23844 0.35144 0.0
N2556 N 0.95271 0.22829 0.33097 0.0
N2557 N 0.06446 0.24048 0.35074 0.0
H2558 H 0.92275 0.472 0.34211 0.0
H2559 H 0.66075 0.50975 0.30901 0.0
H2560 H 0.91614 0.49691 0.30532 0.0
H2561 H 0.66708 0.48232 0.34535 0.0
H2562 H 0.75407 0.5052 0.30747 0.0
H2563 H 0.82942 0.47651 0.34359 0.0
C2564 C 0.9018 0.47863 0.33437 0.0
C2565 C 0.92757 0.48408 0.32357 0.0
C2566 C 0.73505 0.50013 0.31578 0.0
C2567 C 0.82019 0.489 0.32516 0.0
C2568 C 0.6816 0.50256 0.31664 0.0
C2569 C 0.65574 0.49644 0.32734 0.0
C2570 C 0.76313 0.49151 0.32568 0.0
C2571 C 0.68524 0.48761 0.33698 0.0
C2572 C 0.84836 0.48103 0.33519 0.0
C2573 C 0.898 0.49221 0.31378 0.0
N2574 N 0.7372 0.48544 0.33592 0.0
N2575 N 0.84603 0.49441 0.31481 0.0
H2576 H 0.90601 0.01084 0.0757 0.0
H2577 H 0.18501 0.95534 0.08859 0.0
H2578 H 0.92986 0.94038 0.09016 0.0
H2579 H 0.16108 0.02599 0.07436 0.0
H2580 H 0.09173 0.94934 0.08901 0.0
H2581 H 0.99929 0.01676 0.07519 0.0
C2582 C 0.93076 -0.00336 0.07882 0.0
C2583 C 0.90978 0.97504 0.08295 0.0
C2584 C 0.1069 0.96617 0.08581 0.0
C2585 C 1.01699 0.98164 0.08228 0.0
C2586 C 0.16024 0.96957 0.0855 0.0
C2587 C 0.18118 -0.00875 0.08147 0.0
C2588 C 0.074 0.98455 0.08203 0.0
C2589 C 0.14689 0.00912 0.07773 0.0
C2590 C 0.98411 -1e-05 0.07846 0.0
C2591 C 0.94407 0.95719 0.08672 0.0
N2592 N 0.09516 0.00537 0.0781 0.0
N2593 N 0.9958 0.96088 0.0863 0.0
H2594 H 0.12098 0.23704 0.10818 0.0
H2595 H 0.38933 0.26042 0.07426 0.0
H2596 H 0.13453 0.24533 0.06961 0.0
H2597 H 0.37562 0.25019 0.11271 0.0
H2598 H 0.29604 0.25567 0.07238 0.0
H2599 H 0.21375 0.24333 0.11007 0.0
C2600 C 0.14331 0.24042 0.10011 0.0
C2601 C 0.1197 0.2406 0.08871 0.0
C2602 C 0.31344 0.25449 0.08123 0.0
C2603 C 0.22647 0.24751 0.0908 0.0
C2604 C 0.36683 0.25704 0.08231 0.0
C2605 C 0.39061 0.25573 0.09367 0.0
C2606 C 0.28337 0.25053 0.09159 0.0
C2607 C 0.3591 0.25169 0.10378 0.0
C2608 C 0.19645 0.24384 0.10119 0.0
C2609 C 0.15101 0.2447 0.07857 0.0
N2610 N 0.30729 0.24923 0.1025 0.0
N2611 N 0.20265 0.24795 0.07985 0.0
H2612 H 0.90939 0.2247 0.19189 0.0
H2613 H 0.17807 0.25858 0.22329 0.0
H2614 H 0.92266 0.2729 0.22204 0.0
H2615 H 0.16478 0.21152 0.19267 0.0
H2616 H 0.08481 0.26423 0.22292 0.0
H2617 H 1.00264 0.21914 0.19227 0.0
C2618 C 0.93178 0.23396 0.19867 0.0
C2619 C 0.90788 0.24931 0.20694 0.0
C2620 C 0.10229 0.25269 0.21627 0.0
C2621 C 1.01521 0.24326 0.20732 0.0
C2622 C 0.15569 0.24959 0.21641 0.0
C2623 C 0.17959 0.23451 0.20801 0.0
C2624 C 0.07227 0.24065 0.20765 0.0
C2625 C 0.14818 0.22304 0.19945 0.0
C2626 C 0.98518 0.23091 0.19882 0.0
C2627 C 0.93928 0.26112 0.21538 0.0
N2628 N 0.09631 0.22633 0.1995 0.0
N2629 N 0.99117 0.25786 0.21535 0.0
H2630 H 0.38806 -0.0034 0.18003 0.0
H2631 H 0.13162 0.97282 0.21851 0.0
H2632 H 0.38712 0.96179 0.21474 0.0
H2633 H 0.13233 0.00614 0.18343 0.0
H2634 H 0.22514 0.96879 0.21734 0.0
H2635 H 0.29454 0.00048 0.18118 0.0
C2636 C 0.36823 -0.01028 0.18789 0.0
C2637 C 0.39569 0.9788 0.19729 0.0
C2638 C 0.20486 0.97694 0.20989 0.0
C2639 C 0.28828 0.98332 0.1987 0.0
C2640 C 0.15141 0.97933 0.21056 0.0
C2641 C 0.12391 -0.01012 0.20106 0.0
C2642 C 0.23128 0.98522 0.19965 0.0
C2643 C 0.15171 -0.00236 0.19092 0.0
C2644 C 0.31477 -0.00798 0.18856 0.0
C2645 C 0.3678 0.97059 0.20733 0.0
N2646 N 0.20377 -0.00478 0.1905 0.0
N2647 N 0.31572 0.97296 0.20775 0.0
H2648 H 0.88163 -0.00298 0.96595 0.0
H2649 H 0.14635 0.98222 0.9295 0.0
H2650 H 0.89066 0.96925 0.92973 0.0
H2651 H 0.13755 0.00904 0.96591 0.0
H2652 H 0.05286 0.97725 0.92943 0.0
H2653 H 0.97506 0.0023 0.96596 0.0
C2654 C 0.90314 -0.00776 0.95794 0.0
C2655 C 0.87806 0.98265 0.94782 0.0
C2656 C 0.07136 0.98418 0.93745 0.0
C2657 C 0.98547 -0.01166 0.94784 0.0
C2658 C 0.12488 -0.01314 0.93753 0.0
C2659 C 0.15007 -0.00394 0.94773 0.0
C2660 C 0.04257 -0.00927 0.94765 0.0
C2661 C 0.11988 0.00216 0.95778 0.0
C2662 C 0.95662 -0.00491 0.95799 0.0
C2663 C 0.90828 0.97642 0.93779 0.0
N2664 N 0.06785 -0.0006 0.95748 0.0
N2665 N 0.96026 0.97936 0.93806 0.0
H2666 H 0.91741 0.71849 0.97036 0.0
H2667 H 0.65054 0.74837 0.93729 0.0
H2668 H 0.90619 0.76141 0.93818 0.0
H2669 H 0.6619 0.70361 0.96881 0.0
H2670 H 0.74386 0.75395 0.93772 0.0
H2671 H 0.82412 0.71274 0.96993 0.0
C2672 C 0.8955 0.72655 0.96314 0.0
C2673 C 0.92001 0.7405 0.9543 0.0
C2674 C 0.72597 0.74292 0.94455 0.0
C2675 C 0.81259 0.73425 0.95386 0.0
C2676 C 0.67252 0.73987 0.94437 0.0
C2677 C 0.64805 0.72548 0.95303 0.0
C2678 C 0.75548 0.73157 0.95347 0.0
C2679 C 0.67896 0.71461 0.96186 0.0
C2680 C 0.84206 0.72339 0.96295 0.0
C2681 C 0.88913 0.7508 0.94529 0.0
N2682 N 0.73091 0.71788 0.96185 0.0
N2683 N 0.83722 0.74749 0.94532 0.0
H2684 H 0.13151 0.71439 0.85766 0.0
H2685 H 0.88508 0.74857 0.81784 0.0
H2686 H 0.14054 0.73745 0.82057 0.0
H2687 H 0.8764 0.728 0.8553 0.0
H2688 H 0.97841 0.7437 0.81855 0.0
H2689 H 0.03815 0.7191 0.85695 0.0
C2690 C 0.11398 0.72066 0.84939 0.0
C2691 C 0.14416 0.72558 0.83916 0.0
C2692 C 0.95613 0.74021 0.82662 0.0
C2693 C 0.03681 0.73066 0.83824 0.0
C2694 C 0.9027 0.74281 0.8262 0.0
C2695 C 0.87266 0.73864 0.83653 0.0
C2696 C 0.97995 0.73336 0.83744 0.0
C2697 C 0.89795 0.73166 0.84715 0.0
C2698 C 0.06053 0.72318 0.84897 0.0
C2699 C 0.11893 0.73318 0.82864 0.0
N2700 N 0.95003 0.72923 0.84733 0.0
N2701 N 0.06683 0.73548 0.82845 0.0
H2702 H 0.64596 0.96379 0.82507 0.0
H2703 H 0.92659 0.01804 0.83838 0.0
H2704 H 0.67162 0.03137 0.8426 0.0
H2705 H 0.90094 0.94928 0.82204 0.0
H2706 H 0.83341 0.02346 0.83978 0.0
H2707 H 0.73917 0.95863 0.82339 0.0
C2708 C 0.6711 0.97761 0.82851 0.0
C2709 C 0.65063 -0.00198 0.83402 0.0
C2710 C 0.84818 0.0072 0.83587 0.0
C2711 C 0.75779 -0.00789 0.83222 0.0
C2712 C 0.90149 0.00402 0.83513 0.0
C2713 C 0.92199 0.98317 0.83006 0.0
C2714 C 0.81481 -0.01059 0.83153 0.0
C2715 C 0.8872 0.96582 0.82584 0.0
C2716 C 0.72441 0.97459 0.82761 0.0
C2717 C 0.68541 0.01517 0.83845 0.0
N2718 N 0.83552 0.96932 0.82668 0.0
N2719 N 0.73709 0.01183 0.83745 0.0
H2720 H 0.1171 0.46068 0.03277 0.0
H2721 H 0.91449 0.51496 0.98585 0.0
H2722 H 0.98127 0.49889 0.04369 0.0
H2723 H 0.04994 0.47627 0.97513 0.0
H2724 H 0.93825 0.50945 1.00698 0.0
H2725 H 0.09317 0.46636 1.0117 0.0
C2726 C 0.08204 0.47026 0.03073 0.0
C2727 C 0.05097 0.47927 0.04002 0.0
C2728 C 0.96294 0.5022 1.00004 0.0
C2729 C 0.0233 0.48592 1.01579 0.0
C2730 C 0.94944 0.50534 0.98795 0.0
C2731 C 0.98051 0.49616 0.9787 0.0
C2732 C 1.00793 0.4897 1.00296 0.0
C2733 C 0.0252 0.48382 0.98195 0.0
C2734 C 0.06843 0.4735 0.01867 0.0
C2735 C 1.00611 0.49155 0.03682 0.0
N2736 N 0.03756 0.48094 0.99382 0.0
N2737 N 0.99361 0.49453 0.02497 0.0
H2738 H 0.25879 0.76358 0.98714 0.0
H2739 H 0.28746 0.70895 0.05384 0.0
H2740 H 0.30609 0.6914 0.99425 0.0
H2741 H 0.24055 0.78117 0.04669 0.0
H2742 H 0.29596 0.70231 0.03207 0.0
H2743 H 0.25122 0.77032 1.00892 0.0
C2744 C 0.26721 0.74911 0.99328 0.0
C2745 C 0.28319 0.72692 0.98888 0.0
C2746 C 0.28399 0.71965 0.03526 0.0
C2747 C 0.2751 0.73452 1.01383 0.0
C2748 C 0.27939 0.72346 0.04769 0.0
C2749 C 0.26314 0.74563 0.05208 0.0
C2750 C 0.27224 0.73812 0.02714 0.0
C2751 C 0.25307 0.76378 0.0437 0.0
C2752 C 0.26312 0.75298 1.00572 0.0
C2753 C 0.29371 0.70881 0.99726 0.0
N2754 N 0.25759 0.75961 0.03166 0.0
N2755 N 0.28964 0.71302 1.0093 0.0
H2756 H 0.99527 0.69092 0.29756 0.0
H2757 H 0.07102 0.78262 0.24493 0.0
H2758 H 0.04187 0.76348 0.30422 0.0
H2759 H 1.01984 0.71069 0.23835 0.0
H2760 H 0.06112 0.77597 0.26662 0.0
H2761 H 1.00626 0.69756 0.27592 0.0
C2762 C 1.00817 0.70823 0.29446 0.0
C2763 C 1.01751 0.7267 0.30271 0.0
C2764 C 0.05191 0.76163 0.26045 0.0
C2765 C 0.02986 0.73451 0.27787 0.0
C2766 C 0.05741 0.76544 0.24806 0.0
C2767 C 0.04633 0.74716 0.23982 0.0
C2768 C 0.03525 0.73933 0.26469 0.0
C2769 C 0.02882 0.72528 0.24438 0.0
C2770 C 1.01426 0.71204 0.28209 0.0
C2771 C 0.03422 0.74875 0.29818 0.0
N2772 N 0.02399 0.72195 0.2565 0.0
N2773 N 0.03967 0.75206 0.28607 0.0
H2774 H 0.24304 0.44106 0.23302 0.0
H2775 H 0.31848 0.53276 0.28565 0.0
H2776 H 0.28985 0.51359 0.22631 0.0
H2777 H 0.26726 0.46081 0.2922 0.0
H2778 H 0.30869 0.52615 0.26395 0.0
H2779 H 0.25383 0.44774 0.25466 0.0
C2780 C 0.25595 0.45838 0.2361 0.0
C2781 C 0.26541 0.47682 0.22784 0.0
C2782 C 0.29945 0.51181 0.27012 0.0
C2783 C 0.27753 0.48468 0.25269 0.0
C2784 C 0.30488 0.51559 0.28252 0.0
C2785 C 0.29377 0.49729 0.29075 0.0
C2786 C 0.28282 0.48951 0.26587 0.0
C2787 C 0.27628 0.47542 0.28618 0.0
C2788 C 0.26192 0.4622 0.24848 0.0
C2789 C 0.28211 0.49887 0.23236 0.0
N2790 N 0.27151 0.47212 0.27406 0.0
N2791 N 0.28746 0.50221 0.24447 0.0
H2792 H 0.8786 0.2125 0.99968 0.0
H2793 H 0.67455 0.26274 0.04744 0.0
H2794 H 0.74113 0.25027 0.98953 0.0
H2795 H 0.81245 0.22545 0.05775 0.0
H2796 H 0.69825 0.25822 0.02627 0.0
H2797 H 0.85527 0.21705 0.0209 0.0
C2798 C 0.84334 0.22174 1.00192 0.0
C2799 C 0.81152 0.23089 0.9928 0.0
C2800 C 0.7235 0.25104 0.03313 0.0
C2801 C 0.78453 0.23622 1.01717 0.0
C2802 C 0.71 0.2536 0.04524 0.0
C2803 C 0.74177 0.24455 0.05439 0.0
C2804 C 0.7692 0.23926 0.03005 0.0
C2805 C 0.78711 0.23286 0.051 0.0
C2806 C 0.83006 0.22433 1.01406 0.0
C2807 C 0.76644 0.24274 0.99625 0.0
N2808 N 0.79948 0.23054 0.0391 0.0
N2809 N 0.75428 0.24506 1.00815 0.0
H2810 H 0.05344 0.25525 0.80848 0.0
H2811 H 0.99535 0.21435 0.74038 0.0
H2812 H 0.93835 0.20327 0.79872 0.0
H2813 H 0.07921 0.27856 0.74888 0.0
H2814 H 0.98122 0.20769 0.76196 0.0
H2815 H 0.07161 0.26158 0.78688 0.0
C2816 C 0.0325 0.24501 0.80182 0.0
C2817 C 0.99444 0.22869 0.80538 0.0
C2818 C 1.00264 0.22328 0.75911 0.0
C2819 C 1.01469 0.23582 0.78077 0.0
C2820 C 1.01062 0.22709 0.74679 0.0
C2821 C 0.03831 0.24707 0.74282 0.0
C2822 C 1.02293 0.23943 0.76758 0.0
C2823 C 0.05745 0.26296 0.75154 0.0
C2824 C 0.04255 0.24872 0.78951 0.0
C2825 C 0.96797 0.21606 0.79637 0.0
N2826 N 0.04962 0.25876 0.76351 0.0
N2827 N 0.97861 0.21984 0.78453 0.0
H2828 H 0.8296 0.52798 0.78451 0.0
H2829 H 0.67806 0.45288 0.73473 0.0
H2830 H 0.74775 0.46295 0.79247 0.0
H2831 H 0.79608 0.50369 0.72529 0.0
H2832 H 0.69848 0.4585 0.75601 0.0
H2833 H 0.81276 0.52177 0.76298 0.0
C2834 C 0.80788 0.51243 0.78173 0.0
C2835 C 0.78997 0.49595 0.7903 0.0
C2836 C 0.72022 0.46835 0.74932 0.0
C2837 C 0.77048 0.48879 0.76567 0.0
C2838 C 0.70855 0.46518 0.73715 0.0
C2839 C 0.73557 0.47778 0.72823 0.0
C2840 C 0.75878 0.48457 0.75268 0.0
C2841 C 0.77463 0.49349 0.73189 0.0
C2842 C 0.79855 0.50885 0.76943 0.0
C2843 C 0.76219 0.47611 0.78618 0.0
N2844 N 0.78484 0.4966 0.74387 0.0
N2845 N 0.75313 0.47315 0.77418 0.0
H2846 H 0.06213 0.93982 0.54245 0.0
H2847 H 0.99248 0.03044 0.48902 0.0
H2848 H 1.01655 0.01264 0.54836 0.0
H2849 H 0.03628 0.95743 0.48295 0.0
H2850 H 1.00244 0.02436 0.51071 0.0
H2851 H 0.05244 0.94576 0.52071 0.0
C2852 C 0.04975 0.95704 0.53917 0.0
C2853 C 0.04026 0.97579 0.54723 0.0
C2854 C 1.01005 0.00965 0.50466 0.0
C2855 C 0.02946 0.98279 0.52229 0.0
C2856 C 1.00454 0.01313 0.49226 0.0
C2857 C 1.01342 -0.00562 0.48416 0.0
C2858 C 0.02457 -0.01278 0.50907 0.0
C2859 C 0.02904 0.97237 0.48887 0.0
C2860 C 0.04439 0.96044 0.52674 0.0
C2861 C 0.02428 -0.0023 0.54247 0.0
N2862 N 0.03394 0.96937 0.50102 0.0
N2863 N 1.01957 0.00062 0.53032 0.0
H2864 H 0.23862 0.2505 0.48902 0.0
H2865 H 0.31392 0.22799 0.55857 0.0
H2866 H 0.37462 0.21256 0.50005 0.0
H2867 H 0.1754 0.26329 0.54695 0.0
H2868 H 0.3385 0.22277 0.53728 0.0
H2869 H 0.21575 0.25598 0.5103 0.0
C2870 C 0.26343 0.2432 0.49592 0.0
C2871 C 0.30822 0.23087 0.49276 0.0
C2872 C 0.30275 0.23169 0.53941 0.0
C2873 C 0.28289 0.23725 0.51717 0.0
C2874 C 0.28884 0.23467 0.55156 0.0
C2875 C 0.24261 0.24606 0.55453 0.0
C2876 C 0.27016 0.2402 0.53021 0.0
C2877 C 0.21141 0.25436 0.54508 0.0
C2878 C 0.25058 0.24639 0.50808 0.0
C2879 C 0.33957 0.22212 0.50209 0.0
N2880 N 0.22568 0.25128 0.5334 0.0
N2881 N 0.32633 0.22544 0.51384 0.0
H2882 H 0.25889 0.95966 0.79945 0.0
H2883 H 0.28906 0.014 0.7327 0.0
H2884 H 0.31252 0.03098 0.79221 0.0
H2885 H 0.23407 0.94289 0.73991 0.0
H2886 H 0.29927 0.02038 0.75444 0.0
H2887 H 0.24907 0.95318 0.77769 0.0
C2888 C 0.26828 0.974 0.79328 0.0
C2889 C 0.28665 -0.00413 0.79764 0.0
C2890 C 0.28511 0.00335 0.75128 0.0
C2891 C 0.27595 -0.01144 0.77272 0.0
C2892 C 0.27948 -0.00032 0.73886 0.0
C2893 C 0.26056 0.97791 0.73449 0.0
C2894 C 0.27172 0.98511 0.75941 0.0
C2895 C 0.24869 0.95998 0.74289 0.0
C2896 C 0.26287 0.97028 0.78086 0.0
C2897 C 0.2983 0.01382 0.78925 0.0
N2898 N 0.2543 0.96399 0.75492 0.0
N2899 N 0.29291 0.00975 0.77721 0.0
H2900 H 0.85696 0.70008 0.49532 0.0
H2901 H 0.71985 0.77987 0.54543 0.0
H2902 H 0.74528 0.75378 0.48625 0.0
H2903 H 0.79846 0.71423 0.55344 0.0
H2904 H 0.73348 0.77271 0.52386 0.0
H2905 H 0.83989 0.70677 0.51666 0.0
C2906 C 0.82848 0.71322 0.49783 0.0
C2907 C 0.80233 0.72635 0.489 0.0
C2908 C 0.74772 0.75988 0.53033 0.0
C2909 C 0.78306 0.73438 0.51354 0.0
C2910 C 0.74025 0.764 0.54266 0.0
C2911 C 0.75808 0.7476 0.55125 0.0
C2912 C 0.77374 0.73932 0.52656 0.0
C2913 C 0.78411 0.72734 0.54713 0.0
C2914 C 0.81876 0.71702 0.51004 0.0
C2915 C 0.76594 0.74316 0.49278 0.0
N2916 N 0.79126 0.72382 0.5351 0.0
N2917 N 0.75763 0.74685 0.5048 0.0
H2918 H 0.73657 0.94204 0.23994 0.0
H2919 H 0.81529 0.03322 0.29255 0.0
H2920 H 0.78756 0.01397 0.23325 0.0
H2921 H 0.76374 0.96134 0.29915 0.0
H2922 H 0.80484 0.02667 0.27087 0.0
H2923 H 0.74736 0.94863 0.26159 0.0
C2924 C 0.75036 0.9592 0.24303 0.0
C2925 C 0.76105 0.97751 0.23477 0.0
C2926 C 0.79566 0.01233 0.27704 0.0
C2927 C 0.77319 0.98528 0.25963 0.0
C2928 C 0.80146 0.01608 0.28943 0.0
C2929 C 0.79048 -0.00222 0.29767 0.0
C2930 C 0.77875 -0.00994 0.2728 0.0
C2931 C 0.77268 0.97594 0.29311 0.0
C2932 C 0.75636 0.96299 0.25541 0.0
C2933 C 0.77885 -0.00063 0.2393 0.0
N2934 N 0.76753 0.97268 0.281 0.0
N2935 N 0.78419 0.00267 0.25141 0.0
H2936 H 0.57473 0.44362 0.53512 0.0
H2937 H 0.42959 0.51903 0.48462 0.0
H2938 H 0.49486 0.50915 0.54263 0.0
H2939 H 0.54631 0.46754 0.47573 0.0
H2940 H 0.44866 0.51364 0.50597 0.0
H2941 H 0.55978 0.44979 0.51352 0.0
C2942 C 0.55383 0.45927 0.53223 0.0
C2943 C 0.53595 0.47592 0.54069 0.0
C2944 C 0.47042 0.50359 0.49939 0.0
C2945 C 0.51868 0.48303 0.51598 0.0
C2946 C 0.45953 0.50663 0.48718 0.0
C2947 C 0.48649 0.49373 0.4784 0.0
C2948 C 0.50811 0.4872 0.50294 0.0
C2949 C 0.52485 0.47792 0.48223 0.0
C2950 C 0.54561 0.46283 0.51989 0.0
C2951 C 0.50927 0.49588 0.53643 0.0
N2952 N 0.53426 0.47493 0.49425 0.0
N2953 N 0.50127 0.49882 0.52438 0.0
H2954 H 0.49324 0.68928 0.79703 0.0
H2955 H 0.56313 0.7816 0.74427 0.0
H2956 H 0.53628 0.76236 0.80354 0.0
H2957 H 0.51687 0.70895 0.73774 0.0
H2958 H 0.55353 0.77493 0.76595 0.0
H2959 H 0.50346 0.69591 0.77537 0.0
C2960 C 0.5052 0.70671 0.7939 0.0
C2961 C 0.51377 0.72533 0.80211 0.0
C2962 C 0.54532 0.76044 0.7598 0.0
C2963 C 0.52522 0.73311 0.77724 0.0
C2964 C 0.55064 0.76426 0.7474 0.0
C2965 C 0.5409 0.74578 0.73918 0.0
C2966 C 0.53018 0.73793 0.76406 0.0
C2967 C 0.52478 0.72369 0.74376 0.0
C2968 C 0.51085 0.7105 0.78151 0.0
C2969 C 0.52926 0.74752 0.79753 0.0
N2970 N 0.5201 0.72036 0.75589 0.0
N2971 N 0.53431 0.75081 0.78541 0.0
H2972 H 0.49045 0.19181 0.30008 0.0
H2973 H 0.56501 0.28445 0.24773 0.0
H2974 H 0.53777 0.26418 0.30697 0.0
H2975 H 0.5167 0.21219 0.2409 0.0
H2976 H 0.55488 0.27748 0.26939 0.0
H2977 H 0.50118 0.19876 0.27844 0.0
C2978 C 0.50345 0.20914 0.29704 0.0
C2979 C 0.5131 0.22746 0.30535 0.0
C2980 C 0.54634 0.26314 0.26317 0.0
C2981 C 0.52511 0.23564 0.28051 0.0
C2982 C 0.55195 0.26714 0.25079 0.0
C2983 C 0.54178 0.24885 0.24248 0.0
C2984 C 0.53045 0.24066 0.26734 0.0
C2985 C 0.52497 0.22679 0.24697 0.0
C2986 C 0.5094 0.21312 0.28466 0.0
C2987 C 0.52989 0.24955 0.30088 0.0
N2988 N 0.52 0.2233 0.25908 0.0
N2989 N 0.53518 0.25304 0.28878 0.0
H2990 H 0.51965 0.01316 0.04862 0.0
H2991 H 0.5442 0.95794 0.98196 0.0
H2992 H 0.56854 0.94119 0.04161 0.0
H2993 H 0.50062 0.03058 0.98915 0.0
H2994 H 0.55385 0.95135 1.00373 0.0
H2995 H 0.51093 0.01963 0.02686 0.0
C2996 C 0.52821 -0.00133 0.0425 0.0
C2997 C 0.54496 0.97663 0.04693 0.0
C2998 C 0.54237 0.96876 1.00055 0.0
C2999 C 0.53548 0.98391 0.02198 0.0
C3000 C 0.53709 0.97254 0.98811 0.0
C3001 C 0.52145 -0.00518 0.98374 0.0
C3002 C 0.53186 -0.01261 1.00867 0.0
C3003 C 0.51263 0.0131 0.99212 0.0
C3004 C 0.52346 0.00239 0.03007 0.0
C3005 C 0.55559 0.95849 0.03859 0.0
N3006 N 0.51774 0.00896 1.00415 0.0
N3007 N 0.5508 0.96254 0.02653 0.0
loop_
_geom_bond_atom_site_label_1
_geom_bond_atom_site_label_2
_geom_bond_distance
_geom_bond_site_symmetry_2
_ccdc_geom_bond_type
C0 Eu1 2.835 . S
C0 C2 1.500 . S
C0 O20 1.257 . S
C0 O21 1.260 . S
Eu1 C0 2.835 . S
Eu1 O20 2.473 . S
Eu1 O21 2.480 . S
Eu1 O22 2.430 . S
Eu1 O23 2.670 . S
Eu1 O24 2.394 . S
Eu1 O29 2.355 . S
Eu1 O31 2.374 . S
C2 C0 1.500 . S
C2 C3 1.377 . S
C2 C7 1.377 . S
C3 C2 1.377 . S
C3 C4 1.395 . S
C3 H32 0.931 . S
C4 C3 1.395 . S
C4 C5 1.383 . S
C4 H33 0.931 . S
C5 C4 1.383 . S
C5 C6 1.394 . S
C6 C5 1.394 . S
C6 C7 1.378 . S
C6 H34 0.931 . S
C7 C2 1.377 . S
C7 C6 1.378 . S
C7 H35 0.931 . S
C8 O22 1.259 . S
C8 O23 1.270 . S
C9 O24 1.251 . S
C9 O25 1.251 . S
C10 Eu11 2.835 . S
C10 C12 1.500 . S
C10 O26 1.257 . S
C10 O27 1.260 . S
Eu11 C10 2.835 . S
Eu11 O23 2.355 1_655 S
Eu11 O25 2.374 1_655 S
Eu11 O26 2.473 . S
Eu11 O27 2.480 . S
Eu11 O28 2.430 . S
Eu11 O29 2.670 1_655 S
Eu11 O30 2.394 . S
C12 C10 1.500 . S
C12 C13 1.377 . S
C12 C17 1.377 . S
C13 C12 1.377 . S
C13 C14 1.395 . S
C13 H36 0.931 . S
C14 C13 1.395 . S
C14 C15 1.383 . S
C14 H37 0.931 . S
C15 C14 1.383 . S
C15 C16 1.394 . S
C16 C15 1.394 . S
C16 C17 1.378 . S
C16 H38 0.931 . S
C17 C12 1.377 . S
C17 C16 1.378 . S
C17 H39 0.931 . S
C18 O28 1.259 1_455 S
C18 O29 1.270 . S
C19 O30 1.251 . S
C19 O31 1.251 1_655 S
O20 C0 1.257 . S
O20 Eu1 2.473 . S
O21 C0 1.260 . S
O21 Eu1 2.480 . S
O22 Eu1 2.430 . S
O22 C8 1.259 . S
O23 Eu1 2.670 . S
O23 C8 1.270 . S
O23 Eu11 2.355 1_455 S
O24 Eu1 2.394 . S
O24 C9 1.251 . S
O25 C9 1.251 . S
O25 Eu11 2.374 1_455 S
O26 C10 1.257 . S
O26 Eu11 2.473 . S
O27 C10 1.260 . S
O27 Eu11 2.480 . S
O28 Eu11 2.430 . S
O28 C18 1.259 1_655 S
O29 Eu1 2.355 . S
O29 Eu11 2.670 1_455 S
O29 C18 1.270 . S
O30 Eu11 2.394 . S
O30 C19 1.251 . S
O31 Eu1 2.374 . S
O31 C19 1.251 1_455 S
H32 C3 0.931 . S
H33 C4 0.931 . S
H34 C6 0.931 . S
H35 C7 0.931 . S
H36 C13 0.931 . S
H37 C14 0.931 . S
H38 C16 0.931 . S
H39 C17 0.931 . S
C40 Eu41 2.835 . S
C40 C42 1.500 . S
C40 O60 1.257 . S
C40 O61 1.260 . S
Eu41 C40 2.835 . S
Eu41 O60 2.473 . S
Eu41 O61 2.480 . S
Eu41 O62 2.430 . S
Eu41 O63 2.670 . S
Eu41 O64 2.394 . S
Eu41 O69 2.355 . S
Eu41 O71 2.374 . S
C42 C40 1.500 . S
C42 C43 1.377 1_455 S
C42 C47 1.377 1_455 S
C43 C42 1.377 1_655 S
C43 C44 1.395 . S
C43 H72 0.931 . S
C44 C43 1.395 . S
C44 C45 1.383 . S
C44 H73 0.931 . S
C45 C44 1.383 . S
C45 C46 1.394 . S
C46 C45 1.394 . S
C46 C47 1.378 . S
C46 H74 0.931 . S
C47 C42 1.377 1_655 S
C47 C46 1.378 . S
C47 H75 0.931 . S
C48 O62 1.259 . S
C48 O63 1.270 . S
C49 O64 1.251 . S
C49 O65 1.251 . S
C50 Eu51 2.835 . S
C50 C52 1.500 . S
C50 O66 1.257 . S
C50 O67 1.260 . S
Eu51 C50 2.835 . S
Eu51 O63 2.355 . S
Eu51 O65 2.374 . S
Eu51 O66 2.473 . S
Eu51 O67 2.480 . S
Eu51 O68 2.430 . S
Eu51 O69 2.670 . S
Eu51 O70 2.394 . S
C52 C50 1.500 . S
C52 C53 1.377 . S
C52 C57 1.377 . S
C53 C52 1.377 . S
C53 C54 1.395 . S
C53 H76 0.931 . S
C54 C53 1.395 . S
C54 C55 1.383 . S
C54 H77 0.931 . S
C55 C54 1.383 . S
C55 C56 1.394 . S
C56 C55 1.394 . S
C56 C57 1.378 . S
C56 H78 0.931 . S
C57 C52 1.377 . S
C57 C56 1.378 . S
C57 H79 0.931 . S
C58 O68 1.259 . S
C58 O69 1.270 . S
C59 O70 1.251 . S
C59 O71 1.251 . S
O60 C40 1.257 . S
O60 Eu41 2.473 . S
O61 C40 1.260 . S
O61 Eu41 2.480 . S
O62 Eu41 2.430 . S
O62 C48 1.259 . S
O63 Eu41 2.670 . S
O63 C48 1.270 . S
O63 Eu51 2.355 . S
O64 Eu41 2.394 . S
O64 C49 1.251 . S
O65 C49 1.251 . S
O65 Eu51 2.374 . S
O66 C50 1.257 . S
O66 Eu51 2.473 . S
O67 C50 1.260 . S
O67 Eu51 2.480 . S
O68 Eu51 2.430 . S
O68 C58 1.259 . S
O69 Eu41 2.355 . S
O69 Eu51 2.670 . S
O69 C58 1.270 . S
O70 Eu51 2.394 . S
O70 C59 1.251 . S
O71 Eu41 2.374 . S
O71 C59 1.251 . S
H72 C43 0.931 . S
H73 C44 0.931 . S
H74 C46 0.931 . S
H75 C47 0.931 . S
H76 C53 0.931 . S
H77 C54 0.931 . S
H78 C56 0.931 . S
H79 C57 0.931 . S
C80 Eu81 2.835 . S
C80 C82 1.500 . S
C80 O100 1.257 . S
C80 O101 1.260 . S
Eu81 C80 2.835 . S
Eu81 O100 2.473 . S
Eu81 O101 2.480 . S
Eu81 O102 2.430 . S
Eu81 O103 2.670 . S
Eu81 O104 2.394 . S
Eu81 O109 2.355 . S
Eu81 O111 2.374 . S
C82 C80 1.500 . S
C82 C83 1.377 . S
C82 C87 1.377 . S
C83 C82 1.377 . S
C83 C84 1.395 . S
C83 H112 0.931 . S
C84 C83 1.395 . S
C84 C85 1.383 . S
C84 H113 0.931 . S
C85 C84 1.383 . S
C85 C86 1.394 . S
C86 C85 1.394 . S
C86 C87 1.378 . S
C86 H114 0.931 . S
C87 C82 1.377 . S
C87 C86 1.378 . S
C87 H115 0.931 . S
C88 O102 1.259 . S
C88 O103 1.270 . S
C89 O104 1.251 . S
C89 O105 1.251 . S
C90 Eu91 2.835 . S
C90 C92 1.500 . S
C90 O106 1.257 . S
C90 O107 1.260 . S
Eu91 C90 2.835 . S
Eu91 O103 2.355 1_655 S
Eu91 O105 2.374 1_655 S
Eu91 O106 2.473 . S
Eu91 O107 2.480 . S
Eu91 O108 2.430 . S
Eu91 O109 2.670 1_655 S
Eu91 O110 2.394 . S
C92 C90 1.500 . S
C92 C93 1.377 . S
C92 C97 1.377 . S
C93 C92 1.377 . S
C93 C94 1.395 . S
C93 H116 0.931 . S
C94 C93 1.395 . S
C94 C95 1.383 . S
C94 H117 0.931 . S
C95 C94 1.383 . S
C95 C96 1.394 . S
C96 C95 1.394 . S
C96 C97 1.378 . S
C96 H118 0.931 . S
C97 C92 1.377 . S
C97 C96 1.378 . S
C97 H119 0.931 . S
C98 O108 1.259 1_455 S
C98 O109 1.270 . S
C99 O110 1.251 . S
C99 O111 1.251 1_655 S
O100 C80 1.257 . S
O100 Eu81 2.473 . S
O101 C80 1.260 . S
O101 Eu81 2.480 . S
O102 Eu81 2.430 . S
O102 C88 1.259 . S
O103 Eu81 2.670 . S
O103 C88 1.270 . S
O103 Eu91 2.355 1_455 S
O104 Eu81 2.394 . S
O104 C89 1.251 . S
O105 C89 1.251 . S
O105 Eu91 2.374 1_455 S
O106 C90 1.257 . S
O106 Eu91 2.473 . S
O107 C90 1.260 . S
O107 Eu91 2.480 . S
O108 Eu91 2.430 . S
O108 C98 1.259 1_655 S
O109 Eu81 2.355 . S
O109 Eu91 2.670 1_455 S
O109 C98 1.270 . S
O110 Eu91 2.394 . S
O110 C99 1.251 . S
O111 Eu81 2.374 . S
O111 C99 1.251 1_455 S
H112 C83 0.931 . S
H113 C84 0.931 . S
H114 C86 0.931 . S
H115 C87 0.931 . S
H116 C93 0.931 . S
H117 C94 0.931 . S
H118 C96 0.931 . S
H119 C97 0.931 . S
C120 Eu121 2.835 . S
C120 C122 1.500 . S
C120 O140 1.257 . S
C120 O141 1.260 . S
Eu121 C120 2.835 . S
Eu121 O140 2.473 . S
Eu121 O141 2.480 . S
Eu121 O142 2.430 . S
Eu121 O143 2.670 . S
Eu121 O144 2.394 . S
Eu121 O149 2.355 . S
Eu121 O151 2.374 . S
C122 C120 1.500 . S
C122 C123 1.377 1_455 S
C122 C127 1.377 1_455 S
C123 C122 1.377 1_655 S
C123 C124 1.395 . S
C123 H152 0.931 . S
C124 C123 1.395 . S
C124 C125 1.383 . S
C124 H153 0.931 . S
C125 C124 1.383 . S
C125 C126 1.394 . S
C126 C125 1.394 . S
C126 C127 1.378 . S
C126 H154 0.931 . S
C127 C122 1.377 1_655 S
C127 C126 1.378 . S
C127 H155 0.931 . S
C128 O142 1.259 . S
C128 O143 1.270 . S
C129 O144 1.251 . S
C129 O145 1.251 . S
C130 Eu131 2.835 . S
C130 C132 1.500 . S
C130 O146 1.257 . S
C130 O147 1.260 . S
Eu131 C130 2.835 . S
Eu131 O143 2.355 . S
Eu131 O145 2.374 . S
Eu131 O146 2.473 . S
Eu131 O147 2.480 . S
Eu131 O148 2.430 . S
Eu131 O149 2.670 . S
Eu131 O150 2.394 . S
C132 C130 1.500 . S
C132 C133 1.377 . S
C132 C137 1.377 . S
C133 C132 1.377 . S
C133 C134 1.395 . S
C133 H156 0.931 . S
C134 C133 1.395 . S
C134 C135 1.383 . S
C134 H157 0.931 . S
C135 C134 1.383 . S
C135 C136 1.394 . S
C136 C135 1.394 . S
C136 C137 1.378 . S
C136 H158 0.931 . S
C137 C132 1.377 . S
C137 C136 1.378 . S
C137 H159 0.931 . S
C138 O148 1.259 . S
C138 O149 1.270 . S
C139 O150 1.251 . S
C139 O151 1.251 . S
O140 C120 1.257 . S
O140 Eu121 2.473 . S
O141 C120 1.260 . S
O141 Eu121 2.480 . S
O142 Eu121 2.430 . S
O142 C128 1.259 . S
O143 Eu121 2.670 . S
O143 C128 1.270 . S
O143 Eu131 2.355 . S
O144 Eu121 2.394 . S
O144 C129 1.251 . S
O145 C129 1.251 . S
O145 Eu131 2.374 . S
O146 C130 1.257 . S
O146 Eu131 2.473 . S
O147 C130 1.260 . S
O147 Eu131 2.480 . S
O148 Eu131 2.430 . S
O148 C138 1.259 . S
O149 Eu121 2.355 . S
O149 Eu131 2.670 . S
O149 C138 1.270 . S
O150 Eu131 2.394 . S
O150 C139 1.251 . S
O151 Eu121 2.374 . S
O151 C139 1.251 . S
H152 C123 0.931 . S
H153 C124 0.931 . S
H154 C126 0.931 . S
H155 C127 0.931 . S
H156 C133 0.931 . S
H157 C134 0.931 . S
H158 C136 0.931 . S
H159 C137 0.931 . S
C160 Eu161 2.835 . S
C160 C162 1.500 . S
C160 O180 1.257 . S
C160 O181 1.260 . S
Eu161 C160 2.835 . S
Eu161 O180 2.473 . S
Eu161 O181 2.480 . S
Eu161 O182 2.430 . S
Eu161 O183 2.670 1_455 S
Eu161 O184 2.394 . S
Eu161 O189 2.355 1_455 S
Eu161 O191 2.374 1_455 S
C162 C160 1.500 . S
C162 C163 1.377 . S
C162 C167 1.377 . S
C163 C162 1.377 . S
C163 C164 1.395 . S
C163 H192 0.931 . S
C164 C163 1.395 . S
C164 C165 1.383 . S
C164 H193 0.931 . S
C165 C164 1.383 . S
C165 C166 1.394 . S
C166 C165 1.394 . S
C166 C167 1.378 . S
C166 H194 0.931 . S
C167 C162 1.377 . S
C167 C166 1.378 . S
C167 H195 0.931 . S
C168 O182 1.259 1_655 S
C168 O183 1.270 . S
C169 O184 1.251 . S
C169 O185 1.251 1_455 S
C170 Eu171 2.835 . S
C170 C172 1.500 . S
C170 O186 1.257 . S
C170 O187 1.260 . S
Eu171 C170 2.835 . S
Eu171 O183 2.355 . S
Eu171 O185 2.374 . S
Eu171 O186 2.473 . S
Eu171 O187 2.480 . S
Eu171 O188 2.430 . S
Eu171 O189 2.670 . S
Eu171 O190 2.394 . S
C172 C170 1.500 . S
C172 C173 1.377 . S
C172 C177 1.377 . S
C173 C172 1.377 . S
C173 C174 1.395 . S
C173 H196 0.931 . S
C174 C173 1.395 . S
C174 C175 1.383 . S
C174 H197 0.931 . S
C175 C174 1.383 . S
C175 C176 1.394 . S
C176 C175 1.394 . S
C176 C177 1.378 . S
C176 H198 0.931 . S
C177 C172 1.377 . S
C177 C176 1.378 . S
C177 H199 0.931 . S
C178 O188 1.259 . S
C178 O189 1.270 . S
C179 O190 1.251 . S
C179 O191 1.251 . S
O180 C160 1.257 . S
O180 Eu161 2.473 . S
O181 C160 1.260 . S
O181 Eu161 2.480 . S
O182 Eu161 2.430 . S
O182 C168 1.259 1_455 S
O183 Eu161 2.670 1_655 S
O183 C168 1.270 . S
O183 Eu171 2.355 . S
O184 Eu161 2.394 . S
O184 C169 1.251 . S
O185 C169 1.251 1_655 S
O185 Eu171 2.374 . S
O186 C170 1.257 . S
O186 Eu171 2.473 . S
O187 C170 1.260 . S
O187 Eu171 2.480 . S
O188 Eu171 2.430 . S
O188 C178 1.259 . S
O189 Eu161 2.355 1_655 S
O189 Eu171 2.670 . S
O189 C178 1.270 . S
O190 Eu171 2.394 . S
O190 C179 1.251 . S
O191 Eu161 2.374 1_655 S
O191 C179 1.251 . S
H192 C163 0.931 . S
H193 C164 0.931 . S
H194 C166 0.931 . S
H195 C167 0.931 . S
H196 C173 0.931 . S
H197 C174 0.931 . S
H198 C176 0.931 . S
H199 C177 0.931 . S
C200 Eu201 2.835 . S
C200 C202 1.500 . S
C200 O220 1.257 . S
C200 O221 1.260 . S
Eu201 C200 2.835 . S
Eu201 O220 2.473 . S
Eu201 O221 2.480 . S
Eu201 O222 2.430 . S
Eu201 O223 2.670 . S
Eu201 O224 2.394 . S
Eu201 O229 2.355 . S
Eu201 O231 2.374 . S
C202 C200 1.500 . S
C202 C203 1.377 . S
C202 C207 1.377 . S
C203 C202 1.377 . S
C203 C204 1.395 . S
C203 H232 0.931 . S
C204 C203 1.395 . S
C204 C205 1.383 . S
C204 H233 0.931 . S
C205 C204 1.383 . S
C205 C206 1.394 . S
C206 C205 1.394 . S
C206 C207 1.378 . S
C206 H234 0.931 . S
C207 C202 1.377 . S
C207 C206 1.378 . S
C207 H235 0.931 . S
C208 O222 1.259 . S
C208 O223 1.270 . S
C209 O224 1.251 . S
C209 O225 1.251 . S
C210 Eu211 2.835 . S
C210 C212 1.500 . S
C210 O226 1.257 . S
C210 O227 1.260 . S
Eu211 C210 2.835 . S
Eu211 O223 2.355 . S
Eu211 O225 2.374 . S
Eu211 O226 2.473 . S
Eu211 O227 2.480 . S
Eu211 O228 2.430 . S
Eu211 O229 2.670 . S
Eu211 O230 2.394 . S
C212 C210 1.500 . S
C212 C213 1.377 1_655 S
C212 C217 1.377 1_655 S
C213 C212 1.377 1_455 S
C213 C214 1.395 . S
C213 H236 0.931 . S
C214 C213 1.395 . S
C214 C215 1.383 . S
C214 H237 0.931 . S
C215 C214 1.383 . S
C215 C216 1.394 . S
C216 C215 1.394 . S
C216 C217 1.378 . S
C216 H238 0.931 . S
C217 C212 1.377 1_455 S
C217 C216 1.378 . S
C217 H239 0.931 . S
C218 O228 1.259 . S
C218 O229 1.270 . S
C219 O230 1.251 . S
C219 O231 1.251 . S
O220 C200 1.257 . S
O220 Eu201 2.473 . S
O221 C200 1.260 . S
O221 Eu201 2.480 . S
O222 Eu201 2.430 . S
O222 C208 1.259 . S
O223 Eu201 2.670 . S
O223 C208 1.270 . S
O223 Eu211 2.355 . S
O224 Eu201 2.394 . S
O224 C209 1.251 . S
O225 C209 1.251 . S
O225 Eu211 2.374 . S
O226 C210 1.257 . S
O226 Eu211 2.473 . S
O227 C210 1.260 . S
O227 Eu211 2.480 . S
O228 Eu211 2.430 . S
O228 C218 1.259 . S
O229 Eu201 2.355 . S
O229 Eu211 2.670 . S
O229 C218 1.270 . S
O230 Eu211 2.394 . S
O230 C219 1.251 . S
O231 Eu201 2.374 . S
O231 C219 1.251 . S
H232 C203 0.931 . S
H233 C204 0.931 . S
H234 C206 0.931 . S
H235 C207 0.931 . S
H236 C213 0.931 . S
H237 C214 0.931 . S
H238 C216 0.931 . S
H239 C217 0.931 . S
C240 Eu241 2.835 . S
C240 C242 1.500 . S
C240 O260 1.257 . S
C240 O261 1.260 . S
Eu241 C240 2.835 . S
Eu241 O260 2.473 . S
Eu241 O261 2.480 . S
Eu241 O262 2.430 . S
Eu241 O263 2.670 1_455 S
Eu241 O264 2.394 . S
Eu241 O269 2.355 1_455 S
Eu241 O271 2.374 1_455 S
C242 C240 1.500 . S
C242 C243 1.377 . S
C242 C247 1.377 . S
C243 C242 1.377 . S
C243 C244 1.395 . S
C243 H272 0.931 . S
C244 C243 1.395 . S
C244 C245 1.383 . S
C244 H273 0.931 . S
C245 C244 1.383 . S
C245 C246 1.394 . S
C246 C245 1.394 . S
C246 C247 1.378 . S
C246 H274 0.931 . S
C247 C242 1.377 . S
C247 C246 1.378 . S
C247 H275 0.931 . S
C248 O262 1.259 1_655 S
C248 O263 1.270 . S
C249 O264 1.251 . S
C249 O265 1.251 1_455 S
C250 Eu251 2.835 . S
C250 C252 1.500 . S
C250 O266 1.257 . S
C250 O267 1.260 . S
Eu251 C250 2.835 . S
Eu251 O263 2.355 . S
Eu251 O265 2.374 . S
Eu251 O266 2.473 . S
Eu251 O267 2.480 . S
Eu251 O268 2.430 . S
Eu251 O269 2.670 . S
Eu251 O270 2.394 . S
C252 C250 1.500 . S
C252 C253 1.377 . S
C252 C257 1.377 . S
C253 C252 1.377 . S
C253 C254 1.395 . S
C253 H276 0.931 . S
C254 C253 1.395 . S
C254 C255 1.383 . S
C254 H277 0.931 . S
C255 C254 1.383 . S
C255 C256 1.394 . S
C256 C255 1.394 . S
C256 C257 1.378 . S
C256 H278 0.931 . S
C257 C252 1.377 . S
C257 C256 1.378 . S
C257 H279 0.931 . S
C258 O268 1.259 . S
C258 O269 1.270 . S
C259 O270 1.251 . S
C259 O271 1.251 . S
O260 C240 1.257 . S
O260 Eu241 2.473 . S
O261 C240 1.260 . S
O261 Eu241 2.480 . S
O262 Eu241 2.430 . S
O262 C248 1.259 1_455 S
O263 Eu241 2.670 1_655 S
O263 C248 1.270 . S
O263 Eu251 2.355 . S
O264 Eu241 2.394 . S
O264 C249 1.251 . S
O265 C249 1.251 1_655 S
O265 Eu251 2.374 . S
O266 C250 1.257 . S
O266 Eu251 2.473 . S
O267 C250 1.260 . S
O267 Eu251 2.480 . S
O268 Eu251 2.430 . S
O268 C258 1.259 . S
O269 Eu241 2.355 1_655 S
O269 Eu251 2.670 . S
O269 C258 1.270 . S
O270 Eu251 2.394 . S
O270 C259 1.251 . S
O271 Eu241 2.374 1_655 S
O271 C259 1.251 . S
H272 C243 0.931 . S
H273 C244 0.931 . S
H274 C246 0.931 . S
H275 C247 0.931 . S
H276 C253 0.931 . S
H277 C254 0.931 . S
H278 C256 0.931 . S
H279 C257 0.931 . S
C280 Eu281 2.835 . S
C280 C282 1.500 . S
C280 O300 1.257 . S
C280 O301 1.260 . S
Eu281 C280 2.835 . S
Eu281 O300 2.473 . S
Eu281 O301 2.480 . S
Eu281 O302 2.430 . S
Eu281 O303 2.670 . S
Eu281 O304 2.394 . S
Eu281 O309 2.355 . S
Eu281 O311 2.374 . S
C282 C280 1.500 . S
C282 C283 1.377 . S
C282 C287 1.377 . S
C283 C282 1.377 . S
C283 C284 1.395 . S
C283 H312 0.931 . S
C284 C283 1.395 . S
C284 C285 1.383 . S
C284 H313 0.931 . S
C285 C284 1.383 . S
C285 C286 1.394 . S
C286 C285 1.394 . S
C286 C287 1.378 . S
C286 H314 0.931 . S
C287 C282 1.377 . S
C287 C286 1.378 . S
C287 H315 0.931 . S
C288 O302 1.259 . S
C288 O303 1.270 . S
C289 O304 1.251 . S
C289 O305 1.251 . S
C290 Eu291 2.835 . S
C290 C292 1.500 . S
C290 O306 1.257 . S
C290 O307 1.260 . S
Eu291 C290 2.835 . S
Eu291 O303 2.355 . S
Eu291 O305 2.374 . S
Eu291 O306 2.473 . S
Eu291 O307 2.480 . S
Eu291 O308 2.430 . S
Eu291 O309 2.670 . S
Eu291 O310 2.394 . S
C292 C290 1.500 . S
C292 C293 1.377 1_655 S
C292 C297 1.377 1_655 S
C293 C292 1.377 1_455 S
C293 C294 1.395 . S
C293 H316 0.931 . S
C294 C293 1.395 . S
C294 C295 1.383 . S
C294 H317 0.931 . S
C295 C294 1.383 . S
C295 C296 1.394 . S
C296 C295 1.394 . S
C296 C297 1.378 . S
C296 H318 0.931 . S
C297 C292 1.377 1_455 S
C297 C296 1.378 . S
C297 H319 0.931 . S
C298 O308 1.259 . S
C298 O309 1.270 . S
C299 O310 1.251 . S
C299 O311 1.251 . S
O300 C280 1.257 . S
O300 Eu281 2.473 . S
O301 C280 1.260 . S
O301 Eu281 2.480 . S
O302 Eu281 2.430 . S
O302 C288 1.259 . S
O303 Eu281 2.670 . S
O303 C288 1.270 . S
O303 Eu291 2.355 . S
O304 Eu281 2.394 . S
O304 C289 1.251 . S
O305 C289 1.251 . S
O305 Eu291 2.374 . S
O306 C290 1.257 . S
O306 Eu291 2.473 . S
O307 C290 1.260 . S
O307 Eu291 2.480 . S
O308 Eu291 2.430 . S
O308 C298 1.259 . S
O309 Eu281 2.355 . S
O309 Eu291 2.670 . S
O309 C298 1.270 . S
O310 Eu291 2.394 . S
O310 C299 1.251 . S
O311 Eu281 2.374 . S
O311 C299 1.251 . S
H312 C283 0.931 . S
H313 C284 0.931 . S
H314 C286 0.931 . S
H315 C287 0.931 . S
H316 C293 0.931 . S
H317 C294 0.931 . S
H318 C296 0.931 . S
H319 C297 0.931 . S
C320 Eu321 2.835 . S
C320 C322 1.500 . S
C320 O340 1.257 . S
C320 O341 1.260 . S
Eu321 C320 2.835 . S
Eu321 O340 2.473 . S
Eu321 O341 2.480 . S
Eu321 O342 2.430 . S
Eu321 O343 2.670 . S
Eu321 O344 2.394 1_565 S
Eu321 O349 2.355 . S
Eu321 O351 2.374 . S
C322 C320 1.500 . S
C322 C323 1.377 . S
C322 C327 1.377 1_565 S
C323 C322 1.377 . S
C323 C324 1.395 . S
C323 H352 0.931 . S
C324 C323 1.395 . S
C324 C325 1.383 1_565 S
C324 H353 0.931 . S
C325 C324 1.383 1_545 S
C325 C326 1.394 . S
C326 C325 1.394 . S
C326 C327 1.378 . S
C326 H354 0.931 . S
C327 C322 1.377 1_545 S
C327 C326 1.378 . S
C327 H355 0.931 . S
C328 O342 1.259 . S
C328 O343 1.270 . S
C329 O344 1.251 . S
C329 O345 1.251 . S
C330 Eu331 2.835 1_565 S
C330 C332 1.500 . S
C330 O346 1.257 . S
C330 O347 1.260 1_565 S
Eu331 C330 2.835 1_545 S
Eu331 O343 2.355 1_645 S
Eu331 O345 2.374 1_655 S
Eu331 O346 2.473 1_545 S
Eu331 O347 2.480 . S
Eu331 O348 2.430 . S
Eu331 O349 2.670 1_645 S
Eu331 O350 2.394 1_545 S
C332 C330 1.500 . S
C332 C333 1.377 . S
C332 C337 1.377 . S
C333 C332 1.377 . S
C333 C334 1.395 . S
C333 H356 0.931 . S
C334 C333 1.395 . S
C334 C335 1.383 . S
C334 H357 0.931 . S
C335 C334 1.383 . S
C335 C336 1.394 . S
C336 C335 1.394 . S
C336 C337 1.378 . S
C336 H358 0.931 . S
C337 C332 1.377 . S
C337 C336 1.378 . S
C337 H359 0.931 . S
C338 O348 1.259 1_465 S
C338 O349 1.270 . S
C339 O350 1.251 . S
C339 O351 1.251 1_655 S
O340 C320 1.257 . S
O340 Eu321 2.473 . S
O341 C320 1.260 . S
O341 Eu321 2.480 . S
O342 Eu321 2.430 . S
O342 C328 1.259 . S
O343 Eu321 2.670 . S
O343 C328 1.270 . S
O343 Eu331 2.355 1_465 S
O344 Eu321 2.394 1_545 S
O344 C329 1.251 . S
O345 C329 1.251 . S
O345 Eu331 2.374 1_455 S
O346 C330 1.257 . S
O346 Eu331 2.473 1_565 S
O347 C330 1.260 1_545 S
O347 Eu331 2.480 . S
O348 Eu331 2.430 . S
O348 C338 1.259 1_645 S
O349 Eu321 2.355 . S
O349 Eu331 2.670 1_465 S
O349 C338 1.270 . S
O350 Eu331 2.394 1_565 S
O350 C339 1.251 . S
O351 Eu321 2.374 . S
O351 C339 1.251 1_455 S
H352 C323 0.931 . S
H353 C324 0.931 . S
H354 C326 0.931 . S
H355 C327 0.931 . S
H356 C333 0.931 . S
H357 C334 0.931 . S
H358 C336 0.931 . S
H359 C337 0.931 . S
C360 Eu361 2.835 . S
C360 C362 1.500 . S
C360 O380 1.257 . S
C360 O381 1.260 . S
Eu361 C360 2.835 . S
Eu361 O380 2.473 . S
Eu361 O381 2.480 . S
Eu361 O382 2.430 . S
Eu361 O383 2.670 . S
Eu361 O384 2.394 . S
Eu361 O389 2.355 . S
Eu361 O391 2.374 . S
C362 C360 1.500 . S
C362 C363 1.377 1_455 S
C362 C367 1.377 1_455 S
C363 C362 1.377 1_655 S
C363 C364 1.395 . S
C363 H392 0.931 . S
C364 C363 1.395 . S
C364 C365 1.383 . S
C364 H393 0.931 . S
C365 C364 1.383 . S
C365 C366 1.394 . S
C366 C365 1.394 . S
C366 C367 1.378 . S
C366 H394 0.931 . S
C367 C362 1.377 1_655 S
C367 C366 1.378 . S
C367 H395 0.931 . S
C368 O382 1.259 . S
C368 O383 1.270 . S
C369 O384 1.251 . S
C369 O385 1.251 . S
C370 Eu371 2.835 . S
C370 C372 1.500 . S
C370 O386 1.257 . S
C370 O387 1.260 . S
Eu371 C370 2.835 . S
Eu371 O383 2.355 . S
Eu371 O385 2.374 . S
Eu371 O386 2.473 . S
Eu371 O387 2.480 . S
Eu371 O388 2.430 . S
Eu371 O389 2.670 . S
Eu371 O390 2.394 . S
C372 C370 1.500 . S
C372 C373 1.377 . S
C372 C377 1.377 . S
C373 C372 1.377 . S
C373 C374 1.395 . S
C373 H396 0.931 . S
C374 C373 1.395 . S
C374 C375 1.383 . S
C374 H397 0.931 . S
C375 C374 1.383 . S
C375 C376 1.394 . S
C376 C375 1.394 . S
C376 C377 1.378 . S
C376 H398 0.931 . S
C377 C372 1.377 . S
C377 C376 1.378 . S
C377 H399 0.931 . S
C378 O388 1.259 . S
C378 O389 1.270 . S
C379 O390 1.251 . S
C379 O391 1.251 . S
O380 C360 1.257 . S
O380 Eu361 2.473 . S
O381 C360 1.260 . S
O381 Eu361 2.480 . S
O382 Eu361 2.430 . S
O382 C368 1.259 . S
O383 Eu361 2.670 . S
O383 C368 1.270 . S
O383 Eu371 2.355 . S
O384 Eu361 2.394 . S
O384 C369 1.251 . S
O385 C369 1.251 . S
O385 Eu371 2.374 . S
O386 C370 1.257 . S
O386 Eu371 2.473 . S
O387 C370 1.260 . S
O387 Eu371 2.480 . S
O388 Eu371 2.430 . S
O388 C378 1.259 . S
O389 Eu361 2.355 . S
O389 Eu371 2.670 . S
O389 C378 1.270 . S
O390 Eu371 2.394 . S
O390 C379 1.251 . S
O391 Eu361 2.374 . S
O391 C379 1.251 . S
H392 C363 0.931 . S
H393 C364 0.931 . S
H394 C366 0.931 . S
H395 C367 0.931 . S
H396 C373 0.931 . S
H397 C374 0.931 . S
H398 C376 0.931 . S
H399 C377 0.931 . S
C400 Eu401 2.835 . S
C400 C402 1.500 . S
C400 O420 1.257 . S
C400 O421 1.260 . S
Eu401 C400 2.835 . S
Eu401 O420 2.473 . S
Eu401 O421 2.480 . S
Eu401 O422 2.430 . S
Eu401 O423 2.670 . S
Eu401 O424 2.394 . S
Eu401 O429 2.355 . S
Eu401 O431 2.374 . S
C402 C400 1.500 . S
C402 C403 1.377 . S
C402 C407 1.377 . S
C403 C402 1.377 . S
C403 C404 1.395 . S
C403 H432 0.931 . S
C404 C403 1.395 . S
C404 C405 1.383 . S
C404 H433 0.931 . S
C405 C404 1.383 . S
C405 C406 1.394 . S
C406 C405 1.394 . S
C406 C407 1.378 . S
C406 H434 0.931 . S
C407 C402 1.377 . S
C407 C406 1.378 . S
C407 H435 0.931 . S
C408 O422 1.259 . S
C408 O423 1.270 . S
C409 O424 1.251 . S
C409 O425 1.251 . S
C410 Eu411 2.835 . S
C410 C412 1.500 . S
C410 O426 1.257 . S
C410 O427 1.260 . S
Eu411 C410 2.835 . S
Eu411 O423 2.355 1_655 S
Eu411 O425 2.374 1_655 S
Eu411 O426 2.473 . S
Eu411 O427 2.480 . S
Eu411 O428 2.430 . S
Eu411 O429 2.670 1_655 S
Eu411 O430 2.394 . S
C412 C410 1.500 . S
C412 C413 1.377 . S
C412 C417 1.377 . S
C413 C412 1.377 . S
C413 C414 1.395 . S
C413 H436 0.931 . S
C414 C413 1.395 . S
C414 C415 1.383 . S
C414 H437 0.931 . S
C415 C414 1.383 . S
C415 C416 1.394 . S
C416 C415 1.394 . S
C416 C417 1.378 . S
C416 H438 0.931 . S
C417 C412 1.377 . S
C417 C416 1.378 . S
C417 H439 0.931 . S
C418 O428 1.259 1_455 S
C418 O429 1.270 . S
C419 O430 1.251 . S
C419 O431 1.251 1_655 S
O420 C400 1.257 . S
O420 Eu401 2.473 . S
O421 C400 1.260 . S
O421 Eu401 2.480 . S
O422 Eu401 2.430 . S
O422 C408 1.259 . S
O423 Eu401 2.670 . S
O423 C408 1.270 . S
O423 Eu411 2.355 1_455 S
O424 Eu401 2.394 . S
O424 C409 1.251 . S
O425 C409 1.251 . S
O425 Eu411 2.374 1_455 S
O426 C410 1.257 . S
O426 Eu411 2.473 . S
O427 C410 1.260 . S
O427 Eu411 2.480 . S
O428 Eu411 2.430 . S
O428 C418 1.259 1_655 S
O429 Eu401 2.355 . S
O429 Eu411 2.670 1_455 S
O429 C418 1.270 . S
O430 Eu411 2.394 . S
O430 C419 1.251 . S
O431 Eu401 2.374 . S
O431 C419 1.251 1_455 S
H432 C403 0.931 . S
H433 C404 0.931 . S
H434 C406 0.931 . S
H435 C407 0.931 . S
H436 C413 0.931 . S
H437 C414 0.931 . S
H438 C416 0.931 . S
H439 C417 0.931 . S
C440 Eu441 2.835 . S
C440 C442 1.500 . S
C440 O460 1.257 . S
C440 O461 1.260 . S
Eu441 C440 2.835 . S
Eu441 O460 2.473 . S
Eu441 O461 2.480 . S
Eu441 O462 2.430 . S
Eu441 O463 2.670 . S
Eu441 O464 2.394 1_565 S
Eu441 O469 2.355 . S
Eu441 O471 2.374 . S
C442 C440 1.500 . S
C442 C443 1.377 1_455 S
C442 C447 1.377 1_465 S
C443 C442 1.377 1_655 S
C443 C444 1.395 . S
C443 H472 0.931 . S
C444 C443 1.395 . S
C444 C445 1.383 1_565 S
C444 H473 0.931 . S
C445 C444 1.383 1_545 S
C445 C446 1.394 . S
C446 C445 1.394 . S
C446 C447 1.378 . S
C446 H474 0.931 . S
C447 C442 1.377 1_645 S
C447 C446 1.378 . S
C447 H475 0.931 . S
C448 O462 1.259 . S
C448 O463 1.270 . S
C449 O464 1.251 . S
C449 O465 1.251 . S
C450 Eu451 2.835 1_565 S
C450 C452 1.500 . S
C450 O466 1.257 . S
C450 O467 1.260 1_565 S
Eu451 C450 2.835 1_545 S
Eu451 O463 2.355 1_545 S
Eu451 O465 2.374 . S
Eu451 O466 2.473 1_545 S
Eu451 O467 2.480 . S
Eu451 O468 2.430 . S
Eu451 O469 2.670 1_545 S
Eu451 O470 2.394 1_545 S
C452 C450 1.500 . S
C452 C453 1.377 . S
C452 C457 1.377 . S
C453 C452 1.377 . S
C453 C454 1.395 . S
C453 H476 0.931 . S
C454 C453 1.395 . S
C454 C455 1.383 . S
C454 H477 0.931 . S
C455 C454 1.383 . S
C455 C456 1.394 . S
C456 C455 1.394 . S
C456 C457 1.378 . S
C456 H478 0.931 . S
C457 C452 1.377 . S
C457 C456 1.378 . S
C457 H479 0.931 . S
C458 O468 1.259 1_565 S
C458 O469 1.270 . S
C459 O470 1.251 . S
C459 O471 1.251 . S
O460 C440 1.257 . S
O460 Eu441 2.473 . S
O461 C440 1.260 . S
O461 Eu441 2.480 . S
O462 Eu441 2.430 . S
O462 C448 1.259 . S
O463 Eu441 2.670 . S
O463 C448 1.270 . S
O463 Eu451 2.355 1_565 S
O464 Eu441 2.394 1_545 S
O464 C449 1.251 . S
O465 C449 1.251 . S
O465 Eu451 2.374 . S
O466 C450 1.257 . S
O466 Eu451 2.473 1_565 S
O467 C450 1.260 1_545 S
O467 Eu451 2.480 . S
O468 Eu451 2.430 . S
O468 C458 1.259 1_545 S
O469 Eu441 2.355 . S
O469 Eu451 2.670 1_565 S
O469 C458 1.270 . S
O470 Eu451 2.394 1_565 S
O470 C459 1.251 . S
O471 Eu441 2.374 . S
O471 C459 1.251 . S
H472 C443 0.931 . S
H473 C444 0.931 . S
H474 C446 0.931 . S
H475 C447 0.931 . S
H476 C453 0.931 . S
H477 C454 0.931 . S
H478 C456 0.931 . S
H479 C457 0.931 . S
C480 Eu481 2.835 1_545 S
C480 C482 1.500 . S
C480 O500 1.257 . S
C480 O501 1.260 1_545 S
Eu481 C480 2.835 1_565 S
Eu481 O500 2.473 1_565 S
Eu481 O501 2.480 . S
Eu481 O502 2.430 . S
Eu481 O503 2.670 1_465 S
Eu481 O504 2.394 1_565 S
Eu481 O509 2.355 1_465 S
Eu481 O511 2.374 1_455 S
C482 C480 1.500 . S
C482 C483 1.377 . S
C482 C487 1.377 . S
C483 C482 1.377 . S
C483 C484 1.395 . S
C483 H512 0.931 . S
C484 C483 1.395 . S
C484 C485 1.383 . S
C484 H513 0.931 . S
C485 C484 1.383 . S
C485 C486 1.394 . S
C486 C485 1.394 . S
C486 C487 1.378 . S
C486 H514 0.931 . S
C487 C482 1.377 . S
C487 C486 1.378 . S
C487 H515 0.931 . S
C488 O502 1.259 1_645 S
C488 O503 1.270 . S
C489 O504 1.251 . S
C489 O505 1.251 1_455 S
C490 Eu491 2.835 . S
C490 C492 1.500 . S
C490 O506 1.257 . S
C490 O507 1.260 . S
Eu491 C490 2.835 . S
Eu491 O503 2.355 . S
Eu491 O505 2.374 . S
Eu491 O506 2.473 . S
Eu491 O507 2.480 . S
Eu491 O508 2.430 . S
Eu491 O509 2.670 . S
Eu491 O510 2.394 1_545 S
C492 C490 1.500 . S
C492 C493 1.377 . S
C492 C497 1.377 1_545 S
C493 C492 1.377 . S
C493 C494 1.395 . S
C493 H516 0.931 . S
C494 C493 1.395 . S
C494 C495 1.383 1_545 S
C494 H517 0.931 . S
C495 C494 1.383 1_565 S
C495 C496 1.394 . S
C496 C495 1.394 . S
C496 C497 1.378 . S
C496 H518 0.931 . S
C497 C492 1.377 1_565 S
C497 C496 1.378 . S
C497 H519 0.931 . S
C498 O508 1.259 . S
C498 O509 1.270 . S
C499 O510 1.251 . S
C499 O511 1.251 . S
O500 C480 1.257 . S
O500 Eu481 2.473 1_545 S
O501 C480 1.260 1_565 S
O501 Eu481 2.480 . S
O502 Eu481 2.430 . S
O502 C488 1.259 1_465 S
O503 Eu481 2.670 1_645 S
O503 C488 1.270 . S
O503 Eu491 2.355 . S
O504 Eu481 2.394 1_545 S
O504 C489 1.251 . S
O505 C489 1.251 1_655 S
O505 Eu491 2.374 . S
O506 C490 1.257 . S
O506 Eu491 2.473 . S
O507 C490 1.260 . S
O507 Eu491 2.480 . S
O508 Eu491 2.430 . S
O508 C498 1.259 . S
O509 Eu481 2.355 1_645 S
O509 Eu491 2.670 . S
O509 C498 1.270 . S
O510 Eu491 2.394 1_565 S
O510 C499 1.251 . S
O511 Eu481 2.374 1_655 S
O511 C499 1.251 . S
H512 C483 0.931 . S
H513 C484 0.931 . S
H514 C486 0.931 . S
H515 C487 0.931 . S
H516 C493 0.931 . S
H517 C494 0.931 . S
H518 C496 0.931 . S
H519 C497 0.931 . S
C520 Eu521 2.835 . S
C520 C522 1.500 . S
C520 O540 1.257 . S
C520 O541 1.260 . S
Eu521 C520 2.835 . S
Eu521 O540 2.473 . S
Eu521 O541 2.480 . S
Eu521 O542 2.430 . S
Eu521 O543 2.670 . S
Eu521 O544 2.394 . S
Eu521 O549 2.355 . S
Eu521 O551 2.374 . S
C522 C520 1.500 . S
C522 C523 1.377 . S
C522 C527 1.377 . S
C523 C522 1.377 . S
C523 C524 1.395 . S
C523 H552 0.931 . S
C524 C523 1.395 . S
C524 C525 1.383 . S
C524 H553 0.931 . S
C525 C524 1.383 . S
C525 C526 1.394 . S
C526 C525 1.394 . S
C526 C527 1.378 . S
C526 H554 0.931 . S
C527 C522 1.377 . S
C527 C526 1.378 . S
C527 H555 0.931 . S
C528 O542 1.259 . S
C528 O543 1.270 . S
C529 O544 1.251 . S
C529 O545 1.251 . S
C530 Eu531 2.835 . S
C530 C532 1.500 . S
C530 O546 1.257 . S
C530 O547 1.260 . S
Eu531 C530 2.835 . S
Eu531 O543 2.355 . S
Eu531 O545 2.374 . S
Eu531 O546 2.473 . S
Eu531 O547 2.480 . S
Eu531 O548 2.430 . S
Eu531 O549 2.670 . S
Eu531 O550 2.394 . S
C532 C530 1.500 . S
C532 C533 1.377 1_655 S
C532 C537 1.377 1_655 S
C533 C532 1.377 1_455 S
C533 C534 1.395 . S
C533 H556 0.931 . S
C534 C533 1.395 . S
C534 C535 1.383 . S
C534 H557 0.931 . S
C535 C534 1.383 . S
C535 C536 1.394 . S
C536 C535 1.394 . S
C536 C537 1.378 . S
C536 H558 0.931 . S
C537 C532 1.377 1_455 S
C537 C536 1.378 . S
C537 H559 0.931 . S
C538 O548 1.259 . S
C538 O549 1.270 . S
C539 O550 1.251 . S
C539 O551 1.251 . S
O540 C520 1.257 . S
O540 Eu521 2.473 . S
O541 C520 1.260 . S
O541 Eu521 2.480 . S
O542 Eu521 2.430 . S
O542 C528 1.259 . S
O543 Eu521 2.670 . S
O543 C528 1.270 . S
O543 Eu531 2.355 . S
O544 Eu521 2.394 . S
O544 C529 1.251 . S
O545 C529 1.251 . S
O545 Eu531 2.374 . S
O546 C530 1.257 . S
O546 Eu531 2.473 . S
O547 C530 1.260 . S
O547 Eu531 2.480 . S
O548 Eu531 2.430 . S
O548 C538 1.259 . S
O549 Eu521 2.355 . S
O549 Eu531 2.670 . S
O549 C538 1.270 . S
O550 Eu531 2.394 . S
O550 C539 1.251 . S
O551 Eu521 2.374 . S
O551 C539 1.251 . S
H552 C523 0.931 . S
H553 C524 0.931 . S
H554 C526 0.931 . S
H555 C527 0.931 . S
H556 C533 0.931 . S
H557 C534 0.931 . S
H558 C536 0.931 . S
H559 C537 0.931 . S
C560 Eu561 2.835 . S
C560 C562 1.500 . S
C560 O580 1.257 . S
C560 O581 1.260 . S
Eu561 C560 2.835 . S
Eu561 O580 2.473 . S
Eu561 O581 2.480 . S
Eu561 O582 2.430 . S
Eu561 O583 2.670 1_455 S
Eu561 O584 2.394 . S
Eu561 O589 2.355 1_455 S
Eu561 O591 2.374 1_455 S
C562 C560 1.500 . S
C562 C563 1.377 . S
C562 C567 1.377 . S
C563 C562 1.377 . S
C563 C564 1.395 . S
C563 H592 0.931 . S
C564 C563 1.395 . S
C564 C565 1.383 . S
C564 H593 0.931 . S
C565 C564 1.383 . S
C565 C566 1.394 . S
C566 C565 1.394 . S
C566 C567 1.378 . S
C566 H594 0.931 . S
C567 C562 1.377 . S
C567 C566 1.378 . S
C567 H595 0.931 . S
C568 O582 1.259 1_655 S
C568 O583 1.270 . S
C569 O584 1.251 . S
C569 O585 1.251 1_455 S
C570 Eu571 2.835 . S
C570 C572 1.500 . S
C570 O586 1.257 . S
C570 O587 1.260 . S
Eu571 C570 2.835 . S
Eu571 O583 2.355 . S
Eu571 O585 2.374 . S
Eu571 O586 2.473 . S
Eu571 O587 2.480 . S
Eu571 O588 2.430 . S
Eu571 O589 2.670 . S
Eu571 O590 2.394 . S
C572 C570 1.500 . S
C572 C573 1.377 . S
C572 C577 1.377 . S
C573 C572 1.377 . S
C573 C574 1.395 . S
C573 H596 0.931 . S
C574 C573 1.395 . S
C574 C575 1.383 . S
C574 H597 0.931 . S
C575 C574 1.383 . S
C575 C576 1.394 . S
C576 C575 1.394 . S
C576 C577 1.378 . S
C576 H598 0.931 . S
C577 C572 1.377 . S
C577 C576 1.378 . S
C577 H599 0.931 . S
C578 O588 1.259 . S
C578 O589 1.270 . S
C579 O590 1.251 . S
C579 O591 1.251 . S
O580 C560 1.257 . S
O580 Eu561 2.473 . S
O581 C560 1.260 . S
O581 Eu561 2.480 . S
O582 Eu561 2.430 . S
O582 C568 1.259 1_455 S
O583 Eu561 2.670 1_655 S
O583 C568 1.270 . S
O583 Eu571 2.355 . S
O584 Eu561 2.394 . S
O584 C569 1.251 . S
O585 C569 1.251 1_655 S
O585 Eu571 2.374 . S
O586 C570 1.257 . S
O586 Eu571 2.473 . S
O587 C570 1.260 . S
O587 Eu571 2.480 . S
O588 Eu571 2.430 . S
O588 C578 1.259 . S
O589 Eu561 2.355 1_655 S
O589 Eu571 2.670 . S
O589 C578 1.270 . S
O590 Eu571 2.394 . S
O590 C579 1.251 . S
O591 Eu561 2.374 1_655 S
O591 C579 1.251 . S
H592 C563 0.931 . S
H593 C564 0.931 . S
H594 C566 0.931 . S
H595 C567 0.931 . S
H596 C573 0.931 . S
H597 C574 0.931 . S
H598 C576 0.931 . S
H599 C577 0.931 . S
C600 Eu601 2.835 1_545 S
C600 C602 1.500 . S
C600 O620 1.257 . S
C600 O621 1.260 1_545 S
Eu601 C600 2.835 1_565 S
Eu601 O620 2.473 1_565 S
Eu601 O621 2.480 . S
Eu601 O622 2.430 . S
Eu601 O623 2.670 1_565 S
Eu601 O624 2.394 1_565 S
Eu601 O629 2.355 1_565 S
Eu601 O631 2.374 . S
C602 C600 1.500 . S
C602 C603 1.377 . S
C602 C607 1.377 . S
C603 C602 1.377 . S
C603 C604 1.395 . S
C603 H632 0.931 . S
C604 C603 1.395 . S
C604 C605 1.383 . S
C604 H633 0.931 . S
C605 C604 1.383 . S
C605 C606 1.394 . S
C606 C605 1.394 . S
C606 C607 1.378 . S
C606 H634 0.931 . S
C607 C602 1.377 . S
C607 C606 1.378 . S
C607 H635 0.931 . S
C608 O622 1.259 1_545 S
C608 O623 1.270 . S
C609 O624 1.251 . S
C609 O625 1.251 . S
C610 Eu611 2.835 . S
C610 C612 1.500 . S
C610 O626 1.257 . S
C610 O627 1.260 . S
Eu611 C610 2.835 . S
Eu611 O623 2.355 . S
Eu611 O625 2.374 . S
Eu611 O626 2.473 . S
Eu611 O627 2.480 . S
Eu611 O628 2.430 . S
Eu611 O629 2.670 . S
Eu611 O630 2.394 1_545 S
C612 C610 1.500 . S
C612 C613 1.377 1_655 S
C612 C617 1.377 1_645 S
C613 C612 1.377 1_455 S
C613 C614 1.395 . S
C613 H636 0.931 . S
C614 C613 1.395 . S
C614 C615 1.383 1_545 S
C614 H637 0.931 . S
C615 C614 1.383 1_565 S
C615 C616 1.394 . S
C616 C615 1.394 . S
C616 C617 1.378 . S
C616 H638 0.931 . S
C617 C612 1.377 1_465 S
C617 C616 1.378 . S
C617 H639 0.931 . S
C618 O628 1.259 . S
C618 O629 1.270 . S
C619 O630 1.251 . S
C619 O631 1.251 . S
O620 C600 1.257 . S
O620 Eu601 2.473 1_545 S
O621 C600 1.260 1_565 S
O621 Eu601 2.480 . S
O622 Eu601 2.430 . S
O622 C608 1.259 1_565 S
O623 Eu601 2.670 1_545 S
O623 C608 1.270 . S
O623 Eu611 2.355 . S
O624 Eu601 2.394 1_545 S
O624 C609 1.251 . S
O625 C609 1.251 . S
O625 Eu611 2.374 . S
O626 C610 1.257 . S
O626 Eu611 2.473 . S
O627 C610 1.260 . S
O627 Eu611 2.480 . S
O628 Eu611 2.430 . S
O628 C618 1.259 . S
O629 Eu601 2.355 1_545 S
O629 Eu611 2.670 . S
O629 C618 1.270 . S
O630 Eu611 2.394 1_565 S
O630 C619 1.251 . S
O631 Eu601 2.374 . S
O631 C619 1.251 . S
H632 C603 0.931 . S
H633 C604 0.931 . S
H634 C606 0.931 . S
H635 C607 0.931 . S
H636 C613 0.931 . S
H637 C614 0.931 . S
H638 C616 0.931 . S
H639 C617 0.931 . S
C640 Eu641 2.835 . S
C640 C642 1.500 . S
C640 O660 1.257 . S
C640 O661 1.260 . S
Eu641 C640 2.835 . S
Eu641 O660 2.473 . S
Eu641 O661 2.480 . S
Eu641 O662 2.430 . S
Eu641 O663 2.670 . S
Eu641 O664 2.394 . S
Eu641 O669 2.355 . S
Eu641 O671 2.374 . S
C642 C640 1.500 . S
C642 C643 1.377 . S
C642 C647 1.377 . S
C643 C642 1.377 . S
C643 C644 1.395 . S
C643 H672 0.931 . S
C644 C643 1.395 . S
C644 C645 1.383 . S
C644 H673 0.931 . S
C645 C644 1.383 . S
C645 C646 1.394 . S
C646 C645 1.394 . S
C646 C647 1.378 . S
C646 H674 0.931 . S
C647 C642 1.377 . S
C647 C646 1.378 . S
C647 H675 0.931 . S
C648 O662 1.259 . S
C648 O663 1.270 . S
C649 O664 1.251 . S
C649 O665 1.251 . S
C650 Eu651 2.835 . S
C650 C652 1.500 . S
C650 O666 1.257 . S
C650 O667 1.260 . S
Eu651 C650 2.835 . S
Eu651 O663 2.355 . S
Eu651 O665 2.374 . S
Eu651 O666 2.473 . S
Eu651 O667 2.480 . S
Eu651 O668 2.430 . S
Eu651 O669 2.670 . S
Eu651 O670 2.394 . S
C652 C650 1.500 . S
C652 C653 1.377 . S
C652 C657 1.377 . S
C653 C652 1.377 . S
C653 C654 1.395 . S
C653 H676 0.931 . S
C654 C653 1.395 . S
C654 C655 1.383 . S
C654 H677 0.931 . S
C655 C654 1.383 . S
C655 C656 1.394 . S
C656 C655 1.394 . S
C656 C657 1.378 . S
C656 H678 0.931 . S
C657 C652 1.377 . S
C657 C656 1.378 . S
C657 H679 0.931 . S
C658 O668 1.259 . S
C658 O669 1.270 . S
C659 O670 1.251 . S
C659 O671 1.251 . S
O660 C640 1.257 . S
O660 Eu641 2.473 . S
O661 C640 1.260 . S
O661 Eu641 2.480 . S
O662 Eu641 2.430 . S
O662 C648 1.259 . S
O663 Eu641 2.670 . S
O663 C648 1.270 . S
O663 Eu651 2.355 . S
O664 Eu641 2.394 . S
O664 C649 1.251 . S
O665 C649 1.251 . S
O665 Eu651 2.374 . S
O666 C650 1.257 . S
O666 Eu651 2.473 . S
O667 C650 1.260 . S
O667 Eu651 2.480 . S
O668 Eu651 2.430 . S
O668 C658 1.259 . S
O669 Eu641 2.355 . S
O669 Eu651 2.670 . S
O669 C658 1.270 . S
O670 Eu651 2.394 . S
O670 C659 1.251 . S
O671 Eu641 2.374 . S
O671 C659 1.251 . S
H672 C643 0.931 . S
H673 C644 0.931 . S
H674 C646 0.931 . S
H675 C647 0.931 . S
H676 C653 0.931 . S
H677 C654 0.931 . S
H678 C656 0.931 . S
H679 C657 0.931 . S
C680 Eu681 2.835 . S
C680 C682 1.500 . S
C680 O700 1.257 . S
C680 O701 1.260 . S
Eu681 C680 2.835 . S
Eu681 O700 2.473 . S
Eu681 O701 2.480 . S
Eu681 O702 2.430 . S
Eu681 O703 2.670 . S
Eu681 O704 2.394 . S
Eu681 O709 2.355 . S
Eu681 O711 2.374 . S
C682 C680 1.500 . S
C682 C683 1.377 . S
C682 C687 1.377 . S
C683 C682 1.377 . S
C683 C684 1.395 . S
C683 H712 0.931 . S
C684 C683 1.395 . S
C684 C685 1.383 . S
C684 H713 0.931 . S
C685 C684 1.383 . S
C685 C686 1.394 . S
C686 C685 1.394 . S
C686 C687 1.378 . S
C686 H714 0.931 . S
C687 C682 1.377 . S
C687 C686 1.378 . S
C687 H715 0.931 . S
C688 O702 1.259 . S
C688 O703 1.270 . S
C689 O704 1.251 . S
C689 O705 1.251 . S
C690 Eu691 2.835 . S
C690 C692 1.500 . S
C690 O706 1.257 . S
C690 O707 1.260 . S
Eu691 C690 2.835 . S
Eu691 O703 2.355 . S
Eu691 O705 2.374 . S
Eu691 O706 2.473 . S
Eu691 O707 2.480 . S
Eu691 O708 2.430 . S
Eu691 O709 2.670 . S
Eu691 O710 2.394 . S
C692 C690 1.500 . S
C692 C693 1.377 . S
C692 C697 1.377 . S
C693 C692 1.377 . S
C693 C694 1.395 1_655 S
C693 H716 0.931 . S
C694 C693 1.395 1_455 S
C694 C695 1.383 . S
C694 H717 0.931 . S
C695 C694 1.383 . S
C695 C696 1.394 . S
C696 C695 1.394 . S
C696 C697 1.378 1_455 S
C696 H718 0.931 . S
C697 C692 1.377 . S
C697 C696 1.378 1_655 S
C697 H719 0.931 . S
C698 O708 1.259 . S
C698 O709 1.270 . S
C699 O710 1.251 . S
C699 O711 1.251 . S
O700 C680 1.257 . S
O700 Eu681 2.473 . S
O701 C680 1.260 . S
O701 Eu681 2.480 . S
O702 Eu681 2.430 . S
O702 C688 1.259 . S
O703 Eu681 2.670 . S
O703 C688 1.270 . S
O703 Eu691 2.355 . S
O704 Eu681 2.394 . S
O704 C689 1.251 . S
O705 C689 1.251 . S
O705 Eu691 2.374 . S
O706 C690 1.257 . S
O706 Eu691 2.473 . S
O707 C690 1.260 . S
O707 Eu691 2.480 . S
O708 Eu691 2.430 . S
O708 C698 1.259 . S
O709 Eu681 2.355 . S
O709 Eu691 2.670 . S
O709 C698 1.270 . S
O710 Eu691 2.394 . S
O710 C699 1.251 . S
O711 Eu681 2.374 . S
O711 C699 1.251 . S
H712 C683 0.931 . S
H713 C684 0.931 . S
H714 C686 0.931 . S
H715 C687 0.931 . S
H716 C693 0.931 . S
H717 C694 0.931 . S
H718 C696 0.931 . S
H719 C697 0.931 . S
C720 Eu721 2.835 . S
C720 C722 1.500 . S
C720 O740 1.257 . S
C720 O741 1.260 . S
Eu721 C720 2.835 . S
Eu721 O740 2.473 . S
Eu721 O741 2.480 . S
Eu721 O742 2.430 . S
Eu721 O743 2.670 . S
Eu721 O744 2.394 . S
Eu721 O749 2.355 . S
Eu721 O751 2.374 . S
C722 C720 1.500 . S
C722 C723 1.377 . S
C722 C727 1.377 . S
C723 C722 1.377 . S
C723 C724 1.395 . S
C723 H752 0.931 . S
C724 C723 1.395 . S
C724 C725 1.383 . S
C724 H753 0.931 . S
C725 C724 1.383 . S
C725 C726 1.394 . S
C726 C725 1.394 . S
C726 C727 1.378 . S
C726 H754 0.931 . S
C727 C722 1.377 . S
C727 C726 1.378 . S
C727 H755 0.931 . S
C728 O742 1.259 . S
C728 O743 1.270 . S
C729 O744 1.251 . S
C729 O745 1.251 . S
C730 Eu731 2.835 . S
C730 C732 1.500 . S
C730 O746 1.257 . S
C730 O747 1.260 . S
Eu731 C730 2.835 . S
Eu731 O743 2.355 . S
Eu731 O745 2.374 . S
Eu731 O746 2.473 . S
Eu731 O747 2.480 . S
Eu731 O748 2.430 . S
Eu731 O749 2.670 . S
Eu731 O750 2.394 . S
C732 C730 1.500 . S
C732 C733 1.377 . S
C732 C737 1.377 . S
C733 C732 1.377 . S
C733 C734 1.395 . S
C733 H756 0.931 . S
C734 C733 1.395 . S
C734 C735 1.383 . S
C734 H757 0.931 . S
C735 C734 1.383 . S
C735 C736 1.394 . S
C736 C735 1.394 . S
C736 C737 1.378 . S
C736 H758 0.931 . S
C737 C732 1.377 . S
C737 C736 1.378 . S
C737 H759 0.931 . S
C738 O748 1.259 . S
C738 O749 1.270 . S
C739 O750 1.251 . S
C739 O751 1.251 . S
O740 C720 1.257 . S
O740 Eu721 2.473 . S
O741 C720 1.260 . S
O741 Eu721 2.480 . S
O742 Eu721 2.430 . S
O742 C728 1.259 . S
O743 Eu721 2.670 . S
O743 C728 1.270 . S
O743 Eu731 2.355 . S
O744 Eu721 2.394 . S
O744 C729 1.251 . S
O745 C729 1.251 . S
O745 Eu731 2.374 . S
O746 C730 1.257 . S
O746 Eu731 2.473 . S
O747 C730 1.260 . S
O747 Eu731 2.480 . S
O748 Eu731 2.430 . S
O748 C738 1.259 . S
O749 Eu721 2.355 . S
O749 Eu731 2.670 . S
O749 C738 1.270 . S
O750 Eu731 2.394 . S
O750 C739 1.251 . S
O751 Eu721 2.374 . S
O751 C739 1.251 . S
H752 C723 0.931 . S
H753 C724 0.931 . S
H754 C726 0.931 . S
H755 C727 0.931 . S
H756 C733 0.931 . S
H757 C734 0.931 . S
H758 C736 0.931 . S
H759 C737 0.931 . S
C760 Eu761 2.835 . S
C760 C762 1.500 . S
C760 O780 1.257 . S
C760 O781 1.260 . S
Eu761 C760 2.835 . S
Eu761 O780 2.473 . S
Eu761 O781 2.480 . S
Eu761 O782 2.430 . S
Eu761 O783 2.670 . S
Eu761 O784 2.394 . S
Eu761 O789 2.355 . S
Eu761 O791 2.374 . S
C762 C760 1.500 . S
C762 C763 1.377 . S
C762 C767 1.377 . S
C763 C762 1.377 . S
C763 C764 1.395 . S
C763 H792 0.931 . S
C764 C763 1.395 . S
C764 C765 1.383 . S
C764 H793 0.931 . S
C765 C764 1.383 . S
C765 C766 1.394 . S
C766 C765 1.394 . S
C766 C767 1.378 . S
C766 H794 0.931 . S
C767 C762 1.377 . S
C767 C766 1.378 . S
C767 H795 0.931 . S
C768 O782 1.259 . S
C768 O783 1.270 . S
C769 O784 1.251 . S
C769 O785 1.251 . S
C770 Eu771 2.835 . S
C770 C772 1.500 . S
C770 O786 1.257 . S
C770 O787 1.260 . S
Eu771 C770 2.835 . S
Eu771 O783 2.355 . S
Eu771 O785 2.374 . S
Eu771 O786 2.473 . S
Eu771 O787 2.480 . S
Eu771 O788 2.430 . S
Eu771 O789 2.670 . S
Eu771 O790 2.394 . S
C772 C770 1.500 . S
C772 C773 1.377 . S
C772 C777 1.377 . S
C773 C772 1.377 . S
C773 C774 1.395 1_655 S
C773 H796 0.931 . S
C774 C773 1.395 1_455 S
C774 C775 1.383 . S
C774 H797 0.931 . S
C775 C774 1.383 . S
C775 C776 1.394 . S
C776 C775 1.394 . S
C776 C777 1.378 1_455 S
C776 H798 0.931 . S
C777 C772 1.377 . S
C777 C776 1.378 1_655 S
C777 H799 0.931 . S
C778 O788 1.259 . S
C778 O789 1.270 . S
C779 O790 1.251 . S
C779 O791 1.251 . S
O780 C760 1.257 . S
O780 Eu761 2.473 . S
O781 C760 1.260 . S
O781 Eu761 2.480 . S
O782 Eu761 2.430 . S
O782 C768 1.259 . S
O783 Eu761 2.670 . S
O783 C768 1.270 . S
O783 Eu771 2.355 . S
O784 Eu761 2.394 . S
O784 C769 1.251 . S
O785 C769 1.251 . S
O785 Eu771 2.374 . S
O786 C770 1.257 . S
O786 Eu771 2.473 . S
O787 C770 1.260 . S
O787 Eu771 2.480 . S
O788 Eu771 2.430 . S
O788 C778 1.259 . S
O789 Eu761 2.355 . S
O789 Eu771 2.670 . S
O789 C778 1.270 . S
O790 Eu771 2.394 . S
O790 C779 1.251 . S
O791 Eu761 2.374 . S
O791 C779 1.251 . S
H792 C763 0.931 . S
H793 C764 0.931 . S
H794 C766 0.931 . S
H795 C767 0.931 . S
H796 C773 0.931 . S
H797 C774 0.931 . S
H798 C776 0.931 . S
H799 C777 0.931 . S
C800 Eu801 2.835 . S
C800 C802 1.500 . S
C800 O820 1.257 . S
C800 O821 1.260 . S
Eu801 C800 2.835 . S
Eu801 O820 2.473 . S
Eu801 O821 2.480 . S
Eu801 O822 2.430 . S
Eu801 O823 2.670 . S
Eu801 O824 2.394 . S
Eu801 O829 2.355 . S
Eu801 O831 2.374 . S
C802 C800 1.500 . S
C802 C803 1.377 . S
C802 C807 1.377 . S
C803 C802 1.377 . S
C803 C804 1.395 . S
C803 H832 0.931 . S
C804 C803 1.395 . S
C804 C805 1.383 . S
C804 H833 0.931 . S
C805 C804 1.383 . S
C805 C806 1.394 . S
C806 C805 1.394 . S
C806 C807 1.378 . S
C806 H834 0.931 . S
C807 C802 1.377 . S
C807 C806 1.378 . S
C807 H835 0.931 . S
C808 O822 1.259 . S
C808 O823 1.270 . S
C809 O824 1.251 . S
C809 O825 1.251 . S
C810 Eu811 2.835 . S
C810 C812 1.500 . S
C810 O826 1.257 . S
C810 O827 1.260 . S
Eu811 C810 2.835 . S
Eu811 O823 2.355 . S
Eu811 O825 2.374 . S
Eu811 O826 2.473 . S
Eu811 O827 2.480 . S
Eu811 O828 2.430 . S
Eu811 O829 2.670 . S
Eu811 O830 2.394 . S
C812 C810 1.500 . S
C812 C813 1.377 . S
C812 C817 1.377 . S
C813 C812 1.377 . S
C813 C814 1.395 . S
C813 H836 0.931 . S
C814 C813 1.395 . S
C814 C815 1.383 . S
C814 H837 0.931 . S
C815 C814 1.383 . S
C815 C816 1.394 . S
C816 C815 1.394 . S
C816 C817 1.378 . S
C816 H838 0.931 . S
C817 C812 1.377 . S
C817 C816 1.378 . S
C817 H839 0.931 . S
C818 O828 1.259 . S
C818 O829 1.270 . S
C819 O830 1.251 . S
C819 O831 1.251 . S
O820 C800 1.257 . S
O820 Eu801 2.473 . S
O821 C800 1.260 . S
O821 Eu801 2.480 . S
O822 Eu801 2.430 . S
O822 C808 1.259 . S
O823 Eu801 2.670 . S
O823 C808 1.270 . S
O823 Eu811 2.355 . S
O824 Eu801 2.394 . S
O824 C809 1.251 . S
O825 C809 1.251 . S
O825 Eu811 2.374 . S
O826 C810 1.257 . S
O826 Eu811 2.473 . S
O827 C810 1.260 . S
O827 Eu811 2.480 . S
O828 Eu811 2.430 . S
O828 C818 1.259 . S
O829 Eu801 2.355 . S
O829 Eu811 2.670 . S
O829 C818 1.270 . S
O830 Eu811 2.394 . S
O830 C819 1.251 . S
O831 Eu801 2.374 . S
O831 C819 1.251 . S
H832 C803 0.931 . S
H833 C804 0.931 . S
H834 C806 0.931 . S
H835 C807 0.931 . S
H836 C813 0.931 . S
H837 C814 0.931 . S
H838 C816 0.931 . S
H839 C817 0.931 . S
C840 Eu841 2.835 . S
C840 C842 1.500 . S
C840 O860 1.257 . S
C840 O861 1.260 . S
Eu841 C840 2.835 . S
Eu841 O860 2.473 . S
Eu841 O861 2.480 . S
Eu841 O862 2.430 . S
Eu841 O863 2.670 . S
Eu841 O864 2.394 . S
Eu841 O869 2.355 . S
Eu841 O871 2.374 . S
C842 C840 1.500 . S
C842 C843 1.377 . S
C842 C847 1.377 . S
C843 C842 1.377 . S
C843 C844 1.395 1_455 S
C843 H872 0.931 . S
C844 C843 1.395 1_655 S
C844 C845 1.383 . S
C844 H873 0.931 . S
C845 C844 1.383 . S
C845 C846 1.394 . S
C846 C845 1.394 . S
C846 C847 1.378 1_655 S
C846 H874 0.931 . S
C847 C842 1.377 . S
C847 C846 1.378 1_455 S
C847 H875 0.931 . S
C848 O862 1.259 . S
C848 O863 1.270 . S
C849 O864 1.251 . S
C849 O865 1.251 . S
C850 Eu851 2.835 . S
C850 C852 1.500 . S
C850 O866 1.257 . S
C850 O867 1.260 . S
Eu851 C850 2.835 . S
Eu851 O863 2.355 . S
Eu851 O865 2.374 . S
Eu851 O866 2.473 . S
Eu851 O867 2.480 . S
Eu851 O868 2.430 . S
Eu851 O869 2.670 . S
Eu851 O870 2.394 . S
C852 C850 1.500 . S
C852 C853 1.377 . S
C852 C857 1.377 . S
C853 C852 1.377 . S
C853 C854 1.395 . S
C853 H876 0.931 . S
C854 C853 1.395 . S
C854 C855 1.383 . S
C854 H877 0.931 . S
C855 C854 1.383 . S
C855 C856 1.394 . S
C856 C855 1.394 . S
C856 C857 1.378 . S
C856 H878 0.931 . S
C857 C852 1.377 . S
C857 C856 1.378 . S
C857 H879 0.931 . S
C858 O868 1.259 . S
C858 O869 1.270 . S
C859 O870 1.251 . S
C859 O871 1.251 . S
O860 C840 1.257 . S
O860 Eu841 2.473 . S
O861 C840 1.260 . S
O861 Eu841 2.480 . S
O862 Eu841 2.430 . S
O862 C848 1.259 . S
O863 Eu841 2.670 . S
O863 C848 1.270 . S
O863 Eu851 2.355 . S
O864 Eu841 2.394 . S
O864 C849 1.251 . S
O865 C849 1.251 . S
O865 Eu851 2.374 . S
O866 C850 1.257 . S
O866 Eu851 2.473 . S
O867 C850 1.260 . S
O867 Eu851 2.480 . S
O868 Eu851 2.430 . S
O868 C858 1.259 . S
O869 Eu841 2.355 . S
O869 Eu851 2.670 . S
O869 C858 1.270 . S
O870 Eu851 2.394 . S
O870 C859 1.251 . S
O871 Eu841 2.374 . S
O871 C859 1.251 . S
H872 C843 0.931 . S
H873 C844 0.931 . S
H874 C846 0.931 . S
H875 C847 0.931 . S
H876 C853 0.931 . S
H877 C854 0.931 . S
H878 C856 0.931 . S
H879 C857 0.931 . S
C880 Eu881 2.835 . S
C880 C882 1.500 . S
C880 O900 1.257 . S
C880 O901 1.260 . S
Eu881 C880 2.835 . S
Eu881 O900 2.473 . S
Eu881 O901 2.480 . S
Eu881 O902 2.430 . S
Eu881 O903 2.670 . S
Eu881 O904 2.394 . S
Eu881 O909 2.355 . S
Eu881 O911 2.374 . S
C882 C880 1.500 . S
C882 C883 1.377 . S
C882 C887 1.377 . S
C883 C882 1.377 . S
C883 C884 1.395 . S
C883 H912 0.931 . S
C884 C883 1.395 . S
C884 C885 1.383 . S
C884 H913 0.931 . S
C885 C884 1.383 . S
C885 C886 1.394 . S
C886 C885 1.394 . S
C886 C887 1.378 . S
C886 H914 0.931 . S
C887 C882 1.377 . S
C887 C886 1.378 . S
C887 H915 0.931 . S
C888 O902 1.259 . S
C888 O903 1.270 . S
C889 O904 1.251 . S
C889 O905 1.251 . S
C890 Eu891 2.835 . S
C890 C892 1.500 . S
C890 O906 1.257 . S
C890 O907 1.260 . S
Eu891 C890 2.835 . S
Eu891 O903 2.355 . S
Eu891 O905 2.374 . S
Eu891 O906 2.473 . S
Eu891 O907 2.480 . S
Eu891 O908 2.430 . S
Eu891 O909 2.670 . S
Eu891 O910 2.394 . S
C892 C890 1.500 . S
C892 C893 1.377 . S
C892 C897 1.377 . S
C893 C892 1.377 . S
C893 C894 1.395 . S
C893 H916 0.931 . S
C894 C893 1.395 . S
C894 C895 1.383 . S
C894 H917 0.931 . S
C895 C894 1.383 . S
C895 C896 1.394 . S
C896 C895 1.394 . S
C896 C897 1.378 . S
C896 H918 0.931 . S
C897 C892 1.377 . S
C897 C896 1.378 . S
C897 H919 0.931 . S
C898 O908 1.259 . S
C898 O909 1.270 . S
C899 O910 1.251 . S
C899 O911 1.251 . S
O900 C880 1.257 . S
O900 Eu881 2.473 . S
O901 C880 1.260 . S
O901 Eu881 2.480 . S
O902 Eu881 2.430 . S
O902 C888 1.259 . S
O903 Eu881 2.670 . S
O903 C888 1.270 . S
O903 Eu891 2.355 . S
O904 Eu881 2.394 . S
O904 C889 1.251 . S
O905 C889 1.251 . S
O905 Eu891 2.374 . S
O906 C890 1.257 . S
O906 Eu891 2.473 . S
O907 C890 1.260 . S
O907 Eu891 2.480 . S
O908 Eu891 2.430 . S
O908 C898 1.259 . S
O909 Eu881 2.355 . S
O909 Eu891 2.670 . S
O909 C898 1.270 . S
O910 Eu891 2.394 . S
O910 C899 1.251 . S
O911 Eu881 2.374 . S
O911 C899 1.251 . S
H912 C883 0.931 . S
H913 C884 0.931 . S
H914 C886 0.931 . S
H915 C887 0.931 . S
H916 C893 0.931 . S
H917 C894 0.931 . S
H918 C896 0.931 . S
H919 C897 0.931 . S
C920 Eu921 2.835 . S
C920 C922 1.500 . S
C920 O940 1.257 . S
C920 O941 1.260 . S
Eu921 C920 2.835 . S
Eu921 O940 2.473 . S
Eu921 O941 2.480 . S
Eu921 O942 2.430 . S
Eu921 O943 2.670 . S
Eu921 O944 2.394 . S
Eu921 O949 2.355 . S
Eu921 O951 2.374 . S
C922 C920 1.500 . S
C922 C923 1.377 . S
C922 C927 1.377 . S
C923 C922 1.377 . S
C923 C924 1.395 1_455 S
C923 H952 0.931 . S
C924 C923 1.395 1_655 S
C924 C925 1.383 . S
C924 H953 0.931 . S
C925 C924 1.383 . S
C925 C926 1.394 . S
C926 C925 1.394 . S
C926 C927 1.378 1_655 S
C926 H954 0.931 . S
C927 C922 1.377 . S
C927 C926 1.378 1_455 S
C927 H955 0.931 . S
C928 O942 1.259 . S
C928 O943 1.270 . S
C929 O944 1.251 . S
C929 O945 1.251 . S
C930 Eu931 2.835 . S
C930 C932 1.500 . S
C930 O946 1.257 . S
C930 O947 1.260 . S
Eu931 C930 2.835 . S
Eu931 O943 2.355 . S
Eu931 O945 2.374 . S
Eu931 O946 2.473 . S
Eu931 O947 2.480 . S
Eu931 O948 2.430 . S
Eu931 O949 2.670 . S
Eu931 O950 2.394 . S
C932 C930 1.500 . S
C932 C933 1.377 . S
C932 C937 1.377 . S
C933 C932 1.377 . S
C933 C934 1.395 . S
C933 H956 0.931 . S
C934 C933 1.395 . S
C934 C935 1.383 . S
C934 H957 0.931 . S
C935 C934 1.383 . S
C935 C936 1.394 . S
C936 C935 1.394 . S
C936 C937 1.378 . S
C936 H958 0.931 . S
C937 C932 1.377 . S
C937 C936 1.378 . S
C937 H959 0.931 . S
C938 O948 1.259 . S
C938 O949 1.270 . S
C939 O950 1.251 . S
C939 O951 1.251 . S
O940 C920 1.257 . S
O940 Eu921 2.473 . S
O941 C920 1.260 . S
O941 Eu921 2.480 . S
O942 Eu921 2.430 . S
O942 C928 1.259 . S
O943 Eu921 2.670 . S
O943 C928 1.270 . S
O943 Eu931 2.355 . S
O944 Eu921 2.394 . S
O944 C929 1.251 . S
O945 C929 1.251 . S
O945 Eu931 2.374 . S
O946 C930 1.257 . S
O946 Eu931 2.473 . S
O947 C930 1.260 . S
O947 Eu931 2.480 . S
O948 Eu931 2.430 . S
O948 C938 1.259 . S
O949 Eu921 2.355 . S
O949 Eu931 2.670 . S
O949 C938 1.270 . S
O950 Eu931 2.394 . S
O950 C939 1.251 . S
O951 Eu921 2.374 . S
O951 C939 1.251 . S
H952 C923 0.931 . S
H953 C924 0.931 . S
H954 C926 0.931 . S
H955 C927 0.931 . S
H956 C933 0.931 . S
H957 C934 0.931 . S
H958 C936 0.931 . S
H959 C937 0.931 . S
C960 Eu961 2.835 . S
C960 C962 1.500 . S
C960 O980 1.257 . S
C960 O981 1.260 . S
Eu961 C960 2.835 . S
Eu961 O980 2.473 . S
Eu961 O981 2.480 . S
Eu961 O982 2.430 . S
Eu961 O983 2.670 . S
Eu961 O984 2.394 1_565 S
Eu961 O989 2.355 . S
Eu961 O991 2.374 . S
C962 C960 1.500 . S
C962 C963 1.377 . S
C962 C967 1.377 1_565 S
C963 C962 1.377 . S
C963 C964 1.395 . S
C963 H992 0.931 . S
C964 C963 1.395 . S
C964 C965 1.383 1_565 S
C964 H993 0.931 . S
C965 C964 1.383 1_545 S
C965 C966 1.394 . S
C966 C965 1.394 . S
C966 C967 1.378 . S
C966 H994 0.931 . S
C967 C962 1.377 1_545 S
C967 C966 1.378 . S
C967 H995 0.931 . S
C968 O982 1.259 . S
C968 O983 1.270 . S
C969 O984 1.251 . S
C969 O985 1.251 . S
C970 Eu971 2.835 1_565 S
C970 C972 1.500 . S
C970 O986 1.257 . S
C970 O987 1.260 1_565 S
Eu971 C970 2.835 1_545 S
Eu971 O983 2.355 1_545 S
Eu971 O985 2.374 . S
Eu971 O986 2.473 1_545 S
Eu971 O987 2.480 . S
Eu971 O988 2.430 . S
Eu971 O989 2.670 1_545 S
Eu971 O990 2.394 1_545 S
C972 C970 1.500 . S
C972 C973 1.377 . S
C972 C977 1.377 . S
C973 C972 1.377 . S
C973 C974 1.395 . S
C973 H996 0.931 . S
C974 C973 1.395 . S
C974 C975 1.383 . S
C974 H997 0.931 . S
C975 C974 1.383 . S
C975 C976 1.394 . S
C976 C975 1.394 . S
C976 C977 1.378 . S
C976 H998 0.931 . S
C977 C972 1.377 . S
C977 C976 1.378 . S
C977 H999 0.931 . S
C978 O988 1.259 1_565 S
C978 O989 1.270 . S
C979 O990 1.251 . S
C979 O991 1.251 . S
O980 C960 1.257 . S
O980 Eu961 2.473 . S
O981 C960 1.260 . S
O981 Eu961 2.480 . S
O982 Eu961 2.430 . S
O982 C968 1.259 . S
O983 Eu961 2.670 . S
O983 C968 1.270 . S
O983 Eu971 2.355 1_565 S
O984 Eu961 2.394 1_545 S
O984 C969 1.251 . S
O985 C969 1.251 . S
O985 Eu971 2.374 . S
O986 C970 1.257 . S
O986 Eu971 2.473 1_565 S
O987 C970 1.260 1_545 S
O987 Eu971 2.480 . S
O988 Eu971 2.430 . S
O988 C978 1.259 1_545 S
O989 Eu961 2.355 . S
O989 Eu971 2.670 1_565 S
O989 C978 1.270 . S
O990 Eu971 2.394 1_565 S
O990 C979 1.251 . S
O991 Eu961 2.374 . S
O991 C979 1.251 . S
H992 C963 0.931 . S
H993 C964 0.931 . S
H994 C966 0.931 . S
H995 C967 0.931 . S
H996 C973 0.931 . S
H997 C974 0.931 . S
H998 C976 0.931 . S
H999 C977 0.931 . S
C1000 Eu1001 2.835 . S
C1000 C1002 1.500 . S
C1000 O1020 1.257 . S
C1000 O1021 1.260 . S
Eu1001 C1000 2.835 . S
Eu1001 O1020 2.473 . S
Eu1001 O1021 2.480 . S
Eu1001 O1022 2.430 . S
Eu1001 O1023 2.670 . S
Eu1001 O1024 2.394 . S
Eu1001 O1029 2.355 . S
Eu1001 O1031 2.374 . S
C1002 C1000 1.500 . S
C1002 C1003 1.377 . S
C1002 C1007 1.377 . S
C1003 C1002 1.377 . S
C1003 C1004 1.395 . S
C1003 H1032 0.931 . S
C1004 C1003 1.395 . S
C1004 C1005 1.383 . S
C1004 H1033 0.931 . S
C1005 C1004 1.383 . S
C1005 C1006 1.394 . S
C1006 C1005 1.394 . S
C1006 C1007 1.378 . S
C1006 H1034 0.931 . S
C1007 C1002 1.377 . S
C1007 C1006 1.378 . S
C1007 H1035 0.931 . S
C1008 O1022 1.259 . S
C1008 O1023 1.270 . S
C1009 O1024 1.251 . S
C1009 O1025 1.251 . S
C1010 Eu1011 2.835 . S
C1010 C1012 1.500 . S
C1010 O1026 1.257 . S
C1010 O1027 1.260 . S
Eu1011 C1010 2.835 . S
Eu1011 O1023 2.355 . S
Eu1011 O1025 2.374 . S
Eu1011 O1026 2.473 . S
Eu1011 O1027 2.480 . S
Eu1011 O1028 2.430 . S
Eu1011 O1029 2.670 . S
Eu1011 O1030 2.394 . S
C1012 C1010 1.500 . S
C1012 C1013 1.377 . S
C1012 C1017 1.377 . S
C1013 C1012 1.377 . S
C1013 C1014 1.395 1_655 S
C1013 H1036 0.931 . S
C1014 C1013 1.395 1_455 S
C1014 C1015 1.383 . S
C1014 H1037 0.931 . S
C1015 C1014 1.383 . S
C1015 C1016 1.394 . S
C1016 C1015 1.394 . S
C1016 C1017 1.378 1_455 S
C1016 H1038 0.931 . S
C1017 C1012 1.377 . S
C1017 C1016 1.378 1_655 S
C1017 H1039 0.931 . S
C1018 O1028 1.259 . S
C1018 O1029 1.270 . S
C1019 O1030 1.251 . S
C1019 O1031 1.251 . S
O1020 C1000 1.257 . S
O1020 Eu1001 2.473 . S
O1021 C1000 1.260 . S
O1021 Eu1001 2.480 . S
O1022 Eu1001 2.430 . S
O1022 C1008 1.259 . S
O1023 Eu1001 2.670 . S
O1023 C1008 1.270 . S
O1023 Eu1011 2.355 . S
O1024 Eu1001 2.394 . S
O1024 C1009 1.251 . S
O1025 C1009 1.251 . S
O1025 Eu1011 2.374 . S
O1026 C1010 1.257 . S
O1026 Eu1011 2.473 . S
O1027 C1010 1.260 . S
O1027 Eu1011 2.480 . S
O1028 Eu1011 2.430 . S
O1028 C1018 1.259 . S
O1029 Eu1001 2.355 . S
O1029 Eu1011 2.670 . S
O1029 C1018 1.270 . S
O1030 Eu1011 2.394 . S
O1030 C1019 1.251 . S
O1031 Eu1001 2.374 . S
O1031 C1019 1.251 . S
H1032 C1003 0.931 . S
H1033 C1004 0.931 . S
H1034 C1006 0.931 . S
H1035 C1007 0.931 . S
H1036 C1013 0.931 . S
H1037 C1014 0.931 . S
H1038 C1016 0.931 . S
H1039 C1017 0.931 . S
C1040 Eu1041 2.835 . S
C1040 C1042 1.500 . S
C1040 O1060 1.257 . S
C1040 O1061 1.260 . S
Eu1041 C1040 2.835 . S
Eu1041 O1060 2.473 . S
Eu1041 O1061 2.480 . S
Eu1041 O1062 2.430 . S
Eu1041 O1063 2.670 . S
Eu1041 O1064 2.394 . S
Eu1041 O1069 2.355 . S
Eu1041 O1071 2.374 . S
C1042 C1040 1.500 . S
C1042 C1043 1.377 . S
C1042 C1047 1.377 . S
C1043 C1042 1.377 . S
C1043 C1044 1.395 . S
C1043 H1072 0.931 . S
C1044 C1043 1.395 . S
C1044 C1045 1.383 . S
C1044 H1073 0.931 . S
C1045 C1044 1.383 . S
C1045 C1046 1.394 . S
C1046 C1045 1.394 . S
C1046 C1047 1.378 . S
C1046 H1074 0.931 . S
C1047 C1042 1.377 . S
C1047 C1046 1.378 . S
C1047 H1075 0.931 . S
C1048 O1062 1.259 . S
C1048 O1063 1.270 . S
C1049 O1064 1.251 . S
C1049 O1065 1.251 . S
C1050 Eu1051 2.835 . S
C1050 C1052 1.500 . S
C1050 O1066 1.257 . S
C1050 O1067 1.260 . S
Eu1051 C1050 2.835 . S
Eu1051 O1063 2.355 . S
Eu1051 O1065 2.374 . S
Eu1051 O1066 2.473 . S
Eu1051 O1067 2.480 . S
Eu1051 O1068 2.430 . S
Eu1051 O1069 2.670 . S
Eu1051 O1070 2.394 . S
C1052 C1050 1.500 . S
C1052 C1053 1.377 . S
C1052 C1057 1.377 . S
C1053 C1052 1.377 . S
C1053 C1054 1.395 . S
C1053 H1076 0.931 . S
C1054 C1053 1.395 . S
C1054 C1055 1.383 . S
C1054 H1077 0.931 . S
C1055 C1054 1.383 . S
C1055 C1056 1.394 . S
C1056 C1055 1.394 . S
C1056 C1057 1.378 . S
C1056 H1078 0.931 . S
C1057 C1052 1.377 . S
C1057 C1056 1.378 . S
C1057 H1079 0.931 . S
C1058 O1068 1.259 . S
C1058 O1069 1.270 . S
C1059 O1070 1.251 . S
C1059 O1071 1.251 . S
O1060 C1040 1.257 . S
O1060 Eu1041 2.473 . S
O1061 C1040 1.260 . S
O1061 Eu1041 2.480 . S
O1062 Eu1041 2.430 . S
O1062 C1048 1.259 . S
O1063 Eu1041 2.670 . S
O1063 C1048 1.270 . S
O1063 Eu1051 2.355 . S
O1064 Eu1041 2.394 . S
O1064 C1049 1.251 . S
O1065 C1049 1.251 . S
O1065 Eu1051 2.374 . S
O1066 C1050 1.257 . S
O1066 Eu1051 2.473 . S
O1067 C1050 1.260 . S
O1067 Eu1051 2.480 . S
O1068 Eu1051 2.430 . S
O1068 C1058 1.259 . S
O1069 Eu1041 2.355 . S
O1069 Eu1051 2.670 . S
O1069 C1058 1.270 . S
O1070 Eu1051 2.394 . S
O1070 C1059 1.251 . S
O1071 Eu1041 2.374 . S
O1071 C1059 1.251 . S
H1072 C1043 0.931 . S
H1073 C1044 0.931 . S
H1074 C1046 0.931 . S
H1075 C1047 0.931 . S
H1076 C1053 0.931 . S
H1077 C1054 0.931 . S
H1078 C1056 0.931 . S
H1079 C1057 0.931 . S
C1080 Eu1081 2.835 . S
C1080 C1082 1.500 . S
C1080 O1100 1.257 . S
C1080 O1101 1.260 . S
Eu1081 C1080 2.835 . S
Eu1081 O1100 2.473 . S
Eu1081 O1101 2.480 . S
Eu1081 O1102 2.430 . S
Eu1081 O1103 2.670 . S
Eu1081 O1104 2.394 1_565 S
Eu1081 O1109 2.355 . S
Eu1081 O1111 2.374 . S
C1082 C1080 1.500 . S
C1082 C1083 1.377 . S
C1082 C1087 1.377 1_565 S
C1083 C1082 1.377 . S
C1083 C1084 1.395 . S
C1083 H1112 0.931 . S
C1084 C1083 1.395 . S
C1084 C1085 1.383 1_565 S
C1084 H1113 0.931 . S
C1085 C1084 1.383 1_545 S
C1085 C1086 1.394 . S
C1086 C1085 1.394 . S
C1086 C1087 1.378 . S
C1086 H1114 0.931 . S
C1087 C1082 1.377 1_545 S
C1087 C1086 1.378 . S
C1087 H1115 0.931 . S
C1088 O1102 1.259 . S
C1088 O1103 1.270 . S
C1089 O1104 1.251 . S
C1089 O1105 1.251 . S
C1090 Eu1091 2.835 1_565 S
C1090 C1092 1.500 . S
C1090 O1106 1.257 . S
C1090 O1107 1.260 1_565 S
Eu1091 C1090 2.835 1_545 S
Eu1091 O1103 2.355 1_545 S
Eu1091 O1105 2.374 . S
Eu1091 O1106 2.473 1_545 S
Eu1091 O1107 2.480 . S
Eu1091 O1108 2.430 . S
Eu1091 O1109 2.670 1_545 S
Eu1091 O1110 2.394 1_545 S
C1092 C1090 1.500 . S
C1092 C1093 1.377 . S
C1092 C1097 1.377 . S
C1093 C1092 1.377 . S
C1093 C1094 1.395 1_655 S
C1093 H1116 0.931 . S
C1094 C1093 1.395 1_455 S
C1094 C1095 1.383 . S
C1094 H1117 0.931 . S
C1095 C1094 1.383 . S
C1095 C1096 1.394 . S
C1096 C1095 1.394 . S
C1096 C1097 1.378 1_455 S
C1096 H1118 0.931 . S
C1097 C1092 1.377 . S
C1097 C1096 1.378 1_655 S
C1097 H1119 0.931 . S
C1098 O1108 1.259 1_565 S
C1098 O1109 1.270 . S
C1099 O1110 1.251 . S
C1099 O1111 1.251 . S
O1100 C1080 1.257 . S
O1100 Eu1081 2.473 . S
O1101 C1080 1.260 . S
O1101 Eu1081 2.480 . S
O1102 Eu1081 2.430 . S
O1102 C1088 1.259 . S
O1103 Eu1081 2.670 . S
O1103 C1088 1.270 . S
O1103 Eu1091 2.355 1_565 S
O1104 Eu1081 2.394 1_545 S
O1104 C1089 1.251 . S
O1105 C1089 1.251 . S
O1105 Eu1091 2.374 . S
O1106 C1090 1.257 . S
O1106 Eu1091 2.473 1_565 S
O1107 C1090 1.260 1_545 S
O1107 Eu1091 2.480 . S
O1108 Eu1091 2.430 . S
O1108 C1098 1.259 1_545 S
O1109 Eu1081 2.355 . S
O1109 Eu1091 2.670 1_565 S
O1109 C1098 1.270 . S
O1110 Eu1091 2.394 1_565 S
O1110 C1099 1.251 . S
O1111 Eu1081 2.374 . S
O1111 C1099 1.251 . S
H1112 C1083 0.931 . S
H1113 C1084 0.931 . S
H1114 C1086 0.931 . S
H1115 C1087 0.931 . S
H1116 C1093 0.931 . S
H1117 C1094 0.931 . S
H1118 C1096 0.931 . S
H1119 C1097 0.931 . S
C1120 Eu1121 2.835 1_545 S
C1120 C1122 1.500 . S
C1120 O1140 1.257 . S
C1120 O1141 1.260 1_545 S
Eu1121 C1120 2.835 1_565 S
Eu1121 O1140 2.473 1_565 S
Eu1121 O1141 2.480 . S
Eu1121 O1142 2.430 . S
Eu1121 O1143 2.670 1_565 S
Eu1121 O1144 2.394 1_565 S
Eu1121 O1149 2.355 1_565 S
Eu1121 O1151 2.374 . S
C1122 C1120 1.500 . S
C1122 C1123 1.377 . S
C1122 C1127 1.377 . S
C1123 C1122 1.377 . S
C1123 C1124 1.395 . S
C1123 H1152 0.931 . S
C1124 C1123 1.395 . S
C1124 C1125 1.383 . S
C1124 H1153 0.931 . S
C1125 C1124 1.383 . S
C1125 C1126 1.394 . S
C1126 C1125 1.394 . S
C1126 C1127 1.378 . S
C1126 H1154 0.931 . S
C1127 C1122 1.377 . S
C1127 C1126 1.378 . S
C1127 H1155 0.931 . S
C1128 O1142 1.259 1_545 S
C1128 O1143 1.270 . S
C1129 O1144 1.251 . S
C1129 O1145 1.251 . S
C1130 Eu1131 2.835 . S
C1130 C1132 1.500 . S
C1130 O1146 1.257 . S
C1130 O1147 1.260 . S
Eu1131 C1130 2.835 . S
Eu1131 O1143 2.355 . S
Eu1131 O1145 2.374 . S
Eu1131 O1146 2.473 . S
Eu1131 O1147 2.480 . S
Eu1131 O1148 2.430 . S
Eu1131 O1149 2.670 . S
Eu1131 O1150 2.394 1_545 S
C1132 C1130 1.500 . S
C1132 C1133 1.377 . S
C1132 C1137 1.377 1_545 S
C1133 C1132 1.377 . S
C1133 C1134 1.395 . S
C1133 H1156 0.931 . S
C1134 C1133 1.395 . S
C1134 C1135 1.383 1_545 S
C1134 H1157 0.931 . S
C1135 C1134 1.383 1_565 S
C1135 C1136 1.394 . S
C1136 C1135 1.394 . S
C1136 C1137 1.378 . S
C1136 H1158 0.931 . S
C1137 C1132 1.377 1_565 S
C1137 C1136 1.378 . S
C1137 H1159 0.931 . S
C1138 O1148 1.259 . S
C1138 O1149 1.270 . S
C1139 O1150 1.251 . S
C1139 O1151 1.251 . S
O1140 C1120 1.257 . S
O1140 Eu1121 2.473 1_545 S
O1141 C1120 1.260 1_565 S
O1141 Eu1121 2.480 . S
O1142 Eu1121 2.430 . S
O1142 C1128 1.259 1_565 S
O1143 Eu1121 2.670 1_545 S
O1143 C1128 1.270 . S
O1143 Eu1131 2.355 . S
O1144 Eu1121 2.394 1_545 S
O1144 C1129 1.251 . S
O1145 C1129 1.251 . S
O1145 Eu1131 2.374 . S
O1146 C1130 1.257 . S
O1146 Eu1131 2.473 . S
O1147 C1130 1.260 . S
O1147 Eu1131 2.480 . S
O1148 Eu1131 2.430 . S
O1148 C1138 1.259 . S
O1149 Eu1121 2.355 1_545 S
O1149 Eu1131 2.670 . S
O1149 C1138 1.270 . S
O1150 Eu1131 2.394 1_565 S
O1150 C1139 1.251 . S
O1151 Eu1121 2.374 . S
O1151 C1139 1.251 . S
H1152 C1123 0.931 . S
H1153 C1124 0.931 . S
H1154 C1126 0.931 . S
H1155 C1127 0.931 . S
H1156 C1133 0.931 . S
H1157 C1134 0.931 . S
H1158 C1136 0.931 . S
H1159 C1137 0.931 . S
C1160 Eu1161 2.835 . S
C1160 C1162 1.500 . S
C1160 O1180 1.257 . S
C1160 O1181 1.260 . S
Eu1161 C1160 2.835 . S
Eu1161 O1180 2.473 . S
Eu1161 O1181 2.480 . S
Eu1161 O1182 2.430 . S
Eu1161 O1183 2.670 . S
Eu1161 O1184 2.394 . S
Eu1161 O1189 2.355 . S
Eu1161 O1191 2.374 . S
C1162 C1160 1.500 . S
C1162 C1163 1.377 . S
C1162 C1167 1.377 . S
C1163 C1162 1.377 . S
C1163 C1164 1.395 1_455 S
C1163 H1192 0.931 . S
C1164 C1163 1.395 1_655 S
C1164 C1165 1.383 . S
C1164 H1193 0.931 . S
C1165 C1164 1.383 . S
C1165 C1166 1.394 . S
C1166 C1165 1.394 . S
C1166 C1167 1.378 1_655 S
C1166 H1194 0.931 . S
C1167 C1162 1.377 . S
C1167 C1166 1.378 1_455 S
C1167 H1195 0.931 . S
C1168 O1182 1.259 . S
C1168 O1183 1.270 . S
C1169 O1184 1.251 . S
C1169 O1185 1.251 . S
C1170 Eu1171 2.835 . S
C1170 C1172 1.500 . S
C1170 O1186 1.257 . S
C1170 O1187 1.260 . S
Eu1171 C1170 2.835 . S
Eu1171 O1183 2.355 . S
Eu1171 O1185 2.374 . S
Eu1171 O1186 2.473 . S
Eu1171 O1187 2.480 . S
Eu1171 O1188 2.430 . S
Eu1171 O1189 2.670 . S
Eu1171 O1190 2.394 . S
C1172 C1170 1.500 . S
C1172 C1173 1.377 . S
C1172 C1177 1.377 . S
C1173 C1172 1.377 . S
C1173 C1174 1.395 . S
C1173 H1196 0.931 . S
C1174 C1173 1.395 . S
C1174 C1175 1.383 . S
C1174 H1197 0.931 . S
C1175 C1174 1.383 . S
C1175 C1176 1.394 . S
C1176 C1175 1.394 . S
C1176 C1177 1.378 . S
C1176 H1198 0.931 . S
C1177 C1172 1.377 . S
C1177 C1176 1.378 . S
C1177 H1199 0.931 . S
C1178 O1188 1.259 . S
C1178 O1189 1.270 . S
C1179 O1190 1.251 . S
C1179 O1191 1.251 . S
O1180 C1160 1.257 . S
O1180 Eu1161 2.473 . S
O1181 C1160 1.260 . S
O1181 Eu1161 2.480 . S
O1182 Eu1161 2.430 . S
O1182 C1168 1.259 . S
O1183 Eu1161 2.670 . S
O1183 C1168 1.270 . S
O1183 Eu1171 2.355 . S
O1184 Eu1161 2.394 . S
O1184 C1169 1.251 . S
O1185 C1169 1.251 . S
O1185 Eu1171 2.374 . S
O1186 C1170 1.257 . S
O1186 Eu1171 2.473 . S
O1187 C1170 1.260 . S
O1187 Eu1171 2.480 . S
O1188 Eu1171 2.430 . S
O1188 C1178 1.259 . S
O1189 Eu1161 2.355 . S
O1189 Eu1171 2.670 . S
O1189 C1178 1.270 . S
O1190 Eu1171 2.394 . S
O1190 C1179 1.251 . S
O1191 Eu1161 2.374 . S
O1191 C1179 1.251 . S
H1192 C1163 0.931 . S
H1193 C1164 0.931 . S
H1194 C1166 0.931 . S
H1195 C1167 0.931 . S
H1196 C1173 0.931 . S
H1197 C1174 0.931 . S
H1198 C1176 0.931 . S
H1199 C1177 0.931 . S
C1200 Eu1201 2.835 . S
C1200 C1202 1.500 . S
C1200 O1220 1.257 . S
C1200 O1221 1.260 . S
Eu1201 C1200 2.835 . S
Eu1201 O1220 2.473 . S
Eu1201 O1221 2.480 . S
Eu1201 O1222 2.430 . S
Eu1201 O1223 2.670 . S
Eu1201 O1224 2.394 . S
Eu1201 O1229 2.355 . S
Eu1201 O1231 2.374 . S
C1202 C1200 1.500 . S
C1202 C1203 1.377 . S
C1202 C1207 1.377 . S
C1203 C1202 1.377 . S
C1203 C1204 1.395 . S
C1203 H1232 0.931 . S
C1204 C1203 1.395 . S
C1204 C1205 1.383 . S
C1204 H1233 0.931 . S
C1205 C1204 1.383 . S
C1205 C1206 1.394 . S
C1206 C1205 1.394 . S
C1206 C1207 1.378 . S
C1206 H1234 0.931 . S
C1207 C1202 1.377 . S
C1207 C1206 1.378 . S
C1207 H1235 0.931 . S
C1208 O1222 1.259 . S
C1208 O1223 1.270 . S
C1209 O1224 1.251 . S
C1209 O1225 1.251 . S
C1210 Eu1211 2.835 . S
C1210 C1212 1.500 . S
C1210 O1226 1.257 . S
C1210 O1227 1.260 . S
Eu1211 C1210 2.835 . S
Eu1211 O1223 2.355 . S
Eu1211 O1225 2.374 . S
Eu1211 O1226 2.473 . S
Eu1211 O1227 2.480 . S
Eu1211 O1228 2.430 . S
Eu1211 O1229 2.670 . S
Eu1211 O1230 2.394 . S
C1212 C1210 1.500 . S
C1212 C1213 1.377 . S
C1212 C1217 1.377 . S
C1213 C1212 1.377 . S
C1213 C1214 1.395 . S
C1213 H1236 0.931 . S
C1214 C1213 1.395 . S
C1214 C1215 1.383 . S
C1214 H1237 0.931 . S
C1215 C1214 1.383 . S
C1215 C1216 1.394 . S
C1216 C1215 1.394 . S
C1216 C1217 1.378 . S
C1216 H1238 0.931 . S
C1217 C1212 1.377 . S
C1217 C1216 1.378 . S
C1217 H1239 0.931 . S
C1218 O1228 1.259 . S
C1218 O1229 1.270 . S
C1219 O1230 1.251 . S
C1219 O1231 1.251 . S
O1220 C1200 1.257 . S
O1220 Eu1201 2.473 . S
O1221 C1200 1.260 . S
O1221 Eu1201 2.480 . S
O1222 Eu1201 2.430 . S
O1222 C1208 1.259 . S
O1223 Eu1201 2.670 . S
O1223 C1208 1.270 . S
O1223 Eu1211 2.355 . S
O1224 Eu1201 2.394 . S
O1224 C1209 1.251 . S
O1225 C1209 1.251 . S
O1225 Eu1211 2.374 . S
O1226 C1210 1.257 . S
O1226 Eu1211 2.473 . S
O1227 C1210 1.260 . S
O1227 Eu1211 2.480 . S
O1228 Eu1211 2.430 . S
O1228 C1218 1.259 . S
O1229 Eu1201 2.355 . S
O1229 Eu1211 2.670 . S
O1229 C1218 1.270 . S
O1230 Eu1211 2.394 . S
O1230 C1219 1.251 . S
O1231 Eu1201 2.374 . S
O1231 C1219 1.251 . S
H1232 C1203 0.931 . S
H1233 C1204 0.931 . S
H1234 C1206 0.931 . S
H1235 C1207 0.931 . S
H1236 C1213 0.931 . S
H1237 C1214 0.931 . S
H1238 C1216 0.931 . S
H1239 C1217 0.931 . S
C1240 Eu1241 2.835 1_545 S
C1240 C1242 1.500 . S
C1240 O1260 1.257 . S
C1240 O1261 1.260 1_545 S
Eu1241 C1240 2.835 1_565 S
Eu1241 O1260 2.473 1_565 S
Eu1241 O1261 2.480 . S
Eu1241 O1262 2.430 . S
Eu1241 O1263 2.670 1_565 S
Eu1241 O1264 2.394 1_565 S
Eu1241 O1269 2.355 1_565 S
Eu1241 O1271 2.374 . S
C1242 C1240 1.500 . S
C1242 C1243 1.377 . S
C1242 C1247 1.377 . S
C1243 C1242 1.377 . S
C1243 C1244 1.395 1_455 S
C1243 H1272 0.931 . S
C1244 C1243 1.395 1_655 S
C1244 C1245 1.383 . S
C1244 H1273 0.931 . S
C1245 C1244 1.383 . S
C1245 C1246 1.394 . S
C1246 C1245 1.394 . S
C1246 C1247 1.378 1_655 S
C1246 H1274 0.931 . S
C1247 C1242 1.377 . S
C1247 C1246 1.378 1_455 S
C1247 H1275 0.931 . S
C1248 O1262 1.259 1_545 S
C1248 O1263 1.270 . S
C1249 O1264 1.251 . S
C1249 O1265 1.251 . S
C1250 Eu1251 2.835 . S
C1250 C1252 1.500 . S
C1250 O1266 1.257 . S
C1250 O1267 1.260 . S
Eu1251 C1250 2.835 . S
Eu1251 O1263 2.355 . S
Eu1251 O1265 2.374 . S
Eu1251 O1266 2.473 . S
Eu1251 O1267 2.480 . S
Eu1251 O1268 2.430 . S
Eu1251 O1269 2.670 . S
Eu1251 O1270 2.394 1_545 S
C1252 C1250 1.500 . S
C1252 C1253 1.377 . S
C1252 C1257 1.377 1_545 S
C1253 C1252 1.377 . S
C1253 C1254 1.395 . S
C1253 H1276 0.931 . S
C1254 C1253 1.395 . S
C1254 C1255 1.383 1_545 S
C1254 H1277 0.931 . S
C1255 C1254 1.383 1_565 S
C1255 C1256 1.394 . S
C1256 C1255 1.394 . S
C1256 C1257 1.378 . S
C1256 H1278 0.931 . S
C1257 C1252 1.377 1_565 S
C1257 C1256 1.378 . S
C1257 H1279 0.931 . S
C1258 O1268 1.259 . S
C1258 O1269 1.270 . S
C1259 O1270 1.251 . S
C1259 O1271 1.251 . S
O1260 C1240 1.257 . S
O1260 Eu1241 2.473 1_545 S
O1261 C1240 1.260 1_565 S
O1261 Eu1241 2.480 . S
O1262 Eu1241 2.430 . S
O1262 C1248 1.259 1_565 S
O1263 Eu1241 2.670 1_545 S
O1263 C1248 1.270 . S
O1263 Eu1251 2.355 . S
O1264 Eu1241 2.394 1_545 S
O1264 C1249 1.251 . S
O1265 C1249 1.251 . S
O1265 Eu1251 2.374 . S
O1266 C1250 1.257 . S
O1266 Eu1251 2.473 . S
O1267 C1250 1.260 . S
O1267 Eu1251 2.480 . S
O1268 Eu1251 2.430 . S
O1268 C1258 1.259 . S
O1269 Eu1241 2.355 1_545 S
O1269 Eu1251 2.670 . S
O1269 C1258 1.270 . S
O1270 Eu1251 2.394 1_565 S
O1270 C1259 1.251 . S
O1271 Eu1241 2.374 . S
O1271 C1259 1.251 . S
H1272 C1243 0.931 . S
H1273 C1244 0.931 . S
H1274 C1246 0.931 . S
H1275 C1247 0.931 . S
H1276 C1253 0.931 . S
H1277 C1254 0.931 . S
H1278 C1256 0.931 . S
H1279 C1257 0.931 . S
H1280 C1286 0.930 . S
H1281 C1290 0.930 . S
H1282 C1295 0.929 1_455 S
H1283 C1293 0.929 . S
H1284 C1288 0.929 . S
H1285 C1294 0.929 . S
C1286 H1280 0.930 . S
C1286 C1287 1.367 . S
C1286 C1294 1.378 . S
C1287 C1286 1.367 . S
C1287 C1295 1.433 . S
C1288 H1284 0.929 . S
C1288 C1290 1.378 . S
C1288 C1292 1.350 . S
C1289 C1292 1.463 . S
C1289 C1294 1.350 . S
C1289 N1297 1.427 . S
C1290 H1281 0.930 . S
C1290 C1288 1.378 . S
C1290 C1291 1.367 . S
C1291 C1290 1.367 . S
C1291 C1293 1.433 . S
C1292 C1288 1.350 . S
C1292 C1289 1.463 . S
C1292 N1296 1.427 . S
C1293 H1283 0.929 . S
C1293 C1291 1.433 . S
C1293 N1296 1.384 . S
C1294 H1285 0.929 . S
C1294 C1286 1.378 . S
C1294 C1289 1.350 . S
C1295 H1282 0.929 1_655 S
C1295 C1287 1.433 . S
C1295 N1297 1.384 . S
N1296 C1292 1.427 . S
N1296 C1293 1.384 . S
N1297 C1289 1.427 . S
N1297 C1295 1.384 . S
H1298 C1304 0.930 . S
H1299 C1308 0.930 . S
H1300 C1313 0.929 . S
H1301 C1311 0.929 . S
H1302 C1306 0.929 . S
H1303 C1312 0.929 . S
C1304 H1298 0.930 . S
C1304 C1305 1.367 . S
C1304 C1312 1.378 . S
C1305 C1304 1.367 . S
C1305 C1313 1.433 . S
C1306 H1302 0.929 . S
C1306 C1308 1.378 . S
C1306 C1310 1.350 . S
C1307 C1310 1.463 . S
C1307 C1312 1.350 . S
C1307 N1315 1.427 . S
C1308 H1299 0.930 . S
C1308 C1306 1.378 . S
C1308 C1309 1.367 . S
C1309 C1308 1.367 . S
C1309 C1311 1.433 . S
C1310 C1306 1.350 . S
C1310 C1307 1.463 . S
C1310 N1314 1.427 . S
C1311 H1301 0.929 . S
C1311 C1309 1.433 . S
C1311 N1314 1.384 . S
C1312 H1303 0.929 . S
C1312 C1304 1.378 . S
C1312 C1307 1.350 . S
C1313 H1300 0.929 . S
C1313 C1305 1.433 . S
C1313 N1315 1.384 . S
N1314 C1310 1.427 . S
N1314 C1311 1.384 . S
N1315 C1307 1.427 . S
N1315 C1313 1.384 . S
H1316 C1322 0.930 . S
H1317 C1326 0.930 . S
H1318 C1331 0.929 . S
H1319 C1329 0.929 . S
H1320 C1324 0.929 . S
H1321 C1330 0.929 . S
C1322 H1316 0.930 . S
C1322 C1323 1.367 . S
C1322 C1330 1.378 . S
C1323 C1322 1.367 . S
C1323 C1331 1.433 . S
C1324 H1320 0.929 . S
C1324 C1326 1.378 . S
C1324 C1328 1.350 . S
C1325 C1328 1.463 . S
C1325 C1330 1.350 . S
C1325 N1333 1.427 . S
C1326 H1317 0.930 . S
C1326 C1324 1.378 . S
C1326 C1327 1.367 . S
C1327 C1326 1.367 . S
C1327 C1329 1.433 . S
C1328 C1324 1.350 . S
C1328 C1325 1.463 . S
C1328 N1332 1.427 . S
C1329 H1319 0.929 . S
C1329 C1327 1.433 . S
C1329 N1332 1.384 . S
C1330 H1321 0.929 . S
C1330 C1322 1.378 . S
C1330 C1325 1.350 . S
C1331 H1318 0.929 . S
C1331 C1323 1.433 . S
C1331 N1333 1.384 . S
N1332 C1328 1.427 . S
N1332 C1329 1.384 . S
N1333 C1325 1.427 . S
N1333 C1331 1.384 . S
H1334 C1340 0.930 . S
H1335 C1344 0.930 . S
H1336 C1349 0.929 . S
H1337 C1347 0.929 . S
H1338 C1342 0.929 . S
H1339 C1348 0.929 . S
C1340 H1334 0.930 . S
C1340 C1341 1.367 . S
C1340 C1348 1.378 . S
C1341 C1340 1.367 . S
C1341 C1349 1.433 . S
C1342 H1338 0.929 . S
C1342 C1344 1.378 . S
C1342 C1346 1.350 . S
C1343 C1346 1.463 . S
C1343 C1348 1.350 . S
C1343 N1351 1.427 . S
C1344 H1335 0.930 . S
C1344 C1342 1.378 . S
C1344 C1345 1.367 . S
C1345 C1344 1.367 . S
C1345 C1347 1.433 . S
C1346 C1342 1.350 . S
C1346 C1343 1.463 . S
C1346 N1350 1.427 . S
C1347 H1337 0.929 . S
C1347 C1345 1.433 . S
C1347 N1350 1.384 . S
C1348 H1339 0.929 . S
C1348 C1340 1.378 . S
C1348 C1343 1.350 . S
C1349 H1336 0.929 . S
C1349 C1341 1.433 . S
C1349 N1351 1.384 . S
N1350 C1346 1.427 . S
N1350 C1347 1.384 . S
N1351 C1343 1.427 . S
N1351 C1349 1.384 . S
H1352 C1358 0.930 . S
H1353 C1362 0.930 . S
H1354 C1367 0.929 . S
H1355 C1365 0.929 . S
H1356 C1360 0.929 . S
H1357 C1366 0.929 . S
C1358 H1352 0.930 . S
C1358 C1359 1.367 . S
C1358 C1366 1.378 . S
C1359 C1358 1.367 . S
C1359 C1367 1.433 . S
C1360 H1356 0.929 . S
C1360 C1362 1.378 . S
C1360 C1364 1.350 . S
C1361 C1364 1.463 . S
C1361 C1366 1.350 . S
C1361 N1369 1.427 . S
C1362 H1353 0.930 . S
C1362 C1360 1.378 . S
C1362 C1363 1.367 . S
C1363 C1362 1.367 . S
C1363 C1365 1.433 . S
C1364 C1360 1.350 . S
C1364 C1361 1.463 . S
C1364 N1368 1.427 . S
C1365 H1355 0.929 . S
C1365 C1363 1.433 . S
C1365 N1368 1.384 . S
C1366 H1357 0.929 . S
C1366 C1358 1.378 . S
C1366 C1361 1.350 . S
C1367 H1354 0.929 . S
C1367 C1359 1.433 . S
C1367 N1369 1.384 . S
N1368 C1364 1.427 . S
N1368 C1365 1.384 . S
N1369 C1361 1.427 . S
N1369 C1367 1.384 . S
H1370 C1376 0.930 . S
H1371 C1380 0.930 . S
H1372 C1385 0.929 . S
H1373 C1383 0.929 . S
H1374 C1378 0.929 . S
H1375 C1384 0.929 . S
C1376 H1370 0.930 . S
C1376 C1377 1.367 . S
C1376 C1384 1.378 . S
C1377 C1376 1.367 . S
C1377 C1385 1.433 . S
C1378 H1374 0.929 . S
C1378 C1380 1.378 . S
C1378 C1382 1.350 . S
C1379 C1382 1.463 . S
C1379 C1384 1.350 . S
C1379 N1387 1.427 . S
C1380 H1371 0.930 . S
C1380 C1378 1.378 . S
C1380 C1381 1.367 . S
C1381 C1380 1.367 . S
C1381 C1383 1.433 . S
C1382 C1378 1.350 . S
C1382 C1379 1.463 . S
C1382 N1386 1.427 . S
C1383 H1373 0.929 . S
C1383 C1381 1.433 . S
C1383 N1386 1.384 . S
C1384 H1375 0.929 . S
C1384 C1376 1.378 . S
C1384 C1379 1.350 . S
C1385 H1372 0.929 . S
C1385 C1377 1.433 . S
C1385 N1387 1.384 . S
N1386 C1382 1.427 . S
N1386 C1383 1.384 . S
N1387 C1379 1.427 . S
N1387 C1385 1.384 . S
H1388 C1394 0.930 . S
H1389 C1398 0.930 . S
H1390 C1403 0.929 1_655 S
H1391 C1401 0.929 . S
H1392 C1396 0.929 . S
H1393 C1402 0.929 . S
C1394 H1388 0.930 . S
C1394 C1395 1.367 . S
C1394 C1402 1.378 . S
C1395 C1394 1.367 . S
C1395 C1403 1.433 . S
C1396 H1392 0.929 . S
C1396 C1398 1.378 . S
C1396 C1400 1.350 . S
C1397 C1400 1.463 . S
C1397 C1402 1.350 . S
C1397 N1405 1.427 . S
C1398 H1389 0.930 . S
C1398 C1396 1.378 . S
C1398 C1399 1.367 . S
C1399 C1398 1.367 . S
C1399 C1401 1.433 . S
C1400 C1396 1.350 . S
C1400 C1397 1.463 . S
C1400 N1404 1.427 . S
C1401 H1391 0.929 . S
C1401 C1399 1.433 . S
C1401 N1404 1.384 . S
C1402 H1393 0.929 . S
C1402 C1394 1.378 . S
C1402 C1397 1.350 . S
C1403 H1390 0.929 1_455 S
C1403 C1395 1.433 . S
C1403 N1405 1.384 . S
N1404 C1400 1.427 . S
N1404 C1401 1.384 . S
N1405 C1397 1.427 . S
N1405 C1403 1.384 . S
H1406 C1412 0.930 . S
H1407 C1416 0.930 . S
H1408 C1421 0.929 . S
H1409 C1419 0.929 . S
H1410 C1414 0.929 . S
H1411 C1420 0.929 . S
C1412 H1406 0.930 . S
C1412 C1413 1.367 . S
C1412 C1420 1.378 . S
C1413 C1412 1.367 . S
C1413 C1421 1.433 . S
C1414 H1410 0.929 . S
C1414 C1416 1.378 . S
C1414 C1418 1.350 . S
C1415 C1418 1.463 . S
C1415 C1420 1.350 . S
C1415 N1423 1.427 . S
C1416 H1407 0.930 . S
C1416 C1414 1.378 . S
C1416 C1417 1.367 . S
C1417 C1416 1.367 . S
C1417 C1419 1.433 . S
C1418 C1414 1.350 . S
C1418 C1415 1.463 . S
C1418 N1422 1.427 . S
C1419 H1409 0.929 . S
C1419 C1417 1.433 . S
C1419 N1422 1.384 . S
C1420 H1411 0.929 . S
C1420 C1412 1.378 . S
C1420 C1415 1.350 . S
C1421 H1408 0.929 . S
C1421 C1413 1.433 . S
C1421 N1423 1.384 . S
N1422 C1418 1.427 . S
N1422 C1419 1.384 . S
N1423 C1415 1.427 . S
N1423 C1421 1.384 . S
H1424 C1430 0.930 . S
H1425 C1434 0.930 . S
H1426 C1439 0.929 . S
H1427 C1437 0.929 . S
H1428 C1432 0.929 . S
H1429 C1438 0.929 . S
C1430 H1424 0.930 . S
C1430 C1431 1.367 . S
C1430 C1438 1.378 . S
C1431 C1430 1.367 . S
C1431 C1439 1.433 . S
C1432 H1428 0.929 . S
C1432 C1434 1.378 . S
C1432 C1436 1.350 . S
C1433 C1436 1.463 . S
C1433 C1438 1.350 . S
C1433 N1441 1.427 . S
C1434 H1425 0.930 . S
C1434 C1432 1.378 . S
C1434 C1435 1.367 . S
C1435 C1434 1.367 . S
C1435 C1437 1.433 . S
C1436 C1432 1.350 . S
C1436 C1433 1.463 . S
C1436 N1440 1.427 . S
C1437 H1427 0.929 . S
C1437 C1435 1.433 . S
C1437 N1440 1.384 . S
C1438 H1429 0.929 . S
C1438 C1430 1.378 . S
C1438 C1433 1.350 . S
C1439 H1426 0.929 . S
C1439 C1431 1.433 . S
C1439 N1441 1.384 . S
N1440 C1436 1.427 . S
N1440 C1437 1.384 . S
N1441 C1433 1.427 . S
N1441 C1439 1.384 . S
H1442 C1448 0.930 . S
H1443 C1452 0.930 . S
H1444 C1457 0.929 . S
H1445 C1455 0.929 . S
H1446 C1450 0.929 . S
H1447 C1456 0.929 . S
C1448 H1442 0.930 . S
C1448 C1449 1.367 . S
C1448 C1456 1.378 . S
C1449 C1448 1.367 . S
C1449 C1457 1.433 . S
C1450 H1446 0.929 . S
C1450 C1452 1.378 . S
C1450 C1454 1.350 . S
C1451 C1454 1.463 . S
C1451 C1456 1.350 . S
C1451 N1459 1.427 . S
C1452 H1443 0.930 . S
C1452 C1450 1.378 . S
C1452 C1453 1.367 . S
C1453 C1452 1.367 . S
C1453 C1455 1.433 . S
C1454 C1450 1.350 . S
C1454 C1451 1.463 . S
C1454 N1458 1.427 . S
C1455 H1445 0.929 . S
C1455 C1453 1.433 . S
C1455 N1458 1.384 . S
C1456 H1447 0.929 . S
C1456 C1448 1.378 . S
C1456 C1451 1.350 . S
C1457 H1444 0.929 . S
C1457 C1449 1.433 . S
C1457 N1459 1.384 . S
N1458 C1454 1.427 . S
N1458 C1455 1.384 . S
N1459 C1451 1.427 . S
N1459 C1457 1.384 . S
H1460 C1466 0.930 . S
H1461 C1470 0.930 . S
H1462 C1475 0.929 . S
H1463 C1473 0.929 . S
H1464 C1468 0.929 . S
H1465 C1474 0.929 . S
C1466 H1460 0.930 . S
C1466 C1467 1.367 . S
C1466 C1474 1.378 . S
C1467 C1466 1.367 . S
C1467 C1475 1.433 . S
C1468 H1464 0.929 . S
C1468 C1470 1.378 . S
C1468 C1472 1.350 . S
C1469 C1472 1.463 . S
C1469 C1474 1.350 . S
C1469 N1477 1.427 . S
C1470 H1461 0.930 . S
C1470 C1468 1.378 . S
C1470 C1471 1.367 . S
C1471 C1470 1.367 . S
C1471 C1473 1.433 . S
C1472 C1468 1.350 . S
C1472 C1469 1.463 . S
C1472 N1476 1.427 . S
C1473 H1463 0.929 . S
C1473 C1471 1.433 . S
C1473 N1476 1.384 . S
C1474 H1465 0.929 . S
C1474 C1466 1.378 . S
C1474 C1469 1.350 . S
C1475 H1462 0.929 . S
C1475 C1467 1.433 . S
C1475 N1477 1.384 . S
N1476 C1472 1.427 . S
N1476 C1473 1.384 . S
N1477 C1469 1.427 . S
N1477 C1475 1.384 . S
H1478 C1484 0.930 . S
H1479 C1488 0.930 . S
H1480 C1493 0.929 . S
H1481 C1491 0.929 . S
H1482 C1486 0.929 . S
H1483 C1492 0.929 . S
C1484 H1478 0.930 . S
C1484 C1485 1.367 . S
C1484 C1492 1.378 . S
C1485 C1484 1.367 . S
C1485 C1493 1.433 . S
C1486 H1482 0.929 . S
C1486 C1488 1.378 . S
C1486 C1490 1.350 . S
C1487 C1490 1.463 . S
C1487 C1492 1.350 . S
C1487 N1495 1.427 . S
C1488 H1479 0.930 . S
C1488 C1486 1.378 . S
C1488 C1489 1.367 . S
C1489 C1488 1.367 . S
C1489 C1491 1.433 . S
C1490 C1486 1.350 . S
C1490 C1487 1.463 . S
C1490 N1494 1.427 . S
C1491 H1481 0.929 . S
C1491 C1489 1.433 . S
C1491 N1494 1.384 . S
C1492 H1483 0.929 . S
C1492 C1484 1.378 . S
C1492 C1487 1.350 . S
C1493 H1480 0.929 . S
C1493 C1485 1.433 . S
C1493 N1495 1.384 . S
N1494 C1490 1.427 . S
N1494 C1491 1.384 . S
N1495 C1487 1.427 . S
N1495 C1493 1.384 . S
H1496 C1502 0.930 . S
H1497 C1506 0.930 . S
H1498 C1511 0.929 . S
H1499 C1509 0.929 . S
H1500 C1504 0.929 . S
H1501 C1510 0.929 . S
C1502 H1496 0.930 . S
C1502 C1503 1.367 . S
C1502 C1510 1.378 . S
C1503 C1502 1.367 . S
C1503 C1511 1.433 . S
C1504 H1500 0.929 . S
C1504 C1506 1.378 . S
C1504 C1508 1.350 . S
C1505 C1508 1.463 . S
C1505 C1510 1.350 . S
C1505 N1513 1.427 . S
C1506 H1497 0.930 . S
C1506 C1504 1.378 . S
C1506 C1507 1.367 . S
C1507 C1506 1.367 . S
C1507 C1509 1.433 . S
C1508 C1504 1.350 . S
C1508 C1505 1.463 . S
C1508 N1512 1.427 . S
C1509 H1499 0.929 . S
C1509 C1507 1.433 . S
C1509 N1512 1.384 . S
C1510 H1501 0.929 . S
C1510 C1502 1.378 . S
C1510 C1505 1.350 . S
C1511 H1498 0.929 . S
C1511 C1503 1.433 . S
C1511 N1513 1.384 . S
N1512 C1508 1.427 . S
N1512 C1509 1.384 . S
N1513 C1505 1.427 . S
N1513 C1511 1.384 . S
H1514 C1520 0.930 . S
H1515 C1524 0.930 . S
H1516 C1529 0.929 . S
H1517 C1527 0.929 . S
H1518 C1522 0.929 . S
H1519 C1528 0.929 . S
C1520 H1514 0.930 . S
C1520 C1521 1.367 . S
C1520 C1528 1.378 . S
C1521 C1520 1.367 . S
C1521 C1529 1.433 . S
C1522 H1518 0.929 . S
C1522 C1524 1.378 . S
C1522 C1526 1.350 . S
C1523 C1526 1.463 . S
C1523 C1528 1.350 . S
C1523 N1531 1.427 . S
C1524 H1515 0.930 . S
C1524 C1522 1.378 . S
C1524 C1525 1.367 . S
C1525 C1524 1.367 . S
C1525 C1527 1.433 . S
C1526 C1522 1.350 . S
C1526 C1523 1.463 . S
C1526 N1530 1.427 . S
C1527 H1517 0.929 . S
C1527 C1525 1.433 . S
C1527 N1530 1.384 . S
C1528 H1519 0.929 . S
C1528 C1520 1.378 . S
C1528 C1523 1.350 . S
C1529 H1516 0.929 . S
C1529 C1521 1.433 . S
C1529 N1531 1.384 . S
N1530 C1526 1.427 . S
N1530 C1527 1.384 . S
N1531 C1523 1.427 . S
N1531 C1529 1.384 . S
H1532 C1538 0.930 . S
H1533 C1542 0.930 . S
H1534 C1547 0.929 . S
H1535 C1545 0.929 . S
H1536 C1540 0.929 . S
H1537 C1546 0.929 . S
C1538 H1532 0.930 . S
C1538 C1539 1.367 . S
C1538 C1546 1.378 . S
C1539 C1538 1.367 . S
C1539 C1547 1.433 . S
C1540 H1536 0.929 . S
C1540 C1542 1.378 . S
C1540 C1544 1.350 . S
C1541 C1544 1.463 . S
C1541 C1546 1.350 . S
C1541 N1549 1.427 . S
C1542 H1533 0.930 . S
C1542 C1540 1.378 . S
C1542 C1543 1.367 . S
C1543 C1542 1.367 . S
C1543 C1545 1.433 . S
C1544 C1540 1.350 . S
C1544 C1541 1.463 . S
C1544 N1548 1.427 . S
C1545 H1535 0.929 . S
C1545 C1543 1.433 . S
C1545 N1548 1.384 . S
C1546 H1537 0.929 . S
C1546 C1538 1.378 . S
C1546 C1541 1.350 . S
C1547 H1534 0.929 . S
C1547 C1539 1.433 . S
C1547 N1549 1.384 . S
N1548 C1544 1.427 . S
N1548 C1545 1.384 . S
N1549 C1541 1.427 . S
N1549 C1547 1.384 . S
H1550 C1556 0.930 . S
H1551 C1560 0.930 . S
H1552 C1565 0.929 . S
H1553 C1563 0.929 . S
H1554 C1558 0.929 . S
H1555 C1564 0.929 . S
C1556 H1550 0.930 . S
C1556 C1557 1.367 . S
C1556 C1564 1.378 . S
C1557 C1556 1.367 . S
C1557 C1565 1.433 . S
C1558 H1554 0.929 . S
C1558 C1560 1.378 . S
C1558 C1562 1.350 . S
C1559 C1562 1.463 . S
C1559 C1564 1.350 . S
C1559 N1567 1.427 . S
C1560 H1551 0.930 . S
C1560 C1558 1.378 . S
C1560 C1561 1.367 . S
C1561 C1560 1.367 . S
C1561 C1563 1.433 . S
C1562 C1558 1.350 . S
C1562 C1559 1.463 . S
C1562 N1566 1.427 . S
C1563 H1553 0.929 . S
C1563 C1561 1.433 . S
C1563 N1566 1.384 . S
C1564 H1555 0.929 . S
C1564 C1556 1.378 . S
C1564 C1559 1.350 . S
C1565 H1552 0.929 . S
C1565 C1557 1.433 . S
C1565 N1567 1.384 . S
N1566 C1562 1.427 . S
N1566 C1563 1.384 . S
N1567 C1559 1.427 . S
N1567 C1565 1.384 . S
H1568 C1574 0.930 . S
H1569 C1578 0.930 . S
H1570 C1583 0.929 . S
H1571 C1581 0.929 . S
H1572 C1576 0.929 . S
H1573 C1582 0.929 . S
C1574 H1568 0.930 . S
C1574 C1575 1.367 . S
C1574 C1582 1.378 . S
C1575 C1574 1.367 . S
C1575 C1583 1.433 . S
C1576 H1572 0.929 . S
C1576 C1578 1.378 . S
C1576 C1580 1.350 . S
C1577 C1580 1.463 . S
C1577 C1582 1.350 . S
C1577 N1585 1.427 . S
C1578 H1569 0.930 . S
C1578 C1576 1.378 . S
C1578 C1579 1.367 . S
C1579 C1578 1.367 . S
C1579 C1581 1.433 . S
C1580 C1576 1.350 . S
C1580 C1577 1.463 . S
C1580 N1584 1.427 . S
C1581 H1571 0.929 . S
C1581 C1579 1.433 . S
C1581 N1584 1.384 . S
C1582 H1573 0.929 . S
C1582 C1574 1.378 . S
C1582 C1577 1.350 . S
C1583 H1570 0.929 . S
C1583 C1575 1.433 . S
C1583 N1585 1.384 . S
N1584 C1580 1.427 . S
N1584 C1581 1.384 . S
N1585 C1577 1.427 . S
N1585 C1583 1.384 . S
H1586 C1592 0.930 . S
H1587 C1596 0.930 . S
H1588 C1601 0.929 . S
H1589 C1599 0.929 . S
H1590 C1594 0.929 . S
H1591 C1600 0.929 . S
C1592 H1586 0.930 . S
C1592 C1593 1.367 . S
C1592 C1600 1.378 . S
C1593 C1592 1.367 . S
C1593 C1601 1.433 . S
C1594 H1590 0.929 . S
C1594 C1596 1.378 . S
C1594 C1598 1.350 . S
C1595 C1598 1.463 . S
C1595 C1600 1.350 . S
C1595 N1603 1.427 . S
C1596 H1587 0.930 . S
C1596 C1594 1.378 . S
C1596 C1597 1.367 . S
C1597 C1596 1.367 . S
C1597 C1599 1.433 . S
C1598 C1594 1.350 . S
C1598 C1595 1.463 . S
C1598 N1602 1.427 . S
C1599 H1589 0.929 . S
C1599 C1597 1.433 . S
C1599 N1602 1.384 . S
C1600 H1591 0.929 . S
C1600 C1592 1.378 . S
C1600 C1595 1.350 . S
C1601 H1588 0.929 . S
C1601 C1593 1.433 . S
C1601 N1603 1.384 . S
N1602 C1598 1.427 . S
N1602 C1599 1.384 . S
N1603 C1595 1.427 . S
N1603 C1601 1.384 . S
H1604 C1610 0.930 . S
H1605 C1614 0.930 . S
H1606 C1619 0.929 . S
H1607 C1617 0.929 . S
H1608 C1612 0.929 . S
H1609 C1618 0.929 . S
C1610 H1604 0.930 . S
C1610 C1611 1.367 . S
C1610 C1618 1.378 . S
C1611 C1610 1.367 . S
C1611 C1619 1.433 . S
C1612 H1608 0.929 . S
C1612 C1614 1.378 . S
C1612 C1616 1.350 . S
C1613 C1616 1.463 . S
C1613 C1618 1.350 . S
C1613 N1621 1.427 . S
C1614 H1605 0.930 . S
C1614 C1612 1.378 . S
C1614 C1615 1.367 . S
C1615 C1614 1.367 . S
C1615 C1617 1.433 . S
C1616 C1612 1.350 . S
C1616 C1613 1.463 . S
C1616 N1620 1.427 . S
C1617 H1607 0.929 . S
C1617 C1615 1.433 . S
C1617 N1620 1.384 . S
C1618 H1609 0.929 . S
C1618 C1610 1.378 . S
C1618 C1613 1.350 . S
C1619 H1606 0.929 . S
C1619 C1611 1.433 . S
C1619 N1621 1.384 . S
N1620 C1616 1.427 . S
N1620 C1617 1.384 . S
N1621 C1613 1.427 . S
N1621 C1619 1.384 . S
H1622 C1628 0.930 . S
H1623 C1632 0.930 . S
H1624 C1637 0.929 . S
H1625 C1635 0.929 . S
H1626 C1630 0.929 . S
H1627 C1636 0.929 . S
C1628 H1622 0.930 . S
C1628 C1629 1.367 . S
C1628 C1636 1.378 . S
C1629 C1628 1.367 . S
C1629 C1637 1.433 . S
C1630 H1626 0.929 . S
C1630 C1632 1.378 . S
C1630 C1634 1.350 . S
C1631 C1634 1.463 . S
C1631 C1636 1.350 . S
C1631 N1639 1.427 . S
C1632 H1623 0.930 . S
C1632 C1630 1.378 . S
C1632 C1633 1.367 . S
C1633 C1632 1.367 . S
C1633 C1635 1.433 . S
C1634 C1630 1.350 . S
C1634 C1631 1.463 . S
C1634 N1638 1.427 . S
C1635 H1625 0.929 . S
C1635 C1633 1.433 . S
C1635 N1638 1.384 . S
C1636 H1627 0.929 . S
C1636 C1628 1.378 . S
C1636 C1631 1.350 . S
C1637 H1624 0.929 . S
C1637 C1629 1.433 . S
C1637 N1639 1.384 . S
N1638 C1634 1.427 . S
N1638 C1635 1.384 . S
N1639 C1631 1.427 . S
N1639 C1637 1.384 . S
H1640 C1646 0.930 . S
H1641 C1650 0.930 . S
H1642 C1655 0.929 . S
H1643 C1653 0.929 . S
H1644 C1648 0.929 . S
H1645 C1654 0.929 . S
C1646 H1640 0.930 . S
C1646 C1647 1.367 . S
C1646 C1654 1.378 . S
C1647 C1646 1.367 . S
C1647 C1655 1.433 1_565 S
C1648 H1644 0.929 . S
C1648 C1650 1.378 . S
C1648 C1652 1.350 1_545 S
C1649 C1652 1.463 . S
C1649 C1654 1.350 . S
C1649 N1657 1.427 1_565 S
C1650 H1641 0.930 . S
C1650 C1648 1.378 . S
C1650 C1651 1.367 1_545 S
C1651 C1650 1.367 1_565 S
C1651 C1653 1.433 . S
C1652 C1648 1.350 1_565 S
C1652 C1649 1.463 . S
C1652 N1656 1.427 . S
C1653 H1643 0.929 . S
C1653 C1651 1.433 . S
C1653 N1656 1.384 . S
C1654 H1645 0.929 . S
C1654 C1646 1.378 . S
C1654 C1649 1.350 . S
C1655 H1642 0.929 . S
C1655 C1647 1.433 1_545 S
C1655 N1657 1.384 . S
N1656 C1652 1.427 . S
N1656 C1653 1.384 . S
N1657 C1649 1.427 1_545 S
N1657 C1655 1.384 . S
H1658 C1664 0.930 . S
H1659 C1668 0.930 . S
H1660 C1673 0.929 . S
H1661 C1671 0.929 . S
H1662 C1666 0.929 . S
H1663 C1672 0.929 . S
C1664 H1658 0.930 . S
C1664 C1665 1.367 . S
C1664 C1672 1.378 . S
C1665 C1664 1.367 . S
C1665 C1673 1.433 . S
C1666 H1662 0.929 . S
C1666 C1668 1.378 . S
C1666 C1670 1.350 . S
C1667 C1670 1.463 . S
C1667 C1672 1.350 . S
C1667 N1675 1.427 . S
C1668 H1659 0.930 . S
C1668 C1666 1.378 . S
C1668 C1669 1.367 . S
C1669 C1668 1.367 . S
C1669 C1671 1.433 . S
C1670 C1666 1.350 . S
C1670 C1667 1.463 . S
C1670 N1674 1.427 . S
C1671 H1661 0.929 . S
C1671 C1669 1.433 . S
C1671 N1674 1.384 . S
C1672 H1663 0.929 . S
C1672 C1664 1.378 . S
C1672 C1667 1.350 . S
C1673 H1660 0.929 . S
C1673 C1665 1.433 . S
C1673 N1675 1.384 . S
N1674 C1670 1.427 . S
N1674 C1671 1.384 . S
N1675 C1667 1.427 . S
N1675 C1673 1.384 . S
H1676 C1682 0.930 . S
H1677 C1686 0.930 . S
H1678 C1691 0.929 . S
H1679 C1689 0.929 . S
H1680 C1684 0.929 . S
H1681 C1690 0.929 . S
C1682 H1676 0.930 . S
C1682 C1683 1.367 . S
C1682 C1690 1.378 . S
C1683 C1682 1.367 . S
C1683 C1691 1.433 1_545 S
C1684 H1680 0.929 . S
C1684 C1686 1.378 . S
C1684 C1688 1.350 1_565 S
C1685 C1688 1.463 . S
C1685 C1690 1.350 . S
C1685 N1693 1.427 1_545 S
C1686 H1677 0.930 . S
C1686 C1684 1.378 . S
C1686 C1687 1.367 1_565 S
C1687 C1686 1.367 1_545 S
C1687 C1689 1.433 . S
C1688 C1684 1.350 1_545 S
C1688 C1685 1.463 . S
C1688 N1692 1.427 . S
C1689 H1679 0.929 . S
C1689 C1687 1.433 . S
C1689 N1692 1.384 . S
C1690 H1681 0.929 . S
C1690 C1682 1.378 . S
C1690 C1685 1.350 . S
C1691 H1678 0.929 . S
C1691 C1683 1.433 1_565 S
C1691 N1693 1.384 . S
N1692 C1688 1.427 . S
N1692 C1689 1.384 . S
N1693 C1685 1.427 1_565 S
N1693 C1691 1.384 . S
H1694 C1700 0.930 . S
H1695 C1704 0.930 . S
H1696 C1709 0.929 . S
H1697 C1707 0.929 . S
H1698 C1702 0.929 . S
H1699 C1708 0.929 . S
C1700 H1694 0.930 . S
C1700 C1701 1.367 . S
C1700 C1708 1.378 . S
C1701 C1700 1.367 . S
C1701 C1709 1.433 . S
C1702 H1698 0.929 . S
C1702 C1704 1.378 . S
C1702 C1706 1.350 . S
C1703 C1706 1.463 . S
C1703 C1708 1.350 . S
C1703 N1711 1.427 . S
C1704 H1695 0.930 . S
C1704 C1702 1.378 . S
C1704 C1705 1.367 . S
C1705 C1704 1.367 . S
C1705 C1707 1.433 . S
C1706 C1702 1.350 . S
C1706 C1703 1.463 . S
C1706 N1710 1.427 . S
C1707 H1697 0.929 . S
C1707 C1705 1.433 . S
C1707 N1710 1.384 . S
C1708 H1699 0.929 . S
C1708 C1700 1.378 . S
C1708 C1703 1.350 . S
C1709 H1696 0.929 . S
C1709 C1701 1.433 . S
C1709 N1711 1.384 . S
N1710 C1706 1.427 . S
N1710 C1707 1.384 . S
N1711 C1703 1.427 . S
N1711 C1709 1.384 . S
H1712 C1718 0.930 . S
H1713 C1722 0.930 . S
H1714 C1727 0.929 . S
H1715 C1725 0.929 . S
H1716 C1720 0.929 . S
H1717 C1726 0.929 . S
C1718 H1712 0.930 . S
C1718 C1719 1.367 . S
C1718 C1726 1.378 . S
C1719 C1718 1.367 . S
C1719 C1727 1.433 . S
C1720 H1716 0.929 . S
C1720 C1722 1.378 . S
C1720 C1724 1.350 . S
C1721 C1724 1.463 . S
C1721 C1726 1.350 . S
C1721 N1729 1.427 . S
C1722 H1713 0.930 . S
C1722 C1720 1.378 . S
C1722 C1723 1.367 . S
C1723 C1722 1.367 . S
C1723 C1725 1.433 . S
C1724 C1720 1.350 . S
C1724 C1721 1.463 . S
C1724 N1728 1.427 . S
C1725 H1715 0.929 . S
C1725 C1723 1.433 . S
C1725 N1728 1.384 . S
C1726 H1717 0.929 . S
C1726 C1718 1.378 . S
C1726 C1721 1.350 . S
C1727 H1714 0.929 . S
C1727 C1719 1.433 . S
C1727 N1729 1.384 . S
N1728 C1724 1.427 . S
N1728 C1725 1.384 . S
N1729 C1721 1.427 . S
N1729 C1727 1.384 . S
H1730 C1736 0.930 . S
H1731 C1740 0.930 . S
H1732 C1745 0.929 . S
H1733 C1743 0.929 . S
H1734 C1738 0.929 . S
H1735 C1744 0.929 . S
C1736 H1730 0.930 . S
C1736 C1737 1.367 . S
C1736 C1744 1.378 . S
C1737 C1736 1.367 . S
C1737 C1745 1.433 . S
C1738 H1734 0.929 . S
C1738 C1740 1.378 . S
C1738 C1742 1.350 . S
C1739 C1742 1.463 . S
C1739 C1744 1.350 . S
C1739 N1747 1.427 . S
C1740 H1731 0.930 . S
C1740 C1738 1.378 . S
C1740 C1741 1.367 . S
C1741 C1740 1.367 . S
C1741 C1743 1.433 . S
C1742 C1738 1.350 . S
C1742 C1739 1.463 . S
C1742 N1746 1.427 . S
C1743 H1733 0.929 . S
C1743 C1741 1.433 . S
C1743 N1746 1.384 . S
C1744 H1735 0.929 . S
C1744 C1736 1.378 . S
C1744 C1739 1.350 . S
C1745 H1732 0.929 . S
C1745 C1737 1.433 . S
C1745 N1747 1.384 . S
N1746 C1742 1.427 . S
N1746 C1743 1.384 . S
N1747 C1739 1.427 . S
N1747 C1745 1.384 . S
H1748 C1754 0.930 . S
H1749 C1758 0.930 . S
H1750 C1763 0.929 . S
H1751 C1761 0.929 . S
H1752 C1756 0.929 . S
H1753 C1762 0.929 . S
C1754 H1748 0.930 . S
C1754 C1755 1.367 . S
C1754 C1762 1.378 . S
C1755 C1754 1.367 . S
C1755 C1763 1.433 . S
C1756 H1752 0.929 . S
C1756 C1758 1.378 . S
C1756 C1760 1.350 . S
C1757 C1760 1.463 . S
C1757 C1762 1.350 . S
C1757 N1765 1.427 . S
C1758 H1749 0.930 . S
C1758 C1756 1.378 . S
C1758 C1759 1.367 . S
C1759 C1758 1.367 . S
C1759 C1761 1.433 . S
C1760 C1756 1.350 . S
C1760 C1757 1.463 . S
C1760 N1764 1.427 . S
C1761 H1751 0.929 . S
C1761 C1759 1.433 . S
C1761 N1764 1.384 . S
C1762 H1753 0.929 . S
C1762 C1754 1.378 . S
C1762 C1757 1.350 . S
C1763 H1750 0.929 . S
C1763 C1755 1.433 . S
C1763 N1765 1.384 . S
N1764 C1760 1.427 . S
N1764 C1761 1.384 . S
N1765 C1757 1.427 . S
N1765 C1763 1.384 . S
H1766 C1772 0.930 . S
H1767 C1776 0.930 . S
H1768 C1781 0.929 . S
H1769 C1779 0.929 . S
H1770 C1774 0.929 . S
H1771 C1780 0.929 . S
C1772 H1766 0.930 . S
C1772 C1773 1.367 . S
C1772 C1780 1.378 . S
C1773 C1772 1.367 . S
C1773 C1781 1.433 . S
C1774 H1770 0.929 . S
C1774 C1776 1.378 . S
C1774 C1778 1.350 . S
C1775 C1778 1.463 . S
C1775 C1780 1.350 . S
C1775 N1783 1.427 . S
C1776 H1767 0.930 . S
C1776 C1774 1.378 . S
C1776 C1777 1.367 . S
C1777 C1776 1.367 . S
C1777 C1779 1.433 . S
C1778 C1774 1.350 . S
C1778 C1775 1.463 . S
C1778 N1782 1.427 . S
C1779 H1769 0.929 . S
C1779 C1777 1.433 . S
C1779 N1782 1.384 . S
C1780 H1771 0.929 . S
C1780 C1772 1.378 . S
C1780 C1775 1.350 . S
C1781 H1768 0.929 . S
C1781 C1773 1.433 . S
C1781 N1783 1.384 . S
N1782 C1778 1.427 . S
N1782 C1779 1.384 . S
N1783 C1775 1.427 . S
N1783 C1781 1.384 . S
H1784 C1790 0.930 . S
H1785 C1794 0.930 . S
H1786 C1799 0.929 . S
H1787 C1797 0.929 . S
H1788 C1792 0.929 . S
H1789 C1798 0.929 . S
C1790 H1784 0.930 . S
C1790 C1791 1.367 1_545 S
C1790 C1798 1.378 . S
C1791 C1790 1.367 1_565 S
C1791 C1799 1.433 . S
C1792 H1788 0.929 . S
C1792 C1794 1.378 . S
C1792 C1796 1.350 . S
C1793 C1796 1.463 . S
C1793 C1798 1.350 1_565 S
C1793 N1801 1.427 . S
C1794 H1785 0.930 . S
C1794 C1792 1.378 . S
C1794 C1795 1.367 . S
C1795 C1794 1.367 . S
C1795 C1797 1.433 1_565 S
C1796 C1792 1.350 . S
C1796 C1793 1.463 . S
C1796 N1800 1.427 1_565 S
C1797 H1787 0.929 . S
C1797 C1795 1.433 1_545 S
C1797 N1800 1.384 . S
C1798 H1789 0.929 . S
C1798 C1790 1.378 . S
C1798 C1793 1.350 1_545 S
C1799 H1786 0.929 . S
C1799 C1791 1.433 . S
C1799 N1801 1.384 . S
N1800 C1796 1.427 1_545 S
N1800 C1797 1.384 . S
N1801 C1793 1.427 . S
N1801 C1799 1.384 . S
H1802 C1808 0.930 . S
H1803 C1812 0.930 . S
H1804 C1817 0.929 . S
H1805 C1815 0.929 . S
H1806 C1810 0.929 . S
H1807 C1816 0.929 . S
C1808 H1802 0.930 . S
C1808 C1809 1.367 . S
C1808 C1816 1.378 . S
C1809 C1808 1.367 . S
C1809 C1817 1.433 . S
C1810 H1806 0.929 . S
C1810 C1812 1.378 . S
C1810 C1814 1.350 . S
C1811 C1814 1.463 . S
C1811 C1816 1.350 . S
C1811 N1819 1.427 . S
C1812 H1803 0.930 . S
C1812 C1810 1.378 . S
C1812 C1813 1.367 . S
C1813 C1812 1.367 . S
C1813 C1815 1.433 . S
C1814 C1810 1.350 . S
C1814 C1811 1.463 . S
C1814 N1818 1.427 . S
C1815 H1805 0.929 . S
C1815 C1813 1.433 . S
C1815 N1818 1.384 . S
C1816 H1807 0.929 . S
C1816 C1808 1.378 . S
C1816 C1811 1.350 . S
C1817 H1804 0.929 . S
C1817 C1809 1.433 . S
C1817 N1819 1.384 . S
N1818 C1814 1.427 . S
N1818 C1815 1.384 . S
N1819 C1811 1.427 . S
N1819 C1817 1.384 . S
H1820 C1826 0.930 . S
H1821 C1830 0.930 . S
H1822 C1835 0.929 . S
H1823 C1833 0.929 . S
H1824 C1828 0.929 . S
H1825 C1834 0.929 . S
C1826 H1820 0.930 . S
C1826 C1827 1.367 1_565 S
C1826 C1834 1.378 . S
C1827 C1826 1.367 1_545 S
C1827 C1835 1.433 . S
C1828 H1824 0.929 . S
C1828 C1830 1.378 . S
C1828 C1832 1.350 . S
C1829 C1832 1.463 . S
C1829 C1834 1.350 1_545 S
C1829 N1837 1.427 . S
C1830 H1821 0.930 . S
C1830 C1828 1.378 . S
C1830 C1831 1.367 . S
C1831 C1830 1.367 . S
C1831 C1833 1.433 1_545 S
C1832 C1828 1.350 . S
C1832 C1829 1.463 . S
C1832 N1836 1.427 1_545 S
C1833 H1823 0.929 . S
C1833 C1831 1.433 1_565 S
C1833 N1836 1.384 . S
C1834 H1825 0.929 . S
C1834 C1826 1.378 . S
C1834 C1829 1.350 1_565 S
C1835 H1822 0.929 . S
C1835 C1827 1.433 . S
C1835 N1837 1.384 . S
N1836 C1832 1.427 1_565 S
N1836 C1833 1.384 . S
N1837 C1829 1.427 . S
N1837 C1835 1.384 . S
H1838 C1844 0.930 . S
H1839 C1848 0.930 . S
H1840 C1853 0.929 . S
H1841 C1851 0.929 . S
H1842 C1846 0.929 . S
H1843 C1852 0.929 . S
C1844 H1838 0.930 . S
C1844 C1845 1.367 . S
C1844 C1852 1.378 . S
C1845 C1844 1.367 . S
C1845 C1853 1.433 . S
C1846 H1842 0.929 . S
C1846 C1848 1.378 . S
C1846 C1850 1.350 . S
C1847 C1850 1.463 . S
C1847 C1852 1.350 . S
C1847 N1855 1.427 . S
C1848 H1839 0.930 . S
C1848 C1846 1.378 . S
C1848 C1849 1.367 . S
C1849 C1848 1.367 . S
C1849 C1851 1.433 . S
C1850 C1846 1.350 . S
C1850 C1847 1.463 . S
C1850 N1854 1.427 . S
C1851 H1841 0.929 . S
C1851 C1849 1.433 . S
C1851 N1854 1.384 . S
C1852 H1843 0.929 . S
C1852 C1844 1.378 . S
C1852 C1847 1.350 . S
C1853 H1840 0.929 . S
C1853 C1845 1.433 . S
C1853 N1855 1.384 . S
N1854 C1850 1.427 . S
N1854 C1851 1.384 . S
N1855 C1847 1.427 . S
N1855 C1853 1.384 . S
H1856 C1862 0.930 . S
H1857 C1866 0.930 . S
H1858 C1871 0.929 . S
H1859 C1869 0.929 . S
H1860 C1864 0.929 . S
H1861 C1870 0.929 . S
C1862 H1856 0.930 . S
C1862 C1863 1.367 . S
C1862 C1870 1.378 . S
C1863 C1862 1.367 . S
C1863 C1871 1.433 . S
C1864 H1860 0.929 . S
C1864 C1866 1.378 . S
C1864 C1868 1.350 . S
C1865 C1868 1.463 . S
C1865 C1870 1.350 . S
C1865 N1873 1.427 . S
C1866 H1857 0.930 . S
C1866 C1864 1.378 . S
C1866 C1867 1.367 . S
C1867 C1866 1.367 . S
C1867 C1869 1.433 . S
C1868 C1864 1.350 . S
C1868 C1865 1.463 . S
C1868 N1872 1.427 . S
C1869 H1859 0.929 . S
C1869 C1867 1.433 . S
C1869 N1872 1.384 . S
C1870 H1861 0.929 . S
C1870 C1862 1.378 . S
C1870 C1865 1.350 . S
C1871 H1858 0.929 . S
C1871 C1863 1.433 . S
C1871 N1873 1.384 . S
N1872 C1868 1.427 . S
N1872 C1869 1.384 . S
N1873 C1865 1.427 . S
N1873 C1871 1.384 . S
H1874 C1880 0.930 . S
H1875 C1884 0.930 . S
H1876 C1889 0.929 . S
H1877 C1887 0.929 . S
H1878 C1882 0.929 . S
H1879 C1888 0.929 . S
C1880 H1874 0.930 . S
C1880 C1881 1.367 . S
C1880 C1888 1.378 . S
C1881 C1880 1.367 . S
C1881 C1889 1.433 . S
C1882 H1878 0.929 . S
C1882 C1884 1.378 . S
C1882 C1886 1.350 . S
C1883 C1886 1.463 . S
C1883 C1888 1.350 . S
C1883 N1891 1.427 . S
C1884 H1875 0.930 . S
C1884 C1882 1.378 . S
C1884 C1885 1.367 . S
C1885 C1884 1.367 . S
C1885 C1887 1.433 . S
C1886 C1882 1.350 . S
C1886 C1883 1.463 . S
C1886 N1890 1.427 . S
C1887 H1877 0.929 . S
C1887 C1885 1.433 . S
C1887 N1890 1.384 . S
C1888 H1879 0.929 . S
C1888 C1880 1.378 . S
C1888 C1883 1.350 . S
C1889 H1876 0.929 . S
C1889 C1881 1.433 . S
C1889 N1891 1.384 . S
N1890 C1886 1.427 . S
N1890 C1887 1.384 . S
N1891 C1883 1.427 . S
N1891 C1889 1.384 . S
H1892 C1898 0.930 . S
H1893 C1902 0.930 . S
H1894 C1907 0.929 . S
H1895 C1905 0.929 . S
H1896 C1900 0.929 . S
H1897 C1906 0.929 . S
C1898 H1892 0.930 . S
C1898 C1899 1.367 . S
C1898 C1906 1.378 . S
C1899 C1898 1.367 . S
C1899 C1907 1.433 . S
C1900 H1896 0.929 . S
C1900 C1902 1.378 . S
C1900 C1904 1.350 . S
C1901 C1904 1.463 . S
C1901 C1906 1.350 . S
C1901 N1909 1.427 . S
C1902 H1893 0.930 . S
C1902 C1900 1.378 . S
C1902 C1903 1.367 . S
C1903 C1902 1.367 . S
C1903 C1905 1.433 . S
C1904 C1900 1.350 . S
C1904 C1901 1.463 . S
C1904 N1908 1.427 . S
C1905 H1895 0.929 . S
C1905 C1903 1.433 . S
C1905 N1908 1.384 . S
C1906 H1897 0.929 . S
C1906 C1898 1.378 . S
C1906 C1901 1.350 . S
C1907 H1894 0.929 . S
C1907 C1899 1.433 . S
C1907 N1909 1.384 . S
N1908 C1904 1.427 . S
N1908 C1905 1.384 . S
N1909 C1901 1.427 . S
N1909 C1907 1.384 . S
H1910 C1916 0.930 . S
H1911 C1920 0.930 . S
H1912 C1925 0.929 . S
H1913 C1923 0.929 . S
H1914 C1918 0.929 . S
H1915 C1924 0.929 . S
C1916 H1910 0.930 . S
C1916 C1917 1.367 . S
C1916 C1924 1.378 . S
C1917 C1916 1.367 . S
C1917 C1925 1.433 . S
C1918 H1914 0.929 . S
C1918 C1920 1.378 . S
C1918 C1922 1.350 . S
C1919 C1922 1.463 . S
C1919 C1924 1.350 . S
C1919 N1927 1.427 . S
C1920 H1911 0.930 . S
C1920 C1918 1.378 . S
C1920 C1921 1.367 . S
C1921 C1920 1.367 . S
C1921 C1923 1.433 . S
C1922 C1918 1.350 . S
C1922 C1919 1.463 . S
C1922 N1926 1.427 . S
C1923 H1913 0.929 . S
C1923 C1921 1.433 . S
C1923 N1926 1.384 . S
C1924 H1915 0.929 . S
C1924 C1916 1.378 . S
C1924 C1919 1.350 . S
C1925 H1912 0.929 . S
C1925 C1917 1.433 . S
C1925 N1927 1.384 . S
N1926 C1922 1.427 . S
N1926 C1923 1.384 . S
N1927 C1919 1.427 . S
N1927 C1925 1.384 . S
H1928 C1934 0.930 . S
H1929 C1938 0.930 . S
H1930 C1943 0.929 . S
H1931 C1941 0.929 . S
H1932 C1936 0.929 . S
H1933 C1942 0.929 . S
C1934 H1928 0.930 . S
C1934 C1935 1.367 . S
C1934 C1942 1.378 . S
C1935 C1934 1.367 . S
C1935 C1943 1.433 . S
C1936 H1932 0.929 . S
C1936 C1938 1.378 . S
C1936 C1940 1.350 . S
C1937 C1940 1.463 . S
C1937 C1942 1.350 . S
C1937 N1945 1.427 . S
C1938 H1929 0.930 . S
C1938 C1936 1.378 . S
C1938 C1939 1.367 . S
C1939 C1938 1.367 . S
C1939 C1941 1.433 . S
C1940 C1936 1.350 . S
C1940 C1937 1.463 . S
C1940 N1944 1.427 . S
C1941 H1931 0.929 . S
C1941 C1939 1.433 . S
C1941 N1944 1.384 . S
C1942 H1933 0.929 . S
C1942 C1934 1.378 . S
C1942 C1937 1.350 . S
C1943 H1930 0.929 . S
C1943 C1935 1.433 . S
C1943 N1945 1.384 . S
N1944 C1940 1.427 . S
N1944 C1941 1.384 . S
N1945 C1937 1.427 . S
N1945 C1943 1.384 . S
H1946 C1952 0.930 . S
H1947 C1956 0.930 . S
H1948 C1961 0.929 . S
H1949 C1959 0.929 . S
H1950 C1954 0.929 . S
H1951 C1960 0.929 . S
C1952 H1946 0.930 . S
C1952 C1953 1.367 . S
C1952 C1960 1.378 . S
C1953 C1952 1.367 . S
C1953 C1961 1.433 . S
C1954 H1950 0.929 . S
C1954 C1956 1.378 . S
C1954 C1958 1.350 . S
C1955 C1958 1.463 . S
C1955 C1960 1.350 . S
C1955 N1963 1.427 . S
C1956 H1947 0.930 . S
C1956 C1954 1.378 . S
C1956 C1957 1.367 . S
C1957 C1956 1.367 . S
C1957 C1959 1.433 . S
C1958 C1954 1.350 . S
C1958 C1955 1.463 . S
C1958 N1962 1.427 . S
C1959 H1949 0.929 . S
C1959 C1957 1.433 . S
C1959 N1962 1.384 . S
C1960 H1951 0.929 . S
C1960 C1952 1.378 . S
C1960 C1955 1.350 . S
C1961 H1948 0.929 . S
C1961 C1953 1.433 . S
C1961 N1963 1.384 . S
N1962 C1958 1.427 . S
N1962 C1959 1.384 . S
N1963 C1955 1.427 . S
N1963 C1961 1.384 . S
H1964 C1970 0.930 . S
H1965 C1974 0.930 . S
H1966 C1979 0.929 . S
H1967 C1977 0.929 . S
H1968 C1972 0.929 . S
H1969 C1978 0.929 . S
C1970 H1964 0.930 . S
C1970 C1971 1.367 . S
C1970 C1978 1.378 . S
C1971 C1970 1.367 . S
C1971 C1979 1.433 . S
C1972 H1968 0.929 . S
C1972 C1974 1.378 . S
C1972 C1976 1.350 . S
C1973 C1976 1.463 . S
C1973 C1978 1.350 . S
C1973 N1981 1.427 . S
C1974 H1965 0.930 . S
C1974 C1972 1.378 . S
C1974 C1975 1.367 . S
C1975 C1974 1.367 . S
C1975 C1977 1.433 . S
C1976 C1972 1.350 . S
C1976 C1973 1.463 . S
C1976 N1980 1.427 . S
C1977 H1967 0.929 . S
C1977 C1975 1.433 . S
C1977 N1980 1.384 . S
C1978 H1969 0.929 . S
C1978 C1970 1.378 . S
C1978 C1973 1.350 . S
C1979 H1966 0.929 . S
C1979 C1971 1.433 . S
C1979 N1981 1.384 . S
N1980 C1976 1.427 . S
N1980 C1977 1.384 . S
N1981 C1973 1.427 . S
N1981 C1979 1.384 . S
H1982 C1988 0.930 . S
H1983 C1992 0.930 . S
H1984 C1997 0.929 . S
H1985 C1995 0.929 . S
H1986 C1990 0.929 . S
H1987 C1996 0.929 . S
C1988 H1982 0.930 . S
C1988 C1989 1.367 . S
C1988 C1996 1.378 . S
C1989 C1988 1.367 . S
C1989 C1997 1.433 . S
C1990 H1986 0.929 . S
C1990 C1992 1.378 . S
C1990 C1994 1.350 . S
C1991 C1994 1.463 . S
C1991 C1996 1.350 . S
C1991 N1999 1.427 . S
C1992 H1983 0.930 . S
C1992 C1990 1.378 . S
C1992 C1993 1.367 . S
C1993 C1992 1.367 . S
C1993 C1995 1.433 . S
C1994 C1990 1.350 . S
C1994 C1991 1.463 . S
C1994 N1998 1.427 . S
C1995 H1985 0.929 . S
C1995 C1993 1.433 . S
C1995 N1998 1.384 . S
C1996 H1987 0.929 . S
C1996 C1988 1.378 . S
C1996 C1991 1.350 . S
C1997 H1984 0.929 . S
C1997 C1989 1.433 . S
C1997 N1999 1.384 . S
N1998 C1994 1.427 . S
N1998 C1995 1.384 . S
N1999 C1991 1.427 . S
N1999 C1997 1.384 . S
H2000 C2006 0.930 . S
H2001 C2010 0.930 . S
H2002 C2015 0.929 . S
H2003 C2013 0.929 . S
H2004 C2008 0.929 . S
H2005 C2014 0.929 . S
C2006 H2000 0.930 . S
C2006 C2007 1.367 . S
C2006 C2014 1.378 . S
C2007 C2006 1.367 . S
C2007 C2015 1.433 . S
C2008 H2004 0.929 . S
C2008 C2010 1.378 . S
C2008 C2012 1.350 . S
C2009 C2012 1.463 . S
C2009 C2014 1.350 . S
C2009 N2017 1.427 . S
C2010 H2001 0.930 . S
C2010 C2008 1.378 . S
C2010 C2011 1.367 . S
C2011 C2010 1.367 . S
C2011 C2013 1.433 . S
C2012 C2008 1.350 . S
C2012 C2009 1.463 . S
C2012 N2016 1.427 . S
C2013 H2003 0.929 . S
C2013 C2011 1.433 . S
C2013 N2016 1.384 . S
C2014 H2005 0.929 . S
C2014 C2006 1.378 . S
C2014 C2009 1.350 . S
C2015 H2002 0.929 . S
C2015 C2007 1.433 . S
C2015 N2017 1.384 . S
N2016 C2012 1.427 . S
N2016 C2013 1.384 . S
N2017 C2009 1.427 . S
N2017 C2015 1.384 . S
H2018 C2024 0.930 . S
H2019 C2028 0.930 . S
H2020 C2033 0.929 . S
H2021 C2031 0.929 . S
H2022 C2026 0.929 . S
H2023 C2032 0.929 . S
C2024 H2018 0.930 . S
C2024 C2025 1.367 . S
C2024 C2032 1.378 . S
C2025 C2024 1.367 . S
C2025 C2033 1.433 . S
C2026 H2022 0.929 . S
C2026 C2028 1.378 . S
C2026 C2030 1.350 . S
C2027 C2030 1.463 . S
C2027 C2032 1.350 . S
C2027 N2035 1.427 . S
C2028 H2019 0.930 . S
C2028 C2026 1.378 . S
C2028 C2029 1.367 . S
C2029 C2028 1.367 . S
C2029 C2031 1.433 . S
C2030 C2026 1.350 . S
C2030 C2027 1.463 . S
C2030 N2034 1.427 . S
C2031 H2021 0.929 . S
C2031 C2029 1.433 . S
C2031 N2034 1.384 . S
C2032 H2023 0.929 . S
C2032 C2024 1.378 . S
C2032 C2027 1.350 . S
C2033 H2020 0.929 . S
C2033 C2025 1.433 . S
C2033 N2035 1.384 . S
N2034 C2030 1.427 . S
N2034 C2031 1.384 . S
N2035 C2027 1.427 . S
N2035 C2033 1.384 . S
H2036 C2042 0.930 . S
H2037 C2046 0.930 . S
H2038 C2051 0.929 . S
H2039 C2049 0.929 . S
H2040 C2044 0.929 . S
H2041 C2050 0.929 . S
C2042 H2036 0.930 . S
C2042 C2043 1.367 . S
C2042 C2050 1.378 . S
C2043 C2042 1.367 . S
C2043 C2051 1.433 . S
C2044 H2040 0.929 . S
C2044 C2046 1.378 . S
C2044 C2048 1.350 . S
C2045 C2048 1.463 . S
C2045 C2050 1.350 . S
C2045 N2053 1.427 . S
C2046 H2037 0.930 . S
C2046 C2044 1.378 . S
C2046 C2047 1.367 . S
C2047 C2046 1.367 . S
C2047 C2049 1.433 . S
C2048 C2044 1.350 . S
C2048 C2045 1.463 . S
C2048 N2052 1.427 . S
C2049 H2039 0.929 . S
C2049 C2047 1.433 . S
C2049 N2052 1.384 . S
C2050 H2041 0.929 . S
C2050 C2042 1.378 . S
C2050 C2045 1.350 . S
C2051 H2038 0.929 . S
C2051 C2043 1.433 . S
C2051 N2053 1.384 . S
N2052 C2048 1.427 . S
N2052 C2049 1.384 . S
N2053 C2045 1.427 . S
N2053 C2051 1.384 . S
H2054 C2060 0.930 . S
H2055 C2064 0.930 . S
H2056 C2069 0.929 . S
H2057 C2067 0.929 . S
H2058 C2062 0.929 . S
H2059 C2068 0.929 . S
C2060 H2054 0.930 . S
C2060 C2061 1.367 . S
C2060 C2068 1.378 . S
C2061 C2060 1.367 . S
C2061 C2069 1.433 . S
C2062 H2058 0.929 . S
C2062 C2064 1.378 . S
C2062 C2066 1.350 . S
C2063 C2066 1.463 . S
C2063 C2068 1.350 . S
C2063 N2071 1.427 . S
C2064 H2055 0.930 . S
C2064 C2062 1.378 . S
C2064 C2065 1.367 . S
C2065 C2064 1.367 . S
C2065 C2067 1.433 . S
C2066 C2062 1.350 . S
C2066 C2063 1.463 . S
C2066 N2070 1.427 . S
C2067 H2057 0.929 . S
C2067 C2065 1.433 . S
C2067 N2070 1.384 . S
C2068 H2059 0.929 . S
C2068 C2060 1.378 . S
C2068 C2063 1.350 . S
C2069 H2056 0.929 . S
C2069 C2061 1.433 . S
C2069 N2071 1.384 . S
N2070 C2066 1.427 . S
N2070 C2067 1.384 . S
N2071 C2063 1.427 . S
N2071 C2069 1.384 . S
H2072 C2078 0.930 . S
H2073 C2082 0.930 . S
H2074 C2087 0.929 . S
H2075 C2085 0.929 . S
H2076 C2080 0.929 . S
H2077 C2086 0.929 . S
C2078 H2072 0.930 . S
C2078 C2079 1.367 . S
C2078 C2086 1.378 . S
C2079 C2078 1.367 . S
C2079 C2087 1.433 . S
C2080 H2076 0.929 . S
C2080 C2082 1.378 . S
C2080 C2084 1.350 . S
C2081 C2084 1.463 . S
C2081 C2086 1.350 . S
C2081 N2089 1.427 . S
C2082 H2073 0.930 . S
C2082 C2080 1.378 . S
C2082 C2083 1.367 . S
C2083 C2082 1.367 . S
C2083 C2085 1.433 . S
C2084 C2080 1.350 . S
C2084 C2081 1.463 . S
C2084 N2088 1.427 . S
C2085 H2075 0.929 . S
C2085 C2083 1.433 . S
C2085 N2088 1.384 . S
C2086 H2077 0.929 . S
C2086 C2078 1.378 . S
C2086 C2081 1.350 . S
C2087 H2074 0.929 . S
C2087 C2079 1.433 . S
C2087 N2089 1.384 . S
N2088 C2084 1.427 . S
N2088 C2085 1.384 . S
N2089 C2081 1.427 . S
N2089 C2087 1.384 . S
H2090 C2096 0.930 . S
H2091 C2100 0.930 . S
H2092 C2105 0.929 . S
H2093 C2103 0.929 . S
H2094 C2098 0.929 . S
H2095 C2104 0.929 . S
C2096 H2090 0.930 . S
C2096 C2097 1.367 . S
C2096 C2104 1.378 . S
C2097 C2096 1.367 . S
C2097 C2105 1.433 . S
C2098 H2094 0.929 . S
C2098 C2100 1.378 . S
C2098 C2102 1.350 . S
C2099 C2102 1.463 . S
C2099 C2104 1.350 . S
C2099 N2107 1.427 . S
C2100 H2091 0.930 . S
C2100 C2098 1.378 . S
C2100 C2101 1.367 . S
C2101 C2100 1.367 . S
C2101 C2103 1.433 . S
C2102 C2098 1.350 . S
C2102 C2099 1.463 . S
C2102 N2106 1.427 . S
C2103 H2093 0.929 . S
C2103 C2101 1.433 . S
C2103 N2106 1.384 . S
C2104 H2095 0.929 . S
C2104 C2096 1.378 . S
C2104 C2099 1.350 . S
C2105 H2092 0.929 . S
C2105 C2097 1.433 . S
C2105 N2107 1.384 . S
N2106 C2102 1.427 . S
N2106 C2103 1.384 . S
N2107 C2099 1.427 . S
N2107 C2105 1.384 . S
H2108 C2114 0.930 . S
H2109 C2118 0.930 . S
H2110 C2123 0.929 . S
H2111 C2121 0.929 . S
H2112 C2116 0.929 . S
H2113 C2122 0.929 . S
C2114 H2108 0.930 . S
C2114 C2115 1.367 . S
C2114 C2122 1.378 . S
C2115 C2114 1.367 . S
C2115 C2123 1.433 . S
C2116 H2112 0.929 . S
C2116 C2118 1.378 . S
C2116 C2120 1.350 . S
C2117 C2120 1.463 . S
C2117 C2122 1.350 . S
C2117 N2125 1.427 . S
C2118 H2109 0.930 . S
C2118 C2116 1.378 . S
C2118 C2119 1.367 . S
C2119 C2118 1.367 . S
C2119 C2121 1.433 . S
C2120 C2116 1.350 . S
C2120 C2117 1.463 . S
C2120 N2124 1.427 . S
C2121 H2111 0.929 . S
C2121 C2119 1.433 . S
C2121 N2124 1.384 . S
C2122 H2113 0.929 . S
C2122 C2114 1.378 . S
C2122 C2117 1.350 . S
C2123 H2110 0.929 . S
C2123 C2115 1.433 . S
C2123 N2125 1.384 . S
N2124 C2120 1.427 . S
N2124 C2121 1.384 . S
N2125 C2117 1.427 . S
N2125 C2123 1.384 . S
H2126 C2132 0.930 . S
H2127 C2136 0.930 . S
H2128 C2141 0.929 . S
H2129 C2139 0.929 . S
H2130 C2134 0.929 . S
H2131 C2140 0.929 . S
C2132 H2126 0.930 . S
C2132 C2133 1.367 . S
C2132 C2140 1.378 . S
C2133 C2132 1.367 . S
C2133 C2141 1.433 . S
C2134 H2130 0.929 . S
C2134 C2136 1.378 . S
C2134 C2138 1.350 . S
C2135 C2138 1.463 . S
C2135 C2140 1.350 . S
C2135 N2143 1.427 . S
C2136 H2127 0.930 . S
C2136 C2134 1.378 . S
C2136 C2137 1.367 . S
C2137 C2136 1.367 . S
C2137 C2139 1.433 . S
C2138 C2134 1.350 . S
C2138 C2135 1.463 . S
C2138 N2142 1.427 . S
C2139 H2129 0.929 . S
C2139 C2137 1.433 . S
C2139 N2142 1.384 . S
C2140 H2131 0.929 . S
C2140 C2132 1.378 . S
C2140 C2135 1.350 . S
C2141 H2128 0.929 . S
C2141 C2133 1.433 . S
C2141 N2143 1.384 . S
N2142 C2138 1.427 . S
N2142 C2139 1.384 . S
N2143 C2135 1.427 . S
N2143 C2141 1.384 . S
H2144 C2150 0.930 . S
H2145 C2154 0.930 . S
H2146 C2159 0.929 . S
H2147 C2157 0.929 . S
H2148 C2152 0.929 . S
H2149 C2158 0.929 . S
C2150 H2144 0.930 . S
C2150 C2151 1.367 . S
C2150 C2158 1.378 . S
C2151 C2150 1.367 . S
C2151 C2159 1.433 . S
C2152 H2148 0.929 . S
C2152 C2154 1.378 . S
C2152 C2156 1.350 . S
C2153 C2156 1.463 . S
C2153 C2158 1.350 . S
C2153 N2161 1.427 . S
C2154 H2145 0.930 . S
C2154 C2152 1.378 . S
C2154 C2155 1.367 . S
C2155 C2154 1.367 . S
C2155 C2157 1.433 . S
C2156 C2152 1.350 . S
C2156 C2153 1.463 . S
C2156 N2160 1.427 . S
C2157 H2147 0.929 . S
C2157 C2155 1.433 . S
C2157 N2160 1.384 . S
C2158 H2149 0.929 . S
C2158 C2150 1.378 . S
C2158 C2153 1.350 . S
C2159 H2146 0.929 . S
C2159 C2151 1.433 . S
C2159 N2161 1.384 . S
N2160 C2156 1.427 . S
N2160 C2157 1.384 . S
N2161 C2153 1.427 . S
N2161 C2159 1.384 . S
H2162 C2168 0.930 . S
H2163 C2172 0.930 . S
H2164 C2177 0.929 . S
H2165 C2175 0.929 . S
H2166 C2170 0.929 . S
H2167 C2176 0.929 . S
C2168 H2162 0.930 . S
C2168 C2169 1.367 . S
C2168 C2176 1.378 . S
C2169 C2168 1.367 . S
C2169 C2177 1.433 . S
C2170 H2166 0.929 . S
C2170 C2172 1.378 . S
C2170 C2174 1.350 . S
C2171 C2174 1.463 . S
C2171 C2176 1.350 . S
C2171 N2179 1.427 . S
C2172 H2163 0.930 . S
C2172 C2170 1.378 . S
C2172 C2173 1.367 . S
C2173 C2172 1.367 . S
C2173 C2175 1.433 . S
C2174 C2170 1.350 . S
C2174 C2171 1.463 . S
C2174 N2178 1.427 . S
C2175 H2165 0.929 . S
C2175 C2173 1.433 . S
C2175 N2178 1.384 . S
C2176 H2167 0.929 . S
C2176 C2168 1.378 . S
C2176 C2171 1.350 . S
C2177 H2164 0.929 . S
C2177 C2169 1.433 . S
C2177 N2179 1.384 . S
N2178 C2174 1.427 . S
N2178 C2175 1.384 . S
N2179 C2171 1.427 . S
N2179 C2177 1.384 . S
H2180 C2186 0.930 . S
H2181 C2190 0.930 . S
H2182 C2195 0.929 . S
H2183 C2193 0.929 . S
H2184 C2188 0.929 . S
H2185 C2194 0.929 . S
C2186 H2180 0.930 . S
C2186 C2187 1.367 . S
C2186 C2194 1.378 . S
C2187 C2186 1.367 . S
C2187 C2195 1.433 . S
C2188 H2184 0.929 . S
C2188 C2190 1.378 . S
C2188 C2192 1.350 . S
C2189 C2192 1.463 . S
C2189 C2194 1.350 . S
C2189 N2197 1.427 . S
C2190 H2181 0.930 . S
C2190 C2188 1.378 . S
C2190 C2191 1.367 . S
C2191 C2190 1.367 . S
C2191 C2193 1.433 . S
C2192 C2188 1.350 . S
C2192 C2189 1.463 . S
C2192 N2196 1.427 . S
C2193 H2183 0.929 . S
C2193 C2191 1.433 . S
C2193 N2196 1.384 . S
C2194 H2185 0.929 . S
C2194 C2186 1.378 . S
C2194 C2189 1.350 . S
C2195 H2182 0.929 . S
C2195 C2187 1.433 . S
C2195 N2197 1.384 . S
N2196 C2192 1.427 . S
N2196 C2193 1.384 . S
N2197 C2189 1.427 . S
N2197 C2195 1.384 . S
H2198 C2204 0.930 . S
H2199 C2208 0.930 . S
H2200 C2213 0.929 . S
H2201 C2211 0.929 . S
H2202 C2206 0.929 . S
H2203 C2212 0.929 . S
C2204 H2198 0.930 . S
C2204 C2205 1.367 . S
C2204 C2212 1.378 . S
C2205 C2204 1.367 . S
C2205 C2213 1.433 . S
C2206 H2202 0.929 . S
C2206 C2208 1.378 . S
C2206 C2210 1.350 . S
C2207 C2210 1.463 . S
C2207 C2212 1.350 . S
C2207 N2215 1.427 . S
C2208 H2199 0.930 . S
C2208 C2206 1.378 . S
C2208 C2209 1.367 . S
C2209 C2208 1.367 . S
C2209 C2211 1.433 . S
C2210 C2206 1.350 . S
C2210 C2207 1.463 . S
C2210 N2214 1.427 . S
C2211 H2201 0.929 . S
C2211 C2209 1.433 . S
C2211 N2214 1.384 . S
C2212 H2203 0.929 . S
C2212 C2204 1.378 . S
C2212 C2207 1.350 . S
C2213 H2200 0.929 . S
C2213 C2205 1.433 . S
C2213 N2215 1.384 . S
N2214 C2210 1.427 . S
N2214 C2211 1.384 . S
N2215 C2207 1.427 . S
N2215 C2213 1.384 . S
H2216 C2222 0.930 . S
H2217 C2226 0.930 . S
H2218 C2231 0.929 . S
H2219 C2229 0.929 . S
H2220 C2224 0.929 . S
H2221 C2230 0.929 . S
C2222 H2216 0.930 . S
C2222 C2223 1.367 . S
C2222 C2230 1.378 . S
C2223 C2222 1.367 . S
C2223 C2231 1.433 . S
C2224 H2220 0.929 . S
C2224 C2226 1.378 . S
C2224 C2228 1.350 . S
C2225 C2228 1.463 . S
C2225 C2230 1.350 . S
C2225 N2233 1.427 . S
C2226 H2217 0.930 . S
C2226 C2224 1.378 . S
C2226 C2227 1.367 . S
C2227 C2226 1.367 . S
C2227 C2229 1.433 . S
C2228 C2224 1.350 . S
C2228 C2225 1.463 . S
C2228 N2232 1.427 . S
C2229 H2219 0.929 . S
C2229 C2227 1.433 . S
C2229 N2232 1.384 . S
C2230 H2221 0.929 . S
C2230 C2222 1.378 . S
C2230 C2225 1.350 . S
C2231 H2218 0.929 . S
C2231 C2223 1.433 . S
C2231 N2233 1.384 . S
N2232 C2228 1.427 . S
N2232 C2229 1.384 . S
N2233 C2225 1.427 . S
N2233 C2231 1.384 . S
H2234 C2240 0.930 . S
H2235 C2244 0.930 . S
H2236 C2249 0.929 . S
H2237 C2247 0.929 . S
H2238 C2242 0.929 . S
H2239 C2248 0.929 . S
C2240 H2234 0.930 . S
C2240 C2241 1.367 . S
C2240 C2248 1.378 . S
C2241 C2240 1.367 . S
C2241 C2249 1.433 . S
C2242 H2238 0.929 . S
C2242 C2244 1.378 . S
C2242 C2246 1.350 . S
C2243 C2246 1.463 . S
C2243 C2248 1.350 . S
C2243 N2251 1.427 . S
C2244 H2235 0.930 . S
C2244 C2242 1.378 . S
C2244 C2245 1.367 . S
C2245 C2244 1.367 . S
C2245 C2247 1.433 . S
C2246 C2242 1.350 . S
C2246 C2243 1.463 . S
C2246 N2250 1.427 . S
C2247 H2237 0.929 . S
C2247 C2245 1.433 . S
C2247 N2250 1.384 . S
C2248 H2239 0.929 . S
C2248 C2240 1.378 . S
C2248 C2243 1.350 . S
C2249 H2236 0.929 . S
C2249 C2241 1.433 . S
C2249 N2251 1.384 . S
N2250 C2246 1.427 . S
N2250 C2247 1.384 . S
N2251 C2243 1.427 . S
N2251 C2249 1.384 . S
H2252 C2258 0.930 . S
H2253 C2262 0.930 . S
H2254 C2267 0.929 . S
H2255 C2265 0.929 . S
H2256 C2260 0.929 . S
H2257 C2266 0.929 . S
C2258 H2252 0.930 . S
C2258 C2259 1.367 . S
C2258 C2266 1.378 . S
C2259 C2258 1.367 . S
C2259 C2267 1.433 . S
C2260 H2256 0.929 . S
C2260 C2262 1.378 . S
C2260 C2264 1.350 . S
C2261 C2264 1.463 . S
C2261 C2266 1.350 . S
C2261 N2269 1.427 . S
C2262 H2253 0.930 . S
C2262 C2260 1.378 . S
C2262 C2263 1.367 . S
C2263 C2262 1.367 . S
C2263 C2265 1.433 . S
C2264 C2260 1.350 . S
C2264 C2261 1.463 . S
C2264 N2268 1.427 . S
C2265 H2255 0.929 . S
C2265 C2263 1.433 . S
C2265 N2268 1.384 . S
C2266 H2257 0.929 . S
C2266 C2258 1.378 . S
C2266 C2261 1.350 . S
C2267 H2254 0.929 . S
C2267 C2259 1.433 . S
C2267 N2269 1.384 . S
N2268 C2264 1.427 . S
N2268 C2265 1.384 . S
N2269 C2261 1.427 . S
N2269 C2267 1.384 . S
H2270 C2276 0.930 . S
H2271 C2280 0.930 . S
H2272 C2285 0.929 . S
H2273 C2283 0.929 . S
H2274 C2278 0.929 . S
H2275 C2284 0.929 . S
C2276 H2270 0.930 . S
C2276 C2277 1.367 . S
C2276 C2284 1.378 . S
C2277 C2276 1.367 . S
C2277 C2285 1.433 . S
C2278 H2274 0.929 . S
C2278 C2280 1.378 . S
C2278 C2282 1.350 . S
C2279 C2282 1.463 . S
C2279 C2284 1.350 . S
C2279 N2287 1.427 . S
C2280 H2271 0.930 . S
C2280 C2278 1.378 . S
C2280 C2281 1.367 . S
C2281 C2280 1.367 . S
C2281 C2283 1.433 . S
C2282 C2278 1.350 . S
C2282 C2279 1.463 . S
C2282 N2286 1.427 . S
C2283 H2273 0.929 . S
C2283 C2281 1.433 . S
C2283 N2286 1.384 . S
C2284 H2275 0.929 . S
C2284 C2276 1.378 . S
C2284 C2279 1.350 . S
C2285 H2272 0.929 . S
C2285 C2277 1.433 . S
C2285 N2287 1.384 . S
N2286 C2282 1.427 . S
N2286 C2283 1.384 . S
N2287 C2279 1.427 . S
N2287 C2285 1.384 . S
H2288 C2294 0.930 . S
H2289 C2298 0.930 . S
H2290 C2303 0.929 . S
H2291 C2301 0.929 . S
H2292 C2296 0.929 . S
H2293 C2302 0.929 . S
C2294 H2288 0.930 . S
C2294 C2295 1.367 . S
C2294 C2302 1.378 . S
C2295 C2294 1.367 . S
C2295 C2303 1.433 1_545 S
C2296 H2292 0.929 . S
C2296 C2298 1.378 . S
C2296 C2300 1.350 . S
C2297 C2300 1.463 . S
C2297 C2302 1.350 1_565 S
C2297 N2305 1.427 . S
C2298 H2289 0.930 . S
C2298 C2296 1.378 . S
C2298 C2299 1.367 . S
C2299 C2298 1.367 . S
C2299 C2301 1.433 . S
C2300 C2296 1.350 . S
C2300 C2297 1.463 . S
C2300 N2304 1.427 . S
C2301 H2291 0.929 . S
C2301 C2299 1.433 . S
C2301 N2304 1.384 . S
C2302 H2293 0.929 . S
C2302 C2294 1.378 . S
C2302 C2297 1.350 1_545 S
C2303 H2290 0.929 . S
C2303 C2295 1.433 1_565 S
C2303 N2305 1.384 . S
N2304 C2300 1.427 . S
N2304 C2301 1.384 . S
N2305 C2297 1.427 . S
N2305 C2303 1.384 . S
H2306 C2312 0.930 . S
H2307 C2316 0.930 . S
H2308 C2321 0.929 . S
H2309 C2319 0.929 . S
H2310 C2314 0.929 . S
H2311 C2320 0.929 . S
C2312 H2306 0.930 . S
C2312 C2313 1.367 . S
C2312 C2320 1.378 . S
C2313 C2312 1.367 . S
C2313 C2321 1.433 . S
C2314 H2310 0.929 . S
C2314 C2316 1.378 . S
C2314 C2318 1.350 . S
C2315 C2318 1.463 . S
C2315 C2320 1.350 . S
C2315 N2323 1.427 . S
C2316 H2307 0.930 . S
C2316 C2314 1.378 . S
C2316 C2317 1.367 . S
C2317 C2316 1.367 . S
C2317 C2319 1.433 . S
C2318 C2314 1.350 . S
C2318 C2315 1.463 . S
C2318 N2322 1.427 . S
C2319 H2309 0.929 . S
C2319 C2317 1.433 . S
C2319 N2322 1.384 . S
C2320 H2311 0.929 . S
C2320 C2312 1.378 . S
C2320 C2315 1.350 . S
C2321 H2308 0.929 . S
C2321 C2313 1.433 . S
C2321 N2323 1.384 . S
N2322 C2318 1.427 . S
N2322 C2319 1.384 . S
N2323 C2315 1.427 . S
N2323 C2321 1.384 . S
H2324 C2330 0.930 . S
H2325 C2334 0.930 . S
H2326 C2339 0.929 . S
H2327 C2337 0.929 . S
H2328 C2332 0.929 . S
H2329 C2338 0.929 . S
C2330 H2324 0.930 . S
C2330 C2331 1.367 . S
C2330 C2338 1.378 . S
C2331 C2330 1.367 . S
C2331 C2339 1.433 . S
C2332 H2328 0.929 . S
C2332 C2334 1.378 . S
C2332 C2336 1.350 . S
C2333 C2336 1.463 . S
C2333 C2338 1.350 . S
C2333 N2341 1.427 . S
C2334 H2325 0.930 . S
C2334 C2332 1.378 . S
C2334 C2335 1.367 . S
C2335 C2334 1.367 . S
C2335 C2337 1.433 . S
C2336 C2332 1.350 . S
C2336 C2333 1.463 . S
C2336 N2340 1.427 . S
C2337 H2327 0.929 . S
C2337 C2335 1.433 . S
C2337 N2340 1.384 . S
C2338 H2329 0.929 . S
C2338 C2330 1.378 . S
C2338 C2333 1.350 . S
C2339 H2326 0.929 . S
C2339 C2331 1.433 . S
C2339 N2341 1.384 . S
N2340 C2336 1.427 . S
N2340 C2337 1.384 . S
N2341 C2333 1.427 . S
N2341 C2339 1.384 . S
H2342 C2348 0.930 . S
H2343 C2352 0.930 1_545 S
H2344 C2357 0.929 . S
H2345 C2355 0.929 . S
H2346 C2350 0.947 . S
H2347 C2356 0.929 . S
C2348 H2342 0.930 . S
C2348 C2349 1.343 1_565 S
C2348 C2356 1.378 . S
C2349 C2348 1.343 1_545 S
C2349 C2357 1.452 . S
C2350 H2346 0.947 . S
C2350 C2352 1.373 1_545 S
C2350 C2354 1.337 1_545 S
C2351 C2354 1.463 . S
C2351 C2356 1.350 . S
C2351 N2359 1.427 1_565 S
C2352 H2343 0.930 1_565 S
C2352 C2350 1.373 1_565 S
C2352 C2353 1.367 . S
C2353 C2352 1.367 . S
C2353 C2355 1.433 . S
C2354 C2350 1.337 1_565 S
C2354 C2351 1.463 . S
C2354 N2358 1.427 . S
C2355 H2345 0.929 . S
C2355 C2353 1.433 . S
C2355 N2358 1.384 . S
C2356 H2347 0.929 . S
C2356 C2348 1.378 . S
C2356 C2351 1.350 . S
C2357 H2344 0.929 . S
C2357 C2349 1.452 . S
C2357 N2359 1.384 . S
N2358 C2354 1.427 . S
N2358 C2355 1.384 . S
N2359 C2351 1.427 1_545 S
N2359 C2357 1.384 . S
H2360 C2366 0.930 . S
H2361 C2370 0.930 . S
H2362 C2375 0.929 . S
H2363 C2373 0.929 . S
H2364 C2368 0.929 . S
H2365 C2374 0.929 . S
C2366 H2360 0.930 . S
C2366 C2367 1.339 1_545 S
C2366 C2374 1.378 . S
C2367 C2366 1.339 1_565 S
C2367 C2375 1.456 . S
C2368 H2364 0.929 . S
C2368 C2370 1.378 . S
C2368 C2372 1.350 1_565 S
C2369 C2372 1.463 . S
C2369 C2374 1.350 . S
C2369 N2377 1.427 1_545 S
C2370 H2361 0.930 . S
C2370 C2368 1.378 . S
C2370 C2371 1.367 1_565 S
C2371 C2370 1.367 1_545 S
C2371 C2373 1.433 . S
C2372 C2368 1.350 1_545 S
C2372 C2369 1.463 . S
C2372 N2376 1.427 . S
C2373 H2363 0.929 . S
C2373 C2371 1.433 . S
C2373 N2376 1.384 . S
C2374 H2365 0.929 . S
C2374 C2366 1.378 . S
C2374 C2369 1.350 . S
C2375 H2362 0.929 . S
C2375 C2367 1.456 . S
C2375 N2377 1.384 . S
N2376 C2372 1.427 . S
N2376 C2373 1.384 . S
N2377 C2369 1.427 1_565 S
N2377 C2375 1.384 . S
H2378 C2384 0.930 . S
H2379 C2388 0.930 . S
H2380 C2393 0.929 . S
H2381 C2391 0.929 . S
H2382 C2386 0.929 . S
H2383 C2392 0.929 . S
C2384 H2378 0.930 . S
C2384 C2385 1.367 . S
C2384 C2392 1.378 . S
C2385 C2384 1.367 . S
C2385 C2393 1.433 . S
C2386 H2382 0.929 . S
C2386 C2388 1.378 . S
C2386 C2390 1.350 . S
C2387 C2390 1.463 . S
C2387 C2392 1.350 . S
C2387 N2395 1.427 . S
C2388 H2379 0.930 . S
C2388 C2386 1.378 . S
C2388 C2389 1.367 . S
C2389 C2388 1.367 . S
C2389 C2391 1.433 . S
C2390 C2386 1.350 . S
C2390 C2387 1.463 . S
C2390 N2394 1.427 . S
C2391 H2381 0.929 . S
C2391 C2389 1.433 . S
C2391 N2394 1.384 . S
C2392 H2383 0.929 . S
C2392 C2384 1.378 . S
C2392 C2387 1.350 . S
C2393 H2380 0.929 . S
C2393 C2385 1.433 . S
C2393 N2395 1.384 . S
N2394 C2390 1.427 . S
N2394 C2391 1.384 . S
N2395 C2387 1.427 . S
N2395 C2393 1.384 . S
H2396 C2402 0.930 . S
H2397 C2406 0.930 . S
H2398 C2411 0.929 . S
H2399 C2409 0.929 . S
H2400 C2404 0.929 . S
H2401 C2410 0.929 . S
C2402 H2396 0.930 . S
C2402 C2403 1.367 . S
C2402 C2410 1.378 . S
C2403 C2402 1.367 . S
C2403 C2411 1.433 . S
C2404 H2400 0.929 . S
C2404 C2406 1.378 . S
C2404 C2408 1.350 . S
C2405 C2408 1.463 . S
C2405 C2410 1.350 . S
C2405 N2413 1.427 . S
C2406 H2397 0.930 . S
C2406 C2404 1.378 . S
C2406 C2407 1.367 . S
C2407 C2406 1.367 . S
C2407 C2409 1.433 . S
C2408 C2404 1.350 . S
C2408 C2405 1.463 . S
C2408 N2412 1.427 . S
C2409 H2399 0.929 . S
C2409 C2407 1.433 . S
C2409 N2412 1.384 . S
C2410 H2401 0.929 . S
C2410 C2402 1.378 . S
C2410 C2405 1.350 . S
C2411 H2398 0.929 . S
C2411 C2403 1.433 . S
C2411 N2413 1.384 . S
N2412 C2408 1.427 . S
N2412 C2409 1.384 . S
N2413 C2405 1.427 . S
N2413 C2411 1.384 . S
H2414 C2420 0.930 . S
H2415 C2424 0.928 . S
H2416 C2429 0.929 . S
H2417 C2427 0.929 . S
H2418 C2422 0.929 . S
H2419 C2428 0.929 . S
C2420 H2414 0.930 . S
C2420 C2421 1.341 1_545 S
C2420 C2428 1.378 . S
C2421 C2420 1.341 1_565 S
C2421 C2429 1.455 . S
C2422 H2418 0.929 . S
C2422 C2424 1.377 . S
C2422 C2426 1.350 1_565 S
C2423 C2426 1.463 . S
C2423 C2428 1.350 . S
C2423 N2431 1.427 1_545 S
C2424 H2415 0.928 . S
C2424 C2422 1.377 . S
C2424 C2425 1.370 1_565 S
C2425 C2424 1.370 1_545 S
C2425 C2427 1.433 . S
C2426 C2422 1.350 1_545 S
C2426 C2423 1.463 . S
C2426 N2430 1.427 . S
C2427 H2417 0.929 . S
C2427 C2425 1.433 . S
C2427 N2430 1.384 . S
C2428 H2419 0.929 . S
C2428 C2420 1.378 . S
C2428 C2423 1.350 . S
C2429 H2416 0.929 . S
C2429 C2421 1.455 . S
C2429 N2431 1.384 . S
N2430 C2426 1.427 . S
N2430 C2427 1.384 . S
N2431 C2423 1.427 1_565 S
N2431 C2429 1.384 . S
H2432 C2438 0.930 . S
H2433 C2442 0.930 . S
H2434 C2447 0.929 . S
H2435 C2445 0.929 . S
H2436 C2440 0.929 . S
H2437 C2446 0.929 . S
C2438 H2432 0.930 . S
C2438 C2439 1.367 . S
C2438 C2446 1.378 . S
C2439 C2438 1.367 . S
C2439 C2447 1.433 . S
C2440 H2436 0.929 . S
C2440 C2442 1.378 . S
C2440 C2444 1.350 1_655 S
C2441 C2444 1.463 . S
C2441 C2446 1.350 . S
C2441 N2449 1.427 . S
C2442 H2433 0.930 . S
C2442 C2440 1.378 . S
C2442 C2443 1.367 . S
C2443 C2442 1.367 . S
C2443 C2445 1.433 . S
C2444 C2440 1.350 1_455 S
C2444 C2441 1.463 . S
C2444 N2448 1.427 1_455 S
C2445 H2435 0.929 . S
C2445 C2443 1.433 . S
C2445 N2448 1.384 . S
C2446 H2437 0.929 . S
C2446 C2438 1.378 . S
C2446 C2441 1.350 . S
C2447 H2434 0.929 . S
C2447 C2439 1.433 . S
C2447 N2449 1.384 . S
N2448 C2444 1.427 1_655 S
N2448 C2445 1.384 . S
N2449 C2441 1.427 . S
N2449 C2447 1.384 . S
H2450 C2456 0.930 . S
H2451 C2460 0.930 . S
H2452 C2465 0.929 . S
H2453 C2463 0.929 . S
H2454 C2458 0.929 . S
H2455 C2464 0.929 . S
C2456 H2450 0.930 . S
C2456 C2457 1.367 . S
C2456 C2464 1.378 . S
C2457 C2456 1.367 . S
C2457 C2465 1.433 . S
C2458 H2454 0.929 . S
C2458 C2460 1.378 . S
C2458 C2462 1.350 . S
C2459 C2462 1.463 . S
C2459 C2464 1.350 . S
C2459 N2467 1.427 . S
C2460 H2451 0.930 . S
C2460 C2458 1.378 . S
C2460 C2461 1.367 . S
C2461 C2460 1.367 . S
C2461 C2463 1.433 . S
C2462 C2458 1.350 . S
C2462 C2459 1.463 . S
C2462 N2466 1.427 . S
C2463 H2453 0.929 . S
C2463 C2461 1.433 . S
C2463 N2466 1.384 . S
C2464 H2455 0.929 . S
C2464 C2456 1.378 . S
C2464 C2459 1.350 . S
C2465 H2452 0.929 . S
C2465 C2457 1.433 . S
C2465 N2467 1.384 . S
N2466 C2462 1.427 . S
N2466 C2463 1.384 . S
N2467 C2459 1.427 . S
N2467 C2465 1.384 . S
H2468 C2474 0.930 . S
H2469 C2478 0.930 . S
H2470 C2483 0.929 . S
H2471 C2481 0.929 . S
H2472 C2476 0.929 . S
H2473 C2482 0.929 . S
C2474 H2468 0.930 . S
C2474 C2475 1.367 . S
C2474 C2482 1.378 . S
C2475 C2474 1.367 . S
C2475 C2483 1.433 . S
C2476 H2472 0.929 . S
C2476 C2478 1.378 . S
C2476 C2480 1.350 . S
C2477 C2480 1.463 . S
C2477 C2482 1.350 1_455 S
C2477 N2485 1.427 1_455 S
C2478 H2469 0.930 . S
C2478 C2476 1.378 . S
C2478 C2479 1.367 . S
C2479 C2478 1.367 . S
C2479 C2481 1.433 . S
C2480 C2476 1.350 . S
C2480 C2477 1.463 . S
C2480 N2484 1.427 . S
C2481 H2471 0.929 . S
C2481 C2479 1.433 . S
C2481 N2484 1.384 . S
C2482 H2473 0.929 . S
C2482 C2474 1.378 . S
C2482 C2477 1.350 1_655 S
C2483 H2470 0.929 . S
C2483 C2475 1.433 . S
C2483 N2485 1.384 . S
N2484 C2480 1.427 . S
N2484 C2481 1.384 . S
N2485 C2477 1.427 1_655 S
N2485 C2483 1.384 . S
H2486 C2492 0.930 . S
H2487 C2496 0.930 . S
H2488 C2501 0.929 . S
H2489 C2499 0.929 . S
H2490 C2494 0.929 . S
H2491 C2500 0.929 . S
C2492 H2486 0.930 . S
C2492 C2493 1.367 . S
C2492 C2500 1.378 . S
C2493 C2492 1.367 . S
C2493 C2501 1.433 . S
C2494 H2490 0.929 . S
C2494 C2496 1.378 . S
C2494 C2498 1.350 . S
C2495 C2498 1.463 . S
C2495 C2500 1.350 . S
C2495 N2503 1.427 . S
C2496 H2487 0.930 . S
C2496 C2494 1.378 . S
C2496 C2497 1.367 . S
C2497 C2496 1.367 . S
C2497 C2499 1.433 . S
C2498 C2494 1.350 . S
C2498 C2495 1.463 . S
C2498 N2502 1.427 . S
C2499 H2489 0.929 . S
C2499 C2497 1.433 . S
C2499 N2502 1.384 . S
C2500 H2491 0.929 . S
C2500 C2492 1.378 . S
C2500 C2495 1.350 . S
C2501 H2488 0.929 . S
C2501 C2493 1.433 . S
C2501 N2503 1.384 . S
N2502 C2498 1.427 . S
N2502 C2499 1.384 . S
N2503 C2495 1.427 . S
N2503 C2501 1.384 . S
H2504 C2510 0.930 . S
H2505 C2514 0.930 . S
H2506 C2519 0.929 . S
H2507 C2517 0.929 . S
H2508 C2512 0.929 1_655 S
H2509 C2518 0.929 . S
C2510 H2504 0.930 . S
C2510 C2511 1.367 . S
C2510 C2518 1.378 . S
C2511 C2510 1.367 . S
C2511 C2519 1.433 . S
C2512 H2508 0.929 1_455 S
C2512 C2514 1.378 . S
C2512 C2516 1.350 1_455 S
C2513 C2516 1.463 . S
C2513 C2518 1.350 . S
C2513 N2521 1.427 . S
C2514 H2505 0.930 . S
C2514 C2512 1.378 . S
C2514 C2515 1.367 . S
C2515 C2514 1.367 . S
C2515 C2517 1.433 . S
C2516 C2512 1.350 1_655 S
C2516 C2513 1.463 . S
C2516 N2520 1.427 1_655 S
C2517 H2507 0.929 . S
C2517 C2515 1.433 . S
C2517 N2520 1.384 . S
C2518 H2509 0.929 . S
C2518 C2510 1.378 . S
C2518 C2513 1.350 . S
C2519 H2506 0.929 . S
C2519 C2511 1.433 . S
C2519 N2521 1.384 . S
N2520 C2516 1.427 1_455 S
N2520 C2517 1.384 . S
N2521 C2513 1.427 . S
N2521 C2519 1.384 . S
H2522 C2528 0.930 . S
H2523 C2532 0.930 . S
H2524 C2537 0.929 . S
H2525 C2535 0.929 . S
H2526 C2530 0.929 . S
H2527 C2536 0.929 . S
C2528 H2522 0.930 . S
C2528 C2529 1.367 . S
C2528 C2536 1.378 . S
C2529 C2528 1.367 . S
C2529 C2537 1.433 . S
C2530 H2526 0.929 . S
C2530 C2532 1.378 . S
C2530 C2534 1.350 . S
C2531 C2534 1.463 . S
C2531 C2536 1.350 . S
C2531 N2539 1.427 . S
C2532 H2523 0.930 . S
C2532 C2530 1.378 . S
C2532 C2533 1.367 . S
C2533 C2532 1.367 . S
C2533 C2535 1.433 . S
C2534 C2530 1.350 . S
C2534 C2531 1.463 . S
C2534 N2538 1.427 . S
C2535 H2525 0.929 . S
C2535 C2533 1.433 . S
C2535 N2538 1.384 . S
C2536 H2527 0.929 . S
C2536 C2528 1.378 . S
C2536 C2531 1.350 . S
C2537 H2524 0.929 . S
C2537 C2529 1.433 . S
C2537 N2539 1.384 . S
N2538 C2534 1.427 . S
N2538 C2535 1.384 . S
N2539 C2531 1.427 . S
N2539 C2537 1.384 . S
H2540 C2546 0.930 . S
H2541 C2550 0.930 . S
H2542 C2555 0.929 . S
H2543 C2553 0.929 . S
H2544 C2548 0.929 . S
H2545 C2554 0.929 . S
C2546 H2540 0.930 . S
C2546 C2547 1.367 . S
C2546 C2554 1.378 . S
C2547 C2546 1.367 . S
C2547 C2555 1.433 . S
C2548 H2544 0.929 . S
C2548 C2550 1.378 . S
C2548 C2552 1.350 . S
C2549 C2552 1.463 . S
C2549 C2554 1.350 1_655 S
C2549 N2557 1.427 1_655 S
C2550 H2541 0.930 . S
C2550 C2548 1.378 . S
C2550 C2551 1.367 . S
C2551 C2550 1.367 . S
C2551 C2553 1.433 . S
C2552 C2548 1.350 . S
C2552 C2549 1.463 . S
C2552 N2556 1.427 . S
C2553 H2543 0.929 . S
C2553 C2551 1.433 . S
C2553 N2556 1.384 . S
C2554 H2545 0.929 . S
C2554 C2546 1.378 . S
C2554 C2549 1.350 1_455 S
C2555 H2542 0.929 . S
C2555 C2547 1.433 . S
C2555 N2557 1.384 . S
N2556 C2552 1.427 . S
N2556 C2553 1.384 . S
N2557 C2549 1.427 1_455 S
N2557 C2555 1.384 . S
H2558 C2564 0.930 . S
H2559 C2568 0.930 . S
H2560 C2573 0.929 . S
H2561 C2571 0.929 . S
H2562 C2566 0.929 . S
H2563 C2572 0.929 . S
C2564 H2558 0.930 . S
C2564 C2565 1.367 . S
C2564 C2572 1.378 . S
C2565 C2564 1.367 . S
C2565 C2573 1.433 . S
C2566 H2562 0.929 . S
C2566 C2568 1.378 . S
C2566 C2570 1.350 . S
C2567 C2570 1.463 . S
C2567 C2572 1.350 . S
C2567 N2575 1.427 . S
C2568 H2559 0.930 . S
C2568 C2566 1.378 . S
C2568 C2569 1.367 . S
C2569 C2568 1.367 . S
C2569 C2571 1.433 . S
C2570 C2566 1.350 . S
C2570 C2567 1.463 . S
C2570 N2574 1.427 . S
C2571 H2561 0.929 . S
C2571 C2569 1.433 . S
C2571 N2574 1.384 . S
C2572 H2563 0.929 . S
C2572 C2564 1.378 . S
C2572 C2567 1.350 . S
C2573 H2560 0.929 . S
C2573 C2565 1.433 . S
C2573 N2575 1.384 . S
N2574 C2570 1.427 . S
N2574 C2571 1.384 . S
N2575 C2567 1.427 . S
N2575 C2573 1.384 . S
H2576 C2582 0.930 . S
H2577 C2586 0.930 . S
H2578 C2591 0.929 . S
H2579 C2589 0.929 . S
H2580 C2584 0.929 . S
H2581 C2590 0.929 1_455 S
C2582 H2576 0.930 . S
C2582 C2583 1.367 . S
C2582 C2590 1.378 . S
C2583 C2582 1.367 . S
C2583 C2591 1.433 1_545 S
C2584 H2580 0.929 . S
C2584 C2586 1.378 . S
C2584 C2588 1.350 . S
C2585 C2588 1.463 . S
C2585 C2590 1.350 1_465 S
C2585 N2593 1.427 1_455 S
C2586 H2577 0.930 . S
C2586 C2584 1.378 . S
C2586 C2587 1.367 . S
C2587 C2586 1.367 . S
C2587 C2589 1.433 1_565 S
C2588 C2584 1.350 . S
C2588 C2585 1.463 . S
C2588 N2592 1.427 1_565 S
C2589 H2579 0.929 . S
C2589 C2587 1.433 1_545 S
C2589 N2592 1.384 . S
C2590 H2581 0.929 1_655 S
C2590 C2582 1.378 . S
C2590 C2585 1.350 1_645 S
C2591 H2578 0.929 . S
C2591 C2583 1.433 1_565 S
C2591 N2593 1.384 . S
N2592 C2588 1.427 1_545 S
N2592 C2589 1.384 . S
N2593 C2585 1.427 1_655 S
N2593 C2591 1.384 . S
H2594 C2600 0.930 . S
H2595 C2604 0.930 . S
H2596 C2609 0.929 . S
H2597 C2607 0.929 . S
H2598 C2602 0.929 . S
H2599 C2608 0.929 . S
C2600 H2594 0.930 . S
C2600 C2601 1.367 . S
C2600 C2608 1.378 . S
C2601 C2600 1.367 . S
C2601 C2609 1.433 . S
C2602 H2598 0.929 . S
C2602 C2604 1.378 . S
C2602 C2606 1.350 . S
C2603 C2606 1.463 . S
C2603 C2608 1.350 . S
C2603 N2611 1.427 . S
C2604 H2595 0.930 . S
C2604 C2602 1.378 . S
C2604 C2605 1.367 . S
C2605 C2604 1.367 . S
C2605 C2607 1.433 . S
C2606 C2602 1.350 . S
C2606 C2603 1.463 . S
C2606 N2610 1.427 . S
C2607 H2597 0.929 . S
C2607 C2605 1.433 . S
C2607 N2610 1.384 . S
C2608 H2599 0.929 . S
C2608 C2600 1.378 . S
C2608 C2603 1.350 . S
C2609 H2596 0.929 . S
C2609 C2601 1.433 . S
C2609 N2611 1.384 . S
N2610 C2606 1.427 . S
N2610 C2607 1.384 . S
N2611 C2603 1.427 . S
N2611 C2609 1.384 . S
H2612 C2618 0.930 . S
H2613 C2622 0.930 . S
H2614 C2627 0.929 . S
H2615 C2625 0.929 . S
H2616 C2620 0.929 . S
H2617 C2626 0.929 . S
C2618 H2612 0.930 . S
C2618 C2619 1.367 . S
C2618 C2626 1.378 . S
C2619 C2618 1.367 . S
C2619 C2627 1.433 . S
C2620 H2616 0.929 . S
C2620 C2622 1.378 . S
C2620 C2624 1.350 . S
C2621 C2624 1.463 . S
C2621 C2626 1.350 1_455 S
C2621 N2629 1.427 1_455 S
C2622 H2613 0.930 . S
C2622 C2620 1.378 . S
C2622 C2623 1.367 . S
C2623 C2622 1.367 . S
C2623 C2625 1.433 . S
C2624 C2620 1.350 . S
C2624 C2621 1.463 . S
C2624 N2628 1.427 . S
C2625 H2615 0.929 . S
C2625 C2623 1.433 . S
C2625 N2628 1.384 . S
C2626 H2617 0.929 . S
C2626 C2618 1.378 . S
C2626 C2621 1.350 1_655 S
C2627 H2614 0.929 . S
C2627 C2619 1.433 . S
C2627 N2629 1.384 . S
N2628 C2624 1.427 . S
N2628 C2625 1.384 . S
N2629 C2621 1.427 1_655 S
N2629 C2627 1.384 . S
H2630 C2636 0.930 . S
H2631 C2640 0.930 . S
H2632 C2645 0.929 . S
H2633 C2643 0.929 1_545 S
H2634 C2638 0.929 . S
H2635 C2644 0.929 . S
C2636 H2630 0.930 . S
C2636 C2637 1.367 . S
C2636 C2644 1.378 . S
C2637 C2636 1.367 . S
C2637 C2645 1.433 1_545 S
C2638 H2634 0.929 . S
C2638 C2640 1.378 . S
C2638 C2642 1.350 . S
C2639 C2642 1.463 . S
C2639 C2644 1.350 1_565 S
C2639 N2647 1.427 . S
C2640 H2631 0.930 . S
C2640 C2638 1.378 . S
C2640 C2641 1.367 . S
C2641 C2640 1.367 . S
C2641 C2643 1.433 . S
C2642 C2638 1.350 . S
C2642 C2639 1.463 . S
C2642 N2646 1.427 . S
C2643 H2633 0.929 1_565 S
C2643 C2641 1.433 . S
C2643 N2646 1.384 . S
C2644 H2635 0.929 . S
C2644 C2636 1.378 . S
C2644 C2639 1.350 1_545 S
C2645 H2632 0.929 . S
C2645 C2637 1.433 1_565 S
C2645 N2647 1.384 . S
N2646 C2642 1.427 . S
N2646 C2643 1.384 . S
N2647 C2639 1.427 . S
N2647 C2645 1.384 . S
H2648 C2654 0.930 . S
H2649 C2658 0.930 . S
H2650 C2663 0.929 . S
H2651 C2661 0.929 . S
H2652 C2656 0.929 . S
H2653 C2662 0.929 . S
C2654 H2648 0.930 . S
C2654 C2655 1.367 1_565 S
C2654 C2662 1.378 . S
C2655 C2654 1.367 1_545 S
C2655 C2663 1.433 . S
C2656 H2652 0.929 . S
C2656 C2658 1.378 . S
C2656 C2660 1.350 1_455 S
C2657 C2660 1.463 . S
C2657 C2662 1.350 1_545 S
C2657 N2665 1.427 . S
C2658 H2649 0.930 . S
C2658 C2656 1.378 . S
C2658 C2659 1.339 1_545 S
C2659 C2658 1.339 1_565 S
C2659 C2661 1.457 . S
C2660 C2656 1.350 1_655 S
C2660 C2657 1.463 . S
C2660 N2664 1.427 1_645 S
C2661 H2651 0.929 . S
C2661 C2659 1.457 . S
C2661 N2664 1.384 . S
C2662 H2653 0.929 . S
C2662 C2654 1.378 . S
C2662 C2657 1.350 1_565 S
C2663 H2650 0.929 . S
C2663 C2655 1.433 . S
C2663 N2665 1.384 . S
N2664 C2660 1.427 1_465 S
N2664 C2661 1.384 . S
N2665 C2657 1.427 . S
N2665 C2663 1.384 . S
H2666 C2672 0.930 . S
H2667 C2676 0.930 . S
H2668 C2681 0.929 . S
H2669 C2679 0.929 . S
H2670 C2674 0.929 . S
H2671 C2680 0.929 . S
C2672 H2666 0.930 . S
C2672 C2673 1.367 . S
C2672 C2680 1.378 . S
C2673 C2672 1.367 . S
C2673 C2681 1.433 . S
C2674 H2670 0.929 . S
C2674 C2676 1.378 . S
C2674 C2678 1.350 . S
C2675 C2678 1.463 . S
C2675 C2680 1.350 . S
C2675 N2683 1.427 . S
C2676 H2667 0.930 . S
C2676 C2674 1.378 . S
C2676 C2677 1.367 . S
C2677 C2676 1.367 . S
C2677 C2679 1.433 . S
C2678 C2674 1.350 . S
C2678 C2675 1.463 . S
C2678 N2682 1.427 . S
C2679 H2669 0.929 . S
C2679 C2677 1.433 . S
C2679 N2682 1.384 . S
C2680 H2671 0.929 . S
C2680 C2672 1.378 . S
C2680 C2675 1.350 . S
C2681 H2668 0.929 . S
C2681 C2673 1.433 . S
C2681 N2683 1.384 . S
N2682 C2678 1.427 . S
N2682 C2679 1.384 . S
N2683 C2675 1.427 . S
N2683 C2681 1.384 . S
H2684 C2690 0.930 . S
H2685 C2694 0.930 . S
H2686 C2699 0.929 . S
H2687 C2697 0.929 . S
H2688 C2692 0.929 . S
H2689 C2698 0.929 . S
C2690 H2684 0.930 . S
C2690 C2691 1.367 . S
C2690 C2698 1.378 . S
C2691 C2690 1.367 . S
C2691 C2699 1.433 . S
C2692 H2688 0.929 . S
C2692 C2694 1.378 . S
C2692 C2696 1.350 . S
C2693 C2696 1.463 . S
C2693 C2698 1.350 1_655 S
C2693 N2701 1.427 1_655 S
C2694 H2685 0.930 . S
C2694 C2692 1.378 . S
C2694 C2695 1.367 . S
C2695 C2694 1.367 . S
C2695 C2697 1.433 . S
C2696 C2692 1.350 . S
C2696 C2693 1.463 . S
C2696 N2700 1.427 . S
C2697 H2687 0.929 . S
C2697 C2695 1.433 . S
C2697 N2700 1.384 . S
C2698 H2689 0.929 . S
C2698 C2690 1.378 . S
C2698 C2693 1.350 1_455 S
C2699 H2686 0.929 . S
C2699 C2691 1.433 . S
C2699 N2701 1.384 . S
N2700 C2696 1.427 . S
N2700 C2697 1.384 . S
N2701 C2693 1.427 1_455 S
N2701 C2699 1.384 . S
H2702 C2708 0.930 . S
H2703 C2712 0.930 . S
H2704 C2717 0.929 . S
H2705 C2715 0.929 . S
H2706 C2710 0.929 . S
H2707 C2716 0.929 . S
C2708 H2702 0.930 . S
C2708 C2709 1.367 . S
C2708 C2716 1.378 . S
C2709 C2708 1.367 . S
C2709 C2717 1.433 1_565 S
C2710 H2706 0.929 . S
C2710 C2712 1.378 . S
C2710 C2714 1.350 . S
C2711 C2714 1.463 . S
C2711 C2716 1.350 1_545 S
C2711 N2719 1.427 . S
C2712 H2703 0.930 . S
C2712 C2710 1.378 . S
C2712 C2713 1.367 . S
C2713 C2712 1.367 . S
C2713 C2715 1.433 1_545 S
C2714 C2710 1.350 . S
C2714 C2711 1.463 . S
C2714 N2718 1.427 1_545 S
C2715 H2705 0.929 . S
C2715 C2713 1.433 1_565 S
C2715 N2718 1.384 . S
C2716 H2707 0.929 . S
C2716 C2708 1.378 . S
C2716 C2711 1.350 1_565 S
C2717 H2704 0.929 . S
C2717 C2709 1.433 1_545 S
C2717 N2719 1.384 . S
N2718 C2714 1.427 1_565 S
N2718 C2715 1.384 . S
N2719 C2711 1.427 . S
N2719 C2717 1.384 . S
H2720 C2726 0.930 . S
H2721 C2730 0.930 . S
H2722 C2735 0.929 . S
H2723 C2733 0.929 . S
H2724 C2728 0.929 . S
H2725 C2734 0.929 . S
C2726 H2720 0.930 . S
C2726 C2727 1.367 . S
C2726 C2734 1.378 . S
C2727 C2726 1.367 . S
C2727 C2735 1.433 1_455 S
C2728 H2724 0.929 . S
C2728 C2730 1.378 . S
C2728 C2732 1.350 . S
C2729 C2732 1.463 1_454 S
C2729 C2734 1.350 . S
C2729 N2737 1.427 1_455 S
C2730 H2721 0.930 . S
C2730 C2728 1.378 . S
C2730 C2731 1.367 . S
C2731 C2730 1.367 . S
C2731 C2733 1.433 1_655 S
C2732 C2728 1.350 . S
C2732 C2729 1.463 1_656 S
C2732 N2736 1.427 1_655 S
C2733 H2723 0.929 . S
C2733 C2731 1.433 1_455 S
C2733 N2736 1.384 . S
C2734 H2725 0.929 . S
C2734 C2726 1.378 . S
C2734 C2729 1.350 . S
C2735 H2722 0.929 . S
C2735 C2727 1.433 1_655 S
C2735 N2737 1.384 . S
N2736 C2732 1.427 1_455 S
N2736 C2733 1.384 . S
N2737 C2729 1.427 1_655 S
N2737 C2735 1.384 . S
H2738 C2744 0.930 . S
H2739 C2748 0.930 . S
H2740 C2753 0.929 . S
H2741 C2751 0.929 . S
H2742 C2746 0.929 . S
H2743 C2752 0.929 . S
C2744 H2738 0.930 . S
C2744 C2745 1.367 . S
C2744 C2752 1.378 . S
C2745 C2744 1.367 . S
C2745 C2753 1.433 . S
C2746 H2742 0.929 . S
C2746 C2748 1.378 . S
C2746 C2750 1.350 . S
C2747 C2750 1.463 1_556 S
C2747 C2752 1.350 . S
C2747 N2755 1.427 . S
C2748 H2739 0.930 . S
C2748 C2746 1.378 . S
C2748 C2749 1.367 . S
C2749 C2748 1.367 . S
C2749 C2751 1.433 . S
C2750 C2746 1.350 . S
C2750 C2747 1.463 1_554 S
C2750 N2754 1.427 . S
C2751 H2741 0.929 . S
C2751 C2749 1.433 . S
C2751 N2754 1.384 . S
C2752 H2743 0.929 . S
C2752 C2744 1.378 . S
C2752 C2747 1.350 . S
C2753 H2740 0.929 . S
C2753 C2745 1.433 . S
C2753 N2755 1.384 . S
N2754 C2750 1.427 . S
N2754 C2751 1.384 . S
N2755 C2747 1.427 . S
N2755 C2753 1.384 . S
H2756 C2762 0.930 . S
H2757 C2766 0.930 . S
H2758 C2771 0.929 . S
H2759 C2769 0.929 . S
H2760 C2764 0.929 . S
H2761 C2770 0.929 . S
C2762 H2756 0.930 . S
C2762 C2763 1.367 1_455 S
C2762 C2770 1.378 . S
C2763 C2762 1.367 1_655 S
C2763 C2771 1.433 . S
C2764 H2760 0.929 . S
C2764 C2766 1.378 . S
C2764 C2768 1.337 1_655 S
C2765 C2768 1.462 1_655 S
C2765 C2770 1.337 1_655 S
C2765 N2773 1.441 . S
C2766 H2757 0.930 . S
C2766 C2764 1.378 . S
C2766 C2767 1.367 1_655 S
C2767 C2766 1.367 1_455 S
C2767 C2769 1.433 . S
C2768 C2764 1.337 1_455 S
C2768 C2765 1.462 1_455 S
C2768 N2772 1.441 . S
C2769 H2759 0.929 . S
C2769 C2767 1.433 . S
C2769 N2772 1.384 . S
C2770 H2761 0.929 . S
C2770 C2762 1.378 . S
C2770 C2765 1.337 1_455 S
C2771 H2758 0.929 . S
C2771 C2763 1.433 . S
C2771 N2773 1.384 . S
N2772 C2768 1.441 . S
N2772 C2769 1.384 . S
N2773 C2765 1.441 . S
N2773 C2771 1.384 . S
H2774 C2780 0.930 . S
H2775 C2784 0.930 . S
H2776 C2789 0.929 . S
H2777 C2787 0.929 . S
H2778 C2782 0.929 . S
H2779 C2788 0.929 . S
C2780 H2774 0.930 . S
C2780 C2781 1.367 . S
C2780 C2788 1.378 . S
C2781 C2780 1.367 . S
C2781 C2789 1.433 . S
C2782 H2778 0.929 . S
C2782 C2784 1.378 . S
C2782 C2786 1.350 . S
C2783 C2786 1.463 . S
C2783 C2788 1.350 . S
C2783 N2791 1.427 . S
C2784 H2775 0.930 . S
C2784 C2782 1.378 . S
C2784 C2785 1.367 . S
C2785 C2784 1.367 . S
C2785 C2787 1.433 . S
C2786 C2782 1.350 . S
C2786 C2783 1.463 . S
C2786 N2790 1.427 . S
C2787 H2777 0.929 . S
C2787 C2785 1.433 . S
C2787 N2790 1.384 . S
C2788 H2779 0.929 . S
C2788 C2780 1.378 . S
C2788 C2783 1.350 . S
C2789 H2776 0.929 . S
C2789 C2781 1.433 . S
C2789 N2791 1.384 . S
N2790 C2786 1.427 . S
N2790 C2787 1.384 . S
N2791 C2783 1.427 . S
N2791 C2789 1.384 . S
H2792 C2798 0.930 . S
H2793 C2802 0.930 . S
H2794 C2807 0.929 . S
H2795 C2805 0.929 . S
H2796 C2800 0.929 . S
H2797 C2806 0.929 . S
C2798 H2792 0.930 . S
C2798 C2799 1.367 . S
C2798 C2806 1.378 . S
C2799 C2798 1.367 . S
C2799 C2807 1.433 . S
C2800 H2796 0.929 . S
C2800 C2802 1.378 . S
C2800 C2804 1.350 . S
C2801 C2804 1.463 1_556 S
C2801 C2806 1.350 . S
C2801 N2809 1.427 . S
C2802 H2793 0.930 . S
C2802 C2800 1.378 . S
C2802 C2803 1.367 . S
C2803 C2802 1.367 . S
C2803 C2805 1.433 . S
C2804 C2800 1.350 . S
C2804 C2801 1.463 1_554 S
C2804 N2808 1.427 . S
C2805 H2795 0.929 . S
C2805 C2803 1.433 . S
C2805 N2808 1.384 . S
C2806 H2797 0.929 . S
C2806 C2798 1.378 . S
C2806 C2801 1.350 . S
C2807 H2794 0.929 . S
C2807 C2799 1.433 . S
C2807 N2809 1.384 . S
N2808 C2804 1.427 . S
N2808 C2805 1.384 . S
N2809 C2801 1.427 . S
N2809 C2807 1.384 . S
H2810 C2816 0.930 . S
H2811 C2820 0.930 . S
H2812 C2825 0.929 . S
H2813 C2823 0.929 . S
H2814 C2818 0.929 . S
H2815 C2824 0.929 . S
C2816 H2810 0.930 . S
C2816 C2817 1.367 1_455 S
C2816 C2824 1.378 . S
C2817 C2816 1.367 1_655 S
C2817 C2825 1.433 . S
C2818 H2814 0.929 . S
C2818 C2820 1.378 . S
C2818 C2822 1.350 1_655 S
C2819 C2822 1.463 1_655 S
C2819 C2824 1.350 1_655 S
C2819 N2827 1.427 . S
C2820 H2811 0.930 . S
C2820 C2818 1.378 . S
C2820 C2821 1.367 1_655 S
C2821 C2820 1.367 1_455 S
C2821 C2823 1.433 . S
C2822 C2818 1.350 1_455 S
C2822 C2819 1.463 1_455 S
C2822 N2826 1.427 . S
C2823 H2813 0.929 . S
C2823 C2821 1.433 . S
C2823 N2826 1.384 . S
C2824 H2815 0.929 . S
C2824 C2816 1.378 . S
C2824 C2819 1.350 1_455 S
C2825 H2812 0.929 . S
C2825 C2817 1.433 . S
C2825 N2827 1.384 . S
N2826 C2822 1.427 . S
N2826 C2823 1.384 . S
N2827 C2819 1.427 . S
N2827 C2825 1.384 . S
H2828 C2834 0.930 . S
H2829 C2838 0.930 . S
H2830 C2843 0.929 . S
H2831 C2841 0.929 . S
H2832 C2836 0.929 . S
H2833 C2842 0.929 . S
C2834 H2828 0.930 . S
C2834 C2835 1.367 . S
C2834 C2842 1.378 . S
C2835 C2834 1.367 . S
C2835 C2843 1.433 . S
C2836 H2832 0.929 . S
C2836 C2838 1.378 . S
C2836 C2840 1.350 . S
C2837 C2840 1.463 . S
C2837 C2842 1.350 . S
C2837 N2845 1.427 . S
C2838 H2829 0.930 . S
C2838 C2836 1.378 . S
C2838 C2839 1.367 . S
C2839 C2838 1.367 . S
C2839 C2841 1.433 . S
C2840 C2836 1.350 . S
C2840 C2837 1.463 . S
C2840 N2844 1.427 . S
C2841 H2831 0.929 . S
C2841 C2839 1.433 . S
C2841 N2844 1.384 . S
C2842 H2833 0.929 . S
C2842 C2834 1.378 . S
C2842 C2837 1.350 . S
C2843 H2830 0.929 . S
C2843 C2835 1.433 . S
C2843 N2845 1.384 . S
N2844 C2840 1.427 . S
N2844 C2841 1.384 . S
N2845 C2837 1.427 . S
N2845 C2843 1.384 . S
H2846 C2852 0.930 . S
H2847 C2856 0.930 . S
H2848 C2861 0.929 . S
H2849 C2859 0.929 . S
H2850 C2854 0.929 . S
H2851 C2860 0.929 . S
C2852 H2846 0.930 . S
C2852 C2853 1.367 1_655 S
C2852 C2860 1.378 . S
C2853 C2852 1.367 1_455 S
C2853 C2861 1.433 1_565 S
C2854 H2850 0.929 . S
C2854 C2856 1.378 . S
C2854 C2858 1.337 1_455 S
C2855 C2858 1.462 1_465 S
C2855 C2860 1.337 1_455 S
C2855 N2863 1.442 1_565 S
C2856 H2847 0.930 . S
C2856 C2854 1.378 . S
C2856 C2857 1.367 1_455 S
C2857 C2856 1.367 1_655 S
C2857 C2859 1.433 1_545 S
C2858 C2854 1.337 1_655 S
C2858 C2855 1.462 1_645 S
C2858 N2862 1.442 1_545 S
C2859 H2849 0.929 . S
C2859 C2857 1.433 1_565 S
C2859 N2862 1.384 . S
C2860 H2851 0.929 . S
C2860 C2852 1.378 . S
C2860 C2855 1.337 1_655 S
C2861 H2848 0.929 . S
C2861 C2853 1.433 1_545 S
C2861 N2863 1.384 . S
N2862 C2858 1.442 1_565 S
N2862 C2859 1.384 . S
N2863 C2855 1.442 1_545 S
N2863 C2861 1.384 . S
H2864 C2870 0.930 . S
H2865 C2874 0.930 . S
H2866 C2879 0.929 . S
H2867 C2877 0.929 . S
H2868 C2872 0.929 . S
H2869 C2878 0.929 . S
C2870 H2864 0.930 . S
C2870 C2871 1.367 . S
C2870 C2878 1.378 . S
C2871 C2870 1.367 . S
C2871 C2879 1.433 . S
C2872 H2868 0.929 . S
C2872 C2874 1.378 . S
C2872 C2876 1.350 . S
C2873 C2876 1.463 . S
C2873 C2878 1.350 . S
C2873 N2881 1.427 . S
C2874 H2865 0.930 . S
C2874 C2872 1.378 . S
C2874 C2875 1.367 . S
C2875 C2874 1.367 . S
C2875 C2877 1.433 . S
C2876 C2872 1.350 . S
C2876 C2873 1.463 . S
C2876 N2880 1.427 . S
C2877 H2867 0.929 . S
C2877 C2875 1.433 . S
C2877 N2880 1.384 . S
C2878 H2869 0.929 . S
C2878 C2870 1.378 . S
C2878 C2873 1.350 . S
C2879 H2866 0.929 . S
C2879 C2871 1.433 . S
C2879 N2881 1.384 . S
N2880 C2876 1.427 . S
N2880 C2877 1.384 . S
N2881 C2873 1.427 . S
N2881 C2879 1.384 . S
H2882 C2888 0.930 . S
H2883 C2892 0.930 . S
H2884 C2897 0.929 . S
H2885 C2895 0.929 . S
H2886 C2890 0.929 . S
H2887 C2896 0.929 . S
C2888 H2882 0.930 . S
C2888 C2889 1.367 1_565 S
C2888 C2896 1.378 . S
C2889 C2888 1.367 1_545 S
C2889 C2897 1.433 . S
C2890 H2886 0.929 . S
C2890 C2892 1.378 . S
C2890 C2894 1.354 1_545 S
C2891 C2894 1.463 1_545 S
C2891 C2896 1.354 1_545 S
C2891 N2899 1.423 . S
C2892 H2883 0.930 . S
C2892 C2890 1.378 . S
C2892 C2893 1.367 1_545 S
C2893 C2892 1.367 1_565 S
C2893 C2895 1.433 . S
C2894 C2890 1.354 1_565 S
C2894 C2891 1.463 1_565 S
C2894 N2898 1.423 . S
C2895 H2885 0.929 . S
C2895 C2893 1.433 . S
C2895 N2898 1.384 . S
C2896 H2887 0.929 . S
C2896 C2888 1.378 . S
C2896 C2891 1.354 1_565 S
C2897 H2884 0.929 . S
C2897 C2889 1.433 . S
C2897 N2899 1.384 . S
N2898 C2894 1.423 . S
N2898 C2895 1.384 . S
N2899 C2891 1.423 . S
N2899 C2897 1.384 . S
H2900 C2906 0.930 . S
H2901 C2910 0.930 . S
H2902 C2915 0.929 . S
H2903 C2913 0.929 . S
H2904 C2908 0.929 . S
H2905 C2914 0.929 . S
C2906 H2900 0.930 . S
C2906 C2907 1.367 . S
C2906 C2914 1.378 . S
C2907 C2906 1.367 . S
C2907 C2915 1.433 . S
C2908 H2904 0.929 . S
C2908 C2910 1.378 . S
C2908 C2912 1.350 . S
C2909 C2912 1.463 . S
C2909 C2914 1.350 . S
C2909 N2917 1.427 . S
C2910 H2901 0.930 . S
C2910 C2908 1.378 . S
C2910 C2911 1.367 . S
C2911 C2910 1.367 . S
C2911 C2913 1.433 . S
C2912 C2908 1.350 . S
C2912 C2909 1.463 . S
C2912 N2916 1.427 . S
C2913 H2903 0.929 . S
C2913 C2911 1.433 . S
C2913 N2916 1.384 . S
C2914 H2905 0.929 . S
C2914 C2906 1.378 . S
C2914 C2909 1.350 . S
C2915 H2902 0.929 . S
C2915 C2907 1.433 . S
C2915 N2917 1.384 . S
N2916 C2912 1.427 . S
N2916 C2913 1.384 . S
N2917 C2909 1.427 . S
N2917 C2915 1.384 . S
H2918 C2924 0.930 . S
H2919 C2928 0.930 . S
H2920 C2933 0.929 . S
H2921 C2931 0.929 . S
H2922 C2926 0.929 . S
H2923 C2932 0.929 . S
C2924 H2918 0.930 . S
C2924 C2925 1.367 . S
C2924 C2932 1.378 . S
C2925 C2924 1.367 . S
C2925 C2933 1.433 1_565 S
C2926 H2922 0.929 . S
C2926 C2928 1.378 . S
C2926 C2930 1.350 . S
C2927 C2930 1.463 1_565 S
C2927 C2932 1.350 . S
C2927 N2935 1.427 1_565 S
C2928 H2919 0.930 . S
C2928 C2926 1.378 . S
C2928 C2929 1.367 . S
C2929 C2928 1.367 . S
C2929 C2931 1.433 1_545 S
C2930 C2926 1.350 . S
C2930 C2927 1.463 1_545 S
C2930 N2934 1.427 1_545 S
C2931 H2921 0.929 . S
C2931 C2929 1.433 1_565 S
C2931 N2934 1.384 . S
C2932 H2923 0.929 . S
C2932 C2924 1.378 . S
C2932 C2927 1.350 . S
C2933 H2920 0.929 . S
C2933 C2925 1.433 1_545 S
C2933 N2935 1.384 . S
N2934 C2930 1.427 1_565 S
N2934 C2931 1.384 . S
N2935 C2927 1.427 1_545 S
N2935 C2933 1.384 . S
H2936 C2942 0.930 . S
H2937 C2946 0.930 . S
H2938 C2951 0.929 . S
H2939 C2949 0.929 . S
H2940 C2944 0.929 . S
H2941 C2950 0.929 . S
C2942 H2936 0.930 . S
C2942 C2943 1.367 . S
C2942 C2950 1.378 . S
C2943 C2942 1.367 . S
C2943 C2951 1.433 . S
C2944 H2940 0.929 . S
C2944 C2946 1.378 . S
C2944 C2948 1.350 . S
C2945 C2948 1.463 . S
C2945 C2950 1.350 . S
C2945 N2953 1.427 . S
C2946 H2937 0.930 . S
C2946 C2944 1.378 . S
C2946 C2947 1.367 . S
C2947 C2946 1.367 . S
C2947 C2949 1.433 . S
C2948 C2944 1.350 . S
C2948 C2945 1.463 . S
C2948 N2952 1.427 . S
C2949 H2939 0.929 . S
C2949 C2947 1.433 . S
C2949 N2952 1.384 . S
C2950 H2941 0.929 . S
C2950 C2942 1.378 . S
C2950 C2945 1.350 . S
C2951 H2938 0.929 . S
C2951 C2943 1.433 . S
C2951 N2953 1.384 . S
N2952 C2948 1.427 . S
N2952 C2949 1.384 . S
N2953 C2945 1.427 . S
N2953 C2951 1.384 . S
H2954 C2960 0.930 . S
H2955 C2964 0.930 . S
H2956 C2969 0.929 . S
H2957 C2967 0.929 . S
H2958 C2962 0.929 . S
H2959 C2968 0.929 . S
C2960 H2954 0.930 . S
C2960 C2961 1.367 . S
C2960 C2968 1.378 . S
C2961 C2960 1.367 . S
C2961 C2969 1.433 . S
C2962 H2958 0.929 . S
C2962 C2964 1.378 . S
C2962 C2966 1.350 . S
C2963 C2966 1.463 . S
C2963 C2968 1.350 . S
C2963 N2971 1.427 . S
C2964 H2955 0.930 . S
C2964 C2962 1.378 . S
C2964 C2965 1.367 . S
C2965 C2964 1.367 . S
C2965 C2967 1.433 . S
C2966 C2962 1.350 . S
C2966 C2963 1.463 . S
C2966 N2970 1.427 . S
C2967 H2957 0.929 . S
C2967 C2965 1.433 . S
C2967 N2970 1.384 . S
C2968 H2959 0.929 . S
C2968 C2960 1.378 . S
C2968 C2963 1.350 . S
C2969 H2956 0.929 . S
C2969 C2961 1.433 . S
C2969 N2971 1.384 . S
N2970 C2966 1.427 . S
N2970 C2967 1.384 . S
N2971 C2963 1.427 . S
N2971 C2969 1.384 . S
H2972 C2978 0.930 . S
H2973 C2982 0.930 . S
H2974 C2987 0.929 . S
H2975 C2985 0.929 . S
H2976 C2980 0.929 . S
H2977 C2986 0.929 . S
C2978 H2972 0.930 . S
C2978 C2979 1.367 . S
C2978 C2986 1.378 . S
C2979 C2978 1.367 . S
C2979 C2987 1.433 . S
C2980 H2976 0.929 . S
C2980 C2982 1.378 . S
C2980 C2984 1.350 . S
C2981 C2984 1.463 . S
C2981 C2986 1.350 . S
C2981 N2989 1.427 . S
C2982 H2973 0.930 . S
C2982 C2980 1.378 . S
C2982 C2983 1.367 . S
C2983 C2982 1.367 . S
C2983 C2985 1.433 . S
C2984 C2980 1.350 . S
C2984 C2981 1.463 . S
C2984 N2988 1.427 . S
C2985 H2975 0.929 . S
C2985 C2983 1.433 . S
C2985 N2988 1.384 . S
C2986 H2977 0.929 . S
C2986 C2978 1.378 . S
C2986 C2981 1.350 . S
C2987 H2974 0.929 . S
C2987 C2979 1.433 . S
C2987 N2989 1.384 . S
N2988 C2984 1.427 . S
N2988 C2985 1.384 . S
N2989 C2981 1.427 . S
N2989 C2987 1.384 . S
H2990 C2996 0.930 . S
H2991 C3000 0.930 . S
H2992 C3005 0.929 . S
H2993 C3003 0.929 . S
H2994 C2998 0.929 . S
H2995 C3004 0.929 . S
C2996 H2990 0.930 . S
C2996 C2997 1.367 1_545 S
C2996 C3004 1.378 . S
C2997 C2996 1.367 1_565 S
C2997 C3005 1.433 . S
C2998 H2994 0.929 . S
C2998 C3000 1.378 . S
C2998 C3002 1.350 1_565 S
C2999 C3002 1.462 1_564 S
C2999 C3004 1.350 1_565 S
C2999 N3007 1.428 . S
C3000 H2991 0.930 . S
C3000 C2998 1.378 . S
C3000 C3001 1.367 1_565 S
C3001 C3000 1.367 1_545 S
C3001 C3003 1.433 . S
C3002 C2998 1.350 1_545 S
C3002 C2999 1.462 1_546 S
C3002 N3006 1.428 . S
C3003 H2993 0.929 . S
C3003 C3001 1.433 . S
C3003 N3006 1.384 . S
C3004 H2995 0.929 . S
C3004 C2996 1.378 . S
C3004 C2999 1.350 1_545 S
C3005 H2992 0.929 . S
C3005 C2997 1.433 . S
C3005 N3007 1.384 . S
N3006 C3002 1.428 . S
N3006 C3003 1.384 . S
N3007 C2999 1.428 . S
N3007 C3005 1.384 . S
C1287 C19 1.537 . S
C1291 C1019 1.536 . S
C1305 C979 1.538 . S
C1309 C59 1.535 . S
C1323 C1099 1.534 . S
C1327 C99 1.539 . S
C1341 C139 1.539 . S
C1345 C1059 1.534 . S
C1359 C169 1.538 . S
C1363 C1169 1.535 . S
C1377 C209 1.536 . S
C1381 C1129 1.537 . S
C1395 C249 1.536 . S
C1399 C1249 1.536 . S
C1413 C1209 1.534 . S
C1417 C289 1.538 . S
C1431 C339 1.539 . S
C1435 C699 1.534 . S
C1449 C379 1.534 . S
C1453 C659 1.539 . S
C1467 C419 1.535 . S
C1471 C779 1.537 . S
C1485 C739 1.536 . S
C1489 C459 1.537 . S
C1503 C489 1.534 . S
C1507 C849 1.539 . S
C1521 C529 1.536 . S
C1525 C809 1.536 . S
C1539 C929 1.535 . S
C1543 C569 1.538 . S
C1557 C609 1.535 . S
C1561 C889 1.538 . S
C1575 C18 1.596 . S
C1579 C138 1.586 . S
C1593 C58 1.596 . S
C1597 C98 1.586 . S
C1611 C288 1.587 . S
C1615 C168 1.593 . S
C1629 C248 1.587 . S
C1633 C208 1.596 . S
C1647 C338 1.596 . S
C1651 C458 1.587 . S
C1665 C378 1.596 . S
C1669 C418 1.588 . S
C1683 C488 1.593 . S
C1687 C608 1.587 . S
C1701 C568 1.590 . S
C1705 C528 1.589 . S
C1719 C658 1.595 . S
C1723 C778 1.589 . S
C1737 C698 1.586 . S
C1741 C738 1.595 . S
C1755 C928 1.588 . S
C1759 C808 1.596 . S
C1773 C848 1.593 . S
C1777 C888 1.587 . S
C1791 C1098 1.586 . S
C1795 C978 1.595 . S
C1809 C1018 1.586 . S
C1813 C1058 1.595 . S
C1827 C1248 1.586 . S
C1831 C1128 1.596 . S
C1845 C1208 1.587 . S
C1849 C1168 1.593 . S
C1863 C49 1.631 . S
C1867 C9 1.627 . S
C1881 C89 1.633 . S
C1885 C129 1.632 . S
C1899 C219 1.629 . S
C1903 C179 1.632 . S
C1917 C299 1.630 . S
C1921 C259 1.633 . S
C1935 C329 1.632 . S
C1939 C369 1.629 . S
C1953 C409 1.621 . S
C1957 C449 1.622 . S
C1971 C539 1.622 . S
C1975 C499 1.621 . S
C1989 C579 1.626 . S
C1993 C619 1.622 . S
C2007 C649 1.621 . S
C2011 C689 1.623 . S
C2025 C769 1.632 . S
C2029 C729 1.628 . S
C2043 C819 1.627 . S
C2047 C859 1.623 . S
C2061 C899 1.624 . S
C2065 C939 1.621 . S
C2079 C969 1.633 . S
C2083 C1009 1.633 . S
C2097 C1049 1.633 . S
C2101 C1089 1.631 . S
C2115 C1179 1.623 . S
C2119 C1139 1.628 . S
C2133 C1219 1.633 . S
C2137 C1259 1.631 . S
C2151 C15 1.580 . S
C2155 C5 1.580 . S
C2169 C55 1.579 . S
C2173 C45 1.579 . S
C2187 C95 1.579 . S
C2191 C85 1.579 . S
C2205 C125 1.578 . S
C2209 C135 1.578 . S
C2223 C175 1.580 . S
C2227 C165 1.580 . S
C2241 C205 1.578 . S
C2245 C215 1.578 . S
C2259 C255 1.581 . S
C2263 C245 1.581 . S
C2277 C295 1.578 . S
C2281 C285 1.578 . S
C2295 C325 1.582 . S
C2299 C335 1.582 . S
C2313 C375 1.578 . S
C2317 C365 1.578 . S
C2331 C415 1.578 . S
C2335 C405 1.578 . S
C2349 C445 1.583 . S
C2353 C455 1.580 . S
C2367 C495 1.581 . S
C2371 C485 1.579 . S
C2385 C525 1.583 . S
C2389 C535 1.583 . S
C2403 C565 1.581 . S
C2407 C575 1.581 . S
C2421 C615 1.581 . S
C2425 C605 1.578 . S
C2439 C655 1.578 . S
C2443 C645 1.578 . S
C2457 C685 1.584 . S
C2461 C695 1.584 . S
C2475 C725 1.580 . S
C2479 C735 1.580 . S
C2493 C775 1.578 . S
C2497 C765 1.578 . S
C2511 C805 1.584 . S
C2515 C815 1.584 . S
C2529 C845 1.578 . S
C2533 C855 1.578 . S
C2547 C895 1.579 . S
C2551 C885 1.579 . S
C2565 C925 1.579 . S
C2569 C935 1.579 . S
C2583 C965 1.583 . S
C2587 C975 1.583 . S
C2601 C1015 1.579 . S
C2605 C1005 1.579 . S
C2619 C1045 1.580 . S
C2623 C1055 1.580 . S
C2637 C1085 1.582 . S
C2641 C1095 1.582 . S
C2655 C1125 1.578 . S
C2659 C1135 1.580 . S
C2673 C1165 1.580 . S
C2677 C1175 1.580 . S
C2691 C1215 1.578 . S
C2695 C1205 1.578 . S
C2709 C1255 1.584 . S
C2713 C1245 1.584 . S
C2727 C8 1.466 . S
C2731 C178 1.466 . S
C2745 C1178 1.480 . S
C2749 C48 1.480 . S
C2763 C578 1.477 . S
C2767 C88 1.477 . S
C2781 C128 1.474 . S
C2785 C938 1.474 . S
C2799 C218 1.466 . S
C2803 C1008 1.466 . S
C2817 C258 1.481 . S
C2821 C408 1.481 . S
C2835 C298 1.466 . S
C2839 C768 1.466 . S
C2853 C328 1.477 . S
C2857 C498 1.477 . S
C2871 C858 1.482 . S
C2875 C368 1.482 . S
C2889 C1258 1.476 . S
C2893 C448 1.476 . S
C2907 C538 1.466 . S
C2911 C688 1.466 . S
C2925 C1088 1.475 . S
C2929 C618 1.475 . S
C2943 C648 1.466 . S
C2947 C818 1.466 . S
C2961 C1218 1.476 . S
C2965 C728 1.476 . S
C2979 C898 1.469 . S
C2983 C1048 1.469 . S
C2997 C968 1.474 . S
C3001 C1138 1.474 . S
