# Generated by pormake.
# Topology uom, (4)-cn, num edge types: 1
# Building blocks:
#     Node 0, Type 0, BuildingBlock: KOZSID_clean_sbu_0, # of connection points: 4
#     Node 1, Type 0, BuildingBlock: KOZSID_clean_sbu_0, # of connection points: 4
#     Node 2, Type 0, BuildingBlock: KOZSID_clean_sbu_0, # of connection points: 4
#     Node 3, Type 0, BuildingBlock: KOZSID_clean_sbu_0, # of connection points: 4
#     Node 4, Type 0, BuildingBlock: KOZSID_clean_sbu_0, # of connection points: 4
#     Node 5, Type 0, BuildingBlock: KOZSID_clean_sbu_0, # of connection points: 4
#     Edge 6, Type (0, 0), None
#     Edge 7, Type (0, 0), None
#     Edge 8, Type (0, 0), None
#     Edge 9, Type (0, 0), None
#     Edge 10, Type (0, 0), None
#     Edge 11, Type (0, 0), None
#     Edge 12, Type (0, 0), None
#     Edge 13, Type (0, 0), None
#     Edge 14, Type (0, 0), None
#     Edge 15, Type (0, 0), None
#     Edge 16, Type (0, 0), None
#     Edge 17, Type (0, 0), None
# Relax obj value: 0.173
# Max RMSD: 0.180
# Mean RMSD: 0.180
data_MOF--net-uom--node1-KOZSID_clean_sbu_0--edge1-none
_symmetry_space_group_name_H-M    P1
_symmetry_Int_Tables_number       1
_symmetry_cell_setting            triclinic
loop_
_symmetry_equiv_pos_as_xyz
'x, y, z'
_cell_length_a     21.880257
_cell_length_b     21.89431
_cell_length_c     19.409972
_cell_angle_alpha  90.000092
_cell_angle_beta   90.000796
_cell_angle_gamma 120.06369
loop_
_atom_site_label
_atom_site_type_symbol
_atom_site_fract_x
_atom_site_fract_y
_atom_site_fract_z
_atom_type_partial_charge
C0 C 0.36404 0.14408 0.19895 0.0
C1 C 0.34568 0.10965 0.26228 0.0
C2 C 0.33524 0.04299 0.25183 0.0
C3 C 0.34523 0.03872 0.18256 0.0
N4 N 0.36054 0.09841 0.14888 0.0
Co5 Co 0.36653 0.10884 0.04687 0.0
N6 N 0.31511 1.00569 0.03023 0.0
C7 C 0.31136 0.95781 0.0759 0.0
C8 C 0.27841 0.89064 0.04941 0.0
C9 C 0.26023 0.89695 0.98309 0.0
C10 C 0.28097 0.96767 0.97302 0.0
N11 N 0.37083 0.11929 0.94486 0.0
C12 C 0.3287 0.0735 0.89479 0.0
C13 C 0.34468 0.10793 0.83146 0.0
C14 C 0.40085 0.17472 0.84191 0.0
C15 C 0.41518 0.17905 0.91117 0.0
N16 N 0.41826 0.21198 0.06354 0.0
C17 C 0.46229 0.25998 0.01784 0.0
C18 C 0.49629 0.32718 0.04429 0.0
C19 C 0.47174 0.32075 0.11061 0.0
C20 C 0.42195 0.24993 0.12071 0.0
N21 N 0.45665 0.10894 0.04678 0.0
C22 C 0.58497 0.10848 0.04687 0.0
C23 C 0.53555 0.07542 0.99405 0.0
C24 C 0.47146 0.07539 0.99542 0.0
C25 C 0.56897 0.14185 0.09961 0.0
C26 C 0.50513 0.14235 0.09813 0.0
N27 N 0.27836 0.10869 0.04696 0.0
C28 C 0.21077 0.16222 0.01354 0.0
C29 C 0.15215 0.10842 0.04705 0.0
C30 C 0.15711 0.05477 0.08053 0.0
C31 C 0.22126 0.0563 0.0805 0.0
C32 C 0.27352 0.16096 0.01347 0.0
H33 H 0.22471 0.01518 0.10754 0.0
H34 H 0.31808 0.20217 0.98639 0.0
H35 H 0.43379 0.04799 0.95486 0.0
H36 H 0.49507 0.16988 0.13868 0.0
C37 C 0.32651 0.97634 0.14577 0.0
C38 C 0.38478 0.21976 0.18728 0.0
C39 C 0.27389 0.99771 0.90644 0.0
C40 C 0.45884 0.24149 0.94796 0.0
H41 H 0.33908 0.1296 0.31098 0.0
H42 H 0.31779 1.00118 0.28961 0.0
H43 H 0.26653 0.84239 0.07582 0.0
H44 H 0.23429 0.85422 0.94646 0.0
H45 H 0.31813 0.08787 0.78276 0.0
H46 H 0.42516 0.21655 0.80412 0.0
H47 H 0.53249 0.37551 0.01783 0.0
H48 H 0.48833 0.36348 0.1472 0.0
H49 H 0.54589 0.04875 0.95254 0.0
H50 H 0.60607 0.16836 0.14114 0.0
H51 H 0.20772 0.20416 0.98698 0.0
H52 H 0.11212 0.01271 0.10711 0.0
C53 C 0.32836 0.35348 0.53221 0.0
C54 C 0.34447 0.33521 0.59554 0.0
C55 C 0.40076 0.32486 0.5851 0.0
C56 C 0.41502 0.33481 0.51583 0.0
N57 N 0.37055 0.35 0.48213 0.0
Co58 Co 0.36609 0.35592 0.38012 0.0
N59 N 0.41793 0.30467 0.3635 0.0
C60 C 0.46212 0.30101 0.40919 0.0
C61 C 0.49637 0.26812 0.38274 0.0
C62 C 0.47184 0.24988 0.31642 0.0
C63 C 0.42181 0.27054 0.30633 0.0
N64 N 0.35992 0.36016 0.2781 0.0
C65 C 0.36359 0.31808 0.22804 0.0
C66 C 0.34513 0.33399 0.16471 0.0
C67 C 0.33447 0.39006 0.17512 0.0
C68 C 0.34446 0.40441 0.24437 0.0
N69 N 0.31455 0.40748 0.39674 0.0
C70 C 0.31058 0.45143 0.35101 0.0
C71 C 0.27739 0.4854 0.37745 0.0
C72 C 0.25928 0.46092 0.44379 0.0
C73 C 0.28032 0.4112 0.45392 0.0
N74 N 0.45613 0.44602 0.38 0.0
C75 C 0.58485 0.5744 0.38002 0.0
C76 C 0.56861 0.525 0.32726 0.0
C77 C 0.50456 0.46088 0.32866 0.0
C78 C 0.53542 0.55836 0.43274 0.0
C79 C 0.4711 0.49447 0.43131 0.0
N80 N 0.27804 0.26777 0.38023 0.0
C81 C 0.15682 0.20006 0.34675 0.0
C82 C 0.15207 0.14158 0.38032 0.0
C83 C 0.21074 0.14665 0.41386 0.0
C84 C 0.27338 0.2108 0.41383 0.0
C85 C 0.22087 0.26282 0.34669 0.0
H86 H 0.31801 0.21436 0.44091 0.0
H87 H 0.22419 0.3073 0.31957 0.0
H88 H 0.49434 0.42321 0.28814 0.0
H89 H 0.43343 0.48435 0.47183 0.0
C90 C 0.45874 0.31616 0.47905 0.0
C91 C 0.27335 0.37414 0.52053 0.0
C92 C 0.38467 0.26342 0.23972 0.0
C93 C 0.32564 0.44798 0.28114 0.0
H94 H 0.31791 0.32864 0.64425 0.0
H95 H 0.42517 0.3075 0.6229 0.0
H96 H 0.53278 0.25631 0.40917 0.0
H97 H 0.48865 0.22398 0.27981 0.0
H98 H 0.33865 0.30745 0.11601 0.0
H99 H 0.31692 0.41429 0.13731 0.0
H100 H 0.26526 0.52155 0.35098 0.0
H101 H 0.23318 0.47752 0.48038 0.0
H102 H 0.6057 0.53541 0.28578 0.0
H103 H 0.54596 0.59545 0.47423 0.0
H104 H 0.11176 0.19689 0.32015 0.0
H105 H 0.20782 0.10174 0.44049 0.0
C106 C 0.08333 0.31782 0.86556 0.0
C107 C 0.11781 0.33396 0.92886 0.0
C108 C 0.18453 0.39027 0.91837 0.0
C109 C 0.18878 0.4045 0.8491 0.0
N110 N 0.12901 0.36002 0.81545 0.0
Co111 Co 0.11852 0.35551 0.71345 0.0
N112 N 0.22172 0.4074 0.69675 0.0
C113 C 0.26968 0.45161 0.74239 0.0
C114 C 0.33689 0.48586 0.71588 0.0
C115 C 0.33052 0.46131 0.64958 0.0
C116 C 0.25972 0.41127 0.63955 0.0
N117 N 0.108 0.34928 0.61145 0.0
C118 C 0.15376 0.35295 0.56136 0.0
C119 C 0.11928 0.33442 0.49806 0.0
C120 C 0.05248 0.32371 0.50852 0.0
C121 C 0.04819 0.33375 0.57778 0.0
N122 N 0.01532 0.30392 0.73017 0.0
C123 C 0.96728 0.29987 0.68449 0.0
C124 C 0.90007 0.26662 0.71098 0.0
C125 C 0.90651 0.24856 0.77731 0.0
C126 C 0.97737 0.26968 0.78737 0.0
N127 N 0.11846 0.44555 0.71334 0.0
C128 C 0.11881 0.57427 0.71336 0.0
C129 C 0.15184 0.55795 0.66052 0.0
C130 C 0.15193 0.49394 0.66193 0.0
C131 C 0.08554 0.52487 0.76616 0.0
C132 C 0.08509 0.46059 0.76472 0.0
N133 N 0.11861 0.26746 0.71356 0.0
C134 C 0.06497 0.14621 0.68022 0.0
C135 C 0.11883 0.1415 0.71366 0.0
C136 C 0.17257 0.20026 0.74706 0.0
C137 C 0.17106 0.26286 0.74705 0.0
C138 C 0.06626 0.21022 0.68015 0.0
H139 H 0.21224 0.30752 0.77405 0.0
H140 H 0.02499 0.21346 0.65311 0.0
H141 H 0.17931 0.48372 0.62134 0.0
H142 H 0.05761 0.42298 0.80531 0.0
C143 C 0.2512 0.44823 0.81227 0.0
C144 C 1.00757 0.26277 0.85393 0.0
C145 C 0.22959 0.37407 0.57299 0.0
C146 C 0.98575 0.31489 0.6146 0.0
H147 H 0.09787 0.30742 0.97758 0.0
H148 H 0.2264 0.41471 0.95613 0.0
H149 H 0.3852 0.52228 0.74228 0.0
H150 H 0.37325 0.4781 0.61294 0.0
H151 H 0.1393 0.32792 0.44935 0.0
H152 H 0.0106 0.3061 0.47075 0.0
H153 H 0.8517 0.25441 0.68455 0.0
H154 H 0.86378 0.22241 0.81393 0.0
H155 H 0.17845 0.59496 0.61896 0.0
H156 H 0.05906 0.5354 0.80773 0.0
H157 H 0.02295 0.10114 0.65372 0.0
H158 H 0.21468 0.19744 0.7736 0.0
C159 C 0.8738 0.07263 0.19895 0.0
C160 C 0.89217 0.10705 0.26227 0.0
C161 C 0.90261 0.17371 0.25182 0.0
C162 C 0.89262 0.17799 0.18255 0.0
N163 N 0.8773 0.11829 0.14887 0.0
Co164 Co 0.8713 0.10785 0.04686 0.0
N165 N 0.92273 0.211 0.03021 0.0
C166 C 0.92649 0.25888 0.07588 0.0
C167 C 0.95944 0.32605 0.0494 0.0
C168 C 0.97761 0.31974 0.98307 0.0
C169 C 0.95686 0.24902 0.97301 0.0
N170 N 0.86699 0.09738 0.94485 0.0
C171 C 0.90911 0.14316 0.89477 0.0
C172 C 0.89312 0.10874 0.83145 0.0
C173 C 0.83695 0.04195 0.8419 0.0
C174 C 0.82264 0.03762 0.91116 0.0
N175 N 0.81957 1.00471 0.06354 0.0
C176 C 0.77553 0.95671 0.01784 0.0
C177 C 0.74153 0.88951 0.0443 0.0
C178 C 0.76608 0.89594 0.11062 0.0
C179 C 0.81587 0.96677 0.12071 0.0
N180 N 0.78118 0.10776 0.04677 0.0
C181 C 0.65287 0.10822 0.04687 0.0
C182 C 0.70229 0.14128 0.99405 0.0
C183 C 0.76637 0.1413 0.99541 0.0
C184 C 0.66887 0.07485 0.09961 0.0
C185 C 0.73271 0.07436 0.09813 0.0
N186 N 0.95947 0.10799 0.04695 0.0
C187 C 0.02705 0.05445 0.01354 0.0
C188 C 0.08568 0.10825 0.04705 0.0
C189 C 0.08072 0.16191 0.08052 0.0
C190 C 0.01658 0.16039 0.08049 0.0
C191 C 0.96431 0.05572 0.01347 0.0
H192 H 0.01312 0.20151 0.10753 0.0
H193 H 0.91974 0.0145 0.98639 0.0
H194 H 0.80404 0.1687 0.95485 0.0
H195 H 0.74278 0.04682 0.13868 0.0
C196 C 0.91134 0.24037 0.14575 0.0
C197 C 0.85306 0.99694 0.18728 0.0
C198 C 0.96389 0.21897 0.90641 0.0
C199 C 0.77898 0.97519 0.94796 0.0
H200 H 0.89876 0.08711 0.31097 0.0
H201 H 0.92007 0.21553 0.2896 0.0
H202 H 0.97133 0.3743 0.07581 0.0
H203 H 1.00354 0.36247 0.94643 0.0
H204 H 0.91965 0.12879 0.78274 0.0
H205 H 0.81264 1.00011 0.80412 0.0
H206 H 0.70533 0.84117 0.01784 0.0
H207 H 0.74949 0.85322 0.14721 0.0
H208 H 0.69194 0.16794 0.95253 0.0
H209 H 0.63178 0.04835 0.14114 0.0
H210 H 0.0301 0.0125 0.98699 0.0
H211 H 0.12571 0.20397 0.1071 0.0
C212 C 0.90948 0.86322 0.5322 0.0
C213 C 0.89337 0.88149 0.59554 0.0
C214 C 0.83708 0.89184 0.5851 0.0
C215 C 0.82282 0.8819 0.51583 0.0
N216 N 0.86728 0.8667 0.48213 0.0
Co217 Co 0.87175 0.86078 0.38011 0.0
N218 N 0.81991 0.91204 0.3635 0.0
C219 C 0.77572 0.9157 0.40919 0.0
C220 C 0.74147 0.94859 0.38274 0.0
C221 C 0.766 0.96682 0.31642 0.0
C222 C 0.81603 0.94616 0.30633 0.0
N223 N 0.87792 0.85654 0.2781 0.0
C224 C 0.87424 0.89862 0.22804 0.0
C225 C 0.8927 0.88271 0.1647 0.0
C226 C 0.90336 0.82664 0.17511 0.0
C227 C 0.89337 0.81229 0.24437 0.0
N228 N 0.92328 0.80922 0.39674 0.0
C229 C 0.92725 0.76526 0.35101 0.0
C230 C 0.96044 0.7313 0.37745 0.0
C231 C 0.97855 0.75578 0.44379 0.0
C232 C 0.95752 0.8055 0.45392 0.0
N233 N 0.78171 0.77068 0.38 0.0
C234 C 0.65298 0.64231 0.38002 0.0
C235 C 0.66922 0.6917 0.32726 0.0
C236 C 0.73328 0.75582 0.32866 0.0
C237 C 0.70242 0.65835 0.43274 0.0
C238 C 0.76673 0.72223 0.43131 0.0
N239 N 0.9598 0.94892 0.38023 0.0
C240 C 0.08101 0.01664 0.34675 0.0
C241 C 0.08577 0.07512 0.38032 0.0
C242 C 0.0271 0.07005 0.41387 0.0
C243 C 0.96446 0.0059 0.41383 0.0
C244 C 0.01697 0.95387 0.34669 0.0
H245 H 0.91983 1.00234 0.44091 0.0
H246 H 0.01364 0.90939 0.31957 0.0
H247 H 0.7435 0.79349 0.28814 0.0
H248 H 0.8044 0.73235 0.47182 0.0
C249 C 0.7791 0.90054 0.47905 0.0
C250 C 0.96448 0.84256 0.52052 0.0
C251 C 0.85317 0.95328 0.23972 0.0
C252 C 0.91218 0.76871 0.28114 0.0
H253 H 0.91993 0.88806 0.64425 0.0
H254 H 0.81267 0.90921 0.6229 0.0
H255 H 0.70506 0.9604 0.40917 0.0
H256 H 0.74919 0.99273 0.27981 0.0
H257 H 0.89918 0.90924 0.11601 0.0
H258 H 0.9209 0.8024 0.13731 0.0
H259 H 0.97256 0.69515 0.35098 0.0
H260 H 1.00466 0.73917 0.48038 0.0
H261 H 0.63212 0.68129 0.28578 0.0
H262 H 0.69188 0.62125 0.47423 0.0
H263 H 0.12607 0.0198 0.32015 0.0
H264 H 0.03002 0.11496 0.44049 0.0
C265 C 0.15448 0.89886 0.86557 0.0
C266 C 0.11999 0.8827 0.92887 0.0
C267 C 0.05327 0.8264 0.91837 0.0
C268 C 0.04903 0.81218 0.8491 0.0
N269 N 0.1088 0.85666 0.81546 0.0
Co270 Co 0.11931 0.86118 0.71346 0.0
N271 N 0.0161 0.80929 0.69675 0.0
C272 C 0.96814 0.76508 0.74238 0.0
C273 C 0.90094 0.73082 0.71587 0.0
C274 C 0.90731 0.75538 0.64956 0.0
C275 C 0.97811 0.80542 0.63954 0.0
N276 N 0.12983 0.86741 0.61146 0.0
C277 C 0.08407 0.86374 0.56137 0.0
C278 C 0.11855 0.88227 0.49806 0.0
C279 C 0.18536 0.89298 0.50853 0.0
C280 C 0.18964 0.88295 0.57779 0.0
N281 N 0.22251 0.91277 0.73018 0.0
C282 C 0.27055 0.91684 0.6845 0.0
C283 C 0.33777 0.95009 0.711 0.0
C284 C 0.33131 0.96813 0.77733 0.0
C285 C 0.26046 0.94701 0.78739 0.0
N286 N 0.11937 0.77114 0.71334 0.0
C287 C 0.11902 0.64242 0.71336 0.0
C288 C 0.08599 0.65875 0.66052 0.0
C289 C 0.0859 0.72276 0.66193 0.0
C290 C 0.15229 0.69182 0.76617 0.0
C291 C 0.15273 0.7561 0.76473 0.0
N292 N 0.11921 0.94923 0.71357 0.0
C293 C 0.17285 0.07047 0.68023 0.0
C294 C 0.11898 0.07518 0.71366 0.0
C295 C 0.06524 0.01642 0.74706 0.0
C296 C 0.06676 0.95382 0.74705 0.0
C297 C 0.17157 0.00647 0.68016 0.0
H298 H 0.02557 0.90917 0.77404 0.0
H299 H 0.21283 1.00323 0.65313 0.0
H300 H 0.05853 0.73297 0.62134 0.0
H301 H 0.18021 0.79371 0.80532 0.0
C302 C 0.98662 0.76845 0.81226 0.0
C303 C 0.23024 0.95387 0.85396 0.0
C304 C 1.00824 0.84262 0.57299 0.0
C305 C 0.25209 0.90181 0.61461 0.0
H306 H 0.13994 0.90923 0.9776 0.0
H307 H 0.0114 0.80195 0.95613 0.0
H308 H 0.85262 0.6944 0.74225 0.0
H309 H 0.86458 0.73859 0.61292 0.0
H310 H 0.09853 0.88877 0.44936 0.0
H311 H 0.22723 0.9106 0.47077 0.0
H312 H 0.38613 0.9623 0.68457 0.0
H313 H 0.37405 0.99427 0.81396 0.0
H314 H 0.05939 0.62174 0.61896 0.0
H315 H 0.17877 0.68129 0.80773 0.0
H316 H 0.21487 0.11555 0.65373 0.0
H317 H 0.02313 0.01924 0.77359 0.0
loop_
_geom_bond_atom_site_label_1
_geom_bond_atom_site_label_2
_geom_bond_distance
_geom_bond_site_symmetry_2
_ccdc_geom_bond_type
C0 C1 1.443 . S
C0 N4 1.376 . S
C0 C38 1.389 . S
C1 C0 1.443 . S
C1 C2 1.340 . S
C1 H41 0.951 . S
C2 C1 1.340 . S
C2 C3 1.439 . S
C2 H42 0.950 . S
C3 C2 1.439 . S
C3 N4 1.374 . S
C3 C37 1.395 . S
N4 C0 1.376 . S
N4 C3 1.374 . S
N4 Co5 2.008 . S
Co5 N4 2.008 . S
Co5 N6 1.995 . S
Co5 N11 2.008 1_554 S
Co5 N16 1.995 . S
Co5 N21 2.282 . S
Co5 N27 2.282 . S
N6 Co5 1.995 . S
N6 C7 1.376 . S
N6 C10 1.383 1_554 S
C7 N6 1.376 . S
C7 C8 1.446 1_545 S
C7 C37 1.391 . S
C8 C7 1.446 1_565 S
C8 C9 1.339 1_554 S
C8 H43 0.949 . S
C9 C8 1.339 1_556 S
C9 C10 1.439 1_565 S
C9 H44 0.950 . S
C10 N6 1.383 1_556 S
C10 C9 1.439 1_545 S
C10 C39 1.392 . S
N11 Co5 2.008 1_556 S
N11 C12 1.376 . S
N11 C15 1.374 . S
C12 N11 1.376 . S
C12 C13 1.443 . S
C12 C39 1.389 . S
C13 C12 1.443 . S
C13 C14 1.340 . S
C13 H45 0.951 . S
C14 C13 1.340 . S
C14 C15 1.439 . S
C14 H46 0.950 . S
C15 N11 1.374 . S
C15 C14 1.439 . S
C15 C40 1.395 . S
N16 Co5 1.995 . S
N16 C17 1.376 . S
N16 C20 1.383 . S
C17 N16 1.376 . S
C17 C18 1.446 . S
C17 C40 1.391 1_554 S
C18 C17 1.446 . S
C18 C19 1.339 . S
C18 H47 0.949 . S
C19 C18 1.339 . S
C19 C20 1.439 . S
C19 H48 0.950 . S
C20 N16 1.383 . S
C20 C19 1.439 . S
C20 C38 1.392 . S
N21 Co5 2.282 . S
N21 C24 1.332 . S
N21 C26 1.332 . S
C22 C23 1.386 . S
C22 C25 1.388 . S
C23 C22 1.386 . S
C23 C24 1.382 . S
C23 H49 0.950 1_554 S
C24 N21 1.332 . S
C24 C23 1.382 . S
C24 H35 0.952 . S
C25 C22 1.388 . S
C25 C26 1.382 . S
C25 H50 0.950 . S
C26 N21 1.332 . S
C26 C25 1.382 . S
C26 H36 0.948 . S
N27 Co5 2.282 . S
N27 C31 1.332 . S
N27 C32 1.332 . S
C28 C29 1.388 . S
C28 C32 1.382 . S
C28 H51 0.950 . S
C29 C28 1.388 . S
C29 C30 1.386 . S
C30 C29 1.386 . S
C30 C31 1.382 . S
C30 H52 0.950 . S
C31 N27 1.332 . S
C31 C30 1.382 . S
C31 H33 0.952 . S
C32 N27 1.332 . S
C32 C28 1.382 . S
C32 H34 0.948 . S
H33 C31 0.952 . S
H34 C32 0.948 . S
H35 C24 0.952 . S
H36 C26 0.948 . S
C37 C3 1.395 . S
C37 C7 1.391 . S
C38 C0 1.389 . S
C38 C20 1.392 . S
C39 C10 1.392 . S
C39 C12 1.389 . S
C40 C15 1.395 . S
C40 C17 1.391 1_556 S
H41 C1 0.951 . S
H42 C2 0.950 . S
H43 C8 0.949 . S
H44 C9 0.950 . S
H45 C13 0.951 . S
H46 C14 0.950 . S
H47 C18 0.949 . S
H48 C19 0.950 . S
H49 C23 0.950 1_556 S
H50 C25 0.950 . S
H51 C28 0.950 . S
H52 C30 0.950 . S
C53 C54 1.443 . S
C53 N57 1.376 . S
C53 C91 1.389 . S
C54 C53 1.443 . S
C54 C55 1.340 . S
C54 H94 0.951 . S
C55 C54 1.340 . S
C55 C56 1.439 . S
C55 H95 0.950 . S
C56 C55 1.439 . S
C56 N57 1.374 . S
C56 C90 1.395 . S
N57 C53 1.376 . S
N57 C56 1.374 . S
N57 Co58 2.008 . S
Co58 N57 2.008 . S
Co58 N59 1.995 . S
Co58 N64 2.008 . S
Co58 N69 1.995 . S
Co58 N74 2.282 . S
Co58 N80 2.282 . S
N59 Co58 1.995 . S
N59 C60 1.376 . S
N59 C63 1.383 . S
C60 N59 1.376 . S
C60 C61 1.446 . S
C60 C90 1.391 . S
C61 C60 1.446 . S
C61 C62 1.339 . S
C61 H96 0.949 . S
C62 C61 1.339 . S
C62 C63 1.439 . S
C62 H97 0.950 . S
C63 N59 1.383 . S
C63 C62 1.439 . S
C63 C92 1.392 . S
N64 Co58 2.008 . S
N64 C65 1.376 . S
N64 C68 1.374 . S
C65 N64 1.376 . S
C65 C66 1.443 . S
C65 C92 1.389 . S
C66 C65 1.443 . S
C66 C67 1.340 . S
C66 H98 0.951 . S
C67 C66 1.340 . S
C67 C68 1.439 . S
C67 H99 0.950 . S
C68 N64 1.374 . S
C68 C67 1.439 . S
C68 C93 1.395 . S
N69 Co58 1.995 . S
N69 C70 1.376 . S
N69 C73 1.383 . S
C70 N69 1.376 . S
C70 C71 1.446 . S
C70 C93 1.391 . S
C71 C70 1.446 . S
C71 C72 1.339 . S
C71 H100 0.949 . S
C72 C71 1.339 . S
C72 C73 1.439 . S
C72 H101 0.950 . S
C73 N69 1.383 . S
C73 C72 1.439 . S
C73 C91 1.392 . S
N74 Co58 2.282 . S
N74 C77 1.332 . S
N74 C79 1.332 . S
C75 C76 1.386 . S
C75 C78 1.388 . S
C76 C75 1.386 . S
C76 C77 1.382 . S
C76 H102 0.950 . S
C77 N74 1.332 . S
C77 C76 1.382 . S
C77 H88 0.952 . S
C78 C75 1.388 . S
C78 C79 1.382 . S
C78 H103 0.950 . S
C79 N74 1.332 . S
C79 C78 1.382 . S
C79 H89 0.948 . S
N80 Co58 2.282 . S
N80 C84 1.332 . S
N80 C85 1.332 . S
C81 C82 1.388 . S
C81 C85 1.382 . S
C81 H104 0.950 . S
C82 C81 1.388 . S
C82 C83 1.386 . S
C83 C82 1.386 . S
C83 C84 1.382 . S
C83 H105 0.950 . S
C84 N80 1.332 . S
C84 C83 1.382 . S
C84 H86 0.952 . S
C85 N80 1.332 . S
C85 C81 1.382 . S
C85 H87 0.948 . S
H86 C84 0.952 . S
H87 C85 0.948 . S
H88 C77 0.952 . S
H89 C79 0.948 . S
C90 C56 1.395 . S
C90 C60 1.391 . S
C91 C53 1.389 . S
C91 C73 1.392 . S
C92 C63 1.392 . S
C92 C65 1.389 . S
C93 C68 1.395 . S
C93 C70 1.391 . S
H94 C54 0.951 . S
H95 C55 0.950 . S
H96 C61 0.949 . S
H97 C62 0.950 . S
H98 C66 0.951 . S
H99 C67 0.950 . S
H100 C71 0.949 . S
H101 C72 0.950 . S
H102 C76 0.950 . S
H103 C78 0.950 . S
H104 C81 0.950 . S
H105 C83 0.950 . S
C106 C107 1.443 . S
C106 N110 1.376 . S
C106 C144 1.389 1_455 S
C107 C106 1.443 . S
C107 C108 1.340 . S
C107 H147 0.951 . S
C108 C107 1.340 . S
C108 C109 1.439 . S
C108 H148 0.950 . S
C109 C108 1.439 . S
C109 N110 1.374 . S
C109 C143 1.395 . S
N110 C106 1.376 . S
N110 C109 1.374 . S
N110 Co111 2.008 . S
Co111 N110 2.008 . S
Co111 N112 1.995 . S
Co111 N117 2.008 . S
Co111 N122 1.995 1_455 S
Co111 N127 2.282 . S
Co111 N133 2.282 . S
N112 Co111 1.995 . S
N112 C113 1.376 . S
N112 C116 1.383 . S
C113 N112 1.376 . S
C113 C114 1.446 . S
C113 C143 1.391 . S
C114 C113 1.446 . S
C114 C115 1.339 . S
C114 H149 0.949 . S
C115 C114 1.339 . S
C115 C116 1.439 . S
C115 H150 0.950 . S
C116 N112 1.383 . S
C116 C115 1.439 . S
C116 C145 1.392 . S
N117 Co111 2.008 . S
N117 C118 1.376 . S
N117 C121 1.374 1_455 S
C118 N117 1.376 . S
C118 C119 1.443 . S
C118 C145 1.389 . S
C119 C118 1.443 . S
C119 C120 1.340 1_455 S
C119 H151 0.951 . S
C120 C119 1.340 1_655 S
C120 C121 1.439 . S
C120 H152 0.950 . S
C121 N117 1.374 1_655 S
C121 C120 1.439 . S
C121 C146 1.395 . S
N122 Co111 1.995 1_655 S
N122 C123 1.376 . S
N122 C126 1.383 . S
C123 N122 1.376 . S
C123 C124 1.446 . S
C123 C146 1.391 . S
C124 C123 1.446 . S
C124 C125 1.339 . S
C124 H153 0.949 . S
C125 C124 1.339 . S
C125 C126 1.439 . S
C125 H154 0.950 . S
C126 N122 1.383 . S
C126 C125 1.439 . S
C126 C144 1.392 . S
N127 Co111 2.282 . S
N127 C130 1.332 1_455 S
N127 C132 1.332 . S
C128 C129 1.386 1_455 S
C128 C131 1.388 . S
C129 C128 1.386 1_655 S
C129 C130 1.382 . S
C129 H155 0.950 . S
C130 N127 1.332 1_655 S
C130 C129 1.382 . S
C130 H141 0.952 . S
C131 C128 1.388 . S
C131 C132 1.382 . S
C131 H156 0.950 . S
C132 N127 1.332 . S
C132 C131 1.382 . S
C132 H142 0.948 . S
N133 Co111 2.282 . S
N133 C137 1.332 . S
N133 C138 1.332 1_455 S
C134 C135 1.388 1_655 S
C134 C138 1.382 . S
C134 H157 0.950 . S
C135 C134 1.388 1_455 S
C135 C136 1.386 . S
C136 C135 1.386 . S
C136 C137 1.382 . S
C136 H158 0.950 . S
C137 N133 1.332 . S
C137 C136 1.382 . S
C137 H139 0.952 . S
C138 N133 1.332 1_655 S
C138 C134 1.382 . S
C138 H140 0.948 . S
H139 C137 0.952 . S
H140 C138 0.948 . S
H141 C130 0.952 . S
H142 C132 0.948 . S
C143 C109 1.395 . S
C143 C113 1.391 . S
C144 C106 1.389 1_655 S
C144 C126 1.392 . S
C145 C116 1.392 . S
C145 C118 1.389 . S
C146 C121 1.395 . S
C146 C123 1.391 . S
H147 C107 0.951 . S
H148 C108 0.950 . S
H149 C114 0.949 . S
H150 C115 0.950 . S
H151 C119 0.951 . S
H152 C120 0.950 . S
H153 C124 0.949 . S
H154 C125 0.950 . S
H155 C129 0.950 . S
H156 C131 0.950 . S
H157 C134 0.950 . S
H158 C136 0.950 . S
C159 C160 1.443 . S
C159 N163 1.376 . S
C159 C197 1.389 1_545 S
C160 C159 1.443 . S
C160 C161 1.340 . S
C160 H200 0.951 . S
C161 C160 1.340 . S
C161 C162 1.439 . S
C161 H201 0.950 . S
C162 C161 1.439 . S
C162 N163 1.374 . S
C162 C196 1.395 . S
N163 C159 1.376 . S
N163 C162 1.374 . S
N163 Co164 2.008 . S
Co164 N163 2.008 . S
Co164 N165 1.995 . S
Co164 N170 2.008 1_554 S
Co164 N175 1.995 1_545 S
Co164 N180 2.282 . S
Co164 N186 2.282 . S
N165 Co164 1.995 . S
N165 C166 1.376 . S
N165 C169 1.383 1_554 S
C166 N165 1.376 . S
C166 C167 1.446 . S
C166 C196 1.391 . S
C167 C166 1.446 . S
C167 C168 1.339 1_554 S
C167 H202 0.949 . S
C168 C167 1.339 1_556 S
C168 C169 1.439 . S
C168 H203 0.950 . S
C169 N165 1.383 1_556 S
C169 C168 1.439 . S
C169 C198 1.392 . S
N170 Co164 2.008 1_556 S
N170 C171 1.376 . S
N170 C174 1.374 1_545 S
C171 N170 1.376 . S
C171 C172 1.443 . S
C171 C198 1.389 . S
C172 C171 1.443 . S
C172 C173 1.340 1_545 S
C172 H204 0.951 . S
C173 C172 1.340 1_565 S
C173 C174 1.439 . S
C173 H205 0.950 . S
C174 N170 1.374 1_565 S
C174 C173 1.439 . S
C174 C199 1.395 . S
N175 Co164 1.995 1_565 S
N175 C176 1.376 . S
N175 C179 1.383 . S
C176 N175 1.376 . S
C176 C177 1.446 . S
C176 C199 1.391 1_554 S
C177 C176 1.446 . S
C177 C178 1.339 . S
C177 H206 0.949 . S
C178 C177 1.339 . S
C178 C179 1.439 . S
C178 H207 0.950 . S
C179 N175 1.383 . S
C179 C178 1.439 . S
C179 C197 1.392 . S
N180 Co164 2.282 . S
N180 C183 1.332 1_545 S
N180 C185 1.332 . S
C181 C182 1.386 1_545 S
C181 C184 1.388 . S
C182 C181 1.386 1_565 S
C182 C183 1.382 . S
C182 H208 0.950 1_554 S
C183 N180 1.332 1_565 S
C183 C182 1.382 . S
C183 H194 0.952 . S
C184 C181 1.388 . S
C184 C185 1.382 . S
C184 H209 0.950 . S
C185 N180 1.332 . S
C185 C184 1.382 . S
C185 H195 0.948 . S
N186 Co164 2.282 . S
N186 C190 1.332 . S
N186 C191 1.332 1_545 S
C187 C188 1.388 1_665 S
C187 C191 1.382 . S
C187 H210 0.950 . S
C188 C187 1.388 1_445 S
C188 C189 1.386 . S
C189 C188 1.386 . S
C189 C190 1.382 1_455 S
C189 H211 0.950 . S
C190 N186 1.332 . S
C190 C189 1.382 1_655 S
C190 H192 0.952 . S
C191 N186 1.332 1_565 S
C191 C187 1.382 . S
C191 H193 0.948 . S
H192 C190 0.952 . S
H193 C191 0.948 . S
H194 C183 0.952 . S
H195 C185 0.948 . S
C196 C162 1.395 . S
C196 C166 1.391 . S
C197 C159 1.389 1_565 S
C197 C179 1.392 . S
C198 C169 1.392 . S
C198 C171 1.389 . S
C199 C174 1.395 . S
C199 C176 1.391 1_556 S
H200 C160 0.951 . S
H201 C161 0.950 . S
H202 C167 0.949 . S
H203 C168 0.950 . S
H204 C172 0.951 . S
H205 C173 0.950 . S
H206 C177 0.949 . S
H207 C178 0.950 . S
H208 C182 0.950 1_556 S
H209 C184 0.950 . S
H210 C187 0.950 . S
H211 C189 0.950 . S
C212 C213 1.443 . S
C212 N216 1.376 . S
C212 C250 1.389 . S
C213 C212 1.443 . S
C213 C214 1.340 . S
C213 H253 0.951 . S
C214 C213 1.340 . S
C214 C215 1.439 . S
C214 H254 0.950 . S
C215 C214 1.439 . S
C215 N216 1.374 . S
C215 C249 1.395 . S
N216 C212 1.376 . S
N216 C215 1.374 . S
N216 Co217 2.008 . S
Co217 N216 2.008 . S
Co217 N218 1.995 . S
Co217 N223 2.008 . S
Co217 N228 1.995 . S
Co217 N233 2.282 . S
Co217 N239 2.282 1_655 S
N218 Co217 1.995 . S
N218 C219 1.376 . S
N218 C222 1.383 . S
C219 N218 1.376 . S
C219 C220 1.446 . S
C219 C249 1.391 . S
C220 C219 1.446 . S
C220 C221 1.339 . S
C220 H255 0.949 . S
C221 C220 1.339 . S
C221 C222 1.439 . S
C221 H256 0.950 . S
C222 N218 1.383 . S
C222 C221 1.439 . S
C222 C251 1.392 . S
N223 Co217 2.008 . S
N223 C224 1.376 . S
N223 C227 1.374 . S
C224 N223 1.376 . S
C224 C225 1.443 . S
C224 C251 1.389 . S
C225 C224 1.443 . S
C225 C226 1.340 . S
C225 H257 0.951 . S
C226 C225 1.340 . S
C226 C227 1.439 . S
C226 H258 0.950 . S
C227 N223 1.374 . S
C227 C226 1.439 . S
C227 C252 1.395 . S
N228 Co217 1.995 . S
N228 C229 1.376 . S
N228 C232 1.383 . S
C229 N228 1.376 . S
C229 C230 1.446 1_655 S
C229 C252 1.391 . S
C230 C229 1.446 1_455 S
C230 C231 1.339 . S
C230 H259 0.949 . S
C231 C230 1.339 . S
C231 C232 1.439 1_455 S
C231 H260 0.950 . S
C232 N228 1.383 . S
C232 C231 1.439 1_655 S
C232 C250 1.392 . S
N233 Co217 2.282 . S
N233 C236 1.332 . S
N233 C238 1.332 . S
C234 C235 1.386 . S
C234 C237 1.388 . S
C235 C234 1.386 . S
C235 C236 1.382 . S
C235 H261 0.950 . S
C236 N233 1.332 . S
C236 C235 1.382 . S
C236 H247 0.952 . S
C237 C234 1.388 . S
C237 C238 1.382 . S
C237 H262 0.950 . S
C238 N233 1.332 . S
C238 C237 1.382 . S
C238 H248 0.948 . S
N239 Co217 2.282 1_455 S
N239 C243 1.332 . S
N239 C244 1.332 . S
C240 C241 1.388 1_565 S
C240 C244 1.382 . S
C240 H263 0.950 . S
C241 C240 1.388 1_545 S
C241 C242 1.386 . S
C242 C241 1.386 . S
C242 C243 1.382 1_545 S
C242 H264 0.950 . S
C243 N239 1.332 . S
C243 C242 1.382 1_565 S
C243 H245 0.952 1_455 S
C244 N239 1.332 . S
C244 C240 1.382 . S
C244 H246 0.948 . S
H245 C243 0.952 1_655 S
H246 C244 0.948 . S
H247 C236 0.952 . S
H248 C238 0.948 . S
C249 C215 1.395 . S
C249 C219 1.391 . S
C250 C212 1.389 . S
C250 C232 1.392 . S
C251 C222 1.392 . S
C251 C224 1.389 . S
C252 C227 1.395 . S
C252 C229 1.391 . S
H253 C213 0.951 . S
H254 C214 0.950 . S
H255 C220 0.949 . S
H256 C221 0.950 . S
H257 C225 0.951 . S
H258 C226 0.950 . S
H259 C230 0.949 . S
H260 C231 0.950 . S
H261 C235 0.950 . S
H262 C237 0.950 . S
H263 C240 0.950 . S
H264 C242 0.950 . S
C265 C266 1.443 . S
C265 N269 1.376 . S
C265 C303 1.389 . S
C266 C265 1.443 . S
C266 C267 1.340 . S
C266 H306 0.951 . S
C267 C266 1.340 . S
C267 C268 1.439 . S
C267 H307 0.950 . S
C268 C267 1.439 . S
C268 N269 1.374 . S
C268 C302 1.395 . S
N269 C265 1.376 . S
N269 C268 1.374 . S
N269 Co270 2.008 . S
Co270 N269 2.008 . S
Co270 N271 1.995 . S
Co270 N276 2.008 . S
Co270 N281 1.995 . S
Co270 N286 2.282 . S
Co270 N292 2.297 . S
N271 Co270 1.995 . S
N271 C272 1.376 . S
N271 C275 1.383 . S
C272 N271 1.376 . S
C272 C273 1.446 1_455 S
C272 C302 1.391 . S
C273 C272 1.446 1_655 S
C273 C274 1.339 . S
C273 H308 0.949 . S
C274 C273 1.339 . S
C274 C275 1.439 1_655 S
C274 H309 0.950 . S
C275 N271 1.383 . S
C275 C274 1.439 1_455 S
C275 C304 1.392 . S
N276 Co270 2.008 . S
N276 C277 1.376 . S
N276 C280 1.374 . S
C277 N276 1.376 . S
C277 C278 1.443 . S
C277 C304 1.389 . S
C278 C277 1.443 . S
C278 C279 1.340 . S
C278 H310 0.951 . S
C279 C278 1.340 . S
C279 C280 1.439 . S
C279 H311 0.950 . S
C280 N276 1.374 . S
C280 C279 1.439 . S
C280 C305 1.395 . S
N281 Co270 1.995 . S
N281 C282 1.376 . S
N281 C285 1.383 . S
C282 N281 1.376 . S
C282 C283 1.446 1_565 S
C282 C305 1.391 . S
C283 C282 1.446 1_545 S
C283 C284 1.339 . S
C283 H312 0.949 . S
C284 C283 1.339 . S
C284 C285 1.439 1_545 S
C284 H313 0.950 . S
C285 N281 1.383 . S
C285 C284 1.439 1_565 S
C285 C303 1.392 . S
N286 Co270 2.282 . S
N286 C289 1.332 . S
N286 C291 1.332 . S
C287 C288 1.386 . S
C287 C290 1.388 . S
C288 C287 1.386 . S
C288 C289 1.382 . S
C288 H314 0.950 . S
C289 N286 1.332 . S
C289 C288 1.382 . S
C289 H300 0.952 . S
C290 C287 1.388 . S
C290 C291 1.382 . S
C290 H315 0.950 . S
C291 N286 1.332 . S
C291 C290 1.382 . S
C291 H301 0.948 . S
N292 Co270 2.297 . S
N292 C296 1.324 1_565 S
N292 C297 1.325 1_565 S
C293 C294 1.388 . S
C293 C297 1.382 . S
C293 H316 0.950 . S
C294 C293 1.388 . S
C294 C295 1.386 . S
C295 C294 1.386 . S
C295 C296 1.382 . S
C295 H317 0.950 . S
C296 N292 1.324 1_545 S
C296 C295 1.382 . S
C296 H298 0.952 1_545 S
C297 N292 1.325 1_545 S
C297 C293 1.382 . S
C297 H299 0.948 . S
H298 C296 0.952 1_565 S
H299 C297 0.948 . S
H300 C289 0.952 . S
H301 C291 0.948 . S
C302 C268 1.395 . S
C302 C272 1.391 . S
C303 C265 1.389 . S
C303 C285 1.392 . S
C304 C275 1.392 . S
C304 C277 1.389 . S
C305 C280 1.395 . S
C305 C282 1.391 . S
H306 C266 0.951 . S
H307 C267 0.950 . S
H308 C273 0.949 . S
H309 C274 0.950 . S
H310 C278 0.951 . S
H311 C279 0.950 . S
H312 C283 0.949 . S
H313 C284 0.950 . S
H314 C288 0.950 . S
H315 C290 0.950 . S
H316 C293 0.950 . S
H317 C295 0.950 . S
C38 C92 2.378 . S
C91 C145 2.378 . S
C198 C144 2.378 . S
C197 C251 2.378 . S
C304 C250 2.378 1_455 S
C39 C303 2.377 1_545 S
C29 C188 3.093 . S
C241 C82 3.093 . S
C135 C294 3.094 . S
C181 C22 2.639 . S
C234 C75 2.639 . S
C287 C128 2.639 . S
