# Generated by pormake.
# Topology lcy-e, (6)-cn, num edge types: 1
# Building blocks:
#     Node 0, Type 0, BuildingBlock: OJICUG_clean_sbu_0, # of connection points: 6
#     Node 1, Type 0, BuildingBlock: OJICUG_clean_sbu_0, # of connection points: 6
#     Node 2, Type 0, BuildingBlock: OJICUG_clean_sbu_0, # of connection points: 6
#     Node 3, Type 0, BuildingBlock: OJICUG_clean_sbu_0, # of connection points: 6
#     Node 4, Type 0, BuildingBlock: OJICUG_clean_sbu_0, # of connection points: 6
#     Node 5, Type 0, BuildingBlock: OJICUG_clean_sbu_0, # of connection points: 6
#     Node 6, Type 0, BuildingBlock: OJICUG_clean_sbu_0, # of connection points: 6
#     Node 7, Type 0, BuildingBlock: OJICUG_clean_sbu_0, # of connection points: 6
#     Node 8, Type 0, BuildingBlock: OJICUG_clean_sbu_0, # of connection points: 6
#     Node 9, Type 0, BuildingBlock: OJICUG_clean_sbu_0, # of connection points: 6
#     Node 10, Type 0, BuildingBlock: OJICUG_clean_sbu_0, # of connection points: 6
#     Node 11, Type 0, BuildingBlock: OJICUG_clean_sbu_0, # of connection points: 6
#     Edge 12, Type (0, 0), BuildingBlock: EZIPEK_clean_linker_0, # of connection points: 2
#     Edge 13, Type (0, 0), BuildingBlock: EZIPEK_clean_linker_0, # of connection points: 2
#     Edge 14, Type (0, 0), BuildingBlock: EZIPEK_clean_linker_0, # of connection points: 2
#     Edge 15, Type (0, 0), BuildingBlock: EZIPEK_clean_linker_0, # of connection points: 2
#     Edge 16, Type (0, 0), BuildingBlock: EZIPEK_clean_linker_0, # of connection points: 2
#     Edge 17, Type (0, 0), BuildingBlock: EZIPEK_clean_linker_0, # of connection points: 2
#     Edge 18, Type (0, 0), BuildingBlock: EZIPEK_clean_linker_0, # of connection points: 2
#     Edge 19, Type (0, 0), BuildingBlock: EZIPEK_clean_linker_0, # of connection points: 2
#     Edge 20, Type (0, 0), BuildingBlock: EZIPEK_clean_linker_0, # of connection points: 2
#     Edge 21, Type (0, 0), BuildingBlock: EZIPEK_clean_linker_0, # of connection points: 2
#     Edge 22, Type (0, 0), BuildingBlock: EZIPEK_clean_linker_0, # of connection points: 2
#     Edge 23, Type (0, 0), BuildingBlock: EZIPEK_clean_linker_0, # of connection points: 2
#     Edge 24, Type (0, 0), BuildingBlock: EZIPEK_clean_linker_0, # of connection points: 2
#     Edge 25, Type (0, 0), BuildingBlock: EZIPEK_clean_linker_0, # of connection points: 2
#     Edge 26, Type (0, 0), BuildingBlock: EZIPEK_clean_linker_0, # of connection points: 2
#     Edge 27, Type (0, 0), BuildingBlock: EZIPEK_clean_linker_0, # of connection points: 2
#     Edge 28, Type (0, 0), BuildingBlock: EZIPEK_clean_linker_0, # of connection points: 2
#     Edge 29, Type (0, 0), BuildingBlock: EZIPEK_clean_linker_0, # of connection points: 2
#     Edge 30, Type (0, 0), BuildingBlock: EZIPEK_clean_linker_0, # of connection points: 2
#     Edge 31, Type (0, 0), BuildingBlock: EZIPEK_clean_linker_0, # of connection points: 2
#     Edge 32, Type (0, 0), BuildingBlock: EZIPEK_clean_linker_0, # of connection points: 2
#     Edge 33, Type (0, 0), BuildingBlock: EZIPEK_clean_linker_0, # of connection points: 2
#     Edge 34, Type (0, 0), BuildingBlock: EZIPEK_clean_linker_0, # of connection points: 2
#     Edge 35, Type (0, 0), BuildingBlock: EZIPEK_clean_linker_0, # of connection points: 2
#     Edge 36, Type (0, 0), BuildingBlock: EZIPEK_clean_linker_0, # of connection points: 2
#     Edge 37, Type (0, 0), BuildingBlock: EZIPEK_clean_linker_0, # of connection points: 2
#     Edge 38, Type (0, 0), BuildingBlock: EZIPEK_clean_linker_0, # of connection points: 2
#     Edge 39, Type (0, 0), BuildingBlock: EZIPEK_clean_linker_0, # of connection points: 2
#     Edge 40, Type (0, 0), BuildingBlock: EZIPEK_clean_linker_0, # of connection points: 2
#     Edge 41, Type (0, 0), BuildingBlock: EZIPEK_clean_linker_0, # of connection points: 2
#     Edge 42, Type (0, 0), BuildingBlock: EZIPEK_clean_linker_0, # of connection points: 2
#     Edge 43, Type (0, 0), BuildingBlock: EZIPEK_clean_linker_0, # of connection points: 2
#     Edge 44, Type (0, 0), BuildingBlock: EZIPEK_clean_linker_0, # of connection points: 2
#     Edge 45, Type (0, 0), BuildingBlock: EZIPEK_clean_linker_0, # of connection points: 2
#     Edge 46, Type (0, 0), BuildingBlock: EZIPEK_clean_linker_0, # of connection points: 2
#     Edge 47, Type (0, 0), BuildingBlock: EZIPEK_clean_linker_0, # of connection points: 2
# Relax obj value: 0.285
# Max RMSD: 0.291
# Mean RMSD: 0.291
data_MOF--net-lcy-e--node1-OJICUG_clean_sbu_0--edge1-EZIPEK_clean_linker_0
_symmetry_space_group_name_H-M    P1
_symmetry_Int_Tables_number       1
_symmetry_cell_setting            triclinic
loop_
_symmetry_equiv_pos_as_xyz
'x, y, z'
_cell_length_a     27.875774
_cell_length_b     27.749933
_cell_length_c     27.813707
_cell_angle_alpha  90.170863
_cell_angle_beta   89.968199
_cell_angle_gamma 90.191598
loop_
_atom_site_label
_atom_site_type_symbol
_atom_site_fract_x
_atom_site_fract_y
_atom_site_fract_z
_atom_type_partial_charge
Sc0 Sc 0.11835 0.13196 0.39128 0.0
Sc1 Sc 0.1791 0.18793 0.48189 0.0
Sc2 Sc 0.06393 0.21935 0.45307 0.0
O3 O 0.1212 0.17987 0.4425 0.0
C4 C 0.10328 0.23659 0.35063 0.0
C5 C 0.22691 0.13245 0.39407 0.0
C6 C 0.15793 0.29101 0.46923 0.0
C7 C 0.13137 0.08464 0.49439 0.0
C8 C 0.01335 0.13259 0.40421 0.0
C9 C 0.09185 0.21879 0.5538 0.0
O10 O 0.13031 0.19839 0.3485 0.0
O11 O 0.22932 0.16779 0.42316 0.0
O12 O 0.11259 0.28207 0.47233 0.0
O13 O 0.10782 0.08373 0.45386 0.0
O14 O 0.01357 0.15777 0.44226 0.0
O15 O 0.13682 0.2187 0.5435 0.0
O16 O 0.04528 0.14227 0.37433 0.0
O17 O 0.16485 0.11504 0.5046 0.0
O18 O 0.06242 0.19871 0.52606 0.0
O19 O 0.18995 0.10709 0.39259 0.0
O20 O 0.06611 0.23745 0.37736 0.0
O21 O 0.18665 0.25843 0.45585 0.0
Sc22 Sc 0.09143 0.86594 0.64832 0.0
Sc23 Sc 0.00915 0.81106 0.72297 0.0
Sc24 Sc 0.05909 0.91872 0.75609 0.0
O25 O 0.05264 0.86569 0.70763 0.0
C26 C 0.1639 0.89046 0.73728 0.0
C27 C 0.09622 0.75541 0.67198 0.0
C28 C 0.03884 0.8265 0.82155 0.0
C29 C 0.98211 0.83989 0.61849 0.0
C30 C 0.08359 0.97429 0.65822 0.0
C31 C 0.95232 0.90961 0.75401 0.0
O32 O 0.15673 0.88319 0.69191 0.0
O33 O 0.05609 0.75403 0.69411 0.0
O34 O 0.03457 0.87207 0.81623 0.0
O35 O 0.02522 0.85203 0.60694 0.0
O36 O 0.08476 0.97352 0.7041 0.0
O37 O 0.9569 0.86332 0.75576 0.0
O38 O 0.07517 0.93746 0.63362 0.0
O39 O 0.97079 0.82119 0.65846 0.0
O40 O 0.98693 0.93738 0.74324 0.0
O41 O 0.1129 0.79365 0.65439 0.0
O42 O 0.12997 0.89745 0.76696 0.0
O43 O 0.05026 0.80199 0.78564 0.0
Sc44 Sc 0.44071 0.74145 0.96497 0.0
Sc45 Sc 0.33986 0.81671 0.97027 0.0
Sc46 Sc 0.41997 0.82198 0.87735 0.0
O47 O 0.39712 0.7899 0.93691 0.0
C48 C 0.51638 0.80709 0.91418 0.0
C49 C 0.41309 0.80229 0.05669 0.0
C50 C 0.40257 0.90312 0.95315 0.0
C51 C 0.33515 0.70508 0.99633 0.0
C52 C 0.41993 0.71143 0.8559 0.0
C53 C 0.30985 0.83443 0.86599 0.0
O54 O 0.50338 0.79174 0.95515 0.0
O55 O 0.37779 0.82518 0.03855 0.0
O56 O 0.43583 0.88436 0.92684 0.0
O57 O 0.37851 0.69504 0.9836 0.0
O58 O 0.40385 0.75282 0.842 0.0
O59 O 0.29874 0.8107 0.90374 0.0
O60 O 0.44422 0.70613 0.8947 0.0
O61 O 0.31716 0.74707 0.99357 0.0
O62 O 0.35155 0.85119 0.8594 0.0
O63 O 0.437 0.77091 0.03418 0.0
O64 O 0.49019 0.79425 0.88028 0.0
O65 O 0.36053 0.88708 0.94767 0.0
Sc66 Sc 0.40116 0.12048 0.13285 0.0
Sc67 Sc 0.48623 0.18122 0.20139 0.0
Sc68 Sc 0.45631 0.06367 0.22797 0.0
O69 O 0.44766 0.12175 0.18631 0.0
C70 C 0.34493 0.08533 0.22983 0.0
C71 C 0.39756 0.2323 0.14936 0.0
C72 C 0.46497 0.15634 0.30049 0.0
C73 C 0.50557 0.15559 0.09387 0.0
C74 C 0.42844 0.01005 0.12905 0.0
C75 C 0.55657 0.09275 0.23097 0.0
O76 O 0.3442 0.1053 0.18776 0.0
O77 O 0.43618 0.23569 0.17344 0.0
O78 O 0.47193 0.11171 0.2906 0.0
O79 O 0.46377 0.13657 0.08598 0.0
O80 O 0.446 0.00788 0.17132 0.0
O81 O 0.54417 0.13711 0.23465 0.0
O82 O 0.41045 0.04807 0.11303 0.0
O83 O 0.51871 0.17465 0.13342 0.0
O84 O 0.53001 0.06282 0.20949 0.0
O85 O 0.38078 0.19256 0.13608 0.0
O86 O 0.38262 0.06608 0.24689 0.0
O87 O 0.45012 0.18417 0.26792 0.0
Sc88 Sc 0.68962 0.30711 0.47112 0.0
Sc89 Sc 0.59904 0.24192 0.52321 0.0
Sc90 Sc 0.62465 0.35341 0.56374 0.0
O91 O 0.64062 0.30053 0.52102 0.0
C92 C 0.73454 0.36209 0.56467 0.0
C93 C 0.70107 0.2043 0.48615 0.0
C94 C 0.62913 0.24999 0.6248 0.0
C95 C 0.59491 0.2603 0.4195 0.0
C96 C 0.63829 0.40549 0.461 0.0
C97 C 0.5274 0.3218 0.55765 0.0
O98 O 0.73893 0.34659 0.52113 0.0
O99 O 0.65534 0.19858 0.48599 0.0
O100 O 0.6203 0.29615 0.62329 0.0
O101 O 0.64062 0.2681 0.41925 0.0
O102 O 0.6286 0.40896 0.50612 0.0
O103 O 0.53869 0.27778 0.56397 0.0
O104 O 0.65994 0.37 0.44304 0.0
O105 O 0.57013 0.26344 0.45744 0.0
O106 O 0.55587 0.34768 0.53551 0.0
O107 O 0.72007 0.24375 0.49766 0.0
O108 O 0.69501 0.36384 0.58663 0.0
O109 O 0.63034 0.2238 0.58773 0.0
Sc110 Sc 0.96432 0.44387 0.73485 0.0
Sc111 Sc 0.97654 0.33834 0.80209 0.0
Sc112 Sc 0.89568 0.42371 0.83016 0.0
O113 O 0.94231 0.39794 0.78624 0.0
C114 C 0.92632 0.51916 0.80428 0.0
C115 C 0.05319 0.42593 0.79356 0.0
C116 C 0.9777 0.38958 0.90102 0.0
C117 C 0.00208 0.34109 0.69801 0.0
C118 C 0.86106 0.42286 0.71529 0.0
C119 C 0.86744 0.31454 0.82944 0.0
O120 O 0.9244 0.50907 0.76006 0.0
O121 O 0.04326 0.38046 0.7944 0.0
O122 O 0.94292 0.41802 0.89272 0.0
O123 O 0.00586 0.38698 0.69873 0.0
O124 O 0.85174 0.42909 0.76099 0.0
O125 O 0.90805 0.2996 0.81324 0.0
O126 O 0.90291 0.42548 0.6974 0.0
O127 O 0.97711 0.31835 0.72843 0.0
O128 O 0.85888 0.35806 0.83983 0.0
O129 O 0.02344 0.45757 0.77937 0.0
O130 O 0.9382 0.48614 0.83107 0.0
O131 O 0.98274 0.35143 0.87674 0.0
Sc132 Sc 0.89371 0.73774 0.05756 0.0
Sc133 Sc 0.79513 0.70811 0.98957 0.0
Sc134 Sc 0.83043 0.62875 0.07331 0.0
O135 O 0.84294 0.6901 0.03849 0.0
C136 C 0.93973 0.64059 0.09733 0.0
C137 C 0.90155 0.74304 0.94938 0.0
C138 C 0.83563 0.6055 0.9626 0.0
C139 C 0.80906 0.80714 0.02351 0.0
C140 C 0.82876 0.71688 0.14853 0.0
C141 C 0.72861 0.65241 0.06008 0.0
O142 O 0.94462 0.68303 0.08094 0.0
O143 O 0.85585 0.73714 0.94438 0.0
O144 O 0.85089 0.59461 0.00503 0.0
O145 O 0.85331 0.80134 0.03294 0.0
O146 O 0.81198 0.675 0.13613 0.0
O147 O 0.73428 0.69094 0.03692 0.0
O148 O 0.86062 0.74039 0.12555 0.0
O149 O 0.78066 0.77264 0.02538 0.0
O150 O 0.75851 0.6204 0.05086 0.0
O151 O 0.92366 0.73513 0.98841 0.0
O152 O 0.90001 0.61942 0.09959 0.0
O153 O 0.8053 0.63908 0.95485 0.0
Sc154 Sc 0.4786 0.69093 0.31892 0.0
Sc155 Sc 0.53199 0.6058 0.24446 0.0
Sc156 Sc 0.58938 0.64135 0.3496 0.0
O157 O 0.5341 0.64658 0.30425 0.0
C158 C 0.56595 0.75032 0.36386 0.0
C159 C 0.48545 0.70855 0.21236 0.0
C160 C 0.63614 0.64839 0.24212 0.0
C161 C 0.42829 0.59511 0.27692 0.0
C162 C 0.49181 0.63362 0.41377 0.0
C163 C 0.5858 0.53408 0.31755 0.0
O164 O 0.52175 0.74761 0.35279 0.0
O165 O 0.49458 0.66391 0.20412 0.0
O166 O 0.64099 0.65068 0.2883 0.0
O167 O 0.42674 0.63979 0.28793 0.0
O168 O 0.53763 0.62839 0.40976 0.0
O169 O 0.56648 0.5414 0.27658 0.0
O170 O 0.4665 0.65628 0.38397 0.0
O171 O 0.46731 0.57494 0.26636 0.0
O172 O 0.59372 0.56723 0.34698 0.0
O173 O 0.48808 0.72723 0.2536 0.0
O174 O 0.59423 0.71537 0.36103 0.0
O175 O 0.59801 0.6345 0.22149 0.0
Sc176 Sc 0.23123 0.47028 0.07237 0.0
Sc177 Sc 0.17878 0.49951 0.18048 0.0
Sc178 Sc 0.13797 0.40047 0.11737 0.0
O179 O 0.18162 0.45642 0.12288 0.0
C180 C 0.14512 0.42635 0.00851 0.0
C181 C 0.20801 0.57171 0.09161 0.0
C182 C 0.07442 0.49491 0.14354 0.0
C183 C 0.2821 0.49558 0.17419 0.0
C184 C 0.2458 0.3601 0.09455 0.0
C185 C 0.14565 0.40038 0.22917 0.0
O186 O 0.18699 0.44532 0.01028 0.0
O187 O 0.20621 0.56197 0.1367 0.0
O188 O 0.07728 0.45062 0.1295 0.0
O189 O 0.28071 0.50071 0.12828 0.0
O190 O 0.20107 0.35303 0.1045 0.0
O191 O 0.15394 0.44541 0.23319 0.0
O192 O 0.26205 0.40152 0.08383 0.0
O193 O 0.2482 0.47637 0.19684 0.0
O194 O 0.14298 0.3799 0.18903 0.0
O195 O 0.20085 0.53873 0.06113 0.0
O196 O 0.1241 0.41104 0.04519 0.0
O197 O 0.10854 0.51845 0.16259 0.0
Sc198 Sc 0.71223 0.01838 0.82354 0.0
Sc199 Sc 0.75455 0.08245 0.91981 0.0
Sc200 Sc 0.64041 0.10021 0.88059 0.0
O201 O 0.70185 0.06711 0.87359 0.0
C202 C 0.65585 0.10307 0.76855 0.0
C203 C 0.81546 0.04226 0.83216 0.0
C204 C 0.72923 0.17806 0.87879 0.0
C205 C 0.74041 0.97593 0.9293 0.0
C206 C 0.60968 0.98938 0.86314 0.0
C207 C 0.66563 0.11099 0.98213 0.0
O208 O 0.68373 0.06633 0.76685 0.0
O209 O 0.8102 0.04647 0.87732 0.0
O210 O 0.68386 0.16883 0.88433 0.0
O211 O 0.74084 0.97268 0.8827 0.0
O212 O 0.59963 0.03152 0.87928 0.0
O213 O 0.70893 0.12107 0.97218 0.0
O214 O 0.64626 0.98141 0.83728 0.0
O215 O 0.74115 0.01601 0.95136 0.0
O216 O 0.64138 0.08531 0.95435 0.0
O217 O 0.77966 0.04957 0.80573 0.0
O218 O 0.6344 0.11609 0.80647 0.0
O219 O 0.76193 0.14652 0.88258 0.0
Sc220 Sc 0.83523 0.87743 0.39517 0.0
Sc221 Sc 0.76094 0.96645 0.437 0.0
Sc222 Sc 0.811 0.97642 0.3236 0.0
O223 O 0.80131 0.93856 0.38452 0.0
C224 C 0.91429 0.95704 0.3637 0.0
C225 C 0.83177 0.90617 0.50302 0.0
C226 C 0.81299 0.05464 0.40972 0.0
C227 C 0.72158 0.86336 0.41754 0.0
C228 C 0.82056 0.86884 0.28315 0.0
C229 C 0.70892 0.00188 0.33906 0.0
O230 O 0.90378 0.9174 0.38541 0.0
O231 O 0.79621 0.93435 0.49965 0.0
O232 O 0.80641 0.04433 0.36525 0.0
O233 O 0.76317 0.84555 0.40709 0.0
O234 O 0.81523 0.91365 0.27469 0.0
O235 O 0.717 0.00639 0.3842 0.0
O236 O 0.82775 0.8534 0.32475 0.0
O237 O 0.71423 0.90686 0.43016 0.0
O238 O 0.73614 0.97786 0.3117 0.0
O239 O 0.85 0.88615 0.46731 0.0
O240 O 0.88566 0.97794 0.33517 0.0
O241 O 0.81244 0.02167 0.44076 0.0
Sc242 Sc 0.35042 0.56778 0.64961 0.0
Sc243 Sc 0.26051 0.50862 0.59273 0.0
Sc244 Sc 0.31871 0.45793 0.69066 0.0
O245 O 0.31076 0.51142 0.64248 0.0
C246 C 0.41433 0.46665 0.64363 0.0
C247 C 0.34604 0.56282 0.53699 0.0
C248 C 0.27217 0.40547 0.59827 0.0
C249 C 0.24359 0.61198 0.63336 0.0
C250 C 0.35789 0.54477 0.75245 0.0
C251 C 0.21698 0.47986 0.69972 0.0
O252 O 0.41229 0.51372 0.64585 0.0
O253 O 0.3073 0.5377 0.53435 0.0
O254 O 0.27621 0.40632 0.64415 0.0
O255 O 0.28613 0.61492 0.65121 0.0
O256 O 0.36296 0.49985 0.74422 0.0
O257 O 0.21265 0.48103 0.65308 0.0
O258 O 0.33556 0.56958 0.7231 0.0
O259 O 0.23186 0.57792 0.60564 0.0
O260 O 0.25652 0.4831 0.72143 0.0
O261 O 0.36385 0.57584 0.57651 0.0
O262 O 0.38078 0.43893 0.65675 0.0
O263 O 0.2875 0.44048 0.57442 0.0
C264 C 0.23123 0.33961 0.48783 0.0
C265 C 0.18166 0.33176 0.49643 0.0
C266 C 0.19144 0.367 0.57733 0.0
C267 C 0.24208 0.37024 0.57017 0.0
N268 N 0.31056 0.34973 0.52184 0.0
N269 N 0.11264 0.35828 0.54069 0.0
C270 C 0.2619 0.35365 0.52618 0.0
C271 C 0.161 0.351 0.53892 0.0
N272 N 0.24843 0.33521 0.44204 0.0
N273 N 0.17236 0.37795 0.62111 0.0
H274 H 0.0908 0.35345 0.51066 0.0
H275 H 0.09522 0.37559 0.56894 0.0
H276 H 0.19343 0.38851 0.64992 0.0
H277 H 0.13673 0.37158 0.63042 0.0
H278 H 0.28335 0.34435 0.43219 0.0
H279 H 0.22576 0.32773 0.41303 0.0
H280 H 0.32742 0.33409 0.49226 0.0
H281 H 0.3337 0.35735 0.5504 0.0
C282 C 0.85859 0.00522 0.76084 0.0
C283 C 0.85639 0.01356 0.81138 0.0
C284 C 0.90897 0.94414 0.82411 0.0
C285 C 0.90967 0.93471 0.77416 0.0
N286 N 0.87663 0.94885 0.69632 0.0
N287 N 0.89877 0.00405 0.88641 0.0
C288 C 0.88196 0.96329 0.7429 0.0
C289 C 0.88693 0.98665 0.84197 0.0
N290 N 0.84215 0.03957 0.72993 0.0
N291 N 0.92858 0.91156 0.85469 0.0
H292 H 0.89006 0.03887 0.89742 0.0
H293 H 0.92361 0.98758 0.90893 0.0
H294 H 0.94178 0.87883 0.8422 0.0
H295 H 0.92575 0.91427 0.89188 0.0
H296 H 0.84595 0.03739 0.69274 0.0
H297 H 0.83071 0.07332 0.74187 0.0
H298 H 0.8538 0.96554 0.67193 0.0
H299 H 0.89113 0.91638 0.6842 0.0
C300 C 0.25752 0.65838 0.99824 0.0
C301 C 0.30316 0.66839 0.01923 0.0
C302 C 0.27385 0.63477 0.09555 0.0
C303 C 0.23255 0.61621 0.07228 0.0
N304 N 0.18028 0.61763 0.00365 0.0
N305 N 0.35583 0.66259 0.08796 0.0
C306 C 0.22297 0.63054 0.02416 0.0
C307 C 0.31179 0.655 0.06775 0.0
N308 N 0.24688 0.67657 0.95389 0.0
N309 N 0.27492 0.63736 0.14443 0.0
H310 H 0.38414 0.67913 0.06987 0.0
H311 H 0.36534 0.64865 0.12137 0.0
H312 H 0.24405 0.63183 0.16479 0.0
H313 H 0.303 0.65288 0.16374 0.0
H314 H 0.21302 0.67528 0.93826 0.0
H315 H 0.2718 0.69531 0.93319 0.0
H316 H 0.17274 0.62037 0.96713 0.0
H317 H 0.15213 0.60347 0.02397 0.0
C318 C 0.58475 0.03471 0.29524 0.0
C319 C 0.5953 0.07294 0.26222 0.0
C320 C 0.68068 0.06675 0.28282 0.0
C321 C 0.66967 0.02936 0.31612 0.0
N322 N 0.61132 0.98347 0.36047 0.0
N323 N 0.65229 0.12959 0.22942 0.0
C324 C 0.62173 0.0153 0.32437 0.0
C325 C 0.64293 0.09054 0.25789 0.0
N326 N 0.5395 0.01587 0.29851 0.0
N327 N 0.72751 0.07844 0.27379 0.0
H328 H 0.62677 0.14536 0.20716 0.0
H329 H 0.68472 0.14825 0.22961 0.0
H330 H 0.75608 0.06396 0.29288 0.0
H331 H 0.73861 0.10054 0.24573 0.0
H332 H 0.53179 0.98289 0.31455 0.0
H333 H 0.50929 0.03187 0.28409 0.0
H334 H 0.57674 0.97687 0.37304 0.0
H335 H 0.63744 0.96599 0.38069 0.0
C336 C 0.75724 0.13615 0.49676 0.0
C337 C 0.73406 0.16852 0.46537 0.0
C338 C 0.78379 0.13991 0.39808 0.0
C339 C 0.80201 0.10377 0.4286 0.0
N340 N 0.82849 0.08839 0.50948 0.0
N341 N 0.74145 0.21547 0.39225 0.0
C342 C 0.79616 0.1089 0.47902 0.0
C343 C 0.75205 0.17483 0.41762 0.0
N344 N 0.74225 0.13134 0.54329 0.0
N345 N 0.79776 0.14153 0.35109 0.0
H346 H 0.72128 0.24345 0.40643 0.0
H347 H 0.75657 0.22392 0.3591 0.0
H348 H 0.82737 0.12228 0.33855 0.0
H349 H 0.78042 0.1619 0.32501 0.0
H350 H 0.75554 0.10494 0.56625 0.0
H351 H 0.71401 0.15129 0.55777 0.0
H352 H 0.82802 0.09367 0.54659 0.0
H353 H 0.85892 0.07084 0.49647 0.0
C354 C 0.11347 0.49143 0.78671 0.0
C355 C 0.1037 0.44207 0.79442 0.0
C356 C 0.17629 0.41962 0.75268 0.0
C357 C 0.17744 0.46696 0.73219 0.0
N358 N 0.15876 0.55138 0.74221 0.0
N359 N 0.13974 0.3664 0.81203 0.0
C360 C 0.14977 0.50428 0.75339 0.0
C361 C 0.13973 0.40807 0.78604 0.0
N362 N 0.088 0.52493 0.81202 0.0
N363 N 0.21019 0.38622 0.7409 0.0
H364 H 0.11495 0.3607 0.83964 0.0
H365 H 0.16633 0.34026 0.8101 0.0
H366 H 0.24094 0.39459 0.72159 0.0
H367 H 0.20766 0.34985 0.74952 0.0
H368 H 0.0936 0.56194 0.81008 0.0
H369 H 0.06315 0.51445 0.83816 0.0
H370 H 0.13741 0.58004 0.75319 0.0
H371 H 0.188 0.56198 0.72131 0.0
C372 C 0.7629 0.93424 0.00744 0.0
C373 C 0.74654 0.93184 0.95894 0.0
C374 C 0.76565 0.84693 0.95552 0.0
C375 C 0.79019 0.85111 0.00067 0.0
N376 N 0.81224 0.89902 0.06977 0.0
N377 N 0.70686 0.8808 0.90178 0.0
C378 C 0.78908 0.89497 0.02663 0.0
C379 C 0.74045 0.88665 0.93716 0.0
N380 N 0.74795 0.97066 0.03694 0.0
N381 N 0.76757 0.80572 0.92874 0.0
H382 H 0.68425 0.90864 0.89122 0.0
H383 H 0.69658 0.84737 0.888 0.0
H384 H 0.78158 0.7737 0.94091 0.0
H385 H 0.75746 0.80412 0.8927 0.0
H386 H 0.75623 0.97268 0.07339 0.0
H387 H 0.72033 0.9939 0.02732 0.0
H388 H 0.81724 0.93181 0.08743 0.0
H389 H 0.82934 0.87019 0.08643 0.0
C390 C 0.39057 0.51771 0.25127 0.0
C391 C 0.38423 0.56647 0.26551 0.0
C392 C 0.30359 0.56218 0.23215 0.0
C393 C 0.31761 0.52111 0.20422 0.0
N394 N 0.37507 0.45774 0.19014 0.0
N395 N 0.32824 0.63154 0.2787 0.0
C396 C 0.36152 0.49832 0.21442 0.0
C397 C 0.3388 0.58788 0.25874 0.0
N398 N 0.42238 0.4894 0.27523 0.0
N399 N 0.25645 0.57468 0.23665 0.0
H400 H 0.34744 0.64613 0.30738 0.0
H401 H 0.29931 0.65239 0.26745 0.0
H402 H 0.22859 0.55634 0.22006 0.0
H403 H 0.24434 0.60074 0.26078 0.0
H404 H 0.42618 0.45262 0.26853 0.0
H405 H 0.43965 0.50193 0.30614 0.0
H406 H 0.40886 0.44228 0.19429 0.0
H407 H 0.35398 0.4418 0.16343 0.0
C408 C 0.53446 0.15778 0.35908 0.0
C409 C 0.49333 0.1805 0.33978 0.0
C410 C 0.52609 0.25937 0.36408 0.0
C411 C 0.56895 0.23677 0.37924 0.0
N412 N 0.61802 0.16558 0.38115 0.0
N413 N 0.44234 0.25016 0.34176 0.0
C414 C 0.57444 0.18631 0.37334 0.0
C415 C 0.48697 0.23077 0.34741 0.0
N416 N 0.5335 0.10956 0.36847 0.0
N417 N 0.52345 0.30853 0.36545 0.0
H418 H 0.41244 0.22875 0.33394 0.0
H419 H 0.4338 0.28573 0.34993 0.0
H420 H 0.55235 0.32977 0.37676 0.0
H421 H 0.49496 0.32823 0.35158 0.0
H422 H 0.56108 0.09166 0.3862 0.0
H423 H 0.50215 0.08918 0.36539 0.0
H424 H 0.62525 0.12957 0.37334 0.0
H425 H 0.64822 0.18587 0.38988 0.0
C426 C 0.03145 0.28334 0.57799 0.0
C427 C 0.07153 0.25314 0.59039 0.0
C428 C 0.06848 0.28519 0.67285 0.0
C429 C 0.02736 0.31281 0.66066 0.0
N430 N 0.97313 0.34393 0.60148 0.0
N431 N 0.12257 0.22009 0.65194 0.0
C432 C 0.00967 0.31318 0.61328 0.0
C433 C 0.08899 0.2532 0.63833 0.0
N434 N 0.01312 0.2832 0.53248 0.0
N435 N 0.08891 0.29076 0.71718 0.0
H436 H 0.13759 0.1951 0.62834 0.0
H437 H 0.13263 0.21427 0.68747 0.0
H438 H 0.07425 0.3127 0.74374 0.0
H439 H 0.1223 0.27691 0.72643 0.0
H440 H 0.9785 0.29413 0.52391 0.0
H441 H 0.03223 0.27245 0.50259 0.0
H442 H 0.96282 0.35193 0.56648 0.0
H443 H 0.95431 0.36432 0.62671 0.0
C444 C 0.99318 0.7537 0.85208 0.0
C445 C 0.01189 0.80089 0.86064 0.0
C446 C 0.9531 0.81189 0.92468 0.0
C447 C 0.93112 0.7672 0.91214 0.0
N448 N 0.92362 0.70146 0.85663 0.0
N449 N 0.02234 0.86502 0.91756 0.0
C450 C 0.94913 0.73991 0.87354 0.0
C451 C 0.99584 0.82691 0.90114 0.0
N452 N 0.01967 0.72039 0.82757 0.0
N453 N 0.93085 0.84131 0.95698 0.0
H454 H 0.0554 0.87408 0.90236 0.0
H455 H 0.01467 0.88404 0.94891 0.0
H456 H 0.89592 0.83438 0.96797 0.0
H457 H 0.94354 0.875 0.96757 0.0
H458 H 0.0088 0.68469 0.82312 0.0
H459 H 0.0556 0.72619 0.81877 0.0
H460 H 0.93289 0.68298 0.82531 0.0
H461 H 0.8904 0.69183 0.87106 0.0
C462 C 0.49435 0.77505 0.15249 0.0
C463 C 0.46468 0.74005 0.17503 0.0
C464 C 0.39336 0.7758 0.13756 0.0
C465 C 0.42402 0.80367 0.10837 0.0
N466 N 0.4999 0.84117 0.095 0.0
N467 N 0.38523 0.7147 0.19907 0.0
C468 C 0.4733 0.808 0.11961 0.0
C469 C 0.4138 0.74297 0.17083 0.0
N470 N 0.54246 0.77591 0.16203 0.0
N471 N 0.345 0.77796 0.12994 0.0
H472 H 0.39881 0.68746 0.22057 0.0
H473 H 0.34833 0.71877 0.20245 0.0
H474 H 0.32985 0.80431 0.10807 0.0
H475 H 0.31999 0.75447 0.14483 0.0
H476 H 0.5665 0.80077 0.14783 0.0
H477 H 0.55876 0.75119 0.18491 0.0
H478 H 0.53655 0.84672 0.09912 0.0
H479 H 0.48381 0.86417 0.0702 0.0
C480 C 0.14649 0.28 0.28318 0.0
C481 C 0.11496 0.28224 0.32291 0.0
C482 C 0.10538 0.36965 0.30531 0.0
C483 C 0.14222 0.36681 0.27071 0.0
N484 N 0.20959 0.32217 0.24165 0.0
N485 N 0.07402 0.33772 0.37899 0.0
C486 C 0.16714 0.32304 0.26562 0.0
C487 C 0.09713 0.32947 0.33645 0.0
N488 N 0.15285 0.2382 0.25821 0.0
N489 N 0.07701 0.40957 0.30766 0.0
H490 H 0.06718 0.31222 0.4051 0.0
H491 H 0.06582 0.37237 0.391 0.0
H492 H 0.0829 0.43993 0.28644 0.0
H493 H 0.04581 0.41093 0.32833 0.0
H494 H 0.17217 0.23737 0.22618 0.0
H495 H 0.13333 0.20687 0.265 0.0
H496 H 0.23004 0.29118 0.24066 0.0
H497 H 0.22605 0.35331 0.22841 0.0
C498 C 0.90509 0.82582 0.57434 0.0
C499 C 0.9407 0.85854 0.59072 0.0
C500 C 0.88953 0.92687 0.56735 0.0
C501 C 0.85573 0.89396 0.54856 0.0
N502 N 0.82257 0.81436 0.54812 0.0
N503 N 0.95874 0.93948 0.61822 0.0
C504 C 0.86057 0.84406 0.55758 0.0
C505 C 0.93073 0.90902 0.5916 0.0
N506 N 0.91459 0.77754 0.57317 0.0
N507 N 0.88271 0.9751 0.56067 0.0
H508 H 0.98705 0.92757 0.63932 0.0
H509 H 0.95028 0.97543 0.62436 0.0
H510 H 0.8513 0.98869 0.54562 0.0
H511 H 0.90828 0.0013 0.56879 0.0
H512 H 0.89174 0.75209 0.55778 0.0
H513 H 0.94734 0.76325 0.58427 0.0
H514 H 0.82178 0.77788 0.55673 0.0
H515 H 0.79 0.82793 0.53551 0.0
C516 C 0.34687 0.59985 0.82084 0.0
C517 C 0.37972 0.57325 0.79256 0.0
C518 C 0.44135 0.63541 0.80917 0.0
C519 C 0.40587 0.66559 0.8305 0.0
N520 N 0.32315 0.67717 0.85341 0.0
N521 N 0.45867 0.56512 0.75937 0.0
C522 C 0.3582 0.64783 0.83561 0.0
C523 C 0.42746 0.59048 0.78747 0.0
N524 N 0.30413 0.57885 0.83281 0.0
N525 N 0.48822 0.64994 0.80914 0.0
H526 H 0.44994 0.53124 0.7455 0.0
H527 H 0.49208 0.57803 0.74863 0.0
H528 H 0.49911 0.6838 0.82146 0.0
H529 H 0.51654 0.6277 0.79911 0.0
H530 H 0.27973 0.59402 0.8568 0.0
H531 H 0.29561 0.54374 0.82206 0.0
H532 H 0.28679 0.66865 0.85151 0.0
H533 H 0.32978 0.7117 0.86668 0.0
C534 C 0.57585 0.10526 0.07542 0.0
C535 C 0.54646 0.14489 0.06203 0.0
C536 C 0.61045 0.17479 0.0095 0.0
C537 C 0.63825 0.13377 0.02121 0.0
N538 N 0.65554 0.06944 0.07488 0.0
N539 N 0.53812 0.22182 0.02342 0.0
C540 C 0.62352 0.10242 0.05791 0.0
C541 C 0.56456 0.18118 0.03115 0.0
N542 N 0.55769 0.07016 0.1046 0.0
N543 N 0.62789 0.2066 0.9765 0.0
H544 H 0.50346 0.22597 0.03701 0.0
H545 H 0.55072 0.25188 0.005 0.0
H546 H 0.66329 0.20473 0.96464 0.0
H547 H 0.60804 0.23435 0.96134 0.0
H548 H 0.5766 0.03965 0.11484 0.0
H549 H 0.52206 0.06989 0.11602 0.0
H550 H 0.64916 0.04673 0.10389 0.0
H551 H 0.69079 0.06847 0.06214 0.0
C552 C 0.59544 0.18852 0.68089 0.0
C553 C 0.6337 0.22097 0.66977 0.0
C554 C 0.68915 0.16958 0.71637 0.0
C555 C 0.65072 0.13736 0.72739 0.0
N556 N 0.56672 0.11787 0.72377 0.0
N557 N 0.71766 0.24008 0.6725 0.0
C558 C 0.60378 0.14747 0.7105 0.0
C559 C 0.68067 0.21093 0.68677 0.0
N560 N 0.55164 0.19506 0.65985 0.0
N561 N 0.73329 0.16214 0.73649 0.0
H562 H 0.71202 0.27215 0.65383 0.0
H563 H 0.75373 0.23224 0.67768 0.0
H564 H 0.74146 0.13204 0.75716 0.0
H565 H 0.76148 0.18673 0.73502 0.0
H566 H 0.52393 0.16988 0.66041 0.0
H567 H 0.54364 0.22503 0.63908 0.0
H568 H 0.53065 0.12632 0.71942 0.0
H569 H 0.5721 0.08504 0.74116 0.0
C570 C 0.09857 0.37189 0.95828 0.0
C571 C 0.11621 0.41922 0.96411 0.0
C572 C 0.03901 0.45086 0.93474 0.0
C573 C 0.0199 0.40283 0.93275 0.0
N574 N 0.02853 0.32044 0.9585 0.0
N575 N 0.10989 0.50237 0.94457 0.0
C576 C 0.04913 0.36412 0.94885 0.0
C577 C 0.08838 0.45828 0.94779 0.0
N578 N 0.12939 0.33432 0.96431 0.0
N579 N 0.00957 0.48953 0.92829 0.0
H580 H 0.14581 0.50735 0.95408 0.0
H581 H 0.09412 0.5324 0.92889 0.0
H582 H 0.97253 0.48669 0.92549 0.0
H583 H 0.02065 0.5251 0.93236 0.0
H584 H 0.12019 0.29861 0.95706 0.0
H585 H 0.16565 0.34015 0.97206 0.0
H586 H 0.04701 0.29185 0.97397 0.0
H587 H 0.99151 0.31492 0.95644 0.0
C588 C 0.78142 0.82539 0.21212 0.0
C589 C 0.81971 0.83033 0.2455 0.0
C590 C 0.84267 0.74636 0.22926 0.0
C591 C 0.81087 0.74446 0.19016 0.0
N592 N 0.75405 0.78544 0.13965 0.0
N593 N 0.89469 0.79836 0.27537 0.0
C594 C 0.78067 0.78465 0.18076 0.0
C595 C 0.85256 0.79142 0.25116 0.0
N596 N 0.7455 0.85863 0.2105 0.0
N597 N 0.86578 0.70545 0.24316 0.0
H598 H 0.90529 0.83206 0.28843 0.0
H599 H 0.9214 0.77224 0.27735 0.0
H600 H 0.85891 0.67231 0.22656 0.0
H601 H 0.88745 0.70382 0.27364 0.0
H602 H 0.7144 0.85358 0.19028 0.0
H603 H 0.74494 0.88942 0.23195 0.0
H604 H 0.73591 0.8159 0.12765 0.0
H605 H 0.75307 0.75623 0.11605 0.0
C606 C 0.3905 0.62889 0.49864 0.0
C607 C 0.37459 0.58039 0.49501 0.0
C608 C 0.44356 0.56321 0.44218 0.0
C609 C 0.46232 0.61017 0.45156 0.0
N610 N 0.45758 0.68458 0.49517 0.0
N611 N 0.38286 0.50207 0.45937 0.0
C612 C 0.43691 0.64182 0.48212 0.0
C613 C 0.4002 0.54769 0.46537 0.0
N614 N 0.36064 0.66248 0.51843 0.0
N615 N 0.46637 0.53442 0.40954 0.0
H616 H 0.3491 0.4919 0.47198 0.0
H617 H 0.40166 0.47435 0.44267 0.0
H618 H 0.49915 0.54398 0.3941 0.0
H619 H 0.45257 0.50198 0.39679 0.0
H620 H 0.36818 0.69927 0.51898 0.0
H621 H 0.32602 0.65361 0.52991 0.0
H622 H 0.44277 0.70799 0.52042 0.0
H623 H 0.49214 0.69395 0.48406 0.0
C624 C 0.28567 0.07803 0.35253 0.0
C625 C 0.26223 0.1233 0.35451 0.0
C626 C 0.27556 0.13253 0.26726 0.0
C627 C 0.3049 0.09112 0.26649 0.0
N628 N 0.31965 0.01422 0.30301 0.0
N629 N 0.24004 0.19654 0.31469 0.0
C630 C 0.30472 0.06083 0.30786 0.0
C631 C 0.25887 0.15135 0.31213 0.0
N632 N 0.29077 0.0522 0.39396 0.0
N633 N 0.25834 0.1503 0.22514 0.0
H634 H 0.22804 0.21203 0.34667 0.0
H635 H 0.24099 0.22028 0.286 0.0
H636 H 0.26562 0.13442 0.19196 0.0
H637 H 0.23057 0.17521 0.22426 0.0
H638 H 0.31113 0.02097 0.39665 0.0
H639 H 0.27775 0.06454 0.42697 0.0
H640 H 0.3175 0.98855 0.33011 0.0
H641 H 0.32922 0.99983 0.26963 0.0
C642 C 0.1525 0.02686 0.55962 0.0
C643 C 0.11665 0.05445 0.53626 0.0
C644 C 0.06328 0.04299 0.60619 0.0
C645 C 0.09918 0.0157 0.62901 0.0
N646 N 0.18148 0.99203 0.63432 0.0
N647 N 0.04168 0.09728 0.5424 0.0
C648 C 0.14519 0.01159 0.60792 0.0
C649 C 0.07302 0.06485 0.56101 0.0
N650 N 0.19296 0.01414 0.53492 0.0
N651 N 0.01907 0.04623 0.62712 0.0
H652 H 0.04606 0.11167 0.50836 0.0
H653 H 0.013 0.11176 0.56155 0.0
H654 H 0.01247 0.03309 0.66167 0.0
H655 H 0.98894 0.05989 0.60981 0.0
H656 H 0.21879 0.99073 0.54826 0.0
H657 H 0.19853 0.02373 0.49907 0.0
H658 H 0.21703 0.99074 0.62293 0.0
H659 H 0.17632 0.98132 0.66993 0.0
C660 C 0.24757 0.85533 0.74625 0.0
C661 C 0.2123 0.88872 0.7604 0.0
C662 C 0.24443 0.89048 0.8424 0.0
C663 C 0.27342 0.85023 0.8309 0.0
N664 N 0.30646 0.79618 0.77147 0.0
N665 N 0.19613 0.95621 0.81186 0.0
C666 C 0.27673 0.83371 0.7824 0.0
C667 C 0.21703 0.91219 0.80551 0.0
N668 N 0.25537 0.84715 0.69853 0.0
N669 N 0.24246 0.90747 0.88856 0.0
H670 H 0.17804 0.97337 0.78385 0.0
H671 H 0.20102 0.97763 0.84227 0.0
H672 H 0.26287 0.89324 0.91648 0.0
H673 H 0.21814 0.93348 0.9 0.0
H674 H 0.28454 0.82788 0.68544 0.0
H675 H 0.23674 0.86556 0.67187 0.0
H676 H 0.309 0.78055 0.73757 0.0
H677 H 0.32649 0.77824 0.79743 0.0
C678 C 0.38111 0.95383 0.07946 0.0
C679 C 0.42711 0.96881 0.09422 0.0
C680 C 0.45787 0.94895 0.01304 0.0
C681 C 0.4115 0.93351 0.99831 0.0
N682 N 0.32703 0.94918 0.01245 0.0
N683 N 0.51139 0.97016 0.0791 0.0
C684 C 0.37231 0.94316 0.03023 0.0
C685 C 0.46611 0.96316 0.06205 0.0
N686 N 0.34509 0.95183 0.11263 0.0
N687 N 0.49215 0.9569 0.97914 0.0
H688 H 0.51749 0.97758 0.11541 0.0
H689 H 0.54221 0.96342 0.05902 0.0
H690 H 0.48561 0.95228 0.94253 0.0
H691 H 0.52383 0.97533 0.98674 0.0
H692 H 0.31141 0.93718 0.10513 0.0
H693 H 0.35108 0.96017 0.14881 0.0
H694 H 0.29792 0.95921 0.03372 0.0
H695 H 0.32019 0.9529 0.97579 0.0
C696 C 0.83159 0.35881 0.65901 0.0
C697 C 0.82464 0.40535 0.68005 0.0
C698 C 0.77309 0.42703 0.612 0.0
C699 C 0.77555 0.37907 0.59422 0.0
N700 N 0.80398 0.29784 0.60258 0.0
N701 N 0.78443 0.48165 0.67948 0.0
C702 C 0.8044 0.34467 0.61794 0.0
C703 C 0.79403 0.43885 0.6573 0.0
N704 N 0.86514 0.32835 0.67783 0.0
N705 N 0.75047 0.46118 0.58501 0.0
H706 H 0.79827 0.49007 0.71322 0.0
H707 H 0.75944 0.50642 0.667 0.0
H708 H 0.73559 0.45317 0.55145 0.0
H709 H 0.75036 0.49774 0.59345 0.0
H710 H 0.87681 0.29719 0.66053 0.0
H711 H 0.88309 0.3354 0.70999 0.0
H712 H 0.81906 0.26958 0.62187 0.0
H713 H 0.78637 0.28681 0.57133 0.0
C714 C 0.93009 0.58289 0.86522 0.0
C715 C 0.90221 0.55954 0.8295 0.0
C716 C 0.83118 0.5649 0.88144 0.0
C717 C 0.85955 0.58579 0.91863 0.0
N718 N 0.93339 0.62607 0.94093 0.0
N719 N 0.82477 0.54393 0.79656 0.0
C720 C 0.90837 0.59804 0.90912 0.0
C721 C 0.85205 0.55604 0.83538 0.0
N722 N 0.97823 0.58822 0.85748 0.0
N723 N 0.78481 0.55184 0.8908 0.0
H724 H 0.84029 0.53994 0.76266 0.0
H725 H 0.78743 0.54336 0.79669 0.0
H726 H 0.76893 0.55667 0.92446 0.0
H727 H 0.76343 0.53267 0.86672 0.0
H728 H 0.00265 0.59925 0.88361 0.0
H729 H 0.99376 0.58001 0.82426 0.0
H730 H 0.96687 0.64099 0.9335 0.0
H731 H 0.91928 0.63797 0.97349 0.0
C732 C 0.70898 0.61188 0.1402 0.0
C733 C 0.70305 0.65198 0.10854 0.0
C734 C 0.66948 0.69813 0.17684 0.0
C735 C 0.67573 0.65821 0.20754 0.0
N736 N 0.71485 0.58364 0.22269 0.0
N737 N 0.66023 0.72637 0.09509 0.0
C738 C 0.7005 0.61753 0.19043 0.0
C739 C 0.67884 0.6936 0.12646 0.0
N740 N 0.71703 0.56691 0.12183 0.0
N741 N 0.65411 0.74042 0.19651 0.0
H742 H 0.65945 0.72057 0.05808 0.0
H743 H 0.63966 0.75576 0.10578 0.0
H744 H 0.64705 0.74347 0.23331 0.0
H745 H 0.65306 0.77281 0.17773 0.0
H746 H 0.7185 0.53599 0.1429 0.0
H747 H 0.71432 0.55921 0.08522 0.0
H748 H 0.7367 0.55459 0.21367 0.0
H749 H 0.70906 0.58829 0.25952 0.0
C750 C 0.66001 0.46354 0.39668 0.0
C751 C 0.62325 0.44161 0.42463 0.0
C752 C 0.56487 0.46 0.36078 0.0
C753 C 0.60029 0.48638 0.33612 0.0
N754 N 0.68309 0.50071 0.32067 0.0
N755 N 0.53981 0.42054 0.43446 0.0
C756 C 0.64863 0.48337 0.35092 0.0
C757 C 0.57534 0.44008 0.40684 0.0
N758 N 0.70544 0.46659 0.41498 0.0
N759 N 0.52162 0.45346 0.33893 0.0
H760 H 0.54625 0.40716 0.46873 0.0
H761 H 0.50362 0.42112 0.42537 0.0
H762 H 0.51569 0.46648 0.30427 0.0
H763 H 0.49426 0.43173 0.35235 0.0
H764 H 0.73368 0.48446 0.39821 0.0
H765 H 0.71409 0.45396 0.44921 0.0
H766 H 0.7198 0.49834 0.32684 0.0
H767 H 0.67395 0.51408 0.28683 0.0
C768 C 0.27802 0.28679 0.13833 0.0
C769 C 0.28351 0.32159 0.10173 0.0
C770 C 0.37035 0.30165 0.0986 0.0
C771 C 0.36488 0.27351 0.14063 0.0
N772 N 0.31576 0.24545 0.20496 0.0
N773 N 0.33373 0.3534 0.03848 0.0
C774 C 0.31936 0.26909 0.16223 0.0
C775 C 0.32967 0.32666 0.07945 0.0
N776 N 0.23434 0.2663 0.1466 0.0
N777 N 0.41395 0.30242 0.07611 0.0
H778 H 0.30374 0.36433 0.01892 0.0
H779 H 0.36615 0.36375 0.02309 0.0
H780 H 0.4441 0.28588 0.09088 0.0
H781 H 0.42052 0.31847 0.04302 0.0
H782 H 0.23029 0.23626 0.16844 0.0
H783 H 0.20435 0.27319 0.12547 0.0
H784 H 0.28375 0.24116 0.22302 0.0
H785 H 0.34568 0.23331 0.22396 0.0
C786 C 0.78592 0.27895 0.8136 0.0
C787 C 0.82833 0.28097 0.84236 0.0
C788 C 0.78626 0.23864 0.90669 0.0
C789 C 0.74881 0.22733 0.87428 0.0
N790 N 0.70447 0.24714 0.80388 0.0
N791 N 0.86867 0.26439 0.91727 0.0
C792 C 0.74585 0.25109 0.82976 0.0
C793 C 0.82826 0.26166 0.88947 0.0
N794 N 0.78458 0.30319 0.77094 0.0
N795 N 0.7814 0.22575 0.95377 0.0
H796 H 0.90016 0.28134 0.90599 0.0
H797 H 0.87233 0.24697 0.95014 0.0
H798 H 0.75029 0.2089 0.96626 0.0
H799 H 0.80541 0.23563 0.98073 0.0
H800 H 0.75561 0.3033 0.74748 0.0
H801 H 0.81318 0.3241 0.75888 0.0
H802 H 0.69796 0.26475 0.77167 0.0
H803 H 0.67506 0.2276 0.8166 0.0
C804 C 0.03844 0.54938 0.08345 0.0
C805 C 0.03434 0.52582 0.12859 0.0
C806 C 0.98018 0.58906 0.15704 0.0
C807 C 0.98099 0.61024 0.11067 0.0
N808 N 0.00866 0.60982 0.02858 0.0
N809 N -0.00174 0.51938 0.20662 0.0
C810 C 0.0098 0.59038 0.07363 0.0
C811 C 0.00407 0.54457 0.16486 0.0
N812 N 0.07186 0.53413 0.05088 0.0
N813 N 0.95695 0.61235 0.19358 0.0
H814 H 0.01521 0.48641 0.2125 0.0
H815 H 0.97397 0.52874 0.23346 0.0
H816 H 0.94046 0.64571 0.18861 0.0
H817 H 0.95752 0.6012 0.22925 0.0
H818 H 0.08148 0.55377 0.02059 0.0
H819 H 0.09213 0.50303 0.05551 0.0
H820 H 0.02258 0.59282 0.99823 0.0
H821 H 0.99236 0.64266 0.02118 0.0
C822 C 0.65976 0.84063 0.3571 0.0
C823 C 0.67748 0.83669 0.405 0.0
C824 C 0.6037 0.79543 0.42952 0.0
C825 C 0.58872 0.79495 0.38092 0.0
N826 N 0.59331 0.82684 0.30149 0.0
N827 N 0.66291 0.82046 0.48882 0.0
C828 C 0.61367 0.82161 0.34586 0.0
C829 C 0.64813 0.81751 0.44202 0.0
N830 N 0.6874 0.86198 0.32245 0.0
N831 N 0.57633 0.77181 0.46273 0.0
H832 H 0.69636 0.8343 0.49868 0.0
H833 H 0.64167 0.81104 0.51809 0.0
H834 H 0.54266 0.75781 0.45383 0.0
H835 H 0.58667 0.76549 0.49807 0.0
H836 H 0.678 0.86391 0.28639 0.0
H837 H 0.72122 0.87658 0.32927 0.0
H838 H 0.60777 0.84719 0.27368 0.0
H839 H 0.5593 0.81291 0.2938 0.0
C840 C 0.45789 0.37623 0.55437 0.0
C841 C 0.48998 0.34976 0.58367 0.0
C842 C 0.4857 0.41421 0.64501 0.0
C843 C 0.45156 0.43917 0.61709 0.0
N844 N 0.4007 0.44113 0.54742 0.0
N845 N 0.52629 0.33867 0.66098 0.0
C846 C 0.4371 0.41963 0.57197 0.0
C847 C 0.50136 0.36742 0.63033 0.0
N848 N 0.44874 0.36045 0.50864 0.0
N849 N 0.5025 0.43543 0.68603 0.0
H850 H 0.53481 0.30344 0.65177 0.0
H851 H 0.53356 0.34741 0.69665 0.0
H852 H 0.49136 0.46977 0.69653 0.0
H853 H 0.53013 0.42141 0.70682 0.0
H854 H 0.43133 0.38103 0.48276 0.0
H855 H 0.46056 0.32701 0.49613 0.0
H856 H 0.38278 0.42485 0.51884 0.0
H857 H 0.38671 0.47436 0.55777 0.0
C858 C 0.2149 0.69313 0.66591 0.0
C859 C 0.20403 0.64689 0.64694 0.0
C860 C 0.11803 0.67015 0.64679 0.0
C861 C 0.12955 0.71355 0.67055 0.0
N862 N 0.18742 0.75584 0.71919 0.0
N863 N 0.13947 0.58705 0.63705 0.0
C864 C 0.17745 0.72136 0.68569 0.0
C865 C 0.15391 0.63388 0.64237 0.0
N866 N 0.25973 0.71252 0.66186 0.0
N867 N 0.07341 0.66346 0.62767 0.0
H868 H 0.16206 0.55762 0.64023 0.0
H869 H 0.10344 0.57683 0.63725 0.0
H870 H 0.04607 0.68879 0.63117 0.0
H871 H 0.06505 0.63442 0.60527 0.0
H872 H 0.26712 0.74775 0.67237 0.0
H873 H 0.28704 0.6971 0.64153 0.0
H874 H 0.22115 0.75834 0.7351 0.0
H875 H 0.16076 0.77689 0.73512 0.0
C876 C 0.55667 0.86389 0.8559 0.0
C877 C 0.54955 0.85009 0.90477 0.0
C878 C 0.58804 0.92758 0.9276 0.0
C879 C 0.58298 0.94498 0.87947 0.0
N880 N 0.55725 0.92909 0.79842 0.0
N881 N 0.56651 0.86809 0.98813 0.0
C882 C 0.56538 0.91292 0.844 0.0
C883 C 0.56763 0.8817 0.94107 0.0
N884 N 0.55846 0.82945 0.82076 0.0
N885 N 0.61466 0.95349 0.95991 0.0
H886 H 0.56029 0.83278 0.99896 0.0
H887 H 0.57239 0.8919 0.01653 0.0
H888 H 0.62971 0.98694 0.95197 0.0
H889 H 0.62478 0.94039 0.99344 0.0
H890 H 0.56706 0.83722 0.78512 0.0
H891 H 0.55832 0.7927 0.82865 0.0
H892 H 0.5406 0.90797 0.77218 0.0
H893 H 0.56276 0.96495 0.78852 0.0
C894 C 0.95836 0.00626 0.42569 0.0
C895 C 0.95584 0.98865 0.37783 0.0
C896 C 0.98354 0.06723 0.34847 0.0
C897 C 0.98518 0.08616 0.39623 0.0
N898 N 0.95869 0.07605 0.4783 0.0
N899 N 0.98289 0.99658 0.29679 0.0
C900 C 0.9689 0.05621 0.4346 0.0
C901 C 0.97494 0.01733 0.3406 0.0
N902 N 0.95213 0.9748 0.46274 0.0
N903 N 0.98524 0.09796 0.31018 0.0
H904 H 0.97607 0.95998 0.29084 0.0
H905 H 0.00048 0.01412 0.26875 0.0
H906 H 0.98474 0.13534 0.31433 0.0
H907 H 0.98033 0.08683 0.27471 0.0
H908 H 0.95959 0.98368 0.49834 0.0
H909 H 0.94636 0.9381 0.45705 0.0
H910 H 0.94444 0.05663 0.50692 0.0
H911 H 0.95811 0.11307 0.48418 0.0
loop_
_geom_bond_atom_site_label_1
_geom_bond_atom_site_label_2
_geom_bond_distance
_geom_bond_site_symmetry_2
_ccdc_geom_bond_type
Sc0 O3 2.025 . S
Sc0 O10 2.105 . S
Sc0 O13 2.105 . S
Sc0 O16 2.105 . S
Sc0 O19 2.105 . S
Sc1 O3 2.025 . S
Sc1 O11 2.105 . S
Sc1 O15 2.105 . S
Sc1 O17 2.105 . S
Sc1 O21 2.105 . S
Sc2 O3 2.025 . S
Sc2 O12 2.105 . S
Sc2 O14 2.105 . S
Sc2 O18 2.105 . S
Sc2 O20 2.105 . S
O3 Sc0 2.025 . S
O3 Sc1 2.025 . S
O3 Sc2 2.025 . S
C4 O10 1.268 . S
C4 O20 1.268 . S
C5 O11 1.268 . S
C5 O19 1.268 . S
C6 O12 1.268 . S
C6 O21 1.268 . S
C7 O13 1.268 . S
C7 O17 1.268 . S
C8 O14 1.268 . S
C8 O16 1.268 . S
C9 O15 1.268 . S
C9 O18 1.268 . S
O10 Sc0 2.105 . S
O10 C4 1.268 . S
O11 Sc1 2.105 . S
O11 C5 1.268 . S
O12 Sc2 2.105 . S
O12 C6 1.268 . S
O13 Sc0 2.105 . S
O13 C7 1.268 . S
O14 Sc2 2.105 . S
O14 C8 1.268 . S
O15 Sc1 2.105 . S
O15 C9 1.268 . S
O16 Sc0 2.105 . S
O16 C8 1.268 . S
O17 Sc1 2.105 . S
O17 C7 1.268 . S
O18 Sc2 2.105 . S
O18 C9 1.268 . S
O19 Sc0 2.105 . S
O19 C5 1.268 . S
O20 Sc2 2.105 . S
O20 C4 1.268 . S
O21 Sc1 2.105 . S
O21 C6 1.268 . S
Sc22 O25 2.025 . S
Sc22 O32 2.105 . S
Sc22 O35 2.105 . S
Sc22 O38 2.105 . S
Sc22 O41 2.105 . S
Sc23 O25 2.025 1_655 S
Sc23 O33 2.105 1_655 S
Sc23 O37 2.105 . S
Sc23 O39 2.105 . S
Sc23 O43 2.105 . S
Sc24 O25 2.025 . S
Sc24 O34 2.105 . S
Sc24 O36 2.105 . S
Sc24 O40 2.105 1_455 S
Sc24 O42 2.105 . S
O25 Sc22 2.025 . S
O25 Sc23 2.025 1_455 S
O25 Sc24 2.025 . S
C26 O32 1.268 . S
C26 O42 1.268 . S
C27 O33 1.268 . S
C27 O41 1.268 . S
C28 O34 1.268 . S
C28 O43 1.268 1_455 S
C29 O35 1.268 . S
C29 O39 1.268 1_455 S
C30 O36 1.268 . S
C30 O38 1.268 . S
C31 O37 1.268 . S
C31 O40 1.268 . S
O32 Sc22 2.105 . S
O32 C26 1.268 . S
O33 Sc23 2.105 1_455 S
O33 C27 1.268 . S
O34 Sc24 2.105 . S
O34 C28 1.268 . S
O35 Sc22 2.105 . S
O35 C29 1.268 . S
O36 Sc24 2.105 . S
O36 C30 1.268 . S
O37 Sc23 2.105 . S
O37 C31 1.268 . S
O38 Sc22 2.105 . S
O38 C30 1.268 . S
O39 Sc23 2.105 . S
O39 C29 1.268 1_655 S
O40 Sc24 2.105 1_655 S
O40 C31 1.268 . S
O41 Sc22 2.105 . S
O41 C27 1.268 . S
O42 Sc24 2.105 . S
O42 C26 1.268 . S
O43 Sc23 2.105 . S
O43 C28 1.268 1_655 S
Sc44 O47 2.025 . S
Sc44 O54 2.105 . S
Sc44 O57 2.105 . S
Sc44 O60 2.105 . S
Sc44 O63 2.105 1_556 S
Sc45 O47 2.025 1_554 S
Sc45 O55 2.105 . S
Sc45 O59 2.105 1_554 S
Sc45 O61 2.105 . S
Sc45 O65 2.105 . S
Sc46 O47 2.025 . S
Sc46 O56 2.105 . S
Sc46 O58 2.105 . S
Sc46 O62 2.105 . S
Sc46 O64 2.105 . S
O47 Sc44 2.025 . S
O47 Sc45 2.025 1_556 S
O47 Sc46 2.025 . S
C48 O54 1.268 . S
C48 O64 1.268 . S
C49 O55 1.268 . S
C49 O63 1.268 . S
C50 O56 1.268 . S
C50 O65 1.268 1_556 S
C51 O57 1.268 . S
C51 O61 1.268 1_556 S
C52 O58 1.268 . S
C52 O60 1.268 . S
C53 O59 1.268 . S
C53 O62 1.268 . S
O54 Sc44 2.105 . S
O54 C48 1.268 . S
O55 Sc45 2.105 . S
O55 C49 1.268 . S
O56 Sc46 2.105 . S
O56 C50 1.268 . S
O57 Sc44 2.105 . S
O57 C51 1.268 . S
O58 Sc46 2.105 . S
O58 C52 1.268 . S
O59 Sc45 2.105 1_556 S
O59 C53 1.268 . S
O60 Sc44 2.105 . S
O60 C52 1.268 . S
O61 Sc45 2.105 . S
O61 C51 1.268 1_554 S
O62 Sc46 2.105 . S
O62 C53 1.268 . S
O63 Sc44 2.105 1_554 S
O63 C49 1.268 . S
O64 Sc46 2.105 . S
O64 C48 1.268 . S
O65 Sc45 2.105 . S
O65 C50 1.268 1_554 S
Sc66 O69 2.025 . S
Sc66 O76 2.105 . S
Sc66 O79 2.105 . S
Sc66 O82 2.105 . S
Sc66 O85 2.105 . S
Sc67 O69 2.025 . S
Sc67 O77 2.105 . S
Sc67 O81 2.105 . S
Sc67 O83 2.105 . S
Sc67 O87 2.105 . S
Sc68 O69 2.025 . S
Sc68 O78 2.105 . S
Sc68 O80 2.105 . S
Sc68 O84 2.105 . S
Sc68 O86 2.105 . S
O69 Sc66 2.025 . S
O69 Sc67 2.025 . S
O69 Sc68 2.025 . S
C70 O76 1.268 . S
C70 O86 1.268 . S
C71 O77 1.268 . S
C71 O85 1.268 . S
C72 O78 1.268 . S
C72 O87 1.268 . S
C73 O79 1.268 . S
C73 O83 1.268 . S
C74 O80 1.268 . S
C74 O82 1.268 . S
C75 O81 1.268 . S
C75 O84 1.268 . S
O76 Sc66 2.105 . S
O76 C70 1.268 . S
O77 Sc67 2.105 . S
O77 C71 1.268 . S
O78 Sc68 2.105 . S
O78 C72 1.268 . S
O79 Sc66 2.105 . S
O79 C73 1.268 . S
O80 Sc68 2.105 . S
O80 C74 1.268 . S
O81 Sc67 2.105 . S
O81 C75 1.268 . S
O82 Sc66 2.105 . S
O82 C74 1.268 . S
O83 Sc67 2.105 . S
O83 C73 1.268 . S
O84 Sc68 2.105 . S
O84 C75 1.268 . S
O85 Sc66 2.105 . S
O85 C71 1.268 . S
O86 Sc68 2.105 . S
O86 C70 1.268 . S
O87 Sc67 2.105 . S
O87 C72 1.268 . S
Sc88 O91 2.025 . S
Sc88 O98 2.105 . S
Sc88 O101 2.105 . S
Sc88 O104 2.105 . S
Sc88 O107 2.105 . S
Sc89 O91 2.025 . S
Sc89 O99 2.105 . S
Sc89 O103 2.105 . S
Sc89 O105 2.105 . S
Sc89 O109 2.105 . S
Sc90 O91 2.025 . S
Sc90 O100 2.105 . S
Sc90 O102 2.105 . S
Sc90 O106 2.105 . S
Sc90 O108 2.105 . S
O91 Sc88 2.025 . S
O91 Sc89 2.025 . S
O91 Sc90 2.025 . S
C92 O98 1.268 . S
C92 O108 1.268 . S
C93 O99 1.268 . S
C93 O107 1.268 . S
C94 O100 1.268 . S
C94 O109 1.268 . S
C95 O101 1.268 . S
C95 O105 1.268 . S
C96 O102 1.268 . S
C96 O104 1.268 . S
C97 O103 1.268 . S
C97 O106 1.268 . S
O98 Sc88 2.105 . S
O98 C92 1.268 . S
O99 Sc89 2.105 . S
O99 C93 1.268 . S
O100 Sc90 2.105 . S
O100 C94 1.268 . S
O101 Sc88 2.105 . S
O101 C95 1.268 . S
O102 Sc90 2.105 . S
O102 C96 1.268 . S
O103 Sc89 2.105 . S
O103 C97 1.268 . S
O104 Sc88 2.105 . S
O104 C96 1.268 . S
O105 Sc89 2.105 . S
O105 C95 1.268 . S
O106 Sc90 2.105 . S
O106 C97 1.268 . S
O107 Sc88 2.105 . S
O107 C93 1.268 . S
O108 Sc90 2.105 . S
O108 C92 1.268 . S
O109 Sc89 2.105 . S
O109 C94 1.268 . S
Sc110 O113 2.025 . S
Sc110 O120 2.105 . S
Sc110 O123 2.105 . S
Sc110 O126 2.105 . S
Sc110 O129 2.105 1_655 S
Sc111 O113 2.025 1_455 S
Sc111 O121 2.105 . S
Sc111 O125 2.105 1_455 S
Sc111 O127 2.105 . S
Sc111 O131 2.105 . S
Sc112 O113 2.025 . S
Sc112 O122 2.105 . S
Sc112 O124 2.105 . S
Sc112 O128 2.105 . S
Sc112 O130 2.105 . S
O113 Sc110 2.025 . S
O113 Sc111 2.025 1_655 S
O113 Sc112 2.025 . S
C114 O120 1.268 . S
C114 O130 1.268 . S
C115 O121 1.268 . S
C115 O129 1.268 . S
C116 O122 1.268 . S
C116 O131 1.268 1_655 S
C117 O123 1.268 . S
C117 O127 1.268 1_655 S
C118 O124 1.268 . S
C118 O126 1.268 . S
C119 O125 1.268 . S
C119 O128 1.268 . S
O120 Sc110 2.105 . S
O120 C114 1.268 . S
O121 Sc111 2.105 . S
O121 C115 1.268 . S
O122 Sc112 2.105 . S
O122 C116 1.268 . S
O123 Sc110 2.105 . S
O123 C117 1.268 . S
O124 Sc112 2.105 . S
O124 C118 1.268 . S
O125 Sc111 2.105 1_655 S
O125 C119 1.268 . S
O126 Sc110 2.105 . S
O126 C118 1.268 . S
O127 Sc111 2.105 . S
O127 C117 1.268 1_455 S
O128 Sc112 2.105 . S
O128 C119 1.268 . S
O129 Sc110 2.105 1_455 S
O129 C115 1.268 . S
O130 Sc112 2.105 . S
O130 C114 1.268 . S
O131 Sc111 2.105 . S
O131 C116 1.268 1_455 S
Sc132 O135 2.025 . S
Sc132 O142 2.105 . S
Sc132 O145 2.105 . S
Sc132 O148 2.105 . S
Sc132 O151 2.105 1_554 S
Sc133 O135 2.025 1_556 S
Sc133 O143 2.105 . S
Sc133 O147 2.105 1_556 S
Sc133 O149 2.105 . S
Sc133 O153 2.105 . S
Sc134 O135 2.025 . S
Sc134 O144 2.105 . S
Sc134 O146 2.105 . S
Sc134 O150 2.105 . S
Sc134 O152 2.105 . S
O135 Sc132 2.025 . S
O135 Sc133 2.025 1_554 S
O135 Sc134 2.025 . S
C136 O142 1.268 . S
C136 O152 1.268 . S
C137 O143 1.268 . S
C137 O151 1.268 . S
C138 O144 1.268 . S
C138 O153 1.268 1_554 S
C139 O145 1.268 . S
C139 O149 1.268 1_554 S
C140 O146 1.268 . S
C140 O148 1.268 . S
C141 O147 1.268 . S
C141 O150 1.268 . S
O142 Sc132 2.105 . S
O142 C136 1.268 . S
O143 Sc133 2.105 . S
O143 C137 1.268 . S
O144 Sc134 2.105 . S
O144 C138 1.268 . S
O145 Sc132 2.105 . S
O145 C139 1.268 . S
O146 Sc134 2.105 . S
O146 C140 1.268 . S
O147 Sc133 2.105 1_554 S
O147 C141 1.268 . S
O148 Sc132 2.105 . S
O148 C140 1.268 . S
O149 Sc133 2.105 . S
O149 C139 1.268 1_556 S
O150 Sc134 2.105 . S
O150 C141 1.268 . S
O151 Sc132 2.105 1_556 S
O151 C137 1.268 . S
O152 Sc134 2.105 . S
O152 C136 1.268 . S
O153 Sc133 2.105 . S
O153 C138 1.268 1_556 S
Sc154 O157 2.025 . S
Sc154 O164 2.105 . S
Sc154 O167 2.105 . S
Sc154 O170 2.105 . S
Sc154 O173 2.105 . S
Sc155 O157 2.025 . S
Sc155 O165 2.105 . S
Sc155 O169 2.105 . S
Sc155 O171 2.105 . S
Sc155 O175 2.105 . S
Sc156 O157 2.025 . S
Sc156 O166 2.105 . S
Sc156 O168 2.105 . S
Sc156 O172 2.105 . S
Sc156 O174 2.105 . S
O157 Sc154 2.025 . S
O157 Sc155 2.025 . S
O157 Sc156 2.025 . S
C158 O164 1.268 . S
C158 O174 1.268 . S
C159 O165 1.268 . S
C159 O173 1.268 . S
C160 O166 1.268 . S
C160 O175 1.268 . S
C161 O167 1.268 . S
C161 O171 1.268 . S
C162 O168 1.268 . S
C162 O170 1.268 . S
C163 O169 1.268 . S
C163 O172 1.268 . S
O164 Sc154 2.105 . S
O164 C158 1.268 . S
O165 Sc155 2.105 . S
O165 C159 1.268 . S
O166 Sc156 2.105 . S
O166 C160 1.268 . S
O167 Sc154 2.105 . S
O167 C161 1.268 . S
O168 Sc156 2.105 . S
O168 C162 1.268 . S
O169 Sc155 2.105 . S
O169 C163 1.268 . S
O170 Sc154 2.105 . S
O170 C162 1.268 . S
O171 Sc155 2.105 . S
O171 C161 1.268 . S
O172 Sc156 2.105 . S
O172 C163 1.268 . S
O173 Sc154 2.105 . S
O173 C159 1.268 . S
O174 Sc156 2.105 . S
O174 C158 1.268 . S
O175 Sc155 2.105 . S
O175 C160 1.268 . S
Sc176 O179 2.025 . S
Sc176 O186 2.105 . S
Sc176 O189 2.105 . S
Sc176 O192 2.105 . S
Sc176 O195 2.105 . S
Sc177 O179 2.025 . S
Sc177 O187 2.105 . S
Sc177 O191 2.105 . S
Sc177 O193 2.105 . S
Sc177 O197 2.105 . S
Sc178 O179 2.025 . S
Sc178 O188 2.105 . S
Sc178 O190 2.105 . S
Sc178 O194 2.105 . S
Sc178 O196 2.105 . S
O179 Sc176 2.025 . S
O179 Sc177 2.025 . S
O179 Sc178 2.025 . S
C180 O186 1.268 . S
C180 O196 1.268 . S
C181 O187 1.268 . S
C181 O195 1.268 . S
C182 O188 1.268 . S
C182 O197 1.268 . S
C183 O189 1.268 . S
C183 O193 1.268 . S
C184 O190 1.268 . S
C184 O192 1.268 . S
C185 O191 1.268 . S
C185 O194 1.268 . S
O186 Sc176 2.105 . S
O186 C180 1.268 . S
O187 Sc177 2.105 . S
O187 C181 1.268 . S
O188 Sc178 2.105 . S
O188 C182 1.268 . S
O189 Sc176 2.105 . S
O189 C183 1.268 . S
O190 Sc178 2.105 . S
O190 C184 1.268 . S
O191 Sc177 2.105 . S
O191 C185 1.268 . S
O192 Sc176 2.105 . S
O192 C184 1.268 . S
O193 Sc177 2.105 . S
O193 C183 1.268 . S
O194 Sc178 2.105 . S
O194 C185 1.268 . S
O195 Sc176 2.105 . S
O195 C181 1.268 . S
O196 Sc178 2.105 . S
O196 C180 1.268 . S
O197 Sc177 2.105 . S
O197 C182 1.268 . S
Sc198 O201 2.025 1_565 S
Sc198 O208 2.105 1_565 S
Sc198 O211 2.105 . S
Sc198 O214 2.105 . S
Sc198 O217 2.105 . S
Sc199 O201 2.025 . S
Sc199 O209 2.105 . S
Sc199 O213 2.105 . S
Sc199 O215 2.105 1_545 S
Sc199 O219 2.105 . S
Sc200 O201 2.025 . S
Sc200 O210 2.105 . S
Sc200 O212 2.105 . S
Sc200 O216 2.105 . S
Sc200 O218 2.105 . S
O201 Sc198 2.025 1_545 S
O201 Sc199 2.025 . S
O201 Sc200 2.025 . S
C202 O208 1.268 . S
C202 O218 1.268 . S
C203 O209 1.268 . S
C203 O217 1.268 1_545 S
C204 O210 1.268 . S
C204 O219 1.268 . S
C205 O211 1.268 . S
C205 O215 1.268 . S
C206 O212 1.268 . S
C206 O214 1.268 1_545 S
C207 O213 1.268 . S
C207 O216 1.268 . S
O208 Sc198 2.105 1_545 S
O208 C202 1.268 . S
O209 Sc199 2.105 . S
O209 C203 1.268 . S
O210 Sc200 2.105 . S
O210 C204 1.268 . S
O211 Sc198 2.105 . S
O211 C205 1.268 . S
O212 Sc200 2.105 . S
O212 C206 1.268 . S
O213 Sc199 2.105 . S
O213 C207 1.268 . S
O214 Sc198 2.105 . S
O214 C206 1.268 1_565 S
O215 Sc199 2.105 1_565 S
O215 C205 1.268 . S
O216 Sc200 2.105 . S
O216 C207 1.268 . S
O217 Sc198 2.105 . S
O217 C203 1.268 1_565 S
O218 Sc200 2.105 . S
O218 C202 1.268 . S
O219 Sc199 2.105 . S
O219 C204 1.268 . S
Sc220 O223 2.025 . S
Sc220 O230 2.105 . S
Sc220 O233 2.105 . S
Sc220 O236 2.105 . S
Sc220 O239 2.105 . S
Sc221 O223 2.025 . S
Sc221 O231 2.105 . S
Sc221 O235 2.105 . S
Sc221 O237 2.105 . S
Sc221 O241 2.105 1_565 S
Sc222 O223 2.025 1_545 S
Sc222 O232 2.105 . S
Sc222 O234 2.105 1_545 S
Sc222 O238 2.105 . S
Sc222 O240 2.105 . S
O223 Sc220 2.025 . S
O223 Sc221 2.025 . S
O223 Sc222 2.025 1_565 S
C224 O230 1.268 . S
C224 O240 1.268 1_565 S
C225 O231 1.268 . S
C225 O239 1.268 . S
C226 O232 1.268 . S
C226 O241 1.268 . S
C227 O233 1.268 . S
C227 O237 1.268 . S
C228 O234 1.268 . S
C228 O236 1.268 . S
C229 O235 1.268 . S
C229 O238 1.268 1_565 S
O230 Sc220 2.105 . S
O230 C224 1.268 . S
O231 Sc221 2.105 . S
O231 C225 1.268 . S
O232 Sc222 2.105 . S
O232 C226 1.268 . S
O233 Sc220 2.105 . S
O233 C227 1.268 . S
O234 Sc222 2.105 1_565 S
O234 C228 1.268 . S
O235 Sc221 2.105 . S
O235 C229 1.268 . S
O236 Sc220 2.105 . S
O236 C228 1.268 . S
O237 Sc221 2.105 . S
O237 C227 1.268 . S
O238 Sc222 2.105 . S
O238 C229 1.268 1_545 S
O239 Sc220 2.105 . S
O239 C225 1.268 . S
O240 Sc222 2.105 . S
O240 C224 1.268 1_545 S
O241 Sc221 2.105 1_545 S
O241 C226 1.268 . S
Sc242 O245 2.025 . S
Sc242 O252 2.105 . S
Sc242 O255 2.105 . S
Sc242 O258 2.105 . S
Sc242 O261 2.105 . S
Sc243 O245 2.025 . S
Sc243 O253 2.105 . S
Sc243 O257 2.105 . S
Sc243 O259 2.105 . S
Sc243 O263 2.105 . S
Sc244 O245 2.025 . S
Sc244 O254 2.105 . S
Sc244 O256 2.105 . S
Sc244 O260 2.105 . S
Sc244 O262 2.105 . S
O245 Sc242 2.025 . S
O245 Sc243 2.025 . S
O245 Sc244 2.025 . S
C246 O252 1.268 . S
C246 O262 1.268 . S
C247 O253 1.268 . S
C247 O261 1.268 . S
C248 O254 1.268 . S
C248 O263 1.268 . S
C249 O255 1.268 . S
C249 O259 1.268 . S
C250 O256 1.268 . S
C250 O258 1.268 . S
C251 O257 1.268 . S
C251 O260 1.268 . S
O252 Sc242 2.105 . S
O252 C246 1.268 . S
O253 Sc243 2.105 . S
O253 C247 1.268 . S
O254 Sc244 2.105 . S
O254 C248 1.268 . S
O255 Sc242 2.105 . S
O255 C249 1.268 . S
O256 Sc244 2.105 . S
O256 C250 1.268 . S
O257 Sc243 2.105 . S
O257 C251 1.268 . S
O258 Sc242 2.105 . S
O258 C250 1.268 . S
O259 Sc243 2.105 . S
O259 C249 1.268 . S
O260 Sc244 2.105 . S
O260 C251 1.268 . S
O261 Sc242 2.105 . S
O261 C247 1.268 . S
O262 Sc244 2.105 . S
O262 C246 1.268 . S
O263 Sc243 2.105 . S
O263 C248 1.268 . S
C264 C265 1.363 . S
C264 C270 1.379 . S
C264 N272 1.356 . S
C265 C264 1.363 . S
C265 C271 1.363 . S
C266 C267 1.363 . S
C266 C271 1.379 . S
C266 N273 1.356 . S
C267 C266 1.363 . S
C267 C270 1.363 . S
N268 C270 1.356 . S
N268 H280 0.984 . S
N268 H281 0.985 . S
N269 C271 1.356 . S
N269 H274 0.984 . S
N269 H275 0.985 . S
C270 C264 1.379 . S
C270 C267 1.363 . S
C270 N268 1.356 . S
C271 C265 1.363 . S
C271 C266 1.379 . S
C271 N269 1.356 . S
N272 C264 1.356 . S
N272 H278 0.984 . S
N272 H279 0.984 . S
N273 C266 1.356 . S
N273 H276 0.984 . S
N273 H277 0.985 . S
H274 N269 0.984 . S
H275 N269 0.985 . S
H276 N273 0.984 . S
H277 N273 0.985 . S
H278 N272 0.984 . S
H279 N272 0.984 . S
H280 N268 0.984 . S
H281 N268 0.985 . S
C282 C283 1.363 1_565 S
C282 C288 1.379 . S
C282 N290 1.356 . S
C283 C282 1.363 1_545 S
C283 C289 1.363 . S
C284 C285 1.363 . S
C284 C289 1.379 1_565 S
C284 N291 1.356 . S
C285 C284 1.363 . S
C285 C288 1.363 . S
N286 C288 1.356 . S
N286 H298 0.984 . S
N286 H299 0.985 . S
N287 C289 1.356 . S
N287 H292 0.984 . S
N287 H293 0.985 . S
C288 C282 1.379 . S
C288 C285 1.363 . S
C288 N286 1.356 . S
C289 C283 1.363 . S
C289 C284 1.379 1_545 S
C289 N287 1.356 . S
N290 C282 1.356 . S
N290 H296 0.984 . S
N290 H297 0.984 1_565 S
N291 C284 1.356 . S
N291 H294 0.984 . S
N291 H295 0.985 . S
H292 N287 0.984 . S
H293 N287 0.985 . S
H294 N291 0.984 . S
H295 N291 0.985 . S
H296 N290 0.984 . S
H297 N290 0.984 1_545 S
H298 N286 0.984 . S
H299 N286 0.985 . S
C300 C301 1.363 . S
C300 C306 1.379 1_556 S
C300 N308 1.356 . S
C301 C300 1.363 . S
C301 C307 1.363 1_556 S
C302 C303 1.363 . S
C302 C307 1.379 . S
C302 N309 1.356 . S
C303 C302 1.363 . S
C303 C306 1.363 . S
N304 C306 1.356 . S
N304 H316 0.984 1_554 S
N304 H317 0.985 . S
N305 C307 1.356 . S
N305 H310 0.984 . S
N305 H311 0.985 . S
C306 C300 1.379 1_554 S
C306 C303 1.363 . S
C306 N304 1.356 . S
C307 C301 1.363 1_554 S
C307 C302 1.379 . S
C307 N305 1.356 . S
N308 C300 1.356 . S
N308 H314 0.984 . S
N308 H315 0.984 . S
N309 C302 1.356 . S
N309 H312 0.984 . S
N309 H313 0.985 . S
H310 N305 0.984 . S
H311 N305 0.985 . S
H312 N309 0.984 . S
H313 N309 0.985 . S
H314 N308 0.984 . S
H315 N308 0.984 . S
H316 N304 0.984 1_556 S
H317 N304 0.985 . S
C318 C319 1.363 . S
C318 C324 1.379 . S
C318 N326 1.356 . S
C319 C318 1.363 . S
C319 C325 1.363 . S
C320 C321 1.363 1_545 S
C320 C325 1.379 . S
C320 N327 1.356 1_545 S
C321 C320 1.363 1_565 S
C321 C324 1.363 1_565 S
N322 C324 1.356 1_565 S
N322 H334 0.984 1_565 S
N322 H335 0.985 . S
N323 C325 1.356 . S
N323 H328 0.984 . S
N323 H329 0.985 . S
C324 C318 1.379 . S
C324 C321 1.363 1_545 S
C324 N322 1.356 1_545 S
C325 C319 1.363 . S
C325 C320 1.379 . S
C325 N323 1.356 . S
N326 C318 1.356 . S
N326 H332 0.984 . S
N326 H333 0.984 . S
N327 C320 1.356 1_565 S
N327 H330 0.984 . S
N327 H331 0.985 . S
H328 N323 0.984 . S
H329 N323 0.985 . S
H330 N327 0.984 . S
H331 N327 0.985 . S
H332 N326 0.984 . S
H333 N326 0.984 . S
H334 N322 0.984 1_545 S
H335 N322 0.985 . S
C336 C337 1.363 . S
C336 C342 1.379 . S
C336 N344 1.356 . S
C337 C336 1.363 . S
C337 C343 1.363 . S
C338 C339 1.363 . S
C338 C343 1.379 . S
C338 N345 1.356 . S
C339 C338 1.363 . S
C339 C342 1.363 . S
N340 C342 1.356 . S
N340 H352 0.984 . S
N340 H353 0.985 . S
N341 C343 1.356 . S
N341 H346 0.984 . S
N341 H347 0.985 . S
C342 C336 1.379 . S
C342 C339 1.363 . S
C342 N340 1.356 . S
C343 C337 1.363 . S
C343 C338 1.379 . S
C343 N341 1.356 . S
N344 C336 1.356 . S
N344 H350 0.984 . S
N344 H351 0.984 . S
N345 C338 1.356 . S
N345 H348 0.984 . S
N345 H349 0.985 . S
H346 N341 0.984 . S
H347 N341 0.985 . S
H348 N345 0.984 . S
H349 N345 0.985 . S
H350 N344 0.984 . S
H351 N344 0.984 . S
H352 N340 0.984 . S
H353 N340 0.985 . S
C354 C355 1.363 . S
C354 C360 1.379 . S
C354 N362 1.356 . S
C355 C354 1.363 . S
C355 C361 1.363 . S
C356 C357 1.363 . S
C356 C361 1.379 . S
C356 N363 1.356 . S
C357 C356 1.363 . S
C357 C360 1.363 . S
N358 C360 1.356 . S
N358 H370 0.984 . S
N358 H371 0.985 . S
N359 C361 1.356 . S
N359 H364 0.984 . S
N359 H365 0.985 . S
C360 C354 1.379 . S
C360 C357 1.363 . S
C360 N358 1.356 . S
C361 C355 1.363 . S
C361 C356 1.379 . S
C361 N359 1.356 . S
N362 C354 1.356 . S
N362 H368 0.984 . S
N362 H369 0.984 . S
N363 C356 1.356 . S
N363 H366 0.984 . S
N363 H367 0.985 . S
H364 N359 0.984 . S
H365 N359 0.985 . S
H366 N363 0.984 . S
H367 N363 0.985 . S
H368 N362 0.984 . S
H369 N362 0.984 . S
H370 N358 0.984 . S
H371 N358 0.985 . S
C372 C373 1.363 . S
C372 C378 1.379 1_556 S
C372 N380 1.356 . S
C373 C372 1.363 . S
C373 C379 1.363 . S
C374 C375 1.363 1_556 S
C374 C379 1.379 . S
C374 N381 1.356 . S
C375 C374 1.363 1_554 S
C375 C378 1.363 . S
N376 C378 1.356 . S
N376 H388 0.984 . S
N376 H389 0.985 . S
N377 C379 1.356 . S
N377 H382 0.984 . S
N377 H383 0.985 . S
C378 C372 1.379 1_554 S
C378 C375 1.363 . S
C378 N376 1.356 . S
C379 C373 1.363 . S
C379 C374 1.379 . S
C379 N377 1.356 . S
N380 C372 1.356 . S
N380 H386 0.984 1_556 S
N380 H387 0.984 . S
N381 C374 1.356 . S
N381 H384 0.984 . S
N381 H385 0.985 . S
H382 N377 0.984 . S
H383 N377 0.985 . S
H384 N381 0.984 . S
H385 N381 0.985 . S
H386 N380 0.984 1_554 S
H387 N380 0.984 . S
H388 N376 0.984 . S
H389 N376 0.985 . S
C390 C391 1.363 . S
C390 C396 1.379 . S
C390 N398 1.356 . S
C391 C390 1.363 . S
C391 C397 1.363 . S
C392 C393 1.363 . S
C392 C397 1.379 . S
C392 N399 1.356 . S
C393 C392 1.363 . S
C393 C396 1.363 . S
N394 C396 1.356 . S
N394 H406 0.984 . S
N394 H407 0.985 . S
N395 C397 1.356 . S
N395 H400 0.984 . S
N395 H401 0.985 . S
C396 C390 1.379 . S
C396 C393 1.363 . S
C396 N394 1.356 . S
C397 C391 1.363 . S
C397 C392 1.379 . S
C397 N395 1.356 . S
N398 C390 1.356 . S
N398 H404 0.984 . S
N398 H405 0.984 . S
N399 C392 1.356 . S
N399 H402 0.984 . S
N399 H403 0.985 . S
H400 N395 0.984 . S
H401 N395 0.985 . S
H402 N399 0.984 . S
H403 N399 0.985 . S
H404 N398 0.984 . S
H405 N398 0.984 . S
H406 N394 0.984 . S
H407 N394 0.985 . S
C408 C409 1.363 . S
C408 C414 1.379 . S
C408 N416 1.356 . S
C409 C408 1.363 . S
C409 C415 1.363 . S
C410 C411 1.363 . S
C410 C415 1.379 . S
C410 N417 1.356 . S
C411 C410 1.363 . S
C411 C414 1.363 . S
N412 C414 1.356 . S
N412 H424 0.984 . S
N412 H425 0.985 . S
N413 C415 1.356 . S
N413 H418 0.984 . S
N413 H419 0.985 . S
C414 C408 1.379 . S
C414 C411 1.363 . S
C414 N412 1.356 . S
C415 C409 1.363 . S
C415 C410 1.379 . S
C415 N413 1.356 . S
N416 C408 1.356 . S
N416 H422 0.984 . S
N416 H423 0.984 . S
N417 C410 1.356 . S
N417 H420 0.984 . S
N417 H421 0.985 . S
H418 N413 0.984 . S
H419 N413 0.985 . S
H420 N417 0.984 . S
H421 N417 0.985 . S
H422 N416 0.984 . S
H423 N416 0.984 . S
H424 N412 0.984 . S
H425 N412 0.985 . S
C426 C427 1.363 . S
C426 C432 1.379 . S
C426 N434 1.356 . S
C427 C426 1.363 . S
C427 C433 1.363 . S
C428 C429 1.363 1_455 S
C428 C433 1.379 . S
C428 N435 1.356 1_455 S
C429 C428 1.363 1_655 S
C429 C432 1.363 1_655 S
N430 C432 1.356 1_655 S
N430 H442 0.984 . S
N430 H443 0.985 . S
N431 C433 1.356 . S
N431 H436 0.984 . S
N431 H437 0.985 . S
C432 C426 1.379 . S
C432 C429 1.363 1_455 S
C432 N430 1.356 1_455 S
C433 C427 1.363 . S
C433 C428 1.379 . S
C433 N431 1.356 . S
N434 C426 1.356 . S
N434 H440 0.984 . S
N434 H441 0.984 . S
N435 C428 1.356 1_655 S
N435 H438 0.984 . S
N435 H439 0.985 . S
H436 N431 0.984 . S
H437 N431 0.985 . S
H438 N435 0.984 . S
H439 N435 0.985 . S
H440 N434 0.984 . S
H441 N434 0.984 . S
H442 N430 0.984 . S
H443 N430 0.985 . S
C444 C445 1.363 1_655 S
C444 C450 1.379 . S
C444 N452 1.356 . S
C445 C444 1.363 1_455 S
C445 C451 1.363 . S
C446 C447 1.363 . S
C446 C451 1.379 1_655 S
C446 N453 1.356 . S
C447 C446 1.363 . S
C447 C450 1.363 . S
N448 C450 1.356 . S
N448 H460 0.984 . S
N448 H461 0.985 . S
N449 C451 1.356 . S
N449 H454 0.984 . S
N449 H455 0.985 . S
C450 C444 1.379 . S
C450 C447 1.363 . S
C450 N448 1.356 . S
C451 C445 1.363 . S
C451 C446 1.379 1_455 S
C451 N449 1.356 . S
N452 C444 1.356 . S
N452 H458 0.984 . S
N452 H459 0.984 1_655 S
N453 C446 1.356 . S
N453 H456 0.984 . S
N453 H457 0.985 . S
H454 N449 0.984 . S
H455 N449 0.985 . S
H456 N453 0.984 . S
H457 N453 0.985 . S
H458 N452 0.984 . S
H459 N452 0.984 1_455 S
H460 N448 0.984 . S
H461 N448 0.985 . S
C462 C463 1.363 . S
C462 C468 1.379 . S
C462 N470 1.356 . S
C463 C462 1.363 . S
C463 C469 1.363 . S
C464 C465 1.363 . S
C464 C469 1.379 . S
C464 N471 1.356 . S
C465 C464 1.363 . S
C465 C468 1.363 . S
N466 C468 1.356 . S
N466 H478 0.984 . S
N466 H479 0.985 . S
N467 C469 1.356 . S
N467 H472 0.984 . S
N467 H473 0.985 . S
C468 C462 1.379 . S
C468 C465 1.363 . S
C468 N466 1.356 . S
C469 C463 1.363 . S
C469 C464 1.379 . S
C469 N467 1.356 . S
N470 C462 1.356 . S
N470 H476 0.984 . S
N470 H477 0.984 . S
N471 C464 1.356 . S
N471 H474 0.984 . S
N471 H475 0.985 . S
H472 N467 0.984 . S
H473 N467 0.985 . S
H474 N471 0.984 . S
H475 N471 0.985 . S
H476 N470 0.984 . S
H477 N470 0.984 . S
H478 N466 0.984 . S
H479 N466 0.985 . S
C480 C481 1.363 . S
C480 C486 1.379 . S
C480 N488 1.356 . S
C481 C480 1.363 . S
C481 C487 1.363 . S
C482 C483 1.363 . S
C482 C487 1.379 . S
C482 N489 1.356 . S
C483 C482 1.363 . S
C483 C486 1.363 . S
N484 C486 1.356 . S
N484 H496 0.984 . S
N484 H497 0.985 . S
N485 C487 1.356 . S
N485 H490 0.984 . S
N485 H491 0.985 . S
C486 C480 1.379 . S
C486 C483 1.363 . S
C486 N484 1.356 . S
C487 C481 1.363 . S
C487 C482 1.379 . S
C487 N485 1.356 . S
N488 C480 1.356 . S
N488 H494 0.984 . S
N488 H495 0.984 . S
N489 C482 1.356 . S
N489 H492 0.984 . S
N489 H493 0.985 . S
H490 N485 0.984 . S
H491 N485 0.985 . S
H492 N489 0.984 . S
H493 N489 0.985 . S
H494 N488 0.984 . S
H495 N488 0.984 . S
H496 N484 0.984 . S
H497 N484 0.985 . S
C498 C499 1.363 . S
C498 C504 1.379 . S
C498 N506 1.356 . S
C499 C498 1.363 . S
C499 C505 1.363 . S
C500 C501 1.363 . S
C500 C505 1.379 . S
C500 N507 1.356 . S
C501 C500 1.363 . S
C501 C504 1.363 . S
N502 C504 1.356 . S
N502 H514 0.984 . S
N502 H515 0.985 . S
N503 C505 1.356 . S
N503 H508 0.984 1_655 S
N503 H509 0.985 . S
C504 C498 1.379 . S
C504 C501 1.363 . S
C504 N502 1.356 . S
C505 C499 1.363 . S
C505 C500 1.379 . S
C505 N503 1.356 . S
N506 C498 1.356 . S
N506 H512 0.984 . S
N506 H513 0.984 . S
N507 C500 1.356 . S
N507 H510 0.984 . S
N507 H511 0.985 1_565 S
H508 N503 0.984 1_455 S
H509 N503 0.985 . S
H510 N507 0.984 . S
H511 N507 0.985 1_545 S
H512 N506 0.984 . S
H513 N506 0.984 . S
H514 N502 0.984 . S
H515 N502 0.985 . S
C516 C517 1.363 . S
C516 C522 1.379 . S
C516 N524 1.356 . S
C517 C516 1.363 . S
C517 C523 1.363 . S
C518 C519 1.363 . S
C518 C523 1.379 . S
C518 N525 1.356 . S
C519 C518 1.363 . S
C519 C522 1.363 . S
N520 C522 1.356 . S
N520 H532 0.984 . S
N520 H533 0.985 . S
N521 C523 1.356 . S
N521 H526 0.984 . S
N521 H527 0.985 . S
C522 C516 1.379 . S
C522 C519 1.363 . S
C522 N520 1.356 . S
C523 C517 1.363 . S
C523 C518 1.379 . S
C523 N521 1.356 . S
N524 C516 1.356 . S
N524 H530 0.984 . S
N524 H531 0.984 . S
N525 C518 1.356 . S
N525 H528 0.984 . S
N525 H529 0.985 . S
H526 N521 0.984 . S
H527 N521 0.985 . S
H528 N525 0.984 . S
H529 N525 0.985 . S
H530 N524 0.984 . S
H531 N524 0.984 . S
H532 N520 0.984 . S
H533 N520 0.985 . S
C534 C535 1.363 . S
C534 C540 1.379 . S
C534 N542 1.356 . S
C535 C534 1.363 . S
C535 C541 1.363 . S
C536 C537 1.372 . S
C536 C541 1.387 . S
C536 N543 1.340 1_554 S
C537 C536 1.372 . S
C537 C540 1.363 . S
N538 C540 1.356 . S
N538 H550 0.984 . S
N538 H551 0.985 . S
N539 C541 1.356 . S
N539 H544 0.984 . S
N539 H545 0.985 1_554 S
C540 C534 1.379 . S
C540 C537 1.363 . S
C540 N538 1.356 . S
C541 C535 1.363 . S
C541 C536 1.387 . S
C541 N539 1.356 . S
N542 C534 1.356 . S
N542 H548 0.984 . S
N542 H549 0.984 . S
N543 C536 1.340 1_556 S
N543 H546 0.984 . S
N543 H547 0.985 . S
H544 N539 0.984 . S
H545 N539 0.985 1_556 S
H546 N543 0.984 . S
H547 N543 0.985 . S
H548 N542 0.984 . S
H549 N542 0.984 . S
H550 N538 0.984 . S
H551 N538 0.985 . S
C552 C553 1.363 . S
C552 C558 1.379 . S
C552 N560 1.356 . S
C553 C552 1.363 . S
C553 C559 1.363 . S
C554 C555 1.363 . S
C554 C559 1.379 . S
C554 N561 1.356 . S
C555 C554 1.363 . S
C555 C558 1.363 . S
N556 C558 1.356 . S
N556 H568 0.984 . S
N556 H569 0.985 . S
N557 C559 1.356 . S
N557 H562 0.984 . S
N557 H563 0.985 . S
C558 C552 1.379 . S
C558 C555 1.363 . S
C558 N556 1.356 . S
C559 C553 1.363 . S
C559 C554 1.379 . S
C559 N557 1.356 . S
N560 C552 1.356 . S
N560 H566 0.984 . S
N560 H567 0.984 . S
N561 C554 1.356 . S
N561 H564 0.984 . S
N561 H565 0.985 . S
H562 N557 0.984 . S
H563 N557 0.985 . S
H564 N561 0.984 . S
H565 N561 0.985 . S
H566 N560 0.984 . S
H567 N560 0.984 . S
H568 N556 0.984 . S
H569 N556 0.985 . S
C570 C571 1.363 . S
C570 C576 1.379 . S
C570 N578 1.356 . S
C571 C570 1.363 . S
C571 C577 1.363 . S
C572 C573 1.363 . S
C572 C577 1.379 . S
C572 N579 1.356 . S
C573 C572 1.363 . S
C573 C576 1.363 . S
N574 C576 1.356 . S
N574 H586 0.984 . S
N574 H587 0.985 . S
N575 C577 1.356 . S
N575 H580 0.984 . S
N575 H581 0.985 . S
C576 C570 1.379 . S
C576 C573 1.363 . S
C576 N574 1.356 . S
C577 C571 1.363 . S
C577 C572 1.379 . S
C577 N575 1.356 . S
N578 C570 1.356 . S
N578 H584 0.984 . S
N578 H585 0.984 . S
N579 C572 1.356 . S
N579 H582 0.984 1_455 S
N579 H583 0.985 . S
H580 N575 0.984 . S
H581 N575 0.985 . S
H582 N579 0.984 1_655 S
H583 N579 0.985 . S
H584 N578 0.984 . S
H585 N578 0.984 . S
H586 N574 0.984 . S
H587 N574 0.985 . S
C588 C589 1.363 . S
C588 C594 1.379 . S
C588 N596 1.356 . S
C589 C588 1.363 . S
C589 C595 1.363 . S
C590 C591 1.363 . S
C590 C595 1.379 . S
C590 N597 1.356 . S
C591 C590 1.363 . S
C591 C594 1.363 . S
N592 C594 1.356 . S
N592 H604 0.984 . S
N592 H605 0.985 . S
N593 C595 1.356 . S
N593 H598 0.984 . S
N593 H599 0.985 . S
C594 C588 1.379 . S
C594 C591 1.363 . S
C594 N592 1.356 . S
C595 C589 1.363 . S
C595 C590 1.379 . S
C595 N593 1.356 . S
N596 C588 1.356 . S
N596 H602 0.984 . S
N596 H603 0.984 . S
N597 C590 1.356 . S
N597 H600 0.984 . S
N597 H601 0.985 . S
H598 N593 0.984 . S
H599 N593 0.985 . S
H600 N597 0.984 . S
H601 N597 0.985 . S
H602 N596 0.984 . S
H603 N596 0.984 . S
H604 N592 0.984 . S
H605 N592 0.985 . S
C606 C607 1.363 . S
C606 C612 1.379 . S
C606 N614 1.356 . S
C607 C606 1.363 . S
C607 C613 1.363 . S
C608 C609 1.363 . S
C608 C613 1.379 . S
C608 N615 1.356 . S
C609 C608 1.363 . S
C609 C612 1.363 . S
N610 C612 1.356 . S
N610 H622 0.984 . S
N610 H623 0.985 . S
N611 C613 1.356 . S
N611 H616 0.984 . S
N611 H617 0.985 . S
C612 C606 1.379 . S
C612 C609 1.363 . S
C612 N610 1.356 . S
C613 C607 1.363 . S
C613 C608 1.379 . S
C613 N611 1.356 . S
N614 C606 1.356 . S
N614 H620 0.984 . S
N614 H621 0.984 . S
N615 C608 1.356 . S
N615 H618 0.984 . S
N615 H619 0.985 . S
H616 N611 0.984 . S
H617 N611 0.985 . S
H618 N615 0.984 . S
H619 N615 0.985 . S
H620 N614 0.984 . S
H621 N614 0.984 . S
H622 N610 0.984 . S
H623 N610 0.985 . S
C624 C625 1.363 . S
C624 C630 1.379 . S
C624 N632 1.356 . S
C625 C624 1.363 . S
C625 C631 1.363 . S
C626 C627 1.363 . S
C626 C631 1.379 . S
C626 N633 1.356 . S
C627 C626 1.363 . S
C627 C630 1.363 . S
N628 C630 1.356 . S
N628 H640 0.984 . S
N628 H641 0.985 . S
N629 C631 1.356 . S
N629 H634 0.984 . S
N629 H635 0.985 . S
C630 C624 1.379 . S
C630 C627 1.363 . S
C630 N628 1.356 . S
C631 C625 1.363 . S
C631 C626 1.379 . S
C631 N629 1.356 . S
N632 C624 1.356 . S
N632 H638 0.984 . S
N632 H639 0.984 . S
N633 C626 1.356 . S
N633 H636 0.984 . S
N633 H637 0.985 . S
H634 N629 0.984 . S
H635 N629 0.985 . S
H636 N633 0.984 . S
H637 N633 0.985 . S
H638 N632 0.984 . S
H639 N632 0.984 . S
H640 N628 0.984 . S
H641 N628 0.985 . S
C642 C643 1.363 . S
C642 C648 1.379 . S
C642 N650 1.356 . S
C643 C642 1.363 . S
C643 C649 1.363 . S
C644 C645 1.363 1_565 S
C644 C649 1.379 1_565 S
C644 N651 1.356 . S
C645 C644 1.363 1_545 S
C645 C648 1.363 . S
N646 C648 1.356 . S
N646 H658 0.984 . S
N646 H659 0.985 . S
N647 C649 1.350 1_565 S
N647 H652 0.971 1_565 S
N647 H653 1.005 . S
C648 C642 1.379 . S
C648 C645 1.363 . S
C648 N646 1.356 . S
C649 C643 1.363 . S
C649 C644 1.379 1_545 S
C649 N647 1.350 1_545 S
N650 C642 1.356 . S
N650 H656 0.984 . S
N650 H657 0.984 . S
N651 C644 1.356 . S
N651 H654 0.984 . S
N651 H655 0.985 . S
H652 N647 0.971 1_545 S
H653 N647 1.005 . S
H654 N651 0.984 . S
H655 N651 0.985 . S
H656 N650 0.984 . S
H657 N650 0.984 . S
H658 N646 0.984 . S
H659 N646 0.985 . S
C660 C661 1.363 . S
C660 C666 1.379 . S
C660 N668 1.356 . S
C661 C660 1.363 . S
C661 C667 1.363 . S
C662 C663 1.363 . S
C662 C667 1.379 . S
C662 N669 1.356 . S
C663 C662 1.363 . S
C663 C666 1.363 . S
N664 C666 1.356 . S
N664 H676 0.984 . S
N664 H677 0.985 . S
N665 C667 1.356 . S
N665 H670 0.984 . S
N665 H671 0.985 . S
C666 C660 1.379 . S
C666 C663 1.363 . S
C666 N664 1.356 . S
C667 C661 1.363 . S
C667 C662 1.379 . S
C667 N665 1.356 . S
N668 C660 1.356 . S
N668 H674 0.984 . S
N668 H675 0.984 . S
N669 C662 1.356 . S
N669 H672 0.984 . S
N669 H673 0.985 . S
H670 N665 0.984 . S
H671 N665 0.985 . S
H672 N669 0.984 . S
H673 N669 0.985 . S
H674 N668 0.984 . S
H675 N668 0.984 . S
H676 N664 0.984 . S
H677 N664 0.985 . S
C678 C679 1.366 . S
C678 C684 1.381 . S
C678 N686 1.351 1_565 S
C679 C678 1.366 . S
C679 C685 1.363 . S
C680 C681 1.363 . S
C680 C685 1.379 . S
C680 N687 1.356 . S
C681 C680 1.363 . S
C681 C684 1.363 . S
N682 C684 1.356 . S
N682 H694 0.984 1_565 S
N682 H695 0.985 1_554 S
N683 C685 1.356 . S
N683 H688 0.984 . S
N683 H689 0.985 . S
C684 C678 1.381 . S
C684 C681 1.363 . S
C684 N682 1.356 . S
C685 C679 1.363 . S
C685 C680 1.379 . S
C685 N683 1.356 . S
N686 C678 1.351 1_545 S
N686 H692 0.984 . S
N686 H693 0.984 . S
N687 C680 1.356 . S
N687 H690 0.984 . S
N687 H691 0.985 . S
H688 N683 0.984 . S
H689 N683 0.985 . S
H690 N687 0.984 . S
H691 N687 0.985 . S
H692 N686 0.984 . S
H693 N686 0.984 . S
H694 N682 0.984 1_545 S
H695 N682 0.985 1_556 S
C696 C697 1.363 . S
C696 C702 1.379 . S
C696 N704 1.356 . S
C697 C696 1.363 . S
C697 C703 1.363 . S
C698 C699 1.363 . S
C698 C703 1.379 . S
C698 N705 1.356 . S
C699 C698 1.363 . S
C699 C702 1.363 . S
N700 C702 1.356 . S
N700 H712 0.984 . S
N700 H713 0.985 . S
N701 C703 1.356 . S
N701 H706 0.984 . S
N701 H707 0.985 . S
C702 C696 1.379 . S
C702 C699 1.363 . S
C702 N700 1.356 . S
C703 C697 1.363 . S
C703 C698 1.379 . S
C703 N701 1.356 . S
N704 C696 1.356 . S
N704 H710 0.984 . S
N704 H711 0.984 . S
N705 C698 1.356 . S
N705 H708 0.984 . S
N705 H709 0.985 . S
H706 N701 0.984 . S
H707 N701 0.985 . S
H708 N705 0.984 . S
H709 N705 0.985 . S
H710 N704 0.984 . S
H711 N704 0.984 . S
H712 N700 0.984 . S
H713 N700 0.985 . S
C714 C715 1.363 . S
C714 C720 1.379 . S
C714 N722 1.356 . S
C715 C714 1.363 . S
C715 C721 1.363 . S
C716 C717 1.363 . S
C716 C721 1.379 . S
C716 N723 1.356 . S
C717 C716 1.363 . S
C717 C720 1.363 . S
N718 C720 1.356 . S
N718 H730 0.984 . S
N718 H731 0.985 . S
N719 C721 1.356 . S
N719 H724 0.984 . S
N719 H725 0.985 . S
C720 C714 1.379 . S
C720 C717 1.363 . S
C720 N718 1.356 . S
C721 C715 1.363 . S
C721 C716 1.379 . S
C721 N719 1.356 . S
N722 C714 1.356 . S
N722 H728 0.984 . S
N722 H729 0.984 . S
N723 C716 1.356 . S
N723 H726 0.984 1_556 S
N723 H727 0.985 . S
H724 N719 0.984 . S
H725 N719 0.985 . S
H726 N723 0.984 1_554 S
H727 N723 0.985 . S
H728 N722 0.984 . S
H729 N722 0.984 . S
H730 N718 0.984 . S
H731 N718 0.985 . S
C732 C733 1.363 . S
C732 C738 1.379 . S
C732 N740 1.356 . S
C733 C732 1.363 . S
C733 C739 1.363 . S
C734 C735 1.363 . S
C734 C739 1.379 . S
C734 N741 1.356 . S
C735 C734 1.363 . S
C735 C738 1.363 . S
N736 C738 1.356 . S
N736 H748 0.984 . S
N736 H749 0.985 . S
N737 C739 1.356 . S
N737 H742 0.984 . S
N737 H743 0.985 . S
C738 C732 1.379 . S
C738 C735 1.363 . S
C738 N736 1.356 . S
C739 C733 1.363 . S
C739 C734 1.379 . S
C739 N737 1.356 . S
N740 C732 1.356 . S
N740 H746 0.984 . S
N740 H747 0.984 . S
N741 C734 1.356 . S
N741 H744 0.984 . S
N741 H745 0.985 . S
H742 N737 0.984 . S
H743 N737 0.985 . S
H744 N741 0.984 . S
H745 N741 0.985 . S
H746 N740 0.984 . S
H747 N740 0.984 . S
H748 N736 0.984 . S
H749 N736 0.985 . S
C750 C751 1.363 . S
C750 C756 1.379 . S
C750 N758 1.356 . S
C751 C750 1.363 . S
C751 C757 1.363 . S
C752 C753 1.363 . S
C752 C757 1.379 . S
C752 N759 1.356 . S
C753 C752 1.363 . S
C753 C756 1.363 . S
N754 C756 1.356 . S
N754 H766 0.984 . S
N754 H767 0.985 . S
N755 C757 1.356 . S
N755 H760 0.984 . S
N755 H761 0.985 . S
C756 C750 1.379 . S
C756 C753 1.363 . S
C756 N754 1.356 . S
C757 C751 1.363 . S
C757 C752 1.379 . S
C757 N755 1.356 . S
N758 C750 1.356 . S
N758 H764 0.984 . S
N758 H765 0.984 . S
N759 C752 1.356 . S
N759 H762 0.984 . S
N759 H763 0.985 . S
H760 N755 0.984 . S
H761 N755 0.985 . S
H762 N759 0.984 . S
H763 N759 0.985 . S
H764 N758 0.984 . S
H765 N758 0.984 . S
H766 N754 0.984 . S
H767 N754 0.985 . S
C768 C769 1.363 . S
C768 C774 1.379 . S
C768 N776 1.356 . S
C769 C768 1.363 . S
C769 C775 1.363 . S
C770 C771 1.363 . S
C770 C775 1.379 . S
C770 N777 1.356 . S
C771 C770 1.363 . S
C771 C774 1.363 . S
N772 C774 1.356 . S
N772 H784 0.984 . S
N772 H785 0.985 . S
N773 C775 1.356 . S
N773 H778 0.984 . S
N773 H779 0.985 . S
C774 C768 1.379 . S
C774 C771 1.363 . S
C774 N772 1.356 . S
C775 C769 1.363 . S
C775 C770 1.379 . S
C775 N773 1.356 . S
N776 C768 1.356 . S
N776 H782 0.984 . S
N776 H783 0.984 . S
N777 C770 1.356 . S
N777 H780 0.984 . S
N777 H781 0.985 . S
H778 N773 0.984 . S
H779 N773 0.985 . S
H780 N777 0.984 . S
H781 N777 0.985 . S
H782 N776 0.984 . S
H783 N776 0.984 . S
H784 N772 0.984 . S
H785 N772 0.985 . S
C786 C787 1.363 . S
C786 C792 1.379 . S
C786 N794 1.356 . S
C787 C786 1.363 . S
C787 C793 1.363 . S
C788 C789 1.363 . S
C788 C793 1.379 . S
C788 N795 1.356 . S
C789 C788 1.363 . S
C789 C792 1.363 . S
N790 C792 1.356 . S
N790 H802 0.984 . S
N790 H803 0.985 . S
N791 C793 1.356 . S
N791 H796 0.984 . S
N791 H797 0.985 . S
C792 C786 1.379 . S
C792 C789 1.363 . S
C792 N790 1.356 . S
C793 C787 1.363 . S
C793 C788 1.379 . S
C793 N791 1.356 . S
N794 C786 1.356 . S
N794 H800 0.984 . S
N794 H801 0.984 . S
N795 C788 1.356 . S
N795 H798 0.984 . S
N795 H799 0.985 . S
H796 N791 0.984 . S
H797 N791 0.985 . S
H798 N795 0.984 . S
H799 N795 0.985 . S
H800 N794 0.984 . S
H801 N794 0.984 . S
H802 N790 0.984 . S
H803 N790 0.985 . S
C804 C805 1.363 . S
C804 C810 1.379 . S
C804 N812 1.356 . S
C805 C804 1.363 . S
C805 C811 1.363 . S
C806 C807 1.363 1_655 S
C806 C811 1.379 1_655 S
C806 N813 1.356 . S
C807 C806 1.363 1_455 S
C807 C810 1.363 . S
N808 C810 1.356 . S
N808 H820 0.984 . S
N808 H821 0.985 . S
N809 C811 1.356 1_655 S
N809 H814 0.984 1_655 S
N809 H815 0.985 . S
C810 C804 1.379 . S
C810 C807 1.363 . S
C810 N808 1.356 . S
C811 C805 1.363 . S
C811 C806 1.379 1_455 S
C811 N809 1.356 1_455 S
N812 C804 1.356 . S
N812 H818 0.984 . S
N812 H819 0.984 . S
N813 C806 1.356 . S
N813 H816 0.984 . S
N813 H817 0.985 . S
H814 N809 0.984 1_455 S
H815 N809 0.985 . S
H816 N813 0.984 . S
H817 N813 0.985 . S
H818 N812 0.984 . S
H819 N812 0.984 . S
H820 N808 0.984 . S
H821 N808 0.985 . S
C822 C823 1.363 . S
C822 C828 1.379 . S
C822 N830 1.356 . S
C823 C822 1.363 . S
C823 C829 1.363 . S
C824 C825 1.363 . S
C824 C829 1.379 . S
C824 N831 1.356 . S
C825 C824 1.363 . S
C825 C828 1.363 . S
N826 C828 1.356 . S
N826 H838 0.984 . S
N826 H839 0.985 . S
N827 C829 1.356 . S
N827 H832 0.984 . S
N827 H833 0.985 . S
C828 C822 1.379 . S
C828 C825 1.363 . S
C828 N826 1.356 . S
C829 C823 1.363 . S
C829 C824 1.379 . S
C829 N827 1.356 . S
N830 C822 1.356 . S
N830 H836 0.984 . S
N830 H837 0.984 . S
N831 C824 1.356 . S
N831 H834 0.984 . S
N831 H835 0.985 . S
H832 N827 0.984 . S
H833 N827 0.985 . S
H834 N831 0.984 . S
H835 N831 0.985 . S
H836 N830 0.984 . S
H837 N830 0.984 . S
H838 N826 0.984 . S
H839 N826 0.985 . S
C840 C841 1.363 . S
C840 C846 1.379 . S
C840 N848 1.356 . S
C841 C840 1.363 . S
C841 C847 1.363 . S
C842 C843 1.363 . S
C842 C847 1.379 . S
C842 N849 1.356 . S
C843 C842 1.363 . S
C843 C846 1.363 . S
N844 C846 1.356 . S
N844 H856 0.984 . S
N844 H857 0.985 . S
N845 C847 1.356 . S
N845 H850 0.984 . S
N845 H851 0.985 . S
C846 C840 1.379 . S
C846 C843 1.363 . S
C846 N844 1.356 . S
C847 C841 1.363 . S
C847 C842 1.379 . S
C847 N845 1.356 . S
N848 C840 1.356 . S
N848 H854 0.984 . S
N848 H855 0.984 . S
N849 C842 1.356 . S
N849 H852 0.984 . S
N849 H853 0.985 . S
H850 N845 0.984 . S
H851 N845 0.985 . S
H852 N849 0.984 . S
H853 N849 0.985 . S
H854 N848 0.984 . S
H855 N848 0.984 . S
H856 N844 0.984 . S
H857 N844 0.985 . S
C858 C859 1.363 . S
C858 C864 1.379 . S
C858 N866 1.356 . S
C859 C858 1.363 . S
C859 C865 1.363 . S
C860 C861 1.363 . S
C860 C865 1.379 . S
C860 N867 1.356 . S
C861 C860 1.363 . S
C861 C864 1.363 . S
N862 C864 1.356 . S
N862 H874 0.984 . S
N862 H875 0.985 . S
N863 C865 1.356 . S
N863 H868 0.984 . S
N863 H869 0.985 . S
C864 C858 1.379 . S
C864 C861 1.363 . S
C864 N862 1.356 . S
C865 C859 1.363 . S
C865 C860 1.379 . S
C865 N863 1.356 . S
N866 C858 1.356 . S
N866 H872 0.984 . S
N866 H873 0.984 . S
N867 C860 1.356 . S
N867 H870 0.984 . S
N867 H871 0.985 . S
H868 N863 0.984 . S
H869 N863 0.985 . S
H870 N867 0.984 . S
H871 N867 0.985 . S
H872 N866 0.984 . S
H873 N866 0.984 . S
H874 N862 0.984 . S
H875 N862 0.985 . S
C876 C877 1.363 . S
C876 C882 1.379 . S
C876 N884 1.356 . S
C877 C876 1.363 . S
C877 C883 1.363 . S
C878 C879 1.363 . S
C878 C883 1.379 . S
C878 N885 1.356 . S
C879 C878 1.363 . S
C879 C882 1.363 . S
N880 C882 1.356 . S
N880 H892 0.984 . S
N880 H893 0.985 . S
N881 C883 1.356 . S
N881 H886 0.984 . S
N881 H887 0.985 1_556 S
C882 C876 1.379 . S
C882 C879 1.363 . S
C882 N880 1.356 . S
C883 C877 1.363 . S
C883 C878 1.379 . S
C883 N881 1.356 . S
N884 C876 1.356 . S
N884 H890 0.984 . S
N884 H891 0.984 . S
N885 C878 1.356 . S
N885 H888 0.984 1_565 S
N885 H889 0.985 . S
H886 N881 0.984 . S
H887 N881 0.985 1_554 S
H888 N885 0.984 1_545 S
H889 N885 0.985 . S
H890 N884 0.984 . S
H891 N884 0.984 . S
H892 N880 0.984 . S
H893 N880 0.985 . S
C894 C895 1.363 . S
C894 C900 1.379 . S
C894 N902 1.356 . S
C895 C894 1.363 . S
C895 C901 1.363 . S
C896 C897 1.363 . S
C896 C901 1.379 . S
C896 N903 1.356 1_655 S
C897 C896 1.363 . S
C897 C900 1.363 . S
N898 C900 1.356 . S
N898 H910 0.984 . S
N898 H911 0.985 . S
N899 C901 1.356 . S
N899 H904 0.984 . S
N899 H905 0.974 1_655 S
C900 C894 1.379 . S
C900 C897 1.363 . S
C900 N898 1.356 . S
C901 C895 1.363 . S
C901 C896 1.379 . S
C901 N899 1.356 . S
N902 C894 1.356 . S
N902 H908 0.984 . S
N902 H909 0.984 . S
N903 C896 1.356 1_455 S
N903 H906 0.984 . S
N903 H907 0.985 . S
H904 N899 0.984 . S
H905 N899 0.974 1_455 S
H906 N903 0.984 . S
H907 N903 0.985 . S
H908 N902 0.984 . S
H909 N902 0.984 . S
H910 N898 0.984 . S
H911 N898 0.985 . S
C265 C6 1.229 . S
C267 C248 1.229 . S
C283 C203 1.229 . S
C285 C31 1.229 . S
C301 C51 1.229 . S
C303 C181 1.229 . S
C319 C75 1.229 . S
C321 C229 1.229 . S
C337 C93 1.229 . S
C339 C226 1.229 . S
C355 C115 1.229 . S
C357 C251 1.229 . S
C373 C205 1.229 . S
C375 C139 1.229 . S
C391 C161 1.229 . S
C393 C183 1.229 . S
C409 C72 1.229 . S
C411 C95 1.229 . S
C427 C9 1.229 . S
C429 C117 1.229 . S
C445 C28 1.229 . S
C447 C137 1.229 . S
C463 C159 1.229 . S
C465 C49 1.229 . S
C481 C4 1.626 . S
C483 C185 1.570 . S
C499 C29 1.626 1_655 S
C501 C225 1.570 . S
C517 C250 1.570 . S
C519 C52 1.626 . S
C535 C73 1.626 . S
C537 C207 1.570 1_554 S
C553 C94 1.626 . S
C555 C202 1.570 . S
C571 C180 1.570 1_556 S
C573 C116 1.626 1_455 S
C589 C228 1.570 . S
C591 C140 1.626 . S
C607 C247 1.570 . S
C609 C162 1.626 . S
C625 C5 1.570 . S
C627 C70 1.626 . S
C643 C7 1.626 . S
C645 C30 1.570 1_545 S
C661 C26 1.626 . S
C663 C53 1.570 . S
C679 C74 1.570 1_565 S
C681 C50 1.626 1_554 S
C697 C118 1.626 . S
C699 C92 1.570 . S
C715 C114 1.570 . S
C717 C138 1.626 1_556 S
C733 C141 1.570 . S
C735 C160 1.626 . S
C751 C96 1.626 . S
C753 C163 1.570 . S
C769 C184 1.626 . S
C771 C71 1.570 . S
C787 C119 1.570 . S
C789 C204 1.626 . S
C805 C182 1.626 . S
C807 C136 1.570 1_455 S
C823 C227 1.626 . S
C825 C158 1.570 . S
C841 C97 1.570 . S
C843 C246 1.626 . S
C859 C249 1.626 . S
C861 C27 1.570 . S
C877 C48 1.570 . S
C879 C206 1.626 1_565 S
C895 C224 1.626 1_545 S
C897 C8 1.570 1_655 S
