# Generated by pormake.
# Topology skb, (5)-cn, num edge types: 1
# Building blocks:
#     Node 0, Type 0, BuildingBlock: BEQFEK_clean_sbu_0, # of connection points: 5
#     Node 1, Type 0, BuildingBlock: BEQFEK_clean_sbu_0, # of connection points: 5
#     Node 2, Type 0, BuildingBlock: BEQFEK_clean_sbu_0, # of connection points: 5
#     Node 3, Type 0, BuildingBlock: BEQFEK_clean_sbu_0, # of connection points: 5
#     Node 4, Type 0, BuildingBlock: BEQFEK_clean_sbu_0, # of connection points: 5
#     Node 5, Type 0, BuildingBlock: BEQFEK_clean_sbu_0, # of connection points: 5
#     Node 6, Type 0, BuildingBlock: BEQFEK_clean_sbu_0, # of connection points: 5
#     Node 7, Type 0, BuildingBlock: BEQFEK_clean_sbu_0, # of connection points: 5
#     Node 8, Type 0, BuildingBlock: BEQFEK_clean_sbu_0, # of connection points: 5
#     Node 9, Type 0, BuildingBlock: BEQFEK_clean_sbu_0, # of connection points: 5
#     Node 10, Type 0, BuildingBlock: BEQFEK_clean_sbu_0, # of connection points: 5
#     Node 11, Type 0, BuildingBlock: BEQFEK_clean_sbu_0, # of connection points: 5
#     Node 12, Type 0, BuildingBlock: BEQFEK_clean_sbu_0, # of connection points: 5
#     Node 13, Type 0, BuildingBlock: BEQFEK_clean_sbu_0, # of connection points: 5
#     Node 14, Type 0, BuildingBlock: BEQFEK_clean_sbu_0, # of connection points: 5
#     Node 15, Type 0, BuildingBlock: BEQFEK_clean_sbu_0, # of connection points: 5
#     Edge 16, Type (0, 0), BuildingBlock: XIVTED_clean_linker_0, # of connection points: 2
#     Edge 17, Type (0, 0), BuildingBlock: XIVTED_clean_linker_0, # of connection points: 2
#     Edge 18, Type (0, 0), BuildingBlock: XIVTED_clean_linker_0, # of connection points: 2
#     Edge 19, Type (0, 0), BuildingBlock: XIVTED_clean_linker_0, # of connection points: 2
#     Edge 20, Type (0, 0), BuildingBlock: XIVTED_clean_linker_0, # of connection points: 2
#     Edge 21, Type (0, 0), BuildingBlock: XIVTED_clean_linker_0, # of connection points: 2
#     Edge 22, Type (0, 0), BuildingBlock: XIVTED_clean_linker_0, # of connection points: 2
#     Edge 23, Type (0, 0), BuildingBlock: XIVTED_clean_linker_0, # of connection points: 2
#     Edge 24, Type (0, 0), BuildingBlock: XIVTED_clean_linker_0, # of connection points: 2
#     Edge 25, Type (0, 0), BuildingBlock: XIVTED_clean_linker_0, # of connection points: 2
#     Edge 26, Type (0, 0), BuildingBlock: XIVTED_clean_linker_0, # of connection points: 2
#     Edge 27, Type (0, 0), BuildingBlock: XIVTED_clean_linker_0, # of connection points: 2
#     Edge 28, Type (0, 0), BuildingBlock: XIVTED_clean_linker_0, # of connection points: 2
#     Edge 29, Type (0, 0), BuildingBlock: XIVTED_clean_linker_0, # of connection points: 2
#     Edge 30, Type (0, 0), BuildingBlock: XIVTED_clean_linker_0, # of connection points: 2
#     Edge 31, Type (0, 0), BuildingBlock: XIVTED_clean_linker_0, # of connection points: 2
#     Edge 32, Type (0, 0), BuildingBlock: XIVTED_clean_linker_0, # of connection points: 2
#     Edge 33, Type (0, 0), BuildingBlock: XIVTED_clean_linker_0, # of connection points: 2
#     Edge 34, Type (0, 0), BuildingBlock: XIVTED_clean_linker_0, # of connection points: 2
#     Edge 35, Type (0, 0), BuildingBlock: XIVTED_clean_linker_0, # of connection points: 2
#     Edge 36, Type (0, 0), BuildingBlock: XIVTED_clean_linker_0, # of connection points: 2
#     Edge 37, Type (0, 0), BuildingBlock: XIVTED_clean_linker_0, # of connection points: 2
#     Edge 38, Type (0, 0), BuildingBlock: XIVTED_clean_linker_0, # of connection points: 2
#     Edge 39, Type (0, 0), BuildingBlock: XIVTED_clean_linker_0, # of connection points: 2
#     Edge 40, Type (0, 0), BuildingBlock: XIVTED_clean_linker_0, # of connection points: 2
#     Edge 41, Type (0, 0), BuildingBlock: XIVTED_clean_linker_0, # of connection points: 2
#     Edge 42, Type (0, 0), BuildingBlock: XIVTED_clean_linker_0, # of connection points: 2
#     Edge 43, Type (0, 0), BuildingBlock: XIVTED_clean_linker_0, # of connection points: 2
#     Edge 44, Type (0, 0), BuildingBlock: XIVTED_clean_linker_0, # of connection points: 2
#     Edge 45, Type (0, 0), BuildingBlock: XIVTED_clean_linker_0, # of connection points: 2
#     Edge 46, Type (0, 0), BuildingBlock: XIVTED_clean_linker_0, # of connection points: 2
#     Edge 47, Type (0, 0), BuildingBlock: XIVTED_clean_linker_0, # of connection points: 2
#     Edge 48, Type (0, 0), BuildingBlock: XIVTED_clean_linker_0, # of connection points: 2
#     Edge 49, Type (0, 0), BuildingBlock: XIVTED_clean_linker_0, # of connection points: 2
#     Edge 50, Type (0, 0), BuildingBlock: XIVTED_clean_linker_0, # of connection points: 2
#     Edge 51, Type (0, 0), BuildingBlock: XIVTED_clean_linker_0, # of connection points: 2
#     Edge 52, Type (0, 0), BuildingBlock: XIVTED_clean_linker_0, # of connection points: 2
#     Edge 53, Type (0, 0), BuildingBlock: XIVTED_clean_linker_0, # of connection points: 2
#     Edge 54, Type (0, 0), BuildingBlock: XIVTED_clean_linker_0, # of connection points: 2
#     Edge 55, Type (0, 0), BuildingBlock: XIVTED_clean_linker_0, # of connection points: 2
# Relax obj value: 0.050
# Max RMSD: 0.094
# Mean RMSD: 0.094
data_MOF--net-skb--node1-BEQFEK_clean_sbu_0--edge1-XIVTED_clean_linker_0
_symmetry_space_group_name_H-M    P1
_symmetry_Int_Tables_number       1
_symmetry_cell_setting            triclinic
loop_
_symmetry_equiv_pos_as_xyz
'x, y, z'
_cell_length_a     40.686108
_cell_length_b     30.805449
_cell_length_c     77.219345
_cell_angle_alpha  89.978138
_cell_angle_beta   89.994998
_cell_angle_gamma 89.966503
loop_
_atom_site_label
_atom_site_type_symbol
_atom_site_fract_x
_atom_site_fract_y
_atom_site_fract_z
_atom_type_partial_charge
Co0 Co 0.18192 0.03448 0.10165 0.0
Co1 Co 0.17947 0.03308 0.14237 0.0
C2 C 0.20652 0.10936 0.12344 0.0
O3 O 0.20108 0.09122 0.10888 0.0
O4 O 0.19956 0.09037 0.13763 0.0
C5 C 0.21454 0.0309 0.06813 0.0
O6 O 0.24174 0.03696 0.07696 0.0
C7 C 0.19935 0.03452 0.17925 0.0
C8 C 0.16099 0.99284 0.19084 0.0
C9 C 0.18908 0.0162 0.19478 0.0
N10 N 0.1783 0.02233 0.16673 0.0
N11 N 0.15521 0.99792 0.17381 0.0
C12 C 0.23019 0.05963 0.17598 0.0
H13 H 0.23835 0.05521 0.16238 0.0
H14 H 0.25 0.04927 0.18496 0.0
H15 H 0.22523 0.09464 0.17813 0.0
C16 C 0.21248 0.94815 0.10797 0.0
N17 N 0.20155 0.98704 0.11357 0.0
N18 N 0.2018 0.98741 0.13063 0.0
C19 C 0.21368 0.94917 0.13638 0.0
C20 C 0.22054 0.92285 0.12225 0.0
C21 C 0.21052 0.93334 0.08953 0.0
H22 H 0.18835 0.94712 0.08324 0.0
H23 H 0.23255 0.94497 0.08246 0.0
H24 H 0.20959 0.89743 0.08859 0.0
O25 O 0.13413 0.03397 0.10622 0.0
O26 O 0.13288 0.0334 0.13494 0.0
H27 H 0.19275 0.93056 0.16065 0.0
H28 H 0.23315 0.90832 0.15676 0.0
C29 C 0.21733 0.93737 0.15508 0.0
H30 H 0.22848 0.96482 0.16223 0.0
H31 H 0.13597 0.98374 0.1669 0.0
O32 O 0.18727 0.02874 0.07613 0.0
C33 C 0.11817 0.03334 0.12039 0.0
Co34 Co 0.81035 0.99515 0.10067 0.0
Co35 Co 0.81047 0.99798 0.14137 0.0
C36 C 0.78559 0.9204 0.12223 0.0
O37 O 0.79172 0.93839 0.10773 0.0
O38 O 0.79135 0.93981 0.13649 0.0
C39 C 0.78103 0.99129 0.06646 0.0
O40 O 0.75459 0.97769 0.07459 0.0
C41 C 0.78818 0.99705 0.17791 0.0
C42 C 0.82646 0.03754 0.1902 0.0
C43 C 0.79793 0.01466 0.19366 0.0
N44 N 0.80999 0.00911 0.16573 0.0
N45 N 0.83298 0.03288 0.17322 0.0
C46 C 0.75747 0.97213 0.17414 0.0
H47 H 0.74996 0.97697 0.16046 0.0
H48 H 0.73729 0.98227 0.18293 0.0
H49 H 0.76229 0.93704 0.1762 0.0
C50 C 0.77818 0.08022 0.10577 0.0
N51 N 0.7891 0.04201 0.11198 0.0
N52 N 0.78836 0.04302 0.12903 0.0
C53 C 0.77646 0.08185 0.13416 0.0
C54 C 0.76983 0.1068 0.11959 0.0
C55 C 0.77841 0.09225 0.08698 0.0
H56 H 0.80332 0.08683 0.08154 0.0
H57 H 0.76097 0.07101 0.07994 0.0
H58 H 0.77094 0.12647 0.08486 0.0
O59 O 0.85778 0.99719 0.10605 0.0
O60 O 0.85752 -0.00142 0.13477 0.0
H61 H 0.80181 0.10055 0.15718 0.0
H62 H 0.76351 0.12877 0.15397 0.0
C63 C 0.77615 0.09707 0.15256 0.0
H64 H 0.76358 0.07269 0.16078 0.0
H65 H 0.85281 0.04668 0.16666 0.0
O66 O 0.80662 0.00059 0.07514 0.0
C67 C 0.87298 -0.00136 0.12044 0.0
Co68 Co 0.18425 0.99373 0.90467 0.0
Co69 Co 0.18201 0.99487 0.86388 0.0
C70 C 0.20832 0.91827 0.88325 0.0
O71 O 0.20281 0.93657 0.89777 0.0
O72 O 0.20174 0.93726 0.86899 0.0
C73 C 0.21376 0.98948 0.93901 0.0
O74 O 0.23924 0.97235 0.9311 0.0
C75 C 0.20312 0.99403 0.82708 0.0
C76 C 0.16317 0.0322 0.81505 0.0
C77 C 0.19236 0.01099 0.81139 0.0
N78 N 0.18126 0.00495 0.83943 0.0
N79 N 0.15726 0.02725 0.83207 0.0
C80 C 0.23478 0.97104 0.83063 0.0
H81 H 0.24213 0.97557 0.84435 0.0
H82 H 0.25448 0.98308 0.82192 0.0
H83 H 0.23139 0.93581 0.82823 0.0
C84 C 0.21705 0.07811 0.8984 0.0
N85 N 0.20493 0.04007 0.89266 0.0
N86 N 0.20453 0.04042 0.8756 0.0
C87 C 0.21669 0.07863 0.86997 0.0
C88 C 0.22488 0.10387 0.88424 0.0
C89 C 0.21921 0.09033 0.91712 0.0
H90 H 0.19449 0.08798 0.92312 0.0
H91 H 0.23564 0.06713 0.92386 0.0
H92 H 0.2291 0.12356 0.91892 0.0
O93 O 0.13649 0.99525 0.89984 0.0
O94 O 0.13538 0.99538 0.87113 0.0
H95 H 0.19021 0.09419 0.84691 0.0
H96 H 0.2272 0.12542 0.84963 0.0
C97 C 0.21604 0.09294 0.85144 0.0
H98 H 0.22952 0.06905 0.84339 0.0
H99 H 0.13721 0.04005 0.83877 0.0
O100 O 0.18882 0.00083 0.93017 0.0
C101 C 0.1206 0.99594 0.88565 0.0
Co102 Co 0.81198 0.03384 0.9038 0.0
Co103 Co 0.81369 0.03335 0.86314 0.0
C104 C 0.78782 0.10972 0.88284 0.0
O105 O 0.79345 0.09121 0.89729 0.0
O106 O 0.79414 0.09082 0.86855 0.0
C107 C 0.78105 0.03488 0.93758 0.0
O108 O 0.75484 0.0481 0.92914 0.0
C109 C 0.78936 0.03366 0.82718 0.0
C110 C 0.83273 0.00904 0.81303 0.0
C111 C 0.80079 0.02362 0.81061 0.0
N112 N 0.81349 0.02542 0.83862 0.0
N113 N 0.83935 0.01086 0.83007 0.0
C114 C 0.75573 0.04812 0.83248 0.0
H115 H 0.75146 0.04081 0.84638 0.0
H116 H 0.73671 0.03185 0.82449 0.0
H117 H 0.75366 0.08375 0.83065 0.0
C118 C 0.78024 0.9489 0.89749 0.0
N119 N 0.79124 0.98755 0.89176 0.0
N120 N 0.79156 0.98732 0.8747 0.0
C121 C 0.78055 0.94852 0.86906 0.0
C122 C 0.77302 0.92291 0.88332 0.0
C123 C 0.77957 0.93579 0.91615 0.0
H124 H 0.80406 0.9415 0.92205 0.0
H125 H 0.76138 0.95615 0.92309 0.0
H126 H 0.77255 0.90127 0.91783 0.0
O127 O 0.85971 0.03229 0.89884 0.0
O128 O 0.86046 0.03254 0.87011 0.0
H129 H 0.80762 0.93784 0.8457 0.0
H130 H 0.7746 0.89958 0.84909 0.0
C131 C 0.78216 0.93396 0.85059 0.0
H132 H 0.76578 0.95467 0.84263 0.0
H133 H 0.86152 0.00203 0.83587 0.0
O134 O 0.80727 0.02675 0.92923 0.0
C135 C 0.87542 0.03172 0.88458 0.0
Co136 Co 0.18087 0.53633 0.60046 0.0
Co137 Co 0.17967 0.53589 0.64116 0.0
C138 C 0.20382 0.61292 0.62123 0.0
O139 O 0.19897 0.5942 0.60675 0.0
O140 O 0.19732 0.59393 0.63546 0.0
C141 C 0.21177 0.5352 0.56669 0.0
O142 O 0.23859 0.54615 0.5751 0.0
C143 C 0.20411 0.53774 0.67734 0.0
C144 C 0.16254 0.50698 0.69106 0.0
C145 C 0.1934 0.52479 0.69366 0.0
N146 N 0.18076 0.52742 0.66569 0.0
N147 N 0.15598 0.5092 0.67402 0.0
C148 C 0.23547 0.56057 0.67286 0.0
H149 H 0.23315 0.57833 0.66049 0.0
H150 H 0.25538 0.53625 0.67133 0.0
H151 H 0.24249 0.58353 0.68329 0.0
C152 C 0.21365 0.4517 0.60682 0.0
N153 N 0.2023 0.49036 0.61243 0.0
N154 N 0.20248 0.49069 0.62949 0.0
C155 C 0.21427 0.45243 0.63525 0.0
C156 C 0.2216 0.42638 0.6211 0.0
C157 C 0.21183 0.43696 0.58837 0.0
H158 H 0.18827 0.44763 0.58253 0.0
H159 H 0.23224 0.452 0.58097 0.0
H160 H 0.21382 0.40117 0.58724 0.0
O161 O 0.13324 0.53398 0.6057 0.0
O162 O 0.13286 0.53335 0.63445 0.0
H163 H 0.19112 0.43739 0.65937 0.0
H164 H 0.22926 0.40852 0.65574 0.0
C165 C 0.21629 0.43988 0.65394 0.0
H166 H 0.22977 0.46524 0.66117 0.0
H167 H 0.13455 0.49817 0.66805 0.0
O168 O 0.18524 0.52932 0.57506 0.0
C169 C 0.11774 0.53258 0.62002 0.0
Co170 Co 0.80868 0.49626 0.60098 0.0
Co171 Co 0.81176 0.49416 0.64171 0.0
C172 C 0.78499 0.41936 0.62136 0.0
O173 O 0.78985 0.43863 0.60698 0.0
O174 O 0.79225 0.43737 0.63568 0.0
C175 C 0.77683 0.49887 0.56736 0.0
O176 O 0.75032 0.48714 0.57587 0.0
C177 C 0.78808 0.49212 0.67798 0.0
C178 C 0.83295 0.51168 0.69209 0.0
C179 C 0.80054 0.49941 0.69447 0.0
N180 N 0.81202 0.50014 0.66638 0.0
N181 N 0.83875 0.51178 0.67493 0.0
C182 C 0.75461 0.47559 0.67338 0.0
H183 H 0.75399 0.46366 0.65986 0.0
H184 H 0.73643 0.50222 0.67462 0.0
H185 H 0.74729 0.44928 0.68242 0.0
C186 C 0.77721 0.5811 0.60854 0.0
N187 N 0.78864 0.54211 0.61371 0.0
N188 N 0.78964 0.54111 0.63076 0.0
C189 C 0.77878 0.57941 0.63697 0.0
C190 C 0.77055 0.60604 0.62311 0.0
C191 C 0.7775 0.59629 0.59012 0.0
H192 H 0.80065 0.58597 0.58375 0.0
H193 H 0.75665 0.58117 0.58311 0.0
H194 H 0.77527 0.63208 0.58915 0.0
O195 O 0.85655 0.49671 0.60566 0.0
O196 O 0.85828 0.49511 0.63439 0.0
H197 H 0.80366 0.59033 0.66098 0.0
H198 H 0.76733 0.62362 0.65803 0.0
C199 C 0.77825 0.59113 0.65577 0.0
H200 H 0.76345 0.56694 0.66292 0.0
H201 H 0.86109 0.51947 0.66906 0.0
O202 O 0.8035 0.50481 0.57561 0.0
C203 C 0.87273 0.49641 0.61978 0.0
Co204 Co 0.18097 0.49404 0.40418 0.0
Co205 Co 0.17874 0.49468 0.36357 0.0
C206 C 0.20511 0.41839 0.38278 0.0
O207 O 0.19967 0.43703 0.39723 0.0
O208 O 0.19843 0.43706 0.36848 0.0
C209 C 0.21333 0.49545 0.43763 0.0
O210 O 0.24017 0.48631 0.4289 0.0
C211 C 0.19909 0.49252 0.32685 0.0
C212 C 0.16094 0.53406 0.31494 0.0
C213 C 0.18908 0.51056 0.31123 0.0
N214 N 0.17781 0.50499 0.33922 0.0
N215 N 0.15485 0.52931 0.33196 0.0
C216 C 0.22988 0.46748 0.33035 0.0
H217 H 0.23785 0.47231 0.34396 0.0
H218 H 0.24981 0.47755 0.3214 0.0
H219 H 0.22496 0.43242 0.32835 0.0
C220 C 0.21242 0.57947 0.39782 0.0
N221 N 0.20117 0.54078 0.39222 0.0
N222 N 0.20132 0.54036 0.37517 0.0
C223 C 0.21331 0.57852 0.3694 0.0
C224 C 0.22048 0.60471 0.38353 0.0
C225 C 0.21068 0.59416 0.41628 0.0
H226 H 0.18785 0.58188 0.4224 0.0
H227 H 0.232 0.58073 0.42346 0.0
H228 H 0.21119 0.63006 0.41734 0.0
O229 O 0.13323 0.49529 0.3996 0.0
O230 O 0.1321 0.49517 0.37088 0.0
H231 H 0.19166 0.59707 0.3453 0.0
H232 H 0.23192 0.6199 0.34898 0.0
C233 C 0.21643 0.59058 0.3507 0.0
H234 H 0.22766 0.56338 0.34343 0.0
H235 H 0.13551 0.54367 0.33873 0.0
O236 O 0.18634 0.50019 0.42956 0.0
C237 C 0.11733 0.49581 0.38541 0.0
Co238 Co 0.80922 0.53533 0.40415 0.0
Co239 Co 0.81029 0.53263 0.36344 0.0
C240 C 0.78502 0.61016 0.38222 0.0
O241 O 0.79075 0.59228 0.39681 0.0
O242 O 0.79113 0.5906 0.36805 0.0
C243 C 0.77795 0.53553 0.43802 0.0
O244 O 0.75079 0.54427 0.4295 0.0
C245 C 0.78935 0.53339 0.32672 0.0
C246 C 0.82722 0.4911 0.31501 0.0
C247 C 0.7992 0.51473 0.31117 0.0
N248 N 0.81061 0.52113 0.33914 0.0
N249 N 0.83338 0.49631 0.33199 0.0
C250 C 0.75881 0.55904 0.33011 0.0
H251 H 0.75098 0.55506 0.34379 0.0
H252 H 0.73869 0.54876 0.32132 0.0
H253 H 0.76397 0.59392 0.32778 0.0
C254 C 0.77704 0.44995 0.39865 0.0
N255 N 0.78837 0.48826 0.39268 0.0
N256 N 0.78776 0.48789 0.37563 0.0
C257 C 0.77538 0.44963 0.37024 0.0
C258 C 0.76845 0.42416 0.38461 0.0
C259 C 0.77915 0.43606 0.4172 0.0
H260 H 0.80222 0.44832 0.42306 0.0
H261 H 0.75811 0.45008 0.42443 0.0
H262 H 0.77839 0.40022 0.41853 0.0
O263 O 0.85682 0.53325 0.39916 0.0
O264 O 0.85708 0.53202 0.37044 0.0
H265 H 0.79629 0.42968 0.34614 0.0
H266 H 0.75595 0.40759 0.35027 0.0
C267 C 0.77171 0.43677 0.35166 0.0
H268 H 0.76052 0.4638 0.34426 0.0
H269 H 0.85271 0.48206 0.33882 0.0
O270 O 0.80463 0.53043 0.4297 0.0
C271 C 0.87228 0.53189 0.38484 0.0
Co272 Co 0.68103 0.03422 0.60061 0.0
Co273 Co 0.67853 0.03572 0.6413 0.0
C274 C 0.70473 0.11101 0.62077 0.0
O275 O 0.69951 0.09179 0.60644 0.0
O276 O 0.69798 0.09285 0.63516 0.0
C277 C 0.71081 0.03623 0.56661 0.0
O278 O 0.73619 0.05309 0.57469 0.0
C279 C 0.70441 0.03438 0.67709 0.0
C280 C 0.65908 0.02176 0.69204 0.0
C281 C 0.69246 0.02924 0.69384 0.0
N282 N 0.6792 0.02985 0.66596 0.0
N283 N 0.65222 0.02225 0.675 0.0
C284 C 0.73858 0.04631 0.67175 0.0
H285 H 0.73882 0.05928 0.65835 0.0
H286 H 0.75441 0.01702 0.67213 0.0
H287 H 0.749 0.07057 0.68085 0.0
C288 C 0.71382 0.95038 0.6077 0.0
N289 N 0.70189 0.9888 0.61314 0.0
N290 N 0.70036 0.98874 0.63018 0.0
C291 C 0.71086 0.94992 0.6361 0.0
C292 C 0.71983 0.92438 0.62204 0.0
C293 C 0.71753 0.93806 0.58906 0.0
H294 H 0.69316 0.93917 0.58262 0.0
H295 H 0.73379 0.96186 0.58257 0.0
H296 H 0.72844 0.9053 0.58749 0.0
O297 O 0.63323 0.0331 0.60566 0.0
O298 O 0.63184 0.03463 0.63439 0.0
H299 H 0.68287 0.94523 0.65955 0.0
H300 H 0.70951 0.89941 0.6557 0.0
C301 C 0.70719 0.93515 0.65448 0.0
H302 H 0.72648 0.95062 0.6625 0.0
H303 H 0.62901 0.01786 0.66955 0.0
O304 O 0.68549 0.02551 0.57525 0.0
C305 C 0.61721 0.03323 0.61983 0.0
Co306 Co 0.30919 0.99655 0.6008 0.0
Co307 Co 0.30979 0.99765 0.64155 0.0
C308 C 0.28423 0.92122 0.62185 0.0
O309 O 0.29036 0.93975 0.60745 0.0
O310 O 0.29025 0.93993 0.63623 0.0
C311 C 0.27997 0.99333 0.5666 0.0
O312 O 0.25384 0.97846 0.57464 0.0
C313 C 0.2874 0.9957 0.6781 0.0
C314 C 0.3262 0.03481 0.69065 0.0
C315 C 0.29734 0.01251 0.69397 0.0
N316 N 0.30942 0.00769 0.666 0.0
N317 N 0.33271 0.0306 0.67366 0.0
C318 C 0.25639 0.97163 0.67419 0.0
H319 H 0.24904 0.97697 0.66051 0.0
H320 H 0.2363 0.98206 0.68298 0.0
H321 H 0.26069 0.93639 0.67612 0.0
C322 C 0.27642 0.08099 0.60654 0.0
N323 N 0.28808 0.0429 0.61249 0.0
N324 N 0.28783 0.04339 0.62955 0.0
C325 C 0.27573 0.08185 0.63497 0.0
C326 C 0.26829 0.10704 0.62055 0.0
C327 C 0.27499 0.093 0.58777 0.0
H328 H 0.25804 0.07052 0.58102 0.0
H329 H 0.26594 0.12659 0.58578 0.0
H330 H 0.29974 0.08941 0.58191 0.0
O331 O 0.35665 0.99796 0.60612 0.0
O332 O 0.35677 -0.00193 0.63485 0.0
H333 H 0.30154 0.09838 0.65811 0.0
H334 H 0.2641 0.12859 0.65512 0.0
C335 C 0.27581 0.09638 0.65346 0.0
H336 H 0.26259 0.07225 0.66151 0.0
H337 H 0.35274 0.04418 0.66719 0.0
O338 O 0.30538 0.00316 0.57533 0.0
C339 C 0.37204 -0.0014 0.62047 0.0
Co340 Co 0.68072 0.99391 0.40379 0.0
Co341 Co 0.68002 0.9963 0.36308 0.0
C342 C 0.70552 0.91911 0.38228 0.0
O343 O 0.69943 0.93721 0.39676 0.0
O344 O 0.69956 0.93833 0.36799 0.0
C345 C 0.71009 0.98968 0.43797 0.0
O346 O 0.73636 0.97547 0.42984 0.0
C347 C 0.70223 0.99652 0.32651 0.0
C348 C 0.66283 0.0354 0.31432 0.0
C349 C 0.692 0.01398 0.3108 0.0
N350 N 0.68009 0.00734 0.33871 0.0
N351 N 0.65643 0.0301 0.33127 0.0
C352 C 0.73362 0.97305 0.33021 0.0
H353 H 0.74075 0.97745 0.34397 0.0
H354 H 0.75359 0.98479 0.3216 0.0
H355 H 0.72997 0.93787 0.32779 0.0
C356 C 0.71378 0.07841 0.39843 0.0
N357 N 0.70185 0.04063 0.39232 0.0
N358 N 0.70206 0.0416 0.37527 0.0
C359 C 0.7144 0.08005 0.37 0.0
C360 C 0.72208 0.10474 0.38451 0.0
C361 C 0.71558 0.08975 0.41725 0.0
H362 H 0.69094 0.08601 0.42323 0.0
H363 H 0.73263 0.06697 0.42379 0.0
H364 H 0.7247 0.12323 0.41938 0.0
O365 O 0.63321 0.99568 0.39855 0.0
O366 O 0.6331 0.99645 0.36983 0.0
H367 H 0.68879 0.09659 0.34678 0.0
H368 H 0.72576 0.12751 0.35004 0.0
C369 C 0.71446 0.09503 0.35156 0.0
H370 H 0.72813 0.07135 0.3435 0.0
H371 H 0.63625 0.04289 0.33787 0.0
O372 O 0.6846 -0.00048 0.42929 0.0
C373 C 0.61782 0.99666 0.38421 0.0
Co374 Co 0.30917 0.03484 0.40397 0.0
Co375 Co 0.31095 0.03214 0.36332 0.0
C376 C 0.28535 0.10974 0.3823 0.0
O377 O 0.29084 0.0918 0.39689 0.0
O378 O 0.29171 0.09023 0.36814 0.0
C379 C 0.27902 0.03918 0.43791 0.0
O380 O 0.25309 0.0537 0.42957 0.0
C381 C 0.28816 0.03305 0.32702 0.0
C382 C 0.32734 0.99514 0.31419 0.0
C383 C 0.298 0.01658 0.3111 0.0
N384 N 0.31068 0.02173 0.33894 0.0
N385 N 0.33421 -0.00048 0.33114 0.0
C386 C 0.25677 0.05604 0.33119 0.0
H387 H 0.24995 0.0505 0.34494 0.0
H388 H 0.23664 0.04487 0.32258 0.0
H389 H 0.26027 0.09142 0.3292 0.0
C390 C 0.27617 0.95031 0.39846 0.0
N391 N 0.28812 0.98816 0.39241 0.0
N392 N 0.28846 0.98704 0.37536 0.0
C393 C 0.27651 0.94844 0.37004 0.0
C394 C 0.26847 0.92379 0.38451 0.0
C395 C 0.27403 0.93896 0.41728 0.0
H396 H 0.25695 0.9618 0.42374 0.0
H397 H 0.2648 0.90551 0.41936 0.0
H398 H 0.29859 0.94257 0.42336 0.0
O399 O 0.35682 0.03271 0.39896 0.0
O400 O 0.35775 0.03135 0.37024 0.0
H401 H 0.30327 0.9324 0.34713 0.0
H402 H 0.26673 0.90038 0.35008 0.0
C403 C 0.27741 0.93322 0.35163 0.0
H404 H 0.26363 0.95637 0.34338 0.0
H405 H 0.35463 0.98655 0.33747 0.0
O406 O 0.30471 0.02913 0.42944 0.0
C407 C 0.37261 0.03127 0.38474 0.0
Co408 Co 0.68118 0.53687 0.10125 0.0
Co409 Co 0.68088 0.53408 0.14194 0.0
C410 C 0.70592 0.61158 0.12306 0.0
O411 O 0.69991 0.59369 0.10851 0.0
O412 O 0.7 0.59208 0.13727 0.0
C413 C 0.7124 0.53658 0.06744 0.0
O414 O 0.73959 0.5448 0.07601 0.0
C415 C 0.70206 0.53531 0.17862 0.0
C416 C 0.66503 0.4919 0.19039 0.0
C417 C 0.69262 0.51642 0.19419 0.0
N418 N 0.68098 0.52239 0.16623 0.0
N419 N 0.65872 0.49687 0.17341 0.0
C420 C 0.73212 0.56186 0.17516 0.0
H421 H 0.74011 0.55779 0.16152 0.0
H422 H 0.75239 0.55246 0.18402 0.0
H423 H 0.72626 0.59662 0.17733 0.0
C424 C 0.71374 0.45157 0.10657 0.0
N425 N 0.70211 0.48966 0.11261 0.0
N426 N 0.70329 0.48937 0.12965 0.0
C427 C 0.71647 0.45147 0.13496 0.0
C428 C 0.7233 0.42608 0.12054 0.0
C429 C 0.7112 0.43757 0.08804 0.0
H430 H 0.68842 0.45071 0.08217 0.0
H431 H 0.73259 0.45042 0.08077 0.0
H432 H 0.71099 0.4017 0.08683 0.0
O433 O 0.63368 0.53511 0.1064 0.0
O434 O 0.63392 0.53366 0.13512 0.0
H435 H 0.69767 0.43087 0.15945 0.0
H436 H 0.73853 0.41115 0.15476 0.0
C437 C 0.72165 0.43929 0.15352 0.0
H438 H 0.73225 0.46715 0.16065 0.0
H439 H 0.63962 0.48202 0.16662 0.0
O440 O 0.6856 0.53206 0.07571 0.0
C441 C 0.61847 0.53375 0.12079 0.0
Co442 Co 0.30909 0.49496 0.10296 0.0
Co443 Co 0.31266 0.49448 0.14347 0.0
C444 C 0.28688 0.41794 0.12372 0.0
O445 O 0.29166 0.43709 0.10931 0.0
O446 O 0.29358 0.43645 0.13806 0.0
C447 C 0.3064 0.4752 0.06658 0.0
O448 O 0.31472 0.43588 0.07151 0.0
C449 C 0.29052 0.49214 0.17977 0.0
C450 C 0.33075 0.52749 0.19284 0.0
C451 C 0.30087 0.50732 0.19579 0.0
N452 N 0.31327 0.50296 0.16791 0.0
N453 N 0.33743 0.52361 0.17584 0.0
C454 C 0.25843 0.47115 0.17544 0.0
H455 H 0.25203 0.47711 0.16167 0.0
H456 H 0.23858 0.48357 0.18398 0.0
H457 H 0.26064 0.4356 0.17746 0.0
C458 C 0.27462 0.57731 0.10977 0.0
N459 N 0.28778 0.53978 0.11538 0.0
N460 N 0.28935 0.54029 0.13239 0.0
C461 C 0.27741 0.57854 0.13816 0.0
C462 C 0.26782 0.60339 0.12398 0.0
C463 C 0.27045 0.58884 0.09107 0.0
H464 H 0.2578 0.56191 0.08426 0.0
H465 H 0.25586 0.619 0.08941 0.0
H466 H 0.29501 0.59318 0.08506 0.0
O467 O 0.35703 0.49765 0.10729 0.0
O468 O 0.35906 0.49645 0.136 0.0
H469 H 0.30579 0.59209 0.16079 0.0
H470 H 0.27048 0.62682 0.15837 0.0
C471 C 0.27976 0.5933 0.15659 0.0
H472 H 0.26544 0.57097 0.16494 0.0
H473 H 0.35811 0.53602 0.16957 0.0
O474 O 0.30255 0.50461 0.07791 0.0
C475 C 0.37336 0.49806 0.12136 0.0
Co476 Co 0.68298 0.49466 0.90461 0.0
Co477 Co 0.68149 0.49387 0.86394 0.0
C478 C 0.7082 0.41867 0.88385 0.0
O479 O 0.70226 0.43746 0.89822 0.0
O480 O 0.70171 0.43704 0.86947 0.0
C481 C 0.71447 0.49656 0.9383 0.0
O482 O 0.74123 0.48578 0.9298 0.0
C483 C 0.70423 0.49195 0.82762 0.0
C484 C 0.66142 0.52044 0.81418 0.0
C485 C 0.69254 0.50353 0.81126 0.0
N486 N 0.68105 0.50174 0.83942 0.0
N487 N 0.65549 0.51852 0.83128 0.0
C488 C 0.73743 0.47483 0.83242 0.0
H489 H 0.74235 0.48041 0.84639 0.0
H490 H 0.75681 0.49077 0.82457 0.0
H491 H 0.73818 0.43934 0.82999 0.0
C492 C 0.71495 0.57968 0.89784 0.0
N493 N 0.70315 0.54118 0.89237 0.0
N494 N 0.70315 0.54056 0.87531 0.0
C495 C 0.71528 0.5785 0.8694 0.0
C496 C 0.72313 0.6046 0.88348 0.0
C497 C 0.71412 0.59439 0.91632 0.0
H498 H 0.69123 0.58297 0.92262 0.0
H499 H 0.73538 0.58017 0.92331 0.0
H500 H 0.71536 0.63025 0.91738 0.0
O501 O 0.63523 0.49493 0.89972 0.0
O502 O 0.63479 0.49361 0.871 0.0
H503 H 0.69339 0.5923 0.84483 0.0
H504 H 0.73155 0.621 0.84868 0.0
C505 C 0.71828 0.58995 0.85063 0.0
H506 H 0.73193 0.56401 0.84382 0.0
H507 H 0.63406 0.52896 0.83743 0.0
O508 O 0.68777 0.50205 0.93003 0.0
C509 C 0.61967 0.49451 0.88542 0.0
Co510 Co 0.31032 0.53129 0.90383 0.0
Co511 Co 0.31345 0.53347 0.86322 0.0
C512 C 0.28857 0.60952 0.88381 0.0
O513 O 0.29271 0.58971 0.89813 0.0
O514 O 0.29561 0.59148 0.86944 0.0
C515 C 0.30181 0.54959 0.94026 0.0
O516 O 0.30228 0.59052 0.93549 0.0
C517 C 0.28957 0.5368 0.82703 0.0
C518 C 0.3318 0.5081 0.81314 0.0
C519 C 0.30061 0.52504 0.81062 0.0
N520 N 0.31305 0.52664 0.83863 0.0
N521 N 0.33824 0.50967 0.83021 0.0
C522 C 0.25778 0.55839 0.83167 0.0
H523 H 0.25984 0.57577 0.84414 0.0
H524 H 0.23839 0.53335 0.83309 0.0
H525 H 0.25024 0.58148 0.82137 0.0
C526 C 0.27621 0.44892 0.89647 0.0
N527 N 0.28887 0.48702 0.89112 0.0
N528 N 0.29008 0.48753 0.8741 0.0
C529 C 0.27831 0.44953 0.86806 0.0
C530 C 0.26917 0.42375 0.88202 0.0
C531 C 0.27589 0.4347 0.91502 0.0
H532 H 0.30118 0.43668 0.92034 0.0
H533 H 0.26012 0.45709 0.92262 0.0
H534 H 0.26675 0.40104 0.91659 0.0
O535 O 0.35815 0.52883 0.89913 0.0
O536 O 0.36001 0.53011 0.8704 0.0
H537 H 0.30369 0.43578 0.84443 0.0
H538 H 0.2662 0.40491 0.84729 0.0
C539 C 0.27808 0.43689 0.84935 0.0
H540 H 0.26443 0.46161 0.84182 0.0
H541 H 0.35981 0.49897 0.83613 0.0
O542 O 0.30455 0.52009 0.92888 0.0
C543 C 0.37438 0.52827 0.88503 0.0
H544 H 0.19794 0.94829 0.2166 0.0
H545 H 0.26738 0.08604 0.29564 0.0
H546 H 0.21634 0.08563 0.2119 0.0
H547 H 0.29038 0.95067 0.2882 0.0
H548 H 0.24065 0.08707 0.26706 0.0
H549 H 0.22394 0.94901 0.24517 0.0
C550 C 0.20752 0.9786 0.22161 0.0
C551 C 0.20541 0.01685 0.21185 0.0
C552 C 0.25151 0.0572 0.27176 0.0
C553 C 0.23463 0.01807 0.24457 0.0
C554 C 0.26644 0.05648 0.28807 0.0
C555 C 0.28076 0.01809 0.29428 0.0
C556 C 0.25051 0.01906 0.26181 0.0
C557 C 0.27958 0.9809 0.28385 0.0
C558 C 0.22242 0.97896 0.23786 0.0
C559 C 0.21807 0.05531 0.21893 0.0
N560 N 0.26448 0.9822 0.26818 0.0
N561 N 0.23201 0.05504 0.23496 0.0
H562 H 0.76991 0.94429 0.20986 0.0
H563 H 0.69914 0.08157 0.28868 0.0
H564 H 0.78924 0.08096 0.21626 0.0
H565 H 0.72176 0.9455 0.29416 0.0
H566 H 0.72468 0.08104 0.26 0.0
H567 H 0.74453 0.94302 0.23879 0.0
C568 C 0.76843 0.97407 0.21727 0.0
C569 C 0.78133 0.01291 0.21066 0.0
C570 C 0.72423 0.05134 0.26752 0.0
C571 C 0.75264 0.01164 0.24355 0.0
C572 C 0.70962 0.0516 0.28383 0.0
C573 C 0.70874 0.01365 0.29383 0.0
C574 C 0.73739 0.01258 0.26095 0.0
C575 C 0.72251 0.97561 0.28695 0.0
C576 C 0.7543 0.97322 0.23379 0.0
C577 C 0.77952 0.05038 0.22091 0.0
N578 N 0.7361 0.97592 0.27083 0.0
N579 N 0.7652 0.04892 0.23678 0.0
H580 H 0.26866 0.94222 0.70991 0.0
H581 H 0.19877 0.07855 0.78918 0.0
H582 H 0.28908 0.07847 0.71677 0.0
H583 H 0.22212 0.94268 0.79461 0.0
H584 H 0.2239 0.07817 0.7604 0.0
H585 H 0.24338 0.94066 0.73888 0.0
C586 C 0.26744 0.97185 0.71743 0.0
C587 C 0.28064 0.01064 0.71095 0.0
C588 C 0.22368 0.04848 0.76792 0.0
C589 C 0.25204 0.00906 0.74386 0.0
C590 C 0.2093 0.04865 0.7843 0.0
C591 C 0.20877 0.01072 0.79431 0.0
C592 C 0.23692 0.00983 0.76131 0.0
C593 C 0.22261 0.97277 0.78738 0.0
C594 C 0.25337 0.97083 0.73397 0.0
C595 C 0.27913 0.04793 0.72132 0.0
N596 N 0.23595 0.97316 0.77119 0.0
N597 N 0.26484 0.04632 0.7372 0.0
H598 H 0.75326 0.99604 0.70191 0.0
H599 H 0.75066 0.07882 0.7999 0.0
H600 H 0.67125 0.06549 0.72394 0.0
H601 H 0.81412 0.976 0.78179 0.0
H602 H 0.72481 0.08134 0.77144 0.0
H603 H 0.78019 0.99661 0.73023 0.0
C604 C 0.74122 0.01218 0.71261 0.0
C605 C 0.71022 0.03136 0.71053 0.0
C606 C 0.74422 0.058 0.77378 0.0
C607 C 0.74053 0.03135 0.74304 0.0
C608 C 0.75876 0.05608 0.79016 0.0
C609 C 0.78403 0.02617 0.79354 0.0
C610 C 0.75544 0.03044 0.76055 0.0
C611 C 0.79456 -0.00064 0.77989 0.0
C612 C 0.7564 0.012 0.72883 0.0
C613 C 0.69522 0.05044 0.72502 0.0
N614 N 0.78026 0.00213 0.76403 0.0
N615 N 0.71055 0.05011 0.74065 0.0
H616 H 0.25976 0.51901 0.70107 0.0
H617 H 0.2344 0.51724 0.8032 0.0
H618 H 0.16489 0.53516 0.72525 0.0
H619 H 0.32888 0.53744 0.77909 0.0
H620 H 0.20849 0.52081 0.77482 0.0
H621 H 0.2856 0.52275 0.72946 0.0
C622 C 0.24435 0.52446 0.71225 0.0
C623 C 0.2101 0.52808 0.71066 0.0
C624 C 0.23485 0.52502 0.77576 0.0
C625 C 0.23955 0.53041 0.74339 0.0
C626 C 0.24969 0.52356 0.79204 0.0
C627 C 0.28385 0.52835 0.79364 0.0
C628 C 0.25436 0.53047 0.76092 0.0
C629 C 0.30243 0.5339 0.77848 0.0
C630 C 0.25915 0.52602 0.72853 0.0
C631 C 0.19141 0.53254 0.72585 0.0
N632 N 0.28748 0.53474 0.76276 0.0
N633 N 0.20635 0.53352 0.74157 0.0
H634 H 0.82442 0.46418 0.72424 0.0
H635 H 0.67879 0.55294 0.78299 0.0
H636 H 0.73934 0.52912 0.70331 0.0
H637 H 0.74168 0.44778 0.79951 0.0
H638 H 0.70383 0.54959 0.75437 0.0
H639 H 0.79785 0.46299 0.75276 0.0
C640 C 0.8 0.47777 0.72564 0.0
C641 C 0.78375 0.49605 0.71137 0.0
C642 C 0.71224 0.5274 0.76431 0.0
C643 C 0.7536 0.49561 0.74389 0.0
C644 C 0.698 0.52928 0.78071 0.0
C645 C 0.70861 0.50136 0.79398 0.0
C646 C 0.73751 0.49754 0.76108 0.0
C647 C 0.73352 0.47127 0.79008 0.0
C648 C 0.78486 0.477 0.74186 0.0
C649 C 0.75231 0.51361 0.71385 0.0
N650 N 0.74728 0.47037 0.77402 0.0
N651 N 0.73835 0.51326 0.72984 0.0
H652 H 0.26844 0.43894 0.21088 0.0
H653 H 0.19913 0.57819 0.28942 0.0
H654 H 0.29449 0.57313 0.21883 0.0
H655 H 0.21603 0.44055 0.2944 0.0
H656 H 0.226 0.57679 0.26107 0.0
H657 H 0.24099 0.43864 0.23927 0.0
C658 C 0.26805 0.46839 0.21853 0.0
C659 C 0.28342 0.50625 0.21253 0.0
C660 C 0.22394 0.54693 0.2684 0.0
C661 C 0.25232 0.50611 0.24475 0.0
C662 C 0.20855 0.54768 0.28451 0.0
C663 C 0.20577 0.50952 0.29428 0.0
C664 C 0.23595 0.50754 0.26183 0.0
C665 C 0.21825 0.47077 0.28735 0.0
C666 C 0.25271 0.46808 0.23473 0.0
C667 C 0.28288 0.54332 0.22304 0.0
N668 N 0.23266 0.47067 0.27144 0.0
N669 N 0.26733 0.54245 0.23859 0.0
H670 H 0.71951 0.58694 0.21083 0.0
H671 H 0.79075 0.44728 0.28912 0.0
H672 H 0.70214 0.44957 0.21647 0.0
H673 H 0.77134 0.5843 0.29429 0.0
H674 H 0.76505 0.44844 0.26051 0.0
H675 H 0.74536 0.58765 0.23961 0.0
C676 C 0.72149 0.5569 0.21804 0.0
C677 C 0.70906 0.51802 0.21123 0.0
C678 C 0.76623 0.47823 0.26794 0.0
C679 C 0.73824 0.51866 0.244 0.0
C680 C 0.78097 0.47761 0.28421 0.0
C681 C 0.78275 0.51563 0.29412 0.0
C682 C 0.75379 0.51737 0.26133 0.0
C683 C 0.76984 0.55412 0.28717 0.0
C684 C 0.7359 0.55742 0.23449 0.0
C685 C 0.71148 0.4802 0.22126 0.0
N686 N 0.75603 0.55411 0.2711 0.0
N687 N 0.726 0.48139 0.23707 0.0
H688 H 0.22132 0.15923 0.15188 0.0
H689 H 0.27198 0.36726 0.09567 0.0
H690 H 0.22192 0.16196 0.09595 0.0
H691 H 0.27353 0.36517 0.15159 0.0
H692 H 0.25334 0.29212 0.09568 0.0
H693 H 0.24074 0.23428 0.15215 0.0
C694 C 0.22563 0.17549 0.13965 0.0
C695 C 0.21986 0.15415 0.12386 0.0
C696 C 0.25772 0.30805 0.10796 0.0
C697 C 0.24199 0.24029 0.12411 0.0
C698 C 0.26831 0.3511 0.10798 0.0
C699 C 0.27439 0.37272 0.12366 0.0
C700 C 0.25308 0.28623 0.12374 0.0
C701 C 0.2692 0.34988 0.13918 0.0
C702 C 0.23668 0.21841 0.13983 0.0
C703 C 0.22596 0.17699 0.10844 0.0
N704 N 0.25888 0.30789 0.13882 0.0
N705 N 0.23659 0.21877 0.10897 0.0
H706 H 0.72067 0.66194 0.1514 0.0
H707 H 0.77042 0.86908 0.09443 0.0
H708 H 0.72032 0.66418 0.09547 0.0
H709 H 0.77166 0.86871 0.15037 0.0
H710 H 0.75164 0.79405 0.09478 0.0
H711 H 0.73957 0.73729 0.15146 0.0
C712 C 0.72465 0.67815 0.13913 0.0
C713 C 0.7188 0.65659 0.12339 0.0
C714 C 0.75597 0.81033 0.10699 0.0
C715 C 0.74032 0.743 0.12341 0.0
C716 C 0.76666 0.85331 0.10681 0.0
C717 C 0.77273 0.87536 0.1224 0.0
C718 C 0.75126 0.78897 0.12287 0.0
C719 C 0.76734 0.85306 0.13803 0.0
C720 C 0.73539 0.72124 0.13919 0.0
C721 C 0.72443 0.67937 0.10792 0.0
N722 N 0.75697 0.81107 0.13786 0.0
N723 N 0.73479 0.72126 0.10833 0.0
H724 H 0.22341 0.86783 0.855 0.0
H725 H 0.27325 0.6603 0.91185 0.0
H726 H 0.22309 0.86603 0.91094 0.0
H727 H 0.27589 0.66232 0.85594 0.0
H728 H 0.25452 0.73556 0.91169 0.0
H729 H 0.24283 0.79275 0.85503 0.0
C730 C 0.2275 0.85176 0.8673 0.0
C731 C 0.22149 0.87337 0.883 0.0
C732 C 0.25918 0.71956 0.89945 0.0
C733 C 0.24365 0.78721 0.8831 0.0
C734 C 0.26982 0.67647 0.89953 0.0
C735 C 0.27622 0.65482 0.88388 0.0
C736 C 0.25481 0.7413 0.88362 0.0
C737 C 0.27132 0.67763 0.86833 0.0
C738 C 0.23857 0.80882 0.86729 0.0
C739 C 0.22732 0.85077 0.89851 0.0
N740 N 0.26095 0.71959 0.8686 0.0
N741 N 0.23797 0.80897 0.89816 0.0
H742 H 0.72356 0.36771 0.91185 0.0
H743 H 0.77326 0.16077 0.8547 0.0
H744 H 0.72274 0.367 0.85592 0.0
H745 H 0.77352 0.16182 0.91063 0.0
H746 H 0.75469 0.23621 0.85485 0.0
H747 H 0.74253 0.29255 0.9116 0.0
C748 C 0.72748 0.35187 0.8995 0.0
C749 C 0.72143 0.37381 0.88388 0.0
C750 C 0.75876 0.21991 0.86708 0.0
C751 C 0.74305 0.28744 0.88351 0.0
C752 C 0.76932 0.17675 0.86702 0.0
C753 C 0.77504 0.15482 0.88268 0.0
C754 C 0.75389 0.2414 0.88292 0.0
C755 C 0.76947 0.17732 0.89823 0.0
C756 C 0.73827 0.30885 0.89938 0.0
C757 C 0.72701 0.35145 0.86829 0.0
N758 N 0.75928 0.21934 0.89795 0.0
N759 N 0.73742 0.30951 0.86851 0.0
H760 H 0.81479 0.86106 0.89514 0.0
H761 H 0.77356 0.64185 0.90122 0.0
H762 H 0.72003 0.87786 0.87126 0.0
H763 H 0.69472 0.67196 0.86598 0.0
H764 H 0.78828 0.71841 0.90212 0.0
H765 H 0.80656 0.7828 0.89521 0.0
C766 C 0.79199 0.84795 0.89013 0.0
C767 C 0.7678 0.87556 0.88344 0.0
C768 C 0.76826 0.70861 0.89382 0.0
C769 C 0.7575 0.78591 0.88379 0.0
C770 C 0.75969 0.66476 0.89347 0.0
C771 C 0.73325 0.65068 0.88334 0.0
C772 C 0.75029 0.73864 0.88382 0.0
C773 C 0.71574 0.68149 0.87368 0.0
C774 C 0.78708 0.80316 0.89027 0.0
C775 C 0.73904 0.85736 0.87669 0.0
N776 N 0.72454 0.72402 0.87417 0.0
N777 N 0.73463 0.8136 0.87709 0.0
H778 H 0.21623 0.38306 0.89633 0.0
H779 H 0.27746 0.14456 0.86954 0.0
H780 H 0.3052 0.35846 0.86771 0.0
H781 H 0.18904 0.16909 0.89864 0.0
H782 H 0.28812 0.22293 0.86861 0.0
H783 H 0.20545 0.30472 0.89715 0.0
C784 C 0.23333 0.36101 0.89014 0.0
C785 C 0.26145 0.37692 0.88185 0.0
C786 C 0.26644 0.21123 0.87526 0.0
C787 C 0.2496 0.28763 0.88276 0.0
C788 C 0.26044 0.16662 0.87579 0.0
C789 C 0.23251 0.15071 0.88426 0.0
C790 C 0.24423 0.24 0.88322 0.0
C791 C 0.21105 0.18029 0.89215 0.0
C792 C 0.22727 0.31641 0.89062 0.0
C793 C 0.28302 0.34731 0.87405 0.0
N794 N 0.21733 0.22356 0.89143 0.0
N795 N 0.27667 0.30405 0.87471 0.0
H796 H 0.77074 0.38768 0.10083 0.0
H797 H 0.81152 0.16804 0.10717 0.0
H798 H 0.69641 0.35928 0.13893 0.0
H799 H 0.71687 0.15262 0.13134 0.0
H800 H 0.80368 0.24649 0.10698 0.0
H801 H 0.78408 0.31056 0.09927 0.0
C802 C 0.7576 0.36507 0.10905 0.0
C803 C 0.73282 0.37975 0.12019 0.0
C804 C 0.78416 0.2263 0.11199 0.0
C805 C 0.74833 0.29135 0.11891 0.0
C806 C 0.78881 0.18145 0.11219 0.0
C807 C 0.76457 0.15417 0.11906 0.0
C808 C 0.75488 0.24396 0.11864 0.0
C809 C 0.73595 0.17282 0.12581 0.0
C810 C 0.7654 0.32096 0.10832 0.0
C811 C 0.7162 0.3493 0.13044 0.0
N812 N 0.73188 0.21663 0.12543 0.0
N813 N 0.7242 0.30654 0.12953 0.0
H814 H 0.2687 0.88026 0.10443 0.0
H815 H 0.21794 0.64536 0.14074 0.0
H816 H 0.18897 0.85906 0.14019 0.0
H817 H 0.30035 0.66742 0.10682 0.0
H818 H 0.20624 0.72355 0.14041 0.0
H819 H 0.28011 0.80204 0.10463 0.0
C820 C 0.25371 0.85902 0.11235 0.0
C821 C 0.22816 0.87593 0.12245 0.0
C822 C 0.22685 0.71131 0.13301 0.0
C823 C 0.24081 0.78675 0.12275 0.0
C824 C 0.23348 0.66681 0.13322 0.0
C825 C 0.25998 0.65022 0.12374 0.0
C826 C 0.24694 0.73927 0.12323 0.0
C827 C 0.27945 0.67907 0.11415 0.0
C828 C 0.26019 0.81449 0.11249 0.0
C829 C 0.2093 0.84727 0.13246 0.0
N830 N 0.27255 0.7222 0.11413 0.0
N831 N 0.21599 0.80407 0.13236 0.0
H832 H 0.21774 0.6631 0.64963 0.0
H833 H 0.26871 0.87126 0.5937 0.0
H834 H 0.21817 0.666 0.5937 0.0
H835 H 0.26982 0.86869 0.64963 0.0
H836 H 0.24937 0.79644 0.59357 0.0
H837 H 0.23654 0.73833 0.64995 0.0
C838 C 0.22184 0.67947 0.6374 0.0
C839 C 0.2163 0.65809 0.6216 0.0
C840 C 0.25378 0.81221 0.60588 0.0
C841 C 0.23776 0.74446 0.62191 0.0
C842 C 0.2648 0.85506 0.60598 0.0
C843 C 0.27103 0.8764 0.62171 0.0
C844 C 0.2489 0.79033 0.62162 0.0
C845 C 0.26542 0.85359 0.63719 0.0
C846 C 0.23255 0.7225 0.63761 0.0
C847 C 0.22209 0.68107 0.60619 0.0
N848 N 0.25474 0.81177 0.63674 0.0
N849 N 0.23245 0.72299 0.60675 0.0
H850 H 0.77017 0.36858 0.64945 0.0
H851 H 0.72019 0.16146 0.59266 0.0
H852 H 0.77022 0.36751 0.59351 0.0
H853 H 0.71845 0.1634 0.64858 0.0
H854 H 0.73909 0.23662 0.59272 0.0
H855 H 0.75113 0.29351 0.64936 0.0
C856 C 0.7661 0.35265 0.63713 0.0
C857 C 0.77192 0.37447 0.62145 0.0
C858 C 0.73461 0.2206 0.60498 0.0
C859 C 0.75019 0.28823 0.62129 0.0
C860 C 0.72388 0.17758 0.60497 0.0
C861 C 0.71763 0.15598 0.62065 0.0
C862 C 0.73918 0.24231 0.62079 0.0
C863 C 0.72288 0.17868 0.63617 0.0
C864 C 0.75525 0.3097 0.6371 0.0
C865 C 0.7661 0.35206 0.60591 0.0
N866 N 0.7333 0.22059 0.63584 0.0
N867 N 0.75564 0.31016 0.60623 0.0
H868 H 0.22122 0.36768 0.41066 0.0
H869 H 0.27101 0.16016 0.35389 0.0
H870 H 0.21866 0.36635 0.35474 0.0
H871 H 0.27072 0.16238 0.40982 0.0
H872 H 0.25211 0.23556 0.35376 0.0
H873 H 0.24031 0.29271 0.4104 0.0
C874 C 0.22477 0.35172 0.3983 0.0
C875 C 0.21821 0.37346 0.38269 0.0
C876 C 0.25615 0.21949 0.36605 0.0
C877 C 0.24003 0.28719 0.38232 0.0
C878 C 0.26689 0.17638 0.36614 0.0
C879 C 0.27255 0.1548 0.3819 0.0
C880 C 0.25104 0.24123 0.38182 0.0
C881 C 0.26675 0.17758 0.39735 0.0
C882 C 0.23562 0.30878 0.39817 0.0
C883 C 0.22333 0.35093 0.3671 0.0
N884 N 0.2564 0.21949 0.39691 0.0
N885 N 0.23388 0.30902 0.36731 0.0
H886 H 0.77042 0.66019 0.35375 0.0
H887 H 0.72128 0.86842 0.41018 0.0
H888 H 0.77078 0.66323 0.40968 0.0
H889 H 0.71922 0.86696 0.35425 0.0
H890 H 0.74013 0.79341 0.41002 0.0
H891 H 0.75171 0.73564 0.35349 0.0
C892 C 0.76647 0.6766 0.36598 0.0
C893 C 0.77226 0.65524 0.38177 0.0
C894 C 0.73561 0.80944 0.39777 0.0
C895 C 0.75097 0.74175 0.38153 0.0
C896 C 0.72488 0.85241 0.39784 0.0
C897 C 0.71853 0.87414 0.3822 0.0
C898 C 0.74009 0.78777 0.38195 0.0
C899 C 0.72375 0.85155 0.36663 0.0
C900 C 0.75585 0.71975 0.36581 0.0
C901 C 0.76669 0.67827 0.39719 0.0
N902 N 0.73415 0.80957 0.3669 0.0
N903 N 0.75644 0.72021 0.39667 0.0
H904 H 0.7196 0.38249 0.40225 0.0
H905 H 0.77501 0.14562 0.37026 0.0
H906 H 0.80108 0.35958 0.36778 0.0
H907 H 0.68671 0.16959 0.39953 0.0
H908 H 0.78661 0.22378 0.37038 0.0
H909 H 0.70854 0.30414 0.40273 0.0
C910 C 0.73503 0.36083 0.39475 0.0
C911 C 0.76098 0.37725 0.38482 0.0
C912 C 0.76473 0.21198 0.37683 0.0
C913 C 0.74881 0.28802 0.38533 0.0
C914 C 0.75819 0.16749 0.37675 0.0
C915 C 0.73003 0.15148 0.38496 0.0
C916 C 0.74291 0.24051 0.38521 0.0
C917 C 0.70889 0.18085 0.39322 0.0
C918 C 0.72876 0.31625 0.395 0.0
C919 C 0.78047 0.34811 0.37538 0.0
N920 N 0.71575 0.224 0.39315 0.0
N921 N 0.77401 0.30489 0.37587 0.0
H922 H 0.1874 0.66836 0.36634 0.0
H923 H 0.3042 0.85986 0.39991 0.0
H924 H 0.26937 0.64754 0.4007 0.0
H925 H 0.21659 0.88153 0.36979 0.0
H926 H 0.29271 0.78183 0.39987 0.0
H927 H 0.19878 0.7463 0.36664 0.0
C928 C 0.20803 0.68031 0.37381 0.0
C929 C 0.22776 0.65169 0.38336 0.0
C930 C 0.27589 0.80358 0.39332 0.0
C931 C 0.24067 0.74073 0.384 0.0
C932 C 0.28236 0.84803 0.39342 0.0
C933 C 0.26111 0.87687 0.38495 0.0
C934 C 0.24805 0.78788 0.38459 0.0
C935 C 0.23349 0.86013 0.37646 0.0
C936 C 0.21438 0.72477 0.37409 0.0
C937 C 0.25371 0.66873 0.39313 0.0
N938 N 0.22774 0.81665 0.37647 0.0
N939 N 0.25949 0.71221 0.39318 0.0
H940 H 0.80504 0.67041 0.6391 0.0
H941 H 0.68641 0.86017 0.60546 0.0
H942 H 0.71919 0.6478 0.60772 0.0
H943 H 0.76897 0.88229 0.63925 0.0
H944 H 0.69839 0.78232 0.60584 0.0
H945 H 0.79255 0.74815 0.63923 0.0
C946 C 0.78334 0.68193 0.63239 0.0
C947 C 0.76281 0.65288 0.62357 0.0
C948 C 0.71398 0.80411 0.61315 0.0
C949 C 0.74866 0.74161 0.62337 0.0
C950 C 0.70725 0.84848 0.61285 0.0
C951 C 0.72706 0.87742 0.62215 0.0
C952 C 0.74069 0.78859 0.62288 0.0
C953 C 0.7533 0.86081 0.63184 0.0
C954 C 0.77631 0.72624 0.63238 0.0
C955 C 0.73548 0.66933 0.61472 0.0
N956 N 0.75945 0.81742 0.63192 0.0
N957 N 0.72916 0.71266 0.61484 0.0
H958 H 0.18648 0.3629 0.63716 0.0
H959 H 0.30537 0.17083 0.60609 0.0
H960 H 0.2716 0.38331 0.60498 0.0
H961 H 0.21577 0.14956 0.63458 0.0
H962 H 0.29413 0.24891 0.60599 0.0
H963 H 0.19756 0.28484 0.63704 0.0
C964 C 0.2077 0.3508 0.63019 0.0
C965 C 0.22846 0.37932 0.62124 0.0
C966 C 0.27683 0.22725 0.61222 0.0
C967 C 0.24108 0.29023 0.62082 0.0
C968 C 0.28319 0.18277 0.61222 0.0
C969 C 0.26128 0.15404 0.62025 0.0
C970 C 0.24842 0.24307 0.62042 0.0
C971 C 0.23318 0.1709 0.62826 0.0
C972 C 0.21391 0.3063 0.63003 0.0
C973 C 0.25518 0.36217 0.6121 0.0
N974 N 0.22753 0.2144 0.62815 0.0
N975 N 0.26081 0.31866 0.61215 0.0
H976 H 0.91382 0.00388 0.14855 0.0
H977 H 0.07759 0.02979 0.09202 0.0
H978 H 0.91484 0.00268 0.09261 0.0
H979 H 0.07594 0.02946 0.14796 0.0
H980 H 0.01793 0.02096 0.0919 0.0
H981 H 0.97329 0.01342 0.14849 0.0
C982 C 0.92653 0.00543 0.13624 0.0
C983 C 0.90923 0.00244 0.12056 0.0
C984 C 0.03064 0.02293 0.10419 0.0
C985 C 0.97746 0.01365 0.12041 0.0
C986 C 0.06472 0.02808 0.10428 0.0
C987 C 0.08188 0.03034 0.12003 0.0
C988 C 0.01356 0.01998 0.11996 0.0
C989 C 0.06382 0.02788 0.1355 0.0
C990 C 0.96053 0.01099 0.13622 0.0
C991 C 0.92711 0.00478 0.10502 0.0
N992 N 0.03069 0.02275 0.13507 0.0
N993 N 0.96024 0.01031 0.10535 0.0
H994 H 0.07973 -0.00016 0.91393 0.0
H995 H 0.91703 0.02851 0.85676 0.0
H996 H 0.07869 0.00068 0.85799 0.0
H997 H 0.91658 0.026 0.9127 0.0
H998 H 0.97645 0.01903 0.85713 0.0
H999 H 0.02007 0.0092 0.91389 0.0
C1000 C 0.06699 0.00179 0.90164 0.0
C1001 C 0.08432 -0.00052 0.88594 0.0
C1002 C 0.9634 0.02062 0.86934 0.0
C1003 C 0.01604 0.01045 0.88582 0.0
C1004 C 0.92941 0.02615 0.86914 0.0
C1005 C 0.9117 0.02806 0.88473 0.0
C1006 C 0.97994 0.01693 0.88523 0.0
C1007 C 0.92918 0.02474 0.90036 0.0
C1008 C 0.03292 0.00724 0.90163 0.0
C1009 C 0.06644 0.00227 0.87042 0.0
N1010 N 0.96234 0.01927 0.90021 0.0
N1011 N 0.03334 0.00769 0.87077 0.0
H1012 H 0.91302 0.50228 0.59132 0.0
H1013 H 0.07666 0.52687 0.64798 0.0
H1014 H 0.9152 0.49844 0.64723 0.0
H1015 H 0.07622 0.52796 0.59203 0.0
H1016 H 0.0173 0.51694 0.64777 0.0
H1017 H 0.97271 0.51131 0.59114 0.0
C1018 C 0.92601 0.50312 0.60355 0.0
C1019 C 0.909 0.49964 0.61932 0.0
C1020 C 0.03015 0.5194 0.63553 0.0
C1021 C 0.97728 0.51022 0.61919 0.0
C1022 C 0.0641 0.52518 0.63563 0.0
C1023 C 0.08153 0.52828 0.61999 0.0
C1024 C 0.01336 0.51667 0.61968 0.0
C1025 C 0.06382 0.52577 0.6044 0.0
C1026 C 0.9601 0.50837 0.60344 0.0
C1027 C 0.92719 0.50101 0.63476 0.0
N1028 N 0.0307 0.52007 0.60465 0.0
N1029 N 0.96029 0.50629 0.6343 0.0
H1030 H 0.91343 0.52694 0.35687 0.0
H1031 H 0.07667 0.50027 0.41373 0.0
H1032 H 0.91382 0.5276 0.41281 0.0
H1033 H 0.07527 0.49987 0.35779 0.0
H1034 H 0.01704 0.50965 0.41377 0.0
H1035 H 0.97286 0.51731 0.35709 0.0
C1036 C 0.926 0.52526 0.36922 0.0
C1037 C 0.90853 0.5281 0.38486 0.0
C1038 C 0.0298 0.5074 0.40149 0.0
C1039 C 0.97674 0.51679 0.38518 0.0
C1040 C 0.06385 0.50194 0.40145 0.0
C1041 C 0.08107 0.49929 0.38573 0.0
C1042 C 0.01282 0.51027 0.3857 0.0
C1043 C 0.0631 0.50174 0.37023 0.0
C1044 C 0.95998 0.51964 0.36932 0.0
C1045 C 0.92623 0.5256 0.40044 0.0
N1046 N 0.03 0.50717 0.37062 0.0
N1047 N 0.95937 0.52002 0.4002 0.0
H1048 H 0.41322 0.00334 0.64845 0.0
H1049 H 0.57665 0.02723 0.5915 0.0
H1050 H 0.41361 0.00224 0.5925 0.0
H1051 H 0.57503 0.0307 0.64743 0.0
H1052 H 0.517 0.01804 0.59149 0.0
H1053 H 0.47271 0.01241 0.6482 0.0
C1054 C 0.4258 0.0048 0.6361 0.0
C1055 C 0.40831 0.00203 0.62047 0.0
C1056 C 0.52972 0.02091 0.60376 0.0
C1057 C 0.47658 0.01268 0.62011 0.0
C1058 C 0.56379 0.02625 0.60378 0.0
C1059 C 0.58095 0.02972 0.61949 0.0
C1060 C 0.51268 0.01896 0.61956 0.0
C1061 C 0.56291 0.02816 0.63499 0.0
C1062 C 0.45981 0.01011 0.63597 0.0
C1063 C 0.42603 0.00422 0.60488 0.0
N1064 N 0.52981 0.02282 0.63462 0.0
N1065 N 0.45918 0.00949 0.6051 0.0
H1066 H 0.41341 0.02781 0.41302 0.0
H1067 H 0.57666 0.00044 0.35619 0.0
H1068 H 0.41452 0.02577 0.35708 0.0
H1069 H 0.57622 0.00114 0.41214 0.0
H1070 H 0.51714 0.00938 0.35637 0.0
H1071 H 0.47304 0.01856 0.41304 0.0
C1072 C 0.42616 0.0256 0.40074 0.0
C1073 C 0.40887 0.02758 0.38502 0.0
C1074 C 0.53003 0.00749 0.36862 0.0
C1075 C 0.47714 0.01677 0.38497 0.0
C1076 C 0.56406 0.00228 0.36853 0.0
C1077 C 0.58154 4e-05 0.38419 0.0
C1078 C 0.51325 0.01054 0.38446 0.0
C1079 C 0.56381 0.00268 0.39976 0.0
C1080 C 0.46022 0.02022 0.40077 0.0
C1081 C 0.42676 0.02445 0.36952 0.0
N1082 N 0.53065 0.00788 0.3995 0.0
N1083 N 0.45988 0.01915 0.3699 0.0
H1084 H 0.5777 0.52892 0.14892 0.0
H1085 H 0.41335 0.50421 0.09279 0.0
H1086 H 0.57647 0.53025 0.09298 0.0
H1087 H 0.41599 0.50188 0.14871 0.0
H1088 H 0.47298 0.51388 0.09245 0.0
H1089 H 0.51822 0.51995 0.14894 0.0
C1090 C 0.56494 0.52751 0.13662 0.0
C1091 C 0.58219 0.53033 0.12092 0.0
C1092 C 0.46048 0.51117 0.10478 0.0
C1093 C 0.51391 0.51979 0.12086 0.0
C1094 C 0.42643 0.50556 0.10499 0.0
C1095 C 0.40957 0.5022 0.1208 0.0
C1096 C 0.4778 0.51348 0.12049 0.0
C1097 C 0.42787 0.50427 0.1362 0.0
C1098 C 0.53093 0.52229 0.13665 0.0
C1099 C 0.56423 0.52824 0.1054 0.0
N1100 N 0.46094 0.50982 0.13564 0.0
N1101 N 0.53107 0.52301 0.10577 0.0
H1102 H 0.41448 0.52328 0.91359 0.0
H1103 H 0.57846 0.49519 0.85743 0.0
H1104 H 0.41689 0.52275 0.85766 0.0
H1105 H 0.57799 0.50025 0.91334 0.0
H1106 H 0.51894 0.5032 0.85748 0.0
H1107 H 0.47412 0.51364 0.91394 0.0
C1108 C 0.42751 0.52127 0.90138 0.0
C1109 C 0.41059 0.52388 0.88556 0.0
C1110 C 0.53181 0.50248 0.86975 0.0
C1111 C 0.47883 0.51262 0.8859 0.0
C1112 C 0.56586 0.49779 0.86974 0.0
C1113 C 0.58335 0.49711 0.88541 0.0
C1114 C 0.51497 0.50655 0.88554 0.0
C1115 C 0.56557 0.50063 0.90094 0.0
C1116 C 0.46157 0.51569 0.9016 0.0
C1117 C 0.42882 0.52099 0.87017 0.0
N1118 N 0.53234 0.5053 0.90061 0.0
N1119 N 0.4619 0.51547 0.87073 0.0
H1120 H 0.16291 0.01573 0.95968 0.0
H1121 H 0.2685 0.02099 0.0471 0.0
H1122 H 0.26522 0.97888 0.96167 0.0
H1123 H 0.16257 0.0282 0.04569 0.0
H1124 H 0.26891 0.01127 0.0156 0.0
H1125 H 0.1635 0.02638 0.99098 0.0
C1126 C 0.18554 0.00991 0.96669 0.0
C1127 C 0.21405 0.99626 0.95801 0.0
C1128 C 0.24561 0.01496 0.02221 0.0
C1129 C 0.2149 0.00859 0.99395 0.0
C1130 C 0.24534 0.02064 0.04018 0.0
C1131 C 0.21545 0.02541 0.04907 0.0
C1132 C 0.21578 0.01446 0.01304 0.0
C1133 C 0.1862 0.02456 0.03942 0.0
C1134 C 0.18583 0.01591 0.98459 0.0
C1135 C 0.24264 0.98926 0.96782 0.0
N1136 N 0.18712 0.01932 0.02196 0.0
N1137 N 0.24237 0.9956 0.98527 0.0
H1138 H 0.72721 0.03523 0.95904 0.0
H1139 H 0.83348 0.00792 0.0454 0.0
H1140 H 0.83265 0.0195 0.95939 0.0
H1141 H 0.72842 0.98854 0.04418 0.0
H1142 H 0.83311 0.01836 0.01409 0.0
H1143 H 0.72662 0.02412 0.99047 0.0
C1144 C 0.75023 0.02952 0.96571 0.0
C1145 C 0.78004 0.02834 0.95656 0.0
C1146 C 0.81013 0.01172 0.02065 0.0
C1147 C 0.77952 0.01582 0.99248 0.0
C1148 C 0.8103 0.00585 0.03855 0.0
C1149 C 0.78093 0.99725 0.04744 0.0
C1150 C 0.78034 0.00943 0.01152 0.0
C1151 C 0.75166 0.99493 0.03785 0.0
C1152 C 0.74984 0.02304 0.98363 0.0
C1153 C 0.80909 0.02064 0.96588 0.0
N1154 N 0.75207 0.00116 0.0204 0.0
N1155 N 0.80811 0.01487 0.98331 0.0
H1156 H 0.15958 0.52018 0.54528 0.0
H1157 H 0.26728 0.49691 0.45906 0.0
H1158 H 0.26502 0.5359 0.54478 0.0
H1159 H 0.16141 0.50669 0.4596 0.0
H1160 H 0.2676 0.5064 0.49058 0.0
H1161 H 0.16045 0.51016 0.514 0.0
C1162 C 0.18296 0.52151 0.5386 0.0
C1163 C 0.21228 0.52901 0.54769 0.0
C1164 C 0.24434 0.5065 0.48376 0.0
C1165 C 0.21344 0.51741 0.51174 0.0
C1166 C 0.24412 0.50099 0.46579 0.0
C1167 C 0.21427 0.50099 0.45666 0.0
C1168 C 0.21449 0.51171 0.49267 0.0
C1169 C 0.18503 0.50651 0.46606 0.0
C1170 C 0.18343 0.51586 0.5207 0.0
C1171 C 0.24182 0.53036 0.53829 0.0
N1172 N 0.18589 0.51153 0.48352 0.0
N1173 N 0.24167 0.52453 0.52082 0.0
H1174 H 0.8306 0.52577 0.45967 0.0
H1175 H 0.72321 0.49725 0.54574 0.0
H1176 H 0.72468 0.53413 0.45992 0.0
H1177 H 0.82848 0.51474 0.54559 0.0
H1178 H 0.72287 0.50677 0.51423 0.0
H1179 H 0.82994 0.51749 0.49107 0.0
C1180 C 0.80716 0.52588 0.46632 0.0
C1181 C 0.77764 0.53072 0.45711 0.0
C1182 C 0.74601 0.50861 0.52112 0.0
C1183 C 0.77672 0.52108 0.49319 0.0
C1184 C 0.74624 0.5031 0.5391 0.0
C1185 C 0.77593 0.50513 0.54834 0.0
C1186 C 0.77571 0.51586 0.5123 0.0
C1187 C 0.805 0.51291 0.53904 0.0
C1188 C 0.80682 0.52123 0.48428 0.0
C1189 C 0.74804 0.53061 0.46648 0.0
N1190 N 0.80415 0.51782 0.52157 0.0
N1191 N 0.74832 0.52574 0.484 0.0
H1192 H 0.76398 0.04059 0.54479 0.0
H1193 H 0.65757 0.00461 0.45917 0.0
H1194 H 0.65965 0.01515 0.54529 0.0
H1195 H 0.763 0.98896 0.46004 0.0
H1196 H 0.65812 0.0155 0.49046 0.0
H1197 H 0.7644 0.02851 0.51341 0.0
C1198 C 0.74117 0.03252 0.53831 0.0
C1199 C 0.71172 0.02891 0.54768 0.0
C1200 C 0.68114 0.00955 0.48383 0.0
C1201 C 0.71203 0.01534 0.51184 0.0
C1202 C 0.68087 0.00346 0.46594 0.0
C1203 C 0.7103 0.99578 0.45697 0.0
C1204 C 0.71109 0.00851 0.49284 0.0
C1205 C 0.73973 0.9946 0.46645 0.0
C1206 C 0.74147 0.02549 0.52043 0.0
C1207 C 0.68293 0.01821 0.53862 0.0
N1208 N 0.73941 0.00112 0.48388 0.0
N1209 N 0.68379 0.01204 0.52121 0.0
H1210 H 0.22554 0.04167 0.45958 0.0
H1211 H 0.33223 0.01114 0.54557 0.0
H1212 H 0.33066 0.02246 0.45951 0.0
H1213 H 0.22723 0.99122 0.54443 0.0
H1214 H 0.33162 0.02268 0.51431 0.0
H1215 H 0.22519 0.03043 0.49102 0.0
C1216 C 0.24854 0.03522 0.46617 0.0
C1217 C 0.27818 0.033 0.4569 0.0
C1218 C 0.30871 0.01569 0.52088 0.0
C1219 C 0.27794 0.02035 0.4928 0.0
C1220 C 0.30901 0.0092 0.53875 0.0
C1221 C 0.27973 8e-05 0.54763 0.0
C1222 C 0.27887 0.01355 0.5118 0.0
C1223 C 0.2504 0.99796 0.53809 0.0
C1224 C 0.24828 0.02865 0.48408 0.0
C1225 C 0.30722 0.02437 0.4661 0.0
N1226 N 0.25068 0.00482 0.52068 0.0
N1227 N 0.30637 0.01854 0.48353 0.0
H1228 H 0.65989 0.52662 0.04573 0.0
H1229 H 0.768 0.49571 0.96001 0.0
H1230 H 0.76585 0.53419 0.04568 0.0
H1231 H 0.66258 0.51183 0.95996 0.0
H1232 H 0.76811 0.50595 0.99147 0.0
H1233 H 0.66079 0.51722 0.0144 0.0
C1234 C 0.68339 0.52634 0.03913 0.0
C1235 C 0.71285 0.53128 0.04838 0.0
C1236 C 0.74499 0.50731 0.98455 0.0
C1237 C 0.71404 0.52034 0.01238 0.0
C1238 C 0.74489 0.50137 0.96659 0.0
C1239 C 0.71523 0.50285 0.95731 0.0
C1240 C 0.71519 0.51446 0.9933 0.0
C1241 C 0.68605 0.51042 0.96654 0.0
C1242 C 0.68387 0.52103 0.02121 0.0
C1243 C 0.74253 0.53063 0.03908 0.0
N1244 N 0.68677 0.5158 0.98399 0.0
N1245 N 0.74239 0.52514 0.02159 0.0
H1246 H 0.3038 0.46829 0.95455 0.0
H1247 H 0.2921 0.55414 0.05215 0.0
H1248 H 0.29475 0.6037 0.9682 0.0
H1249 H 0.31256 0.4208 0.03866 0.0
H1250 H 0.28845 0.57192 0.02143 0.0
H1251 H 0.3025 0.44948 0.98525 0.0
C1252 C 0.30142 0.4941 0.96399 0.0
C1253 C 0.29957 0.53771 0.95878 0.0
C1254 C 0.29367 0.53875 0.02518 0.0
C1255 C 0.29806 0.5163 0.99398 0.0
C1256 C 0.29572 0.52852 0.04274 0.0
C1257 C 0.30282 0.4859 0.04801 0.0
C1258 C 0.29868 0.50615 0.01275 0.0
C1259 C 0.30717 0.4541 0.0352 0.0
C1260 C 0.30072 0.4833 0.98153 0.0
C1261 C 0.2964 0.56969 0.97161 0.0
N1262 N 0.30511 0.4649 0.01817 0.0
N1263 N 0.29583 0.55835 0.98862 0.0
loop_
_geom_bond_atom_site_label_1
_geom_bond_atom_site_label_2
_geom_bond_distance
_geom_bond_site_symmetry_2
_ccdc_geom_bond_type
Co0 O3 1.970 . S
Co0 N17 1.989 1_545 S
Co0 O25 1.967 . S
Co0 O32 1.920 . S
Co1 O4 1.966 . S
Co1 N10 2.022 . S
Co1 N18 1.993 1_545 S
Co1 O26 1.941 . S
C2 O3 1.258 . S
C2 O4 1.263 . S
O3 Co0 1.970 . S
O3 C2 1.258 . S
O4 Co1 1.966 . S
O4 C2 1.263 . S
C5 O6 1.235 . S
C5 O32 1.289 . S
O6 C5 1.235 . S
C7 C9 1.400 . S
C7 N10 1.351 . S
C7 C12 1.501 . S
C8 C9 1.387 1_565 S
C8 N11 1.341 . S
C9 C7 1.400 . S
C9 C8 1.387 1_545 S
N10 Co1 2.022 . S
N10 C7 1.351 . S
N10 N11 1.365 1_545 S
N11 C8 1.341 . S
N11 N10 1.365 1_565 S
N11 H31 0.862 . S
C12 C7 1.501 . S
C12 H13 0.961 . S
C12 H14 0.961 . S
C12 H15 0.960 . S
H13 C12 0.961 . S
H14 C12 0.961 . S
H15 C12 0.960 . S
C16 N17 1.342 . S
C16 C20 1.401 . S
C16 C21 1.499 . S
N17 Co0 1.989 1_565 S
N17 C16 1.342 . S
N17 N18 1.388 . S
N18 Co1 1.993 1_565 S
N18 N17 1.388 . S
N18 C19 1.346 . S
C19 N18 1.346 . S
C19 C20 1.396 . S
C19 C29 1.510 . S
C20 C16 1.401 . S
C20 C19 1.396 . S
C21 C16 1.499 . S
C21 H22 0.959 . S
C21 H23 0.960 . S
C21 H24 0.961 . S
H22 C21 0.959 . S
H23 C21 0.960 . S
H24 C21 0.961 . S
O25 Co0 1.967 . S
O25 C33 1.258 . S
O26 Co1 1.941 . S
O26 C33 1.266 . S
H27 C29 0.959 . S
H28 C29 0.961 . S
C29 C19 1.510 . S
C29 H27 0.959 . S
C29 H28 0.961 . S
C29 H30 0.960 . S
H30 C29 0.960 . S
H31 N11 0.862 . S
O32 Co0 1.920 . S
O32 C5 1.289 . S
C33 O25 1.258 . S
C33 O26 1.266 . S
Co34 O37 1.970 1_545 S
Co34 N51 1.989 . S
Co34 O59 1.967 . S
Co34 O66 1.920 . S
Co35 O38 1.966 1_545 S
Co35 N44 2.022 . S
Co35 N52 1.993 . S
Co35 O60 1.941 . S
C36 O37 1.258 . S
C36 O38 1.263 . S
O37 Co34 1.970 1_565 S
O37 C36 1.258 . S
O38 Co35 1.966 1_565 S
O38 C36 1.263 . S
C39 O40 1.235 . S
C39 O66 1.289 . S
O40 C39 1.235 . S
C41 C43 1.390 1_565 S
C41 N44 1.343 1_565 S
C41 C46 1.517 . S
C42 C43 1.387 . S
C42 N45 1.341 . S
C43 C41 1.390 1_545 S
C43 C42 1.387 . S
N44 Co35 2.022 . S
N44 C41 1.343 1_545 S
N44 N45 1.365 . S
N45 C42 1.341 . S
N45 N44 1.365 . S
N45 H65 0.862 . S
C46 C41 1.517 . S
C46 H47 0.961 . S
C46 H48 0.961 . S
C46 H49 0.960 . S
H47 C46 0.961 . S
H48 C46 0.961 . S
H49 C46 0.960 . S
C50 N51 1.342 . S
C50 C54 1.401 . S
C50 C55 1.499 . S
N51 Co34 1.989 . S
N51 C50 1.342 . S
N51 N52 1.388 . S
N52 Co35 1.993 . S
N52 N51 1.388 . S
N52 C53 1.346 . S
C53 N52 1.346 . S
C53 C54 1.396 . S
C53 C63 1.510 . S
C54 C50 1.401 . S
C54 C53 1.396 . S
C55 C50 1.499 . S
C55 H56 0.959 . S
C55 H57 0.960 . S
C55 H58 0.961 . S
H56 C55 0.959 . S
H57 C55 0.960 . S
H58 C55 0.961 . S
O59 Co34 1.967 . S
O59 C67 1.258 . S
O60 Co35 1.941 . S
O60 C67 1.266 . S
H61 C63 0.959 . S
H62 C63 0.961 . S
C63 C53 1.510 . S
C63 H61 0.959 . S
C63 H62 0.961 . S
C63 H64 0.960 . S
H64 C63 0.960 . S
H65 N45 0.862 . S
O66 Co34 1.920 . S
O66 C39 1.289 . S
C67 O59 1.258 . S
C67 O60 1.266 . S
Co68 O71 1.970 1_545 S
Co68 N85 1.989 . S
Co68 O93 1.967 . S
Co68 O100 1.920 . S
Co69 O72 1.966 1_545 S
Co69 N78 2.022 . S
Co69 N86 1.993 . S
Co69 O94 1.941 . S
C70 O71 1.258 . S
C70 O72 1.263 . S
O71 Co68 1.970 1_565 S
O71 C70 1.258 . S
O72 Co69 1.966 1_565 S
O72 C70 1.263 . S
C73 O74 1.235 . S
C73 O100 1.289 . S
O74 C73 1.235 . S
C75 C77 1.390 1_565 S
C75 N78 1.343 1_565 S
C75 C80 1.517 . S
C76 C77 1.387 . S
C76 N79 1.341 . S
C77 C75 1.390 1_545 S
C77 C76 1.387 . S
N78 Co69 2.022 . S
N78 C75 1.343 1_545 S
N78 N79 1.365 . S
N79 C76 1.341 . S
N79 N78 1.365 . S
N79 H99 0.862 . S
C80 C75 1.517 . S
C80 H81 0.961 . S
C80 H82 0.961 . S
C80 H83 0.960 . S
H81 C80 0.961 . S
H82 C80 0.961 . S
H83 C80 0.960 . S
C84 N85 1.342 . S
C84 C88 1.401 . S
C84 C89 1.499 . S
N85 Co68 1.989 . S
N85 C84 1.342 . S
N85 N86 1.388 . S
N86 Co69 1.993 . S
N86 N85 1.388 . S
N86 C87 1.346 . S
C87 N86 1.346 . S
C87 C88 1.396 . S
C87 C97 1.510 . S
C88 C84 1.401 . S
C88 C87 1.396 . S
C89 C84 1.499 . S
C89 H90 0.959 . S
C89 H91 0.960 . S
C89 H92 0.961 . S
H90 C89 0.959 . S
H91 C89 0.960 . S
H92 C89 0.961 . S
O93 Co68 1.967 . S
O93 C101 1.258 . S
O94 Co69 1.941 . S
O94 C101 1.266 . S
H95 C97 0.959 . S
H96 C97 0.961 . S
C97 C87 1.510 . S
C97 H95 0.959 . S
C97 H96 0.961 . S
C97 H98 0.960 . S
H98 C97 0.960 . S
H99 N79 0.862 . S
O100 Co68 1.920 . S
O100 C73 1.289 . S
C101 O93 1.258 . S
C101 O94 1.266 . S
Co102 O105 1.970 . S
Co102 N119 1.989 1_545 S
Co102 O127 1.967 . S
Co102 O134 1.920 . S
Co103 O106 1.966 . S
Co103 N112 2.022 . S
Co103 N120 1.993 1_545 S
Co103 O128 1.941 . S
C104 O105 1.258 . S
C104 O106 1.263 . S
O105 Co102 1.970 . S
O105 C104 1.258 . S
O106 Co103 1.966 . S
O106 C104 1.263 . S
C107 O108 1.235 . S
C107 O134 1.289 . S
O108 C107 1.235 . S
C109 C111 1.400 . S
C109 N112 1.351 . S
C109 C114 1.501 . S
C110 C111 1.387 1_565 S
C110 N113 1.341 . S
C111 C109 1.400 . S
C111 C110 1.387 1_545 S
N112 Co103 2.022 . S
N112 C109 1.351 . S
N112 N113 1.365 1_545 S
N113 C110 1.341 . S
N113 N112 1.365 1_565 S
N113 H133 0.862 . S
C114 C109 1.501 . S
C114 H115 0.961 . S
C114 H116 0.961 . S
C114 H117 0.960 . S
H115 C114 0.961 . S
H116 C114 0.961 . S
H117 C114 0.960 . S
C118 N119 1.342 . S
C118 C122 1.401 . S
C118 C123 1.499 . S
N119 Co102 1.989 1_565 S
N119 C118 1.342 . S
N119 N120 1.388 . S
N120 Co103 1.993 1_565 S
N120 N119 1.388 . S
N120 C121 1.346 . S
C121 N120 1.346 . S
C121 C122 1.396 . S
C121 C131 1.510 . S
C122 C118 1.401 . S
C122 C121 1.396 . S
C123 C118 1.499 . S
C123 H124 0.959 . S
C123 H125 0.960 . S
C123 H126 0.961 . S
H124 C123 0.959 . S
H125 C123 0.960 . S
H126 C123 0.961 . S
O127 Co102 1.967 . S
O127 C135 1.258 . S
O128 Co103 1.941 . S
O128 C135 1.266 . S
H129 C131 0.959 . S
H130 C131 0.961 . S
C131 C121 1.510 . S
C131 H129 0.959 . S
C131 H130 0.961 . S
C131 H132 0.960 . S
H132 C131 0.960 . S
H133 N113 0.862 . S
O134 Co102 1.920 . S
O134 C107 1.289 . S
C135 O127 1.258 . S
C135 O128 1.266 . S
Co136 O139 1.970 . S
Co136 N153 1.989 . S
Co136 O161 1.967 . S
Co136 O168 1.920 . S
Co137 O140 1.966 . S
Co137 N146 2.022 . S
Co137 N154 1.993 . S
Co137 O162 1.941 . S
C138 O139 1.258 . S
C138 O140 1.263 . S
O139 Co136 1.970 . S
O139 C138 1.258 . S
O140 Co137 1.966 . S
O140 C138 1.263 . S
C141 O142 1.235 . S
C141 O168 1.289 . S
O142 C141 1.235 . S
C143 C145 1.400 . S
C143 N146 1.351 . S
C143 C148 1.501 . S
C144 C145 1.387 . S
C144 N147 1.341 . S
C145 C143 1.400 . S
C145 C144 1.387 . S
N146 Co137 2.022 . S
N146 C143 1.351 . S
N146 N147 1.365 . S
N147 C144 1.341 . S
N147 N146 1.365 . S
N147 H167 0.862 . S
C148 C143 1.501 . S
C148 H149 0.961 . S
C148 H150 0.961 . S
C148 H151 0.960 . S
H149 C148 0.961 . S
H150 C148 0.961 . S
H151 C148 0.960 . S
C152 N153 1.342 . S
C152 C156 1.401 . S
C152 C157 1.499 . S
N153 Co136 1.989 . S
N153 C152 1.342 . S
N153 N154 1.388 . S
N154 Co137 1.993 . S
N154 N153 1.388 . S
N154 C155 1.346 . S
C155 N154 1.346 . S
C155 C156 1.396 . S
C155 C165 1.510 . S
C156 C152 1.401 . S
C156 C155 1.396 . S
C157 C152 1.499 . S
C157 H158 0.959 . S
C157 H159 0.960 . S
C157 H160 0.961 . S
H158 C157 0.959 . S
H159 C157 0.960 . S
H160 C157 0.961 . S
O161 Co136 1.967 . S
O161 C169 1.258 . S
O162 Co137 1.941 . S
O162 C169 1.266 . S
H163 C165 0.959 . S
H164 C165 0.961 . S
C165 C155 1.510 . S
C165 H163 0.959 . S
C165 H164 0.961 . S
C165 H166 0.960 . S
H166 C165 0.960 . S
H167 N147 0.862 . S
O168 Co136 1.920 . S
O168 C141 1.289 . S
C169 O161 1.258 . S
C169 O162 1.266 . S
Co170 O173 1.970 . S
Co170 N187 1.989 . S
Co170 O195 1.967 . S
Co170 O202 1.920 . S
Co171 O174 1.966 . S
Co171 N180 2.022 . S
Co171 N188 1.993 . S
Co171 O196 1.941 . S
C172 O173 1.258 . S
C172 O174 1.263 . S
O173 Co170 1.970 . S
O173 C172 1.258 . S
O174 Co171 1.966 . S
O174 C172 1.263 . S
C175 O176 1.235 . S
C175 O202 1.289 . S
O176 C175 1.235 . S
C177 C179 1.400 . S
C177 N180 1.351 . S
C177 C182 1.501 . S
C178 C179 1.387 . S
C178 N181 1.341 . S
C179 C177 1.400 . S
C179 C178 1.387 . S
N180 Co171 2.022 . S
N180 C177 1.351 . S
N180 N181 1.365 . S
N181 C178 1.341 . S
N181 N180 1.365 . S
N181 H201 0.862 . S
C182 C177 1.501 . S
C182 H183 0.961 . S
C182 H184 0.961 . S
C182 H185 0.960 . S
H183 C182 0.961 . S
H184 C182 0.961 . S
H185 C182 0.960 . S
C186 N187 1.342 . S
C186 C190 1.401 . S
C186 C191 1.499 . S
N187 Co170 1.989 . S
N187 C186 1.342 . S
N187 N188 1.388 . S
N188 Co171 1.993 . S
N188 N187 1.388 . S
N188 C189 1.346 . S
C189 N188 1.346 . S
C189 C190 1.396 . S
C189 C199 1.510 . S
C190 C186 1.401 . S
C190 C189 1.396 . S
C191 C186 1.499 . S
C191 H192 0.959 . S
C191 H193 0.960 . S
C191 H194 0.961 . S
H192 C191 0.959 . S
H193 C191 0.960 . S
H194 C191 0.961 . S
O195 Co170 1.967 . S
O195 C203 1.258 . S
O196 Co171 1.941 . S
O196 C203 1.266 . S
H197 C199 0.959 . S
H198 C199 0.961 . S
C199 C189 1.510 . S
C199 H197 0.959 . S
C199 H198 0.961 . S
C199 H200 0.960 . S
H200 C199 0.960 . S
H201 N181 0.862 . S
O202 Co170 1.920 . S
O202 C175 1.289 . S
C203 O195 1.258 . S
C203 O196 1.266 . S
Co204 O207 1.970 . S
Co204 N221 1.989 . S
Co204 O229 1.967 . S
Co204 O236 1.920 . S
Co205 O208 1.966 . S
Co205 N214 2.022 . S
Co205 N222 1.993 . S
Co205 O230 1.941 . S
C206 O207 1.258 . S
C206 O208 1.263 . S
O207 Co204 1.970 . S
O207 C206 1.258 . S
O208 Co205 1.966 . S
O208 C206 1.263 . S
C209 O210 1.235 . S
C209 O236 1.289 . S
O210 C209 1.235 . S
C211 C213 1.400 . S
C211 N214 1.351 . S
C211 C216 1.501 . S
C212 C213 1.387 . S
C212 N215 1.341 . S
C213 C211 1.400 . S
C213 C212 1.387 . S
N214 Co205 2.022 . S
N214 C211 1.351 . S
N214 N215 1.365 . S
N215 C212 1.341 . S
N215 N214 1.365 . S
N215 H235 0.862 . S
C216 C211 1.501 . S
C216 H217 0.961 . S
C216 H218 0.961 . S
C216 H219 0.960 . S
H217 C216 0.961 . S
H218 C216 0.961 . S
H219 C216 0.960 . S
C220 N221 1.342 . S
C220 C224 1.401 . S
C220 C225 1.499 . S
N221 Co204 1.989 . S
N221 C220 1.342 . S
N221 N222 1.388 . S
N222 Co205 1.993 . S
N222 N221 1.388 . S
N222 C223 1.346 . S
C223 N222 1.346 . S
C223 C224 1.396 . S
C223 C233 1.510 . S
C224 C220 1.401 . S
C224 C223 1.396 . S
C225 C220 1.499 . S
C225 H226 0.959 . S
C225 H227 0.960 . S
C225 H228 0.961 . S
H226 C225 0.959 . S
H227 C225 0.960 . S
H228 C225 0.961 . S
O229 Co204 1.967 . S
O229 C237 1.258 . S
O230 Co205 1.941 . S
O230 C237 1.266 . S
H231 C233 0.959 . S
H232 C233 0.961 . S
C233 C223 1.510 . S
C233 H231 0.959 . S
C233 H232 0.961 . S
C233 H234 0.960 . S
H234 C233 0.960 . S
H235 N215 0.862 . S
O236 Co204 1.920 . S
O236 C209 1.289 . S
C237 O229 1.258 . S
C237 O230 1.266 . S
Co238 O241 1.970 . S
Co238 N255 1.989 . S
Co238 O263 1.967 . S
Co238 O270 1.920 . S
Co239 O242 1.966 . S
Co239 N248 2.022 . S
Co239 N256 1.993 . S
Co239 O264 1.941 . S
C240 O241 1.258 . S
C240 O242 1.263 . S
O241 Co238 1.970 . S
O241 C240 1.258 . S
O242 Co239 1.966 . S
O242 C240 1.263 . S
C243 O244 1.235 . S
C243 O270 1.289 . S
O244 C243 1.235 . S
C245 C247 1.400 . S
C245 N248 1.351 . S
C245 C250 1.501 . S
C246 C247 1.387 . S
C246 N249 1.341 . S
C247 C245 1.400 . S
C247 C246 1.387 . S
N248 Co239 2.022 . S
N248 C245 1.351 . S
N248 N249 1.365 . S
N249 C246 1.341 . S
N249 N248 1.365 . S
N249 H269 0.862 . S
C250 C245 1.501 . S
C250 H251 0.961 . S
C250 H252 0.961 . S
C250 H253 0.960 . S
H251 C250 0.961 . S
H252 C250 0.961 . S
H253 C250 0.960 . S
C254 N255 1.342 . S
C254 C258 1.401 . S
C254 C259 1.499 . S
N255 Co238 1.989 . S
N255 C254 1.342 . S
N255 N256 1.388 . S
N256 Co239 1.993 . S
N256 N255 1.388 . S
N256 C257 1.346 . S
C257 N256 1.346 . S
C257 C258 1.396 . S
C257 C267 1.510 . S
C258 C254 1.401 . S
C258 C257 1.396 . S
C259 C254 1.499 . S
C259 H260 0.959 . S
C259 H261 0.960 . S
C259 H262 0.961 . S
H260 C259 0.959 . S
H261 C259 0.960 . S
H262 C259 0.961 . S
O263 Co238 1.967 . S
O263 C271 1.258 . S
O264 Co239 1.941 . S
O264 C271 1.266 . S
H265 C267 0.959 . S
H266 C267 0.961 . S
C267 C257 1.510 . S
C267 H265 0.959 . S
C267 H266 0.961 . S
C267 H268 0.960 . S
H268 C267 0.960 . S
H269 N249 0.862 . S
O270 Co238 1.920 . S
O270 C243 1.289 . S
C271 O263 1.258 . S
C271 O264 1.266 . S
Co272 O275 1.970 . S
Co272 N289 1.989 1_545 S
Co272 O297 1.967 . S
Co272 O304 1.920 . S
Co273 O276 1.966 . S
Co273 N282 2.022 . S
Co273 N290 1.993 1_545 S
Co273 O298 1.941 . S
C274 O275 1.258 . S
C274 O276 1.263 . S
O275 Co272 1.970 . S
O275 C274 1.258 . S
O276 Co273 1.966 . S
O276 C274 1.263 . S
C277 O278 1.235 . S
C277 O304 1.289 . S
O278 C277 1.235 . S
C279 C281 1.400 . S
C279 N282 1.351 . S
C279 C284 1.501 . S
C280 C281 1.387 1_565 S
C280 N283 1.341 . S
C281 C279 1.400 . S
C281 C280 1.387 1_545 S
N282 Co273 2.022 . S
N282 C279 1.351 . S
N282 N283 1.365 1_545 S
N283 C280 1.341 . S
N283 N282 1.365 1_565 S
N283 H303 0.862 . S
C284 C279 1.501 . S
C284 H285 0.961 . S
C284 H286 0.961 . S
C284 H287 0.960 . S
H285 C284 0.961 . S
H286 C284 0.961 . S
H287 C284 0.960 . S
C288 N289 1.342 . S
C288 C292 1.401 . S
C288 C293 1.499 . S
N289 Co272 1.989 1_565 S
N289 C288 1.342 . S
N289 N290 1.388 . S
N290 Co273 1.993 1_565 S
N290 N289 1.388 . S
N290 C291 1.346 . S
C291 N290 1.346 . S
C291 C292 1.396 . S
C291 C301 1.510 . S
C292 C288 1.401 . S
C292 C291 1.396 . S
C293 C288 1.499 . S
C293 H294 0.959 . S
C293 H295 0.960 . S
C293 H296 0.961 . S
H294 C293 0.959 . S
H295 C293 0.960 . S
H296 C293 0.961 . S
O297 Co272 1.967 . S
O297 C305 1.258 . S
O298 Co273 1.941 . S
O298 C305 1.266 . S
H299 C301 0.959 . S
H300 C301 0.961 . S
C301 C291 1.510 . S
C301 H299 0.959 . S
C301 H300 0.961 . S
C301 H302 0.960 . S
H302 C301 0.960 . S
H303 N283 0.862 . S
O304 Co272 1.920 . S
O304 C277 1.289 . S
C305 O297 1.258 . S
C305 O298 1.266 . S
Co306 O309 1.970 1_545 S
Co306 N323 1.989 . S
Co306 O331 1.967 . S
Co306 O338 1.920 . S
Co307 O310 1.966 1_545 S
Co307 N316 2.022 . S
Co307 N324 1.993 . S
Co307 O332 1.941 . S
C308 O309 1.258 . S
C308 O310 1.263 . S
O309 Co306 1.970 1_565 S
O309 C308 1.258 . S
O310 Co307 1.966 1_565 S
O310 C308 1.263 . S
C311 O312 1.235 . S
C311 O338 1.289 . S
O312 C311 1.235 . S
C313 C315 1.390 1_565 S
C313 N316 1.343 1_565 S
C313 C318 1.517 . S
C314 C315 1.387 . S
C314 N317 1.341 . S
C315 C313 1.390 1_545 S
C315 C314 1.387 . S
N316 Co307 2.022 . S
N316 C313 1.343 1_545 S
N316 N317 1.365 . S
N317 C314 1.341 . S
N317 N316 1.365 . S
N317 H337 0.862 . S
C318 C313 1.517 . S
C318 H319 0.961 . S
C318 H320 0.961 . S
C318 H321 0.960 . S
H319 C318 0.961 . S
H320 C318 0.961 . S
H321 C318 0.960 . S
C322 N323 1.342 . S
C322 C326 1.401 . S
C322 C327 1.499 . S
N323 Co306 1.989 . S
N323 C322 1.342 . S
N323 N324 1.388 . S
N324 Co307 1.993 . S
N324 N323 1.388 . S
N324 C325 1.346 . S
C325 N324 1.346 . S
C325 C326 1.396 . S
C325 C335 1.510 . S
C326 C322 1.401 . S
C326 C325 1.396 . S
C327 C322 1.499 . S
C327 H328 0.959 . S
C327 H329 0.960 . S
C327 H330 0.961 . S
H328 C327 0.959 . S
H329 C327 0.960 . S
H330 C327 0.961 . S
O331 Co306 1.967 . S
O331 C339 1.258 . S
O332 Co307 1.941 . S
O332 C339 1.266 . S
H333 C335 0.959 . S
H334 C335 0.961 . S
C335 C325 1.510 . S
C335 H333 0.959 . S
C335 H334 0.961 . S
C335 H336 0.960 . S
H336 C335 0.960 . S
H337 N317 0.862 . S
O338 Co306 1.920 . S
O338 C311 1.289 . S
C339 O331 1.258 . S
C339 O332 1.266 . S
Co340 O343 1.970 1_545 S
Co340 N357 1.989 . S
Co340 O365 1.967 . S
Co340 O372 1.920 . S
Co341 O344 1.966 1_545 S
Co341 N350 2.022 . S
Co341 N358 1.993 . S
Co341 O366 1.941 . S
C342 O343 1.258 . S
C342 O344 1.263 . S
O343 Co340 1.970 1_565 S
O343 C342 1.258 . S
O344 Co341 1.966 1_565 S
O344 C342 1.263 . S
C345 O346 1.235 . S
C345 O372 1.289 . S
O346 C345 1.235 . S
C347 C349 1.390 1_565 S
C347 N350 1.343 1_565 S
C347 C352 1.517 . S
C348 C349 1.387 . S
C348 N351 1.341 . S
C349 C347 1.390 1_545 S
C349 C348 1.387 . S
N350 Co341 2.022 . S
N350 C347 1.343 1_545 S
N350 N351 1.365 . S
N351 C348 1.341 . S
N351 N350 1.365 . S
N351 H371 0.862 . S
C352 C347 1.517 . S
C352 H353 0.961 . S
C352 H354 0.961 . S
C352 H355 0.960 . S
H353 C352 0.961 . S
H354 C352 0.961 . S
H355 C352 0.960 . S
C356 N357 1.342 . S
C356 C360 1.401 . S
C356 C361 1.499 . S
N357 Co340 1.989 . S
N357 C356 1.342 . S
N357 N358 1.388 . S
N358 Co341 1.993 . S
N358 N357 1.388 . S
N358 C359 1.346 . S
C359 N358 1.346 . S
C359 C360 1.396 . S
C359 C369 1.510 . S
C360 C356 1.401 . S
C360 C359 1.396 . S
C361 C356 1.499 . S
C361 H362 0.959 . S
C361 H363 0.960 . S
C361 H364 0.961 . S
H362 C361 0.959 . S
H363 C361 0.960 . S
H364 C361 0.961 . S
O365 Co340 1.967 . S
O365 C373 1.258 . S
O366 Co341 1.941 . S
O366 C373 1.266 . S
H367 C369 0.959 . S
H368 C369 0.961 . S
C369 C359 1.510 . S
C369 H367 0.959 . S
C369 H368 0.961 . S
C369 H370 0.960 . S
H370 C369 0.960 . S
H371 N351 0.862 . S
O372 Co340 1.920 . S
O372 C345 1.289 . S
C373 O365 1.258 . S
C373 O366 1.266 . S
Co374 O377 1.970 . S
Co374 N391 1.989 1_545 S
Co374 O399 1.967 . S
Co374 O406 1.920 . S
Co375 O378 1.966 . S
Co375 N384 2.022 . S
Co375 N392 1.993 1_545 S
Co375 O400 1.941 . S
C376 O377 1.258 . S
C376 O378 1.263 . S
O377 Co374 1.970 . S
O377 C376 1.258 . S
O378 Co375 1.966 . S
O378 C376 1.263 . S
C379 O380 1.235 . S
C379 O406 1.289 . S
O380 C379 1.235 . S
C381 C383 1.400 . S
C381 N384 1.351 . S
C381 C386 1.501 . S
C382 C383 1.387 1_565 S
C382 N385 1.341 . S
C383 C381 1.400 . S
C383 C382 1.387 1_545 S
N384 Co375 2.022 . S
N384 C381 1.351 . S
N384 N385 1.365 1_545 S
N385 C382 1.341 . S
N385 N384 1.365 1_565 S
N385 H405 0.862 . S
C386 C381 1.501 . S
C386 H387 0.961 . S
C386 H388 0.961 . S
C386 H389 0.960 . S
H387 C386 0.961 . S
H388 C386 0.961 . S
H389 C386 0.960 . S
C390 N391 1.342 . S
C390 C394 1.401 . S
C390 C395 1.499 . S
N391 Co374 1.989 1_565 S
N391 C390 1.342 . S
N391 N392 1.388 . S
N392 Co375 1.993 1_565 S
N392 N391 1.388 . S
N392 C393 1.346 . S
C393 N392 1.346 . S
C393 C394 1.396 . S
C393 C403 1.510 . S
C394 C390 1.401 . S
C394 C393 1.396 . S
C395 C390 1.499 . S
C395 H396 0.959 . S
C395 H397 0.960 . S
C395 H398 0.961 . S
H396 C395 0.959 . S
H397 C395 0.960 . S
H398 C395 0.961 . S
O399 Co374 1.967 . S
O399 C407 1.258 . S
O400 Co375 1.941 . S
O400 C407 1.266 . S
H401 C403 0.959 . S
H402 C403 0.961 . S
C403 C393 1.510 . S
C403 H401 0.959 . S
C403 H402 0.961 . S
C403 H404 0.960 . S
H404 C403 0.960 . S
H405 N385 0.862 . S
O406 Co374 1.920 . S
O406 C379 1.289 . S
C407 O399 1.258 . S
C407 O400 1.266 . S
Co408 O411 1.970 . S
Co408 N425 1.989 . S
Co408 O433 1.967 . S
Co408 O440 1.920 . S
Co409 O412 1.966 . S
Co409 N418 2.022 . S
Co409 N426 1.993 . S
Co409 O434 1.941 . S
C410 O411 1.258 . S
C410 O412 1.263 . S
O411 Co408 1.970 . S
O411 C410 1.258 . S
O412 Co409 1.966 . S
O412 C410 1.263 . S
C413 O414 1.235 . S
C413 O440 1.289 . S
O414 C413 1.235 . S
C415 C417 1.400 . S
C415 N418 1.351 . S
C415 C420 1.501 . S
C416 C417 1.387 . S
C416 N419 1.341 . S
C417 C415 1.400 . S
C417 C416 1.387 . S
N418 Co409 2.022 . S
N418 C415 1.351 . S
N418 N419 1.365 . S
N419 C416 1.341 . S
N419 N418 1.365 . S
N419 H439 0.862 . S
C420 C415 1.501 . S
C420 H421 0.961 . S
C420 H422 0.961 . S
C420 H423 0.960 . S
H421 C420 0.961 . S
H422 C420 0.961 . S
H423 C420 0.960 . S
C424 N425 1.342 . S
C424 C428 1.401 . S
C424 C429 1.499 . S
N425 Co408 1.989 . S
N425 C424 1.342 . S
N425 N426 1.388 . S
N426 Co409 1.993 . S
N426 N425 1.388 . S
N426 C427 1.346 . S
C427 N426 1.346 . S
C427 C428 1.396 . S
C427 C437 1.510 . S
C428 C424 1.401 . S
C428 C427 1.396 . S
C429 C424 1.499 . S
C429 H430 0.959 . S
C429 H431 0.960 . S
C429 H432 0.961 . S
H430 C429 0.959 . S
H431 C429 0.960 . S
H432 C429 0.961 . S
O433 Co408 1.967 . S
O433 C441 1.258 . S
O434 Co409 1.941 . S
O434 C441 1.266 . S
H435 C437 0.959 . S
H436 C437 0.961 . S
C437 C427 1.510 . S
C437 H435 0.959 . S
C437 H436 0.961 . S
C437 H438 0.960 . S
H438 C437 0.960 . S
H439 N419 0.862 . S
O440 Co408 1.920 . S
O440 C413 1.289 . S
C441 O433 1.258 . S
C441 O434 1.266 . S
Co442 O445 1.970 . S
Co442 N459 1.989 . S
Co442 O467 1.967 . S
Co442 O474 1.920 . S
Co443 O446 1.966 . S
Co443 N452 2.022 . S
Co443 N460 1.993 . S
Co443 O468 1.941 . S
C444 O445 1.258 . S
C444 O446 1.263 . S
O445 Co442 1.970 . S
O445 C444 1.258 . S
O446 Co443 1.966 . S
O446 C444 1.263 . S
C447 O448 1.235 . S
C447 O474 1.289 . S
O448 C447 1.235 . S
C449 C451 1.400 . S
C449 N452 1.351 . S
C449 C454 1.501 . S
C450 C451 1.387 . S
C450 N453 1.341 . S
C451 C449 1.400 . S
C451 C450 1.387 . S
N452 Co443 2.022 . S
N452 C449 1.351 . S
N452 N453 1.365 . S
N453 C450 1.341 . S
N453 N452 1.365 . S
N453 H473 0.862 . S
C454 C449 1.501 . S
C454 H455 0.961 . S
C454 H456 0.961 . S
C454 H457 0.960 . S
H455 C454 0.961 . S
H456 C454 0.961 . S
H457 C454 0.960 . S
C458 N459 1.342 . S
C458 C462 1.401 . S
C458 C463 1.499 . S
N459 Co442 1.989 . S
N459 C458 1.342 . S
N459 N460 1.388 . S
N460 Co443 1.993 . S
N460 N459 1.388 . S
N460 C461 1.346 . S
C461 N460 1.346 . S
C461 C462 1.396 . S
C461 C471 1.510 . S
C462 C458 1.401 . S
C462 C461 1.396 . S
C463 C458 1.499 . S
C463 H464 0.959 . S
C463 H465 0.960 . S
C463 H466 0.961 . S
H464 C463 0.959 . S
H465 C463 0.960 . S
H466 C463 0.961 . S
O467 Co442 1.967 . S
O467 C475 1.258 . S
O468 Co443 1.941 . S
O468 C475 1.266 . S
H469 C471 0.959 . S
H470 C471 0.961 . S
C471 C461 1.510 . S
C471 H469 0.959 . S
C471 H470 0.961 . S
C471 H472 0.960 . S
H472 C471 0.960 . S
H473 N453 0.862 . S
O474 Co442 1.920 . S
O474 C447 1.289 . S
C475 O467 1.258 . S
C475 O468 1.266 . S
Co476 O479 1.970 . S
Co476 N493 1.989 . S
Co476 O501 1.967 . S
Co476 O508 1.920 . S
Co477 O480 1.966 . S
Co477 N486 2.022 . S
Co477 N494 1.993 . S
Co477 O502 1.941 . S
C478 O479 1.258 . S
C478 O480 1.263 . S
O479 Co476 1.970 . S
O479 C478 1.258 . S
O480 Co477 1.966 . S
O480 C478 1.263 . S
C481 O482 1.235 . S
C481 O508 1.289 . S
O482 C481 1.235 . S
C483 C485 1.400 . S
C483 N486 1.351 . S
C483 C488 1.501 . S
C484 C485 1.387 . S
C484 N487 1.341 . S
C485 C483 1.400 . S
C485 C484 1.387 . S
N486 Co477 2.022 . S
N486 C483 1.351 . S
N486 N487 1.365 . S
N487 C484 1.341 . S
N487 N486 1.365 . S
N487 H507 0.862 . S
C488 C483 1.501 . S
C488 H489 0.961 . S
C488 H490 0.961 . S
C488 H491 0.960 . S
H489 C488 0.961 . S
H490 C488 0.961 . S
H491 C488 0.960 . S
C492 N493 1.342 . S
C492 C496 1.401 . S
C492 C497 1.499 . S
N493 Co476 1.989 . S
N493 C492 1.342 . S
N493 N494 1.388 . S
N494 Co477 1.993 . S
N494 N493 1.388 . S
N494 C495 1.346 . S
C495 N494 1.346 . S
C495 C496 1.396 . S
C495 C505 1.510 . S
C496 C492 1.401 . S
C496 C495 1.396 . S
C497 C492 1.499 . S
C497 H498 0.959 . S
C497 H499 0.960 . S
C497 H500 0.961 . S
H498 C497 0.959 . S
H499 C497 0.960 . S
H500 C497 0.961 . S
O501 Co476 1.967 . S
O501 C509 1.258 . S
O502 Co477 1.941 . S
O502 C509 1.266 . S
H503 C505 0.959 . S
H504 C505 0.961 . S
C505 C495 1.510 . S
C505 H503 0.959 . S
C505 H504 0.961 . S
C505 H506 0.960 . S
H506 C505 0.960 . S
H507 N487 0.862 . S
O508 Co476 1.920 . S
O508 C481 1.289 . S
C509 O501 1.258 . S
C509 O502 1.266 . S
Co510 O513 1.970 . S
Co510 N527 1.989 . S
Co510 O535 1.967 . S
Co510 O542 1.920 . S
Co511 O514 1.966 . S
Co511 N520 2.022 . S
Co511 N528 1.993 . S
Co511 O536 1.941 . S
C512 O513 1.258 . S
C512 O514 1.263 . S
O513 Co510 1.970 . S
O513 C512 1.258 . S
O514 Co511 1.966 . S
O514 C512 1.263 . S
C515 O516 1.235 . S
C515 O542 1.289 . S
O516 C515 1.235 . S
C517 C519 1.400 . S
C517 N520 1.351 . S
C517 C522 1.501 . S
C518 C519 1.387 . S
C518 N521 1.341 . S
C519 C517 1.400 . S
C519 C518 1.387 . S
N520 Co511 2.022 . S
N520 C517 1.351 . S
N520 N521 1.365 . S
N521 C518 1.341 . S
N521 N520 1.365 . S
N521 H541 0.862 . S
C522 C517 1.501 . S
C522 H523 0.961 . S
C522 H524 0.961 . S
C522 H525 0.960 . S
H523 C522 0.961 . S
H524 C522 0.961 . S
H525 C522 0.960 . S
C526 N527 1.342 . S
C526 C530 1.401 . S
C526 C531 1.499 . S
N527 Co510 1.989 . S
N527 C526 1.342 . S
N527 N528 1.388 . S
N528 Co511 1.993 . S
N528 N527 1.388 . S
N528 C529 1.346 . S
C529 N528 1.346 . S
C529 C530 1.396 . S
C529 C539 1.510 . S
C530 C526 1.401 . S
C530 C529 1.396 . S
C531 C526 1.499 . S
C531 H532 0.959 . S
C531 H533 0.960 . S
C531 H534 0.961 . S
H532 C531 0.959 . S
H533 C531 0.960 . S
H534 C531 0.961 . S
O535 Co510 1.967 . S
O535 C543 1.258 . S
O536 Co511 1.941 . S
O536 C543 1.266 . S
H537 C539 0.959 . S
H538 C539 0.961 . S
C539 C529 1.510 . S
C539 H537 0.959 . S
C539 H538 0.961 . S
C539 H540 0.960 . S
H540 C539 0.960 . S
H541 N521 0.862 . S
O542 Co510 1.920 . S
O542 C515 1.289 . S
C543 O535 1.258 . S
C543 O536 1.266 . S
H544 C550 0.930 . S
H545 C554 0.930 . S
H546 C559 0.929 . S
H547 C557 0.929 . S
H548 C552 0.929 . S
H549 C558 0.929 . S
C550 H544 0.930 . S
C550 C551 1.367 1_565 S
C550 C558 1.378 . S
C551 C550 1.367 1_545 S
C551 C559 1.433 . S
C552 H548 0.929 . S
C552 C554 1.378 . S
C552 C556 1.350 . S
C553 C556 1.463 . S
C553 C558 1.350 1_545 S
C553 N561 1.427 . S
C554 H545 0.930 . S
C554 C552 1.378 . S
C554 C555 1.367 . S
C555 C554 1.367 . S
C555 C557 1.433 1_545 S
C556 C552 1.350 . S
C556 C553 1.463 . S
C556 N560 1.427 1_545 S
C557 H547 0.929 . S
C557 C555 1.433 1_565 S
C557 N560 1.384 . S
C558 H549 0.929 . S
C558 C550 1.378 . S
C558 C553 1.350 1_565 S
C559 H546 0.929 . S
C559 C551 1.433 . S
C559 N561 1.384 . S
N560 C556 1.427 1_565 S
N560 C557 1.384 . S
N561 C553 1.427 . S
N561 C559 1.384 . S
H562 C568 0.930 . S
H563 C572 0.930 . S
H564 C577 0.929 . S
H565 C575 0.929 . S
H566 C570 0.929 . S
H567 C576 0.929 . S
C568 H562 0.930 . S
C568 C569 1.367 1_565 S
C568 C576 1.378 . S
C569 C568 1.367 1_545 S
C569 C577 1.433 . S
C570 H566 0.929 . S
C570 C572 1.378 . S
C570 C574 1.350 . S
C571 C574 1.463 . S
C571 C576 1.350 1_545 S
C571 N579 1.427 . S
C572 H563 0.930 . S
C572 C570 1.378 . S
C572 C573 1.367 . S
C573 C572 1.367 . S
C573 C575 1.433 1_545 S
C574 C570 1.350 . S
C574 C571 1.463 . S
C574 N578 1.427 1_545 S
C575 H565 0.929 . S
C575 C573 1.433 1_565 S
C575 N578 1.384 . S
C576 H567 0.929 . S
C576 C568 1.378 . S
C576 C571 1.350 1_565 S
C577 H564 0.929 . S
C577 C569 1.433 . S
C577 N579 1.384 . S
N578 C574 1.427 1_565 S
N578 C575 1.384 . S
N579 C571 1.427 . S
N579 C577 1.384 . S
H580 C586 0.930 . S
H581 C590 0.930 . S
H582 C595 0.929 . S
H583 C593 0.929 . S
H584 C588 0.929 . S
H585 C594 0.929 . S
C586 H580 0.930 . S
C586 C587 1.367 1_565 S
C586 C594 1.378 . S
C587 C586 1.367 1_545 S
C587 C595 1.433 . S
C588 H584 0.929 . S
C588 C590 1.378 . S
C588 C592 1.350 . S
C589 C592 1.463 . S
C589 C594 1.350 1_545 S
C589 N597 1.427 . S
C590 H581 0.930 . S
C590 C588 1.378 . S
C590 C591 1.367 . S
C591 C590 1.367 . S
C591 C593 1.433 1_545 S
C592 C588 1.350 . S
C592 C589 1.463 . S
C592 N596 1.427 1_545 S
C593 H583 0.929 . S
C593 C591 1.433 1_565 S
C593 N596 1.384 . S
C594 H585 0.929 . S
C594 C586 1.378 . S
C594 C589 1.350 1_565 S
C595 H582 0.929 . S
C595 C587 1.433 . S
C595 N597 1.384 . S
N596 C592 1.427 1_565 S
N596 C593 1.384 . S
N597 C589 1.427 . S
N597 C595 1.384 . S
H598 C604 0.930 . S
H599 C608 0.930 . S
H600 C613 0.929 . S
H601 C611 0.929 . S
H602 C606 0.929 . S
H603 C612 0.929 . S
C604 H598 0.930 . S
C604 C605 1.367 1_565 S
C604 C612 1.378 . S
C605 C604 1.367 1_545 S
C605 C613 1.433 . S
C606 H602 0.929 . S
C606 C608 1.378 . S
C606 C610 1.350 . S
C607 C610 1.463 . S
C607 C612 1.350 1_545 S
C607 N615 1.427 . S
C608 H599 0.930 . S
C608 C606 1.378 . S
C608 C609 1.367 . S
C609 C608 1.367 . S
C609 C611 1.433 1_545 S
C610 C606 1.350 . S
C610 C607 1.463 . S
C610 N614 1.427 1_545 S
C611 H601 0.929 . S
C611 C609 1.433 1_565 S
C611 N614 1.384 . S
C612 H603 0.929 . S
C612 C604 1.378 . S
C612 C607 1.350 1_565 S
C613 H600 0.929 . S
C613 C605 1.433 . S
C613 N615 1.384 . S
N614 C610 1.427 1_565 S
N614 C611 1.384 . S
N615 C607 1.427 . S
N615 C613 1.384 . S
H616 C622 0.930 . S
H617 C626 0.930 . S
H618 C631 0.929 . S
H619 C629 0.929 . S
H620 C624 0.929 . S
H621 C630 0.929 . S
C622 H616 0.930 . S
C622 C623 1.367 . S
C622 C630 1.378 . S
C623 C622 1.367 . S
C623 C631 1.433 . S
C624 H620 0.929 . S
C624 C626 1.378 . S
C624 C628 1.350 . S
C625 C628 1.463 . S
C625 C630 1.350 . S
C625 N633 1.427 . S
C626 H617 0.930 . S
C626 C624 1.378 . S
C626 C627 1.367 . S
C627 C626 1.367 . S
C627 C629 1.433 . S
C628 C624 1.350 . S
C628 C625 1.463 . S
C628 N632 1.427 . S
C629 H619 0.929 . S
C629 C627 1.433 . S
C629 N632 1.384 . S
C630 H621 0.929 . S
C630 C622 1.378 . S
C630 C625 1.350 . S
C631 H618 0.929 . S
C631 C623 1.433 . S
C631 N633 1.384 . S
N632 C628 1.427 . S
N632 C629 1.384 . S
N633 C625 1.427 . S
N633 C631 1.384 . S
H634 C640 0.930 . S
H635 C644 0.930 . S
H636 C649 0.929 . S
H637 C647 0.929 . S
H638 C642 0.929 . S
H639 C648 0.929 . S
C640 H634 0.930 . S
C640 C641 1.367 . S
C640 C648 1.378 . S
C641 C640 1.367 . S
C641 C649 1.433 . S
C642 H638 0.929 . S
C642 C644 1.378 . S
C642 C646 1.350 . S
C643 C646 1.463 . S
C643 C648 1.350 . S
C643 N651 1.427 . S
C644 H635 0.930 . S
C644 C642 1.378 . S
C644 C645 1.367 . S
C645 C644 1.367 . S
C645 C647 1.433 . S
C646 C642 1.350 . S
C646 C643 1.463 . S
C646 N650 1.427 . S
C647 H637 0.929 . S
C647 C645 1.433 . S
C647 N650 1.384 . S
C648 H639 0.929 . S
C648 C640 1.378 . S
C648 C643 1.350 . S
C649 H636 0.929 . S
C649 C641 1.433 . S
C649 N651 1.384 . S
N650 C646 1.427 . S
N650 C647 1.384 . S
N651 C643 1.427 . S
N651 C649 1.384 . S
H652 C658 0.930 . S
H653 C662 0.930 . S
H654 C667 0.929 . S
H655 C665 0.929 . S
H656 C660 0.929 . S
H657 C666 0.929 . S
C658 H652 0.930 . S
C658 C659 1.367 . S
C658 C666 1.378 . S
C659 C658 1.367 . S
C659 C667 1.433 . S
C660 H656 0.929 . S
C660 C662 1.378 . S
C660 C664 1.350 . S
C661 C664 1.463 . S
C661 C666 1.350 . S
C661 N669 1.427 . S
C662 H653 0.930 . S
C662 C660 1.378 . S
C662 C663 1.367 . S
C663 C662 1.367 . S
C663 C665 1.433 . S
C664 C660 1.350 . S
C664 C661 1.463 . S
C664 N668 1.427 . S
C665 H655 0.929 . S
C665 C663 1.433 . S
C665 N668 1.384 . S
C666 H657 0.929 . S
C666 C658 1.378 . S
C666 C661 1.350 . S
C667 H654 0.929 . S
C667 C659 1.433 . S
C667 N669 1.384 . S
N668 C664 1.427 . S
N668 C665 1.384 . S
N669 C661 1.427 . S
N669 C667 1.384 . S
H670 C676 0.930 . S
H671 C680 0.930 . S
H672 C685 0.929 . S
H673 C683 0.929 . S
H674 C678 0.929 . S
H675 C684 0.929 . S
C676 H670 0.930 . S
C676 C677 1.367 . S
C676 C684 1.378 . S
C677 C676 1.367 . S
C677 C685 1.433 . S
C678 H674 0.929 . S
C678 C680 1.378 . S
C678 C682 1.350 . S
C679 C682 1.463 . S
C679 C684 1.350 . S
C679 N687 1.427 . S
C680 H671 0.930 . S
C680 C678 1.378 . S
C680 C681 1.367 . S
C681 C680 1.367 . S
C681 C683 1.433 . S
C682 C678 1.350 . S
C682 C679 1.463 . S
C682 N686 1.427 . S
C683 H673 0.929 . S
C683 C681 1.433 . S
C683 N686 1.384 . S
C684 H675 0.929 . S
C684 C676 1.378 . S
C684 C679 1.350 . S
C685 H672 0.929 . S
C685 C677 1.433 . S
C685 N687 1.384 . S
N686 C682 1.427 . S
N686 C683 1.384 . S
N687 C679 1.427 . S
N687 C685 1.384 . S
H688 C694 0.930 . S
H689 C698 0.930 . S
H690 C703 0.929 . S
H691 C701 0.929 . S
H692 C696 0.929 . S
H693 C702 0.929 . S
C694 H688 0.930 . S
C694 C695 1.367 . S
C694 C702 1.378 . S
C695 C694 1.367 . S
C695 C703 1.433 . S
C696 H692 0.929 . S
C696 C698 1.378 . S
C696 C700 1.350 . S
C697 C700 1.463 . S
C697 C702 1.350 . S
C697 N705 1.427 . S
C698 H689 0.930 . S
C698 C696 1.378 . S
C698 C699 1.367 . S
C699 C698 1.367 . S
C699 C701 1.433 . S
C700 C696 1.350 . S
C700 C697 1.463 . S
C700 N704 1.427 . S
C701 H691 0.929 . S
C701 C699 1.433 . S
C701 N704 1.384 . S
C702 H693 0.929 . S
C702 C694 1.378 . S
C702 C697 1.350 . S
C703 H690 0.929 . S
C703 C695 1.433 . S
C703 N705 1.384 . S
N704 C700 1.427 . S
N704 C701 1.384 . S
N705 C697 1.427 . S
N705 C703 1.384 . S
H706 C712 0.930 . S
H707 C716 0.930 . S
H708 C721 0.929 . S
H709 C719 0.929 . S
H710 C714 0.929 . S
H711 C720 0.929 . S
C712 H706 0.930 . S
C712 C713 1.367 . S
C712 C720 1.378 . S
C713 C712 1.367 . S
C713 C721 1.433 . S
C714 H710 0.929 . S
C714 C716 1.378 . S
C714 C718 1.350 . S
C715 C718 1.463 . S
C715 C720 1.350 . S
C715 N723 1.427 . S
C716 H707 0.930 . S
C716 C714 1.378 . S
C716 C717 1.367 . S
C717 C716 1.367 . S
C717 C719 1.433 . S
C718 C714 1.350 . S
C718 C715 1.463 . S
C718 N722 1.427 . S
C719 H709 0.929 . S
C719 C717 1.433 . S
C719 N722 1.384 . S
C720 H711 0.929 . S
C720 C712 1.378 . S
C720 C715 1.350 . S
C721 H708 0.929 . S
C721 C713 1.433 . S
C721 N723 1.384 . S
N722 C718 1.427 . S
N722 C719 1.384 . S
N723 C715 1.427 . S
N723 C721 1.384 . S
H724 C730 0.930 . S
H725 C734 0.930 . S
H726 C739 0.929 . S
H727 C737 0.929 . S
H728 C732 0.929 . S
H729 C738 0.929 . S
C730 H724 0.930 . S
C730 C731 1.367 . S
C730 C738 1.378 . S
C731 C730 1.367 . S
C731 C739 1.433 . S
C732 H728 0.929 . S
C732 C734 1.378 . S
C732 C736 1.350 . S
C733 C736 1.463 . S
C733 C738 1.350 . S
C733 N741 1.427 . S
C734 H725 0.930 . S
C734 C732 1.378 . S
C734 C735 1.367 . S
C735 C734 1.367 . S
C735 C737 1.433 . S
C736 C732 1.350 . S
C736 C733 1.463 . S
C736 N740 1.427 . S
C737 H727 0.929 . S
C737 C735 1.433 . S
C737 N740 1.384 . S
C738 H729 0.929 . S
C738 C730 1.378 . S
C738 C733 1.350 . S
C739 H726 0.929 . S
C739 C731 1.433 . S
C739 N741 1.384 . S
N740 C736 1.427 . S
N740 C737 1.384 . S
N741 C733 1.427 . S
N741 C739 1.384 . S
H742 C748 0.930 . S
H743 C752 0.930 . S
H744 C757 0.929 . S
H745 C755 0.929 . S
H746 C750 0.929 . S
H747 C756 0.929 . S
C748 H742 0.930 . S
C748 C749 1.367 . S
C748 C756 1.378 . S
C749 C748 1.367 . S
C749 C757 1.433 . S
C750 H746 0.929 . S
C750 C752 1.378 . S
C750 C754 1.350 . S
C751 C754 1.463 . S
C751 C756 1.350 . S
C751 N759 1.427 . S
C752 H743 0.930 . S
C752 C750 1.378 . S
C752 C753 1.367 . S
C753 C752 1.367 . S
C753 C755 1.433 . S
C754 C750 1.350 . S
C754 C751 1.463 . S
C754 N758 1.427 . S
C755 H745 0.929 . S
C755 C753 1.433 . S
C755 N758 1.384 . S
C756 H747 0.929 . S
C756 C748 1.378 . S
C756 C751 1.350 . S
C757 H744 0.929 . S
C757 C749 1.433 . S
C757 N759 1.384 . S
N758 C754 1.427 . S
N758 C755 1.384 . S
N759 C751 1.427 . S
N759 C757 1.384 . S
H760 C766 0.930 . S
H761 C770 0.930 . S
H762 C775 0.929 . S
H763 C773 0.929 . S
H764 C768 0.929 . S
H765 C774 0.929 . S
C766 H760 0.930 . S
C766 C767 1.367 . S
C766 C774 1.378 . S
C767 C766 1.367 . S
C767 C775 1.433 . S
C768 H764 0.929 . S
C768 C770 1.378 . S
C768 C772 1.350 . S
C769 C772 1.463 . S
C769 C774 1.350 . S
C769 N777 1.427 . S
C770 H761 0.930 . S
C770 C768 1.378 . S
C770 C771 1.367 . S
C771 C770 1.367 . S
C771 C773 1.433 . S
C772 C768 1.350 . S
C772 C769 1.463 . S
C772 N776 1.427 . S
C773 H763 0.929 . S
C773 C771 1.433 . S
C773 N776 1.384 . S
C774 H765 0.929 . S
C774 C766 1.378 . S
C774 C769 1.350 . S
C775 H762 0.929 . S
C775 C767 1.433 . S
C775 N777 1.384 . S
N776 C772 1.427 . S
N776 C773 1.384 . S
N777 C769 1.427 . S
N777 C775 1.384 . S
H778 C784 0.930 . S
H779 C788 0.930 . S
H780 C793 0.929 . S
H781 C791 0.929 . S
H782 C786 0.929 . S
H783 C792 0.929 . S
C784 H778 0.930 . S
C784 C785 1.367 . S
C784 C792 1.378 . S
C785 C784 1.367 . S
C785 C793 1.433 . S
C786 H782 0.929 . S
C786 C788 1.378 . S
C786 C790 1.350 . S
C787 C790 1.463 . S
C787 C792 1.350 . S
C787 N795 1.427 . S
C788 H779 0.930 . S
C788 C786 1.378 . S
C788 C789 1.367 . S
C789 C788 1.367 . S
C789 C791 1.433 . S
C790 C786 1.350 . S
C790 C787 1.463 . S
C790 N794 1.427 . S
C791 H781 0.929 . S
C791 C789 1.433 . S
C791 N794 1.384 . S
C792 H783 0.929 . S
C792 C784 1.378 . S
C792 C787 1.350 . S
C793 H780 0.929 . S
C793 C785 1.433 . S
C793 N795 1.384 . S
N794 C790 1.427 . S
N794 C791 1.384 . S
N795 C787 1.427 . S
N795 C793 1.384 . S
H796 C802 0.930 . S
H797 C806 0.930 . S
H798 C811 0.929 . S
H799 C809 0.929 . S
H800 C804 0.929 . S
H801 C810 0.929 . S
C802 H796 0.930 . S
C802 C803 1.367 . S
C802 C810 1.378 . S
C803 C802 1.367 . S
C803 C811 1.433 . S
C804 H800 0.929 . S
C804 C806 1.378 . S
C804 C808 1.350 . S
C805 C808 1.463 . S
C805 C810 1.350 . S
C805 N813 1.427 . S
C806 H797 0.930 . S
C806 C804 1.378 . S
C806 C807 1.367 . S
C807 C806 1.367 . S
C807 C809 1.433 . S
C808 C804 1.350 . S
C808 C805 1.463 . S
C808 N812 1.427 . S
C809 H799 0.929 . S
C809 C807 1.433 . S
C809 N812 1.384 . S
C810 H801 0.929 . S
C810 C802 1.378 . S
C810 C805 1.350 . S
C811 H798 0.929 . S
C811 C803 1.433 . S
C811 N813 1.384 . S
N812 C808 1.427 . S
N812 C809 1.384 . S
N813 C805 1.427 . S
N813 C811 1.384 . S
H814 C820 0.930 . S
H815 C824 0.930 . S
H816 C829 0.929 . S
H817 C827 0.929 . S
H818 C822 0.929 . S
H819 C828 0.929 . S
C820 H814 0.930 . S
C820 C821 1.367 . S
C820 C828 1.378 . S
C821 C820 1.367 . S
C821 C829 1.433 . S
C822 H818 0.929 . S
C822 C824 1.378 . S
C822 C826 1.350 . S
C823 C826 1.463 . S
C823 C828 1.350 . S
C823 N831 1.427 . S
C824 H815 0.930 . S
C824 C822 1.378 . S
C824 C825 1.367 . S
C825 C824 1.367 . S
C825 C827 1.433 . S
C826 C822 1.350 . S
C826 C823 1.463 . S
C826 N830 1.427 . S
C827 H817 0.929 . S
C827 C825 1.433 . S
C827 N830 1.384 . S
C828 H819 0.929 . S
C828 C820 1.378 . S
C828 C823 1.350 . S
C829 H816 0.929 . S
C829 C821 1.433 . S
C829 N831 1.384 . S
N830 C826 1.427 . S
N830 C827 1.384 . S
N831 C823 1.427 . S
N831 C829 1.384 . S
H832 C838 0.930 . S
H833 C842 0.930 . S
H834 C847 0.929 . S
H835 C845 0.929 . S
H836 C840 0.929 . S
H837 C846 0.929 . S
C838 H832 0.930 . S
C838 C839 1.367 . S
C838 C846 1.378 . S
C839 C838 1.367 . S
C839 C847 1.433 . S
C840 H836 0.929 . S
C840 C842 1.378 . S
C840 C844 1.350 . S
C841 C844 1.463 . S
C841 C846 1.350 . S
C841 N849 1.427 . S
C842 H833 0.930 . S
C842 C840 1.378 . S
C842 C843 1.367 . S
C843 C842 1.367 . S
C843 C845 1.433 . S
C844 C840 1.350 . S
C844 C841 1.463 . S
C844 N848 1.427 . S
C845 H835 0.929 . S
C845 C843 1.433 . S
C845 N848 1.384 . S
C846 H837 0.929 . S
C846 C838 1.378 . S
C846 C841 1.350 . S
C847 H834 0.929 . S
C847 C839 1.433 . S
C847 N849 1.384 . S
N848 C844 1.427 . S
N848 C845 1.384 . S
N849 C841 1.427 . S
N849 C847 1.384 . S
H850 C856 0.930 . S
H851 C860 0.930 . S
H852 C865 0.929 . S
H853 C863 0.929 . S
H854 C858 0.929 . S
H855 C864 0.929 . S
C856 H850 0.930 . S
C856 C857 1.367 . S
C856 C864 1.378 . S
C857 C856 1.367 . S
C857 C865 1.433 . S
C858 H854 0.929 . S
C858 C860 1.378 . S
C858 C862 1.350 . S
C859 C862 1.463 . S
C859 C864 1.350 . S
C859 N867 1.427 . S
C860 H851 0.930 . S
C860 C858 1.378 . S
C860 C861 1.367 . S
C861 C860 1.367 . S
C861 C863 1.433 . S
C862 C858 1.350 . S
C862 C859 1.463 . S
C862 N866 1.427 . S
C863 H853 0.929 . S
C863 C861 1.433 . S
C863 N866 1.384 . S
C864 H855 0.929 . S
C864 C856 1.378 . S
C864 C859 1.350 . S
C865 H852 0.929 . S
C865 C857 1.433 . S
C865 N867 1.384 . S
N866 C862 1.427 . S
N866 C863 1.384 . S
N867 C859 1.427 . S
N867 C865 1.384 . S
H868 C874 0.930 . S
H869 C878 0.930 . S
H870 C883 0.929 . S
H871 C881 0.929 . S
H872 C876 0.929 . S
H873 C882 0.929 . S
C874 H868 0.930 . S
C874 C875 1.367 . S
C874 C882 1.378 . S
C875 C874 1.367 . S
C875 C883 1.433 . S
C876 H872 0.929 . S
C876 C878 1.378 . S
C876 C880 1.350 . S
C877 C880 1.463 . S
C877 C882 1.350 . S
C877 N885 1.427 . S
C878 H869 0.930 . S
C878 C876 1.378 . S
C878 C879 1.367 . S
C879 C878 1.367 . S
C879 C881 1.433 . S
C880 C876 1.350 . S
C880 C877 1.463 . S
C880 N884 1.427 . S
C881 H871 0.929 . S
C881 C879 1.433 . S
C881 N884 1.384 . S
C882 H873 0.929 . S
C882 C874 1.378 . S
C882 C877 1.350 . S
C883 H870 0.929 . S
C883 C875 1.433 . S
C883 N885 1.384 . S
N884 C880 1.427 . S
N884 C881 1.384 . S
N885 C877 1.427 . S
N885 C883 1.384 . S
H886 C892 0.930 . S
H887 C896 0.930 . S
H888 C901 0.929 . S
H889 C899 0.929 . S
H890 C894 0.929 . S
H891 C900 0.929 . S
C892 H886 0.930 . S
C892 C893 1.367 . S
C892 C900 1.378 . S
C893 C892 1.367 . S
C893 C901 1.433 . S
C894 H890 0.929 . S
C894 C896 1.378 . S
C894 C898 1.350 . S
C895 C898 1.463 . S
C895 C900 1.350 . S
C895 N903 1.427 . S
C896 H887 0.930 . S
C896 C894 1.378 . S
C896 C897 1.367 . S
C897 C896 1.367 . S
C897 C899 1.433 . S
C898 C894 1.350 . S
C898 C895 1.463 . S
C898 N902 1.427 . S
C899 H889 0.929 . S
C899 C897 1.433 . S
C899 N902 1.384 . S
C900 H891 0.929 . S
C900 C892 1.378 . S
C900 C895 1.350 . S
C901 H888 0.929 . S
C901 C893 1.433 . S
C901 N903 1.384 . S
N902 C898 1.427 . S
N902 C899 1.384 . S
N903 C895 1.427 . S
N903 C901 1.384 . S
H904 C910 0.930 . S
H905 C914 0.930 . S
H906 C919 0.929 . S
H907 C917 0.929 . S
H908 C912 0.929 . S
H909 C918 0.929 . S
C910 H904 0.930 . S
C910 C911 1.367 . S
C910 C918 1.378 . S
C911 C910 1.367 . S
C911 C919 1.433 . S
C912 H908 0.929 . S
C912 C914 1.378 . S
C912 C916 1.350 . S
C913 C916 1.463 . S
C913 C918 1.350 . S
C913 N921 1.427 . S
C914 H905 0.930 . S
C914 C912 1.378 . S
C914 C915 1.367 . S
C915 C914 1.367 . S
C915 C917 1.433 . S
C916 C912 1.350 . S
C916 C913 1.463 . S
C916 N920 1.427 . S
C917 H907 0.929 . S
C917 C915 1.433 . S
C917 N920 1.384 . S
C918 H909 0.929 . S
C918 C910 1.378 . S
C918 C913 1.350 . S
C919 H906 0.929 . S
C919 C911 1.433 . S
C919 N921 1.384 . S
N920 C916 1.427 . S
N920 C917 1.384 . S
N921 C913 1.427 . S
N921 C919 1.384 . S
H922 C928 0.930 . S
H923 C932 0.930 . S
H924 C937 0.929 . S
H925 C935 0.929 . S
H926 C930 0.929 . S
H927 C936 0.929 . S
C928 H922 0.930 . S
C928 C929 1.367 . S
C928 C936 1.378 . S
C929 C928 1.367 . S
C929 C937 1.433 . S
C930 H926 0.929 . S
C930 C932 1.378 . S
C930 C934 1.350 . S
C931 C934 1.463 . S
C931 C936 1.350 . S
C931 N939 1.427 . S
C932 H923 0.930 . S
C932 C930 1.378 . S
C932 C933 1.367 . S
C933 C932 1.367 . S
C933 C935 1.433 . S
C934 C930 1.350 . S
C934 C931 1.463 . S
C934 N938 1.427 . S
C935 H925 0.929 . S
C935 C933 1.433 . S
C935 N938 1.384 . S
C936 H927 0.929 . S
C936 C928 1.378 . S
C936 C931 1.350 . S
C937 H924 0.929 . S
C937 C929 1.433 . S
C937 N939 1.384 . S
N938 C934 1.427 . S
N938 C935 1.384 . S
N939 C931 1.427 . S
N939 C937 1.384 . S
H940 C946 0.930 . S
H941 C950 0.930 . S
H942 C955 0.929 . S
H943 C953 0.929 . S
H944 C948 0.929 . S
H945 C954 0.929 . S
C946 H940 0.930 . S
C946 C947 1.367 . S
C946 C954 1.378 . S
C947 C946 1.367 . S
C947 C955 1.433 . S
C948 H944 0.929 . S
C948 C950 1.378 . S
C948 C952 1.350 . S
C949 C952 1.463 . S
C949 C954 1.350 . S
C949 N957 1.427 . S
C950 H941 0.930 . S
C950 C948 1.378 . S
C950 C951 1.367 . S
C951 C950 1.367 . S
C951 C953 1.433 . S
C952 C948 1.350 . S
C952 C949 1.463 . S
C952 N956 1.427 . S
C953 H943 0.929 . S
C953 C951 1.433 . S
C953 N956 1.384 . S
C954 H945 0.929 . S
C954 C946 1.378 . S
C954 C949 1.350 . S
C955 H942 0.929 . S
C955 C947 1.433 . S
C955 N957 1.384 . S
N956 C952 1.427 . S
N956 C953 1.384 . S
N957 C949 1.427 . S
N957 C955 1.384 . S
H958 C964 0.930 . S
H959 C968 0.930 . S
H960 C973 0.929 . S
H961 C971 0.929 . S
H962 C966 0.929 . S
H963 C972 0.929 . S
C964 H958 0.930 . S
C964 C965 1.367 . S
C964 C972 1.378 . S
C965 C964 1.367 . S
C965 C973 1.433 . S
C966 H962 0.929 . S
C966 C968 1.378 . S
C966 C970 1.350 . S
C967 C970 1.463 . S
C967 C972 1.350 . S
C967 N975 1.427 . S
C968 H959 0.930 . S
C968 C966 1.378 . S
C968 C969 1.367 . S
C969 C968 1.367 . S
C969 C971 1.433 . S
C970 C966 1.350 . S
C970 C967 1.463 . S
C970 N974 1.427 . S
C971 H961 0.929 . S
C971 C969 1.433 . S
C971 N974 1.384 . S
C972 H963 0.929 . S
C972 C964 1.378 . S
C972 C967 1.350 . S
C973 H960 0.929 . S
C973 C965 1.433 . S
C973 N975 1.384 . S
N974 C970 1.427 . S
N974 C971 1.384 . S
N975 C967 1.427 . S
N975 C973 1.384 . S
H976 C982 0.930 . S
H977 C986 0.930 . S
H978 C991 0.929 . S
H979 C989 0.929 . S
H980 C984 0.929 . S
H981 C990 0.929 . S
C982 H976 0.930 . S
C982 C983 1.367 1_565 S
C982 C990 1.378 . S
C983 C982 1.367 1_545 S
C983 C991 1.433 . S
C984 H980 0.929 . S
C984 C986 1.378 . S
C984 C988 1.350 . S
C985 C988 1.463 1_655 S
C985 C990 1.350 1_545 S
C985 N993 1.427 . S
C986 H977 0.930 . S
C986 C984 1.378 . S
C986 C987 1.367 . S
C987 C986 1.367 . S
C987 C989 1.433 1_545 S
C988 C984 1.350 . S
C988 C985 1.463 1_455 S
C988 N992 1.427 1_545 S
C989 H979 0.929 . S
C989 C987 1.433 1_565 S
C989 N992 1.384 . S
C990 H981 0.929 . S
C990 C982 1.378 . S
C990 C985 1.350 1_565 S
C991 H978 0.929 . S
C991 C983 1.433 . S
C991 N993 1.384 . S
N992 C988 1.427 1_565 S
N992 C989 1.384 . S
N993 C985 1.427 . S
N993 C991 1.384 . S
H994 C1000 0.930 . S
H995 C1004 0.930 . S
H996 C1009 0.929 . S
H997 C1007 0.929 1_565 S
H998 C1002 0.929 . S
H999 C1008 0.929 . S
C1000 H994 0.930 . S
C1000 C1001 1.367 1_565 S
C1000 C1008 1.378 . S
C1001 C1000 1.367 1_545 S
C1001 C1009 1.433 . S
C1002 H998 0.929 . S
C1002 C1004 1.378 . S
C1002 C1006 1.350 . S
C1003 C1006 1.463 1_455 S
C1003 C1008 1.350 1_545 S
C1003 N1011 1.427 . S
C1004 H995 0.930 . S
C1004 C1002 1.378 . S
C1004 C1005 1.367 . S
C1005 C1004 1.367 . S
C1005 C1007 1.433 . S
C1006 C1002 1.350 . S
C1006 C1003 1.463 1_655 S
C1006 N1010 1.427 . S
C1007 H997 0.929 1_545 S
C1007 C1005 1.433 . S
C1007 N1010 1.384 . S
C1008 H999 0.929 . S
C1008 C1000 1.378 . S
C1008 C1003 1.350 1_565 S
C1009 H996 0.929 . S
C1009 C1001 1.433 . S
C1009 N1011 1.384 . S
N1010 C1006 1.427 . S
N1010 C1007 1.384 . S
N1011 C1003 1.427 . S
N1011 C1009 1.384 . S
H1012 C1018 0.930 . S
H1013 C1022 0.930 . S
H1014 C1027 0.929 . S
H1015 C1025 0.929 . S
H1016 C1020 0.929 . S
H1017 C1026 0.929 . S
C1018 H1012 0.930 . S
C1018 C1019 1.367 . S
C1018 C1026 1.378 . S
C1019 C1018 1.367 . S
C1019 C1027 1.433 . S
C1020 H1016 0.929 . S
C1020 C1022 1.378 . S
C1020 C1024 1.350 . S
C1021 C1024 1.463 1_655 S
C1021 C1026 1.350 . S
C1021 N1029 1.427 . S
C1022 H1013 0.930 . S
C1022 C1020 1.378 . S
C1022 C1023 1.367 . S
C1023 C1022 1.367 . S
C1023 C1025 1.433 . S
C1024 C1020 1.350 . S
C1024 C1021 1.463 1_455 S
C1024 N1028 1.427 . S
C1025 H1015 0.929 . S
C1025 C1023 1.433 . S
C1025 N1028 1.384 . S
C1026 H1017 0.929 . S
C1026 C1018 1.378 . S
C1026 C1021 1.350 . S
C1027 H1014 0.929 . S
C1027 C1019 1.433 . S
C1027 N1029 1.384 . S
N1028 C1024 1.427 . S
N1028 C1025 1.384 . S
N1029 C1021 1.427 . S
N1029 C1027 1.384 . S
H1030 C1036 0.930 . S
H1031 C1040 0.930 . S
H1032 C1045 0.929 . S
H1033 C1043 0.929 . S
H1034 C1038 0.929 . S
H1035 C1044 0.929 . S
C1036 H1030 0.930 . S
C1036 C1037 1.367 . S
C1036 C1044 1.378 . S
C1037 C1036 1.367 . S
C1037 C1045 1.433 . S
C1038 H1034 0.929 . S
C1038 C1040 1.378 . S
C1038 C1042 1.350 . S
C1039 C1042 1.463 1_655 S
C1039 C1044 1.350 . S
C1039 N1047 1.427 . S
C1040 H1031 0.930 . S
C1040 C1038 1.378 . S
C1040 C1041 1.367 . S
C1041 C1040 1.367 . S
C1041 C1043 1.433 . S
C1042 C1038 1.350 . S
C1042 C1039 1.463 1_455 S
C1042 N1046 1.427 . S
C1043 H1033 0.929 . S
C1043 C1041 1.433 . S
C1043 N1046 1.384 . S
C1044 H1035 0.929 . S
C1044 C1036 1.378 . S
C1044 C1039 1.350 . S
C1045 H1032 0.929 . S
C1045 C1037 1.433 . S
C1045 N1047 1.384 . S
N1046 C1042 1.427 . S
N1046 C1043 1.384 . S
N1047 C1039 1.427 . S
N1047 C1045 1.384 . S
H1048 C1054 0.930 . S
H1049 C1058 0.930 . S
H1050 C1063 0.929 . S
H1051 C1061 0.929 1_565 S
H1052 C1056 0.929 . S
H1053 C1062 0.929 . S
C1054 H1048 0.930 . S
C1054 C1055 1.367 1_565 S
C1054 C1062 1.378 . S
C1055 C1054 1.367 1_545 S
C1055 C1063 1.433 . S
C1056 H1052 0.929 . S
C1056 C1058 1.378 . S
C1056 C1060 1.350 . S
C1057 C1060 1.463 . S
C1057 C1062 1.350 1_545 S
C1057 N1065 1.427 . S
C1058 H1049 0.930 . S
C1058 C1056 1.378 . S
C1058 C1059 1.367 . S
C1059 C1058 1.367 . S
C1059 C1061 1.433 . S
C1060 C1056 1.350 . S
C1060 C1057 1.463 . S
C1060 N1064 1.429 . S
C1061 H1051 0.929 1_545 S
C1061 C1059 1.433 . S
C1061 N1064 1.384 . S
C1062 H1053 0.929 . S
C1062 C1054 1.378 . S
C1062 C1057 1.350 1_565 S
C1063 H1050 0.929 . S
C1063 C1055 1.433 . S
C1063 N1065 1.384 . S
N1064 C1060 1.429 . S
N1064 C1061 1.384 . S
N1065 C1057 1.427 . S
N1065 C1063 1.384 . S
H1066 C1072 0.930 . S
H1067 C1076 0.930 . S
H1068 C1081 0.929 . S
H1069 C1079 0.929 . S
H1070 C1074 0.929 . S
H1071 C1080 0.929 . S
C1072 H1066 0.930 . S
C1072 C1073 1.367 . S
C1072 C1080 1.378 . S
C1073 C1072 1.367 . S
C1073 C1081 1.433 . S
C1074 H1070 0.929 . S
C1074 C1076 1.378 . S
C1074 C1078 1.350 . S
C1075 C1078 1.463 . S
C1075 C1080 1.350 . S
C1075 N1083 1.427 . S
C1076 H1067 0.930 . S
C1076 C1074 1.378 . S
C1076 C1077 1.367 . S
C1077 C1076 1.367 . S
C1077 C1079 1.433 1_545 S
C1078 C1074 1.350 . S
C1078 C1075 1.463 . S
C1078 N1082 1.427 . S
C1079 H1069 0.929 . S
C1079 C1077 1.433 1_565 S
C1079 N1082 1.384 1_565 S
C1080 H1071 0.929 . S
C1080 C1072 1.378 . S
C1080 C1075 1.350 . S
C1081 H1068 0.929 . S
C1081 C1073 1.433 . S
C1081 N1083 1.384 . S
N1082 C1078 1.427 . S
N1082 C1079 1.384 1_545 S
N1083 C1075 1.427 . S
N1083 C1081 1.384 . S
H1084 C1090 0.930 . S
H1085 C1094 0.930 . S
H1086 C1099 0.929 . S
H1087 C1097 0.929 . S
H1088 C1092 0.929 . S
H1089 C1098 0.929 . S
C1090 H1084 0.930 . S
C1090 C1091 1.367 . S
C1090 C1098 1.378 . S
C1091 C1090 1.367 . S
C1091 C1099 1.433 . S
C1092 H1088 0.929 . S
C1092 C1094 1.378 . S
C1092 C1096 1.350 . S
C1093 C1096 1.463 . S
C1093 C1098 1.350 . S
C1093 N1101 1.427 . S
C1094 H1085 0.930 . S
C1094 C1092 1.378 . S
C1094 C1095 1.367 . S
C1095 C1094 1.367 . S
C1095 C1097 1.433 . S
C1096 C1092 1.350 . S
C1096 C1093 1.463 . S
C1096 N1100 1.427 . S
C1097 H1087 0.929 . S
C1097 C1095 1.433 . S
C1097 N1100 1.384 . S
C1098 H1089 0.929 . S
C1098 C1090 1.378 . S
C1098 C1093 1.350 . S
C1099 H1086 0.929 . S
C1099 C1091 1.433 . S
C1099 N1101 1.384 . S
N1100 C1096 1.427 . S
N1100 C1097 1.384 . S
N1101 C1093 1.427 . S
N1101 C1099 1.384 . S
H1102 C1108 0.930 . S
H1103 C1112 0.930 . S
H1104 C1117 0.929 . S
H1105 C1115 0.929 . S
H1106 C1110 0.929 . S
H1107 C1116 0.929 . S
C1108 H1102 0.930 . S
C1108 C1109 1.367 . S
C1108 C1116 1.378 . S
C1109 C1108 1.367 . S
C1109 C1117 1.433 . S
C1110 H1106 0.929 . S
C1110 C1112 1.378 . S
C1110 C1114 1.350 . S
C1111 C1114 1.463 . S
C1111 C1116 1.350 . S
C1111 N1119 1.427 . S
C1112 H1103 0.930 . S
C1112 C1110 1.378 . S
C1112 C1113 1.367 . S
C1113 C1112 1.367 . S
C1113 C1115 1.433 . S
C1114 C1110 1.350 . S
C1114 C1111 1.463 . S
C1114 N1118 1.427 . S
C1115 H1105 0.929 . S
C1115 C1113 1.433 . S
C1115 N1118 1.384 . S
C1116 H1107 0.929 . S
C1116 C1108 1.378 . S
C1116 C1111 1.350 . S
C1117 H1104 0.929 . S
C1117 C1109 1.433 . S
C1117 N1119 1.384 . S
N1118 C1114 1.427 . S
N1118 C1115 1.384 . S
N1119 C1111 1.427 . S
N1119 C1117 1.384 . S
H1120 C1126 0.930 . S
H1121 C1130 0.930 . S
H1122 C1135 0.929 . S
H1123 C1133 0.929 . S
H1124 C1128 0.929 . S
H1125 C1134 0.929 . S
C1126 H1120 0.930 . S
C1126 C1127 1.367 . S
C1126 C1134 1.378 . S
C1127 C1126 1.367 . S
C1127 C1135 1.433 1_545 S
C1128 H1124 0.929 . S
C1128 C1130 1.378 . S
C1128 C1132 1.350 1_565 S
C1129 C1132 1.463 1_556 S
C1129 C1134 1.350 . S
C1129 N1137 1.427 1_545 S
C1130 H1121 0.930 . S
C1130 C1128 1.378 . S
C1130 C1131 1.367 1_565 S
C1131 C1130 1.367 1_545 S
C1131 C1133 1.433 . S
C1132 C1128 1.350 1_545 S
C1132 C1129 1.463 1_554 S
C1132 N1136 1.427 . S
C1133 H1123 0.929 . S
C1133 C1131 1.433 . S
C1133 N1136 1.384 . S
C1134 H1125 0.929 . S
C1134 C1126 1.378 . S
C1134 C1129 1.350 . S
C1135 H1122 0.929 . S
C1135 C1127 1.433 1_565 S
C1135 N1137 1.384 . S
N1136 C1132 1.427 . S
N1136 C1133 1.384 . S
N1137 C1129 1.427 1_565 S
N1137 C1135 1.384 . S
H1138 C1144 0.930 . S
H1139 C1148 0.930 . S
H1140 C1153 0.929 . S
H1141 C1151 0.929 . S
H1142 C1146 0.929 . S
H1143 C1152 0.929 . S
C1144 H1138 0.930 . S
C1144 C1145 1.367 1_565 S
C1144 C1152 1.378 . S
C1145 C1144 1.367 1_545 S
C1145 C1153 1.433 . S
C1146 H1142 0.929 . S
C1146 C1148 1.378 . S
C1146 C1150 1.350 . S
C1147 C1150 1.463 1_556 S
C1147 C1152 1.350 1_545 S
C1147 N1155 1.427 . S
C1148 H1139 0.930 . S
C1148 C1146 1.378 . S
C1148 C1149 1.367 . S
C1149 C1148 1.367 . S
C1149 C1151 1.433 1_545 S
C1150 C1146 1.350 . S
C1150 C1147 1.463 1_554 S
C1150 N1154 1.427 1_545 S
C1151 H1141 0.929 . S
C1151 C1149 1.433 1_565 S
C1151 N1154 1.384 . S
C1152 H1143 0.929 . S
C1152 C1144 1.378 . S
C1152 C1147 1.350 1_565 S
C1153 H1140 0.929 . S
C1153 C1145 1.433 . S
C1153 N1155 1.384 . S
N1154 C1150 1.427 1_565 S
N1154 C1151 1.384 . S
N1155 C1147 1.427 . S
N1155 C1153 1.384 . S
H1156 C1162 0.930 . S
H1157 C1166 0.930 . S
H1158 C1171 0.929 . S
H1159 C1169 0.929 . S
H1160 C1164 0.929 . S
H1161 C1170 0.929 . S
C1162 H1156 0.930 . S
C1162 C1163 1.367 . S
C1162 C1170 1.378 . S
C1163 C1162 1.367 . S
C1163 C1171 1.433 . S
C1164 H1160 0.929 . S
C1164 C1166 1.378 . S
C1164 C1168 1.350 . S
C1165 C1168 1.463 . S
C1165 C1170 1.350 . S
C1165 N1173 1.427 . S
C1166 H1157 0.930 . S
C1166 C1164 1.378 . S
C1166 C1167 1.367 . S
C1167 C1166 1.367 . S
C1167 C1169 1.433 . S
C1168 C1164 1.350 . S
C1168 C1165 1.463 . S
C1168 N1172 1.427 . S
C1169 H1159 0.929 . S
C1169 C1167 1.433 . S
C1169 N1172 1.384 . S
C1170 H1161 0.929 . S
C1170 C1162 1.378 . S
C1170 C1165 1.350 . S
C1171 H1158 0.929 . S
C1171 C1163 1.433 . S
C1171 N1173 1.384 . S
N1172 C1168 1.427 . S
N1172 C1169 1.384 . S
N1173 C1165 1.427 . S
N1173 C1171 1.384 . S
H1174 C1180 0.930 . S
H1175 C1184 0.930 . S
H1176 C1189 0.929 . S
H1177 C1187 0.929 . S
H1178 C1182 0.929 . S
H1179 C1188 0.929 . S
C1180 H1174 0.930 . S
C1180 C1181 1.367 . S
C1180 C1188 1.378 . S
C1181 C1180 1.367 . S
C1181 C1189 1.433 . S
C1182 H1178 0.929 . S
C1182 C1184 1.378 . S
C1182 C1186 1.350 . S
C1183 C1186 1.463 . S
C1183 C1188 1.350 . S
C1183 N1191 1.427 . S
C1184 H1175 0.930 . S
C1184 C1182 1.378 . S
C1184 C1185 1.367 . S
C1185 C1184 1.367 . S
C1185 C1187 1.433 . S
C1186 C1182 1.350 . S
C1186 C1183 1.463 . S
C1186 N1190 1.427 . S
C1187 H1177 0.929 . S
C1187 C1185 1.433 . S
C1187 N1190 1.384 . S
C1188 H1179 0.929 . S
C1188 C1180 1.378 . S
C1188 C1183 1.350 . S
C1189 H1176 0.929 . S
C1189 C1181 1.433 . S
C1189 N1191 1.384 . S
N1190 C1186 1.427 . S
N1190 C1187 1.384 . S
N1191 C1183 1.427 . S
N1191 C1189 1.384 . S
H1192 C1198 0.930 . S
H1193 C1202 0.930 . S
H1194 C1207 0.929 . S
H1195 C1205 0.929 . S
H1196 C1200 0.929 . S
H1197 C1206 0.929 . S
C1198 H1192 0.930 . S
C1198 C1199 1.367 . S
C1198 C1206 1.378 . S
C1199 C1198 1.367 . S
C1199 C1207 1.433 1_545 S
C1200 H1196 0.929 . S
C1200 C1202 1.378 . S
C1200 C1204 1.350 1_565 S
C1201 C1204 1.463 . S
C1201 C1206 1.350 . S
C1201 N1209 1.427 1_545 S
C1202 H1193 0.930 . S
C1202 C1200 1.378 . S
C1202 C1203 1.367 1_565 S
C1203 C1202 1.367 1_545 S
C1203 C1205 1.433 . S
C1204 C1200 1.350 1_545 S
C1204 C1201 1.463 . S
C1204 N1208 1.427 . S
C1205 H1195 0.929 . S
C1205 C1203 1.433 . S
C1205 N1208 1.384 . S
C1206 H1197 0.929 . S
C1206 C1198 1.378 . S
C1206 C1201 1.350 . S
C1207 H1194 0.929 . S
C1207 C1199 1.433 1_565 S
C1207 N1209 1.384 . S
N1208 C1204 1.427 . S
N1208 C1205 1.384 . S
N1209 C1201 1.427 1_565 S
N1209 C1207 1.384 . S
H1210 C1216 0.930 . S
H1211 C1220 0.930 . S
H1212 C1225 0.929 . S
H1213 C1223 0.929 . S
H1214 C1218 0.929 . S
H1215 C1224 0.929 . S
C1216 H1210 0.930 . S
C1216 C1217 1.367 . S
C1216 C1224 1.378 . S
C1217 C1216 1.367 . S
C1217 C1225 1.433 1_545 S
C1218 H1214 0.929 . S
C1218 C1220 1.378 . S
C1218 C1222 1.350 1_565 S
C1219 C1222 1.463 . S
C1219 C1224 1.350 . S
C1219 N1227 1.427 1_545 S
C1220 H1211 0.930 . S
C1220 C1218 1.378 . S
C1220 C1221 1.367 1_565 S
C1221 C1220 1.367 1_545 S
C1221 C1223 1.433 . S
C1222 C1218 1.350 1_545 S
C1222 C1219 1.463 . S
C1222 N1226 1.427 . S
C1223 H1213 0.929 . S
C1223 C1221 1.433 . S
C1223 N1226 1.384 . S
C1224 H1215 0.929 . S
C1224 C1216 1.378 . S
C1224 C1219 1.350 . S
C1225 H1212 0.929 . S
C1225 C1217 1.433 1_565 S
C1225 N1227 1.384 . S
N1226 C1222 1.427 . S
N1226 C1223 1.384 . S
N1227 C1219 1.427 1_565 S
N1227 C1225 1.384 . S
H1228 C1234 0.930 . S
H1229 C1238 0.930 . S
H1230 C1243 0.929 . S
H1231 C1241 0.929 . S
H1232 C1236 0.929 . S
H1233 C1242 0.929 . S
C1234 H1228 0.930 . S
C1234 C1235 1.367 . S
C1234 C1242 1.378 . S
C1235 C1234 1.367 . S
C1235 C1243 1.433 . S
C1236 H1232 0.929 . S
C1236 C1238 1.378 . S
C1236 C1240 1.350 . S
C1237 C1240 1.463 1_554 S
C1237 C1242 1.350 . S
C1237 N1245 1.427 . S
C1238 H1229 0.930 . S
C1238 C1236 1.378 . S
C1238 C1239 1.367 . S
C1239 C1238 1.367 . S
C1239 C1241 1.433 . S
C1240 C1236 1.350 . S
C1240 C1237 1.463 1_556 S
C1240 N1244 1.427 . S
C1241 H1231 0.929 . S
C1241 C1239 1.433 . S
C1241 N1244 1.384 . S
C1242 H1233 0.929 . S
C1242 C1234 1.378 . S
C1242 C1237 1.350 . S
C1243 H1230 0.929 . S
C1243 C1235 1.433 . S
C1243 N1245 1.384 . S
N1244 C1240 1.427 . S
N1244 C1241 1.384 . S
N1245 C1237 1.427 . S
N1245 C1243 1.384 . S
H1246 C1252 0.930 . S
H1247 C1256 0.930 . S
H1248 C1261 0.929 . S
H1249 C1259 0.929 . S
H1250 C1254 0.929 . S
H1251 C1260 0.929 . S
C1252 H1246 0.930 . S
C1252 C1253 1.367 . S
C1252 C1260 1.378 . S
C1253 C1252 1.367 . S
C1253 C1261 1.433 . S
C1254 H1250 0.929 . S
C1254 C1256 1.378 . S
C1254 C1258 1.350 . S
C1255 C1258 1.463 1_556 S
C1255 C1260 1.350 . S
C1255 N1263 1.427 . S
C1256 H1247 0.930 . S
C1256 C1254 1.378 . S
C1256 C1257 1.367 . S
C1257 C1256 1.367 . S
C1257 C1259 1.433 . S
C1258 C1254 1.350 . S
C1258 C1255 1.463 1_554 S
C1258 N1262 1.427 . S
C1259 H1249 0.929 . S
C1259 C1257 1.433 . S
C1259 N1262 1.384 . S
C1260 H1251 0.929 . S
C1260 C1252 1.378 . S
C1260 C1255 1.350 . S
C1261 H1248 0.929 . S
C1261 C1253 1.433 . S
C1261 N1263 1.384 . S
N1262 C1258 1.427 . S
N1262 C1259 1.384 . S
N1263 C1255 1.427 . S
N1263 C1261 1.384 . S
C551 C9 1.422 . S
C555 C383 1.428 . S
C569 C43 1.424 . S
C573 C349 1.418 . S
C587 C315 1.420 . S
C591 C77 1.416 . S
C605 C281 1.427 . S
C609 C111 1.430 . S
C623 C145 1.430 . S
C627 C519 1.431 . S
C641 C179 1.419 . S
C645 C485 1.415 . S
C659 C451 1.423 . S
C663 C213 1.417 . S
C677 C417 1.425 . S
C681 C247 1.420 . S
C695 C2 2.017 . S
C699 C444 2.017 . S
C713 C410 2.017 . S
C717 C36 2.017 . S
C731 C70 2.018 . S
C735 C512 2.017 . S
C749 C478 2.017 . S
C753 C104 2.018 . S
C767 C122 1.026 . S
C771 C496 1.025 . S
C785 C530 1.027 . S
C789 C88 1.028 . S
C803 C428 1.025 . S
C807 C54 1.026 . S
C821 C20 1.027 . S
C825 C462 1.027 . S
C839 C138 2.018 . S
C843 C308 2.017 . S
C857 C172 2.017 . S
C861 C274 2.017 . S
C875 C206 2.018 . S
C879 C376 2.018 . S
C893 C240 2.018 . S
C897 C342 2.017 . S
C911 C258 1.027 . S
C915 C360 1.028 . S
C929 C224 1.025 . S
C933 C394 1.024 . S
C947 C190 1.024 . S
C951 C292 1.023 . S
C965 C156 1.025 . S
C969 C326 1.024 . S
C983 C67 1.607 . S
C987 C33 1.608 . S
C1001 C101 1.608 . S
C1005 C135 1.606 . S
C1019 C203 1.604 . S
C1023 C169 1.603 . S
C1037 C271 1.604 . S
C1041 C237 1.605 . S
C1055 C339 1.606 . S
C1059 C305 1.608 . S
C1073 C407 1.606 . S
C1077 C373 1.604 . S
C1091 C441 1.606 . S
C1095 C475 1.608 . S
C1109 C543 1.606 . S
C1113 C509 1.604 . S
C1127 C73 1.477 . S
C1131 C5 1.473 . S
C1145 C107 1.472 . S
C1149 C39 1.477 . S
C1163 C141 1.474 . S
C1167 C209 1.473 . S
C1181 C243 1.477 . S
C1185 C175 1.472 . S
C1199 C277 1.472 . S
C1203 C345 1.476 . S
C1217 C379 1.472 . S
C1221 C311 1.476 . S
C1235 C413 1.476 . S
C1239 C481 1.474 . S
C1253 C515 1.475 . S
C1257 C447 1.474 . S
