# Generated by pormake.
# Topology dia, (4)-cn, num edge types: 1
# Building blocks:
#     Node 0, Type 0, BuildingBlock: KUFVIS_clean_sbu_0, # of connection points: 4
#     Node 1, Type 0, BuildingBlock: KUFVIS_clean_sbu_0, # of connection points: 4
#     Node 2, Type 0, BuildingBlock: KUFVIS_clean_sbu_0, # of connection points: 4
#     Node 3, Type 0, BuildingBlock: KUFVIS_clean_sbu_0, # of connection points: 4
#     Node 4, Type 0, BuildingBlock: KUFVIS_clean_sbu_0, # of connection points: 4
#     Node 5, Type 0, BuildingBlock: KUFVIS_clean_sbu_0, # of connection points: 4
#     Node 6, Type 0, BuildingBlock: KUFVIS_clean_sbu_0, # of connection points: 4
#     Node 7, Type 0, BuildingBlock: KUFVIS_clean_sbu_0, # of connection points: 4
#     Edge 8, Type (0, 0), BuildingBlock: EYOCIG_clean_linker_4, # of connection points: 2
#     Edge 9, Type (0, 0), BuildingBlock: EYOCIG_clean_linker_4, # of connection points: 2
#     Edge 10, Type (0, 0), BuildingBlock: EYOCIG_clean_linker_4, # of connection points: 2
#     Edge 11, Type (0, 0), BuildingBlock: EYOCIG_clean_linker_4, # of connection points: 2
#     Edge 12, Type (0, 0), BuildingBlock: EYOCIG_clean_linker_4, # of connection points: 2
#     Edge 13, Type (0, 0), BuildingBlock: EYOCIG_clean_linker_4, # of connection points: 2
#     Edge 14, Type (0, 0), BuildingBlock: EYOCIG_clean_linker_4, # of connection points: 2
#     Edge 15, Type (0, 0), BuildingBlock: EYOCIG_clean_linker_4, # of connection points: 2
#     Edge 16, Type (0, 0), BuildingBlock: EYOCIG_clean_linker_4, # of connection points: 2
#     Edge 17, Type (0, 0), BuildingBlock: EYOCIG_clean_linker_4, # of connection points: 2
#     Edge 18, Type (0, 0), BuildingBlock: EYOCIG_clean_linker_4, # of connection points: 2
#     Edge 19, Type (0, 0), BuildingBlock: EYOCIG_clean_linker_4, # of connection points: 2
#     Edge 20, Type (0, 0), BuildingBlock: EYOCIG_clean_linker_4, # of connection points: 2
#     Edge 21, Type (0, 0), BuildingBlock: EYOCIG_clean_linker_4, # of connection points: 2
#     Edge 22, Type (0, 0), BuildingBlock: EYOCIG_clean_linker_4, # of connection points: 2
#     Edge 23, Type (0, 0), BuildingBlock: EYOCIG_clean_linker_4, # of connection points: 2
# Relax obj value: 0.070
# Max RMSD: 0.124
# Mean RMSD: 0.124
data_MOF--net-dia--node1-KUFVIS_clean_sbu_0--edge1-EYOCIG_clean_linker_4
_symmetry_space_group_name_H-M    P1
_symmetry_Int_Tables_number       1
_symmetry_cell_setting            triclinic
loop_
_symmetry_equiv_pos_as_xyz
'x, y, z'
_cell_length_a     29.250947
_cell_length_b     25.861793
_cell_length_c     25.85628
_cell_angle_alpha  92.064143
_cell_angle_beta   91.730072
_cell_angle_gamma 91.712841
loop_
_atom_site_label
_atom_site_type_symbol
_atom_site_fract_x
_atom_site_fract_y
_atom_site_fract_z
_atom_type_partial_charge
Mn0 Mn 0.1423 0.14202 0.63422 0.0
Mn1 Mn 0.1907 0.04955 0.55996 0.0
C2 C 0.10225 0.10323 0.56327 0.0
C3 C 0.0995 0.171 0.7033 0.0
C4 C 0.21627 0.16373 0.55633 0.0
O5 O 0.1941 0.11708 0.6815 0.0
O6 O 0.21966 0.05151 0.63073 0.0
C7 C 0.16426 0.95387 0.61241 0.0
N8 N 0.16292 0.98296 0.56956 0.0
C9 C 0.12461 0.9137 0.51907 0.0
C10 C 0.12567 0.88299 0.56263 0.0
C11 C 0.1455 0.90322 0.60951 0.0
C12 C 0.14392 0.96385 0.52424 0.0
H13 H 0.18003 0.96894 0.64835 0.0
C14 C 0.2192 0.07802 0.67354 0.0
O15 O 0.12931 0.20095 0.68235 0.0
O16 O 0.09563 0.12325 0.686 0.0
N17 N 0.16434 0.04345 0.49128 0.0
C18 C 0.1655 0.07834 0.45303 0.0
C19 C 0.14615 0.06452 0.40395 0.0
C20 C 0.12624 0.01486 0.39452 0.0
C21 C 0.12541 0.97966 0.43447 0.0
C22 C 0.14478 0.99581 0.48278 0.0
H23 H 0.18101 0.11646 0.45985 0.0
O24 O 0.09138 0.14862 0.58108 0.0
O25 O 0.13628 0.08222 0.58688 0.0
O26 O 0.18742 0.17968 0.58849 0.0
O27 O 0.22175 0.1161 0.54484 0.0
C28 C 0.10577 0.92934 0.42838 0.0
C29 C 0.10553 0.8963 0.4706 0.0
H30 H 0.11149 0.84378 0.56048 0.0
H31 H 0.14667 0.87964 0.64323 0.0
H32 H 0.14682 0.09198 0.37336 0.0
H33 H 0.11151 1.00426 0.35654 0.0
H34 H 0.09066 0.9157 0.39142 0.0
H35 H 0.09049 0.85761 0.4654 0.0
Mn36 Mn 0.91904 0.3816 0.87408 0.0
Mn37 Mn 0.87065 0.45586 0.96656 0.0
C38 C 0.95908 0.45254 0.91286 0.0
C39 C 0.96187 0.31255 0.84509 0.0
C40 C 0.84502 0.45945 0.85236 0.0
O41 O 0.86728 0.33433 0.89906 0.0
O42 O 0.84171 0.38511 0.96463 0.0
C43 C 0.89709 0.40349 0.06231 0.0
N44 N 0.89844 0.4463 0.03318 0.0
C45 C 0.9367 0.49684 0.10246 0.0
C46 C 0.93563 0.45332 0.13321 0.0
C47 C 0.91582 0.40643 0.11299 0.0
C48 C 0.91742 0.49162 0.05227 0.0
H49 H 0.88133 0.36755 0.04726 0.0
C50 C 0.84219 0.3423 0.93813 0.0
O51 O 0.93201 0.33348 0.81515 0.0
O52 O 0.96575 0.32986 0.89285 0.0
N53 N 0.897 0.52453 0.97262 0.0
C54 C 0.89583 0.56275 0.9377 0.0
C55 C 0.91517 0.61182 0.9515 0.0
C56 C 0.93506 0.62128 1.00117 0.0
C57 C 0.9359 0.58136 0.03642 0.0
C58 C 0.91655 0.53306 0.02028 0.0
H59 H 0.88033 0.5559 0.89957 0.0
O60 O 0.96992 0.43475 0.86745 0.0
O61 O 0.92507 0.42894 0.93389 0.0
O62 O 0.87387 0.42729 0.8364 0.0
O63 O 0.83957 0.47096 0.89999 0.0
C64 C 0.95551 0.5875 0.08676 0.0
C65 C 0.95575 0.54531 0.11984 0.0
H66 H 0.94979 0.4555 0.17244 0.0
H67 H 0.91465 0.37274 0.1366 0.0
H68 H 0.91449 0.64239 0.92402 0.0
H69 H 0.94978 0.65926 0.01176 0.0
H70 H 0.9706 0.62446 0.10039 0.0
H71 H 0.97077 0.55054 0.15855 0.0
Mn72 Mn 0.64223 0.14203 0.13431 0.0
Mn73 Mn 0.69077 0.04967 0.06007 0.0
C74 C 0.60229 0.10332 0.06326 0.0
C75 C 0.59933 0.17087 0.20335 0.0
C76 C 0.71633 0.16387 0.05661 0.0
O77 O 0.69398 0.11707 0.18165 0.0
O78 O 0.7196 0.05152 0.1309 0.0
C79 C 0.66424 0.9539 0.11229 0.0
N80 N 0.66297 0.98306 0.06949 0.0
C81 C 0.62473 0.91388 0.01881 0.0
C82 C 0.62571 0.8831 0.06232 0.0
C83 C 0.64547 0.90324 0.10927 0.0
C84 C 0.64404 0.96403 0.02411 0.0
H85 H 0.67995 0.9689 0.14829 0.0
C86 C 0.71908 0.078 0.17372 0.0
O87 O 0.62915 0.20087 0.18248 0.0
O88 O 0.59551 0.12313 0.18598 0.0
N89 N 0.66452 0.04369 0.99132 0.0
C90 C 0.66573 0.07866 0.95315 0.0
C91 C 0.64645 0.06493 0.90402 0.0
C92 C 0.62655 0.01529 0.89447 0.0
C93 C 0.62566 0.98001 0.93435 0.0
C94 C 0.64497 0.99606 0.98271 0.0
H95 H 0.68123 0.11677 0.96007 0.0
O96 O 0.59138 0.14867 0.08111 0.0
O97 O 0.6363 0.08229 0.0869 0.0
O98 O 0.6874 0.17978 0.0887 0.0
O99 O 0.72186 0.11626 0.04512 0.0
C100 C 0.60603 0.92969 0.92812 0.0
C101 C 0.60572 0.89657 0.97028 0.0
H102 H 0.61153 0.84389 0.06007 0.0
H103 H 0.64658 0.87961 0.14295 0.0
H104 H 0.64716 0.09245 0.87349 0.0
H105 H 0.61186 1.00476 0.85645 0.0
H106 H 0.59097 0.91613 0.89113 0.0
H107 H 0.59068 0.8579 0.96499 0.0
Mn108 Mn 0.91883 0.88158 0.37397 0.0
Mn109 Mn 0.87049 0.95586 0.46649 0.0
C110 C 0.95885 0.95256 0.41271 0.0
C111 C 0.96164 0.81252 0.34501 0.0
C112 C 0.84478 0.95941 0.3523 0.0
O113 O 0.86707 0.83433 0.399 0.0
O114 O 0.84158 0.88509 0.46463 0.0
C115 C 0.89717 0.90352 0.56217 0.0
N116 N 0.89841 0.94633 0.53305 0.0
C117 C 0.93688 0.99687 0.60219 0.0
C118 C 0.93592 0.95334 0.63293 0.0
C119 C 0.91606 0.90645 0.61279 0.0
C120 C 0.91744 0.99165 0.55208 0.0
H121 H 0.88139 0.86757 0.54717 0.0
C122 C 0.84203 0.84228 0.43812 0.0
O123 O 0.93178 0.83342 0.31506 0.0
O124 O 0.96553 0.82985 0.39276 0.0
N125 N 0.89683 0.02455 0.47248 0.0
C126 C 0.89561 0.06274 0.43753 0.0
C127 C 0.915 0.11181 0.45126 0.0
C128 C 0.93501 0.12128 0.50087 0.0
C129 C 0.93591 0.08138 0.53613 0.0
C130 C 0.91649 0.03308 0.52008 0.0
H131 H 0.88003 0.05588 0.39944 0.0
O132 O 0.96974 0.93471 0.36734 0.0
O133 O 0.92485 0.92895 0.43373 0.0
O134 O 0.87364 0.92728 0.33632 0.0
O135 O 0.83933 0.9709 0.39994 0.0
C136 C 0.95567 0.08751 0.58641 0.0
C137 C 0.956 0.04533 0.61949 0.0
H138 H 0.9502 0.95552 0.67212 0.0
H139 H 0.91497 0.87276 0.6364 0.0
H140 H 0.91429 0.14236 0.42376 0.0
H141 H 0.94978 0.15925 0.5114 0.0
H142 H 0.97082 0.12446 0.59997 0.0
H143 H 0.97114 0.05056 0.65814 0.0
Mn144 Mn 0.14237 0.64223 0.13439 0.0
Mn145 Mn 0.1908 0.54977 0.06016 0.0
C146 C 0.10236 0.6034 0.06344 0.0
C147 C 0.09952 0.67113 0.20344 0.0
C148 C 0.21636 0.66396 0.05653 0.0
O149 O 0.19414 0.61728 0.1817 0.0
O150 O 0.21976 0.55175 0.13092 0.0
C151 C 0.16439 0.4541 0.11261 0.0
N152 N 0.16303 0.48318 0.06976 0.0
C153 C 0.1247 0.41392 0.01929 0.0
C154 C 0.12576 0.38322 0.06286 0.0
C155 C 0.14562 0.40345 0.10973 0.0
C156 C 0.14402 0.46407 0.02446 0.0
H157 H 0.18017 0.46916 0.14855 0.0
C158 C 0.21927 0.57824 0.17374 0.0
O159 O 0.12934 0.70112 0.18253 0.0
O160 O 0.09568 0.62339 0.1861 0.0
N161 N 0.16443 0.54367 0.99147 0.0
C162 C 0.16558 0.57856 0.95322 0.0
C163 C 0.14621 0.56473 0.90416 0.0
C164 C 0.12629 0.51508 0.89474 0.0
C165 C 0.12547 0.47987 0.93469 0.0
C166 C 0.14487 0.49602 0.98299 0.0
H167 H 0.1811 0.61667 0.96003 0.0
O168 O 0.09147 0.6488 0.08119 0.0
O169 O 0.13639 0.58244 0.08707 0.0
O170 O 0.18752 0.67991 0.08871 0.0
O171 O 0.22183 0.61634 0.04503 0.0
C172 C 0.10582 0.42956 0.92861 0.0
C173 C 0.10559 0.39652 0.97084 0.0
H174 H 0.11157 0.34401 0.06073 0.0
H175 H 0.14679 0.37988 0.14346 0.0
H176 H 0.14687 0.59219 0.87356 0.0
H177 H 0.11153 0.50448 0.85677 0.0
H178 H 0.09069 0.41593 0.89167 0.0
H179 H 0.09053 0.35784 0.96565 0.0
Mn180 Mn 0.41892 0.38156 0.3739 0.0
Mn181 Mn 0.37051 0.45578 0.46639 0.0
C182 C 0.45899 0.45243 0.41278 0.0
C183 C 0.46168 0.31245 0.34496 0.0
C184 C 0.34498 0.45948 0.35216 0.0
O185 O 0.36709 0.33433 0.39878 0.0
O186 O 0.34155 0.38504 0.46441 0.0
C187 C 0.39689 0.40336 0.56212 0.0
N188 N 0.39827 0.44618 0.53301 0.0
C189 C 0.43654 0.49667 0.60232 0.0
C190 C 0.43545 0.45313 0.63304 0.0
C191 C 0.41562 0.40626 0.61281 0.0
C192 C 0.41726 0.49149 0.55213 0.0
H193 H 0.38112 0.36743 0.54705 0.0
C194 C 0.342 0.34226 0.43785 0.0
O195 O 0.4319 0.33344 0.31497 0.0
O196 O 0.46554 0.32974 0.39273 0.0
N197 N 0.39689 0.52444 0.47248 0.0
C198 C 0.39577 0.56266 0.43756 0.0
C199 C 0.41514 0.61171 0.45139 0.0
C200 C 0.43502 0.62114 0.50107 0.0
C201 C 0.43581 0.58122 0.5363 0.0
C202 C 0.41643 0.53293 0.52015 0.0
H203 H 0.38028 0.55583 0.39943 0.0
O204 O 0.46989 0.43464 0.36739 0.0
O205 O 0.42492 0.42884 0.43373 0.0
O206 O 0.37384 0.42734 0.3362 0.0
O207 O 0.33947 0.47092 0.3998 0.0
C208 C 0.45542 0.58732 0.58666 0.0
C209 C 0.45562 0.54512 0.61972 0.0
H210 H 0.44961 0.45528 0.67228 0.0
H211 H 0.41443 0.37256 0.6364 0.0
H212 H 0.4145 0.64228 0.42391 0.0
H213 H 0.44976 0.65911 0.51167 0.0
H214 H 0.47053 0.62426 0.6003 0.0
H215 H 0.47064 0.55033 0.65843 0.0
Mn216 Mn 0.41899 0.88157 0.87385 0.0
Mn217 Mn 0.37063 0.95597 0.96623 0.0
C218 C 0.45906 0.95254 0.91251 0.0
C219 C 0.46178 0.81245 0.84503 0.0
C220 C 0.34502 0.95945 0.85201 0.0
O221 O 0.36719 0.83438 0.89887 0.0
O222 O 0.34166 0.88523 0.96439 0.0
C223 C 0.39709 0.90369 0.06203 0.0
N224 N 0.39843 0.94647 0.03285 0.0
C225 C 0.43677 0.99705 0.10205 0.0
C226 C 0.43571 0.95356 0.13284 0.0
C227 C 0.41586 0.90666 0.11269 0.0
C228 C 0.41744 0.9918 0.05189 0.0
H229 H 0.3813 0.86774 0.04702 0.0
C230 C 0.34211 0.8424 0.93793 0.0
O231 O 0.43196 0.83334 0.81502 0.0
O232 O 0.46564 0.82983 0.89276 0.0
N233 N 0.39701 0.02463 0.97221 0.0
C234 C 0.39588 0.06279 0.93722 0.0
C235 C 0.41526 0.11186 0.95095 0.0
C236 C 0.43518 0.12136 1.00061 0.0
C237 C 0.43599 0.0815 0.03591 0.0
C238 C 0.41659 0.03319 0.01985 0.0
H239 H 0.38036 0.05591 0.89911 0.0
O240 O 0.4699 0.93465 0.86714 0.0
O241 O 0.42504 0.92899 0.93359 0.0
O242 O 0.37386 0.92725 0.8361 0.0
O243 O 0.33956 0.971 0.89964 0.0
C244 C 0.45564 0.08767 0.08623 0.0
C245 C 0.45587 0.04552 0.11936 0.0
H246 H 0.44991 0.95576 0.17206 0.0
H247 H 0.4147 0.873 0.13633 0.0
H248 H 0.41461 0.14239 0.92342 0.0
H249 H 0.44994 0.15933 0.01114 0.0
H250 H 0.47078 0.12462 0.0998 0.0
H251 H 0.47093 0.05078 0.15805 0.0
Mn252 Mn 0.64232 0.64195 0.63451 0.0
Mn253 Mn 0.69078 0.54957 0.56024 0.0
C254 C 0.60228 0.60319 0.56356 0.0
C255 C 0.59949 0.67082 0.70359 0.0
C256 C 0.71631 0.66378 0.55667 0.0
O257 O 0.69413 0.61703 0.68179 0.0
O258 O 0.71973 0.5515 0.63102 0.0
C259 C 0.6644 0.45383 0.6126 0.0
N260 N 0.66304 0.48295 0.56978 0.0
C261 C 0.62473 0.41373 0.51923 0.0
C262 C 0.62581 0.38298 0.56277 0.0
C263 C 0.64565 0.40317 0.60966 0.0
C264 C 0.64404 0.46388 0.52445 0.0
H265 H 0.68017 0.46886 0.64855 0.0
C266 C 0.71924 0.57799 0.67383 0.0
O267 O 0.62929 0.70082 0.68267 0.0
O268 O 0.59566 0.62307 0.68625 0.0
N269 N 0.66443 0.54352 0.49155 0.0
C270 C 0.66556 0.57846 0.45335 0.0
C271 C 0.64619 0.56468 0.40427 0.0
C272 C 0.62629 0.51503 0.3948 0.0
C273 C 0.62549 0.47978 0.43471 0.0
C274 C 0.64488 0.49588 0.48302 0.0
H275 H 0.68106 0.61657 0.4602 0.0
O276 O 0.59141 0.64857 0.58137 0.0
O277 O 0.63632 0.58218 0.58715 0.0
O278 O 0.68743 0.67969 0.58882 0.0
O279 O 0.72182 0.61616 0.54518 0.0
C280 C 0.60586 0.42946 0.42857 0.0
C281 C 0.60564 0.39638 0.47076 0.0
H282 H 0.61162 0.34377 0.56059 0.0
H283 H 0.64682 0.37956 0.64336 0.0
H284 H 0.64684 0.59218 0.37371 0.0
H285 H 0.61154 0.50447 0.35682 0.0
H286 H 0.59073 0.41586 0.39162 0.0
H287 H 0.59059 0.35769 0.46553 0.0
C288 C 0.29153 0.26781 0.47749 0.0
C289 C 0.31527 0.29972 0.45699 0.0
C290 C 0.26497 0.23205 0.50524 0.0
C291 C 0.24246 0.20146 0.52894 0.0
C292 C 0.76972 0.53831 0.74829 0.0
C293 C 0.74597 0.55883 0.71639 0.0
C294 C 0.79629 0.51054 0.78404 0.0
C295 C 0.81883 0.48684 0.81462 0.0
C296 C 0.54615 0.04977 0.99752 0.0
C297 C 0.5718 0.07412 0.02751 0.0
C298 C 0.51528 0.01824 0.96598 0.0
C299 C 0.4896 0.98827 0.94166 0.0
C300 C 1.01636 0.74529 0.30163 0.0
C301 C 0.99251 0.77564 0.32387 0.0
C302 C 0.04479 0.71442 0.27071 0.0
C303 C 0.06864 0.69222 0.24034 0.0
C304 C 0.29629 0.01051 0.78367 0.0
C305 C 0.31883 0.98681 0.81425 0.0
C306 C 0.2697 0.03831 0.74795 0.0
C307 C 0.24594 0.05885 0.71608 0.0
C308 C 1.01526 0.51832 0.96629 0.0
C309 C 0.98957 0.48831 0.94203 0.0
C310 C 0.04611 0.54989 0.9978 0.0
C311 C 0.07187 0.57415 0.02775 0.0
C312 C 0.51627 0.24507 0.30161 0.0
C313 C 0.49248 0.27548 0.32386 0.0
C314 C 0.54463 0.21413 0.27067 0.0
C315 C 0.56846 0.19191 0.24028 0.0
C316 C 0.79158 0.76788 0.47787 0.0
C317 C 0.81531 0.79976 0.45732 0.0
C318 C 0.76502 0.73213 0.50564 0.0
C319 C 0.74249 0.70153 0.52932 0.0
C320 C 0.26975 0.5385 0.24816 0.0
C321 C 0.24599 0.55906 0.21629 0.0
C322 C 0.2963 0.51067 0.28388 0.0
C323 C 0.31882 0.48692 0.31444 0.0
C324 C 0.79169 0.26792 0.97785 0.0
C325 C 0.81545 0.29978 0.95731 0.0
C326 C 0.7651 0.2322 1.00562 0.0
C327 C 0.74254 0.20163 0.02929 0.0
C328 C 0.796 0.01048 0.284 0.0
C329 C 0.81855 0.98679 0.31458 0.0
C330 C 0.76945 0.03826 0.24823 0.0
C331 C 0.74575 0.05881 0.2163 0.0
C332 C 1.01515 0.01827 0.46603 0.0
C333 C 0.98935 0.98828 0.44189 0.0
C334 C 0.04612 0.04973 0.49748 0.0
C335 C 0.07178 0.07405 0.52749 0.0
C336 C 1.01652 0.24528 0.80165 0.0
C337 C 0.99271 0.27564 0.82394 0.0
C338 C 0.04489 0.21436 0.77067 0.0
C339 C 0.06868 0.19212 0.74026 0.0
C340 C 0.54481 0.71411 0.7709 0.0
C341 C 0.56863 0.69188 0.74052 0.0
C342 C 0.51642 0.74506 0.8018 0.0
C343 C 0.49261 0.77548 0.82399 0.0
C344 C 0.26507 0.73228 1.00546 0.0
C345 C 0.24254 0.7017 0.02915 0.0
C346 C 0.29163 0.76802 0.97769 0.0
C347 C 0.31537 0.7999 0.95715 0.0
C348 C 0.51525 0.51801 0.46635 0.0
C349 C 0.48949 0.48809 0.44206 0.0
C350 C 0.5461 0.54957 0.4979 0.0
C351 C 0.57175 0.57397 0.52785 0.0
loop_
_geom_bond_atom_site_label_1
_geom_bond_atom_site_label_2
_geom_bond_distance
_geom_bond_site_symmetry_2
_ccdc_geom_bond_type
Mn0 O5 2.095 . S
Mn0 O15 2.162 . S
Mn0 O16 2.297 . S
Mn0 O24 2.385 . S
Mn0 O25 2.209 . S
Mn0 O26 2.094 . S
Mn1 O6 2.121 . S
Mn1 N8 2.257 1_545 S
Mn1 N17 2.282 . S
Mn1 O25 2.215 . S
Mn1 O27 2.117 . S
C2 O24 1.234 . S
C2 O25 1.283 . S
C3 O15 1.281 . S
C3 O16 1.236 . S
C4 O26 1.240 . S
C4 O27 1.264 . S
O5 Mn0 2.095 . S
O5 C14 1.250 . S
O6 Mn1 2.121 . S
O6 C14 1.258 . S
C7 N8 1.326 . S
C7 C11 1.460 . S
C7 H13 0.929 . S
N8 Mn1 2.257 1_565 S
N8 C7 1.326 . S
N8 C12 1.362 . S
C9 C10 1.258 . S
C9 C12 1.431 . S
C9 C29 1.449 . S
C10 C9 1.258 . S
C10 C11 1.477 . S
C10 H30 0.931 . S
C11 C7 1.460 . S
C11 C10 1.477 . S
C11 H31 0.930 . S
C12 N8 1.362 . S
C12 C9 1.431 . S
C12 C22 1.476 . S
H13 C7 0.929 . S
C14 O5 1.250 . S
C14 O6 1.258 . S
O15 Mn0 2.162 . S
O15 C3 1.281 . S
O16 Mn0 2.297 . S
O16 C3 1.236 . S
N17 Mn1 2.282 . S
N17 C18 1.328 . S
N17 C22 1.318 1_545 S
C18 N17 1.328 . S
C18 C19 1.457 . S
C18 H23 0.929 . S
C19 C18 1.457 . S
C19 C20 1.291 . S
C19 H32 0.931 . S
C20 C19 1.291 . S
C20 C21 1.373 1_545 S
C20 H33 0.929 . S
C21 C20 1.373 1_565 S
C21 C22 1.396 . S
C21 C28 1.403 . S
C22 C12 1.476 . S
C22 N17 1.318 1_565 S
C22 C21 1.396 . S
H23 C18 0.929 . S
O24 Mn0 2.385 . S
O24 C2 1.234 . S
O25 Mn0 2.209 . S
O25 Mn1 2.215 . S
O25 C2 1.283 . S
O26 Mn0 2.094 . S
O26 C4 1.240 . S
O27 Mn1 2.117 . S
O27 C4 1.264 . S
C28 C21 1.403 . S
C28 C29 1.399 . S
C28 H34 0.929 . S
C29 C9 1.449 . S
C29 C28 1.399 . S
C29 H35 0.930 . S
H30 C10 0.931 . S
H31 C11 0.930 . S
H32 C19 0.931 . S
H33 C20 0.929 . S
H34 C28 0.929 . S
H35 C29 0.930 . S
Mn36 O41 2.095 . S
Mn36 O51 2.162 . S
Mn36 O52 2.297 . S
Mn36 O60 2.385 . S
Mn36 O61 2.209 . S
Mn36 O62 2.094 . S
Mn37 O42 2.121 . S
Mn37 N44 2.257 1_556 S
Mn37 N53 2.282 . S
Mn37 O61 2.215 . S
Mn37 O63 2.117 . S
C38 O60 1.234 . S
C38 O61 1.283 . S
C39 O51 1.281 . S
C39 O52 1.236 . S
C40 O62 1.240 . S
C40 O63 1.264 . S
O41 Mn36 2.095 . S
O41 C50 1.250 . S
O42 Mn37 2.121 . S
O42 C50 1.258 . S
C43 N44 1.326 . S
C43 C47 1.460 . S
C43 H49 0.929 . S
N44 Mn37 2.257 1_554 S
N44 C43 1.326 . S
N44 C48 1.362 . S
C45 C46 1.258 . S
C45 C48 1.431 . S
C45 C65 1.449 . S
C46 C45 1.258 . S
C46 C47 1.477 . S
C46 H66 0.931 . S
C47 C43 1.460 . S
C47 C46 1.477 . S
C47 H67 0.930 . S
C48 N44 1.362 . S
C48 C45 1.431 . S
C48 C58 1.476 . S
H49 C43 0.929 . S
C50 O41 1.250 . S
C50 O42 1.258 . S
O51 Mn36 2.162 . S
O51 C39 1.281 . S
O52 Mn36 2.297 . S
O52 C39 1.236 . S
N53 Mn37 2.282 . S
N53 C54 1.328 . S
N53 C58 1.318 1_556 S
C54 N53 1.328 . S
C54 C55 1.457 . S
C54 H59 0.929 . S
C55 C54 1.457 . S
C55 C56 1.291 . S
C55 H68 0.931 . S
C56 C55 1.291 . S
C56 C57 1.373 1_556 S
C56 H69 0.929 . S
C57 C56 1.373 1_554 S
C57 C58 1.396 . S
C57 C64 1.403 . S
C58 C48 1.476 . S
C58 N53 1.318 1_554 S
C58 C57 1.396 . S
H59 C54 0.929 . S
O60 Mn36 2.385 . S
O60 C38 1.234 . S
O61 Mn36 2.209 . S
O61 Mn37 2.215 . S
O61 C38 1.283 . S
O62 Mn36 2.094 . S
O62 C40 1.240 . S
O63 Mn37 2.117 . S
O63 C40 1.264 . S
C64 C57 1.403 . S
C64 C65 1.399 . S
C64 H70 0.929 . S
C65 C45 1.449 . S
C65 C64 1.399 . S
C65 H71 0.930 . S
H66 C46 0.931 . S
H67 C47 0.930 . S
H68 C55 0.931 . S
H69 C56 0.929 . S
H70 C64 0.929 . S
H71 C65 0.930 . S
Mn72 O77 2.095 . S
Mn72 O87 2.162 . S
Mn72 O88 2.297 . S
Mn72 O96 2.385 . S
Mn72 O97 2.209 . S
Mn72 O98 2.094 . S
Mn73 O78 2.121 . S
Mn73 N80 2.257 1_545 S
Mn73 N89 2.282 1_554 S
Mn73 O97 2.215 . S
Mn73 O99 2.117 . S
C74 O96 1.234 . S
C74 O97 1.283 . S
C75 O87 1.281 . S
C75 O88 1.236 . S
C76 O98 1.240 . S
C76 O99 1.264 . S
O77 Mn72 2.095 . S
O77 C86 1.250 . S
O78 Mn73 2.121 . S
O78 C86 1.258 . S
C79 N80 1.326 . S
C79 C83 1.460 . S
C79 H85 0.929 . S
N80 Mn73 2.257 1_565 S
N80 C79 1.326 . S
N80 C84 1.362 . S
C81 C82 1.258 1_556 S
C81 C84 1.431 1_556 S
C81 C101 1.449 . S
C82 C81 1.258 1_554 S
C82 C83 1.477 . S
C82 H102 0.931 . S
C83 C79 1.460 . S
C83 C82 1.477 . S
C83 H103 0.930 . S
C84 N80 1.362 . S
C84 C81 1.431 1_554 S
C84 C94 1.476 1_554 S
H85 C79 0.929 . S
C86 O77 1.250 . S
C86 O78 1.258 . S
O87 Mn72 2.162 . S
O87 C75 1.281 . S
O88 Mn72 2.297 . S
O88 C75 1.236 . S
N89 Mn73 2.282 1_556 S
N89 C90 1.328 . S
N89 C94 1.318 1_545 S
C90 N89 1.328 . S
C90 C91 1.457 . S
C90 H95 0.929 . S
C91 C90 1.457 . S
C91 C92 1.291 . S
C91 H104 0.931 . S
C92 C91 1.291 . S
C92 C93 1.373 1_545 S
C92 H105 0.929 . S
C93 C92 1.373 1_565 S
C93 C94 1.396 . S
C93 C100 1.403 . S
C94 C84 1.476 1_556 S
C94 N89 1.318 1_565 S
C94 C93 1.396 . S
H95 C90 0.929 . S
O96 Mn72 2.385 . S
O96 C74 1.234 . S
O97 Mn72 2.209 . S
O97 Mn73 2.215 . S
O97 C74 1.283 . S
O98 Mn72 2.094 . S
O98 C76 1.240 . S
O99 Mn73 2.117 . S
O99 C76 1.264 . S
C100 C93 1.403 . S
C100 C101 1.399 . S
C100 H106 0.929 . S
C101 C81 1.449 . S
C101 C100 1.399 . S
C101 H107 0.930 . S
H102 C82 0.931 . S
H103 C83 0.930 . S
H104 C91 0.931 . S
H105 C92 0.929 . S
H106 C100 0.929 . S
H107 C101 0.930 . S
Mn108 O113 2.095 . S
Mn108 O123 2.162 . S
Mn108 O124 2.297 . S
Mn108 O132 2.385 . S
Mn108 O133 2.209 . S
Mn108 O134 2.094 . S
Mn109 O114 2.121 . S
Mn109 N116 2.257 . S
Mn109 N125 2.282 1_565 S
Mn109 O133 2.215 . S
Mn109 O135 2.117 . S
C110 O132 1.234 . S
C110 O133 1.283 . S
C111 O123 1.281 . S
C111 O124 1.236 . S
C112 O134 1.240 . S
C112 O135 1.264 . S
O113 Mn108 2.095 . S
O113 C122 1.250 . S
O114 Mn109 2.121 . S
O114 C122 1.258 . S
C115 N116 1.326 . S
C115 C119 1.460 . S
C115 H121 0.929 . S
N116 Mn109 2.257 . S
N116 C115 1.326 . S
N116 C120 1.362 . S
C117 C118 1.258 1_545 S
C117 C120 1.431 1_545 S
C117 C137 1.449 . S
C118 C117 1.258 1_565 S
C118 C119 1.477 . S
C118 H138 0.931 . S
C119 C115 1.460 . S
C119 C118 1.477 . S
C119 H139 0.930 . S
C120 N116 1.362 . S
C120 C117 1.431 1_565 S
C120 C130 1.476 1_565 S
H121 C115 0.929 . S
C122 O113 1.250 . S
C122 O114 1.258 . S
O123 Mn108 2.162 . S
O123 C111 1.281 . S
O124 Mn108 2.297 . S
O124 C111 1.236 . S
N125 Mn109 2.282 1_545 S
N125 C126 1.328 . S
N125 C130 1.318 . S
C126 N125 1.328 . S
C126 C127 1.457 . S
C126 H131 0.929 . S
C127 C126 1.457 . S
C127 C128 1.291 . S
C127 H140 0.931 . S
C128 C127 1.291 . S
C128 C129 1.373 . S
C128 H141 0.929 . S
C129 C128 1.373 . S
C129 C130 1.396 . S
C129 C136 1.403 . S
C130 C120 1.476 1_545 S
C130 N125 1.318 . S
C130 C129 1.396 . S
H131 C126 0.929 . S
O132 Mn108 2.385 . S
O132 C110 1.234 . S
O133 Mn108 2.209 . S
O133 Mn109 2.215 . S
O133 C110 1.283 . S
O134 Mn108 2.094 . S
O134 C112 1.240 . S
O135 Mn109 2.117 . S
O135 C112 1.264 . S
C136 C129 1.403 . S
C136 C137 1.399 . S
C136 H142 0.929 . S
C137 C117 1.449 . S
C137 C136 1.399 . S
C137 H143 0.930 . S
H138 C118 0.931 . S
H139 C119 0.930 . S
H140 C127 0.931 . S
H141 C128 0.929 . S
H142 C136 0.929 . S
H143 C137 0.930 . S
Mn144 O149 2.095 . S
Mn144 O159 2.162 . S
Mn144 O160 2.297 . S
Mn144 O168 2.385 . S
Mn144 O169 2.209 . S
Mn144 O170 2.094 . S
Mn145 O150 2.121 . S
Mn145 N152 2.257 . S
Mn145 N161 2.282 1_554 S
Mn145 O169 2.215 . S
Mn145 O171 2.117 . S
C146 O168 1.234 . S
C146 O169 1.283 . S
C147 O159 1.281 . S
C147 O160 1.236 . S
C148 O170 1.240 . S
C148 O171 1.264 . S
O149 Mn144 2.095 . S
O149 C158 1.250 . S
O150 Mn145 2.121 . S
O150 C158 1.258 . S
C151 N152 1.326 . S
C151 C155 1.460 . S
C151 H157 0.929 . S
N152 Mn145 2.257 . S
N152 C151 1.326 . S
N152 C156 1.362 . S
C153 C154 1.258 1_556 S
C153 C156 1.431 1_556 S
C153 C173 1.449 . S
C154 C153 1.258 1_554 S
C154 C155 1.477 . S
C154 H174 0.931 . S
C155 C151 1.460 . S
C155 C154 1.477 . S
C155 H175 0.930 . S
C156 N152 1.362 . S
C156 C153 1.431 1_554 S
C156 C166 1.476 1_554 S
H157 C151 0.929 . S
C158 O149 1.250 . S
C158 O150 1.258 . S
O159 Mn144 2.162 . S
O159 C147 1.281 . S
O160 Mn144 2.297 . S
O160 C147 1.236 . S
N161 Mn145 2.282 1_556 S
N161 C162 1.328 . S
N161 C166 1.318 . S
C162 N161 1.328 . S
C162 C163 1.457 . S
C162 H167 0.929 . S
C163 C162 1.457 . S
C163 C164 1.291 . S
C163 H176 0.931 . S
C164 C163 1.291 . S
C164 C165 1.373 . S
C164 H177 0.929 . S
C165 C164 1.373 . S
C165 C166 1.396 . S
C165 C172 1.403 . S
C166 C156 1.476 1_556 S
C166 N161 1.318 . S
C166 C165 1.396 . S
H167 C162 0.929 . S
O168 Mn144 2.385 . S
O168 C146 1.234 . S
O169 Mn144 2.209 . S
O169 Mn145 2.215 . S
O169 C146 1.283 . S
O170 Mn144 2.094 . S
O170 C148 1.240 . S
O171 Mn145 2.117 . S
O171 C148 1.264 . S
C172 C165 1.403 . S
C172 C173 1.399 . S
C172 H178 0.929 . S
C173 C153 1.449 . S
C173 C172 1.399 . S
C173 H179 0.930 . S
H174 C154 0.931 . S
H175 C155 0.930 . S
H176 C163 0.931 . S
H177 C164 0.929 . S
H178 C172 0.929 . S
H179 C173 0.930 . S
Mn180 O185 2.095 . S
Mn180 O195 2.162 . S
Mn180 O196 2.297 . S
Mn180 O204 2.385 . S
Mn180 O205 2.209 . S
Mn180 O206 2.094 . S
Mn181 O186 2.121 . S
Mn181 N188 2.257 . S
Mn181 N197 2.282 . S
Mn181 O205 2.215 . S
Mn181 O207 2.117 . S
C182 O204 1.234 . S
C182 O205 1.283 . S
C183 O195 1.281 . S
C183 O196 1.236 . S
C184 O206 1.240 . S
C184 O207 1.264 . S
O185 Mn180 2.095 . S
O185 C194 1.250 . S
O186 Mn181 2.121 . S
O186 C194 1.258 . S
C187 N188 1.326 . S
C187 C191 1.460 . S
C187 H193 0.929 . S
N188 Mn181 2.257 . S
N188 C187 1.326 . S
N188 C192 1.362 . S
C189 C190 1.258 . S
C189 C192 1.431 . S
C189 C209 1.449 . S
C190 C189 1.258 . S
C190 C191 1.477 . S
C190 H210 0.931 . S
C191 C187 1.460 . S
C191 C190 1.477 . S
C191 H211 0.930 . S
C192 N188 1.362 . S
C192 C189 1.431 . S
C192 C202 1.476 . S
H193 C187 0.929 . S
C194 O185 1.250 . S
C194 O186 1.258 . S
O195 Mn180 2.162 . S
O195 C183 1.281 . S
O196 Mn180 2.297 . S
O196 C183 1.236 . S
N197 Mn181 2.282 . S
N197 C198 1.328 . S
N197 C202 1.318 . S
C198 N197 1.328 . S
C198 C199 1.457 . S
C198 H203 0.929 . S
C199 C198 1.457 . S
C199 C200 1.291 . S
C199 H212 0.931 . S
C200 C199 1.291 . S
C200 C201 1.373 . S
C200 H213 0.929 . S
C201 C200 1.373 . S
C201 C202 1.396 . S
C201 C208 1.403 . S
C202 C192 1.476 . S
C202 N197 1.318 . S
C202 C201 1.396 . S
H203 C198 0.929 . S
O204 Mn180 2.385 . S
O204 C182 1.234 . S
O205 Mn180 2.209 . S
O205 Mn181 2.215 . S
O205 C182 1.283 . S
O206 Mn180 2.094 . S
O206 C184 1.240 . S
O207 Mn181 2.117 . S
O207 C184 1.264 . S
C208 C201 1.403 . S
C208 C209 1.399 . S
C208 H214 0.929 . S
C209 C189 1.449 . S
C209 C208 1.399 . S
C209 H215 0.930 . S
H210 C190 0.931 . S
H211 C191 0.930 . S
H212 C199 0.931 . S
H213 C200 0.929 . S
H214 C208 0.929 . S
H215 C209 0.930 . S
Mn216 O221 2.095 . S
Mn216 O231 2.162 . S
Mn216 O232 2.297 . S
Mn216 O240 2.385 . S
Mn216 O241 2.209 . S
Mn216 O242 2.094 . S
Mn217 O222 2.121 . S
Mn217 N224 2.257 1_556 S
Mn217 N233 2.282 1_565 S
Mn217 O241 2.215 . S
Mn217 O243 2.117 . S
C218 O240 1.234 . S
C218 O241 1.283 . S
C219 O231 1.281 . S
C219 O232 1.236 . S
C220 O242 1.240 . S
C220 O243 1.264 . S
O221 Mn216 2.095 . S
O221 C230 1.250 . S
O222 Mn217 2.121 . S
O222 C230 1.258 . S
C223 N224 1.326 . S
C223 C227 1.460 . S
C223 H229 0.929 . S
N224 Mn217 2.257 1_554 S
N224 C223 1.326 . S
N224 C228 1.362 . S
C225 C226 1.258 1_545 S
C225 C228 1.431 1_545 S
C225 C245 1.449 . S
C226 C225 1.258 1_565 S
C226 C227 1.477 . S
C226 H246 0.931 . S
C227 C223 1.460 . S
C227 C226 1.477 . S
C227 H247 0.930 . S
C228 N224 1.362 . S
C228 C225 1.431 1_565 S
C228 C238 1.476 1_565 S
H229 C223 0.929 . S
C230 O221 1.250 . S
C230 O222 1.258 . S
O231 Mn216 2.162 . S
O231 C219 1.281 . S
O232 Mn216 2.297 . S
O232 C219 1.236 . S
N233 Mn217 2.282 1_545 S
N233 C234 1.328 . S
N233 C238 1.318 1_556 S
C234 N233 1.328 . S
C234 C235 1.457 . S
C234 H239 0.929 . S
C235 C234 1.457 . S
C235 C236 1.291 . S
C235 H248 0.931 . S
C236 C235 1.291 . S
C236 C237 1.373 1_556 S
C236 H249 0.929 . S
C237 C236 1.373 1_554 S
C237 C238 1.396 . S
C237 C244 1.403 . S
C238 C228 1.476 1_545 S
C238 N233 1.318 1_554 S
C238 C237 1.396 . S
H239 C234 0.929 . S
O240 Mn216 2.385 . S
O240 C218 1.234 . S
O241 Mn216 2.209 . S
O241 Mn217 2.215 . S
O241 C218 1.283 . S
O242 Mn216 2.094 . S
O242 C220 1.240 . S
O243 Mn217 2.117 . S
O243 C220 1.264 . S
C244 C237 1.403 . S
C244 C245 1.399 . S
C244 H250 0.929 . S
C245 C225 1.449 . S
C245 C244 1.399 . S
C245 H251 0.930 . S
H246 C226 0.931 . S
H247 C227 0.930 . S
H248 C235 0.931 . S
H249 C236 0.929 . S
H250 C244 0.929 . S
H251 C245 0.930 . S
Mn252 O257 2.095 . S
Mn252 O267 2.162 . S
Mn252 O268 2.297 . S
Mn252 O276 2.385 . S
Mn252 O277 2.209 . S
Mn252 O278 2.094 . S
Mn253 O258 2.121 . S
Mn253 N260 2.257 . S
Mn253 N269 2.282 . S
Mn253 O277 2.215 . S
Mn253 O279 2.117 . S
C254 O276 1.234 . S
C254 O277 1.283 . S
C255 O267 1.281 . S
C255 O268 1.236 . S
C256 O278 1.240 . S
C256 O279 1.264 . S
O257 Mn252 2.095 . S
O257 C266 1.250 . S
O258 Mn253 2.121 . S
O258 C266 1.258 . S
C259 N260 1.326 . S
C259 C263 1.460 . S
C259 H265 0.929 . S
N260 Mn253 2.257 . S
N260 C259 1.326 . S
N260 C264 1.362 . S
C261 C262 1.258 . S
C261 C264 1.431 . S
C261 C281 1.449 . S
C262 C261 1.258 . S
C262 C263 1.477 . S
C262 H282 0.931 . S
C263 C259 1.460 . S
C263 C262 1.477 . S
C263 H283 0.930 . S
C264 N260 1.362 . S
C264 C261 1.431 . S
C264 C274 1.476 . S
H265 C259 0.929 . S
C266 O257 1.250 . S
C266 O258 1.258 . S
O267 Mn252 2.162 . S
O267 C255 1.281 . S
O268 Mn252 2.297 . S
O268 C255 1.236 . S
N269 Mn253 2.282 . S
N269 C270 1.328 . S
N269 C274 1.318 . S
C270 N269 1.328 . S
C270 C271 1.457 . S
C270 H275 0.929 . S
C271 C270 1.457 . S
C271 C272 1.291 . S
C271 H284 0.931 . S
C272 C271 1.291 . S
C272 C273 1.373 . S
C272 H285 0.929 . S
C273 C272 1.373 . S
C273 C274 1.396 . S
C273 C280 1.403 . S
C274 C264 1.476 . S
C274 N269 1.318 . S
C274 C273 1.396 . S
H275 C270 0.929 . S
O276 Mn252 2.385 . S
O276 C254 1.234 . S
O277 Mn252 2.209 . S
O277 Mn253 2.215 . S
O277 C254 1.283 . S
O278 Mn252 2.094 . S
O278 C256 1.240 . S
O279 Mn253 2.117 . S
O279 C256 1.264 . S
C280 C273 1.403 . S
C280 C281 1.399 . S
C280 H286 0.929 . S
C281 C261 1.449 . S
C281 C280 1.399 . S
C281 H287 0.930 . S
H282 C262 0.931 . S
H283 C263 0.930 . S
H284 C271 0.931 . S
H285 C272 0.929 . S
H286 C280 0.929 . S
H287 C281 0.930 . S
C288 C289 1.170 . S
C288 C290 1.380 . S
C289 C288 1.170 . S
C290 C288 1.380 . S
C290 C291 1.170 . S
C291 C290 1.170 . S
C292 C293 1.170 . S
C292 C294 1.380 . S
C293 C292 1.170 . S
C294 C292 1.380 . S
C294 C295 1.170 . S
C295 C294 1.170 . S
C296 C297 1.170 . S
C296 C298 1.380 1_544 S
C297 C296 1.170 . S
C298 C296 1.380 1_566 S
C298 C299 1.170 . S
C299 C298 1.170 . S
C300 C301 1.170 . S
C300 C302 1.380 1_655 S
C301 C300 1.170 . S
C302 C300 1.380 1_455 S
C302 C303 1.170 . S
C303 C302 1.170 . S
C304 C305 1.170 . S
C304 C306 1.380 1_565 S
C305 C304 1.170 . S
C306 C304 1.380 1_545 S
C306 C307 1.170 . S
C307 C306 1.170 . S
C308 C309 1.170 . S
C308 C310 1.380 1_656 S
C309 C308 1.170 . S
C310 C308 1.380 1_454 S
C310 C311 1.170 . S
C311 C310 1.170 . S
C312 C313 1.170 . S
C312 C314 1.380 . S
C313 C312 1.170 . S
C314 C312 1.380 . S
C314 C315 1.170 . S
C315 C314 1.170 . S
C316 C317 1.170 . S
C316 C318 1.380 . S
C317 C316 1.170 . S
C318 C316 1.380 . S
C318 C319 1.170 . S
C319 C318 1.170 . S
C320 C321 1.170 . S
C320 C322 1.380 . S
C321 C320 1.170 . S
C322 C320 1.380 . S
C322 C323 1.170 . S
C323 C322 1.170 . S
C324 C325 1.170 . S
C324 C326 1.380 1_556 S
C325 C324 1.170 . S
C326 C324 1.380 1_554 S
C326 C327 1.170 . S
C327 C326 1.170 . S
C328 C329 1.170 . S
C328 C330 1.380 1_565 S
C329 C328 1.170 . S
C330 C328 1.380 1_545 S
C330 C331 1.170 . S
C331 C330 1.170 . S
C332 C333 1.170 . S
C332 C334 1.380 1_665 S
C333 C332 1.170 . S
C334 C332 1.380 1_445 S
C334 C335 1.170 . S
C335 C334 1.170 . S
C336 C337 1.170 . S
C336 C338 1.380 1_655 S
C337 C336 1.170 . S
C338 C336 1.380 1_455 S
C338 C339 1.170 . S
C339 C338 1.170 . S
C340 C341 1.170 . S
C340 C342 1.380 . S
C341 C340 1.170 . S
C342 C340 1.380 . S
C342 C343 1.170 . S
C343 C342 1.170 . S
C344 C345 1.170 . S
C344 C346 1.380 1_554 S
C345 C344 1.170 . S
C346 C344 1.380 1_556 S
C346 C347 1.170 . S
C347 C346 1.170 . S
C348 C349 1.170 . S
C348 C350 1.380 . S
C349 C348 1.170 . S
C350 C348 1.380 . S
C350 C351 1.170 . S
C351 C350 1.170 . S
C289 C194 1.466 . S
C291 C4 1.522 . S
C293 C266 1.472 . S
C295 C40 1.522 . S
C297 C74 1.511 . S
C299 C218 1.509 . S
C301 C111 1.521 . S
C303 C147 1.529 . S
C305 C220 1.525 . S
C307 C14 1.436 . S
C309 C38 1.517 . S
C311 C146 1.508 . S
C313 C183 1.524 . S
C315 C75 1.533 . S
C317 C122 1.456 . S
C319 C256 1.522 . S
C321 C158 1.465 . S
C323 C184 1.523 . S
C325 C50 1.436 . S
C327 C76 1.525 . S
C329 C112 1.522 . S
C331 C86 1.457 . S
C333 C110 1.507 . S
C335 C2 1.514 . S
C337 C39 1.525 . S
C339 C3 1.523 . S
C341 C255 1.534 . S
C343 C219 1.525 . S
C345 C148 1.522 . S
C347 C230 1.457 . S
C349 C182 1.517 . S
C351 C254 1.509 . S
