# Generated by pormake.
# Topology acs-h, (5)-cn, num edge types: 1
# Building blocks:
#     Node 0, Type 0, BuildingBlock: XOMCOT_clean_sbu_1, # of connection points: 5
#     Node 1, Type 0, BuildingBlock: XOMCOT_clean_sbu_1, # of connection points: 5
#     Node 2, Type 0, BuildingBlock: XOMCOT_clean_sbu_1, # of connection points: 5
#     Node 3, Type 0, BuildingBlock: XOMCOT_clean_sbu_1, # of connection points: 5
#     Node 4, Type 0, BuildingBlock: XOMCOT_clean_sbu_1, # of connection points: 5
#     Node 5, Type 0, BuildingBlock: XOMCOT_clean_sbu_1, # of connection points: 5
#     Node 6, Type 0, BuildingBlock: XOMCOT_clean_sbu_1, # of connection points: 5
#     Node 7, Type 0, BuildingBlock: XOMCOT_clean_sbu_1, # of connection points: 5
#     Node 8, Type 0, BuildingBlock: XOMCOT_clean_sbu_1, # of connection points: 5
#     Node 9, Type 0, BuildingBlock: XOMCOT_clean_sbu_1, # of connection points: 5
#     Node 10, Type 0, BuildingBlock: XOMCOT_clean_sbu_1, # of connection points: 5
#     Node 11, Type 0, BuildingBlock: XOMCOT_clean_sbu_1, # of connection points: 5
#     Edge 12, Type (0, 0), BuildingBlock: EZIPEK_clean_linker_0, # of connection points: 2
#     Edge 13, Type (0, 0), BuildingBlock: EZIPEK_clean_linker_0, # of connection points: 2
#     Edge 14, Type (0, 0), BuildingBlock: EZIPEK_clean_linker_0, # of connection points: 2
#     Edge 15, Type (0, 0), BuildingBlock: EZIPEK_clean_linker_0, # of connection points: 2
#     Edge 16, Type (0, 0), BuildingBlock: EZIPEK_clean_linker_0, # of connection points: 2
#     Edge 17, Type (0, 0), BuildingBlock: EZIPEK_clean_linker_0, # of connection points: 2
#     Edge 18, Type (0, 0), BuildingBlock: EZIPEK_clean_linker_0, # of connection points: 2
#     Edge 19, Type (0, 0), BuildingBlock: EZIPEK_clean_linker_0, # of connection points: 2
#     Edge 20, Type (0, 0), BuildingBlock: EZIPEK_clean_linker_0, # of connection points: 2
#     Edge 21, Type (0, 0), BuildingBlock: EZIPEK_clean_linker_0, # of connection points: 2
#     Edge 22, Type (0, 0), BuildingBlock: EZIPEK_clean_linker_0, # of connection points: 2
#     Edge 23, Type (0, 0), BuildingBlock: EZIPEK_clean_linker_0, # of connection points: 2
#     Edge 24, Type (0, 0), BuildingBlock: EZIPEK_clean_linker_0, # of connection points: 2
#     Edge 25, Type (0, 0), BuildingBlock: EZIPEK_clean_linker_0, # of connection points: 2
#     Edge 26, Type (0, 0), BuildingBlock: EZIPEK_clean_linker_0, # of connection points: 2
#     Edge 27, Type (0, 0), BuildingBlock: EZIPEK_clean_linker_0, # of connection points: 2
#     Edge 28, Type (0, 0), BuildingBlock: EZIPEK_clean_linker_0, # of connection points: 2
#     Edge 29, Type (0, 0), BuildingBlock: EZIPEK_clean_linker_0, # of connection points: 2
#     Edge 30, Type (0, 0), BuildingBlock: EZIPEK_clean_linker_0, # of connection points: 2
#     Edge 31, Type (0, 0), BuildingBlock: EZIPEK_clean_linker_0, # of connection points: 2
#     Edge 32, Type (0, 0), BuildingBlock: EZIPEK_clean_linker_0, # of connection points: 2
#     Edge 33, Type (0, 0), BuildingBlock: EZIPEK_clean_linker_0, # of connection points: 2
#     Edge 34, Type (0, 0), BuildingBlock: EZIPEK_clean_linker_0, # of connection points: 2
#     Edge 35, Type (0, 0), BuildingBlock: EZIPEK_clean_linker_0, # of connection points: 2
#     Edge 36, Type (0, 0), BuildingBlock: EZIPEK_clean_linker_0, # of connection points: 2
#     Edge 37, Type (0, 0), BuildingBlock: EZIPEK_clean_linker_0, # of connection points: 2
#     Edge 38, Type (0, 0), BuildingBlock: EZIPEK_clean_linker_0, # of connection points: 2
#     Edge 39, Type (0, 0), BuildingBlock: EZIPEK_clean_linker_0, # of connection points: 2
#     Edge 40, Type (0, 0), BuildingBlock: EZIPEK_clean_linker_0, # of connection points: 2
#     Edge 41, Type (0, 0), BuildingBlock: EZIPEK_clean_linker_0, # of connection points: 2
# Relax obj value: 0.914
# Max RMSD: 0.280
# Mean RMSD: 0.280
data_MOF--net-acs-h--node1-XOMCOT_clean_sbu_1--edge1-EZIPEK_clean_linker_0
_symmetry_space_group_name_H-M    P1
_symmetry_Int_Tables_number       1
_symmetry_cell_setting            triclinic
loop_
_symmetry_equiv_pos_as_xyz
'x, y, z'
_cell_length_a     37.165659
_cell_length_b     37.091591
_cell_length_c     30.205258
_cell_angle_alpha  90.138549
_cell_angle_beta   89.851073
_cell_angle_gamma 120.08702
loop_
_atom_site_label
_atom_site_type_symbol
_atom_site_fract_x
_atom_site_fract_y
_atom_site_fract_z
_atom_type_partial_charge
C0 C 0.55107 0.16745 0.01023 0.0
C1 C 0.59207 0.17758 0.00684 0.0
N2 N 0.61141 0.19707 0.04448 0.0
N3 N 0.54477 0.17956 0.0503 0.0
C4 C 0.58244 0.19863 0.06971 0.0
H5 H 0.52696 0.15027 0.98617 0.0
Co6 Co 0.49458 0.16445 0.07799 0.0
C7 C 0.52763 0.17656 0.17 0.0
O8 O 0.5191 0.20599 0.17982 0.0
N9 N 0.44416 0.14895 0.10576 0.0
C10 C 0.3887 0.11729 0.14879 0.0
C11 C 0.4216 0.1152 0.13107 0.0
C12 C 0.42369 0.17036 0.10757 0.0
N13 N 0.38938 0.15202 0.1338 0.0
O14 O 0.51492 0.22145 0.09159 0.0
H15 H 0.42952 0.09144 0.1378 0.0
H16 H 0.43553 0.20006 0.09169 0.0
O17 O 0.51734 0.15819 0.13269 0.0
C18 C 0.51724 0.24531 0.0603 0.0
O19 O 0.5013 0.22922 0.02151 0.0
N20 N 0.47608 0.10929 0.0625 0.0
C21 C 0.47043 0.04387 0.01326 0.0
C22 C 0.49465 0.05693 0.05154 0.0
C23 C 0.4969 0.08961 0.07605 0.0
C24 C 0.44889 0.09412 0.02797 0.0
C25 C 0.44511 0.06066 0.0029 0.0
H26 H 0.5191 0.10161 0.1027 0.0
H27 H 0.4332 0.11052 0.01732 0.0
H28 H 0.58833 0.21156 0.10271 0.0
H29 H 0.60633 0.17027 0.97961 0.0
H30 H 0.36818 0.09619 0.17379 0.0
H31 H 0.51397 0.04389 0.06063 0.0
H32 H 0.42555 0.05047 0.97375 0.0
C33 C 0.81862 0.37509 0.06091 0.0
C34 C 0.8056 0.40314 0.05112 0.0
N35 N 0.80121 0.41877 0.08962 0.0
N36 N 0.82177 0.37302 0.10524 0.0
C37 C 0.81113 0.40029 0.12158 0.0
H38 H 0.82669 0.35846 0.03722 0.0
Co39 Co 0.83981 0.34178 0.13654 0.0
C40 C 0.7988 0.34858 0.2196 0.0
O41 O 0.76683 0.31065 0.21652 0.0
N42 N 0.85796 0.31012 0.16812 0.0
C43 C 0.89033 0.27632 0.19056 0.0
C44 C 0.89342 0.30833 0.16466 0.0
C45 C 0.83428 0.27925 0.19664 0.0
N46 N 0.85303 0.25838 0.21045 0.0
O47 O 0.78481 0.29603 0.13423 0.0
H48 H 0.91948 0.32765 0.14353 0.0
H49 H 0.80278 0.27039 0.2055 0.0
O50 O 0.82887 0.3615 0.192 0.0
C51 C 0.77735 0.26663 0.1074 0.0
O52 O 0.8084 0.26404 0.08998 0.0
N53 N 0.89332 0.38676 0.13326 0.0
C54 C 0.953 0.45748 0.09058 0.0
C55 C 0.93576 0.461 0.13052 0.0
C56 C 0.90607 0.42485 0.15201 0.0
C57 C 0.91235 0.38303 0.09637 0.0
C58 C 0.94327 0.41811 0.07511 0.0
H59 H 0.89008 0.42807 0.18029 0.0
H60 H 0.9001 0.35296 0.08051 0.0
H61 H 0.81113 0.40756 0.1562 0.0
H62 H 0.80041 0.41184 0.0186 0.0
H63 H 0.91282 0.26604 0.19333 0.0
H64 H 0.94267 0.49124 0.14292 0.0
H65 H 0.9558 0.41463 0.044 0.0
C66 C 0.64647 0.48892 0.05273 0.0
C67 C 0.62668 0.44907 0.03584 0.0
N68 N 0.61801 0.42264 0.06985 0.0
N69 N 0.64968 0.48713 0.09706 0.0
C70 C 0.63271 0.44628 0.10639 0.0
H71 H 0.65615 0.51728 0.03427 0.0
Co72 Co 0.66798 0.53175 0.13554 0.0
C73 C 0.62403 0.49412 0.22138 0.0
O74 O 0.62167 0.52711 0.23255 0.0
N75 N 0.68753 0.57727 0.17401 0.0
C76 C 0.70668 0.63666 0.21045 0.0
C77 C 0.68547 0.61271 0.17408 0.0
C78 C 0.71032 0.5807 0.21005 0.0
N79 N 0.72199 0.61598 0.23262 0.0
O80 O 0.7163 0.52829 0.14591 0.0
H81 H 0.66983 0.62105 0.1496 0.0
H82 H 0.71781 0.55729 0.22033 0.0
O83 O 0.64201 0.49362 0.18545 0.0
C84 C 0.74139 0.5311 0.11587 0.0
O85 O 0.73907 0.54557 0.07695 0.0
N86 N 0.61914 0.53279 0.12285 0.0
C87 C 0.54869 0.51627 0.07551 0.0
C88 C 0.54595 0.49016 0.10973 0.0
C89 C 0.58162 0.49824 0.13198 0.0
C90 C 0.62179 0.56026 0.09123 0.0
C91 C 0.58654 0.55268 0.06705 0.0
H92 H 0.57924 0.47297 0.15123 0.0
H93 H 0.65193 0.58549 0.0813 0.0
H94 H 0.62906 0.43364 0.1394 0.0
H95 H 0.61777 0.44003 0.00174 0.0
H96 H 0.71051 0.66655 0.21989 0.0
H97 H 0.51733 0.46113 0.1158 0.0
H98 H 0.5895 0.57286 0.03975 0.0
C99 C 0.75952 0.42337 0.48724 0.0
C100 C 0.75291 0.38343 0.48828 0.0
N101 N 0.77409 0.37921 0.45443 0.0
N102 N 0.78408 0.44373 0.45246 0.0
C103 C 0.79365 0.41639 0.43404 0.0
H104 H 0.74604 0.4362 0.5093 0.0
Co105 Co 0.79625 0.49552 0.43089 0.0
C106 C 0.80541 0.47998 0.33029 0.0
O107 O 0.81981 0.51696 0.31248 0.0
N108 N 0.80787 0.54721 0.41013 0.0
C109 C 0.82853 0.61487 0.40827 0.0
C110 C 0.83179 0.5842 0.43049 0.0
C111 C 0.79012 0.55588 0.37616 0.0
N112 N 0.80235 0.59664 0.37422 0.0
O113 O 0.73816 0.47502 0.42514 0.0
H114 H 0.84924 0.58827 0.46051 0.0
H115 H 0.76748 0.53257 0.3541 0.0
O116 O 0.79759 0.47436 0.37166 0.0
C117 C 0.72011 0.48552 0.45401 0.0
O118 O 0.74252 0.51452 0.48312 0.0
N119 N 0.85239 0.51497 0.43867 0.0
C120 C 0.92738 0.51842 0.44805 0.0
C121 C 0.91861 0.53228 0.4088 0.0
C122 C 0.88066 0.53102 0.40511 0.0
C123 C 0.86354 0.50805 0.47928 0.0
C124 C 0.90098 0.50885 0.48454 0.0
H125 H 0.87298 0.54058 0.37465 0.0
H126 H 0.84159 0.49786 0.50643 0.0
H127 H 0.81234 0.42245 0.40448 0.0
H128 H 0.73256 0.35878 0.51067 0.0
H129 H 0.84302 0.64751 0.41706 0.0
H130 H 0.93949 0.54127 0.38068 0.0
H131 H 0.90786 0.49913 0.51566 0.0
C132 C 0.49809 0.30238 0.44124 0.0
C133 C 0.53368 0.33133 0.46268 0.0
N134 N 0.54985 0.3684 0.44139 0.0
N135 N 0.49255 0.3204 0.40547 0.0
C136 C 0.52502 0.35967 0.40565 0.0
H137 H 0.47805 0.27018 0.45061 0.0
Co138 Co 0.45015 0.29876 0.36385 0.0
C139 C 0.52204 0.33284 0.3012 0.0
O140 O 0.53141 0.30359 0.30829 0.0
N141 N 0.40839 0.27764 0.32186 0.0
C142 C 0.34832 0.2529 0.28609 0.0
C143 C 0.37004 0.27313 0.32382 0.0
C144 C 0.40945 0.2603 0.28303 0.0
N145 N 0.37332 0.24467 0.26102 0.0
O146 O 0.46002 0.25379 0.35439 0.0
H147 H 0.35822 0.28273 0.35145 0.0
H148 H 0.43575 0.25776 0.27175 0.0
O149 O 0.49016 0.33102 0.31918 0.0
C150 C 0.43525 0.21572 0.36363 0.0
O151 O 0.39659 0.20328 0.37481 0.0
N152 N 0.44061 0.34293 0.37587 0.0
C153 C 0.45831 0.41636 0.41772 0.0
C154 C 0.468 0.41653 0.37283 0.0
C155 C 0.45762 0.37899 0.3519 0.0
C156 C 0.42526 0.3414 0.41727 0.0
C157 C 0.43322 0.37804 0.43877 0.0
H158 H 0.46751 0.37998 0.31808 0.0
H159 H 0.41128 0.31243 0.43554 0.0
H160 H 0.53047 0.38065 0.37877 0.0
H161 H 0.54708 0.32471 0.49105 0.0
H162 H 0.31629 0.2433 0.27856 0.0
H163 H 0.48613 0.44558 0.35513 0.0
H164 H 0.42427 0.37688 0.47313 0.0
C165 C 0.61664 0.19427 0.41808 0.0
C166 C 0.58243 0.19906 0.41817 0.0
N167 N 0.55287 0.16845 0.39351 0.0
N168 N 0.60866 0.16045 0.39361 0.0
C169 C 0.56914 0.14506 0.37938 0.0
H170 H 0.64606 0.21566 0.43325 0.0
Co171 Co 0.64647 0.14403 0.37558 0.0
C172 C 0.62009 0.13507 0.29046 0.0
O173 O 0.6008 0.09637 0.30463 0.0
N174 N 0.68474 0.12814 0.35609 0.0
C175 C 0.7269 0.10234 0.344 0.0
C176 C 0.69285 0.09759 0.36758 0.0
C177 C 0.71368 0.15023 0.32515 0.0
N178 N 0.73972 0.13575 0.31777 0.0
O179 O 0.69172 0.19878 0.38963 0.0
H180 H 0.67639 0.07403 0.39236 0.0
H181 H 0.71711 0.17799 0.30959 0.0
O182 O 0.64425 0.16281 0.31763 0.0
C183 C 0.72918 0.21516 0.4031 0.0
O184 O 0.74638 0.19222 0.41 0.0
N185 N 0.64495 0.12393 0.43253 0.0
C186 C 0.60434 0.08765 0.51105 0.0
C187 C 0.63436 0.13001 0.50992 0.0
C188 C 0.65528 0.14752 0.47027 0.0
C189 C 0.61855 0.08207 0.43432 0.0
C190 C 0.59931 0.06294 0.47381 0.0
H191 H 0.67529 0.18082 0.46918 0.0
H192 H 0.60887 0.06413 0.40399 0.0
H193 H 0.5535 0.11888 0.35701 0.0
H194 H 0.58003 0.22427 0.43332 0.0
H195 H 0.7419 0.08388 0.347 0.0
H196 H 0.63868 0.15004 0.53797 0.0
H197 H 0.57611 0.03009 0.47356 0.0
C198 C 0.44222 0.80004 0.96994 0.0
C199 C 0.40178 0.79234 0.96861 0.0
N200 N 0.39325 0.79701 0.9265 0.0
N201 N 0.45832 0.80837 0.92868 0.0
C202 C 0.42798 0.80762 0.90339 0.0
H203 H 0.45864 0.79915 -0.00109 0.0
Co204 Co 0.50946 0.81559 0.90944 0.0
C205 C 0.46072 0.76953 0.82987 0.0
O206 O 0.44275 0.73473 0.85257 0.0
N207 N 0.55997 0.82235 0.88944 0.0
C208 C 0.62643 0.84298 0.87521 0.0
C209 C 0.5996 0.84915 0.90174 0.0
C210 C 0.56348 0.79978 0.85641 0.0
N211 N 0.60323 0.81198 0.84681 0.0
O212 O 0.49045 0.75904 0.92058 0.0
H213 H 0.60865 0.87222 0.92763 0.0
H214 H 0.53741 0.77507 0.83889 0.0
O215 O 0.48816 0.80285 0.84906 0.0
C216 C 0.49667 0.74728 0.95778 0.0
O217 O 0.52015 0.77495 0.98753 0.0
N218 N 0.52813 0.87189 0.9026 0.0
C219 C 0.52074 0.93995 0.92518 0.0
C220 C 0.50821 0.92187 0.88326 0.0
C221 C 0.51282 0.8879 0.87219 0.0
C222 C 0.54528 0.89253 0.94108 0.0
C223 C 0.54263 0.92743 0.95277 0.0
H224 H 0.4987 0.87152 0.84208 0.0
H225 H 0.55568 0.87853 0.96553 0.0
H226 H 0.43022 0.81338 0.86823 0.0
H227 H 0.38001 0.78277 0.99592 0.0
H228 H 0.66008 0.86043 0.87587 0.0
H229 H 0.49131 0.93113 0.86125 0.0
H230 H 0.55253 0.94092 0.98544 0.0
C231 C 0.16997 0.64026 0.95371 0.0
C232 C 0.18463 0.61414 0.96611 0.0
N233 N 0.19467 0.60126 0.92891 0.0
N234 N 0.17014 0.64261 0.90907 0.0
C235 C 0.18669 0.61955 0.8952 0.0
H236 H 0.15922 0.65588 0.97576 0.0
Co237 Co 0.15028 0.6691 0.87315 0.0
C238 C 0.12226 0.61638 0.79042 0.0
O239 O 0.09151 0.6234 0.78283 0.0
N240 N 0.13079 0.69682 0.83667 0.0
C241 C 0.09748 0.72761 0.80834 0.0
C242 C 0.09525 0.69859 0.83841 0.0
C243 C 0.1534 0.72426 0.80463 0.0
N244 N 0.13437 0.74372 0.78771 0.0
O245 O 0.2055 0.70515 0.85482 0.0
H246 H 0.06987 0.68145 0.86121 0.0
H247 H 0.1844 0.73175 0.79489 0.0
O248 O 0.14517 0.63214 0.82438 0.0
C249 C 0.22737 0.73738 0.87803 0.0
O250 O 0.2093 0.7446 0.91163 0.0
N251 N 0.09722 0.63415 0.89564 0.0
C252 C 0.04122 0.58373 0.95954 0.0
C253 C 0.04497 0.5665 0.91976 0.0
C254 C 0.07328 0.59241 0.88794 0.0
C255 C 0.09065 0.65175 0.93221 0.0
C256 C 0.06248 0.62698 0.96477 0.0
H257 H 0.07794 0.57813 0.85936 0.0
H258 H 0.1106 0.68474 0.93826 0.0
H259 H 0.19266 0.61568 0.86097 0.0
H260 H 0.1873 0.605 -0.00061 0.0
H261 H 0.07516 0.73792 0.80396 0.0
H262 H 0.02838 0.53306 0.91477 0.0
H263 H 0.05989 0.64105 0.99518 0.0
C264 C 0.33969 0.50813 0.96694 0.0
C265 C 0.36425 0.5449 0.98907 0.0
N266 N 0.38226 0.57513 0.95862 0.0
N267 N 0.34311 0.51539 0.92293 0.0
C268 C 0.36832 0.55678 0.91909 0.0
H269 H 0.32134 0.47776 0.98191 0.0
Co270 Co 0.31908 0.47447 0.87999 0.0
C271 C 0.37288 0.50583 0.80005 0.0
O272 O 0.36799 0.46835 0.79567 0.0
N273 N 0.29289 0.432 0.83794 0.0
C274 C 0.25865 0.37099 0.80277 0.0
C275 C 0.28327 0.39164 0.83875 0.0
C276 C 0.27398 0.43504 0.80122 0.0
N277 N 0.25309 0.39862 0.77953 0.0
O278 O 0.28111 0.49317 0.86763 0.0
H279 H 0.29187 0.37733 0.86451 0.0
H280 H 0.27412 0.46313 0.79125 0.0
O281 O 0.35609 0.51338 0.8332 0.0
C282 C 0.2556 0.49024 0.89731 0.0
O283 O 0.25052 0.4673 0.9324 0.0
N284 N 0.35693 0.45696 0.89593 0.0
C285 C 0.41215 0.45379 0.95516 0.0
C286 C 0.42689 0.48026 0.91879 0.0
C287 C 0.39887 0.48179 0.88989 0.0
C288 C 0.34227 0.42749 0.92855 0.0
C289 C 0.36959 0.42504 0.95861 0.0
H290 H 0.41181 0.50693 0.8669 0.0
H291 H 0.30921 0.40964 0.93499 0.0
H292 H 0.37655 0.57347 0.88818 0.0
H293 H 0.36937 0.54909 0.02442 0.0
H294 H 0.24447 0.3381 0.7953 0.0
H295 H 0.45971 0.50288 0.91543 0.0
H296 H 0.35741 0.40426 0.98675 0.0
C297 C 0.17496 0.5618 0.49906 0.0
C298 C 0.19184 0.60445 0.49616 0.0
N299 N 0.20566 0.62061 0.53659 0.0
N300 N 0.17806 0.5515 0.54123 0.0
C301 C 0.19755 0.58829 0.56287 0.0
H302 H 0.16283 0.54017 0.47168 0.0
Co303 Co 0.16486 0.50048 0.56696 0.0
C304 C 0.13999 0.5104 0.66075 0.0
O305 O 0.11614 0.47035 0.66843 0.0
N306 N 0.15297 0.45029 0.59302 0.0
C307 C 0.13192 0.38383 0.60812 0.0
C308 C 0.12689 0.41051 0.58032 0.0
C309 C 0.17358 0.44708 0.62802 0.0
N310 N 0.16146 0.40731 0.63772 0.0
O311 O 0.22197 0.52232 0.57777 0.0
H312 H 0.10633 0.40137 0.55211 0.0
H313 H 0.19757 0.47352 0.64592 0.0
O314 O 0.15884 0.5227 0.62375 0.0
C315 C 0.23936 0.51297 0.54712 0.0
O316 O 0.21644 0.48682 0.51592 0.0
N317 N 0.10945 0.47886 0.55132 0.0
C318 C 0.04332 0.47312 0.50469 0.0
C319 C 0.04514 0.47849 0.55056 0.0
C320 C 0.07867 0.48112 0.57358 0.0
C321 C 0.1044 0.46696 0.50799 0.0
C322 C 0.07158 0.46453 0.48351 0.0
H323 H 0.08078 0.48832 0.60809 0.0
H324 H 0.12873 0.46435 0.49117 0.0
H325 H 0.20756 0.59193 0.59701 0.0
H326 H 0.19514 0.62229 0.4666 0.0
H327 H 0.11601 0.35017 0.60625 0.0
H328 H 0.02301 0.48451 0.56768 0.0
H329 H 0.07055 0.45999 0.448 0.0
C330 C 0.4815 0.64304 0.51372 0.0
C331 C 0.4412 0.61949 0.49904 0.0
N332 N 0.41587 0.61243 0.53384 0.0
N333 N 0.48112 0.64991 0.55759 0.0
C334 C 0.44063 0.63159 0.56869 0.0
H335 H 0.50932 0.65285 0.49423 0.0
Co336 Co 0.52657 0.67239 0.59496 0.0
C337 C 0.49791 0.62075 0.6773 0.0
O338 O 0.53343 0.62122 0.67909 0.0
N339 N 0.57293 0.6966 0.63289 0.0
C340 C 0.63329 0.72159 0.66887 0.0
C341 C 0.61076 0.69949 0.63222 0.0
C342 C 0.57354 0.7173 0.66997 0.0
N343 N 0.60943 0.73246 0.69226 0.0
O344 O 0.51569 0.71614 0.60751 0.0
H345 H 0.62174 0.68654 0.6072 0.0
H346 H 0.54792 0.72114 0.68087 0.0
O347 O 0.49108 0.64004 0.64614 0.0
C348 C 0.53174 0.74746 0.58182 0.0
O349 O 0.55938 0.75108 0.55232 0.0
N350 N 0.53578 0.62888 0.57789 0.0
C351 C 0.52872 0.56548 0.52288 0.0
C352 C 0.49945 0.55712 0.55583 0.0
C353 C 0.50305 0.58927 0.58211 0.0
C354 C 0.5658 0.63734 0.54682 0.0
C355 C 0.56323 0.60568 0.51916 0.0
H356 H 0.47596 0.58315 0.60059 0.0
H357 H 0.58912 0.66928 0.53995 0.0
H358 H 0.42932 0.63021 0.60205 0.0
H359 H 0.43121 0.6073 0.46597 0.0
H360 H 0.66452 0.72913 0.67763 0.0
H361 H 0.4718 0.52663 0.55848 0.0
H362 H 0.58589 0.61309 0.49304 0.0
C363 C 0.40889 0.8692 0.56453 0.0
C364 C 0.43758 0.85931 0.54812 0.0
N365 N 0.44145 0.83456 0.57789 0.0
N366 N 0.39513 0.85069 0.60428 0.0
C367 C 0.41561 0.82977 0.6113 0.0
H368 H 0.39941 0.88939 0.54912 0.0
Co369 Co 0.36043 0.85819 0.64324 0.0
C370 C 0.36291 0.8118 0.7217 0.0
O371 O 0.32283 0.79459 0.72945 0.0
N372 N 0.32575 0.86599 0.68131 0.0
C373 C 0.29865 0.88229 0.73766 0.0
C374 C 0.33433 0.88511 0.72089 0.0
C375 C 0.28511 0.85234 0.67452 0.0
N376 N 0.26729 0.86207 0.70821 0.0
O377 O 0.31726 0.80204 0.63205 0.0
H378 H 0.36418 0.89868 0.73725 0.0
H379 H 0.26889 0.83352 0.64625 0.0
O380 O 0.37975 0.83814 0.69061 0.0
C381 C 0.30137 0.79038 0.59377 0.0
O382 O 0.31146 0.81817 0.56225 0.0
N383 N 0.40336 0.91295 0.65294 0.0
C384 C 0.47088 0.98926 0.63081 0.0
C385 C 0.47696 0.95827 0.64948 0.0
C386 C 0.44264 0.9205 0.6614 0.0
C387 C 0.39693 0.94462 0.64068 0.0
C388 C 0.43072 0.98399 0.63115 0.0
H389 H 0.44797 0.89567 0.67132 0.0
H390 H 0.36574 0.93834 0.63395 0.0
H391 H 0.41266 0.81196 0.64075 0.0
H392 H 0.45443 0.86957 0.51715 0.0
H393 H 0.29583 0.89183 0.77072 0.0
H394 H 0.50754 0.9614 0.65039 0.0
H395 H 0.42514 0.00778 0.61765 0.0
C396 C 0.62023 0.1889 0.2377 0.0
C397 C 0.60506 0.14658 0.24968 0.0
C398 C 0.54082 0.12532 0.20938 0.0
C399 C 0.55412 0.16743 0.19924 0.0
N400 N 0.61118 0.23832 0.19319 0.0
N401 N 0.56366 0.07603 0.22334 0.0
C402 C 0.59528 0.19915 0.21038 0.0
C403 C 0.56932 0.11513 0.2281 0.0
N404 N 0.65883 0.21894 0.25121 0.0
N405 N 0.50049 0.09499 0.2027 0.0
H406 H 0.58676 0.06914 0.23182 0.0
H407 H 0.53925 0.05276 0.20508 0.0
H408 H 0.47789 0.10155 0.19159 0.0
H409 H 0.48878 0.06428 0.21301 0.0
H410 H 0.6693 0.25074 0.25014 0.0
H411 H 0.68096 0.21173 0.26255 0.0
H412 H 0.64213 0.26163 0.19623 0.0
H413 H 0.59423 0.24703 0.17287 0.0
C414 C 0.83547 0.40639 0.27472 0.0
C415 C 0.79842 0.37905 0.25165 0.0
C416 C 0.76412 0.4138 0.28676 0.0
C417 C 0.80294 0.44518 0.30335 0.0
N418 N 0.87745 0.47491 0.3064 0.0
N419 N 0.72936 0.36306 0.22886 0.0
C420 C 0.83921 0.44254 0.29541 0.0
C421 C 0.76299 0.38411 0.25602 0.0
N422 N 0.86669 0.39724 0.27804 0.0
N423 N 0.72828 0.41222 0.30027 0.0
H424 H 0.72797 0.34346 0.20339 0.0
H425 H 0.70459 0.36872 0.22834 0.0
H426 H 0.72804 0.43368 0.32249 0.0
H427 H 0.69886 0.38737 0.29275 0.0
H428 H 0.89275 0.4141 0.29799 0.0
H429 H 0.86433 0.37007 0.26494 0.0
H430 H 0.90514 0.47604 0.29768 0.0
H431 H 0.88165 0.50256 0.31989 0.0
C432 C 0.61818 0.43614 0.26915 0.0
C433 C 0.5986 0.45415 0.24487 0.0
C434 C 0.53293 0.38837 0.24817 0.0
C435 C 0.55073 0.37192 0.27747 0.0
N436 N 0.60926 0.3847 0.32375 0.0
N437 N 0.5342 0.45058 0.22328 0.0
C438 C 0.59326 0.39681 0.29 0.0
C439 C 0.55502 0.43133 0.23804 0.0
N440 N 0.66046 0.45692 0.27307 0.0
N441 N 0.49509 0.36276 0.22931 0.0
H442 H 0.54869 0.48251 0.21754 0.0
H443 H 0.50186 0.43552 0.22148 0.0
H444 H 0.47885 0.33063 0.23453 0.0
H445 H 0.48243 0.37272 0.20473 0.0
H446 H 0.67662 0.44327 0.28614 0.0
H447 H 0.67947 0.48707 0.26112 0.0
H448 H 0.63871 0.40393 0.33704 0.0
H449 H 0.59204 0.35726 0.34155 0.0
C450 C 0.45761 0.81416 0.77053 0.0
C451 C 0.44071 0.77398 0.78878 0.0
C452 C 0.3753 0.75472 0.75027 0.0
C453 C 0.38887 0.79791 0.7453 0.0
N454 N 0.44321 0.86946 0.75738 0.0
N455 N 0.38635 0.70193 0.78465 0.0
C456 C 0.43033 0.82792 0.75678 0.0
C457 C 0.40028 0.74279 0.7752 0.0
N458 N 0.4996 0.83898 0.76635 0.0
N459 N 0.34043 0.72539 0.72883 0.0
H460 H 0.40648 0.69131 0.79376 0.0
H461 H 0.35525 0.6787 0.78238 0.0
H462 H 0.323 0.73285 0.70774 0.0
H463 H 0.33099 0.69382 0.7282 0.0
H464 H 0.5132 0.86784 0.75053 0.0
H465 H 0.51993 0.82826 0.77451 0.0
H466 H 0.47265 0.89182 0.76848 0.0
H467 H 0.4231 0.88092 0.75181 0.0
C468 C 0.14578 0.53561 0.739 0.0
C469 C 0.14094 0.54121 0.69339 0.0
C470 C 0.13578 0.60295 0.71252 0.0
C471 C 0.13181 0.59198 0.75789 0.0
N472 N 0.12959 0.54444 0.81419 0.0
N473 N 0.12559 0.57858 0.63726 0.0
C474 C 0.13625 0.5576 0.77125 0.0
C475 C 0.13478 0.57466 0.68011 0.0
N476 N 0.16083 0.51028 0.75161 0.0
N477 N 0.14193 0.64111 0.70027 0.0
H478 H 0.12346 0.5588 0.61183 0.0
H479 H 0.1162 0.59955 0.62757 0.0
H480 H 0.14451 0.66341 0.72313 0.0
H481 H 0.14937 0.65242 0.668 0.0
H482 H 0.16892 0.50829 0.78416 0.0
H483 H 0.16974 0.49493 0.72894 0.0
H484 H 0.12749 0.51661 0.82431 0.0
H485 H 0.12283 0.55932 0.83923 0.0
C486 C 0.45848 0.60898 0.74889 0.0
C487 C 0.46404 0.59329 0.70824 0.0
C488 C 0.40194 0.52671 0.72388 0.0
C489 C 0.40116 0.53897 0.76815 0.0
N490 N 0.43803 0.59117 0.82494 0.0
N491 N 0.44941 0.53119 0.66752 0.0
C492 C 0.43149 0.58028 0.78139 0.0
C493 C 0.43801 0.5505 0.69825 0.0
N494 N 0.48019 0.65074 0.75743 0.0
N495 N 0.36872 0.49214 0.70635 0.0
H496 H 0.47956 0.54526 0.65505 0.0
H497 H 0.43166 0.49935 0.66086 0.0
H498 H 0.34059 0.47544 0.72332 0.0
H499 H 0.36783 0.48354 0.67328 0.0
H500 H 0.47443 0.66394 0.78512 0.0
H501 H 0.50139 0.67229 0.735 0.0
H502 H 0.4619 0.61989 0.83603 0.0
H503 H 0.42385 0.56967 0.85006 0.0
C504 C 0.4586 0.97293 0.99775 0.0
C505 C 0.4748 0.01457 0.98356 0.0
C506 C 0.51924 0.00675 0.92881 0.0
C507 C 0.50374 0.96536 0.94362 0.0
N508 N 0.45446 0.90621 0.98684 0.0
N509 N 0.51348 0.06899 0.93027 0.0
C510 C 0.47197 0.94754 0.97645 0.0
C511 C 0.50265 0.03068 0.94709 0.0
N512 N 0.43122 0.95834 0.03248 0.0
N513 N 0.5515 0.02386 0.89923 0.0
H514 H 0.50263 0.08778 0.94328 0.0
H515 H 0.53033 0.08088 0.90115 0.0
H516 H 0.56438 0.00717 0.88517 0.0
H517 H 0.56763 0.05528 0.89082 0.0
H518 H 0.42175 0.93024 0.04858 0.0
H519 H 0.41855 0.97533 0.04636 0.0
H520 H 0.42951 0.89036 0.00837 0.0
H521 H 0.46252 0.88626 0.97109 0.0
C522 C 0.01816 0.52133 0.06615 0.0
C523 C 0.97506 0.49365 0.0607 0.0
C524 C 0.97449 0.53209 0.99507 0.0
C525 C 0.01831 0.55593 0.99695 0.0
N526 N 0.08301 0.57052 0.03109 0.0
N527 N 0.91249 0.46908 0.01719 0.0
C528 C 0.04054 0.55022 0.03194 0.0
C529 C 0.9532 0.49818 0.02452 0.0
N530 N 0.03771 0.51965 0.1037 0.0
N531 N 0.95326 0.54228 0.96548 0.0
H532 H 0.89512 0.44459 0.03884 0.0
H533 H 0.89655 0.46781 0.98838 0.0
H534 H 0.96814 0.56712 0.94341 0.0
H535 H 0.92101 0.52874 0.96563 0.0
H536 H 0.06816 0.54189 0.11172 0.0
H537 H 0.02242 0.4978 0.12868 0.0
H538 H 0.10078 0.56392 0.05261 0.0
H539 H 0.10059 0.59185 0.00663 0.0
C540 C 0.47355 0.45241 0.98482 0.0
C541 C 0.44166 0.462 0.99173 0.0
C542 C 0.47924 0.50607 0.05529 0.0
C543 C 0.51329 0.50059 0.04475 0.0
N544 N 0.5448 0.47047 0.99887 0.0
N545 N 0.41335 0.49809 0.0327 0.0
C546 C 0.51095 0.47414 0.00937 0.0
C547 C 0.44402 0.48844 0.02714 0.0
N548 N 0.4675 0.42212 0.95496 0.0
N549 N 0.48038 0.52749 0.09271 0.0
H550 H 0.38544 0.48305 0.0155 0.0
H551 H 0.41597 0.52178 0.05335 0.0
H552 H 0.50665 0.54277 0.11279 0.0
H553 H 0.4547 0.52823 0.10541 0.0
H554 H 0.4878 0.41073 0.95071 0.0
H555 H 0.4399 0.40555 0.93709 0.0
H556 H 0.54662 0.45498 0.97096 0.0
H557 H 0.5726 0.48554 0.01646 0.0
C558 C 0.03067 0.52787 0.47451 0.0
C559 C 0.01728 0.48483 0.47889 0.0
C560 C 0.95039 0.46631 0.44616 0.0
C561 C 0.961 0.50863 0.45012 0.0
N562 N 0.01049 0.58033 0.46638 0.0
N563 N 0.96578 0.41265 0.46831 0.0
C564 C 0.00127 0.53981 0.46296 0.0
C565 C 0.97775 0.45382 0.46373 0.0
N566 N 0.07141 0.55706 0.4818 0.0
N567 N 0.91398 0.43831 0.42604 0.0
H568 H 0.98578 0.40271 0.47996 0.0
H569 H 0.93563 0.38839 0.4627 0.0
H570 H 0.89336 0.4468 0.41288 0.0
H571 H 0.90584 0.40768 0.41892 0.0
H572 H 0.084 0.58869 0.47539 0.0
H573 H 0.09364 0.54918 0.49083 0.0
H574 H 0.03756 0.60382 0.48081 0.0
H575 H 0.9899 0.59017 0.45654 0.0
C576 C 0.47076 0.48856 0.43238 0.0
C577 C 0.47856 0.45596 0.44352 0.0
C578 C 0.52595 0.49915 0.50283 0.0
C579 C 0.51923 0.532 0.49045 0.0
N580 N 0.49192 0.56175 0.43904 0.0
N581 N 0.51879 0.43251 0.48489 0.0
C582 C 0.49399 0.52795 0.45349 0.0
C583 C 0.50766 0.46191 0.47748 0.0
N584 N 0.43941 0.48107 0.40359 0.0
N585 N 0.54871 0.50317 0.53995 0.0
H586 H 0.50613 0.40442 0.46786 0.0
H587 H 0.54325 0.43741 0.50537 0.0
H588 H 0.56503 0.53116 0.55735 0.0
H589 H 0.54981 0.47849 0.55493 0.0
H590 H 0.42921 0.5021 0.39757 0.0
H591 H 0.42077 0.45216 0.38864 0.0
H592 H 0.47728 0.56206 0.40982 0.0
H593 H 0.50814 0.59087 0.45421 0.0
C594 C 0.57943 0.06687 0.59036 0.0
C595 C 0.57123 0.07085 0.54538 0.0
C596 C 0.49733 0.02408 0.55701 0.0
C597 C 0.5045 0.02168 0.60286 0.0
N598 N 0.55133 0.05014 0.66492 0.0
N599 N 0.52124 0.06732 0.49204 0.0
C600 C 0.54531 0.04639 0.62021 0.0
C601 C 0.52971 0.05456 0.53105 0.0
N602 N 0.61917 0.08056 0.60413 0.0
N603 N 0.46149 0.99503 0.5368 0.0
H604 H 0.54441 0.09074 0.47264 0.0
H605 H 0.49097 0.05792 0.48192 0.0
H606 H 0.43838 0.96859 0.55254 0.0
H607 H 0.4573 0.99427 0.50261 0.0
H608 H 0.62629 0.07453 0.63561 0.0
H609 H 0.64474 0.09519 0.58299 0.0
H610 H 0.57998 0.0703 0.67936 0.0
H611 H 0.52669 0.03616 0.68736 0.0
C612 C 0.38102 0.23887 0.18086 0.0
C613 C 0.36317 0.2196 0.22177 0.0
C614 C 0.33867 0.15147 0.18797 0.0
C615 C 0.36697 0.1713 0.15288 0.0
N616 N 0.38794 0.22838 0.10261 0.0
N617 N 0.32202 0.15691 0.26416 0.0
C618 C 0.38012 0.2137 0.14488 0.0
C619 C 0.33996 0.17558 0.22499 0.0
N620 N 0.40016 0.28116 0.17731 0.0
N621 N 0.3095 0.11036 0.18447 0.0
H622 H 0.32278 0.17368 0.29221 0.0
H623 H 0.3087 0.12497 0.26938 0.0
H624 H 0.30655 0.09375 0.15541 0.0
H625 H 0.28588 0.0947 0.20766 0.0
H626 H 0.41747 0.2976 0.14975 0.0
H627 H 0.39967 0.29975 0.20305 0.0
H628 H 0.39536 0.25851 0.094 0.0
H629 H 0.38177 0.20824 0.07582 0.0
C630 C 0.81269 0.18951 0.30958 0.0
C631 C 0.77614 0.15666 0.29061 0.0
C632 C 0.80135 0.18427 0.21663 0.0
C633 C 0.83341 0.22097 0.23628 0.0
N634 N 0.87207 0.25915 0.3001 0.0
N635 N 0.7359 0.11975 0.22728 0.0
C636 C 0.84054 0.22331 0.2824 0.0
C637 C 0.77117 0.15258 0.24422 0.0
N638 N 0.81939 0.1888 0.35388 0.0
N639 N 0.79949 0.18084 0.17158 0.0
H640 H 0.71422 0.09582 0.24743 0.0
H641 H 0.7275 0.11668 0.19406 0.0
H642 H 0.82152 0.20422 0.1512 0.0
H643 H 0.7783 0.15413 0.15459 0.0
H644 H 0.84645 0.21044 0.36995 0.0
H645 H 0.79882 0.16424 0.37404 0.0
H646 H 0.8767 0.26505 0.33391 0.0
H647 H 0.89299 0.28399 0.28044 0.0
C648 C 0.80906 0.63356 0.30456 0.0
C649 C 0.78667 0.61503 0.34383 0.0
C650 C 0.72427 0.6115 0.31327 0.0
C651 C 0.74561 0.62676 0.27273 0.0
N652 N 0.80921 0.66164 0.23177 0.0
N653 N 0.72795 0.5965 0.39089 0.0
C654 C 0.78871 0.64158 0.26947 0.0
C655 C 0.74589 0.60782 0.35001 0.0
N656 N 0.84865 0.64066 0.3001 0.0
N657 N 0.68266 0.5977 0.3152 0.0
H658 H 0.74359 0.59328 0.41789 0.0
H659 H 0.69918 0.59321 0.39882 0.0
H660 H 0.66672 0.60129 0.28876 0.0
H661 H 0.66378 0.58157 0.34198 0.0
H662 H 0.86572 0.65038 0.27085 0.0
H663 H 0.86405 0.63526 0.32581 0.0
H664 H 0.84122 0.67552 0.22749 0.0
H665 H 0.794 0.66698 0.20578 0.0
C666 C 0.61251 0.75703 0.8131 0.0
C667 C 0.61636 0.79683 0.80997 0.0
C668 C 0.62914 0.79817 0.73033 0.0
C669 C 0.61897 0.75605 0.73256 0.0
N670 N 0.59955 0.69408 0.77456 0.0
N671 N 0.62629 0.85523 0.76633 0.0
C672 C 0.61099 0.73527 0.77372 0.0
C673 C 0.62498 0.81783 0.76884 0.0
N674 N 0.60967 0.74018 0.85396 0.0
N675 N 0.64201 0.81879 0.69095 0.0
H676 H 0.62367 0.87044 0.79416 0.0
H677 H 0.62761 0.87006 0.73666 0.0
H678 H 0.64462 0.80441 0.66234 0.0
H679 H 0.65305 0.85054 0.68735 0.0
H680 H 0.60952 0.7124 0.85929 0.0
H681 H 0.61086 0.75613 0.88295 0.0
H682 H 0.5888 0.67559 0.80278 0.0
H683 H 0.59883 0.67779 0.74606 0.0
C684 C 0.16055 0.77613 0.71533 0.0
C685 C 0.15503 0.78044 0.76094 0.0
C686 C 0.21015 0.85324 0.7578 0.0
C687 C 0.22306 0.84442 0.71724 0.0
N688 N 0.19369 0.81228 0.64737 0.0
N689 N 0.17071 0.82448 0.82518 0.0
C690 C 0.193 0.81027 0.69237 0.0
C691 C 0.17769 0.81994 0.78172 0.0
N692 N 0.13648 0.7387 0.69502 0.0
N693 N 0.2283 0.8934 0.77221 0.0
H694 H 0.14682 0.80063 0.84339 0.0
H695 H 0.1897 0.85123 0.84347 0.0
H696 H 0.25048 0.91782 0.75288 0.0
H697 H 0.21843 0.90253 0.80019 0.0
H698 H 0.14218 0.73224 0.663 0.0
H699 H 0.11183 0.71375 0.71144 0.0
H700 H 0.17088 0.78925 0.62742 0.0
H701 H 0.21432 0.83978 0.63093 0.0
C702 C 0.16365 0.39109 0.71593 0.0
C703 C 0.17873 0.39427 0.67228 0.0
C704 C 0.23945 0.39184 0.69946 0.0
C705 C 0.22529 0.39062 0.74321 0.0
N706 N 0.17153 0.38108 0.79406 0.0
N707 N 0.22591 0.39076 0.62054 0.0
C708 C 0.1863 0.38737 0.75166 0.0
C709 C 0.21493 0.39195 0.66346 0.0
N710 N 0.12871 0.39373 0.72289 0.0
N711 N 0.27733 0.39508 0.69289 0.0
H712 H 0.20857 0.39166 0.5939 0.0
H713 H 0.25048 0.38654 0.6111 0.0
H714 H 0.29518 0.39418 0.71901 0.0
H715 H 0.2919 0.4002 0.66224 0.0
H716 H 0.11806 0.39625 0.75398 0.0
H717 H 0.11093 0.39486 0.69683 0.0
H718 H 0.14211 0.37564 0.80274 0.0
H719 H 0.18799 0.37849 0.82062 0.0
C720 C 0.53135 0.31383 0.0915 0.0
C721 C 0.54427 0.29081 0.06494 0.0
C722 C 0.60914 0.35499 0.04745 0.0
C723 C 0.59327 0.37812 0.06843 0.0
N724 N 0.53643 0.38069 0.10359 0.0
N725 N 0.59442 0.28964 0.01442 0.0
C726 C 0.55362 0.35786 0.0888 0.0
C727 C 0.58287 0.31143 0.04185 0.0
N728 N 0.49829 0.2939 0.11961 0.0
N729 N 0.64983 0.37462 0.03445 0.0
H730 H 0.5772 0.25743 0.01073 0.0
H731 H 0.61979 0.30389 0.99303 0.0
H732 H 0.66981 0.40653 0.03889 0.0
H733 H 0.66471 0.35885 0.02322 0.0
H734 H 0.49048 0.30956 0.14297 0.0
H735 H 0.4814 0.26166 0.12288 0.0
H736 H 0.50599 0.3674 0.11519 0.0
H737 H 0.55118 0.41289 0.09979 0.0
C738 C 0.70191 0.21266 0.11373 0.0
C739 C 0.73538 0.24286 0.08803 0.0
C740 C 0.68675 0.24197 0.03309 0.0
C741 C 0.6534 0.21046 0.05749 0.0
N742 N 0.62918 0.15868 0.11505 0.0
N743 N 0.76024 0.27754 0.01742 0.0
C744 C 0.66098 0.1936 0.09615 0.0
C745 C 0.72802 0.25455 0.04572 0.0
N746 N 0.70925 0.20247 0.15486 0.0
N747 N 0.67902 0.26178 -0.00046 0.0
H748 H 0.79106 0.28711 0.02478 0.0
H749 H 0.75594 0.28342 0.98472 0.0
H750 H 0.64907 0.25416 0.99013 0.0
H751 H 0.70223 0.28839 0.98399 0.0
H752 H 0.68577 0.18399 0.17713 0.0
H753 H 0.73917 0.21418 0.16753 0.0
H754 H 0.6331 0.14295 0.14142 0.0
H755 H 0.59939 0.14302 0.10149 0.0
C756 C 0.75006 0.43532 0.1198 0.0
C757 C 0.78778 0.44843 0.09707 0.0
C758 C 0.8008 0.51998 0.09583 0.0
C759 C 0.76311 0.50666 0.11945 0.0
N760 N 0.71445 0.45565 0.1718 0.0
N761 N 0.85444 0.50434 0.07414 0.0
C762 C 0.7414 0.46557 0.13708 0.0
C763 C 0.81485 0.49121 0.08808 0.0
N764 N 0.72229 0.3938 0.12453 0.0
N765 N 0.82329 0.5602 0.08141 0.0
H766 H 0.86559 0.4838 0.07014 0.0
H767 H 0.8771 0.53555 0.07052 0.0
H768 H 0.81627 0.58305 0.09095 0.0
H769 H 0.84816 0.57055 0.05943 0.0
H770 H 0.69243 0.38255 0.13724 0.0
H771 H 0.72769 0.37083 0.11156 0.0
H772 H 0.69967 0.42633 0.1866 0.0
H773 H 0.71232 0.47792 0.19079 0.0
C774 C 0.65288 0.43873 0.49401 0.0
C775 C 0.67413 0.46323 0.45625 0.0
C776 C 0.60724 0.44009 0.42041 0.0
C777 C 0.58817 0.40716 0.45156 0.0
N778 N 0.58631 0.39548 0.52984 0.0
N779 N 0.67087 0.49055 0.38479 0.0
C780 C 0.60902 0.41221 0.49221 0.0
C781 C 0.6511 0.46491 0.41977 0.0
N782 N 0.67441 0.43931 0.53081 0.0
N783 N 0.58382 0.45212 0.39683 0.0
H784 H 0.70263 0.51177 0.38473 0.0
H785 H 0.65574 0.48953 0.35542 0.0
H786 H 0.5527 0.44111 0.40452 0.0
H787 H 0.59643 0.4778 0.37575 0.0
H788 H 0.6614 0.41745 0.55615 0.0
H789 H 0.70572 0.46076 0.53565 0.0
H790 H 0.59914 0.40089 0.56143 0.0
H791 H 0.55392 0.38094 0.52989 0.0
C792 C 0.48506 0.15859 0.41507 0.0
C793 C 0.5144 0.16611 0.38137 0.0
C794 C 0.47601 0.18611 0.33112 0.0
C795 C 0.453 0.18799 0.36751 0.0
N796 N 0.435 0.17549 0.44527 0.0
N797 N 0.53977 0.18955 0.30748 0.0
C798 C 0.45634 0.17291 0.40965 0.0
C799 C 0.50987 0.17953 0.33897 0.0
N800 N 0.48599 0.139 0.45284 0.0
N801 N 0.4657 0.19131 0.28923 0.0
H802 H 0.56531 0.18555 0.31209 0.0
H803 H 0.54083 0.2049 0.27827 0.0
H804 H 0.44029 0.19531 0.28304 0.0
H805 H 0.47922 0.187 0.26097 0.0
H806 H 0.4633 0.12901 0.47743 0.0
H807 H 0.50783 0.12955 0.45742 0.0
H808 H 0.44051 0.17013 0.47771 0.0
H809 H 0.41318 0.18514 0.44309 0.0
C810 C 0.78154 0.31774 0.46647 0.0
C811 C 0.76998 0.34079 0.43864 0.0
C812 C 0.74844 0.28704 0.38194 0.0
C813 C 0.75133 0.26023 0.41323 0.0
N814 N 0.76759 0.24928 0.48801 0.0
N815 N 0.73538 0.3439 0.37231 0.0
C816 C 0.76779 0.27543 0.45612 0.0
C817 C 0.75204 0.32487 0.39666 0.0
N818 N 0.80559 0.33646 0.50276 0.0
N819 N 0.7419 0.2761 0.33826 0.0
H820 H 0.73431 0.36997 0.38329 0.0
H821 H 0.71839 0.33097 0.34344 0.0
H822 H 0.74041 0.24895 0.3264 0.0
H823 H 0.74276 0.29611 0.31356 0.0
H824 H 0.8182 0.32241 0.52226 0.0
H825 H 0.81625 0.36765 0.51055 0.0
H826 H 0.77483 0.25815 0.52101 0.0
H827 H 0.75717 0.21784 0.4827 0.0
C828 C 0.40449 0.64515 0.98784 0.0
C829 C 0.41406 0.61746 0.96568 0.0
C830 C 0.48263 0.67492 0.94558 0.0
C831 C 0.47321 0.70257 0.96833 0.0
N832 N 0.43152 0.71227 0.02325 0.0
N833 N 0.46535 0.60319 0.9349 0.0
C834 C 0.43623 0.68709 0.99366 0.0
C835 C 0.45429 0.63152 0.94817 0.0
N836 N 0.36462 0.63196 0.00099 0.0
N837 N 0.51806 0.69023 0.92074 0.0
H838 H 0.44533 0.57114 0.93799 0.0
H839 H 0.49533 0.61137 0.92491 0.0
H840 H 0.54051 0.72182 0.9203 0.0
H841 H 0.52415 0.67196 0.89918 0.0
H842 H 0.35491 0.65206 0.013 0.0
H843 H 0.34043 0.6015 0.99614 0.0
H844 H 0.40618 0.70168 0.04462 0.0
H845 H 0.45543 0.74229 0.0303 0.0
C846 C 0.29668 0.79984 0.89572 0.0
C847 C 0.27368 0.76035 0.87495 0.0
C848 C 0.33212 0.74843 0.88257 0.0
C849 C 0.35348 0.7856 0.90762 0.0
N850 N 0.363 0.85269 0.92609 0.0
N851 N 0.27949 0.71126 0.82702 0.0
C852 C 0.33784 0.81333 0.91047 0.0
C853 C 0.29448 0.73896 0.86132 0.0
N854 N 0.27903 0.82423 0.90068 0.0
N855 N 0.34717 0.72163 0.88025 0.0
H856 H 0.25543 0.70819 0.8068 0.0
H857 H 0.29487 0.69649 0.81435 0.0
H858 H 0.37385 0.72686 0.89701 0.0
H859 H 0.33127 0.69261 0.86489 0.0
H860 H 0.29174 0.85129 0.91964 0.0
H861 H 0.25117 0.81704 0.88504 0.0
H862 H 0.35496 0.8758 0.92707 0.0
H863 H 0.39367 0.86304 0.93497 0.0
C864 C 0.18053 0.5296 0.91849 0.0
C865 C 0.20938 0.57252 0.92391 0.0
C866 C 0.26547 0.56244 0.89706 0.0
C867 C 0.23812 0.51848 0.89769 0.0
N868 N 0.16912 0.45974 0.90793 0.0
N869 N 0.27958 0.62907 0.92632 0.0
C870 C 0.19538 0.5019 0.90818 0.0
C871 C 0.25198 0.58857 0.91586 0.0
N872 N 0.13898 0.51582 0.92203 0.0
N873 N 0.30332 0.57975 0.8766 0.0
H874 H 0.27013 0.64915 0.93922 0.0
H875 H 0.31166 0.64121 0.92646 0.0
H876 H 0.31295 0.56288 0.85743 0.0
H877 H 0.32281 0.61179 0.87304 0.0
H878 H 0.11582 0.48574 0.91392 0.0
H879 H 0.12762 0.53551 0.93078 0.0
H880 H 0.13887 0.44533 0.9202 0.0
H881 H 0.17814 0.43892 0.89629 0.0
C882 C 0.35378 0.54934 0.56118 0.0
C883 C 0.37158 0.58595 0.53504 0.0
C884 C 0.30263 0.5699 0.51078 0.0
C885 C 0.28477 0.53686 0.54197 0.0
N886 N 0.29282 0.49676 0.59984 0.0
N887 N 0.36359 0.63503 0.49043 0.0
C888 C 0.3102 0.52711 0.56827 0.0
C889 C 0.34618 0.59724 0.51108 0.0
N890 N 0.37843 0.53485 0.57728 0.0
N891 N 0.27819 0.57501 0.48064 0.0
H892 H 0.39545 0.65619 0.49104 0.0
H893 H 0.34616 0.64692 0.4763 0.0
H894 H 0.24597 0.55625 0.47979 0.0
H895 H 0.29022 0.59596 0.45439 0.0
H896 H 0.36693 0.50639 0.59343 0.0
H897 H 0.41003 0.54922 0.56997 0.0
H898 H 0.31021 0.49136 0.62313 0.0
H899 H 0.26079 0.47869 0.60457 0.0
C900 C 0.50037 0.82862 0.60605 0.0
C901 C 0.46729 0.81606 0.57555 0.0
C902 C 0.48201 0.76408 0.54429 0.0
C903 C 0.51197 0.7733 0.57808 0.0
N904 N 0.54749 0.81148 0.64376 0.0
N905 N 0.42122 0.76721 0.52149 0.0
C906 C 0.52059 0.80483 0.60981 0.0
C907 C 0.4568 0.78271 0.54598 0.0
N908 N 0.51273 0.86382 0.63068 0.0
N909 N 0.47762 0.73764 0.51048 0.0
H910 H 0.40164 0.77977 0.52261 0.0
H911 H 0.40913 0.7397 0.50326 0.0
H912 H 0.49519 0.723 0.50799 0.0
H913 H 0.45927 0.73319 0.48272 0.0
H914 H 0.53873 0.87681 0.65116 0.0
H915 H 0.49884 0.88213 0.62756 0.0
H916 H 0.55166 0.8308 0.67066 0.0
H917 H 0.56397 0.79564 0.64636 0.0
C918 C 0.29282 0.71942 0.58257 0.0
C919 C 0.27496 0.74551 0.58298 0.0
C920 C 0.20956 0.68747 0.55457 0.0
C921 C 0.22941 0.6637 0.54918 0.0
N922 N 0.29154 0.65912 0.55014 0.0
N923 N 0.2169 0.75548 0.56713 0.0
C924 C 0.27156 0.68038 0.5609 0.0
C925 C 0.23346 0.72988 0.56812 0.0
N926 N 0.32953 0.73118 0.60367 0.0
N927 N 0.1676 0.66885 0.54843 0.0
H928 H 0.23248 0.78583 0.57947 0.0
H929 H 0.18858 0.74734 0.55224 0.0
H930 H 0.14959 0.63784 0.53848 0.0
H931 H 0.15025 0.68298 0.55629 0.0
H932 H 0.34185 0.71162 0.60771 0.0
H933 H 0.3453 0.75848 0.6218 0.0
H934 H 0.3235 0.67151 0.5534 0.0
H935 H 0.27661 0.6306 0.53372 0.0
loop_
_geom_bond_atom_site_label_1
_geom_bond_atom_site_label_2
_geom_bond_distance
_geom_bond_site_symmetry_2
_ccdc_geom_bond_type
C0 C1 1.351 . S
C0 N3 1.368 . S
C0 H5 0.931 . S
C1 C0 1.351 . S
C1 N2 1.373 . S
C1 H29 0.930 1_554 S
N2 C1 1.373 . S
N2 C4 1.340 . S
N3 C0 1.368 . S
N3 C4 1.321 . S
N3 Co6 2.135 . S
C4 N2 1.340 . S
C4 N3 1.321 . S
C4 H28 0.930 . S
H5 C0 0.931 . S
Co6 N3 2.135 . S
Co6 N9 2.121 . S
Co6 O14 2.055 . S
Co6 O17 2.039 . S
Co6 N20 2.140 . S
C7 O8 1.227 . S
C7 O17 1.265 . S
O8 C7 1.227 . S
N9 Co6 2.121 . S
N9 C11 1.375 . S
N9 C12 1.313 . S
C10 C11 1.338 . S
C10 N13 1.377 . S
C10 H30 0.930 . S
C11 N9 1.375 . S
C11 C10 1.338 . S
C11 H15 0.931 . S
C12 N9 1.313 . S
C12 N13 1.344 . S
C12 H16 0.930 . S
N13 C10 1.377 . S
N13 C12 1.344 . S
O14 Co6 2.055 . S
O14 C18 1.253 . S
H15 C11 0.931 . S
H16 C12 0.930 . S
O17 Co6 2.039 . S
O17 C7 1.265 . S
C18 O14 1.253 . S
C18 O19 1.227 . S
O19 C18 1.227 . S
N20 Co6 2.140 . S
N20 C23 1.346 . S
N20 C24 1.345 . S
C21 C22 1.387 . S
C21 C25 1.391 . S
C22 C21 1.387 . S
C22 C23 1.369 . S
C22 H31 0.929 . S
C23 N20 1.346 . S
C23 C22 1.369 . S
C23 H26 0.928 . S
C24 N20 1.345 . S
C24 C25 1.371 . S
C24 H27 0.931 . S
C25 C21 1.391 . S
C25 C24 1.371 . S
C25 H32 0.930 . S
H26 C23 0.928 . S
H27 C24 0.931 . S
H28 C4 0.930 . S
H29 C1 0.930 1_556 S
H30 C10 0.930 . S
H31 C22 0.929 . S
H32 C25 0.930 . S
C33 C34 1.351 . S
C33 N36 1.368 . S
C33 H38 0.931 . S
C34 C33 1.351 . S
C34 N35 1.373 . S
C34 H62 0.930 1_554 S
N35 C34 1.373 . S
N35 C37 1.340 . S
N36 C33 1.368 . S
N36 C37 1.321 . S
N36 Co39 2.135 . S
C37 N35 1.340 . S
C37 N36 1.321 . S
C37 H61 0.930 . S
H38 C33 0.931 . S
Co39 N36 2.135 . S
Co39 N42 2.121 . S
Co39 O47 2.055 . S
Co39 O50 2.039 . S
Co39 N53 2.140 . S
C40 O41 1.227 . S
C40 O50 1.265 . S
O41 C40 1.227 . S
N42 Co39 2.121 . S
N42 C44 1.375 . S
N42 C45 1.313 . S
C43 C44 1.338 . S
C43 N46 1.377 . S
C43 H63 0.930 . S
C44 N42 1.375 . S
C44 C43 1.338 . S
C44 H48 0.931 . S
C45 N42 1.313 . S
C45 N46 1.344 . S
C45 H49 0.930 . S
N46 C43 1.377 . S
N46 C45 1.344 . S
O47 Co39 2.055 . S
O47 C51 1.253 . S
H48 C44 0.931 . S
H49 C45 0.930 . S
O50 Co39 2.039 . S
O50 C40 1.265 . S
C51 O47 1.253 . S
C51 O52 1.227 . S
O52 C51 1.227 . S
N53 Co39 2.140 . S
N53 C56 1.346 . S
N53 C57 1.345 . S
C54 C55 1.387 . S
C54 C58 1.391 . S
C55 C54 1.387 . S
C55 C56 1.369 . S
C55 H64 0.929 . S
C56 N53 1.346 . S
C56 C55 1.369 . S
C56 H59 0.928 . S
C57 N53 1.345 . S
C57 C58 1.371 . S
C57 H60 0.931 . S
C58 C54 1.391 . S
C58 C57 1.371 . S
C58 H65 0.930 . S
H59 C56 0.928 . S
H60 C57 0.931 . S
H61 C37 0.930 . S
H62 C34 0.930 1_556 S
H63 C43 0.930 . S
H64 C55 0.929 . S
H65 C58 0.930 . S
C66 C67 1.351 . S
C66 N69 1.368 . S
C66 H71 0.931 . S
C67 C66 1.351 . S
C67 N68 1.373 . S
C67 H95 0.930 1_554 S
N68 C67 1.373 . S
N68 C70 1.340 . S
N69 C66 1.368 . S
N69 C70 1.321 . S
N69 Co72 2.135 . S
C70 N68 1.340 . S
C70 N69 1.321 . S
C70 H94 0.930 . S
H71 C66 0.931 . S
Co72 N69 2.135 . S
Co72 N75 2.121 . S
Co72 O80 2.055 . S
Co72 O83 2.039 . S
Co72 N86 2.140 . S
C73 O74 1.227 . S
C73 O83 1.265 . S
O74 C73 1.227 . S
N75 Co72 2.121 . S
N75 C77 1.375 . S
N75 C78 1.313 . S
C76 C77 1.338 . S
C76 N79 1.377 . S
C76 H96 0.930 . S
C77 N75 1.375 . S
C77 C76 1.338 . S
C77 H81 0.931 . S
C78 N75 1.313 . S
C78 N79 1.344 . S
C78 H82 0.930 . S
N79 C76 1.377 . S
N79 C78 1.344 . S
O80 Co72 2.055 . S
O80 C84 1.253 . S
H81 C77 0.931 . S
H82 C78 0.930 . S
O83 Co72 2.039 . S
O83 C73 1.265 . S
C84 O80 1.253 . S
C84 O85 1.227 . S
O85 C84 1.227 . S
N86 Co72 2.140 . S
N86 C89 1.346 . S
N86 C90 1.345 . S
C87 C88 1.387 . S
C87 C91 1.391 . S
C88 C87 1.387 . S
C88 C89 1.369 . S
C88 H97 0.929 . S
C89 N86 1.346 . S
C89 C88 1.369 . S
C89 H92 0.928 . S
C90 N86 1.345 . S
C90 C91 1.371 . S
C90 H93 0.931 . S
C91 C87 1.391 . S
C91 C90 1.371 . S
C91 H98 0.930 . S
H92 C89 0.928 . S
H93 C90 0.931 . S
H94 C70 0.930 . S
H95 C67 0.930 1_556 S
H96 C76 0.930 . S
H97 C88 0.929 . S
H98 C91 0.930 . S
C99 C100 1.351 . S
C99 N102 1.368 . S
C99 H104 0.931 . S
C100 C99 1.351 . S
C100 N101 1.373 . S
C100 H128 0.930 . S
N101 C100 1.373 . S
N101 C103 1.340 . S
N102 C99 1.368 . S
N102 C103 1.321 . S
N102 Co105 2.135 . S
C103 N101 1.340 . S
C103 N102 1.321 . S
C103 H127 0.930 . S
H104 C99 0.931 . S
Co105 N102 2.135 . S
Co105 N108 2.121 . S
Co105 O113 2.055 . S
Co105 O116 2.039 . S
Co105 N119 2.140 . S
C106 O107 1.227 . S
C106 O116 1.265 . S
O107 C106 1.227 . S
N108 Co105 2.121 . S
N108 C110 1.375 . S
N108 C111 1.313 . S
C109 C110 1.338 . S
C109 N112 1.377 . S
C109 H129 0.930 . S
C110 N108 1.375 . S
C110 C109 1.338 . S
C110 H114 0.931 . S
C111 N108 1.313 . S
C111 N112 1.344 . S
C111 H115 0.930 . S
N112 C109 1.377 . S
N112 C111 1.344 . S
O113 Co105 2.055 . S
O113 C117 1.253 . S
H114 C110 0.931 . S
H115 C111 0.930 . S
O116 Co105 2.039 . S
O116 C106 1.265 . S
C117 O113 1.253 . S
C117 O118 1.227 . S
O118 C117 1.227 . S
N119 Co105 2.140 . S
N119 C122 1.346 . S
N119 C123 1.345 . S
C120 C121 1.387 . S
C120 C124 1.391 . S
C121 C120 1.387 . S
C121 C122 1.369 . S
C121 H130 0.929 . S
C122 N119 1.346 . S
C122 C121 1.369 . S
C122 H125 0.928 . S
C123 N119 1.345 . S
C123 C124 1.371 . S
C123 H126 0.931 . S
C124 C120 1.391 . S
C124 C123 1.371 . S
C124 H131 0.930 . S
H125 C122 0.928 . S
H126 C123 0.931 . S
H127 C103 0.930 . S
H128 C100 0.930 . S
H129 C109 0.930 . S
H130 C121 0.929 . S
H131 C124 0.930 . S
C132 C133 1.351 . S
C132 N135 1.368 . S
C132 H137 0.931 . S
C133 C132 1.351 . S
C133 N134 1.373 . S
C133 H161 0.930 . S
N134 C133 1.373 . S
N134 C136 1.340 . S
N135 C132 1.368 . S
N135 C136 1.321 . S
N135 Co138 2.135 . S
C136 N134 1.340 . S
C136 N135 1.321 . S
C136 H160 0.930 . S
H137 C132 0.931 . S
Co138 N135 2.135 . S
Co138 N141 2.121 . S
Co138 O146 2.055 . S
Co138 O149 2.039 . S
Co138 N152 2.140 . S
C139 O140 1.227 . S
C139 O149 1.265 . S
O140 C139 1.227 . S
N141 Co138 2.121 . S
N141 C143 1.375 . S
N141 C144 1.313 . S
C142 C143 1.338 . S
C142 N145 1.377 . S
C142 H162 0.930 . S
C143 N141 1.375 . S
C143 C142 1.338 . S
C143 H147 0.931 . S
C144 N141 1.313 . S
C144 N145 1.344 . S
C144 H148 0.930 . S
N145 C142 1.377 . S
N145 C144 1.344 . S
O146 Co138 2.055 . S
O146 C150 1.253 . S
H147 C143 0.931 . S
H148 C144 0.930 . S
O149 Co138 2.039 . S
O149 C139 1.265 . S
C150 O146 1.253 . S
C150 O151 1.227 . S
O151 C150 1.227 . S
N152 Co138 2.140 . S
N152 C155 1.346 . S
N152 C156 1.345 . S
C153 C154 1.387 . S
C153 C157 1.391 . S
C154 C153 1.387 . S
C154 C155 1.369 . S
C154 H163 0.929 . S
C155 N152 1.346 . S
C155 C154 1.369 . S
C155 H158 0.928 . S
C156 N152 1.345 . S
C156 C157 1.371 . S
C156 H159 0.931 . S
C157 C153 1.391 . S
C157 C156 1.371 . S
C157 H164 0.930 . S
H158 C155 0.928 . S
H159 C156 0.931 . S
H160 C136 0.930 . S
H161 C133 0.930 . S
H162 C142 0.930 . S
H163 C154 0.929 . S
H164 C157 0.930 . S
C165 C166 1.351 . S
C165 N168 1.368 . S
C165 H170 0.931 . S
C166 C165 1.351 . S
C166 N167 1.373 . S
C166 H194 0.930 . S
N167 C166 1.373 . S
N167 C169 1.340 . S
N168 C165 1.368 . S
N168 C169 1.321 . S
N168 Co171 2.135 . S
C169 N167 1.340 . S
C169 N168 1.321 . S
C169 H193 0.930 . S
H170 C165 0.931 . S
Co171 N168 2.135 . S
Co171 N174 2.121 . S
Co171 O179 2.055 . S
Co171 O182 2.039 . S
Co171 N185 2.140 . S
C172 O173 1.227 . S
C172 O182 1.265 . S
O173 C172 1.227 . S
N174 Co171 2.121 . S
N174 C176 1.375 . S
N174 C177 1.313 . S
C175 C176 1.338 . S
C175 N178 1.377 . S
C175 H195 0.930 . S
C176 N174 1.375 . S
C176 C175 1.338 . S
C176 H180 0.931 . S
C177 N174 1.313 . S
C177 N178 1.344 . S
C177 H181 0.930 . S
N178 C175 1.377 . S
N178 C177 1.344 . S
O179 Co171 2.055 . S
O179 C183 1.253 . S
H180 C176 0.931 . S
H181 C177 0.930 . S
O182 Co171 2.039 . S
O182 C172 1.265 . S
C183 O179 1.253 . S
C183 O184 1.227 . S
O184 C183 1.227 . S
N185 Co171 2.140 . S
N185 C188 1.346 . S
N185 C189 1.345 . S
C186 C187 1.387 . S
C186 C190 1.391 . S
C187 C186 1.387 . S
C187 C188 1.369 . S
C187 H196 0.929 . S
C188 N185 1.346 . S
C188 C187 1.369 . S
C188 H191 0.928 . S
C189 N185 1.345 . S
C189 C190 1.371 . S
C189 H192 0.931 . S
C190 C186 1.391 . S
C190 C189 1.371 . S
C190 H197 0.930 . S
H191 C188 0.928 . S
H192 C189 0.931 . S
H193 C169 0.930 . S
H194 C166 0.930 . S
H195 C175 0.930 . S
H196 C187 0.929 . S
H197 C190 0.930 . S
C198 C199 1.351 . S
C198 N201 1.368 . S
C198 H203 0.931 . S
C199 C198 1.351 . S
C199 N200 1.373 . S
C199 H227 0.930 1_556 S
N200 C199 1.373 . S
N200 C202 1.340 . S
N201 C198 1.368 . S
N201 C202 1.321 . S
N201 Co204 2.135 . S
C202 N200 1.340 . S
C202 N201 1.321 . S
C202 H226 0.930 . S
H203 C198 0.931 . S
Co204 N201 2.135 . S
Co204 N207 2.121 . S
Co204 O212 2.055 . S
Co204 O215 2.039 . S
Co204 N218 2.140 . S
C205 O206 1.227 . S
C205 O215 1.265 . S
O206 C205 1.227 . S
N207 Co204 2.121 . S
N207 C209 1.375 . S
N207 C210 1.313 . S
C208 C209 1.338 . S
C208 N211 1.377 . S
C208 H228 0.930 . S
C209 N207 1.375 . S
C209 C208 1.338 . S
C209 H213 0.931 . S
C210 N207 1.313 . S
C210 N211 1.344 . S
C210 H214 0.930 . S
N211 C208 1.377 . S
N211 C210 1.344 . S
O212 Co204 2.055 . S
O212 C216 1.253 . S
H213 C209 0.931 . S
H214 C210 0.930 . S
O215 Co204 2.039 . S
O215 C205 1.265 . S
C216 O212 1.253 . S
C216 O217 1.227 . S
O217 C216 1.227 . S
N218 Co204 2.140 . S
N218 C221 1.346 . S
N218 C222 1.345 . S
C219 C220 1.387 . S
C219 C223 1.391 . S
C220 C219 1.387 . S
C220 C221 1.369 . S
C220 H229 0.929 . S
C221 N218 1.346 . S
C221 C220 1.369 . S
C221 H224 0.928 . S
C222 N218 1.345 . S
C222 C223 1.371 . S
C222 H225 0.931 . S
C223 C219 1.391 . S
C223 C222 1.371 . S
C223 H230 0.930 . S
H224 C221 0.928 . S
H225 C222 0.931 . S
H226 C202 0.930 . S
H227 C199 0.930 1_554 S
H228 C208 0.930 . S
H229 C220 0.929 . S
H230 C223 0.930 . S
C231 C232 1.351 . S
C231 N234 1.368 . S
C231 H236 0.931 . S
C232 C231 1.351 . S
C232 N233 1.373 . S
C232 H260 0.930 1_556 S
N233 C232 1.373 . S
N233 C235 1.340 . S
N234 C231 1.368 . S
N234 C235 1.321 . S
N234 Co237 2.135 . S
C235 N233 1.340 . S
C235 N234 1.321 . S
C235 H259 0.930 . S
H236 C231 0.931 . S
Co237 N234 2.135 . S
Co237 N240 2.121 . S
Co237 O245 2.055 . S
Co237 O248 2.039 . S
Co237 N251 2.140 . S
C238 O239 1.227 . S
C238 O248 1.265 . S
O239 C238 1.227 . S
N240 Co237 2.121 . S
N240 C242 1.375 . S
N240 C243 1.313 . S
C241 C242 1.338 . S
C241 N244 1.377 . S
C241 H261 0.930 . S
C242 N240 1.375 . S
C242 C241 1.338 . S
C242 H246 0.931 . S
C243 N240 1.313 . S
C243 N244 1.344 . S
C243 H247 0.930 . S
N244 C241 1.377 . S
N244 C243 1.344 . S
O245 Co237 2.055 . S
O245 C249 1.253 . S
H246 C242 0.931 . S
H247 C243 0.930 . S
O248 Co237 2.039 . S
O248 C238 1.265 . S
C249 O245 1.253 . S
C249 O250 1.227 . S
O250 C249 1.227 . S
N251 Co237 2.140 . S
N251 C254 1.346 . S
N251 C255 1.345 . S
C252 C253 1.387 . S
C252 C256 1.391 . S
C253 C252 1.387 . S
C253 C254 1.369 . S
C253 H262 0.929 . S
C254 N251 1.346 . S
C254 C253 1.369 . S
C254 H257 0.928 . S
C255 N251 1.345 . S
C255 C256 1.371 . S
C255 H258 0.931 . S
C256 C252 1.391 . S
C256 C255 1.371 . S
C256 H263 0.930 . S
H257 C254 0.928 . S
H258 C255 0.931 . S
H259 C235 0.930 . S
H260 C232 0.930 1_554 S
H261 C241 0.930 . S
H262 C253 0.929 . S
H263 C256 0.930 . S
C264 C265 1.351 . S
C264 N267 1.368 . S
C264 H269 0.931 . S
C265 C264 1.351 . S
C265 N266 1.373 . S
C265 H293 0.930 1_556 S
N266 C265 1.373 . S
N266 C268 1.340 . S
N267 C264 1.368 . S
N267 C268 1.321 . S
N267 Co270 2.135 . S
C268 N266 1.340 . S
C268 N267 1.321 . S
C268 H292 0.930 . S
H269 C264 0.931 . S
Co270 N267 2.135 . S
Co270 N273 2.121 . S
Co270 O278 2.055 . S
Co270 O281 2.039 . S
Co270 N284 2.140 . S
C271 O272 1.227 . S
C271 O281 1.265 . S
O272 C271 1.227 . S
N273 Co270 2.121 . S
N273 C275 1.375 . S
N273 C276 1.313 . S
C274 C275 1.338 . S
C274 N277 1.377 . S
C274 H294 0.930 . S
C275 N273 1.375 . S
C275 C274 1.338 . S
C275 H279 0.931 . S
C276 N273 1.313 . S
C276 N277 1.344 . S
C276 H280 0.930 . S
N277 C274 1.377 . S
N277 C276 1.344 . S
O278 Co270 2.055 . S
O278 C282 1.253 . S
H279 C275 0.931 . S
H280 C276 0.930 . S
O281 Co270 2.039 . S
O281 C271 1.265 . S
C282 O278 1.253 . S
C282 O283 1.227 . S
O283 C282 1.227 . S
N284 Co270 2.140 . S
N284 C287 1.346 . S
N284 C288 1.345 . S
C285 C286 1.387 . S
C285 C289 1.391 . S
C286 C285 1.387 . S
C286 C287 1.369 . S
C286 H295 0.929 . S
C287 N284 1.346 . S
C287 C286 1.369 . S
C287 H290 0.928 . S
C288 N284 1.345 . S
C288 C289 1.371 . S
C288 H291 0.931 . S
C289 C285 1.391 . S
C289 C288 1.371 . S
C289 H296 0.930 . S
H290 C287 0.928 . S
H291 C288 0.931 . S
H292 C268 0.930 . S
H293 C265 0.930 1_554 S
H294 C274 0.930 . S
H295 C286 0.929 . S
H296 C289 0.930 . S
C297 C298 1.351 . S
C297 N300 1.368 . S
C297 H302 0.931 . S
C298 C297 1.351 . S
C298 N299 1.373 . S
C298 H326 0.930 . S
N299 C298 1.373 . S
N299 C301 1.340 . S
N300 C297 1.368 . S
N300 C301 1.321 . S
N300 Co303 2.135 . S
C301 N299 1.340 . S
C301 N300 1.321 . S
C301 H325 0.930 . S
H302 C297 0.931 . S
Co303 N300 2.135 . S
Co303 N306 2.121 . S
Co303 O311 2.055 . S
Co303 O314 2.039 . S
Co303 N317 2.140 . S
C304 O305 1.227 . S
C304 O314 1.265 . S
O305 C304 1.227 . S
N306 Co303 2.121 . S
N306 C308 1.375 . S
N306 C309 1.313 . S
C307 C308 1.338 . S
C307 N310 1.377 . S
C307 H327 0.930 . S
C308 N306 1.375 . S
C308 C307 1.338 . S
C308 H312 0.931 . S
C309 N306 1.313 . S
C309 N310 1.344 . S
C309 H313 0.930 . S
N310 C307 1.377 . S
N310 C309 1.344 . S
O311 Co303 2.055 . S
O311 C315 1.253 . S
H312 C308 0.931 . S
H313 C309 0.930 . S
O314 Co303 2.039 . S
O314 C304 1.265 . S
C315 O311 1.253 . S
C315 O316 1.227 . S
O316 C315 1.227 . S
N317 Co303 2.140 . S
N317 C320 1.346 . S
N317 C321 1.345 . S
C318 C319 1.387 . S
C318 C322 1.391 . S
C319 C318 1.387 . S
C319 C320 1.369 . S
C319 H328 0.929 . S
C320 N317 1.346 . S
C320 C319 1.369 . S
C320 H323 0.928 . S
C321 N317 1.345 . S
C321 C322 1.371 . S
C321 H324 0.931 . S
C322 C318 1.391 . S
C322 C321 1.371 . S
C322 H329 0.930 . S
H323 C320 0.928 . S
H324 C321 0.931 . S
H325 C301 0.930 . S
H326 C298 0.930 . S
H327 C307 0.930 . S
H328 C319 0.929 . S
H329 C322 0.930 . S
C330 C331 1.351 . S
C330 N333 1.368 . S
C330 H335 0.931 . S
C331 C330 1.351 . S
C331 N332 1.373 . S
C331 H359 0.930 . S
N332 C331 1.373 . S
N332 C334 1.340 . S
N333 C330 1.368 . S
N333 C334 1.321 . S
N333 Co336 2.135 . S
C334 N332 1.340 . S
C334 N333 1.321 . S
C334 H358 0.930 . S
H335 C330 0.931 . S
Co336 N333 2.135 . S
Co336 N339 2.121 . S
Co336 O344 2.055 . S
Co336 O347 2.039 . S
Co336 N350 2.140 . S
C337 O338 1.227 . S
C337 O347 1.265 . S
O338 C337 1.227 . S
N339 Co336 2.121 . S
N339 C341 1.375 . S
N339 C342 1.313 . S
C340 C341 1.338 . S
C340 N343 1.377 . S
C340 H360 0.930 . S
C341 N339 1.375 . S
C341 C340 1.338 . S
C341 H345 0.931 . S
C342 N339 1.313 . S
C342 N343 1.344 . S
C342 H346 0.930 . S
N343 C340 1.377 . S
N343 C342 1.344 . S
O344 Co336 2.055 . S
O344 C348 1.253 . S
H345 C341 0.931 . S
H346 C342 0.930 . S
O347 Co336 2.039 . S
O347 C337 1.265 . S
C348 O344 1.253 . S
C348 O349 1.227 . S
O349 C348 1.227 . S
N350 Co336 2.140 . S
N350 C353 1.346 . S
N350 C354 1.345 . S
C351 C352 1.387 . S
C351 C355 1.391 . S
C352 C351 1.387 . S
C352 C353 1.369 . S
C352 H361 0.929 . S
C353 N350 1.346 . S
C353 C352 1.369 . S
C353 H356 0.928 . S
C354 N350 1.345 . S
C354 C355 1.371 . S
C354 H357 0.931 . S
C355 C351 1.391 . S
C355 C354 1.371 . S
C355 H362 0.930 . S
H356 C353 0.928 . S
H357 C354 0.931 . S
H358 C334 0.930 . S
H359 C331 0.930 . S
H360 C340 0.930 . S
H361 C352 0.929 . S
H362 C355 0.930 . S
C363 C364 1.351 . S
C363 N366 1.368 . S
C363 H368 0.931 . S
C364 C363 1.351 . S
C364 N365 1.373 . S
C364 H392 0.930 . S
N365 C364 1.373 . S
N365 C367 1.340 . S
N366 C363 1.368 . S
N366 C367 1.321 . S
N366 Co369 2.135 . S
C367 N365 1.340 . S
C367 N366 1.321 . S
C367 H391 0.930 . S
H368 C363 0.931 . S
Co369 N366 2.135 . S
Co369 N372 2.121 . S
Co369 O377 2.055 . S
Co369 O380 2.039 . S
Co369 N383 2.140 . S
C370 O371 1.227 . S
C370 O380 1.265 . S
O371 C370 1.227 . S
N372 Co369 2.121 . S
N372 C374 1.375 . S
N372 C375 1.313 . S
C373 C374 1.338 . S
C373 N376 1.377 . S
C373 H393 0.930 . S
C374 N372 1.375 . S
C374 C373 1.338 . S
C374 H378 0.931 . S
C375 N372 1.313 . S
C375 N376 1.344 . S
C375 H379 0.930 . S
N376 C373 1.377 . S
N376 C375 1.344 . S
O377 Co369 2.055 . S
O377 C381 1.253 . S
H378 C374 0.931 . S
H379 C375 0.930 . S
O380 Co369 2.039 . S
O380 C370 1.265 . S
C381 O377 1.253 . S
C381 O382 1.227 . S
O382 C381 1.227 . S
N383 Co369 2.140 . S
N383 C386 1.346 . S
N383 C387 1.345 . S
C384 C385 1.387 . S
C384 C388 1.391 . S
C385 C384 1.387 . S
C385 C386 1.369 . S
C385 H394 0.929 . S
C386 N383 1.346 . S
C386 C385 1.369 . S
C386 H389 0.928 . S
C387 N383 1.345 . S
C387 C388 1.371 . S
C387 H390 0.931 . S
C388 C384 1.391 . S
C388 C387 1.371 . S
C388 H395 0.930 . S
H389 C386 0.928 . S
H390 C387 0.931 . S
H391 C367 0.930 . S
H392 C364 0.930 . S
H393 C373 0.930 . S
H394 C385 0.929 . S
H395 C388 0.930 . S
C396 C397 1.363 . S
C396 C402 1.379 . S
C396 N404 1.356 . S
C397 C396 1.363 . S
C397 C403 1.363 . S
C398 C399 1.363 . S
C398 C403 1.379 . S
C398 N405 1.356 . S
C399 C398 1.363 . S
C399 C402 1.363 . S
N400 C402 1.356 . S
N400 H412 0.984 . S
N400 H413 0.985 . S
N401 C403 1.356 . S
N401 H406 0.984 . S
N401 H407 0.985 . S
C402 C396 1.379 . S
C402 C399 1.363 . S
C402 N400 1.356 . S
C403 C397 1.363 . S
C403 C398 1.379 . S
C403 N401 1.356 . S
N404 C396 1.356 . S
N404 H410 0.984 . S
N404 H411 0.984 . S
N405 C398 1.356 . S
N405 H408 0.984 . S
N405 H409 0.985 . S
H406 N401 0.984 . S
H407 N401 0.985 . S
H408 N405 0.984 . S
H409 N405 0.985 . S
H410 N404 0.984 . S
H411 N404 0.984 . S
H412 N400 0.984 . S
H413 N400 0.985 . S
C414 C415 1.363 . S
C414 C420 1.379 . S
C414 N422 1.356 . S
C415 C414 1.363 . S
C415 C421 1.363 . S
C416 C417 1.363 . S
C416 C421 1.379 . S
C416 N423 1.356 . S
C417 C416 1.363 . S
C417 C420 1.363 . S
N418 C420 1.356 . S
N418 H430 0.984 . S
N418 H431 0.985 . S
N419 C421 1.356 . S
N419 H424 0.984 . S
N419 H425 0.985 . S
C420 C414 1.379 . S
C420 C417 1.363 . S
C420 N418 1.356 . S
C421 C415 1.363 . S
C421 C416 1.379 . S
C421 N419 1.356 . S
N422 C414 1.356 . S
N422 H428 0.984 . S
N422 H429 0.984 . S
N423 C416 1.356 . S
N423 H426 0.984 . S
N423 H427 0.985 . S
H424 N419 0.984 . S
H425 N419 0.985 . S
H426 N423 0.984 . S
H427 N423 0.985 . S
H428 N422 0.984 . S
H429 N422 0.984 . S
H430 N418 0.984 . S
H431 N418 0.985 . S
C432 C433 1.363 . S
C432 C438 1.379 . S
C432 N440 1.356 . S
C433 C432 1.363 . S
C433 C439 1.363 . S
C434 C435 1.363 . S
C434 C439 1.379 . S
C434 N441 1.356 . S
C435 C434 1.363 . S
C435 C438 1.363 . S
N436 C438 1.356 . S
N436 H448 0.984 . S
N436 H449 0.985 . S
N437 C439 1.356 . S
N437 H442 0.984 . S
N437 H443 0.985 . S
C438 C432 1.379 . S
C438 C435 1.363 . S
C438 N436 1.356 . S
C439 C433 1.363 . S
C439 C434 1.379 . S
C439 N437 1.356 . S
N440 C432 1.356 . S
N440 H446 0.984 . S
N440 H447 0.984 . S
N441 C434 1.356 . S
N441 H444 0.984 . S
N441 H445 0.985 . S
H442 N437 0.984 . S
H443 N437 0.985 . S
H444 N441 0.984 . S
H445 N441 0.985 . S
H446 N440 0.984 . S
H447 N440 0.984 . S
H448 N436 0.984 . S
H449 N436 0.985 . S
C450 C451 1.363 . S
C450 C456 1.379 . S
C450 N458 1.356 . S
C451 C450 1.363 . S
C451 C457 1.363 . S
C452 C453 1.363 . S
C452 C457 1.379 . S
C452 N459 1.356 . S
C453 C452 1.363 . S
C453 C456 1.363 . S
N454 C456 1.356 . S
N454 H466 0.984 . S
N454 H467 0.985 . S
N455 C457 1.356 . S
N455 H460 0.984 . S
N455 H461 0.985 . S
C456 C450 1.379 . S
C456 C453 1.363 . S
C456 N454 1.356 . S
C457 C451 1.363 . S
C457 C452 1.379 . S
C457 N455 1.356 . S
N458 C450 1.356 . S
N458 H464 0.984 . S
N458 H465 0.984 . S
N459 C452 1.356 . S
N459 H462 0.984 . S
N459 H463 0.985 . S
H460 N455 0.984 . S
H461 N455 0.985 . S
H462 N459 0.984 . S
H463 N459 0.985 . S
H464 N458 0.984 . S
H465 N458 0.984 . S
H466 N454 0.984 . S
H467 N454 0.985 . S
C468 C469 1.363 . S
C468 C474 1.379 . S
C468 N476 1.356 . S
C469 C468 1.363 . S
C469 C475 1.363 . S
C470 C471 1.363 . S
C470 C475 1.379 . S
C470 N477 1.356 . S
C471 C470 1.363 . S
C471 C474 1.363 . S
N472 C474 1.356 . S
N472 H484 0.984 . S
N472 H485 0.985 . S
N473 C475 1.356 . S
N473 H478 0.984 . S
N473 H479 0.985 . S
C474 C468 1.379 . S
C474 C471 1.363 . S
C474 N472 1.356 . S
C475 C469 1.363 . S
C475 C470 1.379 . S
C475 N473 1.356 . S
N476 C468 1.356 . S
N476 H482 0.984 . S
N476 H483 0.984 . S
N477 C470 1.356 . S
N477 H480 0.984 . S
N477 H481 0.985 . S
H478 N473 0.984 . S
H479 N473 0.985 . S
H480 N477 0.984 . S
H481 N477 0.985 . S
H482 N476 0.984 . S
H483 N476 0.984 . S
H484 N472 0.984 . S
H485 N472 0.985 . S
C486 C487 1.363 . S
C486 C492 1.379 . S
C486 N494 1.356 . S
C487 C486 1.363 . S
C487 C493 1.363 . S
C488 C489 1.363 . S
C488 C493 1.379 . S
C488 N495 1.356 . S
C489 C488 1.363 . S
C489 C492 1.363 . S
N490 C492 1.356 . S
N490 H502 0.984 . S
N490 H503 0.985 . S
N491 C493 1.356 . S
N491 H496 0.984 . S
N491 H497 0.985 . S
C492 C486 1.379 . S
C492 C489 1.363 . S
C492 N490 1.356 . S
C493 C487 1.363 . S
C493 C488 1.379 . S
C493 N491 1.356 . S
N494 C486 1.356 . S
N494 H500 0.984 . S
N494 H501 0.984 . S
N495 C488 1.356 . S
N495 H498 0.984 . S
N495 H499 0.985 . S
H496 N491 0.984 . S
H497 N491 0.985 . S
H498 N495 0.984 . S
H499 N495 0.985 . S
H500 N494 0.984 . S
H501 N494 0.984 . S
H502 N490 0.984 . S
H503 N490 0.985 . S
C504 C505 1.364 . S
C504 C510 1.379 . S
C504 N512 1.356 . S
C505 C504 1.364 . S
C505 C511 1.362 1_544 S
C506 C507 1.364 . S
C506 C511 1.379 . S
C506 N513 1.356 . S
C507 C506 1.364 . S
C507 C510 1.362 1_566 S
N508 C510 1.356 . S
N508 H520 0.984 . S
N508 H521 0.985 . S
N509 C511 1.356 . S
N509 H514 0.984 . S
N509 H515 0.985 . S
C510 C504 1.379 . S
C510 C507 1.362 1_544 S
C510 N508 1.356 . S
C511 C505 1.362 1_566 S
C511 C506 1.379 . S
C511 N509 1.356 . S
N512 C504 1.356 . S
N512 H518 0.984 . S
N512 H519 0.984 . S
N513 C506 1.356 . S
N513 H516 0.984 . S
N513 H517 0.985 . S
H514 N509 0.984 . S
H515 N509 0.985 . S
H516 N513 0.984 . S
H517 N513 0.985 . S
H518 N512 0.984 . S
H519 N512 0.984 . S
H520 N508 0.984 . S
H521 N508 0.985 . S
C522 C523 1.364 . S
C522 C528 1.379 . S
C522 N530 1.356 . S
C523 C522 1.364 . S
C523 C529 1.362 1_654 S
C524 C525 1.364 . S
C524 C529 1.379 . S
C524 N531 1.356 . S
C525 C524 1.364 . S
C525 C528 1.362 1_456 S
N526 C528 1.356 . S
N526 H538 0.984 . S
N526 H539 0.985 . S
N527 C529 1.356 . S
N527 H532 0.984 . S
N527 H533 0.985 . S
C528 C522 1.379 . S
C528 C525 1.362 1_654 S
C528 N526 1.356 . S
C529 C523 1.362 1_456 S
C529 C524 1.379 . S
C529 N527 1.356 . S
N530 C522 1.356 . S
N530 H536 0.984 . S
N530 H537 0.984 . S
N531 C524 1.356 . S
N531 H534 0.984 . S
N531 H535 0.985 . S
H532 N527 0.984 . S
H533 N527 0.985 . S
H534 N531 0.984 . S
H535 N531 0.985 . S
H536 N530 0.984 . S
H537 N530 0.984 . S
H538 N526 0.984 . S
H539 N526 0.985 . S
C540 C541 1.364 . S
C540 C546 1.379 . S
C540 N548 1.356 . S
C541 C540 1.364 . S
C541 C547 1.362 1_556 S
C542 C543 1.364 . S
C542 C547 1.379 . S
C542 N549 1.356 . S
C543 C542 1.364 . S
C543 C546 1.362 1_554 S
N544 C546 1.356 . S
N544 H556 0.984 . S
N544 H557 0.985 . S
N545 C547 1.356 . S
N545 H550 0.984 . S
N545 H551 0.985 . S
C546 C540 1.379 . S
C546 C543 1.362 1_556 S
C546 N544 1.356 . S
C547 C541 1.362 1_554 S
C547 C542 1.379 . S
C547 N545 1.356 . S
N548 C540 1.356 . S
N548 H554 0.984 . S
N548 H555 0.984 . S
N549 C542 1.356 . S
N549 H552 0.984 . S
N549 H553 0.985 . S
H550 N545 0.984 . S
H551 N545 0.985 . S
H552 N549 0.984 . S
H553 N549 0.985 . S
H554 N548 0.984 . S
H555 N548 0.984 . S
H556 N544 0.984 . S
H557 N544 0.985 . S
C558 C559 1.363 . S
C558 C564 1.379 . S
C558 N566 1.356 . S
C559 C558 1.363 . S
C559 C565 1.363 1_455 S
C560 C561 1.363 . S
C560 C565 1.379 . S
C560 N567 1.356 . S
C561 C560 1.363 . S
C561 C564 1.363 1_655 S
N562 C564 1.356 . S
N562 H574 0.984 . S
N562 H575 0.985 . S
N563 C565 1.356 . S
N563 H568 0.984 . S
N563 H569 0.985 . S
C564 C558 1.379 . S
C564 C561 1.363 1_455 S
C564 N562 1.356 . S
C565 C559 1.363 1_655 S
C565 C560 1.379 . S
C565 N563 1.356 . S
N566 C558 1.356 . S
N566 H572 0.984 . S
N566 H573 0.984 . S
N567 C560 1.356 . S
N567 H570 0.984 . S
N567 H571 0.985 . S
H568 N563 0.984 . S
H569 N563 0.985 . S
H570 N567 0.984 . S
H571 N567 0.985 . S
H572 N566 0.984 . S
H573 N566 0.984 . S
H574 N562 0.984 . S
H575 N562 0.985 . S
C576 C577 1.363 . S
C576 C582 1.379 . S
C576 N584 1.356 . S
C577 C576 1.363 . S
C577 C583 1.363 . S
C578 C579 1.363 . S
C578 C583 1.379 . S
C578 N585 1.356 . S
C579 C578 1.363 . S
C579 C582 1.363 . S
N580 C582 1.356 . S
N580 H592 0.984 . S
N580 H593 0.985 . S
N581 C583 1.356 . S
N581 H586 0.984 . S
N581 H587 0.985 . S
C582 C576 1.379 . S
C582 C579 1.363 . S
C582 N580 1.356 . S
C583 C577 1.363 . S
C583 C578 1.379 . S
C583 N581 1.356 . S
N584 C576 1.356 . S
N584 H590 0.984 . S
N584 H591 0.984 . S
N585 C578 1.356 . S
N585 H588 0.984 . S
N585 H589 0.985 . S
H586 N581 0.984 . S
H587 N581 0.985 . S
H588 N585 0.984 . S
H589 N585 0.985 . S
H590 N584 0.984 . S
H591 N584 0.984 . S
H592 N580 0.984 . S
H593 N580 0.985 . S
C594 C595 1.363 1_565 S
C594 C600 1.379 . S
C594 N602 1.356 . S
C595 C594 1.363 1_545 S
C595 C601 1.363 . S
C596 C597 1.363 1_545 S
C596 C601 1.379 . S
C596 N603 1.356 . S
C597 C596 1.363 1_565 S
C597 C600 1.363 . S
N598 C600 1.356 . S
N598 H610 0.984 . S
N598 H611 0.985 . S
N599 C601 1.356 . S
N599 H604 0.984 . S
N599 H605 0.985 . S
C600 C594 1.379 . S
C600 C597 1.363 . S
C600 N598 1.356 . S
C601 C595 1.363 . S
C601 C596 1.379 . S
C601 N599 1.356 . S
N602 C594 1.356 . S
N602 H608 0.984 . S
N602 H609 0.984 . S
N603 C596 1.356 . S
N603 H606 0.984 . S
N603 H607 0.985 . S
H604 N599 0.984 . S
H605 N599 0.985 . S
H606 N603 0.984 . S
H607 N603 0.985 . S
H608 N602 0.984 . S
H609 N602 0.984 . S
H610 N598 0.984 . S
H611 N598 0.985 . S
C612 C613 1.363 . S
C612 C618 1.379 . S
C612 N620 1.356 . S
C613 C612 1.363 . S
C613 C619 1.363 . S
C614 C615 1.363 . S
C614 C619 1.379 . S
C614 N621 1.356 . S
C615 C614 1.363 . S
C615 C618 1.363 . S
N616 C618 1.356 . S
N616 H628 0.984 . S
N616 H629 0.985 . S
N617 C619 1.356 . S
N617 H622 0.984 . S
N617 H623 0.985 . S
C618 C612 1.379 . S
C618 C615 1.363 . S
C618 N616 1.356 . S
C619 C613 1.363 . S
C619 C614 1.379 . S
C619 N617 1.356 . S
N620 C612 1.356 . S
N620 H626 0.984 . S
N620 H627 0.984 . S
N621 C614 1.356 . S
N621 H624 0.984 . S
N621 H625 0.985 . S
H622 N617 0.984 . S
H623 N617 0.985 . S
H624 N621 0.984 . S
H625 N621 0.985 . S
H626 N620 0.984 . S
H627 N620 0.984 . S
H628 N616 0.984 . S
H629 N616 0.985 . S
C630 C631 1.363 . S
C630 C636 1.379 . S
C630 N638 1.356 . S
C631 C630 1.363 . S
C631 C637 1.363 . S
C632 C633 1.363 . S
C632 C637 1.379 . S
C632 N639 1.356 . S
C633 C632 1.363 . S
C633 C636 1.363 . S
N634 C636 1.356 . S
N634 H646 0.984 . S
N634 H647 0.985 . S
N635 C637 1.356 . S
N635 H640 0.984 . S
N635 H641 0.985 . S
C636 C630 1.379 . S
C636 C633 1.363 . S
C636 N634 1.356 . S
C637 C631 1.363 . S
C637 C632 1.379 . S
C637 N635 1.356 . S
N638 C630 1.356 . S
N638 H644 0.984 . S
N638 H645 0.984 . S
N639 C632 1.356 . S
N639 H642 0.984 . S
N639 H643 0.985 . S
H640 N635 0.984 . S
H641 N635 0.985 . S
H642 N639 0.984 . S
H643 N639 0.985 . S
H644 N638 0.984 . S
H645 N638 0.984 . S
H646 N634 0.984 . S
H647 N634 0.985 . S
C648 C649 1.363 . S
C648 C654 1.379 . S
C648 N656 1.356 . S
C649 C648 1.363 . S
C649 C655 1.363 . S
C650 C651 1.363 . S
C650 C655 1.379 . S
C650 N657 1.356 . S
C651 C650 1.363 . S
C651 C654 1.363 . S
N652 C654 1.356 . S
N652 H664 0.984 . S
N652 H665 0.985 . S
N653 C655 1.356 . S
N653 H658 0.984 . S
N653 H659 0.985 . S
C654 C648 1.379 . S
C654 C651 1.363 . S
C654 N652 1.356 . S
C655 C649 1.363 . S
C655 C650 1.379 . S
C655 N653 1.356 . S
N656 C648 1.356 . S
N656 H662 0.984 . S
N656 H663 0.984 . S
N657 C650 1.356 . S
N657 H660 0.984 . S
N657 H661 0.985 . S
H658 N653 0.984 . S
H659 N653 0.985 . S
H660 N657 0.984 . S
H661 N657 0.985 . S
H662 N656 0.984 . S
H663 N656 0.984 . S
H664 N652 0.984 . S
H665 N652 0.985 . S
C666 C667 1.363 . S
C666 C672 1.379 . S
C666 N674 1.356 . S
C667 C666 1.363 . S
C667 C673 1.363 . S
C668 C669 1.363 . S
C668 C673 1.379 . S
C668 N675 1.356 . S
C669 C668 1.363 . S
C669 C672 1.363 . S
N670 C672 1.356 . S
N670 H682 0.984 . S
N670 H683 0.985 . S
N671 C673 1.356 . S
N671 H676 0.984 . S
N671 H677 0.985 . S
C672 C666 1.379 . S
C672 C669 1.363 . S
C672 N670 1.356 . S
C673 C667 1.363 . S
C673 C668 1.379 . S
C673 N671 1.356 . S
N674 C666 1.356 . S
N674 H680 0.984 . S
N674 H681 0.984 . S
N675 C668 1.356 . S
N675 H678 0.984 . S
N675 H679 0.985 . S
H676 N671 0.984 . S
H677 N671 0.985 . S
H678 N675 0.984 . S
H679 N675 0.985 . S
H680 N674 0.984 . S
H681 N674 0.984 . S
H682 N670 0.984 . S
H683 N670 0.985 . S
C684 C685 1.363 . S
C684 C690 1.379 . S
C684 N692 1.356 . S
C685 C684 1.363 . S
C685 C691 1.363 . S
C686 C687 1.363 . S
C686 C691 1.379 . S
C686 N693 1.356 . S
C687 C686 1.363 . S
C687 C690 1.363 . S
N688 C690 1.356 . S
N688 H700 0.984 . S
N688 H701 0.985 . S
N689 C691 1.356 . S
N689 H694 0.984 . S
N689 H695 0.985 . S
C690 C684 1.379 . S
C690 C687 1.363 . S
C690 N688 1.356 . S
C691 C685 1.363 . S
C691 C686 1.379 . S
C691 N689 1.356 . S
N692 C684 1.356 . S
N692 H698 0.984 . S
N692 H699 0.984 . S
N693 C686 1.356 . S
N693 H696 0.984 . S
N693 H697 0.985 . S
H694 N689 0.984 . S
H695 N689 0.985 . S
H696 N693 0.984 . S
H697 N693 0.985 . S
H698 N692 0.984 . S
H699 N692 0.984 . S
H700 N688 0.984 . S
H701 N688 0.985 . S
C702 C703 1.363 . S
C702 C708 1.379 . S
C702 N710 1.356 . S
C703 C702 1.363 . S
C703 C709 1.363 . S
C704 C705 1.363 . S
C704 C709 1.379 . S
C704 N711 1.356 . S
C705 C704 1.363 . S
C705 C708 1.363 . S
N706 C708 1.356 . S
N706 H718 0.984 . S
N706 H719 0.985 . S
N707 C709 1.356 . S
N707 H712 0.984 . S
N707 H713 0.985 . S
C708 C702 1.379 . S
C708 C705 1.363 . S
C708 N706 1.356 . S
C709 C703 1.363 . S
C709 C704 1.379 . S
C709 N707 1.356 . S
N710 C702 1.356 . S
N710 H716 0.984 . S
N710 H717 0.984 . S
N711 C704 1.356 . S
N711 H714 0.984 . S
N711 H715 0.985 . S
H712 N707 0.984 . S
H713 N707 0.985 . S
H714 N711 0.984 . S
H715 N711 0.985 . S
H716 N710 0.984 . S
H717 N710 0.984 . S
H718 N706 0.984 . S
H719 N706 0.985 . S
C720 C721 1.363 . S
C720 C726 1.379 . S
C720 N728 1.356 . S
C721 C720 1.363 . S
C721 C727 1.363 . S
C722 C723 1.363 . S
C722 C727 1.379 . S
C722 N729 1.340 1_554 S
C723 C722 1.363 . S
C723 C726 1.363 . S
N724 C726 1.356 . S
N724 H736 0.984 . S
N724 H737 0.985 . S
N725 C727 1.356 . S
N725 H730 0.984 . S
N725 H731 0.985 1_554 S
C726 C720 1.379 . S
C726 C723 1.363 . S
C726 N724 1.356 . S
C727 C721 1.363 . S
C727 C722 1.379 . S
C727 N725 1.356 . S
N728 C720 1.356 . S
N728 H734 0.984 . S
N728 H735 0.984 . S
N729 C722 1.340 1_556 S
N729 H732 0.984 1_556 S
N729 H733 1.002 . S
H730 N725 0.984 . S
H731 N725 0.985 1_556 S
H732 N729 0.984 1_554 S
H733 N729 1.002 . S
H734 N728 0.984 . S
H735 N728 0.984 . S
H736 N724 0.984 . S
H737 N724 0.985 . S
C738 C739 1.363 . S
C738 C744 1.379 . S
C738 N746 1.356 . S
C739 C738 1.363 . S
C739 C745 1.363 . S
C740 C741 1.363 . S
C740 C745 1.379 . S
C740 N747 1.356 1_554 S
C741 C740 1.363 . S
C741 C744 1.363 . S
N742 C744 1.356 . S
N742 H754 0.984 . S
N742 H755 0.985 . S
N743 C745 1.356 . S
N743 H748 0.984 . S
N743 H749 0.985 1_554 S
C744 C738 1.379 . S
C744 C741 1.363 . S
C744 N742 1.356 . S
C745 C739 1.363 . S
C745 C740 1.379 . S
C745 N743 1.356 . S
N746 C738 1.356 . S
N746 H752 0.984 . S
N746 H753 0.984 . S
N747 C740 1.356 1_556 S
N747 H750 0.984 . S
N747 H751 0.985 . S
H748 N743 0.984 . S
H749 N743 0.985 1_556 S
H750 N747 0.984 . S
H751 N747 0.985 . S
H752 N746 0.984 . S
H753 N746 0.984 . S
H754 N742 0.984 . S
H755 N742 0.985 . S
C756 C757 1.363 . S
C756 C762 1.379 . S
C756 N764 1.356 . S
C757 C756 1.363 . S
C757 C763 1.363 . S
C758 C759 1.363 . S
C758 C763 1.379 . S
C758 N765 1.356 . S
C759 C758 1.363 . S
C759 C762 1.363 . S
N760 C762 1.356 . S
N760 H772 0.984 . S
N760 H773 0.985 . S
N761 C763 1.356 . S
N761 H766 0.984 . S
N761 H767 0.985 . S
C762 C756 1.379 . S
C762 C759 1.363 . S
C762 N760 1.356 . S
C763 C757 1.363 . S
C763 C758 1.379 . S
C763 N761 1.356 . S
N764 C756 1.356 . S
N764 H770 0.984 . S
N764 H771 0.984 . S
N765 C758 1.356 . S
N765 H768 0.984 . S
N765 H769 0.985 . S
H766 N761 0.984 . S
H767 N761 0.985 . S
H768 N765 0.984 . S
H769 N765 0.985 . S
H770 N764 0.984 . S
H771 N764 0.984 . S
H772 N760 0.984 . S
H773 N760 0.985 . S
C774 C775 1.363 . S
C774 C780 1.379 . S
C774 N782 1.356 . S
C775 C774 1.363 . S
C775 C781 1.363 . S
C776 C777 1.363 . S
C776 C781 1.379 . S
C776 N783 1.356 . S
C777 C776 1.363 . S
C777 C780 1.363 . S
N778 C780 1.356 . S
N778 H790 0.984 . S
N778 H791 0.985 . S
N779 C781 1.356 . S
N779 H784 0.984 . S
N779 H785 0.985 . S
C780 C774 1.379 . S
C780 C777 1.363 . S
C780 N778 1.356 . S
C781 C775 1.363 . S
C781 C776 1.379 . S
C781 N779 1.356 . S
N782 C774 1.356 . S
N782 H788 0.984 . S
N782 H789 0.984 . S
N783 C776 1.356 . S
N783 H786 0.984 . S
N783 H787 0.985 . S
H784 N779 0.984 . S
H785 N779 0.985 . S
H786 N783 0.984 . S
H787 N783 0.985 . S
H788 N782 0.984 . S
H789 N782 0.984 . S
H790 N778 0.984 . S
H791 N778 0.985 . S
C792 C793 1.363 . S
C792 C798 1.379 . S
C792 N800 1.356 . S
C793 C792 1.363 . S
C793 C799 1.363 . S
C794 C795 1.363 . S
C794 C799 1.379 . S
C794 N801 1.356 . S
C795 C794 1.363 . S
C795 C798 1.363 . S
N796 C798 1.356 . S
N796 H808 0.984 . S
N796 H809 0.985 . S
N797 C799 1.356 . S
N797 H802 0.984 . S
N797 H803 0.985 . S
C798 C792 1.379 . S
C798 C795 1.363 . S
C798 N796 1.356 . S
C799 C793 1.363 . S
C799 C794 1.379 . S
C799 N797 1.356 . S
N800 C792 1.356 . S
N800 H806 0.984 . S
N800 H807 0.984 . S
N801 C794 1.356 . S
N801 H804 0.984 . S
N801 H805 0.985 . S
H802 N797 0.984 . S
H803 N797 0.985 . S
H804 N801 0.984 . S
H805 N801 0.985 . S
H806 N800 0.984 . S
H807 N800 0.984 . S
H808 N796 0.984 . S
H809 N796 0.985 . S
C810 C811 1.363 . S
C810 C816 1.379 . S
C810 N818 1.356 . S
C811 C810 1.363 . S
C811 C817 1.363 . S
C812 C813 1.363 . S
C812 C817 1.379 . S
C812 N819 1.356 . S
C813 C812 1.363 . S
C813 C816 1.363 . S
N814 C816 1.356 . S
N814 H826 0.984 . S
N814 H827 0.985 . S
N815 C817 1.356 . S
N815 H820 0.984 . S
N815 H821 0.985 . S
C816 C810 1.379 . S
C816 C813 1.363 . S
C816 N814 1.356 . S
C817 C811 1.363 . S
C817 C812 1.379 . S
C817 N815 1.356 . S
N818 C810 1.356 . S
N818 H824 0.984 . S
N818 H825 0.984 . S
N819 C812 1.356 . S
N819 H822 0.984 . S
N819 H823 0.985 . S
H820 N815 0.984 . S
H821 N815 0.985 . S
H822 N819 0.984 . S
H823 N819 0.985 . S
H824 N818 0.984 . S
H825 N818 0.984 . S
H826 N814 0.984 . S
H827 N814 0.985 . S
C828 C829 1.363 . S
C828 C834 1.379 . S
C828 N836 1.356 1_556 S
C829 C828 1.363 . S
C829 C835 1.363 . S
C830 C831 1.363 . S
C830 C835 1.379 . S
C830 N837 1.356 . S
C831 C830 1.363 . S
C831 C834 1.363 . S
N832 C834 1.356 . S
N832 H844 0.984 1_556 S
N832 H845 0.985 . S
N833 C835 1.356 . S
N833 H838 0.984 . S
N833 H839 0.985 . S
C834 C828 1.379 . S
C834 C831 1.363 . S
C834 N832 1.356 . S
C835 C829 1.363 . S
C835 C830 1.379 . S
C835 N833 1.356 . S
N836 C828 1.356 1_554 S
N836 H842 0.984 . S
N836 H843 0.984 . S
N837 C830 1.356 . S
N837 H840 0.984 . S
N837 H841 0.985 . S
H838 N833 0.984 . S
H839 N833 0.985 . S
H840 N837 0.984 . S
H841 N837 0.985 . S
H842 N836 0.984 . S
H843 N836 0.984 . S
H844 N832 0.984 1_554 S
H845 N832 0.985 . S
C846 C847 1.363 . S
C846 C852 1.379 . S
C846 N854 1.356 . S
C847 C846 1.363 . S
C847 C853 1.363 . S
C848 C849 1.363 . S
C848 C853 1.379 . S
C848 N855 1.356 . S
C849 C848 1.363 . S
C849 C852 1.363 . S
N850 C852 1.356 1_554 S
N850 H862 0.984 . S
N850 H863 0.985 . S
N851 C853 1.356 . S
N851 H856 0.984 . S
N851 H857 0.985 . S
C852 C846 1.379 . S
C852 C849 1.363 . S
C852 N850 1.356 1_556 S
C853 C847 1.363 . S
C853 C848 1.379 . S
C853 N851 1.356 . S
N854 C846 1.356 . S
N854 H860 0.984 1_556 S
N854 H861 0.984 . S
N855 C848 1.356 . S
N855 H858 0.984 . S
N855 H859 0.985 . S
H856 N851 0.984 . S
H857 N851 0.985 . S
H858 N855 0.984 . S
H859 N855 0.985 . S
H860 N854 0.984 1_554 S
H861 N854 0.984 . S
H862 N850 0.984 . S
H863 N850 0.985 . S
C864 C865 1.363 . S
C864 C870 1.379 . S
C864 N872 1.356 1_556 S
C865 C864 1.363 . S
C865 C871 1.363 . S
C866 C867 1.363 . S
C866 C871 1.379 . S
C866 N873 1.356 . S
C867 C866 1.363 . S
C867 C870 1.363 . S
N868 C870 1.356 . S
N868 H880 0.984 1_556 S
N868 H881 0.985 . S
N869 C871 1.356 . S
N869 H874 0.984 . S
N869 H875 0.985 . S
C870 C864 1.379 . S
C870 C867 1.363 . S
C870 N868 1.356 . S
C871 C865 1.363 . S
C871 C866 1.379 . S
C871 N869 1.356 . S
N872 C864 1.356 1_554 S
N872 H878 0.984 . S
N872 H879 0.984 . S
N873 C866 1.356 . S
N873 H876 0.984 . S
N873 H877 0.985 . S
H874 N869 0.984 . S
H875 N869 0.985 . S
H876 N873 0.984 . S
H877 N873 0.985 . S
H878 N872 0.984 . S
H879 N872 0.984 . S
H880 N868 0.984 1_554 S
H881 N868 0.985 . S
C882 C883 1.363 . S
C882 C888 1.379 . S
C882 N890 1.356 . S
C883 C882 1.363 . S
C883 C889 1.363 . S
C884 C885 1.363 . S
C884 C889 1.379 . S
C884 N891 1.356 . S
C885 C884 1.363 . S
C885 C888 1.363 . S
N886 C888 1.356 . S
N886 H898 0.984 . S
N886 H899 0.985 . S
N887 C889 1.356 . S
N887 H892 0.984 . S
N887 H893 0.985 . S
C888 C882 1.379 . S
C888 C885 1.363 . S
C888 N886 1.356 . S
C889 C883 1.363 . S
C889 C884 1.379 . S
C889 N887 1.356 . S
N890 C882 1.356 . S
N890 H896 0.984 . S
N890 H897 0.984 . S
N891 C884 1.356 . S
N891 H894 0.984 . S
N891 H895 0.985 . S
H892 N887 0.984 . S
H893 N887 0.985 . S
H894 N891 0.984 . S
H895 N891 0.985 . S
H896 N890 0.984 . S
H897 N890 0.984 . S
H898 N886 0.984 . S
H899 N886 0.985 . S
C900 C901 1.363 . S
C900 C906 1.379 . S
C900 N908 1.356 . S
C901 C900 1.363 . S
C901 C907 1.363 . S
C902 C903 1.363 . S
C902 C907 1.379 . S
C902 N909 1.356 . S
C903 C902 1.363 . S
C903 C906 1.363 . S
N904 C906 1.356 . S
N904 H916 0.984 . S
N904 H917 0.985 . S
N905 C907 1.356 . S
N905 H910 0.984 . S
N905 H911 0.985 . S
C906 C900 1.379 . S
C906 C903 1.363 . S
C906 N904 1.356 . S
C907 C901 1.363 . S
C907 C902 1.379 . S
C907 N905 1.356 . S
N908 C900 1.356 . S
N908 H914 0.984 . S
N908 H915 0.984 . S
N909 C902 1.356 . S
N909 H912 0.984 . S
N909 H913 0.985 . S
H910 N905 0.984 . S
H911 N905 0.985 . S
H912 N909 0.984 . S
H913 N909 0.985 . S
H914 N908 0.984 . S
H915 N908 0.984 . S
H916 N904 0.984 . S
H917 N904 0.985 . S
C918 C919 1.363 . S
C918 C924 1.379 . S
C918 N926 1.356 . S
C919 C918 1.363 . S
C919 C925 1.363 . S
C920 C921 1.363 . S
C920 C925 1.379 . S
C920 N927 1.356 . S
C921 C920 1.363 . S
C921 C924 1.363 . S
N922 C924 1.356 . S
N922 H934 0.984 . S
N922 H935 0.985 . S
N923 C925 1.356 . S
N923 H928 0.984 . S
N923 H929 0.985 . S
C924 C918 1.379 . S
C924 C921 1.363 . S
C924 N922 1.356 . S
C925 C919 1.363 . S
C925 C920 1.379 . S
C925 N923 1.356 . S
N926 C918 1.356 . S
N926 H932 0.984 . S
N926 H933 0.984 . S
N927 C920 1.356 . S
N927 H930 0.984 . S
N927 H931 0.985 . S
H928 N923 0.984 . S
H929 N923 0.985 . S
H930 N927 0.984 . S
H931 N927 0.985 . S
H932 N926 0.984 . S
H933 N926 0.984 . S
H934 N922 0.984 . S
H935 N922 0.985 . S
C397 C172 1.212 . S
C399 C7 1.212 . S
C415 C40 1.212 . S
C417 C106 1.212 . S
C433 C73 1.212 . S
C435 C139 1.212 . S
C451 C205 1.212 . S
C453 C370 1.212 . S
C469 C304 1.212 . S
C471 C238 1.212 . S
C487 C337 1.212 . S
C489 C271 1.212 . S
C505 C21 2.513 . S
C507 C219 2.513 . S
C523 C54 2.513 . S
C525 C252 2.513 . S
C541 C285 2.514 . S
C543 C87 2.514 . S
C559 C318 2.513 . S
C561 C120 2.513 . S
C577 C153 2.513 . S
C579 C351 2.513 . S
C595 C186 2.513 . S
C597 C384 2.513 . S
C613 N145 1.696 . S
C615 N13 1.696 . S
C631 N178 1.697 . S
C633 N46 1.697 . S
C649 N112 1.697 . S
C651 N79 1.696 . S
C667 N211 1.697 . S
C669 N343 1.697 . S
C685 N244 1.697 . S
C687 N376 1.697 . S
C703 N310 1.696 . S
C705 N277 1.696 . S
C721 C18 1.088 . S
C723 N68 1.035 . S
C739 C51 1.089 . S
C741 N2 1.035 . S
C757 N35 1.035 . S
C759 C84 1.089 . S
C775 C117 1.088 . S
C777 N134 1.035 . S
C793 N167 1.035 . S
C795 C150 1.088 . S
C811 N101 1.035 . S
C813 C183 1.089 . S
C829 N266 1.035 . S
C831 C216 1.088 . S
C847 C249 1.089 . S
C849 N200 1.035 . S
C865 N233 1.035 . S
C867 C282 1.088 . S
C883 N332 1.035 . S
C885 C315 1.088 . S
C901 N365 1.035 . S
C903 C348 1.089 . S
C919 C381 1.089 . S
C921 N299 1.035 . S
