# Generated by pormake.
# Topology tfs, (6)-cn, num edge types: 1
# Building blocks:
#     Node 0, Type 0, BuildingBlock: LEVNOQ01_clean_sbu_1, # of connection points: 6
#     Node 1, Type 0, BuildingBlock: LEVNOQ01_clean_sbu_1, # of connection points: 6
#     Node 2, Type 0, BuildingBlock: LEVNOQ01_clean_sbu_1, # of connection points: 6
#     Node 3, Type 0, BuildingBlock: LEVNOQ01_clean_sbu_1, # of connection points: 6
#     Node 4, Type 0, BuildingBlock: LEVNOQ01_clean_sbu_1, # of connection points: 6
#     Node 5, Type 0, BuildingBlock: LEVNOQ01_clean_sbu_1, # of connection points: 6
#     Edge 6, Type (0, 0), BuildingBlock: UVAHIK_clean_linker_0, # of connection points: 2
#     Edge 7, Type (0, 0), BuildingBlock: UVAHIK_clean_linker_0, # of connection points: 2
#     Edge 8, Type (0, 0), BuildingBlock: UVAHIK_clean_linker_0, # of connection points: 2
#     Edge 9, Type (0, 0), BuildingBlock: UVAHIK_clean_linker_0, # of connection points: 2
#     Edge 10, Type (0, 0), BuildingBlock: UVAHIK_clean_linker_0, # of connection points: 2
#     Edge 11, Type (0, 0), BuildingBlock: UVAHIK_clean_linker_0, # of connection points: 2
#     Edge 12, Type (0, 0), BuildingBlock: UVAHIK_clean_linker_0, # of connection points: 2
#     Edge 13, Type (0, 0), BuildingBlock: UVAHIK_clean_linker_0, # of connection points: 2
#     Edge 14, Type (0, 0), BuildingBlock: UVAHIK_clean_linker_0, # of connection points: 2
#     Edge 15, Type (0, 0), BuildingBlock: UVAHIK_clean_linker_0, # of connection points: 2
#     Edge 16, Type (0, 0), BuildingBlock: UVAHIK_clean_linker_0, # of connection points: 2
#     Edge 17, Type (0, 0), BuildingBlock: UVAHIK_clean_linker_0, # of connection points: 2
#     Edge 18, Type (0, 0), BuildingBlock: UVAHIK_clean_linker_0, # of connection points: 2
#     Edge 19, Type (0, 0), BuildingBlock: UVAHIK_clean_linker_0, # of connection points: 2
#     Edge 20, Type (0, 0), BuildingBlock: UVAHIK_clean_linker_0, # of connection points: 2
#     Edge 21, Type (0, 0), BuildingBlock: UVAHIK_clean_linker_0, # of connection points: 2
#     Edge 22, Type (0, 0), BuildingBlock: UVAHIK_clean_linker_0, # of connection points: 2
#     Edge 23, Type (0, 0), BuildingBlock: UVAHIK_clean_linker_0, # of connection points: 2
# Relax obj value: 0.217
# Max RMSD: 0.175
# Mean RMSD: 0.175
data_MOF--net-tfs--node1-LEVNOQ01_clean_sbu_1--edge1-UVAHIK_clean_linker_0
_symmetry_space_group_name_H-M    P1
_symmetry_Int_Tables_number       1
_symmetry_cell_setting            triclinic
loop_
_symmetry_equiv_pos_as_xyz
'x, y, z'
_cell_length_a     53.804955
_cell_length_b     53.774786
_cell_length_c     20.512965
_cell_angle_alpha  90.476756
_cell_angle_beta   89.558781
_cell_angle_gamma 120.16936
loop_
_atom_site_label
_atom_site_type_symbol
_atom_site_fract_x
_atom_site_fract_y
_atom_site_fract_z
_atom_type_partial_charge
O0 O 0.27729 0.45593 0.00719 0.0
Mg1 Mg 0.25092 0.4193 0.06203 0.0
O2 O 0.23932 0.46027 0.98691 0.0
Mg3 Mg 0.19696 0.415 -0.00717 0.0
O4 O 0.2191 0.38845 0.00615 0.0
O5 O 0.25415 0.38322 0.04911 0.0
O6 O 0.15323 0.37068 -0.00243 0.0
O7 O 0.20037 0.40997 0.88143 0.0
Mg8 Mg 0.14191 0.41555 0.91709 0.0
O9 O 0.17516 0.4401 0.97566 0.0
O10 O 0.11707 0.37775 0.97055 0.0
O11 O 0.16249 0.40918 0.83478 0.0
O12 O 0.14765 0.45646 0.94135 0.0
C13 C 0.20917 0.42445 0.15393 0.0
C14 C 0.26652 0.47077 0.98822 0.0
C15 C 0.23146 0.3733 0.0134 0.0
C16 C 0.12634 0.36189 0.99224 0.0
C17 C 0.18537 0.40773 0.8314 0.0
C18 C 0.17 0.46088 0.97333 0.0
O19 O 0.23319 0.42556 0.14821 0.0
O20 O 0.19284 0.41996 0.10506 0.0
O21 O 0.82143 0.28029 0.96589 0.0
Mg22 Mg 0.83313 0.25594 0.02319 0.0
O23 O 0.77826 0.24371 0.98438 0.0
Mg24 Mg 0.78026 0.20079 0.99205 0.0
O25 O 0.82959 0.21981 0.98076 0.0
O26 O 0.87162 0.26013 -0.00071 0.0
O27 O 0.77996 0.15646 0.00016 0.0
O28 O 0.77858 0.1974 0.87937 0.0
Mg29 Mg 0.72113 0.1451 0.94698 0.0
O30 O 0.73141 0.18095 0.00029 0.0
O31 O 0.73484 0.12033 -0.00414 0.0
O32 O 0.73799 0.15814 0.85058 0.0
O33 O 0.68611 0.14712 0.98283 0.0
C34 C 0.79947 0.22518 0.14435 0.0
C35 C 0.79463 0.27 0.96873 0.0
C36 C 0.85749 0.23401 0.97793 0.0
C37 C 0.76128 0.12968 0.0054 0.0
C38 C 0.7619 0.18017 0.83573 0.0
C39 C 0.70423 0.17182 0.00734 0.0
O40 O 0.82033 0.24853 0.12292 0.0
O41 O 0.78309 0.20492 0.10528 0.0
O42 O 0.54237 0.82109 0.06545 0.0
Mg43 Mg 0.58704 0.83875 0.0739 0.0
O44 O 0.53631 0.78566 0.00083 0.0
Mg45 Mg 0.57903 0.78469 -0.00481 0.0
O46 O 0.61131 0.83309 0.0034 0.0
O47 O 0.60902 0.87274 0.01074 0.0
O48 O 0.62032 0.78031 0.9873 0.0
O49 O 0.57983 0.79493 0.88275 0.0
Mg50 Mg 0.56553 0.73751 0.90496 0.0
O51 O 0.54638 0.73527 0.99199 0.0
O52 O 0.60914 0.74965 0.90528 0.0
O53 O 0.55059 0.75405 0.83376 0.0
O54 O 0.53793 0.6966 0.93242 0.0
C55 C 0.59065 0.79643 0.15834 0.0
C56 C 0.52623 0.79938 0.03105 0.0
C57 C 0.61867 0.85821 0.98076 0.0
C58 C 0.62718 0.76673 0.94636 0.0
C59 C 0.56482 0.78116 0.83332 0.0
C60 C 0.53153 0.70769 0.98123 0.0
O61 O 0.59882 0.82301 0.15361 0.0
O62 O 0.5801 0.77903 0.10973 0.0
O63 O 0.7166 0.54866 0.05641 0.0
Mg64 Mg 0.74992 0.58817 0.08949 0.0
O65 O 0.74688 0.53856 0.00511 0.0
Mg66 Mg 0.79262 0.58012 -0.00268 0.0
O67 O 0.77717 0.61237 0.01719 0.0
O68 O 0.7497 0.6253 0.07362 0.0
O69 O 0.83889 0.6208 0.98787 0.0
O70 O 0.78243 0.58381 0.8865 0.0
Mg71 Mg 0.82986 0.56719 0.89432 0.0
O72 O 0.80891 0.54882 0.97821 0.0
O73 O 0.86197 0.60984 0.91263 0.0
O74 O 0.79938 0.56165 0.82429 0.0
O75 O 0.83397 0.53287 0.92319 0.0
C76 C 0.79275 0.57999 0.16401 0.0
C77 C 0.72169 0.53103 0.02634 0.0
C78 C 0.76848 0.63056 0.02833 0.0
C79 C 0.86103 0.62753 0.9524 0.0
C80 C 0.78451 0.57373 0.83129 0.0
C81 C 0.81704 0.53002 0.97102 0.0
O82 O 0.77283 0.58592 0.16796 0.0
O83 O 0.8022 0.5767 0.10899 0.0
O84 O 0.16758 0.71582 0.03968 0.0
Mg85 Mg 0.15956 0.74654 0.08151 0.0
O86 O 0.20875 0.7491 -0.00389 0.0
Mg87 Mg 0.21049 0.79386 -0.00506 0.0
O88 O 0.16265 0.7758 0.01558 0.0
O89 O 0.12175 0.74597 0.06698 0.0
O90 O 0.21318 0.83905 -0.00447 0.0
O91 O 0.19929 0.78782 0.88403 0.0
Mg92 Mg 0.26543 0.84479 0.91182 0.0
O93 O 0.25713 0.81189 0.97133 0.0
O94 O 0.25709 0.87319 0.96556 0.0
O95 O 0.23654 0.82447 0.8334 0.0
O96 O 0.30033 0.83853 0.92924 0.0
C97 C 0.2106 0.78914 0.15991 0.0
C98 C 0.19142 0.72302 0.01233 0.0
C99 C 0.13556 0.76636 0.02549 0.0
C100 C 0.23233 0.86554 0.98845 0.0
C101 C 0.21165 0.80215 0.83257 0.0
C102 C 0.28303 0.81697 0.96468 0.0
O103 O 0.18522 0.76788 0.16184 0.0
O104 O 0.22296 0.80105 0.10626 0.0
O105 O 0.45234 0.17136 0.02008 0.0
Mg106 Mg 0.4121 0.15878 0.062 0.0
O107 O 0.45805 0.21324 0.98833 0.0
Mg108 Mg 0.41347 0.21181 0.98942 0.0
O109 O 0.38604 0.16288 -0.00281 0.0
O110 O 0.37681 0.12048 0.03566 0.0
O111 O 0.36958 0.21186 0.99087 0.0
O112 O 0.41161 0.20544 0.87842 0.0
Mg113 Mg 0.41755 0.26902 0.91453 0.0
O114 O 0.43997 0.25946 0.97742 0.0
O115 O 0.37756 0.255 0.95973 0.0
O116 O 0.41605 0.2448 0.83089 0.0
O117 O 0.45673 0.30409 0.94624 0.0
C118 C 0.4133 0.2043 0.15166 0.0
C119 C 0.468 0.19639 -0.00263 0.0
C120 C 0.36952 0.13525 -0.00053 0.0
C121 C 0.36114 0.23002 0.98226 0.0
C122 C 0.41323 0.21987 0.828 0.0
C123 C 0.46051 0.28572 0.97805 0.0
O124 O 0.41121 0.17977 0.14815 0.0
O125 O 0.41515 0.21883 0.10123 0.0
C126 C 0.32536 0.23375 0.05054 0.0
C127 C 0.33133 0.22248 -0.00532 0.0
C128 C 0.30261 0.23925 0.05057 0.0
C129 C 0.24141 0.23507 0.95882 0.0
H130 H 0.27978 0.31655 0.00021 0.0
C131 C 0.23607 0.34477 0.9255 0.0
C132 C 0.22127 0.34547 0.98135 0.0
C133 C 0.23894 0.32078 0.91264 0.0
C134 C 0.26885 0.29381 0.98828 0.0
H135 H 0.31698 0.20555 0.89763 0.0
H136 H 0.27701 0.215 0.89764 0.0
H137 H 0.30441 0.28985 0.01912 0.0
H138 H 0.19469 0.32082 0.06255 0.0
H139 H 0.19926 0.27858 0.0394 0.0
H140 H 0.20558 0.23964 0.92853 0.0
C141 C 0.28955 0.21926 0.94166 0.0
C142 C 0.28274 0.27841 -1e-05 0.0
C143 C 0.31232 0.21369 0.94177 0.0
C144 C 0.20577 0.32045 0.01853 0.0
C145 C 0.20843 0.29633 0.00535 0.0
C146 C 0.22717 0.25056 0.9481 0.0
C147 C 0.28577 0.23389 -0.00563 0.0
C148 C 0.26924 0.24888 0.98566 0.0
C149 C 0.22686 0.2973 0.95543 0.0
C150 C 0.24103 0.2801 0.96238 0.0
H151 H 0.34009 0.24116 0.09135 0.0
H152 H 0.29991 0.25022 0.0922 0.0
H153 H 0.23069 0.21239 0.94669 0.0
H154 H 0.24859 0.36407 0.89695 0.0
H155 H 0.25351 0.32208 0.8743 0.0
C156 C 0.09416 0.31411 0.94585 0.0
C157 C 0.10465 0.3316 0.00153 0.0
C158 C 0.06632 0.29035 0.9453 0.0
C159 C -0.00164 0.27186 0.02728 0.0
H160 H 0.96613 0.20794 0.90477 0.0
C161 C 0.87965 0.20525 0.00557 0.0
C162 C 0.87414 0.22048 0.95818 0.0
C163 C 0.9058 0.20558 0.0049 0.0
C164 C 0.97497 0.22548 0.93972 0.0
H165 H 0.09585 0.33675 0.10209 0.0
H166 H 0.04794 0.29411 0.10311 0.0
H167 H 0.01817 0.23416 0.92582 0.0
H168 H 0.88902 0.24412 0.86801 0.0
H169 H 0.93433 0.24391 0.86568 0.0
H170 H 0.95539 0.26348 0.04039 0.0
C171 C 0.06065 0.29914 0.05888 0.0
C172 C 0.00468 0.24063 0.95159 0.0
C173 C 0.08831 0.32324 0.05894 0.0
C174 C 0.89275 0.23192 0.90454 0.0
C175 C 0.91868 0.23184 0.90328 0.0
C176 C 0.96888 0.25652 0.01627 0.0
C177 C 0.04857 0.28363 0.00074 0.0
C178 C 0.01682 0.26437 -0.00518 0.0
C179 C 0.92629 0.22072 0.95623 0.0
C180 C 0.957 0.23352 0.97193 0.0
H181 H 0.10627 0.32061 0.90061 0.0
H182 H 0.05794 0.27915 0.89953 0.0
H183 H 0.00669 0.29052 0.05895 0.0
H184 H 0.86579 0.19673 0.04794 0.0
H185 H 0.91144 0.19719 0.04656 0.0
C186 C 0.76035 0.08942 0.06435 0.0
C187 C 0.76964 0.10766 0.0102 0.0
C188 C 0.75559 0.06143 0.05892 0.0
C189 C 0.75727 0.0074 0.94359 0.0
H190 H 0.68233 0.95803 0.0209 0.0
C191 C 0.64907 0.89484 0.90011 0.0
C192 C 0.64673 0.8757 0.949 0.0
C193 C 0.6742 0.92156 0.89431 0.0
C194 C 0.70341 0.97156 -0.00043 0.0
H195 H 0.78336 0.11199 0.90956 0.0
H196 H 0.77449 0.063 0.89925 0.0
H197 H 0.70791 0.00892 0.04682 0.0
H198 H 0.66993 0.86725 0.02311 0.0
H199 H 0.71352 0.9142 0.01403 0.0
H200 H 0.75129 0.96928 0.89369 0.0
C201 C 0.77155 0.07027 0.94652 0.0
C202 C 0.71832 0.00073 0.01494 0.0
C203 C 0.77686 0.0985 0.95248 0.0
C204 C 0.67135 0.88153 0.98444 0.0
C205 C 0.69632 0.90847 0.97946 0.0
C206 C 0.74212 0.97792 0.92794 0.0
C207 C 0.75914 0.05086 -0.00146 0.0
C208 C 0.74538 0.01922 0.98695 0.0
C209 C 0.69702 0.92936 0.93777 0.0
C210 C 0.71495 0.95998 0.95549 0.0
H211 H 0.75417 0.09586 0.10898 0.0
H212 H 0.74683 0.04735 0.10061 0.0
H213 H 0.77804 0.02098 0.92114 0.0
H214 H 0.63029 0.89085 0.87261 0.0
H215 H 0.67425 0.93746 0.86215 0.0
C216 C 0.78945 0.68273 0.02655 0.0
C217 C 0.77862 0.657 0.99103 0.0
C218 C 0.7842 0.70429 0.00587 0.0
C219 C 0.72364 0.7016 0.92088 0.0
H220 H 0.75685 0.78023 0.9833 0.0
C221 C 0.66669 0.76502 0.88825 0.0
C222 C 0.65546 0.7686 0.94735 0.0
C223 C 0.68888 0.75884 0.88797 0.0
C224 C 0.74747 0.75828 0.96582 0.0
H225 H 0.75876 0.63546 0.9007 0.0
H226 H 0.7508 0.67377 0.86233 0.0
H227 H 0.78643 0.75729 0.97921 0.0
H228 H 0.66006 0.77082 0.05238 0.0
H229 H 0.69953 0.76006 0.0518 0.0
H230 H 0.68482 0.70269 0.90736 0.0
C231 C 0.76218 0.67691 0.90772 0.0
C232 C 0.76431 0.74515 0.96318 0.0
C233 C 0.76725 0.65519 0.92888 0.0
C234 C 0.66858 0.76845 0.0062 0.0
C235 C 0.69101 0.76223 0.00587 0.0
C236 C 0.70708 0.71484 0.92263 0.0
C237 C 0.76814 0.70036 0.94907 0.0
C238 C 0.75248 0.71646 0.94142 0.0
C239 C 0.70044 0.7563 0.94673 0.0
C240 C 0.71873 0.74311 0.94567 0.0
H241 H 0.79836 0.68448 0.07471 0.0
H242 H 0.78953 0.72209 0.0388 0.0
H243 H 0.71329 0.67924 0.90602 0.0
H244 H 0.65704 0.76518 0.84219 0.0
H245 H 0.6959 0.75437 0.84193 0.0
C246 C 0.11056 0.76938 0.92827 0.0
C247 C 0.11967 0.778 0.99244 0.0
C248 C 0.08434 0.76612 0.90769 0.0
C249 C 0.01839 0.76676 0.97188 0.0
H250 H 0.98052 0.69057 0.89423 0.0
C251 C 0.90125 0.66834 0.01319 0.0
C252 C 0.88655 0.65644 0.95465 0.0
C253 C 0.92954 0.69164 0.01157 0.0
C254 C 0.99086 0.71197 0.91548 0.0
H255 H 0.11188 0.79473 0.08151 0.0
H256 H 0.06639 0.78876 0.047 0.0
H257 H 0.03245 0.71905 0.8923 0.0
H258 H 0.88839 0.66071 0.84956 0.0
H259 H 0.9375 0.70124 0.84693 0.0
H260 H 0.97603 0.75796 -0.00078 0.0
C261 C 0.07875 0.78435 0.01173 0.0
C262 C 0.02071 0.72861 0.91355 0.0
C263 C 0.10502 0.7879 0.03178 0.0
C264 C 0.89939 0.66958 0.89528 0.0
C265 C 0.92741 0.69268 0.89369 0.0
C266 C 0.98838 0.74971 0.97496 0.0
C267 C 0.06684 0.77088 0.95176 0.0
C268 C 0.03506 0.75612 0.94262 0.0
C269 C 0.94309 0.70311 0.95145 0.0
C270 C 0.97452 0.72211 0.94727 0.0
H271 H 0.12166 0.76169 0.89708 0.0
H272 H 0.07645 0.75695 0.8599 0.0
H273 H 0.02854 0.78791 -0.00588 0.0
H274 H 0.89185 0.65822 0.05937 0.0
H275 H 0.94149 0.69923 0.05663 0.0
C276 C 0.23505 0.90569 0.05366 0.0
C277 C 0.22532 0.88835 -0.00219 0.0
C278 C 0.23898 0.93343 0.05282 0.0
C279 C 0.23341 0.98795 0.95027 0.0
H280 H 0.3108 0.03714 0.01462 0.0
C281 C 0.34065 0.10262 0.91173 0.0
C282 C 0.34213 0.11978 0.96505 0.0
C283 C 0.31593 0.07594 0.90177 0.0
C284 C 0.28908 0.02363 -0.00324 0.0
H285 H 0.20998 0.885 0.89921 0.0
H286 H 0.21729 0.93357 0.89698 0.0
H287 H 0.28636 0.98606 0.03718 0.0
H288 H 0.31795 0.12519 0.04292 0.0
H289 H 0.27474 0.07853 0.02562 0.0
H290 H 0.23728 0.02636 0.90793 0.0
C291 C 0.22127 0.92582 0.94202 0.0
C292 C 0.27487 0.9944 0.01041 0.0
C293 C 0.21701 0.89795 0.94326 0.0
C294 C 0.31708 0.11241 0.00095 0.0
C295 C 0.29236 0.08565 0.99116 0.0
C296 C 0.24779 0.01754 0.93671 0.0
C297 C 0.23397 0.94446 -0.00458 0.0
C298 C 0.24693 0.97605 0.98702 0.0
C299 C 0.29264 0.06634 0.9452 0.0
C300 C 0.27587 0.03537 0.95931 0.0
H301 H 0.24196 0.89879 0.09585 0.0
H302 H 0.2482 0.94706 0.0953 0.0
H303 H 0.21193 0.97435 0.93143 0.0
H304 H 0.35988 0.10777 0.88405 0.0
H305 H 0.31666 0.06123 0.8664 0.0
C306 C 0.21378 0.6961 0.9604 0.0
C307 C 0.20111 0.70188 0.01409 0.0
C308 C 0.21956 0.67336 0.96327 0.0
C309 C 0.19121 0.60498 0.04938 0.0
H310 H 0.25623 0.60132 0.97816 0.0
C311 C 0.18709 0.49891 0.05788 0.0
C312 C 0.19041 0.48997 -0.00414 0.0
C313 C 0.1983 0.52818 0.07086 0.0
C314 C 0.23803 0.60214 -0.00143 0.0
H315 H 0.18741 0.69092 0.11458 0.0
H316 H 0.1981 0.65228 0.12014 0.0
H317 H 0.25592 0.64687 0.97497 0.0
H318 H 0.21025 0.50385 0.90102 0.0
H319 H 0.22948 0.55489 0.92296 0.0
H320 H 0.17264 0.56053 0.07099 0.0
C321 C 0.20254 0.66418 0.07506 0.0
C322 C 0.23779 0.6281 -0.00368 0.0
C323 C 0.1964 0.6863 0.07183 0.0
C324 C 0.20768 0.51052 0.94941 0.0
C325 C 0.21871 0.53976 0.9621 0.0
C326 C 0.19144 0.57929 0.05164 0.0
C327 C 0.21307 0.65663 0.02019 0.0
C328 C 0.2143 0.6297 0.02176 0.0
C329 C 0.21236 0.54869 0.02137 0.0
C330 C 0.21474 0.5774 0.02614 0.0
H331 H 0.21788 0.70814 0.91566 0.0
H332 H 0.22774 0.66801 0.92025 0.0
H333 H 0.17244 0.60526 0.06791 0.0
H334 H 0.17366 0.48327 0.09414 0.0
H335 H 0.19369 0.5345 0.11765 0.0
C336 C 0.50649 0.18618 0.96515 0.0
C337 C 0.49867 0.20616 0.98658 0.0
C338 C 0.53509 0.19294 0.96684 0.0
C339 C 0.59857 0.23205 0.0634 0.0
H340 H 0.63372 0.21008 0.92586 0.0
C341 C 0.70242 0.21696 0.00406 0.0
C342 C 0.69322 0.19011 0.0327 0.0
C343 C 0.68519 0.2296 0.00815 0.0
C344 C 0.62449 0.21691 0.96428 0.0
H345 H 0.51462 0.24928 0.02438 0.0
H346 H 0.5651 0.26103 0.02852 0.0
H347 H 0.58997 0.21156 0.90348 0.0
H348 H 0.66062 0.15673 0.09332 0.0
H349 H 0.63095 0.17923 0.10211 0.0
H350 H 0.632 0.23493 0.12552 0.0
C351 C 0.54894 0.24024 0.00987 0.0
C352 C 0.59943 0.21762 0.95157 0.0
C353 C 0.52021 0.23364 0.00689 0.0
C354 C 0.66831 0.17766 0.07158 0.0
C355 C 0.65137 0.19053 0.07665 0.0
C356 C 0.62344 0.23075 0.0765 0.0
C357 C 0.55648 0.21967 0.99105 0.0
C358 C 0.58583 0.22451 0.00133 0.0
C359 C 0.65884 0.21568 0.04175 0.0
C360 C 0.63624 0.22268 0.02717 0.0
H361 H 0.49026 0.16483 0.9495 0.0
H362 H 0.54023 0.17659 0.95255 0.0
H363 H 0.58828 0.23709 0.1028 0.0
H364 H 0.7211 0.22653 0.97243 0.0
H365 H 0.69118 0.24889 0.98042 0.0
C366 C 0.49329 0.65957 0.01713 0.0
C367 C 0.50417 0.68938 0.01533 0.0
C368 C 0.46399 0.64076 0.02644 0.0
C369 C 0.39536 0.61774 0.07412 0.0
H370 H 0.37089 0.59551 0.89496 0.0
C371 C 0.28312 0.52235 0.01102 0.0
C372 C 0.28632 0.50147 0.97643 0.0
C373 C 0.30615 0.55067 0.01512 0.0
C374 C 0.37722 0.60184 0.94513 0.0
H375 H 0.49365 0.7231 0.02861 0.0
H376 H 0.44201 0.68985 0.04428 0.0
H377 H 0.41943 0.63504 0.91763 0.0
H378 H 0.31467 0.49386 0.9149 0.0
H379 H 0.35433 0.5433 0.91964 0.0
H380 H 0.35369 0.58333 0.10176 0.0
C381 C 0.45633 0.68127 0.03903 0.0
C382 C 0.40488 0.6244 0.95803 0.0
C383 C 0.48583 0.7002 0.03041 0.0
C384 C 0.31172 0.50972 0.94139 0.0
C385 C 0.33438 0.53801 0.9442 0.0
C386 C 0.3675 0.59517 0.06121 0.0
C387 C 0.44519 0.6515 0.03395 0.0
C388 C 0.41438 0.63187 0.02249 0.0
C389 C 0.33228 0.55846 0.98331 0.0
C390 C 0.35859 0.58636 -0.00344 0.0
H391 H 0.50701 0.65073 0.00561 0.0
H392 H 0.45568 0.61781 0.02211 0.0
H393 H 0.40253 0.62311 0.12412 0.0
H394 H 0.26377 0.5163 0.03911 0.0
H395 H 0.30401 0.5661 0.04538 0.0
C396 C 0.8249 0.49517 0.03159 0.0
C397 C 0.80587 0.50426 0.01152 0.0
C398 C 0.8146 0.46637 0.0466 0.0
C399 C 0.77935 0.39982 0.08105 0.0
H400 H 0.76371 0.36965 0.90416 0.0
C401 C 0.76373 0.28818 0.01503 0.0
C402 C 0.78377 0.29027 0.96789 0.0
C403 C 0.75858 0.31098 0.02495 0.0
C404 C 0.76751 0.37755 0.95394 0.0
H405 H 0.76119 0.49146 -0.00262 0.0
H406 H 0.74317 0.44056 0.02134 0.0
H407 H 0.76834 0.41643 0.9279 0.0
H408 H 0.81304 0.31699 0.89208 0.0
H409 H 0.80351 0.3565 0.90815 0.0
H410 H 0.77966 0.36139 0.1066 0.0
C411 C 0.76589 0.45586 0.02692 0.0
C412 C 0.76993 0.40413 0.9676 0.0
C413 C 0.77616 0.48492 0.01357 0.0
C414 C 0.79725 0.31474 0.9282 0.0
C415 C 0.79179 0.33731 0.93744 0.0
C416 C 0.77632 0.37287 0.06765 0.0
C417 C 0.78524 0.44625 0.04015 0.0
C418 C 0.77655 0.41576 0.03083 0.0
C419 C 0.77313 0.33603 0.98731 0.0
C420 C 0.77123 0.36192 0.00354 0.0
H421 H 0.84792 0.50977 0.0297 0.0
H422 H 0.82989 0.45933 0.05609 0.0
H423 H 0.78496 0.40871 0.12986 0.0
H424 H 0.75365 0.26989 0.04742 0.0
H425 H 0.74407 0.30948 0.0636 0.0
C426 C 0.29556 0.77927 0.94598 0.0
C427 C 0.29265 0.79785 0.98971 0.0
C428 C 0.31451 0.76937 0.95958 0.0
C429 C 0.38306 0.80093 0.04117 0.0
H430 H 0.38481 0.7324 0.988 0.0
C431 C 0.48286 0.79495 0.08486 0.0
C432 C 0.49517 0.78936 0.03022 0.0
C433 C 0.45446 0.78863 0.08378 0.0
C434 C 0.38451 0.75164 0.00267 0.0
H435 H 0.30447 0.81839 0.08428 0.0
H436 H 0.33703 0.80049 0.10933 0.0
H437 H 0.3391 0.73259 0.98577 0.0
H438 H 0.4868 0.77067 0.93322 0.0
H439 H 0.43668 0.76036 0.93045 0.0
H440 H 0.42815 0.82033 0.05666 0.0
C441 C 0.32512 0.79385 0.06408 0.0
C442 C 0.35844 0.75172 0.00177 0.0
C443 C 0.30628 0.80384 0.05027 0.0
C444 C 0.47785 0.77548 0.97571 0.0
C445 C 0.44922 0.76942 0.97429 0.0
C446 C 0.40882 0.80083 0.04206 0.0
C447 C 0.33093 0.77822 0.01691 0.0
C448 C 0.35747 0.77637 0.02169 0.0
C449 C 0.4377 0.77694 0.02768 0.0
C450 C 0.40986 0.7762 0.02355 0.0
H451 H 0.28533 0.77469 0.89864 0.0
H452 H 0.31842 0.75733 0.92235 0.0
H453 H 0.38341 0.82066 0.05422 0.0
H454 H 0.49544 0.80489 0.12826 0.0
H455 H 0.44591 0.79402 0.12613 0.0
C456 C 0.68066 0.48999 0.08038 0.0
C457 C 0.69881 0.50059 0.02579 0.0
C458 C 0.65814 0.46175 0.08186 0.0
C459 C 0.62618 0.38998 0.00415 0.0
H460 H 0.5562 0.38401 0.07396 0.0
C461 C 0.51036 0.29849 0.95575 0.0
C462 C 0.48927 0.2944 0.00186 0.0
C463 C 0.53933 0.31765 0.96857 0.0
C464 C 0.57566 0.38501 0.05589 0.0
H465 H 0.70857 0.4897 0.93083 0.0
H466 H 0.66775 0.43993 0.93191 0.0
H467 H 0.59965 0.43029 0.07096 0.0
H468 H 0.48149 0.30392 0.09986 0.0
H469 H 0.53232 0.33669 0.12372 0.0
H470 H 0.60125 0.34442 0.98662 0.0
C471 C 0.67147 0.45357 0.97412 0.0
C472 C 0.60064 0.4117 0.05374 0.0
C473 C 0.69463 0.482 0.97321 0.0
C474 C 0.49754 0.3067 0.06392 0.0
C475 C 0.52657 0.32567 0.07708 0.0
C476 C 0.6009 0.36304 0.00596 0.0
C477 C 0.65265 0.44341 0.02814 0.0
C478 C 0.62626 0.41459 0.02826 0.0
C479 C 0.54744 0.33301 0.02769 0.0
C480 C 0.57537 0.36031 0.03211 0.0
H481 H 0.68389 0.5036 0.12245 0.0
H482 H 0.64469 0.45441 0.12506 0.0
H483 H 0.64562 0.39152 0.98439 0.0
H484 H 0.50421 0.28931 0.90726 0.0
H485 H 0.55479 0.32272 0.92953 0.0
C486 C 0.22017 0.42683 0.73965 0.0
C487 C 0.1948 0.40445 0.76651 0.0
C488 C 0.22454 0.42804 0.6722 0.0
C489 C 0.19716 0.38895 0.51592 0.0
H490 H 0.2062 0.46132 0.45593 0.0
C491 C 0.17683 0.40271 0.24908 0.0
C492 C 0.20011 0.4267 0.22012 0.0
C493 C 0.17444 0.40078 0.31705 0.0
C494 C 0.20379 0.44107 0.47187 0.0
H495 H 0.15575 0.36432 0.7468 0.0
H496 H 0.16372 0.36586 0.62935 0.0
H497 H 0.2118 0.45491 0.5714 0.0
H498 H 0.23737 0.46857 0.23752 0.0
H499 H 0.23287 0.46568 0.35579 0.0
H500 H 0.18914 0.37509 0.41636 0.0
C501 C 0.18007 0.38263 0.65957 0.0
C502 C 0.20732 0.43751 0.5378 0.0
C503 C 0.17546 0.38174 0.72663 0.0
C504 C 0.21915 0.44996 0.25919 0.0
C505 C 0.21658 0.44823 0.32686 0.0
C506 C 0.19375 0.39255 0.44987 0.0
C507 C 0.20375 0.40663 0.63142 0.0
C508 C 0.20388 0.41137 0.56051 0.0
C509 C 0.19518 0.42296 0.3565 0.0
C510 C 0.19684 0.41859 0.42723 0.0
H511 H 0.23523 0.44462 0.76987 0.0
H512 H 0.24316 0.44659 0.65156 0.0
H513 H 0.19439 0.3686 0.53225 0.0
H514 H 0.16212 0.38441 0.21963 0.0
H515 H 0.1574 0.38127 0.33873 0.0
C516 C 0.75981 0.16215 0.72243 0.0
C517 C 0.77068 0.18536 0.76643 0.0
C518 C 0.76623 0.16681 0.65613 0.0
C519 C 0.81237 0.21938 0.53133 0.0
H520 H 0.74386 0.17818 0.42531 0.0
C521 C 0.81025 0.24473 0.25838 0.0
C522 C 0.79534 0.22119 0.2158 0.0
C523 C 0.8082 0.24082 0.32588 0.0
C524 C 0.7633 0.18958 0.4539 0.0
H525 H 0.79836 0.23152 0.77624 0.0
H526 H 0.80892 0.23982 0.65934 0.0
H527 H 0.74078 0.17032 0.54219 0.0
H528 H 0.76614 0.17513 0.21098 0.0
H529 H 0.76283 0.16821 0.32869 0.0
H530 H 0.83486 0.23865 0.44246 0.0
C531 C 0.79562 0.21798 0.67645 0.0
C532 C 0.76154 0.18506 0.52101 0.0
C533 C 0.78944 0.21326 0.74323 0.0
C534 C 0.77779 0.19373 0.24236 0.0
C535 C 0.77587 0.1898 0.30991 0.0
C536 C 0.81416 0.22384 0.46381 0.0
C537 C 0.78333 0.19484 0.63203 0.0
C538 C 0.78601 0.19979 0.56053 0.0
C539 C 0.79127 0.21326 0.35249 0.0
C540 C 0.78961 0.20891 0.42431 0.0
H541 H 0.746 0.14032 0.73916 0.0
H542 H 0.75715 0.14846 0.62335 0.0
H543 H 0.83162 0.23094 0.56048 0.0
H544 H 0.82374 0.26625 0.23957 0.0
H545 H 0.81984 0.25943 0.35723 0.0
C546 C 0.54376 0.7857 0.73083 0.0
C547 C 0.56802 0.79537 0.77054 0.0
C548 C 0.54695 0.78976 0.66364 0.0
C549 C 0.59776 0.82163 0.52588 0.0
H550 H 0.55197 0.74508 0.45174 0.0
C551 C 0.61544 0.80032 0.26172 0.0
C552 C 0.59034 0.78601 0.22431 0.0
C553 C 0.61387 0.79942 0.32964 0.0
C554 C 0.56473 0.76662 0.4714 0.0
H555 H 0.61451 0.81999 0.77332 0.0
H556 H 0.6202 0.82685 0.65516 0.0
H557 H 0.54604 0.75345 0.56608 0.0
H558 H 0.54425 0.75779 0.22744 0.0
H559 H 0.54126 0.75629 0.3463 0.0
H560 H 0.61625 0.83489 0.43093 0.0
C561 C 0.59873 0.81621 0.67582 0.0
C562 C 0.56123 0.77149 0.53684 0.0
C563 C 0.59551 0.81242 0.74343 0.0
C564 C 0.56393 0.76853 0.25545 0.0
C565 C 0.56227 0.76792 0.32358 0.0
C566 C 0.60113 0.81681 0.46013 0.0
C567 C 0.57445 0.80316 0.63518 0.0
C568 C 0.57758 0.79905 0.5647 0.0
C569 C 0.58707 0.78464 0.3613 0.0
C570 C 0.58464 0.78922 0.43211 0.0
H571 H 0.52235 0.77274 0.75104 0.0
H572 H 0.52789 0.78027 0.63347 0.0
H573 H 0.61065 0.84305 0.54613 0.0
H574 H 0.63601 0.81407 0.23847 0.0
H575 H 0.63346 0.81179 0.35728 0.0
C576 C 0.79198 0.60694 0.74164 0.0
C577 C 0.77438 0.58014 0.77097 0.0
C578 C 0.79234 0.60956 0.67378 0.0
C579 C 0.7592 0.57123 0.5183 0.0
H580 H 0.83851 0.60129 0.4643 0.0
C581 C 0.78406 0.55016 0.2604 0.0
C582 C 0.80282 0.57535 0.22642 0.0
C583 C 0.78286 0.55035 0.32847 0.0
C584 C 0.8163 0.59297 0.4785 0.0
H585 H 0.74086 0.53619 0.75429 0.0
H586 H 0.74051 0.54093 0.63622 0.0
H587 H 0.82757 0.60659 0.5775 0.0
H588 H 0.83723 0.61938 0.23636 0.0
H589 H 0.83603 0.61955 0.35539 0.0
H590 H 0.74792 0.55738 0.41938 0.0
C591 C 0.75437 0.55985 0.66494 0.0
C592 C 0.81 0.59627 0.54319 0.0
C593 C 0.75436 0.55714 0.73267 0.0
C594 C 0.823 0.59953 0.26155 0.0
C595 C 0.82198 0.5997 0.32977 0.0
C596 C 0.7655 0.56795 0.4536 0.0
C597 C 0.77488 0.58546 0.63456 0.0
C598 C 0.78137 0.58523 0.56401 0.0
C599 C 0.80054 0.57574 0.36359 0.0
C600 C 0.7941 0.57848 0.4331 0.0
H601 H 0.80789 0.62487 0.77022 0.0
H602 H 0.80796 0.62974 0.65176 0.0
H603 H 0.73696 0.56263 0.53272 0.0
H604 H 0.76794 0.53141 0.23429 0.0
H605 H 0.76659 0.53132 0.35327 0.0
C606 C 0.22908 0.77928 0.2592 0.0
C607 C 0.22511 0.79896 0.22274 0.0
C608 C 0.22955 0.78067 0.32712 0.0
C609 C 0.19558 0.8023 0.45228 0.0
H610 H 0.23369 0.77718 0.57236 0.0
C611 C 0.19538 0.81295 0.73042 0.0
C612 C 0.198 0.79289 0.76862 0.0
C613 C 0.19309 0.80975 0.66287 0.0
C614 C 0.22244 0.78364 0.53912 0.0
H615 H 0.22175 0.83732 0.22719 0.0
H616 H 0.2236 0.84054 0.3464 0.0
H617 H 0.24876 0.78546 0.45841 0.0
H618 H 0.19745 0.75241 0.76809 0.0
H619 H 0.1934 0.74664 0.64918 0.0
H620 H 0.16952 0.80083 0.53332 0.0
C621 C 0.22567 0.8236 0.32264 0.0
C622 C 0.23132 0.78872 0.47401 0.0
C623 C 0.22519 0.82216 0.25448 0.0
C624 C 0.19521 0.76798 0.73934 0.0
C625 C 0.19327 0.76492 0.67143 0.0
C626 C 0.18676 0.79731 0.51742 0.0
C627 C 0.22591 0.80175 0.35957 0.0
C628 C 0.21814 0.79832 0.4299 0.0
C629 C 0.19389 0.78666 0.63246 0.0
C630 C 0.20022 0.7881 0.56166 0.0
H631 H 0.2286 0.76095 0.23548 0.0
H632 H 0.22982 0.76354 0.35386 0.0
H633 H 0.18435 0.80884 0.41919 0.0
H634 H 0.19771 0.83242 0.75228 0.0
H635 H 0.19358 0.82685 0.63434 0.0
C636 C 0.38716 0.19276 0.73004 0.0
C637 C 0.41311 0.20831 0.76371 0.0
C638 C 0.38746 0.18928 0.66265 0.0
C639 C 0.43156 0.23273 0.53058 0.0
H640 H 0.38077 0.16854 0.42006 0.0
C641 C 0.43827 0.23165 0.25021 0.0
C642 C 0.41252 0.21507 0.21644 0.0
C643 C 0.43794 0.23339 0.31808 0.0
C644 C 0.39472 0.18677 0.45055 0.0
H645 H 0.45948 0.23032 0.75676 0.0
H646 H 0.46013 0.22404 0.63858 0.0
H647 H 0.38222 0.16102 0.53691 0.0
H648 H 0.36624 0.18937 0.22435 0.0
H649 H 0.36546 0.19307 0.34311 0.0
H650 H 0.44379 0.2586 0.44469 0.0
C651 C 0.43963 0.21471 0.66375 0.0
C652 C 0.39576 0.18234 0.5171 0.0
C653 C 0.4393 0.21813 0.73103 0.0
C654 C 0.38627 0.20249 0.25002 0.0
C655 C 0.3859 0.20428 0.31774 0.0
C656 C 0.43042 0.23719 0.46416 0.0
C657 C 0.41376 0.20168 0.62873 0.0
C658 C 0.41422 0.2053 0.55758 0.0
C659 C 0.41183 0.21837 0.35249 0.0
C660 C 0.41193 0.21428 0.42355 0.0
H661 H 0.36681 0.18536 0.75494 0.0
H662 H 0.36724 0.1792 0.63664 0.0
H663 H 0.44548 0.25095 0.56117 0.0
H664 H 0.45872 0.24107 0.22476 0.0
H665 H 0.45826 0.24439 0.34363 0.0
loop_
_geom_bond_atom_site_label_1
_geom_bond_atom_site_label_2
_geom_bond_distance
_geom_bond_site_symmetry_2
_ccdc_geom_bond_type
O0 Mg1 1.990 . S
O0 C14 1.253 . S
Mg1 O0 1.990 . S
Mg1 O4 2.180 . S
Mg1 O5 2.117 . S
Mg1 O19 2.030 . S
O2 Mg3 2.072 . S
O2 C14 1.260 . S
Mg3 O2 2.072 . S
Mg3 O4 2.099 . S
Mg3 O6 2.079 . S
Mg3 O7 2.072 1_554 S
Mg3 O9 2.099 1_554 S
Mg3 O20 2.079 . S
O4 Mg1 2.180 . S
O4 Mg3 2.099 . S
O4 C15 1.286 . S
O5 Mg1 2.117 . S
O5 C15 1.255 . S
O6 Mg3 2.079 . S
O6 C16 1.264 1_554 S
O7 Mg3 2.072 1_556 S
O7 C17 1.260 . S
Mg8 O9 2.180 . S
Mg8 O10 2.030 . S
Mg8 O11 1.990 . S
Mg8 O12 2.117 . S
O9 Mg3 2.099 1_556 S
O9 Mg8 2.180 . S
O9 C18 1.279 . S
O10 Mg8 2.030 . S
O10 C16 1.248 . S
O11 Mg8 1.990 . S
O11 C17 1.253 . S
O12 Mg8 2.117 . S
O12 C18 1.250 . S
C13 O19 1.248 . S
C13 O20 1.264 . S
C14 O0 1.253 . S
C14 O2 1.260 . S
C15 O4 1.286 . S
C15 O5 1.255 . S
C16 O6 1.264 1_556 S
C16 O10 1.248 . S
C17 O7 1.260 . S
C17 O11 1.253 . S
C18 O9 1.279 . S
C18 O12 1.250 . S
O19 Mg1 2.030 . S
O19 C13 1.248 . S
O20 Mg3 2.079 . S
O20 C13 1.264 . S
O21 Mg22 1.990 . S
O21 C35 1.253 . S
Mg22 O21 1.990 . S
Mg22 O25 2.180 . S
Mg22 O26 2.117 . S
Mg22 O40 2.030 . S
O23 Mg24 2.072 . S
O23 C35 1.260 . S
Mg24 O23 2.072 . S
Mg24 O25 2.099 . S
Mg24 O27 2.079 . S
Mg24 O28 2.072 1_554 S
Mg24 O30 2.099 1_554 S
Mg24 O41 2.079 . S
O25 Mg22 2.180 . S
O25 Mg24 2.099 . S
O25 C36 1.286 . S
O26 Mg22 2.117 . S
O26 C36 1.255 . S
O27 Mg24 2.079 . S
O27 C37 1.264 1_554 S
O28 Mg24 2.072 1_556 S
O28 C38 1.260 . S
Mg29 O30 2.180 . S
Mg29 O31 2.030 . S
Mg29 O32 1.990 . S
Mg29 O33 2.117 . S
O30 Mg24 2.099 1_556 S
O30 Mg29 2.180 . S
O30 C39 1.279 . S
O31 Mg29 2.030 . S
O31 C37 1.248 . S
O32 Mg29 1.990 . S
O32 C38 1.253 . S
O33 Mg29 2.117 . S
O33 C39 1.250 . S
C34 O40 1.248 . S
C34 O41 1.264 . S
C35 O21 1.253 . S
C35 O23 1.260 . S
C36 O25 1.286 . S
C36 O26 1.255 . S
C37 O27 1.264 1_556 S
C37 O31 1.248 . S
C38 O28 1.260 . S
C38 O32 1.253 . S
C39 O30 1.279 . S
C39 O33 1.250 . S
O40 Mg22 2.030 . S
O40 C34 1.248 . S
O41 Mg24 2.079 . S
O41 C34 1.264 . S
O42 Mg43 1.990 . S
O42 C56 1.253 . S
Mg43 O42 1.990 . S
Mg43 O46 2.180 . S
Mg43 O47 2.117 . S
Mg43 O61 2.030 . S
O44 Mg45 2.072 . S
O44 C56 1.260 . S
Mg45 O44 2.072 . S
Mg45 O46 2.099 . S
Mg45 O48 2.079 . S
Mg45 O49 2.072 1_554 S
Mg45 O51 2.099 1_554 S
Mg45 O62 2.079 . S
O46 Mg43 2.180 . S
O46 Mg45 2.099 . S
O46 C57 1.286 . S
O47 Mg43 2.117 . S
O47 C57 1.255 . S
O48 Mg45 2.079 . S
O48 C58 1.264 1_554 S
O49 Mg45 2.072 1_556 S
O49 C59 1.260 . S
Mg50 O51 2.180 . S
Mg50 O52 2.030 . S
Mg50 O53 1.990 . S
Mg50 O54 2.117 . S
O51 Mg45 2.099 1_556 S
O51 Mg50 2.180 . S
O51 C60 1.279 . S
O52 Mg50 2.030 . S
O52 C58 1.248 . S
O53 Mg50 1.990 . S
O53 C59 1.253 . S
O54 Mg50 2.117 . S
O54 C60 1.250 . S
C55 O61 1.248 . S
C55 O62 1.264 . S
C56 O42 1.253 . S
C56 O44 1.260 . S
C57 O46 1.286 . S
C57 O47 1.255 . S
C58 O48 1.264 1_556 S
C58 O52 1.248 . S
C59 O49 1.260 . S
C59 O53 1.253 . S
C60 O51 1.279 . S
C60 O54 1.250 . S
O61 Mg43 2.030 . S
O61 C55 1.248 . S
O62 Mg45 2.079 . S
O62 C55 1.264 . S
O63 Mg64 1.990 . S
O63 C77 1.253 . S
Mg64 O63 1.990 . S
Mg64 O67 2.180 . S
Mg64 O68 2.117 . S
Mg64 O82 2.030 . S
O65 Mg66 2.072 . S
O65 C77 1.260 . S
Mg66 O65 2.072 . S
Mg66 O67 2.099 . S
Mg66 O69 2.079 . S
Mg66 O70 2.072 1_554 S
Mg66 O72 2.099 1_554 S
Mg66 O83 2.079 . S
O67 Mg64 2.180 . S
O67 Mg66 2.099 . S
O67 C78 1.286 . S
O68 Mg64 2.117 . S
O68 C78 1.255 . S
O69 Mg66 2.079 . S
O69 C79 1.264 1_554 S
O70 Mg66 2.072 1_556 S
O70 C80 1.260 . S
Mg71 O72 2.180 . S
Mg71 O73 2.030 . S
Mg71 O74 1.990 . S
Mg71 O75 2.117 . S
O72 Mg66 2.099 1_556 S
O72 Mg71 2.180 . S
O72 C81 1.279 . S
O73 Mg71 2.030 . S
O73 C79 1.248 . S
O74 Mg71 1.990 . S
O74 C80 1.253 . S
O75 Mg71 2.117 . S
O75 C81 1.250 . S
C76 O82 1.248 . S
C76 O83 1.264 . S
C77 O63 1.253 . S
C77 O65 1.260 . S
C78 O67 1.286 . S
C78 O68 1.255 . S
C79 O69 1.264 1_556 S
C79 O73 1.248 . S
C80 O70 1.260 . S
C80 O74 1.253 . S
C81 O72 1.279 . S
C81 O75 1.250 . S
O82 Mg64 2.030 . S
O82 C76 1.248 . S
O83 Mg66 2.079 . S
O83 C76 1.264 . S
O84 Mg85 1.990 . S
O84 C98 1.253 . S
Mg85 O84 1.990 . S
Mg85 O88 2.180 . S
Mg85 O89 2.117 . S
Mg85 O103 2.030 . S
O86 Mg87 2.072 . S
O86 C98 1.260 . S
Mg87 O86 2.072 . S
Mg87 O88 2.099 . S
Mg87 O90 2.079 . S
Mg87 O91 2.072 1_554 S
Mg87 O93 2.099 1_554 S
Mg87 O104 2.079 . S
O88 Mg85 2.180 . S
O88 Mg87 2.099 . S
O88 C99 1.286 . S
O89 Mg85 2.117 . S
O89 C99 1.255 . S
O90 Mg87 2.079 . S
O90 C100 1.264 1_554 S
O91 Mg87 2.072 1_556 S
O91 C101 1.260 . S
Mg92 O93 2.180 . S
Mg92 O94 2.030 . S
Mg92 O95 1.990 . S
Mg92 O96 2.117 . S
O93 Mg87 2.099 1_556 S
O93 Mg92 2.180 . S
O93 C102 1.279 . S
O94 Mg92 2.030 . S
O94 C100 1.248 . S
O95 Mg92 1.990 . S
O95 C101 1.253 . S
O96 Mg92 2.117 . S
O96 C102 1.250 . S
C97 O103 1.248 . S
C97 O104 1.264 . S
C98 O84 1.253 . S
C98 O86 1.260 . S
C99 O88 1.286 . S
C99 O89 1.255 . S
C100 O90 1.264 1_556 S
C100 O94 1.248 . S
C101 O91 1.260 . S
C101 O95 1.253 . S
C102 O93 1.279 . S
C102 O96 1.250 . S
O103 Mg85 2.030 . S
O103 C97 1.248 . S
O104 Mg87 2.079 . S
O104 C97 1.264 . S
O105 Mg106 1.990 . S
O105 C119 1.253 . S
Mg106 O105 1.990 . S
Mg106 O109 2.180 . S
Mg106 O110 2.117 . S
Mg106 O124 2.030 . S
O107 Mg108 2.072 . S
O107 C119 1.260 . S
Mg108 O107 2.072 . S
Mg108 O109 2.099 . S
Mg108 O111 2.079 . S
Mg108 O112 2.072 1_554 S
Mg108 O114 2.099 1_554 S
Mg108 O125 2.079 . S
O109 Mg106 2.180 . S
O109 Mg108 2.099 . S
O109 C120 1.286 . S
O110 Mg106 2.117 . S
O110 C120 1.255 . S
O111 Mg108 2.079 . S
O111 C121 1.264 1_554 S
O112 Mg108 2.072 1_556 S
O112 C122 1.260 . S
Mg113 O114 2.180 . S
Mg113 O115 2.030 . S
Mg113 O116 1.990 . S
Mg113 O117 2.117 . S
O114 Mg108 2.099 1_556 S
O114 Mg113 2.180 . S
O114 C123 1.279 . S
O115 Mg113 2.030 . S
O115 C121 1.248 . S
O116 Mg113 1.990 . S
O116 C122 1.253 . S
O117 Mg113 2.117 . S
O117 C123 1.250 . S
C118 O124 1.248 . S
C118 O125 1.264 . S
C119 O105 1.253 . S
C119 O107 1.260 . S
C120 O109 1.286 . S
C120 O110 1.255 . S
C121 O111 1.264 1_556 S
C121 O115 1.248 . S
C122 O112 1.260 . S
C122 O116 1.253 . S
C123 O114 1.279 . S
C123 O117 1.250 . S
O124 Mg106 2.030 . S
O124 C118 1.248 . S
O125 Mg108 2.079 . S
O125 C118 1.264 . S
C126 C127 1.349 1_554 S
C126 C128 1.327 . S
C126 H151 0.950 . S
C127 C126 1.349 1_556 S
C127 C143 1.349 . S
C128 C126 1.327 . S
C128 C147 1.429 1_554 S
C128 H152 0.950 . S
C129 C146 1.574 . S
C129 C148 1.368 . S
C129 H153 0.949 . S
H130 C134 0.949 . S
C131 C132 1.349 . S
C131 C133 1.327 . S
C131 H154 0.950 . S
C132 C131 1.349 . S
C132 C144 1.349 1_556 S
C133 C131 1.327 . S
C133 C149 1.429 . S
C133 H155 0.950 . S
C134 H130 0.949 . S
C134 C142 1.574 . S
C134 C150 1.368 1_554 S
H135 C143 0.950 . S
H136 C141 0.950 . S
H137 C142 0.949 . S
H138 C144 0.950 . S
H139 C145 0.950 . S
H140 C146 0.949 . S
C141 H136 0.950 . S
C141 C143 1.327 . S
C141 C147 1.429 . S
C142 C134 1.574 . S
C142 H137 0.949 . S
C142 C148 1.368 1_554 S
C143 C127 1.349 . S
C143 H135 0.950 . S
C143 C141 1.327 . S
C144 C132 1.349 1_554 S
C144 H138 0.950 . S
C144 C145 1.327 . S
C145 H139 0.950 . S
C145 C144 1.327 . S
C145 C149 1.429 1_554 S
C146 C129 1.574 . S
C146 H140 0.949 . S
C146 C150 1.368 . S
C147 C128 1.429 1_556 S
C147 C141 1.429 . S
C147 C148 1.523 . S
C148 C129 1.368 . S
C148 C142 1.368 1_556 S
C148 C147 1.523 . S
C149 C133 1.429 . S
C149 C145 1.429 1_556 S
C149 C150 1.523 . S
C150 C134 1.368 1_556 S
C150 C146 1.368 . S
C150 C149 1.523 . S
H151 C126 0.950 . S
H152 C128 0.950 . S
H153 C129 0.949 . S
H154 C131 0.950 . S
H155 C133 0.950 . S
C156 C157 1.349 . S
C156 C158 1.327 . S
C156 H181 0.950 . S
C157 C156 1.349 . S
C157 C173 1.349 1_556 S
C158 C156 1.327 . S
C158 C177 1.429 . S
C158 H182 0.950 . S
C159 C176 1.574 1_455 S
C159 C178 1.368 1_554 S
C159 H183 0.949 . S
H160 C164 0.949 . S
C161 C162 1.349 1_554 S
C161 C163 1.327 . S
C161 H184 0.950 . S
C162 C161 1.349 1_556 S
C162 C174 1.349 . S
C163 C161 1.327 . S
C163 C179 1.429 1_554 S
C163 H185 0.950 . S
C164 H160 0.949 . S
C164 C172 1.574 1_655 S
C164 C180 1.368 . S
H165 C173 0.950 . S
H166 C171 0.950 . S
H167 C172 0.949 . S
H168 C174 0.950 . S
H169 C175 0.950 . S
H170 C176 0.949 . S
C171 H166 0.950 . S
C171 C173 1.327 . S
C171 C177 1.429 1_554 S
C172 C164 1.574 1_455 S
C172 H167 0.949 . S
C172 C178 1.368 . S
C173 C157 1.349 1_554 S
C173 H165 0.950 . S
C173 C171 1.327 . S
C174 C162 1.349 . S
C174 H168 0.950 . S
C174 C175 1.327 . S
C175 H169 0.950 . S
C175 C174 1.327 . S
C175 C179 1.429 . S
C176 C159 1.574 1_655 S
C176 H170 0.949 . S
C176 C180 1.368 1_554 S
C177 C158 1.429 . S
C177 C171 1.429 1_556 S
C177 C178 1.523 . S
C178 C159 1.368 1_556 S
C178 C172 1.368 . S
C178 C177 1.523 . S
C179 C163 1.429 1_556 S
C179 C175 1.429 . S
C179 C180 1.523 . S
C180 C164 1.368 . S
C180 C176 1.368 1_556 S
C180 C179 1.523 . S
H181 C156 0.950 . S
H182 C158 0.950 . S
H183 C159 0.949 . S
H184 C161 0.950 . S
H185 C163 0.950 . S
C186 C187 1.349 1_554 S
C186 C188 1.327 . S
C186 H211 0.950 . S
C187 C186 1.349 1_556 S
C187 C203 1.349 . S
C188 C186 1.327 . S
C188 C207 1.429 1_554 S
C188 H212 0.950 . S
C189 C206 1.574 1_545 S
C189 C208 1.368 . S
C189 H213 0.949 . S
H190 C194 0.949 . S
C191 C192 1.349 . S
C191 C193 1.327 . S
C191 H214 0.950 . S
C192 C191 1.349 . S
C192 C204 1.349 1_556 S
C193 C191 1.327 . S
C193 C209 1.429 . S
C193 H215 0.950 . S
C194 H190 0.949 . S
C194 C202 1.574 1_565 S
C194 C210 1.368 1_554 S
H195 C203 0.950 . S
H196 C201 0.950 . S
H197 C202 0.949 . S
H198 C204 0.950 . S
H199 C205 0.950 . S
H200 C206 0.949 . S
C201 H196 0.950 . S
C201 C203 1.327 . S
C201 C207 1.429 . S
C202 C194 1.574 1_545 S
C202 H197 0.949 . S
C202 C208 1.368 1_554 S
C203 C187 1.349 . S
C203 H195 0.950 . S
C203 C201 1.327 . S
C204 C192 1.349 1_554 S
C204 H198 0.950 . S
C204 C205 1.327 . S
C205 H199 0.950 . S
C205 C204 1.327 . S
C205 C209 1.429 1_554 S
C206 C189 1.574 1_565 S
C206 H200 0.949 . S
C206 C210 1.368 . S
C207 C188 1.429 1_556 S
C207 C201 1.429 . S
C207 C208 1.523 . S
C208 C189 1.368 . S
C208 C202 1.368 1_556 S
C208 C207 1.523 . S
C209 C193 1.429 . S
C209 C205 1.429 1_556 S
C209 C210 1.523 . S
C210 C194 1.368 1_556 S
C210 C206 1.368 . S
C210 C209 1.523 . S
H211 C186 0.950 . S
H212 C188 0.950 . S
H213 C189 0.949 . S
H214 C191 0.950 . S
H215 C193 0.950 . S
C216 C217 1.349 1_554 S
C216 C218 1.327 . S
C216 H241 0.950 . S
C217 C216 1.349 1_556 S
C217 C233 1.349 . S
C218 C216 1.327 . S
C218 C237 1.429 1_554 S
C218 H242 0.950 . S
C219 C236 1.574 . S
C219 C238 1.368 . S
C219 H243 0.949 . S
H220 C224 0.949 . S
C221 C222 1.349 . S
C221 C223 1.327 . S
C221 H244 0.950 . S
C222 C221 1.349 . S
C222 C234 1.349 1_556 S
C223 C221 1.327 . S
C223 C239 1.429 . S
C223 H245 0.950 . S
C224 H220 0.949 . S
C224 C232 1.574 . S
C224 C240 1.368 1_554 S
H225 C233 0.950 . S
H226 C231 0.950 . S
H227 C232 0.949 . S
H228 C234 0.950 . S
H229 C235 0.950 . S
H230 C236 0.949 . S
C231 H226 0.950 . S
C231 C233 1.327 . S
C231 C237 1.429 . S
C232 C224 1.574 . S
C232 H227 0.949 . S
C232 C238 1.368 1_554 S
C233 C217 1.349 . S
C233 H225 0.950 . S
C233 C231 1.327 . S
C234 C222 1.349 1_554 S
C234 H228 0.950 . S
C234 C235 1.327 . S
C235 H229 0.950 . S
C235 C234 1.327 . S
C235 C239 1.429 1_554 S
C236 C219 1.574 . S
C236 H230 0.949 . S
C236 C240 1.368 . S
C237 C218 1.429 1_556 S
C237 C231 1.429 . S
C237 C238 1.523 . S
C238 C219 1.368 . S
C238 C232 1.368 1_556 S
C238 C237 1.523 . S
C239 C223 1.429 . S
C239 C235 1.429 1_556 S
C239 C240 1.523 . S
C240 C224 1.368 1_556 S
C240 C236 1.368 . S
C240 C239 1.523 . S
H241 C216 0.950 . S
H242 C218 0.950 . S
H243 C219 0.949 . S
H244 C221 0.950 . S
H245 C223 0.950 . S
C246 C247 1.349 . S
C246 C248 1.327 . S
C246 H271 0.950 . S
C247 C246 1.349 . S
C247 C263 1.349 1_556 S
C248 C246 1.327 . S
C248 C267 1.429 . S
C248 H272 0.950 . S
C249 C266 1.574 1_455 S
C249 C268 1.368 1_554 S
C249 H273 0.949 . S
H250 C254 0.949 . S
C251 C252 1.349 1_554 S
C251 C253 1.327 . S
C251 H274 0.950 . S
C252 C251 1.349 1_556 S
C252 C264 1.349 . S
C253 C251 1.327 . S
C253 C269 1.429 1_554 S
C253 H275 0.950 . S
C254 H250 0.949 . S
C254 C262 1.574 1_655 S
C254 C270 1.368 . S
H255 C263 0.950 . S
H256 C261 0.950 . S
H257 C262 0.949 . S
H258 C264 0.950 . S
H259 C265 0.950 . S
H260 C266 0.949 . S
C261 H256 0.950 . S
C261 C263 1.327 . S
C261 C267 1.429 1_554 S
C262 C254 1.574 1_455 S
C262 H257 0.949 . S
C262 C268 1.368 . S
C263 C247 1.349 1_554 S
C263 H255 0.950 . S
C263 C261 1.327 . S
C264 C252 1.349 . S
C264 H258 0.950 . S
C264 C265 1.327 . S
C265 H259 0.950 . S
C265 C264 1.327 . S
C265 C269 1.429 . S
C266 C249 1.574 1_655 S
C266 H260 0.949 . S
C266 C270 1.368 1_554 S
C267 C248 1.429 . S
C267 C261 1.429 1_556 S
C267 C268 1.523 . S
C268 C249 1.368 1_556 S
C268 C262 1.368 . S
C268 C267 1.523 . S
C269 C253 1.429 1_556 S
C269 C265 1.429 . S
C269 C270 1.523 . S
C270 C254 1.368 . S
C270 C266 1.368 1_556 S
C270 C269 1.523 . S
H271 C246 0.950 . S
H272 C248 0.950 . S
H273 C249 0.949 . S
H274 C251 0.950 . S
H275 C253 0.950 . S
C276 C277 1.349 1_554 S
C276 C278 1.327 . S
C276 H301 0.950 . S
C277 C276 1.349 1_556 S
C277 C293 1.349 . S
C278 C276 1.327 . S
C278 C297 1.429 1_554 S
C278 H302 0.950 . S
C279 C296 1.574 1_565 S
C279 C298 1.368 . S
C279 H303 0.949 . S
H280 C284 0.949 . S
C281 C282 1.349 . S
C281 C283 1.327 . S
C281 H304 0.950 . S
C282 C281 1.349 . S
C282 C294 1.349 1_556 S
C283 C281 1.327 . S
C283 C299 1.429 . S
C283 H305 0.950 . S
C284 H280 0.949 . S
C284 C292 1.574 1_545 S
C284 C300 1.368 1_554 S
H285 C293 0.950 . S
H286 C291 0.950 . S
H287 C292 0.949 . S
H288 C294 0.950 . S
H289 C295 0.950 . S
H290 C296 0.949 . S
C291 H286 0.950 . S
C291 C293 1.327 . S
C291 C297 1.429 . S
C292 C284 1.574 1_565 S
C292 H287 0.949 . S
C292 C298 1.368 1_554 S
C293 C277 1.349 . S
C293 H285 0.950 . S
C293 C291 1.327 . S
C294 C282 1.349 1_554 S
C294 H288 0.950 . S
C294 C295 1.327 . S
C295 H289 0.950 . S
C295 C294 1.327 . S
C295 C299 1.429 1_554 S
C296 C279 1.574 1_545 S
C296 H290 0.949 . S
C296 C300 1.368 . S
C297 C278 1.429 1_556 S
C297 C291 1.429 . S
C297 C298 1.523 . S
C298 C279 1.368 . S
C298 C292 1.368 1_556 S
C298 C297 1.523 . S
C299 C283 1.429 . S
C299 C295 1.429 1_556 S
C299 C300 1.523 . S
C300 C284 1.368 1_556 S
C300 C296 1.368 . S
C300 C299 1.523 . S
H301 C276 0.950 . S
H302 C278 0.950 . S
H303 C279 0.949 . S
H304 C281 0.950 . S
H305 C283 0.950 . S
C306 C307 1.349 1_556 S
C306 C308 1.327 . S
C306 H331 0.950 . S
C307 C306 1.349 1_554 S
C307 C323 1.349 . S
C308 C306 1.327 . S
C308 C327 1.429 1_556 S
C308 H332 0.950 . S
C309 C326 1.574 . S
C309 C328 1.368 . S
C309 H333 0.949 . S
H310 C314 0.949 . S
C311 C312 1.349 . S
C311 C313 1.327 . S
C311 H334 0.950 . S
C312 C311 1.349 . S
C312 C324 1.349 1_554 S
C313 C311 1.327 . S
C313 C329 1.429 . S
C313 H335 0.950 . S
C314 H310 0.949 . S
C314 C322 1.574 . S
C314 C330 1.368 1_556 S
H315 C323 0.950 . S
H316 C321 0.950 . S
H317 C322 0.949 . S
H318 C324 0.950 . S
H319 C325 0.950 . S
H320 C326 0.949 . S
C321 H316 0.950 . S
C321 C323 1.327 . S
C321 C327 1.429 . S
C322 C314 1.574 . S
C322 H317 0.949 . S
C322 C328 1.368 1_556 S
C323 C307 1.349 . S
C323 H315 0.950 . S
C323 C321 1.327 . S
C324 C312 1.349 1_556 S
C324 H318 0.950 . S
C324 C325 1.327 . S
C325 H319 0.950 . S
C325 C324 1.327 . S
C325 C329 1.429 1_556 S
C326 C309 1.574 . S
C326 H320 0.949 . S
C326 C330 1.368 . S
C327 C308 1.429 1_554 S
C327 C321 1.429 . S
C327 C328 1.523 . S
C328 C309 1.368 . S
C328 C322 1.368 1_554 S
C328 C327 1.523 . S
C329 C313 1.429 . S
C329 C325 1.429 1_554 S
C329 C330 1.523 . S
C330 C314 1.368 1_554 S
C330 C326 1.368 . S
C330 C329 1.523 . S
H331 C306 0.950 . S
H332 C308 0.950 . S
H333 C309 0.949 . S
H334 C311 0.950 . S
H335 C313 0.950 . S
C336 C337 1.349 1_556 S
C336 C338 1.327 . S
C336 H361 0.950 . S
C337 C336 1.349 1_554 S
C337 C353 1.349 . S
C338 C336 1.327 . S
C338 C357 1.429 1_556 S
C338 H362 0.950 . S
C339 C356 1.574 . S
C339 C358 1.368 . S
C339 H363 0.949 . S
H340 C344 0.949 . S
C341 C342 1.349 . S
C341 C343 1.327 . S
C341 H364 0.950 . S
C342 C341 1.349 . S
C342 C354 1.349 1_554 S
C343 C341 1.327 . S
C343 C359 1.429 . S
C343 H365 0.950 . S
C344 H340 0.949 . S
C344 C352 1.574 . S
C344 C360 1.368 1_556 S
H345 C353 0.950 . S
H346 C351 0.950 . S
H347 C352 0.949 . S
H348 C354 0.950 . S
H349 C355 0.950 . S
H350 C356 0.949 . S
C351 H346 0.950 . S
C351 C353 1.327 . S
C351 C357 1.429 . S
C352 C344 1.574 . S
C352 H347 0.949 . S
C352 C358 1.368 1_556 S
C353 C337 1.349 . S
C353 H345 0.950 . S
C353 C351 1.327 . S
C354 C342 1.349 1_556 S
C354 H348 0.950 . S
C354 C355 1.327 . S
C355 H349 0.950 . S
C355 C354 1.327 . S
C355 C359 1.429 1_556 S
C356 C339 1.574 . S
C356 H350 0.949 . S
C356 C360 1.368 . S
C357 C338 1.429 1_554 S
C357 C351 1.429 . S
C357 C358 1.523 . S
C358 C339 1.368 . S
C358 C352 1.368 1_554 S
C358 C357 1.523 . S
C359 C343 1.429 . S
C359 C355 1.429 1_554 S
C359 C360 1.523 . S
C360 C344 1.368 1_554 S
C360 C356 1.368 . S
C360 C359 1.523 . S
H361 C336 0.950 . S
H362 C338 0.950 . S
H363 C339 0.949 . S
H364 C341 0.950 . S
H365 C343 0.950 . S
C366 C367 1.349 1_556 S
C366 C368 1.327 . S
C366 H391 0.950 . S
C367 C366 1.349 1_554 S
C367 C383 1.349 . S
C368 C366 1.327 . S
C368 C387 1.429 1_556 S
C368 H392 0.950 . S
C369 C386 1.574 . S
C369 C388 1.368 . S
C369 H393 0.949 . S
H370 C374 0.949 . S
C371 C372 1.349 . S
C371 C373 1.327 . S
C371 H394 0.950 . S
C372 C371 1.349 . S
C372 C384 1.349 1_554 S
C373 C371 1.327 . S
C373 C389 1.429 . S
C373 H395 0.950 . S
C374 H370 0.949 . S
C374 C382 1.574 . S
C374 C390 1.368 1_556 S
H375 C383 0.950 . S
H376 C381 0.950 . S
H377 C382 0.949 . S
H378 C384 0.950 . S
H379 C385 0.950 . S
H380 C386 0.949 . S
C381 H376 0.950 . S
C381 C383 1.327 . S
C381 C387 1.429 . S
C382 C374 1.574 . S
C382 H377 0.949 . S
C382 C388 1.368 1_556 S
C383 C367 1.349 . S
C383 H375 0.950 . S
C383 C381 1.327 . S
C384 C372 1.349 1_556 S
C384 H378 0.950 . S
C384 C385 1.327 . S
C385 H379 0.950 . S
C385 C384 1.327 . S
C385 C389 1.429 1_556 S
C386 C369 1.574 . S
C386 H380 0.949 . S
C386 C390 1.368 . S
C387 C368 1.429 1_554 S
C387 C381 1.429 . S
C387 C388 1.523 . S
C388 C369 1.368 . S
C388 C382 1.368 1_554 S
C388 C387 1.523 . S
C389 C373 1.429 . S
C389 C385 1.429 1_554 S
C389 C390 1.523 . S
C390 C374 1.368 1_554 S
C390 C386 1.368 . S
C390 C389 1.523 . S
H391 C366 0.950 . S
H392 C368 0.950 . S
H393 C369 0.949 . S
H394 C371 0.950 . S
H395 C373 0.950 . S
C396 C397 1.349 1_556 S
C396 C398 1.327 . S
C396 H421 0.950 . S
C397 C396 1.349 1_554 S
C397 C413 1.349 . S
C398 C396 1.327 . S
C398 C417 1.429 1_556 S
C398 H422 0.950 . S
C399 C416 1.574 . S
C399 C418 1.368 . S
C399 H423 0.949 . S
H400 C404 0.949 . S
C401 C402 1.349 . S
C401 C403 1.327 . S
C401 H424 0.950 . S
C402 C401 1.349 . S
C402 C414 1.349 1_554 S
C403 C401 1.327 . S
C403 C419 1.429 . S
C403 H425 0.950 . S
C404 H400 0.949 . S
C404 C412 1.574 . S
C404 C420 1.368 1_556 S
H405 C413 0.950 . S
H406 C411 0.950 . S
H407 C412 0.949 . S
H408 C414 0.950 . S
H409 C415 0.950 . S
H410 C416 0.949 . S
C411 H406 0.950 . S
C411 C413 1.327 . S
C411 C417 1.429 . S
C412 C404 1.574 . S
C412 H407 0.949 . S
C412 C418 1.368 1_556 S
C413 C397 1.349 . S
C413 H405 0.950 . S
C413 C411 1.327 . S
C414 C402 1.349 1_556 S
C414 H408 0.950 . S
C414 C415 1.327 . S
C415 H409 0.950 . S
C415 C414 1.327 . S
C415 C419 1.429 1_556 S
C416 C399 1.574 . S
C416 H410 0.949 . S
C416 C420 1.368 . S
C417 C398 1.429 1_554 S
C417 C411 1.429 . S
C417 C418 1.523 . S
C418 C399 1.368 . S
C418 C412 1.368 1_554 S
C418 C417 1.523 . S
C419 C403 1.429 . S
C419 C415 1.429 1_554 S
C419 C420 1.523 . S
C420 C404 1.368 1_554 S
C420 C416 1.368 . S
C420 C419 1.523 . S
H421 C396 0.950 . S
H422 C398 0.950 . S
H423 C399 0.949 . S
H424 C401 0.950 . S
H425 C403 0.950 . S
C426 C427 1.349 1_556 S
C426 C428 1.327 . S
C426 H451 0.950 . S
C427 C426 1.349 1_554 S
C427 C443 1.349 . S
C428 C426 1.327 . S
C428 C447 1.429 1_556 S
C428 H452 0.950 . S
C429 C446 1.574 . S
C429 C448 1.368 . S
C429 H453 0.949 . S
H430 C434 0.949 . S
C431 C432 1.349 . S
C431 C433 1.327 . S
C431 H454 0.950 . S
C432 C431 1.349 . S
C432 C444 1.349 1_554 S
C433 C431 1.327 . S
C433 C449 1.429 . S
C433 H455 0.950 . S
C434 H430 0.949 . S
C434 C442 1.574 . S
C434 C450 1.368 1_556 S
H435 C443 0.950 . S
H436 C441 0.950 . S
H437 C442 0.949 . S
H438 C444 0.950 . S
H439 C445 0.950 . S
H440 C446 0.949 . S
C441 H436 0.950 . S
C441 C443 1.327 . S
C441 C447 1.429 . S
C442 C434 1.574 . S
C442 H437 0.949 . S
C442 C448 1.368 1_556 S
C443 C427 1.349 . S
C443 H435 0.950 . S
C443 C441 1.327 . S
C444 C432 1.349 1_556 S
C444 H438 0.950 . S
C444 C445 1.327 . S
C445 H439 0.950 . S
C445 C444 1.327 . S
C445 C449 1.429 1_556 S
C446 C429 1.574 . S
C446 H440 0.949 . S
C446 C450 1.368 . S
C447 C428 1.429 1_554 S
C447 C441 1.429 . S
C447 C448 1.523 . S
C448 C429 1.368 . S
C448 C442 1.368 1_554 S
C448 C447 1.523 . S
C449 C433 1.429 . S
C449 C445 1.429 1_554 S
C449 C450 1.523 . S
C450 C434 1.368 1_554 S
C450 C446 1.368 . S
C450 C449 1.523 . S
H451 C426 0.950 . S
H452 C428 0.950 . S
H453 C429 0.949 . S
H454 C431 0.950 . S
H455 C433 0.950 . S
C456 C457 1.349 . S
C456 C458 1.327 . S
C456 H481 0.950 . S
C457 C456 1.349 . S
C457 C473 1.349 1_554 S
C458 C456 1.327 . S
C458 C477 1.429 . S
C458 H482 0.950 . S
C459 C476 1.574 . S
C459 C478 1.368 1_556 S
C459 H483 0.949 . S
H460 C464 0.949 . S
C461 C462 1.349 1_556 S
C461 C463 1.327 . S
C461 H484 0.950 . S
C462 C461 1.349 1_554 S
C462 C474 1.349 . S
C463 C461 1.327 . S
C463 C479 1.429 1_556 S
C463 H485 0.950 . S
C464 H460 0.949 . S
C464 C472 1.574 . S
C464 C480 1.368 . S
H465 C473 0.950 . S
H466 C471 0.950 . S
H467 C472 0.949 . S
H468 C474 0.950 . S
H469 C475 0.950 . S
H470 C476 0.949 . S
C471 H466 0.950 . S
C471 C473 1.327 . S
C471 C477 1.429 1_556 S
C472 C464 1.574 . S
C472 H467 0.949 . S
C472 C478 1.368 . S
C473 C457 1.349 1_556 S
C473 H465 0.950 . S
C473 C471 1.327 . S
C474 C462 1.349 . S
C474 H468 0.950 . S
C474 C475 1.327 . S
C475 H469 0.950 . S
C475 C474 1.327 . S
C475 C479 1.429 . S
C476 C459 1.574 . S
C476 H470 0.949 . S
C476 C480 1.368 1_556 S
C477 C458 1.429 . S
C477 C471 1.429 1_554 S
C477 C478 1.523 . S
C478 C459 1.368 1_554 S
C478 C472 1.368 . S
C478 C477 1.523 . S
C479 C463 1.429 1_554 S
C479 C475 1.429 . S
C479 C480 1.523 . S
C480 C464 1.368 . S
C480 C476 1.368 1_554 S
C480 C479 1.523 . S
H481 C456 0.950 . S
H482 C458 0.950 . S
H483 C459 0.949 . S
H484 C461 0.950 . S
H485 C463 0.950 . S
C486 C487 1.349 . S
C486 C488 1.327 . S
C486 H511 0.950 . S
C487 C486 1.349 . S
C487 C503 1.349 . S
C488 C486 1.327 . S
C488 C507 1.429 . S
C488 H512 0.950 . S
C489 C506 1.574 . S
C489 C508 1.368 . S
C489 H513 0.949 . S
H490 C494 0.949 . S
C491 C492 1.349 . S
C491 C493 1.327 . S
C491 H514 0.950 . S
C492 C491 1.349 . S
C492 C504 1.349 . S
C493 C491 1.327 . S
C493 C509 1.429 . S
C493 H515 0.950 . S
C494 H490 0.949 . S
C494 C502 1.574 . S
C494 C510 1.368 . S
H495 C503 0.950 . S
H496 C501 0.950 . S
H497 C502 0.949 . S
H498 C504 0.950 . S
H499 C505 0.950 . S
H500 C506 0.949 . S
C501 H496 0.950 . S
C501 C503 1.327 . S
C501 C507 1.429 . S
C502 C494 1.574 . S
C502 H497 0.949 . S
C502 C508 1.368 . S
C503 C487 1.349 . S
C503 H495 0.950 . S
C503 C501 1.327 . S
C504 C492 1.349 . S
C504 H498 0.950 . S
C504 C505 1.327 . S
C505 H499 0.950 . S
C505 C504 1.327 . S
C505 C509 1.429 . S
C506 C489 1.574 . S
C506 H500 0.949 . S
C506 C510 1.368 . S
C507 C488 1.429 . S
C507 C501 1.429 . S
C507 C508 1.523 . S
C508 C489 1.368 . S
C508 C502 1.368 . S
C508 C507 1.523 . S
C509 C493 1.429 . S
C509 C505 1.429 . S
C509 C510 1.523 . S
C510 C494 1.368 . S
C510 C506 1.368 . S
C510 C509 1.523 . S
H511 C486 0.950 . S
H512 C488 0.950 . S
H513 C489 0.949 . S
H514 C491 0.950 . S
H515 C493 0.950 . S
C516 C517 1.349 . S
C516 C518 1.327 . S
C516 H541 0.950 . S
C517 C516 1.349 . S
C517 C533 1.349 . S
C518 C516 1.327 . S
C518 C537 1.429 . S
C518 H542 0.950 . S
C519 C536 1.574 . S
C519 C538 1.368 . S
C519 H543 0.949 . S
H520 C524 0.949 . S
C521 C522 1.349 . S
C521 C523 1.327 . S
C521 H544 0.950 . S
C522 C521 1.349 . S
C522 C534 1.349 . S
C523 C521 1.327 . S
C523 C539 1.429 . S
C523 H545 0.950 . S
C524 H520 0.949 . S
C524 C532 1.574 . S
C524 C540 1.368 . S
H525 C533 0.950 . S
H526 C531 0.950 . S
H527 C532 0.949 . S
H528 C534 0.950 . S
H529 C535 0.950 . S
H530 C536 0.949 . S
C531 H526 0.950 . S
C531 C533 1.327 . S
C531 C537 1.429 . S
C532 C524 1.574 . S
C532 H527 0.949 . S
C532 C538 1.368 . S
C533 C517 1.349 . S
C533 H525 0.950 . S
C533 C531 1.327 . S
C534 C522 1.349 . S
C534 H528 0.950 . S
C534 C535 1.327 . S
C535 H529 0.950 . S
C535 C534 1.327 . S
C535 C539 1.429 . S
C536 C519 1.574 . S
C536 H530 0.949 . S
C536 C540 1.368 . S
C537 C518 1.429 . S
C537 C531 1.429 . S
C537 C538 1.523 . S
C538 C519 1.368 . S
C538 C532 1.368 . S
C538 C537 1.523 . S
C539 C523 1.429 . S
C539 C535 1.429 . S
C539 C540 1.523 . S
C540 C524 1.368 . S
C540 C536 1.368 . S
C540 C539 1.523 . S
H541 C516 0.950 . S
H542 C518 0.950 . S
H543 C519 0.949 . S
H544 C521 0.950 . S
H545 C523 0.950 . S
C546 C547 1.349 . S
C546 C548 1.327 . S
C546 H571 0.950 . S
C547 C546 1.349 . S
C547 C563 1.349 . S
C548 C546 1.327 . S
C548 C567 1.429 . S
C548 H572 0.950 . S
C549 C566 1.574 . S
C549 C568 1.368 . S
C549 H573 0.949 . S
H550 C554 0.949 . S
C551 C552 1.349 . S
C551 C553 1.327 . S
C551 H574 0.950 . S
C552 C551 1.349 . S
C552 C564 1.349 . S
C553 C551 1.327 . S
C553 C569 1.429 . S
C553 H575 0.950 . S
C554 H550 0.949 . S
C554 C562 1.574 . S
C554 C570 1.368 . S
H555 C563 0.950 . S
H556 C561 0.950 . S
H557 C562 0.949 . S
H558 C564 0.950 . S
H559 C565 0.950 . S
H560 C566 0.949 . S
C561 H556 0.950 . S
C561 C563 1.327 . S
C561 C567 1.429 . S
C562 C554 1.574 . S
C562 H557 0.949 . S
C562 C568 1.368 . S
C563 C547 1.349 . S
C563 H555 0.950 . S
C563 C561 1.327 . S
C564 C552 1.349 . S
C564 H558 0.950 . S
C564 C565 1.327 . S
C565 H559 0.950 . S
C565 C564 1.327 . S
C565 C569 1.429 . S
C566 C549 1.574 . S
C566 H560 0.949 . S
C566 C570 1.368 . S
C567 C548 1.429 . S
C567 C561 1.429 . S
C567 C568 1.523 . S
C568 C549 1.368 . S
C568 C562 1.368 . S
C568 C567 1.523 . S
C569 C553 1.429 . S
C569 C565 1.429 . S
C569 C570 1.523 . S
C570 C554 1.368 . S
C570 C566 1.368 . S
C570 C569 1.523 . S
H571 C546 0.950 . S
H572 C548 0.950 . S
H573 C549 0.949 . S
H574 C551 0.950 . S
H575 C553 0.950 . S
C576 C577 1.349 . S
C576 C578 1.327 . S
C576 H601 0.950 . S
C577 C576 1.349 . S
C577 C593 1.349 . S
C578 C576 1.327 . S
C578 C597 1.429 . S
C578 H602 0.950 . S
C579 C596 1.574 . S
C579 C598 1.368 . S
C579 H603 0.949 . S
H580 C584 0.949 . S
C581 C582 1.349 . S
C581 C583 1.327 . S
C581 H604 0.950 . S
C582 C581 1.349 . S
C582 C594 1.349 . S
C583 C581 1.327 . S
C583 C599 1.429 . S
C583 H605 0.950 . S
C584 H580 0.949 . S
C584 C592 1.574 . S
C584 C600 1.368 . S
H585 C593 0.950 . S
H586 C591 0.950 . S
H587 C592 0.949 . S
H588 C594 0.950 . S
H589 C595 0.950 . S
H590 C596 0.949 . S
C591 H586 0.950 . S
C591 C593 1.327 . S
C591 C597 1.429 . S
C592 C584 1.574 . S
C592 H587 0.949 . S
C592 C598 1.368 . S
C593 C577 1.349 . S
C593 H585 0.950 . S
C593 C591 1.327 . S
C594 C582 1.349 . S
C594 H588 0.950 . S
C594 C595 1.327 . S
C595 H589 0.950 . S
C595 C594 1.327 . S
C595 C599 1.429 . S
C596 C579 1.574 . S
C596 H590 0.949 . S
C596 C600 1.368 . S
C597 C578 1.429 . S
C597 C591 1.429 . S
C597 C598 1.523 . S
C598 C579 1.368 . S
C598 C592 1.368 . S
C598 C597 1.523 . S
C599 C583 1.429 . S
C599 C595 1.429 . S
C599 C600 1.523 . S
C600 C584 1.368 . S
C600 C596 1.368 . S
C600 C599 1.523 . S
H601 C576 0.950 . S
H602 C578 0.950 . S
H603 C579 0.949 . S
H604 C581 0.950 . S
H605 C583 0.950 . S
C606 C607 1.349 . S
C606 C608 1.327 . S
C606 H631 0.950 . S
C607 C606 1.349 . S
C607 C623 1.349 . S
C608 C606 1.327 . S
C608 C627 1.429 . S
C608 H632 0.950 . S
C609 C626 1.574 . S
C609 C628 1.368 . S
C609 H633 0.949 . S
H610 C614 0.949 . S
C611 C612 1.349 . S
C611 C613 1.327 . S
C611 H634 0.950 . S
C612 C611 1.349 . S
C612 C624 1.349 . S
C613 C611 1.327 . S
C613 C629 1.429 . S
C613 H635 0.950 . S
C614 H610 0.949 . S
C614 C622 1.574 . S
C614 C630 1.368 . S
H615 C623 0.950 . S
H616 C621 0.950 . S
H617 C622 0.949 . S
H618 C624 0.950 . S
H619 C625 0.950 . S
H620 C626 0.949 . S
C621 H616 0.950 . S
C621 C623 1.327 . S
C621 C627 1.429 . S
C622 C614 1.574 . S
C622 H617 0.949 . S
C622 C628 1.368 . S
C623 C607 1.349 . S
C623 H615 0.950 . S
C623 C621 1.327 . S
C624 C612 1.349 . S
C624 H618 0.950 . S
C624 C625 1.327 . S
C625 H619 0.950 . S
C625 C624 1.327 . S
C625 C629 1.429 . S
C626 C609 1.574 . S
C626 H620 0.949 . S
C626 C630 1.368 . S
C627 C608 1.429 . S
C627 C621 1.429 . S
C627 C628 1.523 . S
C628 C609 1.368 . S
C628 C622 1.368 . S
C628 C627 1.523 . S
C629 C613 1.429 . S
C629 C625 1.429 . S
C629 C630 1.523 . S
C630 C614 1.368 . S
C630 C626 1.368 . S
C630 C629 1.523 . S
H631 C606 0.950 . S
H632 C608 0.950 . S
H633 C609 0.949 . S
H634 C611 0.950 . S
H635 C613 0.950 . S
C636 C637 1.349 . S
C636 C638 1.327 . S
C636 H661 0.950 . S
C637 C636 1.349 . S
C637 C653 1.349 . S
C638 C636 1.327 . S
C638 C657 1.429 . S
C638 H662 0.950 . S
C639 C656 1.574 . S
C639 C658 1.368 . S
C639 H663 0.949 . S
H640 C644 0.949 . S
C641 C642 1.349 . S
C641 C643 1.327 . S
C641 H664 0.950 . S
C642 C641 1.349 . S
C642 C654 1.349 . S
C643 C641 1.327 . S
C643 C659 1.429 . S
C643 H665 0.950 . S
C644 H640 0.949 . S
C644 C652 1.574 . S
C644 C660 1.368 . S
H645 C653 0.950 . S
H646 C651 0.950 . S
H647 C652 0.949 . S
H648 C654 0.950 . S
H649 C655 0.950 . S
H650 C656 0.949 . S
C651 H646 0.950 . S
C651 C653 1.327 . S
C651 C657 1.429 . S
C652 C644 1.574 . S
C652 H647 0.949 . S
C652 C658 1.368 . S
C653 C637 1.349 . S
C653 H645 0.950 . S
C653 C651 1.327 . S
C654 C642 1.349 . S
C654 H648 0.950 . S
C654 C655 1.327 . S
C655 H649 0.950 . S
C655 C654 1.327 . S
C655 C659 1.429 . S
C656 C639 1.574 . S
C656 H650 0.949 . S
C656 C660 1.368 . S
C657 C638 1.429 . S
C657 C651 1.429 . S
C657 C658 1.523 . S
C658 C639 1.368 . S
C658 C652 1.368 . S
C658 C657 1.523 . S
C659 C643 1.429 . S
C659 C655 1.429 . S
C659 C660 1.523 . S
C660 C644 1.368 . S
C660 C656 1.368 . S
C660 C659 1.523 . S
H661 C636 0.950 . S
H662 C638 0.950 . S
H663 C639 0.949 . S
H664 C641 0.950 . S
H665 C643 0.950 . S
C127 C121 1.236 . S
C132 C15 1.043 1_556 S
C157 C16 1.236 . S
C162 C36 1.043 1_556 S
C187 C37 1.236 . S
C192 C57 1.043 1_556 S
C217 C78 1.043 1_556 S
C222 C58 1.236 . S
C247 C99 1.043 1_556 S
C252 C79 1.236 . S
C277 C100 1.237 . S
C282 C120 1.043 1_556 S
C307 C98 1.532 . S
C312 C18 1.389 1_554 S
C337 C119 1.532 . S
C342 C39 1.389 1_554 S
C367 C60 1.389 1_554 S
C372 C14 1.532 . S
C397 C81 1.389 1_554 S
C402 C35 1.532 . S
C427 C102 1.388 1_554 S
C432 C56 1.532 . S
C457 C77 1.532 . S
C462 C123 1.389 1_554 S
C487 C17 1.466 . S
C492 C13 1.487 . S
C517 C38 1.466 . S
C522 C34 1.487 . S
C547 C59 1.466 . S
C552 C55 1.487 . S
C577 C80 1.466 . S
C582 C76 1.487 . S
C607 C97 1.487 . S
C612 C101 1.466 . S
C637 C122 1.466 . S
C642 C118 1.487 . S
