# Generated by pormake.
# Topology lcy, (6)-cn, num edge types: 1
# Building blocks:
#     Node 0, Type 0, BuildingBlock: VOLQOD_clean_sbu_1, # of connection points: 6
#     Node 1, Type 0, BuildingBlock: VOLQOD_clean_sbu_1, # of connection points: 6
#     Node 2, Type 0, BuildingBlock: VOLQOD_clean_sbu_1, # of connection points: 6
#     Node 3, Type 0, BuildingBlock: VOLQOD_clean_sbu_1, # of connection points: 6
#     Edge 4, Type (0, 0), BuildingBlock: EZIPEK_clean_linker_0, # of connection points: 2
#     Edge 5, Type (0, 0), BuildingBlock: EZIPEK_clean_linker_0, # of connection points: 2
#     Edge 6, Type (0, 0), BuildingBlock: EZIPEK_clean_linker_0, # of connection points: 2
#     Edge 7, Type (0, 0), BuildingBlock: EZIPEK_clean_linker_0, # of connection points: 2
#     Edge 8, Type (0, 0), BuildingBlock: EZIPEK_clean_linker_0, # of connection points: 2
#     Edge 9, Type (0, 0), BuildingBlock: EZIPEK_clean_linker_0, # of connection points: 2
#     Edge 10, Type (0, 0), BuildingBlock: EZIPEK_clean_linker_0, # of connection points: 2
#     Edge 11, Type (0, 0), BuildingBlock: EZIPEK_clean_linker_0, # of connection points: 2
#     Edge 12, Type (0, 0), BuildingBlock: EZIPEK_clean_linker_0, # of connection points: 2
#     Edge 13, Type (0, 0), BuildingBlock: EZIPEK_clean_linker_0, # of connection points: 2
#     Edge 14, Type (0, 0), BuildingBlock: EZIPEK_clean_linker_0, # of connection points: 2
#     Edge 15, Type (0, 0), BuildingBlock: EZIPEK_clean_linker_0, # of connection points: 2
# Relax obj value: 0.277
# Max RMSD: 0.253
# Mean RMSD: 0.248
data_MOF--net-lcy--node1-VOLQOD_clean_sbu_1--edge1-EZIPEK_clean_linker_0
_symmetry_space_group_name_H-M    P1
_symmetry_Int_Tables_number       1
_symmetry_cell_setting            triclinic
loop_
_symmetry_equiv_pos_as_xyz
'x, y, z'
_cell_length_a     20.564666
_cell_length_b     20.381092
_cell_length_c     20.451659
_cell_angle_alpha  91.680352
_cell_angle_beta   88.496656
_cell_angle_gamma 92.263429
loop_
_atom_site_label
_atom_site_type_symbol
_atom_site_fract_x
_atom_site_fract_y
_atom_site_fract_z
_atom_type_partial_charge
O0 O 0.41491 0.2644 0.45901 0.0
Zn1 Zn 0.34265 0.26417 0.3931 0.0
O2 O 0.35101 0.33977 0.33995 0.0
Zn3 Zn 0.26774 0.37795 0.33787 0.0
Zn4 Zn 0.40896 0.40132 0.38153 0.0
Zn5 Zn 0.38701 0.32136 0.25365 0.0
O6 O 0.25635 0.41379 0.2478 0.0
O7 O 0.32593 0.35457 0.18696 0.0
O8 O 0.25114 0.25371 0.43074 0.0
O9 O 0.19791 0.30986 0.3584 0.0
O10 O 0.25926 0.44473 0.41343 0.0
O11 O 0.36149 0.45724 0.4455 0.0
O12 O 0.45514 0.45516 0.31528 0.0
O13 O 0.35863 0.18508 0.33694 0.0
O14 O 0.4695 0.37889 0.23682 0.0
O15 O 0.40179 0.2225 0.2432 0.0
C16 C 0.46651 0.30112 0.46227 0.0
C17 C 0.28072 0.39574 0.1923 0.0
C18 C 0.30149 0.46885 0.45292 0.0
C19 C 0.19843 0.26923 0.40451 0.0
C20 C 0.48128 0.43641 0.2613 0.0
C21 C 0.38538 0.17527 0.28094 0.0
O22 O 0.47349 0.35384 0.43068 0.0
O23 O 0.95998 0.08445 0.7255 0.0
Zn24 Zn 0.88199 0.14373 0.72725 0.0
O25 O 0.83572 0.13627 0.64754 0.0
Zn26 Zn 0.8397 0.2188 0.60375 0.0
Zn27 Zn 0.88121 0.07493 0.59415 0.0
Zn28 Zn 0.74748 0.10143 0.66049 0.0
O29 O 0.75062 0.23744 0.57194 0.0
O30 O 0.686 0.16707 0.62797 0.0
O31 O 0.90428 0.23765 0.74937 0.0
O32 O 0.87048 0.29123 0.66488 0.0
O33 O 0.90958 0.2202 0.533 0.0
O34 O 0.95081 0.12167 0.54155 0.0
O35 O 0.81928 0.02705 0.53565 0.0
O36 O 0.8232 0.11497 0.79954 0.0
O37 O 0.7301 0.0222 0.59967 0.0
O38 O 0.72876 0.08142 0.7567 0.0
C39 C 0.96178 0.02781 0.69732 0.0
C40 C 0.69417 0.21468 0.58907 0.0
C41 C 0.95332 0.17919 0.51903 0.0
C42 C 0.89647 0.29116 0.72065 0.0
C43 C 0.76109 0.00634 0.54706 0.0
C44 C 0.7653 0.09151 0.80586 0.0
O45 O 0.92496 0.01248 0.64976 0.0
O46 O 0.04689 0.75263 0.7856 0.0
Zn47 Zn 0.05664 0.67276 0.8404 0.0
O48 O 0.14733 0.65655 0.85074 0.0
Zn49 Zn 0.16571 0.56598 0.83344 0.0
Zn50 Zn 0.1977 0.70756 0.78835 0.0
Zn51 Zn 0.17238 0.6807 0.93882 0.0
O52 O 0.20898 0.52442 0.91006 0.0
O53 O 0.18708 0.59941 0.98785 0.0
O54 O 0.00497 0.59085 0.81191 0.0
O55 O 0.08176 0.5181 0.81949 0.0
O56 O 0.2125 0.55371 0.74666 0.0
O57 O 0.21726 0.65415 0.7068 0.0
O58 O 0.28265 0.73411 0.82733 0.0
O59 O 0.01807 0.69907 0.9263 0.0
O60 O 0.26165 0.72688 0.9346 0.0
O61 O 0.1007 0.72764 0.99075 0.0
C62 C 0.08876 0.79522 0.76429 0.0
C63 C 0.20646 0.5429 0.97026 0.0
C64 C 0.22427 0.59256 0.69969 0.0
C65 C 0.02307 0.53174 0.80955 0.0
C66 C 0.30007 0.74064 0.8864 0.0
C67 C 0.03983 0.7234 0.97959 0.0
O68 O 0.1497 0.78689 0.76571 0.0
O69 O 0.50152 0.87759 0.22701 0.0
Zn70 Zn 0.58416 0.82441 0.21519 0.0
O71 O 0.63435 0.8483 0.13755 0.0
Zn72 Zn 0.65356 0.77405 0.08026 0.0
Zn73 Zn 0.58012 0.90175 0.091 0.0
Zn74 Zn 0.71149 0.90095 0.15697 0.0
O75 O 0.75144 0.77135 0.06286 0.0
O76 O 0.79033 0.84987 0.13127 0.0
O77 O 0.56794 0.72561 0.21468 0.0
O78 O 0.6249 0.69163 0.12629 0.0
O79 O 0.59862 0.77313 -0.00223 0.0
O80 O 0.52781 0.8475 0.03005 0.0
O81 O 0.63104 0.96658 0.04013 0.0
O82 O 0.63548 0.85229 0.29382 0.0
O83 O 0.71788 0.9825 0.10095 0.0
O84 O 0.71294 0.92133 0.25413 0.0
C85 C 0.49045 0.93209 0.20095 0.0
C86 C 0.79904 0.80242 0.09041 0.0
C87 C 0.54447 0.80069 0.99167 0.0
C88 C 0.58987 0.67988 0.17723 0.0
C89 C 0.6836 -0.00168 0.05315 0.0
C90 C 0.68232 0.89422 0.30195 0.0
O91 O 0.52201 0.95053 0.15028 0.0
C92 C 0.20316 0.43666 0.03176 0.0
C93 C 0.23063 0.50087 0.02202 0.0
C94 C 0.2893 0.49615 0.12483 0.0
C95 C 0.26367 0.43113 0.13325 0.0
N96 N 0.20602 0.33482 0.09028 0.0
N97 N 0.31022 0.58609 0.05108 0.0
C98 C 0.22394 0.3998 0.08505 0.0
C99 C 0.27677 0.52895 0.06633 0.0
N100 N 0.15441 0.41239 0.99269 0.0
N101 N 0.32581 0.52648 0.1728 0.0
H102 H 0.30554 0.60915 0.00672 0.0
H103 H 0.34643 0.60837 0.07946 0.0
H104 H 0.34013 0.50279 0.21427 0.0
H105 H 0.33941 0.57621 0.17362 0.0
H106 H 0.12709 0.36944 0.00201 0.0
H107 H 0.13765 0.43763 0.95335 0.0
H108 H 0.18343 0.30709 0.05316 0.0
H109 H 0.21789 0.30719 0.13012 0.0
C110 C 0.66942 0.9772 0.39253 0.0
C111 C 0.6961 0.91767 0.36911 0.0
C112 C 0.75435 0.90822 0.47106 0.0
C113 C 0.72815 0.96825 0.49409 0.0
N114 N 0.64637 0.04933 0.48539 0.0
N115 N 0.75262 0.81923 0.38926 0.0
C116 C 0.68076 -0.00085 0.45777 0.0
C117 C 0.73473 0.88056 0.40965 0.0
N118 N 0.6354 0.01427 0.35157 0.0
N119 N 0.79926 0.87886 0.50739 0.0
H120 H 0.74067 0.79862 0.34362 0.0
H121 H 0.77549 0.78698 0.41888 0.0
H122 H 0.81098 0.89563 0.55451 0.0
H123 H 0.82638 0.83954 0.49039 0.0
H124 H 0.62316 0.06245 0.36285 0.0
H125 H 0.62332 -0.0012 0.3042 0.0
H126 H 0.60619 0.06841 0.46372 0.0
H127 H 0.65366 0.06809 0.53258 0.0
C128 C 0.2143 0.58072 0.57676 0.0
C129 C 0.24553 0.56458 0.63523 0.0
C130 C 0.30382 0.47933 0.57481 0.0
C131 C 0.28028 0.50172 0.51501 0.0
N132 N 0.22166 0.5821 0.45832 0.0
N133 N 0.33323 0.51019 0.68512 0.0
C134 C 0.23796 0.55496 0.51563 0.0
C135 C 0.29437 0.51744 0.63282 0.0
N136 N 0.16004 0.61741 0.57949 0.0
N137 N 0.33213 0.41988 0.57726 0.0
H138 H 0.33031 0.53966 0.72758 0.0
H139 H 0.37322 0.48022 0.68312 0.0
H140 H 0.33566 0.38746 0.53703 0.0
H141 H 0.34465 0.39938 0.62109 0.0
H142 H 0.13215 0.62491 0.53875 0.0
H143 H 0.1387 0.63451 0.62317 0.0
H144 H 0.19616 0.62518 0.45661 0.0
H145 H 0.2389 0.5652 0.41272 0.0
C146 C 0.77351 0.03889 0.98008 0.0
C147 C 0.70918 0.04537 0.00363 0.0
C148 C 0.68408 0.0981 0.90106 0.0
C149 C 0.74272 0.0741 0.87275 0.0
N150 N 0.83626 0.00746 0.88475 0.0
N151 N 0.6042 0.0908 0.99063 0.0
C152 C 0.78575 0.04084 0.91218 0.0
C153 C 0.66474 0.07855 0.96534 0.0
N154 N 0.82318 0.03248 0.02188 0.0
N155 N 0.64846 0.14094 0.86805 0.0
H156 H 0.5917 0.08275 0.03966 0.0
H157 H 0.56658 0.1072 0.96298 0.0
H158 H 0.66209 0.15753 0.82176 0.0
H159 H 0.6085 0.1644 0.88873 0.0
H160 H 0.87169 0.03263 0.00554 0.0
H161 H 0.81671 0.03696 0.0725 0.0
H162 H 0.86488 0.97808 0.91229 0.0
H163 H 0.84382 0.00239 0.83423 0.0
C164 C 0.05667 0.24672 0.52454 0.0
C165 C 0.01484 0.20325 0.48798 0.0
C166 C 0.09624 0.19839 0.39853 0.0
C167 C 0.13559 0.24573 0.4331 0.0
N168 N 0.14891 0.32423 0.52292 0.0
N169 N 0.98993 0.14312 0.38813 0.0
C170 C 0.11459 0.27256 0.49442 0.0
C171 C 0.03327 0.18046 0.42431 0.0
N172 N 0.04253 0.26107 0.58905 0.0
N173 N 0.11996 0.16936 0.34218 0.0
H174 H 0.9437 0.12886 0.40608 0.0
H175 H -0.00237 0.13028 0.33899 0.0
H176 H 0.16569 0.18185 0.32183 0.0
H177 H 0.09667 0.12974 0.31806 0.0
H178 H 0.07487 0.2863 0.62005 0.0
H179 H 0.00084 0.2429 0.6136 0.0
H180 H 0.13185 0.35085 0.56365 0.0
H181 H 0.19208 0.34439 0.50276 0.0
C182 C 0.04826 0.90468 0.79875 0.0
C183 C 0.06629 0.86025 0.74749 0.0
C184 C 0.03981 0.94058 0.66715 0.0
C185 C 0.00805 0.97813 0.71732 0.0
N186 N 0.98361 -0.0037 0.83312 0.0
N187 N 0.08026 0.83462 0.63247 0.0
C188 C 0.01374 0.96121 0.78396 0.0
C189 C 0.06306 0.87807 0.68146 0.0
N190 N 0.06514 0.89329 0.86153 0.0
N191 N 0.04942 0.96588 0.60634 0.0
H192 H 0.099 0.78899 0.64146 0.0
H193 H 0.07192 0.842 0.58326 0.0
H194 H 0.03617 0.0132 0.59553 0.0
H195 H 0.07689 0.94333 0.56921 0.0
H196 H 0.061 0.92798 0.89965 0.0
H197 H 0.08953 0.85179 0.87435 0.0
H198 H 0.9797 0.98089 0.8812 0.0
H199 H 0.95919 0.03909 0.82633 0.0
C200 C 0.40938 0.70036 0.91119 0.0
C201 C 0.3697 0.75383 0.89862 0.0
C202 C 0.46306 0.83 0.91201 0.0
C203 C 0.49706 0.77953 0.94091 0.0
N204 N 0.50889 0.66362 0.95682 0.0
N205 N 0.35864 0.86914 0.88115 0.0
C206 C 0.47283 0.71339 0.93584 0.0
C207 C 0.39683 0.81853 0.89598 0.0
N208 N 0.38643 0.63743 0.89862 0.0
N209 N 0.49474 0.88892 0.90078 0.0
H210 H 0.31015 0.86196 0.86793 0.0
H211 H 0.37375 0.9184 0.88543 0.0
H212 H 0.54391 0.89711 0.91124 0.0
H213 H 0.47474 0.92663 0.87562 0.0
H214 H 0.41452 0.59625 0.90081 0.0
H215 H 0.34005 0.62643 0.88083 0.0
H216 H 0.49088 0.61564 0.9622 0.0
H217 H 0.55746 0.66991 0.96927 0.0
C218 C 0.37829 0.07362 0.20801 0.0
C219 C 0.40407 0.1073 0.26376 0.0
C220 C 0.45884 0.00792 0.29333 0.0
C221 C 0.44477 0.9796 0.23105 0.0
N222 N 0.38568 0.98078 0.1312 0.0
N223 N 0.4744 0.10884 0.35693 0.0
C224 C 0.40198 0.01086 0.18941 0.0
C225 C 0.4451 0.07478 0.30633 0.0
N226 N 0.33041 0.10098 0.17393 0.0
N227 N 0.4857 0.97143 0.33986 0.0
H228 H 0.46852 0.15873 0.36674 0.0
H229 H 0.50953 0.08935 0.38564 0.0
H230 H 0.49478 0.92184 0.33291 0.0
H231 H 0.49172 0.98811 0.38804 0.0
H232 H 0.3053 0.0765 0.13639 0.0
H233 H 0.31213 0.1468 0.18654 0.0
H234 H 0.36172 0.00367 0.09445 0.0
H235 H 0.39815 0.93264 0.11918 0.0
C236 C 0.58501 0.26576 0.59528 0.0
C237 C 0.63639 0.23857 0.55693 0.0
C238 C 0.57684 0.25463 0.45678 0.0
C239 C 0.52363 0.27761 0.49549 0.0
N240 N 0.47241 0.29783 0.60102 0.0
N241 N 0.67671 0.19565 0.45273 0.0
C242 C 0.52621 0.28076 0.56469 0.0
C243 C 0.63132 0.23021 0.48802 0.0
N244 N 0.59362 0.27978 0.66035 0.0
N245 N 0.57541 0.25624 0.38996 0.0
H246 H 0.71689 0.17549 0.47343 0.0
H247 H 0.67154 0.18115 0.40386 0.0
H248 H 0.53466 0.2689 0.36452 0.0
H249 H 0.61597 0.24875 0.3595 0.0
H250 H 0.56082 0.30563 0.68979 0.0
H251 H 0.63646 0.27038 0.68403 0.0
H252 H 0.46866 0.29443 0.65167 0.0
H253 H 0.42938 0.31116 0.58 0.0
C254 C 0.92815 0.47468 0.74911 0.0
C255 C 0.97664 0.47534 0.79739 0.0
C256 C 0.97281 0.35624 0.79568 0.0
C257 C 0.92058 0.35443 0.75131 0.0
N258 N 0.83218 0.41564 0.70986 0.0
N259 N 0.01802 0.41685 0.88753 0.0
C260 C 0.89276 0.41478 0.73548 0.0
C261 C 0.98912 0.41608 0.82823 0.0
N262 N 0.91744 0.52885 0.71383 0.0
N263 N 0.01126 0.30391 0.80298 0.0
H264 H 0.0274 0.46053 0.91422 0.0
H265 H 0.02482 0.37397 0.91276 0.0
H266 H 0.01005 0.26223 0.77236 0.0
H267 H 0.0516 0.30665 0.833 0.0
H268 H 0.88658 0.52716 0.67409 0.0
H269 H 0.94296 0.57356 0.71992 0.0
H270 H 0.80911 0.45923 0.70176 0.0
H271 H 0.80169 0.37371 0.70561 0.0
C272 C 0.94677 0.69896 0.05645 0.0
C273 C 0.9907 0.74614 0.02819 0.0
C274 C 0.91162 0.83133 0.04621 0.0
C275 C 0.86669 0.78411 0.07337 0.0
N276 N 0.84752 0.67784 0.12062 0.0
N277 N 0.02384 0.85928 0.01528 0.0
C278 C 0.88622 0.7193 0.08374 0.0
C279 C 0.97619 0.81322 0.03017 0.0
N280 N 0.96228 0.63434 0.05487 0.0
N281 N 0.89138 0.89183 0.03075 0.0
H282 H 0.07145 0.84671 0.00324 0.0
H283 H 0.01793 0.90963 0.02148 0.0
H284 H 0.84366 0.9061 0.03852 0.0
H285 H 0.92025 0.92536 0.00437 0.0
H286 H 0.92943 0.59614 0.06687 0.0
H287 H 0.00801 0.61892 0.03892 0.0
H288 H 0.86167 0.63201 0.13486 0.0
H289 H 0.80333 0.69167 0.142 0.0
C290 C 0.52362 0.57696 0.15269 0.0
C291 C 0.5713 0.61085 0.19117 0.0
C292 C 0.57531 0.51712 0.26284 0.0
C293 C 0.52424 0.48521 0.22718 0.0
N294 N 0.46394 0.47457 0.12754 0.0
N295 N 0.65427 0.60879 0.27183 0.0
C296 C 0.50358 0.5115 0.16808 0.0
C297 C 0.60109 0.57934 0.24278 0.0
N298 N 0.49481 0.60887 0.10389 0.0
N299 N 0.5974 0.48828 0.31711 0.0
H300 H 0.67385 0.65453 0.25813 0.0
H301 H 0.68191 0.58644 0.3061 0.0
H302 H 0.5828 0.4405 0.3296 0.0
H303 H 0.62868 0.51155 0.35039 0.0
H304 H 0.4561 0.58909 0.07724 0.0
H305 H 0.50705 0.65734 0.09223 0.0
H306 H 0.45168 0.48853 0.08105 0.0
H307 H 0.44769 0.42684 0.13748 0.0
loop_
_geom_bond_atom_site_label_1
_geom_bond_atom_site_label_2
_geom_bond_distance
_geom_bond_site_symmetry_2
_ccdc_geom_bond_type
O0 Zn1 1.953 . S
O0 C16 1.225 . S
Zn1 O0 1.953 . S
Zn1 O2 1.949 . S
Zn1 O8 1.919 . S
Zn1 O13 1.924 . S
O2 Zn1 1.949 . S
O2 Zn3 1.923 . S
O2 Zn4 1.950 . S
O2 Zn5 1.945 . S
Zn3 O2 1.923 . S
Zn3 O6 1.933 . S
Zn3 O9 1.941 . S
Zn3 O10 1.965 . S
Zn4 O2 1.950 . S
Zn4 O11 1.938 . S
Zn4 O12 1.906 . S
Zn4 O22 1.953 . S
Zn5 O2 1.945 . S
Zn5 O7 1.932 . S
Zn5 O14 1.977 . S
Zn5 O15 1.910 . S
O6 Zn3 1.933 . S
O6 C17 1.226 . S
O7 Zn5 1.932 . S
O7 C17 1.307 . S
O8 Zn1 1.919 . S
O8 C19 1.253 . S
O9 Zn3 1.941 . S
O9 C19 1.283 . S
O10 Zn3 1.965 . S
O10 C18 1.303 . S
O11 Zn4 1.938 . S
O11 C18 1.247 . S
O12 Zn4 1.906 . S
O12 C20 1.304 . S
O13 Zn1 1.924 . S
O13 C21 1.311 . S
O14 Zn5 1.977 . S
O14 C20 1.272 . S
O15 Zn5 1.910 . S
O15 C21 1.231 . S
C16 O0 1.225 . S
C16 O22 1.298 . S
C17 O6 1.226 . S
C17 O7 1.307 . S
C18 O10 1.303 . S
C18 O11 1.247 . S
C19 O8 1.253 . S
C19 O9 1.283 . S
C20 O12 1.304 . S
C20 O14 1.272 . S
C21 O13 1.311 . S
C21 O15 1.231 . S
O22 Zn4 1.953 . S
O22 C16 1.298 . S
O23 Zn24 1.953 . S
O23 C39 1.225 . S
Zn24 O23 1.953 . S
Zn24 O25 1.949 . S
Zn24 O31 1.919 . S
Zn24 O36 1.924 . S
O25 Zn24 1.949 . S
O25 Zn26 1.923 . S
O25 Zn27 1.950 . S
O25 Zn28 1.945 . S
Zn26 O25 1.923 . S
Zn26 O29 1.933 . S
Zn26 O32 1.941 . S
Zn26 O33 1.965 . S
Zn27 O25 1.950 . S
Zn27 O34 1.938 . S
Zn27 O35 1.906 . S
Zn27 O45 1.953 . S
Zn28 O25 1.945 . S
Zn28 O30 1.932 . S
Zn28 O37 1.977 . S
Zn28 O38 1.910 . S
O29 Zn26 1.933 . S
O29 C40 1.226 . S
O30 Zn28 1.932 . S
O30 C40 1.307 . S
O31 Zn24 1.919 . S
O31 C42 1.253 . S
O32 Zn26 1.941 . S
O32 C42 1.283 . S
O33 Zn26 1.965 . S
O33 C41 1.303 1_655 S
O34 Zn27 1.938 . S
O34 C41 1.247 1_655 S
O35 Zn27 1.906 . S
O35 C43 1.304 . S
O36 Zn24 1.924 . S
O36 C44 1.311 . S
O37 Zn28 1.977 . S
O37 C43 1.272 . S
O38 Zn28 1.910 . S
O38 C44 1.231 . S
C39 O23 1.225 . S
C39 O45 1.298 . S
C40 O29 1.226 . S
C40 O30 1.307 . S
C41 O33 1.303 1_455 S
C41 O34 1.247 1_455 S
C42 O31 1.253 . S
C42 O32 1.283 . S
C43 O35 1.304 . S
C43 O37 1.272 . S
C44 O36 1.311 . S
C44 O38 1.231 . S
O45 Zn27 1.953 . S
O45 C39 1.298 . S
O46 Zn47 1.953 . S
O46 C62 1.225 . S
Zn47 O46 1.953 . S
Zn47 O48 1.949 . S
Zn47 O54 1.919 1_455 S
Zn47 O59 1.924 1_455 S
O48 Zn47 1.949 . S
O48 Zn49 1.923 . S
O48 Zn50 1.950 . S
O48 Zn51 1.945 . S
Zn49 O48 1.923 . S
Zn49 O52 1.933 . S
Zn49 O55 1.941 . S
Zn49 O56 1.965 . S
Zn50 O48 1.950 . S
Zn50 O57 1.938 . S
Zn50 O58 1.906 . S
Zn50 O68 1.953 . S
Zn51 O48 1.945 . S
Zn51 O53 1.932 1_556 S
Zn51 O60 1.977 . S
Zn51 O61 1.910 1_556 S
O52 Zn49 1.933 . S
O52 C63 1.226 . S
O53 Zn51 1.932 1_554 S
O53 C63 1.307 1_554 S
O54 Zn47 1.919 1_655 S
O54 C65 1.253 1_655 S
O55 Zn49 1.941 . S
O55 C65 1.283 . S
O56 Zn49 1.965 . S
O56 C64 1.303 . S
O57 Zn50 1.938 . S
O57 C64 1.247 . S
O58 Zn50 1.906 . S
O58 C66 1.304 . S
O59 Zn47 1.924 1_655 S
O59 C67 1.311 1_655 S
O60 Zn51 1.977 . S
O60 C66 1.272 . S
O61 Zn51 1.910 1_554 S
O61 C67 1.231 1_554 S
C62 O46 1.225 . S
C62 O68 1.298 . S
C63 O52 1.226 . S
C63 O53 1.307 1_556 S
C64 O56 1.303 . S
C64 O57 1.247 . S
C65 O54 1.253 1_455 S
C65 O55 1.283 . S
C66 O58 1.304 . S
C66 O60 1.272 . S
C67 O59 1.311 1_455 S
C67 O61 1.231 1_556 S
O68 Zn50 1.953 . S
O68 C62 1.298 . S
O69 Zn70 1.953 . S
O69 C85 1.225 . S
Zn70 O69 1.953 . S
Zn70 O71 1.949 . S
Zn70 O77 1.919 . S
Zn70 O82 1.924 . S
O71 Zn70 1.949 . S
O71 Zn72 1.923 . S
O71 Zn73 1.950 . S
O71 Zn74 1.945 . S
Zn72 O71 1.923 . S
Zn72 O75 1.933 . S
Zn72 O78 1.941 . S
Zn72 O79 1.965 . S
Zn73 O71 1.950 . S
Zn73 O80 1.938 . S
Zn73 O81 1.906 . S
Zn73 O91 1.962 . S
Zn74 O71 1.945 . S
Zn74 O76 1.932 . S
Zn74 O83 1.977 . S
Zn74 O84 1.910 . S
O75 Zn72 1.933 . S
O75 C86 1.226 . S
O76 Zn74 1.932 . S
O76 C86 1.307 . S
O77 Zn70 1.919 . S
O77 C88 1.253 . S
O78 Zn72 1.941 . S
O78 C88 1.283 . S
O79 Zn72 1.965 . S
O79 C87 1.303 . S
O80 Zn73 1.938 . S
O80 C87 1.247 . S
O81 Zn73 1.906 . S
O81 C89 1.304 . S
O82 Zn70 1.924 . S
O82 C90 1.311 . S
O83 Zn74 1.977 . S
O83 C89 1.272 . S
O84 Zn74 1.910 . S
O84 C90 1.231 . S
C85 O69 1.225 . S
C85 O91 1.301 . S
C86 O75 1.226 . S
C86 O76 1.307 . S
C87 O79 1.303 . S
C87 O80 1.247 . S
C88 O77 1.253 . S
C88 O78 1.283 . S
C89 O81 1.304 . S
C89 O83 1.272 . S
C90 O82 1.311 . S
C90 O84 1.231 . S
O91 Zn73 1.962 . S
O91 C85 1.301 . S
C92 C93 1.363 . S
C92 C98 1.379 . S
C92 N100 1.356 . S
C93 C92 1.363 . S
C93 C99 1.363 . S
C94 C95 1.363 . S
C94 C99 1.379 . S
C94 N101 1.356 . S
C95 C94 1.363 . S
C95 C98 1.363 . S
N96 C98 1.356 . S
N96 H108 0.984 . S
N96 H109 0.985 . S
N97 C99 1.356 . S
N97 H102 0.984 . S
N97 H103 0.985 . S
C98 C92 1.379 . S
C98 C95 1.363 . S
C98 N96 1.356 . S
C99 C93 1.363 . S
C99 C94 1.379 . S
C99 N97 1.356 . S
N100 C92 1.356 . S
N100 H106 0.984 . S
N100 H107 0.983 . S
N101 C94 1.356 . S
N101 H104 0.984 . S
N101 H105 0.985 . S
H102 N97 0.984 . S
H103 N97 0.985 . S
H104 N101 0.984 . S
H105 N101 0.985 . S
H106 N100 0.984 . S
H107 N100 0.983 . S
H108 N96 0.984 . S
H109 N96 0.985 . S
C110 C111 1.363 1_545 S
C110 C116 1.379 . S
C110 N118 1.356 . S
C111 C110 1.363 1_565 S
C111 C117 1.363 . S
C112 C113 1.363 . S
C112 C117 1.379 . S
C112 N119 1.356 . S
C113 C112 1.363 . S
C113 C116 1.363 1_565 S
N114 C116 1.356 . S
N114 H126 0.984 . S
N114 H127 0.985 . S
N115 C117 1.356 . S
N115 H120 0.984 . S
N115 H121 0.985 . S
C116 C110 1.379 . S
C116 C113 1.363 1_545 S
C116 N114 1.356 . S
C117 C111 1.363 . S
C117 C112 1.379 . S
C117 N115 1.356 . S
N118 C110 1.356 . S
N118 H124 0.984 . S
N118 H125 0.984 . S
N119 C112 1.356 . S
N119 H122 0.984 . S
N119 H123 0.985 . S
H120 N115 0.984 . S
H121 N115 0.985 . S
H122 N119 0.984 . S
H123 N119 0.985 . S
H124 N118 0.984 . S
H125 N118 0.984 . S
H126 N114 0.984 . S
H127 N114 0.985 . S
C128 C129 1.363 . S
C128 C134 1.379 . S
C128 N136 1.356 . S
C129 C128 1.363 . S
C129 C135 1.363 . S
C130 C131 1.363 . S
C130 C135 1.379 . S
C130 N137 1.356 . S
C131 C130 1.363 . S
C131 C134 1.363 . S
N132 C134 1.356 . S
N132 H144 0.984 . S
N132 H145 0.985 . S
N133 C135 1.356 . S
N133 H138 0.984 . S
N133 H139 0.985 . S
C134 C128 1.379 . S
C134 C131 1.363 . S
C134 N132 1.356 . S
C135 C129 1.363 . S
C135 C130 1.379 . S
C135 N133 1.356 . S
N136 C128 1.356 . S
N136 H142 0.984 . S
N136 H143 0.984 . S
N137 C130 1.356 . S
N137 H140 0.984 . S
N137 H141 0.985 . S
H138 N133 0.984 . S
H139 N133 0.985 . S
H140 N137 0.984 . S
H141 N137 0.985 . S
H142 N136 0.984 . S
H143 N136 0.984 . S
H144 N132 0.984 . S
H145 N132 0.985 . S
C146 C147 1.363 1_565 S
C146 C152 1.379 . S
C146 N154 1.356 . S
C147 C146 1.363 1_545 S
C147 C153 1.363 . S
C148 C149 1.363 . S
C148 C153 1.379 . S
C148 N155 1.356 . S
C149 C148 1.363 . S
C149 C152 1.363 1_545 S
N150 C152 1.356 . S
N150 H162 0.984 . S
N150 H163 0.985 1_565 S
N151 C153 1.356 . S
N151 H156 0.984 . S
N151 H157 0.985 . S
C152 C146 1.379 . S
C152 C149 1.363 1_565 S
C152 N150 1.356 . S
C153 C147 1.363 . S
C153 C148 1.379 . S
C153 N151 1.356 . S
N154 C146 1.356 . S
N154 H160 0.984 . S
N154 H161 0.984 1_556 S
N155 C148 1.356 . S
N155 H158 0.984 . S
N155 H159 0.985 . S
H156 N151 0.984 . S
H157 N151 0.985 . S
H158 N155 0.984 . S
H159 N155 0.985 . S
H160 N154 0.984 . S
H161 N154 0.984 1_554 S
H162 N150 0.984 . S
H163 N150 0.985 1_545 S
C164 C165 1.363 . S
C164 C170 1.379 . S
C164 N172 1.356 . S
C165 C164 1.363 . S
C165 C171 1.363 . S
C166 C167 1.363 . S
C166 C171 1.379 . S
C166 N173 1.356 . S
C167 C166 1.363 . S
C167 C170 1.363 . S
N168 C170 1.356 . S
N168 H180 0.984 . S
N168 H181 0.985 . S
N169 C171 1.356 . S
N169 H174 0.984 . S
N169 H175 0.985 . S
C170 C164 1.379 . S
C170 C167 1.363 . S
C170 N168 1.356 . S
C171 C165 1.363 . S
C171 C166 1.379 . S
C171 N169 1.356 . S
N172 C164 1.356 . S
N172 H178 0.984 . S
N172 H179 0.984 1_455 S
N173 C166 1.356 . S
N173 H176 0.984 . S
N173 H177 0.985 . S
H174 N169 0.984 . S
H175 N169 0.985 . S
H176 N173 0.984 . S
H177 N173 0.985 . S
H178 N172 0.984 . S
H179 N172 0.984 1_655 S
H180 N168 0.984 . S
H181 N168 0.985 . S
C182 C183 1.363 . S
C182 C188 1.379 1_455 S
C182 N190 1.356 1_455 S
C183 C182 1.363 . S
C183 C189 1.363 . S
C184 C185 1.363 . S
C184 C189 1.379 . S
C184 N191 1.356 . S
C185 C184 1.363 . S
C185 C188 1.363 1_455 S
N186 C188 1.356 . S
N186 H198 0.984 . S
N186 H199 0.985 1_565 S
N187 C189 1.356 . S
N187 H192 0.984 . S
N187 H193 0.985 . S
C188 C182 1.379 1_655 S
C188 C185 1.363 1_655 S
C188 N186 1.356 . S
C189 C183 1.363 . S
C189 C184 1.379 . S
C189 N187 1.356 . S
N190 C182 1.356 1_655 S
N190 H196 0.984 . S
N190 H197 0.984 1_655 S
N191 C184 1.356 . S
N191 H194 0.984 . S
N191 H195 0.985 . S
H192 N187 0.984 . S
H193 N187 0.985 . S
H194 N191 0.984 . S
H195 N191 0.985 . S
H196 N190 0.984 . S
H197 N190 0.984 1_455 S
H198 N186 0.984 . S
H199 N186 0.985 1_545 S
C200 C201 1.363 1_554 S
C200 C206 1.379 . S
C200 N208 1.356 . S
C201 C200 1.363 1_556 S
C201 C207 1.363 . S
C202 C203 1.363 1_556 S
C202 C207 1.379 . S
C202 N209 1.356 . S
C203 C202 1.363 1_554 S
C203 C206 1.363 . S
N204 C206 1.356 . S
N204 H216 0.984 . S
N204 H217 0.985 . S
N205 C207 1.356 . S
N205 H210 0.984 . S
N205 H211 0.985 . S
C206 C200 1.379 . S
C206 C203 1.363 . S
C206 N204 1.356 . S
C207 C201 1.363 . S
C207 C202 1.379 . S
C207 N205 1.356 . S
N208 C200 1.356 . S
N208 H214 0.984 . S
N208 H215 0.984 1_554 S
N209 C202 1.356 . S
N209 H212 0.984 . S
N209 H213 0.985 . S
H210 N205 0.984 . S
H211 N205 0.985 . S
H212 N209 0.984 . S
H213 N209 0.985 . S
H214 N208 0.984 . S
H215 N208 0.984 1_556 S
H216 N204 0.984 . S
H217 N204 0.985 . S
C218 C219 1.363 . S
C218 C224 1.379 . S
C218 N226 1.356 . S
C219 C218 1.363 . S
C219 C225 1.363 . S
C220 C221 1.363 . S
C220 C225 1.379 . S
C220 N227 1.356 . S
C221 C220 1.363 . S
C221 C224 1.363 . S
N222 C224 1.356 . S
N222 H234 0.984 . S
N222 H235 0.975 1_545 S
N223 C225 1.356 . S
N223 H228 0.984 . S
N223 H229 0.985 . S
C224 C218 1.379 . S
C224 C221 1.363 . S
C224 N222 1.356 . S
C225 C219 1.363 . S
C225 C220 1.379 . S
C225 N223 1.356 . S
N226 C218 1.356 . S
N226 H232 0.984 . S
N226 H233 0.984 . S
N227 C220 1.356 . S
N227 H230 0.984 1_545 S
N227 H231 0.985 . S
H228 N223 0.984 . S
H229 N223 0.985 . S
H230 N227 0.984 1_565 S
H231 N227 0.985 . S
H232 N226 0.984 . S
H233 N226 0.984 . S
H234 N222 0.984 . S
H235 N222 0.975 1_565 S
C236 C237 1.363 . S
C236 C242 1.379 . S
C236 N244 1.356 . S
C237 C236 1.363 . S
C237 C243 1.363 . S
C238 C239 1.363 . S
C238 C243 1.379 . S
C238 N245 1.356 . S
C239 C238 1.363 . S
C239 C242 1.363 . S
N240 C242 1.356 . S
N240 H252 0.984 . S
N240 H253 0.985 . S
N241 C243 1.356 . S
N241 H246 0.984 . S
N241 H247 0.985 . S
C242 C236 1.379 . S
C242 C239 1.363 . S
C242 N240 1.356 . S
C243 C237 1.363 . S
C243 C238 1.379 . S
C243 N241 1.356 . S
N244 C236 1.356 . S
N244 H250 0.984 . S
N244 H251 0.984 . S
N245 C238 1.356 . S
N245 H248 0.984 . S
N245 H249 0.985 . S
H246 N241 0.984 . S
H247 N241 0.985 . S
H248 N245 0.984 . S
H249 N245 0.985 . S
H250 N244 0.984 . S
H251 N244 0.984 . S
H252 N240 0.984 . S
H253 N240 0.985 . S
C254 C255 1.363 . S
C254 C260 1.379 . S
C254 N262 1.356 . S
C255 C254 1.363 . S
C255 C261 1.363 1_655 S
C256 C257 1.363 . S
C256 C261 1.379 1_655 S
C256 N263 1.356 . S
C257 C256 1.363 . S
C257 C260 1.363 . S
N258 C260 1.356 . S
N258 H270 0.984 . S
N258 H271 0.985 . S
N259 C261 1.356 . S
N259 H264 0.984 . S
N259 H265 0.985 . S
C260 C254 1.379 . S
C260 C257 1.363 . S
C260 N258 1.356 . S
C261 C255 1.363 1_455 S
C261 C256 1.379 1_455 S
C261 N259 1.356 . S
N262 C254 1.356 . S
N262 H268 0.984 . S
N262 H269 0.984 . S
N263 C256 1.356 . S
N263 H266 0.984 . S
N263 H267 0.985 1_655 S
H264 N259 0.984 . S
H265 N259 0.985 . S
H266 N263 0.984 . S
H267 N263 0.985 1_455 S
H268 N262 0.984 . S
H269 N262 0.984 . S
H270 N258 0.984 . S
H271 N258 0.985 . S
C272 C273 1.363 . S
C272 C278 1.379 . S
C272 N280 1.356 1_554 S
C273 C272 1.363 . S
C273 C279 1.363 . S
C274 C275 1.363 . S
C274 C279 1.379 . S
C274 N281 1.356 . S
C275 C274 1.363 . S
C275 C278 1.363 . S
N276 C278 1.356 . S
N276 H288 0.984 . S
N276 H289 0.985 . S
N277 C279 1.356 . S
N277 H282 0.984 1_655 S
N277 H283 0.985 . S
C278 C272 1.379 . S
C278 C275 1.363 . S
C278 N276 1.356 . S
C279 C273 1.363 . S
C279 C274 1.379 . S
C279 N277 1.356 . S
N280 C272 1.356 1_556 S
N280 H286 0.984 . S
N280 H287 0.984 . S
N281 C274 1.356 . S
N281 H284 0.984 . S
N281 H285 0.985 . S
H282 N277 0.984 1_455 S
H283 N277 0.985 . S
H284 N281 0.984 . S
H285 N281 0.985 . S
H286 N280 0.984 . S
H287 N280 0.984 . S
H288 N276 0.984 . S
H289 N276 0.985 . S
C290 C291 1.363 . S
C290 C296 1.379 . S
C290 N298 1.356 . S
C291 C290 1.363 . S
C291 C297 1.363 . S
C292 C293 1.363 . S
C292 C297 1.379 . S
C292 N299 1.356 . S
C293 C292 1.363 . S
C293 C296 1.363 . S
N294 C296 1.356 . S
N294 H306 0.984 . S
N294 H307 0.985 . S
N295 C297 1.356 . S
N295 H300 0.984 . S
N295 H301 0.985 . S
C296 C290 1.379 . S
C296 C293 1.363 . S
C296 N294 1.356 . S
C297 C291 1.363 . S
C297 C292 1.379 . S
C297 N295 1.356 . S
N298 C290 1.356 . S
N298 H304 0.984 . S
N298 H305 0.984 . S
N299 C292 1.356 . S
N299 H302 0.984 . S
N299 H303 0.985 . S
H300 N295 0.984 . S
H301 N295 0.985 . S
H302 N299 0.984 . S
H303 N299 0.985 . S
H304 N298 0.984 . S
H305 N298 0.984 . S
H306 N294 0.984 . S
H307 N294 0.985 . S
C93 C63 1.616 1_554 S
C95 C17 1.616 . S
C111 C90 1.361 . S
C113 C43 1.423 1_565 S
C129 C64 1.461 . S
C131 C18 1.461 . S
C147 C89 1.419 1_546 S
C149 C44 1.366 . S
C165 C41 1.348 . S
C167 C19 1.310 . S
C183 C62 1.690 . S
C185 C39 1.693 1_465 S
C201 C66 1.365 . S
C203 C87 1.371 . S
C219 C21 1.476 . S
C221 C85 1.484 1_545 S
C237 C40 1.681 . S
C239 C16 1.681 . S
C255 C65 1.313 1_655 S
C257 C42 1.322 . S
C273 C67 1.466 1_654 S
C275 C86 1.475 . S
C291 C88 1.324 . S
C293 C20 1.366 . S
