# Generated by pormake.
# Topology ums, (4)-cn, num edge types: 1
# Building blocks:
#     Node 0, Type 0, BuildingBlock: QUQFOY_clean_sbu_3, # of connection points: 4
#     Node 1, Type 0, BuildingBlock: QUQFOY_clean_sbu_3, # of connection points: 4
#     Node 2, Type 0, BuildingBlock: QUQFOY_clean_sbu_3, # of connection points: 4
#     Node 3, Type 0, BuildingBlock: QUQFOY_clean_sbu_3, # of connection points: 4
#     Node 4, Type 0, BuildingBlock: QUQFOY_clean_sbu_3, # of connection points: 4
#     Node 5, Type 0, BuildingBlock: QUQFOY_clean_sbu_3, # of connection points: 4
#     Node 6, Type 0, BuildingBlock: QUQFOY_clean_sbu_3, # of connection points: 4
#     Node 7, Type 0, BuildingBlock: QUQFOY_clean_sbu_3, # of connection points: 4
#     Node 8, Type 0, BuildingBlock: QUQFOY_clean_sbu_3, # of connection points: 4
#     Node 9, Type 0, BuildingBlock: QUQFOY_clean_sbu_3, # of connection points: 4
#     Node 10, Type 0, BuildingBlock: QUQFOY_clean_sbu_3, # of connection points: 4
#     Node 11, Type 0, BuildingBlock: QUQFOY_clean_sbu_3, # of connection points: 4
#     Node 12, Type 0, BuildingBlock: QUQFOY_clean_sbu_3, # of connection points: 4
#     Node 13, Type 0, BuildingBlock: QUQFOY_clean_sbu_3, # of connection points: 4
#     Node 14, Type 0, BuildingBlock: QUQFOY_clean_sbu_3, # of connection points: 4
#     Node 15, Type 0, BuildingBlock: QUQFOY_clean_sbu_3, # of connection points: 4
#     Node 16, Type 0, BuildingBlock: QUQFOY_clean_sbu_3, # of connection points: 4
#     Node 17, Type 0, BuildingBlock: QUQFOY_clean_sbu_3, # of connection points: 4
#     Node 18, Type 0, BuildingBlock: QUQFOY_clean_sbu_3, # of connection points: 4
#     Node 19, Type 0, BuildingBlock: QUQFOY_clean_sbu_3, # of connection points: 4
#     Node 20, Type 0, BuildingBlock: QUQFOY_clean_sbu_3, # of connection points: 4
#     Node 21, Type 0, BuildingBlock: QUQFOY_clean_sbu_3, # of connection points: 4
#     Node 22, Type 0, BuildingBlock: QUQFOY_clean_sbu_3, # of connection points: 4
#     Node 23, Type 0, BuildingBlock: QUQFOY_clean_sbu_3, # of connection points: 4
#     Node 24, Type 0, BuildingBlock: QUQFOY_clean_sbu_3, # of connection points: 4
#     Node 25, Type 0, BuildingBlock: QUQFOY_clean_sbu_3, # of connection points: 4
#     Node 26, Type 0, BuildingBlock: QUQFOY_clean_sbu_3, # of connection points: 4
#     Node 27, Type 0, BuildingBlock: QUQFOY_clean_sbu_3, # of connection points: 4
#     Node 28, Type 0, BuildingBlock: QUQFOY_clean_sbu_3, # of connection points: 4
#     Node 29, Type 0, BuildingBlock: QUQFOY_clean_sbu_3, # of connection points: 4
#     Node 30, Type 0, BuildingBlock: QUQFOY_clean_sbu_3, # of connection points: 4
#     Node 31, Type 0, BuildingBlock: QUQFOY_clean_sbu_3, # of connection points: 4
#     Node 32, Type 0, BuildingBlock: QUQFOY_clean_sbu_3, # of connection points: 4
#     Node 33, Type 0, BuildingBlock: QUQFOY_clean_sbu_3, # of connection points: 4
#     Node 34, Type 0, BuildingBlock: QUQFOY_clean_sbu_3, # of connection points: 4
#     Node 35, Type 0, BuildingBlock: QUQFOY_clean_sbu_3, # of connection points: 4
#     Edge 36, Type (0, 0), BuildingBlock: XUDNAN_clean_linker_2, # of connection points: 2
#     Edge 37, Type (0, 0), BuildingBlock: XUDNAN_clean_linker_2, # of connection points: 2
#     Edge 38, Type (0, 0), BuildingBlock: XUDNAN_clean_linker_2, # of connection points: 2
#     Edge 39, Type (0, 0), BuildingBlock: XUDNAN_clean_linker_2, # of connection points: 2
#     Edge 40, Type (0, 0), BuildingBlock: XUDNAN_clean_linker_2, # of connection points: 2
#     Edge 41, Type (0, 0), BuildingBlock: XUDNAN_clean_linker_2, # of connection points: 2
#     Edge 42, Type (0, 0), BuildingBlock: XUDNAN_clean_linker_2, # of connection points: 2
#     Edge 43, Type (0, 0), BuildingBlock: XUDNAN_clean_linker_2, # of connection points: 2
#     Edge 44, Type (0, 0), BuildingBlock: XUDNAN_clean_linker_2, # of connection points: 2
#     Edge 45, Type (0, 0), BuildingBlock: XUDNAN_clean_linker_2, # of connection points: 2
#     Edge 46, Type (0, 0), BuildingBlock: XUDNAN_clean_linker_2, # of connection points: 2
#     Edge 47, Type (0, 0), BuildingBlock: XUDNAN_clean_linker_2, # of connection points: 2
#     Edge 48, Type (0, 0), BuildingBlock: XUDNAN_clean_linker_2, # of connection points: 2
#     Edge 49, Type (0, 0), BuildingBlock: XUDNAN_clean_linker_2, # of connection points: 2
#     Edge 50, Type (0, 0), BuildingBlock: XUDNAN_clean_linker_2, # of connection points: 2
#     Edge 51, Type (0, 0), BuildingBlock: XUDNAN_clean_linker_2, # of connection points: 2
#     Edge 52, Type (0, 0), BuildingBlock: XUDNAN_clean_linker_2, # of connection points: 2
#     Edge 53, Type (0, 0), BuildingBlock: XUDNAN_clean_linker_2, # of connection points: 2
#     Edge 54, Type (0, 0), BuildingBlock: XUDNAN_clean_linker_2, # of connection points: 2
#     Edge 55, Type (0, 0), BuildingBlock: XUDNAN_clean_linker_2, # of connection points: 2
#     Edge 56, Type (0, 0), BuildingBlock: XUDNAN_clean_linker_2, # of connection points: 2
#     Edge 57, Type (0, 0), BuildingBlock: XUDNAN_clean_linker_2, # of connection points: 2
#     Edge 58, Type (0, 0), BuildingBlock: XUDNAN_clean_linker_2, # of connection points: 2
#     Edge 59, Type (0, 0), BuildingBlock: XUDNAN_clean_linker_2, # of connection points: 2
#     Edge 60, Type (0, 0), BuildingBlock: XUDNAN_clean_linker_2, # of connection points: 2
#     Edge 61, Type (0, 0), BuildingBlock: XUDNAN_clean_linker_2, # of connection points: 2
#     Edge 62, Type (0, 0), BuildingBlock: XUDNAN_clean_linker_2, # of connection points: 2
#     Edge 63, Type (0, 0), BuildingBlock: XUDNAN_clean_linker_2, # of connection points: 2
#     Edge 64, Type (0, 0), BuildingBlock: XUDNAN_clean_linker_2, # of connection points: 2
#     Edge 65, Type (0, 0), BuildingBlock: XUDNAN_clean_linker_2, # of connection points: 2
#     Edge 66, Type (0, 0), BuildingBlock: XUDNAN_clean_linker_2, # of connection points: 2
#     Edge 67, Type (0, 0), BuildingBlock: XUDNAN_clean_linker_2, # of connection points: 2
#     Edge 68, Type (0, 0), BuildingBlock: XUDNAN_clean_linker_2, # of connection points: 2
#     Edge 69, Type (0, 0), BuildingBlock: XUDNAN_clean_linker_2, # of connection points: 2
#     Edge 70, Type (0, 0), BuildingBlock: XUDNAN_clean_linker_2, # of connection points: 2
#     Edge 71, Type (0, 0), BuildingBlock: XUDNAN_clean_linker_2, # of connection points: 2
#     Edge 72, Type (0, 0), BuildingBlock: XUDNAN_clean_linker_2, # of connection points: 2
#     Edge 73, Type (0, 0), BuildingBlock: XUDNAN_clean_linker_2, # of connection points: 2
#     Edge 74, Type (0, 0), BuildingBlock: XUDNAN_clean_linker_2, # of connection points: 2
#     Edge 75, Type (0, 0), BuildingBlock: XUDNAN_clean_linker_2, # of connection points: 2
#     Edge 76, Type (0, 0), BuildingBlock: XUDNAN_clean_linker_2, # of connection points: 2
#     Edge 77, Type (0, 0), BuildingBlock: XUDNAN_clean_linker_2, # of connection points: 2
#     Edge 78, Type (0, 0), BuildingBlock: XUDNAN_clean_linker_2, # of connection points: 2
#     Edge 79, Type (0, 0), BuildingBlock: XUDNAN_clean_linker_2, # of connection points: 2
#     Edge 80, Type (0, 0), BuildingBlock: XUDNAN_clean_linker_2, # of connection points: 2
#     Edge 81, Type (0, 0), BuildingBlock: XUDNAN_clean_linker_2, # of connection points: 2
#     Edge 82, Type (0, 0), BuildingBlock: XUDNAN_clean_linker_2, # of connection points: 2
#     Edge 83, Type (0, 0), BuildingBlock: XUDNAN_clean_linker_2, # of connection points: 2
#     Edge 84, Type (0, 0), BuildingBlock: XUDNAN_clean_linker_2, # of connection points: 2
#     Edge 85, Type (0, 0), BuildingBlock: XUDNAN_clean_linker_2, # of connection points: 2
#     Edge 86, Type (0, 0), BuildingBlock: XUDNAN_clean_linker_2, # of connection points: 2
#     Edge 87, Type (0, 0), BuildingBlock: XUDNAN_clean_linker_2, # of connection points: 2
#     Edge 88, Type (0, 0), BuildingBlock: XUDNAN_clean_linker_2, # of connection points: 2
#     Edge 89, Type (0, 0), BuildingBlock: XUDNAN_clean_linker_2, # of connection points: 2
#     Edge 90, Type (0, 0), BuildingBlock: XUDNAN_clean_linker_2, # of connection points: 2
#     Edge 91, Type (0, 0), BuildingBlock: XUDNAN_clean_linker_2, # of connection points: 2
#     Edge 92, Type (0, 0), BuildingBlock: XUDNAN_clean_linker_2, # of connection points: 2
#     Edge 93, Type (0, 0), BuildingBlock: XUDNAN_clean_linker_2, # of connection points: 2
#     Edge 94, Type (0, 0), BuildingBlock: XUDNAN_clean_linker_2, # of connection points: 2
#     Edge 95, Type (0, 0), BuildingBlock: XUDNAN_clean_linker_2, # of connection points: 2
#     Edge 96, Type (0, 0), BuildingBlock: XUDNAN_clean_linker_2, # of connection points: 2
#     Edge 97, Type (0, 0), BuildingBlock: XUDNAN_clean_linker_2, # of connection points: 2
#     Edge 98, Type (0, 0), BuildingBlock: XUDNAN_clean_linker_2, # of connection points: 2
#     Edge 99, Type (0, 0), BuildingBlock: XUDNAN_clean_linker_2, # of connection points: 2
#     Edge 100, Type (0, 0), BuildingBlock: XUDNAN_clean_linker_2, # of connection points: 2
#     Edge 101, Type (0, 0), BuildingBlock: XUDNAN_clean_linker_2, # of connection points: 2
#     Edge 102, Type (0, 0), BuildingBlock: XUDNAN_clean_linker_2, # of connection points: 2
#     Edge 103, Type (0, 0), BuildingBlock: XUDNAN_clean_linker_2, # of connection points: 2
#     Edge 104, Type (0, 0), BuildingBlock: XUDNAN_clean_linker_2, # of connection points: 2
#     Edge 105, Type (0, 0), BuildingBlock: XUDNAN_clean_linker_2, # of connection points: 2
#     Edge 106, Type (0, 0), BuildingBlock: XUDNAN_clean_linker_2, # of connection points: 2
#     Edge 107, Type (0, 0), BuildingBlock: XUDNAN_clean_linker_2, # of connection points: 2
# Relax obj value: 0.190
# Max RMSD: 0.142
# Mean RMSD: 0.141
data_MOF--net-ums--node1-QUQFOY_clean_sbu_3--edge1-XUDNAN_clean_linker_2
_symmetry_space_group_name_H-M    P1
_symmetry_Int_Tables_number       1
_symmetry_cell_setting            triclinic
loop_
_symmetry_equiv_pos_as_xyz
'x, y, z'
_cell_length_a     104.87934
_cell_length_b     104.49055
_cell_length_c     23.996273
_cell_angle_alpha  89.885365
_cell_angle_beta   90.038752
_cell_angle_gamma 120.23903
loop_
_atom_site_label
_atom_site_type_symbol
_atom_site_fract_x
_atom_site_fract_y
_atom_site_fract_z
_atom_type_partial_charge
C0 C 0.18952 0.30087 0.22568 0.0
O1 O 0.18354 0.30574 0.25884 0.0
Cd2 Cd 0.16374 0.28901 0.31814 0.0
O3 O 0.18641 0.28742 0.22871 0.0
Cd4 Cd 0.17212 0.26511 0.28837 0.0
C5 C 0.14232 0.26187 0.22281 0.0
O6 O 0.17251 0.27646 0.37738 0.0
O7 O 0.15584 0.2534 0.36804 0.0
O8 O 0.19475 0.26437 0.29658 0.0
C9 C 0.16242 0.26462 0.39946 0.0
O10 O 0.14429 0.27289 0.25203 0.0
C11 C 0.18919 0.25084 0.28342 0.0
O12 O 0.15108 0.25681 0.22672 0.0
O13 O 0.17548 0.24375 0.2722 0.0
C14 C 0.68894 0.88591 0.21704 0.0
O15 O 0.68266 0.87762 0.25875 0.0
Cd16 Cd 0.69627 0.87122 0.32151 0.0
O17 O 0.70296 0.89299 0.21259 0.0
Cd18 Cd 0.72473 0.89817 0.27137 0.0
C19 C 0.71727 0.86502 0.22491 0.0
O20 O 0.71443 0.89344 0.36514 0.0
O21 O 0.73403 0.8919 0.35465 0.0
O22 O 0.73263 0.92427 0.26346 0.0
C23 C 0.72456 0.89193 0.38741 0.0
O24 O 0.70684 0.85999 0.26061 0.0
C25 C 0.74596 0.9285 0.25143 0.0
O26 O 0.72559 0.87893 0.21797 0.0
O27 O 0.74945 0.91852 0.24714 0.0
C28 C 0.08926 0.80714 0.22835 0.0
O29 O 0.0989 0.81302 0.2665 0.0
Cd30 Cd 0.10237 0.83268 0.32706 0.0
O31 O 0.07957 0.81092 0.22092 0.0
Cd32 Cd 0.07342 0.82896 0.26337 0.0
C33 C 0.10701 0.85556 0.21635 0.0
O34 O 0.07922 0.82811 0.36109 0.0
O35 O 0.07727 0.84684 0.33616 0.0
O36 O 0.04725 0.81054 0.25907 0.0
C37 C 0.07937 0.83988 0.37504 0.0
O38 O 0.11232 0.85276 0.25937 0.0
C39 C 0.04338 0.81919 0.23751 0.0
O40 O 0.09322 0.84807 0.20566 0.0
O41 O 0.0536 0.83223 0.22561 0.0
C42 C 0.28011 0.17908 0.28908 0.0
O43 O 0.28146 0.17019 0.25701 0.0
Cd44 Cd 0.26171 0.15267 0.20042 0.0
O45 O 0.26814 0.17942 0.29058 0.0
Cd46 Cd 0.24336 0.16697 0.24516 0.0
C47 C 0.23729 0.13567 0.3088 0.0
O48 O 0.25148 0.16562 0.15233 0.0
O49 O 0.2282 0.15114 0.16775 0.0
O50 O 0.24715 0.19177 0.2434 0.0
C51 C 0.23876 0.15684 0.13313 0.0
O52 O 0.24582 0.13529 0.27191 0.0
C53 C 0.23428 0.18832 0.25936 0.0
O54 O 0.23465 0.1463 0.31038 0.0
O55 O 0.22534 0.17468 0.26909 0.0
C56 C 0.79105 0.08275 0.24307 0.0
O57 O 0.79555 0.09212 0.2035 0.0
Cd58 Cd 0.81611 0.09633 0.14516 0.0
O59 O 0.79608 0.07398 0.24844 0.0
Cd60 Cd 0.81296 0.06747 0.20079 0.0
C61 C 0.84006 0.10002 0.25062 0.0
O62 O 0.81266 0.07412 0.10222 0.0
O63 O 0.83069 0.07124 0.12999 0.0
O64 O 0.79375 0.04149 0.2017 0.0
C65 C 0.82423 0.07364 0.09015 0.0
O66 O 0.83661 0.10591 0.21123 0.0
C67 C 0.80168 0.0369 0.22421 0.0
O68 O 0.83277 0.08606 0.25868 0.0
O69 O 0.81479 0.04661 0.23738 0.0
C70 C 0.8932 0.71261 0.25334 0.0
O71 O 0.88429 0.70634 0.21322 0.0
Cd72 Cd 0.87704 0.72035 0.154 0.0
O73 O 0.90023 0.72667 0.25739 0.0
Cd74 Cd 0.90467 0.74931 0.20832 0.0
C75 C 0.8713 0.73919 0.26169 0.0
O76 O 0.89755 0.74119 0.11192 0.0
O77 O 0.89831 0.76142 0.13735 0.0
O78 O 0.93036 0.75614 0.20574 0.0
C79 C 0.896 0.75216 0.09903 0.0
O80 O 0.86654 0.7296 0.22274 0.0
C81 C 0.93536 0.76914 0.22471 0.0
O82 O 0.88512 0.74784 0.26913 0.0
O83 O 0.92598 0.77298 0.23759 0.0
C84 C 0.78587 0.69065 0.75526 0.0
O85 O 0.79269 0.68706 0.72085 0.0
Cd86 Cd 0.8136 0.70595 0.67236 0.0
O87 O 0.78857 0.70395 0.75833 0.0
Cd88 Cd 0.80287 0.72752 0.7043 0.0
C89 C 0.83201 0.73176 0.77617 0.0
O90 O 0.8048 0.71841 0.6134 0.0
O91 O 0.82074 0.74136 0.63005 0.0
O92 O 0.77949 0.72619 0.68897 0.0
C93 C 0.81491 0.73081 0.5953 0.0
O94 O 0.83117 0.72147 0.74522 0.0
C95 C 0.78345 0.7392 0.7054 0.0
O96 O 0.82276 0.73619 0.77125 0.0
O97 O 0.79671 0.74706 0.722 0.0
C98 C 0.28368 0.10089 0.77036 0.0
O99 O 0.28487 0.11071 0.73607 0.0
Cd100 Cd 0.26493 0.10987 0.68328 0.0
O101 O 0.27126 0.08927 0.77902 0.0
Cd102 Cd 0.24527 0.07883 0.74855 0.0
C103 C 0.24479 0.10907 0.79769 0.0
O104 O 0.2483 0.08551 0.65062 0.0
O105 O 0.22696 0.07893 0.68662 0.0
O106 O 0.24009 0.0538 0.73192 0.0
C107 C 0.23517 0.08287 0.64375 0.0
O108 O 0.25224 0.11573 0.75443 0.0
C109 C 0.23185 0.04812 0.77415 0.0
O110 O 0.24138 0.09573 0.80823 0.0
O111 O 0.22981 0.05674 0.80539 0.0
C112 C 0.89045 0.1775 0.74516 0.0
O113 O 0.87977 0.17155 0.71101 0.0
Cd114 Cd 0.87475 0.15097 0.65425 0.0
O115 O 0.89998 0.17333 0.74736 0.0
Cd116 Cd 0.90552 0.15578 0.69611 0.0
C117 C 0.87501 0.12792 0.75649 0.0
O118 O 0.89734 0.15857 0.60486 0.0
O119 O 0.90012 0.13962 0.61426 0.0
O120 O 0.93134 0.17549 0.6976 0.0
C121 C 0.89763 0.14778 0.58233 0.0
O122 O 0.86749 0.13099 0.72306 0.0
C123 C 0.93643 0.16719 0.7114 0.0
O124 O 0.88905 0.13541 0.75626 0.0
O125 O 0.92712 0.15355 0.71878 0.0
C126 C 0.6755 0.78923 0.73375 0.0
O127 O 0.67157 0.79346 0.77665 0.0
Cd128 Cd 0.68988 0.81283 0.83311 0.0
O129 O 0.68904 0.7934 0.72535 0.0
Cd130 Cd 0.71334 0.80689 0.77383 0.0
C131 C 0.71219 0.83649 0.72764 0.0
O132 O 0.70508 0.80385 0.86976 0.0
O133 O 0.72723 0.82178 0.85476 0.0
O134 O 0.71334 0.78405 0.76012 0.0
C135 C 0.71716 0.81401 0.88959 0.0
O136 O 0.70271 0.83338 0.76627 0.0
C137 C 0.72663 0.78989 0.744 0.0
O138 O 0.7179 0.8284 0.7195 0.0
O139 O 0.73405 0.80396 0.74131 0.0
C140 C 0.19093 0.89132 0.70549 0.0
O141 O 0.18419 0.88029 0.73783 0.0
Cd142 Cd 0.16364 0.87695 0.79201 0.0
O143 O 0.1882 0.90189 0.70623 0.0
Cd144 Cd 0.17295 0.90888 0.76493 0.0
C145 C 0.14323 0.88359 0.69605 0.0
O146 O 0.17126 0.89732 0.855 0.0
O147 O 0.15384 0.90201 0.83594 0.0
O148 O 0.19247 0.93244 0.80012 0.0
C149 C 0.16041 0.89847 0.87186 0.0
O150 O 0.14472 0.87415 0.72472 0.0
C151 C 0.18845 0.94036 0.77395 0.0
O152 O 0.15232 0.89738 0.70112 0.0
O153 O 0.17749 0.93375 0.74131 0.0
C154 C 0.08442 0.28351 0.74055 0.0
O155 O 0.09311 0.28985 0.78119 0.0
Cd156 Cd 0.10014 0.27601 0.84253 0.0
O157 O 0.07763 0.26946 0.73634 0.0
Cd158 Cd 0.07365 0.24689 0.78454 0.0
C159 C 0.10806 0.2586 0.73662 0.0
O160 O 0.07931 0.25469 0.88208 0.0
O161 O 0.07925 0.23473 0.85769 0.0
O162 O 0.04736 0.23788 0.78006 0.0
C163 C 0.08079 0.24374 0.89598 0.0
O164 O 0.11235 0.26805 0.776 0.0
C165 C 0.0439 0.22548 0.75826 0.0
O166 O 0.09435 0.24964 0.7282 0.0
O167 O 0.05437 0.22303 0.74775 0.0
C168 C 0.85741 0.64071 0.54797 0.0
O169 O 0.84924 0.6432 0.57967 0.0
Cd170 Cd 0.82679 0.62302 0.61635 0.0
O171 O 0.85529 0.62767 0.54265 0.0
Cd172 Cd 0.83972 0.60316 0.58789 0.0
C173 C 0.81273 0.59938 0.50355 0.0
O174 O 0.83152 0.60782 0.67742 0.0
O175 O 0.81817 0.58609 0.64101 0.0
O176 O 0.85954 0.60135 0.6317 0.0
C177 C 0.82086 0.5946 0.68242 0.0
O178 O 0.81212 0.60872 0.53588 0.0
C179 C 0.85783 0.59036 0.60332 0.0
O180 O 0.82226 0.5954 0.51123 0.0
O181 O 0.84804 0.58563 0.56538 0.0
C182 C 0.36407 0.22255 0.54531 0.0
O183 O 0.36398 0.21256 0.57574 0.0
Cd184 Cd 0.38537 0.21534 0.62176 0.0
O185 O 0.37568 0.23523 0.54049 0.0
Cd186 Cd 0.40152 0.24881 0.5765 0.0
C187 C 0.40687 0.2245 0.50279 0.0
O188 O 0.39718 0.23851 0.66949 0.0
O189 O 0.41979 0.24933 0.64189 0.0
O190 O 0.39698 0.26909 0.59136 0.0
C191 C 0.41056 0.24289 0.68083 0.0
O192 O 0.39952 0.21534 0.54139 0.0
C193 C 0.40912 0.2791 0.57107 0.0
O194 O 0.4091 0.23768 0.50324 0.0
O195 O 0.41782 0.27504 0.55192 0.0
C196 C 0.7598 0.12582 0.52534 0.0
O197 O 0.77118 0.13365 0.55474 0.0
Cd198 Cd 0.77712 0.15776 0.58652 0.0
O199 O 0.74985 0.12931 0.51972 0.0
Cd200 Cd 0.74372 0.14762 0.55949 0.0
C201 C 0.76859 0.17109 0.46772 0.0
O202 O 0.75806 0.15582 0.6455 0.0
O203 O 0.75136 0.17056 0.61006 0.0
O204 O 0.72114 0.13024 0.60708 0.0
C205 C 0.75747 0.16762 0.64982 0.0
O206 O 0.77808 0.17105 0.50087 0.0
C207 C 0.71257 0.13238 0.57612 0.0
O208 O 0.75482 0.16319 0.47774 0.0
O209 O 0.71838 0.14136 0.53565 0.0
C210 C 0.94439 0.51397 0.65684 0.0
O211 O 0.94368 0.50312 0.63038 0.0
Cd212 Cd 0.92247 0.48438 0.58259 0.0
O213 O 0.93331 0.51587 0.65936 0.0
Cd214 Cd 0.90719 0.50295 0.6273 0.0
C215 C 0.90018 0.47184 0.69836 0.0
O216 O 0.91085 0.49599 0.53623 0.0
O217 O 0.8882 0.485 0.56366 0.0
O218 O 0.90607 0.52471 0.59855 0.0
C219 C 0.89739 0.48709 0.52529 0.0
O220 O 0.90748 0.46968 0.66085 0.0
C221 C 0.89803 0.52421 0.63891 0.0
O222 O 0.89876 0.48326 0.69726 0.0
O223 O 0.89423 0.51384 0.6742 0.0
C224 C 0.44954 0.43672 0.56546 0.0
O225 O 0.45469 0.44533 0.52369 0.0
Cd226 Cd 0.47584 0.44785 0.47485 0.0
O227 O 0.45385 0.42758 0.57663 0.0
Cd228 Cd 0.46914 0.41777 0.53821 0.0
C229 C 0.49681 0.44948 0.59069 0.0
O230 O 0.46976 0.42415 0.44011 0.0
O231 O 0.48601 0.41858 0.46725 0.0
O232 O 0.44657 0.39405 0.54268 0.0
C233 C 0.4804 0.42216 0.42769 0.0
O234 O 0.49431 0.45561 0.54939 0.0
C235 C 0.45238 0.38698 0.5632 0.0
O236 O 0.48899 0.43553 0.59864 0.0
O237 O 0.46613 0.39432 0.57378 0.0
C238 C 0.55555 0.02662 0.60529 0.0
O239 O 0.54551 0.02331 0.56926 0.0
Cd240 Cd 0.5412 0.0419 0.53014 0.0
O241 O 0.5652 0.04009 0.6149 0.0
Cd242 Cd 0.57335 0.06533 0.57747 0.0
C243 C 0.54414 0.06203 0.64887 0.0
O244 O 0.56322 0.05984 0.48428 0.0
O245 O 0.56873 0.08133 0.5164 0.0
O246 O 0.59869 0.07235 0.55377 0.0
C247 C 0.56403 0.07225 0.47611 0.0
O248 O 0.53593 0.05257 0.61247 0.0
C249 C 0.60454 0.08191 0.59224 0.0
O250 O 0.55814 0.06828 0.64617 0.0
O251 O 0.5959 0.08379 0.6238 0.0
C252 C 0.45518 0.02109 0.13545 0.0
O253 O 0.46215 0.01692 0.10413 0.0
Cd254 Cd 0.48355 0.03463 0.05257 0.0
O255 O 0.45789 0.03441 0.1333 0.0
Cd256 Cd 0.47333 0.05742 0.07948 0.0
C257 C 0.50123 0.0603 0.15724 0.0
O258 O 0.47894 0.04977 0.99045 0.0
O259 O 0.49392 0.0721 0.01894 0.0
O260 O 0.45391 0.06076 0.03986 0.0
C261 C 0.49008 0.06248 0.98069 0.0
O262 O 0.50042 0.05006 0.12604 0.0
C263 C 0.45697 0.07227 0.06772 0.0
O264 O 0.49229 0.0651 0.15118 0.0
O265 O 0.46738 0.07668 0.10304 0.0
C266 C 0.94032 0.42755 0.15765 0.0
O267 O 0.93344 0.41356 0.15764 0.0
Cd268 Cd 0.90965 0.4128 0.13657 0.0
O269 O 0.93278 0.43363 0.14753 0.0
Cd270 Cd 0.90593 0.41153 0.13512 0.0
C271 C 0.89811 0.42617 0.22094 0.0
O272 O 0.90784 0.41904 0.03975 0.0
O273 O 0.88812 0.41564 0.08127 0.0
O274 O 0.89876 0.3874 0.09168 0.0
C275 C 0.89582 0.41916 0.03696 0.0
O276 O 0.90993 0.43311 0.19346 0.0
C277 C 0.90101 0.38141 0.13351 0.0
O278 O 0.89023 0.4125 0.21089 0.0
O279 O 0.90572 0.38922 0.17723 0.0
C280 C 0.55288 0.52831 0.1002 0.0
O281 O 0.5429 0.52494 0.06386 0.0
Cd282 Cd 0.53505 0.50384 0.00541 0.0
O283 O 0.56055 0.52196 0.10095 0.0
Cd284 Cd 0.56397 0.50448 0.03933 0.0
C285 C 0.53322 0.47807 0.10039 0.0
O286 O 0.55576 0.50837 0.94887 0.0
O287 O 0.55557 0.48777 0.95865 0.0
O288 O 0.59046 0.52226 0.03688 0.0
C289 C 0.55408 0.49661 0.92678 0.0
O290 O 0.52633 0.48275 0.07062 0.0
C291 C 0.59434 0.51288 0.049 0.0
O292 O 0.5472 0.48426 0.09814 0.0
O293 O 0.58409 0.49961 0.05694 0.0
C294 C 0.36462 0.14145 0.04011 0.0
O295 O 0.36386 0.15112 0.06962 0.0
Cd296 Cd 0.3838 0.17034 0.12157 0.0
O297 O 0.37655 0.14106 0.03721 0.0
Cd298 Cd 0.40226 0.15568 0.07356 0.0
C299 C 0.40635 0.18639 0.00843 0.0
O300 O 0.39797 0.16128 0.16707 0.0
O301 O 0.4202 0.17473 0.13618 0.0
O302 O 0.40623 0.13526 0.0983 0.0
C303 C 0.41116 0.17146 0.17619 0.0
O304 O 0.39816 0.18699 0.0463 0.0
C305 C 0.41458 0.1371 0.05714 0.0
O306 O 0.40924 0.17591 0.00715 0.0
O307 O 0.41731 0.14762 0.02377 0.0
C308 C 0.86417 0.23404 -0.00588 0.0
O309 O 0.86632 0.2368 0.04559 0.0
Cd310 Cd 0.84466 0.24011 0.05136 0.0
O311 O 0.85403 0.23547 0.97185 0.0
Cd312 Cd 0.84185 0.24486 0.04355 0.0
C313 C 0.82051 0.22927 0.95548 0.0
O314 O 0.83415 0.22978 0.13458 0.0
O315 O 0.81789 0.23355 0.09532 0.0
O316 O 0.86384 0.26595 0.08693 0.0
C317 C 0.82137 0.22819 0.13619 0.0
O318 O 0.8254 0.22239 0.98364 0.0
C319 C 0.86061 0.27554 0.07056 0.0
O320 O 0.82552 0.24277 0.9672 0.0
O321 O 0.84895 0.27088 0.04174 0.0
C322 C 0.7482 0.61742 0.04474 0.0
O323 O 0.75877 0.62241 0.07944 0.0
Cd324 Cd 0.76495 0.60629 0.12867 0.0
O325 O 0.73914 0.60353 0.0414 0.0
Cd326 Cd 0.73327 0.57978 0.08714 0.0
C327 C 0.76306 0.58495 0.0151 0.0
O328 O 0.74388 0.58827 0.1791 0.0
O329 O 0.73979 0.56666 0.1552 0.0
O330 O 0.70766 0.57368 0.09727 0.0
C331 C 0.74433 0.57671 0.19191 0.0
O332 O 0.77078 0.59494 0.05069 0.0
C333 C 0.70217 0.56084 0.07601 0.0
O334 O 0.74901 0.57784 0.01768 0.0
O335 O 0.71116 0.55684 0.05972 0.0
C336 C 0.51854 0.9544 0.90124 0.0
O337 O 0.51328 0.95972 0.93572 0.0
Cd338 Cd 0.49364 0.94325 -0.00371 0.0
O339 O 0.51509 0.94086 0.90453 0.0
Cd340 Cd 0.50147 0.91883 0.96619 0.0
C341 C 0.47184 0.9158 0.90144 0.0
O342 O 0.50222 0.93046 0.05455 0.0
O343 O 0.48525 0.90744 0.0468 0.0
O344 O 0.5245 0.91915 0.97537 0.0
C345 C 0.49202 0.91883 0.07736 0.0
O346 O 0.47416 0.92695 0.93067 0.0
C347 C 0.51974 0.90589 0.96004 0.0
O348 O 0.48034 0.91043 0.90501 0.0
O349 O 0.5061 0.89824 0.94795 0.0
C350 C 0.03107 0.55636 0.89973 0.0
O351 O 0.03049 0.54687 0.93433 0.0
Cd352 Cd 0.0518 0.54954 0.98221 0.0
O353 O 0.04316 0.56827 0.89003 0.0
Cd354 Cd 0.06946 0.58145 0.91822 0.0
C355 C 0.0713 0.55277 0.86136 0.0
O356 O 0.06573 0.5743 0.01543 0.0
O357 O 0.08818 0.58434 0.98665 0.0
O358 O 0.06547 0.60226 0.91696 0.0
C359 C 0.07913 0.57874 0.02674 0.0
O360 O 0.06457 0.54571 0.90525 0.0
C361 C 0.07754 0.61124 0.89329 0.0
O362 O 0.07402 0.56598 0.85286 0.0
O363 O 0.08608 0.60637 0.88027 0.0
C364 C 0.41945 0.47091 0.88334 0.0
O365 O 0.42954 0.47346 0.91835 0.0
Cd366 Cd 0.43712 0.49288 0.9854 0.0
O367 O 0.41169 0.47708 0.88852 0.0
Cd368 Cd 0.40792 0.49315 0.95476 0.0
C369 C 0.43928 0.52009 0.89705 0.0
O370 O 0.41619 0.48773 0.04192 0.0
O371 O 0.41524 0.50789 0.03962 0.0
O372 O 0.38186 0.4745 0.9542 0.0
C373 C 0.41737 0.49886 0.06777 0.0
O374 O 0.44592 0.5148 0.92494 0.0
C375 C 0.37731 0.48351 0.94524 0.0
O376 O 0.4253 0.51421 0.8995 0.0
O377 O 0.38705 0.49712 0.94043 0.0
C378 C 0.62496 0.85609 0.89496 0.0
O379 O 0.63008 0.85171 0.85623 0.0
Cd380 Cd 0.61299 0.83314 0.79243 0.0
O381 O 0.61127 0.8519 0.89616 0.0
Cd382 Cd 0.58766 0.83773 0.84593 0.0
C383 C 0.58961 0.80833 0.89219 0.0
O384 O 0.5971 0.841 0.75148 0.0
O385 O 0.57458 0.82333 0.76382 0.0
O386 O 0.58733 0.86036 0.8585 0.0
C387 C 0.58515 0.83086 0.7304 0.0
O388 O 0.59952 0.81187 0.85503 0.0
C389 C 0.57421 0.85452 0.87667 0.0
O390 O 0.58356 0.81616 0.89974 0.0
O391 O 0.56684 0.84044 0.87965 0.0
C392 C 0.12552 0.7719 0.92484 0.0
O393 O 0.13417 0.78308 0.89565 0.0
Cd394 Cd 0.15195 0.78352 0.83247 0.0
O395 O 0.12558 0.75977 0.9207 0.0
Cd396 Cd 0.13956 0.75056 0.86547 0.0
C397 C 0.17076 0.77564 0.93022 0.0
O398 O 0.14084 0.76171 0.77488 0.0
O399 O 0.15644 0.75429 0.78869 0.0
O400 O 0.11654 0.72714 0.85532 0.0
C401 C 0.15047 0.75905 0.755 0.0
O402 O 0.17069 0.78515 0.89718 0.0
C403 C 0.12181 0.71905 0.86979 0.0
O404 O 0.16034 0.7622 0.92959 0.0
O405 O 0.13537 0.72563 0.88317 0.0
C406 C 0.22453 0.37194 0.92757 0.0
O407 O 0.21489 0.36731 0.88924 0.0
Cd408 Cd 0.20822 0.38349 0.84381 0.0
O409 O 0.23282 0.38576 0.93666 0.0
Cd410 Cd 0.23877 0.40988 0.89326 0.0
C411 C 0.20761 0.40332 0.9585 0.0
O412 O 0.22987 0.40225 0.79851 0.0
O413 O 0.23332 0.42353 0.82418 0.0
O414 O 0.26483 0.41727 0.88852 0.0
C415 C 0.22966 0.41395 0.78599 0.0
O416 O 0.20051 0.3933 0.92221 0.0
C417 C 0.2694 0.42973 0.912 0.0
O418 O 0.22165 0.4109 0.95792 0.0
O419 O 0.25968 0.43283 0.92742 0.0
C420 C 0.11948 0.35367 0.43774 0.0
O421 O 0.12678 0.35082 0.4028 0.0
Cd422 Cd 0.14809 0.37045 0.35723 0.0
O423 O 0.12171 0.36676 0.44291 0.0
Cd424 Cd 0.13596 0.39096 0.39384 0.0
C425 C 0.16497 0.3947 0.46631 0.0
O426 O 0.14088 0.38462 0.30044 0.0
O427 O 0.15449 0.40722 0.32814 0.0
O428 O 0.11331 0.39148 0.37722 0.0
C429 C 0.15093 0.39781 0.2894 0.0
O430 O 0.16489 0.38519 0.43292 0.0
C431 C 0.11797 0.40417 0.39875 0.0
O432 O 0.1553 0.3986 0.4627 0.0
O433 O 0.13091 0.41058 0.41908 0.0
C434 C 0.61172 0.75899 0.4097 0.0
O435 O 0.61893 0.76799 0.3707 0.0
Cd436 Cd 0.60594 0.77372 0.3014 0.0
O437 O 0.59769 0.7515 0.40786 0.0
Cd438 Cd 0.5765 0.74628 0.34746 0.0
C439 C 0.58393 0.77963 0.39371 0.0
O440 O 0.58778 0.75172 0.2554 0.0
O441 O 0.56745 0.75212 0.26326 0.0
O442 O 0.57011 0.7207 0.35586 0.0
C443 C 0.57757 0.75291 0.23195 0.0
O444 O 0.5946 0.78465 0.35909 0.0
C445 C 0.55662 0.71562 0.36778 0.0
O446 O 0.57549 0.76571 0.4004 0.0
O447 O 0.55217 0.72491 0.37087 0.0
C448 C 0.2233 0.85466 0.40155 0.0
O449 O 0.21428 0.8508 0.36117 0.0
Cd450 Cd 0.2098 0.82966 0.30522 0.0
O451 O 0.23134 0.84883 0.40757 0.0
Cd452 Cd 0.23858 0.83193 0.36605 0.0
C453 C 0.20552 0.80661 0.41755 0.0
O454 O 0.23201 0.83184 0.269 0.0
O455 O 0.23532 0.81394 0.29561 0.0
O456 O 0.26218 0.85396 0.3648 0.0
C457 C 0.2321 0.82006 0.25666 0.0
O458 O 0.20044 0.81047 0.37663 0.0
C459 C 0.26938 0.8486 0.38767 0.0
O460 O 0.2194 0.81297 0.42658 0.0
O461 O 0.26222 0.83493 0.40111 0.0
C462 C 0.0375 0.477 0.33536 0.0
O463 O 0.03776 0.46974 0.37699 0.0
Cd464 Cd 0.06249 0.49018 0.40533 0.0
O465 O 0.04899 0.48935 0.32669 0.0
Cd466 Cd 0.06915 0.49309 0.39966 0.0
C467 C 0.07926 0.52037 0.33853 0.0
O468 O 0.06051 0.49215 0.49969 0.0
O469 O 0.08014 0.51224 0.47583 0.0
O470 O 0.06298 0.46687 0.39712 0.0
C471 C 0.07103 0.50469 0.51391 0.0
O472 O 0.06732 0.51477 0.36596 0.0
C473 C 0.07625 0.46975 0.39524 0.0
O474 O 0.08637 0.51353 0.33972 0.0
O475 O 0.08622 0.48335 0.3952 0.0
C476 C 0.52416 0.56477 0.4125 0.0
O477 O 0.51942 0.55499 0.45065 0.0
Cd478 Cd 0.49874 0.55017 0.50946 0.0
O479 O 0.5189 0.57335 0.40728 0.0
Cd480 Cd 0.5006 0.57842 0.45167 0.0
C481 C 0.4746 0.54472 0.40348 0.0
O482 O 0.50172 0.57252 0.55051 0.0
O483 O 0.48328 0.57486 0.52403 0.0
O484 O 0.51818 0.60495 0.44581 0.0
C485 C 0.49016 0.57291 0.56345 0.0
O486 O 0.47822 0.53915 0.44347 0.0
C487 C 0.50929 0.60816 0.42218 0.0
O488 O 0.48138 0.55868 0.39548 0.0
O489 O 0.49649 0.59747 0.41094 0.0
C490 C 0.42445 0.95088 0.43946 0.0
O491 O 0.43196 0.95483 0.48411 0.0
Cd492 Cd 0.43617 0.93695 0.5316 0.0
O493 O 0.41666 0.93724 0.42676 0.0
Cd494 Cd 0.40732 0.91211 0.46626 0.0
C495 C 0.43973 0.91924 0.41349 0.0
O496 O 0.41336 0.91719 0.56439 0.0
O497 O 0.40934 0.89597 0.53439 0.0
O498 O 0.38459 0.91213 0.46739 0.0
C499 C 0.41257 0.90488 0.57488 0.0
O500 O 0.44503 0.9279 0.45525 0.0
C501 C 0.37677 0.89975 0.44351 0.0
O502 O 0.42583 0.91182 0.40496 0.0
O503 O 0.38317 0.89262 0.42938 0.0
H504 H 0.20634 0.18446 0.26536 0.0
H505 H 0.25281 0.21807 0.26712 0.0
H506 H 0.24622 0.23754 0.27522 0.0
H507 H 0.19472 0.2051 0.1813 0.0
H508 H 0.17749 0.19867 0.21752 0.0
H509 H 0.18576 0.18719 0.21466 0.0
H510 H 0.18531 0.18561 0.32249 0.0
H511 H 0.177 0.19705 0.32567 0.0
H512 H 0.1939 0.20243 0.36284 0.0
H513 H 0.23483 0.25333 0.28285 0.0
H514 H 0.2192 0.26472 0.2864 0.0
H515 H 0.17998 0.22114 0.27585 0.0
C516 C 0.2151 0.19591 0.26796 0.0
C517 C 0.23009 0.19977 0.26588 0.0
C518 C 0.24126 0.21487 0.26861 0.0
C519 C 0.23763 0.22601 0.27333 0.0
C520 C 0.22278 0.22187 0.27482 0.0
C521 C 0.21167 0.20722 0.27198 0.0
C522 C 0.19659 0.20589 0.27244 0.0
C523 C 0.18815 0.1988 0.21825 0.0
C524 C 0.18768 0.19723 0.32393 0.0
C525 C 0.201 0.22209 0.27592 0.0
C526 C 0.21617 0.23108 0.27766 0.0
C527 C 0.22293 0.24643 0.28143 0.0
C528 C 0.21396 0.25278 0.28346 0.0
C529 C 0.19839 0.24382 0.28123 0.0
C530 C 0.19186 0.22827 0.27732 0.0
H531 H 0.77298 0.01436 0.221 0.0
H532 H 0.81778 0.02337 0.24473 0.0
H533 H 0.80851 -0.00352 0.25172 0.0
H534 H 0.75603 0.98386 0.31861 0.0
H535 H 0.73958 0.97363 0.27722 0.0
H536 H 0.74986 0.99356 0.27388 0.0
H537 H 0.75212 0.99225 0.16673 0.0
H538 H 0.74197 0.97231 0.1698 0.0
H539 H 0.76002 0.98183 0.13826 0.0
H540 H 0.79432 0.96847 0.25188 0.0
H541 H 0.77608 0.94163 0.25482 0.0
H542 H 0.74062 0.95126 0.23519 0.0
C543 C 0.78084 0.01068 0.22787 0.0
C544 C 0.7961 0.02092 0.23213 0.0
C545 C 0.80603 0.01569 0.24152 0.0
C546 C 0.80088 0.00045 0.24526 0.0
C547 C 0.78577 0.99063 0.24014 0.0
C548 C 0.77588 -0.00445 0.23242 0.0
C549 C 0.76016 0.98276 0.22961 0.0
C550 C 0.75086 0.9835 0.2777 0.0
C551 C 0.75316 0.98226 0.17271 0.0
C552 C 0.76275 0.96986 0.23663 0.0
C553 C 0.7776 0.9746 0.24207 0.0
C554 C 0.78266 0.96463 0.24801 0.0
C555 C 0.77224 0.94942 0.24936 0.0
C556 C 0.75696 0.94439 0.24543 0.0
C557 C 0.75223 0.95478 0.23859 0.0
H558 H 0.95693 0.7619 0.23027 0.0
H559 H 0.95 0.79948 0.22837 0.0
H560 H 0.97706 0.81654 0.22798 0.0
H561 H -0.01163 0.77836 0.32311 0.0
H562 H -0.00252 0.76988 0.2884 0.0
H563 H 0.97764 0.76085 0.28815 0.0
H564 H 0.97775 0.75996 0.1802 0.0
H565 H -0.0024 0.76915 0.18009 0.0
H566 H -0.01165 0.7769 0.14136 0.0
H567 H 0.00496 0.82935 0.22278 0.0
H568 H 0.03145 0.83703 0.22502 0.0
H569 H 0.01981 0.79093 0.23552 0.0
C570 C 0.9611 0.77373 0.23 0.0
C571 C 0.95141 0.77941 0.22907 0.0
C572 C 0.95727 0.79493 0.22927 0.0
C573 C 0.9726 0.80468 0.22871 0.0
C574 C 0.98185 0.79869 0.22872 0.0
C575 C 0.97631 0.78357 0.23033 0.0
C576 C -0.01144 0.77993 0.23188 0.0
C577 C 0.98798 0.77178 0.28612 0.0
C578 C 0.98803 0.77095 0.18031 0.0
C579 C 0.0019 0.79536 0.23047 0.0
C580 C -0.00218 0.80604 0.22797 0.0
C581 C 0.00827 0.82109 0.22515 0.0
C582 C 0.02328 0.82534 0.2261 0.0
C583 C 0.02765 0.81457 0.23058 0.0
C584 C 0.01679 0.79941 0.23229 0.0
H585 H 0.78906 0.76752 0.72668 0.0
H586 H 0.754 0.72322 0.68394 0.0
H587 H 0.73606 0.73183 0.68476 0.0
H588 H 0.76802 0.77615 0.81988 0.0
H589 H 0.77628 0.79525 0.79862 0.0
H590 H 0.7866 0.7858 0.79293 0.0
H591 H 0.79087 0.79237 0.68786 0.0
H592 H 0.78052 0.80182 0.69321 0.0
H593 H 0.77523 0.78719 0.64296 0.0
H594 H 0.72169 0.74455 0.69531 0.0
H595 H 0.71165 0.76101 0.71293 0.0
H596 H 0.75587 0.79751 0.74518 0.0
C597 C 0.77762 0.75966 0.71729 0.0
C598 C 0.77293 0.74469 0.70532 0.0
C599 C 0.75786 0.73474 0.69316 0.0
C600 C 0.74758 0.73952 0.69345 0.0
C601 C 0.75253 0.75432 0.70549 0.0
C602 C 0.76718 0.76429 0.71691 0.0
C603 C 0.76946 0.77953 0.72933 0.0
C604 C 0.77544 0.78447 0.78872 0.0
C605 C 0.77962 0.7909 0.68573 0.0
C606 C 0.75375 0.77646 0.72399 0.0
C607 C 0.7442 0.76183 0.71019 0.0
C608 C 0.72905 0.75607 0.70554 0.0
C609 C 0.72346 0.76549 0.71576 0.0
C610 C 0.733 0.78053 0.73001 0.0
C611 C 0.74836 0.78612 0.73349 0.0
H612 H 0.2205 0.0256 0.69912 0.0
H613 H 0.22804 0.03496 0.87581 0.0
H614 H 0.21816 0.00826 0.89485 0.0
H615 H 0.18555 0.9913 0.71644 0.0
H616 H 0.18865 0.98243 0.6579 0.0
H617 H 0.19666 0.00225 0.65854 0.0
H618 H 0.22259 0.00548 0.64342 0.0
H619 H 0.21468 0.98567 0.64315 0.0
H620 H 0.22927 -0.00311 0.69135 0.0
H621 H 0.20937 0.98096 0.89306 0.0
H622 H 0.19862 0.95427 0.87299 0.0
H623 H 0.19421 0.96239 0.69871 0.0
C624 C 0.22002 0.02197 0.74179 0.0
C625 C 0.22511 0.03222 0.7861 0.0
C626 C 0.22415 0.02718 0.84149 0.0
C627 C 0.21865 0.0121 0.85256 0.0
C628 C 0.21385 0.00226 0.80781 0.0
C629 C 0.21416 0.00694 0.75367 0.0
C630 C 0.2077 0.99404 0.71341 0.0
C631 C 0.19381 0.99241 0.68491 0.0
C632 C 0.21925 -0.00438 0.6703 0.0
C633 C 0.20389 0.98137 0.75324 0.0
C634 C 0.20777 0.98639 0.80735 0.0
C635 C 0.20608 0.97687 0.85104 0.0
C636 C 0.20007 0.96178 0.83921 0.0
C637 C 0.19553 0.95637 0.78448 0.0
C638 C 0.19745 0.96628 0.74101 0.0
H639 H 0.02045 0.22999 0.7527 0.0
H640 H 0.03218 0.19578 0.73935 0.0
H641 H 0.00584 0.17696 0.72626 0.0
H642 H 0.9869 0.20896 0.82765 0.0
H643 H 0.97728 0.21671 0.79135 0.0
H644 H -0.00298 0.22743 0.79912 0.0
H645 H 3e-05 0.23097 0.69203 0.0
H646 H 0.98028 0.22033 0.68393 0.0
H647 H -0.00816 0.21494 0.64734 0.0
H648 H 0.97798 0.16176 0.71975 0.0
H649 H 0.95105 0.15166 0.71209 0.0
H650 H 0.95795 0.19613 0.72497 0.0
C651 C 0.01749 0.21854 0.74684 0.0
C652 C 0.02832 0.21431 0.74726 0.0
C653 C 0.02404 0.19925 0.73902 0.0
C654 C 0.00911 0.18849 0.73176 0.0
C655 C -0.00132 0.19303 0.73217 0.0
C656 C 0.00271 0.20773 0.73877 0.0
C657 C -0.01057 0.20978 0.73673 0.0
C658 C 0.98755 0.21609 0.79201 0.0
C659 C -0.00954 0.21958 0.68704 0.0
C660 C 0.97725 0.19391 0.72848 0.0
C661 C 0.98278 0.18439 0.7264 0.0
C662 C 0.97355 0.16913 0.72082 0.0
C663 C 0.95828 0.16349 0.71672 0.0
C664 C 0.95245 0.17312 0.71761 0.0
C665 C 0.9621 0.18851 0.72362 0.0
H666 H 0.86475 0.57378 0.53454 0.0
H667 H 0.86882 0.58937 0.70466 0.0
H668 H 0.88009 0.5745 0.73216 0.0
H669 H 0.85581 0.5372 0.56443 0.0
H670 H 0.86672 0.5359 0.5091 0.0
H671 H 0.85942 0.54815 0.50205 0.0
H672 H 0.88573 0.57028 0.4842 0.0
H673 H 0.89311 0.55806 0.49073 0.0
H674 H 0.90017 0.57432 0.53393 0.0
H675 H 0.88813 0.55576 0.74324 0.0
H676 H 0.89592 0.53706 0.73429 0.0
H677 H 0.88914 0.53568 0.55567 0.0
C678 C 0.86819 0.57417 0.57737 0.0
C679 C 0.8659 0.58265 0.61757 0.0
C680 C 0.87058 0.58299 0.6732 0.0
C681 C 0.87692 0.57454 0.68927 0.0
C682 C 0.87881 0.5661 0.64889 0.0
C683 C 0.87491 0.56611 0.59384 0.0
C684 C 0.87833 0.5562 0.55864 0.0
C685 C 0.86423 0.54362 0.53201 0.0
C686 C 0.89004 0.56526 0.51426 0.0
C687 C 0.88441 0.55034 0.60279 0.0
C688 C 0.88442 0.55606 0.6547 0.0
C689 C 0.88848 0.55144 0.70268 0.0
C690 C 0.89279 0.54079 0.69732 0.0
C691 C 0.89329 0.53519 0.6443 0.0
C692 C 0.88911 0.54007 0.59651 0.0
H693 H 0.43658 0.30386 0.56074 0.0
H694 H 0.39024 0.28965 0.58303 0.0
H695 H 0.39644 0.31576 0.58667 0.0
H696 H 0.45039 0.33492 0.65512 0.0
H697 H 0.46645 0.34661 0.61359 0.0
H698 H 0.45843 0.32679 0.61159 0.0
H699 H 0.45575 0.3271 0.50429 0.0
H700 H 0.46387 0.34692 0.50593 0.0
H701 H 0.44601 0.33558 0.47446 0.0
H702 H 0.40742 0.34321 0.58451 0.0
H703 H 0.42269 0.37046 0.57877 0.0
H704 H 0.46209 0.36704 0.56368 0.0
C705 C 0.42775 0.30627 0.56603 0.0
C706 C 0.41292 0.29476 0.57128 0.0
C707 C 0.40167 0.29832 0.57889 0.0
C708 C 0.40508 0.3131 0.58105 0.0
C709 C 0.4198 0.32419 0.57625 0.0
C710 C 0.43098 0.32099 0.56916 0.0
C711 C 0.44591 0.33503 0.56586 0.0
C712 C 0.45588 0.33588 0.61444 0.0
C713 C 0.45332 0.33622 0.50926 0.0
C714 C 0.44135 0.3466 0.57153 0.0
C715 C 0.42622 0.34009 0.57727 0.0
C716 C 0.41929 0.34845 0.5806 0.0
C717 C 0.42804 0.3639 0.5773 0.0
C718 C 0.44354 0.37081 0.57141 0.0
C719 C 0.45028 0.36204 0.56925 0.0
H720 H 0.68943 0.12175 0.50253 0.0
H721 H 0.70011 0.12698 0.67866 0.0
H722 H 0.67363 0.11557 0.70185 0.0
H723 H 0.65857 0.12806 0.5076 0.0
H724 H 0.64773 0.11384 0.4575 0.0
H725 H 0.66759 0.12328 0.45446 0.0
H726 H 0.66674 0.09809 0.46007 0.0
H727 H 0.64689 0.08858 0.46298 0.0
H728 H 0.6571 0.08563 0.51698 0.0
H729 H 0.64619 0.10453 0.70576 0.0
H730 H 0.61919 0.09156 0.69068 0.0
H731 H 0.62605 0.09102 0.51267 0.0
C732 C 0.68614 0.12055 0.54588 0.0
C733 C 0.69672 0.12532 0.58892 0.0
C734 C 0.6921 0.12336 0.64522 0.0
C735 C 0.67712 0.11697 0.65874 0.0
C736 C 0.66691 0.11234 0.61544 0.0
C737 C 0.67117 0.11379 0.56017 0.0
C738 C 0.65787 0.10698 0.52189 0.0
C739 C 0.65795 0.11875 0.48308 0.0
C740 C 0.65711 0.09405 0.48853 0.0
C741 C 0.64551 0.10155 0.56428 0.0
C742 C 0.65099 0.10501 0.61792 0.0
C743 C 0.64175 0.10162 0.66402 0.0
C744 C 0.62647 0.09432 0.65508 0.0
C745 C 0.62063 0.09021 0.60068 0.0
C746 C 0.63028 0.09389 0.55477 0.0
H747 H 0.45053 0.08823 0.14159 0.0
H748 H 0.44669 0.07539 0.96789 0.0
H749 H 0.43568 0.09087 0.94598 0.0
H750 H 0.41524 0.08721 0.14642 0.0
H751 H 0.42188 0.10266 0.19361 0.0
H752 H 0.42972 0.09079 0.19535 0.0
H753 H 0.45579 0.11361 0.18073 0.0
H754 H 0.44802 0.12554 0.17856 0.0
H755 H 0.45918 0.12554 0.12145 0.0
H756 H 0.42709 0.10932 0.94176 0.0
H757 H 0.41796 0.12673 0.95775 0.0
H758 H 0.42473 0.1254 0.13545 0.0
C759 C 0.4473 0.08866 0.09906 0.0
C760 C 0.44951 0.08074 0.05627 0.0
C761 C 0.44502 0.08138 0.0012 0.0
C762 C 0.43884 0.09018 0.98833 0.0
C763 C 0.43692 0.09799 0.03131 0.0
C764 C 0.44071 0.09707 0.08577 0.0
C765 C 0.43689 0.1061 0.12442 0.0
C766 C 0.42524 0.09609 0.16748 0.0
C767 C 0.4508 0.11843 0.15295 0.0
C768 C 0.43061 0.11242 0.08302 0.0
C769 C 0.43095 0.10779 0.02941 0.0
C770 C 0.42654 0.11284 0.98362 0.0
C771 C 0.42145 0.12275 0.993 0.0
C772 C 0.42053 0.1272 0.04776 0.0
C773 C 0.42514 0.12195 0.09327 0.0
H774 H 0.86076 0.29896 0.01992 0.0
H775 H 0.88069 0.28762 0.15543 0.0
H776 H 0.8943 0.31391 0.18469 0.0
H777 H 0.89343 0.33485 0.98772 0.0
H778 H 0.88255 0.34329 0.97111 0.0
H779 H 0.8751 0.32376 0.95966 0.0
H780 H 0.85247 0.31799 0.02099 0.0
H781 H 0.85987 0.33746 0.03286 0.0
H782 H 0.85534 0.32502 0.09121 0.0
H783 H 0.90385 0.34113 0.20381 0.0
H784 H 0.90997 0.36732 0.20698 0.0
H785 H 0.88464 0.36062 0.05581 0.0
C786 C 0.8681 0.30203 0.05542 0.0
C787 C 0.86965 0.2913 0.08561 0.0
C788 C 0.8794 0.29572 0.13167 0.0
C789 C 0.88714 0.3106 0.14861 0.0
C790 C 0.88517 0.32088 0.11838 0.0
C791 C 0.87605 0.3168 0.07226 0.0
C792 C 0.87565 0.32988 0.04726 0.0
C793 C 0.88207 0.33314 0.98793 0.0
C794 C 0.8599 0.32744 0.04818 0.0
C795 C 0.88565 0.34191 0.08738 0.0
C796 C 0.89105 0.33655 0.12819 0.0
C797 C 0.89986 0.3455 0.17159 0.0
C798 C 0.90323 0.36032 0.17318 0.0
C799 C 0.89787 0.36599 0.1314 0.0
C800 C 0.88908 0.35665 0.08789 0.0
H801 H 0.61811 0.54078 0.06179 0.0
H802 H 0.60599 0.49465 0.04554 0.0
H803 H 0.63234 0.50189 0.04999 0.0
H804 H 0.6512 0.55645 0.98049 0.0
H805 H 0.66123 0.57232 0.02505 0.0
H806 H 0.64145 0.56351 0.01993 0.0
H807 H 0.63921 0.55991 0.12711 0.0
H808 H 0.65899 0.56874 0.13258 0.0
H809 H 0.64748 0.55044 0.16094 0.0
H810 H 0.66009 0.51434 0.05245 0.0
H811 H 0.68711 0.53087 0.05988 0.0
H812 H 0.68088 0.56863 0.07984 0.0
C813 C 0.62101 0.5322 0.0591 0.0
C814 C 0.61005 0.51716 0.05301 0.0
C815 C 0.61424 0.50624 0.05026 0.0
C816 C 0.62916 0.51025 0.05259 0.0
C817 C 0.63971 0.52519 0.0584 0.0
C818 C 0.63581 0.53598 0.06224 0.0
C819 C 0.64925 0.5512 0.06976 0.0
C820 C 0.65088 0.56147 0.02089 0.0
C821 C 0.64869 0.55796 0.12594 0.0
C822 C 0.66133 0.54731 0.06907 0.0
C823 C 0.65562 0.53227 0.06201 0.0
C824 C 0.66469 0.52612 0.05844 0.0
C825 C 0.68 0.53559 0.06253 0.0
C826 C 0.68605 0.55099 0.07078 0.0
C827 C 0.67655 0.55688 0.07411 0.0
H828 H 0.51308 0.87748 0.93301 0.0
H829 H 0.5495 0.92119 0.97441 0.0
H830 H 0.56699 0.91232 0.96095 0.0
H831 H 0.52848 0.8567 0.00102 0.0
H832 H 0.52179 0.84257 0.94807 0.0
H833 H 0.51185 0.85208 0.9632 0.0
H834 H 0.51359 0.85961 0.85936 0.0
H835 H 0.52356 0.85018 0.84394 0.0
H836 H 0.53143 0.86948 0.82625 0.0
H837 H 0.5807 0.89967 0.93686 0.0
H838 H 0.59001 0.88327 0.90813 0.0
H839 H 0.54503 0.84716 0.88563 0.0
C840 C 0.52472 0.88512 0.93973 0.0
C841 C 0.52991 0.90004 0.95472 0.0
C842 C 0.54523 0.90972 0.96302 0.0
C843 C 0.55528 0.9048 0.95547 0.0
C844 C 0.54985 0.89012 0.94013 0.0
C845 C 0.53495 0.88035 0.93281 0.0
C846 C 0.53219 0.8652 0.91537 0.0
C847 C 0.52304 0.85344 0.95957 0.0
C848 C 0.52475 0.86087 0.85781 0.0
C849 C 0.54789 0.86812 0.91311 0.0
C850 C 0.55786 0.8826 0.92751 0.0
C851 C 0.57302 0.88825 0.9261 0.0
C852 C 0.57819 0.87886 0.90947 0.0
C853 C 0.56824 0.86394 0.8949 0.0
C854 C 0.55287 0.85847 0.8972 0.0
H855 H 0.10523 0.63562 0.88328 0.0
H856 H 0.05867 0.62179 0.88279 0.0
H857 H 0.06498 0.64785 0.87293 0.0
H858 H 0.11641 0.66742 0.96683 0.0
H859 H 0.13367 0.67873 0.93115 0.0
H860 H 0.12559 0.65891 0.93277 0.0
H861 H 0.12616 0.6583 0.82487 0.0
H862 H 0.13434 0.67815 0.82292 0.0
H863 H 0.11753 0.66655 0.78516 0.0
H864 H 0.07623 0.67528 0.86583 0.0
H865 H 0.09176 0.70255 0.86501 0.0
H866 H 0.13106 0.69875 0.87534 0.0
C867 C 0.09639 0.63809 0.88006 0.0
C868 C 0.08147 0.62673 0.88325 0.0
C869 C 0.07018 0.63036 0.88024 0.0
C870 C 0.07365 0.64511 0.87454 0.0
C871 C 0.08846 0.65609 0.87247 0.0
C872 C 0.09967 0.6528 0.87531 0.0
C873 C 0.11468 0.66678 0.87563 0.0
C874 C 0.12308 0.66803 0.92982 0.0
C875 C 0.12371 0.66748 0.82406 0.0
C876 C 0.11013 0.67842 0.87295 0.0
C877 C 0.09497 0.672 0.87051 0.0
C878 C 0.08812 0.68046 0.86768 0.0
C879 C 0.09703 0.69592 0.86727 0.0
C880 C 0.11259 0.70274 0.87037 0.0
C881 C 0.11918 0.69384 0.8733 0.0
H882 H 0.29206 0.42392 0.90657 0.0
H883 H 0.28259 0.45929 0.9354 0.0
H884 H 0.30927 0.47709 0.9458 0.0
H885 H 0.32148 0.43644 0.00723 0.0
H886 H 0.33221 0.43095 0.96559 0.0
H887 H 0.31241 0.42112 0.9595 0.0
H888 H 0.31474 0.42621 0.85314 0.0
H889 H 0.33455 0.43611 0.85894 0.0
H890 H 0.32533 0.44502 0.8282 0.0
H891 H 0.3371 0.49117 0.94962 0.0
H892 H 0.36387 0.50009 0.95383 0.0
H893 H 0.35485 0.45522 0.92725 0.0
C894 C 0.2956 0.43541 0.91504 0.0
C895 C 0.28529 0.44026 0.91994 0.0
C896 C 0.29033 0.45535 0.93158 0.0
C897 C 0.30545 0.46555 0.93737 0.0
C898 C 0.31534 0.46042 0.93201 0.0
C899 C 0.31062 0.44568 0.92171 0.0
C900 C 0.32346 0.44293 0.91924 0.0
C901 C 0.32232 0.43223 0.96566 0.0
C902 C 0.32458 0.43723 0.86144 0.0
C903 C 0.33616 0.45845 0.92944 0.0
C904 C 0.33128 0.46841 0.93621 0.0
C905 C 0.34105 0.48346 0.94477 0.0
C906 C 0.35622 0.48843 0.94692 0.0
C907 C 0.3614 0.47833 0.94119 0.0
C908 C 0.3512 0.46317 0.93227 0.0
H909 H 0.10317 0.47191 0.41184 0.0
H910 H 0.05722 0.44044 0.3754 0.0
H911 H 0.06283 0.42018 0.37354 0.0
H912 H 0.11896 0.4553 0.32584 0.0
H913 H 0.13353 0.4589 0.37432 0.0
H914 H 0.12592 0.47097 0.37215 0.0
H915 H 0.11998 0.46657 0.47766 0.0
H916 H 0.12753 0.45444 0.4801 0.0
H917 H 0.10891 0.4479 0.50343 0.0
H918 H 0.07348 0.40345 0.37343 0.0
H919 H 0.08843 0.39124 0.37758 0.0
H920 H 0.12721 0.43339 0.41787 0.0
C921 C 0.09431 0.46076 0.40328 0.0
C922 C 0.07978 0.45774 0.39357 0.0
C923 C 0.06844 0.443 0.38299 0.0
C924 C 0.07151 0.43142 0.38181 0.0
C925 C 0.08594 0.43475 0.39177 0.0
C926 C 0.09715 0.44903 0.40254 0.0
C927 C 0.11167 0.44957 0.41261 0.0
C928 C 0.12319 0.45925 0.3686 0.0
C929 C 0.11735 0.45493 0.47199 0.0
C930 C 0.10687 0.43336 0.40546 0.0
C931 C 0.092 0.42502 0.39323 0.0
C932 C 0.08512 0.40984 0.38331 0.0
C933 C 0.09369 0.40301 0.38572 0.0
C934 C 0.10893 0.41135 0.3984 0.0
C935 C 0.11554 0.4267 0.40872 0.0
H936 H 0.53708 0.63244 0.42071 0.0
H937 H 0.49095 0.61891 0.39746 0.0
H938 H 0.49787 0.64507 0.38284 0.0
H939 H 0.54779 0.66606 0.49395 0.0
H940 H 0.56556 0.67622 0.46053 0.0
H941 H 0.55694 0.65646 0.46926 0.0
H942 H 0.55888 0.65336 0.36296 0.0
H943 H 0.56759 0.67312 0.35397 0.0
H944 H 0.55118 0.66098 0.31501 0.0
H945 H 0.50992 0.67298 0.37471 0.0
H946 H 0.52633 0.70013 0.36523 0.0
H947 H 0.56447 0.69491 0.38958 0.0
C948 C 0.52843 0.63497 0.41241 0.0
C949 C 0.51348 0.62368 0.41041 0.0
C950 C 0.50249 0.62741 0.39902 0.0
C951 C 0.50631 0.64223 0.3909 0.0
C952 C 0.52116 0.65313 0.39371 0.0
C953 C 0.53206 0.64965 0.40349 0.0
C954 C 0.54723 0.66336 0.40317 0.0
C955 C 0.55482 0.66565 0.46012 0.0
C956 C 0.55678 0.66266 0.35596 0.0
C957 C 0.54317 0.67511 0.39201 0.0
C958 C 0.52808 0.66905 0.38719 0.0
C959 C 0.52176 0.67784 0.37803 0.0
C960 C 0.53114 0.69323 0.37293 0.0
C961 C 0.54664 0.69958 0.37638 0.0
C962 C 0.55266 0.69036 0.38632 0.0
H963 H 0.35417 0.87086 0.42782 0.0
H964 H 0.36376 0.91638 0.43628 0.0
H965 H 0.33745 0.90796 0.42354 0.0
H966 H 0.32492 0.85817 0.32404 0.0
H967 H 0.31367 0.84032 0.35624 0.0
H968 H 0.33344 0.84983 0.36383 0.0
H969 H 0.33052 0.84803 0.47121 0.0
H970 H 0.31074 0.8386 0.46394 0.0
H971 H 0.32012 0.85527 0.50491 0.0
H972 H 0.31069 0.89521 0.40996 0.0
H973 H 0.28407 0.87841 0.39699 0.0
H974 H 0.29068 0.84058 0.40123 0.0
C975 C 0.3507 0.87901 0.42637 0.0
C976 C 0.36099 0.89428 0.43283 0.0
C977 C 0.35605 0.90463 0.43154 0.0
C978 C 0.34113 0.89997 0.42427 0.0
C979 C 0.33124 0.88489 0.41884 0.0
C980 C 0.3357 0.87451 0.41989 0.0
C981 C 0.32253 0.85893 0.41457 0.0
C982 C 0.32372 0.85137 0.3615 0.0
C983 C 0.32088 0.84966 0.46677 0.0
C984 C 0.31005 0.86228 0.41023 0.0
C985 C 0.31544 0.87736 0.41254 0.0
C986 C 0.30629 0.88337 0.40823 0.0
C987 C 0.29119 0.87372 0.40081 0.0
C988 C 0.28532 0.85821 0.39826 0.0
C989 C 0.29487 0.85239 0.4036 0.0
H990 H 0.093 0.26503 0.97777 0.0
H991 H 0.08156 0.21997 0.93811 0.0
H992 H 0.09378 0.21882 0.02404 0.0
H993 H 0.12819 0.27654 0.02507 0.0
H994 H 0.12821 0.28808 0.08085 0.0
H995 H 0.11665 0.28474 0.02091 0.0
H996 H 0.09366 0.27482 0.08471 0.0
H997 H 0.10519 0.27823 0.14505 0.0
H998 H 0.08958 0.26001 0.13304 0.0
H999 H 0.11014 0.22363 0.10553 0.0
H1000 H 0.12872 0.23382 0.18067 0.0
H1001 H 0.12915 0.2755 0.17023 0.0
C1002 C 0.09269 0.25478 0.98808 0.0
C1003 C 0.08629 0.24257 0.95137 0.0
C1004 C 0.08639 0.22946 0.96565 0.0
C1005 C 0.09327 0.22867 0.01448 0.0
C1006 C 0.09989 0.24104 0.04892 0.0
C1007 C 0.09954 0.25381 0.03682 0.0
C1008 C 0.10856 0.26592 0.0786 0.0
C1009 C 0.12115 0.27962 0.04961 0.0
C1010 C 0.09865 0.26998 0.11236 0.0
C1011 C 0.11444 0.25812 0.11469 0.0
C1012 C 0.1092 0.24374 0.09706 0.0
C1013 C 0.11408 0.23475 0.12058 0.0
C1014 C 0.12468 0.24065 0.16301 0.0
C1015 C 0.13023 0.25537 0.18163 0.0
C1016 C 0.12484 0.2641 0.15769 0.0
H1017 H 0.73464 0.8716 0.1317 0.0
H1018 H 0.70247 0.83474 0.23165 0.0
H1019 H 0.70168 0.81727 0.16107 0.0
H1020 H 0.71825 0.85804 0.00615 0.0
H1021 H 0.73494 0.86453 0.96615 0.0
H1022 H 0.73516 0.87406 0.02869 0.0
H1023 H 0.75616 0.87059 0.06887 0.0
H1024 H 0.75611 0.86112 0.00606 0.0
H1025 H 0.75376 0.85227 0.07285 0.0
H1026 H 0.70102 0.80421 0.07366 0.0
H1027 H 0.70152 0.79641 0.97692 0.0
H1028 H 0.73466 0.8415 0.93442 0.0
C1029 C 0.72779 0.85984 0.13967 0.0
C1030 C 0.71864 0.85456 0.18734 0.0
C1031 C 0.7096 0.83908 0.19556 0.0
C1032 C 0.70911 0.82905 0.15576 0.0
C1033 C 0.71784 0.83464 0.10826 0.0
C1034 C 0.72717 0.84967 0.10034 0.0
C1035 C 0.73429 0.85288 0.04322 0.0
C1036 C 0.73042 0.86297 0.00907 0.0
C1037 C 0.75108 0.85961 0.04806 0.0
C1038 C 0.72701 0.83737 0.01941 0.0
C1039 C 0.71768 0.827 0.05783 0.0
C1040 C 0.70857 0.81216 0.04366 0.0
C1041 C 0.70888 0.80784 0.98864 0.0
C1042 C 0.71826 0.81832 0.94862 0.0
C1043 C 0.72766 0.83319 0.96461 0.0
H1044 H 0.10064 0.86227 0.11268 0.0
H1045 H 0.137 0.87259 0.22542 0.0
H1046 H 0.15468 0.88659 0.15091 0.0
H1047 H 0.11548 0.85562 -0.00302 0.0
H1048 H 0.10911 0.864 0.94674 0.0
H1049 H 0.09911 0.85664 0.01072 0.0
H1050 H 0.10166 0.88203 0.03392 0.0
H1051 H 0.11149 0.88945 0.96944 0.0
H1052 H 0.11969 0.89843 0.03449 0.0
H1053 H 0.16822 0.89557 0.06136 0.0
H1054 H 0.1769 0.90175 0.96397 0.0
H1055 H 0.13216 0.88709 0.90985 0.0
C1056 C 0.11231 0.86786 0.12225 0.0
C1057 C 0.11739 0.86627 0.17497 0.0
C1058 C 0.13279 0.87361 0.18545 0.0
C1059 C 0.14296 0.88162 0.14336 0.0
C1060 C 0.13759 0.88242 0.09123 0.0
C1061 C 0.12265 0.87603 0.08075 0.0
C1062 C 0.11982 0.87778 0.02003 0.0
C1063 C 0.11033 0.86261 0.992 0.0
C1064 C 0.11275 0.88751 0.01414 0.0
C1065 C 0.13547 0.88562 -0.00225 0.0
C1066 C 0.14554 0.88819 0.03957 0.0
C1067 C 0.1605 0.89398 0.02844 0.0
C1068 C 0.16531 0.89734 0.97309 0.0
C1069 C 0.15521 0.89504 0.92984 0.0
C1070 C 0.14014 0.88924 0.94245 0.0
H1071 H 0.24953 0.09003 0.54354 0.0
H1072 H 0.211 0.08591 0.62747 0.0
H1073 H 0.20543 0.09636 0.54487 0.0
H1074 H 0.26114 0.12392 0.48311 0.0
H1075 H 0.2672 0.12005 0.41831 0.0
H1076 H 0.26696 0.11037 0.48065 0.0
H1077 H 0.25027 0.08521 0.43182 0.0
H1078 H 0.2505 0.09484 0.36906 0.0
H1079 H 0.23316 0.08161 0.4004 0.0
H1080 H 0.20648 0.11098 0.4599 0.0
H1081 H 0.21318 0.12705 0.37637 0.0
H1082 H 0.25005 0.12015 0.34587 0.0
C1083 C 0.23972 0.09099 0.54402 0.0
C1084 C 0.23071 0.08718 0.59186 0.0
C1085 C 0.21803 0.0887 0.59112 0.0
C1086 C 0.21476 0.09462 0.54438 0.0
C1087 C 0.22412 0.09867 0.4984 0.0
C1088 C 0.23621 0.09669 0.49751 0.0
C1089 C 0.24506 0.10282 0.44455 0.0
C1090 C 0.26102 0.11501 0.45746 0.0
C1091 C 0.24472 0.09037 0.40938 0.0
C1092 C 0.23644 0.10912 0.41688 0.0
C1093 C 0.22435 0.10656 0.44837 0.0
C1094 C 0.21567 0.11272 0.4341 0.0
C1095 C 0.21958 0.12186 0.38678 0.0
C1096 C 0.23196 0.12462 0.35422 0.0
C1097 C 0.24026 0.11789 0.36902 0.0
H1098 H 0.84966 0.09183 0.34347 0.0
H1099 H 0.85716 0.13023 0.2469 0.0
H1100 H 0.87496 0.14663 0.31721 0.0
H1101 H 0.84969 0.10616 0.47306 0.0
H1102 H 0.85912 0.09818 0.50918 0.0
H1103 H 0.84845 0.08932 0.44788 0.0
H1104 H 0.87132 0.09043 0.40175 0.0
H1105 H 0.88208 0.09926 0.46315 0.0
H1106 H 0.88824 0.10797 0.39595 0.0
H1107 H 0.88905 0.15885 0.4032 0.0
H1108 H 0.89954 0.16604 0.49784 0.0
H1109 H 0.88394 0.11995 0.53735 0.0
C1110 C 0.8553 0.10367 0.33642 0.0
C1111 C 0.85199 0.10971 0.28958 0.0
C1112 C 0.85949 0.1253 0.28233 0.0
C1113 C 0.86967 0.13474 0.322 0.0
C1114 C 0.87238 0.12844 0.36835 0.0
C1115 C 0.86556 0.11327 0.3755 0.0
C1116 C 0.86968 0.10939 0.43096 0.0
C1117 C 0.85592 0.10023 0.4674 0.0
C1118 C 0.87835 0.10128 0.42242 0.0
C1119 C 0.87944 0.12474 0.45467 0.0
C1120 C 0.88092 0.13557 0.41769 0.0
C1121 C 0.88826 0.15051 0.43207 0.0
C1122 C 0.89413 0.15448 0.48588 0.0
C1123 C 0.8927 0.14357 0.52438 0.0
C1124 C 0.88549 0.12855 0.50818 0.0
H1125 H 0.84317 0.74888 0.55833 0.0
H1126 H 0.7993 0.71582 0.50394 0.0
H1127 H 0.80875 0.71712 0.40859 0.0
H1128 H 0.85569 0.77053 0.42666 0.0
H1129 H 0.87405 0.77331 0.43269 0.0
H1130 H 0.86353 0.77156 0.49453 0.0
H1131 H 0.86697 0.74996 0.52885 0.0
H1132 H 0.87749 0.75166 0.4673 0.0
H1133 H 0.86144 0.73413 0.48437 0.0
H1134 H 0.82296 0.72048 0.32225 0.0
H1135 H 0.84132 0.72387 0.25151 0.0
H1136 H 0.87655 0.75385 0.36222 0.0
C1137 C 0.83553 0.74221 0.52589 0.0
C1138 C 0.82048 0.73239 0.53796 0.0
C1139 C 0.81085 0.72345 0.49519 0.0
C1140 C 0.81609 0.72419 0.44096 0.0
C1141 C 0.83102 0.73382 0.43044 0.0
C1142 C 0.84066 0.74259 0.47171 0.0
C1143 C 0.85645 0.75067 0.45077 0.0
C1144 C 0.8628 0.76752 0.45118 0.0
C1145 C 0.86615 0.74634 0.48484 0.0
C1146 C 0.85422 0.74479 0.39173 0.0
C1147 C 0.83942 0.73533 0.38069 0.0
C1148 C 0.83457 0.72794 0.33017 0.0
C1149 C 0.84513 0.72994 0.29026 0.0
C1150 C 0.86042 0.73912 0.30124 0.0
C1151 C 0.86496 0.74689 0.35227 0.0
H1152 H 0.84646 0.71921 0.82721 0.0
H1153 H 0.84327 0.75904 0.82385 0.0
H1154 H 0.86156 0.76961 0.89986 0.0
H1155 H 0.84763 0.71708 0.9727 0.0
H1156 H 0.86032 0.71022 0.97418 0.0
H1157 H 0.84846 0.70652 0.91491 0.0
H1158 H 0.87126 0.71836 0.84967 0.0
H1159 H 0.88322 0.72211 0.90887 0.0
H1160 H 0.88602 0.73698 0.86289 0.0
H1161 H 0.87872 0.77518 0.97951 0.0
H1162 H 0.89251 0.77485 0.06204 0.0
H1163 H 0.88405 0.73105 0.01649 0.0
C1164 C 0.84986 0.73028 0.84171 0.0
C1165 C 0.84358 0.73839 0.81934 0.0
C1166 C 0.84799 0.75267 0.84035 0.0
C1167 C 0.85842 0.7588 0.88326 0.0
C1168 C 0.86427 0.75046 0.90488 0.0
C1169 C 0.86011 0.73648 0.88509 0.0
C1170 C 0.86705 0.72932 0.91904 0.0
C1171 C 0.85516 0.71494 0.94685 0.0
C1172 C 0.87751 0.72653 0.88295 0.0
C1173 C 0.87553 0.74135 0.96167 0.0
C1174 C 0.87394 0.75352 0.9521 0.0
C1175 C 0.88015 0.76577 0.9872 0.0
C1176 C 0.88795 0.76546 0.03403 0.0
C1177 C 0.88937 0.75293 0.04568 0.0
C1178 C 0.8833 0.74085 0.00834 0.0
H1179 H 0.23156 0.10012 0.90083 0.0
H1180 H 0.25031 0.1374 0.78603 0.0
H1181 H 0.24766 0.15285 0.85683 0.0
H1182 H 0.20516 0.10959 0.97013 0.0
H1183 H 0.20796 0.10368 0.03737 0.0
H1184 H 0.20924 0.0948 0.97498 0.0
H1185 H 0.23546 0.10073 0.00394 0.0
H1186 H 0.23431 0.10968 0.06608 0.0
H1187 H 0.24939 0.11965 0.01814 0.0
H1188 H 0.24739 0.1654 0.9435 0.0
H1189 H 0.24744 0.17372 0.04001 0.0
H1190 H 0.22727 0.12836 0.09809 0.0
C1191 C 0.23473 0.11141 0.89007 0.0
C1192 C 0.24118 0.11752 0.83783 0.0
C1193 C 0.24536 0.13242 0.8257 0.0
C1194 C 0.24386 0.14131 0.86561 0.0
C1195 C 0.23793 0.1351 0.91723 0.0
C1196 C 0.2332 0.12044 0.9294 0.0
C1197 C 0.22826 0.11688 0.98961 0.0
C1198 C 0.21166 0.10557 0.99322 0.0
C1199 C 0.2374 0.11142 0.02128 0.0
C1200 C 0.23161 0.132 0.00985 0.0
C1201 C 0.23711 0.14232 0.96724 0.0
C1202 C 0.24266 0.15737 0.97689 0.0
C1203 C 0.2427 0.162 0.03162 0.0
C1204 C 0.23701 0.1516 0.07555 0.0
C1205 C 0.23117 0.1364 0.06452 0.0
H1206 H 0.81842 0.08735 0.00365 0.0
H1207 H 0.84616 0.06935 0.05194 0.0
H1208 H 0.8603 0.07877 0.96493 0.0
H1209 H 0.81901 0.08109 0.84959 0.0
H1210 H 0.81975 0.09828 0.83284 0.0
H1211 H 0.8103 0.08818 0.89484 0.0
H1212 H 0.82648 0.11151 0.95447 0.0
H1213 H 0.83602 0.12163 0.89289 0.0
H1214 H 0.8463 0.12026 0.95053 0.0
H1215 H 0.87374 0.09316 0.88152 0.0
H1216 H 0.885 0.11088 0.80371 0.0
H1217 H 0.84835 0.11906 0.80621 0.0
C1218 C 0.82718 0.08502 -0.00497 0.0
C1219 C 0.83116 0.07758 0.03445 0.0
C1220 C 0.84291 0.07502 0.02233 0.0
C1221 C 0.85099 0.08028 0.9729 0.0
C1222 C 0.84711 0.08797 0.93567 0.0
C1223 C 0.8354 0.09022 0.94568 0.0
C1224 C 0.8344 0.09995 0.90096 0.0
C1225 C 0.82001 0.09136 0.86757 0.0
C1226 C 0.8359 0.11418 0.92624 0.0
C1227 C 0.84771 0.10326 0.86566 0.0
C1228 C 0.85479 0.09612 0.88623 0.0
C1229 C 0.86812 0.09855 0.86412 0.0
C1230 C 0.87446 0.10867 0.82017 0.0
C1231 C 0.86744 0.11615 0.79858 0.0
C1232 C 0.85375 0.11318 0.821 0.0
H1233 H 0.73762 0.87782 0.4367 0.0
H1234 H 0.70903 0.89574 0.47061 0.0
H1235 H 0.70556 0.88627 0.56717 0.0
H1236 H 0.71625 0.84469 0.50556 0.0
H1237 H 0.73139 0.84296 0.53211 0.0
H1238 H 0.73366 0.85326 0.4692 0.0
H1239 H 0.7562 0.87627 0.51234 0.0
H1240 H 0.754 0.86599 0.57555 0.0
H1241 H 0.75424 0.88335 0.57825 0.0
H1242 H 0.70313 0.87272 0.65613 0.0
H1243 H 0.70077 0.85501 0.72903 0.0
H1244 H 0.73035 0.84523 0.636 0.0
C1245 C 0.73097 0.88011 0.46493 0.0
C1246 C 0.72371 0.88764 0.4465 0.0
C1247 C 0.71475 0.89006 0.48411 0.0
C1248 C 0.71277 0.88479 0.53905 0.0
C1249 C 0.71982 0.87711 0.5556 0.0
C1250 C 0.72873 0.87476 0.51963 0.0
C1251 C 0.7337 0.86478 0.54564 0.0
C1252 C 0.72843 0.85059 0.51108 0.0
C1253 C 0.75054 0.8731 0.55341 0.0
C1254 C 0.72582 0.8615 0.60117 0.0
C1255 C 0.71811 0.86895 0.60654 0.0
C1256 C 0.70927 0.86697 0.65273 0.0
C1257 C 0.70799 0.85686 0.69394 0.0
C1258 C 0.71539 0.84871 0.68838 0.0
C1259 C 0.72467 0.85137 0.64187 0.0
H1260 H 0.09065 0.83057 0.45859 0.0
H1261 H 0.08213 0.86579 0.41287 0.0
H1262 H 0.09547 0.87976 0.49663 0.0
H1263 H 0.08839 0.83406 0.61297 0.0
H1264 H 0.10314 0.8303 0.62536 0.0
H1265 H 0.09108 0.82211 0.56636 0.0
H1266 H 0.11377 0.83335 0.50059 0.0
H1267 H 0.12588 0.84166 0.55915 0.0
H1268 H 0.12647 0.85305 0.50156 0.0
H1269 H 0.11269 0.89145 0.57664 0.0
H1270 H 0.13147 0.89942 0.65095 0.0
H1271 H 0.12827 0.85637 0.64643 0.0
C1272 C 0.09122 0.84102 0.46704 0.0
C1273 C 0.08533 0.84708 0.42929 0.0
C1274 C 0.08653 0.86092 0.4413 0.0
C1275 C 0.09407 0.86893 0.48882 0.0
C1276 C 0.10019 0.86288 0.52421 0.0
C1277 C 0.09869 0.84916 0.51436 0.0
C1278 C 0.10728 0.84568 0.5565 0.0
C1279 C 0.09685 0.83224 0.59243 0.0
C1280 C 0.11905 0.84331 0.52771 0.0
C1281 C 0.11426 0.85982 0.59031 0.0
C1282 C 0.10995 0.86956 0.57125 0.0
C1283 C 0.11592 0.88382 0.59276 0.0
C1284 C 0.12662 0.88827 0.63471 0.0
C1285 C 0.1312 0.87846 0.65477 0.0
C1286 C 0.12476 0.864 0.63273 0.0
H1287 H 0.10337 0.24194 0.64196 0.0
H1288 H 0.13797 0.27715 0.74055 0.0
H1289 H 0.15613 0.28099 0.66803 0.0
H1290 H 0.12686 0.22773 0.58282 0.0
H1291 H 0.11767 0.22391 0.5163 0.0
H1292 H 0.10769 0.22261 0.5792 0.0
H1293 H 0.10059 0.24109 0.53777 0.0
H1294 H 0.11064 0.24257 0.4751 0.0
H1295 H 0.11494 0.259 0.51405 0.0
H1296 H 0.16975 0.2836 0.57976 0.0
H1297 H 0.17833 0.28324 0.48413 0.0
H1298 H 0.13535 0.24569 0.44431 0.0
C1299 C 0.11482 0.25019 0.64901 0.0
C1300 C 0.1192 0.25924 0.69702 0.0
C1301 C 0.1343 0.27005 0.70423 0.0
C1302 C 0.14474 0.27232 0.66326 0.0
C1303 C 0.13997 0.26357 0.61563 0.0
C1304 C 0.12543 0.25255 0.60865 0.0
C1305 C 0.12305 0.24531 0.55202 0.0
C1306 C 0.11855 0.22892 0.55796 0.0
C1307 C 0.11163 0.24711 0.51774 0.0
C1308 C 0.1384 0.25435 0.52763 0.0
C1309 C 0.148 0.26479 0.56508 0.0
C1310 C 0.16244 0.27526 0.55045 0.0
C1311 C 0.16719 0.27503 0.49606 0.0
C1312 C 0.15755 0.26435 0.45725 0.0
C1313 C 0.14304 0.25379 0.47356 0.0
H1314 H 0.79652 0.61047 0.45659 0.0
H1315 H 0.80507 0.574 0.4452 0.0
H1316 H 0.78703 0.56326 0.36825 0.0
H1317 H 0.75742 0.58967 0.42555 0.0
H1318 H 0.75783 0.60434 0.3845 0.0
H1319 H 0.77078 0.60872 0.44069 0.0
H1320 H 0.79255 0.62353 0.37249 0.0
H1321 H 0.77968 0.61928 0.31623 0.0
H1322 H 0.794 0.61461 0.31051 0.0
H1323 H 0.76827 0.55667 0.29224 0.0
H1324 H 0.7518 0.55578 0.21699 0.0
H1325 H 0.75626 0.59709 0.27614 0.0
C1326 C 0.79452 0.60016 0.43824 0.0
C1327 C 0.80211 0.59301 0.45708 0.0
C1328 C 0.79937 0.57966 0.43136 0.0
C1329 C 0.78909 0.57344 0.38789 0.0
C1330 C 0.78176 0.58077 0.37047 0.0
C1331 C 0.78446 0.59391 0.39446 0.0
C1332 C 0.77575 0.60001 0.36598 0.0
C1333 C 0.76479 0.60072 0.40661 0.0
C1334 C 0.78611 0.61525 0.33974 0.0
C1335 C 0.76781 0.5883 0.32189 0.0
C1336 C 0.77127 0.5772 0.32567 0.0
C1337 C 0.76546 0.56529 0.2889 0.0
C1338 C 0.75608 0.56487 0.24641 0.0
C1339 C 0.75276 0.57639 0.2407 0.0
C1340 C 0.75855 0.58811 0.27954 0.0
H1341 H 0.39613 0.16519 0.2745 0.0
H1342 H 0.43426 0.19982 0.18783 0.0
H1343 H 0.43852 0.21708 0.26533 0.0
H1344 H 0.3827 0.18717 0.32618 0.0
H1345 H 0.37688 0.17792 0.3926 0.0
H1346 H 0.37765 0.168 0.33276 0.0
H1347 H 0.39503 0.16127 0.38589 0.0
H1348 H 0.39422 0.1711 0.44617 0.0
H1349 H 0.41182 0.1758 0.4163 0.0
H1350 H 0.43651 0.23137 0.3469 0.0
H1351 H 0.42981 0.24072 0.43031 0.0
H1352 H 0.39409 0.1962 0.46534 0.0
C1353 C 0.40553 0.17633 0.27233 0.0
C1354 C 0.41485 0.18119 0.22527 0.0
C1355 C 0.42703 0.19584 0.22375 0.0
C1356 C 0.42952 0.20574 0.26747 0.0
C1357 C 0.41989 0.20069 0.31277 0.0
C1358 C 0.4083 0.18624 0.31591 0.0
C1359 C 0.39929 0.18366 0.36821 0.0
C1360 C 0.38319 0.17891 0.35406 0.0
C1361 C 0.40015 0.17228 0.4064 0.0
C1362 C 0.40735 0.19901 0.39324 0.0
C1363 C 0.41917 0.20873 0.36072 0.0
C1364 C 0.42748 0.22379 0.37336 0.0
C1365 C 0.42358 0.22902 0.42056 0.0
C1366 C 0.41161 0.21914 0.45466 0.0
C1367 C 0.40354 0.20395 0.44085 0.0
H1368 H 0.8271 0.2179 0.23212 0.0
H1369 H 0.7923 0.2205 0.14422 0.0
H1370 H 0.77492 0.20664 0.2207 0.0
H1371 H 0.80492 0.18131 0.28457 0.0
H1372 H 0.81439 0.18522 0.35051 0.0
H1373 H 0.82404 0.19562 0.28946 0.0
H1374 H 0.83095 0.22011 0.34062 0.0
H1375 H 0.82131 0.20977 0.40186 0.0
H1376 H 0.81656 0.22253 0.3707 0.0
H1377 H 0.76115 0.19156 0.30574 0.0
H1378 H 0.75234 0.17712 0.39322 0.0
H1379 H 0.79655 0.18515 0.42501 0.0
C1380 C 0.81584 0.21561 0.22898 0.0
C1381 C 0.81103 0.22024 0.18226 0.0
C1382 C 0.79621 0.21705 0.17975 0.0
C1383 C 0.78627 0.20919 0.22294 0.0
C1384 C 0.79138 0.20471 0.26835 0.0
C1385 C 0.80584 0.20788 0.27171 0.0
C1386 C 0.80857 0.20176 0.32462 0.0
C1387 C 0.81325 0.19029 0.31148 0.0
C1388 C 0.82003 0.21429 0.36163 0.0
C1389 C 0.79336 0.19452 0.35036 0.0
C1390 C 0.78356 0.19631 0.31738 0.0
C1391 C 0.76876 0.19018 0.33209 0.0
C1392 C 0.76385 0.18198 0.38177 0.0
C1393 C 0.77376 0.18006 0.41615 0.0
C1394 C 0.7887 0.18651 0.40005 0.0
H1395 H 0.90967 0.45333 0.73403 0.0
H1396 H 0.87873 0.46806 0.77319 0.0
H1397 H 0.87172 0.45313 0.85977 0.0
H1398 H 0.88858 0.41559 0.79589 0.0
H1399 H 0.90518 0.41658 0.8219 0.0
H1400 H 0.90573 0.4262 0.7587 0.0
H1401 H 0.92641 0.45078 0.80085 0.0
H1402 H 0.92588 0.44129 0.86411 0.0
H1403 H 0.9233 0.45708 0.8666 0.0
H1404 H 0.86996 0.4386 0.94619 0.0
H1405 H 0.87472 0.42709 0.02766 0.0
H1406 H 0.90781 0.42316 0.93304 0.0
C1407 C 0.90108 0.45307 0.75989 0.0
C1408 C 0.89459 0.46169 0.74661 0.0
C1409 C 0.88376 0.46144 0.78247 0.0
C1410 C 0.87966 0.45294 0.83153 0.0
C1411 C 0.88657 0.44484 0.84407 0.0
C1412 C 0.89707 0.44487 0.80923 0.0
C1413 C 0.90416 0.43676 0.83505 0.0
C1414 C 0.9007 0.42296 0.80085 0.0
C1415 C 0.92092 0.4471 0.84208 0.0
C1416 C 0.89635 0.43255 0.89066 0.0
C1417 C 0.886 0.43699 0.89466 0.0
C1418 C 0.87791 0.43492 0.94328 0.0
C1419 C 0.88069 0.42838 0.9893 0.0
C1420 C 0.89164 0.42426 0.98653 0.0
C1421 C 0.89934 0.42615 0.93624 0.0
H1422 H 0.53873 0.46866 0.88297 0.0
H1423 H 0.55614 0.51501 0.8421 0.0
H1424 H 0.54527 0.50791 0.74789 0.0
H1425 H 0.54262 0.45612 0.74396 0.0
H1426 H 0.52538 0.43888 0.74947 0.0
H1427 H 0.53597 0.44765 0.81125 0.0
H1428 H 0.51329 0.44748 0.85493 0.0
H1429 H 0.50266 0.43873 0.79338 0.0
H1430 H 0.50447 0.45589 0.81751 0.0
H1431 H 0.53143 0.49582 0.66078 0.0
H1432 H 0.51432 0.47965 0.58832 0.0
H1433 H 0.5049 0.44095 0.68706 0.0
C1434 C 0.54051 0.47732 0.85376 0.0
C1435 C 0.54841 0.4924 0.86944 0.0
C1436 C 0.55018 0.5034 0.83068 0.0
C1437 C 0.5441 0.49948 0.77709 0.0
C1438 C 0.5362 0.4845 0.76315 0.0
C1439 C 0.53432 0.47358 0.8004 0.0
C1440 C 0.52427 0.45827 0.77667 0.0
C1441 C 0.53256 0.44973 0.76994 0.0
C1442 C 0.51035 0.44959 0.81277 0.0
C1443 C 0.52061 0.4623 0.72057 0.0
C1444 C 0.5278 0.47748 0.71336 0.0
C1445 C 0.52582 0.48391 0.66577 0.0
C1446 C 0.51605 0.4746 0.62481 0.0
C1447 C 0.50822 0.45899 0.63184 0.0
C1448 C 0.51075 0.45281 0.68016 0.0
H1449 H 0.51702 0.0441 0.69612 0.0
H1450 H 0.55627 0.08756 0.70916 0.0
H1451 H 0.54574 0.09292 0.79181 0.0
H1452 H 0.49019 0.05447 0.74376 0.0
H1453 H 0.47959 0.03758 0.78284 0.0
H1454 H 0.48951 0.03768 0.72142 0.0
H1455 H 0.5031 0.02717 0.77909 0.0
H1456 H 0.49327 0.02708 0.84067 0.0
H1457 H 0.51316 0.03686 0.84068 0.0
H1458 H 0.53167 0.09321 0.87456 0.0
H1459 H 0.51541 0.0881 0.95559 0.0
H1460 H 0.48558 0.04398 0.89187 0.0
C1461 C 0.52326 0.05485 0.71578 0.0
C1462 C 0.53739 0.06549 0.69604 0.0
C1463 C 0.5454 0.07928 0.72362 0.0
C1464 C 0.5395 0.08244 0.7704 0.0
C1465 C 0.52563 0.07164 0.78929 0.0
C1466 C 0.51762 0.0581 0.76311 0.0
C1467 C 0.50348 0.04804 0.79446 0.0
C1468 C 0.48989 0.04422 0.75847 0.0
C1469 C 0.50325 0.03396 0.81494 0.0
C1470 C 0.50488 0.05803 0.84262 0.0
C1471 C 0.51766 0.07164 0.83835 0.0
C1472 C 0.52159 0.08263 0.8783 0.0
C1473 C 0.51227 0.07959 0.92421 0.0
C1474 C 0.49923 0.06563 0.93011 0.0
C1475 C 0.49545 0.05477 0.88842 0.0
H1476 H 0.51686 0.04795 0.19812 0.0
H1477 H 0.51016 0.08537 0.22013 0.0
H1478 H 0.5276 0.09396 0.29948 0.0
H1479 H 0.51697 0.0403 0.33973 0.0
H1480 H 0.53071 0.03485 0.334 0.0
H1481 H 0.5191 0.03269 0.27539 0.0
H1482 H 0.54226 0.04838 0.21427 0.0
H1483 H 0.55397 0.0506 0.2728 0.0
H1484 H 0.55597 0.06668 0.23688 0.0
H1485 H 0.54467 0.09754 0.37992 0.0
H1486 H 0.55874 0.09508 0.45777 0.0
H1487 H 0.55343 0.05483 0.38355 0.0
C1488 C 0.51925 0.05811 0.21887 0.0
C1489 C 0.51225 0.06607 0.20265 0.0
C1490 C 0.51544 0.07913 0.23175 0.0
C1491 C 0.52537 0.08412 0.27668 0.0
C1492 C 0.53195 0.0759 0.29194 0.0
C1493 C 0.52897 0.06314 0.26394 0.0
C1494 C 0.53651 0.05563 0.29106 0.0
C1495 C 0.52514 0.03995 0.31125 0.0
C1496 C 0.54785 0.05531 0.25138 0.0
C1497 C 0.544 0.066 0.3394 0.0
C1498 C 0.54144 0.07774 0.33882 0.0
C1499 C 0.54683 0.08846 0.38056 0.0
C1500 C 0.55482 0.08696 0.42453 0.0
C1501 C 0.55716 0.07474 0.42666 0.0
C1502 C 0.55187 0.06431 0.38297 0.0
H1503 H 0.91521 0.45424 0.25992 0.0
H1504 H 0.872 0.41498 0.27838 0.0
H1505 H 0.86592 0.42751 0.35243 0.0
H1506 H 0.9217 0.46194 0.40154 0.0
H1507 H 0.93131 0.48179 0.39338 0.0
H1508 H 0.93146 0.47036 0.33779 0.0
H1509 H 0.92097 0.48215 0.27003 0.0
H1510 H 0.92076 0.49362 0.32559 0.0
H1511 H 0.90408 0.48181 0.28742 0.0
H1512 H 0.86534 0.44384 0.42888 0.0
H1513 H 0.87087 0.46189 0.50477 0.0
H1514 H 0.91466 0.48996 0.43618 0.0
C1515 C 0.90437 0.44834 0.27884 0.0
C1516 C 0.89404 0.43368 0.26329 0.0
C1517 C 0.88006 0.42625 0.28967 0.0
C1518 C 0.87649 0.4333 0.3315 0.0
C1519 C 0.88702 0.44774 0.34623 0.0
C1520 C 0.90068 0.45514 0.32071 0.0
C1521 C 0.91051 0.4701 0.34695 0.0
C1522 C 0.92457 0.47109 0.37137 0.0
C1523 C 0.9143 0.48266 0.30499 0.0
C1524 C 0.90039 0.46984 0.39224 0.0
C1525 C 0.8868 0.45698 0.39069 0.0
C1526 C 0.8759 0.45401 0.43017 0.0
C1527 C 0.87912 0.46433 0.47303 0.0
C1528 C 0.89319 0.4773 0.47628 0.0
C1529 C 0.90379 0.48017 0.43462 0.0
H1530 H 0.47576 0.43718 0.3437 0.0
H1531 H 0.50169 0.41687 0.38823 0.0
H1532 H 0.51604 0.42644 0.30147 0.0
H1533 H 0.47612 0.43212 0.1892 0.0
H1534 H 0.47782 0.44987 0.17533 0.0
H1535 H 0.46802 0.43946 0.23631 0.0
H1536 H 0.48498 0.46193 0.29864 0.0
H1537 H 0.49485 0.47236 0.23807 0.0
H1538 H 0.50471 0.46984 0.29457 0.0
H1539 H 0.52982 0.44106 0.21848 0.0
H1540 H 0.54179 0.45937 0.14298 0.0
H1541 H 0.50676 0.46992 0.15052 0.0
C1542 C 0.48417 0.43438 0.33437 0.0
C1543 C 0.48758 0.42623 0.37251 0.0
C1544 C 0.49888 0.42307 0.35949 0.0
C1545 C 0.50705 0.42841 0.31022 0.0
C1546 C 0.50371 0.43679 0.27425 0.0
C1547 C 0.49246 0.43967 0.28538 0.0
C1548 C 0.49206 0.45012 0.24252 0.0
C1549 C 0.47765 0.44243 0.20884 0.0
C1550 C 0.49429 0.4644 0.27011 0.0
C1551 C 0.50518 0.4531 0.20681 0.0
C1552 C 0.51164 0.44516 0.22552 0.0
C1553 C 0.52469 0.44709 0.20262 0.0
C1554 C 0.53144 0.45756 0.15997 0.0
C1555 C 0.52511 0.46592 0.1406 0.0
C1556 C 0.51165 0.46342 0.16362 0.0
H1557 H 0.39478 0.23345 0.77716 0.0
H1558 H 0.43507 0.24052 0.69865 0.0
H1559 H 0.43985 0.22876 0.7793 0.0
H1560 H 0.40902 0.23972 0.92279 0.0
H1561 H 0.39143 0.22564 0.94974 0.0
H1562 H 0.3922 0.23613 0.88881 0.0
H1563 H 0.37683 0.21168 0.8339 0.0
H1564 H 0.3761 0.20114 0.89436 0.0
H1565 H 0.38329 0.19865 0.82964 0.0
H1566 H 0.438 0.21275 0.86127 0.0
H1567 H 0.43089 0.19586 0.9426 0.0
H1568 H 0.39278 0.20092 0.96974 0.0
C1569 C 0.40477 0.23282 0.77755 0.0
C1570 C 0.41455 0.23785 0.73184 0.0
C1571 C 0.42749 0.2368 0.73354 0.0
C1572 C 0.43028 0.23013 0.77909 0.0
C1573 C 0.42018 0.22488 0.82291 0.0
C1574 C 0.40784 0.22643 0.82296 0.0
C1575 C 0.39832 0.21925 0.87367 0.0
C1576 C 0.39772 0.23088 0.91096 0.0
C1577 C 0.38272 0.20695 0.85686 0.0
C1578 C 0.40692 0.21293 0.90109 0.0
C1579 C 0.41951 0.21628 0.87132 0.0
C1580 C 0.42839 0.21037 0.88575 0.0
C1581 C 0.42424 0.20075 0.93171 0.0
C1582 C 0.41145 0.19732 0.96281 0.0
C1583 C 0.40285 0.20368 0.94761 0.0
H1584 H 0.77421 0.16576 0.73383 0.0
H1585 H 0.75818 0.19381 0.66797 0.0
H1586 H 0.77195 0.21233 0.741 0.0
H1587 H 0.77302 0.17402 0.88018 0.0
H1588 H 0.78971 0.17388 0.89699 0.0
H1589 H 0.7781 0.16257 0.8409 0.0
H1590 H 0.80037 0.1749 0.77315 0.0
H1591 H 0.81203 0.18627 0.82896 0.0
H1592 H 0.81046 0.19478 0.76593 0.0
H1593 H 0.78835 0.22829 0.81851 0.0
H1594 H 0.80586 0.24032 0.89617 0.0
H1595 H 0.81096 0.20173 0.91171 0.0
C1596 C 0.77348 0.17573 0.73507 0.0
C1597 C 0.76511 0.17834 0.69527 0.0
C1598 C 0.76452 0.19157 0.69808 0.0
C1599 C 0.77229 0.20216 0.7394 0.0
C1600 C 0.78057 0.19932 0.77763 0.0
C1601 C 0.78118 0.18641 0.77597 0.0
C1602 C 0.79118 0.18623 0.8211 0.0
C1603 C 0.78248 0.17341 0.86223 0.0
C1604 C 0.80428 0.18551 0.79576 0.0
C1605 C 0.79617 0.20108 0.84816 0.0
C1606 C 0.78993 0.20846 0.82251 0.0
C1607 C 0.79323 0.22257 0.8392 0.0
C1608 C 0.8032 0.22932 0.88325 0.0
C1609 C 0.80971 0.22193 0.91012 0.0
C1610 C 0.80606 0.2076 0.89234 0.0
H1611 H 0.7907 0.60384 0.97487 0.0
H1612 H 0.75192 0.56073 0.94675 0.0
H1613 H 0.76351 0.5577 0.86199 0.0
H1614 H 0.79592 0.61499 0.83577 0.0
H1615 H 0.8158 0.6249 0.83827 0.0
H1616 H 0.80537 0.62289 0.90044 0.0
H1617 H 0.81861 0.61097 0.95156 0.0
H1618 H 0.82918 0.61303 0.88957 0.0
H1619 H 0.81839 0.59506 0.92152 0.0
H1620 H 0.77852 0.56012 0.77735 0.0
H1621 H 0.79554 0.56803 0.6972 0.0
H1622 H 0.82412 0.61001 0.77893 0.0
C1623 C 0.78478 0.5936 0.95166 0.0
C1624 C 0.77047 0.58244 0.96764 0.0
C1625 C 0.76293 0.56938 0.93533 0.0
C1626 C 0.76944 0.56755 0.88728 0.0
C1627 C 0.78344 0.5789 0.87208 0.0
C1628 C 0.79103 0.59168 0.90328 0.0
C1629 C 0.80539 0.60272 0.87549 0.0
C1630 C 0.80562 0.61723 0.86167 0.0
C1631 C 0.81868 0.60561 0.9117 0.0
C1632 C 0.80457 0.59427 0.82321 0.0
C1633 C 0.79192 0.58048 0.82243 0.0
C1634 C 0.78851 0.57084 0.77767 0.0
C1635 C 0.79824 0.57545 0.73232 0.0
C1636 C 0.81114 0.58964 0.73183 0.0
C1637 C 0.81437 0.59909 0.77817 0.0
H1638 H 0.42362 0.92355 0.66447 0.0
H1639 H 0.41375 0.88027 0.60548 0.0
H1640 H 0.42542 0.87706 0.68954 0.0
H1641 H 0.45847 0.93461 0.71342 0.0
H1642 H 0.45752 0.94434 0.77379 0.0
H1643 H 0.44648 0.94234 0.71351 0.0
H1644 H 0.42283 0.93008 0.77428 0.0
H1645 H 0.43383 0.93212 0.83499 0.0
H1646 H 0.41873 0.91413 0.81625 0.0
H1647 H 0.44121 0.88008 0.77237 0.0
H1648 H 0.45914 0.88876 0.84992 0.0
H1649 H 0.45809 0.92972 0.85642 0.0
C1650 C 0.42356 0.91323 0.66993 0.0
C1651 C 0.41775 0.90215 0.62849 0.0
C1652 C 0.4181 0.8889 0.63677 0.0
C1653 C 0.42467 0.88695 0.68445 0.0
C1654 C 0.43069 0.89828 0.72375 0.0
C1655 C 0.43004 0.9111 0.71734 0.0
C1656 C 0.43835 0.92207 0.76339 0.0
C1657 C 0.45095 0.93669 0.73958 0.0
C1658 C 0.4278 0.92475 0.79936 0.0
C1659 C 0.44423 0.91365 0.79547 0.0
C1660 C 0.43959 0.8999 0.77226 0.0
C1661 C 0.44467 0.89068 0.79169 0.0
C1662 C 0.45489 0.89572 0.83557 0.0
C1663 C 0.45988 0.90984 0.85957 0.0
C1664 C 0.45423 0.91874 0.83979 0.0
H1665 H 0.081 0.56163 0.7534 0.0
H1666 H 0.06788 0.52519 0.86982 0.0
H1667 H 0.06852 0.50972 0.79429 0.0
H1668 H 0.05966 0.54093 0.64301 0.0
H1669 H 0.07285 0.55096 0.58867 0.0
H1670 H 0.07346 0.56013 0.65282 0.0
H1671 H 0.10073 0.5673 0.66756 0.0
H1672 H 0.10028 0.5583 0.60295 0.0
H1673 H 0.10566 0.55308 0.66652 0.0
H1674 H 0.06629 0.49688 0.7054 0.0
H1675 H 0.06444 0.48829 0.60831 0.0
H1676 H 0.08069 0.53309 0.5487 0.0
C1677 C 0.07869 0.55055 0.76332 0.0
C1678 C 0.07433 0.54465 0.81764 0.0
C1679 C 0.07121 0.53 0.82864 0.0
C1680 C 0.07155 0.52109 0.78598 0.0
C1681 C 0.07529 0.52702 0.73259 0.0
C1682 C 0.07912 0.5415 0.72114 0.0
C1683 C 0.08191 0.54478 0.6593 0.0
C1684 C 0.07134 0.54947 0.63452 0.0
C1685 C 0.09811 0.55656 0.64846 0.0
C1686 C 0.07847 0.52973 0.63779 0.0
C1687 C 0.07467 0.51967 0.68091 0.0
C1688 C 0.06962 0.50472 0.67134 0.0
C1689 C 0.0685 0.49993 0.61618 0.0
C1690 C 0.07261 0.51008 0.57149 0.0
C1691 C 0.07781 0.5252 0.58243 0.0
H1692 H 0.4654 0.52747 0.84589 0.0
H1693 H 0.43159 0.53968 0.85621 0.0
H1694 H 0.44366 0.55767 0.77981 0.0
H1695 H 0.49684 0.56486 0.80308 0.0
H1696 H 0.50404 0.55663 0.75595 0.0
H1697 H 0.49454 0.54692 0.81849 0.0
H1698 H 0.47653 0.52423 0.75923 0.0
H1699 H 0.48587 0.53386 0.69666 0.0
H1700 H 0.4663 0.52662 0.70374 0.0
H1701 H 0.45689 0.57132 0.69492 0.0
H1702 H 0.47019 0.57956 0.60563 0.0
H1703 H 0.49541 0.55837 0.64812 0.0
C1704 C 0.46085 0.53432 0.83338 0.0
C1705 C 0.44766 0.53233 0.85735 0.0
C1706 C 0.44174 0.54111 0.83861 0.0
C1707 C 0.44856 0.5514 0.79545 0.0
C1708 C 0.46128 0.55276 0.77146 0.0
C1709 C 0.46743 0.54451 0.78982 0.0
C1710 C 0.48005 0.54674 0.75243 0.0
C1711 C 0.49474 0.55424 0.7844 0.0
C1712 C 0.47699 0.53199 0.72649 0.0
C1713 C 0.47964 0.55705 0.70892 0.0
C1714 C 0.4689 0.56059 0.72139 0.0
C1715 C 0.46552 0.56888 0.68523 0.0
C1716 C 0.47309 0.57345 0.6345 0.0
C1717 C 0.48388 0.56968 0.62021 0.0
C1718 C 0.48743 0.56167 0.65853 0.0
H1719 H 0.57101 0.79898 0.98266 0.0
H1720 H 0.60147 0.79022 0.89088 0.0
H1721 H 0.59941 0.77266 0.96379 0.0
H1722 H 0.58497 0.80001 0.11236 0.0
H1723 H 0.56758 0.79103 0.14888 0.0
H1724 H 0.56944 0.80104 0.08554 0.0
H1725 H 0.54742 0.77764 0.04213 0.0
H1726 H 0.54538 0.76756 0.10572 0.0
H1727 H 0.54773 0.76055 0.04029 0.0
H1728 H 0.59736 0.7594 0.05308 0.0
H1729 H 0.59395 0.74998 0.14977 0.0
H1730 H 0.56413 0.76652 0.18196 0.0
C1731 C 0.57691 0.79305 0.977 0.0
C1732 C 0.5864 0.79601 0.93095 0.0
C1733 C 0.59409 0.78815 0.92565 0.0
C1734 C 0.59299 0.77811 0.96685 0.0
C1735 C 0.58398 0.77589 0.01274 0.0
C1736 C 0.57588 0.78295 0.01763 0.0
C1737 C 0.56793 0.77951 0.07311 0.0
C1738 C 0.57278 0.79374 0.10694 0.0
C1739 C 0.55112 0.77079 0.06479 0.0
C1740 C 0.57334 0.76994 0.09952 0.0
C1741 C 0.5825 0.76788 0.06388 0.0
C1742 C 0.58992 0.76061 0.08092 0.0
C1743 C 0.58799 0.75537 0.13591 0.0
C1744 C 0.57866 0.75738 0.17299 0.0
C1745 C 0.57108 0.76455 0.15413 0.0
H1746 H 0.22226 0.82926 0.1678 0.0
H1747 H 0.22802 0.79311 0.2257 0.0
H1748 H 0.2151 0.77864 0.14228 0.0
H1749 H 0.18671 0.8078 0.1191 0.0
H1750 H 0.18878 0.81898 0.05873 0.0
H1751 H 0.20019 0.8273 0.11897 0.0
H1752 H 0.22369 0.83693 0.05808 0.0
H1753 H 0.21232 0.82869 -0.00258 0.0
H1754 H 0.22618 0.82407 0.01608 0.0
H1755 H 0.19844 0.76675 0.06068 0.0
H1756 H 0.18058 0.75896 0.98292 0.0
H1757 H 0.18668 0.8032 0.9755 0.0
C1758 C 0.22113 0.81845 0.16223 0.0
C1759 C 0.22615 0.81232 0.20323 0.0
C1760 C 0.2243 0.79805 0.19478 0.0
C1761 C 0.21699 0.78975 0.14747 0.0
C1762 C 0.21179 0.79595 0.10861 0.0
C1763 C 0.21395 0.81005 0.11502 0.0
C1764 C 0.20644 0.81375 0.06902 0.0
C1765 C 0.19484 0.81715 0.0929 0.0
C1766 C 0.21784 0.82662 0.03301 0.0
C1767 C 0.19928 0.79932 0.03698 0.0
C1768 C 0.20255 0.78921 0.06032 0.0
C1769 C 0.19607 0.77467 0.04116 0.0
C1770 C 0.18591 0.77033 -0.00278 0.0
C1771 C 0.18244 0.78054 0.97278 0.0
C1772 C 0.18942 0.79527 0.99244 0.0
H1773 H 0.18158 0.38296 0.00728 0.0
H1774 H 0.21587 0.42924 0.01233 0.0
H1775 H 0.20351 0.43323 0.09245 0.0
H1776 H 0.15047 0.38766 0.0518 0.0
H1777 H 0.14245 0.37117 0.09424 0.0
H1778 H 0.15289 0.37233 0.03288 0.0
H1779 H 0.16992 0.36646 0.0926 0.0
H1780 H 0.15959 0.36533 0.15408 0.0
H1781 H 0.17925 0.37787 0.15214 0.0
H1782 H 0.18861 0.43191 0.17478 0.0
H1783 H 0.17277 0.42523 0.25791 0.0
H1784 H 0.14855 0.37945 0.20276 0.0
C1785 C 0.18627 0.394 0.02449 0.0
C1786 C 0.19956 0.40586 0.00336 0.0
C1787 C 0.20565 0.42005 0.02788 0.0
C1788 C 0.19868 0.42242 0.07316 0.0
C1789 C 0.18572 0.41045 0.09365 0.0
C1790 C 0.17958 0.3965 0.07039 0.0
C1791 C 0.16636 0.38526 0.10372 0.0
C1792 C 0.1522 0.37872 0.06855 0.0
C1793 C 0.16894 0.37301 0.12701 0.0
C1794 C 0.16617 0.39506 0.14979 0.0
C1795 C 0.17731 0.40958 0.14261 0.0
C1796 C 0.17977 0.42061 0.18069 0.0
C1797 C 0.17072 0.41668 0.22784 0.0
C1798 C 0.15942 0.40182 0.23683 0.0
C1799 C 0.15701 0.39092 0.1968 0.0
H1800 H 0.21824 0.39386 0.70052 0.0
H1801 H 0.22489 0.43638 0.75535 0.0
H1802 H 0.21052 0.43692 0.67494 0.0
H1803 H 0.21982 0.40156 0.54873 0.0
H1804 H 0.20571 0.38281 0.53323 0.0
H1805 H 0.21784 0.38651 0.59182 0.0
H1806 H 0.19515 0.37295 0.65701 0.0
H1807 H 0.18297 0.36931 0.59883 0.0
H1808 H 0.18173 0.37889 0.6591 0.0
H1809 H 0.19299 0.43145 0.59614 0.0
H1810 H 0.17484 0.42111 0.51957 0.0
H1811 H 0.18031 0.38263 0.51349 0.0
C1812 C 0.21694 0.40343 0.69494 0.0
C1813 C 0.22267 0.41508 0.73419 0.0
C1814 C 0.22062 0.42734 0.72575 0.0
C1815 C 0.21248 0.42776 0.68019 0.0
C1816 C 0.20664 0.41592 0.64312 0.0
C1817 C 0.20892 0.40408 0.64948 0.0
C1818 C 0.2008 0.39243 0.60525 0.0
C1819 C 0.2117 0.39073 0.56751 0.0
C1820 C 0.1895 0.37752 0.63164 0.0
C1821 C 0.19325 0.39938 0.57407 0.0
C1822 C 0.19679 0.41295 0.59654 0.0
C1823 C 0.19034 0.42098 0.57747 0.0
C1824 C 0.18 0.41498 0.53423 0.0
C1825 C 0.17629 0.40115 0.51036 0.0
C1826 C 0.18314 0.39336 0.53027 0.0
H1827 H 0.56725 0.80361 0.68465 0.0
H1828 H 0.60175 0.84828 0.644 0.0
H1829 H 0.60207 0.84052 0.54701 0.0
H1830 H 0.58267 0.78623 0.61317 0.0
H1831 H 0.56553 0.77063 0.58993 0.0
H1832 H 0.56596 0.78024 0.65255 0.0
H1833 H 0.54561 0.78479 0.6126 0.0
H1834 H 0.54514 0.77518 0.54962 0.0
H1835 H 0.54835 0.79381 0.54595 0.0
H1836 H 0.60067 0.82747 0.45855 0.0
H1837 H 0.59922 0.80989 0.38728 0.0
H1838 H 0.5663 0.77331 0.48634 0.0
C1839 C 0.57455 0.81185 0.65484 0.0
C1840 C 0.58434 0.82659 0.6714 0.0
C1841 C 0.5941 0.83696 0.63187 0.0
C1842 C 0.59428 0.83267 0.57669 0.0
C1843 C 0.5847 0.81796 0.56189 0.0
C1844 C 0.57504 0.80768 0.59987 0.0
C1845 C 0.5673 0.79221 0.57547 0.0
C1846 C 0.57057 0.78172 0.60981 0.0
C1847 C 0.55061 0.78614 0.57062 0.0
C1848 C 0.57449 0.79531 0.51854 0.0
C1849 C 0.58422 0.81028 0.51112 0.0
C1850 C 0.59294 0.81575 0.46356 0.0
C1851 C 0.59205 0.80564 0.42331 0.0
C1852 C 0.58264 0.79019 0.43112 0.0
C1853 C 0.57344 0.78505 0.4787 0.0
H1854 H 0.17855 0.76965 0.71675 0.0
H1855 H 0.13446 0.75812 0.66436 0.0
H1856 H 0.14354 0.76597 0.56815 0.0
H1857 H 0.19646 0.80261 0.64033 0.0
H1858 H 0.21249 0.80128 0.62327 0.0
H1859 H 0.20217 0.79262 0.68555 0.0
H1860 H 0.19872 0.76742 0.65313 0.0
H1861 H 0.20901 0.77603 0.59049 0.0
H1862 H 0.19065 0.76018 0.58589 0.0
H1863 H 0.15743 0.77631 0.48032 0.0
H1864 H 0.17552 0.79116 0.40828 0.0
H1865 H 0.2112 0.79774 0.51861 0.0
C1866 C 0.17078 0.76848 0.68461 0.0
C1867 C 0.15578 0.76309 0.69737 0.0
C1868 C 0.14598 0.76214 0.65501 0.0
C1869 C 0.15101 0.76647 0.60033 0.0
C1870 C 0.16591 0.77187 0.58908 0.0
C1871 C 0.1757 0.77307 0.63008 0.0
C1872 C 0.19143 0.78089 0.60842 0.0
C1873 C 0.2012 0.7952 0.64134 0.0
C1874 C 0.19783 0.77051 0.60955 0.0
C1875 C 0.18897 0.78422 0.54918 0.0
C1876 C 0.17412 0.77858 0.53868 0.0
C1877 C 0.16908 0.78071 0.48788 0.0
C1878 C 0.17949 0.7892 0.44721 0.0
C1879 C 0.19483 0.7957 0.45775 0.0
C1880 C 0.19958 0.79284 0.50904 0.0
H1881 H 0.06145 0.56469 0.11635 0.0
H1882 H 0.10627 0.58296 0.0555 0.0
H1883 H 0.11232 0.57277 0.13766 0.0
H1884 H 0.07082 0.56965 0.26869 0.0
H1885 H 0.05443 0.55241 0.28589 0.0
H1886 H 0.05436 0.5632 0.22727 0.0
H1887 H 0.0459 0.54043 0.16285 0.0
H1888 H 0.04601 0.52963 0.221 0.0
H1889 H 0.05673 0.53145 0.15972 0.0
H1890 H 0.11225 0.55713 0.21725 0.0
H1891 H 0.10626 0.53812 0.29004 0.0
H1892 H 0.06184 0.53092 0.30082 0.0
C1893 C 0.07265 0.56691 0.12109 0.0
C1894 C 0.08339 0.57463 0.0796 0.0
C1895 C 0.09787 0.57713 0.08691 0.0
C1896 C 0.10143 0.57141 0.13351 0.0
C1897 C 0.09044 0.56342 0.17278 0.0
C1898 C 0.07639 0.56135 0.16742 0.0
C1899 C 0.06622 0.55126 0.21262 0.0
C1900 C 0.06116 0.55964 0.25089 0.0
C1901 C 0.05294 0.53738 0.18753 0.0
C1902 C 0.07656 0.54746 0.24279 0.0
C1903 C 0.09052 0.55469 0.2196 0.0
C1904 C 0.10148 0.5517 0.23671 0.0
C1905 C 0.09797 0.54087 0.27792 0.0
C1906 C 0.08366 0.53323 0.30154 0.0
C1907 C 0.07298 0.53686 0.28457 0.0
H1908 H 0.4294 0.52558 0.12046 0.0
H1909 H 0.41872 0.48006 0.14395 0.0
H1910 H 0.42995 0.48639 0.23784 0.0
H1911 H 0.46439 0.54163 0.18006 0.0
H1912 H 0.46371 0.55689 0.21182 0.0
H1913 H 0.45309 0.54836 0.15007 0.0
H1914 H 0.42924 0.54337 0.20118 0.0
H1915 H 0.43981 0.55192 0.26321 0.0
H1916 H 0.42427 0.53331 0.26616 0.0
H1917 H 0.44389 0.49808 0.32591 0.0
H1918 H 0.4607 0.51441 0.39908 0.0
H1919 H 0.463 0.5525 0.31601 0.0
C1920 C 0.42913 0.51687 0.14583 0.0
C1921 C 0.42308 0.50229 0.12529 0.0
C1922 C 0.42325 0.49128 0.15913 0.0
C1923 C 0.42955 0.49475 0.21252 0.0
C1924 C 0.43564 0.5093 0.23121 0.0
C1925 C 0.43552 0.52019 0.1988 0.0
C1926 C 0.44398 0.53523 0.2263 0.0
C1927 C 0.45707 0.54616 0.1899 0.0
C1928 C 0.43371 0.54131 0.24003 0.0
C1929 C 0.44916 0.53116 0.27872 0.0
C1930 C 0.44403 0.51613 0.28124 0.0
C1931 C 0.44787 0.50986 0.32464 0.0
C1932 C 0.45743 0.51924 0.36604 0.0
C1933 C 0.46318 0.53476 0.36335 0.0
C1934 C 0.45875 0.54069 0.31949 0.0
H1935 H 0.46414 0.90246 0.12024 0.0
H1936 H 0.5088 0.93636 0.16254 0.0
H1937 H 0.50048 0.9381 0.25713 0.0
H1938 H 0.44704 0.91978 0.18695 0.0
H1939 H 0.43109 0.90289 0.21025 0.0
H1940 H 0.44083 0.90283 0.14864 0.0
H1941 H 0.44439 0.88202 0.19121 0.0
H1942 H 0.43466 0.88203 0.25307 0.0
H1943 H 0.45299 0.88473 0.25859 0.0
H1944 H 0.48728 0.93717 0.34434 0.0
H1945 H 0.46984 0.93526 0.41672 0.0
H1946 H 0.43325 0.90291 0.31653 0.0
C1947 C 0.4722 0.91 0.14992 0.0
C1948 C 0.48714 0.91914 0.13464 0.0
C1949 C 0.49732 0.92921 0.17378 0.0
C1950 C 0.49271 0.93022 0.22756 0.0
C1951 C 0.47786 0.92119 0.2412 0.0
C1952 C 0.46772 0.91135 0.20345 0.0
C1953 C 0.45218 0.90401 0.22691 0.0
C1954 C 0.4422 0.9076 0.19106 0.0
C1955 C 0.44568 0.8872 0.23279 0.0
C1956 C 0.45517 0.91143 0.2834 0.0
C1957 C 0.47009 0.92109 0.29103 0.0
C1958 C 0.47557 0.92958 0.33902 0.0
C1959 C 0.46554 0.9284 0.37993 0.0
C1960 C 0.45013 0.91893 0.37243 0.0
C1961 C 0.44494 0.91018 0.32375 0.0
H1962 H 0.22418 0.37325 0.04002 0.0
H1963 H 0.22311 0.34575 0.9033 0.0
H1964 H 0.21828 0.32565 0.96984 0.0
H1965 H 0.2387 0.35846 0.15197 0.0
H1966 H 0.22644 0.35909 0.2031 0.0
H1967 H 0.23352 0.37247 0.14725 0.0
H1968 H 0.20679 0.36502 0.11928 0.0
H1969 H 0.19963 0.35157 0.17451 0.0
H1970 H 0.19374 0.3459 0.10377 0.0
H1971 H 0.21037 0.30761 0.04882 0.0
H1972 H 0.19795 0.29232 0.13151 0.0
H1973 H 0.20209 0.33099 0.21551 0.0
C1974 C 0.2236 0.36323 0.02461 0.0
C1975 C 0.22444 0.36111 0.96702 0.0
C1976 C 0.22281 0.34761 0.94756 0.0
C1977 C 0.2201 0.33619 0.98504 0.0
C1978 C 0.21884 0.33841 0.04162 0.0
C1979 C 0.22047 0.3516 0.0613 0.0
C1980 C 0.21613 0.35035 0.12213 0.0
C1981 C 0.2295 0.36071 0.15825 0.0
C1982 C 0.20332 0.35338 0.13035 0.0
C1983 C 0.2113 0.33426 0.13308 0.0
C1984 C 0.21336 0.3277 0.08664 0.0
C1985 C 0.2089 0.31268 0.08568 0.0
C1986 C 0.20185 0.30408 0.1329 0.0
C1987 C 0.19904 0.31045 0.17999 0.0
C1988 C 0.20415 0.32581 0.1803 0.0
H1989 H 0.69178 0.88211 0.10659 0.0
H1990 H 0.66486 0.88913 0.22554 0.0
H1991 H 0.64741 0.88612 0.15034 0.0
H1992 H 0.68414 0.89862 0.98068 0.0
H1993 H 0.68311 0.88433 0.93574 0.0
H1994 H 0.69505 0.89013 -0.0042 0.0
H1995 H 0.6822 0.863 0.03093 0.0
H1996 H 0.6702 0.85713 0.9713 0.0
H1997 H 0.66246 0.85297 0.0405 0.0
H1998 H 0.63164 0.8796 0.06611 0.0
H1999 H 0.61747 0.86818 0.98074 0.0
H2000 H 0.65374 0.86367 0.91674 0.0
C2001 C 0.6825 0.88357 0.11611 0.0
C2002 C 0.67977 0.88622 0.17127 0.0
C2003 C 0.66718 0.88735 0.18319 0.0
C2004 C 0.65728 0.88571 0.14076 0.0
C2005 C 0.66005 0.88273 0.08689 0.0
C2006 C 0.6723 0.88158 0.07443 0.0
C2007 C 0.67157 0.87617 0.01525 0.0
C2008 C 0.68422 0.88802 0.97977 0.0
C2009 C 0.6716 0.86144 0.0145 0.0
C2010 C 0.65679 0.87405 -0.00303 0.0
C2011 C 0.65052 0.87823 0.03854 0.0
C2012 C 0.63651 0.87646 0.03298 0.0
C2013 C 0.62853 0.86991 0.98427 0.0
C2014 C 0.63448 0.86501 0.94188 0.0
C2015 C 0.64895 0.86745 0.94797 0.0
H2016 H 0.13585 0.79348 0.00202 0.0
H2017 H 0.09592 0.75429 0.9476 0.0
H2018 H 0.08175 0.75833 0.02182 0.0
H2019 H 0.12786 0.78698 0.14939 0.0
H2020 H 0.13628 0.80643 0.16523 0.0
H2021 H 0.14286 0.80046 0.10716 0.0
H2022 H 0.13843 0.8175 0.041 0.0
H2023 H 0.1319 0.82356 0.09884 0.0
H2024 H 0.12041 0.81569 0.0382 0.0
H2025 H 0.0719 0.76859 0.09793 0.0
H2026 H 0.06789 0.78218 0.17459 0.0
H2027 H 0.11506 0.81244 0.18403 0.0
C2028 C 0.1241 0.78578 0.00573 0.0
C2029 C 0.11685 0.77373 0.96896 0.0
C2030 C 0.10157 0.76365 0.97547 0.0
C2031 C 0.09349 0.76588 0.01735 0.0
C2032 C 0.101 0.77799 0.053 0.0
C2033 C 0.11604 0.78758 0.04808 0.0
C2034 C 0.12174 0.79944 0.09234 0.0
C2035 C 0.13284 0.79825 0.13081 0.0
C2036 C 0.12851 0.81496 0.06601 0.0
C2037 C 0.10754 0.79525 0.12256 0.0
C2038 C 0.09561 0.78299 0.09904 0.0
C2039 C 0.08121 0.77797 0.11744 0.0
C2040 C 0.07902 0.78572 0.16085 0.0
C2041 C 0.0912 0.79805 0.18601 0.0
C2042 C 0.10559 0.80272 0.16678 0.0
H2043 H 0.29828 0.17153 0.34172 0.0
H2044 H 0.28889 0.20727 0.32435 0.0
H2045 H 0.30937 0.2226 0.38951 0.0
H2046 H 0.30586 0.17658 0.48893 0.0
H2047 H 0.32003 0.17166 0.48565 0.0
H2048 H 0.30507 0.16392 0.43626 0.0
H2049 H 0.32384 0.17385 0.35466 0.0
H2050 H 0.33885 0.18157 0.40377 0.0
H2051 H 0.33749 0.19328 0.35171 0.0
H2052 H 0.33214 0.23443 0.45231 0.0
H2053 H 0.3535 0.24079 0.51419 0.0
H2054 H 0.34576 0.19614 0.49662 0.0
C2055 C 0.30061 0.18263 0.35134 0.0
C2056 C 0.29223 0.18837 0.32758 0.0
C2057 C 0.29531 0.20277 0.34207 0.0
C2058 C 0.30689 0.21152 0.37889 0.0
C2059 C 0.31499 0.20552 0.40165 0.0
C2060 C 0.31181 0.19131 0.38899 0.0
C2061 C 0.32167 0.18714 0.42054 0.0
C2062 C 0.31261 0.17405 0.4602 0.0
C2063 C 0.33101 0.18377 0.38026 0.0
C2064 C 0.33109 0.20131 0.45238 0.0
C2065 C 0.32724 0.21188 0.44056 0.0
C2066 C 0.33509 0.22616 0.46258 0.0
C2067 C 0.34718 0.22968 0.49752 0.0
C2068 C 0.35103 0.21886 0.51085 0.0
C2069 C 0.3428 0.20451 0.48822 0.0
H2070 H 0.75802 0.12408 0.41308 0.0
H2071 H 0.76235 0.10229 0.55942 0.0
H2072 H 0.76614 0.08527 0.49911 0.0
H2073 H 0.74174 0.09135 0.3149 0.0
H2074 H 0.75283 0.10276 0.25782 0.0
H2075 H 0.7467 0.11055 0.31125 0.0
H2076 H 0.77378 0.13105 0.32903 0.0
H2077 H 0.77999 0.12332 0.27605 0.0
H2078 H 0.78733 0.12584 0.34568 0.0
H2079 H 0.77262 0.07298 0.42427 0.0
H2080 H 0.78388 0.06814 0.34308 0.0
H2081 H 0.77752 0.09949 0.24532 0.0
C2082 C 0.7591 0.11526 0.4321 0.0
C2083 C 0.75942 0.11407 0.49057 0.0
C2084 C 0.76171 0.10304 0.51457 0.0
C2085 C 0.76383 0.09334 0.48063 0.0
C2086 C 0.76387 0.09503 0.42289 0.0
C2087 C 0.76166 0.1058 0.39878 0.0
C2088 C 0.76477 0.10706 0.33671 0.0
C2089 C 0.75067 0.10266 0.3032 0.0
C2090 C 0.77721 0.12274 0.321 0.0
C2091 C 0.76962 0.09572 0.32998 0.0
C2092 C 0.76857 0.08859 0.37982 0.0
C2093 C 0.7733 0.07835 0.38487 0.0
C2094 C 0.7797 0.07567 0.33836 0.0
C2095 C 0.78161 0.08344 0.28766 0.0
C2096 C 0.7761 0.09327 0.28323 0.0
H2097 H 0.87993 0.68226 0.26048 0.0
H2098 H 0.90735 0.72269 0.35312 0.0
H2099 H 0.90418 0.70799 0.43755 0.0
H2100 H 0.85409 0.66445 0.35948 0.0
H2101 H 0.85117 0.64612 0.34794 0.0
H2102 H 0.85783 0.65942 0.29216 0.0
H2103 H 0.88058 0.65617 0.28007 0.0
H2104 H 0.8739 0.6427 0.33567 0.0
H2105 H 0.89222 0.65864 0.3392 0.0
H2106 H 0.89347 0.68977 0.51521 0.0
H2107 H 0.87819 0.66873 0.57833 0.0
H2108 H 0.8595 0.63979 0.43581 0.0
C2109 C 0.8857 0.68799 0.298 0.0
C2110 C 0.89386 0.70364 0.30002 0.0
C2111 C 0.90108 0.71072 0.35025 0.0
C2112 C 0.89936 0.70246 0.39859 0.0
C2113 C 0.89068 0.6871 0.39585 0.0
C2114 C 0.88426 0.67989 0.34654 0.0
C2115 C 0.87445 0.66337 0.35593 0.0
C2116 C 0.85844 0.65804 0.33783 0.0
C2117 C 0.88067 0.65471 0.32594 0.0
C2118 C 0.87567 0.66258 0.41861 0.0
C2119 C 0.88516 0.67638 0.44085 0.0
C2120 C 0.88646 0.67881 0.49829 0.0
C2121 C 0.87773 0.66686 0.53381 0.0
C2122 C 0.86808 0.65267 0.5117 0.0
C2123 C 0.86729 0.65045 0.45355 0.0
H2124 H 0.78735 0.6911 0.86811 0.0
H2125 H 0.7615 0.66452 0.72846 0.0
H2126 H 0.74552 0.64416 0.793 0.0
H2127 H 0.78917 0.66288 0.93255 0.0
H2128 H 0.78856 0.66843 0.00313 0.0
H2129 H 0.79557 0.68204 0.94845 0.0
H2130 H 0.77653 0.68994 0.97439 0.0
H2131 H 0.76942 0.67627 0.0293 0.0
H2132 H 0.75716 0.67622 0.97652 0.0
H2133 H 0.73445 0.62582 0.87021 0.0
H2134 H 0.73098 0.60984 0.9511 0.0
H2135 H 0.76524 0.64773 0.04019 0.0
C2136 C 0.77796 0.68117 0.85168 0.0
C2137 C 0.77531 0.67938 0.79386 0.0
C2138 C 0.76344 0.66607 0.77294 0.0
C2139 C 0.75429 0.65453 0.80928 0.0
C2140 C 0.75734 0.65645 0.86624 0.0
C2141 C 0.76898 0.66941 0.88732 0.0
C2142 C 0.77145 0.66778 0.94852 0.0
C2143 C 0.78711 0.67043 0.95871 0.0
C2144 C 0.76846 0.67817 0.98429 0.0
C2145 C 0.75979 0.65173 0.958 0.0
C2146 C 0.75147 0.64554 0.91052 0.0
C2147 C 0.74074 0.63058 0.90788 0.0
C2148 C 0.73884 0.62159 0.95418 0.0
C2149 C 0.74785 0.62751 0.00208 0.0
C2150 C 0.75809 0.64289 0.00447 0.0
H2151 H 0.34818 0.15001 0.98133 0.0
H2152 H 0.35389 0.1123 0.0117 0.0
H2153 H 0.33382 0.09746 0.94414 0.0
H2154 H 0.30895 0.1306 0.96236 0.0
H2155 H 0.30967 0.14259 0.90682 0.0
H2156 H 0.32374 0.14961 0.95973 0.0
H2157 H 0.34383 0.15775 0.88326 0.0
H2158 H 0.3298 0.15062 0.83012 0.0
H2159 H 0.34289 0.14427 0.83413 0.0
H2160 H 0.31193 0.08658 0.87623 0.0
H2161 H 0.29191 0.08133 0.80877 0.0
H2162 H 0.30321 0.1273 0.81614 0.0
C2163 C 0.34505 0.13855 0.97437 0.0
C2164 C 0.35228 0.13213 0.00244 0.0
C2165 C 0.34828 0.11729 0.99096 0.0
C2166 C 0.33695 0.10883 0.9527 0.0
C2167 C 0.33008 0.11556 0.92537 0.0
C2168 C 0.33415 0.13016 0.93527 0.0
C2169 C 0.32572 0.13513 0.89863 0.0
C2170 C 0.31647 0.13975 0.934 0.0
C2171 C 0.33619 0.14769 0.8592 0.0
C2172 C 0.31605 0.12099 0.867 0.0
C2173 C 0.31854 0.10973 0.88335 0.0
C2174 C 0.31009 0.09538 0.86243 0.0
C2175 C 0.29878 0.0925 0.82419 0.0
C2176 C 0.29631 0.10399 0.80643 0.0
C2177 C 0.30518 0.11841 0.82775 0.0
H2178 H 0.87397 0.19101 0.74271 0.0
H2179 H 0.90807 0.18891 0.83797 0.0
H2180 H 0.9068 0.20532 0.90926 0.0
H2181 H 0.88537 0.2298 0.77615 0.0
H2182 H 0.86652 0.22572 0.77965 0.0
H2183 H 0.87144 0.21529 0.7336 0.0
H2184 H 0.8516 0.19087 0.78009 0.0
H2185 H 0.84668 0.20121 0.82633 0.0
H2186 H 0.8521 0.18865 0.85445 0.0
H2187 H 0.89957 0.2196 0.97526 0.0
H2188 H 0.88763 0.23109 0.02806 0.0
H2189 H 0.85876 0.22392 0.8874 0.0
C2190 C 0.88139 0.19419 0.778 0.0
C2191 C 0.89112 0.18867 0.78475 0.0
C2192 C 0.90058 0.19307 0.83175 0.0
C2193 C 0.89993 0.20238 0.87246 0.0
C2194 C 0.88991 0.20731 0.8651 0.0
C2195 C 0.88093 0.20347 0.81865 0.0
C2196 C 0.87047 0.20944 0.8218 0.0
C2197 C 0.87365 0.22073 0.77503 0.0
C2198 C 0.85426 0.19679 0.82063 0.0
C2199 C 0.87463 0.21686 0.87811 0.0
C2200 C 0.88593 0.21564 0.90244 0.0
C2201 C 0.8909 0.22084 0.95619 0.0
C2202 C 0.88404 0.22731 0.98589 0.0
C2203 C 0.87235 0.22849 0.96167 0.0
C2204 C 0.86781 0.22338 0.90681 0.0
H2205 H 0.67904 0.79101 0.62103 0.0
H2206 H 0.64678 0.76794 0.75126 0.0
H2207 H 0.62753 0.75471 0.67981 0.0
H2208 H 0.65603 0.7981 0.53997 0.0
H2209 H 0.66293 0.79617 0.47361 0.0
H2210 H 0.67467 0.80164 0.53393 0.0
H2211 H 0.67909 0.77962 0.51876 0.0
H2212 H 0.66733 0.77407 0.45819 0.0
H2213 H 0.66352 0.76107 0.51406 0.0
H2214 H 0.61149 0.7458 0.59546 0.0
H2215 H 0.5992 0.74355 0.50561 0.0
H2216 H 0.64162 0.77367 0.43008 0.0
C2217 C 0.66801 0.78281 0.63432 0.0
C2218 C 0.66439 0.78024 0.69145 0.0
C2219 C 0.64975 0.76991 0.70758 0.0
C2220 C 0.6388 0.76231 0.66732 0.0
C2221 C 0.64265 0.7653 0.61123 0.0
C2222 C 0.65689 0.77539 0.59468 0.0
C2223 C 0.65771 0.77807 0.53236 0.0
C2224 C 0.66315 0.79446 0.51923 0.0
C2225 C 0.66749 0.7729 0.50419 0.0
C2226 C 0.64165 0.76822 0.51664 0.0
C2227 C 0.63323 0.76069 0.56255 0.0
C2228 C 0.61798 0.75152 0.5591 0.0
C2229 C 0.6111 0.75031 0.50775 0.0
C2230 C 0.61943 0.75843 0.46063 0.0
C2231 C 0.63495 0.76722 0.46508 0.0
H2232 H 0.18594 0.88805 0.59441 0.0
H2233 H 0.21697 0.89213 0.72191 0.0
H2234 H 0.23129 0.88728 0.65154 0.0
H2235 H 0.18365 0.8574 0.53352 0.0
H2236 H 0.18169 0.86192 0.46267 0.0
H2237 H 0.1759 0.86905 0.51925 0.0
H2238 H 0.19297 0.89583 0.48359 0.0
H2239 H 0.19879 0.88876 0.42656 0.0
H2240 H 0.21232 0.90245 0.47277 0.0
H2241 H 0.24026 0.87897 0.57127 0.0
H2242 H 0.24231 0.86594 0.48956 0.0
H2243 H 0.20447 0.86563 0.4145 0.0
C2244 C 0.19611 0.88852 0.6067 0.0
C2245 C 0.20072 0.8909 0.66281 0.0
C2246 C 0.21357 0.89067 0.67865 0.0
C2247 C 0.22174 0.88796 0.63898 0.0
C2248 C 0.21675 0.88531 0.58396 0.0
C2249 C 0.20418 0.8855 0.56779 0.0
C2250 C 0.19993 0.88009 0.50836 0.0
C2251 C 0.18438 0.8663 0.50585 0.0
C2252 C 0.20108 0.89253 0.47059 0.0
C2253 C 0.21174 0.87633 0.49429 0.0
C2254 C 0.22153 0.87978 0.538 0.0
C2255 C 0.23278 0.87641 0.53649 0.0
C2256 C 0.23383 0.86896 0.48981 0.0
C2257 C 0.22355 0.86476 0.44544 0.0
C2258 C 0.21262 0.86887 0.44727 0.0
H2259 H 0.11897 0.35525 0.55049 0.0
H2260 H 0.09817 0.32554 0.41137 0.0
H2261 H 0.08325 0.30505 0.47706 0.0
H2262 H 0.12421 0.33045 0.62684 0.0
H2263 H 0.12139 0.33611 0.69443 0.0
H2264 H 0.12782 0.34906 0.63749 0.0
H2265 H 0.10584 0.35349 0.65184 0.0
H2266 H 0.09932 0.34049 0.70899 0.0
H2267 H 0.08725 0.33795 0.6513 0.0
H2268 H 0.07268 0.28743 0.55666 0.0
H2269 H 0.06946 0.27318 0.64238 0.0
H2270 H 0.09873 0.31391 0.73033 0.0
C2271 C 0.11086 0.34454 0.53412 0.0
C2272 C 0.10935 0.34196 0.47616 0.0
C2273 C 0.09922 0.3277 0.45577 0.0
C2274 C 0.09068 0.31606 0.49274 0.0
C2275 C 0.09261 0.31885 0.54988 0.0
C2276 C 0.10256 0.33272 0.57052 0.0
C2277 C 0.10429 0.33225 0.63311 0.0
C2278 C 0.12037 0.33726 0.64885 0.0
C2279 C 0.09885 0.3416 0.66307 0.0
C2280 C 0.09413 0.31588 0.64422 0.0
C2281 C 0.08717 0.30845 0.59589 0.0
C2282 C 0.07794 0.29314 0.59486 0.0
C2283 C 0.07619 0.28513 0.64395 0.0
C2284 C 0.08386 0.2924 0.69328 0.0
C2285 C 0.09259 0.30803 0.69359 0.0
H2286 H 0.0104 0.52945 0.86013 0.0
H2287 H 0.02264 0.57574 0.86214 0.0
H2288 H 0.00139 0.57005 0.8008 0.0
H2289 H 0.00121 0.52412 0.7164 0.0
H2290 H 0.98625 0.50535 0.72477 0.0
H2291 H 0.00151 0.51285 0.77278 0.0
H2292 H 0.98347 0.50652 0.85578 0.0
H2293 H 0.96813 0.49887 0.80806 0.0
H2294 H 0.97069 0.51328 0.85571 0.0
H2295 H 0.97829 0.55887 0.74028 0.0
H2296 H 0.95658 0.54357 0.68012 0.0
H2297 H 0.96156 0.50542 0.71101 0.0
C2298 C 0.00843 0.53833 0.84849 0.0
C2299 C 0.01792 0.55297 0.86652 0.0
C2300 C 0.01534 0.56442 0.84905 0.0
C2301 C 0.00333 0.56129 0.81432 0.0
C2302 C -0.00575 0.54672 0.79665 0.0
C2303 C -0.00322 0.53548 0.81275 0.0
C2304 C 0.98609 0.52097 0.78512 0.0
C2305 C -0.00574 0.51551 0.74754 0.0
C2306 C 0.97653 0.50922 0.82877 0.0
C2307 C 0.97708 0.52577 0.75113 0.0
C2308 C 0.98178 0.5406 0.75885 0.0
C2309 C 0.97463 0.5473 0.73345 0.0
C2310 C 0.96236 0.53856 0.69942 0.0
C2311 C 0.95764 0.52345 0.69027 0.0
C2312 C 0.96517 0.51706 0.71627 0.0
H2313 H 0.4309 0.45282 0.86506 0.0
H2314 H 0.40545 0.47012 0.78601 0.0
H2315 H 0.40731 0.4598 0.69606 0.0
H2316 H 0.45606 0.46166 0.76259 0.0
H2317 H 0.45769 0.44532 0.76748 0.0
H2318 H 0.45205 0.45154 0.82729 0.0
H2319 H 0.42823 0.42589 0.83554 0.0
H2320 H 0.43388 0.41951 0.77581 0.0
H2321 H 0.41612 0.41831 0.7763 0.0
H2322 H 0.41639 0.45239 0.6125 0.0
H2323 H 0.43 0.44624 0.54344 0.0
H2324 H 0.44805 0.43226 0.67731 0.0
C2325 C 0.4253 0.45402 0.82922 0.0
C2326 C 0.41803 0.46227 0.83259 0.0
C2327 C 0.41098 0.46374 0.7846 0.0
C2328 C 0.41199 0.45792 0.73324 0.0
C2329 C 0.41978 0.45038 0.73085 0.0
C2330 C 0.42604 0.44812 0.77787 0.0
C2331 C 0.43487 0.44075 0.76343 0.0
C2332 C 0.45112 0.4504 0.78123 0.0
C2333 C 0.42785 0.42519 0.7893 0.0
C2334 C 0.43328 0.43996 0.70068 0.0
C2335 C 0.42445 0.44547 0.68261 0.0
C2336 C 0.42292 0.4476 0.62612 0.0
C2337 C 0.43073 0.44415 0.58723 0.0
C2338 C 0.43981 0.43851 0.60509 0.0
C2339 C 0.4408 0.4361 0.66242 0.0
H2340 H 0.53319 0.98469 0.89208 0.0
H2341 H 0.52397 0.94483 0.80293 0.0
H2342 H 0.53591 0.95977 0.71898 0.0
H2343 H 0.52531 0.00151 0.78615 0.0
H2344 H 0.53985 0.02014 0.8006 0.0
H2345 H 0.53259 0.00668 0.85577 0.0
H2346 H 0.55886 0.01145 0.8772 0.0
H2347 H 0.56624 0.02501 0.82198 0.0
H2348 H 0.5696 0.00971 0.82228 0.0
H2349 H 0.54422 0.97816 0.64071 0.0
H2350 H 0.55047 -0.00086 0.57658 0.0
H2351 H 0.55652 0.02738 0.71783 0.0
C2352 C 0.53402 0.97915 0.85533 0.0
C2353 C 0.52764 0.9636 0.85405 0.0
C2354 C 0.52887 0.95675 0.80505 0.0
C2355 C 0.53564 0.96515 0.75711 0.0
C2356 C 0.54144 0.98042 0.75924 0.0
C2357 C 0.54098 0.9874 0.80745 0.0
C2358 C 0.54714 0.00381 0.79779 0.0
C2359 C 0.53553 0.00828 0.81082 0.0
C2360 C 0.56131 0.01304 0.83183 0.0
C2361 C 0.55046 0.00483 0.73603 0.0
C2362 C 0.54713 0.99122 0.7145 0.0
C2363 C 0.54738 0.98899 0.65727 0.0
C2364 C 0.55091 0.00091 0.62117 0.0
C2365 C 0.5544 0.0149 0.64261 0.0
C2366 C 0.5545 0.01693 0.70072 0.0
H2367 H 0.4442 0.99117 0.14692 0.0
H2368 H 0.44587 0.02898 0.2288 0.0
H2369 H 0.43541 0.01408 0.31389 0.0
H2370 H 0.4092 0.96221 0.21802 0.0
H2371 H 0.41597 0.94944 0.22161 0.0
H2372 H 0.42131 0.96235 0.16443 0.0
H2373 H 0.44882 0.97202 0.18733 0.0
H2374 H 0.4436 0.95933 0.24491 0.0
H2375 H 0.45563 0.9789 0.25631 0.0
H2376 H 0.42991 -0.00307 0.39515 0.0
H2377 H 0.42624 0.97737 0.4627 0.0
H2378 H 0.42609 0.95005 0.32678 0.0
C2379 C 0.44189 -0.00384 0.18209 0.0
C2380 C 0.44587 0.01125 0.18109 0.0
C2381 C 0.44282 0.01742 0.22827 0.0
C2382 C 0.43692 0.00905 0.27697 0.0
C2383 C 0.43377 -0.00559 0.27745 0.0
C2384 C 0.43577 0.98788 0.23075 0.0
C2385 C 0.43238 0.97226 0.24326 0.0
C2386 C 0.41891 0.96089 0.20985 0.0
C2387 C 0.44591 0.97054 0.23232 0.0
C2388 C 0.4289 0.97132 0.30486 0.0
C2389 C 0.42975 0.9842 0.32388 0.0
C2390 C 0.42873 0.98659 0.38051 0.0
C2391 C 0.42674 0.97551 0.41857 0.0
C2392 C 0.42558 0.96216 0.39964 0.0
C2393 C 0.42648 0.95999 0.34206 0.0
H2394 H 0.01299 0.44913 0.3324 0.0
H2395 H 0.03245 0.49272 0.25637 0.0
H2396 H 0.01029 0.4842 0.19784 0.0
H2397 H -0.005 0.42822 0.2054 0.0
H2398 H 0.97896 0.41443 0.24238 0.0
H2399 H -0.00335 0.42372 0.27662 0.0
H2400 H 0.98559 0.43193 0.35592 0.0
H2401 H 0.96788 0.42266 0.32202 0.0
H2402 H 0.97636 0.44205 0.33886 0.0
H2403 H 0.98534 0.47176 0.15393 0.0
H2404 H 0.95945 0.45576 0.1243 0.0
H2405 H 0.95656 0.41975 0.22421 0.0
C2406 C 0.01262 0.45683 0.30311 0.0
C2407 C 0.02442 0.47159 0.29898 0.0
C2408 C 0.02355 0.48135 0.26014 0.0
C2409 C 0.01102 0.47662 0.22668 0.0
C2410 C -0.00046 0.46204 0.232 0.0
C2411 C 0.00026 0.45223 0.26883 0.0
C2412 C 0.98623 0.43725 0.26715 0.0
C2413 C -0.0106 0.42519 0.24665 0.0
C2414 C 0.97856 0.43324 0.32438 0.0
C2415 C 0.97739 0.44028 0.22462 0.0
C2416 C 0.98529 0.45466 0.20491 0.0
C2417 C 0.97912 0.4604 0.16829 0.0
C2418 C 0.96442 0.45126 0.1518 0.0
C2419 C 0.95613 0.4365 0.17142 0.0
C2420 C 0.96278 0.43089 0.20762 0.0
H2421 H 0.55098 0.52331 0.21181 0.0
H2422 H 0.55687 0.55592 0.08751 0.0
H2423 H 0.55507 0.57155 0.16082 0.0
H2424 H 0.52297 0.52417 0.27879 0.0
H2425 H 0.52759 0.52143 0.34846 0.0
H2426 H 0.53319 0.51475 0.2899 0.0
H2427 H 0.56042 0.5298 0.32231 0.0
H2428 H 0.55488 0.53652 0.38132 0.0
H2429 H 0.56878 0.54944 0.33406 0.0
H2430 H 0.5489 0.58162 0.24343 0.0
H2431 H 0.53687 0.5845 0.32665 0.0
H2432 H 0.53338 0.54459 0.3974 0.0
C2433 C 0.55256 0.53407 0.20073 0.0
C2434 C 0.5545 0.53871 0.1446 0.0
C2435 C 0.55571 0.55242 0.13064 0.0
C2436 C 0.55474 0.56135 0.17201 0.0
C2437 C 0.55237 0.55629 0.22698 0.0
C2438 C 0.55124 0.54293 0.24145 0.0
C2439 C 0.5462 0.53886 0.30138 0.0
C2440 C 0.53163 0.52393 0.30478 0.0
C2441 C 0.5583 0.53865 0.33687 0.0
C2442 C 0.54405 0.55167 0.31755 0.0
C2443 C 0.54808 0.5618 0.27454 0.0
C2444 C 0.54594 0.5739 0.27775 0.0
C2445 C 0.53906 0.57543 0.32528 0.0
C2446 C 0.53418 0.56479 0.36877 0.0
C2447 C 0.53718 0.55304 0.36541 0.0
loop_
_geom_bond_atom_site_label_1
_geom_bond_atom_site_label_2
_geom_bond_distance
_geom_bond_site_symmetry_2
_ccdc_geom_bond_type
C0 O1 1.306 . S
C0 O3 1.160 . S
O1 C0 1.306 . S
O1 Cd2 2.228 . S
Cd2 O1 2.228 . S
Cd2 O6 2.273 . S
Cd2 O10 2.277 . S
O3 C0 1.160 . S
O3 Cd4 2.203 . S
Cd4 O3 2.203 . S
Cd4 O6 2.411 . S
Cd4 O7 2.333 . S
Cd4 O8 2.352 . S
Cd4 O12 2.277 . S
Cd4 O13 2.356 . S
C5 O10 1.209 . S
C5 O12 1.226 . S
O6 Cd2 2.273 . S
O6 Cd4 2.411 . S
O6 C9 1.320 . S
O7 Cd4 2.333 . S
O7 C9 1.214 . S
O8 Cd4 2.352 . S
O8 C11 1.258 . S
C9 O6 1.320 . S
C9 O7 1.214 . S
O10 Cd2 2.277 . S
O10 C5 1.209 . S
C11 O8 1.258 . S
C11 O13 1.282 . S
O12 Cd4 2.277 . S
O12 C5 1.226 . S
O13 Cd4 2.356 . S
O13 C11 1.282 . S
C14 O15 1.306 . S
C14 O17 1.160 . S
O15 C14 1.306 . S
O15 Cd16 2.228 . S
Cd16 O15 2.228 . S
Cd16 O20 2.273 . S
Cd16 O24 2.277 . S
O17 C14 1.160 . S
O17 Cd18 2.203 . S
Cd18 O17 2.203 . S
Cd18 O20 2.411 . S
Cd18 O21 2.333 . S
Cd18 O22 2.352 . S
Cd18 O26 2.277 . S
Cd18 O27 2.356 . S
C19 O24 1.209 . S
C19 O26 1.226 . S
O20 Cd16 2.273 . S
O20 Cd18 2.411 . S
O20 C23 1.320 . S
O21 Cd18 2.333 . S
O21 C23 1.214 . S
O22 Cd18 2.352 . S
O22 C25 1.258 . S
C23 O20 1.320 . S
C23 O21 1.214 . S
O24 Cd16 2.277 . S
O24 C19 1.209 . S
C25 O22 1.258 . S
C25 O27 1.282 . S
O26 Cd18 2.277 . S
O26 C19 1.226 . S
O27 Cd18 2.356 . S
O27 C25 1.282 . S
C28 O29 1.306 . S
C28 O31 1.160 . S
O29 C28 1.306 . S
O29 Cd30 2.228 . S
Cd30 O29 2.228 . S
Cd30 O34 2.273 . S
Cd30 O38 2.277 . S
O31 C28 1.160 . S
O31 Cd32 2.203 . S
Cd32 O31 2.203 . S
Cd32 O34 2.411 . S
Cd32 O35 2.333 . S
Cd32 O36 2.352 . S
Cd32 O40 2.277 . S
Cd32 O41 2.356 . S
C33 O38 1.209 . S
C33 O40 1.226 . S
O34 Cd30 2.273 . S
O34 Cd32 2.411 . S
O34 C37 1.320 . S
O35 Cd32 2.333 . S
O35 C37 1.214 . S
O36 Cd32 2.352 . S
O36 C39 1.258 . S
C37 O34 1.320 . S
C37 O35 1.214 . S
O38 Cd30 2.277 . S
O38 C33 1.209 . S
C39 O36 1.258 . S
C39 O41 1.282 . S
O40 Cd32 2.277 . S
O40 C33 1.226 . S
O41 Cd32 2.356 . S
O41 C39 1.282 . S
C42 O43 1.306 . S
C42 O45 1.160 . S
O43 C42 1.306 . S
O43 Cd44 2.228 . S
Cd44 O43 2.228 . S
Cd44 O48 2.273 . S
Cd44 O52 2.277 . S
O45 C42 1.160 . S
O45 Cd46 2.203 . S
Cd46 O45 2.203 . S
Cd46 O48 2.411 . S
Cd46 O49 2.333 . S
Cd46 O50 2.352 . S
Cd46 O54 2.277 . S
Cd46 O55 2.356 . S
C47 O52 1.209 . S
C47 O54 1.226 . S
O48 Cd44 2.273 . S
O48 Cd46 2.411 . S
O48 C51 1.320 . S
O49 Cd46 2.333 . S
O49 C51 1.214 . S
O50 Cd46 2.352 . S
O50 C53 1.258 . S
C51 O48 1.320 . S
C51 O49 1.214 . S
O52 Cd44 2.277 . S
O52 C47 1.209 . S
C53 O50 1.258 . S
C53 O55 1.282 . S
O54 Cd46 2.277 . S
O54 C47 1.226 . S
O55 Cd46 2.356 . S
O55 C53 1.282 . S
C56 O57 1.306 . S
C56 O59 1.160 . S
O57 C56 1.306 . S
O57 Cd58 2.228 . S
Cd58 O57 2.228 . S
Cd58 O62 2.273 . S
Cd58 O66 2.277 . S
O59 C56 1.160 . S
O59 Cd60 2.203 . S
Cd60 O59 2.203 . S
Cd60 O62 2.411 . S
Cd60 O63 2.333 . S
Cd60 O64 2.352 . S
Cd60 O68 2.277 . S
Cd60 O69 2.356 . S
C61 O66 1.209 . S
C61 O68 1.226 . S
O62 Cd58 2.273 . S
O62 Cd60 2.411 . S
O62 C65 1.320 . S
O63 Cd60 2.333 . S
O63 C65 1.214 . S
O64 Cd60 2.352 . S
O64 C67 1.258 . S
C65 O62 1.320 . S
C65 O63 1.214 . S
O66 Cd58 2.277 . S
O66 C61 1.209 . S
C67 O64 1.258 . S
C67 O69 1.282 . S
O68 Cd60 2.277 . S
O68 C61 1.226 . S
O69 Cd60 2.356 . S
O69 C67 1.282 . S
C70 O71 1.306 . S
C70 O73 1.160 . S
O71 C70 1.306 . S
O71 Cd72 2.228 . S
Cd72 O71 2.228 . S
Cd72 O76 2.273 . S
Cd72 O80 2.277 . S
O73 C70 1.160 . S
O73 Cd74 2.203 . S
Cd74 O73 2.203 . S
Cd74 O76 2.411 . S
Cd74 O77 2.333 . S
Cd74 O78 2.352 . S
Cd74 O82 2.277 . S
Cd74 O83 2.356 . S
C75 O80 1.209 . S
C75 O82 1.226 . S
O76 Cd72 2.273 . S
O76 Cd74 2.411 . S
O76 C79 1.320 . S
O77 Cd74 2.333 . S
O77 C79 1.214 . S
O78 Cd74 2.352 . S
O78 C81 1.258 . S
C79 O76 1.320 . S
C79 O77 1.214 . S
O80 Cd72 2.277 . S
O80 C75 1.209 . S
C81 O78 1.258 . S
C81 O83 1.282 . S
O82 Cd74 2.277 . S
O82 C75 1.226 . S
O83 Cd74 2.356 . S
O83 C81 1.282 . S
C84 O85 1.306 . S
C84 O87 1.160 . S
O85 C84 1.306 . S
O85 Cd86 2.228 . S
Cd86 O85 2.228 . S
Cd86 O90 2.273 . S
Cd86 O94 2.277 . S
O87 C84 1.160 . S
O87 Cd88 2.203 . S
Cd88 O87 2.203 . S
Cd88 O90 2.411 . S
Cd88 O91 2.333 . S
Cd88 O92 2.352 . S
Cd88 O96 2.277 . S
Cd88 O97 2.356 . S
C89 O94 1.209 . S
C89 O96 1.226 . S
O90 Cd86 2.273 . S
O90 Cd88 2.411 . S
O90 C93 1.320 . S
O91 Cd88 2.333 . S
O91 C93 1.214 . S
O92 Cd88 2.352 . S
O92 C95 1.258 . S
C93 O90 1.320 . S
C93 O91 1.214 . S
O94 Cd86 2.277 . S
O94 C89 1.209 . S
C95 O92 1.258 . S
C95 O97 1.282 . S
O96 Cd88 2.277 . S
O96 C89 1.226 . S
O97 Cd88 2.356 . S
O97 C95 1.282 . S
C98 O99 1.306 . S
C98 O101 1.160 . S
O99 C98 1.306 . S
O99 Cd100 2.228 . S
Cd100 O99 2.228 . S
Cd100 O104 2.273 . S
Cd100 O108 2.277 . S
O101 C98 1.160 . S
O101 Cd102 2.203 . S
Cd102 O101 2.203 . S
Cd102 O104 2.411 . S
Cd102 O105 2.333 . S
Cd102 O106 2.352 . S
Cd102 O110 2.277 . S
Cd102 O111 2.356 . S
C103 O108 1.209 . S
C103 O110 1.226 . S
O104 Cd100 2.273 . S
O104 Cd102 2.411 . S
O104 C107 1.320 . S
O105 Cd102 2.333 . S
O105 C107 1.214 . S
O106 Cd102 2.352 . S
O106 C109 1.258 . S
C107 O104 1.320 . S
C107 O105 1.214 . S
O108 Cd100 2.277 . S
O108 C103 1.209 . S
C109 O106 1.258 . S
C109 O111 1.282 . S
O110 Cd102 2.277 . S
O110 C103 1.226 . S
O111 Cd102 2.356 . S
O111 C109 1.282 . S
C112 O113 1.306 . S
C112 O115 1.160 . S
O113 C112 1.306 . S
O113 Cd114 2.228 . S
Cd114 O113 2.228 . S
Cd114 O118 2.273 . S
Cd114 O122 2.277 . S
O115 C112 1.160 . S
O115 Cd116 2.203 . S
Cd116 O115 2.203 . S
Cd116 O118 2.411 . S
Cd116 O119 2.333 . S
Cd116 O120 2.352 . S
Cd116 O124 2.277 . S
Cd116 O125 2.356 . S
C117 O122 1.209 . S
C117 O124 1.226 . S
O118 Cd114 2.273 . S
O118 Cd116 2.411 . S
O118 C121 1.320 . S
O119 Cd116 2.333 . S
O119 C121 1.214 . S
O120 Cd116 2.352 . S
O120 C123 1.258 . S
C121 O118 1.320 . S
C121 O119 1.214 . S
O122 Cd114 2.277 . S
O122 C117 1.209 . S
C123 O120 1.258 . S
C123 O125 1.282 . S
O124 Cd116 2.277 . S
O124 C117 1.226 . S
O125 Cd116 2.356 . S
O125 C123 1.282 . S
C126 O127 1.306 . S
C126 O129 1.160 . S
O127 C126 1.306 . S
O127 Cd128 2.228 . S
Cd128 O127 2.228 . S
Cd128 O132 2.273 . S
Cd128 O136 2.277 . S
O129 C126 1.160 . S
O129 Cd130 2.203 . S
Cd130 O129 2.203 . S
Cd130 O132 2.411 . S
Cd130 O133 2.333 . S
Cd130 O134 2.352 . S
Cd130 O138 2.277 . S
Cd130 O139 2.356 . S
C131 O136 1.209 . S
C131 O138 1.226 . S
O132 Cd128 2.273 . S
O132 Cd130 2.411 . S
O132 C135 1.320 . S
O133 Cd130 2.333 . S
O133 C135 1.214 . S
O134 Cd130 2.352 . S
O134 C137 1.258 . S
C135 O132 1.320 . S
C135 O133 1.214 . S
O136 Cd128 2.277 . S
O136 C131 1.209 . S
C137 O134 1.258 . S
C137 O139 1.282 . S
O138 Cd130 2.277 . S
O138 C131 1.226 . S
O139 Cd130 2.356 . S
O139 C137 1.282 . S
C140 O141 1.306 . S
C140 O143 1.160 . S
O141 C140 1.306 . S
O141 Cd142 2.228 . S
Cd142 O141 2.228 . S
Cd142 O146 2.273 . S
Cd142 O150 2.277 . S
O143 C140 1.160 . S
O143 Cd144 2.203 . S
Cd144 O143 2.203 . S
Cd144 O146 2.411 . S
Cd144 O147 2.333 . S
Cd144 O148 2.352 . S
Cd144 O152 2.277 . S
Cd144 O153 2.356 . S
C145 O150 1.209 . S
C145 O152 1.226 . S
O146 Cd142 2.273 . S
O146 Cd144 2.411 . S
O146 C149 1.320 . S
O147 Cd144 2.333 . S
O147 C149 1.214 . S
O148 Cd144 2.352 . S
O148 C151 1.258 . S
C149 O146 1.320 . S
C149 O147 1.214 . S
O150 Cd142 2.277 . S
O150 C145 1.209 . S
C151 O148 1.258 . S
C151 O153 1.282 . S
O152 Cd144 2.277 . S
O152 C145 1.226 . S
O153 Cd144 2.356 . S
O153 C151 1.282 . S
C154 O155 1.306 . S
C154 O157 1.160 . S
O155 C154 1.306 . S
O155 Cd156 2.228 . S
Cd156 O155 2.228 . S
Cd156 O160 2.273 . S
Cd156 O164 2.277 . S
O157 C154 1.160 . S
O157 Cd158 2.203 . S
Cd158 O157 2.203 . S
Cd158 O160 2.411 . S
Cd158 O161 2.333 . S
Cd158 O162 2.352 . S
Cd158 O166 2.277 . S
Cd158 O167 2.356 . S
C159 O164 1.209 . S
C159 O166 1.226 . S
O160 Cd156 2.273 . S
O160 Cd158 2.411 . S
O160 C163 1.320 . S
O161 Cd158 2.333 . S
O161 C163 1.214 . S
O162 Cd158 2.352 . S
O162 C165 1.258 . S
C163 O160 1.320 . S
C163 O161 1.214 . S
O164 Cd156 2.277 . S
O164 C159 1.209 . S
C165 O162 1.258 . S
C165 O167 1.282 . S
O166 Cd158 2.277 . S
O166 C159 1.226 . S
O167 Cd158 2.356 . S
O167 C165 1.282 . S
C168 O169 1.306 . S
C168 O171 1.160 . S
O169 C168 1.306 . S
O169 Cd170 2.228 . S
Cd170 O169 2.228 . S
Cd170 O174 2.273 . S
Cd170 O178 2.277 . S
O171 C168 1.160 . S
O171 Cd172 2.203 . S
Cd172 O171 2.203 . S
Cd172 O174 2.411 . S
Cd172 O175 2.333 . S
Cd172 O176 2.352 . S
Cd172 O180 2.277 . S
Cd172 O181 2.356 . S
C173 O178 1.209 . S
C173 O180 1.226 . S
O174 Cd170 2.273 . S
O174 Cd172 2.411 . S
O174 C177 1.320 . S
O175 Cd172 2.333 . S
O175 C177 1.214 . S
O176 Cd172 2.352 . S
O176 C179 1.258 . S
C177 O174 1.320 . S
C177 O175 1.214 . S
O178 Cd170 2.277 . S
O178 C173 1.209 . S
C179 O176 1.258 . S
C179 O181 1.282 . S
O180 Cd172 2.277 . S
O180 C173 1.226 . S
O181 Cd172 2.356 . S
O181 C179 1.282 . S
C182 O183 1.306 . S
C182 O185 1.160 . S
O183 C182 1.306 . S
O183 Cd184 2.228 . S
Cd184 O183 2.228 . S
Cd184 O188 2.273 . S
Cd184 O192 2.277 . S
O185 C182 1.160 . S
O185 Cd186 2.203 . S
Cd186 O185 2.203 . S
Cd186 O188 2.411 . S
Cd186 O189 2.333 . S
Cd186 O190 2.352 . S
Cd186 O194 2.277 . S
Cd186 O195 2.356 . S
C187 O192 1.209 . S
C187 O194 1.226 . S
O188 Cd184 2.273 . S
O188 Cd186 2.411 . S
O188 C191 1.320 . S
O189 Cd186 2.333 . S
O189 C191 1.214 . S
O190 Cd186 2.352 . S
O190 C193 1.258 . S
C191 O188 1.320 . S
C191 O189 1.214 . S
O192 Cd184 2.277 . S
O192 C187 1.209 . S
C193 O190 1.258 . S
C193 O195 1.282 . S
O194 Cd186 2.277 . S
O194 C187 1.226 . S
O195 Cd186 2.356 . S
O195 C193 1.282 . S
C196 O197 1.306 . S
C196 O199 1.160 . S
O197 C196 1.306 . S
O197 Cd198 2.228 . S
Cd198 O197 2.228 . S
Cd198 O202 2.273 . S
Cd198 O206 2.277 . S
O199 C196 1.160 . S
O199 Cd200 2.203 . S
Cd200 O199 2.203 . S
Cd200 O202 2.411 . S
Cd200 O203 2.333 . S
Cd200 O204 2.352 . S
Cd200 O208 2.277 . S
Cd200 O209 2.356 . S
C201 O206 1.209 . S
C201 O208 1.226 . S
O202 Cd198 2.273 . S
O202 Cd200 2.411 . S
O202 C205 1.320 . S
O203 Cd200 2.333 . S
O203 C205 1.214 . S
O204 Cd200 2.352 . S
O204 C207 1.258 . S
C205 O202 1.320 . S
C205 O203 1.214 . S
O206 Cd198 2.277 . S
O206 C201 1.209 . S
C207 O204 1.258 . S
C207 O209 1.282 . S
O208 Cd200 2.277 . S
O208 C201 1.226 . S
O209 Cd200 2.356 . S
O209 C207 1.282 . S
C210 O211 1.306 . S
C210 O213 1.160 . S
O211 C210 1.306 . S
O211 Cd212 2.228 . S
Cd212 O211 2.228 . S
Cd212 O216 2.273 . S
Cd212 O220 2.277 . S
O213 C210 1.160 . S
O213 Cd214 2.203 . S
Cd214 O213 2.203 . S
Cd214 O216 2.411 . S
Cd214 O217 2.333 . S
Cd214 O218 2.352 . S
Cd214 O222 2.277 . S
Cd214 O223 2.356 . S
C215 O220 1.209 . S
C215 O222 1.226 . S
O216 Cd212 2.273 . S
O216 Cd214 2.411 . S
O216 C219 1.320 . S
O217 Cd214 2.333 . S
O217 C219 1.214 . S
O218 Cd214 2.352 . S
O218 C221 1.258 . S
C219 O216 1.320 . S
C219 O217 1.214 . S
O220 Cd212 2.277 . S
O220 C215 1.209 . S
C221 O218 1.258 . S
C221 O223 1.282 . S
O222 Cd214 2.277 . S
O222 C215 1.226 . S
O223 Cd214 2.356 . S
O223 C221 1.282 . S
C224 O225 1.306 . S
C224 O227 1.160 . S
O225 C224 1.306 . S
O225 Cd226 2.228 . S
Cd226 O225 2.228 . S
Cd226 O230 2.273 . S
Cd226 O234 2.277 . S
O227 C224 1.160 . S
O227 Cd228 2.203 . S
Cd228 O227 2.203 . S
Cd228 O230 2.411 . S
Cd228 O231 2.333 . S
Cd228 O232 2.352 . S
Cd228 O236 2.277 . S
Cd228 O237 2.356 . S
C229 O234 1.209 . S
C229 O236 1.226 . S
O230 Cd226 2.273 . S
O230 Cd228 2.411 . S
O230 C233 1.320 . S
O231 Cd228 2.333 . S
O231 C233 1.214 . S
O232 Cd228 2.352 . S
O232 C235 1.258 . S
C233 O230 1.320 . S
C233 O231 1.214 . S
O234 Cd226 2.277 . S
O234 C229 1.209 . S
C235 O232 1.258 . S
C235 O237 1.282 . S
O236 Cd228 2.277 . S
O236 C229 1.226 . S
O237 Cd228 2.356 . S
O237 C235 1.282 . S
C238 O239 1.306 . S
C238 O241 1.160 . S
O239 C238 1.306 . S
O239 Cd240 2.228 . S
Cd240 O239 2.228 . S
Cd240 O244 2.273 . S
Cd240 O248 2.277 . S
O241 C238 1.160 . S
O241 Cd242 2.203 . S
Cd242 O241 2.203 . S
Cd242 O244 2.411 . S
Cd242 O245 2.333 . S
Cd242 O246 2.352 . S
Cd242 O250 2.277 . S
Cd242 O251 2.356 . S
C243 O248 1.209 . S
C243 O250 1.226 . S
O244 Cd240 2.273 . S
O244 Cd242 2.411 . S
O244 C247 1.320 . S
O245 Cd242 2.333 . S
O245 C247 1.214 . S
O246 Cd242 2.352 . S
O246 C249 1.258 . S
C247 O244 1.320 . S
C247 O245 1.214 . S
O248 Cd240 2.277 . S
O248 C243 1.209 . S
C249 O246 1.258 . S
C249 O251 1.282 . S
O250 Cd242 2.277 . S
O250 C243 1.226 . S
O251 Cd242 2.356 . S
O251 C249 1.282 . S
C252 O253 1.306 . S
C252 O255 1.160 . S
O253 C252 1.306 . S
O253 Cd254 2.228 . S
Cd254 O253 2.228 . S
Cd254 O258 2.273 . S
Cd254 O262 2.277 . S
O255 C252 1.160 . S
O255 Cd256 2.203 . S
Cd256 O255 2.203 . S
Cd256 O258 2.411 . S
Cd256 O259 2.333 . S
Cd256 O260 2.352 . S
Cd256 O264 2.277 . S
Cd256 O265 2.356 . S
C257 O262 1.209 . S
C257 O264 1.226 . S
O258 Cd254 2.273 . S
O258 Cd256 2.411 . S
O258 C261 1.320 . S
O259 Cd256 2.333 . S
O259 C261 1.214 . S
O260 Cd256 2.352 . S
O260 C263 1.258 . S
C261 O258 1.320 . S
C261 O259 1.214 . S
O262 Cd254 2.277 . S
O262 C257 1.209 . S
C263 O260 1.258 . S
C263 O265 1.282 . S
O264 Cd256 2.277 . S
O264 C257 1.226 . S
O265 Cd256 2.356 . S
O265 C263 1.282 . S
C266 O267 1.306 . S
C266 O269 1.160 . S
O267 C266 1.306 . S
O267 Cd268 2.228 . S
Cd268 O267 2.228 . S
Cd268 O272 2.273 . S
Cd268 O276 2.277 . S
O269 C266 1.160 . S
O269 Cd270 2.203 . S
Cd270 O269 2.203 . S
Cd270 O272 2.411 . S
Cd270 O273 2.333 . S
Cd270 O274 2.352 . S
Cd270 O278 2.277 . S
Cd270 O279 2.356 . S
C271 O276 1.209 . S
C271 O278 1.226 . S
O272 Cd268 2.273 . S
O272 Cd270 2.411 . S
O272 C275 1.320 . S
O273 Cd270 2.333 . S
O273 C275 1.214 . S
O274 Cd270 2.352 . S
O274 C277 1.258 . S
C275 O272 1.320 . S
C275 O273 1.214 . S
O276 Cd268 2.277 . S
O276 C271 1.209 . S
C277 O274 1.258 . S
C277 O279 1.282 . S
O278 Cd270 2.277 . S
O278 C271 1.226 . S
O279 Cd270 2.356 . S
O279 C277 1.282 . S
C280 O281 1.306 . S
C280 O283 1.160 . S
O281 C280 1.306 . S
O281 Cd282 2.228 . S
Cd282 O281 2.228 . S
Cd282 O286 2.273 . S
Cd282 O290 2.277 . S
O283 C280 1.160 . S
O283 Cd284 2.203 . S
Cd284 O283 2.203 . S
Cd284 O286 2.411 . S
Cd284 O287 2.333 . S
Cd284 O288 2.352 . S
Cd284 O292 2.277 . S
Cd284 O293 2.356 . S
C285 O290 1.209 . S
C285 O292 1.226 . S
O286 Cd282 2.273 . S
O286 Cd284 2.411 . S
O286 C289 1.320 . S
O287 Cd284 2.333 . S
O287 C289 1.214 . S
O288 Cd284 2.352 . S
O288 C291 1.258 . S
C289 O286 1.320 . S
C289 O287 1.214 . S
O290 Cd282 2.277 . S
O290 C285 1.209 . S
C291 O288 1.258 . S
C291 O293 1.282 . S
O292 Cd284 2.277 . S
O292 C285 1.226 . S
O293 Cd284 2.356 . S
O293 C291 1.282 . S
C294 O295 1.306 . S
C294 O297 1.160 . S
O295 C294 1.306 . S
O295 Cd296 2.228 1_556 S
Cd296 O295 2.228 1_554 S
Cd296 O300 2.273 . S
Cd296 O304 2.277 1_554 S
O297 C294 1.160 . S
O297 Cd298 2.203 . S
Cd298 O297 2.203 . S
Cd298 O300 2.411 1_556 S
Cd298 O301 2.333 1_556 S
Cd298 O302 2.352 1_556 S
Cd298 O306 2.277 . S
Cd298 O307 2.356 . S
C299 O304 1.209 . S
C299 O306 1.226 . S
O300 Cd296 2.273 . S
O300 Cd298 2.411 1_554 S
O300 C303 1.320 . S
O301 Cd298 2.333 1_554 S
O301 C303 1.214 . S
O302 Cd298 2.352 1_554 S
O302 C305 1.258 . S
C303 O300 1.320 . S
C303 O301 1.214 . S
O304 Cd296 2.277 1_556 S
O304 C299 1.209 . S
C305 O302 1.258 . S
C305 O307 1.282 1_554 S
O306 Cd298 2.277 . S
O306 C299 1.226 . S
O307 Cd298 2.356 . S
O307 C305 1.282 1_556 S
C308 O309 1.306 . S
C308 O311 1.160 . S
O309 C308 1.306 . S
O309 Cd310 2.228 1_556 S
Cd310 O309 2.228 1_554 S
Cd310 O314 2.273 . S
Cd310 O318 2.277 1_554 S
O311 C308 1.160 . S
O311 Cd312 2.203 . S
Cd312 O311 2.203 . S
Cd312 O314 2.411 1_556 S
Cd312 O315 2.333 1_556 S
Cd312 O316 2.352 1_556 S
Cd312 O320 2.277 . S
Cd312 O321 2.356 . S
C313 O318 1.209 . S
C313 O320 1.226 . S
O314 Cd310 2.273 . S
O314 Cd312 2.411 1_554 S
O314 C317 1.320 . S
O315 Cd312 2.333 1_554 S
O315 C317 1.214 . S
O316 Cd312 2.352 1_554 S
O316 C319 1.258 . S
C317 O314 1.320 . S
C317 O315 1.214 . S
O318 Cd310 2.277 1_556 S
O318 C313 1.209 . S
C319 O316 1.258 . S
C319 O321 1.282 1_554 S
O320 Cd312 2.277 . S
O320 C313 1.226 . S
O321 Cd312 2.356 . S
O321 C319 1.282 1_556 S
C322 O323 1.306 . S
C322 O325 1.160 . S
O323 C322 1.306 . S
O323 Cd324 2.228 1_556 S
Cd324 O323 2.228 1_554 S
Cd324 O328 2.273 . S
Cd324 O332 2.277 1_554 S
O325 C322 1.160 . S
O325 Cd326 2.203 . S
Cd326 O325 2.203 . S
Cd326 O328 2.411 1_556 S
Cd326 O329 2.333 1_556 S
Cd326 O330 2.352 1_556 S
Cd326 O334 2.277 . S
Cd326 O335 2.356 . S
C327 O332 1.209 . S
C327 O334 1.226 . S
O328 Cd324 2.273 . S
O328 Cd326 2.411 1_554 S
O328 C331 1.320 . S
O329 Cd326 2.333 1_554 S
O329 C331 1.214 . S
O330 Cd326 2.352 1_554 S
O330 C333 1.258 . S
C331 O328 1.320 . S
C331 O329 1.214 . S
O332 Cd324 2.277 1_556 S
O332 C327 1.209 . S
C333 O330 1.258 . S
C333 O335 1.282 1_554 S
O334 Cd326 2.277 . S
O334 C327 1.226 . S
O335 Cd326 2.356 . S
O335 C333 1.282 1_556 S
C336 O337 1.306 . S
C336 O339 1.160 . S
O337 C336 1.306 . S
O337 Cd338 2.228 . S
Cd338 O337 2.228 . S
Cd338 O342 2.273 . S
Cd338 O346 2.277 . S
O339 C336 1.160 . S
O339 Cd340 2.203 . S
Cd340 O339 2.203 . S
Cd340 O342 2.411 . S
Cd340 O343 2.333 . S
Cd340 O344 2.352 . S
Cd340 O348 2.277 . S
Cd340 O349 2.356 . S
C341 O346 1.209 . S
C341 O348 1.226 . S
O342 Cd338 2.273 . S
O342 Cd340 2.411 . S
O342 C345 1.320 . S
O343 Cd340 2.333 . S
O343 C345 1.214 . S
O344 Cd340 2.352 . S
O344 C347 1.258 . S
C345 O342 1.320 . S
C345 O343 1.214 . S
O346 Cd338 2.277 . S
O346 C341 1.209 . S
C347 O344 1.258 . S
C347 O349 1.282 . S
O348 Cd340 2.277 . S
O348 C341 1.226 . S
O349 Cd340 2.356 . S
O349 C347 1.282 . S
C350 O351 1.306 . S
C350 O353 1.160 . S
O351 C350 1.306 . S
O351 Cd352 2.228 . S
Cd352 O351 2.228 . S
Cd352 O356 2.273 . S
Cd352 O360 2.277 . S
O353 C350 1.160 . S
O353 Cd354 2.203 . S
Cd354 O353 2.203 . S
Cd354 O356 2.411 . S
Cd354 O357 2.333 . S
Cd354 O358 2.352 . S
Cd354 O362 2.277 . S
Cd354 O363 2.356 . S
C355 O360 1.209 . S
C355 O362 1.226 . S
O356 Cd352 2.273 . S
O356 Cd354 2.411 . S
O356 C359 1.320 . S
O357 Cd354 2.333 . S
O357 C359 1.214 . S
O358 Cd354 2.352 . S
O358 C361 1.258 . S
C359 O356 1.320 . S
C359 O357 1.214 . S
O360 Cd352 2.277 . S
O360 C355 1.209 . S
C361 O358 1.258 . S
C361 O363 1.282 . S
O362 Cd354 2.277 . S
O362 C355 1.226 . S
O363 Cd354 2.356 . S
O363 C361 1.282 . S
C364 O365 1.306 . S
C364 O367 1.160 . S
O365 C364 1.306 . S
O365 Cd366 2.228 . S
Cd366 O365 2.228 . S
Cd366 O370 2.273 . S
Cd366 O374 2.277 . S
O367 C364 1.160 . S
O367 Cd368 2.203 . S
Cd368 O367 2.203 . S
Cd368 O370 2.411 . S
Cd368 O371 2.333 . S
Cd368 O372 2.352 . S
Cd368 O376 2.277 . S
Cd368 O377 2.356 . S
C369 O374 1.209 . S
C369 O376 1.226 . S
O370 Cd366 2.273 . S
O370 Cd368 2.411 . S
O370 C373 1.320 . S
O371 Cd368 2.333 . S
O371 C373 1.214 . S
O372 Cd368 2.352 . S
O372 C375 1.258 . S
C373 O370 1.320 . S
C373 O371 1.214 . S
O374 Cd366 2.277 . S
O374 C369 1.209 . S
C375 O372 1.258 . S
C375 O377 1.282 . S
O376 Cd368 2.277 . S
O376 C369 1.226 . S
O377 Cd368 2.356 . S
O377 C375 1.282 . S
C378 O379 1.306 . S
C378 O381 1.160 . S
O379 C378 1.306 . S
O379 Cd380 2.228 1_554 S
Cd380 O379 2.228 1_556 S
Cd380 O384 2.273 . S
Cd380 O388 2.277 1_556 S
O381 C378 1.160 . S
O381 Cd382 2.203 . S
Cd382 O381 2.203 . S
Cd382 O384 2.411 1_554 S
Cd382 O385 2.333 1_554 S
Cd382 O386 2.352 1_554 S
Cd382 O390 2.277 . S
Cd382 O391 2.356 . S
C383 O388 1.209 . S
C383 O390 1.226 . S
O384 Cd380 2.273 . S
O384 Cd382 2.411 1_556 S
O384 C387 1.320 . S
O385 Cd382 2.333 1_556 S
O385 C387 1.214 . S
O386 Cd382 2.352 1_556 S
O386 C389 1.258 . S
C387 O384 1.320 . S
C387 O385 1.214 . S
O388 Cd380 2.277 1_554 S
O388 C383 1.209 . S
C389 O386 1.258 . S
C389 O391 1.282 1_556 S
O390 Cd382 2.277 . S
O390 C383 1.226 . S
O391 Cd382 2.356 . S
O391 C389 1.282 1_554 S
C392 O393 1.306 . S
C392 O395 1.160 . S
O393 C392 1.306 . S
O393 Cd394 2.228 1_554 S
Cd394 O393 2.228 1_556 S
Cd394 O398 2.273 . S
Cd394 O402 2.277 1_556 S
O395 C392 1.160 . S
O395 Cd396 2.203 . S
Cd396 O395 2.203 . S
Cd396 O398 2.411 1_554 S
Cd396 O399 2.333 1_554 S
Cd396 O400 2.352 1_554 S
Cd396 O404 2.277 . S
Cd396 O405 2.356 . S
C397 O402 1.209 . S
C397 O404 1.226 . S
O398 Cd394 2.273 . S
O398 Cd396 2.411 1_556 S
O398 C401 1.320 . S
O399 Cd396 2.333 1_556 S
O399 C401 1.214 . S
O400 Cd396 2.352 1_556 S
O400 C403 1.258 . S
C401 O398 1.320 . S
C401 O399 1.214 . S
O402 Cd394 2.277 1_554 S
O402 C397 1.209 . S
C403 O400 1.258 . S
C403 O405 1.282 1_556 S
O404 Cd396 2.277 . S
O404 C397 1.226 . S
O405 Cd396 2.356 . S
O405 C403 1.282 1_554 S
C406 O407 1.306 . S
C406 O409 1.160 . S
O407 C406 1.306 . S
O407 Cd408 2.228 1_554 S
Cd408 O407 2.228 1_556 S
Cd408 O412 2.273 . S
Cd408 O416 2.277 1_556 S
O409 C406 1.160 . S
O409 Cd410 2.203 . S
Cd410 O409 2.203 . S
Cd410 O412 2.411 1_554 S
Cd410 O413 2.333 1_554 S
Cd410 O414 2.352 1_554 S
Cd410 O418 2.277 . S
Cd410 O419 2.356 . S
C411 O416 1.209 . S
C411 O418 1.226 . S
O412 Cd408 2.273 . S
O412 Cd410 2.411 1_556 S
O412 C415 1.320 . S
O413 Cd410 2.333 1_556 S
O413 C415 1.214 . S
O414 Cd410 2.352 1_556 S
O414 C417 1.258 . S
C415 O412 1.320 . S
C415 O413 1.214 . S
O416 Cd408 2.277 1_554 S
O416 C411 1.209 . S
C417 O414 1.258 . S
C417 O419 1.282 1_556 S
O418 Cd410 2.277 . S
O418 C411 1.226 . S
O419 Cd410 2.356 . S
O419 C417 1.282 1_554 S
C420 O421 1.306 . S
C420 O423 1.160 . S
O421 C420 1.306 . S
O421 Cd422 2.228 . S
Cd422 O421 2.228 . S
Cd422 O426 2.273 . S
Cd422 O430 2.277 . S
O423 C420 1.160 . S
O423 Cd424 2.203 . S
Cd424 O423 2.203 . S
Cd424 O426 2.411 . S
Cd424 O427 2.333 . S
Cd424 O428 2.352 . S
Cd424 O432 2.277 . S
Cd424 O433 2.356 . S
C425 O430 1.209 . S
C425 O432 1.226 . S
O426 Cd422 2.273 . S
O426 Cd424 2.411 . S
O426 C429 1.320 . S
O427 Cd424 2.333 . S
O427 C429 1.214 . S
O428 Cd424 2.352 . S
O428 C431 1.258 . S
C429 O426 1.320 . S
C429 O427 1.214 . S
O430 Cd422 2.277 . S
O430 C425 1.209 . S
C431 O428 1.258 . S
C431 O433 1.282 . S
O432 Cd424 2.277 . S
O432 C425 1.226 . S
O433 Cd424 2.356 . S
O433 C431 1.282 . S
C434 O435 1.306 . S
C434 O437 1.160 . S
O435 C434 1.306 . S
O435 Cd436 2.228 . S
Cd436 O435 2.228 . S
Cd436 O440 2.273 . S
Cd436 O444 2.277 . S
O437 C434 1.160 . S
O437 Cd438 2.203 . S
Cd438 O437 2.203 . S
Cd438 O440 2.411 . S
Cd438 O441 2.333 . S
Cd438 O442 2.352 . S
Cd438 O446 2.277 . S
Cd438 O447 2.356 . S
C439 O444 1.209 . S
C439 O446 1.226 . S
O440 Cd436 2.273 . S
O440 Cd438 2.411 . S
O440 C443 1.320 . S
O441 Cd438 2.333 . S
O441 C443 1.214 . S
O442 Cd438 2.352 . S
O442 C445 1.258 . S
C443 O440 1.320 . S
C443 O441 1.214 . S
O444 Cd436 2.277 . S
O444 C439 1.209 . S
C445 O442 1.258 . S
C445 O447 1.282 . S
O446 Cd438 2.277 . S
O446 C439 1.226 . S
O447 Cd438 2.356 . S
O447 C445 1.282 . S
C448 O449 1.306 . S
C448 O451 1.160 . S
O449 C448 1.306 . S
O449 Cd450 2.228 . S
Cd450 O449 2.228 . S
Cd450 O454 2.273 . S
Cd450 O458 2.277 . S
O451 C448 1.160 . S
O451 Cd452 2.203 . S
Cd452 O451 2.203 . S
Cd452 O454 2.411 . S
Cd452 O455 2.333 . S
Cd452 O456 2.352 . S
Cd452 O460 2.277 . S
Cd452 O461 2.356 . S
C453 O458 1.209 . S
C453 O460 1.226 . S
O454 Cd450 2.273 . S
O454 Cd452 2.411 . S
O454 C457 1.320 . S
O455 Cd452 2.333 . S
O455 C457 1.214 . S
O456 Cd452 2.352 . S
O456 C459 1.258 . S
C457 O454 1.320 . S
C457 O455 1.214 . S
O458 Cd450 2.277 . S
O458 C453 1.209 . S
C459 O456 1.258 . S
C459 O461 1.282 . S
O460 Cd452 2.277 . S
O460 C453 1.226 . S
O461 Cd452 2.356 . S
O461 C459 1.282 . S
C462 O463 1.306 . S
C462 O465 1.160 . S
O463 C462 1.306 . S
O463 Cd464 2.228 . S
Cd464 O463 2.228 . S
Cd464 O468 2.273 . S
Cd464 O472 2.277 . S
O465 C462 1.160 . S
O465 Cd466 2.203 . S
Cd466 O465 2.203 . S
Cd466 O468 2.411 . S
Cd466 O469 2.333 . S
Cd466 O470 2.352 . S
Cd466 O474 2.277 . S
Cd466 O475 2.356 . S
C467 O472 1.209 . S
C467 O474 1.226 . S
O468 Cd464 2.273 . S
O468 Cd466 2.411 . S
O468 C471 1.320 . S
O469 Cd466 2.333 . S
O469 C471 1.214 . S
O470 Cd466 2.352 . S
O470 C473 1.258 . S
C471 O468 1.320 . S
C471 O469 1.214 . S
O472 Cd464 2.277 . S
O472 C467 1.209 . S
C473 O470 1.258 . S
C473 O475 1.282 . S
O474 Cd466 2.277 . S
O474 C467 1.226 . S
O475 Cd466 2.356 . S
O475 C473 1.282 . S
C476 O477 1.306 . S
C476 O479 1.160 . S
O477 C476 1.306 . S
O477 Cd478 2.228 . S
Cd478 O477 2.228 . S
Cd478 O482 2.273 . S
Cd478 O486 2.277 . S
O479 C476 1.160 . S
O479 Cd480 2.203 . S
Cd480 O479 2.203 . S
Cd480 O482 2.411 . S
Cd480 O483 2.333 . S
Cd480 O484 2.352 . S
Cd480 O488 2.277 . S
Cd480 O489 2.356 . S
C481 O486 1.209 . S
C481 O488 1.226 . S
O482 Cd478 2.273 . S
O482 Cd480 2.411 . S
O482 C485 1.320 . S
O483 Cd480 2.333 . S
O483 C485 1.214 . S
O484 Cd480 2.352 . S
O484 C487 1.258 . S
C485 O482 1.320 . S
C485 O483 1.214 . S
O486 Cd478 2.277 . S
O486 C481 1.209 . S
C487 O484 1.258 . S
C487 O489 1.282 . S
O488 Cd480 2.277 . S
O488 C481 1.226 . S
O489 Cd480 2.356 . S
O489 C487 1.282 . S
C490 O491 1.306 . S
C490 O493 1.160 . S
O491 C490 1.306 . S
O491 Cd492 2.228 . S
Cd492 O491 2.228 . S
Cd492 O496 2.273 . S
Cd492 O500 2.277 . S
O493 C490 1.160 . S
O493 Cd494 2.203 . S
Cd494 O493 2.203 . S
Cd494 O496 2.411 . S
Cd494 O497 2.333 . S
Cd494 O498 2.352 . S
Cd494 O502 2.277 . S
Cd494 O503 2.356 . S
C495 O500 1.209 . S
C495 O502 1.226 . S
O496 Cd492 2.273 . S
O496 Cd494 2.411 . S
O496 C499 1.320 . S
O497 Cd494 2.333 . S
O497 C499 1.214 . S
O498 Cd494 2.352 . S
O498 C501 1.258 . S
C499 O496 1.320 . S
C499 O497 1.214 . S
O500 Cd492 2.277 . S
O500 C495 1.209 . S
C501 O498 1.258 . S
C501 O503 1.282 . S
O502 Cd494 2.277 . S
O502 C495 1.226 . S
O503 Cd494 2.356 . S
O503 C501 1.282 . S
H504 C516 0.930 . S
H505 C518 0.930 . S
H506 C519 0.930 . S
H507 C523 0.959 . S
H508 C523 0.959 . S
H509 C523 0.961 . S
H510 C524 0.960 . S
H511 C524 0.961 . S
H512 C524 0.959 . S
H513 C527 0.929 . S
H514 C528 0.931 . S
H515 C530 0.930 . S
C516 H504 0.930 . S
C516 C517 1.399 . S
C516 C521 1.399 . S
C517 C516 1.399 . S
C517 C518 1.376 . S
C518 H505 0.930 . S
C518 C517 1.376 . S
C518 C519 1.388 . S
C519 H506 0.930 . S
C519 C518 1.388 . S
C519 C520 1.390 . S
C520 C519 1.390 . S
C520 C521 1.394 . S
C520 C526 1.465 . S
C521 C516 1.399 . S
C521 C520 1.394 . S
C521 C522 1.516 . S
C522 C521 1.516 . S
C522 C523 1.502 . S
C522 C524 1.561 . S
C522 C525 1.526 . S
C523 H507 0.959 . S
C523 H508 0.959 . S
C523 H509 0.961 . S
C523 C522 1.502 . S
C524 H510 0.960 . S
C524 H511 0.961 . S
C524 H512 0.959 . S
C524 C522 1.561 . S
C525 C522 1.526 . S
C525 C526 1.396 . S
C525 C530 1.390 . S
C526 C520 1.465 . S
C526 C525 1.396 . S
C526 C527 1.399 . S
C527 H513 0.929 . S
C527 C526 1.399 . S
C527 C528 1.385 . S
C528 H514 0.931 . S
C528 C527 1.385 . S
C528 C529 1.389 . S
C529 C528 1.389 . S
C529 C530 1.387 . S
C530 H515 0.930 . S
C530 C525 1.390 . S
C530 C529 1.387 . S
H531 C543 0.930 . S
H532 C545 0.930 . S
H533 C546 0.930 . S
H534 C550 0.959 . S
H535 C550 0.959 . S
H536 C550 0.961 . S
H537 C551 0.960 . S
H538 C551 0.961 . S
H539 C551 0.959 . S
H540 C554 0.929 . S
H541 C555 0.931 . S
H542 C557 0.930 . S
C543 H531 0.930 . S
C543 C544 1.399 . S
C543 C548 1.399 . S
C544 C543 1.399 . S
C544 C545 1.376 . S
C545 H532 0.930 . S
C545 C544 1.376 . S
C545 C546 1.388 . S
C546 H533 0.930 . S
C546 C545 1.388 . S
C546 C547 1.390 . S
C547 C546 1.390 . S
C547 C548 1.394 . S
C547 C553 1.465 1_545 S
C548 C543 1.399 . S
C548 C547 1.394 . S
C548 C549 1.516 . S
C549 C548 1.516 . S
C549 C550 1.502 . S
C549 C551 1.561 . S
C549 C552 1.526 1_545 S
C550 H534 0.959 . S
C550 H535 0.959 . S
C550 H536 0.961 . S
C550 C549 1.502 . S
C551 H537 0.960 . S
C551 H538 0.961 . S
C551 H539 0.959 . S
C551 C549 1.561 . S
C552 C549 1.526 1_565 S
C552 C553 1.396 . S
C552 C557 1.390 . S
C553 C547 1.465 1_565 S
C553 C552 1.396 . S
C553 C554 1.399 . S
C554 H540 0.929 . S
C554 C553 1.399 . S
C554 C555 1.385 . S
C555 H541 0.931 . S
C555 C554 1.385 . S
C555 C556 1.389 . S
C556 C555 1.389 . S
C556 C557 1.387 . S
C557 H542 0.930 . S
C557 C552 1.390 . S
C557 C556 1.387 . S
H558 C570 0.930 . S
H559 C572 0.930 . S
H560 C573 0.930 . S
H561 C577 0.959 1_455 S
H562 C577 0.959 1_455 S
H563 C577 0.961 . S
H564 C578 0.960 . S
H565 C578 0.961 . S
H566 C578 0.959 . S
H567 C581 0.929 . S
H568 C582 0.931 . S
H569 C584 0.930 . S
C570 H558 0.930 . S
C570 C571 1.399 . S
C570 C575 1.399 . S
C571 C570 1.399 . S
C571 C572 1.376 . S
C572 H559 0.930 . S
C572 C571 1.376 . S
C572 C573 1.388 . S
C573 H560 0.930 . S
C573 C572 1.388 . S
C573 C574 1.390 . S
C574 C573 1.390 . S
C574 C575 1.394 . S
C574 C580 1.465 1_655 S
C575 C570 1.399 . S
C575 C574 1.394 . S
C575 C576 1.516 . S
C576 C575 1.516 . S
C576 C577 1.502 . S
C576 C578 1.561 . S
C576 C579 1.526 1_655 S
C577 H561 0.959 1_655 S
C577 H562 0.959 1_655 S
C577 H563 0.961 . S
C577 C576 1.502 . S
C578 H564 0.960 . S
C578 H565 0.961 . S
C578 H566 0.959 . S
C578 C576 1.561 . S
C579 C576 1.526 1_455 S
C579 C580 1.396 . S
C579 C584 1.390 . S
C580 C574 1.465 1_455 S
C580 C579 1.396 . S
C580 C581 1.399 . S
C581 H567 0.929 . S
C581 C580 1.399 . S
C581 C582 1.385 . S
C582 H568 0.931 . S
C582 C581 1.385 . S
C582 C583 1.389 . S
C583 C582 1.389 . S
C583 C584 1.387 . S
C584 H569 0.930 . S
C584 C579 1.390 . S
C584 C583 1.387 . S
H585 C597 0.930 . S
H586 C599 0.930 . S
H587 C600 0.930 . S
H588 C604 0.959 . S
H589 C604 0.959 . S
H590 C604 0.961 . S
H591 C605 0.960 . S
H592 C605 0.961 . S
H593 C605 0.959 . S
H594 C608 0.929 . S
H595 C609 0.931 . S
H596 C611 0.930 . S
C597 H585 0.930 . S
C597 C598 1.399 . S
C597 C602 1.399 . S
C598 C597 1.399 . S
C598 C599 1.376 . S
C599 H586 0.930 . S
C599 C598 1.376 . S
C599 C600 1.388 . S
C600 H587 0.930 . S
C600 C599 1.388 . S
C600 C601 1.390 . S
C601 C600 1.390 . S
C601 C602 1.394 . S
C601 C607 1.465 . S
C602 C597 1.399 . S
C602 C601 1.394 . S
C602 C603 1.516 . S
C603 C602 1.516 . S
C603 C604 1.502 . S
C603 C605 1.561 . S
C603 C606 1.526 . S
C604 H588 0.959 . S
C604 H589 0.959 . S
C604 H590 0.961 . S
C604 C603 1.502 . S
C605 H591 0.960 . S
C605 H592 0.961 . S
C605 H593 0.959 . S
C605 C603 1.561 . S
C606 C603 1.526 . S
C606 C607 1.396 . S
C606 C611 1.390 . S
C607 C601 1.465 . S
C607 C606 1.396 . S
C607 C608 1.399 . S
C608 H594 0.929 . S
C608 C607 1.399 . S
C608 C609 1.385 . S
C609 H595 0.931 . S
C609 C608 1.385 . S
C609 C610 1.389 . S
C610 C609 1.389 . S
C610 C611 1.387 . S
C611 H596 0.930 . S
C611 C606 1.390 . S
C611 C610 1.387 . S
H612 C624 0.930 . S
H613 C626 0.930 . S
H614 C627 0.930 . S
H615 C631 0.959 . S
H616 C631 0.959 . S
H617 C631 0.961 . S
H618 C632 0.960 . S
H619 C632 0.961 . S
H620 C632 0.959 . S
H621 C635 0.929 . S
H622 C636 0.931 . S
H623 C638 0.930 . S
C624 H612 0.930 . S
C624 C625 1.399 . S
C624 C629 1.399 . S
C625 C624 1.399 . S
C625 C626 1.376 . S
C626 H613 0.930 . S
C626 C625 1.376 . S
C626 C627 1.388 . S
C627 H614 0.930 . S
C627 C626 1.388 . S
C627 C628 1.390 . S
C628 C627 1.390 . S
C628 C629 1.394 . S
C628 C634 1.465 1_545 S
C629 C624 1.399 . S
C629 C628 1.394 . S
C629 C630 1.516 . S
C630 C629 1.516 . S
C630 C631 1.502 . S
C630 C632 1.561 . S
C630 C633 1.526 1_545 S
C631 H615 0.959 . S
C631 H616 0.959 . S
C631 H617 0.961 . S
C631 C630 1.502 . S
C632 H618 0.960 . S
C632 H619 0.961 . S
C632 H620 0.959 . S
C632 C630 1.561 . S
C633 C630 1.526 1_565 S
C633 C634 1.396 . S
C633 C638 1.390 . S
C634 C628 1.465 1_565 S
C634 C633 1.396 . S
C634 C635 1.399 . S
C635 H621 0.929 . S
C635 C634 1.399 . S
C635 C636 1.385 . S
C636 H622 0.931 . S
C636 C635 1.385 . S
C636 C637 1.389 . S
C637 C636 1.389 . S
C637 C638 1.387 . S
C638 H623 0.930 . S
C638 C633 1.390 . S
C638 C637 1.387 . S
H639 C651 0.930 . S
H640 C653 0.930 . S
H641 C654 0.930 . S
H642 C658 0.959 . S
H643 C658 0.959 . S
H644 C658 0.967 . S
H645 C659 0.960 . S
H646 C659 0.961 . S
H647 C659 0.959 . S
H648 C662 0.929 . S
H649 C663 0.931 . S
H650 C665 0.930 . S
C651 H639 0.930 . S
C651 C652 1.399 . S
C651 C656 1.399 . S
C652 C651 1.399 . S
C652 C653 1.376 . S
C653 H640 0.930 . S
C653 C652 1.376 . S
C653 C654 1.388 . S
C654 H641 0.930 . S
C654 C653 1.388 . S
C654 C655 1.390 . S
C655 C654 1.390 . S
C655 C656 1.394 . S
C655 C661 1.465 1_455 S
C656 C651 1.399 . S
C656 C655 1.394 . S
C656 C657 1.516 1_455 S
C657 C656 1.516 1_655 S
C657 C658 1.502 . S
C657 C659 1.561 . S
C657 C660 1.526 . S
C658 H642 0.959 . S
C658 H643 0.959 . S
C658 H644 0.967 . S
C658 C657 1.502 . S
C659 H645 0.960 . S
C659 H646 0.961 . S
C659 H647 0.959 . S
C659 C657 1.561 . S
C660 C657 1.526 . S
C660 C661 1.396 . S
C660 C665 1.390 . S
C661 C655 1.465 1_655 S
C661 C660 1.396 . S
C661 C662 1.399 . S
C662 H648 0.929 . S
C662 C661 1.399 . S
C662 C663 1.385 . S
C663 H649 0.931 . S
C663 C662 1.385 . S
C663 C664 1.389 . S
C664 C663 1.389 . S
C664 C665 1.387 . S
C665 H650 0.930 . S
C665 C660 1.390 . S
C665 C664 1.387 . S
H666 C678 0.930 . S
H667 C680 0.930 . S
H668 C681 0.930 . S
H669 C685 0.959 . S
H670 C685 0.959 . S
H671 C685 0.961 . S
H672 C686 0.960 . S
H673 C686 0.961 . S
H674 C686 0.959 . S
H675 C689 0.929 . S
H676 C690 0.931 . S
H677 C692 0.930 . S
C678 H666 0.930 . S
C678 C679 1.399 . S
C678 C683 1.399 . S
C679 C678 1.399 . S
C679 C680 1.376 . S
C680 H667 0.930 . S
C680 C679 1.376 . S
C680 C681 1.388 . S
C681 H668 0.930 . S
C681 C680 1.388 . S
C681 C682 1.390 . S
C682 C681 1.390 . S
C682 C683 1.394 . S
C682 C688 1.465 . S
C683 C678 1.399 . S
C683 C682 1.394 . S
C683 C684 1.516 . S
C684 C683 1.516 . S
C684 C685 1.502 . S
C684 C686 1.561 . S
C684 C687 1.526 . S
C685 H669 0.959 . S
C685 H670 0.959 . S
C685 H671 0.961 . S
C685 C684 1.502 . S
C686 H672 0.960 . S
C686 H673 0.961 . S
C686 H674 0.959 . S
C686 C684 1.561 . S
C687 C684 1.526 . S
C687 C688 1.396 . S
C687 C692 1.390 . S
C688 C682 1.465 . S
C688 C687 1.396 . S
C688 C689 1.399 . S
C689 H675 0.929 . S
C689 C688 1.399 . S
C689 C690 1.385 . S
C690 H676 0.931 . S
C690 C689 1.385 . S
C690 C691 1.389 . S
C691 C690 1.389 . S
C691 C692 1.387 . S
C692 H677 0.930 . S
C692 C687 1.390 . S
C692 C691 1.387 . S
H693 C705 0.930 . S
H694 C707 0.930 . S
H695 C708 0.930 . S
H696 C712 0.959 . S
H697 C712 0.959 . S
H698 C712 0.961 . S
H699 C713 0.960 . S
H700 C713 0.961 . S
H701 C713 0.959 . S
H702 C716 0.929 . S
H703 C717 0.931 . S
H704 C719 0.930 . S
C705 H693 0.930 . S
C705 C706 1.399 . S
C705 C710 1.399 . S
C706 C705 1.399 . S
C706 C707 1.376 . S
C707 H694 0.930 . S
C707 C706 1.376 . S
C707 C708 1.388 . S
C708 H695 0.930 . S
C708 C707 1.388 . S
C708 C709 1.390 . S
C709 C708 1.390 . S
C709 C710 1.394 . S
C709 C715 1.465 . S
C710 C705 1.399 . S
C710 C709 1.394 . S
C710 C711 1.516 . S
C711 C710 1.516 . S
C711 C712 1.502 . S
C711 C713 1.561 . S
C711 C714 1.526 . S
C712 H696 0.959 . S
C712 H697 0.959 . S
C712 H698 0.961 . S
C712 C711 1.502 . S
C713 H699 0.960 . S
C713 H700 0.961 . S
C713 H701 0.959 . S
C713 C711 1.561 . S
C714 C711 1.526 . S
C714 C715 1.396 . S
C714 C719 1.390 . S
C715 C709 1.465 . S
C715 C714 1.396 . S
C715 C716 1.399 . S
C716 H702 0.929 . S
C716 C715 1.399 . S
C716 C717 1.385 . S
C717 H703 0.931 . S
C717 C716 1.385 . S
C717 C718 1.389 . S
C718 C717 1.389 . S
C718 C719 1.387 . S
C719 H704 0.930 . S
C719 C714 1.390 . S
C719 C718 1.387 . S
H720 C732 0.930 . S
H721 C734 0.930 . S
H722 C735 0.930 . S
H723 C739 0.959 . S
H724 C739 0.959 . S
H725 C739 0.961 . S
H726 C740 0.960 . S
H727 C740 0.961 . S
H728 C740 0.959 . S
H729 C743 0.929 . S
H730 C744 0.931 . S
H731 C746 0.930 . S
C732 H720 0.930 . S
C732 C733 1.399 . S
C732 C737 1.399 . S
C733 C732 1.399 . S
C733 C734 1.376 . S
C734 H721 0.930 . S
C734 C733 1.376 . S
C734 C735 1.388 . S
C735 H722 0.930 . S
C735 C734 1.388 . S
C735 C736 1.390 . S
C736 C735 1.390 . S
C736 C737 1.394 . S
C736 C742 1.465 . S
C737 C732 1.399 . S
C737 C736 1.394 . S
C737 C738 1.516 . S
C738 C737 1.516 . S
C738 C739 1.502 . S
C738 C740 1.561 . S
C738 C741 1.526 . S
C739 H723 0.959 . S
C739 H724 0.959 . S
C739 H725 0.961 . S
C739 C738 1.502 . S
C740 H726 0.960 . S
C740 H727 0.961 . S
C740 H728 0.959 . S
C740 C738 1.561 . S
C741 C738 1.526 . S
C741 C742 1.396 . S
C741 C746 1.390 . S
C742 C736 1.465 . S
C742 C741 1.396 . S
C742 C743 1.399 . S
C743 H729 0.929 . S
C743 C742 1.399 . S
C743 C744 1.385 . S
C744 H730 0.931 . S
C744 C743 1.385 . S
C744 C745 1.389 . S
C745 C744 1.389 . S
C745 C746 1.387 . S
C746 H731 0.930 . S
C746 C741 1.390 . S
C746 C745 1.387 . S
H747 C759 0.930 . S
H748 C761 0.930 . S
H749 C762 0.921 1_556 S
H750 C766 0.959 . S
H751 C766 0.959 . S
H752 C766 0.961 . S
H753 C767 0.960 . S
H754 C767 0.961 . S
H755 C767 0.959 . S
H756 C770 0.929 . S
H757 C771 0.931 . S
H758 C773 0.930 . S
C759 H747 0.930 . S
C759 C760 1.399 . S
C759 C764 1.399 . S
C760 C759 1.399 . S
C760 C761 1.376 . S
C761 H748 0.930 . S
C761 C760 1.376 . S
C761 C762 1.388 . S
C762 H749 0.921 1_554 S
C762 C761 1.388 . S
C762 C763 1.390 . S
C763 C762 1.390 . S
C763 C764 1.394 . S
C763 C769 1.465 . S
C764 C759 1.399 . S
C764 C763 1.394 . S
C764 C765 1.516 . S
C765 C764 1.516 . S
C765 C766 1.502 . S
C765 C767 1.561 . S
C765 C768 1.526 . S
C766 H750 0.959 . S
C766 H751 0.959 . S
C766 H752 0.961 . S
C766 C765 1.502 . S
C767 H753 0.960 . S
C767 H754 0.961 . S
C767 H755 0.959 . S
C767 C765 1.561 . S
C768 C765 1.526 . S
C768 C769 1.396 . S
C768 C773 1.390 . S
C769 C763 1.465 . S
C769 C768 1.396 . S
C769 C770 1.399 1_554 S
C770 H756 0.929 . S
C770 C769 1.399 1_556 S
C770 C771 1.385 . S
C771 H757 0.931 . S
C771 C770 1.385 . S
C771 C772 1.389 1_556 S
C772 C771 1.389 1_554 S
C772 C773 1.387 . S
C773 H758 0.930 . S
C773 C768 1.390 . S
C773 C772 1.387 . S
H774 C786 0.930 1_556 S
H775 C788 0.930 . S
H776 C789 0.930 . S
H777 C793 0.959 1_554 S
H778 C793 0.959 . S
H779 C793 0.961 . S
H780 C794 0.960 . S
H781 C794 0.961 . S
H782 C794 0.959 1_554 S
H783 C797 0.929 . S
H784 C798 0.931 . S
H785 C800 0.930 . S
C786 H774 0.930 1_554 S
C786 C787 1.399 . S
C786 C791 1.399 . S
C787 C786 1.399 . S
C787 C788 1.376 . S
C788 H775 0.930 . S
C788 C787 1.376 . S
C788 C789 1.388 . S
C789 H776 0.930 . S
C789 C788 1.388 . S
C789 C790 1.390 . S
C790 C789 1.390 . S
C790 C791 1.394 . S
C790 C796 1.465 . S
C791 C786 1.399 . S
C791 C790 1.394 . S
C791 C792 1.516 . S
C792 C791 1.516 . S
C792 C793 1.502 1_554 S
C792 C794 1.561 1_554 S
C792 C795 1.526 . S
C793 H777 0.959 1_556 S
C793 H778 0.959 . S
C793 H779 0.961 . S
C793 C792 1.502 1_556 S
C794 H780 0.960 . S
C794 H781 0.961 . S
C794 H782 0.959 1_556 S
C794 C792 1.561 1_556 S
C795 C792 1.526 . S
C795 C796 1.396 . S
C795 C800 1.390 . S
C796 C790 1.465 . S
C796 C795 1.396 . S
C796 C797 1.399 . S
C797 H783 0.929 . S
C797 C796 1.399 . S
C797 C798 1.385 . S
C798 H784 0.931 . S
C798 C797 1.385 . S
C798 C799 1.389 . S
C799 C798 1.389 . S
C799 C800 1.387 . S
C800 H785 0.930 . S
C800 C795 1.390 . S
C800 C799 1.387 . S
H801 C813 0.930 . S
H802 C815 0.930 . S
H803 C816 0.930 . S
H804 C820 0.959 . S
H805 C820 0.959 . S
H806 C820 0.961 . S
H807 C821 0.960 . S
H808 C821 0.961 . S
H809 C821 0.959 . S
H810 C824 0.929 1_556 S
H811 C825 0.942 . S
H812 C827 0.930 . S
C813 H801 0.930 . S
C813 C814 1.399 . S
C813 C818 1.399 . S
C814 C813 1.399 . S
C814 C815 1.376 . S
C815 H802 0.930 . S
C815 C814 1.376 . S
C815 C816 1.388 . S
C816 H803 0.930 . S
C816 C815 1.388 . S
C816 C817 1.390 . S
C817 C816 1.390 . S
C817 C818 1.394 . S
C817 C823 1.465 . S
C818 C813 1.399 . S
C818 C817 1.394 . S
C818 C819 1.516 . S
C819 C818 1.516 . S
C819 C820 1.502 . S
C819 C821 1.561 . S
C819 C822 1.526 . S
C820 H804 0.959 . S
C820 H805 0.959 . S
C820 H806 0.961 . S
C820 C819 1.502 . S
C821 H807 0.960 . S
C821 H808 0.961 . S
C821 H809 0.959 . S
C821 C819 1.561 . S
C822 C819 1.526 . S
C822 C823 1.396 . S
C822 C827 1.390 . S
C823 C817 1.465 . S
C823 C822 1.396 . S
C823 C824 1.399 . S
C824 H810 0.929 1_554 S
C824 C823 1.399 . S
C824 C825 1.384 1_554 S
C825 H811 0.942 . S
C825 C824 1.384 1_556 S
C825 C826 1.380 1_556 S
C826 C825 1.380 1_554 S
C826 C827 1.387 . S
C827 H812 0.930 . S
C827 C822 1.390 . S
C827 C826 1.387 . S
H828 C840 0.930 . S
H829 C842 0.930 . S
H830 C843 0.930 . S
H831 C847 0.959 . S
H832 C847 0.959 . S
H833 C847 0.961 . S
H834 C848 0.960 . S
H835 C848 0.961 . S
H836 C848 0.959 . S
H837 C851 0.929 1_554 S
H838 C852 0.931 . S
H839 C854 0.930 . S
C840 H828 0.930 . S
C840 C841 1.399 . S
C840 C845 1.399 . S
C841 C840 1.399 . S
C841 C842 1.376 . S
C842 H829 0.930 . S
C842 C841 1.376 . S
C842 C843 1.388 . S
C843 H830 0.930 . S
C843 C842 1.388 . S
C843 C844 1.390 . S
C844 C843 1.390 . S
C844 C845 1.394 . S
C844 C850 1.465 . S
C845 C840 1.399 . S
C845 C844 1.394 . S
C845 C846 1.516 . S
C846 C845 1.516 . S
C846 C847 1.502 . S
C846 C848 1.561 . S
C846 C849 1.526 . S
C847 H831 0.959 . S
C847 H832 0.959 . S
C847 H833 0.961 . S
C847 C846 1.502 . S
C848 H834 0.960 . S
C848 H835 0.961 . S
C848 H836 0.959 . S
C848 C846 1.561 . S
C849 C846 1.526 . S
C849 C850 1.396 . S
C849 C854 1.390 . S
C850 C844 1.465 . S
C850 C849 1.396 . S
C850 C851 1.399 . S
C851 H837 0.929 1_556 S
C851 C850 1.399 . S
C851 C852 1.385 1_556 S
C852 H838 0.931 . S
C852 C851 1.385 1_554 S
C852 C853 1.389 1_554 S
C853 C852 1.389 1_556 S
C853 C854 1.387 . S
C854 H839 0.930 . S
C854 C849 1.390 . S
C854 C853 1.387 . S
H855 C867 0.930 . S
H856 C869 0.930 . S
H857 C870 0.930 . S
H858 C874 0.959 . S
H859 C874 0.959 . S
H860 C874 0.961 . S
H861 C875 0.960 . S
H862 C875 0.961 . S
H863 C875 0.959 . S
H864 C878 0.929 1_554 S
H865 C879 0.931 1_554 S
H866 C881 0.930 . S
C867 H855 0.930 . S
C867 C868 1.399 . S
C867 C872 1.399 . S
C868 C867 1.399 . S
C868 C869 1.376 . S
C869 H856 0.930 . S
C869 C868 1.376 . S
C869 C870 1.388 . S
C870 H857 0.930 . S
C870 C869 1.388 . S
C870 C871 1.390 . S
C871 C870 1.390 . S
C871 C872 1.394 . S
C871 C877 1.465 . S
C872 C867 1.399 . S
C872 C871 1.394 . S
C872 C873 1.516 . S
C873 C872 1.516 . S
C873 C874 1.502 . S
C873 C875 1.561 . S
C873 C876 1.526 . S
C874 H858 0.959 . S
C874 H859 0.959 . S
C874 H860 0.961 . S
C874 C873 1.502 . S
C875 H861 0.960 . S
C875 H862 0.961 . S
C875 H863 0.959 . S
C875 C873 1.561 . S
C876 C873 1.526 . S
C876 C877 1.396 . S
C876 C881 1.390 . S
C877 C871 1.465 . S
C877 C876 1.396 . S
C877 C878 1.399 . S
C878 H864 0.929 1_556 S
C878 C877 1.399 . S
C878 C879 1.385 . S
C879 H865 0.931 1_556 S
C879 C878 1.385 . S
C879 C880 1.389 . S
C880 C879 1.389 . S
C880 C881 1.387 . S
C881 H866 0.930 . S
C881 C876 1.390 . S
C881 C880 1.387 . S
H882 C894 0.930 . S
H883 C896 0.930 1_554 S
H884 C897 0.930 . S
H885 C901 0.959 . S
H886 C901 0.959 . S
H887 C901 0.961 . S
H888 C902 0.960 . S
H889 C902 0.961 . S
H890 C902 0.959 . S
H891 C905 0.929 . S
H892 C906 0.931 . S
H893 C908 0.930 . S
C894 H882 0.930 . S
C894 C895 1.399 . S
C894 C899 1.399 . S
C895 C894 1.399 . S
C895 C896 1.376 . S
C896 H883 0.930 1_556 S
C896 C895 1.376 . S
C896 C897 1.388 . S
C897 H884 0.930 . S
C897 C896 1.388 . S
C897 C898 1.390 . S
C898 C897 1.390 . S
C898 C899 1.394 . S
C898 C904 1.465 . S
C899 C894 1.399 . S
C899 C898 1.394 . S
C899 C900 1.516 . S
C900 C899 1.516 . S
C900 C901 1.502 . S
C900 C902 1.561 . S
C900 C903 1.526 . S
C901 H885 0.959 . S
C901 H886 0.959 . S
C901 H887 0.961 . S
C901 C900 1.502 . S
C902 H888 0.960 . S
C902 H889 0.961 . S
C902 H890 0.959 . S
C902 C900 1.561 . S
C903 C900 1.526 . S
C903 C904 1.396 . S
C903 C908 1.390 . S
C904 C898 1.465 . S
C904 C903 1.396 . S
C904 C905 1.399 . S
C905 H891 0.929 . S
C905 C904 1.399 . S
C905 C906 1.385 . S
C906 H892 0.931 . S
C906 C905 1.385 . S
C906 C907 1.389 . S
C907 C906 1.389 . S
C907 C908 1.387 . S
C908 H893 0.930 . S
C908 C903 1.390 . S
C908 C907 1.387 . S
H909 C921 0.930 . S
H910 C923 0.930 . S
H911 C924 0.930 . S
H912 C928 0.959 . S
H913 C928 0.959 . S
H914 C928 0.961 . S
H915 C929 0.960 . S
H916 C929 0.961 . S
H917 C929 0.959 . S
H918 C932 0.929 . S
H919 C933 0.931 . S
H920 C935 0.930 . S
C921 H909 0.930 . S
C921 C922 1.399 . S
C921 C926 1.399 . S
C922 C921 1.399 . S
C922 C923 1.376 . S
C923 H910 0.930 . S
C923 C922 1.376 . S
C923 C924 1.388 . S
C924 H911 0.930 . S
C924 C923 1.388 . S
C924 C925 1.390 . S
C925 C924 1.390 . S
C925 C926 1.394 . S
C925 C931 1.465 . S
C926 C921 1.399 . S
C926 C925 1.394 . S
C926 C927 1.516 . S
C927 C926 1.516 . S
C927 C928 1.502 . S
C927 C929 1.561 . S
C927 C930 1.526 . S
C928 H912 0.959 . S
C928 H913 0.959 . S
C928 H914 0.961 . S
C928 C927 1.502 . S
C929 H915 0.960 . S
C929 H916 0.961 . S
C929 H917 0.959 . S
C929 C927 1.561 . S
C930 C927 1.526 . S
C930 C931 1.396 . S
C930 C935 1.390 . S
C931 C925 1.465 . S
C931 C930 1.396 . S
C931 C932 1.399 . S
C932 H918 0.929 . S
C932 C931 1.399 . S
C932 C933 1.385 . S
C933 H919 0.931 . S
C933 C932 1.385 . S
C933 C934 1.389 . S
C934 C933 1.389 . S
C934 C935 1.387 . S
C935 H920 0.930 . S
C935 C930 1.390 . S
C935 C934 1.387 . S
H936 C948 0.930 . S
H937 C950 0.930 . S
H938 C951 0.930 . S
H939 C955 0.959 . S
H940 C955 0.959 . S
H941 C955 0.961 . S
H942 C956 0.960 . S
H943 C956 0.961 . S
H944 C956 0.959 . S
H945 C959 0.929 . S
H946 C960 0.931 . S
H947 C962 0.930 . S
C948 H936 0.930 . S
C948 C949 1.399 . S
C948 C953 1.399 . S
C949 C948 1.399 . S
C949 C950 1.376 . S
C950 H937 0.930 . S
C950 C949 1.376 . S
C950 C951 1.388 . S
C951 H938 0.930 . S
C951 C950 1.388 . S
C951 C952 1.390 . S
C952 C951 1.390 . S
C952 C953 1.394 . S
C952 C958 1.465 . S
C953 C948 1.399 . S
C953 C952 1.394 . S
C953 C954 1.516 . S
C954 C953 1.516 . S
C954 C955 1.502 . S
C954 C956 1.561 . S
C954 C957 1.526 . S
C955 H939 0.959 . S
C955 H940 0.959 . S
C955 H941 0.961 . S
C955 C954 1.502 . S
C956 H942 0.960 . S
C956 H943 0.961 . S
C956 H944 0.959 . S
C956 C954 1.561 . S
C957 C954 1.526 . S
C957 C958 1.396 . S
C957 C962 1.390 . S
C958 C952 1.465 . S
C958 C957 1.396 . S
C958 C959 1.399 . S
C959 H945 0.929 . S
C959 C958 1.399 . S
C959 C960 1.385 . S
C960 H946 0.931 . S
C960 C959 1.385 . S
C960 C961 1.389 . S
C961 C960 1.389 . S
C961 C962 1.387 . S
C962 H947 0.930 . S
C962 C957 1.390 . S
C962 C961 1.387 . S
H963 C975 0.930 . S
H964 C977 0.930 . S
H965 C978 0.930 . S
H966 C982 0.959 . S
H967 C982 0.959 . S
H968 C982 0.961 . S
H969 C983 0.960 . S
H970 C983 0.961 . S
H971 C983 0.959 . S
H972 C986 0.929 . S
H973 C987 0.931 . S
H974 C989 0.930 . S
C975 H963 0.930 . S
C975 C976 1.399 . S
C975 C980 1.399 . S
C976 C975 1.399 . S
C976 C977 1.376 . S
C977 H964 0.930 . S
C977 C976 1.376 . S
C977 C978 1.388 . S
C978 H965 0.930 . S
C978 C977 1.388 . S
C978 C979 1.390 . S
C979 C978 1.390 . S
C979 C980 1.394 . S
C979 C985 1.465 . S
C980 C975 1.399 . S
C980 C979 1.394 . S
C980 C981 1.516 . S
C981 C980 1.516 . S
C981 C982 1.502 . S
C981 C983 1.561 . S
C981 C984 1.526 . S
C982 H966 0.959 . S
C982 H967 0.959 . S
C982 H968 0.961 . S
C982 C981 1.502 . S
C983 H969 0.960 . S
C983 H970 0.961 . S
C983 H971 0.959 . S
C983 C981 1.561 . S
C984 C981 1.526 . S
C984 C985 1.396 . S
C984 C989 1.390 . S
C985 C979 1.465 . S
C985 C984 1.396 . S
C985 C986 1.399 . S
C986 H972 0.929 . S
C986 C985 1.399 . S
C986 C987 1.385 . S
C987 H973 0.931 . S
C987 C986 1.385 . S
C987 C988 1.389 . S
C988 C987 1.389 . S
C988 C989 1.387 . S
C989 H974 0.930 . S
C989 C984 1.390 . S
C989 C988 1.387 . S
H990 C1002 0.930 . S
H991 C1004 0.930 . S
H992 C1005 0.930 . S
H993 C1009 0.959 . S
H994 C1009 0.959 . S
H995 C1009 0.961 . S
H996 C1010 0.960 . S
H997 C1010 0.961 . S
H998 C1010 0.959 . S
H999 C1013 0.929 . S
H1000 C1014 0.931 . S
H1001 C1016 0.930 . S
C1002 H990 0.930 . S
C1002 C1003 1.399 . S
C1002 C1007 1.399 . S
C1003 C1002 1.399 . S
C1003 C1004 1.376 . S
C1004 H991 0.930 . S
C1004 C1003 1.376 . S
C1004 C1005 1.388 . S
C1005 H992 0.930 . S
C1005 C1004 1.388 . S
C1005 C1006 1.390 . S
C1006 C1005 1.390 . S
C1006 C1007 1.394 . S
C1006 C1012 1.465 . S
C1007 C1002 1.399 . S
C1007 C1006 1.394 . S
C1007 C1008 1.516 . S
C1008 C1007 1.516 . S
C1008 C1009 1.502 . S
C1008 C1010 1.561 . S
C1008 C1011 1.526 . S
C1009 H993 0.959 . S
C1009 H994 0.959 . S
C1009 H995 0.961 . S
C1009 C1008 1.502 . S
C1010 H996 0.960 . S
C1010 H997 0.961 . S
C1010 H998 0.959 . S
C1010 C1008 1.561 . S
C1011 C1008 1.526 . S
C1011 C1012 1.396 . S
C1011 C1016 1.390 . S
C1012 C1006 1.465 . S
C1012 C1011 1.396 . S
C1012 C1013 1.399 . S
C1013 H999 0.929 . S
C1013 C1012 1.399 . S
C1013 C1014 1.385 1_556 S
C1014 H1000 0.931 . S
C1014 C1013 1.385 1_554 S
C1014 C1015 1.389 . S
C1015 C1014 1.389 . S
C1015 C1016 1.387 1_554 S
C1016 H1001 0.930 . S
C1016 C1011 1.390 . S
C1016 C1015 1.387 1_556 S
H1017 C1029 0.930 . S
H1018 C1031 0.930 . S
H1019 C1032 0.930 . S
H1020 C1036 0.959 . S
H1021 C1036 0.959 . S
H1022 C1036 0.961 . S
H1023 C1037 0.960 . S
H1024 C1037 0.961 . S
H1025 C1037 0.959 . S
H1026 C1040 0.929 . S
H1027 C1041 0.931 . S
H1028 C1043 0.930 . S
C1029 H1017 0.930 . S
C1029 C1030 1.399 1_556 S
C1029 C1034 1.399 . S
C1030 C1029 1.399 1_554 S
C1030 C1031 1.376 . S
C1031 H1018 0.930 . S
C1031 C1030 1.376 . S
C1031 C1032 1.388 1_554 S
C1032 H1019 0.930 . S
C1032 C1031 1.388 1_556 S
C1032 C1033 1.390 . S
C1033 C1032 1.390 . S
C1033 C1034 1.394 . S
C1033 C1039 1.465 . S
C1034 C1029 1.399 . S
C1034 C1033 1.394 . S
C1034 C1035 1.516 . S
C1035 C1034 1.516 . S
C1035 C1036 1.502 . S
C1035 C1037 1.561 . S
C1035 C1038 1.526 . S
C1036 H1020 0.959 . S
C1036 H1021 0.959 . S
C1036 H1022 0.961 . S
C1036 C1035 1.502 . S
C1037 H1023 0.960 . S
C1037 H1024 0.961 . S
C1037 H1025 0.959 . S
C1037 C1035 1.561 . S
C1038 C1035 1.526 . S
C1038 C1039 1.396 . S
C1038 C1043 1.390 . S
C1039 C1033 1.465 . S
C1039 C1038 1.396 . S
C1039 C1040 1.399 . S
C1040 H1026 0.929 . S
C1040 C1039 1.399 . S
C1040 C1041 1.385 . S
C1041 H1027 0.931 . S
C1041 C1040 1.385 . S
C1041 C1042 1.389 . S
C1042 C1041 1.389 . S
C1042 C1043 1.387 . S
C1043 H1028 0.930 . S
C1043 C1038 1.390 . S
C1043 C1042 1.387 . S
H1044 C1056 0.930 . S
H1045 C1058 0.930 . S
H1046 C1059 0.930 . S
H1047 C1063 0.959 . S
H1048 C1063 0.959 . S
H1049 C1063 0.961 . S
H1050 C1064 0.960 . S
H1051 C1064 0.961 . S
H1052 C1064 0.959 . S
H1053 C1067 0.929 . S
H1054 C1068 0.931 . S
H1055 C1070 0.930 . S
C1056 H1044 0.930 . S
C1056 C1057 1.399 1_556 S
C1056 C1061 1.399 . S
C1057 C1056 1.399 1_554 S
C1057 C1058 1.376 . S
C1058 H1045 0.930 . S
C1058 C1057 1.376 . S
C1058 C1059 1.388 . S
C1059 H1046 0.930 . S
C1059 C1058 1.388 . S
C1059 C1060 1.390 1_554 S
C1060 C1059 1.390 1_556 S
C1060 C1061 1.394 . S
C1060 C1066 1.465 . S
C1061 C1056 1.399 . S
C1061 C1060 1.394 . S
C1061 C1062 1.516 . S
C1062 C1061 1.516 . S
C1062 C1063 1.502 . S
C1062 C1064 1.561 . S
C1062 C1065 1.526 . S
C1063 H1047 0.959 . S
C1063 H1048 0.959 . S
C1063 H1049 0.961 . S
C1063 C1062 1.502 . S
C1064 H1050 0.960 . S
C1064 H1051 0.961 . S
C1064 H1052 0.959 . S
C1064 C1062 1.561 . S
C1065 C1062 1.526 . S
C1065 C1066 1.396 . S
C1065 C1070 1.390 . S
C1066 C1060 1.465 . S
C1066 C1065 1.396 . S
C1066 C1067 1.399 . S
C1067 H1053 0.929 . S
C1067 C1066 1.399 . S
C1067 C1068 1.385 . S
C1068 H1054 0.931 . S
C1068 C1067 1.385 . S
C1068 C1069 1.389 . S
C1069 C1068 1.389 . S
C1069 C1070 1.387 . S
C1070 H1055 0.930 . S
C1070 C1065 1.390 . S
C1070 C1069 1.387 . S
H1071 C1083 0.930 . S
H1072 C1085 0.930 . S
H1073 C1086 0.930 . S
H1074 C1090 0.959 . S
H1075 C1090 0.959 . S
H1076 C1090 0.961 . S
H1077 C1091 0.960 . S
H1078 C1091 0.961 . S
H1079 C1091 0.959 . S
H1080 C1094 0.929 . S
H1081 C1095 0.931 . S
H1082 C1097 0.930 . S
C1083 H1071 0.930 . S
C1083 C1084 1.399 . S
C1083 C1088 1.399 . S
C1084 C1083 1.399 . S
C1084 C1085 1.376 . S
C1085 H1072 0.930 . S
C1085 C1084 1.376 . S
C1085 C1086 1.388 . S
C1086 H1073 0.930 . S
C1086 C1085 1.388 . S
C1086 C1087 1.390 . S
C1087 C1086 1.390 . S
C1087 C1088 1.394 . S
C1087 C1093 1.465 . S
C1088 C1083 1.399 . S
C1088 C1087 1.394 . S
C1088 C1089 1.516 . S
C1089 C1088 1.516 . S
C1089 C1090 1.502 . S
C1089 C1091 1.561 . S
C1089 C1092 1.526 . S
C1090 H1074 0.959 . S
C1090 H1075 0.959 . S
C1090 H1076 0.961 . S
C1090 C1089 1.502 . S
C1091 H1077 0.960 . S
C1091 H1078 0.961 . S
C1091 H1079 0.959 . S
C1091 C1089 1.561 . S
C1092 C1089 1.526 . S
C1092 C1093 1.396 . S
C1092 C1097 1.390 . S
C1093 C1087 1.465 . S
C1093 C1092 1.396 . S
C1093 C1094 1.399 . S
C1094 H1080 0.929 . S
C1094 C1093 1.399 . S
C1094 C1095 1.385 . S
C1095 H1081 0.931 . S
C1095 C1094 1.385 . S
C1095 C1096 1.389 . S
C1096 C1095 1.389 . S
C1096 C1097 1.387 . S
C1097 H1082 0.930 . S
C1097 C1092 1.390 . S
C1097 C1096 1.387 . S
H1098 C1110 0.930 . S
H1099 C1112 0.930 . S
H1100 C1113 0.930 . S
H1101 C1117 0.959 . S
H1102 C1117 0.959 . S
H1103 C1117 0.961 . S
H1104 C1118 0.960 . S
H1105 C1118 0.961 . S
H1106 C1118 0.959 . S
H1107 C1121 0.929 . S
H1108 C1122 0.931 . S
H1109 C1124 0.930 . S
C1110 H1098 0.930 . S
C1110 C1111 1.399 . S
C1110 C1115 1.399 . S
C1111 C1110 1.399 . S
C1111 C1112 1.376 . S
C1112 H1099 0.930 . S
C1112 C1111 1.376 . S
C1112 C1113 1.388 . S
C1113 H1100 0.930 . S
C1113 C1112 1.388 . S
C1113 C1114 1.390 . S
C1114 C1113 1.390 . S
C1114 C1115 1.394 . S
C1114 C1120 1.465 . S
C1115 C1110 1.399 . S
C1115 C1114 1.394 . S
C1115 C1116 1.516 . S
C1116 C1115 1.516 . S
C1116 C1117 1.502 . S
C1116 C1118 1.561 . S
C1116 C1119 1.526 . S
C1117 H1101 0.959 . S
C1117 H1102 0.959 . S
C1117 H1103 0.961 . S
C1117 C1116 1.502 . S
C1118 H1104 0.960 . S
C1118 H1105 0.961 . S
C1118 H1106 0.959 . S
C1118 C1116 1.561 . S
C1119 C1116 1.526 . S
C1119 C1120 1.396 . S
C1119 C1124 1.390 . S
C1120 C1114 1.465 . S
C1120 C1119 1.396 . S
C1120 C1121 1.399 . S
C1121 H1107 0.929 . S
C1121 C1120 1.399 . S
C1121 C1122 1.385 . S
C1122 H1108 0.931 . S
C1122 C1121 1.385 . S
C1122 C1123 1.389 . S
C1123 C1122 1.389 . S
C1123 C1124 1.387 . S
C1124 H1109 0.930 . S
C1124 C1119 1.390 . S
C1124 C1123 1.387 . S
H1125 C1137 0.930 . S
H1126 C1139 0.930 . S
H1127 C1140 0.930 . S
H1128 C1144 0.959 . S
H1129 C1144 0.959 . S
H1130 C1144 0.961 . S
H1131 C1145 0.960 . S
H1132 C1145 0.961 . S
H1133 C1145 0.959 . S
H1134 C1148 0.929 . S
H1135 C1149 0.931 . S
H1136 C1151 0.930 . S
C1137 H1125 0.930 . S
C1137 C1138 1.399 . S
C1137 C1142 1.399 . S
C1138 C1137 1.399 . S
C1138 C1139 1.376 . S
C1139 H1126 0.930 . S
C1139 C1138 1.376 . S
C1139 C1140 1.388 . S
C1140 H1127 0.930 . S
C1140 C1139 1.388 . S
C1140 C1141 1.390 . S
C1141 C1140 1.390 . S
C1141 C1142 1.394 . S
C1141 C1147 1.465 . S
C1142 C1137 1.399 . S
C1142 C1141 1.394 . S
C1142 C1143 1.516 . S
C1143 C1142 1.516 . S
C1143 C1144 1.502 . S
C1143 C1145 1.561 . S
C1143 C1146 1.526 . S
C1144 H1128 0.959 . S
C1144 H1129 0.959 . S
C1144 H1130 0.961 . S
C1144 C1143 1.502 . S
C1145 H1131 0.960 . S
C1145 H1132 0.961 . S
C1145 H1133 0.959 . S
C1145 C1143 1.561 . S
C1146 C1143 1.526 . S
C1146 C1147 1.396 . S
C1146 C1151 1.390 . S
C1147 C1141 1.465 . S
C1147 C1146 1.396 . S
C1147 C1148 1.399 . S
C1148 H1134 0.929 . S
C1148 C1147 1.399 . S
C1148 C1149 1.385 . S
C1149 H1135 0.931 . S
C1149 C1148 1.385 . S
C1149 C1150 1.389 . S
C1150 C1149 1.389 . S
C1150 C1151 1.387 . S
C1151 H1136 0.930 . S
C1151 C1146 1.390 . S
C1151 C1150 1.387 . S
H1152 C1164 0.930 1_556 S
H1153 C1166 0.930 1_556 S
H1154 C1167 0.930 . S
H1155 C1171 0.959 . S
H1156 C1171 0.959 . S
H1157 C1171 0.961 . S
H1158 C1172 0.960 . S
H1159 C1172 0.961 . S
H1160 C1172 0.959 . S
H1161 C1175 0.929 . S
H1162 C1176 0.931 . S
H1163 C1178 0.930 . S
C1164 H1152 0.930 1_554 S
C1164 C1165 1.399 1_554 S
C1164 C1169 1.399 . S
C1165 C1164 1.399 1_556 S
C1165 C1166 1.376 1_556 S
C1166 H1153 0.930 1_554 S
C1166 C1165 1.376 1_554 S
C1166 C1167 1.388 . S
C1167 H1154 0.930 . S
C1167 C1166 1.388 . S
C1167 C1168 1.390 . S
C1168 C1167 1.390 . S
C1168 C1169 1.394 . S
C1168 C1174 1.465 . S
C1169 C1164 1.399 . S
C1169 C1168 1.394 . S
C1169 C1170 1.516 . S
C1170 C1169 1.516 . S
C1170 C1171 1.502 . S
C1170 C1172 1.561 . S
C1170 C1173 1.526 . S
C1171 H1155 0.959 . S
C1171 H1156 0.959 . S
C1171 H1157 0.961 . S
C1171 C1170 1.502 . S
C1172 H1158 0.960 . S
C1172 H1159 0.961 . S
C1172 H1160 0.959 . S
C1172 C1170 1.561 . S
C1173 C1170 1.526 . S
C1173 C1174 1.396 . S
C1173 C1178 1.390 . S
C1174 C1168 1.465 . S
C1174 C1173 1.396 . S
C1174 C1175 1.399 . S
C1175 H1161 0.929 . S
C1175 C1174 1.399 . S
C1175 C1176 1.385 . S
C1176 H1162 0.931 . S
C1176 C1175 1.385 . S
C1176 C1177 1.389 . S
C1177 C1176 1.389 . S
C1177 C1178 1.387 . S
C1178 H1163 0.930 . S
C1178 C1173 1.390 . S
C1178 C1177 1.387 . S
H1179 C1191 0.930 . S
H1180 C1193 0.930 . S
H1181 C1194 0.930 . S
H1182 C1198 0.959 . S
H1183 C1198 0.959 . S
H1184 C1198 0.961 . S
H1185 C1199 0.960 . S
H1186 C1199 0.961 . S
H1187 C1199 0.959 . S
H1188 C1202 0.929 . S
H1189 C1203 0.931 . S
H1190 C1205 0.930 . S
C1191 H1179 0.930 . S
C1191 C1192 1.399 1_554 S
C1191 C1196 1.399 . S
C1192 C1191 1.399 1_556 S
C1192 C1193 1.376 . S
C1193 H1180 0.930 . S
C1193 C1192 1.376 . S
C1193 C1194 1.388 1_556 S
C1194 H1181 0.930 . S
C1194 C1193 1.388 1_554 S
C1194 C1195 1.390 . S
C1195 C1194 1.390 . S
C1195 C1196 1.394 . S
C1195 C1201 1.465 . S
C1196 C1191 1.399 . S
C1196 C1195 1.394 . S
C1196 C1197 1.516 . S
C1197 C1196 1.516 . S
C1197 C1198 1.502 . S
C1197 C1199 1.561 . S
C1197 C1200 1.526 . S
C1198 H1182 0.959 . S
C1198 H1183 0.959 . S
C1198 H1184 0.961 . S
C1198 C1197 1.502 . S
C1199 H1185 0.960 . S
C1199 H1186 0.961 . S
C1199 H1187 0.959 . S
C1199 C1197 1.561 . S
C1200 C1197 1.526 . S
C1200 C1201 1.396 . S
C1200 C1205 1.390 . S
C1201 C1195 1.465 . S
C1201 C1200 1.396 . S
C1201 C1202 1.399 . S
C1202 H1188 0.929 . S
C1202 C1201 1.399 . S
C1202 C1203 1.385 . S
C1203 H1189 0.931 . S
C1203 C1202 1.385 . S
C1203 C1204 1.389 . S
C1204 C1203 1.389 . S
C1204 C1205 1.387 . S
C1205 H1190 0.930 . S
C1205 C1200 1.390 . S
C1205 C1204 1.387 . S
H1206 C1218 0.930 . S
H1207 C1220 0.930 . S
H1208 C1221 0.930 . S
H1209 C1225 0.959 . S
H1210 C1225 0.959 . S
H1211 C1225 0.961 . S
H1212 C1226 0.960 . S
H1213 C1226 0.961 1_556 S
H1214 C1226 0.959 . S
H1215 C1229 0.929 . S
H1216 C1230 0.931 . S
H1217 C1232 0.930 . S
C1218 H1206 0.930 . S
C1218 C1219 1.399 . S
C1218 C1223 1.399 . S
C1219 C1218 1.399 . S
C1219 C1220 1.376 . S
C1220 H1207 0.930 . S
C1220 C1219 1.376 . S
C1220 C1221 1.388 . S
C1221 H1208 0.930 . S
C1221 C1220 1.388 . S
C1221 C1222 1.390 . S
C1222 C1221 1.390 . S
C1222 C1223 1.394 . S
C1222 C1228 1.465 . S
C1223 C1218 1.399 . S
C1223 C1222 1.394 . S
C1223 C1224 1.516 . S
C1224 C1223 1.516 . S
C1224 C1225 1.502 . S
C1224 C1226 1.561 . S
C1224 C1227 1.526 . S
C1225 H1209 0.959 . S
C1225 H1210 0.959 . S
C1225 H1211 0.961 . S
C1225 C1224 1.502 . S
C1226 H1212 0.960 . S
C1226 H1213 0.961 1_554 S
C1226 H1214 0.959 . S
C1226 C1224 1.561 . S
C1227 C1224 1.526 . S
C1227 C1228 1.396 . S
C1227 C1232 1.390 1_554 S
C1228 C1222 1.465 . S
C1228 C1227 1.396 . S
C1228 C1229 1.399 . S
C1229 H1215 0.929 . S
C1229 C1228 1.399 . S
C1229 C1230 1.385 . S
C1230 H1216 0.931 . S
C1230 C1229 1.385 . S
C1230 C1231 1.389 1_554 S
C1231 C1230 1.389 1_556 S
C1231 C1232 1.387 . S
C1232 H1217 0.930 . S
C1232 C1227 1.390 1_556 S
C1232 C1231 1.387 . S
H1233 C1245 0.930 . S
H1234 C1247 0.930 . S
H1235 C1248 0.930 . S
H1236 C1252 0.959 . S
H1237 C1252 0.959 . S
H1238 C1252 0.961 . S
H1239 C1253 0.960 . S
H1240 C1253 0.961 . S
H1241 C1253 0.959 . S
H1242 C1256 0.929 . S
H1243 C1257 0.931 . S
H1244 C1259 0.930 . S
C1245 H1233 0.930 . S
C1245 C1246 1.399 . S
C1245 C1250 1.399 . S
C1246 C1245 1.399 . S
C1246 C1247 1.376 . S
C1247 H1234 0.930 . S
C1247 C1246 1.376 . S
C1247 C1248 1.388 . S
C1248 H1235 0.930 . S
C1248 C1247 1.388 . S
C1248 C1249 1.390 . S
C1249 C1248 1.390 . S
C1249 C1250 1.394 . S
C1249 C1255 1.465 . S
C1250 C1245 1.399 . S
C1250 C1249 1.394 . S
C1250 C1251 1.516 . S
C1251 C1250 1.516 . S
C1251 C1252 1.502 . S
C1251 C1253 1.561 . S
C1251 C1254 1.526 . S
C1252 H1236 0.959 . S
C1252 H1237 0.959 . S
C1252 H1238 0.961 . S
C1252 C1251 1.502 . S
C1253 H1239 0.960 . S
C1253 H1240 0.961 . S
C1253 H1241 0.959 . S
C1253 C1251 1.561 . S
C1254 C1251 1.526 . S
C1254 C1255 1.396 . S
C1254 C1259 1.390 . S
C1255 C1249 1.465 . S
C1255 C1254 1.396 . S
C1255 C1256 1.399 . S
C1256 H1242 0.929 . S
C1256 C1255 1.399 . S
C1256 C1257 1.385 . S
C1257 H1243 0.931 . S
C1257 C1256 1.385 . S
C1257 C1258 1.389 . S
C1258 C1257 1.389 . S
C1258 C1259 1.387 . S
C1259 H1244 0.930 . S
C1259 C1254 1.390 . S
C1259 C1258 1.387 . S
H1260 C1272 0.930 . S
H1261 C1274 0.930 . S
H1262 C1275 0.930 . S
H1263 C1279 0.959 . S
H1264 C1279 0.959 . S
H1265 C1279 0.961 . S
H1266 C1280 0.960 . S
H1267 C1280 0.961 . S
H1268 C1280 0.959 . S
H1269 C1283 0.929 . S
H1270 C1284 0.931 . S
H1271 C1286 0.930 . S
C1272 H1260 0.930 . S
C1272 C1273 1.399 . S
C1272 C1277 1.399 . S
C1273 C1272 1.399 . S
C1273 C1274 1.376 . S
C1274 H1261 0.930 . S
C1274 C1273 1.376 . S
C1274 C1275 1.388 . S
C1275 H1262 0.930 . S
C1275 C1274 1.388 . S
C1275 C1276 1.390 . S
C1276 C1275 1.390 . S
C1276 C1277 1.394 . S
C1276 C1282 1.465 . S
C1277 C1272 1.399 . S
C1277 C1276 1.394 . S
C1277 C1278 1.516 . S
C1278 C1277 1.516 . S
C1278 C1279 1.502 . S
C1278 C1280 1.561 . S
C1278 C1281 1.526 . S
C1279 H1263 0.959 . S
C1279 H1264 0.959 . S
C1279 H1265 0.961 . S
C1279 C1278 1.502 . S
C1280 H1266 0.960 . S
C1280 H1267 0.961 . S
C1280 H1268 0.959 . S
C1280 C1278 1.561 . S
C1281 C1278 1.526 . S
C1281 C1282 1.396 . S
C1281 C1286 1.390 . S
C1282 C1276 1.465 . S
C1282 C1281 1.396 . S
C1282 C1283 1.399 . S
C1283 H1269 0.929 . S
C1283 C1282 1.399 . S
C1283 C1284 1.385 . S
C1284 H1270 0.931 . S
C1284 C1283 1.385 . S
C1284 C1285 1.389 . S
C1285 C1284 1.389 . S
C1285 C1286 1.387 . S
C1286 H1271 0.930 . S
C1286 C1281 1.390 . S
C1286 C1285 1.387 . S
H1287 C1299 0.930 . S
H1288 C1301 0.930 . S
H1289 C1302 0.930 . S
H1290 C1306 0.959 . S
H1291 C1306 0.959 . S
H1292 C1306 0.961 . S
H1293 C1307 0.960 . S
H1294 C1307 0.961 . S
H1295 C1307 0.959 . S
H1296 C1310 0.929 . S
H1297 C1311 0.931 . S
H1298 C1313 0.930 . S
C1299 H1287 0.930 . S
C1299 C1300 1.399 . S
C1299 C1304 1.399 . S
C1300 C1299 1.399 . S
C1300 C1301 1.376 . S
C1301 H1288 0.930 . S
C1301 C1300 1.376 . S
C1301 C1302 1.388 . S
C1302 H1289 0.930 . S
C1302 C1301 1.388 . S
C1302 C1303 1.390 . S
C1303 C1302 1.390 . S
C1303 C1304 1.394 . S
C1303 C1309 1.465 . S
C1304 C1299 1.399 . S
C1304 C1303 1.394 . S
C1304 C1305 1.516 . S
C1305 C1304 1.516 . S
C1305 C1306 1.502 . S
C1305 C1307 1.561 . S
C1305 C1308 1.526 . S
C1306 H1290 0.959 . S
C1306 H1291 0.959 . S
C1306 H1292 0.961 . S
C1306 C1305 1.502 . S
C1307 H1293 0.960 . S
C1307 H1294 0.961 . S
C1307 H1295 0.959 . S
C1307 C1305 1.561 . S
C1308 C1305 1.526 . S
C1308 C1309 1.396 . S
C1308 C1313 1.390 . S
C1309 C1303 1.465 . S
C1309 C1308 1.396 . S
C1309 C1310 1.399 . S
C1310 H1296 0.929 . S
C1310 C1309 1.399 . S
C1310 C1311 1.385 . S
C1311 H1297 0.931 . S
C1311 C1310 1.385 . S
C1311 C1312 1.389 . S
C1312 C1311 1.389 . S
C1312 C1313 1.387 . S
C1313 H1298 0.930 . S
C1313 C1308 1.390 . S
C1313 C1312 1.387 . S
H1314 C1326 0.930 . S
H1315 C1328 0.930 . S
H1316 C1329 0.930 . S
H1317 C1333 0.959 . S
H1318 C1333 0.959 . S
H1319 C1333 0.961 . S
H1320 C1334 0.960 . S
H1321 C1334 0.961 . S
H1322 C1334 0.959 . S
H1323 C1337 0.929 . S
H1324 C1338 0.931 . S
H1325 C1340 0.930 . S
C1326 H1314 0.930 . S
C1326 C1327 1.399 . S
C1326 C1331 1.399 . S
C1327 C1326 1.399 . S
C1327 C1328 1.376 . S
C1328 H1315 0.930 . S
C1328 C1327 1.376 . S
C1328 C1329 1.388 . S
C1329 H1316 0.930 . S
C1329 C1328 1.388 . S
C1329 C1330 1.390 . S
C1330 C1329 1.390 . S
C1330 C1331 1.394 . S
C1330 C1336 1.465 . S
C1331 C1326 1.399 . S
C1331 C1330 1.394 . S
C1331 C1332 1.516 . S
C1332 C1331 1.516 . S
C1332 C1333 1.502 . S
C1332 C1334 1.561 . S
C1332 C1335 1.526 . S
C1333 H1317 0.959 . S
C1333 H1318 0.959 . S
C1333 H1319 0.961 . S
C1333 C1332 1.502 . S
C1334 H1320 0.960 . S
C1334 H1321 0.961 . S
C1334 H1322 0.959 . S
C1334 C1332 1.561 . S
C1335 C1332 1.526 . S
C1335 C1336 1.396 . S
C1335 C1340 1.390 . S
C1336 C1330 1.465 . S
C1336 C1335 1.396 . S
C1336 C1337 1.399 . S
C1337 H1323 0.929 . S
C1337 C1336 1.399 . S
C1337 C1338 1.385 . S
C1338 H1324 0.931 . S
C1338 C1337 1.385 . S
C1338 C1339 1.389 . S
C1339 C1338 1.389 . S
C1339 C1340 1.387 . S
C1340 H1325 0.930 . S
C1340 C1335 1.390 . S
C1340 C1339 1.387 . S
H1341 C1353 0.930 . S
H1342 C1355 0.930 . S
H1343 C1356 0.930 . S
H1344 C1360 0.959 . S
H1345 C1360 0.959 . S
H1346 C1360 0.961 . S
H1347 C1361 0.960 . S
H1348 C1361 0.961 . S
H1349 C1361 0.959 . S
H1350 C1364 0.929 . S
H1351 C1365 0.931 . S
H1352 C1367 0.930 . S
C1353 H1341 0.930 . S
C1353 C1354 1.399 . S
C1353 C1358 1.399 . S
C1354 C1353 1.399 . S
C1354 C1355 1.376 . S
C1355 H1342 0.930 . S
C1355 C1354 1.376 . S
C1355 C1356 1.388 . S
C1356 H1343 0.930 . S
C1356 C1355 1.388 . S
C1356 C1357 1.390 . S
C1357 C1356 1.390 . S
C1357 C1358 1.394 . S
C1357 C1363 1.465 . S
C1358 C1353 1.399 . S
C1358 C1357 1.394 . S
C1358 C1359 1.516 . S
C1359 C1358 1.516 . S
C1359 C1360 1.502 . S
C1359 C1361 1.561 . S
C1359 C1362 1.526 . S
C1360 H1344 0.959 . S
C1360 H1345 0.959 . S
C1360 H1346 0.961 . S
C1360 C1359 1.502 . S
C1361 H1347 0.960 . S
C1361 H1348 0.961 . S
C1361 H1349 0.959 . S
C1361 C1359 1.561 . S
C1362 C1359 1.526 . S
C1362 C1363 1.396 . S
C1362 C1367 1.390 . S
C1363 C1357 1.465 . S
C1363 C1362 1.396 . S
C1363 C1364 1.399 . S
C1364 H1350 0.929 . S
C1364 C1363 1.399 . S
C1364 C1365 1.385 . S
C1365 H1351 0.931 . S
C1365 C1364 1.385 . S
C1365 C1366 1.389 . S
C1366 C1365 1.389 . S
C1366 C1367 1.387 . S
C1367 H1352 0.930 . S
C1367 C1362 1.390 . S
C1367 C1366 1.387 . S
H1368 C1380 0.930 . S
H1369 C1382 0.930 . S
H1370 C1383 0.930 . S
H1371 C1387 0.959 . S
H1372 C1387 0.959 . S
H1373 C1387 0.961 . S
H1374 C1388 0.960 . S
H1375 C1388 0.961 . S
H1376 C1388 0.959 . S
H1377 C1391 0.929 . S
H1378 C1392 0.931 . S
H1379 C1394 0.930 . S
C1380 H1368 0.930 . S
C1380 C1381 1.399 . S
C1380 C1385 1.399 . S
C1381 C1380 1.399 . S
C1381 C1382 1.376 . S
C1382 H1369 0.930 . S
C1382 C1381 1.376 . S
C1382 C1383 1.388 . S
C1383 H1370 0.930 . S
C1383 C1382 1.388 . S
C1383 C1384 1.390 . S
C1384 C1383 1.390 . S
C1384 C1385 1.394 . S
C1384 C1390 1.465 . S
C1385 C1380 1.399 . S
C1385 C1384 1.394 . S
C1385 C1386 1.516 . S
C1386 C1385 1.516 . S
C1386 C1387 1.502 . S
C1386 C1388 1.561 . S
C1386 C1389 1.526 . S
C1387 H1371 0.959 . S
C1387 H1372 0.959 . S
C1387 H1373 0.961 . S
C1387 C1386 1.502 . S
C1388 H1374 0.960 . S
C1388 H1375 0.961 . S
C1388 H1376 0.959 . S
C1388 C1386 1.561 . S
C1389 C1386 1.526 . S
C1389 C1390 1.396 . S
C1389 C1394 1.390 . S
C1390 C1384 1.465 . S
C1390 C1389 1.396 . S
C1390 C1391 1.399 . S
C1391 H1377 0.929 . S
C1391 C1390 1.399 . S
C1391 C1392 1.385 . S
C1392 H1378 0.931 . S
C1392 C1391 1.385 . S
C1392 C1393 1.389 . S
C1393 C1392 1.389 . S
C1393 C1394 1.387 . S
C1394 H1379 0.930 . S
C1394 C1389 1.390 . S
C1394 C1393 1.387 . S
H1395 C1407 0.930 . S
H1396 C1409 0.930 . S
H1397 C1410 0.930 . S
H1398 C1414 0.959 . S
H1399 C1414 0.959 . S
H1400 C1414 0.961 . S
H1401 C1415 0.960 . S
H1402 C1415 0.974 . S
H1403 C1415 0.959 . S
H1404 C1418 0.929 . S
H1405 C1419 0.931 . S
H1406 C1421 0.930 . S
C1407 H1395 0.930 . S
C1407 C1408 1.399 . S
C1407 C1412 1.399 . S
C1408 C1407 1.399 . S
C1408 C1409 1.376 . S
C1409 H1396 0.930 . S
C1409 C1408 1.376 . S
C1409 C1410 1.388 . S
C1410 H1397 0.930 . S
C1410 C1409 1.388 . S
C1410 C1411 1.390 . S
C1411 C1410 1.390 . S
C1411 C1412 1.394 . S
C1411 C1417 1.465 . S
C1412 C1407 1.399 . S
C1412 C1411 1.394 . S
C1412 C1413 1.516 . S
C1413 C1412 1.516 . S
C1413 C1414 1.502 . S
C1413 C1415 1.561 . S
C1413 C1416 1.526 . S
C1414 H1398 0.959 . S
C1414 H1399 0.959 . S
C1414 H1400 0.961 . S
C1414 C1413 1.502 . S
C1415 H1401 0.960 . S
C1415 H1402 0.974 . S
C1415 H1403 0.959 . S
C1415 C1413 1.561 . S
C1416 C1413 1.526 . S
C1416 C1417 1.396 . S
C1416 C1421 1.390 1_556 S
C1417 C1411 1.465 . S
C1417 C1416 1.396 . S
C1417 C1418 1.399 . S
C1418 H1404 0.929 . S
C1418 C1417 1.399 . S
C1418 C1419 1.385 1_556 S
C1419 H1405 0.931 . S
C1419 C1418 1.385 1_554 S
C1419 C1420 1.389 . S
C1420 C1419 1.389 . S
C1420 C1421 1.387 . S
C1421 H1406 0.930 . S
C1421 C1416 1.390 1_554 S
C1421 C1420 1.387 . S
H1422 C1434 0.930 . S
H1423 C1436 0.930 . S
H1424 C1437 0.930 . S
H1425 C1441 0.959 . S
H1426 C1441 0.959 . S
H1427 C1441 0.961 1_554 S
H1428 C1442 0.960 1_554 S
H1429 C1442 0.961 . S
H1430 C1442 0.959 . S
H1431 C1445 0.929 . S
H1432 C1446 0.931 . S
H1433 C1448 0.930 . S
C1434 H1422 0.930 . S
C1434 C1435 1.399 . S
C1434 C1439 1.399 1_554 S
C1435 C1434 1.399 . S
C1435 C1436 1.376 1_554 S
C1436 H1423 0.930 . S
C1436 C1435 1.376 1_556 S
C1436 C1437 1.388 . S
C1437 H1424 0.930 . S
C1437 C1436 1.388 . S
C1437 C1438 1.390 . S
C1438 C1437 1.390 . S
C1438 C1439 1.394 . S
C1438 C1444 1.465 . S
C1439 C1434 1.399 1_556 S
C1439 C1438 1.394 . S
C1439 C1440 1.516 . S
C1440 C1439 1.516 . S
C1440 C1441 1.502 . S
C1440 C1442 1.561 . S
C1440 C1443 1.526 . S
C1441 H1425 0.959 . S
C1441 H1426 0.959 . S
C1441 H1427 0.961 1_556 S
C1441 C1440 1.502 . S
C1442 H1428 0.960 1_556 S
C1442 H1429 0.961 . S
C1442 H1430 0.959 . S
C1442 C1440 1.561 . S
C1443 C1440 1.526 . S
C1443 C1444 1.396 . S
C1443 C1448 1.390 . S
C1444 C1438 1.465 . S
C1444 C1443 1.396 . S
C1444 C1445 1.399 . S
C1445 H1431 0.929 . S
C1445 C1444 1.399 . S
C1445 C1446 1.385 . S
C1446 H1432 0.931 . S
C1446 C1445 1.385 . S
C1446 C1447 1.389 . S
C1447 C1446 1.389 . S
C1447 C1448 1.387 . S
C1448 H1433 0.930 . S
C1448 C1443 1.390 . S
C1448 C1447 1.387 . S
H1449 C1461 0.930 . S
H1450 C1463 0.930 . S
H1451 C1464 0.930 . S
H1452 C1468 0.959 . S
H1453 C1468 0.959 . S
H1454 C1468 0.961 . S
H1455 C1469 0.960 . S
H1456 C1469 0.961 . S
H1457 C1469 0.959 . S
H1458 C1472 0.929 . S
H1459 C1473 0.931 . S
H1460 C1475 0.930 . S
C1461 H1449 0.930 . S
C1461 C1462 1.399 . S
C1461 C1466 1.399 . S
C1462 C1461 1.399 . S
C1462 C1463 1.376 . S
C1463 H1450 0.930 . S
C1463 C1462 1.376 . S
C1463 C1464 1.388 . S
C1464 H1451 0.930 . S
C1464 C1463 1.388 . S
C1464 C1465 1.390 . S
C1465 C1464 1.390 . S
C1465 C1466 1.394 . S
C1465 C1471 1.465 . S
C1466 C1461 1.399 . S
C1466 C1465 1.394 . S
C1466 C1467 1.516 . S
C1467 C1466 1.516 . S
C1467 C1468 1.502 . S
C1467 C1469 1.561 . S
C1467 C1470 1.526 . S
C1468 H1452 0.959 . S
C1468 H1453 0.959 . S
C1468 H1454 0.961 . S
C1468 C1467 1.502 . S
C1469 H1455 0.960 . S
C1469 H1456 0.961 . S
C1469 H1457 0.959 . S
C1469 C1467 1.561 . S
C1470 C1467 1.526 . S
C1470 C1471 1.396 . S
C1470 C1475 1.390 1_556 S
C1471 C1465 1.465 . S
C1471 C1470 1.396 . S
C1471 C1472 1.399 1_556 S
C1472 H1458 0.929 . S
C1472 C1471 1.399 1_554 S
C1472 C1473 1.385 . S
C1473 H1459 0.931 . S
C1473 C1472 1.385 . S
C1473 C1474 1.389 . S
C1474 C1473 1.389 . S
C1474 C1475 1.387 . S
C1475 H1460 0.930 . S
C1475 C1470 1.390 1_554 S
C1475 C1474 1.387 . S
H1476 C1488 0.930 . S
H1477 C1490 0.930 . S
H1478 C1491 0.930 . S
H1479 C1495 0.959 . S
H1480 C1495 0.959 . S
H1481 C1495 0.961 . S
H1482 C1496 0.960 . S
H1483 C1496 0.961 . S
H1484 C1496 0.959 . S
H1485 C1499 0.929 . S
H1486 C1500 0.931 . S
H1487 C1502 0.930 . S
C1488 H1476 0.930 . S
C1488 C1489 1.399 . S
C1488 C1493 1.399 . S
C1489 C1488 1.399 . S
C1489 C1490 1.376 . S
C1490 H1477 0.930 . S
C1490 C1489 1.376 . S
C1490 C1491 1.388 . S
C1491 H1478 0.930 . S
C1491 C1490 1.388 . S
C1491 C1492 1.390 . S
C1492 C1491 1.390 . S
C1492 C1493 1.394 . S
C1492 C1498 1.465 . S
C1493 C1488 1.399 . S
C1493 C1492 1.394 . S
C1493 C1494 1.516 . S
C1494 C1493 1.516 . S
C1494 C1495 1.502 . S
C1494 C1496 1.561 . S
C1494 C1497 1.526 . S
C1495 H1479 0.959 . S
C1495 H1480 0.959 . S
C1495 H1481 0.961 . S
C1495 C1494 1.502 . S
C1496 H1482 0.960 . S
C1496 H1483 0.961 . S
C1496 H1484 0.959 . S
C1496 C1494 1.561 . S
C1497 C1494 1.526 . S
C1497 C1498 1.396 . S
C1497 C1502 1.390 . S
C1498 C1492 1.465 . S
C1498 C1497 1.396 . S
C1498 C1499 1.399 . S
C1499 H1485 0.929 . S
C1499 C1498 1.399 . S
C1499 C1500 1.385 . S
C1500 H1486 0.931 . S
C1500 C1499 1.385 . S
C1500 C1501 1.389 . S
C1501 C1500 1.389 . S
C1501 C1502 1.387 . S
C1502 H1487 0.930 . S
C1502 C1497 1.390 . S
C1502 C1501 1.387 . S
H1503 C1515 0.930 . S
H1504 C1517 0.930 . S
H1505 C1518 0.930 . S
H1506 C1522 0.959 . S
H1507 C1522 0.959 . S
H1508 C1522 0.961 . S
H1509 C1523 0.960 . S
H1510 C1523 0.961 . S
H1511 C1523 0.959 . S
H1512 C1526 0.929 . S
H1513 C1527 0.931 . S
H1514 C1529 0.930 . S
C1515 H1503 0.930 . S
C1515 C1516 1.399 . S
C1515 C1520 1.399 . S
C1516 C1515 1.399 . S
C1516 C1517 1.376 . S
C1517 H1504 0.930 . S
C1517 C1516 1.376 . S
C1517 C1518 1.388 . S
C1518 H1505 0.930 . S
C1518 C1517 1.388 . S
C1518 C1519 1.390 . S
C1519 C1518 1.390 . S
C1519 C1520 1.394 . S
C1519 C1525 1.465 . S
C1520 C1515 1.399 . S
C1520 C1519 1.394 . S
C1520 C1521 1.516 . S
C1521 C1520 1.516 . S
C1521 C1522 1.502 . S
C1521 C1523 1.561 . S
C1521 C1524 1.526 . S
C1522 H1506 0.959 . S
C1522 H1507 0.959 . S
C1522 H1508 0.961 . S
C1522 C1521 1.502 . S
C1523 H1509 0.960 . S
C1523 H1510 0.961 . S
C1523 H1511 0.959 . S
C1523 C1521 1.561 . S
C1524 C1521 1.526 . S
C1524 C1525 1.396 . S
C1524 C1529 1.390 . S
C1525 C1519 1.465 . S
C1525 C1524 1.396 . S
C1525 C1526 1.399 . S
C1526 H1512 0.929 . S
C1526 C1525 1.399 . S
C1526 C1527 1.385 . S
C1527 H1513 0.931 . S
C1527 C1526 1.385 . S
C1527 C1528 1.389 . S
C1528 C1527 1.389 . S
C1528 C1529 1.387 . S
C1529 H1514 0.930 . S
C1529 C1524 1.390 . S
C1529 C1528 1.387 . S
H1530 C1542 0.930 . S
H1531 C1544 0.930 . S
H1532 C1545 0.930 . S
H1533 C1549 0.959 . S
H1534 C1549 0.959 . S
H1535 C1549 0.961 . S
H1536 C1550 0.960 . S
H1537 C1550 0.961 . S
H1538 C1550 0.959 . S
H1539 C1553 0.929 . S
H1540 C1554 0.931 . S
H1541 C1556 0.930 . S
C1542 H1530 0.930 . S
C1542 C1543 1.399 . S
C1542 C1547 1.399 . S
C1543 C1542 1.399 . S
C1543 C1544 1.376 . S
C1544 H1531 0.930 . S
C1544 C1543 1.376 . S
C1544 C1545 1.388 . S
C1545 H1532 0.930 . S
C1545 C1544 1.388 . S
C1545 C1546 1.390 . S
C1546 C1545 1.390 . S
C1546 C1547 1.394 . S
C1546 C1552 1.465 . S
C1547 C1542 1.399 . S
C1547 C1546 1.394 . S
C1547 C1548 1.516 . S
C1548 C1547 1.516 . S
C1548 C1549 1.502 . S
C1548 C1550 1.561 . S
C1548 C1551 1.526 . S
C1549 H1533 0.959 . S
C1549 H1534 0.959 . S
C1549 H1535 0.961 . S
C1549 C1548 1.502 . S
C1550 H1536 0.960 . S
C1550 H1537 0.961 . S
C1550 H1538 0.959 . S
C1550 C1548 1.561 . S
C1551 C1548 1.526 . S
C1551 C1552 1.396 . S
C1551 C1556 1.390 . S
C1552 C1546 1.465 . S
C1552 C1551 1.396 . S
C1552 C1553 1.399 . S
C1553 H1539 0.929 . S
C1553 C1552 1.399 . S
C1553 C1554 1.385 . S
C1554 H1540 0.931 . S
C1554 C1553 1.385 . S
C1554 C1555 1.389 . S
C1555 C1554 1.389 . S
C1555 C1556 1.387 . S
C1556 H1541 0.930 . S
C1556 C1551 1.390 . S
C1556 C1555 1.387 . S
H1557 C1569 0.930 . S
H1558 C1571 0.930 . S
H1559 C1572 0.930 . S
H1560 C1576 0.959 . S
H1561 C1576 0.959 . S
H1562 C1576 0.961 . S
H1563 C1577 0.960 . S
H1564 C1577 0.961 . S
H1565 C1577 0.959 . S
H1566 C1580 0.929 . S
H1567 C1581 0.931 . S
H1568 C1583 0.930 . S
C1569 H1557 0.930 . S
C1569 C1570 1.399 . S
C1569 C1574 1.399 . S
C1570 C1569 1.399 . S
C1570 C1571 1.376 . S
C1571 H1558 0.930 . S
C1571 C1570 1.376 . S
C1571 C1572 1.388 . S
C1572 H1559 0.930 . S
C1572 C1571 1.388 . S
C1572 C1573 1.390 . S
C1573 C1572 1.390 . S
C1573 C1574 1.394 . S
C1573 C1579 1.465 . S
C1574 C1569 1.399 . S
C1574 C1573 1.394 . S
C1574 C1575 1.516 . S
C1575 C1574 1.516 . S
C1575 C1576 1.502 . S
C1575 C1577 1.561 . S
C1575 C1578 1.526 . S
C1576 H1560 0.959 . S
C1576 H1561 0.959 . S
C1576 H1562 0.961 . S
C1576 C1575 1.502 . S
C1577 H1563 0.960 . S
C1577 H1564 0.961 . S
C1577 H1565 0.959 . S
C1577 C1575 1.561 . S
C1578 C1575 1.526 . S
C1578 C1579 1.396 . S
C1578 C1583 1.390 . S
C1579 C1573 1.465 . S
C1579 C1578 1.396 . S
C1579 C1580 1.399 . S
C1580 H1566 0.929 . S
C1580 C1579 1.399 . S
C1580 C1581 1.385 . S
C1581 H1567 0.931 . S
C1581 C1580 1.385 . S
C1581 C1582 1.389 . S
C1582 C1581 1.389 . S
C1582 C1583 1.387 . S
C1583 H1568 0.930 . S
C1583 C1578 1.390 . S
C1583 C1582 1.387 . S
H1584 C1596 0.930 . S
H1585 C1598 0.930 . S
H1586 C1599 0.930 . S
H1587 C1603 0.959 . S
H1588 C1603 0.959 . S
H1589 C1603 0.961 . S
H1590 C1604 0.960 . S
H1591 C1604 0.961 . S
H1592 C1604 0.959 . S
H1593 C1607 0.929 . S
H1594 C1608 0.931 . S
H1595 C1610 0.930 . S
C1596 H1584 0.930 . S
C1596 C1597 1.399 . S
C1596 C1601 1.399 . S
C1597 C1596 1.399 . S
C1597 C1598 1.376 . S
C1598 H1585 0.930 . S
C1598 C1597 1.376 . S
C1598 C1599 1.388 . S
C1599 H1586 0.930 . S
C1599 C1598 1.388 . S
C1599 C1600 1.390 . S
C1600 C1599 1.390 . S
C1600 C1601 1.394 . S
C1600 C1606 1.465 . S
C1601 C1596 1.399 . S
C1601 C1600 1.394 . S
C1601 C1602 1.516 . S
C1602 C1601 1.516 . S
C1602 C1603 1.502 . S
C1602 C1604 1.561 . S
C1602 C1605 1.526 . S
C1603 H1587 0.959 . S
C1603 H1588 0.959 . S
C1603 H1589 0.961 . S
C1603 C1602 1.502 . S
C1604 H1590 0.960 . S
C1604 H1591 0.961 . S
C1604 H1592 0.959 . S
C1604 C1602 1.561 . S
C1605 C1602 1.526 . S
C1605 C1606 1.396 . S
C1605 C1610 1.390 . S
C1606 C1600 1.465 . S
C1606 C1605 1.396 . S
C1606 C1607 1.399 . S
C1607 H1593 0.929 . S
C1607 C1606 1.399 . S
C1607 C1608 1.385 . S
C1608 H1594 0.931 . S
C1608 C1607 1.385 . S
C1608 C1609 1.389 . S
C1609 C1608 1.389 . S
C1609 C1610 1.387 . S
C1610 H1595 0.930 . S
C1610 C1605 1.390 . S
C1610 C1609 1.387 . S
H1611 C1623 0.930 . S
H1612 C1625 0.930 . S
H1613 C1626 0.930 . S
H1614 C1630 0.959 . S
H1615 C1630 0.959 . S
H1616 C1630 0.961 . S
H1617 C1631 0.960 . S
H1618 C1631 0.961 . S
H1619 C1631 0.959 . S
H1620 C1634 0.929 . S
H1621 C1635 0.931 . S
H1622 C1637 0.930 . S
C1623 H1611 0.930 . S
C1623 C1624 1.399 . S
C1623 C1628 1.399 . S
C1624 C1623 1.399 . S
C1624 C1625 1.376 . S
C1625 H1612 0.930 . S
C1625 C1624 1.376 . S
C1625 C1626 1.388 . S
C1626 H1613 0.930 . S
C1626 C1625 1.388 . S
C1626 C1627 1.390 . S
C1627 C1626 1.390 . S
C1627 C1628 1.394 . S
C1627 C1633 1.465 . S
C1628 C1623 1.399 . S
C1628 C1627 1.394 . S
C1628 C1629 1.516 . S
C1629 C1628 1.516 . S
C1629 C1630 1.502 . S
C1629 C1631 1.561 . S
C1629 C1632 1.526 . S
C1630 H1614 0.959 . S
C1630 H1615 0.959 . S
C1630 H1616 0.961 . S
C1630 C1629 1.502 . S
C1631 H1617 0.960 . S
C1631 H1618 0.961 . S
C1631 H1619 0.959 . S
C1631 C1629 1.561 . S
C1632 C1629 1.526 . S
C1632 C1633 1.396 . S
C1632 C1637 1.390 . S
C1633 C1627 1.465 . S
C1633 C1632 1.396 . S
C1633 C1634 1.399 . S
C1634 H1620 0.929 . S
C1634 C1633 1.399 . S
C1634 C1635 1.385 . S
C1635 H1621 0.931 . S
C1635 C1634 1.385 . S
C1635 C1636 1.389 . S
C1636 C1635 1.389 . S
C1636 C1637 1.387 . S
C1637 H1622 0.930 . S
C1637 C1632 1.390 . S
C1637 C1636 1.387 . S
H1638 C1650 0.930 . S
H1639 C1652 0.930 . S
H1640 C1653 0.930 . S
H1641 C1657 0.959 . S
H1642 C1657 0.959 . S
H1643 C1657 0.961 . S
H1644 C1658 0.960 . S
H1645 C1658 0.961 . S
H1646 C1658 0.959 . S
H1647 C1661 0.929 . S
H1648 C1662 0.931 . S
H1649 C1664 0.930 . S
C1650 H1638 0.930 . S
C1650 C1651 1.399 . S
C1650 C1655 1.399 . S
C1651 C1650 1.399 . S
C1651 C1652 1.376 . S
C1652 H1639 0.930 . S
C1652 C1651 1.376 . S
C1652 C1653 1.388 . S
C1653 H1640 0.930 . S
C1653 C1652 1.388 . S
C1653 C1654 1.390 . S
C1654 C1653 1.390 . S
C1654 C1655 1.394 . S
C1654 C1660 1.465 . S
C1655 C1650 1.399 . S
C1655 C1654 1.394 . S
C1655 C1656 1.516 . S
C1656 C1655 1.516 . S
C1656 C1657 1.502 . S
C1656 C1658 1.561 . S
C1656 C1659 1.526 . S
C1657 H1641 0.959 . S
C1657 H1642 0.959 . S
C1657 H1643 0.961 . S
C1657 C1656 1.502 . S
C1658 H1644 0.960 . S
C1658 H1645 0.961 . S
C1658 H1646 0.959 . S
C1658 C1656 1.561 . S
C1659 C1656 1.526 . S
C1659 C1660 1.396 . S
C1659 C1664 1.390 . S
C1660 C1654 1.465 . S
C1660 C1659 1.396 . S
C1660 C1661 1.399 . S
C1661 H1647 0.929 . S
C1661 C1660 1.399 . S
C1661 C1662 1.385 . S
C1662 H1648 0.931 . S
C1662 C1661 1.385 . S
C1662 C1663 1.389 . S
C1663 C1662 1.389 . S
C1663 C1664 1.387 . S
C1664 H1649 0.930 . S
C1664 C1659 1.390 . S
C1664 C1663 1.387 . S
H1665 C1677 0.930 . S
H1666 C1679 0.930 . S
H1667 C1680 0.930 . S
H1668 C1684 0.959 . S
H1669 C1684 0.959 . S
H1670 C1684 0.961 . S
H1671 C1685 0.960 . S
H1672 C1685 0.961 . S
H1673 C1685 0.959 . S
H1674 C1688 0.929 . S
H1675 C1689 0.931 . S
H1676 C1691 0.930 . S
C1677 H1665 0.930 . S
C1677 C1678 1.399 . S
C1677 C1682 1.399 . S
C1678 C1677 1.399 . S
C1678 C1679 1.376 . S
C1679 H1666 0.930 . S
C1679 C1678 1.376 . S
C1679 C1680 1.388 . S
C1680 H1667 0.930 . S
C1680 C1679 1.388 . S
C1680 C1681 1.390 . S
C1681 C1680 1.390 . S
C1681 C1682 1.394 . S
C1681 C1687 1.465 . S
C1682 C1677 1.399 . S
C1682 C1681 1.394 . S
C1682 C1683 1.516 . S
C1683 C1682 1.516 . S
C1683 C1684 1.502 . S
C1683 C1685 1.561 . S
C1683 C1686 1.526 . S
C1684 H1668 0.959 . S
C1684 H1669 0.959 . S
C1684 H1670 0.961 . S
C1684 C1683 1.502 . S
C1685 H1671 0.960 . S
C1685 H1672 0.961 . S
C1685 H1673 0.959 . S
C1685 C1683 1.561 . S
C1686 C1683 1.526 . S
C1686 C1687 1.396 . S
C1686 C1691 1.390 . S
C1687 C1681 1.465 . S
C1687 C1686 1.396 . S
C1687 C1688 1.399 . S
C1688 H1674 0.929 . S
C1688 C1687 1.399 . S
C1688 C1689 1.385 . S
C1689 H1675 0.931 . S
C1689 C1688 1.385 . S
C1689 C1690 1.389 . S
C1690 C1689 1.389 . S
C1690 C1691 1.387 . S
C1691 H1676 0.930 . S
C1691 C1686 1.390 . S
C1691 C1690 1.387 . S
H1692 C1704 0.930 . S
H1693 C1706 0.930 . S
H1694 C1707 0.930 . S
H1695 C1711 0.959 . S
H1696 C1711 0.959 . S
H1697 C1711 0.961 . S
H1698 C1712 0.960 . S
H1699 C1712 0.961 . S
H1700 C1712 0.959 . S
H1701 C1715 0.929 . S
H1702 C1716 0.931 . S
H1703 C1718 0.930 . S
C1704 H1692 0.930 . S
C1704 C1705 1.399 . S
C1704 C1709 1.399 . S
C1705 C1704 1.399 . S
C1705 C1706 1.376 . S
C1706 H1693 0.930 . S
C1706 C1705 1.376 . S
C1706 C1707 1.388 . S
C1707 H1694 0.930 . S
C1707 C1706 1.388 . S
C1707 C1708 1.390 . S
C1708 C1707 1.390 . S
C1708 C1709 1.394 . S
C1708 C1714 1.465 . S
C1709 C1704 1.399 . S
C1709 C1708 1.394 . S
C1709 C1710 1.516 . S
C1710 C1709 1.516 . S
C1710 C1711 1.502 . S
C1710 C1712 1.561 . S
C1710 C1713 1.526 . S
C1711 H1695 0.959 . S
C1711 H1696 0.959 . S
C1711 H1697 0.961 . S
C1711 C1710 1.502 . S
C1712 H1698 0.960 . S
C1712 H1699 0.961 . S
C1712 H1700 0.959 . S
C1712 C1710 1.561 . S
C1713 C1710 1.526 . S
C1713 C1714 1.396 . S
C1713 C1718 1.390 . S
C1714 C1708 1.465 . S
C1714 C1713 1.396 . S
C1714 C1715 1.399 . S
C1715 H1701 0.929 . S
C1715 C1714 1.399 . S
C1715 C1716 1.385 . S
C1716 H1702 0.931 . S
C1716 C1715 1.385 . S
C1716 C1717 1.389 . S
C1717 C1716 1.389 . S
C1717 C1718 1.387 . S
C1718 H1703 0.930 . S
C1718 C1713 1.390 . S
C1718 C1717 1.387 . S
H1719 C1731 0.930 . S
H1720 C1733 0.930 . S
H1721 C1734 0.930 . S
H1722 C1738 0.959 . S
H1723 C1738 0.959 . S
H1724 C1738 0.961 . S
H1725 C1739 0.960 . S
H1726 C1739 0.961 . S
H1727 C1739 0.959 . S
H1728 C1742 0.929 . S
H1729 C1743 0.931 . S
H1730 C1745 0.930 . S
C1731 H1719 0.930 . S
C1731 C1732 1.399 . S
C1731 C1736 1.399 . S
C1732 C1731 1.399 . S
C1732 C1733 1.376 . S
C1733 H1720 0.930 . S
C1733 C1732 1.376 . S
C1733 C1734 1.388 . S
C1734 H1721 0.930 . S
C1734 C1733 1.388 . S
C1734 C1735 1.390 . S
C1735 C1734 1.390 . S
C1735 C1736 1.394 . S
C1735 C1741 1.465 . S
C1736 C1731 1.399 . S
C1736 C1735 1.394 . S
C1736 C1737 1.516 . S
C1737 C1736 1.516 . S
C1737 C1738 1.502 . S
C1737 C1739 1.561 . S
C1737 C1740 1.526 . S
C1738 H1722 0.959 . S
C1738 H1723 0.959 . S
C1738 H1724 0.961 . S
C1738 C1737 1.502 . S
C1739 H1725 0.960 . S
C1739 H1726 0.961 . S
C1739 H1727 0.959 . S
C1739 C1737 1.561 . S
C1740 C1737 1.526 . S
C1740 C1741 1.396 . S
C1740 C1745 1.390 . S
C1741 C1735 1.465 . S
C1741 C1740 1.396 . S
C1741 C1742 1.399 . S
C1742 H1728 0.929 . S
C1742 C1741 1.399 . S
C1742 C1743 1.385 . S
C1743 H1729 0.931 . S
C1743 C1742 1.385 . S
C1743 C1744 1.389 . S
C1744 C1743 1.389 . S
C1744 C1745 1.387 . S
C1745 H1730 0.930 . S
C1745 C1740 1.390 . S
C1745 C1744 1.387 . S
H1746 C1758 0.930 . S
H1747 C1760 0.930 . S
H1748 C1761 0.930 . S
H1749 C1765 0.959 . S
H1750 C1765 0.959 . S
H1751 C1765 0.961 . S
H1752 C1766 0.960 . S
H1753 C1766 0.961 . S
H1754 C1766 0.959 . S
H1755 C1769 0.929 . S
H1756 C1770 0.931 . S
H1757 C1772 0.930 . S
C1758 H1746 0.930 . S
C1758 C1759 1.399 . S
C1758 C1763 1.399 . S
C1759 C1758 1.399 . S
C1759 C1760 1.376 . S
C1760 H1747 0.930 . S
C1760 C1759 1.376 . S
C1760 C1761 1.388 . S
C1761 H1748 0.930 . S
C1761 C1760 1.388 . S
C1761 C1762 1.390 . S
C1762 C1761 1.390 . S
C1762 C1763 1.394 . S
C1762 C1768 1.465 . S
C1763 C1758 1.399 . S
C1763 C1762 1.394 . S
C1763 C1764 1.516 . S
C1764 C1763 1.516 . S
C1764 C1765 1.502 . S
C1764 C1766 1.561 . S
C1764 C1767 1.526 . S
C1765 H1749 0.959 . S
C1765 H1750 0.959 . S
C1765 H1751 0.961 . S
C1765 C1764 1.502 . S
C1766 H1752 0.960 . S
C1766 H1753 0.961 . S
C1766 H1754 0.959 . S
C1766 C1764 1.561 . S
C1767 C1764 1.526 . S
C1767 C1768 1.396 . S
C1767 C1772 1.390 . S
C1768 C1762 1.465 . S
C1768 C1767 1.396 . S
C1768 C1769 1.399 . S
C1769 H1755 0.929 . S
C1769 C1768 1.399 . S
C1769 C1770 1.385 . S
C1770 H1756 0.931 . S
C1770 C1769 1.385 . S
C1770 C1771 1.389 . S
C1771 C1770 1.389 . S
C1771 C1772 1.387 . S
C1772 H1757 0.930 . S
C1772 C1767 1.390 . S
C1772 C1771 1.387 . S
H1773 C1785 0.930 . S
H1774 C1787 0.930 . S
H1775 C1788 0.930 . S
H1776 C1792 0.959 . S
H1777 C1792 0.959 . S
H1778 C1792 0.961 . S
H1779 C1793 0.960 . S
H1780 C1793 0.961 . S
H1781 C1793 0.959 . S
H1782 C1796 0.929 . S
H1783 C1797 0.931 . S
H1784 C1799 0.930 . S
C1785 H1773 0.930 . S
C1785 C1786 1.399 . S
C1785 C1790 1.399 . S
C1786 C1785 1.399 . S
C1786 C1787 1.376 . S
C1787 H1774 0.930 . S
C1787 C1786 1.376 . S
C1787 C1788 1.388 . S
C1788 H1775 0.930 . S
C1788 C1787 1.388 . S
C1788 C1789 1.390 . S
C1789 C1788 1.390 . S
C1789 C1790 1.394 . S
C1789 C1795 1.465 . S
C1790 C1785 1.399 . S
C1790 C1789 1.394 . S
C1790 C1791 1.516 . S
C1791 C1790 1.516 . S
C1791 C1792 1.502 . S
C1791 C1793 1.561 . S
C1791 C1794 1.526 . S
C1792 H1776 0.959 . S
C1792 H1777 0.959 . S
C1792 H1778 0.961 . S
C1792 C1791 1.502 . S
C1793 H1779 0.960 . S
C1793 H1780 0.961 . S
C1793 H1781 0.959 . S
C1793 C1791 1.561 . S
C1794 C1791 1.526 . S
C1794 C1795 1.396 . S
C1794 C1799 1.390 . S
C1795 C1789 1.465 . S
C1795 C1794 1.396 . S
C1795 C1796 1.399 . S
C1796 H1782 0.929 . S
C1796 C1795 1.399 . S
C1796 C1797 1.385 . S
C1797 H1783 0.931 . S
C1797 C1796 1.385 . S
C1797 C1798 1.389 . S
C1798 C1797 1.389 . S
C1798 C1799 1.387 . S
C1799 H1784 0.930 . S
C1799 C1794 1.390 . S
C1799 C1798 1.387 . S
H1800 C1812 0.930 . S
H1801 C1814 0.930 . S
H1802 C1815 0.930 . S
H1803 C1819 0.959 . S
H1804 C1819 0.959 . S
H1805 C1819 0.961 . S
H1806 C1820 0.960 . S
H1807 C1820 0.961 . S
H1808 C1820 0.959 . S
H1809 C1823 0.929 . S
H1810 C1824 0.931 . S
H1811 C1826 0.930 . S
C1812 H1800 0.930 . S
C1812 C1813 1.399 . S
C1812 C1817 1.399 . S
C1813 C1812 1.399 . S
C1813 C1814 1.376 . S
C1814 H1801 0.930 . S
C1814 C1813 1.376 . S
C1814 C1815 1.388 . S
C1815 H1802 0.930 . S
C1815 C1814 1.388 . S
C1815 C1816 1.390 . S
C1816 C1815 1.390 . S
C1816 C1817 1.394 . S
C1816 C1822 1.465 . S
C1817 C1812 1.399 . S
C1817 C1816 1.394 . S
C1817 C1818 1.516 . S
C1818 C1817 1.516 . S
C1818 C1819 1.502 . S
C1818 C1820 1.561 . S
C1818 C1821 1.526 . S
C1819 H1803 0.959 . S
C1819 H1804 0.959 . S
C1819 H1805 0.961 . S
C1819 C1818 1.502 . S
C1820 H1806 0.960 . S
C1820 H1807 0.961 . S
C1820 H1808 0.959 . S
C1820 C1818 1.561 . S
C1821 C1818 1.526 . S
C1821 C1822 1.396 . S
C1821 C1826 1.390 . S
C1822 C1816 1.465 . S
C1822 C1821 1.396 . S
C1822 C1823 1.399 . S
C1823 H1809 0.929 . S
C1823 C1822 1.399 . S
C1823 C1824 1.385 . S
C1824 H1810 0.931 . S
C1824 C1823 1.385 . S
C1824 C1825 1.389 . S
C1825 C1824 1.389 . S
C1825 C1826 1.387 . S
C1826 H1811 0.930 . S
C1826 C1821 1.390 . S
C1826 C1825 1.387 . S
H1827 C1839 0.930 . S
H1828 C1841 0.930 . S
H1829 C1842 0.930 . S
H1830 C1846 0.959 . S
H1831 C1846 0.959 . S
H1832 C1846 0.961 . S
H1833 C1847 0.960 . S
H1834 C1847 0.961 . S
H1835 C1847 0.959 . S
H1836 C1850 0.929 . S
H1837 C1851 0.931 . S
H1838 C1853 0.930 . S
C1839 H1827 0.930 . S
C1839 C1840 1.399 . S
C1839 C1844 1.399 . S
C1840 C1839 1.399 . S
C1840 C1841 1.376 . S
C1841 H1828 0.930 . S
C1841 C1840 1.376 . S
C1841 C1842 1.388 . S
C1842 H1829 0.930 . S
C1842 C1841 1.388 . S
C1842 C1843 1.390 . S
C1843 C1842 1.390 . S
C1843 C1844 1.394 . S
C1843 C1849 1.465 . S
C1844 C1839 1.399 . S
C1844 C1843 1.394 . S
C1844 C1845 1.516 . S
C1845 C1844 1.516 . S
C1845 C1846 1.502 . S
C1845 C1847 1.561 . S
C1845 C1848 1.526 . S
C1846 H1830 0.959 . S
C1846 H1831 0.959 . S
C1846 H1832 0.961 . S
C1846 C1845 1.502 . S
C1847 H1833 0.960 . S
C1847 H1834 0.961 . S
C1847 H1835 0.959 . S
C1847 C1845 1.561 . S
C1848 C1845 1.526 . S
C1848 C1849 1.396 . S
C1848 C1853 1.390 . S
C1849 C1843 1.465 . S
C1849 C1848 1.396 . S
C1849 C1850 1.399 . S
C1850 H1836 0.929 . S
C1850 C1849 1.399 . S
C1850 C1851 1.385 . S
C1851 H1837 0.931 . S
C1851 C1850 1.385 . S
C1851 C1852 1.389 . S
C1852 C1851 1.389 . S
C1852 C1853 1.387 . S
C1853 H1838 0.930 . S
C1853 C1848 1.390 . S
C1853 C1852 1.387 . S
H1854 C1866 0.930 . S
H1855 C1868 0.930 . S
H1856 C1869 0.930 . S
H1857 C1873 0.959 . S
H1858 C1873 0.959 . S
H1859 C1873 0.961 . S
H1860 C1874 0.960 . S
H1861 C1874 0.961 . S
H1862 C1874 0.959 . S
H1863 C1877 0.929 . S
H1864 C1878 0.931 . S
H1865 C1880 0.930 . S
C1866 H1854 0.930 . S
C1866 C1867 1.399 . S
C1866 C1871 1.399 . S
C1867 C1866 1.399 . S
C1867 C1868 1.376 . S
C1868 H1855 0.930 . S
C1868 C1867 1.376 . S
C1868 C1869 1.388 . S
C1869 H1856 0.930 . S
C1869 C1868 1.388 . S
C1869 C1870 1.390 . S
C1870 C1869 1.390 . S
C1870 C1871 1.394 . S
C1870 C1876 1.465 . S
C1871 C1866 1.399 . S
C1871 C1870 1.394 . S
C1871 C1872 1.516 . S
C1872 C1871 1.516 . S
C1872 C1873 1.502 . S
C1872 C1874 1.561 . S
C1872 C1875 1.526 . S
C1873 H1857 0.959 . S
C1873 H1858 0.959 . S
C1873 H1859 0.961 . S
C1873 C1872 1.502 . S
C1874 H1860 0.960 . S
C1874 H1861 0.961 . S
C1874 H1862 0.959 . S
C1874 C1872 1.561 . S
C1875 C1872 1.526 . S
C1875 C1876 1.396 . S
C1875 C1880 1.390 . S
C1876 C1870 1.465 . S
C1876 C1875 1.396 . S
C1876 C1877 1.399 . S
C1877 H1863 0.929 . S
C1877 C1876 1.399 . S
C1877 C1878 1.385 . S
C1878 H1864 0.931 . S
C1878 C1877 1.385 . S
C1878 C1879 1.389 . S
C1879 C1878 1.389 . S
C1879 C1880 1.387 . S
C1880 H1865 0.930 . S
C1880 C1875 1.390 . S
C1880 C1879 1.387 . S
H1881 C1893 0.930 . S
H1882 C1895 0.930 . S
H1883 C1896 0.930 . S
H1884 C1900 0.959 . S
H1885 C1900 0.959 . S
H1886 C1900 0.961 . S
H1887 C1901 0.960 1_556 S
H1888 C1901 0.961 . S
H1889 C1901 0.959 . S
H1890 C1904 0.929 . S
H1891 C1905 0.931 . S
H1892 C1907 0.930 . S
C1893 H1881 0.930 . S
C1893 C1894 1.399 . S
C1893 C1898 1.399 1_556 S
C1894 C1893 1.399 . S
C1894 C1895 1.376 . S
C1895 H1882 0.930 . S
C1895 C1894 1.376 . S
C1895 C1896 1.388 1_556 S
C1896 H1883 0.930 . S
C1896 C1895 1.388 1_554 S
C1896 C1897 1.390 . S
C1897 C1896 1.390 . S
C1897 C1898 1.394 . S
C1897 C1903 1.465 . S
C1898 C1893 1.399 1_554 S
C1898 C1897 1.394 . S
C1898 C1899 1.516 . S
C1899 C1898 1.516 . S
C1899 C1900 1.502 . S
C1899 C1901 1.561 . S
C1899 C1902 1.526 . S
C1900 H1884 0.959 . S
C1900 H1885 0.959 . S
C1900 H1886 0.961 . S
C1900 C1899 1.502 . S
C1901 H1887 0.960 1_554 S
C1901 H1888 0.961 . S
C1901 H1889 0.959 . S
C1901 C1899 1.561 . S
C1902 C1899 1.526 . S
C1902 C1903 1.396 . S
C1902 C1907 1.390 . S
C1903 C1897 1.465 . S
C1903 C1902 1.396 . S
C1903 C1904 1.399 . S
C1904 H1890 0.929 . S
C1904 C1903 1.399 . S
C1904 C1905 1.385 . S
C1905 H1891 0.931 . S
C1905 C1904 1.385 . S
C1905 C1906 1.389 . S
C1906 C1905 1.389 . S
C1906 C1907 1.387 . S
C1907 H1892 0.930 . S
C1907 C1902 1.390 . S
C1907 C1906 1.387 . S
H1908 C1920 0.930 . S
H1909 C1922 0.930 . S
H1910 C1923 0.930 . S
H1911 C1927 0.959 . S
H1912 C1927 0.959 . S
H1913 C1927 0.961 1_556 S
H1914 C1928 0.960 . S
H1915 C1928 0.961 . S
H1916 C1928 0.959 . S
H1917 C1931 0.929 . S
H1918 C1932 0.931 . S
H1919 C1934 0.930 . S
C1920 H1908 0.930 . S
C1920 C1921 1.399 . S
C1920 C1925 1.399 1_556 S
C1921 C1920 1.399 . S
C1921 C1922 1.376 . S
C1922 H1909 0.930 . S
C1922 C1921 1.376 . S
C1922 C1923 1.388 1_556 S
C1923 H1910 0.930 . S
C1923 C1922 1.388 1_554 S
C1923 C1924 1.390 . S
C1924 C1923 1.390 . S
C1924 C1925 1.394 . S
C1924 C1930 1.465 . S
C1925 C1920 1.399 1_554 S
C1925 C1924 1.394 . S
C1925 C1926 1.516 . S
C1926 C1925 1.516 . S
C1926 C1927 1.502 . S
C1926 C1928 1.561 . S
C1926 C1929 1.526 . S
C1927 H1911 0.959 . S
C1927 H1912 0.959 . S
C1927 H1913 0.961 1_554 S
C1927 C1926 1.502 . S
C1928 H1914 0.960 . S
C1928 H1915 0.961 . S
C1928 H1916 0.959 . S
C1928 C1926 1.561 . S
C1929 C1926 1.526 . S
C1929 C1930 1.396 . S
C1929 C1934 1.390 . S
C1930 C1924 1.465 . S
C1930 C1929 1.396 . S
C1930 C1931 1.399 . S
C1931 H1917 0.929 . S
C1931 C1930 1.399 . S
C1931 C1932 1.385 . S
C1932 H1918 0.931 . S
C1932 C1931 1.385 . S
C1932 C1933 1.389 . S
C1933 C1932 1.389 . S
C1933 C1934 1.387 . S
C1934 H1919 0.930 . S
C1934 C1929 1.390 . S
C1934 C1933 1.387 . S
H1935 C1947 0.930 . S
H1936 C1949 0.930 . S
H1937 C1950 0.930 . S
H1938 C1954 0.959 . S
H1939 C1954 0.959 . S
H1940 C1954 0.961 . S
H1941 C1955 0.960 . S
H1942 C1955 0.961 . S
H1943 C1955 0.959 . S
H1944 C1958 0.929 . S
H1945 C1959 0.931 . S
H1946 C1961 0.930 . S
C1947 H1935 0.930 . S
C1947 C1948 1.399 . S
C1947 C1952 1.399 1_556 S
C1948 C1947 1.399 . S
C1948 C1949 1.376 . S
C1949 H1936 0.930 . S
C1949 C1948 1.376 . S
C1949 C1950 1.388 1_556 S
C1950 H1937 0.930 . S
C1950 C1949 1.388 1_554 S
C1950 C1951 1.390 . S
C1951 C1950 1.390 . S
C1951 C1952 1.394 . S
C1951 C1957 1.465 . S
C1952 C1947 1.399 1_554 S
C1952 C1951 1.394 . S
C1952 C1953 1.516 . S
C1953 C1952 1.516 . S
C1953 C1954 1.502 . S
C1953 C1955 1.561 . S
C1953 C1956 1.526 . S
C1954 H1938 0.959 . S
C1954 H1939 0.959 . S
C1954 H1940 0.961 . S
C1954 C1953 1.502 . S
C1955 H1941 0.960 . S
C1955 H1942 0.961 . S
C1955 H1943 0.959 . S
C1955 C1953 1.561 . S
C1956 C1953 1.526 . S
C1956 C1957 1.396 . S
C1956 C1961 1.390 . S
C1957 C1951 1.465 . S
C1957 C1956 1.396 . S
C1957 C1958 1.399 . S
C1958 H1944 0.929 . S
C1958 C1957 1.399 . S
C1958 C1959 1.385 . S
C1959 H1945 0.931 . S
C1959 C1958 1.385 . S
C1959 C1960 1.389 . S
C1960 C1959 1.389 . S
C1960 C1961 1.387 . S
C1961 H1946 0.930 . S
C1961 C1956 1.390 . S
C1961 C1960 1.387 . S
H1962 C1974 0.930 . S
H1963 C1976 0.930 . S
H1964 C1977 0.930 . S
H1965 C1981 0.959 . S
H1966 C1981 0.959 . S
H1967 C1981 0.961 . S
H1968 C1982 0.960 . S
H1969 C1982 0.961 . S
H1970 C1982 0.959 . S
H1971 C1985 0.929 1_556 S
H1972 C1986 0.931 . S
H1973 C1988 0.930 . S
C1974 H1962 0.930 . S
C1974 C1975 1.399 . S
C1974 C1979 1.399 . S
C1975 C1974 1.399 . S
C1975 C1976 1.376 1_554 S
C1976 H1963 0.930 . S
C1976 C1975 1.376 1_556 S
C1976 C1977 1.388 . S
C1977 H1964 0.930 . S
C1977 C1976 1.388 . S
C1977 C1978 1.390 1_556 S
C1978 C1977 1.390 1_554 S
C1978 C1979 1.394 . S
C1978 C1984 1.465 . S
C1979 C1974 1.399 . S
C1979 C1978 1.394 . S
C1979 C1980 1.516 . S
C1980 C1979 1.516 . S
C1980 C1981 1.502 . S
C1980 C1982 1.561 . S
C1980 C1983 1.526 . S
C1981 H1965 0.959 . S
C1981 H1966 0.959 . S
C1981 H1967 0.961 . S
C1981 C1980 1.502 . S
C1982 H1968 0.960 . S
C1982 H1969 0.961 . S
C1982 H1970 0.959 . S
C1982 C1980 1.561 . S
C1983 C1980 1.526 . S
C1983 C1984 1.396 . S
C1983 C1988 1.390 . S
C1984 C1978 1.465 . S
C1984 C1983 1.396 . S
C1984 C1985 1.399 . S
C1985 H1971 0.929 1_554 S
C1985 C1984 1.399 . S
C1985 C1986 1.385 . S
C1986 H1972 0.931 . S
C1986 C1985 1.385 . S
C1986 C1987 1.389 . S
C1987 C1986 1.389 . S
C1987 C1988 1.387 . S
C1988 H1973 0.930 . S
C1988 C1983 1.390 . S
C1988 C1987 1.387 . S
H1989 C2001 0.930 . S
H1990 C2003 0.930 . S
H1991 C2004 0.930 . S
H1992 C2008 0.959 . S
H1993 C2008 0.959 1_556 S
H1994 C2008 0.961 . S
H1995 C2009 0.960 . S
H1996 C2009 0.961 . S
H1997 C2009 0.959 . S
H1998 C2012 0.929 . S
H1999 C2013 0.931 . S
H2000 C2015 0.930 1_556 S
C2001 H1989 0.930 . S
C2001 C2002 1.399 . S
C2001 C2006 1.399 . S
C2002 C2001 1.399 . S
C2002 C2003 1.376 . S
C2003 H1990 0.930 . S
C2003 C2002 1.376 . S
C2003 C2004 1.388 . S
C2004 H1991 0.930 . S
C2004 C2003 1.388 . S
C2004 C2005 1.390 . S
C2005 C2004 1.390 . S
C2005 C2006 1.394 . S
C2005 C2011 1.465 . S
C2006 C2001 1.399 . S
C2006 C2005 1.394 . S
C2006 C2007 1.516 . S
C2007 C2006 1.516 . S
C2007 C2008 1.502 . S
C2007 C2009 1.561 1_554 S
C2007 C2010 1.526 . S
C2008 H1992 0.959 . S
C2008 H1993 0.959 1_554 S
C2008 H1994 0.961 . S
C2008 C2007 1.502 . S
C2009 H1995 0.960 . S
C2009 H1996 0.961 . S
C2009 H1997 0.959 . S
C2009 C2007 1.561 1_556 S
C2010 C2007 1.526 . S
C2010 C2011 1.396 . S
C2010 C2015 1.390 . S
C2011 C2005 1.465 . S
C2011 C2010 1.396 . S
C2011 C2012 1.399 . S
C2012 H1998 0.929 . S
C2012 C2011 1.399 . S
C2012 C2013 1.385 . S
C2013 H1999 0.931 . S
C2013 C2012 1.385 . S
C2013 C2014 1.389 . S
C2014 C2013 1.389 . S
C2014 C2015 1.387 . S
C2015 H2000 0.930 1_554 S
C2015 C2010 1.390 . S
C2015 C2014 1.387 . S
H2016 C2028 0.930 . S
H2017 C2030 0.930 1_556 S
H2018 C2031 0.930 1_556 S
H2019 C2035 0.959 . S
H2020 C2035 0.959 . S
H2021 C2035 0.961 . S
H2022 C2036 0.960 . S
H2023 C2036 0.961 . S
H2024 C2036 0.959 . S
H2025 C2039 0.924 1_556 S
H2026 C2040 0.931 . S
H2027 C2042 0.930 . S
C2028 H2016 0.930 . S
C2028 C2029 1.399 . S
C2028 C2033 1.399 . S
C2029 C2028 1.399 . S
C2029 C2030 1.376 . S
C2030 H2017 0.930 1_554 S
C2030 C2029 1.376 . S
C2030 C2031 1.388 . S
C2031 H2018 0.930 1_554 S
C2031 C2030 1.388 . S
C2031 C2032 1.390 . S
C2032 C2031 1.390 . S
C2032 C2033 1.394 . S
C2032 C2038 1.465 . S
C2033 C2028 1.399 . S
C2033 C2032 1.394 . S
C2033 C2034 1.516 . S
C2034 C2033 1.516 . S
C2034 C2035 1.502 . S
C2034 C2036 1.561 . S
C2034 C2037 1.526 . S
C2035 H2019 0.959 . S
C2035 H2020 0.959 . S
C2035 H2021 0.961 . S
C2035 C2034 1.502 . S
C2036 H2022 0.960 . S
C2036 H2023 0.961 . S
C2036 H2024 0.959 . S
C2036 C2034 1.561 . S
C2037 C2034 1.526 . S
C2037 C2038 1.396 . S
C2037 C2042 1.390 . S
C2038 C2032 1.465 . S
C2038 C2037 1.396 . S
C2038 C2039 1.399 . S
C2039 H2025 0.924 1_554 S
C2039 C2038 1.399 . S
C2039 C2040 1.385 . S
C2040 H2026 0.931 . S
C2040 C2039 1.385 . S
C2040 C2041 1.389 . S
C2041 C2040 1.389 . S
C2041 C2042 1.387 . S
C2042 H2027 0.930 . S
C2042 C2037 1.390 . S
C2042 C2041 1.387 . S
H2043 C2055 0.930 . S
H2044 C2057 0.930 . S
H2045 C2058 0.930 . S
H2046 C2062 0.959 . S
H2047 C2062 0.959 . S
H2048 C2062 0.961 . S
H2049 C2063 0.960 . S
H2050 C2063 0.961 . S
H2051 C2063 0.959 . S
H2052 C2066 0.929 . S
H2053 C2067 0.931 . S
H2054 C2069 0.930 . S
C2055 H2043 0.930 . S
C2055 C2056 1.399 . S
C2055 C2060 1.399 . S
C2056 C2055 1.399 . S
C2056 C2057 1.376 . S
C2057 H2044 0.930 . S
C2057 C2056 1.376 . S
C2057 C2058 1.388 . S
C2058 H2045 0.930 . S
C2058 C2057 1.388 . S
C2058 C2059 1.390 . S
C2059 C2058 1.390 . S
C2059 C2060 1.394 . S
C2059 C2065 1.465 . S
C2060 C2055 1.399 . S
C2060 C2059 1.394 . S
C2060 C2061 1.516 . S
C2061 C2060 1.516 . S
C2061 C2062 1.502 . S
C2061 C2063 1.561 . S
C2061 C2064 1.526 . S
C2062 H2046 0.959 . S
C2062 H2047 0.959 . S
C2062 H2048 0.961 . S
C2062 C2061 1.502 . S
C2063 H2049 0.960 . S
C2063 H2050 0.961 . S
C2063 H2051 0.959 . S
C2063 C2061 1.561 . S
C2064 C2061 1.526 . S
C2064 C2065 1.396 . S
C2064 C2069 1.390 . S
C2065 C2059 1.465 . S
C2065 C2064 1.396 . S
C2065 C2066 1.399 . S
C2066 H2052 0.929 . S
C2066 C2065 1.399 . S
C2066 C2067 1.385 . S
C2067 H2053 0.931 . S
C2067 C2066 1.385 . S
C2067 C2068 1.389 . S
C2068 C2067 1.389 . S
C2068 C2069 1.387 . S
C2069 H2054 0.930 . S
C2069 C2064 1.390 . S
C2069 C2068 1.387 . S
H2070 C2082 0.930 . S
H2071 C2084 0.930 . S
H2072 C2085 0.930 . S
H2073 C2089 0.959 . S
H2074 C2089 0.959 . S
H2075 C2089 0.961 . S
H2076 C2090 0.960 . S
H2077 C2090 0.961 . S
H2078 C2090 0.959 . S
H2079 C2093 0.929 . S
H2080 C2094 0.931 . S
H2081 C2096 0.930 . S
C2082 H2070 0.930 . S
C2082 C2083 1.399 . S
C2082 C2087 1.399 . S
C2083 C2082 1.399 . S
C2083 C2084 1.376 . S
C2084 H2071 0.930 . S
C2084 C2083 1.376 . S
C2084 C2085 1.388 . S
C2085 H2072 0.930 . S
C2085 C2084 1.388 . S
C2085 C2086 1.390 . S
C2086 C2085 1.390 . S
C2086 C2087 1.394 . S
C2086 C2092 1.465 . S
C2087 C2082 1.399 . S
C2087 C2086 1.394 . S
C2087 C2088 1.516 . S
C2088 C2087 1.516 . S
C2088 C2089 1.502 . S
C2088 C2090 1.561 . S
C2088 C2091 1.526 . S
C2089 H2073 0.959 . S
C2089 H2074 0.959 . S
C2089 H2075 0.961 . S
C2089 C2088 1.502 . S
C2090 H2076 0.960 . S
C2090 H2077 0.961 . S
C2090 H2078 0.959 . S
C2090 C2088 1.561 . S
C2091 C2088 1.526 . S
C2091 C2092 1.396 . S
C2091 C2096 1.390 . S
C2092 C2086 1.465 . S
C2092 C2091 1.396 . S
C2092 C2093 1.399 . S
C2093 H2079 0.929 . S
C2093 C2092 1.399 . S
C2093 C2094 1.385 . S
C2094 H2080 0.931 . S
C2094 C2093 1.385 . S
C2094 C2095 1.389 . S
C2095 C2094 1.389 . S
C2095 C2096 1.387 . S
C2096 H2081 0.930 . S
C2096 C2091 1.390 . S
C2096 C2095 1.387 . S
H2097 C2109 0.930 . S
H2098 C2111 0.930 . S
H2099 C2112 0.930 . S
H2100 C2116 0.959 . S
H2101 C2116 0.959 . S
H2102 C2116 0.961 . S
H2103 C2117 0.960 . S
H2104 C2117 0.961 . S
H2105 C2117 0.959 . S
H2106 C2120 0.929 . S
H2107 C2121 0.931 . S
H2108 C2123 0.930 . S
C2109 H2097 0.930 . S
C2109 C2110 1.399 . S
C2109 C2114 1.399 . S
C2110 C2109 1.399 . S
C2110 C2111 1.376 . S
C2111 H2098 0.930 . S
C2111 C2110 1.376 . S
C2111 C2112 1.388 . S
C2112 H2099 0.930 . S
C2112 C2111 1.388 . S
C2112 C2113 1.390 . S
C2113 C2112 1.390 . S
C2113 C2114 1.394 . S
C2113 C2119 1.465 . S
C2114 C2109 1.399 . S
C2114 C2113 1.394 . S
C2114 C2115 1.516 . S
C2115 C2114 1.516 . S
C2115 C2116 1.502 . S
C2115 C2117 1.561 . S
C2115 C2118 1.526 . S
C2116 H2100 0.959 . S
C2116 H2101 0.959 . S
C2116 H2102 0.961 . S
C2116 C2115 1.502 . S
C2117 H2103 0.960 . S
C2117 H2104 0.961 . S
C2117 H2105 0.959 . S
C2117 C2115 1.561 . S
C2118 C2115 1.526 . S
C2118 C2119 1.396 . S
C2118 C2123 1.390 . S
C2119 C2113 1.465 . S
C2119 C2118 1.396 . S
C2119 C2120 1.399 . S
C2120 H2106 0.929 . S
C2120 C2119 1.399 . S
C2120 C2121 1.385 . S
C2121 H2107 0.931 . S
C2121 C2120 1.385 . S
C2121 C2122 1.389 . S
C2122 C2121 1.389 . S
C2122 C2123 1.387 . S
C2123 H2108 0.930 . S
C2123 C2118 1.390 . S
C2123 C2122 1.387 . S
H2124 C2136 0.930 . S
H2125 C2138 0.930 . S
H2126 C2139 0.930 . S
H2127 C2143 0.959 1_556 S
H2128 C2143 0.959 . S
H2129 C2143 0.961 . S
H2130 C2144 0.960 . S
H2131 C2144 0.961 . S
H2132 C2144 0.959 . S
H2133 C2147 0.929 . S
H2134 C2148 0.931 . S
H2135 C2150 0.930 1_554 S
C2136 H2124 0.930 . S
C2136 C2137 1.399 . S
C2136 C2141 1.399 . S
C2137 C2136 1.399 . S
C2137 C2138 1.376 . S
C2138 H2125 0.930 . S
C2138 C2137 1.376 . S
C2138 C2139 1.388 . S
C2139 H2126 0.930 . S
C2139 C2138 1.388 . S
C2139 C2140 1.390 . S
C2140 C2139 1.390 . S
C2140 C2141 1.394 . S
C2140 C2146 1.465 . S
C2141 C2136 1.399 . S
C2141 C2140 1.394 . S
C2141 C2142 1.516 . S
C2142 C2141 1.516 . S
C2142 C2143 1.502 1_556 S
C2142 C2144 1.561 1_556 S
C2142 C2145 1.526 . S
C2143 H2127 0.959 1_554 S
C2143 H2128 0.959 . S
C2143 H2129 0.961 . S
C2143 C2142 1.502 1_554 S
C2144 H2130 0.960 . S
C2144 H2131 0.961 . S
C2144 H2132 0.959 . S
C2144 C2142 1.561 1_554 S
C2145 C2142 1.526 . S
C2145 C2146 1.396 . S
C2145 C2150 1.390 . S
C2146 C2140 1.465 . S
C2146 C2145 1.396 . S
C2146 C2147 1.399 . S
C2147 H2133 0.929 . S
C2147 C2146 1.399 . S
C2147 C2148 1.385 . S
C2148 H2134 0.931 . S
C2148 C2147 1.385 . S
C2148 C2149 1.389 . S
C2149 C2148 1.389 . S
C2149 C2150 1.387 . S
C2150 H2135 0.930 1_556 S
C2150 C2145 1.390 . S
C2150 C2149 1.387 . S
H2151 C2163 0.930 . S
H2152 C2165 0.930 1_554 S
H2153 C2166 0.930 . S
H2154 C2170 0.959 . S
H2155 C2170 0.959 . S
H2156 C2170 0.961 . S
H2157 C2171 0.960 . S
H2158 C2171 0.961 . S
H2159 C2171 0.959 . S
H2160 C2174 0.929 . S
H2161 C2175 0.931 . S
H2162 C2177 0.930 . S
C2163 H2151 0.930 . S
C2163 C2164 1.399 . S
C2163 C2168 1.399 . S
C2164 C2163 1.399 . S
C2164 C2165 1.376 . S
C2165 H2152 0.930 1_556 S
C2165 C2164 1.376 . S
C2165 C2166 1.388 . S
C2166 H2153 0.930 . S
C2166 C2165 1.388 . S
C2166 C2167 1.390 . S
C2167 C2166 1.390 . S
C2167 C2168 1.394 . S
C2167 C2173 1.465 . S
C2168 C2163 1.399 . S
C2168 C2167 1.394 . S
C2168 C2169 1.516 . S
C2169 C2168 1.516 . S
C2169 C2170 1.502 . S
C2169 C2171 1.561 . S
C2169 C2172 1.526 . S
C2170 H2154 0.959 . S
C2170 H2155 0.959 . S
C2170 H2156 0.961 . S
C2170 C2169 1.502 . S
C2171 H2157 0.960 . S
C2171 H2158 0.961 . S
C2171 H2159 0.959 . S
C2171 C2169 1.561 . S
C2172 C2169 1.526 . S
C2172 C2173 1.396 . S
C2172 C2177 1.390 . S
C2173 C2167 1.465 . S
C2173 C2172 1.396 . S
C2173 C2174 1.399 . S
C2174 H2160 0.929 . S
C2174 C2173 1.399 . S
C2174 C2175 1.385 . S
C2175 H2161 0.931 . S
C2175 C2174 1.385 . S
C2175 C2176 1.389 . S
C2176 C2175 1.389 . S
C2176 C2177 1.387 . S
C2177 H2162 0.930 . S
C2177 C2172 1.390 . S
C2177 C2176 1.387 . S
H2178 C2190 0.930 . S
H2179 C2192 0.930 . S
H2180 C2193 0.930 . S
H2181 C2197 0.959 . S
H2182 C2197 0.959 . S
H2183 C2197 0.961 . S
H2184 C2198 0.960 . S
H2185 C2198 0.961 . S
H2186 C2198 0.959 . S
H2187 C2201 0.929 . S
H2188 C2202 0.931 . S
H2189 C2204 0.930 . S
C2190 H2178 0.930 . S
C2190 C2191 1.399 . S
C2190 C2195 1.399 . S
C2191 C2190 1.399 . S
C2191 C2192 1.376 . S
C2192 H2179 0.930 . S
C2192 C2191 1.376 . S
C2192 C2193 1.388 . S
C2193 H2180 0.930 . S
C2193 C2192 1.388 . S
C2193 C2194 1.390 . S
C2194 C2193 1.390 . S
C2194 C2195 1.394 . S
C2194 C2200 1.465 . S
C2195 C2190 1.399 . S
C2195 C2194 1.394 . S
C2195 C2196 1.516 . S
C2196 C2195 1.516 . S
C2196 C2197 1.502 . S
C2196 C2198 1.561 . S
C2196 C2199 1.526 . S
C2197 H2181 0.959 . S
C2197 H2182 0.959 . S
C2197 H2183 0.961 . S
C2197 C2196 1.502 . S
C2198 H2184 0.960 . S
C2198 H2185 0.961 . S
C2198 H2186 0.959 . S
C2198 C2196 1.561 . S
C2199 C2196 1.526 . S
C2199 C2200 1.396 . S
C2199 C2204 1.390 . S
C2200 C2194 1.465 . S
C2200 C2199 1.396 . S
C2200 C2201 1.399 . S
C2201 H2187 0.929 . S
C2201 C2200 1.399 . S
C2201 C2202 1.385 . S
C2202 H2188 0.931 . S
C2202 C2201 1.385 . S
C2202 C2203 1.389 . S
C2203 C2202 1.389 . S
C2203 C2204 1.387 . S
C2204 H2189 0.930 . S
C2204 C2199 1.390 . S
C2204 C2203 1.387 . S
H2205 C2217 0.930 . S
H2206 C2219 0.930 . S
H2207 C2220 0.930 . S
H2208 C2224 0.959 . S
H2209 C2224 0.959 . S
H2210 C2224 0.961 . S
H2211 C2225 0.960 . S
H2212 C2225 0.961 . S
H2213 C2225 0.959 . S
H2214 C2228 0.929 . S
H2215 C2229 0.931 . S
H2216 C2231 0.930 . S
C2217 H2205 0.930 . S
C2217 C2218 1.399 . S
C2217 C2222 1.399 . S
C2218 C2217 1.399 . S
C2218 C2219 1.376 . S
C2219 H2206 0.930 . S
C2219 C2218 1.376 . S
C2219 C2220 1.388 . S
C2220 H2207 0.930 . S
C2220 C2219 1.388 . S
C2220 C2221 1.390 . S
C2221 C2220 1.390 . S
C2221 C2222 1.394 . S
C2221 C2227 1.465 . S
C2222 C2217 1.399 . S
C2222 C2221 1.394 . S
C2222 C2223 1.516 . S
C2223 C2222 1.516 . S
C2223 C2224 1.502 . S
C2223 C2225 1.561 . S
C2223 C2226 1.526 . S
C2224 H2208 0.959 . S
C2224 H2209 0.959 . S
C2224 H2210 0.961 . S
C2224 C2223 1.502 . S
C2225 H2211 0.960 . S
C2225 H2212 0.961 . S
C2225 H2213 0.959 . S
C2225 C2223 1.561 . S
C2226 C2223 1.526 . S
C2226 C2227 1.396 . S
C2226 C2231 1.390 . S
C2227 C2221 1.465 . S
C2227 C2226 1.396 . S
C2227 C2228 1.399 . S
C2228 H2214 0.929 . S
C2228 C2227 1.399 . S
C2228 C2229 1.385 . S
C2229 H2215 0.931 . S
C2229 C2228 1.385 . S
C2229 C2230 1.389 . S
C2230 C2229 1.389 . S
C2230 C2231 1.387 . S
C2231 H2216 0.930 . S
C2231 C2226 1.390 . S
C2231 C2230 1.387 . S
H2232 C2244 0.930 . S
H2233 C2246 0.930 . S
H2234 C2247 0.930 . S
H2235 C2251 0.959 . S
H2236 C2251 0.959 . S
H2237 C2251 0.961 . S
H2238 C2252 0.960 . S
H2239 C2252 0.961 . S
H2240 C2252 0.959 . S
H2241 C2255 0.929 . S
H2242 C2256 0.931 . S
H2243 C2258 0.930 . S
C2244 H2232 0.930 . S
C2244 C2245 1.399 . S
C2244 C2249 1.399 . S
C2245 C2244 1.399 . S
C2245 C2246 1.376 . S
C2246 H2233 0.930 . S
C2246 C2245 1.376 . S
C2246 C2247 1.388 . S
C2247 H2234 0.930 . S
C2247 C2246 1.388 . S
C2247 C2248 1.390 . S
C2248 C2247 1.390 . S
C2248 C2249 1.394 . S
C2248 C2254 1.465 . S
C2249 C2244 1.399 . S
C2249 C2248 1.394 . S
C2249 C2250 1.516 . S
C2250 C2249 1.516 . S
C2250 C2251 1.502 . S
C2250 C2252 1.561 . S
C2250 C2253 1.526 . S
C2251 H2235 0.959 . S
C2251 H2236 0.959 . S
C2251 H2237 0.961 . S
C2251 C2250 1.502 . S
C2252 H2238 0.960 . S
C2252 H2239 0.961 . S
C2252 H2240 0.959 . S
C2252 C2250 1.561 . S
C2253 C2250 1.526 . S
C2253 C2254 1.396 . S
C2253 C2258 1.390 . S
C2254 C2248 1.465 . S
C2254 C2253 1.396 . S
C2254 C2255 1.399 . S
C2255 H2241 0.929 . S
C2255 C2254 1.399 . S
C2255 C2256 1.385 . S
C2256 H2242 0.931 . S
C2256 C2255 1.385 . S
C2256 C2257 1.389 . S
C2257 C2256 1.389 . S
C2257 C2258 1.387 . S
C2258 H2243 0.930 . S
C2258 C2253 1.390 . S
C2258 C2257 1.387 . S
H2259 C2271 0.930 . S
H2260 C2273 0.930 . S
H2261 C2274 0.930 . S
H2262 C2278 0.959 . S
H2263 C2278 0.959 . S
H2264 C2278 0.961 . S
H2265 C2279 0.960 . S
H2266 C2279 0.961 . S
H2267 C2279 0.959 . S
H2268 C2282 0.929 . S
H2269 C2283 0.931 . S
H2270 C2285 0.930 . S
C2271 H2259 0.930 . S
C2271 C2272 1.399 . S
C2271 C2276 1.399 . S
C2272 C2271 1.399 . S
C2272 C2273 1.376 . S
C2273 H2260 0.930 . S
C2273 C2272 1.376 . S
C2273 C2274 1.388 . S
C2274 H2261 0.930 . S
C2274 C2273 1.388 . S
C2274 C2275 1.390 . S
C2275 C2274 1.390 . S
C2275 C2276 1.394 . S
C2275 C2281 1.465 . S
C2276 C2271 1.399 . S
C2276 C2275 1.394 . S
C2276 C2277 1.516 . S
C2277 C2276 1.516 . S
C2277 C2278 1.502 . S
C2277 C2279 1.561 . S
C2277 C2280 1.526 . S
C2278 H2262 0.959 . S
C2278 H2263 0.959 . S
C2278 H2264 0.961 . S
C2278 C2277 1.502 . S
C2279 H2265 0.960 . S
C2279 H2266 0.961 . S
C2279 H2267 0.959 . S
C2279 C2277 1.561 . S
C2280 C2277 1.526 . S
C2280 C2281 1.396 . S
C2280 C2285 1.390 . S
C2281 C2275 1.465 . S
C2281 C2280 1.396 . S
C2281 C2282 1.399 . S
C2282 H2268 0.929 . S
C2282 C2281 1.399 . S
C2282 C2283 1.385 . S
C2283 H2269 0.931 . S
C2283 C2282 1.385 . S
C2283 C2284 1.389 . S
C2284 C2283 1.389 . S
C2284 C2285 1.387 . S
C2285 H2270 0.930 . S
C2285 C2280 1.390 . S
C2285 C2284 1.387 . S
H2286 C2298 0.930 . S
H2287 C2300 0.930 . S
H2288 C2301 0.930 . S
H2289 C2305 0.969 . S
H2290 C2305 0.959 . S
H2291 C2305 0.961 1_455 S
H2292 C2306 0.960 1_455 S
H2293 C2306 0.961 . S
H2294 C2306 0.959 . S
H2295 C2309 0.929 . S
H2296 C2310 0.931 . S
H2297 C2312 0.930 . S
C2298 H2286 0.930 . S
C2298 C2299 1.399 . S
C2298 C2303 1.399 . S
C2299 C2298 1.399 . S
C2299 C2300 1.376 . S
C2300 H2287 0.930 . S
C2300 C2299 1.376 . S
C2300 C2301 1.388 . S
C2301 H2288 0.930 . S
C2301 C2300 1.388 . S
C2301 C2302 1.390 . S
C2302 C2301 1.390 . S
C2302 C2303 1.394 . S
C2302 C2308 1.465 1_455 S
C2303 C2298 1.399 . S
C2303 C2302 1.394 . S
C2303 C2304 1.516 1_455 S
C2304 C2303 1.516 1_655 S
C2304 C2305 1.502 . S
C2304 C2306 1.561 . S
C2304 C2307 1.526 . S
C2305 H2289 0.969 . S
C2305 H2290 0.959 . S
C2305 H2291 0.961 1_655 S
C2305 C2304 1.502 . S
C2306 H2292 0.960 1_655 S
C2306 H2293 0.961 . S
C2306 H2294 0.959 . S
C2306 C2304 1.561 . S
C2307 C2304 1.526 . S
C2307 C2308 1.396 . S
C2307 C2312 1.390 . S
C2308 C2302 1.465 1_655 S
C2308 C2307 1.396 . S
C2308 C2309 1.399 . S
C2309 H2295 0.929 . S
C2309 C2308 1.399 . S
C2309 C2310 1.385 . S
C2310 H2296 0.931 . S
C2310 C2309 1.385 . S
C2310 C2311 1.389 . S
C2311 C2310 1.389 . S
C2311 C2312 1.387 . S
C2312 H2297 0.930 . S
C2312 C2307 1.390 . S
C2312 C2311 1.387 . S
H2313 C2325 0.930 . S
H2314 C2327 0.930 . S
H2315 C2328 0.930 . S
H2316 C2332 0.959 . S
H2317 C2332 0.959 . S
H2318 C2332 0.961 . S
H2319 C2333 0.960 . S
H2320 C2333 0.961 . S
H2321 C2333 0.959 . S
H2322 C2336 0.929 . S
H2323 C2337 0.931 . S
H2324 C2339 0.930 . S
C2325 H2313 0.930 . S
C2325 C2326 1.399 . S
C2325 C2330 1.399 . S
C2326 C2325 1.399 . S
C2326 C2327 1.376 . S
C2327 H2314 0.930 . S
C2327 C2326 1.376 . S
C2327 C2328 1.388 . S
C2328 H2315 0.930 . S
C2328 C2327 1.388 . S
C2328 C2329 1.390 . S
C2329 C2328 1.390 . S
C2329 C2330 1.394 . S
C2329 C2335 1.465 . S
C2330 C2325 1.399 . S
C2330 C2329 1.394 . S
C2330 C2331 1.516 . S
C2331 C2330 1.516 . S
C2331 C2332 1.502 . S
C2331 C2333 1.561 . S
C2331 C2334 1.526 . S
C2332 H2316 0.959 . S
C2332 H2317 0.959 . S
C2332 H2318 0.961 . S
C2332 C2331 1.502 . S
C2333 H2319 0.960 . S
C2333 H2320 0.961 . S
C2333 H2321 0.959 . S
C2333 C2331 1.561 . S
C2334 C2331 1.526 . S
C2334 C2335 1.396 . S
C2334 C2339 1.390 . S
C2335 C2329 1.465 . S
C2335 C2334 1.396 . S
C2335 C2336 1.399 . S
C2336 H2322 0.929 . S
C2336 C2335 1.399 . S
C2336 C2337 1.385 . S
C2337 H2323 0.931 . S
C2337 C2336 1.385 . S
C2337 C2338 1.389 . S
C2338 C2337 1.389 . S
C2338 C2339 1.387 . S
C2339 H2324 0.930 . S
C2339 C2334 1.390 . S
C2339 C2338 1.387 . S
H2340 C2352 0.930 . S
H2341 C2354 0.930 . S
H2342 C2355 0.930 . S
H2343 C2359 0.959 . S
H2344 C2359 0.959 . S
H2345 C2359 0.961 1_565 S
H2346 C2360 0.960 1_565 S
H2347 C2360 0.961 . S
H2348 C2360 0.959 . S
H2349 C2363 0.929 . S
H2350 C2364 0.931 . S
H2351 C2366 0.930 . S
C2352 H2340 0.930 . S
C2352 C2353 1.399 . S
C2352 C2357 1.399 . S
C2353 C2352 1.399 . S
C2353 C2354 1.376 . S
C2354 H2341 0.930 . S
C2354 C2353 1.376 . S
C2354 C2355 1.388 . S
C2355 H2342 0.930 . S
C2355 C2354 1.388 . S
C2355 C2356 1.390 . S
C2356 C2355 1.390 . S
C2356 C2357 1.394 . S
C2356 C2362 1.465 1_565 S
C2357 C2352 1.399 . S
C2357 C2356 1.394 . S
C2357 C2358 1.516 1_565 S
C2358 C2357 1.516 1_545 S
C2358 C2359 1.502 . S
C2358 C2360 1.561 . S
C2358 C2361 1.526 . S
C2359 H2343 0.959 . S
C2359 H2344 0.959 . S
C2359 H2345 0.961 1_545 S
C2359 C2358 1.502 . S
C2360 H2346 0.960 1_545 S
C2360 H2347 0.961 . S
C2360 H2348 0.959 . S
C2360 C2358 1.561 . S
C2361 C2358 1.526 . S
C2361 C2362 1.396 . S
C2361 C2366 1.390 . S
C2362 C2356 1.465 1_545 S
C2362 C2361 1.396 . S
C2362 C2363 1.399 . S
C2363 H2349 0.929 . S
C2363 C2362 1.399 . S
C2363 C2364 1.385 . S
C2364 H2350 0.931 . S
C2364 C2363 1.385 . S
C2364 C2365 1.389 . S
C2365 C2364 1.389 . S
C2365 C2366 1.387 . S
C2366 H2351 0.930 . S
C2366 C2361 1.390 . S
C2366 C2365 1.387 . S
H2367 C2379 0.930 . S
H2368 C2381 0.930 . S
H2369 C2382 0.930 . S
H2370 C2386 0.959 . S
H2371 C2386 0.959 . S
H2372 C2386 0.961 1_545 S
H2373 C2387 0.960 1_545 S
H2374 C2387 0.961 . S
H2375 C2387 0.959 . S
H2376 C2390 0.929 . S
H2377 C2391 0.931 . S
H2378 C2393 0.930 . S
C2379 H2367 0.930 . S
C2379 C2380 1.399 . S
C2379 C2384 1.399 . S
C2380 C2379 1.399 . S
C2380 C2381 1.376 . S
C2381 H2368 0.930 . S
C2381 C2380 1.376 . S
C2381 C2382 1.388 . S
C2382 H2369 0.930 . S
C2382 C2381 1.388 . S
C2382 C2383 1.390 . S
C2383 C2382 1.390 . S
C2383 C2384 1.394 . S
C2383 C2389 1.465 1_545 S
C2384 C2379 1.399 . S
C2384 C2383 1.394 . S
C2384 C2385 1.516 1_545 S
C2385 C2384 1.516 1_565 S
C2385 C2386 1.502 . S
C2385 C2387 1.561 . S
C2385 C2388 1.526 . S
C2386 H2370 0.959 . S
C2386 H2371 0.959 . S
C2386 H2372 0.961 1_565 S
C2386 C2385 1.502 . S
C2387 H2373 0.960 1_565 S
C2387 H2374 0.961 . S
C2387 H2375 0.959 . S
C2387 C2385 1.561 . S
C2388 C2385 1.526 . S
C2388 C2389 1.396 . S
C2388 C2393 1.390 . S
C2389 C2383 1.465 1_565 S
C2389 C2388 1.396 . S
C2389 C2390 1.399 . S
C2390 H2376 0.929 . S
C2390 C2389 1.399 . S
C2390 C2391 1.385 . S
C2391 H2377 0.931 . S
C2391 C2390 1.385 . S
C2391 C2392 1.389 . S
C2392 C2391 1.389 . S
C2392 C2393 1.387 . S
C2393 H2378 0.930 . S
C2393 C2388 1.390 . S
C2393 C2392 1.387 . S
H2394 C2406 0.930 . S
H2395 C2408 0.930 . S
H2396 C2409 0.930 . S
H2397 C2413 0.960 1_455 S
H2398 C2413 0.959 . S
H2399 C2413 0.961 1_455 S
H2400 C2414 0.960 1_455 S
H2401 C2414 0.961 . S
H2402 C2414 0.959 . S
H2403 C2417 0.929 . S
H2404 C2418 0.931 . S
H2405 C2420 0.930 . S
C2406 H2394 0.930 . S
C2406 C2407 1.399 . S
C2406 C2411 1.399 . S
C2407 C2406 1.399 . S
C2407 C2408 1.376 . S
C2408 H2395 0.930 . S
C2408 C2407 1.376 . S
C2408 C2409 1.388 . S
C2409 H2396 0.930 . S
C2409 C2408 1.388 . S
C2409 C2410 1.390 . S
C2410 C2409 1.390 . S
C2410 C2411 1.394 . S
C2410 C2416 1.465 1_455 S
C2411 C2406 1.399 . S
C2411 C2410 1.394 . S
C2411 C2412 1.516 1_455 S
C2412 C2411 1.516 1_655 S
C2412 C2413 1.502 . S
C2412 C2414 1.561 . S
C2412 C2415 1.526 . S
C2413 H2397 0.960 1_655 S
C2413 H2398 0.959 . S
C2413 H2399 0.961 1_655 S
C2413 C2412 1.502 . S
C2414 H2400 0.960 1_655 S
C2414 H2401 0.961 . S
C2414 H2402 0.959 . S
C2414 C2412 1.561 . S
C2415 C2412 1.526 . S
C2415 C2416 1.396 . S
C2415 C2420 1.390 . S
C2416 C2410 1.465 1_655 S
C2416 C2415 1.396 . S
C2416 C2417 1.399 . S
C2417 H2403 0.929 . S
C2417 C2416 1.399 . S
C2417 C2418 1.385 . S
C2418 H2404 0.931 . S
C2418 C2417 1.385 . S
C2418 C2419 1.389 . S
C2419 C2418 1.389 . S
C2419 C2420 1.387 . S
C2420 H2405 0.930 . S
C2420 C2415 1.390 . S
C2420 C2419 1.387 . S
H2421 C2433 0.930 . S
H2422 C2435 0.930 . S
H2423 C2436 0.930 . S
H2424 C2440 0.959 . S
H2425 C2440 0.959 . S
H2426 C2440 0.961 . S
H2427 C2441 0.960 . S
H2428 C2441 0.961 . S
H2429 C2441 0.959 . S
H2430 C2444 0.929 . S
H2431 C2445 0.931 . S
H2432 C2447 0.930 . S
C2433 H2421 0.930 . S
C2433 C2434 1.399 . S
C2433 C2438 1.399 . S
C2434 C2433 1.399 . S
C2434 C2435 1.376 . S
C2435 H2422 0.930 . S
C2435 C2434 1.376 . S
C2435 C2436 1.388 . S
C2436 H2423 0.930 . S
C2436 C2435 1.388 . S
C2436 C2437 1.390 . S
C2437 C2436 1.390 . S
C2437 C2438 1.394 . S
C2437 C2443 1.465 . S
C2438 C2433 1.399 . S
C2438 C2437 1.394 . S
C2438 C2439 1.516 . S
C2439 C2438 1.516 . S
C2439 C2440 1.502 . S
C2439 C2441 1.561 . S
C2439 C2442 1.526 . S
C2440 H2424 0.959 . S
C2440 H2425 0.959 . S
C2440 H2426 0.961 . S
C2440 C2439 1.502 . S
C2441 H2427 0.960 . S
C2441 H2428 0.961 . S
C2441 H2429 0.959 . S
C2441 C2439 1.561 . S
C2442 C2439 1.526 . S
C2442 C2443 1.396 . S
C2442 C2447 1.390 . S
C2443 C2437 1.465 . S
C2443 C2442 1.396 . S
C2443 C2444 1.399 . S
C2444 H2430 0.929 . S
C2444 C2443 1.399 . S
C2444 C2445 1.385 . S
C2445 H2431 0.931 . S
C2445 C2444 1.385 . S
C2445 C2446 1.389 . S
C2446 C2445 1.389 . S
C2446 C2447 1.387 . S
C2447 H2432 0.930 . S
C2447 C2442 1.390 . S
C2447 C2446 1.387 . S
C517 C53 1.119 . S
C529 C11 1.124 . S
C544 C67 1.104 . S
C556 C25 1.109 . S
C571 C81 1.100 . S
C583 C39 1.102 . S
C598 C95 1.130 . S
C610 C137 1.129 . S
C625 C109 1.120 . S
C637 C151 1.117 . S
C652 C165 1.104 . S
C664 C123 1.107 . S
C679 C179 1.121 . S
C691 C221 1.113 . S
C706 C193 1.121 . S
C718 C235 1.123 . S
C733 C207 1.115 . S
C745 C249 1.107 . S
C760 C263 1.109 . S
C772 C305 1.108 . S
C787 C319 1.102 . S
C799 C277 1.103 . S
C814 C291 1.098 . S
C826 C333 1.097 . S
C841 C347 1.121 . S
C853 C389 1.113 . S
C868 C361 1.121 . S
C880 C403 1.116 . S
C895 C417 1.092 . S
C907 C375 1.097 . S
C922 C473 1.122 . S
C934 C431 1.123 . S
C949 C487 1.105 . S
C961 C445 1.104 . S
C976 C501 1.122 . S
C988 C459 1.123 . S
C1003 C163 1.541 . S
C1015 C5 1.545 . S
C1030 C19 1.546 . S
C1042 C135 1.542 . S
C1057 C33 1.540 . S
C1069 C149 1.534 . S
C1084 C107 1.550 . S
C1096 C47 1.541 . S
C1111 C61 1.545 . S
C1123 C121 1.540 . S
C1138 C93 1.537 . S
C1150 C75 1.526 . S
C1165 C89 1.521 . S
C1177 C79 1.529 . S
C1192 C103 1.518 . S
C1204 C51 1.526 . S
C1219 C65 1.527 . S
C1231 C117 1.519 . S
C1246 C23 1.533 . S
C1258 C131 1.526 . S
C1273 C37 1.551 . S
C1285 C145 1.552 . S
C1300 C159 1.525 . S
C1312 C9 1.533 . S
C1327 C173 1.523 . S
C1339 C331 1.526 . S
C1354 C303 1.527 . S
C1366 C187 1.518 . S
C1381 C317 1.528 . S
C1393 C201 1.524 . S
C1408 C215 1.546 . S
C1420 C275 1.546 . S
C1435 C289 1.527 . S
C1447 C229 1.531 . S
C1462 C243 1.542 . S
C1474 C261 1.547 . S
C1489 C257 1.539 . S
C1501 C247 1.539 . S
C1516 C271 1.542 . S
C1528 C219 1.542 . S
C1543 C233 1.543 . S
C1555 C285 1.544 . S
C1570 C191 1.560 . S
C1582 C299 1.563 . S
C1597 C205 1.557 . S
C1609 C313 1.560 . S
C1624 C327 1.541 . S
C1636 C177 1.549 . S
C1651 C499 1.539 . S
C1663 C341 1.544 . S
C1678 C355 1.533 . S
C1690 C471 1.528 . S
C1705 C369 1.518 . S
C1717 C485 1.526 . S
C1732 C383 1.535 . S
C1744 C443 1.545 . S
C1759 C457 1.558 . S
C1771 C397 1.563 . S
C1786 C411 1.559 . S
C1798 C429 1.564 . S
C1813 C415 1.525 . S
C1825 C425 1.520 . S
C1840 C387 1.513 . S
C1852 C439 1.509 . S
C1867 C401 1.508 . S
C1879 C453 1.500 . S
C1894 C359 1.546 . S
C1906 C467 1.546 . S
C1921 C373 1.527 . S
C1933 C481 1.525 . S
C1948 C345 1.526 . S
C1960 C495 1.522 . S
C1975 C406 1.317 . S
C1987 C0 1.340 . S
C2002 C14 1.309 . S
C2014 C378 1.326 . S
C2029 C392 1.311 . S
C2041 C28 1.330 . S
C2056 C42 1.317 . S
C2068 C182 1.341 . S
C2083 C196 1.344 . S
C2095 C56 1.369 . S
C2110 C70 1.384 . S
C2122 C168 1.370 . S
C2137 C84 1.363 . S
C2149 C322 1.366 . S
C2164 C294 1.382 . S
C2176 C98 1.383 . S
C2191 C112 1.307 . S
C2203 C308 1.309 . S
C2218 C126 1.362 . S
C2230 C434 1.365 . S
C2245 C140 1.340 . S
C2257 C448 1.343 . S
C2272 C420 1.353 . S
C2284 C154 1.357 . S
C2299 C350 1.386 . S
C2311 C210 1.377 . S
C2326 C364 1.315 . S
C2338 C224 1.310 . S
C2353 C336 1.374 . S
C2365 C238 1.349 . S
C2380 C252 1.318 . S
C2392 C490 1.317 . S
C2407 C462 1.310 . S
C2419 C266 1.311 . S
C2434 C280 1.381 . S
C2446 C476 1.382 . S
