# Generated by pormake.
# Topology umc, (4)-cn, num edge types: 1
# Building blocks:
#     Node 0, Type 0, BuildingBlock: QUQFOY_clean_sbu_3, # of connection points: 4
#     Node 1, Type 0, BuildingBlock: QUQFOY_clean_sbu_3, # of connection points: 4
#     Node 2, Type 0, BuildingBlock: QUQFOY_clean_sbu_3, # of connection points: 4
#     Node 3, Type 0, BuildingBlock: QUQFOY_clean_sbu_3, # of connection points: 4
#     Node 4, Type 0, BuildingBlock: QUQFOY_clean_sbu_3, # of connection points: 4
#     Node 5, Type 0, BuildingBlock: QUQFOY_clean_sbu_3, # of connection points: 4
#     Node 6, Type 0, BuildingBlock: QUQFOY_clean_sbu_3, # of connection points: 4
#     Node 7, Type 0, BuildingBlock: QUQFOY_clean_sbu_3, # of connection points: 4
#     Node 8, Type 0, BuildingBlock: QUQFOY_clean_sbu_3, # of connection points: 4
#     Node 9, Type 0, BuildingBlock: QUQFOY_clean_sbu_3, # of connection points: 4
#     Node 10, Type 0, BuildingBlock: QUQFOY_clean_sbu_3, # of connection points: 4
#     Node 11, Type 0, BuildingBlock: QUQFOY_clean_sbu_3, # of connection points: 4
#     Node 12, Type 0, BuildingBlock: QUQFOY_clean_sbu_3, # of connection points: 4
#     Node 13, Type 0, BuildingBlock: QUQFOY_clean_sbu_3, # of connection points: 4
#     Node 14, Type 0, BuildingBlock: QUQFOY_clean_sbu_3, # of connection points: 4
#     Node 15, Type 0, BuildingBlock: QUQFOY_clean_sbu_3, # of connection points: 4
#     Edge 16, Type (0, 0), BuildingBlock: KIFKEQ_clean_linker_1, # of connection points: 2
#     Edge 17, Type (0, 0), BuildingBlock: KIFKEQ_clean_linker_1, # of connection points: 2
#     Edge 18, Type (0, 0), BuildingBlock: KIFKEQ_clean_linker_1, # of connection points: 2
#     Edge 19, Type (0, 0), BuildingBlock: KIFKEQ_clean_linker_1, # of connection points: 2
#     Edge 20, Type (0, 0), BuildingBlock: KIFKEQ_clean_linker_1, # of connection points: 2
#     Edge 21, Type (0, 0), BuildingBlock: KIFKEQ_clean_linker_1, # of connection points: 2
#     Edge 22, Type (0, 0), BuildingBlock: KIFKEQ_clean_linker_1, # of connection points: 2
#     Edge 23, Type (0, 0), BuildingBlock: KIFKEQ_clean_linker_1, # of connection points: 2
#     Edge 24, Type (0, 0), BuildingBlock: KIFKEQ_clean_linker_1, # of connection points: 2
#     Edge 25, Type (0, 0), BuildingBlock: KIFKEQ_clean_linker_1, # of connection points: 2
#     Edge 26, Type (0, 0), BuildingBlock: KIFKEQ_clean_linker_1, # of connection points: 2
#     Edge 27, Type (0, 0), BuildingBlock: KIFKEQ_clean_linker_1, # of connection points: 2
#     Edge 28, Type (0, 0), BuildingBlock: KIFKEQ_clean_linker_1, # of connection points: 2
#     Edge 29, Type (0, 0), BuildingBlock: KIFKEQ_clean_linker_1, # of connection points: 2
#     Edge 30, Type (0, 0), BuildingBlock: KIFKEQ_clean_linker_1, # of connection points: 2
#     Edge 31, Type (0, 0), BuildingBlock: KIFKEQ_clean_linker_1, # of connection points: 2
#     Edge 32, Type (0, 0), BuildingBlock: KIFKEQ_clean_linker_1, # of connection points: 2
#     Edge 33, Type (0, 0), BuildingBlock: KIFKEQ_clean_linker_1, # of connection points: 2
#     Edge 34, Type (0, 0), BuildingBlock: KIFKEQ_clean_linker_1, # of connection points: 2
#     Edge 35, Type (0, 0), BuildingBlock: KIFKEQ_clean_linker_1, # of connection points: 2
#     Edge 36, Type (0, 0), BuildingBlock: KIFKEQ_clean_linker_1, # of connection points: 2
#     Edge 37, Type (0, 0), BuildingBlock: KIFKEQ_clean_linker_1, # of connection points: 2
#     Edge 38, Type (0, 0), BuildingBlock: KIFKEQ_clean_linker_1, # of connection points: 2
#     Edge 39, Type (0, 0), BuildingBlock: KIFKEQ_clean_linker_1, # of connection points: 2
#     Edge 40, Type (0, 0), BuildingBlock: KIFKEQ_clean_linker_1, # of connection points: 2
#     Edge 41, Type (0, 0), BuildingBlock: KIFKEQ_clean_linker_1, # of connection points: 2
#     Edge 42, Type (0, 0), BuildingBlock: KIFKEQ_clean_linker_1, # of connection points: 2
#     Edge 43, Type (0, 0), BuildingBlock: KIFKEQ_clean_linker_1, # of connection points: 2
#     Edge 44, Type (0, 0), BuildingBlock: KIFKEQ_clean_linker_1, # of connection points: 2
#     Edge 45, Type (0, 0), BuildingBlock: KIFKEQ_clean_linker_1, # of connection points: 2
#     Edge 46, Type (0, 0), BuildingBlock: KIFKEQ_clean_linker_1, # of connection points: 2
#     Edge 47, Type (0, 0), BuildingBlock: KIFKEQ_clean_linker_1, # of connection points: 2
# Relax obj value: 0.085
# Max RMSD: 0.168
# Mean RMSD: 0.168
data_MOF--net-umc--node1-QUQFOY_clean_sbu_3--edge1-KIFKEQ_clean_linker_1
_symmetry_space_group_name_H-M    P1
_symmetry_Int_Tables_number       1
_symmetry_cell_setting            triclinic
loop_
_symmetry_equiv_pos_as_xyz
'x, y, z'
_cell_length_a     45.539121
_cell_length_b     35.450088
_cell_length_c     59.183458
_cell_angle_alpha  90.302707
_cell_angle_beta   90.25838
_cell_angle_gamma 89.985421
loop_
_atom_site_label
_atom_site_type_symbol
_atom_site_fract_x
_atom_site_fract_y
_atom_site_fract_z
_atom_type_partial_charge
C0 C 0.296 0.99251 0.30626 0.0
O1 O 0.29962 0.96185 0.31686 0.0
Cd2 Cd 0.31851 0.96166 0.3548 0.0
O3 O 0.30115 0.02391 0.31596 0.0
Cd4 Cd 0.31637 0.0482 0.35319 0.0
C5 C 0.38338 0.0099 0.34742 0.0
O6 O 0.29205 0.00404 0.37913 0.0
O7 O 0.32905 0.03595 0.39208 0.0
O8 O 0.27558 0.09213 0.34992 0.0
C9 C 0.30763 0.01415 0.39593 0.0
O10 O 0.37026 0.97933 0.35239 0.0
C11 C 0.29029 0.12177 0.35401 0.0
O12 O 0.36886 0.0403 0.34456 0.0
O13 O 0.31764 0.11751 0.35761 0.0
C14 C 0.6895 0.01135 0.30496 0.0
O15 O 0.69029 0.04416 0.31356 0.0
Cd16 Cd 0.67263 0.05063 0.35173 0.0
O17 O 0.68248 0.98334 0.31704 0.0
Cd18 Cd 0.67113 0.96629 0.35579 0.0
C19 C 0.60541 0.00652 0.34841 0.0
O20 O 0.69978 0.01203 0.37816 0.0
O21 O 0.66269 0.98532 0.39443 0.0
O22 O 0.71081 0.92159 0.35117 0.0
C23 C 0.68572 0.00524 0.39617 0.0
O24 O 0.61963 0.03723 0.35092 0.0
C25 C 0.69665 0.89253 0.35709 0.0
O26 O 0.61887 0.97501 0.34795 0.0
O27 O 0.67001 0.89746 0.36282 0.0
C28 C 0.28349 0.9912 0.13779 0.0
O29 O 0.28805 0.02093 0.12639 0.0
Cd30 Cd 0.30014 0.02162 0.08669 0.0
O31 O 0.28501 0.95872 0.12858 0.0
Cd32 Cd 0.29455 0.92726 0.09228 0.0
C33 C 0.36339 0.9675 0.09001 0.0
O34 O 0.26978 0.97469 0.06993 0.0
O35 O 0.28875 0.92851 0.05126 0.0
O36 O 0.25586 0.88405 0.10373 0.0
C37 C 0.27518 0.95971 0.05092 0.0
O38 O 0.3505 0.99873 0.0861 0.0
C39 C 0.27005 0.85408 0.09932 0.0
O40 O 0.34865 0.93757 0.09399 0.0
O41 O 0.29609 0.85807 0.09202 0.0
C42 C 0.67237 0.97395 0.13841 0.0
O43 O 0.67223 0.94135 0.12948 0.0
Cd44 Cd 0.65388 0.9355 0.09134 0.0
O45 O 0.66489 0.00248 0.12688 0.0
Cd46 Cd 0.65094 0.02118 0.0888 0.0
C47 C 0.58566 0.97703 0.09337 0.0
O48 O 0.68084 0.97704 0.06675 0.0
O49 O 0.64565 0.00577 0.04903 0.0
O50 O 0.69064 0.06636 0.09077 0.0
C51 C 0.66858 0.98545 0.04814 0.0
O52 O 0.60069 0.94691 0.09127 0.0
C53 C 0.67509 0.09591 0.08951 0.0
O54 O 0.59837 0.00904 0.09433 0.0
O55 O 0.64749 0.09122 0.08748 0.0
C56 C 0.71325 0.00818 0.64236 0.0
O57 O 0.7087 0.0377 0.63078 0.0
Cd58 Cd 0.69302 0.0359 0.59172 0.0
O59 O 0.70968 0.9756 0.63367 0.0
Cd60 Cd 0.69573 0.94459 0.59818 0.0
C61 C 0.62802 0.98728 0.5976 0.0
O62 O 0.72121 0.98824 0.57305 0.0
O63 O 0.69516 0.94392 0.55749 0.0
O64 O 0.73567 0.90065 0.60485 0.0
C65 C 0.7122 0.97187 0.5552 0.0
O66 O 0.64165 0.01756 0.59283 0.0
C67 C 0.7201 0.87098 0.60436 0.0
O68 O 0.64209 0.95681 0.60159 0.0
O69 O 0.69261 0.87537 0.60151 0.0
C70 C 0.32326 0.98238 0.6457 0.0
O71 O 0.32659 0.95108 0.63552 0.0
Cd72 Cd 0.33964 0.95131 0.5958 0.0
O73 O 0.32689 0.01323 0.63532 0.0
Cd74 Cd 0.33847 0.04097 0.59914 0.0
C75 C 0.40566 0.99797 0.59866 0.0
O76 O 0.30947 0.99652 0.57594 0.0
O77 O 0.33524 0.03913 0.55877 0.0
O78 O 0.3003 0.08341 0.61187 0.0
C79 C 0.31709 0.01212 0.55761 0.0
O80 O 0.39155 0.96757 0.59489 0.0
C81 C 0.31375 0.11382 0.60754 0.0
O82 O 0.39202 0.02894 0.60212 0.0
O83 O 0.33938 0.11071 0.59925 0.0
C84 C 0.72205 0.01565 0.81107 0.0
O85 O 0.71773 0.98556 0.82218 0.0
Cd86 Cd 0.70567 0.98261 0.86183 0.0
O87 O 0.72041 0.04785 0.82062 0.0
Cd88 Cd 0.71069 0.07674 0.85764 0.0
C89 C 0.64214 0.03589 0.85964 0.0
O90 O 0.73579 0.02875 0.87956 0.0
O91 O 0.71576 0.07389 0.8985 0.0
O92 O 0.74895 0.12184 0.84798 0.0
C93 C 0.72989 0.04314 0.89864 0.0
O94 O 0.65514 0.00461 0.86315 0.0
C95 C 0.73411 0.15095 0.85314 0.0
O96 O 0.65674 0.066 0.85588 0.0
O97 O 0.70789 0.14559 0.85972 0.0
C98 C 0.33578 0.02931 0.81146 0.0
O99 O 0.33702 0.06275 0.8191 0.0
Cd100 Cd 0.35235 0.07116 0.85786 0.0
O101 O 0.34151 0.00171 0.82429 0.0
Cd102 Cd 0.3538 0.98756 0.86343 0.0
C103 C 0.41986 0.02872 0.85844 0.0
O104 O 0.32287 0.0337 0.88337 0.0
O105 O 0.35779 0.00721 0.90253 0.0
O106 O 0.31455 0.94301 0.85757 0.0
C107 C 0.33447 0.02677 0.90245 0.0
O108 O 0.40525 0.05925 0.85997 0.0
C109 C 0.32798 0.91395 0.86446 0.0
O110 O 0.40665 0.99703 0.85763 0.0
O111 O 0.35426 0.91866 0.87134 0.0
C112 C 0.79018 0.49867 0.31699 0.0
O113 O 0.7952 0.46983 0.32903 0.0
Cd114 Cd 0.82042 0.47451 0.36486 0.0
O115 O 0.79751 0.53132 0.32397 0.0
Cd116 Cd 0.81971 0.5626 0.35694 0.0
C117 C 0.88445 0.51779 0.34796 0.0
O118 O 0.80065 0.52386 0.38818 0.0
O119 O 0.83639 0.56241 0.39529 0.0
O120 O 0.77903 0.60667 0.35453 0.0
C121 C 0.81782 0.53891 0.40264 0.0
O122 O 0.8712 0.48905 0.35575 0.0
C123 C 0.7945 0.63641 0.35426 0.0
O124 O 0.8707 0.54878 0.34487 0.0
O125 O 0.82223 0.63207 0.35478 0.0
C126 C 0.19993 0.50637 0.3175 0.0
O127 O 0.19665 0.5376 0.32771 0.0
Cd128 Cd 0.17103 0.53742 0.36341 0.0
O129 O 0.19065 0.47611 0.32628 0.0
Cd130 Cd 0.16741 0.45187 0.36009 0.0
C131 C 0.10483 0.49824 0.34805 0.0
O132 O 0.18918 0.49152 0.39025 0.0
O133 O 0.14925 0.46068 0.39759 0.0
O134 O 0.20718 0.40684 0.3589 0.0
C135 C 0.17051 0.48057 0.40472 0.0
O136 O 0.1191 0.52701 0.35496 0.0
C137 C 0.19156 0.37729 0.35942 0.0
O138 O 0.1175 0.46625 0.34623 0.0
O139 O 0.16388 0.38199 0.36048 0.0
C140 C 0.78062 0.48291 0.15111 0.0
O141 O 0.78616 0.51197 0.13943 0.0
Cd142 Cd 0.81036 0.50926 0.10334 0.0
O143 O 0.78634 0.45013 0.14346 0.0
Cd144 Cd 0.80591 0.4194 0.10938 0.0
C145 C 0.87257 0.45964 0.11918 0.0
O146 O 0.78974 0.46206 0.07914 0.0
O147 O 0.82388 0.42151 0.07151 0.0
O148 O 0.76331 0.37857 0.10626 0.0
C149 C 0.80686 0.44737 0.06463 0.0
O150 O 0.86019 0.48978 0.11237 0.0
C151 C 0.77702 0.34769 0.10866 0.0
O152 O 0.85785 0.42915 0.1213 0.0
O153 O 0.8046 0.34987 0.11206 0.0
C154 C 0.18998 0.46988 0.15475 0.0
O155 O 0.18646 0.43806 0.14525 0.0
Cd156 Cd 0.16044 0.43673 0.10955 0.0
O157 O 0.18021 0.49951 0.14546 0.0
Cd158 Cd 0.15533 0.52021 0.11126 0.0
C159 C 0.09327 0.47324 0.12308 0.0
O160 O 0.17942 0.48105 0.08208 0.0
O161 O 0.13853 0.50871 0.07335 0.0
O162 O 0.19348 0.56745 0.11213 0.0
C163 C 0.16127 0.49115 0.06689 0.0
O164 O 0.1079 0.44459 0.11657 0.0
C165 C 0.17698 0.59607 0.11047 0.0
O166 O 0.10567 0.50538 0.12487 0.0
O167 O 0.1495 0.58985 0.1091 0.0
C168 C 0.21015 0.50364 0.65634 0.0
O169 O 0.20421 0.53152 0.64377 0.0
Cd170 Cd 0.17884 0.52307 0.60824 0.0
O171 O 0.2036 0.47032 0.65011 0.0
Cd172 Cd 0.18197 0.43605 0.61811 0.0
C173 C 0.11608 0.47808 0.6263 0.0
O174 O 0.20011 0.47339 0.58593 0.0
O175 O 0.16533 0.43295 0.57982 0.0
O176 O 0.22393 0.39434 0.62144 0.0
C177 C 0.18347 0.45644 0.57187 0.0
O178 O 0.12852 0.50688 0.61783 0.0
C179 C 0.20942 0.36385 0.62224 0.0
O180 O 0.13069 0.44798 0.63005 0.0
O181 O 0.18157 0.36672 0.62169 0.0
C182 C 0.79842 0.48794 0.65621 0.0
O183 O 0.80253 0.45557 0.64758 0.0
Cd184 Cd 0.82915 0.45142 0.61231 0.0
O185 O 0.8078 0.5171 0.64626 0.0
Cd186 Cd 0.8332 0.53579 0.61212 0.0
C187 C 0.89551 0.49018 0.62631 0.0
O188 O 0.81216 0.49377 0.58292 0.0
O189 O 0.85327 0.52209 0.57564 0.0
O190 O 0.79588 0.58308 0.60544 0.0
C191 C 0.83157 0.50289 0.56855 0.0
O192 O 0.88131 0.46072 0.6205 0.0
C193 C 0.81219 0.61162 0.60849 0.0
O194 O 0.8828 0.52225 0.62672 0.0
O195 O 0.83908 0.60526 0.61298 0.0
C196 C 0.21935 0.52604 0.82172 0.0
O197 O 0.21426 0.49716 0.83368 0.0
Cd198 Cd 0.19051 0.50065 0.86991 0.0
O199 O 0.21344 0.5589 0.82913 0.0
Cd200 Cd 0.19454 0.59091 0.86294 0.0
C201 C 0.12812 0.54983 0.85367 0.0
O202 O 0.21226 0.54873 0.89284 0.0
O203 O 0.17928 0.59013 0.9016 0.0
O204 O 0.23703 0.63206 0.86094 0.0
C205 C 0.19618 0.56375 0.90791 0.0
O206 O 0.14054 0.51994 0.86083 0.0
C207 C 0.22277 0.66282 0.86108 0.0
O208 O 0.14277 0.58029 0.85121 0.0
O209 O 0.1949 0.66034 0.8616 0.0
C210 C 0.80967 0.53786 0.81694 0.0
O211 O 0.81346 0.56976 0.82626 0.0
Cd212 Cd 0.84036 0.57027 0.86172 0.0
O213 O 0.81991 0.50838 0.82608 0.0
Cd214 Cd 0.84617 0.48679 0.85931 0.0
C215 C 0.90765 0.5351 0.84748 0.0
O216 O 0.82236 0.52489 0.88913 0.0
O217 O 0.86294 0.49603 0.89741 0.0
O218 O 0.80836 0.43935 0.85768 0.0
C219 C 0.84054 0.51405 0.90412 0.0
O220 O 0.89288 0.56345 0.85426 0.0
C221 C 0.82506 0.41078 0.85799 0.0
O222 O 0.89546 0.50286 0.84553 0.0
O223 O 0.85252 0.41712 0.85934 0.0
H224 H 0.25554 0.00708 0.41803 0.0
H225 H 0.34891 0.98984 0.4252 0.0
H226 H 0.2493 0.9954 0.45868 0.0
H227 H 0.34262 0.97681 0.46533 0.0
H228 H 0.32311 0.94469 0.53618 0.0
H229 H 0.31386 0.93273 0.4958 0.0
H230 H 0.2749 0.04325 0.48968 0.0
H231 H 0.28511 0.05554 0.52963 0.0
C232 C 0.27448 0.99945 0.42816 0.0
C233 C 0.30271 0.99965 0.41876 0.0
C234 C 0.27092 0.99274 0.45128 0.0
C235 C 0.29547 0.98499 0.46496 0.0
C236 C 0.32332 0.98217 0.45506 0.0
C237 C 0.32696 0.98994 0.4322 0.0
C238 C 0.31161 0.96571 0.52628 0.0
C239 C 0.30478 0.00097 0.53571 0.0
C240 C 0.30635 0.95892 0.50331 0.0
C241 C 0.29356 0.98703 0.4898 0.0
C242 C 0.28435 0.02095 0.49984 0.0
C243 C 0.29032 0.02807 0.52259 0.0
H244 H 0.7278 0.93029 0.51893 0.0
H245 H 0.71097 0.04461 0.54069 0.0
H246 H 0.73007 0.95123 0.47972 0.0
H247 H 0.71194 0.06542 0.5011 0.0
H248 H 0.65381 0.03082 0.43144 0.0
H249 H 0.66964 0.03404 0.47091 0.0
H250 H 0.75774 0.00415 0.45113 0.0
H251 H 0.74212 0.00246 0.41136 0.0
C252 C 0.72535 0.96006 0.51528 0.0
C253 C 0.71915 0.98592 0.5326 0.0
C254 C 0.72686 0.97206 0.49295 0.0
C255 C 0.72135 0.0099 0.48756 0.0
C256 C 0.71662 0.0362 0.505 0.0
C257 C 0.71602 0.02433 0.52751 0.0
C258 C 0.6768 0.02648 0.43547 0.0
C259 C 0.69678 0.01623 0.41856 0.0
C260 C 0.68588 0.02857 0.45797 0.0
C261 C 0.71486 0.01941 0.46388 0.0
C262 C 0.73536 0.0117 0.44682 0.0
C263 C 0.72644 0.01072 0.42418 0.0
H264 H 0.28374 0.03484 0.04388 0.0
H265 H 0.26111 0.93064 0.01001 0.0
H266 H 0.29116 0.06505 0.00713 0.0
H267 H 0.26742 0.96109 0.97345 0.0
H268 H 0.27554 0.02555 0.90986 0.0
H269 H 0.25167 0.02024 0.94676 0.0
H270 H 0.33507 0.03906 0.97985 0.0
H271 H 0.35902 0.04307 0.94312 0.0
C272 C 0.27916 0.01893 0.02859 0.0
C273 C 0.27211 0.98041 0.02961 0.0
C274 C 0.2834 0.03618 0.00765 0.0
C275 C 0.27975 0.01535 -0.01242 0.0
C276 C 0.26999 0.97786 -0.0113 0.0
C277 C 0.26656 0.96038 0.00956 0.0
C278 C 0.2885 0.02994 0.92503 0.0
C279 C 0.3191 0.03433 0.92379 0.0
C280 C 0.27487 0.02688 0.94607 0.0
C281 C 0.29159 0.02927 0.96602 0.0
C282 C 0.32167 0.03756 0.96469 0.0
C283 C 0.33539 0.03961 0.94372 0.0
H284 H 0.71498 0.96995 0.90593 0.0
H285 H 0.74895 0.06978 0.93885 0.0
H286 H 0.70559 0.94164 0.94296 0.0
H287 H 0.74072 0.04103 0.97568 0.0
H288 H 0.72703 0.97789 0.0397 0.0
H289 H 0.7505 0.9795 0.00252 0.0
H290 H 0.66524 0.97644 0.97045 0.0
H291 H 0.64177 0.97609 0.00746 0.0
C292 C 0.72173 0.98499 0.92106 0.0
C293 C 0.73257 0.02197 0.91974 0.0
C294 C 0.71631 0.96887 0.94215 0.0
C295 C 0.72252 0.98921 0.96203 0.0
C296 C 0.73612 0.02464 0.96057 0.0
C297 C 0.74072 0.04113 0.93957 0.0
C298 C 0.71339 0.97636 0.02468 0.0
C299 C 0.68263 0.97735 0.02633 0.0
C300 C 0.72681 0.97722 0.00349 0.0
C301 C 0.70961 0.97796 -0.01623 0.0
C302 C 0.67894 0.97539 -0.01455 0.0
C303 C 0.66553 0.97552 0.00658 0.0
H304 H 0.87512 0.49477 0.53811 0.0
H305 H 0.78067 0.49472 0.54415 0.0
H306 H 0.87061 0.49598 0.49716 0.0
H307 H 0.77607 0.4972 0.50287 0.0
H308 H 0.78349 0.48622 0.42416 0.0
H309 H 0.78592 0.46837 0.46422 0.0
H310 H 0.85475 0.55044 0.47501 0.0
H311 H 0.85264 0.56774 0.43559 0.0
C312 C 0.85337 0.49438 0.53061 0.0
C313 C 0.82824 0.49531 0.54421 0.0
C314 C 0.85077 0.49523 0.50719 0.0
C315 C 0.823 0.4977 0.49687 0.0
C316 C 0.79775 0.49537 0.51039 0.0
C317 C 0.80037 0.49401 0.53397 0.0
C318 C 0.79911 0.50031 0.43518 0.0
C319 C 0.81799 0.52821 0.42671 0.0
C320 C 0.80047 0.49013 0.45804 0.0
C321 C 0.82089 0.50753 0.47262 0.0
C322 C 0.83933 0.53576 0.46409 0.0
C323 C 0.83793 0.54592 0.44148 0.0
H324 H 0.21594 0.50952 0.54905 0.0
H325 H 0.15137 0.42143 0.53946 0.0
H326 H 0.21375 0.52337 0.50841 0.0
H327 H 0.14955 0.43478 0.49947 0.0
H328 H 0.12672 0.48566 0.4351 0.0
H329 H 0.13113 0.48652 0.47603 0.0
H330 H 0.22558 0.49231 0.47049 0.0
H331 H 0.22103 0.49265 0.42912 0.0
C332 C 0.20141 0.49311 0.5383 0.0
C333 C 0.18364 0.46462 0.54745 0.0
C334 C 0.2002 0.50099 0.51512 0.0
C335 C 0.18108 0.48062 0.50089 0.0
C336 C 0.16392 0.45167 0.51009 0.0
C337 C 0.16513 0.44383 0.53304 0.0
C338 C 0.14841 0.48788 0.4426 0.0
C339 C 0.17357 0.48841 0.42905 0.0
C340 C 0.15094 0.48824 0.46602 0.0
C341 C 0.17873 0.48849 0.4764 0.0
C342 C 0.2039 0.49203 0.4629 0.0
C343 C 0.20131 0.49215 0.43929 0.0
H344 H 0.88041 0.5136 0.93807 0.0
H345 H 0.78717 0.52043 0.92505 0.0
H346 H 0.87089 0.50424 0.97806 0.0
H347 H 0.77755 0.51004 0.96529 0.0
H348 H 0.77704 0.50632 0.04483 0.0
H349 H 0.78436 0.53134 0.0066 0.0
H350 H 0.85009 0.4459 -0.00569 0.0
H351 H 0.84308 0.42134 0.03195 0.0
C352 C 0.85787 0.51378 0.94387 0.0
C353 C 0.8345 0.51705 0.92848 0.0
C354 C 0.85242 0.50829 0.96673 0.0
C355 C 0.82348 0.50547 0.97464 0.0
C356 C 0.80007 0.51204 0.95961 0.0
C357 C 0.80557 0.51793 0.93662 0.0
C358 C 0.79298 0.49297 0.03386 0.0
C359 C 0.80962 0.46203 0.04143 0.0
C360 C 0.79714 0.50726 0.01206 0.0
C361 C 0.81818 0.491 -0.00232 0.0
C362 C 0.83426 0.45966 0.0052 0.0
C363 C 0.83005 0.44538 0.02676 0.0
H364 H 0.2151 0.48554 0.04659 0.0
H365 H 0.12207 0.4913 0.03248 0.0
H366 H 0.22545 0.49724 0.00659 0.0
H367 H 0.13236 0.50219 -0.00726 0.0
H368 H 0.22568 0.50345 0.92648 0.0
H369 H 0.21841 0.47661 0.96429 0.0
H370 H 0.15412 0.56294 0.97864 0.0
H371 H 0.1612 0.58946 0.94146 0.0
C372 C 0.19692 0.48802 0.03483 0.0
C373 C 0.16781 0.4883 0.04261 0.0
C374 C 0.20284 0.49468 0.01198 0.0
C375 C 0.17968 0.50147 -0.00323 0.0
C376 C 0.15061 0.49789 0.00426 0.0
C377 C 0.14473 0.49156 0.02697 0.0
C378 C 0.21013 0.51667 0.93782 0.0
C379 C 0.19385 0.54838 0.93096 0.0
C380 C 0.20599 0.50132 0.95937 0.0
C381 C 0.18529 0.51728 0.97413 0.0
C382 C 0.16968 0.54948 0.96738 0.0
C383 C 0.17393 0.56485 0.94611 0.0
H384 H 0.56886 0.06638 0.35626 0.0
H385 H 0.56843 0.9492 0.33582 0.0
H386 H 0.51546 0.06752 0.35461 0.0
H387 H 0.51506 0.95069 0.33332 0.0
H388 H 0.41962 0.06658 0.33257 0.0
H389 H 0.47321 0.06598 0.33073 0.0
H390 H 0.47402 0.95278 0.35753 0.0
H391 H 0.42084 0.95291 0.35858 0.0
C392 C 0.55739 0.04095 0.35116 0.0
C393 C 0.57295 0.0076 0.34635 0.0
C394 C 0.52671 0.04168 0.35005 0.0
C395 C 0.51081 0.00917 0.34391 0.0
C396 C 0.52647 0.97608 0.33855 0.0
C397 C 0.55713 0.97525 0.33987 0.0
C398 C 0.43129 0.04151 0.33793 0.0
C399 C 0.41588 0.0098 0.34569 0.0
C400 C 0.46203 0.04122 0.337 0.0
C401 C 0.47806 0.0093 0.34396 0.0
C402 C 0.46253 0.9776 0.3516 0.0
C403 C 0.43191 0.97778 0.35235 0.0
H404 H 0.40041 0.02228 0.07516 0.0
H405 H 0.40035 0.9118 0.10566 0.0
H406 H 0.45358 0.02351 0.07662 0.0
H407 H 0.45399 0.91353 0.10777 0.0
H408 H 0.55111 0.91493 0.08594 0.0
H409 H 0.49772 0.9115 0.08535 0.0
H410 H 0.49301 0.02993 0.10267 0.0
H411 H 0.54641 0.03362 0.10253 0.0
C412 C 0.41174 0.99825 0.08231 0.0
C413 C 0.39601 0.96696 0.09036 0.0
C414 C 0.44235 0.99911 0.08331 0.0
C415 C 0.45821 0.96884 0.09256 0.0
C416 C 0.44254 0.93724 0.10037 0.0
C417 C 0.41177 0.93627 0.09922 0.0
C418 C 0.53871 0.94024 0.08969 0.0
C419 C 0.55311 0.97464 0.09413 0.0
C420 C 0.50802 0.9382 0.08948 0.0
C421 C 0.49093 0.97045 0.09382 0.0
C422 C 0.5054 0.00465 0.09878 0.0
C423 C 0.53607 0.00675 0.09884 0.0
H424 H 0.59197 0.04556 0.58593 0.0
H425 H 0.59007 0.93142 0.61117 0.0
H426 H 0.53877 0.04798 0.58682 0.0
H427 H 0.5365 0.93426 0.61268 0.0
H428 H 0.44425 0.05434 0.61065 0.0
H429 H 0.49778 0.05117 0.61173 0.0
H430 H 0.49434 0.93555 0.58836 0.0
H431 H 0.44105 0.93835 0.58791 0.0
C432 C 0.58023 0.02099 0.59184 0.0
C433 C 0.59541 0.98823 0.59845 0.0
C434 C 0.54961 0.02252 0.59251 0.0
C435 C 0.53322 0.99142 0.59991 0.0
C436 C 0.54837 0.95863 0.60662 0.0
C437 C 0.57911 0.95702 0.60585 0.0
C438 C 0.45493 0.02824 0.60577 0.0
C439 C 0.43827 0.99666 0.59917 0.0
C440 C 0.48565 0.02644 0.6063 0.0
C441 C 0.50048 0.99307 0.60012 0.0
C442 C 0.48376 0.96151 0.59359 0.0
C443 C 0.4531 0.96325 0.59317 0.0
H444 H 0.60501 0.09173 0.84458 0.0
H445 H 0.60539 0.98092 0.87464 0.0
H446 H 0.55136 0.09028 0.84322 0.0
H447 H 0.55216 0.97998 0.87398 0.0
H448 H 0.45507 0.09 0.86606 0.0
H449 H 0.50847 0.0926 0.86625 0.0
H450 H 0.51184 0.97413 0.8488 0.0
H451 H 0.45841 0.97127 0.84939 0.0
C452 C 0.59367 0.06724 0.85108 0.0
C453 C 0.60954 0.0364 0.85961 0.0
C454 C 0.5629 0.06643 0.85037 0.0
C455 C 0.54733 0.03486 0.85834 0.0
C456 C 0.56331 0.00438 0.86721 0.0
C457 C 0.59394 0.00507 0.86775 0.0
C458 C 0.46719 0.06449 0.86223 0.0
C459 C 0.45241 0.03035 0.85783 0.0
C460 C 0.49787 0.06605 0.8622 0.0
C461 C 0.51459 0.03358 0.85762 0.0
C462 C 0.49975 0.99958 0.85284 0.0
C463 C 0.46906 0.99795 0.85304 0.0
H464 H 0.9219 0.57225 0.33167 0.0
H465 H 0.91979 0.45673 0.35461 0.0
H466 H 0.97516 0.56781 0.32738 0.0
H467 H 0.97262 0.45275 0.35108 0.0
H468 H 0.07033 0.56028 0.35484 0.0
H469 H 0.01738 0.56513 0.35126 0.0
H470 H 0.01364 0.45024 0.32662 0.0
H471 H 0.06679 0.44493 0.33099 0.0
C472 C 0.93271 0.54589 0.33569 0.0
C473 C 0.9165 0.51497 0.34361 0.0
C474 C 0.96328 0.54338 0.33335 0.0
C475 C 0.97833 0.50993 0.33895 0.0
C476 C 0.9619 0.47877 0.34623 0.0
C477 C 0.93147 0.48121 0.34846 0.0
C478 C 0.05832 0.53608 0.34845 0.0
C479 C 0.07287 0.50203 0.34345 0.0
C480 C 0.02785 0.539 0.34622 0.0
C481 C 0.01106 0.50803 0.33878 0.0
C482 C 0.02577 0.47447 0.33282 0.0
C483 C 0.05629 0.47146 0.3352 0.0
H484 H 0.05544 0.52544 0.14114 0.0
H485 H 0.05846 0.41216 0.11395 0.0
H486 H 1.00223 0.52069 0.14439 0.0
H487 H 0.00532 0.40792 0.11638 0.0
H488 H 0.90874 0.40213 0.13383 0.0
H489 H 0.96208 0.40428 0.13896 0.0
H490 H 0.96215 0.52138 0.11898 0.0
H491 H 0.9094 0.5196 0.11464 0.0
C492 C 0.04479 0.49947 0.13594 0.0
C493 C 0.06125 0.46935 0.12708 0.0
C494 C 0.01422 0.49678 0.13768 0.0
C495 C 0.99931 0.46406 0.13039 0.0
C496 C 0.01595 0.4334 0.1224 0.0
C497 C 0.04651 0.43596 0.12085 0.0
C498 C 0.92017 0.42839 0.13079 0.0
C499 C 0.90469 0.4606 0.12374 0.0
C500 C 0.95077 0.42961 0.13362 0.0
C501 C 0.96655 0.46303 0.12939 0.0
C502 C 0.95087 0.49532 0.12283 0.0
C503 C 0.92045 0.49416 0.12012 0.0
H504 H 0.93094 0.42863 0.62061 0.0
H505 H 0.93256 0.54497 0.64273 0.0
H506 H 0.98404 0.42544 0.6242 0.0
H507 H 0.98575 0.54138 0.64714 0.0
H508 H 0.08005 0.4228 0.64349 0.0
H509 H 0.0267 0.42527 0.64785 0.0
H510 H 0.02637 0.53932 0.62239 0.0
H511 H 0.07922 0.53731 0.61877 0.0
C512 C 0.94256 0.45338 0.62665 0.0
C513 C 0.92746 0.48723 0.63111 0.0
C514 C 0.9731 0.45144 0.62887 0.0
C515 C 0.98934 0.48323 0.63578 0.0
C516 C 0.97405 0.51655 0.64132 0.0
C517 C 0.94351 0.51858 0.63891 0.0
C518 C 0.06857 0.44852 0.6391 0.0
C519 C 0.08399 0.47975 0.63067 0.0
C520 C 0.03796 0.44989 0.64148 0.0
C521 C 0.0221 0.48249 0.63543 0.0
C522 C 0.03773 0.51395 0.6276 0.0
C523 C 0.06819 0.51265 0.62533 0.0
H524 H 0.09217 0.60675 0.838 0.0
H525 H 0.09123 0.49003 0.85874 0.0
H526 H 0.03896 0.60431 0.83224 0.0
H527 H 0.03854 0.48798 0.85371 0.0
H528 H 0.94594 0.48292 0.82998 0.0
H529 H 0.9992 0.48787 0.82738 0.0
H530 H 0.9952 0.6012 0.85447 0.0
H531 H 0.94201 0.59674 0.8563 0.0
C532 C 0.0807 0.58059 0.84126 0.0
C533 C 0.09606 0.54867 0.84892 0.0
C534 C 0.05017 0.57922 0.83806 0.0
C535 C 0.03434 0.54592 0.84248 0.0
C536 C 0.0499 0.51391 0.8497 0.0
C537 C 0.08026 0.51522 0.8528 0.0
C538 C 0.95639 0.50908 0.83509 0.0
C539 C 0.93967 0.53927 0.84356 0.0
C540 C 0.98698 0.51186 0.83373 0.0
C541 C 1.00164 0.54478 0.841 0.0
C542 C 0.98476 0.57555 0.84851 0.0
C543 C 0.95417 0.57287 0.84971 0.0
H544 H 0.16609 0.30835 0.36709 0.0
H545 H 0.2485 0.36094 0.34988 0.0
H546 H 0.18993 0.24658 0.36643 0.0
H547 H 0.272 0.29952 0.34834 0.0
H548 H 0.3133 0.18861 0.36919 0.0
H549 H 0.28892 0.24976 0.37126 0.0
H550 H 0.21059 0.20077 0.34181 0.0
H551 H 0.23463 0.13948 0.34061 0.0
C552 C 0.18922 0.30668 0.36301 0.0
C553 C 0.20541 0.33952 0.35863 0.0
C554 C 0.2029 0.27127 0.36251 0.0
C555 C 0.23299 0.26794 0.35739 0.0
C556 C 0.24899 0.30091 0.35281 0.0
C557 C 0.23542 0.3362 0.35353 0.0
C558 C 0.29089 0.19096 0.36316 0.0
C559 C 0.27592 0.15923 0.35474 0.0
C560 C 0.2769 0.22607 0.36424 0.0
C561 C 0.24771 0.23036 0.35668 0.0
C562 C 0.23286 0.19852 0.34815 0.0
C563 C 0.24674 0.16338 0.34729 0.0
H564 H 0.67504 0.8258 0.3734 0.0
H565 H 0.75034 0.87425 0.34025 0.0
H566 H 0.69904 0.76416 0.37303 0.0
H567 H 0.77381 0.81274 0.33912 0.0
H568 H 0.82065 0.7052 0.36072 0.0
H569 H 0.79692 0.76687 0.36218 0.0
H570 H 0.71306 0.71439 0.34817 0.0
H571 H 0.73665 0.6528 0.34752 0.0
C572 C 0.69663 0.82324 0.36593 0.0
C573 C 0.71079 0.85491 0.35691 0.0
C574 C 0.71034 0.78788 0.36558 0.0
C575 C 0.73843 0.78337 0.35604 0.0
C576 C 0.75246 0.81515 0.34697 0.0
C577 C 0.73887 0.85046 0.34749 0.0
C578 C 0.79717 0.70691 0.35789 0.0
C579 C 0.78054 0.67414 0.35402 0.0
C580 C 0.78354 0.74228 0.35864 0.0
C581 C 0.75299 0.74571 0.35535 0.0
C582 C 0.7365 0.71285 0.35121 0.0
C583 C 0.75008 0.67752 0.35065 0.0
H584 H 0.23371 0.6158 0.11864 0.0
H585 H 0.14924 0.66312 0.10116 0.0
H586 H 0.25575 0.67805 0.11695 0.0
H587 H 0.17158 0.72572 0.09877 0.0
H588 H 0.21652 0.8374 0.11742 0.0
H589 H 0.19357 0.77557 0.12093 0.0
H590 H 0.26939 0.72404 0.08975 0.0
H591 H 0.29264 0.78568 0.08689 0.0
C592 C 0.21983 0.63954 0.11433 0.0
C593 C 0.18971 0.63449 0.10995 0.0
C594 C 0.23255 0.67527 0.11322 0.0
C595 C 0.21555 0.70695 0.10752 0.0
C596 C 0.18529 0.70201 0.10342 0.0
C597 C 0.17248 0.66614 0.10468 0.0
C598 C 0.22834 0.81282 0.11141 0.0
C599 C 0.25646 0.81643 0.10194 0.0
C600 C 0.21507 0.7774 0.11327 0.0
C601 C 0.22958 0.74476 0.10562 0.0
C602 C 0.25774 0.74846 0.09616 0.0
C603 C 0.27105 0.78384 0.09442 0.0
H604 H 0.64905 0.16366 0.09972 0.0
H605 H 0.7326 0.11314 0.08337 0.0
H606 H 0.67323 0.22449 0.10545 0.0
H607 H 0.75658 0.17387 0.088 0.0
H608 H 0.79739 0.27743 0.11976 0.0
H609 H 0.77191 0.21731 0.11551 0.0
H610 H 0.69656 0.27526 0.08761 0.0
H611 H 0.72154 0.33527 0.09289 0.0
C612 C 0.6725 0.16571 0.09701 0.0
C613 C 0.68892 0.13362 0.09118 0.0
C614 C 0.68642 0.2006 0.10023 0.0
C615 C 0.71702 0.20424 0.09739 0.0
C616 C 0.73317 0.17215 0.09094 0.0
C617 C 0.71935 0.1373 0.08805 0.0
C618 C 0.77532 0.27726 0.11285 0.0
C619 C 0.76151 0.31109 0.10668 0.0
C620 C 0.76074 0.24275 0.11022 0.0
C621 C 0.73213 0.24119 0.10104 0.0
C622 C 0.71832 0.27521 0.09504 0.0
C623 C 0.73276 0.3097 0.09795 0.0
H624 H 0.77824 0.85362 0.60165 0.0
H625 H 0.69291 0.80307 0.61091 0.0
H626 H 0.80091 0.79156 0.60238 0.0
H627 H 0.71567 0.74088 0.61273 0.0
H628 H 0.75989 0.63282 0.59025 0.0
H629 H 0.7381 0.69536 0.58965 0.0
H630 H 0.81393 0.7399 0.62503 0.0
H631 H 0.8363 0.6773 0.62465 0.0
C632 C 0.76435 0.82922 0.60415 0.0
C633 C 0.73376 0.83323 0.60614 0.0
C634 C 0.77739 0.79356 0.60471 0.0
C635 C 0.76021 0.76098 0.60755 0.0
C636 C 0.72961 0.76517 0.61004 0.0
C637 C 0.71652 0.80085 0.60918 0.0
C638 C 0.77198 0.65602 0.5978 0.0
C639 C 0.79983 0.65016 0.60747 0.0
C640 C 0.75935 0.6919 0.59765 0.0
C641 C 0.77404 0.72283 0.60748 0.0
C642 C 0.80207 0.71694 0.61704 0.0
C643 C 0.8149 0.68103 0.6169 0.0
H644 H 0.26791 0.35071 0.62821 0.0
H645 H 0.18533 0.29362 0.61684 0.0
H646 H 0.29364 0.29059 0.62637 0.0
H647 H 0.21115 0.23348 0.61427 0.0
H648 H 0.33261 0.18363 0.59425 0.0
H649 H 0.30735 0.24385 0.59912 0.0
H650 H 0.23791 0.18765 0.63539 0.0
H651 H 0.26267 0.12751 0.62988 0.0
C652 C 0.25523 0.32527 0.62534 0.0
C653 C 0.22457 0.32692 0.62263 0.0
C654 C 0.27003 0.29081 0.62411 0.0
C655 C 0.25455 0.25714 0.62 0.0
C656 C 0.22377 0.25875 0.61773 0.0
C657 C 0.20894 0.29325 0.61912 0.0
C658 C 0.31203 0.18423 0.60334 0.0
C659 C 0.29958 0.15081 0.61157 0.0
C660 C 0.29758 0.21877 0.60625 0.0
C661 C 0.27048 0.22065 0.61759 0.0
C662 C 0.25843 0.18722 0.62621 0.0
C663 C 0.27275 0.15274 0.62318 0.0
H664 H 0.71041 0.21678 0.86872 0.0
H665 H 0.78779 0.17121 0.83662 0.0
H666 H 0.73316 0.27885 0.8699 0.0
H667 H 0.81026 0.23367 0.8371 0.0
H668 H 0.85314 0.34289 0.86398 0.0
H669 H 0.83128 0.27987 0.86236 0.0
H670 H 0.74706 0.32932 0.84612 0.0
H671 H 0.76857 0.39181 0.84849 0.0
C672 C 0.73215 0.22012 0.86165 0.0
C673 C 0.74726 0.1891 0.85254 0.0
C674 C 0.74519 0.25578 0.86224 0.0
C675 C 0.77359 0.26136 0.85357 0.0
C676 C 0.78857 0.23032 0.84424 0.0
C677 C 0.77558 0.19458 0.84378 0.0
C678 C 0.82998 0.34016 0.86009 0.0
C679 C 0.81256 0.37231 0.85654 0.0
C680 C 0.81745 0.30408 0.85902 0.0
C681 C 0.78732 0.29947 0.85423 0.0
C682 C 0.77016 0.33174 0.85032 0.0
C683 C 0.78257 0.36764 0.85156 0.0
H684 H 0.19905 0.73309 0.86692 0.0
H685 H 0.28144 0.67561 0.85593 0.0
H686 H 0.22487 0.79328 0.86861 0.0
H687 H 0.30718 0.73582 0.8569 0.0
H688 H 0.34758 0.84686 0.88212 0.0
H689 H 0.32207 0.78612 0.88176 0.0
H690 H 0.24999 0.83645 0.84493 0.0
H691 H 0.27491 0.8969 0.84593 0.0
C692 C 0.22264 0.73335 0.86466 0.0
C693 C 0.23817 0.6996 0.86125 0.0
C694 C 0.23747 0.76788 0.86554 0.0
C695 C 0.26816 0.76949 0.86288 0.0
C696 C 0.28363 0.73565 0.85938 0.0
C697 C 0.26882 0.70113 0.85863 0.0
C698 C 0.32628 0.84484 0.874 0.0
C699 C 0.31325 0.87671 0.86415 0.0
C700 C 0.31169 0.81003 0.87367 0.0
C701 C 0.28386 0.80636 0.86338 0.0
C702 C 0.27107 0.83829 0.85339 0.0
C703 C 0.28551 0.87298 0.85384 0.0
H704 H 0.27532 0.0511 0.28104 0.0
H705 H 0.29791 0.93289 0.27694 0.0
H706 H 0.26602 0.05188 0.24048 0.0
H707 H 0.28987 0.93396 0.23634 0.0
H708 H 0.25942 0.93784 0.16502 0.0
H709 H 0.25625 0.93885 0.20606 0.0
H710 H 0.29442 0.05055 0.20715 0.0
H711 H 0.29636 0.05008 0.16608 0.0
C712 C 0.27819 0.02523 0.27147 0.0
C713 C 0.28755 0.99199 0.28214 0.0
C714 C 0.27302 0.02573 0.2482 0.0
C715 C 0.27745 0.9931 0.23505 0.0
C716 C 0.2858 0.95951 0.24592 0.0
C717 C 0.29061 0.95891 0.26922 0.0
C718 C 0.26674 0.96282 0.17404 0.0
C719 C 0.27839 0.99376 0.16236 0.0
C720 C 0.26508 0.96332 0.19758 0.0
C721 C 0.27545 0.99455 0.20999 0.0
C722 C 0.28591 0.02616 0.19819 0.0
C723 C 0.28718 0.02587 0.17462 0.0
H724 H 0.66485 0.03718 0.16385 0.0
H725 H 0.69904 0.92356 0.16696 0.0
H726 H 0.6754 0.046 0.20362 0.0
H727 H 0.71089 0.93296 0.20688 0.0
H728 H 0.68259 0.946 0.28129 0.0
H729 H 0.68411 0.93713 0.2408 0.0
H730 H 0.71076 0.05333 0.23263 0.0
H731 H 0.70791 0.06272 0.27347 0.0
C732 C 0.67509 0.01422 0.17297 0.0
C733 C 0.68077 0.97947 0.16232 0.0
C734 C 0.68147 0.01946 0.1958 0.0
C735 C 0.69401 0.99022 0.20853 0.0
C736 C 0.70078 0.95589 0.19765 0.0
C737 C 0.69405 0.95048 0.17479 0.0
C738 C 0.68911 0.96964 0.27094 0.0
C739 C 0.69465 0.00529 0.28058 0.0
C740 C 0.69026 0.96441 0.24764 0.0
C741 C 0.69731 0.99458 0.23337 0.0
C742 C 0.70464 0.02969 0.24312 0.0
C743 C 0.70316 0.03506 0.26651 0.0
H744 H 0.74216 0.07158 0.78363 0.0
H745 H 0.71307 0.95554 0.78283 0.0
H746 H 0.74588 0.07043 0.74259 0.0
H747 H 0.71567 0.95479 0.74183 0.0
H748 H 0.70602 0.06876 0.67056 0.0
H749 H 0.71289 0.07036 0.71138 0.0
H750 H 0.74594 0.95601 0.70944 0.0
H751 H 0.73792 0.95399 0.66879 0.0
C752 C 0.73668 0.04576 0.77469 0.0
C753 C 0.72712 0.01371 0.78645 0.0
C754 C 0.73865 0.04518 0.75116 0.0
C755 C 0.73083 0.01265 0.73886 0.0
C756 C 0.72228 0.98019 0.75073 0.0
C757 C 0.72061 0.98065 0.77427 0.0
C758 C 0.71511 0.04418 0.67884 0.0
C759 C 0.72108 0.01112 0.66653 0.0
C760 C 0.71921 0.04511 0.70224 0.0
C761 C 0.7297 0.01314 0.71376 0.0
C762 C 0.73717 0.98082 0.7012 0.0
C763 C 0.73273 0.97973 0.67788 0.0
H764 H 0.33501 0.07907 0.7763 0.0
H765 H 0.31945 0.96215 0.79273 0.0
H766 H 0.3267 0.06479 0.7365 0.0
H767 H 0.31009 0.94809 0.75307 0.0
H768 H 0.29414 0.03764 0.66799 0.0
H769 H 0.29153 0.0474 0.70863 0.0
H770 H 0.33771 0.94227 0.7191 0.0
H771 H 0.33917 0.93188 0.67831 0.0
C772 C 0.32933 0.05048 0.77145 0.0
C773 C 0.32818 0.02172 0.78759 0.0
C774 C 0.32435 0.04226 0.74864 0.0
C775 C 0.31778 0.0052 0.74156 0.0
C776 C 0.3156 0.97675 0.75788 0.0
C777 C 0.32086 0.98489 0.78062 0.0
C778 C 0.3032 0.01625 0.67903 0.0
C779 C 0.31714 0.98418 0.67008 0.0
C780 C 0.30192 0.022 0.7023 0.0
C781 C 0.31497 0.99607 0.71713 0.0
C782 C 0.32729 0.96275 0.70818 0.0
C783 C 0.32819 0.95674 0.68482 0.0
H784 H 0.78423 0.54555 0.17791 0.0
H785 H 0.75596 0.42925 0.17801 0.0
H786 H 0.77845 0.54852 0.21858 0.0
H787 H 0.74874 0.43263 0.21874 0.0
H788 H 0.79159 0.43607 0.29001 0.0
H789 H 0.7809 0.43287 0.2498 0.0
H790 H 0.75033 0.5484 0.25155 0.0
H791 H 0.76252 0.55201 0.29162 0.0
C792 C 0.77586 0.52095 0.18655 0.0
C793 C 0.77101 0.487 0.17481 0.0
C794 C 0.77237 0.52266 0.20995 0.0
C795 C 0.76351 0.49061 0.22211 0.0
C796 C 0.75634 0.45756 0.21004 0.0
C797 C 0.76027 0.45569 0.18666 0.0
C798 C 0.78206 0.46053 0.28189 0.0
C799 C 0.77835 0.49445 0.29385 0.0
C800 C 0.77572 0.45868 0.25879 0.0
C801 C 0.7651 0.49059 0.24725 0.0
C802 C 0.75921 0.5236 0.25972 0.0
C803 C 0.76602 0.52562 0.28272 0.0
H804 H 0.19659 0.56047 0.28503 0.0
H805 H 0.22844 0.44779 0.29761 0.0
H806 H 0.20371 0.55102 0.24472 0.0
H807 H 0.23702 0.43875 0.25736 0.0
H808 H 0.19164 0.41672 0.18792 0.0
H809 H 0.20404 0.42713 0.22747 0.0
H810 H 0.2318 0.5408 0.21206 0.0
H811 H 0.21799 0.53074 0.1727 0.0
C812 C 0.20619 0.53422 0.27921 0.0
C813 C 0.21146 0.50465 0.29432 0.0
C814 C 0.21041 0.52873 0.25606 0.0
C815 C 0.22041 0.49374 0.24767 0.0
C816 C 0.22848 0.46561 0.26314 0.0
C817 C 0.22378 0.47088 0.28621 0.0
C818 C 0.20101 0.44359 0.19293 0.0
C819 C 0.20334 0.47312 0.1774 0.0
C820 C 0.20831 0.44961 0.21562 0.0
C821 C 0.21853 0.48511 0.22309 0.0
C822 C 0.22328 0.51349 0.20704 0.0
C823 C 0.21551 0.50766 0.18447 0.0
H824 H 0.24266 0.57983 0.79423 0.0
H825 H 0.21725 0.46247 0.7956 0.0
H826 H 0.25011 0.57548 0.75356 0.0
H827 H 0.22337 0.45845 0.75498 0.0
H828 H 0.20691 0.56729 0.68233 0.0
H829 H 0.21769 0.57263 0.72247 0.0
H830 H 0.25221 0.45893 0.7222 0.0
H831 H 0.24004 0.45313 0.68223 0.0
C832 C 0.23902 0.55297 0.78588 0.0
C833 C 0.22898 0.52161 0.79805 0.0
C834 C 0.24312 0.55053 0.76254 0.0
C835 C 0.23687 0.51682 0.75085 0.0
C836 C 0.22872 0.48481 0.76334 0.0
C837 C 0.22503 0.48712 0.7867 0.0
C838 C 0.21736 0.54375 0.69076 0.0
C839 C 0.22216 0.50959 0.67928 0.0
C840 C 0.22372 0.54682 0.7138 0.0
C841 C 0.23544 0.51596 0.72574 0.0
C842 C 0.24248 0.48289 0.71371 0.0
C843 C 0.23567 0.47963 0.69077 0.0
H844 H 0.77109 0.5496 0.67374 0.0
H845 H 0.79938 0.43688 0.69051 0.0
H846 H 0.76237 0.563 0.71356 0.0
H847 H 0.79198 0.45058 0.73034 0.0
H848 H 0.77853 0.478 0.80126 0.0
H849 H 0.7638 0.46549 0.76235 0.0
H850 H 0.79572 0.5757 0.74326 0.0
H851 H 0.80907 0.58866 0.78242 0.0
C852 C 0.77488 0.52744 0.68595 0.0
C853 C 0.78634 0.49239 0.67913 0.0
C854 C 0.77009 0.53521 0.70877 0.0
C855 C 0.77712 0.50827 0.72526 0.0
C856 C 0.78611 0.47204 0.71818 0.0
C857 C 0.79047 0.4641 0.69529 0.0
C858 C 0.78166 0.49989 0.78879 0.0
C859 C 0.79533 0.53409 0.79469 0.0
C860 C 0.77338 0.49264 0.76647 0.0
C861 C 0.77914 0.51917 0.74952 0.0
C862 C 0.7907 0.55463 0.75584 0.0
C863 C 0.79851 0.56211 0.77829 0.0
loop_
_geom_bond_atom_site_label_1
_geom_bond_atom_site_label_2
_geom_bond_distance
_geom_bond_site_symmetry_2
_ccdc_geom_bond_type
C0 O1 1.306 1_545 S
C0 O3 1.160 . S
O1 C0 1.306 1_565 S
O1 Cd2 2.228 . S
Cd2 O1 2.228 . S
Cd2 O6 2.273 1_565 S
Cd2 O10 2.277 1_565 S
O3 C0 1.160 . S
O3 Cd4 2.203 . S
Cd4 O3 2.203 . S
Cd4 O6 2.411 . S
Cd4 O7 2.333 . S
Cd4 O8 2.352 . S
Cd4 O12 2.277 . S
Cd4 O13 2.356 . S
C5 O10 1.209 . S
C5 O12 1.226 . S
O6 Cd2 2.273 1_545 S
O6 Cd4 2.411 . S
O6 C9 1.320 . S
O7 Cd4 2.333 . S
O7 C9 1.214 . S
O8 Cd4 2.352 . S
O8 C11 1.258 . S
C9 O6 1.320 . S
C9 O7 1.214 . S
O10 Cd2 2.277 1_545 S
O10 C5 1.209 . S
C11 O8 1.258 . S
C11 O13 1.282 . S
O12 Cd4 2.277 . S
O12 C5 1.226 . S
O13 Cd4 2.356 . S
O13 C11 1.282 . S
C14 O15 1.306 1_565 S
C14 O17 1.160 . S
O15 C14 1.306 1_545 S
O15 Cd16 2.228 . S
Cd16 O15 2.228 . S
Cd16 O20 2.273 1_545 S
Cd16 O24 2.277 1_545 S
O17 C14 1.160 . S
O17 Cd18 2.203 . S
Cd18 O17 2.203 . S
Cd18 O20 2.411 . S
Cd18 O21 2.333 . S
Cd18 O22 2.352 . S
Cd18 O26 2.277 . S
Cd18 O27 2.356 . S
C19 O24 1.209 . S
C19 O26 1.226 . S
O20 Cd16 2.273 1_565 S
O20 Cd18 2.411 . S
O20 C23 1.320 . S
O21 Cd18 2.333 . S
O21 C23 1.214 . S
O22 Cd18 2.352 . S
O22 C25 1.258 . S
C23 O20 1.320 . S
C23 O21 1.214 . S
O24 Cd16 2.277 1_565 S
O24 C19 1.209 . S
C25 O22 1.258 . S
C25 O27 1.282 . S
O26 Cd18 2.277 . S
O26 C19 1.226 . S
O27 Cd18 2.356 . S
O27 C25 1.282 . S
C28 O29 1.306 1_565 S
C28 O31 1.160 . S
O29 C28 1.306 1_545 S
O29 Cd30 2.228 . S
Cd30 O29 2.228 . S
Cd30 O34 2.273 1_545 S
Cd30 O38 2.277 1_545 S
O31 C28 1.160 . S
O31 Cd32 2.203 . S
Cd32 O31 2.203 . S
Cd32 O34 2.411 . S
Cd32 O35 2.333 . S
Cd32 O36 2.352 . S
Cd32 O40 2.277 . S
Cd32 O41 2.356 . S
C33 O38 1.209 . S
C33 O40 1.226 . S
O34 Cd30 2.273 1_565 S
O34 Cd32 2.411 . S
O34 C37 1.320 . S
O35 Cd32 2.333 . S
O35 C37 1.214 . S
O36 Cd32 2.352 . S
O36 C39 1.258 . S
C37 O34 1.320 . S
C37 O35 1.214 . S
O38 Cd30 2.277 1_565 S
O38 C33 1.209 . S
C39 O36 1.258 . S
C39 O41 1.282 . S
O40 Cd32 2.277 . S
O40 C33 1.226 . S
O41 Cd32 2.356 . S
O41 C39 1.282 . S
C42 O43 1.306 1_545 S
C42 O45 1.160 . S
O43 C42 1.306 1_565 S
O43 Cd44 2.228 . S
Cd44 O43 2.228 . S
Cd44 O48 2.273 1_565 S
Cd44 O52 2.277 1_565 S
O45 C42 1.160 . S
O45 Cd46 2.203 . S
Cd46 O45 2.203 . S
Cd46 O48 2.411 . S
Cd46 O49 2.333 . S
Cd46 O50 2.352 . S
Cd46 O54 2.277 . S
Cd46 O55 2.356 . S
C47 O52 1.209 . S
C47 O54 1.226 . S
O48 Cd44 2.273 1_545 S
O48 Cd46 2.411 . S
O48 C51 1.320 . S
O49 Cd46 2.333 . S
O49 C51 1.214 . S
O50 Cd46 2.352 . S
O50 C53 1.258 . S
C51 O48 1.320 . S
C51 O49 1.214 . S
O52 Cd44 2.277 1_545 S
O52 C47 1.209 . S
C53 O50 1.258 . S
C53 O55 1.282 . S
O54 Cd46 2.277 . S
O54 C47 1.226 . S
O55 Cd46 2.356 . S
O55 C53 1.282 . S
C56 O57 1.306 1_565 S
C56 O59 1.160 . S
O57 C56 1.306 1_545 S
O57 Cd58 2.228 . S
Cd58 O57 2.228 . S
Cd58 O62 2.273 1_545 S
Cd58 O66 2.277 1_545 S
O59 C56 1.160 . S
O59 Cd60 2.203 . S
Cd60 O59 2.203 . S
Cd60 O62 2.411 . S
Cd60 O63 2.333 . S
Cd60 O64 2.352 . S
Cd60 O68 2.277 . S
Cd60 O69 2.356 . S
C61 O66 1.209 . S
C61 O68 1.226 . S
O62 Cd58 2.273 1_565 S
O62 Cd60 2.411 . S
O62 C65 1.320 . S
O63 Cd60 2.333 . S
O63 C65 1.214 . S
O64 Cd60 2.352 . S
O64 C67 1.258 . S
C65 O62 1.320 . S
C65 O63 1.214 . S
O66 Cd58 2.277 1_565 S
O66 C61 1.209 . S
C67 O64 1.258 . S
C67 O69 1.282 . S
O68 Cd60 2.277 . S
O68 C61 1.226 . S
O69 Cd60 2.356 . S
O69 C67 1.282 . S
C70 O71 1.306 1_545 S
C70 O73 1.160 . S
O71 C70 1.306 1_565 S
O71 Cd72 2.228 . S
Cd72 O71 2.228 . S
Cd72 O76 2.273 1_565 S
Cd72 O80 2.277 1_565 S
O73 C70 1.160 . S
O73 Cd74 2.203 . S
Cd74 O73 2.203 . S
Cd74 O76 2.411 . S
Cd74 O77 2.333 . S
Cd74 O78 2.352 . S
Cd74 O82 2.277 . S
Cd74 O83 2.356 . S
C75 O80 1.209 . S
C75 O82 1.226 . S
O76 Cd72 2.273 1_545 S
O76 Cd74 2.411 . S
O76 C79 1.320 . S
O77 Cd74 2.333 . S
O77 C79 1.214 . S
O78 Cd74 2.352 . S
O78 C81 1.258 . S
C79 O76 1.320 . S
C79 O77 1.214 . S
O80 Cd72 2.277 1_545 S
O80 C75 1.209 . S
C81 O78 1.258 . S
C81 O83 1.282 . S
O82 Cd74 2.277 . S
O82 C75 1.226 . S
O83 Cd74 2.356 . S
O83 C81 1.282 . S
C84 O85 1.306 1_545 S
C84 O87 1.160 . S
O85 C84 1.306 1_565 S
O85 Cd86 2.228 . S
Cd86 O85 2.228 . S
Cd86 O90 2.273 1_565 S
Cd86 O94 2.277 1_565 S
O87 C84 1.160 . S
O87 Cd88 2.203 . S
Cd88 O87 2.203 . S
Cd88 O90 2.411 . S
Cd88 O91 2.333 . S
Cd88 O92 2.352 . S
Cd88 O96 2.277 . S
Cd88 O97 2.356 . S
C89 O94 1.209 . S
C89 O96 1.226 . S
O90 Cd86 2.273 1_545 S
O90 Cd88 2.411 . S
O90 C93 1.320 . S
O91 Cd88 2.333 . S
O91 C93 1.214 . S
O92 Cd88 2.352 . S
O92 C95 1.258 . S
C93 O90 1.320 . S
C93 O91 1.214 . S
O94 Cd86 2.277 1_545 S
O94 C89 1.209 . S
C95 O92 1.258 . S
C95 O97 1.282 . S
O96 Cd88 2.277 . S
O96 C89 1.226 . S
O97 Cd88 2.356 . S
O97 C95 1.282 . S
C98 O99 1.306 1_565 S
C98 O101 1.160 . S
O99 C98 1.306 1_545 S
O99 Cd100 2.228 . S
Cd100 O99 2.228 . S
Cd100 O104 2.273 1_545 S
Cd100 O108 2.277 1_545 S
O101 C98 1.160 . S
O101 Cd102 2.203 . S
Cd102 O101 2.203 . S
Cd102 O104 2.411 . S
Cd102 O105 2.333 . S
Cd102 O106 2.352 . S
Cd102 O110 2.277 . S
Cd102 O111 2.356 . S
C103 O108 1.209 . S
C103 O110 1.226 . S
O104 Cd100 2.273 1_565 S
O104 Cd102 2.411 . S
O104 C107 1.320 . S
O105 Cd102 2.333 . S
O105 C107 1.214 . S
O106 Cd102 2.352 . S
O106 C109 1.258 . S
C107 O104 1.320 . S
C107 O105 1.214 . S
O108 Cd100 2.277 1_565 S
O108 C103 1.209 . S
C109 O106 1.258 . S
C109 O111 1.282 . S
O110 Cd102 2.277 . S
O110 C103 1.226 . S
O111 Cd102 2.356 . S
O111 C109 1.282 . S
C112 O113 1.306 . S
C112 O115 1.160 . S
O113 C112 1.306 . S
O113 Cd114 2.228 . S
Cd114 O113 2.228 . S
Cd114 O118 2.273 . S
Cd114 O122 2.277 . S
O115 C112 1.160 . S
O115 Cd116 2.203 . S
Cd116 O115 2.203 . S
Cd116 O118 2.411 . S
Cd116 O119 2.333 . S
Cd116 O120 2.352 . S
Cd116 O124 2.277 . S
Cd116 O125 2.356 . S
C117 O122 1.209 . S
C117 O124 1.226 . S
O118 Cd114 2.273 . S
O118 Cd116 2.411 . S
O118 C121 1.320 . S
O119 Cd116 2.333 . S
O119 C121 1.214 . S
O120 Cd116 2.352 . S
O120 C123 1.258 . S
C121 O118 1.320 . S
C121 O119 1.214 . S
O122 Cd114 2.277 . S
O122 C117 1.209 . S
C123 O120 1.258 . S
C123 O125 1.282 . S
O124 Cd116 2.277 . S
O124 C117 1.226 . S
O125 Cd116 2.356 . S
O125 C123 1.282 . S
C126 O127 1.306 . S
C126 O129 1.160 . S
O127 C126 1.306 . S
O127 Cd128 2.228 . S
Cd128 O127 2.228 . S
Cd128 O132 2.273 . S
Cd128 O136 2.277 . S
O129 C126 1.160 . S
O129 Cd130 2.203 . S
Cd130 O129 2.203 . S
Cd130 O132 2.411 . S
Cd130 O133 2.333 . S
Cd130 O134 2.352 . S
Cd130 O138 2.277 . S
Cd130 O139 2.356 . S
C131 O136 1.209 . S
C131 O138 1.226 . S
O132 Cd128 2.273 . S
O132 Cd130 2.411 . S
O132 C135 1.320 . S
O133 Cd130 2.333 . S
O133 C135 1.214 . S
O134 Cd130 2.352 . S
O134 C137 1.258 . S
C135 O132 1.320 . S
C135 O133 1.214 . S
O136 Cd128 2.277 . S
O136 C131 1.209 . S
C137 O134 1.258 . S
C137 O139 1.282 . S
O138 Cd130 2.277 . S
O138 C131 1.226 . S
O139 Cd130 2.356 . S
O139 C137 1.282 . S
C140 O141 1.306 . S
C140 O143 1.160 . S
O141 C140 1.306 . S
O141 Cd142 2.228 . S
Cd142 O141 2.228 . S
Cd142 O146 2.273 . S
Cd142 O150 2.277 . S
O143 C140 1.160 . S
O143 Cd144 2.203 . S
Cd144 O143 2.203 . S
Cd144 O146 2.411 . S
Cd144 O147 2.333 . S
Cd144 O148 2.352 . S
Cd144 O152 2.277 . S
Cd144 O153 2.356 . S
C145 O150 1.209 . S
C145 O152 1.226 . S
O146 Cd142 2.273 . S
O146 Cd144 2.411 . S
O146 C149 1.320 . S
O147 Cd144 2.333 . S
O147 C149 1.214 . S
O148 Cd144 2.352 . S
O148 C151 1.258 . S
C149 O146 1.320 . S
C149 O147 1.214 . S
O150 Cd142 2.277 . S
O150 C145 1.209 . S
C151 O148 1.258 . S
C151 O153 1.282 . S
O152 Cd144 2.277 . S
O152 C145 1.226 . S
O153 Cd144 2.356 . S
O153 C151 1.282 . S
C154 O155 1.306 . S
C154 O157 1.160 . S
O155 C154 1.306 . S
O155 Cd156 2.228 . S
Cd156 O155 2.228 . S
Cd156 O160 2.273 . S
Cd156 O164 2.277 . S
O157 C154 1.160 . S
O157 Cd158 2.203 . S
Cd158 O157 2.203 . S
Cd158 O160 2.411 . S
Cd158 O161 2.333 . S
Cd158 O162 2.352 . S
Cd158 O166 2.277 . S
Cd158 O167 2.356 . S
C159 O164 1.209 . S
C159 O166 1.226 . S
O160 Cd156 2.273 . S
O160 Cd158 2.411 . S
O160 C163 1.320 . S
O161 Cd158 2.333 . S
O161 C163 1.214 . S
O162 Cd158 2.352 . S
O162 C165 1.258 . S
C163 O160 1.320 . S
C163 O161 1.214 . S
O164 Cd156 2.277 . S
O164 C159 1.209 . S
C165 O162 1.258 . S
C165 O167 1.282 . S
O166 Cd158 2.277 . S
O166 C159 1.226 . S
O167 Cd158 2.356 . S
O167 C165 1.282 . S
C168 O169 1.306 . S
C168 O171 1.160 . S
O169 C168 1.306 . S
O169 Cd170 2.228 . S
Cd170 O169 2.228 . S
Cd170 O174 2.273 . S
Cd170 O178 2.277 . S
O171 C168 1.160 . S
O171 Cd172 2.203 . S
Cd172 O171 2.203 . S
Cd172 O174 2.411 . S
Cd172 O175 2.333 . S
Cd172 O176 2.352 . S
Cd172 O180 2.277 . S
Cd172 O181 2.356 . S
C173 O178 1.209 . S
C173 O180 1.226 . S
O174 Cd170 2.273 . S
O174 Cd172 2.411 . S
O174 C177 1.320 . S
O175 Cd172 2.333 . S
O175 C177 1.214 . S
O176 Cd172 2.352 . S
O176 C179 1.258 . S
C177 O174 1.320 . S
C177 O175 1.214 . S
O178 Cd170 2.277 . S
O178 C173 1.209 . S
C179 O176 1.258 . S
C179 O181 1.282 . S
O180 Cd172 2.277 . S
O180 C173 1.226 . S
O181 Cd172 2.356 . S
O181 C179 1.282 . S
C182 O183 1.306 . S
C182 O185 1.160 . S
O183 C182 1.306 . S
O183 Cd184 2.228 . S
Cd184 O183 2.228 . S
Cd184 O188 2.273 . S
Cd184 O192 2.277 . S
O185 C182 1.160 . S
O185 Cd186 2.203 . S
Cd186 O185 2.203 . S
Cd186 O188 2.411 . S
Cd186 O189 2.333 . S
Cd186 O190 2.352 . S
Cd186 O194 2.277 . S
Cd186 O195 2.356 . S
C187 O192 1.209 . S
C187 O194 1.226 . S
O188 Cd184 2.273 . S
O188 Cd186 2.411 . S
O188 C191 1.320 . S
O189 Cd186 2.333 . S
O189 C191 1.214 . S
O190 Cd186 2.352 . S
O190 C193 1.258 . S
C191 O188 1.320 . S
C191 O189 1.214 . S
O192 Cd184 2.277 . S
O192 C187 1.209 . S
C193 O190 1.258 . S
C193 O195 1.282 . S
O194 Cd186 2.277 . S
O194 C187 1.226 . S
O195 Cd186 2.356 . S
O195 C193 1.282 . S
C196 O197 1.306 . S
C196 O199 1.160 . S
O197 C196 1.306 . S
O197 Cd198 2.228 . S
Cd198 O197 2.228 . S
Cd198 O202 2.273 . S
Cd198 O206 2.277 . S
O199 C196 1.160 . S
O199 Cd200 2.203 . S
Cd200 O199 2.203 . S
Cd200 O202 2.411 . S
Cd200 O203 2.333 . S
Cd200 O204 2.352 . S
Cd200 O208 2.277 . S
Cd200 O209 2.356 . S
C201 O206 1.209 . S
C201 O208 1.226 . S
O202 Cd198 2.273 . S
O202 Cd200 2.411 . S
O202 C205 1.320 . S
O203 Cd200 2.333 . S
O203 C205 1.214 . S
O204 Cd200 2.352 . S
O204 C207 1.258 . S
C205 O202 1.320 . S
C205 O203 1.214 . S
O206 Cd198 2.277 . S
O206 C201 1.209 . S
C207 O204 1.258 . S
C207 O209 1.282 . S
O208 Cd200 2.277 . S
O208 C201 1.226 . S
O209 Cd200 2.356 . S
O209 C207 1.282 . S
C210 O211 1.306 . S
C210 O213 1.160 . S
O211 C210 1.306 . S
O211 Cd212 2.228 . S
Cd212 O211 2.228 . S
Cd212 O216 2.273 . S
Cd212 O220 2.277 . S
O213 C210 1.160 . S
O213 Cd214 2.203 . S
Cd214 O213 2.203 . S
Cd214 O216 2.411 . S
Cd214 O217 2.333 . S
Cd214 O218 2.352 . S
Cd214 O222 2.277 . S
Cd214 O223 2.356 . S
C215 O220 1.209 . S
C215 O222 1.226 . S
O216 Cd212 2.273 . S
O216 Cd214 2.411 . S
O216 C219 1.320 . S
O217 Cd214 2.333 . S
O217 C219 1.214 . S
O218 Cd214 2.352 . S
O218 C221 1.258 . S
C219 O216 1.320 . S
C219 O217 1.214 . S
O220 Cd212 2.277 . S
O220 C215 1.209 . S
C221 O218 1.258 . S
C221 O223 1.282 . S
O222 Cd214 2.277 . S
O222 C215 1.226 . S
O223 Cd214 2.356 . S
O223 C221 1.282 . S
H224 C232 0.950 . S
H225 C237 0.950 . S
H226 C234 0.950 . S
H227 C236 0.950 . S
H228 C238 0.950 1_565 S
H229 C240 0.938 1_565 S
H230 C242 0.950 . S
H231 C243 0.950 . S
C232 H224 0.950 . S
C232 C233 1.386 . S
C232 C234 1.391 . S
C233 C232 1.386 . S
C233 C237 1.393 1_545 S
C234 H226 0.950 . S
C234 C232 1.391 . S
C234 C235 1.400 . S
C235 C234 1.400 . S
C235 C236 1.398 1_545 S
C235 C241 1.491 . S
C236 H227 0.950 . S
C236 C235 1.398 1_565 S
C236 C237 1.391 . S
C237 H225 0.950 . S
C237 C233 1.393 1_565 S
C237 C236 1.391 . S
C238 H228 0.950 1_545 S
C238 C239 1.386 . S
C238 C240 1.392 . S
C239 C238 1.386 . S
C239 C243 1.393 . S
C240 H229 0.938 1_545 S
C240 C238 1.392 . S
C240 C241 1.412 . S
C241 C235 1.491 . S
C241 C240 1.412 . S
C241 C242 1.398 . S
C242 H230 0.950 . S
C242 C241 1.398 . S
C242 C243 1.391 . S
C243 H231 0.950 . S
C243 C239 1.393 . S
C243 C242 1.391 . S
H244 C252 0.950 . S
H245 C257 0.950 . S
H246 C254 0.950 . S
H247 C256 0.950 . S
H248 C258 0.950 . S
H249 C260 0.950 . S
H250 C262 0.950 . S
H251 C263 0.950 . S
C252 H244 0.950 . S
C252 C253 1.386 . S
C252 C254 1.391 . S
C253 C252 1.386 . S
C253 C257 1.393 1_565 S
C254 H246 0.950 . S
C254 C252 1.391 . S
C254 C255 1.400 . S
C255 C254 1.400 . S
C255 C256 1.398 1_565 S
C255 C261 1.491 . S
C256 H247 0.950 . S
C256 C255 1.398 1_545 S
C256 C257 1.391 . S
C257 H245 0.950 . S
C257 C253 1.393 1_545 S
C257 C256 1.391 . S
C258 H248 0.950 . S
C258 C259 1.386 1_545 S
C258 C260 1.391 . S
C259 C258 1.386 1_565 S
C259 C263 1.393 . S
C260 H249 0.950 . S
C260 C258 1.391 . S
C260 C261 1.400 1_545 S
C261 C255 1.491 . S
C261 C260 1.400 1_565 S
C261 C262 1.398 . S
C262 H250 0.950 . S
C262 C261 1.398 . S
C262 C263 1.391 . S
C263 H251 0.950 . S
C263 C259 1.393 . S
C263 C262 1.391 . S
H264 C272 0.950 1_545 S
H265 C277 0.950 . S
H266 C274 0.950 1_545 S
H267 C276 0.950 . S
H268 C278 0.950 . S
H269 C280 0.950 . S
H270 C282 0.950 1_545 S
H271 C283 0.950 1_545 S
C272 H264 0.950 1_565 S
C272 C273 1.386 . S
C272 C274 1.391 . S
C273 C272 1.386 . S
C273 C277 1.393 . S
C274 H266 0.950 1_565 S
C274 C272 1.391 . S
C274 C275 1.400 . S
C275 C274 1.400 . S
C275 C276 1.398 . S
C275 C281 1.491 1_554 S
C276 H267 0.950 . S
C276 C275 1.398 . S
C276 C277 1.391 . S
C277 H265 0.950 . S
C277 C273 1.393 . S
C277 C276 1.391 . S
C278 H268 0.950 . S
C278 C279 1.386 . S
C278 C280 1.391 . S
C279 C278 1.386 . S
C279 C283 1.393 . S
C280 H269 0.950 . S
C280 C278 1.391 . S
C280 C281 1.400 . S
C281 C275 1.491 1_556 S
C281 C280 1.400 . S
C281 C282 1.398 . S
C282 H270 0.950 1_565 S
C282 C281 1.398 . S
C282 C283 1.391 . S
C283 H271 0.950 1_565 S
C283 C279 1.393 . S
C283 C282 1.391 . S
H284 C292 0.950 . S
H285 C297 0.950 . S
H286 C294 0.950 . S
H287 C296 0.950 . S
H288 C298 0.950 . S
H289 C300 0.950 . S
H290 C302 0.950 . S
H291 C303 0.950 . S
C292 H284 0.950 . S
C292 C293 1.386 . S
C292 C294 1.391 . S
C293 C292 1.386 . S
C293 C297 1.393 . S
C294 H286 0.950 . S
C294 C292 1.391 . S
C294 C295 1.400 . S
C295 C294 1.400 . S
C295 C296 1.398 . S
C295 C301 1.491 1_556 S
C296 H287 0.950 . S
C296 C295 1.398 . S
C296 C297 1.391 . S
C297 H285 0.950 . S
C297 C293 1.393 . S
C297 C296 1.391 . S
C298 H288 0.950 . S
C298 C299 1.386 . S
C298 C300 1.391 . S
C299 C298 1.386 . S
C299 C303 1.393 . S
C300 H289 0.950 . S
C300 C298 1.391 . S
C300 C301 1.400 . S
C301 C295 1.491 1_554 S
C301 C300 1.400 . S
C301 C302 1.398 . S
C302 H290 0.950 . S
C302 C301 1.398 . S
C302 C303 1.391 . S
C303 H291 0.950 . S
C303 C299 1.393 . S
C303 C302 1.391 . S
H304 C312 0.950 . S
H305 C317 0.950 . S
H306 C314 0.950 . S
H307 C316 0.950 . S
H308 C318 0.950 . S
H309 C320 0.950 . S
H310 C322 0.950 . S
H311 C323 0.950 . S
C312 H304 0.950 . S
C312 C313 1.386 . S
C312 C314 1.391 . S
C313 C312 1.386 . S
C313 C317 1.393 . S
C314 H306 0.950 . S
C314 C312 1.391 . S
C314 C315 1.400 . S
C315 C314 1.400 . S
C315 C316 1.398 . S
C315 C321 1.491 . S
C316 H307 0.950 . S
C316 C315 1.398 . S
C316 C317 1.391 . S
C317 H305 0.950 . S
C317 C313 1.393 . S
C317 C316 1.391 . S
C318 H308 0.950 . S
C318 C319 1.386 . S
C318 C320 1.391 . S
C319 C318 1.386 . S
C319 C323 1.393 . S
C320 H309 0.950 . S
C320 C318 1.391 . S
C320 C321 1.400 . S
C321 C315 1.491 . S
C321 C320 1.400 . S
C321 C322 1.398 . S
C322 H310 0.950 . S
C322 C321 1.398 . S
C322 C323 1.391 . S
C323 H311 0.950 . S
C323 C319 1.393 . S
C323 C322 1.391 . S
H324 C332 0.950 . S
H325 C337 0.950 . S
H326 C334 0.950 . S
H327 C336 0.950 . S
H328 C338 0.950 . S
H329 C340 0.950 . S
H330 C342 0.950 . S
H331 C343 0.950 . S
C332 H324 0.950 . S
C332 C333 1.386 . S
C332 C334 1.391 . S
C333 C332 1.386 . S
C333 C337 1.393 . S
C334 H326 0.950 . S
C334 C332 1.391 . S
C334 C335 1.400 . S
C335 C334 1.400 . S
C335 C336 1.398 . S
C335 C341 1.491 . S
C336 H327 0.950 . S
C336 C335 1.398 . S
C336 C337 1.391 . S
C337 H325 0.950 . S
C337 C333 1.393 . S
C337 C336 1.391 . S
C338 H328 0.950 . S
C338 C339 1.386 . S
C338 C340 1.391 . S
C339 C338 1.386 . S
C339 C343 1.393 . S
C340 H329 0.950 . S
C340 C338 1.391 . S
C340 C341 1.400 . S
C341 C335 1.491 . S
C341 C340 1.400 . S
C341 C342 1.398 . S
C342 H330 0.950 . S
C342 C341 1.398 . S
C342 C343 1.391 . S
C343 H331 0.950 . S
C343 C339 1.393 . S
C343 C342 1.391 . S
H344 C352 0.950 . S
H345 C357 0.950 . S
H346 C354 0.950 . S
H347 C356 0.950 . S
H348 C358 0.950 . S
H349 C360 0.950 . S
H350 C362 0.950 . S
H351 C363 0.950 . S
C352 H344 0.950 . S
C352 C353 1.386 . S
C352 C354 1.391 . S
C353 C352 1.386 . S
C353 C357 1.393 . S
C354 H346 0.950 . S
C354 C352 1.391 . S
C354 C355 1.400 . S
C355 C354 1.400 . S
C355 C356 1.398 . S
C355 C361 1.491 1_556 S
C356 H347 0.950 . S
C356 C355 1.398 . S
C356 C357 1.391 . S
C357 H345 0.950 . S
C357 C353 1.393 . S
C357 C356 1.391 . S
C358 H348 0.950 . S
C358 C359 1.386 . S
C358 C360 1.391 . S
C359 C358 1.386 . S
C359 C363 1.393 . S
C360 H349 0.950 . S
C360 C358 1.391 . S
C360 C361 1.400 . S
C361 C355 1.491 1_554 S
C361 C360 1.400 . S
C361 C362 1.398 . S
C362 H350 0.950 . S
C362 C361 1.398 . S
C362 C363 1.391 . S
C363 H351 0.950 . S
C363 C359 1.393 . S
C363 C362 1.391 . S
H364 C372 0.950 . S
H365 C377 0.950 . S
H366 C374 0.950 . S
H367 C376 0.950 . S
H368 C378 0.950 . S
H369 C380 0.950 . S
H370 C382 0.950 . S
H371 C383 0.950 . S
C372 H364 0.950 . S
C372 C373 1.386 . S
C372 C374 1.391 . S
C373 C372 1.386 . S
C373 C377 1.393 . S
C374 H366 0.950 . S
C374 C372 1.391 . S
C374 C375 1.400 . S
C375 C374 1.400 . S
C375 C376 1.398 . S
C375 C381 1.491 1_554 S
C376 H367 0.950 . S
C376 C375 1.398 . S
C376 C377 1.391 . S
C377 H365 0.950 . S
C377 C373 1.393 . S
C377 C376 1.391 . S
C378 H368 0.950 . S
C378 C379 1.386 . S
C378 C380 1.391 . S
C379 C378 1.386 . S
C379 C383 1.393 . S
C380 H369 0.950 . S
C380 C378 1.391 . S
C380 C381 1.400 . S
C381 C375 1.491 1_556 S
C381 C380 1.400 . S
C381 C382 1.398 . S
C382 H370 0.950 . S
C382 C381 1.398 . S
C382 C383 1.391 . S
C383 H371 0.950 . S
C383 C379 1.393 . S
C383 C382 1.391 . S
H384 C392 0.950 . S
H385 C397 0.950 . S
H386 C394 0.950 . S
H387 C396 0.950 1_545 S
H388 C398 0.950 . S
H389 C400 0.950 . S
H390 C402 0.950 1_565 S
H391 C403 0.950 . S
C392 H384 0.950 . S
C392 C393 1.386 . S
C392 C394 1.391 . S
C393 C392 1.386 . S
C393 C397 1.393 . S
C394 H386 0.950 . S
C394 C392 1.391 . S
C394 C395 1.400 . S
C395 C394 1.400 . S
C395 C396 1.398 . S
C395 C401 1.491 1_565 S
C396 H387 0.950 1_565 S
C396 C395 1.398 . S
C396 C397 1.391 . S
C397 H385 0.950 . S
C397 C393 1.393 . S
C397 C396 1.391 . S
C398 H388 0.950 . S
C398 C399 1.386 . S
C398 C400 1.391 . S
C399 C398 1.386 . S
C399 C403 1.393 . S
C400 H389 0.950 . S
C400 C398 1.391 . S
C400 C401 1.400 . S
C401 C395 1.491 1_545 S
C401 C400 1.400 . S
C401 C402 1.398 . S
C402 H390 0.950 1_545 S
C402 C401 1.398 . S
C402 C403 1.391 . S
C403 H391 0.950 . S
C403 C399 1.393 . S
C403 C402 1.391 . S
H404 C412 0.950 . S
H405 C417 0.950 . S
H406 C414 0.941 1_545 S
H407 C416 0.950 . S
H408 C418 0.950 . S
H409 C420 0.941 1_565 S
H410 C422 0.950 . S
H411 C423 0.950 . S
C412 H404 0.950 . S
C412 C413 1.386 . S
C412 C414 1.398 . S
C413 C412 1.386 . S
C413 C417 1.393 . S
C414 H406 0.941 1_565 S
C414 C412 1.398 . S
C414 C415 1.404 . S
C415 C414 1.404 . S
C415 C416 1.398 . S
C415 C421 1.491 1_565 S
C416 H407 0.950 . S
C416 C415 1.398 . S
C416 C417 1.391 . S
C417 H405 0.950 . S
C417 C413 1.393 . S
C417 C416 1.391 . S
C418 H408 0.950 . S
C418 C419 1.386 . S
C418 C420 1.398 . S
C419 C418 1.386 . S
C419 C423 1.393 . S
C420 H409 0.941 1_545 S
C420 C418 1.398 . S
C420 C421 1.404 . S
C421 C415 1.491 1_545 S
C421 C420 1.404 . S
C421 C422 1.398 . S
C422 H410 0.950 . S
C422 C421 1.398 . S
C422 C423 1.391 . S
C423 H411 0.950 . S
C423 C419 1.393 . S
C423 C422 1.391 . S
H424 C432 0.950 . S
H425 C437 0.950 . S
H426 C434 0.950 1_545 S
H427 C436 0.950 . S
H428 C438 0.950 . S
H429 C440 0.950 1_565 S
H430 C442 0.950 . S
H431 C443 0.950 . S
C432 H424 0.950 . S
C432 C433 1.386 . S
C432 C434 1.391 . S
C433 C432 1.386 . S
C433 C437 1.393 . S
C434 H426 0.950 1_565 S
C434 C432 1.391 . S
C434 C435 1.400 . S
C435 C434 1.400 . S
C435 C436 1.398 . S
C435 C441 1.491 1_565 S
C436 H427 0.950 . S
C436 C435 1.398 . S
C436 C437 1.391 . S
C437 H425 0.950 . S
C437 C433 1.393 . S
C437 C436 1.391 . S
C438 H428 0.950 . S
C438 C439 1.386 . S
C438 C440 1.391 . S
C439 C438 1.386 . S
C439 C443 1.393 . S
C440 H429 0.950 1_545 S
C440 C438 1.391 . S
C440 C441 1.400 . S
C441 C435 1.491 1_545 S
C441 C440 1.400 . S
C441 C442 1.398 . S
C442 H430 0.950 . S
C442 C441 1.398 . S
C442 C443 1.391 . S
C443 H431 0.950 . S
C443 C439 1.393 . S
C443 C442 1.391 . S
H444 C452 0.950 . S
H445 C457 0.950 . S
H446 C454 0.950 . S
H447 C456 0.950 1_565 S
H448 C458 0.950 . S
H449 C460 0.950 . S
H450 C462 0.950 1_545 S
H451 C463 0.950 . S
C452 H444 0.950 . S
C452 C453 1.386 . S
C452 C454 1.391 . S
C453 C452 1.386 . S
C453 C457 1.393 . S
C454 H446 0.950 . S
C454 C452 1.391 . S
C454 C455 1.400 . S
C455 C454 1.400 . S
C455 C456 1.398 . S
C455 C461 1.491 1_545 S
C456 H447 0.950 1_545 S
C456 C455 1.398 . S
C456 C457 1.391 . S
C457 H445 0.950 . S
C457 C453 1.393 . S
C457 C456 1.391 . S
C458 H448 0.950 . S
C458 C459 1.386 . S
C458 C460 1.391 . S
C459 C458 1.386 . S
C459 C463 1.393 . S
C460 H449 0.950 . S
C460 C458 1.391 . S
C460 C461 1.400 . S
C461 C455 1.491 1_565 S
C461 C460 1.400 . S
C461 C462 1.398 . S
C462 H450 0.950 1_565 S
C462 C461 1.398 . S
C462 C463 1.391 . S
C463 H451 0.950 . S
C463 C459 1.393 . S
C463 C462 1.391 . S
H464 C472 0.950 . S
H465 C477 0.950 . S
H466 C474 0.950 . S
H467 C476 0.950 . S
H468 C478 0.950 . S
H469 C480 0.950 . S
H470 C482 0.950 . S
H471 C483 0.950 . S
C472 H464 0.950 . S
C472 C473 1.386 . S
C472 C474 1.391 . S
C473 C472 1.386 . S
C473 C477 1.393 . S
C474 H466 0.950 . S
C474 C472 1.391 . S
C474 C475 1.400 . S
C475 C474 1.400 . S
C475 C476 1.398 . S
C475 C481 1.491 1_655 S
C476 H467 0.950 . S
C476 C475 1.398 . S
C476 C477 1.391 . S
C477 H465 0.950 . S
C477 C473 1.393 . S
C477 C476 1.391 . S
C478 H468 0.950 . S
C478 C479 1.386 . S
C478 C480 1.391 . S
C479 C478 1.386 . S
C479 C483 1.393 . S
C480 H469 0.950 . S
C480 C478 1.391 . S
C480 C481 1.400 . S
C481 C475 1.491 1_455 S
C481 C480 1.400 . S
C481 C482 1.398 . S
C482 H470 0.950 . S
C482 C481 1.398 . S
C482 C483 1.391 . S
C483 H471 0.950 . S
C483 C479 1.393 . S
C483 C482 1.391 . S
H484 C492 0.950 . S
H485 C497 0.950 . S
H486 C494 0.950 . S
H487 C496 0.950 . S
H488 C498 0.950 . S
H489 C500 0.950 . S
H490 C502 0.950 . S
H491 C503 0.950 . S
C492 H484 0.950 . S
C492 C493 1.386 . S
C492 C494 1.391 . S
C493 C492 1.386 . S
C493 C497 1.393 . S
C494 H486 0.950 . S
C494 C492 1.391 . S
C494 C495 1.400 . S
C495 C494 1.400 . S
C495 C496 1.398 . S
C495 C501 1.491 1_455 S
C496 H487 0.950 . S
C496 C495 1.398 . S
C496 C497 1.391 . S
C497 H485 0.950 . S
C497 C493 1.393 . S
C497 C496 1.391 . S
C498 H488 0.950 . S
C498 C499 1.386 . S
C498 C500 1.391 . S
C499 C498 1.386 . S
C499 C503 1.393 . S
C500 H489 0.950 . S
C500 C498 1.391 . S
C500 C501 1.400 . S
C501 C495 1.491 1_655 S
C501 C500 1.400 . S
C501 C502 1.398 . S
C502 H490 0.950 . S
C502 C501 1.398 . S
C502 C503 1.391 . S
C503 H491 0.950 . S
C503 C499 1.393 . S
C503 C502 1.391 . S
H504 C512 0.950 . S
H505 C517 0.950 . S
H506 C514 0.950 . S
H507 C516 0.950 . S
H508 C518 0.950 . S
H509 C520 0.950 . S
H510 C522 0.950 . S
H511 C523 0.950 . S
C512 H504 0.950 . S
C512 C513 1.386 . S
C512 C514 1.391 . S
C513 C512 1.386 . S
C513 C517 1.393 . S
C514 H506 0.950 . S
C514 C512 1.391 . S
C514 C515 1.400 . S
C515 C514 1.400 . S
C515 C516 1.398 . S
C515 C521 1.491 1_655 S
C516 H507 0.950 . S
C516 C515 1.398 . S
C516 C517 1.391 . S
C517 H505 0.950 . S
C517 C513 1.393 . S
C517 C516 1.391 . S
C518 H508 0.950 . S
C518 C519 1.386 . S
C518 C520 1.391 . S
C519 C518 1.386 . S
C519 C523 1.393 . S
C520 H509 0.950 . S
C520 C518 1.391 . S
C520 C521 1.400 . S
C521 C515 1.491 1_455 S
C521 C520 1.400 . S
C521 C522 1.398 . S
C522 H510 0.950 . S
C522 C521 1.398 . S
C522 C523 1.391 . S
C523 H511 0.950 . S
C523 C519 1.393 . S
C523 C522 1.391 . S
H524 C532 0.950 . S
H525 C537 0.950 . S
H526 C534 0.950 . S
H527 C536 0.950 . S
H528 C538 0.950 . S
H529 C540 0.950 . S
H530 C542 0.950 . S
H531 C543 0.950 . S
C532 H524 0.950 . S
C532 C533 1.386 . S
C532 C534 1.391 . S
C533 C532 1.386 . S
C533 C537 1.393 . S
C534 H526 0.950 . S
C534 C532 1.391 . S
C534 C535 1.400 . S
C535 C534 1.400 . S
C535 C536 1.398 . S
C535 C541 1.491 1_455 S
C536 H527 0.950 . S
C536 C535 1.398 . S
C536 C537 1.391 . S
C537 H525 0.950 . S
C537 C533 1.393 . S
C537 C536 1.391 . S
C538 H528 0.950 . S
C538 C539 1.386 . S
C538 C540 1.391 . S
C539 C538 1.386 . S
C539 C543 1.393 . S
C540 H529 0.950 . S
C540 C538 1.391 . S
C540 C541 1.400 . S
C541 C535 1.491 1_655 S
C541 C540 1.400 . S
C541 C542 1.398 . S
C542 H530 0.950 . S
C542 C541 1.398 . S
C542 C543 1.391 . S
C543 H531 0.950 . S
C543 C539 1.393 . S
C543 C542 1.391 . S
H544 C552 0.950 . S
H545 C557 0.950 . S
H546 C554 0.950 . S
H547 C556 0.950 . S
H548 C558 0.950 . S
H549 C560 0.950 . S
H550 C562 0.950 . S
H551 C563 0.950 . S
C552 H544 0.950 . S
C552 C553 1.386 . S
C552 C554 1.391 . S
C553 C552 1.386 . S
C553 C557 1.393 . S
C554 H546 0.950 . S
C554 C552 1.391 . S
C554 C555 1.400 . S
C555 C554 1.400 . S
C555 C556 1.398 . S
C555 C561 1.491 . S
C556 H547 0.950 . S
C556 C555 1.398 . S
C556 C557 1.391 . S
C557 H545 0.950 . S
C557 C553 1.393 . S
C557 C556 1.391 . S
C558 H548 0.950 . S
C558 C559 1.386 . S
C558 C560 1.391 . S
C559 C558 1.386 . S
C559 C563 1.393 . S
C560 H549 0.950 . S
C560 C558 1.391 . S
C560 C561 1.400 . S
C561 C555 1.491 . S
C561 C560 1.400 . S
C561 C562 1.398 . S
C562 H550 0.950 . S
C562 C561 1.398 . S
C562 C563 1.391 . S
C563 H551 0.950 . S
C563 C559 1.393 . S
C563 C562 1.391 . S
H564 C572 0.950 . S
H565 C577 0.950 . S
H566 C574 0.950 . S
H567 C576 0.950 . S
H568 C578 0.950 . S
H569 C580 0.950 . S
H570 C582 0.950 . S
H571 C583 0.950 . S
C572 H564 0.950 . S
C572 C573 1.386 . S
C572 C574 1.391 . S
C573 C572 1.386 . S
C573 C577 1.393 . S
C574 H566 0.950 . S
C574 C572 1.391 . S
C574 C575 1.400 . S
C575 C574 1.400 . S
C575 C576 1.398 . S
C575 C581 1.491 . S
C576 H567 0.950 . S
C576 C575 1.398 . S
C576 C577 1.391 . S
C577 H565 0.950 . S
C577 C573 1.393 . S
C577 C576 1.391 . S
C578 H568 0.950 . S
C578 C579 1.386 . S
C578 C580 1.391 . S
C579 C578 1.386 . S
C579 C583 1.393 . S
C580 H569 0.950 . S
C580 C578 1.391 . S
C580 C581 1.400 . S
C581 C575 1.491 . S
C581 C580 1.400 . S
C581 C582 1.398 . S
C582 H570 0.950 . S
C582 C581 1.398 . S
C582 C583 1.391 . S
C583 H571 0.950 . S
C583 C579 1.393 . S
C583 C582 1.391 . S
H584 C592 0.950 . S
H585 C597 0.950 . S
H586 C594 0.950 . S
H587 C596 0.950 . S
H588 C598 0.950 . S
H589 C600 0.950 . S
H590 C602 0.950 . S
H591 C603 0.950 . S
C592 H584 0.950 . S
C592 C593 1.386 . S
C592 C594 1.391 . S
C593 C592 1.386 . S
C593 C597 1.393 . S
C594 H586 0.950 . S
C594 C592 1.391 . S
C594 C595 1.400 . S
C595 C594 1.400 . S
C595 C596 1.398 . S
C595 C601 1.491 . S
C596 H587 0.950 . S
C596 C595 1.398 . S
C596 C597 1.391 . S
C597 H585 0.950 . S
C597 C593 1.393 . S
C597 C596 1.391 . S
C598 H588 0.950 . S
C598 C599 1.386 . S
C598 C600 1.391 . S
C599 C598 1.386 . S
C599 C603 1.393 . S
C600 H589 0.950 . S
C600 C598 1.391 . S
C600 C601 1.400 . S
C601 C595 1.491 . S
C601 C600 1.400 . S
C601 C602 1.398 . S
C602 H590 0.950 . S
C602 C601 1.398 . S
C602 C603 1.391 . S
C603 H591 0.950 . S
C603 C599 1.393 . S
C603 C602 1.391 . S
H604 C612 0.950 . S
H605 C617 0.950 . S
H606 C614 0.950 . S
H607 C616 0.950 . S
H608 C618 0.950 . S
H609 C620 0.950 . S
H610 C622 0.950 . S
H611 C623 0.950 . S
C612 H604 0.950 . S
C612 C613 1.386 . S
C612 C614 1.391 . S
C613 C612 1.386 . S
C613 C617 1.393 . S
C614 H606 0.950 . S
C614 C612 1.391 . S
C614 C615 1.400 . S
C615 C614 1.400 . S
C615 C616 1.398 . S
C615 C621 1.491 . S
C616 H607 0.950 . S
C616 C615 1.398 . S
C616 C617 1.391 . S
C617 H605 0.950 . S
C617 C613 1.393 . S
C617 C616 1.391 . S
C618 H608 0.950 . S
C618 C619 1.386 . S
C618 C620 1.391 . S
C619 C618 1.386 . S
C619 C623 1.393 . S
C620 H609 0.950 . S
C620 C618 1.391 . S
C620 C621 1.400 . S
C621 C615 1.491 . S
C621 C620 1.400 . S
C621 C622 1.398 . S
C622 H610 0.950 . S
C622 C621 1.398 . S
C622 C623 1.391 . S
C623 H611 0.950 . S
C623 C619 1.393 . S
C623 C622 1.391 . S
H624 C632 0.950 . S
H625 C637 0.950 . S
H626 C634 0.950 . S
H627 C636 0.950 . S
H628 C638 0.950 . S
H629 C640 0.950 . S
H630 C642 0.950 . S
H631 C643 0.950 . S
C632 H624 0.950 . S
C632 C633 1.386 . S
C632 C634 1.391 . S
C633 C632 1.386 . S
C633 C637 1.393 . S
C634 H626 0.950 . S
C634 C632 1.391 . S
C634 C635 1.400 . S
C635 C634 1.400 . S
C635 C636 1.398 . S
C635 C641 1.491 . S
C636 H627 0.950 . S
C636 C635 1.398 . S
C636 C637 1.391 . S
C637 H625 0.950 . S
C637 C633 1.393 . S
C637 C636 1.391 . S
C638 H628 0.950 . S
C638 C639 1.386 . S
C638 C640 1.391 . S
C639 C638 1.386 . S
C639 C643 1.393 . S
C640 H629 0.950 . S
C640 C638 1.391 . S
C640 C641 1.400 . S
C641 C635 1.491 . S
C641 C640 1.400 . S
C641 C642 1.398 . S
C642 H630 0.950 . S
C642 C641 1.398 . S
C642 C643 1.391 . S
C643 H631 0.950 . S
C643 C639 1.393 . S
C643 C642 1.391 . S
H644 C652 0.950 . S
H645 C657 0.950 . S
H646 C654 0.950 . S
H647 C656 0.950 . S
H648 C658 0.950 . S
H649 C660 0.950 . S
H650 C662 0.950 . S
H651 C663 0.950 . S
C652 H644 0.950 . S
C652 C653 1.386 . S
C652 C654 1.391 . S
C653 C652 1.386 . S
C653 C657 1.393 . S
C654 H646 0.950 . S
C654 C652 1.391 . S
C654 C655 1.400 . S
C655 C654 1.400 . S
C655 C656 1.398 . S
C655 C661 1.491 . S
C656 H647 0.950 . S
C656 C655 1.398 . S
C656 C657 1.391 . S
C657 H645 0.950 . S
C657 C653 1.393 . S
C657 C656 1.391 . S
C658 H648 0.950 . S
C658 C659 1.386 . S
C658 C660 1.391 . S
C659 C658 1.386 . S
C659 C663 1.393 . S
C660 H649 0.950 . S
C660 C658 1.391 . S
C660 C661 1.400 . S
C661 C655 1.491 . S
C661 C660 1.400 . S
C661 C662 1.398 . S
C662 H650 0.950 . S
C662 C661 1.398 . S
C662 C663 1.391 . S
C663 H651 0.950 . S
C663 C659 1.393 . S
C663 C662 1.391 . S
H664 C672 0.950 . S
H665 C677 0.950 . S
H666 C674 0.950 . S
H667 C676 0.950 . S
H668 C678 0.950 . S
H669 C680 0.950 . S
H670 C682 0.950 . S
H671 C683 0.950 . S
C672 H664 0.950 . S
C672 C673 1.386 . S
C672 C674 1.391 . S
C673 C672 1.386 . S
C673 C677 1.393 . S
C674 H666 0.950 . S
C674 C672 1.391 . S
C674 C675 1.400 . S
C675 C674 1.400 . S
C675 C676 1.398 . S
C675 C681 1.491 . S
C676 H667 0.950 . S
C676 C675 1.398 . S
C676 C677 1.391 . S
C677 H665 0.950 . S
C677 C673 1.393 . S
C677 C676 1.391 . S
C678 H668 0.950 . S
C678 C679 1.386 . S
C678 C680 1.391 . S
C679 C678 1.386 . S
C679 C683 1.393 . S
C680 H669 0.950 . S
C680 C678 1.391 . S
C680 C681 1.400 . S
C681 C675 1.491 . S
C681 C680 1.400 . S
C681 C682 1.398 . S
C682 H670 0.950 . S
C682 C681 1.398 . S
C682 C683 1.391 . S
C683 H671 0.950 . S
C683 C679 1.393 . S
C683 C682 1.391 . S
H684 C692 0.950 . S
H685 C697 0.950 . S
H686 C694 0.950 . S
H687 C696 0.950 . S
H688 C698 0.950 . S
H689 C700 0.950 . S
H690 C702 0.950 . S
H691 C703 0.950 . S
C692 H684 0.950 . S
C692 C693 1.386 . S
C692 C694 1.391 . S
C693 C692 1.386 . S
C693 C697 1.393 . S
C694 H686 0.950 . S
C694 C692 1.391 . S
C694 C695 1.400 . S
C695 C694 1.400 . S
C695 C696 1.398 . S
C695 C701 1.491 . S
C696 H687 0.950 . S
C696 C695 1.398 . S
C696 C697 1.391 . S
C697 H685 0.950 . S
C697 C693 1.393 . S
C697 C696 1.391 . S
C698 H688 0.950 . S
C698 C699 1.386 . S
C698 C700 1.391 . S
C699 C698 1.386 . S
C699 C703 1.393 . S
C700 H689 0.950 . S
C700 C698 1.391 . S
C700 C701 1.400 . S
C701 C695 1.491 . S
C701 C700 1.400 . S
C701 C702 1.398 . S
C702 H690 0.950 . S
C702 C701 1.398 . S
C702 C703 1.391 . S
C703 H691 0.950 . S
C703 C699 1.393 . S
C703 C702 1.391 . S
H704 C712 0.950 . S
H705 C717 0.950 . S
H706 C714 0.950 . S
H707 C716 0.950 . S
H708 C718 0.950 . S
H709 C720 0.950 . S
H710 C722 0.950 . S
H711 C723 0.950 . S
C712 H704 0.950 . S
C712 C713 1.386 . S
C712 C714 1.391 . S
C713 C712 1.386 . S
C713 C717 1.393 1_545 S
C714 H706 0.950 . S
C714 C712 1.391 . S
C714 C715 1.424 . S
C715 C714 1.424 . S
C715 C716 1.376 1_545 S
C715 C721 1.489 1_545 S
C716 H707 0.950 . S
C716 C715 1.376 1_565 S
C716 C717 1.391 . S
C717 H705 0.950 . S
C717 C713 1.393 1_565 S
C717 C716 1.391 . S
C718 H708 0.950 . S
C718 C719 1.386 . S
C718 C720 1.391 . S
C719 C718 1.386 . S
C719 C723 1.393 1_565 S
C720 H709 0.950 . S
C720 C718 1.391 . S
C720 C721 1.424 . S
C721 C715 1.489 1_565 S
C721 C720 1.424 . S
C721 C722 1.376 1_565 S
C722 H710 0.950 . S
C722 C721 1.376 1_545 S
C722 C723 1.391 . S
C723 H711 0.950 . S
C723 C719 1.393 1_545 S
C723 C722 1.391 . S
H724 C732 0.950 . S
H725 C737 0.950 . S
H726 C734 0.950 . S
H727 C736 0.950 . S
H728 C738 0.950 . S
H729 C740 0.950 . S
H730 C742 0.950 . S
H731 C743 0.950 . S
C732 H724 0.950 . S
C732 C733 1.386 . S
C732 C734 1.391 . S
C733 C732 1.386 . S
C733 C737 1.393 1_545 S
C734 H726 0.950 . S
C734 C732 1.391 . S
C734 C735 1.400 . S
C735 C734 1.400 . S
C735 C736 1.398 1_545 S
C735 C741 1.491 1_545 S
C736 H727 0.950 . S
C736 C735 1.398 1_565 S
C736 C737 1.391 . S
C737 H725 0.950 . S
C737 C733 1.393 1_565 S
C737 C736 1.391 . S
C738 H728 0.950 . S
C738 C739 1.386 . S
C738 C740 1.391 . S
C739 C738 1.386 . S
C739 C743 1.393 1_565 S
C740 H729 0.950 . S
C740 C738 1.391 . S
C740 C741 1.400 . S
C741 C735 1.491 1_565 S
C741 C740 1.400 . S
C741 C742 1.398 1_565 S
C742 H730 0.950 . S
C742 C741 1.398 1_545 S
C742 C743 1.391 . S
C743 H731 0.950 . S
C743 C739 1.393 1_545 S
C743 C742 1.391 . S
H744 C752 0.950 . S
H745 C757 0.950 . S
H746 C754 0.950 . S
H747 C756 0.950 . S
H748 C758 0.950 . S
H749 C760 0.950 . S
H750 C762 0.950 . S
H751 C763 0.950 . S
C752 H744 0.950 . S
C752 C753 1.386 . S
C752 C754 1.391 . S
C753 C752 1.386 . S
C753 C757 1.393 1_545 S
C754 H746 0.950 . S
C754 C752 1.391 . S
C754 C755 1.402 . S
C755 C754 1.402 . S
C755 C756 1.397 1_545 S
C755 C761 1.490 1_545 S
C756 H747 0.950 . S
C756 C755 1.397 1_565 S
C756 C757 1.391 . S
C757 H745 0.950 . S
C757 C753 1.393 1_565 S
C757 C756 1.391 . S
C758 H748 0.950 . S
C758 C759 1.386 . S
C758 C760 1.391 . S
C759 C758 1.386 . S
C759 C763 1.393 1_565 S
C760 H749 0.950 . S
C760 C758 1.391 . S
C760 C761 1.402 . S
C761 C755 1.490 1_565 S
C761 C760 1.402 . S
C761 C762 1.397 1_565 S
C762 H750 0.950 . S
C762 C761 1.397 1_545 S
C762 C763 1.391 . S
C763 H751 0.950 . S
C763 C759 1.393 1_545 S
C763 C762 1.391 . S
H764 C772 0.952 . S
H765 C777 0.950 . S
H766 C774 0.950 . S
H767 C776 0.950 . S
H768 C778 0.952 . S
H769 C780 0.950 . S
H770 C782 0.950 . S
H771 C783 0.950 . S
C772 H764 0.952 . S
C772 C773 1.383 1_545 S
C772 C774 1.392 . S
C773 C772 1.383 1_565 S
C773 C777 1.393 . S
C774 H766 0.950 . S
C774 C772 1.392 . S
C774 C775 1.400 1_545 S
C775 C774 1.400 1_565 S
C775 C776 1.398 . S
C775 C781 1.491 1_565 S
C776 H767 0.950 . S
C776 C775 1.398 . S
C776 C777 1.391 . S
C777 H765 0.950 . S
C777 C773 1.393 . S
C777 C776 1.391 . S
C778 H768 0.952 . S
C778 C779 1.383 1_565 S
C778 C780 1.392 . S
C779 C778 1.383 1_545 S
C779 C783 1.393 . S
C780 H769 0.950 . S
C780 C778 1.392 . S
C780 C781 1.400 1_565 S
C781 C775 1.491 1_545 S
C781 C780 1.400 1_545 S
C781 C782 1.398 . S
C782 H770 0.950 . S
C782 C781 1.398 . S
C782 C783 1.391 . S
C783 H771 0.950 . S
C783 C779 1.393 . S
C783 C782 1.391 . S
H784 C792 0.950 . S
H785 C797 0.950 . S
H786 C794 0.950 . S
H787 C796 0.950 . S
H788 C798 0.950 . S
H789 C800 0.950 . S
H790 C802 0.950 . S
H791 C803 0.950 . S
C792 H784 0.950 . S
C792 C793 1.386 . S
C792 C794 1.391 . S
C793 C792 1.386 . S
C793 C797 1.393 . S
C794 H786 0.950 . S
C794 C792 1.391 . S
C794 C795 1.400 . S
C795 C794 1.400 . S
C795 C796 1.398 . S
C795 C801 1.491 . S
C796 H787 0.950 . S
C796 C795 1.398 . S
C796 C797 1.391 . S
C797 H785 0.950 . S
C797 C793 1.393 . S
C797 C796 1.391 . S
C798 H788 0.950 . S
C798 C799 1.386 . S
C798 C800 1.391 . S
C799 C798 1.386 . S
C799 C803 1.393 . S
C800 H789 0.950 . S
C800 C798 1.391 . S
C800 C801 1.400 . S
C801 C795 1.491 . S
C801 C800 1.400 . S
C801 C802 1.398 . S
C802 H790 0.950 . S
C802 C801 1.398 . S
C802 C803 1.391 . S
C803 H791 0.950 . S
C803 C799 1.393 . S
C803 C802 1.391 . S
H804 C812 0.950 . S
H805 C817 0.950 . S
H806 C814 0.950 . S
H807 C816 0.950 . S
H808 C818 0.950 . S
H809 C820 0.950 . S
H810 C822 0.950 . S
H811 C823 0.950 . S
C812 H804 0.950 . S
C812 C813 1.386 . S
C812 C814 1.391 . S
C813 C812 1.386 . S
C813 C817 1.393 . S
C814 H806 0.950 . S
C814 C812 1.391 . S
C814 C815 1.400 . S
C815 C814 1.400 . S
C815 C816 1.398 . S
C815 C821 1.491 . S
C816 H807 0.950 . S
C816 C815 1.398 . S
C816 C817 1.391 . S
C817 H805 0.950 . S
C817 C813 1.393 . S
C817 C816 1.391 . S
C818 H808 0.950 . S
C818 C819 1.386 . S
C818 C820 1.391 . S
C819 C818 1.386 . S
C819 C823 1.393 . S
C820 H809 0.950 . S
C820 C818 1.391 . S
C820 C821 1.400 . S
C821 C815 1.491 . S
C821 C820 1.400 . S
C821 C822 1.398 . S
C822 H810 0.950 . S
C822 C821 1.398 . S
C822 C823 1.391 . S
C823 H811 0.950 . S
C823 C819 1.393 . S
C823 C822 1.391 . S
H824 C832 0.950 . S
H825 C837 0.950 . S
H826 C834 0.950 . S
H827 C836 0.950 . S
H828 C838 0.950 . S
H829 C840 0.950 . S
H830 C842 0.950 . S
H831 C843 0.950 . S
C832 H824 0.950 . S
C832 C833 1.386 . S
C832 C834 1.391 . S
C833 C832 1.386 . S
C833 C837 1.393 . S
C834 H826 0.950 . S
C834 C832 1.391 . S
C834 C835 1.400 . S
C835 C834 1.400 . S
C835 C836 1.398 . S
C835 C841 1.491 . S
C836 H827 0.950 . S
C836 C835 1.398 . S
C836 C837 1.391 . S
C837 H825 0.950 . S
C837 C833 1.393 . S
C837 C836 1.391 . S
C838 H828 0.950 . S
C838 C839 1.386 . S
C838 C840 1.391 . S
C839 C838 1.386 . S
C839 C843 1.393 . S
C840 H829 0.950 . S
C840 C838 1.391 . S
C840 C841 1.400 . S
C841 C835 1.491 . S
C841 C840 1.400 . S
C841 C842 1.398 . S
C842 H830 0.950 . S
C842 C841 1.398 . S
C842 C843 1.391 . S
C843 H831 0.950 . S
C843 C839 1.393 . S
C843 C842 1.391 . S
H844 C852 0.950 . S
H845 C857 0.950 . S
H846 C854 0.950 . S
H847 C856 0.950 . S
H848 C858 0.950 . S
H849 C860 0.950 . S
H850 C862 0.950 . S
H851 C863 0.950 . S
C852 H844 0.950 . S
C852 C853 1.386 . S
C852 C854 1.391 . S
C853 C852 1.386 . S
C853 C857 1.393 . S
C854 H846 0.950 . S
C854 C852 1.391 . S
C854 C855 1.400 . S
C855 C854 1.400 . S
C855 C856 1.398 . S
C855 C861 1.491 . S
C856 H847 0.950 . S
C856 C855 1.398 . S
C856 C857 1.391 . S
C857 H845 0.950 . S
C857 C853 1.393 . S
C857 C856 1.391 . S
C858 H848 0.950 . S
C858 C859 1.386 . S
C858 C860 1.391 . S
C859 C858 1.386 . S
C859 C863 1.393 . S
C860 H849 0.950 . S
C860 C858 1.391 . S
C860 C861 1.400 . S
C861 C855 1.491 . S
C861 C860 1.400 . S
C861 C862 1.398 . S
C862 H850 0.950 . S
C862 C861 1.398 . S
C862 C863 1.391 . S
C863 H851 0.950 . S
C863 C859 1.393 . S
C863 C862 1.391 . S
C233 C9 1.233 . S
C239 C79 1.205 . S
C253 C65 1.212 . S
C259 C23 1.226 . S
C273 C37 1.205 . S
C279 C107 1.233 . S
C293 C93 1.231 . S
C299 C51 1.207 . S
C313 C191 1.232 . S
C319 C121 1.206 . S
C333 C177 1.221 . S
C339 C135 1.218 . S
C353 C219 1.231 . S
C359 C149 1.207 . S
C373 C163 1.232 . S
C379 C205 1.206 . S
C393 C19 1.502 . S
C399 C5 1.502 . S
C413 C33 1.505 . S
C419 C47 1.505 . S
C433 C61 1.505 . S
C439 C75 1.505 . S
C453 C89 1.502 . S
C459 C103 1.502 . S
C473 C117 1.505 . S
C479 C131 1.505 . S
C493 C159 1.503 . S
C499 C145 1.504 . S
C513 C187 1.505 . S
C519 C173 1.505 . S
C533 C201 1.503 . S
C539 C215 1.502 . S
C553 C137 1.516 . S
C559 C11 1.513 . S
C573 C25 1.520 . S
C579 C123 1.519 . S
C593 C165 1.513 . S
C599 C39 1.516 . S
C613 C53 1.520 . S
C619 C151 1.519 . S
C633 C67 1.514 . S
C639 C193 1.513 . S
C653 C179 1.514 . S
C659 C81 1.513 . S
C673 C95 1.513 . S
C679 C221 1.517 . S
C693 C207 1.513 . S
C699 C109 1.516 . S
C713 C0 1.270 . S
C719 C28 1.287 . S
C733 C42 1.264 . S
C739 C14 1.276 . S
C753 C84 1.283 . S
C759 C56 1.283 . S
C773 C98 1.268 . S
C779 C70 1.269 . S
C793 C140 1.281 . S
C799 C112 1.264 . S
C813 C126 1.276 . S
C819 C154 1.264 . S
C833 C196 1.278 . S
C839 C168 1.286 . S
C853 C182 1.287 . S
C859 C210 1.269 . S
