# Generated by pormake.
# Topology qtz-e, (6)-cn, num edge types: 1
# Building blocks:
#     Node 0, Type 0, BuildingBlock: CUKXOW_clean_sbu_0, # of connection points: 6
#     Node 1, Type 0, BuildingBlock: CUKXOW_clean_sbu_0, # of connection points: 6
#     Node 2, Type 0, BuildingBlock: CUKXOW_clean_sbu_0, # of connection points: 6
#     Node 3, Type 0, BuildingBlock: CUKXOW_clean_sbu_0, # of connection points: 6
#     Node 4, Type 0, BuildingBlock: CUKXOW_clean_sbu_0, # of connection points: 6
#     Node 5, Type 0, BuildingBlock: CUKXOW_clean_sbu_0, # of connection points: 6
#     Edge 6, Type (0, 0), BuildingBlock: UVAHIK_clean_linker_0, # of connection points: 2
#     Edge 7, Type (0, 0), BuildingBlock: UVAHIK_clean_linker_0, # of connection points: 2
#     Edge 8, Type (0, 0), BuildingBlock: UVAHIK_clean_linker_0, # of connection points: 2
#     Edge 9, Type (0, 0), BuildingBlock: UVAHIK_clean_linker_0, # of connection points: 2
#     Edge 10, Type (0, 0), BuildingBlock: UVAHIK_clean_linker_0, # of connection points: 2
#     Edge 11, Type (0, 0), BuildingBlock: UVAHIK_clean_linker_0, # of connection points: 2
#     Edge 12, Type (0, 0), BuildingBlock: UVAHIK_clean_linker_0, # of connection points: 2
#     Edge 13, Type (0, 0), BuildingBlock: UVAHIK_clean_linker_0, # of connection points: 2
#     Edge 14, Type (0, 0), BuildingBlock: UVAHIK_clean_linker_0, # of connection points: 2
#     Edge 15, Type (0, 0), BuildingBlock: UVAHIK_clean_linker_0, # of connection points: 2
#     Edge 16, Type (0, 0), BuildingBlock: UVAHIK_clean_linker_0, # of connection points: 2
#     Edge 17, Type (0, 0), BuildingBlock: UVAHIK_clean_linker_0, # of connection points: 2
#     Edge 18, Type (0, 0), BuildingBlock: UVAHIK_clean_linker_0, # of connection points: 2
#     Edge 19, Type (0, 0), BuildingBlock: UVAHIK_clean_linker_0, # of connection points: 2
#     Edge 20, Type (0, 0), BuildingBlock: UVAHIK_clean_linker_0, # of connection points: 2
#     Edge 21, Type (0, 0), BuildingBlock: UVAHIK_clean_linker_0, # of connection points: 2
#     Edge 22, Type (0, 0), BuildingBlock: UVAHIK_clean_linker_0, # of connection points: 2
#     Edge 23, Type (0, 0), BuildingBlock: UVAHIK_clean_linker_0, # of connection points: 2
# Relax obj value: 0.121
# Max RMSD: 0.165
# Mean RMSD: 0.165
data_MOF--net-qtz-e--node1-CUKXOW_clean_sbu_0--edge1-UVAHIK_clean_linker_0
_symmetry_space_group_name_H-M    P1
_symmetry_Int_Tables_number       1
_symmetry_cell_setting            triclinic
loop_
_symmetry_equiv_pos_as_xyz
'x, y, z'
_cell_length_a     33.729498
_cell_length_b     33.610545
_cell_length_c     48.550122
_cell_angle_alpha  89.894778
_cell_angle_beta   90.069936
_cell_angle_gamma 120.38396
loop_
_atom_site_label
_atom_site_type_symbol
_atom_site_fract_x
_atom_site_fract_y
_atom_site_fract_z
_atom_type_partial_charge
Tb0 Tb 0.16242 0.36761 0.03222 0.0
C1 C 0.2658 0.39418 0.03792 0.0
Tb2 Tb 0.23701 0.43896 0.99245 0.0
O3 O 0.16851 0.31071 0.01397 0.0
O4 O 0.18418 0.36938 0.99147 0.0
O5 O 0.22725 0.38314 0.05119 0.0
C6 C 0.28752 0.49065 0.95024 0.0
O7 O 0.27298 0.40812 0.0119 0.0
C8 C 0.23203 0.46965 0.04132 0.0
C9 C 0.13282 0.41178 0.98474 0.0
O10 O 0.28286 0.45112 0.9573 0.0
O11 O 0.26403 0.50083 0.967 0.0
O12 O 0.26963 0.48668 0.02706 0.0
O13 O 0.19944 0.44001 0.02705 0.0
O14 O 0.17441 0.42978 0.97367 0.0
O15 O 0.12126 0.38909 1.00864 0.0
C16 C 0.10677 0.33155 0.07545 0.0
O17 O 0.09509 0.31841 0.05003 0.0
O18 O 0.14927 0.36468 0.07626 0.0
C19 C 0.18575 0.33298 0.99107 0.0
Tb20 Tb 0.77744 0.17453 0.36511 0.0
C21 C 0.85199 0.27996 0.37535 0.0
Tb22 Tb 0.7849 0.2499 0.32543 0.0
O23 O 0.81118 0.15191 0.33501 0.0
O24 O 0.82406 0.219 0.33513 0.0
O25 O 0.826 0.23844 0.38636 0.0
C26 C 0.79727 0.3 0.28008 0.0
O27 O 0.84736 0.28977 0.34942 0.0
C28 C 0.73575 0.23655 0.36986 0.0
C29 C 0.70429 0.14576 0.3176 0.0
O30 O 0.78759 0.309 0.30434 0.0
O31 O 0.80007 0.26297 0.28143 0.0
O32 O 0.75609 0.27547 0.35656 0.0
O33 O 0.73908 0.20667 0.35622 0.0
O34 O 0.73042 0.18686 0.30602 0.0
O35 O 0.71292 0.1359 0.34268 0.0
C36 C 0.76519 0.12594 0.41116 0.0
O37 O 0.7631 0.11072 0.38631 0.0
O38 O 0.77421 0.16819 0.40996 0.0
C39 C 0.83026 0.19084 0.32175 0.0
Tb40 Tb 0.6075 0.79232 0.6981 0.0
C41 C 0.57913 0.86708 0.70565 0.0
Tb42 Tb 0.53692 0.79547 0.65846 0.0
O43 O 0.66305 0.85822 0.68115 0.0
O44 O 0.6065 0.81385 0.6575 0.0
O45 O 0.59049 0.83939 0.71832 0.0
C46 C 0.49055 0.80107 0.61561 0.0
O47 O 0.56555 0.86127 0.6796 0.0
C48 C 0.50518 0.75688 0.70674 0.0
C49 C 0.56379 0.71827 0.65038 0.0
O50 O 0.53044 0.83396 0.62393 0.0
O51 O 0.47695 0.76527 0.63143 0.0
O52 O 0.48794 0.77743 0.69266 0.0
O53 O 0.5355 0.75551 0.69252 0.0
O54 O 0.54469 0.74106 0.63968 0.0
O55 O 0.58737 0.73021 0.67393 0.0
C56 C 0.64363 0.77267 0.74102 0.0
O57 O 0.65779 0.77614 0.71568 0.0
O58 O 0.60941 0.77995 0.74189 0.0
C59 C 0.6418 0.85299 0.65788 0.0
Tb60 Tb 0.81149 0.61812 0.03139 0.0
C61 C 0.7082 0.58843 0.03756 0.0
Tb62 Tb 0.74134 0.54772 0.99007 0.0
O63 O 0.80637 0.67452 0.0116 0.0
O64 O 0.7953 0.61677 0.9895 0.0
O65 O 0.747 0.60108 0.05109 0.0
C66 C 0.68076 0.50316 0.94978 0.0
O67 O 0.70149 0.57308 0.01175 0.0
C68 C 0.76255 0.5136 0.03241 0.0
C69 C 0.84472 0.57656 0.98308 0.0
O70 O 0.68014 0.48653 0.97403 0.0
O71 O 0.71503 0.5452 0.94841 0.0
O72 O 0.75044 0.49324 1.00862 0.0
O73 O 0.75824 0.54858 0.03208 0.0
O74 O 0.80369 0.55766 0.97125 0.0
O75 O 0.85456 0.59954 1.00683 0.0
C76 C 0.8718 0.65326 0.07277 0.0
O77 O 0.85638 0.67558 0.05873 0.0
O78 O 0.85374 0.61168 0.06323 0.0
C79 C 0.79298 0.65273 0.98825 0.0
Tb80 Tb 0.18698 0.81142 0.36724 0.0
C81 C 0.14126 0.7033 0.37765 0.0
Tb82 Tb 0.19586 0.74875 0.32397 0.0
O83 O 0.14492 0.82628 0.33923 0.0
O84 O 0.14531 0.76444 0.33646 0.0
O85 O 0.15764 0.7449 0.38872 0.0
C86 C 0.19712 0.702 0.27997 0.0
O87 O 0.14624 0.69658 0.35125 0.0
C88 C 0.24956 0.76999 0.36704 0.0
C89 C 0.24479 0.85655 0.31372 0.0
O90 O 0.16065 0.70042 0.29 0.0
O91 O 0.23255 0.72991 0.29462 0.0
O92 O 0.23495 0.73216 0.35313 0.0
O93 O 0.23722 0.79519 0.35506 0.0
O94 O 0.2269 0.81494 0.30256 0.0
O95 O 0.23715 0.86327 0.33965 0.0
C96 C 0.19904 0.86079 0.41273 0.0
O97 O 0.23128 0.86396 0.3968 0.0
O98 O 0.15934 0.82989 0.40292 0.0
C99 C 0.13172 0.78894 0.32489 0.0
Tb100 Tb 0.36346 0.19059 0.69998 0.0
C101 C 0.39761 0.12028 0.70797 0.0
Tb102 Tb 0.43583 0.19125 0.66025 0.0
O103 O 0.30974 0.12293 0.68428 0.0
O104 O 0.36488 0.16787 0.65975 0.0
O105 O 0.38444 0.14659 0.72051 0.0
C106 C 0.4857 0.19058 0.61787 0.0
O107 O 0.41093 0.12631 0.68187 0.0
C108 C 0.46699 0.23296 0.70784 0.0
C109 C 0.40042 0.26171 0.65051 0.0
O110 O 0.44831 0.1549 0.62691 0.0
O111 O 0.4949 0.22629 0.63275 0.0
O112 O 0.48597 0.21379 0.6942 0.0
O113 O 0.43509 0.23116 0.69357 0.0
O114 O 0.4216 0.24072 0.64021 0.0
O115 O 0.37777 0.24982 0.67437 0.0
C116 C 0.32749 0.20962 0.7431 0.0
O117 O 0.30898 0.1993 0.71865 0.0
O118 O 0.36568 0.2092 0.74297 0.0
C119 C 0.33071 0.12785 0.66096 0.0
C120 C 0.15828 0.64482 0.24196 0.0
C121 C 0.1986 0.67596 0.25601 0.0
C122 C 0.16033 0.62016 0.21932 0.0
C123 C 0.24044 0.62478 0.16629 0.0
H124 H 0.15434 0.49386 0.15793 0.0
C125 C 0.2661 0.51985 0.08245 0.0
C126 C 0.22702 0.48803 0.06776 0.0
C127 C 0.26162 0.54015 0.10642 0.0
C128 C 0.17835 0.53051 0.15982 0.0
H129 H 0.27248 0.70567 0.25773 0.0
H130 H 0.27612 0.66282 0.21834 0.0
H131 H 0.14754 0.53512 0.19739 0.0
H132 H 0.15257 0.45124 0.06683 0.0
H133 H 0.14462 0.4872 0.1085 0.0
H134 H 0.27101 0.62064 0.12872 0.0
C135 C 0.24298 0.65763 0.22454 0.0
C136 C 0.17442 0.55411 0.18241 0.0
C137 C 0.24089 0.68202 0.24716 0.0
C138 C 0.18327 0.47568 0.07786 0.0
C139 C 0.17875 0.49615 0.10178 0.0
C140 C 0.24424 0.60132 0.14371 0.0
C141 C 0.2028 0.62654 0.2103 0.0
C142 C 0.20566 0.60144 0.18596 0.0
C143 C 0.21793 0.52926 0.11608 0.0
C144 C 0.21349 0.55384 0.14027 0.0
H145 H 0.12524 0.63958 0.24843 0.0
H146 H 0.12885 0.59669 0.20861 0.0
H147 H 0.26452 0.66143 0.16819 0.0
H148 H 0.3002 0.52953 0.07521 0.0
H149 H 0.29247 0.56473 0.11726 0.0
C150 C 0.50207 0.15057 0.5799 0.0
C151 C 0.51293 0.19131 0.59395 0.0
C152 C 0.52779 0.15194 0.55692 0.0
C153 C 0.63885 0.22789 0.521 0.0
H154 H 0.57553 0.15208 0.45761 0.0
C155 C 0.7169 0.26588 0.41199 0.0
C156 C 0.71206 0.22849 0.39651 0.0
C157 C 0.69431 0.25845 0.43722 0.0
C158 C 0.59375 0.17304 0.47529 0.0
H159 H 0.55879 0.26532 0.59511 0.0
H160 H 0.60276 0.26804 0.55477 0.0
H161 H 0.53255 0.14422 0.49965 0.0
H162 H 0.68029 0.15408 0.39515 0.0
H163 H 0.64015 0.14099 0.43921 0.0
H164 H 0.6997 0.25777 0.49619 0.0
C165 C 0.57531 0.2348 0.56172 0.0
C166 C 0.56918 0.16848 0.49943 0.0
C167 C 0.54987 0.23334 0.58474 0.0
C168 C 0.68444 0.18349 0.4067 0.0
C169 C 0.66141 0.176 0.43181 0.0
C170 C 0.66325 0.23275 0.4968 0.0
C171 C 0.56466 0.19416 0.54747 0.0
C172 C 0.5913 0.19635 0.52248 0.0
C173 C 0.66609 0.21344 0.4473 0.0
C174 C 0.64084 0.20582 0.47358 0.0
H175 H 0.47374 0.11768 0.58667 0.0
H176 H 0.51892 0.1199 0.54667 0.0
H177 H 0.65728 0.24916 0.53853 0.0
H178 H 0.73815 0.30091 0.40461 0.0
H179 H 0.6982 0.28792 0.44859 0.0
C180 C 0.34027 0.50729 0.90996 0.0
C181 C 0.31343 0.51905 0.92632 0.0
C182 C 0.36368 0.53413 0.88692 0.0
C183 C 0.35889 0.61321 0.83663 0.0
H184 H 0.48661 0.65289 0.82204 0.0
C185 C 0.45701 0.74066 0.74886 0.0
C186 C 0.48748 0.733 0.73328 0.0
C187 C 0.43822 0.71615 0.77327 0.0
C188 C 0.45076 0.64164 0.82559 0.0
H189 H 0.29024 0.56805 0.93172 0.0
H190 H 0.33058 0.61446 0.89151 0.0
H191 H 0.44872 0.60554 0.86257 0.0
H192 H 0.52305 0.69453 0.73108 0.0
H193 H 0.48946 0.65082 0.77328 0.0
H194 H 0.36017 0.64809 0.79955 0.0
C195 C 0.33354 0.58458 0.89633 0.0
C196 C 0.42913 0.61457 0.84886 0.0
C197 C 0.31063 0.55813 0.91943 0.0
C198 C 0.49967 0.70116 0.74279 0.0
C199 C 0.48057 0.67629 0.76707 0.0
C200 C 0.38029 0.6398 0.81329 0.0
C201 C 0.36011 0.57278 0.87972 0.0
C202 C 0.38305 0.60036 0.8547 0.0
C203 C 0.44912 0.68303 0.78248 0.0
C204 C 0.42661 0.65468 0.80751 0.0
H205 H 0.34295 0.47728 0.91486 0.0
H206 H 0.38371 0.52408 0.87439 0.0
H207 H 0.32312 0.60215 0.84037 0.0
H208 H 0.44749 0.76544 0.7421 0.0
H209 H 0.41502 0.72313 0.78488 0.0
C210 C 0.80884 0.31062 0.22928 0.0
C211 C 0.80139 0.32579 0.25463 0.0
C212 C 0.80985 0.3332 0.20486 0.0
C213 C 0.82386 0.44199 0.17697 0.0
H214 H 0.75231 0.36504 0.11577 0.0
C215 C 0.77449 0.51386 0.08318 0.0
C216 C 0.77293 0.49501 0.05715 0.0
C217 C 0.78239 0.49508 0.10681 0.0
C218 C 0.77312 0.38712 0.13245 0.0
H219 H 0.7904 0.37702 0.27457 0.0
H220 H 0.79214 0.41658 0.23186 0.0
H221 H 0.75875 0.32928 0.15787 0.0
H222 H 0.77932 0.44254 0.03519 0.0
H223 H 0.79375 0.40993 0.07641 0.0
H224 H 0.83811 0.49988 0.15156 0.0
C225 C 0.79744 0.38741 0.23084 0.0
C226 C 0.77673 0.36657 0.15662 0.0
C227 C 0.79622 0.36467 0.25526 0.0
C228 C 0.78012 0.45752 0.05507 0.0
C229 C 0.78815 0.43877 0.0787 0.0
C230 C 0.82045 0.4626 0.15271 0.0
C231 C 0.80366 0.37154 0.20533 0.0
C232 C 0.80181 0.39373 0.17924 0.0
C233 C 0.78891 0.45701 0.1049 0.0
C234 C 0.79468 0.43539 0.13023 0.0
H235 H 0.81317 0.28084 0.22826 0.0
H236 H 0.81531 0.32052 0.18557 0.0
H237 H 0.84392 0.46385 0.19392 0.0
H238 H 0.76868 0.54259 0.08538 0.0
H239 H 0.78207 0.50963 0.12663 0.0
C240 C 0.47977 0.84474 0.57731 0.0
C241 C 0.46474 0.80329 0.59171 0.0
C242 C 0.45505 0.84626 0.55453 0.0
C243 C 0.34102 0.7792 0.51975 0.0
H244 H 0.40759 0.85016 0.45548 0.0
C245 C 0.26536 0.74134 0.41045 0.0
C246 C 0.27178 0.77871 0.39421 0.0
C247 C 0.28691 0.74886 0.43601 0.0
C248 C 0.38854 0.83073 0.47343 0.0
H249 H 0.41252 0.73095 0.59367 0.0
H250 H 0.37028 0.73304 0.55363 0.0
H251 H 0.4497 0.85471 0.49741 0.0
H252 H 0.30576 0.85313 0.3916 0.0
H253 H 0.34445 0.86648 0.43642 0.0
H254 H 0.28014 0.75362 0.49518 0.0
C255 C 0.40027 0.76481 0.56017 0.0
C256 C 0.4126 0.83337 0.49751 0.0
C257 C 0.42471 0.76345 0.58302 0.0
C258 C 0.30002 0.82381 0.40395 0.0
C259 C 0.32229 0.83141 0.42941 0.0
C260 C 0.31712 0.77614 0.49559 0.0
C261 C 0.41501 0.80622 0.54561 0.0
C262 C 0.38922 0.80692 0.52082 0.0
C263 C 0.31594 0.79393 0.44564 0.0
C264 C 0.34072 0.80125 0.47206 0.0
H265 H 0.51053 0.87599 0.58369 0.0
H266 H 0.46717 0.87886 0.54405 0.0
H267 H 0.32168 0.75928 0.53748 0.0
H268 H 0.24356 0.70622 0.4034 0.0
H269 H 0.28177 0.71938 0.44798 0.0
C270 C 0.61685 0.43025 0.92993 0.0
C271 C 0.65146 0.47644 0.92637 0.0
C272 C 0.59229 0.40342 0.90725 0.0
C273 C 0.56632 0.4102 0.83336 0.0
H274 H 0.54344 0.28497 0.83134 0.0
C275 C 0.46758 0.28681 0.74349 0.0
C276 C 0.48407 0.25844 0.73398 0.0
C277 C 0.48455 0.3119 0.76788 0.0
C278 C 0.5498 0.31994 0.83147 0.0
H279 H 0.68678 0.53135 0.89654 0.0
H280 H 0.64454 0.4845 0.85688 0.0
H281 H 0.57923 0.33248 0.8718 0.0
H282 H 0.53127 0.23407 0.74231 0.0
H283 H 0.56191 0.27874 0.78456 0.0
H284 H 0.53856 0.39825 0.79258 0.0
C285 C 0.63573 0.46896 0.87716 0.0
C286 C 0.56976 0.34704 0.85487 0.0
C287 C 0.66012 0.49582 0.89987 0.0
C288 C 0.51786 0.25558 0.74927 0.0
C289 C 0.53509 0.2809 0.77359 0.0
C290 C 0.54651 0.38315 0.80991 0.0
C291 C 0.602 0.42217 0.88049 0.0
C292 C 0.57859 0.39265 0.85607 0.0
C293 C 0.51881 0.30958 0.78316 0.0
C294 C 0.53829 0.33776 0.80856 0.0
H295 H 0.60939 0.41451 0.95018 0.0
H296 H 0.56599 0.36781 0.91068 0.0
H297 H 0.57211 0.44496 0.83364 0.0
H298 H 0.44187 0.29005 0.73192 0.0
H299 H 0.47073 0.33308 0.77477 0.0
C300 C 0.33975 0.39507 0.04129 0.0
C301 C 0.30541 0.40038 0.05396 0.0
C302 C 0.38214 0.41145 0.0542 0.0
C303 C 0.46779 0.44423 0.0904 0.0
H304 H 0.52042 0.57697 0.08704 0.0
C305 C 0.66126 0.5656 0.08029 0.0
C306 C 0.66811 0.58214 0.05307 0.0
C307 C 0.61844 0.54857 0.09286 0.0
C308 C 0.50609 0.54007 0.08896 0.0
H309 H 0.28692 0.42416 0.09062 0.0
H310 H 0.36204 0.4546 0.11268 0.0
H311 H 0.43692 0.52643 0.08786 0.0
H312 H 0.63782 0.59818 0.01861 0.0
H313 H 0.56342 0.56994 0.04094 0.0
H314 H 0.53697 0.45783 0.08952 0.0
C315 C 0.35565 0.43673 0.09318 0.0
C316 C 0.45847 0.51118 0.08952 0.0
C317 C 0.3128 0.41925 0.08057 0.0
C318 C 0.6332 0.58555 0.03959 0.0
C319 C 0.59086 0.56968 0.05242 0.0
C320 C 0.51542 0.47315 0.09044 0.0
C321 C 0.39105 0.43432 0.07963 0.0
C322 C 0.43909 0.46308 0.08863 0.0
C323 C 0.58257 0.5492 0.07863 0.0
C324 C 0.53475 0.52112 0.08812 0.0
H325 H 0.33474 0.38069 0.02076 0.0
H326 H 0.4092 0.40977 0.04322 0.0
H327 H 0.45344 0.40722 0.08959 0.0
H328 H 0.68764 0.56229 0.09101 0.0
H329 H 0.61252 0.53256 0.11298 0.0
C330 C 0.09368 0.66035 0.41884 0.0
C331 C 0.11934 0.66241 0.39555 0.0
C332 C 0.07001 0.6193 0.43401 0.0
C333 C 0.05664 0.50244 0.4412 0.0
H334 H 0.92637 0.45866 0.43513 0.0
C335 C 0.87612 0.32247 0.41984 0.0
C336 C 0.88673 0.31683 0.39265 0.0
C337 C 0.90683 0.36142 0.43499 0.0
C338 C 0.96253 0.47042 0.43797 0.0
H339 H 0.14387 0.6252 0.37123 0.0
H340 H 0.10305 0.55439 0.39726 0.0
H341 H 0.98096 0.54127 0.4363 0.0
H342 H 0.93808 0.3451 0.36046 0.0
H343 H -0.00747 0.41219 0.38727 0.0
H344 H 0.03822 0.43148 0.43904 0.0
C345 C 0.10081 0.58385 0.40408 0.0
C346 C -0.00614 0.51778 0.43869 0.0
C347 C 0.12359 0.62424 0.38879 0.0
C348 C 0.92933 0.34888 0.38139 0.0
C349 C 0.96048 0.38689 0.39678 0.0
C350 C 0.02537 0.45518 0.44003 0.0
C351 C 0.07277 0.5804 0.42641 0.0
C352 C 0.04131 0.53409 0.438 0.0
C353 C 0.949 0.39407 0.42338 0.0
C354 C 0.97844 0.43916 0.43643 0.0
H355 H 0.09028 0.68962 0.42455 0.0
H356 H 0.04846 0.61748 0.45106 0.0
H357 H 0.09305 0.51418 0.44132 0.0
H358 H 0.84309 0.2982 0.42875 0.0
H359 H 0.89717 0.36682 0.45531 0.0
C360 C 0.4234 0.10037 0.75108 0.0
C361 C 0.40447 0.08777 0.72453 0.0
C362 C 0.4398 0.07474 0.7645 0.0
C363 C 0.51152 0.04336 0.76255 0.0
H364 H 0.45439 0.91016 0.76241 0.0
C365 C 0.57932 0.94083 0.71 0.0
C366 C 0.57394 0.90061 0.72222 0.0
C367 C 0.5654 0.96785 0.724 0.0
C368 C 0.47082 0.94739 0.76345 0.0
H369 H 0.38378 0.03688 0.69217 0.0
H370 H 0.41105 0.99116 0.71595 0.0
H371 H 0.40625 0.94528 0.76291 0.0
H372 H 0.5524 0.85817 0.75907 0.0
H373 H 0.52614 0.90465 0.7831 0.0
H374 H 0.57591 0.04538 0.75966 0.0
C375 C 0.41357 0.02088 0.72632 0.0
C376 C 0.44328 0.96737 0.76366 0.0
C377 C 0.39832 0.04712 0.71262 0.0
C378 C 0.55724 0.88936 0.74933 0.0
C379 C 0.54222 0.91578 0.76307 0.0
C380 C 0.53904 0.02336 0.76181 0.0
C381 C 0.43619 0.03561 0.7518 0.0
C382 C 0.46345 0.01539 0.76166 0.0
C383 C 0.54492 0.9544 0.75013 0.0
C384 C 0.5187 0.97525 0.76071 0.0
H385 H 0.42883 0.13194 0.76052 0.0
H386 H 0.45756 0.08686 0.78399 0.0
H387 H 0.52779 0.08051 0.76078 0.0
H388 H 0.59216 0.9501 0.68913 0.0
H389 H 0.56719 -0.00284 0.71345 0.0
C390 C 0.52596 0.65953 0.61318 0.0
C391 C 0.55489 0.67553 0.63641 0.0
C392 C 0.51103 0.61558 0.60271 0.0
C393 C 0.45386 0.5113 0.60696 0.0
H394 H 0.52536 0.4503 0.60711 0.0
C395 C 0.38923 0.32966 0.64712 0.0
C396 C 0.40651 0.303 0.63588 0.0
C397 C 0.40279 0.37324 0.6364 0.0
C398 C 0.50489 0.46681 0.60629 0.0
H399 H 0.59404 0.65955 0.6653 0.0
H400 H 0.56779 0.5828 0.64709 0.0
H401 H 0.56464 0.53429 0.60725 0.0
H402 H 0.44785 0.2992 0.60277 0.0
H403 H 0.47163 0.3754 0.58432 0.0
H404 H 0.39411 0.44378 0.60756 0.0
C405 C 0.55671 0.60428 0.63697 0.0
C406 C 0.52743 0.51486 0.60663 0.0
C407 C 0.57147 0.64815 0.64755 0.0
C408 C 0.43438 0.3191 0.61222 0.0
C409 C 0.44809 0.36275 0.6016 0.0
C410 C 0.43131 0.46324 0.60678 0.0
C411 C 0.52504 0.58698 0.61511 0.0
C412 C 0.5021 0.53745 0.60813 0.0
C413 C 0.4339 0.39093 0.61429 0.0
C414 C 0.45666 0.4406 0.60761 0.0
H415 H 0.51293 0.67994 0.60384 0.0
H416 H 0.48701 0.6032 0.58565 0.0
H417 H 0.43343 0.5278 0.60826 0.0
H418 H 0.36742 0.31815 0.6652 0.0
H419 H 0.39153 0.39434 0.64674 0.0
C420 C 0.1129 0.44917 0.94704 0.0
C421 C 0.0994 0.42064 0.97052 0.0
C422 C 0.0845 0.46426 0.93622 0.0
C423 C 0.03975 0.52281 0.94116 0.0
H424 H 0.90664 0.45209 0.93913 0.0
C425 C 0.92278 0.58515 0.9821 0.0
C426 C 0.88003 0.56998 0.96949 0.0
C427 C 0.95283 0.57196 0.97152 0.0
C428 C 0.94384 0.47234 0.93893 0.0
H429 H 0.04383 0.38214 0.99946 0.0
H430 H -0.00573 0.40863 0.98057 0.0
H431 H 0.94998 0.41197 0.9391 0.0
H432 H 0.8371 0.53275 0.9344 0.0
H433 H 0.88944 0.50938 0.91631 0.0
H434 H 0.03349 0.58305 0.94286 0.0
C435 C 0.02685 0.41929 0.97057 0.0
C436 C 0.96852 0.44934 0.93912 0.0
C437 C 0.0554 0.40443 0.98154 0.0
C438 C 0.8695 0.54447 0.9449 0.0
C439 C 0.89942 0.5311 0.93444 0.0
C440 C 0.01505 0.54579 0.94123 0.0
C441 C 0.04195 0.45071 0.9485 0.0
C442 C 0.01655 0.47435 0.94139 0.0
C443 C 0.94052 0.54331 0.94824 0.0
C444 C 0.96687 0.52063 0.94127 0.0
H445 H 0.14639 0.4619 0.93778 0.0
H446 H 0.09665 0.48819 0.91906 0.0
H447 H 0.07682 0.5429 0.9431 0.0
H448 H 0.93204 0.6051 1.00094 0.0
H449 H 0.98422 0.58152 0.9827 0.0
C450 C 0.29827 0.94112 0.30822 0.0
C451 C 0.2815 0.89607 0.29852 0.0
C452 C 0.34163 0.97649 0.30017 0.0
C453 C 0.44218 0.01574 0.30794 0.0
H454 H 0.5143 0.03112 0.24238 0.0
C455 C 0.62932 0.0719 0.31803 0.0
C456 C 0.65928 0.11392 0.30498 0.0
C457 C 0.58322 0.04687 0.31042 0.0
C458 C 0.49438 0.02725 0.26071 0.0
H459 H 0.2938 0.85414 0.26969 0.0
H460 H 0.36986 0.91535 0.25645 0.0
H461 H 0.42994 0.99135 0.23921 0.0
H462 H 0.66554 0.15993 0.27159 0.0
H463 H 0.58452 0.11571 0.25835 0.0
H464 H 0.50592 0.05 0.32963 0.0
C465 C 0.34968 0.92367 0.27007 0.0
C466 C 0.44633 0.00468 0.25893 0.0
C467 C 0.30601 0.88841 0.27782 0.0
C468 C 0.64322 0.12792 0.28227 0.0
C469 C 0.59692 0.10264 0.27459 0.0
C470 C 0.48975 0.03769 0.30972 0.0
C471 C 0.36915 0.96714 0.2827 0.0
C472 C 0.41974 -0.00199 0.28269 0.0
C473 C 0.56626 0.06321 0.28955 0.0
C474 C 0.51618 0.04262 0.28633 0.0
H475 H 0.27965 0.94827 0.32372 0.0
H476 H 0.3553 0.01011 0.30961 0.0
H477 H 0.42294 0.01049 0.32677 0.0
H478 H 0.64068 0.0597 0.33528 0.0
H479 H 0.56018 0.01601 0.32192 0.0
C480 C 0.26333 0.21081 0.76837 0.0
C481 C 0.30844 0.21905 0.76783 0.0
C482 C 0.24544 0.21808 0.79262 0.0
C483 C 0.26641 0.23238 0.86827 0.0
H484 H 0.1915 0.28952 0.86467 0.0
C485 C 0.19484 0.27265 0.96626 0.0
C486 C 0.19667 0.31528 0.96624 0.0
C487 C 0.20418 0.25617 0.94208 0.0
C488 C 0.21257 0.27372 0.86606 0.0
H489 H 0.37069 0.2423 0.7917 0.0
H490 H 0.34023 0.25623 0.83354 0.0
H491 H 0.21667 0.27072 0.82223 0.0
H492 H 0.20912 0.37388 0.9411 0.0
H493 H 0.22713 0.34634 0.89955 0.0
H494 H 0.26424 0.23753 0.91208 0.0
C495 C 0.31797 0.24288 0.81571 0.0
C496 C 0.22648 0.26236 0.84168 0.0
C497 C 0.3356 0.2353 0.79164 0.0
C498 C 0.20799 0.34112 0.94181 0.0
C499 C 0.2176 0.32494 0.91783 0.0
C500 C 0.25277 0.24406 0.89264 0.0
C501 C 0.27254 0.23397 0.81664 0.0
C502 C 0.2543 0.24234 0.84248 0.0
C503 C 0.21557 0.28215 0.91756 0.0
C504 C 0.22642 0.26568 0.89182 0.0
H505 H 0.2417 0.19808 0.75025 0.0
H506 H 0.21022 0.21059 0.79267 0.0
H507 H 0.28706 0.21614 0.86966 0.0
H508 H 0.18591 0.252 0.98484 0.0
H509 H 0.20196 0.22289 0.94253 0.0
C510 C 0.86178 0.16844 0.28166 0.0
C511 C 0.85832 0.20234 0.2965 0.0
C512 C 0.88805 0.18011 0.25747 0.0
C513 C 0.98013 0.28221 0.22019 0.0
H514 H 0.94211 0.19831 0.15819 0.0
C515 C 0.09735 0.32409 0.12623 0.0
C516 C 0.07727 0.31257 0.09999 0.0
C517 C 0.07022 0.3079 0.14984 0.0
C518 C 0.95299 0.22237 0.1752 0.0
H519 H 0.88021 0.27502 0.29811 0.0
H520 H 0.92363 0.29491 0.25557 0.0
H521 H 0.89512 0.17586 0.19977 0.0
H522 H 0.01318 0.27478 0.07767 0.0
H523 H 0.96512 0.24764 0.11906 0.0
H524 H 0.0366 0.32962 0.19542 0.0
C525 C 0.90725 0.25952 0.26264 0.0
C526 C 0.92637 0.20919 0.19925 0.0
C527 C 0.88173 0.248 0.28691 0.0
C528 C 0.02945 0.28404 0.09772 0.0
C529 C 0.00204 0.26831 0.12145 0.0
C530 C 0.0063 0.29556 0.19613 0.0
C531 C 0.91111 0.22587 0.24762 0.0
C532 C 0.93958 0.23901 0.22207 0.0
C533 C 0.0221 0.28043 0.14786 0.0
C534 C -0.00667 0.26582 0.17331 0.0
H535 H 0.84424 0.13299 0.28872 0.0
H536 H 0.89073 0.15337 0.24672 0.0
H537 H -0.00799 0.3059 0.23741 0.0
H538 H 0.13424 0.3457 0.12857 0.0
H539 H 0.08717 0.31701 0.1697 0.0
C540 C 0.69385 0.93024 0.63632 0.0
C541 C 0.65892 0.88394 0.63381 0.0
C542 C 0.70922 0.95889 0.61303 0.0
C543 C 0.71988 0.95622 0.53856 0.0
H544 H 0.71449 0.06864 0.53638 0.0
C545 C 0.73743 0.05155 0.43637 0.0
C546 C 0.75758 0.09964 0.43685 0.0
C547 C 0.72856 0.02675 0.46099 0.0
C548 C 0.71719 0.03789 0.5367 0.0
H549 H 0.61286 0.83106 0.60525 0.0
H550 H 0.64045 0.88065 0.5647 0.0
H551 H 0.69519 0.02376 0.57886 0.0
H552 H 0.78541 0.15986 0.46313 0.0
H553 H 0.772 0.11711 0.50596 0.0
H554 H 0.74268 0.9703 0.49679 0.0
C555 C 0.65575 0.89491 0.58454 0.0
C556 C 0.70593 0.01216 0.56107 0.0
C557 C 0.63986 0.86666 0.60777 0.0
C558 C 0.76955 0.12267 0.46224 0.0
C559 C 0.76147 0.09805 0.48682 0.0
C560 C 0.73193 0.98231 0.51436 0.0
C561 C 0.69051 0.94124 0.58693 0.0
C562 C 0.70648 0.97075 0.56205 0.0
C563 C 0.7404 0.04965 0.4866 0.0
C564 C 0.73004 0.02315 0.51291 0.0
H565 H 0.7089 0.9443 0.65623 0.0
H566 H 0.73608 -0.00541 0.61532 0.0
H567 H 0.72092 0.92452 0.53893 0.0
H568 H 0.72759 0.033 0.41702 0.0
H569 H 0.71149 0.98952 0.45989 0.0
C570 C 0.65129 0.77094 0.79179 0.0
C571 C 0.66333 0.7632 0.76549 0.0
C572 C 0.66912 0.76188 0.81534 0.0
C573 C 0.70999 0.68875 0.84162 0.0
H574 H 0.76642 0.77991 0.89959 0.0
C575 C 0.78687 0.65254 0.93735 0.0
C576 C 0.78232 0.66937 0.96285 0.0
C577 C 0.77532 0.66628 0.913 0.0
C578 C 0.75016 0.75379 0.88382 0.0
H579 H 0.70316 0.73982 0.743 0.0
H580 H 0.73356 0.72255 0.78453 0.0
H581 H 0.74093 0.79954 0.85727 0.0
H582 H 0.76262 0.71398 0.98314 0.0
H583 H 0.74057 0.73698 0.94057 0.0
H584 H 0.71698 0.64217 0.86831 0.0
C585 C 0.7107 0.73618 0.78675 0.0
C586 C 0.73594 0.76522 0.85951 0.0
C587 C 0.69348 0.74611 0.76308 0.0
C588 C 0.76656 0.70074 0.96364 0.0
C589 C 0.7542 0.71401 0.93923 0.0
C590 C 0.72346 0.67701 0.86608 0.0
C591 C 0.69871 0.74413 0.81306 0.0
C592 C 0.71576 0.7328 0.83822 0.0
C593 C 0.75815 0.69666 0.91357 0.0
C594 C 0.74382 0.70939 0.88752 0.0
H595 H 0.62808 0.78412 0.79419 0.0
H596 H 0.65902 0.76785 0.83538 0.0
H597 H 0.69384 0.66294 0.82564 0.0
H598 H 0.79962 0.62876 0.93617 0.0
H599 H 0.78006 0.6531 0.89372 0.0
C600 C 0.08548 0.73234 0.28826 0.0
C601 C 0.10558 0.77721 0.29889 0.0
C602 C 0.06221 0.72139 0.2631 0.0
C603 C 0.003 0.75853 0.21467 0.0
H604 H 0.02213 0.68201 0.16297 0.0
C605 C 0.92024 0.71626 0.10609 0.0
C606 C 0.90219 0.67067 0.09705 0.0
C607 C 0.9474 0.73173 0.12987 0.0
C608 C 0.01604 0.70305 0.17726 0.0
H609 H 0.11625 0.84563 0.29205 0.0
H610 H 0.07524 0.82652 0.248 0.0
H611 H 0.06426 0.70401 0.20634 0.0
H612 H 0.89822 0.60545 0.10561 0.0
H613 H 0.94494 0.63204 0.14718 0.0
H614 H 0.95423 0.75698 0.18577 0.0
C615 C 0.07753 0.79977 0.2591 0.0
C616 C 0.04023 0.71568 0.20212 0.0
C617 C 0.10105 0.81075 0.28426 0.0
C618 C 0.91203 0.64093 0.112 0.0
C619 C 0.93901 0.65627 0.13577 0.0
C620 C 0.97864 0.74574 0.18981 0.0
C621 C 0.05817 0.75503 0.24813 0.0
C622 C 0.03369 0.74321 0.22123 0.0
C623 C 0.95693 0.70182 0.14509 0.0
C624 C 0.98454 0.71747 0.1709 0.0
H625 H 0.08741 0.70554 0.29952 0.0
H626 H 0.04687 0.68638 0.25552 0.0
H627 H -0.00316 0.77938 0.22908 0.0
H628 H 0.91313 0.73987 0.09488 0.0
H629 H 0.96108 0.76715 0.13628 0.0
C630 C 0.33817 0.10808 0.61266 0.0
C631 C 0.31351 0.09559 0.6375 0.0
C632 C 0.32257 0.07835 0.59014 0.0
C633 C 0.22131 0.98906 0.55641 0.0
H634 H 0.30665 0.96135 0.51985 0.0
C635 C 0.17271 0.87341 0.45852 0.0
C636 C 0.2075 0.88626 0.43879 0.0
C637 C 0.18266 0.8958 0.48409 0.0
C638 C 0.28248 0.96916 0.52955 0.0
H639 H 0.25242 0.04282 0.65811 0.0
H640 H 0.22415 0.99091 0.61806 0.0
H641 H 0.32943 0.00586 0.56231 0.0
H642 H 0.27933 0.9334 0.4297 0.0
H643 H 0.2963 0.97352 0.47348 0.0
H644 H 0.17503 0.95416 0.523 0.0
C645 C 0.25605 0.02354 0.61639 0.0
C646 C 0.29549 0.99434 0.554 0.0
C647 C 0.27225 0.05307 0.63923 0.0
C648 C 0.25191 0.92259 0.44464 0.0
C649 C 0.26172 0.94525 0.46991 0.0
C650 C 0.20844 0.96434 0.53162 0.0
C651 C 0.28138 0.03586 0.59174 0.0
C652 C 0.26534 0.00513 0.56743 0.0
C653 C 0.22751 0.93166 0.49022 0.0
C654 C 0.23926 0.95484 0.51761 0.0
H655 H 0.36937 0.14115 0.61048 0.0
H656 H 0.34234 0.08897 0.57124 0.0
H657 H 0.19758 -0.00274 0.56634 0.0
H658 H 0.1382 0.84528 0.4545 0.0
H659 H 0.15551 0.88422 0.49925 0.0
loop_
_geom_bond_atom_site_label_1
_geom_bond_atom_site_label_2
_geom_bond_distance
_geom_bond_site_symmetry_2
_ccdc_geom_bond_type
Tb0 O3 2.453 1_554 S
Tb0 O4 2.596 1_554 S
Tb0 O5 2.374 . S
Tb0 O13 2.343 . S
Tb0 O15 2.353 1_554 S
Tb0 O17 2.427 . S
Tb0 O18 2.513 . S
C1 O5 1.251 . S
C1 O7 1.263 . S
Tb2 O4 2.343 . S
Tb2 O7 2.353 1_556 S
Tb2 O10 2.427 . S
Tb2 O11 2.513 . S
Tb2 O12 2.453 1_556 S
Tb2 O13 2.596 1_556 S
Tb2 O14 2.374 . S
O3 Tb0 2.453 1_556 S
O3 C19 1.245 . S
O4 Tb0 2.596 1_556 S
O4 Tb2 2.343 . S
O4 C19 1.259 . S
O5 Tb0 2.374 . S
O5 C1 1.251 . S
C6 O10 1.275 . S
C6 O11 1.246 . S
O7 C1 1.263 . S
O7 Tb2 2.353 1_554 S
C8 O12 1.245 . S
C8 O13 1.259 . S
C9 O14 1.250 . S
C9 O15 1.263 . S
O10 Tb2 2.427 . S
O10 C6 1.275 . S
O11 Tb2 2.513 . S
O11 C6 1.246 . S
O12 Tb2 2.453 1_554 S
O12 C8 1.245 . S
O13 Tb0 2.343 . S
O13 Tb2 2.596 1_554 S
O13 C8 1.259 . S
O14 Tb2 2.374 . S
O14 C9 1.250 . S
O15 Tb0 2.353 1_556 S
O15 C9 1.263 . S
C16 O17 1.275 . S
C16 O18 1.246 . S
O17 Tb0 2.427 . S
O17 C16 1.275 . S
O18 Tb0 2.513 . S
O18 C16 1.246 . S
C19 O3 1.245 . S
C19 O4 1.259 . S
Tb20 O23 2.453 . S
Tb20 O24 2.596 . S
Tb20 O25 2.374 . S
Tb20 O33 2.343 . S
Tb20 O35 2.353 . S
Tb20 O37 2.427 . S
Tb20 O38 2.513 . S
C21 O25 1.251 . S
C21 O27 1.263 . S
Tb22 O24 2.343 . S
Tb22 O27 2.353 . S
Tb22 O30 2.427 . S
Tb22 O31 2.513 . S
Tb22 O32 2.453 . S
Tb22 O33 2.596 . S
Tb22 O34 2.374 . S
O23 Tb20 2.453 . S
O23 C39 1.245 . S
O24 Tb20 2.596 . S
O24 Tb22 2.343 . S
O24 C39 1.259 . S
O25 Tb20 2.374 . S
O25 C21 1.251 . S
C26 O30 1.275 . S
C26 O31 1.246 . S
O27 C21 1.263 . S
O27 Tb22 2.353 . S
C28 O32 1.245 . S
C28 O33 1.259 . S
C29 O34 1.250 . S
C29 O35 1.263 . S
O30 Tb22 2.427 . S
O30 C26 1.275 . S
O31 Tb22 2.513 . S
O31 C26 1.246 . S
O32 Tb22 2.453 . S
O32 C28 1.245 . S
O33 Tb20 2.343 . S
O33 Tb22 2.596 . S
O33 C28 1.259 . S
O34 Tb22 2.374 . S
O34 C29 1.250 . S
O35 Tb20 2.353 . S
O35 C29 1.263 . S
C36 O37 1.275 . S
C36 O38 1.246 . S
O37 Tb20 2.427 . S
O37 C36 1.275 . S
O38 Tb20 2.513 . S
O38 C36 1.246 . S
C39 O23 1.245 . S
C39 O24 1.259 . S
Tb40 O43 2.453 . S
Tb40 O44 2.596 . S
Tb40 O45 2.374 . S
Tb40 O53 2.343 . S
Tb40 O55 2.353 . S
Tb40 O57 2.427 . S
Tb40 O58 2.513 . S
C41 O45 1.251 . S
C41 O47 1.263 . S
Tb42 O44 2.343 . S
Tb42 O47 2.353 . S
Tb42 O50 2.427 . S
Tb42 O51 2.513 . S
Tb42 O52 2.453 . S
Tb42 O53 2.596 . S
Tb42 O54 2.374 . S
O43 Tb40 2.453 . S
O43 C59 1.245 . S
O44 Tb40 2.596 . S
O44 Tb42 2.343 . S
O44 C59 1.259 . S
O45 Tb40 2.374 . S
O45 C41 1.251 . S
C46 O50 1.275 . S
C46 O51 1.246 . S
O47 C41 1.263 . S
O47 Tb42 2.353 . S
C48 O52 1.245 . S
C48 O53 1.259 . S
C49 O54 1.250 . S
C49 O55 1.263 . S
O50 Tb42 2.427 . S
O50 C46 1.275 . S
O51 Tb42 2.513 . S
O51 C46 1.246 . S
O52 Tb42 2.453 . S
O52 C48 1.245 . S
O53 Tb40 2.343 . S
O53 Tb42 2.596 . S
O53 C48 1.259 . S
O54 Tb42 2.374 . S
O54 C49 1.250 . S
O55 Tb40 2.353 . S
O55 C49 1.263 . S
C56 O57 1.275 . S
C56 O58 1.246 . S
O57 Tb40 2.427 . S
O57 C56 1.275 . S
O58 Tb40 2.513 . S
O58 C56 1.246 . S
C59 O43 1.245 . S
C59 O44 1.259 . S
Tb60 O63 2.453 1_554 S
Tb60 O64 2.596 1_554 S
Tb60 O65 2.374 . S
Tb60 O73 2.343 . S
Tb60 O75 2.353 1_554 S
Tb60 O77 2.427 . S
Tb60 O78 2.513 . S
C61 O65 1.251 . S
C61 O67 1.263 . S
Tb62 O64 2.343 . S
Tb62 O67 2.353 1_556 S
Tb62 O70 2.427 . S
Tb62 O71 2.513 . S
Tb62 O72 2.453 1_556 S
Tb62 O73 2.596 1_556 S
Tb62 O74 2.374 . S
O63 Tb60 2.453 1_556 S
O63 C79 1.245 . S
O64 Tb60 2.596 1_556 S
O64 Tb62 2.343 . S
O64 C79 1.259 . S
O65 Tb60 2.374 . S
O65 C61 1.251 . S
C66 O70 1.275 . S
C66 O71 1.246 . S
O67 C61 1.263 . S
O67 Tb62 2.353 1_554 S
C68 O72 1.245 . S
C68 O73 1.259 . S
C69 O74 1.250 . S
C69 O75 1.263 . S
O70 Tb62 2.427 . S
O70 C66 1.275 . S
O71 Tb62 2.513 . S
O71 C66 1.246 . S
O72 Tb62 2.453 1_554 S
O72 C68 1.245 . S
O73 Tb60 2.343 . S
O73 Tb62 2.596 1_554 S
O73 C68 1.259 . S
O74 Tb62 2.374 . S
O74 C69 1.250 . S
O75 Tb60 2.353 1_556 S
O75 C69 1.263 . S
C76 O77 1.275 . S
C76 O78 1.246 . S
O77 Tb60 2.427 . S
O77 C76 1.275 . S
O78 Tb60 2.513 . S
O78 C76 1.246 . S
C79 O63 1.245 . S
C79 O64 1.259 . S
Tb80 O83 2.453 . S
Tb80 O84 2.596 . S
Tb80 O85 2.374 . S
Tb80 O93 2.343 . S
Tb80 O95 2.353 . S
Tb80 O97 2.427 . S
Tb80 O98 2.513 . S
C81 O85 1.251 . S
C81 O87 1.263 . S
Tb82 O84 2.343 . S
Tb82 O87 2.353 . S
Tb82 O90 2.427 . S
Tb82 O91 2.513 . S
Tb82 O92 2.453 . S
Tb82 O93 2.596 . S
Tb82 O94 2.374 . S
O83 Tb80 2.453 . S
O83 C99 1.245 . S
O84 Tb80 2.596 . S
O84 Tb82 2.343 . S
O84 C99 1.259 . S
O85 Tb80 2.374 . S
O85 C81 1.251 . S
C86 O90 1.275 . S
C86 O91 1.246 . S
O87 C81 1.263 . S
O87 Tb82 2.353 . S
C88 O92 1.245 . S
C88 O93 1.259 . S
C89 O94 1.250 . S
C89 O95 1.263 . S
O90 Tb82 2.427 . S
O90 C86 1.275 . S
O91 Tb82 2.513 . S
O91 C86 1.246 . S
O92 Tb82 2.453 . S
O92 C88 1.245 . S
O93 Tb80 2.343 . S
O93 Tb82 2.596 . S
O93 C88 1.259 . S
O94 Tb82 2.374 . S
O94 C89 1.250 . S
O95 Tb80 2.353 . S
O95 C89 1.263 . S
C96 O97 1.275 . S
C96 O98 1.246 . S
O97 Tb80 2.427 . S
O97 C96 1.275 . S
O98 Tb80 2.513 . S
O98 C96 1.246 . S
C99 O83 1.245 . S
C99 O84 1.259 . S
Tb100 O103 2.453 . S
Tb100 O104 2.596 . S
Tb100 O105 2.374 . S
Tb100 O113 2.343 . S
Tb100 O115 2.353 . S
Tb100 O117 2.427 . S
Tb100 O118 2.513 . S
C101 O105 1.251 . S
C101 O107 1.263 . S
Tb102 O104 2.343 . S
Tb102 O107 2.353 . S
Tb102 O110 2.427 . S
Tb102 O111 2.513 . S
Tb102 O112 2.453 . S
Tb102 O113 2.596 . S
Tb102 O114 2.374 . S
O103 Tb100 2.453 . S
O103 C119 1.245 . S
O104 Tb100 2.596 . S
O104 Tb102 2.343 . S
O104 C119 1.259 . S
O105 Tb100 2.374 . S
O105 C101 1.251 . S
C106 O110 1.275 . S
C106 O111 1.246 . S
O107 C101 1.263 . S
O107 Tb102 2.353 . S
C108 O112 1.245 . S
C108 O113 1.259 . S
C109 O114 1.250 . S
C109 O115 1.263 . S
O110 Tb102 2.427 . S
O110 C106 1.275 . S
O111 Tb102 2.513 . S
O111 C106 1.246 . S
O112 Tb102 2.453 . S
O112 C108 1.245 . S
O113 Tb100 2.343 . S
O113 Tb102 2.596 . S
O113 C108 1.259 . S
O114 Tb102 2.374 . S
O114 C109 1.250 . S
O115 Tb100 2.353 . S
O115 C109 1.263 . S
C116 O117 1.275 . S
C116 O118 1.246 . S
O117 Tb100 2.427 . S
O117 C116 1.275 . S
O118 Tb100 2.513 . S
O118 C116 1.246 . S
C119 O103 1.245 . S
C119 O104 1.259 . S
C120 C121 1.349 . S
C120 C122 1.327 . S
C120 H145 0.950 . S
C121 C120 1.349 . S
C121 C137 1.349 . S
C122 C120 1.327 . S
C122 C141 1.429 . S
C122 H146 0.950 . S
C123 C140 1.574 . S
C123 C142 1.368 . S
C123 H147 0.949 . S
H124 C128 0.949 . S
C125 C126 1.349 . S
C125 C127 1.327 . S
C125 H148 0.950 . S
C126 C125 1.349 . S
C126 C138 1.349 . S
C127 C125 1.327 . S
C127 C143 1.429 . S
C127 H149 0.950 . S
C128 H124 0.949 . S
C128 C136 1.574 . S
C128 C144 1.368 . S
H129 C137 0.950 . S
H130 C135 0.950 . S
H131 C136 0.949 . S
H132 C138 0.950 . S
H133 C139 0.950 . S
H134 C140 0.949 . S
C135 H130 0.950 . S
C135 C137 1.327 . S
C135 C141 1.429 . S
C136 C128 1.574 . S
C136 H131 0.949 . S
C136 C142 1.368 . S
C137 C121 1.349 . S
C137 H129 0.950 . S
C137 C135 1.327 . S
C138 C126 1.349 . S
C138 H132 0.950 . S
C138 C139 1.327 . S
C139 H133 0.950 . S
C139 C138 1.327 . S
C139 C143 1.429 . S
C140 C123 1.574 . S
C140 H134 0.949 . S
C140 C144 1.368 . S
C141 C122 1.429 . S
C141 C135 1.429 . S
C141 C142 1.523 . S
C142 C123 1.368 . S
C142 C136 1.368 . S
C142 C141 1.523 . S
C143 C127 1.429 . S
C143 C139 1.429 . S
C143 C144 1.523 . S
C144 C128 1.368 . S
C144 C140 1.368 . S
C144 C143 1.523 . S
H145 C120 0.950 . S
H146 C122 0.950 . S
H147 C123 0.949 . S
H148 C125 0.950 . S
H149 C127 0.950 . S
C150 C151 1.349 . S
C150 C152 1.327 . S
C150 H175 0.950 . S
C151 C150 1.349 . S
C151 C167 1.349 . S
C152 C150 1.327 . S
C152 C171 1.429 . S
C152 H176 0.950 . S
C153 C170 1.574 . S
C153 C172 1.368 . S
C153 H177 0.949 . S
H154 C158 0.949 . S
C155 C156 1.349 . S
C155 C157 1.327 . S
C155 H178 0.950 . S
C156 C155 1.349 . S
C156 C168 1.349 . S
C157 C155 1.327 . S
C157 C173 1.429 . S
C157 H179 0.950 . S
C158 H154 0.949 . S
C158 C166 1.574 . S
C158 C174 1.368 . S
H159 C167 0.950 . S
H160 C165 0.950 . S
H161 C166 0.949 . S
H162 C168 0.950 . S
H163 C169 0.950 . S
H164 C170 0.949 . S
C165 H160 0.950 . S
C165 C167 1.327 . S
C165 C171 1.429 . S
C166 C158 1.574 . S
C166 H161 0.949 . S
C166 C172 1.368 . S
C167 C151 1.349 . S
C167 H159 0.950 . S
C167 C165 1.327 . S
C168 C156 1.349 . S
C168 H162 0.950 . S
C168 C169 1.327 . S
C169 H163 0.950 . S
C169 C168 1.327 . S
C169 C173 1.429 . S
C170 C153 1.574 . S
C170 H164 0.949 . S
C170 C174 1.368 . S
C171 C152 1.429 . S
C171 C165 1.429 . S
C171 C172 1.523 . S
C172 C153 1.368 . S
C172 C166 1.368 . S
C172 C171 1.523 . S
C173 C157 1.429 . S
C173 C169 1.429 . S
C173 C174 1.523 . S
C174 C158 1.368 . S
C174 C170 1.368 . S
C174 C173 1.523 . S
H175 C150 0.950 . S
H176 C152 0.950 . S
H177 C153 0.949 . S
H178 C155 0.950 . S
H179 C157 0.950 . S
C180 C181 1.349 . S
C180 C182 1.327 . S
C180 H205 0.950 . S
C181 C180 1.349 . S
C181 C197 1.349 . S
C182 C180 1.327 . S
C182 C201 1.429 . S
C182 H206 0.950 . S
C183 C200 1.574 . S
C183 C202 1.368 . S
C183 H207 0.949 . S
H184 C188 0.949 . S
C185 C186 1.349 . S
C185 C187 1.327 . S
C185 H208 0.950 . S
C186 C185 1.349 . S
C186 C198 1.349 . S
C187 C185 1.327 . S
C187 C203 1.429 . S
C187 H209 0.950 . S
C188 H184 0.949 . S
C188 C196 1.574 . S
C188 C204 1.368 . S
H189 C197 0.950 . S
H190 C195 0.950 . S
H191 C196 0.949 . S
H192 C198 0.950 . S
H193 C199 0.950 . S
H194 C200 0.949 . S
C195 H190 0.950 . S
C195 C197 1.327 . S
C195 C201 1.429 . S
C196 C188 1.574 . S
C196 H191 0.949 . S
C196 C202 1.368 . S
C197 C181 1.349 . S
C197 H189 0.950 . S
C197 C195 1.327 . S
C198 C186 1.349 . S
C198 H192 0.950 . S
C198 C199 1.327 . S
C199 H193 0.950 . S
C199 C198 1.327 . S
C199 C203 1.429 . S
C200 C183 1.574 . S
C200 H194 0.949 . S
C200 C204 1.368 . S
C201 C182 1.429 . S
C201 C195 1.429 . S
C201 C202 1.523 . S
C202 C183 1.368 . S
C202 C196 1.368 . S
C202 C201 1.523 . S
C203 C187 1.429 . S
C203 C199 1.429 . S
C203 C204 1.523 . S
C204 C188 1.368 . S
C204 C200 1.368 . S
C204 C203 1.523 . S
H205 C180 0.950 . S
H206 C182 0.950 . S
H207 C183 0.949 . S
H208 C185 0.950 . S
H209 C187 0.950 . S
C210 C211 1.349 . S
C210 C212 1.327 . S
C210 H235 0.950 . S
C211 C210 1.349 . S
C211 C227 1.349 . S
C212 C210 1.327 . S
C212 C231 1.429 . S
C212 H236 0.950 . S
C213 C230 1.574 . S
C213 C232 1.368 . S
C213 H237 0.949 . S
H214 C218 0.949 . S
C215 C216 1.349 . S
C215 C217 1.327 . S
C215 H238 0.950 . S
C216 C215 1.349 . S
C216 C228 1.349 . S
C217 C215 1.327 . S
C217 C233 1.429 . S
C217 H239 0.950 . S
C218 H214 0.949 . S
C218 C226 1.574 . S
C218 C234 1.368 . S
H219 C227 0.950 . S
H220 C225 0.950 . S
H221 C226 0.949 . S
H222 C228 0.950 . S
H223 C229 0.950 . S
H224 C230 0.949 . S
C225 H220 0.950 . S
C225 C227 1.327 . S
C225 C231 1.429 . S
C226 C218 1.574 . S
C226 H221 0.949 . S
C226 C232 1.368 . S
C227 C211 1.349 . S
C227 H219 0.950 . S
C227 C225 1.327 . S
C228 C216 1.349 . S
C228 H222 0.950 . S
C228 C229 1.327 . S
C229 H223 0.950 . S
C229 C228 1.327 . S
C229 C233 1.429 . S
C230 C213 1.574 . S
C230 H224 0.949 . S
C230 C234 1.368 . S
C231 C212 1.429 . S
C231 C225 1.429 . S
C231 C232 1.523 . S
C232 C213 1.368 . S
C232 C226 1.368 . S
C232 C231 1.523 . S
C233 C217 1.429 . S
C233 C229 1.429 . S
C233 C234 1.523 . S
C234 C218 1.368 . S
C234 C230 1.368 . S
C234 C233 1.523 . S
H235 C210 0.950 . S
H236 C212 0.950 . S
H237 C213 0.949 . S
H238 C215 0.950 . S
H239 C217 0.950 . S
C240 C241 1.349 . S
C240 C242 1.327 . S
C240 H265 0.950 . S
C241 C240 1.349 . S
C241 C257 1.349 . S
C242 C240 1.327 . S
C242 C261 1.429 . S
C242 H266 0.950 . S
C243 C260 1.574 . S
C243 C262 1.368 . S
C243 H267 0.949 . S
H244 C248 0.949 . S
C245 C246 1.349 . S
C245 C247 1.327 . S
C245 H268 0.950 . S
C246 C245 1.349 . S
C246 C258 1.349 . S
C247 C245 1.327 . S
C247 C263 1.429 . S
C247 H269 0.950 . S
C248 H244 0.949 . S
C248 C256 1.574 . S
C248 C264 1.368 . S
H249 C257 0.950 . S
H250 C255 0.950 . S
H251 C256 0.949 . S
H252 C258 0.950 . S
H253 C259 0.950 . S
H254 C260 0.949 . S
C255 H250 0.950 . S
C255 C257 1.327 . S
C255 C261 1.429 . S
C256 C248 1.574 . S
C256 H251 0.949 . S
C256 C262 1.368 . S
C257 C241 1.349 . S
C257 H249 0.950 . S
C257 C255 1.327 . S
C258 C246 1.349 . S
C258 H252 0.950 . S
C258 C259 1.327 . S
C259 H253 0.950 . S
C259 C258 1.327 . S
C259 C263 1.429 . S
C260 C243 1.574 . S
C260 H254 0.949 . S
C260 C264 1.368 . S
C261 C242 1.429 . S
C261 C255 1.429 . S
C261 C262 1.523 . S
C262 C243 1.368 . S
C262 C256 1.368 . S
C262 C261 1.523 . S
C263 C247 1.429 . S
C263 C259 1.429 . S
C263 C264 1.523 . S
C264 C248 1.368 . S
C264 C260 1.368 . S
C264 C263 1.523 . S
H265 C240 0.950 . S
H266 C242 0.950 . S
H267 C243 0.949 . S
H268 C245 0.950 . S
H269 C247 0.950 . S
C270 C271 1.349 . S
C270 C272 1.327 . S
C270 H295 0.950 . S
C271 C270 1.349 . S
C271 C287 1.349 . S
C272 C270 1.327 . S
C272 C291 1.429 . S
C272 H296 0.950 . S
C273 C290 1.574 . S
C273 C292 1.368 . S
C273 H297 0.949 . S
H274 C278 0.949 . S
C275 C276 1.349 . S
C275 C277 1.327 . S
C275 H298 0.950 . S
C276 C275 1.349 . S
C276 C288 1.349 . S
C277 C275 1.327 . S
C277 C293 1.429 . S
C277 H299 0.950 . S
C278 H274 0.949 . S
C278 C286 1.574 . S
C278 C294 1.368 . S
H279 C287 0.950 . S
H280 C285 0.950 . S
H281 C286 0.949 . S
H282 C288 0.950 . S
H283 C289 0.950 . S
H284 C290 0.949 . S
C285 H280 0.950 . S
C285 C287 1.327 . S
C285 C291 1.429 . S
C286 C278 1.574 . S
C286 H281 0.949 . S
C286 C292 1.368 . S
C287 C271 1.349 . S
C287 H279 0.950 . S
C287 C285 1.327 . S
C288 C276 1.349 . S
C288 H282 0.950 . S
C288 C289 1.327 . S
C289 H283 0.950 . S
C289 C288 1.327 . S
C289 C293 1.429 . S
C290 C273 1.574 . S
C290 H284 0.949 . S
C290 C294 1.368 . S
C291 C272 1.429 . S
C291 C285 1.429 . S
C291 C292 1.523 . S
C292 C273 1.368 . S
C292 C286 1.368 . S
C292 C291 1.523 . S
C293 C277 1.429 . S
C293 C289 1.429 . S
C293 C294 1.523 . S
C294 C278 1.368 . S
C294 C290 1.368 . S
C294 C293 1.523 . S
H295 C270 0.950 . S
H296 C272 0.950 . S
H297 C273 0.949 . S
H298 C275 0.950 . S
H299 C277 0.950 . S
C300 C301 1.349 1_556 S
C300 C302 1.327 . S
C300 H325 0.950 . S
C301 C300 1.349 1_554 S
C301 C317 1.349 . S
C302 C300 1.327 . S
C302 C321 1.429 1_556 S
C302 H326 0.950 . S
C303 C320 1.574 . S
C303 C322 1.368 . S
C303 H327 0.949 . S
H304 C308 0.949 . S
C305 C306 1.349 . S
C305 C307 1.327 . S
C305 H328 0.950 . S
C306 C305 1.349 . S
C306 C318 1.349 1_554 S
C307 C305 1.327 . S
C307 C323 1.429 . S
C307 H329 0.950 . S
C308 H304 0.949 . S
C308 C316 1.574 . S
C308 C324 1.368 1_556 S
H309 C317 0.950 . S
H310 C315 0.950 . S
H311 C316 0.949 . S
H312 C318 0.950 . S
H313 C319 0.950 . S
H314 C320 0.949 . S
C315 H310 0.950 . S
C315 C317 1.327 . S
C315 C321 1.429 . S
C316 C308 1.574 . S
C316 H311 0.949 . S
C316 C322 1.368 1_556 S
C317 C301 1.349 . S
C317 H309 0.950 . S
C317 C315 1.327 . S
C318 C306 1.349 1_556 S
C318 H312 0.950 . S
C318 C319 1.327 . S
C319 H313 0.950 . S
C319 C318 1.327 . S
C319 C323 1.429 1_556 S
C320 C303 1.574 . S
C320 H314 0.949 . S
C320 C324 1.368 . S
C321 C302 1.429 1_554 S
C321 C315 1.429 . S
C321 C322 1.523 . S
C322 C303 1.368 . S
C322 C316 1.368 1_554 S
C322 C321 1.523 . S
C323 C307 1.429 . S
C323 C319 1.429 1_554 S
C323 C324 1.523 . S
C324 C308 1.368 1_554 S
C324 C320 1.368 . S
C324 C323 1.523 . S
H325 C300 0.950 . S
H326 C302 0.950 . S
H327 C303 0.949 . S
H328 C305 0.950 . S
H329 C307 0.950 . S
C330 C331 1.349 . S
C330 C332 1.327 . S
C330 H355 0.950 . S
C331 C330 1.349 . S
C331 C347 1.349 . S
C332 C330 1.327 . S
C332 C351 1.429 . S
C332 H356 0.950 . S
C333 C350 1.574 . S
C333 C352 1.368 1_655 S
C333 H357 0.949 . S
H334 C338 0.949 . S
C335 C336 1.349 . S
C335 C337 1.327 . S
C335 H358 0.950 . S
C336 C335 1.349 . S
C336 C348 1.349 . S
C337 C335 1.327 . S
C337 C353 1.429 . S
C337 H359 0.950 . S
C338 H334 0.949 . S
C338 C346 1.574 . S
C338 C354 1.368 1_455 S
H339 C347 0.950 . S
H340 C345 0.950 . S
H341 C346 0.949 . S
H342 C348 0.950 . S
H343 C349 0.950 . S
H344 C350 0.949 . S
C345 H340 0.950 . S
C345 C347 1.327 . S
C345 C351 1.429 . S
C346 C338 1.574 . S
C346 H341 0.949 . S
C346 C352 1.368 . S
C347 C331 1.349 . S
C347 H339 0.950 . S
C347 C345 1.327 . S
C348 C336 1.349 . S
C348 H342 0.950 . S
C348 C349 1.327 . S
C349 H343 0.950 . S
C349 C348 1.327 . S
C349 C353 1.429 . S
C350 C333 1.574 . S
C350 H344 0.949 . S
C350 C354 1.368 . S
C351 C332 1.429 . S
C351 C345 1.429 . S
C351 C352 1.523 . S
C352 C333 1.368 1_455 S
C352 C346 1.368 . S
C352 C351 1.523 . S
C353 C337 1.429 . S
C353 C349 1.429 . S
C353 C354 1.523 . S
C354 C338 1.368 1_655 S
C354 C350 1.368 . S
C354 C353 1.523 . S
H355 C330 0.950 . S
H356 C332 0.950 . S
H357 C333 0.949 . S
H358 C335 0.950 . S
H359 C337 0.950 . S
C360 C361 1.349 . S
C360 C362 1.327 . S
C360 H385 0.950 . S
C361 C360 1.349 . S
C361 C377 1.349 . S
C362 C360 1.327 . S
C362 C381 1.429 . S
C362 H386 0.950 . S
C363 C380 1.574 . S
C363 C382 1.368 . S
C363 H387 0.949 . S
H364 C368 0.949 . S
C365 C366 1.349 . S
C365 C367 1.327 . S
C365 H388 0.950 . S
C366 C365 1.349 . S
C366 C378 1.349 . S
C367 C365 1.327 . S
C367 C383 1.429 . S
C367 H389 0.950 . S
C368 H364 0.949 . S
C368 C376 1.574 . S
C368 C384 1.368 . S
H369 C377 0.950 . S
H370 C375 0.950 . S
H371 C376 0.949 . S
H372 C378 0.950 . S
H373 C379 0.950 . S
H374 C380 0.949 . S
C375 H370 0.950 . S
C375 C377 1.327 . S
C375 C381 1.429 . S
C376 C368 1.574 . S
C376 H371 0.949 . S
C376 C382 1.368 1_565 S
C377 C361 1.349 . S
C377 H369 0.950 . S
C377 C375 1.327 . S
C378 C366 1.349 . S
C378 H372 0.950 . S
C378 C379 1.327 . S
C379 H373 0.950 . S
C379 C378 1.327 . S
C379 C383 1.429 . S
C380 C363 1.574 . S
C380 H374 0.949 . S
C380 C384 1.368 1_545 S
C381 C362 1.429 . S
C381 C375 1.429 . S
C381 C382 1.523 . S
C382 C363 1.368 . S
C382 C376 1.368 1_545 S
C382 C381 1.523 . S
C383 C367 1.429 . S
C383 C379 1.429 . S
C383 C384 1.523 . S
C384 C368 1.368 . S
C384 C380 1.368 1_565 S
C384 C383 1.523 . S
H385 C360 0.950 . S
H386 C362 0.950 . S
H387 C363 0.949 . S
H388 C365 0.950 . S
H389 C367 0.950 . S
C390 C391 1.349 . S
C390 C392 1.327 . S
C390 H415 0.950 . S
C391 C390 1.349 . S
C391 C407 1.349 . S
C392 C390 1.327 . S
C392 C411 1.429 . S
C392 H416 0.950 . S
C393 C410 1.574 . S
C393 C412 1.368 . S
C393 H417 0.949 . S
H394 C398 0.949 . S
C395 C396 1.349 . S
C395 C397 1.327 . S
C395 H418 0.950 . S
C396 C395 1.349 . S
C396 C408 1.349 . S
C397 C395 1.327 . S
C397 C413 1.429 . S
C397 H419 0.950 . S
C398 H394 0.949 . S
C398 C406 1.574 . S
C398 C414 1.368 . S
H399 C407 0.950 . S
H400 C405 0.950 . S
H401 C406 0.949 . S
H402 C408 0.950 . S
H403 C409 0.950 . S
H404 C410 0.949 . S
C405 H400 0.950 . S
C405 C407 1.327 . S
C405 C411 1.429 . S
C406 C398 1.574 . S
C406 H401 0.949 . S
C406 C412 1.368 . S
C407 C391 1.349 . S
C407 H399 0.950 . S
C407 C405 1.327 . S
C408 C396 1.349 . S
C408 H402 0.950 . S
C408 C409 1.327 . S
C409 H403 0.950 . S
C409 C408 1.327 . S
C409 C413 1.429 . S
C410 C393 1.574 . S
C410 H404 0.949 . S
C410 C414 1.368 . S
C411 C392 1.429 . S
C411 C405 1.429 . S
C411 C412 1.523 . S
C412 C393 1.368 . S
C412 C406 1.368 . S
C412 C411 1.523 . S
C413 C397 1.429 . S
C413 C409 1.429 . S
C413 C414 1.523 . S
C414 C398 1.368 . S
C414 C410 1.368 . S
C414 C413 1.523 . S
H415 C390 0.950 . S
H416 C392 0.950 . S
H417 C393 0.949 . S
H418 C395 0.950 . S
H419 C397 0.950 . S
C420 C421 1.349 . S
C420 C422 1.327 . S
C420 H445 0.950 . S
C421 C420 1.349 . S
C421 C437 1.349 1_556 S
C422 C420 1.327 . S
C422 C441 1.429 . S
C422 H446 0.950 . S
C423 C440 1.574 . S
C423 C442 1.368 1_554 S
C423 H447 0.949 . S
H424 C428 0.949 . S
C425 C426 1.349 1_554 S
C425 C427 1.327 . S
C425 H448 0.950 . S
C426 C425 1.349 1_556 S
C426 C438 1.349 . S
C427 C425 1.327 . S
C427 C443 1.429 1_554 S
C427 H449 0.950 . S
C428 H424 0.949 . S
C428 C436 1.574 . S
C428 C444 1.368 . S
H429 C437 0.950 . S
H430 C435 0.950 . S
H431 C436 0.949 . S
H432 C438 0.950 . S
H433 C439 0.950 . S
H434 C440 0.949 . S
C435 H430 0.950 . S
C435 C437 1.327 . S
C435 C441 1.429 1_554 S
C436 C428 1.574 . S
C436 H431 0.949 . S
C436 C442 1.368 1_655 S
C437 C421 1.349 1_554 S
C437 H429 0.950 . S
C437 C435 1.327 . S
C438 C426 1.349 . S
C438 H432 0.950 . S
C438 C439 1.327 . S
C439 H433 0.950 . S
C439 C438 1.327 . S
C439 C443 1.429 . S
C440 C423 1.574 . S
C440 H434 0.949 . S
C440 C444 1.368 1_454 S
C441 C422 1.429 . S
C441 C435 1.429 1_556 S
C441 C442 1.523 . S
C442 C423 1.368 1_556 S
C442 C436 1.368 1_455 S
C442 C441 1.523 . S
C443 C427 1.429 1_556 S
C443 C439 1.429 . S
C443 C444 1.523 . S
C444 C428 1.368 . S
C444 C440 1.368 1_656 S
C444 C443 1.523 . S
H445 C420 0.950 . S
H446 C422 0.950 . S
H447 C423 0.949 . S
H448 C425 0.950 . S
H449 C427 0.950 . S
C450 C451 1.349 . S
C450 C452 1.327 . S
C450 H475 0.950 . S
C451 C450 1.349 . S
C451 C467 1.349 . S
C452 C450 1.327 . S
C452 C471 1.429 . S
C452 H476 0.950 . S
C453 C470 1.574 . S
C453 C472 1.368 . S
C453 H477 0.949 . S
H454 C458 0.949 . S
C455 C456 1.349 . S
C455 C457 1.327 . S
C455 H478 0.950 . S
C456 C455 1.349 . S
C456 C468 1.349 . S
C457 C455 1.327 . S
C457 C473 1.429 . S
C457 H479 0.950 . S
C458 H454 0.949 . S
C458 C466 1.574 . S
C458 C474 1.368 . S
H459 C467 0.950 . S
H460 C465 0.950 . S
H461 C466 0.949 . S
H462 C468 0.950 . S
H463 C469 0.950 . S
H464 C470 0.949 . S
C465 H460 0.950 . S
C465 C467 1.327 . S
C465 C471 1.429 . S
C466 C458 1.574 . S
C466 H461 0.949 . S
C466 C472 1.368 1_545 S
C467 C451 1.349 . S
C467 H459 0.950 . S
C467 C465 1.327 . S
C468 C456 1.349 . S
C468 H462 0.950 . S
C468 C469 1.327 . S
C469 H463 0.950 . S
C469 C468 1.327 . S
C469 C473 1.429 . S
C470 C453 1.574 . S
C470 H464 0.949 . S
C470 C474 1.368 1_565 S
C471 C452 1.429 . S
C471 C465 1.429 . S
C471 C472 1.523 . S
C472 C453 1.368 . S
C472 C466 1.368 1_565 S
C472 C471 1.523 . S
C473 C457 1.429 . S
C473 C469 1.429 . S
C473 C474 1.523 . S
C474 C458 1.368 . S
C474 C470 1.368 1_545 S
C474 C473 1.523 . S
H475 C450 0.950 . S
H476 C452 0.950 . S
H477 C453 0.949 . S
H478 C455 0.950 . S
H479 C457 0.950 . S
C480 C481 1.349 . S
C480 C482 1.327 . S
C480 H505 0.950 . S
C481 C480 1.349 . S
C481 C497 1.349 . S
C482 C480 1.327 . S
C482 C501 1.429 . S
C482 H506 0.950 . S
C483 C500 1.574 . S
C483 C502 1.368 . S
C483 H507 0.949 . S
H484 C488 0.949 . S
C485 C486 1.349 . S
C485 C487 1.327 . S
C485 H508 0.950 . S
C486 C485 1.349 . S
C486 C498 1.349 . S
C487 C485 1.327 . S
C487 C503 1.429 . S
C487 H509 0.950 . S
C488 H484 0.949 . S
C488 C496 1.574 . S
C488 C504 1.368 . S
H489 C497 0.950 . S
H490 C495 0.950 . S
H491 C496 0.949 . S
H492 C498 0.950 . S
H493 C499 0.950 . S
H494 C500 0.949 . S
C495 H490 0.950 . S
C495 C497 1.327 . S
C495 C501 1.429 . S
C496 C488 1.574 . S
C496 H491 0.949 . S
C496 C502 1.368 . S
C497 C481 1.349 . S
C497 H489 0.950 . S
C497 C495 1.327 . S
C498 C486 1.349 . S
C498 H492 0.950 . S
C498 C499 1.327 . S
C499 H493 0.950 . S
C499 C498 1.327 . S
C499 C503 1.429 . S
C500 C483 1.574 . S
C500 H494 0.949 . S
C500 C504 1.368 . S
C501 C482 1.429 . S
C501 C495 1.429 . S
C501 C502 1.523 . S
C502 C483 1.368 . S
C502 C496 1.368 . S
C502 C501 1.523 . S
C503 C487 1.429 . S
C503 C499 1.429 . S
C503 C504 1.523 . S
C504 C488 1.368 . S
C504 C500 1.368 . S
C504 C503 1.523 . S
H505 C480 0.950 . S
H506 C482 0.950 . S
H507 C483 0.949 . S
H508 C485 0.950 . S
H509 C487 0.950 . S
C510 C511 1.349 . S
C510 C512 1.327 . S
C510 H535 0.950 . S
C511 C510 1.349 . S
C511 C527 1.349 . S
C512 C510 1.327 . S
C512 C531 1.429 . S
C512 H536 0.950 . S
C513 C530 1.574 . S
C513 C532 1.368 1_455 S
C513 H537 0.949 . S
H514 C518 0.949 . S
C515 C516 1.349 . S
C515 C517 1.327 . S
C515 H538 0.950 . S
C516 C515 1.349 . S
C516 C528 1.349 . S
C517 C515 1.327 . S
C517 C533 1.429 . S
C517 H539 0.950 . S
C518 H514 0.949 . S
C518 C526 1.574 . S
C518 C534 1.368 1_655 S
H519 C527 0.950 . S
H520 C525 0.950 . S
H521 C526 0.949 . S
H522 C528 0.950 . S
H523 C529 0.950 . S
H524 C530 0.949 . S
C525 H520 0.950 . S
C525 C527 1.327 . S
C525 C531 1.429 . S
C526 C518 1.574 . S
C526 H521 0.949 . S
C526 C532 1.368 . S
C527 C511 1.349 . S
C527 H519 0.950 . S
C527 C525 1.327 . S
C528 C516 1.349 . S
C528 H522 0.950 . S
C528 C529 1.327 . S
C529 H523 0.950 . S
C529 C528 1.327 . S
C529 C533 1.429 . S
C530 C513 1.574 . S
C530 H524 0.949 . S
C530 C534 1.368 . S
C531 C512 1.429 . S
C531 C525 1.429 . S
C531 C532 1.523 . S
C532 C513 1.368 1_655 S
C532 C526 1.368 . S
C532 C531 1.523 . S
C533 C517 1.429 . S
C533 C529 1.429 . S
C533 C534 1.523 . S
C534 C518 1.368 1_455 S
C534 C530 1.368 . S
C534 C533 1.523 . S
H535 C510 0.950 . S
H536 C512 0.950 . S
H537 C513 0.949 . S
H538 C515 0.950 . S
H539 C517 0.950 . S
C540 C541 1.349 . S
C540 C542 1.327 . S
C540 H565 0.950 . S
C541 C540 1.349 . S
C541 C557 1.349 . S
C542 C540 1.327 . S
C542 C561 1.429 . S
C542 H566 0.950 . S
C543 C560 1.574 . S
C543 C562 1.368 . S
C543 H567 0.949 . S
H544 C548 0.949 . S
C545 C546 1.349 . S
C545 C547 1.327 . S
C545 H568 0.950 . S
C546 C545 1.349 . S
C546 C558 1.349 . S
C547 C545 1.327 . S
C547 C563 1.429 . S
C547 H569 0.950 . S
C548 H544 0.949 . S
C548 C556 1.574 . S
C548 C564 1.368 . S
H549 C557 0.950 . S
H550 C555 0.950 . S
H551 C556 0.949 . S
H552 C558 0.950 . S
H553 C559 0.950 . S
H554 C560 0.949 . S
C555 H550 0.950 . S
C555 C557 1.327 . S
C555 C561 1.429 . S
C556 C548 1.574 . S
C556 H551 0.949 . S
C556 C562 1.368 1_545 S
C557 C541 1.349 . S
C557 H549 0.950 . S
C557 C555 1.327 . S
C558 C546 1.349 . S
C558 H552 0.950 . S
C558 C559 1.327 . S
C559 H553 0.950 . S
C559 C558 1.327 . S
C559 C563 1.429 . S
C560 C543 1.574 . S
C560 H554 0.949 . S
C560 C564 1.368 1_565 S
C561 C542 1.429 . S
C561 C555 1.429 . S
C561 C562 1.523 . S
C562 C543 1.368 . S
C562 C556 1.368 1_565 S
C562 C561 1.523 . S
C563 C547 1.429 . S
C563 C559 1.429 . S
C563 C564 1.523 . S
C564 C548 1.368 . S
C564 C560 1.368 1_545 S
C564 C563 1.523 . S
H565 C540 0.950 . S
H566 C542 0.950 . S
H567 C543 0.949 . S
H568 C545 0.950 . S
H569 C547 0.950 . S
C570 C571 1.349 . S
C570 C572 1.327 . S
C570 H595 0.950 . S
C571 C570 1.349 . S
C571 C587 1.349 . S
C572 C570 1.327 . S
C572 C591 1.429 . S
C572 H596 0.950 . S
C573 C590 1.574 . S
C573 C592 1.368 . S
C573 H597 0.949 . S
H574 C578 0.949 . S
C575 C576 1.349 . S
C575 C577 1.327 . S
C575 H598 0.950 . S
C576 C575 1.349 . S
C576 C588 1.349 . S
C577 C575 1.327 . S
C577 C593 1.429 . S
C577 H599 0.950 . S
C578 H574 0.949 . S
C578 C586 1.574 . S
C578 C594 1.368 . S
H579 C587 0.950 . S
H580 C585 0.950 . S
H581 C586 0.949 . S
H582 C588 0.950 . S
H583 C589 0.950 . S
H584 C590 0.949 . S
C585 H580 0.950 . S
C585 C587 1.327 . S
C585 C591 1.429 . S
C586 C578 1.574 . S
C586 H581 0.949 . S
C586 C592 1.368 . S
C587 C571 1.349 . S
C587 H579 0.950 . S
C587 C585 1.327 . S
C588 C576 1.349 . S
C588 H582 0.950 . S
C588 C589 1.327 . S
C589 H583 0.950 . S
C589 C588 1.327 . S
C589 C593 1.429 . S
C590 C573 1.574 . S
C590 H584 0.949 . S
C590 C594 1.368 . S
C591 C572 1.429 . S
C591 C585 1.429 . S
C591 C592 1.523 . S
C592 C573 1.368 . S
C592 C586 1.368 . S
C592 C591 1.523 . S
C593 C577 1.429 . S
C593 C589 1.429 . S
C593 C594 1.523 . S
C594 C578 1.368 . S
C594 C590 1.368 . S
C594 C593 1.523 . S
H595 C570 0.950 . S
H596 C572 0.950 . S
H597 C573 0.949 . S
H598 C575 0.950 . S
H599 C577 0.950 . S
C600 C601 1.349 . S
C600 C602 1.327 . S
C600 H625 0.950 . S
C601 C600 1.349 . S
C601 C617 1.349 . S
C602 C600 1.327 . S
C602 C621 1.429 . S
C602 H626 0.950 . S
C603 C620 1.574 . S
C603 C622 1.368 . S
C603 H627 0.949 . S
H604 C608 0.949 . S
C605 C606 1.349 . S
C605 C607 1.327 . S
C605 H628 0.950 . S
C606 C605 1.349 . S
C606 C618 1.349 . S
C607 C605 1.327 . S
C607 C623 1.429 . S
C607 H629 0.950 . S
C608 H604 0.949 . S
C608 C616 1.574 . S
C608 C624 1.368 . S
H609 C617 0.950 . S
H610 C615 0.950 . S
H611 C616 0.949 . S
H612 C618 0.950 . S
H613 C619 0.950 . S
H614 C620 0.949 . S
C615 H610 0.950 . S
C615 C617 1.327 . S
C615 C621 1.429 . S
C616 C608 1.574 . S
C616 H611 0.949 . S
C616 C622 1.368 1_655 S
C617 C601 1.349 . S
C617 H609 0.950 . S
C617 C615 1.327 . S
C618 C606 1.349 . S
C618 H612 0.950 . S
C618 C619 1.327 . S
C619 H613 0.950 . S
C619 C618 1.327 . S
C619 C623 1.429 . S
C620 C603 1.574 . S
C620 H614 0.949 . S
C620 C624 1.368 1_455 S
C621 C602 1.429 . S
C621 C615 1.429 . S
C621 C622 1.523 . S
C622 C603 1.368 . S
C622 C616 1.368 1_455 S
C622 C621 1.523 . S
C623 C607 1.429 . S
C623 C619 1.429 . S
C623 C624 1.523 . S
C624 C608 1.368 . S
C624 C620 1.368 1_655 S
C624 C623 1.523 . S
H625 C600 0.950 . S
H626 C602 0.950 . S
H627 C603 0.949 . S
H628 C605 0.950 . S
H629 C607 0.950 . S
C630 C631 1.349 . S
C630 C632 1.327 . S
C630 H655 0.950 . S
C631 C630 1.349 . S
C631 C647 1.349 . S
C632 C630 1.327 . S
C632 C651 1.429 . S
C632 H656 0.950 . S
C633 C650 1.574 . S
C633 C652 1.368 1_565 S
C633 H657 0.949 . S
H634 C638 0.949 . S
C635 C636 1.349 . S
C635 C637 1.327 . S
C635 H658 0.950 . S
C636 C635 1.349 . S
C636 C648 1.349 . S
C637 C635 1.327 . S
C637 C653 1.429 . S
C637 H659 0.950 . S
C638 H634 0.949 . S
C638 C646 1.574 . S
C638 C654 1.368 1_545 S
H639 C647 0.950 . S
H640 C645 0.950 . S
H641 C646 0.949 . S
H642 C648 0.950 . S
H643 C649 0.950 . S
H644 C650 0.949 . S
C645 H640 0.950 . S
C645 C647 1.327 . S
C645 C651 1.429 . S
C646 C638 1.574 . S
C646 H641 0.949 . S
C646 C652 1.368 . S
C647 C631 1.349 . S
C647 H639 0.950 . S
C647 C645 1.327 . S
C648 C636 1.349 . S
C648 H642 0.950 . S
C648 C649 1.327 . S
C649 H643 0.950 . S
C649 C648 1.327 . S
C649 C653 1.429 . S
C650 C633 1.574 . S
C650 H644 0.949 . S
C650 C654 1.368 . S
C651 C632 1.429 . S
C651 C645 1.429 . S
C651 C652 1.523 . S
C652 C633 1.368 1_545 S
C652 C646 1.368 . S
C652 C651 1.523 . S
C653 C637 1.429 . S
C653 C649 1.429 . S
C653 C654 1.523 . S
C654 C638 1.368 1_565 S
C654 C650 1.368 . S
C654 C653 1.523 . S
H655 C630 0.950 . S
H656 C632 0.950 . S
H657 C633 0.949 . S
H658 C635 0.950 . S
H659 C637 0.950 . S
C121 C86 1.355 . S
C126 C8 1.310 . S
C151 C106 1.355 . S
C156 C28 1.310 . S
C181 C6 1.355 . S
C186 C48 1.310 . S
C211 C26 1.355 . S
C216 C68 1.310 . S
C241 C46 1.355 . S
C246 C88 1.310 . S
C271 C66 1.355 . S
C276 C108 1.310 . S
C301 C1 0.533 . S
C306 C61 0.533 . S
C331 C81 0.532 . S
C336 C21 0.532 . S
C361 C101 0.532 . S
C366 C41 0.532 . S
C391 C49 0.550 . S
C396 C109 0.550 . S
C421 C9 0.551 . S
C426 C69 0.551 . S
C451 C89 0.551 . S
C456 C29 0.551 . S
C481 C116 1.524 . S
C486 C19 1.506 . S
C511 C39 1.507 . S
C516 C16 1.524 . S
C541 C59 1.506 . S
C546 C36 1.524 . S
C571 C56 1.524 . S
C576 C79 1.506 . S
C601 C99 1.507 . S
C606 C76 1.524 . S
C631 C119 1.507 . S
C636 C96 1.524 . S
