# Generated by pormake.
# Topology wkd, (5)-cn, num edge types: 1
# Building blocks:
#     Node 0, Type 0, BuildingBlock: XOMCOT_clean_sbu_0, # of connection points: 5
#     Node 1, Type 0, BuildingBlock: XOMCOT_clean_sbu_0, # of connection points: 5
#     Node 2, Type 0, BuildingBlock: XOMCOT_clean_sbu_0, # of connection points: 5
#     Node 3, Type 0, BuildingBlock: XOMCOT_clean_sbu_0, # of connection points: 5
#     Node 4, Type 0, BuildingBlock: XOMCOT_clean_sbu_0, # of connection points: 5
#     Node 5, Type 0, BuildingBlock: XOMCOT_clean_sbu_0, # of connection points: 5
#     Node 6, Type 0, BuildingBlock: XOMCOT_clean_sbu_0, # of connection points: 5
#     Node 7, Type 0, BuildingBlock: XOMCOT_clean_sbu_0, # of connection points: 5
#     Node 8, Type 0, BuildingBlock: XOMCOT_clean_sbu_0, # of connection points: 5
#     Node 9, Type 0, BuildingBlock: XOMCOT_clean_sbu_0, # of connection points: 5
#     Node 10, Type 0, BuildingBlock: XOMCOT_clean_sbu_0, # of connection points: 5
#     Node 11, Type 0, BuildingBlock: XOMCOT_clean_sbu_0, # of connection points: 5
#     Edge 12, Type (0, 0), BuildingBlock: KIFKEQ_clean_linker_1, # of connection points: 2
#     Edge 13, Type (0, 0), BuildingBlock: KIFKEQ_clean_linker_1, # of connection points: 2
#     Edge 14, Type (0, 0), BuildingBlock: KIFKEQ_clean_linker_1, # of connection points: 2
#     Edge 15, Type (0, 0), BuildingBlock: KIFKEQ_clean_linker_1, # of connection points: 2
#     Edge 16, Type (0, 0), BuildingBlock: KIFKEQ_clean_linker_1, # of connection points: 2
#     Edge 17, Type (0, 0), BuildingBlock: KIFKEQ_clean_linker_1, # of connection points: 2
#     Edge 18, Type (0, 0), BuildingBlock: KIFKEQ_clean_linker_1, # of connection points: 2
#     Edge 19, Type (0, 0), BuildingBlock: KIFKEQ_clean_linker_1, # of connection points: 2
#     Edge 20, Type (0, 0), BuildingBlock: KIFKEQ_clean_linker_1, # of connection points: 2
#     Edge 21, Type (0, 0), BuildingBlock: KIFKEQ_clean_linker_1, # of connection points: 2
#     Edge 22, Type (0, 0), BuildingBlock: KIFKEQ_clean_linker_1, # of connection points: 2
#     Edge 23, Type (0, 0), BuildingBlock: KIFKEQ_clean_linker_1, # of connection points: 2
#     Edge 24, Type (0, 0), BuildingBlock: KIFKEQ_clean_linker_1, # of connection points: 2
#     Edge 25, Type (0, 0), BuildingBlock: KIFKEQ_clean_linker_1, # of connection points: 2
#     Edge 26, Type (0, 0), BuildingBlock: KIFKEQ_clean_linker_1, # of connection points: 2
#     Edge 27, Type (0, 0), BuildingBlock: KIFKEQ_clean_linker_1, # of connection points: 2
#     Edge 28, Type (0, 0), BuildingBlock: KIFKEQ_clean_linker_1, # of connection points: 2
#     Edge 29, Type (0, 0), BuildingBlock: KIFKEQ_clean_linker_1, # of connection points: 2
#     Edge 30, Type (0, 0), BuildingBlock: KIFKEQ_clean_linker_1, # of connection points: 2
#     Edge 31, Type (0, 0), BuildingBlock: KIFKEQ_clean_linker_1, # of connection points: 2
#     Edge 32, Type (0, 0), BuildingBlock: KIFKEQ_clean_linker_1, # of connection points: 2
#     Edge 33, Type (0, 0), BuildingBlock: KIFKEQ_clean_linker_1, # of connection points: 2
#     Edge 34, Type (0, 0), BuildingBlock: KIFKEQ_clean_linker_1, # of connection points: 2
#     Edge 35, Type (0, 0), BuildingBlock: KIFKEQ_clean_linker_1, # of connection points: 2
#     Edge 36, Type (0, 0), BuildingBlock: KIFKEQ_clean_linker_1, # of connection points: 2
#     Edge 37, Type (0, 0), BuildingBlock: KIFKEQ_clean_linker_1, # of connection points: 2
#     Edge 38, Type (0, 0), BuildingBlock: KIFKEQ_clean_linker_1, # of connection points: 2
#     Edge 39, Type (0, 0), BuildingBlock: KIFKEQ_clean_linker_1, # of connection points: 2
#     Edge 40, Type (0, 0), BuildingBlock: KIFKEQ_clean_linker_1, # of connection points: 2
#     Edge 41, Type (0, 0), BuildingBlock: KIFKEQ_clean_linker_1, # of connection points: 2
# Relax obj value: 0.120
# Max RMSD: 0.193
# Mean RMSD: 0.192
data_MOF--net-wkd--node1-XOMCOT_clean_sbu_0--edge1-KIFKEQ_clean_linker_1
_symmetry_space_group_name_H-M    P1
_symmetry_Int_Tables_number       1
_symmetry_cell_setting            triclinic
loop_
_symmetry_equiv_pos_as_xyz
'x, y, z'
_cell_length_a     26.023439
_cell_length_b     26.046905
_cell_length_c     109.88491
_cell_angle_alpha  89.93358
_cell_angle_beta   90.040476
_cell_angle_gamma 120.18901
loop_
_atom_site_label
_atom_site_type_symbol
_atom_site_fract_x
_atom_site_fract_y
_atom_site_fract_z
_atom_type_partial_charge
Co0 Co 1.0031 0.31113 0.05228 0.0
C1 C 0.98837 0.402 0.03813 0.0
C2 C 0.91679 0.31319 0.03533 0.0
C3 C 0.9048 0.35101 0.02886 0.0
N4 N 0.97059 0.34451 0.04073 0.0
N5 N 0.94974 0.40665 0.03065 0.0
H6 H 0.0266 0.43992 0.04206 0.0
H7 H 0.8866 0.2661 0.03645 0.0
C8 C 0.96119 0.22517 0.03182 0.0
O9 O 0.9917 0.27184 0.02482 0.0
N10 N 0.03348 0.27745 0.06404 0.0
C11 C 0.08543 0.30817 0.07004 0.0
C12 C 0.09571 0.269 0.0765 0.0
C13 C 1.01247 0.21982 0.06701 0.0
N14 N 0.05006 0.21346 0.07457 0.0
C15 C 0.11238 0.3953 0.04074 0.0
C16 C 0.1459 0.3152 0.03312 0.0
C17 C 0.18308 0.37564 0.0307 0.0
C18 C 0.16631 0.41597 0.03471 0.0
C19 C 0.0927 0.29647 0.03945 0.0
N20 N 0.07498 0.33606 0.04266 0.0
H21 H 0.10214 0.42749 0.0443 0.0
H22 H 0.06601 0.2501 0.04185 0.0
H23 H 0.11495 0.35566 0.06939 0.0
H24 H 0.97214 0.18318 0.06331 0.0
O25 O 0.03261 0.38104 0.06211 0.0
O26 O 0.94207 0.30304 0.06381 0.0
O27 O 0.95966 0.23195 0.04337 0.0
C28 C 0.98119 0.35655 0.0674 0.0
H29 H 0.86461 0.33904 0.02379 0.0
H30 H 0.13443 0.28045 0.08204 0.0
H31 H 0.15855 0.28308 0.03043 0.0
H32 H 0.19499 0.46326 0.03326 0.0
Co33 Co 0.73203 1.00764 0.21879 0.0
C34 C 0.61895 0.97191 0.20545 0.0
C35 C 0.65335 0.91347 0.20224 0.0
C36 C 0.59835 0.88933 0.19694 0.0
N37 N 0.66654 0.96522 0.20758 0.0
N38 N 0.57649 0.92568 0.19902 0.0
H39 H 0.61369 1.00738 0.20922 0.0
H40 H 0.67989 0.89234 0.20284 0.0
C41 C 0.8329 1.00172 0.20704 0.0
O42 O 0.86767 0.05749 0.21019 0.0
N43 N 0.79749 0.04733 0.23042 0.0
C44 C 0.8196 0.10112 0.23572 0.0
C45 C 0.86696 0.11157 0.24299 0.0
C46 C 0.83027 0.02477 0.23513 0.0
N47 N 0.87399 0.06379 0.24255 0.0
C48 C 0.76085 0.12552 0.21214 0.0
C49 C 0.80137 0.12692 0.18886 0.0
C50 C 0.80197 0.17778 0.19324 0.0
C51 C 0.78078 0.17622 0.20501 0.0
C52 C 0.78042 0.07656 0.19635 0.0
N53 N 0.76379 0.07745 0.20814 0.0
H54 H 0.74138 0.12482 0.22082 0.0
H55 H 0.77627 0.03659 0.19248 0.0
H56 H 0.80297 0.13118 0.23467 0.0
H57 H 0.82377 0.98157 0.23277 0.0
O58 O 0.68324 0.02625 0.22883 0.0
O59 O 0.68851 0.94435 0.23073 0.0
O60 O 0.7777 0.97482 0.20989 0.0
C61 C 0.66553 0.97622 0.23434 0.0
H62 H 0.57499 0.84691 0.19233 0.0
H63 H 0.89415 0.15139 0.24824 0.0
H64 H 0.81491 0.12532 0.17962 0.0
H65 H 0.779 0.21386 0.20869 0.0
Co66 Co 0.73977 0.70247 0.38577 0.0
C67 C 0.65087 0.59024 0.37255 0.0
C68 C 0.73867 0.6029 0.37396 0.0
C69 C 0.70228 0.5479 0.36906 0.0
N70 N 0.70704 0.63016 0.37608 0.0
N71 N 0.64731 0.54009 0.36817 0.0
H72 H 0.6125 0.59505 0.37381 0.0
H73 H 0.78485 0.62084 0.37641 0.0
C74 C 0.81916 0.73476 0.3643 0.0
O75 O 0.77027 0.70973 0.35774 0.0
N76 N 0.77485 0.7733 0.39574 0.0
C77 C 0.74573 0.79434 0.40231 0.0
C78 C 0.78681 0.84364 0.40868 0.0
C79 C 0.83317 0.81022 0.3981 0.0
N80 N 0.84166 0.8536 0.40599 0.0
C81 C 0.64736 0.71472 0.37455 0.0
C82 C 0.71847 0.82115 0.36272 0.0
C83 C 0.65656 0.79328 0.36134 0.0
C84 C 0.6211 0.73993 0.36757 0.0
C85 C 0.74308 0.79398 0.36982 0.0
N86 N 0.7076 0.73967 0.37511 0.0
H87 H 0.61875 0.67619 0.3799 0.0
H88 H 0.79064 0.81715 0.37117 0.0
H89 H 0.69796 0.7749 0.40254 0.0
H90 H 0.86861 0.80474 0.39438 0.0
O91 O 0.67357 0.66475 0.39676 0.0
O92 O 0.75553 0.65941 0.3985 0.0
O93 O 0.81587 0.73614 0.37592 0.0
C94 C 0.70253 0.64398 0.40255 0.0
H95 H 0.71478 0.51541 0.3666 0.0
H96 H 0.77716 0.87041 0.41475 0.0
H97 H 0.74756 0.86339 0.35838 0.0
H98 H 0.57305 0.7185 0.36738 0.0
Co99 Co 0.0304 0.72817 0.55165 0.0
C100 C 0.03815 0.64193 0.53513 0.0
C101 C 0.1087 0.73153 0.53208 0.0
C102 C 0.11565 0.69487 0.52412 0.0
N103 N 0.05962 0.69859 0.53884 0.0
N104 N 0.0715 0.63882 0.52608 0.0
H105 H 0.99955 0.60391 0.53902 0.0
H106 H 0.13858 0.7787 0.53308 0.0
C107 C 0.0501 0.8409 0.53989 0.0
O108 O 0.9953 0.82595 0.54277 0.0
N109 N 1.00345 0.75927 0.56497 0.0
C110 C 0.96529 0.72762 0.574 0.0
C111 C 0.95918 0.76555 0.58178 0.0
C112 C 0.02305 0.8167 0.56802 0.0
N113 N 0.99514 0.8217 0.57795 0.0
C114 C 0.90406 0.6685 0.54754 0.0
C115 C 0.90901 0.69024 0.52281 0.0
C116 C 0.85348 0.65602 0.52837 0.0
C117 C 0.85142 0.64558 0.54089 0.0
C118 C 0.96079 0.71369 0.52988 0.0
N119 N 0.95799 0.70348 0.54217 0.0
H120 H 0.90106 0.65559 0.5569 0.0
H121 H 1.00328 0.73909 0.5254 0.0
H122 H 0.9438 0.68002 0.57512 0.0
H123 H 0.05738 0.85447 0.5632 0.0
O124 O 1.00417 0.65515 0.56039 0.0
O125 O 0.09379 0.73467 0.56221 0.0
O126 O 0.07187 0.80881 0.54335 0.0
C127 C 0.05685 0.67947 0.56518 0.0
H128 H 0.15178 0.70788 0.51772 0.0
H129 H 0.93102 0.75265 0.58975 0.0
H130 H 0.91237 0.69847 0.5131 0.0
H131 H 0.80941 0.6176 0.54544 0.0
Co132 Co 0.31729 0.0294 0.71698 0.0
C133 C 0.41767 0.04449 0.70125 0.0
C134 C 0.37956 0.09582 0.69484 0.0
C135 C 0.42683 0.10736 0.68751 0.0
N136 N 0.37322 0.05601 0.70344 0.0
N137 N 0.45103 0.07547 0.69158 0.0
H138 H 0.42637 0.01513 0.70672 0.0
H139 H 0.35332 0.11707 0.69409 0.0
C140 C 0.21926 0.04458 0.70661 0.0
O141 O 0.18225 0.99041 0.71044 0.0
N142 N 0.26253 1.00561 0.73088 0.0
C143 C 0.25345 0.96601 0.73977 0.0
C144 C 0.21221 0.96401 0.7479 0.0
C145 C 0.22958 0.03006 0.73438 0.0
N146 N 0.19659 1.00392 0.74441 0.0
C147 C 0.25379 0.90288 0.71392 0.0
C148 C 0.21997 0.9003 0.69 0.0
C149 C 0.20364 0.84642 0.69591 0.0
C150 C 0.22147 0.84849 0.70801 0.0
C151 C 0.25236 0.95406 0.69632 0.0
N152 N 0.26712 0.95487 0.70831 0.0
H153 H 0.27037 0.90289 0.72286 0.0
H154 H 0.26585 0.99504 0.69149 0.0
H155 H 0.27616 0.9411 0.74063 0.0
H156 H 0.23049 0.06732 0.72986 0.0
O157 O 0.36521 1.00439 0.72549 0.0
O158 O 0.37756 0.09468 0.7269 0.0
O159 O 0.27493 0.06856 0.70897 0.0
C160 C 0.39529 0.0575 0.72994 0.0
H161 H 0.44402 0.13921 0.68013 0.0
H162 H 0.19465 0.93477 0.75569 0.0
H163 H 0.20819 0.90102 0.68057 0.0
H164 H 0.21271 0.80846 0.71278 0.0
Co165 Co 0.30549 0.304 0.88477 0.0
C166 C 0.37972 0.419 0.87124 0.0
C167 C 0.31993 0.34744 0.8597 0.0
C168 C 0.3527 0.39684 0.85261 0.0
N169 N 0.33635 0.36109 0.87142 0.0
N170 N 0.39062 0.44195 0.85984 0.0
H171 H 0.4045 0.44352 0.87913 0.0
H172 H 0.28786 0.30376 0.85644 0.0
C173 C 0.17442 0.21955 0.87707 0.0
O174 O 0.1658 0.17853 0.88504 0.0
N175 N 0.27523 0.24735 0.89816 0.0
C176 C 0.30025 0.21648 0.90243 0.0
C177 C 0.26514 0.17929 0.91159 0.0
C178 C 0.22688 0.23081 0.90527 0.0
N179 N 0.2184 0.18748 0.91323 0.0
C180 C 0.3864 0.28074 0.87235 0.0
C181 C 0.31327 0.16077 0.86805 0.0
C182 C 0.37368 0.18771 0.86498 0.0
C183 C 0.40989 0.24878 0.86695 0.0
C184 C 0.29133 0.19469 0.87347 0.0
N185 N 0.32805 0.2539 0.8757 0.0
H186 H 0.41582 0.32744 0.87409 0.0
H187 H 0.24585 0.17237 0.87632 0.0
H188 H 0.34026 0.21926 0.89884 0.0
H189 H 0.1965 0.24742 0.90411 0.0
O190 O 0.37855 0.34789 0.89358 0.0
O191 O 0.30305 0.36378 0.8953 0.0
O192 O 0.2246 0.26796 0.87629 0.0
C193 C 0.3572 0.37847 0.89847 0.0
H194 H 0.34896 0.39886 0.84284 0.0
H195 H 0.27146 0.14598 0.91614 0.0
H196 H 0.28388 0.11352 0.86676 0.0
H197 H 0.45657 0.27174 0.86453 0.0
Co198 Co 0.73286 0.0263 0.80325 0.0
C199 C 0.64101 0.02909 0.81897 0.0
C200 C 0.72925 0.10033 0.82293 0.0
C201 C 0.69023 0.10496 0.83061 0.0
N202 N 0.69869 0.05228 0.81577 0.0
N203 N 0.63504 0.0604 0.82809 0.0
H204 H 0.60436 0.99066 0.81471 0.0
H205 H 0.77652 0.13101 0.82245 0.0
C206 C 0.84542 0.04981 0.81562 0.0
O207 O 0.83284 0.996 0.81252 0.0
N208 N 0.7687 1.00279 0.79024 0.0
C209 C 0.7401 0.96437 0.78104 0.0
C210 C 0.78102 0.96245 0.77343 0.0
C211 C 0.82715 0.02645 0.78748 0.0
N212 N 0.83593 1.00119 0.77754 0.0
C213 C 0.67657 0.90025 0.80705 0.0
C214 C 0.6943 0.90387 0.83191 0.0
C215 C 0.66181 0.84861 0.82616 0.0
C216 C 0.65351 0.8473 0.81356 0.0
C217 C 0.7179 0.95607 0.82497 0.0
N218 N 0.70958 0.95394 0.81262 0.0
H219 H 0.66496 0.89758 0.79762 0.0
H220 H 0.7416 0.9983 0.82959 0.0
H221 H 0.69258 0.94009 0.77964 0.0
H222 H 0.86291 0.06299 0.79232 0.0
O223 O 0.6613 0.99702 0.79391 0.0
O224 O 0.73743 0.08878 0.79258 0.0
O225 O 0.81203 0.07007 0.81213 0.0
C226 C 0.68395 0.04927 0.78901 0.0
H227 H 0.70111 0.13973 0.83723 0.0
H228 H 0.77086 0.93424 0.76552 0.0
H229 H 0.70087 0.90671 0.84167 0.0
H230 H 0.6268 0.80558 0.80884 0.0
Co231 Co 0.7186 0.73575 0.97116 0.0
C232 C 0.60829 0.64612 0.98467 0.0
C233 C 0.62105 0.73398 0.98426 0.0
C234 C 0.56655 0.69684 0.98932 0.0
N235 N 0.64838 0.70292 0.98156 0.0
N236 N 0.55875 0.64183 0.98958 0.0
H237 H 0.61181 0.60775 0.98243 0.0
H238 H 0.63802 0.78016 0.982 0.0
C239 C 0.75296 0.82144 0.99137 0.0
O240 O 0.7324 0.77436 0.99842 0.0
N241 N 0.78685 0.77065 0.96035 0.0
C242 C 0.80766 0.7416 0.95369 0.0
C243 C 0.85583 0.78252 0.94701 0.0
C244 C 0.82292 0.82886 0.95772 0.0
N245 N 0.86547 0.83727 0.9496 0.0
C246 C 0.74 0.65468 0.985 0.0
C247 C 0.85337 0.7362 0.99274 0.0
C248 C 0.82846 0.67669 0.99625 0.0
C249 C 0.77116 0.63577 0.99228 0.0
C250 C 0.81985 0.75359 0.98568 0.0
N251 N 0.76294 0.71324 0.9822 0.0
H252 H 0.69882 0.62147 0.9811 0.0
H253 H 0.8402 0.79938 0.9828 0.0
H254 H 0.78921 0.69399 0.95369 0.0
H255 H 0.81786 0.86436 0.96152 0.0
O256 O 0.68229 0.66462 0.96159 0.0
O257 O 0.66907 0.74096 0.95828 0.0
O258 O 0.75028 0.81513 0.97976 0.0
C259 C 0.65638 0.68723 0.9553 0.0
H260 H 0.53413 0.70879 0.99219 0.0
H261 H 0.88239 0.77288 0.94086 0.0
H262 H 0.89836 0.76873 0.99535 0.0
H263 H 0.75164 0.58889 0.99431 0.0
Co264 Co 1.00883 0.72801 0.13598 0.0
C265 C 0.97574 0.61567 0.14927 0.0
C266 C 0.91829 0.6504 0.15334 0.0
C267 C 0.89487 0.59533 0.15856 0.0
N268 N 0.96895 0.66341 0.1475 0.0
N269 N 0.93063 0.57335 0.15595 0.0
H270 H 1.01009 0.61004 0.14502 0.0
H271 H 0.89705 0.67688 0.15307 0.0
C272 C 1.00342 0.82893 0.14777 0.0
O273 O 0.05867 0.86385 0.14426 0.0
N274 N 0.04576 0.79223 0.12404 0.0
C275 C 0.09606 0.81083 0.11754 0.0
C276 C 0.10282 0.85479 0.10963 0.0
C277 C 0.02151 0.82375 0.11952 0.0
N278 N 0.05604 0.86324 0.11089 0.0
C279 C 0.12891 0.76057 0.14172 0.0
C280 C 0.13192 0.79953 0.1652 0.0
C281 C 0.18294 0.80155 0.16046 0.0
C282 C 0.18064 0.78134 0.14857 0.0
C283 C 0.08058 0.77789 0.15799 0.0
N284 N 0.08044 0.76165 0.14613 0.0
H285 H 0.12757 0.74141 0.13298 0.0
H286 H 0.04065 0.77274 0.16212 0.0
H287 H 0.1255 0.79318 0.11804 0.0
H288 H 0.97897 0.81734 0.12242 0.0
O289 O 0.02667 0.67907 0.12582 0.0
O290 O 0.94381 0.68317 0.1245 0.0
O291 O 0.97656 0.7736 0.14509 0.0
C292 C 0.97573 0.66072 0.12062 0.0
H293 H 0.85306 0.57181 0.16341 0.0
H294 H 0.13985 0.87886 0.10349 0.0
H295 H 0.13093 0.81236 0.17453 0.0
H296 H 0.21839 0.78067 0.1446 0.0
Co297 Co 0.30727 0.98943 0.30228 0.0
C298 C 0.3867 0.95939 0.31751 0.0
C299 C 0.29897 0.88661 0.31409 0.0
C300 C 0.32954 0.86565 0.32053 0.0
N301 N 0.33379 0.94563 0.3124 0.0
N302 N 0.38465 0.91123 0.32275 0.0
H303 H 0.42622 1.00255 0.31724 0.0
H304 H 0.25439 0.86005 0.31054 0.0
C305 C 0.21969 0.93888 0.32226 0.0
O306 O 0.26649 0.96107 0.32942 0.0
N307 N 0.27868 0.02978 0.29186 0.0
C308 C 0.3107 0.08629 0.28792 0.0
C309 C 0.27354 0.10065 0.28177 0.0
C310 C 0.22257 1.01011 0.2879 0.0
N311 N 0.21819 0.05284 0.28176 0.0
C312 C 0.39549 0.09134 0.3152 0.0
C313 C 0.31994 0.12612 0.32502 0.0
C314 C 0.3812 0.16176 0.32683 0.0
C315 C 0.41913 0.14403 0.32181 0.0
C316 C 0.29813 0.07419 0.31809 0.0
N317 N 0.33556 0.05595 0.31365 0.0
H318 H 0.42599 0.08107 0.31073 0.0
H319 H 0.2513 0.04994 0.31594 0.0
H320 H 0.35749 0.11559 0.28973 0.0
H321 H 0.18539 0.96638 0.28986 0.0
O322 O 0.37816 0.02013 0.29268 0.0
O323 O 0.2966 0.93412 0.28912 0.0
O324 O 0.2267 0.94544 0.31068 0.0
C325 C 0.35162 0.9722 0.28621 0.0
H326 H 0.31313 0.8197 0.32297 0.0
H327 H 0.28613 0.14325 0.2777 0.0
H328 H 0.28953 0.13962 0.32846 0.0
H329 H 0.46692 0.17143 0.32277 0.0
Co330 Co 0.30839 0.29897 0.46978 0.0
C331 C 0.42405 0.37595 0.48289 0.0
C332 C 0.35316 0.31745 0.49475 0.0
C333 C 0.40279 0.35145 0.50166 0.0
N334 N 0.36622 0.33223 0.48294 0.0
N335 N 0.44747 0.38861 0.49424 0.0
H336 H 0.44804 0.39962 0.47483 0.0
H337 H 0.30976 0.28555 0.49818 0.0
C338 C 0.22196 0.1705 0.47849 0.0
O339 O 0.18158 0.16125 0.47031 0.0
N340 N 0.25109 0.26647 0.45654 0.0
C341 C 0.22062 0.29118 0.45189 0.0
C342 C 0.18378 0.25514 0.4428 0.0
C343 C 0.23473 0.21736 0.44972 0.0
N344 N 0.19186 0.20817 0.44158 0.0
C345 C 0.28801 0.38443 0.48101 0.0
C346 C 0.16831 0.31402 0.48607 0.0
C347 C 0.19654 0.37504 0.4886 0.0
C348 C 0.25749 0.40992 0.48622 0.0
C349 C 0.20087 0.29002 0.48087 0.0
N350 N 0.25996 0.32535 0.47829 0.0
H351 H 0.33465 0.41272 0.47897 0.0
H352 H 0.17762 0.24389 0.47851 0.0
H353 H 0.22368 0.33183 0.45512 0.0
H354 H 0.25119 0.18705 0.45121 0.0
O355 O 0.35287 0.36894 0.46006 0.0
O356 O 0.36666 0.29172 0.45972 0.0
O357 O 0.27086 0.22028 0.47911 0.0
C358 C 0.38146 0.34447 0.45559 0.0
H359 H 0.4053 0.34898 0.51145 0.0
H360 H 0.15087 0.26115 0.43797 0.0
H361 H 0.12114 0.28551 0.48767 0.0
H362 H 0.28158 0.457 0.48825 0.0
Co363 Co 0.03645 0.31536 0.63588 0.0
C364 C 0.05202 0.41536 0.65158 0.0
C365 C 0.11399 0.38657 0.65597 0.0
C366 C 0.12567 0.43394 0.66329 0.0
N367 N 0.06741 0.37435 0.64873 0.0
N368 N 0.08699 0.45219 0.66048 0.0
H369 H 1.01693 0.41898 0.6471 0.0
H370 H 0.13957 0.36441 0.65566 0.0
C371 C 0.0449 0.2162 0.64786 0.0
O372 O 0.98965 0.18019 0.64448 0.0
N373 N 1.00795 0.2571 0.62257 0.0
C374 C 0.97085 0.25175 0.61342 0.0
C375 C 0.96399 0.20735 0.60565 0.0
C376 C 0.02623 0.21822 0.61961 0.0
N377 N 0.99846 0.18579 0.60961 0.0
C378 C 0.90985 0.25753 0.63911 0.0
C379 C 0.90717 0.22958 0.66345 0.0
C380 C 0.85329 0.21153 0.65738 0.0
C381 C 0.85539 0.2268 0.64509 0.0
C382 C 0.96097 0.26014 0.65706 0.0
N383 N 0.96171 0.27147 0.64486 0.0
H384 H 0.91005 0.27164 0.62993 0.0
H385 H 1.00207 0.27435 0.66192 0.0
H386 H 0.95122 0.27933 0.61211 0.0
H387 H 0.05956 0.21374 0.62456 0.0
O388 O 1.01657 0.36588 0.6267 0.0
O389 O 0.10331 0.36915 0.6256 0.0
O390 O 0.07135 0.27091 0.64463 0.0
C391 C 0.06968 0.39046 0.62215 0.0
H392 H 0.16181 0.45528 0.66975 0.0
H393 H 0.9366 0.19297 0.59756 0.0
H394 H 0.9078 0.21987 0.67302 0.0
H395 H 0.81523 0.21655 0.64018 0.0
H396 H 0.78704 0.9295 0.98067 0.0
H397 H 0.78351 0.84798 0.01516 0.0
H398 H 0.83383 0.02673 0.99054 0.0
H399 H 0.83217 0.94451 0.02486 0.0
H400 H 0.87424 0.12018 0.04173 0.0
H401 H 0.8205 0.02337 0.03177 0.0
H402 H 0.92447 0.09917 0.99914 0.0
H403 H 0.97595 0.19568 1.00889 0.0
C404 C 0.79645 0.93236 0.99033 0.0
C405 C 0.78133 0.88096 0.99711 0.0
C406 C 0.82361 0.98812 0.996 0.0
C407 C 0.83689 0.99376 1.00855 0.0
C408 C 0.82167 0.94211 0.01527 0.0
C409 C 0.79405 0.88656 1.00965 0.0
C410 C 0.88543 0.11599 0.03243 0.0
C411 C 0.92921 0.16563 0.02611 0.0
C412 C 0.85483 0.06045 0.02671 0.0
C413 C 0.8679 0.05318 0.01459 0.0
C414 C 0.9121 0.10301 1.00835 0.0
C415 C 0.94208 0.15845 0.01401 0.0
H416 H 0.03941 0.94513 0.15237 0.0
H417 H 0.90343 0.7667 0.16179 0.0
H418 H 0.99683 0.98479 0.16667 0.0
H419 H 0.8619 0.8062 0.17642 0.0
H420 H 0.77021 0.90018 0.19351 0.0
H421 H 0.8092 0.85803 0.1789 0.0
H422 H 0.98822 0.99515 0.18781 0.0
H423 H 0.94902 0.0383 0.20207 0.0
C424 C 1.00044 0.9143 0.15752 0.0
C425 C 0.97495 0.85271 0.15594 0.0
C426 C 0.97623 0.93705 0.16581 0.0
C427 C 0.92618 0.89881 0.17285 0.0
C428 C 0.90004 0.83713 0.1711 0.0
C429 C 0.92399 0.81438 0.16271 0.0
C430 C 0.81788 0.92106 0.19241 0.0
C431 C 0.85644 0.97279 0.19893 0.0
C432 C 0.84034 0.89677 0.18404 0.0
C433 C 0.90198 0.92335 0.18205 0.0
C434 C 0.94048 0.97417 0.18885 0.0
C435 C 0.91801 0.9987 0.19713 0.0
H436 H 0.84157 0.76656 0.34041 0.0
H437 H 0.92861 0.76856 0.37402 0.0
H438 H 0.937 0.81604 0.33005 0.0
H439 H 0.02408 0.81538 0.36354 0.0
H440 H 0.19224 0.95338 0.3453 0.0
H441 H 0.09599 0.90475 0.35518 0.0
H442 H 1.01545 0.80686 0.32214 0.0
H443 H 0.11234 0.85845 0.31204 0.0
C444 C 0.88114 0.77699 0.34556 0.0
C445 C 0.87753 0.76375 0.35805 0.0
C446 C 0.936 0.80507 0.33958 0.0
C447 C 0.98873 0.81998 0.3459 0.0
C448 C 0.98481 0.80586 0.35839 0.0
C449 C 0.92997 0.77859 0.36441 0.0
C450 C 0.15398 0.92151 0.34012 0.0
C451 C 0.15993 0.90952 0.3279 0.0
C452 C 0.09862 0.89312 0.34584 0.0
C453 C 0.04757 0.85105 0.33957 0.0
C454 C 0.05347 0.83942 0.32726 0.0
C455 C 0.10902 0.86874 0.32146 0.0
H456 H 0.15617 0.05105 0.47532 0.0
H457 H 0.25318 0.18439 0.50262 0.0
H458 H 0.12289 0.97349 0.4909 0.0
H459 H 0.21816 0.10677 0.51826 0.0
H460 H 0.04841 0.94466 0.53947 0.0
H461 H 0.0993 0.02724 0.52505 0.0
H462 H 0.17844 0.93559 0.50755 0.0
H463 H 0.12901 0.85384 0.52215 0.0
C464 C 0.17084 0.06372 0.48462 0.0
C465 C 0.20743 0.12381 0.48774 0.0
C466 C 0.15192 0.01938 0.49351 0.0
C467 C 0.16797 0.03435 0.50574 0.0
C468 C 0.20528 0.09425 0.50887 0.0
C469 C 0.22555 0.13855 0.49991 0.0
C470 C 0.07749 0.9427 0.53267 0.0
C471 C 0.0851 0.89307 0.53197 0.0
C472 C 0.10669 0.98993 0.52447 0.0
C473 C 0.14274 0.98761 0.51523 0.0
C474 C 0.15101 0.9384 0.51463 0.0
C475 C 0.12304 0.89188 0.52302 0.0
H476 H 0.10346 1.01153 0.70245 0.0
H477 H 0.28233 0.14734 0.69322 0.0
H478 H 0.06414 0.05533 0.68844 0.0
H479 H 0.24301 0.18978 0.67869 0.0
H480 H 0.14805 0.28003 0.661 0.0
H481 H 0.19115 0.24218 0.6757 0.0
H482 H 0.05346 0.06273 0.66738 0.0
H483 H 1.00927 0.10074 0.65312 0.0
C484 C 0.13454 0.05071 0.6974 0.0
C485 C 0.19618 0.07532 0.69886 0.0
C486 C 0.11192 0.0756 0.68924 0.0
C487 C 0.15024 0.12552 0.68219 0.0
C488 C 0.21199 0.15146 0.68396 0.0
C489 C 0.23466 0.12685 0.69226 0.0
C490 C 0.12713 0.23252 0.66228 0.0
C491 C 0.07484 0.19353 0.65595 0.0
C492 C 0.15202 0.21071 0.6707 0.0
C493 C 0.12551 0.14929 0.6729 0.0
C494 C 0.07435 0.11035 0.66622 0.0
C495 C 0.0492 0.13217 0.65793 0.0
H496 H 0.85357 0.12359 0.83407 0.0
H497 H 0.95219 0.05437 0.8156 0.0
H498 H 0.93443 0.17299 0.84893 0.0
H499 H 0.03373 0.10535 0.83024 0.0
H500 H 0.18586 0.25944 0.85353 0.0
H501 H 0.10785 0.2255 0.83802 0.0
H502 H 0.97703 0.1156 0.86472 0.0
H503 H 0.05512 0.14765 0.88016 0.0
C504 C 0.8931 0.12019 0.83302 0.0
C505 C 0.8968 0.08538 0.82368 0.0
C506 C 0.93909 0.14812 0.84155 0.0
C507 C 0.99019 0.14305 0.84066 0.0
C508 C 0.99492 0.11025 0.83104 0.0
C509 C 0.9483 0.08101 0.82271 0.0
C510 C 0.14048 0.22866 0.85615 0.0
C511 C 0.12679 0.20598 0.86806 0.0
C512 C 0.09593 0.20916 0.84725 0.0
C513 C 0.03665 0.16803 0.85021 0.0
C514 C 0.02243 0.14759 0.86225 0.0
C515 C 0.06713 0.16582 0.87105 0.0
H516 H 0.95047 0.11111 0.08114 0.0
H517 H 0.14087 0.1929 0.07786 0.0
H518 H 0.94561 0.02086 0.08938 0.0
H519 H 0.13625 0.1038 0.08604 0.0
H520 H 0.1035 0.91707 0.08928 0.0
H521 H 0.09722 0.99824 0.07986 0.0
H522 H 0.98097 0.99097 0.10862 0.0
H523 H 0.98814 0.91014 0.11828 0.0
C524 C 0.9911 0.10961 0.0821 0.0
C525 C 0.04607 0.15921 0.07893 0.0
C526 C 0.98842 0.05824 0.08689 0.0
C527 C 0.04056 0.05513 0.08835 0.0
C528 C 0.09521 0.10445 0.08494 0.0
C529 C 0.09794 0.15579 0.08036 0.0
C530 C 0.0767 0.93264 0.09367 0.0
C531 C 0.04708 0.90727 0.10468 0.0
C532 C 0.07294 0.97917 0.08822 0.0
C533 C 0.03907 1.00149 0.09355 0.0
C534 C 1.00715 0.97453 0.10425 0.0
C535 C 1.01127 0.92809 0.10978 0.0
H536 H 0.86915 0.96508 0.25212 0.0
H537 H 0.98771 0.15124 0.24515 0.0
H538 H 0.95009 0.95908 0.2622 0.0
H539 H 0.06883 0.14535 0.2546 0.0
H540 H 0.19094 0.13977 0.28234 0.0
H541 H 0.10547 0.13909 0.27328 0.0
H542 H 0.04098 0.96002 0.26043 0.0
H543 H 0.12602 0.96036 0.27014 0.0
C544 C 0.91269 1.00452 0.25265 0.0
C545 C 0.92184 0.05882 0.24801 0.0
C546 C 0.95927 1.00117 0.25838 0.0
C547 C 1.01632 0.05194 0.25945 0.0
C548 C 0.02542 0.10563 0.2544 0.0
C549 C 0.97886 0.10909 0.24888 0.0
C550 C 0.15844 0.10027 0.27758 0.0
C551 C 0.16551 0.05038 0.27684 0.0
C552 C 0.1094 0.09987 0.27228 0.0
C553 C 0.06634 0.04992 0.26583 0.0
C554 C 0.07271 0.99925 0.26535 0.0
C555 C 0.12153 0.99937 0.27088 0.0
H556 H 0.14291 0.19878 0.41941 0.0
H557 H 0.1493 0.09519 0.4494 0.0
H558 H 0.06244 0.10837 0.41012 0.0
H559 H 0.06807 1.00508 0.44027 0.0
H560 H 0.8638 0.89582 0.42895 0.0
H561 H 0.9564 0.97875 0.43686 0.0
H562 H 0.0378 1.00209 0.40155 0.0
H563 H 0.9451 0.9179 0.39371 0.0
C564 C 0.1278 0.15652 0.42389 0.0
C565 C 0.15237 0.15413 0.43513 0.0
C566 C 0.08191 0.10483 0.41857 0.0
C567 C 0.05875 0.0498 0.42453 0.0
C568 C 0.08491 0.04698 0.43552 0.0
C569 C 0.1317 0.09849 0.4407 0.0
C570 C 0.90162 0.91843 0.42292 0.0
C571 C 0.89728 0.90058 0.41072 0.0
C572 C 0.9547 0.96555 0.42745 0.0
C573 C 1.00433 0.99676 0.41982 0.0
C574 C 1.00022 0.97876 0.40763 0.0
C575 C 0.94741 0.93059 0.40316 0.0
H576 H 0.91272 0.0931 0.59692 0.0
H577 H 0.09044 0.16398 0.61114 0.0
H578 H 0.91509 1.00686 0.58923 0.0
H579 H 0.09223 0.07642 0.60362 0.0
H580 H 0.08895 0.93508 0.57672 0.0
H581 H 0.09237 0.02525 0.58422 0.0
H582 H 0.91364 0.91945 0.59801 0.0
H583 H 0.90967 0.83008 0.59033 0.0
C584 C 0.95259 0.09067 0.59832 0.0
C585 C 1.00141 0.13581 0.60466 0.0
C586 C 0.95366 0.04071 0.59403 0.0
C587 C 1.00366 0.03439 0.59588 0.0
C588 C 0.05309 0.07999 0.602 0.0
C589 C 0.05186 0.12996 0.6064 0.0
C590 C 0.05037 0.93109 0.58133 0.0
C591 C 0.99902 0.87507 0.5829 0.0
C592 C 0.05253 0.98275 0.58572 0.0
C593 C 1.00314 0.97967 0.59166 0.0
C594 C 0.95222 0.92361 0.59335 0.0
C595 C 0.95023 0.87213 0.58906 0.0
H596 H 0.15288 0.97901 0.76751 0.0
H597 H 0.13397 0.04793 0.73306 0.0
H598 H 0.06842 0.98429 0.77552 0.0
H599 H 0.05127 0.05559 0.74124 0.0
H600 H 0.859 0.98297 0.75434 0.0
H601 H 0.94958 0.98928 0.74666 0.0
H602 H 0.03177 0.04873 0.78192 0.0
H603 H 0.94 0.04013 0.78975 0.0
C604 C 0.13118 0.99581 0.76166 0.0
C605 C 0.15038 0.01269 0.74959 0.0
C606 C 0.08301 0.99949 0.76632 0.0
C607 C 0.05261 0.02011 0.75903 0.0
C608 C 0.07296 0.0387 0.74708 0.0
C609 C 0.12109 0.03502 0.74243 0.0
C610 C 0.89625 0.99734 0.76048 0.0
C611 C 0.89178 1.01063 0.7727 0.0
C612 C 0.94865 1.00165 0.75603 0.0
C613 C 0.99822 0.01942 0.76366 0.0
C614 C 0.99433 0.03421 0.77581 0.0
C615 C 0.94185 0.02997 0.78027 0.0
H616 H 0.90578 0.85947 0.92649 0.0
H617 H 0.93137 0.94042 0.96184 0.0
H618 H 0.98855 0.95188 0.91842 0.0
H619 H 1.01548 0.03281 0.95384 0.0
H620 H 0.21104 0.13665 0.93511 0.0
H621 H 0.12127 0.05608 0.9446 0.0
H622 H 1.01503 0.06466 0.9154 0.0
H623 H 0.10444 0.14612 0.90609 0.0
C624 C 0.9291 0.89718 0.93251 0.0
C625 C 0.91224 0.89282 0.94478 0.0
C626 C 0.97616 0.95012 0.92789 0.0
C627 C 1.00836 0.99955 0.9355 0.0
C628 C 0.99138 0.9954 0.94777 0.0
C629 C 0.94323 0.94277 0.95233 0.0
C630 C 0.1683 0.12217 0.93088 0.0
C631 C 0.1649 0.14768 0.91984 0.0
C632 C 0.11698 0.0762 0.93632 0.0
C633 C 0.06127 0.05385 0.93069 0.0
C634 C 0.05746 0.08085 0.9199 0.0
C635 C 0.10862 0.12776 0.91462 0.0
H636 H 0.55217 0.55865 1.00512 0.0
H637 H 0.44669 0.60825 0.98319 0.0
H638 H 0.46102 0.47906 0.0146 0.0
H639 H 0.35586 0.5285 0.99237 0.0
H640 H 0.19955 0.3608 1.00684 0.0
H641 H 0.29318 0.41329 0.99539 0.0
H642 H 0.38741 0.49375 0.02871 0.0
H643 H 0.29377 0.44225 0.04003 0.0
C644 C 0.50932 0.55122 1.00211 0.0
C645 C 0.50595 0.58934 0.99353 0.0
C646 C 0.45744 0.50611 1.00753 0.0
C647 C 0.40154 0.49774 1.00419 0.0
C648 C 0.39827 0.53356 0.99502 0.0
C649 C 0.45005 0.5793 0.98983 0.0
C650 C 0.24065 0.38856 0.0117 0.0
C651 C 0.24 0.3978 0.02425 0.0
C652 C 0.29397 0.41859 1.00518 0.0
C653 C 0.34738 0.45741 0.01119 0.0
C654 C 0.34701 0.46352 0.02389 0.0
C655 C 0.29361 0.43439 0.03035 0.0
H656 H 1.00436 0.53718 0.16489 0.0
H657 H 0.82547 0.47445 0.15245 0.0
H658 H 0.97471 0.43668 0.17219 0.0
H659 H 0.79599 0.37444 0.15931 0.0
H660 H 0.7455 0.24076 0.1902 0.0
H661 H 0.78026 0.33374 0.17943 0.0
H662 H 0.9368 0.32978 0.16779 0.0
H663 H 0.9022 0.23636 0.179 0.0
C664 C 0.95917 0.50148 0.16346 0.0
C665 C 0.91685 0.51344 0.15834 0.0
C666 C 0.94212 0.44402 0.1676 0.0
C667 C 0.8826 0.39771 0.16657 0.0
C668 C 0.84173 0.40928 0.16058 0.0
C669 C 0.85856 0.46645 0.1566 0.0
C670 C 0.78731 0.25955 0.18533 0.0
C671 C 0.82134 0.23145 0.18554 0.0
C672 C 0.80703 0.31267 0.17903 0.0
C673 C 0.86131 0.3393 0.17268 0.0
C674 C 0.89498 0.31063 0.17265 0.0
C675 C 0.87495 0.25695 0.17896 0.0
H676 H 0.50432 0.97537 0.3186 0.0
H677 H 0.37012 0.83539 0.34083 0.0
H678 H 0.57975 0.95501 0.32724 0.0
H679 H 0.4443 0.81443 0.34908 0.0
H680 H 0.5635 0.73563 0.34577 0.0
H681 H 0.50436 0.77337 0.33634 0.0
H682 H 0.62448 0.94833 0.35038 0.0
H683 H 0.6837 0.91018 0.36017 0.0
C684 C 0.49112 0.94109 0.32544 0.0
C685 C 0.43103 0.90617 0.32886 0.0
C686 C 0.53414 0.92936 0.33034 0.0
C687 C 0.51739 0.88243 0.33863 0.0
C688 C 0.45811 0.85008 0.34252 0.0
C689 C 0.41563 0.86199 0.33775 0.0
C690 C 0.57772 0.78227 0.34681 0.0
C691 C 0.62762 0.8196 0.35393 0.0
C692 C 0.54396 0.80386 0.34137 0.0
C693 C 0.55949 0.86348 0.3428 0.0
C694 C 0.61171 0.90215 0.34916 0.0
C695 C 0.64554 0.88032 0.35472 0.0
H696 H 0.82596 0.58341 0.5086 0.0
H697 H 0.75485 0.6643 0.5323 0.0
H698 H 0.72827 0.52392 0.49914 0.0
H699 H 0.65801 0.60744 0.52254 0.0
H700 H 0.48217 0.43888 0.51657 0.0
H701 H 0.5815 0.50867 0.52331 0.0
H702 H 0.6482 0.5151 0.48699 0.0
H703 H 0.54813 0.4415 0.48036 0.0
C704 C 0.78968 0.58957 0.51153 0.0
C705 C 0.79758 0.6279 0.52124 0.0
C706 C 0.73369 0.55564 0.5061 0.0
C707 C 0.68469 0.55994 0.5102 0.0
C708 C 0.69407 0.60149 0.51937 0.0
C709 C 0.74964 0.63453 0.52491 0.0
C710 C 0.51775 0.4544 0.50999 0.0
C711 C 0.5067 0.43355 0.49792 0.0
C712 C 0.57503 0.49562 0.51383 0.0
C713 C 0.62329 0.51815 0.5057 0.0
C714 C 0.6123 0.49839 0.49355 0.0
C715 C 0.5547 0.45656 0.4897 0.0
H716 H 0.10825 0.48996 0.68365 0.0
H717 H 0.07087 0.53307 0.64806 0.0
H718 H 0.12504 0.5848 0.69143 0.0
H719 H 0.08781 0.62878 0.65583 0.0
H720 H 0.22125 0.82025 0.67259 0.0
H721 H 0.1802 0.7219 0.66341 0.0
H722 H 0.07422 0.64254 0.69557 0.0
H723 H 0.11448 0.74065 0.70469 0.0
C724 C 0.10282 0.51956 0.67755 0.0
C725 C 0.08849 0.50436 0.66527 0.0
C726 C 0.11203 0.5737 0.682 0.0
C727 C 0.10782 0.61435 0.67423 0.0
C728 C 0.09162 0.59843 0.662 0.0
C729 C 0.08146 0.54359 0.65759 0.0
C730 C 0.18799 0.78202 0.67757 0.0
C731 C 0.17189 0.78828 0.68946 0.0
C732 C 0.16448 0.72563 0.67231 0.0
C733 C 0.12457 0.67443 0.67884 0.0
C734 C 0.10568 0.68109 0.6904 0.0
C735 C 0.12888 0.7373 0.69563 0.0
H736 H 0.47646 0.1952 0.87249 0.0
H737 H 0.33193 0.1018 0.84712 0.0
H738 H 0.5279 0.14834 0.86378 0.0
H739 H 0.3829 0.05233 0.83854 0.0
H740 H 0.54542 0.06315 0.81643 0.0
H741 H 0.47011 0.07996 0.82603 0.0
H742 H 0.53027 0.05962 0.86145 0.0
H743 H 0.60703 0.04613 0.85172 0.0
C744 C 0.45536 0.16399 0.8651 0.0
C745 C 0.40059 0.15293 0.86037 0.0
C746 C 0.48449 0.13628 0.8602 0.0
C747 C 0.45956 0.09619 0.85045 0.0
C748 C 0.40356 0.08328 0.84598 0.0
C749 C 0.37417 0.11121 0.85094 0.0
C750 C 0.54089 0.06049 0.82624 0.0
C751 C 0.58175 0.05376 0.8334 0.0
C752 C 0.49789 0.07008 0.83176 0.0
C753 C 0.49492 0.07248 0.84454 0.0
C754 C 0.53232 0.05976 0.8516 0.0
C755 C 0.57581 0.05137 0.84608 0.0
H756 H 0.66738 0.74874 0.8218 0.0
H757 H 0.58941 0.82099 0.84602 0.0
H758 H 0.60825 0.65137 0.8312 0.0
H759 H 0.52819 0.72299 0.85519 0.0
H760 H 0.44574 0.54226 0.87375 0.0
H761 H 0.51951 0.64194 0.86708 0.0
H762 H 0.50769 0.57648 0.83047 0.0
H763 H 0.43728 0.47716 0.83721 0.0
C764 C 0.63782 0.74372 0.82922 0.0
C765 C 0.63267 0.7922 0.83314 0.0
C766 C 0.60353 0.68785 0.83456 0.0
C767 C 0.56241 0.67881 0.84382 0.0
C768 C 0.55956 0.72819 0.84815 0.0
C769 C 0.59457 0.7844 0.8429 0.0
C770 C 0.45951 0.5489 0.86432 0.0
C771 C 0.43496 0.50119 0.85604 0.0
C772 C 0.50148 0.60635 0.86046 0.0
C773 C 0.51989 0.61754 0.84823 0.0
C774 C 0.49562 0.5697 0.84001 0.0
C775 C 0.45413 0.51248 0.84386 0.0
H776 H 0.96104 0.49831 0.04414 0.0
H777 H 0.93907 0.43176 1.00752 0.0
H778 H 0.94526 0.579 0.03696 0.0
H779 H 0.925 0.51273 1.00024 0.0
H780 H 0.93254 0.68357 0.98966 0.0
H781 H 0.97769 0.62974 0.9989 0.0
H782 H 0.84544 0.56628 0.02735 0.0
H783 H 0.79973 0.61895 0.01796 0.0
C784 C 0.95471 0.50228 0.03452 0.0
C785 C 0.9513 0.45939 0.02632 0.0
C786 C 0.94545 0.548 0.03043 0.0
C787 C 0.93418 0.55213 0.01805 0.0
C788 C 0.93437 0.51108 1.00979 0.0
C789 C 0.94215 0.46475 0.01393 0.0
C790 C 0.91434 0.65947 0.99808 0.0
C791 C 0.86279 0.65518 1.00313 0.0
C792 C 0.93992 0.62858 1.00332 0.0
C793 C 0.91499 0.59394 0.01382 0.0
C794 C 0.86592 0.59317 0.01933 0.0
C795 C 0.83966 0.62303 0.01396 0.0
H796 H 0.47673 0.81991 0.2014 0.0
H797 H 0.54178 1.00089 0.19019 0.0
H798 H 0.37809 0.79183 0.19387 0.0
H799 H 0.44245 0.97266 0.18229 0.0
H800 H 0.24085 0.89981 0.17525 0.0
H801 H 0.33411 0.93332 0.18649 0.0
H802 H 0.34091 0.78058 0.17336 0.0
H803 H 0.24813 0.74683 0.16253 0.0
C804 C 0.46963 0.85376 0.19735 0.0
C805 C 0.517 0.91229 0.19616 0.0
C806 C 0.41318 0.83771 0.19301 0.0
C807 C 0.40261 0.87966 0.18722 0.0
C808 C 0.4491 0.93926 0.18671 0.0
C809 C 0.50588 0.95548 0.19119 0.0
C810 C 0.2621 0.8732 0.17493 0.0
C811 C 0.23733 0.82087 0.16795 0.0
C812 C 0.31568 0.89263 0.18127 0.0
C813 C 0.34495 0.85958 0.18086 0.0
C814 C 0.31931 0.80678 0.17404 0.0
C815 C 0.26632 0.78769 0.1677 0.0
H816 H 0.61212 0.42862 0.37525 0.0
H817 H 0.56762 0.53219 0.35149 0.0
H818 H 0.53433 0.33707 0.36591 0.0
H819 H 0.49008 0.44033 0.34185 0.0
H820 H 0.45453 0.27142 0.31762 0.0
H821 H 0.50692 0.36529 0.32878 0.0
H822 H 0.41939 0.27431 0.36193 0.0
H823 H 0.36589 0.18033 0.35064 0.0
C824 C 0.5847 0.43143 0.36816 0.0
C825 C 0.59563 0.48701 0.36401 0.0
C826 C 0.54008 0.37923 0.36287 0.0
C827 C 0.50633 0.38172 0.35315 0.0
C828 C 0.51557 0.43732 0.34933 0.0
C829 C 0.55949 0.48963 0.35484 0.0
C830 C 0.44567 0.27191 0.32724 0.0
C831 C 0.40655 0.21902 0.33333 0.0
C832 C 0.47525 0.32552 0.3336 0.0
C833 C 0.46709 0.32697 0.3462 0.0
C834 C 0.42634 0.27429 0.35221 0.0
C835 C 0.39577 0.22076 0.34578 0.0
H836 H 0.07114 0.54672 0.53731 0.0
H837 H 0.06433 0.61645 0.50221 0.0
H838 H 0.08866 0.47238 0.52753 0.0
H839 H 0.07808 0.54046 0.49226 0.0
H840 H 0.2077 0.47979 0.48122 0.0
H841 H 0.16334 0.53331 0.49001 0.0
H842 H 0.0624 0.38775 0.51487 0.0
H843 H 0.11 0.33504 0.50635 0.0
C844 C 0.07108 0.54434 0.52747 0.0
C845 C 0.06692 0.58709 0.52045 0.0
C846 C 0.081 0.50184 0.52184 0.0
C847 C 0.08612 0.50111 0.50908 0.0
C848 C 0.07629 0.54076 0.5021 0.0
C849 C 0.06774 0.58384 0.50774 0.0
C850 C 0.17614 0.45908 0.48858 0.0
C851 C 0.16325 0.4036 0.49323 0.0
C852 C 0.14975 0.48943 0.49352 0.0
C853 C 0.10892 0.46495 0.50317 0.0
C854 C 0.09407 0.40823 0.50753 0.0
C855 C 0.12089 0.37778 0.50258 0.0
H856 H 0.53852 0.07511 0.70498 0.0
H857 H 0.48749 0.08904 0.66832 0.0
H858 H 0.63693 0.09809 0.69762 0.0
H859 H 0.58518 0.11261 0.66098 0.0
H860 H 0.75034 0.11721 0.649 0.0
H861 H 0.65156 0.07289 0.65802 0.0
H862 H 0.72498 0.18862 0.68913 0.0
H863 H 0.82413 0.23301 0.68009 0.0
C864 C 0.54798 0.08188 0.69533 0.0
C865 C 0.50554 0.0805 0.68721 0.0
C866 C 0.6044 0.09562 0.69114 0.0
C867 C 0.61898 0.10735 0.67872 0.0
C868 C 0.57536 0.10321 0.67058 0.0
C869 C 0.51949 0.09014 0.67478 0.0
C870 C 0.7455 0.13291 0.65781 0.0
C871 C 0.79497 0.17929 0.66374 0.0
C872 C 0.6889 0.10746 0.66298 0.0
C873 C 0.68024 0.12772 0.67422 0.0
C874 C 0.73018 0.17168 0.6805 0.0
C875 C 0.78701 0.1972 0.67532 0.0
H876 H 0.02965 0.67324 0.09916 0.0
H877 H 0.88372 0.54587 0.1211 0.0
H878 H 0.02062 0.59354 0.08609 0.0
H879 H 0.87516 0.46491 0.1081 0.0
H880 H 0.87335 0.34596 0.0739 0.0
H881 H 0.85946 0.41803 0.08596 0.0
H882 H 0.04845 0.51854 0.09266 0.0
H883 H 0.06212 0.44797 0.0808 0.0
C884 C 0.99416 0.62821 0.10089 0.0
C885 C 0.95688 0.61561 0.11099 0.0
C886 C 0.98939 0.58245 0.09352 0.0
C887 C 0.94797 0.5228 0.09622 0.0
C888 C 0.90738 0.51042 0.10578 0.0
C889 C 0.91194 0.55666 0.11315 0.0
C890 C 0.91151 0.38287 0.07819 0.0
C891 C 0.96888 0.39165 0.07632 0.0
C892 C 0.90364 0.42421 0.08502 0.0
C893 C 0.9531 0.47482 0.08997 0.0
C894 C 1.00965 0.48107 0.08867 0.0
C895 C 1.01741 0.44026 0.08193 0.0
H896 H 0.55258 0.88046 0.23406 0.0
H897 H 0.67332 0.03412 0.25504 0.0
H898 H 0.46867 0.87058 0.24626 0.0
H899 H 0.59082 0.02379 0.26735 0.0
H900 H 0.43969 0.05509 0.27247 0.0
H901 H 0.51284 0.04499 0.26064 0.0
H902 H 0.41877 0.85614 0.26753 0.0
H903 H 0.34402 0.86646 0.27941 0.0
C904 C 0.56138 0.9103 0.24165 0.0
C905 C 0.6193 0.95761 0.24376 0.0
C906 C 0.5134 0.90502 0.24856 0.0
C907 C 0.52293 0.94724 0.25759 0.0
C908 C 0.58172 0.99136 0.26027 0.0
C909 C 0.62917 0.99683 0.25336 0.0
C910 C 0.43379 1.01114 0.27127 0.0
C911 C 0.38628 0.96163 0.27689 0.0
C912 C 0.47613 1.00541 0.26461 0.0
C913 C 0.47268 0.95004 0.26345 0.0
C914 C 0.42286 0.89948 0.26834 0.0
C915 C 0.37989 0.90526 0.27505 0.0
H916 H 0.48519 0.34105 0.45211 0.0
H917 H 0.38983 0.42733 0.43985 0.0
H918 H 0.57297 0.41323 0.44037 0.0
H919 H 0.47562 0.4977 0.42818 0.0
H920 H 0.64531 0.65819 0.4214 0.0
H921 H 0.57215 0.58077 0.43457 0.0
H922 H 0.61308 0.4539 0.4187 0.0
H923 H 0.68835 0.53296 0.40565 0.0
C924 C 0.48253 0.37441 0.4467 0.0
C925 C 0.43088 0.3789 0.44696 0.0
C926 C 0.53277 0.41586 0.44004 0.0
C927 C 0.53184 0.46226 0.43361 0.0
C928 C 0.47866 0.46384 0.43333 0.0
C929 C 0.42917 0.42307 0.43995 0.0
C930 C 0.64019 0.61426 0.42103 0.0
C931 C 0.6726 0.60157 0.41259 0.0
C932 C 0.59776 0.56966 0.42846 0.0
C933 C 0.58559 0.51073 0.42746 0.0
C934 C 0.62133 0.4988 0.41968 0.0
C935 C 0.66466 0.54404 0.41228 0.0
H936 H 1.01186 0.56089 0.56397 0.0
H937 H 0.13891 0.71632 0.58382 0.0
H938 H 0.03165 0.49809 0.5773 0.0
H939 H 0.158 0.65262 0.59748 0.0
H940 H 0.07595 0.49438 0.62738 0.0
H941 H 0.08762 0.57151 0.61307 0.0
H942 H 0.11475 0.47694 0.58386 0.0
H943 H 0.10441 0.40027 0.59838 0.0
C944 C 0.04438 0.5817 0.57117 0.0
C945 C 0.07346 0.6435 0.57293 0.0
C946 C 0.05615 0.54569 0.57873 0.0
C947 C 0.09654 0.57036 0.58841 0.0
C948 C 0.1267 0.63243 0.59006 0.0
C949 C 0.11586 0.66883 0.58227 0.0
C950 C 0.08649 0.4913 0.61797 0.0
C951 C 0.08993 0.44196 0.61396 0.0
C952 C 0.09325 0.53544 0.60979 0.0
C953 C 0.10198 0.53027 0.59734 0.0
C954 C 0.1081 0.48209 0.59341 0.0
C955 C 0.10263 0.4385 0.60169 0.0
H956 H 0.46743 1.01238 0.72747 0.0
H957 H 0.44365 0.13677 0.74923 0.0
H958 H 0.5446 0.02147 0.74117 0.0
H959 H 0.52176 0.14527 0.7633 0.0
H960 H 0.70234 0.15692 0.77991 0.0
H961 H 0.63925 0.17135 0.76505 0.0
H962 H 0.52317 0.98142 0.76307 0.0
H963 H 0.58469 0.96708 0.7776 0.0
C964 C 0.4793 0.04243 0.73513 0.0
C965 C 0.44872 0.07311 0.73739 0.0
C966 C 0.52368 0.04764 0.74298 0.0
C967 C 0.53857 0.08326 0.75342 0.0
C968 C 0.51117 0.11752 0.7553 0.0
C969 C 0.4665 0.1126 0.74729 0.0
C970 C 0.66343 0.11848 0.77622 0.0
C971 C 0.64882 0.06086 0.77988 0.0
C972 C 0.62718 0.12676 0.76782 0.0
C973 C 0.57652 0.07746 0.76284 0.0
C974 C 0.56221 0.02028 0.76662 0.0
C975 C 0.59761 1.01212 0.775 0.0
H976 H 0.64671 0.58975 0.94467 0.0
H977 H 0.56557 0.69921 0.94487 0.0
H978 H 0.57137 0.52122 0.93083 0.0
H979 H 0.48905 0.62962 0.93051 0.0
H980 H 0.32967 0.43693 0.91631 0.0
H981 H 0.40129 0.5191 0.9294 0.0
H982 H 0.54628 0.52287 0.90955 0.0
H983 H 0.47633 0.44135 0.89702 0.0
C984 C 0.61301 0.59965 0.94163 0.0
C985 C 0.61258 0.65035 0.94582 0.0
C986 C 0.56969 0.56022 0.93362 0.0
C987 C 0.52427 0.57 0.92945 0.0
C988 C 0.5234 0.62078 0.93359 0.0
C989 C 0.56752 0.66093 0.94166 0.0
C990 C 0.37688 0.45586 0.91476 0.0
C991 C 0.39729 0.43162 0.90584 0.0
C992 C 0.41785 0.50304 0.92218 0.0
C993 C 0.47959 0.52679 0.92067 0.0
C994 C 0.49922 0.50475 0.9112 0.0
C995 C 0.45888 0.45775 0.90401 0.0
loop_
_geom_bond_atom_site_label_1
_geom_bond_atom_site_label_2
_geom_bond_distance
_geom_bond_site_symmetry_2
_ccdc_geom_bond_type
Co0 N4 2.148 . S
Co0 N10 2.128 1_655 S
Co0 N20 2.194 1_655 S
Co0 O25 2.351 1_655 S
Co0 O26 2.155 . S
Co0 O27 2.096 . S
C1 N4 1.301 . S
C1 N5 1.328 . S
C1 H6 0.930 . S
C2 C3 1.333 . S
C2 N4 1.317 . S
C2 H7 0.930 . S
C3 C2 1.333 . S
C3 N5 1.350 . S
C3 H29 0.931 . S
N4 Co0 2.148 . S
N4 C1 1.301 . S
N4 C2 1.317 . S
N5 C1 1.328 . S
N5 C3 1.350 . S
H6 C1 0.930 . S
H7 C2 0.930 . S
C8 O9 1.224 . S
C8 O27 1.247 . S
O9 C8 1.224 . S
N10 Co0 2.128 1_455 S
N10 C11 1.355 . S
N10 C13 1.311 1_455 S
C11 N10 1.355 . S
C11 C12 1.363 . S
C11 H23 0.929 . S
C12 C11 1.363 . S
C12 N14 1.375 . S
C12 H30 0.931 . S
C13 N10 1.311 1_655 S
C13 N14 1.347 1_655 S
C13 H24 0.929 . S
N14 C12 1.375 . S
N14 C13 1.347 1_455 S
C15 C18 1.365 . S
C15 N20 1.328 . S
C15 H21 0.929 . S
C16 C17 1.362 . S
C16 C19 1.378 . S
C16 H31 0.929 . S
C17 C16 1.362 . S
C17 C18 1.366 . S
C18 C15 1.365 . S
C18 C17 1.366 . S
C18 H32 0.930 . S
C19 C16 1.378 . S
C19 N20 1.315 . S
C19 H22 0.930 . S
N20 Co0 2.194 1_455 S
N20 C15 1.328 . S
N20 C19 1.315 . S
H21 C15 0.929 . S
H22 C19 0.930 . S
H23 C11 0.929 . S
H24 C13 0.929 . S
O25 Co0 2.351 1_455 S
O25 C28 1.244 1_455 S
O26 Co0 2.155 . S
O26 C28 1.240 . S
O27 Co0 2.096 . S
O27 C8 1.247 . S
C28 O25 1.244 1_655 S
C28 O26 1.240 . S
H29 C3 0.931 . S
H30 C12 0.931 . S
H31 C16 0.929 . S
H32 C18 0.930 . S
Co33 N37 2.148 . S
Co33 N43 2.128 1_565 S
Co33 N53 2.194 1_565 S
Co33 O58 2.351 1_565 S
Co33 O59 2.155 . S
Co33 O60 2.096 . S
C34 N37 1.301 . S
C34 N38 1.328 . S
C34 H39 0.930 . S
C35 C36 1.333 . S
C35 N37 1.317 . S
C35 H40 0.930 . S
C36 C35 1.333 . S
C36 N38 1.350 . S
C36 H62 0.931 . S
N37 Co33 2.148 . S
N37 C34 1.301 . S
N37 C35 1.317 . S
N38 C34 1.328 . S
N38 C36 1.350 . S
H39 C34 0.930 . S
H40 C35 0.930 . S
C41 O42 1.224 . S
C41 O60 1.247 . S
O42 C41 1.224 . S
N43 Co33 2.128 1_545 S
N43 C44 1.355 . S
N43 C46 1.311 1_545 S
C44 N43 1.355 . S
C44 C45 1.363 . S
C44 H56 0.929 . S
C45 C44 1.363 . S
C45 N47 1.375 . S
C45 H63 0.931 . S
C46 N43 1.311 1_565 S
C46 N47 1.347 1_565 S
C46 H57 0.929 . S
N47 C45 1.375 . S
N47 C46 1.347 1_545 S
C48 C51 1.365 . S
C48 N53 1.328 . S
C48 H54 0.929 . S
C49 C50 1.362 . S
C49 C52 1.378 . S
C49 H64 0.929 . S
C50 C49 1.362 . S
C50 C51 1.366 . S
C51 C48 1.365 . S
C51 C50 1.366 . S
C51 H65 0.930 . S
C52 C49 1.378 . S
C52 N53 1.315 . S
C52 H55 0.930 . S
N53 Co33 2.194 1_545 S
N53 C48 1.328 . S
N53 C52 1.315 . S
H54 C48 0.929 . S
H55 C52 0.930 . S
H56 C44 0.929 . S
H57 C46 0.929 . S
O58 Co33 2.351 1_545 S
O58 C61 1.244 1_545 S
O59 Co33 2.155 . S
O59 C61 1.240 . S
O60 Co33 2.096 . S
O60 C41 1.247 . S
C61 O58 1.244 1_565 S
C61 O59 1.240 . S
H62 C36 0.931 . S
H63 C45 0.931 . S
H64 C49 0.929 . S
H65 C51 0.930 . S
Co66 N70 2.148 . S
Co66 N76 2.128 . S
Co66 N86 2.194 . S
Co66 O91 2.351 . S
Co66 O92 2.155 . S
Co66 O93 2.096 . S
C67 N70 1.301 . S
C67 N71 1.328 . S
C67 H72 0.930 . S
C68 C69 1.333 . S
C68 N70 1.317 . S
C68 H73 0.930 . S
C69 C68 1.333 . S
C69 N71 1.350 . S
C69 H95 0.931 . S
N70 Co66 2.148 . S
N70 C67 1.301 . S
N70 C68 1.317 . S
N71 C67 1.328 . S
N71 C69 1.350 . S
H72 C67 0.930 . S
H73 C68 0.930 . S
C74 O75 1.224 . S
C74 O93 1.247 . S
O75 C74 1.224 . S
N76 Co66 2.128 . S
N76 C77 1.355 . S
N76 C79 1.311 . S
C77 N76 1.355 . S
C77 C78 1.363 . S
C77 H89 0.929 . S
C78 C77 1.363 . S
C78 N80 1.375 . S
C78 H96 0.931 . S
C79 N76 1.311 . S
C79 N80 1.347 . S
C79 H90 0.929 . S
N80 C78 1.375 . S
N80 C79 1.347 . S
C81 C84 1.365 . S
C81 N86 1.328 . S
C81 H87 0.929 . S
C82 C83 1.362 . S
C82 C85 1.378 . S
C82 H97 0.929 . S
C83 C82 1.362 . S
C83 C84 1.366 . S
C84 C81 1.365 . S
C84 C83 1.366 . S
C84 H98 0.930 . S
C85 C82 1.378 . S
C85 N86 1.315 . S
C85 H88 0.930 . S
N86 Co66 2.194 . S
N86 C81 1.328 . S
N86 C85 1.315 . S
H87 C81 0.929 . S
H88 C85 0.930 . S
H89 C77 0.929 . S
H90 C79 0.929 . S
O91 Co66 2.351 . S
O91 C94 1.244 . S
O92 Co66 2.155 . S
O92 C94 1.240 . S
O93 Co66 2.096 . S
O93 C74 1.247 . S
C94 O91 1.244 . S
C94 O92 1.240 . S
H95 C69 0.931 . S
H96 C78 0.931 . S
H97 C82 0.929 . S
H98 C84 0.930 . S
Co99 N103 2.148 . S
Co99 N109 2.128 1_455 S
Co99 N119 2.194 1_455 S
Co99 O124 2.351 1_455 S
Co99 O125 2.155 . S
Co99 O126 2.096 . S
C100 N103 1.301 . S
C100 N104 1.328 . S
C100 H105 0.930 . S
C101 C102 1.333 . S
C101 N103 1.317 . S
C101 H106 0.930 . S
C102 C101 1.333 . S
C102 N104 1.350 . S
C102 H128 0.931 . S
N103 Co99 2.148 . S
N103 C100 1.301 . S
N103 C101 1.317 . S
N104 C100 1.328 . S
N104 C102 1.350 . S
H105 C100 0.930 . S
H106 C101 0.930 . S
C107 O108 1.224 . S
C107 O126 1.247 . S
O108 C107 1.224 . S
N109 Co99 2.128 1_655 S
N109 C110 1.355 . S
N109 C112 1.311 1_655 S
C110 N109 1.355 . S
C110 C111 1.363 . S
C110 H122 0.929 . S
C111 C110 1.363 . S
C111 N113 1.375 . S
C111 H129 0.931 . S
C112 N109 1.311 1_455 S
C112 N113 1.347 1_455 S
C112 H123 0.929 . S
N113 C111 1.375 . S
N113 C112 1.347 1_655 S
C114 C117 1.365 . S
C114 N119 1.328 . S
C114 H120 0.929 . S
C115 C116 1.362 . S
C115 C118 1.378 . S
C115 H130 0.929 . S
C116 C115 1.362 . S
C116 C117 1.366 . S
C117 C114 1.365 . S
C117 C116 1.366 . S
C117 H131 0.930 . S
C118 C115 1.378 . S
C118 N119 1.315 . S
C118 H121 0.930 . S
N119 Co99 2.194 1_655 S
N119 C114 1.328 . S
N119 C118 1.315 . S
H120 C114 0.929 . S
H121 C118 0.930 . S
H122 C110 0.929 . S
H123 C112 0.929 . S
O124 Co99 2.351 1_655 S
O124 C127 1.244 1_655 S
O125 Co99 2.155 . S
O125 C127 1.240 . S
O126 Co99 2.096 . S
O126 C107 1.247 . S
C127 O124 1.244 1_455 S
C127 O125 1.240 . S
H128 C102 0.931 . S
H129 C111 0.931 . S
H130 C115 0.929 . S
H131 C117 0.930 . S
Co132 N136 2.148 . S
Co132 N142 2.128 1_545 S
Co132 N152 2.194 1_545 S
Co132 O157 2.351 1_545 S
Co132 O158 2.155 . S
Co132 O159 2.096 . S
C133 N136 1.301 . S
C133 N137 1.328 . S
C133 H138 0.930 . S
C134 C135 1.333 . S
C134 N136 1.317 . S
C134 H139 0.930 . S
C135 C134 1.333 . S
C135 N137 1.350 . S
C135 H161 0.931 . S
N136 Co132 2.148 . S
N136 C133 1.301 . S
N136 C134 1.317 . S
N137 C133 1.328 . S
N137 C135 1.350 . S
H138 C133 0.930 . S
H139 C134 0.930 . S
C140 O141 1.224 . S
C140 O159 1.247 . S
O141 C140 1.224 . S
N142 Co132 2.128 1_565 S
N142 C143 1.355 . S
N142 C145 1.311 1_565 S
C143 N142 1.355 . S
C143 C144 1.363 . S
C143 H155 0.929 . S
C144 C143 1.363 . S
C144 N146 1.375 . S
C144 H162 0.931 . S
C145 N142 1.311 1_545 S
C145 N146 1.347 1_545 S
C145 H156 0.929 . S
N146 C144 1.375 . S
N146 C145 1.347 1_565 S
C147 C150 1.365 . S
C147 N152 1.328 . S
C147 H153 0.929 . S
C148 C149 1.362 . S
C148 C151 1.378 . S
C148 H163 0.929 . S
C149 C148 1.362 . S
C149 C150 1.366 . S
C150 C147 1.365 . S
C150 C149 1.366 . S
C150 H164 0.930 . S
C151 C148 1.378 . S
C151 N152 1.315 . S
C151 H154 0.930 . S
N152 Co132 2.194 1_565 S
N152 C147 1.328 . S
N152 C151 1.315 . S
H153 C147 0.929 . S
H154 C151 0.930 . S
H155 C143 0.929 . S
H156 C145 0.929 . S
O157 Co132 2.351 1_565 S
O157 C160 1.244 1_565 S
O158 Co132 2.155 . S
O158 C160 1.240 . S
O159 Co132 2.096 . S
O159 C140 1.247 . S
C160 O157 1.244 1_545 S
C160 O158 1.240 . S
H161 C135 0.931 . S
H162 C144 0.931 . S
H163 C148 0.929 . S
H164 C150 0.930 . S
Co165 N169 2.148 . S
Co165 N175 2.128 . S
Co165 N185 2.194 . S
Co165 O190 2.351 . S
Co165 O191 2.155 . S
Co165 O192 2.096 . S
C166 N169 1.301 . S
C166 N170 1.328 . S
C166 H171 0.930 . S
C167 C168 1.333 . S
C167 N169 1.317 . S
C167 H172 0.930 . S
C168 C167 1.333 . S
C168 N170 1.350 . S
C168 H194 0.931 . S
N169 Co165 2.148 . S
N169 C166 1.301 . S
N169 C167 1.317 . S
N170 C166 1.328 . S
N170 C168 1.350 . S
H171 C166 0.930 . S
H172 C167 0.930 . S
C173 O174 1.224 . S
C173 O192 1.247 . S
O174 C173 1.224 . S
N175 Co165 2.128 . S
N175 C176 1.355 . S
N175 C178 1.311 . S
C176 N175 1.355 . S
C176 C177 1.363 . S
C176 H188 0.929 . S
C177 C176 1.363 . S
C177 N179 1.375 . S
C177 H195 0.931 . S
C178 N175 1.311 . S
C178 N179 1.347 . S
C178 H189 0.929 . S
N179 C177 1.375 . S
N179 C178 1.347 . S
C180 C183 1.365 . S
C180 N185 1.328 . S
C180 H186 0.929 . S
C181 C182 1.362 . S
C181 C184 1.378 . S
C181 H196 0.929 . S
C182 C181 1.362 . S
C182 C183 1.366 . S
C183 C180 1.365 . S
C183 C182 1.366 . S
C183 H197 0.930 . S
C184 C181 1.378 . S
C184 N185 1.315 . S
C184 H187 0.930 . S
N185 Co165 2.194 . S
N185 C180 1.328 . S
N185 C184 1.315 . S
H186 C180 0.929 . S
H187 C184 0.930 . S
H188 C176 0.929 . S
H189 C178 0.929 . S
O190 Co165 2.351 . S
O190 C193 1.244 . S
O191 Co165 2.155 . S
O191 C193 1.240 . S
O192 Co165 2.096 . S
O192 C173 1.247 . S
C193 O190 1.244 . S
C193 O191 1.240 . S
H194 C168 0.931 . S
H195 C177 0.931 . S
H196 C181 0.929 . S
H197 C183 0.930 . S
Co198 N202 2.148 . S
Co198 N208 2.128 1_545 S
Co198 N218 2.194 1_545 S
Co198 O223 2.351 1_545 S
Co198 O224 2.155 . S
Co198 O225 2.096 . S
C199 N202 1.301 . S
C199 N203 1.328 . S
C199 H204 0.930 . S
C200 C201 1.333 . S
C200 N202 1.317 . S
C200 H205 0.930 . S
C201 C200 1.333 . S
C201 N203 1.350 . S
C201 H227 0.931 . S
N202 Co198 2.148 . S
N202 C199 1.301 . S
N202 C200 1.317 . S
N203 C199 1.328 . S
N203 C201 1.350 . S
H204 C199 0.930 . S
H205 C200 0.930 . S
C206 O207 1.224 . S
C206 O225 1.247 . S
O207 C206 1.224 . S
N208 Co198 2.128 1_565 S
N208 C209 1.355 . S
N208 C211 1.311 1_565 S
C209 N208 1.355 . S
C209 C210 1.363 . S
C209 H221 0.929 . S
C210 C209 1.363 . S
C210 N212 1.375 . S
C210 H228 0.931 . S
C211 N208 1.311 1_545 S
C211 N212 1.347 1_545 S
C211 H222 0.929 . S
N212 C210 1.375 . S
N212 C211 1.347 1_565 S
C213 C216 1.365 . S
C213 N218 1.328 . S
C213 H219 0.929 . S
C214 C215 1.362 . S
C214 C217 1.378 . S
C214 H229 0.929 . S
C215 C214 1.362 . S
C215 C216 1.366 . S
C216 C213 1.365 . S
C216 C215 1.366 . S
C216 H230 0.930 . S
C217 C214 1.378 . S
C217 N218 1.315 . S
C217 H220 0.930 . S
N218 Co198 2.194 1_565 S
N218 C213 1.328 . S
N218 C217 1.315 . S
H219 C213 0.929 . S
H220 C217 0.930 . S
H221 C209 0.929 . S
H222 C211 0.929 . S
O223 Co198 2.351 1_565 S
O223 C226 1.244 1_565 S
O224 Co198 2.155 . S
O224 C226 1.240 . S
O225 Co198 2.096 . S
O225 C206 1.247 . S
C226 O223 1.244 1_545 S
C226 O224 1.240 . S
H227 C201 0.931 . S
H228 C210 0.931 . S
H229 C214 0.929 . S
H230 C216 0.930 . S
Co231 N235 2.148 . S
Co231 N241 2.128 . S
Co231 N251 2.194 . S
Co231 O256 2.351 . S
Co231 O257 2.155 . S
Co231 O258 2.096 . S
C232 N235 1.301 . S
C232 N236 1.328 . S
C232 H237 0.930 . S
C233 C234 1.333 . S
C233 N235 1.317 . S
C233 H238 0.930 . S
C234 C233 1.333 . S
C234 N236 1.350 . S
C234 H260 0.931 . S
N235 Co231 2.148 . S
N235 C232 1.301 . S
N235 C233 1.317 . S
N236 C232 1.328 . S
N236 C234 1.350 . S
H237 C232 0.930 . S
H238 C233 0.930 . S
C239 O240 1.224 . S
C239 O258 1.247 . S
O240 C239 1.224 . S
N241 Co231 2.128 . S
N241 C242 1.355 . S
N241 C244 1.311 . S
C242 N241 1.355 . S
C242 C243 1.363 . S
C242 H254 0.929 . S
C243 C242 1.363 . S
C243 N245 1.375 . S
C243 H261 0.931 . S
C244 N241 1.311 . S
C244 N245 1.347 . S
C244 H255 0.929 . S
N245 C243 1.375 . S
N245 C244 1.347 . S
C246 C249 1.365 . S
C246 N251 1.328 . S
C246 H252 0.929 . S
C247 C248 1.362 . S
C247 C250 1.378 . S
C247 H262 0.929 . S
C248 C247 1.362 . S
C248 C249 1.366 . S
C249 C246 1.365 . S
C249 C248 1.366 . S
C249 H263 0.930 . S
C250 C247 1.378 . S
C250 N251 1.315 . S
C250 H253 0.930 . S
N251 Co231 2.194 . S
N251 C246 1.328 . S
N251 C250 1.315 . S
H252 C246 0.929 . S
H253 C250 0.930 . S
H254 C242 0.929 . S
H255 C244 0.929 . S
O256 Co231 2.351 . S
O256 C259 1.244 . S
O257 Co231 2.155 . S
O257 C259 1.240 . S
O258 Co231 2.096 . S
O258 C239 1.247 . S
C259 O256 1.244 . S
C259 O257 1.240 . S
H260 C234 0.931 . S
H261 C243 0.931 . S
H262 C247 0.929 . S
H263 C249 0.930 . S
Co264 N268 2.148 . S
Co264 N274 2.128 1_655 S
Co264 N284 2.194 1_655 S
Co264 O289 2.351 1_655 S
Co264 O290 2.155 . S
Co264 O291 2.096 . S
C265 N268 1.301 . S
C265 N269 1.328 . S
C265 H270 0.930 . S
C266 C267 1.333 . S
C266 N268 1.317 . S
C266 H271 0.930 . S
C267 C266 1.333 . S
C267 N269 1.350 . S
C267 H293 0.931 . S
N268 Co264 2.148 . S
N268 C265 1.301 . S
N268 C266 1.317 . S
N269 C265 1.328 . S
N269 C267 1.350 . S
H270 C265 0.930 . S
H271 C266 0.930 . S
C272 O273 1.224 . S
C272 O291 1.247 . S
O273 C272 1.224 . S
N274 Co264 2.128 1_455 S
N274 C275 1.355 . S
N274 C277 1.311 1_455 S
C275 N274 1.355 . S
C275 C276 1.363 . S
C275 H287 0.929 . S
C276 C275 1.363 . S
C276 N278 1.375 . S
C276 H294 0.931 . S
C277 N274 1.311 1_655 S
C277 N278 1.347 1_655 S
C277 H288 0.929 . S
N278 C276 1.375 . S
N278 C277 1.347 1_455 S
C279 C282 1.365 . S
C279 N284 1.328 . S
C279 H285 0.929 . S
C280 C281 1.362 . S
C280 C283 1.378 . S
C280 H295 0.929 . S
C281 C280 1.362 . S
C281 C282 1.366 . S
C282 C279 1.365 . S
C282 C281 1.366 . S
C282 H296 0.930 . S
C283 C280 1.378 . S
C283 N284 1.315 . S
C283 H286 0.930 . S
N284 Co264 2.194 1_455 S
N284 C279 1.328 . S
N284 C283 1.315 . S
H285 C279 0.929 . S
H286 C283 0.930 . S
H287 C275 0.929 . S
H288 C277 0.929 . S
O289 Co264 2.351 1_455 S
O289 C292 1.244 1_455 S
O290 Co264 2.155 . S
O290 C292 1.240 . S
O291 Co264 2.096 . S
O291 C272 1.247 . S
C292 O289 1.244 1_655 S
C292 O290 1.240 . S
H293 C267 0.931 . S
H294 C276 0.931 . S
H295 C280 0.929 . S
H296 C282 0.930 . S
Co297 N301 2.148 . S
Co297 N307 2.128 1_565 S
Co297 N317 2.194 1_565 S
Co297 O322 2.351 1_565 S
Co297 O323 2.155 . S
Co297 O324 2.096 . S
C298 N301 1.301 . S
C298 N302 1.328 . S
C298 H303 0.930 . S
C299 C300 1.333 . S
C299 N301 1.317 . S
C299 H304 0.930 . S
C300 C299 1.333 . S
C300 N302 1.350 . S
C300 H326 0.931 . S
N301 Co297 2.148 . S
N301 C298 1.301 . S
N301 C299 1.317 . S
N302 C298 1.328 . S
N302 C300 1.350 . S
H303 C298 0.930 . S
H304 C299 0.930 . S
C305 O306 1.224 . S
C305 O324 1.247 . S
O306 C305 1.224 . S
N307 Co297 2.128 1_545 S
N307 C308 1.355 . S
N307 C310 1.311 1_545 S
C308 N307 1.355 . S
C308 C309 1.363 . S
C308 H320 0.929 . S
C309 C308 1.363 . S
C309 N311 1.375 . S
C309 H327 0.931 . S
C310 N307 1.311 1_565 S
C310 N311 1.347 1_565 S
C310 H321 0.929 . S
N311 C309 1.375 . S
N311 C310 1.347 1_545 S
C312 C315 1.365 . S
C312 N317 1.328 . S
C312 H318 0.929 . S
C313 C314 1.362 . S
C313 C316 1.378 . S
C313 H328 0.929 . S
C314 C313 1.362 . S
C314 C315 1.366 . S
C315 C312 1.365 . S
C315 C314 1.366 . S
C315 H329 0.930 . S
C316 C313 1.378 . S
C316 N317 1.315 . S
C316 H319 0.930 . S
N317 Co297 2.194 1_545 S
N317 C312 1.328 . S
N317 C316 1.315 . S
H318 C312 0.929 . S
H319 C316 0.930 . S
H320 C308 0.929 . S
H321 C310 0.929 . S
O322 Co297 2.351 1_545 S
O322 C325 1.244 1_545 S
O323 Co297 2.155 . S
O323 C325 1.240 . S
O324 Co297 2.096 . S
O324 C305 1.247 . S
C325 O322 1.244 1_565 S
C325 O323 1.240 . S
H326 C300 0.931 . S
H327 C309 0.931 . S
H328 C313 0.929 . S
H329 C315 0.930 . S
Co330 N334 2.148 . S
Co330 N340 2.128 . S
Co330 N350 2.194 . S
Co330 O355 2.351 . S
Co330 O356 2.155 . S
Co330 O357 2.096 . S
C331 N334 1.301 . S
C331 N335 1.328 . S
C331 H336 0.930 . S
C332 C333 1.333 . S
C332 N334 1.317 . S
C332 H337 0.930 . S
C333 C332 1.333 . S
C333 N335 1.350 . S
C333 H359 0.931 . S
N334 Co330 2.148 . S
N334 C331 1.301 . S
N334 C332 1.317 . S
N335 C331 1.328 . S
N335 C333 1.350 . S
H336 C331 0.930 . S
H337 C332 0.930 . S
C338 O339 1.224 . S
C338 O357 1.247 . S
O339 C338 1.224 . S
N340 Co330 2.128 . S
N340 C341 1.355 . S
N340 C343 1.311 . S
C341 N340 1.355 . S
C341 C342 1.363 . S
C341 H353 0.929 . S
C342 C341 1.363 . S
C342 N344 1.375 . S
C342 H360 0.931 . S
C343 N340 1.311 . S
C343 N344 1.347 . S
C343 H354 0.929 . S
N344 C342 1.375 . S
N344 C343 1.347 . S
C345 C348 1.365 . S
C345 N350 1.328 . S
C345 H351 0.929 . S
C346 C347 1.362 . S
C346 C349 1.378 . S
C346 H361 0.929 . S
C347 C346 1.362 . S
C347 C348 1.366 . S
C348 C345 1.365 . S
C348 C347 1.366 . S
C348 H362 0.930 . S
C349 C346 1.378 . S
C349 N350 1.315 . S
C349 H352 0.930 . S
N350 Co330 2.194 . S
N350 C345 1.328 . S
N350 C349 1.315 . S
H351 C345 0.929 . S
H352 C349 0.930 . S
H353 C341 0.929 . S
H354 C343 0.929 . S
O355 Co330 2.351 . S
O355 C358 1.244 . S
O356 Co330 2.155 . S
O356 C358 1.240 . S
O357 Co330 2.096 . S
O357 C338 1.247 . S
C358 O355 1.244 . S
C358 O356 1.240 . S
H359 C333 0.931 . S
H360 C342 0.931 . S
H361 C346 0.929 . S
H362 C348 0.930 . S
Co363 N367 2.148 . S
Co363 N373 2.128 1_455 S
Co363 N383 2.194 1_455 S
Co363 O388 2.351 1_455 S
Co363 O389 2.155 . S
Co363 O390 2.096 . S
C364 N367 1.301 . S
C364 N368 1.328 . S
C364 H369 0.930 . S
C365 C366 1.333 . S
C365 N367 1.317 . S
C365 H370 0.930 . S
C366 C365 1.333 . S
C366 N368 1.350 . S
C366 H392 0.931 . S
N367 Co363 2.148 . S
N367 C364 1.301 . S
N367 C365 1.317 . S
N368 C364 1.328 . S
N368 C366 1.350 . S
H369 C364 0.930 . S
H370 C365 0.930 . S
C371 O372 1.224 . S
C371 O390 1.247 . S
O372 C371 1.224 . S
N373 Co363 2.128 1_655 S
N373 C374 1.355 . S
N373 C376 1.311 1_655 S
C374 N373 1.355 . S
C374 C375 1.363 . S
C374 H386 0.929 . S
C375 C374 1.363 . S
C375 N377 1.375 . S
C375 H393 0.931 . S
C376 N373 1.311 1_455 S
C376 N377 1.347 1_455 S
C376 H387 0.929 . S
N377 C375 1.375 . S
N377 C376 1.347 1_655 S
C378 C381 1.365 . S
C378 N383 1.328 . S
C378 H384 0.929 . S
C379 C380 1.362 . S
C379 C382 1.378 . S
C379 H394 0.929 . S
C380 C379 1.362 . S
C380 C381 1.366 . S
C381 C378 1.365 . S
C381 C380 1.366 . S
C381 H395 0.930 . S
C382 C379 1.378 . S
C382 N383 1.315 . S
C382 H385 0.930 . S
N383 Co363 2.194 1_655 S
N383 C378 1.328 . S
N383 C382 1.315 . S
H384 C378 0.929 . S
H385 C382 0.930 . S
H386 C374 0.929 . S
H387 C376 0.929 . S
O388 Co363 2.351 1_655 S
O388 C391 1.244 1_655 S
O389 Co363 2.155 . S
O389 C391 1.240 . S
O390 Co363 2.096 . S
O390 C371 1.247 . S
C391 O388 1.244 1_455 S
C391 O389 1.240 . S
H392 C366 0.931 . S
H393 C375 0.931 . S
H394 C379 0.929 . S
H395 C381 0.930 . S
H396 C404 0.950 . S
H397 C409 0.950 . S
H398 C406 0.950 . S
H399 C408 0.917 1_554 S
H400 C410 0.950 . S
H401 C412 0.950 . S
H402 C414 0.927 1_556 S
H403 C415 0.950 . S
C404 H396 0.950 . S
C404 C405 1.386 . S
C404 C406 1.391 . S
C405 C404 1.386 . S
C405 C409 1.393 . S
C406 H398 0.950 . S
C406 C404 1.391 . S
C406 C407 1.400 . S
C407 C406 1.400 . S
C407 C408 1.398 . S
C407 C413 1.491 1_566 S
C408 H399 0.917 1_556 S
C408 C407 1.398 . S
C408 C409 1.391 . S
C409 H397 0.950 . S
C409 C405 1.393 . S
C409 C408 1.391 . S
C410 H400 0.950 . S
C410 C411 1.386 . S
C410 C412 1.391 . S
C411 C410 1.386 . S
C411 C415 1.393 . S
C412 H401 0.950 . S
C412 C410 1.391 . S
C412 C413 1.400 . S
C413 C407 1.491 1_544 S
C413 C412 1.400 . S
C413 C414 1.398 . S
C414 H402 0.927 1_554 S
C414 C413 1.398 . S
C414 C415 1.391 . S
C415 H403 0.950 . S
C415 C411 1.393 . S
C415 C414 1.391 . S
H416 C424 0.950 . S
H417 C429 0.950 . S
H418 C426 0.950 . S
H419 C428 0.950 . S
H420 C430 0.950 . S
H421 C432 0.950 . S
H422 C434 0.950 . S
H423 C435 0.950 . S
C424 H416 0.950 . S
C424 C425 1.386 . S
C424 C426 1.391 . S
C425 C424 1.386 . S
C425 C429 1.393 . S
C426 H418 0.950 . S
C426 C424 1.391 . S
C426 C427 1.400 . S
C427 C426 1.400 . S
C427 C428 1.398 . S
C427 C433 1.491 . S
C428 H419 0.950 . S
C428 C427 1.398 . S
C428 C429 1.391 . S
C429 H417 0.950 . S
C429 C425 1.393 . S
C429 C428 1.391 . S
C430 H420 0.950 . S
C430 C431 1.386 . S
C430 C432 1.391 . S
C431 C430 1.386 . S
C431 C435 1.393 . S
C432 H421 0.950 . S
C432 C430 1.391 . S
C432 C433 1.400 . S
C433 C427 1.491 . S
C433 C432 1.400 . S
C433 C434 1.398 . S
C434 H422 0.950 . S
C434 C433 1.398 . S
C434 C435 1.391 . S
C435 H423 0.950 . S
C435 C431 1.393 . S
C435 C434 1.391 . S
H436 C444 0.950 . S
H437 C449 0.950 . S
H438 C446 0.950 . S
H439 C448 0.950 . S
H440 C450 0.950 . S
H441 C452 0.950 . S
H442 C454 0.950 . S
H443 C455 0.950 . S
C444 H436 0.950 . S
C444 C445 1.386 . S
C444 C446 1.391 . S
C445 C444 1.386 . S
C445 C449 1.393 . S
C446 H438 0.950 . S
C446 C444 1.391 . S
C446 C447 1.400 . S
C447 C446 1.400 . S
C447 C448 1.398 . S
C447 C453 1.491 1_655 S
C448 H439 0.950 . S
C448 C447 1.398 . S
C448 C449 1.391 . S
C449 H437 0.950 . S
C449 C445 1.393 . S
C449 C448 1.391 . S
C450 H440 0.950 . S
C450 C451 1.386 . S
C450 C452 1.391 . S
C451 C450 1.386 . S
C451 C455 1.393 . S
C452 H441 0.950 . S
C452 C450 1.391 . S
C452 C453 1.400 . S
C453 C447 1.491 1_455 S
C453 C452 1.400 . S
C453 C454 1.398 . S
C454 H442 0.950 . S
C454 C453 1.398 . S
C454 C455 1.391 . S
C455 H443 0.950 . S
C455 C451 1.393 . S
C455 C454 1.391 . S
H456 C464 0.950 . S
H457 C469 0.950 . S
H458 C466 0.950 1_565 S
H459 C468 0.950 . S
H460 C470 0.950 . S
H461 C472 0.950 1_545 S
H462 C474 0.950 . S
H463 C475 0.950 . S
C464 H456 0.950 . S
C464 C465 1.386 . S
C464 C466 1.391 . S
C465 C464 1.386 . S
C465 C469 1.393 . S
C466 H458 0.950 1_545 S
C466 C464 1.391 . S
C466 C467 1.400 . S
C467 C466 1.400 . S
C467 C468 1.398 . S
C467 C473 1.491 1_545 S
C468 H459 0.950 . S
C468 C467 1.398 . S
C468 C469 1.391 . S
C469 H457 0.950 . S
C469 C465 1.393 . S
C469 C468 1.391 . S
C470 H460 0.950 . S
C470 C471 1.386 . S
C470 C472 1.391 . S
C471 C470 1.386 . S
C471 C475 1.393 . S
C472 H461 0.950 1_565 S
C472 C470 1.391 . S
C472 C473 1.400 . S
C473 C467 1.491 1_565 S
C473 C472 1.400 . S
C473 C474 1.398 . S
C474 H462 0.950 . S
C474 C473 1.398 . S
C474 C475 1.391 . S
C475 H463 0.950 . S
C475 C471 1.393 . S
C475 C474 1.391 . S
H476 C484 0.950 . S
H477 C489 0.950 . S
H478 C486 0.950 . S
H479 C488 0.950 . S
H480 C490 0.950 . S
H481 C492 0.950 . S
H482 C494 0.950 . S
H483 C495 0.950 . S
C484 H476 0.950 . S
C484 C485 1.386 . S
C484 C486 1.391 . S
C485 C484 1.386 . S
C485 C489 1.393 . S
C486 H478 0.950 . S
C486 C484 1.391 . S
C486 C487 1.400 . S
C487 C486 1.400 . S
C487 C488 1.398 . S
C487 C493 1.491 . S
C488 H479 0.950 . S
C488 C487 1.398 . S
C488 C489 1.391 . S
C489 H477 0.950 . S
C489 C485 1.393 . S
C489 C488 1.391 . S
C490 H480 0.950 . S
C490 C491 1.386 . S
C490 C492 1.391 . S
C491 C490 1.386 . S
C491 C495 1.393 . S
C492 H481 0.950 . S
C492 C490 1.391 . S
C492 C493 1.400 . S
C493 C487 1.491 . S
C493 C492 1.400 . S
C493 C494 1.398 . S
C494 H482 0.950 . S
C494 C493 1.398 . S
C494 C495 1.391 . S
C495 H483 0.950 . S
C495 C491 1.393 . S
C495 C494 1.391 . S
H496 C504 0.950 . S
H497 C509 0.950 . S
H498 C506 0.950 . S
H499 C508 0.950 1_455 S
H500 C510 0.950 . S
H501 C512 0.950 . S
H502 C514 0.950 1_655 S
H503 C515 0.950 . S
C504 H496 0.950 . S
C504 C505 1.386 . S
C504 C506 1.391 . S
C505 C504 1.386 . S
C505 C509 1.393 . S
C506 H498 0.950 . S
C506 C504 1.391 . S
C506 C507 1.400 . S
C507 C506 1.400 . S
C507 C508 1.398 . S
C507 C513 1.491 1_655 S
C508 H499 0.950 1_655 S
C508 C507 1.398 . S
C508 C509 1.391 . S
C509 H497 0.950 . S
C509 C505 1.393 . S
C509 C508 1.391 . S
C510 H500 0.950 . S
C510 C511 1.386 . S
C510 C512 1.391 . S
C511 C510 1.386 . S
C511 C515 1.393 . S
C512 H501 0.950 . S
C512 C510 1.391 . S
C512 C513 1.400 . S
C513 C507 1.491 1_455 S
C513 C512 1.400 . S
C513 C514 1.398 . S
C514 H502 0.950 1_455 S
C514 C513 1.398 . S
C514 C515 1.391 . S
C515 H503 0.950 . S
C515 C511 1.393 . S
C515 C514 1.391 . S
H516 C524 0.950 . S
H517 C529 0.950 . S
H518 C526 0.950 . S
H519 C528 0.950 . S
H520 C530 0.950 . S
H521 C532 0.950 . S
H522 C534 0.950 . S
H523 C535 0.950 . S
C524 H516 0.950 . S
C524 C525 1.386 1_655 S
C524 C526 1.391 . S
C525 C524 1.386 1_455 S
C525 C529 1.393 . S
C526 H518 0.950 . S
C526 C524 1.391 . S
C526 C527 1.400 1_655 S
C527 C526 1.400 1_455 S
C527 C528 1.398 . S
C527 C533 1.491 1_545 S
C528 H519 0.950 . S
C528 C527 1.398 . S
C528 C529 1.391 . S
C529 H517 0.950 . S
C529 C525 1.393 . S
C529 C528 1.391 . S
C530 H520 0.950 . S
C530 C531 1.386 . S
C530 C532 1.391 . S
C531 C530 1.386 . S
C531 C535 1.393 1_455 S
C532 H521 0.950 . S
C532 C530 1.391 . S
C532 C533 1.400 . S
C533 C527 1.491 1_565 S
C533 C532 1.400 . S
C533 C534 1.398 1_455 S
C534 H522 0.950 . S
C534 C533 1.398 1_655 S
C534 C535 1.391 . S
C535 H523 0.950 . S
C535 C531 1.393 1_655 S
C535 C534 1.391 . S
H536 C544 0.950 . S
H537 C549 0.950 . S
H538 C546 0.950 . S
H539 C548 0.950 . S
H540 C550 0.950 . S
H541 C552 0.950 . S
H542 C554 0.950 1_655 S
H543 C555 0.950 . S
C544 H536 0.950 . S
C544 C545 1.386 1_565 S
C544 C546 1.391 . S
C545 C544 1.386 1_545 S
C545 C549 1.393 . S
C546 H538 0.950 . S
C546 C544 1.391 . S
C546 C547 1.400 1_565 S
C547 C546 1.400 1_545 S
C547 C548 1.398 1_655 S
C547 C553 1.491 1_655 S
C548 H539 0.950 . S
C548 C547 1.398 1_455 S
C548 C549 1.391 1_455 S
C549 H537 0.950 . S
C549 C545 1.393 . S
C549 C548 1.391 1_655 S
C550 H540 0.950 . S
C550 C551 1.386 . S
C550 C552 1.391 . S
C551 C550 1.386 . S
C551 C555 1.393 1_545 S
C552 H541 0.950 . S
C552 C550 1.391 . S
C552 C553 1.400 . S
C553 C547 1.491 1_455 S
C553 C552 1.400 . S
C553 C554 1.398 1_545 S
C554 H542 0.950 1_455 S
C554 C553 1.398 1_565 S
C554 C555 1.391 . S
C555 H543 0.950 . S
C555 C551 1.393 1_565 S
C555 C554 1.391 . S
H556 C564 0.950 . S
H557 C569 0.950 . S
H558 C566 0.950 . S
H559 C568 0.948 1_655 S
H560 C570 0.950 . S
H561 C572 0.950 . S
H562 C574 0.950 1_445 S
H563 C575 0.950 . S
C564 H556 0.950 . S
C564 C565 1.386 . S
C564 C566 1.391 . S
C565 C564 1.386 . S
C565 C569 1.393 . S
C566 H558 0.950 . S
C566 C564 1.391 . S
C566 C567 1.400 . S
C567 C566 1.400 . S
C567 C568 1.399 . S
C567 C573 1.491 1_445 S
C568 H559 0.948 1_455 S
C568 C567 1.399 . S
C568 C569 1.392 . S
C569 H557 0.950 . S
C569 C565 1.393 . S
C569 C568 1.392 . S
C570 H560 0.950 . S
C570 C571 1.386 . S
C570 C572 1.391 . S
C571 C570 1.386 . S
C571 C575 1.393 . S
C572 H561 0.950 . S
C572 C570 1.391 . S
C572 C573 1.400 . S
C573 C567 1.491 1_665 S
C573 C572 1.400 . S
C573 C574 1.398 . S
C574 H562 0.950 1_665 S
C574 C573 1.398 . S
C574 C575 1.391 . S
C575 H563 0.950 . S
C575 C571 1.393 . S
C575 C574 1.391 . S
H576 C584 0.950 . S
H577 C589 0.950 . S
H578 C586 0.950 . S
H579 C588 0.950 . S
H580 C590 0.950 . S
H581 C592 0.950 1_545 S
H582 C594 0.950 . S
H583 C595 0.950 . S
C584 H576 0.950 . S
C584 C585 1.386 . S
C584 C586 1.391 1_545 S
C585 C584 1.386 . S
C585 C589 1.386 1_655 S
C586 H578 0.950 . S
C586 C584 1.391 1_565 S
C586 C587 1.400 1_565 S
C587 C586 1.400 1_545 S
C587 C588 1.398 1_655 S
C587 C593 1.491 1_545 S
C588 H579 0.950 . S
C588 C587 1.398 1_455 S
C588 C589 1.398 . S
C589 H577 0.950 . S
C589 C585 1.386 1_455 S
C589 C588 1.398 . S
C590 H580 0.950 . S
C590 C591 1.386 1_455 S
C590 C592 1.391 . S
C591 C590 1.386 1_655 S
C591 C595 1.393 . S
C592 H581 0.950 1_565 S
C592 C590 1.391 . S
C592 C593 1.400 1_455 S
C593 C587 1.491 1_565 S
C593 C592 1.400 1_655 S
C593 C594 1.398 . S
C594 H582 0.950 . S
C594 C593 1.398 . S
C594 C595 1.391 . S
C595 H583 0.950 . S
C595 C591 1.393 . S
C595 C594 1.391 . S
H596 C604 0.950 . S
H597 C609 0.950 . S
H598 C606 0.950 . S
H599 C608 0.950 1_655 S
H600 C610 0.950 . S
H601 C612 0.950 . S
H602 C614 0.950 . S
H603 C615 0.950 . S
C604 H596 0.950 . S
C604 C605 1.386 . S
C604 C606 1.391 . S
C605 C604 1.386 . S
C605 C609 1.393 . S
C606 H598 0.950 . S
C606 C604 1.391 . S
C606 C607 1.400 . S
C607 C606 1.400 . S
C607 C608 1.398 . S
C607 C613 1.491 1_455 S
C608 H599 0.950 1_455 S
C608 C607 1.398 . S
C608 C609 1.391 . S
C609 H597 0.950 . S
C609 C605 1.393 . S
C609 C608 1.391 . S
C610 H600 0.950 . S
C610 C611 1.386 . S
C610 C612 1.391 . S
C611 C610 1.386 . S
C611 C615 1.393 . S
C612 H601 0.950 . S
C612 C610 1.391 . S
C612 C613 1.400 . S
C613 C607 1.491 1_655 S
C613 C612 1.400 . S
C613 C614 1.398 . S
C614 H602 0.950 . S
C614 C613 1.398 . S
C614 C615 1.391 . S
C615 H603 0.950 . S
C615 C611 1.393 . S
C615 C614 1.391 . S
H616 C624 0.950 . S
H617 C629 0.950 . S
H618 C626 0.950 . S
H619 C628 0.950 1_445 S
H620 C630 0.950 . S
H621 C632 0.950 . S
H622 C634 0.950 1_665 S
H623 C635 0.950 . S
C624 H616 0.950 . S
C624 C625 1.386 . S
C624 C626 1.391 . S
C625 C624 1.386 . S
C625 C629 1.393 . S
C626 H618 0.950 . S
C626 C624 1.391 . S
C626 C627 1.400 . S
C627 C626 1.400 . S
C627 C628 1.398 . S
C627 C633 1.491 1_665 S
C628 H619 0.950 1_665 S
C628 C627 1.398 . S
C628 C629 1.391 . S
C629 H617 0.950 . S
C629 C625 1.393 . S
C629 C628 1.391 . S
C630 H620 0.950 . S
C630 C631 1.386 . S
C630 C632 1.391 . S
C631 C630 1.386 . S
C631 C635 1.393 . S
C632 H621 0.950 . S
C632 C630 1.391 . S
C632 C633 1.400 . S
C633 C627 1.491 1_445 S
C633 C632 1.400 . S
C633 C634 1.398 . S
C634 H622 0.950 1_445 S
C634 C633 1.398 . S
C634 C635 1.391 . S
C635 H623 0.950 . S
C635 C631 1.393 . S
C635 C634 1.391 . S
H636 C644 0.950 1_554 S
H637 C649 0.950 . S
H638 C646 0.950 . S
H639 C648 0.950 . S
H640 C650 0.991 . S
H641 C652 0.999 . S
H642 C654 0.950 . S
H643 C655 0.950 . S
C644 H636 0.950 1_556 S
C644 C645 1.386 . S
C644 C646 1.391 1_556 S
C645 C644 1.386 . S
C645 C649 1.393 . S
C646 H638 0.950 . S
C646 C644 1.391 1_554 S
C646 C647 1.400 1_554 S
C647 C646 1.400 1_556 S
C647 C648 1.398 . S
C647 C653 1.491 1_556 S
C648 H639 0.950 . S
C648 C647 1.398 . S
C648 C649 1.391 . S
C649 H637 0.950 . S
C649 C645 1.393 . S
C649 C648 1.391 . S
C650 H640 0.991 . S
C650 C651 1.386 . S
C650 C652 1.368 1_554 S
C651 C650 1.386 . S
C651 C655 1.393 . S
C652 H641 0.999 . S
C652 C650 1.368 1_556 S
C652 C653 1.378 1_556 S
C653 C647 1.491 1_554 S
C653 C652 1.378 1_554 S
C653 C654 1.398 . S
C654 H642 0.950 . S
C654 C653 1.398 . S
C654 C655 1.391 . S
C655 H643 0.950 . S
C655 C651 1.393 . S
C655 C654 1.391 . S
H656 C664 0.950 . S
H657 C669 0.950 . S
H658 C666 0.950 . S
H659 C668 0.950 . S
H660 C670 0.950 . S
H661 C672 0.950 . S
H662 C674 0.950 . S
H663 C675 0.950 . S
C664 H656 0.950 . S
C664 C665 1.386 . S
C664 C666 1.391 . S
C665 C664 1.386 . S
C665 C669 1.393 . S
C666 H658 0.950 . S
C666 C664 1.391 . S
C666 C667 1.400 . S
C667 C666 1.400 . S
C667 C668 1.398 . S
C667 C673 1.491 . S
C668 H659 0.950 . S
C668 C667 1.398 . S
C668 C669 1.391 . S
C669 H657 0.950 . S
C669 C665 1.393 . S
C669 C668 1.391 . S
C670 H660 0.950 . S
C670 C671 1.386 . S
C670 C672 1.391 . S
C671 C670 1.386 . S
C671 C675 1.393 . S
C672 H661 0.950 . S
C672 C670 1.391 . S
C672 C673 1.400 . S
C673 C667 1.491 . S
C673 C672 1.400 . S
C673 C674 1.398 . S
C674 H662 0.950 . S
C674 C673 1.398 . S
C674 C675 1.391 . S
C675 H663 0.950 . S
C675 C671 1.393 . S
C675 C674 1.391 . S
H676 C684 0.950 . S
H677 C689 0.950 . S
H678 C686 0.950 . S
H679 C688 0.950 . S
H680 C690 0.950 . S
H681 C692 0.950 . S
H682 C694 0.950 . S
H683 C695 0.950 . S
C684 H676 0.950 . S
C684 C685 1.386 . S
C684 C686 1.391 . S
C685 C684 1.386 . S
C685 C689 1.393 . S
C686 H678 0.950 . S
C686 C684 1.391 . S
C686 C687 1.400 . S
C687 C686 1.400 . S
C687 C688 1.398 . S
C687 C693 1.491 . S
C688 H679 0.950 . S
C688 C687 1.398 . S
C688 C689 1.391 . S
C689 H677 0.950 . S
C689 C685 1.393 . S
C689 C688 1.391 . S
C690 H680 0.950 . S
C690 C691 1.386 . S
C690 C692 1.391 . S
C691 C690 1.386 . S
C691 C695 1.393 . S
C692 H681 0.950 . S
C692 C690 1.391 . S
C692 C693 1.400 . S
C693 C687 1.491 . S
C693 C692 1.400 . S
C693 C694 1.398 . S
C694 H682 0.950 . S
C694 C693 1.398 . S
C694 C695 1.391 . S
C695 H683 0.950 . S
C695 C691 1.393 . S
C695 C694 1.391 . S
H696 C704 0.950 . S
H697 C709 0.950 . S
H698 C706 0.950 . S
H699 C708 0.950 . S
H700 C710 0.950 . S
H701 C712 0.950 . S
H702 C714 0.950 . S
H703 C715 0.950 . S
C704 H696 0.950 . S
C704 C705 1.386 . S
C704 C706 1.391 . S
C705 C704 1.386 . S
C705 C709 1.393 . S
C706 H698 0.950 . S
C706 C704 1.391 . S
C706 C707 1.400 . S
C707 C706 1.400 . S
C707 C708 1.398 . S
C707 C713 1.491 . S
C708 H699 0.950 . S
C708 C707 1.398 . S
C708 C709 1.391 . S
C709 H697 0.950 . S
C709 C705 1.393 . S
C709 C708 1.391 . S
C710 H700 0.950 . S
C710 C711 1.386 . S
C710 C712 1.391 . S
C711 C710 1.386 . S
C711 C715 1.393 . S
C712 H701 0.950 . S
C712 C710 1.391 . S
C712 C713 1.400 . S
C713 C707 1.491 . S
C713 C712 1.400 . S
C713 C714 1.398 . S
C714 H702 0.950 . S
C714 C713 1.398 . S
C714 C715 1.391 . S
C715 H703 0.950 . S
C715 C711 1.393 . S
C715 C714 1.391 . S
H716 C724 0.950 . S
H717 C729 0.950 . S
H718 C726 0.950 . S
H719 C728 0.950 . S
H720 C730 0.950 . S
H721 C732 0.950 . S
H722 C734 0.950 . S
H723 C735 0.950 . S
C724 H716 0.950 . S
C724 C725 1.386 . S
C724 C726 1.391 . S
C725 C724 1.386 . S
C725 C729 1.393 . S
C726 H718 0.950 . S
C726 C724 1.391 . S
C726 C727 1.400 . S
C727 C726 1.400 . S
C727 C728 1.398 . S
C727 C733 1.491 . S
C728 H719 0.950 . S
C728 C727 1.398 . S
C728 C729 1.391 . S
C729 H717 0.950 . S
C729 C725 1.393 . S
C729 C728 1.391 . S
C730 H720 0.950 . S
C730 C731 1.386 . S
C730 C732 1.391 . S
C731 C730 1.386 . S
C731 C735 1.393 . S
C732 H721 0.950 . S
C732 C730 1.391 . S
C732 C733 1.400 . S
C733 C727 1.491 . S
C733 C732 1.400 . S
C733 C734 1.398 . S
C734 H722 0.950 . S
C734 C733 1.398 . S
C734 C735 1.391 . S
C735 H723 0.950 . S
C735 C731 1.393 . S
C735 C734 1.391 . S
H736 C744 0.950 . S
H737 C749 0.950 . S
H738 C746 0.950 . S
H739 C748 0.950 . S
H740 C750 0.950 . S
H741 C752 0.950 . S
H742 C754 0.950 . S
H743 C755 0.950 . S
C744 H736 0.950 . S
C744 C745 1.386 . S
C744 C746 1.391 . S
C745 C744 1.386 . S
C745 C749 1.393 . S
C746 H738 0.950 . S
C746 C744 1.391 . S
C746 C747 1.400 . S
C747 C746 1.400 . S
C747 C748 1.398 . S
C747 C753 1.491 . S
C748 H739 0.950 . S
C748 C747 1.398 . S
C748 C749 1.391 . S
C749 H737 0.950 . S
C749 C745 1.393 . S
C749 C748 1.391 . S
C750 H740 0.950 . S
C750 C751 1.386 . S
C750 C752 1.391 . S
C751 C750 1.386 . S
C751 C755 1.393 . S
C752 H741 0.950 . S
C752 C750 1.391 . S
C752 C753 1.400 . S
C753 C747 1.491 . S
C753 C752 1.400 . S
C753 C754 1.398 . S
C754 H742 0.950 . S
C754 C753 1.398 . S
C754 C755 1.391 . S
C755 H743 0.950 . S
C755 C751 1.393 . S
C755 C754 1.391 . S
H756 C764 0.950 . S
H757 C769 0.950 . S
H758 C766 0.950 . S
H759 C768 0.950 . S
H760 C770 0.950 . S
H761 C772 0.950 . S
H762 C774 0.950 . S
H763 C775 0.950 . S
C764 H756 0.950 . S
C764 C765 1.386 . S
C764 C766 1.391 . S
C765 C764 1.386 . S
C765 C769 1.393 . S
C766 H758 0.950 . S
C766 C764 1.391 . S
C766 C767 1.400 . S
C767 C766 1.400 . S
C767 C768 1.398 . S
C767 C773 1.491 . S
C768 H759 0.950 . S
C768 C767 1.398 . S
C768 C769 1.391 . S
C769 H757 0.950 . S
C769 C765 1.393 . S
C769 C768 1.391 . S
C770 H760 0.950 . S
C770 C771 1.386 . S
C770 C772 1.391 . S
C771 C770 1.386 . S
C771 C775 1.393 . S
C772 H761 0.950 . S
C772 C770 1.391 . S
C772 C773 1.400 . S
C773 C767 1.491 . S
C773 C772 1.400 . S
C773 C774 1.398 . S
C774 H762 0.950 . S
C774 C773 1.398 . S
C774 C775 1.391 . S
C775 H763 0.950 . S
C775 C771 1.393 . S
C775 C774 1.391 . S
H776 C784 0.950 . S
H777 C789 0.950 . S
H778 C786 0.950 . S
H779 C788 0.950 . S
H780 C790 0.950 . S
H781 C792 0.950 . S
H782 C794 0.950 . S
H783 C795 0.950 . S
C784 H776 0.950 . S
C784 C785 1.386 . S
C784 C786 1.391 . S
C785 C784 1.386 . S
C785 C789 1.393 . S
C786 H778 0.950 . S
C786 C784 1.391 . S
C786 C787 1.400 . S
C787 C786 1.400 . S
C787 C788 1.398 . S
C787 C793 1.491 1_554 S
C788 H779 0.950 . S
C788 C787 1.398 . S
C788 C789 1.391 . S
C789 H777 0.950 . S
C789 C785 1.393 . S
C789 C788 1.391 . S
C790 H780 0.950 . S
C790 C791 1.386 . S
C790 C792 1.391 . S
C791 C790 1.386 . S
C791 C795 1.393 . S
C792 H781 0.950 . S
C792 C790 1.391 . S
C792 C793 1.400 . S
C793 C787 1.491 1_556 S
C793 C792 1.400 . S
C793 C794 1.398 . S
C794 H782 0.950 . S
C794 C793 1.398 . S
C794 C795 1.391 . S
C795 H783 0.950 . S
C795 C791 1.393 . S
C795 C794 1.391 . S
H796 C804 0.950 . S
H797 C809 0.950 . S
H798 C806 0.950 . S
H799 C808 0.950 . S
H800 C810 0.950 . S
H801 C812 0.950 . S
H802 C814 0.950 . S
H803 C815 0.950 . S
C804 H796 0.950 . S
C804 C805 1.386 . S
C804 C806 1.391 . S
C805 C804 1.386 . S
C805 C809 1.393 . S
C806 H798 0.950 . S
C806 C804 1.391 . S
C806 C807 1.400 . S
C807 C806 1.400 . S
C807 C808 1.398 . S
C807 C813 1.491 . S
C808 H799 0.950 . S
C808 C807 1.398 . S
C808 C809 1.391 . S
C809 H797 0.950 . S
C809 C805 1.393 . S
C809 C808 1.391 . S
C810 H800 0.950 . S
C810 C811 1.386 . S
C810 C812 1.391 . S
C811 C810 1.386 . S
C811 C815 1.393 . S
C812 H801 0.950 . S
C812 C810 1.391 . S
C812 C813 1.400 . S
C813 C807 1.491 . S
C813 C812 1.400 . S
C813 C814 1.398 . S
C814 H802 0.950 . S
C814 C813 1.398 . S
C814 C815 1.391 . S
C815 H803 0.950 . S
C815 C811 1.393 . S
C815 C814 1.391 . S
H816 C824 0.950 . S
H817 C829 0.950 . S
H818 C826 0.950 . S
H819 C828 0.950 . S
H820 C830 0.950 . S
H821 C832 0.950 . S
H822 C834 0.950 . S
H823 C835 0.950 . S
C824 H816 0.950 . S
C824 C825 1.386 . S
C824 C826 1.391 . S
C825 C824 1.386 . S
C825 C829 1.393 . S
C826 H818 0.950 . S
C826 C824 1.391 . S
C826 C827 1.400 . S
C827 C826 1.400 . S
C827 C828 1.398 . S
C827 C833 1.491 . S
C828 H819 0.950 . S
C828 C827 1.398 . S
C828 C829 1.391 . S
C829 H817 0.950 . S
C829 C825 1.393 . S
C829 C828 1.391 . S
C830 H820 0.950 . S
C830 C831 1.386 . S
C830 C832 1.391 . S
C831 C830 1.386 . S
C831 C835 1.393 . S
C832 H821 0.950 . S
C832 C830 1.391 . S
C832 C833 1.400 . S
C833 C827 1.491 . S
C833 C832 1.400 . S
C833 C834 1.398 . S
C834 H822 0.950 . S
C834 C833 1.398 . S
C834 C835 1.391 . S
C835 H823 0.950 . S
C835 C831 1.393 . S
C835 C834 1.391 . S
H836 C844 0.950 . S
H837 C849 0.950 . S
H838 C846 0.950 . S
H839 C848 0.950 . S
H840 C850 0.950 . S
H841 C852 0.950 . S
H842 C854 0.950 . S
H843 C855 0.950 . S
C844 H836 0.950 . S
C844 C845 1.386 . S
C844 C846 1.391 . S
C845 C844 1.386 . S
C845 C849 1.393 . S
C846 H838 0.950 . S
C846 C844 1.391 . S
C846 C847 1.400 . S
C847 C846 1.400 . S
C847 C848 1.398 . S
C847 C853 1.491 . S
C848 H839 0.950 . S
C848 C847 1.398 . S
C848 C849 1.391 . S
C849 H837 0.950 . S
C849 C845 1.393 . S
C849 C848 1.391 . S
C850 H840 0.950 . S
C850 C851 1.386 . S
C850 C852 1.391 . S
C851 C850 1.386 . S
C851 C855 1.393 . S
C852 H841 0.950 . S
C852 C850 1.391 . S
C852 C853 1.400 . S
C853 C847 1.491 . S
C853 C852 1.400 . S
C853 C854 1.398 . S
C854 H842 0.950 . S
C854 C853 1.398 . S
C854 C855 1.391 . S
C855 H843 0.950 . S
C855 C851 1.393 . S
C855 C854 1.391 . S
H856 C864 0.950 . S
H857 C869 0.950 . S
H858 C866 0.950 . S
H859 C868 0.950 . S
H860 C870 0.950 . S
H861 C872 0.950 . S
H862 C874 0.950 . S
H863 C875 0.950 . S
C864 H856 0.950 . S
C864 C865 1.386 . S
C864 C866 1.391 . S
C865 C864 1.386 . S
C865 C869 1.393 . S
C866 H858 0.950 . S
C866 C864 1.391 . S
C866 C867 1.400 . S
C867 C866 1.400 . S
C867 C868 1.398 . S
C867 C873 1.491 . S
C868 H859 0.950 . S
C868 C867 1.398 . S
C868 C869 1.391 . S
C869 H857 0.950 . S
C869 C865 1.393 . S
C869 C868 1.391 . S
C870 H860 0.950 . S
C870 C871 1.386 . S
C870 C872 1.391 . S
C871 C870 1.386 . S
C871 C875 1.393 . S
C872 H861 0.950 . S
C872 C870 1.391 . S
C872 C873 1.400 . S
C873 C867 1.491 . S
C873 C872 1.400 . S
C873 C874 1.398 . S
C874 H862 0.950 . S
C874 C873 1.398 . S
C874 C875 1.391 . S
C875 H863 0.950 . S
C875 C871 1.393 . S
C875 C874 1.391 . S
H876 C884 0.950 . S
H877 C889 0.950 . S
H878 C886 0.950 . S
H879 C888 0.950 . S
H880 C890 0.950 . S
H881 C892 0.950 . S
H882 C894 0.950 . S
H883 C895 0.950 . S
C884 H876 0.950 . S
C884 C885 1.386 . S
C884 C886 1.391 . S
C885 C884 1.386 . S
C885 C889 1.393 . S
C886 H878 0.950 . S
C886 C884 1.391 . S
C886 C887 1.400 . S
C887 C886 1.400 . S
C887 C888 1.398 . S
C887 C893 1.491 . S
C888 H879 0.950 . S
C888 C887 1.398 . S
C888 C889 1.391 . S
C889 H877 0.950 . S
C889 C885 1.393 . S
C889 C888 1.391 . S
C890 H880 0.950 . S
C890 C891 1.386 . S
C890 C892 1.391 . S
C891 C890 1.386 . S
C891 C895 1.393 . S
C892 H881 0.950 . S
C892 C890 1.391 . S
C892 C893 1.400 . S
C893 C887 1.491 . S
C893 C892 1.400 . S
C893 C894 1.398 . S
C894 H882 0.950 . S
C894 C893 1.398 . S
C894 C895 1.391 . S
C895 H883 0.950 . S
C895 C891 1.393 . S
C895 C894 1.391 . S
H896 C904 0.950 . S
H897 C909 0.950 . S
H898 C906 0.950 . S
H899 C908 0.950 . S
H900 C910 0.950 . S
H901 C912 0.950 . S
H902 C914 0.950 . S
H903 C915 0.950 . S
C904 H896 0.950 . S
C904 C905 1.386 . S
C904 C906 1.391 . S
C905 C904 1.386 . S
C905 C909 1.393 . S
C906 H898 0.950 . S
C906 C904 1.391 . S
C906 C907 1.400 . S
C907 C906 1.400 . S
C907 C908 1.398 . S
C907 C913 1.491 . S
C908 H899 0.950 . S
C908 C907 1.398 . S
C908 C909 1.391 . S
C909 H897 0.950 . S
C909 C905 1.393 . S
C909 C908 1.391 . S
C910 H900 0.950 . S
C910 C911 1.386 . S
C910 C912 1.391 . S
C911 C910 1.386 . S
C911 C915 1.393 . S
C912 H901 0.950 . S
C912 C910 1.391 . S
C912 C913 1.400 . S
C913 C907 1.491 . S
C913 C912 1.400 . S
C913 C914 1.398 . S
C914 H902 0.950 . S
C914 C913 1.398 . S
C914 C915 1.391 . S
C915 H903 0.950 . S
C915 C911 1.393 . S
C915 C914 1.391 . S
H916 C924 0.950 . S
H917 C929 0.950 . S
H918 C926 0.950 . S
H919 C928 0.950 . S
H920 C930 0.950 . S
H921 C932 0.950 . S
H922 C934 0.950 . S
H923 C935 0.950 . S
C924 H916 0.950 . S
C924 C925 1.386 . S
C924 C926 1.391 . S
C925 C924 1.386 . S
C925 C929 1.393 . S
C926 H918 0.950 . S
C926 C924 1.391 . S
C926 C927 1.400 . S
C927 C926 1.400 . S
C927 C928 1.398 . S
C927 C933 1.491 . S
C928 H919 0.950 . S
C928 C927 1.398 . S
C928 C929 1.391 . S
C929 H917 0.950 . S
C929 C925 1.393 . S
C929 C928 1.391 . S
C930 H920 0.950 . S
C930 C931 1.386 . S
C930 C932 1.391 . S
C931 C930 1.386 . S
C931 C935 1.393 . S
C932 H921 0.950 . S
C932 C930 1.391 . S
C932 C933 1.400 . S
C933 C927 1.491 . S
C933 C932 1.400 . S
C933 C934 1.398 . S
C934 H922 0.950 . S
C934 C933 1.398 . S
C934 C935 1.391 . S
C935 H923 0.950 . S
C935 C931 1.393 . S
C935 C934 1.391 . S
H936 C944 0.950 . S
H937 C949 0.950 . S
H938 C946 0.950 . S
H939 C948 0.950 . S
H940 C950 0.950 . S
H941 C952 0.950 . S
H942 C954 0.950 . S
H943 C955 0.950 . S
C944 H936 0.950 . S
C944 C945 1.386 . S
C944 C946 1.391 . S
C945 C944 1.386 . S
C945 C949 1.393 . S
C946 H938 0.950 . S
C946 C944 1.391 . S
C946 C947 1.400 . S
C947 C946 1.400 . S
C947 C948 1.398 . S
C947 C953 1.491 . S
C948 H939 0.950 . S
C948 C947 1.398 . S
C948 C949 1.391 . S
C949 H937 0.950 . S
C949 C945 1.393 . S
C949 C948 1.391 . S
C950 H940 0.950 . S
C950 C951 1.386 . S
C950 C952 1.391 . S
C951 C950 1.386 . S
C951 C955 1.393 . S
C952 H941 0.950 . S
C952 C950 1.391 . S
C952 C953 1.400 . S
C953 C947 1.491 . S
C953 C952 1.400 . S
C953 C954 1.398 . S
C954 H942 0.950 . S
C954 C953 1.398 . S
C954 C955 1.391 . S
C955 H943 0.950 . S
C955 C951 1.393 . S
C955 C954 1.391 . S
H956 C964 0.950 1_565 S
H957 C969 0.950 . S
H958 C966 0.950 1_565 S
H959 C968 0.950 . S
H960 C970 0.950 . S
H961 C972 0.950 . S
H962 C974 0.950 1_565 S
H963 C975 0.950 1_565 S
C964 H956 0.950 1_545 S
C964 C965 1.386 . S
C964 C966 1.391 . S
C965 C964 1.386 . S
C965 C969 1.393 . S
C966 H958 0.950 1_545 S
C966 C964 1.391 . S
C966 C967 1.400 . S
C967 C966 1.400 . S
C967 C968 1.398 . S
C967 C973 1.491 . S
C968 H959 0.950 . S
C968 C967 1.398 . S
C968 C969 1.391 . S
C969 H957 0.950 . S
C969 C965 1.393 . S
C969 C968 1.391 . S
C970 H960 0.950 . S
C970 C971 1.386 . S
C970 C972 1.391 . S
C971 C970 1.386 . S
C971 C975 1.393 . S
C972 H961 0.950 . S
C972 C970 1.391 . S
C972 C973 1.400 . S
C973 C967 1.491 . S
C973 C972 1.400 . S
C973 C974 1.398 . S
C974 H962 0.950 1_545 S
C974 C973 1.398 . S
C974 C975 1.391 . S
C975 H963 0.950 1_545 S
C975 C971 1.393 . S
C975 C974 1.391 . S
H976 C984 0.950 . S
H977 C989 0.950 . S
H978 C986 0.950 . S
H979 C988 0.950 . S
H980 C990 0.950 . S
H981 C992 0.950 . S
H982 C994 0.950 . S
H983 C995 0.950 . S
C984 H976 0.950 . S
C984 C985 1.386 . S
C984 C986 1.391 . S
C985 C984 1.386 . S
C985 C989 1.393 . S
C986 H978 0.950 . S
C986 C984 1.391 . S
C986 C987 1.400 . S
C987 C986 1.400 . S
C987 C988 1.398 . S
C987 C993 1.491 . S
C988 H979 0.950 . S
C988 C987 1.398 . S
C988 C989 1.391 . S
C989 H977 0.950 . S
C989 C985 1.393 . S
C989 C988 1.391 . S
C990 H980 0.950 . S
C990 C991 1.386 . S
C990 C992 1.391 . S
C991 C990 1.386 . S
C991 C995 1.393 . S
C992 H981 0.950 . S
C992 C990 1.391 . S
C992 C993 1.400 . S
C993 C987 1.491 . S
C993 C992 1.400 . S
C993 C994 1.398 . S
C994 H982 0.950 . S
C994 C993 1.398 . S
C994 C995 1.391 . S
C995 H983 0.950 . S
C995 C991 1.393 . S
C995 C994 1.391 . S
C405 C239 1.420 . S
C411 C8 1.420 . S
C425 C272 1.398 . S
C431 C41 1.409 . S
C445 C74 1.417 . S
C451 C305 1.422 . S
C465 C338 1.432 . S
C471 C107 1.420 . S
C485 C140 1.406 . S
C491 C371 1.399 . S
C505 C206 1.421 . S
C511 C173 1.433 . S
C525 N14 1.890 . S
C531 N278 1.888 . S
C545 N47 1.889 . S
C551 N311 1.889 . S
C565 N344 1.859 . S
C571 N80 1.856 . S
C585 N377 1.876 . S
C591 N113 1.879 . S
C605 N146 1.884 . S
C611 N212 1.880 . S
C625 N245 1.857 . S
C631 N179 1.853 . S
C645 N236 1.106 . S
C651 C17 1.136 . S
C665 N269 1.150 . S
C671 C50 1.180 . S
C685 N302 1.180 . S
C691 C83 1.200 . S
C705 C116 1.135 . S
C711 N335 1.116 . S
C725 N368 1.146 . S
C731 C149 1.181 . S
C745 C182 1.206 . S
C751 N203 1.169 . S
C765 C215 1.132 . S
C771 N170 1.111 . S
C785 N5 1.178 . S
C791 C248 1.205 . S
C805 N38 1.160 . S
C811 C281 1.180 . S
C825 N71 1.118 . S
C831 C314 1.128 . S
C845 N104 1.186 . S
C851 C347 1.199 . S
C865 N137 1.171 . S
C871 C380 1.175 . S
C885 C292 1.394 . S
C891 C28 1.403 . S
C905 C61 1.406 . S
C911 C325 1.397 . S
C925 C358 1.452 . S
C931 C94 1.456 . S
C945 C127 1.405 . S
C951 C391 1.394 . S
C965 C160 1.395 . S
C971 C226 1.400 . S
C985 C259 1.447 . S
C991 C193 1.451 . S
