# Generated by pormake.
# Topology uos, (4)-cn, num edge types: 1
# Building blocks:
#     Node 0, Type 0, BuildingBlock: AZAVOO_clean_sbu_0, # of connection points: 4
#     Node 1, Type 0, BuildingBlock: AZAVOO_clean_sbu_0, # of connection points: 4
#     Node 2, Type 0, BuildingBlock: AZAVOO_clean_sbu_0, # of connection points: 4
#     Node 3, Type 0, BuildingBlock: AZAVOO_clean_sbu_0, # of connection points: 4
#     Node 4, Type 0, BuildingBlock: AZAVOO_clean_sbu_0, # of connection points: 4
#     Node 5, Type 0, BuildingBlock: AZAVOO_clean_sbu_0, # of connection points: 4
#     Node 6, Type 0, BuildingBlock: AZAVOO_clean_sbu_0, # of connection points: 4
#     Node 7, Type 0, BuildingBlock: AZAVOO_clean_sbu_0, # of connection points: 4
#     Node 8, Type 0, BuildingBlock: AZAVOO_clean_sbu_0, # of connection points: 4
#     Node 9, Type 0, BuildingBlock: AZAVOO_clean_sbu_0, # of connection points: 4
#     Node 10, Type 0, BuildingBlock: AZAVOO_clean_sbu_0, # of connection points: 4
#     Node 11, Type 0, BuildingBlock: AZAVOO_clean_sbu_0, # of connection points: 4
#     Node 12, Type 0, BuildingBlock: AZAVOO_clean_sbu_0, # of connection points: 4
#     Node 13, Type 0, BuildingBlock: AZAVOO_clean_sbu_0, # of connection points: 4
#     Node 14, Type 0, BuildingBlock: AZAVOO_clean_sbu_0, # of connection points: 4
#     Node 15, Type 0, BuildingBlock: AZAVOO_clean_sbu_0, # of connection points: 4
#     Node 16, Type 0, BuildingBlock: AZAVOO_clean_sbu_0, # of connection points: 4
#     Node 17, Type 0, BuildingBlock: AZAVOO_clean_sbu_0, # of connection points: 4
#     Node 18, Type 0, BuildingBlock: AZAVOO_clean_sbu_0, # of connection points: 4
#     Node 19, Type 0, BuildingBlock: AZAVOO_clean_sbu_0, # of connection points: 4
#     Node 20, Type 0, BuildingBlock: AZAVOO_clean_sbu_0, # of connection points: 4
#     Node 21, Type 0, BuildingBlock: AZAVOO_clean_sbu_0, # of connection points: 4
#     Node 22, Type 0, BuildingBlock: AZAVOO_clean_sbu_0, # of connection points: 4
#     Node 23, Type 0, BuildingBlock: AZAVOO_clean_sbu_0, # of connection points: 4
#     Node 24, Type 0, BuildingBlock: AZAVOO_clean_sbu_0, # of connection points: 4
#     Node 25, Type 0, BuildingBlock: AZAVOO_clean_sbu_0, # of connection points: 4
#     Node 26, Type 0, BuildingBlock: AZAVOO_clean_sbu_0, # of connection points: 4
#     Node 27, Type 0, BuildingBlock: AZAVOO_clean_sbu_0, # of connection points: 4
#     Node 28, Type 0, BuildingBlock: AZAVOO_clean_sbu_0, # of connection points: 4
#     Node 29, Type 0, BuildingBlock: AZAVOO_clean_sbu_0, # of connection points: 4
#     Node 30, Type 0, BuildingBlock: AZAVOO_clean_sbu_0, # of connection points: 4
#     Node 31, Type 0, BuildingBlock: AZAVOO_clean_sbu_0, # of connection points: 4
#     Edge 32, Type (0, 0), BuildingBlock: KIFKEQ_clean_linker_1, # of connection points: 2
#     Edge 33, Type (0, 0), BuildingBlock: KIFKEQ_clean_linker_1, # of connection points: 2
#     Edge 34, Type (0, 0), BuildingBlock: KIFKEQ_clean_linker_1, # of connection points: 2
#     Edge 35, Type (0, 0), BuildingBlock: KIFKEQ_clean_linker_1, # of connection points: 2
#     Edge 36, Type (0, 0), BuildingBlock: KIFKEQ_clean_linker_1, # of connection points: 2
#     Edge 37, Type (0, 0), BuildingBlock: KIFKEQ_clean_linker_1, # of connection points: 2
#     Edge 38, Type (0, 0), BuildingBlock: KIFKEQ_clean_linker_1, # of connection points: 2
#     Edge 39, Type (0, 0), BuildingBlock: KIFKEQ_clean_linker_1, # of connection points: 2
#     Edge 40, Type (0, 0), BuildingBlock: KIFKEQ_clean_linker_1, # of connection points: 2
#     Edge 41, Type (0, 0), BuildingBlock: KIFKEQ_clean_linker_1, # of connection points: 2
#     Edge 42, Type (0, 0), BuildingBlock: KIFKEQ_clean_linker_1, # of connection points: 2
#     Edge 43, Type (0, 0), BuildingBlock: KIFKEQ_clean_linker_1, # of connection points: 2
#     Edge 44, Type (0, 0), BuildingBlock: KIFKEQ_clean_linker_1, # of connection points: 2
#     Edge 45, Type (0, 0), BuildingBlock: KIFKEQ_clean_linker_1, # of connection points: 2
#     Edge 46, Type (0, 0), BuildingBlock: KIFKEQ_clean_linker_1, # of connection points: 2
#     Edge 47, Type (0, 0), BuildingBlock: KIFKEQ_clean_linker_1, # of connection points: 2
#     Edge 48, Type (0, 0), BuildingBlock: KIFKEQ_clean_linker_1, # of connection points: 2
#     Edge 49, Type (0, 0), BuildingBlock: KIFKEQ_clean_linker_1, # of connection points: 2
#     Edge 50, Type (0, 0), BuildingBlock: KIFKEQ_clean_linker_1, # of connection points: 2
#     Edge 51, Type (0, 0), BuildingBlock: KIFKEQ_clean_linker_1, # of connection points: 2
#     Edge 52, Type (0, 0), BuildingBlock: KIFKEQ_clean_linker_1, # of connection points: 2
#     Edge 53, Type (0, 0), BuildingBlock: KIFKEQ_clean_linker_1, # of connection points: 2
#     Edge 54, Type (0, 0), BuildingBlock: KIFKEQ_clean_linker_1, # of connection points: 2
#     Edge 55, Type (0, 0), BuildingBlock: KIFKEQ_clean_linker_1, # of connection points: 2
#     Edge 56, Type (0, 0), BuildingBlock: KIFKEQ_clean_linker_1, # of connection points: 2
#     Edge 57, Type (0, 0), BuildingBlock: KIFKEQ_clean_linker_1, # of connection points: 2
#     Edge 58, Type (0, 0), BuildingBlock: KIFKEQ_clean_linker_1, # of connection points: 2
#     Edge 59, Type (0, 0), BuildingBlock: KIFKEQ_clean_linker_1, # of connection points: 2
#     Edge 60, Type (0, 0), BuildingBlock: KIFKEQ_clean_linker_1, # of connection points: 2
#     Edge 61, Type (0, 0), BuildingBlock: KIFKEQ_clean_linker_1, # of connection points: 2
#     Edge 62, Type (0, 0), BuildingBlock: KIFKEQ_clean_linker_1, # of connection points: 2
#     Edge 63, Type (0, 0), BuildingBlock: KIFKEQ_clean_linker_1, # of connection points: 2
#     Edge 64, Type (0, 0), BuildingBlock: KIFKEQ_clean_linker_1, # of connection points: 2
#     Edge 65, Type (0, 0), BuildingBlock: KIFKEQ_clean_linker_1, # of connection points: 2
#     Edge 66, Type (0, 0), BuildingBlock: KIFKEQ_clean_linker_1, # of connection points: 2
#     Edge 67, Type (0, 0), BuildingBlock: KIFKEQ_clean_linker_1, # of connection points: 2
#     Edge 68, Type (0, 0), BuildingBlock: KIFKEQ_clean_linker_1, # of connection points: 2
#     Edge 69, Type (0, 0), BuildingBlock: KIFKEQ_clean_linker_1, # of connection points: 2
#     Edge 70, Type (0, 0), BuildingBlock: KIFKEQ_clean_linker_1, # of connection points: 2
#     Edge 71, Type (0, 0), BuildingBlock: KIFKEQ_clean_linker_1, # of connection points: 2
#     Edge 72, Type (0, 0), BuildingBlock: KIFKEQ_clean_linker_1, # of connection points: 2
#     Edge 73, Type (0, 0), BuildingBlock: KIFKEQ_clean_linker_1, # of connection points: 2
#     Edge 74, Type (0, 0), BuildingBlock: KIFKEQ_clean_linker_1, # of connection points: 2
#     Edge 75, Type (0, 0), BuildingBlock: KIFKEQ_clean_linker_1, # of connection points: 2
#     Edge 76, Type (0, 0), BuildingBlock: KIFKEQ_clean_linker_1, # of connection points: 2
#     Edge 77, Type (0, 0), BuildingBlock: KIFKEQ_clean_linker_1, # of connection points: 2
#     Edge 78, Type (0, 0), BuildingBlock: KIFKEQ_clean_linker_1, # of connection points: 2
#     Edge 79, Type (0, 0), BuildingBlock: KIFKEQ_clean_linker_1, # of connection points: 2
#     Edge 80, Type (0, 0), BuildingBlock: KIFKEQ_clean_linker_1, # of connection points: 2
#     Edge 81, Type (0, 0), BuildingBlock: KIFKEQ_clean_linker_1, # of connection points: 2
#     Edge 82, Type (0, 0), BuildingBlock: KIFKEQ_clean_linker_1, # of connection points: 2
#     Edge 83, Type (0, 0), BuildingBlock: KIFKEQ_clean_linker_1, # of connection points: 2
#     Edge 84, Type (0, 0), BuildingBlock: KIFKEQ_clean_linker_1, # of connection points: 2
#     Edge 85, Type (0, 0), BuildingBlock: KIFKEQ_clean_linker_1, # of connection points: 2
#     Edge 86, Type (0, 0), BuildingBlock: KIFKEQ_clean_linker_1, # of connection points: 2
#     Edge 87, Type (0, 0), BuildingBlock: KIFKEQ_clean_linker_1, # of connection points: 2
#     Edge 88, Type (0, 0), BuildingBlock: KIFKEQ_clean_linker_1, # of connection points: 2
#     Edge 89, Type (0, 0), BuildingBlock: KIFKEQ_clean_linker_1, # of connection points: 2
#     Edge 90, Type (0, 0), BuildingBlock: KIFKEQ_clean_linker_1, # of connection points: 2
#     Edge 91, Type (0, 0), BuildingBlock: KIFKEQ_clean_linker_1, # of connection points: 2
#     Edge 92, Type (0, 0), BuildingBlock: KIFKEQ_clean_linker_1, # of connection points: 2
#     Edge 93, Type (0, 0), BuildingBlock: KIFKEQ_clean_linker_1, # of connection points: 2
#     Edge 94, Type (0, 0), BuildingBlock: KIFKEQ_clean_linker_1, # of connection points: 2
#     Edge 95, Type (0, 0), BuildingBlock: KIFKEQ_clean_linker_1, # of connection points: 2
# Relax obj value: 0.086
# Max RMSD: 0.112
# Mean RMSD: 0.112
data_MOF--net-uos--node1-AZAVOO_clean_sbu_0--edge1-KIFKEQ_clean_linker_1
_symmetry_space_group_name_H-M    P1
_symmetry_Int_Tables_number       1
_symmetry_cell_setting            triclinic
loop_
_symmetry_equiv_pos_as_xyz
'x, y, z'
_cell_length_a     86.134328
_cell_length_b     86.200266
_cell_length_c     23.870712
_cell_angle_alpha  89.990433
_cell_angle_beta   90.011335
_cell_angle_gamma 89.994512
loop_
_atom_site_label
_atom_site_type_symbol
_atom_site_fract_x
_atom_site_fract_y
_atom_site_fract_z
_atom_type_partial_charge
Mg0 Mg 0.17297 0.15784 0.13033 0.0
O1 O 0.16015 0.14942 0.20979 0.0
O2 O 0.17367 0.15755 0.28439 0.0
Mg3 Mg 0.19435 0.17166 0.25392 0.0
C4 C 0.16221 0.1503 0.26282 0.0
C5 C 0.14417 0.13979 0.07998 0.0
O6 O 0.14583 0.13144 0.12563 0.0
O7 O 0.1633 0.1822 0.14441 0.0
O8 O 0.1774 0.18961 0.21833 0.0
O9 O 0.18818 0.13665 0.13043 0.0
O10 O 0.19329 0.15834 0.17628 0.0
C11 C 0.16707 0.19229 0.18115 0.0
C12 C 0.19687 0.14419 0.16527 0.0
O13 O 0.15295 0.15143 0.07216 0.0
Mg14 Mg 0.08634 0.92576 0.37215 0.0
O15 O 0.09628 0.91165 0.4466 0.0
O16 O 0.08491 0.921 0.524 0.0
Mg17 Mg 0.06819 0.94029 0.50094 0.0
C18 C 0.09426 0.91166 0.4998 0.0
C19 C 0.10314 0.91554 0.26689 0.0
O20 O 0.10461 0.93071 0.26741 0.0
O21 O 0.06355 0.9123 0.3773 0.0
O22 O 0.05337 0.92205 0.45606 0.0
O23 O 0.10494 0.94367 0.3821 0.0
O24 O 0.0824 0.94415 0.42622 0.0
C25 C 0.05279 0.91293 0.41398 0.0
C26 C 0.09595 0.9501 0.41874 0.0
O27 O 0.09602 0.90901 0.30714 0.0
Mg28 Mg 0.32294 0.82541 0.60471 0.0
O29 O 0.33482 0.83609 0.68251 0.0
O30 O 0.32604 0.82351 0.75815 0.0
Mg31 Mg 0.3103 0.80399 0.72921 0.0
C32 C 0.3343 0.83409 0.73559 0.0
C33 C 0.34413 0.85188 0.55165 0.0
O34 O 0.34096 0.85933 0.59827 0.0
O35 O 0.33947 0.80483 0.60739 0.0
O36 O 0.33104 0.79269 0.68452 0.0
O37 O 0.30238 0.84097 0.61658 0.0
O38 O 0.30478 0.81772 0.65443 0.0
C39 C 0.34035 0.79386 0.64307 0.0
C40 C 0.29687 0.8303 0.6492 0.0
O41 O 0.33884 0.83828 0.54442 0.0
Mg42 Mg 0.40914 0.07006 0.86144 0.0
O43 O 0.39897 0.08217 0.93912 0.0
O44 O 0.40672 0.06886 0.0147 0.0
Mg45 Mg 0.4221 0.04888 0.98622 0.0
C46 C 0.39924 0.08003 0.99215 0.0
C47 C 0.40304 0.08765 0.75355 0.0
O48 O 0.40806 0.07407 0.73632 0.0
O49 O 0.4328 0.08068 0.88035 0.0
O50 O 0.43986 0.06665 0.95483 0.0
O51 O 0.38859 0.05416 0.85688 0.0
O52 O 0.40987 0.04951 0.90599 0.0
C53 C 0.44256 0.07723 0.91861 0.0
C54 C 0.39596 0.04557 0.8925 0.0
O55 O 0.40243 0.09029 0.80584 0.0
Mg56 Mg 0.16604 0.82939 0.88065 0.0
O57 O 0.15453 0.84109 0.80402 0.0
O58 O 0.16191 0.82788 0.7279 0.0
Mg59 Mg 0.17743 0.80793 0.75451 0.0
C60 C 0.15442 0.83892 0.75098 0.0
C61 C 0.14771 0.85701 0.93803 0.0
O62 O 0.1528 0.86481 0.89448 0.0
O63 O 0.14862 0.80947 0.8771 0.0
O64 O 0.15663 0.79713 0.79983 0.0
O65 O 0.18739 0.84396 0.86922 0.0
O66 O 0.18367 0.82109 0.82989 0.0
C67 C 0.14739 0.79853 0.84136 0.0
C68 C 0.19228 0.83316 0.83587 0.0
O69 O 0.15086 0.84266 0.94222 0.0
Mg70 Mg 0.40247 0.92098 0.11447 0.0
O71 O 0.39271 0.90647 0.04063 0.0
O72 O 0.40243 0.91709 0.96238 0.0
Mg73 Mg 0.41891 0.93666 0.98462 0.0
C74 C 0.3939 0.90712 0.98716 0.0
C75 C 0.38885 0.91045 0.22381 0.0
O76 O 0.38863 0.92568 0.22547 0.0
O77 O 0.4258 0.9087 0.10714 0.0
O78 O 0.43488 0.91892 0.02742 0.0
O79 O 0.38289 0.93792 0.10668 0.0
O80 O 0.40511 0.93964 0.06071 0.0
C81 C 0.43622 0.90983 0.0694 0.0
C82 C 0.3913 0.94484 0.06937 0.0
O83 O 0.39407 0.90382 0.18013 0.0
Mg84 Mg 0.32254 0.1562 0.37381 0.0
O85 O 0.33534 0.14679 0.29617 0.0
O86 O 0.32312 0.15584 0.22014 0.0
Mg87 Mg 0.30352 0.17166 0.24836 0.0
C88 C 0.33378 0.14772 0.24298 0.0
C89 C 0.34012 0.14997 0.48297 0.0
O90 O 0.32719 0.15634 0.50099 0.0
O91 O 0.33379 0.17985 0.3621 0.0
O92 O 0.32162 0.18834 0.28515 0.0
O93 O 0.30619 0.13606 0.37164 0.0
O94 O 0.30254 0.15815 0.32623 0.0
C95 C 0.33154 0.19009 0.32443 0.0
C96 C 0.29815 0.14414 0.33634 0.0
O97 O 0.34213 0.14838 0.43058 0.0
Mg98 Mg 0.08172 0.07578 0.64402 0.0
O99 O 0.09304 0.08893 0.56965 0.0
O100 O 0.08407 0.07747 0.49184 0.0
Mg101 Mg 0.06706 0.05838 0.51401 0.0
C102 C 0.09251 0.08761 0.51619 0.0
C103 C 0.0919 0.08729 0.7557 0.0
O104 O 0.08942 0.07231 0.76067 0.0
O105 O 0.05878 0.0884 0.62927 0.0
O106 O 0.05083 0.07688 0.55027 0.0
O107 O 0.10091 0.05821 0.64386 0.0
O108 O 0.07945 0.05641 0.59345 0.0
C109 C 0.04896 0.0867 0.58972 0.0
C110 C 0.09292 0.05099 0.60609 0.0
O111 O 0.08961 0.09361 0.70829 0.0
Mg112 Mg 0.82259 0.83089 0.86647 0.0
O113 O 0.83488 0.84076 0.78867 0.0
O114 O 0.82257 0.83165 0.71291 0.0
Mg115 Mg 0.80309 0.81564 0.74155 0.0
C116 C 0.83319 0.83987 0.73553 0.0
C117 C 0.84026 0.83736 0.97531 0.0
O118 O 0.82745 0.83078 0.99343 0.0
O119 O 0.83431 0.80751 0.8524 0.0
O120 O 0.82128 0.79898 0.77761 0.0
O121 O 0.80584 0.85077 0.86633 0.0
O122 O 0.80235 0.82886 0.81987 0.0
C123 C 0.83162 0.79716 0.81543 0.0
C124 C 0.79777 0.84274 0.83101 0.0
O125 O 0.84222 0.83892 0.92288 0.0
Mg126 Mg 0.90517 0.06822 0.60104 0.0
O127 O 0.89561 0.08218 0.52592 0.0
O128 O 0.9052 0.0709 0.44869 0.0
Mg129 Mg 0.92094 0.05082 0.47298 0.0
C130 C 0.89689 0.08124 0.47255 0.0
C131 C 0.8932 0.07985 0.71071 0.0
O132 O 0.89371 0.06465 0.71463 0.0
O133 O 0.92862 0.08012 0.59063 0.0
O134 O 0.93753 0.06827 0.51389 0.0
O135 O 0.88522 0.05155 0.59634 0.0
O136 O 0.9072 0.04901 0.54952 0.0
C137 C 0.93916 0.07799 0.55386 0.0
C138 C 0.89334 0.04415 0.55943 0.0
O139 O 0.89736 0.08615 0.66495 0.0
Mg140 Mg 0.67544 0.15621 0.38385 0.0
O141 O 0.66194 0.14539 0.30958 0.0
O142 O 0.67194 0.15579 0.2314 0.0
Mg143 Mg 0.69013 0.1737 0.25411 0.0
C144 C 0.66257 0.14658 0.25611 0.0
C145 C 0.66541 0.14157 0.49253 0.0
O146 O 0.68064 0.14213 0.49491 0.0
O147 O 0.66127 0.17837 0.37537 0.0
O148 O 0.67086 0.18803 0.29551 0.0
O149 O 0.69391 0.13802 0.37668 0.0
O150 O 0.69396 0.16026 0.33051 0.0
C151 C 0.66153 0.18867 0.33703 0.0
C152 C 0.70015 0.14689 0.33921 0.0
O153 O 0.65867 0.14656 0.44872 0.0
Mg154 Mg 0.58056 0.92081 0.13609 0.0
O155 O 0.59126 0.90877 0.059 0.0
O156 O 0.58346 0.92192 0.98312 0.0
Mg157 Mg 0.56754 0.94159 0.01035 0.0
C158 C 0.59114 0.91094 0.00596 0.0
C159 C 0.58794 0.90413 0.24476 0.0
O160 O 0.58339 0.91799 0.26083 0.0
O161 O 0.55704 0.9097 0.11671 0.0
O162 O 0.55009 0.92358 0.0417 0.0
O163 O 0.60082 0.93712 0.14062 0.0
O164 O 0.57955 0.94128 0.09092 0.0
C165 C 0.54737 0.91301 0.07791 0.0
C166 C 0.59339 0.94545 0.1044 0.0
O167 O 0.58768 0.90089 0.19285 0.0
Mg168 Mg 0.82291 0.16018 0.09071 0.0
O169 O 0.83596 0.15077 0.16844 0.0
O170 O 0.82463 0.16091 0.24454 0.0
Mg171 Mg 0.80576 0.17759 0.21676 0.0
C172 C 0.83473 0.15212 0.22168 0.0
C173 C 0.84772 0.13785 0.03704 0.0
O174 O 0.84478 0.12979 0.08254 0.0
O175 O 0.83558 0.1833 0.09859 0.0
O176 O 0.82446 0.19277 0.17614 0.0
O177 O 0.80551 0.14098 0.09715 0.0
O178 O 0.80357 0.16352 0.14085 0.0
C179 C 0.83416 0.1938 0.13588 0.0
C180 C 0.79835 0.14971 0.13283 0.0
O181 O 0.84109 0.15087 0.03006 0.0
Mg182 Mg 0.58703 0.06925 0.87445 0.0
O183 O 0.59617 0.08238 0.95227 0.0
O184 O 0.58598 0.07096 0.02815 0.0
Mg185 Mg 0.56945 0.05202 0.99999 0.0
C186 C 0.59472 0.08113 0.00548 0.0
C187 C 0.60951 0.09374 0.82013 0.0
O188 O 0.61778 0.09042 0.86481 0.0
O189 O 0.56381 0.08176 0.88184 0.0
O190 O 0.55423 0.0707 0.9593 0.0
O191 O 0.60641 0.05207 0.88151 0.0
O192 O 0.58378 0.04993 0.92463 0.0
C193 C 0.55324 0.08036 0.91893 0.0
C194 C 0.59768 0.04485 0.91708 0.0
O195 O 0.59628 0.08747 0.81393 0.0
Mg196 Mg 0.67011 0.83641 0.62554 0.0
O197 O 0.65794 0.84654 0.70314 0.0
O198 O 0.66998 0.83729 0.77927 0.0
Mg199 Mg 0.68925 0.82097 0.75111 0.0
C200 C 0.65951 0.84565 0.75633 0.0
C201 C 0.65263 0.84347 0.51647 0.0
O202 O 0.66554 0.83713 0.49808 0.0
O203 O 0.65793 0.81326 0.64001 0.0
O204 O 0.67079 0.80464 0.71514 0.0
O205 O 0.68747 0.85586 0.62564 0.0
O206 O 0.69019 0.83387 0.67226 0.0
C207 C 0.66043 0.80294 0.6773 0.0
C208 C 0.69526 0.84754 0.66096 0.0
O209 O 0.65061 0.84476 0.56897 0.0
Mg210 Mg 0.90854 0.9183 0.35522 0.0
O211 O 0.89841 0.90589 0.43246 0.0
O212 O 0.90616 0.91899 0.50847 0.0
Mg213 Mg 0.9215 0.9391 0.48091 0.0
C214 C 0.89868 0.90788 0.48556 0.0
C215 C 0.90163 0.90123 0.24661 0.0
O216 O 0.90592 0.91511 0.22988 0.0
O217 O 0.93235 0.90774 0.37324 0.0
O218 O 0.93933 0.92159 0.44827 0.0
O219 O 0.88796 0.93426 0.35166 0.0
O220 O 0.90929 0.93872 0.40066 0.0
C221 C 0.94211 0.91117 0.41154 0.0
C222 C 0.89539 0.94274 0.38745 0.0
O223 O 0.90179 0.89822 0.2987 0.0
Mg224 Mg 0.67122 0.66071 0.60917 0.0
O225 O 0.65754 0.64983 0.68301 0.0
O226 O 0.66788 0.65982 0.76127 0.0
Mg227 Mg 0.68656 0.67729 0.73938 0.0
C228 C 0.65827 0.65087 0.73651 0.0
C229 C 0.66084 0.64832 0.49801 0.0
O230 O 0.67597 0.65001 0.49444 0.0
O231 O 0.6577 0.68327 0.61882 0.0
O232 O 0.66777 0.69239 0.69873 0.0
O233 O 0.68916 0.64199 0.61485 0.0
O234 O 0.68999 0.66397 0.66241 0.0
C235 C 0.6584 0.69346 0.65746 0.0
C236 C 0.69578 0.65046 0.65268 0.0
O237 O 0.65418 0.6518 0.54383 0.0
Mg238 Mg 0.58858 0.42328 0.8768 0.0
O239 O 0.59747 0.41065 0.95532 0.0
O240 O 0.58969 0.42416 0.03033 0.0
Mg241 Mg 0.57557 0.44492 1.00031 0.0
C242 C 0.59683 0.41269 0.00834 0.0
C243 C 0.59225 0.40428 0.7698 0.0
O244 O 0.58656 0.41745 0.75122 0.0
O245 O 0.56434 0.41383 0.89317 0.0
O246 O 0.55717 0.42805 0.96699 0.0
O247 O 0.60996 0.43814 0.87477 0.0
O248 O 0.5885 0.44376 0.92152 0.0
C249 C 0.55437 0.41764 0.93023 0.0
C250 C 0.6027 0.44702 0.90978 0.0
O251 O 0.5944 0.40262 0.82209 0.0
Mg252 Mg 0.81566 0.33695 0.13278 0.0
O253 O 0.83014 0.34602 0.20722 0.0
O254 O 0.82036 0.33485 0.28435 0.0
Mg255 Mg 0.80005 0.31934 0.26075 0.0
C256 C 0.83011 0.34381 0.26028 0.0
C257 C 0.82619 0.35189 0.02576 0.0
O258 O 0.81095 0.35253 0.0249 0.0
O259 O 0.82815 0.31364 0.138 0.0
O260 O 0.81729 0.30364 0.21491 0.0
O261 O 0.79876 0.35649 0.14286 0.0
O262 O 0.7971 0.33397 0.18674 0.0
C263 C 0.82662 0.30267 0.17348 0.0
C264 C 0.79194 0.34785 0.17971 0.0
O265 O 0.83283 0.34587 0.06806 0.0
Mg266 Mg 0.91059 0.57107 0.37631 0.0
O267 O 0.89945 0.58211 0.45475 0.0
O268 O 0.90807 0.56904 0.52967 0.0
Mg269 Mg 0.92496 0.55042 0.50069 0.0
C270 C 0.8998 0.57972 0.50768 0.0
C271 C 0.8883 0.59494 0.32075 0.0
O272 O 0.87883 0.58841 0.3569 0.0
O273 O 0.93341 0.58343 0.39635 0.0
O274 O 0.94125 0.56962 0.47039 0.0
O275 O 0.89137 0.55349 0.37097 0.0
O276 O 0.9129 0.55052 0.42029 0.0
C277 C 0.94327 0.58053 0.43492 0.0
C278 C 0.89939 0.54547 0.4065 0.0
O279 O 0.90246 0.59082 0.32008 0.0
Mg280 Mg 0.66706 0.33125 0.39296 0.0
O281 O 0.65559 0.34212 0.31515 0.0
O282 O 0.66899 0.33412 0.24019 0.0
Mg283 Mg 0.68839 0.31806 0.26887 0.0
C284 C 0.65799 0.34194 0.26225 0.0
C285 C 0.64901 0.3367 0.50013 0.0
O286 O 0.66208 0.33048 0.51747 0.0
O287 O 0.65585 0.30798 0.37264 0.0
O288 O 0.67002 0.30073 0.29875 0.0
O289 O 0.68352 0.35131 0.39917 0.0
O290 O 0.68777 0.33006 0.3495 0.0
C291 C 0.65921 0.29823 0.33426 0.0
C292 C 0.69201 0.34382 0.36359 0.0
O293 O 0.64683 0.33832 0.44784 0.0
Mg294 Mg 0.90735 0.42037 0.64066 0.0
O295 O 0.89769 0.40676 0.5649 0.0
O296 O 0.90922 0.41608 0.48781 0.0
Mg297 Mg 0.92621 0.43491 0.51326 0.0
C298 C 0.89972 0.40686 0.51177 0.0
C299 C 0.88329 0.3983 0.69811 0.0
O300 O 0.87509 0.40241 0.65413 0.0
O301 O 0.92991 0.40658 0.63649 0.0
O302 O 0.94042 0.41621 0.55814 0.0
O303 O 0.88893 0.43834 0.63027 0.0
O304 O 0.91169 0.43891 0.58743 0.0
C305 C 0.94071 0.40701 0.60002 0.0
C306 C 0.89806 0.44479 0.59404 0.0
O307 O 0.89708 0.40332 0.70323 0.0
Mg308 Mg 0.8209 0.65529 0.89035 0.0
O309 O 0.83362 0.64406 0.81509 0.0
O310 O 0.82297 0.65413 0.7375 0.0
Mg311 Mg 0.80489 0.67207 0.76128 0.0
C312 C 0.83254 0.64501 0.76166 0.0
C313 C 0.83746 0.65161 0.00206 0.0
O314 O 0.82715 0.66255 0.01142 0.0
O315 O 0.83488 0.67754 0.8787 0.0
O316 O 0.82432 0.68677 0.79974 0.0
O317 O 0.80223 0.63716 0.88676 0.0
O318 O 0.80186 0.65919 0.83934 0.0
C319 C 0.83406 0.6877 0.83995 0.0
C320 C 0.79565 0.64593 0.8497 0.0
O321 O 0.83847 0.64592 0.95306 0.0
Mg322 Mg 0.58872 0.56991 0.12064 0.0
O323 O 0.59637 0.58314 0.0412 0.0
O324 O 0.58811 0.56966 0.96669 0.0
Mg325 Mg 0.57452 0.54868 0.99743 0.0
C326 C 0.59526 0.5812 0.98818 0.0
C327 C 0.60744 0.59782 0.17157 0.0
O328 O 0.61604 0.59528 0.12707 0.0
O329 O 0.56405 0.5791 0.10911 0.0
O330 O 0.55647 0.56516 0.03509 0.0
O331 O 0.6103 0.55534 0.11795 0.0
O332 O 0.58844 0.54974 0.07383 0.0
C333 C 0.55381 0.57529 0.07295 0.0
C334 C 0.6028 0.5466 0.08322 0.0
O335 O 0.59517 0.58988 0.17867 0.0
Mg336 Mg 0.32029 0.33513 0.38162 0.0
O337 O 0.3339 0.34516 0.30631 0.0
O338 O 0.32101 0.3376 0.2294 0.0
Mg339 Mg 0.30017 0.3229 0.25347 0.0
C340 C 0.3322 0.34481 0.25298 0.0
C341 C 0.33363 0.34234 0.49319 0.0
O342 O 0.31865 0.34009 0.49984 0.0
O343 O 0.33058 0.31119 0.36363 0.0
O344 O 0.31702 0.30469 0.28735 0.0
O345 O 0.30478 0.3561 0.38407 0.0
O346 O 0.30045 0.33514 0.33315 0.0
C347 C 0.32718 0.3016 0.32472 0.0
C348 C 0.29658 0.34905 0.3465 0.0
O349 O 0.33932 0.3409 0.44434 0.0
Mg350 Mg 0.40849 0.56603 0.14109 0.0
O351 O 0.39929 0.57938 0.06381 0.0
O352 O 0.40859 0.56755 0.98726 0.0
Mg353 Mg 0.4247 0.54812 0.01437 0.0
C354 C 0.40034 0.57803 0.01052 0.0
C355 C 0.38657 0.59051 0.19677 0.0
O356 O 0.37798 0.58673 0.15341 0.0
O357 O 0.43204 0.57785 0.13153 0.0
O358 O 0.44072 0.5664 0.0534 0.0
O359 O 0.38858 0.54941 0.13592 0.0
O360 O 0.41087 0.54656 0.09105 0.0
C361 C 0.44229 0.57608 0.09349 0.0
C362 C 0.39689 0.54189 0.09984 0.0
O363 O 0.4 0.58455 0.20181 0.0
Mg364 Mg 0.16746 0.66135 0.89197 0.0
O365 O 0.15783 0.65043 0.81174 0.0
O366 O 0.16983 0.66093 0.73787 0.0
Mg367 Mg 0.18607 0.6797 0.77112 0.0
C368 C 0.16009 0.65144 0.75897 0.0
C369 C 0.14392 0.65692 0.98723 0.0
O370 O 0.15002 0.67044 0.99996 0.0
O371 O 0.15256 0.68278 0.87699 0.0
O372 O 0.16482 0.69309 0.80331 0.0
O373 O 0.18706 0.64422 0.89169 0.0
O374 O 0.18774 0.66723 0.8509 0.0
C375 C 0.15391 0.69329 0.83966 0.0
C376 C 0.1944 0.65417 0.86088 0.0
O377 O 0.14845 0.65002 0.94315 0.0
Mg378 Mg 0.0833 0.4202 0.62975 0.0
O379 O 0.09252 0.40786 0.55062 0.0
O380 O 0.08256 0.41998 0.47576 0.0
Mg381 Mg 0.06635 0.43903 0.50605 0.0
C382 C 0.09115 0.40951 0.49755 0.0
C383 C 0.10512 0.3945 0.68081 0.0
O384 O 0.11328 0.39759 0.63568 0.0
O385 O 0.0601 0.40787 0.61912 0.0
O386 O 0.05069 0.42035 0.54442 0.0
O387 O 0.1028 0.43736 0.62643 0.0
O388 O 0.0804 0.4401 0.58226 0.0
C389 C 0.04945 0.41009 0.58281 0.0
C390 C 0.09425 0.44505 0.59157 0.0
O391 O 0.09221 0.40133 0.68824 0.0
Mg392 Mg 0.323 0.65605 0.63228 0.0
O393 O 0.33624 0.64537 0.70718 0.0
O394 O 0.32741 0.65731 0.7843 0.0
Mg395 Mg 0.31001 0.67589 0.75979 0.0
C396 C 0.33605 0.64726 0.76041 0.0
C397 C 0.33202 0.63926 0.52576 0.0
O398 O 0.31679 0.63989 0.52412 0.0
O399 O 0.33851 0.67752 0.63623 0.0
O400 O 0.32938 0.68872 0.71384 0.0
O401 O 0.3035 0.639 0.64368 0.0
O402 O 0.30492 0.66173 0.68598 0.0
C403 C 0.33867 0.68848 0.67216 0.0
C404 C 0.29789 0.64866 0.67985 0.0
O405 O 0.339 0.64485 0.56812 0.0
Mg406 Mg 0.08554 0.57211 0.37648 0.0
O407 O 0.0968 0.5842 0.45241 0.0
O408 O 0.08757 0.57276 0.52975 0.0
Mg409 Mg 0.06982 0.5546 0.50431 0.0
C410 C 0.09631 0.58269 0.5057 0.0
C411 C 0.08744 0.59293 0.27181 0.0
O412 O 0.07541 0.58421 0.25942 0.0
O413 O 0.06305 0.58531 0.39117 0.0
O414 O 0.0543 0.57401 0.46942 0.0
O415 O 0.10423 0.5541 0.37643 0.0
O416 O 0.08235 0.55242 0.4247 0.0
C417 C 0.05303 0.584 0.43016 0.0
C418 C 0.09582 0.54683 0.41291 0.0
O419 O 0.09427 0.59096 0.31844 0.0
Mg420 Mg 0.17423 0.33762 0.11813 0.0
O421 O 0.15974 0.34724 0.19221 0.0
O422 O 0.17113 0.33832 0.2703 0.0
Mg423 Mg 0.19131 0.32262 0.24801 0.0
C424 C 0.16068 0.34632 0.24571 0.0
C425 C 0.16275 0.34878 0.0071 0.0
O426 O 0.17797 0.34832 0.00356 0.0
O427 O 0.16286 0.31392 0.1284 0.0
O428 O 0.17387 0.30584 0.20815 0.0
O429 O 0.19038 0.35794 0.12323 0.0
O430 O 0.19323 0.33612 0.17086 0.0
C431 C 0.16457 0.30386 0.16711 0.0
C432 C 0.19774 0.35009 0.16104 0.0
O433 O 0.15639 0.34488 0.05303 0.0
Mg434 Mg 0.40893 0.4192 0.86741 0.0
O435 O 0.40005 0.40627 0.94624 0.0
O436 O 0.40904 0.41892 0.02152 0.0
Mg437 Mg 0.42441 0.43872 0.99249 0.0
C438 C 0.4011 0.40802 0.99939 0.0
C439 C 0.38982 0.39104 0.81606 0.0
O440 O 0.38212 0.39205 0.86337 0.0
O441 O 0.43283 0.40823 0.87885 0.0
O442 O 0.44104 0.42071 0.95559 0.0
O443 O 0.38855 0.43539 0.87041 0.0
O444 O 0.4107 0.43907 0.91543 0.0
C445 C 0.44297 0.41071 0.91675 0.0
C446 C 0.39664 0.44336 0.90585 0.0
O447 O 0.40131 0.39999 0.80757 0.0
H448 H 0.27582 0.12571 0.38167 0.0
H449 H 0.28966 0.1479 0.22759 0.0
H450 H 0.25058 0.11931 0.33988 0.0
H451 H 0.26464 0.14162 0.18599 0.0
H452 H 0.20464 0.1454 0.27508 0.0
H453 H 0.22985 0.13928 0.31565 0.0
H454 H 0.24509 0.12101 0.15638 0.0
H455 H 0.21964 0.12719 0.11575 0.0
C456 C 0.27359 0.12885 0.33847 0.0
C457 C 0.28444 0.13764 0.30819 0.0
C458 C 0.2592 0.12522 0.31464 0.0
C459 C 0.25564 0.13007 0.25987 0.0
C460 C 0.26708 0.13765 0.22815 0.0
C461 C 0.28131 0.14149 0.25225 0.0
C462 C 0.21327 0.13977 0.24914 0.0
C463 C 0.21042 0.13705 0.19218 0.0
C464 C 0.22763 0.13607 0.2725 0.0
C465 C 0.23946 0.1298 0.23899 0.0
C466 C 0.23617 0.12592 0.18299 0.0
C467 C 0.22165 0.12939 0.15984 0.0
H468 H 0.08917 0.9574 0.527 0.0
H469 H 0.11376 0.97396 0.38128 0.0
H470 H 0.0934 0.98222 0.57343 0.0
H471 H 0.11799 -0.00104 0.42787 0.0
H472 H 0.10839 0.02686 0.65356 0.0
H473 H 0.114 0.00167 0.61004 0.0
H474 H 0.0965 0.01882 0.4522 0.0
H475 H 0.09086 0.04378 0.49563 0.0
C476 C 0.09562 0.9663 0.50519 0.0
C477 C 0.10084 0.96393 0.45019 0.0
C478 C 0.09825 0.98042 0.53206 0.0
C479 C 0.10595 0.9925 0.50405 0.0
C480 C 0.11198 0.98982 0.45022 0.0
C481 C 0.10959 0.97555 0.4237 0.0
C482 C 0.10611 0.02529 0.60929 0.0
C483 C 0.09891 0.03706 0.57806 0.0
C484 C 0.10927 0.01092 0.58452 0.0
C485 C 0.1056 0.00832 0.52792 0.0
C486 C 0.09952 0.02054 0.49582 0.0
C487 C 0.0961 0.03475 0.52081 0.0
H488 H 0.20562 0.81138 0.76921 0.0
H489 H 0.21292 0.85751 0.83509 0.0
H490 H 0.23077 0.8122 0.72429 0.0
H491 H 0.23863 0.85813 0.79084 0.0
H492 H 0.2778 0.85587 0.65173 0.0
H493 H 0.25224 0.85791 0.69645 0.0
H494 H 0.25727 0.8113 0.76033 0.0
H495 H 0.28228 0.80908 0.71488 0.0
C496 C 0.21251 0.82179 0.77372 0.0
C497 C 0.20722 0.83439 0.80573 0.0
C498 C 0.22705 0.82219 0.74839 0.0
C499 C 0.23677 0.83513 0.75475 0.0
C500 C 0.23135 0.848 0.78519 0.0
C501 C 0.21669 0.84762 0.81065 0.0
C502 C 0.27345 0.84612 0.67567 0.0
C503 C 0.28206 0.8323 0.67964 0.0
C504 C 0.25887 0.84732 0.70142 0.0
C505 C 0.25269 0.83469 0.73125 0.0
C506 C 0.26159 0.82112 0.73673 0.0
C507 C 0.27604 0.81992 0.71108 0.0
H508 H 0.39611 0.03777 0.00238 0.0
H509 H 0.37962 0.0227 0.84067 0.0
H510 H 0.38903 0.01282 0.04268 0.0
H511 H 0.37247 -0.00252 0.88107 0.0
H512 H 0.39677 0.9524 0.96046 0.0
H513 H 0.39194 0.97732 0.91584 0.0
H514 H 0.36789 0.99304 0.06408 0.0
H515 H 0.37283 0.96794 0.10898 0.0
C516 C 0.39073 0.02916 0.97574 0.0
C517 C 0.38871 0.03193 0.91834 0.0
C518 C 0.38645 0.01496 0.99892 0.0
C519 C 0.38029 0.00319 0.96487 0.0
C520 C 0.37725 0.00637 0.90812 0.0
C521 C 0.3813 0.02074 0.8851 0.0
C522 C 0.39027 0.96108 0.9832 0.0
C523 C 0.38554 0.95845 0.0386 0.0
C524 C 0.38728 0.97527 0.95734 0.0
C525 C 0.37965 0.98714 0.98673 0.0
C526 C 0.37386 0.98408 0.04067 0.0
C527 C 0.37666 0.96975 0.06625 0.0
H528 H 0.77556 0.86113 0.87756 0.0
H529 H 0.78881 0.83902 0.72264 0.0
H530 H 0.75037 0.86801 0.83644 0.0
H531 H 0.76381 0.84574 0.68178 0.0
H532 H 0.70317 0.8451 0.77056 0.0
H533 H 0.72878 0.84925 0.81112 0.0
H534 H 0.74516 0.86705 0.65262 0.0
H535 H 0.71933 0.8628 0.61193 0.0
C536 C 0.7732 0.85805 0.8344 0.0
C537 C 0.7839 0.8492 0.80363 0.0
C538 C 0.75883 0.86195 0.81096 0.0
C539 C 0.75511 0.85732 0.75607 0.0
C540 C 0.76636 0.84954 0.72404 0.0
C541 C 0.78058 0.84546 0.74774 0.0
C542 C 0.71217 0.85013 0.7447 0.0
C543 C 0.70946 0.85332 0.68793 0.0
C544 C 0.72678 0.85271 0.76809 0.0
C545 C 0.73899 0.85834 0.73485 0.0
C546 C 0.73595 0.86261 0.67903 0.0
C547 C 0.72121 0.86024 0.65585 0.0
H548 H 0.89585 0.9507 0.49723 0.0
H549 H 0.87913 0.9657 0.33575 0.0
H550 H 0.88941 0.97589 0.53698 0.0
H551 H 0.87258 0.99113 0.3756 0.0
H552 H 0.89796 0.03599 0.45067 0.0
H553 H 0.89243 0.01097 0.40794 0.0
H554 H 0.86913 -0.00371 0.55913 0.0
H555 H 0.87481 0.0215 0.60214 0.0
C556 C 0.89053 0.95934 0.47055 0.0
C557 C 0.8883 0.95648 0.41331 0.0
C558 C 0.88663 0.97369 0.49343 0.0
C559 C 0.88061 0.98551 0.45923 0.0
C560 C 0.87728 0.98223 0.40276 0.0
C561 C 0.88097 0.96772 0.38005 0.0
C562 C 0.89149 0.02751 0.47448 0.0
C563 C 0.88717 0.03047 0.5301 0.0
C564 C 0.88809 0.01327 0.44971 0.0
C565 C 0.88046 0.00165 0.48042 0.0
C566 C 0.8751 0.00504 0.5347 0.0
C567 C 0.87832 0.01943 0.5592 0.0
H568 H 0.70558 0.15137 0.22822 0.0
H569 H 0.72536 0.13112 0.37733 0.0
H570 H 0.72989 0.14719 0.17833 0.0
H571 H 0.74988 0.12688 0.32721 0.0
H572 H 0.79248 0.15386 0.24355 0.0
H573 H 0.7684 0.14826 0.29303 0.0
H574 H 0.74974 0.12703 0.14363 0.0
H575 H 0.77405 0.13268 0.09392 0.0
C576 C 0.7151 0.14588 0.2501 0.0
C577 C 0.71379 0.1419 0.30686 0.0
C578 C 0.72894 0.14326 0.22132 0.0
C579 C 0.74177 0.1368 0.24907 0.0
C580 C 0.74015 0.13195 0.30501 0.0
C581 C 0.72617 0.13433 0.33355 0.0
C582 C 0.78331 0.14788 0.22146 0.0
C583 C 0.78491 0.14401 0.16471 0.0
C584 C 0.76961 0.14445 0.25 0.0
C585 C 0.7572 0.13729 0.22201 0.0
C586 C 0.75914 0.13262 0.16601 0.0
C587 C 0.773 0.13581 0.13771 0.0
H588 H 0.59248 0.03812 0.02668 0.0
H589 H 0.61585 0.02131 0.87884 0.0
H590 H 0.59736 0.01358 0.07373 0.0
H591 H 0.62094 -0.00342 0.92629 0.0
H592 H 0.59354 0.9522 0.99364 0.0
H593 H 0.60046 0.9768 0.95049 0.0
H594 H 0.61646 0.99384 0.11063 0.0
H595 H 0.60938 0.96898 0.15397 0.0
C596 C 0.59883 0.02921 0.00454 0.0
C597 C 0.60338 0.03137 0.94869 0.0
C598 C 0.60189 0.01525 0.03182 0.0
C599 C 0.60942 0.00312 0.00348 0.0
C600 C 0.61502 0.00572 0.94893 0.0
C601 C 0.61214 0.01983 0.92187 0.0
C602 C 0.59874 0.96111 0.01941 0.0
C603 C 0.60058 0.95893 0.07721 0.0
C604 C 0.60294 0.97512 0.99457 0.0
C605 C 0.60889 0.98728 0.02732 0.0
C606 C 0.61181 0.98466 0.08455 0.0
C607 C 0.60781 0.97049 0.10926 0.0
H608 H 0.71934 0.63242 0.61384 0.0
H609 H 0.70281 0.6557 0.76231 0.0
H610 H 0.74378 0.62639 0.6619 0.0
H611 H 0.72708 0.64978 0.81006 0.0
H612 H 0.78966 0.6491 0.73866 0.0
H613 H 0.76478 0.64562 0.69183 0.0
H614 H 0.74497 0.62824 0.84574 0.0
H615 H 0.77007 0.63178 0.89277 0.0
C616 C 0.72083 0.63598 0.65702 0.0
C617 C 0.70939 0.64485 0.68401 0.0
C618 C 0.73478 0.63257 0.6844 0.0
C619 C 0.73733 0.6377 0.73954 0.0
C620 C 0.72541 0.64561 0.76768 0.0
C621 C 0.7116 0.64923 0.74004 0.0
C622 C 0.78005 0.64437 0.76227 0.0
C623 C 0.78162 0.64102 0.81948 0.0
C624 C 0.76586 0.64217 0.73529 0.0
C625 C 0.75293 0.63676 0.7653 0.0
C626 C 0.75476 0.6325 0.8218 0.0
C627 C 0.76908 0.63446 0.84858 0.0
H628 H 0.60209 0.45457 0.01978 0.0
H629 H 0.62028 0.46936 0.86017 0.0
H630 H 0.60904 0.47944 0.06077 0.0
H631 H 0.62736 0.49449 0.90128 0.0
H632 H 0.60051 0.53904 0.97337 0.0
H633 H 0.60743 0.51437 0.93073 0.0
H634 H 0.6289 0.49984 0.08569 0.0
H635 H 0.62182 0.52474 0.12852 0.0
C636 C 0.60789 0.46307 0.99385 0.0
C637 C 0.61032 0.4603 0.93668 0.0
C638 C 0.6121 0.47724 0.01747 0.0
C639 C 0.61862 0.48896 0.98406 0.0
C640 C 0.62228 0.48566 0.92785 0.0
C641 C 0.61827 0.47133 0.9044 0.0
C642 C 0.60696 0.53069 0.99793 0.0
C643 C 0.61028 0.53352 0.05449 0.0
C644 C 0.61116 0.51665 0.97329 0.0
C645 C 0.61858 0.50512 0.0051 0.0
C646 C 0.62311 0.50851 0.06039 0.0
C647 C 0.61909 0.52272 0.08481 0.0
H648 H 0.69926 0.34433 0.25337 0.0
H649 H 0.7156 0.35908 0.41565 0.0
H650 H 0.72415 0.35119 0.21203 0.0
H651 H 0.74078 0.36598 0.3742 0.0
H652 H 0.78489 0.34149 0.28841 0.0
H653 H 0.76033 0.34641 0.33557 0.0
H654 H 0.74422 0.37212 0.19152 0.0
H655 H 0.76894 0.36706 0.14403 0.0
C656 C 0.70814 0.34929 0.27994 0.0
C657 C 0.70574 0.35089 0.3377 0.0
C658 C 0.72231 0.35343 0.25619 0.0
C659 C 0.73441 0.35903 0.29002 0.0
C660 C 0.73163 0.36164 0.34731 0.0
C661 C 0.71728 0.35773 0.37093 0.0
C662 C 0.77619 0.34835 0.26712 0.0
C663 C 0.77858 0.35352 0.21209 0.0
C664 C 0.76223 0.3514 0.29447 0.0
C665 C 0.75034 0.35954 0.26696 0.0
C666 C 0.75319 0.36574 0.21348 0.0
C667 C 0.7673 0.36287 0.18641 0.0
H668 H 0.87854 0.4678 0.6274 0.0
H669 H 0.90618 0.45247 0.48714 0.0
H670 H 0.87356 0.49241 0.5792 0.0
H671 H 0.9013 0.47692 0.43932 0.0
H672 H 0.89896 0.53861 0.51704 0.0
H673 H 0.8937 0.51346 0.55941 0.0
H674 H 0.88087 0.49521 0.39736 0.0
H675 H 0.88614 0.52064 0.35489 0.0
C676 C 0.88328 0.46957 0.58587 0.0
C677 C 0.89308 0.45843 0.56154 0.0
C678 C 0.88045 0.48362 0.55839 0.0
C679 C 0.88712 0.48658 0.50573 0.0
C680 C 0.89593 0.47492 0.47972 0.0
C681 C 0.89895 0.46102 0.50753 0.0
C682 C 0.89477 0.5293 0.4907 0.0
C683 C 0.8932 0.53138 0.43274 0.0
C684 C 0.89156 0.51496 0.51501 0.0
C685 C 0.88697 0.50238 0.48157 0.0
C686 C 0.88446 0.50474 0.42395 0.0
C687 C 0.88741 0.51923 0.39976 0.0
H688 H 0.29009 0.34924 0.23555 0.0
H689 H 0.27328 0.36555 0.39521 0.0
H690 H 0.26541 0.35589 0.19224 0.0
H691 H 0.24836 0.37235 0.35174 0.0
H692 H 0.20468 0.3463 0.27125 0.0
H693 H 0.22906 0.35257 0.31729 0.0
H694 H 0.24495 0.37552 0.16695 0.0
H695 H 0.22039 0.36903 0.12055 0.0
C696 C 0.28117 0.35456 0.26105 0.0
C697 C 0.28335 0.35655 0.31879 0.0
C698 C 0.26711 0.35858 0.23614 0.0
C699 C 0.2549 0.36449 0.26876 0.0
C700 C 0.25756 0.36772 0.32575 0.0
C701 C 0.27178 0.36388 0.35054 0.0
C702 C 0.21329 0.35284 0.24829 0.0
C703 C 0.21091 0.35678 0.19196 0.0
C704 C 0.22716 0.35669 0.27496 0.0
C705 C 0.23897 0.36442 0.24551 0.0
C706 C 0.23606 0.36947 0.19046 0.0
C707 C 0.22205 0.36578 0.164 0.0
H708 H 0.37892 0.5185 0.14038 0.0
H709 H 0.40059 0.5354 0.98934 0.0
H710 H 0.37279 0.494 0.09289 0.0
H711 H 0.39458 0.51112 0.9421 0.0
H712 H 0.3799 0.46722 0.86209 0.0
H713 H 0.37403 0.49196 0.90854 0.0
H714 H 0.39295 0.47401 0.06312 0.0
H715 H 0.39875 0.44953 0.01683 0.0
C716 C 0.38202 0.5171 0.09669 0.0
C717 C 0.39059 0.52858 0.0688 0.0
C718 C 0.37854 0.50313 0.06961 0.0
C719 C 0.38331 0.50065 0.01399 0.0
C720 C 0.39068 0.51273 0.98486 0.0
C721 C 0.39437 0.52654 0.01216 0.0
C722 C 0.38236 0.4685 0.90636 0.0
C723 C 0.39007 0.45671 0.93578 0.0
C724 C 0.37905 0.4826 0.93283 0.0
C725 C 0.38314 0.48491 0.98927 0.0
C726 C 0.38958 0.47254 0.01971 0.0
C727 C 0.39311 0.45861 0.99306 0.0
H728 H 0.27323 0.63049 0.64958 0.0
H729 H 0.29095 0.6584 0.78543 0.0
H730 H 0.24799 0.62891 0.69746 0.0
H731 H 0.26591 0.65714 0.83189 0.0
H732 H 0.2149 0.67509 0.82087 0.0
H733 H 0.24046 0.67034 0.78146 0.0
H734 H 0.23435 0.62107 0.80446 0.0
H735 H 0.2085 0.62582 0.84534 0.0
C736 C 0.27185 0.636 0.69006 0.0
C737 C 0.28387 0.64505 0.71288 0.0
C738 C 0.25748 0.63506 0.71737 0.0
C739 C 0.25506 0.64312 0.76773 0.0
C740 C 0.26748 0.65103 0.79263 0.0
C741 C 0.28176 0.65192 0.76559 0.0
C742 C 0.21892 0.66322 0.8175 0.0
C743 C 0.20973 0.65082 0.83626 0.0
C744 C 0.23357 0.66052 0.79517 0.0
C745 C 0.23931 0.64537 0.79038 0.0
C746 C 0.23009 0.63285 0.80793 0.0
C747 C 0.21541 0.63558 0.83138 0.0
H748 H 0.11197 0.46818 0.63531 0.0
H749 H 0.08981 0.45307 0.48269 0.0
H750 H 0.11768 0.49334 0.59176 0.0
H751 H 0.09542 0.47801 0.43935 0.0
H752 H 0.09275 0.53912 0.52265 0.0
H753 H 0.09754 0.51387 0.56499 0.0
H754 H 0.11633 0.49727 0.40834 0.0
H755 H 0.11147 0.52274 0.36581 0.0
C756 C 0.10865 0.47013 0.59211 0.0
C757 C 0.10013 0.45891 0.56267 0.0
C758 C 0.11188 0.48448 0.5673 0.0
C759 C 0.10689 0.48762 0.51236 0.0
C760 C 0.09947 0.47589 0.48163 0.0
C761 C 0.09603 0.46169 0.50671 0.0
C762 C 0.09806 0.53014 0.49748 0.0
C763 C 0.1014 0.53268 0.44073 0.0
C764 C 0.10103 0.51576 0.52193 0.0
C765 C 0.10721 0.5036 0.48979 0.0
C766 C 0.11149 0.50646 0.43389 0.0
C767 C 0.10875 0.52098 0.40967 0.0
H768 H 0.14389 0.14915 0.97058 0.0
H769 H 0.12107 0.11817 0.08658 0.0
H770 H 0.12958 0.13758 0.89332 0.0
H771 H 0.10623 0.10701 0.00961 0.0
H772 H 0.10138 0.07591 0.85616 0.0
H773 H 0.11196 0.09002 0.9351 0.0
H774 H 0.1057 0.13321 0.84571 0.0
H775 H 0.09556 0.11886 0.76522 0.0
C776 C 0.13555 0.14009 0.97977 0.0
C777 C 0.13377 0.13441 0.03461 0.0
C778 C 0.12726 0.1335 0.9354 0.0
C779 C 0.11688 0.12119 0.94498 0.0
C780 C 0.11442 0.11619 0.00044 0.0
C781 C 0.12285 0.12266 0.04467 0.0
C782 C 0.10217 0.08843 0.85328 0.0
C783 C 0.09769 0.09626 0.80427 0.0
C784 C 0.10812 0.09657 0.89893 0.0
C785 C 0.10962 0.1128 0.89713 0.0
C786 C 0.10487 0.12069 0.84837 0.0
C787 C 0.09901 0.11249 0.80231 0.0
H788 H 0.1409 0.84559 0.04191 0.0
H789 H 0.13633 0.88662 0.93921 0.0
H790 H 0.12969 0.85944 0.1209 0.0
H791 H 0.12454 0.90034 0.01769 0.0
H792 H 0.12247 0.92564 0.18445 0.0
H793 H 0.13225 0.9112 0.10455 0.0
H794 H 0.10687 0.87069 0.15948 0.0
H795 H 0.09752 0.88507 0.24088 0.0
C796 C 0.13728 0.85751 0.03593 0.0
C797 C 0.13962 0.86505 0.98436 0.0
C798 C 0.13076 0.86544 0.08123 0.0
C799 C 0.1263 0.88106 0.07594 0.0
C800 C 0.12816 0.88842 0.0237 0.0
C801 C 0.13481 0.88053 0.97853 0.0
C802 C 0.11898 0.91364 0.17959 0.0
C803 C 0.10923 0.90649 0.21905 0.0
C804 C 0.12449 0.90538 0.1334 0.0
C805 C 0.12026 0.8898 0.12515 0.0
C806 C 0.11051 0.88262 0.16478 0.0
C807 C 0.1051 0.89087 0.21138 0.0
H808 H 0.39171 0.87919 0.24262 0.0
H809 H 0.3734 0.92131 0.31512 0.0
H810 H 0.38269 0.86459 0.32402 0.0
H811 H 0.36393 0.90674 0.39513 0.0
H812 H 0.35955 0.87962 0.55485 0.0
H813 H 0.37181 0.89322 0.47696 0.0
H814 H 0.35932 0.85562 0.36591 0.0
H815 H 0.34764 0.84183 0.44399 0.0
C816 C 0.38568 0.88531 0.27576 0.0
C817 C 0.38325 0.9014 0.27241 0.0
C818 C 0.38047 0.87695 0.32235 0.0
C819 C 0.37261 0.88448 0.36633 0.0
C820 C 0.37021 0.90058 0.36273 0.0
C821 C 0.37552 0.90894 0.3165 0.0
C822 C 0.35956 0.87421 0.5139 0.0
C823 C 0.35254 0.85969 0.50558 0.0
C824 C 0.3665 0.88204 0.46913 0.0
C825 C 0.36643 0.8756 0.41493 0.0
C826 C 0.35977 0.86087 0.40709 0.0
C827 C 0.35298 0.85299 0.4519 0.0
H828 H 0.39199 0.11688 0.77445 0.0
H829 H 0.39946 0.08385 0.64096 0.0
H830 H 0.37899 0.13425 0.70873 0.0
H831 H 0.38609 0.1009 0.57595 0.0
H832 H 0.36872 0.13767 0.46028 0.0
H833 H 0.38631 0.12487 0.52559 0.0
H834 H 0.35447 0.13438 0.66126 0.0
H835 H 0.33718 0.14759 0.59643 0.0
C836 C 0.39096 0.11338 0.73103 0.0
C837 C 0.39663 0.09893 0.71301 0.0
C838 C 0.38344 0.12329 0.69344 0.0
C839 C 0.38138 0.11893 0.63714 0.0
C840 C 0.38763 0.10475 0.61879 0.0
C841 C 0.39521 0.09489 0.65624 0.0
C842 C 0.36558 0.13719 0.50419 0.0
C843 C 0.35148 0.1435 0.5231 0.0
C844 C 0.37563 0.1298 0.54158 0.0
C845 C 0.37175 0.12847 0.59861 0.0
C846 C 0.35793 0.13534 0.61779 0.0
C847 C 0.34794 0.14282 0.58049 0.0
H848 H 0.83749 0.83923 0.08898 0.0
H849 H 0.86826 0.85096 0.9524 0.0
H850 H 0.85433 0.85298 0.1539 0.0
H851 H 0.8854 0.86434 0.01779 0.0
H852 H 0.89717 0.90543 0.13459 0.0
H853 H 0.8842 0.88814 0.06938 0.0
H854 H 0.879 0.85398 0.20063 0.0
H855 H 0.89163 0.87156 0.26657 0.0
C856 C 0.848 0.84452 0.07294 0.0
C857 C 0.85144 0.84416 0.01542 0.0
C858 C 0.85773 0.85232 0.1103 0.0
C859 C 0.87118 0.85987 0.09105 0.0
C860 C 0.87499 0.85889 0.03385 0.0
C861 C 0.8652 0.85115 0.99641 0.0
C862 C 0.89342 0.89417 0.1495 0.0
C863 C 0.8953 0.88994 0.20593 0.0
C864 C 0.88606 0.88419 0.11191 0.0
C865 C 0.88048 0.86968 0.12976 0.0
C866 C 0.88294 0.86518 0.18573 0.0
C867 C 0.89025 0.87521 0.22344 0.0
H868 H 0.86628 0.11221 0.04169 0.0
H869 H 0.85001 0.14782 0.92865 0.0
H870 H 0.87915 0.09918 0.96398 0.0
H871 H 0.86233 0.1345 0.85058 0.0
H872 H 0.89437 0.11148 0.72395 0.0
H873 H 0.88567 0.12654 0.80485 0.0
H874 H 0.87091 0.08424 0.88627 0.0
H875 H 0.88004 0.06929 0.80686 0.0
C876 C 0.86552 0.1173 1.00029 0.0
C877 C 0.857 0.13095 0.99125 0.0
C878 C 0.8728 0.10978 0.95561 0.0
C879 C 0.87158 0.11564 0.90075 0.0
C880 C 0.86364 0.1297 0.89223 0.0
C881 C 0.85649 0.13731 0.93703 0.0
C882 C 0.88931 0.10544 0.7593 0.0
C883 C 0.8879 0.0892 0.759 0.0
C884 C 0.88428 0.11406 0.80559 0.0
C885 C 0.87765 0.10661 0.85233 0.0
C886 C 0.87627 0.09036 0.85172 0.0
C887 C 0.88139 0.08178 0.80582 0.0
H888 H 0.63588 0.11132 0.82309 0.0
H889 H 0.59863 0.09711 0.71322 0.0
H890 H 0.64855 0.12438 0.74501 0.0
H891 H 0.61157 0.10964 0.63472 0.0
H892 H 0.63395 0.14284 0.51005 0.0
H893 H 0.61958 0.13328 0.59128 0.0
H894 H 0.66245 0.11665 0.66395 0.0
H895 H 0.67674 0.12663 0.58417 0.0
C896 C 0.63036 0.11104 0.78231 0.0
C897 C 0.61633 0.10307 0.77427 0.0
C898 C 0.63768 0.11843 0.73741 0.0
C899 C 0.63121 0.11788 0.68329 0.0
C900 C 0.61684 0.11043 0.67581 0.0
C901 C 0.60944 0.10317 0.72085 0.0
C902 C 0.64026 0.13716 0.54349 0.0
C903 C 0.65648 0.13551 0.54071 0.0
C904 C 0.63204 0.13164 0.58998 0.0
C905 C 0.63985 0.12427 0.63444 0.0
C906 C 0.65606 0.12257 0.63123 0.0
C907 C 0.66426 0.12818 0.58512 0.0
H908 H 0.62426 0.85622 0.5399 0.0
H909 H 0.65525 0.84562 0.40281 0.0
H910 H 0.60646 0.86881 0.47471 0.0
H911 H 0.63774 0.85857 0.33805 0.0
H912 H 0.59924 0.87487 0.22585 0.0
H913 H 0.61291 0.85817 0.29213 0.0
H914 H 0.60634 0.89247 0.42204 0.0
H915 H 0.59235 0.90887 0.35652 0.0
C916 C 0.62724 0.85652 0.49584 0.0
C917 C 0.64123 0.85003 0.47661 0.0
C918 C 0.61708 0.86379 0.4585 0.0
C919 C 0.62071 0.86481 0.40116 0.0
C920 C 0.63446 0.85784 0.38176 0.0
C921 C 0.64458 0.85051 0.41902 0.0
C922 C 0.60054 0.87873 0.26877 0.0
C923 C 0.59482 0.89325 0.28579 0.0
C924 C 0.60845 0.8692 0.30668 0.0
C925 C 0.61083 0.87402 0.36234 0.0
C926 C 0.60457 0.88828 0.37975 0.0
C927 C 0.59662 0.89776 0.34198 0.0
H928 H 0.6725 0.63641 0.40137 0.0
H929 H 0.6292 0.64693 0.48444 0.0
H930 H 0.65838 0.62622 0.32165 0.0
H931 H 0.61493 0.63717 0.40324 0.0
H932 H 0.59695 0.59966 0.27945 0.0
H933 H 0.60898 0.61333 0.35732 0.0
H934 H 0.64277 0.63306 0.24395 0.0
H935 H 0.63109 0.61886 0.16645 0.0
C936 C 0.65993 0.6367 0.40237 0.0
C937 C 0.65198 0.64244 0.44935 0.0
C938 C 0.65181 0.63098 0.35628 0.0
C939 C 0.63548 0.63096 0.35563 0.0
C940 C 0.62749 0.63685 0.40249 0.0
C941 C 0.63566 0.64249 0.44897 0.0
C942 C 0.60682 0.60708 0.271 0.0
C943 C 0.6132 0.60801 0.21689 0.0
C944 C 0.61369 0.61499 0.3157 0.0
C945 C 0.627 0.62414 0.30719 0.0
C946 C 0.63278 0.6258 0.25234 0.0
C947 C 0.62601 0.61775 0.20778 0.0
H948 H 0.60206 0.37483 0.79373 0.0
H949 H 0.59423 0.40645 0.6561 0.0
H950 H 0.613 0.35591 0.72887 0.0
H951 H 0.60565 0.38786 0.59175 0.0
H952 H 0.62048 0.34949 0.47928 0.0
H953 H 0.60397 0.36349 0.5451 0.0
H954 H 0.63664 0.35381 0.67812 0.0
H955 H 0.65277 0.33941 0.61303 0.0
C956 C 0.60259 0.3777 0.74959 0.0
C957 C 0.59744 0.39219 0.7301 0.0
C958 C 0.60892 0.36689 0.71245 0.0
C959 C 0.61035 0.3704 0.65512 0.0
C960 C 0.60457 0.38465 0.63544 0.0
C961 C 0.59812 0.39539 0.67247 0.0
C962 C 0.62399 0.35016 0.5228 0.0
C963 C 0.63802 0.3435 0.54083 0.0
C964 C 0.61457 0.35825 0.56046 0.0
C965 C 0.61905 0.35994 0.61681 0.0
C966 C 0.63271 0.35261 0.63525 0.0
C967 C 0.64205 0.34443 0.59774 0.0
H968 H 0.85553 0.38304 0.69642 0.0
H969 H 0.89455 0.39348 0.80378 0.0
H970 H 0.84243 0.37042 0.77449 0.0
H971 H 0.88123 0.38137 0.88238 0.0
H972 H 0.85733 0.34847 0.00485 0.0
H973 H 0.87179 0.35788 0.92357 0.0
H974 H 0.82981 0.37852 0.85795 0.0
H975 H 0.81538 0.36873 0.93772 0.0
C976 C 0.86133 0.3826 0.73666 0.0
C977 C 0.87601 0.38937 0.74401 0.0
C978 C 0.85378 0.37546 0.78155 0.0
C979 C 0.86067 0.37506 0.835 0.0
C980 C 0.87562 0.38134 0.84177 0.0
C981 C 0.88323 0.38835 0.79671 0.0
C982 C 0.85123 0.35501 0.97295 0.0
C983 C 0.83522 0.35783 0.97765 0.0
C984 C 0.85951 0.36044 0.92646 0.0
C985 C 0.85196 0.36887 0.88394 0.0
C986 C 0.83596 0.37176 0.88913 0.0
C987 C 0.82769 0.36626 0.93523 0.0
H988 H 0.90347 0.60642 0.22883 0.0
H989 H 0.85917 0.60725 0.31379 0.0
H990 H 0.89247 0.62173 0.15242 0.0
H991 H 0.8482 0.62242 0.23732 0.0
H992 H 0.83614 0.65989 0.11228 0.0
H993 H 0.84967 0.64799 0.19094 0.0
H994 H 0.87306 0.61681 0.07725 0.0
H995 H 0.85962 0.6288 0.99825 0.0
C996 C 0.89144 0.61 0.23153 0.0
C997 C 0.88216 0.60555 0.27728 0.0
C998 C 0.88512 0.61869 0.18758 0.0
C999 C 0.86945 0.62321 0.18872 0.0
C1000 C 0.86035 0.61923 0.23543 0.0
C1001 C 0.86662 0.61047 0.27915 0.0
C1002 C 0.84428 0.65059 0.10389 0.0
C1003 C 0.84671 0.64521 0.04898 0.0
C1004 C 0.85197 0.64374 0.14906 0.0
C1005 C 0.86235 0.6314 0.14035 0.0
C1006 C 0.86522 0.62638 0.08526 0.0
C1007 C 0.85746 0.6332 0.04004 0.0
H1008 H 0.32359 0.34984 0.59758 0.0
H1009 H 0.36531 0.34598 0.4981 0.0
H1010 H 0.33866 0.35944 0.67579 0.0
H1011 H 0.38065 0.35511 0.57778 0.0
H1012 H 0.39764 0.39215 0.70519 0.0
H1013 H 0.38528 0.37846 0.62811 0.0
H1014 H 0.35676 0.35328 0.74623 0.0
H1015 H 0.36868 0.36753 0.82317 0.0
C1016 C 0.33605 0.35082 0.59265 0.0
C1017 C 0.34324 0.34722 0.54145 0.0
C1018 C 0.34475 0.35621 0.63786 0.0
C1019 C 0.36093 0.35801 0.63341 0.0
C1020 C 0.3682 0.35405 0.58252 0.0
C1021 C 0.35943 0.34875 0.53693 0.0
C1022 C 0.38887 0.38355 0.71477 0.0
C1023 C 0.38397 0.38108 0.77024 0.0
C1024 C 0.38183 0.37561 0.67049 0.0
C1025 C 0.36986 0.36488 0.68073 0.0
C1026 C 0.36566 0.36174 0.73661 0.0
C1027 C 0.37255 0.36984 0.78081 0.0
H1028 H 0.36334 0.64071 0.50565 0.0
H1029 H 0.32035 0.62318 0.43721 0.0
H1030 H 0.37732 0.63077 0.42417 0.0
H1031 H 0.33429 0.61283 0.35713 0.0
H1032 H 0.35981 0.60747 0.19553 0.0
H1033 H 0.34739 0.6205 0.27416 0.0
H1034 H 0.38553 0.60709 0.38151 0.0
H1035 H 0.3982 0.59457 0.30238 0.0
C1036 C 0.3569 0.63463 0.47346 0.0
C1037 C 0.34074 0.63275 0.47783 0.0
C1038 C 0.36491 0.6289 0.42681 0.0
C1039 C 0.35693 0.62109 0.38377 0.0
C1040 C 0.34078 0.61909 0.3887 0.0
C1041 C 0.33279 0.62491 0.43498 0.0
C1042 C 0.36563 0.60747 0.23576 0.0
C1043 C 0.37992 0.59988 0.2428 0.0
C1044 C 0.35846 0.61484 0.281 0.0
C1045 C 0.36533 0.61465 0.33449 0.0
C1046 C 0.37994 0.60759 0.34092 0.0
C1047 C 0.38719 0.60035 0.29552 0.0
H1048 H 0.12943 0.62896 0.97379 0.0
H1049 H 0.13406 0.66731 0.08931 0.0
H1050 H 0.11392 0.61497 0.04252 0.0
H1051 H 0.11835 0.65335 0.15776 0.0
H1052 H 0.1114 0.61329 0.28586 0.0
H1053 H 0.12303 0.63014 0.21563 0.0
H1054 H 0.0891 0.61489 0.09426 0.0
H1055 H 0.07753 0.59783 0.16441 0.0
C1056 C 0.12696 0.6345 0.01353 0.0
C1057 C 0.13311 0.64917 0.02633 0.0
C1058 C 0.11798 0.62651 0.05278 0.0
C1059 C 0.115 0.63302 0.10566 0.0
C1060 C 0.12064 0.64796 0.11762 0.0
C1061 C 0.12957 0.65597 0.0783 0.0
C1062 C 0.10632 0.61362 0.24436 0.0
C1063 C 0.09363 0.60412 0.23057 0.0
C1064 C 0.11292 0.62336 0.20422 0.0
C1065 C 0.107 0.6238 0.14939 0.0
C1066 C 0.09401 0.61466 0.13603 0.0
C1067 C 0.08736 0.60494 0.17628 0.0
H1068 H 0.09503 0.3919 0.78891 0.0
H1069 H 0.13056 0.37565 0.67548 0.0
H1070 H 0.10824 0.3793 0.86661 0.0
H1071 H 0.14348 0.36248 0.75286 0.0
H1072 H 0.17342 0.36153 0.91036 0.0
H1073 H 0.15851 0.37051 0.83058 0.0
H1074 H 0.11611 0.35601 0.91218 0.0
H1075 H 0.13113 0.34748 0.99343 0.0
C1076 C 0.10549 0.38535 0.78034 0.0
C1077 C 0.11187 0.38494 0.72615 0.0
C1078 C 0.11304 0.37804 0.82494 0.0
C1079 C 0.12706 0.37003 0.81625 0.0
C1080 C 0.13292 0.36888 0.76136 0.0
C1081 C 0.12546 0.37633 0.71688 0.0
C1082 C 0.16092 0.3602 0.91133 0.0
C1083 C 0.15345 0.35384 0.95835 0.0
C1084 C 0.15235 0.36522 0.86522 0.0
C1085 C 0.13608 0.3639 0.8646 0.0
C1086 C 0.1286 0.35736 0.91145 0.0
C1087 C 0.1372 0.35243 0.95795 0.0
H1088 H 0.14905 0.28862 0.24879 0.0
H1089 H 0.16341 0.2849 0.07629 0.0
H1090 H 0.14278 0.26105 0.25015 0.0
H1091 H 0.15817 0.25709 0.07828 0.0
H1092 H 0.16784 0.21402 0.26323 0.0
H1093 H 0.16109 0.24106 0.2562 0.0
H1094 H 0.14353 0.23359 0.08859 0.0
H1095 H 0.15088 0.2062 0.09518 0.0
C1096 C 0.15049 0.28191 0.21076 0.0
C1097 C 0.15687 0.28872 0.16269 0.0
C1098 C 0.14704 0.26611 0.21156 0.0
C1099 C 0.15046 0.25672 0.16494 0.0
C1100 C 0.15536 0.26391 0.11498 0.0
C1101 C 0.15843 0.27985 0.11377 0.0
C1102 C 0.16232 0.21802 0.22506 0.0
C1103 C 0.16018 0.208 0.17937 0.0
C1104 C 0.15823 0.23359 0.22124 0.0
C1105 C 0.15178 0.23961 0.17166 0.0
C1106 C 0.14865 0.22937 0.12713 0.0
C1107 C 0.15278 0.21367 0.131 0.0
H1108 H 0.96256 0.9103 0.49782 0.0
H1109 H 0.95708 0.89609 0.3254 0.0
H1110 H 0.9898 0.90408 0.49382 0.0
H1111 H 0.98465 0.88925 0.32169 0.0
H1112 H 0.03497 0.91175 0.32026 0.0
H1113 H 0.00754 0.90483 0.31737 0.0
H1114 H 0.01078 0.88709 0.4865 0.0
H1115 H 0.03792 0.89506 0.49018 0.0
C1116 C 0.96712 0.90544 0.45933 0.0
C1117 C 0.95772 0.90402 0.41158 0.0
C1118 C 0.9828 0.90165 0.45717 0.0
C1119 C 0.98956 0.89625 0.40719 0.0
C1120 C 0.97988 0.8936 0.3606 0.0
C1121 C 0.96407 0.89742 0.36282 0.0
C1122 C 0.02989 0.90588 0.35597 0.0
C1123 C 0.03836 0.90416 0.40575 0.0
C1124 C 0.01416 0.90184 0.35438 0.0
C1125 C 0.00679 0.8958 0.40236 0.0
C1126 C 0.01594 0.8922 0.44947 0.0
C1127 C 0.03151 0.89662 0.45152 0.0
H1128 H 0.34002 0.77515 0.55263 0.0
H1129 H 0.36285 0.78239 0.71108 0.0
H1130 H 0.34821 0.74824 0.55279 0.0
H1131 H 0.37236 0.75574 0.70949 0.0
H1132 H 0.3477 0.70934 0.7504 0.0
H1133 H 0.35685 0.73526 0.73388 0.0
H1134 H 0.36194 0.725 0.55729 0.0
H1135 H 0.35194 0.69887 0.57418 0.0
C1136 C 0.34762 0.77116 0.58585 0.0
C1137 C 0.35058 0.78061 0.63236 0.0
C1138 C 0.35241 0.75568 0.58601 0.0
C1139 C 0.36045 0.74953 0.63244 0.0
C1140 C 0.3656 0.75986 0.67426 0.0
C1141 C 0.36034 0.77518 0.67499 0.0
C1142 C 0.3511 0.71247 0.70817 0.0
C1143 C 0.34857 0.70226 0.66333 0.0
C1144 C 0.35661 0.72739 0.69858 0.0
C1145 C 0.35983 0.73252 0.64378 0.0
C1146 C 0.35916 0.72162 0.59981 0.0
C1147 C 0.35354 0.7066 0.60949 0.0
H1148 H 0.46337 0.07711 0.00392 0.0
H1149 H 0.45675 0.09421 0.83541 0.0
H1150 H 0.49028 0.08466 0.00068 0.0
H1151 H 0.48396 0.10237 0.83265 0.0
H1152 H 0.53535 0.0824 0.82562 0.0
H1153 H 0.50763 0.08803 0.82442 0.0
H1154 H 0.51023 0.10304 0.99707 0.0
H1155 H 0.53773 0.09636 0.99883 0.0
C1156 C 0.46759 0.08284 0.96651 0.0
C1157 C 0.45799 0.08475 0.91949 0.0
C1158 C 0.48307 0.0874 0.96486 0.0
C1159 C 0.48941 0.09408 0.91619 0.0
C1160 C 0.47951 0.09707 0.87051 0.0
C1161 C 0.46391 0.09247 0.87219 0.0
C1162 C 0.53006 0.08743 0.86256 0.0
C1163 C 0.53848 0.0887 0.9126 0.0
C1164 C 0.51415 0.09072 0.86195 0.0
C1165 C 0.50657 0.09555 0.91124 0.0
C1166 C 0.51559 0.09883 0.95895 0.0
C1167 C 0.53135 0.09515 0.95994 0.0
H1168 H 0.14534 0.78181 0.93687 0.0
H1169 H 0.12696 0.78522 0.76939 0.0
H1170 H 0.13827 0.75458 0.94012 0.0
H1171 H 0.11873 0.75818 0.77369 0.0
H1172 H 0.14797 0.71309 0.75418 0.0
H1173 H 0.13717 0.73877 0.76091 0.0
H1174 H 0.12525 0.73046 0.93445 0.0
H1175 H 0.1367 0.70455 0.92775 0.0
C1176 C 0.13888 0.77694 0.90211 0.0
C1177 C 0.137 0.78539 0.85241 0.0
C1178 C 0.13477 0.76126 0.90387 0.0
C1179 C 0.12851 0.75396 0.85611 0.0
C1180 C 0.12411 0.76328 0.81032 0.0
C1181 C 0.12865 0.77881 0.80797 0.0
C1182 C 0.14273 0.71658 0.79348 0.0
C1183 C 0.14362 0.707 0.84086 0.0
C1184 C 0.13627 0.73133 0.79728 0.0
C1185 C 0.13052 0.73692 0.84867 0.0
C1186 C 0.12986 0.72666 0.89455 0.0
C1187 C 0.13635 0.71179 0.89066 0.0
H1188 H 0.45381 0.90855 0.16372 0.0
H1189 H 0.45252 0.89396 0.99102 0.0
H1190 H 0.48155 0.90309 0.16729 0.0
H1191 H 0.48003 0.88739 0.99525 0.0
H1192 H 0.5273 0.91234 0.99051 0.0
H1193 H 0.5003 0.90515 0.99198 0.0
H1194 H 0.50517 0.88886 0.16252 0.0
H1195 H 0.53248 0.89674 0.16151 0.0
C1196 C 0.45936 0.90346 0.12736 0.0
C1197 C 0.45121 0.90193 0.0768 0.0
C1198 C 0.47527 0.90026 0.12935 0.0
C1199 C 0.48318 0.89522 0.08099 0.0
C1200 C 0.47445 0.89178 0.03269 0.0
C1201 C 0.45867 0.8954 0.03028 0.0
C1202 C 0.52274 0.90699 0.02814 0.0
C1203 C 0.53196 0.90543 0.07629 0.0
C1204 C 0.50719 0.90263 0.0288 0.0
C1205 C 0.5004 0.89649 0.07759 0.0
C1206 C 0.50995 0.89378 0.12452 0.0
C1207 C 0.52562 0.89819 0.12385 0.0
H1208 H 0.33383 0.20815 0.41712 0.0
H1209 H 0.34569 0.20633 0.24178 0.0
H1210 H 0.33868 0.236 0.41788 0.0
H1211 H 0.35171 0.23396 0.243 0.0
H1212 H 0.34428 0.28707 0.40714 0.0
H1213 H 0.3523 0.25982 0.40886 0.0
H1214 H 0.33354 0.25384 0.24212 0.0
H1215 H 0.32623 0.28075 0.23973 0.0
C1216 C 0.3382 0.21363 0.37944 0.0
C1217 C 0.33913 0.20528 0.32914 0.0
C1218 C 0.34105 0.2296 0.37981 0.0
C1219 C 0.34515 0.23736 0.33001 0.0
C1220 C 0.34802 0.22848 0.2816 0.0
C1221 C 0.34473 0.21264 0.28089 0.0
C1222 C 0.34225 0.27996 0.37045 0.0
C1223 C 0.33436 0.286 0.32372 0.0
C1224 C 0.34677 0.26434 0.37152 0.0
C1225 C 0.34349 0.25452 0.32585 0.0
C1226 C 0.33653 0.26096 0.27788 0.0
C1227 C 0.3321 0.27646 0.27676 0.0
H1228 H 0.9504 0.09487 0.6431 0.0
H1229 H 0.96213 0.07946 0.47609 0.0
H1230 H 0.9769 0.10449 0.65542 0.0
H1231 H 0.98837 0.08844 0.4888 0.0
H1232 H 0.03477 0.1027 0.50661 0.0
H1233 H 0.007 0.10789 0.50009 0.0
H1234 H 0.00113 0.09172 0.67032 0.0
H1235 H 0.02904 0.08761 0.67754 0.0
C1236 C 0.95853 0.09377 0.60872 0.0
C1237 C 0.95423 0.08613 0.559 0.0
C1238 C 0.97373 0.09922 0.61586 0.0
C1239 C 0.98487 0.09717 0.57336 0.0
C1240 C 0.98016 0.0905 0.52233 0.0
C1241 C 0.96507 0.0851 0.51523 0.0
C1242 C 0.02757 0.10097 0.54333 0.0
C1243 C 0.03389 0.09462 0.59232 0.0
C1244 C 0.01166 0.10377 0.53953 0.0
C1245 C 0.00172 0.09967 0.58394 0.0
C1246 C 0.00837 0.09501 0.63519 0.0
C1247 C 0.02439 0.09262 0.63944 0.0
H1248 H 0.83607 0.7069 0.92955 0.0
H1249 H 0.85147 0.70118 0.75899 0.0
H1250 H 0.84234 0.73441 0.92514 0.0
H1251 H 0.85884 0.72847 0.75534 0.0
H1252 H 0.83303 0.77516 0.7343 0.0
H1253 H 0.84089 0.74849 0.74436 0.0
H1254 H 0.85665 0.75779 0.91313 0.0
H1255 H 0.84816 0.78474 0.90339 0.0
C1256 C 0.8416 0.71141 0.89215 0.0
C1257 C 0.84305 0.70211 0.84427 0.0
C1258 C 0.84525 0.7272 0.88953 0.0
C1259 C 0.85064 0.73381 0.83916 0.0
C1260 C 0.85419 0.72389 0.7941 0.0
C1261 C 0.85013 0.70823 0.79625 0.0
C1262 C 0.83843 0.77164 0.77329 0.0
C1263 C 0.83961 0.78199 0.81848 0.0
C1264 C 0.84317 0.7563 0.77892 0.0
C1265 C 0.84932 0.75084 0.82987 0.0
C1266 C 0.85174 0.76153 0.87362 0.0
C1267 C 0.84695 0.77699 0.86794 0.0
H1268 H 0.65852 0.20671 0.4295 0.0
H1269 H 0.64409 0.20264 0.25718 0.0
H1270 H 0.6508 0.23387 0.42978 0.0
H1271 H 0.63527 0.22952 0.25812 0.0
H1272 H 0.65866 0.27777 0.248 0.0
H1273 H 0.65194 0.25069 0.25192 0.0
H1274 H 0.63523 0.25651 0.42155 0.0
H1275 H 0.64262 0.28389 0.41805 0.0
C1276 C 0.65295 0.21147 0.39258 0.0
C1277 C 0.65217 0.20281 0.34298 0.0
C1278 C 0.64844 0.22705 0.39267 0.0
C1279 C 0.64284 0.23407 0.34332 0.0
C1280 C 0.64005 0.22465 0.29623 0.0
C1281 C 0.64497 0.20923 0.2957 0.0
C1282 C 0.65327 0.2734 0.28585 0.0
C1283 C 0.65155 0.28289 0.33319 0.0
C1284 C 0.64918 0.2578 0.28793 0.0
C1285 C 0.64319 0.25126 0.33741 0.0
C1286 C 0.64009 0.2611 0.38314 0.0
C1287 C 0.64423 0.27681 0.38103 0.0
H1288 H 0.83104 0.27999 0.25056 0.0
H1289 H 0.84121 0.29183 0.07854 0.0
H1290 H 0.84004 0.25392 0.23468 0.0
H1291 H 0.85087 0.26548 0.0627 0.0
H1292 H 0.83286 0.21351 0.04783 0.0
H1293 H 0.83768 0.24131 0.05289 0.0
H1294 H 0.85891 0.23523 0.21568 0.0
H1295 H 0.85298 0.20759 0.21175 0.0
C1296 C 0.83556 0.27711 0.20951 0.0
C1297 C 0.83505 0.28788 0.16547 0.0
C1298 C 0.84098 0.26212 0.20049 0.0
C1299 C 0.84613 0.25746 0.14716 0.0
C1300 C 0.84678 0.26861 0.10408 0.0
C1301 C 0.84131 0.28372 0.1132 0.0
C1302 C 0.83912 0.21809 0.08357 0.0
C1303 C 0.84238 0.20859 0.12975 0.0
C1304 C 0.84194 0.23405 0.08656 0.0
C1305 C 0.84825 0.24062 0.13557 0.0
C1306 C 0.85354 0.23063 0.17817 0.0
C1307 C 0.85032 0.21479 0.17579 0.0
H1308 H 0.65711 0.71254 0.5673 0.0
H1309 H 0.64056 0.70719 0.73662 0.0
H1310 H 0.6506 0.74001 0.57006 0.0
H1311 H 0.63293 0.73442 0.73851 0.0
H1312 H 0.64444 0.79026 0.58859 0.0
H1313 H 0.63605 0.76326 0.5795 0.0
H1314 H 0.65039 0.75472 0.75046 0.0
H1315 H 0.65811 0.78144 0.75981 0.0
C1316 C 0.65131 0.71712 0.60405 0.0
C1317 C 0.64958 0.70795 0.65212 0.0
C1318 C 0.64751 0.73289 0.6057 0.0
C1319 C 0.64168 0.73959 0.65526 0.0
C1320 C 0.63792 0.72978 0.7004 0.0
C1321 C 0.64214 0.71416 0.69927 0.0
C1322 C 0.64533 0.78267 0.62463 0.0
C1323 C 0.65227 0.78787 0.67453 0.0
C1324 C 0.64061 0.76718 0.61933 0.0
C1325 C 0.64272 0.75667 0.66388 0.0
C1326 C 0.64838 0.76237 0.71522 0.0
C1327 C 0.65304 0.77774 0.72048 0.0
H1328 H 0.53218 0.41972 0.0107 0.0
H1329 H 0.54112 0.39956 0.84804 0.0
H1330 H 0.50541 0.41172 0.00489 0.0
H1331 H 0.51405 0.39104 0.84281 0.0
H1332 H 0.4618 0.40856 0.82579 0.0
H1333 H 0.48983 0.40458 0.82869 0.0
H1334 H 0.48654 0.3919 0.00358 0.0
H1335 H 0.45868 0.39684 0.00104 0.0
C1336 C 0.5285 0.41328 0.97405 0.0
C1337 C 0.53874 0.41053 0.92942 0.0
C1338 C 0.51311 0.40848 0.97099 0.0
C1339 C 0.50751 0.4007 0.92331 0.0
C1340 C 0.51796 0.39713 0.8799 0.0
C1341 C 0.53347 0.40196 0.883 0.0
C1342 C 0.46705 0.40437 0.86417 0.0
C1343 C 0.45825 0.40324 0.91343 0.0
C1344 C 0.48312 0.40205 0.86593 0.0
C1345 C 0.4905 0.39835 0.91686 0.0
C1346 C 0.48128 0.39522 0.96415 0.0
C1347 C 0.46533 0.39791 0.96269 0.0
H1348 H 0.96371 0.58151 0.52123 0.0
H1349 H 0.95678 0.5985 0.35279 0.0
H1350 H 0.9904 0.5896 0.51826 0.0
H1351 H 0.98373 0.6074 0.35043 0.0
H1352 H 0.03474 0.58762 0.3387 0.0
H1353 H 0.00721 0.59383 0.33998 0.0
H1354 H 0.01088 0.60675 0.51467 0.0
H1355 H 0.03817 0.59927 0.5139 0.0
C1356 C 0.9678 0.58739 0.48394 0.0
C1357 C 0.95823 0.58895 0.43667 0.0
C1358 C 0.98318 0.59229 0.48243 0.0
C1359 C 0.98943 0.59902 0.4337 0.0
C1360 C 0.97942 0.60196 0.38823 0.0
C1361 C 0.96394 0.59696 0.38968 0.0
C1362 C 0.02972 0.59227 0.37679 0.0
C1363 C 0.03837 0.59266 0.42651 0.0
C1364 C 0.01391 0.59593 0.3776 0.0
C1365 C 0.00662 0.60031 0.42802 0.0
C1366 C 0.01594 0.60282 0.47566 0.0
C1367 C 0.0316 0.59869 0.47524 0.0
H1368 H 0.95936 0.40717 0.69137 0.0
H1369 H 0.95438 0.38743 0.52647 0.0
H1370 H 0.98685 0.40063 0.69109 0.0
H1371 H 0.98165 0.37981 0.52728 0.0
H1372 H 0.02806 0.40607 0.50087 0.0
H1373 H 0.00154 0.39773 0.51156 0.0
H1374 H 0.01038 0.3861 0.68497 0.0
H1375 H 0.03719 0.39504 0.67431 0.0
C1376 C 0.96401 0.40065 0.65639 0.0
C1377 C 0.95497 0.39802 0.60855 0.0
C1378 C 0.97979 0.39683 0.65617 0.0
C1379 C 0.98662 0.39013 0.60829 0.0
C1380 C 0.97689 0.38545 0.564 0.0
C1381 C 0.96126 0.38966 0.56363 0.0
C1382 C 0.02448 0.40145 0.54105 0.0
C1383 C 0.03461 0.40159 0.58708 0.0
C1384 C 0.00923 0.39642 0.54711 0.0
C1385 C 0.00367 0.39136 0.59944 0.0
C1386 C 0.01421 0.39016 0.64434 0.0
C1387 C 0.02959 0.3952 0.63817 0.0
H1388 H 0.45687 0.59226 0.01197 0.0
H1389 H 0.46154 0.57733 0.18352 0.0
H1390 H 0.48436 0.59892 0.0094 0.0
H1391 H 0.48928 0.58296 0.18028 0.0
H1392 H 0.53163 0.57444 0.99238 0.0
H1393 H 0.50452 0.58082 0.00139 0.0
H1394 H 0.51262 0.59791 0.16922 0.0
H1395 H 0.54008 0.59094 0.16058 0.0
C1396 C 0.46376 0.59081 0.04959 0.0
C1397 C 0.45725 0.58415 0.09771 0.0
C1398 C 0.47952 0.59447 0.04808 0.0
C1399 C 0.48917 0.59099 0.09399 0.0
C1400 C 0.48226 0.58583 0.14412 0.0
C1401 C 0.46636 0.58254 0.14605 0.0
C1402 C 0.52774 0.57977 0.03102 0.0
C1403 C 0.53798 0.5819 0.07613 0.0
C1404 C 0.51213 0.58365 0.03599 0.0
C1405 C 0.50628 0.58987 0.08619 0.0
C1406 C 0.51671 0.59297 0.13021 0.0
C1407 C 0.53245 0.58906 0.12517 0.0
H1408 H 0.16606 0.14413 0.37419 0.0
H1409 H 0.13348 0.13851 0.23793 0.0
H1410 H 0.14873 0.12995 0.43605 0.0
H1411 H 0.11587 0.12477 0.30044 0.0
H1412 H 0.09828 0.08431 0.40472 0.0
H1413 H 0.11442 0.10029 0.34515 0.0
H1414 H 0.12461 0.1303 0.48549 0.0
H1415 H 0.10872 0.11386 0.54614 0.0
C1416 C 0.1551 0.14004 0.35755 0.0
C1417 C 0.15122 0.14235 0.30091 0.0
C1418 C 0.1451 0.13199 0.39324 0.0
C1419 C 0.13091 0.12615 0.3733 0.0
C1420 C 0.12684 0.12884 0.31699 0.0
C1421 C 0.13692 0.13677 0.28113 0.0
C1422 C 0.10388 0.09435 0.42309 0.0
C1423 C 0.10219 0.09779 0.48037 0.0
C1424 C 0.11308 0.1036 0.38864 0.0
C1425 C 0.12075 0.11666 0.41029 0.0
C1426 C 0.11899 0.12022 0.46754 0.0
C1427 C 0.10984 0.11084 0.50229 0.0
H1428 H 0.11969 0.89407 0.47169 0.0
H1429 H 0.08859 0.90433 0.60892 0.0
H1430 H 0.13446 0.87676 0.53262 0.0
H1431 H 0.10298 0.88675 0.66892 0.0
H1432 H 0.14121 0.86685 0.77852 0.0
H1433 H 0.12709 0.88447 0.717 0.0
H1434 H 0.13287 0.85234 0.57957 0.0
H1435 H 0.14738 0.83502 0.64038 0.0
C1436 C 0.11592 0.89253 0.51462 0.0
C1437 C 0.10301 0.90064 0.53542 0.0
C1438 C 0.12435 0.88257 0.54954 0.0
C1439 C 0.11995 0.88041 0.60584 0.0
C1440 C 0.1069 0.88837 0.62622 0.0
C1441 C 0.09858 0.89839 0.59157 0.0
C1442 C 0.13945 0.86355 0.7352 0.0
C1443 C 0.14545 0.84954 0.71444 0.0
C1444 C 0.1313 0.87362 0.69992 0.0
C1445 C 0.12884 0.86983 0.64322 0.0
C1446 C 0.13477 0.85577 0.62267 0.0
C1447 C 0.14302 0.84577 0.65776 0.0
H1448 H 0.38178 0.87877 0.01616 0.0
H1449 H 0.38586 0.91088 0.87796 0.0
H1450 H 0.36799 0.8606 0.95542 0.0
H1451 H 0.37157 0.89319 0.81824 0.0
H1452 H 0.3589 0.85269 0.70794 0.0
H1453 H 0.37367 0.86965 0.76974 0.0
H1454 H 0.34428 0.85639 0.90859 0.0
H1455 H 0.33003 0.83896 0.8474 0.0
C1456 C 0.37959 0.882 0.97301 0.0
C1457 C 0.38499 0.8962 0.95179 0.0
C1458 C 0.37164 0.87163 0.93818 0.0
C1459 C 0.36872 0.87536 0.88165 0.0
C1460 C 0.37392 0.88971 0.861 0.0
C1461 C 0.38203 0.89993 0.89546 0.0
C1462 C 0.35564 0.85339 0.75168 0.0
C1463 C 0.34331 0.84448 0.77271 0.0
C1464 C 0.36405 0.86318 0.78716 0.0
C1465 C 0.36016 0.86447 0.84431 0.0
C1466 C 0.34781 0.85552 0.86518 0.0
C1467 C 0.33956 0.84558 0.82991 0.0
H1468 H 0.39227 0.07605 0.10276 0.0
H1469 H 0.38636 0.10811 0.96513 0.0
H1470 H 0.37721 0.09304 0.163 0.0
H1471 H 0.37171 0.12542 0.02611 0.0
H1472 H 0.33066 0.14243 0.13085 0.0
H1473 H 0.34707 0.1267 0.07087 0.0
H1474 H 0.37744 0.11728 0.211 0.0
H1475 H 0.36065 0.13264 0.27174 0.0
C1476 C 0.3879 0.08682 0.08547 0.0
C1477 C 0.39047 0.09069 0.029 0.0
C1478 C 0.37934 0.09663 0.12021 0.0
C1479 C 0.37325 0.11062 0.0995 0.0
C1480 C 0.37602 0.11461 0.04322 0.0
C1481 C 0.38448 0.10472 0.00828 0.0
C1482 C 0.34088 0.13708 0.14894 0.0
C1483 C 0.3443 0.13875 0.20623 0.0
C1484 C 0.35036 0.12813 0.11435 0.0
C1485 C 0.36359 0.12071 0.13602 0.0
C1486 C 0.3672 0.12263 0.19311 0.0
C1487 C 0.35762 0.13149 0.2279 0.0
H1488 H 0.89184 0.91158 0.59638 0.0
H1489 H 0.88548 0.88 0.45757 0.0
H1490 H 0.87666 0.89458 0.65611 0.0
H1491 H 0.87069 0.86266 0.5181 0.0
H1492 H 0.82977 0.84551 0.62364 0.0
H1493 H 0.84612 0.86132 0.5636 0.0
H1494 H 0.87685 0.87024 0.70313 0.0
H1495 H 0.86015 0.85482 0.76384 0.0
C1496 C 0.88735 0.90091 0.57871 0.0
C1497 C 0.88984 0.89718 0.52208 0.0
C1498 C 0.87871 0.89109 0.61317 0.0
C1499 C 0.87246 0.87722 0.59203 0.0
C1500 C 0.87513 0.87337 0.53556 0.0
C1501 C 0.88367 0.88328 0.50089 0.0
C1502 C 0.84005 0.85078 0.64155 0.0
C1503 C 0.8436 0.84895 0.69867 0.0
C1504 C 0.84949 0.85978 0.60694 0.0
C1505 C 0.86281 0.86708 0.62845 0.0
C1506 C 0.86653 0.865 0.68537 0.0
C1507 C 0.857 0.8561 0.72015 0.0
H1508 H 0.86133 0.13635 0.19413 0.0
H1509 H 0.83086 0.14655 0.33319 0.0
H1510 H 0.8773 0.12028 0.25542 0.0
H1511 H 0.84635 0.13007 0.39359 0.0
H1512 H 0.88396 0.10916 0.50194 0.0
H1513 H 0.87019 0.12732 0.44126 0.0
H1514 H 0.87636 0.09605 0.30137 0.0
H1515 H 0.8906 0.07832 0.36124 0.0
C1516 C 0.85802 0.13513 0.23768 0.0
C1517 C 0.84482 0.14273 0.25869 0.0
C1518 C 0.86712 0.12586 0.27281 0.0
C1519 C 0.8631 0.12381 0.32954 0.0
C1520 C 0.84998 0.13156 0.35051 0.0
C1521 C 0.84102 0.14096 0.31564 0.0
C1522 C 0.88239 0.10621 0.45819 0.0
C1523 C 0.88839 0.09231 0.43646 0.0
C1524 C 0.87445 0.11659 0.42339 0.0
C1525 C 0.87216 0.11318 0.36626 0.0
C1526 C 0.87817 0.09925 0.34475 0.0
C1527 C 0.88625 0.089 0.3793 0.0
H1528 H 0.66635 0.13957 0.14593 0.0
H1529 H 0.63548 0.13204 0.28601 0.0
H1530 H 0.64952 0.12422 0.08635 0.0
H1531 H 0.61817 0.11711 0.22552 0.0
H1532 H 0.60038 0.07722 0.11693 0.0
H1533 H 0.61634 0.09315 0.17777 0.0
H1534 H 0.62534 0.12445 0.03998 0.0
H1535 H 0.60984 0.10808 0.97831 0.0
C1536 C 0.65586 0.13474 0.16392 0.0
C1537 C 0.65223 0.13703 0.22074 0.0
C1538 C 0.64612 0.12603 0.12953 0.0
C1539 C 0.63239 0.11951 0.15086 0.0
C1540 C 0.62875 0.12179 0.2078 0.0
C1541 C 0.63863 0.13038 0.24249 0.0
C1542 C 0.6057 0.08754 0.09957 0.0
C1543 C 0.60388 0.09135 0.04265 0.0
C1544 C 0.61479 0.09675 0.13467 0.0
C1545 C 0.62217 0.1101 0.11392 0.0
C1546 C 0.62007 0.11409 0.05719 0.0
C1547 C 0.61112 0.10476 0.02184 0.0
H1548 H 0.6627 0.85139 0.86826 0.0
H1549 H 0.63246 0.86027 0.72731 0.0
H1550 H 0.64578 0.86664 0.92823 0.0
H1551 H 0.61521 0.87511 0.78787 0.0
H1552 H 0.59831 0.91534 0.8958 0.0
H1553 H 0.6144 0.89921 0.83611 0.0
H1554 H 0.62099 0.86694 0.97271 0.0
H1555 H 0.60526 0.88343 0.03328 0.0
C1556 C 0.65235 0.85647 0.85014 0.0
C1557 C 0.64897 0.85466 0.79289 0.0
C1558 C 0.64258 0.86514 0.8847 0.0
C1559 C 0.62911 0.8721 0.86298 0.0
C1560 C 0.62562 0.87012 0.80583 0.0
C1561 C 0.63547 0.86156 0.77112 0.0
C1562 C 0.60313 0.90478 0.91317 0.0
C1563 C 0.60051 0.9007 0.96943 0.0
C1564 C 0.6123 0.89546 0.87873 0.0
C1565 C 0.61898 0.88175 0.89948 0.0
C1566 C 0.61621 0.87755 0.95558 0.0
C1567 C 0.60713 0.88696 0.99026 0.0
H1568 H 0.60134 0.57748 0.87674 0.0
H1569 H 0.60669 0.61002 0.01314 0.0
H1570 H 0.61555 0.59485 0.81515 0.0
H1571 H 0.6204 0.62772 0.95082 0.0
H1572 H 0.66115 0.64528 0.84816 0.0
H1573 H 0.64495 0.62922 0.9072 0.0
H1574 H 0.61549 0.6188 0.76544 0.0
H1575 H 0.6322 0.63458 0.70536 0.0
C1576 C 0.60535 0.58846 0.89342 0.0
C1577 C 0.60299 0.59231 0.95004 0.0
C1578 C 0.61342 0.59848 0.85789 0.0
C1579 C 0.6192 0.61267 0.87797 0.0
C1580 C 0.61639 0.61674 0.93419 0.0
C1581 C 0.60846 0.60663 0.96991 0.0
C1582 C 0.65119 0.63964 0.8294 0.0
C1583 C 0.64798 0.64123 0.77192 0.0
C1584 C 0.6418 0.6305 0.86353 0.0
C1585 C 0.62882 0.62279 0.84132 0.0
C1586 C 0.6255 0.62444 0.78383 0.0
C1587 C 0.63503 0.63352 0.74941 0.0
H1588 H 0.63105 0.35726 0.28871 0.0
H1589 H 0.66249 0.34816 0.15137 0.0
H1590 H 0.61521 0.3734 0.2272 0.0
H1591 H 0.647 0.36461 0.09075 0.0
H1592 H 0.6092 0.38441 0.98122 0.0
H1593 H 0.62275 0.36641 0.04289 0.0
H1594 H 0.61647 0.39809 0.18142 0.0
H1595 H 0.60252 0.41581 0.12036 0.0
C1596 C 0.6346 0.35872 0.2455 0.0
C1597 C 0.64805 0.35142 0.22504 0.0
C1598 C 0.62557 0.36803 0.2103 0.0
C1599 C 0.62984 0.37032 0.15401 0.0
C1600 C 0.64321 0.3629 0.13355 0.0
C1601 C 0.65216 0.35352 0.16853 0.0
C1602 C 0.61066 0.3875 0.02488 0.0
C1603 C 0.60481 0.40157 0.04578 0.0
C1604 C 0.61849 0.37721 0.06021 0.0
C1605 C 0.62075 0.38082 0.11711 0.0
C1606 C 0.61474 0.39482 0.13807 0.0
C1607 C 0.60681 0.40504 0.10288 0.0
H1608 H 0.90514 0.39909 0.40279 0.0
H1609 H 0.87331 0.39093 0.53962 0.0
H1610 H 0.88928 0.38298 0.34194 0.0
H1611 H 0.85712 0.37523 0.47812 0.0
H1612 H 0.84766 0.36924 0.23329 0.0
H1613 H 0.86495 0.38379 0.2947 0.0
H1614 H 0.8558 0.35131 0.42871 0.0
H1615 H 0.83815 0.33713 0.36807 0.0
C1616 C 0.89473 0.39388 0.41989 0.0
C1617 C 0.89045 0.39634 0.47604 0.0
C1618 C 0.88558 0.38472 0.38483 0.0
C1619 C 0.87185 0.3779 0.40491 0.0
C1620 C 0.86772 0.38014 0.4614 0.0
C1621 C 0.87697 0.3892 0.49667 0.0
C1622 C 0.84942 0.36517 0.27575 0.0
C1623 C 0.84145 0.3521 0.29587 0.0
C1624 C 0.85939 0.37346 0.31094 0.0
C1625 C 0.86172 0.36876 0.36681 0.0
C1626 C 0.85404 0.35545 0.38634 0.0
C1627 C 0.84398 0.34726 0.3514 0.0
H1628 H 0.8591 0.62933 0.7908 0.0
H1629 H 0.82861 0.63861 0.65091 0.0
H1630 H 0.87587 0.61402 0.72958 0.0
H1631 H 0.84495 0.62296 0.59056 0.0
H1632 H 0.88501 0.607 0.48272 0.0
H1633 H 0.8694 0.62301 0.54517 0.0
H1634 H 0.87688 0.59017 0.6794 0.0
H1635 H 0.89292 0.57451 0.61771 0.0
C1636 C 0.85591 0.62799 0.74718 0.0
C1637 C 0.84257 0.63525 0.72573 0.0
C1638 C 0.86548 0.61918 0.71208 0.0
C1639 C 0.86181 0.61731 0.65496 0.0
C1640 C 0.84834 0.62442 0.63392 0.0
C1641 C 0.8389 0.63332 0.66874 0.0
C1642 C 0.88334 0.60322 0.52558 0.0
C1643 C 0.89022 0.58948 0.54517 0.0
C1644 C 0.87433 0.61236 0.56137 0.0
C1645 C 0.87184 0.60787 0.61739 0.0
C1646 C 0.87875 0.59413 0.63688 0.0
C1647 C 0.88788 0.58509 0.60129 0.0
H1648 H 0.36023 0.35778 0.28177 0.0
H1649 H 0.32929 0.35079 0.14137 0.0
H1650 H 0.37822 0.37165 0.22063 0.0
H1651 H 0.3469 0.36499 0.08117 0.0
H1652 H 0.38679 0.38049 0.9735 0.0
H1653 H 0.37147 0.36407 0.03564 0.0
H1654 H 0.37998 0.39583 0.17236 0.0
H1655 H 0.39562 0.41191 0.11102 0.0
C1656 C 0.35724 0.35924 0.23801 0.0
C1657 C 0.34331 0.35317 0.21656 0.0
C1658 C 0.36752 0.36723 0.20298 0.0
C1659 C 0.36403 0.36943 0.14588 0.0
C1660 C 0.35014 0.36327 0.12457 0.0
C1661 C 0.33995 0.35521 0.15935 0.0
C1662 C 0.38545 0.38391 0.01687 0.0
C1663 C 0.39236 0.39756 0.03712 0.0
C1664 C 0.37663 0.37453 0.0525 0.0
C1665 C 0.37442 0.37866 0.10901 0.0
C1666 C 0.38161 0.39215 0.12939 0.0
C1667 C 0.39052 0.40144 0.09398 0.0
H1668 H 0.39328 0.574 0.90026 0.0
H1669 H 0.38726 0.60601 0.03788 0.0
H1670 H 0.37813 0.59087 0.84001 0.0
H1671 H 0.37263 0.62332 0.97673 0.0
H1672 H 0.3326 0.64171 0.87193 0.0
H1673 H 0.34841 0.62535 0.93177 0.0
H1674 H 0.37811 0.61456 0.79099 0.0
H1675 H 0.36177 0.63048 0.73038 0.0
C1676 C 0.38888 0.58476 0.9175 0.0
C1677 C 0.39145 0.58865 0.97394 0.0
C1678 C 0.38026 0.59451 0.88274 0.0
C1679 C 0.37415 0.60851 0.90329 0.0
C1680 C 0.37692 0.61251 0.95965 0.0
C1681 C 0.38538 0.60263 0.9947 0.0
C1682 C 0.34253 0.63587 0.85369 0.0
C1683 C 0.34593 0.63738 0.79635 0.0
C1684 C 0.35168 0.62656 0.88819 0.0
C1685 C 0.36461 0.61866 0.86644 0.0
C1686 C 0.3681 0.62027 0.80907 0.0
C1687 C 0.35879 0.62944 0.77431 0.0
H1688 H 0.16547 0.64539 0.64811 0.0
H1689 H 0.13403 0.63479 0.78394 0.0
H1690 H 0.15054 0.62863 0.58606 0.0
H1691 H 0.1188 0.61854 0.72155 0.0
H1692 H 0.10413 0.57804 0.61491 0.0
H1693 H 0.11997 0.59442 0.67462 0.0
H1694 H 0.12634 0.62662 0.53765 0.0
H1695 H 0.1109 0.60983 0.47703 0.0
C1696 C 0.15531 0.63957 0.66463 0.0
C1697 C 0.15098 0.64137 0.72104 0.0
C1698 C 0.1467 0.63003 0.62895 0.0
C1699 C 0.13348 0.62219 0.64877 0.0
C1700 C 0.12909 0.62414 0.70509 0.0
C1701 C 0.13778 0.63354 0.74086 0.0
C1702 C 0.10891 0.58861 0.59743 0.0
C1703 C 0.10619 0.59268 0.54126 0.0
C1704 C 0.11793 0.59806 0.63183 0.0
C1705 C 0.12432 0.61193 0.61119 0.0
C1706 C 0.12174 0.61593 0.55478 0.0
C1707 C 0.11283 0.60636 0.52008 0.0
H1708 H 0.133 0.3598 0.21531 0.0
H1709 H 0.16344 0.35258 0.35693 0.0
H1710 H 0.11499 0.37396 0.27565 0.0
H1711 H 0.14589 0.36709 0.41624 0.0
H1712 H 0.10596 0.38231 0.5232 0.0
H1713 H 0.12147 0.36613 0.46104 0.0
H1714 H 0.11267 0.39792 0.32453 0.0
H1715 H 0.09671 0.41371 0.38601 0.0
C1716 C 0.13588 0.36129 0.25915 0.0
C1717 C 0.14962 0.35502 0.28128 0.0
C1718 C 0.1256 0.36945 0.29373 0.0
C1719 C 0.12894 0.37162 0.35097 0.0
C1720 C 0.14273 0.36536 0.37278 0.0
C1721 C 0.15288 0.35711 0.33851 0.0
C1722 C 0.10728 0.38579 0.47985 0.0
C1723 C 0.10015 0.39933 0.45968 0.0
C1724 C 0.11623 0.37655 0.44421 0.0
C1725 C 0.11843 0.38076 0.38776 0.0
C1726 C 0.11106 0.39418 0.36745 0.0
C1727 C 0.10198 0.40331 0.4029 0.0
loop_
_geom_bond_atom_site_label_1
_geom_bond_atom_site_label_2
_geom_bond_distance
_geom_bond_site_symmetry_2
_ccdc_geom_bond_type
Mg0 O1 2.028 . S
Mg0 O7 1.986 . S
Mg0 O9 2.114 . S
Mg0 O10 2.251 . S
Mg0 O13 2.010 . S
O1 Mg0 2.028 . S
O1 C4 1.250 . S
O2 Mg3 2.028 . S
O2 C4 1.248 . S
Mg3 O2 2.028 . S
Mg3 O8 2.032 . S
Mg3 O10 2.079 . S
C4 O1 1.250 . S
C4 O2 1.248 . S
C5 O6 1.264 1_554 S
C5 O13 1.249 . S
O6 C5 1.264 1_556 S
O7 Mg0 1.986 . S
O7 C11 1.246 . S
O8 Mg3 2.032 . S
O8 C11 1.259 . S
O9 Mg0 2.114 . S
O9 C12 1.252 . S
O10 Mg0 2.251 . S
O10 Mg3 2.079 . S
O10 C12 1.273 . S
C11 O7 1.246 . S
C11 O8 1.259 . S
C12 O9 1.252 . S
C12 O10 1.273 . S
O13 Mg0 2.010 . S
O13 C5 1.249 . S
Mg14 O15 2.028 . S
Mg14 O21 1.986 . S
Mg14 O23 2.114 . S
Mg14 O24 2.251 . S
Mg14 O27 2.010 . S
O15 Mg14 2.028 . S
O15 C18 1.250 . S
O16 Mg17 2.028 . S
O16 C18 1.248 . S
Mg17 O16 2.028 . S
Mg17 O22 2.032 . S
Mg17 O24 2.079 . S
C18 O15 1.250 . S
C18 O16 1.248 . S
C19 O20 1.264 . S
C19 O27 1.249 . S
O20 C19 1.264 . S
O21 Mg14 1.986 . S
O21 C25 1.246 . S
O22 Mg17 2.032 . S
O22 C25 1.259 . S
O23 Mg14 2.114 . S
O23 C26 1.252 . S
O24 Mg14 2.251 . S
O24 Mg17 2.079 . S
O24 C26 1.273 . S
C25 O21 1.246 . S
C25 O22 1.259 . S
C26 O23 1.252 . S
C26 O24 1.273 . S
O27 Mg14 2.010 . S
O27 C19 1.249 . S
Mg28 O29 2.028 . S
Mg28 O35 1.986 . S
Mg28 O37 2.114 . S
Mg28 O38 2.251 . S
Mg28 O41 2.010 . S
O29 Mg28 2.028 . S
O29 C32 1.250 . S
O30 Mg31 2.028 . S
O30 C32 1.248 . S
Mg31 O30 2.028 . S
Mg31 O36 2.032 . S
Mg31 O38 2.079 . S
C32 O29 1.250 . S
C32 O30 1.248 . S
C33 O34 1.264 . S
C33 O41 1.249 . S
O34 C33 1.264 . S
O35 Mg28 1.986 . S
O35 C39 1.246 . S
O36 Mg31 2.032 . S
O36 C39 1.259 . S
O37 Mg28 2.114 . S
O37 C40 1.252 . S
O38 Mg28 2.251 . S
O38 Mg31 2.079 . S
O38 C40 1.273 . S
C39 O35 1.246 . S
C39 O36 1.259 . S
C40 O37 1.252 . S
C40 O38 1.273 . S
O41 Mg28 2.010 . S
O41 C33 1.249 . S
Mg42 O43 2.028 . S
Mg42 O49 1.986 . S
Mg42 O51 2.114 . S
Mg42 O52 2.251 . S
Mg42 O55 2.010 . S
O43 Mg42 2.028 . S
O43 C46 1.250 . S
O44 Mg45 2.028 . S
O44 C46 1.248 1_554 S
Mg45 O44 2.028 . S
Mg45 O50 2.032 1_554 S
Mg45 O52 2.079 1_554 S
C46 O43 1.250 . S
C46 O44 1.248 1_556 S
C47 O48 1.264 . S
C47 O55 1.249 . S
O48 C47 1.264 . S
O49 Mg42 1.986 . S
O49 C53 1.246 . S
O50 Mg45 2.032 1_556 S
O50 C53 1.259 . S
O51 Mg42 2.114 . S
O51 C54 1.252 . S
O52 Mg42 2.251 . S
O52 Mg45 2.079 1_556 S
O52 C54 1.273 . S
C53 O49 1.246 . S
C53 O50 1.259 . S
C54 O51 1.252 . S
C54 O52 1.273 . S
O55 Mg42 2.010 . S
O55 C47 1.249 . S
Mg56 O57 2.028 . S
Mg56 O63 1.986 . S
Mg56 O65 2.114 . S
Mg56 O66 2.251 . S
Mg56 O69 2.010 . S
O57 Mg56 2.028 . S
O57 C60 1.250 . S
O58 Mg59 2.028 . S
O58 C60 1.248 . S
Mg59 O58 2.028 . S
Mg59 O64 2.032 . S
Mg59 O66 2.079 . S
C60 O57 1.250 . S
C60 O58 1.248 . S
C61 O62 1.264 1_556 S
C61 O69 1.249 . S
O62 C61 1.264 1_554 S
O63 Mg56 1.986 . S
O63 C67 1.246 . S
O64 Mg59 2.032 . S
O64 C67 1.259 . S
O65 Mg56 2.114 . S
O65 C68 1.252 . S
O66 Mg56 2.251 . S
O66 Mg59 2.079 . S
O66 C68 1.273 . S
C67 O63 1.246 . S
C67 O64 1.259 . S
C68 O65 1.252 . S
C68 O66 1.273 . S
O69 Mg56 2.010 . S
O69 C61 1.249 . S
Mg70 O71 2.028 . S
Mg70 O77 1.986 . S
Mg70 O79 2.114 . S
Mg70 O80 2.251 . S
Mg70 O83 2.010 . S
O71 Mg70 2.028 . S
O71 C74 1.250 . S
O72 Mg73 2.028 . S
O72 C74 1.248 1_556 S
Mg73 O72 2.028 . S
Mg73 O78 2.032 1_556 S
Mg73 O80 2.079 1_556 S
C74 O71 1.250 . S
C74 O72 1.248 1_554 S
C75 O76 1.264 . S
C75 O83 1.249 . S
O76 C75 1.264 . S
O77 Mg70 1.986 . S
O77 C81 1.246 . S
O78 Mg73 2.032 1_554 S
O78 C81 1.259 . S
O79 Mg70 2.114 . S
O79 C82 1.252 . S
O80 Mg70 2.251 . S
O80 Mg73 2.079 1_554 S
O80 C82 1.273 . S
C81 O77 1.246 . S
C81 O78 1.259 . S
C82 O79 1.252 . S
C82 O80 1.273 . S
O83 Mg70 2.010 . S
O83 C75 1.249 . S
Mg84 O85 2.028 . S
Mg84 O91 1.986 . S
Mg84 O93 2.114 . S
Mg84 O94 2.251 . S
Mg84 O97 2.010 . S
O85 Mg84 2.028 . S
O85 C88 1.250 . S
O86 Mg87 2.028 . S
O86 C88 1.248 . S
Mg87 O86 2.028 . S
Mg87 O92 2.032 . S
Mg87 O94 2.079 . S
C88 O85 1.250 . S
C88 O86 1.248 . S
C89 O90 1.264 . S
C89 O97 1.249 . S
O90 C89 1.264 . S
O91 Mg84 1.986 . S
O91 C95 1.246 . S
O92 Mg87 2.032 . S
O92 C95 1.259 . S
O93 Mg84 2.114 . S
O93 C96 1.252 . S
O94 Mg84 2.251 . S
O94 Mg87 2.079 . S
O94 C96 1.273 . S
C95 O91 1.246 . S
C95 O92 1.259 . S
C96 O93 1.252 . S
C96 O94 1.273 . S
O97 Mg84 2.010 . S
O97 C89 1.249 . S
Mg98 O99 2.028 . S
Mg98 O105 1.986 . S
Mg98 O107 2.114 . S
Mg98 O108 2.251 . S
Mg98 O111 2.010 . S
O99 Mg98 2.028 . S
O99 C102 1.250 . S
O100 Mg101 2.028 . S
O100 C102 1.248 . S
Mg101 O100 2.028 . S
Mg101 O106 2.032 . S
Mg101 O108 2.079 . S
C102 O99 1.250 . S
C102 O100 1.248 . S
C103 O104 1.264 . S
C103 O111 1.249 . S
O104 C103 1.264 . S
O105 Mg98 1.986 . S
O105 C109 1.246 . S
O106 Mg101 2.032 . S
O106 C109 1.259 . S
O107 Mg98 2.114 . S
O107 C110 1.252 . S
O108 Mg98 2.251 . S
O108 Mg101 2.079 . S
O108 C110 1.273 . S
C109 O105 1.246 . S
C109 O106 1.259 . S
C110 O107 1.252 . S
C110 O108 1.273 . S
O111 Mg98 2.010 . S
O111 C103 1.249 . S
Mg112 O113 2.028 . S
Mg112 O119 1.986 . S
Mg112 O121 2.114 . S
Mg112 O122 2.251 . S
Mg112 O125 2.010 . S
O113 Mg112 2.028 . S
O113 C116 1.250 . S
O114 Mg115 2.028 . S
O114 C116 1.248 . S
Mg115 O114 2.028 . S
Mg115 O120 2.032 . S
Mg115 O122 2.079 . S
C116 O113 1.250 . S
C116 O114 1.248 . S
C117 O118 1.264 1_556 S
C117 O125 1.249 . S
O118 C117 1.264 1_554 S
O119 Mg112 1.986 . S
O119 C123 1.246 . S
O120 Mg115 2.032 . S
O120 C123 1.259 . S
O121 Mg112 2.114 . S
O121 C124 1.252 . S
O122 Mg112 2.251 . S
O122 Mg115 2.079 . S
O122 C124 1.273 . S
C123 O119 1.246 . S
C123 O120 1.259 . S
C124 O121 1.252 . S
C124 O122 1.273 . S
O125 Mg112 2.010 . S
O125 C117 1.249 . S
Mg126 O127 2.028 . S
Mg126 O133 1.986 . S
Mg126 O135 2.114 . S
Mg126 O136 2.251 . S
Mg126 O139 2.010 . S
O127 Mg126 2.028 . S
O127 C130 1.250 . S
O128 Mg129 2.028 . S
O128 C130 1.248 . S
Mg129 O128 2.028 . S
Mg129 O134 2.032 . S
Mg129 O136 2.079 . S
C130 O127 1.250 . S
C130 O128 1.248 . S
C131 O132 1.264 . S
C131 O139 1.249 . S
O132 C131 1.264 . S
O133 Mg126 1.986 . S
O133 C137 1.246 . S
O134 Mg129 2.032 . S
O134 C137 1.259 . S
O135 Mg126 2.114 . S
O135 C138 1.252 . S
O136 Mg126 2.251 . S
O136 Mg129 2.079 . S
O136 C138 1.273 . S
C137 O133 1.246 . S
C137 O134 1.259 . S
C138 O135 1.252 . S
C138 O136 1.273 . S
O139 Mg126 2.010 . S
O139 C131 1.249 . S
Mg140 O141 2.028 . S
Mg140 O147 1.986 . S
Mg140 O149 2.114 . S
Mg140 O150 2.251 . S
Mg140 O153 2.010 . S
O141 Mg140 2.028 . S
O141 C144 1.250 . S
O142 Mg143 2.028 . S
O142 C144 1.248 . S
Mg143 O142 2.028 . S
Mg143 O148 2.032 . S
Mg143 O150 2.079 . S
C144 O141 1.250 . S
C144 O142 1.248 . S
C145 O146 1.264 . S
C145 O153 1.249 . S
O146 C145 1.264 . S
O147 Mg140 1.986 . S
O147 C151 1.246 . S
O148 Mg143 2.032 . S
O148 C151 1.259 . S
O149 Mg140 2.114 . S
O149 C152 1.252 . S
O150 Mg140 2.251 . S
O150 Mg143 2.079 . S
O150 C152 1.273 . S
C151 O147 1.246 . S
C151 O148 1.259 . S
C152 O149 1.252 . S
C152 O150 1.273 . S
O153 Mg140 2.010 . S
O153 C145 1.249 . S
Mg154 O155 2.028 . S
Mg154 O161 1.986 . S
Mg154 O163 2.114 . S
Mg154 O164 2.251 . S
Mg154 O167 2.010 . S
O155 Mg154 2.028 . S
O155 C158 1.250 . S
O156 Mg157 2.028 . S
O156 C158 1.248 1_556 S
Mg157 O156 2.028 . S
Mg157 O162 2.032 1_556 S
Mg157 O164 2.079 1_556 S
C158 O155 1.250 . S
C158 O156 1.248 1_554 S
C159 O160 1.264 . S
C159 O167 1.249 . S
O160 C159 1.264 . S
O161 Mg154 1.986 . S
O161 C165 1.246 . S
O162 Mg157 2.032 1_554 S
O162 C165 1.259 . S
O163 Mg154 2.114 . S
O163 C166 1.252 . S
O164 Mg154 2.251 . S
O164 Mg157 2.079 1_554 S
O164 C166 1.273 . S
C165 O161 1.246 . S
C165 O162 1.259 . S
C166 O163 1.252 . S
C166 O164 1.273 . S
O167 Mg154 2.010 . S
O167 C159 1.249 . S
Mg168 O169 2.028 . S
Mg168 O175 1.986 . S
Mg168 O177 2.114 . S
Mg168 O178 2.251 . S
Mg168 O181 2.010 . S
O169 Mg168 2.028 . S
O169 C172 1.250 . S
O170 Mg171 2.028 . S
O170 C172 1.248 . S
Mg171 O170 2.028 . S
Mg171 O176 2.032 . S
Mg171 O178 2.079 . S
C172 O169 1.250 . S
C172 O170 1.248 . S
C173 O174 1.264 1_554 S
C173 O181 1.249 . S
O174 C173 1.264 1_556 S
O175 Mg168 1.986 . S
O175 C179 1.246 . S
O176 Mg171 2.032 . S
O176 C179 1.259 . S
O177 Mg168 2.114 . S
O177 C180 1.252 . S
O178 Mg168 2.251 . S
O178 Mg171 2.079 . S
O178 C180 1.273 . S
C179 O175 1.246 . S
C179 O176 1.259 . S
C180 O177 1.252 . S
C180 O178 1.273 . S
O181 Mg168 2.010 . S
O181 C173 1.249 . S
Mg182 O183 2.028 . S
Mg182 O189 1.986 . S
Mg182 O191 2.114 . S
Mg182 O192 2.251 . S
Mg182 O195 2.010 . S
O183 Mg182 2.028 . S
O183 C186 1.250 . S
O184 Mg185 2.028 . S
O184 C186 1.248 1_554 S
Mg185 O184 2.028 . S
Mg185 O190 2.032 1_554 S
Mg185 O192 2.079 1_554 S
C186 O183 1.250 . S
C186 O184 1.248 1_556 S
C187 O188 1.264 . S
C187 O195 1.249 . S
O188 C187 1.264 . S
O189 Mg182 1.986 . S
O189 C193 1.246 . S
O190 Mg185 2.032 1_556 S
O190 C193 1.259 . S
O191 Mg182 2.114 . S
O191 C194 1.252 . S
O192 Mg182 2.251 . S
O192 Mg185 2.079 1_556 S
O192 C194 1.273 . S
C193 O189 1.246 . S
C193 O190 1.259 . S
C194 O191 1.252 . S
C194 O192 1.273 . S
O195 Mg182 2.010 . S
O195 C187 1.249 . S
Mg196 O197 2.028 . S
Mg196 O203 1.986 . S
Mg196 O205 2.114 . S
Mg196 O206 2.251 . S
Mg196 O209 2.010 . S
O197 Mg196 2.028 . S
O197 C200 1.250 . S
O198 Mg199 2.028 . S
O198 C200 1.248 . S
Mg199 O198 2.028 . S
Mg199 O204 2.032 . S
Mg199 O206 2.079 . S
C200 O197 1.250 . S
C200 O198 1.248 . S
C201 O202 1.264 . S
C201 O209 1.249 . S
O202 C201 1.264 . S
O203 Mg196 1.986 . S
O203 C207 1.246 . S
O204 Mg199 2.032 . S
O204 C207 1.259 . S
O205 Mg196 2.114 . S
O205 C208 1.252 . S
O206 Mg196 2.251 . S
O206 Mg199 2.079 . S
O206 C208 1.273 . S
C207 O203 1.246 . S
C207 O204 1.259 . S
C208 O205 1.252 . S
C208 O206 1.273 . S
O209 Mg196 2.010 . S
O209 C201 1.249 . S
Mg210 O211 2.028 . S
Mg210 O217 1.986 . S
Mg210 O219 2.114 . S
Mg210 O220 2.251 . S
Mg210 O223 2.010 . S
O211 Mg210 2.028 . S
O211 C214 1.250 . S
O212 Mg213 2.028 . S
O212 C214 1.248 . S
Mg213 O212 2.028 . S
Mg213 O218 2.032 . S
Mg213 O220 2.079 . S
C214 O211 1.250 . S
C214 O212 1.248 . S
C215 O216 1.264 . S
C215 O223 1.249 . S
O216 C215 1.264 . S
O217 Mg210 1.986 . S
O217 C221 1.246 . S
O218 Mg213 2.032 . S
O218 C221 1.259 . S
O219 Mg210 2.114 . S
O219 C222 1.252 . S
O220 Mg210 2.251 . S
O220 Mg213 2.079 . S
O220 C222 1.273 . S
C221 O217 1.246 . S
C221 O218 1.259 . S
C222 O219 1.252 . S
C222 O220 1.273 . S
O223 Mg210 2.010 . S
O223 C215 1.249 . S
Mg224 O225 2.028 . S
Mg224 O231 1.986 . S
Mg224 O233 2.114 . S
Mg224 O234 2.251 . S
Mg224 O237 2.010 . S
O225 Mg224 2.028 . S
O225 C228 1.250 . S
O226 Mg227 2.028 . S
O226 C228 1.248 . S
Mg227 O226 2.028 . S
Mg227 O232 2.032 . S
Mg227 O234 2.079 . S
C228 O225 1.250 . S
C228 O226 1.248 . S
C229 O230 1.264 . S
C229 O237 1.249 . S
O230 C229 1.264 . S
O231 Mg224 1.986 . S
O231 C235 1.246 . S
O232 Mg227 2.032 . S
O232 C235 1.259 . S
O233 Mg224 2.114 . S
O233 C236 1.252 . S
O234 Mg224 2.251 . S
O234 Mg227 2.079 . S
O234 C236 1.273 . S
C235 O231 1.246 . S
C235 O232 1.259 . S
C236 O233 1.252 . S
C236 O234 1.273 . S
O237 Mg224 2.010 . S
O237 C229 1.249 . S
Mg238 O239 2.028 . S
Mg238 O245 1.986 . S
Mg238 O247 2.114 . S
Mg238 O248 2.251 . S
Mg238 O251 2.010 . S
O239 Mg238 2.028 . S
O239 C242 1.250 . S
O240 Mg241 2.028 . S
O240 C242 1.248 1_554 S
Mg241 O240 2.028 . S
Mg241 O246 2.032 1_554 S
Mg241 O248 2.079 1_554 S
C242 O239 1.250 . S
C242 O240 1.248 1_556 S
C243 O244 1.264 . S
C243 O251 1.249 . S
O244 C243 1.264 . S
O245 Mg238 1.986 . S
O245 C249 1.246 . S
O246 Mg241 2.032 1_556 S
O246 C249 1.259 . S
O247 Mg238 2.114 . S
O247 C250 1.252 . S
O248 Mg238 2.251 . S
O248 Mg241 2.079 1_556 S
O248 C250 1.273 . S
C249 O245 1.246 . S
C249 O246 1.259 . S
C250 O247 1.252 . S
C250 O248 1.273 . S
O251 Mg238 2.010 . S
O251 C243 1.249 . S
Mg252 O253 2.028 . S
Mg252 O259 1.986 . S
Mg252 O261 2.114 . S
Mg252 O262 2.251 . S
Mg252 O265 2.010 . S
O253 Mg252 2.028 . S
O253 C256 1.250 . S
O254 Mg255 2.028 . S
O254 C256 1.248 . S
Mg255 O254 2.028 . S
Mg255 O260 2.032 . S
Mg255 O262 2.079 . S
C256 O253 1.250 . S
C256 O254 1.248 . S
C257 O258 1.264 1_554 S
C257 O265 1.249 . S
O258 C257 1.264 1_556 S
O259 Mg252 1.986 . S
O259 C263 1.246 . S
O260 Mg255 2.032 . S
O260 C263 1.259 . S
O261 Mg252 2.114 . S
O261 C264 1.252 . S
O262 Mg252 2.251 . S
O262 Mg255 2.079 . S
O262 C264 1.273 . S
C263 O259 1.246 . S
C263 O260 1.259 . S
C264 O261 1.252 . S
C264 O262 1.273 . S
O265 Mg252 2.010 . S
O265 C257 1.249 . S
Mg266 O267 2.028 . S
Mg266 O273 1.986 . S
Mg266 O275 2.114 . S
Mg266 O276 2.251 . S
Mg266 O279 2.010 . S
O267 Mg266 2.028 . S
O267 C270 1.250 . S
O268 Mg269 2.028 . S
O268 C270 1.248 . S
Mg269 O268 2.028 . S
Mg269 O274 2.032 . S
Mg269 O276 2.079 . S
C270 O267 1.250 . S
C270 O268 1.248 . S
C271 O272 1.264 . S
C271 O279 1.249 . S
O272 C271 1.264 . S
O273 Mg266 1.986 . S
O273 C277 1.246 . S
O274 Mg269 2.032 . S
O274 C277 1.259 . S
O275 Mg266 2.114 . S
O275 C278 1.252 . S
O276 Mg266 2.251 . S
O276 Mg269 2.079 . S
O276 C278 1.273 . S
C277 O273 1.246 . S
C277 O274 1.259 . S
C278 O275 1.252 . S
C278 O276 1.273 . S
O279 Mg266 2.010 . S
O279 C271 1.249 . S
Mg280 O281 2.028 . S
Mg280 O287 1.986 . S
Mg280 O289 2.114 . S
Mg280 O290 2.251 . S
Mg280 O293 2.010 . S
O281 Mg280 2.028 . S
O281 C284 1.250 . S
O282 Mg283 2.028 . S
O282 C284 1.248 . S
Mg283 O282 2.028 . S
Mg283 O288 2.032 . S
Mg283 O290 2.079 . S
C284 O281 1.250 . S
C284 O282 1.248 . S
C285 O286 1.264 . S
C285 O293 1.249 . S
O286 C285 1.264 . S
O287 Mg280 1.986 . S
O287 C291 1.246 . S
O288 Mg283 2.032 . S
O288 C291 1.259 . S
O289 Mg280 2.114 . S
O289 C292 1.252 . S
O290 Mg280 2.251 . S
O290 Mg283 2.079 . S
O290 C292 1.273 . S
C291 O287 1.246 . S
C291 O288 1.259 . S
C292 O289 1.252 . S
C292 O290 1.273 . S
O293 Mg280 2.010 . S
O293 C285 1.249 . S
Mg294 O295 2.028 . S
Mg294 O301 1.986 . S
Mg294 O303 2.114 . S
Mg294 O304 2.251 . S
Mg294 O307 2.010 . S
O295 Mg294 2.028 . S
O295 C298 1.250 . S
O296 Mg297 2.028 . S
O296 C298 1.248 . S
Mg297 O296 2.028 . S
Mg297 O302 2.032 . S
Mg297 O304 2.079 . S
C298 O295 1.250 . S
C298 O296 1.248 . S
C299 O300 1.264 . S
C299 O307 1.249 . S
O300 C299 1.264 . S
O301 Mg294 1.986 . S
O301 C305 1.246 . S
O302 Mg297 2.032 . S
O302 C305 1.259 . S
O303 Mg294 2.114 . S
O303 C306 1.252 . S
O304 Mg294 2.251 . S
O304 Mg297 2.079 . S
O304 C306 1.273 . S
C305 O301 1.246 . S
C305 O302 1.259 . S
C306 O303 1.252 . S
C306 O304 1.273 . S
O307 Mg294 2.010 . S
O307 C299 1.249 . S
Mg308 O309 2.028 . S
Mg308 O315 1.986 . S
Mg308 O317 2.114 . S
Mg308 O318 2.251 . S
Mg308 O321 2.010 . S
O309 Mg308 2.028 . S
O309 C312 1.250 . S
O310 Mg311 2.028 . S
O310 C312 1.248 . S
Mg311 O310 2.028 . S
Mg311 O316 2.032 . S
Mg311 O318 2.079 . S
C312 O309 1.250 . S
C312 O310 1.248 . S
C313 O314 1.264 1_556 S
C313 O321 1.249 . S
O314 C313 1.264 1_554 S
O315 Mg308 1.986 . S
O315 C319 1.246 . S
O316 Mg311 2.032 . S
O316 C319 1.259 . S
O317 Mg308 2.114 . S
O317 C320 1.252 . S
O318 Mg308 2.251 . S
O318 Mg311 2.079 . S
O318 C320 1.273 . S
C319 O315 1.246 . S
C319 O316 1.259 . S
C320 O317 1.252 . S
C320 O318 1.273 . S
O321 Mg308 2.010 . S
O321 C313 1.249 . S
Mg322 O323 2.028 . S
Mg322 O329 1.986 . S
Mg322 O331 2.114 . S
Mg322 O332 2.251 . S
Mg322 O335 2.010 . S
O323 Mg322 2.028 . S
O323 C326 1.250 . S
O324 Mg325 2.028 . S
O324 C326 1.248 1_556 S
Mg325 O324 2.028 . S
Mg325 O330 2.032 1_556 S
Mg325 O332 2.079 1_556 S
C326 O323 1.250 . S
C326 O324 1.248 1_554 S
C327 O328 1.264 . S
C327 O335 1.249 . S
O328 C327 1.264 . S
O329 Mg322 1.986 . S
O329 C333 1.246 . S
O330 Mg325 2.032 1_554 S
O330 C333 1.259 . S
O331 Mg322 2.114 . S
O331 C334 1.252 . S
O332 Mg322 2.251 . S
O332 Mg325 2.079 1_554 S
O332 C334 1.273 . S
C333 O329 1.246 . S
C333 O330 1.259 . S
C334 O331 1.252 . S
C334 O332 1.273 . S
O335 Mg322 2.010 . S
O335 C327 1.249 . S
Mg336 O337 2.028 . S
Mg336 O343 1.986 . S
Mg336 O345 2.114 . S
Mg336 O346 2.251 . S
Mg336 O349 2.010 . S
O337 Mg336 2.028 . S
O337 C340 1.250 . S
O338 Mg339 2.028 . S
O338 C340 1.248 . S
Mg339 O338 2.028 . S
Mg339 O344 2.032 . S
Mg339 O346 2.079 . S
C340 O337 1.250 . S
C340 O338 1.248 . S
C341 O342 1.264 . S
C341 O349 1.249 . S
O342 C341 1.264 . S
O343 Mg336 1.986 . S
O343 C347 1.246 . S
O344 Mg339 2.032 . S
O344 C347 1.259 . S
O345 Mg336 2.114 . S
O345 C348 1.252 . S
O346 Mg336 2.251 . S
O346 Mg339 2.079 . S
O346 C348 1.273 . S
C347 O343 1.246 . S
C347 O344 1.259 . S
C348 O345 1.252 . S
C348 O346 1.273 . S
O349 Mg336 2.010 . S
O349 C341 1.249 . S
Mg350 O351 2.028 . S
Mg350 O357 1.986 . S
Mg350 O359 2.114 . S
Mg350 O360 2.251 . S
Mg350 O363 2.010 . S
O351 Mg350 2.028 . S
O351 C354 1.250 . S
O352 Mg353 2.028 . S
O352 C354 1.248 1_556 S
Mg353 O352 2.028 . S
Mg353 O358 2.032 1_556 S
Mg353 O360 2.079 1_556 S
C354 O351 1.250 . S
C354 O352 1.248 1_554 S
C355 O356 1.264 . S
C355 O363 1.249 . S
O356 C355 1.264 . S
O357 Mg350 1.986 . S
O357 C361 1.246 . S
O358 Mg353 2.032 1_554 S
O358 C361 1.259 . S
O359 Mg350 2.114 . S
O359 C362 1.252 . S
O360 Mg350 2.251 . S
O360 Mg353 2.079 1_554 S
O360 C362 1.273 . S
C361 O357 1.246 . S
C361 O358 1.259 . S
C362 O359 1.252 . S
C362 O360 1.273 . S
O363 Mg350 2.010 . S
O363 C355 1.249 . S
Mg364 O365 2.028 . S
Mg364 O371 1.986 . S
Mg364 O373 2.114 . S
Mg364 O374 2.251 . S
Mg364 O377 2.010 . S
O365 Mg364 2.028 . S
O365 C368 1.250 . S
O366 Mg367 2.028 . S
O366 C368 1.248 . S
Mg367 O366 2.028 . S
Mg367 O372 2.032 . S
Mg367 O374 2.079 . S
C368 O365 1.250 . S
C368 O366 1.248 . S
C369 O370 1.264 1_556 S
C369 O377 1.249 . S
O370 C369 1.264 1_554 S
O371 Mg364 1.986 . S
O371 C375 1.246 . S
O372 Mg367 2.032 . S
O372 C375 1.259 . S
O373 Mg364 2.114 . S
O373 C376 1.252 . S
O374 Mg364 2.251 . S
O374 Mg367 2.079 . S
O374 C376 1.273 . S
C375 O371 1.246 . S
C375 O372 1.259 . S
C376 O373 1.252 . S
C376 O374 1.273 . S
O377 Mg364 2.010 . S
O377 C369 1.249 . S
Mg378 O379 2.028 . S
Mg378 O385 1.986 . S
Mg378 O387 2.114 . S
Mg378 O388 2.251 . S
Mg378 O391 2.010 . S
O379 Mg378 2.028 . S
O379 C382 1.250 . S
O380 Mg381 2.028 . S
O380 C382 1.248 . S
Mg381 O380 2.028 . S
Mg381 O386 2.032 . S
Mg381 O388 2.079 . S
C382 O379 1.250 . S
C382 O380 1.248 . S
C383 O384 1.264 . S
C383 O391 1.249 . S
O384 C383 1.264 . S
O385 Mg378 1.986 . S
O385 C389 1.246 . S
O386 Mg381 2.032 . S
O386 C389 1.259 . S
O387 Mg378 2.114 . S
O387 C390 1.252 . S
O388 Mg378 2.251 . S
O388 Mg381 2.079 . S
O388 C390 1.273 . S
C389 O385 1.246 . S
C389 O386 1.259 . S
C390 O387 1.252 . S
C390 O388 1.273 . S
O391 Mg378 2.010 . S
O391 C383 1.249 . S
Mg392 O393 2.028 . S
Mg392 O399 1.986 . S
Mg392 O401 2.114 . S
Mg392 O402 2.251 . S
Mg392 O405 2.010 . S
O393 Mg392 2.028 . S
O393 C396 1.250 . S
O394 Mg395 2.028 . S
O394 C396 1.248 . S
Mg395 O394 2.028 . S
Mg395 O400 2.032 . S
Mg395 O402 2.079 . S
C396 O393 1.250 . S
C396 O394 1.248 . S
C397 O398 1.264 . S
C397 O405 1.249 . S
O398 C397 1.264 . S
O399 Mg392 1.986 . S
O399 C403 1.246 . S
O400 Mg395 2.032 . S
O400 C403 1.259 . S
O401 Mg392 2.114 . S
O401 C404 1.252 . S
O402 Mg392 2.251 . S
O402 Mg395 2.079 . S
O402 C404 1.273 . S
C403 O399 1.246 . S
C403 O400 1.259 . S
C404 O401 1.252 . S
C404 O402 1.273 . S
O405 Mg392 2.010 . S
O405 C397 1.249 . S
Mg406 O407 2.028 . S
Mg406 O413 1.986 . S
Mg406 O415 2.114 . S
Mg406 O416 2.251 . S
Mg406 O419 2.010 . S
O407 Mg406 2.028 . S
O407 C410 1.250 . S
O408 Mg409 2.028 . S
O408 C410 1.248 . S
Mg409 O408 2.028 . S
Mg409 O414 2.032 . S
Mg409 O416 2.079 . S
C410 O407 1.250 . S
C410 O408 1.248 . S
C411 O412 1.264 . S
C411 O419 1.249 . S
O412 C411 1.264 . S
O413 Mg406 1.986 . S
O413 C417 1.246 . S
O414 Mg409 2.032 . S
O414 C417 1.259 . S
O415 Mg406 2.114 . S
O415 C418 1.252 . S
O416 Mg406 2.251 . S
O416 Mg409 2.079 . S
O416 C418 1.273 . S
C417 O413 1.246 . S
C417 O414 1.259 . S
C418 O415 1.252 . S
C418 O416 1.273 . S
O419 Mg406 2.010 . S
O419 C411 1.249 . S
Mg420 O421 2.028 . S
Mg420 O427 1.986 . S
Mg420 O429 2.114 . S
Mg420 O430 2.251 . S
Mg420 O433 2.010 . S
O421 Mg420 2.028 . S
O421 C424 1.250 . S
O422 Mg423 2.028 . S
O422 C424 1.248 . S
Mg423 O422 2.028 . S
Mg423 O428 2.032 . S
Mg423 O430 2.079 . S
C424 O421 1.250 . S
C424 O422 1.248 . S
C425 O426 1.264 1_554 S
C425 O433 1.249 . S
O426 C425 1.264 1_556 S
O427 Mg420 1.986 . S
O427 C431 1.246 . S
O428 Mg423 2.032 . S
O428 C431 1.259 . S
O429 Mg420 2.114 . S
O429 C432 1.252 . S
O430 Mg420 2.251 . S
O430 Mg423 2.079 . S
O430 C432 1.273 . S
C431 O427 1.246 . S
C431 O428 1.259 . S
C432 O429 1.252 . S
C432 O430 1.273 . S
O433 Mg420 2.010 . S
O433 C425 1.249 . S
Mg434 O435 2.028 . S
Mg434 O441 1.986 . S
Mg434 O443 2.114 . S
Mg434 O444 2.251 . S
Mg434 O447 2.010 . S
O435 Mg434 2.028 . S
O435 C438 1.250 . S
O436 Mg437 2.028 . S
O436 C438 1.248 1_554 S
Mg437 O436 2.028 . S
Mg437 O442 2.032 1_554 S
Mg437 O444 2.079 1_554 S
C438 O435 1.250 . S
C438 O436 1.248 1_556 S
C439 O440 1.264 . S
C439 O447 1.249 . S
O440 C439 1.264 . S
O441 Mg434 1.986 . S
O441 C445 1.246 . S
O442 Mg437 2.032 1_556 S
O442 C445 1.259 . S
O443 Mg434 2.114 . S
O443 C446 1.252 . S
O444 Mg434 2.251 . S
O444 Mg437 2.079 1_556 S
O444 C446 1.273 . S
C445 O441 1.246 . S
C445 O442 1.259 . S
C446 O443 1.252 . S
C446 O444 1.273 . S
O447 Mg434 2.010 . S
O447 C439 1.249 . S
H448 C456 0.950 . S
H449 C461 0.950 . S
H450 C458 0.950 . S
H451 C460 0.950 . S
H452 C462 0.950 . S
H453 C464 0.950 . S
H454 C466 0.950 . S
H455 C467 0.950 . S
C456 H448 0.950 . S
C456 C457 1.386 . S
C456 C458 1.391 . S
C457 C456 1.386 . S
C457 C461 1.393 . S
C458 H450 0.950 . S
C458 C456 1.391 . S
C458 C459 1.400 . S
C459 C458 1.400 . S
C459 C460 1.398 . S
C459 C465 1.491 . S
C460 H451 0.950 . S
C460 C459 1.398 . S
C460 C461 1.391 . S
C461 H449 0.950 . S
C461 C457 1.393 . S
C461 C460 1.391 . S
C462 H452 0.950 . S
C462 C463 1.386 . S
C462 C464 1.391 . S
C463 C462 1.386 . S
C463 C467 1.393 . S
C464 H453 0.950 . S
C464 C462 1.391 . S
C464 C465 1.400 . S
C465 C459 1.491 . S
C465 C464 1.400 . S
C465 C466 1.398 . S
C466 H454 0.950 . S
C466 C465 1.398 . S
C466 C467 1.391 . S
C467 H455 0.950 . S
C467 C463 1.393 . S
C467 C466 1.391 . S
H468 C476 0.950 . S
H469 C481 0.950 . S
H470 C478 0.950 . S
H471 C480 0.950 . S
H472 C482 0.950 . S
H473 C484 0.950 . S
H474 C486 0.950 . S
H475 C487 0.950 . S
C476 H468 0.950 . S
C476 C477 1.386 . S
C476 C478 1.391 . S
C477 C476 1.386 . S
C477 C481 1.393 . S
C478 H470 0.950 . S
C478 C476 1.391 . S
C478 C479 1.400 . S
C479 C478 1.400 . S
C479 C480 1.398 . S
C479 C485 1.491 1_565 S
C480 H471 0.950 . S
C480 C479 1.398 . S
C480 C481 1.391 . S
C481 H469 0.950 . S
C481 C477 1.393 . S
C481 C480 1.391 . S
C482 H472 0.950 . S
C482 C483 1.386 . S
C482 C484 1.391 . S
C483 C482 1.386 . S
C483 C487 1.393 . S
C484 H473 0.950 . S
C484 C482 1.391 . S
C484 C485 1.400 . S
C485 C479 1.491 1_545 S
C485 C484 1.400 . S
C485 C486 1.398 . S
C486 H474 0.950 . S
C486 C485 1.398 . S
C486 C487 1.391 . S
C487 H475 0.950 . S
C487 C483 1.393 . S
C487 C486 1.391 . S
H488 C496 0.950 . S
H489 C501 0.950 . S
H490 C498 0.950 . S
H491 C500 0.950 . S
H492 C502 0.950 . S
H493 C504 0.950 . S
H494 C506 0.950 . S
H495 C507 0.950 . S
C496 H488 0.950 . S
C496 C497 1.386 . S
C496 C498 1.391 . S
C497 C496 1.386 . S
C497 C501 1.393 . S
C498 H490 0.950 . S
C498 C496 1.391 . S
C498 C499 1.400 . S
C499 C498 1.400 . S
C499 C500 1.398 . S
C499 C505 1.491 . S
C500 H491 0.950 . S
C500 C499 1.398 . S
C500 C501 1.391 . S
C501 H489 0.950 . S
C501 C497 1.393 . S
C501 C500 1.391 . S
C502 H492 0.950 . S
C502 C503 1.386 . S
C502 C504 1.391 . S
C503 C502 1.386 . S
C503 C507 1.393 . S
C504 H493 0.950 . S
C504 C502 1.391 . S
C504 C505 1.400 . S
C505 C499 1.491 . S
C505 C504 1.400 . S
C505 C506 1.398 . S
C506 H494 0.950 . S
C506 C505 1.398 . S
C506 C507 1.391 . S
C507 H495 0.950 . S
C507 C503 1.393 . S
C507 C506 1.391 . S
H508 C516 0.950 . S
H509 C521 0.950 . S
H510 C518 0.950 . S
H511 C520 0.950 . S
H512 C522 0.950 . S
H513 C524 0.950 . S
H514 C526 0.950 . S
H515 C527 0.950 . S
C516 H508 0.950 . S
C516 C517 1.386 1_554 S
C516 C518 1.391 . S
C517 C516 1.386 1_556 S
C517 C521 1.393 . S
C518 H510 0.950 . S
C518 C516 1.391 . S
C518 C519 1.400 1_554 S
C519 C518 1.400 1_556 S
C519 C520 1.398 . S
C519 C525 1.491 1_546 S
C520 H511 0.950 . S
C520 C519 1.398 . S
C520 C521 1.391 . S
C521 H509 0.950 . S
C521 C517 1.393 . S
C521 C520 1.391 . S
C522 H512 0.950 . S
C522 C523 1.386 1_556 S
C522 C524 1.391 . S
C523 C522 1.386 1_554 S
C523 C527 1.393 . S
C524 H513 0.950 . S
C524 C522 1.391 . S
C524 C525 1.400 1_556 S
C525 C519 1.491 1_564 S
C525 C524 1.400 1_554 S
C525 C526 1.398 . S
C526 H514 0.950 . S
C526 C525 1.398 . S
C526 C527 1.391 . S
C527 H515 0.950 . S
C527 C523 1.393 . S
C527 C526 1.391 . S
H528 C536 0.950 . S
H529 C541 0.950 . S
H530 C538 0.950 . S
H531 C540 0.950 . S
H532 C542 0.950 . S
H533 C544 0.950 . S
H534 C546 0.950 . S
H535 C547 0.950 . S
C536 H528 0.950 . S
C536 C537 1.386 . S
C536 C538 1.391 . S
C537 C536 1.386 . S
C537 C541 1.393 . S
C538 H530 0.950 . S
C538 C536 1.391 . S
C538 C539 1.400 . S
C539 C538 1.400 . S
C539 C540 1.398 . S
C539 C545 1.491 . S
C540 H531 0.950 . S
C540 C539 1.398 . S
C540 C541 1.391 . S
C541 H529 0.950 . S
C541 C537 1.393 . S
C541 C540 1.391 . S
C542 H532 0.950 . S
C542 C543 1.386 . S
C542 C544 1.391 . S
C543 C542 1.386 . S
C543 C547 1.393 . S
C544 H533 0.950 . S
C544 C542 1.391 . S
C544 C545 1.400 . S
C545 C539 1.491 . S
C545 C544 1.400 . S
C545 C546 1.398 . S
C546 H534 0.950 . S
C546 C545 1.398 . S
C546 C547 1.391 . S
C547 H535 0.950 . S
C547 C543 1.393 . S
C547 C546 1.391 . S
H548 C556 0.950 . S
H549 C561 0.950 . S
H550 C558 0.950 . S
H551 C560 0.950 . S
H552 C562 0.950 . S
H553 C564 0.950 . S
H554 C566 0.950 . S
H555 C567 0.950 . S
C556 H548 0.950 . S
C556 C557 1.386 . S
C556 C558 1.391 . S
C557 C556 1.386 . S
C557 C561 1.393 . S
C558 H550 0.950 . S
C558 C556 1.391 . S
C558 C559 1.400 . S
C559 C558 1.400 . S
C559 C560 1.398 . S
C559 C565 1.491 1_565 S
C560 H551 0.950 . S
C560 C559 1.398 . S
C560 C561 1.391 . S
C561 H549 0.950 . S
C561 C557 1.393 . S
C561 C560 1.391 . S
C562 H552 0.950 . S
C562 C563 1.386 . S
C562 C564 1.391 . S
C563 C562 1.386 . S
C563 C567 1.393 . S
C564 H553 0.950 . S
C564 C562 1.391 . S
C564 C565 1.400 . S
C565 C559 1.491 1_545 S
C565 C564 1.400 . S
C565 C566 1.398 . S
C566 H554 0.950 . S
C566 C565 1.398 . S
C566 C567 1.391 . S
C567 H555 0.950 . S
C567 C563 1.393 . S
C567 C566 1.391 . S
H568 C576 0.950 . S
H569 C581 0.950 . S
H570 C578 0.950 . S
H571 C580 0.950 . S
H572 C582 0.950 . S
H573 C584 0.950 . S
H574 C586 0.950 . S
H575 C587 0.950 . S
C576 H568 0.950 . S
C576 C577 1.386 . S
C576 C578 1.391 . S
C577 C576 1.386 . S
C577 C581 1.393 . S
C578 H570 0.950 . S
C578 C576 1.391 . S
C578 C579 1.400 . S
C579 C578 1.400 . S
C579 C580 1.398 . S
C579 C585 1.491 . S
C580 H571 0.950 . S
C580 C579 1.398 . S
C580 C581 1.391 . S
C581 H569 0.950 . S
C581 C577 1.393 . S
C581 C580 1.391 . S
C582 H572 0.950 . S
C582 C583 1.386 . S
C582 C584 1.391 . S
C583 C582 1.386 . S
C583 C587 1.393 . S
C584 H573 0.950 . S
C584 C582 1.391 . S
C584 C585 1.400 . S
C585 C579 1.491 . S
C585 C584 1.400 . S
C585 C586 1.398 . S
C586 H574 0.950 . S
C586 C585 1.398 . S
C586 C587 1.391 . S
C587 H575 0.950 . S
C587 C583 1.393 . S
C587 C586 1.391 . S
H588 C596 0.950 . S
H589 C601 0.950 . S
H590 C598 0.950 . S
H591 C600 0.950 . S
H592 C602 0.950 . S
H593 C604 0.950 . S
H594 C606 0.950 . S
H595 C607 0.950 . S
C596 H588 0.950 . S
C596 C597 1.386 1_554 S
C596 C598 1.391 . S
C597 C596 1.386 1_556 S
C597 C601 1.393 . S
C598 H590 0.950 . S
C598 C596 1.391 . S
C598 C599 1.400 1_554 S
C599 C598 1.400 1_556 S
C599 C600 1.398 . S
C599 C605 1.491 1_546 S
C600 H591 0.950 . S
C600 C599 1.398 . S
C600 C601 1.391 . S
C601 H589 0.950 . S
C601 C597 1.393 . S
C601 C600 1.391 . S
C602 H592 0.950 . S
C602 C603 1.386 1_556 S
C602 C604 1.391 . S
C603 C602 1.386 1_554 S
C603 C607 1.393 . S
C604 H593 0.950 . S
C604 C602 1.391 . S
C604 C605 1.400 1_556 S
C605 C599 1.491 1_564 S
C605 C604 1.400 1_554 S
C605 C606 1.398 . S
C606 H594 0.950 . S
C606 C605 1.398 . S
C606 C607 1.391 . S
C607 H595 0.950 . S
C607 C603 1.393 . S
C607 C606 1.391 . S
H608 C616 0.950 . S
H609 C621 0.950 . S
H610 C618 0.950 . S
H611 C620 0.950 . S
H612 C622 0.950 . S
H613 C624 0.950 . S
H614 C626 0.950 . S
H615 C627 0.950 . S
C616 H608 0.950 . S
C616 C617 1.386 . S
C616 C618 1.391 . S
C617 C616 1.386 . S
C617 C621 1.393 . S
C618 H610 0.950 . S
C618 C616 1.391 . S
C618 C619 1.400 . S
C619 C618 1.400 . S
C619 C620 1.398 . S
C619 C625 1.491 . S
C620 H611 0.950 . S
C620 C619 1.398 . S
C620 C621 1.391 . S
C621 H609 0.950 . S
C621 C617 1.393 . S
C621 C620 1.391 . S
C622 H612 0.950 . S
C622 C623 1.386 . S
C622 C624 1.391 . S
C623 C622 1.386 . S
C623 C627 1.393 . S
C624 H613 0.950 . S
C624 C622 1.391 . S
C624 C625 1.400 . S
C625 C619 1.491 . S
C625 C624 1.400 . S
C625 C626 1.398 . S
C626 H614 0.950 . S
C626 C625 1.398 . S
C626 C627 1.391 . S
C627 H615 0.950 . S
C627 C623 1.393 . S
C627 C626 1.391 . S
H628 C636 0.950 1_554 S
H629 C641 0.950 . S
H630 C638 0.950 . S
H631 C640 0.950 . S
H632 C642 0.950 1_556 S
H633 C644 0.950 . S
H634 C646 0.950 . S
H635 C647 0.950 . S
C636 H628 0.950 1_556 S
C636 C637 1.386 . S
C636 C638 1.391 1_556 S
C637 C636 1.386 . S
C637 C641 1.393 . S
C638 H630 0.950 . S
C638 C636 1.391 1_554 S
C638 C639 1.400 1_554 S
C639 C638 1.400 1_556 S
C639 C640 1.398 . S
C639 C645 1.491 1_556 S
C640 H631 0.950 . S
C640 C639 1.398 . S
C640 C641 1.391 . S
C641 H629 0.950 . S
C641 C637 1.393 . S
C641 C640 1.391 . S
C642 H632 0.950 1_554 S
C642 C643 1.386 . S
C642 C644 1.391 1_554 S
C643 C642 1.386 . S
C643 C647 1.393 . S
C644 H633 0.950 . S
C644 C642 1.391 1_556 S
C644 C645 1.400 1_556 S
C645 C639 1.491 1_554 S
C645 C644 1.400 1_554 S
C645 C646 1.398 . S
C646 H634 0.950 . S
C646 C645 1.398 . S
C646 C647 1.391 . S
C647 H635 0.950 . S
C647 C643 1.393 . S
C647 C646 1.391 . S
H648 C656 0.950 . S
H649 C661 0.950 . S
H650 C658 0.950 . S
H651 C660 0.950 . S
H652 C662 0.950 . S
H653 C664 0.950 . S
H654 C666 0.950 . S
H655 C667 0.950 . S
C656 H648 0.950 . S
C656 C657 1.386 . S
C656 C658 1.391 . S
C657 C656 1.386 . S
C657 C661 1.393 . S
C658 H650 0.950 . S
C658 C656 1.391 . S
C658 C659 1.400 . S
C659 C658 1.400 . S
C659 C660 1.398 . S
C659 C665 1.491 . S
C660 H651 0.950 . S
C660 C659 1.398 . S
C660 C661 1.391 . S
C661 H649 0.950 . S
C661 C657 1.393 . S
C661 C660 1.391 . S
C662 H652 0.950 . S
C662 C663 1.386 . S
C662 C664 1.391 . S
C663 C662 1.386 . S
C663 C667 1.393 . S
C664 H653 0.950 . S
C664 C662 1.391 . S
C664 C665 1.400 . S
C665 C659 1.491 . S
C665 C664 1.400 . S
C665 C666 1.398 . S
C666 H654 0.950 . S
C666 C665 1.398 . S
C666 C667 1.391 . S
C667 H655 0.950 . S
C667 C663 1.393 . S
C667 C666 1.391 . S
H668 C676 0.950 . S
H669 C681 0.950 . S
H670 C678 0.950 . S
H671 C680 0.950 . S
H672 C682 0.950 . S
H673 C684 0.950 . S
H674 C686 0.950 . S
H675 C687 0.950 . S
C676 H668 0.950 . S
C676 C677 1.386 . S
C676 C678 1.391 . S
C677 C676 1.386 . S
C677 C681 1.393 . S
C678 H670 0.950 . S
C678 C676 1.391 . S
C678 C679 1.400 . S
C679 C678 1.400 . S
C679 C680 1.398 . S
C679 C685 1.491 . S
C680 H671 0.950 . S
C680 C679 1.398 . S
C680 C681 1.391 . S
C681 H669 0.950 . S
C681 C677 1.393 . S
C681 C680 1.391 . S
C682 H672 0.950 . S
C682 C683 1.386 . S
C682 C684 1.391 . S
C683 C682 1.386 . S
C683 C687 1.393 . S
C684 H673 0.950 . S
C684 C682 1.391 . S
C684 C685 1.400 . S
C685 C679 1.491 . S
C685 C684 1.400 . S
C685 C686 1.398 . S
C686 H674 0.950 . S
C686 C685 1.398 . S
C686 C687 1.391 . S
C687 H675 0.950 . S
C687 C683 1.393 . S
C687 C686 1.391 . S
H688 C696 0.950 . S
H689 C701 0.950 . S
H690 C698 0.950 . S
H691 C700 0.950 . S
H692 C702 0.950 . S
H693 C704 0.950 . S
H694 C706 0.950 . S
H695 C707 0.950 . S
C696 H688 0.950 . S
C696 C697 1.386 . S
C696 C698 1.391 . S
C697 C696 1.386 . S
C697 C701 1.393 . S
C698 H690 0.950 . S
C698 C696 1.391 . S
C698 C699 1.400 . S
C699 C698 1.400 . S
C699 C700 1.398 . S
C699 C705 1.491 . S
C700 H691 0.950 . S
C700 C699 1.398 . S
C700 C701 1.391 . S
C701 H689 0.950 . S
C701 C697 1.393 . S
C701 C700 1.391 . S
C702 H692 0.950 . S
C702 C703 1.386 . S
C702 C704 1.391 . S
C703 C702 1.386 . S
C703 C707 1.393 . S
C704 H693 0.950 . S
C704 C702 1.391 . S
C704 C705 1.400 . S
C705 C699 1.491 . S
C705 C704 1.400 . S
C705 C706 1.398 . S
C706 H694 0.950 . S
C706 C705 1.398 . S
C706 C707 1.391 . S
C707 H695 0.950 . S
C707 C703 1.393 . S
C707 C706 1.391 . S
H708 C716 0.950 . S
H709 C721 0.950 . S
H710 C718 0.950 . S
H711 C720 0.950 . S
H712 C722 0.950 . S
H713 C724 0.950 . S
H714 C726 0.950 . S
H715 C727 0.950 . S
C716 H708 0.950 . S
C716 C717 1.386 . S
C716 C718 1.391 . S
C717 C716 1.386 . S
C717 C721 1.393 1_554 S
C718 H710 0.950 . S
C718 C716 1.391 . S
C718 C719 1.400 . S
C719 C718 1.400 . S
C719 C720 1.398 1_554 S
C719 C725 1.491 1_554 S
C720 H711 0.950 . S
C720 C719 1.398 1_556 S
C720 C721 1.391 . S
C721 H709 0.950 . S
C721 C717 1.393 1_556 S
C721 C720 1.391 . S
C722 H712 0.950 . S
C722 C723 1.386 . S
C722 C724 1.391 . S
C723 C722 1.386 . S
C723 C727 1.393 1_556 S
C724 H713 0.950 . S
C724 C722 1.391 . S
C724 C725 1.400 . S
C725 C719 1.491 1_556 S
C725 C724 1.400 . S
C725 C726 1.398 1_556 S
C726 H714 0.950 . S
C726 C725 1.398 1_554 S
C726 C727 1.391 . S
C727 H715 0.950 . S
C727 C723 1.393 1_554 S
C727 C726 1.391 . S
H728 C736 0.950 . S
H729 C741 0.950 . S
H730 C738 0.950 . S
H731 C740 0.950 . S
H732 C742 0.950 . S
H733 C744 0.950 . S
H734 C746 0.950 . S
H735 C747 0.950 . S
C736 H728 0.950 . S
C736 C737 1.386 . S
C736 C738 1.391 . S
C737 C736 1.386 . S
C737 C741 1.393 . S
C738 H730 0.950 . S
C738 C736 1.391 . S
C738 C739 1.400 . S
C739 C738 1.400 . S
C739 C740 1.398 . S
C739 C745 1.491 . S
C740 H731 0.950 . S
C740 C739 1.398 . S
C740 C741 1.391 . S
C741 H729 0.950 . S
C741 C737 1.393 . S
C741 C740 1.391 . S
C742 H732 0.950 . S
C742 C743 1.386 . S
C742 C744 1.391 . S
C743 C742 1.386 . S
C743 C747 1.393 . S
C744 H733 0.950 . S
C744 C742 1.391 . S
C744 C745 1.400 . S
C745 C739 1.491 . S
C745 C744 1.400 . S
C745 C746 1.398 . S
C746 H734 0.950 . S
C746 C745 1.398 . S
C746 C747 1.391 . S
C747 H735 0.950 . S
C747 C743 1.393 . S
C747 C746 1.391 . S
H748 C756 0.950 . S
H749 C761 0.950 . S
H750 C758 0.950 . S
H751 C760 0.950 . S
H752 C762 0.950 . S
H753 C764 0.950 . S
H754 C766 0.950 . S
H755 C767 0.950 . S
C756 H748 0.950 . S
C756 C757 1.386 . S
C756 C758 1.391 . S
C757 C756 1.386 . S
C757 C761 1.393 . S
C758 H750 0.950 . S
C758 C756 1.391 . S
C758 C759 1.400 . S
C759 C758 1.400 . S
C759 C760 1.398 . S
C759 C765 1.491 . S
C760 H751 0.950 . S
C760 C759 1.398 . S
C760 C761 1.391 . S
C761 H749 0.950 . S
C761 C757 1.393 . S
C761 C760 1.391 . S
C762 H752 0.950 . S
C762 C763 1.386 . S
C762 C764 1.391 . S
C763 C762 1.386 . S
C763 C767 1.393 . S
C764 H753 0.950 . S
C764 C762 1.391 . S
C764 C765 1.400 . S
C765 C759 1.491 . S
C765 C764 1.400 . S
C765 C766 1.398 . S
C766 H754 0.950 . S
C766 C765 1.398 . S
C766 C767 1.391 . S
C767 H755 0.950 . S
C767 C763 1.393 . S
C767 C766 1.391 . S
H768 C776 0.950 . S
H769 C781 0.947 1_554 S
H770 C778 0.950 . S
H771 C780 0.950 . S
H772 C782 0.950 . S
H773 C784 0.950 . S
H774 C786 0.950 . S
H775 C787 0.950 . S
C776 H768 0.950 . S
C776 C777 1.370 1_556 S
C776 C778 1.391 . S
C777 C776 1.370 1_554 S
C777 C781 1.393 1_554 S
C778 H770 0.950 . S
C778 C776 1.391 . S
C778 C779 1.400 . S
C779 C778 1.400 . S
C779 C780 1.398 . S
C779 C785 1.491 . S
C780 H771 0.950 . S
C780 C779 1.398 . S
C780 C781 1.394 . S
C781 H769 0.947 1_556 S
C781 C777 1.393 1_556 S
C781 C780 1.394 . S
C782 H772 0.950 . S
C782 C783 1.386 . S
C782 C784 1.391 . S
C783 C782 1.386 . S
C783 C787 1.393 . S
C784 H773 0.950 . S
C784 C782 1.391 . S
C784 C785 1.400 . S
C785 C779 1.491 . S
C785 C784 1.400 . S
C785 C786 1.398 . S
C786 H774 0.950 . S
C786 C785 1.398 . S
C786 C787 1.391 . S
C787 H775 0.950 . S
C787 C783 1.393 . S
C787 C786 1.391 . S
H788 C796 0.950 . S
H789 C801 0.950 1_556 S
H790 C798 0.950 . S
H791 C800 0.950 . S
H792 C802 0.950 . S
H793 C804 0.950 . S
H794 C806 0.950 . S
H795 C807 0.950 . S
C796 H788 0.950 . S
C796 C797 1.381 1_554 S
C796 C798 1.391 . S
C797 C796 1.381 1_556 S
C797 C801 1.391 1_556 S
C798 H790 0.950 . S
C798 C796 1.391 . S
C798 C799 1.400 . S
C799 C798 1.400 . S
C799 C800 1.398 . S
C799 C805 1.491 . S
C800 H791 0.950 . S
C800 C799 1.398 . S
C800 C801 1.391 . S
C801 H789 0.950 1_554 S
C801 C797 1.391 1_554 S
C801 C800 1.391 . S
C802 H792 0.950 . S
C802 C803 1.386 . S
C802 C804 1.391 . S
C803 C802 1.386 . S
C803 C807 1.393 . S
C804 H793 0.950 . S
C804 C802 1.391 . S
C804 C805 1.400 . S
C805 C799 1.491 . S
C805 C804 1.400 . S
C805 C806 1.398 . S
C806 H794 0.950 . S
C806 C805 1.398 . S
C806 C807 1.391 . S
C807 H795 0.950 . S
C807 C803 1.393 . S
C807 C806 1.391 . S
H808 C816 0.950 . S
H809 C821 0.950 . S
H810 C818 0.950 . S
H811 C820 0.950 . S
H812 C822 0.950 . S
H813 C824 0.950 . S
H814 C826 0.950 . S
H815 C827 0.950 . S
C816 H808 0.950 . S
C816 C817 1.386 . S
C816 C818 1.391 . S
C817 C816 1.386 . S
C817 C821 1.393 . S
C818 H810 0.950 . S
C818 C816 1.391 . S
C818 C819 1.400 . S
C819 C818 1.400 . S
C819 C820 1.398 . S
C819 C825 1.491 . S
C820 H811 0.950 . S
C820 C819 1.398 . S
C820 C821 1.391 . S
C821 H809 0.950 . S
C821 C817 1.393 . S
C821 C820 1.391 . S
C822 H812 0.950 . S
C822 C823 1.386 . S
C822 C824 1.391 . S
C823 C822 1.386 . S
C823 C827 1.393 . S
C824 H813 0.950 . S
C824 C822 1.391 . S
C824 C825 1.400 . S
C825 C819 1.491 . S
C825 C824 1.400 . S
C825 C826 1.398 . S
C826 H814 0.950 . S
C826 C825 1.398 . S
C826 C827 1.391 . S
C827 H815 0.950 . S
C827 C823 1.393 . S
C827 C826 1.391 . S
H828 C836 0.950 . S
H829 C841 0.950 . S
H830 C838 0.950 . S
H831 C840 0.950 . S
H832 C842 0.950 . S
H833 C844 0.950 . S
H834 C846 0.950 . S
H835 C847 0.950 . S
C836 H828 0.950 . S
C836 C837 1.386 . S
C836 C838 1.391 . S
C837 C836 1.386 . S
C837 C841 1.393 . S
C838 H830 0.950 . S
C838 C836 1.391 . S
C838 C839 1.400 . S
C839 C838 1.400 . S
C839 C840 1.398 . S
C839 C845 1.491 . S
C840 H831 0.950 . S
C840 C839 1.398 . S
C840 C841 1.391 . S
C841 H829 0.950 . S
C841 C837 1.393 . S
C841 C840 1.391 . S
C842 H832 0.950 . S
C842 C843 1.386 . S
C842 C844 1.391 . S
C843 C842 1.386 . S
C843 C847 1.393 . S
C844 H833 0.950 . S
C844 C842 1.391 . S
C844 C845 1.400 . S
C845 C839 1.491 . S
C845 C844 1.400 . S
C845 C846 1.398 . S
C846 H834 0.950 . S
C846 C845 1.398 . S
C846 C847 1.391 . S
C847 H835 0.950 . S
C847 C843 1.393 . S
C847 C846 1.391 . S
H848 C856 0.950 . S
H849 C861 0.954 . S
H850 C858 0.950 . S
H851 C860 0.950 . S
H852 C862 0.950 . S
H853 C864 0.950 . S
H854 C866 0.950 . S
H855 C867 0.950 . S
C856 H848 0.950 . S
C856 C857 1.386 1_554 S
C856 C858 1.391 . S
C857 C856 1.386 1_556 S
C857 C861 1.393 . S
C858 H850 0.950 . S
C858 C856 1.391 . S
C858 C859 1.400 . S
C859 C858 1.400 . S
C859 C860 1.398 . S
C859 C865 1.491 . S
C860 H851 0.950 . S
C860 C859 1.398 . S
C860 C861 1.387 1_554 S
C861 H849 0.954 . S
C861 C857 1.393 . S
C861 C860 1.387 1_556 S
C862 H852 0.950 . S
C862 C863 1.386 . S
C862 C864 1.391 . S
C863 C862 1.386 . S
C863 C867 1.393 . S
C864 H853 0.950 . S
C864 C862 1.391 . S
C864 C865 1.400 . S
C865 C859 1.491 . S
C865 C864 1.400 . S
C865 C866 1.398 . S
C866 H854 0.950 . S
C866 C865 1.398 . S
C866 C867 1.391 . S
C867 H855 0.950 . S
C867 C863 1.393 . S
C867 C866 1.391 . S
H868 C876 0.950 . S
H869 C881 0.950 . S
H870 C878 0.950 . S
H871 C880 0.950 . S
H872 C882 0.950 . S
H873 C884 0.950 . S
H874 C886 0.950 . S
H875 C887 0.950 . S
C876 H868 0.950 . S
C876 C877 1.385 1_556 S
C876 C878 1.391 . S
C877 C876 1.385 1_554 S
C877 C881 1.392 1_554 S
C878 H870 0.950 . S
C878 C876 1.391 . S
C878 C879 1.400 . S
C879 C878 1.400 . S
C879 C880 1.398 . S
C879 C885 1.491 . S
C880 H871 0.950 . S
C880 C879 1.398 . S
C880 C881 1.391 . S
C881 H869 0.950 . S
C881 C877 1.392 1_556 S
C881 C880 1.391 . S
C882 H872 0.950 . S
C882 C883 1.386 . S
C882 C884 1.391 . S
C883 C882 1.386 . S
C883 C887 1.393 . S
C884 H873 0.950 . S
C884 C882 1.391 . S
C884 C885 1.400 . S
C885 C879 1.491 . S
C885 C884 1.400 . S
C885 C886 1.398 . S
C886 H874 0.950 . S
C886 C885 1.398 . S
C886 C887 1.391 . S
C887 H875 0.950 . S
C887 C883 1.393 . S
C887 C886 1.391 . S
H888 C896 0.950 . S
H889 C901 0.950 . S
H890 C898 0.950 . S
H891 C900 0.950 . S
H892 C902 0.950 . S
H893 C904 0.950 . S
H894 C906 0.950 . S
H895 C907 0.950 . S
C896 H888 0.950 . S
C896 C897 1.386 . S
C896 C898 1.391 . S
C897 C896 1.386 . S
C897 C901 1.393 . S
C898 H890 0.950 . S
C898 C896 1.391 . S
C898 C899 1.400 . S
C899 C898 1.400 . S
C899 C900 1.398 . S
C899 C905 1.491 . S
C900 H891 0.950 . S
C900 C899 1.398 . S
C900 C901 1.391 . S
C901 H889 0.950 . S
C901 C897 1.393 . S
C901 C900 1.391 . S
C902 H892 0.950 . S
C902 C903 1.386 . S
C902 C904 1.391 . S
C903 C902 1.386 . S
C903 C907 1.393 . S
C904 H893 0.950 . S
C904 C902 1.391 . S
C904 C905 1.400 . S
C905 C899 1.491 . S
C905 C904 1.400 . S
C905 C906 1.398 . S
C906 H894 0.950 . S
C906 C905 1.398 . S
C906 C907 1.391 . S
C907 H895 0.950 . S
C907 C903 1.393 . S
C907 C906 1.391 . S
H908 C916 0.950 . S
H909 C921 0.950 . S
H910 C918 0.950 . S
H911 C920 0.950 . S
H912 C922 0.950 . S
H913 C924 0.950 . S
H914 C926 0.950 . S
H915 C927 0.950 . S
C916 H908 0.950 . S
C916 C917 1.386 . S
C916 C918 1.391 . S
C917 C916 1.386 . S
C917 C921 1.393 . S
C918 H910 0.950 . S
C918 C916 1.391 . S
C918 C919 1.400 . S
C919 C918 1.400 . S
C919 C920 1.398 . S
C919 C925 1.491 . S
C920 H911 0.950 . S
C920 C919 1.398 . S
C920 C921 1.391 . S
C921 H909 0.950 . S
C921 C917 1.393 . S
C921 C920 1.391 . S
C922 H912 0.950 . S
C922 C923 1.386 . S
C922 C924 1.391 . S
C923 C922 1.386 . S
C923 C927 1.393 . S
C924 H913 0.950 . S
C924 C922 1.391 . S
C924 C925 1.400 . S
C925 C919 1.491 . S
C925 C924 1.400 . S
C925 C926 1.398 . S
C926 H914 0.950 . S
C926 C925 1.398 . S
C926 C927 1.391 . S
C927 H915 0.950 . S
C927 C923 1.393 . S
C927 C926 1.391 . S
H928 C936 0.950 . S
H929 C941 0.950 . S
H930 C938 0.950 . S
H931 C940 0.950 . S
H932 C942 0.950 . S
H933 C944 0.950 . S
H934 C946 0.950 . S
H935 C947 0.950 . S
C936 H928 0.950 . S
C936 C937 1.386 . S
C936 C938 1.391 . S
C937 C936 1.386 . S
C937 C941 1.393 . S
C938 H930 0.950 . S
C938 C936 1.391 . S
C938 C939 1.400 . S
C939 C938 1.400 . S
C939 C940 1.398 . S
C939 C945 1.491 . S
C940 H931 0.950 . S
C940 C939 1.398 . S
C940 C941 1.391 . S
C941 H929 0.950 . S
C941 C937 1.393 . S
C941 C940 1.391 . S
C942 H932 0.950 . S
C942 C943 1.386 . S
C942 C944 1.391 . S
C943 C942 1.386 . S
C943 C947 1.393 . S
C944 H933 0.950 . S
C944 C942 1.391 . S
C944 C945 1.400 . S
C945 C939 1.491 . S
C945 C944 1.400 . S
C945 C946 1.398 . S
C946 H934 0.950 . S
C946 C945 1.398 . S
C946 C947 1.391 . S
C947 H935 0.950 . S
C947 C943 1.393 . S
C947 C946 1.391 . S
H948 C956 0.950 . S
H949 C961 0.950 . S
H950 C958 0.950 . S
H951 C960 0.950 . S
H952 C962 0.950 . S
H953 C964 0.950 . S
H954 C966 0.950 . S
H955 C967 0.950 . S
C956 H948 0.950 . S
C956 C957 1.386 . S
C956 C958 1.391 . S
C957 C956 1.386 . S
C957 C961 1.393 . S
C958 H950 0.950 . S
C958 C956 1.391 . S
C958 C959 1.400 . S
C959 C958 1.400 . S
C959 C960 1.398 . S
C959 C965 1.491 . S
C960 H951 0.950 . S
C960 C959 1.398 . S
C960 C961 1.391 . S
C961 H949 0.950 . S
C961 C957 1.393 . S
C961 C960 1.391 . S
C962 H952 0.950 . S
C962 C963 1.386 . S
C962 C964 1.391 . S
C963 C962 1.386 . S
C963 C967 1.393 . S
C964 H953 0.950 . S
C964 C962 1.391 . S
C964 C965 1.400 . S
C965 C959 1.491 . S
C965 C964 1.400 . S
C965 C966 1.398 . S
C966 H954 0.950 . S
C966 C965 1.398 . S
C966 C967 1.391 . S
C967 H955 0.950 . S
C967 C963 1.393 . S
C967 C966 1.391 . S
H968 C976 0.950 . S
H969 C981 0.950 . S
H970 C978 0.950 . S
H971 C980 0.950 . S
H972 C982 0.950 1_554 S
H973 C984 0.950 . S
H974 C986 0.950 . S
H975 C987 0.950 . S
C976 H968 0.950 . S
C976 C977 1.386 . S
C976 C978 1.391 . S
C977 C976 1.386 . S
C977 C981 1.393 . S
C978 H970 0.950 . S
C978 C976 1.391 . S
C978 C979 1.400 . S
C979 C978 1.400 . S
C979 C980 1.398 . S
C979 C985 1.491 . S
C980 H971 0.950 . S
C980 C979 1.398 . S
C980 C981 1.391 . S
C981 H969 0.950 . S
C981 C977 1.393 . S
C981 C980 1.391 . S
C982 H972 0.950 1_556 S
C982 C983 1.386 1_556 S
C982 C984 1.391 . S
C983 C982 1.386 1_554 S
C983 C987 1.393 1_554 S
C984 H973 0.950 . S
C984 C982 1.391 . S
C984 C985 1.400 . S
C985 C979 1.491 . S
C985 C984 1.400 . S
C985 C986 1.398 . S
C986 H974 0.950 . S
C986 C985 1.398 . S
C986 C987 1.391 . S
C987 H975 0.950 . S
C987 C983 1.393 1_556 S
C987 C986 1.391 . S
H988 C996 0.950 . S
H989 C1001 0.950 . S
H990 C998 0.950 . S
H991 C1000 0.950 . S
H992 C1002 0.950 . S
H993 C1004 0.950 . S
H994 C1006 0.950 . S
H995 C1007 0.950 . S
C996 H988 0.950 . S
C996 C997 1.386 . S
C996 C998 1.391 . S
C997 C996 1.386 . S
C997 C1001 1.393 . S
C998 H990 0.950 . S
C998 C996 1.391 . S
C998 C999 1.400 . S
C999 C998 1.400 . S
C999 C1000 1.398 . S
C999 C1005 1.491 . S
C1000 H991 0.950 . S
C1000 C999 1.398 . S
C1000 C1001 1.391 . S
C1001 H989 0.950 . S
C1001 C997 1.393 . S
C1001 C1000 1.391 . S
C1002 H992 0.950 . S
C1002 C1003 1.386 1_554 S
C1002 C1004 1.391 . S
C1003 C1002 1.386 1_556 S
C1003 C1007 1.393 . S
C1004 H993 0.950 . S
C1004 C1002 1.391 . S
C1004 C1005 1.400 . S
C1005 C999 1.491 . S
C1005 C1004 1.400 . S
C1005 C1006 1.398 . S
C1006 H994 0.950 . S
C1006 C1005 1.398 . S
C1006 C1007 1.391 1_554 S
C1007 H995 0.950 . S
C1007 C1003 1.393 . S
C1007 C1006 1.391 1_556 S
H1008 C1016 0.950 . S
H1009 C1021 0.950 . S
H1010 C1018 0.950 . S
H1011 C1020 0.950 . S
H1012 C1022 0.950 . S
H1013 C1024 0.950 . S
H1014 C1026 0.950 . S
H1015 C1027 0.950 . S
C1016 H1008 0.950 . S
C1016 C1017 1.386 . S
C1016 C1018 1.391 . S
C1017 C1016 1.386 . S
C1017 C1021 1.393 . S
C1018 H1010 0.950 . S
C1018 C1016 1.391 . S
C1018 C1019 1.400 . S
C1019 C1018 1.400 . S
C1019 C1020 1.398 . S
C1019 C1025 1.491 . S
C1020 H1011 0.950 . S
C1020 C1019 1.398 . S
C1020 C1021 1.391 . S
C1021 H1009 0.950 . S
C1021 C1017 1.393 . S
C1021 C1020 1.391 . S
C1022 H1012 0.950 . S
C1022 C1023 1.386 . S
C1022 C1024 1.391 . S
C1023 C1022 1.386 . S
C1023 C1027 1.393 . S
C1024 H1013 0.950 . S
C1024 C1022 1.391 . S
C1024 C1025 1.400 . S
C1025 C1019 1.491 . S
C1025 C1024 1.400 . S
C1025 C1026 1.398 . S
C1026 H1014 0.950 . S
C1026 C1025 1.398 . S
C1026 C1027 1.391 . S
C1027 H1015 0.950 . S
C1027 C1023 1.393 . S
C1027 C1026 1.391 . S
H1028 C1036 0.950 . S
H1029 C1041 0.950 . S
H1030 C1038 0.950 . S
H1031 C1040 0.950 . S
H1032 C1042 0.950 . S
H1033 C1044 0.950 . S
H1034 C1046 0.950 . S
H1035 C1047 0.950 . S
C1036 H1028 0.950 . S
C1036 C1037 1.386 . S
C1036 C1038 1.391 . S
C1037 C1036 1.386 . S
C1037 C1041 1.393 . S
C1038 H1030 0.950 . S
C1038 C1036 1.391 . S
C1038 C1039 1.400 . S
C1039 C1038 1.400 . S
C1039 C1040 1.398 . S
C1039 C1045 1.491 . S
C1040 H1031 0.950 . S
C1040 C1039 1.398 . S
C1040 C1041 1.391 . S
C1041 H1029 0.950 . S
C1041 C1037 1.393 . S
C1041 C1040 1.391 . S
C1042 H1032 0.950 . S
C1042 C1043 1.386 . S
C1042 C1044 1.391 . S
C1043 C1042 1.386 . S
C1043 C1047 1.393 . S
C1044 H1033 0.950 . S
C1044 C1042 1.391 . S
C1044 C1045 1.400 . S
C1045 C1039 1.491 . S
C1045 C1044 1.400 . S
C1045 C1046 1.398 . S
C1046 H1034 0.950 . S
C1046 C1045 1.398 . S
C1046 C1047 1.391 . S
C1047 H1035 0.950 . S
C1047 C1043 1.393 . S
C1047 C1046 1.391 . S
H1048 C1056 0.950 . S
H1049 C1061 0.950 . S
H1050 C1058 0.950 . S
H1051 C1060 0.950 . S
H1052 C1062 0.950 . S
H1053 C1064 0.950 . S
H1054 C1066 0.950 . S
H1055 C1067 0.950 . S
C1056 H1048 0.950 . S
C1056 C1057 1.386 . S
C1056 C1058 1.391 1_556 S
C1057 C1056 1.386 . S
C1057 C1061 1.376 1_556 S
C1058 H1050 0.950 . S
C1058 C1056 1.391 1_554 S
C1058 C1059 1.400 . S
C1059 C1058 1.400 . S
C1059 C1060 1.398 . S
C1059 C1065 1.491 . S
C1060 H1051 0.950 . S
C1060 C1059 1.398 . S
C1060 C1061 1.391 . S
C1061 H1049 0.950 . S
C1061 C1057 1.376 1_554 S
C1061 C1060 1.391 . S
C1062 H1052 0.950 . S
C1062 C1063 1.386 . S
C1062 C1064 1.391 . S
C1063 C1062 1.386 . S
C1063 C1067 1.393 . S
C1064 H1053 0.950 . S
C1064 C1062 1.391 . S
C1064 C1065 1.400 . S
C1065 C1059 1.491 . S
C1065 C1064 1.400 . S
C1065 C1066 1.398 . S
C1066 H1054 0.950 . S
C1066 C1065 1.398 . S
C1066 C1067 1.391 . S
C1067 H1055 0.950 . S
C1067 C1063 1.393 . S
C1067 C1066 1.391 . S
H1068 C1076 0.950 . S
H1069 C1081 0.950 . S
H1070 C1078 0.950 . S
H1071 C1080 0.950 . S
H1072 C1082 0.950 . S
H1073 C1084 0.950 . S
H1074 C1086 0.950 . S
H1075 C1087 0.950 1_554 S
C1076 H1068 0.950 . S
C1076 C1077 1.386 . S
C1076 C1078 1.391 . S
C1077 C1076 1.386 . S
C1077 C1081 1.393 . S
C1078 H1070 0.950 . S
C1078 C1076 1.391 . S
C1078 C1079 1.400 . S
C1079 C1078 1.400 . S
C1079 C1080 1.398 . S
C1079 C1085 1.491 . S
C1080 H1071 0.950 . S
C1080 C1079 1.398 . S
C1080 C1081 1.391 . S
C1081 H1069 0.950 . S
C1081 C1077 1.393 . S
C1081 C1080 1.391 . S
C1082 H1072 0.950 . S
C1082 C1083 1.386 1_556 S
C1082 C1084 1.391 . S
C1083 C1082 1.386 1_554 S
C1083 C1087 1.393 1_554 S
C1084 H1073 0.950 . S
C1084 C1082 1.391 . S
C1084 C1085 1.400 . S
C1085 C1079 1.491 . S
C1085 C1084 1.400 . S
C1085 C1086 1.398 . S
C1086 H1074 0.950 . S
C1086 C1085 1.398 . S
C1086 C1087 1.391 . S
C1087 H1075 0.950 1_556 S
C1087 C1083 1.393 1_556 S
C1087 C1086 1.391 . S
H1088 C1096 0.950 . S
H1089 C1101 0.950 . S
H1090 C1098 0.950 . S
H1091 C1100 0.950 . S
H1092 C1102 0.950 . S
H1093 C1104 0.950 . S
H1094 C1106 0.950 . S
H1095 C1107 0.950 . S
C1096 H1088 0.950 . S
C1096 C1097 1.386 . S
C1096 C1098 1.391 . S
C1097 C1096 1.386 . S
C1097 C1101 1.393 . S
C1098 H1090 0.950 . S
C1098 C1096 1.391 . S
C1098 C1099 1.400 . S
C1099 C1098 1.400 . S
C1099 C1100 1.398 . S
C1099 C1105 1.491 . S
C1100 H1091 0.950 . S
C1100 C1099 1.398 . S
C1100 C1101 1.391 . S
C1101 H1089 0.950 . S
C1101 C1097 1.393 . S
C1101 C1100 1.391 . S
C1102 H1092 0.950 . S
C1102 C1103 1.386 . S
C1102 C1104 1.391 . S
C1103 C1102 1.386 . S
C1103 C1107 1.393 . S
C1104 H1093 0.950 . S
C1104 C1102 1.391 . S
C1104 C1105 1.400 . S
C1105 C1099 1.491 . S
C1105 C1104 1.400 . S
C1105 C1106 1.398 . S
C1106 H1094 0.950 . S
C1106 C1105 1.398 . S
C1106 C1107 1.391 . S
C1107 H1095 0.950 . S
C1107 C1103 1.393 . S
C1107 C1106 1.391 . S
H1108 C1116 0.950 . S
H1109 C1121 0.950 . S
H1110 C1118 0.950 . S
H1111 C1120 0.950 . S
H1112 C1122 0.950 . S
H1113 C1124 0.950 . S
H1114 C1126 0.950 . S
H1115 C1127 0.950 . S
C1116 H1108 0.950 . S
C1116 C1117 1.386 . S
C1116 C1118 1.391 . S
C1117 C1116 1.386 . S
C1117 C1121 1.393 . S
C1118 H1110 0.950 . S
C1118 C1116 1.391 . S
C1118 C1119 1.400 . S
C1119 C1118 1.400 . S
C1119 C1120 1.398 . S
C1119 C1125 1.491 1_655 S
C1120 H1111 0.950 . S
C1120 C1119 1.398 . S
C1120 C1121 1.391 . S
C1121 H1109 0.950 . S
C1121 C1117 1.393 . S
C1121 C1120 1.391 . S
C1122 H1112 0.950 . S
C1122 C1123 1.386 . S
C1122 C1124 1.391 . S
C1123 C1122 1.386 . S
C1123 C1127 1.393 . S
C1124 H1113 0.950 . S
C1124 C1122 1.391 . S
C1124 C1125 1.400 . S
C1125 C1119 1.491 1_455 S
C1125 C1124 1.400 . S
C1125 C1126 1.398 . S
C1126 H1114 0.950 . S
C1126 C1125 1.398 . S
C1126 C1127 1.391 . S
C1127 H1115 0.950 . S
C1127 C1123 1.393 . S
C1127 C1126 1.391 . S
H1128 C1136 0.950 . S
H1129 C1141 0.950 . S
H1130 C1138 0.950 . S
H1131 C1140 0.950 . S
H1132 C1142 0.950 . S
H1133 C1144 0.950 . S
H1134 C1146 0.950 . S
H1135 C1147 0.950 . S
C1136 H1128 0.950 . S
C1136 C1137 1.386 . S
C1136 C1138 1.391 . S
C1137 C1136 1.386 . S
C1137 C1141 1.393 . S
C1138 H1130 0.950 . S
C1138 C1136 1.391 . S
C1138 C1139 1.400 . S
C1139 C1138 1.400 . S
C1139 C1140 1.398 . S
C1139 C1145 1.491 . S
C1140 H1131 0.950 . S
C1140 C1139 1.398 . S
C1140 C1141 1.391 . S
C1141 H1129 0.950 . S
C1141 C1137 1.393 . S
C1141 C1140 1.391 . S
C1142 H1132 0.950 . S
C1142 C1143 1.386 . S
C1142 C1144 1.391 . S
C1143 C1142 1.386 . S
C1143 C1147 1.393 . S
C1144 H1133 0.950 . S
C1144 C1142 1.391 . S
C1144 C1145 1.400 . S
C1145 C1139 1.491 . S
C1145 C1144 1.400 . S
C1145 C1146 1.398 . S
C1146 H1134 0.950 . S
C1146 C1145 1.398 . S
C1146 C1147 1.391 . S
C1147 H1135 0.950 . S
C1147 C1143 1.393 . S
C1147 C1146 1.391 . S
H1148 C1156 0.950 . S
H1149 C1161 0.950 . S
H1150 C1158 0.950 . S
H1151 C1160 0.950 . S
H1152 C1162 0.950 . S
H1153 C1164 0.950 . S
H1154 C1166 0.950 . S
H1155 C1167 0.950 . S
C1156 H1148 0.950 . S
C1156 C1157 1.386 . S
C1156 C1158 1.391 . S
C1157 C1156 1.386 . S
C1157 C1161 1.393 . S
C1158 H1150 0.950 . S
C1158 C1156 1.391 . S
C1158 C1159 1.400 . S
C1159 C1158 1.400 . S
C1159 C1160 1.398 . S
C1159 C1165 1.491 . S
C1160 H1151 0.950 . S
C1160 C1159 1.398 . S
C1160 C1161 1.391 . S
C1161 H1149 0.950 . S
C1161 C1157 1.393 . S
C1161 C1160 1.391 . S
C1162 H1152 0.950 . S
C1162 C1163 1.386 . S
C1162 C1164 1.391 . S
C1163 C1162 1.386 . S
C1163 C1167 1.393 . S
C1164 H1153 0.950 . S
C1164 C1162 1.391 . S
C1164 C1165 1.400 . S
C1165 C1159 1.491 . S
C1165 C1164 1.400 . S
C1165 C1166 1.398 . S
C1166 H1154 0.950 . S
C1166 C1165 1.398 . S
C1166 C1167 1.391 . S
C1167 H1155 0.950 . S
C1167 C1163 1.393 . S
C1167 C1166 1.391 . S
H1168 C1176 0.950 . S
H1169 C1181 0.950 . S
H1170 C1178 0.950 . S
H1171 C1180 0.950 . S
H1172 C1182 0.950 . S
H1173 C1184 0.950 . S
H1174 C1186 0.950 . S
H1175 C1187 0.950 . S
C1176 H1168 0.950 . S
C1176 C1177 1.386 . S
C1176 C1178 1.391 . S
C1177 C1176 1.386 . S
C1177 C1181 1.393 . S
C1178 H1170 0.950 . S
C1178 C1176 1.391 . S
C1178 C1179 1.400 . S
C1179 C1178 1.400 . S
C1179 C1180 1.398 . S
C1179 C1185 1.491 . S
C1180 H1171 0.950 . S
C1180 C1179 1.398 . S
C1180 C1181 1.391 . S
C1181 H1169 0.950 . S
C1181 C1177 1.393 . S
C1181 C1180 1.391 . S
C1182 H1172 0.950 . S
C1182 C1183 1.386 . S
C1182 C1184 1.391 . S
C1183 C1182 1.386 . S
C1183 C1187 1.393 . S
C1184 H1173 0.950 . S
C1184 C1182 1.391 . S
C1184 C1185 1.400 . S
C1185 C1179 1.491 . S
C1185 C1184 1.400 . S
C1185 C1186 1.398 . S
C1186 H1174 0.950 . S
C1186 C1185 1.398 . S
C1186 C1187 1.391 . S
C1187 H1175 0.950 . S
C1187 C1183 1.393 . S
C1187 C1186 1.391 . S
H1188 C1196 0.950 . S
H1189 C1201 0.950 . S
H1190 C1198 0.950 . S
H1191 C1200 0.950 . S
H1192 C1202 0.950 . S
H1193 C1204 0.950 . S
H1194 C1206 0.950 . S
H1195 C1207 0.950 . S
C1196 H1188 0.950 . S
C1196 C1197 1.386 . S
C1196 C1198 1.391 . S
C1197 C1196 1.386 . S
C1197 C1201 1.393 . S
C1198 H1190 0.950 . S
C1198 C1196 1.391 . S
C1198 C1199 1.400 . S
C1199 C1198 1.400 . S
C1199 C1200 1.398 . S
C1199 C1205 1.491 . S
C1200 H1191 0.950 . S
C1200 C1199 1.398 . S
C1200 C1201 1.391 . S
C1201 H1189 0.950 . S
C1201 C1197 1.393 . S
C1201 C1200 1.391 . S
C1202 H1192 0.950 . S
C1202 C1203 1.386 . S
C1202 C1204 1.391 . S
C1203 C1202 1.386 . S
C1203 C1207 1.393 . S
C1204 H1193 0.950 . S
C1204 C1202 1.391 . S
C1204 C1205 1.400 . S
C1205 C1199 1.491 . S
C1205 C1204 1.400 . S
C1205 C1206 1.398 . S
C1206 H1194 0.950 . S
C1206 C1205 1.398 . S
C1206 C1207 1.391 . S
C1207 H1195 0.950 . S
C1207 C1203 1.393 . S
C1207 C1206 1.391 . S
H1208 C1216 0.950 . S
H1209 C1221 0.950 . S
H1210 C1218 0.950 . S
H1211 C1220 0.950 . S
H1212 C1222 0.950 . S
H1213 C1224 0.950 . S
H1214 C1226 0.950 . S
H1215 C1227 0.950 . S
C1216 H1208 0.950 . S
C1216 C1217 1.386 . S
C1216 C1218 1.391 . S
C1217 C1216 1.386 . S
C1217 C1221 1.393 . S
C1218 H1210 0.950 . S
C1218 C1216 1.391 . S
C1218 C1219 1.400 . S
C1219 C1218 1.400 . S
C1219 C1220 1.398 . S
C1219 C1225 1.491 . S
C1220 H1211 0.950 . S
C1220 C1219 1.398 . S
C1220 C1221 1.391 . S
C1221 H1209 0.950 . S
C1221 C1217 1.393 . S
C1221 C1220 1.391 . S
C1222 H1212 0.950 . S
C1222 C1223 1.386 . S
C1222 C1224 1.391 . S
C1223 C1222 1.386 . S
C1223 C1227 1.393 . S
C1224 H1213 0.950 . S
C1224 C1222 1.391 . S
C1224 C1225 1.400 . S
C1225 C1219 1.491 . S
C1225 C1224 1.400 . S
C1225 C1226 1.398 . S
C1226 H1214 0.950 . S
C1226 C1225 1.398 . S
C1226 C1227 1.391 . S
C1227 H1215 0.950 . S
C1227 C1223 1.393 . S
C1227 C1226 1.391 . S
H1228 C1236 0.950 . S
H1229 C1241 0.950 . S
H1230 C1238 0.950 . S
H1231 C1240 0.950 . S
H1232 C1242 0.950 . S
H1233 C1244 0.950 . S
H1234 C1246 0.950 . S
H1235 C1247 0.950 . S
C1236 H1228 0.950 . S
C1236 C1237 1.386 . S
C1236 C1238 1.391 . S
C1237 C1236 1.386 . S
C1237 C1241 1.393 . S
C1238 H1230 0.950 . S
C1238 C1236 1.391 . S
C1238 C1239 1.400 . S
C1239 C1238 1.400 . S
C1239 C1240 1.398 . S
C1239 C1245 1.491 1_655 S
C1240 H1231 0.950 . S
C1240 C1239 1.398 . S
C1240 C1241 1.391 . S
C1241 H1229 0.950 . S
C1241 C1237 1.393 . S
C1241 C1240 1.391 . S
C1242 H1232 0.950 . S
C1242 C1243 1.386 . S
C1242 C1244 1.391 . S
C1243 C1242 1.386 . S
C1243 C1247 1.393 . S
C1244 H1233 0.950 . S
C1244 C1242 1.391 . S
C1244 C1245 1.400 . S
C1245 C1239 1.491 1_455 S
C1245 C1244 1.400 . S
C1245 C1246 1.398 . S
C1246 H1234 0.950 . S
C1246 C1245 1.398 . S
C1246 C1247 1.391 . S
C1247 H1235 0.950 . S
C1247 C1243 1.393 . S
C1247 C1246 1.391 . S
H1248 C1256 0.950 . S
H1249 C1261 0.950 . S
H1250 C1258 0.950 . S
H1251 C1260 0.950 . S
H1252 C1262 0.950 . S
H1253 C1264 0.950 . S
H1254 C1266 0.950 . S
H1255 C1267 0.950 . S
C1256 H1248 0.950 . S
C1256 C1257 1.386 . S
C1256 C1258 1.391 . S
C1257 C1256 1.386 . S
C1257 C1261 1.393 . S
C1258 H1250 0.950 . S
C1258 C1256 1.391 . S
C1258 C1259 1.400 . S
C1259 C1258 1.400 . S
C1259 C1260 1.398 . S
C1259 C1265 1.491 . S
C1260 H1251 0.950 . S
C1260 C1259 1.398 . S
C1260 C1261 1.391 . S
C1261 H1249 0.950 . S
C1261 C1257 1.393 . S
C1261 C1260 1.391 . S
C1262 H1252 0.950 . S
C1262 C1263 1.386 . S
C1262 C1264 1.391 . S
C1263 C1262 1.386 . S
C1263 C1267 1.393 . S
C1264 H1253 0.950 . S
C1264 C1262 1.391 . S
C1264 C1265 1.400 . S
C1265 C1259 1.491 . S
C1265 C1264 1.400 . S
C1265 C1266 1.398 . S
C1266 H1254 0.950 . S
C1266 C1265 1.398 . S
C1266 C1267 1.391 . S
C1267 H1255 0.950 . S
C1267 C1263 1.393 . S
C1267 C1266 1.391 . S
H1268 C1276 0.950 . S
H1269 C1281 0.950 . S
H1270 C1278 0.950 . S
H1271 C1280 0.950 . S
H1272 C1282 0.950 . S
H1273 C1284 0.950 . S
H1274 C1286 0.950 . S
H1275 C1287 0.950 . S
C1276 H1268 0.950 . S
C1276 C1277 1.386 . S
C1276 C1278 1.391 . S
C1277 C1276 1.386 . S
C1277 C1281 1.393 . S
C1278 H1270 0.950 . S
C1278 C1276 1.391 . S
C1278 C1279 1.400 . S
C1279 C1278 1.400 . S
C1279 C1280 1.398 . S
C1279 C1285 1.491 . S
C1280 H1271 0.950 . S
C1280 C1279 1.398 . S
C1280 C1281 1.391 . S
C1281 H1269 0.950 . S
C1281 C1277 1.393 . S
C1281 C1280 1.391 . S
C1282 H1272 0.950 . S
C1282 C1283 1.386 . S
C1282 C1284 1.391 . S
C1283 C1282 1.386 . S
C1283 C1287 1.393 . S
C1284 H1273 0.950 . S
C1284 C1282 1.391 . S
C1284 C1285 1.400 . S
C1285 C1279 1.491 . S
C1285 C1284 1.400 . S
C1285 C1286 1.398 . S
C1286 H1274 0.950 . S
C1286 C1285 1.398 . S
C1286 C1287 1.391 . S
C1287 H1275 0.950 . S
C1287 C1283 1.393 . S
C1287 C1286 1.391 . S
H1288 C1296 0.950 . S
H1289 C1301 0.950 . S
H1290 C1298 0.950 . S
H1291 C1300 0.950 . S
H1292 C1302 0.950 . S
H1293 C1304 0.950 . S
H1294 C1306 0.950 . S
H1295 C1307 0.950 . S
C1296 H1288 0.950 . S
C1296 C1297 1.386 . S
C1296 C1298 1.391 . S
C1297 C1296 1.386 . S
C1297 C1301 1.393 . S
C1298 H1290 0.950 . S
C1298 C1296 1.391 . S
C1298 C1299 1.400 . S
C1299 C1298 1.400 . S
C1299 C1300 1.398 . S
C1299 C1305 1.491 . S
C1300 H1291 0.950 . S
C1300 C1299 1.398 . S
C1300 C1301 1.391 . S
C1301 H1289 0.950 . S
C1301 C1297 1.393 . S
C1301 C1300 1.391 . S
C1302 H1292 0.950 . S
C1302 C1303 1.386 . S
C1302 C1304 1.391 . S
C1303 C1302 1.386 . S
C1303 C1307 1.393 . S
C1304 H1293 0.950 . S
C1304 C1302 1.391 . S
C1304 C1305 1.400 . S
C1305 C1299 1.491 . S
C1305 C1304 1.400 . S
C1305 C1306 1.398 . S
C1306 H1294 0.950 . S
C1306 C1305 1.398 . S
C1306 C1307 1.391 . S
C1307 H1295 0.950 . S
C1307 C1303 1.393 . S
C1307 C1306 1.391 . S
H1308 C1316 0.950 . S
H1309 C1321 0.950 . S
H1310 C1318 0.950 . S
H1311 C1320 0.950 . S
H1312 C1322 0.950 . S
H1313 C1324 0.950 . S
H1314 C1326 0.950 . S
H1315 C1327 0.950 . S
C1316 H1308 0.950 . S
C1316 C1317 1.386 . S
C1316 C1318 1.391 . S
C1317 C1316 1.386 . S
C1317 C1321 1.393 . S
C1318 H1310 0.950 . S
C1318 C1316 1.391 . S
C1318 C1319 1.400 . S
C1319 C1318 1.400 . S
C1319 C1320 1.398 . S
C1319 C1325 1.491 . S
C1320 H1311 0.950 . S
C1320 C1319 1.398 . S
C1320 C1321 1.391 . S
C1321 H1309 0.950 . S
C1321 C1317 1.393 . S
C1321 C1320 1.391 . S
C1322 H1312 0.950 . S
C1322 C1323 1.386 . S
C1322 C1324 1.391 . S
C1323 C1322 1.386 . S
C1323 C1327 1.393 . S
C1324 H1313 0.950 . S
C1324 C1322 1.391 . S
C1324 C1325 1.400 . S
C1325 C1319 1.491 . S
C1325 C1324 1.400 . S
C1325 C1326 1.398 . S
C1326 H1314 0.950 . S
C1326 C1325 1.398 . S
C1326 C1327 1.391 . S
C1327 H1315 0.950 . S
C1327 C1323 1.393 . S
C1327 C1326 1.391 . S
H1328 C1336 0.950 . S
H1329 C1341 0.950 . S
H1330 C1338 0.950 . S
H1331 C1340 0.950 . S
H1332 C1342 0.950 . S
H1333 C1344 0.950 . S
H1334 C1346 0.950 . S
H1335 C1347 0.950 . S
C1336 H1328 0.950 . S
C1336 C1337 1.386 . S
C1336 C1338 1.391 . S
C1337 C1336 1.386 . S
C1337 C1341 1.393 . S
C1338 H1330 0.950 . S
C1338 C1336 1.391 . S
C1338 C1339 1.400 . S
C1339 C1338 1.400 . S
C1339 C1340 1.398 . S
C1339 C1345 1.491 . S
C1340 H1331 0.950 . S
C1340 C1339 1.398 . S
C1340 C1341 1.391 . S
C1341 H1329 0.950 . S
C1341 C1337 1.393 . S
C1341 C1340 1.391 . S
C1342 H1332 0.950 . S
C1342 C1343 1.386 . S
C1342 C1344 1.391 . S
C1343 C1342 1.386 . S
C1343 C1347 1.393 . S
C1344 H1333 0.950 . S
C1344 C1342 1.391 . S
C1344 C1345 1.400 . S
C1345 C1339 1.491 . S
C1345 C1344 1.400 . S
C1345 C1346 1.398 . S
C1346 H1334 0.950 . S
C1346 C1345 1.398 . S
C1346 C1347 1.391 . S
C1347 H1335 0.950 . S
C1347 C1343 1.393 . S
C1347 C1346 1.391 . S
H1348 C1356 0.950 . S
H1349 C1361 0.950 . S
H1350 C1358 0.950 . S
H1351 C1360 0.950 . S
H1352 C1362 0.950 . S
H1353 C1364 0.950 . S
H1354 C1366 0.950 . S
H1355 C1367 0.950 . S
C1356 H1348 0.950 . S
C1356 C1357 1.386 . S
C1356 C1358 1.391 . S
C1357 C1356 1.386 . S
C1357 C1361 1.393 . S
C1358 H1350 0.950 . S
C1358 C1356 1.391 . S
C1358 C1359 1.400 . S
C1359 C1358 1.400 . S
C1359 C1360 1.398 . S
C1359 C1365 1.491 1_655 S
C1360 H1351 0.950 . S
C1360 C1359 1.398 . S
C1360 C1361 1.391 . S
C1361 H1349 0.950 . S
C1361 C1357 1.393 . S
C1361 C1360 1.391 . S
C1362 H1352 0.950 . S
C1362 C1363 1.386 . S
C1362 C1364 1.391 . S
C1363 C1362 1.386 . S
C1363 C1367 1.393 . S
C1364 H1353 0.950 . S
C1364 C1362 1.391 . S
C1364 C1365 1.400 . S
C1365 C1359 1.491 1_455 S
C1365 C1364 1.400 . S
C1365 C1366 1.398 . S
C1366 H1354 0.950 . S
C1366 C1365 1.398 . S
C1366 C1367 1.391 . S
C1367 H1355 0.950 . S
C1367 C1363 1.393 . S
C1367 C1366 1.391 . S
H1368 C1376 0.950 . S
H1369 C1381 0.950 . S
H1370 C1378 0.950 . S
H1371 C1380 0.950 . S
H1372 C1382 0.950 . S
H1373 C1384 0.950 . S
H1374 C1386 0.950 . S
H1375 C1387 0.950 . S
C1376 H1368 0.950 . S
C1376 C1377 1.386 . S
C1376 C1378 1.391 . S
C1377 C1376 1.386 . S
C1377 C1381 1.393 . S
C1378 H1370 0.950 . S
C1378 C1376 1.391 . S
C1378 C1379 1.400 . S
C1379 C1378 1.400 . S
C1379 C1380 1.398 . S
C1379 C1385 1.491 1_655 S
C1380 H1371 0.950 . S
C1380 C1379 1.398 . S
C1380 C1381 1.391 . S
C1381 H1369 0.950 . S
C1381 C1377 1.393 . S
C1381 C1380 1.391 . S
C1382 H1372 0.950 . S
C1382 C1383 1.386 . S
C1382 C1384 1.391 . S
C1383 C1382 1.386 . S
C1383 C1387 1.393 . S
C1384 H1373 0.950 . S
C1384 C1382 1.391 . S
C1384 C1385 1.400 . S
C1385 C1379 1.491 1_455 S
C1385 C1384 1.400 . S
C1385 C1386 1.398 . S
C1386 H1374 0.950 . S
C1386 C1385 1.398 . S
C1386 C1387 1.391 . S
C1387 H1375 0.950 . S
C1387 C1383 1.393 . S
C1387 C1386 1.391 . S
H1388 C1396 0.950 . S
H1389 C1401 0.950 . S
H1390 C1398 0.950 . S
H1391 C1400 0.950 . S
H1392 C1402 0.950 . S
H1393 C1404 0.950 . S
H1394 C1406 0.950 . S
H1395 C1407 0.950 . S
C1396 H1388 0.950 . S
C1396 C1397 1.386 . S
C1396 C1398 1.391 . S
C1397 C1396 1.386 . S
C1397 C1401 1.393 . S
C1398 H1390 0.950 . S
C1398 C1396 1.391 . S
C1398 C1399 1.400 . S
C1399 C1398 1.400 . S
C1399 C1400 1.398 . S
C1399 C1405 1.491 . S
C1400 H1391 0.950 . S
C1400 C1399 1.398 . S
C1400 C1401 1.391 . S
C1401 H1389 0.950 . S
C1401 C1397 1.393 . S
C1401 C1400 1.391 . S
C1402 H1392 0.950 . S
C1402 C1403 1.386 . S
C1402 C1404 1.391 . S
C1403 C1402 1.386 . S
C1403 C1407 1.393 . S
C1404 H1393 0.950 . S
C1404 C1402 1.391 . S
C1404 C1405 1.400 . S
C1405 C1399 1.491 . S
C1405 C1404 1.400 . S
C1405 C1406 1.398 . S
C1406 H1394 0.950 . S
C1406 C1405 1.398 . S
C1406 C1407 1.391 . S
C1407 H1395 0.950 . S
C1407 C1403 1.393 . S
C1407 C1406 1.391 . S
H1408 C1416 0.950 . S
H1409 C1421 0.950 . S
H1410 C1418 0.950 . S
H1411 C1420 0.950 . S
H1412 C1422 0.950 . S
H1413 C1424 0.950 . S
H1414 C1426 0.950 . S
H1415 C1427 0.950 . S
C1416 H1408 0.950 . S
C1416 C1417 1.386 . S
C1416 C1418 1.391 . S
C1417 C1416 1.386 . S
C1417 C1421 1.393 . S
C1418 H1410 0.950 . S
C1418 C1416 1.391 . S
C1418 C1419 1.400 . S
C1419 C1418 1.400 . S
C1419 C1420 1.398 . S
C1419 C1425 1.491 . S
C1420 H1411 0.950 . S
C1420 C1419 1.398 . S
C1420 C1421 1.391 . S
C1421 H1409 0.950 . S
C1421 C1417 1.393 . S
C1421 C1420 1.391 . S
C1422 H1412 0.950 . S
C1422 C1423 1.386 . S
C1422 C1424 1.391 . S
C1423 C1422 1.386 . S
C1423 C1427 1.393 . S
C1424 H1413 0.950 . S
C1424 C1422 1.391 . S
C1424 C1425 1.400 . S
C1425 C1419 1.491 . S
C1425 C1424 1.400 . S
C1425 C1426 1.398 . S
C1426 H1414 0.950 . S
C1426 C1425 1.398 . S
C1426 C1427 1.391 . S
C1427 H1415 0.950 . S
C1427 C1423 1.393 . S
C1427 C1426 1.391 . S
H1428 C1436 0.950 . S
H1429 C1441 0.950 . S
H1430 C1438 0.950 . S
H1431 C1440 0.950 . S
H1432 C1442 0.950 . S
H1433 C1444 0.950 . S
H1434 C1446 0.950 . S
H1435 C1447 0.950 . S
C1436 H1428 0.950 . S
C1436 C1437 1.386 . S
C1436 C1438 1.391 . S
C1437 C1436 1.386 . S
C1437 C1441 1.393 . S
C1438 H1430 0.950 . S
C1438 C1436 1.391 . S
C1438 C1439 1.400 . S
C1439 C1438 1.400 . S
C1439 C1440 1.398 . S
C1439 C1445 1.491 . S
C1440 H1431 0.950 . S
C1440 C1439 1.398 . S
C1440 C1441 1.391 . S
C1441 H1429 0.950 . S
C1441 C1437 1.393 . S
C1441 C1440 1.391 . S
C1442 H1432 0.950 . S
C1442 C1443 1.386 . S
C1442 C1444 1.391 . S
C1443 C1442 1.386 . S
C1443 C1447 1.393 . S
C1444 H1433 0.950 . S
C1444 C1442 1.391 . S
C1444 C1445 1.400 . S
C1445 C1439 1.491 . S
C1445 C1444 1.400 . S
C1445 C1446 1.398 . S
C1446 H1434 0.950 . S
C1446 C1445 1.398 . S
C1446 C1447 1.391 . S
C1447 H1435 0.950 . S
C1447 C1443 1.393 . S
C1447 C1446 1.391 . S
H1448 C1456 0.946 1_554 S
H1449 C1461 0.950 . S
H1450 C1458 0.950 . S
H1451 C1460 0.950 . S
H1452 C1462 0.950 . S
H1453 C1464 0.950 . S
H1454 C1466 0.950 . S
H1455 C1467 0.950 . S
C1456 H1448 0.946 1_556 S
C1456 C1457 1.386 . S
C1456 C1458 1.391 . S
C1457 C1456 1.386 . S
C1457 C1461 1.393 . S
C1458 H1450 0.950 . S
C1458 C1456 1.391 . S
C1458 C1459 1.400 . S
C1459 C1458 1.400 . S
C1459 C1460 1.398 . S
C1459 C1465 1.491 . S
C1460 H1451 0.950 . S
C1460 C1459 1.398 . S
C1460 C1461 1.391 . S
C1461 H1449 0.950 . S
C1461 C1457 1.393 . S
C1461 C1460 1.391 . S
C1462 H1452 0.950 . S
C1462 C1463 1.386 . S
C1462 C1464 1.391 . S
C1463 C1462 1.386 . S
C1463 C1467 1.393 . S
C1464 H1453 0.950 . S
C1464 C1462 1.391 . S
C1464 C1465 1.400 . S
C1465 C1459 1.491 . S
C1465 C1464 1.400 . S
C1465 C1466 1.398 . S
C1466 H1454 0.950 . S
C1466 C1465 1.398 . S
C1466 C1467 1.391 . S
C1467 H1455 0.950 . S
C1467 C1463 1.393 . S
C1467 C1466 1.391 . S
H1468 C1476 0.950 . S
H1469 C1481 0.950 1_556 S
H1470 C1478 0.950 . S
H1471 C1480 0.950 . S
H1472 C1482 0.950 . S
H1473 C1484 0.950 . S
H1474 C1486 0.950 . S
H1475 C1487 0.950 . S
C1476 H1468 0.950 . S
C1476 C1477 1.386 . S
C1476 C1478 1.391 . S
C1477 C1476 1.386 . S
C1477 C1481 1.393 . S
C1478 H1470 0.950 . S
C1478 C1476 1.391 . S
C1478 C1479 1.400 . S
C1479 C1478 1.400 . S
C1479 C1480 1.398 . S
C1479 C1485 1.491 . S
C1480 H1471 0.950 . S
C1480 C1479 1.398 . S
C1480 C1481 1.391 . S
C1481 H1469 0.950 1_554 S
C1481 C1477 1.393 . S
C1481 C1480 1.391 . S
C1482 H1472 0.950 . S
C1482 C1483 1.386 . S
C1482 C1484 1.391 . S
C1483 C1482 1.386 . S
C1483 C1487 1.393 . S
C1484 H1473 0.950 . S
C1484 C1482 1.391 . S
C1484 C1485 1.400 . S
C1485 C1479 1.491 . S
C1485 C1484 1.400 . S
C1485 C1486 1.398 . S
C1486 H1474 0.950 . S
C1486 C1485 1.398 . S
C1486 C1487 1.391 . S
C1487 H1475 0.950 . S
C1487 C1483 1.393 . S
C1487 C1486 1.391 . S
H1488 C1496 0.950 . S
H1489 C1501 0.950 . S
H1490 C1498 0.950 . S
H1491 C1500 0.950 . S
H1492 C1502 0.950 . S
H1493 C1504 0.950 . S
H1494 C1506 0.950 . S
H1495 C1507 0.950 . S
C1496 H1488 0.950 . S
C1496 C1497 1.386 . S
C1496 C1498 1.391 . S
C1497 C1496 1.386 . S
C1497 C1501 1.393 . S
C1498 H1490 0.950 . S
C1498 C1496 1.391 . S
C1498 C1499 1.400 . S
C1499 C1498 1.400 . S
C1499 C1500 1.398 . S
C1499 C1505 1.491 . S
C1500 H1491 0.950 . S
C1500 C1499 1.398 . S
C1500 C1501 1.391 . S
C1501 H1489 0.950 . S
C1501 C1497 1.393 . S
C1501 C1500 1.391 . S
C1502 H1492 0.950 . S
C1502 C1503 1.386 . S
C1502 C1504 1.391 . S
C1503 C1502 1.386 . S
C1503 C1507 1.393 . S
C1504 H1493 0.950 . S
C1504 C1502 1.391 . S
C1504 C1505 1.400 . S
C1505 C1499 1.491 . S
C1505 C1504 1.400 . S
C1505 C1506 1.398 . S
C1506 H1494 0.950 . S
C1506 C1505 1.398 . S
C1506 C1507 1.391 . S
C1507 H1495 0.950 . S
C1507 C1503 1.393 . S
C1507 C1506 1.391 . S
H1508 C1516 0.950 . S
H1509 C1521 0.950 . S
H1510 C1518 0.950 . S
H1511 C1520 0.950 . S
H1512 C1522 0.950 . S
H1513 C1524 0.950 . S
H1514 C1526 0.950 . S
H1515 C1527 0.950 . S
C1516 H1508 0.950 . S
C1516 C1517 1.386 . S
C1516 C1518 1.391 . S
C1517 C1516 1.386 . S
C1517 C1521 1.393 . S
C1518 H1510 0.950 . S
C1518 C1516 1.391 . S
C1518 C1519 1.400 . S
C1519 C1518 1.400 . S
C1519 C1520 1.398 . S
C1519 C1525 1.491 . S
C1520 H1511 0.950 . S
C1520 C1519 1.398 . S
C1520 C1521 1.391 . S
C1521 H1509 0.950 . S
C1521 C1517 1.393 . S
C1521 C1520 1.391 . S
C1522 H1512 0.950 . S
C1522 C1523 1.386 . S
C1522 C1524 1.391 . S
C1523 C1522 1.386 . S
C1523 C1527 1.393 . S
C1524 H1513 0.950 . S
C1524 C1522 1.391 . S
C1524 C1525 1.400 . S
C1525 C1519 1.491 . S
C1525 C1524 1.400 . S
C1525 C1526 1.398 . S
C1526 H1514 0.950 . S
C1526 C1525 1.398 . S
C1526 C1527 1.391 . S
C1527 H1515 0.950 . S
C1527 C1523 1.393 . S
C1527 C1526 1.391 . S
H1528 C1536 0.950 . S
H1529 C1541 0.950 . S
H1530 C1538 0.950 . S
H1531 C1540 0.950 . S
H1532 C1542 0.950 . S
H1533 C1544 0.950 . S
H1534 C1546 0.950 . S
H1535 C1547 0.950 1_556 S
C1536 H1528 0.950 . S
C1536 C1537 1.386 . S
C1536 C1538 1.391 . S
C1537 C1536 1.386 . S
C1537 C1541 1.393 . S
C1538 H1530 0.950 . S
C1538 C1536 1.391 . S
C1538 C1539 1.400 . S
C1539 C1538 1.400 . S
C1539 C1540 1.398 . S
C1539 C1545 1.491 . S
C1540 H1531 0.950 . S
C1540 C1539 1.398 . S
C1540 C1541 1.391 . S
C1541 H1529 0.950 . S
C1541 C1537 1.393 . S
C1541 C1540 1.391 . S
C1542 H1532 0.950 . S
C1542 C1543 1.386 . S
C1542 C1544 1.391 . S
C1543 C1542 1.386 . S
C1543 C1547 1.393 . S
C1544 H1533 0.950 . S
C1544 C1542 1.391 . S
C1544 C1545 1.400 . S
C1545 C1539 1.491 . S
C1545 C1544 1.400 . S
C1545 C1546 1.398 . S
C1546 H1534 0.950 . S
C1546 C1545 1.398 . S
C1546 C1547 1.391 . S
C1547 H1535 0.950 1_554 S
C1547 C1543 1.393 . S
C1547 C1546 1.391 . S
H1548 C1556 0.950 . S
H1549 C1561 0.950 . S
H1550 C1558 0.950 . S
H1551 C1560 0.950 . S
H1552 C1562 0.950 . S
H1553 C1564 0.950 . S
H1554 C1566 0.950 . S
H1555 C1567 0.950 1_554 S
C1556 H1548 0.950 . S
C1556 C1557 1.386 . S
C1556 C1558 1.391 . S
C1557 C1556 1.386 . S
C1557 C1561 1.393 . S
C1558 H1550 0.950 . S
C1558 C1556 1.391 . S
C1558 C1559 1.400 . S
C1559 C1558 1.400 . S
C1559 C1560 1.398 . S
C1559 C1565 1.491 . S
C1560 H1551 0.950 . S
C1560 C1559 1.398 . S
C1560 C1561 1.391 . S
C1561 H1549 0.950 . S
C1561 C1557 1.393 . S
C1561 C1560 1.391 . S
C1562 H1552 0.950 . S
C1562 C1563 1.386 . S
C1562 C1564 1.391 . S
C1563 C1562 1.386 . S
C1563 C1567 1.393 . S
C1564 H1553 0.950 . S
C1564 C1562 1.391 . S
C1564 C1565 1.400 . S
C1565 C1559 1.491 . S
C1565 C1564 1.400 . S
C1565 C1566 1.398 . S
C1566 H1554 0.950 . S
C1566 C1565 1.398 . S
C1566 C1567 1.391 . S
C1567 H1555 0.950 1_556 S
C1567 C1563 1.393 . S
C1567 C1566 1.391 . S
H1568 C1576 0.950 . S
H1569 C1581 0.950 1_554 S
H1570 C1578 0.950 . S
H1571 C1580 0.950 . S
H1572 C1582 0.950 . S
H1573 C1584 0.950 . S
H1574 C1586 0.950 . S
H1575 C1587 0.950 . S
C1576 H1568 0.950 . S
C1576 C1577 1.386 . S
C1576 C1578 1.391 . S
C1577 C1576 1.386 . S
C1577 C1581 1.393 . S
C1578 H1570 0.950 . S
C1578 C1576 1.391 . S
C1578 C1579 1.400 . S
C1579 C1578 1.400 . S
C1579 C1580 1.398 . S
C1579 C1585 1.491 . S
C1580 H1571 0.950 . S
C1580 C1579 1.398 . S
C1580 C1581 1.391 . S
C1581 H1569 0.950 1_556 S
C1581 C1577 1.393 . S
C1581 C1580 1.391 . S
C1582 H1572 0.950 . S
C1582 C1583 1.386 . S
C1582 C1584 1.391 . S
C1583 C1582 1.386 . S
C1583 C1587 1.393 . S
C1584 H1573 0.950 . S
C1584 C1582 1.391 . S
C1584 C1585 1.400 . S
C1585 C1579 1.491 . S
C1585 C1584 1.400 . S
C1585 C1586 1.398 . S
C1586 H1574 0.950 . S
C1586 C1585 1.398 . S
C1586 C1587 1.391 . S
C1587 H1575 0.950 . S
C1587 C1583 1.393 . S
C1587 C1586 1.391 . S
H1588 C1596 0.950 . S
H1589 C1601 0.950 . S
H1590 C1598 0.950 . S
H1591 C1600 0.950 . S
H1592 C1602 0.950 1_556 S
H1593 C1604 0.950 . S
H1594 C1606 0.950 . S
H1595 C1607 0.950 . S
C1596 H1588 0.950 . S
C1596 C1597 1.386 . S
C1596 C1598 1.391 . S
C1597 C1596 1.386 . S
C1597 C1601 1.393 . S
C1598 H1590 0.950 . S
C1598 C1596 1.391 . S
C1598 C1599 1.400 . S
C1599 C1598 1.400 . S
C1599 C1600 1.398 . S
C1599 C1605 1.491 . S
C1600 H1591 0.950 . S
C1600 C1599 1.398 . S
C1600 C1601 1.391 . S
C1601 H1589 0.950 . S
C1601 C1597 1.393 . S
C1601 C1600 1.391 . S
C1602 H1592 0.950 1_554 S
C1602 C1603 1.386 . S
C1602 C1604 1.391 . S
C1603 C1602 1.386 . S
C1603 C1607 1.393 . S
C1604 H1593 0.950 . S
C1604 C1602 1.391 . S
C1604 C1605 1.400 . S
C1605 C1599 1.491 . S
C1605 C1604 1.400 . S
C1605 C1606 1.398 . S
C1606 H1594 0.950 . S
C1606 C1605 1.398 . S
C1606 C1607 1.391 . S
C1607 H1595 0.950 . S
C1607 C1603 1.393 . S
C1607 C1606 1.391 . S
H1608 C1616 0.950 . S
H1609 C1621 0.950 . S
H1610 C1618 0.950 . S
H1611 C1620 0.950 . S
H1612 C1622 0.950 . S
H1613 C1624 0.950 . S
H1614 C1626 0.950 . S
H1615 C1627 0.950 . S
C1616 H1608 0.950 . S
C1616 C1617 1.386 . S
C1616 C1618 1.391 . S
C1617 C1616 1.386 . S
C1617 C1621 1.393 . S
C1618 H1610 0.950 . S
C1618 C1616 1.391 . S
C1618 C1619 1.400 . S
C1619 C1618 1.400 . S
C1619 C1620 1.398 . S
C1619 C1625 1.491 . S
C1620 H1611 0.950 . S
C1620 C1619 1.398 . S
C1620 C1621 1.391 . S
C1621 H1609 0.950 . S
C1621 C1617 1.393 . S
C1621 C1620 1.391 . S
C1622 H1612 0.950 . S
C1622 C1623 1.386 . S
C1622 C1624 1.391 . S
C1623 C1622 1.386 . S
C1623 C1627 1.393 . S
C1624 H1613 0.950 . S
C1624 C1622 1.391 . S
C1624 C1625 1.400 . S
C1625 C1619 1.491 . S
C1625 C1624 1.400 . S
C1625 C1626 1.398 . S
C1626 H1614 0.950 . S
C1626 C1625 1.398 . S
C1626 C1627 1.391 . S
C1627 H1615 0.950 . S
C1627 C1623 1.393 . S
C1627 C1626 1.391 . S
H1628 C1636 0.950 . S
H1629 C1641 0.950 . S
H1630 C1638 0.950 . S
H1631 C1640 0.950 . S
H1632 C1642 0.950 . S
H1633 C1644 0.950 . S
H1634 C1646 0.950 . S
H1635 C1647 0.950 . S
C1636 H1628 0.950 . S
C1636 C1637 1.386 . S
C1636 C1638 1.391 . S
C1637 C1636 1.386 . S
C1637 C1641 1.393 . S
C1638 H1630 0.950 . S
C1638 C1636 1.391 . S
C1638 C1639 1.400 . S
C1639 C1638 1.400 . S
C1639 C1640 1.398 . S
C1639 C1645 1.491 . S
C1640 H1631 0.950 . S
C1640 C1639 1.398 . S
C1640 C1641 1.391 . S
C1641 H1629 0.950 . S
C1641 C1637 1.393 . S
C1641 C1640 1.391 . S
C1642 H1632 0.950 . S
C1642 C1643 1.386 . S
C1642 C1644 1.391 . S
C1643 C1642 1.386 . S
C1643 C1647 1.393 . S
C1644 H1633 0.950 . S
C1644 C1642 1.391 . S
C1644 C1645 1.400 . S
C1645 C1639 1.491 . S
C1645 C1644 1.400 . S
C1645 C1646 1.398 . S
C1646 H1634 0.950 . S
C1646 C1645 1.398 . S
C1646 C1647 1.391 . S
C1647 H1635 0.950 . S
C1647 C1643 1.393 . S
C1647 C1646 1.391 . S
H1648 C1656 0.950 . S
H1649 C1661 0.950 . S
H1650 C1658 0.950 . S
H1651 C1660 0.950 . S
H1652 C1662 0.950 1_556 S
H1653 C1664 0.950 . S
H1654 C1666 0.950 . S
H1655 C1667 0.950 . S
C1656 H1648 0.950 . S
C1656 C1657 1.386 . S
C1656 C1658 1.391 . S
C1657 C1656 1.386 . S
C1657 C1661 1.393 . S
C1658 H1650 0.950 . S
C1658 C1656 1.391 . S
C1658 C1659 1.400 . S
C1659 C1658 1.400 . S
C1659 C1660 1.398 . S
C1659 C1665 1.491 . S
C1660 H1651 0.950 . S
C1660 C1659 1.398 . S
C1660 C1661 1.391 . S
C1661 H1649 0.950 . S
C1661 C1657 1.393 . S
C1661 C1660 1.391 . S
C1662 H1652 0.950 1_554 S
C1662 C1663 1.386 . S
C1662 C1664 1.391 . S
C1663 C1662 1.386 . S
C1663 C1667 1.393 . S
C1664 H1653 0.950 . S
C1664 C1662 1.391 . S
C1664 C1665 1.400 . S
C1665 C1659 1.491 . S
C1665 C1664 1.400 . S
C1665 C1666 1.398 . S
C1666 H1654 0.950 . S
C1666 C1665 1.398 . S
C1666 C1667 1.391 . S
C1667 H1655 0.950 . S
C1667 C1663 1.393 . S
C1667 C1666 1.391 . S
H1668 C1676 0.950 . S
H1669 C1681 0.950 1_554 S
H1670 C1678 0.950 . S
H1671 C1680 0.950 . S
H1672 C1682 0.950 . S
H1673 C1684 0.950 . S
H1674 C1686 0.950 . S
H1675 C1687 0.950 . S
C1676 H1668 0.950 . S
C1676 C1677 1.386 . S
C1676 C1678 1.391 . S
C1677 C1676 1.386 . S
C1677 C1681 1.393 . S
C1678 H1670 0.950 . S
C1678 C1676 1.391 . S
C1678 C1679 1.400 . S
C1679 C1678 1.400 . S
C1679 C1680 1.398 . S
C1679 C1685 1.491 . S
C1680 H1671 0.950 . S
C1680 C1679 1.398 . S
C1680 C1681 1.391 . S
C1681 H1669 0.950 1_556 S
C1681 C1677 1.393 . S
C1681 C1680 1.391 . S
C1682 H1672 0.950 . S
C1682 C1683 1.386 . S
C1682 C1684 1.391 . S
C1683 C1682 1.386 . S
C1683 C1687 1.393 . S
C1684 H1673 0.950 . S
C1684 C1682 1.391 . S
C1684 C1685 1.400 . S
C1685 C1679 1.491 . S
C1685 C1684 1.400 . S
C1685 C1686 1.398 . S
C1686 H1674 0.950 . S
C1686 C1685 1.398 . S
C1686 C1687 1.391 . S
C1687 H1675 0.950 . S
C1687 C1683 1.393 . S
C1687 C1686 1.391 . S
H1688 C1696 0.950 . S
H1689 C1701 0.950 . S
H1690 C1698 0.950 . S
H1691 C1700 0.950 . S
H1692 C1702 0.950 . S
H1693 C1704 0.950 . S
H1694 C1706 0.950 . S
H1695 C1707 0.950 . S
C1696 H1688 0.950 . S
C1696 C1697 1.386 . S
C1696 C1698 1.391 . S
C1697 C1696 1.386 . S
C1697 C1701 1.393 . S
C1698 H1690 0.950 . S
C1698 C1696 1.391 . S
C1698 C1699 1.400 . S
C1699 C1698 1.400 . S
C1699 C1700 1.398 . S
C1699 C1705 1.491 . S
C1700 H1691 0.950 . S
C1700 C1699 1.398 . S
C1700 C1701 1.391 . S
C1701 H1689 0.950 . S
C1701 C1697 1.393 . S
C1701 C1700 1.391 . S
C1702 H1692 0.950 . S
C1702 C1703 1.386 . S
C1702 C1704 1.391 . S
C1703 C1702 1.386 . S
C1703 C1707 1.393 . S
C1704 H1693 0.950 . S
C1704 C1702 1.391 . S
C1704 C1705 1.400 . S
C1705 C1699 1.491 . S
C1705 C1704 1.400 . S
C1705 C1706 1.398 . S
C1706 H1694 0.950 . S
C1706 C1705 1.398 . S
C1706 C1707 1.391 . S
C1707 H1695 0.950 . S
C1707 C1703 1.393 . S
C1707 C1706 1.391 . S
H1708 C1716 0.950 . S
H1709 C1721 0.950 . S
H1710 C1718 0.950 . S
H1711 C1720 0.950 . S
H1712 C1722 0.950 . S
H1713 C1724 0.950 . S
H1714 C1726 0.950 . S
H1715 C1727 0.950 . S
C1716 H1708 0.950 . S
C1716 C1717 1.386 . S
C1716 C1718 1.391 . S
C1717 C1716 1.386 . S
C1717 C1721 1.393 . S
C1718 H1710 0.950 . S
C1718 C1716 1.391 . S
C1718 C1719 1.400 . S
C1719 C1718 1.400 . S
C1719 C1720 1.398 . S
C1719 C1725 1.491 . S
C1720 H1711 0.950 . S
C1720 C1719 1.398 . S
C1720 C1721 1.391 . S
C1721 H1709 0.950 . S
C1721 C1717 1.393 . S
C1721 C1720 1.391 . S
C1722 H1712 0.950 . S
C1722 C1723 1.386 . S
C1722 C1724 1.391 . S
C1723 C1722 1.386 . S
C1723 C1727 1.393 . S
C1724 H1713 0.950 . S
C1724 C1722 1.391 . S
C1724 C1725 1.400 . S
C1725 C1719 1.491 . S
C1725 C1724 1.400 . S
C1725 C1726 1.398 . S
C1726 H1714 0.950 . S
C1726 C1725 1.398 . S
C1726 C1727 1.391 . S
C1727 H1715 0.950 . S
C1727 C1723 1.393 . S
C1727 C1726 1.391 . S
C457 C96 1.448 . S
C463 C12 1.442 . S
C477 C26 1.439 . S
C483 C110 1.443 . S
C497 C68 1.439 . S
C503 C40 1.445 . S
C517 C54 1.448 . S
C523 C82 1.439 . S
C537 C124 1.438 . S
C543 C208 1.447 . S
C557 C222 1.440 . S
C563 C138 1.449 . S
C577 C152 1.439 . S
C583 C180 1.448 . S
C597 C194 1.441 . S
C603 C166 1.449 . S
C617 C236 1.448 . S
C623 C320 1.443 . S
C637 C250 1.448 . S
C643 C334 1.443 . S
C657 C292 1.449 . S
C663 C264 1.441 . S
C677 C306 1.447 . S
C683 C278 1.444 . S
C697 C348 1.441 . S
C703 C432 1.449 . S
C717 C362 1.448 . S
C723 C446 1.439 . S
C737 C404 1.445 . S
C743 C376 1.439 . S
C757 C390 1.442 . S
C763 C418 1.440 . S
C777 C5 1.242 . S
C783 C103 1.237 . S
C797 C61 1.226 . S
C803 C19 1.225 . S
C817 C75 1.217 . S
C823 C33 1.217 . S
C837 C47 1.228 . S
C843 C89 1.225 . S
C857 C117 1.262 . S
C863 C215 1.259 . S
C877 C173 1.218 . S
C883 C131 1.217 . S
C897 C187 1.218 . S
C903 C145 1.220 . S
C917 C201 1.250 . S
C923 C159 1.253 . S
C937 C229 1.261 . S
C943 C327 1.264 . S
C957 C243 1.231 . S
C963 C285 1.229 . S
C977 C299 1.268 . S
C983 C257 1.266 . S
C997 C271 1.237 . S
C1003 C313 1.240 . S
C1017 C341 1.237 . S
C1023 C439 1.233 . S
C1037 C397 1.263 . S
C1043 C355 1.265 . S
C1057 C369 1.243 . S
C1063 C411 1.238 . S
C1077 C383 1.265 . S
C1083 C425 1.263 . S
C1097 C431 1.471 . S
C1103 C11 1.461 . S
C1117 C221 1.472 . S
C1123 C25 1.461 . S
C1137 C39 1.474 . S
C1143 C403 1.459 . S
C1157 C53 1.457 . S
C1163 C193 1.475 . S
C1177 C67 1.471 . S
C1183 C375 1.461 . S
C1197 C81 1.463 . S
C1203 C165 1.469 . S
C1217 C95 1.474 . S
C1223 C347 1.458 . S
C1237 C137 1.467 . S
C1243 C109 1.466 . S
C1257 C319 1.474 . S
C1263 C123 1.459 . S
C1277 C151 1.456 . S
C1283 C291 1.476 . S
C1297 C263 1.460 . S
C1303 C179 1.472 . S
C1317 C235 1.473 . S
C1323 C207 1.459 . S
C1337 C249 1.469 . S
C1343 C445 1.463 . S
C1357 C277 1.462 . S
C1363 C417 1.471 . S
C1377 C305 1.475 . S
C1383 C389 1.457 . S
C1397 C361 1.469 . S
C1403 C333 1.464 . S
C1417 C4 0.990 . S
C1423 C102 0.988 . S
C1437 C18 1.000 . S
C1443 C60 1.003 . S
C1457 C74 1.017 1_556 S
C1463 C32 1.018 . S
C1477 C46 1.015 1_554 S
C1483 C88 1.013 . S
C1497 C214 0.991 . S
C1503 C116 0.994 . S
C1517 C172 0.988 . S
C1523 C130 0.986 . S
C1537 C144 1.014 . S
C1543 C186 1.016 1_554 S
C1557 C200 0.988 . S
C1563 C158 0.990 1_556 S
C1577 C326 1.015 1_556 S
C1583 C228 1.013 . S
C1597 C284 0.990 . S
C1603 C242 0.992 1_554 S
C1617 C298 1.019 . S
C1623 C256 1.019 . S
C1637 C312 1.017 . S
C1643 C270 1.018 . S
C1657 C340 0.987 . S
C1663 C438 0.986 1_554 S
C1677 C354 1.015 1_556 S
C1683 C396 1.017 . S
C1697 C368 0.986 . S
C1703 C410 0.988 . S
C1717 C424 0.987 . S
C1723 C382 0.985 . S
