# Generated by pormake.
# Topology umz, (4)-cn, num edge types: 1
# Building blocks:
#     Node 0, Type 0, BuildingBlock: UXUYUI_clean_sbu_0, # of connection points: 4
#     Node 1, Type 0, BuildingBlock: UXUYUI_clean_sbu_0, # of connection points: 4
#     Node 2, Type 0, BuildingBlock: UXUYUI_clean_sbu_0, # of connection points: 4
#     Node 3, Type 0, BuildingBlock: UXUYUI_clean_sbu_0, # of connection points: 4
#     Node 4, Type 0, BuildingBlock: UXUYUI_clean_sbu_0, # of connection points: 4
#     Node 5, Type 0, BuildingBlock: UXUYUI_clean_sbu_0, # of connection points: 4
#     Node 6, Type 0, BuildingBlock: UXUYUI_clean_sbu_0, # of connection points: 4
#     Node 7, Type 0, BuildingBlock: UXUYUI_clean_sbu_0, # of connection points: 4
#     Node 8, Type 0, BuildingBlock: UXUYUI_clean_sbu_0, # of connection points: 4
#     Node 9, Type 0, BuildingBlock: UXUYUI_clean_sbu_0, # of connection points: 4
#     Node 10, Type 0, BuildingBlock: UXUYUI_clean_sbu_0, # of connection points: 4
#     Node 11, Type 0, BuildingBlock: UXUYUI_clean_sbu_0, # of connection points: 4
#     Node 12, Type 0, BuildingBlock: UXUYUI_clean_sbu_0, # of connection points: 4
#     Node 13, Type 0, BuildingBlock: UXUYUI_clean_sbu_0, # of connection points: 4
#     Node 14, Type 0, BuildingBlock: UXUYUI_clean_sbu_0, # of connection points: 4
#     Node 15, Type 0, BuildingBlock: UXUYUI_clean_sbu_0, # of connection points: 4
#     Edge 16, Type (0, 0), BuildingBlock: UVAHIK_clean_linker_0, # of connection points: 2
#     Edge 17, Type (0, 0), BuildingBlock: UVAHIK_clean_linker_0, # of connection points: 2
#     Edge 18, Type (0, 0), BuildingBlock: UVAHIK_clean_linker_0, # of connection points: 2
#     Edge 19, Type (0, 0), BuildingBlock: UVAHIK_clean_linker_0, # of connection points: 2
#     Edge 20, Type (0, 0), BuildingBlock: UVAHIK_clean_linker_0, # of connection points: 2
#     Edge 21, Type (0, 0), BuildingBlock: UVAHIK_clean_linker_0, # of connection points: 2
#     Edge 22, Type (0, 0), BuildingBlock: UVAHIK_clean_linker_0, # of connection points: 2
#     Edge 23, Type (0, 0), BuildingBlock: UVAHIK_clean_linker_0, # of connection points: 2
#     Edge 24, Type (0, 0), BuildingBlock: UVAHIK_clean_linker_0, # of connection points: 2
#     Edge 25, Type (0, 0), BuildingBlock: UVAHIK_clean_linker_0, # of connection points: 2
#     Edge 26, Type (0, 0), BuildingBlock: UVAHIK_clean_linker_0, # of connection points: 2
#     Edge 27, Type (0, 0), BuildingBlock: UVAHIK_clean_linker_0, # of connection points: 2
#     Edge 28, Type (0, 0), BuildingBlock: UVAHIK_clean_linker_0, # of connection points: 2
#     Edge 29, Type (0, 0), BuildingBlock: UVAHIK_clean_linker_0, # of connection points: 2
#     Edge 30, Type (0, 0), BuildingBlock: UVAHIK_clean_linker_0, # of connection points: 2
#     Edge 31, Type (0, 0), BuildingBlock: UVAHIK_clean_linker_0, # of connection points: 2
#     Edge 32, Type (0, 0), BuildingBlock: UVAHIK_clean_linker_0, # of connection points: 2
#     Edge 33, Type (0, 0), BuildingBlock: UVAHIK_clean_linker_0, # of connection points: 2
#     Edge 34, Type (0, 0), BuildingBlock: UVAHIK_clean_linker_0, # of connection points: 2
#     Edge 35, Type (0, 0), BuildingBlock: UVAHIK_clean_linker_0, # of connection points: 2
#     Edge 36, Type (0, 0), BuildingBlock: UVAHIK_clean_linker_0, # of connection points: 2
#     Edge 37, Type (0, 0), BuildingBlock: UVAHIK_clean_linker_0, # of connection points: 2
#     Edge 38, Type (0, 0), BuildingBlock: UVAHIK_clean_linker_0, # of connection points: 2
#     Edge 39, Type (0, 0), BuildingBlock: UVAHIK_clean_linker_0, # of connection points: 2
#     Edge 40, Type (0, 0), BuildingBlock: UVAHIK_clean_linker_0, # of connection points: 2
#     Edge 41, Type (0, 0), BuildingBlock: UVAHIK_clean_linker_0, # of connection points: 2
#     Edge 42, Type (0, 0), BuildingBlock: UVAHIK_clean_linker_0, # of connection points: 2
#     Edge 43, Type (0, 0), BuildingBlock: UVAHIK_clean_linker_0, # of connection points: 2
#     Edge 44, Type (0, 0), BuildingBlock: UVAHIK_clean_linker_0, # of connection points: 2
#     Edge 45, Type (0, 0), BuildingBlock: UVAHIK_clean_linker_0, # of connection points: 2
#     Edge 46, Type (0, 0), BuildingBlock: UVAHIK_clean_linker_0, # of connection points: 2
#     Edge 47, Type (0, 0), BuildingBlock: UVAHIK_clean_linker_0, # of connection points: 2
# Relax obj value: 0.340
# Max RMSD: 0.205
# Mean RMSD: 0.205
data_MOF--net-umz--node1-UXUYUI_clean_sbu_0--edge1-UVAHIK_clean_linker_0
_symmetry_space_group_name_H-M    P1
_symmetry_Int_Tables_number       1
_symmetry_cell_setting            triclinic
loop_
_symmetry_equiv_pos_as_xyz
'x, y, z'
_cell_length_a     104.15415
_cell_length_b     104.12906
_cell_length_c     37.853537
_cell_angle_alpha  90.00052
_cell_angle_beta   90.001392
_cell_angle_gamma 90.001096
loop_
_atom_site_label
_atom_site_type_symbol
_atom_site_fract_x
_atom_site_fract_y
_atom_site_fract_z
_atom_type_partial_charge
Li0 Li 0.01415 0.6379 0.20499 0.0
Li1 Li 0.03434 0.64661 0.2272 0.0
Li2 Li 0.02271 0.65682 0.17902 0.0
Li3 Li 0.03382 0.63654 0.1698 0.0
C4 C 0.01302 0.66663 0.23584 0.0
N5 N 0.00547 0.6917 0.24734 0.0
C6 C 0.02103 0.67504 0.25431 0.0
C7 C 0.00114 0.67093 0.22336 0.0
C8 C 0.01704 0.68769 0.25984 0.0
C9 C 0.99751 0.68366 0.22938 0.0
C10 C 0.03484 0.62158 0.24318 0.0
C11 C 0.05267 0.61291 0.27621 0.0
N12 N 0.04436 0.60853 0.30117 0.0
C13 C 0.02648 0.617 0.2692 0.0
C14 C 0.04805 0.61951 0.24671 0.0
C15 C 0.03148 0.61042 0.29828 0.0
C16 C -0.00122 0.61608 0.20873 0.0
N17 N -0.0008 0.6287 0.21773 0.0
C18 C 0.97856 0.62731 0.24493 0.0
C19 C 0.9894 0.63442 0.23546 0.0
C20 C 0.97789 0.61422 0.23611 0.0
C21 C 0.98815 0.60865 0.21751 0.0
H22 H 0.00678 0.6118 0.19481 0.0
H23 H 0.99007 0.64445 0.24253 0.0
C24 C 0.05719 0.6503 0.26652 0.0
N25 N 0.04433 0.64831 0.26882 0.0
C26 C 0.0651 0.64735 0.29514 0.0
C27 C 0.04622 0.64174 0.32894 0.0
C28 C 0.03868 0.64488 0.29974 0.0
C29 C 0.05967 0.64228 0.32616 0.0
H30 H 0.06139 0.65324 0.24174 0.0
H31 H 0.02841 0.64336 0.30065 0.0
C32 C 0.00645 0.63489 0.13983 0.0
N33 N 0.98601 0.62084 0.1139 0.0
C34 C 0.00858 0.62309 0.12327 0.0
C35 C 0.99392 0.63958 0.14307 0.0
C36 C -0.00188 0.61613 0.11033 0.0
C37 C 0.98372 0.63232 0.12986 0.0
C38 C 0.05145 0.65402 0.15986 0.0
C39 C 0.05043 0.66127 0.12887 0.0
C40 C 0.06258 0.64686 0.16612 0.0
C41 C 0.06056 0.66121 0.10467 0.0
C42 C 0.07248 0.64702 0.14121 0.0
N43 N 0.07127 0.65413 0.11127 0.0
C44 C 0.02583 0.68325 0.16378 0.0
C45 C 0.01027 0.67234 0.12928 0.0
C46 C 0.02449 0.69426 0.14306 0.0
N47 N 0.01892 0.67254 0.15611 0.0
C48 C 0.00856 0.68313 0.10806 0.0
C49 C 0.01595 0.69417 0.1143 0.0
H50 H 0.03281 0.68303 0.18493 0.0
H51 H 0.00513 0.66362 0.12325 0.0
C52 C 0.05045 0.61661 0.14619 0.0
N53 N 0.04324 0.62684 0.13611 0.0
C54 C 0.05844 0.61049 0.12187 0.0
C55 C 0.05091 0.62516 0.07688 0.0
C56 C 0.0431 0.631 0.1021 0.0
C57 C 0.0589 0.6149 0.0868 0.0
H58 H 0.05023 0.61337 0.17324 0.0
H59 H 0.03713 0.63909 0.09482 0.0
O60 O 0.01686 0.65428 0.22959 0.0
O61 O 0.03013 0.6282 0.2147 0.0
O62 O 0.01655 0.64175 0.15324 0.0
O63 O 0.0415 0.6537 0.1835 0.0
H64 H 0.03027 0.67186 0.26402 0.0
H65 H 0.99488 0.66456 0.20876 0.0
H66 H 0.02316 0.69433 0.27398 0.0
H67 H 0.98839 0.68715 0.21968 0.0
H68 H 0.06287 0.61135 0.2794 0.0
H69 H 0.01626 0.61862 0.26723 0.0
H70 H 0.05471 0.62322 0.22732 0.0
H71 H 0.02513 0.60686 0.31865 0.0
H72 H 0.97093 0.63194 0.2596 0.0
H73 H 0.98795 0.59865 0.20968 0.0
H74 H 0.07541 0.64822 0.29219 0.0
H75 H 0.04158 0.63781 0.35214 0.0
H76 H 0.01819 0.61925 0.12074 0.0
H77 H 0.99207 0.64861 0.15624 0.0
H78 H -0.00038 0.60695 0.09759 0.0
H79 H 0.97397 0.63578 0.13245 0.0
H80 H 0.04186 0.66673 0.12323 0.0
H81 H 0.06346 0.64099 0.18955 0.0
H82 H 0.05987 0.66672 0.08053 0.0
H83 H 0.08108 0.64142 0.14559 0.0
H84 H 0.03032 0.70262 0.14882 0.0
H85 H 0.00204 0.68258 0.08581 0.0
H86 H 0.06448 0.60266 0.13073 0.0
H87 H 0.05074 0.6287 0.04999 0.0
Li88 Li 0.8561 0.01595 0.69784 0.0
Li89 Li 0.84992 0.03655 0.72364 0.0
Li90 Li 0.83643 0.02569 0.68075 0.0
Li91 Li 0.85651 0.03571 0.66247 0.0
C92 C 0.82955 0.01616 0.74074 0.0
N93 N 0.80506 0.00972 0.76233 0.0
C94 C 0.82251 0.02461 0.76188 0.0
C95 C 0.82419 0.00442 0.7307 0.0
C96 C 0.81013 0.02117 0.77252 0.0
C97 C 0.81177 0.00135 0.74183 0.0
C98 C 0.87548 0.03567 0.72812 0.0
C99 C 0.88742 0.05291 0.75519 0.0
N100 N 0.89215 0.04453 0.77946 0.0
C101 C 0.88049 0.02721 0.75327 0.0
C102 C 0.87903 0.04862 0.72895 0.0
C103 C 0.8889 0.03187 0.77901 0.0
C104 C 0.87722 0.00016 0.69049 0.0
N105 N 0.86544 0.00067 0.70576 0.0
C106 C 0.86825 0.97976 0.73051 0.0
C107 C 0.86082 0.9908 0.72552 0.0
C108 C 0.88049 0.97897 0.71501 0.0
C109 C 0.88489 0.98932 0.69451 0.0
H110 H 0.88063 0.00821 0.67505 0.0
H111 H 0.85144 0.99154 0.73756 0.0
C112 C 0.85048 0.05951 0.7635 0.0
N113 N 0.85136 0.04652 0.76532 0.0
C114 C 0.85533 0.06707 0.79084 0.0
C115 C 0.86069 0.04768 0.82278 0.0
C116 C 0.8557 0.04051 0.79485 0.0
C117 C 0.86111 0.06114 0.82015 0.0
H118 H 0.84682 0.06402 0.73989 0.0
H119 H 0.85631 0.03014 0.79538 0.0
C120 C 0.85489 0.00849 0.63177 0.0
N121 N 0.86613 0.98762 0.59895 0.0
C122 C 0.8653 0.01025 0.60896 0.0
C123 C 0.85015 0.99611 0.63769 0.0
C124 C 0.87085 -0.00042 0.59265 0.0
C125 C 0.85599 0.98568 0.62093 0.0
C126 C 0.83964 0.05464 0.66153 0.0
C127 C 0.82986 0.05499 0.63624 0.0
C128 C 0.84826 0.0649 0.66394 0.0
C129 C 0.82887 0.0656 0.61379 0.0
C130 C 0.84697 0.07532 0.64094 0.0
N131 N 0.83739 0.07545 0.61656 0.0
C132 C 0.80945 0.03002 0.67593 0.0
C133 C 0.8181 0.01397 0.63842 0.0
C134 C 0.79758 0.02918 0.65887 0.0
N135 N 0.81947 0.02268 0.66482 0.0
C136 C 0.80645 0.01275 0.62086 0.0
C137 C 0.7961 0.02067 0.63031 0.0
H138 H 0.81089 0.03702 0.69667 0.0
H139 H 0.82625 0.00845 0.62964 0.0
C140 C 0.87788 0.0473 0.63012 0.0
N141 N 0.86528 0.04435 0.62553 0.0
C142 C 0.88461 0.05375 0.60371 0.0
C143 C 0.86532 0.05386 0.56812 0.0
C144 C 0.85902 0.04722 0.59501 0.0
C145 C 0.87827 0.05721 0.57241 0.0
H146 H 0.88272 0.0446 0.65422 0.0
H147 H 0.84911 0.04437 0.59165 0.0
O148 O 0.84157 0.01946 0.72952 0.0
O149 O 0.86699 0.03134 0.7032 0.0
O150 O 0.84945 0.01881 0.64849 0.0
O151 O 0.84083 0.04429 0.6836 0.0
H152 H 0.82652 0.03376 0.76975 0.0
H153 H 0.82949 0.99782 0.71413 0.0
H154 H 0.80454 0.02763 0.78878 0.0
H155 H 0.80746 0.99232 0.73409 0.0
H156 H 0.89014 0.06293 0.75635 0.0
H157 H 0.87778 0.01718 0.75327 0.0
H158 H 0.87518 0.05532 0.70986 0.0
H159 H 0.89279 0.02545 0.79875 0.0
H160 H 0.86455 0.97206 0.74683 0.0
H161 H 0.89415 0.98906 0.68153 0.0
H162 H 0.85522 0.07742 0.78815 0.0
H163 H 0.86511 0.0427 0.84474 0.0
H164 H 0.86912 0.01974 0.60406 0.0
H165 H 0.8422 0.99454 0.65558 0.0
H166 H 0.87894 0.0008 0.57505 0.0
H167 H 0.85249 0.97604 0.62553 0.0
H168 H 0.82318 0.04711 0.63362 0.0
H169 H 0.85602 0.06473 0.68288 0.0
H170 H 0.82137 0.06596 0.59404 0.0
H171 H 0.85364 0.08327 0.64236 0.0
H172 H 0.78981 0.03542 0.66702 0.0
H173 H 0.80584 0.00625 0.59859 0.0
H174 H 0.89461 0.05617 0.60788 0.0
H175 H 0.8602 0.0562 0.54406 0.0
Li176 Li 0.48451 0.85824 0.18836 0.0
Li177 Li 0.46411 0.85429 0.21807 0.0
Li178 Li 0.47277 0.83936 0.17475 0.0
Li179 Li 0.46413 0.86004 0.15633 0.0
C180 C 0.48262 0.83235 0.23448 0.0
N181 N 0.48683 0.80771 0.2589 0.0
C182 C 0.47402 0.82674 0.25823 0.0
C183 C 0.49339 0.82546 0.22323 0.0
C184 C 0.47632 0.81427 0.27028 0.0
C185 C 0.49533 0.813 0.23584 0.0
C186 C 0.46732 0.87961 0.22028 0.0
C187 C 0.45175 0.8929 0.25015 0.0
N188 N 0.46112 0.89727 0.27209 0.0
C189 C 0.47681 0.88425 0.24311 0.0
C190 C 0.4547 0.88401 0.22373 0.0
C191 C 0.47348 0.89318 0.2691 0.0
C192 C 0.50283 0.8776 0.17959 0.0
N193 N 0.5009 0.86579 0.19389 0.0
C194 C 0.52213 0.86554 0.21757 0.0
C195 C 0.51023 0.85967 0.21244 0.0
C196 C 0.52432 0.87786 0.2037 0.0
C197 C 0.51455 0.88383 0.18412 0.0
H198 H 0.49517 0.88223 0.16508 0.0
H199 H 0.50836 0.85034 0.22381 0.0
C200 C 0.44222 0.85669 0.26171 0.0
N201 N 0.45525 0.85692 0.26124 0.0
C202 C 0.43556 0.862 0.29013 0.0
C203 C 0.45587 0.86654 0.31842 0.0
C204 C 0.46214 0.86112 0.28945 0.0
C205 C 0.44242 0.86754 0.31821 0.0
H206 H 0.43699 0.85309 0.23917 0.0
H207 H 0.47251 0.86118 0.28822 0.0
C208 C 0.49028 0.85614 0.12158 0.0
N209 N 0.51104 0.86602 0.08509 0.0
C210 C 0.48872 0.86679 0.09948 0.0
C211 C 0.50241 0.85049 0.12499 0.0
C212 C 0.49933 0.87164 0.08126 0.0
C213 C 0.51278 0.85565 0.10638 0.0
C214 C 0.44389 0.84475 0.16015 0.0
C215 C 0.44235 0.83484 0.1356 0.0
C216 C 0.43432 0.85409 0.1636 0.0
C217 C 0.43126 0.83444 0.11488 0.0
C218 C 0.42338 0.85337 0.14232 0.0
N219 N 0.42209 0.84364 0.11862 0.0
C220 C 0.46626 0.81278 0.1744 0.0
C221 C 0.48271 0.81924 0.13491 0.0
C222 C 0.46657 0.8003 0.16084 0.0
N223 N 0.47413 0.82196 0.16083 0.0
C224 C 0.48344 0.80692 0.12088 0.0
C225 C 0.47514 0.79733 0.13337 0.0
H226 H 0.45944 0.81529 0.19483 0.0
H227 H 0.48868 0.82675 0.12421 0.0
C228 C 0.45181 0.88136 0.12494 0.0
N229 N 0.45503 0.86884 0.12023 0.0
C230 C 0.44421 0.88766 0.10005 0.0
C231 C 0.44378 0.86819 0.06529 0.0
C232 C 0.45151 0.86232 0.09069 0.0
C233 C 0.43987 0.88099 0.07003 0.0
H234 H 0.45505 0.88644 0.14815 0.0
H235 H 0.45444 0.85243 0.08735 0.0
O236 O 0.4804 0.84445 0.22187 0.0
O237 O 0.47034 0.87065 0.19514 0.0
O238 O 0.48005 0.85137 0.1401 0.0
O239 O 0.45477 0.8454 0.18041 0.0
H240 H 0.4656 0.83192 0.26705 0.0
H241 H 0.50006 0.8296 0.20449 0.0
H242 H 0.46972 0.80979 0.28858 0.0
H243 H 0.50357 0.80752 0.22717 0.0
H244 H 0.44199 0.89628 0.25334 0.0
H245 H 0.4866 0.88088 0.24114 0.0
H246 H 0.4472 0.88042 0.20661 0.0
H247 H 0.48071 0.8968 0.28704 0.0
H248 H 0.52937 0.8607 0.23321 0.0
H249 H 0.51591 0.89328 0.17274 0.0
H250 H 0.42517 0.86232 0.28934 0.0
H251 H 0.46154 0.87075 0.33942 0.0
H252 H 0.47945 0.87133 0.09658 0.0
H253 H 0.50386 0.84239 0.14242 0.0
H254 H 0.49826 0.87989 0.06416 0.0
H255 H 0.52223 0.85144 0.10903 0.0
H256 H 0.44969 0.82762 0.1322 0.0
H257 H 0.43542 0.86196 0.18194 0.0
H258 H 0.42997 0.82685 0.0957 0.0
H259 H 0.41595 0.86059 0.14452 0.0
H260 H 0.46001 0.79315 0.17113 0.0
H261 H 0.49 0.8051 0.09925 0.0
H262 H 0.44175 0.89764 0.10434 0.0
H263 H 0.44064 0.86263 0.04272 0.0
Li264 Li 0.63834 0.48548 0.69372 0.0
Li265 Li 0.64149 0.46373 0.71617 0.0
Li266 Li 0.6574 0.47413 0.67903 0.0
Li267 Li 0.63708 0.46685 0.65423 0.0
C268 C 0.66324 0.48119 0.74215 0.0
N269 N 0.68753 0.48421 0.77021 0.0
C270 C 0.66872 0.47139 0.76236 0.0
C271 C 0.67007 0.49255 0.7363 0.0
C272 C 0.68102 0.4731 0.77632 0.0
C273 C 0.68235 0.49388 0.75067 0.0
C274 C 0.61625 0.46741 0.71594 0.0
C275 C 0.60212 0.45096 0.73841 0.0
N276 N 0.59758 0.45937 0.7629 0.0
C277 C 0.61141 0.4759 0.74125 0.0
C278 C 0.61151 0.45485 0.71435 0.0
C279 C 0.60197 0.47165 0.76475 0.0
C280 C 0.61989 0.5044 0.68444 0.0
N281 N 0.63067 0.50158 0.70307 0.0
C282 C 0.62982 0.52183 0.73258 0.0
C283 C 0.63569 0.50994 0.72697 0.0
C284 C 0.61883 0.52509 0.71307 0.0
C285 C 0.61385 0.51621 0.68878 0.0
H286 H 0.61603 0.49745 0.66605 0.0
H287 H 0.64421 0.50736 0.74163 0.0
C288 C 0.6383 0.43992 0.75119 0.0
N289 N 0.63798 0.45288 0.75521 0.0
C290 C 0.63284 0.43198 0.77678 0.0
C291 C 0.62783 0.45083 0.81144 0.0
C292 C 0.6334 0.4584 0.78519 0.0
C293 C 0.62708 0.43747 0.80674 0.0
H294 H 0.64221 0.43578 0.72739 0.0
H295 H 0.6333 0.46875 0.78758 0.0
C296 C 0.6424 0.49433 0.62948 0.0
N297 N 0.63434 0.51686 0.59784 0.0
C298 C 0.63278 0.49407 0.60374 0.0
C299 C 0.64797 0.50606 0.63896 0.0
C300 C 0.62883 0.50556 0.58807 0.0
C301 C 0.64374 0.51734 0.62273 0.0
C302 C 0.65179 0.44621 0.65316 0.0
C303 C 0.66213 0.44543 0.62968 0.0
C304 C 0.64213 0.43689 0.65194 0.0
C305 C 0.66262 0.43534 0.60538 0.0
C306 C 0.64295 0.42698 0.62719 0.0
N307 N 0.65309 0.42641 0.60462 0.0
C308 C 0.68377 0.46679 0.67852 0.0
C309 C 0.67831 0.48537 0.6456 0.0
C310 C 0.69622 0.46698 0.66475 0.0
N311 N 0.67506 0.47573 0.66798 0.0
C312 C 0.69061 0.486 0.6315 0.0
C313 C 0.69964 0.47652 0.6402 0.0
H314 H 0.68084 0.45913 0.69607 0.0
H315 H 0.67116 0.4922 0.63719 0.0
C316 C 0.61616 0.45712 0.61534 0.0
N317 N 0.62889 0.45987 0.61379 0.0
C318 C 0.61011 0.45109 0.58698 0.0
C319 C 0.63034 0.45115 0.55559 0.0
C320 C 0.63594 0.45738 0.58435 0.0
C321 C 0.6173 0.44782 0.55695 0.0
H322 H 0.61073 0.45946 0.63879 0.0
H323 H 0.64599 0.45998 0.58356 0.0
O324 O 0.65134 0.47958 0.72762 0.0
O325 O 0.62571 0.47129 0.69325 0.0
O326 O 0.64626 0.48319 0.64552 0.0
O327 O 0.65106 0.45612 0.67688 0.0
H328 H 0.66357 0.46252 0.76696 0.0
H329 H 0.666 0.50017 0.72042 0.0
H330 H 0.6854 0.46558 0.79192 0.0
H331 H 0.68779 0.50257 0.74618 0.0
H332 H 0.59847 0.44123 0.73772 0.0
H333 H 0.615 0.48562 0.74307 0.0
H334 H 0.61521 0.44812 0.69513 0.0
H335 H 0.59819 0.4781 0.78459 0.0
H336 H 0.63386 0.52845 0.75166 0.0
H337 H 0.60524 0.51829 0.67378 0.0
H338 H 0.63272 0.42169 0.77253 0.0
H339 H 0.62343 0.45548 0.834 0.0
H340 H 0.62832 0.48512 0.59607 0.0
H341 H 0.65529 0.50649 0.65921 0.0
H342 H 0.62136 0.5055 0.56821 0.0
H343 H 0.64789 0.52648 0.63007 0.0
H344 H 0.66961 0.45261 0.62981 0.0
H345 H 0.63394 0.43745 0.6694 0.0
H346 H 0.67054 0.43465 0.58699 0.0
H347 H 0.63548 0.41977 0.62578 0.0
H348 H 0.70294 0.45951 0.67216 0.0
H349 H 0.69273 0.49337 0.61217 0.0
H350 H 0.60002 0.44866 0.58893 0.0
H351 H 0.63613 0.44892 0.53262 0.0
Li352 Li 0.01924 0.83556 0.81337 0.0
Li353 Li 0.02906 0.85522 0.83551 0.0
Li354 Li 0.00961 0.85555 0.7991 0.0
Li355 Li 0.03039 0.85003 0.7734 0.0
C356 C 0.00163 0.85303 0.86408 0.0
N357 N 0.98049 0.86382 0.8967 0.0
C358 C 0.0032 0.86315 0.88795 0.0
C359 C 0.98931 0.84834 0.85697 0.0
C360 C 0.99239 0.86848 0.90415 0.0
C361 C 0.97875 0.85395 0.87366 0.0
C362 C 0.048 0.83835 0.83465 0.0
C363 C 0.06853 0.84514 0.85757 0.0
N364 N 0.06841 0.83508 0.88049 0.0
C365 C 0.04808 0.82809 0.85847 0.0
C366 C 0.05832 0.84694 0.83416 0.0
C367 C 0.05849 0.82659 0.88139 0.0
C368 C 0.02375 0.80867 0.81264 0.0
N369 N 0.01618 0.8182 0.82565 0.0
C370 C 0.00584 0.80361 0.86497 0.0
C371 C 0.00717 0.81587 0.85075 0.0
C372 C 0.01396 0.7937 0.85349 0.0
C373 C 0.0228 0.79625 0.82632 0.0
H374 H 0.03095 0.81087 0.79297 0.0
H375 H 0.00146 0.82365 0.86105 0.0
C376 C 0.04137 0.87551 0.87129 0.0
N377 N 0.03764 0.86306 0.87419 0.0
C378 C 0.04834 0.88132 0.89837 0.0
C379 C 0.04713 0.8615 0.93147 0.0
C380 C 0.04005 0.85613 0.90387 0.0
C381 C 0.05151 0.87424 0.92876 0.0
H382 H 0.03897 0.88093 0.8479 0.0
H383 H 0.0367 0.84633 0.90578 0.0
C384 C 0.01026 0.83007 0.7515 0.0
N385 N 0.0041 0.80618 0.72472 0.0
C386 C 0.01885 0.82367 0.72929 0.0
C387 C -0.00149 0.82437 0.75999 0.0
C388 C 0.01556 0.81159 0.71602 0.0
C389 C 0.99558 0.81227 0.74624 0.0
C390 C 0.02945 0.87553 0.77272 0.0
C391 C 0.02113 0.88098 0.7479 0.0
C392 C 0.04241 0.87903 0.77277 0.0
C393 C 0.02595 0.8898 0.72344 0.0
C394 C 0.04686 0.88785 0.74779 0.0
N395 N 0.0386 0.893 0.72384 0.0
C396 C 0.99351 0.87658 0.80697 0.0
C397 C 0.98501 0.86056 0.76904 0.0
C398 C 0.98299 0.88449 0.80066 0.0
N399 N 0.99436 0.86493 0.79103 0.0
C400 C 0.97429 0.86819 0.7619 0.0
C401 C 0.9733 0.88041 0.7774 0.0
H402 H 0.00117 0.87981 0.8241 0.0
H403 H 0.98604 0.8513 0.75644 0.0
C404 C 0.05358 0.85152 0.73449 0.0
N405 N 0.04058 0.85233 0.73239 0.0
C406 C 0.06119 0.85667 0.70769 0.0
C407 C 0.04188 0.86225 0.67569 0.0
C408 C 0.03465 0.85698 0.7031 0.0
C409 C 0.05533 0.86264 0.67856 0.0
H410 H 0.05803 0.84762 0.75787 0.0
H411 H 0.02428 0.85754 0.70234 0.0
O412 O 0.01208 0.84782 0.84747 0.0
O413 O 0.03783 0.84005 0.8122 0.0
O414 O 0.01341 0.84178 0.76528 0.0
O415 O 0.02499 0.86663 0.79637 0.0
H416 H 0.01263 0.86692 0.89373 0.0
H417 H 0.9879 0.84062 0.83824 0.0
H418 H 0.99345 0.87635 0.92258 0.0
H419 H 0.96916 0.8505 0.86817 0.0
H420 H 0.07652 0.85178 0.85765 0.0
H421 H 0.04015 0.82142 0.85962 0.0
H422 H 0.05833 0.85509 0.81645 0.0
H423 H 0.05866 0.81872 0.90002 0.0
H424 H -0.00094 0.80214 0.88629 0.0
H425 H 0.02921 0.78884 0.81671 0.0
H426 H 0.05116 0.89127 0.89553 0.0
H427 H 0.04937 0.85564 0.95428 0.0
H428 H 0.02801 0.82794 0.7226 0.0
H429 H 0.9918 0.82916 0.7774 0.0
H430 H 0.02213 0.8065 0.69889 0.0
H431 H 0.98657 0.80769 0.75275 0.0
H432 H 0.01111 0.8783 0.74714 0.0
H433 H 0.04902 0.87482 0.79151 0.0
H434 H 0.01963 0.89403 0.70397 0.0
H435 H 0.05689 0.89054 0.74731 0.0
H436 H 0.98252 0.89377 0.81353 0.0
H437 H 0.96709 0.86476 0.74352 0.0
H438 H 0.07154 0.85654 0.71054 0.0
H439 H 0.03696 0.86682 0.65385 0.0
Li440 Li 0.65789 0.01836 0.32003 0.0
Li441 Li 0.63676 0.02422 0.34221 0.0
Li442 Li 0.63998 0.00551 0.30382 0.0
Li443 Li 0.64179 0.02731 0.28063 0.0
C444 C 0.64369 0.99736 0.36891 0.0
N445 N 0.63684 0.9745 0.40088 0.0
C446 C 0.63369 0.99706 0.39351 0.0
C447 C 0.65026 0.98602 0.36074 0.0
C448 C 0.63037 0.98541 0.40937 0.0
C449 C 0.64663 0.97456 0.37711 0.0
C450 C 0.6499 0.04587 0.34386 0.0
C451 C 0.63939 0.06459 0.36791 0.0
N452 N 0.64904 0.06586 0.39188 0.0
C453 C 0.65971 0.04737 0.36874 0.0
C454 C 0.63967 0.05457 0.34338 0.0
C455 C 0.6591 0.05755 0.39276 0.0
C456 C 0.68369 0.02755 0.32285 0.0
N457 N 0.67543 0.01814 0.33311 0.0
C458 C 0.69114 0.00914 0.37158 0.0
C459 C 0.679 0.00891 0.35643 0.0
C460 C 0.6997 0.01907 0.36292 0.0
C461 C 0.69597 0.02822 0.33762 0.0
H462 H 0.68051 0.03486 0.30454 0.0
H463 H 0.67219 0.00171 0.36462 0.0
C464 C 0.61492 0.03352 0.37845 0.0
N465 N 0.62765 0.03094 0.38148 0.0
C466 C 0.60843 0.0397 0.40582 0.0
C467 C 0.62819 0.04002 0.43936 0.0
C468 C 0.63425 0.03366 0.41155 0.0
C469 C 0.61517 0.04328 0.43638 0.0
H470 H 0.60986 0.03103 0.35452 0.0
H471 H 0.64432 0.03123 0.41344 0.0
C472 C 0.66517 0.01142 0.25792 0.0
N473 N 0.69 0.01009 0.23264 0.0
C474 C 0.67018 0.02148 0.23775 0.0
C475 C 0.67275 0.00066 0.26514 0.0
C476 C 0.68276 0.02062 0.2252 0.0
C477 C 0.6853 0.00018 0.25217 0.0
C478 C 0.61686 0.02175 0.27854 0.0
C479 C 0.61281 0.01269 0.25367 0.0
C480 C 0.61136 0.034 0.27864 0.0
C481 C 0.60337 0.01607 0.22914 0.0
C482 C 0.60199 0.03702 0.25359 0.0
N483 N 0.59822 0.02807 0.22957 0.0
C484 C 0.62303 0.98514 0.31177 0.0
C485 C 0.63969 0.98095 0.27058 0.0
C486 C 0.61793 0.97295 0.30655 0.0
N487 N 0.63378 0.98882 0.29416 0.0
C488 C 0.63477 0.96868 0.26409 0.0
C489 C 0.6238 0.96457 0.28241 0.0
H490 H 0.61843 0.99174 0.32985 0.0
H491 H 0.64814 0.98422 0.25669 0.0
C492 C 0.63779 0.05065 0.24397 0.0
N493 N 0.63807 0.03766 0.24072 0.0
C494 C 0.63223 0.05814 0.21754 0.0
C495 C 0.62833 0.03882 0.18376 0.0
C496 C 0.63401 0.03171 0.2108 0.0
C497 C 0.62696 0.05218 0.18757 0.0
H498 H 0.64132 0.05514 0.26776 0.0
H499 H 0.63441 0.02135 0.209 0.0
O500 O 0.64698 0.00866 0.35273 0.0
O501 O 0.65021 0.03583 0.32048 0.0
O502 O 0.65298 0.01221 0.2711 0.0
O503 O 0.62629 0.0187 0.3023 0.0
H504 H 0.62846 0.0057 0.40013 0.0
H505 H 0.65791 0.98601 0.34138 0.0
H506 H 0.62261 0.98504 0.42835 0.0
H507 H 0.65156 0.96571 0.37078 0.0
H508 H 0.63147 0.07131 0.36802 0.0
H509 H 0.66762 0.04068 0.3699 0.0
H510 H 0.63188 0.05345 0.32477 0.0
H511 H 0.6666 0.05879 0.41223 0.0
H512 H 0.6935 0.00205 0.39146 0.0
H513 H 0.70232 0.03601 0.33023 0.0
H514 H 0.59837 0.04208 0.4026 0.0
H515 H 0.63365 0.04247 0.46277 0.0
H516 H 0.66444 0.0299 0.23209 0.0
H517 H 0.66904 0.99285 0.28101 0.0
H518 H 0.68679 0.02835 0.20965 0.0
H519 H 0.69131 0.99195 0.25772 0.0
H520 H 0.617 0.00319 0.253 0.0
H521 H 0.61445 0.04117 0.29746 0.0
H522 H 0.6002 0.00918 0.20964 0.0
H523 H 0.59775 0.04651 0.25314 0.0
H524 H 0.60929 0.97021 0.32059 0.0
H525 H 0.63948 0.96249 0.24512 0.0
H526 H 0.63166 0.06844 0.22113 0.0
H527 H 0.62434 0.03381 0.16123 0.0
Li528 Li 0.47193 0.6566 0.82183 0.0
Li529 Li 0.46149 0.63614 0.83395 0.0
Li530 Li 0.48178 0.63746 0.80123 0.0
Li531 Li 0.4617 0.64453 0.77446 0.0
C532 C 0.48813 0.63623 0.8678 0.0
N533 N 0.50824 0.62324 0.89929 0.0
C534 C 0.48586 0.62479 0.8861 0.0
C535 C 0.50063 0.64109 0.86568 0.0
C536 C 0.49616 0.61837 0.90183 0.0
C537 C 0.51066 0.63437 0.8817 0.0
C538 C 0.44263 0.65324 0.83591 0.0
C539 C 0.42142 0.64575 0.85128 0.0
N540 N 0.42097 0.65447 0.878 0.0
C541 C 0.44194 0.66213 0.86353 0.0
C542 C 0.43227 0.645 0.82968 0.0
C543 C 0.4309 0.66261 0.88448 0.0
C544 C 0.46766 0.68331 0.83173 0.0
N545 N 0.47472 0.67298 0.84202 0.0
C546 C 0.48402 0.68488 0.88933 0.0
C547 C 0.48295 0.67363 0.86977 0.0
C548 C 0.47643 0.69554 0.88046 0.0
C549 C 0.46836 0.69478 0.85078 0.0
H550 H 0.46105 0.68243 0.80983 0.0
H551 H 0.48823 0.66521 0.8778 0.0
C552 C 0.44725 0.61499 0.86067 0.0
N553 N 0.45183 0.6269 0.868 0.0
C554 C 0.43928 0.60872 0.88477 0.0
C555 C 0.44117 0.627 0.9238 0.0
C556 C 0.44929 0.63279 0.89924 0.0
C557 C 0.43591 0.61484 0.9166 0.0
H558 H 0.44971 0.61038 0.83601 0.0
H559 H 0.45328 0.64217 0.90461 0.0
C560 C 0.48211 0.66532 0.76441 0.0
N561 N 0.4885 0.6904 0.74854 0.0
C562 C 0.47405 0.67269 0.74298 0.0
C563 C 0.49344 0.67066 0.77766 0.0
C564 C 0.47745 0.68537 0.73526 0.0
C565 C 0.49649 0.68337 0.76939 0.0
C566 C 0.46239 0.61911 0.76444 0.0
C567 C 0.47119 0.61443 0.7397 0.0
C568 C 0.44937 0.61606 0.76095 0.0
C569 C 0.4668 0.60686 0.71173 0.0
C570 C 0.44536 0.6085 0.73253 0.0
N571 N 0.45408 0.60409 0.70872 0.0
C572 C 0.49823 0.61629 0.80288 0.0
C573 C 0.50723 0.63473 0.77565 0.0
C574 C 0.50942 0.60933 0.79664 0.0
N575 N 0.49736 0.62873 0.79234 0.0
C576 C 0.51862 0.62812 0.76884 0.0
C577 C 0.51977 0.61521 0.77917 0.0
H578 H 0.49018 0.61179 0.816 0.0
H579 H 0.5062 0.6446 0.76731 0.0
C580 C 0.43942 0.64637 0.73201 0.0
N581 N 0.45234 0.64457 0.73149 0.0
C582 C 0.43199 0.64263 0.70314 0.0
C583 C 0.45144 0.63653 0.67256 0.0
C584 C 0.45849 0.64046 0.70195 0.0
C585 C 0.43795 0.63698 0.67367 0.0
H586 H 0.43481 0.6499 0.75562 0.0
H587 H 0.46879 0.63917 0.70238 0.0
O588 O 0.47821 0.64254 0.85164 0.0
O589 O 0.45344 0.6525 0.81539 0.0
O590 O 0.47882 0.65298 0.77278 0.0
O591 O 0.46646 0.62677 0.79162 0.0
H592 H 0.47629 0.62085 0.88791 0.0
H593 H 0.50259 0.64984 0.85121 0.0
H594 H 0.49455 0.60948 0.91596 0.0
H595 H 0.52039 0.63796 0.88 0.0
H596 H 0.41339 0.63936 0.84691 0.0
H597 H 0.44988 0.66848 0.86912 0.0
H598 H 0.43269 0.63792 0.80884 0.0
H599 H 0.43027 0.66941 0.90602 0.0
H600 H 0.49019 0.68499 0.91236 0.0
H601 H 0.46239 0.70282 0.84306 0.0
H602 H 0.43578 0.59921 0.87843 0.0
H603 H 0.43881 0.63219 0.9477 0.0
H604 H 0.46522 0.66871 0.73264 0.0
H605 H 0.49971 0.66511 0.79461 0.0
H606 H 0.47129 0.69121 0.71881 0.0
H607 H 0.50518 0.68767 0.77964 0.0
H608 H 0.48128 0.61677 0.74175 0.0
H609 H 0.4424 0.61967 0.77965 0.0
H610 H 0.47349 0.60324 0.69229 0.0
H611 H 0.4353 0.6062 0.72931 0.0
H612 H 0.50997 0.59944 0.80543 0.0
H613 H 0.52631 0.63295 0.75491 0.0
H614 H 0.42164 0.64346 0.70472 0.0
H615 H 0.45646 0.63219 0.65054 0.0
Li616 Li 0.83518 0.47408 0.31774 0.0
Li617 Li 0.85488 0.46276 0.33327 0.0
Li618 Li 0.85519 0.4833 0.30138 0.0
Li619 Li 0.84791 0.46362 0.27242 0.0
C620 C 0.85454 0.48924 0.369 0.0
N621 N 0.86661 0.50877 0.40568 0.0
C622 C 0.86475 0.48647 0.39173 0.0
C623 C 0.85041 0.50195 0.36514 0.0
C624 C 0.87073 0.49647 0.41001 0.0
C625 C 0.85667 0.51169 0.38383 0.0
C626 C 0.83722 0.44462 0.33189 0.0
C627 C 0.84375 0.4232 0.34832 0.0
N628 N 0.83441 0.42296 0.37341 0.0
C629 C 0.82769 0.44415 0.35787 0.0
C630 C 0.84532 0.43405 0.32704 0.0
C631 C 0.82641 0.43311 0.37855 0.0
C632 C 0.80815 0.47061 0.32355 0.0
N633 N 0.81845 0.47747 0.33495 0.0
C634 C 0.80606 0.48705 0.38083 0.0
C635 C 0.81754 0.4858 0.36241 0.0
C636 C 0.79543 0.47955 0.37112 0.0
C637 C 0.79644 0.47149 0.34145 0.0
H638 H 0.80923 0.46391 0.30192 0.0
H639 H 0.82591 0.49093 0.37134 0.0
C640 C 0.8758 0.44925 0.36202 0.0
N641 N 0.86346 0.45286 0.36809 0.0
C642 C 0.88234 0.44179 0.38673 0.0
C643 C 0.86341 0.44204 0.42373 0.0
C644 C 0.8573 0.44967 0.39852 0.0
C645 C 0.87609 0.438 0.41785 0.0
H646 H 0.88058 0.45219 0.33805 0.0
H647 H 0.84762 0.45302 0.40312 0.0
C648 C 0.82841 0.48527 0.25995 0.0
N649 N 0.8041 0.49331 0.2411 0.0
C650 C 0.82077 0.47758 0.2382 0.0
C651 C 0.82375 0.49706 0.27199 0.0
C652 C 0.80849 0.48182 0.22897 0.0
C653 C 0.81141 0.50095 0.26222 0.0
C654 C 0.8735 0.46352 0.2668 0.0
C655 C 0.8789 0.47238 0.24336 0.0
C656 C 0.87634 0.45046 0.26316 0.0
C657 C 0.88699 0.468 0.21649 0.0
C658 C 0.88443 0.44646 0.23587 0.0
N659 N 0.88955 0.45524 0.21329 0.0
C660 C 0.87677 0.49828 0.31186 0.0
C661 C 0.86105 0.50856 0.27646 0.0
C662 C 0.88476 0.50894 0.30969 0.0
N663 N 0.86514 0.49832 0.29566 0.0
C664 C 0.86885 0.51942 0.27311 0.0
C665 C 0.88091 0.51969 0.28985 0.0
H666 H 0.87978 0.48993 0.32671 0.0
H667 H 0.85179 0.50824 0.26357 0.0
C668 C 0.84673 0.44158 0.22912 0.0
N669 N 0.8486 0.45448 0.22917 0.0
C670 C 0.85101 0.43421 0.20071 0.0
C671 C 0.85782 0.45372 0.17154 0.0
C672 C 0.85336 0.46071 0.20049 0.0
C673 C 0.85725 0.44024 0.17227 0.0
H674 H 0.84272 0.43691 0.25205 0.0
H675 H 0.85474 0.471 0.20142 0.0
O676 O 0.84867 0.4796 0.35047 0.0
O677 O 0.8387 0.4554 0.31155 0.0
O678 O 0.84034 0.48116 0.26985 0.0
O679 O 0.86533 0.46759 0.29283 0.0
H680 H 0.86809 0.47672 0.39507 0.0
H681 H 0.84263 0.50431 0.34736 0.0
H682 H 0.87867 0.49446 0.42757 0.0
H683 H 0.85365 0.52157 0.38083 0.0
H684 H 0.85001 0.415 0.34501 0.0
H685 H 0.82144 0.45226 0.36241 0.0
H686 H 0.85289 0.4343 0.30754 0.0
H687 H 0.81911 0.43264 0.39881 0.0
H688 H 0.8058 0.4932 0.4039 0.0
H689 H 0.78845 0.46559 0.33307 0.0
H690 H 0.89213 0.43886 0.38135 0.0
H691 H 0.85837 0.43947 0.44774 0.0
H692 H 0.82424 0.4684 0.22879 0.0
H693 H 0.82953 0.50307 0.28904 0.0
H694 H 0.80244 0.47596 0.21226 0.0
H695 H 0.80763 0.51002 0.2715 0.0
H696 H 0.87676 0.4825 0.24558 0.0
H697 H 0.87218 0.44346 0.2809 0.0
H698 H 0.89118 0.47474 0.19806 0.0
H699 H 0.8866 0.43637 0.23253 0.0
H700 H 0.89383 0.50877 0.32364 0.0
H701 H 0.86556 0.52739 0.25714 0.0
H702 H 0.85013 0.42385 0.20192 0.0
H703 H 0.86261 0.45876 0.15027 0.0
Li704 Li 0.9687 0.35764 0.8467 0.0
Li705 Li 0.97323 0.33666 0.82116 0.0
Li706 Li 0.98783 0.35446 0.81182 0.0
Li707 Li 0.96688 0.3538 0.78335 0.0
C708 C 0.9837 0.34647 0.89279 0.0
N709 N 0.98326 0.34753 0.96574 0.0
C710 C 0.97755 0.33683 0.91217 0.0
C711 C 0.98967 0.35661 0.91053 0.0
C712 C 0.97743 0.33755 0.94903 0.0
C713 C 0.98933 0.35699 0.94741 0.0
C714 C 0.9448 0.34707 0.80856 0.0
C715 C 0.92796 0.33996 0.76943 0.0
N716 N 0.92084 0.35039 0.77858 0.0
C717 C 0.93731 0.35771 0.81761 0.0
C718 C 0.94009 0.3381 0.78433 0.0
C719 C 0.92522 0.35922 0.80216 0.0
C720 C 0.96091 0.37879 0.88945 0.0
N721 N 0.96048 0.36585 0.88517 0.0
C722 C 0.94508 0.36382 0.93152 0.0
C723 C 0.95287 0.35832 0.90569 0.0
C724 C 0.94503 0.37721 0.93597 0.0
C725 C 0.95327 0.38471 0.91502 0.0
H726 H 0.96675 0.38458 0.87207 0.0
H727 H 0.9525 0.34808 0.90105 0.0
C728 C 0.98369 0.31329 0.84206 0.0
N729 N 0.97251 0.31903 0.83252 0.0
C730 C 0.98352 0.30139 0.8589 0.0
C731 C 0.96036 0.30128 0.85415 0.0
C732 C 0.96098 0.3132 0.83738 0.0
C733 C 0.9717 0.29546 0.8663 0.0
H734 H 0.99267 0.31838 0.83889 0.0
H735 H 0.95223 0.31815 0.83038 0.0
C736 C 0.98234 0.37899 0.80163 0.0
N737 N -0.00168 0.39957 0.7877 0.0
C738 C 0.98319 0.38399 0.76742 0.0
C739 C 0.98957 0.38452 0.82877 0.0
C740 C 0.99132 0.39439 0.76092 0.0
C741 C 0.99762 0.39489 0.82118 0.0
C742 C 0.98581 0.3305 0.76443 0.0
C743 C -0.00118 0.3274 0.76744 0.0
C744 C 0.97723 0.3215 0.75054 0.0
C745 C 0.00303 0.31527 0.75667 0.0
C746 C 0.98181 0.30947 0.74013 0.0
N747 N 0.9945 0.30663 0.74339 0.0
C748 C 0.01385 0.35883 0.83172 0.0
C749 C 0.00831 0.36415 0.77282 0.0
C750 C 0.02621 0.36375 0.8269 0.0
N751 N 0.00514 0.35943 0.80508 0.0
C752 C 0.02042 0.36942 0.76706 0.0
C753 C 0.02954 0.36949 0.79449 0.0
H754 H 0.01114 0.35475 0.85689 0.0
H755 H 0.00123 0.36426 0.75193 0.0
C756 C 0.95212 0.371 0.74555 0.0
N757 N 0.95739 0.3591 0.74332 0.0
C758 C 0.94533 0.37608 0.71715 0.0
C759 C 0.94901 0.35631 0.6851 0.0
C760 C 0.95594 0.35168 0.71404 0.0
C761 C 0.94381 0.36873 0.6864 0.0
H762 H 0.95333 0.37661 0.76937 0.0
H763 H 0.96022 0.34223 0.7131 0.0
O764 O 0.98375 0.34607 0.85664 0.0
O765 O 0.95681 0.34561 0.82261 0.0
O766 O 0.97464 0.36863 0.8084 0.0
O767 O 0.98148 0.34225 0.77526 0.0
H768 H 0.97276 0.32897 0.89901 0.0
H769 H 0.99447 0.36415 0.89602 0.0
H770 H 0.97266 0.33019 0.96433 0.0
H771 H 0.99387 0.36481 0.96147 0.0
H772 H 0.92423 0.33313 0.75048 0.0
H773 H 0.94085 0.36484 0.83597 0.0
H774 H 0.94582 0.32989 0.77669 0.0
H775 H 0.91935 0.36744 0.8088 0.0
H776 H 0.93896 0.35767 0.9473 0.0
H777 H 0.95337 0.39508 0.91723 0.0
H778 H 0.99248 0.29738 0.86834 0.0
H779 H 0.95106 0.29698 0.85916 0.0
H780 H 0.97781 0.37975 0.74596 0.0
H781 H 0.98911 0.38074 0.85532 0.0
H782 H 0.99212 0.3983 0.73454 0.0
H783 H 0.00334 0.39919 0.8419 0.0
H784 H 0.00559 0.33424 0.77819 0.0
H785 H 0.96712 0.32371 0.74829 0.0
H786 H 0.01306 0.31272 0.75896 0.0
H787 H 0.97527 0.30238 0.72955 0.0
H788 H 0.03297 0.36323 0.84856 0.0
H789 H 0.02234 0.37387 0.74177 0.0
H790 H 0.94131 0.38565 0.71916 0.0
H791 H 0.94801 0.35042 0.66167 0.0
Li792 Li 0.13797 0.97145 0.34835 0.0
Li793 Li 0.15861 0.97387 0.31894 0.0
Li794 Li 0.14148 0.98917 0.30875 0.0
Li795 Li 0.14033 0.96746 0.28523 0.0
C796 C 0.15063 0.98714 0.3891 0.0
N797 N 0.1505 0.98911 0.46191 0.0
C798 C 0.1606 0.98178 0.40897 0.0
C799 C 0.14063 0.99354 0.40628 0.0
C800 C 0.16036 0.98288 0.44575 0.0
C801 C 0.14072 0.99442 0.4431 0.0
C802 C 0.14643 0.94583 0.31461 0.0
C803 C 0.15172 0.92758 0.27816 0.0
N804 N 0.14133 0.92123 0.2911 0.0
C805 C 0.1358 0.93911 0.32758 0.0
C806 C 0.15447 0.94002 0.28975 0.0
C807 C 0.13339 0.92668 0.31537 0.0
C808 C 0.11718 0.96533 0.39418 0.0
N809 N 0.13011 0.96478 0.38951 0.0
C810 C 0.1324 0.95068 0.43879 0.0
C811 C 0.13775 0.9578 0.41133 0.0
C812 C 0.11902 0.95059 0.44345 0.0
C813 C 0.1114 0.9583 0.42131 0.0
H814 H 0.11131 0.97065 0.37578 0.0
H815 H 0.14796 0.95727 0.40632 0.0
C816 C 0.183 0.98333 0.33412 0.0
N817 N 0.17638 0.97234 0.32773 0.0
C818 C 0.19523 0.9828 0.349 0.0
C819 C 0.19385 0.95961 0.3486 0.0
C820 C 0.18162 0.9606 0.33378 0.0
C821 C 0.2006 0.97083 0.35764 0.0
H822 H 0.1784 0.99253 0.33007 0.0
H823 H 0.17601 0.95203 0.32925 0.0
C824 C 0.11673 0.98497 0.30148 0.0
N825 N 0.09733 0.00178 0.28301 0.0
C826 C 0.11218 0.98533 0.26675 0.0
C827 C 0.11136 0.99311 0.32686 0.0
C828 C 0.10236 0.9939 0.25794 0.0
C829 C 0.10158 0.00157 0.31698 0.0
C830 C 0.16429 0.98417 0.25858 0.0
C831 C 0.1684 0.99694 0.25873 0.0
C832 C 0.17229 0.97462 0.24484 0.0
C833 C 0.18052 -5e-05 0.24527 0.0
C834 C 0.18435 0.97802 0.23169 0.0
N835 N 0.18818 0.99051 0.23217 0.0
C836 C 0.13805 0.01588 0.32308 0.0
C837 C 0.1337 0.00903 0.26459 0.0
C838 C 0.13426 0.02839 0.31474 0.0
N839 N 0.13747 0.0065 0.2982 0.0
C840 C 0.12968 0.02132 0.25522 0.0
C841 C 0.12978 0.0312 0.28053 0.0
H842 H 0.14133 0.01363 0.34945 0.0
H843 H 0.13351 0.00138 0.24528 0.0
C844 C 0.12167 0.95227 0.25473 0.0
N845 N 0.13357 0.95711 0.24858 0.0
C846 C 0.1156 0.94476 0.22931 0.0
C847 C 0.13431 0.94703 0.19195 0.0
C848 C 0.13999 0.95464 0.21806 0.0
C849 C 0.12189 0.94214 0.19737 0.0
H850 H 0.11686 0.95434 0.2794 0.0
H851 H 0.14945 0.95863 0.21393 0.0
O852 O 0.15059 0.98601 0.35308 0.0
O853 O 0.14875 0.95814 0.32548 0.0
O854 O 0.12653 0.97686 0.31047 0.0
O855 O 0.15253 0.981 0.27211 0.0
H856 H 0.16837 0.97668 0.39627 0.0
H857 H 0.13281 0.9977 0.39138 0.0
H858 H 0.16798 0.97873 0.46145 0.0
H859 H 0.133 -0.0007 0.45674 0.0
H860 H 0.15782 0.92301 0.25876 0.0
H861 H 0.12938 0.94349 0.34652 0.0
H862 H 0.16265 0.94513 0.27912 0.0
H863 H 0.12518 0.9214 0.32507 0.0
H864 H 0.13864 0.94498 0.45546 0.0
H865 H 0.10104 0.95835 0.42364 0.0
H866 H 0.19997 0.99169 0.35606 0.0
H867 H 0.19769 0.95019 0.35457 0.0
H868 H 0.11631 0.97921 0.24666 0.0
H869 H 0.11479 0.99299 0.35381 0.0
H870 H 0.0988 0.99433 0.23112 0.0
H871 H 0.0974 0.00798 0.33629 0.0
H872 H 0.16235 0.00444 0.2694 0.0
H873 H 0.16929 0.96468 0.24478 0.0
H874 H 0.18385 0.00979 0.24535 0.0
H875 H 0.19068 0.97072 0.22117 0.0
H876 H 0.13474 0.03573 0.33495 0.0
H877 H 0.12612 0.0229 0.22871 0.0
H878 H 0.10609 0.94102 0.23462 0.0
H879 H 0.13941 0.94525 0.16751 0.0
Li880 Li 0.52115 0.15778 0.82038 0.0
Li881 Li 0.52251 0.13706 0.84982 0.0
Li882 Li 0.52618 0.13916 0.7865 0.0
Li883 Li 0.50475 0.14163 0.8111 0.0
C884 C 0.54833 0.14387 0.81464 0.0
N885 N 0.57236 0.13717 0.7898 0.0
C886 C 0.55443 0.13282 0.82727 0.0
C887 C 0.55448 0.15153 0.78945 0.0
C888 C 0.56658 0.1296 0.81438 0.0
C889 C 0.56662 0.14797 0.77719 0.0
C890 C 0.50776 0.15062 0.89126 0.0
C891 C 0.50021 0.14105 0.94544 0.0
N892 N 0.50602 0.15057 0.96412 0.0
C893 C 0.51365 0.16033 0.91101 0.0
C894 C 0.50096 0.14092 0.90859 0.0
C895 C 0.51265 0.16013 0.94781 0.0
C896 C 0.51325 0.18256 0.83676 0.0
N897 N 0.5238 0.17541 0.82923 0.0
C898 C 0.53764 0.19195 0.85051 0.0
C899 C 0.53586 0.17996 0.83477 0.0
C900 C 0.52689 0.19915 0.8611 0.0
C901 C 0.51457 0.19454 0.85269 0.0
H902 H 0.50379 0.17849 0.83307 0.0
H903 H 0.54406 0.17394 0.82928 0.0
C904 C 0.52784 0.11598 0.89547 0.0
N905 N 0.52894 0.12887 0.89078 0.0
C906 C 0.53455 0.10992 0.92275 0.0
C907 C 0.543 0.13059 0.94031 0.0
C908 C 0.53622 0.13622 0.91263 0.0
C909 C 0.54249 0.11722 0.94509 0.0
H910 H 0.5223 0.11033 0.87702 0.0
H911 H 0.5372 0.14639 0.90758 0.0
C912 C 0.51081 0.16411 0.76071 0.0
N913 N 0.50581 0.18841 0.73485 0.0
C914 C 0.49833 0.16903 0.76162 0.0
C915 C 0.52074 0.17152 0.7465 0.0
C916 C 0.496 0.18134 0.74843 0.0
C917 C 0.51802 0.18379 0.73362 0.0
C918 C 0.5074 0.11666 0.80383 0.0
C919 C 0.50637 0.11229 0.76902 0.0
C920 C 0.49929 0.11163 0.82979 0.0
C921 C 0.49716 0.10301 0.76073 0.0
C922 C 0.49018 0.10239 0.82041 0.0
N923 N 0.48931 0.09831 0.78637 0.0
C924 C 0.5397 0.11946 0.75504 0.0
C925 C 0.53847 0.13799 0.71868 0.0
C926 C 0.54641 0.11284 0.72902 0.0
N927 N 0.53577 0.13173 0.74931 0.0
C928 C 0.54535 0.13175 0.692 0.0
C929 C 0.54923 0.11896 0.69695 0.0
H930 H 0.53746 0.11479 0.7798 0.0
H931 H 0.53521 0.14774 0.71489 0.0
C932 C 0.478 0.13926 0.82686 0.0
N933 N 0.48717 0.13857 0.80141 0.0
C934 C 0.46533 0.13586 0.81909 0.0
C935 C 0.4718 0.13154 0.75891 0.0
C936 C 0.48426 0.13516 0.76774 0.0
C937 C 0.46214 0.13167 0.78485 0.0
H938 H 0.48055 0.14224 0.85328 0.0
H939 H 0.49176 0.13485 0.748 0.0
O940 O 0.53629 0.147 0.82617 0.0
O941 O 0.50877 0.15053 0.8552 0.0
O942 O 0.51332 0.15216 0.77398 0.0
O943 O 0.51615 0.12596 0.81233 0.0
H944 H 0.54978 0.1267 0.84647 0.0
H945 H 0.54985 0.16003 0.7791 0.0
H946 H 0.57138 0.12105 0.82381 0.0
H947 H 0.57145 0.15376 0.75755 0.0
H948 H 0.49502 0.13356 0.95918 0.0
H949 H 0.51908 0.16784 0.8982 0.0
H950 H 0.49641 0.13329 0.8938 0.0
H951 H 0.51721 0.16755 0.96341 0.0
H952 H 0.5473 0.1952 0.85616 0.0
H953 H 0.506 0.19962 0.86089 0.0
H954 H 0.53403 0.09957 0.92512 0.0
H955 H 0.54888 0.13661 0.95712 0.0
H956 H 0.49054 0.16345 0.77268 0.0
H957 H 0.53047 0.1679 0.74585 0.0
H958 H 0.48639 0.18529 0.74908 0.0
H959 H 0.52562 0.18966 0.72274 0.0
H960 H 0.51246 0.11617 0.74848 0.0
H961 H 0.49993 0.11492 0.85681 0.0
H962 H 0.4962 0.0996 0.73386 0.0
H963 H 0.48378 0.09849 0.8402 0.0
H964 H 0.54939 0.10303 0.73391 0.0
H965 H 0.54733 0.13674 0.66748 0.0
H966 H 0.45818 0.13634 0.83979 0.0
H967 H 0.46993 0.1282 0.73233 0.0
Li968 Li 0.33811 0.51744 0.32183 0.0
Li969 Li 0.35905 0.52432 0.34381 0.0
Li970 Li 0.35347 0.52599 0.28151 0.0
Li971 Li 0.35725 0.50506 0.30867 0.0
C972 C 0.34454 0.54699 0.30952 0.0
N973 N 0.34374 0.57139 0.28099 0.0
C974 C 0.35426 0.55581 0.31716 0.0
C975 C 0.33438 0.55059 0.28752 0.0
C976 C 0.35369 0.56811 0.30245 0.0
C977 C 0.33416 0.56296 0.2733 0.0
C978 C 0.35082 0.5079 0.39093 0.0
C979 C 0.36335 0.50332 0.44302 0.0
N980 N 0.35369 0.50799 0.4635 0.0
C981 C 0.341 0.51261 0.4125 0.0
C982 C 0.36207 0.50316 0.40628 0.0
C983 C 0.34264 0.51259 0.44912 0.0
C984 C 0.31643 0.50381 0.34315 0.0
N985 N 0.32082 0.51581 0.33603 0.0
C986 C 0.30221 0.52521 0.36207 0.0
C987 C 0.3139 0.52644 0.34442 0.0
C988 C 0.29768 0.51293 0.37123 0.0
C989 C 0.30475 0.50213 0.36046 0.0
H990 H 0.32234 0.49556 0.33711 0.0
H991 H 0.31784 0.53587 0.33941 0.0
C992 C 0.3804 0.53415 0.38184 0.0
N993 N 0.36739 0.53316 0.38101 0.0
C994 C 0.38634 0.542 0.40685 0.0
C995 C 0.36539 0.54751 0.42988 0.0
C996 C 0.35987 0.53959 0.40438 0.0
C997 C 0.3788 0.54895 0.43099 0.0
H998 H 0.38613 0.52919 0.36239 0.0
H999 H 0.34953 0.53892 0.40236 0.0
C1000 C 0.33228 0.50465 0.26442 0.0
N1001 N 0.3093 0.49357 0.2445 0.0
C1002 C 0.3308 0.49132 0.26559 0.0
C1003 C 0.32212 0.51234 0.25284 0.0
C1004 C 0.31909 0.4859 0.25545 0.0
C1005 C 0.31056 0.50656 0.24299 0.0
C1006 C 0.38064 0.5135 0.29342 0.0
C1007 C 0.38472 0.51378 0.25824 0.0
C1008 C 0.38776 0.50665 0.31842 0.0
C1009 C 0.39585 0.50716 0.24865 0.0
C1010 C 0.39882 0.50013 0.30776 0.0
N1011 N 0.4026 0.50051 0.27338 0.0
C1012 C 0.36755 0.54347 0.24312 0.0
C1013 C 0.34875 0.53684 0.21289 0.0
C1014 C 0.37106 0.55133 0.21503 0.0
N1015 N 0.35664 0.53638 0.24145 0.0
C1016 C 0.35185 0.54469 0.18414 0.0
C1017 C 0.3632 0.55202 0.18493 0.0
H1018 H 0.37362 0.54289 0.26625 0.0
H1019 H 0.3401 0.53111 0.21239 0.0
C1020 C 0.36276 0.47948 0.32792 0.0
N1021 N 0.36361 0.48823 0.30142 0.0
C1022 C 0.36765 0.46711 0.32332 0.0
C1023 C 0.37403 0.47299 0.26409 0.0
C1024 C 0.36877 0.48513 0.26961 0.0
C1025 C 0.3736 0.46376 0.29124 0.0
H1026 H 0.35829 0.4821 0.35265 0.0
H1027 H 0.36898 0.49219 0.24866 0.0
O1028 O 0.34511 0.53479 0.32285 0.0
O1029 O 0.34951 0.50805 0.35497 0.0
O1030 O 0.34361 0.51015 0.27458 0.0
O1031 O 0.36968 0.5198 0.30328 0.0
H1032 H 0.36226 0.55316 0.33386 0.0
H1033 H 0.32682 0.54384 0.28117 0.0
H1034 H 0.36118 0.57501 0.30797 0.0
H1035 H 0.3264 0.56586 0.25607 0.0
H1036 H 0.37202 0.49973 0.45524 0.0
H1037 H 0.33226 0.51639 0.40114 0.0
H1038 H 0.36975 0.49945 0.39001 0.0
H1039 H 0.33514 0.51627 0.46612 0.0
H1040 H 0.2972 0.53381 0.37037 0.0
H1041 H 0.30156 0.49249 0.36664 0.0
H1042 H 0.39671 0.54279 0.40695 0.0
H1043 H 0.35921 0.55286 0.44757 0.0
H1044 H 0.33857 0.48522 0.27446 0.0
H1045 H 0.32309 0.52268 0.25191 0.0
H1046 H 0.31779 0.4756 0.25637 0.0
H1047 H 0.30258 0.5124 0.23421 0.0
H1048 H 0.37927 0.51891 0.23844 0.0
H1049 H 0.38472 0.50628 0.3457 0.0
H1050 H 0.39909 0.50724 0.22149 0.0
H1051 H 0.40438 0.49473 0.3268 0.0
H1052 H 0.38003 0.55655 0.21665 0.0
H1053 H 0.34543 0.54502 0.16165 0.0
H1054 H 0.36675 0.46028 0.34472 0.0
H1055 H 0.37864 0.47102 0.23905 0.0
Li1056 Li 0.97428 0.13898 0.20996 0.0
Li1057 Li 0.99551 0.13884 0.18304 0.0
Li1058 Li 0.9811 0.15697 0.17569 0.0
Li1059 Li 0.97675 0.13659 0.14624 0.0
C1060 C 0.99307 0.16164 0.23481 0.0
N1061 N 0.00158 0.18475 0.26195 0.0
C1062 C 0.00617 0.16456 0.23475 0.0
C1063 C 0.98431 0.17043 0.24887 0.0
C1064 C 0.01028 0.1763 0.24857 0.0
C1065 C 0.9888 0.18208 0.26238 0.0
C1066 C 0.98978 0.11416 0.18902 0.0
C1067 C 0.00489 0.09829 0.16833 0.0
N1068 N 0.00539 0.09317 0.20135 0.0
C1069 C 0.99042 0.10872 0.22273 0.0
C1070 C 0.99703 0.10888 0.16154 0.0
C1071 C -0.00163 0.09811 0.22843 0.0
C1072 C 0.95899 0.12111 0.24399 0.0
N1073 N 0.96425 0.13295 0.24819 0.0
C1074 C 0.95487 0.13496 0.30548 0.0
C1075 C 0.96233 0.13995 0.27803 0.0
C1076 C 0.9496 0.12261 0.30212 0.0
C1077 C 0.95166 0.11569 0.27087 0.0
H1078 H 0.96058 0.11585 0.21975 0.0
H1079 H 0.9666 0.14936 0.28054 0.0
C1080 C 0.0217 0.1354 0.1641 0.0
N1081 N 0.0128 0.1338 0.18995 0.0
C1082 C 0.03425 0.13103 0.16904 0.0
C1083 C 0.02821 0.12369 0.22732 0.0
C1084 C 0.01589 0.12843 0.22149 0.0
C1085 C 0.03761 0.12483 0.20078 0.0
H1086 H 0.01903 0.13999 0.13957 0.0
H1087 H 0.00866 0.12757 0.24185 0.0
C1088 C 0.9525 0.14655 0.18405 0.0
N1089 N 0.92814 0.14298 0.21116 0.0
C1090 C 0.94509 0.13608 0.17315 0.0
C1091 C 0.94751 0.15523 0.20865 0.0
C1092 C 0.93279 0.13445 0.18717 0.0
C1093 C 0.93517 0.15325 0.22207 0.0
C1094 C 0.99245 0.14863 0.10341 0.0
C1095 C 0.9871 0.15894 0.08488 0.0
C1096 C -0.00174 0.1386 0.08482 0.0
C1097 C 0.98758 0.15898 0.048 0.0
C1098 C -0.00146 0.13899 0.04794 0.0
N1099 N 0.99323 0.14909 0.03044 0.0
C1100 C 0.99174 0.18103 0.16142 0.0
C1101 C 0.969 0.18028 0.1591 0.0
C1102 C 0.99179 0.1931 0.14551 0.0
N1103 N 0.98047 0.17479 0.16698 0.0
C1104 C 0.96859 0.19231 0.14293 0.0
C1105 C 0.98013 0.19862 0.13462 0.0
H1106 H 0.00073 0.17624 0.16692 0.0
H1107 H 0.96022 0.1749 0.16271 0.0
C1108 C 0.96853 0.11651 0.10041 0.0
N1109 N 0.96878 0.1294 0.10594 0.0
C1110 C 0.96075 0.11135 0.07391 0.0
C1111 C 0.95394 0.13287 0.05888 0.0
C1112 C 0.9618 0.13759 0.08566 0.0
C1113 C 0.95309 0.11957 0.05329 0.0
H1114 H 0.97386 0.11019 0.11765 0.0
H1115 H 0.96193 0.14777 0.09135 0.0
O1116 O 0.98884 0.15025 0.22114 0.0
O1117 O 0.98223 0.12469 0.18303 0.0
O1118 O 0.96471 0.14811 0.17143 0.0
O1119 O 0.99192 0.1483 0.13953 0.0
H1120 H 0.01308 0.15787 0.22395 0.0
H1121 H 0.97413 0.16836 0.24888 0.0
H1122 H 0.02038 0.17871 0.24859 0.0
H1123 H 0.98212 0.18901 0.27312 0.0
H1124 H 0.0106 0.09416 0.14735 0.0
H1125 H 0.985 0.11275 0.24442 0.0
H1126 H 0.99667 0.11297 0.13533 0.0
H1127 H -0.00099 0.09385 0.25443 0.0
H1128 H 0.95348 0.14054 0.32933 0.0
H1129 H 0.94761 0.1062 0.26725 0.0
H1130 H 0.04119 0.13242 0.14811 0.0
H1131 H 0.03018 0.11884 0.25202 0.0
H1132 H 0.94885 0.12919 0.15444 0.0
H1133 H 0.95316 0.16331 0.21761 0.0
H1134 H 0.92698 0.12636 0.1791 0.0
H1135 H 0.93121 0.15984 0.24128 0.0
H1136 H 0.98248 0.16675 0.09869 0.0
H1137 H 0.00248 0.13056 0.09869 0.0
H1138 H 0.98343 0.16687 0.03333 0.0
H1139 H 0.00297 0.13127 0.03323 0.0
H1140 H 0.00089 0.1977 0.13987 0.0
H1141 H 0.95941 0.1961 0.13451 0.0
H1142 H 0.96024 0.10103 0.07086 0.0
H1143 H 0.94829 0.13955 0.04338 0.0
Li1144 Li 0.35688 0.99626 0.68581 0.0
Li1145 Li 0.35584 0.97488 0.71201 0.0
Li1146 Li 0.36079 0.97761 0.64943 0.0
Li1147 Li 0.33932 0.9817 0.67261 0.0
C1148 C 0.38134 0.99045 0.69921 0.0
N1149 N 0.40194 0.00565 0.71845 0.0
C1150 C 0.38576 0.9904 0.73408 0.0
C1151 C 0.38744 -0.00184 0.6741 0.0
C1152 C 0.39619 -0.00184 0.74328 0.0
C1153 C 0.39782 0.00581 0.68436 0.0
C1154 C 0.33213 0.99346 0.72984 0.0
C1155 C 0.31076 0.989 0.75107 0.0
N1156 N 0.30788 0.00172 0.74876 0.0
C1157 C 0.32899 0.00649 0.72781 0.0
C1158 C 0.32298 0.98464 0.74173 0.0
C1159 C 0.31666 0.01047 0.73746 0.0
C1160 C 0.35978 0.02254 0.66828 0.0
N1161 N 0.36143 0.01362 0.69406 0.0
C1162 C 0.37087 0.02923 0.73219 0.0
C1163 C 0.36645 0.0168 0.72597 0.0
C1164 C 0.36972 0.03864 0.70568 0.0
C1165 C 0.36378 0.03519 0.67363 0.0
H1166 H 0.35543 0.01981 0.64347 0.0
H1167 H 0.36733 0.00957 0.74632 0.0
C1168 C 0.37198 0.95868 0.74865 0.0
N1169 N 0.36043 0.96464 0.75131 0.0
C1170 C 0.37629 0.95069 0.7756 0.0
C1171 C 0.35667 0.95503 0.80764 0.0
C1172 C 0.35275 0.96302 0.77999 0.0
C1173 C 0.36859 0.94873 0.80561 0.0
H1174 H 0.37785 0.96016 0.72545 0.0
H1175 H 0.34358 0.96786 0.78126 0.0
C1176 C 0.35043 0.99336 0.60366 0.0
N1177 N 0.35299 0.99437 0.53105 0.0
C1178 C 0.34122 0.98761 0.58192 0.0
C1179 C 0.3609 -0.00032 0.58845 0.0
C1180 C 0.34269 0.98822 0.54528 0.0
C1181 C 0.36204 6e-05 0.55169 0.0
C1182 C 0.34945 0.95311 0.68317 0.0
C1183 C 0.36002 0.94554 0.67408 0.0
C1184 C 0.34008 0.9482 0.70591 0.0
C1185 C 0.36108 0.93316 0.68804 0.0
C1186 C 0.3415 0.93578 0.71935 0.0
N1187 N 0.35188 0.92859 0.71023 0.0
C1188 C 0.3827 0.97036 0.60891 0.0
C1189 C 0.36253 0.96273 0.58884 0.0
C1190 C 0.38906 0.963 0.58346 0.0
N1191 N 0.36969 0.96997 0.61126 0.0
C1192 C 0.36846 0.95526 0.56307 0.0
C1193 C 0.38191 0.95511 0.56064 0.0
H1194 H 0.38818 0.97591 0.62771 0.0
H1195 H 0.35221 0.96238 0.59195 0.0
C1196 C 0.31607 0.9922 0.64994 0.0
N1197 N 0.32195 0.98099 0.65855 0.0
C1198 C 0.30454 0.99207 0.63125 0.0
C1199 C 0.30508 0.96884 0.63208 0.0
C1200 C 0.3166 0.96943 0.65083 0.0
C1201 C 0.29916 0.98027 0.62094 0.0
H1202 H 0.32077 0.00124 0.6555 0.0
H1203 H 0.3217 0.96068 0.65697 0.0
O1204 O 0.37103 0.98306 0.68979 0.0
O1205 O 0.34408 0.98936 0.72009 0.0
O1206 O 0.34929 0.9927 0.63963 0.0
O1207 O 0.34841 0.96539 0.67059 0.0
H1208 H 0.3811 0.98458 0.75396 0.0
H1209 H 0.38413 -0.00166 0.64704 0.0
H1210 H 0.39967 -0.00173 0.7702 0.0
H1211 H 0.40257 0.01188 0.66523 0.0
H1212 H 0.30356 0.98228 0.7601 0.0
H1213 H 0.33595 0.01344 0.71865 0.0
H1214 H 0.32525 0.97452 0.74329 0.0
H1215 H 0.31407 0.02051 0.73588 0.0
H1216 H 0.3755 0.03126 0.75716 0.0
H1217 H 0.36233 0.04212 0.65272 0.0
H1218 H 0.38565 0.94626 0.77314 0.0
H1219 H 0.35039 0.9537 0.83014 0.0
H1220 H 0.33311 0.98259 0.59314 0.0
H1221 H 0.3681 0.0042 0.60484 0.0
H1222 H 0.33567 0.98376 0.52816 0.0
H1223 H 0.37012 0.00488 0.53958 0.0
H1224 H 0.36744 0.94922 0.65684 0.0
H1225 H 0.3319 0.95397 0.7135 0.0
H1226 H 0.36925 0.92722 0.68138 0.0
H1227 H 0.33437 0.93189 0.73716 0.0
H1228 H 0.39945 0.96303 0.58279 0.0
H1229 H 0.36258 0.94941 0.54578 0.0
H1230 H 0.30022 0.00109 0.62342 0.0
H1231 H 0.30139 0.95955 0.62422 0.0
Li1232 Li 0.50447 0.35242 0.18598 0.0
Li1233 Li 0.52646 0.35373 0.20727 0.0
Li1234 Li 0.52171 0.35524 0.14438 0.0
Li1235 Li 0.51955 0.33504 0.17628 0.0
C1236 C 0.50894 0.37725 0.19008 0.0
N1237 N 0.49255 0.3971 0.20787 0.0
C1238 C 0.50898 0.38225 0.22436 0.0
C1239 C 0.50062 0.3824 0.16481 0.0
C1240 C 0.50062 0.39228 0.23283 0.0
C1241 C 0.49238 0.3924 0.17434 0.0
C1242 C 0.50998 0.33034 0.23837 0.0
C1243 C 0.5164 0.31064 0.26682 0.0
N1244 N 0.50388 0.30701 0.26878 0.0
C1245 C 0.49717 0.32644 0.24077 0.0
C1246 C 0.51969 0.32242 0.25161 0.0
C1247 C 0.49428 0.31461 0.25622 0.0
C1248 C 0.47776 0.35631 0.17317 0.0
N1249 N 0.48734 0.35684 0.19745 0.0
C1250 C 0.47322 0.3659 0.24031 0.0
C1251 C 0.48523 0.36115 0.23079 0.0
C1252 C 0.46318 0.36597 0.21546 0.0
C1253 C 0.46551 0.36081 0.18169 0.0
H1254 H 0.47967 0.35262 0.14702 0.0
H1255 H 0.49303 0.36131 0.24962 0.0
C1256 C 0.54191 0.37282 0.23466 0.0
N1257 N 0.53722 0.36097 0.24226 0.0
C1258 C 0.54929 0.37941 0.25937 0.0
C1259 C 0.54736 0.36122 0.29881 0.0
C1260 C 0.53985 0.35502 0.27339 0.0
C1261 C 0.55196 0.37366 0.29205 0.0
H1262 H 0.53968 0.37726 0.20956 0.0
H1263 H 0.53596 0.3456 0.27868 0.0
C1264 C 0.5054 0.34207 0.10656 0.0
N1265 N 0.50237 0.34108 0.03406 0.0
C1266 C 0.5102 0.33164 0.08739 0.0
C1267 C 0.49902 0.35197 0.08883 0.0
C1268 C 0.50857 0.33132 0.05077 0.0
C1269 C 0.49761 0.3513 0.05218 0.0
C1270 C 0.54767 0.34705 0.17664 0.0
C1271 C 0.55426 0.35752 0.1623 0.0
C1272 C 0.55375 0.33917 0.2014 0.0
C1273 C 0.56685 0.35996 0.17311 0.0
C1274 C 0.56635 0.34194 0.21156 0.0
N1275 N 0.57258 0.35219 0.19734 0.0
C1276 C 0.52749 0.37536 0.09627 0.0
C1277 C 0.5343 0.35449 0.07967 0.0
C1278 C 0.53412 0.38074 0.06782 0.0
N1279 N 0.52787 0.36248 0.10182 0.0
C1280 C 0.541 0.35943 0.05086 0.0
C1281 C 0.54126 0.37276 0.0452 0.0
H1282 H 0.52263 0.38152 0.11494 0.0
H1283 H 0.53472 0.34432 0.08536 0.0
C1284 C 0.50987 0.31039 0.16523 0.0
N1285 N 0.52093 0.3172 0.16874 0.0
C1286 C 0.51004 0.29836 0.14912 0.0
C1287 C 0.53308 0.30025 0.14273 0.0
C1288 C 0.53246 0.31225 0.15902 0.0
C1289 C 0.52168 0.29345 0.13611 0.0
H1290 H 0.5008 0.31477 0.17213 0.0
H1291 H 0.54103 0.31805 0.16109 0.0
O1292 O 0.51684 0.36723 0.18147 0.0
O1293 O 0.51302 0.34183 0.22303 0.0
O1294 O 0.50703 0.34266 0.14241 0.0
O1295 O 0.53522 0.34471 0.16713 0.0
H1296 H 0.51524 0.3783 0.2444 0.0
H1297 H 0.50043 0.37863 0.13821 0.0
H1298 H 0.5005 0.39619 0.2593 0.0
H1299 H 0.48583 0.39642 0.15511 0.0
H1300 H 0.52382 0.30438 0.27699 0.0
H1301 H 0.48954 0.33244 0.23057 0.0
H1302 H 0.52965 0.32526 0.24978 0.0
H1303 H 0.48442 0.31144 0.25814 0.0
H1304 H 0.47201 0.36993 0.26645 0.0
H1305 H 0.45802 0.36043 0.16189 0.0
H1306 H 0.55279 0.38893 0.25312 0.0
H1307 H 0.5492 0.35654 0.32386 0.0
H1308 H 0.51526 0.32394 0.10048 0.0
H1309 H 0.49529 0.36013 0.10316 0.0
H1310 H 0.51228 0.32333 0.03562 0.0
H1311 H 0.49274 0.35893 0.03812 0.0
H1312 H 0.54967 0.36379 0.14336 0.0
H1313 H 0.54875 0.3311 0.21296 0.0
H1314 H 0.57205 0.36805 0.16236 0.0
H1315 H 0.57115 0.33597 0.23085 0.0
H1316 H 0.53423 0.39108 0.06479 0.0
H1317 H 0.54627 0.35292 0.0339 0.0
H1318 H 0.50107 0.29337 0.14469 0.0
H1319 H 0.54222 0.29689 0.13267 0.0
Li1320 Li 0.14144 0.52918 0.71757 0.0
Li1321 Li 0.13598 0.50852 0.69115 0.0
Li1322 Li 0.15593 0.5194 0.67667 0.0
Li1323 Li 0.13544 0.52763 0.6554 0.0
C1324 C 0.16114 0.50643 0.73414 0.0
N1325 N 0.18335 0.49375 0.75342 0.0
C1326 C 0.16199 0.4931 0.73049 0.0
C1327 C 0.17153 0.5133 0.74787 0.0
C1328 C 0.17332 0.48687 0.74034 0.0
C1329 C 0.18269 0.50672 0.75737 0.0
C1330 C 0.1136 0.51878 0.70876 0.0
C1331 C 0.09434 0.50645 0.69878 0.0
N1332 N 0.0913 0.5076 0.73358 0.0
C1333 C 0.11026 0.5199 0.7444 0.0
C1334 C 0.10555 0.51207 0.6857 0.0
C1335 C 0.09895 0.51416 0.75643 0.0
C1336 C 0.13089 0.54946 0.75501 0.0
N1337 N 0.13921 0.53948 0.75816 0.0
C1338 C 0.1418 0.54359 0.8198 0.0
C1339 C 0.14476 0.53646 0.78958 0.0
C1340 C 0.13316 0.55391 0.81731 0.0
C1341 C 0.12783 0.55693 0.78431 0.0
H1342 H 0.12634 0.55136 0.72988 0.0
H1343 H 0.15116 0.52832 0.79135 0.0
C1344 C 0.12789 0.48315 0.67517 0.0
N1345 N 0.12856 0.4923 0.70066 0.0
C1346 C 0.1227 0.4711 0.68287 0.0
C1347 C 0.119 0.47821 0.74282 0.0
C1348 C 0.12446 0.49001 0.73411 0.0
C1349 C 0.11808 0.46851 0.71708 0.0
H1350 H 0.13152 0.48515 0.64899 0.0
H1351 H 0.12542 0.49738 0.75403 0.0
C1352 C 0.15217 0.54938 0.68804 0.0
N1353 N 0.15602 0.57386 0.71408 0.0
C1354 C 0.14423 0.55946 0.67719 0.0
C1355 C 0.16211 0.55176 0.71195 0.0
C1356 C 0.14633 0.57177 0.69069 0.0
C1357 C 0.16388 0.5642 0.72488 0.0
C1358 C 0.14197 0.51043 0.60864 0.0
C1359 C 0.15191 0.51418 0.5861 0.0
C1360 C 0.13017 0.50666 0.59444 0.0
C1361 C 0.14985 0.51417 0.54963 0.0
C1362 C 0.12848 0.5068 0.55783 0.0
N1363 N 0.13827 0.51053 0.53637 0.0
C1364 C 0.17669 0.50458 0.65363 0.0
C1365 C 0.18067 0.527 0.65532 0.0
C1366 C 0.1883 0.50245 0.63631 0.0
N1367 N 0.17305 0.51671 0.66219 0.0
C1368 C 0.19233 0.52532 0.63782 0.0
C1369 C 0.1961 0.51295 0.62717 0.0
H1370 H 0.17024 0.49664 0.65854 0.0
H1371 H 0.17735 0.53656 0.6615 0.0
C1372 C 0.11461 0.5386 0.6177 0.0
N1373 N 0.12753 0.53683 0.61816 0.0
C1374 C 0.10905 0.54672 0.59266 0.0
C1375 C 0.13019 0.55081 0.56872 0.0
C1376 C 0.13533 0.54264 0.59425 0.0
C1377 C 0.1169 0.55311 0.56807 0.0
H1378 H 0.10867 0.53404 0.63744 0.0
H1379 H 0.14561 0.5413 0.59589 0.0
O1380 O 0.15021 0.51273 0.72421 0.0
O1381 O 0.12472 0.52417 0.69655 0.0
O1382 O 0.15016 0.53721 0.67557 0.0
O1383 O 0.1437 0.51059 0.64445 0.0
H1384 H 0.15405 0.48763 0.71987 0.0
H1385 H 0.171 0.52361 0.75094 0.0
H1386 H 0.17415 0.47656 0.7375 0.0
H1387 H 0.19084 0.51192 0.76785 0.0
H1388 H 0.08806 0.50116 0.68127 0.0
H1389 H 0.11639 0.52501 0.76267 0.0
H1390 H 0.10801 0.51109 0.65807 0.0
H1391 H 0.09628 0.51489 0.78398 0.0
H1392 H 0.14606 0.54096 0.84489 0.0
H1393 H 0.12091 0.56463 0.78147 0.0
H1394 H 0.12245 0.46387 0.66232 0.0
H1395 H 0.11541 0.47682 0.76937 0.0
H1396 H 0.13644 0.55779 0.65889 0.0
H1397 H 0.16833 0.54407 0.72065 0.0
H1398 H 0.14022 0.57965 0.68267 0.0
H1399 H 0.1715 0.56617 0.74355 0.0
H1400 H 0.16108 0.5172 0.5966 0.0
H1401 H 0.12237 0.50373 0.61151 0.0
H1402 H 0.15744 0.51711 0.53188 0.0
H1403 H 0.11938 0.50397 0.54648 0.0
H1404 H 0.1909 0.49275 0.6289 0.0
H1405 H 0.19791 0.53372 0.63079 0.0
H1406 H 0.09875 0.54815 0.59287 0.0
H1407 H 0.13662 0.55569 0.55067 0.0
C1408 C 0.00386 0.70917 0.07454 0.0
C1409 C 0.01558 0.70498 0.08888 0.0
C1410 C 0.00367 0.71846 0.04791 0.0
C1411 C 0.00672 0.73148 0.97668 0.0
H1412 H 0.0298 0.76067 0.97943 0.0
C1413 C 0.0027 0.77564 0.8845 0.0
C1414 C 0.01418 0.78136 0.87296 0.0
C1415 C 0.00298 0.76532 0.90805 0.0
C1416 C 0.02343 0.75246 0.97802 0.0
H1417 H 0.03626 0.70728 0.08676 0.0
H1418 H 0.03593 0.72345 0.04036 0.0
H1419 H 0.02982 0.74534 0.02797 0.0
H1420 H 0.03497 0.78034 0.87566 0.0
H1421 H 0.03545 0.76218 0.91625 0.0
H1422 H 0.00021 0.73877 0.92686 0.0
C1423 C 0.02687 0.71973 0.05001 0.0
C1424 C 0.02342 0.7437 0.00588 0.0
C1425 C 0.02707 0.71048 0.07669 0.0
C1426 C 0.02595 0.77608 0.88382 0.0
C1427 C 0.02623 0.76579 0.90744 0.0
C1428 C 0.00669 0.74029 0.94883 0.0
C1429 C 0.01518 0.72371 0.03502 0.0
C1430 C 0.01506 0.73311 0.00556 0.0
C1431 C 0.01476 0.76056 0.92059 0.0
C1432 C 0.01506 0.75086 0.94923 0.0
H1433 H 0.99485 0.70518 0.08369 0.0
H1434 H 0.99449 0.7215 0.03737 0.0
H1435 H 0.00031 0.7233 0.97536 0.0
H1436 H 0.99349 0.77945 0.8763 0.0
H1437 H 0.99398 0.7615 0.91779 0.0
C1438 C 0.7152 0.03247 0.39747 0.0
C1439 C 0.71175 0.02048 0.38334 0.0
C1440 C 0.72508 0.03339 0.4223 0.0
C1441 C 0.75203 0.0153 0.46325 0.0
H1442 H 0.7439 0.036 0.54552 0.0
C1443 C 0.77966 0.00958 0.59289 0.0
C1444 C 0.78452 0.02099 0.60758 0.0
C1445 C 0.77043 0.01003 0.56621 0.0
C1446 C 0.74632 0.03026 0.52261 0.0
H1447 H 0.71657 0.00023 0.38197 0.0
H1448 H 0.73359 0.00176 0.42571 0.0
H1449 H 0.72958 0.0363 0.49448 0.0
H1450 H 0.78295 0.04177 0.60723 0.0
H1451 H 0.76661 0.0425 0.56108 0.0
H1452 H 0.76861 0.00903 0.49179 0.0
C1453 C 0.72876 0.01049 0.41761 0.0
C1454 C 0.73819 0.03049 0.49326 0.0
C1455 C 0.71893 0.00958 0.39274 0.0
C1456 C 0.77931 0.03281 0.59674 0.0
C1457 C 0.77001 0.03324 0.57017 0.0
C1458 C 0.76009 0.01499 0.49267 0.0
C1459 C 0.73169 0.02234 0.43348 0.0
C1460 C 0.7409 0.02292 0.46337 0.0
C1461 C 0.76581 0.02187 0.55388 0.0
C1462 C 0.75724 0.02237 0.52274 0.0
H1463 H 0.7098 0.04103 0.39092 0.0
H1464 H 0.72728 0.0427 0.43355 0.0
H1465 H 0.7545 0.00952 0.44045 0.0
H1466 H 0.78333 0.00032 0.60114 0.0
H1467 H 0.76714 0.00111 0.5546 0.0
C1468 C 0.48615 0.77868 0.10483 0.0
C1469 C 0.47472 0.78477 0.11517 0.0
C1470 C 0.48581 0.76807 0.08233 0.0
C1471 C 0.4657 0.7547 0.01245 0.0
H1472 H 0.489 0.72575 0.01826 0.0
C1473 C 0.46427 0.71206 0.91479 0.0
C1474 C 0.4761 0.70681 0.90429 0.0
C1475 C 0.4638 0.72152 0.94089 0.0
C1476 C 0.48253 0.73386 0.01609 0.0
H1477 H 0.45395 0.78414 0.11169 0.0
H1478 H 0.45334 0.76545 0.07276 0.0
H1479 H 0.4884 0.74142 0.06615 0.0
H1480 H 0.49672 0.70778 0.91147 0.0
H1481 H 0.49591 0.72444 0.95675 0.0
H1482 H 0.45996 0.74727 0.96219 0.0
C1483 C 0.46257 0.769 0.0817 0.0
C1484 C 0.48215 0.74278 0.04359 0.0
C1485 C 0.46291 0.77959 0.10432 0.0
C1486 C 0.48747 0.71156 0.91938 0.0
C1487 C 0.48699 0.72103 0.94541 0.0
C1488 C 0.46609 0.74579 0.98493 0.0
C1489 C 0.47403 0.76337 0.06968 0.0
C1490 C 0.47379 0.75334 0.04193 0.0
C1491 C 0.47514 0.72593 0.95695 0.0
C1492 C 0.47459 0.73533 0.98632 0.0
H1493 H 0.49538 0.78242 0.11308 0.0
H1494 H 0.4948 0.76398 0.07343 0.0
H1495 H 0.45932 0.76288 0.01012 0.0
H1496 H 0.45534 0.70845 0.90404 0.0
H1497 H 0.45451 0.72503 0.94942 0.0
C1498 C 0.71584 0.46411 0.60539 0.0
C1499 C 0.71184 0.47583 0.62016 0.0
C1500 C 0.72574 0.46383 0.58053 0.0
C1501 C 0.75184 0.48323 0.5403 0.0
H1502 H 0.74397 0.46317 0.45666 0.0
C1503 C 0.77951 0.49033 0.41089 0.0
C1504 C 0.78407 0.47908 0.39464 0.0
C1505 C 0.77042 0.48963 0.43789 0.0
C1506 C 0.74634 0.46873 0.47994 0.0
H1507 H 0.71572 0.49625 0.62273 0.0
H1508 H 0.73285 0.49582 0.57899 0.0
H1509 H 0.72983 0.46201 0.5079 0.0
H1510 H 0.78222 0.45834 0.3928 0.0
H1511 H 0.76619 0.45715 0.4396 0.0
H1512 H 0.76824 0.49011 0.51205 0.0
C1513 C 0.7284 0.48684 0.58659 0.0
C1514 C 0.7383 0.46801 0.50939 0.0
C1515 C 0.71852 0.48711 0.61147 0.0
C1516 C 0.77878 0.46719 0.40447 0.0
C1517 C 0.76964 0.4665 0.43141 0.0
C1518 C 0.75984 0.48399 0.51081 0.0
C1519 C 0.73182 0.47526 0.56997 0.0
C1520 C 0.74092 0.47532 0.53982 0.0
C1521 C 0.76567 0.47767 0.44908 0.0
C1522 C 0.75712 0.47683 0.48024 0.0
H1523 H 0.71082 0.45526 0.61137 0.0
H1524 H 0.72834 0.45473 0.56867 0.0
H1525 H 0.75421 0.48884 0.56349 0.0
H1526 H 0.78329 0.49964 0.4035 0.0
H1527 H 0.76731 0.49842 0.45054 0.0
C1528 C 0.96217 0.28397 0.91803 0.0
C1529 C 0.97122 0.28427 0.89047 0.0
C1530 C 0.96277 0.27448 0.94399 0.0
C1531 C 0.98608 0.2531 0.98634 0.0
H1532 H 0.95592 0.2369 0.02662 0.0
C1533 C 0.9889 0.2104 0.08242 0.0
C1534 C 0.98005 0.20983 0.11043 0.0
C1535 C 0.98797 0.21997 0.05682 0.0
C1536 C 0.96441 0.24149 0.01598 0.0
H1537 H 0.98755 0.27445 0.86746 0.0
H1538 H 0.98859 0.2578 0.91283 0.0
H1539 H 0.95352 0.25182 0.97734 0.0
H1540 H 0.96359 0.21917 0.13427 0.0
H1541 H 0.96199 0.236 0.08943 0.0
H1542 H 0.99698 0.24279 0.02493 0.0
C1543 C 0.98116 0.26506 0.91462 0.0
C1544 C 0.96304 0.24998 0.98767 0.0
C1545 C 0.98055 0.27455 0.88861 0.0
C1546 C 0.97048 0.2193 0.11284 0.0
C1547 C 0.96954 0.22889 0.08713 0.0
C1548 C 0.98745 0.24463 0.01465 0.0
C1549 C 0.97246 0.2651 0.943 0.0
C1550 C 0.97387 0.25584 0.97247 0.0
C1551 C 0.97816 0.2292 0.05855 0.0
C1552 C 0.97664 0.2387 0.02969 0.0
H1553 H 0.955 0.29144 0.92062 0.0
H1554 H 0.95601 0.27485 0.96571 0.0
H1555 H 0.99458 0.25767 0.97568 0.0
H1556 H 0.99621 0.20309 0.07926 0.0
H1557 H 0.99464 0.21982 0.03486 0.0
C1558 C 0.28848 0.98812 0.56587 0.0
C1559 C 0.28842 0.97985 0.59525 0.0
C1560 C 0.27916 0.98697 0.53961 0.0
C1561 C 0.25666 0.9636 0.5013 0.0
H1562 H 0.24163 0.99372 0.45746 0.0
C1563 C 0.21267 0.96168 0.40893 0.0
C1564 C 0.21226 0.97018 0.38008 0.0
C1565 C 0.2227 0.96226 0.43328 0.0
C1566 C 0.24589 0.98522 0.46906 0.0
H1567 H 0.27831 0.96417 0.62063 0.0
H1568 H 0.26193 0.96222 0.57472 0.0
H1569 H 0.25699 0.99633 0.50546 0.0
H1570 H 0.22245 0.98545 0.35307 0.0
H1571 H 0.24004 0.98645 0.3957 0.0
H1572 H 0.24545 0.95249 0.46504 0.0
C1573 C 0.26932 0.96945 0.57183 0.0
C1574 C 0.25465 0.98671 0.49665 0.0
C1575 C 0.27866 0.9706 0.59816 0.0
C1576 C 0.22242 0.97889 0.37527 0.0
C1577 C 0.23246 0.97948 0.3997 0.0
C1578 C 0.24788 0.96211 0.47372 0.0
C1579 C 0.26958 0.97753 0.54206 0.0
C1580 C 0.26011 0.97592 0.51313 0.0
C1581 C 0.23254 0.97137 0.42938 0.0
C1582 C 0.24238 0.9729 0.45737 0.0
H1583 H 0.29603 0.99516 0.56242 0.0
H1584 H 0.27974 0.99321 0.51677 0.0
H1585 H 0.26087 0.95511 0.51305 0.0
H1586 H 0.20488 0.95502 0.41383 0.0
H1587 H 0.22241 0.95598 0.45608 0.0
C1588 C 0.51986 0.22082 0.88301 0.0
C1589 C 0.52832 0.21033 0.88511 0.0
C1590 C 0.51977 0.23019 0.9094 0.0
C1591 C 0.53804 0.24366 0.98409 0.0
H1592 H 0.50429 0.25105 0.02234 0.0
C1593 C 0.53147 0.27323 0.11176 0.0
C1594 C 0.52171 0.28253 0.11101 0.0
C1595 C 0.53229 0.26397 0.08511 0.0
C1596 C 0.51378 0.2492 0.01177 0.0
H1597 H 0.54372 0.20181 0.91593 0.0
H1598 H 0.54373 0.21829 0.96138 0.0
H1599 H 0.50634 0.23687 0.9715 0.0
H1600 H 0.50514 0.2894 0.0818 0.0
H1601 H 0.50658 0.27336 0.03556 0.0
H1602 H 0.54549 0.25611 0.02412 0.0
C1603 C 0.53719 0.21926 0.93929 0.0
C1604 C 0.51494 0.24111 0.98259 0.0
C1605 C 0.53721 0.20985 0.91308 0.0
C1606 C 0.5126 0.28218 0.08364 0.0
C1607 C 0.51345 0.27299 0.05701 0.0
C1608 C 0.53688 0.25185 0.01317 0.0
C1609 C 0.52821 0.22931 0.93825 0.0
C1610 C 0.52707 0.23828 0.9684 0.0
C1611 C 0.5234 0.26389 0.05711 0.0
C1612 C 0.52472 0.25473 0.02729 0.0
H1613 H 0.51303 0.22157 0.86154 0.0
H1614 H 0.5129 0.23797 0.90767 0.0
H1615 H 0.54751 0.24168 0.97357 0.0
H1616 H 0.53859 0.27326 0.13263 0.0
H1617 H 0.53996 0.25695 0.08624 0.0
C1618 C 0.28674 0.50243 0.42257 0.0
C1619 C 0.28644 0.51148 0.395 0.0
C1620 C 0.27676 0.50176 0.44704 0.0
C1621 C 0.25176 0.52164 0.48686 0.0
H1622 H 0.23827 0.48918 0.52078 0.0
C1623 C 0.21848 0.51868 0.60796 0.0
C1624 C 0.20734 0.51123 0.60354 0.0
C1625 C 0.22844 0.51803 0.58331 0.0
C1626 C 0.24193 0.49831 0.51149 0.0
H1627 H 0.27516 0.52663 0.37086 0.0
H1628 H 0.25772 0.52553 0.41395 0.0
H1629 H 0.25439 0.48933 0.47388 0.0
H1630 H 0.19805 0.4971 0.56996 0.0
H1631 H 0.21549 0.49584 0.52741 0.0
H1632 H 0.23925 0.53064 0.52422 0.0
C1633 C 0.26579 0.51904 0.41668 0.0
C1634 C 0.2512 0.4984 0.48482 0.0
C1635 C 0.27576 0.51966 0.39203 0.0
C1636 C 0.20659 0.50279 0.57459 0.0
C1637 C 0.21656 0.5021 0.55008 0.0
C1638 C 0.24257 0.52156 0.51366 0.0
C1639 C 0.26628 0.51019 0.44467 0.0
C1640 C 0.25619 0.51007 0.47222 0.0
C1641 C 0.22748 0.50988 0.55384 0.0
C1642 C 0.23755 0.5099 0.52622 0.0
H1643 H 0.29494 0.49616 0.42614 0.0
H1644 H 0.27748 0.49496 0.46861 0.0
H1645 H 0.25555 0.53077 0.47796 0.0
H1646 H 0.21943 0.52514 0.63023 0.0
H1647 H 0.23685 0.524 0.58713 0.0
C1648 C 0.07452 0.61684 0.03664 0.0
C1649 C 0.06789 0.60906 0.06094 0.0
C1650 C 0.08296 0.61139 0.01225 0.0
C1651 C 0.1025 0.58266 0.99471 0.0
H1652 H 0.09957 0.59325 0.89685 0.0
C1653 C 0.12462 0.55411 0.87902 0.0
C1654 C 0.12882 0.56091 0.84915 0.0
C1655 C 0.11875 0.56056 0.90705 0.0
C1656 C 0.10072 0.59035 0.92414 0.0
H1657 H 0.06496 0.58945 0.0786 0.0
H1658 H 0.07983 0.57997 0.03614 0.0
H1659 H 0.08614 0.60338 0.94138 0.0
H1660 H 0.13099 0.57981 0.82606 0.0
H1661 H 0.12103 0.59116 0.87536 0.0
H1662 H 0.11706 0.56958 0.97743 0.0
C1663 C 0.07854 0.5903 0.03626 0.0
C1664 C 0.09297 0.59613 0.94963 0.0
C1665 C 0.07003 0.59573 0.06054 0.0
C1666 C 0.12768 0.57434 0.84863 0.0
C1667 C 0.12192 0.58081 0.87677 0.0
C1668 C 0.11033 0.57692 0.96921 0.0
C1669 C 0.08504 0.59807 0.01176 0.0
C1670 C 0.09369 0.59227 0.98511 0.0
C1671 C 0.11705 0.57396 0.90586 0.0
C1672 C 0.10944 0.58062 0.93355 0.0
H1673 H 0.0733 0.62717 0.03673 0.0
H1674 H 0.08797 0.61763 0.99396 0.0
H1675 H 0.10336 0.57961 0.02197 0.0
H1676 H 0.12525 0.54373 0.87991 0.0
H1677 H 0.11499 0.55496 0.92883 0.0
C1678 C 0.93202 0.12335 0.34724 0.0
C1679 C 0.94225 0.11674 0.33131 0.0
C1680 C 0.92486 0.11752 0.37406 0.0
C1681 C 0.92673 0.09295 0.44246 0.0
H1682 H 0.88968 0.09085 0.43427 0.0
C1683 C 0.89729 0.05999 0.533 0.0
C1684 C 0.88521 0.06425 0.54441 0.0
C1685 C 0.90402 0.06679 0.50719 0.0
C1686 C 0.89999 0.09153 0.43732 0.0
H1687 H 0.95324 0.09908 0.3312 0.0
H1688 H 0.94088 0.08897 0.37848 0.0
H1689 H 0.90199 0.10252 0.38972 0.0
H1690 H 0.87065 0.07891 0.53807 0.0
H1691 H 0.88254 0.09105 0.49364 0.0
H1692 H 0.92485 0.08221 0.49022 0.0
C1693 C 0.93834 0.09859 0.3701 0.0
C1694 C 0.90702 0.09818 0.41174 0.0
C1695 C 0.94535 0.10433 0.34297 0.0
C1696 C 0.87991 0.07538 0.52943 0.0
C1697 C 0.88672 0.0823 0.50392 0.0
C1698 C 0.91971 0.08645 0.46827 0.0
C1699 C 0.92799 0.1051 0.38573 0.0
C1700 C 0.92046 0.0988 0.41389 0.0
C1701 C 0.89889 0.07811 0.49258 0.0
C1702 C 0.90627 0.0855 0.46579 0.0
H1703 H 0.92943 0.13291 0.33851 0.0
H1704 H 0.91695 0.12273 0.38586 0.0
H1705 H 0.93709 0.09343 0.44489 0.0
H1706 H 0.90149 0.05133 0.54384 0.0
H1707 H 0.91321 0.06309 0.49853 0.0
C1708 C 0.42157 0.89584 0.05579 0.0
C1709 C 0.43117 0.88731 0.04419 0.0
C1710 C 0.41344 0.90185 0.03158 0.0
C1711 C 0.40035 0.8991 0.94207 0.0
H1712 H 0.39625 0.93605 0.94798 0.0
C1713 C 0.38028 0.9292 0.82726 0.0
C1714 C 0.37327 0.94041 0.83477 0.0
C1715 C 0.38583 0.92205 0.85442 0.0
C1716 C 0.39705 0.9257 0.94631 0.0
H1717 H 0.43972 0.87847 0.99786 0.0
H1718 H 0.42532 0.8888 0.95572 0.0
H1719 H 0.40892 0.92486 0.99243 0.0
H1720 H 0.36613 0.95257 0.87695 0.0
H1721 H 0.37541 0.93981 0.92448 0.0
H1722 H 0.38845 0.89988 0.89608 0.0
C1723 C 0.4241 0.89074 0.98363 0.0
C1724 C 0.40437 0.91931 0.97171 0.0
C1725 C 0.43232 0.88483 0.0078 0.0
C1726 C 0.37142 0.94396 0.87023 0.0
C1727 C 0.3769 0.93673 0.89747 0.0
C1728 C 0.3929 0.90547 0.91686 0.0
C1729 C 0.41463 0.89936 0.99529 0.0
C1730 C 0.40624 0.90598 0.96953 0.0
C1731 C 0.3844 0.92584 0.88984 0.0
C1732 C 0.39133 0.91888 0.91835 0.0
H1733 H 0.42022 0.89777 0.08365 0.0
H1734 H 0.40613 0.90836 0.04127 0.0
H1735 H 0.4015 0.88879 0.9401 0.0
H1736 H 0.38168 0.92605 0.80027 0.0
H1737 H 0.39162 0.91379 0.84745 0.0
C1738 C 0.55527 0.39354 0.32759 0.0
C1739 C 0.55901 0.38093 0.31939 0.0
C1740 C 0.56183 0.40053 0.3533 0.0
C1741 C 0.59269 0.40369 0.39717 0.0
H1742 H 0.57322 0.42107 0.47024 0.0
C1743 C 0.6171 0.42939 0.51468 0.0
C1744 C 0.61127 0.44057 0.52778 0.0
C1745 C 0.61101 0.42205 0.48876 0.0
C1746 C 0.57881 0.41646 0.44972 0.0
H1747 H 0.57254 0.36573 0.33126 0.0
H1748 H 0.58421 0.3781 0.37617 0.0
H1749 H 0.56203 0.40824 0.42615 0.0
H1750 H 0.59481 0.45315 0.52334 0.0
H1751 H 0.58432 0.44061 0.47722 0.0
H1752 H 0.60945 0.41217 0.42 0.0
C1753 C 0.57616 0.38251 0.3627 0.0
C1754 C 0.57239 0.40905 0.42463 0.0
C1755 C 0.56946 0.37543 0.33728 0.0
C1756 C 0.59941 0.44448 0.5139 0.0
C1757 C 0.5934 0.43724 0.48766 0.0
C1758 C 0.59912 0.41125 0.42202 0.0
C1759 C 0.57235 0.3951 0.371 0.0
C1760 C 0.57926 0.40262 0.39811 0.0
C1761 C 0.59902 0.42582 0.47513 0.0
C1762 C 0.59225 0.41776 0.44857 0.0
H1763 H 0.54718 0.39795 0.31434 0.0
H1764 H 0.55877 0.41025 0.35907 0.0
H1765 H 0.59818 0.39892 0.37671 0.0
H1766 H 0.62619 0.42611 0.52529 0.0
H1767 H 0.61554 0.41323 0.48015 0.0
C1768 C 0.12157 0.9244 0.15258 0.0
C1769 C 0.11531 0.93458 0.16968 0.0
C1770 C 0.11509 0.91704 0.12733 0.0
C1771 C 0.08215 0.90926 0.09626 0.0
H1772 H 0.09986 0.89749 0.01224 0.0
C1773 C 0.05689 0.8774 0.99297 0.0
C1774 C 0.05939 0.88011 0.95723 0.0
C1775 C 0.06421 0.88311 0.01962 0.0
C1776 C 0.09474 0.90078 0.03543 0.0
H1777 H 0.09757 0.94538 0.17307 0.0
H1778 H 0.08637 0.93283 0.12848 0.0
H1779 H 0.11157 0.90966 0.05669 0.0
H1780 H 0.07184 0.89068 0.92159 0.0
H1781 H 0.08418 0.90104 0.96795 0.0
H1782 H 0.06519 0.90094 0.07431 0.0
C1783 C 0.09613 0.9302 0.13523 0.0
C1784 C 0.10151 0.90761 0.06118 0.0
C1785 C 0.10255 0.93744 0.16066 0.0
C1786 C 0.06949 0.88854 0.94883 0.0
C1787 C 0.07672 0.89433 0.97546 0.0
C1788 C 0.07537 0.90254 0.07039 0.0
C1789 C 0.10226 0.91983 0.11846 0.0
C1790 C 0.09526 0.91205 0.09176 0.0
C1791 C 0.07415 0.89173 0.0112 0.0
C1792 C 0.08155 0.89831 0.03951 0.0
H1793 H 0.13138 0.92194 0.15931 0.0
H1794 H 0.12006 0.90903 0.11524 0.0
H1795 H 0.07708 0.91232 0.11976 0.0
H1796 H 0.04913 0.87105 0.00046 0.0
H1797 H 0.06207 0.88075 0.04685 0.0
C1798 C 0.56666 0.11707 0.65162 0.0
C1799 C 0.55589 0.11182 0.66865 0.0
C1800 C 0.57322 0.10998 0.62595 0.0
C1801 C 0.56925 0.08372 0.56275 0.0
H1802 H 0.60613 0.0796 0.57075 0.0
C1803 C 0.59661 0.04731 0.47688 0.0
C1804 C 0.60877 0.05088 0.46426 0.0
C1805 C 0.59035 0.05484 0.50207 0.0
C1806 C 0.59586 0.0808 0.56778 0.0
H1807 H 0.5433 0.09528 0.67171 0.0
H1808 H 0.55466 0.08297 0.62656 0.0
H1809 H 0.59473 0.09314 0.613 0.0
H1810 H 0.62389 0.06511 0.46771 0.0
H1811 H 0.61285 0.07845 0.51105 0.0
H1812 H 0.57031 0.07162 0.51728 0.0
C1813 C 0.55807 0.09251 0.63316 0.0
C1814 C 0.58935 0.08853 0.59203 0.0
C1815 C 0.55164 0.0995 0.65911 0.0
C1816 C 0.61459 0.06206 0.47742 0.0
C1817 C 0.60827 0.06968 0.50229 0.0
C1818 C 0.57576 0.07611 0.53826 0.0
C1819 C 0.56898 0.09763 0.61655 0.0
C1820 C 0.57597 0.08997 0.58988 0.0
C1821 C 0.59603 0.0662 0.51481 0.0
C1822 C 0.58914 0.07446 0.54063 0.0
H1823 H 0.57014 0.12653 0.65869 0.0
H1824 H 0.58157 0.11416 0.61334 0.0
H1825 H 0.55894 0.08479 0.56032 0.0
H1826 H 0.59199 0.03866 0.46736 0.0
H1827 H 0.58106 0.05171 0.51164 0.0
C1828 C 0.37372 0.57162 0.15952 0.0
C1829 C 0.36723 0.55994 0.15421 0.0
C1830 C 0.37903 0.57827 0.13109 0.0
C1831 C 0.39049 0.5725 0.03998 0.0
H1832 H 0.39572 0.60937 0.04178 0.0
C1833 C 0.41652 0.60118 0.92953 0.0
C1834 C 0.42683 0.6087 0.94185 0.0
C1835 C 0.40791 0.59557 0.95325 0.0
C1836 C 0.39428 0.59907 0.04098 0.0
H1837 H 0.36059 0.54652 0.11436 0.0
H1838 H 0.36929 0.55846 0.06455 0.0
H1839 H 0.382 0.59935 0.08615 0.0
H1840 H 0.43619 0.61599 0.98911 0.0
H1841 H 0.42084 0.60659 0.0302 0.0
H1842 H 0.4027 0.57236 0.99438 0.0
C1843 C 0.37066 0.56225 0.09091 0.0
C1844 C 0.38649 0.5933 0.06645 0.0
C1845 C 0.36549 0.55549 0.11947 0.0
C1846 C 0.42824 0.61051 0.9785 0.0
C1847 C 0.41949 0.60509 0.00211 0.0
C1848 C 0.39809 0.57832 0.01414 0.0
C1849 C 0.37781 0.57354 0.09645 0.0
C1850 C 0.38474 0.5799 0.06682 0.0
C1851 C 0.40928 0.59756 0.98968 0.0
C1852 C 0.40027 0.5916 0.01493 0.0
H1853 H 0.375 0.5755 0.18584 0.0
H1854 H 0.38455 0.58685 0.13661 0.0
H1855 H 0.38957 0.56215 0.03965 0.0
H1856 H 0.41495 0.59977 0.90153 0.0
H1857 H 0.40005 0.58983 0.94311 0.0
C1858 C 0.94084 0.38637 0.64278 0.0
C1859 C 0.93712 0.37429 0.65563 0.0
C1860 C 0.93428 0.39198 0.61463 0.0
C1861 C 0.90313 0.3934 0.573 0.0
H1862 H 0.92159 0.40847 0.49429 0.0
C1863 C 0.87692 0.41894 0.45808 0.0
C1864 C 0.88282 0.42995 0.44412 0.0
C1865 C 0.88345 0.41119 0.48226 0.0
C1866 C 0.91629 0.40446 0.51627 0.0
H1867 H 0.92377 0.35852 0.64931 0.0
H1868 H 0.91204 0.36852 0.60016 0.0
H1869 H 0.93332 0.39651 0.53926 0.0
H1870 H 0.89997 0.44171 0.44503 0.0
H1871 H 0.91123 0.42846 0.48801 0.0
H1872 H 0.88617 0.40178 0.55105 0.0
C1873 C 0.92009 0.37355 0.61181 0.0
C1874 C 0.92301 0.39754 0.54184 0.0
C1875 C 0.92681 0.36783 0.63966 0.0
C1876 C 0.89528 0.43317 0.45507 0.0
C1877 C 0.90174 0.42552 0.47954 0.0
C1878 C 0.89641 0.40048 0.54766 0.0
C1879 C 0.92378 0.38569 0.59914 0.0
C1880 C 0.91651 0.39207 0.5706 0.0
C1881 C 0.89596 0.41437 0.49327 0.0
C1882 C 0.90294 0.40624 0.51921 0.0
H1883 H 0.94881 0.3915 0.65461 0.0
H1884 H 0.93723 0.4014 0.60552 0.0
H1885 H 0.89793 0.38938 0.59518 0.0
H1886 H 0.86735 0.41621 0.44975 0.0
H1887 H 0.87876 0.40259 0.49189 0.0
C1888 C 0.93961 0.39374 0.98193 0.0
C1889 C 0.93584 0.38334 0.96067 0.0
C1890 C 0.93078 0.39969 0.00441 0.0
C1891 C 0.89602 0.40432 0.01786 0.0
H1892 H 0.90612 0.41356 0.1131 0.0
C1893 C 0.86505 0.4361 0.11042 0.0
C1894 C 0.86461 0.43256 0.14623 0.0
C1895 C 0.87322 0.42969 0.08699 0.0
C1896 C 0.90313 0.41095 0.08666 0.0
H1897 H 0.91981 0.37114 0.94597 0.0
H1898 H 0.90449 0.38137 0.98562 0.0
H1899 H 0.92159 0.40317 0.07412 0.0
H1900 H 0.87233 0.41944 0.18542 0.0
H1901 H 0.88631 0.40813 0.14449 0.0
H1902 H 0.8775 0.41196 0.03062 0.0
C1903 C 0.91424 0.38498 0.98475 0.0
C1904 C 0.91203 0.40514 0.06421 0.0
C1905 C 0.92307 0.37902 0.96238 0.0
C1906 C 0.87226 0.42228 0.15789 0.0
C1907 C 0.88043 0.41591 0.13455 0.0
C1908 C 0.88712 0.41017 0.04029 0.0
C1909 C 0.91799 0.3954 0.00594 0.0
C1910 C 0.90857 0.40173 0.02961 0.0
C1911 C 0.88117 0.41969 0.099 0.0
C1912 C 0.89057 0.4135 0.07498 0.0
H1913 H 0.9494 0.39724 0.9813 0.0
H1914 H 0.93393 0.40776 0.02024 0.0
H1915 H 0.89311 0.40192 0.99119 0.0
H1916 H 0.85924 0.44396 0.10065 0.0
H1917 H 0.87363 0.43286 0.05976 0.0
C1918 C 0.07262 0.87871 0.66647 0.0
C1919 C 0.06301 0.87047 0.65357 0.0
C1920 C 0.07905 0.88707 0.64376 0.0
C1921 C 0.08644 0.89315 0.54996 0.0
H1922 H 0.09191 0.92809 0.58232 0.0
C1923 C 0.11763 0.92904 0.47254 0.0
C1924 C 0.11301 0.94168 0.4692 0.0
C1925 C 0.11168 0.92037 0.49537 0.0
C1926 C 0.09038 0.9184 0.57282 0.0
H1927 H 0.05285 0.8643 0.60655 0.0
H1928 H 0.06403 0.87902 0.56681 0.0
H1929 H 0.08125 0.91267 0.62092 0.0
H1930 H 0.09863 0.95515 0.48761 0.0
H1931 H 0.08811 0.93992 0.52728 0.0
H1932 H 0.09536 0.89895 0.50161 0.0
C1933 C 0.06664 0.87893 0.5945 0.0
C1934 C 0.08441 0.90952 0.59507 0.0
C1935 C 0.06018 0.87057 0.61727 0.0
C1936 C 0.10237 0.94547 0.48948 0.0
C1937 C 0.09642 0.93678 0.5124 0.0
C1938 C 0.09243 0.90202 0.52773 0.0
C1939 C 0.07602 0.8874 0.60761 0.0
C1940 C 0.0824 0.89679 0.58391 0.0
C1941 C 0.10096 0.92411 0.51537 0.0
C1942 C 0.09449 0.91474 0.53894 0.0
H1943 H 0.07488 0.87903 0.69438 0.0
H1944 H 0.08634 0.89336 0.65459 0.0
H1945 H 0.08511 0.8834 0.5407 0.0
H1946 H 0.12569 0.92574 0.45691 0.0
H1947 H 0.11551 0.91073 0.49738 0.0
C1948 C 0.61964 0.05702 0.12569 0.0
C1949 C 0.61911 0.05963 0.16208 0.0
C1950 C 0.61149 0.06342 0.10221 0.0
C1951 C 0.59786 0.08322 0.05664 0.0
H1952 H 0.56252 0.0889 0.085 0.0
C1953 C 0.56368 0.11511 0.97582 0.0
C1954 C 0.55096 0.11088 0.97137 0.0
C1955 C 0.57191 0.10891 -0.00064 0.0
C1956 C 0.57232 0.08729 0.07657 0.0
H1957 H 0.60959 0.07103 0.20233 0.0
H1958 H 0.5957 0.08244 0.16134 0.0
H1959 H 0.57718 0.07787 0.12496 0.0
H1960 H 0.53688 0.09687 0.98855 0.0
H1961 H 0.55135 0.08584 0.02925 0.0
H1962 H 0.59293 0.09237 0.00794 0.0
C1963 C 0.60228 0.07533 0.15096 0.0
C1964 C 0.58077 0.08112 0.09964 0.0
C1965 C 0.6104 0.06893 0.1744 0.0
C1966 C 0.54664 0.10032 0.99121 0.0
C1967 C 0.55489 0.09408 0.01476 0.0
C1968 C 0.5894 0.08938 0.03356 0.0
C1969 C 0.60263 0.07256 0.11465 0.0
C1970 C 0.59365 0.07905 0.08999 0.0
C1971 C 0.56765 0.09827 0.01892 0.0
C1972 C 0.57655 0.09153 0.04331 0.0
H1973 H 0.62629 0.04996 0.11536 0.0
H1974 H 0.61193 0.06099 0.07442 0.0
H1975 H 0.60773 0.08187 0.04852 0.0
H1976 H 0.56741 0.12308 0.96056 0.0
H1977 H 0.58161 0.11248 0.00227 0.0
C1978 C 0.39469 0.56635 0.4446 0.0
C1979 C 0.38478 0.55815 0.45596 0.0
C1980 C 0.39997 0.5754 0.4676 0.0
C1981 C 0.40381 0.58279 0.56208 0.0
H1982 H 0.41084 0.61731 0.52874 0.0
C1983 C 0.41986 0.62233 0.65756 0.0
C1984 C 0.43025 0.63002 0.6468 0.0
C1985 C 0.4136 0.61436 0.6335 0.0
C1986 C 0.40903 0.60768 0.53834 0.0
H1987 H 0.3728 0.5529 0.50051 0.0
H1988 H 0.38194 0.56881 0.54061 0.0
H1989 H 0.40157 0.60151 0.48843 0.0
H1990 H 0.44182 0.63578 0.60189 0.0
H1991 H 0.431 0.62165 0.55986 0.0
H1992 H 0.41136 0.58886 0.61183 0.0
C1993 C 0.38567 0.56817 0.51395 0.0
C1994 C 0.40373 0.59863 0.51527 0.0
C1995 C 0.38036 0.55914 0.49092 0.0
C1996 C 0.43391 0.6299 0.61105 0.0
C1997 C 0.42764 0.62189 0.58693 0.0
C1998 C 0.40911 0.59181 0.58509 0.0
C1999 C 0.39549 0.57644 0.5025 0.0
C2000 C 0.40107 0.58609 0.52691 0.0
C2001 C 0.41761 0.61382 0.5981 0.0
C2002 C 0.41177 0.60437 0.57353 0.0
H2003 H 0.39819 0.56594 0.41769 0.0
H2004 H 0.40762 0.58154 0.45811 0.0
H2005 H 0.40207 0.57314 0.57169 0.0
H2006 H 0.4169 0.622 0.68498 0.0
H2007 H 0.40577 0.60841 0.64282 0.0
C2008 C 0.87729 0.07828 0.8325 0.0
C2009 C 0.86897 0.06872 0.8453 0.0
C2010 C 0.88588 0.08444 0.85515 0.0
C2011 C 0.90887 0.08866 0.90253 0.0
H2012 H 0.89967 0.09903 0.99757 0.0
C2013 C 0.94662 0.1037 0.00649 0.0
C2014 C 0.94358 0.11427 0.02802 0.0
C2015 C 0.93741 0.09845 0.98387 0.0
C2016 C 0.90237 0.09627 0.971 0.0
H2017 H 0.86284 0.05845 0.89215 0.0
H2018 H 0.87797 0.06913 0.93176 0.0
H2019 H 0.88334 0.08982 0.95889 0.0
H2020 H 0.92842 0.12752 0.04286 0.0
H2021 H 0.91248 0.11854 0.00291 0.0
H2022 H 0.92784 0.09525 0.91443 0.0
C2023 C 0.87777 0.07191 0.9042 0.0
C2024 C 0.89304 0.09088 0.94899 0.0
C2025 C 0.86917 0.06573 0.8815 0.0
C2026 C 0.93115 0.1195 0.02625 0.0
C2027 C 0.92195 0.11425 0.00371 0.0
C2028 C 0.91819 0.09402 0.92454 0.0
C2029 C 0.88638 0.08117 0.89111 0.0
C2030 C 0.89619 0.08703 0.9145 0.0
C2031 C 0.92494 0.10362 0.98242 0.0
C2032 C 0.91504 0.0979 0.95902 0.0
H2033 H 0.87755 0.08068 0.80467 0.0
H2034 H 0.89226 0.09165 0.84435 0.0
H2035 H 0.91165 0.08563 0.87625 0.0
H2036 H 0.95613 0.0995 0.00712 0.0
H2037 H 0.93998 0.09019 0.96799 0.0
C2038 C 0.39926 0.95003 0.51663 0.0
C2039 C 0.38843 0.94615 0.53602 0.0
C2040 C 0.40545 0.94143 0.49395 0.0
C2041 C 0.40944 0.90677 0.47636 0.0
H2042 H 0.41986 0.91814 0.38315 0.0
C2043 C 0.42622 0.88428 0.33403 0.0
C2044 C 0.43575 0.87556 0.34486 0.0
C2045 C 0.42063 0.89269 0.35821 0.0
C2046 C 0.41694 0.9148 0.40904 0.0
H2047 H 0.37576 0.93012 0.54737 0.0
H2048 H 0.3864 0.91523 0.50739 0.0
H2049 H 0.40981 0.93333 0.42362 0.0
H2050 H 0.44669 0.86866 0.38971 0.0
H2051 H 0.43695 0.88347 0.4321 0.0
H2052 H 0.41633 0.88816 0.46146 0.0
C2053 C 0.39016 0.92488 0.50985 0.0
C2054 C 0.41133 0.92354 0.43235 0.0
C2055 C 0.38397 0.93347 0.53239 0.0
C2056 C 0.4394 0.8753 0.38059 0.0
C2057 C 0.43377 0.88371 0.40486 0.0
C2058 C 0.41509 0.89803 0.45306 0.0
C2059 C 0.40097 0.92875 0.49039 0.0
C2060 C 0.40742 0.9196 0.46616 0.0
C2061 C 0.42444 0.89261 0.3938 0.0
C2062 C 0.4188 0.90193 0.41904 0.0
H2063 H 0.40288 0.95975 0.51877 0.0
H2064 H 0.41382 0.94466 0.47949 0.0
H2065 H 0.40666 0.90347 0.50241 0.0
H2066 H 0.42335 0.88489 0.30658 0.0
H2067 H 0.41335 0.89931 0.34896 0.0
C2068 C 0.56226 0.37345 0.01304 0.0
C2069 C 0.54981 0.37837 0.01789 0.0
C2070 C 0.57069 0.37918 0.98915 0.0
C2071 C 0.58896 0.39826 0.95582 0.0
H2072 H 0.57743 0.41057 0.86453 0.0
C2073 C 0.61954 0.43172 0.86778 0.0
C2074 C 0.61931 0.42949 0.83117 0.0
C2075 C 0.61138 0.42489 0.89027 0.0
C2076 C 0.58083 0.40708 0.88981 0.0
H2077 H 0.53636 0.39299 0.00075 0.0
H2078 H 0.55119 0.40315 0.95933 0.0
H2079 H 0.56235 0.39954 0.90338 0.0
H2080 H 0.61036 0.41832 0.7895 0.0
H2081 H 0.59638 0.40621 0.8288 0.0
H2082 H 0.60747 0.40564 0.94207 0.0
C2083 C 0.55437 0.39477 0.97385 0.0
C2084 C 0.57215 0.40089 0.91222 0.0
C2085 C 0.54592 0.38903 0.9978 0.0
C2086 C 0.61092 0.42013 0.81764 0.0
C2087 C 0.60277 0.41332 0.84009 0.0
C2088 C 0.59763 0.40445 0.93343 0.0
C2089 C 0.5669 0.38999 0.96957 0.0
C2090 C 0.57612 0.39643 0.94549 0.0
C2091 C 0.60279 0.41573 0.87661 0.0
C2092 C 0.59366 0.40894 0.9002 0.0
H2093 H 0.56565 0.36536 0.02844 0.0
H2094 H 0.58022 0.37516 0.98613 0.0
H2095 H 0.59228 0.39506 0.98147 0.0
H2096 H 0.62594 0.43883 0.879 0.0
H2097 H 0.61156 0.42704 0.91826 0.0
C2098 C 0.11576 0.56329 0.50804 0.0
C2099 C 0.1114 0.56262 0.54312 0.0
C2100 C 0.11094 0.5726 0.48503 0.0
C2101 C 0.09453 0.60404 0.4837 0.0
H2102 H 0.08601 0.59447 0.38756 0.0
C2103 C 0.06461 0.63595 0.38892 0.0
C2104 C 0.06782 0.63572 0.35284 0.0
C2105 C 0.07101 0.62799 0.41292 0.0
C2106 C 0.08853 0.59736 0.41416 0.0
H2107 H 0.09861 0.57126 0.58162 0.0
H2108 H 0.09 0.58734 0.54123 0.0
H2109 H 0.09475 0.57842 0.42757 0.0
H2110 H 0.08066 0.62726 0.31405 0.0
H2111 H 0.09202 0.61378 0.35595 0.0
H2112 H 0.08817 0.623 0.47025 0.0
C2113 C 0.09725 0.58075 0.53163 0.0
C2114 C 0.09352 0.58814 0.4371 0.0
C2115 C 0.10205 0.57142 0.55462 0.0
C2116 C 0.07802 0.62785 0.34167 0.0
C2117 C 0.08442 0.61994 0.36562 0.0
C2118 C 0.08953 0.61329 0.4607 0.0
C2119 C 0.10166 0.58147 0.49661 0.0
C2120 C 0.09654 0.59136 0.47216 0.0
C2121 C 0.08074 0.61964 0.40131 0.0
C2122 C 0.08646 0.61004 0.42567 0.0
H2123 H 0.12289 0.55659 0.49833 0.0
H2124 H 0.11461 0.57297 0.45828 0.0
H2125 H 0.09693 0.60686 0.51044 0.0
H2126 H 0.05687 0.64198 0.39842 0.0
H2127 H 0.06792 0.62796 0.44024 0.0
C2128 C 0.88473 0.54357 0.28569 0.0
C2129 C 0.8896 0.53095 0.2864 0.0
C2130 C 0.89306 0.55408 0.28344 0.0
C2131 C 0.92587 0.56361 0.30393 0.0
H2132 H 0.9229 0.58846 0.22807 0.0
C2133 C 0.96863 0.59368 0.25893 0.0
C2134 C 0.96672 0.60627 0.24675 0.0
C2135 C 0.9582 0.58591 0.26757 0.0
C2136 C 0.92373 0.58178 0.24988 0.0
H2137 H 0.90706 0.51957 0.28376 0.0
H2138 H 0.92149 0.53787 0.28109 0.0
H2139 H 0.90618 0.57222 0.23599 0.0
H2140 H 0.95233 0.62069 0.23474 0.0
H2141 H 0.93405 0.60715 0.25068 0.0
H2142 H 0.94338 0.573 0.31788 0.0
C2143 C 0.91124 0.5396 0.28262 0.0
C2144 C 0.91417 0.57248 0.2543 0.0
C2145 C 0.90296 0.52912 0.28431 0.0
C2146 C 0.95412 0.61104 0.24423 0.0
C2147 C 0.94365 0.60325 0.25302 0.0
C2148 C 0.93532 0.57297 0.29981 0.0
C2149 C 0.90639 0.55216 0.28238 0.0
C2150 C 0.91539 0.5631 0.28069 0.0
C2151 C 0.94558 0.59056 0.26456 0.0
C2152 C 0.93458 0.5819 0.27203 0.0
H2153 H 0.87451 0.54535 0.28759 0.0
H2154 H 0.88912 0.56371 0.28327 0.0
H2155 H 0.92689 0.55658 0.32484 0.0
H2156 H 0.97821 0.58977 0.26171 0.0
H2157 H 0.96007 0.57613 0.27581 0.0
C2158 C 0.88371 0.95506 0.72046 0.0
C2159 C 0.88883 0.96757 0.72047 0.0
C2160 C 0.89179 0.9444 0.72423 0.0
C2161 C 0.92522 0.93469 0.71069 0.0
H2162 H 0.91873 0.90814 0.78027 0.0
C2163 C 0.96522 0.90224 0.76159 0.0
C2164 C 0.96265 0.88921 0.76802 0.0
C2165 C 0.95534 0.91066 0.75287 0.0
C2166 C 0.92056 0.91535 0.76027 0.0
H2167 H 0.90635 0.97868 0.72618 0.0
H2168 H 0.92036 0.96015 0.73203 0.0
H2169 H 0.90276 0.92504 0.77062 0.0
H2170 H 0.94768 0.87476 0.7702 0.0
H2171 H 0.9303 0.88956 0.75449 0.0
H2172 H 0.94302 0.92521 0.70051 0.0
C2173 C 0.91016 0.95858 0.72852 0.0
C2174 C 0.91144 0.92502 0.75482 0.0
C2175 C 0.90212 0.96919 0.72509 0.0
C2176 C 0.94994 0.88475 0.76522 0.0
C2177 C 0.94 0.89323 0.75652 0.0
C2178 C 0.93427 0.92503 0.71597 0.0
C2179 C 0.9051 0.94609 0.72777 0.0
C2180 C 0.91387 0.93497 0.73067 0.0
C2181 C 0.94262 0.90627 0.75019 0.0
C2182 C 0.93222 0.91547 0.74153 0.0
H2183 H 0.87353 0.95349 0.7167 0.0
H2184 H 0.88767 0.93485 0.72354 0.0
H2185 H 0.92721 0.94212 0.69138 0.0
H2186 H 0.97493 0.90594 0.76302 0.0
H2187 H 0.95766 0.92069 0.74869 0.0
C2188 C 0.54835 0.87852 0.20967 0.0
C2189 C 0.53641 0.88478 0.21149 0.0
C2190 C 0.55965 0.88508 0.21833 0.0
C2191 C 0.58196 0.90463 0.21839 0.0
H2192 H 0.58069 0.92675 0.30073 0.0
C2193 C 0.61507 0.94824 0.24039 0.0
C2194 C 0.61789 0.95194 0.2752 0.0
C2195 C 0.60738 0.93751 0.23393 0.0
C2196 C 0.58135 0.92045 0.27804 0.0
H2197 H 0.52691 0.90275 0.22395 0.0
H2198 H 0.54655 0.9142 0.23867 0.0
H2199 H 0.56252 0.91302 0.28714 0.0
H2200 H 0.616 0.94672 0.33034 0.0
H2201 H 0.60276 0.92782 0.31911 0.0
H2202 H 0.60078 0.91229 0.20905 0.0
C2203 C 0.54721 0.90422 0.23076 0.0
C2204 C 0.57085 0.91271 0.27001 0.0
C2205 C 0.53598 0.89771 0.22191 0.0
C2206 C 0.61376 0.94417 0.30328 0.0
C2207 C 0.60618 0.93338 0.29684 0.0
C2208 C 0.59251 0.91244 0.2264 0.0
C2209 C 0.55914 0.89796 0.22935 0.0
C2210 C 0.57091 0.90497 0.23966 0.0
C2211 C 0.60245 0.93025 0.2622 0.0
C2212 C 0.59219 0.92063 0.25594 0.0
H2213 H 0.54896 0.86857 0.20148 0.0
H2214 H 0.56873 0.88004 0.21707 0.0
H2215 H 0.58225 0.89875 0.1948 0.0
H2216 H 0.6181 0.95413 0.2183 0.0
H2217 H 0.60461 0.93542 0.20696 0.0
C2218 C 0.60812 0.54478 0.68967 0.0
C2219 C 0.61214 0.53743 0.71872 0.0
C2220 C 0.60026 0.55548 0.69459 0.0
C2221 C 0.5862 0.57725 0.76252 0.0
H2222 H 0.55734 0.57762 0.69779 0.0
C2223 C 0.53044 0.59509 0.75834 0.0
C2224 C 0.5315 0.60775 0.77076 0.0
C2225 C 0.54139 0.58798 0.7503 0.0
C2226 C 0.56533 0.57765 0.71612 0.0
H2227 H 0.61168 0.5358 0.77574 0.0
H2228 H 0.59769 0.55433 0.78442 0.0
H2229 H 0.57504 0.56294 0.68744 0.0
H2230 H 0.54488 0.62289 0.78464 0.0
H2231 H 0.5641 0.61046 0.7701 0.0
H2232 H 0.57606 0.59156 0.79214 0.0
C2233 C 0.60078 0.55201 0.75786 0.0
C2234 C 0.57558 0.56935 0.70991 0.0
C2235 C 0.60875 0.54137 0.75293 0.0
C2236 C 0.54377 0.61318 0.77486 0.0
C2237 C 0.55476 0.60603 0.76685 0.0
C2238 C 0.57589 0.58555 0.76878 0.0
C2239 C 0.59613 0.55896 0.72864 0.0
C2240 C 0.58604 0.56888 0.73337 0.0
C2241 C 0.55367 0.59337 0.75438 0.0
C2242 C 0.56522 0.58561 0.74604 0.0
H2243 H 0.61079 0.54204 0.66305 0.0
H2244 H 0.5971 0.5608 0.6716 0.0
H2245 H 0.59418 0.57721 0.78087 0.0
H2246 H 0.52113 0.59068 0.75448 0.0
H2247 H 0.54023 0.57818 0.74126 0.0
C2248 C 0.11336 0.45065 0.75998 0.0
C2249 C 0.1121 0.45591 0.72588 0.0
C2250 C 0.10679 0.43946 0.76925 0.0
C2251 C 0.09129 0.41056 0.73644 0.0
H2252 H 0.06668 0.41563 0.81196 0.0
C2253 C 0.04786 0.37716 0.75646 0.0
C2254 C 0.04201 0.37632 0.78989 0.0
C2255 C 0.05842 0.38518 0.75102 0.0
C2256 C 0.0737 0.41383 0.79147 0.0
H2257 H 0.10325 0.45312 0.67445 0.0
H2258 H 0.09221 0.43331 0.69046 0.0
H2259 H 0.08183 0.43257 0.79777 0.0
H2260 H 0.04345 0.38268 0.84445 0.0
H2261 H 0.06235 0.39579 0.83554 0.0
H2262 H 0.08337 0.39176 0.73031 0.0
C2263 C 0.09825 0.43797 0.70991 0.0
C2264 C 0.08232 0.42362 0.78322 0.0
C2265 C 0.10462 0.44931 0.70079 0.0
C2266 C 0.04765 0.38297 0.8183 0.0
C2267 C 0.0584 0.39074 0.81303 0.0
C2268 C 0.08285 0.40062 0.74519 0.0
C2269 C 0.09907 0.43313 0.74441 0.0
C2270 C 0.091 0.42217 0.75521 0.0
C2271 C 0.06364 0.39235 0.77906 0.0
C2272 C 0.07372 0.40222 0.77233 0.0
H2273 H 0.1193 0.45523 0.77977 0.0
H2274 H 0.10762 0.43581 0.79597 0.0
H2275 H 0.09799 0.40924 0.71484 0.0
H2276 H 0.04407 0.37191 0.73409 0.0
H2277 H 0.06208 0.38614 0.7244 0.0
C2278 C 0.057 0.11328 0.177 0.0
C2279 C 0.05054 0.11896 0.20565 0.0
C2280 C 0.06841 0.10649 0.18228 0.0
C2281 C 0.09318 0.09815 0.25071 0.0
H2282 H 0.09511 0.06658 0.19668 0.0
C2283 C 0.11716 0.05094 0.29652 0.0
C2284 C 0.12449 0.04408 0.27164 0.0
C2285 C 0.11082 0.06223 0.28683 0.0
C2286 C 0.09483 0.07546 0.21158 0.0
H2287 H 0.05166 0.12271 0.26201 0.0
H2288 H 0.07091 0.11017 0.27155 0.0
H2289 H 0.07887 0.0824 0.18208 0.0
H2290 H 0.13168 0.04432 0.21776 0.0
H2291 H 0.12014 0.06375 0.20063 0.0
H2292 H 0.10865 0.09055 0.28181 0.0
C2293 C 0.06738 0.11116 0.24479 0.0
C2294 C 0.08555 0.0846 0.20313 0.0
C2295 C 0.05613 0.11818 0.23941 0.0
C2296 C 0.12585 0.04916 0.23737 0.0
C2297 C 0.11935 0.06033 0.22757 0.0
C2298 C 0.10232 0.08885 0.25959 0.0
C2299 C 0.07351 0.10494 0.21643 0.0
C2300 C 0.08443 0.09599 0.22295 0.0
C2301 C 0.11155 0.06679 0.25201 0.0
C2302 C 0.10308 0.07736 0.24039 0.0
H2303 H 0.05302 0.11358 0.15061 0.0
H2304 H 0.073 0.10214 0.15959 0.0
H2305 H 0.09282 0.1069 0.26611 0.0
H2306 H 0.11573 0.04728 0.32299 0.0
H2307 H 0.10474 0.06698 0.30605 0.0
C2308 C 0.376 0.05722 0.74468 0.0
C2309 C 0.37533 0.05168 0.71083 0.0
C2310 C 0.38281 0.0686 0.75026 0.0
C2311 C 0.40893 0.08742 0.70857 0.0
H2312 H 0.40278 0.11015 0.78796 0.0
C2313 C 0.44379 0.12814 0.74273 0.0
C2314 C 0.44914 0.12657 0.77662 0.0
C2315 C 0.43259 0.12162 0.73324 0.0
C2316 C 0.40452 0.10393 0.76553 0.0
H2317 H 0.38067 0.05442 0.65583 0.0
H2318 H 0.39165 0.07461 0.66512 0.0
H2319 H 0.3867 0.09403 0.77227 0.0
H2320 H 0.44634 0.1175 0.82774 0.0
H2321 H 0.42659 0.10649 0.81136 0.0
H2322 H 0.42672 0.09738 0.7019 0.0
C2323 C 0.38742 0.06987 0.68775 0.0
C2324 C 0.39538 0.09462 0.75666 0.0
C2325 C 0.38087 0.05834 0.6823 0.0
C2326 C 0.44247 0.11908 0.80156 0.0
C2327 C 0.43116 0.11273 0.7922 0.0
C2328 C 0.4179 0.09688 0.717 0.0
C2329 C 0.38889 0.07492 0.72198 0.0
C2330 C 0.39763 0.086 0.72863 0.0
C2331 C 0.42637 0.11362 0.75763 0.0
C2332 C 0.41592 0.10499 0.74605 0.0
H2333 H 0.37156 0.05262 0.76722 0.0
H2334 H 0.38374 0.07208 0.77707 0.0
H2335 H 0.41122 0.08086 0.68733 0.0
H2336 H 0.44847 0.13409 0.72312 0.0
H2337 H 0.429 0.12253 0.7065 0.0
C2338 C 0.44423 0.37959 0.19855 0.0
C2339 C 0.45073 0.37224 0.22412 0.0
C2340 C 0.43349 0.38688 0.20782 0.0
C2341 C 0.42192 0.40512 0.28115 0.0
H2342 H 0.39008 0.4079 0.22869 0.0
C2343 C 0.38576 0.44474 0.315 0.0
C2344 C 0.37973 0.45095 0.28646 0.0
C2345 C 0.39238 0.43323 0.30997 0.0
C2346 C 0.39896 0.40734 0.24345 0.0
H2347 H 0.45036 0.36605 0.27893 0.0
H2348 H 0.43192 0.37924 0.29526 0.0
H2349 H 0.40538 0.39092 0.21404 0.0
H2350 H 0.37537 0.44935 0.2305 0.0
H2351 H 0.38764 0.42989 0.2213 0.0
H2352 H 0.41615 0.42194 0.30894 0.0
C2353 C 0.4352 0.3793 0.2681 0.0
C2354 C 0.40765 0.39755 0.23519 0.0
C2355 C 0.44581 0.37185 0.25874 0.0
C2356 C 0.38015 0.44507 0.253 0.0
C2357 C 0.38701 0.4337 0.24783 0.0
C2358 C 0.41339 0.41504 0.28895 0.0
C2359 C 0.42914 0.38709 0.24288 0.0
C2360 C 0.41926 0.39646 0.25375 0.0
C2361 C 0.39341 0.42774 0.27614 0.0
C2362 C 0.40186 0.41641 0.26991 0.0
H2363 H 0.44781 0.38029 0.17177 0.0
H2364 H 0.42904 0.39293 0.18799 0.0
H2365 H 0.43092 0.40459 0.29547 0.0
H2366 H 0.38578 0.44896 0.34113 0.0
H2367 H 0.39692 0.42879 0.33262 0.0
loop_
_geom_bond_atom_site_label_1
_geom_bond_atom_site_label_2
_geom_bond_distance
_geom_bond_site_symmetry_2
_ccdc_geom_bond_type
Li0 N17 1.990 1_455 S
Li0 O60 1.956 . S
Li0 O61 1.970 . S
Li0 O62 1.961 . S
Li1 N25 1.990 . S
Li1 O60 1.970 . S
Li1 O61 1.956 . S
Li1 O63 1.961 . S
Li2 N47 1.990 . S
Li2 O60 1.961 . S
Li2 O62 1.956 . S
Li2 O63 1.970 . S
Li3 N53 1.990 . S
Li3 O61 1.961 . S
Li3 O62 1.970 . S
Li3 O63 1.956 . S
C4 C6 1.348 . S
C4 C7 1.356 . S
C4 O60 1.325 . S
N5 C8 1.292 1_655 S
N5 C9 1.287 . S
C6 C4 1.348 . S
C6 C8 1.353 . S
C6 H64 0.929 . S
C7 C4 1.356 . S
C7 C9 1.358 1_455 S
C7 H65 0.930 1_455 S
C8 N5 1.292 1_455 S
C8 C6 1.353 . S
C8 H66 0.930 . S
C9 N5 1.287 . S
C9 C7 1.358 1_655 S
C9 H67 0.930 . S
C10 C13 1.348 . S
C10 C14 1.356 . S
C10 O61 1.325 . S
C11 N12 1.279 . S
C11 C14 1.358 . S
C11 H68 0.930 . S
N12 C11 1.279 . S
N12 C15 1.314 . S
C13 C10 1.348 . S
C13 C15 1.353 . S
C13 H69 0.929 . S
C14 C10 1.356 . S
C14 C11 1.358 . S
C14 H70 0.930 . S
C15 N12 1.314 . S
C15 C13 1.353 . S
C15 H71 0.930 . S
C16 N17 1.314 . S
C16 C21 1.353 . S
C16 H22 0.930 . S
N17 Li0 1.990 1_655 S
N17 C16 1.314 . S
N17 C19 1.279 . S
C18 C19 1.358 . S
C18 C20 1.356 . S
C18 H72 0.930 . S
C19 N17 1.279 . S
C19 C18 1.358 . S
C19 H23 0.930 . S
C20 C18 1.356 . S
C20 C21 1.348 . S
C21 C16 1.353 . S
C21 C20 1.348 . S
C21 H73 0.929 . S
H22 C16 0.930 . S
H23 C19 0.930 . S
C24 N25 1.314 . S
C24 C26 1.353 . S
C24 H30 0.930 . S
N25 Li1 1.990 . S
N25 C24 1.314 . S
N25 C28 1.279 . S
C26 C24 1.353 . S
C26 C29 1.348 . S
C26 H74 0.929 . S
C27 C28 1.358 . S
C27 C29 1.356 . S
C27 H75 0.930 . S
C28 N25 1.279 . S
C28 C27 1.358 . S
C28 H31 0.930 . S
C29 C26 1.348 . S
C29 C27 1.356 . S
H30 C24 0.930 . S
H31 C28 0.930 . S
C32 C34 1.348 . S
C32 C35 1.356 1_455 S
C32 O62 1.325 . S
N33 C36 1.314 1_655 S
N33 C37 1.279 . S
C34 C32 1.348 . S
C34 C36 1.353 . S
C34 H76 0.929 . S
C35 C32 1.356 1_655 S
C35 C37 1.358 . S
C35 H77 0.930 . S
C36 N33 1.314 1_455 S
C36 C34 1.353 . S
C36 H78 0.930 1_554 S
C37 N33 1.279 . S
C37 C35 1.358 . S
C37 H79 0.930 . S
C38 C39 1.348 . S
C38 C40 1.356 . S
C38 O63 1.325 . S
C39 C38 1.348 . S
C39 C41 1.353 . S
C39 H80 0.929 . S
C40 C38 1.356 . S
C40 C42 1.358 . S
C40 H81 0.930 . S
C41 C39 1.353 . S
C41 N43 1.314 . S
C41 H82 0.930 . S
C42 C40 1.358 . S
C42 N43 1.279 . S
C42 H83 0.930 . S
N43 C41 1.314 . S
N43 C42 1.279 . S
C44 C46 1.353 . S
C44 N47 1.314 . S
C44 H50 0.930 . S
C45 N47 1.279 . S
C45 C48 1.358 . S
C45 H51 0.930 . S
C46 C44 1.353 . S
C46 C49 1.348 . S
C46 H84 0.929 . S
N47 Li2 1.990 . S
N47 C44 1.314 . S
N47 C45 1.279 . S
C48 C45 1.358 . S
C48 C49 1.356 . S
C48 H85 0.930 . S
C49 C46 1.348 . S
C49 C48 1.356 . S
H50 C44 0.930 . S
H51 C45 0.930 . S
C52 N53 1.314 . S
C52 C54 1.353 . S
C52 H58 0.930 . S
N53 Li3 1.990 . S
N53 C52 1.314 . S
N53 C56 1.279 . S
C54 C52 1.353 . S
C54 C57 1.348 1_554 S
C54 H86 0.929 . S
C55 C56 1.358 . S
C55 C57 1.356 1_554 S
C55 H87 0.930 . S
C56 N53 1.279 . S
C56 C55 1.358 . S
C56 H59 0.930 . S
C57 C54 1.348 1_556 S
C57 C55 1.356 1_556 S
H58 C52 0.930 . S
H59 C56 0.930 . S
O60 Li0 1.956 . S
O60 Li1 1.970 . S
O60 Li2 1.961 . S
O60 C4 1.325 . S
O61 Li0 1.970 . S
O61 Li1 1.956 . S
O61 Li3 1.961 . S
O61 C10 1.325 . S
O62 Li0 1.961 . S
O62 Li2 1.956 . S
O62 Li3 1.970 . S
O62 C32 1.325 . S
O63 Li1 1.961 . S
O63 Li2 1.970 . S
O63 Li3 1.956 . S
O63 C38 1.325 . S
H64 C6 0.929 . S
H65 C7 0.930 1_655 S
H66 C8 0.930 . S
H67 C9 0.930 . S
H68 C11 0.930 . S
H69 C13 0.929 . S
H70 C14 0.930 . S
H71 C15 0.930 . S
H72 C18 0.930 . S
H73 C21 0.929 . S
H74 C26 0.929 . S
H75 C27 0.930 . S
H76 C34 0.929 . S
H77 C35 0.930 . S
H78 C36 0.930 1_556 S
H79 C37 0.930 . S
H80 C39 0.929 . S
H81 C40 0.930 . S
H82 C41 0.930 . S
H83 C42 0.930 . S
H84 C46 0.929 . S
H85 C48 0.930 . S
H86 C54 0.929 . S
H87 C55 0.930 . S
Li88 N105 1.990 1_545 S
Li88 O148 1.956 . S
Li88 O149 1.970 . S
Li88 O150 1.961 . S
Li89 N113 1.990 . S
Li89 O148 1.970 . S
Li89 O149 1.956 . S
Li89 O151 1.961 . S
Li90 N135 1.990 . S
Li90 O148 1.961 . S
Li90 O150 1.956 . S
Li90 O151 1.970 . S
Li91 N141 1.990 . S
Li91 O149 1.961 . S
Li91 O150 1.970 . S
Li91 O151 1.956 . S
C92 C94 1.348 . S
C92 C95 1.356 . S
C92 O148 1.325 . S
N93 C96 1.295 1_565 S
N93 C97 1.286 . S
C94 C92 1.348 . S
C94 C96 1.353 . S
C94 H152 0.929 . S
C95 C92 1.356 . S
C95 C97 1.358 1_545 S
C95 H153 0.930 1_545 S
C96 N93 1.295 1_545 S
C96 C94 1.353 . S
C96 H154 0.930 . S
C97 N93 1.286 . S
C97 C95 1.358 1_565 S
C97 H155 0.930 . S
C98 C101 1.348 . S
C98 C102 1.356 . S
C98 O149 1.325 . S
C99 N100 1.279 . S
C99 C102 1.358 . S
C99 H156 0.930 . S
N100 C99 1.279 . S
N100 C103 1.314 . S
C101 C98 1.348 . S
C101 C103 1.353 . S
C101 H157 0.929 . S
C102 C98 1.356 . S
C102 C99 1.358 . S
C102 H158 0.930 . S
C103 N100 1.314 . S
C103 C101 1.353 . S
C103 H159 0.930 . S
C104 N105 1.314 . S
C104 C109 1.353 . S
C104 H110 0.930 . S
N105 Li88 1.990 1_565 S
N105 C104 1.314 . S
N105 C107 1.279 . S
C106 C107 1.358 . S
C106 C108 1.356 . S
C106 H160 0.930 . S
C107 N105 1.279 . S
C107 C106 1.358 . S
C107 H111 0.930 . S
C108 C106 1.356 . S
C108 C109 1.348 . S
C109 C104 1.353 . S
C109 C108 1.348 . S
C109 H161 0.929 . S
H110 C104 0.930 . S
H111 C107 0.930 . S
C112 N113 1.314 . S
C112 C114 1.353 . S
C112 H118 0.930 . S
N113 Li89 1.990 . S
N113 C112 1.314 . S
N113 C116 1.279 . S
C114 C112 1.353 . S
C114 C117 1.348 . S
C114 H162 0.929 . S
C115 C116 1.358 . S
C115 C117 1.356 . S
C115 H163 0.930 . S
C116 N113 1.279 . S
C116 C115 1.358 . S
C116 H119 0.930 . S
C117 C114 1.348 . S
C117 C115 1.356 . S
H118 C112 0.930 . S
H119 C116 0.930 . S
C120 C122 1.348 . S
C120 C123 1.356 1_545 S
C120 O150 1.325 . S
N121 C124 1.314 1_565 S
N121 C125 1.279 . S
C122 C120 1.348 . S
C122 C124 1.353 . S
C122 H164 0.929 . S
C123 C120 1.356 1_565 S
C123 C125 1.358 . S
C123 H165 0.930 . S
C124 N121 1.314 1_545 S
C124 C122 1.353 . S
C124 H166 0.930 . S
C125 N121 1.279 . S
C125 C123 1.358 . S
C125 H167 0.930 . S
C126 C127 1.348 . S
C126 C128 1.356 . S
C126 O151 1.325 . S
C127 C126 1.348 . S
C127 C129 1.353 . S
C127 H168 0.929 . S
C128 C126 1.356 . S
C128 C130 1.358 . S
C128 H169 0.930 . S
C129 C127 1.353 . S
C129 N131 1.314 . S
C129 H170 0.930 . S
C130 C128 1.358 . S
C130 N131 1.279 . S
C130 H171 0.930 . S
N131 C129 1.314 . S
N131 C130 1.279 . S
C132 C134 1.353 . S
C132 N135 1.314 . S
C132 H138 0.930 . S
C133 N135 1.279 . S
C133 C136 1.358 . S
C133 H139 0.930 . S
C134 C132 1.353 . S
C134 C137 1.348 . S
C134 H172 0.929 . S
N135 Li90 1.990 . S
N135 C132 1.314 . S
N135 C133 1.279 . S
C136 C133 1.358 . S
C136 C137 1.356 . S
C136 H173 0.930 . S
C137 C134 1.348 . S
C137 C136 1.356 . S
H138 C132 0.930 . S
H139 C133 0.930 . S
C140 N141 1.314 . S
C140 C142 1.353 . S
C140 H146 0.930 . S
N141 Li91 1.990 . S
N141 C140 1.314 . S
N141 C144 1.279 . S
C142 C140 1.353 . S
C142 C145 1.348 . S
C142 H174 0.929 . S
C143 C144 1.358 . S
C143 C145 1.356 . S
C143 H175 0.930 . S
C144 N141 1.279 . S
C144 C143 1.358 . S
C144 H147 0.930 . S
C145 C142 1.348 . S
C145 C143 1.356 . S
H146 C140 0.930 . S
H147 C144 0.930 . S
O148 Li88 1.956 . S
O148 Li89 1.970 . S
O148 Li90 1.961 . S
O148 C92 1.325 . S
O149 Li88 1.970 . S
O149 Li89 1.956 . S
O149 Li91 1.961 . S
O149 C98 1.325 . S
O150 Li88 1.961 . S
O150 Li90 1.956 . S
O150 Li91 1.970 . S
O150 C120 1.325 . S
O151 Li89 1.961 . S
O151 Li90 1.970 . S
O151 Li91 1.956 . S
O151 C126 1.325 . S
H152 C94 0.929 . S
H153 C95 0.930 1_565 S
H154 C96 0.930 . S
H155 C97 0.930 . S
H156 C99 0.930 . S
H157 C101 0.929 . S
H158 C102 0.930 . S
H159 C103 0.930 . S
H160 C106 0.930 . S
H161 C109 0.929 . S
H162 C114 0.929 . S
H163 C115 0.930 . S
H164 C122 0.929 . S
H165 C123 0.930 . S
H166 C124 0.930 . S
H167 C125 0.930 . S
H168 C127 0.929 . S
H169 C128 0.930 . S
H170 C129 0.930 . S
H171 C130 0.930 . S
H172 C134 0.929 . S
H173 C136 0.930 . S
H174 C142 0.929 . S
H175 C143 0.930 . S
Li176 N193 1.990 . S
Li176 O236 1.956 . S
Li176 O237 1.970 . S
Li176 O238 1.961 . S
Li177 N201 1.990 . S
Li177 O236 1.970 . S
Li177 O237 1.956 . S
Li177 O239 1.961 . S
Li178 N223 1.990 . S
Li178 O236 1.961 . S
Li178 O238 1.956 . S
Li178 O239 1.970 . S
Li179 N229 1.990 . S
Li179 O237 1.961 . S
Li179 O238 1.970 . S
Li179 O239 1.956 . S
C180 C182 1.348 . S
C180 C183 1.356 . S
C180 O236 1.325 . S
N181 C184 1.314 . S
N181 C185 1.279 . S
C182 C180 1.348 . S
C182 C184 1.353 . S
C182 H240 0.929 . S
C183 C180 1.356 . S
C183 C185 1.358 . S
C183 H241 0.930 . S
C184 N181 1.314 . S
C184 C182 1.353 . S
C184 H242 0.930 . S
C185 N181 1.279 . S
C185 C183 1.358 . S
C185 H243 0.930 . S
C186 C189 1.348 . S
C186 C190 1.356 . S
C186 O237 1.325 . S
C187 N188 1.279 . S
C187 C190 1.358 . S
C187 H244 0.930 . S
N188 C187 1.279 . S
N188 C191 1.314 . S
C189 C186 1.348 . S
C189 C191 1.353 . S
C189 H245 0.929 . S
C190 C186 1.356 . S
C190 C187 1.358 . S
C190 H246 0.930 . S
C191 N188 1.314 . S
C191 C189 1.353 . S
C191 H247 0.930 . S
C192 N193 1.314 . S
C192 C197 1.353 . S
C192 H198 0.930 . S
N193 Li176 1.990 . S
N193 C192 1.314 . S
N193 C195 1.279 . S
C194 C195 1.358 . S
C194 C196 1.356 . S
C194 H248 0.930 . S
C195 N193 1.279 . S
C195 C194 1.358 . S
C195 H199 0.930 . S
C196 C194 1.356 . S
C196 C197 1.348 . S
C197 C192 1.353 . S
C197 C196 1.348 . S
C197 H249 0.929 . S
H198 C192 0.930 . S
H199 C195 0.930 . S
C200 N201 1.314 . S
C200 C202 1.353 . S
C200 H206 0.930 . S
N201 Li177 1.990 . S
N201 C200 1.314 . S
N201 C204 1.279 . S
C202 C200 1.353 . S
C202 C205 1.348 . S
C202 H250 0.929 . S
C203 C204 1.358 . S
C203 C205 1.356 . S
C203 H251 0.930 . S
C204 N201 1.279 . S
C204 C203 1.358 . S
C204 H207 0.930 . S
C205 C202 1.348 . S
C205 C203 1.356 . S
H206 C200 0.930 . S
H207 C204 0.930 . S
C208 C210 1.348 . S
C208 C211 1.356 . S
C208 O238 1.325 . S
N209 C212 1.314 . S
N209 C213 1.279 . S
C210 C208 1.348 . S
C210 C212 1.353 . S
C210 H252 0.929 . S
C211 C208 1.356 . S
C211 C213 1.358 . S
C211 H253 0.930 . S
C212 N209 1.314 . S
C212 C210 1.353 . S
C212 H254 0.930 1_554 S
C213 N209 1.279 . S
C213 C211 1.358 . S
C213 H255 0.930 . S
C214 C215 1.348 . S
C214 C216 1.356 . S
C214 O239 1.325 . S
C215 C214 1.348 . S
C215 C217 1.353 . S
C215 H256 0.929 . S
C216 C214 1.356 . S
C216 C218 1.358 . S
C216 H257 0.930 . S
C217 C215 1.353 . S
C217 N219 1.314 . S
C217 H258 0.930 . S
C218 C216 1.358 . S
C218 N219 1.279 . S
C218 H259 0.930 . S
N219 C217 1.314 . S
N219 C218 1.279 . S
C220 C222 1.353 . S
C220 N223 1.314 . S
C220 H226 0.930 . S
C221 N223 1.279 . S
C221 C224 1.358 . S
C221 H227 0.930 . S
C222 C220 1.353 . S
C222 C225 1.348 . S
C222 H260 0.929 . S
N223 Li178 1.990 . S
N223 C220 1.314 . S
N223 C221 1.279 . S
C224 C221 1.358 . S
C224 C225 1.356 . S
C224 H261 0.930 . S
C225 C222 1.348 . S
C225 C224 1.356 . S
H226 C220 0.930 . S
H227 C221 0.930 . S
C228 N229 1.314 . S
C228 C230 1.353 . S
C228 H234 0.930 . S
N229 Li179 1.990 . S
N229 C228 1.314 . S
N229 C232 1.279 . S
C230 C228 1.353 . S
C230 C233 1.348 1_554 S
C230 H262 0.929 . S
C231 C232 1.358 . S
C231 C233 1.356 1_554 S
C231 H263 0.930 . S
C232 N229 1.279 . S
C232 C231 1.358 . S
C232 H235 0.930 . S
C233 C230 1.348 1_556 S
C233 C231 1.356 1_556 S
H234 C228 0.930 . S
H235 C232 0.930 . S
O236 Li176 1.956 . S
O236 Li177 1.970 . S
O236 Li178 1.961 . S
O236 C180 1.325 . S
O237 Li176 1.970 . S
O237 Li177 1.956 . S
O237 Li179 1.961 . S
O237 C186 1.325 . S
O238 Li176 1.961 . S
O238 Li178 1.956 . S
O238 Li179 1.970 . S
O238 C208 1.325 . S
O239 Li177 1.961 . S
O239 Li178 1.970 . S
O239 Li179 1.956 . S
O239 C214 1.325 . S
H240 C182 0.929 . S
H241 C183 0.930 . S
H242 C184 0.930 . S
H243 C185 0.930 . S
H244 C187 0.930 . S
H245 C189 0.929 . S
H246 C190 0.930 . S
H247 C191 0.930 . S
H248 C194 0.930 . S
H249 C197 0.929 . S
H250 C202 0.929 . S
H251 C203 0.930 . S
H252 C210 0.929 . S
H253 C211 0.930 . S
H254 C212 0.930 1_556 S
H255 C213 0.930 . S
H256 C215 0.929 . S
H257 C216 0.930 . S
H258 C217 0.930 . S
H259 C218 0.930 . S
H260 C222 0.929 . S
H261 C224 0.930 . S
H262 C230 0.929 . S
H263 C231 0.930 . S
Li264 N281 1.990 . S
Li264 O324 1.956 . S
Li264 O325 1.970 . S
Li264 O326 1.961 . S
Li265 N289 1.990 . S
Li265 O324 1.970 . S
Li265 O325 1.956 . S
Li265 O327 1.961 . S
Li266 N311 1.990 . S
Li266 O324 1.961 . S
Li266 O326 1.956 . S
Li266 O327 1.970 . S
Li267 N317 1.990 . S
Li267 O325 1.961 . S
Li267 O326 1.970 . S
Li267 O327 1.956 . S
C268 C270 1.348 . S
C268 C271 1.356 . S
C268 O324 1.325 . S
N269 C272 1.314 . S
N269 C273 1.279 . S
C270 C268 1.348 . S
C270 C272 1.353 . S
C270 H328 0.929 . S
C271 C268 1.356 . S
C271 C273 1.358 . S
C271 H329 0.930 . S
C272 N269 1.314 . S
C272 C270 1.353 . S
C272 H330 0.930 . S
C273 N269 1.279 . S
C273 C271 1.358 . S
C273 H331 0.930 . S
C274 C277 1.348 . S
C274 C278 1.356 . S
C274 O325 1.325 . S
C275 N276 1.279 . S
C275 C278 1.358 . S
C275 H332 0.930 . S
N276 C275 1.279 . S
N276 C279 1.314 . S
C277 C274 1.348 . S
C277 C279 1.353 . S
C277 H333 0.929 . S
C278 C274 1.356 . S
C278 C275 1.358 . S
C278 H334 0.930 . S
C279 N276 1.314 . S
C279 C277 1.353 . S
C279 H335 0.930 . S
C280 N281 1.314 . S
C280 C285 1.353 . S
C280 H286 0.930 . S
N281 Li264 1.990 . S
N281 C280 1.314 . S
N281 C283 1.279 . S
C282 C283 1.358 . S
C282 C284 1.356 . S
C282 H336 0.930 . S
C283 N281 1.279 . S
C283 C282 1.358 . S
C283 H287 0.930 . S
C284 C282 1.356 . S
C284 C285 1.348 . S
C285 C280 1.353 . S
C285 C284 1.348 . S
C285 H337 0.929 . S
H286 C280 0.930 . S
H287 C283 0.930 . S
C288 N289 1.314 . S
C288 C290 1.353 . S
C288 H294 0.930 . S
N289 Li265 1.990 . S
N289 C288 1.314 . S
N289 C292 1.279 . S
C290 C288 1.353 . S
C290 C293 1.348 . S
C290 H338 0.929 . S
C291 C292 1.358 . S
C291 C293 1.356 . S
C291 H339 0.930 . S
C292 N289 1.279 . S
C292 C291 1.358 . S
C292 H295 0.930 . S
C293 C290 1.348 . S
C293 C291 1.356 . S
H294 C288 0.930 . S
H295 C292 0.930 . S
C296 C298 1.348 . S
C296 C299 1.356 . S
C296 O326 1.325 . S
N297 C300 1.314 . S
N297 C301 1.279 . S
C298 C296 1.348 . S
C298 C300 1.353 . S
C298 H340 0.929 . S
C299 C296 1.356 . S
C299 C301 1.358 . S
C299 H341 0.930 . S
C300 N297 1.314 . S
C300 C298 1.353 . S
C300 H342 0.930 . S
C301 N297 1.279 . S
C301 C299 1.358 . S
C301 H343 0.930 . S
C302 C303 1.348 . S
C302 C304 1.356 . S
C302 O327 1.325 . S
C303 C302 1.348 . S
C303 C305 1.353 . S
C303 H344 0.929 . S
C304 C302 1.356 . S
C304 C306 1.358 . S
C304 H345 0.930 . S
C305 C303 1.353 . S
C305 N307 1.314 . S
C305 H346 0.930 . S
C306 C304 1.358 . S
C306 N307 1.279 . S
C306 H347 0.930 . S
N307 C305 1.314 . S
N307 C306 1.279 . S
C308 C310 1.353 . S
C308 N311 1.314 . S
C308 H314 0.930 . S
C309 N311 1.279 . S
C309 C312 1.358 . S
C309 H315 0.930 . S
C310 C308 1.353 . S
C310 C313 1.348 . S
C310 H348 0.929 . S
N311 Li266 1.990 . S
N311 C308 1.314 . S
N311 C309 1.279 . S
C312 C309 1.358 . S
C312 C313 1.356 . S
C312 H349 0.930 . S
C313 C310 1.348 . S
C313 C312 1.356 . S
H314 C308 0.930 . S
H315 C309 0.930 . S
C316 N317 1.314 . S
C316 C318 1.353 . S
C316 H322 0.930 . S
N317 Li267 1.990 . S
N317 C316 1.314 . S
N317 C320 1.279 . S
C318 C316 1.353 . S
C318 C321 1.348 . S
C318 H350 0.929 . S
C319 C320 1.358 . S
C319 C321 1.356 . S
C319 H351 0.930 . S
C320 N317 1.279 . S
C320 C319 1.358 . S
C320 H323 0.930 . S
C321 C318 1.348 . S
C321 C319 1.356 . S
H322 C316 0.930 . S
H323 C320 0.930 . S
O324 Li264 1.956 . S
O324 Li265 1.970 . S
O324 Li266 1.961 . S
O324 C268 1.325 . S
O325 Li264 1.970 . S
O325 Li265 1.956 . S
O325 Li267 1.961 . S
O325 C274 1.325 . S
O326 Li264 1.961 . S
O326 Li266 1.956 . S
O326 Li267 1.970 . S
O326 C296 1.325 . S
O327 Li265 1.961 . S
O327 Li266 1.970 . S
O327 Li267 1.956 . S
O327 C302 1.325 . S
H328 C270 0.929 . S
H329 C271 0.930 . S
H330 C272 0.930 . S
H331 C273 0.930 . S
H332 C275 0.930 . S
H333 C277 0.929 . S
H334 C278 0.930 . S
H335 C279 0.930 . S
H336 C282 0.930 . S
H337 C285 0.929 . S
H338 C290 0.929 . S
H339 C291 0.930 . S
H340 C298 0.929 . S
H341 C299 0.930 . S
H342 C300 0.930 . S
H343 C301 0.930 . S
H344 C303 0.929 . S
H345 C304 0.930 . S
H346 C305 0.930 . S
H347 C306 0.930 . S
H348 C310 0.929 . S
H349 C312 0.930 . S
H350 C318 0.929 . S
H351 C319 0.930 . S
Li352 N369 1.990 . S
Li352 O412 1.956 . S
Li352 O413 1.970 . S
Li352 O414 1.961 . S
Li353 N377 1.990 . S
Li353 O412 1.970 . S
Li353 O413 1.956 . S
Li353 O415 1.961 . S
Li354 N399 1.990 1_455 S
Li354 O412 1.961 . S
Li354 O414 1.956 . S
Li354 O415 1.970 . S
Li355 N405 1.990 . S
Li355 O413 1.961 . S
Li355 O414 1.970 . S
Li355 O415 1.956 . S
C356 C358 1.348 . S
C356 C359 1.356 1_455 S
C356 O412 1.325 . S
N357 C360 1.314 1_655 S
N357 C361 1.279 . S
C358 C356 1.348 . S
C358 C360 1.353 . S
C358 H416 0.929 . S
C359 C356 1.356 1_655 S
C359 C361 1.358 . S
C359 H417 0.930 . S
C360 N357 1.314 1_455 S
C360 C358 1.353 . S
C360 H418 0.930 1_556 S
C361 N357 1.279 . S
C361 C359 1.358 . S
C361 H419 0.930 . S
C362 C365 1.348 . S
C362 C366 1.356 . S
C362 O413 1.325 . S
C363 N364 1.279 . S
C363 C366 1.358 . S
C363 H420 0.930 . S
N364 C363 1.279 . S
N364 C367 1.314 . S
C365 C362 1.348 . S
C365 C367 1.353 . S
C365 H421 0.929 . S
C366 C362 1.356 . S
C366 C363 1.358 . S
C366 H422 0.930 . S
C367 N364 1.314 . S
C367 C365 1.353 . S
C367 H423 0.930 . S
C368 N369 1.314 . S
C368 C373 1.353 . S
C368 H374 0.930 . S
N369 Li352 1.990 . S
N369 C368 1.314 . S
N369 C371 1.279 . S
C370 C371 1.358 . S
C370 C372 1.356 . S
C370 H424 0.930 . S
C371 N369 1.279 . S
C371 C370 1.358 . S
C371 H375 0.930 . S
C372 C370 1.356 . S
C372 C373 1.348 . S
C373 C368 1.353 . S
C373 C372 1.348 . S
C373 H425 0.929 . S
H374 C368 0.930 . S
H375 C371 0.930 . S
C376 N377 1.314 . S
C376 C378 1.353 . S
C376 H382 0.930 . S
N377 Li353 1.990 . S
N377 C376 1.314 . S
N377 C380 1.279 . S
C378 C376 1.353 . S
C378 C381 1.348 1_556 S
C378 H426 0.929 . S
C379 C380 1.358 . S
C379 C381 1.356 1_556 S
C379 H427 0.930 . S
C380 N377 1.279 . S
C380 C379 1.358 . S
C380 H383 0.930 . S
C381 C378 1.348 1_554 S
C381 C379 1.356 1_554 S
H382 C376 0.930 . S
H383 C380 0.930 . S
C384 C386 1.348 . S
C384 C387 1.356 . S
C384 O414 1.325 . S
N385 C388 1.295 1_655 S
N385 C389 1.286 . S
C386 C384 1.348 . S
C386 C388 1.353 . S
C386 H428 0.929 . S
C387 C384 1.356 . S
C387 C389 1.358 1_455 S
C387 H429 0.930 1_455 S
C388 N385 1.295 1_455 S
C388 C386 1.353 . S
C388 H430 0.930 . S
C389 N385 1.286 . S
C389 C387 1.358 1_655 S
C389 H431 0.930 . S
C390 C391 1.348 . S
C390 C392 1.356 . S
C390 O415 1.325 . S
C391 C390 1.348 . S
C391 C393 1.353 . S
C391 H432 0.929 . S
C392 C390 1.356 . S
C392 C394 1.358 . S
C392 H433 0.930 . S
C393 C391 1.353 . S
C393 N395 1.314 . S
C393 H434 0.930 . S
C394 C392 1.358 . S
C394 N395 1.279 . S
C394 H435 0.930 . S
N395 C393 1.314 . S
N395 C394 1.279 . S
C396 C398 1.353 . S
C396 N399 1.314 . S
C396 H402 0.930 . S
C397 N399 1.279 . S
C397 C400 1.358 . S
C397 H403 0.930 . S
C398 C396 1.353 . S
C398 C401 1.348 . S
C398 H436 0.929 . S
N399 Li354 1.990 1_655 S
N399 C396 1.314 . S
N399 C397 1.279 . S
C400 C397 1.358 . S
C400 C401 1.356 . S
C400 H437 0.930 . S
C401 C398 1.348 . S
C401 C400 1.356 . S
H402 C396 0.930 . S
H403 C397 0.930 . S
C404 N405 1.314 . S
C404 C406 1.353 . S
C404 H410 0.930 . S
N405 Li355 1.990 . S
N405 C404 1.314 . S
N405 C408 1.279 . S
C406 C404 1.353 . S
C406 C409 1.348 . S
C406 H438 0.929 . S
C407 C408 1.358 . S
C407 C409 1.356 . S
C407 H439 0.930 . S
C408 N405 1.279 . S
C408 C407 1.358 . S
C408 H411 0.930 . S
C409 C406 1.348 . S
C409 C407 1.356 . S
H410 C404 0.930 . S
H411 C408 0.930 . S
O412 Li352 1.956 . S
O412 Li353 1.970 . S
O412 Li354 1.961 . S
O412 C356 1.325 . S
O413 Li352 1.970 . S
O413 Li353 1.956 . S
O413 Li355 1.961 . S
O413 C362 1.325 . S
O414 Li352 1.961 . S
O414 Li354 1.956 . S
O414 Li355 1.970 . S
O414 C384 1.325 . S
O415 Li353 1.961 . S
O415 Li354 1.970 . S
O415 Li355 1.956 . S
O415 C390 1.325 . S
H416 C358 0.929 . S
H417 C359 0.930 . S
H418 C360 0.930 1_554 S
H419 C361 0.930 . S
H420 C363 0.930 . S
H421 C365 0.929 . S
H422 C366 0.930 . S
H423 C367 0.930 . S
H424 C370 0.930 . S
H425 C373 0.929 . S
H426 C378 0.929 . S
H427 C379 0.930 . S
H428 C386 0.929 . S
H429 C387 0.930 1_655 S
H430 C388 0.930 . S
H431 C389 0.930 . S
H432 C391 0.929 . S
H433 C392 0.930 . S
H434 C393 0.930 . S
H435 C394 0.930 . S
H436 C398 0.929 . S
H437 C400 0.930 . S
H438 C406 0.929 . S
H439 C407 0.930 . S
Li440 N457 1.990 . S
Li440 O500 1.956 . S
Li440 O501 1.970 . S
Li440 O502 1.961 . S
Li441 N465 1.990 . S
Li441 O500 1.970 . S
Li441 O501 1.956 . S
Li441 O503 1.961 . S
Li442 N487 1.990 1_545 S
Li442 O500 1.961 . S
Li442 O502 1.956 . S
Li442 O503 1.970 . S
Li443 N493 1.990 . S
Li443 O501 1.961 . S
Li443 O502 1.970 . S
Li443 O503 1.956 . S
C444 C446 1.348 . S
C444 C447 1.356 1_545 S
C444 O500 1.325 . S
N445 C448 1.314 1_565 S
N445 C449 1.279 . S
C446 C444 1.348 . S
C446 C448 1.353 . S
C446 H504 0.929 . S
C447 C444 1.356 1_565 S
C447 C449 1.358 . S
C447 H505 0.930 . S
C448 N445 1.314 1_545 S
C448 C446 1.353 . S
C448 H506 0.930 . S
C449 N445 1.279 . S
C449 C447 1.358 . S
C449 H507 0.930 . S
C450 C453 1.348 . S
C450 C454 1.356 . S
C450 O501 1.325 . S
C451 N452 1.279 . S
C451 C454 1.358 . S
C451 H508 0.930 . S
N452 C451 1.279 . S
N452 C455 1.314 . S
C453 C450 1.348 . S
C453 C455 1.353 . S
C453 H509 0.929 . S
C454 C450 1.356 . S
C454 C451 1.358 . S
C454 H510 0.930 . S
C455 N452 1.314 . S
C455 C453 1.353 . S
C455 H511 0.930 . S
C456 N457 1.314 . S
C456 C461 1.353 . S
C456 H462 0.930 . S
N457 Li440 1.990 . S
N457 C456 1.314 . S
N457 C459 1.279 . S
C458 C459 1.358 . S
C458 C460 1.356 . S
C458 H512 0.930 . S
C459 N457 1.279 . S
C459 C458 1.358 . S
C459 H463 0.930 . S
C460 C458 1.356 . S
C460 C461 1.348 . S
C461 C456 1.353 . S
C461 C460 1.348 . S
C461 H513 0.929 . S
H462 C456 0.930 . S
H463 C459 0.930 . S
C464 N465 1.314 . S
C464 C466 1.353 . S
C464 H470 0.930 . S
N465 Li441 1.990 . S
N465 C464 1.314 . S
N465 C468 1.279 . S
C466 C464 1.353 . S
C466 C469 1.348 . S
C466 H514 0.929 . S
C467 C468 1.358 . S
C467 C469 1.356 . S
C467 H515 0.930 . S
C468 N465 1.279 . S
C468 C467 1.358 . S
C468 H471 0.930 . S
C469 C466 1.348 . S
C469 C467 1.356 . S
H470 C464 0.930 . S
H471 C468 0.930 . S
C472 C474 1.348 . S
C472 C475 1.356 . S
C472 O502 1.325 . S
N473 C476 1.292 1_565 S
N473 C477 1.287 . S
C474 C472 1.348 . S
C474 C476 1.353 . S
C474 H516 0.929 . S
C475 C472 1.356 . S
C475 C477 1.358 1_545 S
C475 H517 0.930 1_545 S
C476 N473 1.292 1_545 S
C476 C474 1.353 . S
C476 H518 0.930 . S
C477 N473 1.287 . S
C477 C475 1.358 1_565 S
C477 H519 0.930 . S
C478 C479 1.348 . S
C478 C480 1.356 . S
C478 O503 1.325 . S
C479 C478 1.348 . S
C479 C481 1.353 . S
C479 H520 0.929 . S
C480 C478 1.356 . S
C480 C482 1.358 . S
C480 H521 0.930 . S
C481 C479 1.353 . S
C481 N483 1.314 . S
C481 H522 0.930 . S
C482 C480 1.358 . S
C482 N483 1.279 . S
C482 H523 0.930 . S
N483 C481 1.314 . S
N483 C482 1.279 . S
C484 C486 1.353 . S
C484 N487 1.314 . S
C484 H490 0.930 . S
C485 N487 1.279 . S
C485 C488 1.358 . S
C485 H491 0.930 . S
C486 C484 1.353 . S
C486 C489 1.348 . S
C486 H524 0.929 . S
N487 Li442 1.990 1_565 S
N487 C484 1.314 . S
N487 C485 1.279 . S
C488 C485 1.358 . S
C488 C489 1.356 . S
C488 H525 0.930 . S
C489 C486 1.348 . S
C489 C488 1.356 . S
H490 C484 0.930 . S
H491 C485 0.930 . S
C492 N493 1.314 . S
C492 C494 1.353 . S
C492 H498 0.930 . S
N493 Li443 1.990 . S
N493 C492 1.314 . S
N493 C496 1.279 . S
C494 C492 1.353 . S
C494 C497 1.348 . S
C494 H526 0.929 . S
C495 C496 1.358 . S
C495 C497 1.356 . S
C495 H527 0.930 . S
C496 N493 1.279 . S
C496 C495 1.358 . S
C496 H499 0.930 . S
C497 C494 1.348 . S
C497 C495 1.356 . S
H498 C492 0.930 . S
H499 C496 0.930 . S
O500 Li440 1.956 . S
O500 Li441 1.970 . S
O500 Li442 1.961 . S
O500 C444 1.325 . S
O501 Li440 1.970 . S
O501 Li441 1.956 . S
O501 Li443 1.961 . S
O501 C450 1.325 . S
O502 Li440 1.961 . S
O502 Li442 1.956 . S
O502 Li443 1.970 . S
O502 C472 1.325 . S
O503 Li441 1.961 . S
O503 Li442 1.970 . S
O503 Li443 1.956 . S
O503 C478 1.325 . S
H504 C446 0.929 . S
H505 C447 0.930 . S
H506 C448 0.930 . S
H507 C449 0.930 . S
H508 C451 0.930 . S
H509 C453 0.929 . S
H510 C454 0.930 . S
H511 C455 0.930 . S
H512 C458 0.930 . S
H513 C461 0.929 . S
H514 C466 0.929 . S
H515 C467 0.930 . S
H516 C474 0.929 . S
H517 C475 0.930 1_565 S
H518 C476 0.930 . S
H519 C477 0.930 . S
H520 C479 0.929 . S
H521 C480 0.930 . S
H522 C481 0.930 . S
H523 C482 0.930 . S
H524 C486 0.929 . S
H525 C488 0.930 . S
H526 C494 0.929 . S
H527 C495 0.930 . S
Li528 N545 1.990 . S
Li528 O588 1.956 . S
Li528 O589 1.970 . S
Li528 O590 1.961 . S
Li529 N553 1.990 . S
Li529 O588 1.970 . S
Li529 O589 1.956 . S
Li529 O591 1.961 . S
Li530 N575 1.990 . S
Li530 O588 1.961 . S
Li530 O590 1.956 . S
Li530 O591 1.970 . S
Li531 N581 1.990 . S
Li531 O589 1.961 . S
Li531 O590 1.970 . S
Li531 O591 1.956 . S
C532 C534 1.348 . S
C532 C535 1.356 . S
C532 O588 1.325 . S
N533 C536 1.314 . S
N533 C537 1.279 . S
C534 C532 1.348 . S
C534 C536 1.353 . S
C534 H592 0.929 . S
C535 C532 1.356 . S
C535 C537 1.358 . S
C535 H593 0.930 . S
C536 N533 1.314 . S
C536 C534 1.353 . S
C536 H594 0.930 1_556 S
C537 N533 1.279 . S
C537 C535 1.358 . S
C537 H595 0.930 . S
C538 C541 1.348 . S
C538 C542 1.356 . S
C538 O589 1.325 . S
C539 N540 1.279 . S
C539 C542 1.358 . S
C539 H596 0.930 . S
N540 C539 1.279 . S
N540 C543 1.314 . S
C541 C538 1.348 . S
C541 C543 1.353 . S
C541 H597 0.929 . S
C542 C538 1.356 . S
C542 C539 1.358 . S
C542 H598 0.930 . S
C543 N540 1.314 . S
C543 C541 1.353 . S
C543 H599 0.930 . S
C544 N545 1.314 . S
C544 C549 1.353 . S
C544 H550 0.930 . S
N545 Li528 1.990 . S
N545 C544 1.314 . S
N545 C547 1.279 . S
C546 C547 1.358 . S
C546 C548 1.356 . S
C546 H600 0.930 . S
C547 N545 1.279 . S
C547 C546 1.358 . S
C547 H551 0.930 . S
C548 C546 1.356 . S
C548 C549 1.348 . S
C549 C544 1.353 . S
C549 C548 1.348 . S
C549 H601 0.929 . S
H550 C544 0.930 . S
H551 C547 0.930 . S
C552 N553 1.314 . S
C552 C554 1.353 . S
C552 H558 0.930 . S
N553 Li529 1.990 . S
N553 C552 1.314 . S
N553 C556 1.279 . S
C554 C552 1.353 . S
C554 C557 1.348 1_556 S
C554 H602 0.929 . S
C555 C556 1.358 . S
C555 C557 1.356 1_556 S
C555 H603 0.930 . S
C556 N553 1.279 . S
C556 C555 1.358 . S
C556 H559 0.930 . S
C557 C554 1.348 1_554 S
C557 C555 1.356 1_554 S
H558 C552 0.930 . S
H559 C556 0.930 . S
C560 C562 1.348 . S
C560 C563 1.356 . S
C560 O590 1.325 . S
N561 C564 1.314 . S
N561 C565 1.279 . S
C562 C560 1.348 . S
C562 C564 1.353 . S
C562 H604 0.929 . S
C563 C560 1.356 . S
C563 C565 1.358 . S
C563 H605 0.930 . S
C564 N561 1.314 . S
C564 C562 1.353 . S
C564 H606 0.930 . S
C565 N561 1.279 . S
C565 C563 1.358 . S
C565 H607 0.930 . S
C566 C567 1.348 . S
C566 C568 1.356 . S
C566 O591 1.325 . S
C567 C566 1.348 . S
C567 C569 1.353 . S
C567 H608 0.929 . S
C568 C566 1.356 . S
C568 C570 1.358 . S
C568 H609 0.930 . S
C569 C567 1.353 . S
C569 N571 1.314 . S
C569 H610 0.930 . S
C570 C568 1.358 . S
C570 N571 1.279 . S
C570 H611 0.930 . S
N571 C569 1.314 . S
N571 C570 1.279 . S
C572 C574 1.353 . S
C572 N575 1.314 . S
C572 H578 0.930 . S
C573 N575 1.279 . S
C573 C576 1.358 . S
C573 H579 0.930 . S
C574 C572 1.353 . S
C574 C577 1.348 . S
C574 H612 0.929 . S
N575 Li530 1.990 . S
N575 C572 1.314 . S
N575 C573 1.279 . S
C576 C573 1.358 . S
C576 C577 1.356 . S
C576 H613 0.930 . S
C577 C574 1.348 . S
C577 C576 1.356 . S
H578 C572 0.930 . S
H579 C573 0.930 . S
C580 N581 1.314 . S
C580 C582 1.353 . S
C580 H586 0.930 . S
N581 Li531 1.990 . S
N581 C580 1.314 . S
N581 C584 1.279 . S
C582 C580 1.353 . S
C582 C585 1.348 . S
C582 H614 0.929 . S
C583 C584 1.358 . S
C583 C585 1.356 . S
C583 H615 0.930 . S
C584 N581 1.279 . S
C584 C583 1.358 . S
C584 H587 0.930 . S
C585 C582 1.348 . S
C585 C583 1.356 . S
H586 C580 0.930 . S
H587 C584 0.930 . S
O588 Li528 1.956 . S
O588 Li529 1.970 . S
O588 Li530 1.961 . S
O588 C532 1.325 . S
O589 Li528 1.970 . S
O589 Li529 1.956 . S
O589 Li531 1.961 . S
O589 C538 1.325 . S
O590 Li528 1.961 . S
O590 Li530 1.956 . S
O590 Li531 1.970 . S
O590 C560 1.325 . S
O591 Li529 1.961 . S
O591 Li530 1.970 . S
O591 Li531 1.956 . S
O591 C566 1.325 . S
H592 C534 0.929 . S
H593 C535 0.930 . S
H594 C536 0.930 1_554 S
H595 C537 0.930 . S
H596 C539 0.930 . S
H597 C541 0.929 . S
H598 C542 0.930 . S
H599 C543 0.930 . S
H600 C546 0.930 . S
H601 C549 0.929 . S
H602 C554 0.929 . S
H603 C555 0.930 . S
H604 C562 0.929 . S
H605 C563 0.930 . S
H606 C564 0.930 . S
H607 C565 0.930 . S
H608 C567 0.929 . S
H609 C568 0.930 . S
H610 C569 0.930 . S
H611 C570 0.930 . S
H612 C574 0.929 . S
H613 C576 0.930 . S
H614 C582 0.929 . S
H615 C583 0.930 . S
Li616 N633 1.990 . S
Li616 O676 1.956 . S
Li616 O677 1.970 . S
Li616 O678 1.961 . S
Li617 N641 1.990 . S
Li617 O676 1.970 . S
Li617 O677 1.956 . S
Li617 O679 1.961 . S
Li618 N663 1.990 . S
Li618 O676 1.961 . S
Li618 O678 1.956 . S
Li618 O679 1.970 . S
Li619 N669 1.990 . S
Li619 O677 1.961 . S
Li619 O678 1.970 . S
Li619 O679 1.956 . S
C620 C622 1.348 . S
C620 C623 1.356 . S
C620 O676 1.325 . S
N621 C624 1.314 . S
N621 C625 1.279 . S
C622 C620 1.348 . S
C622 C624 1.353 . S
C622 H680 0.929 . S
C623 C620 1.356 . S
C623 C625 1.358 . S
C623 H681 0.930 . S
C624 N621 1.314 . S
C624 C622 1.353 . S
C624 H682 0.930 . S
C625 N621 1.279 . S
C625 C623 1.358 . S
C625 H683 0.930 . S
C626 C629 1.348 . S
C626 C630 1.356 . S
C626 O677 1.325 . S
C627 N628 1.279 . S
C627 C630 1.358 . S
C627 H684 0.930 . S
N628 C627 1.279 . S
N628 C631 1.314 . S
C629 C626 1.348 . S
C629 C631 1.353 . S
C629 H685 0.929 . S
C630 C626 1.356 . S
C630 C627 1.358 . S
C630 H686 0.930 . S
C631 N628 1.314 . S
C631 C629 1.353 . S
C631 H687 0.930 . S
C632 N633 1.314 . S
C632 C637 1.353 . S
C632 H638 0.930 . S
N633 Li616 1.990 . S
N633 C632 1.314 . S
N633 C635 1.279 . S
C634 C635 1.358 . S
C634 C636 1.356 . S
C634 H688 0.930 . S
C635 N633 1.279 . S
C635 C634 1.358 . S
C635 H639 0.930 . S
C636 C634 1.356 . S
C636 C637 1.348 . S
C637 C632 1.353 . S
C637 C636 1.348 . S
C637 H689 0.929 . S
H638 C632 0.930 . S
H639 C635 0.930 . S
C640 N641 1.314 . S
C640 C642 1.353 . S
C640 H646 0.930 . S
N641 Li617 1.990 . S
N641 C640 1.314 . S
N641 C644 1.279 . S
C642 C640 1.353 . S
C642 C645 1.348 . S
C642 H690 0.929 . S
C643 C644 1.358 . S
C643 C645 1.356 . S
C643 H691 0.930 . S
C644 N641 1.279 . S
C644 C643 1.358 . S
C644 H647 0.930 . S
C645 C642 1.348 . S
C645 C643 1.356 . S
H646 C640 0.930 . S
H647 C644 0.930 . S
C648 C650 1.348 . S
C648 C651 1.356 . S
C648 O678 1.325 . S
N649 C652 1.314 . S
N649 C653 1.279 . S
C650 C648 1.348 . S
C650 C652 1.353 . S
C650 H692 0.929 . S
C651 C648 1.356 . S
C651 C653 1.358 . S
C651 H693 0.930 . S
C652 N649 1.314 . S
C652 C650 1.353 . S
C652 H694 0.930 . S
C653 N649 1.279 . S
C653 C651 1.358 . S
C653 H695 0.930 . S
C654 C655 1.348 . S
C654 C656 1.356 . S
C654 O679 1.325 . S
C655 C654 1.348 . S
C655 C657 1.353 . S
C655 H696 0.929 . S
C656 C654 1.356 . S
C656 C658 1.358 . S
C656 H697 0.930 . S
C657 C655 1.353 . S
C657 N659 1.314 . S
C657 H698 0.930 . S
C658 C656 1.358 . S
C658 N659 1.279 . S
C658 H699 0.930 . S
N659 C657 1.314 . S
N659 C658 1.279 . S
C660 C662 1.353 . S
C660 N663 1.314 . S
C660 H666 0.930 . S
C661 N663 1.279 . S
C661 C664 1.358 . S
C661 H667 0.930 . S
C662 C660 1.353 . S
C662 C665 1.348 . S
C662 H700 0.929 . S
N663 Li618 1.990 . S
N663 C660 1.314 . S
N663 C661 1.279 . S
C664 C661 1.358 . S
C664 C665 1.356 . S
C664 H701 0.930 . S
C665 C662 1.348 . S
C665 C664 1.356 . S
H666 C660 0.930 . S
H667 C661 0.930 . S
C668 N669 1.314 . S
C668 C670 1.353 . S
C668 H674 0.930 . S
N669 Li619 1.990 . S
N669 C668 1.314 . S
N669 C672 1.279 . S
C670 C668 1.353 . S
C670 C673 1.348 . S
C670 H702 0.929 . S
C671 C672 1.358 . S
C671 C673 1.356 . S
C671 H703 0.930 . S
C672 N669 1.279 . S
C672 C671 1.358 . S
C672 H675 0.930 . S
C673 C670 1.348 . S
C673 C671 1.356 . S
H674 C668 0.930 . S
H675 C672 0.930 . S
O676 Li616 1.956 . S
O676 Li617 1.970 . S
O676 Li618 1.961 . S
O676 C620 1.325 . S
O677 Li616 1.970 . S
O677 Li617 1.956 . S
O677 Li619 1.961 . S
O677 C626 1.325 . S
O678 Li616 1.961 . S
O678 Li618 1.956 . S
O678 Li619 1.970 . S
O678 C648 1.325 . S
O679 Li617 1.961 . S
O679 Li618 1.970 . S
O679 Li619 1.956 . S
O679 C654 1.325 . S
H680 C622 0.929 . S
H681 C623 0.930 . S
H682 C624 0.930 . S
H683 C625 0.930 . S
H684 C627 0.930 . S
H685 C629 0.929 . S
H686 C630 0.930 . S
H687 C631 0.930 . S
H688 C634 0.930 . S
H689 C637 0.929 . S
H690 C642 0.929 . S
H691 C643 0.930 . S
H692 C650 0.929 . S
H693 C651 0.930 . S
H694 C652 0.930 . S
H695 C653 0.930 . S
H696 C655 0.929 . S
H697 C656 0.930 . S
H698 C657 0.930 . S
H699 C658 0.930 . S
H700 C662 0.929 . S
H701 C664 0.930 . S
H702 C670 0.929 . S
H703 C671 0.930 . S
Li704 N721 1.990 . S
Li704 O764 1.956 . S
Li704 O765 1.970 . S
Li704 O766 1.961 . S
Li705 N729 1.990 . S
Li705 O764 1.970 . S
Li705 O765 1.956 . S
Li705 O767 1.961 . S
Li706 N751 1.990 1_655 S
Li706 O764 1.961 . S
Li706 O766 1.956 . S
Li706 O767 1.970 . S
Li707 N757 1.990 . S
Li707 O765 1.961 . S
Li707 O766 1.970 . S
Li707 O767 1.956 . S
C708 C710 1.348 . S
C708 C711 1.387 . S
C708 O764 1.325 . S
N709 C712 1.359 . S
N709 C713 1.279 . S
C710 C708 1.348 . S
C710 C712 1.308 1_655 S
C710 H768 0.929 . S
C711 C708 1.387 . S
C711 C713 1.326 1_655 S
C711 H769 0.934 . S
C712 N709 1.359 . S
C712 C710 1.308 1_455 S
C712 H770 0.936 . S
C713 N709 1.279 . S
C713 C711 1.326 1_455 S
C713 H771 0.930 . S
C714 C717 1.348 . S
C714 C718 1.356 . S
C714 O765 1.325 . S
C715 N716 1.279 . S
C715 C718 1.358 . S
C715 H772 0.930 . S
N716 C715 1.279 . S
N716 C719 1.314 . S
C717 C714 1.348 . S
C717 C719 1.353 . S
C717 H773 0.929 . S
C718 C714 1.356 . S
C718 C715 1.358 . S
C718 H774 0.930 . S
C719 N716 1.314 . S
C719 C717 1.353 . S
C719 H775 0.930 . S
C720 N721 1.314 . S
C720 C725 1.353 . S
C720 H726 0.930 . S
N721 Li704 1.990 . S
N721 C720 1.314 . S
N721 C723 1.279 . S
C722 C723 1.358 1_554 S
C722 C724 1.356 . S
C722 H776 0.930 . S
C723 N721 1.279 . S
C723 C722 1.358 1_556 S
C723 H727 0.930 . S
C724 C722 1.356 . S
C724 C725 1.348 1_554 S
C725 C720 1.353 . S
C725 C724 1.348 1_556 S
C725 H777 0.929 . S
H726 C720 0.930 . S
H727 C723 0.930 . S
C728 N729 1.314 . S
C728 C730 1.353 . S
C728 H734 0.930 . S
N729 Li705 1.990 . S
N729 C728 1.314 . S
N729 C732 1.279 . S
C730 C728 1.353 . S
C730 C733 1.348 . S
C730 H778 0.929 . S
C731 C732 1.358 . S
C731 C733 1.356 . S
C731 H779 0.930 . S
C732 N729 1.279 . S
C732 C731 1.358 . S
C732 H735 0.930 . S
C733 C730 1.348 . S
C733 C731 1.356 . S
H734 C728 0.930 . S
H735 C732 0.930 . S
C736 C738 1.348 . S
C736 C739 1.356 . S
C736 O766 1.325 . S
N737 C740 1.314 . S
N737 C741 1.279 . S
C738 C736 1.348 . S
C738 C740 1.353 . S
C738 H780 0.929 . S
C739 C736 1.356 . S
C739 C741 1.358 . S
C739 H781 0.930 . S
C740 N737 1.314 . S
C740 C738 1.353 . S
C740 H782 0.930 . S
C741 N737 1.279 . S
C741 C739 1.358 . S
C741 H783 0.930 . S
C742 C743 1.348 . S
C742 C744 1.356 . S
C742 O767 1.325 . S
C743 C742 1.348 . S
C743 C745 1.353 1_655 S
C743 H784 0.933 1_655 S
C744 C742 1.356 . S
C744 C746 1.358 . S
C744 H785 0.930 . S
C745 C743 1.353 1_455 S
C745 N747 1.314 1_455 S
C745 H786 0.930 . S
C746 C744 1.358 . S
C746 N747 1.279 . S
C746 H787 0.930 . S
N747 C745 1.314 1_655 S
N747 C746 1.279 . S
C748 C750 1.353 . S
C748 N751 1.314 . S
C748 H754 0.930 . S
C749 N751 1.279 . S
C749 C752 1.358 . S
C749 H755 0.935 1_455 S
C750 C748 1.353 . S
C750 C753 1.348 . S
C750 H788 0.929 . S
N751 Li706 1.990 1_455 S
N751 C748 1.314 . S
N751 C749 1.279 . S
C752 C749 1.358 . S
C752 C753 1.356 . S
C752 H789 0.930 . S
C753 C750 1.348 . S
C753 C752 1.356 . S
H754 C748 0.930 . S
H755 C749 0.935 1_655 S
C756 N757 1.314 . S
C756 C758 1.353 . S
C756 H762 0.930 . S
N757 Li707 1.990 . S
N757 C756 1.314 . S
N757 C760 1.279 . S
C758 C756 1.353 . S
C758 C761 1.348 . S
C758 H790 0.929 . S
C759 C760 1.358 . S
C759 C761 1.356 . S
C759 H791 0.930 . S
C760 N757 1.279 . S
C760 C759 1.358 . S
C760 H763 0.930 . S
C761 C758 1.348 . S
C761 C759 1.356 . S
H762 C756 0.930 . S
H763 C760 0.930 . S
O764 Li704 1.956 . S
O764 Li705 1.970 . S
O764 Li706 1.961 . S
O764 C708 1.325 . S
O765 Li704 1.970 . S
O765 Li705 1.956 . S
O765 Li707 1.961 . S
O765 C714 1.325 . S
O766 Li704 1.961 . S
O766 Li706 1.956 . S
O766 Li707 1.970 . S
O766 C736 1.325 . S
O767 Li705 1.961 . S
O767 Li706 1.970 . S
O767 Li707 1.956 . S
O767 C742 1.325 . S
H768 C710 0.929 . S
H769 C711 0.934 . S
H770 C712 0.936 . S
H771 C713 0.930 . S
H772 C715 0.930 . S
H773 C717 0.929 . S
H774 C718 0.930 . S
H775 C719 0.930 . S
H776 C722 0.930 . S
H777 C725 0.929 . S
H778 C730 0.929 . S
H779 C731 0.930 . S
H780 C738 0.929 . S
H781 C739 0.930 . S
H782 C740 0.930 . S
H783 C741 0.930 . S
H784 C743 0.933 1_455 S
H785 C744 0.930 . S
H786 C745 0.930 . S
H787 C746 0.930 . S
H788 C750 0.929 . S
H789 C752 0.930 . S
H790 C758 0.929 . S
H791 C759 0.930 . S
Li792 N809 1.990 . S
Li792 O852 1.956 . S
Li792 O853 1.970 . S
Li792 O854 1.961 . S
Li793 N817 1.990 . S
Li793 O852 1.970 . S
Li793 O853 1.956 . S
Li793 O855 1.961 . S
Li794 N839 1.990 1_565 S
Li794 O852 1.961 . S
Li794 O854 1.956 . S
Li794 O855 1.970 . S
Li795 N845 1.990 . S
Li795 O853 1.961 . S
Li795 O854 1.970 . S
Li795 O855 1.956 . S
C796 C798 1.348 . S
C796 C799 1.386 . S
C796 O852 1.325 . S
N797 C800 1.360 . S
N797 C801 1.279 . S
C798 C796 1.348 . S
C798 C800 1.307 1_565 S
C798 H856 0.929 . S
C799 C796 1.386 . S
C799 C801 1.327 1_565 S
C799 H857 0.934 . S
C800 N797 1.360 . S
C800 C798 1.307 1_545 S
C800 H858 0.936 . S
C801 N797 1.279 . S
C801 C799 1.327 1_545 S
C801 H859 0.930 . S
C802 C805 1.348 . S
C802 C806 1.356 . S
C802 O853 1.325 . S
C803 N804 1.279 . S
C803 C806 1.358 . S
C803 H860 0.930 . S
N804 C803 1.279 . S
N804 C807 1.314 . S
C805 C802 1.348 . S
C805 C807 1.353 . S
C805 H861 0.929 . S
C806 C802 1.356 . S
C806 C803 1.358 . S
C806 H862 0.930 . S
C807 N804 1.314 . S
C807 C805 1.353 . S
C807 H863 0.930 . S
C808 N809 1.314 . S
C808 C813 1.353 . S
C808 H814 0.930 . S
N809 Li792 1.990 . S
N809 C808 1.314 . S
N809 C811 1.279 . S
C810 C811 1.358 . S
C810 C812 1.356 . S
C810 H864 0.930 . S
C811 N809 1.279 . S
C811 C810 1.358 . S
C811 H815 0.930 . S
C812 C810 1.356 . S
C812 C813 1.348 . S
C813 C808 1.353 . S
C813 C812 1.348 . S
C813 H865 0.929 . S
H814 C808 0.930 . S
H815 C811 0.930 . S
C816 N817 1.314 . S
C816 C818 1.353 . S
C816 H822 0.930 . S
N817 Li793 1.990 . S
N817 C816 1.314 . S
N817 C820 1.279 . S
C818 C816 1.353 . S
C818 C821 1.348 . S
C818 H866 0.929 . S
C819 C820 1.358 . S
C819 C821 1.356 . S
C819 H867 0.930 . S
C820 N817 1.279 . S
C820 C819 1.358 . S
C820 H823 0.930 . S
C821 C818 1.348 . S
C821 C819 1.356 . S
H822 C816 0.930 . S
H823 C820 0.930 . S
C824 C826 1.348 . S
C824 C827 1.356 . S
C824 O854 1.325 . S
N825 C828 1.314 . S
N825 C829 1.279 . S
C826 C824 1.348 . S
C826 C828 1.353 . S
C826 H868 0.929 . S
C827 C824 1.356 . S
C827 C829 1.358 . S
C827 H869 0.930 . S
C828 N825 1.314 . S
C828 C826 1.353 . S
C828 H870 0.930 . S
C829 N825 1.279 . S
C829 C827 1.358 . S
C829 H871 0.930 . S
C830 C831 1.348 . S
C830 C832 1.356 . S
C830 O855 1.325 . S
C831 C830 1.348 . S
C831 C833 1.353 1_565 S
C831 H872 0.933 1_565 S
C832 C830 1.356 . S
C832 C834 1.358 . S
C832 H873 0.930 . S
C833 C831 1.353 1_545 S
C833 N835 1.314 1_545 S
C833 H874 0.930 . S
C834 C832 1.358 . S
C834 N835 1.279 . S
C834 H875 0.930 . S
N835 C833 1.314 1_565 S
N835 C834 1.279 . S
C836 C838 1.353 . S
C836 N839 1.314 . S
C836 H842 0.930 . S
C837 N839 1.279 . S
C837 C840 1.358 . S
C837 H843 0.936 1_545 S
C838 C836 1.353 . S
C838 C841 1.348 . S
C838 H876 0.929 . S
N839 Li794 1.990 1_545 S
N839 C836 1.314 . S
N839 C837 1.279 . S
C840 C837 1.358 . S
C840 C841 1.356 . S
C840 H877 0.930 . S
C841 C838 1.348 . S
C841 C840 1.356 . S
H842 C836 0.930 . S
H843 C837 0.936 1_565 S
C844 N845 1.314 . S
C844 C846 1.353 . S
C844 H850 0.930 . S
N845 Li795 1.990 . S
N845 C844 1.314 . S
N845 C848 1.279 . S
C846 C844 1.353 . S
C846 C849 1.348 . S
C846 H878 0.929 . S
C847 C848 1.358 . S
C847 C849 1.356 . S
C847 H879 0.930 . S
C848 N845 1.279 . S
C848 C847 1.358 . S
C848 H851 0.930 . S
C849 C846 1.348 . S
C849 C847 1.356 . S
H850 C844 0.930 . S
H851 C848 0.930 . S
O852 Li792 1.956 . S
O852 Li793 1.970 . S
O852 Li794 1.961 . S
O852 C796 1.325 . S
O853 Li792 1.970 . S
O853 Li793 1.956 . S
O853 Li795 1.961 . S
O853 C802 1.325 . S
O854 Li792 1.961 . S
O854 Li794 1.956 . S
O854 Li795 1.970 . S
O854 C824 1.325 . S
O855 Li793 1.961 . S
O855 Li794 1.970 . S
O855 Li795 1.956 . S
O855 C830 1.325 . S
H856 C798 0.929 . S
H857 C799 0.934 . S
H858 C800 0.936 . S
H859 C801 0.930 . S
H860 C803 0.930 . S
H861 C805 0.929 . S
H862 C806 0.930 . S
H863 C807 0.930 . S
H864 C810 0.930 . S
H865 C813 0.929 . S
H866 C818 0.929 . S
H867 C819 0.930 . S
H868 C826 0.929 . S
H869 C827 0.930 . S
H870 C828 0.930 . S
H871 C829 0.930 . S
H872 C831 0.933 1_545 S
H873 C832 0.930 . S
H874 C833 0.930 . S
H875 C834 0.930 . S
H876 C838 0.929 . S
H877 C840 0.930 . S
H878 C846 0.929 . S
H879 C847 0.930 . S
Li880 N897 1.990 . S
Li880 O940 1.956 . S
Li880 O941 1.970 . S
Li880 O942 1.961 . S
Li881 N905 1.990 . S
Li881 O940 1.970 . S
Li881 O941 1.956 . S
Li881 O943 1.961 . S
Li882 N927 1.990 . S
Li882 O940 1.961 . S
Li882 O942 1.956 . S
Li882 O943 1.970 . S
Li883 N933 1.990 . S
Li883 O941 1.961 . S
Li883 O942 1.970 . S
Li883 O943 1.956 . S
C884 C886 1.348 . S
C884 C887 1.356 . S
C884 O940 1.325 . S
N885 C888 1.314 . S
N885 C889 1.279 . S
C886 C884 1.348 . S
C886 C888 1.353 . S
C886 H944 0.929 . S
C887 C884 1.356 . S
C887 C889 1.358 . S
C887 H945 0.930 . S
C888 N885 1.314 . S
C888 C886 1.353 . S
C888 H946 0.930 . S
C889 N885 1.279 . S
C889 C887 1.358 . S
C889 H947 0.930 . S
C890 C893 1.348 . S
C890 C894 1.356 . S
C890 O941 1.325 . S
C891 N892 1.279 . S
C891 C894 1.358 . S
C891 H948 0.930 . S
N892 C891 1.279 . S
N892 C895 1.314 . S
C893 C890 1.348 . S
C893 C895 1.353 . S
C893 H949 0.929 . S
C894 C890 1.356 . S
C894 C891 1.358 . S
C894 H950 0.930 . S
C895 N892 1.314 . S
C895 C893 1.353 . S
C895 H951 0.930 . S
C896 N897 1.314 . S
C896 C901 1.353 . S
C896 H902 0.930 . S
N897 Li880 1.990 . S
N897 C896 1.314 . S
N897 C899 1.279 . S
C898 C899 1.358 . S
C898 C900 1.356 . S
C898 H952 0.930 . S
C899 N897 1.279 . S
C899 C898 1.358 . S
C899 H903 0.930 . S
C900 C898 1.356 . S
C900 C901 1.348 . S
C901 C896 1.353 . S
C901 C900 1.348 . S
C901 H953 0.929 . S
H902 C896 0.930 . S
H903 C899 0.930 . S
C904 N905 1.314 . S
C904 C906 1.353 . S
C904 H910 0.930 . S
N905 Li881 1.990 . S
N905 C904 1.314 . S
N905 C908 1.279 . S
C906 C904 1.353 . S
C906 C909 1.348 1_556 S
C906 H954 0.929 . S
C907 C908 1.358 1_554 S
C907 C909 1.356 . S
C907 H955 0.930 . S
C908 N905 1.279 . S
C908 C907 1.358 1_556 S
C908 H911 0.930 . S
C909 C906 1.348 1_554 S
C909 C907 1.356 . S
H910 C904 0.930 . S
H911 C908 0.930 . S
C912 C914 1.348 . S
C912 C915 1.356 . S
C912 O942 1.325 . S
N913 C916 1.314 . S
N913 C917 1.279 . S
C914 C912 1.348 . S
C914 C916 1.353 . S
C914 H956 0.929 . S
C915 C912 1.356 . S
C915 C917 1.358 . S
C915 H957 0.930 . S
C916 N913 1.314 . S
C916 C914 1.353 . S
C916 H958 0.930 . S
C917 N913 1.279 . S
C917 C915 1.358 . S
C917 H959 0.930 . S
C918 C919 1.348 . S
C918 C920 1.356 . S
C918 O943 1.325 . S
C919 C918 1.348 . S
C919 C921 1.353 . S
C919 H960 0.929 . S
C920 C918 1.356 . S
C920 C922 1.358 . S
C920 H961 0.930 . S
C921 C919 1.353 . S
C921 N923 1.314 . S
C921 H962 0.930 . S
C922 C920 1.358 . S
C922 N923 1.279 . S
C922 H963 0.930 . S
N923 C921 1.314 . S
N923 C922 1.279 . S
C924 C926 1.353 . S
C924 N927 1.314 . S
C924 H930 0.930 . S
C925 N927 1.279 . S
C925 C928 1.358 . S
C925 H931 0.930 . S
C926 C924 1.353 . S
C926 C929 1.348 . S
C926 H964 0.929 . S
N927 Li882 1.990 . S
N927 C924 1.314 . S
N927 C925 1.279 . S
C928 C925 1.358 . S
C928 C929 1.356 . S
C928 H965 0.930 . S
C929 C926 1.348 . S
C929 C928 1.356 . S
H930 C924 0.930 . S
H931 C925 0.930 . S
C932 N933 1.314 . S
C932 C934 1.353 . S
C932 H938 0.930 . S
N933 Li883 1.990 . S
N933 C932 1.314 . S
N933 C936 1.279 . S
C934 C932 1.353 . S
C934 C937 1.348 . S
C934 H966 0.929 . S
C935 C936 1.358 . S
C935 C937 1.356 . S
C935 H967 0.930 . S
C936 N933 1.279 . S
C936 C935 1.358 . S
C936 H939 0.930 . S
C937 C934 1.348 . S
C937 C935 1.356 . S
H938 C932 0.930 . S
H939 C936 0.930 . S
O940 Li880 1.956 . S
O940 Li881 1.970 . S
O940 Li882 1.961 . S
O940 C884 1.325 . S
O941 Li880 1.970 . S
O941 Li881 1.956 . S
O941 Li883 1.961 . S
O941 C890 1.325 . S
O942 Li880 1.961 . S
O942 Li882 1.956 . S
O942 Li883 1.970 . S
O942 C912 1.325 . S
O943 Li881 1.961 . S
O943 Li882 1.970 . S
O943 Li883 1.956 . S
O943 C918 1.325 . S
H944 C886 0.929 . S
H945 C887 0.930 . S
H946 C888 0.930 . S
H947 C889 0.930 . S
H948 C891 0.930 . S
H949 C893 0.929 . S
H950 C894 0.930 . S
H951 C895 0.930 . S
H952 C898 0.930 . S
H953 C901 0.929 . S
H954 C906 0.929 . S
H955 C907 0.930 . S
H956 C914 0.929 . S
H957 C915 0.930 . S
H958 C916 0.930 . S
H959 C917 0.930 . S
H960 C919 0.929 . S
H961 C920 0.930 . S
H962 C921 0.930 . S
H963 C922 0.930 . S
H964 C926 0.929 . S
H965 C928 0.930 . S
H966 C934 0.929 . S
H967 C935 0.930 . S
Li968 N985 1.990 . S
Li968 O1028 1.956 . S
Li968 O1029 1.970 . S
Li968 O1030 1.961 . S
Li969 N993 1.990 . S
Li969 O1028 1.970 . S
Li969 O1029 1.956 . S
Li969 O1031 1.961 . S
Li970 N1015 1.990 . S
Li970 O1028 1.961 . S
Li970 O1030 1.956 . S
Li970 O1031 1.970 . S
Li971 N1021 1.990 . S
Li971 O1029 1.961 . S
Li971 O1030 1.970 . S
Li971 O1031 1.956 . S
C972 C974 1.348 . S
C972 C975 1.356 . S
C972 O1028 1.325 . S
N973 C976 1.314 . S
N973 C977 1.279 . S
C974 C972 1.348 . S
C974 C976 1.353 . S
C974 H1032 0.929 . S
C975 C972 1.356 . S
C975 C977 1.358 . S
C975 H1033 0.930 . S
C976 N973 1.314 . S
C976 C974 1.353 . S
C976 H1034 0.930 . S
C977 N973 1.279 . S
C977 C975 1.358 . S
C977 H1035 0.930 . S
C978 C981 1.348 . S
C978 C982 1.356 . S
C978 O1029 1.325 . S
C979 N980 1.279 . S
C979 C982 1.358 . S
C979 H1036 0.930 . S
N980 C979 1.279 . S
N980 C983 1.314 . S
C981 C978 1.348 . S
C981 C983 1.353 . S
C981 H1037 0.929 . S
C982 C978 1.356 . S
C982 C979 1.358 . S
C982 H1038 0.930 . S
C983 N980 1.314 . S
C983 C981 1.353 . S
C983 H1039 0.930 . S
C984 N985 1.314 . S
C984 C989 1.353 . S
C984 H990 0.930 . S
N985 Li968 1.990 . S
N985 C984 1.314 . S
N985 C987 1.279 . S
C986 C987 1.358 . S
C986 C988 1.356 . S
C986 H1040 0.930 . S
C987 N985 1.279 . S
C987 C986 1.358 . S
C987 H991 0.930 . S
C988 C986 1.356 . S
C988 C989 1.348 . S
C989 C984 1.353 . S
C989 C988 1.348 . S
C989 H1041 0.929 . S
H990 C984 0.930 . S
H991 C987 0.930 . S
C992 N993 1.314 . S
C992 C994 1.353 . S
C992 H998 0.930 . S
N993 Li969 1.990 . S
N993 C992 1.314 . S
N993 C996 1.279 . S
C994 C992 1.353 . S
C994 C997 1.348 . S
C994 H1042 0.929 . S
C995 C996 1.358 . S
C995 C997 1.356 . S
C995 H1043 0.930 . S
C996 N993 1.279 . S
C996 C995 1.358 . S
C996 H999 0.930 . S
C997 C994 1.348 . S
C997 C995 1.356 . S
H998 C992 0.930 . S
H999 C996 0.930 . S
C1000 C1002 1.348 . S
C1000 C1003 1.356 . S
C1000 O1030 1.325 . S
N1001 C1004 1.314 . S
N1001 C1005 1.279 . S
C1002 C1000 1.348 . S
C1002 C1004 1.353 . S
C1002 H1044 0.929 . S
C1003 C1000 1.356 . S
C1003 C1005 1.358 . S
C1003 H1045 0.930 . S
C1004 N1001 1.314 . S
C1004 C1002 1.353 . S
C1004 H1046 0.930 . S
C1005 N1001 1.279 . S
C1005 C1003 1.358 . S
C1005 H1047 0.930 . S
C1006 C1007 1.348 . S
C1006 C1008 1.356 . S
C1006 O1031 1.325 . S
C1007 C1006 1.348 . S
C1007 C1009 1.353 . S
C1007 H1048 0.929 . S
C1008 C1006 1.356 . S
C1008 C1010 1.358 . S
C1008 H1049 0.930 . S
C1009 C1007 1.353 . S
C1009 N1011 1.314 . S
C1009 H1050 0.930 . S
C1010 C1008 1.358 . S
C1010 N1011 1.279 . S
C1010 H1051 0.930 . S
N1011 C1009 1.314 . S
N1011 C1010 1.279 . S
C1012 C1014 1.353 . S
C1012 N1015 1.314 . S
C1012 H1018 0.930 . S
C1013 N1015 1.279 . S
C1013 C1016 1.358 . S
C1013 H1019 0.930 . S
C1014 C1012 1.353 . S
C1014 C1017 1.348 . S
C1014 H1052 0.929 . S
N1015 Li970 1.990 . S
N1015 C1012 1.314 . S
N1015 C1013 1.279 . S
C1016 C1013 1.358 . S
C1016 C1017 1.356 . S
C1016 H1053 0.930 . S
C1017 C1014 1.348 . S
C1017 C1016 1.356 . S
H1018 C1012 0.930 . S
H1019 C1013 0.930 . S
C1020 N1021 1.314 . S
C1020 C1022 1.353 . S
C1020 H1026 0.930 . S
N1021 Li971 1.990 . S
N1021 C1020 1.314 . S
N1021 C1024 1.279 . S
C1022 C1020 1.353 . S
C1022 C1025 1.348 . S
C1022 H1054 0.929 . S
C1023 C1024 1.358 . S
C1023 C1025 1.356 . S
C1023 H1055 0.930 . S
C1024 N1021 1.279 . S
C1024 C1023 1.358 . S
C1024 H1027 0.930 . S
C1025 C1022 1.348 . S
C1025 C1023 1.356 . S
H1026 C1020 0.930 . S
H1027 C1024 0.930 . S
O1028 Li968 1.956 . S
O1028 Li969 1.970 . S
O1028 Li970 1.961 . S
O1028 C972 1.325 . S
O1029 Li968 1.970 . S
O1029 Li969 1.956 . S
O1029 Li971 1.961 . S
O1029 C978 1.325 . S
O1030 Li968 1.961 . S
O1030 Li970 1.956 . S
O1030 Li971 1.970 . S
O1030 C1000 1.325 . S
O1031 Li969 1.961 . S
O1031 Li970 1.970 . S
O1031 Li971 1.956 . S
O1031 C1006 1.325 . S
H1032 C974 0.929 . S
H1033 C975 0.930 . S
H1034 C976 0.930 . S
H1035 C977 0.930 . S
H1036 C979 0.930 . S
H1037 C981 0.929 . S
H1038 C982 0.930 . S
H1039 C983 0.930 . S
H1040 C986 0.930 . S
H1041 C989 0.929 . S
H1042 C994 0.929 . S
H1043 C995 0.930 . S
H1044 C1002 0.929 . S
H1045 C1003 0.930 . S
H1046 C1004 0.930 . S
H1047 C1005 0.930 . S
H1048 C1007 0.929 . S
H1049 C1008 0.930 . S
H1050 C1009 0.930 . S
H1051 C1010 0.930 . S
H1052 C1014 0.929 . S
H1053 C1016 0.930 . S
H1054 C1022 0.929 . S
H1055 C1023 0.930 . S
Li1056 N1073 1.990 . S
Li1056 O1116 1.956 . S
Li1056 O1117 1.970 . S
Li1056 O1118 1.961 . S
Li1057 N1081 1.990 1_655 S
Li1057 O1116 1.970 . S
Li1057 O1117 1.956 . S
Li1057 O1119 1.961 . S
Li1058 N1103 1.990 . S
Li1058 O1116 1.961 . S
Li1058 O1118 1.956 . S
Li1058 O1119 1.970 . S
Li1059 N1109 1.990 . S
Li1059 O1117 1.961 . S
Li1059 O1118 1.970 . S
Li1059 O1119 1.956 . S
C1060 C1062 1.348 . S
C1060 C1063 1.356 . S
C1060 O1116 1.325 . S
N1061 C1064 1.314 1_655 S
N1061 C1065 1.279 . S
C1062 C1060 1.348 . S
C1062 C1064 1.353 1_655 S
C1062 H1120 0.933 1_655 S
C1063 C1060 1.356 . S
C1063 C1065 1.358 . S
C1063 H1121 0.930 . S
C1064 N1061 1.314 1_455 S
C1064 C1062 1.353 1_455 S
C1064 H1122 0.930 . S
C1065 N1061 1.279 . S
C1065 C1063 1.358 . S
C1065 H1123 0.930 . S
C1066 C1069 1.348 . S
C1066 C1070 1.356 . S
C1066 O1117 1.325 . S
C1067 N1068 1.279 . S
C1067 C1070 1.358 . S
C1067 H1124 0.930 . S
N1068 C1067 1.279 . S
N1068 C1071 1.314 . S
C1069 C1066 1.348 . S
C1069 C1071 1.353 . S
C1069 H1125 0.929 . S
C1070 C1066 1.356 . S
C1070 C1067 1.358 . S
C1070 H1126 0.930 . S
C1071 N1068 1.314 . S
C1071 C1069 1.353 . S
C1071 H1127 0.930 . S
C1072 N1073 1.314 . S
C1072 C1077 1.353 . S
C1072 H1078 0.930 . S
N1073 Li1056 1.990 . S
N1073 C1072 1.314 . S
N1073 C1075 1.279 . S
C1074 C1075 1.358 . S
C1074 C1076 1.356 . S
C1074 H1128 0.930 . S
C1075 N1073 1.279 . S
C1075 C1074 1.358 . S
C1075 H1079 0.930 . S
C1076 C1074 1.356 . S
C1076 C1077 1.348 . S
C1077 C1072 1.353 . S
C1077 C1076 1.348 . S
C1077 H1129 0.929 . S
H1078 C1072 0.930 . S
H1079 C1075 0.930 . S
C1080 N1081 1.314 . S
C1080 C1082 1.353 . S
C1080 H1086 0.930 . S
N1081 Li1057 1.990 1_455 S
N1081 C1080 1.314 . S
N1081 C1084 1.279 . S
C1082 C1080 1.353 . S
C1082 C1085 1.348 . S
C1082 H1130 0.929 . S
C1083 C1084 1.358 . S
C1083 C1085 1.356 . S
C1083 H1131 0.930 . S
C1084 N1081 1.279 . S
C1084 C1083 1.358 . S
C1084 H1087 0.936 1_455 S
C1085 C1082 1.348 . S
C1085 C1083 1.356 . S
H1086 C1080 0.930 . S
H1087 C1084 0.936 1_655 S
C1088 C1090 1.348 . S
C1088 C1091 1.356 . S
C1088 O1118 1.325 . S
N1089 C1092 1.314 . S
N1089 C1093 1.279 . S
C1090 C1088 1.348 . S
C1090 C1092 1.353 . S
C1090 H1132 0.929 . S
C1091 C1088 1.356 . S
C1091 C1093 1.358 . S
C1091 H1133 0.930 . S
C1092 N1089 1.314 . S
C1092 C1090 1.353 . S
C1092 H1134 0.930 . S
C1093 N1089 1.279 . S
C1093 C1091 1.358 . S
C1093 H1135 0.930 . S
C1094 C1095 1.348 . S
C1094 C1096 1.386 . S
C1094 O1119 1.325 . S
C1095 C1094 1.348 . S
C1095 C1097 1.308 1_655 S
C1095 H1136 0.929 . S
C1096 C1094 1.386 . S
C1096 C1098 1.327 1_655 S
C1096 H1137 0.934 . S
C1097 C1095 1.308 1_455 S
C1097 N1099 1.360 . S
C1097 H1138 0.936 . S
C1098 C1096 1.327 1_455 S
C1098 N1099 1.279 . S
C1098 H1139 0.930 . S
N1099 C1097 1.360 . S
N1099 C1098 1.279 . S
C1100 C1102 1.353 . S
C1100 N1103 1.314 . S
C1100 H1106 0.930 . S
C1101 N1103 1.279 . S
C1101 C1104 1.358 . S
C1101 H1107 0.930 . S
C1102 C1100 1.353 . S
C1102 C1105 1.348 . S
C1102 H1140 0.929 . S
N1103 Li1058 1.990 . S
N1103 C1100 1.314 . S
N1103 C1101 1.279 . S
C1104 C1101 1.358 . S
C1104 C1105 1.356 . S
C1104 H1141 0.930 . S
C1105 C1102 1.348 . S
C1105 C1104 1.356 . S
H1106 C1100 0.930 . S
H1107 C1101 0.930 . S
C1108 N1109 1.314 . S
C1108 C1110 1.353 . S
C1108 H1114 0.930 . S
N1109 Li1059 1.990 . S
N1109 C1108 1.314 . S
N1109 C1112 1.279 . S
C1110 C1108 1.353 . S
C1110 C1113 1.348 1_554 S
C1110 H1142 0.929 . S
C1111 C1112 1.358 1_556 S
C1111 C1113 1.356 . S
C1111 H1143 0.930 . S
C1112 N1109 1.279 . S
C1112 C1111 1.358 1_554 S
C1112 H1115 0.930 . S
C1113 C1110 1.348 1_556 S
C1113 C1111 1.356 . S
H1114 C1108 0.930 . S
H1115 C1112 0.930 . S
O1116 Li1056 1.956 . S
O1116 Li1057 1.970 . S
O1116 Li1058 1.961 . S
O1116 C1060 1.325 . S
O1117 Li1056 1.970 . S
O1117 Li1057 1.956 . S
O1117 Li1059 1.961 . S
O1117 C1066 1.325 . S
O1118 Li1056 1.961 . S
O1118 Li1058 1.956 . S
O1118 Li1059 1.970 . S
O1118 C1088 1.325 . S
O1119 Li1057 1.961 . S
O1119 Li1058 1.970 . S
O1119 Li1059 1.956 . S
O1119 C1094 1.325 . S
H1120 C1062 0.933 1_455 S
H1121 C1063 0.930 . S
H1122 C1064 0.930 . S
H1123 C1065 0.930 . S
H1124 C1067 0.930 . S
H1125 C1069 0.929 . S
H1126 C1070 0.930 . S
H1127 C1071 0.930 . S
H1128 C1074 0.930 . S
H1129 C1077 0.929 . S
H1130 C1082 0.929 . S
H1131 C1083 0.930 . S
H1132 C1090 0.929 . S
H1133 C1091 0.930 . S
H1134 C1092 0.930 . S
H1135 C1093 0.930 . S
H1136 C1095 0.929 . S
H1137 C1096 0.934 . S
H1138 C1097 0.936 . S
H1139 C1098 0.930 . S
H1140 C1102 0.929 . S
H1141 C1104 0.930 . S
H1142 C1110 0.929 . S
H1143 C1111 0.930 . S
Li1144 N1161 1.990 1_565 S
Li1144 O1204 1.956 . S
Li1144 O1205 1.970 . S
Li1144 O1206 1.961 . S
Li1145 N1169 1.990 . S
Li1145 O1204 1.970 . S
Li1145 O1205 1.956 . S
Li1145 O1207 1.961 . S
Li1146 N1191 1.990 . S
Li1146 O1204 1.961 . S
Li1146 O1206 1.956 . S
Li1146 O1207 1.970 . S
Li1147 N1197 1.990 . S
Li1147 O1205 1.961 . S
Li1147 O1206 1.970 . S
Li1147 O1207 1.956 . S
C1148 C1150 1.348 . S
C1148 C1151 1.356 . S
C1148 O1204 1.325 . S
N1149 C1152 1.314 . S
N1149 C1153 1.279 . S
C1150 C1148 1.348 . S
C1150 C1152 1.353 . S
C1150 H1208 0.929 . S
C1151 C1148 1.356 . S
C1151 C1153 1.358 . S
C1151 H1209 0.930 . S
C1152 N1149 1.314 . S
C1152 C1150 1.353 . S
C1152 H1210 0.930 . S
C1153 N1149 1.279 . S
C1153 C1151 1.358 . S
C1153 H1211 0.930 . S
C1154 C1157 1.348 . S
C1154 C1158 1.356 . S
C1154 O1205 1.325 . S
C1155 N1156 1.279 . S
C1155 C1158 1.358 . S
C1155 H1212 0.930 . S
N1156 C1155 1.279 . S
N1156 C1159 1.314 1_565 S
C1157 C1154 1.348 . S
C1157 C1159 1.353 1_565 S
C1157 H1213 0.933 1_565 S
C1158 C1154 1.356 . S
C1158 C1155 1.358 . S
C1158 H1214 0.930 . S
C1159 N1156 1.314 1_545 S
C1159 C1157 1.353 1_545 S
C1159 H1215 0.930 . S
C1160 N1161 1.314 . S
C1160 C1165 1.353 . S
C1160 H1166 0.930 . S
N1161 Li1144 1.990 1_545 S
N1161 C1160 1.314 . S
N1161 C1163 1.279 . S
C1162 C1163 1.358 . S
C1162 C1164 1.356 . S
C1162 H1216 0.930 . S
C1163 N1161 1.279 . S
C1163 C1162 1.358 . S
C1163 H1167 0.935 1_545 S
C1164 C1162 1.356 . S
C1164 C1165 1.348 . S
C1165 C1160 1.353 . S
C1165 C1164 1.348 . S
C1165 H1217 0.929 . S
H1166 C1160 0.930 . S
H1167 C1163 0.935 1_565 S
C1168 N1169 1.314 . S
C1168 C1170 1.353 . S
C1168 H1174 0.930 . S
N1169 Li1145 1.990 . S
N1169 C1168 1.314 . S
N1169 C1172 1.279 . S
C1170 C1168 1.353 . S
C1170 C1173 1.348 . S
C1170 H1218 0.929 . S
C1171 C1172 1.358 . S
C1171 C1173 1.356 . S
C1171 H1219 0.930 . S
C1172 N1169 1.279 . S
C1172 C1171 1.358 . S
C1172 H1175 0.930 . S
C1173 C1170 1.348 . S
C1173 C1171 1.356 . S
H1174 C1168 0.930 . S
H1175 C1172 0.930 . S
C1176 C1178 1.348 . S
C1176 C1179 1.387 . S
C1176 O1206 1.325 . S
N1177 C1180 1.360 . S
N1177 C1181 1.279 . S
C1178 C1176 1.348 . S
C1178 C1180 1.308 1_565 S
C1178 H1220 0.929 . S
C1179 C1176 1.387 . S
C1179 C1181 1.327 1_565 S
C1179 H1221 0.934 . S
C1180 N1177 1.360 . S
C1180 C1178 1.308 1_545 S
C1180 H1222 0.936 . S
C1181 N1177 1.279 . S
C1181 C1179 1.327 1_545 S
C1181 H1223 0.930 . S
C1182 C1183 1.348 . S
C1182 C1184 1.356 . S
C1182 O1207 1.325 . S
C1183 C1182 1.348 . S
C1183 C1185 1.353 . S
C1183 H1224 0.929 . S
C1184 C1182 1.356 . S
C1184 C1186 1.358 . S
C1184 H1225 0.930 . S
C1185 C1183 1.353 . S
C1185 N1187 1.314 . S
C1185 H1226 0.930 . S
C1186 C1184 1.358 . S
C1186 N1187 1.279 . S
C1186 H1227 0.930 . S
N1187 C1185 1.314 . S
N1187 C1186 1.279 . S
C1188 C1190 1.353 . S
C1188 N1191 1.314 . S
C1188 H1194 0.930 . S
C1189 N1191 1.279 . S
C1189 C1192 1.358 . S
C1189 H1195 0.930 . S
C1190 C1188 1.353 . S
C1190 C1193 1.348 . S
C1190 H1228 0.929 . S
N1191 Li1146 1.990 . S
N1191 C1188 1.314 . S
N1191 C1189 1.279 . S
C1192 C1189 1.358 . S
C1192 C1193 1.356 . S
C1192 H1229 0.930 . S
C1193 C1190 1.348 . S
C1193 C1192 1.356 . S
H1194 C1188 0.930 . S
H1195 C1189 0.930 . S
C1196 N1197 1.314 . S
C1196 C1198 1.353 . S
C1196 H1202 0.930 . S
N1197 Li1147 1.990 . S
N1197 C1196 1.314 . S
N1197 C1200 1.279 . S
C1198 C1196 1.353 . S
C1198 C1201 1.348 . S
C1198 H1230 0.929 . S
C1199 C1200 1.358 . S
C1199 C1201 1.356 . S
C1199 H1231 0.930 . S
C1200 N1197 1.279 . S
C1200 C1199 1.358 . S
C1200 H1203 0.930 . S
C1201 C1198 1.348 . S
C1201 C1199 1.356 . S
H1202 C1196 0.930 . S
H1203 C1200 0.930 . S
O1204 Li1144 1.956 . S
O1204 Li1145 1.970 . S
O1204 Li1146 1.961 . S
O1204 C1148 1.325 . S
O1205 Li1144 1.970 . S
O1205 Li1145 1.956 . S
O1205 Li1147 1.961 . S
O1205 C1154 1.325 . S
O1206 Li1144 1.961 . S
O1206 Li1146 1.956 . S
O1206 Li1147 1.970 . S
O1206 C1176 1.325 . S
O1207 Li1145 1.961 . S
O1207 Li1146 1.970 . S
O1207 Li1147 1.956 . S
O1207 C1182 1.325 . S
H1208 C1150 0.929 . S
H1209 C1151 0.930 . S
H1210 C1152 0.930 . S
H1211 C1153 0.930 . S
H1212 C1155 0.930 . S
H1213 C1157 0.933 1_545 S
H1214 C1158 0.930 . S
H1215 C1159 0.930 . S
H1216 C1162 0.930 . S
H1217 C1165 0.929 . S
H1218 C1170 0.929 . S
H1219 C1171 0.930 . S
H1220 C1178 0.929 . S
H1221 C1179 0.934 . S
H1222 C1180 0.936 . S
H1223 C1181 0.930 . S
H1224 C1183 0.929 . S
H1225 C1184 0.930 . S
H1226 C1185 0.930 . S
H1227 C1186 0.930 . S
H1228 C1190 0.929 . S
H1229 C1192 0.930 . S
H1230 C1198 0.929 . S
H1231 C1199 0.930 . S
Li1232 N1249 1.990 . S
Li1232 O1292 1.956 . S
Li1232 O1293 1.970 . S
Li1232 O1294 1.961 . S
Li1233 N1257 1.990 . S
Li1233 O1292 1.970 . S
Li1233 O1293 1.956 . S
Li1233 O1295 1.961 . S
Li1234 N1279 1.990 . S
Li1234 O1292 1.961 . S
Li1234 O1294 1.956 . S
Li1234 O1295 1.970 . S
Li1235 N1285 1.990 . S
Li1235 O1293 1.961 . S
Li1235 O1294 1.970 . S
Li1235 O1295 1.956 . S
C1236 C1238 1.348 . S
C1236 C1239 1.356 . S
C1236 O1292 1.325 . S
N1237 C1240 1.314 . S
N1237 C1241 1.279 . S
C1238 C1236 1.348 . S
C1238 C1240 1.353 . S
C1238 H1296 0.929 . S
C1239 C1236 1.356 . S
C1239 C1241 1.358 . S
C1239 H1297 0.930 . S
C1240 N1237 1.314 . S
C1240 C1238 1.353 . S
C1240 H1298 0.930 . S
C1241 N1237 1.279 . S
C1241 C1239 1.358 . S
C1241 H1299 0.930 . S
C1242 C1245 1.348 . S
C1242 C1246 1.356 . S
C1242 O1293 1.325 . S
C1243 N1244 1.279 . S
C1243 C1246 1.358 . S
C1243 H1300 0.930 . S
N1244 C1243 1.279 . S
N1244 C1247 1.314 . S
C1245 C1242 1.348 . S
C1245 C1247 1.353 . S
C1245 H1301 0.929 . S
C1246 C1242 1.356 . S
C1246 C1243 1.358 . S
C1246 H1302 0.930 . S
C1247 N1244 1.314 . S
C1247 C1245 1.353 . S
C1247 H1303 0.930 . S
C1248 N1249 1.314 . S
C1248 C1253 1.353 . S
C1248 H1254 0.930 . S
N1249 Li1232 1.990 . S
N1249 C1248 1.314 . S
N1249 C1251 1.279 . S
C1250 C1251 1.358 . S
C1250 C1252 1.356 . S
C1250 H1304 0.930 . S
C1251 N1249 1.279 . S
C1251 C1250 1.358 . S
C1251 H1255 0.930 . S
C1252 C1250 1.356 . S
C1252 C1253 1.348 . S
C1253 C1248 1.353 . S
C1253 C1252 1.348 . S
C1253 H1305 0.929 . S
H1254 C1248 0.930 . S
H1255 C1251 0.930 . S
C1256 N1257 1.314 . S
C1256 C1258 1.353 . S
C1256 H1262 0.930 . S
N1257 Li1233 1.990 . S
N1257 C1256 1.314 . S
N1257 C1260 1.279 . S
C1258 C1256 1.353 . S
C1258 C1261 1.348 . S
C1258 H1306 0.929 . S
C1259 C1260 1.358 . S
C1259 C1261 1.356 . S
C1259 H1307 0.930 . S
C1260 N1257 1.279 . S
C1260 C1259 1.358 . S
C1260 H1263 0.930 . S
C1261 C1258 1.348 . S
C1261 C1259 1.356 . S
H1262 C1256 0.930 . S
H1263 C1260 0.930 . S
C1264 C1266 1.348 . S
C1264 C1267 1.356 . S
C1264 O1294 1.325 . S
N1265 C1268 1.314 . S
N1265 C1269 1.279 . S
C1266 C1264 1.348 . S
C1266 C1268 1.353 . S
C1266 H1308 0.929 . S
C1267 C1264 1.356 . S
C1267 C1269 1.358 . S
C1267 H1309 0.930 . S
C1268 N1265 1.314 . S
C1268 C1266 1.353 . S
C1268 H1310 0.930 . S
C1269 N1265 1.279 . S
C1269 C1267 1.358 . S
C1269 H1311 0.930 . S
C1270 C1271 1.348 . S
C1270 C1272 1.356 . S
C1270 O1295 1.325 . S
C1271 C1270 1.348 . S
C1271 C1273 1.353 . S
C1271 H1312 0.929 . S
C1272 C1270 1.356 . S
C1272 C1274 1.358 . S
C1272 H1313 0.930 . S
C1273 C1271 1.353 . S
C1273 N1275 1.314 . S
C1273 H1314 0.930 . S
C1274 C1272 1.358 . S
C1274 N1275 1.279 . S
C1274 H1315 0.930 . S
N1275 C1273 1.314 . S
N1275 C1274 1.279 . S
C1276 C1278 1.353 . S
C1276 N1279 1.314 . S
C1276 H1282 0.930 . S
C1277 N1279 1.279 . S
C1277 C1280 1.358 1_554 S
C1277 H1283 0.930 . S
C1278 C1276 1.353 . S
C1278 C1281 1.348 1_554 S
C1278 H1316 0.929 . S
N1279 Li1234 1.990 . S
N1279 C1276 1.314 . S
N1279 C1277 1.279 . S
C1280 C1277 1.358 1_556 S
C1280 C1281 1.356 . S
C1280 H1317 0.930 . S
C1281 C1278 1.348 1_556 S
C1281 C1280 1.356 . S
H1282 C1276 0.930 . S
H1283 C1277 0.930 . S
C1284 N1285 1.314 . S
C1284 C1286 1.353 . S
C1284 H1290 0.930 . S
N1285 Li1235 1.990 . S
N1285 C1284 1.314 . S
N1285 C1288 1.279 . S
C1286 C1284 1.353 . S
C1286 C1289 1.348 . S
C1286 H1318 0.929 . S
C1287 C1288 1.358 . S
C1287 C1289 1.356 . S
C1287 H1319 0.930 . S
C1288 N1285 1.279 . S
C1288 C1287 1.358 . S
C1288 H1291 0.930 . S
C1289 C1286 1.348 . S
C1289 C1287 1.356 . S
H1290 C1284 0.930 . S
H1291 C1288 0.930 . S
O1292 Li1232 1.956 . S
O1292 Li1233 1.970 . S
O1292 Li1234 1.961 . S
O1292 C1236 1.325 . S
O1293 Li1232 1.970 . S
O1293 Li1233 1.956 . S
O1293 Li1235 1.961 . S
O1293 C1242 1.325 . S
O1294 Li1232 1.961 . S
O1294 Li1234 1.956 . S
O1294 Li1235 1.970 . S
O1294 C1264 1.325 . S
O1295 Li1233 1.961 . S
O1295 Li1234 1.970 . S
O1295 Li1235 1.956 . S
O1295 C1270 1.325 . S
H1296 C1238 0.929 . S
H1297 C1239 0.930 . S
H1298 C1240 0.930 . S
H1299 C1241 0.930 . S
H1300 C1243 0.930 . S
H1301 C1245 0.929 . S
H1302 C1246 0.930 . S
H1303 C1247 0.930 . S
H1304 C1250 0.930 . S
H1305 C1253 0.929 . S
H1306 C1258 0.929 . S
H1307 C1259 0.930 . S
H1308 C1266 0.929 . S
H1309 C1267 0.930 . S
H1310 C1268 0.930 . S
H1311 C1269 0.930 . S
H1312 C1271 0.929 . S
H1313 C1272 0.930 . S
H1314 C1273 0.930 . S
H1315 C1274 0.930 . S
H1316 C1278 0.929 . S
H1317 C1280 0.930 . S
H1318 C1286 0.929 . S
H1319 C1287 0.930 . S
Li1320 N1337 1.990 . S
Li1320 O1380 1.956 . S
Li1320 O1381 1.970 . S
Li1320 O1382 1.961 . S
Li1321 N1345 1.990 . S
Li1321 O1380 1.970 . S
Li1321 O1381 1.956 . S
Li1321 O1383 1.961 . S
Li1322 N1367 1.990 . S
Li1322 O1380 1.961 . S
Li1322 O1382 1.956 . S
Li1322 O1383 1.970 . S
Li1323 N1373 1.990 . S
Li1323 O1381 1.961 . S
Li1323 O1382 1.970 . S
Li1323 O1383 1.956 . S
C1324 C1326 1.348 . S
C1324 C1327 1.356 . S
C1324 O1380 1.325 . S
N1325 C1328 1.314 . S
N1325 C1329 1.279 . S
C1326 C1324 1.348 . S
C1326 C1328 1.353 . S
C1326 H1384 0.929 . S
C1327 C1324 1.356 . S
C1327 C1329 1.358 . S
C1327 H1385 0.930 . S
C1328 N1325 1.314 . S
C1328 C1326 1.353 . S
C1328 H1386 0.930 . S
C1329 N1325 1.279 . S
C1329 C1327 1.358 . S
C1329 H1387 0.930 . S
C1330 C1333 1.348 . S
C1330 C1334 1.356 . S
C1330 O1381 1.325 . S
C1331 N1332 1.279 . S
C1331 C1334 1.358 . S
C1331 H1388 0.930 . S
N1332 C1331 1.279 . S
N1332 C1335 1.314 . S
C1333 C1330 1.348 . S
C1333 C1335 1.353 . S
C1333 H1389 0.929 . S
C1334 C1330 1.356 . S
C1334 C1331 1.358 . S
C1334 H1390 0.930 . S
C1335 N1332 1.314 . S
C1335 C1333 1.353 . S
C1335 H1391 0.930 . S
C1336 N1337 1.314 . S
C1336 C1341 1.353 . S
C1336 H1342 0.930 . S
N1337 Li1320 1.990 . S
N1337 C1336 1.314 . S
N1337 C1339 1.279 . S
C1338 C1339 1.358 . S
C1338 C1340 1.356 . S
C1338 H1392 0.930 . S
C1339 N1337 1.279 . S
C1339 C1338 1.358 . S
C1339 H1343 0.930 . S
C1340 C1338 1.356 . S
C1340 C1341 1.348 . S
C1341 C1336 1.353 . S
C1341 C1340 1.348 . S
C1341 H1393 0.929 . S
H1342 C1336 0.930 . S
H1343 C1339 0.930 . S
C1344 N1345 1.314 . S
C1344 C1346 1.353 . S
C1344 H1350 0.930 . S
N1345 Li1321 1.990 . S
N1345 C1344 1.314 . S
N1345 C1348 1.279 . S
C1346 C1344 1.353 . S
C1346 C1349 1.348 . S
C1346 H1394 0.929 . S
C1347 C1348 1.358 . S
C1347 C1349 1.356 . S
C1347 H1395 0.930 . S
C1348 N1345 1.279 . S
C1348 C1347 1.358 . S
C1348 H1351 0.930 . S
C1349 C1346 1.348 . S
C1349 C1347 1.356 . S
H1350 C1344 0.930 . S
H1351 C1348 0.930 . S
C1352 C1354 1.348 . S
C1352 C1355 1.356 . S
C1352 O1382 1.325 . S
N1353 C1356 1.314 . S
N1353 C1357 1.279 . S
C1354 C1352 1.348 . S
C1354 C1356 1.353 . S
C1354 H1396 0.929 . S
C1355 C1352 1.356 . S
C1355 C1357 1.358 . S
C1355 H1397 0.930 . S
C1356 N1353 1.314 . S
C1356 C1354 1.353 . S
C1356 H1398 0.930 . S
C1357 N1353 1.279 . S
C1357 C1355 1.358 . S
C1357 H1399 0.930 . S
C1358 C1359 1.348 . S
C1358 C1360 1.356 . S
C1358 O1383 1.325 . S
C1359 C1358 1.348 . S
C1359 C1361 1.353 . S
C1359 H1400 0.929 . S
C1360 C1358 1.356 . S
C1360 C1362 1.358 . S
C1360 H1401 0.930 . S
C1361 C1359 1.353 . S
C1361 N1363 1.314 . S
C1361 H1402 0.930 . S
C1362 C1360 1.358 . S
C1362 N1363 1.279 . S
C1362 H1403 0.930 . S
N1363 C1361 1.314 . S
N1363 C1362 1.279 . S
C1364 C1366 1.353 . S
C1364 N1367 1.314 . S
C1364 H1370 0.930 . S
C1365 N1367 1.279 . S
C1365 C1368 1.358 . S
C1365 H1371 0.930 . S
C1366 C1364 1.353 . S
C1366 C1369 1.348 . S
C1366 H1404 0.929 . S
N1367 Li1322 1.990 . S
N1367 C1364 1.314 . S
N1367 C1365 1.279 . S
C1368 C1365 1.358 . S
C1368 C1369 1.356 . S
C1368 H1405 0.930 . S
C1369 C1366 1.348 . S
C1369 C1368 1.356 . S
H1370 C1364 0.930 . S
H1371 C1365 0.930 . S
C1372 N1373 1.314 . S
C1372 C1374 1.353 . S
C1372 H1378 0.930 . S
N1373 Li1323 1.990 . S
N1373 C1372 1.314 . S
N1373 C1376 1.279 . S
C1374 C1372 1.353 . S
C1374 C1377 1.348 . S
C1374 H1406 0.929 . S
C1375 C1376 1.358 . S
C1375 C1377 1.356 . S
C1375 H1407 0.930 . S
C1376 N1373 1.279 . S
C1376 C1375 1.358 . S
C1376 H1379 0.930 . S
C1377 C1374 1.348 . S
C1377 C1375 1.356 . S
H1378 C1372 0.930 . S
H1379 C1376 0.930 . S
O1380 Li1320 1.956 . S
O1380 Li1321 1.970 . S
O1380 Li1322 1.961 . S
O1380 C1324 1.325 . S
O1381 Li1320 1.970 . S
O1381 Li1321 1.956 . S
O1381 Li1323 1.961 . S
O1381 C1330 1.325 . S
O1382 Li1320 1.961 . S
O1382 Li1322 1.956 . S
O1382 Li1323 1.970 . S
O1382 C1352 1.325 . S
O1383 Li1321 1.961 . S
O1383 Li1322 1.970 . S
O1383 Li1323 1.956 . S
O1383 C1358 1.325 . S
H1384 C1326 0.929 . S
H1385 C1327 0.930 . S
H1386 C1328 0.930 . S
H1387 C1329 0.930 . S
H1388 C1331 0.930 . S
H1389 C1333 0.929 . S
H1390 C1334 0.930 . S
H1391 C1335 0.930 . S
H1392 C1338 0.930 . S
H1393 C1341 0.929 . S
H1394 C1346 0.929 . S
H1395 C1347 0.930 . S
H1396 C1354 0.929 . S
H1397 C1355 0.930 . S
H1398 C1356 0.930 . S
H1399 C1357 0.930 . S
H1400 C1359 0.929 . S
H1401 C1360 0.930 . S
H1402 C1361 0.930 . S
H1403 C1362 0.930 . S
H1404 C1366 0.929 . S
H1405 C1368 0.930 . S
H1406 C1374 0.929 . S
H1407 C1375 0.930 . S
C1408 C1409 1.349 . S
C1408 C1410 1.327 . S
C1408 H1433 0.950 . S
C1409 C1408 1.349 . S
C1409 C1425 1.349 . S
C1410 C1408 1.327 . S
C1410 C1429 1.429 . S
C1410 H1434 0.950 . S
C1411 C1428 1.574 . S
C1411 C1430 1.368 1_556 S
C1411 H1435 0.949 . S
H1412 C1416 0.949 . S
C1413 C1414 1.349 . S
C1413 C1415 1.327 . S
C1413 H1436 0.950 . S
C1414 C1413 1.349 . S
C1414 C1426 1.349 . S
C1415 C1413 1.327 . S
C1415 C1431 1.429 . S
C1415 H1437 0.950 . S
C1416 H1412 0.949 . S
C1416 C1424 1.574 . S
C1416 C1432 1.368 1_554 S
H1417 C1425 0.950 . S
H1418 C1423 0.950 . S
H1419 C1424 0.949 . S
H1420 C1426 0.950 . S
H1421 C1427 0.950 . S
H1422 C1428 0.949 . S
C1423 H1418 0.950 . S
C1423 C1425 1.327 . S
C1423 C1429 1.429 . S
C1424 C1416 1.574 . S
C1424 H1419 0.949 . S
C1424 C1430 1.368 . S
C1425 C1409 1.349 . S
C1425 H1417 0.950 . S
C1425 C1423 1.327 . S
C1426 C1414 1.349 . S
C1426 H1420 0.950 . S
C1426 C1427 1.327 . S
C1427 H1421 0.950 . S
C1427 C1426 1.327 . S
C1427 C1431 1.429 . S
C1428 C1411 1.574 . S
C1428 H1422 0.949 . S
C1428 C1432 1.368 . S
C1429 C1410 1.429 . S
C1429 C1423 1.429 . S
C1429 C1430 1.523 . S
C1430 C1411 1.368 1_554 S
C1430 C1424 1.368 . S
C1430 C1429 1.523 . S
C1431 C1415 1.429 . S
C1431 C1427 1.429 . S
C1431 C1432 1.523 . S
C1432 C1416 1.368 1_556 S
C1432 C1428 1.368 . S
C1432 C1431 1.523 . S
H1433 C1408 0.950 . S
H1434 C1410 0.950 . S
H1435 C1411 0.949 . S
H1436 C1413 0.950 . S
H1437 C1415 0.950 . S
C1438 C1439 1.349 . S
C1438 C1440 1.327 . S
C1438 H1463 0.950 . S
C1439 C1438 1.349 . S
C1439 C1455 1.349 . S
C1440 C1438 1.327 . S
C1440 C1459 1.429 . S
C1440 H1464 0.950 . S
C1441 C1458 1.574 . S
C1441 C1460 1.368 . S
C1441 H1465 0.973 . S
H1442 C1446 0.949 . S
C1443 C1444 1.349 . S
C1443 C1445 1.327 . S
C1443 H1466 1.016 . S
C1444 C1443 1.349 . S
C1444 C1456 1.349 . S
C1445 C1443 1.327 . S
C1445 C1461 1.429 . S
C1445 H1467 0.984 . S
C1446 H1442 0.949 . S
C1446 C1454 1.574 . S
C1446 C1462 1.368 . S
H1447 C1455 1.014 . S
H1448 C1453 0.983 . S
H1449 C1454 0.949 . S
H1450 C1456 0.950 . S
H1451 C1457 0.950 . S
H1452 C1458 0.974 . S
C1453 H1448 0.983 . S
C1453 C1455 1.327 . S
C1453 C1459 1.429 . S
C1454 C1446 1.574 . S
C1454 H1449 0.949 . S
C1454 C1460 1.368 . S
C1455 C1439 1.349 . S
C1455 H1447 1.014 . S
C1455 C1453 1.327 . S
C1456 C1444 1.349 . S
C1456 H1450 0.950 . S
C1456 C1457 1.327 . S
C1457 H1451 0.950 . S
C1457 C1456 1.327 . S
C1457 C1461 1.429 . S
C1458 C1441 1.574 . S
C1458 H1452 0.974 . S
C1458 C1462 1.368 . S
C1459 C1440 1.429 . S
C1459 C1453 1.429 . S
C1459 C1460 1.523 . S
C1460 C1441 1.368 . S
C1460 C1454 1.368 . S
C1460 C1459 1.523 . S
C1461 C1445 1.429 . S
C1461 C1457 1.429 . S
C1461 C1462 1.523 . S
C1462 C1446 1.368 . S
C1462 C1458 1.368 . S
C1462 C1461 1.523 . S
H1463 C1438 0.950 . S
H1464 C1440 0.950 . S
H1465 C1441 0.973 . S
H1466 C1443 1.016 . S
H1467 C1445 0.984 . S
C1468 C1469 1.349 . S
C1468 C1470 1.327 . S
C1468 H1493 0.950 . S
C1469 C1468 1.349 . S
C1469 C1485 1.349 . S
C1470 C1468 1.327 . S
C1470 C1489 1.429 . S
C1470 H1494 0.950 . S
C1471 C1488 1.574 . S
C1471 C1490 1.368 1_556 S
C1471 H1495 0.949 . S
H1472 C1476 0.949 . S
C1473 C1474 1.349 . S
C1473 C1475 1.327 . S
C1473 H1496 0.950 . S
C1474 C1473 1.349 . S
C1474 C1486 1.349 . S
C1475 C1473 1.327 . S
C1475 C1491 1.429 . S
C1475 H1497 0.950 . S
C1476 H1472 0.949 . S
C1476 C1484 1.574 . S
C1476 C1492 1.368 1_554 S
H1477 C1485 0.950 . S
H1478 C1483 0.950 . S
H1479 C1484 0.949 . S
H1480 C1486 0.950 . S
H1481 C1487 0.950 . S
H1482 C1488 0.949 . S
C1483 H1478 0.950 . S
C1483 C1485 1.327 . S
C1483 C1489 1.429 . S
C1484 C1476 1.574 . S
C1484 H1479 0.949 . S
C1484 C1490 1.368 . S
C1485 C1469 1.349 . S
C1485 H1477 0.950 . S
C1485 C1483 1.327 . S
C1486 C1474 1.349 . S
C1486 H1480 0.950 . S
C1486 C1487 1.327 . S
C1487 H1481 0.950 . S
C1487 C1486 1.327 . S
C1487 C1491 1.429 . S
C1488 C1471 1.574 . S
C1488 H1482 0.949 . S
C1488 C1492 1.368 . S
C1489 C1470 1.429 . S
C1489 C1483 1.429 . S
C1489 C1490 1.523 . S
C1490 C1471 1.368 1_554 S
C1490 C1484 1.368 . S
C1490 C1489 1.523 . S
C1491 C1475 1.429 . S
C1491 C1487 1.429 . S
C1491 C1492 1.523 . S
C1492 C1476 1.368 1_556 S
C1492 C1488 1.368 . S
C1492 C1491 1.523 . S
H1493 C1468 0.950 . S
H1494 C1470 0.950 . S
H1495 C1471 0.949 . S
H1496 C1473 0.950 . S
H1497 C1475 0.950 . S
C1498 C1499 1.349 . S
C1498 C1500 1.327 . S
C1498 H1523 0.950 . S
C1499 C1498 1.349 . S
C1499 C1515 1.349 . S
C1500 C1498 1.327 . S
C1500 C1519 1.429 . S
C1500 H1524 0.950 . S
C1501 C1518 1.574 . S
C1501 C1520 1.368 . S
C1501 H1525 0.949 . S
H1502 C1506 0.949 . S
C1503 C1504 1.349 . S
C1503 C1505 1.327 . S
C1503 H1526 0.950 . S
C1504 C1503 1.349 . S
C1504 C1516 1.349 . S
C1505 C1503 1.327 . S
C1505 C1521 1.429 . S
C1505 H1527 0.950 . S
C1506 H1502 0.949 . S
C1506 C1514 1.574 . S
C1506 C1522 1.368 . S
H1507 C1515 0.950 . S
H1508 C1513 0.950 . S
H1509 C1514 0.949 . S
H1510 C1516 0.950 . S
H1511 C1517 0.950 . S
H1512 C1518 0.949 . S
C1513 H1508 0.950 . S
C1513 C1515 1.327 . S
C1513 C1519 1.429 . S
C1514 C1506 1.574 . S
C1514 H1509 0.949 . S
C1514 C1520 1.368 . S
C1515 C1499 1.349 . S
C1515 H1507 0.950 . S
C1515 C1513 1.327 . S
C1516 C1504 1.349 . S
C1516 H1510 0.950 . S
C1516 C1517 1.327 . S
C1517 H1511 0.950 . S
C1517 C1516 1.327 . S
C1517 C1521 1.429 . S
C1518 C1501 1.574 . S
C1518 H1512 0.949 . S
C1518 C1522 1.368 . S
C1519 C1500 1.429 . S
C1519 C1513 1.429 . S
C1519 C1520 1.523 . S
C1520 C1501 1.368 . S
C1520 C1514 1.368 . S
C1520 C1519 1.523 . S
C1521 C1505 1.429 . S
C1521 C1517 1.429 . S
C1521 C1522 1.523 . S
C1522 C1506 1.368 . S
C1522 C1518 1.368 . S
C1522 C1521 1.523 . S
H1523 C1498 0.950 . S
H1524 C1500 0.950 . S
H1525 C1501 0.949 . S
H1526 C1503 0.950 . S
H1527 C1505 0.950 . S
C1528 C1529 1.349 . S
C1528 C1530 1.327 . S
C1528 H1553 0.950 . S
C1529 C1528 1.349 . S
C1529 C1545 1.349 . S
C1530 C1528 1.327 . S
C1530 C1549 1.429 . S
C1530 H1554 0.950 . S
C1531 C1548 1.574 . S
C1531 C1550 1.368 . S
C1531 H1555 0.949 . S
H1532 C1536 0.949 . S
C1533 C1534 1.349 . S
C1533 C1535 1.327 . S
C1533 H1556 0.950 . S
C1534 C1533 1.349 . S
C1534 C1546 1.349 . S
C1535 C1533 1.327 . S
C1535 C1551 1.429 . S
C1535 H1557 0.950 . S
C1536 H1532 0.949 . S
C1536 C1544 1.574 . S
C1536 C1552 1.368 . S
H1537 C1545 0.950 . S
H1538 C1543 0.950 . S
H1539 C1544 0.949 . S
H1540 C1546 0.950 . S
H1541 C1547 0.950 . S
H1542 C1548 0.949 . S
C1543 H1538 0.950 . S
C1543 C1545 1.327 . S
C1543 C1549 1.429 . S
C1544 C1536 1.574 . S
C1544 H1539 0.949 . S
C1544 C1550 1.368 1_554 S
C1545 C1529 1.349 . S
C1545 H1537 0.950 . S
C1545 C1543 1.327 . S
C1546 C1534 1.349 . S
C1546 H1540 0.950 . S
C1546 C1547 1.327 . S
C1547 H1541 0.950 . S
C1547 C1546 1.327 . S
C1547 C1551 1.429 . S
C1548 C1531 1.574 . S
C1548 H1542 0.949 . S
C1548 C1552 1.368 1_556 S
C1549 C1530 1.429 . S
C1549 C1543 1.429 . S
C1549 C1550 1.523 . S
C1550 C1531 1.368 . S
C1550 C1544 1.368 1_556 S
C1550 C1549 1.523 . S
C1551 C1535 1.429 . S
C1551 C1547 1.429 . S
C1551 C1552 1.523 . S
C1552 C1536 1.368 . S
C1552 C1548 1.368 1_554 S
C1552 C1551 1.523 . S
H1553 C1528 0.950 . S
H1554 C1530 0.950 . S
H1555 C1531 0.949 . S
H1556 C1533 0.950 . S
H1557 C1535 0.950 . S
C1558 C1559 1.349 . S
C1558 C1560 1.327 . S
C1558 H1583 1.006 . S
C1559 C1558 1.349 . S
C1559 C1575 1.349 . S
C1560 C1558 1.327 . S
C1560 C1579 1.429 . S
C1560 H1584 0.975 . S
C1561 C1578 1.574 . S
C1561 C1580 1.368 . S
C1561 H1585 0.949 . S
H1562 C1566 0.965 . S
C1563 C1564 1.349 . S
C1563 C1565 1.327 . S
C1563 H1586 0.950 . S
C1564 C1563 1.349 . S
C1564 C1576 1.349 . S
C1565 C1563 1.327 . S
C1565 C1581 1.429 . S
C1565 H1587 0.950 . S
C1566 H1562 0.965 . S
C1566 C1574 1.574 . S
C1566 C1582 1.368 . S
H1567 C1575 0.950 . S
H1568 C1573 0.950 . S
H1569 C1574 0.965 . S
H1570 C1576 1.006 . S
H1571 C1577 0.975 . S
H1572 C1578 0.949 . S
C1573 H1568 0.950 . S
C1573 C1575 1.327 . S
C1573 C1579 1.429 . S
C1574 C1566 1.574 . S
C1574 H1569 0.965 . S
C1574 C1580 1.368 . S
C1575 C1559 1.349 . S
C1575 H1567 0.950 . S
C1575 C1573 1.327 . S
C1576 C1564 1.349 . S
C1576 H1570 1.006 . S
C1576 C1577 1.327 . S
C1577 H1571 0.975 . S
C1577 C1576 1.327 . S
C1577 C1581 1.429 . S
C1578 C1561 1.574 . S
C1578 H1572 0.949 . S
C1578 C1582 1.368 . S
C1579 C1560 1.429 . S
C1579 C1573 1.429 . S
C1579 C1580 1.523 . S
C1580 C1561 1.368 . S
C1580 C1574 1.368 . S
C1580 C1579 1.523 . S
C1581 C1565 1.429 . S
C1581 C1577 1.429 . S
C1581 C1582 1.523 . S
C1582 C1566 1.368 . S
C1582 C1578 1.368 . S
C1582 C1581 1.523 . S
H1583 C1558 1.006 . S
H1584 C1560 0.975 . S
H1585 C1561 0.949 . S
H1586 C1563 0.950 . S
H1587 C1565 0.950 . S
C1588 C1589 1.349 . S
C1588 C1590 1.327 . S
C1588 H1613 0.950 . S
C1589 C1588 1.349 . S
C1589 C1605 1.349 . S
C1590 C1588 1.327 . S
C1590 C1609 1.429 . S
C1590 H1614 0.950 . S
C1591 C1608 1.574 . S
C1591 C1610 1.368 1_554 S
C1591 H1615 0.949 . S
H1592 C1596 0.949 . S
C1593 C1594 1.349 . S
C1593 C1595 1.327 . S
C1593 H1616 0.950 . S
C1594 C1593 1.349 . S
C1594 C1606 1.349 . S
C1595 C1593 1.327 . S
C1595 C1611 1.429 . S
C1595 H1617 0.950 . S
C1596 H1592 0.949 . S
C1596 C1604 1.574 . S
C1596 C1612 1.368 1_556 S
H1597 C1605 0.950 . S
H1598 C1603 0.950 . S
H1599 C1604 0.949 . S
H1600 C1606 0.950 . S
H1601 C1607 0.950 . S
H1602 C1608 0.949 . S
C1603 H1598 0.950 . S
C1603 C1605 1.327 . S
C1603 C1609 1.429 . S
C1604 C1596 1.574 . S
C1604 H1599 0.949 . S
C1604 C1610 1.368 . S
C1605 C1589 1.349 . S
C1605 H1597 0.950 . S
C1605 C1603 1.327 . S
C1606 C1594 1.349 . S
C1606 H1600 0.950 . S
C1606 C1607 1.327 . S
C1607 H1601 0.950 . S
C1607 C1606 1.327 . S
C1607 C1611 1.429 . S
C1608 C1591 1.574 . S
C1608 H1602 0.949 . S
C1608 C1612 1.368 . S
C1609 C1590 1.429 . S
C1609 C1603 1.429 . S
C1609 C1610 1.523 . S
C1610 C1591 1.368 1_556 S
C1610 C1604 1.368 . S
C1610 C1609 1.523 . S
C1611 C1595 1.429 . S
C1611 C1607 1.429 . S
C1611 C1612 1.523 . S
C1612 C1596 1.368 1_554 S
C1612 C1608 1.368 . S
C1612 C1611 1.523 . S
H1613 C1588 0.950 . S
H1614 C1590 0.950 . S
H1615 C1591 0.949 . S
H1616 C1593 0.950 . S
H1617 C1595 0.950 . S
C1618 C1619 1.349 . S
C1618 C1620 1.327 . S
C1618 H1643 0.950 . S
C1619 C1618 1.349 . S
C1619 C1635 1.349 . S
C1620 C1618 1.327 . S
C1620 C1639 1.429 . S
C1620 H1644 0.950 . S
C1621 C1638 1.574 . S
C1621 C1640 1.368 . S
C1621 H1645 0.949 . S
H1622 C1626 0.949 . S
C1623 C1624 1.349 . S
C1623 C1625 1.327 . S
C1623 H1646 0.950 . S
C1624 C1623 1.349 . S
C1624 C1636 1.349 . S
C1625 C1623 1.327 . S
C1625 C1641 1.429 . S
C1625 H1647 0.950 . S
C1626 H1622 0.949 . S
C1626 C1634 1.574 . S
C1626 C1642 1.368 . S
H1627 C1635 0.950 . S
H1628 C1633 0.950 . S
H1629 C1634 0.949 . S
H1630 C1636 0.950 . S
H1631 C1637 0.950 . S
H1632 C1638 0.949 . S
C1633 H1628 0.950 . S
C1633 C1635 1.327 . S
C1633 C1639 1.429 . S
C1634 C1626 1.574 . S
C1634 H1629 0.949 . S
C1634 C1640 1.368 . S
C1635 C1619 1.349 . S
C1635 H1627 0.950 . S
C1635 C1633 1.327 . S
C1636 C1624 1.349 . S
C1636 H1630 0.950 . S
C1636 C1637 1.327 . S
C1637 H1631 0.950 . S
C1637 C1636 1.327 . S
C1637 C1641 1.429 . S
C1638 C1621 1.574 . S
C1638 H1632 0.949 . S
C1638 C1642 1.368 . S
C1639 C1620 1.429 . S
C1639 C1633 1.429 . S
C1639 C1640 1.523 . S
C1640 C1621 1.368 . S
C1640 C1634 1.368 . S
C1640 C1639 1.523 . S
C1641 C1625 1.429 . S
C1641 C1637 1.429 . S
C1641 C1642 1.523 . S
C1642 C1626 1.368 . S
C1642 C1638 1.368 . S
C1642 C1641 1.523 . S
H1643 C1618 0.950 . S
H1644 C1620 0.950 . S
H1645 C1621 0.949 . S
H1646 C1623 0.950 . S
H1647 C1625 0.950 . S
C1648 C1649 1.349 . S
C1648 C1650 1.327 . S
C1648 H1673 0.950 . S
C1649 C1648 1.349 . S
C1649 C1665 1.349 . S
C1650 C1648 1.327 . S
C1650 C1669 1.429 . S
C1650 H1674 0.950 . S
C1651 C1668 1.574 . S
C1651 C1670 1.368 . S
C1651 H1675 0.949 . S
H1652 C1656 0.949 . S
C1653 C1654 1.349 . S
C1653 C1655 1.327 . S
C1653 H1676 0.950 . S
C1654 C1653 1.349 . S
C1654 C1666 1.349 . S
C1655 C1653 1.327 . S
C1655 C1671 1.429 . S
C1655 H1677 0.950 . S
C1656 H1652 0.949 . S
C1656 C1664 1.574 . S
C1656 C1672 1.368 . S
H1657 C1665 0.950 . S
H1658 C1663 0.950 . S
H1659 C1664 0.949 . S
H1660 C1666 0.950 . S
H1661 C1667 0.950 . S
H1662 C1668 0.949 . S
C1663 H1658 0.950 . S
C1663 C1665 1.327 . S
C1663 C1669 1.429 . S
C1664 C1656 1.574 . S
C1664 H1659 0.949 . S
C1664 C1670 1.368 . S
C1665 C1649 1.349 . S
C1665 H1657 0.950 . S
C1665 C1663 1.327 . S
C1666 C1654 1.349 . S
C1666 H1660 0.950 . S
C1666 C1667 1.327 . S
C1667 H1661 0.950 . S
C1667 C1666 1.327 . S
C1667 C1671 1.429 . S
C1668 C1651 1.574 . S
C1668 H1662 0.949 . S
C1668 C1672 1.368 . S
C1669 C1650 1.429 . S
C1669 C1663 1.429 . S
C1669 C1670 1.523 . S
C1670 C1651 1.368 . S
C1670 C1664 1.368 . S
C1670 C1669 1.523 . S
C1671 C1655 1.429 . S
C1671 C1667 1.429 . S
C1671 C1672 1.523 . S
C1672 C1656 1.368 . S
C1672 C1668 1.368 . S
C1672 C1671 1.523 . S
H1673 C1648 0.950 . S
H1674 C1650 0.950 . S
H1675 C1651 0.949 . S
H1676 C1653 0.950 . S
H1677 C1655 0.950 . S
C1678 C1679 1.349 . S
C1678 C1680 1.327 . S
C1678 H1703 0.950 . S
C1679 C1678 1.349 . S
C1679 C1695 1.349 . S
C1680 C1678 1.327 . S
C1680 C1699 1.429 . S
C1680 H1704 0.950 . S
C1681 C1698 1.574 . S
C1681 C1700 1.368 . S
C1681 H1705 0.949 . S
H1682 C1686 0.949 . S
C1683 C1684 1.349 . S
C1683 C1685 1.327 . S
C1683 H1706 0.950 . S
C1684 C1683 1.349 . S
C1684 C1696 1.349 . S
C1685 C1683 1.327 . S
C1685 C1701 1.429 . S
C1685 H1707 0.950 . S
C1686 H1682 0.949 . S
C1686 C1694 1.574 . S
C1686 C1702 1.368 . S
H1687 C1695 0.950 . S
H1688 C1693 0.950 . S
H1689 C1694 0.949 . S
H1690 C1696 0.950 . S
H1691 C1697 0.950 . S
H1692 C1698 0.949 . S
C1693 H1688 0.950 . S
C1693 C1695 1.327 . S
C1693 C1699 1.429 . S
C1694 C1686 1.574 . S
C1694 H1689 0.949 . S
C1694 C1700 1.368 . S
C1695 C1679 1.349 . S
C1695 H1687 0.950 . S
C1695 C1693 1.327 . S
C1696 C1684 1.349 . S
C1696 H1690 0.950 . S
C1696 C1697 1.327 . S
C1697 H1691 0.950 . S
C1697 C1696 1.327 . S
C1697 C1701 1.429 . S
C1698 C1681 1.574 . S
C1698 H1692 0.949 . S
C1698 C1702 1.368 . S
C1699 C1680 1.429 . S
C1699 C1693 1.429 . S
C1699 C1700 1.523 . S
C1700 C1681 1.368 . S
C1700 C1694 1.368 . S
C1700 C1699 1.523 . S
C1701 C1685 1.429 . S
C1701 C1697 1.429 . S
C1701 C1702 1.523 . S
C1702 C1686 1.368 . S
C1702 C1698 1.368 . S
C1702 C1701 1.523 . S
H1703 C1678 0.950 . S
H1704 C1680 0.950 . S
H1705 C1681 0.949 . S
H1706 C1683 0.950 . S
H1707 C1685 0.950 . S
C1708 C1709 1.349 . S
C1708 C1710 1.327 . S
C1708 H1733 0.950 . S
C1709 C1708 1.349 . S
C1709 C1725 1.349 . S
C1710 C1708 1.327 . S
C1710 C1729 1.429 . S
C1710 H1734 0.950 . S
C1711 C1728 1.574 . S
C1711 C1730 1.368 . S
C1711 H1735 0.949 . S
H1712 C1716 0.949 . S
C1713 C1714 1.349 . S
C1713 C1715 1.327 . S
C1713 H1736 0.950 . S
C1714 C1713 1.349 . S
C1714 C1726 1.349 . S
C1715 C1713 1.327 . S
C1715 C1731 1.429 . S
C1715 H1737 0.950 . S
C1716 H1712 0.949 . S
C1716 C1724 1.574 . S
C1716 C1732 1.368 . S
H1717 C1725 0.950 . S
H1718 C1723 0.950 . S
H1719 C1724 0.949 . S
H1720 C1726 0.950 . S
H1721 C1727 0.950 . S
H1722 C1728 0.949 . S
C1723 H1718 0.950 . S
C1723 C1725 1.327 . S
C1723 C1729 1.429 . S
C1724 C1716 1.574 . S
C1724 H1719 0.949 . S
C1724 C1730 1.368 . S
C1725 C1709 1.349 . S
C1725 H1717 0.950 . S
C1725 C1723 1.327 . S
C1726 C1714 1.349 . S
C1726 H1720 0.950 . S
C1726 C1727 1.327 . S
C1727 H1721 0.950 . S
C1727 C1726 1.327 . S
C1727 C1731 1.429 . S
C1728 C1711 1.574 . S
C1728 H1722 0.949 . S
C1728 C1732 1.368 . S
C1729 C1710 1.429 . S
C1729 C1723 1.429 . S
C1729 C1730 1.523 . S
C1730 C1711 1.368 . S
C1730 C1724 1.368 . S
C1730 C1729 1.523 . S
C1731 C1715 1.429 . S
C1731 C1727 1.429 . S
C1731 C1732 1.523 . S
C1732 C1716 1.368 . S
C1732 C1728 1.368 . S
C1732 C1731 1.523 . S
H1733 C1708 0.950 . S
H1734 C1710 0.950 . S
H1735 C1711 0.949 . S
H1736 C1713 0.950 . S
H1737 C1715 0.950 . S
C1738 C1739 1.349 . S
C1738 C1740 1.327 . S
C1738 H1763 0.950 . S
C1739 C1738 1.349 . S
C1739 C1755 1.349 . S
C1740 C1738 1.327 . S
C1740 C1759 1.429 . S
C1740 H1764 0.950 . S
C1741 C1758 1.574 . S
C1741 C1760 1.368 . S
C1741 H1765 0.949 . S
H1742 C1746 0.949 . S
C1743 C1744 1.349 . S
C1743 C1745 1.327 . S
C1743 H1766 0.950 . S
C1744 C1743 1.349 . S
C1744 C1756 1.349 . S
C1745 C1743 1.327 . S
C1745 C1761 1.429 . S
C1745 H1767 0.950 . S
C1746 H1742 0.949 . S
C1746 C1754 1.574 . S
C1746 C1762 1.368 . S
H1747 C1755 0.950 . S
H1748 C1753 0.950 . S
H1749 C1754 0.949 . S
H1750 C1756 0.950 . S
H1751 C1757 0.950 . S
H1752 C1758 0.949 . S
C1753 H1748 0.950 . S
C1753 C1755 1.327 . S
C1753 C1759 1.429 . S
C1754 C1746 1.574 . S
C1754 H1749 0.949 . S
C1754 C1760 1.368 . S
C1755 C1739 1.349 . S
C1755 H1747 0.950 . S
C1755 C1753 1.327 . S
C1756 C1744 1.349 . S
C1756 H1750 0.950 . S
C1756 C1757 1.327 . S
C1757 H1751 0.950 . S
C1757 C1756 1.327 . S
C1757 C1761 1.429 . S
C1758 C1741 1.574 . S
C1758 H1752 0.949 . S
C1758 C1762 1.368 . S
C1759 C1740 1.429 . S
C1759 C1753 1.429 . S
C1759 C1760 1.523 . S
C1760 C1741 1.368 . S
C1760 C1754 1.368 . S
C1760 C1759 1.523 . S
C1761 C1745 1.429 . S
C1761 C1757 1.429 . S
C1761 C1762 1.523 . S
C1762 C1746 1.368 . S
C1762 C1758 1.368 . S
C1762 C1761 1.523 . S
H1763 C1738 0.950 . S
H1764 C1740 0.950 . S
H1765 C1741 0.949 . S
H1766 C1743 0.950 . S
H1767 C1745 0.950 . S
C1768 C1769 1.349 . S
C1768 C1770 1.327 . S
C1768 H1793 0.950 . S
C1769 C1768 1.349 . S
C1769 C1785 1.349 . S
C1770 C1768 1.327 . S
C1770 C1789 1.429 . S
C1770 H1794 0.950 . S
C1771 C1788 1.574 . S
C1771 C1790 1.368 . S
C1771 H1795 0.949 . S
H1772 C1776 0.949 . S
C1773 C1774 1.349 . S
C1773 C1775 1.327 . S
C1773 H1796 0.950 . S
C1774 C1773 1.349 . S
C1774 C1786 1.349 . S
C1775 C1773 1.327 . S
C1775 C1791 1.429 . S
C1775 H1797 0.950 . S
C1776 H1772 0.949 . S
C1776 C1784 1.574 . S
C1776 C1792 1.368 . S
H1777 C1785 0.950 . S
H1778 C1783 0.950 . S
H1779 C1784 0.949 . S
H1780 C1786 0.950 1_556 S
H1781 C1787 0.950 . S
H1782 C1788 0.949 . S
C1783 H1778 0.950 . S
C1783 C1785 1.327 . S
C1783 C1789 1.429 . S
C1784 C1776 1.574 . S
C1784 H1779 0.949 . S
C1784 C1790 1.368 . S
C1785 C1769 1.349 . S
C1785 H1777 0.950 . S
C1785 C1783 1.327 . S
C1786 C1774 1.349 . S
C1786 H1780 0.950 1_554 S
C1786 C1787 1.327 . S
C1787 H1781 0.950 . S
C1787 C1786 1.327 . S
C1787 C1791 1.429 . S
C1788 C1771 1.574 . S
C1788 H1782 0.949 . S
C1788 C1792 1.368 . S
C1789 C1770 1.429 . S
C1789 C1783 1.429 . S
C1789 C1790 1.523 . S
C1790 C1771 1.368 . S
C1790 C1784 1.368 . S
C1790 C1789 1.523 . S
C1791 C1775 1.429 . S
C1791 C1787 1.429 . S
C1791 C1792 1.523 . S
C1792 C1776 1.368 . S
C1792 C1788 1.368 . S
C1792 C1791 1.523 . S
H1793 C1768 0.950 . S
H1794 C1770 0.950 . S
H1795 C1771 0.949 . S
H1796 C1773 0.950 . S
H1797 C1775 0.950 . S
C1798 C1799 1.349 . S
C1798 C1800 1.327 . S
C1798 H1823 0.950 . S
C1799 C1798 1.349 . S
C1799 C1815 1.349 . S
C1800 C1798 1.327 . S
C1800 C1819 1.429 . S
C1800 H1824 0.950 . S
C1801 C1818 1.574 . S
C1801 C1820 1.368 . S
C1801 H1825 0.949 . S
H1802 C1806 0.949 . S
C1803 C1804 1.349 . S
C1803 C1805 1.327 . S
C1803 H1826 0.950 . S
C1804 C1803 1.349 . S
C1804 C1816 1.349 . S
C1805 C1803 1.327 . S
C1805 C1821 1.429 . S
C1805 H1827 0.950 . S
C1806 H1802 0.949 . S
C1806 C1814 1.574 . S
C1806 C1822 1.368 . S
H1807 C1815 0.950 . S
H1808 C1813 0.950 . S
H1809 C1814 0.949 . S
H1810 C1816 0.950 . S
H1811 C1817 0.950 . S
H1812 C1818 0.949 . S
C1813 H1808 0.950 . S
C1813 C1815 1.327 . S
C1813 C1819 1.429 . S
C1814 C1806 1.574 . S
C1814 H1809 0.949 . S
C1814 C1820 1.368 . S
C1815 C1799 1.349 . S
C1815 H1807 0.950 . S
C1815 C1813 1.327 . S
C1816 C1804 1.349 . S
C1816 H1810 0.950 . S
C1816 C1817 1.327 . S
C1817 H1811 0.950 . S
C1817 C1816 1.327 . S
C1817 C1821 1.429 . S
C1818 C1801 1.574 . S
C1818 H1812 0.949 . S
C1818 C1822 1.368 . S
C1819 C1800 1.429 . S
C1819 C1813 1.429 . S
C1819 C1820 1.523 . S
C1820 C1801 1.368 . S
C1820 C1814 1.368 . S
C1820 C1819 1.523 . S
C1821 C1805 1.429 . S
C1821 C1817 1.429 . S
C1821 C1822 1.523 . S
C1822 C1806 1.368 . S
C1822 C1818 1.368 . S
C1822 C1821 1.523 . S
H1823 C1798 0.950 . S
H1824 C1800 0.950 . S
H1825 C1801 0.949 . S
H1826 C1803 0.950 . S
H1827 C1805 0.950 . S
C1828 C1829 1.349 . S
C1828 C1830 1.327 . S
C1828 H1853 0.950 . S
C1829 C1828 1.349 . S
C1829 C1845 1.349 . S
C1830 C1828 1.327 . S
C1830 C1849 1.429 . S
C1830 H1854 0.950 . S
C1831 C1848 1.574 . S
C1831 C1850 1.368 . S
C1831 H1855 0.949 . S
H1832 C1836 0.949 . S
C1833 C1834 1.349 . S
C1833 C1835 1.327 . S
C1833 H1856 0.950 . S
C1834 C1833 1.349 . S
C1834 C1846 1.349 . S
C1835 C1833 1.327 . S
C1835 C1851 1.429 . S
C1835 H1857 0.950 . S
C1836 H1832 0.949 . S
C1836 C1844 1.574 . S
C1836 C1852 1.368 . S
H1837 C1845 0.950 . S
H1838 C1843 0.950 . S
H1839 C1844 0.949 . S
H1840 C1846 0.950 . S
H1841 C1847 0.950 . S
H1842 C1848 0.949 . S
C1843 H1838 0.950 . S
C1843 C1845 1.327 . S
C1843 C1849 1.429 . S
C1844 C1836 1.574 . S
C1844 H1839 0.949 . S
C1844 C1850 1.368 . S
C1845 C1829 1.349 . S
C1845 H1837 0.950 . S
C1845 C1843 1.327 . S
C1846 C1834 1.349 . S
C1846 H1840 0.950 . S
C1846 C1847 1.327 . S
C1847 H1841 0.950 . S
C1847 C1846 1.327 . S
C1847 C1851 1.429 . S
C1848 C1831 1.574 . S
C1848 H1842 0.949 . S
C1848 C1852 1.368 . S
C1849 C1830 1.429 . S
C1849 C1843 1.429 . S
C1849 C1850 1.523 . S
C1850 C1831 1.368 . S
C1850 C1844 1.368 . S
C1850 C1849 1.523 . S
C1851 C1835 1.429 . S
C1851 C1847 1.429 . S
C1851 C1852 1.523 . S
C1852 C1836 1.368 . S
C1852 C1848 1.368 . S
C1852 C1851 1.523 . S
H1853 C1828 0.950 . S
H1854 C1830 0.950 . S
H1855 C1831 0.949 . S
H1856 C1833 0.950 . S
H1857 C1835 0.950 . S
C1858 C1859 1.349 . S
C1858 C1860 1.327 . S
C1858 H1883 0.950 . S
C1859 C1858 1.349 . S
C1859 C1875 1.349 . S
C1860 C1858 1.327 . S
C1860 C1879 1.429 . S
C1860 H1884 0.950 . S
C1861 C1878 1.574 . S
C1861 C1880 1.368 . S
C1861 H1885 0.949 . S
H1862 C1866 0.949 . S
C1863 C1864 1.349 . S
C1863 C1865 1.327 . S
C1863 H1886 0.950 . S
C1864 C1863 1.349 . S
C1864 C1876 1.349 . S
C1865 C1863 1.327 . S
C1865 C1881 1.429 . S
C1865 H1887 0.950 . S
C1866 H1862 0.949 . S
C1866 C1874 1.574 . S
C1866 C1882 1.368 . S
H1867 C1875 0.950 . S
H1868 C1873 0.950 . S
H1869 C1874 0.949 . S
H1870 C1876 0.950 . S
H1871 C1877 0.950 . S
H1872 C1878 0.949 . S
C1873 H1868 0.950 . S
C1873 C1875 1.327 . S
C1873 C1879 1.429 . S
C1874 C1866 1.574 . S
C1874 H1869 0.949 . S
C1874 C1880 1.368 . S
C1875 C1859 1.349 . S
C1875 H1867 0.950 . S
C1875 C1873 1.327 . S
C1876 C1864 1.349 . S
C1876 H1870 0.950 . S
C1876 C1877 1.327 . S
C1877 H1871 0.950 . S
C1877 C1876 1.327 . S
C1877 C1881 1.429 . S
C1878 C1861 1.574 . S
C1878 H1872 0.949 . S
C1878 C1882 1.368 . S
C1879 C1860 1.429 . S
C1879 C1873 1.429 . S
C1879 C1880 1.523 . S
C1880 C1861 1.368 . S
C1880 C1874 1.368 . S
C1880 C1879 1.523 . S
C1881 C1865 1.429 . S
C1881 C1877 1.429 . S
C1881 C1882 1.523 . S
C1882 C1866 1.368 . S
C1882 C1878 1.368 . S
C1882 C1881 1.523 . S
H1883 C1858 0.950 . S
H1884 C1860 0.950 . S
H1885 C1861 0.949 . S
H1886 C1863 0.950 . S
H1887 C1865 0.950 . S
C1888 C1889 1.349 . S
C1888 C1890 1.327 . S
C1888 H1913 0.950 . S
C1889 C1888 1.349 . S
C1889 C1905 1.349 . S
C1890 C1888 1.327 . S
C1890 C1909 1.429 . S
C1890 H1914 0.950 . S
C1891 C1908 1.574 . S
C1891 C1910 1.368 . S
C1891 H1915 0.949 . S
H1892 C1896 0.949 . S
C1893 C1894 1.349 . S
C1893 C1895 1.327 . S
C1893 H1916 0.950 . S
C1894 C1893 1.349 . S
C1894 C1906 1.349 . S
C1895 C1893 1.327 . S
C1895 C1911 1.429 . S
C1895 H1917 0.950 . S
C1896 H1892 0.949 . S
C1896 C1904 1.574 . S
C1896 C1912 1.368 . S
H1897 C1905 0.950 1_556 S
H1898 C1903 0.950 . S
H1899 C1904 0.949 . S
H1900 C1906 0.950 . S
H1901 C1907 0.950 . S
H1902 C1908 0.949 . S
C1903 H1898 0.950 . S
C1903 C1905 1.327 . S
C1903 C1909 1.429 . S
C1904 C1896 1.574 . S
C1904 H1899 0.949 . S
C1904 C1910 1.368 . S
C1905 C1889 1.349 . S
C1905 H1897 0.950 1_554 S
C1905 C1903 1.327 . S
C1906 C1894 1.349 . S
C1906 H1900 0.950 . S
C1906 C1907 1.327 . S
C1907 H1901 0.950 . S
C1907 C1906 1.327 . S
C1907 C1911 1.429 . S
C1908 C1891 1.574 . S
C1908 H1902 0.949 . S
C1908 C1912 1.368 . S
C1909 C1890 1.429 . S
C1909 C1903 1.429 . S
C1909 C1910 1.523 . S
C1910 C1891 1.368 . S
C1910 C1904 1.368 . S
C1910 C1909 1.523 . S
C1911 C1895 1.429 . S
C1911 C1907 1.429 . S
C1911 C1912 1.523 . S
C1912 C1896 1.368 . S
C1912 C1908 1.368 . S
C1912 C1911 1.523 . S
H1913 C1888 0.950 . S
H1914 C1890 0.950 . S
H1915 C1891 0.949 . S
H1916 C1893 0.950 . S
H1917 C1895 0.950 . S
C1918 C1919 1.349 . S
C1918 C1920 1.327 . S
C1918 H1943 0.950 . S
C1919 C1918 1.349 . S
C1919 C1935 1.349 . S
C1920 C1918 1.327 . S
C1920 C1939 1.429 . S
C1920 H1944 0.950 . S
C1921 C1938 1.574 . S
C1921 C1940 1.368 . S
C1921 H1945 0.949 . S
H1922 C1926 0.949 . S
C1923 C1924 1.349 . S
C1923 C1925 1.327 . S
C1923 H1946 0.950 . S
C1924 C1923 1.349 . S
C1924 C1936 1.349 . S
C1925 C1923 1.327 . S
C1925 C1941 1.429 . S
C1925 H1947 0.950 . S
C1926 H1922 0.949 . S
C1926 C1934 1.574 . S
C1926 C1942 1.368 . S
H1927 C1935 0.950 . S
H1928 C1933 0.950 . S
H1929 C1934 0.949 . S
H1930 C1936 0.950 . S
H1931 C1937 0.950 . S
H1932 C1938 0.949 . S
C1933 H1928 0.950 . S
C1933 C1935 1.327 . S
C1933 C1939 1.429 . S
C1934 C1926 1.574 . S
C1934 H1929 0.949 . S
C1934 C1940 1.368 . S
C1935 C1919 1.349 . S
C1935 H1927 0.950 . S
C1935 C1933 1.327 . S
C1936 C1924 1.349 . S
C1936 H1930 0.950 . S
C1936 C1937 1.327 . S
C1937 H1931 0.950 . S
C1937 C1936 1.327 . S
C1937 C1941 1.429 . S
C1938 C1921 1.574 . S
C1938 H1932 0.949 . S
C1938 C1942 1.368 . S
C1939 C1920 1.429 . S
C1939 C1933 1.429 . S
C1939 C1940 1.523 . S
C1940 C1921 1.368 . S
C1940 C1934 1.368 . S
C1940 C1939 1.523 . S
C1941 C1925 1.429 . S
C1941 C1937 1.429 . S
C1941 C1942 1.523 . S
C1942 C1926 1.368 . S
C1942 C1938 1.368 . S
C1942 C1941 1.523 . S
H1943 C1918 0.950 . S
H1944 C1920 0.950 . S
H1945 C1921 0.949 . S
H1946 C1923 0.950 . S
H1947 C1925 0.950 . S
C1948 C1949 1.349 . S
C1948 C1950 1.327 . S
C1948 H1973 0.950 . S
C1949 C1948 1.349 . S
C1949 C1965 1.349 . S
C1950 C1948 1.327 . S
C1950 C1969 1.429 . S
C1950 H1974 0.950 . S
C1951 C1968 1.574 . S
C1951 C1970 1.368 . S
C1951 H1975 0.949 . S
H1952 C1956 0.949 . S
C1953 C1954 1.349 . S
C1953 C1955 1.327 . S
C1953 H1976 0.950 . S
C1954 C1953 1.349 . S
C1954 C1966 1.349 . S
C1955 C1953 1.327 . S
C1955 C1971 1.429 . S
C1955 H1977 0.950 . S
C1956 H1952 0.949 . S
C1956 C1964 1.574 . S
C1956 C1972 1.368 . S
H1957 C1965 0.950 . S
H1958 C1963 0.950 . S
H1959 C1964 0.949 . S
H1960 C1966 0.950 . S
H1961 C1967 0.950 . S
H1962 C1968 0.949 . S
C1963 H1958 0.950 . S
C1963 C1965 1.327 . S
C1963 C1969 1.429 . S
C1964 C1956 1.574 . S
C1964 H1959 0.949 . S
C1964 C1970 1.368 . S
C1965 C1949 1.349 . S
C1965 H1957 0.950 . S
C1965 C1963 1.327 . S
C1966 C1954 1.349 . S
C1966 H1960 0.950 . S
C1966 C1967 1.327 . S
C1967 H1961 0.950 . S
C1967 C1966 1.327 . S
C1967 C1971 1.429 . S
C1968 C1951 1.574 . S
C1968 H1962 0.949 . S
C1968 C1972 1.368 . S
C1969 C1950 1.429 . S
C1969 C1963 1.429 . S
C1969 C1970 1.523 . S
C1970 C1951 1.368 . S
C1970 C1964 1.368 . S
C1970 C1969 1.523 . S
C1971 C1955 1.429 . S
C1971 C1967 1.429 . S
C1971 C1972 1.523 . S
C1972 C1956 1.368 . S
C1972 C1968 1.368 . S
C1972 C1971 1.523 . S
H1973 C1948 0.950 . S
H1974 C1950 0.950 . S
H1975 C1951 0.949 . S
H1976 C1953 0.950 . S
H1977 C1955 0.950 . S
C1978 C1979 1.349 . S
C1978 C1980 1.327 . S
C1978 H2003 0.950 . S
C1979 C1978 1.349 . S
C1979 C1995 1.349 . S
C1980 C1978 1.327 . S
C1980 C1999 1.429 . S
C1980 H2004 0.950 . S
C1981 C1998 1.574 . S
C1981 C2000 1.368 . S
C1981 H2005 0.949 . S
H1982 C1986 0.949 . S
C1983 C1984 1.349 . S
C1983 C1985 1.327 . S
C1983 H2006 0.950 . S
C1984 C1983 1.349 . S
C1984 C1996 1.349 . S
C1985 C1983 1.327 . S
C1985 C2001 1.429 . S
C1985 H2007 0.950 . S
C1986 H1982 0.949 . S
C1986 C1994 1.574 . S
C1986 C2002 1.368 . S
H1987 C1995 0.950 . S
H1988 C1993 0.950 . S
H1989 C1994 0.949 . S
H1990 C1996 0.950 . S
H1991 C1997 0.950 . S
H1992 C1998 0.949 . S
C1993 H1988 0.950 . S
C1993 C1995 1.327 . S
C1993 C1999 1.429 . S
C1994 C1986 1.574 . S
C1994 H1989 0.949 . S
C1994 C2000 1.368 . S
C1995 C1979 1.349 . S
C1995 H1987 0.950 . S
C1995 C1993 1.327 . S
C1996 C1984 1.349 . S
C1996 H1990 0.950 . S
C1996 C1997 1.327 . S
C1997 H1991 0.950 . S
C1997 C1996 1.327 . S
C1997 C2001 1.429 . S
C1998 C1981 1.574 . S
C1998 H1992 0.949 . S
C1998 C2002 1.368 . S
C1999 C1980 1.429 . S
C1999 C1993 1.429 . S
C1999 C2000 1.523 . S
C2000 C1981 1.368 . S
C2000 C1994 1.368 . S
C2000 C1999 1.523 . S
C2001 C1985 1.429 . S
C2001 C1997 1.429 . S
C2001 C2002 1.523 . S
C2002 C1986 1.368 . S
C2002 C1998 1.368 . S
C2002 C2001 1.523 . S
H2003 C1978 0.950 . S
H2004 C1980 0.950 . S
H2005 C1981 0.949 . S
H2006 C1983 0.950 . S
H2007 C1985 0.950 . S
C2008 C2009 1.349 . S
C2008 C2010 1.327 . S
C2008 H2033 0.950 . S
C2009 C2008 1.349 . S
C2009 C2025 1.349 . S
C2010 C2008 1.327 . S
C2010 C2029 1.429 . S
C2010 H2034 0.950 . S
C2011 C2028 1.574 . S
C2011 C2030 1.368 . S
C2011 H2035 0.949 . S
H2012 C2016 0.949 . S
C2013 C2014 1.349 . S
C2013 C2015 1.327 . S
C2013 H2036 0.950 . S
C2014 C2013 1.349 . S
C2014 C2026 1.349 . S
C2015 C2013 1.327 . S
C2015 C2031 1.429 . S
C2015 H2037 0.950 . S
C2016 H2012 0.949 . S
C2016 C2024 1.574 . S
C2016 C2032 1.368 . S
H2017 C2025 0.950 . S
H2018 C2023 0.950 . S
H2019 C2024 0.949 . S
H2020 C2026 0.950 . S
H2021 C2027 0.950 . S
H2022 C2028 0.949 . S
C2023 H2018 0.950 . S
C2023 C2025 1.327 . S
C2023 C2029 1.429 . S
C2024 C2016 1.574 . S
C2024 H2019 0.949 . S
C2024 C2030 1.368 . S
C2025 C2009 1.349 . S
C2025 H2017 0.950 . S
C2025 C2023 1.327 . S
C2026 C2014 1.349 . S
C2026 H2020 0.950 . S
C2026 C2027 1.327 . S
C2027 H2021 0.950 . S
C2027 C2026 1.327 . S
C2027 C2031 1.429 . S
C2028 C2011 1.574 . S
C2028 H2022 0.949 . S
C2028 C2032 1.368 . S
C2029 C2010 1.429 . S
C2029 C2023 1.429 . S
C2029 C2030 1.523 . S
C2030 C2011 1.368 . S
C2030 C2024 1.368 . S
C2030 C2029 1.523 . S
C2031 C2015 1.429 . S
C2031 C2027 1.429 . S
C2031 C2032 1.523 . S
C2032 C2016 1.368 . S
C2032 C2028 1.368 . S
C2032 C2031 1.523 . S
H2033 C2008 0.950 . S
H2034 C2010 0.950 . S
H2035 C2011 0.949 . S
H2036 C2013 0.950 . S
H2037 C2015 0.950 . S
C2038 C2039 1.349 . S
C2038 C2040 1.327 . S
C2038 H2063 0.950 . S
C2039 C2038 1.349 . S
C2039 C2055 1.349 . S
C2040 C2038 1.327 . S
C2040 C2059 1.429 . S
C2040 H2064 0.950 . S
C2041 C2058 1.574 . S
C2041 C2060 1.368 . S
C2041 H2065 0.949 . S
H2042 C2046 0.949 . S
C2043 C2044 1.349 . S
C2043 C2045 1.327 . S
C2043 H2066 0.950 . S
C2044 C2043 1.349 . S
C2044 C2056 1.349 . S
C2045 C2043 1.327 . S
C2045 C2061 1.429 . S
C2045 H2067 0.950 . S
C2046 H2042 0.949 . S
C2046 C2054 1.574 . S
C2046 C2062 1.368 . S
H2047 C2055 0.950 . S
H2048 C2053 0.950 . S
H2049 C2054 0.949 . S
H2050 C2056 0.950 . S
H2051 C2057 0.950 . S
H2052 C2058 0.949 . S
C2053 H2048 0.950 . S
C2053 C2055 1.327 . S
C2053 C2059 1.429 . S
C2054 C2046 1.574 . S
C2054 H2049 0.949 . S
C2054 C2060 1.368 . S
C2055 C2039 1.349 . S
C2055 H2047 0.950 . S
C2055 C2053 1.327 . S
C2056 C2044 1.349 . S
C2056 H2050 0.950 . S
C2056 C2057 1.327 . S
C2057 H2051 0.950 . S
C2057 C2056 1.327 . S
C2057 C2061 1.429 . S
C2058 C2041 1.574 . S
C2058 H2052 0.949 . S
C2058 C2062 1.368 . S
C2059 C2040 1.429 . S
C2059 C2053 1.429 . S
C2059 C2060 1.523 . S
C2060 C2041 1.368 . S
C2060 C2054 1.368 . S
C2060 C2059 1.523 . S
C2061 C2045 1.429 . S
C2061 C2057 1.429 . S
C2061 C2062 1.523 . S
C2062 C2046 1.368 . S
C2062 C2058 1.368 . S
C2062 C2061 1.523 . S
H2063 C2038 0.950 . S
H2064 C2040 0.950 . S
H2065 C2041 0.949 . S
H2066 C2043 0.950 . S
H2067 C2045 0.950 . S
C2068 C2069 1.349 . S
C2068 C2070 1.327 . S
C2068 H2093 0.950 . S
C2069 C2068 1.349 . S
C2069 C2085 1.349 . S
C2070 C2068 1.327 . S
C2070 C2089 1.429 . S
C2070 H2094 0.950 . S
C2071 C2088 1.574 . S
C2071 C2090 1.368 . S
C2071 H2095 0.949 . S
H2072 C2076 0.949 . S
C2073 C2074 1.349 . S
C2073 C2075 1.327 . S
C2073 H2096 0.950 . S
C2074 C2073 1.349 . S
C2074 C2086 1.349 . S
C2075 C2073 1.327 . S
C2075 C2091 1.429 . S
C2075 H2097 0.950 . S
C2076 H2072 0.949 . S
C2076 C2084 1.574 . S
C2076 C2092 1.368 . S
H2077 C2085 0.950 1_554 S
H2078 C2083 0.950 . S
H2079 C2084 0.949 . S
H2080 C2086 0.950 . S
H2081 C2087 0.950 . S
H2082 C2088 0.949 . S
C2083 H2078 0.950 . S
C2083 C2085 1.327 . S
C2083 C2089 1.429 . S
C2084 C2076 1.574 . S
C2084 H2079 0.949 . S
C2084 C2090 1.368 . S
C2085 C2069 1.349 . S
C2085 H2077 0.950 1_556 S
C2085 C2083 1.327 . S
C2086 C2074 1.349 . S
C2086 H2080 0.950 . S
C2086 C2087 1.327 . S
C2087 H2081 0.950 . S
C2087 C2086 1.327 . S
C2087 C2091 1.429 . S
C2088 C2071 1.574 . S
C2088 H2082 0.949 . S
C2088 C2092 1.368 . S
C2089 C2070 1.429 . S
C2089 C2083 1.429 . S
C2089 C2090 1.523 . S
C2090 C2071 1.368 . S
C2090 C2084 1.368 . S
C2090 C2089 1.523 . S
C2091 C2075 1.429 . S
C2091 C2087 1.429 . S
C2091 C2092 1.523 . S
C2092 C2076 1.368 . S
C2092 C2088 1.368 . S
C2092 C2091 1.523 . S
H2093 C2068 0.950 . S
H2094 C2070 0.950 . S
H2095 C2071 0.949 . S
H2096 C2073 0.950 . S
H2097 C2075 0.950 . S
C2098 C2099 1.349 . S
C2098 C2100 1.327 . S
C2098 H2123 0.950 . S
C2099 C2098 1.349 . S
C2099 C2115 1.349 . S
C2100 C2098 1.327 . S
C2100 C2119 1.429 . S
C2100 H2124 0.950 . S
C2101 C2118 1.574 . S
C2101 C2120 1.368 . S
C2101 H2125 0.949 . S
H2102 C2106 0.949 . S
C2103 C2104 1.349 . S
C2103 C2105 1.327 . S
C2103 H2126 0.950 . S
C2104 C2103 1.349 . S
C2104 C2116 1.349 . S
C2105 C2103 1.327 . S
C2105 C2121 1.429 . S
C2105 H2127 0.950 . S
C2106 H2102 0.949 . S
C2106 C2114 1.574 . S
C2106 C2122 1.368 . S
H2107 C2115 0.950 . S
H2108 C2113 0.950 . S
H2109 C2114 0.949 . S
H2110 C2116 0.950 . S
H2111 C2117 0.950 . S
H2112 C2118 0.949 . S
C2113 H2108 0.950 . S
C2113 C2115 1.327 . S
C2113 C2119 1.429 . S
C2114 C2106 1.574 . S
C2114 H2109 0.949 . S
C2114 C2120 1.368 . S
C2115 C2099 1.349 . S
C2115 H2107 0.950 . S
C2115 C2113 1.327 . S
C2116 C2104 1.349 . S
C2116 H2110 0.950 . S
C2116 C2117 1.327 . S
C2117 H2111 0.950 . S
C2117 C2116 1.327 . S
C2117 C2121 1.429 . S
C2118 C2101 1.574 . S
C2118 H2112 0.949 . S
C2118 C2122 1.368 . S
C2119 C2100 1.429 . S
C2119 C2113 1.429 . S
C2119 C2120 1.523 . S
C2120 C2101 1.368 . S
C2120 C2114 1.368 . S
C2120 C2119 1.523 . S
C2121 C2105 1.429 . S
C2121 C2117 1.429 . S
C2121 C2122 1.523 . S
C2122 C2106 1.368 . S
C2122 C2118 1.368 . S
C2122 C2121 1.523 . S
H2123 C2098 0.950 . S
H2124 C2100 0.950 . S
H2125 C2101 0.949 . S
H2126 C2103 0.950 . S
H2127 C2105 0.950 . S
C2128 C2129 1.349 . S
C2128 C2130 1.327 . S
C2128 H2153 0.950 . S
C2129 C2128 1.349 . S
C2129 C2145 1.349 . S
C2130 C2128 1.327 . S
C2130 C2149 1.429 . S
C2130 H2154 0.950 . S
C2131 C2148 1.574 . S
C2131 C2150 1.368 . S
C2131 H2155 0.949 . S
H2132 C2136 0.949 . S
C2133 C2134 1.349 . S
C2133 C2135 1.327 . S
C2133 H2156 0.950 . S
C2134 C2133 1.349 . S
C2134 C2146 1.349 . S
C2135 C2133 1.327 . S
C2135 C2151 1.429 . S
C2135 H2157 0.950 . S
C2136 H2132 0.949 . S
C2136 C2144 1.574 . S
C2136 C2152 1.368 . S
H2137 C2145 0.950 . S
H2138 C2143 0.950 . S
H2139 C2144 0.949 . S
H2140 C2146 0.950 . S
H2141 C2147 0.950 . S
H2142 C2148 0.949 . S
C2143 H2138 0.950 . S
C2143 C2145 1.327 . S
C2143 C2149 1.429 . S
C2144 C2136 1.574 . S
C2144 H2139 0.949 . S
C2144 C2150 1.368 . S
C2145 C2129 1.349 . S
C2145 H2137 0.950 . S
C2145 C2143 1.327 . S
C2146 C2134 1.349 . S
C2146 H2140 0.950 . S
C2146 C2147 1.327 . S
C2147 H2141 0.950 . S
C2147 C2146 1.327 . S
C2147 C2151 1.429 . S
C2148 C2131 1.574 . S
C2148 H2142 0.949 . S
C2148 C2152 1.368 . S
C2149 C2130 1.429 . S
C2149 C2143 1.429 . S
C2149 C2150 1.523 . S
C2150 C2131 1.368 . S
C2150 C2144 1.368 . S
C2150 C2149 1.523 . S
C2151 C2135 1.429 . S
C2151 C2147 1.429 . S
C2151 C2152 1.523 . S
C2152 C2136 1.368 . S
C2152 C2148 1.368 . S
C2152 C2151 1.523 . S
H2153 C2128 0.950 . S
H2154 C2130 0.950 . S
H2155 C2131 0.949 . S
H2156 C2133 0.950 . S
H2157 C2135 0.950 . S
C2158 C2159 1.349 . S
C2158 C2160 1.327 . S
C2158 H2183 0.950 . S
C2159 C2158 1.349 . S
C2159 C2175 1.349 . S
C2160 C2158 1.327 . S
C2160 C2179 1.429 . S
C2160 H2184 0.950 . S
C2161 C2178 1.574 . S
C2161 C2180 1.368 . S
C2161 H2185 0.949 . S
H2162 C2166 0.949 . S
C2163 C2164 1.349 . S
C2163 C2165 1.327 . S
C2163 H2186 0.950 . S
C2164 C2163 1.349 . S
C2164 C2176 1.349 . S
C2165 C2163 1.327 . S
C2165 C2181 1.429 . S
C2165 H2187 0.950 . S
C2166 H2162 0.949 . S
C2166 C2174 1.574 . S
C2166 C2182 1.368 . S
H2167 C2175 0.950 . S
H2168 C2173 0.950 . S
H2169 C2174 0.949 . S
H2170 C2176 0.950 . S
H2171 C2177 0.950 . S
H2172 C2178 0.949 . S
C2173 H2168 0.950 . S
C2173 C2175 1.327 . S
C2173 C2179 1.429 . S
C2174 C2166 1.574 . S
C2174 H2169 0.949 . S
C2174 C2180 1.368 . S
C2175 C2159 1.349 . S
C2175 H2167 0.950 . S
C2175 C2173 1.327 . S
C2176 C2164 1.349 . S
C2176 H2170 0.950 . S
C2176 C2177 1.327 . S
C2177 H2171 0.950 . S
C2177 C2176 1.327 . S
C2177 C2181 1.429 . S
C2178 C2161 1.574 . S
C2178 H2172 0.949 . S
C2178 C2182 1.368 . S
C2179 C2160 1.429 . S
C2179 C2173 1.429 . S
C2179 C2180 1.523 . S
C2180 C2161 1.368 . S
C2180 C2174 1.368 . S
C2180 C2179 1.523 . S
C2181 C2165 1.429 . S
C2181 C2177 1.429 . S
C2181 C2182 1.523 . S
C2182 C2166 1.368 . S
C2182 C2178 1.368 . S
C2182 C2181 1.523 . S
H2183 C2158 0.950 . S
H2184 C2160 0.950 . S
H2185 C2161 0.949 . S
H2186 C2163 0.950 . S
H2187 C2165 0.950 . S
C2188 C2189 1.349 . S
C2188 C2190 1.327 . S
C2188 H2213 0.950 . S
C2189 C2188 1.349 . S
C2189 C2205 1.349 . S
C2190 C2188 1.327 . S
C2190 C2209 1.429 . S
C2190 H2214 0.950 . S
C2191 C2208 1.574 . S
C2191 C2210 1.368 . S
C2191 H2215 0.949 . S
H2192 C2196 0.949 . S
C2193 C2194 1.349 . S
C2193 C2195 1.327 . S
C2193 H2216 0.950 . S
C2194 C2193 1.349 . S
C2194 C2206 1.349 . S
C2195 C2193 1.327 . S
C2195 C2211 1.429 . S
C2195 H2217 0.950 . S
C2196 H2192 0.949 . S
C2196 C2204 1.574 . S
C2196 C2212 1.368 . S
H2197 C2205 0.950 . S
H2198 C2203 0.950 . S
H2199 C2204 0.949 . S
H2200 C2206 0.950 . S
H2201 C2207 0.950 . S
H2202 C2208 0.949 . S
C2203 H2198 0.950 . S
C2203 C2205 1.327 . S
C2203 C2209 1.429 . S
C2204 C2196 1.574 . S
C2204 H2199 0.949 . S
C2204 C2210 1.368 . S
C2205 C2189 1.349 . S
C2205 H2197 0.950 . S
C2205 C2203 1.327 . S
C2206 C2194 1.349 . S
C2206 H2200 0.950 . S
C2206 C2207 1.327 . S
C2207 H2201 0.950 . S
C2207 C2206 1.327 . S
C2207 C2211 1.429 . S
C2208 C2191 1.574 . S
C2208 H2202 0.949 . S
C2208 C2212 1.368 . S
C2209 C2190 1.429 . S
C2209 C2203 1.429 . S
C2209 C2210 1.523 . S
C2210 C2191 1.368 . S
C2210 C2204 1.368 . S
C2210 C2209 1.523 . S
C2211 C2195 1.429 . S
C2211 C2207 1.429 . S
C2211 C2212 1.523 . S
C2212 C2196 1.368 . S
C2212 C2208 1.368 . S
C2212 C2211 1.523 . S
H2213 C2188 0.950 . S
H2214 C2190 0.950 . S
H2215 C2191 0.949 . S
H2216 C2193 0.950 . S
H2217 C2195 0.950 . S
C2218 C2219 1.349 . S
C2218 C2220 1.327 . S
C2218 H2243 0.950 . S
C2219 C2218 1.349 . S
C2219 C2235 1.349 . S
C2220 C2218 1.327 . S
C2220 C2239 1.429 . S
C2220 H2244 0.950 . S
C2221 C2238 1.574 . S
C2221 C2240 1.368 . S
C2221 H2245 0.949 . S
H2222 C2226 0.949 . S
C2223 C2224 1.349 . S
C2223 C2225 1.327 . S
C2223 H2246 0.950 . S
C2224 C2223 1.349 . S
C2224 C2236 1.349 . S
C2225 C2223 1.327 . S
C2225 C2241 1.429 . S
C2225 H2247 0.950 . S
C2226 H2222 0.949 . S
C2226 C2234 1.574 . S
C2226 C2242 1.368 . S
H2227 C2235 0.950 . S
H2228 C2233 0.950 . S
H2229 C2234 0.949 . S
H2230 C2236 0.950 . S
H2231 C2237 0.950 . S
H2232 C2238 0.949 . S
C2233 H2228 0.950 . S
C2233 C2235 1.327 . S
C2233 C2239 1.429 . S
C2234 C2226 1.574 . S
C2234 H2229 0.949 . S
C2234 C2240 1.368 . S
C2235 C2219 1.349 . S
C2235 H2227 0.950 . S
C2235 C2233 1.327 . S
C2236 C2224 1.349 . S
C2236 H2230 0.950 . S
C2236 C2237 1.327 . S
C2237 H2231 0.950 . S
C2237 C2236 1.327 . S
C2237 C2241 1.429 . S
C2238 C2221 1.574 . S
C2238 H2232 0.949 . S
C2238 C2242 1.368 . S
C2239 C2220 1.429 . S
C2239 C2233 1.429 . S
C2239 C2240 1.523 . S
C2240 C2221 1.368 . S
C2240 C2234 1.368 . S
C2240 C2239 1.523 . S
C2241 C2225 1.429 . S
C2241 C2237 1.429 . S
C2241 C2242 1.523 . S
C2242 C2226 1.368 . S
C2242 C2238 1.368 . S
C2242 C2241 1.523 . S
H2243 C2218 0.950 . S
H2244 C2220 0.950 . S
H2245 C2221 0.949 . S
H2246 C2223 0.950 . S
H2247 C2225 0.950 . S
C2248 C2249 1.349 . S
C2248 C2250 1.327 . S
C2248 H2273 0.950 . S
C2249 C2248 1.349 . S
C2249 C2265 1.349 . S
C2250 C2248 1.327 . S
C2250 C2269 1.429 . S
C2250 H2274 0.950 . S
C2251 C2268 1.574 . S
C2251 C2270 1.368 . S
C2251 H2275 0.949 . S
H2252 C2256 0.949 . S
C2253 C2254 1.349 . S
C2253 C2255 1.327 . S
C2253 H2276 0.950 . S
C2254 C2253 1.349 . S
C2254 C2266 1.349 . S
C2255 C2253 1.327 . S
C2255 C2271 1.429 . S
C2255 H2277 0.950 . S
C2256 H2252 0.949 . S
C2256 C2264 1.574 . S
C2256 C2272 1.368 . S
H2257 C2265 0.950 . S
H2258 C2263 0.950 . S
H2259 C2264 0.949 . S
H2260 C2266 0.950 . S
H2261 C2267 0.950 . S
H2262 C2268 0.949 . S
C2263 H2258 0.950 . S
C2263 C2265 1.327 . S
C2263 C2269 1.429 . S
C2264 C2256 1.574 . S
C2264 H2259 0.949 . S
C2264 C2270 1.368 . S
C2265 C2249 1.349 . S
C2265 H2257 0.950 . S
C2265 C2263 1.327 . S
C2266 C2254 1.349 . S
C2266 H2260 0.950 . S
C2266 C2267 1.327 . S
C2267 H2261 0.950 . S
C2267 C2266 1.327 . S
C2267 C2271 1.429 . S
C2268 C2251 1.574 . S
C2268 H2262 0.949 . S
C2268 C2272 1.368 . S
C2269 C2250 1.429 . S
C2269 C2263 1.429 . S
C2269 C2270 1.523 . S
C2270 C2251 1.368 . S
C2270 C2264 1.368 . S
C2270 C2269 1.523 . S
C2271 C2255 1.429 . S
C2271 C2267 1.429 . S
C2271 C2272 1.523 . S
C2272 C2256 1.368 . S
C2272 C2268 1.368 . S
C2272 C2271 1.523 . S
H2273 C2248 0.950 . S
H2274 C2250 0.950 . S
H2275 C2251 0.949 . S
H2276 C2253 0.950 . S
H2277 C2255 0.950 . S
C2278 C2279 1.349 . S
C2278 C2280 1.327 . S
C2278 H2303 0.950 . S
C2279 C2278 1.349 . S
C2279 C2295 1.349 . S
C2280 C2278 1.327 . S
C2280 C2299 1.429 . S
C2280 H2304 0.950 . S
C2281 C2298 1.574 . S
C2281 C2300 1.368 . S
C2281 H2305 0.949 . S
H2282 C2286 0.949 . S
C2283 C2284 1.349 . S
C2283 C2285 1.327 . S
C2283 H2306 0.950 . S
C2284 C2283 1.349 . S
C2284 C2296 1.349 . S
C2285 C2283 1.327 . S
C2285 C2301 1.429 . S
C2285 H2307 0.950 . S
C2286 H2282 0.949 . S
C2286 C2294 1.574 . S
C2286 C2302 1.368 . S
H2287 C2295 0.950 . S
H2288 C2293 0.950 . S
H2289 C2294 0.949 . S
H2290 C2296 0.950 . S
H2291 C2297 0.950 . S
H2292 C2298 0.949 . S
C2293 H2288 0.950 . S
C2293 C2295 1.327 . S
C2293 C2299 1.429 . S
C2294 C2286 1.574 . S
C2294 H2289 0.949 . S
C2294 C2300 1.368 . S
C2295 C2279 1.349 . S
C2295 H2287 0.950 . S
C2295 C2293 1.327 . S
C2296 C2284 1.349 . S
C2296 H2290 0.950 . S
C2296 C2297 1.327 . S
C2297 H2291 0.950 . S
C2297 C2296 1.327 . S
C2297 C2301 1.429 . S
C2298 C2281 1.574 . S
C2298 H2292 0.949 . S
C2298 C2302 1.368 . S
C2299 C2280 1.429 . S
C2299 C2293 1.429 . S
C2299 C2300 1.523 . S
C2300 C2281 1.368 . S
C2300 C2294 1.368 . S
C2300 C2299 1.523 . S
C2301 C2285 1.429 . S
C2301 C2297 1.429 . S
C2301 C2302 1.523 . S
C2302 C2286 1.368 . S
C2302 C2298 1.368 . S
C2302 C2301 1.523 . S
H2303 C2278 0.950 . S
H2304 C2280 0.950 . S
H2305 C2281 0.949 . S
H2306 C2283 0.950 . S
H2307 C2285 0.950 . S
C2308 C2309 1.349 . S
C2308 C2310 1.327 . S
C2308 H2333 0.950 . S
C2309 C2308 1.349 . S
C2309 C2325 1.349 . S
C2310 C2308 1.327 . S
C2310 C2329 1.429 . S
C2310 H2334 0.950 . S
C2311 C2328 1.574 . S
C2311 C2330 1.368 . S
C2311 H2335 0.949 . S
H2312 C2316 0.949 . S
C2313 C2314 1.349 . S
C2313 C2315 1.327 . S
C2313 H2336 0.950 . S
C2314 C2313 1.349 . S
C2314 C2326 1.349 . S
C2315 C2313 1.327 . S
C2315 C2331 1.429 . S
C2315 H2337 0.950 . S
C2316 H2312 0.949 . S
C2316 C2324 1.574 . S
C2316 C2332 1.368 . S
H2317 C2325 0.950 . S
H2318 C2323 0.950 . S
H2319 C2324 0.949 . S
H2320 C2326 0.950 . S
H2321 C2327 0.950 . S
H2322 C2328 0.949 . S
C2323 H2318 0.950 . S
C2323 C2325 1.327 . S
C2323 C2329 1.429 . S
C2324 C2316 1.574 . S
C2324 H2319 0.949 . S
C2324 C2330 1.368 . S
C2325 C2309 1.349 . S
C2325 H2317 0.950 . S
C2325 C2323 1.327 . S
C2326 C2314 1.349 . S
C2326 H2320 0.950 . S
C2326 C2327 1.327 . S
C2327 H2321 0.950 . S
C2327 C2326 1.327 . S
C2327 C2331 1.429 . S
C2328 C2311 1.574 . S
C2328 H2322 0.949 . S
C2328 C2332 1.368 . S
C2329 C2310 1.429 . S
C2329 C2323 1.429 . S
C2329 C2330 1.523 . S
C2330 C2311 1.368 . S
C2330 C2324 1.368 . S
C2330 C2329 1.523 . S
C2331 C2315 1.429 . S
C2331 C2327 1.429 . S
C2331 C2332 1.523 . S
C2332 C2316 1.368 . S
C2332 C2328 1.368 . S
C2332 C2331 1.523 . S
H2333 C2308 0.950 . S
H2334 C2310 0.950 . S
H2335 C2311 0.949 . S
H2336 C2313 0.950 . S
H2337 C2315 0.950 . S
C2338 C2339 1.349 . S
C2338 C2340 1.327 . S
C2338 H2363 0.950 . S
C2339 C2338 1.349 . S
C2339 C2355 1.349 . S
C2340 C2338 1.327 . S
C2340 C2359 1.429 . S
C2340 H2364 0.950 . S
C2341 C2358 1.574 . S
C2341 C2360 1.368 . S
C2341 H2365 0.949 . S
H2342 C2346 0.949 . S
C2343 C2344 1.349 . S
C2343 C2345 1.327 . S
C2343 H2366 0.950 . S
C2344 C2343 1.349 . S
C2344 C2356 1.349 . S
C2345 C2343 1.327 . S
C2345 C2361 1.429 . S
C2345 H2367 0.950 . S
C2346 H2342 0.949 . S
C2346 C2354 1.574 . S
C2346 C2362 1.368 . S
H2347 C2355 0.950 . S
H2348 C2353 0.950 . S
H2349 C2354 0.949 . S
H2350 C2356 0.950 . S
H2351 C2357 0.950 . S
H2352 C2358 0.949 . S
C2353 H2348 0.950 . S
C2353 C2355 1.327 . S
C2353 C2359 1.429 . S
C2354 C2346 1.574 . S
C2354 H2349 0.949 . S
C2354 C2360 1.368 . S
C2355 C2339 1.349 . S
C2355 H2347 0.950 . S
C2355 C2353 1.327 . S
C2356 C2344 1.349 . S
C2356 H2350 0.950 . S
C2356 C2357 1.327 . S
C2357 H2351 0.950 . S
C2357 C2356 1.327 . S
C2357 C2361 1.429 . S
C2358 C2341 1.574 . S
C2358 H2352 0.949 . S
C2358 C2362 1.368 . S
C2359 C2340 1.429 . S
C2359 C2353 1.429 . S
C2359 C2360 1.523 . S
C2360 C2341 1.368 . S
C2360 C2354 1.368 . S
C2360 C2359 1.523 . S
C2361 C2345 1.429 . S
C2361 C2357 1.429 . S
C2361 C2362 1.523 . S
C2362 C2346 1.368 . S
C2362 C2358 1.368 . S
C2362 C2361 1.523 . S
H2363 C2338 0.950 . S
H2364 C2340 0.950 . S
H2365 C2341 0.949 . S
H2366 C2343 0.950 . S
H2367 C2345 0.950 . S
C1409 C49 1.019 . S
C1414 C372 1.019 . S
C1439 C460 1.020 . S
C1444 C137 1.020 . S
C1469 C225 1.020 . S
C1474 C548 1.020 . S
C1499 C313 1.020 . S
C1504 C636 1.020 . S
C1529 C733 1.012 . S
C1534 C1105 1.012 . S
C1559 C1201 1.012 . S
C1564 C821 1.012 . S
C1589 C900 1.012 . S
C1594 C1289 1.012 . S
C1619 C988 1.012 . S
C1624 C1369 1.012 . S
C1649 C57 0.979 . S
C1654 C1340 0.960 . S
C1679 C1076 0.960 . S
C1684 C145 0.978 . S
C1709 C233 0.979 . S
C1714 C1173 0.960 . S
C1739 C1261 0.960 . S
C1744 C321 0.978 . S
C1769 C849 0.960 . S
C1774 C381 0.979 . S
C1799 C929 0.960 . S
C1804 C469 0.979 . S
C1829 C1017 0.960 . S
C1834 C557 0.979 . S
C1859 C761 0.960 . S
C1864 C645 0.978 . S
C1889 C724 0.988 . S
C1894 C673 0.957 . S
C1919 C409 0.957 . S
C1924 C812 0.988 . S
C1949 C497 0.957 . S
C1954 C909 0.987 . S
C1979 C997 0.988 . S
C1984 C585 0.957 . S
C2009 C117 0.957 . S
C2014 C1113 0.988 . S
C2039 C1193 0.988 . S
C2044 C205 0.957 . S
C2069 C1281 0.988 . S
C2074 C293 0.957 . S
C2099 C1377 0.988 . S
C2104 C29 0.957 . S
C2129 C665 1.301 . S
C2134 C20 1.301 . S
C2159 C108 1.301 . S
C2164 C401 1.301 . S
C2189 C196 1.301 . S
C2194 C489 1.301 . S
C2219 C284 1.301 . S
C2224 C577 1.301 . S
C2249 C1349 1.286 . S
C2254 C753 1.286 . S
C2279 C1085 1.286 . S
C2284 C841 1.286 . S
C2309 C1164 1.286 . S
C2314 C937 1.286 . S
C2339 C1252 1.286 . S
C2344 C1025 1.286 . S
