# Generated by pormake.
# Topology zfv, (5)-cn, num edge types: 1
# Building blocks:
#     Node 0, Type 0, BuildingBlock: XOMCOT_clean_sbu_1, # of connection points: 5
#     Node 1, Type 0, BuildingBlock: XOMCOT_clean_sbu_1, # of connection points: 5
#     Node 2, Type 0, BuildingBlock: XOMCOT_clean_sbu_1, # of connection points: 5
#     Node 3, Type 0, BuildingBlock: XOMCOT_clean_sbu_1, # of connection points: 5
#     Node 4, Type 0, BuildingBlock: XOMCOT_clean_sbu_1, # of connection points: 5
#     Node 5, Type 0, BuildingBlock: XOMCOT_clean_sbu_1, # of connection points: 5
#     Node 6, Type 0, BuildingBlock: XOMCOT_clean_sbu_1, # of connection points: 5
#     Node 7, Type 0, BuildingBlock: XOMCOT_clean_sbu_1, # of connection points: 5
#     Node 8, Type 0, BuildingBlock: XOMCOT_clean_sbu_1, # of connection points: 5
#     Node 9, Type 0, BuildingBlock: XOMCOT_clean_sbu_1, # of connection points: 5
#     Node 10, Type 0, BuildingBlock: XOMCOT_clean_sbu_1, # of connection points: 5
#     Node 11, Type 0, BuildingBlock: XOMCOT_clean_sbu_1, # of connection points: 5
#     Node 12, Type 0, BuildingBlock: XOMCOT_clean_sbu_1, # of connection points: 5
#     Node 13, Type 0, BuildingBlock: XOMCOT_clean_sbu_1, # of connection points: 5
#     Node 14, Type 0, BuildingBlock: XOMCOT_clean_sbu_1, # of connection points: 5
#     Node 15, Type 0, BuildingBlock: XOMCOT_clean_sbu_1, # of connection points: 5
#     Edge 16, Type (0, 0), BuildingBlock: TEMPAE_clean_linker_10, # of connection points: 2
#     Edge 17, Type (0, 0), BuildingBlock: TEMPAE_clean_linker_10, # of connection points: 2
#     Edge 18, Type (0, 0), BuildingBlock: TEMPAE_clean_linker_10, # of connection points: 2
#     Edge 19, Type (0, 0), BuildingBlock: TEMPAE_clean_linker_10, # of connection points: 2
#     Edge 20, Type (0, 0), BuildingBlock: TEMPAE_clean_linker_10, # of connection points: 2
#     Edge 21, Type (0, 0), BuildingBlock: TEMPAE_clean_linker_10, # of connection points: 2
#     Edge 22, Type (0, 0), BuildingBlock: TEMPAE_clean_linker_10, # of connection points: 2
#     Edge 23, Type (0, 0), BuildingBlock: TEMPAE_clean_linker_10, # of connection points: 2
#     Edge 24, Type (0, 0), BuildingBlock: TEMPAE_clean_linker_10, # of connection points: 2
#     Edge 25, Type (0, 0), BuildingBlock: TEMPAE_clean_linker_10, # of connection points: 2
#     Edge 26, Type (0, 0), BuildingBlock: TEMPAE_clean_linker_10, # of connection points: 2
#     Edge 27, Type (0, 0), BuildingBlock: TEMPAE_clean_linker_10, # of connection points: 2
#     Edge 28, Type (0, 0), BuildingBlock: TEMPAE_clean_linker_10, # of connection points: 2
#     Edge 29, Type (0, 0), BuildingBlock: TEMPAE_clean_linker_10, # of connection points: 2
#     Edge 30, Type (0, 0), BuildingBlock: TEMPAE_clean_linker_10, # of connection points: 2
#     Edge 31, Type (0, 0), BuildingBlock: TEMPAE_clean_linker_10, # of connection points: 2
#     Edge 32, Type (0, 0), BuildingBlock: TEMPAE_clean_linker_10, # of connection points: 2
#     Edge 33, Type (0, 0), BuildingBlock: TEMPAE_clean_linker_10, # of connection points: 2
#     Edge 34, Type (0, 0), BuildingBlock: TEMPAE_clean_linker_10, # of connection points: 2
#     Edge 35, Type (0, 0), BuildingBlock: TEMPAE_clean_linker_10, # of connection points: 2
#     Edge 36, Type (0, 0), BuildingBlock: TEMPAE_clean_linker_10, # of connection points: 2
#     Edge 37, Type (0, 0), BuildingBlock: TEMPAE_clean_linker_10, # of connection points: 2
#     Edge 38, Type (0, 0), BuildingBlock: TEMPAE_clean_linker_10, # of connection points: 2
#     Edge 39, Type (0, 0), BuildingBlock: TEMPAE_clean_linker_10, # of connection points: 2
#     Edge 40, Type (0, 0), BuildingBlock: TEMPAE_clean_linker_10, # of connection points: 2
#     Edge 41, Type (0, 0), BuildingBlock: TEMPAE_clean_linker_10, # of connection points: 2
#     Edge 42, Type (0, 0), BuildingBlock: TEMPAE_clean_linker_10, # of connection points: 2
#     Edge 43, Type (0, 0), BuildingBlock: TEMPAE_clean_linker_10, # of connection points: 2
#     Edge 44, Type (0, 0), BuildingBlock: TEMPAE_clean_linker_10, # of connection points: 2
#     Edge 45, Type (0, 0), BuildingBlock: TEMPAE_clean_linker_10, # of connection points: 2
#     Edge 46, Type (0, 0), BuildingBlock: TEMPAE_clean_linker_10, # of connection points: 2
#     Edge 47, Type (0, 0), BuildingBlock: TEMPAE_clean_linker_10, # of connection points: 2
#     Edge 48, Type (0, 0), BuildingBlock: TEMPAE_clean_linker_10, # of connection points: 2
#     Edge 49, Type (0, 0), BuildingBlock: TEMPAE_clean_linker_10, # of connection points: 2
#     Edge 50, Type (0, 0), BuildingBlock: TEMPAE_clean_linker_10, # of connection points: 2
#     Edge 51, Type (0, 0), BuildingBlock: TEMPAE_clean_linker_10, # of connection points: 2
#     Edge 52, Type (0, 0), BuildingBlock: TEMPAE_clean_linker_10, # of connection points: 2
#     Edge 53, Type (0, 0), BuildingBlock: TEMPAE_clean_linker_10, # of connection points: 2
#     Edge 54, Type (0, 0), BuildingBlock: TEMPAE_clean_linker_10, # of connection points: 2
#     Edge 55, Type (0, 0), BuildingBlock: TEMPAE_clean_linker_10, # of connection points: 2
# Relax obj value: 0.103
# Max RMSD: 0.112
# Mean RMSD: 0.112
data_MOF--net-zfv--node1-XOMCOT_clean_sbu_1--edge1-TEMPAE_clean_linker_10
_symmetry_space_group_name_H-M    P1
_symmetry_Int_Tables_number       1
_symmetry_cell_setting            triclinic
loop_
_symmetry_equiv_pos_as_xyz
'x, y, z'
_cell_length_a     77.51668
_cell_length_b     77.595635
_cell_length_c     17.810837
_cell_angle_alpha  90.04421
_cell_angle_beta   90.018843
_cell_angle_gamma 89.970777
loop_
_atom_site_label
_atom_site_type_symbol
_atom_site_fract_x
_atom_site_fract_y
_atom_site_fract_z
_atom_type_partial_charge
C0 C 0.05456 0.58812 0.06896 0.0
C1 C 0.05241 0.58774 0.14556 0.0
N2 N 0.06791 0.59025 0.17784 0.0
N3 N 0.07129 0.59114 0.05306 0.0
C4 C 0.0792 0.59213 0.12064 0.0
H5 H 0.04449 0.58687 0.02726 0.0
Co6 Co 0.07941 0.59473 0.95611 0.0
C7 C 0.1056 0.62187 0.97009 0.0
O8 O 0.09799 0.6295 0.91309 0.0
N9 N 0.08766 0.59751 0.85619 0.0
C10 C 0.10625 0.59781 0.76033 0.0
C11 C 0.10456 0.597 0.83694 0.0
C12 C 0.07935 0.59749 0.78913 0.0
N13 N 0.09037 0.59806 0.73045 0.0
O14 O 0.09179 0.57344 0.96199 0.0
H15 H 0.11512 0.59552 0.87608 0.0
H16 H 0.06558 0.59631 0.78235 0.0
O17 O 0.09967 0.60751 0.9947 0.0
C18 C 0.08375 0.56108 0.93054 0.0
O19 O 0.06912 0.5645 0.89634 0.0
N20 N 0.06577 0.61518 0.95252 0.0
C21 C 0.04073 0.64098 0.96791 0.0
C22 C 0.05515 0.6406 1.01502 0.0
C23 C 0.06733 0.62751 1.00727 0.0
C24 C 0.05151 0.61516 0.90754 0.0
C25 C 0.03907 0.6282 0.91281 0.0
H26 H 0.07739 0.62672 0.04903 0.0
H27 H 0.04886 0.60427 0.87192 0.0
H28 H 0.09278 0.5949 0.12799 0.0
H29 H 0.04037 0.58597 0.17538 0.0
H30 H 0.11817 0.59737 0.72877 0.0
H31 H 0.05665 0.64998 0.05968 0.0
H32 H 0.02767 0.62762 0.87767 0.0
C33 C 0.74018 0.75886 0.48021 0.0
C34 C 0.74231 0.76014 0.55649 0.0
N35 N 0.72833 0.76798 0.5856 0.0
N36 N 0.72494 0.76589 0.46048 0.0
C37 C 0.71803 0.77152 0.52608 0.0
H38 H 0.74883 0.75236 0.44191 0.0
Co39 Co 0.7163 0.76336 0.36293 0.0
C40 C 0.68882 0.78917 0.34166 0.0
O41 O 0.68049 0.7777 0.30133 0.0
N42 N 0.70812 0.76013 0.26149 0.0
C43 C 0.69572 0.74906 0.15912 0.0
C44 C 0.69782 0.7474 0.23506 0.0
C45 C 0.71207 0.76938 0.19878 0.0
N46 N 0.70468 0.76287 0.13575 0.0
O47 O 0.73608 0.77571 0.32594 0.0
H48 H 0.692 0.73728 0.26748 0.0
H49 H 0.72029 0.78064 0.19918 0.0
O50 O 0.70333 0.7852 0.37157 0.0
C51 C 0.74737 0.76628 0.29393 0.0
O52 O 0.74378 0.74994 0.28233 0.0
N53 N 0.69811 0.74995 0.40277 0.0
C54 C 0.67393 0.72604 0.45352 0.0
C55 C 0.67115 0.74373 0.46365 0.0
C56 C 0.68353 0.75551 0.43871 0.0
C57 C 0.70179 0.73277 0.40024 0.0
C58 C 0.68967 0.72056 0.42316 0.0
H59 H 0.68129 0.76897 0.44947 0.0
H60 H 0.71389 0.72853 0.3762 0.0
H61 H 0.70527 0.77705 0.53092 0.0
H62 H 0.75303 0.75505 0.58854 0.0
H63 H 0.68857 0.74031 0.12347 0.0
H64 H 0.65936 0.74842 0.48911 0.0
H65 H 0.69249 0.70697 0.41654 0.0
C66 C 0.56062 0.4174 0.63568 0.0
C67 C 0.56196 0.41929 0.71218 0.0
N68 N 0.54933 0.41005 0.74493 0.0
N69 N 0.54714 0.40708 0.61962 0.0
C70 C 0.54045 0.40285 0.68744 0.0
H71 H 0.56934 0.4227 0.59443 0.0
Co72 Co 0.54228 0.39933 0.52242 0.0
C73 C 0.5055 0.39402 0.56873 0.0
O74 O 0.50158 0.41047 0.56607 0.0
N75 N 0.53763 0.39142 0.42445 0.0
C76 C 0.5297 0.37419 0.33062 0.0
C77 C 0.53068 0.37596 0.40728 0.0
C78 C 0.54079 0.39881 0.35692 0.0
N79 N 0.53606 0.38858 0.29881 0.0
O80 O 0.531 0.42084 0.50171 0.0
H81 H 0.52675 0.36641 0.44799 0.0
H82 H 0.54684 0.41124 0.35004 0.0
O83 O 0.52083 0.38902 0.55456 0.0
C84 C 0.5406 0.43285 0.47672 0.0
O85 O 0.55677 0.42926 0.46093 0.0
N86 N 0.55444 0.37898 0.5433 0.0
C87 C 0.57698 0.35246 0.58381 0.0
C88 C 0.56034 0.3534 0.61457 0.0
C89 C 0.54929 0.3668 0.59393 0.0
C90 C 0.57034 0.37804 0.51113 0.0
C91 C 0.58181 0.36484 0.53032 0.0
H92 H 0.53691 0.36764 0.62127 0.0
H93 H 0.57436 0.38799 0.47237 0.0
H94 H 0.52986 0.39395 0.69489 0.0
H95 H 0.57173 0.42668 0.7414 0.0
H96 H 0.5246 0.36317 0.30066 0.0
H97 H 0.556 0.34404 0.65547 0.0
H98 H 0.5946 0.36478 0.5058 0.0
C99 C 0.89562 0.25542 0.90637 0.0
C100 C 0.89328 0.25779 0.98219 0.0
N101 N 0.89936 0.24381 0.0179 0.0
N102 N 0.90391 0.24037 0.89359 0.0
C103 C 0.90512 0.23321 0.96308 0.0
H104 H 0.89129 0.26416 0.86307 0.0
Co105 Co 0.90973 0.23241 0.79512 0.0
C106 C 0.9335 0.20985 0.88407 0.0
O107 O 0.93985 0.22337 0.91904 0.0
N108 N 0.91458 0.22478 0.69672 0.0
C109 C 0.92342 0.20978 0.59723 0.0
C110 C 0.92268 0.21022 0.67432 0.0
C111 C 0.91032 0.23283 0.63181 0.0
N112 N 0.91557 0.22396 0.57054 0.0
O113 O 0.8881 0.22043 0.79253 0.0
H114 H 0.92786 0.20046 0.71109 0.0
H115 H 0.90364 0.24507 0.62943 0.0
O116 O 0.92128 0.2118 0.83643 0.0
C117 C 0.87629 0.22954 0.76245 0.0
O118 O 0.88041 0.2449 0.73711 0.0
N119 N 0.93065 0.24535 0.79457 0.0
C120 C 0.96003 0.26616 0.80222 0.0
C121 C 0.96144 0.24873 0.7826 0.0
C122 C 0.94652 0.23857 0.77797 0.0
C123 C 0.92907 0.2627 0.80496 0.0
C124 C 0.94355 0.27323 0.81119 0.0
H125 H 0.94787 0.22515 0.76318 0.0
H126 H 0.91655 0.26859 0.80782 0.0
H127 H 0.90993 0.22043 0.97427 0.0
H128 H 0.88734 0.26883 1.00898 0.0
H129 H 0.92901 0.19963 0.56327 0.0
H130 H 0.97394 0.2429 0.77293 0.0
H131 H 0.94188 0.28686 0.8224 0.0
C132 C 0.06937 0.42038 0.83256 0.0
C133 C 0.06802 0.42197 0.75587 0.0
N134 N 0.07987 0.41162 0.72366 0.0
N135 N 0.08209 0.40916 0.84915 0.0
C136 C 0.08823 0.40401 0.78154 0.0
H137 H 0.06121 0.42664 0.87347 0.0
Co138 Co 0.08735 0.40142 0.94597 0.0
C139 C 0.12425 0.3934 0.93673 0.0
O140 O 0.12709 0.40245 0.99789 0.0
N141 N 0.09231 0.39335 0.04405 0.0
C142 C 0.0998 0.37582 0.1376 0.0
C143 C 0.09887 0.37769 0.061 0.0
C144 C 0.08932 0.40073 0.1119 0.0
N145 N 0.09378 0.39032 0.16973 0.0
O146 O 0.0981 0.42321 0.9668 0.0
H147 H 0.10269 0.3681 0.02022 0.0
H148 H 0.08353 0.41326 0.11936 0.0
O149 O 0.10903 0.39224 0.9101 0.0
C150 C 0.08803 0.4346 0.99397 0.0
O151 O 0.07211 0.43016 1.01021 0.0
N152 N 0.07566 0.38091 0.92507 0.0
C153 C 0.05355 0.35367 0.89143 0.0
C154 C 0.07113 0.35269 0.87321 0.0
C155 C 0.08201 0.36659 0.88976 0.0
C156 C 0.05872 0.38189 0.94452 0.0
C157 C 0.04741 0.36846 0.92796 0.0
H158 H 0.09538 0.36582 0.87322 0.0
H159 H 0.05393 0.3934 0.9718 0.0
H160 H 0.0981 0.39427 0.77466 0.0
H161 H 0.05887 0.43 0.72617 0.0
H162 H 0.10461 0.36464 0.16733 0.0
H163 H 0.0763 0.34151 0.84456 0.0
H164 H 0.03395 0.36963 0.9435 0.0
C165 C 0.88139 0.75814 0.08143 0.0
C166 C 0.87915 0.75925 1.00513 0.0
N167 N 0.89277 0.7676 0.97566 0.0
N168 N 0.89635 0.76578 0.10081 0.0
C169 C 0.90296 0.77162 0.035 0.0
H170 H 0.87305 0.75134 0.11996 0.0
Co171 Co 0.90531 0.76362 0.19809 0.0
C172 C 0.93192 0.79045 0.21737 0.0
O173 O 0.941 0.77953 0.25742 0.0
N174 N 0.91388 0.76077 0.29906 0.0
C175 C 0.92695 0.75015 0.40068 0.0
C176 C 0.92491 0.74858 0.32462 0.0
C177 C 0.90947 0.76964 0.36231 0.0
N178 N 0.91722 0.76337 0.42498 0.0
O179 O 0.88532 0.77554 0.23574 0.0
H180 H 0.93125 0.73889 0.29141 0.0
H181 H 0.90063 0.78042 0.36262 0.0
O182 O 0.91755 0.78574 0.1884 0.0
C183 C 0.87414 0.766 0.26773 0.0
O184 O 0.87793 0.7497 0.27937 0.0
N185 N 0.92377 0.75068 0.15735 0.0
C186 C 0.9478 0.72744 0.0975 0.0
C187 C 0.95011 0.74531 0.09007 0.0
C188 C 0.93788 0.7567 0.11956 0.0
C189 C 0.92058 0.73341 0.15945 0.0
C190 C 0.93259 0.72156 0.13182 0.0
H191 H 0.93969 0.77024 0.10946 0.0
H192 H 0.90887 0.7288 0.18571 0.0
H193 H 0.91547 0.77766 0.02988 0.0
H194 H 0.86862 0.7537 0.97333 0.0
H195 H 0.93458 0.74169 0.43572 0.0
H196 H 0.96115 0.75053 0.06061 0.0
H197 H 0.93006 0.70795 0.13893 0.0
C198 C 0.56637 0.58684 0.42918 0.0
C199 C 0.56843 0.5863 0.35249 0.0
N200 N 0.55278 0.58789 0.32045 0.0
N201 N 0.54953 0.58906 0.4454 0.0
C202 C 0.5415 0.58939 0.37794 0.0
H203 H 0.57655 0.58619 0.47065 0.0
Co204 Co 0.54098 0.59228 0.54218 0.0
C205 C 0.5151 0.6198 0.52387 0.0
O206 O 0.52262 0.6281 0.57928 0.0
N207 N 0.53217 0.59476 0.64181 0.0
C208 C 0.5133 0.59591 0.73653 0.0
C209 C 0.51522 0.59555 0.65992 0.0
C210 C 0.54015 0.59343 0.70947 0.0
N211 N 0.52901 0.59454 0.7676 0.0
O212 O 0.52873 0.57097 0.53349 0.0
H213 H 0.5047 0.59519 0.62012 0.0
H214 H 0.55372 0.59094 0.71694 0.0
O215 O 0.5209 0.60514 0.5023 0.0
C216 C 0.537 0.55864 0.56404 0.0
O217 O 0.55142 0.56225 0.59957 0.0
N218 N 0.55459 0.61267 0.54916 0.0
C219 C 0.57935 0.63909 0.54607 0.0
C220 C 0.56587 0.63862 0.49349 0.0
C221 C 0.55386 0.62522 0.49521 0.0
C222 C 0.56806 0.61253 0.59841 0.0
C223 C 0.58022 0.62582 0.59945 0.0
H224 H 0.5445 0.6245 0.4504 0.0
H225 H 0.57026 0.60151 0.63356 0.0
H226 H 0.52777 0.59134 0.37086 0.0
H227 H 0.58051 0.585 0.32246 0.0
H228 H 0.50123 0.59633 0.76712 0.0
H229 H 0.56507 0.64801 0.44869 0.0
H230 H 0.59056 0.6253 0.64026 0.0
C231 C 0.7253 0.25365 0.6557 0.0
C232 C 0.72629 0.25609 0.57933 0.0
N233 N 0.72056 0.2417 0.54495 0.0
N234 N 0.719 0.23781 0.66963 0.0
C235 C 0.7163 0.23078 0.60113 0.0
H236 H 0.7287 0.26292 0.69862 0.0
Co237 Co 0.71496 0.22963 0.76607 0.0
C238 C 0.69003 0.20148 0.74882 0.0
O239 O 0.68118 0.20853 0.80378 0.0
N240 N 0.71176 0.22133 0.86555 0.0
C241 C 0.71436 0.20287 0.96081 0.0
C242 C 0.71441 0.20464 0.88434 0.0
C243 C 0.71069 0.22952 0.9328 0.0
N244 N 0.71216 0.21854 0.99153 0.0
O245 O 0.73723 0.21882 0.76506 0.0
H246 H 0.71722 0.19442 0.84493 0.0
H247 H 0.71034 0.24333 0.93937 0.0
O248 O 0.70408 0.20845 0.72614 0.0
C249 C 0.74853 0.2277 0.79974 0.0
O250 O 0.74359 0.2421 0.83225 0.0
N251 N 0.69366 0.2418 0.76532 0.0
C252 C 0.66618 0.26496 0.74686 0.0
C253 C 0.66755 0.25023 0.70179 0.0
C254 C 0.68153 0.23911 0.71061 0.0
C255 C 0.69276 0.25633 0.80834 0.0
C256 C 0.67899 0.26791 0.80106 0.0
H257 H 0.68302 0.22891 0.66997 0.0
H258 H 0.70335 0.2597 0.84465 0.0
H259 H 0.71126 0.21793 0.59249 0.0
H260 H 0.7305 0.26773 0.55138 0.0
H261 H 0.71646 0.191 0.9914 0.0
H262 H 0.65847 0.24784 0.65675 0.0
H263 H 0.67874 0.27937 0.83577 0.0
C264 C 0.40551 0.24304 0.64138 0.0
C265 C 0.40552 0.24089 0.56483 0.0
N266 N 0.40751 0.25647 0.53256 0.0
N267 N 0.40757 0.25987 0.65747 0.0
C268 C 0.40872 0.26779 0.59014 0.0
H269 H 0.40399 0.233 0.68295 0.0
Co270 Co 0.40746 0.26836 0.75451 0.0
C271 C 0.4299 0.2987 0.75731 0.0
O272 O 0.43616 0.2925 0.82037 0.0
N273 N 0.40644 0.27689 0.85437 0.0
C274 C 0.39924 0.29487 0.9469 0.0
C275 C 0.39977 0.29256 0.87066 0.0
C276 C 0.40964 0.26982 0.9226 0.0
N277 N 0.40541 0.28053 0.97969 0.0
O278 O 0.38486 0.27762 0.7369 0.0
H279 H 0.39536 0.30178 0.82934 0.0
H280 H 0.4143 0.25689 0.9312 0.0
O281 O 0.41824 0.29024 0.72188 0.0
C282 C 0.37291 0.26806 0.76272 0.0
O283 O 0.3773 0.25396 0.79887 0.0
N284 N 0.42921 0.25768 0.76918 0.0
C285 C 0.45762 0.23527 0.76431 0.0
C286 C 0.45757 0.25067 0.72321 0.0
C287 C 0.44318 0.26148 0.72521 0.0
C288 C 0.42895 0.24266 0.80887 0.0
C289 C 0.44313 0.23148 0.80868 0.0
H290 H 0.44285 0.2721 0.68623 0.0
H291 H 0.4172 0.2386 0.83622 0.0
H292 H 0.40995 0.28159 0.58343 0.0
H293 H 0.40423 0.22877 0.53529 0.0
H294 H 0.39459 0.30622 0.97591 0.0
H295 H 0.46802 0.25379 0.68529 0.0
H296 H 0.44239 0.2196 0.84033 0.0
C297 C 0.21158 0.75189 0.1092 0.0
C298 C 0.21052 0.7532 0.03249 0.0
N299 N 0.21195 0.73726 1.0035 0.0
N300 N 0.21335 0.73516 0.12843 0.0
C301 C 0.21379 0.72653 0.06257 0.0
H302 H 0.21092 0.76247 0.14865 0.0
Co303 Co 0.21411 0.72721 0.22686 0.0
C304 C 0.19095 0.69728 0.23282 0.0
O305 O 0.18535 0.70347 0.29709 0.0
N306 N 0.21561 0.71917 0.32676 0.0
C307 C 0.22135 0.70082 0.4199 0.0
C308 C 0.2214 0.70316 0.34362 0.0
C309 C 0.21278 0.72654 0.39464 0.0
N310 N 0.21597 0.71555 0.45168 0.0
O311 O 0.23653 0.71727 0.20924 0.0
H312 H 0.22532 0.69364 0.30265 0.0
H313 H 0.20848 0.73961 0.4032 0.0
O314 O 0.20274 0.70542 0.19686 0.0
C315 C 0.24903 0.72765 0.19881 0.0
O316 O 0.24583 0.74425 0.19507 0.0
N317 N 0.19248 0.73827 0.24296 0.0
C318 C 0.16431 0.76092 0.23719 0.0
C319 C 0.16405 0.74532 0.19774 0.0
C320 C 0.17833 0.7344 0.20004 0.0
C321 C 0.19289 0.75342 0.28196 0.0
C322 C 0.17882 0.76476 0.28117 0.0
H323 H 0.17843 0.72365 0.16164 0.0
H324 H 0.20476 0.75755 0.3082 0.0
H325 H 0.21507 0.71268 0.05798 0.0
H326 H 0.20898 0.76493 1.00031 0.0
H327 H 0.22525 0.68933 0.44989 0.0
H328 H 0.15327 0.742 0.16186 0.0
H329 H 0.17984 0.777 0.31011 0.0
C330 C 0.23575 0.25087 0.85955 0.0
C331 C 0.2383 0.25126 0.93586 0.0
N332 N 0.22736 0.26286 0.96586 0.0
N333 N 0.22324 0.26213 0.84098 0.0
C334 C 0.21844 0.26941 0.90703 0.0
H335 H 0.24208 0.24231 0.82032 0.0
Co336 Co 0.21419 0.263 0.74382 0.0
C337 C 0.18849 0.29128 0.74466 0.0
O338 O 0.17809 0.28187 0.70359 0.0
N339 N 0.20528 0.26325 0.64208 0.0
C340 C 0.1896 0.25713 0.54015 0.0
C341 C 0.19104 0.25504 0.61609 0.0
C342 C 0.21218 0.27032 0.5788 0.0
N343 N 0.20291 0.26671 0.51605 0.0
O344 O 0.23461 0.27496 0.71278 0.0
H345 H 0.18178 0.24806 0.64936 0.0
H346 H 0.22385 0.27792 0.57823 0.0
O347 O 0.20308 0.28525 0.76558 0.0
C348 C 0.24625 0.26548 0.68359 0.0
O349 O 0.24241 0.24941 0.66736 0.0
N350 N 0.1953 0.2499 0.77824 0.0
C351 C 0.16984 0.22676 0.82403 0.0
C352 C 0.16944 0.24398 0.84789 0.0
C353 C 0.18245 0.25531 0.82526 0.0
C354 C 0.19665 0.23289 0.75984 0.0
C355 C 0.18384 0.22117 0.78054 0.0
H356 H 0.18218 0.26829 0.84672 0.0
H357 H 0.20748 0.22855 0.72652 0.0
H358 H 0.20794 0.27851 0.91264 0.0
H359 H 0.24713 0.24321 0.96727 0.0
H360 H 0.17969 0.25146 0.50515 0.0
H361 H 0.15908 0.24871 0.88314 0.0
H362 H 0.18493 0.20785 0.76301 0.0
C363 C 0.39662 0.75045 0.45261 0.0
C364 C 0.39419 0.7515 0.52872 0.0
N365 N 0.39696 0.73581 0.55921 0.0
N366 N 0.40091 0.7342 0.434 0.0
C367 C 0.40101 0.72552 0.50002 0.0
H368 H 0.39613 0.76109 0.41348 0.0
Co369 Co 0.40776 0.72846 0.33639 0.0
C370 C 0.41638 0.69179 0.34368 0.0
O371 O 0.40668 0.68906 0.28433 0.0
N372 N 0.41482 0.72323 0.23779 0.0
C373 C 0.43168 0.71683 0.14058 0.0
C374 C 0.43076 0.71794 0.21744 0.0
C375 C 0.40622 0.72513 0.17207 0.0
N376 N 0.41624 0.72133 0.11212 0.0
O377 O 0.38578 0.71767 0.31866 0.0
H378 H 0.44121 0.71538 0.25613 0.0
H379 H 0.39311 0.72983 0.16797 0.0
O380 O 0.41754 0.70691 0.37139 0.0
C381 C 0.37363 0.72842 0.30736 0.0
O382 O 0.37725 0.74495 0.30688 0.0
N383 N 0.42857 0.7401 0.35332 0.0
C384 C 0.45692 0.76149 0.37928 0.0
C385 C 0.45493 0.74602 0.41928 0.0
C386 C 0.44059 0.73551 0.40573 0.0
C387 C 0.43027 0.75503 0.31391 0.0
C388 C 0.44438 0.76586 0.32565 0.0
H389 H 0.43896 0.72397 0.43885 0.0
H390 H 0.42038 0.7587 0.27417 0.0
H391 H 0.40452 0.71208 0.50466 0.0
H392 H 0.3915 0.76325 0.55921 0.0
H393 H 0.44287 0.71317 0.10791 0.0
H394 H 0.46428 0.74212 0.46113 0.0
H395 H 0.44514 0.77783 0.29463 0.0
C396 C 0.56096 0.08047 0.66669 0.0
C397 C 0.55969 0.0786 0.74325 0.0
N398 N 0.57245 0.08772 0.77586 0.0
N399 N 0.57453 0.09064 0.65043 0.0
C400 C 0.58135 0.0948 0.71817 0.0
H401 H 0.55212 0.07527 0.62561 0.0
Co402 Co 0.5795 0.09862 0.55364 0.0
C403 C 0.61657 0.10572 0.55785 0.0
O404 O 0.61859 0.09649 0.4966 0.0
N405 N 0.58413 0.10686 0.45551 0.0
C406 C 0.59152 0.12447 0.36219 0.0
C407 C 0.59044 0.12262 0.43881 0.0
C408 C 0.5814 0.09942 0.38761 0.0
N409 N 0.58582 0.10985 0.32984 0.0
O410 O 0.58965 0.07665 0.53031 0.0
H411 H 0.594 0.13225 0.47991 0.0
H412 H 0.57588 0.08677 0.38009 0.0
O413 O 0.60164 0.10727 0.58721 0.0
C414 C 0.5794 0.06549 0.50265 0.0
O415 O 0.56338 0.07002 0.48879 0.0
N416 N 0.56848 0.11943 0.57711 0.0
C417 C 0.54738 0.1471 0.61728 0.0
C418 C 0.564 0.14542 0.64774 0.0
C419 C 0.5744 0.13149 0.62681 0.0
C420 C 0.55253 0.12102 0.54589 0.0
C421 C 0.5418 0.13482 0.56476 0.0
H422 H 0.58694 0.13021 0.65256 0.0
H423 H 0.54794 0.1112 0.50764 0.0
H424 H 0.59205 0.10358 0.72539 0.0
H425 H 0.54987 0.07133 0.77258 0.0
H426 H 0.59625 0.1357 0.33267 0.0
H427 H 0.56884 0.15468 0.6881 0.0
H428 H 0.52899 0.1355 0.5406 0.0
C429 C 0.05935 0.91843 0.18184 0.0
C430 C 0.06062 0.92038 0.25836 0.0
N431 N 0.04793 0.91119 0.29107 0.0
N432 N 0.04586 0.90813 0.16572 0.0
C433 C 0.03909 0.90397 0.23347 0.0
H434 H 0.06811 0.9237 0.14065 0.0
Co435 Co 0.04088 0.90027 0.06884 0.0
C436 C 0.00417 0.89195 0.07453 0.0
O437 O 0.0018 0.90174 1.01525 0.0
N438 N 0.03624 0.89217 0.97052 0.0
C439 C 0.02922 0.8745 0.87678 0.0
C440 C 0.03029 0.87628 0.95341 0.0
C441 C 0.03879 0.89975 0.90286 0.0
N442 N 0.03459 0.88928 0.84481 0.0
O443 O 0.02976 0.92188 0.04786 0.0
H444 H 0.02704 0.8665 0.99424 0.0
H445 H 0.04406 0.91251 0.89576 0.0
O446 O 0.0192 0.89051 0.10308 0.0
C447 C 0.03954 0.93352 0.02094 0.0
O448 O 0.05568 0.92958 1.00602 0.0
N449 N 0.05289 0.8799 0.08987 0.0
C450 C 0.07547 0.853 0.12499 0.0
C451 C 0.05908 0.854 0.15845 0.0
C452 C 0.04795 0.86757 0.14017 0.0
C453 C 0.06856 0.87899 0.0557 0.0
C454 C 0.07999 0.8656 0.07191 0.0
H455 H 0.03567 0.86841 0.16849 0.0
H456 H 0.07233 0.88898 0.01665 0.0
H457 H 0.02844 0.89513 0.24076 0.0
H458 H 0.07036 0.92779 0.28758 0.0
H459 H 0.02477 0.86318 0.84698 0.0
H460 H 0.05509 0.84473 0.20038 0.0
H461 H 0.09233 0.86525 0.04351 0.0
C462 C 0.55553 0.90424 0.35074 0.0
C463 C 0.55349 0.908 0.27606 0.0
N464 N 0.56828 0.91483 0.24994 0.0
N465 N 0.57172 0.90817 0.37273 0.0
C466 C 0.57889 0.91544 0.31067 0.0
H467 H 0.54581 0.8985 0.38625 0.0
Co468 Co 0.57975 0.90384 0.4722 0.0
C469 C 0.60969 0.88864 0.37858 0.0
O470 O 0.60193 0.88959 0.31332 0.0
N471 N 0.58694 0.89984 0.57255 0.0
C472 C 0.59608 0.8855 0.67323 0.0
C473 C 0.59482 0.88532 0.59632 0.0
C474 C 0.58349 0.90867 0.63679 0.0
N475 N 0.5889 0.90016 0.69901 0.0
O476 O 0.5901 0.92621 0.47406 0.0
H477 H 0.59842 0.87469 0.56041 0.0
H478 H 0.57626 0.92059 0.63851 0.0
O479 O 0.60186 0.89352 0.43827 0.0
C480 C 0.57939 0.93771 0.49484 0.0
O481 O 0.56357 0.93294 0.51142 0.0
N482 N 0.56846 0.88226 0.47234 0.0
C483 C 0.54668 0.85354 0.47049 0.0
C484 C 0.56128 0.85426 0.424 0.0
C485 C 0.57196 0.86876 0.42548 0.0
C486 C 0.55466 0.88155 0.51965 0.0
C487 C 0.54362 0.86732 0.51978 0.0
H488 H 0.58247 0.86931 0.38637 0.0
H489 H 0.55183 0.89243 0.55567 0.0
H490 H 0.5919 0.9205 0.30936 0.0
H491 H 0.5422 0.90501 0.24277 0.0
H492 H 0.60141 0.87533 0.70777 0.0
H493 H 0.56398 0.84406 0.38417 0.0
H494 H 0.5326 0.86728 0.55713 0.0
C495 C 0.06052 0.07749 0.8775 0.0
C496 C 0.06202 0.07547 0.80105 0.0
N497 N 0.04862 0.08348 0.76771 0.0
N498 N 0.0462 0.08665 0.89292 0.0
C499 C 0.03915 0.09007 0.82488 0.0
H500 H 0.06957 0.07293 0.91921 0.0
Co501 Co 0.04017 0.09375 0.98983 0.0
C502 C 0.00369 0.10306 0.97193 0.0
O503 O -0.00038 0.09162 0.02334 0.0
N504 N 0.03438 0.10104 0.08809 0.0
C505 C 0.02647 0.11809 0.18258 0.0
C506 C 0.02768 0.11659 0.10592 0.0
C507 C 0.03725 0.09339 0.15537 0.0
N508 N 0.03255 0.10351 0.21389 0.0
O509 O 0.0283 0.0723 1.00405 0.0
H510 H 0.02429 0.12645 0.06567 0.0
H511 H 0.04332 0.08095 0.16182 0.0
O512 O 0.01941 0.10477 0.95203 0.0
C513 C 0.03799 0.06055 0.03082 0.0
O514 O 0.05399 0.0645 0.04812 0.0
N515 N 0.05302 0.11387 0.97611 0.0
C516 C 0.07675 0.14042 0.95318 0.0
C517 C 0.06153 0.13949 0.91046 0.0
C518 C 0.04981 0.12608 0.92274 0.0
C519 C 0.06753 0.11471 0.019 0.0
C520 C 0.07947 0.12795 1.00909 0.0
H521 H 0.03856 0.12518 0.88723 0.0
H522 H 0.07003 0.10476 0.06013 0.0
H523 H 0.02773 0.09787 0.81711 0.0
H524 H 0.07233 0.06876 0.77238 0.0
H525 H 0.02161 0.12918 0.21285 0.0
H526 H 0.05899 0.14861 0.86582 0.0
H527 H 0.09086 0.12825 0.04426 0.0
C528 C 0.09468 0.60887 0.60223 0.0
C529 C 0.08634 0.5976 0.65169 0.0
C530 C 0.09154 0.60816 0.52465 0.0
C531 C 0.0802 0.59548 0.49568 0.0
C532 C 0.07178 0.584 0.54562 0.0
C533 C 0.07477 0.58538 0.62328 0.0
C534 C 0.10034 0.62098 0.47375 0.0
C535 C 0.05994 0.57004 0.5169 0.0
C536 C 0.06017 0.60151 0.3025 0.0
C537 C 0.07129 0.59183 0.25696 0.0
C538 C 0.06307 0.60303 0.38004 0.0
C539 C 0.07716 0.59424 0.41316 0.0
C540 C 0.08837 0.58434 0.3673 0.0
C541 C 0.08544 0.58348 0.28945 0.0
C542 C 0.05113 0.61415 0.42638 0.0
C543 C 0.10329 0.57445 0.40063 0.0
H544 H 0.10356 0.61834 0.62469 0.0
H545 H 0.06853 0.57655 0.66174 0.0
H546 H 0.10894 0.61414 0.43387 0.0
H547 H 0.09058 0.628 0.43994 0.0
H548 H 0.10814 0.63052 0.50557 0.0
H549 H 0.05467 0.56196 0.56295 0.0
H550 H 0.04902 0.57584 0.48561 0.0
H551 H 0.06703 0.5616 0.47712 0.0
H552 H 0.04934 0.60812 0.27697 0.0
H553 H 0.09392 0.5759 0.25406 0.0
H554 H 0.05867 0.62416 0.45647 0.0
H555 H 0.04458 0.6062 0.46951 0.0
H556 H 0.04115 0.62061 0.39159 0.0
H557 H 0.11237 0.58344 0.42857 0.0
H558 H 0.11049 0.56696 0.35765 0.0
H559 H 0.0985 0.56542 0.4442 0.0
C560 C 0.72227 0.77567 0.03329 0.0
C561 C 0.70689 0.76803 0.05817 0.0
C562 C 0.72544 0.77819 0.95606 0.0
C563 C 0.71302 0.7728 0.90239 0.0
C564 C 0.69707 0.76607 0.92758 0.0
C565 C 0.69417 0.76393 1.00482 0.0
C566 C 0.74249 0.7857 0.93177 0.0
C567 C 0.68346 0.76005 0.87281 0.0
C568 C 0.71619 0.78417 0.69358 0.0
C569 C 0.72436 0.76947 0.6646 0.0
C570 C 0.71284 0.78575 0.77121 0.0
C571 C 0.7174 0.77212 0.82054 0.0
C572 C 0.72548 0.75721 0.79104 0.0
C573 C 0.72896 0.75615 0.71387 0.0
C574 C 0.70449 0.80197 0.80049 0.0
C575 C 0.73019 0.74216 0.84082 0.0
H576 H 0.73219 0.77889 0.07376 0.0
H577 H 0.68206 0.75845 0.0234 0.0
H578 H 0.75063 0.7754 0.90699 0.0
H579 H 0.7405 0.79565 0.88788 0.0
H580 H 0.74962 0.79156 0.97951 0.0
H581 H 0.67119 0.75659 0.90122 0.0
H582 H 0.68076 0.77016 0.83048 0.0
H583 H 0.68826 0.74854 0.84214 0.0
H584 H 0.71274 0.79452 0.65568 0.0
H585 H 0.73503 0.74465 0.69159 0.0
H586 H 0.71266 0.80778 0.84499 0.0
H587 H 0.69186 0.79887 0.82636 0.0
H588 H 0.70242 0.81167 0.75553 0.0
H589 H 0.73906 0.74646 0.88598 0.0
H590 H 0.73649 0.73155 0.80917 0.0
H591 H 0.71842 0.73701 0.86827 0.0
C592 C 0.54034 0.37838 0.16857 0.0
C593 C 0.5377 0.39199 0.2193 0.0
C594 C 0.5418 0.38136 0.09102 0.0
C595 C 0.54046 0.39838 0.063 0.0
C596 C 0.5377 0.41219 0.1138 0.0
C597 C 0.53645 0.40884 0.19131 0.0
C598 C 0.54498 0.36629 0.03913 0.0
C599 C 0.53608 0.43051 0.08623 0.0
C600 C 0.56112 0.4079 0.87365 0.0
C601 C 0.54695 0.40726 0.82458 0.0
C602 C 0.55916 0.40516 0.95111 0.0
C603 C 0.54257 0.40175 0.98084 0.0
C604 C 0.52817 0.40113 0.93178 0.0
C605 C 0.53055 0.40382 0.85425 0.0
C606 C 0.5749 0.4057 1.00106 0.0
C607 C 0.51026 0.39761 0.96121 0.0
H608 H 0.54157 0.36535 0.18972 0.0
H609 H 0.53422 0.41938 0.22997 0.0
H610 H 0.53468 0.3656 0.996 0.0
H611 H 0.55739 0.36809 1.00909 0.0
H612 H 0.54544 0.35381 0.06963 0.0
H613 H 0.53346 0.43973 0.13259 0.0
H614 H 0.54814 0.43444 0.05749 0.0
H615 H 0.52549 0.43144 0.04449 0.0
H616 H 0.5739 0.41023 0.85127 0.0
H617 H 0.51952 0.40344 0.81691 0.0
H618 H 0.57661 0.39307 0.02933 0.0
H619 H 0.57317 0.41554 0.04564 0.0
H620 H 0.58686 0.40873 0.96936 0.0
H621 H 0.50989 0.38479 0.98868 0.0
H622 H 0.50037 0.3979 0.91607 0.0
H623 H 0.5068 0.40732 1.00442 0.0
C624 C 0.89698 0.23414 0.46685 0.0
C625 C 0.91298 0.22813 0.49244 0.0
C626 C 0.89394 0.23683 0.38973 0.0
C627 C 0.90739 0.23389 0.33725 0.0
C628 C 0.92374 0.22831 0.36336 0.0
C629 C 0.92624 0.22529 0.44039 0.0
C630 C 0.87624 0.24243 0.36424 0.0
C631 C 0.93858 0.22546 0.3099 0.0
C632 C 0.89797 0.2251 0.13028 0.0
C633 C 0.90064 0.24136 0.0981 0.0
C634 C 0.8996 0.2226 0.20828 0.0
C635 C 0.90446 0.23659 0.25503 0.0
C636 C 0.90718 0.25303 0.22262 0.0
C637 C 0.90505 0.25525 0.14482 0.0
C638 C 0.89622 0.20495 0.24062 0.0
C639 C 0.91282 0.26819 0.2698 0.0
H640 H 0.88667 0.23613 0.507 0.0
H641 H 0.93865 0.22076 0.4603 0.0
H642 H 0.8771 0.25478 0.33319 0.0
H643 H 0.87083 0.23271 0.325 0.0
H644 H 0.86716 0.24409 0.41195 0.0
H645 H 0.95067 0.22187 0.33955 0.0
H646 H 0.93532 0.21508 0.26953 0.0
H647 H 0.94098 0.23734 0.2768 0.0
H648 H 0.89443 0.21439 0.09441 0.0
H649 H 0.90736 0.26777 0.11998 0.0
H650 H 0.88651 0.20583 0.28625 0.0
H651 H 0.90824 0.19973 0.26567 0.0
H652 H 0.89151 0.19571 0.19757 0.0
H653 H 0.90337 0.27056 0.3154 0.0
H654 H 0.91418 0.28017 0.23621 0.0
H655 H 0.92539 0.26529 0.2968 0.0
C656 C 0.09396 0.41032 0.27824 0.0
C657 C 0.09203 0.39361 0.24929 0.0
C658 C 0.09259 0.41355 0.35584 0.0
C659 C 0.08897 0.39978 0.40571 0.0
C660 C 0.08692 0.38291 0.37667 0.0
C661 C 0.08856 0.38003 0.29908 0.0
C662 C 0.09505 0.43169 0.38452 0.0
C663 C 0.08276 0.3679 0.42748 0.0
C664 C 0.09851 0.40423 0.61526 0.0
C665 C 0.08225 0.40862 0.64415 0.0
C666 C 0.10096 0.40152 0.53778 0.0
C667 C 0.08677 0.40305 0.48795 0.0
C668 C 0.07031 0.40735 0.51694 0.0
C669 C 0.06828 0.41014 0.5944 0.0
C670 C 0.11875 0.39708 0.5092 0.0
C671 C 0.05477 0.40883 0.46619 0.0
H672 H 0.09683 0.42083 0.24024 0.0
H673 H 0.08681 0.36713 0.27709 0.0
H674 H 0.08311 0.43618 0.41271 0.0
H675 H 0.10553 0.43196 0.42696 0.0
H676 H 0.09829 0.44087 0.33884 0.0
H677 H 0.08172 0.35555 0.39621 0.0
H678 H 0.09289 0.36653 0.4711 0.0
H679 H 0.07038 0.37031 0.45696 0.0
H680 H 0.10939 0.40318 0.65316 0.0
H681 H 0.05562 0.41323 0.61624 0.0
H682 H 0.12292 0.40678 0.46725 0.0
H683 H 0.11849 0.3844 0.48043 0.0
H684 H 0.12846 0.39657 0.55501 0.0
H685 H 0.05711 0.41873 0.42246 0.0
H686 H 0.04288 0.41234 0.49746 0.0
H687 H 0.05254 0.39641 0.43686 0.0
C688 C 0.92739 0.7643 0.55661 0.0
C689 C 0.91467 0.76817 0.50292 0.0
C690 C 0.92429 0.76625 0.63386 0.0
C691 C 0.90813 0.77254 0.65877 0.0
C692 C 0.89565 0.77764 0.60486 0.0
C693 C 0.89902 0.77532 0.52764 0.0
C694 C 0.93797 0.76052 0.6889 0.0
C695 C 0.87837 0.7847 0.62883 0.0
C696 C 0.89244 0.75568 0.84734 0.0
C697 C 0.89667 0.76915 0.89657 0.0
C698 C 0.89596 0.75675 0.77018 0.0
C699 C 0.9037 0.77182 0.74061 0.0
C700 C 0.90786 0.78559 0.78988 0.0
C701 C 0.90448 0.78401 0.86748 0.0
C702 C 0.89167 0.74155 0.72049 0.0
C703 C 0.91584 0.80199 0.76057 0.0
H704 H 0.93969 0.75922 0.53832 0.0
H705 H 0.88908 0.77835 0.48702 0.0
H706 H 0.94043 0.77074 0.73113 0.0
H707 H 0.93338 0.74897 0.71966 0.0
H708 H 0.95034 0.75727 0.66073 0.0
H709 H 0.8711 0.79031 0.58095 0.0
H710 H 0.87052 0.7742 0.65367 0.0
H711 H 0.88004 0.79474 0.67262 0.0
H712 H 0.88666 0.74405 0.86964 0.0
H713 H 0.90766 0.79448 0.9053 0.0
H714 H 0.90359 0.73665 0.69336 0.0
H715 H 0.88275 0.74559 0.67509 0.0
H716 H 0.88559 0.73082 0.75214 0.0
H717 H 0.92858 0.79917 0.73503 0.0
H718 H 0.91761 0.81178 0.80544 0.0
H719 H 0.90758 0.80755 0.71581 0.0
C720 C 0.54456 0.5816 0.87468 0.0
C721 C 0.53277 0.59368 0.84672 0.0
C722 C 0.54772 0.58023 0.95226 0.0
C723 C 0.53922 0.59153 1.00276 0.0
C724 C 0.52752 0.60397 0.9744 0.0
C725 C 0.52428 0.60472 0.89688 0.0
C726 C 0.55997 0.56654 0.98028 0.0
C727 C 0.51855 0.61658 0.02586 0.0
C728 C 0.53518 0.58001 0.21017 0.0
C729 C 0.54918 0.58892 0.24125 0.0
C730 C 0.53195 0.58049 0.13244 0.0
C731 C 0.54269 0.59053 0.08514 0.0
C732 C 0.55664 0.59982 0.11675 0.0
C733 C 0.55985 0.5987 0.19422 0.0
C734 C 0.51719 0.57009 0.10081 0.0
C735 C 0.56809 0.61108 0.06889 0.0
H736 H 0.55096 0.57294 0.83591 0.0
H737 H 0.51527 0.61414 0.87502 0.0
H738 H 0.57096 0.57263 1.01008 0.0
H739 H 0.55328 0.55809 0.02122 0.0
H740 H 0.56513 0.55843 0.93402 0.0
H741 H 0.5102 0.62575 0.99466 0.0
H742 H 0.51049 0.60954 0.06708 0.0
H743 H 0.52826 0.62405 0.05815 0.0
H744 H 0.52704 0.57235 0.2466 0.0
H745 H 0.57056 0.60574 0.21854 0.0
H746 H 0.52204 0.56111 0.0571 0.0
H747 H 0.50771 0.57876 0.07342 0.0
H748 H 0.51043 0.56249 0.1447 0.0
H749 H 0.57458 0.60319 0.02531 0.0
H750 H 0.57812 0.61782 0.10245 0.0
H751 H 0.56017 0.62088 0.03932 0.0
C752 C 0.72998 0.24737 0.4147 0.0
C753 C 0.71894 0.23891 0.46504 0.0
C754 C 0.72858 0.24484 0.33683 0.0
C755 C 0.71579 0.23359 0.3083 0.0
C756 C 0.70446 0.22514 0.35869 0.0
C757 C 0.70619 0.22787 0.43638 0.0
C758 C 0.74103 0.25396 0.28517 0.0
C759 C 0.69061 0.21309 0.33054 0.0
C760 C 0.70389 0.23651 0.10075 0.0
C761 C 0.71326 0.22269 0.07047 0.0
C762 C 0.70452 0.24021 0.17812 0.0
C763 C 0.71487 0.22994 0.22612 0.0
C764 C 0.72453 0.21614 0.19557 0.0
C765 C 0.72359 0.21269 0.11838 0.0
C766 C 0.69399 0.25501 0.20863 0.0
C767 C 0.73589 0.20499 0.24447 0.0
H768 H 0.73999 0.25575 0.4363 0.0
H769 H 0.69743 0.22151 0.47468 0.0
H770 H 0.74897 0.24435 0.25462 0.0
H771 H 0.73384 0.26149 0.24247 0.0
H772 H 0.74979 0.26282 0.31598 0.0
H773 H 0.68241 0.20805 0.37671 0.0
H774 H 0.68225 0.21982 0.28937 0.0
H775 H 0.69662 0.20201 0.30101 0.0
H776 H 0.69582 0.24419 0.06411 0.0
H777 H 0.73115 0.20222 0.09531 0.0
H778 H 0.70256 0.26444 0.23697 0.0
H779 H 0.68477 0.2502 0.25138 0.0
H780 H 0.68664 0.26179 0.16397 0.0
H781 H 0.74571 0.21306 0.27312 0.0
H782 H 0.74264 0.1948 0.21191 0.0
H783 H 0.72803 0.19873 0.28877 0.0
C784 C 0.39865 0.24955 0.40294 0.0
C785 C 0.40774 0.26013 0.45316 0.0
C786 C 0.39878 0.25279 0.32549 0.0
C787 C 0.40826 0.26696 0.29728 0.0
C788 C 0.41752 0.27768 0.34753 0.0
C789 C 0.41711 0.27417 0.42494 0.0
C790 C 0.38856 0.24117 0.27395 0.0
C791 C 0.42783 0.29287 0.31954 0.0
C792 C 0.41912 0.26636 0.08883 0.0
C793 C 0.4063 0.27716 0.05926 0.0
C794 C 0.42013 0.26315 0.16639 0.0
C795 C 0.40794 0.27083 0.2154 0.0
C796 C 0.395 0.28175 0.18583 0.0
C797 C 0.39435 0.28479 0.10828 0.0
C798 C 0.43416 0.25148 0.1959 0.0
C799 C 0.38164 0.29003 0.23601 0.0
H800 H 0.39116 0.23886 0.42437 0.0
H801 H 0.42431 0.28226 0.46332 0.0
H802 H 0.37854 0.24878 0.24422 0.0
H803 H 0.39715 0.23554 0.23058 0.0
H804 H 0.38214 0.2305 0.30468 0.0
H805 H 0.43457 0.29976 0.36573 0.0
H806 H 0.43756 0.28847 0.27806 0.0
H807 H 0.4192 0.3021 0.29036 0.0
H808 H 0.4285 0.2606 0.05136 0.0
H809 H 0.38425 0.29292 0.0858 0.0
H810 H 0.42833 0.2401 0.22367 0.0
H811 H 0.44191 0.25837 0.23888 0.0
H812 H 0.44294 0.24693 0.15074 0.0
H813 H 0.37397 0.27992 0.26468 0.0
H814 H 0.37268 0.29853 0.20439 0.0
H815 H 0.38807 0.29778 0.28028 0.0
C816 C 0.20618 0.70665 0.57675 0.0
C817 C 0.21435 0.71876 0.53066 0.0
C818 C 0.20502 0.70922 0.65453 0.0
C819 C 0.21273 0.72399 0.68696 0.0
C820 C 0.22108 0.73623 0.64044 0.0
C821 C 0.22155 0.73358 0.5625 0.0
C822 C 0.19554 0.69617 0.70189 0.0
C823 C 0.2298 0.75193 0.67314 0.0
C824 C 0.19879 0.73998 0.87887 0.0
C825 C 0.21153 0.73291 0.92528 0.0
C826 C 0.19873 0.73676 0.80142 0.0
C827 C 0.21206 0.72666 0.76956 0.0
C828 C 0.22492 0.71939 0.81648 0.0
C829 C 0.22433 0.7224 0.89419 0.0
C830 C 0.18449 0.74429 0.75368 0.0
C831 C 0.23956 0.70889 0.78435 0.0
H832 H 0.20054 0.69526 0.55148 0.0
H833 H 0.22802 0.74278 0.52648 0.0
H834 H 0.20452 0.69022 0.74284 0.0
H835 H 0.18521 0.70264 0.73456 0.0
H836 H 0.18965 0.68577 0.66747 0.0
H837 H 0.23607 0.75998 0.6294 0.0
H838 H 0.22025 0.75997 0.70354 0.0
H839 H 0.23972 0.74791 0.7145 0.0
H840 H 0.18885 0.74801 0.90358 0.0
H841 H 0.23424 0.71713 0.93048 0.0
H842 H 0.17819 0.73396 0.7204 0.0
H843 H 0.18997 0.75368 0.7133 0.0
H844 H 0.17452 0.75093 0.78789 0.0
H845 H 0.23442 0.69763 0.75312 0.0
H846 H 0.24852 0.70416 0.8285 0.0
H847 H 0.24698 0.71681 0.74379 0.0
C848 C 0.22388 0.27277 0.41367 0.0
C849 C 0.20681 0.27049 0.43814 0.0
C850 C 0.22783 0.27389 0.33651 0.0
C851 C 0.21446 0.27247 0.28246 0.0
C852 C 0.19715 0.27116 0.30706 0.0
C853 C 0.19356 0.2704 0.38423 0.0
C854 C 0.24643 0.2757 0.31279 0.0
C855 C 0.18245 0.26944 0.25182 0.0
C856 C 0.22102 0.28207 0.07366 0.0
C857 C 0.22429 0.26556 0.04497 0.0
C858 C 0.21837 0.28469 0.15122 0.0
C859 C 0.21855 0.27038 0.2008 0.0
C860 C 0.22172 0.25368 0.17166 0.0
C861 C 0.2247 0.25153 0.0945 0.0
C862 C 0.2154 0.30273 0.18013 0.0
C863 C 0.22157 0.23798 0.22175 0.0
H864 H 0.23424 0.27288 0.45444 0.0
H865 H 0.18028 0.26916 0.40226 0.0
H866 H 0.25101 0.26333 0.28867 0.0
H867 H 0.2477 0.28567 0.26852 0.0
H868 H 0.25494 0.27916 0.36067 0.0
H869 H 0.16965 0.26982 0.27978 0.0
H870 H 0.18298 0.2799 0.20948 0.0
H871 H 0.18364 0.25703 0.22122 0.0
H872 H 0.22083 0.29294 0.03552 0.0
H873 H 0.22698 0.23872 0.07239 0.0
H874 H 0.22483 0.30574 0.22513 0.0
H875 H 0.20234 0.30372 0.20523 0.0
H876 H 0.21657 0.31255 0.1351 0.0
H877 H 0.23129 0.23942 0.26705 0.0
H878 H 0.22437 0.22592 0.19038 0.0
H879 H 0.20877 0.23669 0.24901 0.0
C880 C 0.3899 0.74322 0.69126 0.0
C881 C 0.39735 0.73183 0.63891 0.0
C882 C 0.39185 0.74079 0.76894 0.0
C883 C 0.40103 0.72631 0.79588 0.0
C884 C 0.40767 0.71416 0.74389 0.0
C885 C 0.40591 0.71713 0.66619 0.0
C886 C 0.38475 0.75423 0.82208 0.0
C887 C 0.41719 0.69831 0.77027 0.0
C888 C 0.42382 0.73056 0.98426 0.0
C889 C 0.41206 0.72285 0.03357 0.0
C890 C 0.42033 0.73181 0.9071 0.0
C891 C 0.40487 0.72472 0.87791 0.0
C892 C 0.39299 0.71674 0.9275 0.0
C893 C 0.39662 0.71613 1.00503 0.0
C894 C 0.43312 0.7409 0.85696 0.0
C895 C 0.37659 0.70864 0.89854 0.0
H896 H 0.38279 0.75434 0.67182 0.0
H897 H 0.41173 0.70816 0.62719 0.0
H898 H 0.37628 0.74812 0.86456 0.0
H899 H 0.39553 0.76047 0.85278 0.0
H900 H 0.37728 0.76437 0.79245 0.0
H901 H 0.41978 0.68913 0.72367 0.0
H902 H 0.4297 0.70212 0.79557 0.0
H903 H 0.40966 0.69158 0.81437 0.0
H904 H 0.43569 0.73587 1.00657 0.0
H905 H 0.38763 0.71001 0.0432 0.0
H906 H 0.42671 0.7518 0.82776 0.0
H907 H 0.43791 0.73193 0.81315 0.0
H908 H 0.44436 0.74599 0.8887 0.0
H909 H 0.36847 0.71852 0.87069 0.0
H910 H 0.36894 0.70252 0.94402 0.0
H911 H 0.37973 0.69874 0.85569 0.0
C912 C 0.56086 0.08981 0.90506 0.0
C913 C 0.57494 0.09056 0.85552 0.0
C914 C 0.56293 0.09266 0.98246 0.0
C915 C 0.57952 0.09632 1.0117 0.0
C916 C 0.59382 0.09704 0.96219 0.0
C917 C 0.59136 0.09422 0.88476 0.0
C918 C 0.54728 0.09198 0.03287 0.0
C919 C 0.61174 0.10082 0.99103 0.0
C920 C 0.58158 0.11991 0.19927 0.0
C921 C 0.58441 0.10639 0.25018 0.0
C922 C 0.58016 0.11684 0.12171 0.0
C923 C 0.58172 0.09981 0.09381 0.0
C924 C 0.58473 0.0861 0.14476 0.0
C925 C 0.58596 0.08954 0.22224 0.0
C926 C 0.57673 0.13181 0.06968 0.0
C927 C 0.58659 0.06778 0.1174 0.0
H928 H 0.54808 0.08732 0.88315 0.0
H929 H 0.60232 0.09469 0.84715 0.0
H930 H 0.54922 0.08223 0.0776 0.0
H931 H 0.54545 0.10462 0.06095 0.0
H932 H 0.53531 0.08875 1.00159 0.0
H933 H 0.62154 0.10068 0.94556 0.0
H934 H 0.61198 0.11365 0.0186 0.0
H935 H 0.61542 0.09116 0.03405 0.0
H936 H 0.58012 0.13293 0.22027 0.0
H937 H 0.58837 0.07905 0.26094 0.0
H938 H 0.56427 0.12987 0.0402 0.0
H939 H 0.58693 0.13254 0.02612 0.0
H940 H 0.57624 0.14432 0.09998 0.0
H941 H 0.57453 0.06363 0.08912 0.0
H942 H 0.58943 0.05865 0.16381 0.0
H943 H 0.59711 0.06696 0.07534 0.0
C944 C 0.03421 0.9096 0.73743 0.0
C945 C 0.03601 0.89278 0.76524 0.0
C946 C 0.03543 0.91306 0.66 0.0
C947 C 0.0387 0.89941 0.60902 0.0
C948 C 0.04053 0.88241 0.63679 0.0
C949 C 0.03912 0.87931 0.71428 0.0
C950 C 0.0333 0.93135 0.63273 0.0
C951 C 0.04422 0.86749 0.5847 0.0
C952 C 0.02906 0.90466 0.3999 0.0
C953 C 0.04544 0.90848 0.37076 0.0
C954 C 0.0266 0.90192 0.47735 0.0
C955 C 0.04087 0.90291 0.52698 0.0
C956 C 0.05742 0.90677 0.49787 0.0
C957 C 0.05948 0.90951 0.42044 0.0
C958 C 0.00873 0.89792 0.50607 0.0
C959 C 0.07303 0.90775 0.54845 0.0
H960 H 0.0316 0.92005 0.77618 0.0
H961 H 0.0408 0.86632 0.73517 0.0
H962 H 0.0453 0.93568 0.60454 0.0
H963 H 0.02278 0.93201 0.59059 0.0
H964 H 0.03032 0.94044 0.67916 0.0
H965 H 0.04491 0.85499 0.61492 0.0
H966 H 0.03405 0.8666 0.54104 0.0
H967 H 0.05666 0.86963 0.55535 0.0
H968 H 0.01812 0.90398 0.36219 0.0
H969 H 0.07224 0.91213 0.39862 0.0
H970 H 0.00492 0.90751 0.54925 0.0
H971 H 0.00865 0.88508 0.53341 0.0
H972 H -0.00108 0.89796 0.46056 0.0
H973 H 0.07089 0.91746 0.59322 0.0
H974 H 0.08495 0.91121 0.51729 0.0
H975 H 0.0751 0.89515 0.57645 0.0
C976 C 0.55909 0.92042 0.1189 0.0
C977 C 0.57237 0.91748 0.17117 0.0
C978 C 0.56211 0.9197 0.04105 0.0
C979 C 0.57893 0.91623 1.01393 0.0
C980 C 0.59266 0.91454 0.06617 0.0
C981 C 0.58922 0.91512 0.14399 0.0
C982 C 0.54702 0.92152 0.988 0.0
C983 C 0.61085 0.91111 0.03999 0.0
C984 C 0.58249 0.89147 0.82948 0.0
C985 C 0.58607 0.90451 0.77718 0.0
C986 C 0.58017 0.89516 0.90609 0.0
C987 C 0.58168 0.91236 0.9321 0.0
C988 C 0.5853 0.92564 0.87963 0.0
C989 C 0.58728 0.92159 0.80271 0.0
C990 C 0.57595 0.88059 0.95921 0.0
C991 C 0.58726 0.94409 0.90491 0.0
H992 H 0.54609 0.92265 0.1389 0.0
H993 H 0.59962 0.9128 0.18332 0.0
H994 H 0.55006 0.93085 0.94275 0.0
H995 H 0.54438 0.90892 0.96085 0.0
H996 H 0.53512 0.92585 0.01722 0.0
H997 H 0.62038 0.91251 0.0862 0.0
H998 H 0.61174 0.89781 0.01751 0.0
H999 H 0.61438 0.92005 0.99389 0.0
H1000 H 0.58125 0.87829 0.81014 0.0
H1001 H 0.59016 0.93169 0.76271 0.0
H1002 H 0.56346 0.88316 0.98756 0.0
H1003 H 0.58596 0.87968 1.00353 0.0
H1004 H 0.5751 0.86795 0.93008 0.0
H1005 H 0.57524 0.94855 0.93254 0.0
H1006 H 0.59025 0.9529 0.85751 0.0
H1007 H 0.59776 0.94503 0.9471 0.0
C1008 C 0.03373 0.08317 0.32114 0.0
C1009 C 0.03448 0.10007 0.29331 0.0
C1010 C 0.03544 0.07977 0.39849 0.0
C1011 C 0.03812 0.09359 0.44931 0.0
C1012 C 0.03893 0.11066 0.42147 0.0
C1013 C 0.03708 0.11367 0.34411 0.0
C1014 C 0.03442 0.0614 0.42585 0.0
C1015 C 0.04196 0.12577 0.47335 0.0
C1016 C 0.02918 0.08827 0.65888 0.0
C1017 C 0.04582 0.0856 0.6878 0.0
C1018 C 0.02642 0.09057 0.58134 0.0
C1019 C 0.04064 0.09026 0.53131 0.0
C1020 C 0.05743 0.08745 0.56008 0.0
C1021 C 0.05981 0.08516 0.63766 0.0
C1022 C 0.0083 0.09348 0.553 0.0
C1023 C 0.07298 0.08717 0.509 0.0
H1024 H 0.03156 0.0726 0.28249 0.0
H1025 H 0.03797 0.12674 0.32322 0.0
H1026 H 0.04669 0.05777 0.45378 0.0
H1027 H 0.02401 0.06016 0.46822 0.0
H1028 H 0.0319 0.05215 0.3795 0.0
H1029 H 0.04194 0.13828 0.44306 0.0
H1030 H 0.03184 0.12616 0.51734 0.0
H1031 H 0.05455 0.12426 0.50228 0.0
H1032 H 0.01827 0.08844 0.69682 0.0
H1033 H 0.07275 0.08341 0.65916 0.0
H1034 H 0.00505 0.08372 0.50968 0.0
H1035 H 0.00739 0.10632 0.52595 0.0
H1036 H -0.00143 0.09278 0.59867 0.0
H1037 H 0.07123 0.07737 0.46428 0.0
H1038 H 0.08511 0.08427 0.53978 0.0
H1039 H 0.07439 0.09986 0.48095 0.0
C1040 C 0.10167 0.53789 0.9915 0.0
C1041 C 0.08955 0.54294 0.93723 0.0
C1042 C 0.10519 0.52032 1.00441 0.0
C1043 C 0.09637 0.5076 0.96204 0.0
C1044 C 0.08496 0.51274 0.90412 0.0
C1045 C 0.08171 0.53029 0.89252 0.0
C1046 C 0.11758 0.51538 0.06608 0.0
C1047 C 0.07534 0.49966 0.85718 0.0
C1048 C 0.10629 0.45967 0.95319 0.0
C1049 C 0.09294 0.45303 0.99772 0.0
C1050 C 0.10856 0.47759 0.94541 0.0
C1051 C 0.09721 0.48902 0.9831 0.0
C1052 C 0.08469 0.48231 0.03301 0.0
C1053 C 0.08271 0.46443 0.03959 0.0
C1054 C 0.12222 0.48422 0.89256 0.0
C1055 C 0.07241 0.49398 0.07495 0.0
H1056 H 0.10782 0.5476 0.02615 0.0
H1057 H 0.07251 0.53408 0.84974 0.0
H1058 H 0.11021 0.51061 0.11522 0.0
H1059 H 0.12622 0.50481 0.04743 0.0
H1060 H 0.12558 0.52649 0.08447 0.0
H1061 H 0.06805 0.50574 0.81047 0.0
H1062 H 0.08443 0.4901 0.83315 0.0
H1063 H 0.06608 0.49253 0.89314 0.0
H1064 H 0.11429 0.45092 0.92087 0.0
H1065 H 0.07253 0.45937 0.07504 0.0
H1066 H 0.12889 0.49557 0.91687 0.0
H1067 H 0.11606 0.4884 0.83937 0.0
H1068 H 0.13196 0.47416 0.87915 0.0
H1069 H 0.07955 0.50457 0.10295 0.0
H1070 H 0.06485 0.4869 0.118 0.0
H1071 H 0.06326 0.49993 0.03465 0.0
C1072 C 0.84576 0.76282 0.3312 0.0
C1073 C 0.85626 0.77199 0.28124 0.0
C1074 C 0.82792 0.76573 0.33433 0.0
C1075 C 0.82032 0.77804 0.28582 0.0
C1076 C 0.83104 0.78829 0.23938 0.0
C1077 C 0.84894 0.78517 0.23774 0.0
C1078 C 0.81707 0.75465 0.38559 0.0
C1079 C 0.8235 0.80166 0.1874 0.0
C1080 C 0.77562 0.76352 0.22921 0.0
C1081 C 0.7652 0.77238 0.28063 0.0
C1082 C 0.79347 0.76631 0.22634 0.0
C1083 C 0.80118 0.77817 0.27666 0.0
C1084 C 0.79055 0.78817 0.32465 0.0
C1085 C 0.77262 0.78518 0.32597 0.0
C1086 C 0.80422 0.75553 0.17338 0.0
C1087 C 0.7982 0.80106 0.3786 0.0
H1088 H 0.85139 0.75276 0.36563 0.0
H1089 H 0.857 0.7923 0.1989 0.0
H1090 H 0.80793 0.76273 0.41813 0.0
H1091 H 0.80933 0.74552 0.35142 0.0
H1092 H 0.82506 0.74709 0.42556 0.0
H1093 H 0.8335 0.81069 0.16634 0.0
H1094 H 0.81752 0.79513 0.13844 0.0
H1095 H 0.81324 0.80917 0.21602 0.0
H1096 H 0.76991 0.75375 0.19342 0.0
H1097 H 0.76463 0.79204 0.36601 0.0
H1098 H 0.81187 0.74605 0.20611 0.0
H1099 H 0.81345 0.76376 0.14213 0.0
H1100 H 0.79617 0.74837 0.13225 0.0
H1101 H 0.80409 0.79411 0.42661 0.0
H1102 H 0.78827 0.81004 0.40092 0.0
H1103 H 0.80854 0.80867 0.35115 0.0
C1104 C 0.52105 0.53519 0.49504 0.0
C1105 C 0.53199 0.54035 0.55368 0.0
C1106 C 0.51873 0.51759 0.47822 0.0
C1107 C 0.52755 0.50496 0.52107 0.0
C1108 C 0.53765 0.51015 0.58338 0.0
C1109 C 0.53973 0.52773 0.59882 0.0
C1110 C 0.50769 0.51259 0.41194 0.0
C1111 C 0.54722 0.49717 0.63104 0.0
C1112 C 0.52044 0.45649 0.51748 0.0
C1113 C 0.53482 0.45107 0.47578 0.0
C1114 C 0.517 0.47415 0.52813 0.0
C1115 C 0.52822 0.48659 0.4964 0.0
C1116 C 0.54189 0.48113 0.44934 0.0
C1117 C 0.54501 0.46347 0.43966 0.0
C1118 C 0.50213 0.47943 0.5777 0.0
C1119 C 0.55411 0.49391 0.41382 0.0
H1120 H 0.51501 0.54488 0.45996 0.0
H1121 H 0.54801 0.5316 0.6449 0.0
H1122 H 0.51611 0.5088 0.36437 0.0
H1123 H 0.49946 0.50134 0.42578 0.0
H1124 H 0.49931 0.52339 0.39326 0.0
H1125 H 0.55329 0.50318 0.68113 0.0
H1126 H 0.53834 0.48687 0.65019 0.0
H1127 H 0.55749 0.49096 0.59706 0.0
H1128 H 0.51245 0.44699 0.54534 0.0
H1129 H 0.55599 0.4594 0.40641 0.0
H1130 H 0.49519 0.49063 0.55348 0.0
H1131 H 0.50715 0.48339 0.63345 0.0
H1132 H 0.49284 0.46871 0.58606 0.0
H1133 H 0.54682 0.50433 0.38538 0.0
H1134 H 0.56283 0.48773 0.37224 0.0
H1135 H 0.56214 0.49998 0.45813 0.0
C1136 C 0.85161 0.2113 0.80895 0.0
C1137 C 0.85796 0.22411 0.7608 0.0
C1138 C 0.83373 0.20824 0.81492 0.0
C1139 C 0.82205 0.21824 0.77178 0.0
C1140 C 0.82855 0.23031 0.71943 0.0
C1141 C 0.84637 0.23308 0.71464 0.0
C1142 C 0.82734 0.19509 0.87062 0.0
C1143 C 0.81663 0.24122 0.67197 0.0
C1144 C 0.77375 0.2105 0.7508 0.0
C1145 C 0.7671 0.22303 0.79976 0.0
C1146 C 0.79168 0.20787 0.74444 0.0
C1147 C 0.80315 0.21804 0.78786 0.0
C1148 C 0.7964 0.2299 0.84067 0.0
C1149 C 0.77851 0.23222 0.84596 0.0
C1150 C 0.79836 0.19493 0.68826 0.0
C1151 C 0.80809 0.241 0.88835 0.0
H1152 H 0.8605 0.20427 0.84458 0.0
H1153 H 0.85118 0.24281 0.67637 0.0
H1154 H 0.82202 0.2018 0.92054 0.0
H1155 H 0.81679 0.18725 0.84598 0.0
H1156 H 0.83782 0.18635 0.88955 0.0
H1157 H 0.82373 0.24879 0.62904 0.0
H1158 H 0.80699 0.23301 0.64305 0.0
H1159 H 0.80946 0.25032 0.70856 0.0
H1160 H 0.76501 0.20326 0.71522 0.0
H1161 H 0.77351 0.24174 0.88481 0.0
H1162 H 0.80902 0.18722 0.71277 0.0
H1163 H 0.8036 0.20182 0.63873 0.0
H1164 H 0.78805 0.18605 0.66877 0.0
H1165 H 0.81788 0.23296 0.91716 0.0
H1166 H 0.80084 0.24842 0.93139 0.0
H1167 H 0.81509 0.25026 0.85195 0.0
C1168 C 0.27059 0.28445 0.72604 0.0
C1169 C 0.26448 0.27116 0.67973 0.0
C1170 C 0.28841 0.28727 0.73495 0.0
C1171 C 0.30032 0.2766 0.69638 0.0
C1172 C 0.29413 0.2642 0.64458 0.0
C1173 C 0.27631 0.2616 0.6371 0.0
C1174 C 0.29445 0.30072 0.79025 0.0
C1175 C 0.30632 0.25266 0.60157 0.0
C1176 C 0.34902 0.28394 0.69612 0.0
C1177 C 0.35439 0.27196 0.75031 0.0
C1178 C 0.33137 0.2862 0.6797 0.0
C1179 C 0.31888 0.27629 0.7186 0.0
C1180 C 0.32426 0.26479 0.7757 0.0
C1181 C 0.34189 0.26276 0.79065 0.0
C1182 C 0.32614 0.29863 0.6187 0.0
C1183 C 0.31143 0.25405 0.81913 0.0
H1184 H 0.26153 0.2919 0.75916 0.0
H1185 H 0.27166 0.25145 0.60047 0.0
H1186 H 0.29883 0.29428 0.8425 0.0
H1187 H 0.30557 0.30803 0.76743 0.0
H1188 H 0.284 0.30993 0.80497 0.0
H1189 H 0.29963 0.24537 0.55642 0.0
H1190 H 0.31688 0.26031 0.57609 0.0
H1191 H 0.3123 0.24326 0.6407 0.0
H1192 H 0.3586 0.29111 0.66477 0.0
H1193 H 0.3459 0.25362 0.83324 0.0
H1194 H 0.31536 0.30694 0.63795 0.0
H1195 H 0.32148 0.29131 0.56915 0.0
H1196 H 0.33704 0.30695 0.60078 0.0
H1197 H 0.30132 0.26241 0.84395 0.0
H1198 H 0.31762 0.24657 0.86496 0.0
H1199 H 0.30492 0.24488 0.78057 0.0
C1200 C 0.2797 0.73097 0.16124 0.0
C1201 C 0.26717 0.7218 0.2013 0.0
C1202 C 0.29734 0.72825 0.17423 0.0
C1203 C 0.30258 0.71639 0.23021 0.0
C1204 C 0.28999 0.70617 0.26691 0.0
C1205 C 0.27238 0.70889 0.25147 0.0
C1206 C 0.31029 0.73913 0.13233 0.0
C1207 C 0.29498 0.69346 0.32717 0.0
C1208 C 0.35122 0.70965 0.24676 0.0
C1209 C 0.35557 0.723 0.29624 0.0
C1210 C 0.33386 0.70666 0.2269 0.0
C1211 C 0.32069 0.71708 0.25861 0.0
C1212 C 0.32508 0.72975 0.31263 0.0
C1213 C 0.34245 0.73269 0.32989 0.0
C1214 C 0.32978 0.69318 0.16853 0.0
C1215 C 0.3115 0.74091 0.34926 0.0
H1216 H 0.27568 0.74085 0.1219 0.0
H1217 H 0.26269 0.70184 0.28284 0.0
H1218 H 0.31556 0.74913 0.17058 0.0
H1219 H 0.32126 0.73112 0.11269 0.0
H1220 H 0.30442 0.74569 0.08311 0.0
H1221 H 0.28429 0.68441 0.34024 0.0
H1222 H 0.3065 0.68592 0.3102 0.0
H1223 H 0.29834 0.70058 0.37921 0.0
H1224 H 0.36142 0.70225 0.22027 0.0
H1225 H 0.34585 0.74294 0.36864 0.0
H1226 H 0.32668 0.69963 0.11459 0.0
H1227 H 0.31832 0.68553 0.18511 0.0
H1228 H 0.34081 0.6843 0.15907 0.0
H1229 H 0.30586 0.74975 0.30689 0.0
H1230 H 0.31684 0.74879 0.39589 0.0
H1231 H 0.30087 0.73284 0.37163 0.0
C1232 C 0.59736 0.03971 0.53649 0.0
C1233 C 0.5846 0.04732 0.49161 0.0
C1234 C 0.59998 0.02174 0.53541 0.0
C1235 C 0.58972 0.01129 0.48775 0.0
C1236 C 0.57783 0.01915 0.43805 0.0
C1237 C 0.57534 0.03703 0.44101 0.0
C1238 C 0.61279 0.01388 0.58921 0.0
C1239 C 0.56681 0.00858 0.38542 0.0
C1240 C 0.597 0.96328 0.45418 0.0
C1241 C 0.58405 0.95617 0.49955 0.0
C1242 C 0.59968 0.98124 0.45217 0.0
C1243 C 0.58931 0.99219 0.49722 0.0
C1244 C 0.57699 0.98488 0.54646 0.0
C1245 C 0.57445 0.96701 0.54658 0.0
C1246 C 0.61292 0.98853 0.39887 0.0
C1247 C 0.56581 0.996 0.59634 0.0
H1248 H 0.60455 0.04762 0.57572 0.0
H1249 H 0.56563 0.0429 0.40542 0.0
H1250 H 0.60574 0.00777 0.63641 0.0
H1251 H 0.62045 0.00367 0.56113 0.0
H1252 H 0.62173 0.02368 0.6127 0.0
H1253 H 0.55988 0.01673 0.34393 0.0
H1254 H 0.57482 -0.00094 0.35465 0.0
H1255 H 0.5571 0.00128 0.41837 0.0
H1256 H 0.60444 0.95492 0.41768 0.0
H1257 H 0.56459 0.96155 0.58259 0.0
H1258 H 0.62082 -0.00147 0.42713 0.0
H1259 H 0.60624 0.9948 0.35103 0.0
H1260 H 0.62161 0.97838 0.37632 0.0
H1261 H 0.57388 0.00516 0.6288 0.0
H1262 H 0.55804 0.98824 0.63637 0.0
H1263 H 0.55685 0.00371 0.56122 0.0
C1264 C 0.0432 0.96281 0.96693 0.0
C1265 C 0.03378 0.95162 1.01302 0.0
C1266 C 0.04013 0.98061 0.96771 0.0
C1267 C 0.0274 0.98745 0.01631 0.0
C1268 C 0.01696 0.97609 0.05894 0.0
C1269 C 0.02025 0.95824 0.05664 0.0
C1270 C 0.05143 0.99217 0.92047 0.0
C1271 C 0.00317 0.98285 0.11094 0.0
C1272 C 0.04111 0.03135 0.08588 0.0
C1273 C 0.03239 0.04238 0.0365 0.0
C1274 C 0.03853 0.0135 0.08364 0.0
C1275 C 0.02704 0.00641 0.03011 0.0
C1276 C 0.01723 0.01758 0.98373 0.0
C1277 C 0.01998 0.03551 0.98764 0.0
C1278 C 0.04911 0.00216 0.13499 0.0
C1279 C 0.00475 0.01056 0.92636 0.0
H1280 H 0.0535 0.95773 0.9322 0.0
H1281 H 0.0129 0.94963 0.09227 0.0
H1282 H 0.04346 0.00164 0.88923 0.0
H1283 H 0.06027 -0.00046 0.95751 0.0
H1284 H 0.05932 0.98478 0.87956 0.0
H1285 H 0.99416 0.97251 0.12885 0.0
H1286 H 0.00932 0.98837 0.16181 0.0
H1287 H 0.99567 0.99329 0.08366 0.0
H1288 H 0.05054 0.03665 0.12452 0.0
H1289 H 0.0132 0.044 0.94934 0.0
H1290 H 0.05883 0.99501 0.10145 0.0
H1291 H 0.04077 0.9925 0.16302 0.0
H1292 H 0.05598 0.0097 0.1788 0.0
H1293 H 0.01208 0.00529 0.87799 0.0
H1294 H 0.99586 0.02069 0.90524 0.0
H1295 H 0.99702 -0.00013 0.95032 0.0
C1296 C 0.1861 0.67625 0.12719 0.0
C1297 C 0.1814 0.68281 0.19768 0.0
C1298 C 0.17566 0.66403 0.0904 0.0
C1299 C 0.16006 0.65855 0.12436 0.0
C1300 C 0.15577 0.66448 0.19711 0.0
C1301 C 0.16656 0.67637 0.23306 0.0
C1302 C 0.18088 0.65767 1.01361 0.0
C1303 C 0.13912 0.65925 0.23495 0.0
C1304 C 0.12169 0.64867 1.00011 0.0
C1305 C 0.12004 0.63077 1.00801 0.0
C1306 C 0.13489 0.65774 0.03641 0.0
C1307 C 0.14704 0.64865 0.08059 0.0
C1308 C 0.14578 0.63049 0.08713 0.0
C1309 C 0.13211 0.62176 0.05153 0.0
C1310 C 0.13545 0.67714 0.0294 0.0
C1311 C 0.15874 0.62035 0.13233 0.0
H1312 H 0.19762 0.68102 0.09974 0.0
H1313 H 0.16285 0.68122 0.28779 0.0
H1314 H 0.17905 0.64352 1.00929 0.0
H1315 H 0.17258 0.66378 0.9704 0.0
H1316 H 0.19454 0.6608 1.00059 0.0
H1317 H 0.1384 0.66382 0.29399 0.0
H1318 H 0.12804 0.66474 0.20354 0.0
H1319 H 0.13765 0.64505 0.23449 0.0
H1320 H 0.11234 0.65574 0.96695 0.0
H1321 H 0.13095 0.6079 0.0572 0.0
H1322 H 0.14813 0.68129 1.00703 0.0
H1323 H 0.13391 0.68313 0.08563 0.0
H1324 H 0.12517 0.68221 0.99194 0.0
H1325 H 0.17204 0.62377 0.1149 0.0
H1326 H 0.15696 0.60622 0.12586 0.0
H1327 H 0.1575 0.62366 0.19267 0.0
C1328 C 0.63164 0.87164 0.45183 0.0
C1329 C 0.62595 0.87856 0.3834 0.0
C1330 C 0.6446 0.85896 0.45374 0.0
C1331 C 0.65227 0.85336 0.38575 0.0
C1332 C 0.64794 0.86175 0.31775 0.0
C1333 C 0.63478 0.87415 0.31733 0.0
C1334 C 0.6489 0.85046 0.52758 0.0
C1335 C 0.65605 0.8565 0.24413 0.0
C1336 C 0.68902 0.82057 0.37803 0.0
C1337 C 0.67991 0.80552 0.35998 0.0
C1338 C 0.68024 0.8363 0.38906 0.0
C1339 C 0.662 0.8368 0.38287 0.0
C1340 C 0.6528 0.82141 0.36824 0.0
C1341 C 0.66185 0.80606 0.35652 0.0
C1342 C 0.6905 0.85245 0.40411 0.0
C1343 C 0.63334 0.82122 0.3624 0.0
H1344 H 0.62529 0.8753 0.50345 0.0
H1345 H 0.63081 0.87975 0.2643 0.0
H1346 H 0.64249 0.83769 0.53022 0.0
H1347 H 0.66299 0.84827 0.5328 0.0
H1348 H 0.64445 0.85826 0.57617 0.0
H1349 H 0.65351 0.86607 0.19907 0.0
H1350 H 0.6702 0.85491 0.25045 0.0
H1351 H 0.65068 0.8439 0.22614 0.0
H1352 H 0.70298 0.82019 0.38084 0.0
H1353 H 0.6547 0.7944 0.34394 0.0
H1354 H 0.68465 0.85999 0.4505 0.0
H1355 H 0.69035 0.86072 0.35333 0.0
H1356 H 0.70414 0.84953 0.41853 0.0
H1357 H 0.62751 0.82713 0.41315 0.0
H1358 H 0.6281 0.80798 0.35594 0.0
H1359 H 0.62919 0.82898 0.31328 0.0
C1360 C 0.49625 0.36337 0.58397 0.0
C1361 C 0.49224 0.38099 0.58831 0.0
C1362 C 0.4843 0.35076 0.6054 0.0
C1363 C 0.46784 0.35583 0.63174 0.0
C1364 C 0.46342 0.37354 0.63357 0.0
C1365 C 0.47569 0.38593 0.61191 0.0
C1366 C 0.48959 0.33203 0.60277 0.0
C1367 C 0.44597 0.37942 0.66104 0.0
C1368 C 0.43534 0.31925 0.65053 0.0
C1369 C 0.43776 0.31452 0.72578 0.0
C1370 C 0.44444 0.33325 0.61953 0.0
C1371 C 0.45617 0.34264 0.66497 0.0
C1372 C 0.45799 0.33837 0.74175 0.0
C1373 C 0.44876 0.32442 0.77111 0.0
C1374 C 0.44208 0.33751 0.53752 0.0
C1375 C 0.47035 0.348 0.79227 0.0
H1376 H 0.50889 0.35935 0.5648 0.0
H1377 H 0.47242 0.39949 0.61494 0.0
H1378 H 0.49025 0.32681 0.66069 0.0
H1379 H 0.47986 0.32435 0.57167 0.0
H1380 H 0.50236 0.33016 0.57565 0.0
H1381 H 0.44381 0.39339 0.65097 0.0
H1382 H 0.43557 0.37202 0.6329 0.0
H1383 H 0.44487 0.37695 0.7222 0.0
H1384 H 0.42684 0.31168 0.61523 0.0
H1385 H 0.45055 0.32101 0.8296 0.0
H1386 H 0.45402 0.33422 0.50627 0.0
H1387 H 0.43981 0.35152 0.53021 0.0
H1388 H 0.43115 0.33032 0.5121 0.0
H1389 H 0.48379 0.34581 0.77301 0.0
H1390 H 0.46936 0.34385 0.8518 0.0
H1391 H 0.46786 0.36206 0.78938 0.0
C1392 C 0.97522 0.11796 0.98734 0.0
C1393 C 0.99085 0.11618 0.94833 0.0
C1394 C 0.96419 0.13199 0.97368 0.0
C1395 C 0.96884 0.14447 0.91937 0.0
C1396 C 0.98405 0.14213 0.87651 0.0
C1397 C 0.99488 0.12804 0.89159 0.0
C1398 C 0.9481 0.134 0.02061 0.0
C1399 C 0.9894 0.15503 0.81752 0.0
C1400 C 0.93642 0.17827 0.85413 0.0
C1401 C 0.94149 0.19268 0.89642 0.0
C1402 C 0.94501 0.16238 0.86157 0.0
C1403 C 0.95887 0.16084 0.91296 0.0
C1404 C 0.96366 0.17519 0.95744 0.0
C1405 C 0.95495 0.1909 0.94854 0.0
C1406 C 0.93954 0.14736 0.81321 0.0
C1407 C 0.97827 0.17408 1.01343 0.0
H1408 H 0.97196 0.10886 0.0312 0.0
H1409 H 0.00681 0.12665 0.86047 0.0
H1410 H 0.94974 0.14499 0.05987 0.0
H1411 H 0.93681 0.13693 0.98449 0.0
H1412 H 0.94524 0.12225 0.05397 0.0
H1413 H 0.00052 0.15042 0.78368 0.0
H1414 H 0.97848 0.15784 0.77918 0.0
H1415 H 0.99308 0.16733 0.84504 0.0
H1416 H 0.92595 0.17945 0.81416 0.0
H1417 H 0.95892 0.20189 0.98188 0.0
H1418 H 0.93658 0.13602 0.84879 0.0
H1419 H 0.95028 0.14363 0.77537 0.0
H1420 H 0.92804 0.15041 0.77844 0.0
H1421 H 0.97589 0.16342 0.0536 0.0
H1422 H 0.97996 0.18622 0.04568 0.0
H1423 H 0.99051 0.17117 0.98376 0.0
C1424 C 0.16457 0.30788 0.80169 0.0
C1425 C 0.18173 0.30738 0.77729 0.0
C1426 C 0.15729 0.32309 0.82973 0.0
C1427 C 0.16728 0.33836 0.83124 0.0
C1428 C 0.18472 0.33791 0.80733 0.0
C1429 C 0.19186 0.32228 0.78166 0.0
C1430 C 0.13882 0.32283 0.8568 0.0
C1431 C 0.19561 0.35402 0.80638 0.0
C1432 C 0.13806 0.37746 0.83121 0.0
C1433 C 0.13765 0.38167 0.90764 0.0
C1434 C 0.14887 0.3643 0.80446 0.0
C1435 C 0.15903 0.35475 0.85589 0.0
C1436 C 0.15925 0.35952 0.93268 0.0
C1437 C 0.14871 0.37311 0.95748 0.0
C1438 C 0.1486 0.35997 0.72182 0.0
C1439 C 0.16949 0.34939 0.98971 0.0
H1440 H 0.15681 0.29626 0.79915 0.0
H1441 H 0.20512 0.32185 0.76238 0.0
H1442 H 0.13799 0.32818 0.91448 0.0
H1443 H 0.13072 0.33106 0.82002 0.0
H1444 H 0.13329 0.30962 0.85707 0.0
H1445 H 0.20914 0.35136 0.78942 0.0
H1446 H 0.18996 0.36345 0.76651 0.0
H1447 H 0.19566 0.36017 0.86259 0.0
H1448 H 0.12957 0.38415 0.7926 0.0
H1449 H 0.14826 0.37624 0.01679 0.0
H1450 H 0.14142 0.34777 0.71302 0.0
H1451 H 0.16191 0.35799 0.70058 0.0
H1452 H 0.14229 0.37023 0.68804 0.0
H1453 H 0.1634 0.33658 0.99773 0.0
H1454 H 0.17004 0.35601 0.045 0.0
H1455 H 0.18284 0.34714 0.96967 0.0
C1456 C 0.97893 0.87322 0.04536 0.0
C1457 C 0.99045 0.87996 0.09851 0.0
C1458 C 0.96758 0.85981 0.06417 0.0
C1459 C 0.96742 0.85334 0.1385 0.0
C1460 C 0.97821 0.86095 0.1936 0.0
C1461 C 0.98983 0.87396 0.1726 0.0
C1462 C 0.95672 0.85174 1.00317 0.0
C1463 C 0.97809 0.85477 0.27394 0.0
C1464 C 0.93156 0.82237 0.19619 0.0
C1465 C 0.94027 0.80658 0.19348 0.0
C1466 C 0.94022 0.83783 0.17897 0.0
C1467 C 0.95775 0.83727 0.15619 0.0
C1468 C 0.96631 0.8212 0.15084 0.0
C1469 C 0.95755 0.80611 0.17075 0.0
C1470 C 0.93082 0.85476 0.18727 0.0
C1471 C 0.9848 0.81991 0.12452 0.0
H1472 H 0.97951 0.87771 0.98777 0.0
H1473 H -0.00133 0.87923 0.21386 0.0
H1474 H 0.9616 0.83857 0.99111 0.0
H1475 H 0.94313 0.85045 0.02168 0.0
H1476 H 0.95703 0.85932 0.95031 0.0
H1477 H 0.98518 0.86367 0.31184 0.0
H1478 H 0.96465 0.85342 0.29453 0.0
H1479 H 0.98425 0.84189 0.27726 0.0
H1480 H 0.91822 0.82268 0.21436 0.0
H1481 H 0.96421 0.79382 0.16803 0.0
H1482 H 0.93119 0.86202 0.13371 0.0
H1483 H 0.93739 0.86279 0.2302 0.0
H1484 H 0.91715 0.85298 0.20418 0.0
H1485 H 0.9863 0.8264 0.06941 0.0
H1486 H 0.98919 0.80634 0.11886 0.0
H1487 H 0.99343 0.82657 0.16489 0.0
C1488 C 0.5015 0.645 0.46291 0.0
C1489 C 0.50019 0.6279 0.48697 0.0
C1490 C 0.48704 0.65389 0.4358 0.0
C1491 C 0.47073 0.64565 0.43553 0.0
C1492 C 0.46942 0.62822 0.45869 0.0
C1493 C 0.48429 0.61943 0.48315 0.0
C1494 C 0.48915 0.67226 0.40937 0.0
C1495 C 0.45221 0.61915 0.46118 0.0
C1496 C 0.43385 0.6778 0.44442 0.0
C1497 C 0.4285 0.67834 0.36935 0.0
C1498 C 0.44683 0.66635 0.46769 0.0
C1499 C 0.45509 0.65567 0.41398 0.0
C1500 C 0.44941 0.65588 0.33841 0.0
C1501 C 0.43598 0.66704 0.31725 0.0
C1502 C 0.45214 0.66618 0.54925 0.0
C1503 C 0.45821 0.64514 0.27896 0.0
H1504 H 0.51387 0.65149 0.46607 0.0
H1505 H 0.48331 0.60626 0.50297 0.0
H1506 H 0.4833 0.67389 0.35294 0.0
H1507 H 0.48233 0.68112 0.44821 0.0
H1508 H 0.50291 0.6762 0.40656 0.0
H1509 H 0.45351 0.60533 0.4764 0.0
H1510 H 0.44378 0.62554 0.50317 0.0
H1511 H 0.44563 0.62009 0.40607 0.0
H1512 H 0.42803 0.68651 0.48478 0.0
H1513 H 0.43202 0.66761 0.25891 0.0
H1514 H 0.46514 0.67199 0.55522 0.0
H1515 H 0.45293 0.65274 0.57021 0.0
H1516 H 0.44301 0.67351 0.58524 0.0
H1517 H 0.47159 0.64987 0.27081 0.0
H1518 H 0.45137 0.6457 0.22419 0.0
H1519 H 0.45909 0.63149 0.29695 0.0
C1520 C 0.66568 0.18853 0.67974 0.0
C1521 C 0.68235 0.18682 0.70881 0.0
C1522 C 0.65684 0.17428 0.65065 0.0
C1523 C 0.66469 0.1578 0.653 0.0
C1524 C 0.68178 0.1561 0.68047 0.0
C1525 C 0.69053 0.17076 0.70741 0.0
C1526 C 0.63883 0.17677 0.62011 0.0
C1527 C 0.69045 0.13872 0.68526 0.0
C1528 C 0.63114 0.12232 0.65972 0.0
C1529 C 0.63067 0.11695 0.58466 0.0
C1530 C 0.64306 0.13475 0.68387 0.0
C1531 C 0.65442 0.14237 0.63112 0.0
C1532 C 0.65444 0.1365 0.55583 0.0
C1533 C 0.64269 0.12368 0.5337 0.0
C1534 C 0.64289 0.14034 0.76509 0.0
C1535 C 0.66603 0.14456 0.49751 0.0
H1536 H 0.65942 0.20104 0.68115 0.0
H1537 H 0.70336 0.1695 0.73105 0.0
H1538 H 0.63766 0.17076 0.56377 0.0
H1539 H 0.62937 0.17033 0.65746 0.0
H1540 H 0.63528 0.1906 0.6156 0.0
H1541 H 0.70424 0.13978 0.70152 0.0
H1542 H 0.6837 0.13068 0.72757 0.0
H1543 H 0.68957 0.13187 0.63073 0.0
H1544 H 0.62193 0.11705 0.69931 0.0
H1545 H 0.64225 0.11968 0.47539 0.0
H1546 H 0.63749 0.15354 0.76945 0.0
H1547 H 0.65622 0.14072 0.78781 0.0
H1548 H 0.635 0.13161 0.80064 0.0
H1549 H 0.66169 0.15794 0.48636 0.0
H1550 H 0.66588 0.13729 0.44373 0.0
H1551 H 0.67951 0.14528 0.5182 0.0
C1552 C 0.0259 0.34339 0.83499 0.0
C1553 C 0.04146 0.33957 0.87146 0.0
C1554 C 0.01376 0.33046 0.81965 0.0
C1555 C 0.01713 0.3133 0.84237 0.0
C1556 C 0.03304 0.30927 0.8775 0.0
C1557 C 0.04509 0.32246 0.89111 0.0
C1558 C 0.99709 0.33527 0.78102 0.0
C1559 C 0.03702 0.29119 0.90343 0.0
C1560 C 0.97685 0.28694 0.87986 0.0
C1561 C 0.97547 0.27709 0.81416 0.0
C1562 C 0.99073 0.29824 0.89091 0.0
C1563 C 0.00343 0.29996 0.83427 0.0
C1564 C 0.00233 0.28973 0.76846 0.0
C1565 C 0.98841 0.27828 0.75946 0.0
C1566 C 0.99155 0.30868 0.96245 0.0
C1567 C 0.01548 0.29137 0.70641 0.0
H1568 H 0.02318 0.35659 0.81883 0.0
H1569 H 0.05709 0.3195 0.91961 0.0
H1570 H 0.99484 0.32674 0.73199 0.0
H1571 H 0.98613 0.33345 0.82023 0.0
H1572 H 0.99706 0.34887 0.76154 0.0
H1573 H 0.05043 0.28992 0.9248 0.0
H1574 H 0.02797 0.28751 0.94894 0.0
H1575 H 0.03514 0.28189 0.8568 0.0
H1576 H 0.96695 0.28587 0.92259 0.0
H1577 H 0.98729 0.27071 0.70849 0.0
H1578 H 0.98995 0.32256 0.94931 0.0
H1579 H 0.00435 0.30711 0.98954 0.0
H1580 H 0.9814 0.30488 1.00322 0.0
H1581 H 0.01472 0.30445 0.68154 0.0
H1582 H 0.01344 0.28172 0.66114 0.0
H1583 H 0.0287 0.28978 0.72916 0.0
C1584 C 0.53372 0.16476 0.71928 0.0
C1585 C 0.53558 0.16107 0.64255 0.0
C1586 C 0.52177 0.17712 0.74434 0.0
C1587 C 0.51153 0.1861 0.69138 0.0
C1588 C 0.51368 0.18274 0.61374 0.0
C1589 C 0.52561 0.17022 0.59032 0.0
C1590 C 0.51975 0.18021 0.82758 0.0
C1591 C 0.50316 0.19217 0.5554 0.0
C1592 C 0.46804 0.20484 0.74681 0.0
C1593 C 0.4718 0.22248 0.75364 0.0
C1594 C 0.48096 0.19282 0.72904 0.0
C1595 C 0.49807 0.19854 0.71693 0.0
C1596 C 0.50209 0.21622 0.72579 0.0
C1597 C 0.48894 0.22795 0.74436 0.0
C1598 C 0.47615 0.17406 0.72066 0.0
C1599 C 0.52018 0.22283 0.7133 0.0
H1600 H 0.54123 0.15759 0.75998 0.0
H1601 H 0.52714 0.16754 0.53094 0.0
H1602 H 0.52132 0.19411 0.84048 0.0
H1603 H 0.50657 0.17648 0.84548 0.0
H1604 H 0.52925 0.17277 0.86125 0.0
H1605 H 0.50692 0.18861 0.49723 0.0
H1606 H 0.48927 0.1892 0.56305 0.0
H1607 H 0.50472 0.20629 0.56236 0.0
H1608 H 0.45484 0.20045 0.75246 0.0
H1609 H 0.49205 0.24149 0.75048 0.0
H1610 H 0.48476 0.16591 0.75553 0.0
H1611 H 0.47789 0.17 0.6614 0.0
H1612 H 0.46257 0.17152 0.73719 0.0
H1613 H 0.52945 0.21563 0.74891 0.0
H1614 H 0.52138 0.2368 0.726 0.0
H1615 H 0.52398 0.22066 0.65398 0.0
C1616 C 0.65232 0.71344 0.54263 0.0
C1617 C 0.66026 0.7134 0.47196 0.0
C1618 C 0.63918 0.7016 0.55978 0.0
C1619 C 0.63363 0.68974 0.50428 0.0
C1620 C 0.64154 0.68978 0.4326 0.0
C1621 C 0.65488 0.7015 0.41761 0.0
C1622 C 0.63133 0.70169 0.63731 0.0
C1623 C 0.63579 0.67759 0.37141 0.0
C1624 C 0.61044 0.64825 0.5554 0.0
C1625 C 0.59313 0.65249 0.54093 0.0
C1626 C 0.62366 0.66044 0.54644 0.0
C1627 C 0.61958 0.67721 0.52077 0.0
C1628 C 0.60216 0.6817 0.50716 0.0
C1629 C 0.58914 0.66936 0.51811 0.0
C1630 C 0.64207 0.65521 0.56248 0.0
C1631 C 0.5973 0.69939 0.47889 0.0
H1632 H 0.65655 0.72261 0.58474 0.0
H1633 H 0.6609 0.70161 0.36265 0.0
H1634 H 0.61728 0.70431 0.63356 0.0
H1635 H 0.63288 0.68883 0.66364 0.0
H1636 H 0.63731 0.71152 0.67447 0.0
H1637 H 0.64303 0.67952 0.31826 0.0
H1638 H 0.63758 0.66406 0.38987 0.0
H1639 H 0.62183 0.67941 0.35999 0.0
H1640 H 0.61381 0.63523 0.57164 0.0
H1641 H 0.57582 0.67291 0.50798 0.0
H1642 H 0.64823 0.66467 0.60077 0.0
H1643 H 0.6496 0.65516 0.50953 0.0
H1644 H 0.64293 0.64221 0.58826 0.0
H1645 H 0.60221 0.70943 0.51771 0.0
H1646 H 0.58312 0.701 0.47298 0.0
H1647 H 0.60339 0.70167 0.4234 0.0
C1648 C 0.08249 0.82234 0.16052 0.0
C1649 C 0.08802 0.83928 0.14666 0.0
C1650 C 0.09431 0.80931 0.17966 0.0
C1651 C 0.11212 0.81324 0.18449 0.0
C1652 C 0.11776 0.83033 0.17164 0.0
C1653 C 0.10566 0.84313 0.15338 0.0
C1654 C 0.08778 0.79125 0.19326 0.0
C1655 C 0.13664 0.83505 0.17583 0.0
C1656 C 0.14331 0.78308 0.2853 0.0
C1657 C 0.15047 0.77392 0.225 0.0
C1658 C 0.13053 0.79568 0.27326 0.0
C1659 C 0.125 0.79935 0.1991 0.0
C1660 C 0.1322 0.79011 0.13813 0.0
C1661 C 0.14479 0.77751 0.15184 0.0
C1662 C 0.12304 0.80514 0.33975 0.0
C1663 C 0.12687 0.79378 0.05813 0.0
H1664 H 0.06894 0.81917 0.15489 0.0
H1665 H 0.11006 0.85622 0.14453 0.0
H1666 H 0.09298 0.78244 0.1497 0.0
H1667 H 0.0924 0.78648 0.24844 0.0
H1668 H 0.07347 0.79053 0.1921 0.0
H1669 H 0.13887 0.84902 0.16613 0.0
H1670 H 0.14194 0.83158 0.23165 0.0
H1671 H 0.14399 0.82764 0.1332 0.0
H1672 H 0.14762 0.78031 0.34191 0.0
H1673 H 0.15052 0.77072 0.10482 0.0
H1674 H 0.10879 0.80375 0.34021 0.0
H1675 H 0.12592 0.8191 0.33518 0.0
H1676 H 0.12823 0.80033 0.39397 0.0
H1677 H 0.11273 0.79215 0.05183 0.0
H1678 H 0.13345 0.7852 0.01718 0.0
H1679 H 0.12994 0.80735 0.04376 0.0
C1680 C 0.97884 0.7192 0.07653 0.0
C1681 C 0.96124 0.71507 0.07062 0.0
C1682 C 0.99167 0.70746 0.05454 0.0
C1683 C 0.98687 0.691 0.02736 0.0
C1684 C 0.96918 0.68679 0.02018 0.0
C1685 C 0.9566 0.69892 0.04112 0.0
C1686 C 0.0104 0.71252 0.06228 0.0
C1687 C 0.96354 0.6693 0.99232 0.0
C1688 C 0.02027 0.6639 0.92365 0.0
C1689 C 0.0267 0.65358 0.98179 0.0
C1690 C 0.00729 0.67618 0.93749 0.0
C1691 C 0.00038 0.67786 1.01082 0.0
C1692 C 0.0066 0.66715 0.06922 0.0
C1693 C 0.01977 0.65526 0.05411 0.0
C1694 C 0.00121 0.68757 0.87413 0.0
C1695 C -0.00064 0.66828 0.14781 0.0
H1696 H 0.98267 0.73147 0.10024 0.0
H1697 H 0.9431 0.69567 0.03465 0.0
H1698 H 0.01667 0.70444 0.1058 0.0
H1699 H 0.01733 0.71022 1.00871 0.0
H1700 H 0.01197 0.72628 0.07819 0.0
H1701 H 0.94929 0.66822 0.98776 0.0
H1702 H 0.96929 0.66663 0.9365 0.0
H1703 H 0.96824 0.65917 0.03124 0.0
H1704 H 0.02567 0.66261 0.86778 0.0
H1705 H 0.02457 0.64709 0.09887 0.0
H1706 H 0.00368 0.70128 0.88831 0.0
H1707 H 0.98709 0.68613 0.86623 0.0
H1708 H 0.00776 0.68453 0.82025 0.0
H1709 H 0.00174 0.6813 0.17135 0.0
H1710 H 0.00516 0.65858 0.18612 0.0
H1711 H 0.98518 0.66633 0.14658 0.0
C1712 C 0.14848 0.20394 0.78939 0.0
C1713 C 0.15576 0.21466 0.8443 0.0
C1714 C 0.1352 0.19237 0.80737 0.0
C1715 C 0.12918 0.19135 0.8823 0.0
C1716 C 0.13644 0.2022 0.93796 0.0
C1717 C 0.14958 0.2138 0.91818 0.0
C1718 C 0.12767 0.18117 0.74623 0.0
C1719 C 0.13052 0.20133 0.01863 0.0
C1720 C 0.08543 0.1706 0.91738 0.0
C1721 C 0.09013 0.15372 0.93714 0.0
C1722 C 0.09799 0.18302 0.89983 0.0
C1723 C 0.11568 0.17853 0.90272 0.0
C1724 C 0.12052 0.1616 0.92352 0.0
C1725 C 0.10772 0.14941 0.93995 0.0
C1726 C 0.09232 0.20092 0.87747 0.0
C1727 C 0.13926 0.1563 0.92749 0.0
H1728 H 0.15307 0.20474 0.73201 0.0
H1729 H 0.15528 0.22198 0.96089 0.0
H1730 H 0.1299 0.16738 0.75958 0.0
H1731 H 0.11351 0.18312 0.74293 0.0
H1732 H 0.13337 0.18395 0.69033 0.0
H1733 H 0.1372 0.21091 0.05478 0.0
H1734 H 0.11642 0.20364 0.02199 0.0
H1735 H 0.13298 0.18826 0.04144 0.0
H1736 H 0.07191 0.17414 0.91589 0.0
H1737 H 0.11153 0.13634 0.9536 0.0
H1738 H 0.09702 0.20389 0.82009 0.0
H1739 H 0.09806 0.21059 0.91595 0.0
H1740 H 0.07807 0.2024 0.8784 0.0
H1741 H 0.14525 0.15741 0.87115 0.0
H1742 H 0.14089 0.14285 0.94762 0.0
H1743 H 0.14642 0.16505 0.9657 0.0
C1744 C 0.65626 0.29551 0.72918 0.0
C1745 C 0.65237 0.27786 0.73174 0.0
C1746 C 0.64376 0.30768 0.70787 0.0
C1747 C 0.62695 0.30209 0.68852 0.0
C1748 C 0.6228 0.28435 0.69295 0.0
C1749 C 0.63554 0.27246 0.71451 0.0
C1750 C 0.6487 0.32648 0.70395 0.0
C1751 C 0.60499 0.27788 0.67325 0.0
C1752 C 0.59074 0.33519 0.68689 0.0
C1753 C 0.58948 0.33919 0.61018 0.0
C1754 C 0.60277 0.32307 0.71312 0.0
C1755 C 0.61387 0.31474 0.6615 0.0
C1756 C 0.61261 0.31862 0.58397 0.0
C1757 C 0.60045 0.3308 0.55927 0.0
C1758 C 0.60375 0.31934 0.79621 0.0
C1759 C 0.62416 0.30995 0.52709 0.0
H1760 H 0.66928 0.29979 0.74122 0.0
H1761 H 0.63238 0.25887 0.71715 0.0
H1762 H 0.64773 0.33106 0.64511 0.0
H1763 H 0.63965 0.33434 0.73799 0.0
H1764 H 0.66204 0.32883 0.72431 0.0
H1765 H 0.60365 0.26377 0.68225 0.0
H1766 H 0.59514 0.28462 0.70759 0.0
H1767 H 0.60214 0.28075 0.61351 0.0
H1768 H 0.58253 0.34182 0.72681 0.0
H1769 H 0.59944 0.33367 0.49989 0.0
H1770 H 0.61674 0.32274 0.8178 0.0
H1771 H 0.60185 0.30537 0.80647 0.0
H1772 H 0.59394 0.32663 0.8288 0.0
H1773 H 0.63788 0.31272 0.54029 0.0
H1774 H 0.62147 0.31428 0.46882 0.0
H1775 H 0.62247 0.29577 0.52983 0.0
C1776 C 0.51635 0.8425 0.46234 0.0
C1777 C 0.53413 0.8391 0.46379 0.0
C1778 C 0.50432 0.82923 0.45143 0.0
C1779 C 0.51016 0.81207 0.44179 0.0
C1780 C 0.52806 0.80847 0.44473 0.0
C1781 C 0.53983 0.82203 0.45549 0.0
C1782 C 0.48535 0.83364 0.44829 0.0
C1783 C 0.53478 0.79034 0.43529 0.0
C1784 C 0.47667 0.77678 0.46939 0.0
C1785 C 0.47152 0.77344 0.39521 0.0
C1786 C 0.48958 0.78896 0.48535 0.0
C1787 C 0.4975 0.79808 0.42577 0.0
C1788 C 0.49269 0.79443 0.35072 0.0
C1789 C 0.4798 0.78215 0.33638 0.0
C1790 C 0.49436 0.79246 0.56611 0.0
C1791 C 0.50085 0.80383 0.28555 0.0
H1792 H 0.51184 0.85567 0.4675 0.0
H1793 H 0.55354 0.81928 0.4573 0.0
H1794 H 0.48013 0.83043 0.39198 0.0
H1795 H 0.47811 0.82585 0.4899 0.0
H1796 H 0.48288 0.84751 0.45964 0.0
H1797 H 0.549 0.78958 0.44219 0.0
H1798 H 0.52862 0.78166 0.47688 0.0
H1799 H 0.53136 0.78543 0.37868 0.0
H1800 H 0.47023 0.77027 0.51529 0.0
H1801 H 0.4761 0.77946 0.27886 0.0
H1802 H 0.49065 0.80583 0.58129 0.0
H1803 H 0.50852 0.79138 0.57376 0.0
H1804 H 0.4879 0.78345 0.60555 0.0
H1805 H 0.49789 0.81779 0.28945 0.0
H1806 H 0.49619 0.79899 0.23043 0.0
H1807 H 0.51508 0.80245 0.28765 0.0
loop_
_geom_bond_atom_site_label_1
_geom_bond_atom_site_label_2
_geom_bond_distance
_geom_bond_site_symmetry_2
_ccdc_geom_bond_type
C0 C1 1.351 . S
C0 N3 1.368 . S
C0 H5 0.931 . S
C1 C0 1.351 . S
C1 N2 1.373 . S
C1 H29 0.930 . S
N2 C1 1.373 . S
N2 C4 1.340 . S
N3 C0 1.368 . S
N3 C4 1.321 . S
N3 Co6 2.135 . S
C4 N2 1.340 . S
C4 N3 1.321 . S
C4 H28 0.930 . S
H5 C0 0.931 . S
Co6 N3 2.135 . S
Co6 N9 2.121 1_554 S
Co6 O14 2.055 . S
Co6 O17 2.039 . S
Co6 N20 2.140 . S
C7 O8 1.227 . S
C7 O17 1.265 . S
O8 C7 1.227 . S
N9 Co6 2.121 1_556 S
N9 C11 1.375 . S
N9 C12 1.313 . S
C10 C11 1.338 . S
C10 N13 1.377 . S
C10 H30 0.930 . S
C11 N9 1.375 . S
C11 C10 1.338 . S
C11 H15 0.931 . S
C12 N9 1.313 . S
C12 N13 1.344 . S
C12 H16 0.930 . S
N13 C10 1.377 . S
N13 C12 1.344 . S
O14 Co6 2.055 . S
O14 C18 1.253 . S
H15 C11 0.931 . S
H16 C12 0.930 . S
O17 Co6 2.039 . S
O17 C7 1.265 . S
C18 O14 1.253 . S
C18 O19 1.227 . S
O19 C18 1.227 . S
N20 Co6 2.140 . S
N20 C23 1.346 . S
N20 C24 1.345 . S
C21 C22 1.387 . S
C21 C25 1.391 . S
C22 C21 1.387 . S
C22 C23 1.369 . S
C22 H31 0.929 . S
C23 N20 1.346 . S
C23 C22 1.369 . S
C23 H26 0.928 . S
C24 N20 1.345 . S
C24 C25 1.371 . S
C24 H27 0.931 . S
C25 C21 1.391 . S
C25 C24 1.371 . S
C25 H32 0.930 . S
H26 C23 0.928 . S
H27 C24 0.931 . S
H28 C4 0.930 . S
H29 C1 0.930 . S
H30 C10 0.930 . S
H31 C22 0.929 . S
H32 C25 0.930 . S
C33 C34 1.351 . S
C33 N36 1.368 . S
C33 H38 0.931 . S
C34 C33 1.351 . S
C34 N35 1.373 . S
C34 H62 0.930 . S
N35 C34 1.373 . S
N35 C37 1.340 . S
N36 C33 1.368 . S
N36 C37 1.321 . S
N36 Co39 2.135 . S
C37 N35 1.340 . S
C37 N36 1.321 . S
C37 H61 0.930 . S
H38 C33 0.931 . S
Co39 N36 2.135 . S
Co39 N42 2.121 . S
Co39 O47 2.055 . S
Co39 O50 2.039 . S
Co39 N53 2.140 . S
C40 O41 1.227 . S
C40 O50 1.265 . S
O41 C40 1.227 . S
N42 Co39 2.121 . S
N42 C44 1.375 . S
N42 C45 1.313 . S
C43 C44 1.338 . S
C43 N46 1.377 . S
C43 H63 0.930 . S
C44 N42 1.375 . S
C44 C43 1.338 . S
C44 H48 0.931 . S
C45 N42 1.313 . S
C45 N46 1.344 . S
C45 H49 0.930 . S
N46 C43 1.377 . S
N46 C45 1.344 . S
O47 Co39 2.055 . S
O47 C51 1.253 . S
H48 C44 0.931 . S
H49 C45 0.930 . S
O50 Co39 2.039 . S
O50 C40 1.265 . S
C51 O47 1.253 . S
C51 O52 1.227 . S
O52 C51 1.227 . S
N53 Co39 2.140 . S
N53 C56 1.346 . S
N53 C57 1.345 . S
C54 C55 1.387 . S
C54 C58 1.391 . S
C55 C54 1.387 . S
C55 C56 1.369 . S
C55 H64 0.929 . S
C56 N53 1.346 . S
C56 C55 1.369 . S
C56 H59 0.928 . S
C57 N53 1.345 . S
C57 C58 1.371 . S
C57 H60 0.931 . S
C58 C54 1.391 . S
C58 C57 1.371 . S
C58 H65 0.930 . S
H59 C56 0.928 . S
H60 C57 0.931 . S
H61 C37 0.930 . S
H62 C34 0.930 . S
H63 C43 0.930 . S
H64 C55 0.929 . S
H65 C58 0.930 . S
C66 C67 1.351 . S
C66 N69 1.368 . S
C66 H71 0.931 . S
C67 C66 1.351 . S
C67 N68 1.373 . S
C67 H95 0.930 . S
N68 C67 1.373 . S
N68 C70 1.340 . S
N69 C66 1.368 . S
N69 C70 1.321 . S
N69 Co72 2.135 . S
C70 N68 1.340 . S
C70 N69 1.321 . S
C70 H94 0.930 . S
H71 C66 0.931 . S
Co72 N69 2.135 . S
Co72 N75 2.121 . S
Co72 O80 2.055 . S
Co72 O83 2.039 . S
Co72 N86 2.140 . S
C73 O74 1.227 . S
C73 O83 1.265 . S
O74 C73 1.227 . S
N75 Co72 2.121 . S
N75 C77 1.375 . S
N75 C78 1.313 . S
C76 C77 1.338 . S
C76 N79 1.377 . S
C76 H96 0.930 . S
C77 N75 1.375 . S
C77 C76 1.338 . S
C77 H81 0.931 . S
C78 N75 1.313 . S
C78 N79 1.344 . S
C78 H82 0.930 . S
N79 C76 1.377 . S
N79 C78 1.344 . S
O80 Co72 2.055 . S
O80 C84 1.253 . S
H81 C77 0.931 . S
H82 C78 0.930 . S
O83 Co72 2.039 . S
O83 C73 1.265 . S
C84 O80 1.253 . S
C84 O85 1.227 . S
O85 C84 1.227 . S
N86 Co72 2.140 . S
N86 C89 1.346 . S
N86 C90 1.345 . S
C87 C88 1.387 . S
C87 C91 1.391 . S
C88 C87 1.387 . S
C88 C89 1.369 . S
C88 H97 0.929 . S
C89 N86 1.346 . S
C89 C88 1.369 . S
C89 H92 0.928 . S
C90 N86 1.345 . S
C90 C91 1.371 . S
C90 H93 0.931 . S
C91 C87 1.391 . S
C91 C90 1.371 . S
C91 H98 0.930 . S
H92 C89 0.928 . S
H93 C90 0.931 . S
H94 C70 0.930 . S
H95 C67 0.930 . S
H96 C76 0.930 . S
H97 C88 0.929 . S
H98 C91 0.930 . S
C99 C100 1.351 1_556 S
C99 N102 1.368 . S
C99 H104 0.931 . S
C100 C99 1.351 1_554 S
C100 N101 1.373 . S
C100 H128 0.930 . S
N101 C100 1.373 . S
N101 C103 1.340 . S
N102 C99 1.368 . S
N102 C103 1.321 1_556 S
N102 Co105 2.135 . S
C103 N101 1.340 . S
C103 N102 1.321 1_554 S
C103 H127 0.930 . S
H104 C99 0.931 . S
Co105 N102 2.135 . S
Co105 N108 2.121 . S
Co105 O113 2.055 . S
Co105 O116 2.039 . S
Co105 N119 2.140 . S
C106 O107 1.227 . S
C106 O116 1.265 . S
O107 C106 1.227 . S
N108 Co105 2.121 . S
N108 C110 1.375 . S
N108 C111 1.313 . S
C109 C110 1.338 . S
C109 N112 1.377 . S
C109 H129 0.930 . S
C110 N108 1.375 . S
C110 C109 1.338 . S
C110 H114 0.931 . S
C111 N108 1.313 . S
C111 N112 1.344 . S
C111 H115 0.930 . S
N112 C109 1.377 . S
N112 C111 1.344 . S
O113 Co105 2.055 . S
O113 C117 1.253 . S
H114 C110 0.931 . S
H115 C111 0.930 . S
O116 Co105 2.039 . S
O116 C106 1.265 . S
C117 O113 1.253 . S
C117 O118 1.227 . S
O118 C117 1.227 . S
N119 Co105 2.140 . S
N119 C122 1.346 . S
N119 C123 1.345 . S
C120 C121 1.387 . S
C120 C124 1.391 . S
C121 C120 1.387 . S
C121 C122 1.369 . S
C121 H130 0.929 . S
C122 N119 1.346 . S
C122 C121 1.369 . S
C122 H125 0.928 . S
C123 N119 1.345 . S
C123 C124 1.371 . S
C123 H126 0.931 . S
C124 C120 1.391 . S
C124 C123 1.371 . S
C124 H131 0.930 . S
H125 C122 0.928 . S
H126 C123 0.931 . S
H127 C103 0.930 . S
H128 C100 0.930 . S
H129 C109 0.930 . S
H130 C121 0.929 . S
H131 C124 0.930 . S
C132 C133 1.351 . S
C132 N135 1.368 . S
C132 H137 0.931 . S
C133 C132 1.351 . S
C133 N134 1.373 . S
C133 H161 0.930 . S
N134 C133 1.373 . S
N134 C136 1.340 . S
N135 C132 1.368 . S
N135 C136 1.321 . S
N135 Co138 2.135 . S
C136 N134 1.340 . S
C136 N135 1.321 . S
C136 H160 0.930 . S
H137 C132 0.931 . S
Co138 N135 2.135 . S
Co138 N141 2.121 1_556 S
Co138 O146 2.055 . S
Co138 O149 2.039 . S
Co138 N152 2.140 . S
C139 O140 1.227 . S
C139 O149 1.265 . S
O140 C139 1.227 . S
N141 Co138 2.121 1_554 S
N141 C143 1.375 . S
N141 C144 1.313 . S
C142 C143 1.338 . S
C142 N145 1.377 . S
C142 H162 0.930 . S
C143 N141 1.375 . S
C143 C142 1.338 . S
C143 H147 0.931 . S
C144 N141 1.313 . S
C144 N145 1.344 . S
C144 H148 0.930 . S
N145 C142 1.377 . S
N145 C144 1.344 . S
O146 Co138 2.055 . S
O146 C150 1.253 . S
H147 C143 0.931 . S
H148 C144 0.930 . S
O149 Co138 2.039 . S
O149 C139 1.265 . S
C150 O146 1.253 . S
C150 O151 1.227 . S
O151 C150 1.227 . S
N152 Co138 2.140 . S
N152 C155 1.346 . S
N152 C156 1.345 . S
C153 C154 1.387 . S
C153 C157 1.391 . S
C154 C153 1.387 . S
C154 C155 1.369 . S
C154 H163 0.929 . S
C155 N152 1.346 . S
C155 C154 1.369 . S
C155 H158 0.928 . S
C156 N152 1.345 . S
C156 C157 1.371 . S
C156 H159 0.931 . S
C157 C153 1.391 . S
C157 C156 1.371 . S
C157 H164 0.930 . S
H158 C155 0.928 . S
H159 C156 0.931 . S
H160 C136 0.930 . S
H161 C133 0.930 . S
H162 C142 0.930 . S
H163 C154 0.929 . S
H164 C157 0.930 . S
C165 C166 1.351 1_554 S
C165 N168 1.368 . S
C165 H170 0.931 . S
C166 C165 1.351 1_556 S
C166 N167 1.373 . S
C166 H194 0.930 . S
N167 C166 1.373 . S
N167 C169 1.340 . S
N168 C165 1.368 . S
N168 C169 1.321 1_554 S
N168 Co171 2.135 . S
C169 N167 1.340 . S
C169 N168 1.321 1_556 S
C169 H193 0.930 . S
H170 C165 0.931 . S
Co171 N168 2.135 . S
Co171 N174 2.121 . S
Co171 O179 2.055 . S
Co171 O182 2.039 . S
Co171 N185 2.140 . S
C172 O173 1.227 . S
C172 O182 1.265 . S
O173 C172 1.227 . S
N174 Co171 2.121 . S
N174 C176 1.375 . S
N174 C177 1.313 . S
C175 C176 1.338 . S
C175 N178 1.377 . S
C175 H195 0.930 . S
C176 N174 1.375 . S
C176 C175 1.338 . S
C176 H180 0.931 . S
C177 N174 1.313 . S
C177 N178 1.344 . S
C177 H181 0.930 . S
N178 C175 1.377 . S
N178 C177 1.344 . S
O179 Co171 2.055 . S
O179 C183 1.253 . S
H180 C176 0.931 . S
H181 C177 0.930 . S
O182 Co171 2.039 . S
O182 C172 1.265 . S
C183 O179 1.253 . S
C183 O184 1.227 . S
O184 C183 1.227 . S
N185 Co171 2.140 . S
N185 C188 1.346 . S
N185 C189 1.345 . S
C186 C187 1.387 . S
C186 C190 1.391 . S
C187 C186 1.387 . S
C187 C188 1.369 . S
C187 H196 0.929 . S
C188 N185 1.346 . S
C188 C187 1.369 . S
C188 H191 0.928 . S
C189 N185 1.345 . S
C189 C190 1.371 . S
C189 H192 0.931 . S
C190 C186 1.391 . S
C190 C189 1.371 . S
C190 H197 0.930 . S
H191 C188 0.928 . S
H192 C189 0.931 . S
H193 C169 0.930 . S
H194 C166 0.930 . S
H195 C175 0.930 . S
H196 C187 0.929 . S
H197 C190 0.930 . S
C198 C199 1.351 . S
C198 N201 1.368 . S
C198 H203 0.931 . S
C199 C198 1.351 . S
C199 N200 1.373 . S
C199 H227 0.930 . S
N200 C199 1.373 . S
N200 C202 1.340 . S
N201 C198 1.368 . S
N201 C202 1.321 . S
N201 Co204 2.135 . S
C202 N200 1.340 . S
C202 N201 1.321 . S
C202 H226 0.930 . S
H203 C198 0.931 . S
Co204 N201 2.135 . S
Co204 N207 2.121 . S
Co204 O212 2.055 . S
Co204 O215 2.039 . S
Co204 N218 2.140 . S
C205 O206 1.227 . S
C205 O215 1.265 . S
O206 C205 1.227 . S
N207 Co204 2.121 . S
N207 C209 1.375 . S
N207 C210 1.313 . S
C208 C209 1.338 . S
C208 N211 1.377 . S
C208 H228 0.930 . S
C209 N207 1.375 . S
C209 C208 1.338 . S
C209 H213 0.931 . S
C210 N207 1.313 . S
C210 N211 1.344 . S
C210 H214 0.930 . S
N211 C208 1.377 . S
N211 C210 1.344 . S
O212 Co204 2.055 . S
O212 C216 1.253 . S
H213 C209 0.931 . S
H214 C210 0.930 . S
O215 Co204 2.039 . S
O215 C205 1.265 . S
C216 O212 1.253 . S
C216 O217 1.227 . S
O217 C216 1.227 . S
N218 Co204 2.140 . S
N218 C221 1.346 . S
N218 C222 1.345 . S
C219 C220 1.387 . S
C219 C223 1.391 . S
C220 C219 1.387 . S
C220 C221 1.369 . S
C220 H229 0.929 . S
C221 N218 1.346 . S
C221 C220 1.369 . S
C221 H224 0.928 . S
C222 N218 1.345 . S
C222 C223 1.371 . S
C222 H225 0.931 . S
C223 C219 1.391 . S
C223 C222 1.371 . S
C223 H230 0.930 . S
H224 C221 0.928 . S
H225 C222 0.931 . S
H226 C202 0.930 . S
H227 C199 0.930 . S
H228 C208 0.930 . S
H229 C220 0.929 . S
H230 C223 0.930 . S
C231 C232 1.351 . S
C231 N234 1.368 . S
C231 H236 0.931 . S
C232 C231 1.351 . S
C232 N233 1.373 . S
C232 H260 0.930 . S
N233 C232 1.373 . S
N233 C235 1.340 . S
N234 C231 1.368 . S
N234 C235 1.321 . S
N234 Co237 2.135 . S
C235 N233 1.340 . S
C235 N234 1.321 . S
C235 H259 0.930 . S
H236 C231 0.931 . S
Co237 N234 2.135 . S
Co237 N240 2.121 . S
Co237 O245 2.055 . S
Co237 O248 2.039 . S
Co237 N251 2.140 . S
C238 O239 1.227 . S
C238 O248 1.265 . S
O239 C238 1.227 . S
N240 Co237 2.121 . S
N240 C242 1.375 . S
N240 C243 1.313 . S
C241 C242 1.338 . S
C241 N244 1.377 . S
C241 H261 0.930 . S
C242 N240 1.375 . S
C242 C241 1.338 . S
C242 H246 0.931 . S
C243 N240 1.313 . S
C243 N244 1.344 . S
C243 H247 0.930 . S
N244 C241 1.377 . S
N244 C243 1.344 . S
O245 Co237 2.055 . S
O245 C249 1.253 . S
H246 C242 0.931 . S
H247 C243 0.930 . S
O248 Co237 2.039 . S
O248 C238 1.265 . S
C249 O245 1.253 . S
C249 O250 1.227 . S
O250 C249 1.227 . S
N251 Co237 2.140 . S
N251 C254 1.346 . S
N251 C255 1.345 . S
C252 C253 1.387 . S
C252 C256 1.391 . S
C253 C252 1.387 . S
C253 C254 1.369 . S
C253 H262 0.929 . S
C254 N251 1.346 . S
C254 C253 1.369 . S
C254 H257 0.928 . S
C255 N251 1.345 . S
C255 C256 1.371 . S
C255 H258 0.931 . S
C256 C252 1.391 . S
C256 C255 1.371 . S
C256 H263 0.930 . S
H257 C254 0.928 . S
H258 C255 0.931 . S
H259 C235 0.930 . S
H260 C232 0.930 . S
H261 C241 0.930 . S
H262 C253 0.929 . S
H263 C256 0.930 . S
C264 C265 1.351 . S
C264 N267 1.368 . S
C264 H269 0.931 . S
C265 C264 1.351 . S
C265 N266 1.373 . S
C265 H293 0.930 . S
N266 C265 1.373 . S
N266 C268 1.340 . S
N267 C264 1.368 . S
N267 C268 1.321 . S
N267 Co270 2.135 . S
C268 N266 1.340 . S
C268 N267 1.321 . S
C268 H292 0.930 . S
H269 C264 0.931 . S
Co270 N267 2.135 . S
Co270 N273 2.121 . S
Co270 O278 2.055 . S
Co270 O281 2.039 . S
Co270 N284 2.140 . S
C271 O272 1.227 . S
C271 O281 1.265 . S
O272 C271 1.227 . S
N273 Co270 2.121 . S
N273 C275 1.375 . S
N273 C276 1.313 . S
C274 C275 1.338 . S
C274 N277 1.377 . S
C274 H294 0.930 . S
C275 N273 1.375 . S
C275 C274 1.338 . S
C275 H279 0.931 . S
C276 N273 1.313 . S
C276 N277 1.344 . S
C276 H280 0.930 . S
N277 C274 1.377 . S
N277 C276 1.344 . S
O278 Co270 2.055 . S
O278 C282 1.253 . S
H279 C275 0.931 . S
H280 C276 0.930 . S
O281 Co270 2.039 . S
O281 C271 1.265 . S
C282 O278 1.253 . S
C282 O283 1.227 . S
O283 C282 1.227 . S
N284 Co270 2.140 . S
N284 C287 1.346 . S
N284 C288 1.345 . S
C285 C286 1.387 . S
C285 C289 1.391 . S
C286 C285 1.387 . S
C286 C287 1.369 . S
C286 H295 0.929 . S
C287 N284 1.346 . S
C287 C286 1.369 . S
C287 H290 0.928 . S
C288 N284 1.345 . S
C288 C289 1.371 . S
C288 H291 0.931 . S
C289 C285 1.391 . S
C289 C288 1.371 . S
C289 H296 0.930 . S
H290 C287 0.928 . S
H291 C288 0.931 . S
H292 C268 0.930 . S
H293 C265 0.930 . S
H294 C274 0.930 . S
H295 C286 0.929 . S
H296 C289 0.930 . S
C297 C298 1.351 1_554 S
C297 N300 1.368 . S
C297 H302 0.931 . S
C298 C297 1.351 1_556 S
C298 N299 1.373 . S
C298 H326 0.930 . S
N299 C298 1.373 . S
N299 C301 1.340 . S
N300 C297 1.368 . S
N300 C301 1.321 1_554 S
N300 Co303 2.135 . S
C301 N299 1.340 . S
C301 N300 1.321 1_556 S
C301 H325 0.930 . S
H302 C297 0.931 . S
Co303 N300 2.135 . S
Co303 N306 2.121 . S
Co303 O311 2.055 . S
Co303 O314 2.039 . S
Co303 N317 2.140 . S
C304 O305 1.227 . S
C304 O314 1.265 . S
O305 C304 1.227 . S
N306 Co303 2.121 . S
N306 C308 1.375 . S
N306 C309 1.313 . S
C307 C308 1.338 . S
C307 N310 1.377 . S
C307 H327 0.930 . S
C308 N306 1.375 . S
C308 C307 1.338 . S
C308 H312 0.931 . S
C309 N306 1.313 . S
C309 N310 1.344 . S
C309 H313 0.930 . S
N310 C307 1.377 . S
N310 C309 1.344 . S
O311 Co303 2.055 . S
O311 C315 1.253 . S
H312 C308 0.931 . S
H313 C309 0.930 . S
O314 Co303 2.039 . S
O314 C304 1.265 . S
C315 O311 1.253 . S
C315 O316 1.227 . S
O316 C315 1.227 . S
N317 Co303 2.140 . S
N317 C320 1.346 . S
N317 C321 1.345 . S
C318 C319 1.387 . S
C318 C322 1.391 . S
C319 C318 1.387 . S
C319 C320 1.369 . S
C319 H328 0.929 . S
C320 N317 1.346 . S
C320 C319 1.369 . S
C320 H323 0.928 . S
C321 N317 1.345 . S
C321 C322 1.371 . S
C321 H324 0.931 . S
C322 C318 1.391 . S
C322 C321 1.371 . S
C322 H329 0.930 . S
H323 C320 0.928 . S
H324 C321 0.931 . S
H325 C301 0.930 . S
H326 C298 0.930 . S
H327 C307 0.930 . S
H328 C319 0.929 . S
H329 C322 0.930 . S
C330 C331 1.351 1_556 S
C330 N333 1.368 . S
C330 H335 0.931 . S
C331 C330 1.351 1_554 S
C331 N332 1.373 . S
C331 H359 0.930 . S
N332 C331 1.373 . S
N332 C334 1.340 . S
N333 C330 1.368 . S
N333 C334 1.321 1_556 S
N333 Co336 2.135 . S
C334 N332 1.340 . S
C334 N333 1.321 1_554 S
C334 H358 0.930 . S
H335 C330 0.931 . S
Co336 N333 2.135 . S
Co336 N339 2.121 . S
Co336 O344 2.055 . S
Co336 O347 2.039 . S
Co336 N350 2.140 . S
C337 O338 1.227 . S
C337 O347 1.265 . S
O338 C337 1.227 . S
N339 Co336 2.121 . S
N339 C341 1.375 . S
N339 C342 1.313 . S
C340 C341 1.338 . S
C340 N343 1.377 . S
C340 H360 0.930 . S
C341 N339 1.375 . S
C341 C340 1.338 . S
C341 H345 0.931 . S
C342 N339 1.313 . S
C342 N343 1.344 . S
C342 H346 0.930 . S
N343 C340 1.377 . S
N343 C342 1.344 . S
O344 Co336 2.055 . S
O344 C348 1.253 . S
H345 C341 0.931 . S
H346 C342 0.930 . S
O347 Co336 2.039 . S
O347 C337 1.265 . S
C348 O344 1.253 . S
C348 O349 1.227 . S
O349 C348 1.227 . S
N350 Co336 2.140 . S
N350 C353 1.346 . S
N350 C354 1.345 . S
C351 C352 1.387 . S
C351 C355 1.391 . S
C352 C351 1.387 . S
C352 C353 1.369 . S
C352 H361 0.929 . S
C353 N350 1.346 . S
C353 C352 1.369 . S
C353 H356 0.928 . S
C354 N350 1.345 . S
C354 C355 1.371 . S
C354 H357 0.931 . S
C355 C351 1.391 . S
C355 C354 1.371 . S
C355 H362 0.930 . S
H356 C353 0.928 . S
H357 C354 0.931 . S
H358 C334 0.930 . S
H359 C331 0.930 . S
H360 C340 0.930 . S
H361 C352 0.929 . S
H362 C355 0.930 . S
C363 C364 1.351 . S
C363 N366 1.368 . S
C363 H368 0.931 . S
C364 C363 1.351 . S
C364 N365 1.373 . S
C364 H392 0.930 . S
N365 C364 1.373 . S
N365 C367 1.340 . S
N366 C363 1.368 . S
N366 C367 1.321 . S
N366 Co369 2.135 . S
C367 N365 1.340 . S
C367 N366 1.321 . S
C367 H391 0.930 . S
H368 C363 0.931 . S
Co369 N366 2.135 . S
Co369 N372 2.121 . S
Co369 O377 2.055 . S
Co369 O380 2.039 . S
Co369 N383 2.140 . S
C370 O371 1.227 . S
C370 O380 1.265 . S
O371 C370 1.227 . S
N372 Co369 2.121 . S
N372 C374 1.375 . S
N372 C375 1.313 . S
C373 C374 1.338 . S
C373 N376 1.377 . S
C373 H393 0.930 . S
C374 N372 1.375 . S
C374 C373 1.338 . S
C374 H378 0.931 . S
C375 N372 1.313 . S
C375 N376 1.344 . S
C375 H379 0.930 . S
N376 C373 1.377 . S
N376 C375 1.344 . S
O377 Co369 2.055 . S
O377 C381 1.253 . S
H378 C374 0.931 . S
H379 C375 0.930 . S
O380 Co369 2.039 . S
O380 C370 1.265 . S
C381 O377 1.253 . S
C381 O382 1.227 . S
O382 C381 1.227 . S
N383 Co369 2.140 . S
N383 C386 1.346 . S
N383 C387 1.345 . S
C384 C385 1.387 . S
C384 C388 1.391 . S
C385 C384 1.387 . S
C385 C386 1.369 . S
C385 H394 0.929 . S
C386 N383 1.346 . S
C386 C385 1.369 . S
C386 H389 0.928 . S
C387 N383 1.345 . S
C387 C388 1.371 . S
C387 H390 0.931 . S
C388 C384 1.391 . S
C388 C387 1.371 . S
C388 H395 0.930 . S
H389 C386 0.928 . S
H390 C387 0.931 . S
H391 C367 0.930 . S
H392 C364 0.930 . S
H393 C373 0.930 . S
H394 C385 0.929 . S
H395 C388 0.930 . S
C396 C397 1.351 . S
C396 N399 1.368 . S
C396 H401 0.931 . S
C397 C396 1.351 . S
C397 N398 1.373 . S
C397 H425 0.930 . S
N398 C397 1.373 . S
N398 C400 1.340 . S
N399 C396 1.368 . S
N399 C400 1.321 . S
N399 Co402 2.135 . S
C400 N398 1.340 . S
C400 N399 1.321 . S
C400 H424 0.930 . S
H401 C396 0.931 . S
Co402 N399 2.135 . S
Co402 N405 2.121 . S
Co402 O410 2.055 . S
Co402 O413 2.039 . S
Co402 N416 2.140 . S
C403 O404 1.227 . S
C403 O413 1.265 . S
O404 C403 1.227 . S
N405 Co402 2.121 . S
N405 C407 1.375 . S
N405 C408 1.313 . S
C406 C407 1.338 . S
C406 N409 1.377 . S
C406 H426 0.930 . S
C407 N405 1.375 . S
C407 C406 1.338 . S
C407 H411 0.931 . S
C408 N405 1.313 . S
C408 N409 1.344 . S
C408 H412 0.930 . S
N409 C406 1.377 . S
N409 C408 1.344 . S
O410 Co402 2.055 . S
O410 C414 1.253 . S
H411 C407 0.931 . S
H412 C408 0.930 . S
O413 Co402 2.039 . S
O413 C403 1.265 . S
C414 O410 1.253 . S
C414 O415 1.227 . S
O415 C414 1.227 . S
N416 Co402 2.140 . S
N416 C419 1.346 . S
N416 C420 1.345 . S
C417 C418 1.387 . S
C417 C421 1.391 . S
C418 C417 1.387 . S
C418 C419 1.369 . S
C418 H427 0.929 . S
C419 N416 1.346 . S
C419 C418 1.369 . S
C419 H422 0.928 . S
C420 N416 1.345 . S
C420 C421 1.371 . S
C420 H423 0.931 . S
C421 C417 1.391 . S
C421 C420 1.371 . S
C421 H428 0.930 . S
H422 C419 0.928 . S
H423 C420 0.931 . S
H424 C400 0.930 . S
H425 C397 0.930 . S
H426 C406 0.930 . S
H427 C418 0.929 . S
H428 C421 0.930 . S
C429 C430 1.351 . S
C429 N432 1.368 . S
C429 H434 0.931 . S
C430 C429 1.351 . S
C430 N431 1.373 . S
C430 H458 0.930 . S
N431 C430 1.373 . S
N431 C433 1.340 . S
N432 C429 1.368 . S
N432 C433 1.321 . S
N432 Co435 2.135 . S
C433 N431 1.340 . S
C433 N432 1.321 . S
C433 H457 0.930 . S
H434 C429 0.931 . S
Co435 N432 2.135 . S
Co435 N438 2.121 1_554 S
Co435 O443 2.055 . S
Co435 O446 2.039 . S
Co435 N449 2.140 . S
C436 O437 1.227 . S
C436 O446 1.265 . S
O437 C436 1.227 . S
N438 Co435 2.121 1_556 S
N438 C440 1.375 . S
N438 C441 1.313 . S
C439 C440 1.338 . S
C439 N442 1.377 . S
C439 H459 0.930 . S
C440 N438 1.375 . S
C440 C439 1.338 . S
C440 H444 0.931 . S
C441 N438 1.313 . S
C441 N442 1.344 . S
C441 H445 0.930 . S
N442 C439 1.377 . S
N442 C441 1.344 . S
O443 Co435 2.055 . S
O443 C447 1.253 . S
H444 C440 0.931 . S
H445 C441 0.930 . S
O446 Co435 2.039 . S
O446 C436 1.265 . S
C447 O443 1.253 . S
C447 O448 1.227 . S
O448 C447 1.227 . S
N449 Co435 2.140 . S
N449 C452 1.346 . S
N449 C453 1.345 . S
C450 C451 1.387 . S
C450 C454 1.391 . S
C451 C450 1.387 . S
C451 C452 1.369 . S
C451 H460 0.929 . S
C452 N449 1.346 . S
C452 C451 1.369 . S
C452 H455 0.928 . S
C453 N449 1.345 . S
C453 C454 1.371 . S
C453 H456 0.931 . S
C454 C450 1.391 . S
C454 C453 1.371 . S
C454 H461 0.930 . S
H455 C452 0.928 . S
H456 C453 0.931 . S
H457 C433 0.930 . S
H458 C430 0.930 . S
H459 C439 0.930 . S
H460 C451 0.929 . S
H461 C454 0.930 . S
C462 C463 1.351 . S
C462 N465 1.368 . S
C462 H467 0.931 . S
C463 C462 1.351 . S
C463 N464 1.373 . S
C463 H491 0.930 . S
N464 C463 1.373 . S
N464 C466 1.340 . S
N465 C462 1.368 . S
N465 C466 1.321 . S
N465 Co468 2.135 . S
C466 N464 1.340 . S
C466 N465 1.321 . S
C466 H490 0.930 . S
H467 C462 0.931 . S
Co468 N465 2.135 . S
Co468 N471 2.121 . S
Co468 O476 2.055 . S
Co468 O479 2.039 . S
Co468 N482 2.140 . S
C469 O470 1.227 . S
C469 O479 1.265 . S
O470 C469 1.227 . S
N471 Co468 2.121 . S
N471 C473 1.375 . S
N471 C474 1.313 . S
C472 C473 1.338 . S
C472 N475 1.377 . S
C472 H492 0.930 . S
C473 N471 1.375 . S
C473 C472 1.338 . S
C473 H477 0.931 . S
C474 N471 1.313 . S
C474 N475 1.344 . S
C474 H478 0.930 . S
N475 C472 1.377 . S
N475 C474 1.344 . S
O476 Co468 2.055 . S
O476 C480 1.253 . S
H477 C473 0.931 . S
H478 C474 0.930 . S
O479 Co468 2.039 . S
O479 C469 1.265 . S
C480 O476 1.253 . S
C480 O481 1.227 . S
O481 C480 1.227 . S
N482 Co468 2.140 . S
N482 C485 1.346 . S
N482 C486 1.345 . S
C483 C484 1.387 . S
C483 C487 1.391 . S
C484 C483 1.387 . S
C484 C485 1.369 . S
C484 H493 0.929 . S
C485 N482 1.346 . S
C485 C484 1.369 . S
C485 H488 0.928 . S
C486 N482 1.345 . S
C486 C487 1.371 . S
C486 H489 0.931 . S
C487 C483 1.391 . S
C487 C486 1.371 . S
C487 H494 0.930 . S
H488 C485 0.928 . S
H489 C486 0.931 . S
H490 C466 0.930 . S
H491 C463 0.930 . S
H492 C472 0.930 . S
H493 C484 0.929 . S
H494 C487 0.930 . S
C495 C496 1.351 . S
C495 N498 1.368 . S
C495 H500 0.931 . S
C496 C495 1.351 . S
C496 N497 1.373 . S
C496 H524 0.930 . S
N497 C496 1.373 . S
N497 C499 1.340 . S
N498 C495 1.368 . S
N498 C499 1.321 . S
N498 Co501 2.135 . S
C499 N497 1.340 . S
C499 N498 1.321 . S
C499 H523 0.930 . S
H500 C495 0.931 . S
Co501 N498 2.135 . S
Co501 N504 2.121 1_556 S
Co501 O509 2.055 . S
Co501 O512 2.039 . S
Co501 N515 2.140 . S
C502 O503 1.227 . S
C502 O512 1.265 . S
O503 C502 1.227 . S
N504 Co501 2.121 1_554 S
N504 C506 1.375 . S
N504 C507 1.313 . S
C505 C506 1.338 . S
C505 N508 1.377 . S
C505 H525 0.930 . S
C506 N504 1.375 . S
C506 C505 1.338 . S
C506 H510 0.931 . S
C507 N504 1.313 . S
C507 N508 1.344 . S
C507 H511 0.930 . S
N508 C505 1.377 . S
N508 C507 1.344 . S
O509 Co501 2.055 . S
O509 C513 1.253 . S
H510 C506 0.931 . S
H511 C507 0.930 . S
O512 Co501 2.039 . S
O512 C502 1.265 . S
C513 O509 1.253 . S
C513 O514 1.227 . S
O514 C513 1.227 . S
N515 Co501 2.140 . S
N515 C518 1.346 . S
N515 C519 1.345 . S
C516 C517 1.387 . S
C516 C520 1.391 . S
C517 C516 1.387 . S
C517 C518 1.369 . S
C517 H526 0.929 . S
C518 N515 1.346 . S
C518 C517 1.369 . S
C518 H521 0.928 . S
C519 N515 1.345 . S
C519 C520 1.371 . S
C519 H522 0.931 . S
C520 C516 1.391 . S
C520 C519 1.371 . S
C520 H527 0.930 . S
H521 C518 0.928 . S
H522 C519 0.931 . S
H523 C499 0.930 . S
H524 C496 0.930 . S
H525 C505 0.930 . S
H526 C517 0.929 . S
H527 C520 0.930 . S
C528 C529 1.391 . S
C528 C530 1.394 . S
C528 H544 0.931 . S
C529 C528 1.391 . S
C529 C533 1.376 . S
C530 C528 1.394 . S
C530 C531 1.369 . S
C530 C534 1.531 . S
C531 C530 1.369 . S
C531 C532 1.410 . S
C531 C539 1.503 . S
C532 C531 1.410 . S
C532 C533 1.392 . S
C532 C535 1.511 . S
C533 C529 1.376 . S
C533 C532 1.392 . S
C533 H545 0.929 . S
C534 C530 1.531 . S
C534 H546 0.960 . S
C534 H547 0.962 . S
C534 H548 0.960 . S
C535 C532 1.511 . S
C535 H549 0.961 . S
C535 H550 0.961 . S
C535 H551 0.961 . S
C536 C537 1.370 . S
C536 C538 1.363 . S
C536 H552 0.931 . S
C537 C536 1.370 . S
C537 C541 1.408 . S
C538 C536 1.363 . S
C538 C539 1.370 . S
C538 C542 1.524 . S
C539 C531 1.503 . S
C539 C538 1.370 . S
C539 C540 1.403 . S
C540 C539 1.403 . S
C540 C541 1.404 . S
C540 C543 1.539 . S
C541 C537 1.408 . S
C541 C540 1.404 . S
C541 H553 0.930 . S
C542 C538 1.524 . S
C542 H554 0.956 . S
C542 H555 0.961 . S
C542 H556 0.961 . S
C543 C540 1.539 . S
C543 H557 0.958 . S
C543 H558 0.961 . S
C543 H559 0.960 . S
H544 C528 0.931 . S
H545 C533 0.929 . S
H546 C534 0.960 . S
H547 C534 0.962 . S
H548 C534 0.960 . S
H549 C535 0.961 . S
H550 C535 0.961 . S
H551 C535 0.961 . S
H552 C536 0.931 . S
H553 C541 0.930 . S
H554 C542 0.956 . S
H555 C542 0.961 . S
H556 C542 0.961 . S
H557 C543 0.958 . S
H558 C543 0.961 . S
H559 C543 0.960 . S
C560 C561 1.391 1_556 S
C560 C562 1.394 . S
C560 H576 0.931 1_556 S
C561 C560 1.391 1_554 S
C561 C565 1.376 1_554 S
C562 C560 1.394 . S
C562 C563 1.369 . S
C562 C566 1.531 . S
C563 C562 1.369 . S
C563 C564 1.410 . S
C563 C571 1.503 . S
C564 C563 1.410 . S
C564 C565 1.392 . S
C564 C567 1.511 . S
C565 C561 1.376 1_556 S
C565 C564 1.392 . S
C565 H577 0.929 1_556 S
C566 C562 1.531 . S
C566 H578 0.960 . S
C566 H579 0.962 . S
C566 H580 0.960 . S
C567 C564 1.511 . S
C567 H581 0.961 . S
C567 H582 0.961 . S
C567 H583 0.961 . S
C568 C569 1.370 . S
C568 C570 1.363 . S
C568 H584 0.931 . S
C569 C568 1.370 . S
C569 C573 1.408 . S
C570 C568 1.363 . S
C570 C571 1.370 . S
C570 C574 1.524 . S
C571 C563 1.503 . S
C571 C570 1.370 . S
C571 C572 1.403 . S
C572 C571 1.403 . S
C572 C573 1.404 . S
C572 C575 1.539 . S
C573 C569 1.408 . S
C573 C572 1.404 . S
C573 H585 0.930 . S
C574 C570 1.524 . S
C574 H586 0.956 . S
C574 H587 0.961 . S
C574 H588 0.961 . S
C575 C572 1.539 . S
C575 H589 0.958 . S
C575 H590 0.961 . S
C575 H591 0.960 . S
H576 C560 0.931 1_554 S
H577 C565 0.929 1_554 S
H578 C566 0.960 . S
H579 C566 0.962 . S
H580 C566 0.960 . S
H581 C567 0.961 . S
H582 C567 0.961 . S
H583 C567 0.961 . S
H584 C568 0.931 . S
H585 C573 0.930 . S
H586 C574 0.956 . S
H587 C574 0.961 . S
H588 C574 0.961 . S
H589 C575 0.958 . S
H590 C575 0.961 . S
H591 C575 0.960 . S
C592 C593 1.391 . S
C592 C594 1.394 . S
C592 H608 0.931 . S
C593 C592 1.391 . S
C593 C597 1.376 . S
C594 C592 1.394 . S
C594 C595 1.369 . S
C594 C598 1.531 . S
C595 C594 1.369 . S
C595 C596 1.410 . S
C595 C603 1.503 . S
C596 C595 1.410 . S
C596 C597 1.392 . S
C596 C599 1.511 . S
C597 C593 1.376 . S
C597 C596 1.392 . S
C597 H609 0.929 . S
C598 C594 1.531 . S
C598 H610 0.960 . S
C598 H611 0.962 . S
C598 H612 0.960 . S
C599 C596 1.511 . S
C599 H613 0.961 . S
C599 H614 0.961 . S
C599 H615 0.961 . S
C600 C601 1.370 . S
C600 C602 1.363 1_556 S
C600 H616 0.931 . S
C601 C600 1.370 . S
C601 C605 1.408 . S
C602 C600 1.363 1_554 S
C602 C603 1.370 . S
C602 C606 1.524 . S
C603 C595 1.503 . S
C603 C602 1.370 . S
C603 C604 1.403 . S
C604 C603 1.403 . S
C604 C605 1.404 1_554 S
C604 C607 1.539 . S
C605 C601 1.408 . S
C605 C604 1.404 1_556 S
C605 H617 0.930 . S
C606 C602 1.524 . S
C606 H618 0.956 . S
C606 H619 0.961 . S
C606 H620 0.961 . S
C607 C604 1.539 . S
C607 H621 0.958 . S
C607 H622 0.961 . S
C607 H623 0.960 . S
H608 C592 0.931 . S
H609 C597 0.929 . S
H610 C598 0.960 . S
H611 C598 0.962 . S
H612 C598 0.960 . S
H613 C599 0.961 . S
H614 C599 0.961 . S
H615 C599 0.961 . S
H616 C600 0.931 . S
H617 C605 0.930 . S
H618 C606 0.956 . S
H619 C606 0.961 . S
H620 C606 0.961 . S
H621 C607 0.958 . S
H622 C607 0.961 . S
H623 C607 0.960 . S
C624 C625 1.391 . S
C624 C626 1.394 . S
C624 H640 0.931 . S
C625 C624 1.391 . S
C625 C629 1.376 . S
C626 C624 1.394 . S
C626 C627 1.369 . S
C626 C630 1.531 . S
C627 C626 1.369 . S
C627 C628 1.410 . S
C627 C635 1.503 . S
C628 C627 1.410 . S
C628 C629 1.392 . S
C628 C631 1.511 . S
C629 C625 1.376 . S
C629 C628 1.392 . S
C629 H641 0.929 . S
C630 C626 1.531 . S
C630 H642 0.960 . S
C630 H643 0.962 . S
C630 H644 0.960 . S
C631 C628 1.511 . S
C631 H645 0.961 . S
C631 H646 0.961 . S
C631 H647 0.961 . S
C632 C633 1.370 . S
C632 C634 1.363 . S
C632 H648 0.931 . S
C633 C632 1.370 . S
C633 C637 1.408 . S
C634 C632 1.363 . S
C634 C635 1.370 . S
C634 C638 1.524 . S
C635 C627 1.503 . S
C635 C634 1.370 . S
C635 C636 1.403 . S
C636 C635 1.403 . S
C636 C637 1.404 . S
C636 C639 1.539 . S
C637 C633 1.408 . S
C637 C636 1.404 . S
C637 H649 0.930 . S
C638 C634 1.524 . S
C638 H650 0.956 . S
C638 H651 0.961 . S
C638 H652 0.961 . S
C639 C636 1.539 . S
C639 H653 0.958 . S
C639 H654 0.961 . S
C639 H655 0.960 . S
H640 C624 0.931 . S
H641 C629 0.929 . S
H642 C630 0.960 . S
H643 C630 0.962 . S
H644 C630 0.960 . S
H645 C631 0.961 . S
H646 C631 0.961 . S
H647 C631 0.961 . S
H648 C632 0.931 . S
H649 C637 0.930 . S
H650 C638 0.956 . S
H651 C638 0.961 . S
H652 C638 0.961 . S
H653 C639 0.958 . S
H654 C639 0.961 . S
H655 C639 0.960 . S
C656 C657 1.391 . S
C656 C658 1.394 . S
C656 H672 0.931 . S
C657 C656 1.391 . S
C657 C661 1.376 . S
C658 C656 1.394 . S
C658 C659 1.369 . S
C658 C662 1.531 . S
C659 C658 1.369 . S
C659 C660 1.410 . S
C659 C667 1.503 . S
C660 C659 1.410 . S
C660 C661 1.392 . S
C660 C663 1.511 . S
C661 C657 1.376 . S
C661 C660 1.392 . S
C661 H673 0.929 . S
C662 C658 1.531 . S
C662 H674 0.960 . S
C662 H675 0.962 . S
C662 H676 0.960 . S
C663 C660 1.511 . S
C663 H677 0.961 . S
C663 H678 0.961 . S
C663 H679 0.961 . S
C664 C665 1.370 . S
C664 C666 1.363 . S
C664 H680 0.931 . S
C665 C664 1.370 . S
C665 C669 1.408 . S
C666 C664 1.363 . S
C666 C667 1.370 . S
C666 C670 1.524 . S
C667 C659 1.503 . S
C667 C666 1.370 . S
C667 C668 1.403 . S
C668 C667 1.403 . S
C668 C669 1.404 . S
C668 C671 1.539 . S
C669 C665 1.408 . S
C669 C668 1.404 . S
C669 H681 0.930 . S
C670 C666 1.524 . S
C670 H682 0.956 . S
C670 H683 0.961 . S
C670 H684 0.961 . S
C671 C668 1.539 . S
C671 H685 0.958 . S
C671 H686 0.961 . S
C671 H687 0.960 . S
H672 C656 0.931 . S
H673 C661 0.929 . S
H674 C662 0.960 . S
H675 C662 0.962 . S
H676 C662 0.960 . S
H677 C663 0.961 . S
H678 C663 0.961 . S
H679 C663 0.961 . S
H680 C664 0.931 . S
H681 C669 0.930 . S
H682 C670 0.956 . S
H683 C670 0.961 . S
H684 C670 0.961 . S
H685 C671 0.958 . S
H686 C671 0.961 . S
H687 C671 0.960 . S
C688 C689 1.391 . S
C688 C690 1.394 . S
C688 H704 0.931 . S
C689 C688 1.391 . S
C689 C693 1.376 . S
C690 C688 1.394 . S
C690 C691 1.369 . S
C690 C694 1.531 . S
C691 C690 1.369 . S
C691 C692 1.410 . S
C691 C699 1.503 . S
C692 C691 1.410 . S
C692 C693 1.392 . S
C692 C695 1.511 . S
C693 C689 1.376 . S
C693 C692 1.392 . S
C693 H705 0.929 . S
C694 C690 1.531 . S
C694 H706 0.960 . S
C694 H707 0.962 . S
C694 H708 0.960 . S
C695 C692 1.511 . S
C695 H709 0.961 . S
C695 H710 0.961 . S
C695 H711 0.961 . S
C696 C697 1.370 . S
C696 C698 1.363 . S
C696 H712 0.931 . S
C697 C696 1.370 . S
C697 C701 1.408 . S
C698 C696 1.363 . S
C698 C699 1.370 . S
C698 C702 1.524 . S
C699 C691 1.503 . S
C699 C698 1.370 . S
C699 C700 1.403 . S
C700 C699 1.403 . S
C700 C701 1.404 . S
C700 C703 1.539 . S
C701 C697 1.408 . S
C701 C700 1.404 . S
C701 H713 0.930 . S
C702 C698 1.524 . S
C702 H714 0.956 . S
C702 H715 0.961 . S
C702 H716 0.961 . S
C703 C700 1.539 . S
C703 H717 0.958 . S
C703 H718 0.961 . S
C703 H719 0.960 . S
H704 C688 0.931 . S
H705 C693 0.929 . S
H706 C694 0.960 . S
H707 C694 0.962 . S
H708 C694 0.960 . S
H709 C695 0.961 . S
H710 C695 0.961 . S
H711 C695 0.961 . S
H712 C696 0.931 . S
H713 C701 0.930 . S
H714 C702 0.956 . S
H715 C702 0.961 . S
H716 C702 0.961 . S
H717 C703 0.958 . S
H718 C703 0.961 . S
H719 C703 0.960 . S
C720 C721 1.391 . S
C720 C722 1.394 . S
C720 H736 0.931 . S
C721 C720 1.391 . S
C721 C725 1.376 . S
C722 C720 1.394 . S
C722 C723 1.369 . S
C722 C726 1.531 . S
C723 C722 1.369 . S
C723 C724 1.410 . S
C723 C731 1.503 . S
C724 C723 1.410 . S
C724 C725 1.392 . S
C724 C727 1.511 . S
C725 C721 1.376 . S
C725 C724 1.392 . S
C725 H737 0.929 . S
C726 C722 1.531 . S
C726 H738 0.960 . S
C726 H739 0.962 . S
C726 H740 0.960 . S
C727 C724 1.511 . S
C727 H741 0.961 . S
C727 H742 0.961 . S
C727 H743 0.961 . S
C728 C729 1.370 . S
C728 C730 1.363 1_554 S
C728 H744 0.931 . S
C729 C728 1.370 . S
C729 C733 1.408 . S
C730 C728 1.363 1_556 S
C730 C731 1.370 . S
C730 C734 1.524 . S
C731 C723 1.503 . S
C731 C730 1.370 . S
C731 C732 1.403 . S
C732 C731 1.403 . S
C732 C733 1.404 1_556 S
C732 C735 1.539 . S
C733 C729 1.408 . S
C733 C732 1.404 1_554 S
C733 H745 0.930 . S
C734 C730 1.524 . S
C734 H746 0.956 . S
C734 H747 0.961 . S
C734 H748 0.961 . S
C735 C732 1.539 . S
C735 H749 0.958 . S
C735 H750 0.961 . S
C735 H751 0.960 . S
H736 C720 0.931 . S
H737 C725 0.929 . S
H738 C726 0.960 . S
H739 C726 0.962 . S
H740 C726 0.960 . S
H741 C727 0.961 . S
H742 C727 0.961 . S
H743 C727 0.961 . S
H744 C728 0.931 . S
H745 C733 0.930 . S
H746 C734 0.956 . S
H747 C734 0.961 . S
H748 C734 0.961 . S
H749 C735 0.958 . S
H750 C735 0.961 . S
H751 C735 0.960 . S
C752 C753 1.391 . S
C752 C754 1.394 . S
C752 H768 0.931 . S
C753 C752 1.391 . S
C753 C757 1.376 . S
C754 C752 1.394 . S
C754 C755 1.369 . S
C754 C758 1.531 . S
C755 C754 1.369 . S
C755 C756 1.410 . S
C755 C763 1.503 . S
C756 C755 1.410 . S
C756 C757 1.392 . S
C756 C759 1.511 . S
C757 C753 1.376 . S
C757 C756 1.392 . S
C757 H769 0.929 . S
C758 C754 1.531 . S
C758 H770 0.960 . S
C758 H771 0.962 . S
C758 H772 0.960 . S
C759 C756 1.511 . S
C759 H773 0.961 . S
C759 H774 0.961 . S
C759 H775 0.961 . S
C760 C761 1.370 1_554 S
C760 C762 1.363 . S
C760 H776 0.931 1_554 S
C761 C760 1.370 1_556 S
C761 C765 1.408 1_556 S
C762 C760 1.363 . S
C762 C763 1.370 . S
C762 C766 1.524 . S
C763 C755 1.503 . S
C763 C762 1.370 . S
C763 C764 1.403 . S
C764 C763 1.403 . S
C764 C765 1.405 . S
C764 C767 1.539 . S
C765 C761 1.408 1_554 S
C765 C764 1.405 . S
C765 H777 0.929 1_554 S
C766 C762 1.524 . S
C766 H778 0.956 . S
C766 H779 0.961 . S
C766 H780 0.961 . S
C767 C764 1.539 . S
C767 H781 0.958 . S
C767 H782 0.961 . S
C767 H783 0.960 . S
H768 C752 0.931 . S
H769 C757 0.929 . S
H770 C758 0.960 . S
H771 C758 0.962 . S
H772 C758 0.960 . S
H773 C759 0.961 . S
H774 C759 0.961 . S
H775 C759 0.961 . S
H776 C760 0.931 1_556 S
H777 C765 0.929 1_556 S
H778 C766 0.956 . S
H779 C766 0.961 . S
H780 C766 0.961 . S
H781 C767 0.958 . S
H782 C767 0.961 . S
H783 C767 0.960 . S
C784 C785 1.391 . S
C784 C786 1.394 . S
C784 H800 0.931 . S
C785 C784 1.391 . S
C785 C789 1.376 . S
C786 C784 1.394 . S
C786 C787 1.369 . S
C786 C790 1.531 . S
C787 C786 1.369 . S
C787 C788 1.410 . S
C787 C795 1.503 . S
C788 C787 1.410 . S
C788 C789 1.392 . S
C788 C791 1.511 . S
C789 C785 1.376 . S
C789 C788 1.392 . S
C789 H801 0.929 . S
C790 C786 1.531 . S
C790 H802 0.960 . S
C790 H803 0.962 . S
C790 H804 0.960 . S
C791 C788 1.511 . S
C791 H805 0.961 . S
C791 H806 0.961 . S
C791 H807 0.961 . S
C792 C793 1.370 1_554 S
C792 C794 1.363 . S
C792 H808 0.931 1_554 S
C793 C792 1.370 1_556 S
C793 C797 1.408 1_556 S
C794 C792 1.363 . S
C794 C795 1.370 . S
C794 C798 1.524 . S
C795 C787 1.503 . S
C795 C794 1.370 . S
C795 C796 1.403 . S
C796 C795 1.403 . S
C796 C797 1.404 . S
C796 C799 1.539 . S
C797 C793 1.408 1_554 S
C797 C796 1.404 . S
C797 H809 0.930 1_554 S
C798 C794 1.524 . S
C798 H810 0.956 . S
C798 H811 0.961 . S
C798 H812 0.961 . S
C799 C796 1.539 . S
C799 H813 0.958 . S
C799 H814 0.961 . S
C799 H815 0.960 . S
H800 C784 0.931 . S
H801 C789 0.929 . S
H802 C790 0.960 . S
H803 C790 0.962 . S
H804 C790 0.960 . S
H805 C791 0.961 . S
H806 C791 0.961 . S
H807 C791 0.961 . S
H808 C792 0.931 1_556 S
H809 C797 0.930 1_556 S
H810 C798 0.956 . S
H811 C798 0.961 . S
H812 C798 0.961 . S
H813 C799 0.958 . S
H814 C799 0.961 . S
H815 C799 0.960 . S
C816 C817 1.391 . S
C816 C818 1.394 . S
C816 H832 0.931 . S
C817 C816 1.391 . S
C817 C821 1.376 . S
C818 C816 1.394 . S
C818 C819 1.369 . S
C818 C822 1.531 . S
C819 C818 1.369 . S
C819 C820 1.410 . S
C819 C827 1.503 . S
C820 C819 1.410 . S
C820 C821 1.392 . S
C820 C823 1.511 . S
C821 C817 1.376 . S
C821 C820 1.392 . S
C821 H833 0.929 . S
C822 C818 1.531 . S
C822 H834 0.960 . S
C822 H835 0.962 . S
C822 H836 0.960 . S
C823 C820 1.511 . S
C823 H837 0.961 . S
C823 H838 0.961 . S
C823 H839 0.961 . S
C824 C825 1.370 . S
C824 C826 1.363 . S
C824 H840 0.931 . S
C825 C824 1.370 . S
C825 C829 1.408 . S
C826 C824 1.363 . S
C826 C827 1.370 . S
C826 C830 1.524 . S
C827 C819 1.503 . S
C827 C826 1.370 . S
C827 C828 1.403 . S
C828 C827 1.403 . S
C828 C829 1.404 . S
C828 C831 1.539 . S
C829 C825 1.408 . S
C829 C828 1.404 . S
C829 H841 0.930 . S
C830 C826 1.524 . S
C830 H842 0.956 . S
C830 H843 0.961 . S
C830 H844 0.961 . S
C831 C828 1.539 . S
C831 H845 0.958 . S
C831 H846 0.961 . S
C831 H847 0.960 . S
H832 C816 0.931 . S
H833 C821 0.929 . S
H834 C822 0.960 . S
H835 C822 0.962 . S
H836 C822 0.960 . S
H837 C823 0.961 . S
H838 C823 0.961 . S
H839 C823 0.961 . S
H840 C824 0.931 . S
H841 C829 0.930 . S
H842 C830 0.956 . S
H843 C830 0.961 . S
H844 C830 0.961 . S
H845 C831 0.958 . S
H846 C831 0.961 . S
H847 C831 0.960 . S
C848 C849 1.391 . S
C848 C850 1.394 . S
C848 H864 0.931 . S
C849 C848 1.391 . S
C849 C853 1.376 . S
C850 C848 1.394 . S
C850 C851 1.369 . S
C850 C854 1.531 . S
C851 C850 1.369 . S
C851 C852 1.410 . S
C851 C859 1.503 . S
C852 C851 1.410 . S
C852 C853 1.392 . S
C852 C855 1.511 . S
C853 C849 1.376 . S
C853 C852 1.392 . S
C853 H865 0.929 . S
C854 C850 1.531 . S
C854 H866 0.960 . S
C854 H867 0.962 . S
C854 H868 0.960 . S
C855 C852 1.511 . S
C855 H869 0.961 . S
C855 H870 0.961 . S
C855 H871 0.961 . S
C856 C857 1.370 . S
C856 C858 1.363 . S
C856 H872 0.931 . S
C857 C856 1.370 . S
C857 C861 1.408 . S
C858 C856 1.363 . S
C858 C859 1.370 . S
C858 C862 1.524 . S
C859 C851 1.503 . S
C859 C858 1.370 . S
C859 C860 1.403 . S
C860 C859 1.403 . S
C860 C861 1.404 . S
C860 C863 1.539 . S
C861 C857 1.408 . S
C861 C860 1.404 . S
C861 H873 0.930 . S
C862 C858 1.524 . S
C862 H874 0.956 . S
C862 H875 0.961 . S
C862 H876 0.961 . S
C863 C860 1.539 . S
C863 H877 0.958 . S
C863 H878 0.961 . S
C863 H879 0.960 . S
H864 C848 0.931 . S
H865 C853 0.929 . S
H866 C854 0.960 . S
H867 C854 0.962 . S
H868 C854 0.960 . S
H869 C855 0.961 . S
H870 C855 0.961 . S
H871 C855 0.961 . S
H872 C856 0.931 . S
H873 C861 0.930 . S
H874 C862 0.956 . S
H875 C862 0.961 . S
H876 C862 0.961 . S
H877 C863 0.958 . S
H878 C863 0.961 . S
H879 C863 0.960 . S
C880 C881 1.391 . S
C880 C882 1.394 . S
C880 H896 0.931 . S
C881 C880 1.391 . S
C881 C885 1.376 . S
C882 C880 1.394 . S
C882 C883 1.369 . S
C882 C886 1.531 . S
C883 C882 1.369 . S
C883 C884 1.410 . S
C883 C891 1.503 . S
C884 C883 1.410 . S
C884 C885 1.392 . S
C884 C887 1.511 . S
C885 C881 1.376 . S
C885 C884 1.392 . S
C885 H897 0.929 . S
C886 C882 1.531 . S
C886 H898 0.960 . S
C886 H899 0.962 . S
C886 H900 0.960 . S
C887 C884 1.511 . S
C887 H901 0.961 . S
C887 H902 0.961 . S
C887 H903 0.961 . S
C888 C889 1.370 1_556 S
C888 C890 1.363 . S
C888 H904 0.931 1_556 S
C889 C888 1.370 1_554 S
C889 C893 1.406 1_554 S
C890 C888 1.363 . S
C890 C891 1.370 . S
C890 C894 1.524 . S
C891 C883 1.503 . S
C891 C890 1.370 . S
C891 C892 1.403 . S
C892 C891 1.403 . S
C892 C893 1.409 . S
C892 C895 1.539 . S
C893 C889 1.406 1_556 S
C893 C892 1.409 . S
C893 H905 0.927 1_556 S
C894 C890 1.524 . S
C894 H906 0.956 . S
C894 H907 0.961 . S
C894 H908 0.961 . S
C895 C892 1.539 . S
C895 H909 0.958 . S
C895 H910 0.961 . S
C895 H911 0.960 . S
H896 C880 0.931 . S
H897 C885 0.929 . S
H898 C886 0.960 . S
H899 C886 0.962 . S
H900 C886 0.960 . S
H901 C887 0.961 . S
H902 C887 0.961 . S
H903 C887 0.961 . S
H904 C888 0.931 1_554 S
H905 C893 0.927 1_554 S
H906 C894 0.956 . S
H907 C894 0.961 . S
H908 C894 0.961 . S
H909 C895 0.958 . S
H910 C895 0.961 . S
H911 C895 0.960 . S
C912 C913 1.391 . S
C912 C914 1.394 1_556 S
C912 H928 0.931 . S
C913 C912 1.391 . S
C913 C917 1.376 . S
C914 C912 1.394 1_554 S
C914 C915 1.369 . S
C914 C918 1.531 . S
C915 C914 1.369 . S
C915 C916 1.410 . S
C915 C923 1.503 . S
C916 C915 1.410 . S
C916 C917 1.392 1_554 S
C916 C919 1.511 . S
C917 C913 1.376 . S
C917 C916 1.392 1_556 S
C917 H929 0.929 . S
C918 C914 1.531 . S
C918 H930 0.960 . S
C918 H931 0.962 . S
C918 H932 0.960 . S
C919 C916 1.511 . S
C919 H933 0.961 . S
C919 H934 0.961 . S
C919 H935 0.961 . S
C920 C921 1.370 . S
C920 C922 1.363 . S
C920 H936 0.931 . S
C921 C920 1.370 . S
C921 C925 1.408 . S
C922 C920 1.363 . S
C922 C923 1.370 . S
C922 C926 1.524 . S
C923 C915 1.503 . S
C923 C922 1.370 . S
C923 C924 1.403 . S
C924 C923 1.403 . S
C924 C925 1.404 . S
C924 C927 1.539 . S
C925 C921 1.408 . S
C925 C924 1.404 . S
C925 H937 0.930 . S
C926 C922 1.524 . S
C926 H938 0.956 . S
C926 H939 0.961 . S
C926 H940 0.961 . S
C927 C924 1.539 . S
C927 H941 0.958 . S
C927 H942 0.961 . S
C927 H943 0.960 . S
H928 C912 0.931 . S
H929 C917 0.929 . S
H930 C918 0.960 . S
H931 C918 0.962 . S
H932 C918 0.960 . S
H933 C919 0.961 . S
H934 C919 0.961 . S
H935 C919 0.961 . S
H936 C920 0.931 . S
H937 C925 0.930 . S
H938 C926 0.956 . S
H939 C926 0.961 . S
H940 C926 0.961 . S
H941 C927 0.958 . S
H942 C927 0.961 . S
H943 C927 0.960 . S
C944 C945 1.391 . S
C944 C946 1.394 . S
C944 H960 0.931 . S
C945 C944 1.391 . S
C945 C949 1.376 . S
C946 C944 1.394 . S
C946 C947 1.369 . S
C946 C950 1.531 . S
C947 C946 1.369 . S
C947 C948 1.410 . S
C947 C955 1.503 . S
C948 C947 1.410 . S
C948 C949 1.392 . S
C948 C951 1.511 . S
C949 C945 1.376 . S
C949 C948 1.392 . S
C949 H961 0.929 . S
C950 C946 1.531 . S
C950 H962 0.960 . S
C950 H963 0.962 . S
C950 H964 0.960 . S
C951 C948 1.511 . S
C951 H965 0.961 . S
C951 H966 0.961 . S
C951 H967 0.961 . S
C952 C953 1.370 . S
C952 C954 1.363 . S
C952 H968 0.931 . S
C953 C952 1.370 . S
C953 C957 1.408 . S
C954 C952 1.363 . S
C954 C955 1.370 . S
C954 C958 1.524 . S
C955 C947 1.503 . S
C955 C954 1.370 . S
C955 C956 1.403 . S
C956 C955 1.403 . S
C956 C957 1.404 . S
C956 C959 1.539 . S
C957 C953 1.408 . S
C957 C956 1.404 . S
C957 H969 0.930 . S
C958 C954 1.524 . S
C958 H970 0.956 . S
C958 H971 0.961 . S
C958 H972 0.961 . S
C959 C956 1.539 . S
C959 H973 0.958 . S
C959 H974 0.961 . S
C959 H975 0.960 . S
H960 C944 0.931 . S
H961 C949 0.929 . S
H962 C950 0.960 . S
H963 C950 0.962 . S
H964 C950 0.960 . S
H965 C951 0.961 . S
H966 C951 0.961 . S
H967 C951 0.961 . S
H968 C952 0.931 . S
H969 C957 0.930 . S
H970 C958 0.956 . S
H971 C958 0.961 . S
H972 C958 0.961 . S
H973 C959 0.958 . S
H974 C959 0.961 . S
H975 C959 0.960 . S
C976 C977 1.391 . S
C976 C978 1.394 1_554 S
C976 H992 0.931 . S
C977 C976 1.391 . S
C977 C981 1.376 . S
C978 C976 1.394 1_556 S
C978 C979 1.369 . S
C978 C982 1.531 . S
C979 C978 1.369 . S
C979 C980 1.410 . S
C979 C987 1.503 . S
C980 C979 1.410 . S
C980 C981 1.392 1_556 S
C980 C983 1.511 . S
C981 C977 1.376 . S
C981 C980 1.392 1_554 S
C981 H993 0.929 . S
C982 C978 1.531 . S
C982 H994 0.960 . S
C982 H995 0.962 . S
C982 H996 0.960 . S
C983 C980 1.511 . S
C983 H997 0.961 . S
C983 H998 0.961 . S
C983 H999 0.961 . S
C984 C985 1.370 . S
C984 C986 1.363 . S
C984 H1000 0.931 . S
C985 C984 1.370 . S
C985 C989 1.408 . S
C986 C984 1.363 . S
C986 C987 1.370 . S
C986 C990 1.524 . S
C987 C979 1.503 . S
C987 C986 1.370 . S
C987 C988 1.403 . S
C988 C987 1.403 . S
C988 C989 1.404 . S
C988 C991 1.539 . S
C989 C985 1.408 . S
C989 C988 1.404 . S
C989 H1001 0.930 . S
C990 C986 1.524 . S
C990 H1002 0.956 . S
C990 H1003 0.961 . S
C990 H1004 0.961 . S
C991 C988 1.539 . S
C991 H1005 0.958 . S
C991 H1006 0.961 . S
C991 H1007 0.960 . S
H992 C976 0.931 . S
H993 C981 0.929 . S
H994 C982 0.960 . S
H995 C982 0.962 . S
H996 C982 0.960 . S
H997 C983 0.961 . S
H998 C983 0.961 . S
H999 C983 0.961 . S
H1000 C984 0.931 . S
H1001 C989 0.930 . S
H1002 C990 0.956 . S
H1003 C990 0.961 . S
H1004 C990 0.961 . S
H1005 C991 0.958 . S
H1006 C991 0.961 . S
H1007 C991 0.960 . S
C1008 C1009 1.391 . S
C1008 C1010 1.394 . S
C1008 H1024 0.931 . S
C1009 C1008 1.391 . S
C1009 C1013 1.376 . S
C1010 C1008 1.394 . S
C1010 C1011 1.369 . S
C1010 C1014 1.531 . S
C1011 C1010 1.369 . S
C1011 C1012 1.410 . S
C1011 C1019 1.503 . S
C1012 C1011 1.410 . S
C1012 C1013 1.392 . S
C1012 C1015 1.511 . S
C1013 C1009 1.376 . S
C1013 C1012 1.392 . S
C1013 H1025 0.929 . S
C1014 C1010 1.531 . S
C1014 H1026 0.960 . S
C1014 H1027 0.962 . S
C1014 H1028 0.960 . S
C1015 C1012 1.511 . S
C1015 H1029 0.961 . S
C1015 H1030 0.961 . S
C1015 H1031 0.961 . S
C1016 C1017 1.370 . S
C1016 C1018 1.363 . S
C1016 H1032 0.931 . S
C1017 C1016 1.370 . S
C1017 C1021 1.408 . S
C1018 C1016 1.363 . S
C1018 C1019 1.370 . S
C1018 C1022 1.524 . S
C1019 C1011 1.503 . S
C1019 C1018 1.370 . S
C1019 C1020 1.403 . S
C1020 C1019 1.403 . S
C1020 C1021 1.404 . S
C1020 C1023 1.539 . S
C1021 C1017 1.408 . S
C1021 C1020 1.404 . S
C1021 H1033 0.930 . S
C1022 C1018 1.524 . S
C1022 H1034 0.956 . S
C1022 H1035 0.961 . S
C1022 H1036 0.961 . S
C1023 C1020 1.539 . S
C1023 H1037 0.958 . S
C1023 H1038 0.961 . S
C1023 H1039 0.960 . S
H1024 C1008 0.931 . S
H1025 C1013 0.929 . S
H1026 C1014 0.960 . S
H1027 C1014 0.962 . S
H1028 C1014 0.960 . S
H1029 C1015 0.961 . S
H1030 C1015 0.961 . S
H1031 C1015 0.961 . S
H1032 C1016 0.931 . S
H1033 C1021 0.930 . S
H1034 C1022 0.956 . S
H1035 C1022 0.961 . S
H1036 C1022 0.961 . S
H1037 C1023 0.958 . S
H1038 C1023 0.961 . S
H1039 C1023 0.960 . S
C1040 C1041 1.391 . S
C1040 C1042 1.394 . S
C1040 H1056 0.931 . S
C1041 C1040 1.391 . S
C1041 C1045 1.376 . S
C1042 C1040 1.394 . S
C1042 C1043 1.369 . S
C1042 C1046 1.531 . S
C1043 C1042 1.369 . S
C1043 C1044 1.410 1_554 S
C1043 C1051 1.503 1_554 S
C1044 C1043 1.410 1_556 S
C1044 C1045 1.392 1_556 S
C1044 C1047 1.511 . S
C1045 C1041 1.376 . S
C1045 C1044 1.392 1_554 S
C1045 H1057 0.929 1_554 S
C1046 C1042 1.531 . S
C1046 H1058 0.960 . S
C1046 H1059 0.962 . S
C1046 H1060 0.960 . S
C1047 C1044 1.511 . S
C1047 H1061 0.961 . S
C1047 H1062 0.961 . S
C1047 H1063 0.961 . S
C1048 C1049 1.370 . S
C1048 C1050 1.363 . S
C1048 H1064 0.931 . S
C1049 C1048 1.370 . S
C1049 C1053 1.408 1_556 S
C1050 C1048 1.363 . S
C1050 C1051 1.370 . S
C1050 C1054 1.524 . S
C1051 C1043 1.503 1_556 S
C1051 C1050 1.370 . S
C1051 C1052 1.403 1_556 S
C1052 C1051 1.403 1_554 S
C1052 C1053 1.404 . S
C1052 C1055 1.539 . S
C1053 C1049 1.408 1_554 S
C1053 C1052 1.404 . S
C1053 H1065 0.930 . S
C1054 C1050 1.524 . S
C1054 H1066 0.956 . S
C1054 H1067 0.961 . S
C1054 H1068 0.961 . S
C1055 C1052 1.539 . S
C1055 H1069 0.958 . S
C1055 H1070 0.961 . S
C1055 H1071 0.960 . S
H1056 C1040 0.931 . S
H1057 C1045 0.929 1_556 S
H1058 C1046 0.960 . S
H1059 C1046 0.962 . S
H1060 C1046 0.960 . S
H1061 C1047 0.961 . S
H1062 C1047 0.961 . S
H1063 C1047 0.961 . S
H1064 C1048 0.931 . S
H1065 C1053 0.930 . S
H1066 C1054 0.956 . S
H1067 C1054 0.961 . S
H1068 C1054 0.961 . S
H1069 C1055 0.958 . S
H1070 C1055 0.961 . S
H1071 C1055 0.960 . S
C1072 C1073 1.391 . S
C1072 C1074 1.394 . S
C1072 H1088 0.931 . S
C1073 C1072 1.391 . S
C1073 C1077 1.376 . S
C1074 C1072 1.394 . S
C1074 C1075 1.369 . S
C1074 C1078 1.531 . S
C1075 C1074 1.369 . S
C1075 C1076 1.410 . S
C1075 C1083 1.503 . S
C1076 C1075 1.410 . S
C1076 C1077 1.392 . S
C1076 C1079 1.511 . S
C1077 C1073 1.376 . S
C1077 C1076 1.392 . S
C1077 H1089 0.929 . S
C1078 C1074 1.531 . S
C1078 H1090 0.960 . S
C1078 H1091 0.962 . S
C1078 H1092 0.960 . S
C1079 C1076 1.511 . S
C1079 H1093 0.961 . S
C1079 H1094 0.961 . S
C1079 H1095 0.961 . S
C1080 C1081 1.370 . S
C1080 C1082 1.363 . S
C1080 H1096 0.931 . S
C1081 C1080 1.370 . S
C1081 C1085 1.408 . S
C1082 C1080 1.363 . S
C1082 C1083 1.370 . S
C1082 C1086 1.524 . S
C1083 C1075 1.503 . S
C1083 C1082 1.370 . S
C1083 C1084 1.403 . S
C1084 C1083 1.403 . S
C1084 C1085 1.404 . S
C1084 C1087 1.539 . S
C1085 C1081 1.408 . S
C1085 C1084 1.404 . S
C1085 H1097 0.930 . S
C1086 C1082 1.524 . S
C1086 H1098 0.956 . S
C1086 H1099 0.961 . S
C1086 H1100 0.961 . S
C1087 C1084 1.539 . S
C1087 H1101 0.958 . S
C1087 H1102 0.961 . S
C1087 H1103 0.960 . S
H1088 C1072 0.931 . S
H1089 C1077 0.929 . S
H1090 C1078 0.960 . S
H1091 C1078 0.962 . S
H1092 C1078 0.960 . S
H1093 C1079 0.961 . S
H1094 C1079 0.961 . S
H1095 C1079 0.961 . S
H1096 C1080 0.931 . S
H1097 C1085 0.930 . S
H1098 C1086 0.956 . S
H1099 C1086 0.961 . S
H1100 C1086 0.961 . S
H1101 C1087 0.958 . S
H1102 C1087 0.961 . S
H1103 C1087 0.960 . S
C1104 C1105 1.391 . S
C1104 C1106 1.394 . S
C1104 H1120 0.931 . S
C1105 C1104 1.391 . S
C1105 C1109 1.376 . S
C1106 C1104 1.394 . S
C1106 C1107 1.369 . S
C1106 C1110 1.531 . S
C1107 C1106 1.369 . S
C1107 C1108 1.410 . S
C1107 C1115 1.503 . S
C1108 C1107 1.410 . S
C1108 C1109 1.392 . S
C1108 C1111 1.511 . S
C1109 C1105 1.376 . S
C1109 C1108 1.392 . S
C1109 H1121 0.929 . S
C1110 C1106 1.531 . S
C1110 H1122 0.960 . S
C1110 H1123 0.962 . S
C1110 H1124 0.960 . S
C1111 C1108 1.511 . S
C1111 H1125 0.961 . S
C1111 H1126 0.961 . S
C1111 H1127 0.961 . S
C1112 C1113 1.370 . S
C1112 C1114 1.363 . S
C1112 H1128 0.931 . S
C1113 C1112 1.370 . S
C1113 C1117 1.408 . S
C1114 C1112 1.363 . S
C1114 C1115 1.370 . S
C1114 C1118 1.524 . S
C1115 C1107 1.503 . S
C1115 C1114 1.370 . S
C1115 C1116 1.403 . S
C1116 C1115 1.403 . S
C1116 C1117 1.404 . S
C1116 C1119 1.539 . S
C1117 C1113 1.408 . S
C1117 C1116 1.404 . S
C1117 H1129 0.930 . S
C1118 C1114 1.524 . S
C1118 H1130 0.956 . S
C1118 H1131 0.961 . S
C1118 H1132 0.961 . S
C1119 C1116 1.539 . S
C1119 H1133 0.958 . S
C1119 H1134 0.961 . S
C1119 H1135 0.960 . S
H1120 C1104 0.931 . S
H1121 C1109 0.929 . S
H1122 C1110 0.960 . S
H1123 C1110 0.962 . S
H1124 C1110 0.960 . S
H1125 C1111 0.961 . S
H1126 C1111 0.961 . S
H1127 C1111 0.961 . S
H1128 C1112 0.931 . S
H1129 C1117 0.930 . S
H1130 C1118 0.956 . S
H1131 C1118 0.961 . S
H1132 C1118 0.961 . S
H1133 C1119 0.958 . S
H1134 C1119 0.961 . S
H1135 C1119 0.960 . S
C1136 C1137 1.391 . S
C1136 C1138 1.394 . S
C1136 H1152 0.931 . S
C1137 C1136 1.391 . S
C1137 C1141 1.376 . S
C1138 C1136 1.394 . S
C1138 C1139 1.369 . S
C1138 C1142 1.531 . S
C1139 C1138 1.369 . S
C1139 C1140 1.410 . S
C1139 C1147 1.503 . S
C1140 C1139 1.410 . S
C1140 C1141 1.392 . S
C1140 C1143 1.511 . S
C1141 C1137 1.376 . S
C1141 C1140 1.392 . S
C1141 H1153 0.929 . S
C1142 C1138 1.531 . S
C1142 H1154 0.960 . S
C1142 H1155 0.962 . S
C1142 H1156 0.960 . S
C1143 C1140 1.511 . S
C1143 H1157 0.961 . S
C1143 H1158 0.961 . S
C1143 H1159 0.961 . S
C1144 C1145 1.370 . S
C1144 C1146 1.363 . S
C1144 H1160 0.931 . S
C1145 C1144 1.370 . S
C1145 C1149 1.408 . S
C1146 C1144 1.363 . S
C1146 C1147 1.370 . S
C1146 C1150 1.524 . S
C1147 C1139 1.503 . S
C1147 C1146 1.370 . S
C1147 C1148 1.403 . S
C1148 C1147 1.403 . S
C1148 C1149 1.404 . S
C1148 C1151 1.539 . S
C1149 C1145 1.408 . S
C1149 C1148 1.404 . S
C1149 H1161 0.930 . S
C1150 C1146 1.524 . S
C1150 H1162 0.956 . S
C1150 H1163 0.961 . S
C1150 H1164 0.961 . S
C1151 C1148 1.539 . S
C1151 H1165 0.958 . S
C1151 H1166 0.961 . S
C1151 H1167 0.960 . S
H1152 C1136 0.931 . S
H1153 C1141 0.929 . S
H1154 C1142 0.960 . S
H1155 C1142 0.962 . S
H1156 C1142 0.960 . S
H1157 C1143 0.961 . S
H1158 C1143 0.961 . S
H1159 C1143 0.961 . S
H1160 C1144 0.931 . S
H1161 C1149 0.930 . S
H1162 C1150 0.956 . S
H1163 C1150 0.961 . S
H1164 C1150 0.961 . S
H1165 C1151 0.958 . S
H1166 C1151 0.961 . S
H1167 C1151 0.960 . S
C1168 C1169 1.391 . S
C1168 C1170 1.394 . S
C1168 H1184 0.931 . S
C1169 C1168 1.391 . S
C1169 C1173 1.376 . S
C1170 C1168 1.394 . S
C1170 C1171 1.369 . S
C1170 C1174 1.531 . S
C1171 C1170 1.369 . S
C1171 C1172 1.410 . S
C1171 C1179 1.503 . S
C1172 C1171 1.410 . S
C1172 C1173 1.392 . S
C1172 C1175 1.511 . S
C1173 C1169 1.376 . S
C1173 C1172 1.392 . S
C1173 H1185 0.929 . S
C1174 C1170 1.531 . S
C1174 H1186 0.960 . S
C1174 H1187 0.962 . S
C1174 H1188 0.960 . S
C1175 C1172 1.511 . S
C1175 H1189 0.961 . S
C1175 H1190 0.961 . S
C1175 H1191 0.961 . S
C1176 C1177 1.370 . S
C1176 C1178 1.363 . S
C1176 H1192 0.931 . S
C1177 C1176 1.370 . S
C1177 C1181 1.408 . S
C1178 C1176 1.363 . S
C1178 C1179 1.370 . S
C1178 C1182 1.524 . S
C1179 C1171 1.503 . S
C1179 C1178 1.370 . S
C1179 C1180 1.403 . S
C1180 C1179 1.403 . S
C1180 C1181 1.404 . S
C1180 C1183 1.539 . S
C1181 C1177 1.408 . S
C1181 C1180 1.404 . S
C1181 H1193 0.930 . S
C1182 C1178 1.524 . S
C1182 H1194 0.956 . S
C1182 H1195 0.961 . S
C1182 H1196 0.961 . S
C1183 C1180 1.539 . S
C1183 H1197 0.958 . S
C1183 H1198 0.961 . S
C1183 H1199 0.960 . S
H1184 C1168 0.931 . S
H1185 C1173 0.929 . S
H1186 C1174 0.960 . S
H1187 C1174 0.962 . S
H1188 C1174 0.960 . S
H1189 C1175 0.961 . S
H1190 C1175 0.961 . S
H1191 C1175 0.961 . S
H1192 C1176 0.931 . S
H1193 C1181 0.930 . S
H1194 C1182 0.956 . S
H1195 C1182 0.961 . S
H1196 C1182 0.961 . S
H1197 C1183 0.958 . S
H1198 C1183 0.961 . S
H1199 C1183 0.960 . S
C1200 C1201 1.391 . S
C1200 C1202 1.394 . S
C1200 H1216 0.931 . S
C1201 C1200 1.391 . S
C1201 C1205 1.376 . S
C1202 C1200 1.394 . S
C1202 C1203 1.369 . S
C1202 C1206 1.531 . S
C1203 C1202 1.369 . S
C1203 C1204 1.410 . S
C1203 C1211 1.503 . S
C1204 C1203 1.410 . S
C1204 C1205 1.392 . S
C1204 C1207 1.511 . S
C1205 C1201 1.376 . S
C1205 C1204 1.392 . S
C1205 H1217 0.929 . S
C1206 C1202 1.531 . S
C1206 H1218 0.960 . S
C1206 H1219 0.962 . S
C1206 H1220 0.960 . S
C1207 C1204 1.511 . S
C1207 H1221 0.961 . S
C1207 H1222 0.961 . S
C1207 H1223 0.961 . S
C1208 C1209 1.370 . S
C1208 C1210 1.363 . S
C1208 H1224 0.931 . S
C1209 C1208 1.370 . S
C1209 C1213 1.408 . S
C1210 C1208 1.363 . S
C1210 C1211 1.370 . S
C1210 C1214 1.524 . S
C1211 C1203 1.503 . S
C1211 C1210 1.370 . S
C1211 C1212 1.403 . S
C1212 C1211 1.403 . S
C1212 C1213 1.404 . S
C1212 C1215 1.539 . S
C1213 C1209 1.408 . S
C1213 C1212 1.404 . S
C1213 H1225 0.930 . S
C1214 C1210 1.524 . S
C1214 H1226 0.956 . S
C1214 H1227 0.961 . S
C1214 H1228 0.961 . S
C1215 C1212 1.539 . S
C1215 H1229 0.958 . S
C1215 H1230 0.961 . S
C1215 H1231 0.960 . S
H1216 C1200 0.931 . S
H1217 C1205 0.929 . S
H1218 C1206 0.960 . S
H1219 C1206 0.962 . S
H1220 C1206 0.960 . S
H1221 C1207 0.961 . S
H1222 C1207 0.961 . S
H1223 C1207 0.961 . S
H1224 C1208 0.931 . S
H1225 C1213 0.930 . S
H1226 C1214 0.956 . S
H1227 C1214 0.961 . S
H1228 C1214 0.961 . S
H1229 C1215 0.958 . S
H1230 C1215 0.961 . S
H1231 C1215 0.960 . S
C1232 C1233 1.391 . S
C1232 C1234 1.394 . S
C1232 H1248 0.931 . S
C1233 C1232 1.391 . S
C1233 C1237 1.376 . S
C1234 C1232 1.394 . S
C1234 C1235 1.369 . S
C1234 C1238 1.531 . S
C1235 C1234 1.369 . S
C1235 C1236 1.410 . S
C1235 C1243 1.503 1_545 S
C1236 C1235 1.410 . S
C1236 C1237 1.392 . S
C1236 C1239 1.511 . S
C1237 C1233 1.376 . S
C1237 C1236 1.392 . S
C1237 H1249 0.929 . S
C1238 C1234 1.531 . S
C1238 H1250 0.960 1_545 S
C1238 H1251 0.961 1_545 S
C1238 H1252 0.960 . S
C1239 C1236 1.511 . S
C1239 H1253 0.961 . S
C1239 H1254 0.961 . S
C1239 H1255 0.961 . S
C1240 C1241 1.370 . S
C1240 C1242 1.363 . S
C1240 H1256 0.931 . S
C1241 C1240 1.370 . S
C1241 C1245 1.408 . S
C1242 C1240 1.363 . S
C1242 C1243 1.370 . S
C1242 C1246 1.524 . S
C1243 C1235 1.503 1_565 S
C1243 C1242 1.370 . S
C1243 C1244 1.403 . S
C1244 C1243 1.403 . S
C1244 C1245 1.404 . S
C1244 C1247 1.539 . S
C1245 C1241 1.408 . S
C1245 C1244 1.404 . S
C1245 H1257 0.930 . S
C1246 C1242 1.524 . S
C1246 H1258 0.956 1_565 S
C1246 H1259 0.961 1_565 S
C1246 H1260 0.961 . S
C1247 C1244 1.539 . S
C1247 H1261 0.958 . S
C1247 H1262 0.961 . S
C1247 H1263 0.960 . S
H1248 C1232 0.931 . S
H1249 C1237 0.929 . S
H1250 C1238 0.960 1_565 S
H1251 C1238 0.961 1_565 S
H1252 C1238 0.960 . S
H1253 C1239 0.961 . S
H1254 C1239 0.961 . S
H1255 C1239 0.961 . S
H1256 C1240 0.931 . S
H1257 C1245 0.930 . S
H1258 C1246 0.956 1_545 S
H1259 C1246 0.961 1_545 S
H1260 C1246 0.961 . S
H1261 C1247 0.958 . S
H1262 C1247 0.961 . S
H1263 C1247 0.960 . S
C1264 C1265 1.391 . S
C1264 C1266 1.394 1_554 S
C1264 H1280 0.931 1_554 S
C1265 C1264 1.391 . S
C1265 C1269 1.376 . S
C1266 C1264 1.394 1_556 S
C1266 C1267 1.369 . S
C1266 C1270 1.531 . S
C1267 C1266 1.369 . S
C1267 C1268 1.410 1_556 S
C1267 C1275 1.503 1_565 S
C1268 C1267 1.410 1_554 S
C1268 C1269 1.392 . S
C1268 C1271 1.511 . S
C1269 C1265 1.376 . S
C1269 C1268 1.392 . S
C1269 H1281 0.929 . S
C1270 C1266 1.531 . S
C1270 H1282 0.960 . S
C1270 H1283 0.962 . S
C1270 H1284 0.960 . S
C1271 C1268 1.511 . S
C1271 H1285 0.961 . S
C1271 H1286 0.961 1_565 S
C1271 H1287 0.961 . S
C1272 C1273 1.370 1_554 S
C1272 C1274 1.363 . S
C1272 H1288 0.931 . S
C1273 C1272 1.370 1_556 S
C1273 C1277 1.408 . S
C1274 C1272 1.363 . S
C1274 C1275 1.370 1_554 S
C1274 C1278 1.524 . S
C1275 C1267 1.503 1_545 S
C1275 C1274 1.370 1_556 S
C1275 C1276 1.403 . S
C1276 C1275 1.403 . S
C1276 C1277 1.404 . S
C1276 C1279 1.539 . S
C1277 C1273 1.408 . S
C1277 C1276 1.404 . S
C1277 H1289 0.930 . S
C1278 C1274 1.524 . S
C1278 H1290 0.956 . S
C1278 H1291 0.961 . S
C1278 H1292 0.961 . S
C1279 C1276 1.539 . S
C1279 H1293 0.958 1_545 S
C1279 H1294 0.961 . S
C1279 H1295 0.960 1_545 S
H1280 C1264 0.931 1_556 S
H1281 C1269 0.929 . S
H1282 C1270 0.960 . S
H1283 C1270 0.962 . S
H1284 C1270 0.960 . S
H1285 C1271 0.961 . S
H1286 C1271 0.961 1_545 S
H1287 C1271 0.961 . S
H1288 C1272 0.931 . S
H1289 C1277 0.930 . S
H1290 C1278 0.956 . S
H1291 C1278 0.961 . S
H1292 C1278 0.961 . S
H1293 C1279 0.958 1_565 S
H1294 C1279 0.961 . S
H1295 C1279 0.960 1_565 S
C1296 C1297 1.391 . S
C1296 C1298 1.394 . S
C1296 H1312 0.931 . S
C1297 C1296 1.391 . S
C1297 C1301 1.376 . S
C1298 C1296 1.394 . S
C1298 C1299 1.369 . S
C1298 C1302 1.531 . S
C1299 C1298 1.369 . S
C1299 C1300 1.410 . S
C1299 C1307 1.503 . S
C1300 C1299 1.410 . S
C1300 C1301 1.392 . S
C1300 C1303 1.511 . S
C1301 C1297 1.376 . S
C1301 C1300 1.392 . S
C1301 H1313 0.929 . S
C1302 C1298 1.531 . S
C1302 H1314 0.960 . S
C1302 H1315 0.962 . S
C1302 H1316 0.960 1_554 S
C1303 C1300 1.511 . S
C1303 H1317 0.961 . S
C1303 H1318 0.961 . S
C1303 H1319 0.961 . S
C1304 C1305 1.370 . S
C1304 C1306 1.363 . S
C1304 H1320 0.931 . S
C1305 C1304 1.370 . S
C1305 C1309 1.408 . S
C1306 C1304 1.363 . S
C1306 C1307 1.370 . S
C1306 C1310 1.524 . S
C1307 C1299 1.503 . S
C1307 C1306 1.370 . S
C1307 C1308 1.403 . S
C1308 C1307 1.403 . S
C1308 C1309 1.404 . S
C1308 C1311 1.539 . S
C1309 C1305 1.408 . S
C1309 C1308 1.404 . S
C1309 H1321 0.930 . S
C1310 C1306 1.524 . S
C1310 H1322 0.956 . S
C1310 H1323 0.961 . S
C1310 H1324 0.961 . S
C1311 C1308 1.539 . S
C1311 H1325 0.958 1_554 S
C1311 H1326 0.961 . S
C1311 H1327 0.960 . S
H1312 C1296 0.931 . S
H1313 C1301 0.929 . S
H1314 C1302 0.960 . S
H1315 C1302 0.962 . S
H1316 C1302 0.960 1_556 S
H1317 C1303 0.961 . S
H1318 C1303 0.961 . S
H1319 C1303 0.961 . S
H1320 C1304 0.931 . S
H1321 C1309 0.930 . S
H1322 C1310 0.956 . S
H1323 C1310 0.961 . S
H1324 C1310 0.961 . S
H1325 C1311 0.958 1_556 S
H1326 C1311 0.961 . S
H1327 C1311 0.960 . S
C1328 C1329 1.391 . S
C1328 C1330 1.394 . S
C1328 H1344 0.931 . S
C1329 C1328 1.391 . S
C1329 C1333 1.376 . S
C1330 C1328 1.394 . S
C1330 C1331 1.369 . S
C1330 C1334 1.531 . S
C1331 C1330 1.369 . S
C1331 C1332 1.410 . S
C1331 C1339 1.503 . S
C1332 C1331 1.410 . S
C1332 C1333 1.392 . S
C1332 C1335 1.511 . S
C1333 C1329 1.376 . S
C1333 C1332 1.392 . S
C1333 H1345 0.929 . S
C1334 C1330 1.531 . S
C1334 H1346 0.960 . S
C1334 H1347 0.962 . S
C1334 H1348 0.960 . S
C1335 C1332 1.511 . S
C1335 H1349 0.961 . S
C1335 H1350 0.961 . S
C1335 H1351 0.961 . S
C1336 C1337 1.370 . S
C1336 C1338 1.363 . S
C1336 H1352 0.931 . S
C1337 C1336 1.370 . S
C1337 C1341 1.408 . S
C1338 C1336 1.363 . S
C1338 C1339 1.370 . S
C1338 C1342 1.524 . S
C1339 C1331 1.503 . S
C1339 C1338 1.370 . S
C1339 C1340 1.403 . S
C1340 C1339 1.403 . S
C1340 C1341 1.404 . S
C1340 C1343 1.539 . S
C1341 C1337 1.408 . S
C1341 C1340 1.404 . S
C1341 H1353 0.930 . S
C1342 C1338 1.524 . S
C1342 H1354 0.956 . S
C1342 H1355 0.961 . S
C1342 H1356 0.961 . S
C1343 C1340 1.539 . S
C1343 H1357 0.958 . S
C1343 H1358 0.961 . S
C1343 H1359 0.960 . S
H1344 C1328 0.931 . S
H1345 C1333 0.929 . S
H1346 C1334 0.960 . S
H1347 C1334 0.962 . S
H1348 C1334 0.960 . S
H1349 C1335 0.961 . S
H1350 C1335 0.961 . S
H1351 C1335 0.961 . S
H1352 C1336 0.931 . S
H1353 C1341 0.930 . S
H1354 C1342 0.956 . S
H1355 C1342 0.961 . S
H1356 C1342 0.961 . S
H1357 C1343 0.958 . S
H1358 C1343 0.961 . S
H1359 C1343 0.960 . S
C1360 C1361 1.391 . S
C1360 C1362 1.394 . S
C1360 H1376 0.931 . S
C1361 C1360 1.391 . S
C1361 C1365 1.376 . S
C1362 C1360 1.394 . S
C1362 C1363 1.369 . S
C1362 C1366 1.531 . S
C1363 C1362 1.369 . S
C1363 C1364 1.410 . S
C1363 C1371 1.503 . S
C1364 C1363 1.410 . S
C1364 C1365 1.392 . S
C1364 C1367 1.511 . S
C1365 C1361 1.376 . S
C1365 C1364 1.392 . S
C1365 H1377 0.929 . S
C1366 C1362 1.531 . S
C1366 H1378 0.960 . S
C1366 H1379 0.962 . S
C1366 H1380 0.960 . S
C1367 C1364 1.511 . S
C1367 H1381 0.961 . S
C1367 H1382 0.961 . S
C1367 H1383 0.961 . S
C1368 C1369 1.370 . S
C1368 C1370 1.363 . S
C1368 H1384 0.931 . S
C1369 C1368 1.370 . S
C1369 C1373 1.408 . S
C1370 C1368 1.363 . S
C1370 C1371 1.370 . S
C1370 C1374 1.524 . S
C1371 C1363 1.503 . S
C1371 C1370 1.370 . S
C1371 C1372 1.403 . S
C1372 C1371 1.403 . S
C1372 C1373 1.404 . S
C1372 C1375 1.539 . S
C1373 C1369 1.408 . S
C1373 C1372 1.404 . S
C1373 H1385 0.930 . S
C1374 C1370 1.524 . S
C1374 H1386 0.956 . S
C1374 H1387 0.961 . S
C1374 H1388 0.961 . S
C1375 C1372 1.539 . S
C1375 H1389 0.958 . S
C1375 H1390 0.961 . S
C1375 H1391 0.960 . S
H1376 C1360 0.931 . S
H1377 C1365 0.929 . S
H1378 C1366 0.960 . S
H1379 C1366 0.962 . S
H1380 C1366 0.960 . S
H1381 C1367 0.961 . S
H1382 C1367 0.961 . S
H1383 C1367 0.961 . S
H1384 C1368 0.931 . S
H1385 C1373 0.930 . S
H1386 C1374 0.956 . S
H1387 C1374 0.961 . S
H1388 C1374 0.961 . S
H1389 C1375 0.958 . S
H1390 C1375 0.961 . S
H1391 C1375 0.960 . S
C1392 C1393 1.380 1_655 S
C1392 C1394 1.418 . S
C1392 H1408 0.919 1_655 S
C1393 C1392 1.380 1_455 S
C1393 C1397 1.367 1_455 S
C1394 C1392 1.418 . S
C1394 C1395 1.369 . S
C1394 C1398 1.531 1_556 S
C1395 C1394 1.369 . S
C1395 C1396 1.410 . S
C1395 C1403 1.503 . S
C1396 C1395 1.410 . S
C1396 C1397 1.411 . S
C1396 C1399 1.511 . S
C1397 C1393 1.367 1_655 S
C1397 C1396 1.411 . S
C1397 H1409 0.919 1_655 S
C1398 C1394 1.531 1_554 S
C1398 H1410 0.960 . S
C1398 H1411 0.962 . S
C1398 H1412 0.960 . S
C1399 C1396 1.511 . S
C1399 H1413 0.961 . S
C1399 H1414 0.961 . S
C1399 H1415 0.961 . S
C1400 C1401 1.370 . S
C1400 C1402 1.363 . S
C1400 H1416 0.931 . S
C1401 C1400 1.370 . S
C1401 C1405 1.408 . S
C1402 C1400 1.363 . S
C1402 C1403 1.370 . S
C1402 C1406 1.524 . S
C1403 C1395 1.503 . S
C1403 C1402 1.370 . S
C1403 C1404 1.403 . S
C1404 C1403 1.403 . S
C1404 C1405 1.404 . S
C1404 C1407 1.539 . S
C1405 C1401 1.408 . S
C1405 C1404 1.404 . S
C1405 H1417 0.930 . S
C1406 C1402 1.524 . S
C1406 H1418 0.956 . S
C1406 H1419 0.961 . S
C1406 H1420 0.961 . S
C1407 C1404 1.539 . S
C1407 H1421 0.958 . S
C1407 H1422 0.961 . S
C1407 H1423 0.960 . S
H1408 C1392 0.919 1_455 S
H1409 C1397 0.919 1_455 S
H1410 C1398 0.960 . S
H1411 C1398 0.962 . S
H1412 C1398 0.960 . S
H1413 C1399 0.961 . S
H1414 C1399 0.961 . S
H1415 C1399 0.961 . S
H1416 C1400 0.931 . S
H1417 C1405 0.930 . S
H1418 C1406 0.956 . S
H1419 C1406 0.961 . S
H1420 C1406 0.961 . S
H1421 C1407 0.958 . S
H1422 C1407 0.961 . S
H1423 C1407 0.960 . S
C1424 C1425 1.391 . S
C1424 C1426 1.394 . S
C1424 H1440 0.931 . S
C1425 C1424 1.391 . S
C1425 C1429 1.376 . S
C1426 C1424 1.394 . S
C1426 C1427 1.369 . S
C1426 C1430 1.531 . S
C1427 C1426 1.369 . S
C1427 C1428 1.410 . S
C1427 C1435 1.503 . S
C1428 C1427 1.410 . S
C1428 C1429 1.392 . S
C1428 C1431 1.511 . S
C1429 C1425 1.376 . S
C1429 C1428 1.392 . S
C1429 H1441 0.929 . S
C1430 C1426 1.531 . S
C1430 H1442 0.960 . S
C1430 H1443 0.962 . S
C1430 H1444 0.960 1_556 S
C1431 C1428 1.511 . S
C1431 H1445 0.961 . S
C1431 H1446 0.961 . S
C1431 H1447 0.961 . S
C1432 C1433 1.370 . S
C1432 C1434 1.363 . S
C1432 H1448 0.931 . S
C1433 C1432 1.370 . S
C1433 C1437 1.408 . S
C1434 C1432 1.363 . S
C1434 C1435 1.370 . S
C1434 C1438 1.524 . S
C1435 C1427 1.503 . S
C1435 C1434 1.370 . S
C1435 C1436 1.403 . S
C1436 C1435 1.403 . S
C1436 C1437 1.404 . S
C1436 C1439 1.539 . S
C1437 C1433 1.408 . S
C1437 C1436 1.404 . S
C1437 H1449 0.930 . S
C1438 C1434 1.524 . S
C1438 H1450 0.956 . S
C1438 H1451 0.961 . S
C1438 H1452 0.961 . S
C1439 C1436 1.539 . S
C1439 H1453 0.958 1_556 S
C1439 H1454 0.961 . S
C1439 H1455 0.960 . S
H1440 C1424 0.931 . S
H1441 C1429 0.929 . S
H1442 C1430 0.960 . S
H1443 C1430 0.962 . S
H1444 C1430 0.960 1_554 S
H1445 C1431 0.961 . S
H1446 C1431 0.961 . S
H1447 C1431 0.961 . S
H1448 C1432 0.931 . S
H1449 C1437 0.930 . S
H1450 C1438 0.956 . S
H1451 C1438 0.961 . S
H1452 C1438 0.961 . S
H1453 C1439 0.958 1_554 S
H1454 C1439 0.961 . S
H1455 C1439 0.960 . S
C1456 C1457 1.391 1_655 S
C1456 C1458 1.394 . S
C1456 H1472 0.931 . S
C1457 C1456 1.391 1_455 S
C1457 C1461 1.376 . S
C1458 C1456 1.394 . S
C1458 C1459 1.369 . S
C1458 C1462 1.531 1_554 S
C1459 C1458 1.369 . S
C1459 C1460 1.410 . S
C1459 C1467 1.503 . S
C1460 C1459 1.410 . S
C1460 C1461 1.392 1_655 S
C1460 C1463 1.511 . S
C1461 C1457 1.376 . S
C1461 C1460 1.392 1_455 S
C1461 H1473 0.929 . S
C1462 C1458 1.531 1_556 S
C1462 H1474 0.960 . S
C1462 H1475 0.962 1_556 S
C1462 H1476 0.960 . S
C1463 C1460 1.511 . S
C1463 H1477 0.961 . S
C1463 H1478 0.961 . S
C1463 H1479 0.961 1_655 S
C1464 C1465 1.370 . S
C1464 C1466 1.363 . S
C1464 H1480 0.931 . S
C1465 C1464 1.370 . S
C1465 C1469 1.408 . S
C1466 C1464 1.363 . S
C1466 C1467 1.370 . S
C1466 C1470 1.524 . S
C1467 C1459 1.503 . S
C1467 C1466 1.370 . S
C1467 C1468 1.403 . S
C1468 C1467 1.403 . S
C1468 C1469 1.404 . S
C1468 C1471 1.539 . S
C1469 C1465 1.408 . S
C1469 C1468 1.404 . S
C1469 H1481 0.930 . S
C1470 C1466 1.524 . S
C1470 H1482 0.956 . S
C1470 H1483 0.961 . S
C1470 H1484 0.961 . S
C1471 C1468 1.539 . S
C1471 H1485 0.958 . S
C1471 H1486 0.961 . S
C1471 H1487 0.960 . S
H1472 C1456 0.931 . S
H1473 C1461 0.929 . S
H1474 C1462 0.960 . S
H1475 C1462 0.962 1_554 S
H1476 C1462 0.960 . S
H1477 C1463 0.961 . S
H1478 C1463 0.961 . S
H1479 C1463 0.961 1_455 S
H1480 C1464 0.931 . S
H1481 C1469 0.930 . S
H1482 C1470 0.956 . S
H1483 C1470 0.961 . S
H1484 C1470 0.961 . S
H1485 C1471 0.958 . S
H1486 C1471 0.961 . S
H1487 C1471 0.960 . S
C1488 C1489 1.391 . S
C1488 C1490 1.394 . S
C1488 H1504 0.931 . S
C1489 C1488 1.391 . S
C1489 C1493 1.376 . S
C1490 C1488 1.394 . S
C1490 C1491 1.369 . S
C1490 C1494 1.531 . S
C1491 C1490 1.369 . S
C1491 C1492 1.410 . S
C1491 C1499 1.503 . S
C1492 C1491 1.410 . S
C1492 C1493 1.392 . S
C1492 C1495 1.511 . S
C1493 C1489 1.376 . S
C1493 C1492 1.392 . S
C1493 H1505 0.929 . S
C1494 C1490 1.531 . S
C1494 H1506 0.960 . S
C1494 H1507 0.962 . S
C1494 H1508 0.960 . S
C1495 C1492 1.511 . S
C1495 H1509 0.961 . S
C1495 H1510 0.961 . S
C1495 H1511 0.961 . S
C1496 C1497 1.370 . S
C1496 C1498 1.363 . S
C1496 H1512 0.931 . S
C1497 C1496 1.370 . S
C1497 C1501 1.408 . S
C1498 C1496 1.363 . S
C1498 C1499 1.370 . S
C1498 C1502 1.524 . S
C1499 C1491 1.503 . S
C1499 C1498 1.370 . S
C1499 C1500 1.403 . S
C1500 C1499 1.403 . S
C1500 C1501 1.404 . S
C1500 C1503 1.539 . S
C1501 C1497 1.408 . S
C1501 C1500 1.404 . S
C1501 H1513 0.930 . S
C1502 C1498 1.524 . S
C1502 H1514 0.956 . S
C1502 H1515 0.961 . S
C1502 H1516 0.961 . S
C1503 C1500 1.539 . S
C1503 H1517 0.958 . S
C1503 H1518 0.961 . S
C1503 H1519 0.960 . S
H1504 C1488 0.931 . S
H1505 C1493 0.929 . S
H1506 C1494 0.960 . S
H1507 C1494 0.962 . S
H1508 C1494 0.960 . S
H1509 C1495 0.961 . S
H1510 C1495 0.961 . S
H1511 C1495 0.961 . S
H1512 C1496 0.931 . S
H1513 C1501 0.930 . S
H1514 C1502 0.956 . S
H1515 C1502 0.961 . S
H1516 C1502 0.961 . S
H1517 C1503 0.958 . S
H1518 C1503 0.961 . S
H1519 C1503 0.960 . S
C1520 C1521 1.391 . S
C1520 C1522 1.394 . S
C1520 H1536 0.931 . S
C1521 C1520 1.391 . S
C1521 C1525 1.376 . S
C1522 C1520 1.394 . S
C1522 C1523 1.369 . S
C1522 C1526 1.531 . S
C1523 C1522 1.369 . S
C1523 C1524 1.410 . S
C1523 C1531 1.503 . S
C1524 C1523 1.410 . S
C1524 C1525 1.392 . S
C1524 C1527 1.511 . S
C1525 C1521 1.376 . S
C1525 C1524 1.392 . S
C1525 H1537 0.929 . S
C1526 C1522 1.531 . S
C1526 H1538 0.960 . S
C1526 H1539 0.962 . S
C1526 H1540 0.960 . S
C1527 C1524 1.511 . S
C1527 H1541 0.961 . S
C1527 H1542 0.961 . S
C1527 H1543 0.961 . S
C1528 C1529 1.370 . S
C1528 C1530 1.363 . S
C1528 H1544 0.931 . S
C1529 C1528 1.370 . S
C1529 C1533 1.408 . S
C1530 C1528 1.363 . S
C1530 C1531 1.370 . S
C1530 C1534 1.524 . S
C1531 C1523 1.503 . S
C1531 C1530 1.370 . S
C1531 C1532 1.403 . S
C1532 C1531 1.403 . S
C1532 C1533 1.404 . S
C1532 C1535 1.539 . S
C1533 C1529 1.408 . S
C1533 C1532 1.404 . S
C1533 H1545 0.930 . S
C1534 C1530 1.524 . S
C1534 H1546 0.956 . S
C1534 H1547 0.961 . S
C1534 H1548 0.961 . S
C1535 C1532 1.539 . S
C1535 H1549 0.958 . S
C1535 H1550 0.961 . S
C1535 H1551 0.960 . S
H1536 C1520 0.931 . S
H1537 C1525 0.929 . S
H1538 C1526 0.960 . S
H1539 C1526 0.962 . S
H1540 C1526 0.960 . S
H1541 C1527 0.961 . S
H1542 C1527 0.961 . S
H1543 C1527 0.961 . S
H1544 C1528 0.931 . S
H1545 C1533 0.930 . S
H1546 C1534 0.956 . S
H1547 C1534 0.961 . S
H1548 C1534 0.961 . S
H1549 C1535 0.958 . S
H1550 C1535 0.961 . S
H1551 C1535 0.960 . S
C1552 C1553 1.391 1_655 S
C1552 C1554 1.394 . S
C1552 H1568 0.931 . S
C1553 C1552 1.391 1_455 S
C1553 C1557 1.376 . S
C1554 C1552 1.394 . S
C1554 C1555 1.369 . S
C1554 C1558 1.531 . S
C1555 C1554 1.369 . S
C1555 C1556 1.410 1_655 S
C1555 C1563 1.503 . S
C1556 C1555 1.410 1_455 S
C1556 C1557 1.392 . S
C1556 C1559 1.511 . S
C1557 C1553 1.376 . S
C1557 C1556 1.392 . S
C1557 H1569 0.929 . S
C1558 C1554 1.531 . S
C1558 H1570 0.960 . S
C1558 H1571 0.962 . S
C1558 H1572 0.960 . S
C1559 C1556 1.511 . S
C1559 H1573 0.961 . S
C1559 H1574 0.961 . S
C1559 H1575 0.961 . S
C1560 C1561 1.370 . S
C1560 C1562 1.363 . S
C1560 H1576 0.931 . S
C1561 C1560 1.370 . S
C1561 C1565 1.408 . S
C1562 C1560 1.363 . S
C1562 C1563 1.370 . S
C1562 C1566 1.524 . S
C1563 C1555 1.503 . S
C1563 C1562 1.370 . S
C1563 C1564 1.403 . S
C1564 C1563 1.403 . S
C1564 C1565 1.404 . S
C1564 C1567 1.539 . S
C1565 C1561 1.408 . S
C1565 C1564 1.404 . S
C1565 H1577 0.930 . S
C1566 C1562 1.524 . S
C1566 H1578 0.956 1_556 S
C1566 H1579 0.961 . S
C1566 H1580 0.961 1_556 S
C1567 C1564 1.539 . S
C1567 H1581 0.958 . S
C1567 H1582 0.961 . S
C1567 H1583 0.960 . S
H1568 C1552 0.931 . S
H1569 C1557 0.929 . S
H1570 C1558 0.960 . S
H1571 C1558 0.962 . S
H1572 C1558 0.960 . S
H1573 C1559 0.961 . S
H1574 C1559 0.961 . S
H1575 C1559 0.961 . S
H1576 C1560 0.931 . S
H1577 C1565 0.930 . S
H1578 C1566 0.956 1_554 S
H1579 C1566 0.961 . S
H1580 C1566 0.961 1_554 S
H1581 C1567 0.958 . S
H1582 C1567 0.961 . S
H1583 C1567 0.960 . S
C1584 C1585 1.391 . S
C1584 C1586 1.394 . S
C1584 H1600 0.931 . S
C1585 C1584 1.391 . S
C1585 C1589 1.376 . S
C1586 C1584 1.394 . S
C1586 C1587 1.369 . S
C1586 C1590 1.531 . S
C1587 C1586 1.369 . S
C1587 C1588 1.410 . S
C1587 C1595 1.503 . S
C1588 C1587 1.410 . S
C1588 C1589 1.392 . S
C1588 C1591 1.511 . S
C1589 C1585 1.376 . S
C1589 C1588 1.392 . S
C1589 H1601 0.929 . S
C1590 C1586 1.531 . S
C1590 H1602 0.960 . S
C1590 H1603 0.962 . S
C1590 H1604 0.960 . S
C1591 C1588 1.511 . S
C1591 H1605 0.961 . S
C1591 H1606 0.961 . S
C1591 H1607 0.961 . S
C1592 C1593 1.370 . S
C1592 C1594 1.363 . S
C1592 H1608 0.931 . S
C1593 C1592 1.370 . S
C1593 C1597 1.408 . S
C1594 C1592 1.363 . S
C1594 C1595 1.370 . S
C1594 C1598 1.524 . S
C1595 C1587 1.503 . S
C1595 C1594 1.370 . S
C1595 C1596 1.403 . S
C1596 C1595 1.403 . S
C1596 C1597 1.404 . S
C1596 C1599 1.539 . S
C1597 C1593 1.408 . S
C1597 C1596 1.404 . S
C1597 H1609 0.930 . S
C1598 C1594 1.524 . S
C1598 H1610 0.956 . S
C1598 H1611 0.961 . S
C1598 H1612 0.961 . S
C1599 C1596 1.539 . S
C1599 H1613 0.958 . S
C1599 H1614 0.961 . S
C1599 H1615 0.960 . S
H1600 C1584 0.931 . S
H1601 C1589 0.929 . S
H1602 C1590 0.960 . S
H1603 C1590 0.962 . S
H1604 C1590 0.960 . S
H1605 C1591 0.961 . S
H1606 C1591 0.961 . S
H1607 C1591 0.961 . S
H1608 C1592 0.931 . S
H1609 C1597 0.930 . S
H1610 C1598 0.956 . S
H1611 C1598 0.961 . S
H1612 C1598 0.961 . S
H1613 C1599 0.958 . S
H1614 C1599 0.961 . S
H1615 C1599 0.960 . S
C1616 C1617 1.391 . S
C1616 C1618 1.394 . S
C1616 H1632 0.931 . S
C1617 C1616 1.391 . S
C1617 C1621 1.376 . S
C1618 C1616 1.394 . S
C1618 C1619 1.369 . S
C1618 C1622 1.531 . S
C1619 C1618 1.369 . S
C1619 C1620 1.410 . S
C1619 C1627 1.503 . S
C1620 C1619 1.410 . S
C1620 C1621 1.392 . S
C1620 C1623 1.511 . S
C1621 C1617 1.376 . S
C1621 C1620 1.392 . S
C1621 H1633 0.929 . S
C1622 C1618 1.531 . S
C1622 H1634 0.960 . S
C1622 H1635 0.962 . S
C1622 H1636 0.960 . S
C1623 C1620 1.511 . S
C1623 H1637 0.961 . S
C1623 H1638 0.961 . S
C1623 H1639 0.961 . S
C1624 C1625 1.370 . S
C1624 C1626 1.363 . S
C1624 H1640 0.931 . S
C1625 C1624 1.370 . S
C1625 C1629 1.408 . S
C1626 C1624 1.363 . S
C1626 C1627 1.370 . S
C1626 C1630 1.524 . S
C1627 C1619 1.503 . S
C1627 C1626 1.370 . S
C1627 C1628 1.403 . S
C1628 C1627 1.403 . S
C1628 C1629 1.404 . S
C1628 C1631 1.539 . S
C1629 C1625 1.408 . S
C1629 C1628 1.404 . S
C1629 H1641 0.930 . S
C1630 C1626 1.524 . S
C1630 H1642 0.956 . S
C1630 H1643 0.961 . S
C1630 H1644 0.961 . S
C1631 C1628 1.539 . S
C1631 H1645 0.958 . S
C1631 H1646 0.961 . S
C1631 H1647 0.960 . S
H1632 C1616 0.931 . S
H1633 C1621 0.929 . S
H1634 C1622 0.960 . S
H1635 C1622 0.962 . S
H1636 C1622 0.960 . S
H1637 C1623 0.961 . S
H1638 C1623 0.961 . S
H1639 C1623 0.961 . S
H1640 C1624 0.931 . S
H1641 C1629 0.930 . S
H1642 C1630 0.956 . S
H1643 C1630 0.961 . S
H1644 C1630 0.961 . S
H1645 C1631 0.958 . S
H1646 C1631 0.961 . S
H1647 C1631 0.960 . S
C1648 C1649 1.391 . S
C1648 C1650 1.394 . S
C1648 H1664 0.931 . S
C1649 C1648 1.391 . S
C1649 C1653 1.376 . S
C1650 C1648 1.394 . S
C1650 C1651 1.369 . S
C1650 C1654 1.531 . S
C1651 C1650 1.369 . S
C1651 C1652 1.410 . S
C1651 C1659 1.503 . S
C1652 C1651 1.410 . S
C1652 C1653 1.392 . S
C1652 C1655 1.511 . S
C1653 C1649 1.376 . S
C1653 C1652 1.392 . S
C1653 H1665 0.929 . S
C1654 C1650 1.531 . S
C1654 H1666 0.960 . S
C1654 H1667 0.962 . S
C1654 H1668 0.960 . S
C1655 C1652 1.511 . S
C1655 H1669 0.961 . S
C1655 H1670 0.961 . S
C1655 H1671 0.961 1_554 S
C1656 C1657 1.370 . S
C1656 C1658 1.363 . S
C1656 H1672 0.931 . S
C1657 C1656 1.370 . S
C1657 C1661 1.408 . S
C1658 C1656 1.363 . S
C1658 C1659 1.370 . S
C1658 C1662 1.524 . S
C1659 C1651 1.503 . S
C1659 C1658 1.370 . S
C1659 C1660 1.403 . S
C1660 C1659 1.403 . S
C1660 C1661 1.404 . S
C1660 C1663 1.539 1_554 S
C1661 C1657 1.408 . S
C1661 C1660 1.404 . S
C1661 H1673 0.930 . S
C1662 C1658 1.524 . S
C1662 H1674 0.956 . S
C1662 H1675 0.961 . S
C1662 H1676 0.961 . S
C1663 C1660 1.539 1_556 S
C1663 H1677 0.958 1_556 S
C1663 H1678 0.961 . S
C1663 H1679 0.960 . S
H1664 C1648 0.931 . S
H1665 C1653 0.929 . S
H1666 C1654 0.960 . S
H1667 C1654 0.962 . S
H1668 C1654 0.960 . S
H1669 C1655 0.961 . S
H1670 C1655 0.961 . S
H1671 C1655 0.961 1_556 S
H1672 C1656 0.931 . S
H1673 C1661 0.930 . S
H1674 C1662 0.956 . S
H1675 C1662 0.961 . S
H1676 C1662 0.961 . S
H1677 C1663 0.958 1_554 S
H1678 C1663 0.961 . S
H1679 C1663 0.960 . S
C1680 C1681 1.391 . S
C1680 C1682 1.394 . S
C1680 H1696 0.931 . S
C1681 C1680 1.391 . S
C1681 C1685 1.376 . S
C1682 C1680 1.394 . S
C1682 C1683 1.369 . S
C1682 C1686 1.531 . S
C1683 C1682 1.369 . S
C1683 C1684 1.410 . S
C1683 C1691 1.503 . S
C1684 C1683 1.410 . S
C1684 C1685 1.392 . S
C1684 C1687 1.511 . S
C1685 C1681 1.376 . S
C1685 C1684 1.392 . S
C1685 H1697 0.929 . S
C1686 C1682 1.531 . S
C1686 H1698 0.960 1_655 S
C1686 H1699 0.962 1_655 S
C1686 H1700 0.962 . S
C1687 C1684 1.511 . S
C1687 H1701 0.961 . S
C1687 H1702 0.961 . S
C1687 H1703 0.961 . S
C1688 C1689 1.370 . S
C1688 C1690 1.363 1_455 S
C1688 H1704 0.931 . S
C1689 C1688 1.370 . S
C1689 C1693 1.408 . S
C1690 C1688 1.363 1_655 S
C1690 C1691 1.370 . S
C1690 C1694 1.512 1_554 S
C1691 C1683 1.503 . S
C1691 C1690 1.370 . S
C1691 C1692 1.403 . S
C1692 C1691 1.403 . S
C1692 C1693 1.404 1_655 S
C1692 C1695 1.539 . S
C1693 C1689 1.408 . S
C1693 C1692 1.404 1_455 S
C1693 H1705 0.930 . S
C1694 C1690 1.512 1_556 S
C1694 H1706 0.956 . S
C1694 H1707 0.960 1_556 S
C1694 H1708 0.974 . S
C1695 C1692 1.539 . S
C1695 H1709 0.958 . S
C1695 H1710 0.961 . S
C1695 H1711 0.960 . S
H1696 C1680 0.931 . S
H1697 C1685 0.929 . S
H1698 C1686 0.960 1_455 S
H1699 C1686 0.962 1_455 S
H1700 C1686 0.962 . S
H1701 C1687 0.961 . S
H1702 C1687 0.961 . S
H1703 C1687 0.961 . S
H1704 C1688 0.931 . S
H1705 C1693 0.930 . S
H1706 C1694 0.956 . S
H1707 C1694 0.960 1_554 S
H1708 C1694 0.974 . S
H1709 C1695 0.958 . S
H1710 C1695 0.961 . S
H1711 C1695 0.960 . S
C1712 C1713 1.391 . S
C1712 C1714 1.394 . S
C1712 H1728 0.931 . S
C1713 C1712 1.391 . S
C1713 C1717 1.376 . S
C1714 C1712 1.394 . S
C1714 C1715 1.369 . S
C1714 C1718 1.531 . S
C1715 C1714 1.369 . S
C1715 C1716 1.410 . S
C1715 C1723 1.503 . S
C1716 C1715 1.410 . S
C1716 C1717 1.392 . S
C1716 C1719 1.511 1_556 S
C1717 C1713 1.376 . S
C1717 C1716 1.392 . S
C1717 H1729 0.929 . S
C1718 C1714 1.531 . S
C1718 H1730 0.960 . S
C1718 H1731 0.962 . S
C1718 H1732 0.960 . S
C1719 C1716 1.511 1_554 S
C1719 H1733 0.961 . S
C1719 H1734 0.961 . S
C1719 H1735 0.961 . S
C1720 C1721 1.370 . S
C1720 C1722 1.363 . S
C1720 H1736 0.931 . S
C1721 C1720 1.370 . S
C1721 C1725 1.408 . S
C1722 C1720 1.363 . S
C1722 C1723 1.370 . S
C1722 C1726 1.524 . S
C1723 C1715 1.503 . S
C1723 C1722 1.370 . S
C1723 C1724 1.403 . S
C1724 C1723 1.403 . S
C1724 C1725 1.404 . S
C1724 C1727 1.539 . S
C1725 C1721 1.408 . S
C1725 C1724 1.404 . S
C1725 H1737 0.930 . S
C1726 C1722 1.524 . S
C1726 H1738 0.956 . S
C1726 H1739 0.961 . S
C1726 H1740 0.961 . S
C1727 C1724 1.539 . S
C1727 H1741 0.958 . S
C1727 H1742 0.961 . S
C1727 H1743 0.960 . S
H1728 C1712 0.931 . S
H1729 C1717 0.929 . S
H1730 C1718 0.960 . S
H1731 C1718 0.962 . S
H1732 C1718 0.960 . S
H1733 C1719 0.961 . S
H1734 C1719 0.961 . S
H1735 C1719 0.961 . S
H1736 C1720 0.931 . S
H1737 C1725 0.930 . S
H1738 C1726 0.956 . S
H1739 C1726 0.961 . S
H1740 C1726 0.961 . S
H1741 C1727 0.958 . S
H1742 C1727 0.961 . S
H1743 C1727 0.960 . S
C1744 C1745 1.391 . S
C1744 C1746 1.394 . S
C1744 H1760 0.931 . S
C1745 C1744 1.391 . S
C1745 C1749 1.376 . S
C1746 C1744 1.394 . S
C1746 C1747 1.369 . S
C1746 C1750 1.531 . S
C1747 C1746 1.369 . S
C1747 C1748 1.410 . S
C1747 C1755 1.503 . S
C1748 C1747 1.410 . S
C1748 C1749 1.392 . S
C1748 C1751 1.511 . S
C1749 C1745 1.376 . S
C1749 C1748 1.392 . S
C1749 H1761 0.929 . S
C1750 C1746 1.531 . S
C1750 H1762 0.960 . S
C1750 H1763 0.962 . S
C1750 H1764 0.960 . S
C1751 C1748 1.511 . S
C1751 H1765 0.961 . S
C1751 H1766 0.961 . S
C1751 H1767 0.961 . S
C1752 C1753 1.370 . S
C1752 C1754 1.363 . S
C1752 H1768 0.931 . S
C1753 C1752 1.370 . S
C1753 C1757 1.408 . S
C1754 C1752 1.363 . S
C1754 C1755 1.370 . S
C1754 C1758 1.524 . S
C1755 C1747 1.503 . S
C1755 C1754 1.370 . S
C1755 C1756 1.403 . S
C1756 C1755 1.403 . S
C1756 C1757 1.404 . S
C1756 C1759 1.539 . S
C1757 C1753 1.408 . S
C1757 C1756 1.404 . S
C1757 H1769 0.930 . S
C1758 C1754 1.524 . S
C1758 H1770 0.956 . S
C1758 H1771 0.961 . S
C1758 H1772 0.961 . S
C1759 C1756 1.539 . S
C1759 H1773 0.958 . S
C1759 H1774 0.961 . S
C1759 H1775 0.960 . S
H1760 C1744 0.931 . S
H1761 C1749 0.929 . S
H1762 C1750 0.960 . S
H1763 C1750 0.962 . S
H1764 C1750 0.960 . S
H1765 C1751 0.961 . S
H1766 C1751 0.961 . S
H1767 C1751 0.961 . S
H1768 C1752 0.931 . S
H1769 C1757 0.930 . S
H1770 C1758 0.956 . S
H1771 C1758 0.961 . S
H1772 C1758 0.961 . S
H1773 C1759 0.958 . S
H1774 C1759 0.961 . S
H1775 C1759 0.960 . S
C1776 C1777 1.391 . S
C1776 C1778 1.394 . S
C1776 H1792 0.931 . S
C1777 C1776 1.391 . S
C1777 C1781 1.376 . S
C1778 C1776 1.394 . S
C1778 C1779 1.369 . S
C1778 C1782 1.531 . S
C1779 C1778 1.369 . S
C1779 C1780 1.410 . S
C1779 C1787 1.503 . S
C1780 C1779 1.410 . S
C1780 C1781 1.392 . S
C1780 C1783 1.511 . S
C1781 C1777 1.376 . S
C1781 C1780 1.392 . S
C1781 H1793 0.929 . S
C1782 C1778 1.531 . S
C1782 H1794 0.960 . S
C1782 H1795 0.962 . S
C1782 H1796 0.960 . S
C1783 C1780 1.511 . S
C1783 H1797 0.961 . S
C1783 H1798 0.961 . S
C1783 H1799 0.961 . S
C1784 C1785 1.370 . S
C1784 C1786 1.363 . S
C1784 H1800 0.931 . S
C1785 C1784 1.370 . S
C1785 C1789 1.408 . S
C1786 C1784 1.363 . S
C1786 C1787 1.370 . S
C1786 C1790 1.524 . S
C1787 C1779 1.503 . S
C1787 C1786 1.370 . S
C1787 C1788 1.403 . S
C1788 C1787 1.403 . S
C1788 C1789 1.404 . S
C1788 C1791 1.539 . S
C1789 C1785 1.408 . S
C1789 C1788 1.404 . S
C1789 H1801 0.930 . S
C1790 C1786 1.524 . S
C1790 H1802 0.956 . S
C1790 H1803 0.961 . S
C1790 H1804 0.961 . S
C1791 C1788 1.539 . S
C1791 H1805 0.958 . S
C1791 H1806 0.961 . S
C1791 H1807 0.960 . S
H1792 C1776 0.931 . S
H1793 C1781 0.929 . S
H1794 C1782 0.960 . S
H1795 C1782 0.962 . S
H1796 C1782 0.960 . S
H1797 C1783 0.961 . S
H1798 C1783 0.961 . S
H1799 C1783 0.961 . S
H1800 C1784 0.931 . S
H1801 C1789 0.930 . S
H1802 C1790 0.956 . S
H1803 C1790 0.961 . S
H1804 C1790 0.961 . S
H1805 C1791 0.958 . S
H1806 C1791 0.961 . S
H1807 C1791 0.960 . S
C529 N13 1.410 . S
C537 N2 1.448 . S
C561 N46 1.430 . S
C569 N35 1.442 . S
C593 N79 1.411 . S
C601 N68 1.447 . S
C625 N112 1.444 . S
C633 N101 1.436 . S
C657 N145 1.460 . S
C665 N134 1.427 . S
C689 N178 1.437 . S
C697 N167 1.435 . S
C721 N211 1.429 . S
C729 N200 1.442 . S
C753 N233 1.455 . S
C761 N244 1.430 . S
C785 N266 1.453 . S
C793 N277 1.430 . S
C817 N310 1.419 . S
C825 N299 1.443 . S
C849 N343 1.434 . S
C857 N332 1.440 . S
C881 N365 1.426 . S
C889 N376 1.441 . S
C913 N398 1.420 . S
C921 N409 1.443 . S
C945 N442 1.462 . S
C953 N431 1.427 . S
C977 N464 1.423 . S
C985 N475 1.442 . S
C1009 N508 1.462 . S
C1017 N497 1.426 . S
C1041 C18 1.080 . S
C1049 C150 1.070 . S
C1073 C183 1.066 . S
C1081 C51 1.072 . S
C1105 C216 1.073 . S
C1113 C84 1.073 . S
C1137 C117 1.078 . S
C1145 C249 1.070 . S
C1169 C348 1.081 . S
C1177 C282 1.069 . S
C1201 C315 1.061 . S
C1209 C381 1.077 . S
C1233 C414 1.079 . S
C1241 C480 1.070 . S
C1265 C447 1.059 . S
C1273 C513 1.077 . S
C1297 C304 1.440 . S
C1305 C7 1.441 . S
C1329 C469 1.434 . S
C1337 C40 1.430 . S
C1361 C73 1.426 . S
C1369 C271 1.437 . S
C1393 C502 1.410 . S
C1401 C106 1.426 . S
C1425 C337 1.438 . S
C1433 C139 1.441 . S
C1457 C436 1.415 . S
C1465 C172 1.425 . S
C1489 C205 1.447 . S
C1497 C370 1.442 . S
C1521 C238 1.434 . S
C1529 C403 1.440 . S
C1553 C153 1.449 . S
C1561 C120 1.456 . S
C1585 C417 1.440 . S
C1593 C285 1.450 . S
C1617 C54 1.439 . S
C1625 C219 1.450 . S
C1649 C450 1.447 . S
C1657 C318 1.453 . S
C1681 C186 1.455 . S
C1689 C21 1.456 . S
C1713 C351 1.465 . S
C1721 C516 1.461 . S
C1745 C252 1.442 . S
C1753 C87 1.452 . S
C1777 C483 1.446 . S
C1785 C384 1.454 . S
