# Generated by pormake.
# Topology lvt, (4)-cn, num edge types: 1
# Building blocks:
#     Node 0, Type 0, BuildingBlock: KOZSID_clean_sbu_0, # of connection points: 4
#     Node 1, Type 0, BuildingBlock: KOZSID_clean_sbu_0, # of connection points: 4
#     Node 2, Type 0, BuildingBlock: KOZSID_clean_sbu_0, # of connection points: 4
#     Node 3, Type 0, BuildingBlock: KOZSID_clean_sbu_0, # of connection points: 4
#     Node 4, Type 0, BuildingBlock: KOZSID_clean_sbu_0, # of connection points: 4
#     Node 5, Type 0, BuildingBlock: KOZSID_clean_sbu_0, # of connection points: 4
#     Node 6, Type 0, BuildingBlock: KOZSID_clean_sbu_0, # of connection points: 4
#     Node 7, Type 0, BuildingBlock: KOZSID_clean_sbu_0, # of connection points: 4
#     Edge 8, Type (0, 0), BuildingBlock: ZUJKAS_clean_linker_0, # of connection points: 2
#     Edge 9, Type (0, 0), BuildingBlock: ZUJKAS_clean_linker_0, # of connection points: 2
#     Edge 10, Type (0, 0), BuildingBlock: ZUJKAS_clean_linker_0, # of connection points: 2
#     Edge 11, Type (0, 0), BuildingBlock: ZUJKAS_clean_linker_0, # of connection points: 2
#     Edge 12, Type (0, 0), BuildingBlock: ZUJKAS_clean_linker_0, # of connection points: 2
#     Edge 13, Type (0, 0), BuildingBlock: ZUJKAS_clean_linker_0, # of connection points: 2
#     Edge 14, Type (0, 0), BuildingBlock: ZUJKAS_clean_linker_0, # of connection points: 2
#     Edge 15, Type (0, 0), BuildingBlock: ZUJKAS_clean_linker_0, # of connection points: 2
#     Edge 16, Type (0, 0), BuildingBlock: ZUJKAS_clean_linker_0, # of connection points: 2
#     Edge 17, Type (0, 0), BuildingBlock: ZUJKAS_clean_linker_0, # of connection points: 2
#     Edge 18, Type (0, 0), BuildingBlock: ZUJKAS_clean_linker_0, # of connection points: 2
#     Edge 19, Type (0, 0), BuildingBlock: ZUJKAS_clean_linker_0, # of connection points: 2
#     Edge 20, Type (0, 0), BuildingBlock: ZUJKAS_clean_linker_0, # of connection points: 2
#     Edge 21, Type (0, 0), BuildingBlock: ZUJKAS_clean_linker_0, # of connection points: 2
#     Edge 22, Type (0, 0), BuildingBlock: ZUJKAS_clean_linker_0, # of connection points: 2
#     Edge 23, Type (0, 0), BuildingBlock: ZUJKAS_clean_linker_0, # of connection points: 2
# Relax obj value: 0.002
# Max RMSD: 0.023
# Mean RMSD: 0.016
data_MOF--net-lvt--node1-KOZSID_clean_sbu_0--edge1-ZUJKAS_clean_linker_0
_symmetry_space_group_name_H-M    P1
_symmetry_Int_Tables_number       1
_symmetry_cell_setting            triclinic
loop_
_symmetry_equiv_pos_as_xyz
'x, y, z'
_cell_length_a     53.871476
_cell_length_b     53.872892
_cell_length_c     49.411341
_cell_angle_alpha  84.721174
_cell_angle_beta   92.513581
_cell_angle_gamma 87.506971
loop_
_atom_site_label
_atom_site_type_symbol
_atom_site_fract_x
_atom_site_fract_y
_atom_site_fract_z
_atom_type_partial_charge
C0 C 0.04245 0.95776 0.51246 0.0
C1 C 0.04956 0.93579 0.50165 0.0
C2 C 0.03587 0.93533 0.47784 0.0
C3 C 0.02117 0.95689 0.47551 0.0
N4 N 0.0248 0.9713 0.49624 0.0
Co5 Co 0.00639 0.00358 0.50158 0.0
N6 N 0.98542 1.00225 0.46716 0.0
C7 C 0.98649 0.98432 0.44973 0.0
C8 C 0.97013 0.98866 0.42762 0.0
C9 C 0.95799 0.01084 0.43091 0.0
C10 C 0.96777 0.01881 0.45493 0.0
N11 N 0.98775 0.03569 0.50714 0.0
C12 C 0.96961 0.0489 0.49131 0.0
C13 C 0.96201 0.07051 0.50255 0.0
C14 C 0.97583 0.07102 0.52626 0.0
C15 C 0.99107 0.04983 0.52815 0.0
N16 N 0.02758 0.00507 0.53581 0.0
C17 C 0.02704 0.02339 0.55279 0.0
C18 C 0.04363 0.01919 0.57473 0.0
C19 C 0.05536 0.99672 0.57177 0.0
C20 C 0.0451 0.98845 0.54815 0.0
N21 N 0.03121 0.0226 0.48037 0.0
C22 C 0.06473 0.05075 0.44898 0.0
C23 C 0.0568 0.05836 0.47361 0.0
C24 C 0.04022 0.04417 0.48882 0.0
C25 C 0.05584 0.02855 0.44059 0.0
C26 C 0.03933 0.01489 0.45645 0.0
N27 N 0.98156 0.9846 0.52275 0.0
C28 C 0.95827 0.97755 0.5634 0.0
C29 C 0.94746 0.95675 0.55366 0.0
C30 C 0.95391 0.95037 0.52798 0.0
C31 C 0.97083 0.96436 0.51306 0.0
C32 C 0.97501 0.9911 0.54775 0.0
H33 H 0.97498 0.95836 0.49377 0.0
H34 H 0.98257 0.00664 0.55645 0.0
H35 H 0.03478 0.0512 0.5072 0.0
H36 H 0.0333 0.99821 0.44883 0.0
C37 C 0.00329 0.96375 0.45454 0.0
C38 C 0.05225 0.96442 0.53868 0.0
C39 C 0.95981 0.04234 0.46503 0.0
C40 C 0.00963 0.04349 0.54853 0.0
H41 H 0.06294 0.92135 0.5103 0.0
H42 H 0.03624 0.92078 0.46413 0.0
H43 H 0.96748 0.97716 0.41097 0.0
H44 H 0.94367 0.02019 0.41711 0.0
H45 H 0.94825 0.08471 0.49423 0.0
H46 H 0.97527 0.08542 0.54015 0.0
H47 H 0.04646 0.03081 0.59124 0.0
H48 H 0.06959 0.98729 0.58565 0.0
H49 H 0.0629 0.07553 0.48096 0.0
H50 H 0.06171 0.02156 0.42191 0.0
H51 H 0.95424 0.98319 0.58328 0.0
H52 H 0.9458 0.93472 0.51919 0.0
C53 C 0.20172 0.77934 0.73866 0.0
C54 C 0.17973 0.78828 0.74871 0.0
C55 C 0.17674 0.77449 0.7728 0.0
C56 C 0.19702 0.75806 0.77612 0.0
N57 N 0.21299 0.76068 0.75579 0.0
Co58 Co 0.24446 0.74012 0.75218 0.0
N59 N 0.23952 0.71923 0.78718 0.0
C60 C 0.2205 0.72153 0.80392 0.0
C61 C 0.22228 0.70483 0.82664 0.0
C62 C 0.24389 0.69118 0.82452 0.0
C63 C 0.25415 0.70048 0.80057 0.0
N64 N 0.2757 0.71924 0.74834 0.0
C65 C 0.28681 0.70032 0.76529 0.0
C66 C 0.30868 0.69128 0.75506 0.0
C67 C 0.31149 0.70491 0.73083 0.0
C68 C 0.29134 0.7215 0.72766 0.0
N69 N 0.24962 0.76134 0.71743 0.0
C70 C 0.26895 0.75942 0.70103 0.0
C71 C 0.26722 0.7762 0.67838 0.0
C72 C 0.24539 0.78959 0.68025 0.0
C73 C 0.23505 0.78019 0.70411 0.0
N74 N 0.26379 0.76349 0.77287 0.0
C75 C 0.29181 0.79591 0.80267 0.0
C76 C 0.30057 0.78708 0.77896 0.0
C77 C 0.28644 0.77105 0.76456 0.0
C78 C 0.26868 0.78826 0.81113 0.0
C79 C 0.25509 0.77226 0.79604 0.0
N80 N 0.22512 0.71681 0.73142 0.0
C81 C 0.21828 0.69554 0.69081 0.0
C82 C 0.19641 0.68586 0.70055 0.0
C83 C 0.18939 0.69152 0.72624 0.0
C84 C 0.20379 0.70703 0.74112 0.0
C85 C 0.23234 0.71061 0.70654 0.0
H86 H 0.19711 0.71106 0.76027 0.0
H87 H 0.2489 0.71715 0.69799 0.0
H88 H 0.29436 0.76491 0.74686 0.0
H89 H 0.23761 0.76722 0.80356 0.0
C90 C 0.20134 0.73972 0.79785 0.0
C91 C 0.21084 0.789 0.71255 0.0
C92 C 0.27796 0.69105 0.79171 0.0
C93 C 0.28753 0.74051 0.70649 0.0
H94 H 0.16704 0.80309 0.73946 0.0
H95 H 0.16147 0.77607 0.78615 0.0
H96 H 0.20948 0.70294 0.84291 0.0
H97 H 0.25136 0.67619 0.83908 0.0
H98 H 0.32159 0.6767 0.76437 0.0
H99 H 0.32677 0.70338 0.71747 0.0
H100 H 0.27996 0.77801 0.66205 0.0
H101 H 0.23771 0.80424 0.6654 0.0
H102 H 0.31852 0.79214 0.7717 0.0
H103 H 0.2609 0.79479 0.82918 0.0
H104 H 0.22466 0.69134 0.67117 0.0
H105 H 0.17249 0.68453 0.73457 0.0
C106 C 0.46246 0.04204 0.00981 0.0
C107 C 0.45057 0.06353 0.99679 0.0
C108 C 0.46117 0.06785 0.97234 0.0
C109 C 0.47877 0.04878 0.97177 0.0
N110 N 0.47991 0.03236 0.99428 0.0
Co111 Co 0.50301 1.00203 0.00202 0.0
N112 N 0.52029 0.00978 0.96726 0.0
C113 C 0.51568 0.02984 0.94888 0.0
C114 C 0.53027 0.02993 0.92684 0.0
C115 C 0.54496 0.00855 0.93125 0.0
C116 C 0.53845 0.9966 0.95584 0.0
N117 N 0.52571 0.97136 0.00943 0.0
C118 C 0.54289 0.96152 0.99367 0.0
C119 C 0.55392 0.93934 0.00606 0.0
C120 C 0.54306 0.93476 0.03032 0.0
C121 C 0.52611 0.95433 0.03137 0.0
N122 N 0.48611 0.99461 0.0371 0.0
C123 C 0.49146 0.97515 0.05608 0.0
C124 C 0.47761 0.97565 0.07864 0.0
C125 C 0.46274 0.9969 0.07403 0.0
C126 C 0.46837 0.00813 0.04876 0.0
N127 N 0.47884 0.98202 0.9827 0.0
C128 C 0.44638 0.95246 0.95427 0.0
C129 C 0.45572 0.9446 0.98066 0.0
C130 C 0.47171 0.95952 0.99438 0.0
C131 C 0.4533 0.97561 0.94258 0.0
C132 C 0.46935 0.98994 0.957 0.0
N133 N 0.52714 0.02205 0.02137 0.0
C134 C 0.55553 0.02673 0.05978 0.0
C135 C 0.55891 0.0516 0.05057 0.0
C136 C 0.54656 0.06124 0.02617 0.0
C137 C 0.53108 0.04623 0.01192 0.0
C138 C 0.53965 0.01245 0.04506 0.0
H139 H 0.52235 0.05472 0.99343 0.0
H140 H 0.53755 0.99381 0.05349 0.0
H141 H 0.47818 0.95236 0.01435 0.0
H142 H 0.47404 0.00723 0.94677 0.0
C143 C 0.49602 0.04705 0.95165 0.0
C144 C 0.45717 0.03215 0.0373 0.0
C145 C 0.54903 0.97214 0.96672 0.0
C146 C 0.51001 0.95702 0.05241 0.0
H147 H 0.43611 0.07518 0.00448 0.0
H148 H 0.4571 0.08347 0.95717 0.0
H149 H 0.52969 0.04349 0.90922 0.0
H150 H 0.55846 1.00215 0.91755 0.0
H151 H 0.56816 0.92755 0.99819 0.0
H152 H 0.54681 0.91889 0.04524 0.0
H153 H 0.47856 0.9624 0.09655 0.0
H154 H 0.44959 0.00362 0.08794 0.0
H155 H 0.45062 0.92702 0.99087 0.0
H156 H 0.44682 0.9825 0.92209 0.0
H157 H 0.56462 0.01844 0.07866 0.0
H158 H 0.54891 0.0803 0.01796 0.0
C159 C 0.26742 0.28339 0.19576 0.0
C160 C 0.25674 0.29275 0.17057 0.0
C161 C 0.23501 0.28111 0.16723 0.0
C162 C 0.23369 0.2652 0.19032 0.0
N163 N 0.25319 0.26604 0.20838 0.0
Co164 Co 0.25934 0.24467 0.24377 0.0
N165 N 0.22786 0.22671 0.2381 0.0
C166 C 0.2114 0.23042 0.21647 0.0
C167 C 0.19109 0.21606 0.21868 0.0
C168 C 0.19457 0.20253 0.24337 0.0
C169 C 0.21694 0.20942 0.2548 0.0
N170 N 0.2655 0.22328 0.27914 0.0
C171 C 0.251 0.20635 0.29197 0.0
C172 C 0.26205 0.19607 0.3166 0.0
C173 C 0.28414 0.2072 0.3197 0.0
C174 C 0.28534 0.2235 0.29686 0.0
N175 N 0.29077 0.26267 0.24952 0.0
C176 C 0.30717 0.25895 0.27122 0.0
C177 C 0.32688 0.27415 0.26966 0.0
C178 C 0.32304 0.2883 0.24539 0.0
C179 C 0.3012 0.28073 0.23334 0.0
N180 N 0.24053 0.26971 0.26305 0.0
C181 C 0.21226 0.30248 0.29253 0.0
C182 C 0.23584 0.29297 0.3023 0.0
C183 C 0.2495 0.27679 0.28742 0.0
C184 C 0.20342 0.29581 0.26728 0.0
C185 C 0.21777 0.27966 0.25297 0.0
N186 N 0.27819 0.21955 0.2245 0.0
C187 C 0.31545 0.19365 0.22024 0.0
C188 C 0.30626 0.18621 0.19552 0.0
C189 C 0.28252 0.19531 0.18589 0.0
C190 C 0.26895 0.2118 0.20055 0.0
C191 C 0.30121 0.21006 0.23431 0.0
H192 H 0.25117 0.21824 0.19185 0.0
H193 H 0.30934 0.21493 0.25296 0.0
H194 H 0.26716 0.27005 0.29622 0.0
H195 H 0.2099 0.27521 0.23398 0.0
C196 C 0.21494 0.24846 0.19502 0.0
C197 C 0.29147 0.29095 0.20632 0.0
C198 C 0.22642 0.19988 0.28207 0.0
C199 C 0.30394 0.24048 0.29238 0.0
H200 H 0.26406 0.30624 0.15578 0.0
H201 H 0.22201 0.28352 0.14975 0.0
H202 H 0.17532 0.21592 0.20436 0.0
H203 H 0.18179 0.18947 0.25221 0.0
H204 H 0.25467 0.18229 0.33104 0.0
H205 H 0.29741 0.20425 0.33691 0.0
H206 H 0.34235 0.27469 0.2843 0.0
H207 H 0.33512 0.30243 0.23735 0.0
H208 H 0.24387 0.29797 0.32142 0.0
H209 H 0.18521 0.30249 0.25879 0.0
H210 H 0.33357 0.18677 0.22883 0.0
H211 H 0.2746 0.19024 0.16675 0.0
C212 C 0.7695 0.22248 0.30569 0.0
C213 C 0.76025 0.21301 0.33012 0.0
C214 C 0.73836 0.22599 0.33291 0.0
C215 C 0.7355 0.24263 0.31018 0.0
N216 N 0.75417 0.24099 0.29288 0.0
Co217 Co 0.75764 0.26212 0.2577 0.0
N218 N 0.72611 0.28212 0.26266 0.0
C219 C 0.71146 0.27987 0.28422 0.0
C220 C 0.69105 0.29613 0.28188 0.0
C221 C 0.69254 0.30939 0.25718 0.0
C222 C 0.71378 0.30027 0.24577 0.0
N223 N 0.76088 0.28299 0.22229 0.0
C224 C 0.74497 0.30071 0.20894 0.0
C225 C 0.75372 0.30949 0.18398 0.0
C226 C 0.77586 0.29689 0.18144 0.0
C227 C 0.77932 0.28108 0.20476 0.0
N228 N 0.78937 0.24234 0.25293 0.0
C229 C 0.80457 0.24528 0.23189 0.0
C230 C 0.82522 0.22933 0.23445 0.0
C231 C 0.8233 0.21551 0.25875 0.0
C232 C 0.80153 0.22395 0.26968 0.0
N233 N 0.73826 0.23811 0.23803 0.0
C234 C 0.70967 0.20585 0.20875 0.0
C235 C 0.73294 0.21291 0.20023 0.0
C236 C 0.74674 0.22897 0.21496 0.0
C237 C 0.70113 0.21493 0.23242 0.0
C238 C 0.71566 0.23074 0.24672 0.0
N239 N 0.77707 0.28614 0.27739 0.0
C240 C 0.81307 0.31125 0.28141 0.0
C241 C 0.80595 0.31834 0.30656 0.0
C242 C 0.78389 0.30933 0.31662 0.0
C243 C 0.76991 0.29339 0.30189 0.0
C244 C 0.79844 0.29541 0.26726 0.0
H245 H 0.75354 0.28697 0.31094 0.0
H246 H 0.80494 0.29081 0.24824 0.0
H247 H 0.7641 0.23393 0.20709 0.0
H248 H 0.70813 0.23688 0.26466 0.0
C249 C 0.7164 0.26108 0.30542 0.0
C250 C 0.79345 0.2141 0.29619 0.0
C251 C 0.72092 0.30888 0.21846 0.0
C252 C 0.79905 0.2634 0.21015 0.0
H253 H 0.76869 0.19858 0.34475 0.0
H254 H 0.7263 0.224 0.34985 0.0
H255 H 0.67647 0.2977 0.2961 0.0
H256 H 0.67921 0.32381 0.24832 0.0
H257 H 0.7448 0.32316 0.16883 0.0
H258 H 0.7877 0.29856 0.16428 0.0
H259 H 0.84001 0.22805 0.22044 0.0
H260 H 0.83654 0.20099 0.26754 0.0
H261 H 0.74029 0.20653 0.18188 0.0
H262 H 0.68337 0.2097 0.24006 0.0
H263 H 0.8298 0.31803 0.27251 0.0
H264 H 0.77764 0.31409 0.33611 0.0
C265 C 0.7073 0.72942 0.76594 0.0
C266 C 0.68529 0.72249 0.75371 0.0
C267 C 0.68178 0.73702 0.72963 0.0
C268 C 0.7018 0.75186 0.72845 0.0
N269 N 0.71804 0.74757 0.75024 0.0
Co270 Co 0.74958 0.76513 0.75683 0.0
N271 N 0.74384 0.78722 0.72189 0.0
C272 C 0.72405 0.78764 0.70398 0.0
C273 C 0.72563 0.80431 0.6815 0.0
C274 C 0.74789 0.81499 0.68505 0.0
C275 C 0.75866 0.80413 0.70957 0.0
N276 N 0.78125 0.78254 0.76326 0.0
C277 C 0.79254 0.79983 0.74695 0.0
C278 C 0.8149 0.80631 0.75875 0.0
C279 C 0.81803 0.79242 0.78327 0.0
C280 C 0.79752 0.7783 0.78502 0.0
N281 N 0.75527 0.74313 0.79185 0.0
C282 C 0.7746 0.74346 0.81025 0.0
C283 C 0.77311 0.72681 0.83273 0.0
C284 C 0.75144 0.71524 0.82863 0.0
C285 C 0.74095 0.72548 0.80369 0.0
N286 N 0.76828 0.7403 0.73718 0.0
C287 C 0.79606 0.70696 0.70796 0.0
C288 C 0.80451 0.71279 0.73368 0.0
C289 C 0.79045 0.72931 0.74781 0.0
C290 C 0.77321 0.7178 0.6974 0.0
C291 C 0.75974 0.7342 0.71222 0.0
N292 N 0.7308 0.78998 0.77654 0.0
C293 C 0.72628 0.8133 0.81585 0.0
C294 C 0.70253 0.8225 0.80634 0.0
C295 C 0.69349 0.81568 0.78128 0.0
C296 C 0.70782 0.79967 0.76682 0.0
C297 C 0.73995 0.79724 0.80078 0.0
H298 H 0.69976 0.79523 0.74796 0.0
H299 H 0.75772 0.79068 0.80939 0.0
H300 H 0.79799 0.73305 0.76721 0.0
H301 H 0.74262 0.74195 0.70289 0.0
C302 C 0.70529 0.77073 0.70779 0.0
C303 C 0.71693 0.71847 0.79266 0.0
C304 C 0.78338 0.80983 0.71974 0.0
C305 C 0.7936 0.76003 0.80613 0.0
H306 H 0.6729 0.70855 0.76154 0.0
H307 H 0.66627 0.73705 0.71494 0.0
H308 H 0.71251 0.80771 0.66419 0.0
H309 H 0.75562 0.82881 0.67092 0.0
H310 H 0.82786 0.81936 0.75026 0.0
H311 H 0.83371 0.79218 0.79779 0.0
H312 H 0.78605 0.72373 0.85023 0.0
H313 H 0.74403 0.70113 0.84264 0.0
H314 H 0.82188 0.70457 0.74301 0.0
H315 H 0.76591 0.71414 0.67746 0.0
H316 H 0.7341 0.81792 0.83522 0.0
H317 H 0.6754 0.8227 0.77274 0.0
C318 C 0.47282 0.52239 0.94892 0.0
C319 C 0.47175 0.51823 0.92157 0.0
C320 C 0.48416 0.49588 0.91962 0.0
C321 C 0.49333 0.4884 0.9455 0.0
N322 N 0.48811 0.50496 0.96362 0.0
Co323 Co 0.50428 0.50566 1.00083 0.0
N324 N 0.52224 0.47252 0.99866 0.0
C325 C 0.52114 0.45824 0.97753 0.0
C326 C 0.53525 0.43636 0.98193 0.0
C327 C 0.54593 0.43656 0.00744 0.0
C328 C 0.53762 0.45864 0.01725 0.0
N329 N 0.52067 0.50662 0.03797 0.0
C330 C 0.53621 0.48958 0.05288 0.0
C331 C 0.54253 0.49734 0.07822 0.0
C332 C 0.53088 0.5202 0.07921 0.0
C333 C 0.518 0.52503 0.05464 0.0
N334 N 0.48601 0.53863 0.00298 0.0
C335 C 0.48922 0.55424 0.0226 0.0
C336 C 0.47941 0.5779 0.01534 0.0
C337 C 0.46856 0.57699 0.98999 0.0
C338 C 0.4709 0.55236 0.98395 0.0
N339 N 0.47625 0.48812 0.01736 0.0
C340 C 0.44157 0.45892 0.04524 0.0
C341 C 0.45 0.48058 0.05541 0.0
C342 C 0.4669 0.49502 0.04104 0.0
C343 C 0.44963 0.45302 0.01997 0.0
C344 C 0.46686 0.4678 0.00643 0.0
N345 N 0.53269 0.52335 0.98411 0.0
C346 C 0.55794 0.55959 0.97976 0.0
C347 C 0.56748 0.55246 0.95566 0.0
C348 C 0.56074 0.52955 0.94719 0.0
C349 C 0.54373 0.51534 0.96174 0.0
C350 C 0.54107 0.54475 0.99369 0.0
H351 H 0.53975 0.49807 0.95421 0.0
H352 H 0.53512 0.55116 0.01208 0.0
H353 H 0.47254 0.51148 0.04964 0.0
H354 H 0.47281 0.46222 0.98744 0.0
C355 C 0.50784 0.46657 0.95324 0.0
C356 C 0.45819 0.54209 0.9607 0.0
C357 C 0.54542 0.46587 0.04402 0.0
C358 C 0.50346 0.54676 0.0465 0.0
H359 H 0.46255 0.5299 0.90477 0.0
H360 H 0.4866 0.48646 0.90142 0.0
H361 H 0.53781 0.42214 0.96804 0.0
H362 H 0.55867 0.42218 0.0175 0.0
H363 H 0.55434 0.4875 0.09438 0.0
H364 H 0.5317 0.5319 0.09587 0.0
H365 H 0.48091 0.59412 0.02661 0.0
H366 H 0.46042 0.59292 0.97725 0.0
H367 H 0.44368 0.4863 0.07451 0.0
H368 H 0.44339 0.43658 0.01112 0.0
H369 H 0.56344 0.57662 0.98792 0.0
H370 H 0.56795 0.52286 0.92894 0.0
C371 C 0.04061 0.50966 0.54719 0.0
C372 C 0.05003 0.4981 0.57204 0.0
C373 C 0.03857 0.4761 0.57614 0.0
C374 C 0.02274 0.47547 0.55379 0.0
N375 N 0.02352 0.49567 0.53546 0.0
Co376 Co 1.00248 0.50284 0.50078 0.0
N377 N 0.98379 0.4717 0.50839 0.0
C378 C 0.9866 0.45514 0.53073 0.0
C379 C 0.97137 0.43546 0.53013 0.0
C380 C 0.95817 0.43951 0.50581 0.0
C381 C 0.96625 0.46148 0.4929 0.0
N382 N 0.98177 0.50976 0.46585 0.0
C383 C 0.96465 0.49576 0.45423 0.0
C384 C 0.95556 0.5069 0.42909 0.0
C385 C 0.96747 0.52861 0.42453 0.0
C386 C 0.98315 0.52946 0.44699 0.0
N387 N 0.02082 0.53424 0.49345 0.0
C388 C 0.01748 0.55119 0.47147 0.0
C389 C 0.03237 0.5711 0.47229 0.0
C390 C 0.04577 0.56689 0.49646 0.0
C391 C 0.03812 0.54461 0.50912 0.0
N392 N 0.02737 0.48382 0.48117 0.0
C393 C 0.05985 0.45544 0.45122 0.0
C394 C 0.05233 0.48006 0.44205 0.0
C395 C 0.03625 0.49374 0.45715 0.0
C396 C 0.05135 0.44558 0.47612 0.0
C397 C 0.03541 0.45999 0.49068 0.0
N398 N 0.97759 0.52186 0.52037 0.0
C399 C 0.95086 0.55877 0.52312 0.0
C400 C 0.94503 0.5507 0.54969 0.0
C401 C 0.95528 0.52757 0.561 0.0
C402 C 0.97126 0.51356 0.54609 0.0
C403 C 0.967 0.54421 0.50897 0.0
H404 H 0.97856 0.49625 0.55602 0.0
H405 H 0.97083 0.55158 0.48894 0.0
H406 H 0.03109 0.51223 0.44877 0.0
H407 H 0.02955 0.45128 0.50938 0.0
C408 C 0.00512 0.45752 0.55085 0.0
C409 C 0.0474 0.5345 0.53632 0.0
C410 C 0.95727 0.47136 0.46559 0.0
C411 C 0.99989 0.54808 0.45059 0.0
H412 H 0.06324 0.50509 0.58624 0.0
H413 H 0.04075 0.46265 0.59386 0.0
H414 H 0.97048 0.41967 0.54522 0.0
H415 H 0.94449 0.42742 0.49818 0.0
H416 H 0.94207 0.49984 0.41521 0.0
H417 H 0.96534 0.54194 0.40671 0.0
H418 H 0.03316 0.58695 0.45726 0.0
H419 H 0.0594 0.57903 0.50407 0.0
H420 H 0.05881 0.48887 0.42323 0.0
H421 H 0.05642 0.42657 0.48415 0.0
H422 H 0.94302 0.57628 0.51315 0.0
H423 H 0.95155 0.52048 0.58157 0.0
H424 H 0.10514 0.07559 0.46615 0.0
H425 H 0.13259 0.10127 0.43835 0.0
H426 H 0.09126 0.08547 0.36573 0.0
H427 H 0.06329 0.06037 0.39338 0.0
H428 H 0.16297 0.088 0.39696 0.0
H429 H 0.09198 0.16184 0.35787 0.0
H430 H 0.08699 0.13948 0.38639 0.0
H431 H 0.08361 0.13075 0.35222 0.0
C432 C 0.10169 0.07779 0.44429 0.0
C433 C 0.08188 0.06597 0.43206 0.0
C434 C 0.11753 0.09234 0.4284 0.0
C435 C 0.1138 0.09559 0.39997 0.0
C436 C 0.09426 0.08359 0.38766 0.0
H437 H 0.21754 0.15058 0.28032 0.0
H438 H 0.19071 0.12504 0.3095 0.0
C439 C 0.07845 0.06899 0.40351 0.0
C440 C 0.13054 0.11127 0.38321 0.0
H441 H 0.13124 0.1631 0.33783 0.0
C442 C 0.15605 0.10445 0.38408 0.0
C443 C 0.12156 0.13292 0.36665 0.0
C444 C 0.09458 0.14188 0.36583 0.0
C445 C 0.17272 0.11842 0.36848 0.0
C446 C 0.1636 0.13963 0.35131 0.0
C447 C 0.13818 0.14671 0.35081 0.0
C448 C 0.18016 0.15487 0.33385 0.0
C449 C 0.20001 0.11058 0.37083 0.0
C450 C 0.18284 0.1802 0.33752 0.0
C451 C 0.19807 0.19472 0.32086 0.0
C452 C 0.21068 0.18421 0.3001 0.0
C453 C 0.20801 0.15895 0.29632 0.0
C454 C 0.19282 0.1444 0.31303 0.0
H455 H 0.20481 0.09798 0.38959 0.0
H456 H 0.20476 0.1004 0.35307 0.0
H457 H 0.21166 0.12708 0.37089 0.0
H458 H 0.17318 0.18869 0.35336 0.0
H459 H 0.19989 0.21421 0.32401 0.0
H460 H 0.10126 0.95245 0.53268 0.0
H461 H 0.12868 0.92262 0.56204 0.0
H462 H 0.06771 0.90613 0.61354 0.0
H463 H 0.04047 0.93624 0.58435 0.0
H464 H 0.11109 0.91345 0.64279 0.0
H465 H 0.12857 0.84669 0.56591 0.0
H466 H 0.13594 0.87816 0.55522 0.0
H467 H 0.10423 0.87101 0.56116 0.0
C468 C 0.09383 0.94231 0.55025 0.0
C469 C 0.06886 0.94633 0.55631 0.0
C470 C 0.10939 0.92523 0.56689 0.0
C471 C 0.10014 0.91181 0.58974 0.0
C472 C 0.07521 0.91615 0.59595 0.0
H473 H 0.16875 0.78004 0.68342 0.0
H474 H 0.14178 0.81016 0.65391 0.0
C475 C 0.05968 0.93326 0.57933 0.0
C476 C 0.11652 0.89358 0.60748 0.0
H477 H 0.15276 0.83991 0.60752 0.0
C478 C 0.12017 0.89735 0.63509 0.0
C479 C 0.12811 0.8724 0.59751 0.0
C480 C 0.12388 0.86662 0.5684 0.0
C481 C 0.13534 0.8807 0.65291 0.0
C482 C 0.14753 0.85994 0.64275 0.0
C483 C 0.14362 0.85598 0.61522 0.0
C484 C 0.16401 0.8418 0.66047 0.0
C485 C 0.13777 0.88522 0.68258 0.0
C486 C 0.18559 0.84951 0.67367 0.0
C487 C 0.20089 0.83235 0.69052 0.0
C488 C 0.19496 0.8072 0.6942 0.0
C489 C 0.17359 0.7994 0.68078 0.0
C490 C 0.15827 0.81654 0.66397 0.0
H491 H 0.12246 0.89789 0.68836 0.0
H492 H 0.1378 0.86741 0.69582 0.0
H493 H 0.15562 0.89408 0.68658 0.0
H494 H 0.19064 0.86879 0.67087 0.0
H495 H 0.21734 0.83868 0.70073 0.0
H496 H 0.44984 0.90158 0.95321 0.0
H497 H 0.42296 0.87556 0.92782 0.0
H498 H 0.37912 0.94104 0.89458 0.0
H499 H 0.4054 0.96716 0.92064 0.0
H500 H 0.35024 0.90195 0.91242 0.0
H501 H 0.42305 0.86956 0.84605 0.0
H502 H 0.43126 0.86385 0.88176 0.0
H503 H 0.42703 0.8954 0.86638 0.0
C504 C 0.43435 0.91047 0.94071 0.0
C505 C 0.42987 0.93653 0.93894 0.0
C506 C 0.41917 0.89557 0.92594 0.0
C507 C 0.39927 0.90638 0.90892 0.0
C508 C 0.39449 0.9323 0.90741 0.0
H509 H 0.31895 0.83496 0.783 0.0
H510 H 0.34424 0.86202 0.8089 0.0
C511 C 0.40966 0.94723 0.92218 0.0
C512 C 0.38329 0.89063 0.89292 0.0
H513 H 0.38464 0.84959 0.84417 0.0
C514 C 0.35773 0.89055 0.89744 0.0
C515 C 0.39302 0.87602 0.87311 0.0
C516 C 0.42004 0.87632 0.86628 0.0
C517 C 0.34174 0.87593 0.88303 0.0
C518 C 0.35162 0.86068 0.86387 0.0
C519 C 0.3771 0.86109 0.85904 0.0
C520 C 0.33583 0.84438 0.84834 0.0
C521 C 0.31432 0.87732 0.88812 0.0
C522 C 0.32282 0.82529 0.86186 0.0
C523 C 0.30836 0.80974 0.8471 0.0
C524 C 0.30677 0.81279 0.81846 0.0
C525 C 0.31994 0.83188 0.805 0.0
C526 C 0.33434 0.84745 0.81978 0.0
H527 H 0.30885 0.89453 0.8976 0.0
H528 H 0.30294 0.87681 0.8689 0.0
H529 H 0.30989 0.86105 0.90223 0.0
H530 H 0.32415 0.82216 0.88385 0.0
H531 H 0.29884 0.79497 0.85811 0.0
H532 H 0.35604 0.18766 0.18676 0.0
H533 H 0.38092 0.16073 0.16004 0.0
H534 H 0.31605 0.11997 0.14185 0.0
H535 H 0.29101 0.14689 0.16848 0.0
H536 H 0.39046 0.10996 0.16641 0.0
H537 H 0.34114 0.13797 0.06657 0.0
H538 H 0.33698 0.1551 0.09589 0.0
H539 H 0.32115 0.12674 0.09265 0.0
C540 C 0.34708 0.17287 0.17721 0.0
C541 C 0.32149 0.1695 0.17967 0.0
C542 C 0.36131 0.15756 0.16184 0.0
C543 C 0.35028 0.1386 0.14854 0.0
C544 C 0.32484 0.13488 0.15134 0.0
H545 H 0.40866 0.02608 0.04875 0.0
H546 H 0.38258 0.05144 0.07647 0.0
C547 C 0.31056 0.15026 0.16662 0.0
C548 C 0.36554 0.12251 0.13214 0.0
H549 H 0.37097 0.10407 0.0682 0.0
C550 C 0.38624 0.10874 0.14492 0.0
C551 C 0.36002 0.12091 0.10408 0.0
C552 C 0.33876 0.13613 0.08888 0.0
C553 C 0.40139 0.09321 0.1305 0.0
C554 C 0.39586 0.09164 0.10248 0.0
C555 C 0.3751 0.10527 0.08971 0.0
C556 C 0.41164 0.07623 0.08595 0.0
C557 C 0.42296 0.0783 0.14546 0.0
C558 C 0.43646 0.08197 0.08186 0.0
C559 C 0.45124 0.06758 0.06607 0.0
C560 C 0.4414 0.04727 0.05414 0.0
C561 C 0.41655 0.04162 0.05797 0.0
C562 C 0.40173 0.05607 0.0737 0.0
H563 H 0.4211 0.07684 0.16785 0.0
H564 H 0.42459 0.05919 0.13877 0.0
H565 H 0.44046 0.08764 0.14092 0.0
H566 H 0.44433 0.09771 0.0907 0.0
H567 H 0.47035 0.07227 0.06311 0.0
H568 H 0.94301 0.90591 0.55825 0.0
H569 H 0.91406 0.88151 0.58518 0.0
H570 H 0.88396 0.94879 0.61482 0.0
H571 H 0.91197 0.97349 0.58695 0.0
H572 H 0.9097 0.87597 0.63976 0.0
H573 H 0.8212 0.91742 0.59033 0.0
H574 H 0.85093 0.92256 0.57585 0.0
H575 H 0.84095 0.94015 0.60299 0.0
C576 C 0.92994 0.91564 0.57007 0.0
C577 C 0.9298 0.94178 0.57019 0.0
C578 C 0.91351 0.90159 0.58567 0.0
C579 C 0.8965 0.91331 0.60172 0.0
C580 C 0.89649 0.93934 0.60215 0.0
H581 H 0.78941 0.85989 0.71816 0.0
H582 H 0.81708 0.88494 0.68945 0.0
C583 C 0.91282 0.95343 0.58646 0.0
C584 C 0.87939 0.89818 0.61864 0.0
H585 H 0.81806 0.89099 0.63126 0.0
C586 C 0.88966 0.87917 0.63776 0.0
C587 C 0.8532 0.90234 0.61609 0.0
C588 C 0.84087 0.92155 0.59503 0.0
C589 C 0.87455 0.86454 0.65468 0.0
C590 C 0.84841 0.86881 0.65223 0.0
C591 C 0.83811 0.8878 0.63315 0.0
C592 C 0.83146 0.85372 0.66927 0.0
C593 C 0.88671 0.84495 0.67544 0.0
C594 C 0.8301 0.82797 0.66716 0.0
C595 C 0.81432 0.81377 0.68345 0.0
C596 C 0.79964 0.82511 0.70203 0.0
C597 C 0.80068 0.85087 0.70394 0.0
C598 C 0.81641 0.8651 0.68758 0.0
H599 H 0.90679 0.84796 0.67917 0.0
H600 H 0.8774 0.84481 0.69507 0.0
H601 H 0.88504 0.8263 0.66788 0.0
H602 H 0.84121 0.81888 0.65285 0.0
H603 H 0.81364 0.79391 0.68167 0.0
H604 H 0.96983 0.07116 0.41912 0.0
H605 H 0.94121 0.10059 0.39076 0.0
H606 H 0.88203 0.08213 0.44408 0.0
H607 H 0.9108 0.05292 0.47255 0.0
H608 H 0.89707 0.09167 0.36293 0.0
H609 H 0.88057 0.1584 0.44012 0.0
H610 H 0.90564 0.13481 0.44394 0.0
H611 H 0.87446 0.12666 0.45123 0.0
C612 C 0.95071 0.07356 0.42471 0.0
C613 C 0.94241 0.06009 0.44798 0.0
C614 C 0.9344 0.09027 0.40857 0.0
C615 C 0.90958 0.09384 0.41553 0.0
C616 C 0.90122 0.08008 0.43864 0.0
H617 H 0.78809 0.1643 0.30861 0.0
H618 H 0.8161 0.13477 0.33763 0.0
C619 C 0.91754 0.06336 0.45479 0.0
C620 C 0.89237 0.11163 0.39829 0.0
H621 H 0.85534 0.16464 0.39924 0.0
C622 C 0.88796 0.10764 0.37084 0.0
C623 C 0.88075 0.13264 0.40856 0.0
C624 C 0.88572 0.1386 0.4375 0.0
C625 C 0.87201 0.12391 0.35348 0.0
C626 C 0.85983 0.14452 0.36395 0.0
C627 C 0.86449 0.14869 0.39131 0.0
C628 C 0.84261 0.1623 0.34671 0.0
C629 C 0.86872 0.11917 0.32393 0.0
C630 C 0.84787 0.18765 0.34275 0.0
C631 C 0.83182 0.20447 0.32642 0.0
C632 C 0.81018 0.19622 0.31394 0.0
C633 C 0.80474 0.17096 0.31807 0.0
C634 C 0.82078 0.15413 0.33445 0.0
H635 H 0.88397 0.1067 0.31767 0.0
H636 H 0.85092 0.11001 0.32071 0.0
H637 H 0.86805 0.13693 0.31054 0.0
H638 H 0.86455 0.19437 0.35209 0.0
H639 H 0.83629 0.22391 0.32343 0.0
H640 H 0.65978 0.21117 0.1952 0.0
H641 H 0.63466 0.18444 0.16845 0.0
H642 H 0.69961 0.1369 0.15938 0.0
H643 H 0.72488 0.16348 0.18617 0.0
H644 H 0.64746 0.17025 0.11106 0.0
H645 H 0.6419 0.09097 0.19093 0.0
H646 H 0.64714 0.12238 0.19919 0.0
H647 H 0.6717 0.10421 0.18601 0.0
C648 C 0.66867 0.1949 0.18773 0.0
C649 C 0.69432 0.18941 0.19287 0.0
C650 C 0.65433 0.17975 0.17234 0.0
C651 C 0.66527 0.15866 0.16211 0.0
C652 C 0.69081 0.15304 0.16725 0.0
H653 H 0.60503 0.03951 0.07508 0.0
H654 H 0.63113 0.06578 0.10126 0.0
C655 C 0.70523 0.16831 0.18241 0.0
C656 C 0.65006 0.14277 0.14562 0.0
H657 H 0.6236 0.08622 0.14765 0.0
C658 C 0.64217 0.15189 0.119 0.0
C659 C 0.64344 0.11879 0.15603 0.0
C660 C 0.6513 0.10839 0.18465 0.0
C661 C 0.62801 0.13749 0.10232 0.0
C662 C 0.62091 0.11361 0.11287 0.0
C663 C 0.62896 0.10451 0.13954 0.0
C664 C 0.60508 0.09781 0.09669 0.0
C665 C 0.62139 0.1478 0.07334 0.0
C666 C 0.58158 0.10688 0.08566 0.0
C667 C 0.56675 0.09197 0.07051 0.0
C668 C 0.57487 0.06748 0.06646 0.0
C669 C 0.59819 0.05825 0.07794 0.0
C670 C 0.61314 0.07327 0.09286 0.0
H671 H 0.63443 0.1621 0.06607 0.0
H672 H 0.62159 0.13279 0.05937 0.0
H673 H 0.60244 0.15687 0.07221 0.0
H674 H 0.57456 0.12543 0.08902 0.0
H675 H 0.54867 0.09946 0.06239 0.0
H676 H 0.59793 0.97807 0.95698 0.0
H677 H 0.62451 0.95345 0.92903 0.0
H678 H 0.56271 0.90831 0.91122 0.0
H679 H 0.53619 0.93304 0.93899 0.0
H680 H 0.63589 0.90101 0.93546 0.0
H681 H 0.58755 0.93099 0.83549 0.0
H682 H 0.58338 0.94766 0.86517 0.0
H683 H 0.56761 0.91937 0.86149 0.0
C684 C 0.59014 0.96294 0.94692 0.0
C685 C 0.56513 0.95742 0.9498 0.0
C686 C 0.60525 0.94891 0.93106 0.0
C687 C 0.59548 0.92929 0.91773 0.0
C688 C 0.57049 0.92365 0.92089 0.0
H689 H 0.65266 0.8207 0.81447 0.0
H690 H 0.62742 0.84684 0.84169 0.0
C691 C 0.55542 0.93764 0.93679 0.0
C692 C 0.61155 0.91434 0.90102 0.0
H693 H 0.61803 0.89774 0.83653 0.0
C694 C 0.63211 0.90039 0.9138 0.0
C695 C 0.6065 0.91353 0.87278 0.0
C696 C 0.5852 0.92884 0.8578 0.0
C697 C 0.64745 0.88516 0.89923 0.0
C698 C 0.64239 0.8843 0.87097 0.0
C699 C 0.62189 0.89839 0.85818 0.0
C700 C 0.6579 0.86864 0.85435 0.0
C701 C 0.66849 0.86959 0.9144 0.0
C702 C 0.68339 0.87243 0.85208 0.0
C703 C 0.69788 0.85751 0.8365 0.0
C704 C 0.68712 0.83867 0.82263 0.0
C705 C 0.6615 0.83521 0.82463 0.0
C706 C 0.64706 0.85006 0.84029 0.0
H707 H 0.6658 0.86724 0.93664 0.0
H708 H 0.67033 0.85083 0.90686 0.0
H709 H 0.68618 0.87899 0.9112 0.0
H710 H 0.69205 0.88706 0.86219 0.0
H711 H 0.71745 0.86096 0.83503 0.0
H712 H 0.56287 0.60326 0.94515 0.0
H713 H 0.58892 0.63047 0.91742 0.0
H714 H 0.63514 0.56665 0.90128 0.0
H715 H 0.60916 0.53925 0.92904 0.0
H716 H 0.63895 0.63858 0.92325 0.0
H717 H 0.61778 0.59982 0.82501 0.0
H718 H 0.59989 0.59303 0.8546 0.0
H719 H 0.62952 0.57701 0.85181 0.0
C720 C 0.57869 0.59499 0.9359 0.0
C721 C 0.58386 0.56902 0.9393 0.0
C722 C 0.5935 0.61058 0.91992 0.0
C723 C 0.61375 0.60059 0.90687 0.0
C724 C 0.61925 0.57474 0.91058 0.0
H725 H 0.72465 0.66808 0.80333 0.0
H726 H 0.69994 0.6393 0.83149 0.0
C727 C 0.60439 0.55909 0.9265 0.0
C728 C 0.62927 0.61736 0.8898 0.0
H729 H 0.64909 0.6294 0.82531 0.0
C730 C 0.64111 0.63662 0.90182 0.0
C731 C 0.63211 0.61479 0.86182 0.0
C732 C 0.61899 0.5952 0.84742 0.0
C733 C 0.65591 0.65315 0.88675 0.0
C734 C 0.65867 0.65062 0.85877 0.0
C735 C 0.64698 0.63129 0.84677 0.0
C736 C 0.67345 0.668 0.84157 0.0
C737 C 0.66884 0.67292 0.90104 0.0
C738 C 0.66653 0.69357 0.83755 0.0
C739 C 0.68061 0.70992 0.82154 0.0
C740 C 0.70174 0.70093 0.80922 0.0
C741 C 0.70845 0.67534 0.81281 0.0
C742 C 0.69436 0.65897 0.82881 0.0
H743 H 0.67013 0.66836 0.92346 0.0
H744 H 0.68789 0.67529 0.89377 0.0
H745 H 0.65812 0.691 0.89661 0.0
H746 H 0.6502 0.70087 0.84672 0.0
H747 H 0.67508 0.7296 0.81884 0.0
H748 H 0.72515 0.35776 0.19972 0.0
H749 H 0.69525 0.38454 0.16978 0.0
H750 H 0.64664 0.32323 0.16667 0.0
H751 H 0.67664 0.29641 0.1963 0.0
H752 H 0.67483 0.37374 0.11489 0.0
H753 H 0.60323 0.38354 0.19149 0.0
H754 H 0.63539 0.37466 0.20094 0.0
H755 H 0.61528 0.35238 0.18797 0.0
C756 C 0.70811 0.35008 0.19246 0.0
C757 C 0.70312 0.3251 0.20005 0.0
C758 C 0.69109 0.36532 0.17547 0.0
C759 C 0.66869 0.35588 0.16622 0.0
C760 C 0.66371 0.33091 0.17383 0.0
H761 H 0.53843 0.42004 0.0701 0.0
H762 H 0.56881 0.39305 0.09903 0.0
C763 C 0.68081 0.31563 0.19062 0.0
C764 C 0.65059 0.37208 0.14839 0.0
H765 H 0.59267 0.40075 0.14655 0.0
C766 C 0.65689 0.37975 0.12178 0.0
C767 C 0.62718 0.3797 0.15745 0.0
C768 C 0.61979 0.37235 0.18607 0.0
C769 C 0.64018 0.39456 0.10375 0.0
C770 C 0.61681 0.40246 0.11287 0.0
C771 C 0.61056 0.39473 0.13955 0.0
C772 C 0.59856 0.41873 0.09511 0.0
C773 C 0.6475 0.40099 0.0749 0.0
C774 C 0.60505 0.44224 0.08356 0.0
C775 C 0.58783 0.45746 0.06686 0.0
C776 C 0.5637 0.44961 0.06178 0.0
C777 C 0.55702 0.42634 0.07368 0.0
C778 C 0.57431 0.41101 0.0902 0.0
H779 H 0.66218 0.38766 0.06901 0.0
H780 H 0.63125 0.401 0.06027 0.0
H781 H 0.65502 0.41988 0.07314 0.0
H782 H 0.62339 0.44891 0.0876 0.0
H783 H 0.59327 0.47543 0.05798 0.0
H784 H 0.79048 0.35728 0.33478 0.0
H785 H 0.81616 0.3838 0.36103 0.0
H786 H 0.88221 0.34275 0.34073 0.0
H787 H 0.85669 0.31629 0.31432 0.0
H788 H 0.84771 0.37142 0.40535 0.0
H789 H 0.90034 0.41388 0.32039 0.0
H790 H 0.87293 0.39657 0.31483 0.0
H791 H 0.90253 0.3804 0.3236 0.0
C792 C 0.81048 0.35388 0.33592 0.0
C793 C 0.82153 0.33474 0.32229 0.0
C794 C 0.82514 0.36912 0.35086 0.0
C795 C 0.85117 0.36559 0.35249 0.0
C796 C 0.86224 0.34631 0.33918 0.0
H797 H 0.97183 0.43112 0.43982 0.0
H798 H 0.94571 0.40537 0.41266 0.0
C799 C 0.8476 0.33115 0.32411 0.0
C800 C 0.86665 0.3816 0.36877 0.0
H801 H 0.91474 0.42098 0.36512 0.0
C802 C 0.86225 0.38239 0.3965 0.0
C803 C 0.88566 0.3959 0.35725 0.0
C804 C 0.89053 0.39689 0.32733 0.0
C805 C 0.87662 0.39667 0.41311 0.0
C806 C 0.89573 0.4108 0.40161 0.0
C807 C 0.90012 0.41007 0.3739 0.0
C808 C 0.91142 0.42642 0.41803 0.0
C809 C 0.87163 0.39609 0.44296 0.0
C810 C 0.90085 0.44693 0.4298 0.0
C811 C 0.91574 0.4616 0.44521 0.0
C812 C 0.94141 0.45604 0.44896 0.0
C813 C 0.95203 0.43567 0.4371 0.0
C814 C 0.93716 0.42104 0.42163 0.0
H815 H 0.86049 0.38001 0.44983 0.0
H816 H 0.88932 0.39506 0.45552 0.0
H817 H 0.86104 0.41348 0.44668 0.0
H818 H 0.8811 0.45166 0.42693 0.0
H819 H 0.90726 0.47729 0.45421 0.0
H820 H 0.84668 0.70448 0.70365 0.0
H821 H 0.87125 0.67739 0.67681 0.0
H822 H 0.80434 0.64445 0.64915 0.0
H823 H 0.7796 0.67118 0.67624 0.0
H824 H 0.87455 0.62436 0.67927 0.0
H825 H 0.83798 0.66759 0.57812 0.0
H826 H 0.83414 0.6825 0.60903 0.0
H827 H 0.8147 0.65763 0.60116 0.0
C828 C 0.83717 0.6913 0.6921 0.0
C829 C 0.81111 0.6901 0.69207 0.0
C830 C 0.85125 0.67593 0.67665 0.0
C831 C 0.83958 0.65917 0.6607 0.0
C832 C 0.81366 0.65761 0.66089 0.0
H833 H 0.90964 0.53566 0.58533 0.0
H834 H 0.88419 0.56164 0.61254 0.0
C835 C 0.79955 0.67294 0.67637 0.0
C836 C 0.85461 0.6432 0.64402 0.0
H837 H 0.86443 0.63124 0.57851 0.0
C838 C 0.87235 0.62584 0.65724 0.0
C839 C 0.85187 0.64538 0.61527 0.0
C840 C 0.83381 0.66441 0.59995 0.0
C841 C 0.88723 0.61036 0.64249 0.0
C842 C 0.88413 0.61219 0.61379 0.0
C843 C 0.8666 0.62975 0.60054 0.0
C844 C 0.89934 0.5964 0.59711 0.0
C845 C 0.90649 0.5925 0.65766 0.0
C846 C 0.91595 0.60738 0.57905 0.0
C847 C 0.93064 0.59259 0.56358 0.0
C848 C 0.92887 0.56648 0.56568 0.0
C849 C 0.91185 0.55562 0.58353 0.0
C850 C 0.89723 0.57044 0.59907 0.0
H851 H 0.91018 0.59711 0.67888 0.0
H852 H 0.89972 0.57329 0.65845 0.0
H853 H 0.92425 0.59262 0.64707 0.0
H854 H 0.91783 0.6274 0.57724 0.0
H855 H 0.94375 0.60161 0.55038 0.0
H856 H 0.39917 0.43751 0.02772 0.0
H857 H 0.37243 0.41009 0.05463 0.0
H858 H 0.42114 0.41416 0.12559 0.0
H859 H 0.44731 0.44219 0.09905 0.0
H860 H 0.38014 0.36556 0.08019 0.0
H861 H 0.35631 0.42991 0.15704 0.0
H862 H 0.37194 0.43998 0.1267 0.0
H863 H 0.3893 0.42456 0.15597 0.0
C864 C 0.40405 0.43264 0.04911 0.0
C865 C 0.42517 0.44226 0.06135 0.0
C866 C 0.38877 0.41697 0.06449 0.0
C867 C 0.39437 0.41043 0.09238 0.0
C868 C 0.41583 0.41956 0.10442 0.0
H869 H 0.33676 0.2816 0.18576 0.0
H870 H 0.36158 0.31049 0.15821 0.0
C871 C 0.43088 0.43552 0.08917 0.0
C872 C 0.37824 0.39348 0.10866 0.0
H873 H 0.34727 0.38717 0.16766 0.0
C874 C 0.3728 0.3704 0.09922 0.0
C875 C 0.36822 0.39984 0.13331 0.0
C876 C 0.37151 0.42503 0.14369 0.0
C877 C 0.35812 0.3534 0.11388 0.0
C878 C 0.34926 0.3592 0.13926 0.0
C879 C 0.35429 0.38248 0.14844 0.0
C880 C 0.33449 0.34161 0.15648 0.0
C881 C 0.35183 0.32969 0.1016 0.0
C882 C 0.31147 0.34965 0.16584 0.0
C883 C 0.29764 0.33332 0.1822 0.0
C884 C 0.3064 0.30855 0.1893 0.0
C885 C 0.32952 0.30056 0.1803 0.0
C886 C 0.34356 0.31699 0.16431 0.0
H887 H 0.35287 0.33183 0.0791 0.0
H888 H 0.36546 0.31448 0.10967 0.0
H889 H 0.33289 0.32399 0.10664 0.0
H890 H 0.30411 0.36856 0.16034 0.0
H891 H 0.27998 0.33997 0.18917 0.0
H892 H 0.30225 0.6991 0.83927 0.0
H893 H 0.32804 0.66895 0.87005 0.0
H894 H 0.31415 0.61163 0.81658 0.0
H895 H 0.28831 0.64182 0.78582 0.0
H896 H 0.3147 0.62109 0.89669 0.0
H897 H 0.39128 0.61238 0.82564 0.0
H898 H 0.36817 0.63791 0.8215 0.0
H899 H 0.36048 0.60765 0.81215 0.0
C900 C 0.30479 0.68004 0.83419 0.0
C901 C 0.29362 0.6727 0.81019 0.0
C902 C 0.3194 0.66286 0.85175 0.0
C903 C 0.32318 0.63813 0.84547 0.0
C904 C 0.31172 0.6307 0.82162 0.0
H905 H 0.42563 0.52064 0.92371 0.0
H906 H 0.39142 0.54171 0.89628 0.0
C907 C 0.29701 0.64787 0.80412 0.0
C908 C 0.33946 0.62029 0.86371 0.0
H909 H 0.39539 0.58756 0.86742 0.0
C910 C 0.33231 0.61366 0.8903 0.0
C911 C 0.36233 0.6105 0.85526 0.0
C912 C 0.37123 0.61754 0.82717 0.0
C913 C 0.34751 0.59756 0.90874 0.0
C914 C 0.37073 0.58833 0.90053 0.0
C915 C 0.37757 0.59455 0.87372 0.0
C916 C 0.38916 0.57363 0.91963 0.0
C917 C 0.3384 0.59047 0.9367 0.0
C918 C 0.39832 0.58341 0.94317 0.0
C919 C 0.41877 0.57168 0.95839 0.0
C920 C 0.43205 0.55101 0.94928 0.0
C921 C 0.41967 0.53897 0.92864 0.0
C922 C 0.39916 0.55055 0.91337 0.0
H923 H 0.31774 0.59136 0.93651 0.0
H924 H 0.34533 0.57138 0.94473 0.0
H925 H 0.34513 0.60386 0.95082 0.0
H926 H 0.39025 0.60062 0.94937 0.0
H927 H 0.42356 0.57923 0.97716 0.0
H928 H 0.1817 0.69515 0.64684 0.0
H929 H 0.15583 0.66985 0.61932 0.0
H930 H 0.15114 0.61563 0.68861 0.0
H931 H 0.1763 0.64136 0.71642 0.0
H932 H 0.16267 0.62498 0.6042 0.0
H933 H 0.07931 0.62542 0.66573 0.0
H934 H 0.10479 0.64523 0.67139 0.0
H935 H 0.10655 0.61309 0.68541 0.0
C936 C 0.17509 0.67785 0.6562 0.0
C937 C 0.18089 0.6703 0.68383 0.0
C938 C 0.16027 0.6634 0.64047 0.0
C939 C 0.15106 0.641 0.65195 0.0
C940 C 0.1573 0.63318 0.67944 0.0
H941 H 0.09607 0.52575 0.55413 0.0
H942 H 0.12127 0.55122 0.58235 0.0
C943 C 0.1718 0.64783 0.6953 0.0
C944 C 0.13553 0.6256 0.63491 0.0
H945 H 0.08043 0.59658 0.63196 0.0
C946 C 0.14462 0.61889 0.61023 0.0
C947 C 0.11175 0.61795 0.64244 0.0
C948 C 0.0999 0.62601 0.66753 0.0
C949 C 0.13083 0.60459 0.5931 0.0
C950 C 0.10759 0.59593 0.60127 0.0
C951 C 0.09836 0.60289 0.62579 0.0
C952 C 0.09231 0.58007 0.58453 0.0
C953 C 0.14107 0.59955 0.56609 0.0
C954 C 0.06732 0.5872 0.57717 0.0
C955 C 0.05276 0.57229 0.56172 0.0
C956 C 0.06292 0.55002 0.55323 0.0
C957 C 0.08785 0.54284 0.56054 0.0
C958 C 0.10231 0.55754 0.57636 0.0
H959 H 0.15439 0.61375 0.55924 0.0
H960 H 0.15126 0.58107 0.56822 0.0
H961 H 0.12599 0.59941 0.55007 0.0
H962 H 0.0591 0.60441 0.58325 0.0
H963 H 0.03356 0.57817 0.55628 0.0
H964 H 0.18131 0.34305 0.27408 0.0
H965 H 0.15573 0.36925 0.30098 0.0
H966 H 0.18303 0.32555 0.37453 0.0
H967 H 0.20812 0.29882 0.34789 0.0
H968 H 0.11819 0.35211 0.33935 0.0
H969 H 0.19552 0.39989 0.38788 0.0
H970 H 0.199 0.3845 0.3572 0.0
H971 H 0.19889 0.36641 0.38956 0.0
C972 C 0.18176 0.33885 0.29595 0.0
C973 C 0.19692 0.31882 0.30877 0.0
C974 C 0.16723 0.35395 0.31129 0.0
C975 C 0.16775 0.34951 0.33973 0.0
C976 C 0.18272 0.32955 0.35262 0.0
H977 H 0.09741 0.42085 0.46923 0.0
H978 H 0.12273 0.3948 0.44204 0.0
C979 C 0.19713 0.31435 0.33732 0.0
C980 C 0.15218 0.36538 0.35595 0.0
H981 H 0.15525 0.40752 0.4034 0.0
C982 C 0.12623 0.36433 0.35328 0.0
C983 C 0.16279 0.38111 0.37422 0.0
C984 C 0.19057 0.3833 0.37736 0.0
C985 C 0.11056 0.37832 0.36878 0.0
C986 C 0.12114 0.3943 0.38689 0.0
C987 C 0.14714 0.39531 0.38952 0.0
C988 C 0.10559 0.41012 0.40331 0.0
C989 C 0.08286 0.37527 0.36612 0.0
C990 C 0.08774 0.42765 0.39062 0.0
C991 C 0.07297 0.44233 0.40612 0.0
C992 C 0.07595 0.44007 0.43472 0.0
C993 C 0.09424 0.42282 0.44733 0.0
C994 C 0.1089 0.40803 0.43179 0.0
H995 H 0.07849 0.35734 0.35795 0.0
H996 H 0.07421 0.376 0.38604 0.0
H997 H 0.07425 0.39062 0.35179 0.0
H998 H 0.08522 0.43004 0.36865 0.0
H999 H 0.05895 0.45519 0.39565 0.0
loop_
_geom_bond_atom_site_label_1
_geom_bond_atom_site_label_2
_geom_bond_distance
_geom_bond_site_symmetry_2
_ccdc_geom_bond_type
C0 C1 1.443 . S
C0 N4 1.376 . S
C0 C38 1.389 . S
C1 C0 1.443 . S
C1 C2 1.340 . S
C1 H41 0.951 . S
C2 C1 1.340 . S
C2 C3 1.439 . S
C2 H42 0.950 . S
C3 C2 1.439 . S
C3 N4 1.374 . S
C3 C37 1.395 1_455 S
N4 C0 1.376 . S
N4 C3 1.374 . S
N4 Co5 2.007 1_565 S
Co5 N4 2.007 1_545 S
Co5 N6 1.989 1_445 S
Co5 N11 2.009 1_455 S
Co5 N16 1.995 . S
Co5 N21 2.283 . S
Co5 N27 2.282 1_445 S
N6 Co5 1.989 1_665 S
N6 C7 1.413 . S
N6 C10 1.351 1_565 S
C7 N6 1.413 . S
C7 C8 1.446 . S
C7 C37 1.391 . S
C8 C7 1.446 . S
C8 C9 1.339 1_565 S
C8 H43 0.949 . S
C9 C8 1.339 1_545 S
C9 C10 1.439 . S
C9 H44 0.950 . S
C10 N6 1.351 1_545 S
C10 C9 1.439 . S
C10 C39 1.392 . S
N11 Co5 2.009 1_655 S
N11 C12 1.376 . S
N11 C15 1.374 . S
C12 N11 1.376 . S
C12 C13 1.443 . S
C12 C39 1.389 . S
C13 C12 1.443 . S
C13 C14 1.340 . S
C13 H45 0.951 . S
C14 C13 1.340 . S
C14 C15 1.439 . S
C14 H46 0.950 . S
C15 N11 1.374 . S
C15 C14 1.439 . S
C15 C40 1.395 1_655 S
N16 Co5 1.995 . S
N16 C17 1.376 . S
N16 C20 1.383 1_545 S
C17 N16 1.376 . S
C17 C18 1.446 . S
C17 C40 1.391 . S
C18 C17 1.446 . S
C18 C19 1.339 1_545 S
C18 H47 0.949 . S
C19 C18 1.339 1_565 S
C19 C20 1.439 . S
C19 H48 0.950 . S
C20 N16 1.383 1_565 S
C20 C19 1.439 . S
C20 C38 1.392 . S
N21 Co5 2.283 . S
N21 C24 1.332 . S
N21 C26 1.332 . S
C22 C23 1.386 . S
C22 C25 1.388 . S
C23 C22 1.386 . S
C23 C24 1.382 . S
C23 H49 0.950 . S
C24 N21 1.332 . S
C24 C23 1.382 . S
C24 H35 0.952 . S
C25 C22 1.388 . S
C25 C26 1.382 . S
C25 H50 0.950 . S
C26 N21 1.332 . S
C26 C25 1.382 . S
C26 H36 0.948 . S
N27 Co5 2.282 1_665 S
N27 C31 1.332 . S
N27 C32 1.332 . S
C28 C29 1.388 . S
C28 C32 1.382 . S
C28 H51 0.950 . S
C29 C28 1.388 . S
C29 C30 1.386 . S
C30 C29 1.386 . S
C30 C31 1.382 . S
C30 H52 0.950 . S
C31 N27 1.332 . S
C31 C30 1.382 . S
C31 H33 0.952 . S
C32 N27 1.332 . S
C32 C28 1.382 . S
C32 H34 0.948 . S
H33 C31 0.952 . S
H34 C32 0.948 . S
H35 C24 0.952 . S
H36 C26 0.948 . S
C37 C3 1.395 1_655 S
C37 C7 1.391 . S
C38 C0 1.389 . S
C38 C20 1.392 . S
C39 C10 1.392 . S
C39 C12 1.389 . S
C40 C15 1.395 1_455 S
C40 C17 1.391 . S
H41 C1 0.951 . S
H42 C2 0.950 . S
H43 C8 0.949 . S
H44 C9 0.950 . S
H45 C13 0.951 . S
H46 C14 0.950 . S
H47 C18 0.949 . S
H48 C19 0.950 . S
H49 C23 0.950 . S
H50 C25 0.950 . S
H51 C28 0.950 . S
H52 C30 0.950 . S
C53 C54 1.443 . S
C53 N57 1.376 . S
C53 C91 1.389 . S
C54 C53 1.443 . S
C54 C55 1.340 . S
C54 H94 0.951 . S
C55 C54 1.340 . S
C55 C56 1.439 . S
C55 H95 0.950 . S
C56 C55 1.439 . S
C56 N57 1.374 . S
C56 C90 1.395 . S
N57 C53 1.376 . S
N57 C56 1.374 . S
N57 Co58 2.008 . S
Co58 N57 2.008 . S
Co58 N59 1.995 . S
Co58 N64 2.008 . S
Co58 N69 1.995 . S
Co58 N74 2.282 . S
Co58 N80 2.282 . S
N59 Co58 1.995 . S
N59 C60 1.376 . S
N59 C63 1.383 . S
C60 N59 1.376 . S
C60 C61 1.446 . S
C60 C90 1.391 . S
C61 C60 1.446 . S
C61 C62 1.339 . S
C61 H96 0.949 . S
C62 C61 1.339 . S
C62 C63 1.439 . S
C62 H97 0.950 . S
C63 N59 1.383 . S
C63 C62 1.439 . S
C63 C92 1.392 . S
N64 Co58 2.008 . S
N64 C65 1.376 . S
N64 C68 1.374 . S
C65 N64 1.376 . S
C65 C66 1.443 . S
C65 C92 1.389 . S
C66 C65 1.443 . S
C66 C67 1.340 . S
C66 H98 0.951 . S
C67 C66 1.340 . S
C67 C68 1.439 . S
C67 H99 0.950 . S
C68 N64 1.374 . S
C68 C67 1.439 . S
C68 C93 1.395 . S
N69 Co58 1.995 . S
N69 C70 1.376 . S
N69 C73 1.383 . S
C70 N69 1.376 . S
C70 C71 1.446 . S
C70 C93 1.391 . S
C71 C70 1.446 . S
C71 C72 1.339 . S
C71 H100 0.949 . S
C72 C71 1.339 . S
C72 C73 1.439 . S
C72 H101 0.950 . S
C73 N69 1.383 . S
C73 C72 1.439 . S
C73 C91 1.392 . S
N74 Co58 2.282 . S
N74 C77 1.332 . S
N74 C79 1.332 . S
C75 C76 1.386 . S
C75 C78 1.388 . S
C76 C75 1.386 . S
C76 C77 1.382 . S
C76 H102 0.950 . S
C77 N74 1.332 . S
C77 C76 1.382 . S
C77 H88 0.952 . S
C78 C75 1.388 . S
C78 C79 1.382 . S
C78 H103 0.950 . S
C79 N74 1.332 . S
C79 C78 1.382 . S
C79 H89 0.948 . S
N80 Co58 2.282 . S
N80 C84 1.332 . S
N80 C85 1.332 . S
C81 C82 1.388 . S
C81 C85 1.382 . S
C81 H104 0.950 . S
C82 C81 1.388 . S
C82 C83 1.386 . S
C83 C82 1.386 . S
C83 C84 1.382 . S
C83 H105 0.950 . S
C84 N80 1.332 . S
C84 C83 1.382 . S
C84 H86 0.952 . S
C85 N80 1.332 . S
C85 C81 1.382 . S
C85 H87 0.948 . S
H86 C84 0.952 . S
H87 C85 0.948 . S
H88 C77 0.952 . S
H89 C79 0.948 . S
C90 C56 1.395 . S
C90 C60 1.391 . S
C91 C53 1.389 . S
C91 C73 1.392 . S
C92 C63 1.392 . S
C92 C65 1.389 . S
C93 C68 1.395 . S
C93 C70 1.391 . S
H94 C54 0.951 . S
H95 C55 0.950 . S
H96 C61 0.949 . S
H97 C62 0.950 . S
H98 C66 0.951 . S
H99 C67 0.950 . S
H100 C71 0.949 . S
H101 C72 0.950 . S
H102 C76 0.950 . S
H103 C78 0.950 . S
H104 C81 0.950 . S
H105 C83 0.950 . S
C106 C107 1.442 1_554 S
C106 N110 1.376 1_554 S
C106 C144 1.389 . S
C107 C106 1.442 1_556 S
C107 C108 1.344 . S
C107 H147 0.949 1_556 S
C108 C107 1.344 . S
C108 C109 1.439 . S
C108 H148 0.950 . S
C109 C108 1.439 . S
C109 N110 1.374 . S
C109 C143 1.395 . S
N110 C106 1.376 1_556 S
N110 C109 1.374 . S
N110 Co111 2.010 1_556 S
Co111 N110 2.010 1_554 S
Co111 N112 1.993 1_554 S
Co111 N117 2.007 1_545 S
Co111 N122 1.996 1_545 S
Co111 N127 2.280 1_544 S
Co111 N133 2.285 . S
N112 Co111 1.993 1_556 S
N112 C113 1.376 . S
N112 C116 1.383 1_545 S
C113 N112 1.376 . S
C113 C114 1.446 . S
C113 C143 1.391 . S
C114 C113 1.446 . S
C114 C115 1.312 1_545 S
C114 H149 0.949 . S
C115 C114 1.312 1_565 S
C115 C116 1.448 . S
C115 H150 0.965 . S
C116 N112 1.383 1_565 S
C116 C115 1.448 . S
C116 C145 1.392 . S
N117 Co111 2.007 1_565 S
N117 C118 1.376 1_554 S
N117 C121 1.374 . S
C118 N117 1.376 1_556 S
C118 C119 1.439 1_556 S
C118 C145 1.389 . S
C119 C118 1.439 1_554 S
C119 C120 1.356 . S
C119 H151 0.942 1_554 S
C120 C119 1.356 . S
C120 C121 1.439 . S
C120 H152 0.950 . S
C121 N117 1.374 . S
C121 C120 1.439 . S
C121 C146 1.395 . S
N122 Co111 1.996 1_565 S
N122 C123 1.376 . S
N122 C126 1.383 1_565 S
C123 N122 1.376 . S
C123 C124 1.446 . S
C123 C146 1.391 . S
C124 C123 1.446 . S
C124 C125 1.299 1_565 S
C124 H153 0.949 . S
C125 C124 1.299 1_545 S
C125 C126 1.453 . S
C125 H154 0.972 . S
C126 N122 1.383 1_545 S
C126 C125 1.453 . S
C126 C144 1.392 . S
N127 Co111 2.280 1_566 S
N127 C130 1.332 . S
N127 C132 1.332 . S
C128 C129 1.386 . S
C128 C131 1.388 . S
C129 C128 1.386 . S
C129 C130 1.382 . S
C129 H155 0.950 . S
C130 N127 1.332 . S
C130 C129 1.382 . S
C130 H141 0.952 1_556 S
C131 C128 1.388 . S
C131 C132 1.382 . S
C131 H156 0.950 . S
C132 N127 1.332 . S
C132 C131 1.382 . S
C132 H142 0.948 . S
N133 Co111 2.285 . S
N133 C137 1.332 . S
N133 C138 1.332 . S
C134 C135 1.388 . S
C134 C138 1.382 . S
C134 H157 0.950 . S
C135 C134 1.388 . S
C135 C136 1.386 . S
C136 C135 1.386 . S
C136 C137 1.382 . S
C136 H158 0.950 . S
C137 N133 1.332 . S
C137 C136 1.382 . S
C137 H139 0.952 1_554 S
C138 N133 1.332 . S
C138 C134 1.382 . S
C138 H140 0.948 . S
H139 C137 0.952 1_556 S
H140 C138 0.948 . S
H141 C130 0.952 1_554 S
H142 C132 0.948 . S
C143 C109 1.395 . S
C143 C113 1.391 . S
C144 C106 1.389 . S
C144 C126 1.392 . S
C145 C116 1.392 . S
C145 C118 1.389 . S
C146 C121 1.395 . S
C146 C123 1.391 . S
H147 C107 0.949 1_554 S
H148 C108 0.950 . S
H149 C114 0.949 . S
H150 C115 0.965 . S
H151 C119 0.942 1_556 S
H152 C120 0.950 . S
H153 C124 0.949 . S
H154 C125 0.972 . S
H155 C129 0.950 . S
H156 C131 0.950 . S
H157 C134 0.950 . S
H158 C136 0.950 . S
C159 C160 1.443 . S
C159 N163 1.376 . S
C159 C197 1.389 . S
C160 C159 1.443 . S
C160 C161 1.340 . S
C160 H200 0.951 . S
C161 C160 1.340 . S
C161 C162 1.439 . S
C161 H201 0.950 . S
C162 C161 1.439 . S
C162 N163 1.374 . S
C162 C196 1.395 . S
N163 C159 1.376 . S
N163 C162 1.374 . S
N163 Co164 2.008 . S
Co164 N163 2.008 . S
Co164 N165 1.995 . S
Co164 N170 2.008 . S
Co164 N175 1.995 . S
Co164 N180 2.282 . S
Co164 N186 2.282 . S
N165 Co164 1.995 . S
N165 C166 1.376 . S
N165 C169 1.383 . S
C166 N165 1.376 . S
C166 C167 1.446 . S
C166 C196 1.391 . S
C167 C166 1.446 . S
C167 C168 1.339 . S
C167 H202 0.949 . S
C168 C167 1.339 . S
C168 C169 1.439 . S
C168 H203 0.950 . S
C169 N165 1.383 . S
C169 C168 1.439 . S
C169 C198 1.392 . S
N170 Co164 2.008 . S
N170 C171 1.376 . S
N170 C174 1.374 . S
C171 N170 1.376 . S
C171 C172 1.443 . S
C171 C198 1.389 . S
C172 C171 1.443 . S
C172 C173 1.340 . S
C172 H204 0.951 . S
C173 C172 1.340 . S
C173 C174 1.439 . S
C173 H205 0.950 . S
C174 N170 1.374 . S
C174 C173 1.439 . S
C174 C199 1.395 . S
N175 Co164 1.995 . S
N175 C176 1.376 . S
N175 C179 1.383 . S
C176 N175 1.376 . S
C176 C177 1.446 . S
C176 C199 1.391 . S
C177 C176 1.446 . S
C177 C178 1.339 . S
C177 H206 0.949 . S
C178 C177 1.339 . S
C178 C179 1.439 . S
C178 H207 0.950 . S
C179 N175 1.383 . S
C179 C178 1.439 . S
C179 C197 1.392 . S
N180 Co164 2.282 . S
N180 C183 1.332 . S
N180 C185 1.332 . S
C181 C182 1.386 . S
C181 C184 1.388 . S
C182 C181 1.386 . S
C182 C183 1.382 . S
C182 H208 0.950 . S
C183 N180 1.332 . S
C183 C182 1.382 . S
C183 H194 0.952 . S
C184 C181 1.388 . S
C184 C185 1.382 . S
C184 H209 0.950 . S
C185 N180 1.332 . S
C185 C184 1.382 . S
C185 H195 0.948 . S
N186 Co164 2.282 . S
N186 C190 1.332 . S
N186 C191 1.332 . S
C187 C188 1.388 . S
C187 C191 1.382 . S
C187 H210 0.950 . S
C188 C187 1.388 . S
C188 C189 1.386 . S
C189 C188 1.386 . S
C189 C190 1.382 . S
C189 H211 0.950 . S
C190 N186 1.332 . S
C190 C189 1.382 . S
C190 H192 0.952 . S
C191 N186 1.332 . S
C191 C187 1.382 . S
C191 H193 0.948 . S
H192 C190 0.952 . S
H193 C191 0.948 . S
H194 C183 0.952 . S
H195 C185 0.948 . S
C196 C162 1.395 . S
C196 C166 1.391 . S
C197 C159 1.389 . S
C197 C179 1.392 . S
C198 C169 1.392 . S
C198 C171 1.389 . S
C199 C174 1.395 . S
C199 C176 1.391 . S
H200 C160 0.951 . S
H201 C161 0.950 . S
H202 C167 0.949 . S
H203 C168 0.950 . S
H204 C172 0.951 . S
H205 C173 0.950 . S
H206 C177 0.949 . S
H207 C178 0.950 . S
H208 C182 0.950 . S
H209 C184 0.950 . S
H210 C187 0.950 . S
H211 C189 0.950 . S
C212 C213 1.443 . S
C212 N216 1.376 . S
C212 C250 1.389 . S
C213 C212 1.443 . S
C213 C214 1.340 . S
C213 H253 0.951 . S
C214 C213 1.340 . S
C214 C215 1.439 . S
C214 H254 0.950 . S
C215 C214 1.439 . S
C215 N216 1.374 . S
C215 C249 1.395 . S
N216 C212 1.376 . S
N216 C215 1.374 . S
N216 Co217 2.008 . S
Co217 N216 2.008 . S
Co217 N218 1.995 . S
Co217 N223 2.008 . S
Co217 N228 1.995 . S
Co217 N233 2.282 . S
Co217 N239 2.282 . S
N218 Co217 1.995 . S
N218 C219 1.376 . S
N218 C222 1.383 . S
C219 N218 1.376 . S
C219 C220 1.446 . S
C219 C249 1.391 . S
C220 C219 1.446 . S
C220 C221 1.339 . S
C220 H255 0.949 . S
C221 C220 1.339 . S
C221 C222 1.439 . S
C221 H256 0.950 . S
C222 N218 1.383 . S
C222 C221 1.439 . S
C222 C251 1.392 . S
N223 Co217 2.008 . S
N223 C224 1.376 . S
N223 C227 1.374 . S
C224 N223 1.376 . S
C224 C225 1.443 . S
C224 C251 1.389 . S
C225 C224 1.443 . S
C225 C226 1.340 . S
C225 H257 0.951 . S
C226 C225 1.340 . S
C226 C227 1.439 . S
C226 H258 0.950 . S
C227 N223 1.374 . S
C227 C226 1.439 . S
C227 C252 1.395 . S
N228 Co217 1.995 . S
N228 C229 1.376 . S
N228 C232 1.383 . S
C229 N228 1.376 . S
C229 C230 1.446 . S
C229 C252 1.391 . S
C230 C229 1.446 . S
C230 C231 1.339 . S
C230 H259 0.949 . S
C231 C230 1.339 . S
C231 C232 1.439 . S
C231 H260 0.950 . S
C232 N228 1.383 . S
C232 C231 1.439 . S
C232 C250 1.392 . S
N233 Co217 2.282 . S
N233 C236 1.332 . S
N233 C238 1.332 . S
C234 C235 1.386 . S
C234 C237 1.388 . S
C235 C234 1.386 . S
C235 C236 1.382 . S
C235 H261 0.950 . S
C236 N233 1.332 . S
C236 C235 1.382 . S
C236 H247 0.952 . S
C237 C234 1.388 . S
C237 C238 1.382 . S
C237 H262 0.950 . S
C238 N233 1.332 . S
C238 C237 1.382 . S
C238 H248 0.948 . S
N239 Co217 2.282 . S
N239 C243 1.332 . S
N239 C244 1.332 . S
C240 C241 1.388 . S
C240 C244 1.382 . S
C240 H263 0.950 . S
C241 C240 1.388 . S
C241 C242 1.386 . S
C242 C241 1.386 . S
C242 C243 1.382 . S
C242 H264 0.950 . S
C243 N239 1.332 . S
C243 C242 1.382 . S
C243 H245 0.952 . S
C244 N239 1.332 . S
C244 C240 1.382 . S
C244 H246 0.948 . S
H245 C243 0.952 . S
H246 C244 0.948 . S
H247 C236 0.952 . S
H248 C238 0.948 . S
C249 C215 1.395 . S
C249 C219 1.391 . S
C250 C212 1.389 . S
C250 C232 1.392 . S
C251 C222 1.392 . S
C251 C224 1.389 . S
C252 C227 1.395 . S
C252 C229 1.391 . S
H253 C213 0.951 . S
H254 C214 0.950 . S
H255 C220 0.949 . S
H256 C221 0.950 . S
H257 C225 0.951 . S
H258 C226 0.950 . S
H259 C230 0.949 . S
H260 C231 0.950 . S
H261 C235 0.950 . S
H262 C237 0.950 . S
H263 C240 0.950 . S
H264 C242 0.950 . S
C265 C266 1.443 . S
C265 N269 1.376 . S
C265 C303 1.389 . S
C266 C265 1.443 . S
C266 C267 1.340 . S
C266 H306 0.951 . S
C267 C266 1.340 . S
C267 C268 1.439 . S
C267 H307 0.950 . S
C268 C267 1.439 . S
C268 N269 1.374 . S
C268 C302 1.395 . S
N269 C265 1.376 . S
N269 C268 1.374 . S
N269 Co270 2.008 . S
Co270 N269 2.008 . S
Co270 N271 1.995 . S
Co270 N276 2.008 . S
Co270 N281 1.995 . S
Co270 N286 2.282 . S
Co270 N292 2.282 . S
N271 Co270 1.995 . S
N271 C272 1.376 . S
N271 C275 1.383 . S
C272 N271 1.376 . S
C272 C273 1.446 . S
C272 C302 1.391 . S
C273 C272 1.446 . S
C273 C274 1.339 . S
C273 H308 0.949 . S
C274 C273 1.339 . S
C274 C275 1.439 . S
C274 H309 0.950 . S
C275 N271 1.383 . S
C275 C274 1.439 . S
C275 C304 1.392 . S
N276 Co270 2.008 . S
N276 C277 1.376 . S
N276 C280 1.374 . S
C277 N276 1.376 . S
C277 C278 1.443 . S
C277 C304 1.389 . S
C278 C277 1.443 . S
C278 C279 1.340 . S
C278 H310 0.951 . S
C279 C278 1.340 . S
C279 C280 1.439 . S
C279 H311 0.950 . S
C280 N276 1.374 . S
C280 C279 1.439 . S
C280 C305 1.395 . S
N281 Co270 1.995 . S
N281 C282 1.376 . S
N281 C285 1.383 . S
C282 N281 1.376 . S
C282 C283 1.446 . S
C282 C305 1.391 . S
C283 C282 1.446 . S
C283 C284 1.339 . S
C283 H312 0.949 . S
C284 C283 1.339 . S
C284 C285 1.439 . S
C284 H313 0.950 . S
C285 N281 1.383 . S
C285 C284 1.439 . S
C285 C303 1.392 . S
N286 Co270 2.282 . S
N286 C289 1.332 . S
N286 C291 1.332 . S
C287 C288 1.386 . S
C287 C290 1.388 . S
C288 C287 1.386 . S
C288 C289 1.382 . S
C288 H314 0.950 . S
C289 N286 1.332 . S
C289 C288 1.382 . S
C289 H300 0.952 . S
C290 C287 1.388 . S
C290 C291 1.382 . S
C290 H315 0.950 . S
C291 N286 1.332 . S
C291 C290 1.382 . S
C291 H301 0.948 . S
N292 Co270 2.282 . S
N292 C296 1.332 . S
N292 C297 1.332 . S
C293 C294 1.388 . S
C293 C297 1.382 . S
C293 H316 0.950 . S
C294 C293 1.388 . S
C294 C295 1.386 . S
C295 C294 1.386 . S
C295 C296 1.382 . S
C295 H317 0.950 . S
C296 N292 1.332 . S
C296 C295 1.382 . S
C296 H298 0.952 . S
C297 N292 1.332 . S
C297 C293 1.382 . S
C297 H299 0.948 . S
H298 C296 0.952 . S
H299 C297 0.948 . S
H300 C289 0.952 . S
H301 C291 0.948 . S
C302 C268 1.395 . S
C302 C272 1.391 . S
C303 C265 1.389 . S
C303 C285 1.392 . S
C304 C275 1.392 . S
C304 C277 1.389 . S
C305 C280 1.395 . S
C305 C282 1.391 . S
H306 C266 0.951 . S
H307 C267 0.950 . S
H308 C273 0.949 . S
H309 C274 0.950 . S
H310 C278 0.951 . S
H311 C279 0.950 . S
H312 C283 0.949 . S
H313 C284 0.950 . S
H314 C288 0.950 . S
H315 C290 0.950 . S
H316 C293 0.950 . S
H317 C295 0.950 . S
C318 C319 1.443 . S
C318 N322 1.376 . S
C318 C356 1.389 . S
C319 C318 1.443 . S
C319 C320 1.340 . S
C319 H359 0.951 . S
C320 C319 1.340 . S
C320 C321 1.439 . S
C320 H360 0.950 . S
C321 C320 1.439 . S
C321 N322 1.374 . S
C321 C355 1.395 . S
N322 C318 1.376 . S
N322 C321 1.374 . S
N322 Co323 2.006 1_556 S
Co323 N322 2.006 1_554 S
Co323 N324 1.994 1_554 S
Co323 N329 2.011 . S
Co323 N334 1.995 . S
Co323 N339 2.284 . S
Co323 N345 2.281 1_554 S
N324 Co323 1.994 1_556 S
N324 C325 1.376 . S
N324 C328 1.383 1_556 S
C325 N324 1.376 . S
C325 C326 1.446 . S
C325 C355 1.391 . S
C326 C325 1.446 . S
C326 C327 1.339 1_556 S
C326 H361 0.949 . S
C327 C326 1.339 1_554 S
C327 C328 1.439 . S
C327 H362 0.950 . S
C328 N324 1.383 1_554 S
C328 C327 1.439 . S
C328 C357 1.392 . S
N329 Co323 2.011 . S
N329 C330 1.376 . S
N329 C333 1.374 . S
C330 N329 1.376 . S
C330 C331 1.443 . S
C330 C357 1.389 . S
C331 C330 1.443 . S
C331 C332 1.340 . S
C331 H363 0.951 . S
C332 C331 1.340 . S
C332 C333 1.439 . S
C332 H364 0.950 . S
C333 N329 1.374 . S
C333 C332 1.439 . S
C333 C358 1.395 . S
N334 Co323 1.995 . S
N334 C335 1.376 . S
N334 C338 1.383 1_554 S
C335 N334 1.376 . S
C335 C336 1.446 . S
C335 C358 1.391 . S
C336 C335 1.446 . S
C336 C337 1.339 1_554 S
C336 H365 0.949 . S
C337 C336 1.339 1_556 S
C337 C338 1.439 . S
C337 H366 0.950 . S
C338 N334 1.383 1_556 S
C338 C337 1.439 . S
C338 C356 1.392 . S
N339 Co323 2.284 . S
N339 C342 1.332 . S
N339 C344 1.332 . S
C340 C341 1.386 . S
C340 C343 1.388 . S
C341 C340 1.386 . S
C341 C342 1.382 . S
C341 H367 0.950 . S
C342 N339 1.332 . S
C342 C341 1.382 . S
C342 H353 0.952 . S
C343 C340 1.388 . S
C343 C344 1.382 . S
C343 H368 0.950 . S
C344 N339 1.332 . S
C344 C343 1.382 . S
C344 H354 0.948 . S
N345 Co323 2.281 1_556 S
N345 C349 1.332 . S
N345 C350 1.332 . S
C346 C347 1.388 . S
C346 C350 1.382 . S
C346 H369 0.950 . S
C347 C346 1.388 . S
C347 C348 1.386 . S
C348 C347 1.386 . S
C348 C349 1.382 . S
C348 H370 0.950 . S
C349 N345 1.332 . S
C349 C348 1.382 . S
C349 H351 0.952 . S
C350 N345 1.332 . S
C350 C346 1.382 . S
C350 H352 0.948 . S
H351 C349 0.952 . S
H352 C350 0.948 . S
H353 C342 0.952 . S
H354 C344 0.948 . S
C355 C321 1.395 . S
C355 C325 1.391 . S
C356 C318 1.389 . S
C356 C338 1.392 . S
C357 C328 1.392 . S
C357 C330 1.389 . S
C358 C333 1.395 . S
C358 C335 1.391 . S
H359 C319 0.951 . S
H360 C320 0.950 . S
H361 C326 0.949 . S
H362 C327 0.950 . S
H363 C331 0.951 . S
H364 C332 0.950 . S
H365 C336 0.949 . S
H366 C337 0.950 . S
H367 C341 0.950 . S
H368 C343 0.950 . S
H369 C346 0.950 . S
H370 C348 0.950 . S
C371 C372 1.443 . S
C371 N375 1.376 . S
C371 C409 1.389 . S
C372 C371 1.443 . S
C372 C373 1.340 . S
C372 H412 0.951 . S
C373 C372 1.340 . S
C373 C374 1.439 . S
C373 H413 0.950 . S
C374 C373 1.439 . S
C374 N375 1.374 . S
C374 C408 1.395 1_455 S
N375 C371 1.376 . S
N375 C374 1.374 . S
N375 Co376 2.008 . S
Co376 N375 2.008 . S
Co376 N377 1.995 1_455 S
Co376 N382 2.008 1_455 S
Co376 N387 1.995 . S
Co376 N392 2.282 . S
Co376 N398 2.282 1_455 S
N377 Co376 1.995 1_655 S
N377 C378 1.376 . S
N377 C381 1.383 . S
C378 N377 1.376 . S
C378 C379 1.446 . S
C378 C408 1.391 . S
C379 C378 1.446 . S
C379 C380 1.339 . S
C379 H414 0.949 . S
C380 C379 1.339 . S
C380 C381 1.439 . S
C380 H415 0.950 . S
C381 N377 1.383 . S
C381 C380 1.439 . S
C381 C410 1.392 . S
N382 Co376 2.008 1_655 S
N382 C383 1.376 . S
N382 C386 1.374 . S
C383 N382 1.376 . S
C383 C384 1.443 . S
C383 C410 1.389 . S
C384 C383 1.443 . S
C384 C385 1.340 . S
C384 H416 0.951 . S
C385 C384 1.340 . S
C385 C386 1.439 . S
C385 H417 0.950 . S
C386 N382 1.374 . S
C386 C385 1.439 . S
C386 C411 1.395 1_655 S
N387 Co376 1.995 . S
N387 C388 1.376 . S
N387 C391 1.383 . S
C388 N387 1.376 . S
C388 C389 1.446 . S
C388 C411 1.391 . S
C389 C388 1.446 . S
C389 C390 1.339 . S
C389 H418 0.949 . S
C390 C389 1.339 . S
C390 C391 1.439 . S
C390 H419 0.950 . S
C391 N387 1.383 . S
C391 C390 1.439 . S
C391 C409 1.392 . S
N392 Co376 2.282 . S
N392 C395 1.332 . S
N392 C397 1.332 . S
C393 C394 1.386 . S
C393 C396 1.388 . S
C394 C393 1.386 . S
C394 C395 1.382 . S
C394 H420 0.950 . S
C395 N392 1.332 . S
C395 C394 1.382 . S
C395 H406 0.952 . S
C396 C393 1.388 . S
C396 C397 1.382 . S
C396 H421 0.950 . S
C397 N392 1.332 . S
C397 C396 1.382 . S
C397 H407 0.948 . S
N398 Co376 2.282 1_655 S
N398 C402 1.332 . S
N398 C403 1.332 . S
C399 C400 1.388 . S
C399 C403 1.382 . S
C399 H422 0.950 . S
C400 C399 1.388 . S
C400 C401 1.386 . S
C401 C400 1.386 . S
C401 C402 1.382 . S
C401 H423 0.950 . S
C402 N398 1.332 . S
C402 C401 1.382 . S
C402 H404 0.952 . S
C403 N398 1.332 . S
C403 C399 1.382 . S
C403 H405 0.948 . S
H404 C402 0.952 . S
H405 C403 0.948 . S
H406 C395 0.952 . S
H407 C397 0.948 . S
C408 C374 1.395 1_655 S
C408 C378 1.391 . S
C409 C371 1.389 . S
C409 C391 1.392 . S
C410 C381 1.392 . S
C410 C383 1.389 . S
C411 C386 1.395 1_455 S
C411 C388 1.391 . S
H412 C372 0.951 . S
H413 C373 0.950 . S
H414 C379 0.949 . S
H415 C380 0.950 . S
H416 C384 0.951 . S
H417 C385 0.950 . S
H418 C389 0.949 . S
H419 C390 0.950 . S
H420 C394 0.950 . S
H421 C396 0.950 . S
H422 C399 0.950 . S
H423 C401 0.950 . S
H424 C432 0.929 . S
H425 C434 0.930 . S
H426 C436 0.930 . S
H427 C439 0.929 . S
H428 C442 0.930 . S
H429 C444 0.960 . S
H430 C444 0.960 . S
H431 C444 0.960 . S
C432 H424 0.929 . S
C432 C433 1.377 . S
C432 C434 1.384 . S
C433 C432 1.377 . S
C433 C439 1.390 . S
C434 H425 0.930 . S
C434 C432 1.384 . S
C434 C435 1.372 . S
C435 C434 1.372 . S
C435 C436 1.400 . S
C435 C440 1.490 . S
C436 H426 0.930 . S
C436 C435 1.400 . S
C436 C439 1.386 . S
H437 C453 0.930 . S
H438 C454 0.931 . S
C439 H427 0.929 . S
C439 C433 1.390 . S
C439 C436 1.386 . S
C440 C435 1.490 . S
C440 C442 1.395 . S
C440 C443 1.403 . S
H441 C447 0.930 . S
C442 H428 0.930 . S
C442 C440 1.395 . S
C442 C445 1.403 . S
C443 C440 1.403 . S
C443 C444 1.524 . S
C443 C447 1.400 . S
C444 H429 0.960 . S
C444 H430 0.960 . S
C444 H431 0.960 . S
C444 C443 1.524 . S
C445 C442 1.403 . S
C445 C446 1.392 . S
C445 C449 1.495 . S
C446 C445 1.392 . S
C446 C447 1.385 . S
C446 C448 1.478 . S
C447 H441 0.930 . S
C447 C443 1.400 . S
C447 C446 1.385 . S
C448 C446 1.478 . S
C448 C450 1.381 . S
C448 C454 1.383 . S
C449 C445 1.495 . S
C449 H455 0.959 . S
C449 H456 0.961 . S
C449 H457 0.960 . S
C450 C448 1.381 . S
C450 C451 1.394 . S
C450 H458 0.930 . S
C451 C450 1.394 . S
C451 C452 1.383 . S
C451 H459 0.929 . S
C452 C451 1.383 . S
C452 C453 1.377 . S
C453 H437 0.930 . S
C453 C452 1.377 . S
C453 C454 1.379 . S
C454 H438 0.931 . S
C454 C448 1.383 . S
C454 C453 1.379 . S
H455 C449 0.959 . S
H456 C449 0.961 . S
H457 C449 0.960 . S
H458 C450 0.930 . S
H459 C451 0.929 . S
H460 C468 0.929 . S
H461 C470 0.930 . S
H462 C472 0.930 . S
H463 C475 0.929 . S
H464 C478 0.930 . S
H465 C480 0.960 . S
H466 C480 0.960 . S
H467 C480 0.960 . S
C468 H460 0.929 . S
C468 C469 1.377 . S
C468 C470 1.384 . S
C469 C468 1.377 . S
C469 C475 1.390 . S
C470 H461 0.930 . S
C470 C468 1.384 . S
C470 C471 1.372 . S
C471 C470 1.372 . S
C471 C472 1.400 . S
C471 C476 1.490 . S
C472 H462 0.930 . S
C472 C471 1.400 . S
C472 C475 1.386 . S
H473 C489 0.930 . S
H474 C490 0.931 . S
C475 H463 0.929 . S
C475 C469 1.390 . S
C475 C472 1.386 . S
C476 C471 1.490 . S
C476 C478 1.395 . S
C476 C479 1.403 . S
H477 C483 0.930 . S
C478 H464 0.930 . S
C478 C476 1.395 . S
C478 C481 1.403 . S
C479 C476 1.403 . S
C479 C480 1.524 . S
C479 C483 1.400 . S
C480 H465 0.960 . S
C480 H466 0.960 . S
C480 H467 0.960 . S
C480 C479 1.524 . S
C481 C478 1.403 . S
C481 C482 1.392 . S
C481 C485 1.495 . S
C482 C481 1.392 . S
C482 C483 1.385 . S
C482 C484 1.478 . S
C483 H477 0.930 . S
C483 C479 1.400 . S
C483 C482 1.385 . S
C484 C482 1.478 . S
C484 C486 1.381 . S
C484 C490 1.383 . S
C485 C481 1.495 . S
C485 H491 0.959 . S
C485 H492 0.961 . S
C485 H493 0.960 . S
C486 C484 1.381 . S
C486 C487 1.394 . S
C486 H494 0.930 . S
C487 C486 1.394 . S
C487 C488 1.383 . S
C487 H495 0.929 . S
C488 C487 1.383 . S
C488 C489 1.377 . S
C489 H473 0.930 . S
C489 C488 1.377 . S
C489 C490 1.379 . S
C490 H474 0.931 . S
C490 C484 1.383 . S
C490 C489 1.379 . S
H491 C485 0.959 . S
H492 C485 0.961 . S
H493 C485 0.960 . S
H494 C486 0.930 . S
H495 C487 0.929 . S
H496 C504 0.929 . S
H497 C506 0.930 . S
H498 C508 0.930 . S
H499 C511 0.929 . S
H500 C514 0.930 . S
H501 C516 0.960 . S
H502 C516 0.960 . S
H503 C516 0.960 . S
C504 H496 0.929 . S
C504 C505 1.377 . S
C504 C506 1.384 . S
C505 C504 1.377 . S
C505 C511 1.390 . S
C506 H497 0.930 . S
C506 C504 1.384 . S
C506 C507 1.372 . S
C507 C506 1.372 . S
C507 C508 1.400 . S
C507 C512 1.490 . S
C508 H498 0.930 . S
C508 C507 1.400 . S
C508 C511 1.386 . S
H509 C525 0.930 . S
H510 C526 0.931 . S
C511 H499 0.929 . S
C511 C505 1.390 . S
C511 C508 1.386 . S
C512 C507 1.490 . S
C512 C514 1.395 . S
C512 C515 1.403 . S
H513 C519 0.930 . S
C514 H500 0.930 . S
C514 C512 1.395 . S
C514 C517 1.403 . S
C515 C512 1.403 . S
C515 C516 1.524 . S
C515 C519 1.400 . S
C516 H501 0.960 . S
C516 H502 0.960 . S
C516 H503 0.960 . S
C516 C515 1.524 . S
C517 C514 1.403 . S
C517 C518 1.392 . S
C517 C521 1.495 . S
C518 C517 1.392 . S
C518 C519 1.385 . S
C518 C520 1.478 . S
C519 H513 0.930 . S
C519 C515 1.400 . S
C519 C518 1.385 . S
C520 C518 1.478 . S
C520 C522 1.381 . S
C520 C526 1.383 . S
C521 C517 1.495 . S
C521 H527 0.959 . S
C521 H528 0.961 . S
C521 H529 0.960 . S
C522 C520 1.381 . S
C522 C523 1.394 . S
C522 H530 0.930 . S
C523 C522 1.394 . S
C523 C524 1.383 . S
C523 H531 0.929 . S
C524 C523 1.383 . S
C524 C525 1.377 . S
C525 H509 0.930 . S
C525 C524 1.377 . S
C525 C526 1.379 . S
C526 H510 0.931 . S
C526 C520 1.383 . S
C526 C525 1.379 . S
H527 C521 0.959 . S
H528 C521 0.961 . S
H529 C521 0.960 . S
H530 C522 0.930 . S
H531 C523 0.929 . S
H532 C540 0.929 . S
H533 C542 0.930 . S
H534 C544 0.930 . S
H535 C547 0.929 . S
H536 C550 0.930 . S
H537 C552 0.960 . S
H538 C552 0.960 . S
H539 C552 0.960 . S
C540 H532 0.929 . S
C540 C541 1.377 . S
C540 C542 1.384 . S
C541 C540 1.377 . S
C541 C547 1.390 . S
C542 H533 0.930 . S
C542 C540 1.384 . S
C542 C543 1.372 . S
C543 C542 1.372 . S
C543 C544 1.400 . S
C543 C548 1.490 . S
C544 H534 0.930 . S
C544 C543 1.400 . S
C544 C547 1.386 . S
H545 C561 0.930 . S
H546 C562 0.931 . S
C547 H535 0.929 . S
C547 C541 1.390 . S
C547 C544 1.386 . S
C548 C543 1.490 . S
C548 C550 1.395 . S
C548 C551 1.403 . S
H549 C555 0.930 . S
C550 H536 0.930 . S
C550 C548 1.395 . S
C550 C553 1.403 . S
C551 C548 1.403 . S
C551 C552 1.524 . S
C551 C555 1.400 . S
C552 H537 0.960 . S
C552 H538 0.960 . S
C552 H539 0.960 . S
C552 C551 1.524 . S
C553 C550 1.403 . S
C553 C554 1.392 . S
C553 C557 1.495 . S
C554 C553 1.392 . S
C554 C555 1.385 . S
C554 C556 1.478 . S
C555 H549 0.930 . S
C555 C551 1.400 . S
C555 C554 1.385 . S
C556 C554 1.478 . S
C556 C558 1.381 . S
C556 C562 1.383 . S
C557 C553 1.495 . S
C557 H563 0.959 . S
C557 H564 0.961 . S
C557 H565 0.960 . S
C558 C556 1.381 . S
C558 C559 1.394 . S
C558 H566 0.930 . S
C559 C558 1.394 . S
C559 C560 1.383 . S
C559 H567 0.929 . S
C560 C559 1.383 . S
C560 C561 1.377 . S
C561 H545 0.930 . S
C561 C560 1.377 . S
C561 C562 1.379 . S
C562 H546 0.931 . S
C562 C556 1.383 . S
C562 C561 1.379 . S
H563 C557 0.959 . S
H564 C557 0.961 . S
H565 C557 0.960 . S
H566 C558 0.930 . S
H567 C559 0.929 . S
H568 C576 0.929 . S
H569 C578 0.930 . S
H570 C580 0.930 . S
H571 C583 0.929 . S
H572 C586 0.930 . S
H573 C588 0.960 . S
H574 C588 0.960 . S
H575 C588 0.960 . S
C576 H568 0.929 . S
C576 C577 1.377 . S
C576 C578 1.384 . S
C577 C576 1.377 . S
C577 C583 1.390 . S
C578 H569 0.930 . S
C578 C576 1.384 . S
C578 C579 1.372 . S
C579 C578 1.372 . S
C579 C580 1.400 . S
C579 C584 1.490 . S
C580 H570 0.930 . S
C580 C579 1.400 . S
C580 C583 1.386 . S
H581 C597 0.930 . S
H582 C598 0.931 . S
C583 H571 0.929 . S
C583 C577 1.390 . S
C583 C580 1.386 . S
C584 C579 1.490 . S
C584 C586 1.395 . S
C584 C587 1.403 . S
H585 C591 0.930 . S
C586 H572 0.930 . S
C586 C584 1.395 . S
C586 C589 1.403 . S
C587 C584 1.403 . S
C587 C588 1.524 . S
C587 C591 1.400 . S
C588 H573 0.960 . S
C588 H574 0.960 . S
C588 H575 0.960 . S
C588 C587 1.524 . S
C589 C586 1.403 . S
C589 C590 1.392 . S
C589 C593 1.495 . S
C590 C589 1.392 . S
C590 C591 1.385 . S
C590 C592 1.478 . S
C591 H585 0.930 . S
C591 C587 1.400 . S
C591 C590 1.385 . S
C592 C590 1.478 . S
C592 C594 1.381 . S
C592 C598 1.383 . S
C593 C589 1.495 . S
C593 H599 0.959 . S
C593 H600 0.961 . S
C593 H601 0.960 . S
C594 C592 1.381 . S
C594 C595 1.394 . S
C594 H602 0.930 . S
C595 C594 1.394 . S
C595 C596 1.383 . S
C595 H603 0.929 . S
C596 C595 1.383 . S
C596 C597 1.377 . S
C597 H581 0.930 . S
C597 C596 1.377 . S
C597 C598 1.379 . S
C598 H582 0.931 . S
C598 C592 1.383 . S
C598 C597 1.379 . S
H599 C593 0.959 . S
H600 C593 0.961 . S
H601 C593 0.960 . S
H602 C594 0.930 . S
H603 C595 0.929 . S
H604 C612 0.929 . S
H605 C614 0.930 . S
H606 C616 0.930 . S
H607 C619 0.929 . S
H608 C622 0.930 . S
H609 C624 0.960 . S
H610 C624 0.960 . S
H611 C624 0.960 . S
C612 H604 0.929 . S
C612 C613 1.377 . S
C612 C614 1.384 . S
C613 C612 1.377 . S
C613 C619 1.390 . S
C614 H605 0.930 . S
C614 C612 1.384 . S
C614 C615 1.372 . S
C615 C614 1.372 . S
C615 C616 1.400 . S
C615 C620 1.490 . S
C616 H606 0.930 . S
C616 C615 1.400 . S
C616 C619 1.386 . S
H617 C633 0.930 . S
H618 C634 0.931 . S
C619 H607 0.929 . S
C619 C613 1.390 . S
C619 C616 1.386 . S
C620 C615 1.490 . S
C620 C622 1.395 . S
C620 C623 1.403 . S
H621 C627 0.930 . S
C622 H608 0.930 . S
C622 C620 1.395 . S
C622 C625 1.403 . S
C623 C620 1.403 . S
C623 C624 1.524 . S
C623 C627 1.400 . S
C624 H609 0.960 . S
C624 H610 0.960 . S
C624 H611 0.960 . S
C624 C623 1.524 . S
C625 C622 1.403 . S
C625 C626 1.392 . S
C625 C629 1.495 . S
C626 C625 1.392 . S
C626 C627 1.385 . S
C626 C628 1.478 . S
C627 H621 0.930 . S
C627 C623 1.400 . S
C627 C626 1.385 . S
C628 C626 1.478 . S
C628 C630 1.381 . S
C628 C634 1.383 . S
C629 C625 1.495 . S
C629 H635 0.959 . S
C629 H636 0.961 . S
C629 H637 0.960 . S
C630 C628 1.381 . S
C630 C631 1.394 . S
C630 H638 0.930 . S
C631 C630 1.394 . S
C631 C632 1.383 . S
C631 H639 0.929 . S
C632 C631 1.383 . S
C632 C633 1.377 . S
C633 H617 0.930 . S
C633 C632 1.377 . S
C633 C634 1.379 . S
C634 H618 0.931 . S
C634 C628 1.383 . S
C634 C633 1.379 . S
H635 C629 0.959 . S
H636 C629 0.961 . S
H637 C629 0.960 . S
H638 C630 0.930 . S
H639 C631 0.929 . S
H640 C648 0.929 . S
H641 C650 0.930 . S
H642 C652 0.930 . S
H643 C655 0.929 . S
H644 C658 0.930 . S
H645 C660 0.960 . S
H646 C660 0.960 . S
H647 C660 0.960 . S
C648 H640 0.929 . S
C648 C649 1.377 . S
C648 C650 1.384 . S
C649 C648 1.377 . S
C649 C655 1.390 . S
C650 H641 0.930 . S
C650 C648 1.384 . S
C650 C651 1.372 . S
C651 C650 1.372 . S
C651 C652 1.400 . S
C651 C656 1.490 . S
C652 H642 0.930 . S
C652 C651 1.400 . S
C652 C655 1.386 . S
H653 C669 0.930 . S
H654 C670 0.931 . S
C655 H643 0.929 . S
C655 C649 1.390 . S
C655 C652 1.386 . S
C656 C651 1.490 . S
C656 C658 1.395 . S
C656 C659 1.403 . S
H657 C663 0.930 . S
C658 H644 0.930 . S
C658 C656 1.395 . S
C658 C661 1.403 . S
C659 C656 1.403 . S
C659 C660 1.524 . S
C659 C663 1.400 . S
C660 H645 0.960 . S
C660 H646 0.960 . S
C660 H647 0.960 . S
C660 C659 1.524 . S
C661 C658 1.403 . S
C661 C662 1.392 . S
C661 C665 1.495 . S
C662 C661 1.392 . S
C662 C663 1.385 . S
C662 C664 1.478 . S
C663 H657 0.930 . S
C663 C659 1.400 . S
C663 C662 1.385 . S
C664 C662 1.478 . S
C664 C666 1.381 . S
C664 C670 1.383 . S
C665 C661 1.495 . S
C665 H671 0.959 . S
C665 H672 0.961 . S
C665 H673 0.960 . S
C666 C664 1.381 . S
C666 C667 1.394 . S
C666 H674 0.930 . S
C667 C666 1.394 . S
C667 C668 1.383 . S
C667 H675 0.929 . S
C668 C667 1.383 . S
C668 C669 1.377 . S
C669 H653 0.930 . S
C669 C668 1.377 . S
C669 C670 1.379 . S
C670 H654 0.931 . S
C670 C664 1.383 . S
C670 C669 1.379 . S
H671 C665 0.959 . S
H672 C665 0.961 . S
H673 C665 0.960 . S
H674 C666 0.930 . S
H675 C667 0.929 . S
H676 C684 0.929 . S
H677 C686 0.930 . S
H678 C688 0.930 . S
H679 C691 0.929 . S
H680 C694 0.930 . S
H681 C696 0.960 . S
H682 C696 0.960 . S
H683 C696 0.960 . S
C684 H676 0.929 . S
C684 C685 1.377 . S
C684 C686 1.384 . S
C685 C684 1.377 . S
C685 C691 1.390 . S
C686 H677 0.930 . S
C686 C684 1.384 . S
C686 C687 1.372 . S
C687 C686 1.372 . S
C687 C688 1.400 . S
C687 C692 1.490 . S
C688 H678 0.930 . S
C688 C687 1.400 . S
C688 C691 1.386 . S
H689 C705 0.930 . S
H690 C706 0.931 . S
C691 H679 0.929 . S
C691 C685 1.390 . S
C691 C688 1.386 . S
C692 C687 1.490 . S
C692 C694 1.395 . S
C692 C695 1.403 . S
H693 C699 0.930 . S
C694 H680 0.930 . S
C694 C692 1.395 . S
C694 C697 1.403 . S
C695 C692 1.403 . S
C695 C696 1.524 . S
C695 C699 1.400 . S
C696 H681 0.960 . S
C696 H682 0.960 . S
C696 H683 0.960 . S
C696 C695 1.524 . S
C697 C694 1.403 . S
C697 C698 1.392 . S
C697 C701 1.495 . S
C698 C697 1.392 . S
C698 C699 1.385 . S
C698 C700 1.478 . S
C699 H693 0.930 . S
C699 C695 1.400 . S
C699 C698 1.385 . S
C700 C698 1.478 . S
C700 C702 1.381 . S
C700 C706 1.383 . S
C701 C697 1.495 . S
C701 H707 0.959 . S
C701 H708 0.961 . S
C701 H709 0.960 . S
C702 C700 1.381 . S
C702 C703 1.394 . S
C702 H710 0.930 . S
C703 C702 1.394 . S
C703 C704 1.383 . S
C703 H711 0.929 . S
C704 C703 1.383 . S
C704 C705 1.377 . S
C705 H689 0.930 . S
C705 C704 1.377 . S
C705 C706 1.379 . S
C706 H690 0.931 . S
C706 C700 1.383 . S
C706 C705 1.379 . S
H707 C701 0.959 . S
H708 C701 0.961 . S
H709 C701 0.960 . S
H710 C702 0.930 . S
H711 C703 0.929 . S
H712 C720 0.929 . S
H713 C722 0.930 . S
H714 C724 0.930 . S
H715 C727 0.929 . S
H716 C730 0.930 . S
H717 C732 0.960 . S
H718 C732 0.960 . S
H719 C732 0.960 . S
C720 H712 0.929 . S
C720 C721 1.377 . S
C720 C722 1.384 . S
C721 C720 1.377 . S
C721 C727 1.390 . S
C722 H713 0.930 . S
C722 C720 1.384 . S
C722 C723 1.372 . S
C723 C722 1.372 . S
C723 C724 1.400 . S
C723 C728 1.490 . S
C724 H714 0.930 . S
C724 C723 1.400 . S
C724 C727 1.386 . S
H725 C741 0.930 . S
H726 C742 0.931 . S
C727 H715 0.929 . S
C727 C721 1.390 . S
C727 C724 1.386 . S
C728 C723 1.490 . S
C728 C730 1.395 . S
C728 C731 1.403 . S
H729 C735 0.930 . S
C730 H716 0.930 . S
C730 C728 1.395 . S
C730 C733 1.403 . S
C731 C728 1.403 . S
C731 C732 1.524 . S
C731 C735 1.400 . S
C732 H717 0.960 . S
C732 H718 0.960 . S
C732 H719 0.960 . S
C732 C731 1.524 . S
C733 C730 1.403 . S
C733 C734 1.392 . S
C733 C737 1.495 . S
C734 C733 1.392 . S
C734 C735 1.385 . S
C734 C736 1.478 . S
C735 H729 0.930 . S
C735 C731 1.400 . S
C735 C734 1.385 . S
C736 C734 1.478 . S
C736 C738 1.381 . S
C736 C742 1.383 . S
C737 C733 1.495 . S
C737 H743 0.959 . S
C737 H744 0.961 . S
C737 H745 0.960 . S
C738 C736 1.381 . S
C738 C739 1.394 . S
C738 H746 0.930 . S
C739 C738 1.394 . S
C739 C740 1.383 . S
C739 H747 0.929 . S
C740 C739 1.383 . S
C740 C741 1.377 . S
C741 H725 0.930 . S
C741 C740 1.377 . S
C741 C742 1.379 . S
C742 H726 0.931 . S
C742 C736 1.383 . S
C742 C741 1.379 . S
H743 C737 0.959 . S
H744 C737 0.961 . S
H745 C737 0.960 . S
H746 C738 0.930 . S
H747 C739 0.929 . S
H748 C756 0.929 . S
H749 C758 0.930 . S
H750 C760 0.930 . S
H751 C763 0.929 . S
H752 C766 0.930 . S
H753 C768 0.960 . S
H754 C768 0.960 . S
H755 C768 0.960 . S
C756 H748 0.929 . S
C756 C757 1.377 . S
C756 C758 1.384 . S
C757 C756 1.377 . S
C757 C763 1.390 . S
C758 H749 0.930 . S
C758 C756 1.384 . S
C758 C759 1.372 . S
C759 C758 1.372 . S
C759 C760 1.400 . S
C759 C764 1.490 . S
C760 H750 0.930 . S
C760 C759 1.400 . S
C760 C763 1.386 . S
H761 C777 0.930 . S
H762 C778 0.931 . S
C763 H751 0.929 . S
C763 C757 1.390 . S
C763 C760 1.386 . S
C764 C759 1.490 . S
C764 C766 1.395 . S
C764 C767 1.403 . S
H765 C771 0.930 . S
C766 H752 0.930 . S
C766 C764 1.395 . S
C766 C769 1.403 . S
C767 C764 1.403 . S
C767 C768 1.524 . S
C767 C771 1.400 . S
C768 H753 0.960 . S
C768 H754 0.960 . S
C768 H755 0.960 . S
C768 C767 1.524 . S
C769 C766 1.403 . S
C769 C770 1.392 . S
C769 C773 1.495 . S
C770 C769 1.392 . S
C770 C771 1.385 . S
C770 C772 1.478 . S
C771 H765 0.930 . S
C771 C767 1.400 . S
C771 C770 1.385 . S
C772 C770 1.478 . S
C772 C774 1.381 . S
C772 C778 1.383 . S
C773 C769 1.495 . S
C773 H779 0.959 . S
C773 H780 0.961 . S
C773 H781 0.960 . S
C774 C772 1.381 . S
C774 C775 1.394 . S
C774 H782 0.930 . S
C775 C774 1.394 . S
C775 C776 1.383 . S
C775 H783 0.929 . S
C776 C775 1.383 . S
C776 C777 1.377 . S
C777 H761 0.930 . S
C777 C776 1.377 . S
C777 C778 1.379 . S
C778 H762 0.931 . S
C778 C772 1.383 . S
C778 C777 1.379 . S
H779 C773 0.959 . S
H780 C773 0.961 . S
H781 C773 0.960 . S
H782 C774 0.930 . S
H783 C775 0.929 . S
H784 C792 0.929 . S
H785 C794 0.930 . S
H786 C796 0.930 . S
H787 C799 0.929 . S
H788 C802 0.930 . S
H789 C804 0.960 . S
H790 C804 0.960 . S
H791 C804 0.960 . S
C792 H784 0.929 . S
C792 C793 1.377 . S
C792 C794 1.384 . S
C793 C792 1.377 . S
C793 C799 1.390 . S
C794 H785 0.930 . S
C794 C792 1.384 . S
C794 C795 1.372 . S
C795 C794 1.372 . S
C795 C796 1.400 . S
C795 C800 1.490 . S
C796 H786 0.930 . S
C796 C795 1.400 . S
C796 C799 1.386 . S
H797 C813 0.930 . S
H798 C814 0.931 . S
C799 H787 0.929 . S
C799 C793 1.390 . S
C799 C796 1.386 . S
C800 C795 1.490 . S
C800 C802 1.395 . S
C800 C803 1.403 . S
H801 C807 0.930 . S
C802 H788 0.930 . S
C802 C800 1.395 . S
C802 C805 1.403 . S
C803 C800 1.403 . S
C803 C804 1.524 . S
C803 C807 1.400 . S
C804 H789 0.960 . S
C804 H790 0.960 . S
C804 H791 0.960 . S
C804 C803 1.524 . S
C805 C802 1.403 . S
C805 C806 1.392 . S
C805 C809 1.495 . S
C806 C805 1.392 . S
C806 C807 1.385 . S
C806 C808 1.478 . S
C807 H801 0.930 . S
C807 C803 1.400 . S
C807 C806 1.385 . S
C808 C806 1.478 . S
C808 C810 1.381 . S
C808 C814 1.383 . S
C809 C805 1.495 . S
C809 H815 0.959 . S
C809 H816 0.961 . S
C809 H817 0.960 . S
C810 C808 1.381 . S
C810 C811 1.394 . S
C810 H818 0.930 . S
C811 C810 1.394 . S
C811 C812 1.383 . S
C811 H819 0.929 . S
C812 C811 1.383 . S
C812 C813 1.377 . S
C813 H797 0.930 . S
C813 C812 1.377 . S
C813 C814 1.379 . S
C814 H798 0.931 . S
C814 C808 1.383 . S
C814 C813 1.379 . S
H815 C809 0.959 . S
H816 C809 0.961 . S
H817 C809 0.960 . S
H818 C810 0.930 . S
H819 C811 0.929 . S
H820 C828 0.929 . S
H821 C830 0.930 . S
H822 C832 0.930 . S
H823 C835 0.929 . S
H824 C838 0.930 . S
H825 C840 0.960 . S
H826 C840 0.960 . S
H827 C840 0.960 . S
C828 H820 0.929 . S
C828 C829 1.377 . S
C828 C830 1.384 . S
C829 C828 1.377 . S
C829 C835 1.390 . S
C830 H821 0.930 . S
C830 C828 1.384 . S
C830 C831 1.372 . S
C831 C830 1.372 . S
C831 C832 1.400 . S
C831 C836 1.490 . S
C832 H822 0.930 . S
C832 C831 1.400 . S
C832 C835 1.386 . S
H833 C849 0.930 . S
H834 C850 0.931 . S
C835 H823 0.929 . S
C835 C829 1.390 . S
C835 C832 1.386 . S
C836 C831 1.490 . S
C836 C838 1.395 . S
C836 C839 1.403 . S
H837 C843 0.930 . S
C838 H824 0.930 . S
C838 C836 1.395 . S
C838 C841 1.403 . S
C839 C836 1.403 . S
C839 C840 1.524 . S
C839 C843 1.400 . S
C840 H825 0.960 . S
C840 H826 0.960 . S
C840 H827 0.960 . S
C840 C839 1.524 . S
C841 C838 1.403 . S
C841 C842 1.392 . S
C841 C845 1.495 . S
C842 C841 1.392 . S
C842 C843 1.385 . S
C842 C844 1.478 . S
C843 H837 0.930 . S
C843 C839 1.400 . S
C843 C842 1.385 . S
C844 C842 1.478 . S
C844 C846 1.381 . S
C844 C850 1.383 . S
C845 C841 1.495 . S
C845 H851 0.959 . S
C845 H852 0.961 . S
C845 H853 0.960 . S
C846 C844 1.381 . S
C846 C847 1.394 . S
C846 H854 0.930 . S
C847 C846 1.394 . S
C847 C848 1.383 . S
C847 H855 0.929 . S
C848 C847 1.383 . S
C848 C849 1.377 . S
C849 H833 0.930 . S
C849 C848 1.377 . S
C849 C850 1.379 . S
C850 H834 0.931 . S
C850 C844 1.383 . S
C850 C849 1.379 . S
H851 C845 0.959 . S
H852 C845 0.961 . S
H853 C845 0.960 . S
H854 C846 0.930 . S
H855 C847 0.929 . S
H856 C864 0.929 . S
H857 C866 0.930 . S
H858 C868 0.930 . S
H859 C871 0.929 . S
H860 C874 0.930 . S
H861 C876 0.960 . S
H862 C876 0.960 . S
H863 C876 0.960 . S
C864 H856 0.929 . S
C864 C865 1.377 . S
C864 C866 1.384 . S
C865 C864 1.377 . S
C865 C871 1.390 . S
C866 H857 0.930 . S
C866 C864 1.384 . S
C866 C867 1.372 . S
C867 C866 1.372 . S
C867 C868 1.400 . S
C867 C872 1.490 . S
C868 H858 0.930 . S
C868 C867 1.400 . S
C868 C871 1.386 . S
H869 C885 0.930 . S
H870 C886 0.931 . S
C871 H859 0.929 . S
C871 C865 1.390 . S
C871 C868 1.386 . S
C872 C867 1.490 . S
C872 C874 1.395 . S
C872 C875 1.403 . S
H873 C879 0.930 . S
C874 H860 0.930 . S
C874 C872 1.395 . S
C874 C877 1.403 . S
C875 C872 1.403 . S
C875 C876 1.524 . S
C875 C879 1.400 . S
C876 H861 0.960 . S
C876 H862 0.960 . S
C876 H863 0.960 . S
C876 C875 1.524 . S
C877 C874 1.403 . S
C877 C878 1.392 . S
C877 C881 1.495 . S
C878 C877 1.392 . S
C878 C879 1.385 . S
C878 C880 1.478 . S
C879 H873 0.930 . S
C879 C875 1.400 . S
C879 C878 1.385 . S
C880 C878 1.478 . S
C880 C882 1.381 . S
C880 C886 1.383 . S
C881 C877 1.495 . S
C881 H887 0.959 . S
C881 H888 0.961 . S
C881 H889 0.960 . S
C882 C880 1.381 . S
C882 C883 1.394 . S
C882 H890 0.930 . S
C883 C882 1.394 . S
C883 C884 1.383 . S
C883 H891 0.929 . S
C884 C883 1.383 . S
C884 C885 1.377 . S
C885 H869 0.930 . S
C885 C884 1.377 . S
C885 C886 1.379 . S
C886 H870 0.931 . S
C886 C880 1.383 . S
C886 C885 1.379 . S
H887 C881 0.959 . S
H888 C881 0.961 . S
H889 C881 0.960 . S
H890 C882 0.930 . S
H891 C883 0.929 . S
H892 C900 0.929 . S
H893 C902 0.930 . S
H894 C904 0.930 . S
H895 C907 0.929 . S
H896 C910 0.930 . S
H897 C912 0.960 . S
H898 C912 0.960 . S
H899 C912 0.960 . S
C900 H892 0.929 . S
C900 C901 1.377 . S
C900 C902 1.384 . S
C901 C900 1.377 . S
C901 C907 1.390 . S
C902 H893 0.930 . S
C902 C900 1.384 . S
C902 C903 1.372 . S
C903 C902 1.372 . S
C903 C904 1.400 . S
C903 C908 1.490 . S
C904 H894 0.930 . S
C904 C903 1.400 . S
C904 C907 1.386 . S
H905 C921 0.930 . S
H906 C922 0.931 . S
C907 H895 0.929 . S
C907 C901 1.390 . S
C907 C904 1.386 . S
C908 C903 1.490 . S
C908 C910 1.395 . S
C908 C911 1.403 . S
H909 C915 0.930 . S
C910 H896 0.930 . S
C910 C908 1.395 . S
C910 C913 1.403 . S
C911 C908 1.403 . S
C911 C912 1.524 . S
C911 C915 1.400 . S
C912 H897 0.960 . S
C912 H898 0.960 . S
C912 H899 0.960 . S
C912 C911 1.524 . S
C913 C910 1.403 . S
C913 C914 1.392 . S
C913 C917 1.495 . S
C914 C913 1.392 . S
C914 C915 1.385 . S
C914 C916 1.478 . S
C915 H909 0.930 . S
C915 C911 1.400 . S
C915 C914 1.385 . S
C916 C914 1.478 . S
C916 C918 1.381 . S
C916 C922 1.383 . S
C917 C913 1.495 . S
C917 H923 0.959 . S
C917 H924 0.961 . S
C917 H925 0.960 . S
C918 C916 1.381 . S
C918 C919 1.394 . S
C918 H926 0.930 . S
C919 C918 1.394 . S
C919 C920 1.383 . S
C919 H927 0.929 . S
C920 C919 1.383 . S
C920 C921 1.377 . S
C921 H905 0.930 . S
C921 C920 1.377 . S
C921 C922 1.379 . S
C922 H906 0.931 . S
C922 C916 1.383 . S
C922 C921 1.379 . S
H923 C917 0.959 . S
H924 C917 0.961 . S
H925 C917 0.960 . S
H926 C918 0.930 . S
H927 C919 0.929 . S
H928 C936 0.929 . S
H929 C938 0.930 . S
H930 C940 0.930 . S
H931 C943 0.929 . S
H932 C946 0.930 . S
H933 C948 0.960 . S
H934 C948 0.960 . S
H935 C948 0.960 . S
C936 H928 0.929 . S
C936 C937 1.377 . S
C936 C938 1.384 . S
C937 C936 1.377 . S
C937 C943 1.390 . S
C938 H929 0.930 . S
C938 C936 1.384 . S
C938 C939 1.372 . S
C939 C938 1.372 . S
C939 C940 1.400 . S
C939 C944 1.490 . S
C940 H930 0.930 . S
C940 C939 1.400 . S
C940 C943 1.386 . S
H941 C957 0.930 . S
H942 C958 0.931 . S
C943 H931 0.929 . S
C943 C937 1.390 . S
C943 C940 1.386 . S
C944 C939 1.490 . S
C944 C946 1.395 . S
C944 C947 1.403 . S
H945 C951 0.930 . S
C946 H932 0.930 . S
C946 C944 1.395 . S
C946 C949 1.403 . S
C947 C944 1.403 . S
C947 C948 1.524 . S
C947 C951 1.400 . S
C948 H933 0.960 . S
C948 H934 0.960 . S
C948 H935 0.960 . S
C948 C947 1.524 . S
C949 C946 1.403 . S
C949 C950 1.392 . S
C949 C953 1.495 . S
C950 C949 1.392 . S
C950 C951 1.385 . S
C950 C952 1.478 . S
C951 H945 0.930 . S
C951 C947 1.400 . S
C951 C950 1.385 . S
C952 C950 1.478 . S
C952 C954 1.381 . S
C952 C958 1.383 . S
C953 C949 1.495 . S
C953 H959 0.959 . S
C953 H960 0.961 . S
C953 H961 0.960 . S
C954 C952 1.381 . S
C954 C955 1.394 . S
C954 H962 0.930 . S
C955 C954 1.394 . S
C955 C956 1.383 . S
C955 H963 0.929 . S
C956 C955 1.383 . S
C956 C957 1.377 . S
C957 H941 0.930 . S
C957 C956 1.377 . S
C957 C958 1.379 . S
C958 H942 0.931 . S
C958 C952 1.383 . S
C958 C957 1.379 . S
H959 C953 0.959 . S
H960 C953 0.961 . S
H961 C953 0.960 . S
H962 C954 0.930 . S
H963 C955 0.929 . S
H964 C972 0.929 . S
H965 C974 0.930 . S
H966 C976 0.930 . S
H967 C979 0.929 . S
H968 C982 0.930 . S
H969 C984 0.960 . S
H970 C984 0.960 . S
H971 C984 0.960 . S
C972 H964 0.929 . S
C972 C973 1.377 . S
C972 C974 1.384 . S
C973 C972 1.377 . S
C973 C979 1.390 . S
C974 H965 0.930 . S
C974 C972 1.384 . S
C974 C975 1.372 . S
C975 C974 1.372 . S
C975 C976 1.400 . S
C975 C980 1.490 . S
C976 H966 0.930 . S
C976 C975 1.400 . S
C976 C979 1.386 . S
H977 C993 0.930 . S
H978 C994 0.931 . S
C979 H967 0.929 . S
C979 C973 1.390 . S
C979 C976 1.386 . S
C980 C975 1.490 . S
C980 C982 1.395 . S
C980 C983 1.403 . S
H981 C987 0.930 . S
C982 H968 0.930 . S
C982 C980 1.395 . S
C982 C985 1.403 . S
C983 C980 1.403 . S
C983 C984 1.524 . S
C983 C987 1.400 . S
C984 H969 0.960 . S
C984 H970 0.960 . S
C984 H971 0.960 . S
C984 C983 1.524 . S
C985 C982 1.403 . S
C985 C986 1.392 . S
C985 C989 1.495 . S
C986 C985 1.392 . S
C986 C987 1.385 . S
C986 C988 1.478 . S
C987 H981 0.930 . S
C987 C983 1.400 . S
C987 C986 1.385 . S
C988 C986 1.478 . S
C988 C990 1.381 . S
C988 C994 1.383 . S
C989 C985 1.495 . S
C989 H995 0.959 . S
C989 H996 0.961 . S
C989 H997 0.960 . S
C990 C988 1.381 . S
C990 C991 1.394 . S
C990 H998 0.930 . S
C991 C990 1.394 . S
C991 C992 1.383 . S
C991 H999 0.929 . S
C992 C991 1.383 . S
C992 C993 1.377 . S
C993 H977 0.930 . S
C993 C992 1.377 . S
C993 C994 1.379 . S
C994 H978 0.931 . S
C994 C988 1.383 . S
C994 C993 1.379 . S
H995 C989 0.959 . S
H996 C989 0.961 . S
H997 C989 0.960 . S
H998 C990 0.930 . S
H999 C991 0.929 . S
C433 C22 1.564 . S
C452 C198 1.560 . S
C469 C38 1.596 . S
C488 C91 1.587 . S
C505 C128 1.396 . S
C524 C75 1.390 . S
C541 C188 1.464 . S
C560 C144 1.462 . S
C577 C29 1.563 . S
C596 C304 1.560 . S
C613 C39 1.598 . S
C632 C250 1.589 . S
C649 C234 1.395 . S
C668 C135 1.394 . S
C685 C145 1.464 . S
C704 C294 1.459 . S
C721 C347 1.521 . S
C740 C303 1.521 . S
C757 C251 1.638 . S
C776 C357 1.630 . S
C793 C241 1.533 . S
C812 C410 1.531 . S
C829 C287 1.333 . S
C848 C400 1.332 . S
C865 C340 1.520 . S
C884 C197 1.520 . S
C901 C92 1.638 . S
C920 C356 1.629 . S
C937 C82 1.534 . S
C956 C409 1.529 . S
C973 C181 1.332 . S
C992 C393 1.331 . S
