# Generated by pormake.
# Topology rho, (4)-cn, num edge types: 1
# Building blocks:
#     Node 0, Type 0, BuildingBlock: AZAVOO_clean_sbu_0, # of connection points: 4
#     Node 1, Type 0, BuildingBlock: AZAVOO_clean_sbu_0, # of connection points: 4
#     Node 2, Type 0, BuildingBlock: AZAVOO_clean_sbu_0, # of connection points: 4
#     Node 3, Type 0, BuildingBlock: AZAVOO_clean_sbu_0, # of connection points: 4
#     Node 4, Type 0, BuildingBlock: AZAVOO_clean_sbu_0, # of connection points: 4
#     Node 5, Type 0, BuildingBlock: AZAVOO_clean_sbu_0, # of connection points: 4
#     Node 6, Type 0, BuildingBlock: AZAVOO_clean_sbu_0, # of connection points: 4
#     Node 7, Type 0, BuildingBlock: AZAVOO_clean_sbu_0, # of connection points: 4
#     Node 8, Type 0, BuildingBlock: AZAVOO_clean_sbu_0, # of connection points: 4
#     Node 9, Type 0, BuildingBlock: AZAVOO_clean_sbu_0, # of connection points: 4
#     Node 10, Type 0, BuildingBlock: AZAVOO_clean_sbu_0, # of connection points: 4
#     Node 11, Type 0, BuildingBlock: AZAVOO_clean_sbu_0, # of connection points: 4
#     Node 12, Type 0, BuildingBlock: AZAVOO_clean_sbu_0, # of connection points: 4
#     Node 13, Type 0, BuildingBlock: AZAVOO_clean_sbu_0, # of connection points: 4
#     Node 14, Type 0, BuildingBlock: AZAVOO_clean_sbu_0, # of connection points: 4
#     Node 15, Type 0, BuildingBlock: AZAVOO_clean_sbu_0, # of connection points: 4
#     Node 16, Type 0, BuildingBlock: AZAVOO_clean_sbu_0, # of connection points: 4
#     Node 17, Type 0, BuildingBlock: AZAVOO_clean_sbu_0, # of connection points: 4
#     Node 18, Type 0, BuildingBlock: AZAVOO_clean_sbu_0, # of connection points: 4
#     Node 19, Type 0, BuildingBlock: AZAVOO_clean_sbu_0, # of connection points: 4
#     Node 20, Type 0, BuildingBlock: AZAVOO_clean_sbu_0, # of connection points: 4
#     Node 21, Type 0, BuildingBlock: AZAVOO_clean_sbu_0, # of connection points: 4
#     Node 22, Type 0, BuildingBlock: AZAVOO_clean_sbu_0, # of connection points: 4
#     Node 23, Type 0, BuildingBlock: AZAVOO_clean_sbu_0, # of connection points: 4
#     Node 24, Type 0, BuildingBlock: AZAVOO_clean_sbu_0, # of connection points: 4
#     Node 25, Type 0, BuildingBlock: AZAVOO_clean_sbu_0, # of connection points: 4
#     Node 26, Type 0, BuildingBlock: AZAVOO_clean_sbu_0, # of connection points: 4
#     Node 27, Type 0, BuildingBlock: AZAVOO_clean_sbu_0, # of connection points: 4
#     Node 28, Type 0, BuildingBlock: AZAVOO_clean_sbu_0, # of connection points: 4
#     Node 29, Type 0, BuildingBlock: AZAVOO_clean_sbu_0, # of connection points: 4
#     Node 30, Type 0, BuildingBlock: AZAVOO_clean_sbu_0, # of connection points: 4
#     Node 31, Type 0, BuildingBlock: AZAVOO_clean_sbu_0, # of connection points: 4
#     Node 32, Type 0, BuildingBlock: AZAVOO_clean_sbu_0, # of connection points: 4
#     Node 33, Type 0, BuildingBlock: AZAVOO_clean_sbu_0, # of connection points: 4
#     Node 34, Type 0, BuildingBlock: AZAVOO_clean_sbu_0, # of connection points: 4
#     Node 35, Type 0, BuildingBlock: AZAVOO_clean_sbu_0, # of connection points: 4
#     Node 36, Type 0, BuildingBlock: AZAVOO_clean_sbu_0, # of connection points: 4
#     Node 37, Type 0, BuildingBlock: AZAVOO_clean_sbu_0, # of connection points: 4
#     Node 38, Type 0, BuildingBlock: AZAVOO_clean_sbu_0, # of connection points: 4
#     Node 39, Type 0, BuildingBlock: AZAVOO_clean_sbu_0, # of connection points: 4
#     Node 40, Type 0, BuildingBlock: AZAVOO_clean_sbu_0, # of connection points: 4
#     Node 41, Type 0, BuildingBlock: AZAVOO_clean_sbu_0, # of connection points: 4
#     Node 42, Type 0, BuildingBlock: AZAVOO_clean_sbu_0, # of connection points: 4
#     Node 43, Type 0, BuildingBlock: AZAVOO_clean_sbu_0, # of connection points: 4
#     Node 44, Type 0, BuildingBlock: AZAVOO_clean_sbu_0, # of connection points: 4
#     Node 45, Type 0, BuildingBlock: AZAVOO_clean_sbu_0, # of connection points: 4
#     Node 46, Type 0, BuildingBlock: AZAVOO_clean_sbu_0, # of connection points: 4
#     Node 47, Type 0, BuildingBlock: AZAVOO_clean_sbu_0, # of connection points: 4
#     Edge 48, Type (0, 0), BuildingBlock: AJUNOK_clean_linker_0, # of connection points: 2
#     Edge 49, Type (0, 0), BuildingBlock: AJUNOK_clean_linker_0, # of connection points: 2
#     Edge 50, Type (0, 0), BuildingBlock: AJUNOK_clean_linker_0, # of connection points: 2
#     Edge 51, Type (0, 0), BuildingBlock: AJUNOK_clean_linker_0, # of connection points: 2
#     Edge 52, Type (0, 0), BuildingBlock: AJUNOK_clean_linker_0, # of connection points: 2
#     Edge 53, Type (0, 0), BuildingBlock: AJUNOK_clean_linker_0, # of connection points: 2
#     Edge 54, Type (0, 0), BuildingBlock: AJUNOK_clean_linker_0, # of connection points: 2
#     Edge 55, Type (0, 0), BuildingBlock: AJUNOK_clean_linker_0, # of connection points: 2
#     Edge 56, Type (0, 0), BuildingBlock: AJUNOK_clean_linker_0, # of connection points: 2
#     Edge 57, Type (0, 0), BuildingBlock: AJUNOK_clean_linker_0, # of connection points: 2
#     Edge 58, Type (0, 0), BuildingBlock: AJUNOK_clean_linker_0, # of connection points: 2
#     Edge 59, Type (0, 0), BuildingBlock: AJUNOK_clean_linker_0, # of connection points: 2
#     Edge 60, Type (0, 0), BuildingBlock: AJUNOK_clean_linker_0, # of connection points: 2
#     Edge 61, Type (0, 0), BuildingBlock: AJUNOK_clean_linker_0, # of connection points: 2
#     Edge 62, Type (0, 0), BuildingBlock: AJUNOK_clean_linker_0, # of connection points: 2
#     Edge 63, Type (0, 0), BuildingBlock: AJUNOK_clean_linker_0, # of connection points: 2
#     Edge 64, Type (0, 0), BuildingBlock: AJUNOK_clean_linker_0, # of connection points: 2
#     Edge 65, Type (0, 0), BuildingBlock: AJUNOK_clean_linker_0, # of connection points: 2
#     Edge 66, Type (0, 0), BuildingBlock: AJUNOK_clean_linker_0, # of connection points: 2
#     Edge 67, Type (0, 0), BuildingBlock: AJUNOK_clean_linker_0, # of connection points: 2
#     Edge 68, Type (0, 0), BuildingBlock: AJUNOK_clean_linker_0, # of connection points: 2
#     Edge 69, Type (0, 0), BuildingBlock: AJUNOK_clean_linker_0, # of connection points: 2
#     Edge 70, Type (0, 0), BuildingBlock: AJUNOK_clean_linker_0, # of connection points: 2
#     Edge 71, Type (0, 0), BuildingBlock: AJUNOK_clean_linker_0, # of connection points: 2
#     Edge 72, Type (0, 0), BuildingBlock: AJUNOK_clean_linker_0, # of connection points: 2
#     Edge 73, Type (0, 0), BuildingBlock: AJUNOK_clean_linker_0, # of connection points: 2
#     Edge 74, Type (0, 0), BuildingBlock: AJUNOK_clean_linker_0, # of connection points: 2
#     Edge 75, Type (0, 0), BuildingBlock: AJUNOK_clean_linker_0, # of connection points: 2
#     Edge 76, Type (0, 0), BuildingBlock: AJUNOK_clean_linker_0, # of connection points: 2
#     Edge 77, Type (0, 0), BuildingBlock: AJUNOK_clean_linker_0, # of connection points: 2
#     Edge 78, Type (0, 0), BuildingBlock: AJUNOK_clean_linker_0, # of connection points: 2
#     Edge 79, Type (0, 0), BuildingBlock: AJUNOK_clean_linker_0, # of connection points: 2
#     Edge 80, Type (0, 0), BuildingBlock: AJUNOK_clean_linker_0, # of connection points: 2
#     Edge 81, Type (0, 0), BuildingBlock: AJUNOK_clean_linker_0, # of connection points: 2
#     Edge 82, Type (0, 0), BuildingBlock: AJUNOK_clean_linker_0, # of connection points: 2
#     Edge 83, Type (0, 0), BuildingBlock: AJUNOK_clean_linker_0, # of connection points: 2
#     Edge 84, Type (0, 0), BuildingBlock: AJUNOK_clean_linker_0, # of connection points: 2
#     Edge 85, Type (0, 0), BuildingBlock: AJUNOK_clean_linker_0, # of connection points: 2
#     Edge 86, Type (0, 0), BuildingBlock: AJUNOK_clean_linker_0, # of connection points: 2
#     Edge 87, Type (0, 0), BuildingBlock: AJUNOK_clean_linker_0, # of connection points: 2
#     Edge 88, Type (0, 0), BuildingBlock: AJUNOK_clean_linker_0, # of connection points: 2
#     Edge 89, Type (0, 0), BuildingBlock: AJUNOK_clean_linker_0, # of connection points: 2
#     Edge 90, Type (0, 0), BuildingBlock: AJUNOK_clean_linker_0, # of connection points: 2
#     Edge 91, Type (0, 0), BuildingBlock: AJUNOK_clean_linker_0, # of connection points: 2
#     Edge 92, Type (0, 0), BuildingBlock: AJUNOK_clean_linker_0, # of connection points: 2
#     Edge 93, Type (0, 0), BuildingBlock: AJUNOK_clean_linker_0, # of connection points: 2
#     Edge 94, Type (0, 0), BuildingBlock: AJUNOK_clean_linker_0, # of connection points: 2
#     Edge 95, Type (0, 0), BuildingBlock: AJUNOK_clean_linker_0, # of connection points: 2
#     Edge 96, Type (0, 0), BuildingBlock: AJUNOK_clean_linker_0, # of connection points: 2
#     Edge 97, Type (0, 0), BuildingBlock: AJUNOK_clean_linker_0, # of connection points: 2
#     Edge 98, Type (0, 0), BuildingBlock: AJUNOK_clean_linker_0, # of connection points: 2
#     Edge 99, Type (0, 0), BuildingBlock: AJUNOK_clean_linker_0, # of connection points: 2
#     Edge 100, Type (0, 0), BuildingBlock: AJUNOK_clean_linker_0, # of connection points: 2
#     Edge 101, Type (0, 0), BuildingBlock: AJUNOK_clean_linker_0, # of connection points: 2
#     Edge 102, Type (0, 0), BuildingBlock: AJUNOK_clean_linker_0, # of connection points: 2
#     Edge 103, Type (0, 0), BuildingBlock: AJUNOK_clean_linker_0, # of connection points: 2
#     Edge 104, Type (0, 0), BuildingBlock: AJUNOK_clean_linker_0, # of connection points: 2
#     Edge 105, Type (0, 0), BuildingBlock: AJUNOK_clean_linker_0, # of connection points: 2
#     Edge 106, Type (0, 0), BuildingBlock: AJUNOK_clean_linker_0, # of connection points: 2
#     Edge 107, Type (0, 0), BuildingBlock: AJUNOK_clean_linker_0, # of connection points: 2
#     Edge 108, Type (0, 0), BuildingBlock: AJUNOK_clean_linker_0, # of connection points: 2
#     Edge 109, Type (0, 0), BuildingBlock: AJUNOK_clean_linker_0, # of connection points: 2
#     Edge 110, Type (0, 0), BuildingBlock: AJUNOK_clean_linker_0, # of connection points: 2
#     Edge 111, Type (0, 0), BuildingBlock: AJUNOK_clean_linker_0, # of connection points: 2
#     Edge 112, Type (0, 0), BuildingBlock: AJUNOK_clean_linker_0, # of connection points: 2
#     Edge 113, Type (0, 0), BuildingBlock: AJUNOK_clean_linker_0, # of connection points: 2
#     Edge 114, Type (0, 0), BuildingBlock: AJUNOK_clean_linker_0, # of connection points: 2
#     Edge 115, Type (0, 0), BuildingBlock: AJUNOK_clean_linker_0, # of connection points: 2
#     Edge 116, Type (0, 0), BuildingBlock: AJUNOK_clean_linker_0, # of connection points: 2
#     Edge 117, Type (0, 0), BuildingBlock: AJUNOK_clean_linker_0, # of connection points: 2
#     Edge 118, Type (0, 0), BuildingBlock: AJUNOK_clean_linker_0, # of connection points: 2
#     Edge 119, Type (0, 0), BuildingBlock: AJUNOK_clean_linker_0, # of connection points: 2
#     Edge 120, Type (0, 0), BuildingBlock: AJUNOK_clean_linker_0, # of connection points: 2
#     Edge 121, Type (0, 0), BuildingBlock: AJUNOK_clean_linker_0, # of connection points: 2
#     Edge 122, Type (0, 0), BuildingBlock: AJUNOK_clean_linker_0, # of connection points: 2
#     Edge 123, Type (0, 0), BuildingBlock: AJUNOK_clean_linker_0, # of connection points: 2
#     Edge 124, Type (0, 0), BuildingBlock: AJUNOK_clean_linker_0, # of connection points: 2
#     Edge 125, Type (0, 0), BuildingBlock: AJUNOK_clean_linker_0, # of connection points: 2
#     Edge 126, Type (0, 0), BuildingBlock: AJUNOK_clean_linker_0, # of connection points: 2
#     Edge 127, Type (0, 0), BuildingBlock: AJUNOK_clean_linker_0, # of connection points: 2
#     Edge 128, Type (0, 0), BuildingBlock: AJUNOK_clean_linker_0, # of connection points: 2
#     Edge 129, Type (0, 0), BuildingBlock: AJUNOK_clean_linker_0, # of connection points: 2
#     Edge 130, Type (0, 0), BuildingBlock: AJUNOK_clean_linker_0, # of connection points: 2
#     Edge 131, Type (0, 0), BuildingBlock: AJUNOK_clean_linker_0, # of connection points: 2
#     Edge 132, Type (0, 0), BuildingBlock: AJUNOK_clean_linker_0, # of connection points: 2
#     Edge 133, Type (0, 0), BuildingBlock: AJUNOK_clean_linker_0, # of connection points: 2
#     Edge 134, Type (0, 0), BuildingBlock: AJUNOK_clean_linker_0, # of connection points: 2
#     Edge 135, Type (0, 0), BuildingBlock: AJUNOK_clean_linker_0, # of connection points: 2
#     Edge 136, Type (0, 0), BuildingBlock: AJUNOK_clean_linker_0, # of connection points: 2
#     Edge 137, Type (0, 0), BuildingBlock: AJUNOK_clean_linker_0, # of connection points: 2
#     Edge 138, Type (0, 0), BuildingBlock: AJUNOK_clean_linker_0, # of connection points: 2
#     Edge 139, Type (0, 0), BuildingBlock: AJUNOK_clean_linker_0, # of connection points: 2
#     Edge 140, Type (0, 0), BuildingBlock: AJUNOK_clean_linker_0, # of connection points: 2
#     Edge 141, Type (0, 0), BuildingBlock: AJUNOK_clean_linker_0, # of connection points: 2
#     Edge 142, Type (0, 0), BuildingBlock: AJUNOK_clean_linker_0, # of connection points: 2
#     Edge 143, Type (0, 0), BuildingBlock: AJUNOK_clean_linker_0, # of connection points: 2
# Relax obj value: 0.210
# Max RMSD: 0.253
# Mean RMSD: 0.232
data_MOF--net-rho--node1-AZAVOO_clean_sbu_0--edge1-AJUNOK_clean_linker_0
_symmetry_space_group_name_H-M    P1
_symmetry_Int_Tables_number       1
_symmetry_cell_setting            triclinic
loop_
_symmetry_equiv_pos_as_xyz
'x, y, z'
_cell_length_a     53.135258
_cell_length_b     52.104779
_cell_length_c     52.059409
_cell_angle_alpha  90.126199
_cell_angle_beta   90.119867
_cell_angle_gamma 90.506625
loop_
_atom_site_label
_atom_site_type_symbol
_atom_site_fract_x
_atom_site_fract_y
_atom_site_fract_z
_atom_type_partial_charge
Mg0 Mg 0.10329 0.24773 0.43684 0.0
O1 O 0.06139 0.23979 0.42748 0.0
O2 O 0.05057 0.20505 0.45001 0.0
Mg3 Mg 0.08412 0.19089 0.47296 0.0
C4 C 0.04506 0.22302 0.43444 0.0
C5 C 0.12081 0.29484 0.40553 0.0
O6 O 0.13161 0.30009 0.42767 0.0
O7 O 0.11488 0.2147 0.41138 0.0
O8 O 0.10459 0.18084 0.43536 0.0
O9 O 0.09196 0.27166 0.47034 0.0
O10 O 0.09953 0.23006 0.47218 0.0
C11 C 0.11412 0.19054 0.41498 0.0
C12 C 0.09215 0.2506 0.48352 0.0
O13 O 0.10708 0.27488 0.40333 0.0
Mg14 Mg 0.75057 0.07069 0.37592 0.0
O15 O 0.73404 0.07435 0.41673 0.0
O16 O 0.70007 0.04881 0.41782 0.0
Mg17 Mg 0.69406 0.03004 0.37889 0.0
C18 C 0.71539 0.0644 0.42873 0.0
C19 C 0.78547 0.11401 0.36121 0.0
O20 O 0.7793 0.10255 0.33956 0.0
O21 O 0.71993 0.09568 0.35883 0.0
O22 O 0.68663 0.06919 0.36077 0.0
O23 O 0.77267 0.03695 0.38927 0.0
O24 O 0.73463 0.03445 0.37223 0.0
C25 C 0.69674 0.09065 0.35474 0.0
C26 C 0.7532 0.0231 0.3831 0.0
O27 O 0.776 0.10549 0.38194 0.0
Mg28 Mg 0.88503 0.74178 0.42304 0.0
O29 O 0.92603 0.75434 0.4162 0.0
O30 O 0.93373 0.78959 0.43942 0.0
Mg31 Mg 0.89774 0.79999 0.4605 0.0
C32 C 0.94087 0.77227 0.42377 0.0
C33 C 0.8818 0.69076 0.39218 0.0
O34 O 0.87598 0.68227 0.41518 0.0
O35 O 0.87167 0.77367 0.39694 0.0
O36 O 0.87887 0.80806 0.42158 0.0
O37 O 0.89696 0.71915 0.45729 0.0
O38 O 0.88524 0.75968 0.45875 0.0
C39 C 0.87093 0.79784 0.40069 0.0
C40 C 0.89376 0.73992 0.47056 0.0
O41 O 0.88694 0.71442 0.3892 0.0
Mg42 Mg 0.24463 0.92079 0.39273 0.0
O43 O 0.2606 0.91731 0.4341 0.0
O44 O 0.29363 0.94412 0.43587 0.0
Mg45 Mg 0.29935 0.96403 0.39751 0.0
C46 C 0.27883 0.92789 0.44643 0.0
C47 C 0.21501 0.87403 0.37525 0.0
O48 O 0.22457 0.88408 0.35426 0.0
O49 O 0.27662 0.89787 0.37513 0.0
O50 O 0.30839 0.92626 0.37727 0.0
O51 O 0.22096 0.95363 0.40613 0.0
O52 O 0.25918 0.95764 0.39006 0.0
C53 C 0.29935 0.90449 0.37054 0.0
C54 C 0.23998 0.96825 0.4004 0.0
O55 O 0.22024 0.88467 0.39666 0.0
Mg56 Mg 0.0961 0.78161 0.59833 0.0
O57 O 0.09368 0.76698 0.55622 0.0
O58 O 0.05884 0.74269 0.55415 0.0
Mg59 Mg 0.03815 0.74289 0.59228 0.0
C60 C 0.07849 0.75232 0.54376 0.0
C61 C 0.14731 0.80164 0.61427 0.0
O62 O 0.13712 0.79362 0.63582 0.0
O63 O 0.10832 0.74198 0.61313 0.0
O64 O 0.0709 0.72196 0.6105 0.0
O65 O 0.07188 0.81623 0.59014 0.0
O66 O 0.05788 0.77814 0.60226 0.0
C67 C 0.09415 0.72232 0.61671 0.0
C68 C 0.05318 0.80127 0.59583 0.0
O69 O 0.13581 0.79698 0.59333 0.0
Mg70 Mg 0.27618 0.1515 0.60619 0.0
O71 O 0.25994 0.11132 0.59929 0.0
O72 O 0.23038 0.11213 0.5688 0.0
Mg73 Mg 0.22712 0.15424 0.55653 0.0
C74 C 0.24366 0.09993 0.5851 0.0
C75 C 0.30257 0.1538 0.6592 0.0
O76 O 0.29543 0.17771 0.65631 0.0
O77 O 0.24088 0.16241 0.62886 0.0
O78 O 0.21307 0.16507 0.59649 0.0
O79 O 0.30352 0.14511 0.57381 0.0
O80 O 0.26573 0.1619 0.56958 0.0
C81 C 0.21888 0.1671 0.6202 0.0
C82 C 0.28594 0.15374 0.55898 0.0
O83 O 0.29663 0.13755 0.64196 0.0
Mg84 Mg 0.89438 0.20549 0.60633 0.0
O85 O 0.89663 0.22032 0.56458 0.0
O86 O 0.93051 0.24608 0.5631 0.0
Mg87 Mg 0.95151 0.24523 0.60119 0.0
C88 C 0.91104 0.23602 0.55265 0.0
C89 C 0.84241 0.18521 0.61989 0.0
O90 O 0.85197 0.19133 0.6424 0.0
O91 O 0.88138 0.24491 0.62073 0.0
O92 O 0.91831 0.26599 0.61882 0.0
O93 O 0.91904 0.17115 0.59829 0.0
O94 O 0.93248 0.20943 0.61071 0.0
C95 C 0.89493 0.265 0.62442 0.0
C96 C 0.93754 0.18634 0.60425 0.0
O97 O 0.85494 0.1906 0.59986 0.0
Mg98 Mg 0.71556 0.84137 0.5891 0.0
O99 O 0.72594 0.88391 0.58455 0.0
O100 O 0.75427 0.88905 0.55344 0.0
Mg101 Mg 0.76342 0.84866 0.53902 0.0
C102 C 0.73996 0.89831 0.57074 0.0
C103 C 0.67755 0.86674 0.62609 0.0
O104 O 0.67129 0.87746 0.60421 0.0
O105 O 0.75239 0.83417 0.61036 0.0
O106 O 0.7802 0.83926 0.57837 0.0
O107 O 0.68685 0.84512 0.55734 0.0
O108 O 0.72664 0.83425 0.55208 0.0
C109 C 0.7749 0.83458 0.60182 0.0
C110 C 0.70513 0.83917 0.5421 0.0
O111 O 0.69527 0.85055 0.62628 0.0
Mg112 Mg 0.39943 0.10193 0.24219 0.0
O113 O 0.38905 0.06063 0.23029 0.0
O114 O 0.40938 0.05398 0.1934 0.0
Mg115 Mg 0.43579 0.08757 0.18457 0.0
C116 C 0.3941 0.04664 0.21084 0.0
C117 C 0.35915 0.12662 0.27449 0.0
O118 O 0.3719 0.1461 0.26496 0.0
O119 O 0.37641 0.11935 0.20969 0.0
O120 O 0.40285 0.11433 0.17693 0.0
O121 O 0.43201 0.08905 0.26639 0.0
O122 O 0.43466 0.09873 0.2253 0.0
C123 C 0.38287 0.1238 0.18653 0.0
C124 C 0.4457 0.09139 0.24597 0.0
O125 O 0.3659 0.10403 0.26871 0.0
Mg126 Mg 0.89246 0.38529 0.24974 0.0
O127 O 0.89281 0.42863 0.26064 0.0
O128 O 0.91834 0.43193 0.29464 0.0
Mg129 Mg 0.93469 0.3934 0.3052 0.0
C130 C 0.90379 0.44202 0.27806 0.0
C131 C 0.86374 0.38104 0.20006 0.0
O132 O 0.88433 0.36775 0.19645 0.0
O133 O 0.86719 0.37371 0.28407 0.0
O134 O 0.89611 0.37757 0.3151 0.0
O135 O 0.92681 0.39159 0.22495 0.0
O136 O 0.92778 0.38073 0.26577 0.0
C137 C 0.87398 0.3715 0.30758 0.0
C138 C 0.93989 0.38657 0.24528 0.0
O139 O 0.85986 0.39091 0.22206 0.0
Mg140 Mg 0.58743 0.9094 0.23249 0.0
O141 O 0.59779 0.95082 0.22163 0.0
O142 O 0.57625 0.95793 0.18545 0.0
Mg143 Mg 0.54917 0.92484 0.17658 0.0
C144 C 0.5921 0.96504 0.20256 0.0
C145 C 0.62622 0.88136 0.26171 0.0
O146 O 0.61133 0.86397 0.25123 0.0
O147 O 0.60932 0.89327 0.19887 0.0
O148 O 0.58142 0.89759 0.16722 0.0
O149 O 0.55632 0.9219 0.25846 0.0
O150 O 0.55166 0.91367 0.21717 0.0
C151 C 0.60195 0.88852 0.17603 0.0
C152 C 0.54166 0.92044 0.23859 0.0
O153 O 0.62165 0.90491 0.2577 0.0
Mg154 Mg 0.13361 0.58054 0.25434 0.0
O155 O 0.09062 0.57981 0.2477 0.0
O156 O 0.08075 0.54716 0.22154 0.0
Mg157 Mg 0.11718 0.52799 0.20971 0.0
C158 C 0.07443 0.56632 0.23528 0.0
C159 C 0.13656 0.61947 0.29899 0.0
O160 O 0.14453 0.59822 0.30968 0.0
O161 O 0.13911 0.59933 0.21476 0.0
O162 O 0.12819 0.56556 0.19035 0.0
O163 O 0.1289 0.55128 0.28557 0.0
O164 O 0.13545 0.54161 0.24491 0.0
C165 C 0.13509 0.58897 0.19282 0.0
C166 C 0.13077 0.53398 0.26784 0.0
O167 O 0.13066 0.61916 0.27528 0.0
Mg168 Mg 0.38469 0.88769 0.76703 0.0
O169 O 0.3898 0.93023 0.77909 0.0
O170 O 0.41722 0.93096 0.81157 0.0
Mg171 Mg 0.4301 0.89051 0.82037 0.0
C172 C 0.40274 0.94249 0.79589 0.0
C173 C 0.34371 0.88334 0.72432 0.0
O174 O 0.35113 0.85937 0.7244 0.0
O175 O 0.35999 0.87767 0.80221 0.0
O176 O 0.39074 0.87799 0.83157 0.0
O177 O 0.41849 0.89118 0.74104 0.0
O178 O 0.41966 0.87882 0.78145 0.0
C179 C 0.36782 0.87409 0.82521 0.0
C180 C 0.43153 0.88381 0.76066 0.0
O181 O 0.35237 0.89884 0.74112 0.0
Mg182 Mg 0.1178 0.43429 0.70483 0.0
O183 O 0.0811 0.4239 0.72533 0.0
O184 O 0.073 0.44988 0.75827 0.0
Mg185 Mg 0.10832 0.47529 0.76111 0.0
C186 C 0.06705 0.43097 0.74381 0.0
C187 C 0.09334 0.39038 0.67319 0.0
O188 O 0.07575 0.40789 0.67173 0.0
O189 O 0.13932 0.41423 0.73602 0.0
O190 O 0.13084 0.43886 0.7702 0.0
O191 O 0.09719 0.46345 0.682 0.0
O192 O 0.11552 0.47127 0.71943 0.0
C193 C 0.14086 0.41916 0.75991 0.0
C194 C 0.10146 0.47909 0.70094 0.0
O195 O 0.1142 0.39632 0.68364 0.0
Mg196 Mg 0.63344 0.07548 0.76628 0.0
O197 O 0.59071 0.07573 0.75877 0.0
O198 O 0.58037 0.04297 0.73295 0.0
Mg199 Mg 0.61653 0.0229 0.72185 0.0
C200 C 0.57435 0.06246 0.74637 0.0
C201 C 0.63461 0.11616 0.81011 0.0
O202 O 0.6398 0.09506 0.82276 0.0
O203 O 0.64029 0.0935 0.72661 0.0
O204 O 0.62886 0.05991 0.70223 0.0
O205 O 0.62715 0.04652 0.79772 0.0
O206 O 0.63443 0.03647 0.7573 0.0
C207 C 0.63639 0.08312 0.70466 0.0
C208 C 0.62895 0.02908 0.7801 0.0
O209 O 0.63102 0.11482 0.78597 0.0
Mg210 Mg 0.86018 0.56335 0.70711 0.0
O211 O 0.89819 0.57233 0.72548 0.0
O212 O 0.90579 0.54754 0.75928 0.0
Mg213 Mg 0.86999 0.523 0.76384 0.0
C214 C 0.91241 0.56532 0.74383 0.0
C215 C 0.88595 0.60411 0.6731 0.0
O216 O 0.90213 0.58521 0.67205 0.0
O217 O 0.84128 0.58544 0.73911 0.0
O218 O 0.84832 0.55982 0.77289 0.0
O219 O 0.87801 0.53192 0.68428 0.0
O220 O 0.86096 0.52657 0.72257 0.0
C221 C 0.83935 0.58015 0.7629 0.0
C222 C 0.87338 0.5171 0.70369 0.0
O223 O 0.86514 0.60037 0.68451 0.0
Mg224 Mg 0.20619 0.35518 0.06963 0.0
O225 O 0.21756 0.39677 0.062 0.0
O226 O 0.23975 0.39989 0.02576 0.0
Mg227 Mg 0.24293 0.35895 0.01017 0.0
C228 C 0.22959 0.41008 0.04544 0.0
C229 C 0.19615 0.35322 0.12965 0.0
O230 O 0.20792 0.33122 0.12789 0.0
O231 O 0.24641 0.34689 0.08272 0.0
O232 O 0.26687 0.34908 0.04528 0.0
O233 O 0.17183 0.36103 0.04539 0.0
O234 O 0.20862 0.34748 0.03087 0.0
C235 C 0.26663 0.34548 0.06954 0.0
C236 C 0.18607 0.35492 0.02624 0.0
O237 O 0.19357 0.36682 0.10961 0.0
Mg238 Mg 0.23775 0.57719 0.85989 0.0
O239 O 0.21992 0.57813 0.89993 0.0
O240 O 0.18803 0.54997 0.90064 0.0
Mg241 Mg 0.18463 0.53168 0.86089 0.0
C242 C 0.2019 0.56684 0.91165 0.0
C243 C 0.26426 0.63128 0.85479 0.0
O244 O 0.25427 0.62977 0.83172 0.0
O245 O 0.2053 0.60054 0.84305 0.0
O246 O 0.1748 0.57071 0.84397 0.0
O247 O 0.26166 0.54453 0.87297 0.0
O248 O 0.22464 0.53969 0.8542 0.0
C249 C 0.18267 0.59329 0.83858 0.0
C250 C 0.24352 0.52946 0.8656 0.0
O251 O 0.26042 0.61305 0.87049 0.0
Mg252 Mg 0.3912 0.25254 0.92605 0.0
O253 O 0.4313 0.26599 0.91623 0.0
O254 O 0.43986 0.30143 0.93881 0.0
Mg255 Mg 0.40549 0.31066 0.96322 0.0
C256 C 0.44623 0.2843 0.9226 0.0
C257 C 0.38611 0.20136 0.897 0.0
O258 O 0.38082 0.19453 0.92067 0.0
O259 O 0.37486 0.2844 0.90165 0.0
O260 O 0.38236 0.31837 0.92681 0.0
O261 O 0.40572 0.22993 0.95922 0.0
O262 O 0.39356 0.27023 0.96176 0.0
C263 C 0.37297 0.30833 0.90645 0.0
C264 C 0.40294 0.25049 0.97289 0.0
O265 O 0.39134 0.22474 0.89236 0.0
Mg266 Mg 0.75557 0.41875 0.87661 0.0
O267 O 0.77013 0.41766 0.91848 0.0
O268 O 0.80089 0.44708 0.9214 0.0
Mg269 Mg 0.80759 0.46536 0.88238 0.0
C270 C 0.78667 0.43005 0.93155 0.0
C271 C 0.72631 0.36912 0.86257 0.0
O272 O 0.73523 0.37662 0.84027 0.0
O273 O 0.78967 0.39664 0.8619 0.0
O274 O 0.8198 0.42668 0.86602 0.0
O275 O 0.72997 0.4503 0.88864 0.0
O276 O 0.76825 0.45657 0.87326 0.0
C277 C 0.81251 0.40415 0.85962 0.0
C278 C 0.74848 0.46589 0.88385 0.0
O279 O 0.73229 0.382 0.88248 0.0
Mg280 Mg 0.59851 0.73443 0.93283 0.0
O281 O 0.55687 0.72682 0.9224 0.0
O282 O 0.54534 0.69189 0.9443 0.0
Mg283 Mg 0.5778 0.6783 0.9694 0.0
C284 C 0.54042 0.70986 0.92851 0.0
C285 C 0.61887 0.78019 0.90163 0.0
O286 O 0.63078 0.78349 0.92354 0.0
O287 O 0.611 0.70077 0.90857 0.0
O288 O 0.60126 0.66775 0.93397 0.0
O289 O 0.58694 0.75889 0.96601 0.0
O290 O 0.59372 0.71723 0.9683 0.0
C291 C 0.61138 0.67683 0.91363 0.0
C292 C 0.58714 0.73806 0.97956 0.0
O293 O 0.60349 0.76151 0.8992 0.0
Mg294 Mg 0.78423 0.65489 0.0856 0.0
O295 O 0.77225 0.61326 0.07904 0.0
O296 O 0.74907 0.60827 0.04364 0.0
Mg297 Mg 0.7441 0.649 0.02811 0.0
C298 C 0.75998 0.59903 0.06339 0.0
C299 C 0.81747 0.62652 0.12385 0.0
O300 O 0.82327 0.61684 0.10133 0.0
O301 O 0.74453 0.66269 0.1012 0.0
O302 O 0.72239 0.65817 0.06477 0.0
O303 O 0.8168 0.64916 0.05885 0.0
O304 O 0.77906 0.66214 0.04674 0.0
C305 C 0.72362 0.6625 0.0889 0.0
C306 C 0.80134 0.65502 0.04065 0.0
O307 O 0.80052 0.64362 0.12487 0.0
Mg308 Mg 0.3875 0.7179 0.1174 0.0
O309 O 0.39447 0.72943 0.0755 0.0
O310 O 0.42293 0.76102 0.07508 0.0
Mg311 Mg 0.43507 0.7692 0.11644 0.0
C312 C 0.40779 0.74583 0.06337 0.0
C313 C 0.33522 0.69123 0.11869 0.0
O314 O 0.33552 0.70214 0.14148 0.0
O315 O 0.36402 0.75425 0.1245 0.0
O316 O 0.39547 0.78321 0.12479 0.0
O317 O 0.42067 0.69051 0.1176 0.0
O318 O 0.42236 0.73121 0.1289 0.0
C319 C 0.3722 0.77731 0.12689 0.0
C320 C 0.43366 0.70977 0.12636 0.0
O321 O 0.35391 0.69457 0.10393 0.0
Mg322 Mg 0.59782 0.28392 0.09822 0.0
O323 O 0.59277 0.27084 0.05589 0.0
O324 O 0.56469 0.23873 0.05691 0.0
Mg325 Mg 0.55012 0.23259 0.09755 0.0
C326 C 0.58 0.25316 0.04464 0.0
C327 C 0.64624 0.31142 0.1089 0.0
O328 O 0.63955 0.30034 0.13051 0.0
O329 O 0.62072 0.24788 0.10785 0.0
O330 O 0.58913 0.21913 0.10907 0.0
O331 O 0.56498 0.31175 0.09679 0.0
O332 O 0.5625 0.27113 0.10788 0.0
C333 C 0.61235 0.22513 0.11173 0.0
C334 C 0.55158 0.29273 0.10528 0.0
O335 O 0.63267 0.30757 0.08911 0.0
Mg336 Mg 0.91497 0.76824 0.63684 0.0
O337 O 0.91225 0.75766 0.59412 0.0
O338 O 0.94749 0.73755 0.58258 0.0
Mg339 Mg 0.97277 0.73565 0.61802 0.0
C340 C 0.92578 0.74648 0.57728 0.0
C341 C 0.86749 0.79986 0.64467 0.0
O342 O 0.88534 0.8157 0.65241 0.0
O343 O 0.90745 0.72624 0.64669 0.0
O344 O 0.94358 0.70791 0.63541 0.0
O345 O 0.93295 0.80558 0.62584 0.0
O346 O 0.95368 0.76963 0.63351 0.0
C347 C 0.92127 0.70644 0.64443 0.0
C348 C 0.95386 0.79309 0.62574 0.0
O349 O 0.87339 0.77739 0.63752 0.0
Mg350 Mg 0.23997 0.94146 0.60853 0.0
O351 O 0.25718 0.93359 0.56908 0.0
O352 O 0.29184 0.95765 0.5654 0.0
Mg353 Mg 0.29558 0.98301 0.60139 0.0
C354 C 0.27643 0.94095 0.55641 0.0
C355 C 0.21583 0.88849 0.62239 0.0
O356 O 0.22764 0.89385 0.64395 0.0
O357 O 0.27128 0.92012 0.6296 0.0
O358 O 0.30261 0.94892 0.62786 0.0
O359 O 0.21749 0.97451 0.59206 0.0
O360 O 0.25522 0.97816 0.60915 0.0
C361 C 0.29322 0.92789 0.63619 0.0
C362 C 0.23655 0.98898 0.59814 0.0
O363 O 0.21665 0.90473 0.6042 0.0
Mg364 Mg 0.07265 0.22292 0.64852 0.0
O365 O 0.07321 0.23287 0.60556 0.0
O366 O 0.0362 0.25024 0.59497 0.0
Mg367 Mg 0.012 0.25086 0.63103 0.0
C368 C 0.05837 0.24301 0.58916 0.0
C369 C 0.12484 0.19896 0.66052 0.0
O370 O 0.1103 0.18352 0.67396 0.0
O371 O 0.07749 0.26565 0.657 0.0
O372 O 0.03995 0.28116 0.64607 0.0
O373 O 0.05691 0.18419 0.63849 0.0
O374 O 0.03412 0.21881 0.64623 0.0
C375 C 0.06243 0.28443 0.65425 0.0
C376 C 0.03526 0.19535 0.63848 0.0
O377 O 0.11491 0.21734 0.64824 0.0
Mg378 Mg 0.73899 0.0568 0.59569 0.0
O379 O 0.72733 0.06399 0.55402 0.0
O380 O 0.69209 0.04155 0.54692 0.0
Mg381 Mg 0.68199 0.01912 0.58317 0.0
C382 C 0.70941 0.05683 0.53925 0.0
C383 C 0.76659 0.10482 0.61465 0.0
O384 O 0.75369 0.09761 0.63492 0.0
O385 O 0.70753 0.08182 0.611 0.0
O386 O 0.6741 0.05618 0.60561 0.0
O387 O 0.76138 0.02256 0.58329 0.0
O388 O 0.72165 0.02099 0.59541 0.0
C389 C 0.68416 0.07699 0.61389 0.0
C390 C 0.74111 0.00911 0.58712 0.0
O391 O 0.76507 0.09132 0.59434 0.0
Mg392 Mg 0.89704 0.23619 0.38485 0.0
O393 O 0.89343 0.24373 0.42847 0.0
O394 O 0.92024 0.27583 0.43728 0.0
Mg395 Mg 0.93933 0.28962 0.4008 0.0
C396 C 0.9041 0.25905 0.44442 0.0
C397 C 0.86005 0.19664 0.36524 0.0
O398 O 0.87682 0.19934 0.34691 0.0
O399 O 0.87383 0.27136 0.37421 0.0
O400 O 0.90155 0.30246 0.38349 0.0
O401 O 0.92786 0.20947 0.39391 0.0
O402 O 0.93409 0.25062 0.3856 0.0
C403 C 0.88006 0.29505 0.37507 0.0
C404 C 0.94301 0.22905 0.3934 0.0
O405 O 0.86233 0.21047 0.38525 0.0
Mg406 Mg 0.72986 0.8569 0.38812 0.0
O407 O 0.73676 0.89941 0.39458 0.0
O408 O 0.7608 0.90671 0.42891 0.0
Mg409 Mg 0.76969 0.86695 0.44483 0.0
C410 C 0.7482 0.91478 0.40973 0.0
C411 C 0.69795 0.85054 0.33949 0.0
O412 O 0.69446 0.8283 0.35085 0.0
O413 O 0.76946 0.85292 0.37155 0.0
O414 O 0.79126 0.85852 0.40802 0.0
O415 O 0.69716 0.85679 0.41581 0.0
O416 O 0.73677 0.84919 0.42613 0.0
C417 C 0.79027 0.85429 0.38385 0.0
C418 C 0.71373 0.85105 0.43308 0.0
O419 O 0.71291 0.86667 0.3497 0.0
Mg420 Mg 0.08908 0.76296 0.37586 0.0
O421 O 0.09149 0.75117 0.4183 0.0
O422 O 0.06245 0.7209 0.42527 0.0
Mg423 Mg 0.04284 0.71165 0.38725 0.0
C424 C 0.07983 0.73594 0.4334 0.0
C425 C 0.13806 0.79451 0.36268 0.0
O426 O 0.13036 0.78921 0.33924 0.0
O427 O 0.10917 0.72683 0.3617 0.0
O428 O 0.07926 0.69717 0.36887 0.0
O429 O 0.05936 0.79053 0.38737 0.0
O430 O 0.05147 0.75088 0.37434 0.0
C431 C 0.10102 0.70369 0.36065 0.0
C432 C 0.04333 0.77195 0.38407 0.0
O433 O 0.12565 0.78554 0.38149 0.0
Mg434 Mg 0.25759 0.13551 0.40486 0.0
O435 O 0.25202 0.09266 0.41081 0.0
O436 O 0.22878 0.08464 0.44546 0.0
Mg437 Mg 0.21872 0.12391 0.4618 0.0
C438 C 0.24125 0.07696 0.42606 0.0
C439 C 0.28619 0.14557 0.35498 0.0
O440 O 0.28604 0.1684 0.36575 0.0
O441 O 0.21764 0.13815 0.38865 0.0
O442 O 0.19643 0.13149 0.42519 0.0
O443 O 0.29064 0.13618 0.43211 0.0
O444 O 0.25101 0.14255 0.44312 0.0
C445 C 0.19701 0.13583 0.40105 0.0
C446 C 0.27419 0.14093 0.44976 0.0
O447 O 0.27464 0.1273 0.36605 0.0
Mg448 Mg 0.58635 0.86643 0.76426 0.0
O449 O 0.59585 0.90804 0.77452 0.0
O450 O 0.57355 0.92072 0.80833 0.0
Mg451 Mg 0.54876 0.88656 0.8198 0.0
C452 C 0.58992 0.92511 0.79096 0.0
C453 C 0.61782 0.88205 0.71826 0.0
O454 O 0.59939 0.89867 0.71868 0.0
O455 O 0.60904 0.85181 0.79854 0.0
O456 O 0.58356 0.86361 0.83072 0.0
O457 O 0.55345 0.8782 0.73982 0.0
O458 O 0.5517 0.86966 0.78126 0.0
C459 C 0.60337 0.85266 0.82241 0.0
C460 C 0.54023 0.87596 0.76055 0.0
O461 O 0.61909 0.86562 0.73624 0.0
Mg462 Mg 0.05418 0.63321 0.74717 0.0
O463 O 0.06205 0.59327 0.73038 0.0
O464 O 0.03605 0.58551 0.69748 0.0
Mg465 Mg 0.01326 0.62171 0.6915 0.0
C466 C 0.05366 0.57859 0.71255 0.0
C467 C 0.10926 0.64212 0.77373 0.0
O468 O 0.11343 0.66103 0.75761 0.0
O469 O 0.07662 0.65104 0.71428 0.0
O470 O 0.05035 0.64254 0.68173 0.0
O471 O 0.02425 0.61596 0.77151 0.0
O472 O 0.01752 0.63094 0.73248 0.0
C473 C 0.0711 0.6517 0.69043 0.0
C474 C 0.0092 0.6185 0.75214 0.0
O475 O 0.08867 0.62955 0.77265 0.0
Mg476 Mg 0.42526 0.10819 0.76189 0.0
O477 O 0.41558 0.06705 0.77528 0.0
O478 O 0.44212 0.05825 0.80731 0.0
Mg479 Mg 0.46865 0.09227 0.81419 0.0
C480 C 0.424 0.05182 0.79242 0.0
C481 C 0.37868 0.13207 0.73651 0.0
O482 O 0.3891 0.15179 0.74834 0.0
O483 O 0.40719 0.12593 0.7974 0.0
O484 O 0.43574 0.11699 0.82768 0.0
O485 O 0.45382 0.09247 0.73466 0.0
O486 O 0.46216 0.10441 0.77446 0.0
C487 C 0.41529 0.12751 0.82047 0.0
C488 C 0.46988 0.09448 0.75332 0.0
O489 O 0.38876 0.11018 0.73894 0.0
Mg490 Mg 0.92533 0.36375 0.75037 0.0
O491 O 0.91465 0.40267 0.73343 0.0
O492 O 0.93944 0.41219 0.70023 0.0
Mg493 Mg 0.96497 0.37765 0.69453 0.0
C494 C 0.92151 0.41779 0.71546 0.0
C495 C 0.89224 0.36186 0.7991 0.0
O496 O 0.91468 0.35786 0.80887 0.0
O497 O 0.90433 0.34367 0.71765 0.0
O498 O 0.92989 0.35339 0.68498 0.0
O499 O 0.95507 0.38335 0.77414 0.0
O500 O 0.96142 0.36747 0.73531 0.0
C501 C 0.90997 0.34273 0.69384 0.0
C502 C 0.96998 0.38 0.75481 0.0
O503 O 0.89005 0.36457 0.77496 0.0
Mg504 Mg 0.59639 0.12905 0.23646 0.0
O505 O 0.60496 0.08801 0.22226 0.0
O506 O 0.58014 0.08155 0.18799 0.0
Mg507 Mg 0.55557 0.11629 0.18111 0.0
C508 C 0.59697 0.07398 0.20371 0.0
C509 C 0.62804 0.13674 0.28463 0.0
O510 O 0.60573 0.14487 0.29163 0.0
O511 O 0.61809 0.14701 0.20287 0.0
O512 O 0.59088 0.13934 0.17103 0.0
O513 O 0.5668 0.11293 0.26237 0.0
O514 O 0.5597 0.12474 0.22229 0.0
C515 C 0.61162 0.14873 0.17933 0.0
C516 C 0.55158 0.11399 0.24301 0.0
O517 O 0.6312 0.12933 0.26161 0.0
Mg518 Mg 0.92437 0.60955 0.25061 0.0
O519 O 0.91427 0.56742 0.26056 0.0
O520 O 0.93996 0.55666 0.29276 0.0
Mg521 Mg 0.96665 0.58973 0.30261 0.0
C522 C 0.92221 0.55123 0.27705 0.0
C523 C 0.88496 0.59918 0.2074 0.0
O524 O 0.90117 0.58078 0.20307 0.0
O525 O 0.90532 0.62433 0.28699 0.0
O526 O 0.93332 0.61314 0.31706 0.0
O527 O 0.95389 0.59607 0.22303 0.0
O528 O 0.96099 0.60473 0.26385 0.0
C529 C 0.91292 0.62402 0.3103 0.0
C530 C 0.9694 0.5966 0.24224 0.0
O531 O 0.88851 0.61378 0.22667 0.0
Mg532 Mg 0.39098 0.88228 0.23991 0.0
O533 O 0.38023 0.92336 0.22724 0.0
O534 O 0.40183 0.93035 0.19101 0.0
Mg535 Mg 0.4262 0.89617 0.18118 0.0
C536 C 0.38648 0.93769 0.2083 0.0
C537 C 0.36469 0.87137 0.29046 0.0
O538 O 0.38793 0.86398 0.29459 0.0
O539 O 0.36698 0.86352 0.20824 0.0
O540 O 0.39115 0.87144 0.17419 0.0
O541 O 0.42228 0.899 0.26323 0.0
O542 O 0.42609 0.88764 0.22251 0.0
C543 C 0.37151 0.86147 0.18426 0.0
C544 C 0.43577 0.89843 0.24261 0.0
O545 O 0.35885 0.88006 0.26846 0.0
Mg546 Mg 0.09395 0.36851 0.25938 0.0
O547 O 0.10297 0.41104 0.26671 0.0
O548 O 0.0774 0.4257 0.29722 0.0
Mg549 Mg 0.05168 0.39277 0.30949 0.0
C550 C 0.09524 0.42913 0.28119 0.0
C551 C 0.13195 0.37845 0.21598 0.0
O552 O 0.11496 0.39616 0.21186 0.0
O553 O 0.1134 0.35716 0.29676 0.0
O554 O 0.08552 0.37147 0.32558 0.0
O555 O 0.06354 0.37861 0.23092 0.0
O556 O 0.05797 0.37364 0.27256 0.0
C557 C 0.10598 0.36013 0.31992 0.0
C558 C 0.04856 0.37888 0.25049 0.0
O559 O 0.12944 0.36401 0.23544 0.0
Mg560 Mg 0.76293 0.63244 0.89453 0.0
O561 O 0.7594 0.58894 0.89972 0.0
O562 O 0.74209 0.58 0.93768 0.0
Mg563 Mg 0.73456 0.61842 0.95709 0.0
C564 C 0.75115 0.57285 0.91619 0.0
C565 C 0.79288 0.63591 0.84469 0.0
O566 O 0.80536 0.65178 0.85977 0.0
O567 O 0.72091 0.63408 0.88599 0.0
O568 O 0.70573 0.62578 0.92526 0.0
O569 O 0.80032 0.63333 0.91468 0.0
O570 O 0.76339 0.63775 0.93379 0.0
C571 C 0.70255 0.63057 0.9014 0.0
C572 C 0.78744 0.63625 0.93551 0.0
O573 O 0.77271 0.62569 0.85296 0.0
Mg574 Mg 0.74993 0.44262 0.09539 0.0
O575 O 0.7659 0.43416 0.05541 0.0
O576 O 0.80135 0.45685 0.0509 0.0
Mg577 Mg 0.80828 0.4798 0.08775 0.0
C578 C 0.78488 0.44114 0.04209 0.0
C579 C 0.72028 0.39422 0.11099 0.0
O580 O 0.73176 0.40061 0.13247 0.0
O581 O 0.77977 0.41842 0.11522 0.0
O582 O 0.81426 0.44302 0.11087 0.0
O583 O 0.72966 0.47684 0.07935 0.0
O584 O 0.7678 0.4779 0.09619 0.0
C585 C 0.80311 0.4229 0.11921 0.0
C586 C 0.74975 0.48988 0.08522 0.0
O587 O 0.72352 0.40827 0.09134 0.0
Mg588 Mg 0.58504 0.72878 0.14775 0.0
O589 O 0.57973 0.73288 0.10429 0.0
O590 O 0.54612 0.75698 0.09587 0.0
Mg591 Mg 0.53164 0.77095 0.13448 0.0
C592 C 0.56456 0.74332 0.08847 0.0
C593 C 0.62612 0.6903 0.12953 0.0
O594 O 0.60586 0.67796 0.12161 0.0
O595 O 0.60286 0.76886 0.1488 0.0
O596 O 0.56911 0.79228 0.13892 0.0
O597 O 0.55656 0.69625 0.14709 0.0
O598 O 0.54754 0.7371 0.15317 0.0
C599 C 0.59261 0.7903 0.14361 0.0
C600 C 0.53981 0.71391 0.15001 0.0
O601 O 0.62361 0.71147 0.14127 0.0
Mg602 Mg 0.23178 0.56687 0.07623 0.0
O603 O 0.2165 0.574 0.03549 0.0
O604 O 0.18194 0.5496 0.0316 0.0
Mg605 Mg 0.17513 0.52726 0.06851 0.0
C606 C 0.19778 0.56562 0.02236 0.0
C607 C 0.26099 0.61174 0.09669 0.0
O608 O 0.2498 0.60117 0.11657 0.0
O609 O 0.20101 0.59073 0.09463 0.0
O610 O 0.16806 0.56407 0.09164 0.0
O611 O 0.25421 0.53398 0.0611 0.0
O612 O 0.21562 0.53056 0.0764 0.0
C613 C 0.17808 0.58512 0.09931 0.0
C614 C 0.23458 0.51981 0.06565 0.0
O615 O 0.25736 0.60187 0.07464 0.0
Mg616 Mg 0.40218 0.27966 0.13829 0.0
O617 O 0.40745 0.2676 0.09619 0.0
O618 O 0.44066 0.2418 0.09279 0.0
Mg619 Mg 0.45436 0.23442 0.13347 0.0
C620 C 0.42256 0.25419 0.08272 0.0
C621 C 0.36303 0.31408 0.11128 0.0
O622 O 0.38382 0.32181 0.09994 0.0
O623 O 0.38312 0.24099 0.14656 0.0
O624 O 0.41628 0.21535 0.14134 0.0
O625 O 0.43102 0.31086 0.13168 0.0
O626 O 0.4396 0.27176 0.14527 0.0
C627 C 0.39287 0.21872 0.14554 0.0
C628 C 0.44759 0.29372 0.13742 0.0
O629 O 0.36437 0.29686 0.1284 0.0
Mg630 Mg 0.22408 0.36172 0.88066 0.0
O631 O 0.23 0.40526 0.88217 0.0
O632 O 0.24732 0.41681 0.91952 0.0
Mg633 Mg 0.2526 0.37988 0.94229 0.0
C634 C 0.2387 0.42243 0.89737 0.0
C635 C 0.19304 0.35653 0.83299 0.0
O636 O 0.18156 0.34164 0.84967 0.0
O637 O 0.26592 0.35645 0.87309 0.0
O638 O 0.28098 0.36703 0.91194 0.0
O639 O 0.18646 0.36514 0.89978 0.0
O640 O 0.22274 0.36049 0.92023 0.0
C641 C 0.28421 0.35965 0.88875 0.0
C642 C 0.19883 0.36385 0.92112 0.0
O643 O 0.21452 0.36567 0.83876 0.0
Mg644 Mg 0.59346 0.26785 0.87581 0.0
O645 O 0.59334 0.25707 0.91892 0.0
O646 O 0.5619 0.22887 0.92446 0.0
Mg647 Mg 0.5429 0.22046 0.88607 0.0
C648 C 0.57994 0.24259 0.93335 0.0
C649 C 0.64486 0.29329 0.86121 0.0
O650 O 0.63697 0.28512 0.83866 0.0
O651 O 0.61135 0.22957 0.86379 0.0
O652 O 0.57892 0.20263 0.87029 0.0
O653 O 0.56518 0.29798 0.88513 0.0
O654 O 0.55522 0.25853 0.87313 0.0
C655 C 0.6015 0.20708 0.86315 0.0
C656 C 0.54809 0.28042 0.88177 0.0
O657 O 0.63158 0.28819 0.88086 0.0
Mg658 Mg 0.39002 0.73341 0.89286 0.0
O659 O 0.39134 0.74082 0.93694 0.0
O660 O 0.42119 0.7708 0.9426 0.0
Mg661 Mg 0.43755 0.78328 0.90441 0.0
C662 C 0.40474 0.75529 0.9516 0.0
C663 C 0.3408 0.7095 0.87457 0.0
O664 O 0.34896 0.72276 0.85476 0.0
O665 O 0.36857 0.77049 0.88553 0.0
O666 O 0.39915 0.79944 0.89199 0.0
O667 O 0.41961 0.70403 0.89772 0.0
O668 O 0.42791 0.7448 0.89002 0.0
C669 C 0.37642 0.79368 0.88615 0.0
C670 C 0.43613 0.72231 0.89577 0.0
O671 O 0.35334 0.7106 0.89537 0.0
C672 C 0.12099 0.31894 0.33729 0.0
C673 C 0.11785 0.34548 0.34065 0.0
C674 C 0.12327 0.3027 0.35853 0.0
C675 C 0.12315 0.31257 0.38369 0.0
H676 H 0.11929 0.3104 0.31836 0.0
H677 H 0.12394 0.28216 0.35529 0.0
S678 S 0.11954 0.38113 0.40229 0.0
N679 N 0.11745 0.38124 0.37062 0.0
N680 N 0.12279 0.35076 0.41061 0.0
C681 C 0.12257 0.33929 0.38714 0.0
C682 C 0.11966 0.35576 0.36555 0.0
C683 C 0.65594 0.11169 0.34608 0.0
C684 C 0.68137 0.10848 0.33964 0.0
C685 C 0.63914 0.12298 0.32885 0.0
C686 C 0.6471 0.13074 0.30429 0.0
H687 H 0.64871 0.10418 0.36404 0.0
H688 H 0.61945 0.12382 0.33412 0.0
S689 S 0.71241 0.12938 0.27943 0.0
N690 N 0.71437 0.1165 0.30832 0.0
N691 N 0.68254 0.13704 0.27546 0.0
C692 C 0.67283 0.12927 0.29831 0.0
C693 C 0.69006 0.11832 0.31615 0.0
C694 C 0.8932 0.64746 0.37576 0.0
C695 C 0.88533 0.67263 0.37068 0.0
C696 C 0.90054 0.63114 0.35581 0.0
C697 C 0.89973 0.63917 0.33004 0.0
H698 H 0.89513 0.64081 0.39536 0.0
H699 H 0.90792 0.61244 0.36067 0.0
S700 S 0.87707 0.70198 0.30639 0.0
N701 N 0.87472 0.70399 0.33796 0.0
N702 N 0.88806 0.67304 0.30035 0.0
C703 C 0.89002 0.66356 0.32456 0.0
C704 C 0.88298 0.68039 0.34494 0.0
C705 C 0.35679 0.88024 0.33669 0.0
C706 C 0.34717 0.87404 0.31224 0.0
C707 C 0.3408 0.88799 0.35653 0.0
C708 C 0.31464 0.88909 0.3528 0.0
H709 H 0.37691 0.88094 0.34004 0.0
H710 H 0.34907 0.8946 0.37443 0.0
S711 S 0.27986 0.87073 0.29362 0.0
N712 N 0.30978 0.86672 0.2862 0.0
N713 N 0.27959 0.88056 0.3238 0.0
C714 C 0.30462 0.88061 0.32921 0.0
C715 C 0.32096 0.87331 0.3088 0.0
C716 C 0.08627 0.65896 0.64593 0.0
C717 C 0.08746 0.66567 0.6721 0.0
C718 C 0.09357 0.6764 0.62692 0.0
C719 C 0.10205 0.70118 0.63349 0.0
H720 H 0.0773 0.64115 0.63999 0.0
H721 H 0.08931 0.67174 0.60707 0.0
S722 S 0.11538 0.72535 0.69911 0.0
N723 N 0.10315 0.69645 0.70361 0.0
N724 N 0.11658 0.72944 0.66768 0.0
C725 C 0.1073 0.70646 0.65944 0.0
C726 C 0.09991 0.68864 0.67891 0.0
C727 C 0.32903 0.16613 0.6971 0.0
C728 C 0.31974 0.14681 0.68061 0.0
C729 C 0.34737 0.1609 0.71566 0.0
C730 C 0.35723 0.13609 0.71863 0.0
H731 H 0.32269 0.18574 0.69522 0.0
H732 H 0.35432 0.1767 0.72731 0.0
S733 S 0.33726 0.07794 0.68224 0.0
N734 N 0.32032 0.1013 0.66988 0.0
N735 N 0.35479 0.09146 0.70482 0.0
C736 C 0.34721 0.11626 0.70316 0.0
C737 C 0.3285 0.12161 0.68416 0.0
C738 C 0.89234 0.31144 0.63159 0.0
C739 C 0.88559 0.28664 0.63967 0.0
C740 C 0.89712 0.33093 0.64948 0.0
C741 C 0.89535 0.32617 0.67602 0.0
H742 H 0.89702 0.31493 0.61163 0.0
H743 H 0.90477 0.34898 0.64257 0.0
S744 S 0.87164 0.26632 0.70627 0.0
N745 N 0.87216 0.25979 0.67521 0.0
N746 N 0.88108 0.2965 0.70909 0.0
C747 C 0.8847 0.3027 0.68402 0.0
C748 C 0.87976 0.28284 0.66568 0.0
C749 C 0.66694 0.85705 0.67189 0.0
C750 C 0.66349 0.87243 0.64999 0.0
C751 C 0.65274 0.86087 0.6942 0.0
C752 C 0.63464 0.88036 0.6956 0.0
H753 H 0.68025 0.84142 0.67165 0.0
H754 H 0.65561 0.84799 0.71023 0.0
S755 S 0.62018 0.92771 0.64445 0.0
N756 N 0.64173 0.90902 0.63169 0.0
N757 N 0.61548 0.9166 0.67372 0.0
C758 C 0.63183 0.89668 0.67425 0.0
C759 C 0.64611 0.8926 0.65142 0.0
C760 C 0.33526 0.15591 0.3033 0.0
C761 C 0.33862 0.13116 0.2931 0.0
C762 C 0.31755 0.16052 0.32256 0.0
C763 C 0.30239 0.14059 0.33239 0.0
H764 H 0.34691 0.17183 0.29694 0.0
H765 H 0.31632 0.17979 0.33029 0.0
S766 S 0.30148 0.07288 0.30981 0.0
N767 N 0.32369 0.08687 0.29255 0.0
N768 N 0.29029 0.09551 0.32874 0.0
C769 C 0.30459 0.11597 0.32141 0.0
C770 C 0.32274 0.11126 0.3018 0.0
C771 C 0.8661 0.34004 0.36955 0.0
C772 C 0.86485 0.31435 0.36129 0.0
C773 C 0.86311 0.3602 0.35208 0.0
C774 C 0.85961 0.35522 0.3257 0.0
H775 H 0.87245 0.34458 0.38884 0.0
H776 H 0.86769 0.37949 0.35851 0.0
S777 S 0.84624 0.29171 0.29638 0.0
N778 N 0.85271 0.28529 0.32673 0.0
N779 N 0.84788 0.32327 0.29372 0.0
C780 C 0.85335 0.32998 0.31835 0.0
C781 C 0.85604 0.30939 0.33625 0.0
C782 C 0.66294 0.84112 0.30884 0.0
C783 C 0.68199 0.85799 0.31742 0.0
C784 C 0.64552 0.84866 0.29023 0.0
C785 C 0.64635 0.87341 0.27954 0.0
H786 H 0.6609 0.82215 0.31708 0.0
H787 H 0.63078 0.83518 0.28487 0.0
S788 S 0.69457 0.92368 0.29258 0.0
N789 N 0.70222 0.89977 0.31175 0.0
N790 N 0.66922 0.91392 0.27686 0.0
C791 C 0.66601 0.89007 0.28692 0.0
C792 C 0.68392 0.88235 0.3058 0.0
C793 C 0.12466 0.63849 0.34119 0.0
C794 C 0.1313 0.64214 0.31528 0.0
C795 C 0.11639 0.65897 0.35638 0.0
C796 C 0.11522 0.684 0.34649 0.0
H797 H 0.1245 0.61943 0.34947 0.0
H798 H 0.10995 0.65504 0.37572 0.0
S799 S 0.13304 0.7043 0.28074 0.0
N800 N 0.13777 0.673 0.28092 0.0
N801 N 0.12297 0.7117 0.30981 0.0
C802 C 0.12336 0.68825 0.32117 0.0
C803 C 0.13118 0.66725 0.30545 0.0
C804 C 0.33503 0.91901 0.69422 0.0
C805 C 0.33002 0.89366 0.70193 0.0
C806 C 0.32378 0.92928 0.67235 0.0
C807 C 0.30662 0.91486 0.65741 0.0
H808 H 0.34808 0.93102 0.70495 0.0
H809 H 0.3282 0.94904 0.66758 0.0
S810 S 0.28694 0.84744 0.66949 0.0
N811 N 0.30705 0.85409 0.69288 0.0
N812 N 0.28515 0.87375 0.65193 0.0
C813 C 0.30135 0.88942 0.66489 0.0
C814 C 0.31326 0.87874 0.68706 0.0
C815 C 0.06423 0.35732 0.65478 0.0
C816 C 0.08729 0.36326 0.66673 0.0
C817 C 0.05646 0.33187 0.65101 0.0
C818 C 0.07144 0.31114 0.65893 0.0
H819 H 0.05171 0.37244 0.64869 0.0
H820 H 0.03841 0.32853 0.64182 0.0
S821 S 0.13405 0.31622 0.6905 0.0
N822 N 0.12548 0.34625 0.68599 0.0
N823 N 0.11092 0.29838 0.67876 0.0
C824 C 0.09487 0.31676 0.67042 0.0
C825 C 0.1028 0.34279 0.6743 0.0
C826 C 0.68262 0.10117 0.65507 0.0
C827 C 0.66986 0.09186 0.63312 0.0
C828 C 0.6702 0.103 0.67877 0.0
C829 C 0.64477 0.09575 0.68089 0.0
H830 H 0.7029 0.10353 0.65493 0.0
H831 H 0.68137 0.10643 0.69589 0.0
S832 S 0.60123 0.08013 0.62738 0.0
N833 N 0.62911 0.08288 0.61364 0.0
N834 N 0.60583 0.08634 0.65817 0.0
C835 C 0.63095 0.09151 0.65824 0.0
C836 C 0.64353 0.08957 0.63422 0.0
C837 C 0.92704 0.65917 0.64996 0.0
C838 C 0.91123 0.68067 0.6516 0.0
C839 C 0.91842 0.63455 0.65626 0.0
C840 C 0.89357 0.6302 0.66453 0.0
H841 H 0.94644 0.66126 0.64391 0.0
H842 H 0.93161 0.61887 0.655 0.0
S843 S 0.84404 0.67965 0.67134 0.0
N844 N 0.86909 0.69579 0.66151 0.0
N845 N 0.8529 0.64944 0.67342 0.0
C846 C 0.87734 0.6514 0.66595 0.0
C847 C 0.88615 0.67661 0.6595 0.0
C848 C 0.31352 0.34467 0.06928 0.0
C849 C 0.29083 0.33911 0.08213 0.0
C850 C 0.33673 0.3372 0.07931 0.0
C851 C 0.33828 0.32364 0.10254 0.0
H852 H 0.31343 0.35464 0.05104 0.0
H853 H 0.35352 0.34152 0.0683 0.0
S854 S 0.28463 0.30578 0.14475 0.0
N855 N 0.27146 0.3204 0.12011 0.0
N856 N 0.31518 0.30617 0.13901 0.0
C857 C 0.31584 0.31864 0.11611 0.0
C858 C 0.29211 0.32646 0.10593 0.0
C859 C 0.30727 0.68932 0.84727 0.0
C860 C 0.31929 0.69133 0.87134 0.0
C861 C 0.28891 0.67046 0.84245 0.0
C862 C 0.28176 0.65272 0.86147 0.0
H863 H 0.31253 0.70196 0.83165 0.0
H864 H 0.28084 0.66937 0.82335 0.0
S865 S 0.30536 0.65146 0.92872 0.0
N866 N 0.32116 0.67522 0.91514 0.0
N867 N 0.28665 0.63977 0.90613 0.0
C868 C 0.2927 0.65527 0.88606 0.0
C869 C 0.31143 0.67456 0.89098 0.0
C870 C 0.33036 0.36329 0.89322 0.0
C871 C 0.30957 0.35066 0.88211 0.0
C872 C 0.35283 0.35028 0.89762 0.0
C873 C 0.35502 0.32405 0.89148 0.0
H874 H 0.32839 0.38246 0.90104 0.0
H875 H 0.36743 0.36008 0.9085 0.0
S876 S 0.30859 0.28507 0.85451 0.0
N877 N 0.29452 0.31281 0.85928 0.0
N878 N 0.33677 0.28806 0.86769 0.0
C879 C 0.33589 0.31264 0.8764 0.0
C880 C 0.31302 0.32606 0.87171 0.0
C881 C 0.68058 0.31704 0.84052 0.0
C882 C 0.66735 0.3105 0.86301 0.0
C883 C 0.70015 0.33525 0.84086 0.0
C884 C 0.70744 0.34781 0.8637 0.0
H885 H 0.6754 0.30855 0.82223 0.0
H886 H 0.70915 0.33996 0.82281 0.0
S887 S 0.68057 0.33593 0.92847 0.0
N888 N 0.66423 0.31678 0.90925 0.0
N889 N 0.701 0.35101 0.90987 0.0
C890 C 0.69518 0.34064 0.8866 0.0
C891 C 0.67518 0.32202 0.88626 0.0
C892 C 0.67213 0.66052 0.882 0.0
C893 C 0.67678 0.63657 0.89326 0.0
C894 C 0.64873 0.67233 0.88509 0.0
C895 C 0.62953 0.66047 0.89964 0.0
H896 H 0.68745 0.6716 0.87375 0.0
H897 H 0.64696 0.69206 0.87886 0.0
S898 S 0.62994 0.59358 0.92393 0.0
N899 N 0.65869 0.59849 0.91287 0.0
N900 N 0.61445 0.62032 0.91825 0.0
C901 C 0.6326 0.63455 0.90647 0.0
C902 C 0.65644 0.62269 0.90349 0.0
C903 C 0.6537 0.66334 0.10204 0.0
C904 C 0.65146 0.68134 0.12202 0.0
C905 C 0.67725 0.65672 0.09226 0.0
C906 C 0.6996 0.66754 0.10225 0.0
H907 H 0.63711 0.65498 0.09312 0.0
H908 H 0.67788 0.64339 0.07628 0.0
S909 S 0.70432 0.71364 0.15641 0.0
N910 N 0.67379 0.70853 0.15281 0.0
N911 N 0.71818 0.69575 0.13445 0.0
C912 C 0.69781 0.68447 0.12317 0.0
C913 C 0.67372 0.69149 0.13301 0.0
C914 C 0.29795 0.66437 0.13046 0.0
C915 C 0.31484 0.67297 0.11155 0.0
C916 C 0.2802 0.6451 0.12515 0.0
C917 C 0.27848 0.6337 0.10066 0.0
H918 H 0.29888 0.67195 0.14983 0.0
H919 H 0.26808 0.63876 0.14064 0.0
S920 S 0.3166 0.65128 0.04354 0.0
N921 N 0.32748 0.67004 0.06669 0.0
N922 N 0.29402 0.63379 0.05671 0.0
C923 C 0.29445 0.64295 0.08117 0.0
C924 C 0.31265 0.66257 0.08662 0.0
C925 C 0.68727 0.3678 0.08854 0.0
C926 C 0.70306 0.37168 0.10999 0.0
C927 C 0.66962 0.34765 0.08788 0.0
C928 C 0.66705 0.33058 0.10864 0.0
H929 H 0.68806 0.3808 0.07235 0.0
H930 H 0.65738 0.34599 0.07129 0.0
S931 S 0.70592 0.33045 0.16804 0.0
N932 N 0.71641 0.35535 0.15158 0.0
N933 N 0.68333 0.31755 0.15032 0.0
C934 C 0.68351 0.33351 0.12969 0.0
C935 C 0.70146 0.35404 0.13038 0.0
C936 C 0.61633 0.8092 0.83527 0.0
C937 C 0.61608 0.83563 0.84065 0.0
C938 C 0.61863 0.79123 0.8551 0.0
C939 C 0.62138 0.79917 0.88079 0.0
H940 H 0.61225 0.80229 0.81604 0.0
H941 H 0.61696 0.77101 0.85044 0.0
S942 S 0.62588 0.86634 0.90415 0.0
N943 N 0.6214 0.86897 0.87286 0.0
N944 N 0.62684 0.83524 0.9101 0.0
C945 C 0.62374 0.82556 0.88603 0.0
C946 C 0.62081 0.84382 0.86591 0.0
C947 C 0.13893 0.60615 0.82867 0.0
C948 C 0.16486 0.61033 0.82513 0.0
C949 C 0.12121 0.6177 0.81275 0.0
C950 C 0.12859 0.63393 0.79251 0.0
H951 H 0.13223 0.59295 0.84324 0.0
H952 H 0.10153 0.61302 0.81582 0.0
S953 S 0.1941 0.65366 0.77703 0.0
N954 N 0.19709 0.63375 0.80149 0.0
N955 N 0.16358 0.65564 0.77136 0.0
C956 C 0.15436 0.63984 0.78988 0.0
C957 C 0.17255 0.62801 0.80626 0.0
C958 C 0.40362 0.13868 0.86535 0.0
C959 C 0.40273 0.14459 0.83903 0.0
C960 C 0.39675 0.15674 0.88394 0.0
C961 C 0.38932 0.18159 0.87689 0.0
H962 H 0.41064 0.12028 0.87168 0.0
H963 H 0.39866 0.15162 0.904 0.0
S964 S 0.38136 0.20583 0.81045 0.0
N965 N 0.39164 0.17623 0.80674 0.0
N966 N 0.37926 0.21046 0.84177 0.0
C967 C 0.38703 0.18731 0.85061 0.0
C968 C 0.39355 0.16871 0.83164 0.0
C969 C 0.87552 0.37766 0.84085 0.0
C970 C 0.87079 0.36768 0.81617 0.0
C971 C 0.85606 0.38783 0.8557 0.0
C972 C 0.83111 0.38777 0.84672 0.0
H973 H 0.89458 0.37919 0.84814 0.0
H974 H 0.86076 0.3969 0.87387 0.0
S975 S 0.80823 0.36066 0.785 0.0
N976 N 0.83896 0.35611 0.78443 0.0
N977 N 0.80226 0.37471 0.81277 0.0
C978 C 0.82577 0.37598 0.82303 0.0
C979 C 0.84568 0.36608 0.80761 0.0
C980 C 0.62502 0.18033 0.11705 0.0
C981 C 0.62772 0.20596 0.12509 0.0
C982 C 0.62393 0.16043 0.13503 0.0
C983 C 0.62563 0.16565 0.16151 0.0
H984 H 0.61987 0.17606 0.09733 0.0
H985 H 0.61844 0.14146 0.1284 0.0
S986 S 0.64152 0.22845 0.19117 0.0
N987 N 0.63879 0.23467 0.16019 0.0
N988 N 0.63683 0.19721 0.19416 0.0
C989 C 0.63329 0.1904 0.1692 0.0
C990 C 0.63443 0.21068 0.15079 0.0
C991 C 0.8642 0.59056 0.16512 0.0
C992 C 0.8651 0.60484 0.18807 0.0
C993 C 0.84809 0.59728 0.14499 0.0
C994 C 0.83195 0.61848 0.14689 0.0
H995 H 0.87667 0.57448 0.1622 0.0
H996 H 0.8488 0.58601 0.1275 0.0
S997 S 0.82488 0.66066 0.20393 0.0
N998 N 0.84687 0.6401 0.21233 0.0
N999 N 0.81643 0.65261 0.17443 0.0
C1000 C 0.83158 0.63215 0.17024 0.0
C1001 C 0.84817 0.62537 0.19081 0.0
C1002 C 0.35074 0.79622 0.16395 0.0
C1003 C 0.35624 0.79759 0.13757 0.0
C1004 C 0.35141 0.81844 0.1793 0.0
C1005 C 0.35752 0.84244 0.16848 0.0
H1006 H 0.34995 0.77773 0.17342 0.0
H1007 H 0.35078 0.81617 0.19997 0.0
S1008 S 0.36387 0.85674 0.09912 0.0
N1009 N 0.36086 0.82518 0.10044 0.0
N1010 N 0.3617 0.86701 0.12907 0.0
C1011 C 0.3579 0.84443 0.14156 0.0
C1012 C 0.3573 0.82187 0.12607 0.0
C1013 C 0.16862 0.3834 0.15389 0.0
C1014 C 0.183 0.36082 0.15362 0.0
C1015 C 0.15318 0.3895 0.17471 0.0
C1016 C 0.15143 0.37333 0.19625 0.0
H1017 H 0.16853 0.39614 0.13748 0.0
H1018 H 0.14188 0.40666 0.17344 0.0
S1019 S 0.18784 0.31371 0.20681 0.0
N1020 N 0.19647 0.32354 0.17799 0.0
N1021 N 0.16741 0.33503 0.2172 0.0
C1022 C 0.16693 0.35154 0.19704 0.0
C1023 C 0.1827 0.34528 0.17573 0.0
C1024 C 0.78986 0.61038 0.80415 0.0
C1025 C 0.80432 0.62605 0.82077 0.0
C1026 C 0.80113 0.59671 0.78412 0.0
C1027 C 0.82714 0.59837 0.78008 0.0
H1028 H 0.76987 0.60768 0.80735 0.0
H1029 H 0.78967 0.58379 0.77259 0.0
S1030 S 0.87318 0.63819 0.81609 0.0
N1031 N 0.84596 0.64385 0.83018 0.0
N1032 N 0.86692 0.61778 0.79257 0.0
C1033 C 0.84162 0.61495 0.79539 0.0
C1034 C 0.83023 0.62902 0.8157 0.0
C1035 C 0.3594 0.86081 0.86961 0.0
C1036 C 0.35352 0.85778 0.84336 0.0
C1037 C 0.36358 0.83937 0.8852 0.0
C1038 C 0.36078 0.81439 0.87531 0.0
H1039 H 0.36518 0.87947 0.87687 0.0
H1040 H 0.3719 0.84235 0.904 0.0
S1041 S 0.33528 0.79686 0.81128 0.0
N1042 N 0.33765 0.82849 0.81065 0.0
N1043 N 0.34444 0.78814 0.84029 0.0
C1044 C 0.34942 0.81143 0.85105 0.0
C1045 C 0.34566 0.83331 0.835 0.0
C1046 C 0.19163 0.37988 0.79124 0.0
C1047 C 0.17873 0.36856 0.81199 0.0
C1048 C 0.17902 0.3955 0.7736 0.0
C1049 C 0.15336 0.40072 0.77665 0.0
H1050 H 0.21173 0.37732 0.78911 0.0
H1051 H 0.18961 0.40444 0.75821 0.0
S1052 S 0.11054 0.37455 0.82625 0.0
N1053 N 0.13829 0.36236 0.83327 0.0
N1054 N 0.11501 0.39239 0.80047 0.0
C1055 C 0.14003 0.38883 0.79656 0.0
C1056 C 0.15263 0.3725 0.81415 0.0
C1057 C 0.62146 0.13909 0.84993 0.0
C1058 C 0.62998 0.14032 0.82438 0.0
C1059 C 0.61381 0.1612 0.86302 0.0
C1060 C 0.61509 0.18547 0.85136 0.0
H1061 H 0.61939 0.12075 0.8595 0.0
H1062 H 0.60591 0.15917 0.88209 0.0
S1063 S 0.63849 0.19957 0.78583 0.0
N1064 N 0.64089 0.16809 0.78852 0.0
N1065 N 0.62715 0.20979 0.81352 0.0
C1066 C 0.62509 0.18725 0.82646 0.0
C1067 C 0.63234 0.16463 0.81285 0.0
C1068 C 0.82177 0.3928 0.18197 0.0
C1069 C 0.84737 0.38744 0.17805 0.0
C1070 C 0.80673 0.40206 0.16191 0.0
C1071 C 0.81701 0.40687 0.13751 0.0
H1072 H 0.8135 0.39057 0.20085 0.0
H1073 H 0.78742 0.40716 0.16602 0.0
S1074 S 0.88236 0.39427 0.11674 0.0
N1075 N 0.88177 0.38574 0.14727 0.0
N1076 N 0.85364 0.40408 0.10996 0.0
C1077 C 0.84219 0.40048 0.13301 0.0
C1078 C 0.85735 0.3905 0.1532 0.0
C1079 C 0.62191 0.84563 0.17762 0.0
C1080 C 0.61248 0.86596 0.16264 0.0
C1081 C 0.61898 0.82008 0.1695 0.0
C1082 C 0.6069 0.81444 0.14615 0.0
H1083 H 0.62819 0.84901 0.19716 0.0
H1084 H 0.62308 0.80487 0.183 0.0
S1085 S 0.58864 0.86088 0.09588 0.0
N1086 N 0.59803 0.8789 0.1203 0.0
N1087 N 0.59239 0.83086 0.10517 0.0
C1088 C 0.60213 0.83462 0.12906 0.0
C1089 C 0.60516 0.86052 0.13724 0.0
C1090 C 0.16752 0.60942 0.16556 0.0
C1091 C 0.14224 0.6021 0.16891 0.0
C1092 C 0.17868 0.60817 0.14117 0.0
C1093 C 0.16478 0.59937 0.11973 0.0
H1094 H 0.17955 0.61249 0.18214 0.0
H1095 H 0.19891 0.61057 0.13995 0.0
S1096 S 0.09603 0.5873 0.11755 0.0
N1097 N 0.10222 0.59291 0.14817 0.0
N1098 N 0.12313 0.5905 0.10235 0.0
C1099 C 0.13858 0.59687 0.12225 0.0
C1100 C 0.12727 0.59825 0.14696 0.0
C1101 C 0.38156 0.17367 0.13637 0.0
C1102 C 0.37794 0.19563 0.15156 0.0
C1103 C 0.3782 0.14913 0.14667 0.0
C1104 C 0.37185 0.14589 0.17271 0.0
H1105 H 0.38983 0.17542 0.11743 0.0
H1106 H 0.38408 0.13284 0.13525 0.0
S1107 S 0.35208 0.19745 0.21746 0.0
N1108 N 0.36128 0.2128 0.19133 0.0
N1109 N 0.35513 0.16658 0.21101 0.0
C1110 C 0.36359 0.16761 0.18642 0.0
C1111 C 0.36683 0.19267 0.17578 0.0
C1112 C 0.83946 0.83528 0.63109 0.0
C1113 C 0.84212 0.80967 0.6391 0.0
C1114 C 0.81678 0.84386 0.62061 0.0
C1115 C 0.79585 0.82737 0.6186 0.0
H1116 H 0.85547 0.8483 0.63119 0.0
H1117 H 0.81597 0.86313 0.61289 0.0
S1118 S 0.79205 0.75967 0.6398 0.0
N1119 N 0.8213 0.76858 0.64632 0.0
N1120 N 0.77831 0.78512 0.62735 0.0
C1121 C 0.7976 0.80239 0.62837 0.0
C1122 C 0.82087 0.79342 0.63846 0.0
C1123 C 0.82592 0.16978 0.38513 0.0
C1124 C 0.84012 0.17657 0.36334 0.0
C1125 C 0.80815 0.14972 0.38423 0.0
C1126 C 0.80372 0.13577 0.36144 0.0
H1127 H 0.82885 0.17967 0.40323 0.0
H1128 H 0.79794 0.14503 0.40161 0.0
S1129 S 0.83515 0.1467 0.29864 0.0
N1130 N 0.84793 0.16825 0.31804 0.0
N1131 N 0.8146 0.13073 0.3163 0.0
C1132 C 0.8174 0.14275 0.33935 0.0
C1133 C 0.83557 0.16308 0.34031 0.0
C1134 C 0.83627 0.85613 0.38091 0.0
C1135 C 0.81365 0.84485 0.3723 0.0
C1136 C 0.85714 0.84093 0.38639 0.0
C1137 C 0.8559 0.81411 0.38323 0.0
H1138 H 0.83654 0.87594 0.38733 0.0
H1139 H 0.87295 0.84978 0.3963 0.0
S1140 S 0.80469 0.7777 0.3506 0.0
N1141 N 0.79397 0.80727 0.35296 0.0
N1142 N 0.83335 0.7785 0.36294 0.0
C1143 C 0.8355 0.80377 0.36919 0.0
C1144 C 0.81423 0.81935 0.36363 0.0
C1145 C 0.17215 0.82319 0.34577 0.0
C1146 C 0.15928 0.81286 0.367 0.0
C1147 C 0.19059 0.84233 0.34884 0.0
C1148 C 0.19699 0.8521 0.37327 0.0
H1149 H 0.16762 0.8169 0.32645 0.0
H1150 H 0.19946 0.8499 0.33171 0.0
S1151 S 0.17042 0.83012 0.43545 0.0
N1152 N 0.15541 0.81273 0.41363 0.0
N1153 N 0.19003 0.84878 0.41933 0.0
C1154 C 0.18499 0.84127 0.39482 0.0
C1155 C 0.16618 0.82166 0.3917 0.0
C1156 C 0.15092 0.13244 0.39895 0.0
C1157 C 0.17306 0.14399 0.38957 0.0
C1158 C 0.12945 0.14709 0.40339 0.0
C1159 C 0.12963 0.17365 0.3985 0.0
H1160 H 0.15142 0.11311 0.40659 0.0
H1161 H 0.11403 0.13827 0.41383 0.0
S1162 S 0.17916 0.20961 0.36309 0.0
N1163 N 0.19113 0.18082 0.36761 0.0
N1164 N 0.15061 0.20851 0.37554 0.0
C1165 C 0.14956 0.18377 0.38369 0.0
C1166 C 0.17145 0.16875 0.37922 0.0
C1167 C 0.18313 0.15916 0.64972 0.0
C1168 C 0.19919 0.17663 0.63729 0.0
C1169 C 0.15971 0.16702 0.65916 0.0
C1170 C 0.15154 0.1925 0.656 0.0
H1171 H 0.18788 0.13899 0.65047 0.0
H1172 H 0.14724 0.15262 0.66724 0.0
S1173 S 0.18874 0.24613 0.62801 0.0
N1174 N 0.20691 0.22078 0.62477 0.0
N1175 N 0.16298 0.23576 0.6425 0.0
C1176 C 0.16845 0.2105 0.64543 0.0
C1177 C 0.19227 0.20248 0.636 0.0
C1178 C 0.79802 0.13415 0.59411 0.0
C1179 C 0.78365 0.12744 0.61579 0.0
C1180 C 0.81597 0.15392 0.59521 0.0
C1181 C 0.82039 0.1677 0.61808 0.0
H1182 H 0.79597 0.12359 0.57627 0.0
H1183 H 0.82719 0.1576 0.57824 0.0
S1184 S 0.7854 0.16019 0.67926 0.0
N1185 N 0.77323 0.13804 0.6601 0.0
N1186 N 0.80713 0.17511 0.66214 0.0
C1187 C 0.80516 0.16224 0.63947 0.0
C1188 C 0.78677 0.14214 0.63834 0.0
C1189 C 0.18681 0.85991 0.59709 0.0
C1190 C 0.20085 0.86443 0.61964 0.0
C1191 C 0.17076 0.83854 0.59481 0.0
C1192 C 0.16798 0.8209 0.61506 0.0
H1193 H 0.18755 0.87339 0.58129 0.0
H1194 H 0.15953 0.83661 0.57751 0.0
S1195 S 0.2033 0.82167 0.67662 0.0
N1196 N 0.21304 0.84772 0.6615 0.0
N1197 N 0.18267 0.80775 0.65724 0.0
C1198 C 0.18304 0.82428 0.63707 0.0
C1199 C 0.1995 0.84599 0.63936 0.0
C1200 C 0.09204 0.22995 0.52656 0.0
C1201 C 0.08337 0.24959 0.51038 0.0
C1202 C 0.08417 0.22825 0.55213 0.0
C1203 C 0.06692 0.24582 0.56233 0.0
H1204 H 0.10521 0.21585 0.51949 0.0
H1205 H 0.09132 0.21277 0.56384 0.0
S1206 S 0.03853 0.30083 0.52796 0.0
N1207 N 0.05681 0.28713 0.50639 0.0
N1208 N 0.04157 0.28367 0.5544 0.0
C1209 C 0.05804 0.26555 0.54636 0.0
C1210 C 0.0664 0.26752 0.5204 0.0
C1211 C 0.68925 0.05757 0.49587 0.0
C1212 C 0.70989 0.06409 0.51163 0.0
C1213 C 0.69066 0.05958 0.46914 0.0
C1214 C 0.71277 0.06818 0.4569 0.0
H1215 H 0.67214 0.04971 0.5041 0.0
H1216 H 0.67457 0.05314 0.45796 0.0
S1217 S 0.77084 0.09164 0.48948 0.0
N1218 N 0.75215 0.08261 0.51314 0.0
N1219 N 0.75478 0.08628 0.4628 0.0
C1220 C 0.73284 0.07686 0.47246 0.0
C1221 C 0.7314 0.07482 0.49983 0.0
C1222 C 0.91916 0.72466 0.5079 0.0
C1223 C 0.9011 0.74149 0.49793 0.0
C1224 C 0.92692 0.72635 0.5336 0.0
C1225 C 0.9166 0.74464 0.55042 0.0
H1226 H 0.92772 0.71035 0.49567 0.0
H1227 H 0.94112 0.71314 0.54031 0.0
S1228 S 0.86787 0.79258 0.5339 0.0
N1229 N 0.87257 0.77663 0.50693 0.0
N1230 N 0.88697 0.77971 0.55523 0.0
C1231 C 0.89816 0.76131 0.54076 0.0
C1232 C 0.89049 0.75977 0.51452 0.0
C1233 C 0.25883 0.9189 0.48907 0.0
C1234 C 0.28052 0.92499 0.47479 0.0
C1235 C 0.2582 0.92246 0.51581 0.0
C1236 C 0.27922 0.93229 0.5293 0.0
H1237 H 0.24163 0.91304 0.47941 0.0
H1238 H 0.24055 0.91899 0.52565 0.0
S1239 S 0.34228 0.94573 0.50161 0.0
N1240 N 0.32479 0.93724 0.47671 0.0
N1241 N 0.32356 0.94402 0.52681 0.0
C1242 C 0.30171 0.93612 0.51556 0.0
C1243 C 0.30237 0.93243 0.48837 0.0
C1244 C 0.06995 0.72574 0.50471 0.0
C1245 C 0.08276 0.74665 0.5161 0.0
C1246 C 0.07054 0.72154 0.47819 0.0
C1247 C 0.08388 0.7381 0.46167 0.0
H1248 H 0.05864 0.71282 0.5163 0.0
H1249 H 0.05951 0.70568 0.47054 0.0
S1250 S 0.12312 0.79402 0.48204 0.0
N1251 N 0.11115 0.7828 0.50907 0.0
N1252 N 0.11228 0.77501 0.45907 0.0
C1253 C 0.09817 0.75816 0.47294 0.0
C1254 C 0.09761 0.7624 0.50014 0.0
C1255 C 0.2671 0.16394 0.49027 0.0
C1256 C 0.28093 0.1455 0.47678 0.0
C1257 C 0.27018 0.1673 0.51659 0.0
C1258 C 0.28695 0.1521 0.5307 0.0
H1259 H 0.25329 0.17558 0.48045 0.0
H1260 H 0.25861 0.18147 0.52608 0.0
S1261 S 0.32896 0.10222 0.50402 0.0
N1262 N 0.31329 0.11293 0.47882 0.0
N1263 N 0.31884 0.11886 0.52897 0.0
C1264 C 0.30193 0.1344 0.5173 0.0
C1265 C 0.29895 0.13116 0.49014 0.0
C1266 C 0.89588 0.22488 0.50826 0.0
C1267 C 0.90525 0.24317 0.52581 0.0
C1268 C 0.89379 0.23067 0.48198 0.0
C1269 C 0.90081 0.25501 0.47245 0.0
H1270 H 0.89146 0.20558 0.51462 0.0
H1271 H 0.88802 0.2155 0.46891 0.0
S1272 S 0.92151 0.31106 0.5116 0.0
N1273 N 0.91818 0.28754 0.53253 0.0
N1274 N 0.91393 0.29856 0.48343 0.0
C1275 C 0.90817 0.27403 0.49026 0.0
C1276 C 0.91051 0.26807 0.51685 0.0
C1277 C 0.69133 0.86161 0.47426 0.0
C1278 C 0.70727 0.84561 0.45996 0.0
C1279 C 0.68916 0.85859 0.50106 0.0
C1280 C 0.70283 0.83948 0.51394 0.0
H1281 H 0.68176 0.87737 0.46499 0.0
H1282 H 0.678 0.87214 0.51186 0.0
S1283 S 0.74326 0.79 0.48419 0.0
N1284 N 0.73411 0.8081 0.46001 0.0
N1285 N 0.72994 0.80236 0.50995 0.0
C1286 C 0.71714 0.82225 0.4994 0.0
C1287 C 0.71939 0.82534 0.47247 0.0
C1288 C 0.48567 0.10297 0.26822 0.0
C1289 C 0.47344 0.09111 0.24729 0.0
C1290 C 0.5114 0.10918 0.26713 0.0
C1291 C 0.52563 0.10381 0.24506 0.0
H1292 H 0.475 0.10912 0.2848 0.0
H1293 H 0.51983 0.11958 0.28306 0.0
S1294 S 0.50388 0.06677 0.18821 0.0
N1295 N 0.47844 0.06995 0.20606 0.0
N1296 N 0.52676 0.08146 0.2041 0.0
C1297 C 0.51414 0.08981 0.2251 0.0
C1298 C 0.488 0.08347 0.22622 0.0
C1299 C 0.91384 0.51035 0.30025 0.0
C1300 C 0.91196 0.52463 0.27746 0.0
C1301 C 0.90906 0.48393 0.30055 0.0
C1302 C 0.90234 0.47051 0.27803 0.0
H1303 H 0.92012 0.51945 0.3179 0.0
H1304 H 0.91195 0.47374 0.31842 0.0
S1305 S 0.89167 0.49949 0.21388 0.0
N1306 N 0.90029 0.52393 0.23225 0.0
N1307 N 0.89149 0.47402 0.23274 0.0
C1308 C 0.8984 0.48484 0.25548 0.0
C1309 C 0.90319 0.51195 0.25521 0.0
C1310 C 0.50304 0.91003 0.26341 0.0
C1311 C 0.51405 0.92093 0.24138 0.0
C1312 C 0.47729 0.90403 0.26407 0.0
C1313 C 0.46175 0.90869 0.24274 0.0
H1314 H 0.51465 0.90444 0.27955 0.0
H1315 H 0.46983 0.8943 0.28082 0.0
S1316 S 0.48014 0.9434 0.1835 0.0
N1317 N 0.50664 0.94058 0.19984 0.0
N1318 N 0.45818 0.92956 0.20124 0.0
C1319 C 0.47205 0.92185 0.22168 0.0
C1320 C 0.49826 0.92793 0.22098 0.0
C1321 C 0.10762 0.50026 0.29259 0.0
C1322 C 0.12419 0.50681 0.27263 0.0
C1323 C 0.09886 0.475 0.29554 0.0
C1324 C 0.10649 0.45524 0.27877 0.0
H1325 H 0.10062 0.5149 0.30547 0.0
H1326 H 0.08558 0.47112 0.31083 0.0
S1327 S 0.1521 0.46217 0.22512 0.0
N1328 N 0.1496 0.49138 0.23712 0.0
N1329 N 0.13331 0.44392 0.24263 0.0
C1330 C 0.12405 0.46142 0.25945 0.0
C1331 C 0.13283 0.48719 0.25639 0.0
C1332 C 0.47374 0.89472 0.74166 0.0
C1333 C 0.45919 0.88169 0.76013 0.0
C1334 C 0.50014 0.89304 0.74181 0.0
C1335 C 0.51264 0.87848 0.76056 0.0
H1336 H 0.46474 0.90642 0.7272 0.0
H1337 H 0.51079 0.90334 0.72735 0.0
S1338 S 0.48291 0.83837 0.81121 0.0
N1339 N 0.45919 0.85192 0.79615 0.0
N1340 N 0.5084 0.84932 0.79679 0.0
C1341 C 0.4982 0.86498 0.77874 0.0
C1342 C 0.47155 0.86644 0.77842 0.0
C1343 C 0.09783 0.52237 0.72091 0.0
C1344 C 0.08898 0.5043 0.70284 0.0
C1345 C 0.08623 0.54615 0.72391 0.0
C1346 C 0.06521 0.55295 0.70899 0.0
H1347 H 0.114 0.51821 0.73285 0.0
H1348 H 0.09396 0.55932 0.73806 0.0
S1349 S 0.03424 0.51208 0.65927 0.0
N1350 N 0.05773 0.49454 0.66999 0.0
N1351 N 0.03576 0.53927 0.67555 0.0
C1352 C 0.05609 0.53499 0.69081 0.0
C1353 C 0.06802 0.51071 0.68772 0.0
C1354 C 0.5141 0.09351 0.76932 0.0
C1355 C 0.49612 0.08545 0.75104 0.0
C1356 C 0.53927 0.08603 0.76759 0.0
C1357 C 0.5475 0.06996 0.74763 0.0
H1358 H 0.50883 0.10602 0.78501 0.0
H1359 H 0.55232 0.09284 0.78214 0.0
S1360 S 0.50785 0.04339 0.69481 0.0
N1361 N 0.48824 0.06047 0.71231 0.0
N1362 N 0.53554 0.04622 0.70903 0.0
C1363 C 0.52967 0.06159 0.72925 0.0
C1364 C 0.50402 0.06941 0.73093 0.0
C1365 C 0.90571 0.4847 0.6913 0.0
C1366 C 0.8844 0.49119 0.70578 0.0
C1367 C 0.91747 0.46091 0.69445 0.0
C1368 C 0.90832 0.44263 0.71214 0.0
H1369 H 0.91377 0.4983 0.67785 0.0
H1370 H 0.93407 0.45702 0.68311 0.0
S1371 S 0.85151 0.44957 0.75308 0.0
N1372 N 0.85355 0.47688 0.73722 0.0
N1373 N 0.87558 0.43235 0.74329 0.0
C1374 C 0.88654 0.4487 0.72624 0.0
C1375 C 0.87461 0.47291 0.72301 0.0
C1376 C 0.21529 0.47651 0.07082 0.0
C1377 C 0.23355 0.4922 0.05904 0.0
C1378 C 0.2142 0.45013 0.06615 0.0
C1379 C 0.23117 0.43825 0.04926 0.0
H1380 H 0.20191 0.48456 0.08422 0.0
H1381 H 0.19985 0.43898 0.07594 0.0
S1382 S 0.28202 0.47094 0.01261 0.0
N1383 N 0.26866 0.49417 0.0292 0.0
N1384 N 0.26651 0.44441 0.02013 0.0
C1385 C 0.24927 0.45377 0.03688 0.0
C1386 C 0.25052 0.48075 0.04188 0.0
C1387 C 0.25627 0.49331 0.8942 0.0
C1388 C 0.24282 0.50198 0.87269 0.0
C1389 C 0.2546 0.46766 0.90216 0.0
C1390 C 0.23964 0.44959 0.88874 0.0
H1391 H 0.26781 0.50652 0.9053 0.0
H1392 H 0.26527 0.46198 0.91894 0.0
S1393 S 0.20148 0.46253 0.83033 0.0
N1394 N 0.21462 0.49045 0.83757 0.0
N1395 N 0.21146 0.44232 0.85241 0.0
C1396 C 0.22637 0.45801 0.86691 0.0
C1397 C 0.22796 0.48417 0.85894 0.0
C1398 C 0.47879 0.26684 0.89272 0.0
C1399 C 0.47193 0.28517 0.91129 0.0
C1400 C 0.50321 0.26611 0.88274 0.0
C1401 C 0.52188 0.28366 0.89083 0.0
H1402 H 0.46532 0.2526 0.88602 0.0
H1403 H 0.50752 0.25137 0.86876 0.0
S1404 S 0.51374 0.33624 0.93818 0.0
N1405 N 0.48588 0.32204 0.9367 0.0
N1406 N 0.53177 0.32049 0.91787 0.0
C1407 C 0.51522 0.30261 0.90876 0.0
C1408 C 0.49029 0.30338 0.91902 0.0
C1409 C 0.76552 0.53644 0.88869 0.0
C1410 C 0.75071 0.5452 0.90925 0.0
C1411 C 0.76454 0.51081 0.88066 0.0
C1412 C 0.74845 0.49291 0.89258 0.0
H1413 H 0.77803 0.54949 0.87862 0.0
H1414 H 0.77634 0.50504 0.86474 0.0
S1415 S 0.70612 0.50559 0.94765 0.0
N1416 N 0.71969 0.53358 0.94173 0.0
N1417 N 0.71778 0.48541 0.92638 0.0
C1418 C 0.73359 0.50124 0.91323 0.0
C1419 C 0.73479 0.52734 0.92166 0.0
C1420 C 0.48083 0.73799 0.8996 0.0
C1421 C 0.46299 0.71806 0.90249 0.0
C1422 C 0.50597 0.73495 0.90729 0.0
C1423 C 0.51432 0.71184 0.91827 0.0
H1424 H 0.47535 0.75626 0.89159 0.0
H1425 H 0.51876 0.75111 0.9052 0.0
S1426 S 0.47566 0.65286 0.92798 0.0
N1427 N 0.45592 0.67378 0.91567 0.0
N1428 N 0.50298 0.66802 0.92997 0.0
C1429 C 0.49687 0.69143 0.92041 0.0
C1430 C 0.4713 0.69453 0.91255 0.0
C1431 C 0.74166 0.55526 0.0541 0.0
C1432 C 0.75798 0.57106 0.06873 0.0
C1433 C 0.73883 0.52899 0.05953 0.0
C1434 C 0.7525 0.51753 0.07952 0.0
H1435 H 0.73075 0.56324 0.0385 0.0
H1436 H 0.72605 0.51757 0.04787 0.0
S1437 S 0.79731 0.55015 0.12393 0.0
N1438 N 0.78772 0.57294 0.10441 0.0
N1439 N 0.7825 0.52389 0.11435 0.0
C1440 C 0.76889 0.533 0.09422 0.0
C1441 C 0.77162 0.55967 0.08889 0.0
C1442 C 0.50313 0.69195 0.12816 0.0
C1443 C 0.51257 0.70911 0.14686 0.0
C1444 C 0.47727 0.6913 0.12201 0.0
C1445 C 0.46033 0.70791 0.1343 0.0
H1446 H 0.51591 0.67999 0.11736 0.0
H1447 H 0.47073 0.67864 0.10683 0.0
S1448 S 0.4753 0.75311 0.18757 0.0
N1449 N 0.50263 0.74062 0.17965 0.0
N1450 N 0.45446 0.73952 0.16822 0.0
C1451 C 0.46947 0.72385 0.15414 0.0
C1452 C 0.4955 0.72441 0.16038 0.0
C1453 C 0.50802 0.31147 0.10237 0.0
C1454 C 0.52556 0.29557 0.11467 0.0
C1455 C 0.48277 0.31207 0.11062 0.0
C1456 C 0.4746 0.29702 0.13152 0.0
H1457 H 0.51356 0.3226 0.08574 0.0
H1458 H 0.46942 0.32342 0.09988 0.0
S1459 S 0.5144 0.25597 0.17285 0.0
N1460 N 0.5337 0.26698 0.15058 0.0
N1461 N 0.48676 0.26851 0.16618 0.0
C1462 C 0.49245 0.28253 0.14492 0.0
C1463 C 0.51782 0.2817 0.13645 0.0
C1464 C 0.56001 0.75913 0.0434 0.0
C1465 C 0.56921 0.74058 0.06059 0.0
C1466 C 0.56563 0.75804 0.01714 0.0
C1467 C 0.58028 0.73812 0.00704 0.0
H1468 H 0.54894 0.77506 0.05035 0.0
H1469 H 0.55854 0.77299 0.00472 0.0
S1470 S 0.60819 0.68425 0.04368 0.0
N1471 N 0.59318 0.70131 0.06546 0.0
N1472 N 0.60359 0.69914 0.01614 0.0
C1473 C 0.5891 0.71909 0.02388 0.0
C1474 C 0.58362 0.72036 0.05065 0.0
C1475 C 0.21921 0.58001 0.9545 0.0
C1476 C 0.19868 0.57136 0.93958 0.0
C1477 C 0.21815 0.57997 0.98141 0.0
C1478 C 0.19648 0.57134 0.99444 0.0
H1479 H 0.23681 0.58541 0.94543 0.0
H1480 H 0.235 0.58524 0.99198 0.0
S1481 S 0.13578 0.55211 0.96414 0.0
N1482 N 0.15478 0.55777 0.93972 0.0
N1483 N 0.15266 0.55786 0.99022 0.0
C1484 C 0.17506 0.56491 0.97969 0.0
C1485 C 0.1762 0.56485 0.9523 0.0
C1486 C 0.40432 0.27197 0.04236 0.0
C1487 C 0.41887 0.25311 0.05452 0.0
C1488 C 0.39992 0.27125 0.01588 0.0
C1489 C 0.40964 0.25147 0.00046 0.0
H1490 H 0.39616 0.28748 0.05336 0.0
H1491 H 0.3883 0.28606 0.00757 0.0
S1492 S 0.44949 0.19772 0.02259 0.0
N1493 N 0.44355 0.21431 0.04891 0.0
N1494 N 0.43502 0.21289 -0.00091 0.0
C1495 C 0.42449 0.23264 0.01222 0.0
C1496 C 0.4292 0.23349 0.03923 0.0
C1497 C 0.80785 0.44054 0.00021 0.0
C1498 C 0.78662 0.43318 0.01466 0.0
C1499 C 0.80834 0.43769 0.9735 0.0
C1500 C 0.78766 0.42731 0.95995 0.0
H1501 H 0.82388 0.4497 0.00941 0.0
H1502 H 0.82471 0.44482 0.96329 0.0
S1503 S 0.7289 0.40142 0.9889 0.0
N1504 N 0.74544 0.41221 0.0136 0.0
N1505 N 0.7464 0.40695 0.96331 0.0
C1506 C 0.76711 0.41792 0.97427 0.0
C1507 C 0.76657 0.42085 0.00161 0.0
C1508 C 0.59257 0.26605 0.97367 0.0
C1509 C 0.58341 0.24357 0.96166 0.0
C1510 C 0.59217 0.26879 0.00056 0.0
C1511 C 0.58259 0.24916 0.01643 0.0
H1512 H 0.59904 0.28212 0.96221 0.0
H1513 H 0.59856 0.28679 0.00885 0.0
S1514 S 0.56016 0.1849 0.9946 0.0
N1515 N 0.56717 0.20028 0.96785 0.0
N1516 N 0.56648 0.20526 0.01811 0.0
C1517 C 0.57479 0.22601 0.00466 0.0
C1518 C 0.57519 0.22326 0.97738 0.0
C1519 C 0.80642 0.66956 0.99597 0.0
C1520 C 0.80666 0.64932 0.01369 0.0
C1521 C 0.80302 0.66476 0.96974 0.0
C1522 C 0.79935 0.63964 0.96062 0.0
H1523 H 0.80699 0.68927 0.00264 0.0
H1524 H 0.8011 0.68092 0.95683 0.0
S1525 S 0.79968 0.58004 -0.00089 0.0
N1526 N 0.80475 0.60322 0.02028 0.0
N1527 N 0.79738 0.59427 0.97087 0.0
C1528 C 0.80106 0.61915 0.97789 0.0
C1529 C 0.80501 0.624 0.00456 0.0
C1530 C 0.41661 0.77071 0.99548 0.0
C1531 C 0.40297 0.75314 0.98008 0.0
C1532 C 0.41782 0.76815 0.02216 0.0
C1533 C 0.4054 0.74796 0.03493 0.0
H1534 H 0.42691 0.78652 0.98687 0.0
H1535 H 0.42885 0.78219 0.03279 0.0
S1536 S 0.36591 0.69735 0.00392 0.0
N1537 N 0.37591 0.71522 0.9798 0.0
N1538 N 0.37802 0.71047 0.03012 0.0
C1539 C 0.39102 0.73057 0.01995 0.0
C1540 C 0.38984 0.73318 0.99256 0.0
C1541 C 0.18848 0.38371 0.98904 0.0
C1542 C 0.17925 0.36077 -0.00029 0.0
C1543 C 0.19236 0.38583 0.96255 0.0
C1544 C 0.18645 0.36528 0.9461 0.0
H1545 H 0.19505 0.39911 0.0014 0.0
H1546 H 0.2019 0.40273 0.95518 0.0
S1547 S 0.1584 0.30271 0.96434 0.0
N1548 N 0.16196 0.31825 0.99184 0.0
N1549 N 0.16829 0.3226 0.94174 0.0
C1550 C 0.17467 0.34338 0.95624 0.0
C1551 C 0.17124 0.34103 0.98325 0.0
C1552 C 0.96711 0.61125 0.73187 0.0
C1553 C 0.98444 0.60514 0.75129 0.0
C1554 C 0.94399 0.59835 0.7298 0.0
C1555 C 0.93713 0.57864 0.74701 0.0
H1556 H 0.97136 0.62619 0.71807 0.0
H1557 H 0.93146 0.60397 0.71442 0.0
S1558 S 0.97581 0.5554 0.80162 0.0
N1559 N 0.99315 0.5782 0.78835 0.0
N1560 N 0.94968 0.55388 0.78446 0.0
C1561 C 0.95422 0.57246 0.76673 0.0
C1562 C 0.97782 0.58573 0.76889 0.0
C1563 C 0.41463 0.984 0.81688 0.0
C1564 C 0.40336 0.97107 0.79598 0.0
C1565 C 0.41988 0.01032 0.81599 0.0
C1566 C 0.41408 0.02506 0.79419 0.0
H1567 H 0.4204 0.97354 0.83383 0.0
H1568 H 0.42943 0.01897 0.8323 0.0
S1569 S 0.38159 0.00129 0.73541 0.0
N1570 N 0.38436 0.97558 0.75365 0.0
N1571 N 0.3942 0.02521 0.75201 0.0
C1572 C 0.40118 0.01283 0.77381 0.0
C1573 C 0.39582 0.98584 0.7747 0.0
C1574 C 0.02344 0.42829 0.76236 0.0
C1575 C 0.04297 0.41694 0.74813 0.0
C1576 C 1e-05 0.41592 0.76523 0.0
C1577 C 0.99527 0.39189 0.75381 0.0
H1578 H 0.02601 0.44714 0.77082 0.0
H1579 H 0.98527 0.42561 0.77572 0.0
S1580 S 0.04099 0.35216 0.71808 0.0
N1581 N 0.05664 0.37879 0.72506 0.0
N1582 N 0.01254 0.35604 0.73001 0.0
C1583 C 0.01486 0.37988 0.74048 0.0
C1584 C 0.03872 0.39226 0.73776 0.0
C1585 C 0.59421 0.9708 0.80608 0.0
C1586 C 0.60182 0.95102 0.78934 0.0
C1587 C 0.60389 0.99584 0.80381 0.0
C1588 C 0.62143 0.00208 0.78462 0.0
H1589 H 0.58019 0.96714 0.82074 0.0
H1590 H 0.59684 0.01059 0.81654 0.0
S1591 S 0.64977 0.95707 0.7377 0.0
N1592 N 0.62972 0.93927 0.75417 0.0
N1593 N 0.64773 0.98619 0.75 0.0
C1594 C 0.63006 0.98235 0.76849 0.0
C1595 C 0.62031 0.95688 0.77081 0.0
C1596 C 0.97998 0.37863 0.26805 0.0
C1597 C 0.96773 0.38705 0.2457 0.0
C1598 C 0.00602 0.37704 0.26936 0.0
C1599 C 0.02125 0.38347 0.24828 0.0
H1600 H 0.96946 0.37231 0.28466 0.0
H1601 H 0.01411 0.36974 0.28697 0.0
S1602 S -0.0011 0.40734 0.18522 0.0
N1603 N 0.97287 0.4027 0.20197 0.0
N1604 N 0.02238 0.39926 0.20434 0.0
C1605 C 0.00949 0.3923 0.22577 0.0
C1606 C 0.98263 0.39418 0.22449 0.0
C1607 C 0.60664 0.03246 0.22528 0.0
C1608 C 0.60393 0.04662 0.20246 0.0
C1609 C 0.60522 0.00554 0.225 0.0
C1610 C 0.60104 0.99202 0.2019 0.0
H1611 H 0.60759 0.0422 0.24366 0.0
H1612 H 0.60524 0.99549 0.24319 0.0
S1613 S 0.59934 0.02004 0.13647 0.0
N1614 N 0.60176 0.04507 0.15586 0.0
N1615 N 0.59918 0.99457 0.15529 0.0
C1616 C 0.60133 0.00589 0.17876 0.0
C1617 C 0.60276 0.03319 0.17906 0.0
C1618 C 0.03867 0.58809 0.25733 0.0
C1619 C 0.04744 0.57331 0.23663 0.0
C1620 C 0.01336 0.59513 0.25905 0.0
C1621 C -0.0042 0.58798 0.23999 0.0
H1622 H 0.05142 0.59421 0.27247 0.0
H1623 H 0.00765 0.60664 0.27534 0.0
S1624 S 0.00904 0.54943 0.18165 0.0
N1625 N 0.03644 0.55174 0.19652 0.0
N1626 N 0.98891 0.56522 0.19974 0.0
C1627 C 0.00425 0.57323 0.21914 0.0
C1628 C 0.03002 0.56581 0.21749 0.0
C1629 C 0.38148 0.00564 0.23255 0.0
C1630 C 0.3847 0.0198 0.20976 0.0
C1631 C 0.37917 0.97876 0.23192 0.0
C1632 C 0.37997 0.96526 0.20849 0.0
H1633 H 0.38285 0.0151 0.25106 0.0
H1634 H 0.37906 0.96846 0.24998 0.0
S1635 S 0.38153 0.99396 0.14337 0.0
N1636 N 0.38374 0.01875 0.16307 0.0
N1637 N 0.37935 0.96837 0.16191 0.0
C1638 C 0.38018 0.97947 0.18556 0.0
C1639 C 0.3826 0.00672 0.18619 0.0
C1640 C 0.75735 0.96932 0.56587 0.0
C1641 C 0.74021 0.98105 0.58261 0.0
C1642 C 0.75698 0.94264 0.56196 0.0
C1643 C 0.73968 0.9266 0.57494 0.0
H1644 H 0.77109 0.98082 0.5556 0.0
H1645 H 0.77055 0.93457 0.5488 0.0
S1646 S 0.6916 0.94807 0.62195 0.0
N1647 N 0.7059 0.97472 0.61282 0.0
N1648 N 0.70528 0.92479 0.6058 0.0
C1649 C 0.72257 0.93823 0.59195 0.0
C1650 C 0.7228 0.96537 0.59568 0.0
C1651 C 0.76724 0.9853 0.40887 0.0
C1652 C 0.7514 0.9956 0.38991 0.0
C1653 C 0.76561 0.95932 0.41571 0.0
C1654 C 0.74819 0.94262 0.40372 0.0
H1655 H 0.78098 -0.00261 0.41857 0.0
H1656 H 0.77845 0.95224 0.43018 0.0
S1657 S 0.70228 0.96028 0.3529 0.0
N1658 N 0.71786 0.9871 0.3591 0.0
N1659 N 0.71434 0.93859 0.37226 0.0
C1660 C 0.73204 0.95282 0.3849 0.0
C1661 C 0.73378 0.97921 0.37791 0.0
C1662 C 0.97458 0.75541 0.39487 0.0
C1663 C 0.9671 0.77308 0.41382 0.0
C1664 C -0.00088 0.75554 0.38516 0.0
C1665 C 0.01725 0.77338 0.39387 0.0
H1666 H 0.96142 0.74125 0.38741 0.0
H1667 H 0.0039 0.74147 0.37066 0.0
S1668 S 0.0078 0.82345 0.44363 0.0
N1669 N 0.98021 0.80885 0.44119 0.0
N1670 N 0.02628 0.809 0.42277 0.0
C1671 C 0.01013 0.79127 0.41268 0.0
C1672 C 0.98511 0.79112 0.42271 0.0
C1673 C 0.22557 0.03188 0.43258 0.0
C1674 C 0.24202 0.04912 0.42005 0.0
C1675 C 0.2248 0.00576 0.42601 0.0
C1676 C 0.2406 0.99588 0.40686 0.0
H1677 H 0.21286 0.03861 0.44732 0.0
H1678 H 0.21184 0.99322 0.43614 0.0
S1679 S 0.28711 0.03269 0.36818 0.0
N1680 N 0.2747 0.05414 0.38762 0.0
N1681 N 0.27291 0.00531 0.37512 0.0
C1682 C 0.2572 0.01282 0.39425 0.0
C1683 C 0.25801 0.03935 0.4009 0.0
C1684 C 0.01219 0.24332 0.40631 0.0
C1685 C 0.01883 0.22437 0.42434 0.0
C1686 C 0.98761 0.24483 0.39649 0.0
C1687 C 0.96878 0.22731 0.40408 0.0
H1688 H 0.02605 0.25711 0.39965 0.0
H1689 H 0.98341 0.25966 0.38262 0.0
S1690 S 0.97552 0.17524 0.45206 0.0
N1691 N 0.00378 0.18847 0.4503 0.0
N1692 N 0.95794 0.19131 0.43163 0.0
C1693 C 0.97497 0.20852 0.4223 0.0
C1694 C -0.00012 0.20706 0.43247 0.0
C1695 C 0.25802 0.05819 0.60293 0.0
C1696 C 0.24085 0.0716 0.58747 0.0
C1697 C 0.25639 0.03163 0.60582 0.0
C1698 C 0.23749 0.01704 0.59347 0.0
H1699 H 0.27302 0.06821 0.61301 0.0
H1700 H 0.27003 0.02257 0.61825 0.0
S1701 S 0.18776 0.04245 0.55067 0.0
N1702 N 0.20419 0.06809 0.55941 0.0
N1703 N 0.20117 0.01786 0.56505 0.0
C1704 C 0.22011 0.03 0.57791 0.0
C1705 C 0.22181 0.05729 0.57483 0.0
C1706 C 0.98206 0.18958 0.59202 0.0
C1707 C 0.96349 0.17773 0.60713 0.0
C1708 C 0.00673 0.19229 0.60114 0.0
C1709 C 0.01329 0.18375 0.62581 0.0
H1710 H 0.97691 0.19908 0.57429 0.0
H1711 H 0.0201 0.20314 0.5898 0.0
S1712 S 0.97243 0.14827 0.67111 0.0
N1713 N 0.95401 0.15437 0.64627 0.0
N1714 N 0.0004 0.16024 0.66376 0.0
C1715 C -0.00436 0.16957 0.63991 0.0
C1716 C 0.97063 0.16633 0.63041 0.0
C1717 C 0.01986 0.81825 0.62309 0.0
C1718 C 0.02736 0.81018 0.59851 0.0
C1719 C 0.99491 0.81504 0.63119 0.0
C1720 C 0.97684 0.80414 0.61473 0.0
H1721 H 0.03386 0.82424 0.6371 0.0
H1722 H 0.99027 0.81901 0.65106 0.0
S1723 S 0.98612 0.78442 0.54708 0.0
N1724 N 0.01437 0.79373 0.5569 0.0
N1725 N 0.96706 0.7891 0.57166 0.0
C1726 C 0.98349 0.79885 0.58921 0.0
C1727 C 0.00895 0.80159 0.58116 0.0
loop_
_geom_bond_atom_site_label_1
_geom_bond_atom_site_label_2
_geom_bond_distance
_geom_bond_site_symmetry_2
_ccdc_geom_bond_type
Mg0 O1 2.028 . S
Mg0 O7 1.986 . S
Mg0 O9 2.114 . S
Mg0 O10 2.251 . S
Mg0 O13 2.010 . S
O1 Mg0 2.028 . S
O1 C4 1.250 . S
O2 Mg3 2.028 . S
O2 C4 1.248 . S
Mg3 O2 2.028 . S
Mg3 O8 2.032 . S
Mg3 O10 2.079 . S
C4 O1 1.250 . S
C4 O2 1.248 . S
C5 O6 1.264 . S
C5 O13 1.249 . S
O6 C5 1.264 . S
O7 Mg0 1.986 . S
O7 C11 1.246 . S
O8 Mg3 2.032 . S
O8 C11 1.259 . S
O9 Mg0 2.114 . S
O9 C12 1.252 . S
O10 Mg0 2.251 . S
O10 Mg3 2.079 . S
O10 C12 1.273 . S
C11 O7 1.246 . S
C11 O8 1.259 . S
C12 O9 1.252 . S
C12 O10 1.273 . S
O13 Mg0 2.010 . S
O13 C5 1.249 . S
Mg14 O15 2.028 . S
Mg14 O21 1.986 . S
Mg14 O23 2.114 . S
Mg14 O24 2.251 . S
Mg14 O27 2.010 . S
O15 Mg14 2.028 . S
O15 C18 1.250 . S
O16 Mg17 2.028 . S
O16 C18 1.248 . S
Mg17 O16 2.028 . S
Mg17 O22 2.032 . S
Mg17 O24 2.079 . S
C18 O15 1.250 . S
C18 O16 1.248 . S
C19 O20 1.264 . S
C19 O27 1.249 . S
O20 C19 1.264 . S
O21 Mg14 1.986 . S
O21 C25 1.246 . S
O22 Mg17 2.032 . S
O22 C25 1.259 . S
O23 Mg14 2.114 . S
O23 C26 1.252 . S
O24 Mg14 2.251 . S
O24 Mg17 2.079 . S
O24 C26 1.273 . S
C25 O21 1.246 . S
C25 O22 1.259 . S
C26 O23 1.252 . S
C26 O24 1.273 . S
O27 Mg14 2.010 . S
O27 C19 1.249 . S
Mg28 O29 2.028 . S
Mg28 O35 1.986 . S
Mg28 O37 2.114 . S
Mg28 O38 2.251 . S
Mg28 O41 2.010 . S
O29 Mg28 2.028 . S
O29 C32 1.250 . S
O30 Mg31 2.028 . S
O30 C32 1.248 . S
Mg31 O30 2.028 . S
Mg31 O36 2.032 . S
Mg31 O38 2.079 . S
C32 O29 1.250 . S
C32 O30 1.248 . S
C33 O34 1.264 . S
C33 O41 1.249 . S
O34 C33 1.264 . S
O35 Mg28 1.986 . S
O35 C39 1.246 . S
O36 Mg31 2.032 . S
O36 C39 1.259 . S
O37 Mg28 2.114 . S
O37 C40 1.252 . S
O38 Mg28 2.251 . S
O38 Mg31 2.079 . S
O38 C40 1.273 . S
C39 O35 1.246 . S
C39 O36 1.259 . S
C40 O37 1.252 . S
C40 O38 1.273 . S
O41 Mg28 2.010 . S
O41 C33 1.249 . S
Mg42 O43 2.028 . S
Mg42 O49 1.986 . S
Mg42 O51 2.114 . S
Mg42 O52 2.251 . S
Mg42 O55 2.010 . S
O43 Mg42 2.028 . S
O43 C46 1.250 . S
O44 Mg45 2.028 . S
O44 C46 1.248 . S
Mg45 O44 2.028 . S
Mg45 O50 2.032 . S
Mg45 O52 2.079 . S
C46 O43 1.250 . S
C46 O44 1.248 . S
C47 O48 1.264 . S
C47 O55 1.249 . S
O48 C47 1.264 . S
O49 Mg42 1.986 . S
O49 C53 1.246 . S
O50 Mg45 2.032 . S
O50 C53 1.259 . S
O51 Mg42 2.114 . S
O51 C54 1.252 . S
O52 Mg42 2.251 . S
O52 Mg45 2.079 . S
O52 C54 1.273 . S
C53 O49 1.246 . S
C53 O50 1.259 . S
C54 O51 1.252 . S
C54 O52 1.273 . S
O55 Mg42 2.010 . S
O55 C47 1.249 . S
Mg56 O57 2.028 . S
Mg56 O63 1.986 . S
Mg56 O65 2.114 . S
Mg56 O66 2.251 . S
Mg56 O69 2.010 . S
O57 Mg56 2.028 . S
O57 C60 1.250 . S
O58 Mg59 2.028 . S
O58 C60 1.248 . S
Mg59 O58 2.028 . S
Mg59 O64 2.032 . S
Mg59 O66 2.079 . S
C60 O57 1.250 . S
C60 O58 1.248 . S
C61 O62 1.264 . S
C61 O69 1.249 . S
O62 C61 1.264 . S
O63 Mg56 1.986 . S
O63 C67 1.246 . S
O64 Mg59 2.032 . S
O64 C67 1.259 . S
O65 Mg56 2.114 . S
O65 C68 1.252 . S
O66 Mg56 2.251 . S
O66 Mg59 2.079 . S
O66 C68 1.273 . S
C67 O63 1.246 . S
C67 O64 1.259 . S
C68 O65 1.252 . S
C68 O66 1.273 . S
O69 Mg56 2.010 . S
O69 C61 1.249 . S
Mg70 O71 2.028 . S
Mg70 O77 1.986 . S
Mg70 O79 2.114 . S
Mg70 O80 2.251 . S
Mg70 O83 2.010 . S
O71 Mg70 2.028 . S
O71 C74 1.250 . S
O72 Mg73 2.028 . S
O72 C74 1.248 . S
Mg73 O72 2.028 . S
Mg73 O78 2.032 . S
Mg73 O80 2.079 . S
C74 O71 1.250 . S
C74 O72 1.248 . S
C75 O76 1.264 . S
C75 O83 1.249 . S
O76 C75 1.264 . S
O77 Mg70 1.986 . S
O77 C81 1.246 . S
O78 Mg73 2.032 . S
O78 C81 1.259 . S
O79 Mg70 2.114 . S
O79 C82 1.252 . S
O80 Mg70 2.251 . S
O80 Mg73 2.079 . S
O80 C82 1.273 . S
C81 O77 1.246 . S
C81 O78 1.259 . S
C82 O79 1.252 . S
C82 O80 1.273 . S
O83 Mg70 2.010 . S
O83 C75 1.249 . S
Mg84 O85 2.028 . S
Mg84 O91 1.986 . S
Mg84 O93 2.114 . S
Mg84 O94 2.251 . S
Mg84 O97 2.010 . S
O85 Mg84 2.028 . S
O85 C88 1.250 . S
O86 Mg87 2.028 . S
O86 C88 1.248 . S
Mg87 O86 2.028 . S
Mg87 O92 2.032 . S
Mg87 O94 2.079 . S
C88 O85 1.250 . S
C88 O86 1.248 . S
C89 O90 1.264 . S
C89 O97 1.249 . S
O90 C89 1.264 . S
O91 Mg84 1.986 . S
O91 C95 1.246 . S
O92 Mg87 2.032 . S
O92 C95 1.259 . S
O93 Mg84 2.114 . S
O93 C96 1.252 . S
O94 Mg84 2.251 . S
O94 Mg87 2.079 . S
O94 C96 1.273 . S
C95 O91 1.246 . S
C95 O92 1.259 . S
C96 O93 1.252 . S
C96 O94 1.273 . S
O97 Mg84 2.010 . S
O97 C89 1.249 . S
Mg98 O99 2.028 . S
Mg98 O105 1.986 . S
Mg98 O107 2.114 . S
Mg98 O108 2.251 . S
Mg98 O111 2.010 . S
O99 Mg98 2.028 . S
O99 C102 1.250 . S
O100 Mg101 2.028 . S
O100 C102 1.248 . S
Mg101 O100 2.028 . S
Mg101 O106 2.032 . S
Mg101 O108 2.079 . S
C102 O99 1.250 . S
C102 O100 1.248 . S
C103 O104 1.264 . S
C103 O111 1.249 . S
O104 C103 1.264 . S
O105 Mg98 1.986 . S
O105 C109 1.246 . S
O106 Mg101 2.032 . S
O106 C109 1.259 . S
O107 Mg98 2.114 . S
O107 C110 1.252 . S
O108 Mg98 2.251 . S
O108 Mg101 2.079 . S
O108 C110 1.273 . S
C109 O105 1.246 . S
C109 O106 1.259 . S
C110 O107 1.252 . S
C110 O108 1.273 . S
O111 Mg98 2.010 . S
O111 C103 1.249 . S
Mg112 O113 2.028 . S
Mg112 O119 1.986 . S
Mg112 O121 2.114 . S
Mg112 O122 2.251 . S
Mg112 O125 2.010 . S
O113 Mg112 2.028 . S
O113 C116 1.250 . S
O114 Mg115 2.028 . S
O114 C116 1.248 . S
Mg115 O114 2.028 . S
Mg115 O120 2.032 . S
Mg115 O122 2.079 . S
C116 O113 1.250 . S
C116 O114 1.248 . S
C117 O118 1.264 . S
C117 O125 1.249 . S
O118 C117 1.264 . S
O119 Mg112 1.986 . S
O119 C123 1.246 . S
O120 Mg115 2.032 . S
O120 C123 1.259 . S
O121 Mg112 2.114 . S
O121 C124 1.252 . S
O122 Mg112 2.251 . S
O122 Mg115 2.079 . S
O122 C124 1.273 . S
C123 O119 1.246 . S
C123 O120 1.259 . S
C124 O121 1.252 . S
C124 O122 1.273 . S
O125 Mg112 2.010 . S
O125 C117 1.249 . S
Mg126 O127 2.028 . S
Mg126 O133 1.986 . S
Mg126 O135 2.114 . S
Mg126 O136 2.251 . S
Mg126 O139 2.010 . S
O127 Mg126 2.028 . S
O127 C130 1.250 . S
O128 Mg129 2.028 . S
O128 C130 1.248 . S
Mg129 O128 2.028 . S
Mg129 O134 2.032 . S
Mg129 O136 2.079 . S
C130 O127 1.250 . S
C130 O128 1.248 . S
C131 O132 1.264 . S
C131 O139 1.249 . S
O132 C131 1.264 . S
O133 Mg126 1.986 . S
O133 C137 1.246 . S
O134 Mg129 2.032 . S
O134 C137 1.259 . S
O135 Mg126 2.114 . S
O135 C138 1.252 . S
O136 Mg126 2.251 . S
O136 Mg129 2.079 . S
O136 C138 1.273 . S
C137 O133 1.246 . S
C137 O134 1.259 . S
C138 O135 1.252 . S
C138 O136 1.273 . S
O139 Mg126 2.010 . S
O139 C131 1.249 . S
Mg140 O141 2.028 . S
Mg140 O147 1.986 . S
Mg140 O149 2.114 . S
Mg140 O150 2.251 . S
Mg140 O153 2.010 . S
O141 Mg140 2.028 . S
O141 C144 1.250 . S
O142 Mg143 2.028 . S
O142 C144 1.248 . S
Mg143 O142 2.028 . S
Mg143 O148 2.032 . S
Mg143 O150 2.079 . S
C144 O141 1.250 . S
C144 O142 1.248 . S
C145 O146 1.264 . S
C145 O153 1.249 . S
O146 C145 1.264 . S
O147 Mg140 1.986 . S
O147 C151 1.246 . S
O148 Mg143 2.032 . S
O148 C151 1.259 . S
O149 Mg140 2.114 . S
O149 C152 1.252 . S
O150 Mg140 2.251 . S
O150 Mg143 2.079 . S
O150 C152 1.273 . S
C151 O147 1.246 . S
C151 O148 1.259 . S
C152 O149 1.252 . S
C152 O150 1.273 . S
O153 Mg140 2.010 . S
O153 C145 1.249 . S
Mg154 O155 2.028 . S
Mg154 O161 1.986 . S
Mg154 O163 2.114 . S
Mg154 O164 2.251 . S
Mg154 O167 2.010 . S
O155 Mg154 2.028 . S
O155 C158 1.250 . S
O156 Mg157 2.028 . S
O156 C158 1.248 . S
Mg157 O156 2.028 . S
Mg157 O162 2.032 . S
Mg157 O164 2.079 . S
C158 O155 1.250 . S
C158 O156 1.248 . S
C159 O160 1.264 . S
C159 O167 1.249 . S
O160 C159 1.264 . S
O161 Mg154 1.986 . S
O161 C165 1.246 . S
O162 Mg157 2.032 . S
O162 C165 1.259 . S
O163 Mg154 2.114 . S
O163 C166 1.252 . S
O164 Mg154 2.251 . S
O164 Mg157 2.079 . S
O164 C166 1.273 . S
C165 O161 1.246 . S
C165 O162 1.259 . S
C166 O163 1.252 . S
C166 O164 1.273 . S
O167 Mg154 2.010 . S
O167 C159 1.249 . S
Mg168 O169 2.028 . S
Mg168 O175 1.986 . S
Mg168 O177 2.114 . S
Mg168 O178 2.251 . S
Mg168 O181 2.010 . S
O169 Mg168 2.028 . S
O169 C172 1.250 . S
O170 Mg171 2.028 . S
O170 C172 1.248 . S
Mg171 O170 2.028 . S
Mg171 O176 2.032 . S
Mg171 O178 2.079 . S
C172 O169 1.250 . S
C172 O170 1.248 . S
C173 O174 1.264 . S
C173 O181 1.249 . S
O174 C173 1.264 . S
O175 Mg168 1.986 . S
O175 C179 1.246 . S
O176 Mg171 2.032 . S
O176 C179 1.259 . S
O177 Mg168 2.114 . S
O177 C180 1.252 . S
O178 Mg168 2.251 . S
O178 Mg171 2.079 . S
O178 C180 1.273 . S
C179 O175 1.246 . S
C179 O176 1.259 . S
C180 O177 1.252 . S
C180 O178 1.273 . S
O181 Mg168 2.010 . S
O181 C173 1.249 . S
Mg182 O183 2.028 . S
Mg182 O189 1.986 . S
Mg182 O191 2.114 . S
Mg182 O192 2.251 . S
Mg182 O195 2.010 . S
O183 Mg182 2.028 . S
O183 C186 1.250 . S
O184 Mg185 2.028 . S
O184 C186 1.248 . S
Mg185 O184 2.028 . S
Mg185 O190 2.032 . S
Mg185 O192 2.079 . S
C186 O183 1.250 . S
C186 O184 1.248 . S
C187 O188 1.264 . S
C187 O195 1.249 . S
O188 C187 1.264 . S
O189 Mg182 1.986 . S
O189 C193 1.246 . S
O190 Mg185 2.032 . S
O190 C193 1.259 . S
O191 Mg182 2.114 . S
O191 C194 1.252 . S
O192 Mg182 2.251 . S
O192 Mg185 2.079 . S
O192 C194 1.273 . S
C193 O189 1.246 . S
C193 O190 1.259 . S
C194 O191 1.252 . S
C194 O192 1.273 . S
O195 Mg182 2.010 . S
O195 C187 1.249 . S
Mg196 O197 2.028 . S
Mg196 O203 1.986 . S
Mg196 O205 2.114 . S
Mg196 O206 2.251 . S
Mg196 O209 2.010 . S
O197 Mg196 2.028 . S
O197 C200 1.250 . S
O198 Mg199 2.028 . S
O198 C200 1.248 . S
Mg199 O198 2.028 . S
Mg199 O204 2.032 . S
Mg199 O206 2.079 . S
C200 O197 1.250 . S
C200 O198 1.248 . S
C201 O202 1.264 . S
C201 O209 1.249 . S
O202 C201 1.264 . S
O203 Mg196 1.986 . S
O203 C207 1.246 . S
O204 Mg199 2.032 . S
O204 C207 1.259 . S
O205 Mg196 2.114 . S
O205 C208 1.252 . S
O206 Mg196 2.251 . S
O206 Mg199 2.079 . S
O206 C208 1.273 . S
C207 O203 1.246 . S
C207 O204 1.259 . S
C208 O205 1.252 . S
C208 O206 1.273 . S
O209 Mg196 2.010 . S
O209 C201 1.249 . S
Mg210 O211 2.028 . S
Mg210 O217 1.986 . S
Mg210 O219 2.114 . S
Mg210 O220 2.251 . S
Mg210 O223 2.010 . S
O211 Mg210 2.028 . S
O211 C214 1.250 . S
O212 Mg213 2.028 . S
O212 C214 1.248 . S
Mg213 O212 2.028 . S
Mg213 O218 2.032 . S
Mg213 O220 2.079 . S
C214 O211 1.250 . S
C214 O212 1.248 . S
C215 O216 1.264 . S
C215 O223 1.249 . S
O216 C215 1.264 . S
O217 Mg210 1.986 . S
O217 C221 1.246 . S
O218 Mg213 2.032 . S
O218 C221 1.259 . S
O219 Mg210 2.114 . S
O219 C222 1.252 . S
O220 Mg210 2.251 . S
O220 Mg213 2.079 . S
O220 C222 1.273 . S
C221 O217 1.246 . S
C221 O218 1.259 . S
C222 O219 1.252 . S
C222 O220 1.273 . S
O223 Mg210 2.010 . S
O223 C215 1.249 . S
Mg224 O225 2.028 . S
Mg224 O231 1.986 . S
Mg224 O233 2.114 . S
Mg224 O234 2.251 . S
Mg224 O237 2.010 . S
O225 Mg224 2.028 . S
O225 C228 1.250 . S
O226 Mg227 2.028 . S
O226 C228 1.248 . S
Mg227 O226 2.028 . S
Mg227 O232 2.032 . S
Mg227 O234 2.079 . S
C228 O225 1.250 . S
C228 O226 1.248 . S
C229 O230 1.264 . S
C229 O237 1.249 . S
O230 C229 1.264 . S
O231 Mg224 1.986 . S
O231 C235 1.246 . S
O232 Mg227 2.032 . S
O232 C235 1.259 . S
O233 Mg224 2.114 . S
O233 C236 1.252 . S
O234 Mg224 2.251 . S
O234 Mg227 2.079 . S
O234 C236 1.273 . S
C235 O231 1.246 . S
C235 O232 1.259 . S
C236 O233 1.252 . S
C236 O234 1.273 . S
O237 Mg224 2.010 . S
O237 C229 1.249 . S
Mg238 O239 2.028 . S
Mg238 O245 1.986 . S
Mg238 O247 2.114 . S
Mg238 O248 2.251 . S
Mg238 O251 2.010 . S
O239 Mg238 2.028 . S
O239 C242 1.250 . S
O240 Mg241 2.028 . S
O240 C242 1.248 . S
Mg241 O240 2.028 . S
Mg241 O246 2.032 . S
Mg241 O248 2.079 . S
C242 O239 1.250 . S
C242 O240 1.248 . S
C243 O244 1.264 . S
C243 O251 1.249 . S
O244 C243 1.264 . S
O245 Mg238 1.986 . S
O245 C249 1.246 . S
O246 Mg241 2.032 . S
O246 C249 1.259 . S
O247 Mg238 2.114 . S
O247 C250 1.252 . S
O248 Mg238 2.251 . S
O248 Mg241 2.079 . S
O248 C250 1.273 . S
C249 O245 1.246 . S
C249 O246 1.259 . S
C250 O247 1.252 . S
C250 O248 1.273 . S
O251 Mg238 2.010 . S
O251 C243 1.249 . S
Mg252 O253 2.028 . S
Mg252 O259 1.986 . S
Mg252 O261 2.114 . S
Mg252 O262 2.251 . S
Mg252 O265 2.010 . S
O253 Mg252 2.028 . S
O253 C256 1.250 . S
O254 Mg255 2.028 . S
O254 C256 1.248 . S
Mg255 O254 2.028 . S
Mg255 O260 2.032 . S
Mg255 O262 2.079 . S
C256 O253 1.250 . S
C256 O254 1.248 . S
C257 O258 1.264 . S
C257 O265 1.249 . S
O258 C257 1.264 . S
O259 Mg252 1.986 . S
O259 C263 1.246 . S
O260 Mg255 2.032 . S
O260 C263 1.259 . S
O261 Mg252 2.114 . S
O261 C264 1.252 . S
O262 Mg252 2.251 . S
O262 Mg255 2.079 . S
O262 C264 1.273 . S
C263 O259 1.246 . S
C263 O260 1.259 . S
C264 O261 1.252 . S
C264 O262 1.273 . S
O265 Mg252 2.010 . S
O265 C257 1.249 . S
Mg266 O267 2.028 . S
Mg266 O273 1.986 . S
Mg266 O275 2.114 . S
Mg266 O276 2.251 . S
Mg266 O279 2.010 . S
O267 Mg266 2.028 . S
O267 C270 1.250 . S
O268 Mg269 2.028 . S
O268 C270 1.248 . S
Mg269 O268 2.028 . S
Mg269 O274 2.032 . S
Mg269 O276 2.079 . S
C270 O267 1.250 . S
C270 O268 1.248 . S
C271 O272 1.264 . S
C271 O279 1.249 . S
O272 C271 1.264 . S
O273 Mg266 1.986 . S
O273 C277 1.246 . S
O274 Mg269 2.032 . S
O274 C277 1.259 . S
O275 Mg266 2.114 . S
O275 C278 1.252 . S
O276 Mg266 2.251 . S
O276 Mg269 2.079 . S
O276 C278 1.273 . S
C277 O273 1.246 . S
C277 O274 1.259 . S
C278 O275 1.252 . S
C278 O276 1.273 . S
O279 Mg266 2.010 . S
O279 C271 1.249 . S
Mg280 O281 2.028 . S
Mg280 O287 1.986 . S
Mg280 O289 2.114 . S
Mg280 O290 2.251 . S
Mg280 O293 2.010 . S
O281 Mg280 2.028 . S
O281 C284 1.250 . S
O282 Mg283 2.028 . S
O282 C284 1.248 . S
Mg283 O282 2.028 . S
Mg283 O288 2.032 . S
Mg283 O290 2.079 . S
C284 O281 1.250 . S
C284 O282 1.248 . S
C285 O286 1.264 . S
C285 O293 1.249 . S
O286 C285 1.264 . S
O287 Mg280 1.986 . S
O287 C291 1.246 . S
O288 Mg283 2.032 . S
O288 C291 1.259 . S
O289 Mg280 2.114 . S
O289 C292 1.252 . S
O290 Mg280 2.251 . S
O290 Mg283 2.079 . S
O290 C292 1.273 . S
C291 O287 1.246 . S
C291 O288 1.259 . S
C292 O289 1.252 . S
C292 O290 1.273 . S
O293 Mg280 2.010 . S
O293 C285 1.249 . S
Mg294 O295 2.028 . S
Mg294 O301 1.986 . S
Mg294 O303 2.114 . S
Mg294 O304 2.251 . S
Mg294 O307 2.010 . S
O295 Mg294 2.028 . S
O295 C298 1.250 . S
O296 Mg297 2.028 . S
O296 C298 1.248 . S
Mg297 O296 2.028 . S
Mg297 O302 2.032 . S
Mg297 O304 2.079 . S
C298 O295 1.250 . S
C298 O296 1.248 . S
C299 O300 1.264 . S
C299 O307 1.249 . S
O300 C299 1.264 . S
O301 Mg294 1.986 . S
O301 C305 1.246 . S
O302 Mg297 2.032 . S
O302 C305 1.259 . S
O303 Mg294 2.114 . S
O303 C306 1.252 . S
O304 Mg294 2.251 . S
O304 Mg297 2.079 . S
O304 C306 1.273 . S
C305 O301 1.246 . S
C305 O302 1.259 . S
C306 O303 1.252 . S
C306 O304 1.273 . S
O307 Mg294 2.010 . S
O307 C299 1.249 . S
Mg308 O309 2.028 . S
Mg308 O315 1.986 . S
Mg308 O317 2.114 . S
Mg308 O318 2.251 . S
Mg308 O321 2.010 . S
O309 Mg308 2.028 . S
O309 C312 1.250 . S
O310 Mg311 2.028 . S
O310 C312 1.248 . S
Mg311 O310 2.028 . S
Mg311 O316 2.032 . S
Mg311 O318 2.079 . S
C312 O309 1.250 . S
C312 O310 1.248 . S
C313 O314 1.264 . S
C313 O321 1.249 . S
O314 C313 1.264 . S
O315 Mg308 1.986 . S
O315 C319 1.246 . S
O316 Mg311 2.032 . S
O316 C319 1.259 . S
O317 Mg308 2.114 . S
O317 C320 1.252 . S
O318 Mg308 2.251 . S
O318 Mg311 2.079 . S
O318 C320 1.273 . S
C319 O315 1.246 . S
C319 O316 1.259 . S
C320 O317 1.252 . S
C320 O318 1.273 . S
O321 Mg308 2.010 . S
O321 C313 1.249 . S
Mg322 O323 2.028 . S
Mg322 O329 1.986 . S
Mg322 O331 2.114 . S
Mg322 O332 2.251 . S
Mg322 O335 2.010 . S
O323 Mg322 2.028 . S
O323 C326 1.250 . S
O324 Mg325 2.028 . S
O324 C326 1.248 . S
Mg325 O324 2.028 . S
Mg325 O330 2.032 . S
Mg325 O332 2.079 . S
C326 O323 1.250 . S
C326 O324 1.248 . S
C327 O328 1.264 . S
C327 O335 1.249 . S
O328 C327 1.264 . S
O329 Mg322 1.986 . S
O329 C333 1.246 . S
O330 Mg325 2.032 . S
O330 C333 1.259 . S
O331 Mg322 2.114 . S
O331 C334 1.252 . S
O332 Mg322 2.251 . S
O332 Mg325 2.079 . S
O332 C334 1.273 . S
C333 O329 1.246 . S
C333 O330 1.259 . S
C334 O331 1.252 . S
C334 O332 1.273 . S
O335 Mg322 2.010 . S
O335 C327 1.249 . S
Mg336 O337 2.028 . S
Mg336 O343 1.986 . S
Mg336 O345 2.114 . S
Mg336 O346 2.251 . S
Mg336 O349 2.010 . S
O337 Mg336 2.028 . S
O337 C340 1.250 . S
O338 Mg339 2.028 . S
O338 C340 1.248 . S
Mg339 O338 2.028 . S
Mg339 O344 2.032 . S
Mg339 O346 2.079 . S
C340 O337 1.250 . S
C340 O338 1.248 . S
C341 O342 1.264 . S
C341 O349 1.249 . S
O342 C341 1.264 . S
O343 Mg336 1.986 . S
O343 C347 1.246 . S
O344 Mg339 2.032 . S
O344 C347 1.259 . S
O345 Mg336 2.114 . S
O345 C348 1.252 . S
O346 Mg336 2.251 . S
O346 Mg339 2.079 . S
O346 C348 1.273 . S
C347 O343 1.246 . S
C347 O344 1.259 . S
C348 O345 1.252 . S
C348 O346 1.273 . S
O349 Mg336 2.010 . S
O349 C341 1.249 . S
Mg350 O351 2.028 . S
Mg350 O357 1.986 . S
Mg350 O359 2.114 . S
Mg350 O360 2.251 . S
Mg350 O363 2.010 . S
O351 Mg350 2.028 . S
O351 C354 1.250 . S
O352 Mg353 2.028 . S
O352 C354 1.248 . S
Mg353 O352 2.028 . S
Mg353 O358 2.032 . S
Mg353 O360 2.079 . S
C354 O351 1.250 . S
C354 O352 1.248 . S
C355 O356 1.264 . S
C355 O363 1.249 . S
O356 C355 1.264 . S
O357 Mg350 1.986 . S
O357 C361 1.246 . S
O358 Mg353 2.032 . S
O358 C361 1.259 . S
O359 Mg350 2.114 . S
O359 C362 1.252 . S
O360 Mg350 2.251 . S
O360 Mg353 2.079 . S
O360 C362 1.273 . S
C361 O357 1.246 . S
C361 O358 1.259 . S
C362 O359 1.252 . S
C362 O360 1.273 . S
O363 Mg350 2.010 . S
O363 C355 1.249 . S
Mg364 O365 2.028 . S
Mg364 O371 1.986 . S
Mg364 O373 2.114 . S
Mg364 O374 2.251 . S
Mg364 O377 2.010 . S
O365 Mg364 2.028 . S
O365 C368 1.250 . S
O366 Mg367 2.028 . S
O366 C368 1.248 . S
Mg367 O366 2.028 . S
Mg367 O372 2.032 . S
Mg367 O374 2.079 . S
C368 O365 1.250 . S
C368 O366 1.248 . S
C369 O370 1.264 . S
C369 O377 1.249 . S
O370 C369 1.264 . S
O371 Mg364 1.986 . S
O371 C375 1.246 . S
O372 Mg367 2.032 . S
O372 C375 1.259 . S
O373 Mg364 2.114 . S
O373 C376 1.252 . S
O374 Mg364 2.251 . S
O374 Mg367 2.079 . S
O374 C376 1.273 . S
C375 O371 1.246 . S
C375 O372 1.259 . S
C376 O373 1.252 . S
C376 O374 1.273 . S
O377 Mg364 2.010 . S
O377 C369 1.249 . S
Mg378 O379 2.028 . S
Mg378 O385 1.986 . S
Mg378 O387 2.114 . S
Mg378 O388 2.251 . S
Mg378 O391 2.010 . S
O379 Mg378 2.028 . S
O379 C382 1.250 . S
O380 Mg381 2.028 . S
O380 C382 1.248 . S
Mg381 O380 2.028 . S
Mg381 O386 2.032 . S
Mg381 O388 2.079 . S
C382 O379 1.250 . S
C382 O380 1.248 . S
C383 O384 1.264 . S
C383 O391 1.249 . S
O384 C383 1.264 . S
O385 Mg378 1.986 . S
O385 C389 1.246 . S
O386 Mg381 2.032 . S
O386 C389 1.259 . S
O387 Mg378 2.114 . S
O387 C390 1.252 . S
O388 Mg378 2.251 . S
O388 Mg381 2.079 . S
O388 C390 1.273 . S
C389 O385 1.246 . S
C389 O386 1.259 . S
C390 O387 1.252 . S
C390 O388 1.273 . S
O391 Mg378 2.010 . S
O391 C383 1.249 . S
Mg392 O393 2.028 . S
Mg392 O399 1.986 . S
Mg392 O401 2.114 . S
Mg392 O402 2.251 . S
Mg392 O405 2.010 . S
O393 Mg392 2.028 . S
O393 C396 1.250 . S
O394 Mg395 2.028 . S
O394 C396 1.248 . S
Mg395 O394 2.028 . S
Mg395 O400 2.032 . S
Mg395 O402 2.079 . S
C396 O393 1.250 . S
C396 O394 1.248 . S
C397 O398 1.264 . S
C397 O405 1.249 . S
O398 C397 1.264 . S
O399 Mg392 1.986 . S
O399 C403 1.246 . S
O400 Mg395 2.032 . S
O400 C403 1.259 . S
O401 Mg392 2.114 . S
O401 C404 1.252 . S
O402 Mg392 2.251 . S
O402 Mg395 2.079 . S
O402 C404 1.273 . S
C403 O399 1.246 . S
C403 O400 1.259 . S
C404 O401 1.252 . S
C404 O402 1.273 . S
O405 Mg392 2.010 . S
O405 C397 1.249 . S
Mg406 O407 2.028 . S
Mg406 O413 1.986 . S
Mg406 O415 2.114 . S
Mg406 O416 2.251 . S
Mg406 O419 2.010 . S
O407 Mg406 2.028 . S
O407 C410 1.250 . S
O408 Mg409 2.028 . S
O408 C410 1.248 . S
Mg409 O408 2.028 . S
Mg409 O414 2.032 . S
Mg409 O416 2.079 . S
C410 O407 1.250 . S
C410 O408 1.248 . S
C411 O412 1.264 . S
C411 O419 1.249 . S
O412 C411 1.264 . S
O413 Mg406 1.986 . S
O413 C417 1.246 . S
O414 Mg409 2.032 . S
O414 C417 1.259 . S
O415 Mg406 2.114 . S
O415 C418 1.252 . S
O416 Mg406 2.251 . S
O416 Mg409 2.079 . S
O416 C418 1.273 . S
C417 O413 1.246 . S
C417 O414 1.259 . S
C418 O415 1.252 . S
C418 O416 1.273 . S
O419 Mg406 2.010 . S
O419 C411 1.249 . S
Mg420 O421 2.028 . S
Mg420 O427 1.986 . S
Mg420 O429 2.114 . S
Mg420 O430 2.251 . S
Mg420 O433 2.010 . S
O421 Mg420 2.028 . S
O421 C424 1.250 . S
O422 Mg423 2.028 . S
O422 C424 1.248 . S
Mg423 O422 2.028 . S
Mg423 O428 2.032 . S
Mg423 O430 2.079 . S
C424 O421 1.250 . S
C424 O422 1.248 . S
C425 O426 1.264 . S
C425 O433 1.249 . S
O426 C425 1.264 . S
O427 Mg420 1.986 . S
O427 C431 1.246 . S
O428 Mg423 2.032 . S
O428 C431 1.259 . S
O429 Mg420 2.114 . S
O429 C432 1.252 . S
O430 Mg420 2.251 . S
O430 Mg423 2.079 . S
O430 C432 1.273 . S
C431 O427 1.246 . S
C431 O428 1.259 . S
C432 O429 1.252 . S
C432 O430 1.273 . S
O433 Mg420 2.010 . S
O433 C425 1.249 . S
Mg434 O435 2.028 . S
Mg434 O441 1.986 . S
Mg434 O443 2.114 . S
Mg434 O444 2.251 . S
Mg434 O447 2.010 . S
O435 Mg434 2.028 . S
O435 C438 1.250 . S
O436 Mg437 2.028 . S
O436 C438 1.248 . S
Mg437 O436 2.028 . S
Mg437 O442 2.032 . S
Mg437 O444 2.079 . S
C438 O435 1.250 . S
C438 O436 1.248 . S
C439 O440 1.264 . S
C439 O447 1.249 . S
O440 C439 1.264 . S
O441 Mg434 1.986 . S
O441 C445 1.246 . S
O442 Mg437 2.032 . S
O442 C445 1.259 . S
O443 Mg434 2.114 . S
O443 C446 1.252 . S
O444 Mg434 2.251 . S
O444 Mg437 2.079 . S
O444 C446 1.273 . S
C445 O441 1.246 . S
C445 O442 1.259 . S
C446 O443 1.252 . S
C446 O444 1.273 . S
O447 Mg434 2.010 . S
O447 C439 1.249 . S
Mg448 O449 2.028 . S
Mg448 O455 1.986 . S
Mg448 O457 2.114 . S
Mg448 O458 2.251 . S
Mg448 O461 2.010 . S
O449 Mg448 2.028 . S
O449 C452 1.250 . S
O450 Mg451 2.028 . S
O450 C452 1.248 . S
Mg451 O450 2.028 . S
Mg451 O456 2.032 . S
Mg451 O458 2.079 . S
C452 O449 1.250 . S
C452 O450 1.248 . S
C453 O454 1.264 . S
C453 O461 1.249 . S
O454 C453 1.264 . S
O455 Mg448 1.986 . S
O455 C459 1.246 . S
O456 Mg451 2.032 . S
O456 C459 1.259 . S
O457 Mg448 2.114 . S
O457 C460 1.252 . S
O458 Mg448 2.251 . S
O458 Mg451 2.079 . S
O458 C460 1.273 . S
C459 O455 1.246 . S
C459 O456 1.259 . S
C460 O457 1.252 . S
C460 O458 1.273 . S
O461 Mg448 2.010 . S
O461 C453 1.249 . S
Mg462 O463 2.028 . S
Mg462 O469 1.986 . S
Mg462 O471 2.114 . S
Mg462 O472 2.251 . S
Mg462 O475 2.010 . S
O463 Mg462 2.028 . S
O463 C466 1.250 . S
O464 Mg465 2.028 . S
O464 C466 1.248 . S
Mg465 O464 2.028 . S
Mg465 O470 2.032 . S
Mg465 O472 2.079 . S
C466 O463 1.250 . S
C466 O464 1.248 . S
C467 O468 1.264 . S
C467 O475 1.249 . S
O468 C467 1.264 . S
O469 Mg462 1.986 . S
O469 C473 1.246 . S
O470 Mg465 2.032 . S
O470 C473 1.259 . S
O471 Mg462 2.114 . S
O471 C474 1.252 . S
O472 Mg462 2.251 . S
O472 Mg465 2.079 . S
O472 C474 1.273 . S
C473 O469 1.246 . S
C473 O470 1.259 . S
C474 O471 1.252 . S
C474 O472 1.273 . S
O475 Mg462 2.010 . S
O475 C467 1.249 . S
Mg476 O477 2.028 . S
Mg476 O483 1.986 . S
Mg476 O485 2.114 . S
Mg476 O486 2.251 . S
Mg476 O489 2.010 . S
O477 Mg476 2.028 . S
O477 C480 1.250 . S
O478 Mg479 2.028 . S
O478 C480 1.248 . S
Mg479 O478 2.028 . S
Mg479 O484 2.032 . S
Mg479 O486 2.079 . S
C480 O477 1.250 . S
C480 O478 1.248 . S
C481 O482 1.264 . S
C481 O489 1.249 . S
O482 C481 1.264 . S
O483 Mg476 1.986 . S
O483 C487 1.246 . S
O484 Mg479 2.032 . S
O484 C487 1.259 . S
O485 Mg476 2.114 . S
O485 C488 1.252 . S
O486 Mg476 2.251 . S
O486 Mg479 2.079 . S
O486 C488 1.273 . S
C487 O483 1.246 . S
C487 O484 1.259 . S
C488 O485 1.252 . S
C488 O486 1.273 . S
O489 Mg476 2.010 . S
O489 C481 1.249 . S
Mg490 O491 2.028 . S
Mg490 O497 1.986 . S
Mg490 O499 2.114 . S
Mg490 O500 2.251 . S
Mg490 O503 2.010 . S
O491 Mg490 2.028 . S
O491 C494 1.250 . S
O492 Mg493 2.028 . S
O492 C494 1.248 . S
Mg493 O492 2.028 . S
Mg493 O498 2.032 . S
Mg493 O500 2.079 . S
C494 O491 1.250 . S
C494 O492 1.248 . S
C495 O496 1.264 . S
C495 O503 1.249 . S
O496 C495 1.264 . S
O497 Mg490 1.986 . S
O497 C501 1.246 . S
O498 Mg493 2.032 . S
O498 C501 1.259 . S
O499 Mg490 2.114 . S
O499 C502 1.252 . S
O500 Mg490 2.251 . S
O500 Mg493 2.079 . S
O500 C502 1.273 . S
C501 O497 1.246 . S
C501 O498 1.259 . S
C502 O499 1.252 . S
C502 O500 1.273 . S
O503 Mg490 2.010 . S
O503 C495 1.249 . S
Mg504 O505 2.028 . S
Mg504 O511 1.986 . S
Mg504 O513 2.114 . S
Mg504 O514 2.251 . S
Mg504 O517 2.010 . S
O505 Mg504 2.028 . S
O505 C508 1.250 . S
O506 Mg507 2.028 . S
O506 C508 1.248 . S
Mg507 O506 2.028 . S
Mg507 O512 2.032 . S
Mg507 O514 2.079 . S
C508 O505 1.250 . S
C508 O506 1.248 . S
C509 O510 1.264 . S
C509 O517 1.249 . S
O510 C509 1.264 . S
O511 Mg504 1.986 . S
O511 C515 1.246 . S
O512 Mg507 2.032 . S
O512 C515 1.259 . S
O513 Mg504 2.114 . S
O513 C516 1.252 . S
O514 Mg504 2.251 . S
O514 Mg507 2.079 . S
O514 C516 1.273 . S
C515 O511 1.246 . S
C515 O512 1.259 . S
C516 O513 1.252 . S
C516 O514 1.273 . S
O517 Mg504 2.010 . S
O517 C509 1.249 . S
Mg518 O519 2.028 . S
Mg518 O525 1.986 . S
Mg518 O527 2.114 . S
Mg518 O528 2.251 . S
Mg518 O531 2.010 . S
O519 Mg518 2.028 . S
O519 C522 1.250 . S
O520 Mg521 2.028 . S
O520 C522 1.248 . S
Mg521 O520 2.028 . S
Mg521 O526 2.032 . S
Mg521 O528 2.079 . S
C522 O519 1.250 . S
C522 O520 1.248 . S
C523 O524 1.264 . S
C523 O531 1.249 . S
O524 C523 1.264 . S
O525 Mg518 1.986 . S
O525 C529 1.246 . S
O526 Mg521 2.032 . S
O526 C529 1.259 . S
O527 Mg518 2.114 . S
O527 C530 1.252 . S
O528 Mg518 2.251 . S
O528 Mg521 2.079 . S
O528 C530 1.273 . S
C529 O525 1.246 . S
C529 O526 1.259 . S
C530 O527 1.252 . S
C530 O528 1.273 . S
O531 Mg518 2.010 . S
O531 C523 1.249 . S
Mg532 O533 2.028 . S
Mg532 O539 1.986 . S
Mg532 O541 2.114 . S
Mg532 O542 2.251 . S
Mg532 O545 2.010 . S
O533 Mg532 2.028 . S
O533 C536 1.250 . S
O534 Mg535 2.028 . S
O534 C536 1.248 . S
Mg535 O534 2.028 . S
Mg535 O540 2.032 . S
Mg535 O542 2.079 . S
C536 O533 1.250 . S
C536 O534 1.248 . S
C537 O538 1.264 . S
C537 O545 1.249 . S
O538 C537 1.264 . S
O539 Mg532 1.986 . S
O539 C543 1.246 . S
O540 Mg535 2.032 . S
O540 C543 1.259 . S
O541 Mg532 2.114 . S
O541 C544 1.252 . S
O542 Mg532 2.251 . S
O542 Mg535 2.079 . S
O542 C544 1.273 . S
C543 O539 1.246 . S
C543 O540 1.259 . S
C544 O541 1.252 . S
C544 O542 1.273 . S
O545 Mg532 2.010 . S
O545 C537 1.249 . S
Mg546 O547 2.028 . S
Mg546 O553 1.986 . S
Mg546 O555 2.114 . S
Mg546 O556 2.251 . S
Mg546 O559 2.010 . S
O547 Mg546 2.028 . S
O547 C550 1.250 . S
O548 Mg549 2.028 . S
O548 C550 1.248 . S
Mg549 O548 2.028 . S
Mg549 O554 2.032 . S
Mg549 O556 2.079 . S
C550 O547 1.250 . S
C550 O548 1.248 . S
C551 O552 1.264 . S
C551 O559 1.249 . S
O552 C551 1.264 . S
O553 Mg546 1.986 . S
O553 C557 1.246 . S
O554 Mg549 2.032 . S
O554 C557 1.259 . S
O555 Mg546 2.114 . S
O555 C558 1.252 . S
O556 Mg546 2.251 . S
O556 Mg549 2.079 . S
O556 C558 1.273 . S
C557 O553 1.246 . S
C557 O554 1.259 . S
C558 O555 1.252 . S
C558 O556 1.273 . S
O559 Mg546 2.010 . S
O559 C551 1.249 . S
Mg560 O561 2.028 . S
Mg560 O567 1.986 . S
Mg560 O569 2.114 . S
Mg560 O570 2.251 . S
Mg560 O573 2.010 . S
O561 Mg560 2.028 . S
O561 C564 1.250 . S
O562 Mg563 2.028 . S
O562 C564 1.248 . S
Mg563 O562 2.028 . S
Mg563 O568 2.032 . S
Mg563 O570 2.079 . S
C564 O561 1.250 . S
C564 O562 1.248 . S
C565 O566 1.264 . S
C565 O573 1.249 . S
O566 C565 1.264 . S
O567 Mg560 1.986 . S
O567 C571 1.246 . S
O568 Mg563 2.032 . S
O568 C571 1.259 . S
O569 Mg560 2.114 . S
O569 C572 1.252 . S
O570 Mg560 2.251 . S
O570 Mg563 2.079 . S
O570 C572 1.273 . S
C571 O567 1.246 . S
C571 O568 1.259 . S
C572 O569 1.252 . S
C572 O570 1.273 . S
O573 Mg560 2.010 . S
O573 C565 1.249 . S
Mg574 O575 2.028 . S
Mg574 O581 1.986 . S
Mg574 O583 2.114 . S
Mg574 O584 2.251 . S
Mg574 O587 2.010 . S
O575 Mg574 2.028 . S
O575 C578 1.250 . S
O576 Mg577 2.028 . S
O576 C578 1.248 . S
Mg577 O576 2.028 . S
Mg577 O582 2.032 . S
Mg577 O584 2.079 . S
C578 O575 1.250 . S
C578 O576 1.248 . S
C579 O580 1.264 . S
C579 O587 1.249 . S
O580 C579 1.264 . S
O581 Mg574 1.986 . S
O581 C585 1.246 . S
O582 Mg577 2.032 . S
O582 C585 1.259 . S
O583 Mg574 2.114 . S
O583 C586 1.252 . S
O584 Mg574 2.251 . S
O584 Mg577 2.079 . S
O584 C586 1.273 . S
C585 O581 1.246 . S
C585 O582 1.259 . S
C586 O583 1.252 . S
C586 O584 1.273 . S
O587 Mg574 2.010 . S
O587 C579 1.249 . S
Mg588 O589 2.028 . S
Mg588 O595 1.986 . S
Mg588 O597 2.114 . S
Mg588 O598 2.251 . S
Mg588 O601 2.010 . S
O589 Mg588 2.028 . S
O589 C592 1.250 . S
O590 Mg591 2.028 . S
O590 C592 1.248 . S
Mg591 O590 2.028 . S
Mg591 O596 2.032 . S
Mg591 O598 2.079 . S
C592 O589 1.250 . S
C592 O590 1.248 . S
C593 O594 1.264 . S
C593 O601 1.249 . S
O594 C593 1.264 . S
O595 Mg588 1.986 . S
O595 C599 1.246 . S
O596 Mg591 2.032 . S
O596 C599 1.259 . S
O597 Mg588 2.114 . S
O597 C600 1.252 . S
O598 Mg588 2.251 . S
O598 Mg591 2.079 . S
O598 C600 1.273 . S
C599 O595 1.246 . S
C599 O596 1.259 . S
C600 O597 1.252 . S
C600 O598 1.273 . S
O601 Mg588 2.010 . S
O601 C593 1.249 . S
Mg602 O603 2.028 . S
Mg602 O609 1.986 . S
Mg602 O611 2.114 . S
Mg602 O612 2.251 . S
Mg602 O615 2.010 . S
O603 Mg602 2.028 . S
O603 C606 1.250 . S
O604 Mg605 2.028 . S
O604 C606 1.248 . S
Mg605 O604 2.028 . S
Mg605 O610 2.032 . S
Mg605 O612 2.079 . S
C606 O603 1.250 . S
C606 O604 1.248 . S
C607 O608 1.264 . S
C607 O615 1.249 . S
O608 C607 1.264 . S
O609 Mg602 1.986 . S
O609 C613 1.246 . S
O610 Mg605 2.032 . S
O610 C613 1.259 . S
O611 Mg602 2.114 . S
O611 C614 1.252 . S
O612 Mg602 2.251 . S
O612 Mg605 2.079 . S
O612 C614 1.273 . S
C613 O609 1.246 . S
C613 O610 1.259 . S
C614 O611 1.252 . S
C614 O612 1.273 . S
O615 Mg602 2.010 . S
O615 C607 1.249 . S
Mg616 O617 2.028 . S
Mg616 O623 1.986 . S
Mg616 O625 2.114 . S
Mg616 O626 2.251 . S
Mg616 O629 2.010 . S
O617 Mg616 2.028 . S
O617 C620 1.250 . S
O618 Mg619 2.028 . S
O618 C620 1.248 . S
Mg619 O618 2.028 . S
Mg619 O624 2.032 . S
Mg619 O626 2.079 . S
C620 O617 1.250 . S
C620 O618 1.248 . S
C621 O622 1.264 . S
C621 O629 1.249 . S
O622 C621 1.264 . S
O623 Mg616 1.986 . S
O623 C627 1.246 . S
O624 Mg619 2.032 . S
O624 C627 1.259 . S
O625 Mg616 2.114 . S
O625 C628 1.252 . S
O626 Mg616 2.251 . S
O626 Mg619 2.079 . S
O626 C628 1.273 . S
C627 O623 1.246 . S
C627 O624 1.259 . S
C628 O625 1.252 . S
C628 O626 1.273 . S
O629 Mg616 2.010 . S
O629 C621 1.249 . S
Mg630 O631 2.028 . S
Mg630 O637 1.986 . S
Mg630 O639 2.114 . S
Mg630 O640 2.251 . S
Mg630 O643 2.010 . S
O631 Mg630 2.028 . S
O631 C634 1.250 . S
O632 Mg633 2.028 . S
O632 C634 1.248 . S
Mg633 O632 2.028 . S
Mg633 O638 2.032 . S
Mg633 O640 2.079 . S
C634 O631 1.250 . S
C634 O632 1.248 . S
C635 O636 1.264 . S
C635 O643 1.249 . S
O636 C635 1.264 . S
O637 Mg630 1.986 . S
O637 C641 1.246 . S
O638 Mg633 2.032 . S
O638 C641 1.259 . S
O639 Mg630 2.114 . S
O639 C642 1.252 . S
O640 Mg630 2.251 . S
O640 Mg633 2.079 . S
O640 C642 1.273 . S
C641 O637 1.246 . S
C641 O638 1.259 . S
C642 O639 1.252 . S
C642 O640 1.273 . S
O643 Mg630 2.010 . S
O643 C635 1.249 . S
Mg644 O645 2.028 . S
Mg644 O651 1.986 . S
Mg644 O653 2.114 . S
Mg644 O654 2.251 . S
Mg644 O657 2.010 . S
O645 Mg644 2.028 . S
O645 C648 1.250 . S
O646 Mg647 2.028 . S
O646 C648 1.248 . S
Mg647 O646 2.028 . S
Mg647 O652 2.032 . S
Mg647 O654 2.079 . S
C648 O645 1.250 . S
C648 O646 1.248 . S
C649 O650 1.264 . S
C649 O657 1.249 . S
O650 C649 1.264 . S
O651 Mg644 1.986 . S
O651 C655 1.246 . S
O652 Mg647 2.032 . S
O652 C655 1.259 . S
O653 Mg644 2.114 . S
O653 C656 1.252 . S
O654 Mg644 2.251 . S
O654 Mg647 2.079 . S
O654 C656 1.273 . S
C655 O651 1.246 . S
C655 O652 1.259 . S
C656 O653 1.252 . S
C656 O654 1.273 . S
O657 Mg644 2.010 . S
O657 C649 1.249 . S
Mg658 O659 2.028 . S
Mg658 O665 1.986 . S
Mg658 O667 2.114 . S
Mg658 O668 2.251 . S
Mg658 O671 2.010 . S
O659 Mg658 2.028 . S
O659 C662 1.250 . S
O660 Mg661 2.028 . S
O660 C662 1.248 . S
Mg661 O660 2.028 . S
Mg661 O666 2.032 . S
Mg661 O668 2.079 . S
C662 O659 1.250 . S
C662 O660 1.248 . S
C663 O664 1.264 . S
C663 O671 1.249 . S
O664 C663 1.264 . S
O665 Mg658 1.986 . S
O665 C669 1.246 . S
O666 Mg661 2.032 . S
O666 C669 1.259 . S
O667 Mg658 2.114 . S
O667 C670 1.252 . S
O668 Mg658 2.251 . S
O668 Mg661 2.079 . S
O668 C670 1.273 . S
C669 O665 1.246 . S
C669 O666 1.259 . S
C670 O667 1.252 . S
C670 O668 1.273 . S
O671 Mg658 2.010 . S
O671 C663 1.249 . S
C672 C673 1.369 . S
C672 C674 1.419 . S
C672 H676 0.930 . S
C673 C672 1.369 . S
C673 C682 1.429 . S
C674 C672 1.419 . S
C674 C675 1.363 . S
C674 H677 0.929 . S
C675 C674 1.363 . S
C675 C681 1.428 . S
H676 C672 0.930 . S
H677 C674 0.929 . S
S678 N679 1.613 . S
S678 N680 1.610 . S
N679 S678 1.613 . S
N679 C682 1.350 . S
N680 S678 1.610 . S
N680 C681 1.351 . S
C681 C675 1.428 . S
C681 N680 1.351 . S
C681 C682 1.434 . S
C682 C673 1.429 . S
C682 N679 1.350 . S
C682 C681 1.434 . S
C683 C684 1.369 . S
C683 C685 1.419 . S
C683 H687 0.930 . S
C684 C683 1.369 . S
C684 C693 1.429 . S
C685 C683 1.419 . S
C685 C686 1.363 . S
C685 H688 0.929 . S
C686 C685 1.363 . S
C686 C692 1.428 . S
H687 C683 0.930 . S
H688 C685 0.929 . S
S689 N690 1.613 . S
S689 N691 1.610 . S
N690 S689 1.613 . S
N690 C693 1.350 . S
N691 S689 1.610 . S
N691 C692 1.351 . S
C692 C686 1.428 . S
C692 N691 1.351 . S
C692 C693 1.434 . S
C693 C684 1.429 . S
C693 N690 1.350 . S
C693 C692 1.434 . S
C694 C695 1.369 . S
C694 C696 1.419 . S
C694 H698 0.930 . S
C695 C694 1.369 . S
C695 C704 1.429 . S
C696 C694 1.419 . S
C696 C697 1.363 . S
C696 H699 0.929 . S
C697 C696 1.363 . S
C697 C703 1.428 . S
H698 C694 0.930 . S
H699 C696 0.929 . S
S700 N701 1.613 . S
S700 N702 1.610 . S
N701 S700 1.613 . S
N701 C704 1.350 . S
N702 S700 1.610 . S
N702 C703 1.351 . S
C703 C697 1.428 . S
C703 N702 1.351 . S
C703 C704 1.434 . S
C704 C695 1.429 . S
C704 N701 1.350 . S
C704 C703 1.434 . S
C705 C706 1.369 . S
C705 C707 1.419 . S
C705 H709 0.930 . S
C706 C705 1.369 . S
C706 C715 1.429 . S
C707 C705 1.419 . S
C707 C708 1.363 . S
C707 H710 0.929 . S
C708 C707 1.363 . S
C708 C714 1.428 . S
H709 C705 0.930 . S
H710 C707 0.929 . S
S711 N712 1.613 . S
S711 N713 1.610 . S
N712 S711 1.613 . S
N712 C715 1.350 . S
N713 S711 1.610 . S
N713 C714 1.351 . S
C714 C708 1.428 . S
C714 N713 1.351 . S
C714 C715 1.434 . S
C715 C706 1.429 . S
C715 N712 1.350 . S
C715 C714 1.434 . S
C716 C717 1.369 . S
C716 C718 1.419 . S
C716 H720 0.930 . S
C717 C716 1.369 . S
C717 C726 1.429 . S
C718 C716 1.419 . S
C718 C719 1.363 . S
C718 H721 0.929 . S
C719 C718 1.363 . S
C719 C725 1.428 . S
H720 C716 0.930 . S
H721 C718 0.929 . S
S722 N723 1.613 . S
S722 N724 1.610 . S
N723 S722 1.613 . S
N723 C726 1.350 . S
N724 S722 1.610 . S
N724 C725 1.351 . S
C725 C719 1.428 . S
C725 N724 1.351 . S
C725 C726 1.434 . S
C726 C717 1.429 . S
C726 N723 1.350 . S
C726 C725 1.434 . S
C727 C728 1.369 . S
C727 C729 1.419 . S
C727 H731 0.930 . S
C728 C727 1.369 . S
C728 C737 1.429 . S
C729 C727 1.419 . S
C729 C730 1.363 . S
C729 H732 0.929 . S
C730 C729 1.363 . S
C730 C736 1.428 . S
H731 C727 0.930 . S
H732 C729 0.929 . S
S733 N734 1.613 . S
S733 N735 1.610 . S
N734 S733 1.613 . S
N734 C737 1.350 . S
N735 S733 1.610 . S
N735 C736 1.351 . S
C736 C730 1.428 . S
C736 N735 1.351 . S
C736 C737 1.434 . S
C737 C728 1.429 . S
C737 N734 1.350 . S
C737 C736 1.434 . S
C738 C739 1.369 . S
C738 C740 1.419 . S
C738 H742 0.930 . S
C739 C738 1.369 . S
C739 C748 1.429 . S
C740 C738 1.419 . S
C740 C741 1.363 . S
C740 H743 0.929 . S
C741 C740 1.363 . S
C741 C747 1.428 . S
H742 C738 0.930 . S
H743 C740 0.929 . S
S744 N745 1.613 . S
S744 N746 1.610 . S
N745 S744 1.613 . S
N745 C748 1.350 . S
N746 S744 1.610 . S
N746 C747 1.351 . S
C747 C741 1.428 . S
C747 N746 1.351 . S
C747 C748 1.434 . S
C748 C739 1.429 . S
C748 N745 1.350 . S
C748 C747 1.434 . S
C749 C750 1.369 . S
C749 C751 1.419 . S
C749 H753 0.930 . S
C750 C749 1.369 . S
C750 C759 1.429 . S
C751 C749 1.419 . S
C751 C752 1.363 . S
C751 H754 0.929 . S
C752 C751 1.363 . S
C752 C758 1.428 . S
H753 C749 0.930 . S
H754 C751 0.929 . S
S755 N756 1.613 . S
S755 N757 1.610 . S
N756 S755 1.613 . S
N756 C759 1.350 . S
N757 S755 1.610 . S
N757 C758 1.351 . S
C758 C752 1.428 . S
C758 N757 1.351 . S
C758 C759 1.434 . S
C759 C750 1.429 . S
C759 N756 1.350 . S
C759 C758 1.434 . S
C760 C761 1.369 . S
C760 C762 1.419 . S
C760 H764 0.930 . S
C761 C760 1.369 . S
C761 C770 1.429 . S
C762 C760 1.419 . S
C762 C763 1.363 . S
C762 H765 0.929 . S
C763 C762 1.363 . S
C763 C769 1.428 . S
H764 C760 0.930 . S
H765 C762 0.929 . S
S766 N767 1.613 . S
S766 N768 1.610 . S
N767 S766 1.613 . S
N767 C770 1.350 . S
N768 S766 1.610 . S
N768 C769 1.351 . S
C769 C763 1.428 . S
C769 N768 1.351 . S
C769 C770 1.434 . S
C770 C761 1.429 . S
C770 N767 1.350 . S
C770 C769 1.434 . S
C771 C772 1.369 . S
C771 C773 1.419 . S
C771 H775 0.930 . S
C772 C771 1.369 . S
C772 C781 1.429 . S
C773 C771 1.419 . S
C773 C774 1.363 . S
C773 H776 0.929 . S
C774 C773 1.363 . S
C774 C780 1.428 . S
H775 C771 0.930 . S
H776 C773 0.929 . S
S777 N778 1.613 . S
S777 N779 1.610 . S
N778 S777 1.613 . S
N778 C781 1.350 . S
N779 S777 1.610 . S
N779 C780 1.351 . S
C780 C774 1.428 . S
C780 N779 1.351 . S
C780 C781 1.434 . S
C781 C772 1.429 . S
C781 N778 1.350 . S
C781 C780 1.434 . S
C782 C783 1.369 . S
C782 C784 1.419 . S
C782 H786 0.930 . S
C783 C782 1.369 . S
C783 C792 1.429 . S
C784 C782 1.419 . S
C784 C785 1.363 . S
C784 H787 0.929 . S
C785 C784 1.363 . S
C785 C791 1.428 . S
H786 C782 0.930 . S
H787 C784 0.929 . S
S788 N789 1.613 . S
S788 N790 1.610 . S
N789 S788 1.613 . S
N789 C792 1.350 . S
N790 S788 1.610 . S
N790 C791 1.351 . S
C791 C785 1.428 . S
C791 N790 1.351 . S
C791 C792 1.434 . S
C792 C783 1.429 . S
C792 N789 1.350 . S
C792 C791 1.434 . S
C793 C794 1.369 . S
C793 C795 1.419 . S
C793 H797 0.930 . S
C794 C793 1.369 . S
C794 C803 1.429 . S
C795 C793 1.419 . S
C795 C796 1.363 . S
C795 H798 0.929 . S
C796 C795 1.363 . S
C796 C802 1.428 . S
H797 C793 0.930 . S
H798 C795 0.929 . S
S799 N800 1.613 . S
S799 N801 1.610 . S
N800 S799 1.613 . S
N800 C803 1.350 . S
N801 S799 1.610 . S
N801 C802 1.351 . S
C802 C796 1.428 . S
C802 N801 1.351 . S
C802 C803 1.434 . S
C803 C794 1.429 . S
C803 N800 1.350 . S
C803 C802 1.434 . S
C804 C805 1.369 . S
C804 C806 1.419 . S
C804 H808 0.930 . S
C805 C804 1.369 . S
C805 C814 1.429 . S
C806 C804 1.419 . S
C806 C807 1.363 . S
C806 H809 0.929 . S
C807 C806 1.363 . S
C807 C813 1.428 . S
H808 C804 0.930 . S
H809 C806 0.929 . S
S810 N811 1.613 . S
S810 N812 1.610 . S
N811 S810 1.613 . S
N811 C814 1.350 . S
N812 S810 1.610 . S
N812 C813 1.351 . S
C813 C807 1.428 . S
C813 N812 1.351 . S
C813 C814 1.434 . S
C814 C805 1.429 . S
C814 N811 1.350 . S
C814 C813 1.434 . S
C815 C816 1.369 . S
C815 C817 1.419 . S
C815 H819 0.930 . S
C816 C815 1.369 . S
C816 C825 1.429 . S
C817 C815 1.419 . S
C817 C818 1.363 . S
C817 H820 0.929 . S
C818 C817 1.363 . S
C818 C824 1.428 . S
H819 C815 0.930 . S
H820 C817 0.929 . S
S821 N822 1.613 . S
S821 N823 1.610 . S
N822 S821 1.613 . S
N822 C825 1.350 . S
N823 S821 1.610 . S
N823 C824 1.351 . S
C824 C818 1.428 . S
C824 N823 1.351 . S
C824 C825 1.434 . S
C825 C816 1.429 . S
C825 N822 1.350 . S
C825 C824 1.434 . S
C826 C827 1.369 . S
C826 C828 1.419 . S
C826 H830 0.930 . S
C827 C826 1.369 . S
C827 C836 1.429 . S
C828 C826 1.419 . S
C828 C829 1.363 . S
C828 H831 0.929 . S
C829 C828 1.363 . S
C829 C835 1.428 . S
H830 C826 0.930 . S
H831 C828 0.929 . S
S832 N833 1.613 . S
S832 N834 1.610 . S
N833 S832 1.613 . S
N833 C836 1.350 . S
N834 S832 1.610 . S
N834 C835 1.351 . S
C835 C829 1.428 . S
C835 N834 1.351 . S
C835 C836 1.434 . S
C836 C827 1.429 . S
C836 N833 1.350 . S
C836 C835 1.434 . S
C837 C838 1.369 . S
C837 C839 1.419 . S
C837 H841 0.930 . S
C838 C837 1.369 . S
C838 C847 1.429 . S
C839 C837 1.419 . S
C839 C840 1.363 . S
C839 H842 0.929 . S
C840 C839 1.363 . S
C840 C846 1.428 . S
H841 C837 0.930 . S
H842 C839 0.929 . S
S843 N844 1.613 . S
S843 N845 1.610 . S
N844 S843 1.613 . S
N844 C847 1.350 . S
N845 S843 1.610 . S
N845 C846 1.351 . S
C846 C840 1.428 . S
C846 N845 1.351 . S
C846 C847 1.434 . S
C847 C838 1.429 . S
C847 N844 1.350 . S
C847 C846 1.434 . S
C848 C849 1.369 . S
C848 C850 1.419 . S
C848 H852 0.930 . S
C849 C848 1.369 . S
C849 C858 1.429 . S
C850 C848 1.419 . S
C850 C851 1.363 . S
C850 H853 0.929 . S
C851 C850 1.363 . S
C851 C857 1.428 . S
H852 C848 0.930 . S
H853 C850 0.929 . S
S854 N855 1.613 . S
S854 N856 1.610 . S
N855 S854 1.613 . S
N855 C858 1.350 . S
N856 S854 1.610 . S
N856 C857 1.351 . S
C857 C851 1.428 . S
C857 N856 1.351 . S
C857 C858 1.434 . S
C858 C849 1.429 . S
C858 N855 1.350 . S
C858 C857 1.434 . S
C859 C860 1.369 . S
C859 C861 1.419 . S
C859 H863 0.930 . S
C860 C859 1.369 . S
C860 C869 1.429 . S
C861 C859 1.419 . S
C861 C862 1.363 . S
C861 H864 0.929 . S
C862 C861 1.363 . S
C862 C868 1.428 . S
H863 C859 0.930 . S
H864 C861 0.929 . S
S865 N866 1.613 . S
S865 N867 1.610 . S
N866 S865 1.613 . S
N866 C869 1.350 . S
N867 S865 1.610 . S
N867 C868 1.351 . S
C868 C862 1.428 . S
C868 N867 1.351 . S
C868 C869 1.434 . S
C869 C860 1.429 . S
C869 N866 1.350 . S
C869 C868 1.434 . S
C870 C871 1.369 . S
C870 C872 1.419 . S
C870 H874 0.930 . S
C871 C870 1.369 . S
C871 C880 1.429 . S
C872 C870 1.419 . S
C872 C873 1.363 . S
C872 H875 0.929 . S
C873 C872 1.363 . S
C873 C879 1.428 . S
H874 C870 0.930 . S
H875 C872 0.929 . S
S876 N877 1.613 . S
S876 N878 1.610 . S
N877 S876 1.613 . S
N877 C880 1.350 . S
N878 S876 1.610 . S
N878 C879 1.351 . S
C879 C873 1.428 . S
C879 N878 1.351 . S
C879 C880 1.434 . S
C880 C871 1.429 . S
C880 N877 1.350 . S
C880 C879 1.434 . S
C881 C882 1.369 . S
C881 C883 1.419 . S
C881 H885 0.930 . S
C882 C881 1.369 . S
C882 C891 1.429 . S
C883 C881 1.419 . S
C883 C884 1.363 . S
C883 H886 0.929 . S
C884 C883 1.363 . S
C884 C890 1.428 . S
H885 C881 0.930 . S
H886 C883 0.929 . S
S887 N888 1.613 . S
S887 N889 1.610 . S
N888 S887 1.613 . S
N888 C891 1.350 . S
N889 S887 1.610 . S
N889 C890 1.351 . S
C890 C884 1.428 . S
C890 N889 1.351 . S
C890 C891 1.434 . S
C891 C882 1.429 . S
C891 N888 1.350 . S
C891 C890 1.434 . S
C892 C893 1.369 . S
C892 C894 1.419 . S
C892 H896 0.930 . S
C893 C892 1.369 . S
C893 C902 1.429 . S
C894 C892 1.419 . S
C894 C895 1.363 . S
C894 H897 0.929 . S
C895 C894 1.363 . S
C895 C901 1.428 . S
H896 C892 0.930 . S
H897 C894 0.929 . S
S898 N899 1.613 . S
S898 N900 1.610 . S
N899 S898 1.613 . S
N899 C902 1.350 . S
N900 S898 1.610 . S
N900 C901 1.351 . S
C901 C895 1.428 . S
C901 N900 1.351 . S
C901 C902 1.434 . S
C902 C893 1.429 . S
C902 N899 1.350 . S
C902 C901 1.434 . S
C903 C904 1.369 . S
C903 C905 1.419 . S
C903 H907 0.930 . S
C904 C903 1.369 . S
C904 C913 1.429 . S
C905 C903 1.419 . S
C905 C906 1.363 . S
C905 H908 0.929 . S
C906 C905 1.363 . S
C906 C912 1.428 . S
H907 C903 0.930 . S
H908 C905 0.929 . S
S909 N910 1.613 . S
S909 N911 1.610 . S
N910 S909 1.613 . S
N910 C913 1.350 . S
N911 S909 1.610 . S
N911 C912 1.351 . S
C912 C906 1.428 . S
C912 N911 1.351 . S
C912 C913 1.434 . S
C913 C904 1.429 . S
C913 N910 1.350 . S
C913 C912 1.434 . S
C914 C915 1.369 . S
C914 C916 1.419 . S
C914 H918 0.930 . S
C915 C914 1.369 . S
C915 C924 1.429 . S
C916 C914 1.419 . S
C916 C917 1.363 . S
C916 H919 0.929 . S
C917 C916 1.363 . S
C917 C923 1.428 . S
H918 C914 0.930 . S
H919 C916 0.929 . S
S920 N921 1.613 . S
S920 N922 1.610 . S
N921 S920 1.613 . S
N921 C924 1.350 . S
N922 S920 1.610 . S
N922 C923 1.351 . S
C923 C917 1.428 . S
C923 N922 1.351 . S
C923 C924 1.434 . S
C924 C915 1.429 . S
C924 N921 1.350 . S
C924 C923 1.434 . S
C925 C926 1.369 . S
C925 C927 1.419 . S
C925 H929 0.930 . S
C926 C925 1.369 . S
C926 C935 1.429 . S
C927 C925 1.419 . S
C927 C928 1.363 . S
C927 H930 0.929 . S
C928 C927 1.363 . S
C928 C934 1.428 . S
H929 C925 0.930 . S
H930 C927 0.929 . S
S931 N932 1.613 . S
S931 N933 1.610 . S
N932 S931 1.613 . S
N932 C935 1.350 . S
N933 S931 1.610 . S
N933 C934 1.351 . S
C934 C928 1.428 . S
C934 N933 1.351 . S
C934 C935 1.434 . S
C935 C926 1.429 . S
C935 N932 1.350 . S
C935 C934 1.434 . S
C936 C937 1.369 . S
C936 C938 1.419 . S
C936 H940 0.930 . S
C937 C936 1.369 . S
C937 C946 1.429 . S
C938 C936 1.419 . S
C938 C939 1.363 . S
C938 H941 0.929 . S
C939 C938 1.363 . S
C939 C945 1.428 . S
H940 C936 0.930 . S
H941 C938 0.929 . S
S942 N943 1.613 . S
S942 N944 1.610 . S
N943 S942 1.613 . S
N943 C946 1.350 . S
N944 S942 1.610 . S
N944 C945 1.351 . S
C945 C939 1.428 . S
C945 N944 1.351 . S
C945 C946 1.434 . S
C946 C937 1.429 . S
C946 N943 1.350 . S
C946 C945 1.434 . S
C947 C948 1.369 . S
C947 C949 1.419 . S
C947 H951 0.930 . S
C948 C947 1.369 . S
C948 C957 1.429 . S
C949 C947 1.419 . S
C949 C950 1.363 . S
C949 H952 0.929 . S
C950 C949 1.363 . S
C950 C956 1.428 . S
H951 C947 0.930 . S
H952 C949 0.929 . S
S953 N954 1.613 . S
S953 N955 1.610 . S
N954 S953 1.613 . S
N954 C957 1.350 . S
N955 S953 1.610 . S
N955 C956 1.351 . S
C956 C950 1.428 . S
C956 N955 1.351 . S
C956 C957 1.434 . S
C957 C948 1.429 . S
C957 N954 1.350 . S
C957 C956 1.434 . S
C958 C959 1.369 . S
C958 C960 1.419 . S
C958 H962 0.930 . S
C959 C958 1.369 . S
C959 C968 1.429 . S
C960 C958 1.419 . S
C960 C961 1.363 . S
C960 H963 0.929 . S
C961 C960 1.363 . S
C961 C967 1.428 . S
H962 C958 0.930 . S
H963 C960 0.929 . S
S964 N965 1.613 . S
S964 N966 1.610 . S
N965 S964 1.613 . S
N965 C968 1.350 . S
N966 S964 1.610 . S
N966 C967 1.351 . S
C967 C961 1.428 . S
C967 N966 1.351 . S
C967 C968 1.434 . S
C968 C959 1.429 . S
C968 N965 1.350 . S
C968 C967 1.434 . S
C969 C970 1.369 . S
C969 C971 1.419 . S
C969 H973 0.930 . S
C970 C969 1.369 . S
C970 C979 1.429 . S
C971 C969 1.419 . S
C971 C972 1.363 . S
C971 H974 0.929 . S
C972 C971 1.363 . S
C972 C978 1.428 . S
H973 C969 0.930 . S
H974 C971 0.929 . S
S975 N976 1.613 . S
S975 N977 1.610 . S
N976 S975 1.613 . S
N976 C979 1.350 . S
N977 S975 1.610 . S
N977 C978 1.351 . S
C978 C972 1.428 . S
C978 N977 1.351 . S
C978 C979 1.434 . S
C979 C970 1.429 . S
C979 N976 1.350 . S
C979 C978 1.434 . S
C980 C981 1.369 . S
C980 C982 1.419 . S
C980 H984 0.930 . S
C981 C980 1.369 . S
C981 C990 1.429 . S
C982 C980 1.419 . S
C982 C983 1.363 . S
C982 H985 0.929 . S
C983 C982 1.363 . S
C983 C989 1.428 . S
H984 C980 0.930 . S
H985 C982 0.929 . S
S986 N987 1.613 . S
S986 N988 1.610 . S
N987 S986 1.613 . S
N987 C990 1.350 . S
N988 S986 1.610 . S
N988 C989 1.351 . S
C989 C983 1.428 . S
C989 N988 1.351 . S
C989 C990 1.434 . S
C990 C981 1.429 . S
C990 N987 1.350 . S
C990 C989 1.434 . S
C991 C992 1.369 . S
C991 C993 1.419 . S
C991 H995 0.930 . S
C992 C991 1.369 . S
C992 C1001 1.429 . S
C993 C991 1.419 . S
C993 C994 1.363 . S
C993 H996 0.929 . S
C994 C993 1.363 . S
C994 C1000 1.428 . S
H995 C991 0.930 . S
H996 C993 0.929 . S
S997 N998 1.613 . S
S997 N999 1.610 . S
N998 S997 1.613 . S
N998 C1001 1.350 . S
N999 S997 1.610 . S
N999 C1000 1.351 . S
C1000 C994 1.428 . S
C1000 N999 1.351 . S
C1000 C1001 1.434 . S
C1001 C992 1.429 . S
C1001 N998 1.350 . S
C1001 C1000 1.434 . S
C1002 C1003 1.369 . S
C1002 C1004 1.419 . S
C1002 H1006 0.930 . S
C1003 C1002 1.369 . S
C1003 C1012 1.429 . S
C1004 C1002 1.419 . S
C1004 C1005 1.363 . S
C1004 H1007 0.929 . S
C1005 C1004 1.363 . S
C1005 C1011 1.428 . S
H1006 C1002 0.930 . S
H1007 C1004 0.929 . S
S1008 N1009 1.613 . S
S1008 N1010 1.610 . S
N1009 S1008 1.613 . S
N1009 C1012 1.350 . S
N1010 S1008 1.610 . S
N1010 C1011 1.351 . S
C1011 C1005 1.428 . S
C1011 N1010 1.351 . S
C1011 C1012 1.434 . S
C1012 C1003 1.429 . S
C1012 N1009 1.350 . S
C1012 C1011 1.434 . S
C1013 C1014 1.369 . S
C1013 C1015 1.419 . S
C1013 H1017 0.930 . S
C1014 C1013 1.369 . S
C1014 C1023 1.429 . S
C1015 C1013 1.419 . S
C1015 C1016 1.363 . S
C1015 H1018 0.929 . S
C1016 C1015 1.363 . S
C1016 C1022 1.428 . S
H1017 C1013 0.930 . S
H1018 C1015 0.929 . S
S1019 N1020 1.613 . S
S1019 N1021 1.610 . S
N1020 S1019 1.613 . S
N1020 C1023 1.350 . S
N1021 S1019 1.610 . S
N1021 C1022 1.351 . S
C1022 C1016 1.428 . S
C1022 N1021 1.351 . S
C1022 C1023 1.434 . S
C1023 C1014 1.429 . S
C1023 N1020 1.350 . S
C1023 C1022 1.434 . S
C1024 C1025 1.369 . S
C1024 C1026 1.419 . S
C1024 H1028 0.930 . S
C1025 C1024 1.369 . S
C1025 C1034 1.429 . S
C1026 C1024 1.419 . S
C1026 C1027 1.363 . S
C1026 H1029 0.929 . S
C1027 C1026 1.363 . S
C1027 C1033 1.428 . S
H1028 C1024 0.930 . S
H1029 C1026 0.929 . S
S1030 N1031 1.613 . S
S1030 N1032 1.610 . S
N1031 S1030 1.613 . S
N1031 C1034 1.350 . S
N1032 S1030 1.610 . S
N1032 C1033 1.351 . S
C1033 C1027 1.428 . S
C1033 N1032 1.351 . S
C1033 C1034 1.434 . S
C1034 C1025 1.429 . S
C1034 N1031 1.350 . S
C1034 C1033 1.434 . S
C1035 C1036 1.369 . S
C1035 C1037 1.419 . S
C1035 H1039 0.930 . S
C1036 C1035 1.369 . S
C1036 C1045 1.429 . S
C1037 C1035 1.419 . S
C1037 C1038 1.363 . S
C1037 H1040 0.929 . S
C1038 C1037 1.363 . S
C1038 C1044 1.428 . S
H1039 C1035 0.930 . S
H1040 C1037 0.929 . S
S1041 N1042 1.613 . S
S1041 N1043 1.610 . S
N1042 S1041 1.613 . S
N1042 C1045 1.350 . S
N1043 S1041 1.610 . S
N1043 C1044 1.351 . S
C1044 C1038 1.428 . S
C1044 N1043 1.351 . S
C1044 C1045 1.434 . S
C1045 C1036 1.429 . S
C1045 N1042 1.350 . S
C1045 C1044 1.434 . S
C1046 C1047 1.369 . S
C1046 C1048 1.419 . S
C1046 H1050 0.930 . S
C1047 C1046 1.369 . S
C1047 C1056 1.429 . S
C1048 C1046 1.419 . S
C1048 C1049 1.363 . S
C1048 H1051 0.929 . S
C1049 C1048 1.363 . S
C1049 C1055 1.428 . S
H1050 C1046 0.930 . S
H1051 C1048 0.929 . S
S1052 N1053 1.613 . S
S1052 N1054 1.610 . S
N1053 S1052 1.613 . S
N1053 C1056 1.350 . S
N1054 S1052 1.610 . S
N1054 C1055 1.351 . S
C1055 C1049 1.428 . S
C1055 N1054 1.351 . S
C1055 C1056 1.434 . S
C1056 C1047 1.429 . S
C1056 N1053 1.350 . S
C1056 C1055 1.434 . S
C1057 C1058 1.369 . S
C1057 C1059 1.419 . S
C1057 H1061 0.930 . S
C1058 C1057 1.369 . S
C1058 C1067 1.429 . S
C1059 C1057 1.419 . S
C1059 C1060 1.363 . S
C1059 H1062 0.929 . S
C1060 C1059 1.363 . S
C1060 C1066 1.428 . S
H1061 C1057 0.930 . S
H1062 C1059 0.929 . S
S1063 N1064 1.613 . S
S1063 N1065 1.610 . S
N1064 S1063 1.613 . S
N1064 C1067 1.350 . S
N1065 S1063 1.610 . S
N1065 C1066 1.351 . S
C1066 C1060 1.428 . S
C1066 N1065 1.351 . S
C1066 C1067 1.434 . S
C1067 C1058 1.429 . S
C1067 N1064 1.350 . S
C1067 C1066 1.434 . S
C1068 C1069 1.369 . S
C1068 C1070 1.419 . S
C1068 H1072 0.930 . S
C1069 C1068 1.369 . S
C1069 C1078 1.429 . S
C1070 C1068 1.419 . S
C1070 C1071 1.363 . S
C1070 H1073 0.929 . S
C1071 C1070 1.363 . S
C1071 C1077 1.428 . S
H1072 C1068 0.930 . S
H1073 C1070 0.929 . S
S1074 N1075 1.613 . S
S1074 N1076 1.610 . S
N1075 S1074 1.613 . S
N1075 C1078 1.350 . S
N1076 S1074 1.610 . S
N1076 C1077 1.351 . S
C1077 C1071 1.428 . S
C1077 N1076 1.351 . S
C1077 C1078 1.434 . S
C1078 C1069 1.429 . S
C1078 N1075 1.350 . S
C1078 C1077 1.434 . S
C1079 C1080 1.369 . S
C1079 C1081 1.419 . S
C1079 H1083 0.930 . S
C1080 C1079 1.369 . S
C1080 C1089 1.429 . S
C1081 C1079 1.419 . S
C1081 C1082 1.363 . S
C1081 H1084 0.929 . S
C1082 C1081 1.363 . S
C1082 C1088 1.428 . S
H1083 C1079 0.930 . S
H1084 C1081 0.929 . S
S1085 N1086 1.613 . S
S1085 N1087 1.610 . S
N1086 S1085 1.613 . S
N1086 C1089 1.350 . S
N1087 S1085 1.610 . S
N1087 C1088 1.351 . S
C1088 C1082 1.428 . S
C1088 N1087 1.351 . S
C1088 C1089 1.434 . S
C1089 C1080 1.429 . S
C1089 N1086 1.350 . S
C1089 C1088 1.434 . S
C1090 C1091 1.369 . S
C1090 C1092 1.419 . S
C1090 H1094 0.930 . S
C1091 C1090 1.369 . S
C1091 C1100 1.429 . S
C1092 C1090 1.419 . S
C1092 C1093 1.363 . S
C1092 H1095 0.929 . S
C1093 C1092 1.363 . S
C1093 C1099 1.428 . S
H1094 C1090 0.930 . S
H1095 C1092 0.929 . S
S1096 N1097 1.613 . S
S1096 N1098 1.610 . S
N1097 S1096 1.613 . S
N1097 C1100 1.350 . S
N1098 S1096 1.610 . S
N1098 C1099 1.351 . S
C1099 C1093 1.428 . S
C1099 N1098 1.351 . S
C1099 C1100 1.434 . S
C1100 C1091 1.429 . S
C1100 N1097 1.350 . S
C1100 C1099 1.434 . S
C1101 C1102 1.369 . S
C1101 C1103 1.419 . S
C1101 H1105 0.930 . S
C1102 C1101 1.369 . S
C1102 C1111 1.429 . S
C1103 C1101 1.419 . S
C1103 C1104 1.363 . S
C1103 H1106 0.929 . S
C1104 C1103 1.363 . S
C1104 C1110 1.428 . S
H1105 C1101 0.930 . S
H1106 C1103 0.929 . S
S1107 N1108 1.613 . S
S1107 N1109 1.610 . S
N1108 S1107 1.613 . S
N1108 C1111 1.350 . S
N1109 S1107 1.610 . S
N1109 C1110 1.351 . S
C1110 C1104 1.428 . S
C1110 N1109 1.351 . S
C1110 C1111 1.434 . S
C1111 C1102 1.429 . S
C1111 N1108 1.350 . S
C1111 C1110 1.434 . S
C1112 C1113 1.369 . S
C1112 C1114 1.419 . S
C1112 H1116 0.930 . S
C1113 C1112 1.369 . S
C1113 C1122 1.429 . S
C1114 C1112 1.419 . S
C1114 C1115 1.363 . S
C1114 H1117 0.929 . S
C1115 C1114 1.363 . S
C1115 C1121 1.428 . S
H1116 C1112 0.930 . S
H1117 C1114 0.929 . S
S1118 N1119 1.613 . S
S1118 N1120 1.610 . S
N1119 S1118 1.613 . S
N1119 C1122 1.350 . S
N1120 S1118 1.610 . S
N1120 C1121 1.351 . S
C1121 C1115 1.428 . S
C1121 N1120 1.351 . S
C1121 C1122 1.434 . S
C1122 C1113 1.429 . S
C1122 N1119 1.350 . S
C1122 C1121 1.434 . S
C1123 C1124 1.369 . S
C1123 C1125 1.419 . S
C1123 H1127 0.930 . S
C1124 C1123 1.369 . S
C1124 C1133 1.429 . S
C1125 C1123 1.419 . S
C1125 C1126 1.363 . S
C1125 H1128 0.929 . S
C1126 C1125 1.363 . S
C1126 C1132 1.428 . S
H1127 C1123 0.930 . S
H1128 C1125 0.929 . S
S1129 N1130 1.613 . S
S1129 N1131 1.610 . S
N1130 S1129 1.613 . S
N1130 C1133 1.350 . S
N1131 S1129 1.610 . S
N1131 C1132 1.351 . S
C1132 C1126 1.428 . S
C1132 N1131 1.351 . S
C1132 C1133 1.434 . S
C1133 C1124 1.429 . S
C1133 N1130 1.350 . S
C1133 C1132 1.434 . S
C1134 C1135 1.369 . S
C1134 C1136 1.419 . S
C1134 H1138 0.930 . S
C1135 C1134 1.369 . S
C1135 C1144 1.429 . S
C1136 C1134 1.419 . S
C1136 C1137 1.363 . S
C1136 H1139 0.929 . S
C1137 C1136 1.363 . S
C1137 C1143 1.428 . S
H1138 C1134 0.930 . S
H1139 C1136 0.929 . S
S1140 N1141 1.613 . S
S1140 N1142 1.610 . S
N1141 S1140 1.613 . S
N1141 C1144 1.350 . S
N1142 S1140 1.610 . S
N1142 C1143 1.351 . S
C1143 C1137 1.428 . S
C1143 N1142 1.351 . S
C1143 C1144 1.434 . S
C1144 C1135 1.429 . S
C1144 N1141 1.350 . S
C1144 C1143 1.434 . S
C1145 C1146 1.369 . S
C1145 C1147 1.419 . S
C1145 H1149 0.930 . S
C1146 C1145 1.369 . S
C1146 C1155 1.429 . S
C1147 C1145 1.419 . S
C1147 C1148 1.363 . S
C1147 H1150 0.929 . S
C1148 C1147 1.363 . S
C1148 C1154 1.428 . S
H1149 C1145 0.930 . S
H1150 C1147 0.929 . S
S1151 N1152 1.613 . S
S1151 N1153 1.610 . S
N1152 S1151 1.613 . S
N1152 C1155 1.350 . S
N1153 S1151 1.610 . S
N1153 C1154 1.351 . S
C1154 C1148 1.428 . S
C1154 N1153 1.351 . S
C1154 C1155 1.434 . S
C1155 C1146 1.429 . S
C1155 N1152 1.350 . S
C1155 C1154 1.434 . S
C1156 C1157 1.369 . S
C1156 C1158 1.419 . S
C1156 H1160 0.930 . S
C1157 C1156 1.369 . S
C1157 C1166 1.429 . S
C1158 C1156 1.419 . S
C1158 C1159 1.363 . S
C1158 H1161 0.929 . S
C1159 C1158 1.363 . S
C1159 C1165 1.428 . S
H1160 C1156 0.930 . S
H1161 C1158 0.929 . S
S1162 N1163 1.613 . S
S1162 N1164 1.610 . S
N1163 S1162 1.613 . S
N1163 C1166 1.350 . S
N1164 S1162 1.610 . S
N1164 C1165 1.351 . S
C1165 C1159 1.428 . S
C1165 N1164 1.351 . S
C1165 C1166 1.434 . S
C1166 C1157 1.429 . S
C1166 N1163 1.350 . S
C1166 C1165 1.434 . S
C1167 C1168 1.369 . S
C1167 C1169 1.419 . S
C1167 H1171 0.930 . S
C1168 C1167 1.369 . S
C1168 C1177 1.429 . S
C1169 C1167 1.419 . S
C1169 C1170 1.363 . S
C1169 H1172 0.929 . S
C1170 C1169 1.363 . S
C1170 C1176 1.428 . S
H1171 C1167 0.930 . S
H1172 C1169 0.929 . S
S1173 N1174 1.613 . S
S1173 N1175 1.610 . S
N1174 S1173 1.613 . S
N1174 C1177 1.350 . S
N1175 S1173 1.610 . S
N1175 C1176 1.351 . S
C1176 C1170 1.428 . S
C1176 N1175 1.351 . S
C1176 C1177 1.434 . S
C1177 C1168 1.429 . S
C1177 N1174 1.350 . S
C1177 C1176 1.434 . S
C1178 C1179 1.369 . S
C1178 C1180 1.419 . S
C1178 H1182 0.930 . S
C1179 C1178 1.369 . S
C1179 C1188 1.429 . S
C1180 C1178 1.419 . S
C1180 C1181 1.363 . S
C1180 H1183 0.929 . S
C1181 C1180 1.363 . S
C1181 C1187 1.428 . S
H1182 C1178 0.930 . S
H1183 C1180 0.929 . S
S1184 N1185 1.613 . S
S1184 N1186 1.610 . S
N1185 S1184 1.613 . S
N1185 C1188 1.350 . S
N1186 S1184 1.610 . S
N1186 C1187 1.351 . S
C1187 C1181 1.428 . S
C1187 N1186 1.351 . S
C1187 C1188 1.434 . S
C1188 C1179 1.429 . S
C1188 N1185 1.350 . S
C1188 C1187 1.434 . S
C1189 C1190 1.369 . S
C1189 C1191 1.419 . S
C1189 H1193 0.930 . S
C1190 C1189 1.369 . S
C1190 C1199 1.429 . S
C1191 C1189 1.419 . S
C1191 C1192 1.363 . S
C1191 H1194 0.929 . S
C1192 C1191 1.363 . S
C1192 C1198 1.428 . S
H1193 C1189 0.930 . S
H1194 C1191 0.929 . S
S1195 N1196 1.613 . S
S1195 N1197 1.610 . S
N1196 S1195 1.613 . S
N1196 C1199 1.350 . S
N1197 S1195 1.610 . S
N1197 C1198 1.351 . S
C1198 C1192 1.428 . S
C1198 N1197 1.351 . S
C1198 C1199 1.434 . S
C1199 C1190 1.429 . S
C1199 N1196 1.350 . S
C1199 C1198 1.434 . S
C1200 C1201 1.369 . S
C1200 C1202 1.419 . S
C1200 H1204 0.930 . S
C1201 C1200 1.369 . S
C1201 C1210 1.429 . S
C1202 C1200 1.419 . S
C1202 C1203 1.363 . S
C1202 H1205 0.929 . S
C1203 C1202 1.363 . S
C1203 C1209 1.428 . S
H1204 C1200 0.930 . S
H1205 C1202 0.929 . S
S1206 N1207 1.613 . S
S1206 N1208 1.610 . S
N1207 S1206 1.613 . S
N1207 C1210 1.350 . S
N1208 S1206 1.610 . S
N1208 C1209 1.351 . S
C1209 C1203 1.428 . S
C1209 N1208 1.351 . S
C1209 C1210 1.434 . S
C1210 C1201 1.429 . S
C1210 N1207 1.350 . S
C1210 C1209 1.434 . S
C1211 C1212 1.369 . S
C1211 C1213 1.419 . S
C1211 H1215 0.930 . S
C1212 C1211 1.369 . S
C1212 C1221 1.429 . S
C1213 C1211 1.419 . S
C1213 C1214 1.363 . S
C1213 H1216 0.929 . S
C1214 C1213 1.363 . S
C1214 C1220 1.428 . S
H1215 C1211 0.930 . S
H1216 C1213 0.929 . S
S1217 N1218 1.613 . S
S1217 N1219 1.610 . S
N1218 S1217 1.613 . S
N1218 C1221 1.350 . S
N1219 S1217 1.610 . S
N1219 C1220 1.351 . S
C1220 C1214 1.428 . S
C1220 N1219 1.351 . S
C1220 C1221 1.434 . S
C1221 C1212 1.429 . S
C1221 N1218 1.350 . S
C1221 C1220 1.434 . S
C1222 C1223 1.369 . S
C1222 C1224 1.419 . S
C1222 H1226 0.930 . S
C1223 C1222 1.369 . S
C1223 C1232 1.429 . S
C1224 C1222 1.419 . S
C1224 C1225 1.363 . S
C1224 H1227 0.929 . S
C1225 C1224 1.363 . S
C1225 C1231 1.428 . S
H1226 C1222 0.930 . S
H1227 C1224 0.929 . S
S1228 N1229 1.613 . S
S1228 N1230 1.610 . S
N1229 S1228 1.613 . S
N1229 C1232 1.350 . S
N1230 S1228 1.610 . S
N1230 C1231 1.351 . S
C1231 C1225 1.428 . S
C1231 N1230 1.351 . S
C1231 C1232 1.434 . S
C1232 C1223 1.429 . S
C1232 N1229 1.350 . S
C1232 C1231 1.434 . S
C1233 C1234 1.369 . S
C1233 C1235 1.419 . S
C1233 H1237 0.930 . S
C1234 C1233 1.369 . S
C1234 C1243 1.429 . S
C1235 C1233 1.419 . S
C1235 C1236 1.363 . S
C1235 H1238 0.929 . S
C1236 C1235 1.363 . S
C1236 C1242 1.428 . S
H1237 C1233 0.930 . S
H1238 C1235 0.929 . S
S1239 N1240 1.613 . S
S1239 N1241 1.610 . S
N1240 S1239 1.613 . S
N1240 C1243 1.350 . S
N1241 S1239 1.610 . S
N1241 C1242 1.351 . S
C1242 C1236 1.428 . S
C1242 N1241 1.351 . S
C1242 C1243 1.434 . S
C1243 C1234 1.429 . S
C1243 N1240 1.350 . S
C1243 C1242 1.434 . S
C1244 C1245 1.369 . S
C1244 C1246 1.419 . S
C1244 H1248 0.930 . S
C1245 C1244 1.369 . S
C1245 C1254 1.429 . S
C1246 C1244 1.419 . S
C1246 C1247 1.363 . S
C1246 H1249 0.929 . S
C1247 C1246 1.363 . S
C1247 C1253 1.428 . S
H1248 C1244 0.930 . S
H1249 C1246 0.929 . S
S1250 N1251 1.613 . S
S1250 N1252 1.610 . S
N1251 S1250 1.613 . S
N1251 C1254 1.350 . S
N1252 S1250 1.610 . S
N1252 C1253 1.351 . S
C1253 C1247 1.428 . S
C1253 N1252 1.351 . S
C1253 C1254 1.434 . S
C1254 C1245 1.429 . S
C1254 N1251 1.350 . S
C1254 C1253 1.434 . S
C1255 C1256 1.369 . S
C1255 C1257 1.419 . S
C1255 H1259 0.930 . S
C1256 C1255 1.369 . S
C1256 C1265 1.429 . S
C1257 C1255 1.419 . S
C1257 C1258 1.363 . S
C1257 H1260 0.929 . S
C1258 C1257 1.363 . S
C1258 C1264 1.428 . S
H1259 C1255 0.930 . S
H1260 C1257 0.929 . S
S1261 N1262 1.613 . S
S1261 N1263 1.610 . S
N1262 S1261 1.613 . S
N1262 C1265 1.350 . S
N1263 S1261 1.610 . S
N1263 C1264 1.351 . S
C1264 C1258 1.428 . S
C1264 N1263 1.351 . S
C1264 C1265 1.434 . S
C1265 C1256 1.429 . S
C1265 N1262 1.350 . S
C1265 C1264 1.434 . S
C1266 C1267 1.369 . S
C1266 C1268 1.419 . S
C1266 H1270 0.930 . S
C1267 C1266 1.369 . S
C1267 C1276 1.429 . S
C1268 C1266 1.419 . S
C1268 C1269 1.363 . S
C1268 H1271 0.929 . S
C1269 C1268 1.363 . S
C1269 C1275 1.428 . S
H1270 C1266 0.930 . S
H1271 C1268 0.929 . S
S1272 N1273 1.613 . S
S1272 N1274 1.610 . S
N1273 S1272 1.613 . S
N1273 C1276 1.350 . S
N1274 S1272 1.610 . S
N1274 C1275 1.351 . S
C1275 C1269 1.428 . S
C1275 N1274 1.351 . S
C1275 C1276 1.434 . S
C1276 C1267 1.429 . S
C1276 N1273 1.350 . S
C1276 C1275 1.434 . S
C1277 C1278 1.369 . S
C1277 C1279 1.419 . S
C1277 H1281 0.930 . S
C1278 C1277 1.369 . S
C1278 C1287 1.429 . S
C1279 C1277 1.419 . S
C1279 C1280 1.363 . S
C1279 H1282 0.929 . S
C1280 C1279 1.363 . S
C1280 C1286 1.428 . S
H1281 C1277 0.930 . S
H1282 C1279 0.929 . S
S1283 N1284 1.613 . S
S1283 N1285 1.610 . S
N1284 S1283 1.613 . S
N1284 C1287 1.350 . S
N1285 S1283 1.610 . S
N1285 C1286 1.351 . S
C1286 C1280 1.428 . S
C1286 N1285 1.351 . S
C1286 C1287 1.434 . S
C1287 C1278 1.429 . S
C1287 N1284 1.350 . S
C1287 C1286 1.434 . S
C1288 C1289 1.369 . S
C1288 C1290 1.419 . S
C1288 H1292 0.930 . S
C1289 C1288 1.369 . S
C1289 C1298 1.429 . S
C1290 C1288 1.419 . S
C1290 C1291 1.363 . S
C1290 H1293 0.929 . S
C1291 C1290 1.363 . S
C1291 C1297 1.428 . S
H1292 C1288 0.930 . S
H1293 C1290 0.929 . S
S1294 N1295 1.613 . S
S1294 N1296 1.610 . S
N1295 S1294 1.613 . S
N1295 C1298 1.350 . S
N1296 S1294 1.610 . S
N1296 C1297 1.351 . S
C1297 C1291 1.428 . S
C1297 N1296 1.351 . S
C1297 C1298 1.434 . S
C1298 C1289 1.429 . S
C1298 N1295 1.350 . S
C1298 C1297 1.434 . S
C1299 C1300 1.369 . S
C1299 C1301 1.419 . S
C1299 H1303 0.930 . S
C1300 C1299 1.369 . S
C1300 C1309 1.429 . S
C1301 C1299 1.419 . S
C1301 C1302 1.363 . S
C1301 H1304 0.929 . S
C1302 C1301 1.363 . S
C1302 C1308 1.428 . S
H1303 C1299 0.930 . S
H1304 C1301 0.929 . S
S1305 N1306 1.613 . S
S1305 N1307 1.610 . S
N1306 S1305 1.613 . S
N1306 C1309 1.350 . S
N1307 S1305 1.610 . S
N1307 C1308 1.351 . S
C1308 C1302 1.428 . S
C1308 N1307 1.351 . S
C1308 C1309 1.434 . S
C1309 C1300 1.429 . S
C1309 N1306 1.350 . S
C1309 C1308 1.434 . S
C1310 C1311 1.369 . S
C1310 C1312 1.419 . S
C1310 H1314 0.930 . S
C1311 C1310 1.369 . S
C1311 C1320 1.429 . S
C1312 C1310 1.419 . S
C1312 C1313 1.363 . S
C1312 H1315 0.929 . S
C1313 C1312 1.363 . S
C1313 C1319 1.428 . S
H1314 C1310 0.930 . S
H1315 C1312 0.929 . S
S1316 N1317 1.613 . S
S1316 N1318 1.610 . S
N1317 S1316 1.613 . S
N1317 C1320 1.350 . S
N1318 S1316 1.610 . S
N1318 C1319 1.351 . S
C1319 C1313 1.428 . S
C1319 N1318 1.351 . S
C1319 C1320 1.434 . S
C1320 C1311 1.429 . S
C1320 N1317 1.350 . S
C1320 C1319 1.434 . S
C1321 C1322 1.369 . S
C1321 C1323 1.419 . S
C1321 H1325 0.930 . S
C1322 C1321 1.369 . S
C1322 C1331 1.429 . S
C1323 C1321 1.419 . S
C1323 C1324 1.363 . S
C1323 H1326 0.929 . S
C1324 C1323 1.363 . S
C1324 C1330 1.428 . S
H1325 C1321 0.930 . S
H1326 C1323 0.929 . S
S1327 N1328 1.613 . S
S1327 N1329 1.610 . S
N1328 S1327 1.613 . S
N1328 C1331 1.350 . S
N1329 S1327 1.610 . S
N1329 C1330 1.351 . S
C1330 C1324 1.428 . S
C1330 N1329 1.351 . S
C1330 C1331 1.434 . S
C1331 C1322 1.429 . S
C1331 N1328 1.350 . S
C1331 C1330 1.434 . S
C1332 C1333 1.369 . S
C1332 C1334 1.419 . S
C1332 H1336 0.930 . S
C1333 C1332 1.369 . S
C1333 C1342 1.429 . S
C1334 C1332 1.419 . S
C1334 C1335 1.363 . S
C1334 H1337 0.929 . S
C1335 C1334 1.363 . S
C1335 C1341 1.428 . S
H1336 C1332 0.930 . S
H1337 C1334 0.929 . S
S1338 N1339 1.613 . S
S1338 N1340 1.610 . S
N1339 S1338 1.613 . S
N1339 C1342 1.350 . S
N1340 S1338 1.610 . S
N1340 C1341 1.351 . S
C1341 C1335 1.428 . S
C1341 N1340 1.351 . S
C1341 C1342 1.434 . S
C1342 C1333 1.429 . S
C1342 N1339 1.350 . S
C1342 C1341 1.434 . S
C1343 C1344 1.369 . S
C1343 C1345 1.419 . S
C1343 H1347 0.930 . S
C1344 C1343 1.369 . S
C1344 C1353 1.429 . S
C1345 C1343 1.419 . S
C1345 C1346 1.363 . S
C1345 H1348 0.929 . S
C1346 C1345 1.363 . S
C1346 C1352 1.428 . S
H1347 C1343 0.930 . S
H1348 C1345 0.929 . S
S1349 N1350 1.613 . S
S1349 N1351 1.610 . S
N1350 S1349 1.613 . S
N1350 C1353 1.350 . S
N1351 S1349 1.610 . S
N1351 C1352 1.351 . S
C1352 C1346 1.428 . S
C1352 N1351 1.351 . S
C1352 C1353 1.434 . S
C1353 C1344 1.429 . S
C1353 N1350 1.350 . S
C1353 C1352 1.434 . S
C1354 C1355 1.369 . S
C1354 C1356 1.419 . S
C1354 H1358 0.930 . S
C1355 C1354 1.369 . S
C1355 C1364 1.429 . S
C1356 C1354 1.419 . S
C1356 C1357 1.363 . S
C1356 H1359 0.929 . S
C1357 C1356 1.363 . S
C1357 C1363 1.428 . S
H1358 C1354 0.930 . S
H1359 C1356 0.929 . S
S1360 N1361 1.613 . S
S1360 N1362 1.610 . S
N1361 S1360 1.613 . S
N1361 C1364 1.350 . S
N1362 S1360 1.610 . S
N1362 C1363 1.351 . S
C1363 C1357 1.428 . S
C1363 N1362 1.351 . S
C1363 C1364 1.434 . S
C1364 C1355 1.429 . S
C1364 N1361 1.350 . S
C1364 C1363 1.434 . S
C1365 C1366 1.369 . S
C1365 C1367 1.419 . S
C1365 H1369 0.930 . S
C1366 C1365 1.369 . S
C1366 C1375 1.429 . S
C1367 C1365 1.419 . S
C1367 C1368 1.363 . S
C1367 H1370 0.929 . S
C1368 C1367 1.363 . S
C1368 C1374 1.428 . S
H1369 C1365 0.930 . S
H1370 C1367 0.929 . S
S1371 N1372 1.613 . S
S1371 N1373 1.610 . S
N1372 S1371 1.613 . S
N1372 C1375 1.350 . S
N1373 S1371 1.610 . S
N1373 C1374 1.351 . S
C1374 C1368 1.428 . S
C1374 N1373 1.351 . S
C1374 C1375 1.434 . S
C1375 C1366 1.429 . S
C1375 N1372 1.350 . S
C1375 C1374 1.434 . S
C1376 C1377 1.369 . S
C1376 C1378 1.419 . S
C1376 H1380 0.930 . S
C1377 C1376 1.369 . S
C1377 C1386 1.429 . S
C1378 C1376 1.419 . S
C1378 C1379 1.363 . S
C1378 H1381 0.929 . S
C1379 C1378 1.363 . S
C1379 C1385 1.428 . S
H1380 C1376 0.930 . S
H1381 C1378 0.929 . S
S1382 N1383 1.613 . S
S1382 N1384 1.610 . S
N1383 S1382 1.613 . S
N1383 C1386 1.350 . S
N1384 S1382 1.610 . S
N1384 C1385 1.351 . S
C1385 C1379 1.428 . S
C1385 N1384 1.351 . S
C1385 C1386 1.434 . S
C1386 C1377 1.429 . S
C1386 N1383 1.350 . S
C1386 C1385 1.434 . S
C1387 C1388 1.369 . S
C1387 C1389 1.419 . S
C1387 H1391 0.930 . S
C1388 C1387 1.369 . S
C1388 C1397 1.429 . S
C1389 C1387 1.419 . S
C1389 C1390 1.363 . S
C1389 H1392 0.929 . S
C1390 C1389 1.363 . S
C1390 C1396 1.428 . S
H1391 C1387 0.930 . S
H1392 C1389 0.929 . S
S1393 N1394 1.613 . S
S1393 N1395 1.610 . S
N1394 S1393 1.613 . S
N1394 C1397 1.350 . S
N1395 S1393 1.610 . S
N1395 C1396 1.351 . S
C1396 C1390 1.428 . S
C1396 N1395 1.351 . S
C1396 C1397 1.434 . S
C1397 C1388 1.429 . S
C1397 N1394 1.350 . S
C1397 C1396 1.434 . S
C1398 C1399 1.369 . S
C1398 C1400 1.419 . S
C1398 H1402 0.930 . S
C1399 C1398 1.369 . S
C1399 C1408 1.429 . S
C1400 C1398 1.419 . S
C1400 C1401 1.363 . S
C1400 H1403 0.929 . S
C1401 C1400 1.363 . S
C1401 C1407 1.428 . S
H1402 C1398 0.930 . S
H1403 C1400 0.929 . S
S1404 N1405 1.613 . S
S1404 N1406 1.610 . S
N1405 S1404 1.613 . S
N1405 C1408 1.350 . S
N1406 S1404 1.610 . S
N1406 C1407 1.351 . S
C1407 C1401 1.428 . S
C1407 N1406 1.351 . S
C1407 C1408 1.434 . S
C1408 C1399 1.429 . S
C1408 N1405 1.350 . S
C1408 C1407 1.434 . S
C1409 C1410 1.369 . S
C1409 C1411 1.419 . S
C1409 H1413 0.930 . S
C1410 C1409 1.369 . S
C1410 C1419 1.429 . S
C1411 C1409 1.419 . S
C1411 C1412 1.363 . S
C1411 H1414 0.929 . S
C1412 C1411 1.363 . S
C1412 C1418 1.428 . S
H1413 C1409 0.930 . S
H1414 C1411 0.929 . S
S1415 N1416 1.613 . S
S1415 N1417 1.610 . S
N1416 S1415 1.613 . S
N1416 C1419 1.350 . S
N1417 S1415 1.610 . S
N1417 C1418 1.351 . S
C1418 C1412 1.428 . S
C1418 N1417 1.351 . S
C1418 C1419 1.434 . S
C1419 C1410 1.429 . S
C1419 N1416 1.350 . S
C1419 C1418 1.434 . S
C1420 C1421 1.369 . S
C1420 C1422 1.419 . S
C1420 H1424 0.930 . S
C1421 C1420 1.369 . S
C1421 C1430 1.429 . S
C1422 C1420 1.419 . S
C1422 C1423 1.363 . S
C1422 H1425 0.929 . S
C1423 C1422 1.363 . S
C1423 C1429 1.428 . S
H1424 C1420 0.930 . S
H1425 C1422 0.929 . S
S1426 N1427 1.613 . S
S1426 N1428 1.610 . S
N1427 S1426 1.613 . S
N1427 C1430 1.350 . S
N1428 S1426 1.610 . S
N1428 C1429 1.351 . S
C1429 C1423 1.428 . S
C1429 N1428 1.351 . S
C1429 C1430 1.434 . S
C1430 C1421 1.429 . S
C1430 N1427 1.350 . S
C1430 C1429 1.434 . S
C1431 C1432 1.369 . S
C1431 C1433 1.419 . S
C1431 H1435 0.930 . S
C1432 C1431 1.369 . S
C1432 C1441 1.429 . S
C1433 C1431 1.419 . S
C1433 C1434 1.363 . S
C1433 H1436 0.929 . S
C1434 C1433 1.363 . S
C1434 C1440 1.428 . S
H1435 C1431 0.930 . S
H1436 C1433 0.929 . S
S1437 N1438 1.613 . S
S1437 N1439 1.610 . S
N1438 S1437 1.613 . S
N1438 C1441 1.350 . S
N1439 S1437 1.610 . S
N1439 C1440 1.351 . S
C1440 C1434 1.428 . S
C1440 N1439 1.351 . S
C1440 C1441 1.434 . S
C1441 C1432 1.429 . S
C1441 N1438 1.350 . S
C1441 C1440 1.434 . S
C1442 C1443 1.369 . S
C1442 C1444 1.419 . S
C1442 H1446 0.930 . S
C1443 C1442 1.369 . S
C1443 C1452 1.429 . S
C1444 C1442 1.419 . S
C1444 C1445 1.363 . S
C1444 H1447 0.929 . S
C1445 C1444 1.363 . S
C1445 C1451 1.428 . S
H1446 C1442 0.930 . S
H1447 C1444 0.929 . S
S1448 N1449 1.613 . S
S1448 N1450 1.610 . S
N1449 S1448 1.613 . S
N1449 C1452 1.350 . S
N1450 S1448 1.610 . S
N1450 C1451 1.351 . S
C1451 C1445 1.428 . S
C1451 N1450 1.351 . S
C1451 C1452 1.434 . S
C1452 C1443 1.429 . S
C1452 N1449 1.350 . S
C1452 C1451 1.434 . S
C1453 C1454 1.369 . S
C1453 C1455 1.419 . S
C1453 H1457 0.930 . S
C1454 C1453 1.369 . S
C1454 C1463 1.429 . S
C1455 C1453 1.419 . S
C1455 C1456 1.363 . S
C1455 H1458 0.929 . S
C1456 C1455 1.363 . S
C1456 C1462 1.428 . S
H1457 C1453 0.930 . S
H1458 C1455 0.929 . S
S1459 N1460 1.613 . S
S1459 N1461 1.610 . S
N1460 S1459 1.613 . S
N1460 C1463 1.350 . S
N1461 S1459 1.610 . S
N1461 C1462 1.351 . S
C1462 C1456 1.428 . S
C1462 N1461 1.351 . S
C1462 C1463 1.434 . S
C1463 C1454 1.429 . S
C1463 N1460 1.350 . S
C1463 C1462 1.434 . S
C1464 C1465 1.369 . S
C1464 C1466 1.419 1_554 S
C1464 H1468 0.930 . S
C1465 C1464 1.369 . S
C1465 C1474 1.429 . S
C1466 C1464 1.419 1_556 S
C1466 C1467 1.363 . S
C1466 H1469 0.929 . S
C1467 C1466 1.363 . S
C1467 C1473 1.428 . S
H1468 C1464 0.930 . S
H1469 C1466 0.929 . S
S1470 N1471 1.613 . S
S1470 N1472 1.610 1_554 S
N1471 S1470 1.613 . S
N1471 C1474 1.350 . S
N1472 S1470 1.610 1_556 S
N1472 C1473 1.351 . S
C1473 C1467 1.428 . S
C1473 N1472 1.351 . S
C1473 C1474 1.434 1_556 S
C1474 C1465 1.429 . S
C1474 N1471 1.350 . S
C1474 C1473 1.434 1_554 S
C1475 C1476 1.369 . S
C1475 C1477 1.419 1_556 S
C1475 H1479 0.930 . S
C1476 C1475 1.369 . S
C1476 C1485 1.429 . S
C1477 C1475 1.419 1_554 S
C1477 C1478 1.363 . S
C1477 H1480 0.929 . S
C1478 C1477 1.363 . S
C1478 C1484 1.428 . S
H1479 C1475 0.930 . S
H1480 C1477 0.929 . S
S1481 N1482 1.613 . S
S1481 N1483 1.610 1_556 S
N1482 S1481 1.613 . S
N1482 C1485 1.350 . S
N1483 S1481 1.610 1_554 S
N1483 C1484 1.351 . S
C1484 C1478 1.428 . S
C1484 N1483 1.351 . S
C1484 C1485 1.434 1_554 S
C1485 C1476 1.429 . S
C1485 N1482 1.350 . S
C1485 C1484 1.434 1_556 S
C1486 C1487 1.369 . S
C1486 C1488 1.419 1_554 S
C1486 H1490 0.930 . S
C1487 C1486 1.369 . S
C1487 C1496 1.429 . S
C1488 C1486 1.419 1_556 S
C1488 C1489 1.363 . S
C1488 H1491 0.929 . S
C1489 C1488 1.363 . S
C1489 C1495 1.428 . S
H1490 C1486 0.930 . S
H1491 C1488 0.929 . S
S1492 N1493 1.613 . S
S1492 N1494 1.610 1_554 S
N1493 S1492 1.613 . S
N1493 C1496 1.350 . S
N1494 S1492 1.610 1_556 S
N1494 C1495 1.351 . S
C1495 C1489 1.428 . S
C1495 N1494 1.351 . S
C1495 C1496 1.434 1_556 S
C1496 C1487 1.429 . S
C1496 N1493 1.350 . S
C1496 C1495 1.434 1_554 S
C1497 C1498 1.369 . S
C1497 C1499 1.419 1_554 S
C1497 H1501 0.930 . S
C1498 C1497 1.369 . S
C1498 C1507 1.429 . S
C1499 C1497 1.419 1_556 S
C1499 C1500 1.363 . S
C1499 H1502 0.929 . S
C1500 C1499 1.363 . S
C1500 C1506 1.428 . S
H1501 C1497 0.930 . S
H1502 C1499 0.929 . S
S1503 N1504 1.613 . S
S1503 N1505 1.610 1_554 S
N1504 S1503 1.613 . S
N1504 C1507 1.350 . S
N1505 S1503 1.610 1_556 S
N1505 C1506 1.351 . S
C1506 C1500 1.428 . S
C1506 N1505 1.351 . S
C1506 C1507 1.434 1_556 S
C1507 C1498 1.429 . S
C1507 N1504 1.350 . S
C1507 C1506 1.434 1_554 S
C1508 C1509 1.369 . S
C1508 C1510 1.419 1_556 S
C1508 H1512 0.930 . S
C1509 C1508 1.369 . S
C1509 C1518 1.429 . S
C1510 C1508 1.419 1_554 S
C1510 C1511 1.363 . S
C1510 H1513 0.929 . S
C1511 C1510 1.363 . S
C1511 C1517 1.428 . S
H1512 C1508 0.930 . S
H1513 C1510 0.929 . S
S1514 N1515 1.613 . S
S1514 N1516 1.610 1_556 S
N1515 S1514 1.613 . S
N1515 C1518 1.350 . S
N1516 S1514 1.610 1_554 S
N1516 C1517 1.351 . S
C1517 C1511 1.428 . S
C1517 N1516 1.351 . S
C1517 C1518 1.434 1_554 S
C1518 C1509 1.429 . S
C1518 N1515 1.350 . S
C1518 C1517 1.434 1_556 S
C1519 C1520 1.369 . S
C1519 C1521 1.419 1_554 S
C1519 H1523 0.930 . S
C1520 C1519 1.369 . S
C1520 C1529 1.429 . S
C1521 C1519 1.419 1_556 S
C1521 C1522 1.363 . S
C1521 H1524 0.929 . S
C1522 C1521 1.363 . S
C1522 C1528 1.428 . S
H1523 C1519 0.930 . S
H1524 C1521 0.929 . S
S1525 N1526 1.613 1_556 S
S1525 N1527 1.610 . S
N1526 S1525 1.613 1_554 S
N1526 C1529 1.350 . S
N1527 S1525 1.610 . S
N1527 C1528 1.351 . S
C1528 C1522 1.428 . S
C1528 N1527 1.351 . S
C1528 C1529 1.434 1_556 S
C1529 C1520 1.429 . S
C1529 N1526 1.350 . S
C1529 C1528 1.434 1_554 S
C1530 C1531 1.369 . S
C1530 C1532 1.419 1_556 S
C1530 H1534 0.930 . S
C1531 C1530 1.369 . S
C1531 C1540 1.429 . S
C1532 C1530 1.419 1_554 S
C1532 C1533 1.363 . S
C1532 H1535 0.929 . S
C1533 C1532 1.363 . S
C1533 C1539 1.428 . S
H1534 C1530 0.930 . S
H1535 C1532 0.929 . S
S1536 N1537 1.613 1_554 S
S1536 N1538 1.610 . S
N1537 S1536 1.613 1_556 S
N1537 C1540 1.350 . S
N1538 S1536 1.610 . S
N1538 C1539 1.351 . S
C1539 C1533 1.428 . S
C1539 N1538 1.351 . S
C1539 C1540 1.434 1_554 S
C1540 C1531 1.429 . S
C1540 N1537 1.350 . S
C1540 C1539 1.434 1_556 S
C1541 C1542 1.369 . S
C1541 C1543 1.419 1_554 S
C1541 H1545 0.930 . S
C1542 C1541 1.369 . S
C1542 C1551 1.429 . S
C1543 C1541 1.419 1_556 S
C1543 C1544 1.363 . S
C1543 H1546 0.929 . S
C1544 C1543 1.363 . S
C1544 C1550 1.428 . S
H1545 C1541 0.930 . S
H1546 C1543 0.929 . S
S1547 N1548 1.613 1_556 S
S1547 N1549 1.610 . S
N1548 S1547 1.613 1_554 S
N1548 C1551 1.350 . S
N1549 S1547 1.610 . S
N1549 C1550 1.351 . S
C1550 C1544 1.428 . S
C1550 N1549 1.351 . S
C1550 C1551 1.434 1_556 S
C1551 C1542 1.429 . S
C1551 N1548 1.350 . S
C1551 C1550 1.434 1_554 S
C1552 C1553 1.369 . S
C1552 C1554 1.419 1_455 S
C1552 H1556 0.930 . S
C1553 C1552 1.369 . S
C1553 C1562 1.429 . S
C1554 C1552 1.419 1_655 S
C1554 C1555 1.363 . S
C1554 H1557 0.929 . S
C1555 C1554 1.363 . S
C1555 C1561 1.428 . S
H1556 C1552 0.930 . S
H1557 C1554 0.929 . S
S1558 N1559 1.613 1_655 S
S1558 N1560 1.610 . S
N1559 S1558 1.613 1_455 S
N1559 C1562 1.350 . S
N1560 S1558 1.610 . S
N1560 C1561 1.351 . S
C1561 C1555 1.428 . S
C1561 N1560 1.351 . S
C1561 C1562 1.434 1_655 S
C1562 C1553 1.429 . S
C1562 N1559 1.350 . S
C1562 C1561 1.434 1_455 S
C1563 C1564 1.369 . S
C1563 C1565 1.419 1_565 S
C1563 H1567 0.930 . S
C1564 C1563 1.369 . S
C1564 C1573 1.429 . S
C1565 C1563 1.419 1_545 S
C1565 C1566 1.363 . S
C1565 H1568 0.929 . S
C1566 C1565 1.363 . S
C1566 C1572 1.428 . S
H1567 C1563 0.930 . S
H1568 C1565 0.929 . S
S1569 N1570 1.613 . S
S1569 N1571 1.610 1_565 S
N1570 S1569 1.613 . S
N1570 C1573 1.350 . S
N1571 S1569 1.610 1_545 S
N1571 C1572 1.351 . S
C1572 C1566 1.428 . S
C1572 N1571 1.351 . S
C1572 C1573 1.434 1_545 S
C1573 C1564 1.429 . S
C1573 N1570 1.350 . S
C1573 C1572 1.434 1_565 S
C1574 C1575 1.369 . S
C1574 C1576 1.419 1_455 S
C1574 H1578 0.930 . S
C1575 C1574 1.369 . S
C1575 C1584 1.429 . S
C1576 C1574 1.419 1_655 S
C1576 C1577 1.363 . S
C1576 H1579 0.929 . S
C1577 C1576 1.363 . S
C1577 C1583 1.428 1_655 S
H1578 C1574 0.930 . S
H1579 C1576 0.929 . S
S1580 N1581 1.613 . S
S1580 N1582 1.610 1_455 S
N1581 S1580 1.613 . S
N1581 C1584 1.350 . S
N1582 S1580 1.610 1_655 S
N1582 C1583 1.351 1_655 S
C1583 C1577 1.428 1_455 S
C1583 N1582 1.351 1_455 S
C1583 C1584 1.434 . S
C1584 C1575 1.429 . S
C1584 N1581 1.350 . S
C1584 C1583 1.434 . S
C1585 C1586 1.369 . S
C1585 C1587 1.419 1_565 S
C1585 H1589 0.930 . S
C1586 C1585 1.369 . S
C1586 C1595 1.429 . S
C1587 C1585 1.419 1_545 S
C1587 C1588 1.363 . S
C1587 H1590 0.929 . S
C1588 C1587 1.363 . S
C1588 C1594 1.428 . S
H1589 C1585 0.930 . S
H1590 C1587 0.929 . S
S1591 N1592 1.613 . S
S1591 N1593 1.610 1_565 S
N1592 S1591 1.613 . S
N1592 C1595 1.350 . S
N1593 S1591 1.610 1_545 S
N1593 C1594 1.351 . S
C1594 C1588 1.428 . S
C1594 N1593 1.351 . S
C1594 C1595 1.434 1_545 S
C1595 C1586 1.429 . S
C1595 N1592 1.350 . S
C1595 C1594 1.434 1_565 S
C1596 C1597 1.369 . S
C1596 C1598 1.419 1_655 S
C1596 H1600 0.930 . S
C1597 C1596 1.369 . S
C1597 C1606 1.429 . S
C1598 C1596 1.419 1_455 S
C1598 C1599 1.363 . S
C1598 H1601 0.929 . S
C1599 C1598 1.363 . S
C1599 C1605 1.428 . S
H1600 C1596 0.930 . S
H1601 C1598 0.929 . S
S1602 N1603 1.642 . S
S1602 N1604 1.583 1_655 S
N1603 S1602 1.642 . S
N1603 C1606 1.350 . S
N1604 S1602 1.583 1_455 S
N1604 C1605 1.351 . S
C1605 C1599 1.428 . S
C1605 N1604 1.351 . S
C1605 C1606 1.434 1_455 S
C1606 C1597 1.429 . S
C1606 N1603 1.350 . S
C1606 C1605 1.434 1_655 S
C1607 C1608 1.369 . S
C1607 C1609 1.419 1_545 S
C1607 H1611 0.930 . S
C1608 C1607 1.369 . S
C1608 C1617 1.429 . S
C1609 C1607 1.419 1_565 S
C1609 C1610 1.363 . S
C1609 H1612 0.929 . S
C1610 C1609 1.363 . S
C1610 C1616 1.428 . S
H1611 C1607 0.930 . S
H1612 C1609 0.929 . S
S1613 N1614 1.613 . S
S1613 N1615 1.610 1_545 S
N1614 S1613 1.613 . S
N1614 C1617 1.350 . S
N1615 S1613 1.610 1_565 S
N1615 C1616 1.351 . S
C1616 C1610 1.428 . S
C1616 N1615 1.351 . S
C1616 C1617 1.434 1_565 S
C1617 C1608 1.429 . S
C1617 N1614 1.350 . S
C1617 C1616 1.434 1_545 S
C1618 C1619 1.369 . S
C1618 C1620 1.419 1_455 S
C1618 H1622 0.930 . S
C1619 C1618 1.369 . S
C1619 C1628 1.429 . S
C1620 C1618 1.419 1_655 S
C1620 C1621 1.363 . S
C1620 H1623 0.929 . S
C1621 C1620 1.363 . S
C1621 C1627 1.428 . S
H1622 C1618 0.930 . S
H1623 C1620 0.929 . S
S1624 N1625 1.613 . S
S1624 N1626 1.610 1_455 S
N1625 S1624 1.613 . S
N1625 C1628 1.350 . S
N1626 S1624 1.610 1_655 S
N1626 C1627 1.351 . S
C1627 C1621 1.428 . S
C1627 N1626 1.351 . S
C1627 C1628 1.434 1_655 S
C1628 C1619 1.429 . S
C1628 N1625 1.350 . S
C1628 C1627 1.434 1_455 S
C1629 C1630 1.369 . S
C1629 C1631 1.419 1_545 S
C1629 H1633 0.930 . S
C1630 C1629 1.369 . S
C1630 C1639 1.429 . S
C1631 C1629 1.419 1_565 S
C1631 C1632 1.363 . S
C1631 H1634 0.929 . S
C1632 C1631 1.363 . S
C1632 C1638 1.428 . S
H1633 C1629 0.930 . S
H1634 C1631 0.929 . S
S1635 N1636 1.613 1_565 S
S1635 N1637 1.610 . S
N1636 S1635 1.613 1_545 S
N1636 C1639 1.350 . S
N1637 S1635 1.610 . S
N1637 C1638 1.351 . S
C1638 C1632 1.428 . S
C1638 N1637 1.351 . S
C1638 C1639 1.434 1_565 S
C1639 C1630 1.429 . S
C1639 N1636 1.350 . S
C1639 C1638 1.434 1_545 S
C1640 C1641 1.369 . S
C1640 C1642 1.419 1_545 S
C1640 H1644 0.930 . S
C1641 C1640 1.369 . S
C1641 C1650 1.429 . S
C1642 C1640 1.419 1_565 S
C1642 C1643 1.363 . S
C1642 H1645 0.929 . S
C1643 C1642 1.363 . S
C1643 C1649 1.428 . S
H1644 C1640 0.930 . S
H1645 C1642 0.929 . S
S1646 N1647 1.613 1_565 S
S1646 N1648 1.610 . S
N1647 S1646 1.613 1_545 S
N1647 C1650 1.350 . S
N1648 S1646 1.610 . S
N1648 C1649 1.351 . S
C1649 C1643 1.428 . S
C1649 N1648 1.351 . S
C1649 C1650 1.434 1_565 S
C1650 C1641 1.429 . S
C1650 N1647 1.350 . S
C1650 C1649 1.434 1_545 S
C1651 C1652 1.369 . S
C1651 C1653 1.419 1_545 S
C1651 H1655 0.930 . S
C1652 C1651 1.369 . S
C1652 C1661 1.429 . S
C1653 C1651 1.419 1_565 S
C1653 C1654 1.363 . S
C1653 H1656 0.929 . S
C1654 C1653 1.363 . S
C1654 C1660 1.428 . S
H1655 C1651 0.930 . S
H1656 C1653 0.929 . S
S1657 N1658 1.613 1_565 S
S1657 N1659 1.610 . S
N1658 S1657 1.613 1_545 S
N1658 C1661 1.350 . S
N1659 S1657 1.610 . S
N1659 C1660 1.351 . S
C1660 C1654 1.428 . S
C1660 N1659 1.351 . S
C1660 C1661 1.434 1_565 S
C1661 C1652 1.429 . S
C1661 N1658 1.350 . S
C1661 C1660 1.434 1_545 S
C1662 C1663 1.369 . S
C1662 C1664 1.419 1_655 S
C1662 H1666 0.930 . S
C1663 C1662 1.369 . S
C1663 C1672 1.429 . S
C1664 C1662 1.419 1_455 S
C1664 C1665 1.363 . S
C1664 H1667 0.929 . S
C1665 C1664 1.363 . S
C1665 C1671 1.428 . S
H1666 C1662 0.930 . S
H1667 C1664 0.929 . S
S1668 N1669 1.613 . S
S1668 N1670 1.610 1_655 S
N1669 S1668 1.613 . S
N1669 C1672 1.350 . S
N1670 S1668 1.610 1_455 S
N1670 C1671 1.351 . S
C1671 C1665 1.428 . S
C1671 N1670 1.351 . S
C1671 C1672 1.434 1_455 S
C1672 C1663 1.429 . S
C1672 N1669 1.350 . S
C1672 C1671 1.434 1_655 S
C1673 C1674 1.369 . S
C1673 C1675 1.419 1_545 S
C1673 H1677 0.930 . S
C1674 C1673 1.369 . S
C1674 C1683 1.429 . S
C1675 C1673 1.419 1_565 S
C1675 C1676 1.363 . S
C1675 H1678 0.929 . S
C1676 C1675 1.363 . S
C1676 C1682 1.428 . S
H1677 C1673 0.930 . S
H1678 C1675 0.929 . S
S1679 N1680 1.613 . S
S1679 N1681 1.610 1_545 S
N1680 S1679 1.613 . S
N1680 C1683 1.350 . S
N1681 S1679 1.610 1_565 S
N1681 C1682 1.351 . S
C1682 C1676 1.428 . S
C1682 N1681 1.351 . S
C1682 C1683 1.434 1_565 S
C1683 C1674 1.429 . S
C1683 N1680 1.350 . S
C1683 C1682 1.434 1_545 S
C1684 C1685 1.369 . S
C1684 C1686 1.419 1_455 S
C1684 H1688 0.930 . S
C1685 C1684 1.369 . S
C1685 C1694 1.429 . S
C1686 C1684 1.419 1_655 S
C1686 C1687 1.363 . S
C1686 H1689 0.929 . S
C1687 C1686 1.363 . S
C1687 C1693 1.428 . S
H1688 C1684 0.930 . S
H1689 C1686 0.929 . S
S1690 N1691 1.613 . S
S1690 N1692 1.610 1_455 S
N1691 S1690 1.613 . S
N1691 C1694 1.350 . S
N1692 S1690 1.610 1_655 S
N1692 C1693 1.351 . S
C1693 C1687 1.428 . S
C1693 N1692 1.351 . S
C1693 C1694 1.434 1_655 S
C1694 C1685 1.429 . S
C1694 N1691 1.350 . S
C1694 C1693 1.434 1_455 S
C1695 C1696 1.369 . S
C1695 C1697 1.419 1_545 S
C1695 H1699 0.930 . S
C1696 C1695 1.369 . S
C1696 C1705 1.429 . S
C1697 C1695 1.419 1_565 S
C1697 C1698 1.363 . S
C1697 H1700 0.929 . S
C1698 C1697 1.363 . S
C1698 C1704 1.428 . S
H1699 C1695 0.930 . S
H1700 C1697 0.929 . S
S1701 N1702 1.613 . S
S1701 N1703 1.610 1_545 S
N1702 S1701 1.613 . S
N1702 C1705 1.350 . S
N1703 S1701 1.610 1_565 S
N1703 C1704 1.351 . S
C1704 C1698 1.428 . S
C1704 N1703 1.351 . S
C1704 C1705 1.434 1_565 S
C1705 C1696 1.429 . S
C1705 N1702 1.350 . S
C1705 C1704 1.434 1_545 S
C1706 C1707 1.369 . S
C1706 C1708 1.419 1_655 S
C1706 H1710 0.930 . S
C1707 C1706 1.369 . S
C1707 C1716 1.429 . S
C1708 C1706 1.419 1_455 S
C1708 C1709 1.363 . S
C1708 H1711 0.929 . S
C1709 C1708 1.363 . S
C1709 C1715 1.428 . S
H1710 C1706 0.930 . S
H1711 C1708 0.929 . S
S1712 N1713 1.613 . S
S1712 N1714 1.610 1_655 S
N1713 S1712 1.613 . S
N1713 C1716 1.350 . S
N1714 S1712 1.610 1_455 S
N1714 C1715 1.351 . S
C1715 C1709 1.428 . S
C1715 N1714 1.351 . S
C1715 C1716 1.434 1_455 S
C1716 C1707 1.429 . S
C1716 N1713 1.350 . S
C1716 C1715 1.434 1_655 S
C1717 C1718 1.369 . S
C1717 C1719 1.419 1_455 S
C1717 H1721 0.930 . S
C1718 C1717 1.369 . S
C1718 C1727 1.429 . S
C1719 C1717 1.419 1_655 S
C1719 C1720 1.363 . S
C1719 H1722 0.929 . S
C1720 C1719 1.363 . S
C1720 C1726 1.428 . S
H1721 C1717 0.930 . S
H1722 C1719 0.929 . S
S1723 N1724 1.613 . S
S1723 N1725 1.610 1_455 S
N1724 S1723 1.613 . S
N1724 C1727 1.350 . S
N1725 S1723 1.610 1_655 S
N1725 C1726 1.351 . S
C1726 C1720 1.428 . S
C1726 N1725 1.351 . S
C1726 C1727 1.434 1_655 S
C1727 C1718 1.429 . S
C1727 N1724 1.350 . S
C1727 C1726 1.434 1_455 S
C673 C557 1.229 . S
C675 C5 1.134 . S
C684 C25 1.366 . S
C686 C509 1.225 . S
C695 C33 1.191 . S
C697 C529 1.306 . S
C706 C537 1.236 . S
C708 C53 1.361 . S
C717 C473 1.359 . S
C719 C67 1.331 . S
C728 C75 1.174 . S
C730 C481 1.153 . S
C739 C95 1.328 . S
C741 C501 1.354 . S
C750 C103 1.109 . S
C752 C453 1.112 . S
C761 C117 1.125 . S
C763 C439 1.154 . S
C772 C403 1.365 . S
C774 C137 1.343 . S
C783 C411 1.159 . S
C785 C145 1.130 . S
C794 C159 1.222 . S
C796 C431 1.336 . S
C805 C173 1.172 . S
C807 C361 1.326 . S
C816 C187 1.178 . S
C818 C375 1.260 . S
C827 C389 1.356 . S
C829 C207 1.356 . S
C838 C347 1.258 . S
C840 C215 1.180 . S
C849 C235 1.259 . S
C851 C621 1.151 . S
C860 C663 1.245 . S
C862 C243 1.230 . S
C871 C641 1.292 . S
C873 C263 1.313 . S
C882 C649 1.232 . S
C884 C271 1.205 . S
C893 C571 1.272 . S
C895 C291 1.297 . S
C904 C593 1.181 . S
C906 C305 1.267 . S
C915 C313 1.184 . S
C917 C607 1.199 . S
C926 C579 1.181 . S
C928 C327 1.149 . S
C937 C459 1.235 . S
C939 C285 1.134 . S
C948 C249 1.385 . S
C950 C467 1.274 . S
C959 C487 1.308 . S
C961 C257 1.202 . S
C970 C495 1.281 . S
C972 C277 1.387 . S
C981 C333 1.336 . S
C983 C515 1.340 . S
C992 C523 1.154 . S
C994 C299 1.167 . S
C1003 C319 1.336 . S
C1005 C543 1.337 . S
C1014 C229 1.093 . S
C1016 C551 1.107 . S
C1025 C565 1.160 . S
C1027 C221 1.266 . S
C1036 C179 1.350 . S
C1038 C669 1.372 . S
C1047 C635 1.154 . S
C1049 C193 1.270 . S
C1058 C201 1.229 . S
C1060 C655 1.339 . S
C1069 C131 1.180 . S
C1071 C585 1.320 . S
C1080 C151 1.269 . S
C1082 C599 1.270 . S
C1091 C165 1.346 . S
C1093 C613 1.347 . S
C1102 C627 1.268 . S
C1104 C123 1.264 . S
C1113 C341 1.151 . S
C1115 C109 1.243 . S
C1124 C397 1.214 . S
C1126 C19 1.213 . S
C1135 C417 1.282 . S
C1137 C39 1.299 . S
C1146 C425 1.217 . S
C1148 C47 1.200 . S
C1157 C445 1.266 . S
C1159 C11 1.285 . S
C1168 C81 1.258 . S
C1170 C369 1.166 . S
C1179 C383 1.174 . S
C1181 C89 1.169 . S
C1190 C355 1.162 . S
C1192 C61 1.140 . S
C1201 C12 1.244 . S
C1203 C368 1.230 . S
C1212 C382 1.344 . S
C1214 C18 1.356 . S
C1223 C40 1.233 . S
C1225 C340 1.225 . S
C1234 C46 1.343 . S
C1236 C354 1.340 . S
C1245 C60 1.310 . S
C1247 C424 1.331 . S
C1256 C446 1.109 . S
C1258 C82 1.106 . S
C1267 C88 1.312 . S
C1269 C396 1.325 . S
C1278 C418 1.117 . S
C1280 C110 1.113 . S
C1289 C124 1.335 . S
C1291 C516 1.333 . S
C1300 C522 1.347 . S
C1302 C130 1.324 . S
C1311 C152 1.341 . S
C1313 C544 1.338 . S
C1322 C166 1.213 . S
C1324 C550 1.204 . S
C1333 C180 1.205 . S
C1335 C460 1.203 . S
C1344 C194 1.294 . S
C1346 C466 1.283 . S
C1355 C488 1.339 . S
C1357 C200 1.311 . S
C1366 C222 1.285 . S
C1368 C494 1.282 . S
C1377 C614 1.287 . S
C1379 C228 1.256 . S
C1388 C250 1.292 . S
C1390 C634 1.259 . S
C1399 C256 1.331 . S
C1401 C656 1.357 . S
C1410 C564 1.225 . S
C1412 C278 1.265 . S
C1421 C670 1.409 . S
C1423 C284 1.380 . S
C1432 C298 1.212 . S
C1434 C586 1.230 . S
C1443 C600 1.290 . S
C1445 C320 1.303 . S
C1454 C334 1.273 . S
C1456 C628 1.260 . S
C1465 C592 1.247 . S
C1467 C292 1.260 . S
C1476 C242 1.359 . S
C1478 C606 1.349 . S
C1487 C620 1.233 . S
C1489 C264 1.253 . S
C1498 C578 1.348 . S
C1500 C270 1.350 . S
C1509 C648 1.328 . S
C1511 C326 1.311 . S
C1520 C306 1.124 . S
C1522 C572 1.122 . S
C1531 C662 1.327 . S
C1533 C312 1.313 . S
C1542 C236 1.131 . S
C1544 C642 1.130 . S
C1553 C474 1.364 . S
C1555 C214 1.356 . S
C1564 C172 1.315 . S
C1566 C480 1.340 . S
C1575 C186 1.369 . S
C1577 C502 1.374 . S
C1586 C452 1.203 . S
C1588 C208 1.211 . S
C1597 C138 1.203 . S
C1599 C558 1.200 . S
C1608 C508 1.273 . S
C1610 C144 1.276 . S
C1619 C158 1.313 . S
C1621 C530 1.336 . S
C1630 C116 1.276 . S
C1632 C536 1.273 . S
C1641 C390 1.270 . S
C1643 C102 1.243 . S
C1652 C26 1.229 . S
C1654 C410 1.190 . S
C1663 C32 1.304 . S
C1665 C432 1.334 . S
C1674 C438 1.168 . S
C1676 C54 1.200 . S
C1685 C4 1.357 . S
C1687 C404 1.391 . S
C1696 C74 1.191 . S
C1698 C362 1.212 . S
C1707 C96 1.245 . S
C1709 C376 1.233 . S
C1718 C68 1.216 . S
C1720 C348 1.204 . S
