# Generated by pormake.
# Topology wiv, (6)-cn, num edge types: 1
# Building blocks:
#     Node 0, Type 0, BuildingBlock: BETDAH_clean_sbu_0, # of connection points: 6
#     Node 1, Type 0, BuildingBlock: BETDAH_clean_sbu_0, # of connection points: 6
#     Node 2, Type 0, BuildingBlock: BETDAH_clean_sbu_0, # of connection points: 6
#     Node 3, Type 0, BuildingBlock: BETDAH_clean_sbu_0, # of connection points: 6
#     Node 4, Type 0, BuildingBlock: BETDAH_clean_sbu_0, # of connection points: 6
#     Node 5, Type 0, BuildingBlock: BETDAH_clean_sbu_0, # of connection points: 6
#     Node 6, Type 0, BuildingBlock: BETDAH_clean_sbu_0, # of connection points: 6
#     Node 7, Type 0, BuildingBlock: BETDAH_clean_sbu_0, # of connection points: 6
#     Node 8, Type 0, BuildingBlock: BETDAH_clean_sbu_0, # of connection points: 6
#     Node 9, Type 0, BuildingBlock: BETDAH_clean_sbu_0, # of connection points: 6
#     Node 10, Type 0, BuildingBlock: BETDAH_clean_sbu_0, # of connection points: 6
#     Node 11, Type 0, BuildingBlock: BETDAH_clean_sbu_0, # of connection points: 6
#     Node 12, Type 0, BuildingBlock: BETDAH_clean_sbu_0, # of connection points: 6
#     Node 13, Type 0, BuildingBlock: BETDAH_clean_sbu_0, # of connection points: 6
#     Node 14, Type 0, BuildingBlock: BETDAH_clean_sbu_0, # of connection points: 6
#     Node 15, Type 0, BuildingBlock: BETDAH_clean_sbu_0, # of connection points: 6
#     Edge 16, Type (0, 0), BuildingBlock: KIFKEQ_clean_linker_1, # of connection points: 2
#     Edge 17, Type (0, 0), BuildingBlock: KIFKEQ_clean_linker_1, # of connection points: 2
#     Edge 18, Type (0, 0), BuildingBlock: KIFKEQ_clean_linker_1, # of connection points: 2
#     Edge 19, Type (0, 0), BuildingBlock: KIFKEQ_clean_linker_1, # of connection points: 2
#     Edge 20, Type (0, 0), BuildingBlock: KIFKEQ_clean_linker_1, # of connection points: 2
#     Edge 21, Type (0, 0), BuildingBlock: KIFKEQ_clean_linker_1, # of connection points: 2
#     Edge 22, Type (0, 0), BuildingBlock: KIFKEQ_clean_linker_1, # of connection points: 2
#     Edge 23, Type (0, 0), BuildingBlock: KIFKEQ_clean_linker_1, # of connection points: 2
#     Edge 24, Type (0, 0), BuildingBlock: KIFKEQ_clean_linker_1, # of connection points: 2
#     Edge 25, Type (0, 0), BuildingBlock: KIFKEQ_clean_linker_1, # of connection points: 2
#     Edge 26, Type (0, 0), BuildingBlock: KIFKEQ_clean_linker_1, # of connection points: 2
#     Edge 27, Type (0, 0), BuildingBlock: KIFKEQ_clean_linker_1, # of connection points: 2
#     Edge 28, Type (0, 0), BuildingBlock: KIFKEQ_clean_linker_1, # of connection points: 2
#     Edge 29, Type (0, 0), BuildingBlock: KIFKEQ_clean_linker_1, # of connection points: 2
#     Edge 30, Type (0, 0), BuildingBlock: KIFKEQ_clean_linker_1, # of connection points: 2
#     Edge 31, Type (0, 0), BuildingBlock: KIFKEQ_clean_linker_1, # of connection points: 2
#     Edge 32, Type (0, 0), BuildingBlock: KIFKEQ_clean_linker_1, # of connection points: 2
#     Edge 33, Type (0, 0), BuildingBlock: KIFKEQ_clean_linker_1, # of connection points: 2
#     Edge 34, Type (0, 0), BuildingBlock: KIFKEQ_clean_linker_1, # of connection points: 2
#     Edge 35, Type (0, 0), BuildingBlock: KIFKEQ_clean_linker_1, # of connection points: 2
#     Edge 36, Type (0, 0), BuildingBlock: KIFKEQ_clean_linker_1, # of connection points: 2
#     Edge 37, Type (0, 0), BuildingBlock: KIFKEQ_clean_linker_1, # of connection points: 2
#     Edge 38, Type (0, 0), BuildingBlock: KIFKEQ_clean_linker_1, # of connection points: 2
#     Edge 39, Type (0, 0), BuildingBlock: KIFKEQ_clean_linker_1, # of connection points: 2
#     Edge 40, Type (0, 0), BuildingBlock: KIFKEQ_clean_linker_1, # of connection points: 2
#     Edge 41, Type (0, 0), BuildingBlock: KIFKEQ_clean_linker_1, # of connection points: 2
#     Edge 42, Type (0, 0), BuildingBlock: KIFKEQ_clean_linker_1, # of connection points: 2
#     Edge 43, Type (0, 0), BuildingBlock: KIFKEQ_clean_linker_1, # of connection points: 2
#     Edge 44, Type (0, 0), BuildingBlock: KIFKEQ_clean_linker_1, # of connection points: 2
#     Edge 45, Type (0, 0), BuildingBlock: KIFKEQ_clean_linker_1, # of connection points: 2
#     Edge 46, Type (0, 0), BuildingBlock: KIFKEQ_clean_linker_1, # of connection points: 2
#     Edge 47, Type (0, 0), BuildingBlock: KIFKEQ_clean_linker_1, # of connection points: 2
#     Edge 48, Type (0, 0), BuildingBlock: KIFKEQ_clean_linker_1, # of connection points: 2
#     Edge 49, Type (0, 0), BuildingBlock: KIFKEQ_clean_linker_1, # of connection points: 2
#     Edge 50, Type (0, 0), BuildingBlock: KIFKEQ_clean_linker_1, # of connection points: 2
#     Edge 51, Type (0, 0), BuildingBlock: KIFKEQ_clean_linker_1, # of connection points: 2
#     Edge 52, Type (0, 0), BuildingBlock: KIFKEQ_clean_linker_1, # of connection points: 2
#     Edge 53, Type (0, 0), BuildingBlock: KIFKEQ_clean_linker_1, # of connection points: 2
#     Edge 54, Type (0, 0), BuildingBlock: KIFKEQ_clean_linker_1, # of connection points: 2
#     Edge 55, Type (0, 0), BuildingBlock: KIFKEQ_clean_linker_1, # of connection points: 2
#     Edge 56, Type (0, 0), BuildingBlock: KIFKEQ_clean_linker_1, # of connection points: 2
#     Edge 57, Type (0, 0), BuildingBlock: KIFKEQ_clean_linker_1, # of connection points: 2
#     Edge 58, Type (0, 0), BuildingBlock: KIFKEQ_clean_linker_1, # of connection points: 2
#     Edge 59, Type (0, 0), BuildingBlock: KIFKEQ_clean_linker_1, # of connection points: 2
#     Edge 60, Type (0, 0), BuildingBlock: KIFKEQ_clean_linker_1, # of connection points: 2
#     Edge 61, Type (0, 0), BuildingBlock: KIFKEQ_clean_linker_1, # of connection points: 2
#     Edge 62, Type (0, 0), BuildingBlock: KIFKEQ_clean_linker_1, # of connection points: 2
#     Edge 63, Type (0, 0), BuildingBlock: KIFKEQ_clean_linker_1, # of connection points: 2
# Relax obj value: 0.120
# Max RMSD: 0.179
# Mean RMSD: 0.179
data_MOF--net-wiv--node1-BETDAH_clean_sbu_0--edge1-KIFKEQ_clean_linker_1
_symmetry_space_group_name_H-M    P1
_symmetry_Int_Tables_number       1
_symmetry_cell_setting            triclinic
loop_
_symmetry_equiv_pos_as_xyz
'x, y, z'
_cell_length_a     51.785993
_cell_length_b     51.738193
_cell_length_c     25.042925
_cell_angle_alpha  89.912572
_cell_angle_beta   89.869969
_cell_angle_gamma 90.010894
loop_
_atom_site_label
_atom_site_type_symbol
_atom_site_fract_x
_atom_site_fract_y
_atom_site_fract_z
_atom_type_partial_charge
Ho0 Ho 0.35067 0.11076 0.15956 0.0
Ho1 Ho 0.38815 0.11382 0.06974 0.0
C2 C 0.41277 0.1209 0.18347 0.0
C3 C 0.32868 0.09981 0.25006 0.0
C4 C 0.33554 0.10208 0.30761 0.0
C5 C 0.34714 0.0813 0.33481 0.0
C6 C 0.35321 0.08324 0.38916 0.0
C7 C 0.3477 0.10595 0.41793 0.0
C8 C 0.33599 0.12667 0.39073 0.0
C9 C 0.32993 0.12474 0.33638 0.0
C10 C 0.35588 0.1592 0.11937 0.0
C11 C 0.32684 0.10552 0.0427 0.0
C12 C 0.4116 0.12269 0.97993 0.0
C13 C 0.40467 0.12218 0.92255 0.0
C14 C 0.38165 0.13328 0.90362 0.0
C15 C 0.37525 0.13189 0.84932 0.0
C16 C 0.39179 0.11951 0.81265 0.0
C17 C 0.41487 0.10856 0.83186 0.0
C18 C 0.42119 0.10988 0.88613 0.0
C19 C 0.38501 0.06698 0.11813 0.0
O20 O 0.3898 0.11356 0.20191 0.0
O21 O 0.41647 0.12552 0.13217 0.0
O22 O 0.32459 0.12126 0.22377 0.0
O23 O 0.34165 0.083 0.22176 0.0
O24 O 0.33413 0.14867 0.13326 0.0
O25 O 0.37404 0.14325 0.12716 0.0
O26 O 0.34977 0.11373 1.02679 0.0
O27 O 0.32258 0.09994 0.09371 0.0
O28 O 0.41198 0.10033 1.0042 0.0
O29 O 0.40125 0.14086 1.00936 0.0
O30 O 0.40634 0.07741 0.10162 0.0
O31 O 0.36621 0.08142 0.10596 0.0
H32 H 0.35143 0.06342 0.31417 0.0
H33 H 0.36184 0.06672 0.40885 0.0
H34 H 0.33171 0.14457 0.41129 0.0
H35 H 0.32082 0.14107 0.31695 0.0
H36 H 0.36854 0.14296 0.93075 0.0
H37 H 0.35747 0.14079 0.83599 0.0
H38 H 0.42791 0.09856 0.80509 0.0
H39 H 0.439 0.10109 0.89976 0.0
Ho40 Ho 0.11309 0.62419 0.97978 0.0
Ho41 Ho 0.10895 0.66232 0.89022 0.0
C42 C 0.10304 0.68557 1.00751 0.0
C43 C 0.1237 0.60132 0.06936 0.0
C44 C 0.12156 0.60806 0.12674 0.0
C45 C 0.12545 0.63348 0.14479 0.0
C46 C 0.12286 0.63955 0.19908 0.0
C47 C 0.11656 0.62028 0.23672 0.0
C48 C 0.11283 0.59482 0.21846 0.0
C49 C 0.11523 0.58882 0.16409 0.0
C50 C 0.06611 0.62671 0.93291 0.0
C51 C 0.1195 0.60055 0.86505 0.0
C52 C 0.09835 0.68452 0.79987 0.0
C53 C 0.09933 0.67723 0.74247 0.0
C54 C 0.08409 0.65713 0.72159 0.0
C55 C 0.08534 0.65083 0.66715 0.0
C56 C 0.10191 0.66439 0.63219 0.0
C57 C 0.1172 0.68439 0.65347 0.0
C58 C 0.11583 0.69077 0.70772 0.0
C59 C 0.15743 0.6574 0.93009 0.0
O60 O 0.11026 0.66233 1.02359 0.0
O61 O 0.09879 0.69049 0.95626 0.0
O62 O 0.10195 0.59813 0.04381 0.0
O63 O 0.14071 0.6142 0.04116 0.0
O64 O 0.07673 0.60549 0.94956 0.0
O65 O 0.08035 0.64576 0.94444 0.0
O66 O 0.11004 0.62303 0.84837 0.0
O67 O 0.1262 0.59715 0.91548 0.0
O68 O 0.12055 0.68679 0.82403 0.0
O69 O 0.08098 0.6733 0.82999 0.0
O70 O 0.14671 0.67913 0.91688 0.0
O71 O 0.14166 0.63921 0.92164 0.0
H72 H 0.13057 0.64869 0.11702 0.0
H73 H 0.12617 0.65929 0.21166 0.0
H74 H 0.10767 0.57955 0.24612 0.0
H75 H 0.11206 0.5691 0.15116 0.0
H76 H 0.07112 0.64628 0.74718 0.0
H77 H 0.07299 0.63555 0.65238 0.0
H78 H 0.13056 0.695 0.62836 0.0
H79 H 0.12782 0.70631 0.72264 0.0
Ho80 Ho 0.66495 0.90421 0.17162 0.0
Ho81 Ho 0.62553 0.89649 0.07445 0.0
C82 C 0.60336 0.88899 0.19138 0.0
C83 C 0.68464 0.92441 0.25676 0.0
C84 C 0.68179 0.92024 0.31523 0.0
C85 C 0.67072 0.93985 0.34659 0.0
C86 C 0.66613 0.93602 0.40111 0.0
C87 C 0.67272 0.91254 0.42595 0.0
C88 C 0.68448 0.89313 0.39492 0.0
C89 C 0.68886 0.89688 0.34008 0.0
C90 C 0.65785 0.8531 0.15107 0.0
C91 C 0.68733 0.90753 0.05021 0.0
C92 C 0.60486 0.88372 0.9843 0.0
C93 C 0.61289 0.88484 0.92747 0.0
C94 C 0.63818 0.87873 0.91127 0.0
C95 C 0.64541 0.88062 0.85736 0.0
C96 C 0.62753 0.88872 0.81838 0.0
C97 C 0.60227 0.89493 0.83508 0.0
C98 C 0.59507 0.89296 0.88886 0.0
C99 C 0.62711 0.94367 0.12118 0.0
O100 O 0.62489 0.90016 0.20919 0.0
O101 O 0.60045 0.88194 0.14084 0.0
O102 O 0.69652 0.90666 0.22844 0.0
O103 O 0.6641 0.93343 0.23285 0.0
O104 O 0.6737 0.86182 0.18674 0.0
O105 O 0.64764 0.87224 0.12839 0.0
O106 O 0.66383 0.90182 0.033 0.0
O107 O 0.69274 0.9107 0.10192 0.0
O108 O 0.60092 0.90603 1.00745 0.0
O109 O 0.61697 0.86726 1.01528 0.0
O110 O 0.6063 0.93332 0.10161 0.0
O111 O 0.64621 0.92904 0.11209 0.0
H112 H 0.6652 0.9581 0.32864 0.0
H113 H 0.6574 0.95152 0.4239 0.0
H114 H 0.68965 0.87476 0.41272 0.0
H115 H 0.69738 0.88133 0.31711 0.0
H116 H 0.65241 0.87254 0.94021 0.0
H117 H 0.66495 0.87544 0.84623 0.0
H118 H 0.58807 0.90175 0.80672 0.0
H119 H 0.57554 0.89802 0.90041 0.0
Ho120 Ho 0.89463 0.38644 0.97884 0.0
Ho121 Ho 0.90104 0.34879 0.89016 0.0
C122 C 0.90649 0.32567 1.00782 0.0
C123 C 0.88279 0.4086 0.06845 0.0
C124 C 0.88604 0.40207 0.12574 0.0
C125 C 0.86638 0.40813 0.16222 0.0
C126 C 0.86896 0.40198 0.2165 0.0
C127 C 0.89138 0.38967 0.23575 0.0
C128 C 0.91102 0.3835 0.19881 0.0
C129 C 0.90835 0.38957 0.14449 0.0
C130 C 0.94247 0.38506 0.93445 0.0
C131 C 0.88816 0.41008 0.86443 0.0
C132 C 0.91335 0.3272 0.80009 0.0
C133 C 0.9118 0.33431 0.74256 0.0
C134 C 0.92645 0.35469 0.72077 0.0
C135 C 0.92475 0.36081 0.66626 0.0
C136 C 0.9083 0.34678 0.63209 0.0
C137 C 0.8936 0.3265 0.65426 0.0
C138 C 0.89543 0.32029 0.70858 0.0
C139 C 0.85197 0.35114 0.92798 0.0
O140 O 0.89809 0.34857 1.02331 0.0
O141 O 0.91173 0.321 0.95681 0.0
O142 O 0.90378 0.41378 0.04134 0.0
O143 O 0.86671 0.39411 0.04162 0.0
O144 O 0.93096 0.40605 0.94975 0.0
O145 O 0.92852 0.36576 0.94565 0.0
O146 O 0.89868 0.38803 0.84819 0.0
O147 O 0.88082 0.4131 0.91458 0.0
O148 O 0.89141 0.32326 0.82457 0.0
O149 O 0.9298 0.33979 0.82989 0.0
O150 O 0.86407 0.33012 0.91506 0.0
O151 O 0.86676 0.37033 0.92044 0.0
H152 H 0.8489 0.41756 0.14867 0.0
H153 H 0.85318 0.40663 0.24323 0.0
H154 H 0.92869 0.3743 0.21188 0.0
H155 H 0.92379 0.38451 0.11717 0.0
H156 H 0.93933 0.3659 0.74568 0.0
H157 H 0.93666 0.37632 0.65083 0.0
H158 H 0.88035 0.3155 0.6298 0.0
H159 H 0.8839 0.3045 0.72414 0.0
Ho160 Ho 0.34767 0.40396 0.13586 0.0
Ho161 Ho 0.38665 0.39695 0.23297 0.0
C162 C 0.40943 0.38878 0.11678 0.0
C163 C 0.32802 0.42433 0.05088 0.0
C164 C 0.33079 0.41912 0.99312 0.0
C165 C 0.32819 0.43942 0.95639 0.0
C166 C 0.3328 0.43534 0.9019 0.0
C167 C 0.34015 0.41079 0.88283 0.0
C168 C 0.34244 0.3904 0.91994 0.0
C169 C 0.33794 0.39455 0.97448 0.0
C170 C 0.35476 0.35283 0.1563 0.0
C171 C 0.32443 0.40586 0.2564 0.0
C172 C 0.40807 0.3863 0.32375 0.0
C173 C 0.39963 0.38707 0.38022 0.0
C174 C 0.41194 0.37151 0.41833 0.0
C175 C 0.40481 0.37285 0.47231 0.0
C176 C 0.38508 0.38972 0.48927 0.0
C177 C 0.37252 0.40501 0.45069 0.0
C178 C 0.37982 0.40379 0.39685 0.0
C179 C 0.38464 0.44387 0.18473 0.0
O180 O 0.38763 0.399 0.09782 0.0
O181 O 0.41245 0.38274 0.16785 0.0
O182 O 0.31603 0.40681 0.0797 0.0
O183 O 0.34886 0.43313 0.07409 0.0
O184 O 0.33893 0.3617 0.12067 0.0
O185 O 0.36492 0.37184 0.17971 0.0
O186 O 0.34779 0.39958 0.27361 0.0
O187 O 0.3196 0.41052 0.20494 0.0
O188 O 0.41004 0.40872 0.29986 0.0
O189 O 0.39736 0.36873 0.29335 0.0
O190 O 0.40567 0.43345 0.20293 0.0
O191 O 0.3657 0.42927 0.19505 0.0
H192 H 0.32311 0.45863 0.97003 0.0
H193 H 0.33128 0.45165 0.87495 0.0
H194 H 0.34773 0.37117 0.90692 0.0
H195 H 0.34039 0.37864 1.00218 0.0
H196 H 0.42727 0.35847 0.40642 0.0
H197 H 0.41468 0.36057 0.50075 0.0
H198 H 0.35747 0.41842 0.46227 0.0
H199 H 0.37018 0.41619 0.36828 0.0
Ho200 Ho 0.39616 0.62408 0.82325 0.0
Ho201 Ho 0.39833 0.66159 0.91309 0.0
C202 C 0.40529 0.6855 0.79606 0.0
C203 C 0.38586 0.60174 0.73332 0.0
C204 C 0.38817 0.6087 0.67597 0.0
C205 C 0.366 0.60915 0.64386 0.0
C206 C 0.36768 0.61551 0.58959 0.0
C207 C 0.39166 0.62138 0.56584 0.0
C208 C 0.41387 0.621 0.59824 0.0
C209 C 0.41214 0.61482 0.65262 0.0
C210 C 0.44284 0.62719 0.87113 0.0
C211 C 0.38939 0.59934 0.93713 0.0
C212 C 0.40706 0.68445 1.00344 0.0
C213 C 0.40603 0.67721 0.06077 0.0
C214 C 0.42162 0.65742 0.08193 0.0
C215 C 0.42031 0.6511 0.13632 0.0
C216 C 0.40326 0.66426 0.17065 0.0
C217 C 0.38767 0.68398 0.14933 0.0
C218 C 0.38914 0.69044 0.09513 0.0
C219 C 0.35056 0.65615 0.87049 0.0
O220 O 0.39908 0.66214 0.77925 0.0
O221 O 0.40851 0.69031 0.84767 0.0
O222 O 0.40729 0.59801 0.7598 0.0
O223 O 0.3687 0.6146 0.76103 0.0
O224 O 0.43304 0.60605 0.85216 0.0
O225 O 0.4282 0.6461 0.86042 0.0
O226 O 0.39684 0.62227 0.95536 0.0
O227 O 0.38437 0.59579 0.88601 0.0
O228 O 0.38496 0.68552 0.97857 0.0
O229 O 0.42514 0.67396 0.97416 0.0
O230 O 0.36101 0.67802 0.88349 0.0
O231 O 0.36637 0.63807 0.87996 0.0
H232 H 0.34727 0.60461 0.66083 0.0
H233 H 0.35007 0.61604 0.56641 0.0
H234 H 0.43273 0.62504 0.58148 0.0
H235 H 0.42964 0.61471 0.67621 0.0
H236 H 0.43479 0.64675 0.05655 0.0
H237 H 0.4324 0.63566 0.15139 0.0
H238 H 0.37456 0.69469 0.17478 0.0
H239 H 0.37702 0.70586 0.07997 0.0
Ho240 Ho 0.66179 0.61063 0.13743 0.0
Ho241 Ho 0.62432 0.6146 0.22753 0.0
C242 C 0.59982 0.62081 0.11388 0.0
C243 C 0.68492 0.60041 0.04756 0.0
C244 C 0.67841 0.60171 0.9901 0.0
C245 C 0.65301 0.59806 0.97219 0.0
C246 C 0.64709 0.59982 0.91773 0.0
C247 C 0.66652 0.60515 0.87976 0.0
C248 C 0.69201 0.60862 0.89802 0.0
C249 C 0.69784 0.60697 0.95255 0.0
C250 C 0.65679 0.65915 0.17704 0.0
C251 C 0.68561 0.60618 0.25437 0.0
C252 C 0.60176 0.62424 0.31786 0.0
C253 C 0.60912 0.62266 0.37512 0.0
C254 C 0.62963 0.63731 0.39608 0.0
C255 C 0.63624 0.6354 0.45021 0.0
C256 C 0.62259 0.61874 0.48465 0.0
C257 C 0.60212 0.60409 0.46355 0.0
C258 C 0.59542 0.60611 0.40953 0.0
C259 C 0.62721 0.56717 0.18179 0.0
O260 O 0.62222 0.61139 0.09657 0.0
O261 O 0.59675 0.62753 0.16435 0.0
O262 O 0.6869 0.62248 0.07229 0.0
O263 O 0.67267 0.58318 0.07616 0.0
O264 O 0.67852 0.64849 0.16377 0.0
O265 O 0.6386 0.64335 0.169 0.0
O266 O 0.66279 0.61475 0.26995 0.0
O267 O 0.68976 0.59994 0.20367 0.0
O268 O 0.59951 0.60227 0.29264 0.0
O269 O 0.61304 0.64196 0.28864 0.0
O270 O 0.60605 0.57768 0.19897 0.0
O271 O 0.64614 0.58177 0.19236 0.0
H272 H 0.63772 0.59389 1.00035 0.0
H273 H 0.6272 0.59736 0.90556 0.0
H274 H 0.70759 0.61233 0.87014 0.0
H275 H 0.71761 0.60978 0.96542 0.0
H276 H 0.6407 0.65018 0.37071 0.0
H277 H 0.6523 0.64673 0.46494 0.0
H278 H 0.59099 0.59131 0.489 0.0
H279 H 0.57947 0.5947 0.39459 0.0
Ho280 Ho 0.61436 0.38392 0.8303 0.0
Ho281 Ho 0.60686 0.34695 0.91971 0.0
C282 C 0.60355 0.32311 0.80261 0.0
C283 C 0.62568 0.40625 0.7404 0.0
C284 C 0.62366 0.39946 0.68289 0.0
C285 C 0.63548 0.37721 0.66177 0.0
C286 C 0.633 0.37109 0.60748 0.0
C287 C 0.61873 0.3871 0.57282 0.0
C288 C 0.60701 0.40938 0.59417 0.0
C289 C 0.60948 0.41547 0.64842 0.0
C290 C 0.56599 0.38257 0.87269 0.0
C291 C 0.6203 0.40838 0.94394 0.0
C292 C 0.59279 0.32628 1.00974 0.0
C293 C 0.59572 0.33282 0.06733 0.0
C294 C 0.57434 0.34159 0.09689 0.0
C295 C 0.57671 0.34753 0.15128 0.0
C296 C 0.60052 0.34467 0.1777 0.0
C297 C 0.6219 0.33585 0.14807 0.0
C298 C 0.61955 0.33001 0.09366 0.0
C299 C 0.65662 0.34929 0.88565 0.0
O300 O 0.61371 0.34544 0.78792 0.0
O301 O 0.59596 0.31938 0.85273 0.0
O302 O 0.6039 0.40985 0.76574 0.0
O303 O 0.64248 0.39352 0.76922 0.0
O304 O 0.57787 0.40353 0.85849 0.0
O305 O 0.58006 0.3633 0.86217 0.0
O306 O 0.60972 0.38642 0.96083 0.0
O307 O 0.62775 0.41106 0.89378 0.0
O308 O 0.61356 0.31948 0.98357 0.0
O309 O 0.5779 0.34138 0.98145 0.0
O310 O 0.64452 0.32838 0.8994 0.0
O311 O 0.64155 0.36841 0.89087 0.0
H312 H 0.64662 0.36446 0.68714 0.0
H313 H 0.64257 0.35395 0.59256 0.0
H314 H 0.59557 0.42201 0.56911 0.0
H315 H 0.60015 0.43272 0.66357 0.0
H316 H 0.55567 0.34377 0.07796 0.0
H317 H 0.55974 0.35394 0.17284 0.0
H318 H 0.64061 0.33373 0.16679 0.0
H319 H 0.63647 0.32329 0.07232 0.0
Ho320 Ho 0.84994 0.61113 0.66025 0.0
Ho321 Ho 0.88736 0.61328 0.57018 0.0
C322 C 0.91214 0.62052 0.68368 0.0
C323 C 0.82748 0.60141 0.75091 0.0
C324 C 0.83435 0.60348 0.80842 0.0
C325 C 0.84332 0.58169 0.8365 0.0
C326 C 0.84946 0.58335 0.89083 0.0
C327 C 0.84662 0.6068 0.91865 0.0
C328 C 0.83753 0.62855 0.89061 0.0
C329 C 0.83144 0.62691 0.83624 0.0
C330 C 0.85549 0.65912 0.61839 0.0
C331 C 0.82598 0.60583 0.54351 0.0
C332 C 0.91082 0.62176 0.48026 0.0
C333 C 0.90385 0.62119 0.42292 0.0
C334 C 0.88151 0.63345 0.4036 0.0
C335 C 0.87511 0.63212 0.34931 0.0
C336 C 0.89094 0.61858 0.31308 0.0
C337 C 0.91332 0.60641 0.33271 0.0
C338 C 0.91967 0.60773 0.38693 0.0
C339 C 0.88369 0.56651 0.61875 0.0
O340 O 0.88913 0.6135 0.70238 0.0
O341 O 0.91584 0.62486 0.63229 0.0
O342 O 0.82431 0.62292 0.72432 0.0
O343 O 0.83987 0.58408 0.72299 0.0
O344 O 0.83365 0.64883 0.63236 0.0
O345 O 0.87357 0.64317 0.62689 0.0
O346 O 0.84899 0.6137 0.52742 0.0
O347 O 0.8217 0.60036 0.59458 0.0
O348 O 0.91101 0.59944 0.5047 0.0
O349 O 0.90069 0.64008 0.50957 0.0
O350 O 0.90502 0.57645 0.60102 0.0
O351 O 0.86503 0.58128 0.60722 0.0
H352 H 0.84547 0.56325 0.81654 0.0
H353 H 0.85603 0.56611 0.91125 0.0
H354 H 0.83535 0.64698 0.91055 0.0
H355 H 0.82443 0.64405 0.81609 0.0
H356 H 0.86893 0.64402 0.43039 0.0
H357 H 0.85789 0.64198 0.33567 0.0
H358 H 0.92577 0.59548 0.3063 0.0
H359 H 0.93694 0.59803 0.40088 0.0
Ho360 Ho 0.61349 0.1236 0.48086 0.0
Ho361 Ho 0.60932 0.16168 0.39158 0.0
C362 C 0.60441 0.1848 0.50903 0.0
C363 C 0.6226 0.1008 0.57119 0.0
C364 C 0.62091 0.10813 0.62855 0.0
C365 C 0.63574 0.12844 0.6499 0.0
C366 C 0.63375 0.13499 0.7041 0.0
C367 C 0.61683 0.12149 0.73829 0.0
C368 C 0.60201 0.10123 0.71678 0.0
C369 C 0.6041 0.09459 0.6627 0.0
C370 C 0.56645 0.12628 0.43385 0.0
C371 C 0.62006 0.09979 0.36678 0.0
C372 C 0.59859 0.18461 0.30181 0.0
C373 C 0.59954 0.1779 0.24432 0.0
C374 C 0.59536 0.1525 0.22659 0.0
C375 C 0.59704 0.14642 0.17212 0.0
C376 C 0.60282 0.16565 0.13395 0.0
C377 C 0.60675 0.19114 0.15206 0.0
C378 C 0.60519 0.19714 0.20655 0.0
C379 C 0.65777 0.15695 0.43179 0.0
O380 O 0.61311 0.16193 0.52405 0.0
O381 O 0.59837 0.18928 0.45836 0.0
O382 O 0.60071 0.0988 0.54565 0.0
O383 O 0.64054 0.11189 0.54219 0.0
O384 O 0.57724 0.10501 0.44965 0.0
O385 O 0.58069 0.14527 0.44578 0.0
O386 O 0.61042 0.12221 0.3501 0.0
O387 O 0.62691 0.09649 0.41712 0.0
O388 O 0.62081 0.18662 0.32591 0.0
O389 O 0.58145 0.1726 0.33115 0.0
O390 O 0.64698 0.17866 0.41861 0.0
O391 O 0.64218 0.13866 0.42294 0.0
H392 H 0.64881 0.1394 0.62476 0.0
H393 H 0.64523 0.15089 0.71907 0.0
H394 H 0.58902 0.0902 0.74198 0.0
H395 H 0.59254 0.07879 0.6475 0.0
H396 H 0.5909 0.13733 0.25487 0.0
H397 H 0.5942 0.12653 0.16012 0.0
H398 H 0.61079 0.2066 0.12408 0.0
H399 H 0.60841 0.21689 0.21923 0.0
Ho400 Ho 0.16085 0.40185 0.66615 0.0
Ho401 Ho 0.12414 0.39619 0.57637 0.0
C402 C 0.09897 0.38996 0.68985 0.0
C403 C 0.18222 0.41446 0.75614 0.0
C404 C 0.17601 0.41133 0.81378 0.0
C405 C 0.16946 0.4331 0.84446 0.0
C406 C 0.16363 0.43063 0.89887 0.0
C407 C 0.16443 0.40633 0.92414 0.0
C408 C 0.17113 0.38455 0.89347 0.0
C409 C 0.17681 0.387 0.83895 0.0
C410 C 0.15823 0.35271 0.62958 0.0
C411 C 0.18497 0.40621 0.5489 0.0
C412 C 0.10174 0.38543 0.4866 0.0
C413 C 0.10879 0.38662 0.42918 0.0
C414 C 0.13092 0.37423 0.409 0.0
C415 C 0.13724 0.37596 0.35463 0.0
C416 C 0.12157 0.3901 0.31911 0.0
C417 C 0.09947 0.40249 0.33964 0.0
C418 C 0.09315 0.4007 0.39389 0.0
C419 C 0.1261 0.4442 0.62012 0.0
O420 O 0.12159 0.39824 0.70813 0.0
O421 O 0.09576 0.38446 0.63888 0.0
O422 O 0.18831 0.39373 0.72919 0.0
O423 O 0.16723 0.42989 0.72896 0.0
O424 O 0.17921 0.3646 0.64334 0.0
O425 O 0.13908 0.36776 0.6355 0.0
O426 O 0.16251 0.39675 0.53367 0.0
O427 O 0.18873 0.413 0.59945 0.0
O428 O 0.09935 0.40763 0.51087 0.0
O429 O 0.11339 0.36815 0.51621 0.0
O430 O 0.10512 0.43308 0.60395 0.0
O431 O 0.14519 0.42981 0.6099 0.0
H432 H 0.16888 0.45212 0.82633 0.0
H433 H 0.15888 0.44785 0.92136 0.0
H434 H 0.17165 0.36552 0.91147 0.0
H435 H 0.18177 0.36979 0.81662 0.0
H436 H 0.14342 0.36323 0.43516 0.0
H437 H 0.15424 0.36591 0.34037 0.0
H438 H 0.08716 0.41393 0.31392 0.0
H439 H 0.07604 0.41051 0.40842 0.0
Ho440 Ho 0.39672 0.88514 0.47547 0.0
Ho441 Ho 0.40009 0.84822 0.38513 0.0
C442 C 0.40648 0.82381 0.50171 0.0
C443 C 0.38621 0.9079 0.56515 0.0
C444 C 0.3878 0.90115 0.62243 0.0
C445 C 0.38452 0.87558 0.64019 0.0
C446 C 0.3867 0.8695 0.69451 0.0
C447 C 0.39195 0.88891 0.73229 0.0
C448 C 0.39505 0.91452 0.7143 0.0
C449 C 0.39307 0.92053 0.65992 0.0
C450 C 0.44379 0.88276 0.42809 0.0
C451 C 0.38965 0.91027 0.36202 0.0
C452 C 0.40997 0.8258 0.29475 0.0
C453 C 0.40873 0.83291 0.23741 0.0
C454 C 0.42338 0.8534 0.21618 0.0
C455 C 0.42195 0.85955 0.16174 0.0
C456 C 0.40576 0.84545 0.12726 0.0
C457 C 0.39103 0.82507 0.14887 0.0
C458 C 0.3926 0.81883 0.20315 0.0
C459 C 0.35202 0.85178 0.42717 0.0
O460 O 0.3995 0.84691 0.51876 0.0
O461 O 0.41045 0.81939 0.45015 0.0
O462 O 0.40822 0.91047 0.54011 0.0
O463 O 0.36908 0.89543 0.53677 0.0
O464 O 0.4334 0.90382 0.44611 0.0
O465 O 0.42935 0.86371 0.43874 0.0
O466 O 0.39762 0.88759 0.34335 0.0
O467 O 0.38459 0.91348 0.41323 0.0
O468 O 0.3879 0.82376 0.31964 0.0
O469 O 0.42752 0.83711 0.32394 0.0
O470 O 0.36333 0.83045 0.41343 0.0
O471 O 0.36718 0.8706 0.41874 0.0
H472 H 0.38021 0.86028 0.61219 0.0
H473 H 0.38391 0.84964 0.707 0.0
H474 H 0.3994 0.92989 0.74219 0.0
H475 H 0.39576 0.94037 0.64709 0.0
H476 H 0.43604 0.86467 0.24147 0.0
H477 H 0.43386 0.87514 0.14661 0.0
H478 H 0.37799 0.81404 0.12399 0.0
H479 H 0.38107 0.80298 0.21846 0.0
Ho480 Ho 0.84449 0.90361 0.62771 0.0
Ho481 Ho 0.88382 0.89674 0.72521 0.0
C482 C 0.90627 0.88944 0.60844 0.0
C483 C 0.82413 0.92254 0.54187 0.0
C484 C 0.82704 0.91648 0.4845 0.0
C485 C 0.84728 0.90058 0.46677 0.0
C486 C 0.8513 0.89645 0.41213 0.0
C487 C 0.83507 0.908 0.37381 0.0
C488 C 0.81443 0.92348 0.39199 0.0
C489 C 0.81052 0.92771 0.44675 0.0
C490 C 0.85245 0.85261 0.64889 0.0
C491 C 0.82189 0.90734 0.74883 0.0
C492 C 0.90449 0.88397 0.81553 0.0
C493 C 0.89626 0.88482 0.8722 0.0
C494 C 0.87029 0.88139 0.8871 0.0
C495 C 0.86278 0.88328 0.9408 0.0
C496 C 0.88111 0.88845 0.98087 0.0
C497 C 0.90712 0.89169 0.96568 0.0
C498 C 0.91457 0.88996 0.91198 0.0
C499 C 0.88162 0.94384 0.67797 0.0
O500 O 0.88466 0.90039 0.59053 0.0
O501 O 0.90924 0.88252 0.65907 0.0
O502 O 0.81258 0.90513 0.57162 0.0
O503 O 0.84482 0.93198 0.56458 0.0
O504 O 0.83655 0.86104 0.61303 0.0
O505 O 0.86222 0.87196 0.67154 0.0
O506 O 0.84543 0.90203 0.76633 0.0
O507 O 0.81651 0.91009 0.697 0.0
O508 O 0.90818 0.9064 0.79252 0.0
O509 O 0.89253 0.86751 0.78444 0.0
O510 O 0.90253 0.93386 0.69801 0.0
O511 O 0.86271 0.92893 0.68696 0.0
H512 H 0.86033 0.89175 0.49518 0.0
H513 H 0.86761 0.88475 0.39998 0.0
H514 H 0.80127 0.93237 0.36392 0.0
H515 H 0.79479 0.94004 0.45958 0.0
H516 H 0.85576 0.87729 0.85731 0.0
H517 H 0.84265 0.88041 0.95096 0.0
H518 H 0.92172 0.89605 0.99522 0.0
H519 H 0.93467 0.89284 0.90143 0.0
Ho520 Ho 0.89487 0.12791 0.32893 0.0
Ho521 Ho 0.90322 0.16652 0.42708 0.0
C522 C 0.90693 0.18973 0.30626 0.0
C523 C 0.88058 0.10782 0.23912 0.0
C524 C 0.8829 0.11555 0.18243 0.0
C525 C 0.86485 0.10667 0.14506 0.0
C526 C 0.86696 0.1137 0.09115 0.0
C527 C 0.88714 0.12989 0.07349 0.0
C528 C 0.90505 0.13897 0.11133 0.0
C529 C 0.90299 0.13179 0.16515 0.0
C530 C 0.94238 0.12898 0.37395 0.0
C531 C 0.88798 0.10496 0.44545 0.0
C532 C 0.92389 0.18583 0.51203 0.0
C533 C 0.91968 0.18299 0.57041 0.0
C534 C 0.93962 0.17285 0.60209 0.0
C535 C 0.93578 0.16817 0.65657 0.0
C536 C 0.91193 0.1737 0.68097 0.0
C537 C 0.89214 0.18448 0.64954 0.0
C538 C 0.89592 0.18897 0.59479 0.0
C539 C 0.85196 0.15959 0.40798 0.0
O540 O 0.90158 0.16627 0.28802 0.0
O541 O 0.90948 0.19481 0.35824 0.0
O542 O 0.90213 0.10178 0.26336 0.0
O543 O 0.86537 0.12208 0.2688 0.0
O544 O 0.93192 0.10839 0.35354 0.0
O545 O 0.92773 0.14822 0.36633 0.0
O546 O 0.89955 0.12621 0.46355 0.0
O547 O 0.8804 0.10261 0.39515 0.0
O548 O 0.9063 0.19802 0.48392 0.0
O549 O 0.93254 0.16513 0.48801 0.0
O550 O 0.86097 0.17519 0.44386 0.0
O551 O 0.87093 0.14956 0.38431 0.0
H552 H 0.84912 0.09423 0.15756 0.0
H553 H 0.85264 0.10661 0.06333 0.0
H554 H 0.921 0.1512 0.0992 0.0
H555 H 0.91725 0.13872 0.19324 0.0
H556 H 0.95815 0.16812 0.58441 0.0
H557 H 0.95156 0.1602 0.67966 0.0
H558 H 0.87347 0.1888 0.66697 0.0
H559 H 0.88009 0.19668 0.57149 0.0
Ho560 Ho 0.16219 0.10733 0.63658 0.0
Ho561 Ho 0.12549 0.1147 0.72665 0.0
C562 C 0.10062 0.12008 0.61338 0.0
C563 C 0.1838 0.0936 0.54716 0.0
C564 C 0.17738 0.09537 0.48963 0.0
C565 C 0.15176 0.09379 0.47168 0.0
C566 C 0.14601 0.09611 0.41721 0.0
C567 C 0.16579 0.10001 0.37927 0.0
C568 C 0.19147 0.1014 0.39756 0.0
C569 C 0.19716 0.09916 0.45208 0.0
C570 C 0.15975 0.15705 0.67063 0.0
C571 C 0.18645 0.10447 0.7534 0.0
C572 C 0.10344 0.12579 0.81687 0.0
C573 C 0.11049 0.12361 0.87426 0.0
C574 C 0.13161 0.13712 0.89587 0.0
C575 C 0.13795 0.13459 0.95006 0.0
C576 C 0.12337 0.11846 0.98398 0.0
C577 C 0.10223 0.10501 0.96225 0.0
C578 C 0.09584 0.10764 0.90817 0.0
C579 C 0.12678 0.06635 0.68438 0.0
O580 O 0.12246 0.10929 0.59647 0.0
O581 O 0.09823 0.12805 0.66322 0.0
O582 O 0.18861 0.11541 0.57123 0.0
O583 O 0.16963 0.07817 0.57642 0.0
O584 O 0.18069 0.14501 0.65698 0.0
O585 O 0.14067 0.14193 0.66569 0.0
O586 O 0.1641 0.11439 0.76842 0.0
O587 O 0.19004 0.09684 0.70333 0.0
O588 O 0.09976 0.10406 0.79148 0.0
O589 O 0.11597 0.14273 0.78783 0.0
O590 O 0.10588 0.07817 0.699 0.0
O591 O 0.14605 0.08045 0.69463 0.0
H592 H 0.13617 0.09086 0.49979 0.0
H593 H 0.12598 0.09526 0.405 0.0
H594 H 0.20729 0.10397 0.36971 0.0
H595 H 0.21708 0.10039 0.46494 0.0
H596 H 0.14339 0.14956 0.87094 0.0
H597 H 0.15452 0.145 0.96522 0.0
H598 H 0.09036 0.0927 0.98725 0.0
H599 H 0.07938 0.09712 0.89278 0.0
Ho600 Ho 0.11368 0.88375 0.32891 0.0
Ho601 Ho 0.10751 0.84743 0.42007 0.0
C602 C 0.10277 0.82265 0.30329 0.0
C603 C 0.12667 0.90564 0.23956 0.0
C604 C 0.12392 0.89923 0.18241 0.0
C605 C 0.1413 0.90956 0.14507 0.0
C606 C 0.13904 0.90351 0.09077 0.0
C607 C 0.11943 0.88683 0.07275 0.0
C608 C 0.1021 0.8764 0.11048 0.0
C609 C 0.10426 0.88265 0.1647 0.0
C610 C 0.0653 0.88166 0.37059 0.0
C611 C 0.11923 0.90939 0.44224 0.0
C612 C 0.09413 0.82655 0.51028 0.0
C613 C 0.09735 0.83283 0.56763 0.0
C614 C 0.07552 0.83398 0.60086 0.0
C615 C 0.07799 0.83988 0.65517 0.0
C616 C 0.10242 0.84464 0.67774 0.0
C617 C 0.12428 0.84354 0.6442 0.0
C618 C 0.12178 0.83779 0.58979 0.0
C619 C 0.15698 0.85058 0.38505 0.0
O620 O 0.11089 0.84541 0.28623 0.0
O621 O 0.09744 0.81872 0.35457 0.0
O622 O 0.10534 0.91084 0.26542 0.0
O623 O 0.14221 0.89083 0.26707 0.0
O624 O 0.07614 0.90258 0.35291 0.0
O625 O 0.08006 0.86262 0.36233 0.0
O626 O 0.11086 0.88687 0.46111 0.0
O627 O 0.12504 0.9123 0.39126 0.0
O628 O 0.11477 0.81991 0.48353 0.0
O629 O 0.07919 0.84199 0.48301 0.0
O630 O 0.14529 0.82952 0.39929 0.0
O631 O 0.14151 0.86945 0.38976 0.0
H632 H 0.15667 0.92231 0.15793 0.0
H633 H 0.15289 0.91164 0.06296 0.0
H634 H 0.0866 0.86374 0.09799 0.0
H635 H 0.0905 0.87465 0.19283 0.0
H636 H 0.05646 0.8304 0.5847 0.0
H637 H 0.06065 0.841 0.6793 0.0
H638 H 0.14344 0.84676 0.66006 0.0
H639 H 0.139 0.83716 0.5652 0.0
H640 H 0.38475 0.91038 0.25232 0.0
H641 H 0.38875 0.96155 0.38817 0.0
H642 H 0.38145 0.94808 0.19267 0.0
H643 H 0.38622 0.99892 0.32839 0.0
H644 H 0.42398 0.04703 0.17761 0.0
H645 H 0.42328 0.00901 0.23591 0.0
H646 H 0.34351 0.99567 0.19578 0.0
H647 H 0.34387 0.03448 0.13833 0.0
C648 C 0.38485 0.92958 0.26951 0.0
C649 C 0.38694 0.93286 0.32518 0.0
C650 C 0.38285 0.95112 0.23536 0.0
C651 C 0.38344 0.97637 0.25604 0.0
C652 C 0.38555 0.97966 0.31148 0.0
C653 C 0.38699 0.95821 0.34565 0.0
C654 C 0.40625 0.03602 0.1811 0.0
C655 C 0.38398 0.04373 0.1532 0.0
C656 C 0.40589 0.01429 0.21454 0.0
C657 C 0.38342 0.99933 0.22003 0.0
C658 C 0.36113 0.00681 0.19193 0.0
C659 C 0.36131 0.02901 0.15927 0.0
H660 H 0.96346 0.61734 0.65935 0.0
H661 H 0.91153 0.62953 0.79211 0.0
H662 H 1.00037 0.62006 0.71987 0.0
H663 H 0.94878 0.63305 0.85245 0.0
H664 H 0.03166 0.66639 0.91584 0.0
H665 H 0.99366 0.66611 0.85663 0.0
H666 H 0.01241 0.58854 0.80728 0.0
H667 H 0.04957 0.58842 0.86746 0.0
C668 C 0.95989 0.62089 0.70134 0.0
C669 C 0.93447 0.62319 0.72081 0.0
C670 C 0.98107 0.6224 0.73596 0.0
C671 C 0.97745 0.62688 0.79078 0.0
C672 C 0.95212 0.62977 0.81029 0.0
C673 C 0.93082 0.62762 0.77578 0.0
C674 C 0.02754 0.64929 0.89245 0.0
C675 C 0.04346 0.62736 0.89657 0.0
C676 C 0.0058 0.6491 0.85879 0.0
C677 C 1.00007 0.62726 0.82751 0.0
C678 C 0.01633 0.6056 0.83094 0.0
C679 C 0.03755 0.60553 0.86552 0.0
H680 H 0.66882 0.97142 0.15837 0.0
H681 H 0.58553 0.97026 0.15857 0.0
H682 H 0.66817 0.00948 0.21691 0.0
H683 H 0.58484 0.00846 0.2156 0.0
H684 H 0.59358 0.09211 0.27358 0.0
H685 H 0.59643 0.05553 0.21233 0.0
H686 H 0.65455 0.02061 0.31235 0.0
H687 H 0.65175 0.05736 0.37373 0.0
C688 C 0.6504 0.97928 0.17089 0.0
C689 C 0.62725 0.96755 0.15443 0.0
C690 C 0.65001 1.00106 0.20444 0.0
C691 C 0.62644 0.01205 0.22112 0.0
C692 C 0.60334 1.00068 0.2033 0.0
C693 C 0.60374 0.97871 0.17062 0.0
C694 C 0.60723 0.07685 0.28223 0.0
C695 C 0.62255 0.07784 0.32851 0.0
C696 C 0.60869 0.05571 0.24731 0.0
C697 C 0.62573 0.03507 0.25732 0.0
C698 C 0.6414 0.03626 0.30312 0.0
C699 C 0.63966 0.05726 0.33849 0.0
H700 H 0.96079 0.42394 0.8717 0.0
H701 H 0.97684 0.34527 0.91836 0.0
H702 H 0.99874 0.42368 0.8131 0.0
H703 H 0.01555 0.34541 0.86086 0.0
H704 H 0.099 0.38374 0.79924 0.0
H705 H 0.06139 0.3809 0.85924 0.0
H706 H 0.01046 0.38905 0.72444 0.0
H707 H 0.04773 0.39103 0.6643 0.0
C708 C 0.97258 0.40666 0.86984 0.0
C709 C 0.96587 0.38464 0.89983 0.0
C710 C 0.99425 0.40653 0.83618 0.0
C711 C 0.01015 0.3846 0.83269 0.0
C712 C 1.0037 0.36263 0.8631 0.0
C713 C 0.98156 0.36253 0.89583 0.0
C714 C 0.07978 0.3847 0.78235 0.0
C715 C 0.07643 0.38752 0.72684 0.0
C716 C 0.05829 0.38298 0.81669 0.0
C717 C 0.03304 0.38472 0.79641 0.0
C718 C 0.0297 0.38761 0.74109 0.0
C719 C 0.05108 0.38868 0.7067 0.0
H720 H 0.34471 0.47782 0.16686 0.0
H721 H 0.42358 0.46191 0.12194 0.0
H722 H 0.34491 0.51626 0.10851 0.0
H723 H 0.4234 0.49959 0.06251 0.0
H724 H 0.39177 0.54797 0.91244 0.0
H725 H 0.3898 0.51087 0.97306 0.0
H726 H 0.37954 0.56223 0.10674 0.0
H727 H 0.38236 0.59968 0.04629 0.0
C728 C 0.36201 0.48249 0.14445 0.0
C729 C 0.38416 0.46692 0.14911 0.0
C730 C 0.36214 0.50448 0.11127 0.0
C731 C 0.3842 0.5109 0.08112 0.0
C732 C 0.40617 0.49511 0.08532 0.0
C733 C 0.40626 0.47359 0.11943 0.0
C734 C 0.38898 0.55146 0.9547 0.0
C735 C 0.38719 0.57688 0.9744 0.0
C736 C 0.38792 0.53017 0.98938 0.0
C737 C 0.3844 0.53367 0.04451 0.0
C738 C 0.38209 0.559 0.06433 0.0
C739 C 0.3838 0.5804 0.02974 0.0
H740 H 0.55612 0.65044 0.12525 0.0
H741 H 0.59303 0.59703 1.01713 0.0
H742 H 0.51912 0.65345 0.06486 0.0
H743 H 0.5563 0.60024 0.95669 0.0
H744 H 0.47249 0.58645 0.90113 0.0
H745 H 0.5107 0.58623 0.95765 0.0
H746 H 0.50576 0.66915 0.9734 0.0
H747 H 0.46751 0.66938 0.9155 0.0
C748 C 0.55646 0.63946 0.08847 0.0
C749 C 0.5777 0.62354 0.07609 0.0
C750 C 0.5353 0.64134 0.05364 0.0
C751 C 0.53464 0.62708 1.00583 0.0
C752 C 0.55601 0.61136 0.9933 0.0
C753 C 0.57725 0.6097 0.0278 0.0
C754 C 0.4796 0.60471 0.91626 0.0
C755 C 0.46675 0.62792 0.9041 0.0
C756 C 0.50162 0.60458 0.94863 0.0
C757 C 0.5114 0.62766 0.97024 0.0
C758 C 0.49862 0.65098 0.95792 0.0
C759 C 0.47669 0.65113 0.92479 0.0
H760 H 0.58653 0.53697 0.15398 0.0
H761 H 0.66938 0.54186 0.13874 0.0
H762 H 0.58635 0.49797 0.09948 0.0
H763 H 0.66916 0.50291 0.08265 0.0
H764 H 0.64944 0.45235 0.93101 0.0
H765 H 0.65268 0.48949 0.99096 0.0
H766 H 0.60116 0.45191 0.10227 0.0
H767 H 0.598 0.4147 0.0426 0.0
C768 C 0.60478 0.52967 0.13908 0.0
C769 C 0.62796 0.54274 0.15033 0.0
C770 C 0.60467 0.50721 0.1079 0.0
C771 C 0.62772 0.49725 0.08649 0.0
C772 C 0.65101 0.51019 0.09804 0.0
C773 C 0.65116 0.53252 0.1301 0.0
C774 C 0.63892 0.4519 0.96843 0.0
C775 C 0.62339 0.43047 0.98176 0.0
C776 C 0.64092 0.47317 1.00297 0.0
C777 C 0.62714 0.47379 0.05145 0.0
C778 C 0.61187 0.45221 0.06508 0.0
C779 C 0.61016 0.43079 0.03092 0.0
H780 H 0.40946 0.38338 1.0073 0.0
H781 H 0.46065 0.38726 0.14296 0.0
H782 H 0.44707 0.38004 0.94748 0.0
H783 H 0.49796 0.38475 0.08301 0.0
H784 H 0.54812 0.42112 0.93663 0.0
H785 H 0.51018 0.42077 0.99528 0.0
H786 H 0.49243 0.34315 0.94508 0.0
H787 H 0.53113 0.34307 0.8875 0.0
C788 C 0.42866 0.38343 1.0244 0.0
C789 C 0.43197 0.3855 0.08006 0.0
C790 C 0.45015 0.38143 0.99015 0.0
C791 C 0.4754 0.38211 1.01068 0.0
C792 C 0.47872 0.38412 0.06616 0.0
C793 C 0.4573 0.38548 0.10045 0.0
C794 C 0.53612 0.40397 0.93794 0.0
C795 C 0.54256 0.38214 0.90724 0.0
C796 C 0.51446 0.40377 0.97165 0.0
C797 C 0.49831 0.382 0.9745 0.0
C798 C 0.50449 0.36023 0.94337 0.0
C799 C 0.52662 0.36017 0.91059 0.0
H800 H 0.90948 0.41481 0.76452 0.0
H801 H 0.86055 0.45514 0.87671 0.0
H802 H 0.90683 0.4515 0.70324 0.0
H803 H 0.85779 0.49179 0.81498 0.0
H804 H 0.9238 0.53583 0.64795 0.0
H805 H 0.92328 0.49746 0.7046 0.0
H806 H 0.84063 0.50422 0.72175 0.0
H807 H 0.84106 0.54239 0.66315 0.0
C808 C 0.89797 0.43139 0.77603 0.0
C809 C 0.8853 0.43195 0.82582 0.0
C810 C 0.89655 0.4525 0.74091 0.0
C811 C 0.88213 0.47466 0.75416 0.0
C812 C 0.86889 0.47497 0.80329 0.0
C813 C 0.87061 0.45399 0.83882 0.0
C814 C 0.90544 0.52907 0.66336 0.0
C815 C 0.88249 0.54243 0.65148 0.0
C816 C 0.90515 0.50699 0.6958 0.0
C817 C 0.88194 0.49774 0.71796 0.0
C818 C 0.85889 0.51097 0.7058 0.0
C819 C 0.85912 0.53287 0.67234 0.0
H820 H 0.55041 0.08849 0.36659 0.0
H821 H 0.53159 0.16575 0.41821 0.0
H822 H 0.51332 0.08881 0.30624 0.0
H823 H 0.49366 0.16566 0.35881 0.0
H824 H 0.41199 0.12936 0.2921 0.0
H825 H 0.44915 0.13267 0.35276 0.0
H826 H 0.50095 0.12056 0.22018 0.0
H827 H 0.46413 0.11807 0.15938 0.0
C828 C 0.53821 0.10549 0.36533 0.0
C829 C 0.54385 0.12707 0.39733 0.0
C830 C 0.51703 0.10567 0.33063 0.0
C831 C 0.50052 0.12718 0.32803 0.0
C832 C 0.50598 0.14876 0.36029 0.0
C833 C 0.52769 0.14885 0.39407 0.0
C834 C 0.43132 0.12762 0.27584 0.0
C835 C 0.43504 0.12352 0.22078 0.0
C836 C 0.45256 0.12964 0.31054 0.0
C837 C 0.47793 0.12692 0.29113 0.0
C838 C 0.48163 0.12276 0.23622 0.0
C839 C 0.4605 0.1214 0.20143 0.0
H840 H 0.0968 0.59533 0.76678 0.0
H841 H 0.14807 0.55609 0.87582 0.0
H842 H 0.09957 0.55875 0.70531 0.0
H843 H 0.15101 0.51961 0.81395 0.0
H844 H 0.16807 0.46998 0.66204 0.0
H845 H 0.16765 0.5082 0.72012 0.0
H846 H 0.08469 0.51211 0.70659 0.0
H847 H 0.08505 0.47365 0.65023 0.0
C848 C 0.10884 0.57902 0.77752 0.0
C849 C 0.12216 0.57871 0.82647 0.0
C850 C 0.11032 0.55796 0.74233 0.0
C851 C 0.1255 0.53618 0.75463 0.0
C852 C 0.13931 0.53613 0.80298 0.0
C853 C 0.13749 0.55701 0.83862 0.0
C854 C 0.14976 0.47893 0.67176 0.0
C855 C 0.12657 0.4685 0.6521 0.0
C856 C 0.14951 0.50084 0.705 0.0
C857 C 0.12611 0.51324 0.71819 0.0
C858 C 0.10306 0.50322 0.69703 0.0
C859 C 0.10328 0.4811 0.66475 0.0
H860 H 0.5965 0.91129 0.28972 0.0
H861 H 0.55957 0.85949 0.1784 0.0
H862 H 0.55899 0.90838 0.34863 0.0
H863 H 0.52203 0.85655 0.23768 0.0
H864 H 0.46897 0.84053 0.38545 0.0
H865 H 0.50795 0.84049 0.3294 0.0
H866 H 0.51312 0.9234 0.34482 0.0
H867 H 0.47403 0.92347 0.39938 0.0
C868 C 0.58051 0.89908 0.27793 0.0
C869 C 0.58114 0.88571 0.22901 0.0
C870 C 0.55889 0.89754 0.31166 0.0
C871 C 0.53738 0.88232 0.29788 0.0
C872 C 0.5383 0.86832 0.24976 0.0
C873 C 0.5598 0.87013 0.2156 0.0
C874 C 0.47834 0.85873 0.37648 0.0
C875 C 0.46818 0.88202 0.39641 0.0
C876 C 0.5007 0.85872 0.34442 0.0
C877 C 0.51374 0.88196 0.33253 0.0
C878 C 0.50379 0.90513 0.35351 0.0
C879 C 0.4813 0.90516 0.38473 0.0
H880 H 0.92257 0.97318 0.64692 0.0
H881 H 0.83945 0.97001 0.63795 0.0
H882 H 0.92262 0.01262 0.59337 0.0
H883 H 0.83951 0.00938 0.58295 0.0
H884 H 0.85757 0.06177 0.43248 0.0
H885 H 0.85467 0.02376 0.49057 0.0
H886 H 0.90858 0.05884 0.5998 0.0
H887 H 0.91142 0.09682 0.54213 0.0
C888 C 0.90426 0.98093 0.63354 0.0
C889 C 0.88102 0.96824 0.64625 0.0
C890 C 0.90429 1.00362 0.60291 0.0
C891 C 0.88109 0.01422 0.58366 0.0
C892 C 0.85776 1.00162 0.59663 0.0
C893 C 0.85772 0.97906 0.62811 0.0
C894 C 0.86869 0.06148 0.46906 0.0
C895 C 0.8848 0.08244 0.48237 0.0
C896 C 0.8669 0.03971 0.50253 0.0
C897 C 0.88149 0.03813 0.5498 0.0
C898 C 0.89728 0.05925 0.56347 0.0
C899 C 0.89878 0.08115 0.53046 0.0
H900 H 0.05878 0.15249 0.62165 0.0
H901 H 0.09148 0.09326 0.52099 0.0
H902 H 0.02147 0.15558 0.56208 0.0
H903 H 0.05443 0.09651 0.4613 0.0
H904 H 0.96926 0.08699 0.40855 0.0
H905 H 0.00785 0.08575 0.46425 0.0
H906 H 0.00884 0.16914 0.46915 0.0
H907 H 0.97028 0.17033 0.4123 0.0
C908 C 0.05813 0.14024 0.58664 0.0
C909 C 0.07832 0.12274 0.57602 0.0
C910 C 0.03679 0.14214 0.55227 0.0
C911 C 0.03486 0.12632 0.50674 0.0
C912 C 0.05512 0.1089 0.49609 0.0
C913 C 0.07657 0.10721 0.5301 0.0
C914 C 0.97779 0.10509 0.42115 0.0
C915 C 0.96648 0.12876 0.40643 0.0
C916 C 1.0 0.10438 0.45304 0.0
C917 C 0.01151 0.12733 0.47146 0.0
C918 C 1.00034 0.15107 0.45626 0.0
C919 C 0.97827 0.15177 0.42363 0.0
H920 H 0.12637 0.90961 0.55131 0.0
H921 H 0.11795 0.96057 0.41575 0.0
H922 H 0.12998 0.9474 0.61041 0.0
H923 H 0.12071 0.99803 0.47498 0.0
H924 H 0.08848 0.04978 0.61885 0.0
H925 H 0.0881 0.01177 0.56075 0.0
H926 H 0.16461 0.99161 0.61393 0.0
H927 H 0.16544 0.03043 0.67098 0.0
C928 C 0.12529 0.92881 0.53411 0.0
C929 C 0.12193 0.93202 0.4787 0.0
C930 C 0.12748 0.9504 0.56792 0.0
C931 C 0.12566 0.97564 0.54723 0.0
C932 C 0.1222 0.97883 0.49199 0.0
C933 C 0.12069 0.95733 0.4581 0.0
C934 C 0.10525 0.03726 0.61825 0.0
C935 C 0.12697 0.04303 0.64967 0.0
C936 C 0.10503 0.01555 0.58485 0.0
C937 C 0.12625 0.99866 0.58304 0.0
C938 C 0.14793 1.00422 0.61484 0.0
C939 C 0.14843 0.02643 0.64728 0.0
H940 H 0.03983 0.83977 0.414 0.0
H941 H 0.03491 0.92261 0.39709 0.0
H942 H 1.00091 0.84018 0.47022 0.0
H943 H 0.99585 0.92297 0.4518 0.0
H944 H 0.91257 0.91098 0.50906 0.0
H945 H 0.94981 0.90774 0.44947 0.0
H946 H 0.98759 0.85714 0.5619 0.0
H947 H 0.95037 0.86046 0.62193 0.0
C948 C 0.03045 0.85804 0.42222 0.0
C949 C 0.04069 0.88119 0.40159 0.0
C950 C 0.00815 0.85829 0.45443 0.0
C951 C 0.99522 0.88162 0.46568 0.0
C952 C 0.00513 0.90463 0.44368 0.0
C953 C 0.0276 0.90442 0.41235 0.0
C954 C 0.9287 0.89901 0.5211 0.0
C955 C 0.92841 0.8861 0.57064 0.0
C956 C 0.95015 0.89726 0.48693 0.0
C957 C 0.97179 0.88226 0.50089 0.0
C958 C 0.97121 0.86873 0.54969 0.0
C959 C 0.94989 0.87077 0.58427 0.0
H960 H 0.39834 0.18751 0.15068 0.0
H961 H 0.32016 0.19536 0.09412 0.0
H962 H 0.4002 0.23417 0.16724 0.0
H963 H 0.3222 0.24179 0.10812 0.0
H964 H 0.31849 0.31828 0.18476 0.0
H965 H 0.32087 0.27145 0.17747 0.0
H966 H 0.40142 0.27734 0.1333 0.0
H967 H 0.39903 0.32447 0.14368 0.0
C968 C 0.38176 0.1993 0.14066 0.0
C969 C 0.35903 0.18775 0.1213 0.0
C970 C 0.38278 0.2261 0.15026 0.0
C971 C 0.36115 0.24196 0.14032 0.0
C972 C 0.33898 0.23033 0.11824 0.0
C973 C 0.33788 0.20366 0.10937 0.0
C974 C 0.33692 0.30944 0.17536 0.0
C975 C 0.35866 0.32491 0.16578 0.0
C976 C 0.33823 0.28257 0.17002 0.0
C977 C 0.36117 0.27036 0.15319 0.0
C978 C 0.38341 0.28585 0.14642 0.0
C979 C 0.38215 0.31288 0.15276 0.0
H980 H 0.32204 0.61375 0.90159 0.0
H981 H 0.31472 0.69217 0.84496 0.0
H982 H 0.27549 0.61232 0.91916 0.0
H983 H 0.26835 0.69058 0.8604 0.0
H984 H 0.19358 0.69409 0.94952 0.0
H985 H 0.23989 0.6918 0.93361 0.0
H986 H 0.23213 0.61198 0.88551 0.0
H987 H 0.18566 0.61418 0.90353 0.0
C988 C 0.31038 0.63046 0.89168 0.0
C989 C 0.32205 0.65314 0.87215 0.0
C990 C 0.28366 0.62968 0.90185 0.0
C991 C 0.26803 0.65153 0.89238 0.0
C992 C 0.27971 0.67363 0.86993 0.0
C993 C 0.30631 0.67447 0.86034 0.0
C994 C 0.20182 0.67594 0.93632 0.0
C995 C 0.18594 0.65438 0.92766 0.0
C996 C 0.2284 0.67467 0.92647 0.0
C997 C 0.23989 0.65186 0.90695 0.0
C998 C 0.2241 0.62988 0.90053 0.0
C999 C 0.19743 0.63111 0.91092 0.0
H1000 H 0.6943 0.81911 0.12119 0.0
H1001 H 0.61367 0.82447 0.16211 0.0
H1002 H 0.69199 0.77219 0.12545 0.0
H1003 H 0.61137 0.77721 0.16965 0.0
H1004 H 0.61445 0.68788 0.14709 0.0
H1005 H 0.61263 0.73475 0.13316 0.0
H1006 H 0.69066 0.74143 0.1927 0.0
H1007 H 0.69268 0.69482 0.20392 0.0
C1008 C 0.67589 0.81008 0.13 0.0
C1009 C 0.6541 0.8253 0.14043 0.0
C1010 C 0.67461 0.78315 0.13357 0.0
C1011 C 0.65166 0.77065 0.1495 0.0
C1012 C 0.62939 0.78596 0.15717 0.0
C1013 C 0.6306 0.81306 0.15252 0.0
C1014 C 0.63106 0.69951 0.15768 0.0
C1015 C 0.65379 0.68768 0.17632 0.0
C1016 C 0.63006 0.72641 0.14964 0.0
C1017 C 0.6517 0.74209 0.16054 0.0
C1018 C 0.67388 0.73014 0.18187 0.0
C1019 C 0.67497 0.70336 0.18912 0.0
H1020 H 0.81933 0.31155 0.90734 0.0
H1021 H 0.81963 0.39334 0.94075 0.0
H1022 H 0.77327 0.31261 0.89426 0.0
H1023 H 0.77241 0.39426 0.93108 0.0
H1024 H 0.68903 0.39031 0.86217 0.0
H1025 H 0.73614 0.39211 0.87348 0.0
H1026 H 0.73481 0.31437 0.9372 0.0
H1027 H 0.68889 0.31215 0.92246 0.0
C1028 C 0.80943 0.32979 0.91298 0.0
C1029 C 0.82327 0.35234 0.92539 0.0
C1030 C 0.78272 0.33039 0.90583 0.0
C1031 C 0.76861 0.35346 0.91225 0.0
C1032 C 0.78244 0.37613 0.92524 0.0
C1033 C 0.8095 0.37559 0.93143 0.0
C1034 C 0.69904 0.37357 0.87788 0.0
C1035 C 0.68522 0.35097 0.89059 0.0
C1036 C 0.72603 0.37465 0.88498 0.0
C1037 C 0.73971 0.35327 0.90574 0.0
C1038 C 0.72549 0.331 0.91944 0.0
C1039 C 0.69887 0.32975 0.91128 0.0
H1040 H 0.89783 0.68777 0.6492 0.0
H1041 H 0.81991 0.69488 0.59066 0.0
H1042 H 0.89942 0.7346 0.66419 0.0
H1043 H 0.82168 0.7414 0.60329 0.0
H1044 H 0.81687 0.8178 0.67934 0.0
H1045 H 0.81995 0.77096 0.6735 0.0
H1046 H 0.90023 0.77772 0.62777 0.0
H1047 H 0.89715 0.82491 0.63657 0.0
C1048 C 0.88127 0.69943 0.6384 0.0
C1049 C 0.85867 0.68765 0.61901 0.0
C1050 C 0.88213 0.72629 0.64711 0.0
C1051 C 0.86045 0.74194 0.6363 0.0
C1052 C 0.83846 0.73008 0.61404 0.0
C1053 C 0.83753 0.70336 0.60599 0.0
C1054 C 0.83539 0.80917 0.66991 0.0
C1055 C 0.85685 0.82487 0.65933 0.0
C1056 C 0.8371 0.7823 0.66545 0.0
C1057 C 0.86016 0.77035 0.64855 0.0
C1058 C 0.88214 0.78609 0.64092 0.0
C1059 C 0.88049 0.81313 0.64634 0.0
H1060 H 0.81776 0.19677 0.38348 0.0
H1061 H 0.82336 0.11507 0.4144 0.0
H1062 H 0.77092 0.1942 0.38727 0.0
H1063 H 0.77615 0.11242 0.42169 0.0
H1064 H 0.68703 0.11543 0.39898 0.0
H1065 H 0.73392 0.11426 0.38596 0.0
H1066 H 0.7396 0.19115 0.45239 0.0
H1067 H 0.69295 0.19261 0.46245 0.0
C1068 C 0.8088 0.17811 0.39014 0.0
C1069 C 0.82409 0.15608 0.39781 0.0
C1070 C 0.78189 0.17665 0.39345 0.0
C1071 C 0.76944 0.15323 0.40644 0.0
C1072 C 0.78483 0.13082 0.4115 0.0
C1073 C 0.81191 0.13223 0.40701 0.0
C1074 C 0.69844 0.13192 0.41125 0.0
C1075 C 0.68631 0.1542 0.43149 0.0
C1076 C 0.72538 0.13129 0.40375 0.0
C1077 C 0.74082 0.15283 0.41688 0.0
C1078 C 0.72854 0.1745 0.4398 0.0
C1079 C 0.70172 0.17525 0.44641 0.0
H1080 H 0.19704 0.32008 0.65551 0.0
H1081 H 0.11633 0.32029 0.613 0.0
H1082 H 0.19571 0.27401 0.66861 0.0
H1083 H 0.11526 0.27297 0.62273 0.0
H1084 H 0.11813 0.1891 0.69122 0.0
H1085 H 0.11627 0.23631 0.68056 0.0
H1086 H 0.19526 0.23587 0.62419 0.0
H1087 H 0.19746 0.18982 0.63821 0.0
C1088 C 0.17899 0.31017 0.6479 0.0
C1089 C 0.15682 0.32399 0.63281 0.0
C1090 C 0.17826 0.28345 0.65507 0.0
C1091 C 0.15549 0.26927 0.64597 0.0
C1092 C 0.13316 0.28307 0.63057 0.0
C1093 C 0.13378 0.31018 0.62438 0.0
C1094 C 0.13511 0.19932 0.67728 0.0
C1095 C 0.15803 0.1857 0.66633 0.0
C1096 C 0.13401 0.22636 0.67055 0.0
C1097 C 0.15571 0.24032 0.65203 0.0
C1098 C 0.17833 0.22631 0.64019 0.0
C1099 C 0.17957 0.19963 0.64792 0.0
H1100 H 0.31832 0.81219 0.41778 0.0
H1101 H 0.32077 0.89524 0.43249 0.0
H1102 H 0.27222 0.81369 0.40577 0.0
H1103 H 0.27349 0.8968 0.42373 0.0
H1104 H 0.18987 0.89001 0.3534 0.0
H1105 H 0.23698 0.89205 0.36585 0.0
H1106 H 0.23421 0.81901 0.44985 0.0
H1107 H 0.18843 0.81631 0.43422 0.0
C1108 C 0.30889 0.83086 0.41955 0.0
C1109 C 0.32334 0.85358 0.42632 0.0
C1110 C 0.28217 0.83174 0.41302 0.0
C1111 C 0.26867 0.85536 0.41439 0.0
C1112 C 0.28308 0.87824 0.42195 0.0
C1113 C 0.31016 0.87736 0.42765 0.0
C1114 C 0.19957 0.87436 0.37395 0.0
C1115 C 0.18545 0.85278 0.39178 0.0
C1116 C 0.22653 0.8756 0.38163 0.0
C1117 C 0.23979 0.85547 0.40815 0.0
C1118 C 0.2252 0.83449 0.42751 0.0
C1119 C 0.19866 0.83299 0.41878 0.0
H1120 H 0.2372 0.08707 0.74359 0.0
H1121 H 0.18325 0.11732 0.85922 0.0
H1122 H 0.27043 0.085 0.81308 0.0
H1123 H 0.2162 0.11596 0.92756 0.0
H1124 H 0.27476 0.09352 0.05517 0.0
H1125 H 0.24151 0.09095 0.98593 0.0
H1126 H 0.2985 0.11001 0.866 0.0
H1127 H 0.33146 0.11169 0.9344 0.0
C1128 C 0.23235 0.0933 0.78363 0.0
C1129 C 0.20734 0.10242 0.79515 0.0
C1130 C 0.25152 0.09228 0.82373 0.0
C1131 C 0.24631 0.10031 0.87673 0.0
C1132 C 0.22118 0.10915 0.888 0.0
C1133 C 0.20215 0.11016 0.84817 0.0
C1134 C 0.28022 0.09701 1.01402 0.0
C1135 C 0.30599 0.10301 1.00101 0.0
C1136 C 0.26104 0.09572 0.97402 0.0
C1137 C 0.26698 0.10036 0.9196 0.0
C1138 C 0.29288 0.10594 0.90682 0.0
C1139 C 0.31193 0.10719 0.94661 0.0
H1140 H 0.10927 0.73855 0.9986 0.0
H1141 H 0.09058 0.67899 0.11273 0.0
H1142 H 0.10862 0.77066 0.06989 0.0
H1143 H 0.0885 0.71088 0.18357 0.0
H1144 H 0.10918 0.76962 0.31358 0.0
H1145 H 0.1087 0.73715 0.24273 0.0
H1146 H 0.08765 0.79629 0.12858 0.0
H1147 H 0.08965 0.8284 0.19867 0.0
C1148 C 0.10452 0.73236 0.03877 0.0
C1149 C 0.10009 0.70607 0.04959 0.0
C1150 C 0.10402 0.75087 0.08015 0.0
C1151 C 0.09855 0.74382 0.13375 0.0
C1152 C 0.09344 0.71747 0.14384 0.0
C1153 C 0.09441 0.699 0.10273 0.0
C1154 C 0.10426 0.77556 0.27338 0.0
C1155 C 0.0996 0.80177 0.26211 0.0
C1156 C 0.10389 0.75685 0.23228 0.0
C1157 C 0.09834 0.76366 0.17862 0.0
C1158 C 0.0928 0.78988 0.16828 0.0
C1159 C 0.09368 0.80851 0.20901 0.0
H1160 H 0.68037 0.91977 0.94516 0.0
H1161 H 0.7405 0.9012 0.05771 0.0
H1162 H 0.71173 0.9214 0.87338 0.0
H1163 H 0.77216 0.9016 0.98509 0.0
H1164 H 0.82841 0.92172 0.85272 0.0
H1165 H 0.79702 0.92337 0.92448 0.0
H1166 H 0.73734 0.89959 0.81447 0.0
H1167 H 0.769 0.89912 0.74187 0.0
C1168 C 0.7004 0.91592 0.95472 0.0
C1169 C 0.70775 0.91036 1.00774 0.0
C1170 C 0.71854 0.91661 0.91298 0.0
C1171 C 0.74487 0.91141 0.92221 0.0
C1172 C 0.7523 0.90617 0.97562 0.0
C1173 C 0.73408 0.90585 1.01771 0.0
C1174 C 0.80854 0.91698 0.84356 0.0
C1175 C 0.80139 0.91027 0.79104 0.0
C1176 C 0.79038 0.91769 0.88528 0.0
C1177 C 0.76425 0.91139 0.87652 0.0
C1178 C 0.75701 0.90502 0.82355 0.0
C1179 C 0.77524 0.90467 0.78148 0.0
H1180 H 0.90429 0.27228 0.99899 0.0
H1181 H 0.91533 0.33311 0.11406 0.0
H1182 H 0.9051 0.24036 0.07099 0.0
H1183 H 0.91764 0.30156 0.18552 0.0
H1184 H 0.8961 0.24207 0.31367 0.0
H1185 H 0.89668 0.27419 0.24202 0.0
H1186 H 0.92644 0.21653 0.13322 0.0
H1187 H 0.92458 0.18461 0.20406 0.0
C1188 C 0.90741 0.27883 0.03952 0.0
C1189 C 0.90967 0.30538 0.05034 0.0
C1190 C 0.90799 0.26044 0.08128 0.0
C1191 C 0.91133 0.26796 0.13526 0.0
C1192 C 0.91434 0.29459 0.1454 0.0
C1193 C 0.91329 0.31288 0.10392 0.0
C1194 C 0.90299 0.23639 0.27455 0.0
C1195 C 0.91013 0.2106 0.26492 0.0
C1196 C 0.90341 0.25489 0.233 0.0
C1197 C 0.91145 0.24834 0.18056 0.0
C1198 C 0.91941 0.22262 0.17191 0.0
C1199 C 0.91856 0.20415 0.21307 0.0
H1200 H 0.27356 0.42307 0.24715 0.0
H1201 H 0.32738 0.39205 0.36189 0.0
H1202 H 0.24057 0.42559 0.3174 0.0
H1203 H 0.29483 0.39438 0.43115 0.0
H1204 H 0.23708 0.41877 0.55971 0.0
H1205 H 0.2701 0.42073 0.48939 0.0
H1206 H 0.21266 0.40058 0.37185 0.0
H1207 H 0.17999 0.39931 0.44113 0.0
C1208 C 0.27846 0.41679 0.28714 0.0
C1209 C 0.30345 0.40755 0.29827 0.0
C1210 C 0.25945 0.41815 0.3277 0.0
C1211 C 0.2648 0.41033 0.38077 0.0
C1212 C 0.28982 0.40114 0.39157 0.0
C1213 C 0.30866 0.39972 0.35125 0.0
C1214 C 0.23148 0.41496 0.51884 0.0
C1215 C 0.20569 0.40873 0.50675 0.0
C1216 C 0.25051 0.41589 0.47825 0.0
C1217 C 0.24434 0.41075 0.42421 0.0
C1218 C 0.21842 0.40503 0.41234 0.0
C1219 C 0.19955 0.40404 0.45267 0.0
H1220 H 0.39973 0.73857 0.80613 0.0
H1221 H 0.41712 0.67945 0.69044 0.0
H1222 H 0.4006 0.77112 0.73542 0.0
H1223 H 0.41962 0.71176 0.62041 0.0
H1224 H 0.39919 0.77099 0.49161 0.0
H1225 H 0.39939 0.73839 0.56225 0.0
H1226 H 0.42152 0.79695 0.67649 0.0
H1227 H 0.41984 0.82933 0.60645 0.0
C1228 C 0.40425 0.73257 0.76577 0.0
C1229 C 0.40829 0.70627 0.75438 0.0
C1230 C 0.40489 0.75133 0.72474 0.0
C1231 C 0.4101 0.74453 0.67095 0.0
C1232 C 0.41485 0.71818 0.66031 0.0
C1233 C 0.41371 0.69946 0.70101 0.0
C1234 C 0.4043 0.77679 0.53176 0.0
C1235 C 0.40939 0.8029 0.54302 0.0
C1236 C 0.40453 0.758 0.57275 0.0
C1237 C 0.41035 0.76458 0.62635 0.0
C1238 C 0.41622 0.79072 0.63678 0.0
C1239 C 0.41551 0.80947 0.59611 0.0
H1240 H 0.68198 0.61763 0.36088 0.0
H1241 H 0.73668 0.59009 0.24383 0.0
H1242 H 0.71491 0.61601 0.42931 0.0
H1243 H 0.76985 0.58773 0.31329 0.0
H1244 H 0.83032 0.61375 0.43571 0.0
H1245 H 0.79733 0.61249 0.36745 0.0
H1246 H 0.74076 0.59088 0.4864 0.0
H1247 H 0.77405 0.59301 0.55565 0.0
C1248 C 0.70104 0.61101 0.34953 0.0
C1249 C 0.70646 0.6041 0.29612 0.0
C1250 C 0.72005 0.60985 0.38939 0.0
C1251 C 0.74537 0.60169 0.37769 0.0
C1252 C 0.75079 0.59449 0.32429 0.0
C1253 C 0.73166 0.59569 0.28419 0.0
C1254 C 0.81088 0.60874 0.44776 0.0
C1255 C 0.80507 0.60369 0.5019 0.0
C1256 C 0.79181 0.60775 0.40802 0.0
C1257 C 0.76602 0.60157 0.42056 0.0
C1258 C 0.7602 0.59612 0.47471 0.0
C1259 C 0.7794 0.59716 0.5147 0.0
H1260 H 0.5894 0.23628 0.49939 0.0
H1261 H 0.6139 0.18003 0.61617 0.0
H1262 H 0.58667 0.26898 0.56989 0.0
H1263 H 0.61187 0.21248 0.6857 0.0
H1264 H 0.58841 0.27158 0.81244 0.0
H1265 H 0.58625 0.23874 0.74201 0.0
H1266 H 0.61179 0.29526 0.62631 0.0
H1267 H 0.61318 0.32777 0.6956 0.0
C1268 C 0.59423 0.23081 0.53992 0.0
C1269 C 0.60196 0.20533 0.55145 0.0
C1270 C 0.59282 0.24967 0.58061 0.0
C1271 C 0.59907 0.24367 0.63425 0.0
C1272 C 0.60647 0.21807 0.64557 0.0
C1273 C 0.60787 0.19934 0.6051 0.0
C1274 C 0.59339 0.27701 0.77193 0.0
C1275 C 0.60112 0.30251 0.76035 0.0
C1276 C 0.59233 0.25808 0.7313 0.0
C1277 C 0.59889 0.26404 0.67773 0.0
C1278 C 0.6062 0.28967 0.66638 0.0
C1279 C 0.60726 0.30845 0.70674 0.0
H1280 H 0.39074 0.088 0.47013 0.0
H1281 H 0.31901 0.12846 0.49775 0.0
H1282 H 0.40085 0.09093 0.56492 0.0
H1283 H 0.32962 0.13233 0.59218 0.0
H1284 H 0.34431 0.1104 0.76749 0.0
H1285 H 0.33359 0.10714 0.67292 0.0
H1286 H 0.4133 0.12186 0.63179 0.0
H1287 H 0.424 0.12507 0.72621 0.0
C1288 C 0.37708 0.0975 0.49637 0.0
C1289 C 0.35403 0.10797 0.47603 0.0
C1290 C 0.38304 0.09946 0.55076 0.0
C1291 C 0.36611 0.11195 0.58645 0.0
C1292 C 0.34302 0.12236 0.56614 0.0
C1293 C 0.33707 0.12042 0.51173 0.0
C1294 C 0.35952 0.11319 0.73828 0.0
C1295 C 0.38506 0.11794 0.7547 0.0
C1296 C 0.35337 0.11131 0.68394 0.0
C1297 C 0.37257 0.11415 0.64447 0.0
C1298 C 0.39807 0.11907 0.66093 0.0
C1299 C 0.40422 0.12094 0.71521 0.0
H1300 H 0.09871 0.61645 0.58475 0.0
H1301 H 0.10827 0.69738 0.54681 0.0
H1302 H 0.10102 0.60592 0.49016 0.0
H1303 H 0.11218 0.6867 0.4527 0.0
H1304 H 0.0934 0.66266 0.28219 0.0
H1305 H 0.08906 0.673 0.3767 0.0
H1306 H 0.13004 0.60295 0.41733 0.0
H1307 H 0.1339 0.59244 0.32286 0.0
C1308 C 0.10126 0.63205 0.55638 0.0
C1309 C 0.10331 0.65782 0.57394 0.0
C1310 C 0.10297 0.62595 0.50193 0.0
C1311 C 0.10691 0.64539 0.46331 0.0
C1312 C 0.10884 0.67116 0.48088 0.0
C1313 C 0.10698 0.67727 0.53524 0.0
C1314 C 0.1016 0.64952 0.31129 0.0
C1315 C 0.11398 0.62668 0.29473 0.0
C1316 C 0.09916 0.65548 0.36567 0.0
C1317 C 0.10919 0.63886 0.40514 0.0
C1318 C 0.12161 0.61603 0.38844 0.0
C1319 C 0.1239 0.61 0.33408 0.0
H1320 H 0.70338 0.89055 0.50324 0.0
H1321 H 0.62824 0.9247 0.4793 0.0
H1322 H 0.69313 0.88379 0.5978 0.0
H1323 H 0.61817 0.91833 0.57356 0.0
H1324 H 0.59822 0.87741 0.73007 0.0
H1325 H 0.60955 0.8826 0.6363 0.0
H1326 H 0.68543 0.90931 0.68101 0.0
H1327 H 0.67398 0.90468 0.7752 0.0
C1328 C 0.68466 0.89654 0.5181 0.0
C1329 C 0.66666 0.90822 0.48364 0.0
C1330 C 0.67887 0.89288 0.57238 0.0
C1331 C 0.65481 0.90049 0.59336 0.0
C1332 C 0.63679 0.912 0.55875 0.0
C1333 C 0.64266 0.91589 0.50474 0.0
C1334 C 0.61725 0.88467 0.72019 0.0
C1335 C 0.63504 0.89083 0.76069 0.0
C1336 C 0.62378 0.88757 0.66623 0.0
C1337 C 0.64836 0.89652 0.651 0.0
C1338 C 0.6664 0.90214 0.69127 0.0
C1339 C 0.65982 0.89942 0.74539 0.0
H1340 H 0.91437 0.34708 0.2818 0.0
H1341 H 0.87496 0.41799 0.32243 0.0
H1342 H 0.91963 0.33736 0.37622 0.0
H1343 H 0.87873 0.40746 0.4167 0.0
H1344 H 0.91042 0.39464 0.58361 0.0
H1345 H 0.90759 0.40484 0.48894 0.0
H1346 H 0.89745 0.32379 0.45331 0.0
H1347 H 0.90197 0.31345 0.54747 0.0
C1348 C 0.90682 0.36066 0.31074 0.0
C1349 C 0.89426 0.3834 0.29397 0.0
C1350 C 0.90951 0.35487 0.36518 0.0
C1351 C 0.89958 0.37154 0.40465 0.0
C1352 C 0.88698 0.39425 0.38784 0.0
C1353 C 0.88445 0.40012 0.33344 0.0
C1354 C 0.90799 0.3789 0.55562 0.0
C1355 C 0.90644 0.35317 0.57374 0.0
C1356 C 0.90597 0.38482 0.5011 0.0
C1357 C 0.90216 0.36521 0.46293 0.0
C1358 C 0.90068 0.33947 0.48107 0.0
C1359 C 0.90289 0.33355 0.5355 0.0
H1360 H 0.33671 0.39359 0.53395 0.0
H1361 H 0.41752 0.39086 0.57557 0.0
H1362 H 0.3254 0.39771 0.62818 0.0
H1363 H 0.40633 0.39538 0.66957 0.0
H1364 H 0.37792 0.38029 0.83808 0.0
H1365 H 0.38775 0.37393 0.744 0.0
H1366 H 0.32659 0.42684 0.70151 0.0
H1367 H 0.3158 0.43205 0.79553 0.0
C1368 C 0.35209 0.39404 0.56318 0.0
C1369 C 0.37804 0.39182 0.54703 0.0
C1370 C 0.34561 0.39647 0.61733 0.0
C1371 C 0.36491 0.3969 0.65689 0.0
C1372 C 0.39086 0.39464 0.64061 0.0
C1373 C 0.39731 0.39207 0.58653 0.0
C1374 C 0.36625 0.39027 0.80876 0.0
C1375 C 0.346 0.40669 0.82483 0.0
C1376 C 0.37216 0.3869 0.75459 0.0
C1377 C 0.3581 0.39995 0.71474 0.0
C1378 C 0.33772 0.41622 0.73078 0.0
C1379 C 0.33173 0.4195 0.78496 0.0
H1380 H 0.35989 0.65796 0.23197 0.0
H1381 H 0.44312 0.65545 0.24019 0.0
H1382 H 0.35727 0.64774 0.32713 0.0
H1383 H 0.44048 0.64496 0.33535 0.0
H1384 H 0.42356 0.6566 0.51599 0.0
H1385 H 0.42675 0.66634 0.42085 0.0
H1386 H 0.36678 0.61068 0.38817 0.0
H1387 H 0.36402 0.60032 0.48294 0.0
C1388 C 0.37763 0.65528 0.25414 0.0
C1389 C 0.40172 0.65755 0.22848 0.0
C1390 C 0.37612 0.64921 0.30856 0.0
C1391 C 0.39866 0.64554 0.33885 0.0
C1392 C 0.42276 0.64787 0.31325 0.0
C1393 C 0.42427 0.65365 0.25865 0.0
C1394 C 0.41127 0.64614 0.48859 0.0
C1395 C 0.39351 0.62763 0.50757 0.0
C1396 C 0.41307 0.65181 0.43398 0.0
C1397 C 0.39699 0.63932 0.39691 0.0
C1398 C 0.3792 0.62091 0.41574 0.0
C1399 C 0.37757 0.61505 0.47025 0.0
H1400 H 0.63185 0.57626 0.82191 0.0
H1401 H 0.6869 0.63851 0.80507 0.0
H1402 H 0.62113 0.57996 0.72766 0.0
H1403 H 0.67724 0.64122 0.71019 0.0
H1404 H 0.63468 0.65788 0.55399 0.0
H1405 H 0.64514 0.65467 0.64865 0.0
H1406 H 0.63713 0.57162 0.64051 0.0
H1407 H 0.6262 0.57498 0.54612 0.0
C1408 C 0.64169 0.59077 0.79822 0.0
C1409 C 0.66025 0.60711 0.82153 0.0
C1410 C 0.63579 0.59265 0.74377 0.0
C1411 C 0.64832 0.61086 0.71086 0.0
C1412 C 0.66692 0.62716 0.73415 0.0
C1413 C 0.67275 0.62535 0.78865 0.0
C1414 C 0.63534 0.63892 0.57234 0.0
C1415 C 0.62953 0.6167 0.54237 0.0
C1416 C 0.64139 0.63704 0.62672 0.0
C1417 C 0.642 0.61287 0.65265 0.0
C1418 C 0.6364 0.59063 0.62243 0.0
C1419 C 0.63018 0.59253 0.56814 0.0
H1420 H 0.61243 0.33929 0.52648 0.0
H1421 H 0.61912 0.42033 0.48705 0.0
H1422 H 0.608 0.329 0.43192 0.0
H1423 H 0.61451 0.41003 0.39267 0.0
H1424 H 0.5791 0.38512 0.23334 0.0
H1425 H 0.58305 0.39488 0.32825 0.0
H1426 H 0.63228 0.32825 0.34874 0.0
H1427 H 0.62765 0.31802 0.25419 0.0
C1428 C 0.61319 0.35492 0.49772 0.0
C1429 C 0.61612 0.38068 0.51476 0.0
C1430 C 0.61061 0.349 0.44336 0.0
C1431 C 0.61084 0.36867 0.40443 0.0
C1432 C 0.6138 0.3944 0.42145 0.0
C1433 C 0.61643 0.40032 0.47575 0.0
C1434 C 0.59058 0.37239 0.25813 0.0
C1435 C 0.60304 0.35076 0.23587 0.0
C1436 C 0.59308 0.37816 0.31256 0.0
C1437 C 0.60804 0.36241 0.34638 0.0
C1438 C 0.62041 0.3407 0.32416 0.0
C1439 C 0.61799 0.33499 0.26969 0.0
H1440 H 0.8201 0.63247 0.99742 0.0
H1441 H 0.88756 0.585 0.97156 0.0
H1442 H 0.8308 0.6357 0.092 0.0
H1443 H 0.89776 0.5875 0.06644 0.0
H1444 H 0.92363 0.62128 0.2268 0.0
H1445 H 0.91286 0.61833 0.13238 0.0
H1446 H 0.83223 0.60975 0.17312 0.0
H1447 H 0.843 0.61256 0.26772 0.0
C1448 C 0.83725 0.62275 1.01185 0.0
C1449 C 0.85299 0.60852 0.97669 0.0
C1450 C 0.84322 0.62436 0.06627 0.0
C1451 C 0.86515 0.61186 0.08702 0.0
C1452 C 0.88088 0.59761 0.05185 0.0
C1453 C 0.87486 0.59594 0.99747 0.0
C1454 C 0.90361 0.61852 0.21576 0.0
C1455 C 0.88422 0.61712 0.25513 0.0
C1456 C 0.89743 0.61683 0.16148 0.0
C1457 C 0.87167 0.61375 0.14497 0.0
C1458 C 0.85224 0.61248 0.18428 0.0
C1459 C 0.85843 0.61412 0.23862 0.0
H1460 H 0.65588 0.13332 0.80808 0.0
H1461 H 0.57304 0.12518 0.79979 0.0
H1462 H 0.65258 0.14368 0.90278 0.0
H1463 H 0.5696 0.13602 0.89424 0.0
H1464 H 0.57374 0.13113 0.07586 0.0
H1465 H 0.57752 0.12026 0.98163 0.0
H1466 H 0.6394 0.17569 0.96455 0.0
H1467 H 0.6366 0.18547 0.05935 0.0
C1468 C 0.63691 0.13403 0.82633 0.0
C1469 C 0.61474 0.12835 0.79616 0.0
C1470 C 0.63499 0.14003 0.88078 0.0
C1471 C 0.6108 0.14072 0.90666 0.0
C1472 C 0.58862 0.13522 0.87626 0.0
C1473 C 0.59057 0.12906 0.8219 0.0
C1474 C 0.5884 0.14079 0.05227 0.0
C1475 C 0.60486 0.15921 0.07571 0.0
C1476 C 0.59034 0.1348 0.9978 0.0
C1477 C 0.60874 0.14709 0.96495 0.0
C1478 C 0.62518 0.16553 0.9884 0.0
C1479 C 0.62332 0.17144 0.04289 0.0
H1480 H 0.08847 0.38978 0.23352 0.0
H1481 H 0.16959 0.39458 0.27245 0.0
H1482 H 0.09895 0.39373 0.13902 0.0
H1483 H 0.18004 0.39809 0.17763 0.0
H1484 H 0.18947 0.37704 0.99942 0.0
H1485 H 0.17925 0.37267 0.0943 0.0
H1486 H 0.11566 0.42586 0.07549 0.0
H1487 H 0.12551 0.42977 0.98047 0.0
C1488 C 0.10854 0.39188 0.22209 0.0
C1489 C 0.12814 0.39196 0.26099 0.0
C1490 C 0.11455 0.39409 0.16775 0.0
C1491 C 0.14034 0.3963 0.15062 0.0
C1492 C 0.15998 0.39611 0.18934 0.0
C1493 C 0.15397 0.39404 0.24379 0.0
C1494 C 0.17319 0.38765 1.01544 0.0
C1495 C 0.1583 0.40374 0.9822 0.0
C1496 C 0.16749 0.38535 0.06998 0.0
C1497 C 0.14662 0.39891 0.09262 0.0
C1498 C 0.13171 0.41494 0.05934 0.0
C1499 C 0.13752 0.41739 1.00492 0.0
H1500 H 0.40091 0.81212 0.04248 0.0
H1501 H 0.4071 0.89342 0.07969 0.0
H1502 H 0.39703 0.82259 0.94819 0.0
H1503 H 0.40482 0.90378 0.98501 0.0
H1504 H 0.37226 0.91567 0.81747 0.0
H1505 H 0.37571 0.90523 0.91208 0.0
H1506 H 0.42059 0.8374 0.87292 0.0
H1507 H 0.41665 0.84766 0.77825 0.0
C1508 C 0.40145 0.83226 0.03068 0.0
C1509 C 0.40421 0.8519 0.0691 0.0
C1510 C 0.3996 0.83825 0.97629 0.0
C1511 C 0.40063 0.86407 0.9586 0.0
C1512 C 0.4036 0.8837 0.99698 0.0
C1513 C 0.40529 0.87771 0.05142 0.0
C1514 C 0.383 0.89862 0.8291 0.0
C1515 C 0.39417 0.88252 0.7902 0.0
C1516 C 0.38505 0.89264 0.88346 0.0
C1517 C 0.39848 0.87046 0.90051 0.0
C1518 C 0.40972 0.8544 0.86149 0.0
C1519 C 0.40751 0.8603 0.80709 0.0
H1520 H 0.85201 0.86431 0.32181 0.0
H1521 H 0.82974 0.94356 0.29269 0.0
H1522 H 0.8622 0.85914 0.22738 0.0
H1523 H 0.83959 0.9382 0.19813 0.0
H1524 H 0.83799 0.91192 1.02288 0.0
H1525 H 0.82557 0.91578 0.11673 0.0
H1526 H 0.89431 0.87417 0.16268 0.0
H1527 H 0.90635 0.8697 0.06899 0.0
C1528 C 0.84936 0.8807 0.29545 0.0
C1529 C 0.84011 0.90441 0.31534 0.0
C1530 C 0.85519 0.8777 0.24114 0.0
C1531 C 0.85182 0.89827 0.20501 0.0
C1532 C 0.84212 0.92183 0.22461 0.0
C1533 C 0.83642 0.92488 0.27899 0.0
C1534 C 0.85033 0.90336 0.05296 0.0
C1535 C 0.87323 0.89053 0.03819 0.0
C1536 C 0.84333 0.90581 0.10685 0.0
C1537 C 0.85894 0.89533 0.14743 0.0
C1538 C 0.88168 0.88227 0.13259 0.0
C1539 C 0.88874 0.87996 0.07879 0.0
H1540 H 0.90005 0.1769 0.02953 0.0
H1541 H 0.88039 0.09854 0.98649 0.0
H1542 H 0.90564 0.18769 0.93516 0.0
H1543 H 0.8853 0.10949 0.8923 0.0
H1544 H 0.92627 0.13012 0.73535 0.0
H1545 H 0.91995 0.12013 0.82964 0.0
H1546 H 0.88099 0.19315 0.85159 0.0
H1547 H 0.88781 0.20339 0.75716 0.0
C1548 C 0.89691 0.16197 0.99999 0.0
C1549 C 0.88981 0.13682 1.01577 0.0
C1550 C 0.89986 0.16823 0.94581 0.0
C1551 C 0.89598 0.14946 0.90601 0.0
C1552 C 0.88872 0.12437 0.92182 0.0
C1553 C 0.88563 0.11816 0.9759 0.0
C1554 C 0.91652 0.14415 0.76032 0.0
C1555 C 0.90764 0.16762 0.73863 0.0
C1556 C 0.91265 0.1383 0.81434 0.0
C1557 C 0.89991 0.1558 0.84832 0.0
C1558 C 0.89105 0.17931 0.8267 0.0
C1559 C 0.89475 0.18508 0.77246 0.0
H1560 H 0.12393 0.07428 0.04476 0.0
H1561 H 0.13793 0.15638 0.05433 0.0
H1562 H 0.13438 0.06977 0.13917 0.0
H1563 H 0.14802 0.15202 0.14898 0.0
H1564 H 0.18858 0.13211 0.30521 0.0
H1565 H 0.17917 0.13599 0.21036 0.0
H1566 H 0.11875 0.0789 0.22655 0.0
H1567 H 0.12909 0.07404 0.32081 0.0
C1568 C 0.12902 0.09143 0.06713 0.0
C1569 C 0.13005 0.1157 0.04178 0.0
C1570 C 0.13498 0.08886 0.12145 0.0
C1571 C 0.14202 0.11052 0.15215 0.0
C1572 C 0.14311 0.1348 0.12668 0.0
C1573 C 0.13728 0.13733 0.07227 0.0
C1574 C 0.1735 0.12011 0.28851 0.0
C1575 C 0.15969 0.10269 0.32105 0.0
C1576 C 0.16784 0.12261 0.23404 0.0
C1577 C 0.14813 0.10781 0.21038 0.0
C1578 C 0.13428 0.09042 0.24294 0.0
C1579 C 0.13999 0.08788 0.29739 0.0
H1580 H 0.07514 0.82415 0.76213 0.0
H1581 H 0.13573 0.87887 0.72571 0.0
H1582 H 0.07879 0.83463 0.85648 0.0
H1583 H 0.14042 0.88823 0.82038 0.0
H1584 H 0.12385 0.91961 0.98719 0.0
H1585 H 0.1197 0.90945 0.89265 0.0
H1586 H 0.10569 0.82935 0.93248 0.0
H1587 H 0.10941 0.8397 0.02713 0.0
C1588 C 0.08925 0.83844 0.77412 0.0
C1589 C 0.10507 0.85069 0.7359 0.0
C1590 C 0.09161 0.84419 0.82852 0.0
C1591 C 0.10994 0.86229 0.84644 0.0
C1592 C 0.12584 0.87445 0.80825 0.0
C1593 C 0.1234 0.86879 0.75381 0.0
C1594 C 0.12006 0.8998 0.97575 0.0
C1595 C 0.11698 0.88049 1.01485 0.0
C1596 C 0.11772 0.89392 0.92141 0.0
C1597 C 0.11239 0.86853 0.90455 0.0
C1598 C 0.10937 0.8492 0.94376 0.0
C1599 C 0.11155 0.85512 0.99815 0.0
loop_
_geom_bond_atom_site_label_1
_geom_bond_atom_site_label_2
_geom_bond_distance
_geom_bond_site_symmetry_2
_ccdc_geom_bond_type
Ho0 C3 2.811 . S
Ho0 O20 2.322 . S
Ho0 O22 2.378 . S
Ho0 O23 2.524 . S
Ho0 O24 2.381 . S
Ho0 O25 2.669 . S
Ho0 O27 2.346 . S
Ho0 O31 2.305 . S
Ho1 C12 2.811 1_554 S
Ho1 O21 2.346 . S
Ho1 O25 2.305 . S
Ho1 O26 2.322 . S
Ho1 O28 2.378 1_554 S
Ho1 O29 2.524 1_554 S
Ho1 O30 2.381 . S
Ho1 O31 2.669 . S
C2 O20 1.259 . S
C2 O21 1.268 . S
C3 Ho0 2.811 . S
C3 C4 1.488 . S
C3 O22 1.215 . S
C3 O23 1.289 . S
C4 C3 1.488 . S
C4 C5 1.348 . S
C4 C9 1.413 . S
C5 C4 1.348 . S
C5 C6 1.442 . S
C5 H32 0.930 . S
C6 C5 1.442 . S
C6 C7 1.381 . S
C6 H33 0.931 . S
C7 C6 1.381 . S
C7 C8 1.321 . S
C8 C7 1.321 . S
C8 C9 1.403 . S
C8 H34 0.934 . S
C9 C4 1.413 . S
C9 C8 1.403 . S
C9 H35 0.930 . S
C10 O24 1.275 . S
C10 O25 1.256 . S
C11 O26 1.259 . S
C11 O27 1.268 . S
C12 Ho1 2.811 1_556 S
C12 C13 1.488 . S
C12 O28 1.215 . S
C12 O29 1.289 . S
C13 C12 1.488 . S
C13 C14 1.348 . S
C13 C18 1.413 . S
C14 C13 1.348 . S
C14 C15 1.442 . S
C14 H36 0.930 . S
C15 C14 1.442 . S
C15 C16 1.381 . S
C15 H37 0.931 . S
C16 C15 1.381 . S
C16 C17 1.321 . S
C17 C16 1.321 . S
C17 C18 1.403 . S
C17 H38 0.934 . S
C18 C13 1.413 . S
C18 C17 1.403 . S
C18 H39 0.930 . S
C19 O30 1.275 . S
C19 O31 1.256 . S
O20 Ho0 2.322 . S
O20 C2 1.259 . S
O21 Ho1 2.346 . S
O21 C2 1.268 . S
O22 Ho0 2.378 . S
O22 C3 1.215 . S
O23 Ho0 2.524 . S
O23 C3 1.289 . S
O24 Ho0 2.381 . S
O24 C10 1.275 . S
O25 Ho0 2.669 . S
O25 Ho1 2.305 . S
O25 C10 1.256 . S
O26 Ho1 2.322 . S
O26 C11 1.259 . S
O27 Ho0 2.346 . S
O27 C11 1.268 . S
O28 Ho1 2.378 1_556 S
O28 C12 1.215 . S
O29 Ho1 2.524 1_556 S
O29 C12 1.289 . S
O30 Ho1 2.381 . S
O30 C19 1.275 . S
O31 Ho0 2.305 . S
O31 Ho1 2.669 . S
O31 C19 1.256 . S
H32 C5 0.930 . S
H33 C6 0.931 . S
H34 C8 0.934 . S
H35 C9 0.930 . S
H36 C14 0.930 . S
H37 C15 0.931 . S
H38 C17 0.934 . S
H39 C18 0.930 . S
Ho40 C43 2.811 1_556 S
Ho40 O60 2.322 . S
Ho40 O62 2.378 1_556 S
Ho40 O63 2.524 1_556 S
Ho40 O64 2.381 . S
Ho40 O65 2.669 . S
Ho40 O67 2.346 . S
Ho40 O71 2.305 . S
Ho41 C52 2.811 . S
Ho41 O61 2.346 . S
Ho41 O65 2.305 . S
Ho41 O66 2.322 . S
Ho41 O68 2.378 . S
Ho41 O69 2.524 . S
Ho41 O70 2.381 . S
Ho41 O71 2.669 . S
C42 O60 1.259 . S
C42 O61 1.268 . S
C43 Ho40 2.811 1_554 S
C43 C44 1.488 . S
C43 O62 1.215 . S
C43 O63 1.289 . S
C44 C43 1.488 . S
C44 C45 1.348 . S
C44 C49 1.413 . S
C45 C44 1.348 . S
C45 C46 1.442 . S
C45 H72 0.930 . S
C46 C45 1.442 . S
C46 C47 1.381 . S
C46 H73 0.931 . S
C47 C46 1.381 . S
C47 C48 1.321 . S
C48 C47 1.321 . S
C48 C49 1.403 . S
C48 H74 0.934 . S
C49 C44 1.413 . S
C49 C48 1.403 . S
C49 H75 0.930 . S
C50 O64 1.275 . S
C50 O65 1.256 . S
C51 O66 1.259 . S
C51 O67 1.268 . S
C52 Ho41 2.811 . S
C52 C53 1.488 . S
C52 O68 1.215 . S
C52 O69 1.289 . S
C53 C52 1.488 . S
C53 C54 1.348 . S
C53 C58 1.413 . S
C54 C53 1.348 . S
C54 C55 1.442 . S
C54 H76 0.930 . S
C55 C54 1.442 . S
C55 C56 1.381 . S
C55 H77 0.931 . S
C56 C55 1.381 . S
C56 C57 1.321 . S
C57 C56 1.321 . S
C57 C58 1.403 . S
C57 H78 0.934 . S
C58 C53 1.413 . S
C58 C57 1.403 . S
C58 H79 0.930 . S
C59 O70 1.275 . S
C59 O71 1.256 . S
O60 Ho40 2.322 . S
O60 C42 1.259 . S
O61 Ho41 2.346 . S
O61 C42 1.268 . S
O62 Ho40 2.378 1_554 S
O62 C43 1.215 . S
O63 Ho40 2.524 1_554 S
O63 C43 1.289 . S
O64 Ho40 2.381 . S
O64 C50 1.275 . S
O65 Ho40 2.669 . S
O65 Ho41 2.305 . S
O65 C50 1.256 . S
O66 Ho41 2.322 . S
O66 C51 1.259 . S
O67 Ho40 2.346 . S
O67 C51 1.268 . S
O68 Ho41 2.378 . S
O68 C52 1.215 . S
O69 Ho41 2.524 . S
O69 C52 1.289 . S
O70 Ho41 2.381 . S
O70 C59 1.275 . S
O71 Ho40 2.305 . S
O71 Ho41 2.669 . S
O71 C59 1.256 . S
H72 C45 0.930 . S
H73 C46 0.931 . S
H74 C48 0.934 . S
H75 C49 0.930 . S
H76 C54 0.930 . S
H77 C55 0.931 . S
H78 C57 0.934 . S
H79 C58 0.930 . S
Ho80 C83 2.811 . S
Ho80 O100 2.322 . S
Ho80 O102 2.378 . S
Ho80 O103 2.524 . S
Ho80 O104 2.381 . S
Ho80 O105 2.669 . S
Ho80 O107 2.346 . S
Ho80 O111 2.305 . S
Ho81 C92 2.811 1_554 S
Ho81 O101 2.346 . S
Ho81 O105 2.305 . S
Ho81 O106 2.322 . S
Ho81 O108 2.378 1_554 S
Ho81 O109 2.524 1_554 S
Ho81 O110 2.381 . S
Ho81 O111 2.669 . S
C82 O100 1.259 . S
C82 O101 1.268 . S
C83 Ho80 2.811 . S
C83 C84 1.488 . S
C83 O102 1.215 . S
C83 O103 1.289 . S
C84 C83 1.488 . S
C84 C85 1.348 . S
C84 C89 1.413 . S
C85 C84 1.348 . S
C85 C86 1.442 . S
C85 H112 0.930 . S
C86 C85 1.442 . S
C86 C87 1.381 . S
C86 H113 0.931 . S
C87 C86 1.381 . S
C87 C88 1.321 . S
C88 C87 1.321 . S
C88 C89 1.403 . S
C88 H114 0.934 . S
C89 C84 1.413 . S
C89 C88 1.403 . S
C89 H115 0.930 . S
C90 O104 1.275 . S
C90 O105 1.256 . S
C91 O106 1.259 . S
C91 O107 1.268 . S
C92 Ho81 2.811 1_556 S
C92 C93 1.488 . S
C92 O108 1.215 . S
C92 O109 1.289 . S
C93 C92 1.488 . S
C93 C94 1.348 . S
C93 C98 1.413 . S
C94 C93 1.348 . S
C94 C95 1.442 . S
C94 H116 0.930 . S
C95 C94 1.442 . S
C95 C96 1.381 . S
C95 H117 0.931 . S
C96 C95 1.381 . S
C96 C97 1.321 . S
C97 C96 1.321 . S
C97 C98 1.403 . S
C97 H118 0.934 . S
C98 C93 1.413 . S
C98 C97 1.403 . S
C98 H119 0.930 . S
C99 O110 1.275 . S
C99 O111 1.256 . S
O100 Ho80 2.322 . S
O100 C82 1.259 . S
O101 Ho81 2.346 . S
O101 C82 1.268 . S
O102 Ho80 2.378 . S
O102 C83 1.215 . S
O103 Ho80 2.524 . S
O103 C83 1.289 . S
O104 Ho80 2.381 . S
O104 C90 1.275 . S
O105 Ho80 2.669 . S
O105 Ho81 2.305 . S
O105 C90 1.256 . S
O106 Ho81 2.322 . S
O106 C91 1.259 . S
O107 Ho80 2.346 . S
O107 C91 1.268 . S
O108 Ho81 2.378 1_556 S
O108 C92 1.215 . S
O109 Ho81 2.524 1_556 S
O109 C92 1.289 . S
O110 Ho81 2.381 . S
O110 C99 1.275 . S
O111 Ho80 2.305 . S
O111 Ho81 2.669 . S
O111 C99 1.256 . S
H112 C85 0.930 . S
H113 C86 0.931 . S
H114 C88 0.934 . S
H115 C89 0.930 . S
H116 C94 0.930 . S
H117 C95 0.931 . S
H118 C97 0.934 . S
H119 C98 0.930 . S
Ho120 C123 2.811 1_556 S
Ho120 O140 2.322 . S
Ho120 O142 2.378 1_556 S
Ho120 O143 2.524 1_556 S
Ho120 O144 2.381 . S
Ho120 O145 2.669 . S
Ho120 O147 2.346 . S
Ho120 O151 2.305 . S
Ho121 C132 2.811 . S
Ho121 O141 2.346 . S
Ho121 O145 2.305 . S
Ho121 O146 2.322 . S
Ho121 O148 2.378 . S
Ho121 O149 2.524 . S
Ho121 O150 2.381 . S
Ho121 O151 2.669 . S
C122 O140 1.259 . S
C122 O141 1.268 . S
C123 Ho120 2.811 1_554 S
C123 C124 1.488 . S
C123 O142 1.215 . S
C123 O143 1.289 . S
C124 C123 1.488 . S
C124 C125 1.348 . S
C124 C129 1.413 . S
C125 C124 1.348 . S
C125 C126 1.442 . S
C125 H152 0.930 . S
C126 C125 1.442 . S
C126 C127 1.381 . S
C126 H153 0.931 . S
C127 C126 1.381 . S
C127 C128 1.321 . S
C128 C127 1.321 . S
C128 C129 1.403 . S
C128 H154 0.934 . S
C129 C124 1.413 . S
C129 C128 1.403 . S
C129 H155 0.930 . S
C130 O144 1.275 . S
C130 O145 1.256 . S
C131 O146 1.259 . S
C131 O147 1.268 . S
C132 Ho121 2.811 . S
C132 C133 1.488 . S
C132 O148 1.215 . S
C132 O149 1.289 . S
C133 C132 1.488 . S
C133 C134 1.348 . S
C133 C138 1.413 . S
C134 C133 1.348 . S
C134 C135 1.442 . S
C134 H156 0.930 . S
C135 C134 1.442 . S
C135 C136 1.381 . S
C135 H157 0.931 . S
C136 C135 1.381 . S
C136 C137 1.321 . S
C137 C136 1.321 . S
C137 C138 1.403 . S
C137 H158 0.934 . S
C138 C133 1.413 . S
C138 C137 1.403 . S
C138 H159 0.930 . S
C139 O150 1.275 . S
C139 O151 1.256 . S
O140 Ho120 2.322 . S
O140 C122 1.259 . S
O141 Ho121 2.346 . S
O141 C122 1.268 . S
O142 Ho120 2.378 1_554 S
O142 C123 1.215 . S
O143 Ho120 2.524 1_554 S
O143 C123 1.289 . S
O144 Ho120 2.381 . S
O144 C130 1.275 . S
O145 Ho120 2.669 . S
O145 Ho121 2.305 . S
O145 C130 1.256 . S
O146 Ho121 2.322 . S
O146 C131 1.259 . S
O147 Ho120 2.346 . S
O147 C131 1.268 . S
O148 Ho121 2.378 . S
O148 C132 1.215 . S
O149 Ho121 2.524 . S
O149 C132 1.289 . S
O150 Ho121 2.381 . S
O150 C139 1.275 . S
O151 Ho120 2.305 . S
O151 Ho121 2.669 . S
O151 C139 1.256 . S
H152 C125 0.930 . S
H153 C126 0.931 . S
H154 C128 0.934 . S
H155 C129 0.930 . S
H156 C134 0.930 . S
H157 C135 0.931 . S
H158 C137 0.934 . S
H159 C138 0.930 . S
Ho160 C163 2.811 1_554 S
Ho160 O180 2.322 . S
Ho160 O182 2.378 1_554 S
Ho160 O183 2.524 1_554 S
Ho160 O184 2.381 . S
Ho160 O185 2.669 . S
Ho160 O187 2.346 . S
Ho160 O191 2.305 . S
Ho161 C172 2.811 . S
Ho161 O181 2.346 . S
Ho161 O185 2.305 . S
Ho161 O186 2.322 . S
Ho161 O188 2.378 . S
Ho161 O189 2.524 . S
Ho161 O190 2.381 . S
Ho161 O191 2.669 . S
C162 O180 1.259 . S
C162 O181 1.268 . S
C163 Ho160 2.811 1_556 S
C163 C164 1.488 . S
C163 O182 1.215 . S
C163 O183 1.289 . S
C164 C163 1.488 . S
C164 C165 1.348 . S
C164 C169 1.413 . S
C165 C164 1.348 . S
C165 C166 1.442 . S
C165 H192 0.930 . S
C166 C165 1.442 . S
C166 C167 1.381 . S
C166 H193 0.931 . S
C167 C166 1.381 . S
C167 C168 1.321 . S
C168 C167 1.321 . S
C168 C169 1.403 . S
C168 H194 0.934 . S
C169 C164 1.413 . S
C169 C168 1.403 . S
C169 H195 0.930 . S
C170 O184 1.275 . S
C170 O185 1.256 . S
C171 O186 1.259 . S
C171 O187 1.268 . S
C172 Ho161 2.811 . S
C172 C173 1.488 . S
C172 O188 1.215 . S
C172 O189 1.289 . S
C173 C172 1.488 . S
C173 C174 1.348 . S
C173 C178 1.413 . S
C174 C173 1.348 . S
C174 C175 1.442 . S
C174 H196 0.930 . S
C175 C174 1.442 . S
C175 C176 1.381 . S
C175 H197 0.931 . S
C176 C175 1.381 . S
C176 C177 1.321 . S
C177 C176 1.321 . S
C177 C178 1.403 . S
C177 H198 0.934 . S
C178 C173 1.413 . S
C178 C177 1.403 . S
C178 H199 0.930 . S
C179 O190 1.275 . S
C179 O191 1.256 . S
O180 Ho160 2.322 . S
O180 C162 1.259 . S
O181 Ho161 2.346 . S
O181 C162 1.268 . S
O182 Ho160 2.378 1_556 S
O182 C163 1.215 . S
O183 Ho160 2.524 1_556 S
O183 C163 1.289 . S
O184 Ho160 2.381 . S
O184 C170 1.275 . S
O185 Ho160 2.669 . S
O185 Ho161 2.305 . S
O185 C170 1.256 . S
O186 Ho161 2.322 . S
O186 C171 1.259 . S
O187 Ho160 2.346 . S
O187 C171 1.268 . S
O188 Ho161 2.378 . S
O188 C172 1.215 . S
O189 Ho161 2.524 . S
O189 C172 1.289 . S
O190 Ho161 2.381 . S
O190 C179 1.275 . S
O191 Ho160 2.305 . S
O191 Ho161 2.669 . S
O191 C179 1.256 . S
H192 C165 0.930 . S
H193 C166 0.931 . S
H194 C168 0.934 . S
H195 C169 0.930 . S
H196 C174 0.930 . S
H197 C175 0.931 . S
H198 C177 0.934 . S
H199 C178 0.930 . S
Ho200 C203 2.811 . S
Ho200 O220 2.322 . S
Ho200 O222 2.378 . S
Ho200 O223 2.524 . S
Ho200 O224 2.381 . S
Ho200 O225 2.669 . S
Ho200 O227 2.346 . S
Ho200 O231 2.305 . S
Ho201 C212 2.811 1_556 S
Ho201 O221 2.346 . S
Ho201 O225 2.305 . S
Ho201 O226 2.322 . S
Ho201 O228 2.378 1_556 S
Ho201 O229 2.524 1_556 S
Ho201 O230 2.381 . S
Ho201 O231 2.669 . S
C202 O220 1.259 . S
C202 O221 1.268 . S
C203 Ho200 2.811 . S
C203 C204 1.488 . S
C203 O222 1.215 . S
C203 O223 1.289 . S
C204 C203 1.488 . S
C204 C205 1.348 . S
C204 C209 1.413 . S
C205 C204 1.348 . S
C205 C206 1.442 . S
C205 H232 0.930 . S
C206 C205 1.442 . S
C206 C207 1.381 . S
C206 H233 0.931 . S
C207 C206 1.381 . S
C207 C208 1.321 . S
C208 C207 1.321 . S
C208 C209 1.403 . S
C208 H234 0.934 . S
C209 C204 1.413 . S
C209 C208 1.403 . S
C209 H235 0.930 . S
C210 O224 1.275 . S
C210 O225 1.256 . S
C211 O226 1.259 . S
C211 O227 1.268 . S
C212 Ho201 2.811 1_554 S
C212 C213 1.488 . S
C212 O228 1.215 . S
C212 O229 1.289 . S
C213 C212 1.488 . S
C213 C214 1.348 . S
C213 C218 1.413 . S
C214 C213 1.348 . S
C214 C215 1.442 . S
C214 H236 0.930 . S
C215 C214 1.442 . S
C215 C216 1.381 . S
C215 H237 0.931 . S
C216 C215 1.381 . S
C216 C217 1.321 . S
C217 C216 1.321 . S
C217 C218 1.403 . S
C217 H238 0.934 . S
C218 C213 1.413 . S
C218 C217 1.403 . S
C218 H239 0.930 . S
C219 O230 1.275 . S
C219 O231 1.256 . S
O220 Ho200 2.322 . S
O220 C202 1.259 . S
O221 Ho201 2.346 . S
O221 C202 1.268 . S
O222 Ho200 2.378 . S
O222 C203 1.215 . S
O223 Ho200 2.524 . S
O223 C203 1.289 . S
O224 Ho200 2.381 . S
O224 C210 1.275 . S
O225 Ho200 2.669 . S
O225 Ho201 2.305 . S
O225 C210 1.256 . S
O226 Ho201 2.322 . S
O226 C211 1.259 . S
O227 Ho200 2.346 . S
O227 C211 1.268 . S
O228 Ho201 2.378 1_554 S
O228 C212 1.215 . S
O229 Ho201 2.524 1_554 S
O229 C212 1.289 . S
O230 Ho201 2.381 . S
O230 C219 1.275 . S
O231 Ho200 2.305 . S
O231 Ho201 2.669 . S
O231 C219 1.256 . S
H232 C205 0.930 . S
H233 C206 0.931 . S
H234 C208 0.934 . S
H235 C209 0.930 . S
H236 C214 0.930 . S
H237 C215 0.931 . S
H238 C217 0.934 . S
H239 C218 0.930 . S
Ho240 C243 2.811 1_554 S
Ho240 O260 2.322 . S
Ho240 O262 2.378 1_554 S
Ho240 O263 2.524 1_554 S
Ho240 O264 2.381 . S
Ho240 O265 2.669 . S
Ho240 O267 2.346 . S
Ho240 O271 2.305 . S
Ho241 C252 2.811 . S
Ho241 O261 2.346 . S
Ho241 O265 2.305 . S
Ho241 O266 2.322 . S
Ho241 O268 2.378 . S
Ho241 O269 2.524 . S
Ho241 O270 2.381 . S
Ho241 O271 2.669 . S
C242 O260 1.259 . S
C242 O261 1.268 . S
C243 Ho240 2.811 1_556 S
C243 C244 1.488 . S
C243 O262 1.215 . S
C243 O263 1.289 . S
C244 C243 1.488 . S
C244 C245 1.348 . S
C244 C249 1.413 . S
C245 C244 1.348 . S
C245 C246 1.442 . S
C245 H272 0.930 . S
C246 C245 1.442 . S
C246 C247 1.381 . S
C246 H273 0.931 . S
C247 C246 1.381 . S
C247 C248 1.321 . S
C248 C247 1.321 . S
C248 C249 1.403 . S
C248 H274 0.934 . S
C249 C244 1.413 . S
C249 C248 1.403 . S
C249 H275 0.930 . S
C250 O264 1.275 . S
C250 O265 1.256 . S
C251 O266 1.259 . S
C251 O267 1.268 . S
C252 Ho241 2.811 . S
C252 C253 1.488 . S
C252 O268 1.215 . S
C252 O269 1.289 . S
C253 C252 1.488 . S
C253 C254 1.348 . S
C253 C258 1.413 . S
C254 C253 1.348 . S
C254 C255 1.442 . S
C254 H276 0.930 . S
C255 C254 1.442 . S
C255 C256 1.381 . S
C255 H277 0.931 . S
C256 C255 1.381 . S
C256 C257 1.321 . S
C257 C256 1.321 . S
C257 C258 1.403 . S
C257 H278 0.934 . S
C258 C253 1.413 . S
C258 C257 1.403 . S
C258 H279 0.930 . S
C259 O270 1.275 . S
C259 O271 1.256 . S
O260 Ho240 2.322 . S
O260 C242 1.259 . S
O261 Ho241 2.346 . S
O261 C242 1.268 . S
O262 Ho240 2.378 1_556 S
O262 C243 1.215 . S
O263 Ho240 2.524 1_556 S
O263 C243 1.289 . S
O264 Ho240 2.381 . S
O264 C250 1.275 . S
O265 Ho240 2.669 . S
O265 Ho241 2.305 . S
O265 C250 1.256 . S
O266 Ho241 2.322 . S
O266 C251 1.259 . S
O267 Ho240 2.346 . S
O267 C251 1.268 . S
O268 Ho241 2.378 . S
O268 C252 1.215 . S
O269 Ho241 2.524 . S
O269 C252 1.289 . S
O270 Ho241 2.381 . S
O270 C259 1.275 . S
O271 Ho240 2.305 . S
O271 Ho241 2.669 . S
O271 C259 1.256 . S
H272 C245 0.930 . S
H273 C246 0.931 . S
H274 C248 0.934 . S
H275 C249 0.930 . S
H276 C254 0.930 . S
H277 C255 0.931 . S
H278 C257 0.934 . S
H279 C258 0.930 . S
Ho280 C283 2.811 . S
Ho280 O300 2.322 . S
Ho280 O302 2.378 . S
Ho280 O303 2.524 . S
Ho280 O304 2.381 . S
Ho280 O305 2.669 . S
Ho280 O307 2.346 . S
Ho280 O311 2.305 . S
Ho281 C292 2.811 1_556 S
Ho281 O301 2.346 . S
Ho281 O305 2.305 . S
Ho281 O306 2.322 . S
Ho281 O308 2.378 1_556 S
Ho281 O309 2.524 1_556 S
Ho281 O310 2.381 . S
Ho281 O311 2.669 . S
C282 O300 1.259 . S
C282 O301 1.268 . S
C283 Ho280 2.811 . S
C283 C284 1.488 . S
C283 O302 1.215 . S
C283 O303 1.289 . S
C284 C283 1.488 . S
C284 C285 1.348 . S
C284 C289 1.413 . S
C285 C284 1.348 . S
C285 C286 1.442 . S
C285 H312 0.930 . S
C286 C285 1.442 . S
C286 C287 1.381 . S
C286 H313 0.931 . S
C287 C286 1.381 . S
C287 C288 1.321 . S
C288 C287 1.321 . S
C288 C289 1.403 . S
C288 H314 0.934 . S
C289 C284 1.413 . S
C289 C288 1.403 . S
C289 H315 0.930 . S
C290 O304 1.275 . S
C290 O305 1.256 . S
C291 O306 1.259 . S
C291 O307 1.268 . S
C292 Ho281 2.811 1_554 S
C292 C293 1.488 . S
C292 O308 1.215 . S
C292 O309 1.289 . S
C293 C292 1.488 . S
C293 C294 1.348 . S
C293 C298 1.413 . S
C294 C293 1.348 . S
C294 C295 1.442 . S
C294 H316 0.930 . S
C295 C294 1.442 . S
C295 C296 1.381 . S
C295 H317 0.931 . S
C296 C295 1.381 . S
C296 C297 1.321 . S
C297 C296 1.321 . S
C297 C298 1.403 . S
C297 H318 0.934 . S
C298 C293 1.413 . S
C298 C297 1.403 . S
C298 H319 0.930 . S
C299 O310 1.275 . S
C299 O311 1.256 . S
O300 Ho280 2.322 . S
O300 C282 1.259 . S
O301 Ho281 2.346 . S
O301 C282 1.268 . S
O302 Ho280 2.378 . S
O302 C283 1.215 . S
O303 Ho280 2.524 . S
O303 C283 1.289 . S
O304 Ho280 2.381 . S
O304 C290 1.275 . S
O305 Ho280 2.669 . S
O305 Ho281 2.305 . S
O305 C290 1.256 . S
O306 Ho281 2.322 . S
O306 C291 1.259 . S
O307 Ho280 2.346 . S
O307 C291 1.268 . S
O308 Ho281 2.378 1_554 S
O308 C292 1.215 . S
O309 Ho281 2.524 1_554 S
O309 C292 1.289 . S
O310 Ho281 2.381 . S
O310 C299 1.275 . S
O311 Ho280 2.305 . S
O311 Ho281 2.669 . S
O311 C299 1.256 . S
H312 C285 0.930 . S
H313 C286 0.931 . S
H314 C288 0.934 . S
H315 C289 0.930 . S
H316 C294 0.930 . S
H317 C295 0.931 . S
H318 C297 0.934 . S
H319 C298 0.930 . S
Ho320 C323 2.811 . S
Ho320 O340 2.322 . S
Ho320 O342 2.378 . S
Ho320 O343 2.524 . S
Ho320 O344 2.381 . S
Ho320 O345 2.669 . S
Ho320 O347 2.346 . S
Ho320 O351 2.305 . S
Ho321 C332 2.811 . S
Ho321 O341 2.346 . S
Ho321 O345 2.305 . S
Ho321 O346 2.322 . S
Ho321 O348 2.378 . S
Ho321 O349 2.524 . S
Ho321 O350 2.381 . S
Ho321 O351 2.669 . S
C322 O340 1.259 . S
C322 O341 1.268 . S
C323 Ho320 2.811 . S
C323 C324 1.488 . S
C323 O342 1.215 . S
C323 O343 1.289 . S
C324 C323 1.488 . S
C324 C325 1.348 . S
C324 C329 1.413 . S
C325 C324 1.348 . S
C325 C326 1.442 . S
C325 H352 0.930 . S
C326 C325 1.442 . S
C326 C327 1.381 . S
C326 H353 0.931 . S
C327 C326 1.381 . S
C327 C328 1.321 . S
C328 C327 1.321 . S
C328 C329 1.403 . S
C328 H354 0.934 . S
C329 C324 1.413 . S
C329 C328 1.403 . S
C329 H355 0.930 . S
C330 O344 1.275 . S
C330 O345 1.256 . S
C331 O346 1.259 . S
C331 O347 1.268 . S
C332 Ho321 2.811 . S
C332 C333 1.488 . S
C332 O348 1.215 . S
C332 O349 1.289 . S
C333 C332 1.488 . S
C333 C334 1.348 . S
C333 C338 1.413 . S
C334 C333 1.348 . S
C334 C335 1.442 . S
C334 H356 0.930 . S
C335 C334 1.442 . S
C335 C336 1.381 . S
C335 H357 0.931 . S
C336 C335 1.381 . S
C336 C337 1.321 . S
C337 C336 1.321 . S
C337 C338 1.403 . S
C337 H358 0.934 . S
C338 C333 1.413 . S
C338 C337 1.403 . S
C338 H359 0.930 . S
C339 O350 1.275 . S
C339 O351 1.256 . S
O340 Ho320 2.322 . S
O340 C322 1.259 . S
O341 Ho321 2.346 . S
O341 C322 1.268 . S
O342 Ho320 2.378 . S
O342 C323 1.215 . S
O343 Ho320 2.524 . S
O343 C323 1.289 . S
O344 Ho320 2.381 . S
O344 C330 1.275 . S
O345 Ho320 2.669 . S
O345 Ho321 2.305 . S
O345 C330 1.256 . S
O346 Ho321 2.322 . S
O346 C331 1.259 . S
O347 Ho320 2.346 . S
O347 C331 1.268 . S
O348 Ho321 2.378 . S
O348 C332 1.215 . S
O349 Ho321 2.524 . S
O349 C332 1.289 . S
O350 Ho321 2.381 . S
O350 C339 1.275 . S
O351 Ho320 2.305 . S
O351 Ho321 2.669 . S
O351 C339 1.256 . S
H352 C325 0.930 . S
H353 C326 0.931 . S
H354 C328 0.934 . S
H355 C329 0.930 . S
H356 C334 0.930 . S
H357 C335 0.931 . S
H358 C337 0.934 . S
H359 C338 0.930 . S
Ho360 C363 2.811 . S
Ho360 O380 2.322 . S
Ho360 O382 2.378 . S
Ho360 O383 2.524 . S
Ho360 O384 2.381 . S
Ho360 O385 2.669 . S
Ho360 O387 2.346 . S
Ho360 O391 2.305 . S
Ho361 C372 2.811 . S
Ho361 O381 2.346 . S
Ho361 O385 2.305 . S
Ho361 O386 2.322 . S
Ho361 O388 2.378 . S
Ho361 O389 2.524 . S
Ho361 O390 2.381 . S
Ho361 O391 2.669 . S
C362 O380 1.259 . S
C362 O381 1.268 . S
C363 Ho360 2.811 . S
C363 C364 1.488 . S
C363 O382 1.215 . S
C363 O383 1.289 . S
C364 C363 1.488 . S
C364 C365 1.348 . S
C364 C369 1.413 . S
C365 C364 1.348 . S
C365 C366 1.442 . S
C365 H392 0.930 . S
C366 C365 1.442 . S
C366 C367 1.381 . S
C366 H393 0.931 . S
C367 C366 1.381 . S
C367 C368 1.321 . S
C368 C367 1.321 . S
C368 C369 1.403 . S
C368 H394 0.934 . S
C369 C364 1.413 . S
C369 C368 1.403 . S
C369 H395 0.930 . S
C370 O384 1.275 . S
C370 O385 1.256 . S
C371 O386 1.259 . S
C371 O387 1.268 . S
C372 Ho361 2.811 . S
C372 C373 1.488 . S
C372 O388 1.215 . S
C372 O389 1.289 . S
C373 C372 1.488 . S
C373 C374 1.348 . S
C373 C378 1.413 . S
C374 C373 1.348 . S
C374 C375 1.442 . S
C374 H396 0.930 . S
C375 C374 1.442 . S
C375 C376 1.381 . S
C375 H397 0.931 . S
C376 C375 1.381 . S
C376 C377 1.321 . S
C377 C376 1.321 . S
C377 C378 1.403 . S
C377 H398 0.934 . S
C378 C373 1.413 . S
C378 C377 1.403 . S
C378 H399 0.930 . S
C379 O390 1.275 . S
C379 O391 1.256 . S
O380 Ho360 2.322 . S
O380 C362 1.259 . S
O381 Ho361 2.346 . S
O381 C362 1.268 . S
O382 Ho360 2.378 . S
O382 C363 1.215 . S
O383 Ho360 2.524 . S
O383 C363 1.289 . S
O384 Ho360 2.381 . S
O384 C370 1.275 . S
O385 Ho360 2.669 . S
O385 Ho361 2.305 . S
O385 C370 1.256 . S
O386 Ho361 2.322 . S
O386 C371 1.259 . S
O387 Ho360 2.346 . S
O387 C371 1.268 . S
O388 Ho361 2.378 . S
O388 C372 1.215 . S
O389 Ho361 2.524 . S
O389 C372 1.289 . S
O390 Ho361 2.381 . S
O390 C379 1.275 . S
O391 Ho360 2.305 . S
O391 Ho361 2.669 . S
O391 C379 1.256 . S
H392 C365 0.930 . S
H393 C366 0.931 . S
H394 C368 0.934 . S
H395 C369 0.930 . S
H396 C374 0.930 . S
H397 C375 0.931 . S
H398 C377 0.934 . S
H399 C378 0.930 . S
Ho400 C403 2.811 . S
Ho400 O420 2.322 . S
Ho400 O422 2.378 . S
Ho400 O423 2.524 . S
Ho400 O424 2.381 . S
Ho400 O425 2.669 . S
Ho400 O427 2.346 . S
Ho400 O431 2.305 . S
Ho401 C412 2.811 . S
Ho401 O421 2.346 . S
Ho401 O425 2.305 . S
Ho401 O426 2.322 . S
Ho401 O428 2.378 . S
Ho401 O429 2.524 . S
Ho401 O430 2.381 . S
Ho401 O431 2.669 . S
C402 O420 1.259 . S
C402 O421 1.268 . S
C403 Ho400 2.811 . S
C403 C404 1.488 . S
C403 O422 1.215 . S
C403 O423 1.289 . S
C404 C403 1.488 . S
C404 C405 1.348 . S
C404 C409 1.413 . S
C405 C404 1.348 . S
C405 C406 1.442 . S
C405 H432 0.930 . S
C406 C405 1.442 . S
C406 C407 1.381 . S
C406 H433 0.931 . S
C407 C406 1.381 . S
C407 C408 1.321 . S
C408 C407 1.321 . S
C408 C409 1.403 . S
C408 H434 0.934 . S
C409 C404 1.413 . S
C409 C408 1.403 . S
C409 H435 0.930 . S
C410 O424 1.275 . S
C410 O425 1.256 . S
C411 O426 1.259 . S
C411 O427 1.268 . S
C412 Ho401 2.811 . S
C412 C413 1.488 . S
C412 O428 1.215 . S
C412 O429 1.289 . S
C413 C412 1.488 . S
C413 C414 1.348 . S
C413 C418 1.413 . S
C414 C413 1.348 . S
C414 C415 1.442 . S
C414 H436 0.930 . S
C415 C414 1.442 . S
C415 C416 1.381 . S
C415 H437 0.931 . S
C416 C415 1.381 . S
C416 C417 1.321 . S
C417 C416 1.321 . S
C417 C418 1.403 . S
C417 H438 0.934 . S
C418 C413 1.413 . S
C418 C417 1.403 . S
C418 H439 0.930 . S
C419 O430 1.275 . S
C419 O431 1.256 . S
O420 Ho400 2.322 . S
O420 C402 1.259 . S
O421 Ho401 2.346 . S
O421 C402 1.268 . S
O422 Ho400 2.378 . S
O422 C403 1.215 . S
O423 Ho400 2.524 . S
O423 C403 1.289 . S
O424 Ho400 2.381 . S
O424 C410 1.275 . S
O425 Ho400 2.669 . S
O425 Ho401 2.305 . S
O425 C410 1.256 . S
O426 Ho401 2.322 . S
O426 C411 1.259 . S
O427 Ho400 2.346 . S
O427 C411 1.268 . S
O428 Ho401 2.378 . S
O428 C412 1.215 . S
O429 Ho401 2.524 . S
O429 C412 1.289 . S
O430 Ho401 2.381 . S
O430 C419 1.275 . S
O431 Ho400 2.305 . S
O431 Ho401 2.669 . S
O431 C419 1.256 . S
H432 C405 0.930 . S
H433 C406 0.931 . S
H434 C408 0.934 . S
H435 C409 0.930 . S
H436 C414 0.930 . S
H437 C415 0.931 . S
H438 C417 0.934 . S
H439 C418 0.930 . S
Ho440 C443 2.811 . S
Ho440 O460 2.322 . S
Ho440 O462 2.378 . S
Ho440 O463 2.524 . S
Ho440 O464 2.381 . S
Ho440 O465 2.669 . S
Ho440 O467 2.346 . S
Ho440 O471 2.305 . S
Ho441 C452 2.811 . S
Ho441 O461 2.346 . S
Ho441 O465 2.305 . S
Ho441 O466 2.322 . S
Ho441 O468 2.378 . S
Ho441 O469 2.524 . S
Ho441 O470 2.381 . S
Ho441 O471 2.669 . S
C442 O460 1.259 . S
C442 O461 1.268 . S
C443 Ho440 2.811 . S
C443 C444 1.488 . S
C443 O462 1.215 . S
C443 O463 1.289 . S
C444 C443 1.488 . S
C444 C445 1.348 . S
C444 C449 1.413 . S
C445 C444 1.348 . S
C445 C446 1.442 . S
C445 H472 0.930 . S
C446 C445 1.442 . S
C446 C447 1.381 . S
C446 H473 0.931 . S
C447 C446 1.381 . S
C447 C448 1.321 . S
C448 C447 1.321 . S
C448 C449 1.403 . S
C448 H474 0.934 . S
C449 C444 1.413 . S
C449 C448 1.403 . S
C449 H475 0.930 . S
C450 O464 1.275 . S
C450 O465 1.256 . S
C451 O466 1.259 . S
C451 O467 1.268 . S
C452 Ho441 2.811 . S
C452 C453 1.488 . S
C452 O468 1.215 . S
C452 O469 1.289 . S
C453 C452 1.488 . S
C453 C454 1.348 . S
C453 C458 1.413 . S
C454 C453 1.348 . S
C454 C455 1.442 . S
C454 H476 0.930 . S
C455 C454 1.442 . S
C455 C456 1.381 . S
C455 H477 0.931 . S
C456 C455 1.381 . S
C456 C457 1.321 . S
C457 C456 1.321 . S
C457 C458 1.403 . S
C457 H478 0.934 . S
C458 C453 1.413 . S
C458 C457 1.403 . S
C458 H479 0.930 . S
C459 O470 1.275 . S
C459 O471 1.256 . S
O460 Ho440 2.322 . S
O460 C442 1.259 . S
O461 Ho441 2.346 . S
O461 C442 1.268 . S
O462 Ho440 2.378 . S
O462 C443 1.215 . S
O463 Ho440 2.524 . S
O463 C443 1.289 . S
O464 Ho440 2.381 . S
O464 C450 1.275 . S
O465 Ho440 2.669 . S
O465 Ho441 2.305 . S
O465 C450 1.256 . S
O466 Ho441 2.322 . S
O466 C451 1.259 . S
O467 Ho440 2.346 . S
O467 C451 1.268 . S
O468 Ho441 2.378 . S
O468 C452 1.215 . S
O469 Ho441 2.524 . S
O469 C452 1.289 . S
O470 Ho441 2.381 . S
O470 C459 1.275 . S
O471 Ho440 2.305 . S
O471 Ho441 2.669 . S
O471 C459 1.256 . S
H472 C445 0.930 . S
H473 C446 0.931 . S
H474 C448 0.934 . S
H475 C449 0.930 . S
H476 C454 0.930 . S
H477 C455 0.931 . S
H478 C457 0.934 . S
H479 C458 0.930 . S
Ho480 C483 2.811 . S
Ho480 O500 2.322 . S
Ho480 O502 2.378 . S
Ho480 O503 2.524 . S
Ho480 O504 2.381 . S
Ho480 O505 2.669 . S
Ho480 O507 2.346 . S
Ho480 O511 2.305 . S
Ho481 C492 2.811 . S
Ho481 O501 2.346 . S
Ho481 O505 2.305 . S
Ho481 O506 2.322 . S
Ho481 O508 2.378 . S
Ho481 O509 2.524 . S
Ho481 O510 2.381 . S
Ho481 O511 2.669 . S
C482 O500 1.259 . S
C482 O501 1.268 . S
C483 Ho480 2.811 . S
C483 C484 1.488 . S
C483 O502 1.215 . S
C483 O503 1.289 . S
C484 C483 1.488 . S
C484 C485 1.348 . S
C484 C489 1.413 . S
C485 C484 1.348 . S
C485 C486 1.442 . S
C485 H512 0.930 . S
C486 C485 1.442 . S
C486 C487 1.381 . S
C486 H513 0.931 . S
C487 C486 1.381 . S
C487 C488 1.321 . S
C488 C487 1.321 . S
C488 C489 1.403 . S
C488 H514 0.934 . S
C489 C484 1.413 . S
C489 C488 1.403 . S
C489 H515 0.930 . S
C490 O504 1.275 . S
C490 O505 1.256 . S
C491 O506 1.259 . S
C491 O507 1.268 . S
C492 Ho481 2.811 . S
C492 C493 1.488 . S
C492 O508 1.215 . S
C492 O509 1.289 . S
C493 C492 1.488 . S
C493 C494 1.348 . S
C493 C498 1.413 . S
C494 C493 1.348 . S
C494 C495 1.442 . S
C494 H516 0.930 . S
C495 C494 1.442 . S
C495 C496 1.381 . S
C495 H517 0.931 . S
C496 C495 1.381 . S
C496 C497 1.321 . S
C497 C496 1.321 . S
C497 C498 1.403 . S
C497 H518 0.934 . S
C498 C493 1.413 . S
C498 C497 1.403 . S
C498 H519 0.930 . S
C499 O510 1.275 . S
C499 O511 1.256 . S
O500 Ho480 2.322 . S
O500 C482 1.259 . S
O501 Ho481 2.346 . S
O501 C482 1.268 . S
O502 Ho480 2.378 . S
O502 C483 1.215 . S
O503 Ho480 2.524 . S
O503 C483 1.289 . S
O504 Ho480 2.381 . S
O504 C490 1.275 . S
O505 Ho480 2.669 . S
O505 Ho481 2.305 . S
O505 C490 1.256 . S
O506 Ho481 2.322 . S
O506 C491 1.259 . S
O507 Ho480 2.346 . S
O507 C491 1.268 . S
O508 Ho481 2.378 . S
O508 C492 1.215 . S
O509 Ho481 2.524 . S
O509 C492 1.289 . S
O510 Ho481 2.381 . S
O510 C499 1.275 . S
O511 Ho480 2.305 . S
O511 Ho481 2.669 . S
O511 C499 1.256 . S
H512 C485 0.930 . S
H513 C486 0.931 . S
H514 C488 0.934 . S
H515 C489 0.930 . S
H516 C494 0.930 . S
H517 C495 0.931 . S
H518 C497 0.934 . S
H519 C498 0.930 . S
Ho520 C523 2.811 . S
Ho520 O540 2.322 . S
Ho520 O542 2.378 . S
Ho520 O543 2.524 . S
Ho520 O544 2.381 . S
Ho520 O545 2.669 . S
Ho520 O547 2.346 . S
Ho520 O551 2.305 . S
Ho521 C532 2.811 . S
Ho521 O541 2.346 . S
Ho521 O545 2.305 . S
Ho521 O546 2.322 . S
Ho521 O548 2.378 . S
Ho521 O549 2.524 . S
Ho521 O550 2.381 . S
Ho521 O551 2.669 . S
C522 O540 1.259 . S
C522 O541 1.268 . S
C523 Ho520 2.811 . S
C523 C524 1.488 . S
C523 O542 1.215 . S
C523 O543 1.289 . S
C524 C523 1.488 . S
C524 C525 1.348 . S
C524 C529 1.413 . S
C525 C524 1.348 . S
C525 C526 1.442 . S
C525 H552 0.930 . S
C526 C525 1.442 . S
C526 C527 1.381 . S
C526 H553 0.931 . S
C527 C526 1.381 . S
C527 C528 1.321 . S
C528 C527 1.321 . S
C528 C529 1.403 . S
C528 H554 0.934 . S
C529 C524 1.413 . S
C529 C528 1.403 . S
C529 H555 0.930 . S
C530 O544 1.275 . S
C530 O545 1.256 . S
C531 O546 1.259 . S
C531 O547 1.268 . S
C532 Ho521 2.811 . S
C532 C533 1.488 . S
C532 O548 1.215 . S
C532 O549 1.289 . S
C533 C532 1.488 . S
C533 C534 1.348 . S
C533 C538 1.413 . S
C534 C533 1.348 . S
C534 C535 1.442 . S
C534 H556 0.930 . S
C535 C534 1.442 . S
C535 C536 1.381 . S
C535 H557 0.931 . S
C536 C535 1.381 . S
C536 C537 1.321 . S
C537 C536 1.321 . S
C537 C538 1.403 . S
C537 H558 0.934 . S
C538 C533 1.413 . S
C538 C537 1.403 . S
C538 H559 0.930 . S
C539 O550 1.275 . S
C539 O551 1.256 . S
O540 Ho520 2.322 . S
O540 C522 1.259 . S
O541 Ho521 2.346 . S
O541 C522 1.268 . S
O542 Ho520 2.378 . S
O542 C523 1.215 . S
O543 Ho520 2.524 . S
O543 C523 1.289 . S
O544 Ho520 2.381 . S
O544 C530 1.275 . S
O545 Ho520 2.669 . S
O545 Ho521 2.305 . S
O545 C530 1.256 . S
O546 Ho521 2.322 . S
O546 C531 1.259 . S
O547 Ho520 2.346 . S
O547 C531 1.268 . S
O548 Ho521 2.378 . S
O548 C532 1.215 . S
O549 Ho521 2.524 . S
O549 C532 1.289 . S
O550 Ho521 2.381 . S
O550 C539 1.275 . S
O551 Ho520 2.305 . S
O551 Ho521 2.669 . S
O551 C539 1.256 . S
H552 C525 0.930 . S
H553 C526 0.931 . S
H554 C528 0.934 . S
H555 C529 0.930 . S
H556 C534 0.930 . S
H557 C535 0.931 . S
H558 C537 0.934 . S
H559 C538 0.930 . S
Ho560 C563 2.811 . S
Ho560 O580 2.322 . S
Ho560 O582 2.378 . S
Ho560 O583 2.524 . S
Ho560 O584 2.381 . S
Ho560 O585 2.669 . S
Ho560 O587 2.346 . S
Ho560 O591 2.305 . S
Ho561 C572 2.811 . S
Ho561 O581 2.346 . S
Ho561 O585 2.305 . S
Ho561 O586 2.322 . S
Ho561 O588 2.378 . S
Ho561 O589 2.524 . S
Ho561 O590 2.381 . S
Ho561 O591 2.669 . S
C562 O580 1.259 . S
C562 O581 1.268 . S
C563 Ho560 2.811 . S
C563 C564 1.488 . S
C563 O582 1.215 . S
C563 O583 1.289 . S
C564 C563 1.488 . S
C564 C565 1.348 . S
C564 C569 1.413 . S
C565 C564 1.348 . S
C565 C566 1.442 . S
C565 H592 0.930 . S
C566 C565 1.442 . S
C566 C567 1.381 . S
C566 H593 0.931 . S
C567 C566 1.381 . S
C567 C568 1.321 . S
C568 C567 1.321 . S
C568 C569 1.403 . S
C568 H594 0.934 . S
C569 C564 1.413 . S
C569 C568 1.403 . S
C569 H595 0.930 . S
C570 O584 1.275 . S
C570 O585 1.256 . S
C571 O586 1.259 . S
C571 O587 1.268 . S
C572 Ho561 2.811 . S
C572 C573 1.488 . S
C572 O588 1.215 . S
C572 O589 1.289 . S
C573 C572 1.488 . S
C573 C574 1.348 . S
C573 C578 1.413 . S
C574 C573 1.348 . S
C574 C575 1.442 . S
C574 H596 0.930 . S
C575 C574 1.442 . S
C575 C576 1.381 . S
C575 H597 0.931 . S
C576 C575 1.381 . S
C576 C577 1.321 . S
C577 C576 1.321 . S
C577 C578 1.403 . S
C577 H598 0.934 . S
C578 C573 1.413 . S
C578 C577 1.403 . S
C578 H599 0.930 . S
C579 O590 1.275 . S
C579 O591 1.256 . S
O580 Ho560 2.322 . S
O580 C562 1.259 . S
O581 Ho561 2.346 . S
O581 C562 1.268 . S
O582 Ho560 2.378 . S
O582 C563 1.215 . S
O583 Ho560 2.524 . S
O583 C563 1.289 . S
O584 Ho560 2.381 . S
O584 C570 1.275 . S
O585 Ho560 2.669 . S
O585 Ho561 2.305 . S
O585 C570 1.256 . S
O586 Ho561 2.322 . S
O586 C571 1.259 . S
O587 Ho560 2.346 . S
O587 C571 1.268 . S
O588 Ho561 2.378 . S
O588 C572 1.215 . S
O589 Ho561 2.524 . S
O589 C572 1.289 . S
O590 Ho561 2.381 . S
O590 C579 1.275 . S
O591 Ho560 2.305 . S
O591 Ho561 2.669 . S
O591 C579 1.256 . S
H592 C565 0.930 . S
H593 C566 0.931 . S
H594 C568 0.934 . S
H595 C569 0.930 . S
H596 C574 0.930 . S
H597 C575 0.931 . S
H598 C577 0.934 . S
H599 C578 0.930 . S
Ho600 C603 2.811 . S
Ho600 O620 2.322 . S
Ho600 O622 2.378 . S
Ho600 O623 2.524 . S
Ho600 O624 2.381 . S
Ho600 O625 2.669 . S
Ho600 O627 2.346 . S
Ho600 O631 2.305 . S
Ho601 C612 2.811 . S
Ho601 O621 2.346 . S
Ho601 O625 2.305 . S
Ho601 O626 2.322 . S
Ho601 O628 2.378 . S
Ho601 O629 2.524 . S
Ho601 O630 2.381 . S
Ho601 O631 2.669 . S
C602 O620 1.259 . S
C602 O621 1.268 . S
C603 Ho600 2.811 . S
C603 C604 1.488 . S
C603 O622 1.215 . S
C603 O623 1.289 . S
C604 C603 1.488 . S
C604 C605 1.348 . S
C604 C609 1.413 . S
C605 C604 1.348 . S
C605 C606 1.442 . S
C605 H632 0.930 . S
C606 C605 1.442 . S
C606 C607 1.381 . S
C606 H633 0.931 . S
C607 C606 1.381 . S
C607 C608 1.321 . S
C608 C607 1.321 . S
C608 C609 1.403 . S
C608 H634 0.934 . S
C609 C604 1.413 . S
C609 C608 1.403 . S
C609 H635 0.930 . S
C610 O624 1.275 . S
C610 O625 1.256 . S
C611 O626 1.259 . S
C611 O627 1.268 . S
C612 Ho601 2.811 . S
C612 C613 1.488 . S
C612 O628 1.215 . S
C612 O629 1.289 . S
C613 C612 1.488 . S
C613 C614 1.348 . S
C613 C618 1.413 . S
C614 C613 1.348 . S
C614 C615 1.442 . S
C614 H636 0.930 . S
C615 C614 1.442 . S
C615 C616 1.381 . S
C615 H637 0.931 . S
C616 C615 1.381 . S
C616 C617 1.321 . S
C617 C616 1.321 . S
C617 C618 1.403 . S
C617 H638 0.934 . S
C618 C613 1.413 . S
C618 C617 1.403 . S
C618 H639 0.930 . S
C619 O630 1.275 . S
C619 O631 1.256 . S
O620 Ho600 2.322 . S
O620 C602 1.259 . S
O621 Ho601 2.346 . S
O621 C602 1.268 . S
O622 Ho600 2.378 . S
O622 C603 1.215 . S
O623 Ho600 2.524 . S
O623 C603 1.289 . S
O624 Ho600 2.381 . S
O624 C610 1.275 . S
O625 Ho600 2.669 . S
O625 Ho601 2.305 . S
O625 C610 1.256 . S
O626 Ho601 2.322 . S
O626 C611 1.259 . S
O627 Ho600 2.346 . S
O627 C611 1.268 . S
O628 Ho601 2.378 . S
O628 C612 1.215 . S
O629 Ho601 2.524 . S
O629 C612 1.289 . S
O630 Ho601 2.381 . S
O630 C619 1.275 . S
O631 Ho600 2.305 . S
O631 Ho601 2.669 . S
O631 C619 1.256 . S
H632 C605 0.930 . S
H633 C606 0.931 . S
H634 C608 0.934 . S
H635 C609 0.930 . S
H636 C614 0.930 . S
H637 C615 0.931 . S
H638 C617 0.934 . S
H639 C618 0.930 . S
H640 C648 0.950 . S
H641 C653 0.950 . S
H642 C650 0.950 . S
H643 C652 0.950 . S
H644 C654 0.950 . S
H645 C656 0.950 . S
H646 C658 0.950 . S
H647 C659 0.950 . S
C648 H640 0.950 . S
C648 C649 1.386 . S
C648 C650 1.391 . S
C649 C648 1.386 . S
C649 C653 1.393 . S
C650 H642 0.950 . S
C650 C648 1.391 . S
C650 C651 1.400 . S
C651 C650 1.400 . S
C651 C652 1.398 . S
C651 C657 1.491 . S
C652 H643 0.950 . S
C652 C651 1.398 . S
C652 C653 1.391 . S
C653 H641 0.950 . S
C653 C649 1.393 . S
C653 C652 1.391 . S
C654 H644 0.950 . S
C654 C655 1.386 . S
C654 C656 1.391 . S
C655 C654 1.386 . S
C655 C659 1.393 . S
C656 H645 0.950 . S
C656 C654 1.391 . S
C656 C657 1.400 1_545 S
C657 C651 1.491 . S
C657 C656 1.400 1_565 S
C657 C658 1.398 . S
C658 H646 0.950 . S
C658 C657 1.398 . S
C658 C659 1.391 1_565 S
C659 H647 0.950 . S
C659 C655 1.393 . S
C659 C658 1.391 1_545 S
H660 C668 0.950 . S
H661 C673 0.950 . S
H662 C670 0.950 . S
H663 C672 0.950 . S
H664 C674 0.950 . S
H665 C676 0.950 . S
H666 C678 0.950 . S
H667 C679 0.950 . S
C668 H660 0.950 . S
C668 C669 1.386 . S
C668 C670 1.391 . S
C669 C668 1.386 . S
C669 C673 1.393 . S
C670 H662 0.950 . S
C670 C668 1.391 . S
C670 C671 1.400 . S
C671 C670 1.400 . S
C671 C672 1.398 . S
C671 C677 1.491 . S
C672 H663 0.950 . S
C672 C671 1.398 . S
C672 C673 1.391 . S
C673 H661 0.950 . S
C673 C669 1.393 . S
C673 C672 1.391 . S
C674 H664 0.950 . S
C674 C675 1.386 . S
C674 C676 1.391 1_455 S
C675 C674 1.386 . S
C675 C679 1.393 . S
C676 H665 0.950 . S
C676 C674 1.391 1_655 S
C676 C677 1.400 . S
C677 C671 1.491 . S
C677 C676 1.400 . S
C677 C678 1.398 1_655 S
C678 H666 0.950 . S
C678 C677 1.398 1_455 S
C678 C679 1.391 . S
C679 H667 0.950 . S
C679 C675 1.393 . S
C679 C678 1.391 . S
H680 C688 0.950 . S
H681 C693 0.950 . S
H682 C690 0.950 . S
H683 C692 0.950 1_545 S
H684 C694 0.950 . S
H685 C696 0.950 . S
H686 C698 0.950 . S
H687 C699 0.950 . S
C688 H680 0.950 . S
C688 C689 1.386 . S
C688 C690 1.391 1_565 S
C689 C688 1.386 . S
C689 C693 1.393 . S
C690 H682 0.950 . S
C690 C688 1.391 1_545 S
C690 C691 1.400 . S
C691 C690 1.400 . S
C691 C692 1.398 1_545 S
C691 C697 1.491 . S
C692 H683 0.950 1_565 S
C692 C691 1.398 1_565 S
C692 C693 1.391 . S
C693 H681 0.950 . S
C693 C689 1.393 . S
C693 C692 1.391 . S
C694 H684 0.950 . S
C694 C695 1.386 . S
C694 C696 1.391 . S
C695 C694 1.386 . S
C695 C699 1.393 . S
C696 H685 0.950 . S
C696 C694 1.391 . S
C696 C697 1.400 . S
C697 C691 1.491 . S
C697 C696 1.400 . S
C697 C698 1.398 . S
C698 H686 0.950 . S
C698 C697 1.398 . S
C698 C699 1.391 . S
C699 H687 0.950 . S
C699 C695 1.393 . S
C699 C698 1.391 . S
H700 C708 0.950 . S
H701 C713 0.950 . S
H702 C710 0.950 . S
H703 C712 0.950 . S
H704 C714 0.950 . S
H705 C716 0.950 . S
H706 C718 0.950 . S
H707 C719 0.950 . S
C708 H700 0.950 . S
C708 C709 1.386 . S
C708 C710 1.391 . S
C709 C708 1.386 . S
C709 C713 1.393 . S
C710 H702 0.950 . S
C710 C708 1.391 . S
C710 C711 1.400 1_655 S
C711 C710 1.400 1_455 S
C711 C712 1.398 . S
C711 C717 1.491 . S
C712 H703 0.950 . S
C712 C711 1.398 . S
C712 C713 1.391 1_455 S
C713 H701 0.950 . S
C713 C709 1.393 . S
C713 C712 1.391 1_655 S
C714 H704 0.950 . S
C714 C715 1.386 . S
C714 C716 1.391 . S
C715 C714 1.386 . S
C715 C719 1.393 . S
C716 H705 0.950 . S
C716 C714 1.391 . S
C716 C717 1.400 . S
C717 C711 1.491 . S
C717 C716 1.400 . S
C717 C718 1.398 . S
C718 H706 0.950 . S
C718 C717 1.398 . S
C718 C719 1.391 . S
C719 H707 0.950 . S
C719 C715 1.393 . S
C719 C718 1.391 . S
H720 C728 0.950 . S
H721 C733 0.950 . S
H722 C730 0.950 . S
H723 C732 0.950 . S
H724 C734 0.950 . S
H725 C736 0.950 . S
H726 C738 0.950 . S
H727 C739 0.950 . S
C728 H720 0.950 . S
C728 C729 1.386 . S
C728 C730 1.391 . S
C729 C728 1.386 . S
C729 C733 1.393 . S
C730 H722 0.950 . S
C730 C728 1.391 . S
C730 C731 1.400 . S
C731 C730 1.400 . S
C731 C732 1.398 . S
C731 C737 1.491 . S
C732 H723 0.950 . S
C732 C731 1.398 . S
C732 C733 1.391 . S
C733 H721 0.950 . S
C733 C729 1.393 . S
C733 C732 1.391 . S
C734 H724 0.950 . S
C734 C735 1.386 . S
C734 C736 1.391 . S
C735 C734 1.386 . S
C735 C739 1.393 1_556 S
C736 H725 0.950 . S
C736 C734 1.391 . S
C736 C737 1.400 1_556 S
C737 C731 1.491 . S
C737 C736 1.400 1_554 S
C737 C738 1.398 . S
C738 H726 0.950 . S
C738 C737 1.398 . S
C738 C739 1.391 . S
C739 H727 0.950 . S
C739 C735 1.393 1_554 S
C739 C738 1.391 . S
H740 C748 0.950 . S
H741 C753 0.950 . S
H742 C750 0.950 . S
H743 C752 0.950 . S
H744 C754 0.950 . S
H745 C756 0.950 . S
H746 C758 0.950 1_554 S
H747 C759 0.950 . S
C748 H740 0.950 . S
C748 C749 1.386 . S
C748 C750 1.391 . S
C749 C748 1.386 . S
C749 C753 1.393 1_554 S
C750 H742 0.950 . S
C750 C748 1.391 . S
C750 C751 1.400 1_554 S
C751 C750 1.400 1_556 S
C751 C752 1.398 . S
C751 C757 1.491 . S
C752 H743 0.950 . S
C752 C751 1.398 . S
C752 C753 1.391 . S
C753 H741 0.950 . S
C753 C749 1.393 1_556 S
C753 C752 1.391 . S
C754 H744 0.950 . S
C754 C755 1.386 . S
C754 C756 1.391 . S
C755 C754 1.386 . S
C755 C759 1.393 . S
C756 H745 0.950 . S
C756 C754 1.391 . S
C756 C757 1.400 . S
C757 C751 1.491 . S
C757 C756 1.400 . S
C757 C758 1.398 . S
C758 H746 0.950 1_556 S
C758 C757 1.398 . S
C758 C759 1.391 . S
C759 H747 0.950 . S
C759 C755 1.393 . S
C759 C758 1.391 . S
H760 C768 0.950 . S
H761 C773 0.950 . S
H762 C770 0.950 . S
H763 C772 0.950 1_556 S
H764 C774 0.950 . S
H765 C776 0.950 . S
H766 C778 0.950 . S
H767 C779 0.950 . S
C768 H760 0.950 . S
C768 C769 1.386 . S
C768 C770 1.391 . S
C769 C768 1.386 . S
C769 C773 1.393 . S
C770 H762 0.950 . S
C770 C768 1.391 . S
C770 C771 1.400 . S
C771 C770 1.400 . S
C771 C772 1.398 . S
C771 C777 1.491 . S
C772 H763 0.950 1_554 S
C772 C771 1.398 . S
C772 C773 1.391 . S
C773 H761 0.950 . S
C773 C769 1.393 . S
C773 C772 1.391 . S
C774 H764 0.950 . S
C774 C775 1.386 . S
C774 C776 1.391 . S
C775 C774 1.386 . S
C775 C779 1.393 1_556 S
C776 H765 0.950 . S
C776 C774 1.391 . S
C776 C777 1.400 1_556 S
C777 C771 1.491 . S
C777 C776 1.400 1_554 S
C777 C778 1.398 . S
C778 H766 0.950 . S
C778 C777 1.398 . S
C778 C779 1.391 . S
C779 H767 0.950 . S
C779 C775 1.393 1_554 S
C779 C778 1.391 . S
H780 C788 0.950 . S
H781 C793 0.950 . S
H782 C790 0.950 . S
H783 C792 0.950 . S
H784 C794 0.950 . S
H785 C796 0.950 . S
H786 C798 0.950 . S
H787 C799 0.950 . S
C788 H780 0.950 . S
C788 C789 1.386 . S
C788 C790 1.391 1_554 S
C789 C788 1.386 . S
C789 C793 1.393 . S
C790 H782 0.950 . S
C790 C788 1.391 1_556 S
C790 C791 1.400 . S
C791 C790 1.400 . S
C791 C792 1.398 . S
C791 C797 1.491 . S
C792 H783 0.950 . S
C792 C791 1.398 . S
C792 C793 1.391 1_556 S
C793 H781 0.950 . S
C793 C789 1.393 . S
C793 C792 1.391 1_554 S
C794 H784 0.950 . S
C794 C795 1.386 . S
C794 C796 1.391 . S
C795 C794 1.386 . S
C795 C799 1.393 . S
C796 H785 0.950 . S
C796 C794 1.391 . S
C796 C797 1.400 . S
C797 C791 1.491 . S
C797 C796 1.400 . S
C797 C798 1.398 . S
C798 H786 0.950 . S
C798 C797 1.398 . S
C798 C799 1.391 . S
C799 H787 0.950 . S
C799 C795 1.393 . S
C799 C798 1.391 . S
H800 C808 0.950 . S
H801 C813 0.950 . S
H802 C810 0.950 . S
H803 C812 0.950 . S
H804 C814 0.950 . S
H805 C816 0.950 . S
H806 C818 0.950 . S
H807 C819 0.950 . S
C808 H800 0.950 . S
C808 C809 1.386 . S
C808 C810 1.391 . S
C809 C808 1.386 . S
C809 C813 1.393 . S
C810 H802 0.950 . S
C810 C808 1.391 . S
C810 C811 1.400 . S
C811 C810 1.400 . S
C811 C812 1.398 . S
C811 C817 1.491 . S
C812 H803 0.950 . S
C812 C811 1.398 . S
C812 C813 1.391 . S
C813 H801 0.950 . S
C813 C809 1.393 . S
C813 C812 1.391 . S
C814 H804 0.950 . S
C814 C815 1.386 . S
C814 C816 1.391 . S
C815 C814 1.386 . S
C815 C819 1.393 . S
C816 H805 0.950 . S
C816 C814 1.391 . S
C816 C817 1.400 . S
C817 C811 1.491 . S
C817 C816 1.400 . S
C817 C818 1.398 . S
C818 H806 0.950 . S
C818 C817 1.398 . S
C818 C819 1.391 . S
C819 H807 0.950 . S
C819 C815 1.393 . S
C819 C818 1.391 . S
H820 C828 0.950 . S
H821 C833 0.950 . S
H822 C830 0.950 . S
H823 C832 0.950 . S
H824 C834 0.950 . S
H825 C836 0.950 . S
H826 C838 0.950 . S
H827 C839 0.950 . S
C828 H820 0.950 . S
C828 C829 1.386 . S
C828 C830 1.391 . S
C829 C828 1.386 . S
C829 C833 1.393 . S
C830 H822 0.950 . S
C830 C828 1.391 . S
C830 C831 1.400 . S
C831 C830 1.400 . S
C831 C832 1.398 . S
C831 C837 1.491 . S
C832 H823 0.950 . S
C832 C831 1.398 . S
C832 C833 1.391 . S
C833 H821 0.950 . S
C833 C829 1.393 . S
C833 C832 1.391 . S
C834 H824 0.950 . S
C834 C835 1.386 . S
C834 C836 1.391 . S
C835 C834 1.386 . S
C835 C839 1.393 . S
C836 H825 0.950 . S
C836 C834 1.391 . S
C836 C837 1.400 . S
C837 C831 1.491 . S
C837 C836 1.400 . S
C837 C838 1.398 . S
C838 H826 0.950 . S
C838 C837 1.398 . S
C838 C839 1.391 . S
C839 H827 0.950 . S
C839 C835 1.393 . S
C839 C838 1.391 . S
H840 C848 0.950 . S
H841 C853 0.950 . S
H842 C850 0.950 . S
H843 C852 0.950 . S
H844 C854 0.950 . S
H845 C856 0.950 . S
H846 C858 0.950 . S
H847 C859 0.950 . S
C848 H840 0.950 . S
C848 C849 1.386 . S
C848 C850 1.391 . S
C849 C848 1.386 . S
C849 C853 1.393 . S
C850 H842 0.950 . S
C850 C848 1.391 . S
C850 C851 1.400 . S
C851 C850 1.400 . S
C851 C852 1.398 . S
C851 C857 1.491 . S
C852 H843 0.950 . S
C852 C851 1.398 . S
C852 C853 1.391 . S
C853 H841 0.950 . S
C853 C849 1.393 . S
C853 C852 1.391 . S
C854 H844 0.950 . S
C854 C855 1.386 . S
C854 C856 1.391 . S
C855 C854 1.386 . S
C855 C859 1.393 . S
C856 H845 0.950 . S
C856 C854 1.391 . S
C856 C857 1.400 . S
C857 C851 1.491 . S
C857 C856 1.400 . S
C857 C858 1.398 . S
C858 H846 0.950 . S
C858 C857 1.398 . S
C858 C859 1.391 . S
C859 H847 0.950 . S
C859 C855 1.393 . S
C859 C858 1.391 . S
H860 C868 0.950 . S
H861 C873 0.950 . S
H862 C870 0.950 . S
H863 C872 0.950 . S
H864 C874 0.950 . S
H865 C876 0.950 . S
H866 C878 0.950 . S
H867 C879 0.950 . S
C868 H860 0.950 . S
C868 C869 1.386 . S
C868 C870 1.391 . S
C869 C868 1.386 . S
C869 C873 1.393 . S
C870 H862 0.950 . S
C870 C868 1.391 . S
C870 C871 1.400 . S
C871 C870 1.400 . S
C871 C872 1.398 . S
C871 C877 1.491 . S
C872 H863 0.950 . S
C872 C871 1.398 . S
C872 C873 1.391 . S
C873 H861 0.950 . S
C873 C869 1.393 . S
C873 C872 1.391 . S
C874 H864 0.950 . S
C874 C875 1.386 . S
C874 C876 1.391 . S
C875 C874 1.386 . S
C875 C879 1.393 . S
C876 H865 0.950 . S
C876 C874 1.391 . S
C876 C877 1.400 . S
C877 C871 1.491 . S
C877 C876 1.400 . S
C877 C878 1.398 . S
C878 H866 0.950 . S
C878 C877 1.398 . S
C878 C879 1.391 . S
C879 H867 0.950 . S
C879 C875 1.393 . S
C879 C878 1.391 . S
H880 C888 0.950 . S
H881 C893 0.950 . S
H882 C890 0.936 1_545 S
H883 C892 0.964 . S
H884 C894 0.950 . S
H885 C896 0.950 . S
H886 C898 0.950 . S
H887 C899 0.950 . S
C888 H880 0.950 . S
C888 C889 1.386 . S
C888 C890 1.422 . S
C889 C888 1.386 . S
C889 C893 1.393 . S
C890 H882 0.936 1_565 S
C890 C888 1.422 . S
C890 C891 1.383 1_565 S
C891 C890 1.383 1_545 S
C891 C892 1.412 . S
C891 C897 1.491 . S
C892 H883 0.964 . S
C892 C891 1.412 . S
C892 C893 1.364 1_545 S
C893 H881 0.950 . S
C893 C889 1.393 . S
C893 C892 1.364 1_565 S
C894 H884 0.950 . S
C894 C895 1.386 . S
C894 C896 1.391 . S
C895 C894 1.386 . S
C895 C899 1.393 . S
C896 H885 0.950 . S
C896 C894 1.391 . S
C896 C897 1.400 . S
C897 C891 1.491 . S
C897 C896 1.400 . S
C897 C898 1.398 . S
C898 H886 0.950 . S
C898 C897 1.398 . S
C898 C899 1.391 . S
C899 H887 0.950 . S
C899 C895 1.393 . S
C899 C898 1.391 . S
H900 C908 0.950 . S
H901 C913 0.950 . S
H902 C910 0.950 . S
H903 C912 0.950 . S
H904 C914 0.950 . S
H905 C916 0.950 . S
H906 C918 0.950 1_455 S
H907 C919 0.950 . S
C908 H900 0.950 . S
C908 C909 1.386 . S
C908 C910 1.391 . S
C909 C908 1.386 . S
C909 C913 1.393 . S
C910 H902 0.950 . S
C910 C908 1.391 . S
C910 C911 1.400 . S
C911 C910 1.400 . S
C911 C912 1.398 . S
C911 C917 1.491 . S
C912 H903 0.950 . S
C912 C911 1.398 . S
C912 C913 1.391 . S
C913 H901 0.950 . S
C913 C909 1.393 . S
C913 C912 1.391 . S
C914 H904 0.950 . S
C914 C915 1.386 . S
C914 C916 1.391 1_655 S
C915 C914 1.386 . S
C915 C919 1.393 . S
C916 H905 0.950 . S
C916 C914 1.391 1_455 S
C916 C917 1.400 . S
C917 C911 1.491 . S
C917 C916 1.400 . S
C917 C918 1.398 1_455 S
C918 H906 0.950 1_655 S
C918 C917 1.398 1_655 S
C918 C919 1.391 . S
C919 H907 0.950 . S
C919 C915 1.393 . S
C919 C918 1.391 . S
H920 C928 0.950 . S
H921 C933 0.950 . S
H922 C930 0.950 . S
H923 C932 0.950 . S
H924 C934 0.950 . S
H925 C936 0.950 . S
H926 C938 0.950 . S
H927 C939 0.950 . S
C928 H920 0.950 . S
C928 C929 1.386 . S
C928 C930 1.391 . S
C929 C928 1.386 . S
C929 C933 1.393 . S
C930 H922 0.950 . S
C930 C928 1.391 . S
C930 C931 1.400 . S
C931 C930 1.400 . S
C931 C932 1.398 . S
C931 C937 1.491 . S
C932 H923 0.950 . S
C932 C931 1.398 . S
C932 C933 1.391 . S
C933 H921 0.950 . S
C933 C929 1.393 . S
C933 C932 1.391 . S
C934 H924 0.950 . S
C934 C935 1.386 . S
C934 C936 1.391 . S
C935 C934 1.386 . S
C935 C939 1.393 . S
C936 H925 0.950 . S
C936 C934 1.391 . S
C936 C937 1.400 1_545 S
C937 C931 1.491 . S
C937 C936 1.400 1_565 S
C937 C938 1.398 . S
C938 H926 0.950 . S
C938 C937 1.398 . S
C938 C939 1.391 1_565 S
C939 H927 0.950 . S
C939 C935 1.393 . S
C939 C938 1.391 1_545 S
H940 C948 0.950 . S
H941 C953 0.950 . S
H942 C950 0.950 . S
H943 C952 0.950 . S
H944 C954 0.950 . S
H945 C956 0.950 . S
H946 C958 0.950 . S
H947 C959 0.950 . S
C948 H940 0.950 . S
C948 C949 1.386 . S
C948 C950 1.391 . S
C949 C948 1.386 . S
C949 C953 1.393 . S
C950 H942 0.950 . S
C950 C948 1.391 . S
C950 C951 1.400 1_455 S
C951 C950 1.400 1_655 S
C951 C952 1.398 . S
C951 C957 1.491 . S
C952 H943 0.950 . S
C952 C951 1.398 . S
C952 C953 1.391 1_655 S
C953 H941 0.950 . S
C953 C949 1.393 . S
C953 C952 1.391 1_455 S
C954 H944 0.950 . S
C954 C955 1.386 . S
C954 C956 1.391 . S
C955 C954 1.386 . S
C955 C959 1.393 . S
C956 H945 0.950 . S
C956 C954 1.391 . S
C956 C957 1.400 . S
C957 C951 1.491 . S
C957 C956 1.400 . S
C957 C958 1.398 . S
C958 H946 0.950 . S
C958 C957 1.398 . S
C958 C959 1.391 . S
C959 H947 0.950 . S
C959 C955 1.393 . S
C959 C958 1.391 . S
H960 C968 0.950 . S
H961 C973 0.950 . S
H962 C970 0.950 . S
H963 C972 0.950 . S
H964 C974 0.950 . S
H965 C976 0.950 . S
H966 C978 0.950 . S
H967 C979 0.950 . S
C968 H960 0.950 . S
C968 C969 1.386 . S
C968 C970 1.391 . S
C969 C968 1.386 . S
C969 C973 1.393 . S
C970 H962 0.950 . S
C970 C968 1.391 . S
C970 C971 1.400 . S
C971 C970 1.400 . S
C971 C972 1.398 . S
C971 C977 1.491 . S
C972 H963 0.950 . S
C972 C971 1.398 . S
C972 C973 1.391 . S
C973 H961 0.950 . S
C973 C969 1.393 . S
C973 C972 1.391 . S
C974 H964 0.950 . S
C974 C975 1.386 . S
C974 C976 1.391 . S
C975 C974 1.386 . S
C975 C979 1.393 . S
C976 H965 0.950 . S
C976 C974 1.391 . S
C976 C977 1.400 . S
C977 C971 1.491 . S
C977 C976 1.400 . S
C977 C978 1.398 . S
C978 H966 0.950 . S
C978 C977 1.398 . S
C978 C979 1.391 . S
C979 H967 0.950 . S
C979 C975 1.393 . S
C979 C978 1.391 . S
H980 C988 0.950 . S
H981 C993 0.950 . S
H982 C990 0.950 . S
H983 C992 0.950 . S
H984 C994 0.950 . S
H985 C996 0.950 . S
H986 C998 0.950 . S
H987 C999 0.950 . S
C988 H980 0.950 . S
C988 C989 1.386 . S
C988 C990 1.391 . S
C989 C988 1.386 . S
C989 C993 1.393 . S
C990 H982 0.950 . S
C990 C988 1.391 . S
C990 C991 1.400 . S
C991 C990 1.400 . S
C991 C992 1.398 . S
C991 C997 1.491 . S
C992 H983 0.950 . S
C992 C991 1.398 . S
C992 C993 1.391 . S
C993 H981 0.950 . S
C993 C989 1.393 . S
C993 C992 1.391 . S
C994 H984 0.950 . S
C994 C995 1.386 . S
C994 C996 1.391 . S
C995 C994 1.386 . S
C995 C999 1.393 . S
C996 H985 0.950 . S
C996 C994 1.391 . S
C996 C997 1.400 . S
C997 C991 1.491 . S
C997 C996 1.400 . S
C997 C998 1.398 . S
C998 H986 0.950 . S
C998 C997 1.398 . S
C998 C999 1.391 . S
C999 H987 0.950 . S
C999 C995 1.393 . S
C999 C998 1.391 . S
H1000 C1008 0.950 . S
H1001 C1013 0.950 . S
H1002 C1010 0.950 . S
H1003 C1012 0.950 . S
H1004 C1014 0.950 . S
H1005 C1016 0.950 . S
H1006 C1018 0.950 . S
H1007 C1019 0.950 . S
C1008 H1000 0.950 . S
C1008 C1009 1.386 . S
C1008 C1010 1.391 . S
C1009 C1008 1.386 . S
C1009 C1013 1.393 . S
C1010 H1002 0.950 . S
C1010 C1008 1.391 . S
C1010 C1011 1.400 . S
C1011 C1010 1.400 . S
C1011 C1012 1.398 . S
C1011 C1017 1.491 . S
C1012 H1003 0.950 . S
C1012 C1011 1.398 . S
C1012 C1013 1.391 . S
C1013 H1001 0.950 . S
C1013 C1009 1.393 . S
C1013 C1012 1.391 . S
C1014 H1004 0.950 . S
C1014 C1015 1.386 . S
C1014 C1016 1.391 . S
C1015 C1014 1.386 . S
C1015 C1019 1.393 . S
C1016 H1005 0.950 . S
C1016 C1014 1.391 . S
C1016 C1017 1.400 . S
C1017 C1011 1.491 . S
C1017 C1016 1.400 . S
C1017 C1018 1.398 . S
C1018 H1006 0.950 . S
C1018 C1017 1.398 . S
C1018 C1019 1.391 . S
C1019 H1007 0.950 . S
C1019 C1015 1.393 . S
C1019 C1018 1.391 . S
H1020 C1028 0.950 . S
H1021 C1033 0.950 . S
H1022 C1030 0.950 . S
H1023 C1032 0.950 . S
H1024 C1034 0.950 . S
H1025 C1036 0.950 . S
H1026 C1038 0.950 . S
H1027 C1039 0.950 . S
C1028 H1020 0.950 . S
C1028 C1029 1.386 . S
C1028 C1030 1.391 . S
C1029 C1028 1.386 . S
C1029 C1033 1.393 . S
C1030 H1022 0.950 . S
C1030 C1028 1.391 . S
C1030 C1031 1.400 . S
C1031 C1030 1.400 . S
C1031 C1032 1.398 . S
C1031 C1037 1.491 . S
C1032 H1023 0.950 . S
C1032 C1031 1.398 . S
C1032 C1033 1.391 . S
C1033 H1021 0.950 . S
C1033 C1029 1.393 . S
C1033 C1032 1.391 . S
C1034 H1024 0.950 . S
C1034 C1035 1.386 . S
C1034 C1036 1.391 . S
C1035 C1034 1.386 . S
C1035 C1039 1.393 . S
C1036 H1025 0.950 . S
C1036 C1034 1.391 . S
C1036 C1037 1.400 . S
C1037 C1031 1.491 . S
C1037 C1036 1.400 . S
C1037 C1038 1.398 . S
C1038 H1026 0.950 . S
C1038 C1037 1.398 . S
C1038 C1039 1.391 . S
C1039 H1027 0.950 . S
C1039 C1035 1.393 . S
C1039 C1038 1.391 . S
H1040 C1048 0.950 . S
H1041 C1053 0.950 . S
H1042 C1050 0.950 . S
H1043 C1052 0.950 . S
H1044 C1054 0.950 . S
H1045 C1056 0.950 . S
H1046 C1058 0.950 . S
H1047 C1059 0.950 . S
C1048 H1040 0.950 . S
C1048 C1049 1.386 . S
C1048 C1050 1.391 . S
C1049 C1048 1.386 . S
C1049 C1053 1.393 . S
C1050 H1042 0.950 . S
C1050 C1048 1.391 . S
C1050 C1051 1.400 . S
C1051 C1050 1.400 . S
C1051 C1052 1.398 . S
C1051 C1057 1.491 . S
C1052 H1043 0.950 . S
C1052 C1051 1.398 . S
C1052 C1053 1.391 . S
C1053 H1041 0.950 . S
C1053 C1049 1.393 . S
C1053 C1052 1.391 . S
C1054 H1044 0.950 . S
C1054 C1055 1.386 . S
C1054 C1056 1.391 . S
C1055 C1054 1.386 . S
C1055 C1059 1.393 . S
C1056 H1045 0.950 . S
C1056 C1054 1.391 . S
C1056 C1057 1.400 . S
C1057 C1051 1.491 . S
C1057 C1056 1.400 . S
C1057 C1058 1.398 . S
C1058 H1046 0.950 . S
C1058 C1057 1.398 . S
C1058 C1059 1.391 . S
C1059 H1047 0.950 . S
C1059 C1055 1.393 . S
C1059 C1058 1.391 . S
H1060 C1068 0.950 . S
H1061 C1073 0.950 . S
H1062 C1070 0.950 . S
H1063 C1072 0.950 . S
H1064 C1074 0.950 . S
H1065 C1076 0.950 . S
H1066 C1078 0.950 . S
H1067 C1079 0.950 . S
C1068 H1060 0.950 . S
C1068 C1069 1.386 . S
C1068 C1070 1.391 . S
C1069 C1068 1.386 . S
C1069 C1073 1.393 . S
C1070 H1062 0.950 . S
C1070 C1068 1.391 . S
C1070 C1071 1.400 . S
C1071 C1070 1.400 . S
C1071 C1072 1.398 . S
C1071 C1077 1.491 . S
C1072 H1063 0.950 . S
C1072 C1071 1.398 . S
C1072 C1073 1.391 . S
C1073 H1061 0.950 . S
C1073 C1069 1.393 . S
C1073 C1072 1.391 . S
C1074 H1064 0.950 . S
C1074 C1075 1.386 . S
C1074 C1076 1.391 . S
C1075 C1074 1.386 . S
C1075 C1079 1.393 . S
C1076 H1065 0.950 . S
C1076 C1074 1.391 . S
C1076 C1077 1.400 . S
C1077 C1071 1.491 . S
C1077 C1076 1.400 . S
C1077 C1078 1.398 . S
C1078 H1066 0.950 . S
C1078 C1077 1.398 . S
C1078 C1079 1.391 . S
C1079 H1067 0.950 . S
C1079 C1075 1.393 . S
C1079 C1078 1.391 . S
H1080 C1088 0.950 . S
H1081 C1093 0.950 . S
H1082 C1090 0.950 . S
H1083 C1092 0.950 . S
H1084 C1094 0.950 . S
H1085 C1096 0.950 . S
H1086 C1098 0.950 . S
H1087 C1099 0.950 . S
C1088 H1080 0.950 . S
C1088 C1089 1.386 . S
C1088 C1090 1.391 . S
C1089 C1088 1.386 . S
C1089 C1093 1.393 . S
C1090 H1082 0.950 . S
C1090 C1088 1.391 . S
C1090 C1091 1.400 . S
C1091 C1090 1.400 . S
C1091 C1092 1.398 . S
C1091 C1097 1.491 . S
C1092 H1083 0.950 . S
C1092 C1091 1.398 . S
C1092 C1093 1.391 . S
C1093 H1081 0.950 . S
C1093 C1089 1.393 . S
C1093 C1092 1.391 . S
C1094 H1084 0.950 . S
C1094 C1095 1.386 . S
C1094 C1096 1.391 . S
C1095 C1094 1.386 . S
C1095 C1099 1.393 . S
C1096 H1085 0.950 . S
C1096 C1094 1.391 . S
C1096 C1097 1.400 . S
C1097 C1091 1.491 . S
C1097 C1096 1.400 . S
C1097 C1098 1.398 . S
C1098 H1086 0.950 . S
C1098 C1097 1.398 . S
C1098 C1099 1.391 . S
C1099 H1087 0.950 . S
C1099 C1095 1.393 . S
C1099 C1098 1.391 . S
H1100 C1108 0.950 . S
H1101 C1113 0.950 . S
H1102 C1110 0.950 . S
H1103 C1112 0.950 . S
H1104 C1114 0.950 . S
H1105 C1116 0.950 . S
H1106 C1118 0.950 . S
H1107 C1119 0.950 . S
C1108 H1100 0.950 . S
C1108 C1109 1.386 . S
C1108 C1110 1.391 . S
C1109 C1108 1.386 . S
C1109 C1113 1.393 . S
C1110 H1102 0.950 . S
C1110 C1108 1.391 . S
C1110 C1111 1.400 . S
C1111 C1110 1.400 . S
C1111 C1112 1.398 . S
C1111 C1117 1.491 . S
C1112 H1103 0.950 . S
C1112 C1111 1.398 . S
C1112 C1113 1.391 . S
C1113 H1101 0.950 . S
C1113 C1109 1.393 . S
C1113 C1112 1.391 . S
C1114 H1104 0.950 . S
C1114 C1115 1.386 . S
C1114 C1116 1.391 . S
C1115 C1114 1.386 . S
C1115 C1119 1.393 . S
C1116 H1105 0.950 . S
C1116 C1114 1.391 . S
C1116 C1117 1.400 . S
C1117 C1111 1.491 . S
C1117 C1116 1.400 . S
C1117 C1118 1.398 . S
C1118 H1106 0.950 . S
C1118 C1117 1.398 . S
C1118 C1119 1.391 . S
C1119 H1107 0.950 . S
C1119 C1115 1.393 . S
C1119 C1118 1.391 . S
H1120 C1128 0.950 . S
H1121 C1133 0.950 . S
H1122 C1130 0.950 . S
H1123 C1132 0.950 . S
H1124 C1134 0.950 1_554 S
H1125 C1136 0.950 . S
H1126 C1138 0.950 . S
H1127 C1139 0.950 . S
C1128 H1120 0.950 . S
C1128 C1129 1.386 . S
C1128 C1130 1.391 . S
C1129 C1128 1.386 . S
C1129 C1133 1.393 . S
C1130 H1122 0.950 . S
C1130 C1128 1.391 . S
C1130 C1131 1.400 . S
C1131 C1130 1.400 . S
C1131 C1132 1.398 . S
C1131 C1137 1.491 . S
C1132 H1123 0.950 . S
C1132 C1131 1.398 . S
C1132 C1133 1.391 . S
C1133 H1121 0.950 . S
C1133 C1129 1.393 . S
C1133 C1132 1.391 . S
C1134 H1124 0.950 1_556 S
C1134 C1135 1.386 . S
C1134 C1136 1.391 . S
C1135 C1134 1.386 . S
C1135 C1139 1.393 . S
C1136 H1125 0.950 . S
C1136 C1134 1.391 . S
C1136 C1137 1.400 . S
C1137 C1131 1.491 . S
C1137 C1136 1.400 . S
C1137 C1138 1.398 . S
C1138 H1126 0.950 . S
C1138 C1137 1.398 . S
C1138 C1139 1.391 . S
C1139 H1127 0.950 . S
C1139 C1135 1.393 . S
C1139 C1138 1.391 . S
H1140 C1148 0.950 . S
H1141 C1153 0.950 . S
H1142 C1150 0.950 . S
H1143 C1152 0.950 . S
H1144 C1154 0.950 . S
H1145 C1156 0.950 . S
H1146 C1158 0.950 . S
H1147 C1159 0.950 . S
C1148 H1140 0.950 . S
C1148 C1149 1.386 . S
C1148 C1150 1.391 . S
C1149 C1148 1.386 . S
C1149 C1153 1.393 . S
C1150 H1142 0.950 . S
C1150 C1148 1.391 . S
C1150 C1151 1.400 . S
C1151 C1150 1.400 . S
C1151 C1152 1.398 . S
C1151 C1157 1.491 . S
C1152 H1143 0.950 . S
C1152 C1151 1.398 . S
C1152 C1153 1.391 . S
C1153 H1141 0.950 . S
C1153 C1149 1.393 . S
C1153 C1152 1.391 . S
C1154 H1144 0.950 . S
C1154 C1155 1.386 . S
C1154 C1156 1.391 . S
C1155 C1154 1.386 . S
C1155 C1159 1.393 . S
C1156 H1145 0.950 . S
C1156 C1154 1.391 . S
C1156 C1157 1.400 . S
C1157 C1151 1.491 . S
C1157 C1156 1.400 . S
C1157 C1158 1.398 . S
C1158 H1146 0.950 . S
C1158 C1157 1.398 . S
C1158 C1159 1.391 . S
C1159 H1147 0.950 . S
C1159 C1155 1.393 . S
C1159 C1158 1.391 . S
H1160 C1168 0.950 . S
H1161 C1173 0.950 . S
H1162 C1170 0.950 . S
H1163 C1172 0.950 . S
H1164 C1174 0.950 . S
H1165 C1176 0.950 . S
H1166 C1178 0.950 . S
H1167 C1179 0.950 . S
C1168 H1160 0.950 . S
C1168 C1169 1.386 . S
C1168 C1170 1.391 . S
C1169 C1168 1.386 . S
C1169 C1173 1.393 . S
C1170 H1162 0.950 . S
C1170 C1168 1.391 . S
C1170 C1171 1.400 . S
C1171 C1170 1.400 . S
C1171 C1172 1.398 . S
C1171 C1177 1.491 . S
C1172 H1163 0.950 . S
C1172 C1171 1.398 . S
C1172 C1173 1.391 . S
C1173 H1161 0.950 . S
C1173 C1169 1.393 . S
C1173 C1172 1.391 . S
C1174 H1164 0.950 . S
C1174 C1175 1.386 . S
C1174 C1176 1.391 . S
C1175 C1174 1.386 . S
C1175 C1179 1.393 . S
C1176 H1165 0.950 . S
C1176 C1174 1.391 . S
C1176 C1177 1.400 . S
C1177 C1171 1.491 . S
C1177 C1176 1.400 . S
C1177 C1178 1.398 . S
C1178 H1166 0.950 . S
C1178 C1177 1.398 . S
C1178 C1179 1.391 . S
C1179 H1167 0.950 . S
C1179 C1175 1.393 . S
C1179 C1178 1.391 . S
H1180 C1188 0.950 1_556 S
H1181 C1193 0.950 . S
H1182 C1190 0.950 . S
H1183 C1192 0.950 . S
H1184 C1194 0.950 . S
H1185 C1196 0.950 . S
H1186 C1198 0.950 . S
H1187 C1199 0.950 . S
C1188 H1180 0.950 1_554 S
C1188 C1189 1.386 . S
C1188 C1190 1.391 . S
C1189 C1188 1.386 . S
C1189 C1193 1.393 . S
C1190 H1182 0.950 . S
C1190 C1188 1.391 . S
C1190 C1191 1.400 . S
C1191 C1190 1.400 . S
C1191 C1192 1.398 . S
C1191 C1197 1.491 . S
C1192 H1183 0.950 . S
C1192 C1191 1.398 . S
C1192 C1193 1.391 . S
C1193 H1181 0.950 . S
C1193 C1189 1.393 . S
C1193 C1192 1.391 . S
C1194 H1184 0.950 . S
C1194 C1195 1.386 . S
C1194 C1196 1.391 . S
C1195 C1194 1.386 . S
C1195 C1199 1.393 . S
C1196 H1185 0.950 . S
C1196 C1194 1.391 . S
C1196 C1197 1.400 . S
C1197 C1191 1.491 . S
C1197 C1196 1.400 . S
C1197 C1198 1.398 . S
C1198 H1186 0.950 . S
C1198 C1197 1.398 . S
C1198 C1199 1.391 . S
C1199 H1187 0.950 . S
C1199 C1195 1.393 . S
C1199 C1198 1.391 . S
H1200 C1208 0.950 . S
H1201 C1213 0.950 . S
H1202 C1210 0.950 . S
H1203 C1212 0.950 . S
H1204 C1214 0.950 . S
H1205 C1216 0.950 . S
H1206 C1218 0.950 . S
H1207 C1219 0.950 . S
C1208 H1200 0.950 . S
C1208 C1209 1.386 . S
C1208 C1210 1.391 . S
C1209 C1208 1.386 . S
C1209 C1213 1.393 . S
C1210 H1202 0.950 . S
C1210 C1208 1.391 . S
C1210 C1211 1.400 . S
C1211 C1210 1.400 . S
C1211 C1212 1.398 . S
C1211 C1217 1.491 . S
C1212 H1203 0.950 . S
C1212 C1211 1.398 . S
C1212 C1213 1.391 . S
C1213 H1201 0.950 . S
C1213 C1209 1.393 . S
C1213 C1212 1.391 . S
C1214 H1204 0.950 . S
C1214 C1215 1.386 . S
C1214 C1216 1.391 . S
C1215 C1214 1.386 . S
C1215 C1219 1.393 . S
C1216 H1205 0.950 . S
C1216 C1214 1.391 . S
C1216 C1217 1.400 . S
C1217 C1211 1.491 . S
C1217 C1216 1.400 . S
C1217 C1218 1.398 . S
C1218 H1206 0.950 . S
C1218 C1217 1.398 . S
C1218 C1219 1.391 . S
C1219 H1207 0.950 . S
C1219 C1215 1.393 . S
C1219 C1218 1.391 . S
H1220 C1228 0.950 . S
H1221 C1233 0.950 . S
H1222 C1230 0.950 . S
H1223 C1232 0.950 . S
H1224 C1234 0.950 . S
H1225 C1236 0.950 . S
H1226 C1238 0.950 . S
H1227 C1239 0.950 . S
C1228 H1220 0.950 . S
C1228 C1229 1.386 . S
C1228 C1230 1.391 . S
C1229 C1228 1.386 . S
C1229 C1233 1.393 . S
C1230 H1222 0.950 . S
C1230 C1228 1.391 . S
C1230 C1231 1.400 . S
C1231 C1230 1.400 . S
C1231 C1232 1.398 . S
C1231 C1237 1.491 . S
C1232 H1223 0.950 . S
C1232 C1231 1.398 . S
C1232 C1233 1.391 . S
C1233 H1221 0.950 . S
C1233 C1229 1.393 . S
C1233 C1232 1.391 . S
C1234 H1224 0.950 . S
C1234 C1235 1.386 . S
C1234 C1236 1.391 . S
C1235 C1234 1.386 . S
C1235 C1239 1.393 . S
C1236 H1225 0.950 . S
C1236 C1234 1.391 . S
C1236 C1237 1.400 . S
C1237 C1231 1.491 . S
C1237 C1236 1.400 . S
C1237 C1238 1.398 . S
C1238 H1226 0.950 . S
C1238 C1237 1.398 . S
C1238 C1239 1.391 . S
C1239 H1227 0.950 . S
C1239 C1235 1.393 . S
C1239 C1238 1.391 . S
H1240 C1248 0.950 . S
H1241 C1253 0.950 . S
H1242 C1250 0.950 . S
H1243 C1252 0.950 . S
H1244 C1254 0.950 . S
H1245 C1256 0.950 . S
H1246 C1258 0.950 . S
H1247 C1259 0.950 . S
C1248 H1240 0.950 . S
C1248 C1249 1.386 . S
C1248 C1250 1.391 . S
C1249 C1248 1.386 . S
C1249 C1253 1.393 . S
C1250 H1242 0.950 . S
C1250 C1248 1.391 . S
C1250 C1251 1.400 . S
C1251 C1250 1.400 . S
C1251 C1252 1.398 . S
C1251 C1257 1.491 . S
C1252 H1243 0.950 . S
C1252 C1251 1.398 . S
C1252 C1253 1.391 . S
C1253 H1241 0.950 . S
C1253 C1249 1.393 . S
C1253 C1252 1.391 . S
C1254 H1244 0.950 . S
C1254 C1255 1.386 . S
C1254 C1256 1.391 . S
C1255 C1254 1.386 . S
C1255 C1259 1.393 . S
C1256 H1245 0.950 . S
C1256 C1254 1.391 . S
C1256 C1257 1.400 . S
C1257 C1251 1.491 . S
C1257 C1256 1.400 . S
C1257 C1258 1.398 . S
C1258 H1246 0.950 . S
C1258 C1257 1.398 . S
C1258 C1259 1.391 . S
C1259 H1247 0.950 . S
C1259 C1255 1.393 . S
C1259 C1258 1.391 . S
H1260 C1268 0.950 . S
H1261 C1273 0.950 . S
H1262 C1270 0.950 . S
H1263 C1272 0.950 . S
H1264 C1274 0.950 . S
H1265 C1276 0.950 . S
H1266 C1278 0.950 . S
H1267 C1279 0.950 . S
C1268 H1260 0.950 . S
C1268 C1269 1.386 . S
C1268 C1270 1.391 . S
C1269 C1268 1.386 . S
C1269 C1273 1.393 . S
C1270 H1262 0.950 . S
C1270 C1268 1.391 . S
C1270 C1271 1.400 . S
C1271 C1270 1.400 . S
C1271 C1272 1.398 . S
C1271 C1277 1.491 . S
C1272 H1263 0.950 . S
C1272 C1271 1.398 . S
C1272 C1273 1.391 . S
C1273 H1261 0.950 . S
C1273 C1269 1.393 . S
C1273 C1272 1.391 . S
C1274 H1264 0.950 . S
C1274 C1275 1.386 . S
C1274 C1276 1.391 . S
C1275 C1274 1.386 . S
C1275 C1279 1.393 . S
C1276 H1265 0.950 . S
C1276 C1274 1.391 . S
C1276 C1277 1.400 . S
C1277 C1271 1.491 . S
C1277 C1276 1.400 . S
C1277 C1278 1.398 . S
C1278 H1266 0.950 . S
C1278 C1277 1.398 . S
C1278 C1279 1.391 . S
C1279 H1267 0.950 . S
C1279 C1275 1.393 . S
C1279 C1278 1.391 . S
H1280 C1288 0.950 . S
H1281 C1293 0.950 . S
H1282 C1290 0.950 . S
H1283 C1292 0.950 . S
H1284 C1294 0.950 . S
H1285 C1296 0.950 . S
H1286 C1298 0.950 . S
H1287 C1299 0.950 . S
C1288 H1280 0.950 . S
C1288 C1289 1.386 . S
C1288 C1290 1.391 . S
C1289 C1288 1.386 . S
C1289 C1293 1.393 . S
C1290 H1282 0.950 . S
C1290 C1288 1.391 . S
C1290 C1291 1.400 . S
C1291 C1290 1.400 . S
C1291 C1292 1.398 . S
C1291 C1297 1.491 . S
C1292 H1283 0.950 . S
C1292 C1291 1.398 . S
C1292 C1293 1.391 . S
C1293 H1281 0.950 . S
C1293 C1289 1.393 . S
C1293 C1292 1.391 . S
C1294 H1284 0.950 . S
C1294 C1295 1.386 . S
C1294 C1296 1.391 . S
C1295 C1294 1.386 . S
C1295 C1299 1.393 . S
C1296 H1285 0.950 . S
C1296 C1294 1.391 . S
C1296 C1297 1.400 . S
C1297 C1291 1.491 . S
C1297 C1296 1.400 . S
C1297 C1298 1.398 . S
C1298 H1286 0.950 . S
C1298 C1297 1.398 . S
C1298 C1299 1.391 . S
C1299 H1287 0.950 . S
C1299 C1295 1.393 . S
C1299 C1298 1.391 . S
H1300 C1308 0.950 . S
H1301 C1313 0.950 . S
H1302 C1310 0.950 . S
H1303 C1312 0.950 . S
H1304 C1314 0.950 . S
H1305 C1316 0.950 . S
H1306 C1318 0.950 . S
H1307 C1319 0.950 . S
C1308 H1300 0.950 . S
C1308 C1309 1.386 . S
C1308 C1310 1.391 . S
C1309 C1308 1.386 . S
C1309 C1313 1.393 . S
C1310 H1302 0.950 . S
C1310 C1308 1.391 . S
C1310 C1311 1.400 . S
C1311 C1310 1.400 . S
C1311 C1312 1.398 . S
C1311 C1317 1.491 . S
C1312 H1303 0.950 . S
C1312 C1311 1.398 . S
C1312 C1313 1.391 . S
C1313 H1301 0.950 . S
C1313 C1309 1.393 . S
C1313 C1312 1.391 . S
C1314 H1304 0.950 . S
C1314 C1315 1.386 . S
C1314 C1316 1.391 . S
C1315 C1314 1.386 . S
C1315 C1319 1.393 . S
C1316 H1305 0.950 . S
C1316 C1314 1.391 . S
C1316 C1317 1.400 . S
C1317 C1311 1.491 . S
C1317 C1316 1.400 . S
C1317 C1318 1.398 . S
C1318 H1306 0.950 . S
C1318 C1317 1.398 . S
C1318 C1319 1.391 . S
C1319 H1307 0.950 . S
C1319 C1315 1.393 . S
C1319 C1318 1.391 . S
H1320 C1328 0.950 . S
H1321 C1333 0.950 . S
H1322 C1330 0.950 . S
H1323 C1332 0.950 . S
H1324 C1334 0.950 . S
H1325 C1336 0.950 . S
H1326 C1338 0.950 . S
H1327 C1339 0.950 . S
C1328 H1320 0.950 . S
C1328 C1329 1.386 . S
C1328 C1330 1.391 . S
C1329 C1328 1.386 . S
C1329 C1333 1.393 . S
C1330 H1322 0.950 . S
C1330 C1328 1.391 . S
C1330 C1331 1.400 . S
C1331 C1330 1.400 . S
C1331 C1332 1.398 . S
C1331 C1337 1.491 . S
C1332 H1323 0.950 . S
C1332 C1331 1.398 . S
C1332 C1333 1.391 . S
C1333 H1321 0.950 . S
C1333 C1329 1.393 . S
C1333 C1332 1.391 . S
C1334 H1324 0.950 . S
C1334 C1335 1.386 . S
C1334 C1336 1.391 . S
C1335 C1334 1.386 . S
C1335 C1339 1.393 . S
C1336 H1325 0.950 . S
C1336 C1334 1.391 . S
C1336 C1337 1.400 . S
C1337 C1331 1.491 . S
C1337 C1336 1.400 . S
C1337 C1338 1.398 . S
C1338 H1326 0.950 . S
C1338 C1337 1.398 . S
C1338 C1339 1.391 . S
C1339 H1327 0.950 . S
C1339 C1335 1.393 . S
C1339 C1338 1.391 . S
H1340 C1348 0.950 . S
H1341 C1353 0.950 . S
H1342 C1350 0.950 . S
H1343 C1352 0.950 . S
H1344 C1354 0.950 . S
H1345 C1356 0.950 . S
H1346 C1358 0.950 . S
H1347 C1359 0.950 . S
C1348 H1340 0.950 . S
C1348 C1349 1.386 . S
C1348 C1350 1.391 . S
C1349 C1348 1.386 . S
C1349 C1353 1.393 . S
C1350 H1342 0.950 . S
C1350 C1348 1.391 . S
C1350 C1351 1.400 . S
C1351 C1350 1.400 . S
C1351 C1352 1.398 . S
C1351 C1357 1.491 . S
C1352 H1343 0.950 . S
C1352 C1351 1.398 . S
C1352 C1353 1.391 . S
C1353 H1341 0.950 . S
C1353 C1349 1.393 . S
C1353 C1352 1.391 . S
C1354 H1344 0.950 . S
C1354 C1355 1.386 . S
C1354 C1356 1.391 . S
C1355 C1354 1.386 . S
C1355 C1359 1.393 . S
C1356 H1345 0.950 . S
C1356 C1354 1.391 . S
C1356 C1357 1.400 . S
C1357 C1351 1.491 . S
C1357 C1356 1.400 . S
C1357 C1358 1.398 . S
C1358 H1346 0.950 . S
C1358 C1357 1.398 . S
C1358 C1359 1.391 . S
C1359 H1347 0.950 . S
C1359 C1355 1.393 . S
C1359 C1358 1.391 . S
H1360 C1368 0.950 . S
H1361 C1373 0.950 . S
H1362 C1370 0.950 . S
H1363 C1372 0.950 . S
H1364 C1374 0.950 . S
H1365 C1376 0.950 . S
H1366 C1378 0.950 . S
H1367 C1379 0.950 . S
C1368 H1360 0.950 . S
C1368 C1369 1.386 . S
C1368 C1370 1.391 . S
C1369 C1368 1.386 . S
C1369 C1373 1.393 . S
C1370 H1362 0.950 . S
C1370 C1368 1.391 . S
C1370 C1371 1.400 . S
C1371 C1370 1.400 . S
C1371 C1372 1.398 . S
C1371 C1377 1.491 . S
C1372 H1363 0.950 . S
C1372 C1371 1.398 . S
C1372 C1373 1.391 . S
C1373 H1361 0.950 . S
C1373 C1369 1.393 . S
C1373 C1372 1.391 . S
C1374 H1364 0.950 . S
C1374 C1375 1.386 . S
C1374 C1376 1.391 . S
C1375 C1374 1.386 . S
C1375 C1379 1.393 . S
C1376 H1365 0.950 . S
C1376 C1374 1.391 . S
C1376 C1377 1.400 . S
C1377 C1371 1.491 . S
C1377 C1376 1.400 . S
C1377 C1378 1.398 . S
C1378 H1366 0.950 . S
C1378 C1377 1.398 . S
C1378 C1379 1.391 . S
C1379 H1367 0.950 . S
C1379 C1375 1.393 . S
C1379 C1378 1.391 . S
H1380 C1388 0.950 . S
H1381 C1393 0.950 . S
H1382 C1390 0.950 . S
H1383 C1392 0.950 . S
H1384 C1394 0.950 . S
H1385 C1396 0.950 . S
H1386 C1398 0.950 . S
H1387 C1399 0.950 . S
C1388 H1380 0.950 . S
C1388 C1389 1.386 . S
C1388 C1390 1.391 . S
C1389 C1388 1.386 . S
C1389 C1393 1.393 . S
C1390 H1382 0.950 . S
C1390 C1388 1.391 . S
C1390 C1391 1.400 . S
C1391 C1390 1.400 . S
C1391 C1392 1.398 . S
C1391 C1397 1.491 . S
C1392 H1383 0.950 . S
C1392 C1391 1.398 . S
C1392 C1393 1.391 . S
C1393 H1381 0.950 . S
C1393 C1389 1.393 . S
C1393 C1392 1.391 . S
C1394 H1384 0.950 . S
C1394 C1395 1.386 . S
C1394 C1396 1.391 . S
C1395 C1394 1.386 . S
C1395 C1399 1.393 . S
C1396 H1385 0.950 . S
C1396 C1394 1.391 . S
C1396 C1397 1.400 . S
C1397 C1391 1.491 . S
C1397 C1396 1.400 . S
C1397 C1398 1.398 . S
C1398 H1386 0.950 . S
C1398 C1397 1.398 . S
C1398 C1399 1.391 . S
C1399 H1387 0.950 . S
C1399 C1395 1.393 . S
C1399 C1398 1.391 . S
H1400 C1408 0.950 . S
H1401 C1413 0.950 . S
H1402 C1410 0.950 . S
H1403 C1412 0.950 . S
H1404 C1414 0.950 . S
H1405 C1416 0.950 . S
H1406 C1418 0.950 . S
H1407 C1419 0.950 . S
C1408 H1400 0.950 . S
C1408 C1409 1.386 . S
C1408 C1410 1.391 . S
C1409 C1408 1.386 . S
C1409 C1413 1.393 . S
C1410 H1402 0.950 . S
C1410 C1408 1.391 . S
C1410 C1411 1.400 . S
C1411 C1410 1.400 . S
C1411 C1412 1.398 . S
C1411 C1417 1.491 . S
C1412 H1403 0.950 . S
C1412 C1411 1.398 . S
C1412 C1413 1.391 . S
C1413 H1401 0.950 . S
C1413 C1409 1.393 . S
C1413 C1412 1.391 . S
C1414 H1404 0.950 . S
C1414 C1415 1.386 . S
C1414 C1416 1.391 . S
C1415 C1414 1.386 . S
C1415 C1419 1.393 . S
C1416 H1405 0.950 . S
C1416 C1414 1.391 . S
C1416 C1417 1.400 . S
C1417 C1411 1.491 . S
C1417 C1416 1.400 . S
C1417 C1418 1.398 . S
C1418 H1406 0.950 . S
C1418 C1417 1.398 . S
C1418 C1419 1.391 . S
C1419 H1407 0.950 . S
C1419 C1415 1.393 . S
C1419 C1418 1.391 . S
H1420 C1428 0.950 . S
H1421 C1433 0.950 . S
H1422 C1430 0.950 . S
H1423 C1432 0.950 . S
H1424 C1434 0.950 . S
H1425 C1436 0.950 . S
H1426 C1438 0.950 . S
H1427 C1439 0.950 . S
C1428 H1420 0.950 . S
C1428 C1429 1.386 . S
C1428 C1430 1.391 . S
C1429 C1428 1.386 . S
C1429 C1433 1.393 . S
C1430 H1422 0.950 . S
C1430 C1428 1.391 . S
C1430 C1431 1.400 . S
C1431 C1430 1.400 . S
C1431 C1432 1.398 . S
C1431 C1437 1.491 . S
C1432 H1423 0.950 . S
C1432 C1431 1.398 . S
C1432 C1433 1.391 . S
C1433 H1421 0.950 . S
C1433 C1429 1.393 . S
C1433 C1432 1.391 . S
C1434 H1424 0.950 . S
C1434 C1435 1.386 . S
C1434 C1436 1.391 . S
C1435 C1434 1.386 . S
C1435 C1439 1.393 . S
C1436 H1425 0.950 . S
C1436 C1434 1.391 . S
C1436 C1437 1.400 . S
C1437 C1431 1.491 . S
C1437 C1436 1.400 . S
C1437 C1438 1.398 . S
C1438 H1426 0.950 . S
C1438 C1437 1.398 . S
C1438 C1439 1.391 . S
C1439 H1427 0.950 . S
C1439 C1435 1.393 . S
C1439 C1438 1.391 . S
H1440 C1448 0.950 . S
H1441 C1453 0.950 . S
H1442 C1450 0.950 . S
H1443 C1452 0.950 . S
H1444 C1454 0.950 . S
H1445 C1456 0.950 . S
H1446 C1458 0.950 . S
H1447 C1459 0.950 . S
C1448 H1440 0.950 . S
C1448 C1449 1.386 1_554 S
C1448 C1450 1.391 . S
C1449 C1448 1.386 1_556 S
C1449 C1453 1.393 1_556 S
C1450 H1442 0.950 . S
C1450 C1448 1.391 . S
C1450 C1451 1.400 . S
C1451 C1450 1.400 . S
C1451 C1452 1.398 . S
C1451 C1457 1.491 . S
C1452 H1443 0.950 . S
C1452 C1451 1.398 . S
C1452 C1453 1.391 . S
C1453 H1441 0.950 . S
C1453 C1449 1.393 1_554 S
C1453 C1452 1.391 . S
C1454 H1444 0.950 . S
C1454 C1455 1.386 . S
C1454 C1456 1.391 . S
C1455 C1454 1.386 . S
C1455 C1459 1.393 . S
C1456 H1445 0.950 . S
C1456 C1454 1.391 . S
C1456 C1457 1.400 . S
C1457 C1451 1.491 . S
C1457 C1456 1.400 . S
C1457 C1458 1.398 . S
C1458 H1446 0.950 . S
C1458 C1457 1.398 . S
C1458 C1459 1.391 . S
C1459 H1447 0.950 . S
C1459 C1455 1.393 . S
C1459 C1458 1.391 . S
H1460 C1468 0.950 . S
H1461 C1473 0.950 . S
H1462 C1470 0.950 . S
H1463 C1472 0.950 . S
H1464 C1474 0.950 1_554 S
H1465 C1476 0.950 . S
H1466 C1478 0.950 . S
H1467 C1479 0.950 . S
C1468 H1460 0.950 . S
C1468 C1469 1.386 . S
C1468 C1470 1.391 . S
C1469 C1468 1.386 . S
C1469 C1473 1.393 . S
C1470 H1462 0.950 . S
C1470 C1468 1.391 . S
C1470 C1471 1.400 . S
C1471 C1470 1.400 . S
C1471 C1472 1.398 . S
C1471 C1477 1.491 . S
C1472 H1463 0.950 . S
C1472 C1471 1.398 . S
C1472 C1473 1.391 . S
C1473 H1461 0.950 . S
C1473 C1469 1.393 . S
C1473 C1472 1.391 . S
C1474 H1464 0.950 1_556 S
C1474 C1475 1.386 1_556 S
C1474 C1476 1.391 . S
C1475 C1474 1.386 1_554 S
C1475 C1479 1.393 1_554 S
C1476 H1465 0.950 . S
C1476 C1474 1.391 . S
C1476 C1477 1.400 . S
C1477 C1471 1.491 . S
C1477 C1476 1.400 . S
C1477 C1478 1.398 . S
C1478 H1466 0.950 . S
C1478 C1477 1.398 . S
C1478 C1479 1.391 . S
C1479 H1467 0.950 . S
C1479 C1475 1.393 1_556 S
C1479 C1478 1.391 . S
H1480 C1488 0.950 . S
H1481 C1493 0.950 . S
H1482 C1490 0.950 . S
H1483 C1492 0.950 . S
H1484 C1494 0.950 . S
H1485 C1496 0.950 . S
H1486 C1498 0.950 . S
H1487 C1499 0.950 1_556 S
C1488 H1480 0.950 . S
C1488 C1489 1.386 . S
C1488 C1490 1.391 . S
C1489 C1488 1.386 . S
C1489 C1493 1.393 . S
C1490 H1482 0.950 . S
C1490 C1488 1.391 . S
C1490 C1491 1.400 . S
C1491 C1490 1.400 . S
C1491 C1492 1.398 . S
C1491 C1497 1.491 . S
C1492 H1483 0.950 . S
C1492 C1491 1.398 . S
C1492 C1493 1.391 . S
C1493 H1481 0.950 . S
C1493 C1489 1.393 . S
C1493 C1492 1.391 . S
C1494 H1484 0.950 . S
C1494 C1495 1.386 1_554 S
C1494 C1496 1.391 . S
C1495 C1494 1.386 1_556 S
C1495 C1499 1.393 1_556 S
C1496 H1485 0.950 . S
C1496 C1494 1.391 . S
C1496 C1497 1.400 . S
C1497 C1491 1.491 . S
C1497 C1496 1.400 . S
C1497 C1498 1.398 . S
C1498 H1486 0.950 . S
C1498 C1497 1.398 . S
C1498 C1499 1.391 . S
C1499 H1487 0.950 1_554 S
C1499 C1495 1.393 1_554 S
C1499 C1498 1.391 . S
H1500 C1508 0.950 . S
H1501 C1513 0.943 1_554 S
H1502 C1510 0.950 . S
H1503 C1512 0.950 . S
H1504 C1514 0.950 . S
H1505 C1516 0.950 . S
H1506 C1518 0.950 . S
H1507 C1519 0.950 . S
C1508 H1500 0.950 . S
C1508 C1509 1.386 1_556 S
C1508 C1510 1.391 . S
C1509 C1508 1.386 1_554 S
C1509 C1513 1.393 1_554 S
C1510 H1502 0.950 . S
C1510 C1508 1.391 . S
C1510 C1511 1.400 . S
C1511 C1510 1.400 . S
C1511 C1512 1.398 . S
C1511 C1517 1.491 . S
C1512 H1503 0.950 . S
C1512 C1511 1.398 . S
C1512 C1513 1.391 . S
C1513 H1501 0.943 1_556 S
C1513 C1509 1.393 1_556 S
C1513 C1512 1.391 . S
C1514 H1504 0.950 . S
C1514 C1515 1.386 . S
C1514 C1516 1.391 . S
C1515 C1514 1.386 . S
C1515 C1519 1.393 . S
C1516 H1505 0.950 . S
C1516 C1514 1.391 . S
C1516 C1517 1.400 . S
C1517 C1511 1.491 . S
C1517 C1516 1.400 . S
C1517 C1518 1.398 . S
C1518 H1506 0.950 . S
C1518 C1517 1.398 . S
C1518 C1519 1.391 . S
C1519 H1507 0.950 . S
C1519 C1515 1.393 . S
C1519 C1518 1.391 . S
H1520 C1528 0.950 . S
H1521 C1533 0.950 . S
H1522 C1530 0.950 . S
H1523 C1532 0.950 . S
H1524 C1534 0.950 1_556 S
H1525 C1536 0.950 . S
H1526 C1538 0.950 . S
H1527 C1539 0.950 . S
C1528 H1520 0.950 . S
C1528 C1529 1.386 . S
C1528 C1530 1.391 . S
C1529 C1528 1.386 . S
C1529 C1533 1.393 . S
C1530 H1522 0.950 . S
C1530 C1528 1.391 . S
C1530 C1531 1.400 . S
C1531 C1530 1.400 . S
C1531 C1532 1.398 . S
C1531 C1537 1.491 . S
C1532 H1523 0.950 . S
C1532 C1531 1.398 . S
C1532 C1533 1.391 . S
C1533 H1521 0.950 . S
C1533 C1529 1.393 . S
C1533 C1532 1.391 . S
C1534 H1524 0.950 1_554 S
C1534 C1535 1.386 1_554 S
C1534 C1536 1.391 . S
C1535 C1534 1.386 1_556 S
C1535 C1539 1.393 1_556 S
C1536 H1525 0.950 . S
C1536 C1534 1.391 . S
C1536 C1537 1.400 . S
C1537 C1531 1.491 . S
C1537 C1536 1.400 . S
C1537 C1538 1.398 . S
C1538 H1526 0.950 . S
C1538 C1537 1.398 . S
C1538 C1539 1.391 . S
C1539 H1527 0.950 . S
C1539 C1535 1.393 1_554 S
C1539 C1538 1.391 . S
H1540 C1548 0.943 1_554 S
H1541 C1553 0.950 1_554 S
H1542 C1550 0.950 . S
H1543 C1552 0.950 . S
H1544 C1554 0.950 . S
H1545 C1556 0.950 . S
H1546 C1558 0.950 . S
H1547 C1559 0.950 . S
C1548 H1540 0.943 1_556 S
C1548 C1549 1.386 1_556 S
C1548 C1550 1.391 . S
C1549 C1548 1.386 1_554 S
C1549 C1553 1.393 1_554 S
C1550 H1542 0.950 . S
C1550 C1548 1.391 . S
C1550 C1551 1.400 . S
C1551 C1550 1.400 . S
C1551 C1552 1.398 . S
C1551 C1557 1.491 . S
C1552 H1543 0.950 . S
C1552 C1551 1.398 . S
C1552 C1553 1.391 . S
C1553 H1541 0.950 1_556 S
C1553 C1549 1.393 1_556 S
C1553 C1552 1.391 . S
C1554 H1544 0.950 . S
C1554 C1555 1.386 . S
C1554 C1556 1.391 . S
C1555 C1554 1.386 . S
C1555 C1559 1.393 . S
C1556 H1545 0.950 . S
C1556 C1554 1.391 . S
C1556 C1557 1.400 . S
C1557 C1551 1.491 . S
C1557 C1556 1.400 . S
C1557 C1558 1.398 . S
C1558 H1546 0.950 . S
C1558 C1557 1.398 . S
C1558 C1559 1.391 . S
C1559 H1547 0.950 . S
C1559 C1555 1.393 . S
C1559 C1558 1.391 . S
H1560 C1568 0.950 . S
H1561 C1573 0.950 1_556 S
H1562 C1570 0.950 . S
H1563 C1572 0.950 . S
H1564 C1574 0.950 . S
H1565 C1576 0.950 . S
H1566 C1578 0.950 . S
H1567 C1579 0.950 . S
C1568 H1560 0.950 . S
C1568 C1569 1.386 1_554 S
C1568 C1570 1.391 . S
C1569 C1568 1.386 1_556 S
C1569 C1573 1.393 1_556 S
C1570 H1562 0.950 . S
C1570 C1568 1.391 . S
C1570 C1571 1.400 . S
C1571 C1570 1.400 . S
C1571 C1572 1.398 . S
C1571 C1577 1.491 . S
C1572 H1563 0.950 . S
C1572 C1571 1.398 . S
C1572 C1573 1.391 . S
C1573 H1561 0.950 1_554 S
C1573 C1569 1.393 1_554 S
C1573 C1572 1.391 . S
C1574 H1564 0.950 . S
C1574 C1575 1.386 . S
C1574 C1576 1.391 . S
C1575 C1574 1.386 . S
C1575 C1579 1.393 . S
C1576 H1565 0.950 . S
C1576 C1574 1.391 . S
C1576 C1577 1.400 . S
C1577 C1571 1.491 . S
C1577 C1576 1.400 . S
C1577 C1578 1.398 . S
C1578 H1566 0.950 . S
C1578 C1577 1.398 . S
C1578 C1579 1.391 . S
C1579 H1567 0.950 . S
C1579 C1575 1.393 . S
C1579 C1578 1.391 . S
H1580 C1588 0.950 . S
H1581 C1593 0.950 . S
H1582 C1590 0.950 . S
H1583 C1592 0.950 . S
H1584 C1594 0.950 1_554 S
H1585 C1596 0.950 . S
H1586 C1598 0.950 . S
H1587 C1599 0.950 . S
C1588 H1580 0.950 . S
C1588 C1589 1.386 . S
C1588 C1590 1.391 . S
C1589 C1588 1.386 . S
C1589 C1593 1.393 . S
C1590 H1582 0.950 . S
C1590 C1588 1.391 . S
C1590 C1591 1.400 . S
C1591 C1590 1.400 . S
C1591 C1592 1.398 . S
C1591 C1597 1.491 . S
C1592 H1583 0.950 . S
C1592 C1591 1.398 . S
C1592 C1593 1.391 . S
C1593 H1581 0.950 . S
C1593 C1589 1.393 . S
C1593 C1592 1.391 . S
C1594 H1584 0.950 1_556 S
C1594 C1595 1.386 1_556 S
C1594 C1596 1.391 . S
C1595 C1594 1.386 1_554 S
C1595 C1599 1.393 1_554 S
C1596 H1585 0.950 . S
C1596 C1594 1.391 . S
C1596 C1597 1.400 . S
C1597 C1591 1.491 . S
C1597 C1596 1.400 . S
C1597 C1598 1.398 . S
C1598 H1586 0.950 . S
C1598 C1597 1.398 . S
C1598 C1599 1.391 . S
C1599 H1587 0.950 . S
C1599 C1595 1.393 1_556 S
C1599 C1598 1.391 . S
C649 C451 1.709 . S
C655 C19 1.717 . S
C669 C322 1.708 . S
C675 C50 1.718 . S
C689 C99 1.723 . S
C695 C371 1.710 . S
C709 C130 1.719 . S
C715 C402 1.708 . S
C729 C179 1.718 . S
C735 C211 1.708 . S
C749 C242 1.714 . S
C755 C210 1.719 . S
C769 C259 1.717 . S
C775 C291 1.710 . S
C789 C162 1.725 . S
C795 C290 1.730 . S
C809 C131 1.709 . S
C815 C339 1.717 . S
C829 C370 1.719 . S
C835 C2 1.708 . S
C849 C51 1.714 . S
C855 C419 1.719 . S
C869 C82 1.710 . S
C875 C450 1.723 . S
C889 C499 1.726 . S
C895 C531 1.722 . S
C909 C562 1.719 . S
C915 C530 1.723 . S
C929 C611 1.708 . S
C935 C579 1.719 . S
C949 C610 1.719 . S
C955 C482 1.714 . S
C969 C10 1.195 . S
C975 C170 1.190 . S
C989 C219 1.156 . S
C995 C59 1.160 . S
C1009 C90 1.162 . S
C1015 C250 1.157 . S
C1029 C139 1.181 . S
C1035 C299 1.170 . S
C1049 C330 1.194 . S
C1055 C490 1.189 . S
C1069 C539 1.192 . S
C1075 C379 1.195 . S
C1089 C410 1.176 . S
C1095 C570 1.165 . S
C1109 C459 1.183 . S
C1115 C619 1.171 . S
C1129 C571 2.297 . S
C1135 C11 2.294 1_556 S
C1149 C42 2.286 1_554 S
C1155 C602 2.286 . S
C1169 C91 2.297 1_556 S
C1175 C491 2.297 . S
C1189 C122 2.288 1_554 S
C1195 C522 2.292 . S
C1209 C171 2.286 . S
C1215 C411 2.286 . S
C1229 C202 2.286 . S
C1235 C442 2.287 . S
C1249 C251 2.294 . S
C1255 C331 2.297 . S
C1269 C362 2.286 . S
C1275 C282 2.287 . S
C1289 C7 1.091 . S
C1295 C16 1.091 . S
C1309 C56 1.081 . S
C1315 C47 1.081 . S
C1329 C87 1.081 . S
C1335 C96 1.081 . S
C1349 C127 1.091 . S
C1355 C136 1.091 . S
C1369 C176 1.083 . S
C1375 C167 1.083 . S
C1389 C216 1.084 . S
C1395 C207 1.084 . S
C1409 C247 1.088 . S
C1415 C256 1.088 . S
C1429 C287 1.090 . S
C1435 C296 1.090 . S
C1449 C327 1.081 . S
C1455 C336 1.081 . S
C1469 C367 1.087 . S
C1475 C376 1.087 . S
C1489 C416 1.091 . S
C1495 C407 1.091 . S
C1509 C456 1.091 . S
C1515 C447 1.091 . S
C1529 C487 1.091 . S
C1535 C496 1.091 . S
C1549 C527 1.090 . S
C1555 C536 1.090 . S
C1569 C576 1.087 . S
C1575 C567 1.087 . S
C1589 C616 1.090 . S
C1595 C607 1.090 . S
