# Generated by pormake.
# Topology lcy-e, (6)-cn, num edge types: 1
# Building blocks:
#     Node 0, Type 0, BuildingBlock: MIFKUJ_clean_sbu_0, # of connection points: 6
#     Node 1, Type 0, BuildingBlock: MIFKUJ_clean_sbu_0, # of connection points: 6
#     Node 2, Type 0, BuildingBlock: MIFKUJ_clean_sbu_0, # of connection points: 6
#     Node 3, Type 0, BuildingBlock: MIFKUJ_clean_sbu_0, # of connection points: 6
#     Node 4, Type 0, BuildingBlock: MIFKUJ_clean_sbu_0, # of connection points: 6
#     Node 5, Type 0, BuildingBlock: MIFKUJ_clean_sbu_0, # of connection points: 6
#     Node 6, Type 0, BuildingBlock: MIFKUJ_clean_sbu_0, # of connection points: 6
#     Node 7, Type 0, BuildingBlock: MIFKUJ_clean_sbu_0, # of connection points: 6
#     Node 8, Type 0, BuildingBlock: MIFKUJ_clean_sbu_0, # of connection points: 6
#     Node 9, Type 0, BuildingBlock: MIFKUJ_clean_sbu_0, # of connection points: 6
#     Node 10, Type 0, BuildingBlock: MIFKUJ_clean_sbu_0, # of connection points: 6
#     Node 11, Type 0, BuildingBlock: MIFKUJ_clean_sbu_0, # of connection points: 6
#     Edge 12, Type (0, 0), BuildingBlock: CIFDUS_clean_linker_0, # of connection points: 2
#     Edge 13, Type (0, 0), BuildingBlock: CIFDUS_clean_linker_0, # of connection points: 2
#     Edge 14, Type (0, 0), BuildingBlock: CIFDUS_clean_linker_0, # of connection points: 2
#     Edge 15, Type (0, 0), BuildingBlock: CIFDUS_clean_linker_0, # of connection points: 2
#     Edge 16, Type (0, 0), BuildingBlock: CIFDUS_clean_linker_0, # of connection points: 2
#     Edge 17, Type (0, 0), BuildingBlock: CIFDUS_clean_linker_0, # of connection points: 2
#     Edge 18, Type (0, 0), BuildingBlock: CIFDUS_clean_linker_0, # of connection points: 2
#     Edge 19, Type (0, 0), BuildingBlock: CIFDUS_clean_linker_0, # of connection points: 2
#     Edge 20, Type (0, 0), BuildingBlock: CIFDUS_clean_linker_0, # of connection points: 2
#     Edge 21, Type (0, 0), BuildingBlock: CIFDUS_clean_linker_0, # of connection points: 2
#     Edge 22, Type (0, 0), BuildingBlock: CIFDUS_clean_linker_0, # of connection points: 2
#     Edge 23, Type (0, 0), BuildingBlock: CIFDUS_clean_linker_0, # of connection points: 2
#     Edge 24, Type (0, 0), BuildingBlock: CIFDUS_clean_linker_0, # of connection points: 2
#     Edge 25, Type (0, 0), BuildingBlock: CIFDUS_clean_linker_0, # of connection points: 2
#     Edge 26, Type (0, 0), BuildingBlock: CIFDUS_clean_linker_0, # of connection points: 2
#     Edge 27, Type (0, 0), BuildingBlock: CIFDUS_clean_linker_0, # of connection points: 2
#     Edge 28, Type (0, 0), BuildingBlock: CIFDUS_clean_linker_0, # of connection points: 2
#     Edge 29, Type (0, 0), BuildingBlock: CIFDUS_clean_linker_0, # of connection points: 2
#     Edge 30, Type (0, 0), BuildingBlock: CIFDUS_clean_linker_0, # of connection points: 2
#     Edge 31, Type (0, 0), BuildingBlock: CIFDUS_clean_linker_0, # of connection points: 2
#     Edge 32, Type (0, 0), BuildingBlock: CIFDUS_clean_linker_0, # of connection points: 2
#     Edge 33, Type (0, 0), BuildingBlock: CIFDUS_clean_linker_0, # of connection points: 2
#     Edge 34, Type (0, 0), BuildingBlock: CIFDUS_clean_linker_0, # of connection points: 2
#     Edge 35, Type (0, 0), BuildingBlock: CIFDUS_clean_linker_0, # of connection points: 2
#     Edge 36, Type (0, 0), BuildingBlock: CIFDUS_clean_linker_0, # of connection points: 2
#     Edge 37, Type (0, 0), BuildingBlock: CIFDUS_clean_linker_0, # of connection points: 2
#     Edge 38, Type (0, 0), BuildingBlock: CIFDUS_clean_linker_0, # of connection points: 2
#     Edge 39, Type (0, 0), BuildingBlock: CIFDUS_clean_linker_0, # of connection points: 2
#     Edge 40, Type (0, 0), BuildingBlock: CIFDUS_clean_linker_0, # of connection points: 2
#     Edge 41, Type (0, 0), BuildingBlock: CIFDUS_clean_linker_0, # of connection points: 2
#     Edge 42, Type (0, 0), BuildingBlock: CIFDUS_clean_linker_0, # of connection points: 2
#     Edge 43, Type (0, 0), BuildingBlock: CIFDUS_clean_linker_0, # of connection points: 2
#     Edge 44, Type (0, 0), BuildingBlock: CIFDUS_clean_linker_0, # of connection points: 2
#     Edge 45, Type (0, 0), BuildingBlock: CIFDUS_clean_linker_0, # of connection points: 2
#     Edge 46, Type (0, 0), BuildingBlock: CIFDUS_clean_linker_0, # of connection points: 2
#     Edge 47, Type (0, 0), BuildingBlock: CIFDUS_clean_linker_0, # of connection points: 2
# Relax obj value: 0.179
# Max RMSD: 0.287
# Mean RMSD: 0.241
data_MOF--net-lcy-e--node1-MIFKUJ_clean_sbu_0--edge1-CIFDUS_clean_linker_0
_symmetry_space_group_name_H-M    P1
_symmetry_Int_Tables_number       1
_symmetry_cell_setting            triclinic
loop_
_symmetry_equiv_pos_as_xyz
'x, y, z'
_cell_length_a     32.699274
_cell_length_b     35.495886
_cell_length_c     35.548362
_cell_angle_alpha  86.990151
_cell_angle_beta   88.516259
_cell_angle_gamma 88.167277
loop_
_atom_site_label
_atom_site_type_symbol
_atom_site_fract_x
_atom_site_fract_y
_atom_site_fract_z
_atom_type_partial_charge
Zn0 Zn 0.12014 0.24159 0.4425 0.0
Zn1 Zn 0.0971 0.1428 0.46811 0.0
C2 C 0.12877 0.30839 0.48318 0.0
O3 O 0.10861 0.32404 0.45463 0.0
C4 C 0.05536 0.12304 0.4002 0.0
O5 O 0.08876 0.10267 0.39349 0.0
O6 O 0.12055 0.27397 0.3949 0.0
O7 O 0.16388 0.20199 0.43318 0.0
O8 O 0.15427 0.14108 0.44507 0.0
C9 C 0.1566 0.28476 0.38694 0.0
O10 O 0.186 0.27534 0.41045 0.0
O11 O 0.13742 0.2732 0.48415 0.0
C12 C 0.06521 0.07079 0.49661 0.0
O13 O 0.0396 0.07507 0.46879 0.0
O14 O 0.09182 0.09542 0.50074 0.0
O15 O 0.08378 0.18419 0.50393 0.0
O16 O 0.06532 0.22207 0.45692 0.0
O17 O 0.05394 0.14357 0.42851 0.0
C18 C 0.17682 0.16788 0.43324 0.0
C19 C 0.06523 0.21428 0.49212 0.0
Zn20 Zn 0.98181 0.87426 0.68269 0.0
Zn21 Zn 0.0524 0.88233 0.74046 0.0
C22 C 0.91702 0.90936 0.71924 0.0
O23 O 0.90102 0.87865 0.70763 0.0
C24 C 0.11332 0.8403 0.70296 0.0
O25 O 0.13531 0.86758 0.7145 0.0
O26 O 0.94548 0.86737 0.63753 0.0
O27 O 0.03534 0.89207 0.66104 0.0
O28 O 0.05009 0.929 0.70626 0.0
C29 C 0.93551 0.89801 0.61924 0.0
O30 O 0.94922 0.92979 0.63061 0.0
O31 O 0.9544 0.91548 0.71143 0.0
C32 C 0.10084 0.85523 0.80111 0.0
O33 O 0.08073 0.82524 0.79331 0.0
O34 O 0.09315 0.88616 0.78241 0.0
O35 O 0.00023 0.86521 0.76496 0.0
O36 O 0.98201 0.82912 0.71981 0.0
O37 O 0.07511 0.84055 0.71 0.0
C38 C 0.04869 0.92301 0.67138 0.0
C39 C 0.98321 0.83586 0.75465 0.0
Zn40 Zn 0.35737 0.72913 0.94205 0.0
Zn41 Zn 0.35857 0.83279 0.97279 0.0
C42 C 0.3197 0.68469 0.00663 0.0
O43 O 0.30043 0.71599 0.01601 0.0
C44 C 0.39359 0.87904 0.91544 0.0
O45 O 0.35644 0.89394 0.91872 0.0
O46 O 0.37075 0.70402 0.89261 0.0
O47 O 0.30735 0.76314 0.93132 0.0
O48 O 0.30576 0.82327 0.94668 0.0
C49 C 0.34376 0.68026 0.88587 0.0
O50 O 0.3126 0.67621 0.90966 0.0
O51 O 0.34393 0.68531 0.97817 0.0
C52 C 0.36944 0.8829 0.03405 0.0
O53 O 0.3924 0.85451 0.04742 0.0
O54 O 0.35036 0.87936 0.0037 0.0
O55 O 0.37867 0.79016 0.00793 0.0
O56 O 0.40477 0.75428 0.96434 0.0
O57 O 0.40229 0.8487 0.93464 0.0
C58 C 0.28932 0.79549 0.93226 0.0
C59 C 0.39997 0.76133 0.99893 0.0
Zn60 Zn 0.43025 0.10972 0.24986 0.0
Zn61 Zn 0.48015 0.11724 0.17215 0.0
C62 C 0.47772 0.17801 0.2727 0.0
O63 O 0.49769 0.18195 0.24028 0.0
C64 C 0.42736 0.06753 0.13632 0.0
O65 O 0.42467 0.09682 0.11222 0.0
O66 O 0.38534 0.09214 0.28685 0.0
O67 O 0.39805 0.13241 0.2047 0.0
O68 O 0.44536 0.16412 0.17309 0.0
C69 C 0.36301 0.12062 0.29559 0.0
O70 O 0.37001 0.15356 0.27846 0.0
O71 O 0.45217 0.15201 0.27827 0.0
C72 C 0.5517 0.13417 0.12457 0.0
O73 O 0.56602 0.14846 0.15474 0.0
O74 O 0.51598 0.121 0.12576 0.0
O75 O 0.51805 0.10923 0.21461 0.0
O76 O 0.47863 0.0709 0.24864 0.0
O77 O 0.44762 0.0703 0.1661 0.0
C78 C 0.40841 0.161 0.18393 0.0
C79 C 0.5142 0.0827 0.23961 0.0
Zn80 Zn 0.61721 0.31978 0.49371 0.0
Zn81 Zn 0.62136 0.28854 0.58596 0.0
C82 C 0.56901 0.28432 0.44151 0.0
O83 O 0.55133 0.27201 0.47322 0.0
C84 C 0.67798 0.3462 0.59716 0.0
O85 O 0.65113 0.3541 0.62397 0.0
O86 O 0.64456 0.36975 0.48697 0.0
O87 O 0.56462 0.32993 0.52352 0.0
O88 O 0.56748 0.31567 0.58466 0.0
C89 C 0.6579 0.38128 0.45463 0.0
O90 O 0.66143 0.35723 0.42778 0.0
O91 O 0.59854 0.30655 0.44272 0.0
C92 C 0.61481 0.23793 0.6524 0.0
O93 O 0.59591 0.21631 0.62998 0.0
O94 O 0.62799 0.26941 0.63949 0.0
O95 O 0.62366 0.24374 0.55357 0.0
O96 O 0.65547 0.27579 0.50754 0.0
O97 O 0.66959 0.32127 0.57438 0.0
C98 C 0.54819 0.3292 0.55635 0.0
C99 C 0.64365 0.24458 0.52248 0.0
Zn100 Zn 0.96029 0.36858 0.72967 0.0
Zn101 Zn 0.97946 0.37579 0.83435 0.0
C102 C 0.00287 0.34835 0.65956 0.0
O103 O 0.9904 0.38227 0.64734 0.0
C104 C 0.91941 0.42734 0.86693 0.0
O105 O 0.90687 0.39561 0.88336 0.0
O106 O 0.91096 0.39072 0.70184 0.0
O107 O 0.93634 0.33085 0.7677 0.0
O108 O 0.9427 0.33175 0.82934 0.0
C109 C 0.89526 0.36961 0.67857 0.0
O110 O 0.91254 0.33638 0.67308 0.0
O111 O 0.99468 0.33739 0.69351 0.0
C112 C 0.04185 0.37762 0.88978 0.0
O113 O 0.0601 0.39831 0.86303 0.0
O114 O 0.00702 0.3645 0.88379 0.0
O115 O 0.02681 0.38155 0.7961 0.0
O116 O 0.9965 0.40958 0.74678 0.0
O117 O 0.94847 0.42592 0.84236 0.0
C118 C 0.92889 0.31691 0.80071 0.0
C119 C 0.02845 0.40226 0.76584 0.0
Zn120 Zn 0.87029 0.68676 0.00298 0.0
Zn121 Zn 0.87932 0.73955 0.07224 0.0
C122 C 0.89324 0.72467 0.93682 0.0
O123 O 0.85752 0.71111 0.92958 0.0
C124 C 0.8353 0.68369 0.11901 0.0
O125 O 0.86769 0.68288 0.14018 0.0
O126 O 0.86118 0.64067 0.97127 0.0
O127 O 0.90104 0.66378 0.04791 0.0
O128 O 0.93323 0.71398 0.06284 0.0
C129 C 0.89527 0.62722 0.95865 0.0
O130 O 0.92919 0.64291 0.96791 0.0
O131 O 0.90767 0.71848 0.96954 0.0
C132 C 0.86116 0.80043 0.12422 0.0
O133 O 0.83412 0.81237 0.09925 0.0
O134 O 0.88422 0.77186 0.11746 0.0
O135 O 0.85798 0.76968 0.02809 0.0
O136 O 0.82069 0.72342 0.00923 0.0
O137 O 0.83552 0.7034 0.08814 0.0
C138 C 0.93295 0.67872 0.05923 0.0
C139 C 0.82696 0.75871 0.01124 0.0
Zn140 Zn 0.54589 0.64563 0.25019 0.0
Zn141 Zn 0.50379 0.6188 0.34395 0.0
C142 C 0.50151 0.6584 0.18095 0.0
O143 O 0.52341 0.62837 0.172 0.0
C144 C 0.57155 0.57718 0.37676 0.0
O145 O 0.56414 0.60064 0.40368 0.0
O146 O 0.59939 0.63987 0.22103 0.0
O147 O 0.55731 0.68127 0.29102 0.0
O148 O 0.52566 0.67042 0.34645 0.0
C149 C 0.60813 0.66689 0.19761 0.0
O150 O 0.58279 0.69625 0.19414 0.0
O151 O 0.50487 0.67082 0.2137 0.0
C152 C 0.43507 0.62807 0.39563 0.0
O153 O 0.42391 0.65394 0.36981 0.0
O154 O 0.46831 0.60926 0.39064 0.0
O155 O 0.4703 0.60845 0.29939 0.0
O156 O 0.52534 0.59416 0.26565 0.0
O157 O 0.55031 0.58047 0.34726 0.0
C158 C 0.54864 0.69024 0.32457 0.0
C159 C 0.48707 0.5919 0.27189 0.0
Zn160 Zn 0.2578 0.42959 0.14918 0.0
Zn161 Zn 0.15889 0.46441 0.13495 0.0
C162 C 0.32844 0.46692 0.17096 0.0
O163 O 0.34018 0.4604 0.13621 0.0
C164 C 0.14232 0.41022 0.08393 0.0
O165 O 0.11532 0.40254 0.11105 0.0
O166 O 0.29057 0.38345 0.13231 0.0
O167 O 0.21222 0.41178 0.18459 0.0
O168 O 0.14797 0.43167 0.17995 0.0
C169 C 0.27699 0.35049 0.13928 0.0
O170 O 0.23938 0.34707 0.15259 0.0
O171 O 0.29424 0.45502 0.18343 0.0
C172 C 0.10921 0.52473 0.10443 0.0
O173 O 0.14469 0.535 0.08985 0.0
O174 O 0.10728 0.49464 0.12524 0.0
O175 O 0.20231 0.50166 0.14194 0.0
O176 O 0.24867 0.47141 0.10827 0.0
O177 O 0.16864 0.4349 0.089 0.0
C178 C 0.17522 0.41139 0.19637 0.0
C179 C 0.23268 0.50234 0.11906 0.0
Zn180 Zn 0.67961 0.00718 0.88281 0.0
Zn181 Zn 0.73605 0.08337 0.88617 0.0
C182 C 0.70208 0.94021 0.92857 0.0
O183 O 0.66298 0.93371 0.92605 0.0
C184 C 0.6816 0.1337 0.84476 0.0
O185 O 0.69219 0.15699 0.87009 0.0
O186 O 0.63319 0.9755 0.8675 0.0
O187 O 0.65452 0.04649 0.91574 0.0
O188 O 0.7057 0.07887 0.93599 0.0
C189 C 0.59658 0.98763 0.86304 0.0
O190 O 0.58833 0.02405 0.86395 0.0
O191 O 0.71604 0.97088 0.91395 0.0
C192 C 0.79165 0.13778 0.855 0.0
O193 O 0.78167 0.12122 0.82447 0.0
O194 O 0.77653 0.12583 0.88662 0.0
O195 O 0.76638 0.03762 0.86754 0.0
O196 O 0.71212 0.02318 0.83663 0.0
O197 O 0.69536 0.09985 0.84692 0.0
C198 C 0.66879 0.06857 0.93884 0.0
C199 C 0.7507 0.02191 0.84023 0.0
Zn200 Zn 0.76719 0.01291 0.38333 0.0
Zn201 Zn 0.74901 0.91379 0.37695 0.0
C202 C 0.7171 0.07945 0.39047 0.0
O203 O 0.72636 0.08234 0.35426 0.0
C204 C 0.80677 0.89007 0.32069 0.0
O205 O 0.81349 0.86351 0.34716 0.0
O206 O 0.81668 0.0421 0.36397 0.0
O207 O 0.78956 0.97596 0.42329 0.0
O208 O 0.78236 0.91432 0.4243 0.0
C209 C 0.82768 0.06675 0.38612 0.0
O210 O 0.80667 0.07119 0.41764 0.0
O211 O 0.72974 0.05034 0.40965 0.0
C212 C 0.68834 0.8556 0.38548 0.0
O213 O 0.66703 0.88073 0.40425 0.0
O214 O 0.72452 0.86288 0.37408 0.0
O215 O 0.70013 0.95032 0.3736 0.0
O216 O 0.73374 0.99432 0.34125 0.0
O217 O 0.78282 0.9178 0.32821 0.0
C218 C 0.79604 0.94327 0.43873 0.0
C219 C 0.70015 0.97883 0.35047 0.0
Zn220 Zn 0.2914 0.49908 0.63859 0.0
Zn221 Zn 0.25869 0.58139 0.6413 0.0
C222 C 0.23561 0.45145 0.61036 0.0
O223 O 0.2433 0.4357 0.64382 0.0
C224 C 0.32685 0.60577 0.68108 0.0
O225 O 0.3293 0.62841 0.6507 0.0
O226 O 0.33184 0.45518 0.64603 0.0
O227 O 0.32861 0.53907 0.61321 0.0
O228 O 0.28286 0.57949 0.58978 0.0
C229 C 0.34697 0.44595 0.61431 0.0
O230 O 0.33353 0.46394 0.58359 0.0
O231 O 0.25304 0.48193 0.60006 0.0
C232 C 0.22687 0.64316 0.67915 0.0
O233 O 0.23626 0.62002 0.70788 0.0
O234 O 0.23232 0.63248 0.6458 0.0
O235 O 0.2143 0.54554 0.6525 0.0
O236 O 0.25283 0.50457 0.68486 0.0
O237 O 0.30166 0.57907 0.68174 0.0
C238 C 0.31769 0.56315 0.58737 0.0
C239 C 0.21741 0.51845 0.67703 0.0
H240 H 0.14472 0.38279 0.47703 0.0
H241 H 0.14524 0.28594 0.55563 0.0
H242 H 0.17492 0.32319 0.60338 0.0
H243 H 0.20562 0.38147 0.62078 0.0
H244 H 0.20918 0.47741 0.54103 0.0
H245 H 0.17267 0.44235 0.49566 0.0
C246 C 0.15093 0.37003 0.50477 0.0
C247 C 0.14325 0.3317 0.51282 0.0
C248 C 0.16895 0.39132 0.53167 0.0
C249 C 0.15148 0.31534 0.54874 0.0
C250 C 0.16836 0.3366 0.57601 0.0
C251 C 0.1981 0.3949 0.59362 0.0
C252 C 0.21036 0.43187 0.58415 0.0
C253 C 0.17805 0.37434 0.56747 0.0
C254 C 0.20031 0.44886 0.54887 0.0
C255 C 0.17948 0.42884 0.52293 0.0
H256 H 0.83342 0.02342 0.82995 0.0
H257 H 0.72559 0.97071 0.79224 0.0
H258 H 0.76771 0.93207 0.7509 0.0
H259 H 0.83485 0.91191 0.72679 0.0
H260 H 0.94318 0.96481 0.76275 0.0
H261 H 0.90107 0.00497 0.80334 0.0
C262 C 0.81921 0.00349 0.81264 0.0
C263 C 0.77651 0.99978 0.81432 0.0
C264 C 0.8436 0.98145 0.78865 0.0
C265 C 0.75841 0.97415 0.79145 0.0
C266 C 0.78244 0.95197 0.76784 0.0
C267 C 0.84929 0.93227 0.74345 0.0
C268 C 0.89199 0.93526 0.74204 0.0
C269 C 0.82502 0.9552 0.76644 0.0
C270 C 0.91026 0.96205 0.7634 0.0
C271 C 0.88625 0.9849 0.78667 0.0
H272 H 0.2648 0.6711 0.06433 0.0
H273 H 0.35523 0.61568 0.99394 0.0
H274 H 0.33763 0.55454 0.02333 0.0
H275 H 0.29411 0.51622 0.0669 0.0
H276 H 0.20358 0.5721 0.13693 0.0
H277 H 0.22376 0.63324 0.10987 0.0
C278 C 0.28088 0.6457 0.05559 0.0
C279 C 0.31104 0.64807 0.02677 0.0
C280 C 0.27043 0.61049 0.0724 0.0
C281 C 0.33167 0.61478 0.01593 0.0
C282 C 0.32161 0.5797 0.03269 0.0
C283 C 0.27893 0.54177 0.07635 0.0
C284 C 0.24706 0.53936 0.10361 0.0
C285 C 0.29062 0.57712 0.06059 0.0
C286 C 0.22799 0.5729 0.11574 0.0
C287 C 0.2395 0.60803 0.1003 0.0
H288 H 0.52201 0.02314 0.29237 0.0
H289 H 0.59171 0.1066 0.22783 0.0
H290 H 0.65431 0.08219 0.2563 0.0
H291 H 0.69015 0.03738 0.29894 0.0
H292 H 0.62247 0.95314 0.36397 0.0
H293 H 0.55874 0.97752 0.33592 0.0
C294 C 0.55089 0.03593 0.28456 0.0
C295 C 0.55182 0.06667 0.25783 0.0
C296 C 0.58741 0.02163 0.3011 0.0
C297 C 0.58971 0.08286 0.24815 0.0
C298 C 0.62578 0.06896 0.26446 0.0
C299 C 0.66152 0.0243 0.30711 0.0
C300 C 0.66128 0.99348 0.33359 0.0
C301 C 0.62506 0.03837 0.29089 0.0
C302 C 0.6237 0.97693 0.34365 0.0
C303 C 0.58716 0.99087 0.32761 0.0
H304 H 0.65602 0.23687 0.44793 0.0
H305 H 0.65397 0.1732 0.55465 0.0
H306 H 0.67433 0.11561 0.52292 0.0
H307 H 0.69613 0.08428 0.46504 0.0
H308 H 0.69566 0.1484 0.35836 0.0
H309 H 0.67221 0.20474 0.38988 0.0
C310 C 0.66009 0.21037 0.46426 0.0
C311 C 0.65424 0.20933 0.50361 0.0
C312 C 0.67116 0.17746 0.44582 0.0
C313 C 0.6586 0.1747 0.52433 0.0
C314 C 0.67025 0.14182 0.5062 0.0
C315 C 0.69054 0.11049 0.44864 0.0
C316 C 0.69812 0.11212 0.40941 0.0
C317 C 0.67708 0.14296 0.46698 0.0
C318 C 0.69035 0.14628 0.38858 0.0
C319 C 0.67707 0.17862 0.4066 0.0
H320 H 0.03945 0.4619 0.716 0.0
H321 H 0.10588 0.38224 0.78913 0.0
H322 H 0.17042 0.41098 0.76893 0.0
H323 H 0.20835 0.45871 0.72939 0.0
H324 H 0.13965 0.53923 0.65858 0.0
H325 H 0.07624 0.51031 0.67907 0.0
C326 C 0.06801 0.45072 0.72753 0.0
C327 C 0.0677 0.41984 0.75391 0.0
C328 C 0.1049 0.46766 0.71623 0.0
C329 C 0.10511 0.40605 0.76879 0.0
C330 C 0.14211 0.42246 0.75722 0.0
C331 C 0.17949 0.47003 0.71867 0.0
C332 C 0.17915 0.50114 0.69235 0.0
C333 C 0.14245 0.45332 0.73085 0.0
C334 C 0.14125 0.51537 0.67882 0.0
C335 C 0.10471 0.49879 0.69045 0.0
H336 H 0.68671 0.86599 0.94273 0.0
H337 H 0.78019 0.94803 0.95168 0.0
H338 H 0.82676 0.89885 0.97796 0.0
H339 H 0.84098 0.83294 0.99787 0.0
H340 H 0.74889 0.74997 0.98701 0.0
H341 H 0.70164 0.7993 0.96157 0.0
C342 C 0.71719 0.87317 0.95066 0.0
C343 C 0.72989 0.91071 0.94553 0.0
C344 C 0.74404 0.84462 0.96512 0.0
C345 C 0.76966 0.91942 0.95542 0.0
C346 C 0.79629 0.89131 0.9704 0.0
C347 C 0.81055 0.82552 0.99002 0.0
C348 C 0.7984 0.78779 0.99454 0.0
C349 C 0.78382 0.85386 0.97527 0.0
C350 C 0.75903 0.77873 0.98378 0.0
C351 C 0.73198 0.80695 0.96936 0.0
H352 H 0.40893 0.5702 0.28548 0.0
H353 H 0.51085 0.55912 0.20676 0.0
H354 H 0.47068 0.51973 0.1684 0.0
H355 H 0.40664 0.48831 0.15727 0.0
H356 H 0.30585 0.49728 0.23752 0.0
H357 H 0.34577 0.53732 0.27539 0.0
C358 C 0.42236 0.55926 0.25989 0.0
C359 C 0.46268 0.56794 0.24882 0.0
C360 C 0.39939 0.53604 0.23835 0.0
C361 C 0.47974 0.55315 0.21579 0.0
C362 C 0.45684 0.53052 0.19387 0.0
C363 C 0.39344 0.49898 0.18307 0.0
C364 C 0.35335 0.48988 0.19451 0.0
C365 C 0.41665 0.52178 0.20489 0.0
C366 C 0.33673 0.50375 0.22813 0.0
C367 C 0.35947 0.52676 0.24977 0.0
H368 H 0.54388 0.22193 0.28089 0.0
H369 H 0.43184 0.18568 0.33662 0.0
H370 H 0.44945 0.21694 0.39295 0.0
H371 H 0.49842 0.25065 0.42808 0.0
H372 H 0.61085 0.28721 0.37374 0.0
H373 H 0.59127 0.25995 0.31522 0.0
C374 C 0.52312 0.22136 0.30518 0.0
C375 C 0.48685 0.20116 0.30463 0.0
C376 C 0.53361 0.23916 0.33788 0.0
C377 C 0.46022 0.20065 0.33638 0.0
C378 C 0.47022 0.21851 0.36869 0.0
C379 C 0.51857 0.25285 0.40338 0.0
C380 C 0.5561 0.27064 0.40529 0.0
C381 C 0.50719 0.23713 0.37003 0.0
C382 C 0.5817 0.27364 0.37294 0.0
C383 C 0.57058 0.25798 0.33952 0.0
H384 H 0.07361 0.21175 0.56847 0.0
H385 H 0.02945 0.28352 0.47544 0.0
H386 H 0.00968 0.3325 0.51857 0.0
H387 H 0.00214 0.35406 0.58296 0.0
H388 H 0.0433 0.28128 0.67637 0.0
H389 H 0.06734 0.23387 0.63282 0.0
C390 C 0.05967 0.23809 0.55758 0.0
C391 C 0.0531 0.24384 0.51868 0.0
C392 C 0.0479 0.26608 0.58263 0.0
C393 C 0.03491 0.27822 0.5052 0.0
C394 C 0.02362 0.30634 0.52986 0.0
C395 C 0.01679 0.32802 0.5938 0.0
C396 C 0.02086 0.32125 0.63291 0.0
C397 C 0.02968 0.30049 0.56866 0.0
C398 C 0.03964 0.28718 0.64642 0.0
C399 C 0.05332 0.26 0.62153 0.0
H400 H -0.00076 0.83082 0.82887 0.0
H401 H 0.92452 0.78404 0.74562 0.0
H402 H 0.89051 0.74491 0.79504 0.0
H403 H 0.88065 0.72589 0.86193 0.0
H404 H 0.95673 0.77154 0.94482 0.0
H405 H 0.99192 0.80937 0.89518 0.0
C406 C 0.97554 0.81202 0.82149 0.0
C407 C 0.96411 0.8105 0.78372 0.0
C408 C 0.95644 0.78958 0.84989 0.0
C409 C 0.93382 0.78565 0.7745 0.0
C410 C 0.91431 0.76342 0.80273 0.0
C411 C 0.90494 0.74412 0.86915 0.0
C412 C 0.91587 0.74626 0.90698 0.0
C413 C 0.92514 0.76546 0.84052 0.0
C414 C 0.94778 0.76951 0.91589 0.0
C415 C 0.9678 0.79116 0.88757 0.0
H416 H 0.49531 0.64346 0.10689 0.0
H417 H 0.45276 0.72166 0.1894 0.0
H418 H 0.41654 0.7594 0.14062 0.0
H419 H 0.39949 0.7718 0.07426 0.0
H420 H 0.44294 0.69441 0.99133 0.0
H421 H 0.47616 0.65473 0.04066 0.0
C422 C 0.47789 0.6686 0.11433 0.0
C423 C 0.47696 0.67973 0.15186 0.0
C424 C 0.45747 0.69046 0.08601 0.0
C425 C 0.45415 0.71243 0.16083 0.0
C426 C 0.43346 0.73409 0.1329 0.0
C427 C 0.41609 0.7462 0.06687 0.0
C428 C 0.41895 0.73635 0.02896 0.0
C429 C 0.43534 0.72365 0.09533 0.0
C430 C 0.44049 0.70291 0.02014 0.0
C431 C 0.45946 0.68016 0.04838 0.0
H432 H 0.10294 0.31938 0.33805 0.0
H433 H 0.23193 0.29931 0.35703 0.0
H434 H 0.24881 0.33574 0.29914 0.0
H435 H 0.22733 0.37389 0.24389 0.0
H436 H 0.09867 0.396 0.22495 0.0
H437 H 0.0813 0.35798 0.2821 0.0
C438 C 0.1347 0.32295 0.32942 0.0
C439 C 0.1661 0.30679 0.35178 0.0
C440 C 0.14428 0.34424 0.2962 0.0
C441 C 0.20715 0.3117 0.34041 0.0
C442 C 0.21689 0.33244 0.30726 0.0
C443 C 0.19545 0.37033 0.25212 0.0
C444 C 0.16437 0.38775 0.23025 0.0
C445 C 0.18573 0.34892 0.28507 0.0
C446 C 0.12321 0.38295 0.24142 0.0
C447 C 0.11324 0.36123 0.27406 0.0
H448 H 0.90773 0.95975 0.57874 0.0
H449 H 0.90248 0.83831 0.585 0.0
H450 H 0.85832 0.84117 0.53007 0.0
H451 H 0.82151 0.87873 0.47961 0.0
H452 H 0.82793 0.00034 0.47555 0.0
H453 H 0.87104 0.99662 0.53018 0.0
C454 C 0.897 0.93377 0.56824 0.0
C455 C 0.90856 0.89885 0.58606 0.0
C456 C 0.87164 0.93565 0.53689 0.0
C457 C 0.89414 0.8656 0.57188 0.0
C458 C 0.86885 0.86724 0.54044 0.0
C459 C 0.83221 0.90439 0.49078 0.0
C460 C 0.82128 0.93976 0.47317 0.0
C461 C 0.85739 0.90218 0.52262 0.0
C462 C 0.83563 0.97267 0.4882 0.0
C463 C 0.86044 0.97065 0.51957 0.0
H464 H 0.30981 0.57773 0.75224 0.0
H465 H 0.38038 0.6621 0.6904 0.0
H466 H 0.396 0.69075 0.74918 0.0
H467 H 0.38229 0.69652 0.8176 0.0
H468 H 0.30821 0.61363 0.87772 0.0
H469 H 0.30158 0.57987 0.82049 0.0
C470 C 0.32937 0.60188 0.75159 0.0
C471 C 0.34357 0.61785 0.71684 0.0
C472 C 0.33716 0.61895 0.78534 0.0
C473 C 0.36882 0.64925 0.71671 0.0
C474 C 0.3776 0.66584 0.75034 0.0
C475 C 0.36536 0.67071 0.81821 0.0
C476 C 0.34542 0.65788 0.8518 0.0
C477 C 0.3608 0.65169 0.78476 0.0
C478 C 0.32344 0.62443 0.85214 0.0
C479 C 0.31963 0.60501 0.8194 0.0
H480 H 0.53117 0.10376 0.05979 0.0
H481 H 0.63204 0.15297 0.11359 0.0
H482 H 0.67716 0.13863 0.05989 0.0
H483 H 0.68866 0.10854 0.99926 0.0
H484 H 0.58702 0.05811 0.94745 0.0
H485 H 0.54167 0.07653 0.9989 0.0
C486 C 0.56295 0.11167 0.05976 0.0
C487 C 0.57824 0.1292 0.09077 0.0
C488 C 0.58873 0.10284 0.02924 0.0
C489 C 0.61947 0.13937 0.09009 0.0
C490 C 0.64533 0.13106 0.05945 0.0
C491 C 0.65656 0.10178 0.99915 0.0
C492 C 0.64148 0.08166 0.96964 0.0
C493 C 0.63043 0.11221 0.02913 0.0
C494 C 0.5997 0.07324 0.96991 0.0
C495 C 0.5736 0.08382 0.99931 0.0
H496 H 0.60785 0.16709 0.68446 0.0
H497 H 0.64047 0.28008 0.70861 0.0
H498 H 0.65958 0.25829 0.77212 0.0
H499 H 0.67244 0.20647 0.81881 0.0
H500 H 0.64388 0.09277 0.79363 0.0
H501 H 0.61722 0.11561 0.73272 0.0
C502 C 0.61869 0.18701 0.70377 0.0
C503 C 0.62301 0.22506 0.69174 0.0
C504 C 0.63044 0.17416 0.74004 0.0
C505 C 0.6372 0.25054 0.71706 0.0
C506 C 0.6481 0.23814 0.75341 0.0
C507 C 0.65973 0.18676 0.80029 0.0
C508 C 0.66024 0.14802 0.81061 0.0
C509 C 0.6456 0.19991 0.76494 0.0
C510 C 0.64398 0.12277 0.78619 0.0
C511 C 0.62884 0.13577 0.75134 0.0
H512 H 0.0815 0.36681 0.06179 0.0
H513 H 0.1877 0.42645 0.0197 0.0
H514 H 0.16785 0.41784 0.95506 0.0
H515 H 0.11565 0.40104 0.91107 0.0
H516 H 0.00802 0.3438 0.95352 0.0
H517 H 0.03331 0.34372 0.01747 0.0
C518 C 0.10077 0.37733 0.03853 0.0
C519 C 0.13564 0.39781 0.04559 0.0
C520 C 0.0886 0.37323 0.00148 0.0
C521 C 0.16047 0.41088 0.01507 0.0
C522 C 0.14902 0.40617 0.97807 0.0
C523 C 0.09792 0.38815 0.93424 0.0
C524 C 0.05967 0.37306 0.9276 0.0
C525 C 0.11234 0.38867 0.97102 0.0
C526 C 0.03738 0.35598 0.95787 0.0
C527 C 0.05179 0.35594 0.99449 0.0
H528 H 0.86079 0.83632 0.29612 0.0
H529 H 0.78132 0.92842 0.25608 0.0
H530 H 0.79345 0.9104 0.19123 0.0
H531 H 0.82119 0.86463 0.14652 0.0
H532 H 0.90076 0.77273 0.18701 0.0
H533 H 0.89413 0.79468 0.2508 0.0
C534 C 0.84657 0.85284 0.27319 0.0
C535 C 0.81984 0.88347 0.28113 0.0
C536 C 0.85336 0.84211 0.23595 0.0
C537 C 0.80201 0.9047 0.25093 0.0
C538 C 0.80873 0.89425 0.21378 0.0
C539 C 0.83747 0.84964 0.16921 0.0
C540 C 0.86109 0.81679 0.1619 0.0
C541 C 0.83347 0.86239 0.20604 0.0
C542 C 0.88226 0.79799 0.19168 0.0
C543 C 0.8784 0.81047 0.22829 0.0
H544 H 0.30443 0.61468 0.52926 0.0
H545 H 0.39317 0.53132 0.57153 0.0
H546 H 0.43742 0.54424 0.51623 0.0
H547 H 0.45039 0.57841 0.45524 0.0
H548 H 0.36121 0.6615 0.4132 0.0
H549 H 0.31777 0.64937 0.46904 0.0
C550 C 0.33351 0.59939 0.52652 0.0
C551 C 0.34538 0.57208 0.55461 0.0
C552 C 0.35874 0.60682 0.49459 0.0
C553 C 0.38323 0.55258 0.55046 0.0
C554 C 0.40856 0.55988 0.51877 0.0
C555 C 0.42147 0.59391 0.45828 0.0
C556 C 0.40911 0.62079 0.42993 0.0
C557 C 0.39653 0.58681 0.49055 0.0
C558 C 0.37155 0.64064 0.43447 0.0
C559 C 0.34663 0.63373 0.46644 0.0
H560 H 0.20562 0.10328 0.40078 0.0
H561 H 0.23982 0.21549 0.42631 0.0
H562 H 0.30225 0.2089 0.38837 0.0
H563 H 0.3433 0.17461 0.34284 0.0
H564 H 0.31142 0.06255 0.31571 0.0
H565 H 0.25225 0.06536 0.35984 0.0
C566 C 0.22719 0.12591 0.39863 0.0
C567 C 0.21767 0.16011 0.41584 0.0
C568 C 0.2632 0.1221 0.37624 0.0
C569 C 0.24596 0.18918 0.4128 0.0
C570 C 0.28174 0.18545 0.39113 0.0
C571 C 0.32361 0.15061 0.34683 0.0
C572 C 0.33113 0.11869 0.32573 0.0
C573 C 0.28997 0.1526 0.37182 0.0
C574 C 0.30602 0.08748 0.33167 0.0
C575 C 0.27215 0.08921 0.35672 0.0
H576 H 0.09483 0.06506 0.56723 0.0
H577 H 0.02654 0.00517 0.48822 0.0
H578 H 0.01781 0.95306 0.53505 0.0
H579 H 0.02783 0.92566 0.59842 0.0
H580 H 0.0914 0.9871 0.6795 0.0
H581 H 0.10435 0.03756 0.6314 0.0
C582 C 0.07837 0.04043 0.56017 0.0
C583 C 0.06149 0.03878 0.52433 0.0
C584 C 0.07272 0.01101 0.58745 0.0
C585 C 0.03976 0.00702 0.51566 0.0
C586 C 0.03481 0.97725 0.54236 0.0
C587 C 0.0447 0.94999 0.60564 0.0
C588 C 0.05863 0.95273 0.64244 0.0
C589 C 0.05092 0.97912 0.57835 0.0
C590 C 0.08028 0.98448 0.65134 0.0
C591 C 0.08765 0.01326 0.62391 0.0
H592 H 0.12935 0.7911 0.83761 0.0
H593 H 0.1482 0.91097 0.82612 0.0
H594 H 0.20627 0.90351 0.86829 0.0
H595 H 0.25416 0.86223 0.9055 0.0
H596 H 0.23629 0.74204 0.91402 0.0
H597 H 0.17522 0.75047 0.87616 0.0
C598 C 0.14587 0.81574 0.84451 0.0
C599 C 0.13437 0.85157 0.8286 0.0
C600 C 0.17953 0.81115 0.86824 0.0
C601 C 0.15635 0.88306 0.83787 0.0
C602 C 0.18961 0.87879 0.86198 0.0
C603 C 0.23656 0.83794 0.89955 0.0
C604 C 0.24988 0.80153 0.91268 0.0
C605 C 0.20181 0.84288 0.87697 0.0
C606 C 0.2269 0.77036 0.90426 0.0
C607 C 0.19196 0.77513 0.88253 0.0
H608 H 0.38197 0.05255 0.07593 0.0
H609 H 0.44011 0.9987 0.1732 0.0
H610 H 0.42442 0.93678 0.15149 0.0
H611 H 0.39977 0.89784 0.1021 0.0
H612 H 0.34177 0.95161 0.00474 0.0
H613 H 0.35153 0.01352 0.02948 0.0
C614 C 0.39079 0.02731 0.09266 0.0
C615 C 0.41261 0.03038 0.12598 0.0
C616 C 0.38194 0.9917 0.07986 0.0
C617 C 0.42344 0.99729 0.1474 0.0
C618 C 0.41462 0.96179 0.13492 0.0
C619 C 0.38884 0.92307 0.08645 0.0
C620 C 0.37041 0.92001 0.05141 0.0
C621 C 0.39476 0.95864 0.10075 0.0
C622 C 0.35609 0.95304 0.03175 0.0
C623 C 0.36183 0.98852 0.04581 0.0
H624 H 0.8675 0.34596 0.61333 0.0
H625 H 0.83302 0.41405 0.70663 0.0
H626 H 0.76215 0.41792 0.68577 0.0
H627 H 0.70876 0.39334 0.64684 0.0
H628 H 0.74401 0.32482 0.55377 0.0
H629 H 0.81589 0.3305 0.56822 0.0
C630 C 0.84459 0.36227 0.62865 0.0
C631 C 0.85518 0.37914 0.66179 0.0
C632 C 0.804 0.36406 0.61669 0.0
C633 C 0.8255 0.40072 0.68108 0.0
C634 C 0.78494 0.40272 0.6693 0.0
C635 C 0.73217 0.38036 0.62917 0.0
C636 C 0.72087 0.35791 0.59984 0.0
C637 C 0.77359 0.38323 0.63799 0.0
C638 C 0.7517 0.34182 0.57686 0.0
C639 C 0.7929 0.34488 0.58521 0.0
H640 H 0.95219 0.49677 0.85407 0.0
H641 H 0.8528 0.44039 0.91316 0.0
H642 H 0.83314 0.49847 0.94392 0.0
H643 H 0.84839 0.56409 0.95891 0.0
H644 H 0.95053 0.61826 0.90206 0.0
H645 H 0.96442 0.56288 0.86555 0.0
C646 C 0.92579 0.49729 0.87317 0.0
C647 C 0.9042 0.46407 0.88131 0.0
C648 C 0.91522 0.5306 0.89153 0.0
C649 C 0.87019 0.46542 0.90641 0.0
C650 C 0.85892 0.49868 0.92414 0.0
C651 C 0.87311 0.56392 0.93799 0.0
C652 C 0.89844 0.59524 0.93332 0.0
C653 C 0.88179 0.53129 0.91764 0.0
C654 C 0.93073 0.59444 0.9064 0.0
C655 C 0.93877 0.56272 0.88549 0.0
H656 H 0.75999 0.69858 0.09117 0.0
H657 H 0.82227 0.63704 0.18187 0.0
H658 H 0.75632 0.62232 0.21244 0.0
H659 H 0.68129 0.63336 0.21677 0.0
H660 H 0.62103 0.70014 0.1284 0.0
H661 H 0.68586 0.70629 0.09344 0.0
C662 C 0.75927 0.68137 0.11731 0.0
C663 C 0.79604 0.66914 0.13434 0.0
C664 C 0.72152 0.67435 0.13536 0.0
C665 C 0.7944 0.64696 0.16826 0.0
C666 C 0.7567 0.63867 0.18582 0.0
C667 C 0.6824 0.64869 0.18958 0.0
C668 C 0.64664 0.66647 0.1752 0.0
C669 C 0.72011 0.6532 0.17019 0.0
C670 C 0.64834 0.68656 0.14013 0.0
C671 C 0.68534 0.69004 0.12013 0.0
H672 H 0.65414 0.41563 0.38473 0.0
H673 H 0.6569 0.4391 0.50254 0.0
H674 H 0.63609 0.50477 0.48754 0.0
H675 H 0.60601 0.55198 0.44257 0.0
H676 H 0.59817 0.52658 0.32558 0.0
H677 H 0.63239 0.46536 0.33863 0.0
C678 C 0.65128 0.4353 0.40706 0.0
C679 C 0.65647 0.42233 0.44477 0.0
C680 C 0.63764 0.47257 0.39843 0.0
C681 C 0.65269 0.44828 0.47331 0.0
C682 C 0.64053 0.48579 0.46477 0.0
C683 C 0.61251 0.53339 0.41976 0.0
C684 C 0.59891 0.54358 0.38329 0.0
C685 C 0.63111 0.49774 0.42767 0.0
C686 C 0.60781 0.51922 0.35403 0.0
C687 C 0.62735 0.48417 0.36147 0.0
H688 H 0.26096 0.279 0.16537 0.0
H689 H 0.35655 0.34629 0.11311 0.0
H690 H 0.40499 0.2926 0.12002 0.0
H691 H 0.42141 0.22819 0.14528 0.0
H692 H 0.32613 0.16208 0.19983 0.0
H693 H 0.27644 0.21372 0.18754 0.0
C694 C 0.29224 0.28188 0.15498 0.0
C695 C 0.30506 0.31677 0.13884 0.0
C696 C 0.32013 0.25116 0.15978 0.0
C697 C 0.3458 0.31985 0.1257 0.0
C698 C 0.37359 0.28917 0.12977 0.0
C699 C 0.3897 0.22488 0.15417 0.0
C700 C 0.37766 0.19124 0.17362 0.0
C701 C 0.36129 0.25494 0.14747 0.0
C702 C 0.33638 0.1876 0.18492 0.0
C703 C 0.30789 0.21716 0.17793 0.0
H704 H 0.90162 0.28061 0.86639 0.0
H705 H 0.8986 0.27634 0.74523 0.0
H706 H 0.85696 0.22071 0.75159 0.0
H707 H 0.82093 0.17339 0.79095 0.0
H708 H 0.82216 0.17719 0.91204 0.0
H709 H 0.86495 0.23267 0.90619 0.0
C710 C 0.89191 0.2675 0.84137 0.0
C711 C 0.90343 0.28285 0.80538 0.0
C712 C 0.86762 0.23532 0.84514 0.0
C713 C 0.89035 0.26537 0.77332 0.0
C714 C 0.86647 0.23343 0.77688 0.0
C715 C 0.83062 0.18619 0.81616 0.0
C716 C 0.81836 0.17098 0.8519 0.0
C717 C 0.8549 0.21818 0.81259 0.0
C718 C 0.83113 0.18822 0.88416 0.0
C719 C 0.8556 0.22 0.88083 0.0
H720 H 0.10533 0.59966 0.08713 0.0
H721 H 0.03025 0.50241 0.10605 0.0
H722 H 0.96875 0.54159 0.09331 0.0
H723 H 0.93661 0.60344 0.07645 0.0
H724 H 0.01156 0.70125 0.06125 0.0
H725 H 0.07297 0.66188 0.07306 0.0
C726 C 0.07548 0.58709 0.08834 0.0
C727 C 0.07217 0.5483 0.09721 0.0
C728 C 0.04035 0.60985 0.08179 0.0
C729 C 0.03339 0.53231 0.0993 0.0
C730 C 0.99831 0.55464 0.09197 0.0
C731 C 0.9664 0.61609 0.07576 0.0
C732 C 0.96966 0.65509 0.06787 0.0
C733 C 0.00145 0.59343 0.08316 0.0
C734 C 0.00833 0.67126 0.06743 0.0
C735 C 0.04343 0.64879 0.07404 0.0
H736 H 0.61399 0.82842 0.40758 0.0
H737 H 0.718 0.8074 0.33339 0.0
H738 H 0.68299 0.75575 0.3069 0.0
H739 H 0.62251 0.71728 0.30371 0.0
H740 H 0.51979 0.73539 0.37988 0.0
H741 H 0.55444 0.78772 0.40641 0.0
C742 C 0.6291 0.81236 0.38582 0.0
C743 C 0.6685 0.8219 0.37246 0.0
C744 C 0.60886 0.78247 0.37073 0.0
C745 C 0.68773 0.80066 0.34434 0.0
C746 C 0.66765 0.77121 0.32896 0.0
C747 C 0.60756 0.73292 0.32588 0.0
C748 C 0.56847 0.72291 0.33949 0.0
C749 C 0.62809 0.76214 0.34166 0.0
C750 C 0.54982 0.7428 0.36882 0.0
C751 C 0.56965 0.77261 0.38404 0.0
H752 H 0.50843 0.34416 0.62272 0.0
H753 H 0.49507 0.35386 0.50194 0.0
H754 H 0.4299 0.38796 0.50991 0.0
H755 H 0.37951 0.41885 0.55037 0.0
H756 H 0.39266 0.41162 0.67106 0.0
H757 H 0.45497 0.37213 0.66388 0.0
C758 C 0.49107 0.35339 0.59815 0.0
C759 C 0.50691 0.34675 0.56175 0.0
C760 C 0.4537 0.37348 0.60288 0.0
C761 C 0.4839 0.35885 0.53025 0.0
C762 C 0.44658 0.37836 0.53476 0.0
C763 C 0.39574 0.40846 0.57524 0.0
C764 C 0.38169 0.41848 0.61119 0.0
C765 C 0.43165 0.38645 0.57085 0.0
C766 C 0.4029 0.40438 0.64305 0.0
C767 C 0.4386 0.38195 0.63894 0.0
H768 H 0.16976 0.68445 0.64026 0.0
H769 H 0.25172 0.68748 0.73309 0.0
H770 H 0.22678 0.75136 0.74576 0.0
H771 H 0.17899 0.8046 0.73269 0.0
H772 H 0.091 0.79882 0.6452 0.0
H773 H 0.12109 0.73779 0.62763 0.0
C774 C 0.18222 0.69937 0.66303 0.0
C775 C 0.21233 0.68171 0.68577 0.0
C776 C 0.16673 0.73543 0.67092 0.0
C777 C 0.22818 0.70074 0.71551 0.0
C778 C 0.2141 0.73718 0.72264 0.0
C779 C 0.16702 0.79018 0.70934 0.0
C780 C 0.13351 0.80598 0.68973 0.0
C781 C 0.18308 0.75458 0.7008 0.0
C782 C 0.11715 0.78692 0.66029 0.0
C783 C 0.13419 0.75214 0.65042 0.0
H784 H 0.47396 0.85817 0.90419 0.0
H785 H 0.38659 0.9501 0.88282 0.0
H786 H 0.44158 0.99095 0.86068 0.0
H787 H 0.51505 0.00289 0.85466 0.0
H788 H 0.60255 0.91097 0.87552 0.0
H789 H 0.54703 0.86796 0.89 0.0
C790 C 0.46687 0.88694 0.89411 0.0
C791 C 0.42623 0.90113 0.89581 0.0
C792 C 0.49875 0.91053 0.88158 0.0
C793 C 0.41759 0.93841 0.88219 0.0
C794 C 0.44908 0.96194 0.86961 0.0
C795 C 0.52199 0.97332 0.86177 0.0
C796 C 0.56296 0.96046 0.86467 0.0
C797 C 0.48988 0.94866 0.87031 0.0
C798 C 0.57133 0.92188 0.87344 0.0
C799 C 0.53956 0.89718 0.88187 0.0
H800 H 0.89867 0.04338 0.3511 0.0
H801 H 0.84196 0.1366 0.40805 0.0
H802 H 0.90792 0.16623 0.4111 0.0
H803 H 0.98233 0.16047 0.40718 0.0
H804 H 0.0406 0.0654 0.35432 0.0
H805 H 0.97367 0.04224 0.33925 0.0
C806 C 0.90073 0.07067 0.36317 0.0
C807 C 0.86571 0.08764 0.3797 0.0
C808 C 0.93915 0.08701 0.36599 0.0
C809 C 0.86867 0.12285 0.39552 0.0
C810 C 0.90637 0.13978 0.39736 0.0
C811 C 0.98049 0.13509 0.39164 0.0
C812 C 0.01641 0.11435 0.38257 0.0
C813 C 0.94199 0.12131 0.38419 0.0
C814 C 0.01344 0.08183 0.36194 0.0
C815 C 0.97511 0.06838 0.35353 0.0
loop_
_geom_bond_atom_site_label_1
_geom_bond_atom_site_label_2
_geom_bond_distance
_geom_bond_site_symmetry_2
_ccdc_geom_bond_type
Zn0 O6 1.969 . S
Zn0 O7 1.965 . S
Zn0 O11 2.024 . S
Zn0 O16 1.969 . S
Zn1 O8 1.969 . S
Zn1 O14 1.969 . S
Zn1 O15 1.965 . S
Zn1 O17 2.024 . S
C2 O3 1.229 . S
C2 O11 1.058 . S
O3 C2 1.229 . S
C4 O5 1.229 . S
C4 O17 1.058 . S
O5 C4 1.229 . S
O6 Zn0 1.969 . S
O6 C9 1.267 . S
O7 Zn0 1.965 . S
O7 C18 1.260 . S
O8 Zn1 1.969 . S
O8 C18 1.258 . S
C9 O6 1.267 . S
C9 O10 1.228 . S
O10 C9 1.228 . S
O11 Zn0 2.024 . S
O11 C2 1.058 . S
C12 O13 1.228 . S
C12 O14 1.267 . S
O13 C12 1.228 . S
O14 Zn1 1.969 . S
O14 C12 1.267 . S
O15 Zn1 1.965 . S
O15 C19 1.260 . S
O16 Zn0 1.969 . S
O16 C19 1.258 . S
O17 Zn1 2.024 . S
O17 C4 1.058 . S
C18 O7 1.260 . S
C18 O8 1.258 . S
C19 O15 1.260 . S
C19 O16 1.258 . S
Zn20 O26 1.969 . S
Zn20 O27 1.965 1_655 S
Zn20 O31 2.024 . S
Zn20 O36 1.969 . S
Zn21 O28 1.969 . S
Zn21 O34 1.969 . S
Zn21 O35 1.965 . S
Zn21 O37 2.024 . S
C22 O23 1.229 . S
C22 O31 1.058 . S
O23 C22 1.229 . S
C24 O25 1.229 . S
C24 O37 1.058 . S
O25 C24 1.229 . S
O26 Zn20 1.969 . S
O26 C29 1.267 . S
O27 Zn20 1.965 1_455 S
O27 C38 1.260 . S
O28 Zn21 1.969 . S
O28 C38 1.258 . S
C29 O26 1.267 . S
C29 O30 1.228 . S
O30 C29 1.228 . S
O31 Zn20 2.024 . S
O31 C22 1.058 . S
C32 O33 1.228 . S
C32 O34 1.267 . S
O33 C32 1.228 . S
O34 Zn21 1.969 . S
O34 C32 1.267 . S
O35 Zn21 1.965 . S
O35 C39 1.260 1_455 S
O36 Zn20 1.969 . S
O36 C39 1.258 . S
O37 Zn21 2.024 . S
O37 C24 1.058 . S
C38 O27 1.260 . S
C38 O28 1.258 . S
C39 O35 1.260 1_655 S
C39 O36 1.258 . S
Zn40 O46 1.969 . S
Zn40 O47 1.965 . S
Zn40 O51 2.024 . S
Zn40 O56 1.969 . S
Zn41 O48 1.969 . S
Zn41 O54 1.969 1_556 S
Zn41 O55 1.965 . S
Zn41 O57 2.024 . S
C42 O43 1.229 . S
C42 O51 1.058 . S
O43 C42 1.229 . S
C44 O45 1.229 . S
C44 O57 1.058 . S
O45 C44 1.229 . S
O46 Zn40 1.969 . S
O46 C49 1.267 . S
O47 Zn40 1.965 . S
O47 C58 1.260 . S
O48 Zn41 1.969 . S
O48 C58 1.258 . S
C49 O46 1.267 . S
C49 O50 1.228 . S
O50 C49 1.228 . S
O51 Zn40 2.024 . S
O51 C42 1.058 . S
C52 O53 1.228 . S
C52 O54 1.267 . S
O53 C52 1.228 . S
O54 Zn41 1.969 1_554 S
O54 C52 1.267 . S
O55 Zn41 1.965 . S
O55 C59 1.261 . S
O56 Zn40 1.969 . S
O56 C59 1.272 . S
O57 Zn41 2.024 . S
O57 C44 1.058 . S
C58 O47 1.260 . S
C58 O48 1.258 . S
C59 O55 1.261 . S
C59 O56 1.272 . S
Zn60 O66 1.969 . S
Zn60 O67 1.965 . S
Zn60 O71 2.024 . S
Zn60 O76 1.969 . S
Zn61 O68 1.969 . S
Zn61 O74 1.969 . S
Zn61 O75 1.965 . S
Zn61 O77 2.024 . S
C62 O63 1.229 . S
C62 O71 1.058 . S
O63 C62 1.229 . S
C64 O65 1.229 . S
C64 O77 1.058 . S
O65 C64 1.229 . S
O66 Zn60 1.969 . S
O66 C69 1.267 . S
O67 Zn60 1.965 . S
O67 C78 1.260 . S
O68 Zn61 1.969 . S
O68 C78 1.258 . S
C69 O66 1.267 . S
C69 O70 1.228 . S
O70 C69 1.228 . S
O71 Zn60 2.024 . S
O71 C62 1.058 . S
C72 O73 1.228 . S
C72 O74 1.267 . S
O73 C72 1.228 . S
O74 Zn61 1.969 . S
O74 C72 1.267 . S
O75 Zn61 1.965 . S
O75 C79 1.260 . S
O76 Zn60 1.969 . S
O76 C79 1.258 . S
O77 Zn61 2.024 . S
O77 C64 1.058 . S
C78 O67 1.260 . S
C78 O68 1.258 . S
C79 O75 1.260 . S
C79 O76 1.258 . S
Zn80 O86 1.969 . S
Zn80 O87 1.965 . S
Zn80 O91 2.024 . S
Zn80 O96 1.969 . S
Zn81 O88 1.969 . S
Zn81 O94 1.969 . S
Zn81 O95 1.965 . S
Zn81 O97 2.024 . S
C82 O83 1.229 . S
C82 O91 1.058 . S
O83 C82 1.229 . S
C84 O85 1.229 . S
C84 O97 1.058 . S
O85 C84 1.229 . S
O86 Zn80 1.969 . S
O86 C89 1.267 . S
O87 Zn80 1.965 . S
O87 C98 1.260 . S
O88 Zn81 1.969 . S
O88 C98 1.258 . S
C89 O86 1.267 . S
C89 O90 1.228 . S
O90 C89 1.228 . S
O91 Zn80 2.024 . S
O91 C82 1.058 . S
C92 O93 1.228 . S
C92 O94 1.267 . S
O93 C92 1.228 . S
O94 Zn81 1.969 . S
O94 C92 1.267 . S
O95 Zn81 1.965 . S
O95 C99 1.260 . S
O96 Zn80 1.969 . S
O96 C99 1.258 . S
O97 Zn81 2.024 . S
O97 C84 1.058 . S
C98 O87 1.260 . S
C98 O88 1.258 . S
C99 O95 1.260 . S
C99 O96 1.258 . S
Zn100 O106 1.969 . S
Zn100 O107 1.965 . S
Zn100 O111 2.024 . S
Zn100 O116 1.969 . S
Zn101 O108 1.969 . S
Zn101 O114 1.969 1_655 S
Zn101 O115 1.965 1_655 S
Zn101 O117 2.024 . S
C102 O103 1.229 . S
C102 O111 1.057 . S
O103 C102 1.229 . S
C104 O105 1.229 . S
C104 O117 1.058 . S
O105 C104 1.229 . S
O106 Zn100 1.969 . S
O106 C109 1.267 . S
O107 Zn100 1.965 . S
O107 C118 1.260 . S
O108 Zn101 1.969 . S
O108 C118 1.258 . S
C109 O106 1.267 . S
C109 O110 1.228 . S
O110 C109 1.228 . S
O111 Zn100 2.024 . S
O111 C102 1.057 . S
C112 O113 1.228 . S
C112 O114 1.267 . S
O113 C112 1.228 . S
O114 Zn101 1.969 1_455 S
O114 C112 1.267 . S
O115 Zn101 1.965 1_455 S
O115 C119 1.260 . S
O116 Zn100 1.969 . S
O116 C119 1.258 1_655 S
O117 Zn101 2.024 . S
O117 C104 1.058 . S
C118 O107 1.260 . S
C118 O108 1.258 . S
C119 O115 1.260 . S
C119 O116 1.258 1_455 S
Zn120 O126 1.969 . S
Zn120 O127 1.965 1_556 S
Zn120 O131 2.024 . S
Zn120 O136 1.969 . S
Zn121 O128 1.969 . S
Zn121 O134 1.969 . S
Zn121 O135 1.965 . S
Zn121 O137 2.024 . S
C122 O123 1.229 . S
C122 O131 1.058 . S
O123 C122 1.229 . S
C124 O125 1.229 . S
C124 O137 1.058 . S
O125 C124 1.229 . S
O126 Zn120 1.969 . S
O126 C129 1.267 . S
O127 Zn120 1.965 1_554 S
O127 C138 1.260 . S
O128 Zn121 1.969 . S
O128 C138 1.258 . S
C129 O126 1.267 . S
C129 O130 1.228 . S
O130 C129 1.228 . S
O131 Zn120 2.024 . S
O131 C122 1.058 . S
C132 O133 1.228 . S
C132 O134 1.267 . S
O133 C132 1.228 . S
O134 Zn121 1.969 . S
O134 C132 1.267 . S
O135 Zn121 1.965 . S
O135 C139 1.274 . S
O136 Zn120 1.969 . S
O136 C139 1.246 1_556 S
O137 Zn121 2.024 . S
O137 C124 1.058 . S
C138 O127 1.260 . S
C138 O128 1.258 . S
C139 O135 1.274 . S
C139 O136 1.246 1_554 S
Zn140 O146 1.969 . S
Zn140 O147 1.965 . S
Zn140 O151 2.024 . S
Zn140 O156 1.969 . S
Zn141 O148 1.969 . S
Zn141 O154 1.969 . S
Zn141 O155 1.965 . S
Zn141 O157 2.024 . S
C142 O143 1.229 . S
C142 O151 1.058 . S
O143 C142 1.229 . S
C144 O145 1.229 . S
C144 O157 1.058 . S
O145 C144 1.229 . S
O146 Zn140 1.969 . S
O146 C149 1.267 . S
O147 Zn140 1.965 . S
O147 C158 1.260 . S
O148 Zn141 1.969 . S
O148 C158 1.258 . S
C149 O146 1.267 . S
C149 O150 1.228 . S
O150 C149 1.228 . S
O151 Zn140 2.024 . S
O151 C142 1.058 . S
C152 O153 1.228 . S
C152 O154 1.267 . S
O153 C152 1.228 . S
O154 Zn141 1.969 . S
O154 C152 1.267 . S
O155 Zn141 1.965 . S
O155 C159 1.260 . S
O156 Zn140 1.969 . S
O156 C159 1.258 . S
O157 Zn141 2.024 . S
O157 C144 1.058 . S
C158 O147 1.260 . S
C158 O148 1.258 . S
C159 O155 1.260 . S
C159 O156 1.258 . S
Zn160 O166 1.969 . S
Zn160 O167 1.965 . S
Zn160 O171 2.024 . S
Zn160 O176 1.969 . S
Zn161 O168 1.969 . S
Zn161 O174 1.969 . S
Zn161 O175 1.965 . S
Zn161 O177 2.024 . S
C162 O163 1.229 . S
C162 O171 1.058 . S
O163 C162 1.229 . S
C164 O165 1.229 . S
C164 O177 1.058 . S
O165 C164 1.229 . S
O166 Zn160 1.969 . S
O166 C169 1.267 . S
O167 Zn160 1.965 . S
O167 C178 1.260 . S
O168 Zn161 1.969 . S
O168 C178 1.258 . S
C169 O166 1.267 . S
C169 O170 1.228 . S
O170 C169 1.228 . S
O171 Zn160 2.024 . S
O171 C162 1.058 . S
C172 O173 1.228 . S
C172 O174 1.267 . S
O173 C172 1.228 . S
O174 Zn161 1.969 . S
O174 C172 1.267 . S
O175 Zn161 1.965 . S
O175 C179 1.260 . S
O176 Zn160 1.969 . S
O176 C179 1.258 . S
O177 Zn161 2.024 . S
O177 C164 1.058 . S
C178 O167 1.260 . S
C178 O168 1.258 . S
C179 O175 1.260 . S
C179 O176 1.258 . S
Zn180 O186 1.969 . S
Zn180 O187 1.965 1_565 S
Zn180 O191 2.024 . S
Zn180 O196 1.969 . S
Zn181 O188 1.969 . S
Zn181 O194 1.969 . S
Zn181 O195 1.965 . S
Zn181 O197 2.024 . S
C182 O183 1.229 . S
C182 O191 1.058 . S
O183 C182 1.229 . S
C184 O185 1.229 . S
C184 O197 1.058 . S
O185 C184 1.229 . S
O186 Zn180 1.969 . S
O186 C189 1.267 . S
O187 Zn180 1.965 1_545 S
O187 C198 1.260 . S
O188 Zn181 1.969 . S
O188 C198 1.258 . S
C189 O186 1.267 . S
C189 O190 1.228 . S
O190 C189 1.228 . S
O191 Zn180 2.024 . S
O191 C182 1.058 . S
C192 O193 1.228 . S
C192 O194 1.267 . S
O193 C192 1.228 . S
O194 Zn181 1.969 . S
O194 C192 1.267 . S
O195 Zn181 1.965 . S
O195 C199 1.260 . S
O196 Zn180 1.969 . S
O196 C199 1.258 1_565 S
O197 Zn181 2.024 . S
O197 C184 1.058 . S
C198 O187 1.260 . S
C198 O188 1.258 . S
C199 O195 1.260 . S
C199 O196 1.258 1_545 S
Zn200 O206 1.969 . S
Zn200 O207 1.965 1_545 S
Zn200 O211 2.024 . S
Zn200 O216 1.969 . S
Zn201 O208 1.969 . S
Zn201 O214 1.969 . S
Zn201 O215 1.965 . S
Zn201 O217 2.024 . S
C202 O203 1.229 . S
C202 O211 1.058 . S
O203 C202 1.229 . S
C204 O205 1.229 . S
C204 O217 1.058 . S
O205 C204 1.229 . S
O206 Zn200 1.969 . S
O206 C209 1.267 . S
O207 Zn200 1.965 1_565 S
O207 C218 1.260 . S
O208 Zn201 1.969 . S
O208 C218 1.258 . S
C209 O206 1.267 . S
C209 O210 1.228 . S
O210 C209 1.228 . S
O211 Zn200 2.024 . S
O211 C202 1.058 . S
C212 O213 1.228 . S
C212 O214 1.267 . S
O213 C212 1.228 . S
O214 Zn201 1.969 . S
O214 C212 1.267 . S
O215 Zn201 1.965 . S
O215 C219 1.260 . S
O216 Zn200 1.969 . S
O216 C219 1.258 1_545 S
O217 Zn201 2.024 . S
O217 C204 1.058 . S
C218 O207 1.260 . S
C218 O208 1.258 . S
C219 O215 1.260 . S
C219 O216 1.258 1_565 S
Zn220 O226 1.969 . S
Zn220 O227 1.965 . S
Zn220 O231 2.024 . S
Zn220 O236 1.969 . S
Zn221 O228 1.969 . S
Zn221 O234 1.969 . S
Zn221 O235 1.965 . S
Zn221 O237 2.024 . S
C222 O223 1.229 . S
C222 O231 1.058 . S
O223 C222 1.229 . S
C224 O225 1.229 . S
C224 O237 1.058 . S
O225 C224 1.229 . S
O226 Zn220 1.969 . S
O226 C229 1.267 . S
O227 Zn220 1.965 . S
O227 C238 1.260 . S
O228 Zn221 1.969 . S
O228 C238 1.258 . S
C229 O226 1.267 . S
C229 O230 1.228 . S
O230 C229 1.228 . S
O231 Zn220 2.024 . S
O231 C222 1.058 . S
C232 O233 1.228 . S
C232 O234 1.267 . S
O233 C232 1.228 . S
O234 Zn221 1.969 . S
O234 C232 1.267 . S
O235 Zn221 1.965 . S
O235 C239 1.260 . S
O236 Zn220 1.969 . S
O236 C239 1.258 . S
O237 Zn221 2.024 . S
O237 C224 1.058 . S
C238 O227 1.260 . S
C238 O228 1.258 . S
C239 O235 1.260 . S
C239 O236 1.258 . S
H240 C246 0.930 . S
H241 C249 0.930 . S
H242 C250 0.930 . S
H243 C251 0.930 . S
H244 C254 0.930 . S
H245 C255 0.930 . S
C246 H240 0.930 . S
C246 C247 1.355 . S
C246 C248 1.415 . S
C247 C246 1.355 . S
C247 C249 1.419 . S
C248 C246 1.415 . S
C248 C253 1.425 . S
C248 C255 1.409 . S
C249 H241 0.930 . S
C249 C247 1.419 . S
C249 C250 1.362 . S
C250 H242 0.930 . S
C250 C249 1.362 . S
C250 C253 1.409 . S
C251 H243 0.930 . S
C251 C252 1.355 . S
C251 C253 1.415 . S
C252 C251 1.355 . S
C252 C254 1.419 . S
C253 C248 1.425 . S
C253 C250 1.409 . S
C253 C251 1.415 . S
C254 H244 0.930 . S
C254 C252 1.419 . S
C254 C255 1.362 . S
C255 H245 0.930 . S
C255 C248 1.409 . S
C255 C254 1.362 . S
H256 C262 0.930 . S
H257 C265 0.930 . S
H258 C266 0.927 1_565 S
H259 C267 0.930 . S
H260 C270 0.930 . S
H261 C271 0.930 . S
C262 H256 0.930 . S
C262 C263 1.355 . S
C262 C264 1.415 1_545 S
C263 C262 1.355 . S
C263 C265 1.419 . S
C264 C262 1.415 1_565 S
C264 C269 1.425 . S
C264 C271 1.409 . S
C265 H257 0.930 . S
C265 C263 1.419 . S
C265 C266 1.369 . S
C266 H258 0.927 1_545 S
C266 C265 1.369 . S
C266 C269 1.406 1_545 S
C267 H259 0.930 . S
C267 C268 1.355 . S
C267 C269 1.415 . S
C268 C267 1.355 . S
C268 C270 1.419 . S
C269 C264 1.425 . S
C269 C266 1.406 1_565 S
C269 C267 1.415 . S
C270 H260 0.930 . S
C270 C268 1.419 . S
C270 C271 1.362 . S
C271 H261 0.930 . S
C271 C264 1.409 . S
C271 C270 1.362 . S
H272 C278 0.930 . S
H273 C281 0.930 . S
H274 C282 0.930 . S
H275 C283 0.930 . S
H276 C286 0.930 . S
H277 C287 0.930 . S
C278 H272 0.930 . S
C278 C279 1.355 . S
C278 C280 1.415 . S
C279 C278 1.355 . S
C279 C281 1.419 1_554 S
C280 C278 1.415 . S
C280 C285 1.425 . S
C280 C287 1.409 . S
C281 H273 0.930 . S
C281 C279 1.419 1_556 S
C281 C282 1.362 1_556 S
C282 H274 0.930 . S
C282 C281 1.362 1_554 S
C282 C285 1.409 . S
C283 H275 0.930 . S
C283 C284 1.355 . S
C283 C285 1.415 . S
C284 C283 1.355 . S
C284 C286 1.419 . S
C285 C280 1.425 . S
C285 C282 1.409 . S
C285 C283 1.415 . S
C286 H276 0.930 . S
C286 C284 1.419 . S
C286 C287 1.362 . S
C287 H277 0.930 . S
C287 C280 1.409 . S
C287 C286 1.362 . S
H288 C294 0.930 . S
H289 C297 0.930 . S
H290 C298 0.930 1_565 S
H291 C299 0.951 . S
H292 C302 0.930 . S
H293 C303 0.930 . S
C294 H288 0.930 . S
C294 C295 1.355 . S
C294 C296 1.415 . S
C295 C294 1.355 . S
C295 C297 1.419 . S
C296 C294 1.415 . S
C296 C301 1.425 . S
C296 C303 1.409 . S
C297 H289 0.930 . S
C297 C295 1.419 . S
C297 C298 1.362 . S
C298 H290 0.930 1_545 S
C298 C297 1.362 . S
C298 C301 1.409 . S
C299 H291 0.951 . S
C299 C300 1.348 1_565 S
C299 C301 1.401 1_565 S
C300 C299 1.348 1_545 S
C300 C302 1.419 . S
C301 C296 1.425 . S
C301 C298 1.409 . S
C301 C299 1.401 1_545 S
C302 H292 0.930 . S
C302 C300 1.419 . S
C302 C303 1.362 . S
C303 H293 0.930 . S
C303 C296 1.409 . S
C303 C302 1.362 . S
H304 C310 0.930 . S
H305 C313 0.930 . S
H306 C314 0.930 . S
H307 C315 0.930 . S
H308 C318 0.930 . S
H309 C319 0.930 . S
C310 H304 0.930 . S
C310 C311 1.355 . S
C310 C312 1.415 . S
C311 C310 1.355 . S
C311 C313 1.419 . S
C312 C310 1.415 . S
C312 C317 1.425 . S
C312 C319 1.409 . S
C313 H305 0.930 . S
C313 C311 1.419 . S
C313 C314 1.362 . S
C314 H306 0.930 . S
C314 C313 1.362 . S
C314 C317 1.409 . S
C315 H307 0.930 . S
C315 C316 1.355 . S
C315 C317 1.415 . S
C316 C315 1.355 . S
C316 C318 1.419 . S
C317 C312 1.425 . S
C317 C314 1.409 . S
C317 C315 1.415 . S
C318 H308 0.930 . S
C318 C316 1.419 . S
C318 C319 1.362 . S
C319 H309 0.930 . S
C319 C312 1.409 . S
C319 C318 1.362 . S
H320 C326 0.930 . S
H321 C329 0.930 . S
H322 C330 0.930 . S
H323 C331 0.930 . S
H324 C334 0.930 . S
H325 C335 0.930 . S
C326 H320 0.930 . S
C326 C327 1.355 . S
C326 C328 1.415 . S
C327 C326 1.355 . S
C327 C329 1.419 . S
C328 C326 1.415 . S
C328 C333 1.425 . S
C328 C335 1.409 . S
C329 H321 0.930 . S
C329 C327 1.419 . S
C329 C330 1.362 . S
C330 H322 0.930 . S
C330 C329 1.362 . S
C330 C333 1.409 . S
C331 H323 0.930 . S
C331 C332 1.355 . S
C331 C333 1.415 . S
C332 C331 1.355 . S
C332 C334 1.419 . S
C333 C328 1.425 . S
C333 C330 1.409 . S
C333 C331 1.415 . S
C334 H324 0.930 . S
C334 C332 1.419 . S
C334 C335 1.362 . S
C335 H325 0.930 . S
C335 C328 1.409 . S
C335 C334 1.362 . S
H336 C342 0.930 . S
H337 C345 0.930 . S
H338 C346 0.930 . S
H339 C347 0.930 . S
H340 C350 0.930 . S
H341 C351 0.930 . S
C342 H336 0.930 . S
C342 C343 1.355 1_554 S
C342 C344 1.415 . S
C343 C342 1.355 1_556 S
C343 C345 1.419 . S
C344 C342 1.415 . S
C344 C349 1.425 1_554 S
C344 C351 1.409 . S
C345 H337 0.930 . S
C345 C343 1.419 . S
C345 C346 1.362 . S
C346 H338 0.930 . S
C346 C345 1.362 . S
C346 C349 1.409 . S
C347 H339 0.930 . S
C347 C348 1.355 . S
C347 C349 1.415 . S
C348 C347 1.355 . S
C348 C350 1.419 1_556 S
C349 C344 1.425 1_556 S
C349 C346 1.409 . S
C349 C347 1.415 . S
C350 H340 0.930 . S
C350 C348 1.419 1_554 S
C350 C351 1.362 . S
C351 H341 0.930 . S
C351 C344 1.409 . S
C351 C350 1.362 . S
H352 C358 0.930 . S
H353 C361 0.930 . S
H354 C362 0.930 . S
H355 C363 0.930 . S
H356 C366 0.930 . S
H357 C367 0.930 . S
C358 H352 0.930 . S
C358 C359 1.355 . S
C358 C360 1.415 . S
C359 C358 1.355 . S
C359 C361 1.419 . S
C360 C358 1.415 . S
C360 C365 1.425 . S
C360 C367 1.409 . S
C361 H353 0.930 . S
C361 C359 1.419 . S
C361 C362 1.362 . S
C362 H354 0.930 . S
C362 C361 1.362 . S
C362 C365 1.409 . S
C363 H355 0.930 . S
C363 C364 1.355 . S
C363 C365 1.415 . S
C364 C363 1.355 . S
C364 C366 1.419 . S
C365 C360 1.425 . S
C365 C362 1.409 . S
C365 C363 1.415 . S
C366 H356 0.930 . S
C366 C364 1.419 . S
C366 C367 1.362 . S
C367 H357 0.930 . S
C367 C360 1.409 . S
C367 C366 1.362 . S
H368 C374 0.930 . S
H369 C377 0.930 . S
H370 C378 0.930 . S
H371 C379 0.930 . S
H372 C382 0.930 . S
H373 C383 0.930 . S
C374 H368 0.930 . S
C374 C375 1.355 . S
C374 C376 1.415 . S
C375 C374 1.355 . S
C375 C377 1.419 . S
C376 C374 1.415 . S
C376 C381 1.425 . S
C376 C383 1.409 . S
C377 H369 0.930 . S
C377 C375 1.419 . S
C377 C378 1.362 . S
C378 H370 0.930 . S
C378 C377 1.362 . S
C378 C381 1.409 . S
C379 H371 0.930 . S
C379 C380 1.355 . S
C379 C381 1.415 . S
C380 C379 1.355 . S
C380 C382 1.419 . S
C381 C376 1.425 . S
C381 C378 1.409 . S
C381 C379 1.415 . S
C382 H372 0.930 . S
C382 C380 1.419 . S
C382 C383 1.362 . S
C383 H373 0.930 . S
C383 C376 1.409 . S
C383 C382 1.362 . S
H384 C390 0.930 . S
H385 C393 0.930 1_655 S
H386 C394 0.930 . S
H387 C395 0.930 1_655 S
H388 C398 0.930 . S
H389 C399 0.930 . S
C390 H384 0.930 . S
C390 C391 1.355 . S
C390 C392 1.415 . S
C391 C390 1.355 . S
C391 C393 1.419 . S
C392 C390 1.415 . S
C392 C397 1.425 . S
C392 C399 1.409 . S
C393 H385 0.930 1_455 S
C393 C391 1.419 . S
C393 C394 1.362 1_455 S
C394 H386 0.930 . S
C394 C393 1.362 1_655 S
C394 C397 1.409 1_655 S
C395 H387 0.930 1_455 S
C395 C396 1.355 . S
C395 C397 1.415 . S
C396 C395 1.355 . S
C396 C398 1.419 . S
C397 C392 1.425 . S
C397 C394 1.409 1_455 S
C397 C395 1.415 . S
C398 H388 0.930 . S
C398 C396 1.419 . S
C398 C399 1.362 . S
C399 H389 0.930 . S
C399 C392 1.409 . S
C399 C398 1.362 . S
H400 C406 0.930 1_455 S
H401 C409 0.930 . S
H402 C410 0.930 . S
H403 C411 0.930 . S
H404 C414 0.930 . S
H405 C415 0.930 1_455 S
C406 H400 0.930 1_655 S
C406 C407 1.355 . S
C406 C408 1.415 . S
C407 C406 1.355 . S
C407 C409 1.419 . S
C408 C406 1.415 . S
C408 C413 1.425 . S
C408 C415 1.409 . S
C409 H401 0.930 . S
C409 C407 1.419 . S
C409 C410 1.362 . S
C410 H402 0.930 . S
C410 C409 1.362 . S
C410 C413 1.409 . S
C411 H403 0.930 . S
C411 C412 1.355 . S
C411 C413 1.415 . S
C412 C411 1.355 . S
C412 C414 1.419 . S
C413 C408 1.425 . S
C413 C410 1.409 . S
C413 C411 1.415 . S
C414 H404 0.930 . S
C414 C412 1.419 . S
C414 C415 1.362 . S
C415 H405 0.930 1_655 S
C415 C408 1.409 . S
C415 C414 1.362 . S
H416 C422 0.930 . S
H417 C425 0.930 . S
H418 C426 0.930 . S
H419 C427 0.930 . S
H420 C430 0.930 . S
H421 C431 0.930 . S
C422 H416 0.930 . S
C422 C423 1.355 . S
C422 C424 1.415 . S
C423 C422 1.355 . S
C423 C425 1.419 . S
C424 C422 1.415 . S
C424 C429 1.425 . S
C424 C431 1.409 . S
C425 H417 0.930 . S
C425 C423 1.419 . S
C425 C426 1.362 . S
C426 H418 0.930 . S
C426 C425 1.362 . S
C426 C429 1.409 . S
C427 H419 0.930 . S
C427 C428 1.355 . S
C427 C429 1.415 . S
C428 C427 1.355 . S
C428 C430 1.419 . S
C429 C424 1.425 . S
C429 C426 1.409 . S
C429 C427 1.415 . S
C430 H420 0.930 . S
C430 C428 1.419 . S
C430 C431 1.362 . S
C431 H421 0.930 . S
C431 C424 1.409 . S
C431 C430 1.362 . S
H432 C438 0.930 . S
H433 C441 0.930 . S
H434 C442 0.930 . S
H435 C443 0.930 . S
H436 C446 0.930 . S
H437 C447 0.930 . S
C438 H432 0.930 . S
C438 C439 1.355 . S
C438 C440 1.415 . S
C439 C438 1.355 . S
C439 C441 1.419 . S
C440 C438 1.415 . S
C440 C445 1.425 . S
C440 C447 1.409 . S
C441 H433 0.930 . S
C441 C439 1.419 . S
C441 C442 1.362 . S
C442 H434 0.930 . S
C442 C441 1.362 . S
C442 C445 1.409 . S
C443 H435 0.930 . S
C443 C444 1.355 . S
C443 C445 1.415 . S
C444 C443 1.355 . S
C444 C446 1.419 . S
C445 C440 1.425 . S
C445 C442 1.409 . S
C445 C443 1.415 . S
C446 H436 0.930 . S
C446 C444 1.419 . S
C446 C447 1.362 . S
C447 H437 0.930 . S
C447 C440 1.409 . S
C447 C446 1.362 . S
H448 C454 0.930 . S
H449 C457 0.930 . S
H450 C458 0.930 . S
H451 C459 0.930 . S
H452 C462 0.930 . S
H453 C463 0.930 . S
C454 H448 0.930 . S
C454 C455 1.355 . S
C454 C456 1.415 . S
C455 C454 1.355 . S
C455 C457 1.419 . S
C456 C454 1.415 . S
C456 C461 1.425 . S
C456 C463 1.409 . S
C457 H449 0.930 . S
C457 C455 1.419 . S
C457 C458 1.362 . S
C458 H450 0.930 . S
C458 C457 1.362 . S
C458 C461 1.409 . S
C459 H451 0.930 . S
C459 C460 1.355 . S
C459 C461 1.415 . S
C460 C459 1.355 . S
C460 C462 1.419 . S
C461 C456 1.425 . S
C461 C458 1.409 . S
C461 C459 1.415 . S
C462 H452 0.930 . S
C462 C460 1.419 . S
C462 C463 1.362 . S
C463 H453 0.930 . S
C463 C456 1.409 . S
C463 C462 1.362 . S
H464 C470 0.930 . S
H465 C473 0.930 . S
H466 C474 0.930 . S
H467 C475 0.930 . S
H468 C478 0.930 . S
H469 C479 0.930 . S
C470 H464 0.930 . S
C470 C471 1.355 . S
C470 C472 1.415 . S
C471 C470 1.355 . S
C471 C473 1.419 . S
C472 C470 1.415 . S
C472 C477 1.425 . S
C472 C479 1.409 . S
C473 H465 0.930 . S
C473 C471 1.419 . S
C473 C474 1.362 . S
C474 H466 0.930 . S
C474 C473 1.362 . S
C474 C477 1.409 . S
C475 H467 0.930 . S
C475 C476 1.355 . S
C475 C477 1.415 . S
C476 C475 1.355 . S
C476 C478 1.419 . S
C477 C472 1.425 . S
C477 C474 1.409 . S
C477 C475 1.415 . S
C478 H468 0.930 . S
C478 C476 1.419 . S
C478 C479 1.362 . S
C479 H469 0.930 . S
C479 C472 1.409 . S
C479 C478 1.362 . S
H480 C486 0.930 . S
H481 C489 0.930 . S
H482 C490 0.930 . S
H483 C491 0.930 . S
H484 C494 0.930 . S
H485 C495 0.930 . S
C486 H480 0.930 . S
C486 C487 1.355 . S
C486 C488 1.415 . S
C487 C486 1.355 . S
C487 C489 1.419 . S
C488 C486 1.415 . S
C488 C493 1.425 . S
C488 C495 1.409 1_554 S
C489 H481 0.930 . S
C489 C487 1.419 . S
C489 C490 1.362 . S
C490 H482 0.930 . S
C490 C489 1.362 . S
C490 C493 1.409 . S
C491 H483 0.930 . S
C491 C492 1.355 . S
C491 C493 1.415 1_556 S
C492 C491 1.355 . S
C492 C494 1.419 . S
C493 C488 1.425 . S
C493 C490 1.409 . S
C493 C491 1.415 1_554 S
C494 H484 0.930 . S
C494 C492 1.419 . S
C494 C495 1.362 . S
C495 H485 0.930 . S
C495 C488 1.409 1_556 S
C495 C494 1.362 . S
H496 C502 0.930 . S
H497 C505 0.930 . S
H498 C506 0.930 . S
H499 C507 0.930 . S
H500 C510 0.930 . S
H501 C511 0.930 . S
C502 H496 0.930 . S
C502 C503 1.355 . S
C502 C504 1.415 . S
C503 C502 1.355 . S
C503 C505 1.419 . S
C504 C502 1.415 . S
C504 C509 1.425 . S
C504 C511 1.409 . S
C505 H497 0.930 . S
C505 C503 1.419 . S
C505 C506 1.362 . S
C506 H498 0.930 . S
C506 C505 1.362 . S
C506 C509 1.409 . S
C507 H499 0.930 . S
C507 C508 1.355 . S
C507 C509 1.415 . S
C508 C507 1.355 . S
C508 C510 1.419 . S
C509 C504 1.425 . S
C509 C506 1.409 . S
C509 C507 1.415 . S
C510 H500 0.930 . S
C510 C508 1.419 . S
C510 C511 1.362 . S
C511 H501 0.930 . S
C511 C504 1.409 . S
C511 C510 1.362 . S
H512 C518 0.930 . S
H513 C521 0.920 1_554 S
H514 C522 0.930 . S
H515 C523 0.930 . S
H516 C526 0.930 . S
H517 C527 0.930 . S
C518 H512 0.930 . S
C518 C519 1.355 . S
C518 C520 1.415 1_554 S
C519 C518 1.355 . S
C519 C521 1.402 1_554 S
C520 C518 1.415 1_556 S
C520 C525 1.425 . S
C520 C527 1.409 . S
C521 H513 0.920 1_556 S
C521 C519 1.402 1_556 S
C521 C522 1.390 . S
C522 H514 0.930 . S
C522 C521 1.390 . S
C522 C525 1.409 . S
C523 H515 0.930 . S
C523 C524 1.355 . S
C523 C525 1.415 . S
C524 C523 1.355 . S
C524 C526 1.419 . S
C525 C520 1.425 . S
C525 C522 1.409 . S
C525 C523 1.415 . S
C526 H516 0.930 . S
C526 C524 1.419 . S
C526 C527 1.362 . S
C527 H517 0.930 . S
C527 C520 1.409 . S
C527 C526 1.362 . S
H528 C534 0.930 . S
H529 C537 0.930 . S
H530 C538 0.930 . S
H531 C539 0.930 . S
H532 C542 0.930 . S
H533 C543 0.930 . S
C534 H528 0.930 . S
C534 C535 1.355 . S
C534 C536 1.415 . S
C535 C534 1.355 . S
C535 C537 1.419 . S
C536 C534 1.415 . S
C536 C541 1.425 . S
C536 C543 1.409 . S
C537 H529 0.930 . S
C537 C535 1.419 . S
C537 C538 1.362 . S
C538 H530 0.930 . S
C538 C537 1.362 . S
C538 C541 1.409 . S
C539 H531 0.930 . S
C539 C540 1.355 . S
C539 C541 1.415 . S
C540 C539 1.355 . S
C540 C542 1.419 . S
C541 C536 1.425 . S
C541 C538 1.409 . S
C541 C539 1.415 . S
C542 H532 0.930 . S
C542 C540 1.419 . S
C542 C543 1.362 . S
C543 H533 0.930 . S
C543 C536 1.409 . S
C543 C542 1.362 . S
H544 C550 0.930 . S
H545 C553 0.930 . S
H546 C554 0.930 . S
H547 C555 0.930 . S
H548 C558 0.930 . S
H549 C559 0.930 . S
C550 H544 0.930 . S
C550 C551 1.355 . S
C550 C552 1.415 . S
C551 C550 1.355 . S
C551 C553 1.419 . S
C552 C550 1.415 . S
C552 C557 1.425 . S
C552 C559 1.409 . S
C553 H545 0.930 . S
C553 C551 1.419 . S
C553 C554 1.362 . S
C554 H546 0.930 . S
C554 C553 1.362 . S
C554 C557 1.409 . S
C555 H547 0.930 . S
C555 C556 1.355 . S
C555 C557 1.415 . S
C556 C555 1.355 . S
C556 C558 1.419 . S
C557 C552 1.425 . S
C557 C554 1.409 . S
C557 C555 1.415 . S
C558 H548 0.930 . S
C558 C556 1.419 . S
C558 C559 1.362 . S
C559 H549 0.930 . S
C559 C552 1.409 . S
C559 C558 1.362 . S
H560 C566 0.930 . S
H561 C569 0.930 . S
H562 C570 0.930 . S
H563 C571 0.930 . S
H564 C574 0.930 . S
H565 C575 0.930 . S
C566 H560 0.930 . S
C566 C567 1.355 . S
C566 C568 1.415 . S
C567 C566 1.355 . S
C567 C569 1.419 . S
C568 C566 1.415 . S
C568 C573 1.425 . S
C568 C575 1.409 . S
C569 H561 0.930 . S
C569 C567 1.419 . S
C569 C570 1.362 . S
C570 H562 0.930 . S
C570 C569 1.362 . S
C570 C573 1.409 . S
C571 H563 0.930 . S
C571 C572 1.355 . S
C571 C573 1.415 . S
C572 C571 1.355 . S
C572 C574 1.419 . S
C573 C568 1.425 . S
C573 C570 1.409 . S
C573 C571 1.415 . S
C574 H564 0.930 . S
C574 C572 1.419 . S
C574 C575 1.362 . S
C575 H565 0.930 . S
C575 C568 1.409 . S
C575 C574 1.362 . S
H576 C582 0.930 . S
H577 C585 0.930 . S
H578 C586 0.930 . S
H579 C587 0.930 . S
H580 C590 0.930 . S
H581 C591 0.930 . S
C582 H576 0.930 . S
C582 C583 1.355 . S
C582 C584 1.415 . S
C583 C582 1.355 . S
C583 C585 1.419 . S
C584 C582 1.415 . S
C584 C589 1.425 . S
C584 C591 1.409 1_545 S
C585 H577 0.930 . S
C585 C583 1.419 . S
C585 C586 1.362 . S
C586 H578 0.930 . S
C586 C585 1.362 . S
C586 C589 1.409 . S
C587 H579 0.930 . S
C587 C588 1.355 . S
C587 C589 1.415 1_565 S
C588 C587 1.355 . S
C588 C590 1.419 . S
C589 C584 1.425 . S
C589 C586 1.409 . S
C589 C587 1.415 1_545 S
C590 H580 0.930 . S
C590 C588 1.419 . S
C590 C591 1.362 . S
C591 H581 0.930 . S
C591 C584 1.409 1_565 S
C591 C590 1.362 . S
H592 C598 0.930 . S
H593 C601 0.930 . S
H594 C602 0.930 . S
H595 C603 0.930 . S
H596 C606 0.930 . S
H597 C607 0.930 . S
C598 H592 0.930 . S
C598 C599 1.355 . S
C598 C600 1.415 . S
C599 C598 1.355 . S
C599 C601 1.419 . S
C600 C598 1.415 . S
C600 C605 1.425 . S
C600 C607 1.409 . S
C601 H593 0.930 . S
C601 C599 1.419 . S
C601 C602 1.362 . S
C602 H594 0.930 . S
C602 C601 1.362 . S
C602 C605 1.409 . S
C603 H595 0.930 . S
C603 C604 1.355 . S
C603 C605 1.415 . S
C604 C603 1.355 . S
C604 C606 1.419 . S
C605 C600 1.425 . S
C605 C602 1.409 . S
C605 C603 1.415 . S
C606 H596 0.930 . S
C606 C604 1.419 . S
C606 C607 1.362 . S
C607 H597 0.930 . S
C607 C600 1.409 . S
C607 C606 1.362 . S
H608 C614 0.930 . S
H609 C617 0.930 . S
H610 C618 0.930 . S
H611 C619 0.930 . S
H612 C622 0.930 . S
H613 C623 0.930 . S
C614 H608 0.930 . S
C614 C615 1.355 . S
C614 C616 1.415 1_545 S
C615 C614 1.355 . S
C615 C617 1.419 . S
C616 C614 1.415 1_565 S
C616 C621 1.425 . S
C616 C623 1.409 . S
C617 H609 0.930 . S
C617 C615 1.419 . S
C617 C618 1.362 1_545 S
C618 H610 0.930 . S
C618 C617 1.362 1_565 S
C618 C621 1.409 . S
C619 H611 0.930 . S
C619 C620 1.355 . S
C619 C621 1.415 . S
C620 C619 1.355 . S
C620 C622 1.419 . S
C621 C616 1.425 . S
C621 C618 1.409 . S
C621 C619 1.415 . S
C622 H612 0.930 . S
C622 C620 1.419 . S
C622 C623 1.362 . S
C623 H613 0.930 . S
C623 C616 1.409 . S
C623 C622 1.362 . S
H624 C630 0.930 . S
H625 C633 0.930 . S
H626 C634 0.930 . S
H627 C635 0.930 . S
H628 C638 0.930 . S
H629 C639 0.930 . S
C630 H624 0.930 . S
C630 C631 1.355 . S
C630 C632 1.415 . S
C631 C630 1.355 . S
C631 C633 1.419 . S
C632 C630 1.415 . S
C632 C637 1.425 . S
C632 C639 1.409 . S
C633 H625 0.930 . S
C633 C631 1.419 . S
C633 C634 1.362 . S
C634 H626 0.930 . S
C634 C633 1.362 . S
C634 C637 1.409 . S
C635 H627 0.930 . S
C635 C636 1.355 . S
C635 C637 1.415 . S
C636 C635 1.355 . S
C636 C638 1.419 . S
C637 C632 1.425 . S
C637 C634 1.409 . S
C637 C635 1.415 . S
C638 H628 0.930 . S
C638 C636 1.419 . S
C638 C639 1.362 . S
C639 H629 0.930 . S
C639 C632 1.409 . S
C639 C638 1.362 . S
H640 C646 0.930 . S
H641 C649 0.930 . S
H642 C650 0.930 . S
H643 C651 0.930 . S
H644 C654 0.930 . S
H645 C655 0.930 . S
C646 H640 0.930 . S
C646 C647 1.355 . S
C646 C648 1.415 . S
C647 C646 1.355 . S
C647 C649 1.419 . S
C648 C646 1.415 . S
C648 C653 1.425 . S
C648 C655 1.409 . S
C649 H641 0.930 . S
C649 C647 1.419 . S
C649 C650 1.362 . S
C650 H642 0.930 . S
C650 C649 1.362 . S
C650 C653 1.409 . S
C651 H643 0.930 . S
C651 C652 1.355 . S
C651 C653 1.415 . S
C652 C651 1.355 . S
C652 C654 1.419 . S
C653 C648 1.425 . S
C653 C650 1.409 . S
C653 C651 1.415 . S
C654 H644 0.930 . S
C654 C652 1.419 . S
C654 C655 1.362 . S
C655 H645 0.930 . S
C655 C648 1.409 . S
C655 C654 1.362 . S
H656 C662 0.930 . S
H657 C665 0.930 . S
H658 C666 0.930 . S
H659 C667 0.930 . S
H660 C670 0.930 . S
H661 C671 0.930 . S
C662 H656 0.930 . S
C662 C663 1.355 . S
C662 C664 1.415 . S
C663 C662 1.355 . S
C663 C665 1.419 . S
C664 C662 1.415 . S
C664 C669 1.425 . S
C664 C671 1.409 . S
C665 H657 0.930 . S
C665 C663 1.419 . S
C665 C666 1.362 . S
C666 H658 0.930 . S
C666 C665 1.362 . S
C666 C669 1.409 . S
C667 H659 0.930 . S
C667 C668 1.355 . S
C667 C669 1.415 . S
C668 C667 1.355 . S
C668 C670 1.419 . S
C669 C664 1.425 . S
C669 C666 1.409 . S
C669 C667 1.415 . S
C670 H660 0.930 . S
C670 C668 1.419 . S
C670 C671 1.362 . S
C671 H661 0.930 . S
C671 C664 1.409 . S
C671 C670 1.362 . S
H672 C678 0.930 . S
H673 C681 0.930 . S
H674 C682 0.930 . S
H675 C683 0.930 . S
H676 C686 0.930 . S
H677 C687 0.930 . S
C678 H672 0.930 . S
C678 C679 1.355 . S
C678 C680 1.415 . S
C679 C678 1.355 . S
C679 C681 1.419 . S
C680 C678 1.415 . S
C680 C685 1.425 . S
C680 C687 1.409 . S
C681 H673 0.930 . S
C681 C679 1.419 . S
C681 C682 1.362 . S
C682 H674 0.930 . S
C682 C681 1.362 . S
C682 C685 1.409 . S
C683 H675 0.930 . S
C683 C684 1.355 . S
C683 C685 1.415 . S
C684 C683 1.355 . S
C684 C686 1.419 . S
C685 C680 1.425 . S
C685 C682 1.409 . S
C685 C683 1.415 . S
C686 H676 0.930 . S
C686 C684 1.419 . S
C686 C687 1.362 . S
C687 H677 0.930 . S
C687 C680 1.409 . S
C687 C686 1.362 . S
H688 C694 0.930 . S
H689 C697 0.930 . S
H690 C698 0.930 . S
H691 C699 0.930 . S
H692 C702 0.930 . S
H693 C703 0.930 . S
C694 H688 0.930 . S
C694 C695 1.355 . S
C694 C696 1.415 . S
C695 C694 1.355 . S
C695 C697 1.419 . S
C696 C694 1.415 . S
C696 C701 1.425 . S
C696 C703 1.409 . S
C697 H689 0.930 . S
C697 C695 1.419 . S
C697 C698 1.362 . S
C698 H690 0.930 . S
C698 C697 1.362 . S
C698 C701 1.409 . S
C699 H691 0.930 . S
C699 C700 1.355 . S
C699 C701 1.415 . S
C700 C699 1.355 . S
C700 C702 1.419 . S
C701 C696 1.425 . S
C701 C698 1.409 . S
C701 C699 1.415 . S
C702 H692 0.930 . S
C702 C700 1.419 . S
C702 C703 1.362 . S
C703 H693 0.930 . S
C703 C696 1.409 . S
C703 C702 1.362 . S
H704 C710 0.930 . S
H705 C713 0.930 . S
H706 C714 0.930 . S
H707 C715 0.930 . S
H708 C718 0.930 . S
H709 C719 0.930 . S
C710 H704 0.930 . S
C710 C711 1.355 . S
C710 C712 1.415 . S
C711 C710 1.355 . S
C711 C713 1.419 . S
C712 C710 1.415 . S
C712 C717 1.425 . S
C712 C719 1.409 . S
C713 H705 0.930 . S
C713 C711 1.419 . S
C713 C714 1.362 . S
C714 H706 0.930 . S
C714 C713 1.362 . S
C714 C717 1.409 . S
C715 H707 0.930 . S
C715 C716 1.355 . S
C715 C717 1.415 . S
C716 C715 1.355 . S
C716 C718 1.419 . S
C717 C712 1.425 . S
C717 C714 1.409 . S
C717 C715 1.415 . S
C718 H708 0.930 . S
C718 C716 1.419 . S
C718 C719 1.362 . S
C719 H709 0.930 . S
C719 C712 1.409 . S
C719 C718 1.362 . S
H720 C726 0.930 . S
H721 C729 0.930 . S
H722 C730 0.930 . S
H723 C731 0.930 . S
H724 C734 0.930 . S
H725 C735 0.930 . S
C726 H720 0.930 . S
C726 C727 1.355 . S
C726 C728 1.415 . S
C727 C726 1.355 . S
C727 C729 1.419 . S
C728 C726 1.415 . S
C728 C733 1.425 1_455 S
C728 C735 1.409 . S
C729 H721 0.930 . S
C729 C727 1.419 . S
C729 C730 1.362 1_455 S
C730 H722 0.930 . S
C730 C729 1.362 1_655 S
C730 C733 1.409 . S
C731 H723 0.930 . S
C731 C732 1.355 . S
C731 C733 1.415 . S
C732 C731 1.355 . S
C732 C734 1.419 . S
C733 C728 1.425 1_655 S
C733 C730 1.409 . S
C733 C731 1.415 . S
C734 H724 0.930 . S
C734 C732 1.419 . S
C734 C735 1.362 1_655 S
C735 H725 0.930 . S
C735 C728 1.409 . S
C735 C734 1.362 1_455 S
H736 C742 0.930 . S
H737 C745 0.930 . S
H738 C746 0.930 . S
H739 C747 0.930 . S
H740 C750 0.930 . S
H741 C751 0.930 . S
C742 H736 0.930 . S
C742 C743 1.355 . S
C742 C744 1.415 . S
C743 C742 1.355 . S
C743 C745 1.419 . S
C744 C742 1.415 . S
C744 C749 1.425 . S
C744 C751 1.409 . S
C745 H737 0.930 . S
C745 C743 1.419 . S
C745 C746 1.362 . S
C746 H738 0.930 . S
C746 C745 1.362 . S
C746 C749 1.409 . S
C747 H739 0.930 . S
C747 C748 1.355 . S
C747 C749 1.415 . S
C748 C747 1.355 . S
C748 C750 1.419 . S
C749 C744 1.425 . S
C749 C746 1.409 . S
C749 C747 1.415 . S
C750 H740 0.930 . S
C750 C748 1.419 . S
C750 C751 1.362 . S
C751 H741 0.930 . S
C751 C744 1.409 . S
C751 C750 1.362 . S
H752 C758 0.930 . S
H753 C761 0.930 . S
H754 C762 0.930 . S
H755 C763 0.930 . S
H756 C766 0.930 . S
H757 C767 0.930 . S
C758 H752 0.930 . S
C758 C759 1.355 . S
C758 C760 1.415 . S
C759 C758 1.355 . S
C759 C761 1.419 . S
C760 C758 1.415 . S
C760 C765 1.425 . S
C760 C767 1.409 . S
C761 H753 0.930 . S
C761 C759 1.419 . S
C761 C762 1.362 . S
C762 H754 0.930 . S
C762 C761 1.362 . S
C762 C765 1.409 . S
C763 H755 0.930 . S
C763 C764 1.355 . S
C763 C765 1.415 . S
C764 C763 1.355 . S
C764 C766 1.419 . S
C765 C760 1.425 . S
C765 C762 1.409 . S
C765 C763 1.415 . S
C766 H756 0.930 . S
C766 C764 1.419 . S
C766 C767 1.362 . S
C767 H757 0.930 . S
C767 C760 1.409 . S
C767 C766 1.362 . S
H768 C774 0.930 . S
H769 C777 0.930 . S
H770 C778 0.930 . S
H771 C779 0.930 . S
H772 C782 0.930 . S
H773 C783 0.930 . S
C774 H768 0.930 . S
C774 C775 1.355 . S
C774 C776 1.415 . S
C775 C774 1.355 . S
C775 C777 1.419 . S
C776 C774 1.415 . S
C776 C781 1.425 . S
C776 C783 1.409 . S
C777 H769 0.930 . S
C777 C775 1.419 . S
C777 C778 1.362 . S
C778 H770 0.930 . S
C778 C777 1.362 . S
C778 C781 1.409 . S
C779 H771 0.930 . S
C779 C780 1.355 . S
C779 C781 1.415 . S
C780 C779 1.355 . S
C780 C782 1.419 . S
C781 C776 1.425 . S
C781 C778 1.409 . S
C781 C779 1.415 . S
C782 H772 0.930 . S
C782 C780 1.419 . S
C782 C783 1.362 . S
C783 H773 0.930 . S
C783 C776 1.409 . S
C783 C782 1.362 . S
H784 C790 0.930 . S
H785 C793 0.930 . S
H786 C794 0.930 . S
H787 C795 0.930 . S
H788 C798 0.930 . S
H789 C799 0.930 . S
C790 H784 0.930 . S
C790 C791 1.355 . S
C790 C792 1.415 . S
C791 C790 1.355 . S
C791 C793 1.419 . S
C792 C790 1.415 . S
C792 C797 1.425 . S
C792 C799 1.409 . S
C793 H785 0.930 . S
C793 C791 1.419 . S
C793 C794 1.362 . S
C794 H786 0.930 . S
C794 C793 1.362 . S
C794 C797 1.409 . S
C795 H787 0.930 . S
C795 C796 1.355 . S
C795 C797 1.415 . S
C796 C795 1.355 . S
C796 C798 1.419 . S
C797 C792 1.425 . S
C797 C794 1.409 . S
C797 C795 1.415 . S
C798 H788 0.930 . S
C798 C796 1.419 . S
C798 C799 1.362 . S
C799 H789 0.930 . S
C799 C792 1.409 . S
C799 C798 1.362 . S
H800 C806 0.930 . S
H801 C809 0.930 . S
H802 C810 0.930 . S
H803 C811 0.930 . S
H804 C814 0.930 1_455 S
H805 C815 0.930 . S
C806 H800 0.930 . S
C806 C807 1.355 . S
C806 C808 1.415 . S
C807 C806 1.355 . S
C807 C809 1.419 . S
C808 C806 1.415 . S
C808 C813 1.425 . S
C808 C815 1.409 . S
C809 H801 0.930 . S
C809 C807 1.419 . S
C809 C810 1.362 . S
C810 H802 0.930 . S
C810 C809 1.362 . S
C810 C813 1.409 . S
C811 H803 0.930 . S
C811 C812 1.355 1_655 S
C811 C813 1.415 . S
C812 C811 1.355 1_455 S
C812 C814 1.419 1_455 S
C813 C808 1.425 . S
C813 C810 1.409 . S
C813 C811 1.415 . S
C814 H804 0.930 1_655 S
C814 C812 1.419 1_655 S
C814 C815 1.362 . S
C815 H805 0.930 . S
C815 C808 1.409 . S
C815 C814 1.362 . S
C247 C2 0.997 . S
C252 C222 0.991 . S
C263 C199 1.401 . S
C268 C22 1.302 . S
C279 C42 1.406 1_554 S
C284 C179 1.600 . S
C295 C79 1.952 . S
C300 C219 1.933 1_545 S
C311 C99 1.554 . S
C316 C202 1.407 . S
C327 C119 1.848 . S
C332 C239 1.845 . S
C343 C182 1.392 . S
C348 C139 1.609 1_556 S
C359 C159 1.401 . S
C364 C162 1.299 . S
C375 C62 0.958 . S
C380 C82 0.935 . S
C391 C19 1.590 . S
C396 C102 1.472 1_455 S
C407 C39 1.565 . S
C412 C122 1.440 . S
C423 C142 1.488 . S
C428 C59 1.618 1_554 S
C439 C9 1.670 . S
C444 C178 1.768 . S
C455 C29 1.792 . S
C460 C218 1.804 . S
C471 C224 1.342 . S
C476 C49 1.348 . S
C487 C72 1.457 . S
C492 C198 1.517 . S
C503 C92 1.038 . S
C508 C184 1.084 . S
C519 C164 1.382 . S
C524 C112 1.293 . S
C535 C204 1.668 . S
C540 C132 1.584 . S
C551 C238 1.586 . S
C556 C152 1.487 . S
C567 C18 1.586 . S
C572 C69 1.565 . S
C583 C12 1.553 . S
C588 C38 1.668 . S
C599 C32 1.709 . S
C604 C58 1.745 . S
C615 C64 1.639 . S
C620 C52 1.508 . S
C631 C109 1.186 . S
C636 C84 1.146 . S
C647 C104 1.460 . S
C652 C129 1.346 . S
C663 C124 0.951 . S
C668 C149 1.001 . S
C679 C89 1.126 . S
C684 C144 1.198 . S
C695 C169 1.623 . S
C700 C78 1.652 . S
C711 C118 1.671 . S
C716 C192 1.563 . S
C727 C172 1.492 . S
C732 C138 1.575 . S
C743 C212 1.600 . S
C748 C158 1.733 . S
C759 C98 1.211 . S
C764 C229 1.154 . S
C775 C232 1.144 . S
C780 C24 1.236 . S
C791 C44 1.059 . S
C796 C189 1.174 . S
C807 C209 1.401 . S
C812 C4 1.465 . S
