# Generated by pormake.
# Topology yff, (5)-cn, num edge types: 1
# Building blocks:
#     Node 0, Type 0, BuildingBlock: BEQFEK_clean_sbu_0, # of connection points: 5
#     Node 1, Type 0, BuildingBlock: BEQFEK_clean_sbu_0, # of connection points: 5
#     Node 2, Type 0, BuildingBlock: BEQFEK_clean_sbu_0, # of connection points: 5
#     Node 3, Type 0, BuildingBlock: BEQFEK_clean_sbu_0, # of connection points: 5
#     Node 4, Type 0, BuildingBlock: BEQFEK_clean_sbu_0, # of connection points: 5
#     Node 5, Type 0, BuildingBlock: BEQFEK_clean_sbu_0, # of connection points: 5
#     Node 6, Type 0, BuildingBlock: BEQFEK_clean_sbu_0, # of connection points: 5
#     Node 7, Type 0, BuildingBlock: BEQFEK_clean_sbu_0, # of connection points: 5
#     Node 8, Type 0, BuildingBlock: BEQFEK_clean_sbu_0, # of connection points: 5
#     Node 9, Type 0, BuildingBlock: BEQFEK_clean_sbu_0, # of connection points: 5
#     Node 10, Type 0, BuildingBlock: BEQFEK_clean_sbu_0, # of connection points: 5
#     Node 11, Type 0, BuildingBlock: BEQFEK_clean_sbu_0, # of connection points: 5
#     Node 12, Type 0, BuildingBlock: BEQFEK_clean_sbu_0, # of connection points: 5
#     Node 13, Type 0, BuildingBlock: BEQFEK_clean_sbu_0, # of connection points: 5
#     Node 14, Type 0, BuildingBlock: BEQFEK_clean_sbu_0, # of connection points: 5
#     Node 15, Type 0, BuildingBlock: BEQFEK_clean_sbu_0, # of connection points: 5
#     Edge 16, Type (0, 0), BuildingBlock: UVAHIK_clean_linker_0, # of connection points: 2
#     Edge 17, Type (0, 0), BuildingBlock: UVAHIK_clean_linker_0, # of connection points: 2
#     Edge 18, Type (0, 0), BuildingBlock: UVAHIK_clean_linker_0, # of connection points: 2
#     Edge 19, Type (0, 0), BuildingBlock: UVAHIK_clean_linker_0, # of connection points: 2
#     Edge 20, Type (0, 0), BuildingBlock: UVAHIK_clean_linker_0, # of connection points: 2
#     Edge 21, Type (0, 0), BuildingBlock: UVAHIK_clean_linker_0, # of connection points: 2
#     Edge 22, Type (0, 0), BuildingBlock: UVAHIK_clean_linker_0, # of connection points: 2
#     Edge 23, Type (0, 0), BuildingBlock: UVAHIK_clean_linker_0, # of connection points: 2
#     Edge 24, Type (0, 0), BuildingBlock: UVAHIK_clean_linker_0, # of connection points: 2
#     Edge 25, Type (0, 0), BuildingBlock: UVAHIK_clean_linker_0, # of connection points: 2
#     Edge 26, Type (0, 0), BuildingBlock: UVAHIK_clean_linker_0, # of connection points: 2
#     Edge 27, Type (0, 0), BuildingBlock: UVAHIK_clean_linker_0, # of connection points: 2
#     Edge 28, Type (0, 0), BuildingBlock: UVAHIK_clean_linker_0, # of connection points: 2
#     Edge 29, Type (0, 0), BuildingBlock: UVAHIK_clean_linker_0, # of connection points: 2
#     Edge 30, Type (0, 0), BuildingBlock: UVAHIK_clean_linker_0, # of connection points: 2
#     Edge 31, Type (0, 0), BuildingBlock: UVAHIK_clean_linker_0, # of connection points: 2
#     Edge 32, Type (0, 0), BuildingBlock: UVAHIK_clean_linker_0, # of connection points: 2
#     Edge 33, Type (0, 0), BuildingBlock: UVAHIK_clean_linker_0, # of connection points: 2
#     Edge 34, Type (0, 0), BuildingBlock: UVAHIK_clean_linker_0, # of connection points: 2
#     Edge 35, Type (0, 0), BuildingBlock: UVAHIK_clean_linker_0, # of connection points: 2
#     Edge 36, Type (0, 0), BuildingBlock: UVAHIK_clean_linker_0, # of connection points: 2
#     Edge 37, Type (0, 0), BuildingBlock: UVAHIK_clean_linker_0, # of connection points: 2
#     Edge 38, Type (0, 0), BuildingBlock: UVAHIK_clean_linker_0, # of connection points: 2
#     Edge 39, Type (0, 0), BuildingBlock: UVAHIK_clean_linker_0, # of connection points: 2
#     Edge 40, Type (0, 0), BuildingBlock: UVAHIK_clean_linker_0, # of connection points: 2
#     Edge 41, Type (0, 0), BuildingBlock: UVAHIK_clean_linker_0, # of connection points: 2
#     Edge 42, Type (0, 0), BuildingBlock: UVAHIK_clean_linker_0, # of connection points: 2
#     Edge 43, Type (0, 0), BuildingBlock: UVAHIK_clean_linker_0, # of connection points: 2
#     Edge 44, Type (0, 0), BuildingBlock: UVAHIK_clean_linker_0, # of connection points: 2
#     Edge 45, Type (0, 0), BuildingBlock: UVAHIK_clean_linker_0, # of connection points: 2
#     Edge 46, Type (0, 0), BuildingBlock: UVAHIK_clean_linker_0, # of connection points: 2
#     Edge 47, Type (0, 0), BuildingBlock: UVAHIK_clean_linker_0, # of connection points: 2
#     Edge 48, Type (0, 0), BuildingBlock: UVAHIK_clean_linker_0, # of connection points: 2
#     Edge 49, Type (0, 0), BuildingBlock: UVAHIK_clean_linker_0, # of connection points: 2
#     Edge 50, Type (0, 0), BuildingBlock: UVAHIK_clean_linker_0, # of connection points: 2
#     Edge 51, Type (0, 0), BuildingBlock: UVAHIK_clean_linker_0, # of connection points: 2
#     Edge 52, Type (0, 0), BuildingBlock: UVAHIK_clean_linker_0, # of connection points: 2
#     Edge 53, Type (0, 0), BuildingBlock: UVAHIK_clean_linker_0, # of connection points: 2
#     Edge 54, Type (0, 0), BuildingBlock: UVAHIK_clean_linker_0, # of connection points: 2
#     Edge 55, Type (0, 0), BuildingBlock: UVAHIK_clean_linker_0, # of connection points: 2
# Relax obj value: 0.513
# Max RMSD: 0.285
# Mean RMSD: 0.274
data_MOF--net-yff--node1-BEQFEK_clean_sbu_0--edge1-UVAHIK_clean_linker_0
_symmetry_space_group_name_H-M    P1
_symmetry_Int_Tables_number       1
_symmetry_cell_setting            triclinic
loop_
_symmetry_equiv_pos_as_xyz
'x, y, z'
_cell_length_a     84.074097
_cell_length_b     81.645555
_cell_length_c     35.120106
_cell_angle_alpha  89.396203
_cell_angle_beta   89.52853
_cell_angle_gamma 88.949405
loop_
_atom_site_label
_atom_site_type_symbol
_atom_site_fract_x
_atom_site_fract_y
_atom_site_fract_z
_atom_type_partial_charge
Co0 Co 0.07726 0.03304 0.31308 0.0
Co1 Co 0.11217 0.03315 0.28264 0.0
C2 C 0.09371 0.00299 0.27939 0.0
O3 O 0.08202 0.01107 0.29318 0.0
O4 O 0.10702 0.00972 0.27326 0.0
C5 C 0.05807 0.0179 0.36516 0.0
O6 O 0.07134 0.00918 0.36695 0.0
C7 C 0.14641 0.02674 0.27864 0.0
C8 C 0.15498 0.04975 0.25266 0.0
C9 C 0.1601 0.0349 0.26812 0.0
N10 N 0.13382 0.0364 0.27003 0.0
N11 N 0.13899 0.05001 0.25392 0.0
C12 C 0.14525 0.01088 0.30017 0.0
H13 H 0.13366 0.01018 0.3154 0.0
H14 H 0.15512 0.00951 0.32082 0.0
H15 H 0.14613 0.00061 0.27978 0.0
C16 C 0.09265 0.04523 0.38189 0.0
N17 N 0.09343 0.03962 0.34608 0.0
N18 N 0.10835 0.03932 0.3344 0.0
C19 C 0.11756 0.04476 0.36292 0.0
C20 C 0.10785 0.04843 0.39387 0.0
C21 C 0.07756 0.04851 0.40371 0.0
H22 H 0.06796 0.05257 0.38415 0.0
H23 H 0.07394 0.03712 0.41864 0.0
H24 H 0.07924 0.05806 0.42551 0.0
O25 O 0.07477 0.04901 0.27098 0.0
O26 O 0.09953 0.0479 0.2483 0.0
H27 H 0.13816 0.05409 0.33447 0.0
H28 H 0.13965 0.05337 0.38581 0.0
C29 C 0.13516 0.04695 0.36046 0.0
H30 H 0.14115 0.03479 0.35866 0.0
H31 H 0.13163 0.05975 0.24521 0.0
O32 O 0.05738 0.03015 0.34252 0.0
C33 C 0.08526 0.05347 0.24681 0.0
Co34 Co 0.44845 0.07676 0.83977 0.0
Co35 Co 0.45296 0.11252 0.81017 0.0
C36 C 0.47997 0.08881 0.80965 0.0
O37 O 0.47083 0.07802 0.82349 0.0
O38 O 0.47481 0.10323 0.80219 0.0
C39 C 0.45538 0.04365 0.85683 0.0
O40 O 0.46208 0.04433 0.82294 0.0
C41 C 0.46489 0.14581 0.80431 0.0
C42 C 0.44486 0.15889 0.7762 0.0
C43 C 0.45991 0.16106 0.79082 0.0
N44 N 0.45323 0.13516 0.79812 0.0
N45 N 0.44131 0.14302 0.78123 0.0
C46 C 0.48084 0.14092 0.81984 0.0
H47 H 0.48744 0.13377 0.79793 0.0
H48 H 0.47933 0.1328 0.8451 0.0
H49 H 0.48806 0.15162 0.82722 0.0
C50 C 0.4385 0.0941 0.90897 0.0
N51 N 0.44353 0.0942 0.8726 0.0
N52 N 0.4459 0.10939 0.86134 0.0
C53 C 0.44247 0.1195 0.89064 0.0
C54 C 0.43762 0.11009 0.92158 0.0
C55 C 0.43568 0.07883 0.93184 0.0
H56 H 0.4273 0.07095 0.91649 0.0
H57 H 0.4471 0.07193 0.93491 0.0
H58 H 0.43084 0.08152 0.9606 0.0
O59 O 0.43414 0.07699 0.79562 0.0
O60 O 0.43765 0.10246 0.77468 0.0
H61 H 0.43719 0.14268 0.8642 0.0
H62 H 0.43894 0.14343 0.91551 0.0
C63 C 0.44377 0.13774 0.88917 0.0
H64 H 0.45644 0.14102 0.88578 0.0
H65 H 0.43075 0.13754 0.77321 0.0
O66 O 0.44736 0.05597 0.86851 0.0
C67 C 0.43109 0.08856 0.77203 0.0
Co68 Co 0.41045 0.4646 0.32981 0.0
Co69 Co 0.37433 0.46309 0.31132 0.0
C70 C 0.39293 0.49158 0.28713 0.0
O71 O 0.40533 0.48447 0.29998 0.0
O72 O 0.3793 0.48523 0.29032 0.0
C73 C 0.43263 0.48278 0.36665 0.0
O74 O 0.42009 0.49262 0.36678 0.0
C75 C 0.34031 0.47059 0.3155 0.0
C76 C 0.33008 0.44841 0.29059 0.0
C77 C 0.32608 0.4635 0.30591 0.0
N78 N 0.35219 0.4601 0.30642 0.0
N79 N 0.34602 0.44686 0.29156 0.0
C80 C 0.34275 0.4875 0.3302 0.0
H81 H 0.35539 0.48927 0.33763 0.0
H82 H 0.33525 0.48976 0.35575 0.0
H83 H 0.33913 0.4966 0.30806 0.0
C84 C 0.39815 0.45834 0.4076 0.0
N85 N 0.39578 0.46141 0.37033 0.0
N86 N 0.38048 0.46069 0.36309 0.0
C87 C 0.37262 0.45698 0.3957 0.0
C88 C 0.38358 0.45565 0.42495 0.0
C89 C 0.41416 0.45621 0.42555 0.0
H90 H 0.42261 0.45028 0.40534 0.0
H91 H 0.41872 0.4684 0.43308 0.0
H92 H 0.41352 0.44864 0.45192 0.0
O93 O 0.41076 0.4456 0.29561 0.0
O94 O 0.38511 0.44564 0.28062 0.0
H95 H 0.3515 0.44553 0.37622 0.0
H96 H 0.35173 0.44917 0.42698 0.0
C97 C 0.35513 0.45414 0.39862 0.0
H98 H 0.34864 0.46592 0.3941 0.0
H99 H 0.3527 0.43683 0.28186 0.0
O100 O 0.4316 0.46882 0.35119 0.0
C101 C 0.39919 0.4397 0.2773 0.0
Co102 Co 0.0073 0.3639 0.80797 0.0
Co103 Co 0.03399 0.35578 0.86771 0.0
C104 C 0.00967 0.33113 0.84671 0.0
O105 O 0.00281 0.34109 0.82369 0.0
O106 O 0.02186 0.3352 0.8655 0.0
C107 C 0.97512 0.37134 0.78466 0.0
O108 O 0.97111 0.36356 0.81613 0.0
C109 C 0.04852 0.34715 0.94154 0.0
C110 C 0.0701 0.36214 0.9393 0.0
C111 C 0.06124 0.35221 0.96331 0.0
N112 N 0.04955 0.3543 0.90696 0.0
N113 N 0.06273 0.36286 0.90548 0.0
C114 C 0.0356 0.33568 0.95297 0.0
H115 H 0.02401 0.34238 0.95418 0.0
H116 H 0.03806 0.32964 0.9808 0.0
H117 H 0.03465 0.32609 0.93105 0.0
C118 C 0.0018 0.39186 0.86088 0.0
N119 N 0.00943 0.37787 0.85069 0.0
N120 N 0.02001 0.37395 0.87685 0.0
C121 C 0.01906 0.38502 0.90508 0.0
C122 C 0.00754 0.39678 0.8958 0.0
C123 C 0.99023 0.40114 0.83628 0.0
H124 H 0.99365 0.39996 0.80588 0.0
H125 H 0.97818 0.39613 0.84068 0.0
H126 H 0.98981 0.41433 0.8436 0.0
O127 O 0.02687 0.36391 0.77669 0.0
O128 O 0.04597 0.35941 0.8192 0.0
H129 H 0.041 0.38611 0.93531 0.0
H130 H 0.02383 0.39248 0.96311 0.0
C131 C 0.02827 0.38377 0.94133 0.0
H132 H 0.02718 0.3713 0.95341 0.0
H133 H 0.06621 0.36996 0.88208 0.0
O134 O 0.98975 0.37227 0.77559 0.0
C135 C 0.0415 0.36221 0.78515 0.0
Co136 Co 0.57896 0.94903 0.65518 0.0
Co137 Co 0.61337 0.95254 0.6865 0.0
C138 C 0.5903 0.98053 0.68859 0.0
O139 O 0.57993 0.97157 0.67358 0.0
O140 O 0.60419 0.97494 0.69599 0.0
C141 C 0.54681 0.95599 0.63732 0.0
O142 O 0.54698 0.96312 0.67068 0.0
C143 C 0.64673 0.96292 0.69261 0.0
C144 C 0.65691 0.94235 0.72644 0.0
C145 C 0.66073 0.95703 0.70883 0.0
N146 N 0.6352 0.95209 0.70012 0.0
N147 N 0.64138 0.93987 0.72043 0.0
C148 C 0.64412 0.97897 0.67237 0.0
H149 H 0.63133 0.98241 0.67183 0.0
H150 H 0.64839 0.97803 0.64254 0.0
H151 H 0.65095 0.9887 0.68636 0.0
C152 C 0.59651 0.94069 0.58558 0.0
N153 N 0.59628 0.94492 0.6224 0.0
N154 N 0.61095 0.94616 0.63468 0.0
C155 C 0.62106 0.94233 0.60579 0.0
C156 C 0.61216 0.93901 0.57377 0.0
C157 C 0.58193 0.93801 0.56242 0.0
H158 H 0.57526 0.94978 0.55922 0.0
H159 H 0.58488 0.93316 0.53377 0.0
H160 H 0.57412 0.92923 0.57755 0.0
O161 O 0.57858 0.93309 0.69771 0.0
O162 O 0.60283 0.93635 0.72063 0.0
H163 H 0.64236 0.93577 0.63593 0.0
H164 H 0.64417 0.93472 0.58457 0.0
C165 C 0.63878 0.94163 0.60863 0.0
H166 H 0.64336 0.95425 0.60775 0.0
H167 H 0.63499 0.9298 0.73013 0.0
O168 O 0.55912 0.94815 0.62604 0.0
C169 C 0.58933 0.92952 0.7219 0.0
Co170 Co 0.54414 0.57182 0.17098 0.0
Co171 Co 0.54032 0.60816 0.19627 0.0
C172 C 0.51265 0.5863 0.19731 0.0
O173 O 0.52158 0.57473 0.18518 0.0
O174 O 0.51819 0.60036 0.20398 0.0
C175 C 0.53632 0.5391 0.15648 0.0
O176 O 0.52908 0.54058 0.18959 0.0
C177 C 0.52886 0.64208 0.19829 0.0
C178 C 0.5488 0.65437 0.2263 0.0
C179 C 0.53385 0.65714 0.21096 0.0
N180 N 0.5404 0.63094 0.20568 0.0
N181 N 0.55228 0.63833 0.22239 0.0
C182 C 0.51295 0.63784 0.18271 0.0
H183 H 0.51445 0.6289 0.15931 0.0
H184 H 0.50619 0.64878 0.17256 0.0
H185 H 0.50588 0.63187 0.20561 0.0
C186 C 0.55505 0.58771 0.10025 0.0
N187 N 0.5498 0.58853 0.13641 0.0
N188 N 0.54767 0.60397 0.14585 0.0
C189 C 0.55146 0.61352 0.11557 0.0
C190 C 0.55632 0.60348 0.08587 0.0
C191 C 0.55754 0.57202 0.07913 0.0
H192 H 0.5657 0.5638 0.09548 0.0
H193 H 0.54597 0.56581 0.07667 0.0
H194 H 0.56249 0.57405 0.05014 0.0
O195 O 0.55814 0.57172 0.21584 0.0
O196 O 0.55519 0.59766 0.23345 0.0
H197 H 0.55705 0.63668 0.13953 0.0
H198 H 0.55545 0.63695 0.08815 0.0
C199 C 0.55046 0.63183 0.11499 0.0
H200 H 0.53784 0.63583 0.11781 0.0
H201 H 0.56272 0.6324 0.23133 0.0
O202 O 0.54502 0.55066 0.14457 0.0
C203 C 0.5614 0.58342 0.23802 0.0
Co204 Co 0.90667 0.55031 0.63576 0.0
Co205 Co 0.87295 0.54471 0.67044 0.0
C206 C 0.89546 0.51718 0.66568 0.0
O207 O 0.90542 0.52701 0.65127 0.0
O208 O 0.88161 0.5221 0.67531 0.0
C209 C 0.92466 0.53981 0.5762 0.0
O210 O 0.91094 0.53272 0.57113 0.0
C211 C 0.84101 0.5324 0.68452 0.0
C212 C 0.82878 0.55398 0.70968 0.0
C213 C 0.82653 0.53789 0.69916 0.0
N214 N 0.85131 0.54476 0.68607 0.0
N215 N 0.84396 0.55761 0.70116 0.0
C216 C 0.84555 0.51539 0.67244 0.0
H217 H 0.85209 0.51585 0.64489 0.0
H218 H 0.83516 0.50735 0.67015 0.0
H219 H 0.85372 0.50991 0.69392 0.0
C220 C 0.88744 0.56381 0.57232 0.0
N221 N 0.8887 0.55703 0.60724 0.0
N222 N 0.87452 0.55283 0.61947 0.0
C223 C 0.8639 0.55588 0.59149 0.0
C224 C 0.87177 0.56302 0.56075 0.0
C225 C 0.90119 0.56995 0.54917 0.0
H226 H 0.9115 0.57236 0.56757 0.0
H227 H 0.90454 0.56077 0.52729 0.0
H228 H 0.89783 0.58147 0.53409 0.0
O229 O 0.90847 0.56403 0.68089 0.0
O230 O 0.88453 0.55938 0.70588 0.0
H231 H 0.84091 0.55818 0.61744 0.0
H232 H 0.84048 0.55475 0.5667 0.0
C233 C 0.84672 0.55153 0.59356 0.0
H234 H 0.84568 0.53822 0.59937 0.0
H235 H 0.84932 0.56884 0.70568 0.0
O236 O 0.92605 0.54973 0.60362 0.0
C237 C 0.89808 0.5662 0.70705 0.0
Co238 Co 0.96008 0.90625 0.14356 0.0
Co239 Co 0.96475 0.87013 0.17286 0.0
C240 C 0.99201 0.89265 0.16887 0.0
O241 O 0.98267 0.90378 0.15622 0.0
O242 O 0.98692 0.87848 0.1775 0.0
C243 C 0.9673 0.93896 0.12415 0.0
O244 O 0.97521 0.93796 0.15622 0.0
C245 C 0.97494 0.8352 0.17702 0.0
C246 C 0.95584 0.82517 0.21355 0.0
C247 C 0.96967 0.82085 0.19416 0.0
N248 N 0.9646 0.8474 0.18583 0.0
N249 N 0.95323 0.84128 0.20762 0.0
C250 C 0.99002 0.83745 0.15473 0.0
H251 H 0.993 0.85056 0.15227 0.0
H252 H 0.98859 0.83265 0.12559 0.0
H253 H -7e-05 0.83049 0.1684 0.0
C254 C 0.94796 0.88942 0.07681 0.0
N255 N 0.95413 0.88901 0.11195 0.0
N256 N 0.95641 0.87368 0.12291 0.0
C257 C 0.95168 0.86381 0.09463 0.0
C258 C 0.94617 0.87351 0.06468 0.0
C259 C 0.94476 0.90486 0.05455 0.0
H260 H 0.93693 0.91315 0.07148 0.0
H261 H 0.95616 0.91116 0.04927 0.0
H262 H 0.93911 0.90247 0.02679 0.0
O263 O 0.94679 0.90687 0.19003 0.0
O264 O 0.95045 0.88127 0.21073 0.0
H265 H 0.947 0.84118 0.12366 0.0
H266 H 0.94549 0.84022 0.07232 0.0
C267 C 0.95215 0.84551 0.09627 0.0
H268 H 0.96468 0.84116 0.0946 0.0
H269 H 0.94369 0.84814 0.21862 0.0
O270 O 0.95867 0.92708 0.11469 0.0
C271 C 0.94416 0.89551 0.21432 0.0
Co272 Co 0.90967 0.95636 0.65979 0.0
Co273 Co 0.87398 0.9516 0.68139 0.0
C274 C 0.89021 0.98223 0.70038 0.0
O275 O 0.90311 0.97627 0.68717 0.0
O276 O 0.87731 0.97438 0.69952 0.0
C277 C 0.93039 0.97569 0.61919 0.0
O278 O 0.91731 0.98475 0.61901 0.0
C279 C 0.8395 0.95673 0.67956 0.0
C280 C 0.83098 0.93475 0.71022 0.0
C281 C 0.82587 0.94926 0.69311 0.0
N282 N 0.85208 0.94704 0.68824 0.0
N283 N 0.8469 0.93386 0.70627 0.0
C284 C 0.84074 0.9734 0.66173 0.0
H285 H 0.85333 0.97676 0.6573 0.0
H286 H 0.83486 0.9736 0.63361 0.0
H287 H 0.83457 0.9826 0.67994 0.0
C288 C 0.89767 0.94786 0.58388 0.0
N289 N 0.89519 0.95123 0.6209 0.0
N290 N 0.88011 0.949 0.62945 0.0
C291 C 0.87254 0.94397 0.59795 0.0
C292 C 0.88341 0.94339 0.56802 0.0
C293 C 0.9137 0.94712 0.56493 0.0
H294 H 0.92271 0.94211 0.58497 0.0
H295 H 0.91711 0.95967 0.55613 0.0
H296 H 0.91363 0.93936 0.53919 0.0
O297 O 0.91167 0.93791 0.69626 0.0
O298 O 0.88631 0.93571 0.71382 0.0
H299 H 0.85292 0.93064 0.62104 0.0
H300 H 0.85261 0.93307 0.56969 0.0
C301 C 0.8555 0.93908 0.5969 0.0
H302 H 0.84779 0.95014 0.59996 0.0
H303 H 0.85428 0.92448 0.71682 0.0
O304 O 0.9303 0.96189 0.63632 0.0
C305 C 0.90088 0.93122 0.7165 0.0
Co306 Co 0.5359 0.90981 0.16066 0.0
Co307 Co 0.5336 0.87365 0.1898 0.0
C308 C 0.50547 0.89623 0.19229 0.0
O309 O 0.51371 0.90752 0.17741 0.0
O310 O 0.51157 0.88222 0.19992 0.0
C311 C 0.52752 0.9427 0.14408 0.0
O312 O 0.52072 0.94164 0.17781 0.0
C313 C 0.52374 0.8393 0.19226 0.0
C314 C 0.54242 0.82809 0.22857 0.0
C315 C 0.52872 0.82461 0.20882 0.0
N316 N 0.5341 0.85091 0.20172 0.0
N317 N 0.54524 0.84412 0.22335 0.0
C318 C 0.50883 0.84251 0.17011 0.0
H319 H 0.50643 0.85582 0.16671 0.0
H320 H 0.51008 0.83721 0.14132 0.0
H321 H 0.49862 0.83657 0.18452 0.0
C322 C 0.54675 0.89325 0.09112 0.0
N323 N 0.54136 0.89271 0.12719 0.0
N324 N 0.54024 0.87734 0.13845 0.0
C325 C 0.5451 0.86757 0.1096 0.0
C326 C 0.54933 0.87738 0.07882 0.0
C327 C 0.5488 0.90876 0.06859 0.0
H328 H 0.55715 0.91679 0.08359 0.0
H329 H 0.53715 0.91531 0.06666 0.0
H330 H 0.55331 0.90642 0.03936 0.0
O331 O 0.55067 0.91 0.20428 0.0
O332 O 0.54892 0.88415 0.2242 0.0
H333 H 0.55201 0.84555 0.13938 0.0
H334 H 0.55386 0.84438 0.08807 0.0
C335 C 0.54655 0.84931 0.11195 0.0
H336 H 0.53454 0.84402 0.11053 0.0
H337 H 0.5547 0.85047 0.23485 0.0
O338 O 0.53606 0.93077 0.13235 0.0
C339 C 0.55474 0.8984 0.22696 0.0
Co340 Co 0.58378 0.52839 0.66319 0.0
Co341 Co 0.61765 0.52473 0.69817 0.0
C342 C 0.59605 0.49682 0.69983 0.0
O343 O 0.58559 0.50601 0.6842 0.0
O344 O 0.60976 0.50217 0.70746 0.0
C345 C 0.56422 0.51571 0.60917 0.0
O346 O 0.57631 0.50528 0.60904 0.0
C347 C 0.65073 0.51425 0.71063 0.0
C348 C 0.66053 0.53624 0.73742 0.0
C349 C 0.66458 0.52065 0.72508 0.0
N350 N 0.6391 0.52565 0.71396 0.0
N351 N 0.64498 0.53871 0.73026 0.0
C352 C 0.64813 0.4973 0.69629 0.0
H353 H 0.64317 0.49796 0.66714 0.0
H354 H 0.65918 0.4897 0.69652 0.0
H355 H 0.63919 0.49123 0.71476 0.0
C356 C 0.60254 0.5386 0.59611 0.0
N357 N 0.60159 0.53314 0.63227 0.0
N358 N 0.61604 0.53112 0.64594 0.0
C359 C 0.62668 0.53514 0.61844 0.0
C360 C 0.61838 0.53982 0.58604 0.0
C361 C 0.58858 0.54335 0.5719 0.0
H362 H 0.57885 0.54859 0.58972 0.0
H363 H 0.58425 0.53233 0.55729 0.0
H364 H 0.59195 0.55246 0.54973 0.0
O365 O 0.58162 0.54441 0.70468 0.0
O366 O 0.60555 0.54076 0.73011 0.0
H367 H 0.64745 0.54245 0.64812 0.0
H368 H 0.65044 0.53977 0.59745 0.0
C369 C 0.64433 0.53494 0.62324 0.0
H370 H 0.64856 0.52221 0.62877 0.0
H371 H 0.63842 0.54938 0.73603 0.0
O372 O 0.56454 0.52791 0.63137 0.0
C373 C 0.59186 0.54775 0.72986 0.0
Co374 Co 0.96218 0.56583 0.15346 0.0
Co375 Co 0.96386 0.60223 0.18078 0.0
C376 C 0.9916 0.57932 0.18908 0.0
O377 O 0.98384 0.56802 0.17351 0.0
O378 O 0.98537 0.59341 0.19473 0.0
C379 C 0.97105 0.53286 0.13788 0.0
O380 O 0.98026 0.535 0.16738 0.0
C381 C 0.97361 0.63674 0.18222 0.0
C382 C 0.95398 0.64786 0.21596 0.0
C383 C 0.96813 0.65144 0.19748 0.0
N384 N 0.96309 0.62506 0.19121 0.0
N385 N 0.95139 0.63181 0.2113 0.0
C386 C 0.98902 0.63361 0.16168 0.0
H387 H 0.99182 0.62031 0.1605 0.0
H388 H 0.98817 0.63835 0.13207 0.0
H389 H -0.00122 0.64012 0.17588 0.0
C390 C 0.95301 0.58234 0.08206 0.0
N391 N 0.958 0.58289 0.11825 0.0
N392 N 0.95873 0.59827 0.12895 0.0
C393 C 0.95399 0.60803 0.0997 0.0
C394 C 0.95027 0.59821 0.06914 0.0
C395 C 0.95075 0.56681 0.06064 0.0
H396 H 0.94133 0.55955 0.07488 0.0
H397 H 0.96194 0.55941 0.06128 0.0
H398 H 0.94744 0.5692 0.03055 0.0
O399 O 0.94599 0.56625 0.19491 0.0
O400 O 0.94745 0.59205 0.21374 0.0
H401 H 0.94503 0.62925 0.1288 0.0
H402 H 0.94469 0.63106 0.07741 0.0
C403 C 0.9515 0.62617 0.10211 0.0
H404 H 0.96321 0.63215 0.10257 0.0
H405 H 0.94169 0.62542 0.22215 0.0
O406 O 0.96165 0.54439 0.12745 0.0
C407 C 0.94136 0.57791 0.2164 0.0
Co408 Co 0.40822 0.02897 0.33602 0.0
Co409 Co 0.37329 0.03223 0.3073 0.0
C410 C 0.39154 0.00101 0.29941 0.0
O411 O 0.40348 0.00745 0.31484 0.0
O412 O 0.37863 0.00903 0.29382 0.0
C413 C 0.43915 0.01611 0.35281 0.0
O414 O 0.43758 0.00856 0.32024 0.0
C415 C 0.33912 0.02678 0.30332 0.0
C416 C 0.3303 0.05068 0.28117 0.0
C417 C 0.32535 0.03545 0.29386 0.0
N418 N 0.35158 0.03649 0.29663 0.0
N419 N 0.34626 0.05068 0.28299 0.0
C420 C 0.34047 0.01021 0.32176 0.0
H421 H 0.35176 0.00899 0.33778 0.0
H422 H 0.33023 0.00809 0.34125 0.0
H423 H 0.34047 0.00073 0.29937 0.0
C424 C 0.39297 0.03865 0.40801 0.0
N425 N 0.39214 0.035 0.37089 0.0
N426 N 0.37731 0.03655 0.35954 0.0
C427 C 0.36823 0.04161 0.38929 0.0
C428 C 0.37788 0.04286 0.42096 0.0
C429 C 0.40816 0.03904 0.42992 0.0
H430 H 0.41695 0.04652 0.41408 0.0
H431 H 0.41311 0.02639 0.43265 0.0
H432 H 0.40639 0.04423 0.45874 0.0
O433 O 0.41048 0.04581 0.29543 0.0
O434 O 0.38562 0.04744 0.27467 0.0
H435 H 0.34836 0.05392 0.36329 0.0
H436 H 0.34631 0.05097 0.41425 0.0
C437 C 0.35079 0.04541 0.38744 0.0
H438 H 0.34429 0.03395 0.38253 0.0
H439 H 0.35351 0.06052 0.27592 0.0
O440 O 0.42833 0.02609 0.36373 0.0
C441 C 0.40006 0.0519 0.273 0.0
Co442 Co 0.45304 0.41308 0.85195 0.0
Co443 Co 0.45493 0.37725 0.82208 0.0
C444 C 0.48361 0.39787 0.82248 0.0
O445 O 0.47525 0.40954 0.83619 0.0
O446 O 0.47742 0.3842 0.81479 0.0
C447 C 0.46213 0.44515 0.86946 0.0
O448 O 0.46902 0.44408 0.83584 0.0
C449 C 0.46495 0.34301 0.81602 0.0
C450 C 0.44446 0.33218 0.787 0.0
C451 C 0.45932 0.32846 0.80182 0.0
N452 N 0.45384 0.35476 0.81001 0.0
N453 N 0.44163 0.34824 0.79268 0.0
C454 C 0.48107 0.34625 0.83182 0.0
H455 H 0.47993 0.35454 0.85656 0.0
H456 H 0.48754 0.33485 0.84013 0.0
H457 H 0.48823 0.3526 0.80969 0.0
C458 C 0.44232 0.39613 0.92138 0.0
N459 N 0.44697 0.3959 0.88473 0.0
N460 N 0.44788 0.38065 0.87306 0.0
C461 C 0.44362 0.37064 0.90215 0.0
C462 C 0.44012 0.38018 0.9337 0.0
C463 C 0.44013 0.41141 0.94417 0.0
H464 H 0.45194 0.41678 0.94938 0.0
H465 H 0.43417 0.40896 0.97191 0.0
H466 H 0.4329 0.4205 0.92779 0.0
O467 O 0.439 0.41488 0.80726 0.0
O468 O 0.44065 0.38934 0.78612 0.0
H469 H 0.43636 0.34862 0.87536 0.0
H470 H 0.4383 0.34692 0.92659 0.0
C471 C 0.44342 0.35236 0.90023 0.0
H472 H 0.45574 0.34759 0.89633 0.0
H473 H 0.43141 0.35478 0.78455 0.0
O474 O 0.45325 0.43363 0.88076 0.0
C475 C 0.43523 0.40399 0.7834 0.0
Co476 Co 0.08186 0.44463 0.37994 0.0
Co477 Co 0.11698 0.44225 0.35216 0.0
C478 C 0.0976 0.4731 0.34299 0.0
O479 O 0.0858 0.46656 0.35945 0.0
O480 O 0.11051 0.46515 0.33709 0.0
C481 C 0.04909 0.45129 0.38658 0.0
O482 O 0.05026 0.4522 0.34929 0.0
C483 C 0.15048 0.45033 0.35344 0.0
C484 C 0.16111 0.4319 0.31473 0.0
C485 C 0.16467 0.44545 0.33634 0.0
N486 N 0.13908 0.44014 0.34239 0.0
N487 N 0.14551 0.42905 0.31956 0.0
C488 C 0.14742 0.46516 0.37731 0.0
H489 H 0.13449 0.46767 0.38059 0.0
H490 H 0.1524 0.46302 0.4061 0.0
H491 H 0.15336 0.47595 0.36448 0.0
C492 C 0.09614 0.43316 0.45139 0.0
N493 N 0.09757 0.4387 0.41543 0.0
N494 N 0.11245 0.43708 0.4041 0.0
C495 C 0.12091 0.42986 0.43241 0.0
C496 C 0.11087 0.42741 0.4635 0.0
C497 C 0.08054 0.43147 0.4718 0.0
H498 H 0.0727 0.4235 0.45509 0.0
H499 H 0.07464 0.44369 0.47391 0.0
H500 H 0.08201 0.4262 0.50084 0.0
O501 O 0.0808 0.42825 0.3385 0.0
O502 O 0.10601 0.42666 0.31922 0.0
H503 H 0.1391 0.41711 0.40084 0.0
H504 H 0.14107 0.41535 0.45215 0.0
C505 C 0.13768 0.42366 0.42822 0.0
H506 H 0.1458 0.43419 0.42773 0.0
H507 H 0.13916 0.41988 0.30633 0.0
O508 O 0.06121 0.44693 0.40571 0.0
C509 C 0.0916 0.42226 0.31676 0.0
Co510 Co 0.0294 0.07804 0.81074 0.0
Co511 Co 0.02365 0.11443 0.7854 0.0
C512 C 0.99707 0.09095 0.78789 0.0
O513 O 0.00665 0.07979 0.79932 0.0
O514 O 0.00183 0.10533 0.78035 0.0
C515 C 0.02353 0.04468 0.82695 0.0
O516 O 0.01518 0.04599 0.79557 0.0
C517 C 0.0115 0.1478 0.79292 0.0
C518 C 0.02728 0.16172 0.75431 0.0
C519 C 0.01467 0.16344 0.77967 0.0
N520 N 0.02186 0.13732 0.7764 0.0
N521 N 0.03118 0.14566 0.75308 0.0
C522 C -0.00168 0.1426 0.81904 0.0
H523 H 0.00132 0.13063 0.83273 0.0
H524 H 0.99573 0.1519 0.84108 0.0
H525 H 0.98737 0.14114 0.80205 0.0
C526 C 0.04093 0.0938 0.87956 0.0
N527 N 0.03477 0.09475 0.84444 0.0
N528 N 0.03232 0.11023 0.83489 0.0
C529 C 0.03708 0.11966 0.86399 0.0
C530 C 0.04265 0.10951 0.89306 0.0
C531 C 0.04417 0.07803 0.90049 0.0
H532 H 0.0527 0.07041 0.88375 0.0
H533 H 0.03293 0.0712 0.90339 0.0
H534 H 0.04903 0.08 0.92928 0.0
O535 O 0.04266 0.07923 0.76414 0.0
O536 O 0.03845 0.10514 0.74623 0.0
H537 H 0.04077 0.14268 0.83553 0.0
H538 H 0.04498 0.1427 0.88596 0.0
C539 C 0.03696 0.13798 0.86381 0.0
H540 H 0.02474 0.14258 0.86993 0.0
H541 H 0.04035 0.14044 0.73682 0.0
O542 O 0.03192 0.05666 0.83694 0.0
C543 C 0.04516 0.09117 0.74132 0.0
C544 C 0.9578 0.97054 0.59309 0.0
C545 C 0.94427 0.98077 0.59633 0.0
C546 C 0.97041 0.97496 0.56922 0.0
C547 C 0.98792 0.01017 0.51796 0.0
H548 H 0.00636 0.97644 0.45344 0.0
C549 C 0.03123 0.02428 0.3935 0.0
C550 C 0.0447 0.01391 0.39081 0.0
C551 C 0.01885 0.02049 0.41874 0.0
C552 C 0.00142 0.98596 0.4715 0.0
H553 H 0.93347 0.00385 0.57785 0.0
H554 H 0.95535 0.01144 0.53598 0.0
H555 H 0.98542 0.96941 0.49876 0.0
H556 H 0.05576 0.99144 0.41223 0.0
H557 H 0.03426 0.98492 0.45614 0.0
H558 H 0.0039 0.02673 0.4904 0.0
C559 C 0.95633 9e-05 0.55214 0.0
C560 C 0.98947 0.98193 0.49754 0.0
C561 C 0.94375 0.99569 0.576 0.0
C562 C 0.04552 -0.00033 0.41357 0.0
C563 C 0.03317 0.99587 0.4386 0.0
C564 C -0.00014 0.01421 0.49182 0.0
C565 C 0.96971 0.9897 0.54815 0.0
C566 C 0.98262 0.99398 0.52111 0.0
C567 C 0.01973 0.00624 0.4415 0.0
C568 C 0.00675 0.00213 0.46843 0.0
H569 H 0.95856 0.95899 0.60848 0.0
H570 H 0.98068 0.96681 0.56713 0.0
H571 H 0.98298 0.01969 0.53603 0.0
H572 H 0.03028 0.03535 0.37634 0.0
H573 H 0.00855 0.02862 0.42021 0.0
C574 C 0.45443 0.031 0.92196 0.0
C575 C 0.46025 0.03072 0.88432 0.0
C576 C 0.46131 0.02092 0.9499 0.0
C577 C 0.49952 0.00072 0.97111 0.0
H578 H 0.47603 0.97968 0.05287 0.0
C579 C 0.52822 0.9556 0.07919 0.0
C580 C 0.52235 0.9556 0.1168 0.0
C581 C 0.52119 0.96566 0.05144 0.0
C582 C 0.48277 0.9857 0.03053 0.0
H583 H 0.47704 0.01876 0.8459 0.0
H584 H 0.48887 0.00102 0.89462 0.0
H585 H 0.46162 0.99387 0.00195 0.0
H586 H 0.5053 0.96706 0.15537 0.0
H587 H 0.49325 0.98483 0.10701 0.0
H588 H 0.52067 0.9926 -0.00031 0.0
C589 C 0.47923 0.0093 0.90264 0.0
C590 C 0.4745 0.99374 0.00127 0.0
C591 C 0.47234 0.01936 0.87467 0.0
C592 C 0.51004 0.96667 0.12661 0.0
C593 C 0.50302 0.97674 0.09884 0.0
C594 C 0.50778 0.9927 0.00038 0.0
C595 C 0.47413 0.01035 0.94075 0.0
C596 C 0.4828 0.0013 0.97121 0.0
C597 C 0.5082 0.97597 0.06074 0.0
C598 C 0.4995 0.98509 0.03041 0.0
H599 H 0.44508 0.03956 0.9303 0.0
H600 H 0.45713 0.02204 0.97903 0.0
H601 H 0.50625 0.00673 0.94873 0.0
H602 H 0.53775 0.94727 0.07072 0.0
H603 H 0.52544 0.96474 0.02233 0.0
C604 C 0.53867 0.52533 0.5794 0.0
C605 C 0.55096 0.51353 0.58258 0.0
C606 C 0.52624 0.52311 0.5539 0.0
C607 C 0.51542 0.49973 0.46849 0.0
H608 H 0.47216 0.50911 0.5018 0.0
C609 C 0.46008 0.47648 0.3906 0.0
C610 C 0.44705 0.4874 0.38729 0.0
C611 C 0.47325 0.48061 0.41226 0.0
C612 C 0.4842 0.50663 0.49191 0.0
H613 H 0.55987 0.49014 0.56165 0.0
H614 H 0.53812 0.48618 0.51781 0.0
H615 H 0.49419 0.51479 0.54403 0.0
H616 H 0.4378 0.51141 0.40311 0.0
H617 H 0.46077 0.5186 0.44069 0.0
H618 H 0.50535 0.49129 0.4166 0.0
C619 C 0.53819 0.49728 0.53442 0.0
C620 C 0.49681 0.50991 0.51606 0.0
C621 C 0.5506 0.49951 0.55979 0.0
C622 C 0.44761 0.50267 0.40528 0.0
C623 C 0.46073 0.50678 0.42697 0.0
C624 C 0.5028 0.4964 0.44438 0.0
C625 C 0.52588 0.50904 0.53117 0.0
C626 C 0.51255 0.50637 0.50474 0.0
C627 C 0.47359 0.49572 0.43106 0.0
C628 C 0.48706 0.49973 0.45596 0.0
H629 H 0.53868 0.53631 0.59646 0.0
H630 H 0.51698 0.53247 0.55174 0.0
H631 H 0.52745 0.49711 0.45872 0.0
H632 H 0.45998 0.46461 0.3771 0.0
H633 H 0.48296 0.4718 0.4152 0.0
C634 C 0.98657 0.508 0.11834 0.0
C635 C 0.97283 0.5179 0.11488 0.0
C636 C 0.98896 0.4945 0.09485 0.0
C637 C 0.97531 0.47682 0.00378 0.0
H638 H -6e-05 0.43923 0.0399 0.0
C639 C 0.98623 0.41474 0.92439 0.0
C640 C 0.00247 0.41121 0.91826 0.0
C641 C 0.98149 0.42785 0.9474 0.0
C642 C 0.99304 0.44967 0.02958 0.0
H643 H 0.95055 0.52117 0.0849 0.0
H644 H 0.95433 0.4971 0.045 0.0
H645 H 0.99293 0.46115 0.08385 0.0
H646 H 0.02644 0.41905 0.92959 0.0
H647 H 0.01813 0.44151 0.97138 0.0
H648 H 0.97511 0.46481 0.94966 0.0
C649 C 0.96355 0.50005 0.065 0.0
C650 C 0.9891 0.46231 0.05458 0.0
C651 C 0.9613 0.51378 0.08808 0.0
C652 C 0.01386 0.42127 0.93464 0.0
C653 C 0.00914 0.43413 0.9583 0.0
C654 C 0.97897 0.46398 0.97898 0.0
C655 C 0.97751 0.49034 0.06776 0.0
C656 C 0.98047 0.47624 0.04186 0.0
C657 C 0.99293 0.43741 0.96507 0.0
C658 C 0.9881 0.45048 0.99159 0.0
H659 H 0.99577 0.51097 0.13842 0.0
H660 H 4e-05 0.48762 0.09735 0.0
H661 H 0.96885 0.4874 0.99269 0.0
H662 H 0.97722 0.40712 0.91221 0.0
H663 H 0.96893 0.43021 0.95239 0.0
C664 C 0.52216 0.97157 0.6189 0.0
C665 C 0.53386 0.95965 0.61023 0.0
C666 C 0.51153 0.97706 0.59103 0.0
C667 C 0.49477 0.96771 0.49729 0.0
H668 H 0.49074 0.01498 0.48758 0.0
C669 C 0.46259 0.99832 0.37032 0.0
C670 C 0.45195 0.01119 0.37936 0.0
C671 C 0.47329 0.99226 0.39749 0.0
C672 C 0.49161 0.00176 0.49011 0.0
H673 H 0.54294 0.94337 0.56632 0.0
H674 H 0.52433 0.95295 0.51777 0.0
H675 H 0.5067 0.00299 0.53868 0.0
H676 H 0.4447 0.02832 0.42337 0.0
H677 H 0.46315 0.01763 0.47072 0.0
H678 H 0.47956 0.96646 0.44892 0.0
C679 C 0.52341 0.95806 0.54605 0.0
C680 C 0.50071 0.9949 0.51943 0.0
C681 C 0.53409 0.95262 0.57385 0.0
C682 C 0.45271 0.01836 0.4155 0.0
C683 C 0.46335 0.01228 0.44263 0.0
C684 C 0.48559 0.97457 0.46803 0.0
C685 C 0.51233 0.97067 0.55407 0.0
C686 C 0.50234 0.97781 0.5234 0.0
C687 C 0.47355 -0.00104 0.43419 0.0
C688 C 0.48388 0.99168 0.46419 0.0
H689 H 0.52162 0.97718 0.6467 0.0
H690 H 0.50291 0.98659 0.59814 0.0
H691 H 0.49574 0.95449 0.49984 0.0
H692 H 0.46236 0.99259 0.34267 0.0
H693 H 0.48121 0.98218 0.38991 0.0
C694 C 0.51848 0.51628 0.13874 0.0
C695 C 0.53127 0.52648 0.12948 0.0
C696 C 0.51149 0.50681 0.11077 0.0
C697 C 0.50564 0.50728 0.0075 0.0
H698 H 0.48918 0.46376 0.02456 0.0
C699 C 0.48031 0.46755 0.88796 0.0
C700 C 0.46753 0.45733 0.89711 0.0
C701 C 0.48746 0.47677 0.91614 0.0
C702 C 0.4935 0.47601 0.01956 0.0
H703 H 0.54761 0.53366 0.08439 0.0
H704 H 0.5355 0.51697 0.03577 0.0
H705 H 0.50428 0.47678 0.07452 0.0
H706 H 0.45145 0.44975 0.94237 0.0
H707 H 0.46379 0.46605 0.99136 0.0
H708 H 0.49483 0.50654 0.95261 0.0
C709 C 0.53065 0.51663 0.06442 0.0
C710 C 0.50223 0.48342 0.04811 0.0
C711 C 0.53765 0.52608 0.09237 0.0
C712 C 0.46138 0.45737 0.93446 0.0
C713 C 0.46853 0.4666 0.96261 0.0
C714 C 0.49691 0.49988 0.97898 0.0
C715 C 0.51716 0.50733 0.07304 0.0
C716 C 0.50841 0.49912 0.04236 0.0
C717 C 0.48195 0.476 0.95399 0.0
C718 C 0.49074 0.48417 0.9847 0.0
H719 H 0.51329 0.51628 0.16706 0.0
H720 H 0.50109 0.49979 0.1183 0.0
H721 H 0.50997 0.51953 0.00251 0.0
H722 H 0.48534 0.4678 0.85948 0.0
H723 H 0.49781 0.48385 0.9086 0.0
C724 C 0.93597 0.52825 0.51656 0.0
C725 C 0.93842 0.53465 0.55296 0.0
C726 C 0.94845 0.52059 0.49689 0.0
C727 C 0.98303 0.49569 0.51634 0.0
H728 H 0.99422 0.50259 0.41014 0.0
C729 C 0.03586 0.46196 0.44533 0.0
C730 C 0.03507 0.45838 0.40636 0.0
C731 C 0.02373 0.47102 0.46297 0.0
C732 C 0.99104 0.5003 0.43963 0.0
H733 H 0.95588 0.53882 0.5967 0.0
H734 H 0.97773 0.52504 0.56243 0.0
H735 H 0.97447 0.52059 0.44042 0.0
H736 H 0.02048 0.46054 0.35588 0.0
H737 H -0.00107 0.47579 0.38709 0.0
H738 H -0.00099 0.47508 0.51555 0.0
C739 C 0.96617 0.52609 0.54917 0.0
C740 C 0.97987 0.51073 0.45699 0.0
C741 C 0.95373 0.53405 0.56858 0.0
C742 C 0.02147 0.46323 0.3859 0.0
C743 C 0.00921 0.47212 0.40371 0.0
C744 C 0.99399 0.48511 0.49889 0.0
C745 C 0.96349 0.51895 0.51361 0.0
C746 C 0.97586 0.50855 0.49552 0.0
C747 C 0.0104 0.4765 0.44222 0.0
C748 C -0.00181 0.48732 0.46035 0.0
H749 H 0.92426 0.52863 0.50391 0.0
H750 H 0.94611 0.51513 0.46955 0.0
H751 H 0.97985 0.49358 0.54593 0.0
H752 H 0.04621 0.45846 0.46191 0.0
H753 H 0.02518 0.47429 0.49252 0.0
C754 C 0.9638 0.95198 0.05986 0.0
C755 C 0.97105 0.95186 0.09579 0.0
C756 C 0.96928 0.96228 0.0308 0.0
C757 C 0.99401 0.99845 0.01069 0.0
H758 H -0.00017 0.97823 0.91195 0.0
C759 C 0.0279 0.03094 0.89013 0.0
C760 C 0.02032 0.03133 0.85458 0.0
C761 C 0.02273 0.02037 0.91898 0.0
C762 C -0.00182 0.98408 0.93927 0.0
H763 H 0.98913 0.96314 0.13002 0.0
H764 H -0.0013 0.98106 0.07931 0.0
H765 H 0.98786 0.96269 0.96412 0.0
H766 H 0.00211 0.02011 0.82063 0.0
H767 H 0.9931 0.00169 0.87097 0.0
H768 H 0.00432 0.01984 0.98584 0.0
C769 C 0.98876 0.97323 0.0736 0.0
C770 C 0.99125 0.97522 0.96912 0.0
C771 C 0.98328 0.96293 0.10268 0.0
C772 C 0.00819 0.02015 0.84769 0.0
C773 C 0.00303 0.00956 0.87656 0.0
C774 C 0.00094 0.00731 0.98085 0.0
C775 C 0.98211 0.97269 0.03705 0.0
C776 C 0.98906 0.98232 0.00515 0.0
C777 C 0.00992 0.00992 0.91287 0.0
C778 C 0.00311 0.00022 0.94481 0.0
H779 H 0.95426 0.94369 0.0537 0.0
H780 H 0.96369 0.96184 0.00316 0.0
H781 H 0.99232 0.00433 0.03797 0.0
H782 H 0.03739 0.03928 0.89625 0.0
H783 H 0.0285 0.02066 0.94642 0.0
C784 C 0.09173 0.06866 0.18654 0.0
C785 C 0.08086 0.0652 0.21604 0.0
C786 C 0.0874 0.07908 0.15645 0.0
C787 C 0.05184 0.0939 0.1058 0.0
H788 H 0.08271 0.11982 0.05031 0.0
C789 C 0.03689 0.11946 0.95846 0.0
C790 C 0.04798 0.11388 0.93134 0.0
C791 C 0.04083 0.11937 0.99707 0.0
C792 C 0.07391 0.11276 0.06571 0.0
H793 H 0.05715 0.07059 0.23791 0.0
H794 H 0.04968 0.08897 0.18559 0.0
H795 H 0.08958 0.10815 0.1125 0.0
H796 H 0.0721 0.10515 0.92202 0.0
H797 H 0.07915 0.10513 0.98929 0.0
H798 H 0.03639 0.098 0.05853 0.0
C799 C 0.06145 0.08336 0.18538 0.0
C800 C 0.07786 0.106 0.1012 0.0
C801 C 0.06574 0.07285 0.21541 0.0
C802 C 0.06345 0.1096 0.94267 0.0
C803 C 0.06745 0.10964 0.98114 0.0
C804 C 0.04786 0.10075 0.07049 0.0
C805 C 0.07214 0.0864 0.15521 0.0
C806 C 0.06708 0.09598 0.12101 0.0
C807 C 0.05596 0.11379 0.00889 0.0
C808 C 0.05905 0.10977 0.04947 0.0
H809 H 0.10349 0.06301 0.1861 0.0
H810 H 0.09586 0.08088 0.13344 0.0
H811 H 0.04328 0.08612 0.11996 0.0
H812 H 0.02485 0.12271 0.95012 0.0
H813 H 0.0318 0.12278 0.01783 0.0
C814 C 0.41499 0.06985 0.73215 0.0
C815 C 0.41995 0.08576 0.74044 0.0
C816 C 0.40527 0.06709 0.70089 0.0
C817 C 0.39522 0.08548 0.60798 0.0
H818 H 0.36564 0.04964 0.60479 0.0
C819 C 0.37042 0.06515 0.46579 0.0
C820 C 0.37378 0.04853 0.45947 0.0
C821 C 0.37069 0.07132 0.50277 0.0
C822 C 0.37376 0.05978 0.60535 0.0
H823 H 0.41789 0.11135 0.72355 0.0
H824 H 0.40071 0.10655 0.66945 0.0
H825 H 0.37669 0.05779 0.66573 0.0
H826 H 0.37891 0.02505 0.48605 0.0
H827 H 0.37925 0.03569 0.5507 0.0
H828 H 0.39274 0.08713 0.54758 0.0
C829 C 0.40463 0.09616 0.68658 0.0
C830 C 0.38016 0.06439 0.64017 0.0
C831 C 0.41446 0.09891 0.71766 0.0
C832 C 0.37614 0.0379 0.49056 0.0
C833 C 0.3763 0.04401 0.52749 0.0
C834 C 0.38875 0.08094 0.57328 0.0
C835 C 0.40016 0.08018 0.67736 0.0
C836 C 0.39138 0.07695 0.6417 0.0
C837 C 0.37427 0.0609 0.53382 0.0
C838 C 0.37835 0.06771 0.57141 0.0
H839 H 0.41899 0.05944 0.74912 0.0
H840 H 0.40229 0.05459 0.69436 0.0
H841 H 0.40397 0.09505 0.6079 0.0
H842 H 0.36872 0.07353 0.44198 0.0
H843 H 0.36896 0.08437 0.50687 0.0
C844 C 0.38942 0.41833 0.23289 0.0
C845 C 0.40219 0.42621 0.25016 0.0
C846 C 0.39219 0.4068 0.20438 0.0
C847 C 0.42408 0.38235 0.15507 0.0
H848 H 0.39815 0.39113 0.06615 0.0
C849 C 0.44667 0.37824 0.00213 0.0
C850 C 0.43601 0.37509 0.97276 0.0
C851 C 0.44154 0.37789 0.03998 0.0
C852 C 0.40527 0.38811 0.0909 0.0
H853 H 0.42791 0.42748 0.25239 0.0
H854 H 0.43273 0.40775 0.20204 0.0
H855 H 0.39078 0.4034 0.12638 0.0
H856 H 0.41211 0.36794 0.95925 0.0
H857 H 0.40301 0.3672 0.02581 0.0
H858 H 0.43911 0.36782 0.11859 0.0
C859 C 0.42057 0.41024 0.21091 0.0
C860 C 0.40105 0.3952 0.12559 0.0
C861 C 0.4178 0.42169 0.23962 0.0
C862 C 0.42051 0.37027 0.9817 0.0
C863 C 0.41531 0.36999 0.01965 0.0
C864 C 0.42834 0.37529 0.12025 0.0
C865 C 0.40779 0.40296 0.19227 0.0
C866 C 0.41071 0.39291 0.15776 0.0
C867 C 0.42559 0.37454 0.04903 0.0
C868 C 0.41929 0.37859 0.08748 0.0
H869 H 0.37723 0.42136 0.24071 0.0
H870 H 0.38208 0.40122 0.1911 0.0
H871 H 0.4316 0.38006 0.17951 0.0
H872 H 0.45865 0.38214 0.99559 0.0
H873 H 0.44973 0.38163 0.06175 0.0
C874 C 0.11044 0.39991 0.49358 0.0
C875 C 0.11333 0.41668 0.49689 0.0
C876 C 0.10746 0.39042 0.52607 0.0
C877 C 0.10753 0.38769 0.63035 0.0
H878 H 0.06385 0.37426 0.61921 0.0
C879 C 0.0667 0.37395 0.75977 0.0
C880 C 0.05346 0.36405 0.75467 0.0
C881 C 0.07682 0.37747 0.72903 0.0
C882 C 0.07619 0.37739 0.62292 0.0
H883 H 0.11654 0.43658 0.53604 0.0
H884 H 0.11174 0.41984 0.59328 0.0
H885 H 0.07817 0.38482 0.56459 0.0
H886 H 0.04101 0.34895 0.71487 0.0
H887 H 0.05922 0.35398 0.66206 0.0
H888 H 0.10565 0.38012 0.68871 0.0
C889 C 0.11185 0.41401 0.5657 0.0
C890 C 0.08437 0.38357 0.59142 0.0
C891 C 0.11462 0.42356 0.5331 0.0
C892 C 0.05105 0.35684 0.71923 0.0
C893 C 0.06143 0.35989 0.68889 0.0
C894 C 0.09945 0.38111 0.66188 0.0
C895 C 0.10745 0.39758 0.56226 0.0
C896 C 0.09999 0.38903 0.59494 0.0
C897 C 0.07412 0.37079 0.69284 0.0
C898 C 0.08352 0.37616 0.65878 0.0
H899 H 0.10913 0.39449 0.46577 0.0
H900 H 0.10406 0.37778 0.52278 0.0
H901 H 0.11958 0.39189 0.63368 0.0
H902 H 0.06873 0.37969 0.78694 0.0
H903 H 0.08628 0.38605 0.7334 0.0
C904 C 0.57163 0.90893 0.7536 0.0
C905 C 0.58596 0.91755 0.75277 0.0
C906 C 0.56806 0.89847 0.78412 0.0
C907 C 0.5855 0.87805 0.8703 0.0
H908 H 0.54311 0.8849 0.91204 0.0
C909 C 0.57031 0.87714 0.02886 0.0
C910 C 0.55511 0.87252 0.04089 0.0
C911 C 0.57454 0.87641 0.99043 0.0
C912 C 0.55487 0.88245 0.90039 0.0
H913 H 0.60805 0.92141 0.78269 0.0
H914 H 0.60165 0.90359 0.8362 0.0
H915 H 0.54955 0.89588 0.84947 0.0
H916 H 0.53275 0.86239 0.02356 0.0
H917 H 0.5401 0.86109 0.95586 0.0
H918 H 0.59101 0.86547 0.92256 0.0
C919 C 0.59327 0.90462 0.81301 0.0
C920 C 0.55859 0.88878 0.86442 0.0
C921 C 0.59688 0.915 0.78243 0.0
C922 C 0.54458 0.86594 0.01465 0.0
C923 C 0.54875 0.86531 0.97605 0.0
C924 C 0.58179 0.87178 0.90643 0.0
C925 C 0.5787 0.89645 0.81458 0.0
C926 C 0.5741 0.88716 0.8495 0.0
C927 C 0.56353 0.87118 0.96338 0.0
C928 C 0.56659 0.87442 0.92236 0.0
H929 H 0.56303 0.91047 0.73099 0.0
H930 H 0.55683 0.89217 0.78417 0.0
H931 H 0.59747 0.87627 0.85927 0.0
H932 H 0.57852 0.88236 0.04883 0.0
H933 H 0.58594 0.88118 0.98161 0.0
C934 C 0.57801 0.56456 0.27897 0.0
C935 C 0.57272 0.58052 0.26959 0.0
C936 C 0.5883 0.56183 0.30953 0.0
C937 C 0.59994 0.58069 0.39944 0.0
H938 H 0.6309 0.54489 0.40165 0.0
C939 C 0.62702 0.56136 0.54053 0.0
C940 C 0.62425 0.54479 0.54822 0.0
C941 C 0.62667 0.56726 0.503 0.0
C942 C 0.6224 0.55502 0.40135 0.0
H943 H 0.57465 0.60619 0.28404 0.0
H944 H 0.59274 0.60142 0.33694 0.0
H945 H 0.61803 0.55254 0.34171 0.0
H946 H 0.62019 0.52111 0.52356 0.0
H947 H 0.6197 0.53124 0.45809 0.0
H948 H 0.60375 0.5828 0.45915 0.0
C949 C 0.58869 0.59099 0.32116 0.0
C950 C 0.61496 0.55934 0.36711 0.0
C951 C 0.57832 0.59371 0.29078 0.0
C952 C 0.62266 0.5339 0.51799 0.0
C953 C 0.62235 0.53975 0.48053 0.0
C954 C 0.6074 0.57642 0.43355 0.0
C955 C 0.59362 0.57499 0.33128 0.0
C956 C 0.60327 0.57189 0.36603 0.0
C957 C 0.62346 0.55663 0.47282 0.0
C958 C 0.61835 0.56321 0.43518 0.0
H959 H 0.57394 0.55412 0.26323 0.0
H960 H 0.59164 0.54932 0.31686 0.0
H961 H 0.59087 0.59027 0.39986 0.0
H962 H 0.628 0.56996 0.56364 0.0
H963 H 0.62776 0.5803 0.49788 0.0
C964 C 0.95238 0.61176 0.00541 0.0
C965 C 0.94334 0.60313 0.03235 0.0
C966 C 0.94679 0.61388 0.96824 0.0
C967 C 0.91137 0.60991 0.90675 0.0
H968 H 0.94162 0.59197 0.83373 0.0
C969 C 0.89226 0.57615 0.77299 0.0
C970 C 0.90208 0.57621 0.74041 0.0
C971 C 0.8968 0.58427 0.80584 0.0
C972 C 0.93309 0.59741 0.85332 0.0
H973 H 0.92112 0.59094 0.04323 0.0
H974 H 0.91123 0.59471 0.97851 0.0
H975 H 0.95043 0.59854 0.89734 0.0
H976 H 0.92387 0.58575 0.71601 0.0
H977 H 0.93163 0.60018 0.77312 0.0
H978 H 0.89391 0.6083 0.86303 0.0
C979 C 0.92257 0.59989 0.98575 0.0
C980 C 0.93816 0.60118 0.88988 0.0
C981 C 0.92823 0.59763 0.02266 0.0
C982 C 0.91614 0.58527 0.74079 0.0
C983 C 0.92061 0.59351 0.77358 0.0
C984 C 0.90631 0.60627 0.87005 0.0
C985 C 0.932 0.60755 0.95782 0.0
C986 C 0.92725 0.60692 0.91735 0.0
C987 C 0.9112 0.59277 0.80681 0.0
C988 C 0.91699 0.59941 0.84333 0.0
H989 H 0.96408 0.61607 0.01254 0.0
H990 H 0.95425 0.61991 0.9473 0.0
H991 H 0.90275 0.61452 0.92728 0.0
H992 H 0.88135 0.56931 0.77368 0.0
H993 H 0.88935 0.58321 0.83101 0.0
C994 C 0.92869 0.88615 0.27172 0.0
C995 C 0.93366 0.89893 0.24752 0.0
C996 C 0.91916 0.88944 0.30363 0.0
C997 C 0.89382 0.92199 0.34876 0.0
H998 H 0.90563 0.89944 0.44232 0.0
C999 C 0.88455 0.94834 0.49834 0.0
C1000 C 0.88135 0.93764 0.52879 0.0
C1001 C 0.88654 0.94232 0.46153 0.0
C1002 C 0.90191 0.90561 0.41633 0.0
H1003 H 0.93226 0.9252 0.23764 0.0
H1004 H 0.91605 0.93098 0.29372 0.0
H1005 H 0.91809 0.89131 0.38261 0.0
H1006 H 0.87699 0.9125 0.54507 0.0
H1007 H 0.88046 0.90182 0.4804 0.0
H1008 H 0.87821 0.93684 0.38315 0.0
C1009 C 0.9192 0.91835 0.28766 0.0
C1010 C 0.90908 0.90095 0.38201 0.0
C1011 C 0.92864 0.91505 0.25562 0.0
C1012 C 0.87923 0.92096 0.52175 0.0
C1013 C 0.88137 0.91487 0.48492 0.0
C1014 C 0.88673 0.92672 0.38319 0.0
C1015 C 0.91444 0.90561 0.31228 0.0
C1016 C 0.90542 0.90933 0.3479 0.0
C1017 C 0.88557 0.92543 0.45468 0.0
C1018 C 0.89097 0.91881 0.41745 0.0
H1019 H 0.93221 0.87357 0.26612 0.0
H1020 H 0.91552 0.87929 0.3216 0.0
H1021 H 0.89046 0.92848 0.32293 0.0
H1022 H 0.88646 0.96122 0.50342 0.0
H1023 H 0.88995 0.95073 0.43899 0.0
C1024 C 0.92518 0.87193 0.01581 0.0
C1025 C 0.94093 0.86866 0.02666 0.0
C1026 C 0.92106 0.87196 0.97738 0.0
C1027 C 0.93988 0.88318 0.88844 0.0
H1028 H 0.89877 0.87351 0.84578 0.0
C1029 C 0.92094 0.91181 0.74561 0.0
C1030 C 0.90544 0.91855 0.74509 0.0
C1031 C 0.92562 0.90095 0.77464 0.0
C1032 C 0.91031 0.87632 0.85726 0.0
H1033 H 0.9645 0.86172 0.007 0.0
H1034 H 0.95734 0.86171 0.93945 0.0
H1035 H 0.90629 0.86172 0.90745 0.0
H1036 H 0.88248 0.9186 0.7738 0.0
H1037 H 0.89074 0.90016 0.82491 0.0
H1038 H 0.9436 0.89857 0.83986 0.0
C1039 C 0.94817 0.86426 0.96052 0.0
C1040 C 0.91463 0.86948 0.89246 0.0
C1041 C 0.95225 0.86412 -0.00095 0.0
C1042 C 0.89453 0.91366 0.77334 0.0
C1043 C 0.89924 0.90294 0.80255 0.0
C1044 C 0.93552 0.89011 0.85348 0.0
C1045 C 0.9327 0.8689 0.94922 0.0
C1046 C 0.92929 0.87323 0.90892 0.0
C1047 C 0.91494 0.89671 0.80404 0.0
C1048 C 0.92048 0.88717 0.83797 0.0
H1049 H 0.91636 0.87566 0.03681 0.0
H1050 H 0.90909 0.87575 0.96965 0.0
H1051 H 0.95115 0.88654 0.90059 0.0
H1052 H 0.92959 0.91515 0.72399 0.0
H1053 H 0.93771 0.89615 0.77445 0.0
C1054 C 0.61476 0.94614 0.50552 0.0
C1055 C 0.61745 0.93479 0.53508 0.0
C1056 C 0.6145 0.94096 0.46781 0.0
C1057 C 0.602 0.90456 0.4195 0.0
H1058 H 0.61019 0.93043 0.32848 0.0
C1059 C 0.5733 0.8882 0.27766 0.0
C1060 C 0.56643 0.90141 0.25727 0.0
C1061 C 0.5838 0.89097 0.3074 0.0
C1062 C 0.60781 0.92308 0.35365 0.0
H1063 H 0.62323 0.90955 0.54901 0.0
H1064 H 0.62305 0.90039 0.48277 0.0
H1065 H 0.62279 0.93763 0.38838 0.0
H1066 H 0.56561 0.92788 0.25139 0.0
H1067 H 0.58353 0.93274 0.30407 0.0
H1068 H 0.58638 0.89056 0.38573 0.0
C1069 C 0.62103 0.91327 0.48863 0.0
C1070 C 0.61509 0.92715 0.38787 0.0
C1071 C 0.62132 0.91849 0.52641 0.0
C1072 C 0.57067 0.91744 0.26657 0.0
C1073 C 0.58108 0.92021 0.29658 0.0
C1074 C 0.59469 0.90054 0.38544 0.0
C1075 C 0.61678 0.92429 0.45918 0.0
C1076 C 0.61191 0.9182 0.42141 0.0
C1077 C 0.58757 0.90701 0.31774 0.0
C1078 C 0.59714 0.91002 0.35233 0.0
H1079 H 0.6115 0.95873 0.51187 0.0
H1080 H 0.61104 0.94975 0.44595 0.0
H1081 H 0.59902 0.89759 0.4449 0.0
H1082 H 0.57047 0.87568 0.27087 0.0
H1083 H 0.58879 0.88051 0.32263 0.0
C1084 C 0.54836 0.613 0.02118 0.0
C1085 C 0.56037 0.60794 0.04635 0.0
C1086 C 0.55125 0.61305 0.98189 0.0
C1087 C 0.58278 0.60774 0.90758 0.0
H1088 H 0.55168 0.58039 0.85953 0.0
C1089 C 0.59901 0.56331 0.78809 0.0
C1090 C 0.58783 0.55975 0.75996 0.0
C1091 C 0.59505 0.57387 0.81779 0.0
C1092 C 0.56033 0.58837 0.87198 0.0
H1093 H 0.58497 0.60017 0.05135 0.0
H1094 H 0.59016 0.60035 0.98291 0.0
H1095 H 0.54587 0.59199 0.9216 0.0
H1096 H 0.56388 0.56508 0.74018 0.0
H1097 H 0.55698 0.58362 0.79211 0.0
H1098 H 0.59752 0.6035 0.85854 0.0
C1099 C 0.57856 0.60439 0.99308 0.0
C1100 C 0.55698 0.59506 0.90765 0.0
C1101 C 0.57562 0.60425 0.03223 0.0
C1102 C 0.57274 0.56745 0.76155 0.0
C1103 C 0.56877 0.57805 0.79134 0.0
C1104 C 0.58611 0.60109 0.87181 0.0
C1105 C 0.56621 0.6081 0.96742 0.0
C1106 C 0.56841 0.6043 0.92646 0.0
C1107 C 0.57981 0.58119 0.82013 0.0
C1108 C 0.57516 0.5908 0.85429 0.0
H1109 H 0.53647 0.61578 0.0317 0.0
H1110 H 0.54156 0.6161 0.9628 0.0
H1111 H 0.59172 0.615 0.92117 0.0
H1112 H 0.61077 0.55766 0.78774 0.0
H1113 H 0.60377 0.57577 0.83977 0.0
C1114 C 0.92197 0.55957 0.25014 0.0
C1115 C 0.92855 0.57515 0.24487 0.0
C1116 C 0.91018 0.55702 0.27783 0.0
C1117 C 0.88148 0.57882 0.3418 0.0
H1118 H 0.88968 0.54208 0.41001 0.0
C1119 C 0.86835 0.57924 0.50115 0.0
C1120 C 0.86673 0.56433 0.52076 0.0
C1121 C 0.86968 0.57951 0.4615 0.0
C1122 C 0.88684 0.55216 0.3908 0.0
H1123 H 0.92753 0.60037 0.26392 0.0
H1124 H 0.90725 0.59587 0.31231 0.0
H1125 H 0.90474 0.54437 0.35109 0.0
H1126 H 0.86328 0.5383 0.51481 0.0
H1127 H 0.86513 0.53874 0.44529 0.0
H1128 H 0.86409 0.58701 0.38264 0.0
C1129 C 0.911 0.58565 0.29477 0.0
C1130 C 0.89556 0.55349 0.35696 0.0
C1131 C 0.92279 0.58819 0.26724 0.0
C1132 C 0.86447 0.54996 0.50013 0.0
C1133 C 0.86575 0.5502 0.46042 0.0
C1134 C 0.87272 0.57747 0.37569 0.0
C1135 C 0.90467 0.57001 0.30069 0.0
C1136 C 0.8934 0.56715 0.33277 0.0
C1137 C 0.86938 0.56482 0.44089 0.0
C1138 C 0.87572 0.56444 0.40125 0.0
H1139 H 0.92605 0.54927 0.23324 0.0
H1140 H 0.90546 0.54485 0.28155 0.0
H1141 H 0.87932 0.58932 0.32333 0.0
H1142 H 0.87013 0.59045 0.51667 0.0
H1143 H 0.8725 0.59099 0.44753 0.0
C1144 C 0.44639 0.11853 0.98565 0.0
C1145 C 0.43396 0.11515 0.96075 0.0
C1146 C 0.44366 0.11846 0.02498 0.0
C1147 C 0.41234 0.11521 0.10033 0.0
H1148 H 0.44154 0.08313 0.1445 0.0
C1149 C 0.3936 0.07002 0.21711 0.0
C1150 C 0.40474 0.06418 0.24386 0.0
C1151 C 0.39812 0.08086 0.1882 0.0
C1152 C 0.43346 0.09241 0.1332 0.0
H1153 H 0.40887 0.11034 0.95627 0.0
H1154 H 0.40397 0.11036 0.02482 0.0
H1155 H 0.44779 0.09557 0.08329 0.0
H1156 H 0.42924 0.06581 0.26221 0.0
H1157 H 0.4371 0.08491 0.21185 0.0
H1158 H 0.39768 0.11151 0.14969 0.0
C1159 C 0.41577 0.1132 0.01441 0.0
C1160 C 0.43707 0.09958 0.09801 0.0
C1161 C 0.41853 0.11317 0.97518 0.0
C1162 C 0.4204 0.06993 0.24183 0.0
C1163 C 0.42491 0.08086 0.21293 0.0
C1164 C 0.40876 0.1081 0.13569 0.0
C1165 C 0.42846 0.11504 0.03978 0.0
C1166 C 0.42627 0.11059 0.08053 0.0
C1167 C 0.41388 0.08623 0.18538 0.0
C1168 C 0.41899 0.09613 0.15181 0.0
H1169 H 0.4584 0.11993 0.97488 0.0
H1170 H 0.45363 0.12006 0.04386 0.0
H1171 H 0.40389 0.12381 0.08774 0.0
H1172 H 0.38143 0.0659 0.21782 0.0
H1173 H 0.38937 0.0845 0.16714 0.0
C1174 C 0.42179 0.42504 0.74169 0.0
C1175 C 0.42475 0.4085 0.75114 0.0
C1176 C 0.41286 0.42929 0.70957 0.0
C1177 C 0.40131 0.41231 0.61711 0.0
H1178 H 0.3763 0.4526 0.61021 0.0
C1179 C 0.37624 0.43478 0.47407 0.0
C1180 C 0.38108 0.4507 0.46496 0.0
C1181 C 0.37714 0.429 0.51164 0.0
C1182 C 0.38316 0.44126 0.61182 0.0
H1183 H 0.41995 0.38346 0.73542 0.0
H1184 H 0.40406 0.39086 0.67998 0.0
H1185 H 0.38629 0.44325 0.672 0.0
H1186 H 0.38986 0.47335 0.48734 0.0
H1187 H 0.39125 0.4634 0.55311 0.0
H1188 H 0.39845 0.4105 0.55688 0.0
C1189 C 0.40899 0.40057 0.69675 0.0
C1190 C 0.38897 0.43594 0.64713 0.0
C1191 C 0.41806 0.39632 0.72864 0.0
C1192 C 0.38591 0.46109 0.49402 0.0
C1193 C 0.38666 0.45539 0.53157 0.0
C1194 C 0.39538 0.41754 0.58194 0.0
C1195 C 0.40655 0.4171 0.68635 0.0
C1196 C 0.3985 0.42164 0.65003 0.0
C1197 C 0.3828 0.43912 0.54056 0.0
C1198 C 0.38661 0.4323 0.57876 0.0
H1199 H 0.4268 0.43473 0.75838 0.0
H1200 H 0.41146 0.44214 0.70219 0.0
H1201 H 0.40878 0.40138 0.61802 0.0
H1202 H 0.37268 0.42654 0.45186 0.0
H1203 H 0.37403 0.41643 0.51784 0.0
C1204 C 0.07825 0.35222 0.02112 0.0
C1205 C 0.063 0.35182 0.00518 0.0
C1206 C 0.08014 0.35545 0.0598 0.0
C1207 C 0.05914 0.37797 0.13516 0.0
H1208 H 0.09403 0.36207 0.19774 0.0
C1209 C 0.07141 0.40621 0.28116 0.0
C1210 C 0.08735 0.41037 0.2871 0.0
C1211 C 0.0674 0.39591 0.2513 0.0
C1212 C 0.08423 0.36662 0.18058 0.0
H1213 H 0.03774 0.35432 0.01764 0.0
H1214 H 0.041 0.35913 0.08517 0.0
H1215 H 0.08876 0.34887 0.1371 0.0
H1216 H 0.11163 0.40637 0.2672 0.0
H1217 H 0.10459 0.38866 0.21504 0.0
H1218 H 0.0549 0.39602 0.17783 0.0
C1219 C 0.05153 0.35705 0.06778 0.0
C1220 C 0.08121 0.35906 0.14587 0.0
C1221 C 0.04965 0.35393 0.02908 0.0
C1222 C 0.09922 0.4035 0.2634 0.0
C1223 C 0.0952 0.3932 0.23364 0.0
C1224 C 0.06214 0.38548 0.1698 0.0
C1225 C 0.0668 0.35844 0.08332 0.0
C1226 C 0.06883 0.36488 0.12239 0.0
C1227 C 0.07923 0.38951 0.22682 0.0
C1228 C 0.07492 0.38013 0.19253 0.0
H1229 H 0.08875 0.35085 0.00324 0.0
H1230 H 0.09208 0.35662 0.07067 0.0
H1231 H 0.0497 0.38299 0.11753 0.0
H1232 H 0.06198 0.41119 0.29902 0.0
H1233 H 0.05499 0.39314 0.24703 0.0
C1234 C 0.11061 0.04376 0.46304 0.0
C1235 C 0.11196 0.05443 0.43175 0.0
C1236 C 0.10915 0.04996 0.49979 0.0
C1237 C 0.09102 0.08575 0.54319 0.0
H1238 H 0.10322 0.06388 0.63729 0.0
C1239 C 0.06073 0.10225 0.68581 0.0
C1240 C 0.05626 0.08885 0.70875 0.0
C1241 C 0.07109 0.10002 0.65488 0.0
C1242 C 0.09969 0.07011 0.61125 0.0
H1243 H 0.1139 0.07971 0.41375 0.0
H1244 H 0.11153 0.0907 0.47831 0.0
H1245 H 0.11681 0.05665 0.57787 0.0
H1246 H 0.05941 0.06264 0.71745 0.0
H1247 H 0.0771 0.05871 0.66306 0.0
H1248 H 0.07338 0.0986 0.57589 0.0
C1249 C 0.11159 0.07755 0.47455 0.0
C1250 C 0.10753 0.06603 0.57729 0.0
C1251 C 0.11313 0.0713 0.43774 0.0
C1252 C 0.06259 0.07323 0.70039 0.0
C1253 C 0.07288 0.071 0.66938 0.0
C1254 C 0.08315 0.08978 0.57705 0.0
C1255 C 0.10882 0.06697 0.50573 0.0
C1256 C 0.10297 0.07348 0.54271 0.0
C1257 C 0.07717 0.08435 0.64606 0.0
C1258 C 0.08706 0.08167 0.61131 0.0
H1259 H 0.10938 0.03072 0.45876 0.0
H1260 H 0.10687 0.04148 0.52304 0.0
H1261 H 0.08701 0.09153 0.51699 0.0
H1262 H 0.05622 0.11448 0.69166 0.0
H1263 H 0.07429 0.1106 0.6378 0.0
C1264 C 0.01902 0.88752 0.19803 0.0
C1265 C 0.00892 0.89682 0.17416 0.0
C1266 C 0.03432 0.89304 0.20629 0.0
C1267 C 0.06364 0.92551 0.17942 0.0
H1268 H 0.07021 0.92753 0.28826 0.0
C1269 C 0.10014 0.97724 0.24273 0.0
C1270 C 0.09127 0.98551 0.27091 0.0
C1271 C 0.09591 0.96143 0.23174 0.0
C1272 C 0.06868 0.92697 0.25771 0.0
H1273 H 0.00739 0.91851 0.13795 0.0
H1274 H 0.03354 0.92814 0.15263 0.0
H1275 H 0.05128 0.90834 0.26326 0.0
H1276 H 0.07193 0.98321 0.31183 0.0
H1277 H 0.06455 0.95614 0.29274 0.0
H1278 H 0.07978 0.94534 0.17425 0.0
C1279 C 0.02995 0.91655 0.16488 0.0
C1280 C 0.05794 0.91579 0.24329 0.0
C1281 C 0.01477 0.91111 0.15684 0.0
C1282 C 0.0789 0.97728 0.28966 0.0
C1283 C 0.07478 0.96157 0.27901 0.0
C1284 C 0.07422 0.93684 0.1939 0.0
C1285 C 0.03979 0.90787 0.19051 0.0
C1286 C 0.05455 0.91566 0.20417 0.0
C1287 C 0.08289 0.95359 0.24916 0.0
C1288 C 0.07608 0.9384 0.23341 0.0
H1289 H 0.01488 0.87639 0.21161 0.0
H1290 H 0.04165 0.88599 0.22592 0.0
H1291 H 0.06166 0.92537 0.14899 0.0
H1292 H 0.1098 0.98328 0.22795 0.0
H1293 H 0.10246 0.95557 0.2088 0.0
C1294 C 0.57219 0.0047 0.68041 0.0
C1295 C 0.58567 0.99761 0.6978 0.0
C1296 C 0.56638 0.01999 0.69161 0.0
C1297 C 0.56376 0.04466 0.77652 0.0
H1298 H 0.53866 0.07243 0.70879 0.0
C1299 C 0.50291 0.06937 0.81733 0.0
C1300 C 0.49676 0.08409 0.80189 0.0
C1301 C 0.51815 0.06381 0.80771 0.0
C1302 C 0.54588 0.06515 0.72823 0.0
H1303 H 0.60424 0.00144 0.73904 0.0
H1304 H 0.59389 0.02833 0.75916 0.0
H1305 H 0.55875 0.05383 0.68242 0.0
H1306 H 0.50215 0.105 0.76577 0.0
H1307 H 0.52895 0.09511 0.7485 0.0
H1308 H 0.55049 0.05555 0.82223 0.0
C1309 C 0.58783 0.02193 0.73683 0.0
C1310 C 0.55729 0.05435 0.71306 0.0
C1311 C 0.59377 0.00658 0.72528 0.0
C1312 C 0.50653 0.09355 0.77794 0.0
C1313 C 0.52185 0.08789 0.76803 0.0
C1314 C 0.55242 0.05553 0.7917 0.0
C1315 C 0.57385 0.02862 0.72066 0.0
C1316 C 0.56565 0.04328 0.73688 0.0
C1317 C 0.5277 0.07278 0.78229 0.0
C1318 C 0.54269 0.06517 0.76756 0.0
H1319 H 0.56575 0.99821 0.65883 0.0
H1320 H 0.55546 0.02458 0.67892 0.0
H1321 H 0.57001 0.03637 0.79574 0.0
H1322 H 0.49578 0.06182 0.83615 0.0
H1323 H 0.5221 0.052 0.81875 0.0
C1324 C 0.39246 0.52192 0.28986 0.0
C1325 C 0.39497 0.5076 0.26879 0.0
C1326 C 0.39938 0.5366 0.27789 0.0
C1327 C 0.42349 0.55562 0.19948 0.0
H1328 H 0.44961 0.57029 0.28254 0.0
C1329 C 0.48871 0.57016 0.18246 0.0
C1330 C 0.49548 0.58317 0.20214 0.0
C1331 C 0.47273 0.56647 0.18754 0.0
C1332 C 0.44216 0.56673 0.25913 0.0
H1333 H 0.4056 0.49733 0.21797 0.0
H1334 H 0.41749 0.52279 0.19667 0.0
H1335 H 0.4264 0.5538 0.29626 0.0
H1336 H 0.49068 0.60281 0.24192 0.0
H1337 H 0.46258 0.59591 0.25189 0.0
H1338 H 0.44009 0.56748 0.16226 0.0
C1339 C 0.41008 0.52299 0.22205 0.0
C1340 C 0.42879 0.55728 0.26696 0.0
C1341 C 0.40329 0.50836 0.23416 0.0
C1342 C 0.48577 0.59269 0.22646 0.0
C1343 C 0.46974 0.58877 0.23213 0.0
C1344 C 0.4369 0.56497 0.19167 0.0
C1345 C 0.40889 0.53708 0.24473 0.0
C1346 C 0.41981 0.55089 0.23709 0.0
C1347 C 0.46312 0.57555 0.21281 0.0
C1348 C 0.4468 0.56989 0.22133 0.0
H1349 H 0.38632 0.52146 0.31707 0.0
H1350 H 0.39815 0.54727 0.29582 0.0
H1351 H 0.41663 0.55117 0.17589 0.0
H1352 H 0.49581 0.56267 0.16326 0.0
H1353 H 0.46805 0.55604 0.17276 0.0
C1354 C 0.91356 0.49354 0.65117 0.0
C1355 C 0.90047 0.4999 0.67167 0.0
C1356 C 0.91948 0.47782 0.65887 0.0
C1357 C 0.91143 0.43847 0.70899 0.0
H1358 H 0.95751 0.43611 0.71243 0.0
C1359 C 0.94882 0.38631 0.78188 0.0
C1360 C 0.96344 0.38203 0.76461 0.0
C1361 C 0.93926 0.3989 0.76645 0.0
C1362 C 0.94464 0.43644 0.711 0.0
H1363 H 0.88282 0.49446 0.7151 0.0
H1364 H 0.8935 0.467 0.72946 0.0
H1365 H 0.94436 0.46156 0.69386 0.0
H1366 H 0.97881 0.38653 0.71585 0.0
H1367 H 0.96208 0.40824 0.68875 0.0
H1368 H 0.91191 0.41329 0.72738 0.0
C1369 C 0.89903 0.47414 0.70701 0.0
C1370 C 0.93707 0.45107 0.70032 0.0
C1371 C 0.89296 0.48989 0.69893 0.0
C1372 C 0.96771 0.38969 0.73011 0.0
C1373 C 0.95817 0.40218 0.71468 0.0
C1374 C 0.91905 0.42377 0.71994 0.0
C1375 C 0.91262 0.4681 0.68768 0.0
C1376 C 0.92038 0.45228 0.69894 0.0
C1377 C 0.94417 0.40738 0.73347 0.0
C1378 C 0.93576 0.4226 0.72084 0.0
H1379 H 0.91943 0.50083 0.62946 0.0
H1380 H 0.92967 0.4734 0.64266 0.0
H1381 H 0.89856 0.43898 0.70805 0.0
H1382 H 0.9452 0.38064 0.80851 0.0
H1383 H 0.92856 0.40265 0.78161 0.0
C1384 C 0.97029 0.0946 0.75696 0.0
C1385 C 0.98015 0.08674 0.78392 0.0
C1386 C 0.95487 0.08893 0.75074 0.0
C1387 C 0.92374 0.06181 0.79117 0.0
H1388 H 0.91814 0.04794 0.68705 0.0
C1389 C 0.89797 0.00072 0.75181 0.0
C1390 C 0.8907 -0.00133 0.71651 0.0
C1391 C 0.903 0.01616 0.76273 0.0
C1392 C 0.91915 0.05208 0.7161 0.0
H1393 H 0.9813 0.06763 0.82724 0.0
H1394 H 0.95461 0.05797 0.81679 0.0
H1395 H 0.93857 0.06759 0.70149 0.0
H1396 H 0.8822 0.01096 0.66557 0.0
H1397 H 0.8909 0.03816 0.68471 0.0
H1398 H 0.90495 0.04553 0.80611 0.0
C1399 C 0.95865 0.06842 0.80032 0.0
C1400 C 0.9309 0.06337 0.72437 0.0
C1401 C 0.97403 0.07385 0.80602 0.0
C1402 C 0.88754 0.0124 0.69328 0.0
C1403 C 0.89267 0.02788 0.70408 0.0
C1404 C 0.91195 0.05057 0.7829 0.0
C1405 C 0.94901 0.0756 0.77202 0.0
C1406 C 0.93386 0.06767 0.76223 0.0
C1407 C 0.90106 0.0298 0.73822 0.0
C1408 C 0.91009 0.04492 0.74556 0.0
H1409 H 0.97472 0.10458 0.73956 0.0
H1410 H 0.94769 0.09467 0.72871 0.0
H1411 H 0.92559 0.06514 0.82056 0.0
H1412 H 0.90079 0.99019 0.7697 0.0
H1413 H 0.90962 0.01708 0.78893 0.0
C1414 C 0.48061 0.89228 0.23133 0.0
C1415 C 0.48853 0.89983 0.20064 0.0
C1416 C 0.4652 0.89747 0.24164 0.0
C1417 C 0.43004 0.92175 0.20931 0.0
H1418 H 0.42952 0.93914 0.31149 0.0
C1419 C 0.39693 0.98081 0.24869 0.0
C1420 C 0.39337 0.98402 0.28691 0.0
C1421 C 0.40359 0.96567 0.23835 0.0
C1422 C 0.42907 0.934 0.28324 0.0
H1423 H 0.48619 0.91779 0.155 0.0
H1424 H 0.45936 0.92659 0.17249 0.0
H1425 H 0.45074 0.92044 0.29235 0.0
H1426 H 0.39265 0.97386 0.34396 0.0
H1427 H 0.40343 0.94705 0.32584 0.0
H1428 H 0.40865 0.93574 0.19971 0.0
C1429 C 0.46499 0.91678 0.18878 0.0
C1430 C 0.44134 0.92326 0.27227 0.0
C1431 C 0.48043 0.91185 0.17901 0.0
C1432 C 0.39522 0.97151 0.31421 0.0
C1433 C 0.40159 0.95626 0.30383 0.0
C1434 C 0.41762 0.93233 0.22042 0.0
C1435 C 0.45737 0.90998 0.22079 0.0
C1436 C 0.44234 0.91764 0.23472 0.0
C1437 C 0.4067 0.95345 0.26614 0.0
C1438 C 0.4174 0.93923 0.25699 0.0
H1439 H 0.4866 0.88297 0.24845 0.0
H1440 H 0.45957 0.89207 0.2665 0.0
H1441 H 0.43047 0.91742 0.18026 0.0
H1442 H 0.39585 0.99045 0.22737 0.0
H1443 H 0.40748 0.96413 0.20914 0.0
C1444 C 0.57856 0.47295 0.69136 0.0
C1445 C 0.5917 0.47978 0.70933 0.0
C1446 C 0.57283 0.45782 0.70303 0.0
C1447 C 0.56963 0.43365 0.78978 0.0
H1448 H 0.54391 0.40754 0.72325 0.0
C1449 C 0.50776 0.41463 0.83045 0.0
C1450 C 0.50071 0.4007 0.8152 0.0
C1451 C 0.52336 0.41854 0.82118 0.0
C1452 C 0.5513 0.41432 0.74243 0.0
H1453 H 0.60989 0.47556 0.75187 0.0
H1454 H 0.59971 0.44891 0.77274 0.0
H1455 H 0.56475 0.42446 0.69621 0.0
H1456 H 0.50487 0.37939 0.77993 0.0
H1457 H 0.53236 0.38634 0.76335 0.0
H1458 H 0.55588 0.42387 0.83589 0.0
C1459 C 0.59381 0.45542 0.74967 0.0
C1460 C 0.56315 0.42419 0.72685 0.0
C1461 C 0.59966 0.47063 0.7377 0.0
C1462 C 0.50995 0.39027 0.79192 0.0
C1463 C 0.52566 0.39426 0.7824 0.0
C1464 C 0.55791 0.42364 0.8054 0.0
C1465 C 0.58005 0.44906 0.73311 0.0
C1466 C 0.57168 0.43481 0.7501 0.0
C1467 C 0.53242 0.40864 0.79635 0.0
C1468 C 0.54789 0.41474 0.78165 0.0
H1469 H 0.57227 0.47958 0.66905 0.0
H1470 H 0.56208 0.45353 0.68993 0.0
H1471 H 0.57602 0.44157 0.80864 0.0
H1472 H 0.50107 0.42288 0.8488 0.0
H1473 H 0.52799 0.42987 0.83195 0.0
C1474 C 0.01411 0.58281 0.23459 0.0
C1475 C 0.00792 0.57544 0.20207 0.0
C1476 C 0.02848 0.57705 0.25011 0.0
C1477 C 0.06441 0.55132 0.23243 0.0
H1478 H 0.0567 0.53419 0.33401 0.0
C1479 C 0.0954 0.49307 0.2894 0.0
C1480 C 0.09548 0.48994 0.32867 0.0
C1481 C 0.08907 0.50787 0.27524 0.0
C1482 C 0.05945 0.53922 0.30616 0.0
H1483 H 0.01243 0.55727 0.15852 0.0
H1484 H 0.03759 0.54751 0.18508 0.0
H1485 H 0.03769 0.5532 0.3058 0.0
H1486 H 0.09054 0.50007 0.38423 0.0
H1487 H 0.08059 0.52636 0.35994 0.0
H1488 H 0.08606 0.53713 0.23241 0.0
C1489 C 0.03135 0.5576 0.19879 0.0
C1490 C 0.04843 0.55015 0.28993 0.0
C1491 C 0.01688 0.56309 0.18379 0.0
C1492 C 0.09054 0.50229 0.35375 0.0
C1493 C 0.08464 0.51725 0.33972 0.0
C1494 C 0.07563 0.54061 0.24893 0.0
C1495 C 0.03703 0.56413 0.23278 0.0
C1496 C 0.05049 0.5558 0.25241 0.0
C1497 C 0.08297 0.5199 0.30024 0.0
C1498 C 0.07298 0.53386 0.28547 0.0
H1499 H 0.00743 0.59234 0.24924 0.0
H1500 H 0.03264 0.58228 0.27637 0.0
H1501 H 0.06631 0.55563 0.20349 0.0
H1502 H 0.09898 0.48358 0.2696 0.0
H1503 H 0.08791 0.50926 0.24472 0.0
C1504 C 0.18274 0.01448 0.27172 0.0
C1505 C 0.17672 0.03047 0.27703 0.0
C1506 C 0.19866 0.01068 0.27987 0.0
C1507 C 0.23293 0.02533 0.33367 0.0
H1508 H 0.25899 0.00755 0.25184 0.0
C1509 C 0.29747 0.0424 0.31179 0.0
C1510 C 0.30866 0.03068 0.2992 0.0
C1511 C 0.28149 0.03845 0.31546 0.0
C1512 C 0.25186 0.01214 0.27537 0.0
H1513 H 0.1824 0.05494 0.29522 0.0
H1514 H 0.21006 0.04834 0.30955 0.0
H1515 H 0.23002 0.00754 0.24663 0.0
H1516 H 0.31195 0.00569 0.28002 0.0
H1517 H 0.28382 -0.00127 0.28643 0.0
H1518 H 0.2547 0.03062 0.36167 0.0
C1519 C 0.20254 0.0387 0.29944 0.0
C1520 C 0.23529 0.01214 0.27236 0.0
C1521 C 0.18676 0.04252 0.29084 0.0
C1522 C 0.3036 0.01485 0.29052 0.0
C1523 C 0.28752 0.01092 0.29388 0.0
C1524 C 0.24944 0.02529 0.33673 0.0
C1525 C 0.20866 0.02278 0.29393 0.0
C1526 C 0.22574 0.01939 0.30076 0.0
C1527 C 0.27631 0.02273 0.30625 0.0
C1528 C 0.25907 0.01937 0.30685 0.0
H1529 H 0.17525 0.00504 0.26056 0.0
H1530 H 0.20316 0.99835 0.27516 0.0
H1531 H 0.22578 0.03072 0.35626 0.0
H1532 H 0.30106 0.05469 0.31862 0.0
H1533 H 0.2731 0.04792 0.32433 0.0
C1534 C 0.47406 0.18227 0.82768 0.0
C1535 C 0.4679 0.1769 0.79306 0.0
C1536 C 0.47947 0.19827 0.83099 0.0
C1537 C 0.47504 0.23508 0.83632 0.0
H1538 H 0.4938 0.25996 0.75328 0.0
C1539 C 0.46664 0.30248 0.76946 0.0
C1540 C 0.46687 0.31206 0.80232 0.0
C1541 C 0.47211 0.28626 0.77058 0.0
C1542 C 0.48864 0.25316 0.77681 0.0
H1543 H 0.46279 0.18369 0.73465 0.0
H1544 H 0.47202 0.21168 0.74037 0.0
H1545 H 0.49423 0.23005 0.75119 0.0
H1546 H 0.47277 0.3123 0.86223 0.0
H1547 H 0.48265 0.28395 0.86414 0.0
H1548 H 0.46869 0.25809 0.86103 0.0
C1549 C 0.47308 0.20351 0.76476 0.0
C1550 C 0.48889 0.23606 0.77563 0.0
C1551 C 0.46767 0.18755 0.76152 0.0
C1552 C 0.47293 0.30529 0.83622 0.0
C1553 C 0.47839 0.28903 0.8374 0.0
C1554 C 0.47479 0.25215 0.83751 0.0
C1555 C 0.47866 0.20918 0.79979 0.0
C1556 C 0.48154 0.22688 0.80467 0.0
C1557 C 0.47775 0.27925 0.80475 0.0
C1558 C 0.48104 0.26137 0.80707 0.0
H1559 H 0.47391 0.17442 0.85274 0.0
H1560 H 0.4837 0.20229 0.85833 0.0
H1561 H 0.46911 0.22839 0.85896 0.0
H1562 H 0.46185 0.30743 0.74311 0.0
H1563 H 0.47115 0.27898 0.74512 0.0
C1564 C 0.29892 0.46884 0.2813 0.0
C1565 C 0.30977 0.4699 0.31118 0.0
C1566 C 0.28288 0.47264 0.28733 0.0
C1567 C 0.24958 0.48514 0.30431 0.0
H1568 H 0.23302 0.46039 0.39026 0.0
C1569 C 0.18624 0.45996 0.37071 0.0
C1570 C 0.18016 0.45361 0.3369 0.0
C1571 C 0.20125 0.46702 0.37094 0.0
C1572 C 0.23739 0.46773 0.36666 0.0
H1573 H 0.31252 0.4757 0.3708 0.0
H1574 H 0.28445 0.48265 0.38131 0.0
H1575 H 0.26148 0.46453 0.38447 0.0
H1576 H 0.18481 0.4498 0.27686 0.0
H1577 H 0.21107 0.46185 0.27728 0.0
H1578 H 0.22549 0.48755 0.28551 0.0
C1579 C 0.28838 0.47907 0.35309 0.0
C1580 C 0.25373 0.47012 0.36336 0.0
C1581 C 0.30447 0.47532 0.34696 0.0
C1582 C 0.18923 0.45462 0.3033 0.0
C1583 C 0.20417 0.46172 0.30346 0.0
C1584 C 0.23324 0.48274 0.30762 0.0
C1585 C 0.27737 0.47738 0.32356 0.0
C1586 C 0.26004 0.47826 0.33133 0.0
C1587 C 0.21042 0.46783 0.33736 0.0
C1588 C 0.22707 0.47342 0.338 0.0
H1589 H 0.30277 0.46454 0.25356 0.0
H1590 H 0.27467 0.47093 0.26417 0.0
H1591 H 0.25411 0.49171 0.27967 0.0
H1592 H 0.1797 0.45896 0.39725 0.0
H1593 H 0.20581 0.47156 0.3975 0.0
C1594 C 0.00817 0.30407 0.88052 0.0
C1595 C 0.00428 0.31404 0.84903 0.0
C1596 C 0.00494 0.28735 0.88032 0.0
C1597 C 0.0096 0.25202 0.85922 0.0
H1598 H 0.97599 0.23271 0.80053 0.0
C1599 C 0.00309 0.1912 0.76701 0.0
C1600 C 0.00812 0.17917 0.79323 0.0
C1601 C -0.0011 0.20691 0.77938 0.0
C1602 C 0.98538 0.23796 0.8172 0.0
H1603 H 0.9932 0.31454 0.79348 0.0
H1604 H 0.98817 0.28537 0.79236 0.0
H1605 H 0.9749 0.26201 0.81417 0.0
H1606 H 0.01299 0.17399 0.85267 0.0
H1607 H 0.00565 0.20148 0.87438 0.0
H1608 H 0.02014 0.22801 0.86186 0.0
C1609 C 0.99335 0.2904 0.81772 0.0
C1610 C 0.98482 0.25473 0.82487 0.0
C1611 C 0.99633 0.30716 0.81822 0.0
C1612 C 0.00865 0.18294 0.83208 0.0
C1613 C 0.00464 0.19869 0.84442 0.0
C1614 C 0.01003 0.23526 0.85201 0.0
C1615 C -0.00198 0.28019 0.84832 0.0
C1616 C 0.99717 0.26206 0.84507 0.0
C1617 C 1e-05 0.2109 0.81809 0.0
C1618 C -0.00185 0.22815 0.83012 0.0
H1619 H 0.01403 0.3091 0.90498 0.0
H1620 H 0.00831 0.27996 0.90485 0.0
H1621 H 0.0195 0.25718 0.87421 0.0
H1622 H 0.00282 0.18856 0.73685 0.0
H1623 H 0.99561 0.21617 0.75842 0.0
C1624 C 0.68698 0.96179 0.73831 0.0
C1625 C 0.67686 0.96382 0.70699 0.0
C1626 C 0.70297 0.96586 0.73537 0.0
C1627 C 0.73426 0.96705 0.66347 0.0
H1628 H 0.75948 0.98206 0.74776 0.0
C1629 C 0.80273 0.96288 0.6603 0.0
C1630 C 0.80937 0.95568 0.69311 0.0
C1631 C 0.78685 0.96824 0.66032 0.0
C1632 C 0.75258 0.9779 0.72394 0.0
H1633 H 0.67551 0.97193 0.64809 0.0
H1634 H 0.70339 0.9794 0.64316 0.0
H1635 H 0.73051 0.98454 0.75094 0.0
H1636 H 0.80478 0.94843 0.75161 0.0
H1637 H 0.77701 0.95757 0.75161 0.0
H1638 H 0.75624 0.95977 0.63715 0.0
C1639 C 0.69892 0.97469 0.67006 0.0
C1640 C 0.73602 0.97933 0.72574 0.0
C1641 C 0.68288 0.97063 0.67306 0.0
C1642 C 0.79993 0.95401 0.72599 0.0
C1643 C 0.7841 0.95942 0.72609 0.0
C1644 C 0.75081 0.96563 0.66166 0.0
C1645 C 0.70922 0.97194 0.70089 0.0
C1646 C 0.72667 0.97342 0.69607 0.0
C1647 C 0.77734 0.96645 0.69316 0.0
C1648 C 0.7601 0.97054 0.69242 0.0
H1649 H 0.68264 0.9565 0.76476 0.0
H1650 H 0.71062 0.96336 0.7595 0.0
H1651 H 0.7274 0.96218 0.64033 0.0
H1652 H 0.80956 0.96383 0.63419 0.0
H1653 H 0.78194 0.97356 0.63449 0.0
C1654 C 0.51963 0.67914 0.17398 0.0
C1655 C 0.52567 0.6732 0.2087 0.0
C1656 C 0.5137 0.6952 0.17104 0.0
C1657 C 0.51652 0.73219 0.16775 0.0
H1658 H 0.49581 0.75523 0.25106 0.0
C1659 C 0.52163 0.79806 0.23908 0.0
C1660 C 0.52151 0.80832 0.20679 0.0
C1661 C 0.51664 0.78192 0.23667 0.0
C1662 C 0.5015 0.74895 0.22744 0.0
H1663 H 0.5301 0.67903 0.26757 0.0
H1664 H 0.51994 0.70711 0.26252 0.0
H1665 H 0.49679 0.7253 0.25147 0.0
H1666 H 0.51604 0.80974 0.14661 0.0
H1667 H 0.50701 0.78162 0.14252 0.0
H1668 H 0.522 0.75574 0.14469 0.0
C1669 C 0.51938 0.69935 0.23776 0.0
C1670 C 0.50206 0.73184 0.22768 0.0
C1671 C 0.52534 0.68335 0.24062 0.0
C1672 C 0.51583 0.80231 0.17225 0.0
C1673 C 0.51086 0.78612 0.16978 0.0
C1674 C 0.51596 0.74928 0.16752 0.0
C1675 C 0.51382 0.70558 0.20273 0.0
C1676 C 0.51013 0.72332 0.19859 0.0
C1677 C 0.51156 0.77565 0.20179 0.0
C1678 C 0.50901 0.75783 0.19812 0.0
H1679 H 0.52019 0.67167 0.14869 0.0
H1680 H 0.50952 0.69968 0.14369 0.0
H1681 H 0.52296 0.726 0.14509 0.0
H1682 H 0.52602 0.8024 0.26602 0.0
H1683 H 0.5176 0.77412 0.26171 0.0
C1684 C 0.80228 0.53029 0.7357 0.0
C1685 C 0.81141 0.52915 0.70224 0.0
C1686 C 0.78727 0.52333 0.73774 0.0
C1687 C 0.75433 0.51388 0.67579 0.0
H1688 H 0.73633 0.49551 0.76849 0.0
C1689 C 0.68713 0.50675 0.69077 0.0
C1690 C 0.68092 0.51384 0.72409 0.0
C1691 C 0.70335 0.50294 0.68778 0.0
C1692 C 0.74121 0.50054 0.74233 0.0
H1693 H 0.81204 0.52019 0.64439 0.0
H1694 H 0.78586 0.50772 0.64809 0.0
H1695 H 0.76502 0.49946 0.76358 0.0
H1696 H 0.68653 0.52208 0.78071 0.0
H1697 H 0.71487 0.51571 0.77542 0.0
H1698 H 0.73056 0.51579 0.65518 0.0
C1699 C 0.79036 0.51384 0.6729 0.0
C1700 C 0.7576 0.5028 0.73954 0.0
C1701 C 0.8054 0.52079 0.67091 0.0
C1702 C 0.69104 0.51647 0.75487 0.0
C1703 C 0.70724 0.51268 0.7519 0.0
C1704 C 0.73796 0.51164 0.67859 0.0
C1705 C 0.78103 0.51526 0.70614 0.0
C1706 C 0.76425 0.51002 0.70672 0.0
C1707 C 0.71366 0.50634 0.71791 0.0
C1708 C 0.73116 0.50548 0.71238 0.0
H1709 H 0.80664 0.53684 0.76005 0.0
H1710 H 0.78025 0.52492 0.76349 0.0
H1711 H 0.75905 0.51964 0.65027 0.0
H1712 H 0.67967 0.50506 0.66618 0.0
H1713 H 0.70794 0.49801 0.66128 0.0
C1714 C 0.9742 0.67804 0.22738 0.0
C1715 C 0.9753 0.6678 0.19559 0.0
C1716 C 0.97925 0.69419 0.22503 0.0
C1717 C 0.9825 0.72723 0.15555 0.0
H1718 H 0.00069 0.75014 0.24051 0.0
C1719 C 0.98283 0.79762 0.15884 0.0
C1720 C 0.97662 0.80412 0.19284 0.0
C1721 C 0.98753 0.78112 0.15703 0.0
C1722 C 0.99566 0.74391 0.21647 0.0
H1723 H 0.98255 0.66645 0.13632 0.0
H1724 H 0.99157 0.69468 0.13226 0.0
H1725 H 0.00036 0.72024 0.24116 0.0
H1726 H 0.97087 0.79866 0.25179 0.0
H1727 H 0.97886 0.76992 0.24864 0.0
H1728 H 0.97707 0.75084 0.13169 0.0
C1729 C 0.98692 0.69013 0.15912 0.0
C1730 C 0.99548 0.72681 0.21684 0.0
C1731 C 0.98194 0.67389 0.16158 0.0
C1732 C 0.97567 0.79398 0.22525 0.0
C1733 C 0.9804 0.77754 0.22351 0.0
C1734 C 0.98266 0.74433 0.1552 0.0
C1735 C 0.98535 0.70053 0.19065 0.0
C1736 C 0.98839 0.71831 0.187 0.0
C1737 C 0.98607 0.77083 0.18918 0.0
C1738 C 0.98873 0.75286 0.18628 0.0
H1739 H 0.96906 0.67365 0.2539 0.0
H1740 H 0.97763 0.70194 0.24965 0.0
H1741 H 0.9768 0.72107 0.13229 0.0
H1742 H 0.98329 0.80497 0.13309 0.0
H1743 H 0.99186 0.77631 0.13019 0.0
loop_
_geom_bond_atom_site_label_1
_geom_bond_atom_site_label_2
_geom_bond_distance
_geom_bond_site_symmetry_2
_ccdc_geom_bond_type
Co0 O3 2.023 . S
Co0 N17 1.989 . S
Co0 O25 1.967 . S
Co0 O32 1.920 . S
Co1 O4 1.966 . S
Co1 N10 2.022 . S
Co1 N18 1.993 . S
Co1 O26 1.941 . S
C2 O3 1.246 1_565 S
C2 O4 1.263 1_565 S
O3 Co0 2.023 . S
O3 C2 1.246 1_545 S
O4 Co1 1.966 . S
O4 C2 1.263 1_545 S
C5 O6 1.235 . S
C5 O32 1.289 . S
O6 C5 1.235 . S
C7 C9 1.400 . S
C7 N10 1.351 . S
C7 C12 1.501 1_545 S
C8 C9 1.387 . S
C8 N11 1.341 . S
C9 C7 1.400 . S
C9 C8 1.387 . S
N10 Co1 2.022 . S
N10 C7 1.351 . S
N10 N11 1.365 . S
N11 C8 1.341 . S
N11 N10 1.365 . S
N11 H31 0.862 . S
C12 C7 1.501 1_565 S
C12 H13 0.961 . S
C12 H14 0.961 . S
C12 H15 0.960 . S
H13 C12 0.961 . S
H14 C12 0.961 . S
H15 C12 0.960 . S
C16 N17 1.342 . S
C16 C20 1.401 . S
C16 C21 1.499 . S
N17 Co0 1.989 . S
N17 C16 1.342 . S
N17 N18 1.388 . S
N18 Co1 1.993 . S
N18 N17 1.388 . S
N18 C19 1.346 . S
C19 N18 1.346 . S
C19 C20 1.396 . S
C19 C29 1.510 . S
C20 C16 1.401 . S
C20 C19 1.396 . S
C21 C16 1.499 . S
C21 H22 0.959 . S
C21 H23 0.960 . S
C21 H24 0.961 . S
H22 C21 0.959 . S
H23 C21 0.960 . S
H24 C21 0.961 . S
O25 Co0 1.967 . S
O25 C33 1.258 . S
O26 Co1 1.941 . S
O26 C33 1.266 . S
H27 C29 0.959 . S
H28 C29 0.961 . S
C29 C19 1.510 . S
C29 H27 0.959 . S
C29 H28 0.961 . S
C29 H30 0.960 . S
H30 C29 0.960 . S
H31 N11 0.862 . S
O32 Co0 1.920 . S
O32 C5 1.289 . S
C33 O25 1.258 . S
C33 O26 1.266 . S
Co34 O37 1.970 . S
Co34 N51 1.989 . S
Co34 O59 1.967 . S
Co34 O66 1.920 . S
Co35 O38 1.966 . S
Co35 N44 2.022 . S
Co35 N52 1.993 . S
Co35 O60 1.941 . S
C36 O37 1.258 . S
C36 O38 1.263 . S
O37 Co34 1.970 . S
O37 C36 1.258 . S
O38 Co35 1.966 . S
O38 C36 1.263 . S
C39 O40 1.235 . S
C39 O66 1.289 . S
O40 C39 1.235 . S
C41 C43 1.400 . S
C41 N44 1.351 . S
C41 C46 1.501 . S
C42 C43 1.387 . S
C42 N45 1.341 . S
C43 C41 1.400 . S
C43 C42 1.387 . S
N44 Co35 2.022 . S
N44 C41 1.351 . S
N44 N45 1.365 . S
N45 C42 1.341 . S
N45 N44 1.365 . S
N45 H65 0.862 . S
C46 C41 1.501 . S
C46 H47 0.961 . S
C46 H48 0.961 . S
C46 H49 0.960 . S
H47 C46 0.961 . S
H48 C46 0.961 . S
H49 C46 0.960 . S
C50 N51 1.342 . S
C50 C54 1.401 . S
C50 C55 1.499 . S
N51 Co34 1.989 . S
N51 C50 1.342 . S
N51 N52 1.388 . S
N52 Co35 1.993 . S
N52 N51 1.388 . S
N52 C53 1.346 . S
C53 N52 1.346 . S
C53 C54 1.396 . S
C53 C63 1.510 . S
C54 C50 1.401 . S
C54 C53 1.396 . S
C55 C50 1.499 . S
C55 H56 0.959 . S
C55 H57 0.960 1_556 S
C55 H58 0.961 1_556 S
H56 C55 0.959 . S
H57 C55 0.960 1_554 S
H58 C55 0.961 1_554 S
O59 Co34 1.967 . S
O59 C67 1.258 . S
O60 Co35 1.941 . S
O60 C67 1.266 . S
H61 C63 0.959 . S
H62 C63 0.961 . S
C63 C53 1.510 . S
C63 H61 0.959 . S
C63 H62 0.961 . S
C63 H64 0.960 . S
H64 C63 0.960 . S
H65 N45 0.862 . S
O66 Co34 1.920 . S
O66 C39 1.289 . S
C67 O59 1.258 . S
C67 O60 1.266 . S
Co68 O71 1.970 . S
Co68 N85 1.989 . S
Co68 O93 1.967 . S
Co68 O100 1.920 . S
Co69 O72 1.966 . S
Co69 N78 2.022 . S
Co69 N86 1.993 . S
Co69 O94 1.941 . S
C70 O71 1.258 . S
C70 O72 1.263 . S
O71 Co68 1.970 . S
O71 C70 1.258 . S
O72 Co69 1.966 . S
O72 C70 1.263 . S
C73 O74 1.235 . S
C73 O100 1.289 . S
O74 C73 1.235 . S
C75 C77 1.400 . S
C75 N78 1.351 . S
C75 C80 1.501 . S
C76 C77 1.387 . S
C76 N79 1.341 . S
C77 C75 1.400 . S
C77 C76 1.387 . S
N78 Co69 2.022 . S
N78 C75 1.351 . S
N78 N79 1.365 . S
N79 C76 1.341 . S
N79 N78 1.365 . S
N79 H99 0.862 . S
C80 C75 1.501 . S
C80 H81 0.961 . S
C80 H82 0.961 . S
C80 H83 0.960 . S
H81 C80 0.961 . S
H82 C80 0.961 . S
H83 C80 0.960 . S
C84 N85 1.342 . S
C84 C88 1.401 . S
C84 C89 1.499 . S
N85 Co68 1.989 . S
N85 C84 1.342 . S
N85 N86 1.388 . S
N86 Co69 1.993 . S
N86 N85 1.388 . S
N86 C87 1.346 . S
C87 N86 1.346 . S
C87 C88 1.396 . S
C87 C97 1.510 . S
C88 C84 1.401 . S
C88 C87 1.396 . S
C89 C84 1.499 . S
C89 H90 0.959 . S
C89 H91 0.960 . S
C89 H92 0.961 . S
H90 C89 0.959 . S
H91 C89 0.960 . S
H92 C89 0.961 . S
O93 Co68 1.967 . S
O93 C101 1.258 . S
O94 Co69 1.941 . S
O94 C101 1.266 . S
H95 C97 0.959 . S
H96 C97 0.961 . S
C97 C87 1.510 . S
C97 H95 0.959 . S
C97 H96 0.961 . S
C97 H98 0.960 . S
H98 C97 0.960 . S
H99 N79 0.862 . S
O100 Co68 1.920 . S
O100 C73 1.289 . S
C101 O93 1.258 . S
C101 O94 1.266 . S
Co102 O105 1.970 . S
Co102 N119 1.989 . S
Co102 O127 1.967 . S
Co102 O134 1.920 1_455 S
Co103 O106 1.966 . S
Co103 N112 2.022 . S
Co103 N120 1.993 . S
Co103 O128 1.941 . S
C104 O105 1.258 . S
C104 O106 1.263 . S
O105 Co102 1.970 . S
O105 C104 1.258 . S
O106 Co103 1.966 . S
O106 C104 1.263 . S
C107 O108 1.235 . S
C107 O134 1.289 . S
O108 C107 1.235 . S
C109 C111 1.400 . S
C109 N112 1.351 1_554 S
C109 C114 1.501 . S
C110 C111 1.387 . S
C110 N113 1.341 1_554 S
C111 C109 1.400 . S
C111 C110 1.387 . S
N112 Co103 2.022 . S
N112 C109 1.351 1_556 S
N112 N113 1.365 . S
N113 C110 1.341 1_556 S
N113 N112 1.365 . S
N113 H133 0.862 . S
C114 C109 1.501 . S
C114 H115 0.961 1_554 S
C114 H116 0.961 . S
C114 H117 0.960 . S
H115 C114 0.961 1_556 S
H116 C114 0.961 . S
H117 C114 0.960 . S
C118 N119 1.352 . S
C118 C122 1.409 . S
C118 C123 1.484 1_455 S
N119 Co102 1.989 . S
N119 C118 1.352 . S
N119 N120 1.388 . S
N120 Co103 1.993 . S
N120 N119 1.388 . S
N120 C121 1.346 . S
C121 N120 1.346 . S
C121 C122 1.396 . S
C121 C131 1.510 1_556 S
C122 C118 1.409 . S
C122 C121 1.396 . S
C123 C118 1.484 1_655 S
C123 H124 0.959 . S
C123 H125 0.960 . S
C123 H126 0.961 . S
H124 C123 0.959 . S
H125 C123 0.960 . S
H126 C123 0.961 . S
O127 Co102 1.967 . S
O127 C135 1.258 . S
O128 Co103 1.941 . S
O128 C135 1.266 . S
H129 C131 0.959 . S
H130 C131 0.961 . S
C131 C121 1.510 1_554 S
C131 H129 0.959 . S
C131 H130 0.961 . S
C131 H132 0.960 . S
H132 C131 0.960 . S
H133 N113 0.862 . S
O134 Co102 1.920 1_655 S
O134 C107 1.289 . S
C135 O127 1.258 . S
C135 O128 1.266 . S
Co136 O139 1.970 . S
Co136 N153 1.989 . S
Co136 O161 1.967 . S
Co136 O168 1.920 . S
Co137 O140 1.966 . S
Co137 N146 2.022 . S
Co137 N154 1.993 . S
Co137 O162 1.941 . S
C138 O139 1.258 . S
C138 O140 1.263 . S
O139 Co136 1.970 . S
O139 C138 1.258 . S
O140 Co137 1.966 . S
O140 C138 1.263 . S
C141 O142 1.235 . S
C141 O168 1.289 . S
O142 C141 1.235 . S
C143 C145 1.400 . S
C143 N146 1.351 . S
C143 C148 1.501 . S
C144 C145 1.387 . S
C144 N147 1.341 . S
C145 C143 1.400 . S
C145 C144 1.387 . S
N146 Co137 2.022 . S
N146 C143 1.351 . S
N146 N147 1.365 . S
N147 C144 1.341 . S
N147 N146 1.365 . S
N147 H167 0.862 . S
C148 C143 1.501 . S
C148 H149 0.961 . S
C148 H150 0.961 1_565 S
C148 H151 0.960 1_565 S
H149 C148 0.961 . S
H150 C148 0.961 1_545 S
H151 C148 0.960 1_545 S
C152 N153 1.342 . S
C152 C156 1.401 . S
C152 C157 1.499 . S
N153 Co136 1.989 . S
N153 C152 1.342 . S
N153 N154 1.388 . S
N154 Co137 1.993 . S
N154 N153 1.388 . S
N154 C155 1.346 . S
C155 N154 1.346 . S
C155 C156 1.396 . S
C155 C165 1.510 . S
C156 C152 1.401 . S
C156 C155 1.396 . S
C157 C152 1.499 . S
C157 H158 0.959 . S
C157 H159 0.960 . S
C157 H160 0.961 . S
H158 C157 0.959 . S
H159 C157 0.960 . S
H160 C157 0.961 . S
O161 Co136 1.967 . S
O161 C169 1.258 . S
O162 Co137 1.941 . S
O162 C169 1.266 . S
H163 C165 0.959 . S
H164 C165 0.961 . S
C165 C155 1.510 . S
C165 H163 0.959 . S
C165 H164 0.961 . S
C165 H166 0.960 . S
H166 C165 0.960 . S
H167 N147 0.862 . S
O168 Co136 1.920 . S
O168 C141 1.289 . S
C169 O161 1.258 . S
C169 O162 1.266 . S
Co170 O173 1.970 . S
Co170 N187 1.989 . S
Co170 O195 1.967 . S
Co170 O202 1.920 . S
Co171 O174 1.966 . S
Co171 N180 2.022 . S
Co171 N188 1.993 . S
Co171 O196 1.941 . S
C172 O173 1.258 . S
C172 O174 1.263 . S
O173 Co170 1.970 . S
O173 C172 1.258 . S
O174 Co171 1.966 . S
O174 C172 1.263 . S
C175 O176 1.235 . S
C175 O202 1.289 . S
O176 C175 1.235 . S
C177 C179 1.400 . S
C177 N180 1.351 . S
C177 C182 1.501 . S
C178 C179 1.387 . S
C178 N181 1.341 . S
C179 C177 1.400 . S
C179 C178 1.387 . S
N180 Co171 2.022 . S
N180 C177 1.351 . S
N180 N181 1.365 . S
N181 C178 1.341 . S
N181 N180 1.365 . S
N181 H201 0.862 . S
C182 C177 1.501 . S
C182 H183 0.961 . S
C182 H184 0.961 . S
C182 H185 0.960 . S
H183 C182 0.961 . S
H184 C182 0.961 . S
H185 C182 0.960 . S
C186 N187 1.342 . S
C186 C190 1.404 . S
C186 C191 1.499 . S
N187 Co170 1.989 . S
N187 C186 1.342 . S
N187 N188 1.388 . S
N188 Co171 1.993 . S
N188 N187 1.388 . S
N188 C189 1.346 . S
C189 N188 1.346 . S
C189 C190 1.400 . S
C189 C199 1.510 . S
C190 C186 1.404 . S
C190 C189 1.400 . S
C191 C186 1.499 . S
C191 H192 0.959 . S
C191 H193 0.960 1_554 S
C191 H194 0.961 1_554 S
H192 C191 0.959 . S
H193 C191 0.960 1_556 S
H194 C191 0.961 1_556 S
O195 Co170 1.967 . S
O195 C203 1.258 . S
O196 Co171 1.941 . S
O196 C203 1.266 . S
H197 C199 0.959 . S
H198 C199 0.961 . S
C199 C189 1.510 . S
C199 H197 0.959 . S
C199 H198 0.961 . S
C199 H200 0.960 . S
H200 C199 0.960 . S
H201 N181 0.862 . S
O202 Co170 1.920 . S
O202 C175 1.289 . S
C203 O195 1.258 . S
C203 O196 1.266 . S
Co204 O207 1.970 . S
Co204 N221 1.989 . S
Co204 O229 1.967 . S
Co204 O236 1.920 . S
Co205 O208 1.966 . S
Co205 N214 2.022 . S
Co205 N222 1.993 . S
Co205 O230 1.941 . S
C206 O207 1.258 . S
C206 O208 1.263 . S
O207 Co204 1.970 . S
O207 C206 1.258 . S
O208 Co205 1.966 . S
O208 C206 1.263 . S
C209 O210 1.235 . S
C209 O236 1.289 . S
O210 C209 1.235 . S
C211 C213 1.400 . S
C211 N214 1.351 . S
C211 C216 1.501 . S
C212 C213 1.387 . S
C212 N215 1.341 . S
C213 C211 1.400 . S
C213 C212 1.387 . S
N214 Co205 2.022 . S
N214 C211 1.351 . S
N214 N215 1.365 . S
N215 C212 1.341 . S
N215 N214 1.365 . S
N215 H235 0.862 . S
C216 C211 1.501 . S
C216 H217 0.961 . S
C216 H218 0.961 . S
C216 H219 0.960 . S
H217 C216 0.961 . S
H218 C216 0.961 . S
H219 C216 0.960 . S
C220 N221 1.342 . S
C220 C224 1.401 . S
C220 C225 1.499 . S
N221 Co204 1.989 . S
N221 C220 1.342 . S
N221 N222 1.388 . S
N222 Co205 1.993 . S
N222 N221 1.388 . S
N222 C223 1.346 . S
C223 N222 1.346 . S
C223 C224 1.396 . S
C223 C233 1.510 . S
C224 C220 1.401 . S
C224 C223 1.396 . S
C225 C220 1.499 . S
C225 H226 0.959 . S
C225 H227 0.960 . S
C225 H228 0.961 . S
H226 C225 0.959 . S
H227 C225 0.960 . S
H228 C225 0.961 . S
O229 Co204 1.967 . S
O229 C237 1.258 . S
O230 Co205 1.941 . S
O230 C237 1.266 . S
H231 C233 0.959 . S
H232 C233 0.961 . S
C233 C223 1.510 . S
C233 H231 0.959 . S
C233 H232 0.961 . S
C233 H234 0.960 . S
H234 C233 0.960 . S
H235 N215 0.862 . S
O236 Co204 1.920 . S
O236 C209 1.289 . S
C237 O229 1.258 . S
C237 O230 1.266 . S
Co238 O241 1.970 . S
Co238 N255 1.989 . S
Co238 O263 1.967 . S
Co238 O270 1.920 . S
Co239 O242 1.966 . S
Co239 N248 2.022 . S
Co239 N256 1.993 . S
Co239 O264 1.941 . S
C240 O241 1.258 1_455 S
C240 O242 1.263 1_455 S
O241 Co238 1.970 . S
O241 C240 1.258 1_655 S
O242 Co239 1.966 . S
O242 C240 1.263 1_655 S
C243 O244 1.235 . S
C243 O270 1.289 . S
O244 C243 1.235 . S
C245 C247 1.400 . S
C245 N248 1.351 . S
C245 C250 1.501 1_655 S
C246 C247 1.387 . S
C246 N249 1.341 . S
C247 C245 1.400 . S
C247 C246 1.387 . S
N248 Co239 2.022 . S
N248 C245 1.351 . S
N248 N249 1.365 . S
N249 C246 1.341 . S
N249 N248 1.365 . S
N249 H269 0.862 . S
C250 C245 1.501 1_455 S
C250 H251 0.961 . S
C250 H252 0.961 . S
C250 H253 0.960 . S
H251 C250 0.961 . S
H252 C250 0.961 . S
H253 C250 0.960 . S
C254 N255 1.342 . S
C254 C258 1.401 1_554 S
C254 C259 1.499 1_554 S
N255 Co238 1.989 . S
N255 C254 1.342 . S
N255 N256 1.388 . S
N256 Co239 1.993 . S
N256 N255 1.388 . S
N256 C257 1.346 . S
C257 N256 1.346 . S
C257 C258 1.396 1_554 S
C257 C267 1.510 . S
C258 C254 1.401 1_556 S
C258 C257 1.396 1_556 S
C259 C254 1.499 1_556 S
C259 H260 0.959 1_556 S
C259 H261 0.960 . S
C259 H262 0.961 . S
H260 C259 0.959 1_554 S
H261 C259 0.960 . S
H262 C259 0.961 . S
O263 Co238 1.967 . S
O263 C271 1.258 . S
O264 Co239 1.941 . S
O264 C271 1.266 . S
H265 C267 0.959 . S
H266 C267 0.961 1_556 S
C267 C257 1.510 . S
C267 H265 0.959 . S
C267 H266 0.961 1_554 S
C267 H268 0.960 . S
H268 C267 0.960 . S
H269 N249 0.862 . S
O270 Co238 1.920 . S
O270 C243 1.289 . S
C271 O263 1.258 . S
C271 O264 1.266 . S
Co272 O275 1.970 . S
Co272 N289 1.989 . S
Co272 O297 1.967 . S
Co272 O304 1.920 . S
Co273 O276 1.966 . S
Co273 N282 2.022 . S
Co273 N290 1.993 . S
Co273 O298 1.941 . S
C274 O275 1.260 . S
C274 O276 1.268 . S
O275 Co272 1.970 . S
O275 C274 1.260 . S
O276 Co273 1.966 . S
O276 C274 1.268 . S
C277 O278 1.235 . S
C277 O304 1.289 . S
O278 C277 1.235 . S
C279 C281 1.400 . S
C279 N282 1.351 . S
C279 C284 1.501 . S
C280 C281 1.387 . S
C280 N283 1.341 . S
C281 C279 1.400 . S
C281 C280 1.387 . S
N282 Co273 2.022 . S
N282 C279 1.351 . S
N282 N283 1.365 . S
N283 C280 1.341 . S
N283 N282 1.365 . S
N283 H303 0.862 . S
C284 C279 1.501 . S
C284 H285 0.961 . S
C284 H286 0.961 1_565 S
C284 H287 0.960 1_565 S
H285 C284 0.961 . S
H286 C284 0.961 1_545 S
H287 C284 0.960 1_545 S
C288 N289 1.342 . S
C288 C292 1.401 . S
C288 C293 1.499 . S
N289 Co272 1.989 . S
N289 C288 1.342 . S
N289 N290 1.388 . S
N290 Co273 1.993 . S
N290 N289 1.388 . S
N290 C291 1.346 . S
C291 N290 1.346 . S
C291 C292 1.396 . S
C291 C301 1.510 . S
C292 C288 1.401 . S
C292 C291 1.396 . S
C293 C288 1.499 . S
C293 H294 0.959 . S
C293 H295 0.960 . S
C293 H296 0.961 . S
H294 C293 0.959 . S
H295 C293 0.960 . S
H296 C293 0.961 . S
O297 Co272 1.967 . S
O297 C305 1.258 . S
O298 Co273 1.941 . S
O298 C305 1.266 . S
H299 C301 0.959 . S
H300 C301 0.961 . S
C301 C291 1.510 . S
C301 H299 0.959 . S
C301 H300 0.961 . S
C301 H302 0.960 . S
H302 C301 0.960 . S
H303 N283 0.862 . S
O304 Co272 1.920 . S
O304 C277 1.289 . S
C305 O297 1.258 . S
C305 O298 1.266 . S
Co306 O309 1.970 . S
Co306 N323 1.989 . S
Co306 O331 1.967 . S
Co306 O338 1.920 . S
Co307 O310 1.966 . S
Co307 N316 2.022 . S
Co307 N324 1.993 . S
Co307 O332 1.941 . S
C308 O309 1.258 . S
C308 O310 1.263 . S
O309 Co306 1.970 . S
O309 C308 1.258 . S
O310 Co307 1.966 . S
O310 C308 1.263 . S
C311 O312 1.235 . S
C311 O338 1.289 . S
O312 C311 1.235 . S
C313 C315 1.400 . S
C313 N316 1.351 . S
C313 C318 1.501 . S
C314 C315 1.387 . S
C314 N317 1.341 . S
C315 C313 1.400 . S
C315 C314 1.387 . S
N316 Co307 2.022 . S
N316 C313 1.351 . S
N316 N317 1.365 . S
N317 C314 1.341 . S
N317 N316 1.365 . S
N317 H337 0.862 . S
C318 C313 1.501 . S
C318 H319 0.961 . S
C318 H320 0.961 . S
C318 H321 0.960 . S
H319 C318 0.961 . S
H320 C318 0.961 . S
H321 C318 0.960 . S
C322 N323 1.342 . S
C322 C326 1.401 1_554 S
C322 C327 1.499 1_554 S
N323 Co306 1.989 . S
N323 C322 1.342 . S
N323 N324 1.388 . S
N324 Co307 1.993 . S
N324 N323 1.388 . S
N324 C325 1.346 . S
C325 N324 1.346 . S
C325 C326 1.396 1_554 S
C325 C335 1.510 . S
C326 C322 1.401 1_556 S
C326 C325 1.396 1_556 S
C327 C322 1.499 1_556 S
C327 H328 0.959 1_556 S
C327 H329 0.960 . S
C327 H330 0.961 . S
H328 C327 0.959 1_554 S
H329 C327 0.960 . S
H330 C327 0.961 . S
O331 Co306 1.967 . S
O331 C339 1.258 . S
O332 Co307 1.941 . S
O332 C339 1.266 . S
H333 C335 0.959 . S
H334 C335 0.961 . S
C335 C325 1.510 . S
C335 H333 0.959 . S
C335 H334 0.961 . S
C335 H336 0.960 . S
H336 C335 0.960 . S
H337 N317 0.862 . S
O338 Co306 1.920 . S
O338 C311 1.289 . S
C339 O331 1.258 . S
C339 O332 1.266 . S
Co340 O343 1.970 . S
Co340 N357 1.989 . S
Co340 O365 1.967 . S
Co340 O372 1.920 . S
Co341 O344 1.966 . S
Co341 N350 2.022 . S
Co341 N358 1.993 . S
Co341 O366 1.941 . S
C342 O343 1.258 . S
C342 O344 1.263 . S
O343 Co340 1.970 . S
O343 C342 1.258 . S
O344 Co341 1.966 . S
O344 C342 1.263 . S
C345 O346 1.235 . S
C345 O372 1.289 . S
O346 C345 1.235 . S
C347 C349 1.400 . S
C347 N350 1.351 . S
C347 C352 1.501 . S
C348 C349 1.387 . S
C348 N351 1.341 . S
C349 C347 1.400 . S
C349 C348 1.387 . S
N350 Co341 2.022 . S
N350 C347 1.351 . S
N350 N351 1.365 . S
N351 C348 1.341 . S
N351 N350 1.365 . S
N351 H371 0.862 . S
C352 C347 1.501 . S
C352 H353 0.961 . S
C352 H354 0.961 . S
C352 H355 0.960 . S
H353 C352 0.961 . S
H354 C352 0.961 . S
H355 C352 0.960 . S
C356 N357 1.342 . S
C356 C360 1.401 . S
C356 C361 1.499 . S
N357 Co340 1.989 . S
N357 C356 1.342 . S
N357 N358 1.388 . S
N358 Co341 1.993 . S
N358 N357 1.388 . S
N358 C359 1.346 . S
C359 N358 1.346 . S
C359 C360 1.396 . S
C359 C369 1.510 . S
C360 C356 1.401 . S
C360 C359 1.396 . S
C361 C356 1.499 . S
C361 H362 0.959 . S
C361 H363 0.960 . S
C361 H364 0.961 . S
H362 C361 0.959 . S
H363 C361 0.960 . S
H364 C361 0.961 . S
O365 Co340 1.967 . S
O365 C373 1.258 . S
O366 Co341 1.941 . S
O366 C373 1.266 . S
H367 C369 0.959 . S
H368 C369 0.961 . S
C369 C359 1.510 . S
C369 H367 0.959 . S
C369 H368 0.961 . S
C369 H370 0.960 . S
H370 C369 0.960 . S
H371 N351 0.862 . S
O372 Co340 1.920 . S
O372 C345 1.289 . S
C373 O365 1.258 . S
C373 O366 1.266 . S
Co374 O377 1.970 . S
Co374 N391 1.989 . S
Co374 O399 1.967 . S
Co374 O406 1.920 . S
Co375 O378 1.966 . S
Co375 N384 2.022 . S
Co375 N392 1.993 . S
Co375 O400 1.941 . S
C376 O377 1.258 . S
C376 O378 1.263 . S
O377 Co374 1.970 . S
O377 C376 1.258 . S
O378 Co375 1.966 . S
O378 C376 1.263 . S
C379 O380 1.235 . S
C379 O406 1.289 . S
O380 C379 1.235 . S
C381 C383 1.400 . S
C381 N384 1.351 . S
C381 C386 1.501 . S
C382 C383 1.387 . S
C382 N385 1.341 . S
C383 C381 1.400 . S
C383 C382 1.387 . S
N384 Co375 2.022 . S
N384 C381 1.351 . S
N384 N385 1.365 . S
N385 C382 1.341 . S
N385 N384 1.365 . S
N385 H405 0.862 . S
C386 C381 1.501 . S
C386 H387 0.961 . S
C386 H388 0.961 1_655 S
C386 H389 0.952 1_655 S
H387 C386 0.961 . S
H388 C386 0.961 1_455 S
H389 C386 0.952 1_455 S
C390 N391 1.342 . S
C390 C394 1.401 . S
C390 C395 1.499 . S
N391 Co374 1.989 . S
N391 C390 1.342 . S
N391 N392 1.388 . S
N392 Co375 1.993 . S
N392 N391 1.388 . S
N392 C393 1.346 . S
C393 N392 1.346 . S
C393 C394 1.396 . S
C393 C403 1.510 . S
C394 C390 1.401 . S
C394 C393 1.396 . S
C395 C390 1.499 . S
C395 H396 0.959 . S
C395 H397 0.960 1_554 S
C395 H398 0.961 . S
H396 C395 0.959 . S
H397 C395 0.960 1_556 S
H398 C395 0.961 . S
O399 Co374 1.967 . S
O399 C407 1.258 . S
O400 Co375 1.941 . S
O400 C407 1.266 . S
H401 C403 0.959 . S
H402 C403 0.961 . S
C403 C393 1.510 . S
C403 H401 0.959 . S
C403 H402 0.961 . S
C403 H404 0.960 . S
H404 C403 0.960 . S
H405 N385 0.862 . S
O406 Co374 1.920 . S
O406 C379 1.289 . S
C407 O399 1.258 . S
C407 O400 1.266 . S
Co408 O411 1.970 1_545 S
Co408 N425 1.989 . S
Co408 O433 1.967 . S
Co408 O440 1.920 . S
Co409 O412 1.936 1_545 S
Co409 N418 2.022 . S
Co409 N426 1.993 . S
Co409 O434 1.941 . S
C410 O411 1.258 . S
C410 O412 1.282 . S
O411 Co408 1.970 1_565 S
O411 C410 1.258 . S
O412 Co409 1.936 1_565 S
O412 C410 1.282 . S
C413 O414 1.235 1_545 S
C413 O440 1.289 . S
O414 C413 1.235 1_565 S
C415 C417 1.400 . S
C415 N418 1.351 . S
C415 C420 1.501 1_545 S
C416 C417 1.387 . S
C416 N419 1.341 . S
C417 C415 1.400 . S
C417 C416 1.387 . S
N418 Co409 2.022 . S
N418 C415 1.351 . S
N418 N419 1.365 . S
N419 C416 1.341 . S
N419 N418 1.365 . S
N419 H439 0.862 . S
C420 C415 1.501 1_565 S
C420 H421 0.961 . S
C420 H422 0.961 . S
C420 H423 0.960 . S
H421 C420 0.961 . S
H422 C420 0.961 . S
H423 C420 0.960 . S
C424 N425 1.342 . S
C424 C428 1.401 . S
C424 C429 1.499 . S
N425 Co408 1.989 . S
N425 C424 1.342 . S
N425 N426 1.388 . S
N426 Co409 1.993 . S
N426 N425 1.388 . S
N426 C427 1.346 . S
C427 N426 1.346 . S
C427 C428 1.396 . S
C427 C437 1.510 . S
C428 C424 1.401 . S
C428 C427 1.396 . S
C429 C424 1.499 . S
C429 H430 0.959 . S
C429 H431 0.960 . S
C429 H432 0.961 . S
H430 C429 0.959 . S
H431 C429 0.960 . S
H432 C429 0.961 . S
O433 Co408 1.967 . S
O433 C441 1.258 . S
O434 Co409 1.941 . S
O434 C441 1.266 . S
H435 C437 0.959 . S
H436 C437 0.961 . S
C437 C427 1.510 . S
C437 H435 0.959 . S
C437 H436 0.961 . S
C437 H438 0.960 . S
H438 C437 0.960 . S
H439 N419 0.862 . S
O440 Co408 1.920 . S
O440 C413 1.289 . S
C441 O433 1.258 . S
C441 O434 1.266 . S
Co442 O445 1.970 . S
Co442 N459 1.989 . S
Co442 O467 1.967 . S
Co442 O474 1.920 . S
Co443 O446 1.966 . S
Co443 N452 2.022 . S
Co443 N460 1.993 . S
Co443 O468 1.941 . S
C444 O445 1.258 . S
C444 O446 1.263 . S
O445 Co442 1.970 . S
O445 C444 1.258 . S
O446 Co443 1.966 . S
O446 C444 1.263 . S
C447 O448 1.235 . S
C447 O474 1.289 . S
O448 C447 1.235 . S
C449 C451 1.400 . S
C449 N452 1.351 . S
C449 C454 1.501 . S
C450 C451 1.387 . S
C450 N453 1.341 . S
C451 C449 1.400 . S
C451 C450 1.387 . S
N452 Co443 2.022 . S
N452 C449 1.351 . S
N452 N453 1.365 . S
N453 C450 1.341 . S
N453 N452 1.365 . S
N453 H473 0.862 . S
C454 C449 1.501 . S
C454 H455 0.961 . S
C454 H456 0.961 . S
C454 H457 0.960 . S
H455 C454 0.961 . S
H456 C454 0.961 . S
H457 C454 0.960 . S
C458 N459 1.342 . S
C458 C462 1.401 1_556 S
C458 C463 1.499 1_556 S
N459 Co442 1.989 . S
N459 C458 1.342 . S
N459 N460 1.388 . S
N460 Co443 1.993 . S
N460 N459 1.388 . S
N460 C461 1.346 . S
C461 N460 1.346 . S
C461 C462 1.396 1_556 S
C461 C471 1.510 . S
C462 C458 1.401 1_554 S
C462 C461 1.396 1_554 S
C463 C458 1.499 1_554 S
C463 H464 0.959 1_554 S
C463 H465 0.960 . S
C463 H466 0.961 . S
H464 C463 0.959 1_556 S
H465 C463 0.960 . S
H466 C463 0.961 . S
O467 Co442 1.967 . S
O467 C475 1.258 . S
O468 Co443 1.941 . S
O468 C475 1.266 . S
H469 C471 0.959 . S
H470 C471 0.961 1_554 S
C471 C461 1.510 . S
C471 H469 0.959 . S
C471 H470 0.961 1_556 S
C471 H472 0.960 . S
H472 C471 0.960 . S
H473 N453 0.862 . S
O474 Co442 1.920 . S
O474 C447 1.289 . S
C475 O467 1.258 . S
C475 O468 1.266 . S
Co476 O479 1.970 . S
Co476 N493 1.989 . S
Co476 O501 1.967 . S
Co476 O508 1.920 . S
Co477 O480 1.966 . S
Co477 N486 2.022 . S
Co477 N494 1.993 . S
Co477 O502 1.941 . S
C478 O479 1.258 . S
C478 O480 1.263 . S
O479 Co476 1.970 . S
O479 C478 1.258 . S
O480 Co477 1.966 . S
O480 C478 1.263 . S
C481 O482 1.235 . S
C481 O508 1.289 . S
O482 C481 1.235 . S
C483 C485 1.400 . S
C483 N486 1.351 . S
C483 C488 1.501 . S
C484 C485 1.387 . S
C484 N487 1.341 . S
C485 C483 1.400 . S
C485 C484 1.387 . S
N486 Co477 2.022 . S
N486 C483 1.351 . S
N486 N487 1.365 . S
N487 C484 1.341 . S
N487 N486 1.365 . S
N487 H507 0.862 . S
C488 C483 1.501 . S
C488 H489 0.961 . S
C488 H490 0.961 . S
C488 H491 0.960 . S
H489 C488 0.961 . S
H490 C488 0.961 . S
H491 C488 0.960 . S
C492 N493 1.342 . S
C492 C496 1.401 . S
C492 C497 1.499 . S
N493 Co476 1.989 . S
N493 C492 1.342 . S
N493 N494 1.388 . S
N494 Co477 1.993 . S
N494 N493 1.388 . S
N494 C495 1.346 . S
C495 N494 1.346 . S
C495 C496 1.396 . S
C495 C505 1.510 . S
C496 C492 1.401 . S
C496 C495 1.396 . S
C497 C492 1.499 . S
C497 H498 0.959 . S
C497 H499 0.960 . S
C497 H500 0.961 . S
H498 C497 0.959 . S
H499 C497 0.960 . S
H500 C497 0.961 . S
O501 Co476 1.967 . S
O501 C509 1.258 . S
O502 Co477 1.941 . S
O502 C509 1.266 . S
H503 C505 0.959 . S
H504 C505 0.961 . S
C505 C495 1.510 . S
C505 H503 0.959 . S
C505 H504 0.961 . S
C505 H506 0.960 . S
H506 C505 0.960 . S
H507 N487 0.862 . S
O508 Co476 1.920 . S
O508 C481 1.289 . S
C509 O501 1.258 . S
C509 O502 1.266 . S
Co510 O513 1.970 1_455 S
Co510 N527 1.989 . S
Co510 O535 1.967 . S
Co510 O542 1.920 . S
Co511 O514 1.906 1_455 S
Co511 N520 2.022 . S
Co511 N528 1.993 . S
Co511 O536 1.941 . S
C512 O513 1.258 . S
C512 O514 1.302 . S
O513 Co510 1.970 1_655 S
O513 C512 1.258 . S
O514 Co511 1.906 1_655 S
O514 C512 1.302 . S
C515 O516 1.235 1_455 S
C515 O542 1.289 . S
O516 C515 1.235 1_655 S
C517 C519 1.400 . S
C517 N520 1.351 . S
C517 C522 1.501 1_455 S
C518 C519 1.387 . S
C518 N521 1.341 . S
C519 C517 1.400 . S
C519 C518 1.387 . S
N520 Co511 2.022 . S
N520 C517 1.351 . S
N520 N521 1.365 . S
N521 C518 1.341 . S
N521 N520 1.365 . S
N521 H541 0.862 . S
C522 C517 1.501 1_655 S
C522 H523 0.961 . S
C522 H524 0.961 . S
C522 H525 0.960 . S
H523 C522 0.961 . S
H524 C522 0.961 . S
H525 C522 0.960 . S
C526 N527 1.342 . S
C526 C530 1.401 . S
C526 C531 1.499 . S
N527 Co510 1.989 . S
N527 C526 1.342 . S
N527 N528 1.388 . S
N528 Co511 1.993 . S
N528 N527 1.388 . S
N528 C529 1.346 . S
C529 N528 1.346 . S
C529 C530 1.396 . S
C529 C539 1.510 . S
C530 C526 1.401 . S
C530 C529 1.396 . S
C531 C526 1.499 . S
C531 H532 0.959 . S
C531 H533 0.960 1_556 S
C531 H534 0.961 . S
H532 C531 0.959 . S
H533 C531 0.960 1_554 S
H534 C531 0.961 . S
O535 Co510 1.967 . S
O535 C543 1.258 . S
O536 Co511 1.941 . S
O536 C543 1.266 . S
H537 C539 0.959 . S
H538 C539 0.961 . S
C539 C529 1.510 . S
C539 H537 0.959 . S
C539 H538 0.961 . S
C539 H540 0.960 . S
H540 C539 0.960 . S
H541 N521 0.862 . S
O542 Co510 1.920 . S
O542 C515 1.289 . S
C543 O535 1.258 . S
C543 O536 1.266 . S
C544 C545 1.349 . S
C544 C546 1.327 . S
C544 H569 0.950 . S
C545 C544 1.349 . S
C545 C561 1.349 . S
C546 C544 1.327 . S
C546 C565 1.429 . S
C546 H570 0.950 . S
C547 C564 1.574 1_565 S
C547 C566 1.368 . S
C547 H571 0.949 . S
H548 C552 0.949 . S
C549 C550 1.349 . S
C549 C551 1.327 . S
C549 H572 0.950 . S
C550 C549 1.349 . S
C550 C562 1.349 . S
C551 C549 1.327 . S
C551 C567 1.429 . S
C551 H573 0.950 . S
C552 H548 0.949 . S
C552 C560 1.574 1_455 S
C552 C568 1.368 1_565 S
H553 C561 0.950 . S
H554 C559 0.950 . S
H555 C560 0.949 . S
H556 C562 0.950 . S
H557 C563 0.950 . S
H558 C564 0.949 . S
C559 H554 0.950 . S
C559 C561 1.327 . S
C559 C565 1.429 . S
C560 C552 1.574 1_655 S
C560 H555 0.949 . S
C560 C566 1.368 . S
C561 C545 1.349 . S
C561 H553 0.950 . S
C561 C559 1.327 . S
C562 C550 1.349 . S
C562 H556 0.950 . S
C562 C563 1.327 . S
C563 H557 0.950 . S
C563 C562 1.327 . S
C563 C567 1.429 . S
C564 C547 1.574 1_545 S
C564 H558 0.949 . S
C564 C568 1.368 1_655 S
C565 C546 1.429 . S
C565 C559 1.429 . S
C565 C566 1.523 . S
C566 C547 1.368 . S
C566 C560 1.368 . S
C566 C565 1.523 . S
C567 C551 1.429 . S
C567 C563 1.429 . S
C567 C568 1.523 . S
C568 C552 1.368 1_545 S
C568 C564 1.368 1_455 S
C568 C567 1.523 . S
H569 C544 0.950 . S
H570 C546 0.950 . S
H571 C547 0.949 . S
H572 C549 0.950 . S
H573 C551 0.950 . S
C574 C575 1.349 . S
C574 C576 1.327 . S
C574 H599 0.950 . S
C575 C574 1.349 . S
C575 C591 1.349 . S
C576 C574 1.327 . S
C576 C595 1.429 . S
C576 H600 0.950 . S
C577 C594 1.574 1_546 S
C577 C596 1.368 . S
C577 H601 0.949 . S
H578 C582 0.949 . S
C579 C580 1.349 . S
C579 C581 1.327 . S
C579 H602 0.950 . S
C580 C579 1.349 . S
C580 C592 1.349 . S
C581 C579 1.327 . S
C581 C597 1.429 . S
C581 H603 0.950 . S
C582 H578 0.949 . S
C582 C590 1.574 . S
C582 C598 1.368 1_556 S
H583 C591 0.950 . S
H584 C589 0.950 . S
H585 C590 0.949 . S
H586 C592 0.950 . S
H587 C593 0.950 . S
H588 C594 0.949 . S
C589 H584 0.950 . S
C589 C591 1.327 . S
C589 C595 1.429 . S
C590 C582 1.574 . S
C590 H585 0.949 . S
C590 C596 1.368 1_565 S
C591 C575 1.349 . S
C591 H583 0.950 . S
C591 C589 1.327 . S
C592 C580 1.349 . S
C592 H586 0.950 . S
C592 C593 1.327 . S
C593 H587 0.950 . S
C593 C592 1.327 . S
C593 C597 1.429 . S
C594 C577 1.574 1_564 S
C594 H588 0.949 . S
C594 C598 1.368 . S
C595 C576 1.429 . S
C595 C589 1.429 . S
C595 C596 1.523 . S
C596 C577 1.368 . S
C596 C590 1.368 1_545 S
C596 C595 1.523 . S
C597 C581 1.429 . S
C597 C593 1.429 . S
C597 C598 1.523 . S
C598 C582 1.368 1_554 S
C598 C594 1.368 . S
C598 C597 1.523 . S
H599 C574 0.950 . S
H600 C576 0.950 . S
H601 C577 0.949 . S
H602 C579 0.950 . S
H603 C581 0.950 . S
C604 C605 1.349 . S
C604 C606 1.327 . S
C604 H629 0.950 . S
C605 C604 1.349 . S
C605 C621 1.349 . S
C606 C604 1.327 . S
C606 C625 1.429 . S
C606 H630 0.950 . S
C607 C624 1.574 . S
C607 C626 1.368 . S
C607 H631 0.949 . S
H608 C612 0.949 . S
C609 C610 1.349 . S
C609 C611 1.327 . S
C609 H632 0.950 . S
C610 C609 1.349 . S
C610 C622 1.349 . S
C611 C609 1.327 . S
C611 C627 1.429 . S
C611 H633 0.950 . S
C612 H608 0.949 . S
C612 C620 1.574 . S
C612 C628 1.368 . S
H613 C621 0.950 . S
H614 C619 0.950 . S
H615 C620 0.949 . S
H616 C622 0.950 . S
H617 C623 0.950 . S
H618 C624 0.949 . S
C619 H614 0.950 . S
C619 C621 1.327 . S
C619 C625 1.429 . S
C620 C612 1.574 . S
C620 H615 0.949 . S
C620 C626 1.368 . S
C621 C605 1.349 . S
C621 H613 0.950 . S
C621 C619 1.327 . S
C622 C610 1.349 . S
C622 H616 0.950 . S
C622 C623 1.327 . S
C623 H617 0.950 . S
C623 C622 1.327 . S
C623 C627 1.429 . S
C624 C607 1.574 . S
C624 H618 0.949 . S
C624 C628 1.368 . S
C625 C606 1.429 . S
C625 C619 1.429 . S
C625 C626 1.523 . S
C626 C607 1.368 . S
C626 C620 1.368 . S
C626 C625 1.523 . S
C627 C611 1.429 . S
C627 C623 1.429 . S
C627 C628 1.523 . S
C628 C612 1.368 . S
C628 C624 1.368 . S
C628 C627 1.523 . S
H629 C604 0.950 . S
H630 C606 0.950 . S
H631 C607 0.949 . S
H632 C609 0.950 . S
H633 C611 0.950 . S
C634 C635 1.349 . S
C634 C636 1.327 . S
C634 H659 0.950 . S
C635 C634 1.349 . S
C635 C651 1.349 . S
C636 C634 1.327 . S
C636 C655 1.429 . S
C636 H660 0.950 1_655 S
C637 C654 1.574 1_554 S
C637 C656 1.368 . S
C637 H661 0.949 1_554 S
H638 C642 0.949 . S
C639 C640 1.349 1_655 S
C639 C641 1.327 . S
C639 H662 0.950 . S
C640 C639 1.349 1_455 S
C640 C652 1.349 . S
C641 C639 1.327 . S
C641 C657 1.456 . S
C641 H663 0.950 . S
C642 H638 0.949 . S
C642 C650 1.588 . S
C642 C658 1.368 1_455 S
H643 C651 0.950 . S
H644 C649 0.950 . S
H645 C650 0.984 . S
H646 C652 0.950 . S
H647 C653 0.950 . S
H648 C654 0.949 . S
C649 H644 0.950 . S
C649 C651 1.327 . S
C649 C655 1.429 . S
C650 C642 1.588 . S
C650 H645 0.984 . S
C650 C656 1.319 1_455 S
C651 C635 1.349 . S
C651 H643 0.950 . S
C651 C649 1.327 . S
C652 C640 1.349 . S
C652 H646 0.950 . S
C652 C653 1.327 1_556 S
C653 H647 0.950 . S
C653 C652 1.327 1_554 S
C653 C657 1.390 1_454 S
C654 C637 1.574 1_556 S
C654 H648 0.949 . S
C654 C658 1.368 1_556 S
C655 C636 1.429 . S
C655 C649 1.429 . S
C655 C656 1.523 . S
C656 C637 1.368 . S
C656 C650 1.319 1_655 S
C656 C655 1.523 . S
C657 C641 1.456 . S
C657 C653 1.390 1_656 S
C657 C658 1.535 1_556 S
C658 C642 1.368 1_655 S
C658 C654 1.368 1_554 S
C658 C657 1.535 1_554 S
H659 C634 0.950 . S
H660 C636 0.950 1_455 S
H661 C637 0.949 1_556 S
H662 C639 0.950 . S
H663 C641 0.950 . S
C664 C665 1.349 . S
C664 C666 1.327 . S
C664 H689 0.994 . S
C665 C664 1.349 . S
C665 C681 1.349 . S
C666 C664 1.327 . S
C666 C685 1.429 . S
C666 H690 0.950 1_565 S
C667 C684 1.574 . S
C667 C686 1.368 . S
C667 H691 0.949 . S
H668 C672 0.949 . S
C669 C670 1.349 1_565 S
C669 C671 1.327 . S
C669 H692 0.950 . S
C670 C669 1.349 1_545 S
C670 C682 1.349 . S
C671 C669 1.327 . S
C671 C687 1.429 1_565 S
C671 H693 0.950 . S
C672 H668 0.949 . S
C672 C680 1.574 . S
C672 C688 1.368 1_545 S
H673 C681 0.950 . S
H674 C679 0.950 . S
H675 C680 0.949 . S
H676 C682 0.950 . S
H677 C683 0.950 . S
H678 C684 0.949 . S
C679 H674 0.950 . S
C679 C681 1.327 . S
C679 C685 1.429 . S
C680 C672 1.574 . S
C680 H675 0.949 . S
C680 C686 1.368 1_545 S
C681 C665 1.349 . S
C681 H673 0.950 . S
C681 C679 1.327 . S
C682 C670 1.349 . S
C682 H676 0.950 . S
C682 C683 1.327 . S
C683 H677 0.950 . S
C683 C682 1.327 . S
C683 C687 1.429 . S
C684 C667 1.574 . S
C684 H678 0.949 . S
C684 C688 1.368 . S
C685 C666 1.429 . S
C685 C679 1.429 . S
C685 C686 1.523 . S
C686 C667 1.368 . S
C686 C680 1.368 1_565 S
C686 C685 1.523 . S
C687 C671 1.429 1_545 S
C687 C683 1.429 . S
C687 C688 1.523 1_545 S
C688 C672 1.368 1_565 S
C688 C684 1.368 . S
C688 C687 1.523 1_565 S
H689 C664 0.994 . S
H690 C666 0.950 1_545 S
H691 C667 0.949 . S
H692 C669 0.950 . S
H693 C671 0.950 . S
C694 C695 1.349 . S
C694 C696 1.327 . S
C694 H719 0.950 . S
C695 C694 1.349 . S
C695 C711 1.349 . S
C696 C694 1.327 . S
C696 C715 1.429 . S
C696 H720 0.950 . S
C697 C714 1.574 . S
C697 C716 1.368 1_556 S
C697 H721 0.949 . S
H698 C702 0.949 . S
C699 C700 1.349 . S
C699 C701 1.327 . S
C699 H722 0.950 . S
C700 C699 1.349 . S
C700 C712 1.349 . S
C701 C699 1.327 . S
C701 C717 1.429 . S
C701 H723 0.950 . S
C702 H698 0.949 . S
C702 C710 1.574 . S
C702 C718 1.368 1_554 S
H703 C711 0.950 . S
H704 C709 0.950 . S
H705 C710 0.949 . S
H706 C712 0.950 . S
H707 C713 0.950 1_554 S
H708 C714 0.949 . S
C709 H704 0.950 . S
C709 C711 1.327 . S
C709 C715 1.429 . S
C710 C702 1.574 . S
C710 H705 0.949 . S
C710 C716 1.368 . S
C711 C695 1.349 . S
C711 H703 0.950 . S
C711 C709 1.327 . S
C712 C700 1.349 . S
C712 H706 0.950 . S
C712 C713 1.327 . S
C713 H707 0.950 1_556 S
C713 C712 1.327 . S
C713 C717 1.429 . S
C714 C697 1.574 . S
C714 H708 0.949 . S
C714 C718 1.368 . S
C715 C696 1.429 . S
C715 C709 1.429 . S
C715 C716 1.523 . S
C716 C697 1.368 1_554 S
C716 C710 1.368 . S
C716 C715 1.523 . S
C717 C701 1.429 . S
C717 C713 1.429 . S
C717 C718 1.523 . S
C718 C702 1.368 1_556 S
C718 C714 1.368 . S
C718 C717 1.523 . S
H719 C694 0.950 . S
H720 C696 0.950 . S
H721 C697 0.949 . S
H722 C699 0.950 . S
H723 C701 0.950 . S
C724 C725 1.349 . S
C724 C726 1.327 . S
C724 H749 0.950 . S
C725 C724 1.349 . S
C725 C741 1.349 . S
C726 C724 1.327 . S
C726 C745 1.429 . S
C726 H750 0.950 . S
C727 C744 1.574 1_655 S
C727 C746 1.368 . S
C727 H751 0.949 . S
H728 C732 0.949 . S
C729 C730 1.349 . S
C729 C731 1.327 . S
C729 H752 0.950 . S
C730 C729 1.349 . S
C730 C742 1.349 . S
C731 C729 1.327 . S
C731 C747 1.429 . S
C731 H753 0.950 . S
C732 H728 0.949 . S
C732 C740 1.574 1_455 S
C732 C748 1.368 . S
H733 C741 0.950 . S
H734 C739 0.950 . S
H735 C740 0.949 . S
H736 C742 0.950 . S
H737 C743 0.950 . S
H738 C744 0.949 . S
C739 H734 0.950 . S
C739 C741 1.327 . S
C739 C745 1.429 . S
C740 C732 1.574 1_655 S
C740 H735 0.949 . S
C740 C746 1.368 . S
C741 C725 1.349 . S
C741 H733 0.950 . S
C741 C739 1.327 . S
C742 C730 1.349 . S
C742 H736 0.950 . S
C742 C743 1.327 . S
C743 H737 0.950 . S
C743 C742 1.327 . S
C743 C747 1.429 . S
C744 C727 1.574 1_455 S
C744 H738 0.949 . S
C744 C748 1.368 . S
C745 C726 1.429 . S
C745 C739 1.429 . S
C745 C746 1.523 . S
C746 C727 1.368 . S
C746 C740 1.368 . S
C746 C745 1.523 . S
C747 C731 1.429 . S
C747 C743 1.429 . S
C747 C748 1.523 . S
C748 C732 1.368 . S
C748 C744 1.368 . S
C748 C747 1.523 . S
H749 C724 0.950 . S
H750 C726 0.950 . S
H751 C727 0.949 . S
H752 C729 0.950 . S
H753 C731 0.950 . S
C754 C755 1.349 . S
C754 C756 1.327 . S
C754 H779 0.950 . S
C755 C754 1.349 . S
C755 C771 1.349 . S
C756 C754 1.327 . S
C756 C775 1.429 . S
C756 H780 0.950 1_554 S
C757 C774 1.574 1_565 S
C757 C776 1.368 1_455 S
C757 H781 0.949 . S
H758 C762 0.949 . S
C759 C760 1.349 . S
C759 C761 1.327 . S
C759 H782 0.950 . S
C760 C759 1.349 . S
C760 C772 1.349 . S
C761 C759 1.327 . S
C761 C777 1.429 . S
C761 H783 0.950 . S
C762 H758 0.949 . S
C762 C770 1.574 1_545 S
C762 C778 1.356 1_655 S
H763 C771 0.950 . S
H764 C769 0.950 1_455 S
H765 C770 0.949 . S
H766 C772 0.950 1_655 S
H767 C773 0.950 . S
H768 C774 0.949 . S
C769 H764 0.950 1_655 S
C769 C771 1.327 . S
C769 C775 1.429 . S
C770 C762 1.574 1_565 S
C770 H765 0.949 . S
C770 C776 1.368 1_556 S
C771 C755 1.349 . S
C771 H763 0.950 . S
C771 C769 1.327 . S
C772 C760 1.349 . S
C772 H766 0.950 1_455 S
C772 C773 1.327 1_455 S
C773 H767 0.950 . S
C773 C772 1.327 1_655 S
C773 C777 1.429 1_655 S
C774 C757 1.574 1_545 S
C774 H768 0.949 . S
C774 C778 1.377 1_554 S
C775 C756 1.429 . S
C775 C769 1.429 . S
C775 C776 1.523 . S
C776 C757 1.368 1_655 S
C776 C770 1.368 1_554 S
C776 C775 1.523 . S
C777 C761 1.429 . S
C777 C773 1.429 1_455 S
C777 C778 1.528 . S
C778 C762 1.356 1_455 S
C778 C774 1.377 1_556 S
C778 C777 1.528 . S
H779 C754 0.950 . S
H780 C756 0.950 1_556 S
H781 C757 0.949 . S
H782 C759 0.950 . S
H783 C761 0.950 . S
C784 C785 1.349 . S
C784 C786 1.327 . S
C784 H809 0.950 . S
C785 C784 1.349 . S
C785 C801 1.349 . S
C786 C784 1.327 . S
C786 C805 1.429 . S
C786 H810 0.950 . S
C787 C804 1.574 . S
C787 C806 1.368 . S
C787 H811 0.949 . S
H788 C792 0.949 . S
C789 C790 1.349 . S
C789 C791 1.327 . S
C789 H812 0.950 . S
C790 C789 1.349 . S
C790 C802 1.349 . S
C791 C789 1.327 . S
C791 C807 1.429 . S
C791 H813 0.950 . S
C792 H788 0.949 . S
C792 C800 1.574 . S
C792 C808 1.368 . S
H793 C801 0.950 . S
H794 C799 0.950 . S
H795 C800 0.949 . S
H796 C802 0.950 . S
H797 C803 0.950 . S
H798 C804 0.949 . S
C799 H794 0.950 . S
C799 C801 1.327 . S
C799 C805 1.429 . S
C800 C792 1.574 . S
C800 H795 0.949 . S
C800 C806 1.368 . S
C801 C785 1.349 . S
C801 H793 0.950 . S
C801 C799 1.327 . S
C802 C790 1.349 . S
C802 H796 0.950 . S
C802 C803 1.327 . S
C803 H797 0.950 . S
C803 C802 1.327 . S
C803 C807 1.429 . S
C804 C787 1.574 . S
C804 H798 0.949 . S
C804 C808 1.368 . S
C805 C786 1.429 . S
C805 C799 1.429 . S
C805 C806 1.523 . S
C806 C787 1.368 . S
C806 C800 1.368 . S
C806 C805 1.523 . S
C807 C791 1.429 . S
C807 C803 1.429 . S
C807 C808 1.523 . S
C808 C792 1.368 . S
C808 C804 1.368 . S
C808 C807 1.523 . S
H809 C784 0.950 . S
H810 C786 0.950 . S
H811 C787 0.949 . S
H812 C789 0.950 . S
H813 C791 0.950 . S
C814 C815 1.349 . S
C814 C816 1.327 . S
C814 H839 0.950 . S
C815 C814 1.349 . S
C815 C831 1.349 . S
C816 C814 1.327 . S
C816 C835 1.429 . S
C816 H840 0.950 . S
C817 C834 1.574 . S
C817 C836 1.368 . S
C817 H841 0.949 . S
H818 C822 0.949 . S
C819 C820 1.349 . S
C819 C821 1.327 . S
C819 H842 0.950 . S
C820 C819 1.349 . S
C820 C832 1.349 . S
C821 C819 1.327 . S
C821 C837 1.429 . S
C821 H843 0.950 . S
C822 H818 0.949 . S
C822 C830 1.574 . S
C822 C838 1.368 . S
H823 C831 0.950 . S
H824 C829 0.950 . S
H825 C830 0.949 . S
H826 C832 0.950 . S
H827 C833 0.950 . S
H828 C834 0.949 . S
C829 H824 0.950 . S
C829 C831 1.327 . S
C829 C835 1.429 . S
C830 C822 1.574 . S
C830 H825 0.949 . S
C830 C836 1.368 . S
C831 C815 1.349 . S
C831 H823 0.950 . S
C831 C829 1.327 . S
C832 C820 1.349 . S
C832 H826 0.950 . S
C832 C833 1.327 . S
C833 H827 0.950 . S
C833 C832 1.327 . S
C833 C837 1.429 . S
C834 C817 1.574 . S
C834 H828 0.949 . S
C834 C838 1.368 . S
C835 C816 1.429 . S
C835 C829 1.429 . S
C835 C836 1.523 . S
C836 C817 1.368 . S
C836 C830 1.368 . S
C836 C835 1.523 . S
C837 C821 1.429 . S
C837 C833 1.429 . S
C837 C838 1.523 . S
C838 C822 1.368 . S
C838 C834 1.368 . S
C838 C837 1.523 . S
H839 C814 0.950 . S
H840 C816 0.950 . S
H841 C817 0.949 . S
H842 C819 0.950 . S
H843 C821 0.950 . S
C844 C845 1.349 . S
C844 C846 1.327 . S
C844 H869 0.950 . S
C845 C844 1.349 . S
C845 C861 1.349 . S
C846 C844 1.327 . S
C846 C865 1.429 . S
C846 H870 0.950 . S
C847 C864 1.574 . S
C847 C866 1.368 . S
C847 H871 0.949 . S
H848 C852 0.949 . S
C849 C850 1.349 . S
C849 C851 1.327 . S
C849 H872 0.950 . S
C850 C849 1.349 . S
C850 C862 1.349 . S
C851 C849 1.327 . S
C851 C867 1.429 . S
C851 H873 0.950 . S
C852 H848 0.949 . S
C852 C860 1.574 . S
C852 C868 1.368 . S
H853 C861 0.950 . S
H854 C859 0.950 . S
H855 C860 0.949 . S
H856 C862 0.950 . S
H857 C863 0.950 . S
H858 C864 0.949 . S
C859 H854 0.950 . S
C859 C861 1.327 . S
C859 C865 1.429 . S
C860 C852 1.574 . S
C860 H855 0.949 . S
C860 C866 1.368 . S
C861 C845 1.349 . S
C861 H853 0.950 . S
C861 C859 1.327 . S
C862 C850 1.349 . S
C862 H856 0.950 . S
C862 C863 1.327 . S
C863 H857 0.950 . S
C863 C862 1.327 . S
C863 C867 1.429 . S
C864 C847 1.574 . S
C864 H858 0.949 . S
C864 C868 1.368 . S
C865 C846 1.429 . S
C865 C859 1.429 . S
C865 C866 1.523 . S
C866 C847 1.368 . S
C866 C860 1.368 . S
C866 C865 1.523 . S
C867 C851 1.429 . S
C867 C863 1.429 . S
C867 C868 1.523 . S
C868 C852 1.368 . S
C868 C864 1.368 . S
C868 C867 1.523 . S
H869 C844 0.950 . S
H870 C846 0.950 . S
H871 C847 0.949 . S
H872 C849 0.950 . S
H873 C851 0.950 . S
C874 C875 1.349 . S
C874 C876 1.327 . S
C874 H899 0.950 . S
C875 C874 1.349 . S
C875 C891 1.349 . S
C876 C874 1.327 . S
C876 C895 1.429 . S
C876 H900 0.950 . S
C877 C894 1.574 . S
C877 C896 1.368 . S
C877 H901 0.949 . S
H878 C882 0.949 . S
C879 C880 1.349 . S
C879 C881 1.327 . S
C879 H902 0.950 . S
C880 C879 1.349 . S
C880 C892 1.349 . S
C881 C879 1.327 . S
C881 C897 1.429 . S
C881 H903 0.950 . S
C882 H878 0.949 . S
C882 C890 1.574 . S
C882 C898 1.368 . S
H883 C891 0.950 . S
H884 C889 0.950 . S
H885 C890 0.949 . S
H886 C892 0.950 . S
H887 C893 0.950 . S
H888 C894 0.949 . S
C889 H884 0.950 . S
C889 C891 1.327 . S
C889 C895 1.429 . S
C890 C882 1.574 . S
C890 H885 0.949 . S
C890 C896 1.368 . S
C891 C875 1.349 . S
C891 H883 0.950 . S
C891 C889 1.327 . S
C892 C880 1.349 . S
C892 H886 0.950 . S
C892 C893 1.327 . S
C893 H887 0.950 . S
C893 C892 1.327 . S
C893 C897 1.429 . S
C894 C877 1.574 . S
C894 H888 0.949 . S
C894 C898 1.368 . S
C895 C876 1.429 . S
C895 C889 1.429 . S
C895 C896 1.523 . S
C896 C877 1.368 . S
C896 C890 1.368 . S
C896 C895 1.523 . S
C897 C881 1.429 . S
C897 C893 1.429 . S
C897 C898 1.523 . S
C898 C882 1.368 . S
C898 C894 1.368 . S
C898 C897 1.523 . S
H899 C874 0.950 . S
H900 C876 0.950 . S
H901 C877 0.949 . S
H902 C879 0.950 . S
H903 C881 0.950 . S
C904 C905 1.349 . S
C904 C906 1.327 . S
C904 H929 0.950 . S
C905 C904 1.349 . S
C905 C921 1.349 . S
C906 C904 1.327 . S
C906 C925 1.429 . S
C906 H930 0.950 . S
C907 C924 1.574 . S
C907 C926 1.368 . S
C907 H931 0.949 . S
H908 C912 0.949 . S
C909 C910 1.349 . S
C909 C911 1.327 . S
C909 H932 0.950 . S
C910 C909 1.349 . S
C910 C922 1.349 . S
C911 C909 1.327 . S
C911 C927 1.429 . S
C911 H933 0.950 . S
C912 H908 0.949 . S
C912 C920 1.574 . S
C912 C928 1.368 . S
H913 C921 0.950 . S
H914 C919 0.950 . S
H915 C920 0.949 . S
H916 C922 0.950 . S
H917 C923 0.950 . S
H918 C924 0.949 . S
C919 H914 0.950 . S
C919 C921 1.327 . S
C919 C925 1.429 . S
C920 C912 1.574 . S
C920 H915 0.949 . S
C920 C926 1.368 . S
C921 C905 1.349 . S
C921 H913 0.950 . S
C921 C919 1.327 . S
C922 C910 1.349 . S
C922 H916 0.950 . S
C922 C923 1.327 . S
C923 H917 0.950 . S
C923 C922 1.327 . S
C923 C927 1.429 . S
C924 C907 1.574 . S
C924 H918 0.949 . S
C924 C928 1.368 . S
C925 C906 1.429 . S
C925 C919 1.429 . S
C925 C926 1.523 . S
C926 C907 1.368 . S
C926 C920 1.368 . S
C926 C925 1.523 . S
C927 C911 1.429 . S
C927 C923 1.429 . S
C927 C928 1.523 . S
C928 C912 1.368 . S
C928 C924 1.368 . S
C928 C927 1.523 . S
H929 C904 0.950 . S
H930 C906 0.950 . S
H931 C907 0.949 . S
H932 C909 0.950 . S
H933 C911 0.950 . S
C934 C935 1.349 . S
C934 C936 1.327 . S
C934 H959 0.950 . S
C935 C934 1.349 . S
C935 C951 1.349 . S
C936 C934 1.327 . S
C936 C955 1.429 . S
C936 H960 0.950 . S
C937 C954 1.574 . S
C937 C956 1.368 . S
C937 H961 0.949 . S
H938 C942 0.949 . S
C939 C940 1.349 . S
C939 C941 1.327 . S
C939 H962 0.950 . S
C940 C939 1.349 . S
C940 C952 1.349 . S
C941 C939 1.327 . S
C941 C957 1.429 . S
C941 H963 0.950 . S
C942 H938 0.949 . S
C942 C950 1.574 . S
C942 C958 1.368 . S
H943 C951 0.950 . S
H944 C949 0.950 . S
H945 C950 0.949 . S
H946 C952 0.950 . S
H947 C953 0.950 . S
H948 C954 0.949 . S
C949 H944 0.950 . S
C949 C951 1.327 . S
C949 C955 1.429 . S
C950 C942 1.574 . S
C950 H945 0.949 . S
C950 C956 1.368 . S
C951 C935 1.349 . S
C951 H943 0.950 . S
C951 C949 1.327 . S
C952 C940 1.349 . S
C952 H946 0.950 . S
C952 C953 1.327 . S
C953 H947 0.950 . S
C953 C952 1.327 . S
C953 C957 1.429 . S
C954 C937 1.574 . S
C954 H948 0.949 . S
C954 C958 1.368 . S
C955 C936 1.429 . S
C955 C949 1.429 . S
C955 C956 1.523 . S
C956 C937 1.368 . S
C956 C950 1.368 . S
C956 C955 1.523 . S
C957 C941 1.429 . S
C957 C953 1.429 . S
C957 C958 1.523 . S
C958 C942 1.368 . S
C958 C954 1.368 . S
C958 C957 1.523 . S
H959 C934 0.950 . S
H960 C936 0.950 . S
H961 C937 0.949 . S
H962 C939 0.950 . S
H963 C941 0.950 . S
C964 C965 1.349 . S
C964 C966 1.327 . S
C964 H989 0.950 . S
C965 C964 1.349 . S
C965 C981 1.349 . S
C966 C964 1.327 . S
C966 C985 1.429 . S
C966 H990 0.950 . S
C967 C984 1.574 . S
C967 C986 1.368 . S
C967 H991 0.949 . S
H968 C972 0.949 . S
C969 C970 1.349 . S
C969 C971 1.327 . S
C969 H992 0.950 . S
C970 C969 1.349 . S
C970 C982 1.349 . S
C971 C969 1.327 . S
C971 C987 1.429 . S
C971 H993 0.950 . S
C972 H968 0.949 . S
C972 C980 1.574 . S
C972 C988 1.368 . S
H973 C981 0.950 . S
H974 C979 0.950 . S
H975 C980 0.949 . S
H976 C982 0.950 . S
H977 C983 0.950 . S
H978 C984 0.949 . S
C979 H974 0.950 . S
C979 C981 1.327 . S
C979 C985 1.429 . S
C980 C972 1.574 . S
C980 H975 0.949 . S
C980 C986 1.368 . S
C981 C965 1.349 . S
C981 H973 0.950 . S
C981 C979 1.327 . S
C982 C970 1.349 . S
C982 H976 0.950 . S
C982 C983 1.327 . S
C983 H977 0.950 . S
C983 C982 1.327 . S
C983 C987 1.429 . S
C984 C967 1.574 . S
C984 H978 0.949 . S
C984 C988 1.368 . S
C985 C966 1.429 . S
C985 C979 1.429 . S
C985 C986 1.523 . S
C986 C967 1.368 . S
C986 C980 1.368 . S
C986 C985 1.523 . S
C987 C971 1.429 . S
C987 C983 1.429 . S
C987 C988 1.523 . S
C988 C972 1.368 . S
C988 C984 1.368 . S
C988 C987 1.523 . S
H989 C964 0.950 . S
H990 C966 0.950 . S
H991 C967 0.949 . S
H992 C969 0.950 . S
H993 C971 0.950 . S
C994 C995 1.349 . S
C994 C996 1.327 . S
C994 H1019 0.950 . S
C995 C994 1.349 . S
C995 C1011 1.349 . S
C996 C994 1.327 . S
C996 C1015 1.429 . S
C996 H1020 0.950 . S
C997 C1014 1.574 . S
C997 C1016 1.368 . S
C997 H1021 0.949 . S
H998 C1002 0.949 . S
C999 C1000 1.349 . S
C999 C1001 1.327 . S
C999 H1022 0.950 . S
C1000 C999 1.349 . S
C1000 C1012 1.349 . S
C1001 C999 1.327 . S
C1001 C1017 1.429 . S
C1001 H1023 0.950 . S
C1002 H998 0.949 . S
C1002 C1010 1.574 . S
C1002 C1018 1.368 . S
H1003 C1011 0.950 . S
H1004 C1009 0.950 . S
H1005 C1010 0.949 . S
H1006 C1012 0.950 . S
H1007 C1013 0.950 . S
H1008 C1014 0.949 . S
C1009 H1004 0.950 . S
C1009 C1011 1.327 . S
C1009 C1015 1.429 . S
C1010 C1002 1.574 . S
C1010 H1005 0.949 . S
C1010 C1016 1.368 . S
C1011 C995 1.349 . S
C1011 H1003 0.950 . S
C1011 C1009 1.327 . S
C1012 C1000 1.349 . S
C1012 H1006 0.950 . S
C1012 C1013 1.327 . S
C1013 H1007 0.950 . S
C1013 C1012 1.327 . S
C1013 C1017 1.429 . S
C1014 C997 1.574 . S
C1014 H1008 0.949 . S
C1014 C1018 1.368 . S
C1015 C996 1.429 . S
C1015 C1009 1.429 . S
C1015 C1016 1.523 . S
C1016 C997 1.368 . S
C1016 C1010 1.368 . S
C1016 C1015 1.523 . S
C1017 C1001 1.429 . S
C1017 C1013 1.429 . S
C1017 C1018 1.523 . S
C1018 C1002 1.368 . S
C1018 C1014 1.368 . S
C1018 C1017 1.523 . S
H1019 C994 0.950 . S
H1020 C996 0.950 . S
H1021 C997 0.949 . S
H1022 C999 0.950 . S
H1023 C1001 0.950 . S
C1024 C1025 1.349 . S
C1024 C1026 1.327 . S
C1024 H1049 0.950 . S
C1025 C1024 1.349 . S
C1025 C1041 1.349 . S
C1026 C1024 1.327 . S
C1026 C1045 1.429 . S
C1026 H1050 0.950 . S
C1027 C1044 1.574 . S
C1027 C1046 1.368 . S
C1027 H1051 0.949 . S
H1028 C1032 0.949 . S
C1029 C1030 1.349 . S
C1029 C1031 1.327 . S
C1029 H1052 0.950 . S
C1030 C1029 1.349 . S
C1030 C1042 1.349 . S
C1031 C1029 1.327 . S
C1031 C1047 1.429 . S
C1031 H1053 0.950 . S
C1032 H1028 0.949 . S
C1032 C1040 1.574 . S
C1032 C1048 1.368 . S
H1033 C1041 0.950 . S
H1034 C1039 0.950 . S
H1035 C1040 0.949 . S
H1036 C1042 0.950 . S
H1037 C1043 0.950 . S
H1038 C1044 0.949 . S
C1039 H1034 0.950 . S
C1039 C1041 1.327 . S
C1039 C1045 1.429 . S
C1040 C1032 1.574 . S
C1040 H1035 0.949 . S
C1040 C1046 1.368 . S
C1041 C1025 1.349 . S
C1041 H1033 0.950 . S
C1041 C1039 1.327 . S
C1042 C1030 1.349 . S
C1042 H1036 0.950 . S
C1042 C1043 1.327 . S
C1043 H1037 0.950 . S
C1043 C1042 1.327 . S
C1043 C1047 1.429 . S
C1044 C1027 1.574 . S
C1044 H1038 0.949 . S
C1044 C1048 1.368 . S
C1045 C1026 1.429 . S
C1045 C1039 1.429 . S
C1045 C1046 1.523 . S
C1046 C1027 1.368 . S
C1046 C1040 1.368 . S
C1046 C1045 1.523 . S
C1047 C1031 1.429 . S
C1047 C1043 1.429 . S
C1047 C1048 1.523 . S
C1048 C1032 1.368 . S
C1048 C1044 1.368 . S
C1048 C1047 1.523 . S
H1049 C1024 0.950 . S
H1050 C1026 0.950 . S
H1051 C1027 0.949 . S
H1052 C1029 0.950 . S
H1053 C1031 0.950 . S
C1054 C1055 1.349 . S
C1054 C1056 1.327 . S
C1054 H1079 0.950 . S
C1055 C1054 1.349 . S
C1055 C1071 1.349 . S
C1056 C1054 1.327 . S
C1056 C1075 1.429 . S
C1056 H1080 0.950 . S
C1057 C1074 1.574 . S
C1057 C1076 1.368 . S
C1057 H1081 0.949 . S
H1058 C1062 0.949 . S
C1059 C1060 1.349 . S
C1059 C1061 1.327 . S
C1059 H1082 0.950 . S
C1060 C1059 1.349 . S
C1060 C1072 1.349 . S
C1061 C1059 1.327 . S
C1061 C1077 1.429 . S
C1061 H1083 0.950 . S
C1062 H1058 0.949 . S
C1062 C1070 1.574 . S
C1062 C1078 1.368 . S
H1063 C1071 0.950 . S
H1064 C1069 0.950 . S
H1065 C1070 0.949 . S
H1066 C1072 0.950 . S
H1067 C1073 0.950 . S
H1068 C1074 0.949 . S
C1069 H1064 0.950 . S
C1069 C1071 1.327 . S
C1069 C1075 1.429 . S
C1070 C1062 1.574 . S
C1070 H1065 0.949 . S
C1070 C1076 1.368 . S
C1071 C1055 1.349 . S
C1071 H1063 0.950 . S
C1071 C1069 1.327 . S
C1072 C1060 1.349 . S
C1072 H1066 0.950 . S
C1072 C1073 1.327 . S
C1073 H1067 0.950 . S
C1073 C1072 1.327 . S
C1073 C1077 1.429 . S
C1074 C1057 1.574 . S
C1074 H1068 0.949 . S
C1074 C1078 1.368 . S
C1075 C1056 1.429 . S
C1075 C1069 1.429 . S
C1075 C1076 1.523 . S
C1076 C1057 1.368 . S
C1076 C1070 1.368 . S
C1076 C1075 1.523 . S
C1077 C1061 1.429 . S
C1077 C1073 1.429 . S
C1077 C1078 1.523 . S
C1078 C1062 1.368 . S
C1078 C1074 1.368 . S
C1078 C1077 1.523 . S
H1079 C1054 0.950 . S
H1080 C1056 0.950 . S
H1081 C1057 0.949 . S
H1082 C1059 0.950 . S
H1083 C1061 0.950 . S
C1084 C1085 1.349 . S
C1084 C1086 1.327 . S
C1084 H1109 0.950 . S
C1085 C1084 1.349 . S
C1085 C1101 1.349 . S
C1086 C1084 1.327 . S
C1086 C1105 1.429 . S
C1086 H1110 0.950 . S
C1087 C1104 1.574 . S
C1087 C1106 1.368 . S
C1087 H1111 0.949 . S
H1088 C1092 0.949 . S
C1089 C1090 1.349 . S
C1089 C1091 1.327 . S
C1089 H1112 0.950 . S
C1090 C1089 1.349 . S
C1090 C1102 1.349 . S
C1091 C1089 1.327 . S
C1091 C1107 1.429 . S
C1091 H1113 0.950 . S
C1092 H1088 0.949 . S
C1092 C1100 1.574 . S
C1092 C1108 1.368 . S
H1093 C1101 0.950 . S
H1094 C1099 0.950 . S
H1095 C1100 0.949 . S
H1096 C1102 0.950 . S
H1097 C1103 0.950 . S
H1098 C1104 0.949 . S
C1099 H1094 0.950 . S
C1099 C1101 1.327 . S
C1099 C1105 1.429 . S
C1100 C1092 1.574 . S
C1100 H1095 0.949 . S
C1100 C1106 1.368 . S
C1101 C1085 1.349 . S
C1101 H1093 0.950 . S
C1101 C1099 1.327 . S
C1102 C1090 1.349 . S
C1102 H1096 0.950 . S
C1102 C1103 1.327 . S
C1103 H1097 0.950 . S
C1103 C1102 1.327 . S
C1103 C1107 1.429 . S
C1104 C1087 1.574 . S
C1104 H1098 0.949 . S
C1104 C1108 1.368 . S
C1105 C1086 1.429 . S
C1105 C1099 1.429 . S
C1105 C1106 1.523 . S
C1106 C1087 1.368 . S
C1106 C1100 1.368 . S
C1106 C1105 1.523 . S
C1107 C1091 1.429 . S
C1107 C1103 1.429 . S
C1107 C1108 1.523 . S
C1108 C1092 1.368 . S
C1108 C1104 1.368 . S
C1108 C1107 1.523 . S
H1109 C1084 0.950 . S
H1110 C1086 0.950 . S
H1111 C1087 0.949 . S
H1112 C1089 0.950 . S
H1113 C1091 0.950 . S
C1114 C1115 1.349 . S
C1114 C1116 1.327 . S
C1114 H1139 0.950 . S
C1115 C1114 1.349 . S
C1115 C1131 1.349 . S
C1116 C1114 1.327 . S
C1116 C1135 1.429 . S
C1116 H1140 0.950 . S
C1117 C1134 1.574 . S
C1117 C1136 1.368 . S
C1117 H1141 0.949 . S
H1118 C1122 0.949 . S
C1119 C1120 1.349 . S
C1119 C1121 1.327 . S
C1119 H1142 0.950 . S
C1120 C1119 1.349 . S
C1120 C1132 1.349 . S
C1121 C1119 1.327 . S
C1121 C1137 1.429 . S
C1121 H1143 0.950 . S
C1122 H1118 0.949 . S
C1122 C1130 1.574 . S
C1122 C1138 1.368 . S
H1123 C1131 0.950 . S
H1124 C1129 0.950 . S
H1125 C1130 0.949 . S
H1126 C1132 0.950 . S
H1127 C1133 0.950 . S
H1128 C1134 0.949 . S
C1129 H1124 0.950 . S
C1129 C1131 1.327 . S
C1129 C1135 1.429 . S
C1130 C1122 1.574 . S
C1130 H1125 0.949 . S
C1130 C1136 1.368 . S
C1131 C1115 1.349 . S
C1131 H1123 0.950 . S
C1131 C1129 1.327 . S
C1132 C1120 1.349 . S
C1132 H1126 0.950 . S
C1132 C1133 1.327 . S
C1133 H1127 0.950 . S
C1133 C1132 1.327 . S
C1133 C1137 1.429 . S
C1134 C1117 1.574 . S
C1134 H1128 0.949 . S
C1134 C1138 1.368 . S
C1135 C1116 1.429 . S
C1135 C1129 1.429 . S
C1135 C1136 1.523 . S
C1136 C1117 1.368 . S
C1136 C1130 1.368 . S
C1136 C1135 1.523 . S
C1137 C1121 1.429 . S
C1137 C1133 1.429 . S
C1137 C1138 1.523 . S
C1138 C1122 1.368 . S
C1138 C1134 1.368 . S
C1138 C1137 1.523 . S
H1139 C1114 0.950 . S
H1140 C1116 0.950 . S
H1141 C1117 0.949 . S
H1142 C1119 0.950 . S
H1143 C1121 0.950 . S
C1144 C1145 1.349 . S
C1144 C1146 1.327 . S
C1144 H1169 0.950 . S
C1145 C1144 1.349 . S
C1145 C1161 1.349 . S
C1146 C1144 1.327 . S
C1146 C1165 1.429 . S
C1146 H1170 0.950 . S
C1147 C1164 1.574 . S
C1147 C1166 1.368 . S
C1147 H1171 0.949 . S
H1148 C1152 0.949 . S
C1149 C1150 1.349 . S
C1149 C1151 1.327 . S
C1149 H1172 0.950 . S
C1150 C1149 1.349 . S
C1150 C1162 1.349 . S
C1151 C1149 1.327 . S
C1151 C1167 1.429 . S
C1151 H1173 0.950 . S
C1152 H1148 0.949 . S
C1152 C1160 1.574 . S
C1152 C1168 1.368 . S
H1153 C1161 0.950 . S
H1154 C1159 0.950 . S
H1155 C1160 0.949 . S
H1156 C1162 0.950 . S
H1157 C1163 0.950 . S
H1158 C1164 0.949 . S
C1159 H1154 0.950 . S
C1159 C1161 1.327 . S
C1159 C1165 1.429 . S
C1160 C1152 1.574 . S
C1160 H1155 0.949 . S
C1160 C1166 1.368 . S
C1161 C1145 1.349 . S
C1161 H1153 0.950 . S
C1161 C1159 1.327 . S
C1162 C1150 1.349 . S
C1162 H1156 0.950 . S
C1162 C1163 1.327 . S
C1163 H1157 0.950 . S
C1163 C1162 1.327 . S
C1163 C1167 1.429 . S
C1164 C1147 1.574 . S
C1164 H1158 0.949 . S
C1164 C1168 1.368 . S
C1165 C1146 1.429 . S
C1165 C1159 1.429 . S
C1165 C1166 1.523 . S
C1166 C1147 1.368 . S
C1166 C1160 1.368 . S
C1166 C1165 1.523 . S
C1167 C1151 1.429 . S
C1167 C1163 1.429 . S
C1167 C1168 1.523 . S
C1168 C1152 1.368 . S
C1168 C1164 1.368 . S
C1168 C1167 1.523 . S
H1169 C1144 0.950 . S
H1170 C1146 0.950 . S
H1171 C1147 0.949 . S
H1172 C1149 0.950 . S
H1173 C1151 0.950 . S
C1174 C1175 1.349 . S
C1174 C1176 1.327 . S
C1174 H1199 0.950 . S
C1175 C1174 1.349 . S
C1175 C1191 1.349 . S
C1176 C1174 1.327 . S
C1176 C1195 1.429 . S
C1176 H1200 0.950 . S
C1177 C1194 1.574 . S
C1177 C1196 1.368 . S
C1177 H1201 0.949 . S
H1178 C1182 0.949 . S
C1179 C1180 1.349 . S
C1179 C1181 1.327 . S
C1179 H1202 0.950 . S
C1180 C1179 1.349 . S
C1180 C1192 1.349 . S
C1181 C1179 1.327 . S
C1181 C1197 1.429 . S
C1181 H1203 0.950 . S
C1182 H1178 0.949 . S
C1182 C1190 1.574 . S
C1182 C1198 1.368 . S
H1183 C1191 0.950 . S
H1184 C1189 0.950 . S
H1185 C1190 0.949 . S
H1186 C1192 0.950 . S
H1187 C1193 0.950 . S
H1188 C1194 0.949 . S
C1189 H1184 0.950 . S
C1189 C1191 1.327 . S
C1189 C1195 1.429 . S
C1190 C1182 1.574 . S
C1190 H1185 0.949 . S
C1190 C1196 1.368 . S
C1191 C1175 1.349 . S
C1191 H1183 0.950 . S
C1191 C1189 1.327 . S
C1192 C1180 1.349 . S
C1192 H1186 0.950 . S
C1192 C1193 1.327 . S
C1193 H1187 0.950 . S
C1193 C1192 1.327 . S
C1193 C1197 1.429 . S
C1194 C1177 1.574 . S
C1194 H1188 0.949 . S
C1194 C1198 1.368 . S
C1195 C1176 1.429 . S
C1195 C1189 1.429 . S
C1195 C1196 1.523 . S
C1196 C1177 1.368 . S
C1196 C1190 1.368 . S
C1196 C1195 1.523 . S
C1197 C1181 1.429 . S
C1197 C1193 1.429 . S
C1197 C1198 1.523 . S
C1198 C1182 1.368 . S
C1198 C1194 1.368 . S
C1198 C1197 1.523 . S
H1199 C1174 0.950 . S
H1200 C1176 0.950 . S
H1201 C1177 0.949 . S
H1202 C1179 0.950 . S
H1203 C1181 0.950 . S
C1204 C1205 1.349 . S
C1204 C1206 1.327 . S
C1204 H1229 0.950 . S
C1205 C1204 1.349 . S
C1205 C1221 1.349 . S
C1206 C1204 1.327 . S
C1206 C1225 1.429 . S
C1206 H1230 0.950 . S
C1207 C1224 1.574 . S
C1207 C1226 1.368 . S
C1207 H1231 0.949 . S
H1208 C1212 0.949 . S
C1209 C1210 1.349 . S
C1209 C1211 1.327 . S
C1209 H1232 0.950 . S
C1210 C1209 1.349 . S
C1210 C1222 1.349 . S
C1211 C1209 1.327 . S
C1211 C1227 1.429 . S
C1211 H1233 0.950 . S
C1212 H1208 0.949 . S
C1212 C1220 1.574 . S
C1212 C1228 1.368 . S
H1213 C1221 0.950 . S
H1214 C1219 0.950 . S
H1215 C1220 0.949 . S
H1216 C1222 0.950 . S
H1217 C1223 0.950 . S
H1218 C1224 0.949 . S
C1219 H1214 0.950 . S
C1219 C1221 1.327 . S
C1219 C1225 1.429 . S
C1220 C1212 1.574 . S
C1220 H1215 0.949 . S
C1220 C1226 1.368 . S
C1221 C1205 1.349 . S
C1221 H1213 0.950 . S
C1221 C1219 1.327 . S
C1222 C1210 1.349 . S
C1222 H1216 0.950 . S
C1222 C1223 1.327 . S
C1223 H1217 0.950 . S
C1223 C1222 1.327 . S
C1223 C1227 1.429 . S
C1224 C1207 1.574 . S
C1224 H1218 0.949 . S
C1224 C1228 1.368 . S
C1225 C1206 1.429 . S
C1225 C1219 1.429 . S
C1225 C1226 1.523 . S
C1226 C1207 1.368 . S
C1226 C1220 1.368 . S
C1226 C1225 1.523 . S
C1227 C1211 1.429 . S
C1227 C1223 1.429 . S
C1227 C1228 1.523 . S
C1228 C1212 1.368 . S
C1228 C1224 1.368 . S
C1228 C1227 1.523 . S
H1229 C1204 0.950 . S
H1230 C1206 0.950 . S
H1231 C1207 0.949 . S
H1232 C1209 0.950 . S
H1233 C1211 0.950 . S
C1234 C1235 1.349 . S
C1234 C1236 1.327 . S
C1234 H1259 0.950 . S
C1235 C1234 1.349 . S
C1235 C1251 1.349 . S
C1236 C1234 1.327 . S
C1236 C1255 1.429 . S
C1236 H1260 0.950 . S
C1237 C1254 1.574 . S
C1237 C1256 1.368 . S
C1237 H1261 0.949 . S
H1238 C1242 0.949 . S
C1239 C1240 1.349 . S
C1239 C1241 1.327 . S
C1239 H1262 0.950 . S
C1240 C1239 1.349 . S
C1240 C1252 1.349 . S
C1241 C1239 1.327 . S
C1241 C1257 1.429 . S
C1241 H1263 0.950 . S
C1242 H1238 0.949 . S
C1242 C1250 1.574 . S
C1242 C1258 1.368 . S
H1243 C1251 0.950 . S
H1244 C1249 0.950 . S
H1245 C1250 0.949 . S
H1246 C1252 0.950 . S
H1247 C1253 0.950 . S
H1248 C1254 0.949 . S
C1249 H1244 0.950 . S
C1249 C1251 1.327 . S
C1249 C1255 1.429 . S
C1250 C1242 1.574 . S
C1250 H1245 0.949 . S
C1250 C1256 1.368 . S
C1251 C1235 1.349 . S
C1251 H1243 0.950 . S
C1251 C1249 1.327 . S
C1252 C1240 1.349 . S
C1252 H1246 0.950 . S
C1252 C1253 1.327 . S
C1253 H1247 0.950 . S
C1253 C1252 1.327 . S
C1253 C1257 1.429 . S
C1254 C1237 1.574 . S
C1254 H1248 0.949 . S
C1254 C1258 1.368 . S
C1255 C1236 1.429 . S
C1255 C1249 1.429 . S
C1255 C1256 1.523 . S
C1256 C1237 1.368 . S
C1256 C1250 1.368 . S
C1256 C1255 1.523 . S
C1257 C1241 1.429 . S
C1257 C1253 1.429 . S
C1257 C1258 1.523 . S
C1258 C1242 1.368 . S
C1258 C1254 1.368 . S
C1258 C1257 1.523 . S
H1259 C1234 0.950 . S
H1260 C1236 0.950 . S
H1261 C1237 0.949 . S
H1262 C1239 0.950 . S
H1263 C1241 0.950 . S
C1264 C1265 1.349 . S
C1264 C1266 1.327 . S
C1264 H1289 0.950 1_455 S
C1265 C1264 1.349 . S
C1265 C1281 1.349 . S
C1266 C1264 1.327 . S
C1266 C1285 1.429 . S
C1266 H1290 0.950 . S
C1267 C1284 1.574 . S
C1267 C1286 1.368 . S
C1267 H1291 0.949 . S
H1268 C1272 0.949 . S
C1269 C1270 1.349 . S
C1269 C1271 1.327 . S
C1269 H1292 0.950 . S
C1270 C1269 1.349 . S
C1270 C1282 1.349 . S
C1271 C1269 1.327 . S
C1271 C1287 1.429 . S
C1271 H1293 0.950 . S
C1272 H1268 0.949 . S
C1272 C1280 1.574 . S
C1272 C1288 1.368 . S
H1273 C1281 0.950 . S
H1274 C1279 0.950 . S
H1275 C1280 0.949 . S
H1276 C1282 0.950 . S
H1277 C1283 0.950 . S
H1278 C1284 0.949 . S
C1279 H1274 0.950 . S
C1279 C1281 1.327 . S
C1279 C1285 1.429 . S
C1280 C1272 1.574 . S
C1280 H1275 0.949 . S
C1280 C1286 1.368 . S
C1281 C1265 1.349 . S
C1281 H1273 0.950 . S
C1281 C1279 1.327 . S
C1282 C1270 1.349 . S
C1282 H1276 0.950 . S
C1282 C1283 1.327 . S
C1283 H1277 0.950 . S
C1283 C1282 1.327 . S
C1283 C1287 1.429 . S
C1284 C1267 1.574 . S
C1284 H1278 0.949 . S
C1284 C1288 1.368 . S
C1285 C1266 1.429 . S
C1285 C1279 1.429 . S
C1285 C1286 1.523 . S
C1286 C1267 1.368 . S
C1286 C1280 1.368 . S
C1286 C1285 1.523 . S
C1287 C1271 1.429 . S
C1287 C1283 1.429 . S
C1287 C1288 1.523 . S
C1288 C1272 1.368 . S
C1288 C1284 1.368 . S
C1288 C1287 1.523 . S
H1289 C1264 0.950 1_655 S
H1290 C1266 0.950 . S
H1291 C1267 0.949 . S
H1292 C1269 0.950 . S
H1293 C1271 0.950 . S
C1294 C1295 1.349 . S
C1294 C1296 1.327 . S
C1294 H1319 0.950 . S
C1295 C1294 1.349 . S
C1295 C1311 1.349 . S
C1296 C1294 1.327 . S
C1296 C1315 1.429 . S
C1296 H1320 0.950 . S
C1297 C1314 1.574 . S
C1297 C1316 1.368 . S
C1297 H1321 0.949 . S
H1298 C1302 0.949 . S
C1299 C1300 1.349 . S
C1299 C1301 1.327 . S
C1299 H1322 0.950 . S
C1300 C1299 1.349 . S
C1300 C1312 1.349 . S
C1301 C1299 1.327 . S
C1301 C1317 1.429 . S
C1301 H1323 0.950 . S
C1302 H1298 0.949 . S
C1302 C1310 1.574 . S
C1302 C1318 1.368 . S
H1303 C1311 0.950 1_565 S
H1304 C1309 0.950 . S
H1305 C1310 0.949 . S
H1306 C1312 0.950 . S
H1307 C1313 0.950 . S
H1308 C1314 0.949 . S
C1309 H1304 0.950 . S
C1309 C1311 1.327 . S
C1309 C1315 1.429 . S
C1310 C1302 1.574 . S
C1310 H1305 0.949 . S
C1310 C1316 1.368 . S
C1311 C1295 1.349 . S
C1311 H1303 0.950 1_545 S
C1311 C1309 1.327 . S
C1312 C1300 1.349 . S
C1312 H1306 0.950 . S
C1312 C1313 1.327 . S
C1313 H1307 0.950 . S
C1313 C1312 1.327 . S
C1313 C1317 1.429 . S
C1314 C1297 1.574 . S
C1314 H1308 0.949 . S
C1314 C1318 1.368 . S
C1315 C1296 1.429 . S
C1315 C1309 1.429 . S
C1315 C1316 1.523 . S
C1316 C1297 1.368 . S
C1316 C1310 1.368 . S
C1316 C1315 1.523 . S
C1317 C1301 1.429 . S
C1317 C1313 1.429 . S
C1317 C1318 1.523 . S
C1318 C1302 1.368 . S
C1318 C1314 1.368 . S
C1318 C1317 1.523 . S
H1319 C1294 0.950 . S
H1320 C1296 0.950 . S
H1321 C1297 0.949 . S
H1322 C1299 0.950 . S
H1323 C1301 0.950 . S
C1324 C1325 1.349 . S
C1324 C1326 1.327 . S
C1324 H1349 0.950 . S
C1325 C1324 1.349 . S
C1325 C1341 1.349 . S
C1326 C1324 1.327 . S
C1326 C1345 1.429 . S
C1326 H1350 0.950 . S
C1327 C1344 1.574 . S
C1327 C1346 1.368 . S
C1327 H1351 0.949 . S
H1328 C1332 0.949 . S
C1329 C1330 1.349 . S
C1329 C1331 1.327 . S
C1329 H1352 0.950 . S
C1330 C1329 1.349 . S
C1330 C1342 1.349 . S
C1331 C1329 1.327 . S
C1331 C1347 1.429 . S
C1331 H1353 0.950 . S
C1332 H1328 0.949 . S
C1332 C1340 1.574 . S
C1332 C1348 1.368 . S
H1333 C1341 0.950 . S
H1334 C1339 0.950 . S
H1335 C1340 0.949 . S
H1336 C1342 0.950 . S
H1337 C1343 0.950 . S
H1338 C1344 0.949 . S
C1339 H1334 0.950 . S
C1339 C1341 1.327 . S
C1339 C1345 1.429 . S
C1340 C1332 1.574 . S
C1340 H1335 0.949 . S
C1340 C1346 1.368 . S
C1341 C1325 1.349 . S
C1341 H1333 0.950 . S
C1341 C1339 1.327 . S
C1342 C1330 1.349 . S
C1342 H1336 0.950 . S
C1342 C1343 1.327 . S
C1343 H1337 0.950 . S
C1343 C1342 1.327 . S
C1343 C1347 1.429 . S
C1344 C1327 1.574 . S
C1344 H1338 0.949 . S
C1344 C1348 1.368 . S
C1345 C1326 1.429 . S
C1345 C1339 1.429 . S
C1345 C1346 1.523 . S
C1346 C1327 1.368 . S
C1346 C1340 1.368 . S
C1346 C1345 1.523 . S
C1347 C1331 1.429 . S
C1347 C1343 1.429 . S
C1347 C1348 1.523 . S
C1348 C1332 1.368 . S
C1348 C1344 1.368 . S
C1348 C1347 1.523 . S
H1349 C1324 0.950 . S
H1350 C1326 0.950 . S
H1351 C1327 0.949 . S
H1352 C1329 0.950 . S
H1353 C1331 0.950 . S
C1354 C1355 1.349 . S
C1354 C1356 1.327 . S
C1354 H1379 0.950 . S
C1355 C1354 1.349 . S
C1355 C1371 1.349 . S
C1356 C1354 1.327 . S
C1356 C1375 1.429 . S
C1356 H1380 0.950 . S
C1357 C1374 1.574 . S
C1357 C1376 1.368 . S
C1357 H1381 0.949 . S
H1358 C1362 0.949 . S
C1359 C1360 1.349 . S
C1359 C1361 1.327 . S
C1359 H1382 0.950 . S
C1360 C1359 1.349 . S
C1360 C1372 1.349 . S
C1361 C1359 1.327 . S
C1361 C1377 1.429 . S
C1361 H1383 0.950 . S
C1362 H1358 0.949 . S
C1362 C1370 1.574 . S
C1362 C1378 1.368 . S
H1363 C1371 0.950 . S
H1364 C1369 0.950 . S
H1365 C1370 0.949 . S
H1366 C1372 0.950 . S
H1367 C1373 0.950 . S
H1368 C1374 0.949 . S
C1369 H1364 0.950 . S
C1369 C1371 1.327 . S
C1369 C1375 1.429 . S
C1370 C1362 1.574 . S
C1370 H1365 0.949 . S
C1370 C1376 1.368 . S
C1371 C1355 1.349 . S
C1371 H1363 0.950 . S
C1371 C1369 1.327 . S
C1372 C1360 1.349 . S
C1372 H1366 0.950 . S
C1372 C1373 1.327 . S
C1373 H1367 0.950 . S
C1373 C1372 1.327 . S
C1373 C1377 1.429 . S
C1374 C1357 1.574 . S
C1374 H1368 0.949 . S
C1374 C1378 1.368 . S
C1375 C1356 1.429 . S
C1375 C1369 1.429 . S
C1375 C1376 1.523 . S
C1376 C1357 1.368 . S
C1376 C1370 1.368 . S
C1376 C1375 1.523 . S
C1377 C1361 1.429 . S
C1377 C1373 1.429 . S
C1377 C1378 1.523 . S
C1378 C1362 1.368 . S
C1378 C1374 1.368 . S
C1378 C1377 1.523 . S
H1379 C1354 0.950 . S
H1380 C1356 0.950 . S
H1381 C1357 0.949 . S
H1382 C1359 0.950 . S
H1383 C1361 0.950 . S
C1384 C1385 1.349 . S
C1384 C1386 1.327 . S
C1384 H1409 0.950 . S
C1385 C1384 1.349 . S
C1385 C1401 1.349 . S
C1386 C1384 1.327 . S
C1386 C1405 1.429 . S
C1386 H1410 0.950 . S
C1387 C1404 1.574 . S
C1387 C1406 1.368 . S
C1387 H1411 0.949 . S
H1388 C1392 0.949 . S
C1389 C1390 1.349 . S
C1389 C1391 1.327 . S
C1389 H1412 0.950 . S
C1390 C1389 1.349 . S
C1390 C1402 1.349 . S
C1391 C1389 1.327 . S
C1391 C1407 1.429 . S
C1391 H1413 0.950 . S
C1392 H1388 0.949 . S
C1392 C1400 1.574 . S
C1392 C1408 1.368 . S
H1393 C1401 0.950 . S
H1394 C1399 0.950 . S
H1395 C1400 0.949 . S
H1396 C1402 0.950 . S
H1397 C1403 0.950 . S
H1398 C1404 0.949 . S
C1399 H1394 0.950 . S
C1399 C1401 1.327 . S
C1399 C1405 1.429 . S
C1400 C1392 1.574 . S
C1400 H1395 0.949 . S
C1400 C1406 1.368 . S
C1401 C1385 1.349 . S
C1401 H1393 0.950 . S
C1401 C1399 1.327 . S
C1402 C1390 1.349 . S
C1402 H1396 0.950 . S
C1402 C1403 1.327 . S
C1403 H1397 0.950 . S
C1403 C1402 1.327 . S
C1403 C1407 1.429 . S
C1404 C1387 1.574 . S
C1404 H1398 0.949 . S
C1404 C1408 1.368 . S
C1405 C1386 1.429 . S
C1405 C1399 1.429 . S
C1405 C1406 1.523 . S
C1406 C1387 1.368 . S
C1406 C1400 1.368 . S
C1406 C1405 1.523 . S
C1407 C1391 1.429 . S
C1407 C1403 1.429 . S
C1407 C1408 1.523 . S
C1408 C1392 1.368 . S
C1408 C1404 1.368 . S
C1408 C1407 1.523 . S
H1409 C1384 0.950 . S
H1410 C1386 0.950 . S
H1411 C1387 0.949 . S
H1412 C1389 0.950 . S
H1413 C1391 0.950 . S
C1414 C1415 1.349 . S
C1414 C1416 1.327 . S
C1414 H1439 0.950 . S
C1415 C1414 1.349 . S
C1415 C1431 1.349 . S
C1416 C1414 1.327 . S
C1416 C1435 1.429 . S
C1416 H1440 0.950 . S
C1417 C1434 1.574 . S
C1417 C1436 1.368 . S
C1417 H1441 0.949 . S
H1418 C1422 0.949 . S
C1419 C1420 1.349 . S
C1419 C1421 1.327 . S
C1419 H1442 0.950 . S
C1420 C1419 1.349 . S
C1420 C1432 1.349 . S
C1421 C1419 1.327 . S
C1421 C1437 1.429 . S
C1421 H1443 0.950 . S
C1422 H1418 0.949 . S
C1422 C1430 1.574 . S
C1422 C1438 1.368 . S
H1423 C1431 0.950 . S
H1424 C1429 0.950 . S
H1425 C1430 0.949 . S
H1426 C1432 0.950 . S
H1427 C1433 0.950 . S
H1428 C1434 0.949 . S
C1429 H1424 0.950 . S
C1429 C1431 1.327 . S
C1429 C1435 1.429 . S
C1430 C1422 1.574 . S
C1430 H1425 0.949 . S
C1430 C1436 1.368 . S
C1431 C1415 1.349 . S
C1431 H1423 0.950 . S
C1431 C1429 1.327 . S
C1432 C1420 1.349 . S
C1432 H1426 0.950 . S
C1432 C1433 1.327 . S
C1433 H1427 0.950 . S
C1433 C1432 1.327 . S
C1433 C1437 1.429 . S
C1434 C1417 1.574 . S
C1434 H1428 0.949 . S
C1434 C1438 1.368 . S
C1435 C1416 1.429 . S
C1435 C1429 1.429 . S
C1435 C1436 1.523 . S
C1436 C1417 1.368 . S
C1436 C1430 1.368 . S
C1436 C1435 1.523 . S
C1437 C1421 1.429 . S
C1437 C1433 1.429 . S
C1437 C1438 1.523 . S
C1438 C1422 1.368 . S
C1438 C1434 1.368 . S
C1438 C1437 1.523 . S
H1439 C1414 0.950 . S
H1440 C1416 0.950 . S
H1441 C1417 0.949 . S
H1442 C1419 0.950 . S
H1443 C1421 0.950 . S
C1444 C1445 1.349 . S
C1444 C1446 1.327 . S
C1444 H1469 0.950 . S
C1445 C1444 1.349 . S
C1445 C1461 1.349 . S
C1446 C1444 1.327 . S
C1446 C1465 1.429 . S
C1446 H1470 0.950 . S
C1447 C1464 1.574 . S
C1447 C1466 1.368 . S
C1447 H1471 0.949 . S
H1448 C1452 0.949 . S
C1449 C1450 1.349 . S
C1449 C1451 1.327 . S
C1449 H1472 0.950 . S
C1450 C1449 1.349 . S
C1450 C1462 1.349 . S
C1451 C1449 1.327 . S
C1451 C1467 1.429 . S
C1451 H1473 0.950 . S
C1452 H1448 0.949 . S
C1452 C1460 1.574 . S
C1452 C1468 1.368 . S
H1453 C1461 0.950 . S
H1454 C1459 0.950 . S
H1455 C1460 0.949 . S
H1456 C1462 0.950 . S
H1457 C1463 0.950 . S
H1458 C1464 0.949 . S
C1459 H1454 0.950 . S
C1459 C1461 1.327 . S
C1459 C1465 1.429 . S
C1460 C1452 1.574 . S
C1460 H1455 0.949 . S
C1460 C1466 1.368 . S
C1461 C1445 1.349 . S
C1461 H1453 0.950 . S
C1461 C1459 1.327 . S
C1462 C1450 1.349 . S
C1462 H1456 0.950 . S
C1462 C1463 1.327 . S
C1463 H1457 0.950 . S
C1463 C1462 1.327 . S
C1463 C1467 1.429 . S
C1464 C1447 1.574 . S
C1464 H1458 0.949 . S
C1464 C1468 1.368 . S
C1465 C1446 1.429 . S
C1465 C1459 1.429 . S
C1465 C1466 1.523 . S
C1466 C1447 1.368 . S
C1466 C1460 1.368 . S
C1466 C1465 1.523 . S
C1467 C1451 1.429 . S
C1467 C1463 1.429 . S
C1467 C1468 1.523 . S
C1468 C1452 1.368 . S
C1468 C1464 1.368 . S
C1468 C1467 1.523 . S
H1469 C1444 0.950 . S
H1470 C1446 0.950 . S
H1471 C1447 0.949 . S
H1472 C1449 0.950 . S
H1473 C1451 0.950 . S
C1474 C1475 1.349 . S
C1474 C1476 1.327 . S
C1474 H1499 0.971 . S
C1475 C1474 1.349 . S
C1475 C1491 1.349 . S
C1476 C1474 1.327 . S
C1476 C1495 1.429 . S
C1476 H1500 0.950 . S
C1477 C1494 1.574 . S
C1477 C1496 1.368 . S
C1477 H1501 0.949 . S
H1478 C1482 0.949 . S
C1479 C1480 1.349 . S
C1479 C1481 1.327 . S
C1479 H1502 0.950 . S
C1480 C1479 1.349 . S
C1480 C1492 1.349 . S
C1481 C1479 1.327 . S
C1481 C1497 1.429 . S
C1481 H1503 0.950 . S
C1482 H1478 0.949 . S
C1482 C1490 1.574 . S
C1482 C1498 1.368 . S
H1483 C1491 0.950 . S
H1484 C1489 0.950 . S
H1485 C1490 0.949 . S
H1486 C1492 0.950 . S
H1487 C1493 0.950 . S
H1488 C1494 0.949 . S
C1489 H1484 0.950 . S
C1489 C1491 1.327 . S
C1489 C1495 1.429 . S
C1490 C1482 1.574 . S
C1490 H1485 0.949 . S
C1490 C1496 1.368 . S
C1491 C1475 1.349 . S
C1491 H1483 0.950 . S
C1491 C1489 1.327 . S
C1492 C1480 1.349 . S
C1492 H1486 0.950 . S
C1492 C1493 1.327 . S
C1493 H1487 0.950 . S
C1493 C1492 1.327 . S
C1493 C1497 1.429 . S
C1494 C1477 1.574 . S
C1494 H1488 0.949 . S
C1494 C1498 1.368 . S
C1495 C1476 1.429 . S
C1495 C1489 1.429 . S
C1495 C1496 1.523 . S
C1496 C1477 1.368 . S
C1496 C1490 1.368 . S
C1496 C1495 1.523 . S
C1497 C1481 1.429 . S
C1497 C1493 1.429 . S
C1497 C1498 1.523 . S
C1498 C1482 1.368 . S
C1498 C1494 1.368 . S
C1498 C1497 1.523 . S
H1499 C1474 0.971 . S
H1500 C1476 0.950 . S
H1501 C1477 0.949 . S
H1502 C1479 0.950 . S
H1503 C1481 0.950 . S
C1504 C1505 1.349 . S
C1504 C1506 1.327 . S
C1504 H1529 0.950 . S
C1505 C1504 1.349 . S
C1505 C1521 1.349 . S
C1506 C1504 1.327 . S
C1506 C1525 1.429 . S
C1506 H1530 0.950 . S
C1507 C1524 1.574 . S
C1507 C1526 1.368 . S
C1507 H1531 0.949 . S
H1508 C1512 0.949 . S
C1509 C1510 1.349 . S
C1509 C1511 1.327 . S
C1509 H1532 0.950 . S
C1510 C1509 1.349 . S
C1510 C1522 1.349 . S
C1511 C1509 1.327 . S
C1511 C1527 1.429 . S
C1511 H1533 0.950 . S
C1512 H1508 0.949 . S
C1512 C1520 1.574 . S
C1512 C1528 1.368 . S
H1513 C1521 0.950 . S
H1514 C1519 0.950 . S
H1515 C1520 0.949 . S
H1516 C1522 0.950 . S
H1517 C1523 0.950 . S
H1518 C1524 0.949 . S
C1519 H1514 0.950 . S
C1519 C1521 1.327 . S
C1519 C1525 1.429 . S
C1520 C1512 1.574 . S
C1520 H1515 0.949 . S
C1520 C1526 1.368 . S
C1521 C1505 1.349 . S
C1521 H1513 0.950 . S
C1521 C1519 1.327 . S
C1522 C1510 1.349 . S
C1522 H1516 0.950 . S
C1522 C1523 1.327 . S
C1523 H1517 0.950 . S
C1523 C1522 1.327 . S
C1523 C1527 1.429 . S
C1524 C1507 1.574 . S
C1524 H1518 0.949 . S
C1524 C1528 1.368 . S
C1525 C1506 1.429 . S
C1525 C1519 1.429 . S
C1525 C1526 1.523 . S
C1526 C1507 1.368 . S
C1526 C1520 1.368 . S
C1526 C1525 1.523 . S
C1527 C1511 1.429 . S
C1527 C1523 1.429 . S
C1527 C1528 1.523 . S
C1528 C1512 1.368 . S
C1528 C1524 1.368 . S
C1528 C1527 1.523 . S
H1529 C1504 0.950 . S
H1530 C1506 0.950 . S
H1531 C1507 0.949 . S
H1532 C1509 0.950 . S
H1533 C1511 0.950 . S
C1534 C1535 1.349 . S
C1534 C1536 1.327 . S
C1534 H1559 0.950 . S
C1535 C1534 1.349 . S
C1535 C1551 1.349 . S
C1536 C1534 1.327 . S
C1536 C1555 1.429 . S
C1536 H1560 0.950 . S
C1537 C1554 1.574 . S
C1537 C1556 1.368 . S
C1537 H1561 0.949 . S
H1538 C1542 0.949 . S
C1539 C1540 1.349 . S
C1539 C1541 1.327 . S
C1539 H1562 0.950 . S
C1540 C1539 1.349 . S
C1540 C1552 1.349 . S
C1541 C1539 1.327 . S
C1541 C1557 1.429 . S
C1541 H1563 0.950 . S
C1542 H1538 0.949 . S
C1542 C1550 1.574 . S
C1542 C1558 1.368 . S
H1543 C1551 0.950 . S
H1544 C1549 0.950 . S
H1545 C1550 0.949 . S
H1546 C1552 0.950 . S
H1547 C1553 0.950 . S
H1548 C1554 0.949 . S
C1549 H1544 0.950 . S
C1549 C1551 1.327 . S
C1549 C1555 1.429 . S
C1550 C1542 1.574 . S
C1550 H1545 0.949 . S
C1550 C1556 1.368 . S
C1551 C1535 1.349 . S
C1551 H1543 0.950 . S
C1551 C1549 1.327 . S
C1552 C1540 1.349 . S
C1552 H1546 0.950 . S
C1552 C1553 1.327 . S
C1553 H1547 0.950 . S
C1553 C1552 1.327 . S
C1553 C1557 1.429 . S
C1554 C1537 1.574 . S
C1554 H1548 0.949 . S
C1554 C1558 1.368 . S
C1555 C1536 1.429 . S
C1555 C1549 1.429 . S
C1555 C1556 1.523 . S
C1556 C1537 1.368 . S
C1556 C1550 1.368 . S
C1556 C1555 1.523 . S
C1557 C1541 1.429 . S
C1557 C1553 1.429 . S
C1557 C1558 1.523 . S
C1558 C1542 1.368 . S
C1558 C1554 1.368 . S
C1558 C1557 1.523 . S
H1559 C1534 0.950 . S
H1560 C1536 0.950 . S
H1561 C1537 0.949 . S
H1562 C1539 0.950 . S
H1563 C1541 0.950 . S
C1564 C1565 1.349 . S
C1564 C1566 1.327 . S
C1564 H1589 0.950 . S
C1565 C1564 1.349 . S
C1565 C1581 1.349 . S
C1566 C1564 1.327 . S
C1566 C1585 1.429 . S
C1566 H1590 0.950 . S
C1567 C1584 1.574 . S
C1567 C1586 1.368 . S
C1567 H1591 0.949 . S
H1568 C1572 0.949 . S
C1569 C1570 1.349 . S
C1569 C1571 1.327 . S
C1569 H1592 0.950 . S
C1570 C1569 1.349 . S
C1570 C1582 1.349 . S
C1571 C1569 1.327 . S
C1571 C1587 1.429 . S
C1571 H1593 0.950 . S
C1572 H1568 0.949 . S
C1572 C1580 1.574 . S
C1572 C1588 1.368 . S
H1573 C1581 0.950 . S
H1574 C1579 0.950 . S
H1575 C1580 0.949 . S
H1576 C1582 0.950 . S
H1577 C1583 0.950 . S
H1578 C1584 0.949 . S
C1579 H1574 0.950 . S
C1579 C1581 1.327 . S
C1579 C1585 1.429 . S
C1580 C1572 1.574 . S
C1580 H1575 0.949 . S
C1580 C1586 1.368 . S
C1581 C1565 1.349 . S
C1581 H1573 0.950 . S
C1581 C1579 1.327 . S
C1582 C1570 1.349 . S
C1582 H1576 0.950 . S
C1582 C1583 1.327 . S
C1583 H1577 0.950 . S
C1583 C1582 1.327 . S
C1583 C1587 1.429 . S
C1584 C1567 1.574 . S
C1584 H1578 0.949 . S
C1584 C1588 1.368 . S
C1585 C1566 1.429 . S
C1585 C1579 1.429 . S
C1585 C1586 1.523 . S
C1586 C1567 1.368 . S
C1586 C1580 1.368 . S
C1586 C1585 1.523 . S
C1587 C1571 1.429 . S
C1587 C1583 1.429 . S
C1587 C1588 1.523 . S
C1588 C1572 1.368 . S
C1588 C1584 1.368 . S
C1588 C1587 1.523 . S
H1589 C1564 0.950 . S
H1590 C1566 0.950 . S
H1591 C1567 0.949 . S
H1592 C1569 0.950 . S
H1593 C1571 0.950 . S
C1594 C1595 1.349 . S
C1594 C1596 1.327 . S
C1594 H1619 0.950 . S
C1595 C1594 1.349 . S
C1595 C1611 1.349 . S
C1596 C1594 1.327 . S
C1596 C1615 1.429 . S
C1596 H1620 0.950 . S
C1597 C1614 1.574 . S
C1597 C1616 1.368 . S
C1597 H1621 0.949 . S
H1598 C1602 0.949 . S
C1599 C1600 1.349 . S
C1599 C1601 1.327 . S
C1599 H1622 0.950 . S
C1600 C1599 1.349 . S
C1600 C1612 1.349 . S
C1601 C1599 1.327 . S
C1601 C1617 1.429 . S
C1601 H1623 0.950 . S
C1602 H1598 0.949 . S
C1602 C1610 1.574 . S
C1602 C1618 1.368 . S
H1603 C1611 0.950 . S
H1604 C1609 0.950 . S
H1605 C1610 0.949 . S
H1606 C1612 0.950 . S
H1607 C1613 0.950 . S
H1608 C1614 0.949 . S
C1609 H1604 0.950 . S
C1609 C1611 1.327 . S
C1609 C1615 1.429 . S
C1610 C1602 1.574 . S
C1610 H1605 0.949 . S
C1610 C1616 1.368 . S
C1611 C1595 1.349 . S
C1611 H1603 0.950 . S
C1611 C1609 1.327 . S
C1612 C1600 1.349 . S
C1612 H1606 0.950 . S
C1612 C1613 1.327 . S
C1613 H1607 0.950 . S
C1613 C1612 1.327 . S
C1613 C1617 1.429 . S
C1614 C1597 1.574 . S
C1614 H1608 0.949 . S
C1614 C1618 1.368 . S
C1615 C1596 1.429 . S
C1615 C1609 1.429 . S
C1615 C1616 1.523 . S
C1616 C1597 1.368 . S
C1616 C1610 1.368 . S
C1616 C1615 1.523 . S
C1617 C1601 1.429 . S
C1617 C1613 1.429 . S
C1617 C1618 1.523 . S
C1618 C1602 1.368 . S
C1618 C1614 1.368 . S
C1618 C1617 1.523 . S
H1619 C1594 0.950 . S
H1620 C1596 0.950 . S
H1621 C1597 0.949 . S
H1622 C1599 0.950 . S
H1623 C1601 0.950 . S
C1624 C1625 1.349 . S
C1624 C1626 1.327 . S
C1624 H1649 0.938 1_565 S
C1625 C1624 1.349 . S
C1625 C1641 1.349 . S
C1626 C1624 1.327 . S
C1626 C1645 1.429 . S
C1626 H1650 0.897 1_565 S
C1627 C1644 1.574 . S
C1627 C1646 1.368 . S
C1627 H1651 0.949 . S
H1628 C1632 0.949 1_545 S
C1629 C1630 1.349 . S
C1629 C1631 1.327 . S
C1629 H1652 0.950 . S
C1630 C1629 1.349 . S
C1630 C1642 1.349 . S
C1631 C1629 1.327 . S
C1631 C1647 1.429 . S
C1631 H1653 0.950 . S
C1632 H1628 0.949 1_565 S
C1632 C1640 1.574 . S
C1632 C1648 1.368 . S
H1633 C1641 0.950 . S
H1634 C1639 0.950 . S
H1635 C1640 0.949 1_545 S
H1636 C1642 0.935 1_545 S
H1637 C1643 0.897 1_545 S
H1638 C1644 0.949 . S
C1639 H1634 0.950 . S
C1639 C1641 1.327 . S
C1639 C1645 1.429 . S
C1640 C1632 1.574 . S
C1640 H1635 0.949 1_565 S
C1640 C1646 1.368 . S
C1641 C1625 1.349 . S
C1641 H1633 0.950 . S
C1641 C1639 1.327 . S
C1642 C1630 1.349 . S
C1642 H1636 0.935 1_565 S
C1642 C1643 1.327 . S
C1643 H1637 0.897 1_565 S
C1643 C1642 1.327 . S
C1643 C1647 1.429 . S
C1644 C1627 1.574 . S
C1644 H1638 0.949 . S
C1644 C1648 1.368 . S
C1645 C1626 1.429 . S
C1645 C1639 1.429 . S
C1645 C1646 1.523 . S
C1646 C1627 1.368 . S
C1646 C1640 1.368 . S
C1646 C1645 1.523 . S
C1647 C1631 1.429 . S
C1647 C1643 1.429 . S
C1647 C1648 1.523 . S
C1648 C1632 1.368 . S
C1648 C1644 1.368 . S
C1648 C1647 1.523 . S
H1649 C1624 0.938 1_545 S
H1650 C1626 0.897 1_545 S
H1651 C1627 0.949 . S
H1652 C1629 0.950 . S
H1653 C1631 0.950 . S
C1654 C1655 1.349 . S
C1654 C1656 1.327 . S
C1654 H1679 0.950 . S
C1655 C1654 1.349 . S
C1655 C1671 1.349 . S
C1656 C1654 1.327 . S
C1656 C1675 1.429 . S
C1656 H1680 0.950 . S
C1657 C1674 1.574 . S
C1657 C1676 1.368 . S
C1657 H1681 0.949 . S
H1658 C1662 0.949 . S
C1659 C1660 1.349 . S
C1659 C1661 1.327 . S
C1659 H1682 0.950 . S
C1660 C1659 1.349 . S
C1660 C1672 1.349 . S
C1661 C1659 1.327 . S
C1661 C1677 1.429 . S
C1661 H1683 0.950 . S
C1662 H1658 0.949 . S
C1662 C1670 1.574 . S
C1662 C1678 1.368 . S
H1663 C1671 0.950 . S
H1664 C1669 0.950 . S
H1665 C1670 0.949 . S
H1666 C1672 0.950 . S
H1667 C1673 0.950 . S
H1668 C1674 0.949 . S
C1669 H1664 0.950 . S
C1669 C1671 1.327 . S
C1669 C1675 1.429 . S
C1670 C1662 1.574 . S
C1670 H1665 0.949 . S
C1670 C1676 1.368 . S
C1671 C1655 1.349 . S
C1671 H1663 0.950 . S
C1671 C1669 1.327 . S
C1672 C1660 1.349 . S
C1672 H1666 0.950 . S
C1672 C1673 1.327 . S
C1673 H1667 0.950 . S
C1673 C1672 1.327 . S
C1673 C1677 1.429 . S
C1674 C1657 1.574 . S
C1674 H1668 0.949 . S
C1674 C1678 1.368 . S
C1675 C1656 1.429 . S
C1675 C1669 1.429 . S
C1675 C1676 1.523 . S
C1676 C1657 1.368 . S
C1676 C1670 1.368 . S
C1676 C1675 1.523 . S
C1677 C1661 1.429 . S
C1677 C1673 1.429 . S
C1677 C1678 1.523 . S
C1678 C1662 1.368 . S
C1678 C1674 1.368 . S
C1678 C1677 1.523 . S
H1679 C1654 0.950 . S
H1680 C1656 0.950 . S
H1681 C1657 0.949 . S
H1682 C1659 0.950 . S
H1683 C1661 0.950 . S
C1684 C1685 1.349 . S
C1684 C1686 1.327 . S
C1684 H1709 0.950 . S
C1685 C1684 1.349 . S
C1685 C1701 1.349 . S
C1686 C1684 1.327 . S
C1686 C1705 1.429 . S
C1686 H1710 0.950 . S
C1687 C1704 1.574 . S
C1687 C1706 1.368 . S
C1687 H1711 0.949 . S
H1688 C1692 0.949 . S
C1689 C1690 1.349 . S
C1689 C1691 1.327 . S
C1689 H1712 0.950 . S
C1690 C1689 1.349 . S
C1690 C1702 1.349 . S
C1691 C1689 1.327 . S
C1691 C1707 1.429 . S
C1691 H1713 0.950 . S
C1692 H1688 0.949 . S
C1692 C1700 1.574 . S
C1692 C1708 1.368 . S
H1693 C1701 0.950 . S
H1694 C1699 0.950 . S
H1695 C1700 0.949 . S
H1696 C1702 0.950 . S
H1697 C1703 0.950 . S
H1698 C1704 0.949 . S
C1699 H1694 0.950 . S
C1699 C1701 1.327 . S
C1699 C1705 1.429 . S
C1700 C1692 1.574 . S
C1700 H1695 0.949 . S
C1700 C1706 1.368 . S
C1701 C1685 1.349 . S
C1701 H1693 0.950 . S
C1701 C1699 1.327 . S
C1702 C1690 1.349 . S
C1702 H1696 0.950 . S
C1702 C1703 1.327 . S
C1703 H1697 0.950 . S
C1703 C1702 1.327 . S
C1703 C1707 1.429 . S
C1704 C1687 1.574 . S
C1704 H1698 0.949 . S
C1704 C1708 1.368 . S
C1705 C1686 1.429 . S
C1705 C1699 1.429 . S
C1705 C1706 1.523 . S
C1706 C1687 1.368 . S
C1706 C1700 1.368 . S
C1706 C1705 1.523 . S
C1707 C1691 1.429 . S
C1707 C1703 1.429 . S
C1707 C1708 1.523 . S
C1708 C1692 1.368 . S
C1708 C1704 1.368 . S
C1708 C1707 1.523 . S
H1709 C1684 0.950 . S
H1710 C1686 0.950 . S
H1711 C1687 0.949 . S
H1712 C1689 0.950 . S
H1713 C1691 0.950 . S
C1714 C1715 1.349 . S
C1714 C1716 1.327 . S
C1714 H1739 0.950 . S
C1715 C1714 1.349 . S
C1715 C1731 1.349 . S
C1716 C1714 1.327 . S
C1716 C1735 1.429 . S
C1716 H1740 0.950 . S
C1717 C1734 1.574 . S
C1717 C1736 1.368 . S
C1717 H1741 0.949 . S
H1718 C1722 0.949 . S
C1719 C1720 1.349 . S
C1719 C1721 1.327 . S
C1719 H1742 0.950 . S
C1720 C1719 1.349 . S
C1720 C1732 1.349 . S
C1721 C1719 1.327 . S
C1721 C1737 1.429 . S
C1721 H1743 0.950 . S
C1722 H1718 0.949 . S
C1722 C1730 1.574 . S
C1722 C1738 1.368 . S
H1723 C1731 0.950 . S
H1724 C1729 0.950 . S
H1725 C1730 0.949 . S
H1726 C1732 0.950 . S
H1727 C1733 0.950 . S
H1728 C1734 0.949 . S
C1729 H1724 0.950 . S
C1729 C1731 1.327 . S
C1729 C1735 1.429 . S
C1730 C1722 1.574 . S
C1730 H1725 0.949 . S
C1730 C1736 1.368 . S
C1731 C1715 1.349 . S
C1731 H1723 0.950 . S
C1731 C1729 1.327 . S
C1732 C1720 1.349 . S
C1732 H1726 0.950 . S
C1732 C1733 1.327 . S
C1733 H1727 0.950 . S
C1733 C1732 1.327 . S
C1733 C1737 1.429 . S
C1734 C1717 1.574 . S
C1734 H1728 0.949 . S
C1734 C1738 1.368 . S
C1735 C1716 1.429 . S
C1735 C1729 1.429 . S
C1735 C1736 1.523 . S
C1736 C1717 1.368 . S
C1736 C1730 1.368 . S
C1736 C1735 1.523 . S
C1737 C1721 1.429 . S
C1737 C1733 1.429 . S
C1737 C1738 1.523 . S
C1738 C1722 1.368 . S
C1738 C1734 1.368 . S
C1738 C1737 1.523 . S
H1739 C1714 0.950 . S
H1740 C1716 0.950 . S
H1741 C1717 0.949 . S
H1742 C1719 0.950 . S
H1743 C1721 0.950 . S
C545 C277 0.650 . S
C550 C5 0.657 . S
C575 C39 0.794 . S
C580 C311 0.789 . S
C605 C345 0.676 . S
C610 C73 0.657 . S
C635 C379 0.473 . S
C640 C122 0.260 . S
C665 C141 0.627 . S
C670 C413 0.619 . S
C695 C175 0.812 . S
C700 C447 0.807 . S
C725 C209 0.533 . S
C730 C481 0.555 . S
C755 C243 0.480 . S
C760 C515 0.487 . S
C785 C33 1.612 . S
C790 C530 1.551 1_554 S
C815 C67 1.463 . S
C820 C428 1.410 . S
C845 C101 1.510 . S
C850 C462 1.454 . S
C875 C496 1.342 . S
C880 C135 1.393 . S
C905 C169 1.422 . S
C910 C326 1.373 . S
C935 C203 1.424 . S
C940 C360 1.372 . S
C965 C394 1.621 1_556 S
C970 C237 1.660 . S
C995 C271 1.513 . S
C1000 C292 1.456 . S
C1025 C258 1.429 . S
C1030 C305 1.483 . S
C1055 C156 1.404 . S
C1060 C339 1.457 . S
C1085 C190 1.389 1_556 S
C1090 C373 1.441 . S
C1115 C407 1.097 . S
C1120 C224 1.060 . S
C1145 C54 1.359 1_554 S
C1150 C441 1.407 . S
C1175 C475 1.432 . S
C1180 C88 1.382 . S
C1205 C111 0.886 . S
C1210 C509 0.932 . S
C1235 C20 1.450 . S
C1240 C543 1.504 . S
C1265 C240 1.681 . S
C1270 C2 1.690 . S
C1295 C138 1.649 1_545 S
C1300 C36 1.661 . S
C1325 C70 1.624 . S
C1330 C172 1.646 . S
C1355 C206 1.109 . S
C1360 C107 1.129 . S
C1385 C512 1.769 . S
C1390 C274 1.784 1_545 S
C1415 C308 1.664 . S
C1420 C410 1.651 . S
C1445 C342 1.617 . S
C1450 C444 1.619 . S
C1475 C376 1.903 1_455 S
C1480 C478 1.894 . S
C1505 C9 1.129 . S
C1510 C417 1.113 . S
C1535 C43 0.825 . S
C1540 C451 0.821 . S
C1565 C77 1.031 . S
C1570 C485 1.063 . S
C1595 C104 1.274 . S
C1600 C519 1.216 . S
C1625 C145 1.119 . S
C1630 C281 1.123 . S
C1655 C179 0.857 . S
C1660 C315 0.861 . S
C1685 C213 1.040 . S
C1690 C349 1.039 . S
C1715 C383 1.382 . S
C1720 C247 1.364 . S
