# Generated by pormake.
# Topology whv, (6)-cn, num edge types: 1
# Building blocks:
#     Node 0, Type 0, BuildingBlock: OJICUG_clean_sbu_0, # of connection points: 6
#     Node 1, Type 0, BuildingBlock: OJICUG_clean_sbu_0, # of connection points: 6
#     Node 2, Type 0, BuildingBlock: OJICUG_clean_sbu_0, # of connection points: 6
#     Node 3, Type 0, BuildingBlock: OJICUG_clean_sbu_0, # of connection points: 6
#     Node 4, Type 0, BuildingBlock: OJICUG_clean_sbu_0, # of connection points: 6
#     Node 5, Type 0, BuildingBlock: OJICUG_clean_sbu_0, # of connection points: 6
#     Node 6, Type 0, BuildingBlock: OJICUG_clean_sbu_0, # of connection points: 6
#     Node 7, Type 0, BuildingBlock: OJICUG_clean_sbu_0, # of connection points: 6
#     Node 8, Type 0, BuildingBlock: OJICUG_clean_sbu_0, # of connection points: 6
#     Node 9, Type 0, BuildingBlock: OJICUG_clean_sbu_0, # of connection points: 6
#     Node 10, Type 0, BuildingBlock: OJICUG_clean_sbu_0, # of connection points: 6
#     Node 11, Type 0, BuildingBlock: OJICUG_clean_sbu_0, # of connection points: 6
#     Node 12, Type 0, BuildingBlock: OJICUG_clean_sbu_0, # of connection points: 6
#     Node 13, Type 0, BuildingBlock: OJICUG_clean_sbu_0, # of connection points: 6
#     Node 14, Type 0, BuildingBlock: OJICUG_clean_sbu_0, # of connection points: 6
#     Node 15, Type 0, BuildingBlock: OJICUG_clean_sbu_0, # of connection points: 6
#     Edge 16, Type (0, 0), BuildingBlock: OJICUG_clean_linker_0, # of connection points: 2
#     Edge 17, Type (0, 0), BuildingBlock: OJICUG_clean_linker_0, # of connection points: 2
#     Edge 18, Type (0, 0), BuildingBlock: OJICUG_clean_linker_0, # of connection points: 2
#     Edge 19, Type (0, 0), BuildingBlock: OJICUG_clean_linker_0, # of connection points: 2
#     Edge 20, Type (0, 0), BuildingBlock: OJICUG_clean_linker_0, # of connection points: 2
#     Edge 21, Type (0, 0), BuildingBlock: OJICUG_clean_linker_0, # of connection points: 2
#     Edge 22, Type (0, 0), BuildingBlock: OJICUG_clean_linker_0, # of connection points: 2
#     Edge 23, Type (0, 0), BuildingBlock: OJICUG_clean_linker_0, # of connection points: 2
#     Edge 24, Type (0, 0), BuildingBlock: OJICUG_clean_linker_0, # of connection points: 2
#     Edge 25, Type (0, 0), BuildingBlock: OJICUG_clean_linker_0, # of connection points: 2
#     Edge 26, Type (0, 0), BuildingBlock: OJICUG_clean_linker_0, # of connection points: 2
#     Edge 27, Type (0, 0), BuildingBlock: OJICUG_clean_linker_0, # of connection points: 2
#     Edge 28, Type (0, 0), BuildingBlock: OJICUG_clean_linker_0, # of connection points: 2
#     Edge 29, Type (0, 0), BuildingBlock: OJICUG_clean_linker_0, # of connection points: 2
#     Edge 30, Type (0, 0), BuildingBlock: OJICUG_clean_linker_0, # of connection points: 2
#     Edge 31, Type (0, 0), BuildingBlock: OJICUG_clean_linker_0, # of connection points: 2
#     Edge 32, Type (0, 0), BuildingBlock: OJICUG_clean_linker_0, # of connection points: 2
#     Edge 33, Type (0, 0), BuildingBlock: OJICUG_clean_linker_0, # of connection points: 2
#     Edge 34, Type (0, 0), BuildingBlock: OJICUG_clean_linker_0, # of connection points: 2
#     Edge 35, Type (0, 0), BuildingBlock: OJICUG_clean_linker_0, # of connection points: 2
#     Edge 36, Type (0, 0), BuildingBlock: OJICUG_clean_linker_0, # of connection points: 2
#     Edge 37, Type (0, 0), BuildingBlock: OJICUG_clean_linker_0, # of connection points: 2
#     Edge 38, Type (0, 0), BuildingBlock: OJICUG_clean_linker_0, # of connection points: 2
#     Edge 39, Type (0, 0), BuildingBlock: OJICUG_clean_linker_0, # of connection points: 2
#     Edge 40, Type (0, 0), BuildingBlock: OJICUG_clean_linker_0, # of connection points: 2
#     Edge 41, Type (0, 0), BuildingBlock: OJICUG_clean_linker_0, # of connection points: 2
#     Edge 42, Type (0, 0), BuildingBlock: OJICUG_clean_linker_0, # of connection points: 2
#     Edge 43, Type (0, 0), BuildingBlock: OJICUG_clean_linker_0, # of connection points: 2
#     Edge 44, Type (0, 0), BuildingBlock: OJICUG_clean_linker_0, # of connection points: 2
#     Edge 45, Type (0, 0), BuildingBlock: OJICUG_clean_linker_0, # of connection points: 2
#     Edge 46, Type (0, 0), BuildingBlock: OJICUG_clean_linker_0, # of connection points: 2
#     Edge 47, Type (0, 0), BuildingBlock: OJICUG_clean_linker_0, # of connection points: 2
#     Edge 48, Type (0, 0), BuildingBlock: OJICUG_clean_linker_0, # of connection points: 2
#     Edge 49, Type (0, 0), BuildingBlock: OJICUG_clean_linker_0, # of connection points: 2
#     Edge 50, Type (0, 0), BuildingBlock: OJICUG_clean_linker_0, # of connection points: 2
#     Edge 51, Type (0, 0), BuildingBlock: OJICUG_clean_linker_0, # of connection points: 2
#     Edge 52, Type (0, 0), BuildingBlock: OJICUG_clean_linker_0, # of connection points: 2
#     Edge 53, Type (0, 0), BuildingBlock: OJICUG_clean_linker_0, # of connection points: 2
#     Edge 54, Type (0, 0), BuildingBlock: OJICUG_clean_linker_0, # of connection points: 2
#     Edge 55, Type (0, 0), BuildingBlock: OJICUG_clean_linker_0, # of connection points: 2
#     Edge 56, Type (0, 0), BuildingBlock: OJICUG_clean_linker_0, # of connection points: 2
#     Edge 57, Type (0, 0), BuildingBlock: OJICUG_clean_linker_0, # of connection points: 2
#     Edge 58, Type (0, 0), BuildingBlock: OJICUG_clean_linker_0, # of connection points: 2
#     Edge 59, Type (0, 0), BuildingBlock: OJICUG_clean_linker_0, # of connection points: 2
#     Edge 60, Type (0, 0), BuildingBlock: OJICUG_clean_linker_0, # of connection points: 2
#     Edge 61, Type (0, 0), BuildingBlock: OJICUG_clean_linker_0, # of connection points: 2
#     Edge 62, Type (0, 0), BuildingBlock: OJICUG_clean_linker_0, # of connection points: 2
#     Edge 63, Type (0, 0), BuildingBlock: OJICUG_clean_linker_0, # of connection points: 2
# Relax obj value: 0.290
# Max RMSD: 0.262
# Mean RMSD: 0.262
data_MOF--net-whv--node1-OJICUG_clean_sbu_0--edge1-OJICUG_clean_linker_0
_symmetry_space_group_name_H-M    P1
_symmetry_Int_Tables_number       1
_symmetry_cell_setting            triclinic
loop_
_symmetry_equiv_pos_as_xyz
'x, y, z'
_cell_length_a     38.58717
_cell_length_b     38.603767
_cell_length_c     20.159153
_cell_angle_alpha  90.016058
_cell_angle_beta   89.939779
_cell_angle_gamma 89.962521
loop_
_atom_site_label
_atom_site_type_symbol
_atom_site_fract_x
_atom_site_fract_y
_atom_site_fract_z
_atom_type_partial_charge
Sc0 Sc 0.26732 0.23144 0.01492 0.0
Sc1 Sc 0.32116 0.17107 0.94149 0.0
Sc2 Sc 0.34049 0.20191 0.09651 0.0
O3 O 0.30793 0.1999 0.01872 0.0
C4 C 0.33278 0.27575 0.04442 0.0
C5 C 0.29451 0.24032 0.86977 0.0
C6 C 0.39335 0.18572 0.98107 0.0
C7 C 0.24064 0.16067 0.94483 0.0
C8 C 0.26681 0.21931 0.16393 0.0
C9 C 0.33689 0.1257 0.07708 0.0
O10 O 0.29996 0.27317 0.05367 0.0
O11 O 0.30674 0.2096 0.8654 0.0
O12 O 0.38561 0.18183 0.0419 0.0
O13 O 0.23482 0.1906 0.97057 0.0
O14 O 0.29995 0.22021 0.16479 0.0
O15 O 0.33812 0.13013 0.01347 0.0
O16 O 0.25004 0.21553 0.11056 0.0
O17 O 0.27091 0.14832 0.93635 0.0
O18 O 0.32802 0.14975 0.11698 0.0
O19 O 0.28089 0.25165 0.92217 0.0
O20 O 0.35353 0.25273 0.06554 0.0
O21 O 0.3706 0.19532 0.94049 0.0
Sc22 Sc 0.5489 0.58984 0.34652 0.0
Sc23 Sc 0.58395 0.56562 0.19723 0.0
Sc24 Sc 0.51522 0.52075 0.25996 0.0
O25 O 0.55117 0.55683 0.27071 0.0
C26 C 0.52792 0.51499 0.40877 0.0
C27 C 0.62562 0.58527 0.33344 0.0
C28 C 0.58615 0.48731 0.19806 0.0
C29 C 0.56819 0.63968 0.22668 0.0
C30 C 0.47386 0.5858 0.29669 0.0
C31 C 0.51587 0.54421 0.11781 0.0
O32 O 0.52991 0.54821 0.4124 0.0
O33 O 0.62265 0.58526 0.26976 0.0
O34 O 0.55337 0.48603 0.21023 0.0
O35 O 0.56955 0.63361 0.28887 0.0
O36 O 0.47566 0.5531 0.30518 0.0
O37 O 0.54891 0.54611 0.11931 0.0
O38 O 0.49866 0.60519 0.31415 0.0
O39 O 0.56209 0.6158 0.18547 0.0
O40 O 0.49849 0.54418 0.17042 0.0
O41 O 0.60065 0.57698 0.37154 0.0
O42 O 0.52847 0.49886 0.35375 0.0
O43 O 0.60401 0.51471 0.20554 0.0
Sc44 Sc 0.16009 0.79877 0.59491 0.0
Sc45 Sc 0.1789 0.82804 0.4388 0.0
Sc46 Sc 0.23309 0.76855 0.51345 0.0
O47 O 0.19255 0.80011 0.5169 0.0
C48 C 0.23406 0.78212 0.66236 0.0
C49 C 0.16265 0.87479 0.57254 0.0
C50 C 0.25921 0.83889 0.43977 0.0
C51 C 0.10709 0.81184 0.47862 0.0
C52 C 0.16799 0.72423 0.54598 0.0
C53 C 0.20581 0.75852 0.36891 0.0
O54 O 0.2009 0.78164 0.66359 0.0
O55 O 0.16061 0.86938 0.50927 0.0
O56 O 0.26503 0.80915 0.46641 0.0
O57 O 0.11455 0.8173 0.53919 0.0
O58 O 0.20085 0.72704 0.55429 0.0
O59 O 0.19408 0.78937 0.36373 0.0
O60 O 0.14729 0.7474 0.56682 0.0
O61 O 0.13033 0.80225 0.43904 0.0
O62 O 0.21899 0.74734 0.42176 0.0
O63 O 0.1725 0.85131 0.61277 0.0
O64 O 0.25078 0.7852 0.6086 0.0
O65 O 0.22894 0.85153 0.43235 0.0
Sc66 Sc 0.98301 0.48163 0.75862 0.0
Sc67 Sc 0.912 0.44044 0.69901 0.0
Sc68 Sc 0.94839 0.41301 0.84471 0.0
O69 O 0.94617 0.44667 0.77072 0.0
C70 C 0.0237 0.41598 0.79431 0.0
C71 C 0.98003 0.46021 0.61756 0.0
C72 C 0.92744 0.36535 0.72168 0.0
C73 C 0.91202 0.51786 0.70499 0.0
C74 C 0.97126 0.48753 0.90766 0.0
C75 C 0.87141 0.41843 0.83486 0.0
O76 O 0.02255 0.44872 0.80235 0.0
O77 O 0.94691 0.46127 0.62045 0.0
O78 O 0.92732 0.37029 0.78445 0.0
O79 O 0.94533 0.51738 0.70958 0.0
O80 O 0.96805 0.45434 0.91114 0.0
O81 O 0.87374 0.41955 0.77117 0.0
O82 O 0.97135 0.50383 0.85279 0.0
O83 O 0.89362 0.49132 0.71677 0.0
O84 O 0.89686 0.42588 0.8723 0.0
O85 O 0.99742 0.45666 0.66947 0.0
O86 O 0.99826 0.3972 0.81081 0.0
O87 O 0.93191 0.38997 0.6811 0.0
Sc88 Sc 0.71574 0.77824 0.05709 0.0
Sc89 Sc 0.69891 0.86523 0.05357 0.0
Sc90 Sc 0.64002 0.80656 0.98499 0.0
O91 O 0.68463 0.8167 0.02949 0.0
C92 C 0.69862 0.75895 0.91073 0.0
C93 C 0.7675 0.84089 0.01589 0.0
C94 C 0.65465 0.87769 0.92039 0.0
C95 C 0.72788 0.81969 0.17319 0.0
C96 C 0.64289 0.74268 0.0815 0.0
C97 C 0.62279 0.86235 0.10328 0.0
O98 O 0.72006 0.76063 0.95848 0.0
O99 O 0.74279 0.85839 0.99192 0.0
O100 O 0.64673 0.84618 0.91361 0.0
O101 O 0.70752 0.79653 0.15388 0.0
O102 O 0.62626 0.76612 0.05168 0.0
O103 O 0.65418 0.87091 0.11354 0.0
O104 O 0.67571 0.74094 0.08015 0.0
O105 O 0.73049 0.84778 0.14011 0.0
O106 O 0.61321 0.84195 0.05585 0.0
O107 O 0.76173 0.81155 0.04345 0.0
O108 O 0.66765 0.77162 0.91399 0.0
O109 O 0.67101 0.88913 0.97082 0.0
Sc110 Sc 0.47711 0.4595 0.80078 0.0
Sc111 Sc 0.39007 0.44684 0.806 0.0
Sc112 Sc 0.44395 0.38673 0.72826 0.0
O113 O 0.43672 0.4309 0.77519 0.0
C114 C 0.4916 0.44531 0.65308 0.0
C115 C 0.41609 0.51513 0.77488 0.0
C116 C 0.373 0.40654 0.66943 0.0
C117 C 0.44068 0.46538 0.92553 0.0
C118 C 0.50942 0.3857 0.81896 0.0
C119 C 0.38887 0.36967 0.84761 0.0
O120 O 0.49036 0.46696 0.70067 0.0
O121 O 0.39791 0.49183 0.74821 0.0
O122 O 0.40406 0.39754 0.65969 0.0
O123 O 0.46201 0.44602 0.89697 0.0
O124 O 0.48356 0.37031 0.79467 0.0
O125 O 0.38281 0.40118 0.86157 0.0
O126 O 0.51428 0.41792 0.81094 0.0
O127 O 0.41237 0.47333 0.89592 0.0
O128 O 0.40782 0.36005 0.79803 0.0
O129 O 0.44537 0.50737 0.80075 0.0
O130 O 0.47956 0.41409 0.65753 0.0
O131 O 0.36315 0.42244 0.7219 0.0
Sc132 Sc 0.85934 0.19492 0.48349 0.0
Sc133 Sc 0.80081 0.13674 0.55532 0.0
Sc134 Sc 0.78319 0.22331 0.55453 0.0
O135 O 0.81468 0.18494 0.52831 0.0
C136 C 0.85553 0.26013 0.57712 0.0
C137 C 0.8767 0.14145 0.60515 0.0
C138 C 0.77098 0.18344 0.67192 0.0
C139 C 0.84643 0.12218 0.42431 0.0
C140 C 0.80033 0.24113 0.40743 0.0
C141 C 0.7321 0.15969 0.51522 0.0
O142 O 0.87252 0.23677 0.5477 0.0
O143 O 0.84533 0.1329 0.61601 0.0
O144 O 0.79173 0.20602 0.65178 0.0
O145 O 0.85372 0.15368 0.41468 0.0
O146 O 0.77898 0.23996 0.45547 0.0
O147 O 0.75714 0.14208 0.49263 0.0
O148 O 0.83131 0.22843 0.4107 0.0
O149 O 0.82967 0.11177 0.47508 0.0
O150 O 0.73748 0.1894 0.54173 0.0
O151 O 0.88629 0.16104 0.55651 0.0
O152 O 0.82269 0.26118 0.57645 0.0
O153 O 0.76842 0.15495 0.64024 0.0
Sc154 Sc 0.05607 0.61348 0.23172 0.0
Sc155 Sc 0.11024 0.55286 0.30583 0.0
Sc156 Sc 0.02303 0.53897 0.29838 0.0
O157 O 0.06351 0.56875 0.27667 0.0
C158 C 0.99039 0.61211 0.32052 0.0
C159 C 0.11158 0.62987 0.35004 0.0
C160 C 0.05906 0.53308 0.42583 0.0
C161 C 0.12685 0.59437 0.16999 0.0
C162 C 0.00976 0.55549 0.1521 0.0
C163 C 0.08462 0.48427 0.27424 0.0
O164 O 0.01702 0.628 0.30093 0.0
O165 O 0.11813 0.59828 0.36233 0.0
O166 O 0.03489 0.54923 0.39765 0.0
O167 O 0.0959 0.60422 0.16194 0.0
O168 O 0.01242 0.5327 0.19727 0.0
O169 O 0.10253 0.50785 0.24777 0.0
O170 O 0.02034 0.58709 0.15954 0.0
O171 O 0.13681 0.57744 0.22119 0.0
O172 O 0.05506 0.49155 0.29929 0.0
O173 O 0.09211 0.63977 0.30163 0.0
O174 O 0.98526 0.58052 0.30592 0.0
O175 O 0.08771 0.52674 0.39556 0.0
Sc176 Sc 0.76653 0.7332 0.5174 0.0
Sc177 Sc 0.82006 0.67394 0.44048 0.0
Sc178 Sc 0.84003 0.70257 0.59657 0.0
O179 O 0.8071 0.7017 0.5192 0.0
C180 C 0.8325 0.77692 0.54721 0.0
C181 C 0.79265 0.74373 0.37188 0.0
C182 C 0.89202 0.68765 0.47853 0.0
C183 C 0.73968 0.66307 0.44502 0.0
C184 C 0.76683 0.71954 0.66617 0.0
C185 C 0.83592 0.62683 0.57383 0.0
O186 O 0.79966 0.77445 0.55672 0.0
O187 O 0.80504 0.71313 0.36615 0.0
O188 O 0.88481 0.68294 0.53945 0.0
O189 O 0.73386 0.69268 0.47219 0.0
O190 O 0.79998 0.72036 0.66653 0.0
O191 O 0.83777 0.63247 0.51069 0.0
O192 O 0.74986 0.71628 0.61289 0.0
O193 O 0.76996 0.65095 0.43539 0.0
O194 O 0.8269 0.6502 0.61499 0.0
O195 O 0.77934 0.75443 0.42504 0.0
O196 O 0.8532 0.75371 0.56787 0.0
O197 O 0.86902 0.6988 0.44013 0.0
Sc198 Sc 0.04962 0.0884 0.84475 0.0
Sc199 Sc 0.08572 0.06108 0.69847 0.0
Sc200 Sc 0.01492 0.01974 0.75906 0.0
O201 O 0.05176 0.0547 0.77065 0.0
C202 C 0.02705 0.01405 0.90816 0.0
C203 C 0.12647 0.08269 0.83409 0.0
C204 C 0.0857 0.98365 0.70348 0.0
C205 C 0.07046 0.13608 0.72197 0.0
C206 C 0.97438 0.08542 0.79492 0.0
C207 C 0.01761 0.04137 0.61782 0.0
O208 O 0.02996 0.04726 0.91135 0.0
O209 O 0.12405 0.08174 0.77042 0.0
O210 O 0.05244 0.98406 0.70919 0.0
O211 O 0.0708 0.13107 0.78467 0.0
O212 O 0.9756 0.05271 0.80344 0.0
O213 O 0.05072 0.04048 0.62037 0.0
O214 O 0.99975 0.1043 0.81126 0.0
O215 O 0.06561 0.11154 0.68141 0.0
O216 O 0.00022 0.0446 0.66994 0.0
O217 O 0.10107 0.07523 0.87173 0.0
O218 O 0.02695 0.99764 0.85333 0.0
O219 O 0.10426 0.01013 0.7148 0.0
Sc220 Sc 0.65757 0.2955 0.09549 0.0
Sc221 Sc 0.67716 0.32757 0.94143 0.0
Sc222 Sc 0.73185 0.26793 0.01424 0.0
O223 O 0.69066 0.29876 0.01851 0.0
C224 C 0.73157 0.27978 0.1636 0.0
C225 C 0.65857 0.37199 0.07712 0.0
C226 C 0.75733 0.33986 0.94588 0.0
C227 C 0.60526 0.30991 0.97874 0.0
C228 C 0.66757 0.22136 0.04366 0.0
C229 C 0.70515 0.2593 0.86888 0.0
O230 O 0.69842 0.27857 0.16435 0.0
O231 O 0.65833 0.36774 0.01345 0.0
O232 O 0.76352 0.30983 0.9709 0.0
O233 O 0.6122 0.31408 0.03983 0.0
O234 O 0.70042 0.22474 0.05135 0.0
O235 O 0.69291 0.28999 0.86477 0.0
O236 O 0.64649 0.24431 0.06394 0.0
O237 O 0.62881 0.30131 0.93902 0.0
O238 O 0.71875 0.24792 0.92115 0.0
O239 O 0.66754 0.34809 0.11723 0.0
O240 O 0.74848 0.28357 0.11032 0.0
O241 O 0.72685 0.35179 0.93762 0.0
Sc242 Sc 0.4816 0.98279 0.26429 0.0
Sc243 Sc 0.42092 0.92965 0.19007 0.0
Sc244 Sc 0.4508 0.91014 0.34558 0.0
O245 O 0.44947 0.94267 0.26777 0.0
C246 C 0.5255 0.91726 0.2962 0.0
C247 C 0.49098 0.95527 0.1195 0.0
C248 C 0.43482 0.85743 0.22992 0.0
C249 C 0.41167 0.01014 0.19135 0.0
C250 C 0.46821 0.98379 0.41317 0.0
C251 C 0.37465 0.91415 0.32499 0.0
O252 O 0.52289 0.95011 0.30476 0.0
O253 O 0.46002 0.9437 0.11472 0.0
O254 O 0.43069 0.86512 0.29073 0.0
O255 O 0.4415 0.01549 0.21787 0.0
O256 O 0.46884 0.95065 0.41418 0.0
O257 O 0.37936 0.91295 0.26141 0.0
O258 O 0.46516 0.00055 0.35953 0.0
O259 O 0.39864 0.98011 0.18376 0.0
O260 O 0.39858 0.92301 0.36509 0.0
O261 O 0.50238 0.96852 0.17216 0.0
O262 O 0.50183 0.89675 0.31554 0.0
O263 O 0.44495 0.88012 0.18971 0.0
Sc264 Sc 0.21574 0.277 0.5546 0.0
Sc265 Sc 0.19804 0.36356 0.55751 0.0
Sc266 Sc 0.1397 0.3059 0.48426 0.0
O267 O 0.18425 0.31553 0.5295 0.0
C268 C 0.19849 0.25962 0.40753 0.0
C269 C 0.26666 0.34094 0.51666 0.0
C270 C 0.15303 0.37863 0.4262 0.0
C271 C 0.22803 0.31608 0.67302 0.0
C272 C 0.14321 0.24049 0.57696 0.0
C273 C 0.12215 0.35902 0.60659 0.0
O274 O 0.21999 0.26095 0.4552 0.0
O275 O 0.24161 0.3586 0.49448 0.0
O276 O 0.14608 0.34712 0.41579 0.0
O277 O 0.20742 0.29349 0.65245 0.0
O278 O 0.12629 0.26415 0.54834 0.0
O279 O 0.15354 0.36707 0.61836 0.0
O280 O 0.17605 0.23912 0.57563 0.0
O281 O 0.23041 0.34482 0.64203 0.0
O282 O 0.11267 0.33988 0.55721 0.0
O283 O 0.26139 0.31104 0.54245 0.0
O284 O 0.16749 0.2722 0.41126 0.0
O285 O 0.16924 0.38892 0.47768 0.0
Sc286 Sc 0.97684 0.96081 0.30201 0.0
Sc287 Sc 0.88956 0.94754 0.30592 0.0
Sc288 Sc 0.94405 0.88712 0.23059 0.0
O289 O 0.93657 0.93147 0.27739 0.0
C290 C 0.99117 0.94542 0.15408 0.0
C291 C 0.9157 0.01598 0.2748 0.0
C292 C 0.87317 0.90664 0.16984 0.0
C293 C 0.93919 0.96682 0.42738 0.0
C294 C 0.0095 0.88691 0.32143 0.0
C295 C 0.88846 0.8704 0.34926 0.0
O296 O 0.98988 0.96722 0.20136 0.0
O297 O 0.89775 0.99251 0.24811 0.0
O298 O 0.90415 0.89701 0.1616 0.0
O299 O 0.96278 0.94967 0.39982 0.0
O300 O 0.98395 0.87124 0.29663 0.0
O301 O 0.88163 0.90194 0.36166 0.0
O302 O 0.01396 0.91926 0.31442 0.0
O303 O 0.9111 0.97392 0.39618 0.0
O304 O 0.90818 0.8606 0.30094 0.0
O305 O 0.94503 0.00849 0.30067 0.0
O306 O 0.97933 0.91417 0.1591 0.0
O307 O 0.8631 0.92319 0.22134 0.0
Sc308 Sc 0.36015 0.69423 0.98243 0.0
Sc309 Sc 0.30142 0.63636 0.05427 0.0
Sc310 Sc 0.28425 0.72322 0.05368 0.0
O311 O 0.31546 0.68455 0.02741 0.0
C312 C 0.35706 0.75889 0.07786 0.0
C313 C 0.37729 0.64049 0.10367 0.0
C314 C 0.27159 0.683 0.17109 0.0
C315 C 0.34683 0.62181 0.92301 0.0
C316 C 0.30177 0.74131 0.90651 0.0
C317 C 0.23283 0.65967 0.01468 0.0
O318 O 0.37358 0.73546 0.04764 0.0
O319 O 0.34589 0.63223 0.11487 0.0
O320 O 0.29213 0.70584 0.15113 0.0
O321 O 0.35405 0.6533 0.91316 0.0
O322 O 0.28033 0.74019 0.95446 0.0
O323 O 0.25771 0.64192 0.99186 0.0
O324 O 0.33259 0.7283 0.90989 0.0
O325 O 0.33019 0.61141 0.97393 0.0
O326 O 0.23836 0.68953 0.04051 0.0
O327 O 0.38693 0.65995 0.05489 0.0
O328 O 0.32423 0.76068 0.07674 0.0
O329 O 0.26918 0.65454 0.13926 0.0
Sc330 Sc 0.55589 0.10876 0.73296 0.0
Sc331 Sc 0.61302 0.04827 0.80089 0.0
Sc332 Sc 0.52554 0.03367 0.80472 0.0
O333 O 0.56483 0.0639 0.77742 0.0
C334 C 0.49205 0.1074 0.8304 0.0
C335 C 0.61224 0.12427 0.85116 0.0
C336 C 0.56682 0.01988 0.92041 0.0
C337 C 0.62674 0.09258 0.66814 0.0
C338 C 0.50688 0.05166 0.65824 0.0
C339 C 0.58686 0.98058 0.76275 0.0
O340 O 0.51581 0.12338 0.80014 0.0
O341 O 0.62014 0.09267 0.86136 0.0
O342 O 0.54411 0.0409 0.90159 0.0
O343 O 0.59539 0.10122 0.66132 0.0
O344 O 0.5078 0.03018 0.70604 0.0
O345 O 0.60446 0.00507 0.73827 0.0
O346 O 0.52036 0.08225 0.66168 0.0
O347 O 0.63768 0.07582 0.71849 0.0
O348 O 0.55763 0.9868 0.79052 0.0
O349 O 0.59196 0.13434 0.8039 0.0
O350 O 0.48935 0.07465 0.82869 0.0
O351 O 0.59486 0.01682 0.88718 0.0
C352 C 0.21643 0.11944 0.86123 0.0
C353 C 0.21152 0.13981 0.91857 0.0
H354 H 0.1934 0.08565 0.78904 0.0
C355 C 0.17894 0.13996 0.94924 0.0
H356 H 0.24127 0.11902 0.83614 0.0
C357 C 0.15187 0.12001 0.92325 0.0
C358 C 0.15655 0.10024 0.86501 0.0
H359 H 0.17444 0.15533 0.99339 0.0
H360 H 0.12687 0.12105 0.94764 0.0
C361 C 0.18911 0.10027 0.83419 0.0
C362 C 0.6447 0.4357 0.08321 0.0
C363 C 0.64017 0.40191 0.10685 0.0
H364 H 0.63153 0.48933 0.09503 0.0
C365 C 0.61671 0.39616 0.15948 0.0
H366 H 0.66227 0.44079 0.04241 0.0
C367 C 0.59834 0.42362 0.18827 0.0
C368 C 0.60385 0.45755 0.16634 0.0
H369 H 0.61219 0.37019 0.17793 0.0
H370 H 0.5805 0.41843 0.22858 0.0
C371 C 0.62715 0.46334 0.11346 0.0
C372 C 0.31174 0.89607 0.32355 0.0
C373 C 0.34408 0.89682 0.35512 0.0
H374 H 0.25929 0.87773 0.32672 0.0
C375 C 0.34819 0.87841 0.41516 0.0
H376 H 0.30787 0.90959 0.27706 0.0
C377 C 0.32086 0.85938 0.44252 0.0
C378 C 0.28843 0.85904 0.41157 0.0
H379 H 0.37298 0.87783 0.4403 0.0
H380 H 0.32504 0.84514 0.48813 0.0
C381 C 0.28403 0.87784 0.3521 0.0
C382 C 0.84095 0.58149 0.66173 0.0
C383 C 0.8536 0.59639 0.60293 0.0
H384 H 0.84976 0.54512 0.74036 0.0
C385 C 0.88655 0.58647 0.57986 0.0
H386 H 0.81598 0.5892 0.68146 0.0
C387 C 0.90657 0.56245 0.61522 0.0
C388 C 0.89378 0.54738 0.67374 0.0
H389 H 0.89745 0.59824 0.53587 0.0
H390 H 0.93159 0.555 0.59572 0.0
C391 C 0.86055 0.55682 0.69608 0.0
C392 C 0.79186 0.89432 0.06752 0.0
C393 C 0.79724 0.8607 0.04184 0.0
H394 H 0.81125 0.93504 0.13005 0.0
C395 C 0.82885 0.84411 0.05371 0.0
H396 H 0.76738 0.90755 0.06031 0.0
C397 C 0.85406 0.8602 0.09247 0.0
C398 C 0.84778 0.89278 0.12192 0.0
H399 H 0.83341 0.81808 0.03553 0.0
H400 H 0.87777 0.8461 0.10254 0.0
C401 C 0.8167 0.90999 0.10816 0.0
C402 C 0.41442 0.57557 0.82013 0.0
C403 C 0.39708 0.54502 0.80285 0.0
H404 H 0.4115 0.62429 0.87059 0.0
C405 C 0.36205 0.54097 0.82165 0.0
H406 H 0.44143 0.57915 0.80716 0.0
C407 C 0.34531 0.56611 0.85986 0.0
C408 C 0.36287 0.5963 0.87808 0.0
H409 H 0.34804 0.51741 0.81019 0.0
H410 H 0.31889 0.56172 0.876 0.0
C411 C 0.39726 0.60126 0.85649 0.0
C412 C 0.64557 0.14037 0.59328 0.0
C413 C 0.65157 0.10714 0.6199 0.0
H414 H 0.66655 0.1833 0.53891 0.0
C415 C 0.68217 0.08967 0.60344 0.0
H416 H 0.62219 0.15457 0.60552 0.0
C417 C 0.70693 0.10568 0.56316 0.0
C418 C 0.70205 0.13995 0.54049 0.0
H419 H 0.68734 0.06407 0.6231 0.0
H420 H 0.73102 0.09208 0.55399 0.0
C421 C 0.67079 0.15683 0.55482 0.0
C422 C 0.1545 0.43501 0.36504 0.0
C423 C 0.13742 0.40413 0.38071 0.0
H424 H 0.15157 0.48401 0.31634 0.0
C425 C 0.10387 0.39828 0.35549 0.0
H426 H 0.18029 0.4401 0.3839 0.0
C427 C 0.08701 0.42366 0.31804 0.0
C428 C 0.10383 0.45485 0.3033 0.0
H429 H 0.08998 0.37472 0.36747 0.0
H430 H 0.06053 0.41934 0.30223 0.0
C431 C 0.13808 0.45991 0.32579 0.0
C432 C 0.68799 0.60375 0.33256 0.0
C433 C 0.65571 0.60281 0.36434 0.0
H434 H 0.73991 0.62318 0.334 0.0
C435 C 0.65123 0.62172 0.4237 0.0
H436 H 0.69211 0.58984 0.28655 0.0
C437 C 0.67823 0.64167 0.44994 0.0
C438 C 0.71056 0.64237 0.41836 0.0
H439 H 0.62641 0.62207 0.44886 0.0
H440 H 0.6739 0.65633 0.49502 0.0
C441 C 0.71526 0.62291 0.35981 0.0
C442 C 0.11943 0.92387 0.56937 0.0
C443 C 0.14543 0.90543 0.60319 0.0
H444 H 0.07887 0.96193 0.57583 0.0
C445 C 0.15099 0.91289 0.67086 0.0
H446 H 0.11466 0.91918 0.51723 0.0
C447 C 0.13062 0.93737 0.70407 0.0
C448 C 0.10357 0.95437 0.67109 0.0
H449 H 0.17087 0.89939 0.69861 0.0
H450 H 0.13598 0.94305 0.7557 0.0
C451 C 0.09844 0.94781 0.6032 0.0
C452 C 0.80855 0.40126 0.8361 0.0
C453 C 0.84132 0.40083 0.86601 0.0
H454 H 0.75625 0.38282 0.83886 0.0
C455 C 0.84615 0.38062 0.92362 0.0
H456 H 0.8041 0.41623 0.79147 0.0
C457 C 0.81909 0.36066 0.94975 0.0
C458 C 0.7863 0.36121 0.91996 0.0
H459 H 0.8713 0.37923 0.94733 0.0
H460 H 0.82378 0.34488 0.99326 0.0
C461 C 0.78122 0.38208 0.86336 0.0
C462 C 0.39168 0.07193 0.19433 0.0
C463 C 0.39186 0.03953 0.16326 0.0
H464 H 0.37331 0.1241 0.19229 0.0
C465 C 0.37297 0.03517 0.10392 0.0
H466 H 0.40598 0.07603 0.23988 0.0
C467 C 0.35475 0.06288 0.07561 0.0
C468 C 0.35413 0.09519 0.10727 0.0
H469 H 0.37296 0.01044 0.07849 0.0
H470 H 0.34115 0.05905 0.02921 0.0
C471 C 0.37265 0.0993 0.16716 0.0
C472 C 0.35362 0.36027 0.59193 0.0
C473 C 0.34734 0.39268 0.62208 0.0
H474 H 0.33284 0.31832 0.53467 0.0
C475 C 0.31604 0.40973 0.60953 0.0
H476 H 0.3775 0.34631 0.60111 0.0
C477 C 0.29102 0.39412 0.56927 0.0
C478 C 0.29644 0.36067 0.54275 0.0
H479 H 0.31061 0.43465 0.632 0.0
H480 H 0.26643 0.40726 0.56293 0.0
C481 C 0.32822 0.34421 0.55353 0.0
C482 C 0.8964 0.10212 0.35587 0.0
C483 C 0.86236 0.09672 0.37904 0.0
H484 H 0.94033 0.08052 0.30495 0.0
C485 C 0.84507 0.06617 0.36192 0.0
H486 H 0.91045 0.12542 0.36903 0.0
C487 C 0.86177 0.04115 0.32333 0.0
C488 C 0.89649 0.04569 0.30297 0.0
H489 H 0.81892 0.06142 0.37924 0.0
H490 H 0.84804 0.0173 0.31281 0.0
C491 C 0.91352 0.07658 0.31909 0.0
C492 C 0.14627 0.64086 0.09275 0.0
C493 C 0.15237 0.60823 0.12207 0.0
H494 H 0.16703 0.68285 0.03553 0.0
C495 C 0.18338 0.59089 0.10802 0.0
H496 H 0.12264 0.65507 0.10301 0.0
C497 C 0.20825 0.60643 0.06714 0.0
C498 C 0.20303 0.64008 0.04142 0.0
H499 H 0.18871 0.5658 0.12977 0.0
H500 H 0.23262 0.59304 0.05966 0.0
C501 C 0.17152 0.65682 0.05371 0.0
C502 C 0.60634 0.89561 0.84621 0.0
C503 C 0.63973 0.90197 0.87172 0.0
H504 H 0.5632 0.9157 0.79127 0.0
C505 C 0.6572 0.93216 0.85306 0.0
H506 H 0.59218 0.8725 0.86016 0.0
C507 C 0.64107 0.95618 0.81142 0.0
C508 C 0.60667 0.95099 0.78966 0.0
H509 H 0.68294 0.93754 0.87182 0.0
H510 H 0.65469 0.98002 0.80039 0.0
C511 C 0.58976 0.92013 0.80641 0.0
C512 C 0.44016 0.18289 0.8972 0.0
C513 C 0.42351 0.16803 0.95213 0.0
H514 H 0.47472 0.17531 0.81551 0.0
C515 C 0.43031 0.13329 0.96834 0.0
H516 H 0.43473 0.20943 0.88306 0.0
C517 C 0.45219 0.1133 0.92823 0.0
C518 C 0.46808 0.12794 0.87203 0.0
H519 H 0.41707 0.12101 0.00953 0.0
H520 H 0.45653 0.08638 0.94097 0.0
C521 C 0.46256 0.16319 0.85804 0.0
C522 C 0.56942 0.68652 0.14295 0.0
C523 C 0.58422 0.67092 0.19898 0.0
H524 H 0.57648 0.72146 0.06176 0.0
C525 C 0.61809 0.67987 0.21777 0.0
H526 H 0.5436 0.67936 0.12687 0.0
C527 C 0.63746 0.70289 0.17907 0.0
C528 C 0.62296 0.71776 0.12182 0.0
H529 H 0.63034 0.66741 0.25984 0.0
H530 H 0.6638 0.70887 0.19367 0.0
C531 C 0.58843 0.71011 0.10525 0.0
C532 C 0.04165 0.83266 0.34754 0.0
C533 C 0.03305 0.86689 0.36416 0.0
H534 H 0.07172 0.78788 0.3723 0.0
C535 C 0.04448 0.88062 0.4249 0.0
H536 H 0.03244 0.82123 0.30173 0.0
C537 C 0.06551 0.86086 0.46692 0.0
C538 C 0.07638 0.82765 0.44766 0.0
H539 H 0.03708 0.90655 0.43991 0.0
H540 H 0.07489 0.87227 0.51247 0.0
C541 C 0.06353 0.8134 0.38843 0.0
C542 C 0.86049 0.29955 0.67517 0.0
C543 C 0.87494 0.28566 0.6169 0.0
H544 H 0.86699 0.33476 0.75656 0.0
C545 C 0.90887 0.29493 0.59889 0.0
H546 H 0.83462 0.29231 0.69086 0.0
C547 C 0.92725 0.31918 0.63628 0.0
C548 C 0.91245 0.33372 0.69346 0.0
H549 H 0.92076 0.28434 0.55458 0.0
H550 H 0.95252 0.32758 0.61921 0.0
C551 C 0.87926 0.32315 0.71357 0.0
C552 C 0.60446 0.90798 0.18475 0.0
C553 C 0.59706 0.87692 0.1505 0.0
H554 H 0.58793 0.94518 0.25754 0.0
C555 C 0.56648 0.85914 0.16574 0.0
H556 H 0.62783 0.92246 0.17392 0.0
C557 C 0.54415 0.87178 0.21486 0.0
C558 C 0.5515 0.90286 0.24921 0.0
H559 H 0.56016 0.83511 0.1408 0.0
H560 H 0.52064 0.85737 0.22489 0.0
C561 C 0.58179 0.92098 0.23305 0.0
C562 C 0.37716 0.29145 0.95871 0.0
C563 C 0.34689 0.30033 0.99456 0.0
H564 H 0.41361 0.30567 0.88285 0.0
C565 C 0.32953 0.33099 0.97823 0.0
H566 H 0.39093 0.26759 0.96895 0.0
C567 C 0.34272 0.35276 0.92875 0.0
C568 C 0.37322 0.34408 0.89358 0.0
H569 H 0.30594 0.33825 0.00388 0.0
H570 H 0.32905 0.37665 0.9182 0.0
C571 C 0.38999 0.31291 0.90844 0.0
C572 C 0.89538 0.09562 0.68508 0.0
C573 C 0.90242 0.12713 0.65228 0.0
H574 H 0.91222 0.05782 0.75602 0.0
C575 C 0.93262 0.14531 0.66861 0.0
H576 H 0.87229 0.08088 0.67341 0.0
C577 C 0.95505 0.13243 0.71727 0.0
C578 C 0.94811 0.10075 0.74986 0.0
H579 H 0.93858 0.16972 0.64471 0.0
H580 H 0.97836 0.147 0.72809 0.0
C581 C 0.91807 0.08245 0.73284 0.0
C582 C 0.10993 0.6861 0.4125 0.0
C583 C 0.12709 0.65528 0.39655 0.0
H584 H 0.10877 0.73124 0.47341 0.0
C585 C 0.15799 0.64695 0.43059 0.0
H586 H 0.08599 0.69306 0.38783 0.0
C587 C 0.17133 0.66888 0.47973 0.0
C588 C 0.15367 0.69928 0.49695 0.0
H589 H 0.17194 0.62332 0.41922 0.0
H590 H 0.1953 0.66199 0.50432 0.0
C591 C 0.12286 0.70765 0.46248 0.0
C592 C 0.95229 0.67978 0.43636 0.0
C593 C 0.91899 0.6666 0.44677 0.0
H594 H 0.00106 0.67289 0.38747 0.0
C595 C 0.90929 0.63541 0.41593 0.0
H596 H 0.95991 0.70426 0.45817 0.0
C597 C 0.93251 0.61744 0.37559 0.0
C598 C 0.96566 0.63084 0.36369 0.0
H599 H 0.88328 0.6254 0.42119 0.0
H600 H 0.92414 0.59357 0.35234 0.0
C601 C 0.97549 0.66203 0.39508 0.0
C602 C 0.0896 0.20626 0.59917 0.0
C603 C 0.1237 0.21505 0.61672 0.0
H604 H 0.04556 0.17422 0.62007 0.0
C605 C 0.13817 0.20093 0.67468 0.0
H606 H 0.07771 0.21705 0.55511 0.0
C607 C 0.11919 0.17757 0.71328 0.0
C608 C 0.08578 0.1675 0.69366 0.0
H609 H 0.16417 0.20782 0.69001 0.0
H610 H 0.13143 0.16576 0.75604 0.0
C611 C 0.07101 0.18226 0.63676 0.0
C612 C 0.55869 0.31092 0.89461 0.0
C613 C 0.57524 0.32698 0.94839 0.0
H614 H 0.52496 0.31704 0.81116 0.0
C615 C 0.56926 0.36229 0.96064 0.0
H616 H 0.56362 0.28389 0.88342 0.0
C617 C 0.54843 0.38163 0.91762 0.0
C618 C 0.53274 0.36576 0.86254 0.0
H619 H 0.58246 0.37543 0.00083 0.0
H620 H 0.54468 0.40898 0.92733 0.0
C621 C 0.5372 0.33002 0.85265 0.0
C622 C 0.36235 0.79899 0.17551 0.0
C623 C 0.37721 0.78324 0.11932 0.0
H624 H 0.3698 0.83385 0.25728 0.0
C625 C 0.4125 0.78888 0.10568 0.0
H626 H 0.33541 0.79457 0.18804 0.0
C627 C 0.43207 0.81108 0.14531 0.0
C628 C 0.41705 0.82751 0.20035 0.0
H629 H 0.42481 0.77683 0.06321 0.0
H630 H 0.45868 0.81648 0.13151 0.0
C631 C 0.38222 0.82076 0.21605 0.0
C632 C 0.1034 0.40496 0.6863 0.0
C633 C 0.09626 0.37353 0.65328 0.0
H634 H 0.08642 0.44294 0.75689 0.0
C635 C 0.06576 0.35567 0.66887 0.0
H636 H 0.12673 0.41946 0.67519 0.0
C637 C 0.04311 0.36878 0.71704 0.0
C638 C 0.05014 0.40039 0.74983 0.0
H639 H 0.05972 0.33133 0.64476 0.0
H640 H 0.01957 0.35447 0.7273 0.0
C641 C 0.08049 0.41838 0.73353 0.0
C642 C 0.82864 0.83153 0.479 0.0
C643 C 0.84668 0.80158 0.49747 0.0
H644 H 0.82756 0.87645 0.4169 0.0
C645 C 0.87772 0.79331 0.4635 0.0
H646 H 0.80449 0.83833 0.50313 0.0
C647 C 0.89053 0.81456 0.4129 0.0
C648 C 0.87298 0.84497 0.39578 0.0
H649 H 0.89212 0.77003 0.47537 0.0
H650 H 0.91469 0.80777 0.38877 0.0
C651 C 0.84181 0.85313 0.42918 0.0
C652 C 0.43266 0.64493 0.16846 0.0
C653 C 0.40297 0.62626 0.15089 0.0
H654 H 0.47763 0.64739 0.22991 0.0
C655 C 0.39614 0.59454 0.18309 0.0
H656 H 0.4384 0.66952 0.14504 0.0
C657 C 0.41852 0.58171 0.23174 0.0
C658 C 0.44796 0.60059 0.25023 0.0
H659 H 0.37342 0.57946 0.17042 0.0
H660 H 0.41284 0.55696 0.25459 0.0
C661 C 0.45475 0.63239 0.21799 0.0
C662 C 0.65808 0.14209 0.93284 0.0
C663 C 0.62715 0.14976 0.89835 0.0
H664 H 0.69536 0.15852 0.00563 0.0
C665 C 0.60971 0.18061 0.91304 0.0
H666 H 0.67228 0.11849 0.92241 0.0
C667 C 0.62247 0.20292 0.96186 0.0
C668 C 0.6534 0.19535 0.99652 0.0
H669 H 0.58579 0.18717 0.8879 0.0
H670 H 0.60824 0.2266 0.97146 0.0
C671 C 0.67128 0.16482 0.98085 0.0
C672 C 0.26247 0.21948 0.2875 0.0
C673 C 0.24705 0.22574 0.22593 0.0
H674 H 0.25873 0.22369 0.39228 0.0
C675 C 0.21326 0.23983 0.22431 0.0
H676 H 0.28815 0.20821 0.29057 0.0
C677 C 0.19621 0.24943 0.28321 0.0
C678 C 0.21251 0.24467 0.34479 0.0
H679 H 0.2006 0.2449 0.17738 0.0
H680 H 0.17108 0.26183 0.28029 0.0
C681 C 0.24535 0.22842 0.34595 0.0
C682 C 0.49844 0.44405 0.52793 0.0
C683 C 0.50578 0.45924 0.58965 0.0
H684 H 0.49977 0.44975 0.42199 0.0
C685 C 0.52349 0.49124 0.59057 0.0
H686 H 0.48478 0.41959 0.52525 0.0
C687 C 0.53139 0.50876 0.532 0.0
C688 C 0.52245 0.4946 0.47044 0.0
H689 H 0.53016 0.50369 0.637 0.0
H690 H 0.54392 0.53382 0.53511 0.0
C691 C 0.50688 0.4615 0.46884 0.0
C692 C 0.23818 0.78191 0.78615 0.0
C693 C 0.25379 0.77582 0.72455 0.0
H694 H 0.24151 0.77728 0.89098 0.0
C695 C 0.28756 0.76167 0.72317 0.0
H696 H 0.2125 0.79317 0.78916 0.0
C697 C 0.30437 0.75187 0.78217 0.0
C698 C 0.28789 0.75644 0.84373 0.0
H699 H 0.30037 0.75667 0.67631 0.0
H700 H 0.32951 0.73945 0.77932 0.0
C701 C 0.25506 0.77272 0.84472 0.0
C702 C 0.00306 0.55744 0.02699 0.0
C703 C 0.99487 0.5426 0.08859 0.0
H704 H 0.00198 0.55161 0.92106 0.0
C705 C 0.9758 0.51137 0.08939 0.0
H706 H 0.0178 0.58127 0.02449 0.0
C707 C 0.96747 0.49407 0.03083 0.0
C708 C 0.9773 0.50775 0.96937 0.0
H709 H 0.96844 0.49931 0.13584 0.0
H710 H 0.95391 0.46956 0.03387 0.0
C711 C 0.99418 0.54023 0.96785 0.0
C712 C 0.746 0.72854 0.84878 0.0
C713 C 0.71275 0.74396 0.84803 0.0
H714 H 0.78904 0.70924 0.79281 0.0
C715 C 0.6961 0.74815 0.78665 0.0
H716 H 0.7597 0.72434 0.89494 0.0
C717 C 0.7131 0.73883 0.72755 0.0
C718 C 0.74724 0.72557 0.72864 0.0
H719 H 0.67065 0.75992 0.78399 0.0
H720 H 0.70008 0.74348 0.68083 0.0
C721 C 0.76308 0.71985 0.79006 0.0
C722 C 0.78531 0.26021 0.22417 0.0
C723 C 0.7513 0.27379 0.22571 0.0
H724 H 0.82779 0.23903 0.2802 0.0
C725 C 0.73575 0.27998 0.28725 0.0
H726 H 0.79808 0.2552 0.17727 0.0
C727 C 0.75299 0.27148 0.34576 0.0
C728 C 0.7861 0.25575 0.34466 0.0
H729 H 0.7099 0.29086 0.29027 0.0
H730 H 0.73951 0.27611 0.39208 0.0
C731 C 0.80247 0.25105 0.28309 0.0
C732 C 0.03052 0.00846 0.0316 0.0
C733 C 0.0215 0.99401 0.9703 0.0
H734 H 0.02947 0.00387 0.13672 0.0
C735 C 0.00593 0.9609 0.9694 0.0
H736 H 0.04305 0.03353 0.03424 0.0
C737 C 0.99764 0.9437 0.02885 0.0
C738 C 0.00511 0.95915 0.09028 0.0
H739 H 0.99877 0.94891 0.92282 0.0
H740 H 0.98403 0.9192 0.02667 0.0
C741 C 0.02274 0.99121 0.09053 0.0
C742 C 0.49733 0.05419 0.53373 0.0
C743 C 0.49197 0.03791 0.5952 0.0
H744 H 0.49378 0.04992 0.42774 0.0
C745 C 0.4756 0.00516 0.59577 0.0
H746 H 0.50989 0.07924 0.53119 0.0
C747 C 0.46714 0.98812 0.53694 0.0
C748 C 0.47404 0.00352 0.47552 0.0
H749 H 0.47049 0.99175 0.64195 0.0
H750 H 0.45579 0.96249 0.53963 0.0
C751 C 0.48822 0.03725 0.47447 0.0
C752 C 0.26566 0.31823 0.77345 0.0
C753 C 0.25675 0.30257 0.71357 0.0
H754 H 0.28614 0.31041 0.87033 0.0
C755 C 0.2696 0.26908 0.69924 0.0
H756 H 0.25637 0.34398 0.7854 0.0
C757 C 0.28623 0.24949 0.74797 0.0
C758 C 0.29042 0.2633 0.81149 0.0
H759 H 0.26362 0.2567 0.65237 0.0
H760 H 0.29227 0.22258 0.73796 0.0
C761 C 0.28262 0.29875 0.82202 0.0
C762 C 0.44617 0.52007 0.99447 0.0
C763 C 0.45611 0.48585 0.98012 0.0
H764 H 0.45814 0.5663 0.05 0.0
C765 C 0.48668 0.47268 0.0092 0.0
H766 H 0.42313 0.53113 0.97228 0.0
C767 C 0.50785 0.49342 0.04792 0.0
C768 C 0.49828 0.52747 0.06206 0.0
H769 H 0.49509 0.4463 6e-05 0.0
H770 H 0.53093 0.48215 0.06973 0.0
C771 C 0.46679 0.54049 0.03674 0.0
C772 C 0.21304 0.7488 0.247 0.0
C773 C 0.20992 0.73529 0.31101 0.0
H774 H 0.23459 0.7414 0.15047 0.0
C775 C 0.21838 0.70004 0.32186 0.0
H776 H 0.2064 0.77553 0.23673 0.0
C777 C 0.23504 0.68056 0.27285 0.0
C778 C 0.24291 0.69603 0.21224 0.0
H779 H 0.21557 0.68856 0.37053 0.0
H780 H 0.24494 0.65506 0.28485 0.0
C781 C 0.22934 0.72919 0.19783 0.0
C782 C 0.02562 0.53155 0.52884 0.0
C783 C 0.0472 0.5137 0.48427 0.0
H784 H 0.98606 0.52834 0.60253 0.0
C785 C 0.04606 0.47728 0.48297 0.0
H786 H 0.02557 0.55964 0.53013 0.0
C787 C 0.02259 0.45934 0.52385 0.0
C788 C 0.99927 0.47768 0.5645 0.0
H789 H 0.06172 0.46291 0.44782 0.0
H790 H 0.02247 0.43128 0.52346 0.0
C791 C 0.00187 0.5138 0.56803 0.0
C792 C 0.76272 0.82194 0.2769 0.0
C793 C 0.75641 0.80706 0.21511 0.0
H794 H 0.78051 0.81333 0.37541 0.0
C795 C 0.77089 0.77431 0.20036 0.0
H796 H 0.75198 0.84706 0.28931 0.0
C797 C 0.78667 0.75448 0.24981 0.0
C798 C 0.78838 0.76734 0.31451 0.0
H799 H 0.76669 0.76249 0.15227 0.0
H800 H 0.79412 0.72803 0.23889 0.0
C801 C 0.77886 0.80228 0.32619 0.0
C802 C 0.72963 0.23056 0.69815 0.0
C803 C 0.74219 0.19697 0.7123 0.0
H804 H 0.70751 0.27725 0.73729 0.0
C805 C 0.73311 0.18127 0.77209 0.0
H806 H 0.73572 0.24296 0.65134 0.0
C807 C 0.71633 0.20084 0.82082 0.0
C808 C 0.70902 0.2364 0.81054 0.0
H809 H 0.74215 0.15542 0.78383 0.0
H810 H 0.71251 0.18913 0.86905 0.0
C811 C 0.71326 0.25027 0.74709 0.0
C812 C 0.95001 0.02259 0.48725 0.0
C813 C 0.9516 0.98622 0.48546 0.0
H814 H 0.97093 0.06924 0.5303 0.0
C815 C 0.97545 0.96907 0.52675 0.0
H816 H 0.93248 0.03652 0.45487 0.0
C817 C 0.99897 0.9876 0.56489 0.0
C818 C 0.99859 0.02382 0.56474 0.0
H819 H 0.9775 0.94105 0.52592 0.0
H820 H 0.01691 0.97348 0.59606 0.0
C821 C 0.97296 0.04127 0.52793 0.0
C822 C 0.5691 0.98345 0.02244 0.0
C823 C 0.5536 0.99139 0.96189 0.0
H824 H 0.56113 0.96414 0.12028 0.0
C825 C 0.52023 0.97824 0.94795 0.0
H826 H 0.59475 0.99305 0.03414 0.0
C827 C 0.50053 0.96227 0.9974 0.0
C828 C 0.51415 0.95904 0.0613 0.0
H829 H 0.50794 0.98357 0.90072 0.0
H830 H 0.47369 0.95597 0.98742 0.0
C831 C 0.54955 0.96709 0.07173 0.0
loop_
_geom_bond_atom_site_label_1
_geom_bond_atom_site_label_2
_geom_bond_distance
_geom_bond_site_symmetry_2
_ccdc_geom_bond_type
Sc0 O3 2.025 . S
Sc0 O10 2.105 . S
Sc0 O13 2.105 . S
Sc0 O16 2.105 . S
Sc0 O19 2.105 1_554 S
Sc1 O3 2.025 1_556 S
Sc1 O11 2.105 . S
Sc1 O15 2.105 1_556 S
Sc1 O17 2.105 . S
Sc1 O21 2.105 . S
Sc2 O3 2.025 . S
Sc2 O12 2.105 . S
Sc2 O14 2.105 . S
Sc2 O18 2.105 . S
Sc2 O20 2.105 . S
O3 Sc0 2.025 . S
O3 Sc1 2.025 1_554 S
O3 Sc2 2.025 . S
C4 O10 1.268 . S
C4 O20 1.268 . S
C5 O11 1.268 . S
C5 O19 1.268 . S
C6 O12 1.268 1_556 S
C6 O21 1.268 . S
C7 O13 1.268 . S
C7 O17 1.268 1_554 S
C8 O14 1.268 . S
C8 O16 1.268 . S
C9 O15 1.268 . S
C9 O18 1.268 . S
O10 Sc0 2.105 . S
O10 C4 1.268 . S
O11 Sc1 2.105 . S
O11 C5 1.268 . S
O12 Sc2 2.105 . S
O12 C6 1.268 1_554 S
O13 Sc0 2.105 . S
O13 C7 1.268 . S
O14 Sc2 2.105 . S
O14 C8 1.268 . S
O15 Sc1 2.105 1_554 S
O15 C9 1.268 . S
O16 Sc0 2.105 . S
O16 C8 1.268 . S
O17 Sc1 2.105 . S
O17 C7 1.268 1_556 S
O18 Sc2 2.105 . S
O18 C9 1.268 . S
O19 Sc0 2.105 1_556 S
O19 C5 1.268 . S
O20 Sc2 2.105 . S
O20 C4 1.268 . S
O21 Sc1 2.105 . S
O21 C6 1.268 . S
Sc22 O25 2.025 . S
Sc22 O32 2.105 . S
Sc22 O35 2.105 . S
Sc22 O38 2.105 . S
Sc22 O41 2.105 . S
Sc23 O25 2.025 . S
Sc23 O33 2.105 . S
Sc23 O37 2.105 . S
Sc23 O39 2.105 . S
Sc23 O43 2.105 . S
Sc24 O25 2.025 . S
Sc24 O34 2.105 . S
Sc24 O36 2.105 . S
Sc24 O40 2.105 . S
Sc24 O42 2.105 . S
O25 Sc22 2.025 . S
O25 Sc23 2.025 . S
O25 Sc24 2.025 . S
C26 O32 1.268 . S
C26 O42 1.268 . S
C27 O33 1.268 . S
C27 O41 1.268 . S
C28 O34 1.268 . S
C28 O43 1.268 . S
C29 O35 1.268 . S
C29 O39 1.268 . S
C30 O36 1.268 . S
C30 O38 1.268 . S
C31 O37 1.268 . S
C31 O40 1.268 . S
O32 Sc22 2.105 . S
O32 C26 1.268 . S
O33 Sc23 2.105 . S
O33 C27 1.268 . S
O34 Sc24 2.105 . S
O34 C28 1.268 . S
O35 Sc22 2.105 . S
O35 C29 1.268 . S
O36 Sc24 2.105 . S
O36 C30 1.268 . S
O37 Sc23 2.105 . S
O37 C31 1.268 . S
O38 Sc22 2.105 . S
O38 C30 1.268 . S
O39 Sc23 2.105 . S
O39 C29 1.268 . S
O40 Sc24 2.105 . S
O40 C31 1.268 . S
O41 Sc22 2.105 . S
O41 C27 1.268 . S
O42 Sc24 2.105 . S
O42 C26 1.268 . S
O43 Sc23 2.105 . S
O43 C28 1.268 . S
Sc44 O47 2.025 . S
Sc44 O54 2.105 . S
Sc44 O57 2.105 . S
Sc44 O60 2.105 . S
Sc44 O63 2.105 . S
Sc45 O47 2.025 . S
Sc45 O55 2.105 . S
Sc45 O59 2.105 . S
Sc45 O61 2.105 . S
Sc45 O65 2.105 . S
Sc46 O47 2.025 . S
Sc46 O56 2.105 . S
Sc46 O58 2.105 . S
Sc46 O62 2.105 . S
Sc46 O64 2.105 . S
O47 Sc44 2.025 . S
O47 Sc45 2.025 . S
O47 Sc46 2.025 . S
C48 O54 1.268 . S
C48 O64 1.268 . S
C49 O55 1.268 . S
C49 O63 1.268 . S
C50 O56 1.268 . S
C50 O65 1.268 . S
C51 O57 1.268 . S
C51 O61 1.268 . S
C52 O58 1.268 . S
C52 O60 1.268 . S
C53 O59 1.268 . S
C53 O62 1.268 . S
O54 Sc44 2.105 . S
O54 C48 1.268 . S
O55 Sc45 2.105 . S
O55 C49 1.268 . S
O56 Sc46 2.105 . S
O56 C50 1.268 . S
O57 Sc44 2.105 . S
O57 C51 1.268 . S
O58 Sc46 2.105 . S
O58 C52 1.268 . S
O59 Sc45 2.105 . S
O59 C53 1.268 . S
O60 Sc44 2.105 . S
O60 C52 1.268 . S
O61 Sc45 2.105 . S
O61 C51 1.268 . S
O62 Sc46 2.105 . S
O62 C53 1.268 . S
O63 Sc44 2.105 . S
O63 C49 1.268 . S
O64 Sc46 2.105 . S
O64 C48 1.268 . S
O65 Sc45 2.105 . S
O65 C50 1.268 . S
Sc66 O69 2.025 . S
Sc66 O76 2.105 1_655 S
Sc66 O79 2.105 . S
Sc66 O82 2.105 . S
Sc66 O85 2.105 . S
Sc67 O69 2.025 . S
Sc67 O77 2.105 . S
Sc67 O81 2.105 . S
Sc67 O83 2.105 . S
Sc67 O87 2.105 . S
Sc68 O69 2.025 . S
Sc68 O78 2.105 . S
Sc68 O80 2.105 . S
Sc68 O84 2.105 . S
Sc68 O86 2.080 1_655 S
O69 Sc66 2.025 . S
O69 Sc67 2.025 . S
O69 Sc68 2.025 . S
C70 O76 1.268 . S
C70 O86 1.286 . S
C71 O77 1.268 . S
C71 O85 1.268 . S
C72 O78 1.268 . S
C72 O87 1.268 . S
C73 O79 1.268 . S
C73 O83 1.268 . S
C74 O80 1.268 . S
C74 O82 1.268 . S
C75 O81 1.268 . S
C75 O84 1.268 . S
O76 Sc66 2.105 1_455 S
O76 C70 1.268 . S
O77 Sc67 2.105 . S
O77 C71 1.268 . S
O78 Sc68 2.105 . S
O78 C72 1.268 . S
O79 Sc66 2.105 . S
O79 C73 1.268 . S
O80 Sc68 2.105 . S
O80 C74 1.268 . S
O81 Sc67 2.105 . S
O81 C75 1.268 . S
O82 Sc66 2.105 . S
O82 C74 1.268 . S
O83 Sc67 2.105 . S
O83 C73 1.268 . S
O84 Sc68 2.105 . S
O84 C75 1.268 . S
O85 Sc66 2.105 . S
O85 C71 1.268 . S
O86 Sc68 2.080 1_455 S
O86 C70 1.286 . S
O87 Sc67 2.105 . S
O87 C72 1.268 . S
Sc88 O91 2.025 . S
Sc88 O98 2.105 1_554 S
Sc88 O101 2.105 . S
Sc88 O104 2.105 . S
Sc88 O107 2.105 . S
Sc89 O91 2.025 . S
Sc89 O99 2.105 . S
Sc89 O103 2.105 . S
Sc89 O105 2.105 . S
Sc89 O109 2.105 . S
Sc90 O91 2.025 1_556 S
Sc90 O100 2.105 . S
Sc90 O102 2.108 . S
Sc90 O106 2.105 1_556 S
Sc90 O108 2.105 . S
O91 Sc88 2.025 . S
O91 Sc89 2.025 . S
O91 Sc90 2.025 1_554 S
C92 O98 1.268 . S
C92 O108 1.268 . S
C93 O99 1.268 . S
C93 O107 1.268 . S
C94 O100 1.268 . S
C94 O109 1.268 1_556 S
C95 O101 1.268 . S
C95 O105 1.268 . S
C96 O102 1.263 1_554 S
C96 O104 1.268 . S
C97 O103 1.268 . S
C97 O106 1.268 . S
O98 Sc88 2.105 1_556 S
O98 C92 1.268 . S
O99 Sc89 2.105 . S
O99 C93 1.268 . S
O100 Sc90 2.105 . S
O100 C94 1.268 . S
O101 Sc88 2.105 . S
O101 C95 1.268 . S
O102 Sc90 2.108 . S
O102 C96 1.263 1_556 S
O103 Sc89 2.105 . S
O103 C97 1.268 . S
O104 Sc88 2.105 . S
O104 C96 1.268 . S
O105 Sc89 2.105 . S
O105 C95 1.268 . S
O106 Sc90 2.105 1_554 S
O106 C97 1.268 . S
O107 Sc88 2.105 . S
O107 C93 1.268 . S
O108 Sc90 2.105 . S
O108 C92 1.268 . S
O109 Sc89 2.105 . S
O109 C94 1.268 1_554 S
Sc110 O113 2.025 . S
Sc110 O120 2.105 . S
Sc110 O123 2.105 . S
Sc110 O126 2.105 . S
Sc110 O129 2.105 . S
Sc111 O113 2.025 . S
Sc111 O121 2.105 . S
Sc111 O125 2.105 . S
Sc111 O127 2.105 . S
Sc111 O131 2.105 . S
Sc112 O113 2.025 . S
Sc112 O122 2.105 . S
Sc112 O124 2.105 . S
Sc112 O128 2.105 . S
Sc112 O130 2.105 . S
O113 Sc110 2.025 . S
O113 Sc111 2.025 . S
O113 Sc112 2.025 . S
C114 O120 1.268 . S
C114 O130 1.268 . S
C115 O121 1.268 . S
C115 O129 1.268 . S
C116 O122 1.268 . S
C116 O131 1.268 . S
C117 O123 1.268 . S
C117 O127 1.268 . S
C118 O124 1.268 . S
C118 O126 1.268 . S
C119 O125 1.268 . S
C119 O128 1.268 . S
O120 Sc110 2.105 . S
O120 C114 1.268 . S
O121 Sc111 2.105 . S
O121 C115 1.268 . S
O122 Sc112 2.105 . S
O122 C116 1.268 . S
O123 Sc110 2.105 . S
O123 C117 1.268 . S
O124 Sc112 2.105 . S
O124 C118 1.268 . S
O125 Sc111 2.105 . S
O125 C119 1.268 . S
O126 Sc110 2.105 . S
O126 C118 1.268 . S
O127 Sc111 2.105 . S
O127 C117 1.268 . S
O128 Sc112 2.105 . S
O128 C119 1.268 . S
O129 Sc110 2.105 . S
O129 C115 1.268 . S
O130 Sc112 2.105 . S
O130 C114 1.268 . S
O131 Sc111 2.105 . S
O131 C116 1.268 . S
Sc132 O135 2.025 . S
Sc132 O142 2.105 . S
Sc132 O145 2.105 . S
Sc132 O148 2.105 . S
Sc132 O151 2.105 . S
Sc133 O135 2.025 . S
Sc133 O143 2.105 . S
Sc133 O147 2.105 . S
Sc133 O149 2.105 . S
Sc133 O153 2.105 . S
Sc134 O135 2.025 . S
Sc134 O144 2.105 . S
Sc134 O146 2.105 . S
Sc134 O150 2.105 . S
Sc134 O152 2.105 . S
O135 Sc132 2.025 . S
O135 Sc133 2.025 . S
O135 Sc134 2.025 . S
C136 O142 1.268 . S
C136 O152 1.268 . S
C137 O143 1.268 . S
C137 O151 1.268 . S
C138 O144 1.268 . S
C138 O153 1.268 . S
C139 O145 1.268 . S
C139 O149 1.268 . S
C140 O146 1.268 . S
C140 O148 1.268 . S
C141 O147 1.268 . S
C141 O150 1.268 . S
O142 Sc132 2.105 . S
O142 C136 1.268 . S
O143 Sc133 2.105 . S
O143 C137 1.268 . S
O144 Sc134 2.105 . S
O144 C138 1.268 . S
O145 Sc132 2.105 . S
O145 C139 1.268 . S
O146 Sc134 2.105 . S
O146 C140 1.268 . S
O147 Sc133 2.105 . S
O147 C141 1.268 . S
O148 Sc132 2.105 . S
O148 C140 1.268 . S
O149 Sc133 2.105 . S
O149 C139 1.268 . S
O150 Sc134 2.105 . S
O150 C141 1.268 . S
O151 Sc132 2.105 . S
O151 C137 1.268 . S
O152 Sc134 2.105 . S
O152 C136 1.268 . S
O153 Sc133 2.105 . S
O153 C138 1.268 . S
Sc154 O157 2.025 . S
Sc154 O164 2.080 1_455 S
Sc154 O167 2.105 . S
Sc154 O170 2.105 . S
Sc154 O173 2.105 . S
Sc155 O157 2.025 . S
Sc155 O165 2.105 . S
Sc155 O169 2.105 . S
Sc155 O171 2.105 . S
Sc155 O175 2.105 . S
Sc156 O157 2.025 . S
Sc156 O166 2.105 . S
Sc156 O168 2.105 . S
Sc156 O172 2.105 . S
Sc156 O174 2.105 1_455 S
O157 Sc154 2.025 . S
O157 Sc155 2.025 . S
O157 Sc156 2.025 . S
C158 O164 1.286 . S
C158 O174 1.268 . S
C159 O165 1.268 . S
C159 O173 1.268 . S
C160 O166 1.268 . S
C160 O175 1.268 . S
C161 O167 1.268 . S
C161 O171 1.268 . S
C162 O168 1.268 . S
C162 O170 1.268 . S
C163 O169 1.268 . S
C163 O172 1.268 . S
O164 Sc154 2.080 1_655 S
O164 C158 1.286 . S
O165 Sc155 2.105 . S
O165 C159 1.268 . S
O166 Sc156 2.105 . S
O166 C160 1.268 . S
O167 Sc154 2.105 . S
O167 C161 1.268 . S
O168 Sc156 2.105 . S
O168 C162 1.268 . S
O169 Sc155 2.105 . S
O169 C163 1.268 . S
O170 Sc154 2.105 . S
O170 C162 1.268 . S
O171 Sc155 2.105 . S
O171 C161 1.268 . S
O172 Sc156 2.105 . S
O172 C163 1.268 . S
O173 Sc154 2.105 . S
O173 C159 1.268 . S
O174 Sc156 2.105 1_655 S
O174 C158 1.268 . S
O175 Sc155 2.105 . S
O175 C160 1.268 . S
Sc176 O179 2.025 . S
Sc176 O186 2.105 . S
Sc176 O189 2.105 . S
Sc176 O192 2.105 . S
Sc176 O195 2.105 . S
Sc177 O179 2.025 . S
Sc177 O187 2.105 . S
Sc177 O191 2.105 . S
Sc177 O193 2.105 . S
Sc177 O197 2.105 . S
Sc178 O179 2.025 . S
Sc178 O188 2.105 . S
Sc178 O190 2.105 . S
Sc178 O194 2.105 . S
Sc178 O196 2.105 . S
O179 Sc176 2.025 . S
O179 Sc177 2.025 . S
O179 Sc178 2.025 . S
C180 O186 1.268 . S
C180 O196 1.268 . S
C181 O187 1.268 . S
C181 O195 1.268 . S
C182 O188 1.268 . S
C182 O197 1.268 . S
C183 O189 1.268 . S
C183 O193 1.268 . S
C184 O190 1.268 . S
C184 O192 1.268 . S
C185 O191 1.268 . S
C185 O194 1.268 . S
O186 Sc176 2.105 . S
O186 C180 1.268 . S
O187 Sc177 2.105 . S
O187 C181 1.268 . S
O188 Sc178 2.105 . S
O188 C182 1.268 . S
O189 Sc176 2.105 . S
O189 C183 1.268 . S
O190 Sc178 2.105 . S
O190 C184 1.268 . S
O191 Sc177 2.105 . S
O191 C185 1.268 . S
O192 Sc176 2.105 . S
O192 C184 1.268 . S
O193 Sc177 2.105 . S
O193 C183 1.268 . S
O194 Sc178 2.105 . S
O194 C185 1.268 . S
O195 Sc176 2.105 . S
O195 C181 1.268 . S
O196 Sc178 2.105 . S
O196 C180 1.268 . S
O197 Sc177 2.105 . S
O197 C182 1.268 . S
Sc198 O201 2.025 . S
Sc198 O208 2.105 . S
Sc198 O211 2.105 . S
Sc198 O214 2.080 1_455 S
Sc198 O217 2.105 . S
Sc199 O201 2.025 . S
Sc199 O209 2.105 . S
Sc199 O213 2.105 . S
Sc199 O215 2.105 . S
Sc199 O219 2.101 1_545 S
Sc200 O201 2.025 . S
Sc200 O210 2.105 1_545 S
Sc200 O212 2.105 1_455 S
Sc200 O216 2.105 . S
Sc200 O218 2.105 . S
O201 Sc198 2.025 . S
O201 Sc199 2.025 . S
O201 Sc200 2.025 . S
C202 O208 1.268 . S
C202 O218 1.268 . S
C203 O209 1.268 . S
C203 O217 1.268 . S
C204 O210 1.268 . S
C204 O219 1.271 . S
C205 O211 1.268 . S
C205 O215 1.268 . S
C206 O212 1.268 . S
C206 O214 1.286 . S
C207 O213 1.268 . S
C207 O216 1.268 . S
O208 Sc198 2.105 . S
O208 C202 1.268 . S
O209 Sc199 2.105 . S
O209 C203 1.268 . S
O210 Sc200 2.105 1_565 S
O210 C204 1.268 . S
O211 Sc198 2.105 . S
O211 C205 1.268 . S
O212 Sc200 2.105 1_655 S
O212 C206 1.268 . S
O213 Sc199 2.105 . S
O213 C207 1.268 . S
O214 Sc198 2.080 1_655 S
O214 C206 1.286 . S
O215 Sc199 2.105 . S
O215 C205 1.268 . S
O216 Sc200 2.105 . S
O216 C207 1.268 . S
O217 Sc198 2.105 . S
O217 C203 1.268 . S
O218 Sc200 2.105 . S
O218 C202 1.268 . S
O219 Sc199 2.101 1_565 S
O219 C204 1.271 . S
Sc220 O223 2.025 . S
Sc220 O230 2.105 . S
Sc220 O233 2.105 . S
Sc220 O236 2.105 . S
Sc220 O239 2.105 . S
Sc221 O223 2.025 1_556 S
Sc221 O231 2.105 1_556 S
Sc221 O235 2.105 . S
Sc221 O237 2.105 . S
Sc221 O241 2.105 . S
Sc222 O223 2.025 . S
Sc222 O232 2.105 . S
Sc222 O234 2.105 . S
Sc222 O238 2.105 1_554 S
Sc222 O240 2.105 . S
O223 Sc220 2.025 . S
O223 Sc221 2.025 1_554 S
O223 Sc222 2.025 . S
C224 O230 1.268 . S
C224 O240 1.268 . S
C225 O231 1.268 . S
C225 O239 1.268 . S
C226 O232 1.268 . S
C226 O241 1.268 1_554 S
C227 O233 1.268 1_556 S
C227 O237 1.268 . S
C228 O234 1.268 . S
C228 O236 1.268 . S
C229 O235 1.268 . S
C229 O238 1.268 . S
O230 Sc220 2.105 . S
O230 C224 1.268 . S
O231 Sc221 2.105 1_554 S
O231 C225 1.268 . S
O232 Sc222 2.105 . S
O232 C226 1.268 . S
O233 Sc220 2.105 . S
O233 C227 1.268 1_554 S
O234 Sc222 2.105 . S
O234 C228 1.268 . S
O235 Sc221 2.105 . S
O235 C229 1.268 . S
O236 Sc220 2.105 . S
O236 C228 1.268 . S
O237 Sc221 2.105 . S
O237 C227 1.268 . S
O238 Sc222 2.105 1_556 S
O238 C229 1.268 . S
O239 Sc220 2.105 . S
O239 C225 1.268 . S
O240 Sc222 2.105 . S
O240 C224 1.268 . S
O241 Sc221 2.105 . S
O241 C226 1.268 1_556 S
Sc242 O245 2.025 . S
Sc242 O252 2.105 . S
Sc242 O255 2.105 1_565 S
Sc242 O258 2.105 . S
Sc242 O261 2.105 . S
Sc243 O245 2.025 . S
Sc243 O253 2.105 . S
Sc243 O257 2.105 . S
Sc243 O259 2.101 1_565 S
Sc243 O263 2.105 . S
Sc244 O245 2.025 . S
Sc244 O254 2.105 . S
Sc244 O256 2.105 . S
Sc244 O260 2.105 . S
Sc244 O262 2.105 . S
O245 Sc242 2.025 . S
O245 Sc243 2.025 . S
O245 Sc244 2.025 . S
C246 O252 1.268 . S
C246 O262 1.268 . S
C247 O253 1.268 . S
C247 O261 1.268 . S
C248 O254 1.268 . S
C248 O263 1.268 . S
C249 O255 1.268 . S
C249 O259 1.271 . S
C250 O256 1.268 . S
C250 O258 1.268 . S
C251 O257 1.268 . S
C251 O260 1.268 . S
O252 Sc242 2.105 . S
O252 C246 1.268 . S
O253 Sc243 2.105 . S
O253 C247 1.268 . S
O254 Sc244 2.105 . S
O254 C248 1.268 . S
O255 Sc242 2.105 1_545 S
O255 C249 1.268 . S
O256 Sc244 2.105 . S
O256 C250 1.268 . S
O257 Sc243 2.105 . S
O257 C251 1.268 . S
O258 Sc242 2.105 . S
O258 C250 1.268 . S
O259 Sc243 2.101 1_545 S
O259 C249 1.271 . S
O260 Sc244 2.105 . S
O260 C251 1.268 . S
O261 Sc242 2.105 . S
O261 C247 1.268 . S
O262 Sc244 2.105 . S
O262 C246 1.268 . S
O263 Sc243 2.105 . S
O263 C248 1.268 . S
Sc264 O267 2.025 . S
Sc264 O274 2.105 . S
Sc264 O277 2.105 . S
Sc264 O280 2.105 . S
Sc264 O283 2.105 . S
Sc265 O267 2.025 . S
Sc265 O275 2.105 . S
Sc265 O279 2.105 . S
Sc265 O281 2.105 . S
Sc265 O285 2.105 . S
Sc266 O267 2.025 . S
Sc266 O276 2.105 . S
Sc266 O278 2.105 . S
Sc266 O282 2.105 . S
Sc266 O284 2.105 . S
O267 Sc264 2.025 . S
O267 Sc265 2.025 . S
O267 Sc266 2.025 . S
C268 O274 1.268 . S
C268 O284 1.268 . S
C269 O275 1.268 . S
C269 O283 1.268 . S
C270 O276 1.268 . S
C270 O285 1.268 . S
C271 O277 1.268 . S
C271 O281 1.268 . S
C272 O278 1.268 . S
C272 O280 1.268 . S
C273 O279 1.268 . S
C273 O282 1.268 . S
O274 Sc264 2.105 . S
O274 C268 1.268 . S
O275 Sc265 2.105 . S
O275 C269 1.268 . S
O276 Sc266 2.105 . S
O276 C270 1.268 . S
O277 Sc264 2.105 . S
O277 C271 1.268 . S
O278 Sc266 2.105 . S
O278 C272 1.268 . S
O279 Sc265 2.105 . S
O279 C273 1.268 . S
O280 Sc264 2.105 . S
O280 C272 1.268 . S
O281 Sc265 2.105 . S
O281 C271 1.268 . S
O282 Sc266 2.105 . S
O282 C273 1.268 . S
O283 Sc264 2.105 . S
O283 C269 1.268 . S
O284 Sc266 2.105 . S
O284 C268 1.268 . S
O285 Sc265 2.105 . S
O285 C270 1.268 . S
Sc286 O289 2.025 . S
Sc286 O296 2.105 . S
Sc286 O299 2.105 . S
Sc286 O302 2.105 1_655 S
Sc286 O305 2.105 1_565 S
Sc287 O289 2.025 . S
Sc287 O297 2.101 1_565 S
Sc287 O301 2.105 . S
Sc287 O303 2.105 . S
Sc287 O307 2.105 . S
Sc288 O289 2.025 . S
Sc288 O298 2.105 . S
Sc288 O300 2.080 1_655 S
Sc288 O304 2.105 . S
Sc288 O306 2.105 . S
O289 Sc286 2.025 . S
O289 Sc287 2.025 . S
O289 Sc288 2.025 . S
C290 O296 1.268 . S
C290 O306 1.268 . S
C291 O297 1.271 . S
C291 O305 1.268 . S
C292 O298 1.268 . S
C292 O307 1.268 . S
C293 O299 1.268 . S
C293 O303 1.268 . S
C294 O300 1.286 . S
C294 O302 1.268 . S
C295 O301 1.268 . S
C295 O304 1.268 . S
O296 Sc286 2.105 . S
O296 C290 1.268 . S
O297 Sc287 2.101 1_545 S
O297 C291 1.271 . S
O298 Sc288 2.105 . S
O298 C292 1.268 . S
O299 Sc286 2.105 . S
O299 C293 1.268 . S
O300 Sc288 2.080 1_455 S
O300 C294 1.286 . S
O301 Sc287 2.105 . S
O301 C295 1.268 . S
O302 Sc286 2.105 1_455 S
O302 C294 1.268 . S
O303 Sc287 2.105 . S
O303 C293 1.268 . S
O304 Sc288 2.105 . S
O304 C295 1.268 . S
O305 Sc286 2.105 1_545 S
O305 C291 1.268 . S
O306 Sc288 2.105 . S
O306 C290 1.268 . S
O307 Sc287 2.105 . S
O307 C292 1.268 . S
Sc308 O311 2.025 1_556 S
Sc308 O318 2.108 . S
Sc308 O321 2.105 . S
Sc308 O324 2.105 . S
Sc308 O327 2.105 1_556 S
Sc309 O311 2.025 . S
Sc309 O319 2.105 . S
Sc309 O323 2.105 . S
Sc309 O325 2.105 . S
Sc309 O329 2.105 . S
Sc310 O311 2.025 . S
Sc310 O320 2.105 . S
Sc310 O322 2.105 1_554 S
Sc310 O326 2.105 . S
Sc310 O328 2.105 . S
O311 Sc308 2.025 1_554 S
O311 Sc309 2.025 . S
O311 Sc310 2.025 . S
C312 O318 1.263 1_554 S
C312 O328 1.268 . S
C313 O319 1.268 . S
C313 O327 1.268 . S
C314 O320 1.268 . S
C314 O329 1.268 . S
C315 O321 1.268 . S
C315 O325 1.268 1_556 S
C316 O322 1.268 . S
C316 O324 1.268 . S
C317 O323 1.268 . S
C317 O326 1.268 . S
O318 Sc308 2.108 . S
O318 C312 1.263 1_556 S
O319 Sc309 2.105 . S
O319 C313 1.268 . S
O320 Sc310 2.105 . S
O320 C314 1.268 . S
O321 Sc308 2.105 . S
O321 C315 1.268 . S
O322 Sc310 2.105 1_556 S
O322 C316 1.268 . S
O323 Sc309 2.105 . S
O323 C317 1.268 . S
O324 Sc308 2.105 . S
O324 C316 1.268 . S
O325 Sc309 2.105 . S
O325 C315 1.268 1_554 S
O326 Sc310 2.105 . S
O326 C317 1.268 . S
O327 Sc308 2.105 1_554 S
O327 C313 1.268 . S
O328 Sc310 2.105 . S
O328 C312 1.268 . S
O329 Sc309 2.105 . S
O329 C314 1.268 . S
Sc330 O333 2.025 . S
Sc330 O340 2.105 . S
Sc330 O343 2.105 . S
Sc330 O346 2.105 . S
Sc330 O349 2.105 . S
Sc331 O333 2.025 . S
Sc331 O341 2.105 . S
Sc331 O345 2.101 1_545 S
Sc331 O347 2.105 . S
Sc331 O351 2.105 . S
Sc332 O333 2.025 . S
Sc332 O342 2.105 . S
Sc332 O344 2.105 . S
Sc332 O348 2.105 1_545 S
Sc332 O350 2.105 . S
O333 Sc330 2.025 . S
O333 Sc331 2.025 . S
O333 Sc332 2.025 . S
C334 O340 1.268 . S
C334 O350 1.268 . S
C335 O341 1.268 . S
C335 O349 1.268 . S
C336 O342 1.268 . S
C336 O351 1.268 . S
C337 O343 1.268 . S
C337 O347 1.268 . S
C338 O344 1.268 . S
C338 O346 1.268 . S
C339 O345 1.271 . S
C339 O348 1.268 . S
O340 Sc330 2.105 . S
O340 C334 1.268 . S
O341 Sc331 2.105 . S
O341 C335 1.268 . S
O342 Sc332 2.105 . S
O342 C336 1.268 . S
O343 Sc330 2.105 . S
O343 C337 1.268 . S
O344 Sc332 2.105 . S
O344 C338 1.268 . S
O345 Sc331 2.101 1_565 S
O345 C339 1.271 . S
O346 Sc330 2.105 . S
O346 C338 1.268 . S
O347 Sc331 2.105 . S
O347 C337 1.268 . S
O348 Sc332 2.105 1_565 S
O348 C339 1.268 . S
O349 Sc330 2.105 . S
O349 C335 1.268 . S
O350 Sc332 2.105 . S
O350 C334 1.268 . S
O351 Sc331 2.105 . S
O351 C336 1.268 . S
C352 C353 1.387 . S
C352 H356 0.950 . S
C352 C361 1.390 . S
C353 C352 1.387 . S
C353 C355 1.387 . S
H354 C361 0.950 . S
C355 C353 1.387 . S
C355 C357 1.390 . S
C355 H359 0.950 1_556 S
H356 C352 0.950 . S
C357 C355 1.390 . S
C357 C358 1.387 . S
C357 H360 0.950 . S
C358 C357 1.387 . S
C358 C361 1.387 . S
H359 C355 0.950 1_554 S
H360 C357 0.950 . S
C361 C352 1.390 . S
C361 H354 0.950 . S
C361 C358 1.387 . S
C362 C363 1.387 . S
C362 H366 0.950 . S
C362 C371 1.390 . S
C363 C362 1.387 . S
C363 C365 1.387 . S
H364 C371 0.950 . S
C365 C363 1.387 . S
C365 C367 1.390 . S
C365 H369 0.950 . S
H366 C362 0.950 . S
C367 C365 1.390 . S
C367 C368 1.387 . S
C367 H370 0.950 . S
C368 C367 1.387 . S
C368 C371 1.387 . S
H369 C365 0.950 . S
H370 C367 0.950 . S
C371 C362 1.390 . S
C371 H364 0.950 . S
C371 C368 1.387 . S
C372 C373 1.387 . S
C372 H376 0.950 . S
C372 C381 1.390 . S
C373 C372 1.387 . S
C373 C375 1.387 . S
H374 C381 0.950 . S
C375 C373 1.387 . S
C375 C377 1.390 . S
C375 H379 0.950 . S
H376 C372 0.950 . S
C377 C375 1.390 . S
C377 C378 1.387 . S
C377 H380 0.950 . S
C378 C377 1.387 . S
C378 C381 1.387 . S
H379 C375 0.950 . S
H380 C377 0.950 . S
C381 C372 1.390 . S
C381 H374 0.950 . S
C381 C378 1.387 . S
C382 C383 1.387 . S
C382 H386 0.950 . S
C382 C391 1.390 . S
C383 C382 1.387 . S
C383 C385 1.387 . S
H384 C391 0.950 . S
C385 C383 1.387 . S
C385 C387 1.390 . S
C385 H389 0.950 . S
H386 C382 0.950 . S
C387 C385 1.390 . S
C387 C388 1.387 . S
C387 H390 0.950 . S
C388 C387 1.387 . S
C388 C391 1.387 . S
H389 C385 0.950 . S
H390 C387 0.950 . S
C391 C382 1.390 . S
C391 H384 0.950 . S
C391 C388 1.387 . S
C392 C393 1.387 . S
C392 H396 0.950 . S
C392 C401 1.390 . S
C393 C392 1.387 . S
C393 C395 1.387 . S
H394 C401 0.950 . S
C395 C393 1.387 . S
C395 C397 1.390 . S
C395 H399 0.950 . S
H396 C392 0.950 . S
C397 C395 1.390 . S
C397 C398 1.387 . S
C397 H400 0.950 . S
C398 C397 1.387 . S
C398 C401 1.387 . S
H399 C395 0.950 . S
H400 C397 0.950 . S
C401 C392 1.390 . S
C401 H394 0.950 . S
C401 C398 1.387 . S
C402 C403 1.387 . S
C402 H406 0.950 . S
C402 C411 1.390 . S
C403 C402 1.387 . S
C403 C405 1.387 . S
H404 C411 0.950 . S
C405 C403 1.387 . S
C405 C407 1.390 . S
C405 H409 0.950 . S
H406 C402 0.950 . S
C407 C405 1.390 . S
C407 C408 1.387 . S
C407 H410 0.950 . S
C408 C407 1.387 . S
C408 C411 1.387 . S
H409 C405 0.950 . S
H410 C407 0.950 . S
C411 C402 1.390 . S
C411 H404 0.950 . S
C411 C408 1.387 . S
C412 C413 1.387 . S
C412 H416 0.950 . S
C412 C421 1.390 . S
C413 C412 1.387 . S
C413 C415 1.387 . S
H414 C421 0.950 . S
C415 C413 1.387 . S
C415 C417 1.390 . S
C415 H419 0.950 . S
H416 C412 0.950 . S
C417 C415 1.390 . S
C417 C418 1.387 . S
C417 H420 0.950 . S
C418 C417 1.387 . S
C418 C421 1.387 . S
H419 C415 0.950 . S
H420 C417 0.950 . S
C421 C412 1.390 . S
C421 H414 0.950 . S
C421 C418 1.387 . S
C422 C423 1.387 . S
C422 H426 0.950 . S
C422 C431 1.390 . S
C423 C422 1.387 . S
C423 C425 1.387 . S
H424 C431 0.950 . S
C425 C423 1.387 . S
C425 C427 1.390 . S
C425 H429 0.950 . S
H426 C422 0.950 . S
C427 C425 1.390 . S
C427 C428 1.387 . S
C427 H430 0.950 . S
C428 C427 1.387 . S
C428 C431 1.387 . S
H429 C425 0.950 . S
H430 C427 0.950 . S
C431 C422 1.390 . S
C431 H424 0.950 . S
C431 C428 1.387 . S
C432 C433 1.387 . S
C432 H436 0.950 . S
C432 C441 1.390 . S
C433 C432 1.387 . S
C433 C435 1.387 . S
H434 C441 0.950 . S
C435 C433 1.387 . S
C435 C437 1.390 . S
C435 H439 0.950 . S
H436 C432 0.950 . S
C437 C435 1.390 . S
C437 C438 1.387 . S
C437 H440 0.950 . S
C438 C437 1.387 . S
C438 C441 1.387 . S
H439 C435 0.950 . S
H440 C437 0.950 . S
C441 C432 1.390 . S
C441 H434 0.950 . S
C441 C438 1.387 . S
C442 C443 1.387 . S
C442 H446 0.950 . S
C442 C451 1.390 . S
C443 C442 1.387 . S
C443 C445 1.387 . S
H444 C451 0.950 . S
C445 C443 1.387 . S
C445 C447 1.390 . S
C445 H449 0.950 . S
H446 C442 0.950 . S
C447 C445 1.390 . S
C447 C448 1.387 . S
C447 H450 0.950 . S
C448 C447 1.387 . S
C448 C451 1.387 . S
H449 C445 0.950 . S
H450 C447 0.950 . S
C451 C442 1.390 . S
C451 H444 0.950 . S
C451 C448 1.387 . S
C452 C453 1.387 . S
C452 H456 0.950 . S
C452 C461 1.390 . S
C453 C452 1.387 . S
C453 C455 1.387 . S
H454 C461 0.950 1_554 S
C455 C453 1.387 . S
C455 C457 1.390 . S
C455 H459 0.950 . S
H456 C452 0.950 . S
C457 C455 1.390 . S
C457 C458 1.387 . S
C457 H460 0.950 . S
C458 C457 1.387 . S
C458 C461 1.387 . S
H459 C455 0.950 . S
H460 C457 0.950 . S
C461 C452 1.390 . S
C461 H454 0.950 1_556 S
C461 C458 1.387 . S
C462 C463 1.387 . S
C462 H466 0.950 . S
C462 C471 1.390 . S
C463 C462 1.387 . S
C463 C465 1.387 . S
H464 C471 0.950 . S
C465 C463 1.387 . S
C465 C467 1.390 . S
C465 H469 0.950 . S
H466 C462 0.950 . S
C467 C465 1.390 . S
C467 C468 1.387 . S
C467 H470 0.950 . S
C468 C467 1.387 . S
C468 C471 1.387 . S
H469 C465 0.950 . S
H470 C467 0.950 . S
C471 C462 1.390 . S
C471 H464 0.950 . S
C471 C468 1.387 . S
C472 C473 1.387 . S
C472 H476 0.950 . S
C472 C481 1.390 . S
C473 C472 1.387 . S
C473 C475 1.387 . S
H474 C481 0.950 . S
C475 C473 1.387 . S
C475 C477 1.390 . S
C475 H479 0.950 . S
H476 C472 0.950 . S
C477 C475 1.390 . S
C477 C478 1.387 . S
C477 H480 0.950 . S
C478 C477 1.387 . S
C478 C481 1.387 . S
H479 C475 0.950 . S
H480 C477 0.950 . S
C481 C472 1.390 . S
C481 H474 0.950 . S
C481 C478 1.387 . S
C482 C483 1.387 . S
C482 H486 0.950 . S
C482 C491 1.390 . S
C483 C482 1.387 . S
C483 C485 1.387 . S
H484 C491 0.950 . S
C485 C483 1.387 . S
C485 C487 1.390 . S
C485 H489 0.950 . S
H486 C482 0.950 . S
C487 C485 1.390 . S
C487 C488 1.387 . S
C487 H490 0.950 . S
C488 C487 1.387 . S
C488 C491 1.387 . S
H489 C485 0.950 . S
H490 C487 0.950 . S
C491 C482 1.390 . S
C491 H484 0.950 . S
C491 C488 1.387 . S
C492 C493 1.387 . S
C492 H496 0.950 . S
C492 C501 1.390 . S
C493 C492 1.387 . S
C493 C495 1.387 . S
H494 C501 0.950 . S
C495 C493 1.387 . S
C495 C497 1.390 . S
C495 H499 0.950 . S
H496 C492 0.950 . S
C497 C495 1.390 . S
C497 C498 1.387 . S
C497 H500 0.950 . S
C498 C497 1.387 . S
C498 C501 1.387 . S
H499 C495 0.950 . S
H500 C497 0.950 . S
C501 C492 1.390 . S
C501 H494 0.950 . S
C501 C498 1.387 . S
C502 C503 1.387 . S
C502 H506 0.950 . S
C502 C511 1.390 . S
C503 C502 1.387 . S
C503 C505 1.387 . S
H504 C511 0.950 . S
C505 C503 1.387 . S
C505 C507 1.390 . S
C505 H509 0.950 . S
H506 C502 0.950 . S
C507 C505 1.390 . S
C507 C508 1.387 . S
C507 H510 0.950 . S
C508 C507 1.387 . S
C508 C511 1.387 . S
H509 C505 0.950 . S
H510 C507 0.950 . S
C511 C502 1.390 . S
C511 H504 0.950 . S
C511 C508 1.387 . S
C512 C513 1.387 . S
C512 H516 0.950 . S
C512 C521 1.390 . S
C513 C512 1.387 . S
C513 C515 1.387 . S
H514 C521 0.950 . S
C515 C513 1.387 . S
C515 C517 1.390 . S
C515 H519 0.950 . S
H516 C512 0.950 . S
C517 C515 1.390 . S
C517 C518 1.387 . S
C517 H520 0.950 . S
C518 C517 1.387 . S
C518 C521 1.387 . S
H519 C515 0.950 . S
H520 C517 0.950 . S
C521 C512 1.390 . S
C521 H514 0.950 . S
C521 C518 1.387 . S
C522 C523 1.387 . S
C522 H526 0.950 . S
C522 C531 1.390 . S
C523 C522 1.387 . S
C523 C525 1.387 . S
H524 C531 0.938 1_556 S
C525 C523 1.387 . S
C525 C527 1.390 . S
C525 H529 0.950 . S
H526 C522 0.950 . S
C527 C525 1.390 . S
C527 C528 1.387 . S
C527 H530 0.950 . S
C528 C527 1.387 . S
C528 C531 1.387 . S
H529 C525 0.950 . S
H530 C527 0.950 . S
C531 C522 1.390 . S
C531 H524 0.938 1_554 S
C531 C528 1.387 . S
C532 C533 1.387 . S
C532 H536 0.950 . S
C532 C541 1.390 . S
C533 C532 1.387 . S
C533 C535 1.387 . S
H534 C541 0.950 . S
C535 C533 1.387 . S
C535 C537 1.390 . S
C535 H539 0.950 . S
H536 C532 0.950 . S
C537 C535 1.390 . S
C537 C538 1.387 . S
C537 H540 0.950 . S
C538 C537 1.387 . S
C538 C541 1.387 . S
H539 C535 0.950 . S
H540 C537 0.950 . S
C541 C532 1.390 . S
C541 H534 0.950 . S
C541 C538 1.387 . S
C542 C543 1.387 . S
C542 H546 0.950 . S
C542 C551 1.390 . S
C543 C542 1.387 . S
C543 C545 1.387 . S
H544 C551 0.950 . S
C545 C543 1.387 . S
C545 C547 1.390 . S
C545 H549 0.950 . S
H546 C542 0.950 . S
C547 C545 1.390 . S
C547 C548 1.387 . S
C547 H550 0.950 . S
C548 C547 1.387 . S
C548 C551 1.387 . S
H549 C545 0.950 . S
H550 C547 0.950 . S
C551 C542 1.390 . S
C551 H544 0.950 . S
C551 C548 1.387 . S
C552 C553 1.387 . S
C552 H556 0.950 . S
C552 C561 1.390 . S
C553 C552 1.387 . S
C553 C555 1.387 . S
H554 C561 0.950 . S
C555 C553 1.387 . S
C555 C557 1.390 . S
C555 H559 0.950 . S
H556 C552 0.950 . S
C557 C555 1.390 . S
C557 C558 1.387 . S
C557 H560 0.950 . S
C558 C557 1.387 . S
C558 C561 1.387 . S
H559 C555 0.950 . S
H560 C557 0.950 . S
C561 C552 1.390 . S
C561 H554 0.950 . S
C561 C558 1.387 . S
C562 C563 1.387 . S
C562 H566 0.950 . S
C562 C571 1.390 . S
C563 C562 1.387 . S
C563 C565 1.387 . S
H564 C571 0.950 . S
C565 C563 1.387 . S
C565 C567 1.390 . S
C565 H569 0.950 1_556 S
H566 C562 0.950 . S
C567 C565 1.390 . S
C567 C568 1.387 . S
C567 H570 0.950 . S
C568 C567 1.387 . S
C568 C571 1.387 . S
H569 C565 0.950 1_554 S
H570 C567 0.950 . S
C571 C562 1.390 . S
C571 H564 0.950 . S
C571 C568 1.387 . S
C572 C573 1.387 . S
C572 H576 0.950 . S
C572 C581 1.390 . S
C573 C572 1.387 . S
C573 C575 1.387 . S
H574 C581 0.950 . S
C575 C573 1.387 . S
C575 C577 1.390 . S
C575 H579 0.950 . S
H576 C572 0.950 . S
C577 C575 1.390 . S
C577 C578 1.387 . S
C577 H580 0.950 . S
C578 C577 1.387 . S
C578 C581 1.387 . S
H579 C575 0.950 . S
H580 C577 0.950 . S
C581 C572 1.390 . S
C581 H574 0.950 . S
C581 C578 1.387 . S
C582 C583 1.387 . S
C582 H586 0.950 . S
C582 C591 1.390 . S
C583 C582 1.387 . S
C583 C585 1.387 . S
H584 C591 0.950 . S
C585 C583 1.387 . S
C585 C587 1.390 . S
C585 H589 0.950 . S
H586 C582 0.950 . S
C587 C585 1.390 . S
C587 C588 1.387 . S
C587 H590 0.950 . S
C588 C587 1.387 . S
C588 C591 1.387 . S
H589 C585 0.950 . S
H590 C587 0.950 . S
C591 C582 1.390 . S
C591 H584 0.950 . S
C591 C588 1.387 . S
C592 C593 1.387 . S
C592 H596 0.950 . S
C592 C601 1.390 . S
C593 C592 1.387 . S
C593 C595 1.387 . S
H594 C601 0.950 . S
C595 C593 1.387 . S
C595 C597 1.390 . S
C595 H599 0.950 . S
H596 C592 0.950 . S
C597 C595 1.390 . S
C597 C598 1.387 . S
C597 H600 0.950 . S
C598 C597 1.387 . S
C598 C601 1.387 . S
H599 C595 0.950 . S
H600 C597 0.950 . S
C601 C592 1.390 . S
C601 H594 0.950 . S
C601 C598 1.387 . S
C602 C603 1.387 . S
C602 H606 0.950 . S
C602 C611 1.390 . S
C603 C602 1.387 . S
C603 C605 1.387 . S
H604 C611 0.950 . S
C605 C603 1.387 . S
C605 C607 1.390 . S
C605 H609 0.950 . S
H606 C602 0.950 . S
C607 C605 1.390 . S
C607 C608 1.387 . S
C607 H610 0.950 . S
C608 C607 1.387 . S
C608 C611 1.387 . S
H609 C605 0.950 . S
H610 C607 0.950 . S
C611 C602 1.390 . S
C611 H604 0.950 . S
C611 C608 1.387 . S
C612 C613 1.387 . S
C612 H616 0.950 . S
C612 C621 1.390 . S
C613 C612 1.387 . S
C613 C615 1.387 . S
H614 C621 0.950 . S
C615 C613 1.387 . S
C615 C617 1.390 . S
C615 H619 0.950 . S
H616 C612 0.950 . S
C617 C615 1.390 . S
C617 C618 1.387 . S
C617 H620 0.950 . S
C618 C617 1.387 . S
C618 C621 1.387 . S
H619 C615 0.950 . S
H620 C617 0.950 . S
C621 C612 1.390 . S
C621 H614 0.950 . S
C621 C618 1.387 . S
C622 C623 1.387 . S
C622 H626 0.950 . S
C622 C631 1.390 . S
C623 C622 1.387 . S
C623 C625 1.387 . S
H624 C631 0.950 . S
C625 C623 1.387 . S
C625 C627 1.390 . S
C625 H629 0.950 1_554 S
H626 C622 0.950 . S
C627 C625 1.390 . S
C627 C628 1.387 . S
C627 H630 0.950 . S
C628 C627 1.387 . S
C628 C631 1.387 . S
H629 C625 0.950 1_556 S
H630 C627 0.950 . S
C631 C622 1.390 . S
C631 H624 0.950 . S
C631 C628 1.387 . S
C632 C633 1.387 . S
C632 H636 0.950 . S
C632 C641 1.390 . S
C633 C632 1.387 . S
C633 C635 1.387 . S
H634 C641 0.950 . S
C635 C633 1.387 . S
C635 C637 1.390 . S
C635 H639 0.950 . S
H636 C632 0.950 . S
C637 C635 1.390 . S
C637 C638 1.387 . S
C637 H640 0.950 . S
C638 C637 1.387 . S
C638 C641 1.387 . S
H639 C635 0.950 . S
H640 C637 0.950 . S
C641 C632 1.390 . S
C641 H634 0.950 . S
C641 C638 1.387 . S
C642 C643 1.387 . S
C642 H646 0.950 . S
C642 C651 1.390 . S
C643 C642 1.387 . S
C643 C645 1.387 . S
H644 C651 0.950 . S
C645 C643 1.387 . S
C645 C647 1.390 . S
C645 H649 0.950 . S
H646 C642 0.950 . S
C647 C645 1.390 . S
C647 C648 1.387 . S
C647 H650 0.950 . S
C648 C647 1.387 . S
C648 C651 1.387 . S
H649 C645 0.950 . S
H650 C647 0.950 . S
C651 C642 1.390 . S
C651 H644 0.950 . S
C651 C648 1.387 . S
C652 C653 1.387 . S
C652 H656 0.950 . S
C652 C661 1.390 . S
C653 C652 1.387 . S
C653 C655 1.387 . S
H654 C661 0.950 . S
C655 C653 1.387 . S
C655 C657 1.390 . S
C655 H659 0.950 . S
H656 C652 0.950 . S
C657 C655 1.390 . S
C657 C658 1.387 . S
C657 H660 0.950 . S
C658 C657 1.387 . S
C658 C661 1.387 . S
H659 C655 0.950 . S
H660 C657 0.950 . S
C661 C652 1.390 . S
C661 H654 0.950 . S
C661 C658 1.387 . S
C662 C663 1.387 . S
C662 H666 0.950 . S
C662 C671 1.390 1_556 S
C663 C662 1.387 . S
C663 C665 1.387 . S
H664 C671 0.950 . S
C665 C663 1.387 . S
C665 C667 1.390 . S
C665 H669 0.950 . S
H666 C662 0.950 . S
C667 C665 1.390 . S
C667 C668 1.387 . S
C667 H670 0.950 . S
C668 C667 1.387 . S
C668 C671 1.387 1_556 S
H669 C665 0.950 . S
H670 C667 0.950 . S
C671 C662 1.390 1_554 S
C671 H664 0.950 . S
C671 C668 1.387 1_554 S
C672 C673 1.387 . S
C672 H676 0.950 . S
C672 C681 1.390 . S
C673 C672 1.387 . S
C673 C675 1.387 . S
H674 C681 0.950 . S
C675 C673 1.387 . S
C675 C677 1.390 . S
C675 H679 0.950 . S
H676 C672 0.950 . S
C677 C675 1.390 . S
C677 C678 1.387 . S
C677 H680 0.950 . S
C678 C677 1.387 . S
C678 C681 1.387 . S
H679 C675 0.950 . S
H680 C677 0.950 . S
C681 C672 1.390 . S
C681 H674 0.950 . S
C681 C678 1.387 . S
C682 C683 1.387 . S
C682 H686 0.950 . S
C682 C691 1.390 . S
C683 C682 1.387 . S
C683 C685 1.387 . S
H684 C691 0.950 . S
C685 C683 1.387 . S
C685 C687 1.390 . S
C685 H689 0.950 . S
H686 C682 0.950 . S
C687 C685 1.390 . S
C687 C688 1.387 . S
C687 H690 0.950 . S
C688 C687 1.387 . S
C688 C691 1.387 . S
H689 C685 0.950 . S
H690 C687 0.950 . S
C691 C682 1.390 . S
C691 H684 0.950 . S
C691 C688 1.387 . S
C692 C693 1.387 . S
C692 H696 0.950 . S
C692 C701 1.390 . S
C693 C692 1.387 . S
C693 C695 1.387 . S
H694 C701 0.950 . S
C695 C693 1.387 . S
C695 C697 1.390 . S
C695 H699 0.950 . S
H696 C692 0.950 . S
C697 C695 1.390 . S
C697 C698 1.387 . S
C697 H700 0.950 . S
C698 C697 1.387 . S
C698 C701 1.387 . S
H699 C695 0.950 . S
H700 C697 0.950 . S
C701 C692 1.390 . S
C701 H694 0.950 . S
C701 C698 1.387 . S
C702 C703 1.387 1_655 S
C702 H706 0.950 . S
C702 C711 1.391 1_554 S
C703 C702 1.387 1_455 S
C703 C705 1.387 . S
H704 C711 0.950 . S
C705 C703 1.387 . S
C705 C707 1.391 . S
C705 H709 0.950 . S
H706 C702 0.950 . S
C707 C705 1.391 . S
C707 C708 1.387 1_454 S
C707 H710 0.950 . S
C708 C707 1.387 1_656 S
C708 C711 1.387 . S
H709 C705 0.950 . S
H710 C707 0.950 . S
C711 C702 1.391 1_556 S
C711 H704 0.950 . S
C711 C708 1.387 . S
C712 C713 1.387 . S
C712 H716 0.950 . S
C712 C721 1.390 . S
C713 C712 1.387 . S
C713 C715 1.387 . S
H714 C721 0.950 . S
C715 C713 1.387 . S
C715 C717 1.390 . S
C715 H719 0.950 . S
H716 C712 0.950 . S
C717 C715 1.390 . S
C717 C718 1.387 . S
C717 H720 0.950 . S
C718 C717 1.387 . S
C718 C721 1.387 . S
H719 C715 0.950 . S
H720 C717 0.950 . S
C721 C712 1.390 . S
C721 H714 0.950 . S
C721 C718 1.387 . S
C722 C723 1.387 . S
C722 H726 0.950 . S
C722 C731 1.390 . S
C723 C722 1.387 . S
C723 C725 1.387 . S
H724 C731 0.950 . S
C725 C723 1.387 . S
C725 C727 1.390 . S
C725 H729 0.950 . S
H726 C722 0.950 . S
C727 C725 1.390 . S
C727 C728 1.387 . S
C727 H730 0.950 . S
C728 C727 1.387 . S
C728 C731 1.387 . S
H729 C725 0.950 . S
H730 C727 0.950 . S
C731 C722 1.390 . S
C731 H724 0.950 . S
C731 C728 1.387 . S
C732 C733 1.387 1_554 S
C732 H736 0.950 . S
C732 C741 1.390 1_455 S
C733 C732 1.387 1_556 S
C733 C735 1.387 1_545 S
H734 C741 0.950 . S
C735 C733 1.387 1_565 S
C735 C737 1.390 1_456 S
C735 H739 0.950 . S
H736 C732 0.950 . S
C737 C735 1.390 1_654 S
C737 C738 1.387 . S
C737 H740 0.950 . S
C738 C737 1.387 . S
C738 C741 1.387 1_565 S
H739 C735 0.950 . S
H740 C737 0.950 . S
C741 C732 1.390 1_655 S
C741 H734 0.950 . S
C741 C738 1.387 1_545 S
C742 C743 1.387 . S
C742 H746 0.950 . S
C742 C751 1.390 . S
C743 C742 1.387 . S
C743 C745 1.387 1_545 S
H744 C751 0.950 . S
C745 C743 1.387 1_565 S
C745 C747 1.390 . S
C745 H749 0.950 . S
H746 C742 0.950 . S
C747 C745 1.390 . S
C747 C748 1.387 . S
C747 H750 0.950 . S
C748 C747 1.387 . S
C748 C751 1.387 1_565 S
H749 C745 0.950 . S
H750 C747 0.950 . S
C751 C742 1.390 . S
C751 H744 0.950 . S
C751 C748 1.387 1_545 S
C752 C753 1.387 . S
C752 H756 0.950 . S
C752 C761 1.390 . S
C753 C752 1.387 . S
C753 C755 1.387 . S
H754 C761 0.950 . S
C755 C753 1.387 . S
C755 C757 1.390 . S
C755 H759 0.950 . S
H756 C752 0.950 . S
C757 C755 1.390 . S
C757 C758 1.387 . S
C757 H760 0.950 . S
C758 C757 1.387 . S
C758 C761 1.387 . S
H759 C755 0.950 . S
H760 C757 0.950 . S
C761 C752 1.390 . S
C761 H754 0.950 . S
C761 C758 1.387 . S
C762 C763 1.387 . S
C762 H766 0.950 . S
C762 C771 1.390 . S
C763 C762 1.387 . S
C763 C765 1.387 1_556 S
H764 C771 0.950 . S
C765 C763 1.387 1_554 S
C765 C767 1.390 . S
C765 H769 0.950 . S
H766 C762 0.950 . S
C767 C765 1.390 . S
C767 C768 1.387 . S
C767 H770 0.950 . S
C768 C767 1.387 . S
C768 C771 1.387 1_554 S
H769 C765 0.950 . S
H770 C767 0.950 . S
C771 C762 1.390 . S
C771 H764 0.950 . S
C771 C768 1.387 1_556 S
C772 C773 1.387 . S
C772 H776 0.950 . S
C772 C781 1.390 . S
C773 C772 1.387 . S
C773 C775 1.387 . S
H774 C781 0.950 . S
C775 C773 1.387 . S
C775 C777 1.390 . S
C775 H779 0.950 . S
H776 C772 0.950 . S
C777 C775 1.390 . S
C777 C778 1.387 . S
C777 H780 0.950 . S
C778 C777 1.387 . S
C778 C781 1.387 . S
H779 C775 0.950 . S
H780 C777 0.950 . S
C781 C772 1.390 . S
C781 H774 0.950 . S
C781 C778 1.387 . S
C782 C783 1.387 . S
C782 H786 0.950 . S
C782 C791 1.390 1_455 S
C783 C782 1.387 . S
C783 C785 1.387 . S
H784 C791 0.950 . S
C785 C783 1.387 . S
C785 C787 1.390 1_455 S
C785 H789 0.950 . S
H786 C782 0.950 . S
C787 C785 1.390 1_655 S
C787 C788 1.387 . S
C787 H790 0.950 . S
C788 C787 1.387 . S
C788 C791 1.387 . S
H789 C785 0.950 . S
H790 C787 0.950 . S
C791 C782 1.390 1_655 S
C791 H784 0.950 . S
C791 C788 1.387 . S
C792 C793 1.387 . S
C792 H796 0.950 . S
C792 C801 1.390 . S
C793 C792 1.387 . S
C793 C795 1.387 . S
H794 C801 0.950 . S
C795 C793 1.387 . S
C795 C797 1.390 . S
C795 H799 0.950 . S
H796 C792 0.950 . S
C797 C795 1.390 . S
C797 C798 1.387 . S
C797 H800 0.950 . S
C798 C797 1.387 . S
C798 C801 1.387 . S
H799 C795 0.950 . S
H800 C797 0.950 . S
C801 C792 1.390 . S
C801 H794 0.950 . S
C801 C798 1.387 . S
C802 C803 1.387 . S
C802 H806 0.950 . S
C802 C811 1.390 . S
C803 C802 1.387 . S
C803 C805 1.387 . S
H804 C811 0.950 . S
C805 C803 1.387 . S
C805 C807 1.390 . S
C805 H809 0.950 . S
H806 C802 0.950 . S
C807 C805 1.390 . S
C807 C808 1.387 . S
C807 H810 0.950 . S
C808 C807 1.387 . S
C808 C811 1.387 . S
H809 C805 0.950 . S
H810 C807 0.950 . S
C811 C802 1.390 . S
C811 H804 0.950 . S
C811 C808 1.387 . S
C812 C813 1.387 1_545 S
C812 H816 0.950 . S
C812 C821 1.390 1_655 S
C813 C812 1.387 1_565 S
C813 C815 1.387 . S
H814 C821 0.950 . S
C815 C813 1.387 . S
C815 C817 1.390 1_655 S
C815 H819 0.950 . S
H816 C812 0.950 . S
C817 C815 1.390 1_455 S
C817 C818 1.387 1_565 S
C817 H820 0.950 . S
C818 C817 1.387 1_545 S
C818 C821 1.387 . S
H819 C815 0.950 . S
H820 C817 0.950 . S
C821 C812 1.390 1_455 S
C821 H814 0.950 . S
C821 C818 1.387 . S
C822 C823 1.386 1_564 S
C822 H826 0.947 1_554 S
C822 C831 1.395 . S
C823 C822 1.386 1_546 S
C823 C825 1.387 1_556 S
H824 C831 0.950 . S
C825 C823 1.387 1_554 S
C825 C827 1.390 . S
C825 H829 0.950 . S
H826 C822 0.947 1_556 S
C827 C825 1.390 . S
C827 C828 1.387 1_545 S
C827 H830 0.950 . S
C828 C827 1.387 1_565 S
C828 C831 1.387 . S
H829 C825 0.950 . S
H830 C827 0.950 . S
C831 C822 1.395 . S
C831 H824 0.950 . S
C831 C828 1.387 . S
C353 C7 1.593 1_556 S
C358 C203 1.686 . S
C363 C225 1.687 . S
C368 C28 1.588 . S
C373 C251 1.688 . S
C378 C50 1.591 . S
C383 C185 1.685 . S
C388 C73 1.589 . S
C393 C93 1.593 . S
C398 C292 1.686 . S
C403 C115 1.590 . S
C408 C315 1.688 . S
C413 C337 1.685 . S
C418 C141 1.589 . S
C423 C270 1.684 . S
C428 C163 1.590 . S
C433 C27 1.686 . S
C438 C183 1.588 . S
C443 C49 1.687 . S
C448 C204 1.592 . S
C453 C75 1.686 . S
C458 C226 1.588 1_556 S
C463 C249 1.590 . S
C468 C9 1.684 . S
C473 C116 1.688 . S
C478 C269 1.589 . S
C483 C139 1.688 . S
C488 C291 1.590 . S
C493 C161 1.688 . S
C498 C317 1.589 . S
C503 C94 1.688 . S
C508 C339 1.590 . S
C513 C6 1.554 . S
C518 C334 1.628 . S
C523 C29 1.553 . S
C528 C96 1.628 . S
C533 C294 1.628 . S
C538 C51 1.553 . S
C543 C136 1.628 . S
C548 C72 1.553 . S
C553 C97 1.553 . S
C558 C246 1.628 . S
C563 C4 1.629 1_556 S
C568 C119 1.553 . S
C573 C137 1.553 . S
C578 C206 1.628 . S
C583 C159 1.553 . S
C588 C52 1.629 . S
C593 C182 1.554 . S
C598 C158 1.628 . S
C603 C272 1.628 . S
C608 C205 1.553 . S
C613 C227 1.553 . S
C618 C118 1.628 . S
C623 C312 1.630 . S
C628 C248 1.557 . S
C633 C273 1.555 . S
C638 C70 1.628 . S
C643 C180 1.628 . S
C648 C295 1.553 . S
C653 C313 1.554 . S
C658 C30 1.629 . S
C663 C335 1.557 . S
C668 C228 1.630 1_556 S
C673 C8 1.408 . S
C678 C268 1.408 . S
C683 C114 1.406 . S
C688 C26 1.406 . S
C693 C48 1.408 . S
C698 C316 1.408 . S
C703 C162 1.406 . S
C708 C74 1.406 . S
C713 C92 1.408 . S
C718 C184 1.408 . S
C723 C224 1.407 . S
C728 C140 1.407 . S
C733 C202 1.409 . S
C738 C290 1.409 . S
C743 C338 1.406 . S
C748 C250 1.406 . S
C753 C271 1.325 . S
C758 C5 1.325 . S
C763 C117 1.327 . S
C768 C31 1.327 . S
C773 C53 1.330 . S
C778 C314 1.330 . S
C783 C160 1.328 . S
C788 C71 1.328 . S
C793 C95 1.329 . S
C798 C181 1.329 . S
C803 C138 1.330 . S
C808 C229 1.330 . S
C813 C293 1.327 . S
C818 C207 1.327 . S
C823 C336 1.326 . S
C828 C247 1.326 . S
