# Generated by pormake.
# Topology uni, (4)-cn, num edge types: 1
# Building blocks:
#     Node 0, Type 0, BuildingBlock: CEKHIL_clean_sbu_0, # of connection points: 4
#     Node 1, Type 0, BuildingBlock: CEKHIL_clean_sbu_0, # of connection points: 4
#     Node 2, Type 0, BuildingBlock: CEKHIL_clean_sbu_0, # of connection points: 4
#     Node 3, Type 0, BuildingBlock: CEKHIL_clean_sbu_0, # of connection points: 4
#     Node 4, Type 0, BuildingBlock: CEKHIL_clean_sbu_0, # of connection points: 4
#     Node 5, Type 0, BuildingBlock: CEKHIL_clean_sbu_0, # of connection points: 4
#     Edge 6, Type (0, 0), BuildingBlock: FUNLAD_clean_linker_1, # of connection points: 2
#     Edge 7, Type (0, 0), BuildingBlock: FUNLAD_clean_linker_1, # of connection points: 2
#     Edge 8, Type (0, 0), BuildingBlock: FUNLAD_clean_linker_1, # of connection points: 2
#     Edge 9, Type (0, 0), BuildingBlock: FUNLAD_clean_linker_1, # of connection points: 2
#     Edge 10, Type (0, 0), BuildingBlock: FUNLAD_clean_linker_1, # of connection points: 2
#     Edge 11, Type (0, 0), BuildingBlock: FUNLAD_clean_linker_1, # of connection points: 2
#     Edge 12, Type (0, 0), BuildingBlock: FUNLAD_clean_linker_1, # of connection points: 2
#     Edge 13, Type (0, 0), BuildingBlock: FUNLAD_clean_linker_1, # of connection points: 2
#     Edge 14, Type (0, 0), BuildingBlock: FUNLAD_clean_linker_1, # of connection points: 2
#     Edge 15, Type (0, 0), BuildingBlock: FUNLAD_clean_linker_1, # of connection points: 2
#     Edge 16, Type (0, 0), BuildingBlock: FUNLAD_clean_linker_1, # of connection points: 2
#     Edge 17, Type (0, 0), BuildingBlock: FUNLAD_clean_linker_1, # of connection points: 2
# Relax obj value: 0.073
# Max RMSD: 0.102
# Mean RMSD: 0.095
data_MOF--net-uni--node1-CEKHIL_clean_sbu_0--edge1-FUNLAD_clean_linker_1
_symmetry_space_group_name_H-M    P1
_symmetry_Int_Tables_number       1
_symmetry_cell_setting            triclinic
loop_
_symmetry_equiv_pos_as_xyz
'x, y, z'
_cell_length_a     39.609588
_cell_length_b     39.523257
_cell_length_c     24.02469
_cell_angle_alpha  89.85479
_cell_angle_beta   90.307516
_cell_angle_gamma 120.57438
loop_
_atom_site_label
_atom_site_type_symbol
_atom_site_fract_x
_atom_site_fract_y
_atom_site_fract_z
_atom_type_partial_charge
Co0 Co 0.68095 0.03905 0.09056 0.0
O1 O 0.70546 0.01805 0.13791 0.0
O2 O 0.6611 0.98397 0.07321 0.0
C3 C 0.73652 0.09575 0.06849 0.0
O4 O 0.65048 0.05095 0.03237 0.0
Co5 Co 0.68389 0.11683 0.12279 0.0
O6 O 0.65427 0.10854 0.05229 0.0
C7 C 0.6325 0.04434 0.18442 0.0
C8 C 0.6846 0.98493 0.11205 0.0
C9 C 0.64274 0.0783 0.0217 0.0
O10 O 0.63764 0.02401 0.14713 0.0
O11 O 0.65193 0.08194 0.18571 0.0
O12 O 0.72725 0.06346 0.04209 0.0
O13 O 0.71437 0.09192 0.10995 0.0
Co14 Co 0.6721 0.66649 0.23788 0.0
O15 O 0.7118 0.69146 0.29542 0.0
O16 O 0.71117 0.65109 0.23127 0.0
C17 C 0.66935 0.72035 0.21225 0.0
O18 O 0.63804 0.63572 0.17113 0.0
Co19 Co 0.59051 0.65957 0.24385 0.0
O20 O 0.58305 0.63896 0.16675 0.0
C21 C 0.60793 0.60987 0.31646 0.0
C22 C 0.72815 0.67299 0.27456 0.0
C23 C 0.60607 0.62855 0.14658 0.0
O24 O 0.63999 0.62083 0.28977 0.0
O25 O 0.58577 0.62419 0.30733 0.0
O26 O 0.69696 0.71496 0.1932 0.0
O27 O 0.64672 0.69522 0.24888 0.0
Co28 Co 0.04033 0.67336 0.40561 0.0
O29 O 1.01962 0.69519 0.35286 0.0
O30 O 0.98371 0.64856 0.41357 0.0
C31 C 0.09104 0.73156 0.4353 0.0
O32 O 0.05148 0.64452 0.46785 0.0
Co33 Co 0.12313 0.68488 0.38964 0.0
O34 O 0.11566 0.66387 0.46641 0.0
C35 C 0.05778 0.62739 0.31953 0.0
C36 C 0.98533 0.6717 0.3737 0.0
C37 C 0.08197 0.64533 0.48887 0.0
O38 O 0.03365 0.63258 0.34882 0.0
O39 O 0.09502 0.64737 0.32657 0.0
O40 O 0.05614 0.718 0.45541 0.0
O41 O 0.09359 0.71159 0.39465 0.0
Co42 Co 0.41267 0.03008 0.58445 0.0
O43 O 0.39269 0.05722 0.62841 0.0
O44 O 0.43835 0.08498 0.56373 0.0
C45 C 0.35422 0.97617 0.56326 0.0
O46 O 0.43969 0.01266 0.52886 0.0
Co47 Co 0.40135 0.94915 0.62038 0.0
O48 O 0.42954 0.95269 0.55047 0.0
C49 C 0.45838 0.02081 0.67997 0.0
C50 C 0.41676 0.0887 0.60088 0.0
C51 C 0.44383 0.98291 0.51926 0.0
O52 O 0.45496 0.04216 0.64227 0.0
O53 O 0.43647 0.98336 0.6819 0.0
O54 O 0.36639 0.00856 0.53533 0.0
O55 O 0.37543 0.97863 0.60563 0.0
Co56 Co 0.39098 0.38671 0.73215 0.0
O57 O 0.34904 0.36518 0.78647 0.0
O58 O 0.35786 0.40915 0.72229 0.0
C59 C 0.38564 0.32917 0.70556 0.0
O60 O 0.42833 0.41513 0.66783 0.0
Co61 Co 0.4662 0.38196 0.74373 0.0
O62 O 0.47956 0.40552 0.66821 0.0
C63 C 0.45648 0.4372 0.81454 0.0
C64 C 0.33727 0.38727 0.76363 0.0
C65 C 0.45989 0.41945 0.64609 0.0
O66 O 0.42581 0.42998 0.78624 0.0
O67 O 0.47504 0.41889 0.80696 0.0
O68 O 0.36217 0.34008 0.68539 0.0
O69 O 0.40917 0.35131 0.7445 0.0
Co70 Co 0.03511 0.40311 0.88709 0.0
O71 O 0.04921 0.3793 0.82804 0.0
O72 O 0.09156 0.42854 0.88104 0.0
C73 C 0.98944 0.34575 0.92636 0.0
O74 O 0.03359 0.43465 0.95342 0.0
Co75 Co 0.95223 0.39132 0.90221 0.0
O76 O 0.97211 0.41908 0.9742 0.0
C77 C 1.00346 0.44289 0.81219 0.0
C78 C 0.08549 0.40348 0.84181 0.0
C79 C 1.00876 0.4374 0.9846 0.0
O80 O 0.03287 0.44106 0.832 0.0
O81 O 0.96866 0.42275 0.8315 0.0
O82 O 0.02644 0.36029 0.93712 0.0
O83 O 0.98125 0.36463 0.88992 0.0
H84 H 0.57231 0.99948 0.20893 0.0
C85 C 0.59969 0.02416 0.224 0.0
H86 H 0.62998 0.06346 0.28904 0.0
H87 H 0.5049 0.07902 0.4171 0.0
H88 H 0.54881 0.14509 0.385 0.0
H89 H 0.60013 0.15869 0.31617 0.0
H90 H 0.60842 0.10638 0.28023 0.0
C91 C 0.60201 0.03888 0.27531 0.0
C92 C 0.56697 0.02848 0.31056 0.0
C93 C 0.56097 0.05922 0.32894 0.0
C94 C 0.53003 0.05109 0.36647 0.0
C95 C 0.52679 0.08295 0.38701 0.0
C96 C 0.55198 0.12125 0.3691 0.0
C97 C 0.58094 0.12892 0.33054 0.0
C98 C 0.58552 0.09848 0.31055 0.0
H99 H 0.48683 0.97123 0.47962 0.0
C100 C 0.46941 0.98506 0.47326 0.0
H101 H 0.45463 0.01745 0.41936 0.0
H102 H 0.57188 0.96272 0.29011 0.0
H103 H 0.52276 0.89548 0.31187 0.0
H104 H 0.46244 0.88036 0.36195 0.0
H105 H 0.4519 0.93266 0.39281 0.0
C106 C 0.47263 1.00422 0.42544 0.0
C107 C 0.50343 0.01184 0.38315 0.0
C108 C 0.50737 0.98072 0.36084 0.0
C109 C 0.54034 0.9892 0.32722 0.0
C110 C 0.54599 0.95787 0.31185 0.0
C111 C 0.51819 0.9191 0.32464 0.0
C112 C 0.48437 0.9106 0.35317 0.0
C113 C 0.47888 0.94093 0.37118 0.0
H114 H 0.61674 0.56959 0.3709 0.0
C115 C 0.59665 0.57979 0.36059 0.0
H116 H 0.54193 0.57464 0.37819 0.0
H117 H 0.47094 0.40759 0.49251 0.0
H118 H 0.44451 0.38655 0.3994 0.0
H119 H 0.46685 0.43386 0.3216 0.0
H120 H 0.51597 0.50249 0.3364 0.0
C121 C 0.56284 0.56556 0.38887 0.0
C122 C 0.552 0.53652 0.43484 0.0
C123 C 0.52302 0.49663 0.42572 0.0
C124 C 0.5098 0.46944 0.47072 0.0
C125 C 0.48144 0.42962 0.46009 0.0
C126 C 0.46618 0.41712 0.40677 0.0
C127 C 0.47878 0.44375 0.36296 0.0
C128 C 0.5069 0.48307 0.37203 0.0
H129 H 0.45588 0.4527 0.57488 0.0
C130 C 0.4743 0.44299 0.59451 0.0
H131 H 0.52958 0.44694 0.59363 0.0
H132 H 0.60794 0.61085 0.46681 0.0
H133 H 0.63479 0.63174 0.55965 0.0
H134 H 0.61212 0.58456 0.63758 0.0
H135 H 0.56235 0.51622 0.62315 0.0
C136 C 0.50991 0.45468 0.57312 0.0
C137 C 0.52522 0.48231 0.52501 0.0
C138 C 0.55504 0.52197 0.53382 0.0
C139 C 0.56829 0.54915 0.48878 0.0
C140 C 0.59713 0.58886 0.49927 0.0
C141 C 0.61273 0.60128 0.55244 0.0
C142 C 0.59996 0.57472 0.59631 0.0
C143 C 0.57141 0.53554 0.58743 0.0
H144 H 0.98219 0.46765 0.74841 0.0
C145 C 1.00856 0.46914 0.76492 0.0
H146 H 0.07031 0.49827 0.75872 0.0
H147 H 1.01048 0.53011 0.51314 0.0
H148 H 0.98484 0.46075 0.49661 0.0
H149 H 0.98723 0.41836 0.57017 0.0
H150 H 1.01517 0.44506 0.66079 0.0
C151 C 0.04319 0.49475 0.74189 0.0
C152 C 0.04502 0.52099 0.69551 0.0
C153 C 0.02897 0.50507 0.6424 0.0
C154 C 0.02808 0.52969 0.59967 0.0
C155 C 1.01186 0.51286 0.54716 0.0
C156 C 0.9971 0.47306 0.53702 0.0
C157 C 0.9984 0.44919 0.57845 0.0
C158 C 1.01426 0.46486 0.63047 0.0
H159 H 0.10588 0.626 0.55664 0.0
C160 C 0.07879 0.62258 0.53964 0.0
H161 H 1.01707 0.59075 0.54548 0.0
H162 H 0.07903 0.56121 0.79155 0.0
H163 H 0.10487 0.63067 0.80818 0.0
H164 H 0.10232 0.6731 0.7348 0.0
H165 H 0.07405 0.64641 0.64428 0.0
C166 C 0.04469 0.59629 0.56333 0.0
C167 C 0.04392 0.57042 0.60955 0.0
C168 C 0.0602 0.58638 0.66258 0.0
C169 C 0.06111 0.56174 0.7053 0.0
C170 C 0.07753 0.57853 0.75771 0.0
C171 C 0.09243 0.61835 0.76784 0.0
C172 C 0.09105 0.64225 0.7265 0.0
C173 C 0.075 0.62659 0.67454 0.0
H174 H 0.59521 0.08278 0.98164 0.0
C175 C 0.61634 0.0734 0.97495 0.0
H176 H 0.63961 0.0502 0.9185 0.0
H177 H 0.49306 0.95933 0.76146 0.0
H178 H 0.50828 0.90947 0.78789 0.0
H179 H 0.55928 0.92325 0.85816 0.0
H180 H 0.59593 0.98715 0.90142 0.0
C181 C 0.61794 0.05887 0.92514 0.0
C182 C 0.58858 0.05148 0.88006 0.0
C183 C 0.56649 0.0134 0.85636 0.0
C184 C 0.53584 1.00492 0.81757 0.0
C185 C 0.51559 0.96711 0.79272 0.0
C186 C 0.52418 0.93818 0.80722 0.0
C187 C 0.55296 0.94597 0.84664 0.0
C188 C 0.5739 0.98299 0.87109 0.0
H189 H 0.51797 0.06625 0.70729 0.0
C190 C 0.49151 0.03955 0.7199 0.0
H191 H 0.46361 0.99557 0.78049 0.0
H192 H 0.63266 0.13036 0.90233 0.0
H193 H 0.61572 0.17978 0.87958 0.0
H194 H 0.55548 0.16219 0.82649 0.0
H195 H 0.51295 0.09568 0.79368 0.0
C196 C 0.49043 0.02229 0.76886 0.0
C197 C 0.52583 0.03384 0.80443 0.0
C198 C 0.54846 0.07219 0.82719 0.0
C199 C 0.58116 0.08151 0.86241 0.0
C200 C 0.60585 0.12104 0.87919 0.0
C201 C 0.59671 0.14979 0.86587 0.0
C202 C 0.56295 0.13994 0.83567 0.0
C203 C 0.53896 0.10165 0.81655 0.0
H204 H 0.61196 0.59207 0.08204 0.0
C205 C 0.59437 0.60459 0.09504 0.0
H206 H 0.54341 0.6075 0.07965 0.0
H207 H 0.5657 0.53039 0.8442 0.0
H208 H 0.62739 0.59153 0.833 0.0
H209 H 0.65204 0.64241 0.9061 0.0
H210 H 0.61538 0.63233 0.99105 0.0
C211 C 0.56168 0.59591 0.06608 0.0
C212 C 0.5464 0.56635 0.01999 0.0
C213 C 0.56785 0.57305 0.96998 0.0
C214 C 0.55321 0.54398 0.92725 0.0
C215 C 0.57543 0.55136 0.87802 0.0
C216 C 0.61084 0.5864 0.87094 0.0
C217 C 0.62474 0.61503 0.91213 0.0
C218 C 0.60353 0.6087 0.96097 0.0
H219 H 0.45426 0.4829 0.86492 0.0
C220 C 0.47064 0.46805 0.85807 0.0
H221 H 0.51989 0.46403 0.88216 0.0
H222 H 0.49724 0.54422 0.10985 0.0
H223 H 0.43535 0.48346 0.12044 0.0
H224 H 0.41029 0.43306 0.04671 0.0
H225 H 0.44688 0.44322 0.96185 0.0
C226 C 0.50252 0.47774 0.88969 0.0
C227 C 0.51668 0.50865 0.93379 0.0
C228 C 0.49494 0.50218 0.98344 0.0
C229 C 0.50967 0.53113 0.02631 0.0
C230 C 0.48746 0.52357 0.07565 0.0
C231 C 0.45188 0.48867 0.08246 0.0
C232 C 0.43776 0.46031 0.04094 0.0
C233 C 0.459 0.46669 0.99215 0.0
H234 H 0.05558 0.48054 0.0401 0.0
C235 C 0.02412 0.4647 0.03261 0.0
H236 H 0.96941 0.45598 0.05912 0.0
H237 H 0.02799 0.5239 0.30178 0.0
H238 H 0.98818 0.45428 0.3217 0.0
H239 H 0.96115 0.40564 0.24562 0.0
H240 H 0.97401 0.42636 0.14909 0.0
C241 C 1.00101 0.47211 0.06512 0.0
C242 C 1.0174 0.5018 0.1109 0.0
C243 C 1.00901 0.48936 0.16713 0.0
C244 C 0.02417 0.5175 0.21105 0.0
C245 C 1.01647 0.50399 0.26678 0.0
C246 C 0.99383 0.46404 0.27882 0.0
C247 C 0.97864 0.43666 0.236 0.0
C248 C 0.98616 0.44896 0.18075 0.0
H249 H 1.00973 0.58049 0.26947 0.0
C250 C 0.0413 0.59661 0.27587 0.0
H251 H 0.09562 0.60462 0.24897 0.0
H252 H 0.03603 0.53628 0.00771 0.0
H253 H 0.07584 0.60582 0.98786 0.0
H254 H 0.10321 0.65441 0.06395 0.0
H255 H 0.0906 0.63368 0.1604 0.0
C256 C 0.06392 0.58803 0.2442 0.0
C257 C 0.04722 0.55819 0.19866 0.0
C258 C 0.05554 0.57063 0.14242 0.0
C259 C 0.0403 0.54252 0.09851 0.0
C260 C 0.04775 0.5561 0.04277 0.0
C261 C 0.07037 0.59604 0.03073 0.0
C262 C 0.08574 0.62339 0.07356 0.0
C263 C 0.07837 0.61105 0.12879 0.0
H264 H 0.63505 0.74981 0.20379 0.0
C265 C 0.66296 0.75239 0.19357 0.0
H266 H 0.7187 0.78804 0.15805 0.0
H267 H 0.68295 0.898 0.01095 0.0
H268 H 0.70024 0.86497 0.94176 0.0
H269 H 0.7094 0.80977 0.96791 0.0
H270 H 0.7018 0.78754 0.06352 0.0
C271 C 0.69078 0.78532 0.16858 0.0
C272 C 0.68409 0.81833 0.15303 0.0
C273 C 0.68777 0.83055 0.09663 0.0
C274 C 0.68158 0.8619 0.08127 0.0
C275 C 0.68661 0.87401 0.02487 0.0
C276 C 0.69662 0.85534 0.98467 0.0
C277 C 0.70184 0.82431 0.99941 0.0
C278 C 0.69747 0.81191 0.05458 0.0
H279 H 0.71054 0.95524 0.15781 0.0
C280 C 0.68833 0.95059 0.12709 0.0
H281 H 0.64389 0.9095 0.07387 0.0
H282 H 0.68191 0.80845 0.2665 0.0
H283 H 0.66029 0.83833 0.33455 0.0
H284 H 0.64053 0.88577 0.30589 0.0
H285 H 0.64371 0.90464 0.20922 0.0
C286 C 0.66554 0.91438 0.10563 0.0
C287 C 0.67092 0.8807 0.12202 0.0
C288 C 0.66609 0.8677 0.17817 0.0
C289 C 0.67438 0.83786 0.19407 0.0
C290 C 0.67328 0.82872 0.25134 0.0
C291 C 0.66135 0.84603 0.29106 0.0
C292 C 0.65046 0.87291 0.27498 0.0
C293 C 0.65278 0.88375 0.21933 0.0
H294 H 0.95416 0.68883 0.31427 0.0
C295 C 0.95051 0.67225 0.35218 0.0
H296 H 0.91145 0.63789 0.41571 0.0
H297 H 0.83467 0.73541 0.28585 0.0
H298 H 0.89225 0.79483 0.31802 0.0
H299 H 0.94427 0.79178 0.37064 0.0
H300 H 0.93953 0.7293 0.38976 0.0
C301 C 0.91563 0.65494 0.37815 0.0
C302 C 0.88132 0.65674 0.35481 0.0
C303 C 0.88317 0.69334 0.34731 0.0
C304 C 0.85172 0.6949 0.32055 0.0
C305 C 0.85631 0.73218 0.30899 0.0
C306 C 0.88947 0.76664 0.32677 0.0
C307 C 0.91886 0.76494 0.35612 0.0
C308 C 0.91592 0.72885 0.36636 0.0
H309 H 0.77273 0.68989 0.34108 0.0
C310 C 0.76337 0.67558 0.30077 0.0
H311 H 0.77349 0.64535 0.23708 0.0
H312 H 0.8673 0.58162 0.36401 0.0
H313 H 0.80759 0.52177 0.33848 0.0
H314 H 0.75118 0.52404 0.29902 0.0
H315 H 0.75426 0.58615 0.28419 0.0
C316 C 0.78344 0.66034 0.27687 0.0
C317 C 0.81696 0.6596 0.30517 0.0
C318 C 0.81445 0.62292 0.31508 0.0
C319 C 0.84669 0.62152 0.33926 0.0
C320 C 0.84357 0.58446 0.3468 0.0
C321 C 0.80945 0.54981 0.33223 0.0
C322 C 0.77773 0.55109 0.30991 0.0
C323 C 0.77999 0.58705 0.3014 0.0
H324 H 0.11842 0.78716 0.4822 0.0
C325 C 0.1247 0.76869 0.45597 0.0
H326 H 0.16836 0.76198 0.41685 0.0
H327 H 0.30309 0.93814 0.40547 0.0
H328 H 0.29148 0.91926 0.30837 0.0
H329 H 0.23544 0.85522 0.27988 0.0
H330 H 0.19103 0.80941 0.34834 0.0
C331 C 0.16216 0.78028 0.44358 0.0
C332 C 0.19568 0.81942 0.46161 0.0
C333 C 0.22092 0.84649 0.42087 0.0
C334 C 0.25263 0.88403 0.43718 0.0
C335 C 0.27805 0.90968 0.39556 0.0
C336 C 0.27181 0.89919 0.33955 0.0
C337 C 0.24031 0.86311 0.32352 0.0
C338 C 0.21508 0.83699 0.36343 0.0
H339 H 0.31759 0.91169 0.56524 0.0
C340 C 0.32031 0.93797 0.54633 0.0
H341 H 0.29519 0.96069 0.49129 0.0
H342 H 0.15881 0.77255 0.55199 0.0
H343 H 0.16699 0.79318 0.64837 0.0
H344 H 0.21474 0.86158 0.67486 0.0
H345 H 0.25567 0.9092 0.6054 0.0
C346 C 0.29243 0.93453 0.51068 0.0
C347 C 0.25856 0.89517 0.49413 0.0
C348 C 0.23249 0.86858 0.53472 0.0
C349 C 0.20243 0.83009 0.5188 0.0
C350 C 0.18001 0.80292 0.56107 0.0
C351 C 0.18471 0.81426 0.61673 0.0
C352 C 0.21176 0.85268 0.63169 0.0
C353 C 0.23541 0.87963 0.59138 0.0
H354 H 0.35958 0.273 0.65973 0.0
C355 C 0.38411 0.29287 0.68607 0.0
H356 H 0.4356 0.3032 0.72711 0.0
H357 H 0.40062 0.13033 0.7479 0.0
H358 H 0.40411 0.14977 0.84418 0.0
H359 H 0.40827 0.21233 0.86869 0.0
H360 H 0.40949 0.25608 0.79708 0.0
C361 C 0.4114 0.28358 0.7001 0.0
C362 C 0.40773 0.24511 0.68425 0.0
C363 C 0.40614 0.21924 0.72668 0.0
C364 C 0.40257 0.18252 0.71256 0.0
C365 C 0.40232 0.15807 0.75603 0.0
C366 C 0.40446 0.16892 0.8116 0.0
C367 C 0.40689 0.20417 0.82539 0.0
C368 C 0.4077 0.22911 0.7837 0.0
H369 H 0.44525 0.15325 0.59334 0.0
C370 C 0.42048 0.1274 0.61157 0.0
H371 H 0.36999 0.10572 0.66119 0.0
H372 H 0.41712 0.28993 0.5919 0.0
H373 H 0.40967 0.26896 0.49573 0.0
H374 H 0.39485 0.20211 0.47179 0.0
H375 H 0.38871 0.15634 0.54375 0.0
C376 C 0.39444 0.13152 0.64231 0.0
C377 C 0.39956 0.17094 0.65598 0.0
C378 C 0.40049 0.19653 0.61349 0.0
C379 C 0.40613 0.23416 0.62754 0.0
C380 C 0.41044 0.26025 0.58395 0.0
C381 C 0.40661 0.24871 0.52845 0.0
C382 C 0.39849 0.21116 0.51496 0.0
C383 C 0.39539 0.18526 0.55676 0.0
H384 H 0.11133 0.38183 0.78 0.0
C385 C 0.11787 0.40051 0.81634 0.0
H386 H 0.16067 0.43646 0.87553 0.0
H387 H 0.23098 0.32833 0.76902 0.0
H388 H 0.17263 0.27184 0.80551 0.0
H389 H 0.12095 0.27933 0.85035 0.0
H390 H 0.12675 0.34317 0.85725 0.0
C391 C 0.15396 0.41757 0.83937 0.0
C392 C 0.18635 0.41283 0.81612 0.0
C393 C 0.18362 0.37554 0.81547 0.0
C394 C 0.21483 0.37163 0.79331 0.0
C395 C 0.20955 0.33351 0.78867 0.0
C396 C 0.17593 0.30068 0.80893 0.0
C397 C 0.14674 0.30487 0.83389 0.0
C398 C 0.15035 0.34174 0.83719 0.0
H399 H 0.29146 0.37565 0.82558 0.0
C400 C 0.30243 0.38782 0.78457 0.0
H401 H 0.29526 0.41461 0.71324 0.0
H402 H 0.20101 0.48822 0.80966 0.0
H403 H 0.26099 0.54544 0.77834 0.0
H404 H 0.31701 0.53964 0.74699 0.0
H405 H 0.3133 0.47662 0.74613 0.0
C406 C 0.28399 0.40238 0.75415 0.0
C407 C 0.25015 0.40546 0.77575 0.0
C408 C 0.25305 0.4428 0.77729 0.0
C409 C 0.22106 0.44636 0.79681 0.0
C410 C 0.22459 0.48389 0.79634 0.0
C411 C 0.25884 0.51702 0.77832 0.0
C412 C 0.29034 0.51373 0.76055 0.0
C413 C 0.2877 0.47723 0.76006 0.0
H414 H 0.968 0.28819 0.96679 0.0
C415 C 0.95899 0.30808 0.95049 0.0
H416 H 0.91238 0.31776 0.93446 0.0
H417 H 0.77125 0.14635 0.91558 0.0
H418 H 0.77117 0.17438 0.8258 0.0
H419 H 0.82546 0.2398 0.7988 0.0
H420 H 0.87978 0.2778 0.86149 0.0
C421 C 0.92086 0.2975 0.95093 0.0
C422 C 0.88885 0.25723 0.96754 0.0
C423 C 0.85778 0.23468 0.92941 0.0
C424 C 0.82695 0.19639 0.94427 0.0
C425 C 0.79574 0.17524 0.9061 0.0
C426 C 0.79527 0.19098 0.8544 0.0
C427 C 0.82579 0.22784 0.83926 0.0
C428 C 0.85678 0.24947 0.87596 0.0
H429 H 0.77376 0.16004 0.07619 0.0
C430 C 0.76962 0.13471 0.05272 0.0
H431 H 0.79042 0.11507 0.98689 0.0
H432 H 0.93885 0.29442 0.0555 0.0
H433 H 0.94057 0.26491 0.14309 0.0
H434 H 0.892 0.19564 0.16356 0.0
H435 H 0.84064 0.15592 0.09718 0.0
C436 C 0.79481 0.13994 0.01177 0.0
C437 C 0.82752 0.18006 0.9966 0.0
C438 C 0.85886 0.20219 0.03435 0.0
C439 C 0.88864 0.24131 0.02079 0.0
C440 C 0.9172 0.2638 0.06173 0.0
C441 C 0.91823 0.24736 0.1126 0.0
C442 C 0.89076 0.20843 0.12425 0.0
C443 C 0.86129 0.18602 0.08586 0.0
loop_
_geom_bond_atom_site_label_1
_geom_bond_atom_site_label_2
_geom_bond_distance
_geom_bond_site_symmetry_2
_ccdc_geom_bond_type
Co0 O1 2.216 1_545 S
Co0 O2 2.091 1_545 S
Co0 O4 2.004 1_554 S
Co0 O10 2.021 . S
Co0 O12 2.137 . S
Co0 O13 2.244 . S
O1 Co0 2.216 1_565 S
O1 C8 1.247 . S
O2 Co0 2.091 1_565 S
O2 C8 1.261 . S
C3 O12 1.247 . S
C3 O13 1.272 . S
O4 Co0 2.004 1_556 S
O4 C9 1.259 . S
Co5 O6 2.061 . S
Co5 O11 2.052 . S
Co5 O13 2.135 . S
O6 Co5 2.061 . S
O6 C9 1.235 1_554 S
C7 O10 1.238 . S
C7 O11 1.241 . S
C8 O1 1.247 . S
C8 O2 1.261 . S
C9 O4 1.259 . S
C9 O6 1.235 1_556 S
O10 Co0 2.021 . S
O10 C7 1.238 . S
O11 Co5 2.052 . S
O11 C7 1.241 . S
O12 Co0 2.137 . S
O12 C3 1.247 . S
O13 Co0 2.244 . S
O13 C3 1.272 . S
O13 Co5 2.135 . S
Co14 O15 2.216 . S
Co14 O16 2.091 . S
Co14 O18 2.004 . S
Co14 O24 2.021 . S
Co14 O26 2.137 . S
Co14 O27 2.244 . S
O15 Co14 2.216 . S
O15 C22 1.247 . S
O16 Co14 2.091 . S
O16 C22 1.261 . S
C17 O26 1.247 . S
C17 O27 1.272 . S
O18 Co14 2.004 . S
O18 C23 1.259 . S
Co19 O20 2.061 . S
Co19 O25 2.052 . S
Co19 O27 2.135 . S
O20 Co19 2.061 . S
O20 C23 1.235 . S
C21 O24 1.238 . S
C21 O25 1.241 . S
C22 O15 1.247 . S
C22 O16 1.261 . S
C23 O18 1.259 . S
C23 O20 1.235 . S
O24 Co14 2.021 . S
O24 C21 1.238 . S
O25 Co19 2.052 . S
O25 C21 1.241 . S
O26 Co14 2.137 . S
O26 C17 1.247 . S
O27 Co14 2.244 . S
O27 C17 1.272 . S
O27 Co19 2.135 . S
Co28 O29 2.216 1_455 S
Co28 O30 2.091 1_455 S
Co28 O32 2.004 . S
Co28 O38 2.021 1_455 S
Co28 O40 2.137 . S
Co28 O41 2.244 . S
O29 Co28 2.216 1_655 S
O29 C36 1.247 . S
O30 Co28 2.091 1_655 S
O30 C36 1.261 . S
C31 O40 1.247 . S
C31 O41 1.272 . S
O32 Co28 2.004 . S
O32 C37 1.259 . S
Co33 O34 2.061 . S
Co33 O39 2.052 . S
Co33 O41 2.135 . S
O34 Co33 2.061 . S
O34 C37 1.235 . S
C35 O38 1.238 1_455 S
C35 O39 1.241 . S
C36 O29 1.247 . S
C36 O30 1.261 . S
C37 O32 1.259 . S
C37 O34 1.235 . S
O38 Co28 2.021 1_655 S
O38 C35 1.238 1_655 S
O39 Co33 2.052 . S
O39 C35 1.241 . S
O40 Co28 2.137 . S
O40 C31 1.247 . S
O41 Co28 2.244 . S
O41 C31 1.272 . S
O41 Co33 2.135 . S
Co42 O43 2.216 . S
Co42 O44 2.091 . S
Co42 O46 2.004 . S
Co42 O52 2.021 . S
Co42 O54 2.137 . S
Co42 O55 2.244 1_545 S
O43 Co42 2.216 . S
O43 C50 1.247 . S
O44 Co42 2.091 . S
O44 C50 1.261 . S
C45 O54 1.247 1_565 S
C45 O55 1.272 . S
O46 Co42 2.004 . S
O46 C51 1.259 . S
Co47 O48 2.061 . S
Co47 O53 2.052 . S
Co47 O55 2.135 . S
O48 Co47 2.061 . S
O48 C51 1.235 1_565 S
C49 O52 1.238 . S
C49 O53 1.241 1_545 S
C50 O43 1.247 . S
C50 O44 1.261 . S
C51 O46 1.259 . S
C51 O48 1.235 1_545 S
O52 Co42 2.021 . S
O52 C49 1.238 . S
O53 Co47 2.052 . S
O53 C49 1.241 1_565 S
O54 Co42 2.137 . S
O54 C45 1.247 1_545 S
O55 Co42 2.244 1_565 S
O55 C45 1.272 . S
O55 Co47 2.135 . S
Co56 O57 2.216 . S
Co56 O58 2.091 . S
Co56 O60 2.004 . S
Co56 O66 2.021 . S
Co56 O68 2.137 . S
Co56 O69 2.244 . S
O57 Co56 2.216 . S
O57 C64 1.247 . S
O58 Co56 2.091 . S
O58 C64 1.261 . S
C59 O68 1.247 . S
C59 O69 1.272 . S
O60 Co56 2.004 . S
O60 C65 1.259 . S
Co61 O62 2.061 . S
Co61 O67 2.052 . S
Co61 O69 2.135 . S
O62 Co61 2.061 . S
O62 C65 1.235 . S
C63 O66 1.238 . S
C63 O67 1.241 . S
C64 O57 1.247 . S
C64 O58 1.261 . S
C65 O60 1.259 . S
C65 O62 1.235 . S
O66 Co56 2.021 . S
O66 C63 1.238 . S
O67 Co61 2.052 . S
O67 C63 1.241 . S
O68 Co56 2.137 . S
O68 C59 1.247 . S
O69 Co56 2.244 . S
O69 C59 1.272 . S
O69 Co61 2.135 . S
Co70 O71 2.216 . S
Co70 O72 2.091 . S
Co70 O74 2.004 . S
Co70 O80 2.021 . S
Co70 O82 2.137 1_455 S
Co70 O83 2.244 1_455 S
O71 Co70 2.216 . S
O71 C78 1.247 . S
O72 Co70 2.091 . S
O72 C78 1.261 . S
C73 O82 1.247 . S
C73 O83 1.272 . S
O74 Co70 2.004 . S
O74 C79 1.259 . S
Co75 O76 2.061 . S
Co75 O81 2.052 . S
Co75 O83 2.135 . S
O76 Co75 2.061 . S
O76 C79 1.235 1_655 S
C77 O80 1.238 . S
C77 O81 1.241 1_455 S
C78 O71 1.247 . S
C78 O72 1.261 . S
C79 O74 1.259 . S
C79 O76 1.235 1_455 S
O80 Co70 2.021 . S
O80 C77 1.238 . S
O81 Co75 2.052 . S
O81 C77 1.241 1_655 S
O82 Co70 2.137 1_655 S
O82 C73 1.247 . S
O83 Co70 2.244 1_655 S
O83 C73 1.272 . S
O83 Co75 2.135 . S
H84 C85 0.951 . S
C85 H84 0.951 . S
C85 C91 1.265 . S
H86 C91 0.950 . S
H87 C95 0.949 . S
H88 C96 0.950 . S
H89 C97 0.951 . S
H90 C98 0.951 . S
C91 C85 1.265 . S
C91 H86 0.950 . S
C91 C92 1.478 . S
C92 C91 1.478 . S
C92 C93 1.397 . S
C92 C109 1.394 1_545 S
C93 C92 1.397 . S
C93 C94 1.438 . S
C93 C98 1.429 . S
C94 C93 1.438 . S
C94 C95 1.428 . S
C94 C107 1.394 . S
C95 H87 0.949 . S
C95 C94 1.428 . S
C95 C96 1.345 . S
C96 H88 0.950 . S
C96 C95 1.345 . S
C96 C97 1.424 . S
C97 H89 0.951 . S
C97 C96 1.424 . S
C97 C98 1.347 . S
C98 H90 0.951 . S
C98 C93 1.429 . S
C98 C97 1.347 . S
H99 C100 0.951 . S
C100 H99 0.951 . S
C100 C106 1.265 . S
H101 C106 0.950 . S
H102 C110 0.949 . S
H103 C111 0.950 . S
H104 C112 0.951 . S
H105 C113 0.951 . S
C106 C100 1.265 . S
C106 H101 0.950 . S
C106 C107 1.478 . S
C107 C94 1.394 . S
C107 C106 1.478 . S
C107 C108 1.397 1_545 S
C108 C107 1.397 1_565 S
C108 C109 1.438 . S
C108 C113 1.429 . S
C109 C92 1.394 1_565 S
C109 C108 1.438 . S
C109 C110 1.428 . S
C110 H102 0.949 . S
C110 C109 1.428 . S
C110 C111 1.345 . S
C111 H103 0.950 . S
C111 C110 1.345 . S
C111 C112 1.424 . S
C112 H104 0.951 . S
C112 C111 1.424 . S
C112 C113 1.347 . S
C113 H105 0.951 . S
C113 C108 1.429 . S
C113 C112 1.347 . S
H114 C115 0.951 . S
C115 H114 0.951 . S
C115 C121 1.265 . S
H116 C121 0.950 . S
H117 C125 0.949 . S
H118 C126 0.950 . S
H119 C127 0.951 . S
H120 C128 0.951 . S
C121 C115 1.265 . S
C121 H116 0.950 . S
C121 C122 1.478 . S
C122 C121 1.478 . S
C122 C123 1.397 . S
C122 C139 1.394 . S
C123 C122 1.397 . S
C123 C124 1.438 . S
C123 C128 1.429 . S
C124 C123 1.438 . S
C124 C125 1.428 . S
C124 C137 1.394 . S
C125 H117 0.949 . S
C125 C124 1.428 . S
C125 C126 1.345 . S
C126 H118 0.950 . S
C126 C125 1.345 . S
C126 C127 1.424 . S
C127 H119 0.951 . S
C127 C126 1.424 . S
C127 C128 1.347 . S
C128 H120 0.951 . S
C128 C123 1.429 . S
C128 C127 1.347 . S
H129 C130 0.951 . S
C130 H129 0.951 . S
C130 C136 1.265 . S
H131 C136 0.950 . S
H132 C140 0.949 . S
H133 C141 0.950 . S
H134 C142 0.951 . S
H135 C143 0.951 . S
C136 C130 1.265 . S
C136 H131 0.950 . S
C136 C137 1.478 . S
C137 C124 1.394 . S
C137 C136 1.478 . S
C137 C138 1.397 . S
C138 C137 1.397 . S
C138 C139 1.438 . S
C138 C143 1.429 . S
C139 C122 1.394 . S
C139 C138 1.438 . S
C139 C140 1.428 . S
C140 H132 0.949 . S
C140 C139 1.428 . S
C140 C141 1.345 . S
C141 H133 0.950 . S
C141 C140 1.345 . S
C141 C142 1.424 . S
C142 H134 0.951 . S
C142 C141 1.424 . S
C142 C143 1.347 . S
C143 H135 0.951 . S
C143 C138 1.429 . S
C143 C142 1.347 . S
H144 C145 0.951 . S
C145 H144 0.951 . S
C145 C151 1.265 . S
H146 C151 0.950 . S
H147 C155 0.949 . S
H148 C156 0.950 . S
H149 C157 0.951 . S
H150 C158 0.951 . S
C151 C145 1.265 . S
C151 H146 0.950 . S
C151 C152 1.478 . S
C152 C151 1.478 . S
C152 C153 1.397 . S
C152 C169 1.394 . S
C153 C152 1.397 . S
C153 C154 1.438 . S
C153 C158 1.429 1_455 S
C154 C153 1.438 . S
C154 C155 1.428 1_455 S
C154 C167 1.394 . S
C155 H147 0.949 . S
C155 C154 1.428 1_655 S
C155 C156 1.345 . S
C156 H148 0.950 . S
C156 C155 1.345 . S
C156 C157 1.424 . S
C157 H149 0.951 . S
C157 C156 1.424 . S
C157 C158 1.347 . S
C158 H150 0.951 . S
C158 C153 1.429 1_655 S
C158 C157 1.347 . S
H159 C160 0.951 . S
C160 H159 0.951 . S
C160 C166 1.265 . S
H161 C166 0.950 . S
H162 C170 0.949 . S
H163 C171 0.950 . S
H164 C172 0.951 . S
H165 C173 0.951 . S
C166 C160 1.265 . S
C166 H161 0.950 . S
C166 C167 1.478 . S
C167 C154 1.394 . S
C167 C166 1.478 . S
C167 C168 1.397 . S
C168 C167 1.397 . S
C168 C169 1.438 . S
C168 C173 1.429 . S
C169 C152 1.394 . S
C169 C168 1.438 . S
C169 C170 1.428 . S
C170 H162 0.949 . S
C170 C169 1.428 . S
C170 C171 1.345 . S
C171 H163 0.950 . S
C171 C170 1.345 . S
C171 C172 1.424 . S
C172 H164 0.951 . S
C172 C171 1.424 . S
C172 C173 1.347 . S
C173 H165 0.951 . S
C173 C168 1.429 . S
C173 C172 1.347 . S
H174 C175 0.951 . S
C175 H174 0.951 . S
C175 C181 1.265 . S
H176 C181 0.950 . S
H177 C185 0.949 . S
H178 C186 0.950 . S
H179 C187 0.951 . S
H180 C188 0.951 . S
C181 C175 1.265 . S
C181 H176 0.950 . S
C181 C182 1.478 . S
C182 C181 1.478 . S
C182 C183 1.397 1_545 S
C182 C199 1.394 . S
C183 C182 1.397 1_565 S
C183 C184 1.438 . S
C183 C188 1.429 . S
C184 C183 1.438 . S
C184 C185 1.428 . S
C184 C197 1.394 1_565 S
C185 H177 0.949 . S
C185 C184 1.428 . S
C185 C186 1.345 . S
C186 H178 0.950 . S
C186 C185 1.345 . S
C186 C187 1.424 . S
C187 H179 0.951 . S
C187 C186 1.424 . S
C187 C188 1.347 . S
C188 H180 0.951 . S
C188 C183 1.429 . S
C188 C187 1.347 . S
H189 C190 0.951 . S
C190 H189 0.951 . S
C190 C196 1.265 . S
H191 C196 0.950 . S
H192 C200 0.949 . S
H193 C201 0.950 . S
H194 C202 0.951 . S
H195 C203 0.951 . S
C196 C190 1.265 . S
C196 H191 0.950 . S
C196 C197 1.478 . S
C197 C184 1.394 1_545 S
C197 C196 1.478 . S
C197 C198 1.397 . S
C198 C197 1.397 . S
C198 C199 1.438 . S
C198 C203 1.429 . S
C199 C182 1.394 . S
C199 C198 1.438 . S
C199 C200 1.428 . S
C200 H192 0.949 . S
C200 C199 1.428 . S
C200 C201 1.345 . S
C201 H193 0.950 . S
C201 C200 1.345 . S
C201 C202 1.424 . S
C202 H194 0.951 . S
C202 C201 1.424 . S
C202 C203 1.347 . S
C203 H195 0.951 . S
C203 C198 1.429 . S
C203 C202 1.347 . S
H204 C205 0.951 . S
C205 H204 0.951 . S
C205 C211 1.265 . S
H206 C211 0.950 . S
H207 C215 0.949 . S
H208 C216 0.950 . S
H209 C217 0.951 . S
H210 C218 0.951 . S
C211 C205 1.265 . S
C211 H206 0.950 . S
C211 C212 1.478 . S
C212 C211 1.478 . S
C212 C213 1.397 1_554 S
C212 C229 1.394 . S
C213 C212 1.397 1_556 S
C213 C214 1.438 . S
C213 C218 1.429 . S
C214 C213 1.438 . S
C214 C215 1.428 . S
C214 C227 1.394 . S
C215 H207 0.949 . S
C215 C214 1.428 . S
C215 C216 1.345 . S
C216 H208 0.950 . S
C216 C215 1.345 . S
C216 C217 1.424 . S
C217 H209 0.951 . S
C217 C216 1.424 . S
C217 C218 1.347 . S
C218 H210 0.951 . S
C218 C213 1.429 . S
C218 C217 1.347 . S
H219 C220 0.951 . S
C220 H219 0.951 . S
C220 C226 1.265 . S
H221 C226 0.950 . S
H222 C230 0.949 . S
H223 C231 0.950 . S
H224 C232 0.951 . S
H225 C233 0.951 . S
C226 C220 1.265 . S
C226 H221 0.950 . S
C226 C227 1.478 . S
C227 C214 1.394 . S
C227 C226 1.478 . S
C227 C228 1.397 . S
C228 C227 1.397 . S
C228 C229 1.438 1_556 S
C228 C233 1.429 . S
C229 C212 1.394 . S
C229 C228 1.438 1_554 S
C229 C230 1.428 . S
C230 H222 0.949 . S
C230 C229 1.428 . S
C230 C231 1.345 . S
C231 H223 0.950 . S
C231 C230 1.345 . S
C231 C232 1.424 . S
C232 H224 0.951 . S
C232 C231 1.424 . S
C232 C233 1.347 1_554 S
C233 H225 0.951 . S
C233 C228 1.429 . S
C233 C232 1.347 1_556 S
H234 C235 0.951 . S
C235 H234 0.951 . S
C235 C241 1.265 1_455 S
H236 C241 0.950 . S
H237 C245 0.949 1_455 S
H238 C246 0.950 . S
H239 C247 0.951 . S
H240 C248 0.951 . S
C241 C235 1.265 1_655 S
C241 H236 0.950 . S
C241 C242 1.478 1_655 S
C242 C241 1.478 1_455 S
C242 C243 1.397 1_455 S
C242 C259 1.394 . S
C243 C242 1.397 1_655 S
C243 C244 1.438 1_655 S
C243 C248 1.429 . S
C244 C243 1.438 1_455 S
C244 C245 1.428 1_455 S
C244 C257 1.394 . S
C245 H237 0.949 1_655 S
C245 C244 1.428 1_655 S
C245 C246 1.345 . S
C246 H238 0.950 . S
C246 C245 1.345 . S
C246 C247 1.424 . S
C247 H239 0.951 . S
C247 C246 1.424 . S
C247 C248 1.347 . S
C248 H240 0.951 . S
C248 C243 1.429 . S
C248 C247 1.347 . S
H249 C250 0.951 1_655 S
C250 H249 0.951 1_455 S
C250 C256 1.265 . S
H251 C256 0.950 . S
H252 C260 0.949 . S
H253 C261 0.950 . S
H254 C262 0.951 . S
H255 C263 0.951 . S
C256 C250 1.265 . S
C256 H251 0.950 . S
C256 C257 1.478 . S
C257 C244 1.394 . S
C257 C256 1.478 . S
C257 C258 1.397 . S
C258 C257 1.397 . S
C258 C259 1.438 . S
C258 C263 1.429 . S
C259 C242 1.394 . S
C259 C258 1.438 . S
C259 C260 1.428 . S
C260 H252 0.949 . S
C260 C259 1.428 . S
C260 C261 1.345 . S
C261 H253 0.950 . S
C261 C260 1.345 . S
C261 C262 1.424 . S
C262 H254 0.951 . S
C262 C261 1.424 . S
C262 C263 1.347 . S
C263 H255 0.951 . S
C263 C258 1.429 . S
C263 C262 1.347 . S
H264 C265 0.951 . S
C265 H264 0.951 . S
C265 C271 1.265 . S
H266 C271 0.950 . S
H267 C275 0.949 . S
H268 C276 0.950 1_556 S
H269 C277 0.958 . S
H270 C278 0.951 . S
C271 C265 1.265 . S
C271 H266 0.950 . S
C271 C272 1.478 . S
C272 C271 1.478 . S
C272 C273 1.397 . S
C272 C289 1.394 . S
C273 C272 1.397 . S
C273 C274 1.438 . S
C273 C278 1.429 . S
C274 C273 1.438 . S
C274 C275 1.428 . S
C274 C287 1.394 . S
C275 H267 0.949 . S
C275 C274 1.428 . S
C275 C276 1.345 . S
C276 H268 0.950 1_554 S
C276 C275 1.345 . S
C276 C277 1.424 . S
C277 H269 0.958 . S
C277 C276 1.424 . S
C277 C278 1.347 . S
C278 H270 0.951 . S
C278 C273 1.429 . S
C278 C277 1.347 . S
H279 C280 0.951 . S
C280 H279 0.951 . S
C280 C286 1.265 . S
H281 C286 0.950 . S
H282 C290 0.949 . S
H283 C291 0.950 . S
H284 C292 0.951 . S
H285 C293 0.951 . S
C286 C280 1.265 . S
C286 H281 0.950 . S
C286 C287 1.478 . S
C287 C274 1.394 . S
C287 C286 1.478 . S
C287 C288 1.397 . S
C288 C287 1.397 . S
C288 C289 1.438 . S
C288 C293 1.429 . S
C289 C272 1.394 . S
C289 C288 1.438 . S
C289 C290 1.428 . S
C290 H282 0.949 . S
C290 C289 1.428 . S
C290 C291 1.345 . S
C291 H283 0.950 . S
C291 C290 1.345 . S
C291 C292 1.424 . S
C292 H284 0.951 . S
C292 C291 1.424 . S
C292 C293 1.347 . S
C293 H285 0.951 . S
C293 C288 1.429 . S
C293 C292 1.347 . S
H294 C295 0.951 . S
C295 H294 0.951 . S
C295 C301 1.265 . S
H296 C301 0.950 . S
H297 C305 0.949 . S
H298 C306 0.950 . S
H299 C307 0.951 . S
H300 C308 0.951 . S
C301 C295 1.265 . S
C301 H296 0.950 . S
C301 C302 1.478 . S
C302 C301 1.478 . S
C302 C303 1.397 . S
C302 C319 1.394 . S
C303 C302 1.397 . S
C303 C304 1.438 . S
C303 C308 1.429 . S
C304 C303 1.438 . S
C304 C305 1.428 . S
C304 C317 1.394 . S
C305 H297 0.949 . S
C305 C304 1.428 . S
C305 C306 1.345 . S
C306 H298 0.950 . S
C306 C305 1.345 . S
C306 C307 1.424 . S
C307 H299 0.951 . S
C307 C306 1.424 . S
C307 C308 1.347 . S
C308 H300 0.951 . S
C308 C303 1.429 . S
C308 C307 1.347 . S
H309 C310 0.951 . S
C310 H309 0.951 . S
C310 C316 1.265 . S
H311 C316 0.950 . S
H312 C320 0.949 . S
H313 C321 0.950 . S
H314 C322 0.951 . S
H315 C323 0.951 . S
C316 C310 1.265 . S
C316 H311 0.950 . S
C316 C317 1.478 . S
C317 C304 1.394 . S
C317 C316 1.478 . S
C317 C318 1.397 . S
C318 C317 1.397 . S
C318 C319 1.438 . S
C318 C323 1.429 . S
C319 C302 1.394 . S
C319 C318 1.438 . S
C319 C320 1.428 . S
C320 H312 0.949 . S
C320 C319 1.428 . S
C320 C321 1.345 . S
C321 H313 0.950 . S
C321 C320 1.345 . S
C321 C322 1.424 . S
C322 H314 0.951 . S
C322 C321 1.424 . S
C322 C323 1.347 . S
C323 H315 0.951 . S
C323 C318 1.429 . S
C323 C322 1.347 . S
H324 C325 0.951 . S
C325 H324 0.951 . S
C325 C331 1.265 . S
H326 C331 0.950 . S
H327 C335 0.949 . S
H328 C336 0.950 . S
H329 C337 0.951 . S
H330 C338 0.951 . S
C331 C325 1.265 . S
C331 H326 0.950 . S
C331 C332 1.478 . S
C332 C331 1.478 . S
C332 C333 1.397 . S
C332 C349 1.394 . S
C333 C332 1.397 . S
C333 C334 1.438 . S
C333 C338 1.429 . S
C334 C333 1.438 . S
C334 C335 1.428 . S
C334 C347 1.394 . S
C335 H327 0.949 . S
C335 C334 1.428 . S
C335 C336 1.345 . S
C336 H328 0.950 . S
C336 C335 1.345 . S
C336 C337 1.424 . S
C337 H329 0.951 . S
C337 C336 1.424 . S
C337 C338 1.347 . S
C338 H330 0.951 . S
C338 C333 1.429 . S
C338 C337 1.347 . S
H339 C340 0.951 . S
C340 H339 0.951 . S
C340 C346 1.265 . S
H341 C346 0.950 . S
H342 C350 0.949 . S
H343 C351 0.950 . S
H344 C352 0.951 . S
H345 C353 0.951 . S
C346 C340 1.265 . S
C346 H341 0.950 . S
C346 C347 1.478 . S
C347 C334 1.394 . S
C347 C346 1.478 . S
C347 C348 1.397 . S
C348 C347 1.397 . S
C348 C349 1.438 . S
C348 C353 1.429 . S
C349 C332 1.394 . S
C349 C348 1.438 . S
C349 C350 1.428 . S
C350 H342 0.949 . S
C350 C349 1.428 . S
C350 C351 1.345 . S
C351 H343 0.950 . S
C351 C350 1.345 . S
C351 C352 1.424 . S
C352 H344 0.951 . S
C352 C351 1.424 . S
C352 C353 1.347 . S
C353 H345 0.951 . S
C353 C348 1.429 . S
C353 C352 1.347 . S
H354 C355 0.951 . S
C355 H354 0.951 . S
C355 C361 1.265 . S
H356 C361 0.950 . S
H357 C365 0.949 . S
H358 C366 0.950 . S
H359 C367 0.951 . S
H360 C368 0.951 . S
C361 C355 1.265 . S
C361 H356 0.950 . S
C361 C362 1.478 . S
C362 C361 1.478 . S
C362 C363 1.397 . S
C362 C379 1.394 . S
C363 C362 1.397 . S
C363 C364 1.438 . S
C363 C368 1.429 . S
C364 C363 1.438 . S
C364 C365 1.428 . S
C364 C377 1.394 . S
C365 H357 0.949 . S
C365 C364 1.428 . S
C365 C366 1.345 . S
C366 H358 0.950 . S
C366 C365 1.345 . S
C366 C367 1.424 . S
C367 H359 0.951 . S
C367 C366 1.424 . S
C367 C368 1.347 . S
C368 H360 0.951 . S
C368 C363 1.429 . S
C368 C367 1.347 . S
H369 C370 0.951 . S
C370 H369 0.951 . S
C370 C376 1.265 . S
H371 C376 0.950 . S
H372 C380 0.949 . S
H373 C381 0.950 . S
H374 C382 0.951 . S
H375 C383 0.951 . S
C376 C370 1.265 . S
C376 H371 0.950 . S
C376 C377 1.478 . S
C377 C364 1.394 . S
C377 C376 1.478 . S
C377 C378 1.397 . S
C378 C377 1.397 . S
C378 C379 1.438 . S
C378 C383 1.429 . S
C379 C362 1.394 . S
C379 C378 1.438 . S
C379 C380 1.428 . S
C380 H372 0.949 . S
C380 C379 1.428 . S
C380 C381 1.345 . S
C381 H373 0.950 . S
C381 C380 1.345 . S
C381 C382 1.424 . S
C382 H374 0.951 . S
C382 C381 1.424 . S
C382 C383 1.347 . S
C383 H375 0.951 . S
C383 C378 1.429 . S
C383 C382 1.347 . S
H384 C385 0.951 . S
C385 H384 0.951 . S
C385 C391 1.265 . S
H386 C391 0.950 . S
H387 C395 0.949 . S
H388 C396 0.950 . S
H389 C397 0.951 . S
H390 C398 0.951 . S
C391 C385 1.265 . S
C391 H386 0.950 . S
C391 C392 1.478 . S
C392 C391 1.478 . S
C392 C393 1.397 . S
C392 C409 1.394 . S
C393 C392 1.397 . S
C393 C394 1.438 . S
C393 C398 1.429 . S
C394 C393 1.438 . S
C394 C395 1.428 . S
C394 C407 1.394 . S
C395 H387 0.949 . S
C395 C394 1.428 . S
C395 C396 1.345 . S
C396 H388 0.950 . S
C396 C395 1.345 . S
C396 C397 1.424 . S
C397 H389 0.951 . S
C397 C396 1.424 . S
C397 C398 1.347 . S
C398 H390 0.951 . S
C398 C393 1.429 . S
C398 C397 1.347 . S
H399 C400 0.951 . S
C400 H399 0.951 . S
C400 C406 1.265 . S
H401 C406 0.950 . S
H402 C410 0.949 . S
H403 C411 0.950 . S
H404 C412 0.951 . S
H405 C413 0.951 . S
C406 C400 1.265 . S
C406 H401 0.950 . S
C406 C407 1.478 . S
C407 C394 1.394 . S
C407 C406 1.478 . S
C407 C408 1.397 . S
C408 C407 1.397 . S
C408 C409 1.438 . S
C408 C413 1.429 . S
C409 C392 1.394 . S
C409 C408 1.438 . S
C409 C410 1.428 . S
C410 H402 0.949 . S
C410 C409 1.428 . S
C410 C411 1.345 . S
C411 H403 0.950 . S
C411 C410 1.345 . S
C411 C412 1.424 . S
C412 H404 0.951 . S
C412 C411 1.424 . S
C412 C413 1.347 . S
C413 H405 0.951 . S
C413 C408 1.429 . S
C413 C412 1.347 . S
H414 C415 0.951 . S
C415 H414 0.951 . S
C415 C421 1.265 . S
H416 C421 0.952 . S
H417 C425 0.949 . S
H418 C426 0.950 . S
H419 C427 0.951 . S
H420 C428 0.951 . S
C421 C415 1.265 . S
C421 H416 0.952 . S
C421 C422 1.478 . S
C422 C421 1.478 . S
C422 C423 1.397 . S
C422 C439 1.394 1_556 S
C423 C422 1.397 . S
C423 C424 1.438 . S
C423 C428 1.429 . S
C424 C423 1.438 . S
C424 C425 1.428 . S
C424 C437 1.394 . S
C425 H417 0.949 . S
C425 C424 1.428 . S
C425 C426 1.345 . S
C426 H418 0.950 . S
C426 C425 1.345 . S
C426 C427 1.424 . S
C427 H419 0.951 . S
C427 C426 1.424 . S
C427 C428 1.347 . S
C428 H420 0.951 . S
C428 C423 1.429 . S
C428 C427 1.347 . S
H429 C430 0.951 . S
C430 H429 0.951 . S
C430 C436 1.265 1_554 S
H431 C436 0.950 . S
H432 C440 0.949 . S
H433 C441 0.950 . S
H434 C442 0.951 . S
H435 C443 0.951 . S
C436 C430 1.265 1_556 S
C436 H431 0.950 . S
C436 C437 1.478 . S
C437 C424 1.394 . S
C437 C436 1.478 . S
C437 C438 1.397 1_556 S
C438 C437 1.397 1_554 S
C438 C439 1.438 . S
C438 C443 1.429 . S
C439 C422 1.394 1_554 S
C439 C438 1.438 . S
C439 C440 1.428 . S
C440 H432 0.949 . S
C440 C439 1.428 . S
C440 C441 1.345 . S
C441 H433 0.950 . S
C441 C440 1.345 . S
C441 C442 1.424 . S
C442 H434 0.951 . S
C442 C441 1.424 . S
C442 C443 1.347 . S
C443 H435 0.951 . S
C443 C438 1.429 . S
C443 C442 1.347 . S
C85 C7 1.643 . S
C100 C51 1.676 . S
C115 C21 1.637 . S
C130 C65 1.647 . S
C145 C77 1.601 . S
C160 C37 1.640 . S
C175 C9 1.671 . S
C190 C49 1.632 . S
C205 C23 1.629 . S
C220 C63 1.600 . S
C235 C79 1.671 1_554 S
C250 C35 1.658 . S
C265 C17 1.357 . S
C280 C8 1.378 . S
C295 C36 1.350 . S
C310 C22 1.351 . S
C325 C31 1.402 . S
C340 C45 1.388 . S
C355 C59 1.376 . S
C370 C50 1.354 . S
C385 C78 1.354 . S
C400 C64 1.345 . S
C415 C73 1.402 . S
C430 C3 1.392 . S
