# Generated by pormake.
# Topology wnd, (6)-cn, num edge types: 1
# Building blocks:
#     Node 0, Type 0, BuildingBlock: VOLQOD_clean_sbu_1, # of connection points: 6
#     Node 1, Type 0, BuildingBlock: VOLQOD_clean_sbu_1, # of connection points: 6
#     Node 2, Type 0, BuildingBlock: VOLQOD_clean_sbu_1, # of connection points: 6
#     Node 3, Type 0, BuildingBlock: VOLQOD_clean_sbu_1, # of connection points: 6
#     Node 4, Type 0, BuildingBlock: VOLQOD_clean_sbu_1, # of connection points: 6
#     Node 5, Type 0, BuildingBlock: VOLQOD_clean_sbu_1, # of connection points: 6
#     Node 6, Type 0, BuildingBlock: VOLQOD_clean_sbu_1, # of connection points: 6
#     Node 7, Type 0, BuildingBlock: VOLQOD_clean_sbu_1, # of connection points: 6
#     Node 8, Type 0, BuildingBlock: VOLQOD_clean_sbu_1, # of connection points: 6
#     Node 9, Type 0, BuildingBlock: VOLQOD_clean_sbu_1, # of connection points: 6
#     Node 10, Type 0, BuildingBlock: VOLQOD_clean_sbu_1, # of connection points: 6
#     Node 11, Type 0, BuildingBlock: VOLQOD_clean_sbu_1, # of connection points: 6
#     Node 12, Type 0, BuildingBlock: VOLQOD_clean_sbu_1, # of connection points: 6
#     Node 13, Type 0, BuildingBlock: VOLQOD_clean_sbu_1, # of connection points: 6
#     Node 14, Type 0, BuildingBlock: VOLQOD_clean_sbu_1, # of connection points: 6
#     Node 15, Type 0, BuildingBlock: VOLQOD_clean_sbu_1, # of connection points: 6
#     Node 16, Type 0, BuildingBlock: VOLQOD_clean_sbu_1, # of connection points: 6
#     Node 17, Type 0, BuildingBlock: VOLQOD_clean_sbu_1, # of connection points: 6
#     Node 18, Type 0, BuildingBlock: VOLQOD_clean_sbu_1, # of connection points: 6
#     Node 19, Type 0, BuildingBlock: VOLQOD_clean_sbu_1, # of connection points: 6
#     Node 20, Type 0, BuildingBlock: VOLQOD_clean_sbu_1, # of connection points: 6
#     Node 21, Type 0, BuildingBlock: VOLQOD_clean_sbu_1, # of connection points: 6
#     Node 22, Type 0, BuildingBlock: VOLQOD_clean_sbu_1, # of connection points: 6
#     Node 23, Type 0, BuildingBlock: VOLQOD_clean_sbu_1, # of connection points: 6
#     Node 24, Type 0, BuildingBlock: VOLQOD_clean_sbu_1, # of connection points: 6
#     Node 25, Type 0, BuildingBlock: VOLQOD_clean_sbu_1, # of connection points: 6
#     Node 26, Type 0, BuildingBlock: VOLQOD_clean_sbu_1, # of connection points: 6
#     Node 27, Type 0, BuildingBlock: VOLQOD_clean_sbu_1, # of connection points: 6
#     Node 28, Type 0, BuildingBlock: VOLQOD_clean_sbu_1, # of connection points: 6
#     Node 29, Type 0, BuildingBlock: VOLQOD_clean_sbu_1, # of connection points: 6
#     Node 30, Type 0, BuildingBlock: VOLQOD_clean_sbu_1, # of connection points: 6
#     Node 31, Type 0, BuildingBlock: VOLQOD_clean_sbu_1, # of connection points: 6
#     Node 32, Type 0, BuildingBlock: VOLQOD_clean_sbu_1, # of connection points: 6
#     Node 33, Type 0, BuildingBlock: VOLQOD_clean_sbu_1, # of connection points: 6
#     Node 34, Type 0, BuildingBlock: VOLQOD_clean_sbu_1, # of connection points: 6
#     Node 35, Type 0, BuildingBlock: VOLQOD_clean_sbu_1, # of connection points: 6
#     Edge 36, Type (0, 0), None
#     Edge 37, Type (0, 0), None
#     Edge 38, Type (0, 0), None
#     Edge 39, Type (0, 0), None
#     Edge 40, Type (0, 0), None
#     Edge 41, Type (0, 0), None
#     Edge 42, Type (0, 0), None
#     Edge 43, Type (0, 0), None
#     Edge 44, Type (0, 0), None
#     Edge 45, Type (0, 0), None
#     Edge 46, Type (0, 0), None
#     Edge 47, Type (0, 0), None
#     Edge 48, Type (0, 0), None
#     Edge 49, Type (0, 0), None
#     Edge 50, Type (0, 0), None
#     Edge 51, Type (0, 0), None
#     Edge 52, Type (0, 0), None
#     Edge 53, Type (0, 0), None
#     Edge 54, Type (0, 0), None
#     Edge 55, Type (0, 0), None
#     Edge 56, Type (0, 0), None
#     Edge 57, Type (0, 0), None
#     Edge 58, Type (0, 0), None
#     Edge 59, Type (0, 0), None
#     Edge 60, Type (0, 0), None
#     Edge 61, Type (0, 0), None
#     Edge 62, Type (0, 0), None
#     Edge 63, Type (0, 0), None
#     Edge 64, Type (0, 0), None
#     Edge 65, Type (0, 0), None
#     Edge 66, Type (0, 0), None
#     Edge 67, Type (0, 0), None
#     Edge 68, Type (0, 0), None
#     Edge 69, Type (0, 0), None
#     Edge 70, Type (0, 0), None
#     Edge 71, Type (0, 0), None
#     Edge 72, Type (0, 0), None
#     Edge 73, Type (0, 0), None
#     Edge 74, Type (0, 0), None
#     Edge 75, Type (0, 0), None
#     Edge 76, Type (0, 0), None
#     Edge 77, Type (0, 0), None
#     Edge 78, Type (0, 0), None
#     Edge 79, Type (0, 0), None
#     Edge 80, Type (0, 0), None
#     Edge 81, Type (0, 0), None
#     Edge 82, Type (0, 0), None
#     Edge 83, Type (0, 0), None
#     Edge 84, Type (0, 0), None
#     Edge 85, Type (0, 0), None
#     Edge 86, Type (0, 0), None
#     Edge 87, Type (0, 0), None
#     Edge 88, Type (0, 0), None
#     Edge 89, Type (0, 0), None
#     Edge 90, Type (0, 0), None
#     Edge 91, Type (0, 0), None
#     Edge 92, Type (0, 0), None
#     Edge 93, Type (0, 0), None
#     Edge 94, Type (0, 0), None
#     Edge 95, Type (0, 0), None
#     Edge 96, Type (0, 0), None
#     Edge 97, Type (0, 0), None
#     Edge 98, Type (0, 0), None
#     Edge 99, Type (0, 0), None
#     Edge 100, Type (0, 0), None
#     Edge 101, Type (0, 0), None
#     Edge 102, Type (0, 0), None
#     Edge 103, Type (0, 0), None
#     Edge 104, Type (0, 0), None
#     Edge 105, Type (0, 0), None
#     Edge 106, Type (0, 0), None
#     Edge 107, Type (0, 0), None
#     Edge 108, Type (0, 0), None
#     Edge 109, Type (0, 0), None
#     Edge 110, Type (0, 0), None
#     Edge 111, Type (0, 0), None
#     Edge 112, Type (0, 0), None
#     Edge 113, Type (0, 0), None
#     Edge 114, Type (0, 0), None
#     Edge 115, Type (0, 0), None
#     Edge 116, Type (0, 0), None
#     Edge 117, Type (0, 0), None
#     Edge 118, Type (0, 0), None
#     Edge 119, Type (0, 0), None
#     Edge 120, Type (0, 0), None
#     Edge 121, Type (0, 0), None
#     Edge 122, Type (0, 0), None
#     Edge 123, Type (0, 0), None
#     Edge 124, Type (0, 0), None
#     Edge 125, Type (0, 0), None
#     Edge 126, Type (0, 0), None
#     Edge 127, Type (0, 0), None
#     Edge 128, Type (0, 0), None
#     Edge 129, Type (0, 0), None
#     Edge 130, Type (0, 0), None
#     Edge 131, Type (0, 0), None
#     Edge 132, Type (0, 0), None
#     Edge 133, Type (0, 0), None
#     Edge 134, Type (0, 0), None
#     Edge 135, Type (0, 0), None
#     Edge 136, Type (0, 0), None
#     Edge 137, Type (0, 0), None
#     Edge 138, Type (0, 0), None
#     Edge 139, Type (0, 0), None
#     Edge 140, Type (0, 0), None
#     Edge 141, Type (0, 0), None
#     Edge 142, Type (0, 0), None
#     Edge 143, Type (0, 0), None
# Relax obj value: 0.338
# Max RMSD: 0.236
# Mean RMSD: 0.236
data_MOF--net-wnd--node1-VOLQOD_clean_sbu_1--edge1-none
_symmetry_space_group_name_H-M    P1
_symmetry_Int_Tables_number       1
_symmetry_cell_setting            triclinic
loop_
_symmetry_equiv_pos_as_xyz
'x, y, z'
_cell_length_a     16.047427
_cell_length_b     15.972531
_cell_length_c     99.810016
_cell_angle_alpha  90.000952
_cell_angle_beta   90.395379
_cell_angle_gamma 119.84679
loop_
_atom_site_label
_atom_site_type_symbol
_atom_site_fract_x
_atom_site_fract_y
_atom_site_fract_z
_atom_type_partial_charge
O0 O 0.47694 0.851 0.03592 0.0
Zn1 Zn 0.4698 0.97915 0.03754 0.0
O2 O 0.37543 0.97356 0.02521 0.0
Zn3 Zn 0.27016 0.97674 0.03474 0.0
Zn4 Zn 0.31892 0.86084 0.01443 0.0
Zn5 Zn 0.42709 0.07422 0.01251 0.0
O6 O 0.22907 0.06432 0.0265 0.0
O7 O 0.32119 0.10124 0.00905 0.0
O8 O 0.43807 0.01865 0.05643 0.0
O9 O 0.31508 0.04146 0.05182 0.0
O10 O 0.16818 0.83884 0.03818 0.0
O11 O 0.17783 0.80172 0.01708 0.0
O12 O 0.36435 0.88231 -0.00491 0.0
O13 O 0.59533 0.08602 0.03014 0.0
O14 O 0.4675 0.03894 -0.00429 0.0
O15 O 0.5481 0.17886 0.01957 0.0
C16 C 0.42868 0.77703 0.02831 0.0
C17 C 0.2901 0.12827 0.01882 0.0
C18 C 0.13995 0.77784 0.02867 0.0
C19 C 0.38031 0.04964 0.0597 0.0
C20 C 0.43283 0.95795 -0.01011 0.0
C21 C 0.61377 0.16202 0.02361 0.0
O22 O 0.36264 0.77115 0.0206 0.0
O23 O 0.0357 0.6371 0.042 0.0
Zn24 Zn 0.9226 0.49471 0.04334 0.0
O25 O 0.93176 0.4286 0.02772 0.0
Zn26 Zn 0.90683 0.3023 0.03136 0.0
Zn27 Zn 0.04304 0.49209 0.01819 0.0
Zn28 Zn 0.8488 0.43858 0.01532 0.0
O29 O 0.78014 0.21461 0.02225 0.0
O30 O 0.72849 0.32104 0.01929 0.0
O31 O 0.89411 0.40043 0.06001 0.0
O32 O 0.86337 0.26355 0.0499 0.0
O33 O 0.03742 0.30268 0.03043 0.0
O34 O 0.13403 0.45896 0.02624 0.0
O35 O 0.03012 0.47662 -0.00204 0.0
O36 O 0.80655 0.511 0.03996 0.0
O37 O 0.87947 0.44346 -0.004 0.0
O38 O 0.84523 0.55852 0.01926 0.0
C39 C 0.08069 0.6744 0.03104 0.0
C40 C 0.71279 0.23581 0.02148 0.0
C41 C 0.1214 0.3784 0.0304 0.0
C42 C 0.8629 0.30853 0.06028 0.0
C43 C 0.95837 0.46216 -0.00928 0.0
C44 C 0.79799 0.55299 0.02958 0.0
O45 O 0.08347 0.62346 0.02155 0.0
O46 O 0.26214 0.39981 0.04186 0.0
Zn47 Zn 0.38973 0.39556 0.04165 0.0
O48 O 0.46294 0.4789 0.02713 0.0
Zn49 Zn 0.56864 0.60016 0.03283 0.0
Zn50 Zn 0.37773 0.49171 0.01583 0.0
Zn51 Zn 0.51389 0.41863 0.01682 0.0
O52 O 0.69213 0.61462 0.02517 0.0
O53 O 0.63728 0.4558 0.0251 0.0
O54 O 0.48675 0.44593 0.05851 0.0
O55 O 0.60215 0.58964 0.05144 0.0
O56 O 0.52865 0.70518 0.0319 0.0
O57 O 0.38888 0.62071 0.0209 0.0
O58 O 0.40181 0.47706 -0.00372 0.0
O59 O 0.33735 0.25501 0.03516 0.0
O60 O 0.52357 0.44831 -0.00263 0.0
O61 O 0.42348 0.28102 0.01673 0.0
C62 C 0.20941 0.37276 0.03121 0.0
C63 C 0.70447 0.54199 0.02698 0.0
C64 C 0.44981 0.69656 0.02733 0.0
C65 C 0.56907 0.52373 0.06016 0.0
C66 C 0.46234 0.45925 -0.0094 0.0
C67 C 0.35481 0.22526 0.02421 0.0
O68 O 0.24808 0.38099 0.0199 0.0
O69 O 0.88023 0.51824 0.42928 0.0
Zn70 Zn 0.00931 0.50968 0.42816 0.0
O71 O 0.00509 0.4213 0.44158 0.0
Zn72 Zn 0.00652 0.31091 0.43315 0.0
Zn73 Zn 0.89496 0.37113 0.45256 0.0
Zn74 Zn 0.10682 0.47763 0.45427 0.0
O75 O 0.09317 0.27207 0.44227 0.0
O76 O 0.13391 0.37317 0.45888 0.0
O77 O 0.04915 0.46823 0.40966 0.0
O78 O 0.07001 0.34658 0.41606 0.0
O79 O 0.86873 0.20994 0.42985 0.0
O80 O 0.8318 0.22861 0.45058 0.0
O81 O 0.92077 0.42163 0.47176 0.0
O82 O 0.11758 0.6384 0.43522 0.0
O83 O 0.07619 0.5262 0.47076 0.0
O84 O 0.21032 0.59348 0.44634 0.0
C85 C 0.80933 0.47582 0.43745 0.0
C86 C 0.1588 0.33748 0.44944 0.0
C87 C 0.80767 0.18721 0.43914 0.0
C88 C 0.07945 0.40797 0.40743 0.0
C89 C -0.00326 0.49186 0.47676 0.0
C90 C 0.19348 0.6584 0.44194 0.0
O91 O 0.80689 0.41569 0.44599 0.0
O92 O 0.42275 0.30463 0.42499 0.0
Zn93 Zn 0.41753 0.43124 0.42548 0.0
O94 O 0.50789 0.50836 0.43937 0.0
Zn95 Zn 0.62649 0.61198 0.43265 0.0
Zn96 Zn 0.52666 0.42631 0.45059 0.0
Zn97 Zn 0.45033 0.56106 0.44996 0.0
O98 O 0.64529 0.73831 0.44021 0.0
O99 O 0.48787 0.68533 0.44192 0.0
O100 O 0.45882 0.52198 0.40828 0.0
O101 O 0.60555 0.63898 0.41404 0.0
O102 O 0.7335 0.57281 0.43313 0.0
O103 O 0.65461 0.43728 0.44504 0.0
O104 O 0.517 0.45255 0.47023 0.0
O105 O 0.27998 0.37894 0.43265 0.0
O106 O 0.48395 0.57188 0.46926 0.0
O107 O 0.31208 0.47204 0.45061 0.0
C108 C 0.40124 0.25454 0.43579 0.0
C109 C 0.57295 0.75168 0.43941 0.0
C110 C 0.72788 0.49612 0.43815 0.0
C111 C 0.53499 0.60394 0.40595 0.0
C112 C 0.49822 0.51255 0.47596 0.0
C113 C 0.25383 0.40055 0.44356 0.0
O114 O 0.41501 0.296 0.44706 0.0
O115 O 0.66821 0.08398 0.42546 0.0
Zn116 Zn 0.52693 0.97176 0.42368 0.0
O117 O 0.45963 0.97896 0.43915 0.0
Zn118 Zn 0.33401 0.95418 0.43531 0.0
Zn119 Zn 0.52238 0.09101 0.44867 0.0
Zn120 Zn 0.46826 0.89522 0.45141 0.0
O121 O 0.24478 0.82527 0.44346 0.0
O122 O 0.35097 0.77439 0.44695 0.0
O123 O 0.43557 0.94635 0.40687 0.0
O124 O 0.2987 0.91591 0.4166 0.0
O125 O 0.33206 0.08278 0.43675 0.0
O126 O 0.48868 0.18052 0.44035 0.0
O127 O 0.50521 0.07906 0.46876 0.0
O128 O 0.54283 0.855 0.42665 0.0
O129 O 0.47345 0.92809 0.47075 0.0
O130 O 0.58761 0.8914 0.4476 0.0
C131 C 0.70483 0.12855 0.43655 0.0
C132 C 0.26641 0.75812 0.44424 0.0
C133 C 0.40739 0.16687 0.43645 0.0
C134 C 0.34472 0.91753 0.40631 0.0
C135 C 0.49131 0.00763 0.476 0.0
C136 C 0.5839 0.8457 0.43709 0.0
O137 O 0.65377 0.13182 0.44589 0.0
O138 O 0.451 0.06642 0.92981 0.0
Zn139 Zn 0.4596 0.93858 0.92859 0.0
O140 O 0.54607 0.94124 0.94224 0.0
Zn141 Zn 0.65596 0.93862 0.93414 0.0
Zn142 Zn 0.59672 0.05238 0.95329 0.0
Zn143 Zn 0.48786 0.83903 0.95468 0.0
O144 O 0.69059 0.84734 0.94265 0.0
O145 O 0.59008 0.8085 0.95912 0.0
O146 O 0.50313 0.90323 0.91016 0.0
O147 O 0.62365 0.88111 0.91669 0.0
O148 O 0.75829 0.07479 0.9314 0.0
O149 O 0.7386 0.11538 0.95188 0.0
O150 O 0.54466 0.0279 0.97221 0.0
O151 O 0.32971 0.8302 0.93481 0.0
O152 O 0.44078 0.87155 0.97121 0.0
O153 O 0.37125 0.73686 0.94647 0.0
C154 C 0.49385 0.13805 0.93797 0.0
C155 C 0.62447 0.78246 0.94965 0.0
C156 C 0.78098 0.13725 0.94059 0.0
C157 C 0.56483 0.87535 0.90786 0.0
C158 C 0.47462 0.95219 0.97712 0.0
C159 C 0.30796 0.75402 0.94154 0.0
O160 O 0.55421 0.1414 0.94655 0.0
O161 O 0.88342 0.27221 0.9266 0.0
Zn162 Zn -0.0048 0.41151 0.92424 0.0
O163 O -0.01213 0.48553 0.93896 0.0
Zn164 Zn 0.01241 0.60983 0.93375 0.0
Zn165 Zn 0.87728 0.42691 0.94877 0.0
Zn166 Zn 0.07297 0.48094 0.95148 0.0
O167 O 0.14125 0.70259 0.94198 0.0
O168 O 0.19197 0.59723 0.94662 0.0
O169 O 0.02163 0.49439 0.90683 0.0
O170 O 0.05355 0.63727 0.91494 0.0
O171 O 0.88193 0.61115 0.93426 0.0
O172 O 0.78552 0.45843 0.9403 0.0
O173 O 0.89332 0.44959 0.96885 0.0
O174 O 0.10989 0.39444 0.92759 0.0
O175 O 0.04411 0.48278 0.97077 0.0
O176 O 0.07773 0.35984 0.94875 0.0
C177 C 0.83939 0.23947 0.93773 0.0
C178 C 0.20816 0.68122 0.94338 0.0
C179 C 0.79752 0.53654 0.93519 0.0
C180 C 0.05316 0.58555 0.90534 0.0
C181 C 0.9658 0.46594 0.97606 0.0
C182 C 0.1203 0.35722 0.93832 0.0
O183 O 0.83588 0.29372 0.94666 0.0
O184 O 0.65611 0.51869 0.92398 0.0
Zn185 Zn 0.5271 0.52233 0.92488 0.0
O186 O 0.45646 0.43479 0.93922 0.0
Zn187 Zn 0.35177 0.31369 0.93324 0.0
Zn188 Zn 0.54379 0.42284 0.95031 0.0
Zn189 Zn 0.4049 0.49103 0.9502 0.0
O190 O 0.22765 0.29557 0.94134 0.0
O191 O 0.2807 0.45397 0.94263 0.0
O192 O 0.4257 0.47469 0.90813 0.0
O193 O 0.31712 0.32664 0.91468 0.0
O194 O 0.39406 0.20982 0.93394 0.0
O195 O 0.53316 0.29452 0.94509 0.0
O196 O 0.52279 0.436 0.97012 0.0
O197 O 0.57945 0.66088 0.93247 0.0
O198 O 0.39673 0.45779 0.96939 0.0
O199 O 0.49225 0.62871 0.95091 0.0
C200 C 0.70969 0.54337 0.93456 0.0
C201 C 0.21384 0.36794 0.94062 0.0
C202 C 0.4729 0.21877 0.93859 0.0
C203 C 0.34472 0.39519 0.90638 0.0
C204 C 0.46035 0.44995 0.97598 0.0
C205 C 0.56103 0.68704 0.94368 0.0
O206 O 0.67201 0.53478 0.94596 0.0
O207 O 0.10879 0.50682 0.53712 0.0
Zn208 Zn -0.02023 0.51541 0.53821 0.0
O209 O -0.01596 0.60399 0.52482 0.0
Zn210 Zn -0.01764 0.71407 0.53332 0.0
Zn211 Zn 0.09446 0.65452 0.51389 0.0
Zn212 Zn 0.88239 0.54787 0.51212 0.0
O213 O 0.89617 0.75335 0.52416 0.0
O214 O 0.85505 0.65225 0.50755 0.0
O215 O 0.93989 0.5565 0.55671 0.0
O216 O 0.91807 0.67762 0.55035 0.0
O217 O 0.12017 0.81494 0.53673 0.0
O218 O 0.15752 0.79702 0.51599 0.0
O219 O 0.06895 0.60452 0.49465 0.0
O220 O 0.87149 0.38679 0.53116 0.0
O221 O 0.91349 0.49995 0.49562 0.0
O222 O 0.77887 0.43158 0.51997 0.0
C223 C 0.17985 0.54941 0.52898 0.0
C224 C 0.83036 0.68791 0.51702 0.0
C225 C 0.18145 0.83801 0.52746 0.0
C226 C 0.90901 0.61624 0.55896 0.0
C227 C -0.00701 0.53439 0.48963 0.0
C228 C 0.7956 0.36672 0.52443 0.0
O229 O 0.18245 0.60974 0.52046 0.0
O230 O 0.56657 0.72058 0.54154 0.0
Zn231 Zn 0.5719 0.59406 0.54104 0.0
O232 O 0.48144 0.51694 0.52717 0.0
Zn233 Zn 0.3628 0.41345 0.53389 0.0
Zn234 Zn 0.46272 0.59894 0.51593 0.0
Zn235 Zn 0.53893 0.46402 0.5166 0.0
O236 O 0.34409 0.28697 0.52641 0.0
O237 O 0.5015 0.33992 0.52471 0.0
O238 O 0.53079 0.5033 0.55824 0.0
O239 O 0.38375 0.38672 0.55252 0.0
O240 O 0.25572 0.45253 0.53336 0.0
O241 O 0.33465 0.58794 0.52142 0.0
O242 O 0.47257 0.57254 0.4963 0.0
O243 O 0.70943 0.64648 0.53385 0.0
O244 O 0.5052 0.45292 0.4973 0.0
O245 O 0.67719 0.55312 0.51592 0.0
C246 C 0.58804 0.77071 0.53075 0.0
C247 C 0.41644 0.27363 0.52725 0.0
C248 C 0.26132 0.52913 0.5283 0.0
C249 C 0.45444 0.42151 0.56059 0.0
C250 C 0.49116 0.51238 0.49058 0.0
C251 C 0.73549 0.62473 0.52294 0.0
O252 O 0.57425 0.72932 0.51947 0.0
O253 O 0.32093 0.94117 0.54118 0.0
Zn254 Zn 0.46248 0.05338 0.54297 0.0
O255 O 0.5295 0.04619 0.52747 0.0
Zn256 Zn 0.65523 0.07099 0.53124 0.0
Zn257 Zn 0.4667 0.93409 0.51796 0.0
Zn258 Zn 0.52043 0.1297 0.51521 0.0
O259 O 0.74412 0.19982 0.52304 0.0
O260 O 0.63788 0.25066 0.51956 0.0
O261 O 0.55437 0.0785 0.55975 0.0
O262 O 0.69111 0.10909 0.54996 0.0
O263 O 0.65716 0.94242 0.52973 0.0
O264 O 0.50039 0.84462 0.52628 0.0
O265 O 0.48364 0.94584 0.49787 0.0
O266 O 0.44681 0.17038 0.54001 0.0
O267 O 0.51472 0.09658 0.49587 0.0
O268 O 0.40122 0.13359 0.5191 0.0
C269 C 0.28431 0.89659 0.53008 0.0
C270 C 0.72253 0.26697 0.52221 0.0
C271 C 0.58185 0.85834 0.5301 0.0
C272 C 0.64524 0.1072 0.56028 0.0
C273 C 0.4971 0.01712 0.49062 0.0
C274 C 0.40546 0.17959 0.52959 0.0
O275 O 0.3354 0.89332 0.52075 0.0
O276 O 0.21259 0.19912 0.37482 0.0
Zn277 Zn 0.21783 0.33101 0.37435 0.0
O278 O 0.12757 0.31785 0.36045 0.0
Zn279 Zn 0.00898 0.3029 0.36716 0.0
Zn280 Zn 0.10883 0.21699 0.34924 0.0
Zn281 Zn 0.18516 0.42799 0.34983 0.0
O282 O -0.00977 0.41042 0.3596 0.0
O283 O 0.14765 0.51482 0.35786 0.0
O284 O 0.17654 0.38054 0.39154 0.0
O285 O 0.02985 0.3509 0.38578 0.0
O286 O 0.90199 0.15672 0.36668 0.0
O287 O -0.01906 0.10003 0.35478 0.0
O288 O 0.11842 0.2526 0.32959 0.0
O289 O 0.3554 0.41624 0.36719 0.0
O290 O 0.15165 0.40505 0.33052 0.0
O291 O 0.3234 0.47713 0.34921 0.0
C292 C 0.2342 0.17065 0.36403 0.0
C293 C 0.0626 0.49612 0.36039 0.0
C294 C 0.90764 0.08563 0.36166 0.0
C295 C 0.10041 0.38643 0.39387 0.0
C296 C 0.1373 0.33135 0.32384 0.0
C297 C 0.3816 0.46392 0.35627 0.0
O298 O 0.22055 0.19847 0.35276 0.0
O299 O 0.75525 0.95547 0.37052 0.0
Zn300 Zn 0.62619 0.81789 0.37163 0.0
O301 O 0.63047 0.73362 0.35823 0.0
Zn302 Zn 0.62908 0.62189 0.36669 0.0
Zn303 Zn 0.74061 0.79353 0.34725 0.0
Zn304 Zn 0.52873 0.68808 0.34555 0.0
O305 O 0.54225 0.49626 0.35761 0.0
O306 O 0.50158 0.55648 0.34097 0.0
O307 O 0.58622 0.73682 0.39014 0.0
O308 O 0.56568 0.59435 0.38378 0.0
O309 O 0.76687 0.65868 0.36998 0.0
O310 O 0.80371 0.71413 0.34925 0.0
O311 O 0.71481 0.81803 0.32805 0.0
O312 O 0.51799 0.83834 0.36455 0.0
O313 O 0.55934 0.76701 0.32903 0.0
O314 O 0.42524 0.70058 0.35345 0.0
C315 C 0.82619 0.9839 0.36236 0.0
C316 C 0.47671 0.49595 0.35041 0.0
C317 C 0.82789 0.69692 0.36069 0.0
C318 C 0.556 0.64631 0.39239 0.0
C319 C 0.6388 0.8121 0.32303 0.0
C320 C 0.44208 0.78237 0.35784 0.0
O321 O 0.82865 0.92619 0.35383 0.0
O322 O 0.9674 0.73319 0.37435 0.0
Zn323 Zn 0.10869 0.76228 0.37613 0.0
O324 O 0.17591 0.83673 0.36065 0.0
Zn325 Zn 0.30153 0.93759 0.36448 0.0
Zn326 Zn 0.11312 0.88593 0.35111 0.0
Zn327 Zn 0.16725 0.74427 0.34841 0.0
O328 O 0.39071 0.89787 0.35632 0.0
O329 O 0.28454 0.74076 0.35286 0.0
O330 O 0.20006 0.82845 0.39293 0.0
O331 O 0.33693 0.93477 0.38319 0.0
O332 O 0.30342 0.06812 0.36305 0.0
O333 O 0.14684 0.00922 0.35942 0.0
O334 O 0.1302 0.89086 0.33102 0.0
O335 O 0.09285 0.62961 0.37316 0.0
O336 O 0.16208 0.77171 0.32907 0.0
O337 O 0.04787 0.62118 0.35222 0.0
C338 C 0.93074 0.74109 0.36326 0.0
C339 C 0.36911 0.8091 0.35555 0.0
C340 C 0.22808 0.07685 0.36334 0.0
C341 C 0.29091 0.89051 0.39348 0.0
C342 C 0.14415 0.83328 0.3238 0.0
C343 C 0.05169 0.57921 0.36272 0.0
O344 O -0.01825 0.79536 0.35391 0.0
O345 O 0.59979 0.92083 0.75776 0.0
Zn346 Zn 0.71289 0.89159 0.75643 0.0
O347 O 0.70377 0.81627 0.77203 0.0
Zn348 Zn 0.72869 0.71491 0.76839 0.0
Zn349 Zn 0.59248 0.76844 0.78156 0.0
Zn350 Zn 0.78677 0.90914 0.78443 0.0
O351 O 0.85538 0.75384 0.77749 0.0
O352 O 0.90708 0.91192 0.78046 0.0
O353 O 0.74141 0.82591 0.73975 0.0
O354 O 0.77213 0.71972 0.74985 0.0
O355 O 0.59812 0.58469 0.76932 0.0
O356 O 0.50149 0.64436 0.77349 0.0
O357 O 0.60548 0.76562 0.80179 0.0
O358 O 0.82887 0.02393 0.7598 0.0
O359 O 0.75613 0.88311 0.80376 0.0
O360 O 0.79034 0.03269 0.78052 0.0
C361 C 0.55485 0.91318 0.76873 0.0
C362 C 0.92275 0.84237 0.77827 0.0
C363 C 0.51413 0.57641 0.76934 0.0
C364 C 0.77263 0.76523 0.73947 0.0
C365 C 0.67726 0.82279 0.80903 0.0
C366 C 0.83748 0.07445 0.77019 0.0
O367 O 0.55209 0.85946 0.77822 0.0
O368 O 0.1587 0.69347 0.76386 0.0
Zn369 Zn 0.16586 0.82879 0.76224 0.0
O370 O 0.26018 0.91753 0.77458 0.0
Zn371 Zn 0.36541 0.02605 0.76505 0.0
Zn372 Zn 0.31682 0.86131 0.78533 0.0
Zn373 Zn 0.2085 0.96639 0.7873 0.0
O374 O 0.40656 0.15463 0.77331 0.0
O375 O 0.31429 0.09942 0.79075 0.0
O376 O 0.19768 0.90011 0.74335 0.0
O377 O 0.32047 0.04599 0.74797 0.0
O378 O 0.46738 -0.00987 0.76159 0.0
O379 O 0.45788 0.94352 0.7827 0.0
O380 O 0.27139 0.83704 0.80467 0.0
O381 O 0.04027 0.81012 0.76962 0.0
O382 O 0.16823 0.8905 0.80409 0.0
O383 O 0.08742 0.94995 0.78025 0.0
C384 C 0.20706 0.66777 0.77146 0.0
C385 C 0.34539 0.15748 0.78097 0.0
C386 C 0.4957 0.95747 0.77111 0.0
C387 C 0.25533 -0.0111 0.74008 0.0
C388 C 0.20289 0.84408 0.80988 0.0
C389 C 0.02178 0.86756 0.77617 0.0
O390 O 0.27324 0.72797 0.77915 0.0
O391 O 0.37336 0.457 0.7579 0.0
Zn392 Zn 0.24582 0.32514 0.75812 0.0
O393 O 0.17264 0.3353 0.77263 0.0
Zn394 Zn 0.06696 0.35092 0.76695 0.0
Zn395 Zn 0.25785 0.43325 0.78395 0.0
Zn396 Zn 0.12157 0.22397 0.78293 0.0
O397 O 0.94344 0.24193 0.7746 0.0
O398 O -0.0018 0.13789 0.77464 0.0
O399 O 0.14875 0.27852 0.74125 0.0
O400 O 0.03344 0.30694 0.74833 0.0
O401 O 0.10702 0.49594 0.76787 0.0
O402 O 0.24671 0.55116 0.77888 0.0
O403 O 0.23381 0.39421 0.80349 0.0
O404 O 0.29825 0.237 0.76461 0.0
O405 O 0.11188 0.24379 0.80238 0.0
O406 O 0.21186 0.17665 0.78301 0.0
C407 C 0.42613 0.48274 0.76854 0.0
C408 C 0.93103 0.15694 0.77278 0.0
C409 C 0.18585 0.56614 0.77245 0.0
C410 C 0.06647 0.27409 0.7396 0.0
C411 C 0.17323 0.31581 0.80915 0.0
C412 C 0.28065 0.18966 0.77556 0.0
O413 O 0.38752 0.4523 0.77985 0.0
O414 O 0.06911 0.47054 0.25824 0.0
Zn415 Zn 0.06378 0.33865 0.25872 0.0
O416 O 0.15414 0.35192 0.27261 0.0
Zn417 Zn 0.27276 0.36702 0.26589 0.0
Zn418 Zn 0.17282 0.45269 0.28384 0.0
Zn419 Zn 0.09661 0.24162 0.28321 0.0
O420 O 0.29142 0.25925 0.27338 0.0
O421 O 0.13402 0.15485 0.27511 0.0
O422 O 0.10491 0.28896 0.24153 0.0
O423 O 0.25188 0.3193 0.24726 0.0
O424 O 0.37982 0.51318 0.26642 0.0
O425 O 0.30083 0.56972 0.27834 0.0
O426 O 0.16305 0.41675 0.30347 0.0
O427 O 0.92624 0.25354 0.2659 0.0
O428 O 0.13022 0.26443 0.30252 0.0
O429 O 0.95836 0.19255 0.28386 0.0
C430 C 0.04753 0.4991 0.26903 0.0
C431 C 0.21904 0.17359 0.27254 0.0
C432 C 0.37419 0.5842 0.27147 0.0
C433 C 0.18122 0.28343 0.23919 0.0
C434 C 0.14435 0.33803 0.30921 0.0
C435 C 0.90011 0.20582 0.27682 0.0
O436 O 0.06122 0.47139 0.2803 0.0
O437 O 0.52671 0.71435 0.26266 0.0
Zn438 Zn 0.6557 0.85191 0.26156 0.0
O439 O 0.6514 0.93631 0.27493 0.0
Zn440 Zn 0.65303 0.04799 0.26642 0.0
Zn441 Zn 0.54101 0.87648 0.28587 0.0
Zn442 Zn 0.75306 0.98194 0.28763 0.0
O443 O 0.73944 0.17359 0.27553 0.0
O444 O 0.78043 0.11369 0.29218 0.0
O445 O 0.69568 0.9327 0.24306 0.0
O446 O 0.71716 0.07558 0.24938 0.0
O447 O 0.51521 0.01109 0.26302 0.0
O448 O 0.47796 0.95592 0.28376 0.0
O449 O 0.56654 0.85218 0.30511 0.0
O450 O 0.76393 0.83157 0.26863 0.0
O451 O 0.72202 0.90316 0.30416 0.0
O452 O 0.85657 0.96907 0.27979 0.0
C453 C 0.45565 0.68594 0.27079 0.0
C454 C 0.80514 0.17404 0.28271 0.0
C455 C 0.45398 0.97295 0.27229 0.0
C456 C 0.72643 0.02327 0.24079 0.0
C457 C 0.64252 0.85814 0.31014 0.0
C458 C 0.83983 0.88745 0.27535 0.0
O459 O 0.45304 0.74369 0.27931 0.0
O460 O 0.31445 0.93661 0.2586 0.0
Zn461 Zn 0.17291 0.90727 0.25681 0.0
O462 O 0.10594 0.83305 0.27231 0.0
Zn463 Zn -0.01978 0.73212 0.26855 0.0
Zn464 Zn 0.16878 0.78387 0.28185 0.0
Zn465 Zn 0.11499 0.92569 0.28456 0.0
O466 O 0.89135 0.77206 0.27675 0.0
O467 O -0.00242 0.9292 0.2802 0.0
O468 O 0.08103 0.84038 0.24003 0.0
O469 O 0.9443 0.73426 0.24983 0.0
O470 O -0.02164 0.60164 0.27004 0.0
O471 O 0.13508 0.66063 0.27354 0.0
O472 O 0.15191 0.77896 0.30194 0.0
O473 O 0.18855 0.03996 0.25977 0.0
O474 O 0.12061 0.89849 0.3039 0.0
O475 O 0.23426 0.0487 0.28068 0.0
C476 C 0.35112 0.92869 0.26969 0.0
C477 C 0.91293 0.86082 0.27756 0.0
C478 C 0.05369 0.59291 0.26969 0.0
C479 C -0.00983 0.77818 0.23951 0.0
C480 C 0.13835 0.83679 0.30917 0.0
C481 C 0.22997 0.09051 0.27019 0.0
O482 O 0.30007 0.8744 0.27903 0.0
O483 O 0.75241 0.70698 0.87313 0.0
Zn484 Zn 0.64065 0.73444 0.87548 0.0
O485 O 0.64795 0.81587 0.86078 0.0
Zn486 Zn 0.62342 0.9156 0.866 0.0
Zn487 Zn 0.75856 0.86787 0.85098 0.0
Zn488 Zn 0.56279 0.72629 0.84826 0.0
O489 O 0.49458 0.87964 0.85778 0.0
O490 O 0.44382 0.72358 0.85313 0.0
O491 O 0.61415 0.79066 0.8929 0.0
O492 O 0.58228 0.90171 0.88481 0.0
O493 O 0.75389 0.04741 0.8655 0.0
O494 O 0.85032 -0.00887 0.85946 0.0
O495 O 0.74245 0.87478 0.8309 0.0
O496 O 0.52605 0.60268 0.87212 0.0
O497 O 0.59161 0.75728 0.82897 0.0
O498 O 0.558 0.60038 0.85095 0.0
C499 C 0.79641 0.71823 0.862 0.0
C500 C 0.42765 0.79138 0.85637 0.0
C501 C 0.83831 0.05723 0.86457 0.0
C502 C 0.5826 0.85024 0.8944 0.0
C503 C 0.66991 0.81884 0.82368 0.0
C504 C 0.51556 0.55511 0.86139 0.0
O505 O 0.79992 0.77598 0.85307 0.0
O506 O 0.1847 0.93364 0.86993 0.0
Zn507 Zn 0.17611 0.79717 0.87116 0.0
O508 O 0.08968 0.71341 0.85751 0.0
Zn509 Zn -0.0202 0.60084 0.86561 0.0
Zn510 Zn 0.0389 0.77388 0.84647 0.0
Zn511 Zn 0.14791 0.66956 0.84504 0.0
O512 O 0.94519 0.47501 0.85707 0.0
O513 O 0.04579 0.5367 0.84062 0.0
O514 O 0.13256 0.71815 0.88959 0.0
O515 O 0.01209 0.57552 0.88305 0.0
O516 O 0.87744 0.63465 0.86834 0.0
O517 O 0.89705 0.69472 0.84785 0.0
O518 O 0.09102 0.80182 0.82757 0.0
O519 O 0.30605 0.81873 0.86495 0.0
O520 O 0.19488 0.74932 0.82852 0.0
O521 O 0.26459 0.68407 0.85324 0.0
C522 C 0.14171 0.96237 0.86179 0.0
C523 C 0.01141 0.47633 0.8501 0.0
C524 C 0.85468 0.67427 0.85914 0.0
C525 C 0.0709 0.62854 0.89188 0.0
C526 C 0.16107 0.79626 0.82263 0.0
C527 C 0.32785 0.76442 0.8582 0.0
O528 O 0.08119 0.90531 0.85323 0.0
O529 O -0.02025 0.18081 0.87578 0.0
Zn530 Zn 0.10873 0.31348 0.87488 0.0
O531 O 0.17932 0.2966 0.86053 0.0
Zn532 Zn 0.28401 0.28013 0.86648 0.0
Zn533 Zn 0.09196 0.19739 0.84943 0.0
Zn534 Zn 0.23093 0.40447 0.84956 0.0
O535 O 0.40813 0.3861 0.85838 0.0
O536 O 0.35515 0.49152 0.85712 0.0
O537 O 0.21017 0.36707 0.89162 0.0
O538 O 0.31874 0.32765 0.88504 0.0
O539 O 0.24163 0.13395 0.8658 0.0
O540 O 0.10255 0.07962 0.85464 0.0
O541 O 0.1129 0.23181 0.82962 0.0
O542 O 0.05636 0.39971 0.86728 0.0
O543 O 0.23907 0.37959 0.83037 0.0
O544 O 0.14371 0.45492 0.84886 0.0
C545 C 0.92612 0.1519 0.86519 0.0
C546 C 0.422 0.47231 0.8591 0.0
C547 C 0.16276 0.06408 0.86114 0.0
C548 C 0.29114 0.36849 0.89336 0.0
C549 C 0.17534 0.30826 0.82377 0.0
C550 C 0.07487 0.44441 0.85608 0.0
O551 O 0.96374 0.18104 0.85379 0.0
O552 O 0.91697 0.55052 0.70866 0.0
Zn553 Zn 0.92099 0.68209 0.7082 0.0
O554 O 0.83596 0.6706 0.69369 0.0
Zn555 Zn 0.71573 0.65594 0.69937 0.0
Zn556 Zn 0.82224 0.57176 0.68249 0.0
Zn557 Zn 0.89549 0.78101 0.68326 0.0
O558 O 0.70143 0.76597 0.69175 0.0
O559 O 0.85964 0.86848 0.69145 0.0
O560 O 0.87216 0.72905 0.725 0.0
O561 O 0.7274 0.69932 0.71803 0.0
O562 O 0.61047 0.51144 0.69827 0.0
O563 O 0.69404 0.45451 0.68753 0.0
O564 O 0.83413 0.60868 0.66288 0.0
O565 O 0.06055 0.76927 0.70175 0.0
O566 O 0.86353 0.75987 0.6639 0.0
O567 O 0.03254 0.82709 0.68309 0.0
C568 C 0.94341 0.52434 0.69808 0.0
C569 C 0.77424 0.85054 0.69345 0.0
C570 C 0.61853 0.44057 0.69377 0.0
C571 C 0.79414 0.73275 0.7267 0.0
C572 C 0.85136 0.68707 0.65718 0.0
C573 C 0.08901 0.81491 0.69068 0.0
O574 O 0.934 0.55411 0.68672 0.0
O575 O 0.46519 0.31395 0.70228 0.0
Zn576 Zn 0.33759 0.17904 0.70378 0.0
O577 O 0.34243 0.08955 0.69146 0.0
Zn578 Zn 0.341 0.98122 0.70103 0.0
Zn579 Zn 0.45304 0.14586 0.68054 0.0
Zn580 Zn 0.23994 0.03975 0.67892 0.0
O581 O 0.25016 0.85165 0.69328 0.0
O582 O 0.21175 0.90603 0.67565 0.0
O583 O 0.29944 0.10847 0.7227 0.0
O584 O 0.28025 0.96356 0.71824 0.0
O585 O 0.4789 0.01647 0.70434 0.0
O586 O 0.51541 0.06579 0.68333 0.0
O587 O 0.42747 0.16857 0.66117 0.0
O588 O 0.23033 0.19809 0.69629 0.0
O589 O 0.27116 0.11379 0.66195 0.0
O590 O 0.13664 0.05669 0.68612 0.0
C591 C 0.53772 0.33949 0.69456 0.0
C592 C 0.18596 0.84826 0.68547 0.0
C593 C 0.53958 0.05074 0.69493 0.0
C594 C 0.27067 0.02008 0.72603 0.0
C595 C 0.35075 0.16021 0.65601 0.0
C596 C 0.1537 0.13984 0.68993 0.0
O597 O 0.54208 0.2795 0.68666 0.0
O598 O 0.68049 0.08692 0.70849 0.0
Zn599 Zn 0.82313 0.11614 0.70998 0.0
O600 O 0.8877 0.19121 0.69442 0.0
Zn601 Zn 0.01374 0.29178 0.69796 0.0
Zn602 Zn 0.82365 0.24037 0.68507 0.0
Zn603 Zn 0.87673 0.0991 0.68189 0.0
O604 O 0.1001 0.25355 0.68855 0.0
O605 O -0.00541 0.09556 0.68567 0.0
O606 O 0.91948 0.1818 0.72662 0.0
O607 O 0.05493 0.28647 0.71645 0.0
O608 O 0.01313 0.42198 0.69701 0.0
O609 O 0.85633 0.36282 0.69353 0.0
O610 O 0.83855 0.24651 0.66488 0.0
O611 O 0.8069 0.98368 0.70651 0.0
O612 O 0.8692 0.12679 0.66269 0.0
O613 O 0.75797 0.97596 0.68579 0.0
C614 C 0.64278 0.0948 0.69746 0.0
C615 C 0.07953 0.16503 0.68778 0.0
C616 C 0.9376 0.43053 0.69741 0.0
C617 C 0.01119 0.24153 0.72685 0.0
C618 C 0.85124 0.1886 0.65754 0.0
C619 C 0.76405 0.93372 0.69611 0.0
O620 O 0.69309 0.14912 0.68808 0.0
O621 O 0.17039 0.16463 0.09751 0.0
Zn622 Zn 0.29799 0.15732 0.09602 0.0
O623 O 0.29313 0.06294 0.10832 0.0
Zn624 Zn 0.29457 0.95607 0.09874 0.0
Zn625 Zn 0.18248 0.00861 0.11924 0.0
Zn626 Zn 0.39562 0.11557 0.12087 0.0
O627 O 0.38533 0.91723 0.10649 0.0
O628 O 0.4238 0.01001 0.12412 0.0
O629 O 0.33618 0.125 0.0771 0.0
O630 O 0.35541 -0.00071 0.08154 0.0
O631 O 0.15667 0.85346 0.09543 0.0
O632 O 0.12017 0.86618 0.11644 0.0
O633 O 0.208 0.05684 0.13861 0.0
O634 O 0.40524 0.2836 0.1035 0.0
O635 O 0.36434 0.15828 0.13784 0.0
O636 O 0.49893 0.2359 0.11368 0.0
C637 C 0.09782 0.1176 0.10521 0.0
C638 C 0.4496 0.97812 0.11429 0.0
C639 C 0.09599 0.82701 0.10483 0.0
C640 C 0.36499 0.06542 0.07376 0.0
C641 C 0.28473 0.12513 0.14377 0.0
C642 C 0.48188 0.30199 0.10986 0.0
O643 O 0.09342 0.0532 0.11312 0.0
O644 O 0.71858 0.94937 0.09109 0.0
Zn645 Zn 0.71453 0.07693 0.09155 0.0
O646 O 0.79957 0.15048 0.10606 0.0
Zn647 Zn 0.91981 0.25604 0.10038 0.0
Zn648 Zn 0.81326 0.06537 0.11726 0.0
Zn649 Zn 0.74004 0.20138 0.11648 0.0
O650 O 0.9341 0.38037 0.108 0.0
O651 O 0.77589 0.32467 0.10828 0.0
O652 O 0.76337 0.17276 0.07475 0.0
O653 O 0.90817 0.28776 0.08171 0.0
O654 O 0.02506 0.21677 0.10149 0.0
O655 O 0.94148 0.0763 0.11224 0.0
O656 O 0.80135 0.09044 0.13687 0.0
O657 O 0.57497 0.02453 0.098 0.0
O658 O 0.77198 0.21224 0.13584 0.0
O659 O 0.60299 0.11043 0.11665 0.0
C660 C 0.69213 0.89676 0.10167 0.0
C661 C 0.86129 0.39213 0.10628 0.0
C662 C 0.017 0.13786 0.106 0.0
C663 C 0.84141 0.25448 0.07304 0.0
C664 C 0.78413 0.15162 0.14257 0.0
C665 C 0.54652 0.04176 0.10907 0.0
O666 O 0.70152 0.93596 0.11304 0.0
O667 O 0.95507 0.72232 0.09127 0.0
Zn668 Zn 0.81242 0.60892 0.08978 0.0
O669 O 0.74788 0.61937 0.10535 0.0
Zn670 Zn 0.62183 0.59388 0.10181 0.0
Zn671 Zn 0.81193 0.73261 0.11469 0.0
Zn672 Zn 0.75891 0.53825 0.11787 0.0
O673 O 0.5355 0.4693 0.11123 0.0
O674 O 0.64102 0.41684 0.11411 0.0
O675 O 0.71607 0.57836 0.07314 0.0
O676 O 0.5806 0.54741 0.08333 0.0
O677 O 0.62243 0.72469 0.10276 0.0
O678 O 0.77925 0.82235 0.10622 0.0
O679 O 0.79706 0.72387 0.13489 0.0
O680 O 0.82862 0.49265 0.09324 0.0
O681 O 0.76655 0.57355 0.13707 0.0
O682 O 0.87763 0.53384 0.11396 0.0
C683 C -0.00721 0.7679 0.1023 0.0
C684 C 0.55606 0.40135 0.11201 0.0
C685 C 0.69796 0.80877 0.10236 0.0
C686 C 0.62436 0.54636 0.07292 0.0
C687 C 0.78445 0.6533 0.14223 0.0
C688 C 0.87149 0.48551 0.10364 0.0
O689 O 0.94249 0.77191 0.11169 0.0
O690 O 0.77645 0.82479 0.59184 0.0
Zn691 Zn 0.77181 0.69309 0.59222 0.0
O692 O 0.863 0.70644 0.60598 0.0
Zn693 Zn -0.01879 0.72099 0.59918 0.0
Zn694 Zn 0.88279 0.80743 0.61721 0.0
Zn695 Zn 0.8062 0.59649 0.61662 0.0
O696 O 0.00031 0.61371 0.60673 0.0
O697 O 0.84293 0.50942 0.60848 0.0
O698 O 0.81255 0.64388 0.57493 0.0
O699 O 0.95918 0.67274 0.5806 0.0
O700 O 0.08856 0.86689 0.59955 0.0
O701 O 0.01023 0.92392 0.61151 0.0
O702 O 0.8753 0.77228 0.63684 0.0
O703 O 0.6347 0.60727 0.59952 0.0
O704 O 0.84218 0.61989 0.63584 0.0
O705 O 0.66792 0.54735 0.6175 0.0
C706 C 0.75603 0.8536 0.60271 0.0
C707 C 0.92795 0.52802 0.60595 0.0
C708 C 0.08319 0.9381 0.60457 0.0
C709 C 0.88843 0.63767 0.57254 0.0
C710 C 0.85746 0.69376 0.64255 0.0
C711 C 0.60917 0.55998 0.61048 0.0
O712 O 0.77106 0.82628 0.61392 0.0
O713 O 0.23538 0.06841 0.59568 0.0
Zn714 Zn 0.36435 0.20611 0.5947 0.0
O715 O 0.36006 0.28956 0.60823 0.0
Zn716 Zn 0.36102 0.40157 0.59999 0.0
Zn717 Zn 0.25069 0.2286 0.6193 0.0
Zn718 Zn 0.46221 0.33451 0.62084 0.0
O719 O 0.44827 0.52675 0.60916 0.0
O720 O 0.48912 0.46563 0.62568 0.0
O721 O 0.40429 0.28825 0.5763 0.0
O722 O 0.42345 0.42993 0.5828 0.0
O723 O 0.2231 0.36469 0.5969 0.0
O724 O 0.1859 0.30668 0.61753 0.0
O725 O 0.27759 0.20167 0.63835 0.0
O726 O 0.4724 0.18543 0.60174 0.0
O727 O 0.43314 0.25354 0.63719 0.0
O728 O 0.56563 0.32431 0.61255 0.0
C729 C 0.16481 0.03964 0.60391 0.0
C730 C 0.51386 0.52692 0.61633 0.0
C731 C 0.16197 0.32532 0.60616 0.0
C732 C 0.43367 0.37868 0.57412 0.0
C733 C 0.35383 0.207 0.64319 0.0
C734 C 0.54856 0.24203 0.60836 0.0
O735 O 0.16288 0.09683 0.61257 0.0
O736 O 0.02284 0.28981 0.59245 0.0
Zn737 Zn 0.88169 0.26125 0.5905 0.0
O738 O 0.81402 0.18749 0.60599 0.0
Zn739 Zn 0.68849 0.0866 0.6021 0.0
Zn740 Zn 0.87624 0.13846 0.61567 0.0
Zn741 Zn 0.82274 0.2804 0.61819 0.0
O742 O 0.59949 0.12639 0.61024 0.0
O743 O 0.70574 0.28371 0.61355 0.0
O744 O 0.79025 0.19523 0.57366 0.0
O745 O 0.65306 0.08975 0.5834 0.0
O746 O 0.68646 0.95597 0.60349 0.0
O747 O 0.84263 0.01485 0.6075 0.0
O748 O 0.85851 0.13421 0.63571 0.0
O749 O 0.89795 0.39414 0.59333 0.0
O750 O 0.82746 0.25393 0.63762 0.0
O751 O 0.9423 0.40321 0.6143 0.0
C752 C 0.05919 0.28225 0.60359 0.0
C753 C 0.62125 0.21527 0.61084 0.0
C754 C 0.76184 0.94728 0.60343 0.0
C755 C 0.69922 0.13376 0.5731 0.0
C756 C 0.84491 0.1921 0.64291 0.0
C757 C 0.93887 0.44485 0.60374 0.0
O758 O 0.00784 0.22856 0.61296 0.0
O759 O 0.4002 0.14902 0.20411 0.0
Zn760 Zn 0.27122 0.15777 0.2051 0.0
O761 O 0.27547 0.2454 0.19155 0.0
Zn762 Zn 0.27449 0.3565 0.19977 0.0
Zn763 Zn 0.3848 0.29376 0.18047 0.0
Zn764 Zn 0.17332 0.18811 0.17894 0.0
O765 O 0.18728 0.39438 0.19058 0.0
O766 O 0.1465 0.29234 0.17408 0.0
O767 O 0.23138 0.20021 0.22349 0.0
O768 O 0.21206 0.32258 0.21696 0.0
O769 O 0.41242 0.45753 0.20286 0.0
O770 O 0.44963 0.43663 0.18223 0.0
O771 O 0.35786 0.23985 0.16142 0.0
O772 O 0.16313 0.02899 0.19806 0.0
O773 O 0.20234 0.13604 0.1626 0.0
O774 O 0.0699 0.0746 0.18725 0.0
C775 C 0.47072 0.19074 0.19587 0.0
C776 C 0.12168 0.32886 0.18342 0.0
C777 C 0.47356 0.47923 0.1936 0.0
C778 C 0.20197 0.26125 0.22566 0.0
C779 C 0.28164 0.16886 0.1566 0.0
C780 C 0.08697 0.0094 0.19144 0.0
O781 O 0.4726 0.2498 0.1872 0.0
O782 O 0.85913 0.36422 0.20792 0.0
Zn783 Zn 0.86373 0.23716 0.20753 0.0
O784 O 0.77252 0.15932 0.19377 0.0
Zn785 Zn 0.6543 0.05567 0.20057 0.0
Zn786 Zn 0.75271 0.24054 0.18255 0.0
Zn787 Zn 0.82931 0.10617 0.18313 0.0
O788 O 0.63516 0.92925 0.19302 0.0
O789 O 0.79253 0.98234 0.19126 0.0
O790 O 0.82298 0.14727 0.22481 0.0
O791 O 0.67635 0.02949 0.21915 0.0
O792 O 0.54695 0.09422 0.20021 0.0
O793 O 0.62527 0.22958 0.18825 0.0
O794 O 0.76017 0.21288 0.16291 0.0
O795 O 0.00084 0.28841 0.20023 0.0
O796 O 0.79334 0.09365 0.16391 0.0
O797 O 0.96761 0.19526 0.18225 0.0
C798 C 0.87952 0.41346 0.19705 0.0
C799 C 0.70751 0.91592 0.19378 0.0
C800 C 0.55233 0.17081 0.19519 0.0
C801 C 0.74708 0.06519 0.22721 0.0
C802 C 0.77803 0.15222 0.15719 0.0
C803 C 0.02637 0.26663 0.18927 0.0
O804 O 0.86445 0.37113 0.18583 0.0
O805 O 0.61266 0.58288 0.20731 0.0
Zn806 Zn 0.7538 0.6955 0.20926 0.0
O807 O 0.82153 0.68937 0.19378 0.0
Zn808 Zn 0.94705 0.71402 0.19768 0.0
Zn809 Zn 0.75932 0.57813 0.18409 0.0
Zn810 Zn 0.81288 0.77359 0.18158 0.0
O811 O 0.03609 0.84284 0.18955 0.0
O812 O 0.92984 0.8939 0.18624 0.0
O813 O 0.84519 0.72108 0.22611 0.0
O814 O -0.01761 0.75263 0.21639 0.0
O815 O 0.94909 0.58543 0.19629 0.0
O816 O 0.79294 0.48814 0.19226 0.0
O817 O 0.77708 0.59163 0.16406 0.0
O818 O 0.73747 0.81207 0.20642 0.0
O819 O 0.80829 0.74245 0.16214 0.0
O820 O 0.69327 0.77678 0.18544 0.0
C821 C 0.57633 0.53895 0.19617 0.0
C822 C 0.01431 0.90995 0.18896 0.0
C823 C 0.87372 0.50134 0.19634 0.0
C824 C 0.93622 0.75062 0.22668 0.0
C825 C 0.79078 0.66314 0.15685 0.0
C826 C 0.6966 0.82184 0.196 0.0
O827 O 0.62771 0.53661 0.1868 0.0
loop_
_geom_bond_atom_site_label_1
_geom_bond_atom_site_label_2
_geom_bond_distance
_geom_bond_site_symmetry_2
_ccdc_geom_bond_type
O0 Zn1 1.953 1_565 S
O0 C16 1.225 . S
Zn1 O0 1.953 1_545 S
Zn1 O2 1.949 . S
Zn1 O8 1.919 . S
Zn1 O13 1.924 . S
O2 Zn1 1.949 . S
O2 Zn3 1.923 . S
O2 Zn4 1.950 1_545 S
O2 Zn5 1.945 . S
Zn3 O2 1.923 . S
Zn3 O6 1.933 . S
Zn3 O9 1.942 . S
Zn3 O10 1.965 1_545 S
Zn4 O2 1.950 1_565 S
Zn4 O11 1.938 . S
Zn4 O12 1.906 . S
Zn4 O22 1.953 . S
Zn5 O2 1.945 . S
Zn5 O7 1.932 . S
Zn5 O14 1.977 . S
Zn5 O15 1.910 . S
O6 Zn3 1.933 . S
O6 C17 1.226 . S
O7 Zn5 1.932 . S
O7 C17 1.307 . S
O8 Zn1 1.919 . S
O8 C19 1.253 . S
O9 Zn3 1.942 . S
O9 C19 1.282 . S
O10 Zn3 1.965 1_565 S
O10 C18 1.303 . S
O11 Zn4 1.938 . S
O11 C18 1.247 . S
O12 Zn4 1.906 . S
O12 C20 1.304 1_565 S
O13 Zn1 1.924 . S
O13 C21 1.311 . S
O14 Zn5 1.977 . S
O14 C20 1.272 . S
O15 Zn5 1.910 . S
O15 C21 1.231 . S
C16 O0 1.225 . S
C16 O22 1.298 . S
C17 O6 1.226 . S
C17 O7 1.307 . S
C18 O10 1.303 . S
C18 O11 1.247 . S
C19 O8 1.253 . S
C19 O9 1.282 . S
C20 O12 1.304 1_545 S
C20 O14 1.272 . S
C21 O13 1.311 . S
C21 O15 1.231 . S
O22 Zn4 1.953 . S
O22 C16 1.298 . S
O23 Zn24 1.953 . S
O23 C39 1.225 . S
Zn24 O23 1.953 . S
Zn24 O25 1.949 . S
Zn24 O31 1.919 1_455 S
Zn24 O36 1.924 1_455 S
O25 Zn24 1.949 . S
O25 Zn26 1.923 . S
O25 Zn27 1.950 . S
O25 Zn28 1.945 1_455 S
Zn26 O25 1.923 . S
Zn26 O29 1.933 1_455 S
Zn26 O32 1.941 . S
Zn26 O33 1.965 . S
Zn27 O25 1.950 . S
Zn27 O34 1.938 . S
Zn27 O35 1.906 . S
Zn27 O45 1.953 . S
Zn28 O25 1.945 1_655 S
Zn28 O30 1.932 . S
Zn28 O37 1.977 . S
Zn28 O38 1.910 . S
O29 Zn26 1.933 1_655 S
O29 C40 1.226 . S
O30 Zn28 1.932 . S
O30 C40 1.307 . S
O31 Zn24 1.919 1_655 S
O31 C42 1.253 . S
O32 Zn26 1.941 . S
O32 C42 1.283 1_455 S
O33 Zn26 1.965 . S
O33 C41 1.303 . S
O34 Zn27 1.938 . S
O34 C41 1.247 . S
O35 Zn27 1.906 . S
O35 C43 1.304 1_455 S
O36 Zn24 1.924 1_655 S
O36 C44 1.311 . S
O37 Zn28 1.977 . S
O37 C43 1.272 . S
O38 Zn28 1.910 . S
O38 C44 1.231 . S
C39 O23 1.225 . S
C39 O45 1.298 . S
C40 O29 1.226 . S
C40 O30 1.307 . S
C41 O33 1.303 . S
C41 O34 1.247 . S
C42 O31 1.253 . S
C42 O32 1.283 1_655 S
C43 O35 1.304 1_655 S
C43 O37 1.272 . S
C44 O36 1.311 . S
C44 O38 1.231 . S
O45 Zn27 1.953 . S
O45 C39 1.298 . S
O46 Zn47 1.953 . S
O46 C62 1.225 . S
Zn47 O46 1.953 . S
Zn47 O48 1.949 . S
Zn47 O54 1.919 . S
Zn47 O59 1.924 . S
O48 Zn47 1.949 . S
O48 Zn49 1.923 . S
O48 Zn50 1.950 . S
O48 Zn51 1.945 . S
Zn49 O48 1.923 . S
Zn49 O52 1.933 . S
Zn49 O55 1.941 . S
Zn49 O56 1.965 . S
Zn50 O48 1.950 . S
Zn50 O57 1.938 . S
Zn50 O58 1.906 . S
Zn50 O68 1.953 . S
Zn51 O48 1.945 . S
Zn51 O53 1.932 . S
Zn51 O60 1.977 . S
Zn51 O61 1.910 . S
O52 Zn49 1.933 . S
O52 C63 1.226 . S
O53 Zn51 1.932 . S
O53 C63 1.307 . S
O54 Zn47 1.919 . S
O54 C65 1.253 . S
O55 Zn49 1.941 . S
O55 C65 1.283 . S
O56 Zn49 1.965 . S
O56 C64 1.303 . S
O57 Zn50 1.938 . S
O57 C64 1.247 . S
O58 Zn50 1.906 . S
O58 C66 1.304 . S
O59 Zn47 1.924 . S
O59 C67 1.311 . S
O60 Zn51 1.977 . S
O60 C66 1.272 . S
O61 Zn51 1.910 . S
O61 C67 1.231 . S
C62 O46 1.225 . S
C62 O68 1.298 . S
C63 O52 1.226 . S
C63 O53 1.307 . S
C64 O56 1.303 . S
C64 O57 1.247 . S
C65 O54 1.253 . S
C65 O55 1.283 . S
C66 O58 1.304 . S
C66 O60 1.272 . S
C67 O59 1.311 . S
C67 O61 1.231 . S
O68 Zn50 1.953 . S
O68 C62 1.298 . S
O69 Zn70 1.953 1_655 S
O69 C85 1.225 . S
Zn70 O69 1.953 1_455 S
Zn70 O71 1.949 . S
Zn70 O77 1.919 . S
Zn70 O82 1.924 . S
O71 Zn70 1.949 . S
O71 Zn72 1.923 . S
O71 Zn73 1.950 1_455 S
O71 Zn74 1.945 . S
Zn72 O71 1.923 . S
Zn72 O75 1.933 . S
Zn72 O78 1.942 . S
Zn72 O79 1.965 1_455 S
Zn73 O71 1.950 1_655 S
Zn73 O80 1.938 . S
Zn73 O81 1.906 . S
Zn73 O91 1.953 . S
Zn74 O71 1.945 . S
Zn74 O76 1.932 . S
Zn74 O83 1.977 . S
Zn74 O84 1.910 . S
O75 Zn72 1.933 . S
O75 C86 1.226 . S
O76 Zn74 1.932 . S
O76 C86 1.307 . S
O77 Zn70 1.919 . S
O77 C88 1.253 . S
O78 Zn72 1.942 . S
O78 C88 1.282 . S
O79 Zn72 1.965 1_655 S
O79 C87 1.303 . S
O80 Zn73 1.938 . S
O80 C87 1.247 . S
O81 Zn73 1.906 . S
O81 C89 1.304 1_655 S
O82 Zn70 1.924 . S
O82 C90 1.311 . S
O83 Zn74 1.977 . S
O83 C89 1.272 . S
O84 Zn74 1.910 . S
O84 C90 1.231 . S
C85 O69 1.225 . S
C85 O91 1.298 . S
C86 O75 1.226 . S
C86 O76 1.307 . S
C87 O79 1.303 . S
C87 O80 1.247 . S
C88 O77 1.253 . S
C88 O78 1.282 . S
C89 O81 1.304 1_455 S
C89 O83 1.272 . S
C90 O82 1.311 . S
C90 O84 1.231 . S
O91 Zn73 1.953 . S
O91 C85 1.298 . S
O92 Zn93 1.953 . S
O92 C108 1.225 . S
Zn93 O92 1.953 . S
Zn93 O94 1.949 . S
Zn93 O100 1.919 . S
Zn93 O105 1.924 . S
O94 Zn93 1.949 . S
O94 Zn95 1.923 . S
O94 Zn96 1.950 . S
O94 Zn97 1.945 . S
Zn95 O94 1.923 . S
Zn95 O98 1.933 . S
Zn95 O101 1.941 . S
Zn95 O102 1.965 . S
Zn96 O94 1.950 . S
Zn96 O103 1.938 . S
Zn96 O104 1.906 . S
Zn96 O114 1.953 . S
Zn97 O94 1.945 . S
Zn97 O99 1.932 . S
Zn97 O106 1.977 . S
Zn97 O107 1.910 . S
O98 Zn95 1.933 . S
O98 C109 1.226 . S
O99 Zn97 1.932 . S
O99 C109 1.307 . S
O100 Zn93 1.919 . S
O100 C111 1.253 . S
O101 Zn95 1.941 . S
O101 C111 1.283 . S
O102 Zn95 1.965 . S
O102 C110 1.303 . S
O103 Zn96 1.938 . S
O103 C110 1.247 . S
O104 Zn96 1.906 . S
O104 C112 1.304 . S
O105 Zn93 1.924 . S
O105 C113 1.311 . S
O106 Zn97 1.977 . S
O106 C112 1.272 . S
O107 Zn97 1.910 . S
O107 C113 1.231 . S
C108 O92 1.225 . S
C108 O114 1.298 . S
C109 O98 1.226 . S
C109 O99 1.307 . S
C110 O102 1.303 . S
C110 O103 1.247 . S
C111 O100 1.253 . S
C111 O101 1.283 . S
C112 O104 1.304 . S
C112 O106 1.272 . S
C113 O105 1.311 . S
C113 O107 1.231 . S
O114 Zn96 1.953 . S
O114 C108 1.298 . S
O115 Zn116 1.953 . S
O115 C131 1.225 . S
Zn116 O115 1.953 . S
Zn116 O117 1.949 . S
Zn116 O123 1.919 1_545 S
Zn116 O128 1.924 1_545 S
O117 Zn116 1.949 . S
O117 Zn118 1.923 . S
O117 Zn119 1.950 . S
O117 Zn120 1.945 1_545 S
Zn118 O117 1.923 . S
Zn118 O121 1.933 1_545 S
Zn118 O124 1.941 . S
Zn118 O125 1.965 . S
Zn119 O117 1.950 . S
Zn119 O126 1.938 . S
Zn119 O127 1.906 . S
Zn119 O137 1.953 . S
Zn120 O117 1.945 1_565 S
Zn120 O122 1.932 . S
Zn120 O129 1.977 . S
Zn120 O130 1.910 . S
O121 Zn118 1.933 1_565 S
O121 C132 1.226 . S
O122 Zn120 1.932 . S
O122 C132 1.307 . S
O123 Zn116 1.919 1_565 S
O123 C134 1.253 . S
O124 Zn118 1.941 . S
O124 C134 1.283 1_545 S
O125 Zn118 1.965 . S
O125 C133 1.303 . S
O126 Zn119 1.938 . S
O126 C133 1.247 . S
O127 Zn119 1.906 . S
O127 C135 1.304 1_545 S
O128 Zn116 1.924 1_565 S
O128 C136 1.311 . S
O129 Zn120 1.977 . S
O129 C135 1.272 . S
O130 Zn120 1.910 . S
O130 C136 1.231 . S
C131 O115 1.225 . S
C131 O137 1.298 . S
C132 O121 1.226 . S
C132 O122 1.307 . S
C133 O125 1.303 . S
C133 O126 1.247 . S
C134 O123 1.253 . S
C134 O124 1.283 1_565 S
C135 O127 1.304 1_565 S
C135 O129 1.272 . S
C136 O128 1.311 . S
C136 O130 1.231 . S
O137 Zn119 1.953 . S
O137 C131 1.298 . S
O138 Zn139 1.953 . S
O138 C154 1.225 . S
Zn139 O138 1.953 . S
Zn139 O140 1.949 . S
Zn139 O146 1.919 1_545 S
Zn139 O151 1.924 1_545 S
O140 Zn139 1.949 . S
O140 Zn141 1.923 . S
O140 Zn142 1.950 . S
O140 Zn143 1.945 1_545 S
Zn141 O140 1.923 . S
Zn141 O144 1.933 1_545 S
Zn141 O147 1.941 . S
Zn141 O148 1.965 . S
Zn142 O140 1.950 . S
Zn142 O149 1.938 . S
Zn142 O150 1.906 . S
Zn142 O160 1.953 . S
Zn143 O140 1.945 1_565 S
Zn143 O145 1.932 . S
Zn143 O152 1.977 . S
Zn143 O153 1.910 . S
O144 Zn141 1.933 1_565 S
O144 C155 1.226 . S
O145 Zn143 1.932 . S
O145 C155 1.307 . S
O146 Zn139 1.919 1_565 S
O146 C157 1.253 . S
O147 Zn141 1.941 . S
O147 C157 1.283 1_545 S
O148 Zn141 1.965 . S
O148 C156 1.303 . S
O149 Zn142 1.938 . S
O149 C156 1.247 . S
O150 Zn142 1.906 . S
O150 C158 1.304 1_545 S
O151 Zn139 1.924 1_565 S
O151 C159 1.311 . S
O152 Zn143 1.977 . S
O152 C158 1.272 . S
O153 Zn143 1.910 . S
O153 C159 1.231 . S
C154 O138 1.225 . S
C154 O160 1.298 . S
C155 O144 1.226 . S
C155 O145 1.307 . S
C156 O148 1.303 . S
C156 O149 1.247 . S
C157 O146 1.253 . S
C157 O147 1.283 1_565 S
C158 O150 1.304 1_565 S
C158 O152 1.272 . S
C159 O151 1.311 . S
C159 O153 1.231 . S
O160 Zn142 1.953 . S
O160 C154 1.298 . S
O161 Zn162 1.953 1_655 S
O161 C177 1.225 . S
Zn162 O161 1.953 1_455 S
Zn162 O163 1.949 . S
Zn162 O169 1.919 . S
Zn162 O174 1.924 . S
O163 Zn162 1.949 . S
O163 Zn164 1.923 . S
O163 Zn165 1.950 1_455 S
O163 Zn166 1.945 . S
Zn164 O163 1.923 . S
Zn164 O167 1.933 . S
Zn164 O170 1.942 . S
Zn164 O171 1.965 1_455 S
Zn165 O163 1.950 1_655 S
Zn165 O172 1.938 . S
Zn165 O173 1.906 . S
Zn165 O183 1.953 . S
Zn166 O163 1.945 . S
Zn166 O168 1.932 . S
Zn166 O175 1.977 . S
Zn166 O176 1.910 . S
O167 Zn164 1.933 . S
O167 C178 1.226 . S
O168 Zn166 1.932 . S
O168 C178 1.307 . S
O169 Zn162 1.919 . S
O169 C180 1.253 . S
O170 Zn164 1.942 . S
O170 C180 1.290 . S
O171 Zn164 1.965 1_655 S
O171 C179 1.303 . S
O172 Zn165 1.938 . S
O172 C179 1.247 . S
O173 Zn165 1.906 . S
O173 C181 1.304 1_655 S
O174 Zn162 1.924 . S
O174 C182 1.311 . S
O175 Zn166 1.977 . S
O175 C181 1.272 . S
O176 Zn166 1.910 . S
O176 C182 1.231 . S
C177 O161 1.225 . S
C177 O183 1.298 . S
C178 O167 1.226 . S
C178 O168 1.307 . S
C179 O171 1.303 . S
C179 O172 1.247 . S
C180 O169 1.253 . S
C180 O170 1.290 . S
C181 O173 1.304 1_455 S
C181 O175 1.272 . S
C182 O174 1.311 . S
C182 O176 1.231 . S
O183 Zn165 1.953 . S
O183 C177 1.298 . S
O184 Zn185 1.953 . S
O184 C200 1.225 . S
Zn185 O184 1.953 . S
Zn185 O186 1.949 . S
Zn185 O192 1.919 . S
Zn185 O197 1.924 . S
O186 Zn185 1.949 . S
O186 Zn187 1.923 . S
O186 Zn188 1.950 . S
O186 Zn189 1.945 . S
Zn187 O186 1.923 . S
Zn187 O190 1.933 . S
Zn187 O193 1.941 . S
Zn187 O194 1.965 . S
Zn188 O186 1.950 . S
Zn188 O195 1.938 . S
Zn188 O196 1.906 . S
Zn188 O206 1.953 . S
Zn189 O186 1.945 . S
Zn189 O191 1.932 . S
Zn189 O198 1.977 . S
Zn189 O199 1.910 . S
O190 Zn187 1.933 . S
O190 C201 1.226 . S
O191 Zn189 1.932 . S
O191 C201 1.307 . S
O192 Zn185 1.919 . S
O192 C203 1.253 . S
O193 Zn187 1.941 . S
O193 C203 1.283 . S
O194 Zn187 1.965 . S
O194 C202 1.303 . S
O195 Zn188 1.938 . S
O195 C202 1.247 . S
O196 Zn188 1.906 . S
O196 C204 1.304 . S
O197 Zn185 1.924 . S
O197 C205 1.311 . S
O198 Zn189 1.977 . S
O198 C204 1.272 . S
O199 Zn189 1.910 . S
O199 C205 1.231 . S
C200 O184 1.225 . S
C200 O206 1.298 . S
C201 O190 1.226 . S
C201 O191 1.307 . S
C202 O194 1.303 . S
C202 O195 1.247 . S
C203 O192 1.253 . S
C203 O193 1.283 . S
C204 O196 1.304 . S
C204 O198 1.272 . S
C205 O197 1.311 . S
C205 O199 1.231 . S
O206 Zn188 1.953 . S
O206 C200 1.298 . S
O207 Zn208 1.953 . S
O207 C223 1.225 . S
Zn208 O207 1.953 . S
Zn208 O209 1.949 . S
Zn208 O215 1.919 1_455 S
Zn208 O220 1.924 1_455 S
O209 Zn208 1.949 . S
O209 Zn210 1.923 . S
O209 Zn211 1.950 . S
O209 Zn212 1.945 1_455 S
Zn210 O209 1.923 . S
Zn210 O213 1.933 1_455 S
Zn210 O216 1.941 . S
Zn210 O217 1.965 . S
Zn211 O209 1.950 . S
Zn211 O218 1.938 . S
Zn211 O219 1.906 . S
Zn211 O229 1.953 . S
Zn212 O209 1.945 1_655 S
Zn212 O214 1.932 . S
Zn212 O221 1.977 . S
Zn212 O222 1.910 . S
O213 Zn210 1.933 1_655 S
O213 C224 1.226 . S
O214 Zn212 1.932 . S
O214 C224 1.307 . S
O215 Zn208 1.919 1_655 S
O215 C226 1.253 . S
O216 Zn210 1.941 . S
O216 C226 1.283 1_455 S
O217 Zn210 1.965 . S
O217 C225 1.303 . S
O218 Zn211 1.938 . S
O218 C225 1.247 . S
O219 Zn211 1.906 . S
O219 C227 1.304 1_455 S
O220 Zn208 1.924 1_655 S
O220 C228 1.311 . S
O221 Zn212 1.977 . S
O221 C227 1.272 . S
O222 Zn212 1.910 . S
O222 C228 1.231 . S
C223 O207 1.225 . S
C223 O229 1.298 . S
C224 O213 1.226 . S
C224 O214 1.307 . S
C225 O217 1.303 . S
C225 O218 1.247 . S
C226 O215 1.253 . S
C226 O216 1.283 1_655 S
C227 O219 1.304 1_655 S
C227 O221 1.272 . S
C228 O220 1.311 . S
C228 O222 1.231 . S
O229 Zn211 1.953 . S
O229 C223 1.298 . S
O230 Zn231 1.953 . S
O230 C246 1.225 . S
Zn231 O230 1.953 . S
Zn231 O232 1.949 . S
Zn231 O238 1.919 . S
Zn231 O243 1.924 . S
O232 Zn231 1.949 . S
O232 Zn233 1.923 . S
O232 Zn234 1.950 . S
O232 Zn235 1.945 . S
Zn233 O232 1.923 . S
Zn233 O236 1.933 . S
Zn233 O239 1.941 . S
Zn233 O240 1.965 . S
Zn234 O232 1.950 . S
Zn234 O241 1.938 . S
Zn234 O242 1.906 . S
Zn234 O252 1.953 . S
Zn235 O232 1.945 . S
Zn235 O237 1.932 . S
Zn235 O244 1.977 . S
Zn235 O245 1.910 . S
O236 Zn233 1.933 . S
O236 C247 1.226 . S
O237 Zn235 1.932 . S
O237 C247 1.307 . S
O238 Zn231 1.919 . S
O238 C249 1.253 . S
O239 Zn233 1.941 . S
O239 C249 1.283 . S
O240 Zn233 1.965 . S
O240 C248 1.303 . S
O241 Zn234 1.938 . S
O241 C248 1.247 . S
O242 Zn234 1.906 . S
O242 C250 1.304 . S
O243 Zn231 1.924 . S
O243 C251 1.311 . S
O244 Zn235 1.977 . S
O244 C250 1.272 . S
O245 Zn235 1.910 . S
O245 C251 1.231 . S
C246 O230 1.225 . S
C246 O252 1.298 . S
C247 O236 1.226 . S
C247 O237 1.307 . S
C248 O240 1.303 . S
C248 O241 1.247 . S
C249 O238 1.253 . S
C249 O239 1.283 . S
C250 O242 1.304 . S
C250 O244 1.272 . S
C251 O243 1.311 . S
C251 O245 1.231 . S
O252 Zn234 1.953 . S
O252 C246 1.298 . S
O253 Zn254 1.953 1_565 S
O253 C269 1.225 . S
Zn254 O253 1.953 1_545 S
Zn254 O255 1.949 . S
Zn254 O261 1.919 . S
Zn254 O266 1.924 . S
O255 Zn254 1.949 . S
O255 Zn256 1.923 . S
O255 Zn257 1.950 1_545 S
O255 Zn258 1.945 . S
Zn256 O255 1.923 . S
Zn256 O259 1.933 . S
Zn256 O262 1.942 . S
Zn256 O263 1.965 1_545 S
Zn257 O255 1.950 1_565 S
Zn257 O264 1.938 . S
Zn257 O265 1.906 . S
Zn257 O275 1.953 . S
Zn258 O255 1.945 . S
Zn258 O260 1.932 . S
Zn258 O267 1.977 . S
Zn258 O268 1.910 . S
O259 Zn256 1.933 . S
O259 C270 1.226 . S
O260 Zn258 1.932 . S
O260 C270 1.307 . S
O261 Zn254 1.919 . S
O261 C272 1.253 . S
O262 Zn256 1.942 . S
O262 C272 1.290 . S
O263 Zn256 1.965 1_565 S
O263 C271 1.303 . S
O264 Zn257 1.938 . S
O264 C271 1.247 . S
O265 Zn257 1.906 . S
O265 C273 1.304 1_565 S
O266 Zn254 1.924 . S
O266 C274 1.311 . S
O267 Zn258 1.977 . S
O267 C273 1.272 . S
O268 Zn258 1.910 . S
O268 C274 1.231 . S
C269 O253 1.225 . S
C269 O275 1.298 . S
C270 O259 1.226 . S
C270 O260 1.307 . S
C271 O263 1.303 . S
C271 O264 1.247 . S
C272 O261 1.253 . S
C272 O262 1.290 . S
C273 O265 1.304 1_545 S
C273 O267 1.272 . S
C274 O266 1.311 . S
C274 O268 1.231 . S
O275 Zn257 1.953 . S
O275 C269 1.298 . S
O276 Zn277 1.953 . S
O276 C292 1.225 . S
Zn277 O276 1.953 . S
Zn277 O278 1.949 . S
Zn277 O284 1.919 . S
Zn277 O289 1.924 . S
O278 Zn277 1.949 . S
O278 Zn279 1.923 . S
O278 Zn280 1.950 . S
O278 Zn281 1.945 . S
Zn279 O278 1.923 . S
Zn279 O282 1.933 . S
Zn279 O285 1.941 . S
Zn279 O286 1.965 1_455 S
Zn280 O278 1.950 . S
Zn280 O287 1.938 1_455 S
Zn280 O288 1.906 . S
Zn280 O298 1.953 . S
Zn281 O278 1.945 . S
Zn281 O283 1.932 . S
Zn281 O290 1.977 . S
Zn281 O291 1.910 . S
O282 Zn279 1.933 . S
O282 C293 1.226 . S
O283 Zn281 1.932 . S
O283 C293 1.307 . S
O284 Zn277 1.919 . S
O284 C295 1.253 . S
O285 Zn279 1.941 . S
O285 C295 1.283 . S
O286 Zn279 1.965 1_655 S
O286 C294 1.303 . S
O287 Zn280 1.938 1_655 S
O287 C294 1.247 . S
O288 Zn280 1.906 . S
O288 C296 1.304 . S
O289 Zn277 1.924 . S
O289 C297 1.311 . S
O290 Zn281 1.977 . S
O290 C296 1.272 . S
O291 Zn281 1.910 . S
O291 C297 1.231 . S
C292 O276 1.225 . S
C292 O298 1.298 . S
C293 O282 1.226 . S
C293 O283 1.307 . S
C294 O286 1.303 . S
C294 O287 1.247 . S
C295 O284 1.253 . S
C295 O285 1.283 . S
C296 O288 1.304 . S
C296 O290 1.272 . S
C297 O289 1.311 . S
C297 O291 1.231 . S
O298 Zn280 1.953 . S
O298 C292 1.298 . S
O299 Zn300 1.953 1_545 S
O299 C315 1.225 . S
Zn300 O299 1.953 1_565 S
Zn300 O301 1.949 . S
Zn300 O307 1.919 . S
Zn300 O312 1.924 . S
O301 Zn300 1.949 . S
O301 Zn302 1.923 . S
O301 Zn303 1.950 . S
O301 Zn304 1.945 . S
Zn302 O301 1.923 . S
Zn302 O305 1.933 . S
Zn302 O308 1.941 . S
Zn302 O309 1.965 . S
Zn303 O301 1.950 . S
Zn303 O310 1.938 . S
Zn303 O311 1.906 . S
Zn303 O321 1.953 1_565 S
Zn304 O301 1.945 . S
Zn304 O306 1.932 . S
Zn304 O313 1.977 . S
Zn304 O314 1.910 . S
O305 Zn302 1.933 . S
O305 C316 1.226 . S
O306 Zn304 1.932 . S
O306 C316 1.307 . S
O307 Zn300 1.919 . S
O307 C318 1.253 . S
O308 Zn302 1.941 . S
O308 C318 1.283 . S
O309 Zn302 1.965 . S
O309 C317 1.303 . S
O310 Zn303 1.938 . S
O310 C317 1.247 . S
O311 Zn303 1.906 . S
O311 C319 1.304 . S
O312 Zn300 1.924 . S
O312 C320 1.311 . S
O313 Zn304 1.977 . S
O313 C319 1.272 . S
O314 Zn304 1.910 . S
O314 C320 1.231 . S
C315 O299 1.225 . S
C315 O321 1.298 . S
C316 O305 1.226 . S
C316 O306 1.307 . S
C317 O309 1.303 . S
C317 O310 1.247 . S
C318 O307 1.253 . S
C318 O308 1.283 . S
C319 O311 1.304 . S
C319 O313 1.272 . S
C320 O312 1.311 . S
C320 O314 1.231 . S
O321 Zn303 1.953 1_545 S
O321 C315 1.298 . S
O322 Zn323 1.953 . S
O322 C338 1.225 1_455 S
Zn323 O322 1.953 . S
Zn323 O324 1.949 . S
Zn323 O330 1.919 . S
Zn323 O335 1.924 . S
O324 Zn323 1.949 . S
O324 Zn325 1.923 . S
O324 Zn326 1.950 . S
O324 Zn327 1.945 . S
Zn325 O324 1.923 . S
Zn325 O328 1.933 1_565 S
Zn325 O331 1.941 1_565 S
Zn325 O332 1.965 1_565 S
Zn326 O324 1.950 . S
Zn326 O333 1.938 1_565 S
Zn326 O334 1.906 . S
Zn326 O344 1.953 1_455 S
Zn327 O324 1.945 . S
Zn327 O329 1.932 . S
Zn327 O336 1.977 . S
Zn327 O337 1.910 . S
O328 Zn325 1.933 1_545 S
O328 C339 1.226 1_545 S
O329 Zn327 1.932 . S
O329 C339 1.307 . S
O330 Zn323 1.919 . S
O330 C341 1.253 . S
O331 Zn325 1.941 1_545 S
O331 C341 1.283 1_545 S
O332 Zn325 1.965 1_545 S
O332 C340 1.303 . S
O333 Zn326 1.938 1_545 S
O333 C340 1.247 . S
O334 Zn326 1.906 . S
O334 C342 1.304 . S
O335 Zn323 1.924 . S
O335 C343 1.311 . S
O336 Zn327 1.977 . S
O336 C342 1.272 . S
O337 Zn327 1.910 . S
O337 C343 1.231 . S
C338 O322 1.225 1_655 S
C338 O344 1.298 . S
C339 O328 1.226 1_565 S
C339 O329 1.307 . S
C340 O332 1.303 . S
C340 O333 1.247 . S
C341 O330 1.253 . S
C341 O331 1.283 1_565 S
C342 O334 1.304 . S
C342 O336 1.272 . S
C343 O335 1.311 . S
C343 O337 1.231 . S
O344 Zn326 1.953 1_655 S
O344 C338 1.298 . S
O345 Zn346 1.953 . S
O345 C361 1.225 . S
Zn346 O345 1.953 . S
Zn346 O347 1.949 . S
Zn346 O353 1.919 . S
Zn346 O358 1.924 1_565 S
O347 Zn346 1.949 . S
O347 Zn348 1.923 . S
O347 Zn349 1.950 . S
O347 Zn350 1.945 . S
Zn348 O347 1.923 . S
Zn348 O351 1.933 . S
Zn348 O354 1.941 . S
Zn348 O355 1.965 . S
Zn349 O347 1.950 . S
Zn349 O356 1.938 . S
Zn349 O357 1.906 . S
Zn349 O367 1.953 . S
Zn350 O347 1.945 . S
Zn350 O352 1.932 . S
Zn350 O359 1.977 . S
Zn350 O360 1.910 1_565 S
O351 Zn348 1.933 . S
O351 C362 1.226 . S
O352 Zn350 1.932 . S
O352 C362 1.307 . S
O353 Zn346 1.919 . S
O353 C364 1.253 . S
O354 Zn348 1.941 . S
O354 C364 1.283 . S
O355 Zn348 1.965 . S
O355 C363 1.303 . S
O356 Zn349 1.938 . S
O356 C363 1.247 . S
O357 Zn349 1.906 . S
O357 C365 1.304 . S
O358 Zn346 1.924 1_545 S
O358 C366 1.311 . S
O359 Zn350 1.977 . S
O359 C365 1.272 . S
O360 Zn350 1.910 1_545 S
O360 C366 1.231 . S
C361 O345 1.225 . S
C361 O367 1.298 . S
C362 O351 1.226 . S
C362 O352 1.307 . S
C363 O355 1.303 . S
C363 O356 1.247 . S
C364 O353 1.253 . S
C364 O354 1.283 . S
C365 O357 1.304 . S
C365 O359 1.272 . S
C366 O358 1.311 . S
C366 O360 1.231 . S
O367 Zn349 1.953 . S
O367 C361 1.298 . S
O368 Zn369 1.953 . S
O368 C384 1.225 . S
Zn369 O368 1.953 . S
Zn369 O370 1.949 . S
Zn369 O376 1.919 . S
Zn369 O381 1.919 1_455 S
O370 Zn369 1.949 . S
O370 Zn371 1.923 . S
O370 Zn372 1.950 . S
O370 Zn373 1.945 . S
Zn371 O370 1.923 . S
Zn371 O374 1.933 1_565 S
Zn371 O377 1.941 . S
Zn371 O378 1.965 . S
Zn372 O370 1.950 . S
Zn372 O379 1.938 . S
Zn372 O380 1.906 . S
Zn372 O390 1.953 . S
Zn373 O370 1.945 . S
Zn373 O375 1.932 1_565 S
Zn373 O382 1.977 . S
Zn373 O383 1.910 1_455 S
O374 Zn371 1.933 1_545 S
O374 C385 1.226 . S
O375 Zn373 1.932 1_545 S
O375 C385 1.307 . S
O376 Zn369 1.919 . S
O376 C387 1.253 . S
O377 Zn371 1.941 . S
O377 C387 1.283 . S
O378 Zn371 1.965 . S
O378 C386 1.303 . S
O379 Zn372 1.938 . S
O379 C386 1.247 . S
O380 Zn372 1.906 . S
O380 C388 1.304 . S
O381 Zn369 1.919 1_655 S
O381 C389 1.315 . S
O382 Zn373 1.977 . S
O382 C388 1.272 . S
O383 Zn373 1.910 1_655 S
O383 C389 1.231 . S
C384 O368 1.225 . S
C384 O390 1.298 . S
C385 O374 1.226 . S
C385 O375 1.307 . S
C386 O378 1.303 . S
C386 O379 1.247 . S
C387 O376 1.253 . S
C387 O377 1.283 . S
C388 O380 1.304 . S
C388 O382 1.272 . S
C389 O381 1.315 . S
C389 O383 1.231 . S
O390 Zn372 1.953 . S
O390 C384 1.298 . S
O391 Zn392 1.953 . S
O391 C407 1.225 . S
Zn392 O391 1.953 . S
Zn392 O393 1.949 . S
Zn392 O399 1.919 . S
Zn392 O404 1.924 . S
O393 Zn392 1.949 . S
O393 Zn394 1.923 . S
O393 Zn395 1.950 . S
O393 Zn396 1.945 . S
Zn394 O393 1.923 . S
Zn394 O397 1.933 1_455 S
Zn394 O400 1.941 . S
Zn394 O401 1.965 . S
Zn395 O393 1.950 . S
Zn395 O402 1.938 . S
Zn395 O403 1.906 . S
Zn395 O413 1.953 . S
Zn396 O393 1.945 . S
Zn396 O398 1.932 1_455 S
Zn396 O405 1.977 . S
Zn396 O406 1.910 . S
O397 Zn394 1.933 1_655 S
O397 C408 1.226 . S
O398 Zn396 1.932 1_655 S
O398 C408 1.307 . S
O399 Zn392 1.919 . S
O399 C410 1.253 . S
O400 Zn394 1.941 . S
O400 C410 1.283 . S
O401 Zn394 1.965 . S
O401 C409 1.303 . S
O402 Zn395 1.938 . S
O402 C409 1.247 . S
O403 Zn395 1.906 . S
O403 C411 1.304 . S
O404 Zn392 1.924 . S
O404 C412 1.311 . S
O405 Zn396 1.977 . S
O405 C411 1.272 . S
O406 Zn396 1.910 . S
O406 C412 1.231 . S
C407 O391 1.225 . S
C407 O413 1.298 . S
C408 O397 1.226 . S
C408 O398 1.307 . S
C409 O401 1.303 . S
C409 O402 1.247 . S
C410 O399 1.253 . S
C410 O400 1.283 . S
C411 O403 1.304 . S
C411 O405 1.272 . S
C412 O404 1.311 . S
C412 O406 1.231 . S
O413 Zn395 1.953 . S
O413 C407 1.298 . S
O414 Zn415 1.953 . S
O414 C430 1.225 . S
Zn415 O414 1.953 . S
Zn415 O416 1.949 . S
Zn415 O422 1.919 . S
Zn415 O427 1.918 1_455 S
O416 Zn415 1.949 . S
O416 Zn417 1.923 . S
O416 Zn418 1.950 . S
O416 Zn419 1.945 . S
Zn417 O416 1.923 . S
Zn417 O420 1.933 . S
Zn417 O423 1.941 . S
Zn417 O424 1.965 . S
Zn418 O416 1.950 . S
Zn418 O425 1.938 . S
Zn418 O426 1.906 . S
Zn418 O436 1.953 . S
Zn419 O416 1.945 . S
Zn419 O421 1.932 . S
Zn419 O428 1.977 . S
Zn419 O429 1.910 1_455 S
O420 Zn417 1.933 . S
O420 C431 1.226 . S
O421 Zn419 1.932 . S
O421 C431 1.307 . S
O422 Zn415 1.919 . S
O422 C433 1.253 . S
O423 Zn417 1.941 . S
O423 C433 1.283 . S
O424 Zn417 1.965 . S
O424 C432 1.303 . S
O425 Zn418 1.938 . S
O425 C432 1.247 . S
O426 Zn418 1.906 . S
O426 C434 1.304 . S
O427 Zn415 1.918 1_655 S
O427 C435 1.313 . S
O428 Zn419 1.977 . S
O428 C434 1.272 . S
O429 Zn419 1.910 1_655 S
O429 C435 1.231 . S
C430 O414 1.225 . S
C430 O436 1.298 . S
C431 O420 1.226 . S
C431 O421 1.307 . S
C432 O424 1.303 . S
C432 O425 1.247 . S
C433 O422 1.253 . S
C433 O423 1.283 . S
C434 O426 1.304 . S
C434 O428 1.272 . S
C435 O427 1.313 . S
C435 O429 1.231 . S
O436 Zn418 1.953 . S
O436 C430 1.298 . S
O437 Zn438 1.953 . S
O437 C453 1.225 . S
Zn438 O437 1.953 . S
Zn438 O439 1.949 . S
Zn438 O445 1.919 . S
Zn438 O450 1.924 . S
O439 Zn438 1.949 . S
O439 Zn440 1.923 . S
O439 Zn441 1.950 . S
O439 Zn442 1.945 . S
Zn440 O439 1.923 . S
Zn440 O443 1.933 1_565 S
Zn440 O446 1.941 . S
Zn440 O447 1.965 . S
Zn441 O439 1.950 . S
Zn441 O448 1.938 . S
Zn441 O449 1.906 . S
Zn441 O459 1.953 . S
Zn442 O439 1.945 . S
Zn442 O444 1.932 1_565 S
Zn442 O451 1.977 . S
Zn442 O452 1.910 . S
O443 Zn440 1.933 1_545 S
O443 C454 1.226 . S
O444 Zn442 1.932 1_545 S
O444 C454 1.307 . S
O445 Zn438 1.919 . S
O445 C456 1.253 . S
O446 Zn440 1.941 . S
O446 C456 1.283 . S
O447 Zn440 1.965 . S
O447 C455 1.303 . S
O448 Zn441 1.938 . S
O448 C455 1.247 . S
O449 Zn441 1.906 . S
O449 C457 1.304 . S
O450 Zn438 1.924 . S
O450 C458 1.311 . S
O451 Zn442 1.977 . S
O451 C457 1.272 . S
O452 Zn442 1.910 . S
O452 C458 1.231 . S
C453 O437 1.225 . S
C453 O459 1.298 . S
C454 O443 1.226 . S
C454 O444 1.307 . S
C455 O447 1.303 . S
C455 O448 1.247 . S
C456 O445 1.253 . S
C456 O446 1.283 . S
C457 O449 1.304 . S
C457 O451 1.272 . S
C458 O450 1.311 . S
C458 O452 1.231 . S
O459 Zn441 1.953 . S
O459 C453 1.298 . S
O460 Zn461 1.953 . S
O460 C476 1.225 . S
Zn461 O460 1.953 . S
Zn461 O462 1.949 . S
Zn461 O468 1.919 . S
Zn461 O473 1.924 1_565 S
O462 Zn461 1.949 . S
O462 Zn463 1.923 . S
O462 Zn464 1.950 . S
O462 Zn465 1.945 . S
Zn463 O462 1.923 . S
Zn463 O466 1.933 1_455 S
Zn463 O469 1.941 . S
Zn463 O470 1.965 . S
Zn464 O462 1.950 . S
Zn464 O471 1.938 . S
Zn464 O472 1.906 . S
Zn464 O482 1.953 . S
Zn465 O462 1.945 . S
Zn465 O467 1.932 1_455 S
Zn465 O474 1.977 . S
Zn465 O475 1.910 1_565 S
O466 Zn463 1.933 1_655 S
O466 C477 1.226 . S
O467 Zn465 1.932 1_655 S
O467 C477 1.307 . S
O468 Zn461 1.919 . S
O468 C479 1.253 . S
O469 Zn463 1.941 . S
O469 C479 1.283 . S
O470 Zn463 1.965 . S
O470 C478 1.303 . S
O471 Zn464 1.938 . S
O471 C478 1.247 . S
O472 Zn464 1.906 . S
O472 C480 1.304 . S
O473 Zn461 1.924 1_545 S
O473 C481 1.311 . S
O474 Zn465 1.977 . S
O474 C480 1.272 . S
O475 Zn465 1.910 1_545 S
O475 C481 1.231 . S
C476 O460 1.225 . S
C476 O482 1.298 . S
C477 O466 1.226 . S
C477 O467 1.307 . S
C478 O470 1.303 . S
C478 O471 1.247 . S
C479 O468 1.253 . S
C479 O469 1.283 . S
C480 O472 1.304 . S
C480 O474 1.272 . S
C481 O473 1.311 . S
C481 O475 1.231 . S
O482 Zn464 1.953 . S
O482 C476 1.298 . S
O483 Zn484 1.953 . S
O483 C499 1.225 . S
Zn484 O483 1.953 . S
Zn484 O485 1.949 . S
Zn484 O491 1.919 . S
Zn484 O496 1.924 . S
O485 Zn484 1.949 . S
O485 Zn486 1.923 . S
O485 Zn487 1.950 . S
O485 Zn488 1.945 . S
Zn486 O485 1.923 . S
Zn486 O489 1.933 1_565 S
Zn486 O492 1.941 1_565 S
Zn486 O493 1.965 1_565 S
Zn487 O485 1.950 . S
Zn487 O494 1.938 1_565 S
Zn487 O495 1.906 . S
Zn487 O505 1.953 . S
Zn488 O485 1.945 . S
Zn488 O490 1.932 . S
Zn488 O497 1.977 . S
Zn488 O498 1.910 . S
O489 Zn486 1.933 1_545 S
O489 C500 1.226 1_545 S
O490 Zn488 1.932 . S
O490 C500 1.307 . S
O491 Zn484 1.919 . S
O491 C502 1.253 . S
O492 Zn486 1.941 1_545 S
O492 C502 1.283 1_545 S
O493 Zn486 1.965 1_545 S
O493 C501 1.303 . S
O494 Zn487 1.938 1_545 S
O494 C501 1.247 . S
O495 Zn487 1.906 . S
O495 C503 1.304 . S
O496 Zn484 1.924 . S
O496 C504 1.311 . S
O497 Zn488 1.977 . S
O497 C503 1.272 . S
O498 Zn488 1.910 . S
O498 C504 1.231 . S
C499 O483 1.225 . S
C499 O505 1.298 . S
C500 O489 1.226 1_565 S
C500 O490 1.307 . S
C501 O493 1.303 . S
C501 O494 1.247 . S
C502 O491 1.253 . S
C502 O492 1.283 1_565 S
C503 O495 1.304 . S
C503 O497 1.272 . S
C504 O496 1.311 . S
C504 O498 1.231 . S
O505 Zn487 1.953 . S
O505 C499 1.298 . S
O506 Zn507 1.953 1_545 S
O506 C522 1.225 . S
Zn507 O506 1.953 1_565 S
Zn507 O508 1.949 . S
Zn507 O514 1.919 . S
Zn507 O519 1.924 . S
O508 Zn507 1.949 . S
O508 Zn509 1.923 . S
O508 Zn510 1.950 . S
O508 Zn511 1.945 . S
Zn509 O508 1.923 . S
Zn509 O512 1.933 . S
Zn509 O515 1.941 . S
Zn509 O516 1.965 1_455 S
Zn510 O508 1.950 . S
Zn510 O517 1.938 1_455 S
Zn510 O518 1.906 . S
Zn510 O528 1.953 1_565 S
Zn511 O508 1.945 . S
Zn511 O513 1.932 . S
Zn511 O520 1.977 . S
Zn511 O521 1.910 . S
O512 Zn509 1.933 . S
O512 C523 1.226 . S
O513 Zn511 1.932 . S
O513 C523 1.307 . S
O514 Zn507 1.919 . S
O514 C525 1.253 . S
O515 Zn509 1.941 . S
O515 C525 1.283 . S
O516 Zn509 1.965 1_655 S
O516 C524 1.303 . S
O517 Zn510 1.938 1_655 S
O517 C524 1.247 . S
O518 Zn510 1.906 . S
O518 C526 1.304 . S
O519 Zn507 1.924 . S
O519 C527 1.311 . S
O520 Zn511 1.977 . S
O520 C526 1.272 . S
O521 Zn511 1.910 . S
O521 C527 1.231 . S
C522 O506 1.225 . S
C522 O528 1.298 . S
C523 O512 1.226 . S
C523 O513 1.307 . S
C524 O516 1.303 . S
C524 O517 1.247 . S
C525 O514 1.253 . S
C525 O515 1.283 . S
C526 O518 1.304 . S
C526 O520 1.272 . S
C527 O519 1.311 . S
C527 O521 1.231 . S
O528 Zn510 1.953 1_545 S
O528 C522 1.298 . S
O529 Zn530 1.953 . S
O529 C545 1.225 1_455 S
Zn530 O529 1.953 . S
Zn530 O531 1.949 . S
Zn530 O537 1.919 . S
Zn530 O542 1.924 . S
O531 Zn530 1.949 . S
O531 Zn532 1.923 . S
O531 Zn533 1.950 . S
O531 Zn534 1.945 . S
Zn532 O531 1.923 . S
Zn532 O535 1.933 . S
Zn532 O538 1.941 . S
Zn532 O539 1.965 . S
Zn533 O531 1.950 . S
Zn533 O540 1.938 . S
Zn533 O541 1.906 . S
Zn533 O551 1.953 1_455 S
Zn534 O531 1.945 . S
Zn534 O536 1.932 . S
Zn534 O543 1.977 . S
Zn534 O544 1.910 . S
O535 Zn532 1.933 . S
O535 C546 1.226 . S
O536 Zn534 1.932 . S
O536 C546 1.307 . S
O537 Zn530 1.919 . S
O537 C548 1.253 . S
O538 Zn532 1.941 . S
O538 C548 1.283 . S
O539 Zn532 1.965 . S
O539 C547 1.303 . S
O540 Zn533 1.938 . S
O540 C547 1.247 . S
O541 Zn533 1.906 . S
O541 C549 1.304 . S
O542 Zn530 1.924 . S
O542 C550 1.311 . S
O543 Zn534 1.977 . S
O543 C549 1.272 . S
O544 Zn534 1.910 . S
O544 C550 1.231 . S
C545 O529 1.225 1_655 S
C545 O551 1.298 . S
C546 O535 1.226 . S
C546 O536 1.307 . S
C547 O539 1.303 . S
C547 O540 1.247 . S
C548 O537 1.253 . S
C548 O538 1.283 . S
C549 O541 1.304 . S
C549 O543 1.272 . S
C550 O542 1.311 . S
C550 O544 1.231 . S
O551 Zn533 1.953 1_655 S
O551 C545 1.298 . S
O552 Zn553 1.953 . S
O552 C568 1.225 . S
Zn553 O552 1.953 . S
Zn553 O554 1.949 . S
Zn553 O560 1.919 . S
Zn553 O565 1.924 1_655 S
O554 Zn553 1.949 . S
O554 Zn555 1.923 . S
O554 Zn556 1.950 . S
O554 Zn557 1.945 . S
Zn555 O554 1.923 . S
Zn555 O558 1.933 . S
Zn555 O561 1.941 . S
Zn555 O562 1.965 . S
Zn556 O554 1.950 . S
Zn556 O563 1.938 . S
Zn556 O564 1.906 . S
Zn556 O574 1.953 . S
Zn557 O554 1.945 . S
Zn557 O559 1.932 . S
Zn557 O566 1.977 . S
Zn557 O567 1.910 1_655 S
O558 Zn555 1.933 . S
O558 C569 1.226 . S
O559 Zn557 1.932 . S
O559 C569 1.307 . S
O560 Zn553 1.919 . S
O560 C571 1.253 . S
O561 Zn555 1.941 . S
O561 C571 1.283 . S
O562 Zn555 1.965 . S
O562 C570 1.303 . S
O563 Zn556 1.938 . S
O563 C570 1.247 . S
O564 Zn556 1.906 . S
O564 C572 1.304 . S
O565 Zn553 1.924 1_455 S
O565 C573 1.311 . S
O566 Zn557 1.977 . S
O566 C572 1.272 . S
O567 Zn557 1.910 1_455 S
O567 C573 1.231 . S
C568 O552 1.225 . S
C568 O574 1.298 . S
C569 O558 1.226 . S
C569 O559 1.307 . S
C570 O562 1.303 . S
C570 O563 1.247 . S
C571 O560 1.253 . S
C571 O561 1.283 . S
C572 O564 1.304 . S
C572 O566 1.272 . S
C573 O565 1.311 . S
C573 O567 1.231 . S
O574 Zn556 1.953 . S
O574 C568 1.298 . S
O575 Zn576 1.953 . S
O575 C591 1.225 . S
Zn576 O575 1.953 . S
Zn576 O577 1.949 . S
Zn576 O583 1.919 . S
Zn576 O588 1.924 . S
O577 Zn576 1.949 . S
O577 Zn578 1.923 . S
O577 Zn579 1.950 . S
O577 Zn580 1.945 . S
Zn578 O577 1.923 . S
Zn578 O581 1.933 1_545 S
Zn578 O584 1.941 . S
Zn578 O585 1.965 . S
Zn579 O577 1.950 . S
Zn579 O586 1.938 . S
Zn579 O587 1.906 . S
Zn579 O597 1.953 . S
Zn580 O577 1.945 . S
Zn580 O582 1.932 1_545 S
Zn580 O589 1.977 . S
Zn580 O590 1.910 . S
O581 Zn578 1.933 1_565 S
O581 C592 1.226 . S
O582 Zn580 1.932 1_565 S
O582 C592 1.307 . S
O583 Zn576 1.919 . S
O583 C594 1.253 . S
O584 Zn578 1.941 . S
O584 C594 1.283 . S
O585 Zn578 1.965 . S
O585 C593 1.303 . S
O586 Zn579 1.938 . S
O586 C593 1.247 . S
O587 Zn579 1.906 . S
O587 C595 1.304 . S
O588 Zn576 1.924 . S
O588 C596 1.311 . S
O589 Zn580 1.977 . S
O589 C595 1.272 . S
O590 Zn580 1.910 . S
O590 C596 1.231 . S
C591 O575 1.225 . S
C591 O597 1.298 . S
C592 O581 1.226 . S
C592 O582 1.307 . S
C593 O585 1.303 . S
C593 O586 1.247 . S
C594 O583 1.253 . S
C594 O584 1.283 . S
C595 O587 1.304 . S
C595 O589 1.272 . S
C596 O588 1.311 . S
C596 O590 1.231 . S
O597 Zn579 1.953 . S
O597 C591 1.298 . S
O598 Zn599 1.953 . S
O598 C614 1.225 . S
Zn599 O598 1.953 . S
Zn599 O600 1.949 . S
Zn599 O606 1.919 . S
Zn599 O611 1.919 1_545 S
O600 Zn599 1.949 . S
O600 Zn601 1.923 . S
O600 Zn602 1.950 . S
O600 Zn603 1.945 . S
Zn601 O600 1.923 . S
Zn601 O604 1.933 1_655 S
Zn601 O607 1.941 . S
Zn601 O608 1.965 . S
Zn602 O600 1.950 . S
Zn602 O609 1.938 . S
Zn602 O610 1.906 . S
Zn602 O620 1.953 . S
Zn603 O600 1.945 . S
Zn603 O605 1.932 1_655 S
Zn603 O612 1.977 . S
Zn603 O613 1.910 1_545 S
O604 Zn601 1.933 1_455 S
O604 C615 1.226 . S
O605 Zn603 1.932 1_455 S
O605 C615 1.307 . S
O606 Zn599 1.919 . S
O606 C617 1.253 . S
O607 Zn601 1.941 . S
O607 C617 1.283 . S
O608 Zn601 1.965 . S
O608 C616 1.303 . S
O609 Zn602 1.938 . S
O609 C616 1.247 . S
O610 Zn602 1.906 . S
O610 C618 1.304 . S
O611 Zn599 1.919 1_565 S
O611 C619 1.315 . S
O612 Zn603 1.977 . S
O612 C618 1.272 . S
O613 Zn603 1.910 1_565 S
O613 C619 1.231 . S
C614 O598 1.225 . S
C614 O620 1.298 . S
C615 O604 1.226 . S
C615 O605 1.307 . S
C616 O608 1.303 . S
C616 O609 1.247 . S
C617 O606 1.253 . S
C617 O607 1.283 . S
C618 O610 1.304 . S
C618 O612 1.272 . S
C619 O611 1.315 . S
C619 O613 1.231 . S
O620 Zn602 1.953 . S
O620 C614 1.298 . S
O621 Zn622 1.953 . S
O621 C637 1.225 . S
Zn622 O621 1.953 . S
Zn622 O623 1.949 . S
Zn622 O629 1.919 . S
Zn622 O634 1.924 . S
O623 Zn622 1.949 . S
O623 Zn624 1.923 . S
O623 Zn625 1.950 . S
O623 Zn626 1.945 . S
Zn624 O623 1.923 . S
Zn624 O627 1.933 . S
Zn624 O630 1.941 . S
Zn624 O631 1.965 1_545 S
Zn625 O623 1.950 . S
Zn625 O632 1.938 1_545 S
Zn625 O633 1.906 . S
Zn625 O643 1.953 . S
Zn626 O623 1.945 . S
Zn626 O628 1.932 . S
Zn626 O635 1.977 . S
Zn626 O636 1.910 . S
O627 Zn624 1.933 . S
O627 C638 1.226 . S
O628 Zn626 1.932 . S
O628 C638 1.307 . S
O629 Zn622 1.919 . S
O629 C640 1.253 . S
O630 Zn624 1.941 . S
O630 C640 1.283 . S
O631 Zn624 1.965 1_565 S
O631 C639 1.303 . S
O632 Zn625 1.938 1_565 S
O632 C639 1.247 . S
O633 Zn625 1.906 . S
O633 C641 1.304 . S
O634 Zn622 1.924 . S
O634 C642 1.311 . S
O635 Zn626 1.977 . S
O635 C641 1.272 . S
O636 Zn626 1.910 . S
O636 C642 1.231 . S
C637 O621 1.225 . S
C637 O643 1.298 . S
C638 O627 1.226 . S
C638 O628 1.307 . S
C639 O631 1.303 . S
C639 O632 1.247 . S
C640 O629 1.253 . S
C640 O630 1.283 . S
C641 O633 1.304 . S
C641 O635 1.272 . S
C642 O634 1.311 . S
C642 O636 1.231 . S
O643 Zn625 1.953 . S
O643 C637 1.298 . S
O644 Zn645 1.953 . S
O644 C660 1.225 1_545 S
Zn645 O644 1.953 . S
Zn645 O646 1.949 . S
Zn645 O652 1.919 . S
Zn645 O657 1.924 . S
O646 Zn645 1.949 . S
O646 Zn647 1.923 . S
O646 Zn648 1.950 . S
O646 Zn649 1.945 . S
Zn647 O646 1.923 . S
Zn647 O650 1.933 1_655 S
Zn647 O653 1.941 1_655 S
Zn647 O654 1.965 1_655 S
Zn648 O646 1.950 . S
Zn648 O655 1.938 1_655 S
Zn648 O656 1.906 . S
Zn648 O666 1.953 1_545 S
Zn649 O646 1.945 . S
Zn649 O651 1.932 . S
Zn649 O658 1.977 . S
Zn649 O659 1.910 . S
O650 Zn647 1.933 1_455 S
O650 C661 1.226 1_455 S
O651 Zn649 1.932 . S
O651 C661 1.307 . S
O652 Zn645 1.919 . S
O652 C663 1.253 . S
O653 Zn647 1.941 1_455 S
O653 C663 1.283 1_455 S
O654 Zn647 1.965 1_455 S
O654 C662 1.303 . S
O655 Zn648 1.938 1_455 S
O655 C662 1.247 . S
O656 Zn648 1.906 . S
O656 C664 1.304 . S
O657 Zn645 1.924 . S
O657 C665 1.311 . S
O658 Zn649 1.977 . S
O658 C664 1.272 . S
O659 Zn649 1.910 . S
O659 C665 1.231 . S
C660 O644 1.225 1_565 S
C660 O666 1.298 . S
C661 O650 1.226 1_655 S
C661 O651 1.307 . S
C662 O654 1.303 . S
C662 O655 1.247 . S
C663 O652 1.253 . S
C663 O653 1.283 1_655 S
C664 O656 1.304 . S
C664 O658 1.272 . S
C665 O657 1.311 . S
C665 O659 1.231 . S
O666 Zn648 1.953 1_565 S
O666 C660 1.298 . S
O667 Zn668 1.953 1_455 S
O667 C683 1.225 . S
Zn668 O667 1.953 1_655 S
Zn668 O669 1.949 . S
Zn668 O675 1.919 . S
Zn668 O680 1.924 . S
O669 Zn668 1.949 . S
O669 Zn670 1.923 . S
O669 Zn671 1.950 . S
O669 Zn672 1.945 . S
Zn670 O669 1.923 . S
Zn670 O673 1.933 . S
Zn670 O676 1.941 . S
Zn670 O677 1.965 . S
Zn671 O669 1.950 . S
Zn671 O678 1.938 . S
Zn671 O679 1.906 . S
Zn671 O689 1.953 1_655 S
Zn672 O669 1.945 . S
Zn672 O674 1.932 . S
Zn672 O681 1.977 . S
Zn672 O682 1.910 . S
O673 Zn670 1.933 . S
O673 C684 1.226 . S
O674 Zn672 1.932 . S
O674 C684 1.307 . S
O675 Zn668 1.919 . S
O675 C686 1.253 . S
O676 Zn670 1.941 . S
O676 C686 1.283 . S
O677 Zn670 1.965 . S
O677 C685 1.303 . S
O678 Zn671 1.938 . S
O678 C685 1.247 . S
O679 Zn671 1.906 . S
O679 C687 1.304 . S
O680 Zn668 1.924 . S
O680 C688 1.311 . S
O681 Zn672 1.977 . S
O681 C687 1.272 . S
O682 Zn672 1.910 . S
O682 C688 1.231 . S
C683 O667 1.225 . S
C683 O689 1.298 . S
C684 O673 1.226 . S
C684 O674 1.307 . S
C685 O677 1.303 . S
C685 O678 1.247 . S
C686 O675 1.253 . S
C686 O676 1.283 . S
C687 O679 1.304 . S
C687 O681 1.272 . S
C688 O680 1.311 . S
C688 O682 1.231 . S
O689 Zn671 1.953 1_455 S
O689 C683 1.298 . S
O690 Zn691 1.953 . S
O690 C706 1.225 . S
Zn691 O690 1.953 . S
Zn691 O692 1.949 . S
Zn691 O698 1.919 . S
Zn691 O703 1.924 . S
O692 Zn691 1.949 . S
O692 Zn693 1.923 . S
O692 Zn694 1.950 . S
O692 Zn695 1.945 . S
Zn693 O692 1.923 . S
Zn693 O696 1.933 1_655 S
Zn693 O699 1.941 1_655 S
Zn693 O700 1.965 1_655 S
Zn694 O692 1.950 . S
Zn694 O701 1.938 1_655 S
Zn694 O702 1.906 . S
Zn694 O712 1.953 . S
Zn695 O692 1.945 . S
Zn695 O697 1.932 . S
Zn695 O704 1.977 . S
Zn695 O705 1.910 . S
O696 Zn693 1.933 1_455 S
O696 C707 1.226 1_455 S
O697 Zn695 1.932 . S
O697 C707 1.307 . S
O698 Zn691 1.919 . S
O698 C709 1.253 . S
O699 Zn693 1.941 1_455 S
O699 C709 1.283 1_455 S
O700 Zn693 1.965 1_455 S
O700 C708 1.303 . S
O701 Zn694 1.938 1_455 S
O701 C708 1.247 . S
O702 Zn694 1.906 . S
O702 C710 1.304 . S
O703 Zn691 1.924 . S
O703 C711 1.311 . S
O704 Zn695 1.977 . S
O704 C710 1.272 . S
O705 Zn695 1.910 . S
O705 C711 1.231 . S
C706 O690 1.225 . S
C706 O712 1.298 . S
C707 O696 1.226 1_655 S
C707 O697 1.307 . S
C708 O700 1.303 . S
C708 O701 1.247 . S
C709 O698 1.253 . S
C709 O699 1.283 1_655 S
C710 O702 1.304 . S
C710 O704 1.272 . S
C711 O703 1.311 . S
C711 O705 1.231 . S
O712 Zn694 1.953 . S
O712 C706 1.298 . S
O713 Zn714 1.953 . S
O713 C729 1.225 1_545 S
Zn714 O713 1.953 . S
Zn714 O715 1.949 . S
Zn714 O721 1.919 . S
Zn714 O726 1.924 . S
O715 Zn714 1.949 . S
O715 Zn716 1.923 . S
O715 Zn717 1.950 . S
O715 Zn718 1.945 . S
Zn716 O715 1.923 . S
Zn716 O719 1.933 . S
Zn716 O722 1.941 . S
Zn716 O723 1.965 . S
Zn717 O715 1.950 . S
Zn717 O724 1.938 . S
Zn717 O725 1.906 . S
Zn717 O735 1.953 1_545 S
Zn718 O715 1.945 . S
Zn718 O720 1.932 . S
Zn718 O727 1.977 . S
Zn718 O728 1.910 . S
O719 Zn716 1.933 . S
O719 C730 1.226 . S
O720 Zn718 1.932 . S
O720 C730 1.307 . S
O721 Zn714 1.919 . S
O721 C732 1.253 . S
O722 Zn716 1.941 . S
O722 C732 1.283 . S
O723 Zn716 1.965 . S
O723 C731 1.303 . S
O724 Zn717 1.938 . S
O724 C731 1.247 . S
O725 Zn717 1.906 . S
O725 C733 1.304 . S
O726 Zn714 1.924 . S
O726 C734 1.311 . S
O727 Zn718 1.977 . S
O727 C733 1.272 . S
O728 Zn718 1.910 . S
O728 C734 1.231 . S
C729 O713 1.225 1_565 S
C729 O735 1.298 . S
C730 O719 1.226 . S
C730 O720 1.307 . S
C731 O723 1.303 . S
C731 O724 1.247 . S
C732 O721 1.253 . S
C732 O722 1.283 . S
C733 O725 1.304 . S
C733 O727 1.272 . S
C734 O726 1.311 . S
C734 O728 1.231 . S
O735 Zn717 1.953 1_565 S
O735 C729 1.298 . S
O736 Zn737 1.953 1_455 S
O736 C752 1.225 . S
Zn737 O736 1.953 1_655 S
Zn737 O738 1.949 . S
Zn737 O744 1.919 . S
Zn737 O749 1.924 . S
O738 Zn737 1.949 . S
O738 Zn739 1.923 . S
O738 Zn740 1.950 . S
O738 Zn741 1.945 . S
Zn739 O738 1.923 . S
Zn739 O742 1.933 . S
Zn739 O745 1.941 . S
Zn739 O746 1.965 1_545 S
Zn740 O738 1.950 . S
Zn740 O747 1.938 1_545 S
Zn740 O748 1.906 . S
Zn740 O758 1.953 1_655 S
Zn741 O738 1.945 . S
Zn741 O743 1.932 . S
Zn741 O750 1.977 . S
Zn741 O751 1.910 . S
O742 Zn739 1.933 . S
O742 C753 1.226 . S
O743 Zn741 1.932 . S
O743 C753 1.307 . S
O744 Zn737 1.919 . S
O744 C755 1.253 . S
O745 Zn739 1.941 . S
O745 C755 1.283 . S
O746 Zn739 1.965 1_565 S
O746 C754 1.303 . S
O747 Zn740 1.938 1_565 S
O747 C754 1.247 . S
O748 Zn740 1.906 . S
O748 C756 1.304 . S
O749 Zn737 1.924 . S
O749 C757 1.311 . S
O750 Zn741 1.977 . S
O750 C756 1.272 . S
O751 Zn741 1.910 . S
O751 C757 1.231 . S
C752 O736 1.225 . S
C752 O758 1.298 . S
C753 O742 1.226 . S
C753 O743 1.307 . S
C754 O746 1.303 . S
C754 O747 1.247 . S
C755 O744 1.253 . S
C755 O745 1.283 . S
C756 O748 1.304 . S
C756 O750 1.272 . S
C757 O749 1.311 . S
C757 O751 1.231 . S
O758 Zn740 1.953 1_455 S
O758 C752 1.298 . S
O759 Zn760 1.953 . S
O759 C775 1.225 . S
Zn760 O759 1.953 . S
Zn760 O761 1.949 . S
Zn760 O767 1.919 . S
Zn760 O772 1.918 1_545 S
O761 Zn760 1.949 . S
O761 Zn762 1.923 . S
O761 Zn763 1.950 . S
O761 Zn764 1.945 . S
Zn762 O761 1.923 . S
Zn762 O765 1.933 . S
Zn762 O768 1.941 . S
Zn762 O769 1.965 . S
Zn763 O761 1.950 . S
Zn763 O770 1.938 . S
Zn763 O771 1.906 . S
Zn763 O781 1.953 . S
Zn764 O761 1.945 . S
Zn764 O766 1.932 . S
Zn764 O773 1.977 . S
Zn764 O774 1.910 1_545 S
O765 Zn762 1.933 . S
O765 C776 1.226 . S
O766 Zn764 1.932 . S
O766 C776 1.307 . S
O767 Zn760 1.919 . S
O767 C778 1.253 . S
O768 Zn762 1.941 . S
O768 C778 1.283 . S
O769 Zn762 1.965 . S
O769 C777 1.303 . S
O770 Zn763 1.938 . S
O770 C777 1.247 . S
O771 Zn763 1.906 . S
O771 C779 1.304 . S
O772 Zn760 1.918 1_565 S
O772 C780 1.313 . S
O773 Zn764 1.977 . S
O773 C779 1.272 . S
O774 Zn764 1.910 1_565 S
O774 C780 1.231 . S
C775 O759 1.225 . S
C775 O781 1.298 . S
C776 O765 1.226 . S
C776 O766 1.307 . S
C777 O769 1.303 . S
C777 O770 1.247 . S
C778 O767 1.253 . S
C778 O768 1.283 . S
C779 O771 1.304 . S
C779 O773 1.272 . S
C780 O772 1.313 . S
C780 O774 1.231 . S
O781 Zn763 1.953 . S
O781 C775 1.298 . S
O782 Zn783 1.953 . S
O782 C798 1.225 . S
Zn783 O782 1.953 . S
Zn783 O784 1.949 . S
Zn783 O790 1.919 . S
Zn783 O795 1.924 1_655 S
O784 Zn783 1.949 . S
O784 Zn785 1.923 . S
O784 Zn786 1.950 . S
O784 Zn787 1.945 . S
Zn785 O784 1.923 . S
Zn785 O788 1.933 1_545 S
Zn785 O791 1.941 . S
Zn785 O792 1.965 . S
Zn786 O784 1.950 . S
Zn786 O793 1.938 . S
Zn786 O794 1.906 . S
Zn786 O804 1.953 . S
Zn787 O784 1.945 . S
Zn787 O789 1.932 1_545 S
Zn787 O796 1.977 . S
Zn787 O797 1.910 1_655 S
O788 Zn785 1.933 1_565 S
O788 C799 1.226 . S
O789 Zn787 1.932 1_565 S
O789 C799 1.307 . S
O790 Zn783 1.919 . S
O790 C801 1.253 . S
O791 Zn785 1.941 . S
O791 C801 1.283 . S
O792 Zn785 1.965 . S
O792 C800 1.303 . S
O793 Zn786 1.938 . S
O793 C800 1.247 . S
O794 Zn786 1.906 . S
O794 C802 1.304 . S
O795 Zn783 1.924 1_455 S
O795 C803 1.311 . S
O796 Zn787 1.977 . S
O796 C802 1.272 . S
O797 Zn787 1.910 1_455 S
O797 C803 1.231 . S
C798 O782 1.225 . S
C798 O804 1.298 . S
C799 O788 1.226 . S
C799 O789 1.307 . S
C800 O792 1.303 . S
C800 O793 1.247 . S
C801 O790 1.253 . S
C801 O791 1.283 . S
C802 O794 1.304 . S
C802 O796 1.272 . S
C803 O795 1.311 . S
C803 O797 1.231 . S
O804 Zn786 1.953 . S
O804 C798 1.298 . S
O805 Zn806 1.953 . S
O805 C821 1.225 . S
Zn806 O805 1.953 . S
Zn806 O807 1.949 . S
Zn806 O813 1.919 . S
Zn806 O818 1.924 . S
O807 Zn806 1.949 . S
O807 Zn808 1.923 . S
O807 Zn809 1.950 . S
O807 Zn810 1.945 . S
Zn808 O807 1.923 . S
Zn808 O811 1.933 1_655 S
Zn808 O814 1.941 . S
Zn808 O815 1.965 . S
Zn809 O807 1.950 . S
Zn809 O816 1.938 . S
Zn809 O817 1.906 . S
Zn809 O827 1.953 . S
Zn810 O807 1.945 . S
Zn810 O812 1.932 1_655 S
Zn810 O819 1.977 . S
Zn810 O820 1.910 . S
O811 Zn808 1.933 1_455 S
O811 C822 1.226 . S
O812 Zn810 1.932 1_455 S
O812 C822 1.307 . S
O813 Zn806 1.919 . S
O813 C824 1.253 . S
O814 Zn808 1.941 . S
O814 C824 1.283 . S
O815 Zn808 1.965 . S
O815 C823 1.303 . S
O816 Zn809 1.938 . S
O816 C823 1.247 . S
O817 Zn809 1.906 . S
O817 C825 1.304 . S
O818 Zn806 1.924 . S
O818 C826 1.311 . S
O819 Zn810 1.977 . S
O819 C825 1.272 . S
O820 Zn810 1.910 . S
O820 C826 1.231 . S
C821 O805 1.225 . S
C821 O827 1.298 . S
C822 O811 1.226 . S
C822 O812 1.307 . S
C823 O815 1.303 . S
C823 O816 1.247 . S
C824 O813 1.253 . S
C824 O814 1.283 . S
C825 O817 1.304 . S
C825 O819 1.272 . S
C826 O818 1.311 . S
C826 O820 1.231 . S
O827 Zn809 1.953 . S
O827 C821 1.298 . S
C640 C19 1.867 . S
C663 C42 1.867 . S
C65 C686 1.865 . S
C88 C295 1.867 . S
C111 C318 1.865 . S
C341 C134 1.867 . S
C157 C502 1.866 . S
C525 C180 1.866 . S
C203 C548 1.867 . S
C709 C226 1.866 . S
C249 C732 1.867 . S
C755 C272 1.866 . S
C571 C364 1.866 . S
C387 C594 1.866 1_565 S
C617 C410 1.866 1_655 S
C433 C778 1.866 . S
C456 C801 1.866 1_565 S
C824 C479 1.866 1_655 S
C20 C158 1.584 1_544 S
C181 C43 1.585 1_456 S
C66 C204 1.584 1_554 S
C227 C89 1.584 1_655 S
C112 C250 1.584 . S
C273 C135 1.585 1_545 S
C434 C296 1.585 . S
C319 C457 1.584 . S
C480 C342 1.584 . S
C365 C503 1.584 . S
C526 C388 1.585 . S
C411 C549 1.584 . S
C572 C710 1.584 . S
C733 C595 1.584 . S
C756 C618 1.585 . S
C779 C641 1.585 . S
C664 C802 1.584 . S
C687 C825 1.584 . S
C16 C64 1.333 . S
C39 C18 1.333 . S
C41 C62 1.332 . S
C85 C110 1.333 . S
C133 C108 1.332 . S
C87 C131 1.333 . S
C202 C154 1.332 . S
C177 C156 1.333 . S
C200 C179 1.332 . S
C248 C223 1.332 . S
C246 C271 1.332 . S
C269 C225 1.333 . S
C340 C292 1.333 . S
C294 C315 1.332 . S
C317 C338 1.333 . S
C386 C361 1.332 . S
C384 C409 1.333 . S
C363 C407 1.332 . S
C430 C478 1.333 . S
C432 C453 1.333 . S
C476 C455 1.332 . S
C524 C499 1.333 . S
C547 C522 1.333 . S
C501 C545 1.333 . S
C616 C568 1.332 . S
C591 C570 1.332 . S
C593 C614 1.333 . S
C637 C662 1.333 . S
C660 C685 1.333 . S
C639 C683 1.332 . S
C706 C754 1.333 . S
C729 C708 1.333 . S
C731 C752 1.333 . S
C775 C800 1.333 . S
C823 C798 1.332 . S
C777 C821 1.333 . S
C67 C17 1.446 . S
C40 C21 1.446 . S
C44 C63 1.446 . S
C113 C86 1.446 . S
C109 C136 1.446 . S
C132 C90 1.446 . S
C205 C155 1.445 . S
C178 C159 1.446 . S
C182 C201 1.446 . S
C251 C224 1.445 . S
C274 C247 1.446 . S
C228 C270 1.446 . S
C293 C343 1.446 . S
C316 C297 1.445 . S
C339 C320 1.445 . S
C389 C362 1.446 . S
C385 C412 1.446 . S
C408 C366 1.445 . S
C481 C431 1.446 . S
C435 C454 1.445 . S
C477 C458 1.445 . S
C527 C500 1.445 . S
C523 C550 1.446 . S
C546 C504 1.446 . S
C569 C619 1.446 . S
C573 C592 1.445 . S
C596 C615 1.446 . S
C665 C638 1.446 . S
C661 C688 1.445 . S
C684 C642 1.445 . S
C757 C707 1.445 . S
C711 C730 1.446 . S
C753 C734 1.446 . S
C803 C776 1.446 . S
C799 C826 1.445 . S
C822 C780 1.445 . S
