# Generated by pormake.
# Topology uke, (4)-cn, num edge types: 1
# Building blocks:
#     Node 0, Type 0, BuildingBlock: GALJAG_clean_sbu_0, # of connection points: 4
#     Node 1, Type 0, BuildingBlock: GALJAG_clean_sbu_0, # of connection points: 4
#     Node 2, Type 0, BuildingBlock: GALJAG_clean_sbu_0, # of connection points: 4
#     Node 3, Type 0, BuildingBlock: GALJAG_clean_sbu_0, # of connection points: 4
#     Node 4, Type 0, BuildingBlock: GALJAG_clean_sbu_0, # of connection points: 4
#     Node 5, Type 0, BuildingBlock: GALJAG_clean_sbu_0, # of connection points: 4
#     Node 6, Type 0, BuildingBlock: GALJAG_clean_sbu_0, # of connection points: 4
#     Node 7, Type 0, BuildingBlock: GALJAG_clean_sbu_0, # of connection points: 4
#     Node 8, Type 0, BuildingBlock: GALJAG_clean_sbu_0, # of connection points: 4
#     Node 9, Type 0, BuildingBlock: GALJAG_clean_sbu_0, # of connection points: 4
#     Node 10, Type 0, BuildingBlock: GALJAG_clean_sbu_0, # of connection points: 4
#     Node 11, Type 0, BuildingBlock: GALJAG_clean_sbu_0, # of connection points: 4
#     Node 12, Type 0, BuildingBlock: GALJAG_clean_sbu_0, # of connection points: 4
#     Node 13, Type 0, BuildingBlock: GALJAG_clean_sbu_0, # of connection points: 4
#     Node 14, Type 0, BuildingBlock: GALJAG_clean_sbu_0, # of connection points: 4
#     Node 15, Type 0, BuildingBlock: GALJAG_clean_sbu_0, # of connection points: 4
#     Node 16, Type 0, BuildingBlock: GALJAG_clean_sbu_0, # of connection points: 4
#     Node 17, Type 0, BuildingBlock: GALJAG_clean_sbu_0, # of connection points: 4
#     Node 18, Type 0, BuildingBlock: GALJAG_clean_sbu_0, # of connection points: 4
#     Node 19, Type 0, BuildingBlock: GALJAG_clean_sbu_0, # of connection points: 4
#     Node 20, Type 0, BuildingBlock: GALJAG_clean_sbu_0, # of connection points: 4
#     Node 21, Type 0, BuildingBlock: GALJAG_clean_sbu_0, # of connection points: 4
#     Node 22, Type 0, BuildingBlock: GALJAG_clean_sbu_0, # of connection points: 4
#     Node 23, Type 0, BuildingBlock: GALJAG_clean_sbu_0, # of connection points: 4
#     Node 24, Type 0, BuildingBlock: GALJAG_clean_sbu_0, # of connection points: 4
#     Node 25, Type 0, BuildingBlock: GALJAG_clean_sbu_0, # of connection points: 4
#     Node 26, Type 0, BuildingBlock: GALJAG_clean_sbu_0, # of connection points: 4
#     Node 27, Type 0, BuildingBlock: GALJAG_clean_sbu_0, # of connection points: 4
#     Node 28, Type 0, BuildingBlock: GALJAG_clean_sbu_0, # of connection points: 4
#     Node 29, Type 0, BuildingBlock: GALJAG_clean_sbu_0, # of connection points: 4
#     Node 30, Type 0, BuildingBlock: GALJAG_clean_sbu_0, # of connection points: 4
#     Node 31, Type 0, BuildingBlock: GALJAG_clean_sbu_0, # of connection points: 4
#     Edge 32, Type (0, 0), BuildingBlock: ZUJKAS_clean_linker_0, # of connection points: 2
#     Edge 33, Type (0, 0), BuildingBlock: ZUJKAS_clean_linker_0, # of connection points: 2
#     Edge 34, Type (0, 0), BuildingBlock: ZUJKAS_clean_linker_0, # of connection points: 2
#     Edge 35, Type (0, 0), BuildingBlock: ZUJKAS_clean_linker_0, # of connection points: 2
#     Edge 36, Type (0, 0), BuildingBlock: ZUJKAS_clean_linker_0, # of connection points: 2
#     Edge 37, Type (0, 0), BuildingBlock: ZUJKAS_clean_linker_0, # of connection points: 2
#     Edge 38, Type (0, 0), BuildingBlock: ZUJKAS_clean_linker_0, # of connection points: 2
#     Edge 39, Type (0, 0), BuildingBlock: ZUJKAS_clean_linker_0, # of connection points: 2
#     Edge 40, Type (0, 0), BuildingBlock: ZUJKAS_clean_linker_0, # of connection points: 2
#     Edge 41, Type (0, 0), BuildingBlock: ZUJKAS_clean_linker_0, # of connection points: 2
#     Edge 42, Type (0, 0), BuildingBlock: ZUJKAS_clean_linker_0, # of connection points: 2
#     Edge 43, Type (0, 0), BuildingBlock: ZUJKAS_clean_linker_0, # of connection points: 2
#     Edge 44, Type (0, 0), BuildingBlock: ZUJKAS_clean_linker_0, # of connection points: 2
#     Edge 45, Type (0, 0), BuildingBlock: ZUJKAS_clean_linker_0, # of connection points: 2
#     Edge 46, Type (0, 0), BuildingBlock: ZUJKAS_clean_linker_0, # of connection points: 2
#     Edge 47, Type (0, 0), BuildingBlock: ZUJKAS_clean_linker_0, # of connection points: 2
#     Edge 48, Type (0, 0), BuildingBlock: ZUJKAS_clean_linker_0, # of connection points: 2
#     Edge 49, Type (0, 0), BuildingBlock: ZUJKAS_clean_linker_0, # of connection points: 2
#     Edge 50, Type (0, 0), BuildingBlock: ZUJKAS_clean_linker_0, # of connection points: 2
#     Edge 51, Type (0, 0), BuildingBlock: ZUJKAS_clean_linker_0, # of connection points: 2
#     Edge 52, Type (0, 0), BuildingBlock: ZUJKAS_clean_linker_0, # of connection points: 2
#     Edge 53, Type (0, 0), BuildingBlock: ZUJKAS_clean_linker_0, # of connection points: 2
#     Edge 54, Type (0, 0), BuildingBlock: ZUJKAS_clean_linker_0, # of connection points: 2
#     Edge 55, Type (0, 0), BuildingBlock: ZUJKAS_clean_linker_0, # of connection points: 2
#     Edge 56, Type (0, 0), BuildingBlock: ZUJKAS_clean_linker_0, # of connection points: 2
#     Edge 57, Type (0, 0), BuildingBlock: ZUJKAS_clean_linker_0, # of connection points: 2
#     Edge 58, Type (0, 0), BuildingBlock: ZUJKAS_clean_linker_0, # of connection points: 2
#     Edge 59, Type (0, 0), BuildingBlock: ZUJKAS_clean_linker_0, # of connection points: 2
#     Edge 60, Type (0, 0), BuildingBlock: ZUJKAS_clean_linker_0, # of connection points: 2
#     Edge 61, Type (0, 0), BuildingBlock: ZUJKAS_clean_linker_0, # of connection points: 2
#     Edge 62, Type (0, 0), BuildingBlock: ZUJKAS_clean_linker_0, # of connection points: 2
#     Edge 63, Type (0, 0), BuildingBlock: ZUJKAS_clean_linker_0, # of connection points: 2
#     Edge 64, Type (0, 0), BuildingBlock: ZUJKAS_clean_linker_0, # of connection points: 2
#     Edge 65, Type (0, 0), BuildingBlock: ZUJKAS_clean_linker_0, # of connection points: 2
#     Edge 66, Type (0, 0), BuildingBlock: ZUJKAS_clean_linker_0, # of connection points: 2
#     Edge 67, Type (0, 0), BuildingBlock: ZUJKAS_clean_linker_0, # of connection points: 2
#     Edge 68, Type (0, 0), BuildingBlock: ZUJKAS_clean_linker_0, # of connection points: 2
#     Edge 69, Type (0, 0), BuildingBlock: ZUJKAS_clean_linker_0, # of connection points: 2
#     Edge 70, Type (0, 0), BuildingBlock: ZUJKAS_clean_linker_0, # of connection points: 2
#     Edge 71, Type (0, 0), BuildingBlock: ZUJKAS_clean_linker_0, # of connection points: 2
#     Edge 72, Type (0, 0), BuildingBlock: ZUJKAS_clean_linker_0, # of connection points: 2
#     Edge 73, Type (0, 0), BuildingBlock: ZUJKAS_clean_linker_0, # of connection points: 2
#     Edge 74, Type (0, 0), BuildingBlock: ZUJKAS_clean_linker_0, # of connection points: 2
#     Edge 75, Type (0, 0), BuildingBlock: ZUJKAS_clean_linker_0, # of connection points: 2
#     Edge 76, Type (0, 0), BuildingBlock: ZUJKAS_clean_linker_0, # of connection points: 2
#     Edge 77, Type (0, 0), BuildingBlock: ZUJKAS_clean_linker_0, # of connection points: 2
#     Edge 78, Type (0, 0), BuildingBlock: ZUJKAS_clean_linker_0, # of connection points: 2
#     Edge 79, Type (0, 0), BuildingBlock: ZUJKAS_clean_linker_0, # of connection points: 2
#     Edge 80, Type (0, 0), BuildingBlock: ZUJKAS_clean_linker_0, # of connection points: 2
#     Edge 81, Type (0, 0), BuildingBlock: ZUJKAS_clean_linker_0, # of connection points: 2
#     Edge 82, Type (0, 0), BuildingBlock: ZUJKAS_clean_linker_0, # of connection points: 2
#     Edge 83, Type (0, 0), BuildingBlock: ZUJKAS_clean_linker_0, # of connection points: 2
#     Edge 84, Type (0, 0), BuildingBlock: ZUJKAS_clean_linker_0, # of connection points: 2
#     Edge 85, Type (0, 0), BuildingBlock: ZUJKAS_clean_linker_0, # of connection points: 2
#     Edge 86, Type (0, 0), BuildingBlock: ZUJKAS_clean_linker_0, # of connection points: 2
#     Edge 87, Type (0, 0), BuildingBlock: ZUJKAS_clean_linker_0, # of connection points: 2
#     Edge 88, Type (0, 0), BuildingBlock: ZUJKAS_clean_linker_0, # of connection points: 2
#     Edge 89, Type (0, 0), BuildingBlock: ZUJKAS_clean_linker_0, # of connection points: 2
#     Edge 90, Type (0, 0), BuildingBlock: ZUJKAS_clean_linker_0, # of connection points: 2
#     Edge 91, Type (0, 0), BuildingBlock: ZUJKAS_clean_linker_0, # of connection points: 2
#     Edge 92, Type (0, 0), BuildingBlock: ZUJKAS_clean_linker_0, # of connection points: 2
#     Edge 93, Type (0, 0), BuildingBlock: ZUJKAS_clean_linker_0, # of connection points: 2
#     Edge 94, Type (0, 0), BuildingBlock: ZUJKAS_clean_linker_0, # of connection points: 2
#     Edge 95, Type (0, 0), BuildingBlock: ZUJKAS_clean_linker_0, # of connection points: 2
# Relax obj value: 0.063
# Max RMSD: 0.130
# Mean RMSD: 0.130
data_MOF--net-uke--node1-GALJAG_clean_sbu_0--edge1-ZUJKAS_clean_linker_0
_symmetry_space_group_name_H-M    P1
_symmetry_Int_Tables_number       1
_symmetry_cell_setting            triclinic
loop_
_symmetry_equiv_pos_as_xyz
'x, y, z'
_cell_length_a     27.645837
_cell_length_b     146.54912
_cell_length_c     68.339107
_cell_angle_alpha  90.006943
_cell_angle_beta   89.991114
_cell_angle_gamma 89.996475
loop_
_atom_site_label
_atom_site_type_symbol
_atom_site_fract_x
_atom_site_fract_y
_atom_site_fract_z
_atom_type_partial_charge
In0 In 0.0977 0.05544 0.27064 0.0
O1 O 0.01954 0.05445 0.28096 0.0
O2 O 0.07645 0.0547 0.30222 0.0
C3 C 0.1037 0.05586 0.2317 0.0
C4 C 0.11812 0.07301 0.27699 0.0
C5 C 0.13293 0.03855 0.2738 0.0
O6 O 0.06322 0.05531 0.24039 0.0
O7 O 0.14036 0.05624 0.24275 0.0
O8 O 0.15885 0.04546 0.27778 0.0
O9 O 0.09001 0.04028 0.26867 0.0
C10 C 0.03154 0.05434 0.29889 0.0
O11 O 0.14531 0.06675 0.28367 0.0
O12 O 0.08226 0.0703 0.26714 0.0
In13 In 0.14553 0.18649 0.26551 0.0
O14 O 0.22288 0.18873 0.2758 0.0
O15 O 0.16578 0.18855 0.29697 0.0
C16 C 0.14346 0.18525 0.22657 0.0
C17 C 0.13149 0.16888 0.27405 0.0
C18 C 0.10205 0.20276 0.26658 0.0
O19 O 0.18258 0.1867 0.23576 0.0
O20 O 0.1062 0.18437 0.23713 0.0
O21 O 0.07876 0.19549 0.27025 0.0
O22 O 0.14644 0.2017 0.2629 0.0
C23 C 0.21056 0.18932 0.29364 0.0
O24 O 0.10184 0.17493 0.27979 0.0
O25 O 0.16656 0.17178 0.26401 0.0
In26 In 0.10478 0.18497 0.97836 0.0
O27 O 0.14978 0.17345 0.96457 0.0
O28 O 0.08712 0.17013 0.98145 0.0
C29 C 0.14811 0.20126 0.97576 0.0
C30 C 0.03771 0.18727 0.9507 0.0
C31 C 0.10682 0.18454 0.01742 0.0
O32 O 0.17128 0.19393 0.97255 0.0
O33 O 0.10386 0.20024 0.97974 0.0
O34 O 0.0675 0.18548 0.00808 0.0
O35 O 0.14431 0.18375 0.00697 0.0
C36 C 0.1221 0.16729 0.97127 0.0
O37 O 0.02663 0.18697 0.96869 0.0
O38 O 0.08222 0.18642 0.94695 0.0
In39 In 0.16165 0.05362 0.98412 0.0
O40 O 0.23959 0.05111 0.97449 0.0
O41 O 0.18326 0.05086 0.95305 0.0
C42 C 0.15813 0.05505 0.02306 0.0
C43 C 0.1481 0.07121 0.97489 0.0
C44 C 0.11532 0.03761 0.98302 0.0
O45 O 0.19744 0.0534 0.01417 0.0
O46 O 0.12147 0.05605 0.01222 0.0
O47 O 0.09425 0.04496 0.97816 0.0
O48 O 0.15904 0.03845 0.98804 0.0
C49 C 0.22786 0.05011 0.95668 0.0
O50 O 0.11831 0.06512 0.96948 0.0
O51 O 0.18338 0.06835 0.98487 0.0
In52 In 0.89115 0.9376 0.73187 0.0
O53 O 0.84757 0.92679 0.71514 0.0
O54 O 0.91366 0.92306 0.7295 0.0
C55 C 0.85523 0.9544 0.73398 0.0
C56 C 0.95992 0.94177 0.70613 0.0
C57 C 0.8757 0.934 0.76952 0.0
O58 O 0.83334 0.9482 0.72442 0.0
O59 O 0.89421 0.952 0.74216 0.0
O60 O 0.91794 0.93548 0.76292 0.0
O61 O 0.84194 0.93426 0.75701 0.0
C62 C 0.87806 0.92057 0.71922 0.0
O63 O 0.97026 0.94001 0.72384 0.0
O64 O 0.91551 0.94141 0.70184 0.0
In65 In 0.86561 0.8081 0.72151 0.0
O66 O 0.78559 0.80603 0.71477 0.0
O67 O 0.83589 0.80709 0.69108 0.0
C68 C 0.87578 0.80862 0.76038 0.0
C69 C 0.88218 0.82566 0.71322 0.0
C70 C 0.90572 0.79165 0.71687 0.0
O71 O 0.8346 0.80795 0.75234 0.0
O72 O 0.91125 0.80908 0.74874 0.0
O73 O 0.92969 0.79887 0.71354 0.0
O74 O 0.86247 0.79287 0.72214 0.0
C75 C 0.79252 0.80602 0.69643 0.0
O76 O 0.90747 0.8194 0.70548 0.0
O77 O 0.8503 0.82299 0.72511 0.0
In78 In 0.91418 0.80546 0.00765 0.0
O79 O 0.98999 0.80246 0.01896 0.0
O80 O 0.93081 0.80213 0.03908 0.0
C81 C 0.91971 0.80829 0.969 0.0
C82 C 0.89624 0.82264 0.01906 0.0
C83 C 0.86777 0.78943 0.00558 0.0
O84 O 0.95668 0.8062 0.979 0.0
O85 O 0.88096 0.80907 0.97863 0.0
O86 O 0.84686 0.79655 0.01192 0.0
O87 O 0.91141 0.79049 0.00069 0.0
C88 C 0.9758 0.80127 0.03641 0.0
O89 O 0.86375 0.81654 0.01969 0.0
O90 O 0.93674 0.82001 0.01267 0.0
In91 In 0.82869 0.93602 0.01455 0.0
O92 O 0.75433 0.94034 0.02532 0.0
O93 O 0.81289 0.93995 0.04576 0.0
C94 C 0.82144 0.93239 0.97625 0.0
C95 C 0.84157 0.91882 0.02693 0.0
C96 C 0.87893 0.95159 0.01159 0.0
O97 O 0.78519 0.93492 0.9862 0.0
O98 O 0.86041 0.93165 0.98573 0.0
O99 O 0.89791 0.94445 0.01873 0.0
O100 O 0.83553 0.95075 0.0062 0.0
C101 C 0.76858 0.94155 0.04275 0.0
O102 O 0.87656 0.9244 0.02601 0.0
O103 O 0.80105 0.92201 0.02186 0.0
In104 In 0.06603 0.5576 0.76187 0.0
O105 O 0.11373 0.5694 0.77193 0.0
O106 O 0.03793 0.57171 0.76806 0.0
C107 C 0.1217 0.54286 0.75643 0.0
C108 C 0.01689 0.55227 0.79357 0.0
C109 C 0.0473 0.56016 0.72384 0.0
O110 O 0.1396 0.55034 0.76234 0.0
O111 O 0.07664 0.54295 0.75361 0.0
O112 O 0.01825 0.55584 0.73479 0.0
O113 O 0.08432 0.56331 0.73224 0.0
C114 C 0.07867 0.57497 0.7727 0.0
O115 O 0.99579 0.5539 0.77748 0.0
O116 O 0.06222 0.55329 0.7934 0.0
In117 In 0.15178 0.68793 0.76235 0.0
O118 O 0.224 0.69136 0.77641 0.0
O119 O 0.15943 0.69286 0.79339 0.0
C120 C 0.16564 0.68338 0.72485 0.0
C121 C 0.13323 0.67119 0.77602 0.0
C122 C 0.10658 0.70368 0.75497 0.0
O123 O 0.19958 0.68664 0.73517 0.0
O124 O 0.12588 0.68231 0.73363 0.0
O125 O 0.08393 0.69692 0.76209 0.0
O126 O 0.15109 0.7024 0.75197 0.0
C127 C 0.20501 0.69349 0.79267 0.0
O128 O 0.09963 0.67699 0.77368 0.0
O129 O 0.17514 0.67394 0.77162 0.0
In130 In 0.11972 0.68531 0.47816 0.0
O131 O 0.16423 0.67416 0.46295 0.0
O132 O 0.09965 0.67056 0.47845 0.0
C133 C 0.16069 0.70178 0.47775 0.0
C134 C 0.05283 0.68848 0.45088 0.0
C135 C 0.1264 0.6832 0.51687 0.0
O136 O 0.18413 0.69476 0.47239 0.0
O137 O 0.11752 0.70036 0.48295 0.0
O138 O 0.08629 0.68492 0.50862 0.0
O139 O 0.16232 0.68252 0.50551 0.0
C140 C 0.1352 0.66793 0.4683 0.0
O141 O 0.04148 0.68757 0.46877 0.0
O142 O 0.09742 0.68778 0.4471 0.0
In143 In 0.14255 0.5548 0.47901 0.0
O144 O 0.22217 0.55144 0.47387 0.0
O145 O 0.1738 0.55188 0.44944 0.0
C146 C 0.12936 0.55612 0.5177 0.0
C147 C 0.13771 0.57233 0.46831 0.0
C148 C 0.09105 0.53952 0.47441 0.0
O149 O 0.16837 0.55306 0.51051 0.0
O150 O 0.09794 0.55858 0.50538 0.0
O151 O 0.0722 0.54727 0.47128 0.0
O152 O 0.1348 0.53964 0.47957 0.0
C153 C 0.21632 0.55053 0.45556 0.0
O154 O 0.10845 0.56647 0.46149 0.0
O155 O 0.1682 0.5693 0.48042 0.0
In156 In 0.89717 0.43915 0.22613 0.0
O157 O 0.85443 0.42728 0.21256 0.0
O158 O 0.91753 0.42447 0.22964 0.0
C159 C 0.85526 0.45548 0.22211 0.0
C160 C 0.9662 0.44177 0.19948 0.0
C161 C 0.8894 0.43887 0.26505 0.0
O162 O 0.83219 0.44819 0.21828 0.0
O163 O 0.89845 0.45437 0.22758 0.0
O164 O 0.93005 0.4397 0.25663 0.0
O165 O 0.85339 0.43813 0.25377 0.0
C166 C 0.88304 0.42135 0.21957 0.0
O167 O 0.97565 0.44169 0.21764 0.0
O168 O 0.92242 0.4404 0.19506 0.0
In169 In 0.85257 0.30672 0.23074 0.0
O170 O 0.89663 0.31839 0.21707 0.0
O171 O 0.83391 0.32153 0.23406 0.0
C172 C 0.89799 0.29065 0.22808 0.0
C173 C 0.78614 0.3042 0.2029 0.0
C174 C 0.85321 0.30684 0.26984 0.0
O175 O 0.92059 0.29809 0.22546 0.0
O176 O 0.85333 0.29146 0.23144 0.0
O177 O 0.8144 0.30575 0.26023 0.0
O178 O 0.89083 0.308 0.25963 0.0
C179 C 0.86864 0.32447 0.22388 0.0
O180 O 0.7748 0.30447 0.22086 0.0
O181 O 0.8306 0.30524 0.19924 0.0
In182 In 0.88174 0.30369 0.5179 0.0
O183 O 0.95775 0.29915 0.5264 0.0
O184 O 0.91322 0.30564 0.54791 0.0
C185 C 0.88206 0.30221 0.47883 0.0
C186 C 0.8669 0.32163 0.52215 0.0
C187 C 0.83057 0.28863 0.52615 0.0
O188 O 0.92095 0.30229 0.48862 0.0
O189 O 0.84381 0.30286 0.48881 0.0
O190 O 0.80991 0.29626 0.52363 0.0
O191 O 0.87604 0.28882 0.52523 0.0
C192 C 0.9532 0.30193 0.54385 0.0
O193 O 0.84146 0.31585 0.53133 0.0
O194 O 0.89827 0.3183 0.5108 0.0
In195 In 0.85081 0.43599 0.51285 0.0
O196 O 0.77495 0.43806 0.52497 0.0
O197 O 0.83433 0.43678 0.5449 0.0
C198 C 0.84811 0.43604 0.47382 0.0
C199 C 0.8688 0.41828 0.51851 0.0
C200 C 0.89279 0.45233 0.51538 0.0
O201 O 0.80982 0.43676 0.48394 0.0
O202 O 0.88681 0.43519 0.4835 0.0
O203 O 0.91744 0.44506 0.51702 0.0
O204 O 0.84794 0.45121 0.51297 0.0
C205 C 0.7894 0.43794 0.54258 0.0
O206 O 0.89771 0.42434 0.52478 0.0
O207 O 0.83224 0.42124 0.50944 0.0
In208 In 0.61462 0.05778 0.76615 0.0
O209 O 0.54115 0.05328 0.77764 0.0
O210 O 0.59688 0.05658 0.79817 0.0
C211 C 0.60414 0.05675 0.72722 0.0
C212 C 0.61958 0.07584 0.77217 0.0
C213 C 0.67658 0.0438 0.7691 0.0
O214 O 0.56943 0.05498 0.73871 0.0
O215 O 0.6431 0.05905 0.73546 0.0
O216 O 0.69145 0.05187 0.76641 0.0
O217 O 0.63145 0.04294 0.77086 0.0
C218 C 0.55382 0.05399 0.7954 0.0
O219 O 0.65162 0.07049 0.77881 0.0
O220 O 0.58646 0.07205 0.76245 0.0
In221 In 0.64024 0.18961 0.76164 0.0
O222 O 0.71747 0.19032 0.77322 0.0
O223 O 0.65882 0.1901 0.79361 0.0
C224 C 0.64487 0.18961 0.7226 0.0
C225 C 0.61373 0.17224 0.767 0.0
C226 C 0.60188 0.20631 0.76397 0.0
O227 O 0.68278 0.18986 0.73305 0.0
O228 O 0.60546 0.18934 0.73196 0.0
O229 O 0.57586 0.19922 0.76569 0.0
O230 O 0.64652 0.20485 0.76172 0.0
C231 C 0.70399 0.19038 0.79095 0.0
O232 O 0.58957 0.17872 0.77448 0.0
O233 O 0.6498 0.17462 0.75693 0.0
In234 In 0.62872 0.18474 0.47417 0.0
O235 O 0.66952 0.17328 0.45813 0.0
O236 O 0.61575 0.16988 0.47935 0.0
C237 C 0.67313 0.20083 0.47011 0.0
C238 C 0.55828 0.18668 0.44784 0.0
C239 C 0.6298 0.18507 0.51326 0.0
O240 O 0.69699 0.19344 0.47 0.0
O241 O 0.62794 0.19995 0.4716 0.0
O242 O 0.59079 0.18587 0.50366 0.0
O243 O 0.66753 0.18403 0.50306 0.0
C244 C 0.64592 0.16709 0.46689 0.0
O245 O 0.54946 0.18663 0.46604 0.0
O246 O 0.60224 0.18573 0.44322 0.0
In247 In 0.60894 0.05793 0.47874 0.0
O248 O 0.68959 0.0582 0.47125 0.0
O249 O 0.63788 0.05734 0.44812 0.0
C250 C 0.60567 0.05835 0.51782 0.0
C251 C 0.57612 0.07458 0.46948 0.0
C252 C 0.57671 0.04078 0.47553 0.0
O253 O 0.64538 0.05864 0.50856 0.0
O254 O 0.56814 0.058 0.50728 0.0
O255 O 0.54882 0.04754 0.47295 0.0
O256 O 0.62013 0.04277 0.4792 0.0
C257 C 0.68182 0.05772 0.45301 0.0
O258 O 0.56017 0.06752 0.46097 0.0
O259 O 0.6067 0.07313 0.4828 0.0
In260 In 0.40554 0.93687 0.23517 0.0
O261 O 0.47896 0.94153 0.22386 0.0
O262 O 0.41711 0.94283 0.20524 0.0
C263 C 0.41337 0.93191 0.2727 0.0
C264 C 0.40029 0.92021 0.21932 0.0
C265 C 0.34993 0.95152 0.24146 0.0
O266 O 0.44588 0.9366 0.26435 0.0
O267 O 0.37816 0.92965 0.262 0.0
O268 O 0.333 0.94446 0.23316 0.0
O269 O 0.3939 0.95104 0.24628 0.0
C270 C 0.46216 0.94392 0.20738 0.0
O271 O 0.36295 0.92519 0.22107 0.0
O272 O 0.43921 0.92371 0.22543 0.0
In273 In 0.35244 0.80775 0.2291 0.0
O274 O 0.40268 0.8185 0.21567 0.0
O275 O 0.32911 0.82199 0.22177 0.0
C276 C 0.39596 0.79159 0.23348 0.0
C277 C 0.29128 0.80272 0.20089 0.0
C278 C 0.35051 0.81195 0.26719 0.0
O279 O 0.41786 0.7983 0.22577 0.0
O280 O 0.35288 0.79313 0.23865 0.0
O281 O 0.31249 0.80958 0.25813 0.0
O282 O 0.38839 0.81229 0.25689 0.0
C283 C 0.36971 0.82452 0.21527 0.0
O284 O 0.2765 0.80469 0.21795 0.0
O285 O 0.3365 0.80325 0.19839 0.0
In286 In 0.38582 0.80826 0.51368 0.0
O287 O 0.46233 0.80586 0.52475 0.0
O288 O 0.40299 0.80439 0.54466 0.0
C289 C 0.38564 0.8121 0.47545 0.0
C290 C 0.36687 0.82499 0.52715 0.0
C291 C 0.34725 0.79165 0.51038 0.0
O292 O 0.42448 0.81027 0.48451 0.0
O293 O 0.34778 0.81207 0.4858 0.0
O294 O 0.32275 0.79829 0.51705 0.0
O295 O 0.39028 0.79351 0.50563 0.0
C296 C 0.44822 0.80411 0.54202 0.0
O297 O 0.33513 0.81873 0.52782 0.0
O298 O 0.40677 0.82272 0.51959 0.0
In299 In 0.33476 0.93656 0.51531 0.0
O300 O 0.26088 0.94077 0.52671 0.0
O301 O 0.3225 0.9421 0.54552 0.0
C302 C 0.32994 0.93161 0.47773 0.0
C303 C 0.34041 0.91998 0.53119 0.0
C304 C 0.38601 0.95175 0.50958 0.0
O305 O 0.29579 0.93595 0.4859 0.0
O306 O 0.36533 0.92967 0.48865 0.0
O307 O 0.40504 0.94481 0.51764 0.0
O308 O 0.34227 0.95085 0.50468 0.0
C309 C 0.2773 0.94298 0.5434 0.0
O310 O 0.37769 0.925 0.52961 0.0
O311 O 0.30161 0.92336 0.52467 0.0
In312 In 0.58927 0.55735 0.26839 0.0
O313 O 0.5185 0.55297 0.28238 0.0
O314 O 0.58409 0.55161 0.29881 0.0
C315 C 0.57431 0.56241 0.2313 0.0
C316 C 0.59942 0.57399 0.28384 0.0
C317 C 0.64022 0.54234 0.26001 0.0
O318 O 0.54318 0.5578 0.24065 0.0
O319 O 0.61172 0.56456 0.24082 0.0
O320 O 0.66044 0.54927 0.26763 0.0
O321 O 0.59546 0.54314 0.25689 0.0
C322 C 0.53867 0.55062 0.29828 0.0
O323 O 0.63586 0.56891 0.28072 0.0
O324 O 0.55898 0.57059 0.27924 0.0
In325 In 0.64639 0.68681 0.26666 0.0
O326 O 0.72415 0.68935 0.27613 0.0
O327 O 0.66792 0.68997 0.29762 0.0
C328 C 0.64277 0.68388 0.22807 0.0
C329 C 0.63004 0.66968 0.2785 0.0
C330 C 0.60423 0.70322 0.26568 0.0
O331 O 0.68231 0.68563 0.23669 0.0
O332 O 0.606 0.68353 0.23901 0.0
O333 O 0.58197 0.69629 0.27224 0.0
O334 O 0.64703 0.70177 0.26004 0.0
C335 C 0.71259 0.69055 0.2939 0.0
O336 O 0.5984 0.67587 0.28078 0.0
O337 O 0.6686 0.67222 0.27024 0.0
In338 In 0.58622 0.68686 0.98116 0.0
O339 O 0.50904 0.69068 0.97297 0.0
O340 O 0.56317 0.69048 0.95059 0.0
C341 C 0.58934 0.68388 0.0198 0.0
C342 C 0.59711 0.66959 0.96895 0.0
C343 C 0.63448 0.7027 0.98136 0.0
O344 O 0.55024 0.68591 0.01118 0.0
O345 O 0.62595 0.68325 0.00885 0.0
O346 O 0.65314 0.69553 0.97418 0.0
O347 O 0.59228 0.70175 0.9881 0.0
C348 C 0.51938 0.69184 0.95507 0.0
O349 O 0.63172 0.67526 0.96805 0.0
O350 O 0.55816 0.6727 0.97588 0.0
In351 In 0.65647 0.55681 0.98773 0.0
O352 O 0.73474 0.55388 0.97918 0.0
O353 O 0.67872 0.5516 0.95817 0.0
C354 C 0.65459 0.56138 0.02563 0.0
C355 C 0.64193 0.57344 0.97257 0.0
C356 C 0.60895 0.54093 0.99081 0.0
O357 O 0.69122 0.5576 0.01799 0.0
O358 O 0.61991 0.56293 0.0141 0.0
O359 O 0.59109 0.5476 0.98144 0.0
O360 O 0.64964 0.54241 -0.0015 0.0
C361 C 0.72338 0.55137 0.96204 0.0
O362 O 0.60821 0.56757 0.97332 0.0
O363 O 0.68216 0.57081 0.97927 0.0
In364 In 0.39246 0.43989 0.72772 0.0
O365 O 0.47132 0.44228 0.71991 0.0
O366 O 0.41717 0.44431 0.69791 0.0
C367 C 0.38697 0.43566 0.76575 0.0
C368 C 0.37753 0.42324 0.71286 0.0
C369 C 0.35047 0.45631 0.72908 0.0
O370 O 0.42618 0.43831 0.75801 0.0
O371 O 0.35139 0.43511 0.75424 0.0
O372 O 0.32983 0.4496 0.72082 0.0
O373 O 0.39122 0.4546 0.73654 0.0
C374 C 0.46158 0.44437 0.70233 0.0
O375 O 0.34347 0.42903 0.71377 0.0
O376 O 0.41777 0.42592 0.7194 0.0
In377 In 0.34962 0.30943 0.72726 0.0
O378 O 0.39142 0.32146 0.71435 0.0
O379 O 0.31994 0.32365 0.72541 0.0
C380 C 0.40042 0.29395 0.72513 0.0
C381 C 0.28572 0.30496 0.69976 0.0
C382 C 0.35136 0.31117 0.76622 0.0
O383 O 0.41993 0.30158 0.72126 0.0
O384 O 0.35628 0.29429 0.72972 0.0
O385 O 0.3124 0.30953 0.75711 0.0
O386 O 0.38842 0.31204 0.7556 0.0
C387 C 0.35694 0.32701 0.7173 0.0
O388 O 0.27541 0.30437 0.71779 0.0
O389 O 0.32773 0.30783 0.69585 0.0
In390 In 0.39349 0.30574 0.01378 0.0
O391 O 0.46967 0.30326 0.02513 0.0
O392 O 0.41039 0.30295 0.04533 0.0
C393 C 0.39308 0.308 0.975 0.0
C394 C 0.37834 0.32316 0.02383 0.0
C395 C 0.3515 0.28933 0.01301 0.0
O396 O 0.43193 0.30639 0.98425 0.0
O397 O 0.35544 0.30855 0.98542 0.0
O398 O 0.32807 0.29638 0.01821 0.0
O399 O 0.39531 0.29067 0.00862 0.0
C400 C 0.45552 0.30227 0.04267 0.0
O401 O 0.34572 0.31716 0.02626 0.0
O402 O 0.41722 0.32028 0.01636 0.0
In403 In 0.34575 0.43652 0.01054 0.0
O404 O 0.39162 0.42467 0.02227 0.0
O405 O 0.31499 0.42306 0.01984 0.0
C406 C 0.39684 0.45186 0.00556 0.0
C407 C 0.28909 0.44275 0.03917 0.0
C408 C 0.33618 0.43227 0.97271 0.0
O409 O 0.41488 0.44502 0.01433 0.0
O410 O 0.35416 0.45079 -0.00056 0.0
O411 O 0.30184 0.43581 0.98236 0.0
O412 O 0.37445 0.43079 0.9823 0.0
C413 C 0.35501 0.41955 0.02455 0.0
O414 O 0.27223 0.44068 0.0225 0.0
O415 O 0.33424 0.44175 0.0411 0.0
H416 H 0.23099 0.05374 0.05008 0.0
H417 H 0.22304 0.05419 0.08582 0.0
H418 H 0.06878 0.05772 0.0801 0.0
H419 H 0.07648 0.05747 0.04454 0.0
H420 H 0.10916 0.06938 0.10709 0.0
H421 H 0.16907 0.03368 0.1198 0.0
H422 H 0.2114 0.04055 0.10636 0.0
H423 H 0.15347 0.03792 0.09583 0.0
C424 C 0.19545 0.05462 0.05647 0.0
C425 C 0.15434 0.05553 0.04455 0.0
C426 C 0.19092 0.05482 0.07685 0.0
C427 C 0.1452 0.05583 0.08556 0.0
C428 C 0.10433 0.0569 0.07365 0.0
H429 H 0.0315 0.05622 0.20427 0.0
H430 H 0.04093 0.05641 0.16855 0.0
C431 C 0.10882 0.05674 0.05334 0.0
C432 C 0.13961 0.05585 0.10707 0.0
H433 H 0.15587 0.04282 0.14792 0.0
C434 C 0.11925 0.06357 0.11603 0.0
C435 C 0.15261 0.04823 0.11863 0.0
C436 C 0.17245 0.03959 0.10969 0.0
C437 C 0.11214 0.06392 0.13633 0.0
C438 C 0.12534 0.05633 0.14786 0.0
C439 C 0.1458 0.04862 0.13895 0.0
C440 C 0.11919 0.05631 0.16931 0.0
C441 C 0.09137 0.07246 0.14536 0.0
C442 C 0.16006 0.05606 0.1814 0.0
C443 C 0.15481 0.05596 0.20168 0.0
C444 C 0.10854 0.05602 0.21022 0.0
C445 C 0.06756 0.0562 0.19808 0.0
C446 C 0.07288 0.05634 0.17773 0.0
H447 H 0.09194 0.07831 0.13503 0.0
H448 H 0.05326 0.07118 0.14967 0.0
H449 H 0.11178 0.07437 0.15875 0.0
H450 H 0.19605 0.056 0.17512 0.0
H451 H 0.18708 0.0558 0.21067 0.0
H452 H 0.03201 0.18498 0.04368 0.0
H453 H 0.038 0.18505 0.07954 0.0
H454 H 0.19355 0.18404 0.07539 0.0
H455 H 0.18803 0.18397 0.03973 0.0
H456 H 0.08897 0.1713 0.10393 0.0
H457 H 0.16213 0.20648 0.11132 0.0
H458 H 0.13037 0.20265 0.08973 0.0
H459 H 0.19203 0.1993 0.09375 0.0
C460 C 0.06743 0.18479 0.05044 0.0
C461 C 0.10954 0.18449 0.03895 0.0
C462 C 0.07077 0.18482 0.07086 0.0
C463 C 0.11623 0.18466 0.07998 0.0
C464 C 0.15822 0.1843 0.06855 0.0
H465 H 0.21773 0.18627 0.20015 0.0
H466 H 0.21161 0.18568 0.16435 0.0
C467 C 0.15493 0.18422 0.0482 0.0
C468 C 0.12009 0.18471 0.1015 0.0
H469 H 0.16086 0.19739 0.13995 0.0
C470 C 0.1044 0.17701 0.11187 0.0
C471 C 0.14068 0.19215 0.11165 0.0
C472 C 0.157 0.20066 0.10112 0.0
C473 C 0.10947 0.17649 0.13225 0.0
C474 C 0.12979 0.18397 0.14246 0.0
C475 C 0.14547 0.19167 0.13204 0.0
C476 C 0.13378 0.18406 0.16402 0.0
C477 C 0.09402 0.16788 0.14261 0.0
C478 C 0.09204 0.18344 0.17558 0.0
C479 C 0.09545 0.18374 0.19591 0.0
C480 C 0.14066 0.18476 0.20506 0.0
C481 C 0.18247 0.18545 0.19348 0.0
C482 C 0.17902 0.18512 0.17308 0.0
H483 H 0.09263 0.16197 0.13244 0.0
H484 H 0.11896 0.16621 0.15483 0.0
H485 H 0.05723 0.16886 0.14875 0.0
H486 H 0.05669 0.18285 0.16886 0.0
H487 H 0.06253 0.18326 0.20445 0.0
H488 H 0.74378 0.93416 0.9516 0.0
H489 H 0.74386 0.93251 0.91584 0.0
H490 H 0.89571 0.92575 0.91734 0.0
H491 H 0.8957 0.9272 0.95282 0.0
H492 H 0.79744 0.94267 0.89041 0.0
H493 H 0.84386 0.90621 0.88133 0.0
H494 H 0.82327 0.91088 0.90434 0.0
H495 H 0.8857 0.91195 0.89716 0.0
C496 C 0.77691 0.93217 0.94428 0.0
C497 C 0.81969 0.93079 0.95497 0.0
C498 C 0.77692 0.93124 0.92391 0.0
C499 C 0.8196 0.92885 0.914 0.0
C500 C 0.86208 0.92735 0.92472 0.0
H501 H 0.9411 0.93233 0.79932 0.0
H502 H 0.92349 0.93054 0.8343 0.0
C503 C 0.86208 0.92826 0.945 0.0
C504 C 0.82133 0.92871 0.89237 0.0
H505 H 0.85901 0.91592 0.85348 0.0
C506 C 0.81004 0.93678 0.88228 0.0
C507 C 0.83788 0.92101 0.88183 0.0
C508 C 0.84789 0.912 0.89172 0.0
C509 C 0.81698 0.93747 0.86202 0.0
C510 C 0.8354 0.92989 0.85166 0.0
C511 C 0.84529 0.92174 0.86159 0.0
C512 C 0.84581 0.93042 0.83054 0.0
C513 C 0.80631 0.94639 0.85188 0.0
C514 C 0.80786 0.9308 0.817 0.0
C515 C 0.81775 0.93178 0.79709 0.0
C516 C 0.86579 0.93243 0.79045 0.0
C517 C 0.90378 0.93187 0.80404 0.0
C518 C 0.89382 0.93083 0.82397 0.0
H519 H 0.79856 0.95198 0.86242 0.0
H520 H 0.83735 0.94844 0.84254 0.0
H521 H 0.77436 0.94554 0.84222 0.0
H522 H 0.77061 0.93043 0.82187 0.0
H523 H 0.78772 0.93218 0.78695 0.0
H524 H 0.99692 0.80641 0.94411 0.0
H525 H 0.99507 0.80683 0.90817 0.0
H526 H 0.84212 0.81254 0.9097 0.0
H527 H 0.84353 0.81215 0.94539 0.0
H528 H 0.87521 0.79685 0.88552 0.0
H529 H 0.97128 0.82957 0.8707 0.0
H530 H -0.00213 0.82176 0.88799 0.0
H531 H 0.94187 0.82729 0.89381 0.0
C532 C 0.96309 0.80787 0.93676 0.0
C533 C 0.92037 0.80923 0.94752 0.0
C534 C 0.96212 0.80812 0.91629 0.0
C535 C 0.91848 0.80975 0.90641 0.0
C536 C 0.8761 0.81129 0.91713 0.0
H537 H 0.80594 0.80901 0.78867 0.0
H538 H 0.81788 0.80916 0.82417 0.0
C539 C 0.87705 0.81107 0.93751 0.0
C540 C 0.91589 0.80937 0.88487 0.0
H541 H 0.94451 0.82114 0.84342 0.0
C542 C 0.89047 0.80213 0.87626 0.0
C543 C 0.93615 0.81625 0.87298 0.0
C544 C 0.96319 0.82421 0.88173 0.0
C545 C 0.88451 0.80161 0.85593 0.0
C546 C 0.90345 0.80864 0.84402 0.0
C547 C 0.92976 0.81579 0.85263 0.0
C548 C 0.89608 0.80873 0.82258 0.0
C549 C 0.85851 0.79347 0.84741 0.0
C550 C 0.93609 0.80872 0.80998 0.0
C551 C 0.92937 0.80873 0.78974 0.0
C552 C 0.88248 0.80877 0.78177 0.0
C553 C 0.84244 0.80891 0.79441 0.0
C554 C 0.84922 0.80894 0.81467 0.0
H555 H 0.8588 0.78757 0.85764 0.0
H556 H 0.82021 0.79531 0.84459 0.0
H557 H 0.87513 0.79131 0.83336 0.0
H558 H 0.97253 0.8086 0.81581 0.0
H559 H 0.96093 0.80864 0.78035 0.0
H560 H 0.00566 0.54755 0.69984 0.0
H561 H 0.01528 0.54656 0.66421 0.0
H562 H 0.08759 0.57266 0.66413 0.0
H563 H 0.08024 0.57343 0.69974 0.0
H564 H 0.99092 0.55606 0.63266 0.0
H565 H 0.18995 0.5568 0.64058 0.0
H566 H 0.14996 0.55582 0.6613 0.0
H567 H 0.16266 0.56683 0.65072 0.0
C568 C 0.02272 0.55314 0.69212 0.0
C569 C 0.04271 0.56051 0.70244 0.0
C570 C 0.02841 0.55256 0.67181 0.0
C571 C 0.05363 0.5594 0.66162 0.0
C572 C 0.06963 0.56715 0.67179 0.0
H573 H 0.06375 0.56681 0.53631 0.0
H574 H 0.04522 0.56718 0.57122 0.0
C575 C 0.06494 0.56763 0.69207 0.0
C576 C 0.06538 0.55825 0.64061 0.0
H577 H 0.1593 0.55881 0.60823 0.0
C578 C 0.02775 0.5566 0.62731 0.0
C579 C 0.11366 0.55867 0.6337 0.0
C580 C 0.15638 0.55952 0.64736 0.0
C581 C 0.03689 0.55566 0.6072 0.0
C582 C 0.08477 0.55675 0.60016 0.0
C583 C 0.12252 0.55812 0.61356 0.0
C584 C 0.09661 0.55662 0.57899 0.0
C585 C 0.9952 0.55335 0.59384 0.0
C586 C 0.13353 0.55092 0.57184 0.0
C587 C 0.14527 0.55092 0.55194 0.0
C588 C 0.11985 0.55654 0.53887 0.0
C589 C 0.08351 0.56233 0.54607 0.0
C590 C 0.0725 0.56247 0.56598 0.0
H591 H 0.96614 0.54967 0.60185 0.0
H592 H 0.97935 0.55975 0.588 0.0
H593 H 0.00708 0.54905 0.58135 0.0
H594 H 0.15295 0.54641 0.58163 0.0
H595 H 0.17334 0.54637 0.54672 0.0
H596 H 0.23759 0.68895 0.70002 0.0
H597 H 0.23729 0.68789 0.66413 0.0
H598 H 0.10261 0.67308 0.66624 0.0
H599 H 0.10259 0.67409 0.7019 0.0
H600 H 0.1752 0.66626 0.63845 0.0
H601 H 0.13537 0.70343 0.6325 0.0
H602 H 0.18703 0.70022 0.64698 0.0
H603 H 0.12743 0.69716 0.65502 0.0
C604 C 0.20843 0.68533 0.69281 0.0
C605 C 0.16991 0.68167 0.70368 0.0
C606 C 0.20819 0.68477 0.67237 0.0
C607 C 0.1696 0.68051 0.66264 0.0
C608 C 0.13258 0.67642 0.67353 0.0
H609 H 0.05809 0.68613 0.54517 0.0
H610 H 0.06916 0.68506 0.58073 0.0
C611 C 0.13262 0.67702 0.69388 0.0
C612 C 0.16569 0.68079 0.64112 0.0
H613 H 0.14134 0.69514 0.60307 0.0
C614 C 0.16817 0.67257 0.63065 0.0
C615 C 0.15562 0.68902 0.63116 0.0
C616 C 0.1508 0.69797 0.64192 0.0
C617 C 0.16104 0.67239 0.61033 0.0
C618 C 0.1514 0.68064 0.60035 0.0
C619 C 0.14881 0.68884 0.61084 0.0
C620 C 0.14417 0.68092 0.57897 0.0
C621 C 0.16282 0.66336 0.59971 0.0
C622 C 0.18276 0.67897 0.56636 0.0
C623 C 0.17663 0.67961 0.54616 0.0
C624 C 0.13176 0.68221 0.53822 0.0
C625 C 0.09298 0.68408 0.55089 0.0
C626 C 0.09926 0.68349 0.57115 0.0
H627 H 0.16047 0.65749 0.60996 0.0
H628 H 0.13289 0.66286 0.58893 0.0
H629 H 0.19748 0.66284 0.5916 0.0
H630 H 0.21786 0.67711 0.57217 0.0
H631 H 0.20721 0.67815 0.53676 0.0
H632 H 0.77075 0.43735 0.44888 0.0
H633 H 0.77327 0.43811 0.41298 0.0
H634 H 0.92889 0.4362 0.4145 0.0
H635 H 0.92681 0.43547 0.45014 0.0
H636 H 0.88925 0.45074 0.39052 0.0
H637 H 0.80899 0.41662 0.37519 0.0
H638 H 0.77648 0.42392 0.39179 0.0
H639 H 0.83461 0.41953 0.39868 0.0
C640 C 0.80541 0.43705 0.44152 0.0
C641 C 0.84855 0.43632 0.45227 0.0
C642 C 0.80678 0.43746 0.42107 0.0
C643 C 0.85127 0.43714 0.41119 0.0
C644 C 0.89426 0.43644 0.42191 0.0
H645 H 0.96055 0.43947 0.29283 0.0
H646 H 0.95012 0.43934 0.32844 0.0
C647 C 0.89293 0.436 0.44226 0.0
C648 C 0.85361 0.43768 0.38967 0.0
H649 H 0.82944 0.42572 0.34801 0.0
C650 C 0.87606 0.44529 0.38117 0.0
C651 C 0.83626 0.43056 0.37765 0.0
C652 C 0.81298 0.42214 0.38619 0.0
C653 C 0.88165 0.44598 0.36084 0.0
C654 C 0.86528 0.43877 0.34882 0.0
C655 C 0.84211 0.43122 0.35731 0.0
C656 C 0.87187 0.43889 0.32737 0.0
C657 C 0.90449 0.45447 0.35242 0.0
C658 C 0.83142 0.43845 0.31505 0.0
C659 C 0.83729 0.43844 0.29479 0.0
C660 C 0.88377 0.43884 0.28649 0.0
C661 C 0.92432 0.43921 0.29884 0.0
C662 C 0.9184 0.4392 0.31915 0.0
H663 H 0.90276 0.46028 0.36285 0.0
H664 H 0.94315 0.4531 0.34921 0.0
H665 H 0.88648 0.45652 0.33858 0.0
H666 H 0.79525 0.43817 0.32114 0.0
H667 H 0.80535 0.43814 0.28563 0.0
H668 H 0.77842 0.30444 0.29561 0.0
H669 H 0.78365 0.30354 0.33141 0.0
H670 H 0.93817 0.30733 0.32821 0.0
H671 H 0.93323 0.30838 0.29265 0.0
H672 H 0.837 0.29102 0.35385 0.0
H673 H 0.89667 0.32657 0.36804 0.0
H674 H 0.87116 0.32304 0.34493 0.0
H675 H 0.93341 0.32063 0.35053 0.0
C676 C 0.81339 0.30515 0.30258 0.0
C677 C 0.85536 0.30653 0.29138 0.0
C678 C 0.81634 0.30462 0.32298 0.0
C679 C 0.86121 0.30551 0.33241 0.0
C680 C 0.9031 0.30683 0.32122 0.0
H681 H 0.95831 0.30289 0.45331 0.0
H682 H 0.95436 0.30304 0.41741 0.0
C683 C 0.90019 0.30739 0.3009 0.0
C684 C 0.8647 0.30476 0.35392 0.0
H685 H 0.90119 0.31624 0.39478 0.0
C686 C 0.85075 0.29655 0.36284 0.0
C687 C 0.8829 0.31197 0.36553 0.0
C688 C 0.89649 0.32108 0.35682 0.0
C689 C 0.8552 0.2953 0.3831 0.0
C690 C 0.87354 0.30251 0.39468 0.0
C691 C 0.88754 0.31071 0.38578 0.0
C692 C 0.8764 0.30184 0.41619 0.0
C693 C 0.84092 0.28627 0.39195 0.0
C694 C 0.83388 0.30114 0.42724 0.0
C695 C 0.83601 0.30109 0.44762 0.0
C696 C 0.88073 0.30176 0.4573 0.0
C697 C 0.92341 0.30233 0.44621 0.0
C698 C 0.9212 0.30243 0.42577 0.0
H699 H 0.83927 0.28077 0.38076 0.0
H700 H 0.86676 0.28421 0.40358 0.0
H701 H 0.80454 0.28691 0.39867 0.0
H702 H 0.79893 0.30084 0.4201 0.0
H703 H 0.8025 0.30065 0.45578 0.0
H704 H 0.52312 0.05363 0.70501 0.0
H705 H 0.51829 0.05312 0.66909 0.0
H706 H 0.67157 0.05828 0.66533 0.0
H707 H 0.67677 0.05879 0.70092 0.0
H708 H 0.54844 0.06763 0.64244 0.0
H709 H 0.64935 0.03535 0.63072 0.0
H710 H 0.62241 0.03833 0.65395 0.0
H711 H 0.67897 0.04333 0.64667 0.0
C712 C 0.55574 0.0546 0.69648 0.0
C713 C 0.60031 0.05623 0.70573 0.0
C714 C 0.55293 0.05431 0.67604 0.0
C715 C 0.59472 0.05554 0.66467 0.0
C716 C 0.63911 0.05716 0.67389 0.0
H717 H 0.68021 0.05948 0.54399 0.0
H718 H 0.67489 0.05889 0.57977 0.0
C719 C 0.64192 0.0575 0.69423 0.0
C720 C 0.59223 0.0555 0.64309 0.0
H721 H 0.63754 0.04479 0.60275 0.0
C722 C 0.56734 0.06259 0.63369 0.0
C723 C 0.61725 0.04892 0.63186 0.0
C724 C 0.64319 0.041 0.64127 0.0
C725 C 0.56829 0.06347 0.61325 0.0
C726 C 0.59406 0.05698 0.60202 0.0
C727 C 0.61807 0.04978 0.61143 0.0
C728 C 0.59693 0.05756 0.58045 0.0
C729 C 0.54321 0.07152 0.60393 0.0
C730 C 0.5549 0.05694 0.56906 0.0
C731 C 0.55782 0.05731 0.54869 0.0
C732 C 0.6029 0.05823 0.53937 0.0
C733 C 0.645 0.0588 0.5508 0.0
C734 C 0.64202 0.05845 0.57119 0.0
H735 H 0.53587 0.07703 0.61471 0.0
H736 H 0.56524 0.07438 0.59181 0.0
H737 H 0.50805 0.06926 0.59779 0.0
H738 H 0.51989 0.05605 0.57591 0.0
H739 H 0.52477 0.05678 0.54026 0.0
H740 H 0.7239 0.18891 0.69844 0.0
H741 H 0.72384 0.18857 0.6625 0.0
H742 H 0.56796 0.18973 0.66244 0.0
H743 H 0.56763 0.19012 0.69812 0.0
H744 H 0.67556 0.17526 0.63818 0.0
H745 H 0.60924 0.2105 0.62496 0.0
H746 H 0.6348 0.20694 0.64806 0.0
H747 H 0.57354 0.204 0.64195 0.0
C748 C 0.6897 0.18915 0.69073 0.0
C749 C 0.6458 0.18957 0.70104 0.0
C750 C 0.68972 0.18895 0.67026 0.0
C751 C 0.64591 0.18925 0.65991 0.0
C752 C 0.60214 0.18965 0.67019 0.0
H753 H 0.55448 0.18696 0.53893 0.0
H754 H 0.55913 0.18771 0.57474 0.0
C755 C 0.60206 0.18982 0.69057 0.0
C756 C 0.64544 0.1888 0.63834 0.0
H757 H 0.60992 0.20047 0.5976 0.0
C758 C 0.66165 0.18079 0.62925 0.0
C759 C 0.62691 0.19602 0.62685 0.0
C760 C 0.61049 0.20489 0.6359 0.0
C761 C 0.65871 0.17971 0.6089 0.0
C762 C 0.63991 0.18691 0.59741 0.0
C763 C 0.62409 0.19495 0.6065 0.0
C764 C 0.63701 0.18629 0.57586 0.0
C765 C 0.67453 0.17078 0.59993 0.0
C766 C 0.67928 0.18533 0.56474 0.0
C767 C 0.67672 0.18487 0.54439 0.0
C768 C 0.63184 0.18544 0.5348 0.0
C769 C 0.58951 0.18647 0.54595 0.0
C770 C 0.59212 0.18691 0.56636 0.0
H771 H 0.67574 0.16521 0.61095 0.0
H772 H 0.64987 0.16872 0.58789 0.0
H773 H 0.71141 0.17158 0.59376 0.0
H774 H 0.71433 0.18503 0.57179 0.0
H775 H 0.71 0.18414 0.53617 0.0
H776 H 0.28473 0.94088 0.44841 0.0
H777 H 0.29892 0.93918 0.41325 0.0
H778 H 0.39241 0.91616 0.42448 0.0
H779 H 0.38023 0.91816 0.45964 0.0
H780 H 0.43546 0.9274 0.40124 0.0
H781 H 0.2506 0.9221 0.37268 0.0
H782 H 0.25432 0.93244 0.38658 0.0
H783 H 0.26413 0.92162 0.39848 0.0
C784 C 0.30739 0.93534 0.4433 0.0
C785 C 0.33135 0.92964 0.45664 0.0
C786 C 0.31536 0.93434 0.42321 0.0
C787 C 0.3463 0.92746 0.41617 0.0
C788 C 0.36844 0.92152 0.42954 0.0
H789 H 0.36811 0.91791 0.29095 0.0
H790 H 0.35709 0.91582 0.32614 0.0
C791 C 0.36132 0.92264 0.4496 0.0
C792 C 0.35896 0.92695 0.3951 0.0
H793 H 0.31063 0.92664 0.34923 0.0
C794 C 0.40813 0.92711 0.38987 0.0
C795 C 0.32345 0.92645 0.38025 0.0
C796 C 0.27024 0.92554 0.3848 0.0
C797 C 0.42274 0.92698 0.37022 0.0
C798 C 0.38714 0.92704 0.35537 0.0
C799 C 0.338 0.92668 0.3606 0.0
C800 C 0.39961 0.92763 0.33429 0.0
C801 C 0.47613 0.92665 0.36568 0.0
C802 C 0.42826 0.93483 0.32715 0.0
C803 C 0.43561 0.93589 0.30704 0.0
C804 C 0.41326 0.92992 0.29378 0.0
C805 C 0.38573 0.9226 0.30092 0.0
C806 C 0.37927 0.92142 0.321 0.0
H807 H 0.49681 0.92346 0.37784 0.0
H808 H 0.48344 0.92276 0.35205 0.0
H809 H 0.48989 0.9337 0.3638 0.0
H810 H 0.44323 0.93986 0.33704 0.0
H811 H 0.45635 0.94167 0.30184 0.0
H812 H 0.46088 0.81251 0.4494 0.0
H813 H 0.45567 0.81428 0.41376 0.0
H814 H 0.30054 0.81679 0.41802 0.0
H815 H 0.30551 0.81523 0.45346 0.0
H816 H 0.40769 0.80288 0.38886 0.0
H817 H 0.33352 0.83788 0.3822 0.0
H818 H 0.35939 0.8336 0.40466 0.0
H819 H 0.29826 0.83073 0.39804 0.0
C820 C 0.4258 0.81358 0.44272 0.0
C821 C 0.38364 0.81375 0.45418 0.0
C822 C 0.42286 0.81458 0.42241 0.0
C823 C 0.37778 0.81581 0.4133 0.0
C824 C 0.33578 0.81609 0.42477 0.0
H825 H 0.2761 0.81084 0.29364 0.0
H826 H 0.28198 0.81232 0.32939 0.0
C827 C 0.33869 0.81512 0.44503 0.0
C828 C 0.37405 0.81607 0.39172 0.0
H829 H 0.32974 0.82854 0.35347 0.0
C830 C 0.39108 0.80853 0.38111 0.0
C831 C 0.35212 0.82344 0.38168 0.0
C832 C 0.33519 0.83191 0.39221 0.0
C833 C 0.38596 0.80808 0.36075 0.0
C834 C 0.36343 0.81537 0.35079 0.0
C835 C 0.34661 0.82294 0.36129 0.0
C836 C 0.35861 0.8153 0.32932 0.0
C837 C 0.40405 0.79977 0.34996 0.0
C838 C 0.39954 0.81669 0.31765 0.0
C839 C 0.39632 0.81587 0.29738 0.0
C840 C 0.35206 0.81363 0.28845 0.0
C841 C 0.31064 0.81255 0.30015 0.0
C842 C 0.31391 0.8134 0.3205 0.0
H843 H 0.41387 0.79413 0.36008 0.0
H844 H 0.37615 0.79727 0.33957 0.0
H845 H 0.43661 0.80162 0.34133 0.0
H846 H 0.43423 0.8182 0.32428 0.0
H847 H 0.42884 0.81678 0.28876 0.0
H848 H 0.69987 0.55248 0.05543 0.0
H849 H 0.68246 0.5539 0.09044 0.0
H850 H 0.58334 0.57595 0.07827 0.0
H851 H 0.59861 0.57417 0.04324 0.0
H852 H 0.69193 0.56652 0.11675 0.0
H853 H 0.49622 0.55953 0.10821 0.0
H854 H 0.53842 0.55831 0.08829 0.0
H855 H 0.51488 0.56939 0.09465 0.0
C856 C 0.67472 0.55767 0.0603 0.0
C857 C 0.65015 0.56315 0.04672 0.0
C858 C 0.66467 0.55847 0.08026 0.0
C859 C 0.63044 0.56485 0.08694 0.0
C860 C 0.60842 0.57074 0.07343 0.0
H861 H 0.61171 0.57683 0.21163 0.0
H862 H 0.62062 0.57833 0.17617 0.0
C863 C 0.61758 0.5698 0.05345 0.0
C864 C 0.61745 0.56523 0.10798 0.0
H865 H 0.52202 0.56441 0.13968 0.0
C866 C 0.65478 0.56604 0.12176 0.0
C867 C 0.56899 0.56442 0.11454 0.0
C868 C 0.52742 0.56277 0.10066 0.0
C869 C 0.64514 0.56606 0.1419 0.0
C870 C 0.59651 0.56568 0.14843 0.0
C871 C 0.55916 0.56486 0.13465 0.0
C872 C 0.58399 0.56564 0.16953 0.0
C873 C 0.68743 0.56613 0.1559 0.0
C874 C 0.55678 0.55843 0.17744 0.0
C875 C 0.55008 0.55774 0.19766 0.0
C876 C 0.57117 0.5642 0.2102 0.0
C877 C 0.59554 0.57172 0.20221 0.0
C878 C 0.60114 0.57253 0.182 0.0
H879 H 0.7211 0.56365 0.14876 0.0
H880 H 0.69407 0.57321 0.16092 0.0
H881 H 0.68021 0.56179 0.16889 0.0
H882 H 0.54276 0.55308 0.16808 0.0
H883 H 0.53136 0.55186 0.20353 0.0
H884 H 0.56055 0.68135 0.20705 0.0
H885 H 0.55235 0.68032 0.17154 0.0
H886 H 0.70693 0.68285 0.16515 0.0
H887 H 0.71561 0.68392 0.20085 0.0
H888 H 0.58943 0.69465 0.14463 0.0
H889 H 0.66411 0.65991 0.13125 0.0
H890 H 0.64033 0.66334 0.15476 0.0
H891 H 0.69829 0.66742 0.14687 0.0
C892 C 0.59292 0.68161 0.19813 0.0
C893 C 0.63877 0.68272 0.2067 0.0
C894 C 0.5881 0.68102 0.17787 0.0
C895 C 0.62903 0.68145 0.16584 0.0
C896 C 0.67501 0.68241 0.17429 0.0
H897 H 0.67119 0.68111 0.04096 0.0
H898 H 0.67915 0.68035 0.07647 0.0
C899 C 0.67988 0.68305 0.19462 0.0
C900 C 0.623 0.6814 0.14441 0.0
H901 H 0.64208 0.66857 0.10352 0.0
C902 C 0.60079 0.68895 0.13559 0.0
C903 C 0.6381 0.67396 0.13281 0.0
C904 C 0.66131 0.66565 0.14181 0.0
C905 C 0.59387 0.68933 0.11529 0.0
C906 C 0.6084 0.68183 0.10364 0.0
C907 C 0.63068 0.67428 0.11252 0.0
C908 C 0.60257 0.68186 0.08213 0.0
C909 C 0.57235 0.69786 0.10648 0.0
C910 C 0.55667 0.68277 0.07353 0.0
C911 C 0.55201 0.68329 0.05319 0.0
C912 C 0.59316 0.68279 0.04119 0.0
C913 C 0.63881 0.68155 0.04984 0.0
C914 C 0.64345 0.6811 0.07012 0.0
H915 H 0.57509 0.70377 0.11659 0.0
H916 H 0.5906 0.69965 0.09252 0.0
H917 H 0.53346 0.69668 0.10338 0.0
H918 H 0.52454 0.68316 0.08256 0.0
H919 H 0.51637 0.68418 0.04689 0.0
H920 H 0.30859 0.42855 0.78427 0.0
H921 H 0.29664 0.42666 0.81947 0.0
H922 H 0.44094 0.43667 0.83009 0.0
H923 H 0.45329 0.43861 0.79478 0.0
H924 H 0.35349 0.41648 0.84818 0.0
H925 H 0.34729 0.45393 0.86128 0.0
H926 H 0.34001 0.44899 0.83725 0.0
H927 H 0.3991 0.44984 0.84799 0.0
C928 C 0.33796 0.43029 0.79408 0.0
C929 C 0.38177 0.4338 0.78683 0.0
C930 C 0.33106 0.42918 0.81415 0.0
C931 C 0.36769 0.43163 0.82728 0.0
C932 C 0.4121 0.43485 0.8201 0.0
H933 H 0.4018 0.42324 0.95035 0.0
H934 H 0.40402 0.42223 0.91472 0.0
C935 C 0.41915 0.43592 0.79998 0.0
C936 C 0.35858 0.43114 0.84852 0.0
H937 H 0.3455 0.44439 0.88918 0.0
C938 C 0.35162 0.42257 0.85718 0.0
C939 C 0.35529 0.43912 0.86004 0.0
C940 C 0.36039 0.44851 0.85121 0.0
C941 C 0.34275 0.42175 0.87732 0.0
C942 C 0.34111 0.42972 0.88895 0.0
C943 C 0.34683 0.4383 0.88017 0.0
C944 C 0.33624 0.42934 0.91044 0.0
C945 C 0.33508 0.4124 0.886 0.0
C946 C 0.29722 0.43364 0.91981 0.0
C947 C 0.29583 0.43423 0.94021 0.0
C948 C 0.33382 0.43063 0.95147 0.0
C949 C 0.372 0.42607 0.94204 0.0
C950 C 0.37321 0.42544 0.9217 0.0
H951 H 0.32472 0.40733 0.87465 0.0
H952 H 0.36924 0.41006 0.89289 0.0
H953 H 0.30661 0.41256 0.89746 0.0
H954 H 0.26854 0.43674 0.91129 0.0
H955 H 0.26609 0.43781 0.94711 0.0
H956 H 0.2776 0.31007 0.79291 0.0
H957 H 0.28486 0.31022 0.82873 0.0
H958 H 0.43939 0.31342 0.82366 0.0
H959 H 0.4326 0.3133 0.78804 0.0
H960 H 0.40383 0.29857 0.84913 0.0
H961 H 0.32298 0.3326 0.86473 0.0
H962 H 0.28998 0.32519 0.84851 0.0
H963 H 0.34753 0.32965 0.84105 0.0
C964 C 0.31301 0.31088 0.79946 0.0
C965 C 0.35451 0.31168 0.78772 0.0
C966 C 0.31707 0.31099 0.81986 0.0
C967 C 0.36263 0.31189 0.82871 0.0
C968 C 0.40396 0.31275 0.81703 0.0
H969 H 0.4682 0.30814 0.94883 0.0
H970 H 0.46262 0.30932 0.91308 0.0
C971 C 0.39994 0.31269 0.79671 0.0
C972 C 0.36774 0.31157 0.85017 0.0
H973 H 0.34416 0.3235 0.89192 0.0
C974 C 0.39094 0.30402 0.85854 0.0
C975 C 0.35078 0.3187 0.86224 0.0
C976 C 0.32666 0.32705 0.85377 0.0
C977 C 0.39686 0.3033 0.87886 0.0
C978 C 0.38018 0.31047 0.89099 0.0
C979 C 0.35711 0.31805 0.88255 0.0
C980 C 0.38439 0.31006 0.91254 0.0
C981 C 0.4196 0.29478 0.88716 0.0
C982 C 0.34244 0.31037 0.92402 0.0
C983 C 0.34557 0.30982 0.94433 0.0
C984 C 0.39077 0.30892 0.95355 0.0
C985 C 0.43291 0.30876 0.94208 0.0
C986 C 0.42974 0.30938 0.92169 0.0
H987 H 0.41896 0.28906 0.87649 0.0
H988 H 0.45793 0.2962 0.89088 0.0
H989 H 0.40073 0.29257 0.9007 0.0
H990 H 0.30713 0.31093 0.91724 0.0
H991 H 0.31243 0.30997 0.95278 0.0
H992 H 0.25241 0.9544 0.23611 0.0
H993 H 0.20707 0.96842 0.24355 0.0
H994 H 0.33884 0.98135 0.26292 0.0
H995 H 0.38374 0.96746 0.25599 0.0
H996 H 0.26302 0.98399 0.28846 0.0
H997 H 0.20993 0.99208 0.21182 0.0
H998 H 0.1923 0.98102 0.22064 0.0
H999 H 0.2553 0.98365 0.21758 0.0
C1000 C 0.27154 0.96025 0.24191 0.0
C1001 C 0.32157 0.95985 0.24542 0.0
C1002 C 0.24572 0.96825 0.24608 0.0
C1003 C 0.26977 0.97594 0.25361 0.0
C1004 C 0.3196 0.97549 0.25715 0.0
H1005 H 0.22542 0.0326 0.28089 0.0
H1006 H 0.25586 0.01694 0.27767 0.0
C1007 C 0.34521 0.96754 0.25312 0.0
C1008 C 0.24384 0.98454 0.25792 0.0
H1009 H 0.18498 0.00235 0.23631 0.0
C1010 C 0.24565 0.98799 0.27709 0.0
C1011 C 0.22133 0.98972 0.24304 0.0
C1012 C 0.21977 0.9865 0.22207 0.0
C1013 C 0.22618 0.99656 0.28173 0.0
C1014 C 0.20481 0.00182 0.26675 0.0
C1015 C 0.20165 -0.00173 0.24772 0.0
C1016 C 0.18616 0.01112 0.27036 0.0
C1017 C 0.22862 -9e-05 0.30257 0.0
C1018 C 0.13709 0.013 0.26731 0.0
C1019 C 0.11976 0.02189 0.2691 0.0
C1020 C 0.1513 0.02909 0.27383 0.0
C1021 C 0.20032 0.02718 0.27732 0.0
C1022 C 0.21765 0.01825 0.27556 0.0
H1023 H 0.23529 0.99424 0.31303 0.0
H1024 H 0.25873 0.00487 0.30397 0.0
H1025 H 0.19457 0.00343 0.30675 0.0
H1026 H 0.11231 0.00759 0.26324 0.0
H1027 H 0.08176 0.02314 0.26633 0.0
H1028 H 0.85377 0.27416 0.22914 0.0
H1029 H 0.89059 0.25934 0.23533 0.0
H1030 H 0.03202 0.27176 0.23554 0.0
H1031 H 0.99513 0.28677 0.22955 0.0
H1032 H 0.96038 0.24926 0.21499 0.0
H1033 H 0.02276 0.25916 0.28941 0.0
H1034 H 0.97989 0.26588 0.27566 0.0
H1035 H 0.04319 0.26638 0.26982 0.0
C1036 C 0.89279 0.27375 0.2303 0.0
C1037 C 0.92161 0.28163 0.22903 0.0
C1038 C 0.91373 0.26527 0.23383 0.0
C1039 C 0.96385 0.26449 0.23625 0.0
C1040 C 0.99311 0.27227 0.23407 0.0
H1041 H 0.14812 0.21903 0.26408 0.0
H1042 H 0.11264 0.23395 0.25751 0.0
C1043 C 0.9721 0.2808 0.23048 0.0
C1044 C 0.98473 0.25556 0.2417 0.0
H1045 H 0.04301 0.24433 0.27857 0.0
C1046 C 0.97848 0.24817 0.22888 0.0
C1047 C 0.00787 0.25417 0.25991 0.0
C1048 C 0.01358 0.26178 0.27461 0.0
C1049 C 0.99548 0.23943 0.23366 0.0
C1050 C 0.01857 0.23805 0.25188 0.0
C1051 C 0.02495 0.24543 0.26468 0.0
C1052 C 0.03882 0.22908 0.25742 0.0
C1053 C 0.98953 0.2318 0.21904 0.0
C1054 C 0.0088 0.22145 0.26014 0.0
C1055 C 0.02902 0.21287 0.26399 0.0
C1056 C 0.07946 0.21185 0.26511 0.0
C1057 C 0.10911 0.2196 0.26318 0.0
C1058 C 0.08895 0.22813 0.25944 0.0
H1059 H 0.97995 0.23439 0.20426 0.0
H1060 H 0.02328 0.22772 0.21791 0.0
H1061 H 0.96016 0.22719 0.224 0.0
H1062 H 0.96989 0.2221 0.25894 0.0
H1063 H 0.00537 0.20702 0.26542 0.0
H1064 H 0.10227 0.21754 0.97881 0.0
H1065 H 0.13832 0.2325 0.984 0.0
H1066 H 0.28087 0.22069 0.97985 0.0
H1067 H 0.24477 0.20554 0.97485 0.0
H1068 H 0.26626 0.23153 0.01325 0.0
H1069 H 0.20686 0.24982 0.94643 0.0
H1070 H 0.1584 0.2442 0.95907 0.0
H1071 H 0.20614 0.23753 0.94832 0.0
C1072 C 0.14133 0.21812 0.97869 0.0
C1073 C 0.17077 0.21037 0.97642 0.0
C1074 C 0.16185 0.2267 0.98154 0.0
C1075 C 0.21221 0.22772 0.98207 0.0
C1076 C 0.24186 0.22003 0.97936 0.0
H1077 H 0.39872 0.27338 0.00682 0.0
H1078 H 0.36383 0.2584 0.00055 0.0
C1079 C 0.22127 0.21141 0.97643 0.0
C1080 C 0.23337 0.23671 0.98694 0.0
H1081 H 0.23631 0.25902 0.97265 0.0
C1082 C 0.26014 0.23753 0.00429 0.0
C1083 C 0.22482 0.24453 0.97531 0.0
C1084 C 0.19786 0.24398 0.95615 0.0
C1085 C 0.27793 0.24601 0.01052 0.0
C1086 C 0.26915 0.25383 -0.00105 0.0
C1087 C 0.2425 0.25301 0.98158 0.0
C1088 C 0.28971 0.26283 0.00403 0.0
C1089 C 0.30524 0.24657 0.0296 0.0
C1090 C 0.25946 0.27031 0.00797 0.0
C1091 C 0.27935 0.27893 0.0116 0.0
C1092 C 0.32971 0.28018 0.01107 0.0
C1093 C 0.35976 0.27263 0.00738 0.0
C1094 C 0.33994 0.26405 0.00387 0.0
H1095 H 0.29806 0.24056 0.03907 0.0
H1096 H 0.34463 0.24679 0.02652 0.0
H1097 H 0.29546 0.25286 0.03776 0.0
H1098 H 0.22052 0.26948 0.00803 0.0
H1099 H 0.25539 0.28465 0.01429 0.0
H1100 H 0.15641 0.02126 0.99136 0.0
H1101 H 0.11649 0.00655 0.99519 0.0
H1102 H 0.97948 0.01885 0.98052 0.0
H1103 H 0.01935 0.03374 0.97686 0.0
H1104 H 0.97805 0.00823 0.01481 0.0
H1105 H 0.06325 0.98924 0.95361 0.0
H1106 H 0.10588 0.99478 0.96947 0.0
H1107 H 0.06456 0.00154 0.95524 0.0
C1108 C 0.11783 0.02084 0.98873 0.0
C1109 C 0.09095 0.02865 0.98378 0.0
C1110 C 0.09516 0.01241 0.99081 0.0
C1111 C 0.04522 0.01159 0.98786 0.0
C1112 C 0.01819 0.01935 0.98271 0.0
H1113 H 0.84096 0.96768 -0.00053 0.0
H1114 H 0.88255 0.98215 0.99463 0.0
C1115 C 0.04095 0.02783 0.98059 0.0
C1116 C 0.02111 0.00273 0.99135 0.0
H1117 H 0.02015 0.9804 0.9771 0.0
C1118 C 0.98694 0.00216 0.00648 0.0
C1119 C 0.03324 0.99481 0.98057 0.0
C1120 C 0.06842 0.99511 0.96369 0.0
C1121 C 0.96496 0.99384 0.01129 0.0
C1122 C 0.97708 0.98592 0.00051 0.0
C1123 C 0.01132 0.98648 0.98542 0.0
C1124 C 0.9524 0.97713 0.00393 0.0
C1125 C 0.92943 0.99353 0.02805 0.0
C1126 C 0.97821 0.96946 0.01049 0.0
C1127 C 0.95445 0.96112 0.01329 0.0
C1128 C 0.90475 0.96035 0.00934 0.0
C1129 C 0.87926 0.96805 0.00271 0.0
C1130 C 0.90288 0.97635 1e-05 0.0
H1131 H 0.93343 -0.00048 0.03788 0.0
H1132 H 0.89207 0.99358 0.02212 0.0
H1133 H 0.93411 0.98721 0.03679 0.0
H1134 H 0.01661 0.96994 0.01346 0.0
H1135 H 0.97498 0.95528 0.01834 0.0
H1136 H 0.75189 0.0412 0.74405 0.0
H1137 H 0.78738 0.02641 0.73513 0.0
H1138 H 0.70595 0.01345 0.78129 0.0
H1139 H 0.66869 0.02809 0.78948 0.0
H1140 H 0.83907 0.01321 0.7514 0.0
H1141 H 0.6572 -0.00022 0.7346 0.0
H1142 H 0.66778 0.01166 0.73992 0.0
H1143 H 0.66032 0.00353 0.75951 0.0
C1144 C 0.74263 0.03521 0.75255 0.0
C1145 C 0.70746 0.0357 0.76733 0.0
C1146 C 0.76256 0.02677 0.74737 0.0
C1147 C 0.74786 0.01879 0.75708 0.0
C1148 C 0.71632 0.01947 0.77311 0.0
H1149 H 0.87886 0.96653 0.7621 0.0
H1150 H 0.85367 0.98237 0.76493 0.0
C1151 C 0.69561 0.02783 0.77797 0.0
C1152 C 0.76349 0.00969 0.75005 0.0
H1153 H 0.72006 0.98858 0.73849 0.0
C1154 C 0.81307 0.00785 0.74835 0.0
C1155 C 0.72956 0.00279 0.74531 0.0
C1156 C 0.67578 0.00458 0.74469 0.0
C1157 C 0.82965 -0.00088 0.74323 0.0
C1158 C 0.7957 0.99199 0.74047 0.0
C1159 C 0.74613 0.99399 0.74099 0.0
C1160 C 0.8107 0.98233 0.73843 0.0
C1161 C 0.88337 -0.00233 0.74084 0.0
C1162 C 0.79274 0.97684 0.72318 0.0
C1163 C 0.80605 0.96764 0.72185 0.0
C1164 C 0.83777 0.96385 0.73567 0.0
C1165 C 0.85487 0.96931 0.75108 0.0
C1166 C 0.84097 0.97841 0.75258 0.0
H1167 H 0.90153 0.00403 0.73592 0.0
H1168 H 0.89926 0.99576 0.75518 0.0
H1169 H 0.89134 0.99217 0.73013 0.0
H1170 H 0.76876 0.97969 0.71224 0.0
H1171 H 0.79245 0.96355 0.70983 0.0
H1172 H 0.01029 0.70825 0.75668 0.0
H1173 H 0.97366 0.72289 0.74724 0.0
H1174 H 0.11489 0.73347 0.73293 0.0
H1175 H 0.15138 0.71896 0.74195 0.0
H1176 H 0.99198 0.74011 0.7627 0.0
H1177 H 0.03784 0.73928 0.68375 0.0
H1178 H 0.04095 0.72928 0.69914 0.0
H1179 H 0.08924 0.73751 0.69932 0.0
C1180 C 0.03336 0.7137 0.75146 0.0
C1181 C 0.08359 0.71246 0.74995 0.0
C1182 C 0.01247 0.72203 0.74604 0.0
C1183 C 0.04154 0.72917 0.73897 0.0
C1184 C 0.0917 0.72797 0.73781 0.0
H1185 H 0.00136 0.78673 0.7142 0.0
H1186 H 0.03468 0.77127 0.71819 0.0
C1187 C 0.1125 0.71968 0.74315 0.0
C1188 C 0.02012 0.73808 0.73365 0.0
H1189 H 0.01225 0.75367 0.69663 0.0
C1190 C 0.99594 0.74304 0.74821 0.0
C1191 C 0.02567 0.74188 0.71474 0.0
C1192 C 0.04943 0.73668 0.69828 0.0
C1193 C 0.97812 0.75182 0.7445 0.0
C1194 C 0.98424 0.75566 0.72569 0.0
C1195 C 0.00804 0.7507 0.71106 0.0
C1196 C 0.96474 0.76476 0.72095 0.0
C1197 C 0.95366 0.757 0.76083 0.0
C1198 C 0.91463 0.76609 0.72049 0.0
C1199 C 0.8957 0.77483 0.71824 0.0
C1200 C 0.92657 0.7824 0.71632 0.0
C1201 C 0.97682 0.78101 0.71566 0.0
C1202 C 0.99582 0.77221 0.71797 0.0
H1203 H 0.96086 0.75389 0.77537 0.0
H1204 H 0.96593 0.76422 0.76108 0.0
H1205 H 0.91398 0.75698 0.75837 0.0
H1206 H 0.89018 0.76038 0.72249 0.0
H1207 H 0.85678 0.77567 0.71861 0.0
H1208 H 0.72857 0.7067 0.97155 0.0
H1209 H 0.76994 0.72144 0.97551 0.0
H1210 H 0.63799 0.73336 -0.00256 0.0
H1211 H 0.59686 0.71876 0.99379 0.0
H1212 H 0.74623 0.7389 0.95942 0.0
H1213 H 0.73703 0.73903 0.04054 0.0
H1214 H 0.72699 0.72886 0.02618 0.0
H1215 H 0.67972 0.7372 0.02883 0.0
C1216 C 0.7085 0.71248 0.97717 0.0
C1217 C 0.65966 0.71156 0.98252 0.0
C1218 C 0.73209 0.72087 0.97943 0.0
C1219 C 0.70717 0.72842 0.98714 0.0
C1220 C 0.65812 0.72756 0.99191 0.0
H1221 H 0.77334 0.78505 0.01373 0.0
H1222 H 0.7338 0.77021 0.00881 0.0
C1223 C 0.63465 0.71922 0.9897 0.0
C1224 C 0.73193 0.73725 0.99017 0.0
H1225 H 0.76023 0.75294 0.02528 0.0
C1226 C 0.74969 0.74195 0.97381 0.0
C1227 C 0.73607 0.7412 0.00899 0.0
C1228 C 0.71936 0.73628 0.02717 0.0
C1229 C 0.77061 0.75063 0.97572 0.0
C1230 C 0.77441 0.75461 0.99452 0.0
C1231 C 0.75689 0.74989 0.01089 0.0
C1232 C 0.79796 0.76355 -0.00241 0.0
C1233 C 0.78752 0.75555 0.95757 0.0
C1234 C 0.84715 0.76463 0.99326 0.0
C1235 C 0.86966 0.77303 0.99608 0.0
C1236 C 0.84347 0.78052 0.00338 0.0
C1237 C 0.79434 0.7794 0.00805 0.0
C1238 C 0.77178 0.77095 0.00523 0.0
H1239 H 0.7709 0.75268 0.94412 0.0
H1240 H 0.77882 0.76294 0.95839 0.0
H1241 H 0.82735 0.75484 0.95627 0.0
H1242 H 0.8682 0.75895 0.98775 0.0
H1243 H 0.90766 0.77366 0.99244 0.0
H1244 H 0.0888 0.5268 0.74212 0.0
H1245 H 0.13426 0.51282 0.7364 0.0
H1246 H 0.26464 0.52599 0.75647 0.0
H1247 H 0.21896 0.54013 0.76244 0.0
H1248 H 0.21717 0.5102 0.71185 0.0
H1249 H 0.25233 0.50248 0.79038 0.0
H1250 H 0.20685 0.51057 0.78272 0.0
H1251 H 0.26968 0.51361 0.78182 0.0
C1252 C 0.12716 0.52675 0.74536 0.0
C1253 C 0.15034 0.53454 0.75285 0.0
C1254 C 0.15305 0.51876 0.74201 0.0
C1255 C 0.20258 0.51838 0.74615 0.0
C1256 C 0.22621 0.52616 0.75341 0.0
H1257 H 0.39393 0.47158 0.74289 0.0
H1258 H 0.35995 0.48687 0.74563 0.0
C1259 C 0.2002 0.53421 0.75675 0.0
C1260 C 0.22871 0.50972 0.74299 0.0
H1261 H 0.28144 0.49198 0.7672 0.0
C1262 C 0.23157 0.50623 0.7239 0.0
C1263 C 0.2472 0.50458 0.75879 0.0
C1264 C 0.24373 0.50793 0.77963 0.0
C1265 C 0.25238 0.49767 0.72018 0.0
C1266 C 0.26981 0.49243 0.73604 0.0
C1267 C 0.26779 0.49601 0.75509 0.0
C1268 C 0.29054 0.48322 0.7333 0.0
C1269 C 0.25591 0.49437 0.69932 0.0
C1270 C 0.26265 0.47608 0.72546 0.0
C1271 C 0.2821 0.4673 0.72377 0.0
C1272 C 0.32949 0.46554 0.73012 0.0
C1273 C 0.35723 0.47272 0.73791 0.0
C1274 C 0.33792 0.48146 0.73949 0.0
H1275 H 0.25327 0.5001 0.68872 0.0
H1276 H 0.29045 0.49069 0.69676 0.0
H1277 H 0.22568 0.48959 0.69632 0.0
H1278 H 0.2256 0.47727 0.72098 0.0
H1279 H 0.2599 0.46188 0.71781 0.0
H1280 H 0.25375 0.7858 0.51528 0.0
H1281 H 0.2224 0.77036 0.50939 0.0
H1282 H 0.36578 0.76123 0.49397 0.0
H1283 H 0.39705 0.77656 0.49946 0.0
H1284 H 0.2962 0.75598 0.46725 0.0
H1285 H 0.24065 0.74758 0.54328 0.0
H1286 H 0.21553 0.758 0.5339 0.0
H1287 H 0.27972 0.75708 0.53759 0.0
C1288 C 0.27852 0.78047 0.51077 0.0
C1289 C 0.32777 0.78237 0.50784 0.0
C1290 C 0.26067 0.77166 0.5075 0.0
C1291 C 0.29196 0.76465 0.50145 0.0
C1292 C 0.34111 0.76655 0.49865 0.0
H1293 H 0.25552 0.7069 0.47275 0.0
H1294 H 0.28961 0.72223 0.4776 0.0
C1295 C 0.35887 0.77531 0.50183 0.0
C1296 C 0.27361 0.75537 0.4974 0.0
H1297 H 0.21819 0.73707 0.5185 0.0
C1298 C 0.27929 0.75182 0.47845 0.0
C1299 C 0.25189 0.74998 0.51211 0.0
C1300 C 0.2469 0.7533 0.53291 0.0
C1301 C 0.26281 0.74304 0.4737 0.0
C1302 C 0.24066 0.73769 0.48835 0.0
C1303 C 0.23528 0.74122 0.50732 0.0
C1304 C 0.22072 0.72855 0.4842 0.0
C1305 C 0.26809 0.73965 0.45296 0.0
C1306 C 0.17097 0.72709 0.48632 0.0
C1307 C 0.15164 0.71841 0.48366 0.0
C1308 C 0.18174 0.71101 0.47888 0.0
C1309 C 0.23153 0.7125 0.47633 0.0
C1310 C 0.25095 0.72123 0.47905 0.0
H1311 H 0.27709 0.74525 0.44264 0.0
H1312 H 0.29761 0.73453 0.45236 0.0
H1313 H 0.23427 0.73628 0.44798 0.0
H1314 H 0.14712 0.73266 0.49028 0.0
H1315 H 0.11308 0.71749 0.48568 0.0
H1316 H 0.98742 0.45693 0.50872 0.0
H1317 H 0.01869 0.47228 0.50157 0.0
H1318 H 0.87686 0.48361 0.51161 0.0
H1319 H 0.84563 0.46843 0.51885 0.0
H1320 H 0.98001 0.48325 0.47033 0.0
H1321 H 0.96746 0.50078 0.54227 0.0
H1322 H 0.96792 0.4885 0.53994 0.0
H1323 H 0.91368 0.49482 0.53487 0.0
C1324 C 0.96333 0.46274 0.50988 0.0
C1325 C 0.91417 0.46152 0.5143 0.0
C1326 C 0.98109 0.47146 0.50569 0.0
C1327 C 0.95004 0.47905 0.50618 0.0
C1328 C 0.9015 0.47787 0.51143 0.0
H1329 H 0.99358 0.53677 0.47884 0.0
H1330 H 0.95331 0.52198 0.48392 0.0
C1331 C 0.88372 0.46918 0.51548 0.0
C1332 C 0.96702 0.48809 0.49962 0.0
H1333 H 0.9834 0.51007 0.51462 0.0
C1334 C 0.98098 0.48911 0.48001 0.0
C1335 C 0.96734 0.49573 0.51224 0.0
C1336 C 0.95368 0.49493 0.53355 0.0
C1337 C 0.99551 0.49761 0.47266 0.0
C1338 C 0.99669 0.50521 0.48536 0.0
C1339 C 0.98192 0.50422 0.50489 0.0
C1340 C 0.01821 0.51399 0.47935 0.0
C1341 C 0.00937 0.49839 0.45137 0.0
C1342 C 0.06755 0.51432 0.47478 0.0
C1343 C 0.09038 0.52268 0.47201 0.0
C1344 C 0.06429 0.53086 0.47374 0.0
C1345 C 0.0143 0.53054 0.47727 0.0
C1346 C 0.99143 0.52213 0.48026 0.0
H1347 H 0.99273 0.49287 0.44248 0.0
H1348 H -0.00173 0.50509 0.44524 0.0
H1349 H 0.04924 0.49779 0.44999 0.0
H1350 H 0.089 0.50814 0.47436 0.0
H1351 H 0.129 0.52275 0.46929 0.0
H1352 H 0.59992 0.52666 0.24692 0.0
H1353 H 0.64015 0.51243 0.23855 0.0
H1354 H 0.77834 0.52442 0.25265 0.0
H1355 H 0.73785 0.53877 0.26156 0.0
H1356 H 0.70844 0.5089 0.21059 0.0
H1357 H 0.77838 0.50106 0.28499 0.0
H1358 H 0.73383 0.50982 0.28061 0.0
H1359 H 0.79656 0.51194 0.2754 0.0
C1360 C 0.63891 0.52629 0.24832 0.0
C1361 C 0.66579 0.53382 0.25501 0.0
C1362 C 0.66182 0.51815 0.24346 0.0
C1363 C 0.7121 0.51733 0.24515 0.0
C1364 C 0.73933 0.52486 0.25158 0.0
H1365 H 0.90241 0.47157 0.22585 0.0
H1366 H 0.86742 0.48673 0.22938 0.0
C1367 C 0.71627 0.53305 0.25659 0.0
C1368 C 0.73534 0.50854 0.24017 0.0
H1369 H 0.80003 0.49092 0.25962 0.0
C1370 C 0.72857 0.50497 0.22128 0.0
C1371 C 0.76123 0.50341 0.25422 0.0
C1372 C 0.76767 0.50669 0.275 0.0
C1373 C 0.74725 0.49641 0.21603 0.0
C1374 C 0.77298 0.49129 0.23009 0.0
C1375 C 0.78018 0.49489 0.2489 0.0
C1376 C 0.79355 0.48222 0.22566 0.0
C1377 C 0.73985 0.49293 0.19547 0.0
C1378 C 0.76347 0.47468 0.22205 0.0
C1379 C 0.78342 0.46594 0.22 0.0
C1380 C 0.8336 0.46467 0.22168 0.0
C1381 C 0.86355 0.47231 0.22458 0.0
C1382 C 0.84369 0.48099 0.2266 0.0
H1383 H 0.72799 0.49843 0.18537 0.0
H1384 H 0.7737 0.48985 0.18971 0.0
H1385 H 0.71161 0.48755 0.19559 0.0
H1386 H 0.72456 0.4755 0.22154 0.0
H1387 H 0.75954 0.46016 0.21787 0.0
H1388 H 0.74038 0.28483 0.51196 0.0
H1389 H 0.70999 0.26959 0.50364 0.0
H1390 H 0.83392 0.25742 0.53173 0.0
H1391 H 0.86461 0.27257 0.53986 0.0
H1392 H 0.82351 0.25322 0.49154 0.0
H1393 H 0.65323 0.24728 0.53294 0.0
H1394 H 0.65771 0.2581 0.52066 0.0
H1395 H 0.69795 0.25555 0.54054 0.0
C1396 C 0.76004 0.27889 0.51704 0.0
C1397 C 0.80493 0.27984 0.52642 0.0
C1398 C 0.74275 0.2702 0.51224 0.0
C1399 C 0.76992 0.26241 0.51701 0.0
C1400 C 0.81259 0.26336 0.52787 0.0
H1401 H 0.76269 0.20526 0.48409 0.0
H1402 H 0.78948 0.22055 0.4939 0.0
C1403 C 0.82994 0.27201 0.53256 0.0
C1404 C 0.75778 0.25344 0.50849 0.0
H1405 H 0.67238 0.2367 0.50792 0.0
C1406 C 0.79057 0.24956 0.49516 0.0
C1407 C 0.71467 0.24878 0.51316 0.0
C1408 C 0.67893 0.25258 0.52772 0.0
C1409 C 0.78113 0.24115 0.48618 0.0
C1410 C 0.73815 0.23645 0.49095 0.0
C1411 C 0.70531 0.24034 0.50427 0.0
C1412 C 0.72624 0.22745 0.48243 0.0
C1413 C 0.81668 0.23748 0.47139 0.0
C1414 C 0.68247 0.22631 0.4724 0.0
C1415 C 0.66708 0.21763 0.46696 0.0
C1416 C 0.69527 0.20993 0.47142 0.0
C1417 C 0.74066 0.21111 0.48026 0.0
C1418 C 0.7559 0.21983 0.48589 0.0
H1419 H 0.84031 0.24296 0.46547 0.0
H1420 H 0.84019 0.23234 0.47855 0.0
H1421 H 0.79768 0.23413 0.45901 0.0
H1422 H 0.6592 0.23211 0.46953 0.0
H1423 H 0.63191 0.21689 0.46014 0.0
H1424 H 0.36118 0.27707 0.72566 0.0
H1425 H 0.40235 0.26261 0.73111 0.0
H1426 H 0.54001 0.27646 0.73149 0.0
H1427 H 0.49864 0.29112 0.72612 0.0
H1428 H 0.47706 0.2536 0.7098 0.0
H1429 H 0.53155 0.26332 0.78548 0.0
H1430 H 0.48647 0.26959 0.77188 0.0
H1431 H 0.54938 0.2709 0.76606 0.0
C1432 C 0.40029 0.27705 0.72669 0.0
C1433 C 0.42677 0.28522 0.72566 0.0
C1434 C 0.42371 0.26878 0.72977 0.0
C1435 C 0.47401 0.26851 0.73199 0.0
C1436 C 0.501 0.27658 0.73007 0.0
H1437 H 0.65232 0.22219 0.764 0.0
H1438 H 0.62182 0.23744 0.75667 0.0
C1439 C 0.47746 0.28492 0.72688 0.0
C1440 C 0.49714 0.25977 0.73721 0.0
H1441 H 0.55062 0.24844 0.77511 0.0
C1442 C 0.4935 0.25247 0.72401 0.0
C1443 C 0.5182 0.25835 0.75582 0.0
C1444 C 0.52149 0.26591 0.77075 0.0
C1445 C 0.51016 0.24374 0.72898 0.0
C1446 C 0.53009 0.24227 0.74776 0.0
C1447 C 0.53482 0.24961 0.7608 0.0
C1448 C 0.54725 0.23318 0.75395 0.0
C1449 C 0.5066 0.23618 0.71405 0.0
C1450 C 0.51499 0.22581 0.75554 0.0
C1451 C 0.53228 0.21707 0.75981 0.0
C1452 C 0.58202 0.21561 0.76251 0.0
C1453 C 0.61379 0.2231 0.76187 0.0
C1454 C 0.5965 0.23182 0.75768 0.0
H1455 H 0.50108 0.23888 0.69902 0.0
H1456 H 0.53974 0.2319 0.71416 0.0
H1457 H 0.47534 0.23175 0.7177 0.0
H1458 H 0.47666 0.2268 0.75304 0.0
H1459 H 0.50704 0.21142 0.76023 0.0
H1460 H 0.48371 0.03445 0.47296 0.0
H1461 H 0.45637 0.0187 0.47804 0.0
H1462 H 0.60439 0.00997 0.485 0.0
H1463 H 0.63196 0.02559 0.47965 0.0
H1464 H 0.5486 -0.00204 0.46263 0.0
H1465 H 0.45894 0.007 0.5327 0.0
H1466 H 0.43891 0.01365 0.51218 0.0
H1467 H 0.50048 0.01458 0.52042 0.0
C1468 C 0.51037 0.02914 0.4753 0.0
C1469 C 0.55986 0.03125 0.4761 0.0
C1470 C 0.49475 0.02018 0.47834 0.0
C1471 C 0.52841 0.01324 0.48229 0.0
C1472 C 0.5779 0.01526 0.48211 0.0
H1473 H 0.48215 0.95574 0.51575 0.0
H1474 H 0.52257 0.97046 0.50961 0.0
C1475 C 0.59352 0.02418 0.47907 0.0
C1476 C 0.51211 0.00394 0.48735 0.0
H1477 H 0.44451 0.99206 0.52042 0.0
C1478 C 0.52619 0.99663 0.47534 0.0
C1479 C 0.48357 0.00226 0.50414 0.0
C1480 C 0.46993 0.00976 0.51823 0.0
C1481 C 0.51058 0.98771 0.47925 0.0
C1482 C 0.48057 0.98611 0.4956 0.0
C1483 C 0.46766 0.99336 0.50791 0.0
C1484 C 0.45788 0.97716 0.49905 0.0
C1485 C 0.52459 0.98009 0.46555 0.0
C1486 C 0.40849 0.97617 0.49521 0.0
C1487 C 0.38563 0.96788 0.49863 0.0
C1488 C 0.41167 0.96041 0.50609 0.0
C1489 C 0.4613 0.9614 0.51 0.0
C1490 C 0.48436 0.96975 0.50645 0.0
H1491 H 0.54543 0.98258 0.45272 0.0
H1492 H 0.54698 0.97502 0.47353 0.0
H1493 H 0.49168 0.97651 0.46025 0.0
H1494 H 0.38758 0.98184 0.48954 0.0
H1495 H 0.34732 0.96735 0.49548 0.0
H1496 H 0.51083 0.70837 0.27387 0.0
H1497 H 0.47467 0.72351 0.26868 0.0
H1498 H 0.61208 0.7337 0.24833 0.0
H1499 H 0.64818 0.71871 0.25329 0.0
H1500 H 0.50442 0.74099 0.28452 0.0
H1501 H 0.51701 0.73975 0.20344 0.0
H1502 H 0.52192 0.72969 0.21856 0.0
H1503 H 0.57256 0.73728 0.216 0.0
C1504 C 0.53325 0.71386 0.26836 0.0
C1505 C 0.58218 0.71235 0.26385 0.0
C1506 C 0.51261 0.72247 0.2654 0.0
C1507 C 0.54061 0.72964 0.25779 0.0
C1508 C 0.5897 0.7282 0.25383 0.0
H1509 H 0.4892 0.78628 0.2256 0.0
H1510 H 0.52547 0.77126 0.23204 0.0
C1511 C 0.61027 0.71964 0.25677 0.0
C1512 C 0.51894 0.73868 0.25398 0.0
H1513 H 0.49607 0.75402 0.21755 0.0
C1514 C 0.50224 0.74383 0.26989 0.0
C1515 C 0.51658 0.74236 0.23487 0.0
C1516 C 0.53257 0.73697 0.21719 0.0
C1517 C 0.48394 0.75268 0.26722 0.0
C1518 C 0.48158 0.75635 0.24809 0.0
C1519 C 0.49824 0.75119 0.23219 0.0
C1520 C 0.46014 0.76541 0.2442 0.0
C1521 C 0.46818 0.75807 0.28492 0.0
C1522 C 0.41136 0.76699 0.24856 0.0
C1523 C 0.39074 0.7755 0.24493 0.0
C1524 C 0.41842 0.78258 0.23671 0.0
C1525 C 0.46711 0.78095 0.23199 0.0
C1526 C 0.4878 0.7724 0.23567 0.0
H1527 H 0.48451 0.75536 0.29859 0.0
H1528 H 0.47816 0.76538 0.28342 0.0
H1529 H 0.42828 0.75763 0.28638 0.0
H1530 H 0.38913 0.76163 0.25472 0.0
H1531 H 0.35301 0.77652 0.2486 0.0
H1532 H 0.48405 0.45725 0.02107 0.0
H1533 H 0.52125 0.47245 0.01853 0.0
H1534 H 0.40338 0.48141 0.98193 0.0
H1535 H 0.36603 0.4664 0.98452 0.0
H1536 H 0.54909 0.48267 0.98445 0.0
H1537 H 0.4049 0.50013 0.02682 0.0
H1538 H 0.41259 0.4879 0.02699 0.0
H1539 H 0.38297 0.49339 0.00676 0.0
C1540 C 0.46632 0.46246 0.01243 0.0
C1541 C 0.42197 0.46067 0.00315 0.0
C1542 C 0.48749 0.47112 0.01101 0.0
C1543 C 0.46444 0.47808 0.00038 0.0
C1544 C 0.42112 0.47619 0.99057 0.0
H1545 H 0.52378 0.53516 0.97418 0.0
H1546 H 0.4885 0.51977 0.97602 0.0
C1547 C 0.4 0.46759 0.992 0.0
C1548 C 0.48527 0.48736 -0.00058 0.0
H1549 H 0.46117 0.50965 0.01025 0.0
C1550 C 0.53011 0.48857 0.9902 0.0
C1551 C 0.46015 0.49503 0.00685 0.0
C1552 C 0.41268 0.49407 0.01757 0.0
C1553 C 0.55015 0.4973 0.98787 0.0
C1554 C 0.52494 0.50496 0.99525 0.0
C1555 C 0.48016 0.50375 0.0045 0.0
C1556 C 0.54549 0.51426 0.99423 0.0
C1557 C 0.59771 0.49826 0.97723 0.0
C1558 C 0.58843 0.51626 0.00421 0.0
C1559 C 0.60843 0.52497 0.00322 0.0
C1560 C 0.58572 0.53189 0.99231 0.0
C1561 C 0.54206 0.52995 0.98265 0.0
C1562 C 0.52198 0.52119 0.98367 0.0
H1563 H 0.60581 0.49217 0.9681 0.0
H1564 H 0.59769 0.5044 0.9677 0.0
H1565 H 0.62726 0.49903 0.98809 0.0
H1566 H 0.60652 0.51106 0.01279 0.0
H1567 H 0.64196 0.52626 0.01095 0.0
H1568 H 0.07848 0.16082 0.30343 0.0
H1569 H 0.07878 0.14457 0.31256 0.0
H1570 H 0.17517 0.13883 0.26443 0.0
H1571 H 0.17623 0.1549 0.25577 0.0
H1572 H 0.05052 0.12984 0.29374 0.0
H1573 H 0.24545 0.12609 0.30741 0.0
H1574 H 0.21712 0.13713 0.30507 0.0
H1575 H 0.23698 0.13097 0.28365 0.0
C1576 C 0.09967 0.15606 0.29487 0.0
C1577 C 0.12763 0.15911 0.27901 0.0
C1578 C 0.10008 0.14681 0.30015 0.0
C1579 C 0.12836 0.14053 0.28958 0.0
C1580 C 0.15473 0.14358 0.27332 0.0
H1581 H 0.08311 0.08698 0.25561 0.0
H1582 H 0.08617 0.10319 0.26312 0.0
C1583 C 0.1548 0.15277 0.26823 0.0
C1584 C 0.12834 0.13066 0.29442 0.0
H1585 H 0.20379 0.11224 0.29623 0.0
C1586 C 0.08402 0.12601 0.29478 0.0
C1587 C 0.17188 0.12564 0.29644 0.0
C1588 C 0.22043 0.13026 0.29837 0.0
C1589 C 0.08231 0.11645 0.29519 0.0
C1590 C 0.12608 0.11143 0.29456 0.0
C1591 C 0.17024 0.11608 0.29616 0.0
C1592 C 0.12665 0.10154 0.29001 0.0
C1593 C 0.03353 0.11184 0.2957 0.0
C1594 C 0.15118 0.09525 0.30196 0.0
C1595 C 0.15046 0.08592 0.2974 0.0
C1596 C 0.12509 0.08281 0.28088 0.0
C1597 C 0.10238 0.08918 0.26859 0.0
C1598 C 0.10362 0.09844 0.27299 0.0
H1599 H 0.00668 0.11609 0.30365 0.0
H1600 H 0.02013 0.11095 0.28051 0.0
H1601 H 0.03549 0.10504 0.30283 0.0
H1602 H 0.16991 0.09753 0.31499 0.0
H1603 H 0.16818 0.08113 0.30711 0.0
H1604 H 0.17275 0.15906 0.94147 0.0
H1605 H 0.17563 0.14263 0.93404 0.0
H1606 H 0.08936 0.13712 0.98533 0.0
H1607 H 0.0849 0.15337 0.9923 0.0
H1608 H 0.21042 0.12845 0.95293 0.0
H1609 H 0.01437 0.12313 0.94565 0.0
H1610 H 0.0407 0.13439 0.9464 0.0
H1611 H 0.02636 0.12842 0.96876 0.0
C1612 C 0.15449 0.1543 0.9511 0.0
C1613 C 0.12821 0.15746 0.96733 0.0
C1614 C 0.15592 0.14494 0.9468 0.0
C1615 C 0.13128 0.13866 0.95875 0.0
C1616 C 0.10691 0.14184 0.97542 0.0
H1617 H 0.19281 0.08532 0.99277 0.0
H1618 H 0.1888 0.10143 0.9845 0.0
C1619 C 0.10488 0.15113 0.97952 0.0
C1620 C 0.1326 0.12871 0.9547 0.0
H1621 H 0.06091 0.10977 0.95597 0.0
C1622 C 0.17766 0.12438 0.95315 0.0
C1623 C 0.0899 0.12337 0.95426 0.0
C1624 C 0.04017 0.1276 0.95361 0.0
C1625 C 0.18128 0.11483 0.95298 0.0
C1626 C 0.13884 0.1095 0.95513 0.0
C1627 C 0.09359 0.11383 0.95485 0.0
C1628 C 0.14089 0.0996 0.95973 0.0
C1629 C 0.23073 0.11058 0.95089 0.0
C1630 C 0.11311 0.09321 0.94926 0.0
C1631 C 0.11433 0.08394 0.95435 0.0
C1632 C 0.14353 0.08096 0.9699 0.0
C1633 C 0.17046 0.0874 0.98053 0.0
C1634 C 0.16868 0.09661 0.97566 0.0
H1635 H 0.25466 0.11493 0.94174 0.0
H1636 H 0.24774 0.11 0.96554 0.0
H1637 H 0.22875 0.10368 0.94421 0.0
H1638 H 0.09079 0.09538 0.93709 0.0
H1639 H 0.09324 0.07911 0.94592 0.0
H1640 H 0.82359 0.91355 0.68895 0.0
H1641 H 0.82258 0.89759 0.6776 0.0
H1642 H 0.92168 0.8903 0.72383 0.0
H1643 H 0.92399 0.90606 0.73467 0.0
H1644 H 0.9486 0.88302 0.68887 0.0
H1645 H 0.75333 0.87642 0.70363 0.0
H1646 H 0.76812 0.88551 0.68703 0.0
H1647 H 0.78321 0.88654 0.71249 0.0
C1648 C 0.84484 0.90849 0.69667 0.0
C1649 C 0.87383 0.91102 0.71267 0.0
C1650 C 0.84426 0.8994 0.6902 0.0
C1651 C 0.87203 0.89275 0.6999 0.0
C1652 C 0.90038 0.89532 0.71598 0.0
H1653 H 0.85503 0.83985 0.73573 0.0
H1654 H 0.85323 0.85594 0.72704 0.0
C1655 C 0.90145 0.90434 0.72224 0.0
C1656 C 0.8718 0.88301 0.69408 0.0
H1657 H 0.80258 0.86382 0.69732 0.0
C1658 C 0.91654 0.87881 0.69029 0.0
C1659 C 0.8298 0.87757 0.6958 0.0
C1660 C 0.78085 0.88168 0.70005 0.0
C1661 C 0.92128 0.86928 0.69013 0.0
C1662 C 0.8798 0.86383 0.69327 0.0
C1663 C 0.83434 0.86804 0.69508 0.0
C1664 C 0.88344 0.854 0.6981 0.0
C1665 C 0.97109 0.86515 0.68826 0.0
C1666 C 0.90218 0.84756 0.68487 0.0
C1667 C 0.90419 0.8383 0.69003 0.0
C1668 C 0.88665 0.8354 0.7083 0.0
C1669 C 0.8687 0.84189 0.72153 0.0
C1670 C 0.86736 0.85108 0.71652 0.0
H1671 H 9e-05 0.87039 0.68888 0.0
H1672 H 0.97749 0.8601 0.70009 0.0
H1673 H 0.974 0.86154 0.67404 0.0
H1674 H 0.91421 0.84964 0.67048 0.0
H1675 H 0.9176 0.83339 0.67949 0.0
H1676 H 0.92511 0.90878 0.0289 0.0
H1677 H 0.9314 0.89214 0.03257 0.0
H1678 H 0.77687 0.89041 0.04037 0.0
H1679 H 0.77021 0.90691 0.03633 0.0
H1680 H 0.90131 0.87942 0.06192 0.0
H1681 H 0.80234 0.87464 0.99187 0.0
H1682 H 0.82625 0.88555 -0.00062 0.0
H1683 H 0.77077 0.88136 0.00975 0.0
C1684 C 0.89265 0.90485 0.03168 0.0
C1685 C 0.84713 0.9091 0.03205 0.0
C1686 C 0.89626 0.89536 0.03377 0.0
C1687 C 0.85444 0.89005 0.03631 0.0
C1688 C 0.80942 0.89437 0.03798 0.0
H1689 H 0.81053 0.83099 0.0286 0.0
H1690 H 0.79793 0.84725 0.03574 0.0
C1691 C 0.80573 0.9038 0.03573 0.0
C1692 C 0.85733 0.87996 0.03595 0.0
H1693 H 0.82197 0.86135 0.00955 0.0
C1694 C 0.88391 0.87545 0.05052 0.0
C1695 C 0.83449 0.87482 0.02104 0.0
C1696 C 0.8072 0.87932 0.00451 0.0
C1697 C 0.88824 0.8659 0.05056 0.0
C1698 C 0.86591 0.86079 0.03551 0.0
C1699 C 0.83865 0.86529 0.02117 0.0
C1700 C 0.87363 0.85085 0.0333 0.0
C1701 C 0.91657 0.86137 0.06672 0.0
C1702 C 0.92024 0.84752 0.02954 0.0
C1703 C 0.92742 0.83831 0.02537 0.0
C1704 C 0.8881 0.83223 0.02481 0.0
C1705 C 0.84148 0.83552 0.02898 0.0
C1706 C 0.83427 0.84478 0.03307 0.0
H1707 H 0.91883 0.86578 0.07991 0.0
H1708 H 0.90006 0.85474 0.0709 0.0
H1709 H 0.95397 0.86004 0.06155 0.0
H1710 H 0.95094 0.85211 0.0292 0.0
H1711 H 0.9638 0.83599 0.02221 0.0
H1712 H 0.00857 0.58797 0.77377 0.0
H1713 H 0.01858 0.60432 0.77921 0.0
H1714 H 0.1714 0.60037 0.7887 0.0
H1715 H 0.16183 0.58395 0.78288 0.0
H1716 H 0.05507 0.61461 0.81053 0.0
H1717 H 0.16604 0.61854 0.74319 0.0
H1718 H 0.13228 0.6083 0.74846 0.0
H1719 H 0.18901 0.6104 0.7605 0.0
C1720 C 0.04431 0.59056 0.77713 0.0
C1721 C 0.08457 0.5847 0.77767 0.0
C1722 C 0.04989 0.5999 0.78031 0.0
C1723 C 0.09579 0.60356 0.78406 0.0
C1724 C 0.13579 0.59768 0.78547 0.0
H1725 H 0.20078 0.65892 0.78748 0.0
H1726 H 0.19006 0.64257 0.79252 0.0
C1727 C 0.13027 0.58832 0.78221 0.0
C1728 C 0.10186 0.61356 0.78542 0.0
H1729 H 0.15471 0.63167 0.76252 0.0
C1730 C 0.07696 0.61836 0.8001 0.0
C1731 C 0.13005 0.61841 0.77164 0.0
C1732 C 0.15555 0.61368 0.75494 0.0
C1733 C 0.08006 0.62791 0.8015 0.0
C1734 C 0.10832 0.63273 0.78773 0.0
C1735 C 0.13328 0.62792 0.77312 0.0
C1736 C 0.11268 0.64279 0.78789 0.0
C1737 C 0.05363 0.63275 0.81778 0.0
C1738 C 0.07242 0.64837 0.78407 0.0
C1739 C 0.07841 0.65776 0.78124 0.0
C1740 C 0.12482 0.66165 0.78196 0.0
C1741 C 0.1646 0.6561 0.7867 0.0
C1742 C 0.15857 0.64677 0.78962 0.0
H1743 H 0.04332 0.62799 0.82972 0.0
H1744 H 0.07617 0.63831 0.82401 0.0
H1745 H 0.02007 0.63585 0.81185 0.0
H1746 H 0.0368 0.6454 0.78235 0.0
H1747 H 0.04721 0.66188 0.77752 0.0
H1748 H 0.09605 0.65363 0.48732 0.0
H1749 H 0.10023 0.63757 0.47868 0.0
H1750 H 0.18889 0.64413 0.42862 0.0
H1751 H 0.18626 0.66037 0.43777 0.0
H1752 H 0.06781 0.62928 0.44618 0.0
H1753 H 0.26643 0.62397 0.45394 0.0
H1754 H 0.23699 0.63419 0.46255 0.0
H1755 H 0.2473 0.63255 0.43683 0.0
C1756 C 0.11681 0.65167 0.47455 0.0
C1757 C 0.14097 0.65823 0.46323 0.0
C1758 C 0.11899 0.64248 0.46957 0.0
C1759 C 0.14489 0.63963 0.45302 0.0
C1760 C 0.16931 0.64616 0.44163 0.0
H1761 H 0.09687 0.58025 0.43584 0.0
H1762 H 0.10023 0.59645 0.42659 0.0
C1763 C 0.16776 0.65542 0.44683 0.0
C1764 C 0.14547 0.62977 0.4482 0.0
H1765 H 0.21856 0.61103 0.44883 0.0
C1766 C 0.1008 0.62527 0.44644 0.0
C1767 C 0.18862 0.6246 0.44842 0.0
C1768 C 0.23761 0.62902 0.45065 0.0
C1769 C 0.09771 0.61572 0.44666 0.0
C1770 C 0.14075 0.61054 0.44793 0.0
C1771 C 0.18564 0.61504 0.44795 0.0
C1772 C 0.14003 0.60063 0.45239 0.0
C1773 C 0.0483 0.61133 0.4471 0.0
C1774 C 0.16225 0.59758 0.46964 0.0
C1775 C 0.16116 0.58839 0.47469 0.0
C1776 C 0.1373 0.58204 0.46273 0.0
C1777 C 0.11495 0.58504 0.44543 0.0
C1778 C 0.11679 0.59428 0.44017 0.0
H1779 H 0.01908 0.61639 0.44978 0.0
H1780 H 0.04114 0.60802 0.4328 0.0
H1781 H 0.04642 0.60603 0.45867 0.0
H1782 H 0.18013 0.60235 0.47937 0.0
H1783 H 0.17868 0.58627 0.48813 0.0
H1784 H 0.91761 0.33284 0.19385 0.0
H1785 H 0.91967 0.34927 0.1866 0.0
H1786 H 0.83473 0.35457 0.23837 0.0
H1787 H 0.831 0.33828 0.24515 0.0
H1788 H 0.80014 0.36379 0.20792 0.0
H1789 H -0.00068 0.36876 0.2125 0.0
H1790 H 0.97949 0.36059 0.19465 0.0
H1791 H 0.97041 0.35834 0.22025 0.0
C1792 C 0.89986 0.33755 0.20372 0.0
C1793 C 0.87425 0.33432 0.22007 0.0
C1794 C 0.9011 0.34693 0.19961 0.0
C1795 C 0.87764 0.35317 0.21203 0.0
C1796 C 0.85285 0.3499 0.22851 0.0
H1797 H 0.92193 0.40795 0.24161 0.0
H1798 H 0.91832 0.39156 0.23624 0.0
C1799 C 0.85095 0.34058 0.23242 0.0
C1800 C 0.87796 0.36314 0.20817 0.0
H1801 H 0.952 0.38174 0.20651 0.0
C1802 C 0.83335 0.36773 0.20743 0.0
C1803 C 0.92133 0.36824 0.20749 0.0
C1804 C 0.97039 0.36377 0.20891 0.0
C1805 C 0.83081 0.3773 0.20724 0.0
C1806 C 0.87419 0.38241 0.20711 0.0
C1807 C 0.91878 0.3778 0.20663 0.0
C1808 C 0.87465 0.39245 0.21001 0.0
C1809 C 0.7818 0.38181 0.20842 0.0
C1810 C 0.85077 0.39844 0.19716 0.0
C1811 C 0.85197 0.40789 0.20046 0.0
C1812 C 0.87795 0.41144 0.21641 0.0
C1813 C 0.90175 0.40542 0.22915 0.0
C1814 C 0.89989 0.39604 0.22605 0.0
H1815 H 0.75294 0.3769 0.2126 0.0
H1816 H 0.78208 0.38746 0.21923 0.0
H1817 H 0.77238 0.38469 0.19391 0.0
H1818 H 0.83182 0.39584 0.18447 0.0
H1819 H 0.83379 0.41241 0.19031 0.0
H1820 H 0.82725 0.33083 0.55322 0.0
H1821 H 0.83004 0.34737 0.5591 0.0
H1822 H 0.90117 0.3512 0.50348 0.0
H1823 H 0.89993 0.33479 0.4979 0.0
H1824 H 0.94613 0.36047 0.53247 0.0
H1825 H 0.74785 0.36705 0.53439 0.0
H1826 H 0.77007 0.35888 0.55179 0.0
H1827 H 0.77267 0.35635 0.52608 0.0
C1828 C 0.84287 0.33524 0.54219 0.0
C1829 C 0.86324 0.33156 0.52509 0.0
C1830 C 0.84447 0.34467 0.54556 0.0
C1831 C 0.86563 0.35051 0.53168 0.0
C1832 C 0.88497 0.34682 0.51445 0.0
H1833 H 0.82844 0.40463 0.49772 0.0
H1834 H 0.83148 0.38833 0.50444 0.0
C1835 C 0.88398 0.33744 0.51122 0.0
C1836 C 0.86844 0.3605 0.53478 0.0
H1837 H 0.79918 0.37972 0.537 0.0
C1838 C 0.91407 0.3647 0.53369 0.0
C1839 C 0.82652 0.36597 0.53643 0.0
C1840 C 0.77643 0.36188 0.5371 0.0
C1841 C 0.91877 0.37422 0.53297 0.0
C1842 C 0.87669 0.37968 0.53389 0.0
C1843 C 0.83134 0.37549 0.53626 0.0
C1844 C 0.87781 0.3896 0.52983 0.0
C1845 C 0.96831 0.37832 0.52997 0.0
C1846 C 0.90374 0.39574 0.54166 0.0
C1847 C 0.90276 0.40511 0.5376 0.0
C1848 C 0.87512 0.40843 0.52189 0.0
C1849 C 0.8499 0.40225 0.50998 0.0
C1850 C 0.85141 0.39295 0.51385 0.0
H1851 H 0.99564 0.37309 0.52592 0.0
H1852 H 0.96738 0.38361 0.51834 0.0
H1853 H 0.9803 0.38163 0.54375 0.0
H1854 H 0.92378 0.39331 0.55424 0.0
H1855 H 0.92208 0.40977 0.54711 0.0
H1856 H 0.56673 0.08845 0.75278 0.0
H1857 H 0.5637 0.10484 0.75842 0.0
H1858 H 0.66614 0.10206 0.8057 0.0
H1859 H 0.67066 0.08556 0.79958 0.0
H1860 H 0.53625 0.11465 0.78985 0.0
H1861 H 0.72985 0.12132 0.77251 0.0
H1862 H 0.7017 0.11045 0.76777 0.0
H1863 H 0.719 0.11351 0.79227 0.0
C1864 C 0.58886 0.09132 0.76432 0.0
C1865 C 0.61931 0.08576 0.77563 0.0
C1866 C 0.58686 0.10069 0.76761 0.0
C1867 C 0.61492 0.10469 0.78238 0.0
C1868 C 0.64486 0.09914 0.79398 0.0
H1869 H 0.57233 0.16427 0.79922 0.0
H1870 H 0.57 0.14783 0.80654 0.0
C1871 C 0.6474 0.08973 0.79049 0.0
C1872 C 0.61322 0.11473 0.78491 0.0
H1873 H 0.68087 0.13398 0.77897 0.0
C1874 C 0.56793 0.1189 0.7877 0.0
C1875 C 0.65465 0.12023 0.7821 0.0
C1876 C 0.70402 0.11618 0.77834 0.0
C1877 C 0.56248 0.12841 0.7866 0.0
C1878 C 0.60367 0.13388 0.78311 0.0
C1879 C 0.64934 0.12974 0.78157 0.0
C1880 C 0.6001 0.14374 0.77862 0.0
C1881 C 0.51245 0.13248 0.78801 0.0
C1882 C 0.61722 0.14685 0.76049 0.0
C1883 C 0.61921 0.15614 0.75647 0.0
C1884 C 0.60357 0.16252 0.7704 0.0
C1885 C 0.58403 0.15944 0.78818 0.0
C1886 C 0.58273 0.15008 0.79236 0.0
H1887 H 0.48374 0.12719 0.78709 0.0
H1888 H 0.50862 0.13605 0.80224 0.0
H1889 H 0.50652 0.13754 0.77617 0.0
H1890 H 0.63042 0.14207 0.74962 0.0
H1891 H 0.6343 0.15835 0.74262 0.0
H1892 H 0.6279 0.15299 0.491 0.0
H1893 H 0.61278 0.13718 0.48177 0.0
H1894 H 0.64999 0.14339 0.42193 0.0
H1895 H 0.66617 0.15935 0.43128 0.0
H1896 H 0.53916 0.13324 0.45256 0.0
H1897 H 0.72006 0.11856 0.4346 0.0
H1898 H 0.71433 0.12844 0.45023 0.0
H1899 H 0.7028 0.12945 0.42452 0.0
C1900 C 0.63414 0.15094 0.47598 0.0
C1901 C 0.64815 0.15735 0.46183 0.0
C1902 C 0.62526 0.14193 0.4707 0.0
C1903 C 0.62986 0.13916 0.45116 0.0
C1904 C 0.64654 0.14541 0.43711 0.0
H1905 H 0.56613 0.08073 0.43204 0.0
H1906 H 0.57057 0.09679 0.4215 0.0
C1907 C 0.65599 0.15448 0.44247 0.0
C1908 C 0.61324 0.12991 0.4458 0.0
H1909 H 0.65511 0.10834 0.43804 0.0
C1910 C 0.56424 0.12782 0.44885 0.0
C1911 C 0.64597 0.1229 0.44077 0.0
C1912 C 0.69883 0.12487 0.43734 0.0
C1913 C 0.54795 0.11877 0.44869 0.0
C1914 C 0.5815 0.11169 0.44539 0.0
C1915 C 0.62954 0.11383 0.44052 0.0
C1916 C 0.57022 0.1022 0.45094 0.0
C1917 C 0.49572 0.11677 0.45336 0.0
C1918 C 0.56748 0.10004 0.47089 0.0
C1919 C 0.56569 0.09096 0.47687 0.0
C1920 C 0.5658 0.08392 0.46299 0.0
C1921 C 0.56515 0.08609 0.44296 0.0
C1922 C 0.56803 0.09521 0.43695 0.0
H1923 H 0.47227 0.12278 0.45044 0.0
H1924 H 0.48241 0.11088 0.44468 0.0
H1925 H 0.49248 0.11501 0.4691 0.0
H1926 H 0.56964 0.10535 0.48187 0.0
H1927 H 0.56664 0.08943 0.49238 0.0
H1928 H 0.32124 0.90918 0.21405 0.0
H1929 H 0.322 0.89276 0.20681 0.0
H1930 H 0.47724 0.89355 0.20084 0.0
H1931 H 0.47689 0.90983 0.20838 0.0
H1932 H 0.36071 0.88177 0.17521 0.0
H1933 H 0.45338 0.87562 0.24627 0.0
H1934 H 0.42534 0.88639 0.24032 0.0
H1935 H 0.4833 0.88349 0.23016 0.0
C1936 C 0.35537 0.90587 0.21089 0.0
C1937 C 0.39904 0.91073 0.21207 0.0
C1938 C 0.35578 0.89651 0.20675 0.0
C1939 C 0.3998 0.89194 0.20368 0.0
C1940 C 0.44303 0.89693 0.20355 0.0
H1941 H 0.45581 0.83311 0.20744 0.0
H1942 H 0.46763 0.84943 0.20062 0.0
C1943 C 0.4427 0.90623 0.20782 0.0
C1944 C 0.40098 0.88188 0.20218 0.0
H1945 H 0.43835 0.86281 0.22654 0.0
C1946 C 0.37789 0.87761 0.18635 0.0
C1947 C 0.42365 0.87649 0.21671 0.0
C1948 C 0.44751 0.8807 0.23443 0.0
C1949 C 0.37643 0.86806 0.1848 0.0
C1950 C 0.39797 0.86268 0.19962 0.0
C1951 C 0.42225 0.86696 0.21511 0.0
C1952 C 0.39123 0.85267 0.20067 0.0
C1953 C 0.35164 0.86381 0.16738 0.0
C1954 C 0.34448 0.84912 0.2028 0.0
C1955 C 0.33774 0.83988 0.20676 0.0
C1956 C 0.37763 0.83401 0.20878 0.0
C1957 C 0.42445 0.83748 0.20591 0.0
C1958 C 0.43121 0.84678 0.20201 0.0
H1959 H 0.35165 0.86851 0.15462 0.0
H1960 H 0.36932 0.85731 0.16307 0.0
H1961 H 0.31341 0.86234 0.17119 0.0
H1962 H 0.3132 0.85356 0.2023 0.0
H1963 H 0.30119 0.8374 0.20888 0.0
H1964 H 0.26379 0.91006 0.54364 0.0
H1965 H 0.26213 0.89385 0.55169 0.0
H1966 H 0.4167 0.89238 0.54352 0.0
H1967 H 0.41872 0.90872 0.53586 0.0
H1968 H 0.28759 0.88128 0.52496 0.0
H1969 H 0.39783 0.87657 0.59179 0.0
H1970 H 0.37458 0.88757 0.5844 0.0
H1971 H 0.4286 0.88306 0.57333 0.0
C1972 C 0.29761 0.90633 0.54398 0.0
C1973 C 0.34138 0.91061 0.53897 0.0
C1974 C 0.29658 0.89708 0.54864 0.0
C1975 C 0.33926 0.89192 0.54833 0.0
C1976 C 0.38346 0.89627 0.54426 0.0
H1977 H 0.43318 0.83853 0.52914 0.0
H1978 H 0.42016 0.85443 0.53785 0.0
C1979 C 0.38458 0.90559 0.53976 0.0
C1980 C 0.33647 0.88185 0.54947 0.0
H1981 H 0.38518 0.8632 0.57187 0.0
C1982 C 0.30812 0.87731 0.53548 0.0
C1983 C 0.36328 0.87672 0.56321 0.0
C1984 C 0.39241 0.88123 0.57916 0.0
C1985 C 0.30804 0.86778 0.53409 0.0
C1986 C 0.33651 0.86265 0.54728 0.0
C1987 C 0.36323 0.86716 0.56184 0.0
C1988 C 0.34414 0.85276 0.54441 0.0
C1989 C 0.27987 0.86331 0.51776 0.0
C1990 C 0.30578 0.84649 0.54563 0.0
C1991 C 0.31303 0.83734 0.54049 0.0
C1992 C 0.35876 0.83438 0.53414 0.0
C1993 C 0.39739 0.84062 0.5338 0.0
C1994 C 0.39014 0.8497 0.5389 0.0
H1995 H 0.2661 0.86835 0.50698 0.0
H1996 H 0.30274 0.85827 0.50992 0.0
H1997 H 0.2484 0.85963 0.52401 0.0
H1998 H 0.27011 0.84873 0.5501 0.0
H1999 H 0.28276 0.83266 0.54103 0.0
H2000 H 0.69611 0.65607 0.27639 0.0
H2001 H 0.68516 0.64002 0.28437 0.0
H2002 H 0.53868 0.64545 0.30273 0.0
H2003 H 0.54921 0.66167 0.29448 0.0
H2004 H 0.65861 0.63107 0.31953 0.0
H2005 H 0.52489 0.62595 0.25952 0.0
H2006 H 0.56201 0.63604 0.26113 0.0
H2007 H 0.51108 0.63467 0.27716 0.0
C2008 C 0.66154 0.65389 0.28221 0.0
C2009 C 0.62328 0.66011 0.28461 0.0
C2010 C 0.65548 0.64471 0.28685 0.0
C2011 C 0.61104 0.64154 0.29395 0.0
C2012 C 0.57311 0.64776 0.29703 0.0
H2013 H 0.5268 0.58444 0.29825 0.0
H2014 H 0.52863 0.60078 0.30508 0.0
C2015 C 0.57916 0.657 0.29236 0.0
C2016 C 0.6044 0.63163 0.29692 0.0
H2017 H 0.54925 0.61302 0.27699 0.0
C2018 C 0.63425 0.62711 0.31043 0.0
C2019 C 0.57273 0.62651 0.28496 0.0
C2020 C 0.54102 0.63099 0.26976 0.0
C2021 C 0.63394 0.61755 0.31203 0.0
C2022 C 0.60358 0.61242 0.29955 0.0
C2023 C 0.57251 0.61697 0.28656 0.0
C2024 C 0.60489 0.60232 0.2988 0.0
C2025 C 0.66628 0.61305 0.32695 0.0
C2026 C 0.64751 0.59772 0.29346 0.0
C2027 C 0.64665 0.58833 0.28968 0.0
C2028 C 0.60299 0.58347 0.29087 0.0
C2029 C 0.56095 0.58803 0.29708 0.0
C2030 C 0.56191 0.59736 0.30102 0.0
H2031 H 0.67512 0.61778 0.33915 0.0
H2032 H 0.64916 0.60683 0.33311 0.0
H2033 H 0.70074 0.61105 0.31982 0.0
H2034 H 0.68087 0.60145 0.29124 0.0
H2035 H 0.67947 0.58499 0.28479 0.0
H2036 H 0.52383 0.65772 0.96235 0.0
H2037 H 0.52934 0.64127 0.95723 0.0
H2038 H 0.68505 0.64296 0.95841 0.0
H2039 H 0.67981 0.65957 0.96314 0.0
H2040 H 0.64707 0.6305 0.92986 0.0
H2041 H 0.56757 0.62504 0.0036 0.0
H2042 H 0.53132 0.632 0.98771 0.0
H2043 H 0.58961 0.63601 0.99558 0.0
C2044 C 0.55931 0.65461 0.96129 0.0
C2045 C 0.60144 0.65989 0.96341 0.0
C2046 C 0.56235 0.64522 0.95841 0.0
C2047 C 0.60753 0.64089 0.95789 0.0
C2048 C 0.64982 0.64619 0.9589 0.0
H2049 H 0.71159 0.58606 0.9654 0.0
H2050 H 0.70068 0.60226 0.95857 0.0
C2051 C 0.64681 0.65565 0.96161 0.0
C2052 C 0.61025 0.63081 0.95761 0.0
H2053 H 0.57972 0.61194 0.98415 0.0
C2054 C 0.63237 0.62642 0.9417 0.0
C2055 C 0.59101 0.62553 0.97311 0.0
C2056 C 0.56893 0.62987 0.99106 0.0
C2057 C 0.63543 0.61686 0.94082 0.0
C2058 C 0.6163 0.6116 0.95636 0.0
C2059 C 0.5938 0.61599 0.97215 0.0
C2060 C 0.62255 0.60159 0.9575 0.0
C2061 C 0.65884 0.61245 0.92327 0.0
C2062 C 0.58217 0.59581 0.95911 0.0
C2063 C 0.58829 0.58651 0.96308 0.0
C2064 C 0.63488 0.5829 0.96576 0.0
C2065 C 0.67521 0.58865 0.96343 0.0
C2066 C 0.66909 0.5979 0.95936 0.0
H2067 H 0.65897 0.61709 0.91042 0.0
H2068 H 0.69695 0.61076 0.92685 0.0
H2069 H 0.63998 0.60603 0.91923 0.0
H2070 H 0.54592 0.59857 0.9579 0.0
H2071 H 0.55659 0.58225 0.96486 0.0
H2072 H 0.29501 0.41288 0.71281 0.0
H2073 H 0.29066 0.39627 0.70785 0.0
H2074 H 0.44204 0.39584 0.69259 0.0
H2075 H 0.44687 0.41227 0.698 0.0
H2076 H 0.3158 0.38369 0.67688 0.0
H2077 H 0.43357 0.38013 0.74233 0.0
H2078 H 0.40469 0.39074 0.73587 0.0
H2079 H 0.45858 0.38714 0.72332 0.0
C2080 C 0.32697 0.40924 0.70798 0.0
C2081 C 0.37142 0.41378 0.70608 0.0
C2082 C 0.3245 0.39978 0.70517 0.0
C2083 C 0.36635 0.39484 0.70031 0.0
C2084 C 0.40965 0.39952 0.69677 0.0
H2085 H 0.43477 0.33674 0.70378 0.0
H2086 H 0.43764 0.35316 0.69668 0.0
C2087 C 0.41229 0.4089 0.69981 0.0
C2088 C 0.36625 0.38475 0.70077 0.0
H2089 H 0.41497 0.36662 0.72513 0.0
C2090 C 0.33745 0.37994 0.6874 0.0
C2091 C 0.39451 0.37991 0.71457 0.0
C2092 C 0.42426 0.38473 0.72996 0.0
C2093 C 0.33654 0.37035 0.68737 0.0
C2094 C 0.36478 0.36553 0.70119 0.0
C2095 C 0.39384 0.37036 0.71442 0.0
C2096 C 0.36211 0.35551 0.70332 0.0
C2097 C 0.30561 0.36545 0.67254 0.0
C2098 C 0.31881 0.35146 0.70945 0.0
C2099 C 0.3172 0.34216 0.71365 0.0
C2100 C 0.35893 0.33674 0.71183 0.0
C2101 C 0.4021 0.34076 0.70529 0.0
C2102 C 0.40375 0.35011 0.70119 0.0
H2103 H 0.29696 0.36989 0.65983 0.0
H2104 H 0.32388 0.35918 0.66717 0.0
H2105 H 0.27104 0.3634 0.67952 0.0
H2106 H 0.28659 0.35555 0.71161 0.0
H2107 H 0.28336 0.33925 0.71864 0.0
H2108 H 0.28093 0.40896 0.03708 0.0
H2109 H 0.282 0.39259 0.04352 0.0
H2110 H 0.43551 0.39195 0.03222 0.0
H2111 H 0.43483 0.40845 0.02614 0.0
H2112 H 0.30587 0.38022 0.01587 0.0
H2113 H 0.42452 0.37586 0.08053 0.0
H2114 H 0.39898 0.38676 0.07376 0.0
H2115 H 0.45181 0.3825 0.0614 0.0
C2116 C 0.31515 0.40537 0.03634 0.0
C2117 C 0.35782 0.40996 0.03101 0.0
C2118 C 0.31566 0.39602 0.04004 0.0
C2119 C 0.35882 0.39105 0.03848 0.0
C2120 C 0.40195 0.39567 0.03391 0.0
H2121 H 0.44673 0.33635 0.02178 0.0
H2122 H 0.43743 0.35262 0.02791 0.0
C2123 C 0.40152 0.40509 0.03034 0.0
C2124 C 0.35744 0.38096 0.03944 0.0
H2125 H 0.4082 0.36242 0.06162 0.0
C2126 C 0.32767 0.37632 0.02608 0.0
C2127 C 0.38588 0.3759 0.05278 0.0
C2128 C 0.41675 0.3805 0.06806 0.0
C2129 C 0.32714 0.36677 0.02509 0.0
C2130 C 0.35666 0.36171 0.03803 0.0
C2131 C 0.38543 0.36633 0.05178 0.0
C2132 C 0.36201 0.35171 0.03607 0.0
C2133 C 0.2968 0.36218 0.00958 0.0
C2134 C 0.32274 0.34577 0.03896 0.0
C2135 C 0.32787 0.3364 0.03537 0.0
C2136 C 0.37236 0.33289 0.02888 0.0
C2137 C 0.41185 0.33885 0.02664 0.0
C2138 C 0.40672 0.34815 0.03023 0.0
H2139 H 0.28287 0.36711 -0.0014 0.0
H2140 H 0.3181 0.35686 0.00184 0.0
H2141 H 0.26536 0.3588 0.0166 0.0
H2142 H 0.28806 0.34839 0.04372 0.0
H2143 H 0.29695 0.33195 0.03733 0.0
H2144 H 0.05093 0.05398 0.33781 0.0
H2145 H 0.99319 0.05404 0.36482 0.0
H2146 H 0.87495 0.05431 0.32365 0.0
H2147 H 0.9327 0.05417 0.2964 0.0
H2148 H 0.92263 0.06746 0.37233 0.0
H2149 H 0.84161 0.03315 0.36122 0.0
H2150 H 0.89818 0.03652 0.35015 0.0
H2151 H 0.84184 0.04032 0.33989 0.0
C2152 C 0.01262 0.05399 0.33447 0.0
C2153 C 0.99621 0.05405 0.315 0.0
C2154 C 0.97977 0.05403 0.34993 0.0
C2155 C 0.92998 0.05408 0.34619 0.0
C2156 C 0.91335 0.05411 0.32678 0.0
H2157 H 0.67075 0.05745 0.41363 0.0
H2158 H 0.73368 0.05667 0.38874 0.0
C2159 C 0.94628 0.05407 0.31126 0.0
C2160 C 0.89561 0.05443 0.36268 0.0
H2161 H 0.80334 0.04281 0.38444 0.0
C2162 C 0.89671 0.06206 0.3751 0.0
C2163 C 0.86218 0.04733 0.36621 0.0
C2164 C 0.86098 0.03882 0.35379 0.0
C2165 C 0.86404 0.06291 0.39068 0.0
C2166 C 0.8301 0.05587 0.39402 0.0
C2167 C 0.82955 0.04818 0.38179 0.0
C2168 C 0.79289 0.05657 0.40942 0.0
C2169 C 0.86501 0.07144 0.40304 0.0
C2170 C 0.80553 0.05677 0.42931 0.0
C2171 C 0.76952 0.05725 0.44366 0.0
C2172 C 0.72053 0.05746 0.43823 0.0
C2173 C 0.7082 0.05728 0.41828 0.0
C2174 C 0.74405 0.05682 0.40402 0.0
H2175 H 0.88665 0.07696 0.39613 0.0
H2176 H 0.82777 0.07401 0.40565 0.0
H2177 H 0.88141 0.06984 0.41746 0.0
H2178 H 0.84312 0.05644 0.43372 0.0
H2179 H 0.77994 0.05734 0.45894 0.0
H2180 H 0.30935 0.18957 0.29128 0.0
H2181 H 0.36674 0.19021 0.31864 0.0
H2182 H 0.24797 0.19223 0.35934 0.0
H2183 H 0.19057 0.19151 0.33225 0.0
H2184 H 0.37788 0.2037 0.34919 0.0
H2185 H 0.3249 0.16958 0.37766 0.0
H2186 H 0.30935 0.1734 0.35335 0.0
H2187 H 0.27588 0.17746 0.37414 0.0
C2188 C 0.29558 0.19021 0.30606 0.0
C2189 C 0.24559 0.1904 0.30969 0.0
C2190 C 0.3283 0.19058 0.32163 0.0
C2191 C 0.31136 0.19111 0.34095 0.0
C2192 C 0.26157 0.19165 0.34453 0.0
H2193 H 0.46064 0.18851 0.45328 0.0
H2194 H 0.39873 0.19038 0.42783 0.0
C2195 C 0.22892 0.19127 0.32903 0.0
C2196 C 0.34565 0.1909 0.35745 0.0
H2197 H 0.38034 0.17806 0.39665 0.0
C2198 C 0.37852 0.19811 0.35959 0.0
C2199 C 0.346 0.18359 0.37097 0.0
C2200 C 0.31246 0.17552 0.3689 0.0
C2201 C 0.41188 0.19822 0.37502 0.0
C2202 C 0.41264 0.19086 0.38839 0.0
C2203 C 0.37932 0.18371 0.3864 0.0
C2204 C 0.44972 0.19014 0.40381 0.0
C2205 C 0.44582 0.20623 0.37699 0.0
C2206 C 0.4985 0.18927 0.3986 0.0
C2207 C 0.53366 0.18818 0.41299 0.0
C2208 C 0.52059 0.18789 0.43286 0.0
C2209 C 0.47165 0.18873 0.43808 0.0
C2210 C 0.43638 0.18981 0.42361 0.0
H2211 H 0.43185 0.21234 0.3692 0.0
H2212 H 0.45173 0.20801 0.3926 0.0
H2213 H 0.48131 0.20442 0.37047 0.0
H2214 H 0.50931 0.1893 0.38336 0.0
H2215 H 0.57109 0.18751 0.40852 0.0
H2216 H 0.80295 0.19063 0.78975 0.0
H2217 H 0.85854 0.19064 0.81775 0.0
H2218 H 0.73703 0.19086 0.85735 0.0
H2219 H 0.68147 0.19076 0.82961 0.0
H2220 H 0.86459 0.20361 0.84921 0.0
H2221 H 0.81827 0.16875 0.87518 0.0
H2222 H 0.8031 0.17276 0.85096 0.0
H2223 H 0.76743 0.1762 0.87167 0.0
C2224 C 0.78819 0.19068 0.80443 0.0
C2225 C 0.73797 0.19064 0.80753 0.0
C2226 C 0.81988 0.19069 0.82036 0.0
C2227 C 0.80171 0.19061 0.83954 0.0
C2228 C 0.75164 0.19075 0.84264 0.0
H2229 H 0.9392 0.18834 0.95417 0.0
H2230 H 0.88016 0.18986 0.92753 0.0
C2231 C 0.72002 0.19073 0.82677 0.0
C2232 C 0.835 0.19045 0.85639 0.0
H2233 H 0.86911 0.17758 0.89563 0.0
C2234 C 0.86576 0.19792 0.85935 0.0
C2235 C 0.836 0.18302 0.86959 0.0
C2236 C 0.80476 0.17468 0.86667 0.0
C2237 C 0.89747 0.1982 0.87534 0.0
C2238 C 0.89878 0.19074 0.88844 0.0
C2239 C 0.86769 0.1833 0.88558 0.0
C2240 C 0.93408 0.19027 0.90459 0.0
C2241 C 0.92893 0.20651 0.87821 0.0
C2242 C 0.98363 0.18993 0.90039 0.0
C2243 C 0.01719 0.18905 0.91546 0.0
C2244 C 0.00174 0.18845 0.93501 0.0
C2245 C 0.95205 0.18882 0.93923 0.0
C2246 C 0.91839 0.18968 0.92408 0.0
H2247 H 0.91433 0.21254 0.87032 0.0
H2248 H 0.93242 0.20823 0.89398 0.0
H2249 H 0.96563 0.20508 0.87238 0.0
H2250 H 0.99631 0.19018 0.8854 0.0
H2251 H 0.05526 0.18875 0.91176 0.0
H2252 H 0.2085 0.04605 0.91878 0.0
H2253 H 0.26575 0.04486 0.89176 0.0
H2254 H 0.38406 0.04973 0.93157 0.0
H2255 H 0.32674 0.0508 0.9589 0.0
H2256 H 0.32566 0.05912 0.88072 0.0
H2257 H 0.4321 0.02805 0.89859 0.0
H2258 H 0.37424 0.03049 0.90971 0.0
H2259 H 0.42772 0.03628 0.91801 0.0
C2260 C 0.24676 0.04674 0.92186 0.0
C2261 C 0.26324 0.04856 0.94092 0.0
C2262 C 0.27937 0.04605 0.90641 0.0
C2263 C 0.32904 0.04713 0.90972 0.0
C2264 C 0.34587 0.0487 0.92881 0.0
H2265 H 0.57468 0.05486 0.83423 0.0
H2266 H 0.51932 0.05259 0.86167 0.0
C2267 C 0.31315 0.04936 0.94436 0.0
C2268 C 0.36238 0.04746 0.89285 0.0
H2269 H 0.46084 0.0372 0.8723 0.0
C2270 C 0.35502 0.05429 0.87879 0.0
C2271 C 0.40066 0.04117 0.8905 0.0
C2272 C 0.40908 0.03353 0.9049 0.0
C2273 C 0.38545 0.0551 0.86251 0.0
C2274 C 0.42372 0.04881 0.86013 0.0
C2275 C 0.43119 0.04197 0.87418 0.0
C2276 C 0.45748 0.04949 0.84348 0.0
C2277 C 0.37719 0.06282 0.84828 0.0
C2278 C 0.44103 0.0483 0.82421 0.0
C2279 C 0.47252 0.04963 0.80848 0.0
C2280 C 0.52087 0.05211 0.81185 0.0
C2281 C 0.53751 0.053 0.83119 0.0
C2282 C 0.50606 0.05168 0.84688 0.0
H2283 H 0.35314 0.06817 0.85446 0.0
H2284 H 0.41203 0.06603 0.84401 0.0
H2285 H 0.35988 0.0601 0.83484 0.0
H2286 H 0.40371 0.04649 0.82137 0.0
H2287 H 0.45886 0.04883 0.79372 0.0
H2288 H 0.17857 0.94357 0.54422 0.0
H2289 H 0.12723 0.94555 0.57313 0.0
H2290 H 0.254 0.94964 0.60886 0.0
H2291 H 0.30541 0.94781 0.58009 0.0
H2292 H 0.13469 0.93373 0.60507 0.0
H2293 H 0.16225 0.96973 0.62811 0.0
H2294 H 0.17685 0.96571 0.60382 0.0
H2295 H 0.21689 0.96338 0.62391 0.0
C2296 C 0.19538 0.94511 0.55816 0.0
C2297 C 0.24591 0.9455 0.55995 0.0
C2298 C 0.16608 0.94622 0.57463 0.0
C2299 C 0.1869 0.94781 0.59305 0.0
C2300 C 0.23723 0.94859 0.59471 0.0
H2301 H 0.05889 0.94132 0.70954 0.0
H2302 H 0.11813 0.9433 0.68298 0.0
C2303 C 0.26652 0.94749 0.57827 0.0
C2304 C 0.1565 0.94759 0.61079 0.0
H2305 H 0.12007 0.96008 0.65033 0.0
C2306 C 0.13142 0.9395 0.61493 0.0
C2307 C 0.15288 0.9551 0.62371 0.0
C2308 C 0.17831 0.96401 0.61964 0.0
C2309 C 0.10243 0.93873 0.63162 0.0
C2310 C 0.09832 0.94626 0.64438 0.0
C2311 C 0.12385 0.95432 0.64048 0.0
C2312 C 0.06413 0.94604 0.66084 0.0
C2313 C 0.07582 0.92992 0.63548 0.0
C2314 C 0.01475 0.9471 0.65705 0.0
C2315 C 0.98118 0.94596 0.67201 0.0
C2316 C 0.99647 0.94374 0.69104 0.0
C2317 C 0.0462 0.94302 0.69499 0.0
C2318 C 0.07995 0.94416 0.67992 0.0
H2319 H 0.0885 0.9243 0.62584 0.0
H2320 H 0.08046 0.92782 0.65098 0.0
H2321 H 0.03658 0.93097 0.63288 0.0
H2322 H 0.00213 0.94855 0.64236 0.0
H2323 H 0.94311 0.94662 0.66852 0.0
H2324 H 0.80079 0.80644 0.65692 0.0
H2325 H 0.73695 0.80452 0.6327 0.0
H2326 H 0.63241 0.80071 0.67885 0.0
H2327 H 0.6964 0.80277 0.70339 0.0
H2328 H 0.67509 0.78953 0.62694 0.0
H2329 H 0.5745 0.82133 0.64526 0.0
H2330 H 0.63532 0.81924 0.65373 0.0
H2331 H 0.58516 0.81357 0.66516 0.0
C2332 C 0.76422 0.80521 0.66197 0.0
C2333 C 0.75344 0.8048 0.68204 0.0
C2334 C 0.72786 0.80409 0.6481 0.0
C2335 C 0.68006 0.80255 0.65402 0.0
C2336 C 0.66908 0.80202 0.67405 0.0
H2337 H 0.42477 0.80025 0.57973 0.0
H2338 H 0.47966 0.79864 0.60751 0.0
C2339 C 0.70558 0.80317 0.688 0.0
C2340 C 0.6421 0.8016 0.639 0.0
H2341 H 0.54388 0.81236 0.61957 0.0
C2342 C 0.64613 0.79447 0.62539 0.0
C2343 C 0.60452 0.80808 0.63708 0.0
C2344 C 0.59957 0.81604 0.65096 0.0
C2345 C 0.61387 0.79371 0.60966 0.0
C2346 C 0.57719 0.80034 0.60744 0.0
C2347 C 0.57222 0.8073 0.62138 0.0
C2348 C 0.54467 0.80043 0.59033 0.0
C2349 C 0.61938 0.78588 0.59552 0.0
C2350 C 0.56327 0.80191 0.57149 0.0
C2351 C 0.53201 0.80285 0.55556 0.0
C2352 C 0.48175 0.80236 0.55832 0.0
C2353 C 0.46337 0.80066 0.57716 0.0
C2354 C 0.49459 0.79974 0.59304 0.0
H2355 H 0.64029 0.78016 0.60205 0.0
H2356 H 0.58352 0.78327 0.59078 0.0
H2357 H 0.63912 0.78827 0.58235 0.0
H2358 H 0.60185 0.80263 0.5692 0.0
H2359 H 0.5471 0.80419 0.54121 0.0
H2360 H 0.19225 0.80216 0.20121 0.0
H2361 H 0.13872 0.79987 0.173 0.0
H2362 H 0.26295 0.79604 0.13571 0.0
H2363 H 0.31651 0.79834 0.16366 0.0
H2364 H 0.19574 0.80985 0.12365 0.0
H2365 H 0.10638 0.77669 0.1398 0.0
H2366 H 0.10711 0.78489 0.1594 0.0
H2367 H 0.16295 0.78005 0.15093 0.0
C2368 C 0.20805 0.80069 0.18705 0.0
C2369 C 0.25849 0.80047 0.1846 0.0
C2370 C 0.17749 0.79934 0.17101 0.0
C2371 C 0.19705 0.79772 0.15237 0.0
C2372 C 0.2473 0.79724 0.15002 0.0
H2373 H 0.07378 0.79877 0.03486 0.0
H2374 H 0.12919 0.79704 0.06261 0.0
C2375 C 0.27778 0.79857 0.166 0.0
C2376 C 0.16554 0.79738 0.13497 0.0
H2377 H 0.0759 0.78515 0.11289 0.0
C2378 C 0.16974 0.80442 0.12118 0.0
C2379 C 0.13167 0.79031 0.13197 0.0
C2380 C 0.12678 0.7825 0.1462 0.0
C2381 C 0.14009 0.8047 0.10459 0.0
C2382 C 0.10621 0.79761 0.1015 0.0
C2383 C 0.1022 0.79053 0.11526 0.0
C2384 C 0.07291 0.79772 0.0846 0.0
C2385 C 0.14419 0.81275 0.09088 0.0
C2386 C 0.02294 0.79829 0.0878 0.0
C2387 C 0.99132 0.79918 0.07203 0.0
C2388 C 0.00918 0.79953 0.05279 0.0
C2389 C 0.05911 0.7986 0.04955 0.0
C2390 C 0.09075 0.79766 0.06536 0.0
H2391 H 0.16322 0.81859 0.09782 0.0
H2392 H 0.1651 0.81069 0.07774 0.0
H2393 H 0.10791 0.81508 0.08602 0.0
H2394 H 0.0085 0.79832 0.10254 0.0
H2395 H 0.95297 0.79984 0.07497 0.0
H2396 H 0.79012 0.94289 0.08145 0.0
H2397 H 0.73464 0.94614 0.10836 0.0
H2398 H 0.61808 0.94986 0.06716 0.0
H2399 H 0.67328 0.94639 0.04009 0.0
H2400 H 0.67557 0.96089 0.11761 0.0
H2401 H 0.56846 0.92952 0.10253 0.0
H2402 H 0.62622 0.93167 0.09117 0.0
H2403 H 0.57283 0.93735 0.0824 0.0
C2404 C 0.75273 0.94445 0.07809 0.0
C2405 C 0.73578 0.94427 0.05871 0.0
C2406 C 0.72116 0.94634 0.09347 0.0
C2407 C 0.67219 0.9481 0.08974 0.0
C2408 C 0.6556 0.94835 0.07033 0.0
H2409 H 0.43268 0.94983 0.17163 0.0
H2410 H 0.48306 0.95269 0.14293 0.0
C2411 C 0.68713 0.94639 0.05491 0.0
C2412 C 0.63829 0.9491 0.10631 0.0
H2413 H 0.54276 0.93872 0.12868 0.0
C2414 C 0.64628 0.95609 0.11999 0.0
C2415 C 0.60038 0.94278 0.1094 0.0
C2416 C 0.59156 0.93485 0.09572 0.0
C2417 C 0.61739 0.9569 0.13679 0.0
C2418 C 0.58002 0.9505 0.13997 0.0
C2419 C 0.57138 0.94365 0.12608 0.0
C2420 C 0.55073 0.9504 0.15802 0.0
C2421 C 0.62705 0.96455 0.15103 0.0
C2422 C 0.57232 0.94835 0.17608 0.0
C2423 C 0.54361 0.94669 0.19254 0.0
C2424 C 0.49296 0.94699 0.19106 0.0
C2425 C 0.47164 0.9495 0.17318 0.0
C2426 C 0.50031 0.95116 0.15679 0.0
H2427 H 0.64805 0.97016 0.14414 0.0
H2428 H 0.59267 0.96737 0.15687 0.0
H2429 H 0.64838 0.96187 0.16353 0.0
H2430 H 0.61118 0.94756 0.17722 0.0
H2431 H 0.56095 0.94475 0.20613 0.0
H2432 H 0.91929 0.55029 0.7987 0.0
H2433 H 0.87661 0.54764 0.82968 0.0
H2434 H 0.01306 0.54621 0.86007 0.0
H2435 H 0.05596 0.54884 0.82932 0.0
H2436 H 0.89142 0.53254 0.86026 0.0
H2437 H 0.93218 0.56799 0.88488 0.0
H2438 H 0.93449 0.5647 0.85943 0.0
H2439 H 0.98165 0.56121 0.87583 0.0
C2440 C 0.94015 0.5493 0.81195 0.0
C2441 C 0.99086 0.54985 0.81166 0.0
C2442 C 0.9158 0.54777 0.82957 0.0
C2443 C 0.94187 0.54681 0.84706 0.0
C2444 C 0.99248 0.547 0.84669 0.0
H2445 H 0.82221 0.55144 0.96514 0.0
H2446 H 0.88076 0.54867 0.9388 0.0
C2447 C 0.01682 0.54851 0.82912 0.0
C2448 C 0.91604 0.54623 0.86587 0.0
H2449 H 0.88586 0.55887 0.90591 0.0
C2450 C 0.89039 0.53825 0.87036 0.0
C2451 C 0.91545 0.55367 0.87901 0.0
C2452 C 0.94213 0.56242 0.87462 0.0
C2453 C 0.86313 0.53759 0.88762 0.0
C2454 C 0.86074 0.54519 0.90036 0.0
C2455 C 0.88789 0.55304 0.89615 0.0
C2456 C 0.82647 0.54559 0.91694 0.0
C2457 C 0.837 0.52879 0.89197 0.0
C2458 C 0.77677 0.54471 0.91337 0.0
C2459 C 0.7435 0.54627 0.9283 0.0
C2460 C 0.75927 0.54883 0.94705 0.0
C2461 C 0.8091 0.54946 0.95082 0.0
C2462 C 0.8425 0.54788 0.93582 0.0
H2463 H 0.85566 0.52288 0.88513 0.0
H2464 H 0.83413 0.52757 0.90797 0.0
H2465 H 0.79994 0.52913 0.88578 0.0
H2466 H 0.76351 0.5432 0.89881 0.0
H2467 H 0.7053 0.54575 0.92494 0.0
H2468 H 0.17149 0.69763 0.82905 0.0
H2469 H 0.21913 0.7003 0.85863 0.0
H2470 H 0.35068 0.69748 0.82523 0.0
H2471 H 0.30329 0.69486 0.79551 0.0
H2472 H 0.28411 0.6873 0.87324 0.0
H2473 H 0.37577 0.72029 0.8591 0.0
H2474 H 0.3225 0.71668 0.84586 0.0
H2475 H 0.38099 0.71226 0.83935 0.0
C2476 C 0.21058 0.69773 0.82793 0.0
C2477 C 0.23377 0.696 0.81 0.0
C2478 C 0.23766 0.69926 0.84484 0.0
C2479 C 0.2883 0.69919 0.84404 0.0
C2480 C 0.31157 0.69775 0.82605 0.0
H2481 H 0.53381 0.69368 0.91599 0.0
H2482 H 0.47325 0.69656 0.8908 0.0
C2483 C 0.2845 0.69619 0.80912 0.0
C2484 C 0.31681 0.69961 0.86227 0.0
H2485 H 0.40929 0.71097 0.88453 0.0
C2486 C 0.31094 0.69255 0.87593 0.0
C2487 C 0.35164 0.70648 0.86564 0.0
C2488 C 0.35789 0.71441 0.8518 0.0
C2489 C 0.34094 0.69189 0.89239 0.0
C2490 C 0.37701 0.69859 0.89541 0.0
C2491 C 0.38154 0.70586 0.88216 0.0
C2492 C 0.41343 0.69765 0.9111 0.0
C2493 C 0.33555 0.68375 0.90577 0.0
C2494 C 0.39991 0.69749 0.9309 0.0
C2495 C 0.43448 0.69576 0.94537 0.0
C2496 C 0.48302 0.69425 0.94019 0.0
C2497 C 0.49663 0.69477 0.92042 0.0
C2498 C 0.46213 0.69645 0.90601 0.0
H2499 H 0.31257 0.67834 0.89921 0.0
H2500 H 0.37143 0.68077 0.90932 0.0
H2501 H 0.31838 0.68596 0.91966 0.0
H2502 H 0.36258 0.69856 0.93511 0.0
H2503 H 0.42312 0.69547 0.96052 0.0
H2504 H 0.07109 0.69066 0.41217 0.0
H2505 H 0.01269 0.6925 0.38573 0.0
H2506 H 0.8957 0.69156 0.42744 0.0
H2507 H 0.95423 0.68976 0.45419 0.0
H2508 H 0.93826 0.67959 0.37741 0.0
H2509 H 0.86613 0.71431 0.39275 0.0
H2510 H 0.92293 0.7103 0.40262 0.0
H2511 H 0.86688 0.70649 0.41304 0.0
C2512 C 0.03296 0.69092 0.41579 0.0
C2513 C 0.01713 0.69004 0.43524 0.0
C2514 C -0.00028 0.69199 0.40066 0.0
C2515 C 0.95009 0.69225 0.4047 0.0
C2516 C 0.93401 0.69151 0.42412 0.0
H2517 H 0.6949 0.69265 0.33275 0.0
H2518 H 0.75401 0.69358 0.3592 0.0
C2519 C 0.96737 0.69044 0.43933 0.0
C2520 C 0.91537 0.69267 0.38835 0.0
H2521 H 0.82836 0.70594 0.36732 0.0
C2522 C 0.91433 0.68536 0.37512 0.0
C2523 C 0.8843 0.70021 0.38555 0.0
C2524 C 0.88513 0.70832 0.39912 0.0
C2525 C 0.88235 0.68531 0.35923 0.0
C2526 C 0.85145 0.69288 0.35631 0.0
C2527 C 0.85244 0.70019 0.36957 0.0
C2528 C 0.81629 0.69309 0.34006 0.0
C2529 C 0.88102 0.67705 0.34605 0.0
C2530 C 0.83189 0.69276 0.32052 0.0
C2531 C 0.79817 0.69217 0.30534 0.0
C2532 C 0.74845 0.69199 0.30954 0.0
C2533 C 0.73302 0.69273 0.32907 0.0
C2534 C 0.76669 0.69329 0.3442 0.0
H2535 H 0.89841 0.67102 0.35297 0.0
H2536 H 0.84321 0.67523 0.34217 0.0
H2537 H 0.90083 0.67858 0.33232 0.0
H2538 H 0.87012 0.69278 0.31705 0.0
H2539 H 0.81101 0.69167 0.29041 0.0
H2540 H 0.44067 0.54922 0.30216 0.0
H2541 H 0.39552 0.54605 0.33224 0.0
H2542 H 0.52944 0.54211 0.36346 0.0
H2543 H 0.57489 0.54532 0.33353 0.0
H2544 H 0.39877 0.53057 0.36004 0.0
H2545 H 0.45949 0.56381 0.39131 0.0
H2546 H 0.46435 0.56128 0.36555 0.0
H2547 H 0.5054 0.55612 0.38261 0.0
C2548 C 0.46045 0.54755 0.31536 0.0
C2549 C 0.51123 0.54762 0.31559 0.0
C2550 C 0.43468 0.54573 0.33249 0.0
C2551 C 0.45933 0.54397 0.35002 0.0
C2552 C 0.50993 0.54356 0.35007 0.0
H2553 H 0.31256 0.54807 0.46387 0.0
H2554 H 0.3775 0.54461 0.44043 0.0
C2555 C 0.53574 0.54538 0.33297 0.0
C2556 C 0.4319 0.54328 0.36846 0.0
H2557 H 0.40252 0.55547 0.40925 0.0
C2558 C 0.40001 0.53594 0.37097 0.0
C2559 C 0.43413 0.55025 0.38272 0.0
C2560 C 0.46741 0.55836 0.38049 0.0
C2561 C 0.36872 0.53558 0.38709 0.0
C2562 C 0.36878 0.54285 0.4007 0.0
C2563 C 0.40266 0.54991 0.39877 0.0
C2564 C 0.32988 0.54396 0.41532 0.0
C2565 C 0.33507 0.52753 0.38914 0.0
C2566 C 0.28198 0.5448 0.40889 0.0
C2567 C 0.24522 0.5468 0.42211 0.0
C2568 C 0.25566 0.54806 0.44203 0.0
C2569 C 0.30357 0.54711 0.44858 0.0
C2570 C 0.34055 0.54512 0.43526 0.0
H2571 H 0.35079 0.52132 0.38231 0.0
H2572 H 0.32692 0.52606 0.40473 0.0
H2573 H 0.3006 0.52906 0.38149 0.0
H2574 H 0.27316 0.5442 0.3935 0.0
H2575 H 0.20866 0.54751 0.41661 0.0
H2576 H 0.06289 0.44511 0.20453 0.0
H2577 H 0.12311 0.44799 0.17884 0.0
H2578 H 0.01227 0.44515 0.13484 0.0
H2579 H 0.95219 0.44239 0.16023 0.0
H2580 H 0.14702 0.43613 0.14855 0.0
H2581 H 0.07904 0.46885 0.11882 0.0
H2582 H 0.06073 0.46449 0.14242 0.0
H2583 H 0.03278 0.46029 0.1204 0.0
C2584 C 0.05144 0.44517 0.18938 0.0
C2585 C 0.00293 0.44354 0.18435 0.0
C2586 C 0.08574 0.44684 0.17477 0.0
C2587 C 0.07181 0.44697 0.15502 0.0
C2588 C 0.02345 0.44532 0.15003 0.0
H2589 H 0.19036 0.44297 0.0408 0.0
H2590 H 0.14026 0.4453 0.06997 0.0
C2591 C 0.98928 0.44366 0.16455 0.0
C2592 C 0.1081 0.44811 0.13938 0.0
H2593 H 0.13242 0.46026 0.09793 0.0
C2594 C 0.14451 0.4415 0.13767 0.0
C2595 C 0.10442 0.45511 0.12523 0.0
C2596 C 0.0674 0.46264 0.12689 0.0
C2597 C 0.1759 0.44143 0.12159 0.0
C2598 C 0.17107 0.44824 0.10707 0.0
C2599 C 0.13577 0.45504 0.1091 0.0
C2600 C 0.20077 0.44807 0.08916 0.0
C2601 C 0.21244 0.43381 0.11978 0.0
C2602 C 0.25101 0.44918 0.09028 0.0
C2603 C 0.2796 0.44782 0.07374 0.0
C2604 C 0.25829 0.44539 0.0558 0.0
C2605 C 0.2077 0.44481 0.05446 0.0
C2606 C 0.17911 0.44614 0.07106 0.0
H2607 H 0.20512 0.42817 0.13021 0.0
H2608 H 0.21263 0.431 0.1047 0.0
H2609 H 0.2491 0.43653 0.12291 0.0
H2610 H 0.26818 0.45081 0.1041 0.0
H2611 H 0.31851 0.4484 0.07515 0.0
H2612 H 0.68809 0.30215 0.20631 0.0
H2613 H 0.62955 0.30017 0.17965 0.0
H2614 H 0.74555 0.30129 0.1375 0.0
H2615 H 0.80404 0.30316 0.1639 0.0
H2616 H 0.61428 0.31244 0.14874 0.0
H2617 H 0.67028 0.2785 0.12087 0.0
H2618 H 0.68798 0.2827 0.14467 0.0
H2619 H 0.71926 0.28647 0.12306 0.0
C2620 C 0.70105 0.30189 0.19136 0.0
C2621 C 0.75055 0.30279 0.18715 0.0
C2622 C 0.66767 0.30076 0.17619 0.0
C2623 C 0.68344 0.30043 0.15668 0.0
C2624 C 0.73283 0.30131 0.15249 0.0
H2625 H 0.55448 0.30213 0.04189 0.0
H2626 H 0.60918 0.30114 0.07009 0.0
C2627 C 0.76612 0.30245 0.16759 0.0
C2628 C 0.6482 0.29979 0.14052 0.0
H2629 H 0.61822 0.28725 0.10021 0.0
C2630 C 0.61468 0.30689 0.13825 0.0
C2631 C 0.64923 0.29255 0.12684 0.0
C2632 C 0.68332 0.28457 0.12904 0.0
C2633 C 0.58293 0.30708 0.12229 0.0
C2634 C 0.58436 0.2999 0.10847 0.0
C2635 C 0.61746 0.29274 0.11085 0.0
C2636 C 0.55174 0.29978 0.09141 0.0
C2637 C 0.54911 0.3151 0.12001 0.0
C2638 C 0.50167 0.29909 0.09413 0.0
C2639 C 0.47051 0.29967 0.07815 0.0
C2640 C 0.48899 0.30089 0.05917 0.0
C2641 C 0.5393 0.30121 0.05638 0.0
C2642 C 0.57051 0.30065 0.07242 0.0
H2643 H 0.56017 0.32097 0.12927 0.0
H2644 H 0.54759 0.31738 0.10453 0.0
H2645 H 0.51212 0.31303 0.12448 0.0
H2646 H 0.48667 0.29827 0.10867 0.0
H2647 H 0.4319 0.29932 0.08074 0.0
H2648 H 0.01935 0.28816 0.54628 0.0
H2649 H 0.07476 0.28513 0.57361 0.0
H2650 H 0.02688 0.30989 0.60188 0.0
H2651 H 0.96981 0.3126 0.57533 0.0
H2652 H 0.14837 0.29331 0.58789 0.0
H2653 H 0.01134 0.2928 0.64611 0.0
H2654 H 0.99492 0.2928 0.62057 0.0
H2655 H 0.00628 0.3034 0.63327 0.0
C2656 C 0.0209 0.29293 0.55838 0.0
C2657 C 0.99025 0.30056 0.55891 0.0
C2658 C 0.05228 0.29118 0.57398 0.0
C2659 C 0.05375 0.29711 0.59013 0.0
C2660 C 0.02483 0.30499 0.59005 0.0
H2661 H 0.28383 0.3117 0.66302 0.0
H2662 H 0.22802 0.30781 0.63678 0.0
C2663 C 0.99274 0.30661 0.57476 0.0
C2664 C 0.08682 0.2954 0.60677 0.0
H2665 H 0.0928 0.2972 0.65641 0.0
C2666 C 0.13607 0.29396 0.6029 0.0
C2667 C 0.07075 0.29585 0.62642 0.0
C2668 C 0.01781 0.29618 0.63179 0.0
C2669 C 0.17011 0.29377 0.61808 0.0
C2670 C 0.15466 0.2955 0.6375 0.0
C2671 C 0.10499 0.29613 0.6415 0.0
C2672 C 0.18927 0.29756 0.65345 0.0
C2673 C 0.22225 0.29183 0.61304 0.0
C2674 C 0.1845 0.29348 0.67196 0.0
C2675 C 0.21532 0.29598 0.68728 0.0
C2676 C 0.25172 0.30249 0.68414 0.0
C2677 C 0.25639 0.30657 0.66569 0.0
C2678 C 0.22493 0.30425 0.6506 0.0
H2679 H 0.22471 0.28702 0.6005 0.0
H2680 H 0.24021 0.29827 0.60852 0.0
H2681 H 0.24222 0.28887 0.62562 0.0
H2682 H 0.15688 0.28838 0.67458 0.0
H2683 H 0.21124 0.29273 0.70142 0.0
H2684 H 0.5596 0.44283 0.70647 0.0
H2685 H 0.62028 0.44353 0.68035 0.0
H2686 H 0.50833 0.44984 0.63851 0.0
H2687 H 0.44787 0.44929 0.66444 0.0
H2688 H 0.61795 0.43189 0.64844 0.0
H2689 H 0.61413 0.46792 0.6238 0.0
H2690 H 0.58981 0.46432 0.64709 0.0
H2691 H 0.55518 0.46282 0.62504 0.0
C2692 C 0.54818 0.44457 0.69178 0.0
C2693 C 0.49909 0.44598 0.68744 0.0
C2694 C 0.58279 0.44496 0.6769 0.0
C2695 C 0.56876 0.44684 0.65758 0.0
C2696 C 0.52001 0.44858 0.6534 0.0
H2697 H 0.69209 0.44137 0.54211 0.0
H2698 H 0.63907 0.44363 0.57053 0.0
C2699 C 0.48548 0.44819 0.66822 0.0
C2700 C 0.60383 0.44597 0.64141 0.0
H2701 H 0.65033 0.45714 0.60185 0.0
C2702 C 0.62559 0.43744 0.63839 0.0
C2703 C 0.61319 0.45321 0.62828 0.0
C2704 C 0.5922 0.46261 0.63129 0.0
C2705 C 0.65556 0.43587 0.62222 0.0
C2706 C 0.66434 0.44307 0.60894 0.0
C2707 C 0.64312 0.45164 0.61206 0.0
C2708 C 0.69613 0.44183 0.59185 0.0
C2709 C 0.67653 0.42647 0.61917 0.0
C2710 C 0.74553 0.44017 0.59458 0.0
C2711 C 0.77567 0.43886 0.5785 0.0
C2712 C 0.75689 0.43924 0.5594 0.0
C2713 C 0.7074 0.441 0.55668 0.0
C2714 C 0.67721 0.44232 0.57283 0.0
H2715 H 0.65765 0.42123 0.62812 0.0
H2716 H 0.67439 0.42445 0.60353 0.0
H2717 H 0.71523 0.4265 0.62348 0.0
H2718 H 0.76078 0.4399 0.60918 0.0
H2719 H 0.81373 0.43757 0.58105 0.0
loop_
_geom_bond_atom_site_label_1
_geom_bond_atom_site_label_2
_geom_bond_distance
_geom_bond_site_symmetry_2
_ccdc_geom_bond_type
In0 O1 2.294 . S
In0 O2 2.326 . S
In0 O6 2.266 . S
In0 O7 2.326 . S
In0 O8 2.266 . S
In0 O9 2.326 . S
In0 O11 2.294 . S
In0 O12 2.326 . S
O1 In0 2.294 . S
O1 C10 1.240 . S
O2 In0 2.326 . S
O2 C10 1.252 . S
C3 O6 1.252 . S
C3 O7 1.260 . S
C4 O11 1.240 . S
C4 O12 1.252 . S
C5 O8 1.252 . S
C5 O9 1.260 . S
O6 In0 2.266 . S
O6 C3 1.252 . S
O7 In0 2.326 . S
O7 C3 1.260 . S
O8 In0 2.266 . S
O8 C5 1.252 . S
O9 In0 2.326 . S
O9 C5 1.260 . S
C10 O1 1.240 . S
C10 O2 1.252 . S
O11 In0 2.294 . S
O11 C4 1.240 . S
O12 In0 2.326 . S
O12 C4 1.252 . S
In13 O14 2.294 . S
In13 O15 2.326 . S
In13 O19 2.266 . S
In13 O20 2.326 . S
In13 O21 2.266 . S
In13 O22 2.326 . S
In13 O24 2.294 . S
In13 O25 2.326 . S
O14 In13 2.294 . S
O14 C23 1.240 . S
O15 In13 2.326 . S
O15 C23 1.252 . S
C16 O19 1.252 . S
C16 O20 1.260 . S
C17 O24 1.240 . S
C17 O25 1.252 . S
C18 O21 1.252 . S
C18 O22 1.260 . S
O19 In13 2.266 . S
O19 C16 1.252 . S
O20 In13 2.326 . S
O20 C16 1.260 . S
O21 In13 2.266 . S
O21 C18 1.252 . S
O22 In13 2.326 . S
O22 C18 1.260 . S
C23 O14 1.240 . S
C23 O15 1.252 . S
O24 In13 2.294 . S
O24 C17 1.240 . S
O25 In13 2.326 . S
O25 C17 1.252 . S
In26 O27 2.294 . S
In26 O28 2.326 . S
In26 O32 2.266 . S
In26 O33 2.326 . S
In26 O34 2.266 1_556 S
In26 O35 2.326 1_556 S
In26 O37 2.294 . S
In26 O38 2.326 . S
O27 In26 2.294 . S
O27 C36 1.240 . S
O28 In26 2.326 . S
O28 C36 1.252 . S
C29 O32 1.252 . S
C29 O33 1.260 . S
C30 O37 1.240 . S
C30 O38 1.252 . S
C31 O34 1.252 . S
C31 O35 1.260 . S
O32 In26 2.266 . S
O32 C29 1.252 . S
O33 In26 2.326 . S
O33 C29 1.260 . S
O34 In26 2.266 1_554 S
O34 C31 1.252 . S
O35 In26 2.326 1_554 S
O35 C31 1.260 . S
C36 O27 1.240 . S
C36 O28 1.252 . S
O37 In26 2.294 . S
O37 C30 1.240 . S
O38 In26 2.326 . S
O38 C30 1.252 . S
In39 O40 2.294 . S
In39 O41 2.326 . S
In39 O45 2.266 1_556 S
In39 O46 2.326 1_556 S
In39 O47 2.266 . S
In39 O48 2.326 . S
In39 O50 2.294 . S
In39 O51 2.326 . S
O40 In39 2.294 . S
O40 C49 1.240 . S
O41 In39 2.326 . S
O41 C49 1.252 . S
C42 O45 1.252 . S
C42 O46 1.260 . S
C43 O50 1.240 . S
C43 O51 1.252 . S
C44 O47 1.252 . S
C44 O48 1.260 . S
O45 In39 2.266 1_554 S
O45 C42 1.252 . S
O46 In39 2.326 1_554 S
O46 C42 1.260 . S
O47 In39 2.266 . S
O47 C44 1.252 . S
O48 In39 2.326 . S
O48 C44 1.260 . S
C49 O40 1.240 . S
C49 O41 1.252 . S
O50 In39 2.294 . S
O50 C43 1.240 . S
O51 In39 2.326 . S
O51 C43 1.252 . S
In52 O53 2.294 . S
In52 O54 2.326 . S
In52 O58 2.266 . S
In52 O59 2.326 . S
In52 O60 2.266 . S
In52 O61 2.326 . S
In52 O63 2.294 . S
In52 O64 2.326 . S
O53 In52 2.294 . S
O53 C62 1.240 . S
O54 In52 2.326 . S
O54 C62 1.252 . S
C55 O58 1.252 . S
C55 O59 1.260 . S
C56 O63 1.240 . S
C56 O64 1.252 . S
C57 O60 1.252 . S
C57 O61 1.260 . S
O58 In52 2.266 . S
O58 C55 1.252 . S
O59 In52 2.326 . S
O59 C55 1.260 . S
O60 In52 2.266 . S
O60 C57 1.252 . S
O61 In52 2.326 . S
O61 C57 1.260 . S
C62 O53 1.240 . S
C62 O54 1.252 . S
O63 In52 2.294 . S
O63 C56 1.240 . S
O64 In52 2.326 . S
O64 C56 1.252 . S
In65 O66 2.294 . S
In65 O67 2.326 . S
In65 O71 2.266 . S
In65 O72 2.326 . S
In65 O73 2.266 . S
In65 O74 2.326 . S
In65 O76 2.294 . S
In65 O77 2.326 . S
O66 In65 2.294 . S
O66 C75 1.240 . S
O67 In65 2.326 . S
O67 C75 1.252 . S
C68 O71 1.252 . S
C68 O72 1.260 . S
C69 O76 1.240 . S
C69 O77 1.252 . S
C70 O73 1.252 . S
C70 O74 1.260 . S
O71 In65 2.266 . S
O71 C68 1.252 . S
O72 In65 2.326 . S
O72 C68 1.260 . S
O73 In65 2.266 . S
O73 C70 1.252 . S
O74 In65 2.326 . S
O74 C70 1.260 . S
C75 O66 1.240 . S
C75 O67 1.252 . S
O76 In65 2.294 . S
O76 C69 1.240 . S
O77 In65 2.326 . S
O77 C69 1.252 . S
In78 O79 2.294 . S
In78 O80 2.326 . S
In78 O84 2.266 1_554 S
In78 O85 2.326 1_554 S
In78 O86 2.266 . S
In78 O87 2.326 . S
In78 O89 2.294 . S
In78 O90 2.326 . S
O79 In78 2.294 . S
O79 C88 1.240 . S
O80 In78 2.326 . S
O80 C88 1.252 . S
C81 O84 1.252 . S
C81 O85 1.260 . S
C82 O89 1.240 . S
C82 O90 1.252 . S
C83 O86 1.252 . S
C83 O87 1.260 . S
O84 In78 2.266 1_556 S
O84 C81 1.252 . S
O85 In78 2.326 1_556 S
O85 C81 1.260 . S
O86 In78 2.266 . S
O86 C83 1.252 . S
O87 In78 2.326 . S
O87 C83 1.260 . S
C88 O79 1.240 . S
C88 O80 1.252 . S
O89 In78 2.294 . S
O89 C82 1.240 . S
O90 In78 2.326 . S
O90 C82 1.252 . S
In91 O92 2.294 . S
In91 O93 2.326 . S
In91 O97 2.266 1_554 S
In91 O98 2.326 1_554 S
In91 O99 2.266 . S
In91 O100 2.326 . S
In91 O102 2.294 . S
In91 O103 2.326 . S
O92 In91 2.294 . S
O92 C101 1.240 . S
O93 In91 2.326 . S
O93 C101 1.252 . S
C94 O97 1.252 . S
C94 O98 1.260 . S
C95 O102 1.240 . S
C95 O103 1.252 . S
C96 O99 1.252 . S
C96 O100 1.260 . S
O97 In91 2.266 1_556 S
O97 C94 1.252 . S
O98 In91 2.326 1_556 S
O98 C94 1.260 . S
O99 In91 2.266 . S
O99 C96 1.252 . S
O100 In91 2.326 . S
O100 C96 1.260 . S
C101 O92 1.240 . S
C101 O93 1.252 . S
O102 In91 2.294 . S
O102 C95 1.240 . S
O103 In91 2.326 . S
O103 C95 1.252 . S
In104 O105 2.294 . S
In104 O106 2.326 . S
In104 O110 2.266 . S
In104 O111 2.326 . S
In104 O112 2.266 . S
In104 O113 2.326 . S
In104 O115 2.294 . S
In104 O116 2.326 . S
O105 In104 2.294 . S
O105 C114 1.240 . S
O106 In104 2.326 . S
O106 C114 1.252 . S
C107 O110 1.252 . S
C107 O111 1.260 . S
C108 O115 1.240 . S
C108 O116 1.252 . S
C109 O112 1.252 . S
C109 O113 1.260 . S
O110 In104 2.266 . S
O110 C107 1.252 . S
O111 In104 2.326 . S
O111 C107 1.260 . S
O112 In104 2.266 . S
O112 C109 1.252 . S
O113 In104 2.326 . S
O113 C109 1.260 . S
C114 O105 1.240 . S
C114 O106 1.252 . S
O115 In104 2.294 . S
O115 C108 1.240 . S
O116 In104 2.326 . S
O116 C108 1.252 . S
In117 O118 2.294 . S
In117 O119 2.326 . S
In117 O123 2.266 . S
In117 O124 2.326 . S
In117 O125 2.266 . S
In117 O126 2.326 . S
In117 O128 2.294 . S
In117 O129 2.326 . S
O118 In117 2.294 . S
O118 C127 1.240 . S
O119 In117 2.326 . S
O119 C127 1.252 . S
C120 O123 1.252 . S
C120 O124 1.260 . S
C121 O128 1.240 . S
C121 O129 1.252 . S
C122 O125 1.252 . S
C122 O126 1.260 . S
O123 In117 2.266 . S
O123 C120 1.252 . S
O124 In117 2.326 . S
O124 C120 1.260 . S
O125 In117 2.266 . S
O125 C122 1.252 . S
O126 In117 2.326 . S
O126 C122 1.260 . S
C127 O118 1.240 . S
C127 O119 1.252 . S
O128 In117 2.294 . S
O128 C121 1.240 . S
O129 In117 2.326 . S
O129 C121 1.252 . S
In130 O131 2.294 . S
In130 O132 2.326 . S
In130 O136 2.266 . S
In130 O137 2.326 . S
In130 O138 2.266 . S
In130 O139 2.326 . S
In130 O141 2.294 . S
In130 O142 2.326 . S
O131 In130 2.294 . S
O131 C140 1.240 . S
O132 In130 2.326 . S
O132 C140 1.252 . S
C133 O136 1.252 . S
C133 O137 1.260 . S
C134 O141 1.240 . S
C134 O142 1.252 . S
C135 O138 1.252 . S
C135 O139 1.260 . S
O136 In130 2.266 . S
O136 C133 1.252 . S
O137 In130 2.326 . S
O137 C133 1.260 . S
O138 In130 2.266 . S
O138 C135 1.252 . S
O139 In130 2.326 . S
O139 C135 1.260 . S
C140 O131 1.240 . S
C140 O132 1.252 . S
O141 In130 2.294 . S
O141 C134 1.240 . S
O142 In130 2.326 . S
O142 C134 1.252 . S
In143 O144 2.294 . S
In143 O145 2.326 . S
In143 O149 2.266 . S
In143 O150 2.326 . S
In143 O151 2.266 . S
In143 O152 2.326 . S
In143 O154 2.294 . S
In143 O155 2.326 . S
O144 In143 2.294 . S
O144 C153 1.240 . S
O145 In143 2.326 . S
O145 C153 1.252 . S
C146 O149 1.252 . S
C146 O150 1.260 . S
C147 O154 1.240 . S
C147 O155 1.252 . S
C148 O151 1.252 . S
C148 O152 1.260 . S
O149 In143 2.266 . S
O149 C146 1.252 . S
O150 In143 2.326 . S
O150 C146 1.260 . S
O151 In143 2.266 . S
O151 C148 1.252 . S
O152 In143 2.326 . S
O152 C148 1.260 . S
C153 O144 1.240 . S
C153 O145 1.252 . S
O154 In143 2.294 . S
O154 C147 1.240 . S
O155 In143 2.326 . S
O155 C147 1.252 . S
In156 O157 2.294 . S
In156 O158 2.326 . S
In156 O162 2.266 . S
In156 O163 2.326 . S
In156 O164 2.266 . S
In156 O165 2.326 . S
In156 O167 2.294 . S
In156 O168 2.326 . S
O157 In156 2.294 . S
O157 C166 1.240 . S
O158 In156 2.326 . S
O158 C166 1.252 . S
C159 O162 1.252 . S
C159 O163 1.260 . S
C160 O167 1.240 . S
C160 O168 1.252 . S
C161 O164 1.252 . S
C161 O165 1.260 . S
O162 In156 2.266 . S
O162 C159 1.252 . S
O163 In156 2.326 . S
O163 C159 1.260 . S
O164 In156 2.266 . S
O164 C161 1.252 . S
O165 In156 2.326 . S
O165 C161 1.260 . S
C166 O157 1.240 . S
C166 O158 1.252 . S
O167 In156 2.294 . S
O167 C160 1.240 . S
O168 In156 2.326 . S
O168 C160 1.252 . S
In169 O170 2.294 . S
In169 O171 2.326 . S
In169 O175 2.266 . S
In169 O176 2.326 . S
In169 O177 2.266 . S
In169 O178 2.326 . S
In169 O180 2.294 . S
In169 O181 2.326 . S
O170 In169 2.294 . S
O170 C179 1.240 . S
O171 In169 2.326 . S
O171 C179 1.252 . S
C172 O175 1.252 . S
C172 O176 1.260 . S
C173 O180 1.240 . S
C173 O181 1.252 . S
C174 O177 1.252 . S
C174 O178 1.260 . S
O175 In169 2.266 . S
O175 C172 1.252 . S
O176 In169 2.326 . S
O176 C172 1.260 . S
O177 In169 2.266 . S
O177 C174 1.252 . S
O178 In169 2.326 . S
O178 C174 1.260 . S
C179 O170 1.240 . S
C179 O171 1.252 . S
O180 In169 2.294 . S
O180 C173 1.240 . S
O181 In169 2.326 . S
O181 C173 1.252 . S
In182 O183 2.294 . S
In182 O184 2.326 . S
In182 O188 2.266 . S
In182 O189 2.326 . S
In182 O190 2.266 . S
In182 O191 2.326 . S
In182 O193 2.294 . S
In182 O194 2.326 . S
O183 In182 2.294 . S
O183 C192 1.240 . S
O184 In182 2.326 . S
O184 C192 1.252 . S
C185 O188 1.252 . S
C185 O189 1.260 . S
C186 O193 1.240 . S
C186 O194 1.252 . S
C187 O190 1.252 . S
C187 O191 1.260 . S
O188 In182 2.266 . S
O188 C185 1.252 . S
O189 In182 2.326 . S
O189 C185 1.260 . S
O190 In182 2.266 . S
O190 C187 1.252 . S
O191 In182 2.326 . S
O191 C187 1.260 . S
C192 O183 1.240 . S
C192 O184 1.252 . S
O193 In182 2.294 . S
O193 C186 1.240 . S
O194 In182 2.326 . S
O194 C186 1.252 . S
In195 O196 2.294 . S
In195 O197 2.326 . S
In195 O201 2.266 . S
In195 O202 2.326 . S
In195 O203 2.266 . S
In195 O204 2.326 . S
In195 O206 2.294 . S
In195 O207 2.326 . S
O196 In195 2.294 . S
O196 C205 1.240 . S
O197 In195 2.326 . S
O197 C205 1.252 . S
C198 O201 1.252 . S
C198 O202 1.260 . S
C199 O206 1.240 . S
C199 O207 1.252 . S
C200 O203 1.252 . S
C200 O204 1.260 . S
O201 In195 2.266 . S
O201 C198 1.252 . S
O202 In195 2.326 . S
O202 C198 1.260 . S
O203 In195 2.266 . S
O203 C200 1.252 . S
O204 In195 2.326 . S
O204 C200 1.260 . S
C205 O196 1.240 . S
C205 O197 1.252 . S
O206 In195 2.294 . S
O206 C199 1.240 . S
O207 In195 2.326 . S
O207 C199 1.252 . S
In208 O209 2.294 . S
In208 O210 2.326 . S
In208 O214 2.266 . S
In208 O215 2.326 . S
In208 O216 2.266 . S
In208 O217 2.326 . S
In208 O219 2.294 . S
In208 O220 2.326 . S
O209 In208 2.294 . S
O209 C218 1.240 . S
O210 In208 2.326 . S
O210 C218 1.252 . S
C211 O214 1.252 . S
C211 O215 1.260 . S
C212 O219 1.240 . S
C212 O220 1.252 . S
C213 O216 1.252 . S
C213 O217 1.260 . S
O214 In208 2.266 . S
O214 C211 1.252 . S
O215 In208 2.326 . S
O215 C211 1.260 . S
O216 In208 2.266 . S
O216 C213 1.252 . S
O217 In208 2.326 . S
O217 C213 1.260 . S
C218 O209 1.240 . S
C218 O210 1.252 . S
O219 In208 2.294 . S
O219 C212 1.240 . S
O220 In208 2.326 . S
O220 C212 1.252 . S
In221 O222 2.294 . S
In221 O223 2.326 . S
In221 O227 2.266 . S
In221 O228 2.326 . S
In221 O229 2.266 . S
In221 O230 2.326 . S
In221 O232 2.294 . S
In221 O233 2.326 . S
O222 In221 2.294 . S
O222 C231 1.240 . S
O223 In221 2.326 . S
O223 C231 1.252 . S
C224 O227 1.252 . S
C224 O228 1.260 . S
C225 O232 1.240 . S
C225 O233 1.252 . S
C226 O229 1.252 . S
C226 O230 1.260 . S
O227 In221 2.266 . S
O227 C224 1.252 . S
O228 In221 2.326 . S
O228 C224 1.260 . S
O229 In221 2.266 . S
O229 C226 1.252 . S
O230 In221 2.326 . S
O230 C226 1.260 . S
C231 O222 1.240 . S
C231 O223 1.252 . S
O232 In221 2.294 . S
O232 C225 1.240 . S
O233 In221 2.326 . S
O233 C225 1.252 . S
In234 O235 2.294 . S
In234 O236 2.326 . S
In234 O240 2.266 . S
In234 O241 2.326 . S
In234 O242 2.266 . S
In234 O243 2.326 . S
In234 O245 2.294 . S
In234 O246 2.326 . S
O235 In234 2.294 . S
O235 C244 1.240 . S
O236 In234 2.326 . S
O236 C244 1.252 . S
C237 O240 1.252 . S
C237 O241 1.260 . S
C238 O245 1.240 . S
C238 O246 1.252 . S
C239 O242 1.252 . S
C239 O243 1.260 . S
O240 In234 2.266 . S
O240 C237 1.252 . S
O241 In234 2.326 . S
O241 C237 1.260 . S
O242 In234 2.266 . S
O242 C239 1.252 . S
O243 In234 2.326 . S
O243 C239 1.260 . S
C244 O235 1.240 . S
C244 O236 1.252 . S
O245 In234 2.294 . S
O245 C238 1.240 . S
O246 In234 2.326 . S
O246 C238 1.252 . S
In247 O248 2.294 . S
In247 O249 2.326 . S
In247 O253 2.266 . S
In247 O254 2.326 . S
In247 O255 2.266 . S
In247 O256 2.326 . S
In247 O258 2.294 . S
In247 O259 2.326 . S
O248 In247 2.294 . S
O248 C257 1.240 . S
O249 In247 2.326 . S
O249 C257 1.252 . S
C250 O253 1.252 . S
C250 O254 1.260 . S
C251 O258 1.240 . S
C251 O259 1.252 . S
C252 O255 1.252 . S
C252 O256 1.260 . S
O253 In247 2.266 . S
O253 C250 1.252 . S
O254 In247 2.326 . S
O254 C250 1.260 . S
O255 In247 2.266 . S
O255 C252 1.252 . S
O256 In247 2.326 . S
O256 C252 1.260 . S
C257 O248 1.240 . S
C257 O249 1.252 . S
O258 In247 2.294 . S
O258 C251 1.240 . S
O259 In247 2.326 . S
O259 C251 1.252 . S
In260 O261 2.294 . S
In260 O262 2.326 . S
In260 O266 2.266 . S
In260 O267 2.326 . S
In260 O268 2.266 . S
In260 O269 2.326 . S
In260 O271 2.294 . S
In260 O272 2.326 . S
O261 In260 2.294 . S
O261 C270 1.240 . S
O262 In260 2.326 . S
O262 C270 1.252 . S
C263 O266 1.252 . S
C263 O267 1.260 . S
C264 O271 1.240 . S
C264 O272 1.252 . S
C265 O268 1.252 . S
C265 O269 1.260 . S
O266 In260 2.266 . S
O266 C263 1.252 . S
O267 In260 2.326 . S
O267 C263 1.260 . S
O268 In260 2.266 . S
O268 C265 1.252 . S
O269 In260 2.326 . S
O269 C265 1.260 . S
C270 O261 1.240 . S
C270 O262 1.252 . S
O271 In260 2.294 . S
O271 C264 1.240 . S
O272 In260 2.326 . S
O272 C264 1.252 . S
In273 O274 2.294 . S
In273 O275 2.326 . S
In273 O279 2.266 . S
In273 O280 2.326 . S
In273 O281 2.266 . S
In273 O282 2.326 . S
In273 O284 2.294 . S
In273 O285 2.326 . S
O274 In273 2.294 . S
O274 C283 1.240 . S
O275 In273 2.326 . S
O275 C283 1.252 . S
C276 O279 1.252 . S
C276 O280 1.260 . S
C277 O284 1.240 . S
C277 O285 1.252 . S
C278 O281 1.252 . S
C278 O282 1.260 . S
O279 In273 2.266 . S
O279 C276 1.252 . S
O280 In273 2.326 . S
O280 C276 1.260 . S
O281 In273 2.266 . S
O281 C278 1.252 . S
O282 In273 2.326 . S
O282 C278 1.260 . S
C283 O274 1.240 . S
C283 O275 1.252 . S
O284 In273 2.294 . S
O284 C277 1.240 . S
O285 In273 2.326 . S
O285 C277 1.252 . S
In286 O287 2.294 . S
In286 O288 2.326 . S
In286 O292 2.266 . S
In286 O293 2.326 . S
In286 O294 2.266 . S
In286 O295 2.326 . S
In286 O297 2.294 . S
In286 O298 2.326 . S
O287 In286 2.294 . S
O287 C296 1.240 . S
O288 In286 2.326 . S
O288 C296 1.252 . S
C289 O292 1.252 . S
C289 O293 1.260 . S
C290 O297 1.240 . S
C290 O298 1.252 . S
C291 O294 1.252 . S
C291 O295 1.260 . S
O292 In286 2.266 . S
O292 C289 1.252 . S
O293 In286 2.326 . S
O293 C289 1.260 . S
O294 In286 2.266 . S
O294 C291 1.252 . S
O295 In286 2.326 . S
O295 C291 1.260 . S
C296 O287 1.240 . S
C296 O288 1.252 . S
O297 In286 2.294 . S
O297 C290 1.240 . S
O298 In286 2.326 . S
O298 C290 1.252 . S
In299 O300 2.294 . S
In299 O301 2.326 . S
In299 O305 2.266 . S
In299 O306 2.326 . S
In299 O307 2.266 . S
In299 O308 2.326 . S
In299 O310 2.294 . S
In299 O311 2.326 . S
O300 In299 2.294 . S
O300 C309 1.240 . S
O301 In299 2.326 . S
O301 C309 1.252 . S
C302 O305 1.252 . S
C302 O306 1.260 . S
C303 O310 1.240 . S
C303 O311 1.252 . S
C304 O307 1.252 . S
C304 O308 1.260 . S
O305 In299 2.266 . S
O305 C302 1.252 . S
O306 In299 2.326 . S
O306 C302 1.260 . S
O307 In299 2.266 . S
O307 C304 1.252 . S
O308 In299 2.326 . S
O308 C304 1.260 . S
C309 O300 1.240 . S
C309 O301 1.252 . S
O310 In299 2.294 . S
O310 C303 1.240 . S
O311 In299 2.326 . S
O311 C303 1.252 . S
In312 O313 2.294 . S
In312 O314 2.326 . S
In312 O318 2.266 . S
In312 O319 2.326 . S
In312 O320 2.266 . S
In312 O321 2.326 . S
In312 O323 2.294 . S
In312 O324 2.326 . S
O313 In312 2.294 . S
O313 C322 1.240 . S
O314 In312 2.326 . S
O314 C322 1.252 . S
C315 O318 1.252 . S
C315 O319 1.260 . S
C316 O323 1.240 . S
C316 O324 1.252 . S
C317 O320 1.252 . S
C317 O321 1.260 . S
O318 In312 2.266 . S
O318 C315 1.252 . S
O319 In312 2.326 . S
O319 C315 1.260 . S
O320 In312 2.266 . S
O320 C317 1.252 . S
O321 In312 2.326 . S
O321 C317 1.260 . S
C322 O313 1.240 . S
C322 O314 1.252 . S
O323 In312 2.294 . S
O323 C316 1.240 . S
O324 In312 2.326 . S
O324 C316 1.252 . S
In325 O326 2.294 . S
In325 O327 2.326 . S
In325 O331 2.266 . S
In325 O332 2.326 . S
In325 O333 2.266 . S
In325 O334 2.326 . S
In325 O336 2.294 . S
In325 O337 2.326 . S
O326 In325 2.294 . S
O326 C335 1.240 . S
O327 In325 2.326 . S
O327 C335 1.252 . S
C328 O331 1.252 . S
C328 O332 1.260 . S
C329 O336 1.240 . S
C329 O337 1.252 . S
C330 O333 1.252 . S
C330 O334 1.260 . S
O331 In325 2.266 . S
O331 C328 1.252 . S
O332 In325 2.326 . S
O332 C328 1.260 . S
O333 In325 2.266 . S
O333 C330 1.252 . S
O334 In325 2.326 . S
O334 C330 1.260 . S
C335 O326 1.240 . S
C335 O327 1.252 . S
O336 In325 2.294 . S
O336 C329 1.240 . S
O337 In325 2.326 . S
O337 C329 1.252 . S
In338 O339 2.294 . S
In338 O340 2.326 . S
In338 O344 2.266 1_556 S
In338 O345 2.326 1_556 S
In338 O346 2.266 . S
In338 O347 2.326 . S
In338 O349 2.294 . S
In338 O350 2.326 . S
O339 In338 2.294 . S
O339 C348 1.240 . S
O340 In338 2.326 . S
O340 C348 1.252 . S
C341 O344 1.252 . S
C341 O345 1.260 . S
C342 O349 1.240 . S
C342 O350 1.252 . S
C343 O346 1.252 . S
C343 O347 1.260 . S
O344 In338 2.266 1_554 S
O344 C341 1.252 . S
O345 In338 2.326 1_554 S
O345 C341 1.260 . S
O346 In338 2.266 . S
O346 C343 1.252 . S
O347 In338 2.326 . S
O347 C343 1.260 . S
C348 O339 1.240 . S
C348 O340 1.252 . S
O349 In338 2.294 . S
O349 C342 1.240 . S
O350 In338 2.326 . S
O350 C342 1.252 . S
In351 O352 2.294 . S
In351 O353 2.326 . S
In351 O357 2.266 1_556 S
In351 O358 2.326 1_556 S
In351 O359 2.266 . S
In351 O360 2.326 . S
In351 O362 2.294 . S
In351 O363 2.326 . S
O352 In351 2.294 . S
O352 C361 1.240 . S
O353 In351 2.326 . S
O353 C361 1.252 . S
C354 O357 1.252 . S
C354 O358 1.260 . S
C355 O362 1.240 . S
C355 O363 1.252 . S
C356 O359 1.252 . S
C356 O360 1.260 . S
O357 In351 2.266 1_554 S
O357 C354 1.252 . S
O358 In351 2.326 1_554 S
O358 C354 1.260 . S
O359 In351 2.266 . S
O359 C356 1.252 . S
O360 In351 2.326 . S
O360 C356 1.260 . S
C361 O352 1.240 . S
C361 O353 1.252 . S
O362 In351 2.294 . S
O362 C355 1.240 . S
O363 In351 2.326 . S
O363 C355 1.252 . S
In364 O365 2.294 . S
In364 O366 2.326 . S
In364 O370 2.266 . S
In364 O371 2.326 . S
In364 O372 2.266 . S
In364 O373 2.326 . S
In364 O375 2.294 . S
In364 O376 2.326 . S
O365 In364 2.294 . S
O365 C374 1.240 . S
O366 In364 2.326 . S
O366 C374 1.252 . S
C367 O370 1.252 . S
C367 O371 1.260 . S
C368 O375 1.240 . S
C368 O376 1.252 . S
C369 O372 1.252 . S
C369 O373 1.260 . S
O370 In364 2.266 . S
O370 C367 1.252 . S
O371 In364 2.326 . S
O371 C367 1.260 . S
O372 In364 2.266 . S
O372 C369 1.252 . S
O373 In364 2.326 . S
O373 C369 1.260 . S
C374 O365 1.240 . S
C374 O366 1.252 . S
O375 In364 2.294 . S
O375 C368 1.240 . S
O376 In364 2.326 . S
O376 C368 1.252 . S
In377 O378 2.294 . S
In377 O379 2.326 . S
In377 O383 2.266 . S
In377 O384 2.326 . S
In377 O385 2.266 . S
In377 O386 2.326 . S
In377 O388 2.294 . S
In377 O389 2.326 . S
O378 In377 2.294 . S
O378 C387 1.240 . S
O379 In377 2.326 . S
O379 C387 1.252 . S
C380 O383 1.252 . S
C380 O384 1.260 . S
C381 O388 1.240 . S
C381 O389 1.252 . S
C382 O385 1.252 . S
C382 O386 1.260 . S
O383 In377 2.266 . S
O383 C380 1.252 . S
O384 In377 2.326 . S
O384 C380 1.260 . S
O385 In377 2.266 . S
O385 C382 1.252 . S
O386 In377 2.326 . S
O386 C382 1.260 . S
C387 O378 1.240 . S
C387 O379 1.252 . S
O388 In377 2.294 . S
O388 C381 1.240 . S
O389 In377 2.326 . S
O389 C381 1.252 . S
In390 O391 2.294 . S
In390 O392 2.326 . S
In390 O396 2.266 1_554 S
In390 O397 2.326 1_554 S
In390 O398 2.266 . S
In390 O399 2.326 . S
In390 O401 2.294 . S
In390 O402 2.326 . S
O391 In390 2.294 . S
O391 C400 1.240 . S
O392 In390 2.326 . S
O392 C400 1.252 . S
C393 O396 1.252 . S
C393 O397 1.260 . S
C394 O401 1.240 . S
C394 O402 1.252 . S
C395 O398 1.252 . S
C395 O399 1.260 . S
O396 In390 2.266 1_556 S
O396 C393 1.252 . S
O397 In390 2.326 1_556 S
O397 C393 1.260 . S
O398 In390 2.266 . S
O398 C395 1.252 . S
O399 In390 2.326 . S
O399 C395 1.260 . S
C400 O391 1.240 . S
C400 O392 1.252 . S
O401 In390 2.294 . S
O401 C394 1.240 . S
O402 In390 2.326 . S
O402 C394 1.252 . S
In403 O404 2.294 . S
In403 O405 2.326 . S
In403 O409 2.266 . S
In403 O410 2.326 . S
In403 O411 2.266 1_554 S
In403 O412 2.326 1_554 S
In403 O414 2.294 . S
In403 O415 2.326 . S
O404 In403 2.294 . S
O404 C413 1.240 . S
O405 In403 2.326 . S
O405 C413 1.252 . S
C406 O409 1.252 . S
C406 O410 1.260 . S
C407 O414 1.240 . S
C407 O415 1.252 . S
C408 O411 1.252 . S
C408 O412 1.260 . S
O409 In403 2.266 . S
O409 C406 1.252 . S
O410 In403 2.326 . S
O410 C406 1.260 . S
O411 In403 2.266 1_556 S
O411 C408 1.252 . S
O412 In403 2.326 1_556 S
O412 C408 1.260 . S
C413 O404 1.240 . S
C413 O405 1.252 . S
O414 In403 2.294 . S
O414 C407 1.240 . S
O415 In403 2.326 . S
O415 C407 1.252 . S
H416 C424 0.929 . S
H417 C426 0.930 . S
H418 C428 0.930 . S
H419 C431 0.929 . S
H420 C434 0.930 . S
H421 C436 0.960 . S
H422 C436 0.960 . S
H423 C436 0.960 . S
C424 H416 0.929 . S
C424 C425 1.377 . S
C424 C426 1.384 . S
C425 C424 1.377 . S
C425 C431 1.390 . S
C426 H417 0.930 . S
C426 C424 1.384 . S
C426 C427 1.372 . S
C427 C426 1.372 . S
C427 C428 1.400 . S
C427 C432 1.490 . S
C428 H418 0.930 . S
C428 C427 1.400 . S
C428 C431 1.386 . S
H429 C445 0.930 . S
H430 C446 0.931 . S
C431 H419 0.929 . S
C431 C425 1.390 . S
C431 C428 1.386 . S
C432 C427 1.490 . S
C432 C434 1.395 . S
C432 C435 1.403 . S
H433 C439 0.930 . S
C434 H420 0.930 . S
C434 C432 1.395 . S
C434 C437 1.403 . S
C435 C432 1.403 . S
C435 C436 1.524 . S
C435 C439 1.400 . S
C436 H421 0.960 . S
C436 H422 0.960 . S
C436 H423 0.960 . S
C436 C435 1.524 . S
C437 C434 1.403 . S
C437 C438 1.392 . S
C437 C441 1.495 . S
C438 C437 1.392 . S
C438 C439 1.385 . S
C438 C440 1.478 . S
C439 H433 0.930 . S
C439 C435 1.400 . S
C439 C438 1.385 . S
C440 C438 1.478 . S
C440 C442 1.381 . S
C440 C446 1.383 . S
C441 C437 1.495 . S
C441 H447 0.959 . S
C441 H448 0.961 . S
C441 H449 0.960 . S
C442 C440 1.381 . S
C442 C443 1.394 . S
C442 H450 0.930 . S
C443 C442 1.394 . S
C443 C444 1.383 . S
C443 H451 0.929 . S
C444 C443 1.383 . S
C444 C445 1.377 . S
C445 H429 0.930 . S
C445 C444 1.377 . S
C445 C446 1.379 . S
C446 H430 0.931 . S
C446 C440 1.383 . S
C446 C445 1.379 . S
H447 C441 0.959 . S
H448 C441 0.961 . S
H449 C441 0.960 . S
H450 C442 0.930 . S
H451 C443 0.929 . S
H452 C460 0.929 . S
H453 C462 0.930 . S
H454 C464 0.930 . S
H455 C467 0.929 . S
H456 C470 0.930 . S
H457 C472 0.960 . S
H458 C472 0.960 . S
H459 C472 0.960 . S
C460 H452 0.929 . S
C460 C461 1.377 . S
C460 C462 1.384 . S
C461 C460 1.377 . S
C461 C467 1.390 . S
C462 H453 0.930 . S
C462 C460 1.384 . S
C462 C463 1.372 . S
C463 C462 1.372 . S
C463 C464 1.400 . S
C463 C468 1.490 . S
C464 H454 0.930 . S
C464 C463 1.400 . S
C464 C467 1.386 . S
H465 C481 0.930 . S
H466 C482 0.931 . S
C467 H455 0.929 . S
C467 C461 1.390 . S
C467 C464 1.386 . S
C468 C463 1.490 . S
C468 C470 1.395 . S
C468 C471 1.403 . S
H469 C475 0.930 . S
C470 H456 0.930 . S
C470 C468 1.395 . S
C470 C473 1.403 . S
C471 C468 1.403 . S
C471 C472 1.524 . S
C471 C475 1.400 . S
C472 H457 0.960 . S
C472 H458 0.960 . S
C472 H459 0.960 . S
C472 C471 1.524 . S
C473 C470 1.403 . S
C473 C474 1.392 . S
C473 C477 1.495 . S
C474 C473 1.392 . S
C474 C475 1.385 . S
C474 C476 1.478 . S
C475 H469 0.930 . S
C475 C471 1.400 . S
C475 C474 1.385 . S
C476 C474 1.478 . S
C476 C478 1.381 . S
C476 C482 1.383 . S
C477 C473 1.495 . S
C477 H483 0.959 . S
C477 H484 0.961 . S
C477 H485 0.960 . S
C478 C476 1.381 . S
C478 C479 1.394 . S
C478 H486 0.930 . S
C479 C478 1.394 . S
C479 C480 1.383 . S
C479 H487 0.929 . S
C480 C479 1.383 . S
C480 C481 1.377 . S
C481 H465 0.930 . S
C481 C480 1.377 . S
C481 C482 1.379 . S
C482 H466 0.931 . S
C482 C476 1.383 . S
C482 C481 1.379 . S
H483 C477 0.959 . S
H484 C477 0.961 . S
H485 C477 0.960 . S
H486 C478 0.930 . S
H487 C479 0.929 . S
H488 C496 0.929 . S
H489 C498 0.930 . S
H490 C500 0.930 . S
H491 C503 0.929 . S
H492 C506 0.930 . S
H493 C508 0.960 . S
H494 C508 0.960 . S
H495 C508 0.960 . S
C496 H488 0.929 . S
C496 C497 1.377 . S
C496 C498 1.384 . S
C497 C496 1.377 . S
C497 C503 1.390 . S
C498 H489 0.930 . S
C498 C496 1.384 . S
C498 C499 1.372 . S
C499 C498 1.372 . S
C499 C500 1.400 . S
C499 C504 1.490 . S
C500 H490 0.930 . S
C500 C499 1.400 . S
C500 C503 1.386 . S
H501 C517 0.930 . S
H502 C518 0.931 . S
C503 H491 0.929 . S
C503 C497 1.390 . S
C503 C500 1.386 . S
C504 C499 1.490 . S
C504 C506 1.395 . S
C504 C507 1.403 . S
H505 C511 0.930 . S
C506 H492 0.930 . S
C506 C504 1.395 . S
C506 C509 1.403 . S
C507 C504 1.403 . S
C507 C508 1.524 . S
C507 C511 1.400 . S
C508 H493 0.960 . S
C508 H494 0.960 . S
C508 H495 0.960 . S
C508 C507 1.524 . S
C509 C506 1.403 . S
C509 C510 1.392 . S
C509 C513 1.495 . S
C510 C509 1.392 . S
C510 C511 1.385 . S
C510 C512 1.478 . S
C511 H505 0.930 . S
C511 C507 1.400 . S
C511 C510 1.385 . S
C512 C510 1.478 . S
C512 C514 1.381 . S
C512 C518 1.383 . S
C513 C509 1.495 . S
C513 H519 0.959 . S
C513 H520 0.961 . S
C513 H521 0.960 . S
C514 C512 1.381 . S
C514 C515 1.394 . S
C514 H522 0.930 . S
C515 C514 1.394 . S
C515 C516 1.383 . S
C515 H523 0.929 . S
C516 C515 1.383 . S
C516 C517 1.377 . S
C517 H501 0.930 . S
C517 C516 1.377 . S
C517 C518 1.379 . S
C518 H502 0.931 . S
C518 C512 1.383 . S
C518 C517 1.379 . S
H519 C513 0.959 . S
H520 C513 0.961 . S
H521 C513 0.960 . S
H522 C514 0.930 . S
H523 C515 0.929 . S
H524 C532 0.929 . S
H525 C534 0.930 . S
H526 C536 0.930 . S
H527 C539 0.929 . S
H528 C542 0.930 . S
H529 C544 0.960 . S
H530 C544 0.960 . S
H531 C544 0.960 . S
C532 H524 0.929 . S
C532 C533 1.377 . S
C532 C534 1.384 . S
C533 C532 1.377 . S
C533 C539 1.390 . S
C534 H525 0.930 . S
C534 C532 1.384 . S
C534 C535 1.372 . S
C535 C534 1.372 . S
C535 C536 1.400 . S
C535 C540 1.490 . S
C536 H526 0.930 . S
C536 C535 1.400 . S
C536 C539 1.386 . S
H537 C553 0.930 . S
H538 C554 0.931 . S
C539 H527 0.929 . S
C539 C533 1.390 . S
C539 C536 1.386 . S
C540 C535 1.490 . S
C540 C542 1.395 . S
C540 C543 1.403 . S
H541 C547 0.930 . S
C542 H528 0.930 . S
C542 C540 1.395 . S
C542 C545 1.403 . S
C543 C540 1.403 . S
C543 C544 1.524 . S
C543 C547 1.400 . S
C544 H529 0.960 . S
C544 H530 0.960 . S
C544 H531 0.960 . S
C544 C543 1.524 . S
C545 C542 1.403 . S
C545 C546 1.392 . S
C545 C549 1.495 . S
C546 C545 1.392 . S
C546 C547 1.385 . S
C546 C548 1.478 . S
C547 H541 0.930 . S
C547 C543 1.400 . S
C547 C546 1.385 . S
C548 C546 1.478 . S
C548 C550 1.381 . S
C548 C554 1.383 . S
C549 C545 1.495 . S
C549 H555 0.959 . S
C549 H556 0.961 . S
C549 H557 0.960 . S
C550 C548 1.381 . S
C550 C551 1.394 . S
C550 H558 0.930 . S
C551 C550 1.394 . S
C551 C552 1.383 . S
C551 H559 0.929 . S
C552 C551 1.383 . S
C552 C553 1.377 . S
C553 H537 0.930 . S
C553 C552 1.377 . S
C553 C554 1.379 . S
C554 H538 0.931 . S
C554 C548 1.383 . S
C554 C553 1.379 . S
H555 C549 0.959 . S
H556 C549 0.961 . S
H557 C549 0.960 . S
H558 C550 0.930 . S
H559 C551 0.929 . S
H560 C568 0.929 . S
H561 C570 0.930 . S
H562 C572 0.930 . S
H563 C575 0.929 . S
H564 C578 0.930 . S
H565 C580 0.960 . S
H566 C580 0.960 . S
H567 C580 0.960 . S
C568 H560 0.929 . S
C568 C569 1.377 . S
C568 C570 1.384 . S
C569 C568 1.377 . S
C569 C575 1.390 . S
C570 H561 0.930 . S
C570 C568 1.384 . S
C570 C571 1.372 . S
C571 C570 1.372 . S
C571 C572 1.400 . S
C571 C576 1.490 . S
C572 H562 0.930 . S
C572 C571 1.400 . S
C572 C575 1.386 . S
H573 C589 0.930 . S
H574 C590 0.931 . S
C575 H563 0.929 . S
C575 C569 1.390 . S
C575 C572 1.386 . S
C576 C571 1.490 . S
C576 C578 1.395 . S
C576 C579 1.403 . S
H577 C583 0.930 . S
C578 H564 0.930 . S
C578 C576 1.395 . S
C578 C581 1.403 . S
C579 C576 1.403 . S
C579 C580 1.524 . S
C579 C583 1.400 . S
C580 H565 0.960 . S
C580 H566 0.960 . S
C580 H567 0.960 . S
C580 C579 1.524 . S
C581 C578 1.403 . S
C581 C582 1.392 . S
C581 C585 1.495 . S
C582 C581 1.392 . S
C582 C583 1.385 . S
C582 C584 1.478 . S
C583 H577 0.930 . S
C583 C579 1.400 . S
C583 C582 1.385 . S
C584 C582 1.478 . S
C584 C586 1.381 . S
C584 C590 1.383 . S
C585 C581 1.495 . S
C585 H591 0.959 . S
C585 H592 0.961 . S
C585 H593 0.960 . S
C586 C584 1.381 . S
C586 C587 1.394 . S
C586 H594 0.930 . S
C587 C586 1.394 . S
C587 C588 1.383 . S
C587 H595 0.929 . S
C588 C587 1.383 . S
C588 C589 1.377 . S
C589 H573 0.930 . S
C589 C588 1.377 . S
C589 C590 1.379 . S
C590 H574 0.931 . S
C590 C584 1.383 . S
C590 C589 1.379 . S
H591 C585 0.959 . S
H592 C585 0.961 . S
H593 C585 0.960 . S
H594 C586 0.930 . S
H595 C587 0.929 . S
H596 C604 0.929 . S
H597 C606 0.930 . S
H598 C608 0.930 . S
H599 C611 0.929 . S
H600 C614 0.930 . S
H601 C616 0.960 . S
H602 C616 0.960 . S
H603 C616 0.960 . S
C604 H596 0.929 . S
C604 C605 1.377 . S
C604 C606 1.384 . S
C605 C604 1.377 . S
C605 C611 1.390 . S
C606 H597 0.930 . S
C606 C604 1.384 . S
C606 C607 1.372 . S
C607 C606 1.372 . S
C607 C608 1.400 . S
C607 C612 1.490 . S
C608 H598 0.930 . S
C608 C607 1.400 . S
C608 C611 1.386 . S
H609 C625 0.930 . S
H610 C626 0.931 . S
C611 H599 0.929 . S
C611 C605 1.390 . S
C611 C608 1.386 . S
C612 C607 1.490 . S
C612 C614 1.395 . S
C612 C615 1.403 . S
H613 C619 0.930 . S
C614 H600 0.930 . S
C614 C612 1.395 . S
C614 C617 1.403 . S
C615 C612 1.403 . S
C615 C616 1.524 . S
C615 C619 1.400 . S
C616 H601 0.960 . S
C616 H602 0.960 . S
C616 H603 0.960 . S
C616 C615 1.524 . S
C617 C614 1.403 . S
C617 C618 1.392 . S
C617 C621 1.495 . S
C618 C617 1.392 . S
C618 C619 1.385 . S
C618 C620 1.478 . S
C619 H613 0.930 . S
C619 C615 1.400 . S
C619 C618 1.385 . S
C620 C618 1.478 . S
C620 C622 1.381 . S
C620 C626 1.383 . S
C621 C617 1.495 . S
C621 H627 0.959 . S
C621 H628 0.961 . S
C621 H629 0.960 . S
C622 C620 1.381 . S
C622 C623 1.394 . S
C622 H630 0.930 . S
C623 C622 1.394 . S
C623 C624 1.383 . S
C623 H631 0.929 . S
C624 C623 1.383 . S
C624 C625 1.377 . S
C625 H609 0.930 . S
C625 C624 1.377 . S
C625 C626 1.379 . S
C626 H610 0.931 . S
C626 C620 1.383 . S
C626 C625 1.379 . S
H627 C621 0.959 . S
H628 C621 0.961 . S
H629 C621 0.960 . S
H630 C622 0.930 . S
H631 C623 0.929 . S
H632 C640 0.929 . S
H633 C642 0.930 . S
H634 C644 0.930 . S
H635 C647 0.929 . S
H636 C650 0.930 . S
H637 C652 0.960 . S
H638 C652 0.960 . S
H639 C652 0.960 . S
C640 H632 0.929 . S
C640 C641 1.377 . S
C640 C642 1.384 . S
C641 C640 1.377 . S
C641 C647 1.390 . S
C642 H633 0.930 . S
C642 C640 1.384 . S
C642 C643 1.372 . S
C643 C642 1.372 . S
C643 C644 1.400 . S
C643 C648 1.490 . S
C644 H634 0.930 . S
C644 C643 1.400 . S
C644 C647 1.386 . S
H645 C661 0.930 . S
H646 C662 0.931 . S
C647 H635 0.929 . S
C647 C641 1.390 . S
C647 C644 1.386 . S
C648 C643 1.490 . S
C648 C650 1.395 . S
C648 C651 1.403 . S
H649 C655 0.930 . S
C650 H636 0.930 . S
C650 C648 1.395 . S
C650 C653 1.403 . S
C651 C648 1.403 . S
C651 C652 1.524 . S
C651 C655 1.400 . S
C652 H637 0.960 . S
C652 H638 0.960 . S
C652 H639 0.960 . S
C652 C651 1.524 . S
C653 C650 1.403 . S
C653 C654 1.392 . S
C653 C657 1.495 . S
C654 C653 1.392 . S
C654 C655 1.385 . S
C654 C656 1.478 . S
C655 H649 0.930 . S
C655 C651 1.400 . S
C655 C654 1.385 . S
C656 C654 1.478 . S
C656 C658 1.381 . S
C656 C662 1.383 . S
C657 C653 1.495 . S
C657 H663 0.959 . S
C657 H664 0.961 . S
C657 H665 0.960 . S
C658 C656 1.381 . S
C658 C659 1.394 . S
C658 H666 0.930 . S
C659 C658 1.394 . S
C659 C660 1.383 . S
C659 H667 0.929 . S
C660 C659 1.383 . S
C660 C661 1.377 . S
C661 H645 0.930 . S
C661 C660 1.377 . S
C661 C662 1.379 . S
C662 H646 0.931 . S
C662 C656 1.383 . S
C662 C661 1.379 . S
H663 C657 0.959 . S
H664 C657 0.961 . S
H665 C657 0.960 . S
H666 C658 0.930 . S
H667 C659 0.929 . S
H668 C676 0.929 . S
H669 C678 0.930 . S
H670 C680 0.930 . S
H671 C683 0.929 . S
H672 C686 0.930 . S
H673 C688 0.960 . S
H674 C688 0.960 . S
H675 C688 0.960 . S
C676 H668 0.929 . S
C676 C677 1.377 . S
C676 C678 1.384 . S
C677 C676 1.377 . S
C677 C683 1.390 . S
C678 H669 0.930 . S
C678 C676 1.384 . S
C678 C679 1.372 . S
C679 C678 1.372 . S
C679 C680 1.400 . S
C679 C684 1.490 . S
C680 H670 0.930 . S
C680 C679 1.400 . S
C680 C683 1.386 . S
H681 C697 0.930 . S
H682 C698 0.931 . S
C683 H671 0.929 . S
C683 C677 1.390 . S
C683 C680 1.386 . S
C684 C679 1.490 . S
C684 C686 1.395 . S
C684 C687 1.403 . S
H685 C691 0.930 . S
C686 H672 0.930 . S
C686 C684 1.395 . S
C686 C689 1.403 . S
C687 C684 1.403 . S
C687 C688 1.524 . S
C687 C691 1.400 . S
C688 H673 0.960 . S
C688 H674 0.960 . S
C688 H675 0.960 . S
C688 C687 1.524 . S
C689 C686 1.403 . S
C689 C690 1.392 . S
C689 C693 1.495 . S
C690 C689 1.392 . S
C690 C691 1.385 . S
C690 C692 1.478 . S
C691 H685 0.930 . S
C691 C687 1.400 . S
C691 C690 1.385 . S
C692 C690 1.478 . S
C692 C694 1.381 . S
C692 C698 1.383 . S
C693 C689 1.495 . S
C693 H699 0.959 . S
C693 H700 0.961 . S
C693 H701 0.960 . S
C694 C692 1.381 . S
C694 C695 1.394 . S
C694 H702 0.930 . S
C695 C694 1.394 . S
C695 C696 1.383 . S
C695 H703 0.929 . S
C696 C695 1.383 . S
C696 C697 1.377 . S
C697 H681 0.930 . S
C697 C696 1.377 . S
C697 C698 1.379 . S
C698 H682 0.931 . S
C698 C692 1.383 . S
C698 C697 1.379 . S
H699 C693 0.959 . S
H700 C693 0.961 . S
H701 C693 0.960 . S
H702 C694 0.930 . S
H703 C695 0.929 . S
H704 C712 0.929 . S
H705 C714 0.930 . S
H706 C716 0.930 . S
H707 C719 0.929 . S
H708 C722 0.930 . S
H709 C724 0.960 . S
H710 C724 0.960 . S
H711 C724 0.960 . S
C712 H704 0.929 . S
C712 C713 1.377 . S
C712 C714 1.384 . S
C713 C712 1.377 . S
C713 C719 1.390 . S
C714 H705 0.930 . S
C714 C712 1.384 . S
C714 C715 1.372 . S
C715 C714 1.372 . S
C715 C716 1.400 . S
C715 C720 1.490 . S
C716 H706 0.930 . S
C716 C715 1.400 . S
C716 C719 1.386 . S
H717 C733 0.930 . S
H718 C734 0.931 . S
C719 H707 0.929 . S
C719 C713 1.390 . S
C719 C716 1.386 . S
C720 C715 1.490 . S
C720 C722 1.395 . S
C720 C723 1.403 . S
H721 C727 0.930 . S
C722 H708 0.930 . S
C722 C720 1.395 . S
C722 C725 1.403 . S
C723 C720 1.403 . S
C723 C724 1.524 . S
C723 C727 1.400 . S
C724 H709 0.960 . S
C724 H710 0.960 . S
C724 H711 0.960 . S
C724 C723 1.524 . S
C725 C722 1.403 . S
C725 C726 1.392 . S
C725 C729 1.495 . S
C726 C725 1.392 . S
C726 C727 1.385 . S
C726 C728 1.478 . S
C727 H721 0.930 . S
C727 C723 1.400 . S
C727 C726 1.385 . S
C728 C726 1.478 . S
C728 C730 1.381 . S
C728 C734 1.383 . S
C729 C725 1.495 . S
C729 H735 0.959 . S
C729 H736 0.961 . S
C729 H737 0.960 . S
C730 C728 1.381 . S
C730 C731 1.394 . S
C730 H738 0.930 . S
C731 C730 1.394 . S
C731 C732 1.383 . S
C731 H739 0.929 . S
C732 C731 1.383 . S
C732 C733 1.377 . S
C733 H717 0.930 . S
C733 C732 1.377 . S
C733 C734 1.379 . S
C734 H718 0.931 . S
C734 C728 1.383 . S
C734 C733 1.379 . S
H735 C729 0.959 . S
H736 C729 0.961 . S
H737 C729 0.960 . S
H738 C730 0.930 . S
H739 C731 0.929 . S
H740 C748 0.929 . S
H741 C750 0.930 . S
H742 C752 0.930 . S
H743 C755 0.929 . S
H744 C758 0.930 . S
H745 C760 0.960 . S
H746 C760 0.960 . S
H747 C760 0.960 . S
C748 H740 0.929 . S
C748 C749 1.377 . S
C748 C750 1.384 . S
C749 C748 1.377 . S
C749 C755 1.390 . S
C750 H741 0.930 . S
C750 C748 1.384 . S
C750 C751 1.372 . S
C751 C750 1.372 . S
C751 C752 1.400 . S
C751 C756 1.490 . S
C752 H742 0.930 . S
C752 C751 1.400 . S
C752 C755 1.386 . S
H753 C769 0.930 . S
H754 C770 0.931 . S
C755 H743 0.929 . S
C755 C749 1.390 . S
C755 C752 1.386 . S
C756 C751 1.490 . S
C756 C758 1.395 . S
C756 C759 1.403 . S
H757 C763 0.930 . S
C758 H744 0.930 . S
C758 C756 1.395 . S
C758 C761 1.403 . S
C759 C756 1.403 . S
C759 C760 1.524 . S
C759 C763 1.400 . S
C760 H745 0.960 . S
C760 H746 0.960 . S
C760 H747 0.960 . S
C760 C759 1.524 . S
C761 C758 1.403 . S
C761 C762 1.392 . S
C761 C765 1.495 . S
C762 C761 1.392 . S
C762 C763 1.385 . S
C762 C764 1.478 . S
C763 H757 0.930 . S
C763 C759 1.400 . S
C763 C762 1.385 . S
C764 C762 1.478 . S
C764 C766 1.381 . S
C764 C770 1.383 . S
C765 C761 1.495 . S
C765 H771 0.959 . S
C765 H772 0.961 . S
C765 H773 0.960 . S
C766 C764 1.381 . S
C766 C767 1.394 . S
C766 H774 0.930 . S
C767 C766 1.394 . S
C767 C768 1.383 . S
C767 H775 0.929 . S
C768 C767 1.383 . S
C768 C769 1.377 . S
C769 H753 0.930 . S
C769 C768 1.377 . S
C769 C770 1.379 . S
C770 H754 0.931 . S
C770 C764 1.383 . S
C770 C769 1.379 . S
H771 C765 0.959 . S
H772 C765 0.961 . S
H773 C765 0.960 . S
H774 C766 0.930 . S
H775 C767 0.929 . S
H776 C784 0.929 . S
H777 C786 0.930 . S
H778 C788 0.930 . S
H779 C791 0.929 . S
H780 C794 0.930 . S
H781 C796 0.960 . S
H782 C796 0.960 . S
H783 C796 0.960 . S
C784 H776 0.929 . S
C784 C785 1.377 . S
C784 C786 1.384 . S
C785 C784 1.377 . S
C785 C791 1.390 . S
C786 H777 0.930 . S
C786 C784 1.384 . S
C786 C787 1.372 . S
C787 C786 1.372 . S
C787 C788 1.400 . S
C787 C792 1.490 . S
C788 H778 0.930 . S
C788 C787 1.400 . S
C788 C791 1.386 . S
H789 C805 0.930 . S
H790 C806 0.931 . S
C791 H779 0.929 . S
C791 C785 1.390 . S
C791 C788 1.386 . S
C792 C787 1.490 . S
C792 C794 1.395 . S
C792 C795 1.403 . S
H793 C799 0.930 . S
C794 H780 0.930 . S
C794 C792 1.395 . S
C794 C797 1.403 . S
C795 C792 1.403 . S
C795 C796 1.524 . S
C795 C799 1.400 . S
C796 H781 0.960 . S
C796 H782 0.960 . S
C796 H783 0.960 . S
C796 C795 1.524 . S
C797 C794 1.403 . S
C797 C798 1.392 . S
C797 C801 1.495 . S
C798 C797 1.392 . S
C798 C799 1.385 . S
C798 C800 1.478 . S
C799 H793 0.930 . S
C799 C795 1.400 . S
C799 C798 1.385 . S
C800 C798 1.478 . S
C800 C802 1.381 . S
C800 C806 1.383 . S
C801 C797 1.495 . S
C801 H807 0.959 . S
C801 H808 0.961 . S
C801 H809 0.960 . S
C802 C800 1.381 . S
C802 C803 1.394 . S
C802 H810 0.930 . S
C803 C802 1.394 . S
C803 C804 1.383 . S
C803 H811 0.929 . S
C804 C803 1.383 . S
C804 C805 1.377 . S
C805 H789 0.930 . S
C805 C804 1.377 . S
C805 C806 1.379 . S
C806 H790 0.931 . S
C806 C800 1.383 . S
C806 C805 1.379 . S
H807 C801 0.959 . S
H808 C801 0.961 . S
H809 C801 0.960 . S
H810 C802 0.930 . S
H811 C803 0.929 . S
H812 C820 0.929 . S
H813 C822 0.930 . S
H814 C824 0.930 . S
H815 C827 0.929 . S
H816 C830 0.930 . S
H817 C832 0.960 . S
H818 C832 0.960 . S
H819 C832 0.960 . S
C820 H812 0.929 . S
C820 C821 1.377 . S
C820 C822 1.384 . S
C821 C820 1.377 . S
C821 C827 1.390 . S
C822 H813 0.930 . S
C822 C820 1.384 . S
C822 C823 1.372 . S
C823 C822 1.372 . S
C823 C824 1.400 . S
C823 C828 1.490 . S
C824 H814 0.930 . S
C824 C823 1.400 . S
C824 C827 1.386 . S
H825 C841 0.930 . S
H826 C842 0.931 . S
C827 H815 0.929 . S
C827 C821 1.390 . S
C827 C824 1.386 . S
C828 C823 1.490 . S
C828 C830 1.395 . S
C828 C831 1.403 . S
H829 C835 0.930 . S
C830 H816 0.930 . S
C830 C828 1.395 . S
C830 C833 1.403 . S
C831 C828 1.403 . S
C831 C832 1.524 . S
C831 C835 1.400 . S
C832 H817 0.960 . S
C832 H818 0.960 . S
C832 H819 0.960 . S
C832 C831 1.524 . S
C833 C830 1.403 . S
C833 C834 1.392 . S
C833 C837 1.495 . S
C834 C833 1.392 . S
C834 C835 1.385 . S
C834 C836 1.478 . S
C835 H829 0.930 . S
C835 C831 1.400 . S
C835 C834 1.385 . S
C836 C834 1.478 . S
C836 C838 1.381 . S
C836 C842 1.383 . S
C837 C833 1.495 . S
C837 H843 0.959 . S
C837 H844 0.961 . S
C837 H845 0.960 . S
C838 C836 1.381 . S
C838 C839 1.394 . S
C838 H846 0.930 . S
C839 C838 1.394 . S
C839 C840 1.383 . S
C839 H847 0.929 . S
C840 C839 1.383 . S
C840 C841 1.377 . S
C841 H825 0.930 . S
C841 C840 1.377 . S
C841 C842 1.379 . S
C842 H826 0.931 . S
C842 C836 1.383 . S
C842 C841 1.379 . S
H843 C837 0.959 . S
H844 C837 0.961 . S
H845 C837 0.960 . S
H846 C838 0.930 . S
H847 C839 0.929 . S
H848 C856 0.929 . S
H849 C858 0.930 . S
H850 C860 0.930 . S
H851 C863 0.929 . S
H852 C866 0.930 . S
H853 C868 0.960 . S
H854 C868 0.960 . S
H855 C868 0.960 . S
C856 H848 0.929 . S
C856 C857 1.377 . S
C856 C858 1.384 . S
C857 C856 1.377 . S
C857 C863 1.390 . S
C858 H849 0.930 . S
C858 C856 1.384 . S
C858 C859 1.372 . S
C859 C858 1.372 . S
C859 C860 1.400 . S
C859 C864 1.490 . S
C860 H850 0.930 . S
C860 C859 1.400 . S
C860 C863 1.386 . S
H861 C877 0.930 . S
H862 C878 0.931 . S
C863 H851 0.929 . S
C863 C857 1.390 . S
C863 C860 1.386 . S
C864 C859 1.490 . S
C864 C866 1.395 . S
C864 C867 1.403 . S
H865 C871 0.930 . S
C866 H852 0.930 . S
C866 C864 1.395 . S
C866 C869 1.403 . S
C867 C864 1.403 . S
C867 C868 1.524 . S
C867 C871 1.400 . S
C868 H853 0.960 . S
C868 H854 0.960 . S
C868 H855 0.960 . S
C868 C867 1.524 . S
C869 C866 1.403 . S
C869 C870 1.392 . S
C869 C873 1.495 . S
C870 C869 1.392 . S
C870 C871 1.385 . S
C870 C872 1.478 . S
C871 H865 0.930 . S
C871 C867 1.400 . S
C871 C870 1.385 . S
C872 C870 1.478 . S
C872 C874 1.381 . S
C872 C878 1.383 . S
C873 C869 1.495 . S
C873 H879 0.959 . S
C873 H880 0.961 . S
C873 H881 0.960 . S
C874 C872 1.381 . S
C874 C875 1.394 . S
C874 H882 0.930 . S
C875 C874 1.394 . S
C875 C876 1.383 . S
C875 H883 0.929 . S
C876 C875 1.383 . S
C876 C877 1.377 . S
C877 H861 0.930 . S
C877 C876 1.377 . S
C877 C878 1.379 . S
C878 H862 0.931 . S
C878 C872 1.383 . S
C878 C877 1.379 . S
H879 C873 0.959 . S
H880 C873 0.961 . S
H881 C873 0.960 . S
H882 C874 0.930 . S
H883 C875 0.929 . S
H884 C892 0.929 . S
H885 C894 0.930 . S
H886 C896 0.930 . S
H887 C899 0.929 . S
H888 C902 0.930 . S
H889 C904 0.960 . S
H890 C904 0.960 . S
H891 C904 0.960 . S
C892 H884 0.929 . S
C892 C893 1.377 . S
C892 C894 1.384 . S
C893 C892 1.377 . S
C893 C899 1.390 . S
C894 H885 0.930 . S
C894 C892 1.384 . S
C894 C895 1.372 . S
C895 C894 1.372 . S
C895 C896 1.400 . S
C895 C900 1.490 . S
C896 H886 0.930 . S
C896 C895 1.400 . S
C896 C899 1.386 . S
H897 C913 0.930 . S
H898 C914 0.931 . S
C899 H887 0.929 . S
C899 C893 1.390 . S
C899 C896 1.386 . S
C900 C895 1.490 . S
C900 C902 1.395 . S
C900 C903 1.403 . S
H901 C907 0.930 . S
C902 H888 0.930 . S
C902 C900 1.395 . S
C902 C905 1.403 . S
C903 C900 1.403 . S
C903 C904 1.524 . S
C903 C907 1.400 . S
C904 H889 0.960 . S
C904 H890 0.960 . S
C904 H891 0.960 . S
C904 C903 1.524 . S
C905 C902 1.403 . S
C905 C906 1.392 . S
C905 C909 1.495 . S
C906 C905 1.392 . S
C906 C907 1.385 . S
C906 C908 1.478 . S
C907 H901 0.930 . S
C907 C903 1.400 . S
C907 C906 1.385 . S
C908 C906 1.478 . S
C908 C910 1.381 . S
C908 C914 1.383 . S
C909 C905 1.495 . S
C909 H915 0.959 . S
C909 H916 0.961 . S
C909 H917 0.960 . S
C910 C908 1.381 . S
C910 C911 1.394 . S
C910 H918 0.930 . S
C911 C910 1.394 . S
C911 C912 1.383 . S
C911 H919 0.929 . S
C912 C911 1.383 . S
C912 C913 1.377 . S
C913 H897 0.930 . S
C913 C912 1.377 . S
C913 C914 1.379 . S
C914 H898 0.931 . S
C914 C908 1.383 . S
C914 C913 1.379 . S
H915 C909 0.959 . S
H916 C909 0.961 . S
H917 C909 0.960 . S
H918 C910 0.930 . S
H919 C911 0.929 . S
H920 C928 0.929 . S
H921 C930 0.930 . S
H922 C932 0.930 . S
H923 C935 0.929 . S
H924 C938 0.930 . S
H925 C940 0.960 . S
H926 C940 0.960 . S
H927 C940 0.960 . S
C928 H920 0.929 . S
C928 C929 1.377 . S
C928 C930 1.384 . S
C929 C928 1.377 . S
C929 C935 1.390 . S
C930 H921 0.930 . S
C930 C928 1.384 . S
C930 C931 1.372 . S
C931 C930 1.372 . S
C931 C932 1.400 . S
C931 C936 1.490 . S
C932 H922 0.930 . S
C932 C931 1.400 . S
C932 C935 1.386 . S
H933 C949 0.930 . S
H934 C950 0.931 . S
C935 H923 0.929 . S
C935 C929 1.390 . S
C935 C932 1.386 . S
C936 C931 1.490 . S
C936 C938 1.395 . S
C936 C939 1.403 . S
H937 C943 0.930 . S
C938 H924 0.930 . S
C938 C936 1.395 . S
C938 C941 1.403 . S
C939 C936 1.403 . S
C939 C940 1.524 . S
C939 C943 1.400 . S
C940 H925 0.960 . S
C940 H926 0.960 . S
C940 H927 0.960 . S
C940 C939 1.524 . S
C941 C938 1.403 . S
C941 C942 1.392 . S
C941 C945 1.495 . S
C942 C941 1.392 . S
C942 C943 1.385 . S
C942 C944 1.478 . S
C943 H937 0.930 . S
C943 C939 1.400 . S
C943 C942 1.385 . S
C944 C942 1.478 . S
C944 C946 1.381 . S
C944 C950 1.383 . S
C945 C941 1.495 . S
C945 H951 0.959 . S
C945 H952 0.961 . S
C945 H953 0.960 . S
C946 C944 1.381 . S
C946 C947 1.394 . S
C946 H954 0.930 . S
C947 C946 1.394 . S
C947 C948 1.383 . S
C947 H955 0.929 . S
C948 C947 1.383 . S
C948 C949 1.377 . S
C949 H933 0.930 . S
C949 C948 1.377 . S
C949 C950 1.379 . S
C950 H934 0.931 . S
C950 C944 1.383 . S
C950 C949 1.379 . S
H951 C945 0.959 . S
H952 C945 0.961 . S
H953 C945 0.960 . S
H954 C946 0.930 . S
H955 C947 0.929 . S
H956 C964 0.929 . S
H957 C966 0.930 . S
H958 C968 0.930 . S
H959 C971 0.929 . S
H960 C974 0.930 . S
H961 C976 0.960 . S
H962 C976 0.960 . S
H963 C976 0.960 . S
C964 H956 0.929 . S
C964 C965 1.377 . S
C964 C966 1.384 . S
C965 C964 1.377 . S
C965 C971 1.390 . S
C966 H957 0.930 . S
C966 C964 1.384 . S
C966 C967 1.372 . S
C967 C966 1.372 . S
C967 C968 1.400 . S
C967 C972 1.490 . S
C968 H958 0.930 . S
C968 C967 1.400 . S
C968 C971 1.386 . S
H969 C985 0.930 . S
H970 C986 0.931 . S
C971 H959 0.929 . S
C971 C965 1.390 . S
C971 C968 1.386 . S
C972 C967 1.490 . S
C972 C974 1.395 . S
C972 C975 1.403 . S
H973 C979 0.930 . S
C974 H960 0.930 . S
C974 C972 1.395 . S
C974 C977 1.403 . S
C975 C972 1.403 . S
C975 C976 1.524 . S
C975 C979 1.400 . S
C976 H961 0.960 . S
C976 H962 0.960 . S
C976 H963 0.960 . S
C976 C975 1.524 . S
C977 C974 1.403 . S
C977 C978 1.392 . S
C977 C981 1.495 . S
C978 C977 1.392 . S
C978 C979 1.385 . S
C978 C980 1.478 . S
C979 H973 0.930 . S
C979 C975 1.400 . S
C979 C978 1.385 . S
C980 C978 1.478 . S
C980 C982 1.381 . S
C980 C986 1.383 . S
C981 C977 1.495 . S
C981 H987 0.959 . S
C981 H988 0.961 . S
C981 H989 0.960 . S
C982 C980 1.381 . S
C982 C983 1.394 . S
C982 H990 0.930 . S
C983 C982 1.394 . S
C983 C984 1.383 . S
C983 H991 0.929 . S
C984 C983 1.383 . S
C984 C985 1.377 . S
C985 H969 0.930 . S
C985 C984 1.377 . S
C985 C986 1.379 . S
C986 H970 0.931 . S
C986 C980 1.383 . S
C986 C985 1.379 . S
H987 C981 0.959 . S
H988 C981 0.961 . S
H989 C981 0.960 . S
H990 C982 0.930 . S
H991 C983 0.929 . S
H992 C1000 0.929 . S
H993 C1002 0.930 . S
H994 C1004 0.930 . S
H995 C1007 0.929 . S
H996 C1010 0.930 . S
H997 C1012 0.960 . S
H998 C1012 0.960 . S
H999 C1012 0.960 . S
C1000 H992 0.929 . S
C1000 C1001 1.377 . S
C1000 C1002 1.384 . S
C1001 C1000 1.377 . S
C1001 C1007 1.390 . S
C1002 H993 0.930 . S
C1002 C1000 1.384 . S
C1002 C1003 1.372 . S
C1003 C1002 1.372 . S
C1003 C1004 1.400 . S
C1003 C1008 1.490 . S
C1004 H994 0.930 . S
C1004 C1003 1.400 . S
C1004 C1007 1.386 . S
H1005 C1021 0.930 . S
H1006 C1022 0.931 . S
C1007 H995 0.929 . S
C1007 C1001 1.390 . S
C1007 C1004 1.386 . S
C1008 C1003 1.490 . S
C1008 C1010 1.395 . S
C1008 C1011 1.403 . S
H1009 C1015 0.930 . S
C1010 H996 0.930 . S
C1010 C1008 1.395 . S
C1010 C1013 1.403 1_565 S
C1011 C1008 1.403 . S
C1011 C1012 1.524 . S
C1011 C1015 1.400 1_565 S
C1012 H997 0.960 . S
C1012 H998 0.960 . S
C1012 H999 0.960 . S
C1012 C1011 1.524 . S
C1013 C1010 1.403 1_545 S
C1013 C1014 1.392 . S
C1013 C1017 1.495 . S
C1014 C1013 1.392 . S
C1014 C1015 1.385 . S
C1014 C1016 1.478 . S
C1015 H1009 0.930 . S
C1015 C1011 1.400 1_545 S
C1015 C1014 1.385 . S
C1016 C1014 1.478 . S
C1016 C1018 1.381 . S
C1016 C1022 1.383 . S
C1017 C1013 1.495 . S
C1017 H1023 0.959 . S
C1017 H1024 0.961 . S
C1017 H1025 0.960 . S
C1018 C1016 1.381 . S
C1018 C1019 1.394 . S
C1018 H1026 0.930 . S
C1019 C1018 1.394 . S
C1019 C1020 1.383 . S
C1019 H1027 0.929 . S
C1020 C1019 1.383 . S
C1020 C1021 1.377 . S
C1021 H1005 0.930 . S
C1021 C1020 1.377 . S
C1021 C1022 1.379 . S
C1022 H1006 0.931 . S
C1022 C1016 1.383 . S
C1022 C1021 1.379 . S
H1023 C1017 0.959 . S
H1024 C1017 0.961 . S
H1025 C1017 0.960 . S
H1026 C1018 0.930 . S
H1027 C1019 0.929 . S
H1028 C1036 0.929 . S
H1029 C1038 0.930 . S
H1030 C1040 0.930 1_455 S
H1031 C1043 0.929 1_455 S
H1032 C1046 0.930 . S
H1033 C1048 0.960 . S
H1034 C1048 0.960 . S
H1035 C1048 0.960 . S
C1036 H1028 0.929 . S
C1036 C1037 1.377 . S
C1036 C1038 1.384 . S
C1037 C1036 1.377 . S
C1037 C1043 1.390 . S
C1038 H1029 0.930 . S
C1038 C1036 1.384 . S
C1038 C1039 1.372 . S
C1039 C1038 1.372 . S
C1039 C1040 1.400 . S
C1039 C1044 1.490 . S
C1040 H1030 0.930 1_655 S
C1040 C1039 1.400 . S
C1040 C1043 1.386 . S
H1041 C1057 0.930 . S
H1042 C1058 0.931 . S
C1043 H1031 0.929 1_655 S
C1043 C1037 1.390 . S
C1043 C1040 1.386 . S
C1044 C1039 1.490 . S
C1044 C1046 1.395 . S
C1044 C1047 1.403 1_655 S
H1045 C1051 0.930 . S
C1046 H1032 0.930 . S
C1046 C1044 1.395 . S
C1046 C1049 1.403 . S
C1047 C1044 1.403 1_455 S
C1047 C1048 1.524 . S
C1047 C1051 1.400 . S
C1048 H1033 0.960 . S
C1048 H1034 0.960 . S
C1048 H1035 0.960 . S
C1048 C1047 1.524 . S
C1049 C1046 1.403 . S
C1049 C1050 1.392 1_655 S
C1049 C1053 1.495 . S
C1050 C1049 1.392 1_455 S
C1050 C1051 1.385 . S
C1050 C1052 1.478 . S
C1051 H1045 0.930 . S
C1051 C1047 1.400 . S
C1051 C1050 1.385 . S
C1052 C1050 1.478 . S
C1052 C1054 1.381 1_455 S
C1052 C1058 1.383 . S
C1053 C1049 1.495 . S
C1053 H1059 0.959 . S
C1053 H1060 0.961 . S
C1053 H1061 0.960 . S
C1054 C1052 1.381 1_655 S
C1054 C1055 1.394 1_655 S
C1054 H1062 0.930 . S
C1055 C1054 1.394 1_455 S
C1055 C1056 1.383 . S
C1055 H1063 0.929 1_455 S
C1056 C1055 1.383 . S
C1056 C1057 1.377 . S
C1057 H1041 0.930 . S
C1057 C1056 1.377 . S
C1057 C1058 1.379 . S
C1058 H1042 0.931 . S
C1058 C1052 1.383 . S
C1058 C1057 1.379 . S
H1059 C1053 0.959 . S
H1060 C1053 0.961 . S
H1061 C1053 0.960 . S
H1062 C1054 0.930 . S
H1063 C1055 0.929 1_655 S
H1064 C1072 0.919 1_554 S
H1065 C1074 0.924 1_554 S
H1066 C1076 0.930 . S
H1067 C1079 0.929 . S
H1068 C1082 0.930 . S
H1069 C1084 0.960 . S
H1070 C1084 0.960 . S
H1071 C1084 0.960 . S
C1072 H1064 0.919 1_556 S
C1072 C1073 1.377 . S
C1072 C1074 1.386 . S
C1073 C1072 1.377 . S
C1073 C1079 1.390 . S
C1074 H1065 0.924 1_556 S
C1074 C1072 1.386 . S
C1074 C1075 1.376 . S
C1075 C1074 1.376 . S
C1075 C1076 1.400 . S
C1075 C1080 1.490 . S
C1076 H1066 0.930 . S
C1076 C1075 1.400 . S
C1076 C1079 1.386 . S
H1077 C1093 0.930 . S
H1078 C1094 0.931 1_556 S
C1079 H1067 0.929 . S
C1079 C1073 1.390 . S
C1079 C1076 1.386 . S
C1080 C1075 1.490 . S
C1080 C1082 1.395 1_556 S
C1080 C1083 1.403 . S
H1081 C1087 0.930 . S
C1082 H1068 0.930 . S
C1082 C1080 1.395 1_554 S
C1082 C1085 1.403 . S
C1083 C1080 1.403 . S
C1083 C1084 1.524 . S
C1083 C1087 1.400 . S
C1084 H1069 0.960 . S
C1084 H1070 0.960 . S
C1084 H1071 0.960 . S
C1084 C1083 1.524 . S
C1085 C1082 1.403 . S
C1085 C1086 1.392 . S
C1085 C1089 1.495 . S
C1086 C1085 1.392 . S
C1086 C1087 1.385 1_554 S
C1086 C1088 1.478 . S
C1087 H1081 0.930 . S
C1087 C1083 1.400 . S
C1087 C1086 1.385 1_556 S
C1088 C1086 1.478 . S
C1088 C1090 1.381 . S
C1088 C1094 1.383 . S
C1089 C1085 1.495 . S
C1089 H1095 0.959 . S
C1089 H1096 0.961 . S
C1089 H1097 0.960 . S
C1090 C1088 1.381 . S
C1090 C1091 1.394 . S
C1090 H1098 0.930 . S
C1091 C1090 1.394 . S
C1091 C1092 1.383 . S
C1091 H1099 0.929 . S
C1092 C1091 1.383 . S
C1092 C1093 1.377 . S
C1093 H1077 0.930 . S
C1093 C1092 1.377 . S
C1093 C1094 1.379 . S
C1094 H1078 0.931 1_554 S
C1094 C1088 1.383 . S
C1094 C1093 1.379 . S
H1095 C1089 0.959 . S
H1096 C1089 0.961 . S
H1097 C1089 0.960 . S
H1098 C1090 0.930 . S
H1099 C1091 0.929 . S
H1100 C1108 0.929 1_554 S
H1101 C1110 0.930 . S
H1102 C1112 0.930 1_655 S
H1103 C1115 0.929 . S
H1104 C1118 0.930 . S
H1105 C1120 0.960 1_565 S
H1106 C1120 0.960 . S
H1107 C1120 0.960 . S
C1108 H1100 0.929 1_556 S
C1108 C1109 1.377 . S
C1108 C1110 1.384 1_556 S
C1109 C1108 1.377 . S
C1109 C1115 1.390 . S
C1110 H1101 0.930 . S
C1110 C1108 1.384 1_554 S
C1110 C1111 1.372 1_554 S
C1111 C1110 1.372 1_556 S
C1111 C1112 1.400 . S
C1111 C1116 1.490 . S
C1112 H1102 0.930 1_455 S
C1112 C1111 1.400 . S
C1112 C1115 1.386 . S
H1113 C1129 0.930 1_556 S
H1114 C1130 0.931 1_556 S
C1115 H1103 0.929 . S
C1115 C1109 1.390 . S
C1115 C1112 1.386 . S
C1116 C1111 1.490 . S
C1116 C1118 1.399 1_556 S
C1116 C1119 1.403 . S
H1117 C1123 0.930 1_655 S
C1118 H1104 0.930 . S
C1118 C1116 1.399 1_554 S
C1118 C1121 1.399 1_445 S
C1119 C1116 1.403 . S
C1119 C1120 1.524 . S
C1119 C1123 1.402 1_545 S
C1120 H1105 0.960 1_545 S
C1120 H1106 0.960 . S
C1120 H1107 0.960 . S
C1120 C1119 1.524 . S
C1121 C1118 1.399 1_665 S
C1121 C1122 1.392 . S
C1121 C1125 1.495 . S
C1122 C1121 1.392 . S
C1122 C1123 1.383 1_654 S
C1122 C1124 1.478 . S
C1123 H1117 0.930 1_455 S
C1123 C1119 1.402 1_565 S
C1123 C1122 1.383 1_456 S
C1124 C1122 1.478 . S
C1124 C1126 1.381 . S
C1124 C1130 1.383 . S
C1125 C1121 1.495 . S
C1125 H1131 0.959 1_565 S
C1125 H1132 0.961 . S
C1125 H1133 0.960 . S
C1126 C1124 1.381 . S
C1126 C1127 1.394 . S
C1126 H1134 0.930 1_655 S
C1127 C1126 1.394 . S
C1127 C1128 1.383 . S
C1127 H1135 0.929 . S
C1128 C1127 1.383 . S
C1128 C1129 1.377 . S
C1129 H1113 0.930 1_554 S
C1129 C1128 1.377 . S
C1129 C1130 1.379 . S
C1130 H1114 0.931 1_554 S
C1130 C1124 1.383 . S
C1130 C1129 1.379 . S
H1131 C1125 0.959 1_545 S
H1132 C1125 0.961 . S
H1133 C1125 0.960 . S
H1134 C1126 0.930 1_455 S
H1135 C1127 0.929 . S
H1136 C1144 0.929 . S
H1137 C1146 0.930 . S
H1138 C1148 0.930 . S
H1139 C1151 0.929 . S
H1140 C1154 0.930 . S
H1141 C1156 0.960 1_565 S
H1142 C1156 0.960 . S
H1143 C1156 0.960 . S
C1144 H1136 0.929 . S
C1144 C1145 1.377 . S
C1144 C1146 1.384 . S
C1145 C1144 1.377 . S
C1145 C1151 1.390 . S
C1146 H1137 0.930 . S
C1146 C1144 1.384 . S
C1146 C1147 1.372 . S
C1147 C1146 1.372 . S
C1147 C1148 1.400 . S
C1147 C1152 1.490 . S
C1148 H1138 0.930 . S
C1148 C1147 1.400 . S
C1148 C1151 1.386 . S
H1149 C1165 0.930 . S
H1150 C1166 0.931 . S
C1151 H1139 0.929 . S
C1151 C1145 1.390 . S
C1151 C1148 1.386 . S
C1152 C1147 1.490 . S
C1152 C1154 1.395 . S
C1152 C1155 1.403 . S
H1153 C1159 0.930 . S
C1154 H1140 0.930 . S
C1154 C1152 1.395 . S
C1154 C1157 1.353 1_545 S
C1155 C1152 1.403 . S
C1155 C1156 1.524 . S
C1155 C1159 1.400 1_545 S
C1156 H1141 0.960 1_545 S
C1156 H1142 0.960 . S
C1156 H1143 0.960 . S
C1156 C1155 1.524 . S
C1157 C1154 1.353 1_565 S
C1157 C1158 1.440 . S
C1157 C1161 1.494 . S
C1158 C1157 1.440 . S
C1158 C1159 1.385 . S
C1158 C1160 1.478 . S
C1159 H1153 0.930 . S
C1159 C1155 1.400 1_565 S
C1159 C1158 1.385 . S
C1160 C1158 1.478 . S
C1160 C1162 1.381 . S
C1160 C1166 1.383 . S
C1161 C1157 1.494 . S
C1161 H1167 0.843 1_565 S
C1161 H1168 1.025 . S
C1161 H1169 1.031 . S
C1162 C1160 1.381 . S
C1162 C1163 1.394 . S
C1162 H1170 0.930 . S
C1163 C1162 1.394 . S
C1163 C1164 1.383 . S
C1163 H1171 0.929 . S
C1164 C1163 1.383 . S
C1164 C1165 1.377 . S
C1165 H1149 0.930 . S
C1165 C1164 1.377 . S
C1165 C1166 1.379 . S
C1166 H1150 0.931 . S
C1166 C1160 1.383 . S
C1166 C1165 1.379 . S
H1167 C1161 0.843 1_545 S
H1168 C1161 1.025 . S
H1169 C1161 1.031 . S
H1170 C1162 0.930 . S
H1171 C1163 0.929 . S
H1172 C1180 0.929 . S
H1173 C1182 0.930 1_655 S
H1174 C1184 0.930 . S
H1175 C1187 0.929 . S
H1176 C1190 0.930 . S
H1177 C1192 0.960 . S
H1178 C1192 0.960 . S
H1179 C1192 0.960 . S
C1180 H1172 0.929 . S
C1180 C1181 1.377 . S
C1180 C1182 1.384 . S
C1181 C1180 1.377 . S
C1181 C1187 1.390 . S
C1182 H1173 0.930 1_455 S
C1182 C1180 1.384 . S
C1182 C1183 1.372 . S
C1183 C1182 1.372 . S
C1183 C1184 1.400 . S
C1183 C1188 1.490 . S
C1184 H1174 0.930 . S
C1184 C1183 1.400 . S
C1184 C1187 1.386 . S
H1185 C1201 0.930 . S
H1186 C1202 0.931 . S
C1187 H1175 0.929 . S
C1187 C1181 1.390 . S
C1187 C1184 1.386 . S
C1188 C1183 1.490 . S
C1188 C1190 1.395 1_455 S
C1188 C1191 1.403 . S
H1189 C1195 0.930 . S
C1190 H1176 0.930 . S
C1190 C1188 1.395 1_655 S
C1190 C1193 1.403 . S
C1191 C1188 1.403 . S
C1191 C1192 1.524 . S
C1191 C1195 1.400 . S
C1192 H1177 0.960 . S
C1192 H1178 0.960 . S
C1192 H1179 0.960 . S
C1192 C1191 1.524 . S
C1193 C1190 1.403 . S
C1193 C1194 1.392 . S
C1193 C1197 1.495 . S
C1194 C1193 1.392 . S
C1194 C1195 1.385 1_655 S
C1194 C1196 1.478 . S
C1195 H1189 0.930 . S
C1195 C1191 1.400 . S
C1195 C1194 1.385 1_455 S
C1196 C1194 1.478 . S
C1196 C1198 1.381 . S
C1196 C1202 1.383 . S
C1197 C1193 1.495 . S
C1197 H1203 0.959 . S
C1197 H1204 0.961 . S
C1197 H1205 0.960 . S
C1198 C1196 1.381 . S
C1198 C1199 1.394 . S
C1198 H1206 0.930 . S
C1199 C1198 1.394 . S
C1199 C1200 1.383 . S
C1199 H1207 0.929 . S
C1200 C1199 1.383 . S
C1200 C1201 1.377 . S
C1201 H1185 0.930 . S
C1201 C1200 1.377 . S
C1201 C1202 1.379 . S
C1202 H1186 0.931 . S
C1202 C1196 1.383 . S
C1202 C1201 1.379 . S
H1203 C1197 0.959 . S
H1204 C1197 0.961 . S
H1205 C1197 0.960 . S
H1206 C1198 0.930 . S
H1207 C1199 0.929 . S
H1208 C1216 0.951 . S
H1209 C1218 0.930 . S
H1210 C1220 0.930 . S
H1211 C1223 0.929 . S
H1212 C1226 0.930 . S
H1213 C1228 0.957 1_554 S
H1214 C1228 0.942 1_554 S
H1215 C1228 0.982 . S
C1216 H1208 0.951 . S
C1216 C1217 1.349 1_554 S
C1216 C1218 1.391 . S
C1217 C1216 1.349 1_556 S
C1217 C1223 1.390 . S
C1218 H1209 0.930 . S
C1218 C1216 1.391 . S
C1218 C1219 1.372 1_554 S
C1219 C1218 1.372 1_556 S
C1219 C1220 1.400 . S
C1219 C1224 1.490 . S
C1220 H1210 0.930 . S
C1220 C1219 1.400 . S
C1220 C1223 1.386 . S
H1221 C1237 0.930 . S
H1222 C1238 0.931 . S
C1223 H1211 0.929 . S
C1223 C1217 1.390 . S
C1223 C1220 1.386 . S
C1224 C1219 1.490 . S
C1224 C1226 1.395 . S
C1224 C1227 1.404 . S
H1225 C1231 0.930 . S
C1226 H1212 0.930 . S
C1226 C1224 1.395 . S
C1226 C1229 1.403 1_556 S
C1227 C1224 1.404 . S
C1227 C1228 1.524 . S
C1227 C1231 1.398 1_556 S
C1228 H1213 0.957 1_556 S
C1228 H1214 0.942 1_556 S
C1228 H1215 0.982 . S
C1228 C1227 1.524 . S
C1229 C1226 1.403 1_554 S
C1229 C1230 1.392 . S
C1229 C1233 1.495 . S
C1230 C1229 1.392 . S
C1230 C1231 1.385 . S
C1230 C1232 1.478 . S
C1231 H1225 0.930 . S
C1231 C1227 1.398 1_554 S
C1231 C1230 1.385 . S
C1232 C1230 1.478 . S
C1232 C1234 1.381 . S
C1232 C1238 1.383 1_554 S
C1233 C1229 1.495 . S
C1233 H1239 0.959 . S
C1233 H1240 0.961 1_554 S
C1233 H1241 0.960 . S
C1234 C1232 1.381 . S
C1234 C1235 1.394 . S
C1234 H1242 0.930 . S
C1235 C1234 1.394 . S
C1235 C1236 1.383 . S
C1235 H1243 0.929 . S
C1236 C1235 1.383 . S
C1236 C1237 1.377 1_554 S
C1237 H1221 0.930 . S
C1237 C1236 1.377 1_556 S
C1237 C1238 1.379 . S
C1238 H1222 0.931 . S
C1238 C1232 1.383 1_556 S
C1238 C1237 1.379 . S
H1239 C1233 0.959 . S
H1240 C1233 0.961 1_556 S
H1241 C1233 0.960 . S
H1242 C1234 0.930 . S
H1243 C1235 0.929 . S
H1244 C1252 0.929 . S
H1245 C1254 0.930 . S
H1246 C1256 0.930 . S
H1247 C1259 0.929 . S
H1248 C1262 0.930 . S
H1249 C1264 0.960 . S
H1250 C1264 0.960 . S
H1251 C1264 0.960 . S
C1252 H1244 0.929 . S
C1252 C1253 1.377 . S
C1252 C1254 1.384 . S
C1253 C1252 1.377 . S
C1253 C1259 1.390 . S
C1254 H1245 0.930 . S
C1254 C1252 1.384 . S
C1254 C1255 1.372 . S
C1255 C1254 1.372 . S
C1255 C1256 1.400 . S
C1255 C1260 1.490 . S
C1256 H1246 0.930 . S
C1256 C1255 1.400 . S
C1256 C1259 1.386 . S
H1257 C1273 0.930 . S
H1258 C1274 0.931 . S
C1259 H1247 0.929 . S
C1259 C1253 1.390 . S
C1259 C1256 1.386 . S
C1260 C1255 1.490 . S
C1260 C1262 1.395 . S
C1260 C1263 1.403 . S
H1261 C1267 0.930 . S
C1262 H1248 0.930 . S
C1262 C1260 1.395 . S
C1262 C1265 1.403 . S
C1263 C1260 1.403 . S
C1263 C1264 1.524 . S
C1263 C1267 1.400 . S
C1264 H1249 0.960 . S
C1264 H1250 0.960 . S
C1264 H1251 0.960 . S
C1264 C1263 1.524 . S
C1265 C1262 1.403 . S
C1265 C1266 1.392 . S
C1265 C1269 1.495 . S
C1266 C1265 1.392 . S
C1266 C1267 1.385 . S
C1266 C1268 1.478 . S
C1267 H1261 0.930 . S
C1267 C1263 1.400 . S
C1267 C1266 1.385 . S
C1268 C1266 1.478 . S
C1268 C1270 1.381 . S
C1268 C1274 1.383 . S
C1269 C1265 1.495 . S
C1269 H1275 0.959 . S
C1269 H1276 0.961 . S
C1269 H1277 0.960 . S
C1270 C1268 1.381 . S
C1270 C1271 1.394 . S
C1270 H1278 0.930 . S
C1271 C1270 1.394 . S
C1271 C1272 1.383 . S
C1271 H1279 0.929 . S
C1272 C1271 1.383 . S
C1272 C1273 1.377 . S
C1273 H1257 0.930 . S
C1273 C1272 1.377 . S
C1273 C1274 1.379 . S
C1274 H1258 0.931 . S
C1274 C1268 1.383 . S
C1274 C1273 1.379 . S
H1275 C1269 0.959 . S
H1276 C1269 0.961 . S
H1277 C1269 0.960 . S
H1278 C1270 0.930 . S
H1279 C1271 0.929 . S
H1280 C1288 0.929 . S
H1281 C1290 0.930 . S
H1282 C1292 0.930 . S
H1283 C1295 0.929 . S
H1284 C1298 0.930 . S
H1285 C1300 0.960 . S
H1286 C1300 0.960 . S
H1287 C1300 0.960 . S
C1288 H1280 0.929 . S
C1288 C1289 1.377 . S
C1288 C1290 1.384 . S
C1289 C1288 1.377 . S
C1289 C1295 1.390 . S
C1290 H1281 0.930 . S
C1290 C1288 1.384 . S
C1290 C1291 1.372 . S
C1291 C1290 1.372 . S
C1291 C1292 1.400 . S
C1291 C1296 1.490 . S
C1292 H1282 0.930 . S
C1292 C1291 1.400 . S
C1292 C1295 1.386 . S
H1293 C1309 0.930 . S
H1294 C1310 0.931 . S
C1295 H1283 0.929 . S
C1295 C1289 1.390 . S
C1295 C1292 1.386 . S
C1296 C1291 1.490 . S
C1296 C1298 1.395 . S
C1296 C1299 1.403 . S
H1297 C1303 0.930 . S
C1298 H1284 0.930 . S
C1298 C1296 1.395 . S
C1298 C1301 1.403 . S
C1299 C1296 1.403 . S
C1299 C1300 1.524 . S
C1299 C1303 1.400 . S
C1300 H1285 0.960 . S
C1300 H1286 0.960 . S
C1300 H1287 0.960 . S
C1300 C1299 1.524 . S
C1301 C1298 1.403 . S
C1301 C1302 1.392 . S
C1301 C1305 1.495 . S
C1302 C1301 1.392 . S
C1302 C1303 1.385 . S
C1302 C1304 1.478 . S
C1303 H1297 0.930 . S
C1303 C1299 1.400 . S
C1303 C1302 1.385 . S
C1304 C1302 1.478 . S
C1304 C1306 1.381 . S
C1304 C1310 1.383 . S
C1305 C1301 1.495 . S
C1305 H1311 0.959 . S
C1305 H1312 0.961 . S
C1305 H1313 0.960 . S
C1306 C1304 1.381 . S
C1306 C1307 1.394 . S
C1306 H1314 0.930 . S
C1307 C1306 1.394 . S
C1307 C1308 1.383 . S
C1307 H1315 0.929 . S
C1308 C1307 1.383 . S
C1308 C1309 1.377 . S
C1309 H1293 0.930 . S
C1309 C1308 1.377 . S
C1309 C1310 1.379 . S
C1310 H1294 0.931 . S
C1310 C1304 1.383 . S
C1310 C1309 1.379 . S
H1311 C1305 0.959 . S
H1312 C1305 0.961 . S
H1313 C1305 0.960 . S
H1314 C1306 0.930 . S
H1315 C1307 0.929 . S
H1316 C1324 0.929 1_455 S
H1317 C1326 0.930 . S
H1318 C1328 0.930 . S
H1319 C1331 0.929 . S
H1320 C1334 0.930 . S
H1321 C1336 0.960 . S
H1322 C1336 0.960 . S
H1323 C1336 0.960 . S
C1324 H1316 0.929 1_655 S
C1324 C1325 1.377 . S
C1324 C1326 1.384 1_655 S
C1325 C1324 1.377 . S
C1325 C1331 1.390 . S
C1326 H1317 0.930 . S
C1326 C1324 1.384 1_455 S
C1326 C1327 1.372 1_455 S
C1327 C1326 1.372 1_655 S
C1327 C1328 1.400 . S
C1327 C1332 1.490 . S
C1328 H1318 0.930 . S
C1328 C1327 1.400 . S
C1328 C1331 1.386 . S
H1329 C1345 0.930 1_655 S
H1330 C1346 0.931 1_655 S
C1331 H1319 0.929 . S
C1331 C1325 1.390 . S
C1331 C1328 1.386 . S
C1332 C1327 1.490 . S
C1332 C1334 1.395 1_655 S
C1332 C1335 1.403 . S
H1333 C1339 0.930 . S
C1334 H1320 0.930 . S
C1334 C1332 1.395 1_455 S
C1334 C1337 1.403 . S
C1335 C1332 1.403 . S
C1335 C1336 1.524 . S
C1335 C1339 1.400 . S
C1336 H1321 0.960 . S
C1336 H1322 0.960 . S
C1336 H1323 0.960 . S
C1336 C1335 1.524 . S
C1337 C1334 1.403 . S
C1337 C1338 1.392 . S
C1337 C1341 1.495 . S
C1338 C1337 1.392 . S
C1338 C1339 1.385 1_455 S
C1338 C1340 1.478 . S
C1339 H1333 0.930 . S
C1339 C1335 1.400 . S
C1339 C1338 1.385 1_655 S
C1340 C1338 1.478 . S
C1340 C1342 1.381 . S
C1340 C1346 1.383 . S
C1341 C1337 1.495 . S
C1341 H1347 0.959 . S
C1341 H1348 0.961 . S
C1341 H1349 0.960 . S
C1342 C1340 1.381 . S
C1342 C1343 1.394 . S
C1342 H1350 0.930 . S
C1343 C1342 1.394 . S
C1343 C1344 1.383 . S
C1343 H1351 0.929 . S
C1344 C1343 1.383 . S
C1344 C1345 1.377 . S
C1345 H1329 0.930 1_455 S
C1345 C1344 1.377 . S
C1345 C1346 1.379 . S
C1346 H1330 0.931 1_455 S
C1346 C1340 1.383 . S
C1346 C1345 1.379 . S
H1347 C1341 0.959 . S
H1348 C1341 0.961 . S
H1349 C1341 0.960 . S
H1350 C1342 0.930 . S
H1351 C1343 0.929 . S
H1352 C1360 0.929 . S
H1353 C1362 0.930 . S
H1354 C1364 0.930 . S
H1355 C1367 0.929 . S
H1356 C1370 0.930 . S
H1357 C1372 0.960 . S
H1358 C1372 0.960 . S
H1359 C1372 0.960 . S
C1360 H1352 0.929 . S
C1360 C1361 1.377 . S
C1360 C1362 1.384 . S
C1361 C1360 1.377 . S
C1361 C1367 1.390 . S
C1362 H1353 0.930 . S
C1362 C1360 1.384 . S
C1362 C1363 1.372 . S
C1363 C1362 1.372 . S
C1363 C1364 1.400 . S
C1363 C1368 1.490 . S
C1364 H1354 0.930 . S
C1364 C1363 1.400 . S
C1364 C1367 1.386 . S
H1365 C1381 0.930 . S
H1366 C1382 0.931 . S
C1367 H1355 0.929 . S
C1367 C1361 1.390 . S
C1367 C1364 1.386 . S
C1368 C1363 1.490 . S
C1368 C1370 1.395 . S
C1368 C1371 1.403 . S
H1369 C1375 0.930 . S
C1370 H1356 0.930 . S
C1370 C1368 1.395 . S
C1370 C1373 1.403 . S
C1371 C1368 1.403 . S
C1371 C1372 1.524 . S
C1371 C1375 1.400 . S
C1372 H1357 0.960 . S
C1372 H1358 0.960 . S
C1372 H1359 0.960 . S
C1372 C1371 1.524 . S
C1373 C1370 1.403 . S
C1373 C1374 1.392 . S
C1373 C1377 1.495 . S
C1374 C1373 1.392 . S
C1374 C1375 1.385 . S
C1374 C1376 1.478 . S
C1375 H1369 0.930 . S
C1375 C1371 1.400 . S
C1375 C1374 1.385 . S
C1376 C1374 1.478 . S
C1376 C1378 1.381 . S
C1376 C1382 1.383 . S
C1377 C1373 1.495 . S
C1377 H1383 0.959 . S
C1377 H1384 0.961 . S
C1377 H1385 0.960 . S
C1378 C1376 1.381 . S
C1378 C1379 1.394 . S
C1378 H1386 0.930 . S
C1379 C1378 1.394 . S
C1379 C1380 1.383 . S
C1379 H1387 0.929 . S
C1380 C1379 1.383 . S
C1380 C1381 1.377 . S
C1381 H1365 0.930 . S
C1381 C1380 1.377 . S
C1381 C1382 1.379 . S
C1382 H1366 0.931 . S
C1382 C1376 1.383 . S
C1382 C1381 1.379 . S
H1383 C1377 0.959 . S
H1384 C1377 0.961 . S
H1385 C1377 0.960 . S
H1386 C1378 0.930 . S
H1387 C1379 0.929 . S
H1388 C1396 0.929 . S
H1389 C1398 0.930 . S
H1390 C1400 0.930 . S
H1391 C1403 0.929 . S
H1392 C1406 0.930 . S
H1393 C1408 0.960 . S
H1394 C1408 0.960 . S
H1395 C1408 0.960 . S
C1396 H1388 0.929 . S
C1396 C1397 1.377 . S
C1396 C1398 1.384 . S
C1397 C1396 1.377 . S
C1397 C1403 1.390 . S
C1398 H1389 0.930 . S
C1398 C1396 1.384 . S
C1398 C1399 1.372 . S
C1399 C1398 1.372 . S
C1399 C1400 1.400 . S
C1399 C1404 1.490 . S
C1400 H1390 0.930 . S
C1400 C1399 1.400 . S
C1400 C1403 1.386 . S
H1401 C1417 0.930 . S
H1402 C1418 0.931 . S
C1403 H1391 0.929 . S
C1403 C1397 1.390 . S
C1403 C1400 1.386 . S
C1404 C1399 1.490 . S
C1404 C1406 1.395 . S
C1404 C1407 1.403 . S
H1405 C1411 0.930 . S
C1406 H1392 0.930 . S
C1406 C1404 1.395 . S
C1406 C1409 1.403 . S
C1407 C1404 1.403 . S
C1407 C1408 1.524 . S
C1407 C1411 1.400 . S
C1408 H1393 0.960 . S
C1408 H1394 0.960 . S
C1408 H1395 0.960 . S
C1408 C1407 1.524 . S
C1409 C1406 1.403 . S
C1409 C1410 1.392 . S
C1409 C1413 1.495 . S
C1410 C1409 1.392 . S
C1410 C1411 1.385 . S
C1410 C1412 1.478 . S
C1411 H1405 0.930 . S
C1411 C1407 1.400 . S
C1411 C1410 1.385 . S
C1412 C1410 1.478 . S
C1412 C1414 1.381 . S
C1412 C1418 1.383 . S
C1413 C1409 1.495 . S
C1413 H1419 0.959 . S
C1413 H1420 0.961 . S
C1413 H1421 0.960 . S
C1414 C1412 1.381 . S
C1414 C1415 1.394 . S
C1414 H1422 0.930 . S
C1415 C1414 1.394 . S
C1415 C1416 1.383 . S
C1415 H1423 0.929 . S
C1416 C1415 1.383 . S
C1416 C1417 1.377 . S
C1417 H1401 0.930 . S
C1417 C1416 1.377 . S
C1417 C1418 1.379 . S
C1418 H1402 0.931 . S
C1418 C1412 1.383 . S
C1418 C1417 1.379 . S
H1419 C1413 0.959 . S
H1420 C1413 0.961 . S
H1421 C1413 0.960 . S
H1422 C1414 0.930 . S
H1423 C1415 0.929 . S
H1424 C1432 0.929 . S
H1425 C1434 0.930 . S
H1426 C1436 0.930 . S
H1427 C1439 0.929 . S
H1428 C1442 0.930 . S
H1429 C1444 0.960 . S
H1430 C1444 0.960 . S
H1431 C1444 0.960 . S
C1432 H1424 0.929 . S
C1432 C1433 1.377 . S
C1432 C1434 1.384 . S
C1433 C1432 1.377 . S
C1433 C1439 1.390 . S
C1434 H1425 0.930 . S
C1434 C1432 1.384 . S
C1434 C1435 1.372 . S
C1435 C1434 1.372 . S
C1435 C1436 1.400 . S
C1435 C1440 1.490 . S
C1436 H1426 0.930 . S
C1436 C1435 1.400 . S
C1436 C1439 1.386 . S
H1437 C1453 0.930 . S
H1438 C1454 0.931 . S
C1439 H1427 0.929 . S
C1439 C1433 1.390 . S
C1439 C1436 1.386 . S
C1440 C1435 1.490 . S
C1440 C1442 1.395 . S
C1440 C1443 1.403 . S
H1441 C1447 0.930 . S
C1442 H1428 0.930 . S
C1442 C1440 1.395 . S
C1442 C1445 1.403 . S
C1443 C1440 1.403 . S
C1443 C1444 1.524 . S
C1443 C1447 1.400 . S
C1444 H1429 0.960 . S
C1444 H1430 0.960 . S
C1444 H1431 0.960 . S
C1444 C1443 1.524 . S
C1445 C1442 1.403 . S
C1445 C1446 1.392 . S
C1445 C1449 1.495 . S
C1446 C1445 1.392 . S
C1446 C1447 1.385 . S
C1446 C1448 1.478 . S
C1447 H1441 0.930 . S
C1447 C1443 1.400 . S
C1447 C1446 1.385 . S
C1448 C1446 1.478 . S
C1448 C1450 1.381 . S
C1448 C1454 1.383 . S
C1449 C1445 1.495 . S
C1449 H1455 0.959 . S
C1449 H1456 0.961 . S
C1449 H1457 0.960 . S
C1450 C1448 1.381 . S
C1450 C1451 1.394 . S
C1450 H1458 0.930 . S
C1451 C1450 1.394 . S
C1451 C1452 1.383 . S
C1451 H1459 0.929 . S
C1452 C1451 1.383 . S
C1452 C1453 1.377 . S
C1453 H1437 0.930 . S
C1453 C1452 1.377 . S
C1453 C1454 1.379 . S
C1454 H1438 0.931 . S
C1454 C1448 1.383 . S
C1454 C1453 1.379 . S
H1455 C1449 0.959 . S
H1456 C1449 0.961 . S
H1457 C1449 0.960 . S
H1458 C1450 0.930 . S
H1459 C1451 0.929 . S
H1460 C1468 0.929 . S
H1461 C1470 0.930 . S
H1462 C1472 0.930 . S
H1463 C1475 0.929 . S
H1464 C1478 0.930 . S
H1465 C1480 0.960 . S
H1466 C1480 0.960 . S
H1467 C1480 0.960 . S
C1468 H1460 0.929 . S
C1468 C1469 1.377 . S
C1468 C1470 1.384 . S
C1469 C1468 1.377 . S
C1469 C1475 1.390 . S
C1470 H1461 0.930 . S
C1470 C1468 1.384 . S
C1470 C1471 1.372 . S
C1471 C1470 1.372 . S
C1471 C1472 1.400 . S
C1471 C1476 1.490 . S
C1472 H1462 0.930 . S
C1472 C1471 1.400 . S
C1472 C1475 1.386 . S
H1473 C1489 0.930 . S
H1474 C1490 0.931 . S
C1475 H1463 0.929 . S
C1475 C1469 1.390 . S
C1475 C1472 1.386 . S
C1476 C1471 1.490 . S
C1476 C1478 1.395 . S
C1476 C1479 1.403 . S
H1477 C1483 0.930 . S
C1478 H1464 0.930 . S
C1478 C1476 1.395 . S
C1478 C1481 1.403 1_545 S
C1479 C1476 1.403 . S
C1479 C1480 1.524 . S
C1479 C1483 1.400 1_545 S
C1480 H1465 0.960 . S
C1480 H1466 0.960 . S
C1480 H1467 0.960 . S
C1480 C1479 1.524 . S
C1481 C1478 1.403 1_565 S
C1481 C1482 1.392 . S
C1481 C1485 1.495 . S
C1482 C1481 1.392 . S
C1482 C1483 1.385 . S
C1482 C1484 1.478 . S
C1483 H1477 0.930 . S
C1483 C1479 1.400 1_565 S
C1483 C1482 1.385 . S
C1484 C1482 1.478 . S
C1484 C1486 1.381 . S
C1484 C1490 1.383 . S
C1485 C1481 1.495 . S
C1485 H1491 0.959 . S
C1485 H1492 0.961 . S
C1485 H1493 0.960 . S
C1486 C1484 1.381 . S
C1486 C1487 1.394 . S
C1486 H1494 0.930 . S
C1487 C1486 1.394 . S
C1487 C1488 1.383 . S
C1487 H1495 0.929 . S
C1488 C1487 1.383 . S
C1488 C1489 1.377 . S
C1489 H1473 0.930 . S
C1489 C1488 1.377 . S
C1489 C1490 1.379 . S
C1490 H1474 0.931 . S
C1490 C1484 1.383 . S
C1490 C1489 1.379 . S
H1491 C1485 0.959 . S
H1492 C1485 0.961 . S
H1493 C1485 0.960 . S
H1494 C1486 0.930 . S
H1495 C1487 0.929 . S
H1496 C1504 0.929 . S
H1497 C1506 0.930 . S
H1498 C1508 0.930 . S
H1499 C1511 0.929 . S
H1500 C1514 0.930 . S
H1501 C1516 0.960 . S
H1502 C1516 0.960 . S
H1503 C1516 0.960 . S
C1504 H1496 0.929 . S
C1504 C1505 1.377 . S
C1504 C1506 1.384 . S
C1505 C1504 1.377 . S
C1505 C1511 1.390 . S
C1506 H1497 0.930 . S
C1506 C1504 1.384 . S
C1506 C1507 1.372 . S
C1507 C1506 1.372 . S
C1507 C1508 1.400 . S
C1507 C1512 1.490 . S
C1508 H1498 0.930 . S
C1508 C1507 1.400 . S
C1508 C1511 1.386 . S
H1509 C1525 0.930 . S
H1510 C1526 0.931 . S
C1511 H1499 0.929 . S
C1511 C1505 1.390 . S
C1511 C1508 1.386 . S
C1512 C1507 1.490 . S
C1512 C1514 1.395 . S
C1512 C1515 1.403 . S
H1513 C1519 0.930 . S
C1514 H1500 0.930 . S
C1514 C1512 1.395 . S
C1514 C1517 1.403 . S
C1515 C1512 1.403 . S
C1515 C1516 1.524 . S
C1515 C1519 1.400 . S
C1516 H1501 0.960 . S
C1516 H1502 0.960 . S
C1516 H1503 0.960 . S
C1516 C1515 1.524 . S
C1517 C1514 1.403 . S
C1517 C1518 1.392 . S
C1517 C1521 1.495 . S
C1518 C1517 1.392 . S
C1518 C1519 1.385 . S
C1518 C1520 1.478 . S
C1519 H1513 0.930 . S
C1519 C1515 1.400 . S
C1519 C1518 1.385 . S
C1520 C1518 1.478 . S
C1520 C1522 1.381 . S
C1520 C1526 1.383 . S
C1521 C1517 1.495 . S
C1521 H1527 0.959 . S
C1521 H1528 0.961 . S
C1521 H1529 0.960 . S
C1522 C1520 1.381 . S
C1522 C1523 1.394 . S
C1522 H1530 0.930 . S
C1523 C1522 1.394 . S
C1523 C1524 1.383 . S
C1523 H1531 0.929 . S
C1524 C1523 1.383 . S
C1524 C1525 1.377 . S
C1525 H1509 0.930 . S
C1525 C1524 1.377 . S
C1525 C1526 1.379 . S
C1526 H1510 0.931 . S
C1526 C1520 1.383 . S
C1526 C1525 1.379 . S
H1527 C1521 0.959 . S
H1528 C1521 0.961 . S
H1529 C1521 0.960 . S
H1530 C1522 0.930 . S
H1531 C1523 0.929 . S
H1532 C1540 0.929 . S
H1533 C1542 0.930 . S
H1534 C1544 0.930 . S
H1535 C1547 0.929 . S
H1536 C1550 0.930 . S
H1537 C1552 0.960 1_556 S
H1538 C1552 0.960 . S
H1539 C1552 0.960 1_556 S
C1540 H1532 0.929 . S
C1540 C1541 1.377 . S
C1540 C1542 1.384 . S
C1541 C1540 1.377 . S
C1541 C1547 1.390 1_554 S
C1542 H1533 0.930 . S
C1542 C1540 1.384 . S
C1542 C1543 1.372 . S
C1543 C1542 1.372 . S
C1543 C1544 1.400 1_554 S
C1543 C1548 1.490 . S
C1544 H1534 0.930 . S
C1544 C1543 1.400 1_556 S
C1544 C1547 1.386 . S
H1545 C1561 0.930 . S
H1546 C1562 0.931 . S
C1547 H1535 0.929 . S
C1547 C1541 1.390 1_556 S
C1547 C1544 1.386 . S
C1548 C1543 1.490 . S
C1548 C1550 1.395 . S
C1548 C1551 1.403 . S
H1549 C1555 0.930 . S
C1550 H1536 0.930 . S
C1550 C1548 1.395 . S
C1550 C1553 1.403 . S
C1551 C1548 1.403 . S
C1551 C1552 1.524 . S
C1551 C1555 1.400 1_554 S
C1552 H1537 0.960 1_554 S
C1552 H1538 0.960 . S
C1552 H1539 0.960 1_554 S
C1552 C1551 1.524 . S
C1553 C1550 1.403 . S
C1553 C1554 1.392 1_554 S
C1553 C1557 1.495 . S
C1554 C1553 1.392 1_556 S
C1554 C1555 1.385 . S
C1554 C1556 1.478 . S
C1555 H1549 0.930 . S
C1555 C1551 1.400 1_556 S
C1555 C1554 1.385 . S
C1556 C1554 1.478 . S
C1556 C1558 1.381 1_556 S
C1556 C1562 1.383 . S
C1557 C1553 1.495 . S
C1557 H1563 0.959 . S
C1557 H1564 0.961 1_554 S
C1557 H1565 0.960 . S
C1558 C1556 1.381 1_554 S
C1558 C1559 1.394 . S
C1558 H1566 0.930 . S
C1559 C1558 1.394 . S
C1559 C1560 1.383 1_554 S
C1559 H1567 0.929 . S
C1560 C1559 1.383 1_556 S
C1560 C1561 1.377 . S
C1561 H1545 0.930 . S
C1561 C1560 1.377 . S
C1561 C1562 1.379 . S
C1562 H1546 0.931 . S
C1562 C1556 1.383 . S
C1562 C1561 1.379 . S
H1563 C1557 0.959 . S
H1564 C1557 0.961 1_556 S
H1565 C1557 0.960 . S
H1566 C1558 0.930 . S
H1567 C1559 0.929 . S
H1568 C1576 0.929 . S
H1569 C1578 0.930 . S
H1570 C1580 0.930 . S
H1571 C1583 0.929 . S
H1572 C1586 0.930 . S
H1573 C1588 0.960 . S
H1574 C1588 0.960 . S
H1575 C1588 0.960 . S
C1576 H1568 0.929 . S
C1576 C1577 1.377 . S
C1576 C1578 1.384 . S
C1577 C1576 1.377 . S
C1577 C1583 1.390 . S
C1578 H1569 0.930 . S
C1578 C1576 1.384 . S
C1578 C1579 1.372 . S
C1579 C1578 1.372 . S
C1579 C1580 1.400 . S
C1579 C1584 1.490 . S
C1580 H1570 0.930 . S
C1580 C1579 1.400 . S
C1580 C1583 1.386 . S
H1581 C1597 0.930 . S
H1582 C1598 0.931 . S
C1583 H1571 0.929 . S
C1583 C1577 1.390 . S
C1583 C1580 1.386 . S
C1584 C1579 1.490 . S
C1584 C1586 1.395 . S
C1584 C1587 1.403 . S
H1585 C1591 0.930 . S
C1586 H1572 0.930 . S
C1586 C1584 1.395 . S
C1586 C1589 1.403 . S
C1587 C1584 1.403 . S
C1587 C1588 1.524 . S
C1587 C1591 1.400 . S
C1588 H1573 0.960 . S
C1588 H1574 0.960 . S
C1588 H1575 0.960 . S
C1588 C1587 1.524 . S
C1589 C1586 1.403 . S
C1589 C1590 1.392 . S
C1589 C1593 1.495 . S
C1590 C1589 1.392 . S
C1590 C1591 1.385 . S
C1590 C1592 1.478 . S
C1591 H1585 0.930 . S
C1591 C1587 1.400 . S
C1591 C1590 1.385 . S
C1592 C1590 1.478 . S
C1592 C1594 1.381 . S
C1592 C1598 1.383 . S
C1593 C1589 1.495 . S
C1593 H1599 0.959 . S
C1593 H1600 0.961 . S
C1593 H1601 0.960 . S
C1594 C1592 1.381 . S
C1594 C1595 1.394 . S
C1594 H1602 0.930 . S
C1595 C1594 1.394 . S
C1595 C1596 1.383 . S
C1595 H1603 0.929 . S
C1596 C1595 1.383 . S
C1596 C1597 1.377 . S
C1597 H1581 0.930 . S
C1597 C1596 1.377 . S
C1597 C1598 1.379 . S
C1598 H1582 0.931 . S
C1598 C1592 1.383 . S
C1598 C1597 1.379 . S
H1599 C1593 0.959 . S
H1600 C1593 0.961 . S
H1601 C1593 0.960 . S
H1602 C1594 0.930 . S
H1603 C1595 0.929 . S
H1604 C1612 0.929 . S
H1605 C1614 0.930 . S
H1606 C1616 0.930 . S
H1607 C1619 0.977 . S
H1608 C1622 0.930 . S
H1609 C1624 0.960 . S
H1610 C1624 0.960 . S
H1611 C1624 0.960 . S
C1612 H1604 0.929 . S
C1612 C1613 1.377 . S
C1612 C1614 1.384 . S
C1613 C1612 1.377 . S
C1613 C1619 1.390 . S
C1614 H1605 0.930 . S
C1614 C1612 1.384 . S
C1614 C1615 1.372 . S
C1615 C1614 1.372 . S
C1615 C1616 1.400 . S
C1615 C1620 1.490 . S
C1616 H1606 0.930 . S
C1616 C1615 1.400 . S
C1616 C1619 1.386 . S
H1617 C1633 0.918 1_554 S
H1618 C1634 0.933 1_554 S
C1619 H1607 0.977 . S
C1619 C1613 1.390 . S
C1619 C1616 1.386 . S
C1620 C1615 1.490 . S
C1620 C1622 1.395 . S
C1620 C1623 1.403 . S
H1621 C1627 0.930 . S
C1622 H1608 0.930 . S
C1622 C1620 1.395 . S
C1622 C1625 1.403 . S
C1623 C1620 1.403 . S
C1623 C1624 1.524 . S
C1623 C1627 1.400 . S
C1624 H1609 0.960 . S
C1624 H1610 0.960 . S
C1624 H1611 0.960 . S
C1624 C1623 1.524 . S
C1625 C1622 1.403 . S
C1625 C1626 1.392 . S
C1625 C1629 1.495 . S
C1626 C1625 1.392 . S
C1626 C1627 1.385 . S
C1626 C1628 1.478 . S
C1627 H1621 0.930 . S
C1627 C1623 1.400 . S
C1627 C1626 1.385 . S
C1628 C1626 1.478 . S
C1628 C1630 1.381 . S
C1628 C1634 1.383 . S
C1629 C1625 1.495 . S
C1629 H1635 0.959 . S
C1629 H1636 0.961 . S
C1629 H1637 0.960 . S
C1630 C1628 1.381 . S
C1630 C1631 1.394 . S
C1630 H1638 0.930 . S
C1631 C1630 1.394 . S
C1631 C1632 1.383 . S
C1631 H1639 0.929 . S
C1632 C1631 1.383 . S
C1632 C1633 1.377 . S
C1633 H1617 0.918 1_556 S
C1633 C1632 1.377 . S
C1633 C1634 1.379 . S
C1634 H1618 0.933 1_556 S
C1634 C1628 1.383 . S
C1634 C1633 1.379 . S
H1635 C1629 0.959 . S
H1636 C1629 0.961 . S
H1637 C1629 0.960 . S
H1638 C1630 0.930 . S
H1639 C1631 0.929 . S
H1640 C1648 0.929 . S
H1641 C1650 0.930 . S
H1642 C1652 0.930 . S
H1643 C1655 0.929 . S
H1644 C1658 0.930 . S
H1645 C1660 0.960 . S
H1646 C1660 0.960 . S
H1647 C1660 0.960 . S
C1648 H1640 0.929 . S
C1648 C1649 1.377 . S
C1648 C1650 1.384 . S
C1649 C1648 1.377 . S
C1649 C1655 1.390 . S
C1650 H1641 0.930 . S
C1650 C1648 1.384 . S
C1650 C1651 1.372 . S
C1651 C1650 1.372 . S
C1651 C1652 1.400 . S
C1651 C1656 1.490 . S
C1652 H1642 0.930 . S
C1652 C1651 1.400 . S
C1652 C1655 1.386 . S
H1653 C1669 0.930 . S
H1654 C1670 0.931 . S
C1655 H1643 0.929 . S
C1655 C1649 1.390 . S
C1655 C1652 1.386 . S
C1656 C1651 1.490 . S
C1656 C1658 1.395 . S
C1656 C1659 1.403 . S
H1657 C1663 0.930 . S
C1658 H1644 0.930 . S
C1658 C1656 1.395 . S
C1658 C1661 1.403 . S
C1659 C1656 1.403 . S
C1659 C1660 1.524 . S
C1659 C1663 1.400 . S
C1660 H1645 0.960 . S
C1660 H1646 0.960 . S
C1660 H1647 0.960 . S
C1660 C1659 1.524 . S
C1661 C1658 1.403 . S
C1661 C1662 1.392 . S
C1661 C1665 1.495 . S
C1662 C1661 1.392 . S
C1662 C1663 1.385 . S
C1662 C1664 1.478 . S
C1663 H1657 0.930 . S
C1663 C1659 1.400 . S
C1663 C1662 1.385 . S
C1664 C1662 1.478 . S
C1664 C1666 1.381 . S
C1664 C1670 1.383 . S
C1665 C1661 1.495 . S
C1665 H1671 0.959 . S
C1665 H1672 0.961 . S
C1665 H1673 0.960 . S
C1666 C1664 1.381 . S
C1666 C1667 1.394 . S
C1666 H1674 0.930 . S
C1667 C1666 1.394 . S
C1667 C1668 1.383 . S
C1667 H1675 0.929 . S
C1668 C1667 1.383 . S
C1668 C1669 1.377 . S
C1669 H1653 0.930 . S
C1669 C1668 1.377 . S
C1669 C1670 1.379 . S
C1670 H1654 0.931 . S
C1670 C1664 1.383 . S
C1670 C1669 1.379 . S
H1671 C1665 0.959 . S
H1672 C1665 0.961 . S
H1673 C1665 0.960 . S
H1674 C1666 0.930 . S
H1675 C1667 0.929 . S
H1676 C1684 0.929 . S
H1677 C1686 0.930 . S
H1678 C1688 0.930 . S
H1679 C1691 0.929 . S
H1680 C1694 0.930 . S
H1681 C1696 0.949 1_556 S
H1682 C1696 0.960 1_556 S
H1683 C1696 0.960 . S
C1684 H1676 0.929 . S
C1684 C1685 1.377 . S
C1684 C1686 1.384 . S
C1685 C1684 1.377 . S
C1685 C1691 1.390 . S
C1686 H1677 0.930 . S
C1686 C1684 1.384 . S
C1686 C1687 1.372 . S
C1687 C1686 1.372 . S
C1687 C1688 1.400 . S
C1687 C1692 1.490 . S
C1688 H1678 0.930 . S
C1688 C1687 1.400 . S
C1688 C1691 1.386 . S
H1689 C1705 0.930 . S
H1690 C1706 0.931 . S
C1691 H1679 0.929 . S
C1691 C1685 1.390 . S
C1691 C1688 1.386 . S
C1692 C1687 1.490 . S
C1692 C1694 1.395 . S
C1692 C1695 1.403 . S
H1693 C1699 0.930 . S
C1694 H1680 0.930 . S
C1694 C1692 1.395 . S
C1694 C1697 1.403 . S
C1695 C1692 1.403 . S
C1695 C1696 1.524 . S
C1695 C1699 1.400 . S
C1696 H1681 0.949 1_554 S
C1696 H1682 0.960 1_554 S
C1696 H1683 0.960 . S
C1696 C1695 1.524 . S
C1697 C1694 1.403 . S
C1697 C1698 1.392 . S
C1697 C1701 1.495 . S
C1698 C1697 1.392 . S
C1698 C1699 1.385 . S
C1698 C1700 1.478 . S
C1699 H1693 0.930 . S
C1699 C1695 1.400 . S
C1699 C1698 1.385 . S
C1700 C1698 1.478 . S
C1700 C1702 1.381 . S
C1700 C1706 1.383 . S
C1701 C1697 1.495 . S
C1701 H1707 0.959 . S
C1701 H1708 0.961 . S
C1701 H1709 0.960 . S
C1702 C1700 1.381 . S
C1702 C1703 1.394 . S
C1702 H1710 0.930 . S
C1703 C1702 1.394 . S
C1703 C1704 1.383 . S
C1703 H1711 0.929 . S
C1704 C1703 1.383 . S
C1704 C1705 1.377 . S
C1705 H1689 0.930 . S
C1705 C1704 1.377 . S
C1705 C1706 1.379 . S
C1706 H1690 0.931 . S
C1706 C1700 1.383 . S
C1706 C1705 1.379 . S
H1707 C1701 0.959 . S
H1708 C1701 0.961 . S
H1709 C1701 0.960 . S
H1710 C1702 0.930 . S
H1711 C1703 0.929 . S
H1712 C1720 0.929 . S
H1713 C1722 0.930 . S
H1714 C1724 0.930 . S
H1715 C1727 0.929 . S
H1716 C1730 0.930 . S
H1717 C1732 0.960 . S
H1718 C1732 0.960 . S
H1719 C1732 0.960 . S
C1720 H1712 0.929 . S
C1720 C1721 1.377 . S
C1720 C1722 1.384 . S
C1721 C1720 1.377 . S
C1721 C1727 1.390 . S
C1722 H1713 0.930 . S
C1722 C1720 1.384 . S
C1722 C1723 1.372 . S
C1723 C1722 1.372 . S
C1723 C1724 1.400 . S
C1723 C1728 1.490 . S
C1724 H1714 0.930 . S
C1724 C1723 1.400 . S
C1724 C1727 1.386 . S
H1725 C1741 0.930 . S
H1726 C1742 0.931 . S
C1727 H1715 0.929 . S
C1727 C1721 1.390 . S
C1727 C1724 1.386 . S
C1728 C1723 1.490 . S
C1728 C1730 1.395 . S
C1728 C1731 1.403 . S
H1729 C1735 0.930 . S
C1730 H1716 0.930 . S
C1730 C1728 1.395 . S
C1730 C1733 1.403 . S
C1731 C1728 1.403 . S
C1731 C1732 1.524 . S
C1731 C1735 1.400 . S
C1732 H1717 0.960 . S
C1732 H1718 0.960 . S
C1732 H1719 0.960 . S
C1732 C1731 1.524 . S
C1733 C1730 1.403 . S
C1733 C1734 1.392 . S
C1733 C1737 1.495 . S
C1734 C1733 1.392 . S
C1734 C1735 1.385 . S
C1734 C1736 1.478 . S
C1735 H1729 0.930 . S
C1735 C1731 1.400 . S
C1735 C1734 1.385 . S
C1736 C1734 1.478 . S
C1736 C1738 1.381 . S
C1736 C1742 1.383 . S
C1737 C1733 1.495 . S
C1737 H1743 0.959 . S
C1737 H1744 0.961 . S
C1737 H1745 0.960 . S
C1738 C1736 1.381 . S
C1738 C1739 1.394 . S
C1738 H1746 0.930 . S
C1739 C1738 1.394 . S
C1739 C1740 1.383 . S
C1739 H1747 0.929 . S
C1740 C1739 1.383 . S
C1740 C1741 1.377 . S
C1741 H1725 0.930 . S
C1741 C1740 1.377 . S
C1741 C1742 1.379 . S
C1742 H1726 0.931 . S
C1742 C1736 1.383 . S
C1742 C1741 1.379 . S
H1743 C1737 0.959 . S
H1744 C1737 0.961 . S
H1745 C1737 0.960 . S
H1746 C1738 0.930 . S
H1747 C1739 0.929 . S
H1748 C1756 0.929 . S
H1749 C1758 0.930 . S
H1750 C1760 0.930 . S
H1751 C1763 0.929 . S
H1752 C1766 0.930 . S
H1753 C1768 0.960 . S
H1754 C1768 0.960 . S
H1755 C1768 0.960 . S
C1756 H1748 0.929 . S
C1756 C1757 1.377 . S
C1756 C1758 1.384 . S
C1757 C1756 1.377 . S
C1757 C1763 1.390 . S
C1758 H1749 0.930 . S
C1758 C1756 1.384 . S
C1758 C1759 1.372 . S
C1759 C1758 1.372 . S
C1759 C1760 1.400 . S
C1759 C1764 1.490 . S
C1760 H1750 0.930 . S
C1760 C1759 1.400 . S
C1760 C1763 1.386 . S
H1761 C1777 0.930 . S
H1762 C1778 0.931 . S
C1763 H1751 0.929 . S
C1763 C1757 1.390 . S
C1763 C1760 1.386 . S
C1764 C1759 1.490 . S
C1764 C1766 1.395 . S
C1764 C1767 1.403 . S
H1765 C1771 0.930 . S
C1766 H1752 0.930 . S
C1766 C1764 1.395 . S
C1766 C1769 1.403 . S
C1767 C1764 1.403 . S
C1767 C1768 1.524 . S
C1767 C1771 1.400 . S
C1768 H1753 0.960 . S
C1768 H1754 0.960 . S
C1768 H1755 0.960 . S
C1768 C1767 1.524 . S
C1769 C1766 1.403 . S
C1769 C1770 1.392 . S
C1769 C1773 1.495 . S
C1770 C1769 1.392 . S
C1770 C1771 1.385 . S
C1770 C1772 1.478 . S
C1771 H1765 0.930 . S
C1771 C1767 1.400 . S
C1771 C1770 1.385 . S
C1772 C1770 1.478 . S
C1772 C1774 1.381 . S
C1772 C1778 1.383 . S
C1773 C1769 1.495 . S
C1773 H1779 0.959 . S
C1773 H1780 0.961 . S
C1773 H1781 0.960 . S
C1774 C1772 1.381 . S
C1774 C1775 1.394 . S
C1774 H1782 0.930 . S
C1775 C1774 1.394 . S
C1775 C1776 1.383 . S
C1775 H1783 0.929 . S
C1776 C1775 1.383 . S
C1776 C1777 1.377 . S
C1777 H1761 0.930 . S
C1777 C1776 1.377 . S
C1777 C1778 1.379 . S
C1778 H1762 0.931 . S
C1778 C1772 1.383 . S
C1778 C1777 1.379 . S
H1779 C1773 0.959 . S
H1780 C1773 0.961 . S
H1781 C1773 0.960 . S
H1782 C1774 0.930 . S
H1783 C1775 0.929 . S
H1784 C1792 0.929 . S
H1785 C1794 0.930 . S
H1786 C1796 0.930 . S
H1787 C1799 0.929 . S
H1788 C1802 0.930 . S
H1789 C1804 0.960 . S
H1790 C1804 0.960 . S
H1791 C1804 0.960 . S
C1792 H1784 0.929 . S
C1792 C1793 1.377 . S
C1792 C1794 1.384 . S
C1793 C1792 1.377 . S
C1793 C1799 1.390 . S
C1794 H1785 0.930 . S
C1794 C1792 1.384 . S
C1794 C1795 1.372 . S
C1795 C1794 1.372 . S
C1795 C1796 1.400 . S
C1795 C1800 1.490 . S
C1796 H1786 0.930 . S
C1796 C1795 1.400 . S
C1796 C1799 1.386 . S
H1797 C1813 0.930 . S
H1798 C1814 0.931 . S
C1799 H1787 0.929 . S
C1799 C1793 1.390 . S
C1799 C1796 1.386 . S
C1800 C1795 1.490 . S
C1800 C1802 1.395 . S
C1800 C1803 1.403 . S
H1801 C1807 0.930 . S
C1802 H1788 0.930 . S
C1802 C1800 1.395 . S
C1802 C1805 1.403 . S
C1803 C1800 1.403 . S
C1803 C1804 1.524 . S
C1803 C1807 1.400 . S
C1804 H1789 0.960 . S
C1804 H1790 0.960 . S
C1804 H1791 0.960 . S
C1804 C1803 1.524 . S
C1805 C1802 1.403 . S
C1805 C1806 1.392 . S
C1805 C1809 1.495 . S
C1806 C1805 1.392 . S
C1806 C1807 1.385 . S
C1806 C1808 1.478 . S
C1807 H1801 0.930 . S
C1807 C1803 1.400 . S
C1807 C1806 1.385 . S
C1808 C1806 1.478 . S
C1808 C1810 1.381 . S
C1808 C1814 1.383 . S
C1809 C1805 1.495 . S
C1809 H1815 0.959 . S
C1809 H1816 0.961 . S
C1809 H1817 0.960 . S
C1810 C1808 1.381 . S
C1810 C1811 1.394 . S
C1810 H1818 0.930 . S
C1811 C1810 1.394 . S
C1811 C1812 1.383 . S
C1811 H1819 0.929 . S
C1812 C1811 1.383 . S
C1812 C1813 1.377 . S
C1813 H1797 0.930 . S
C1813 C1812 1.377 . S
C1813 C1814 1.379 . S
C1814 H1798 0.931 . S
C1814 C1808 1.383 . S
C1814 C1813 1.379 . S
H1815 C1809 0.959 . S
H1816 C1809 0.961 . S
H1817 C1809 0.960 . S
H1818 C1810 0.930 . S
H1819 C1811 0.929 . S
H1820 C1828 0.929 . S
H1821 C1830 0.930 . S
H1822 C1832 0.930 . S
H1823 C1835 0.929 . S
H1824 C1838 0.930 . S
H1825 C1840 0.960 . S
H1826 C1840 0.960 . S
H1827 C1840 0.960 . S
C1828 H1820 0.929 . S
C1828 C1829 1.377 . S
C1828 C1830 1.384 . S
C1829 C1828 1.377 . S
C1829 C1835 1.390 . S
C1830 H1821 0.930 . S
C1830 C1828 1.384 . S
C1830 C1831 1.372 . S
C1831 C1830 1.372 . S
C1831 C1832 1.400 . S
C1831 C1836 1.490 . S
C1832 H1822 0.930 . S
C1832 C1831 1.400 . S
C1832 C1835 1.386 . S
H1833 C1849 0.930 . S
H1834 C1850 0.931 . S
C1835 H1823 0.929 . S
C1835 C1829 1.390 . S
C1835 C1832 1.386 . S
C1836 C1831 1.490 . S
C1836 C1838 1.395 . S
C1836 C1839 1.403 . S
H1837 C1843 0.930 . S
C1838 H1824 0.930 . S
C1838 C1836 1.395 . S
C1838 C1841 1.403 . S
C1839 C1836 1.403 . S
C1839 C1840 1.524 . S
C1839 C1843 1.400 . S
C1840 H1825 0.960 . S
C1840 H1826 0.960 . S
C1840 H1827 0.960 . S
C1840 C1839 1.524 . S
C1841 C1838 1.403 . S
C1841 C1842 1.392 . S
C1841 C1845 1.495 . S
C1842 C1841 1.392 . S
C1842 C1843 1.385 . S
C1842 C1844 1.478 . S
C1843 H1837 0.930 . S
C1843 C1839 1.400 . S
C1843 C1842 1.385 . S
C1844 C1842 1.478 . S
C1844 C1846 1.381 . S
C1844 C1850 1.383 . S
C1845 C1841 1.495 . S
C1845 H1851 0.959 . S
C1845 H1852 0.961 . S
C1845 H1853 0.960 . S
C1846 C1844 1.381 . S
C1846 C1847 1.394 . S
C1846 H1854 0.930 . S
C1847 C1846 1.394 . S
C1847 C1848 1.383 . S
C1847 H1855 0.929 . S
C1848 C1847 1.383 . S
C1848 C1849 1.377 . S
C1849 H1833 0.930 . S
C1849 C1848 1.377 . S
C1849 C1850 1.379 . S
C1850 H1834 0.931 . S
C1850 C1844 1.383 . S
C1850 C1849 1.379 . S
H1851 C1845 0.959 . S
H1852 C1845 0.961 . S
H1853 C1845 0.960 . S
H1854 C1846 0.930 . S
H1855 C1847 0.929 . S
H1856 C1864 0.929 . S
H1857 C1866 0.930 . S
H1858 C1868 0.930 . S
H1859 C1871 0.929 . S
H1860 C1874 0.930 . S
H1861 C1876 0.960 . S
H1862 C1876 0.960 . S
H1863 C1876 0.960 . S
C1864 H1856 0.929 . S
C1864 C1865 1.377 . S
C1864 C1866 1.384 . S
C1865 C1864 1.377 . S
C1865 C1871 1.390 . S
C1866 H1857 0.930 . S
C1866 C1864 1.384 . S
C1866 C1867 1.372 . S
C1867 C1866 1.372 . S
C1867 C1868 1.400 . S
C1867 C1872 1.490 . S
C1868 H1858 0.930 . S
C1868 C1867 1.400 . S
C1868 C1871 1.386 . S
H1869 C1885 0.930 . S
H1870 C1886 0.931 . S
C1871 H1859 0.929 . S
C1871 C1865 1.390 . S
C1871 C1868 1.386 . S
C1872 C1867 1.490 . S
C1872 C1874 1.395 . S
C1872 C1875 1.403 . S
H1873 C1879 0.930 . S
C1874 H1860 0.930 . S
C1874 C1872 1.395 . S
C1874 C1877 1.403 . S
C1875 C1872 1.403 . S
C1875 C1876 1.524 . S
C1875 C1879 1.400 . S
C1876 H1861 0.960 . S
C1876 H1862 0.960 . S
C1876 H1863 0.960 . S
C1876 C1875 1.524 . S
C1877 C1874 1.403 . S
C1877 C1878 1.392 . S
C1877 C1881 1.495 . S
C1878 C1877 1.392 . S
C1878 C1879 1.385 . S
C1878 C1880 1.478 . S
C1879 H1873 0.930 . S
C1879 C1875 1.400 . S
C1879 C1878 1.385 . S
C1880 C1878 1.478 . S
C1880 C1882 1.381 . S
C1880 C1886 1.383 . S
C1881 C1877 1.495 . S
C1881 H1887 0.959 . S
C1881 H1888 0.961 . S
C1881 H1889 0.960 . S
C1882 C1880 1.381 . S
C1882 C1883 1.394 . S
C1882 H1890 0.930 . S
C1883 C1882 1.394 . S
C1883 C1884 1.383 . S
C1883 H1891 0.929 . S
C1884 C1883 1.383 . S
C1884 C1885 1.377 . S
C1885 H1869 0.930 . S
C1885 C1884 1.377 . S
C1885 C1886 1.379 . S
C1886 H1870 0.931 . S
C1886 C1880 1.383 . S
C1886 C1885 1.379 . S
H1887 C1881 0.959 . S
H1888 C1881 0.961 . S
H1889 C1881 0.960 . S
H1890 C1882 0.930 . S
H1891 C1883 0.929 . S
H1892 C1900 0.929 . S
H1893 C1902 0.930 . S
H1894 C1904 0.930 . S
H1895 C1907 0.929 . S
H1896 C1910 0.930 . S
H1897 C1912 0.960 . S
H1898 C1912 0.960 . S
H1899 C1912 0.960 . S
C1900 H1892 0.929 . S
C1900 C1901 1.377 . S
C1900 C1902 1.384 . S
C1901 C1900 1.377 . S
C1901 C1907 1.390 . S
C1902 H1893 0.930 . S
C1902 C1900 1.384 . S
C1902 C1903 1.372 . S
C1903 C1902 1.372 . S
C1903 C1904 1.400 . S
C1903 C1908 1.490 . S
C1904 H1894 0.930 . S
C1904 C1903 1.400 . S
C1904 C1907 1.386 . S
H1905 C1921 0.930 . S
H1906 C1922 0.931 . S
C1907 H1895 0.929 . S
C1907 C1901 1.390 . S
C1907 C1904 1.386 . S
C1908 C1903 1.490 . S
C1908 C1910 1.395 . S
C1908 C1911 1.403 . S
H1909 C1915 0.930 . S
C1910 H1896 0.930 . S
C1910 C1908 1.395 . S
C1910 C1913 1.403 . S
C1911 C1908 1.403 . S
C1911 C1912 1.524 . S
C1911 C1915 1.400 . S
C1912 H1897 0.960 . S
C1912 H1898 0.960 . S
C1912 H1899 0.960 . S
C1912 C1911 1.524 . S
C1913 C1910 1.403 . S
C1913 C1914 1.392 . S
C1913 C1917 1.495 . S
C1914 C1913 1.392 . S
C1914 C1915 1.385 . S
C1914 C1916 1.478 . S
C1915 H1909 0.930 . S
C1915 C1911 1.400 . S
C1915 C1914 1.385 . S
C1916 C1914 1.478 . S
C1916 C1918 1.381 . S
C1916 C1922 1.383 . S
C1917 C1913 1.495 . S
C1917 H1923 0.959 . S
C1917 H1924 0.961 . S
C1917 H1925 0.960 . S
C1918 C1916 1.381 . S
C1918 C1919 1.394 . S
C1918 H1926 0.930 . S
C1919 C1918 1.394 . S
C1919 C1920 1.383 . S
C1919 H1927 0.929 . S
C1920 C1919 1.383 . S
C1920 C1921 1.377 . S
C1921 H1905 0.930 . S
C1921 C1920 1.377 . S
C1921 C1922 1.379 . S
C1922 H1906 0.931 . S
C1922 C1916 1.383 . S
C1922 C1921 1.379 . S
H1923 C1917 0.959 . S
H1924 C1917 0.961 . S
H1925 C1917 0.960 . S
H1926 C1918 0.930 . S
H1927 C1919 0.929 . S
H1928 C1936 0.929 . S
H1929 C1938 0.930 . S
H1930 C1940 0.930 . S
H1931 C1943 0.929 . S
H1932 C1946 0.930 . S
H1933 C1948 0.960 . S
H1934 C1948 0.960 . S
H1935 C1948 0.960 . S
C1936 H1928 0.929 . S
C1936 C1937 1.377 . S
C1936 C1938 1.384 . S
C1937 C1936 1.377 . S
C1937 C1943 1.390 . S
C1938 H1929 0.930 . S
C1938 C1936 1.384 . S
C1938 C1939 1.372 . S
C1939 C1938 1.372 . S
C1939 C1940 1.400 . S
C1939 C1944 1.490 . S
C1940 H1930 0.930 . S
C1940 C1939 1.400 . S
C1940 C1943 1.386 . S
H1941 C1957 0.930 . S
H1942 C1958 0.931 . S
C1943 H1931 0.929 . S
C1943 C1937 1.390 . S
C1943 C1940 1.386 . S
C1944 C1939 1.490 . S
C1944 C1946 1.395 . S
C1944 C1947 1.403 . S
H1945 C1951 0.930 . S
C1946 H1932 0.930 . S
C1946 C1944 1.395 . S
C1946 C1949 1.403 . S
C1947 C1944 1.403 . S
C1947 C1948 1.524 . S
C1947 C1951 1.400 . S
C1948 H1933 0.960 . S
C1948 H1934 0.960 . S
C1948 H1935 0.960 . S
C1948 C1947 1.524 . S
C1949 C1946 1.403 . S
C1949 C1950 1.392 . S
C1949 C1953 1.495 . S
C1950 C1949 1.392 . S
C1950 C1951 1.385 . S
C1950 C1952 1.478 . S
C1951 H1945 0.930 . S
C1951 C1947 1.400 . S
C1951 C1950 1.385 . S
C1952 C1950 1.478 . S
C1952 C1954 1.381 . S
C1952 C1958 1.383 . S
C1953 C1949 1.495 . S
C1953 H1959 0.959 . S
C1953 H1960 0.961 . S
C1953 H1961 0.960 . S
C1954 C1952 1.381 . S
C1954 C1955 1.394 . S
C1954 H1962 0.930 . S
C1955 C1954 1.394 . S
C1955 C1956 1.383 . S
C1955 H1963 0.929 . S
C1956 C1955 1.383 . S
C1956 C1957 1.377 . S
C1957 H1941 0.930 . S
C1957 C1956 1.377 . S
C1957 C1958 1.379 . S
C1958 H1942 0.931 . S
C1958 C1952 1.383 . S
C1958 C1957 1.379 . S
H1959 C1953 0.959 . S
H1960 C1953 0.961 . S
H1961 C1953 0.960 . S
H1962 C1954 0.930 . S
H1963 C1955 0.929 . S
H1964 C1972 0.929 . S
H1965 C1974 0.930 . S
H1966 C1976 0.930 . S
H1967 C1979 0.929 . S
H1968 C1982 0.930 . S
H1969 C1984 0.960 . S
H1970 C1984 0.960 . S
H1971 C1984 0.960 . S
C1972 H1964 0.929 . S
C1972 C1973 1.377 . S
C1972 C1974 1.384 . S
C1973 C1972 1.377 . S
C1973 C1979 1.390 . S
C1974 H1965 0.930 . S
C1974 C1972 1.384 . S
C1974 C1975 1.372 . S
C1975 C1974 1.372 . S
C1975 C1976 1.400 . S
C1975 C1980 1.490 . S
C1976 H1966 0.930 . S
C1976 C1975 1.400 . S
C1976 C1979 1.386 . S
H1977 C1993 0.930 . S
H1978 C1994 0.931 . S
C1979 H1967 0.929 . S
C1979 C1973 1.390 . S
C1979 C1976 1.386 . S
C1980 C1975 1.490 . S
C1980 C1982 1.395 . S
C1980 C1983 1.403 . S
H1981 C1987 0.930 . S
C1982 H1968 0.930 . S
C1982 C1980 1.395 . S
C1982 C1985 1.403 . S
C1983 C1980 1.403 . S
C1983 C1984 1.524 . S
C1983 C1987 1.400 . S
C1984 H1969 0.960 . S
C1984 H1970 0.960 . S
C1984 H1971 0.960 . S
C1984 C1983 1.524 . S
C1985 C1982 1.403 . S
C1985 C1986 1.392 . S
C1985 C1989 1.495 . S
C1986 C1985 1.392 . S
C1986 C1987 1.385 . S
C1986 C1988 1.478 . S
C1987 H1981 0.930 . S
C1987 C1983 1.400 . S
C1987 C1986 1.385 . S
C1988 C1986 1.478 . S
C1988 C1990 1.381 . S
C1988 C1994 1.383 . S
C1989 C1985 1.495 . S
C1989 H1995 0.959 . S
C1989 H1996 0.961 . S
C1989 H1997 0.960 . S
C1990 C1988 1.381 . S
C1990 C1991 1.394 . S
C1990 H1998 0.930 . S
C1991 C1990 1.394 . S
C1991 C1992 1.383 . S
C1991 H1999 0.929 . S
C1992 C1991 1.383 . S
C1992 C1993 1.377 . S
C1993 H1977 0.930 . S
C1993 C1992 1.377 . S
C1993 C1994 1.379 . S
C1994 H1978 0.931 . S
C1994 C1988 1.383 . S
C1994 C1993 1.379 . S
H1995 C1989 0.959 . S
H1996 C1989 0.961 . S
H1997 C1989 0.960 . S
H1998 C1990 0.930 . S
H1999 C1991 0.929 . S
H2000 C2008 0.929 . S
H2001 C2010 0.930 . S
H2002 C2012 0.930 . S
H2003 C2015 0.929 . S
H2004 C2018 0.930 . S
H2005 C2020 0.960 . S
H2006 C2020 0.960 . S
H2007 C2020 0.960 . S
C2008 H2000 0.929 . S
C2008 C2009 1.377 . S
C2008 C2010 1.384 . S
C2009 C2008 1.377 . S
C2009 C2015 1.390 . S
C2010 H2001 0.930 . S
C2010 C2008 1.384 . S
C2010 C2011 1.372 . S
C2011 C2010 1.372 . S
C2011 C2012 1.400 . S
C2011 C2016 1.490 . S
C2012 H2002 0.930 . S
C2012 C2011 1.400 . S
C2012 C2015 1.386 . S
H2013 C2029 0.930 . S
H2014 C2030 0.931 . S
C2015 H2003 0.929 . S
C2015 C2009 1.390 . S
C2015 C2012 1.386 . S
C2016 C2011 1.490 . S
C2016 C2018 1.395 . S
C2016 C2019 1.403 . S
H2017 C2023 0.930 . S
C2018 H2004 0.930 . S
C2018 C2016 1.395 . S
C2018 C2021 1.403 . S
C2019 C2016 1.403 . S
C2019 C2020 1.524 . S
C2019 C2023 1.400 . S
C2020 H2005 0.960 . S
C2020 H2006 0.960 . S
C2020 H2007 0.960 . S
C2020 C2019 1.524 . S
C2021 C2018 1.403 . S
C2021 C2022 1.392 . S
C2021 C2025 1.495 . S
C2022 C2021 1.392 . S
C2022 C2023 1.385 . S
C2022 C2024 1.478 . S
C2023 H2017 0.930 . S
C2023 C2019 1.400 . S
C2023 C2022 1.385 . S
C2024 C2022 1.478 . S
C2024 C2026 1.381 . S
C2024 C2030 1.383 . S
C2025 C2021 1.495 . S
C2025 H2031 0.959 . S
C2025 H2032 0.961 . S
C2025 H2033 0.960 . S
C2026 C2024 1.381 . S
C2026 C2027 1.394 . S
C2026 H2034 0.930 . S
C2027 C2026 1.394 . S
C2027 C2028 1.383 . S
C2027 H2035 0.929 . S
C2028 C2027 1.383 . S
C2028 C2029 1.377 . S
C2029 H2013 0.930 . S
C2029 C2028 1.377 . S
C2029 C2030 1.379 . S
C2030 H2014 0.931 . S
C2030 C2024 1.383 . S
C2030 C2029 1.379 . S
H2031 C2025 0.959 . S
H2032 C2025 0.961 . S
H2033 C2025 0.960 . S
H2034 C2026 0.930 . S
H2035 C2027 0.929 . S
H2036 C2044 0.929 . S
H2037 C2046 0.930 . S
H2038 C2048 0.930 . S
H2039 C2051 0.929 . S
H2040 C2054 0.930 . S
H2041 C2056 0.960 . S
H2042 C2056 0.960 . S
H2043 C2056 0.960 . S
C2044 H2036 0.929 . S
C2044 C2045 1.377 . S
C2044 C2046 1.384 . S
C2045 C2044 1.377 . S
C2045 C2051 1.390 . S
C2046 H2037 0.930 . S
C2046 C2044 1.384 . S
C2046 C2047 1.372 . S
C2047 C2046 1.372 . S
C2047 C2048 1.400 . S
C2047 C2052 1.490 . S
C2048 H2038 0.930 . S
C2048 C2047 1.400 . S
C2048 C2051 1.386 . S
H2049 C2065 0.930 . S
H2050 C2066 0.931 . S
C2051 H2039 0.929 . S
C2051 C2045 1.390 . S
C2051 C2048 1.386 . S
C2052 C2047 1.490 . S
C2052 C2054 1.395 . S
C2052 C2055 1.403 . S
H2053 C2059 0.930 . S
C2054 H2040 0.930 . S
C2054 C2052 1.395 . S
C2054 C2057 1.403 . S
C2055 C2052 1.403 . S
C2055 C2056 1.524 1_556 S
C2055 C2059 1.400 . S
C2056 H2041 0.960 . S
C2056 H2042 0.960 . S
C2056 H2043 0.960 . S
C2056 C2055 1.524 1_554 S
C2057 C2054 1.403 . S
C2057 C2058 1.392 . S
C2057 C2061 1.495 . S
C2058 C2057 1.392 . S
C2058 C2059 1.385 . S
C2058 C2060 1.478 . S
C2059 H2053 0.930 . S
C2059 C2055 1.400 . S
C2059 C2058 1.385 . S
C2060 C2058 1.478 . S
C2060 C2062 1.381 . S
C2060 C2066 1.383 . S
C2061 C2057 1.495 . S
C2061 H2067 0.959 . S
C2061 H2068 0.961 . S
C2061 H2069 0.960 . S
C2062 C2060 1.381 . S
C2062 C2063 1.394 . S
C2062 H2070 0.930 . S
C2063 C2062 1.394 . S
C2063 C2064 1.383 . S
C2063 H2071 0.929 . S
C2064 C2063 1.383 . S
C2064 C2065 1.377 . S
C2065 H2049 0.930 . S
C2065 C2064 1.377 . S
C2065 C2066 1.379 . S
C2066 H2050 0.931 . S
C2066 C2060 1.383 . S
C2066 C2065 1.379 . S
H2067 C2061 0.959 . S
H2068 C2061 0.961 . S
H2069 C2061 0.960 . S
H2070 C2062 0.930 . S
H2071 C2063 0.929 . S
H2072 C2080 0.929 . S
H2073 C2082 0.930 . S
H2074 C2084 0.930 . S
H2075 C2087 0.929 . S
H2076 C2090 0.930 . S
H2077 C2092 0.960 . S
H2078 C2092 0.960 . S
H2079 C2092 0.960 . S
C2080 H2072 0.929 . S
C2080 C2081 1.377 . S
C2080 C2082 1.384 . S
C2081 C2080 1.377 . S
C2081 C2087 1.390 . S
C2082 H2073 0.930 . S
C2082 C2080 1.384 . S
C2082 C2083 1.372 . S
C2083 C2082 1.372 . S
C2083 C2084 1.400 . S
C2083 C2088 1.490 . S
C2084 H2074 0.930 . S
C2084 C2083 1.400 . S
C2084 C2087 1.386 . S
H2085 C2101 0.930 . S
H2086 C2102 0.931 . S
C2087 H2075 0.929 . S
C2087 C2081 1.390 . S
C2087 C2084 1.386 . S
C2088 C2083 1.490 . S
C2088 C2090 1.395 . S
C2088 C2091 1.403 . S
H2089 C2095 0.930 . S
C2090 H2076 0.930 . S
C2090 C2088 1.395 . S
C2090 C2093 1.403 . S
C2091 C2088 1.403 . S
C2091 C2092 1.524 . S
C2091 C2095 1.400 . S
C2092 H2077 0.960 . S
C2092 H2078 0.960 . S
C2092 H2079 0.960 . S
C2092 C2091 1.524 . S
C2093 C2090 1.403 . S
C2093 C2094 1.392 . S
C2093 C2097 1.495 . S
C2094 C2093 1.392 . S
C2094 C2095 1.385 . S
C2094 C2096 1.478 . S
C2095 H2089 0.930 . S
C2095 C2091 1.400 . S
C2095 C2094 1.385 . S
C2096 C2094 1.478 . S
C2096 C2098 1.381 . S
C2096 C2102 1.383 . S
C2097 C2093 1.495 . S
C2097 H2103 0.959 . S
C2097 H2104 0.961 . S
C2097 H2105 0.960 . S
C2098 C2096 1.381 . S
C2098 C2099 1.394 . S
C2098 H2106 0.930 . S
C2099 C2098 1.394 . S
C2099 C2100 1.383 . S
C2099 H2107 0.929 . S
C2100 C2099 1.383 . S
C2100 C2101 1.377 . S
C2101 H2085 0.930 . S
C2101 C2100 1.377 . S
C2101 C2102 1.379 . S
C2102 H2086 0.931 . S
C2102 C2096 1.383 . S
C2102 C2101 1.379 . S
H2103 C2097 0.959 . S
H2104 C2097 0.961 . S
H2105 C2097 0.960 . S
H2106 C2098 0.930 . S
H2107 C2099 0.929 . S
H2108 C2116 0.929 . S
H2109 C2118 0.930 . S
H2110 C2120 0.930 . S
H2111 C2123 0.929 . S
H2112 C2126 0.930 1_556 S
H2113 C2128 0.960 . S
H2114 C2128 0.960 . S
H2115 C2128 0.960 . S
C2116 H2108 0.929 . S
C2116 C2117 1.377 . S
C2116 C2118 1.384 . S
C2117 C2116 1.377 . S
C2117 C2123 1.390 . S
C2118 H2109 0.930 . S
C2118 C2116 1.384 . S
C2118 C2119 1.372 . S
C2119 C2118 1.372 . S
C2119 C2120 1.400 . S
C2119 C2124 1.490 . S
C2120 H2110 0.930 . S
C2120 C2119 1.400 . S
C2120 C2123 1.386 . S
H2121 C2137 0.930 . S
H2122 C2138 0.931 . S
C2123 H2111 0.929 . S
C2123 C2117 1.390 . S
C2123 C2120 1.386 . S
C2124 C2119 1.490 . S
C2124 C2126 1.395 . S
C2124 C2127 1.403 . S
H2125 C2131 0.930 . S
C2126 H2112 0.930 1_554 S
C2126 C2124 1.395 . S
C2126 C2129 1.403 . S
C2127 C2124 1.403 . S
C2127 C2128 1.524 . S
C2127 C2131 1.400 . S
C2128 H2113 0.960 . S
C2128 H2114 0.960 . S
C2128 H2115 0.960 . S
C2128 C2127 1.524 . S
C2129 C2126 1.403 . S
C2129 C2130 1.392 . S
C2129 C2133 1.495 1_554 S
C2130 C2129 1.392 . S
C2130 C2131 1.385 . S
C2130 C2132 1.478 . S
C2131 H2125 0.930 . S
C2131 C2127 1.400 . S
C2131 C2130 1.385 . S
C2132 C2130 1.478 . S
C2132 C2134 1.381 . S
C2132 C2138 1.383 . S
C2133 C2129 1.495 1_556 S
C2133 H2139 0.959 . S
C2133 H2140 0.961 . S
C2133 H2141 0.960 . S
C2134 C2132 1.381 . S
C2134 C2135 1.394 . S
C2134 H2142 0.930 . S
C2135 C2134 1.394 . S
C2135 C2136 1.383 . S
C2135 H2143 0.929 . S
C2136 C2135 1.383 . S
C2136 C2137 1.377 . S
C2137 H2121 0.930 . S
C2137 C2136 1.377 . S
C2137 C2138 1.379 . S
C2138 H2122 0.931 . S
C2138 C2132 1.383 . S
C2138 C2137 1.379 . S
H2139 C2133 0.959 . S
H2140 C2133 0.961 . S
H2141 C2133 0.960 . S
H2142 C2134 0.930 . S
H2143 C2135 0.929 . S
H2144 C2152 0.929 . S
H2145 C2154 0.930 . S
H2146 C2156 0.930 . S
H2147 C2159 0.929 . S
H2148 C2162 0.930 . S
H2149 C2164 0.960 . S
H2150 C2164 0.960 . S
H2151 C2164 0.960 . S
C2152 H2144 0.929 . S
C2152 C2153 1.377 . S
C2152 C2154 1.384 1_455 S
C2153 C2152 1.377 . S
C2153 C2159 1.390 1_455 S
C2154 H2145 0.930 . S
C2154 C2152 1.384 1_655 S
C2154 C2155 1.372 . S
C2155 C2154 1.372 . S
C2155 C2156 1.400 . S
C2155 C2160 1.490 . S
C2156 H2146 0.930 . S
C2156 C2155 1.400 . S
C2156 C2159 1.386 . S
H2157 C2173 0.930 . S
H2158 C2174 0.931 . S
C2159 H2147 0.929 . S
C2159 C2153 1.390 1_655 S
C2159 C2156 1.386 . S
C2160 C2155 1.490 . S
C2160 C2162 1.395 . S
C2160 C2163 1.403 . S
H2161 C2167 0.930 . S
C2162 H2148 0.930 . S
C2162 C2160 1.395 . S
C2162 C2165 1.403 . S
C2163 C2160 1.403 . S
C2163 C2164 1.524 . S
C2163 C2167 1.400 . S
C2164 H2149 0.960 . S
C2164 H2150 0.960 . S
C2164 H2151 0.960 . S
C2164 C2163 1.524 . S
C2165 C2162 1.403 . S
C2165 C2166 1.392 . S
C2165 C2169 1.495 . S
C2166 C2165 1.392 . S
C2166 C2167 1.385 . S
C2166 C2168 1.478 . S
C2167 H2161 0.930 . S
C2167 C2163 1.400 . S
C2167 C2166 1.385 . S
C2168 C2166 1.478 . S
C2168 C2170 1.381 . S
C2168 C2174 1.383 . S
C2169 C2165 1.495 . S
C2169 H2175 0.959 . S
C2169 H2176 0.961 . S
C2169 H2177 0.960 . S
C2170 C2168 1.381 . S
C2170 C2171 1.394 . S
C2170 H2178 0.930 . S
C2171 C2170 1.394 . S
C2171 C2172 1.383 . S
C2171 H2179 0.929 . S
C2172 C2171 1.383 . S
C2172 C2173 1.377 . S
C2173 H2157 0.930 . S
C2173 C2172 1.377 . S
C2173 C2174 1.379 . S
C2174 H2158 0.931 . S
C2174 C2168 1.383 . S
C2174 C2173 1.379 . S
H2175 C2169 0.959 . S
H2176 C2169 0.961 . S
H2177 C2169 0.960 . S
H2178 C2170 0.930 . S
H2179 C2171 0.929 . S
H2180 C2188 0.929 . S
H2181 C2190 0.930 . S
H2182 C2192 0.930 . S
H2183 C2195 0.929 . S
H2184 C2198 0.930 . S
H2185 C2200 0.960 . S
H2186 C2200 0.960 . S
H2187 C2200 0.960 . S
C2188 H2180 0.929 . S
C2188 C2189 1.377 . S
C2188 C2190 1.384 . S
C2189 C2188 1.377 . S
C2189 C2195 1.390 . S
C2190 H2181 0.930 . S
C2190 C2188 1.384 . S
C2190 C2191 1.372 . S
C2191 C2190 1.372 . S
C2191 C2192 1.400 . S
C2191 C2196 1.490 . S
C2192 H2182 0.930 . S
C2192 C2191 1.400 . S
C2192 C2195 1.386 . S
H2193 C2209 0.930 . S
H2194 C2210 0.931 . S
C2195 H2183 0.929 . S
C2195 C2189 1.390 . S
C2195 C2192 1.386 . S
C2196 C2191 1.490 . S
C2196 C2198 1.395 . S
C2196 C2199 1.403 . S
H2197 C2203 0.930 . S
C2198 H2184 0.930 . S
C2198 C2196 1.395 . S
C2198 C2201 1.403 . S
C2199 C2196 1.403 . S
C2199 C2200 1.524 . S
C2199 C2203 1.400 . S
C2200 H2185 0.960 . S
C2200 H2186 0.960 . S
C2200 H2187 0.960 . S
C2200 C2199 1.524 . S
C2201 C2198 1.403 . S
C2201 C2202 1.392 . S
C2201 C2205 1.495 . S
C2202 C2201 1.392 . S
C2202 C2203 1.385 . S
C2202 C2204 1.478 . S
C2203 H2197 0.930 . S
C2203 C2199 1.400 . S
C2203 C2202 1.385 . S
C2204 C2202 1.478 . S
C2204 C2206 1.381 . S
C2204 C2210 1.383 . S
C2205 C2201 1.495 . S
C2205 H2211 0.959 . S
C2205 H2212 0.961 . S
C2205 H2213 0.960 . S
C2206 C2204 1.381 . S
C2206 C2207 1.394 . S
C2206 H2214 0.930 . S
C2207 C2206 1.394 . S
C2207 C2208 1.383 . S
C2207 H2215 0.929 . S
C2208 C2207 1.383 . S
C2208 C2209 1.377 . S
C2209 H2193 0.930 . S
C2209 C2208 1.377 . S
C2209 C2210 1.379 . S
C2210 H2194 0.931 . S
C2210 C2204 1.383 . S
C2210 C2209 1.379 . S
H2211 C2205 0.959 . S
H2212 C2205 0.961 . S
H2213 C2205 0.960 . S
H2214 C2206 0.930 . S
H2215 C2207 0.929 . S
H2216 C2224 0.929 . S
H2217 C2226 0.930 . S
H2218 C2228 0.930 . S
H2219 C2231 0.929 . S
H2220 C2234 0.930 . S
H2221 C2236 0.960 . S
H2222 C2236 0.960 . S
H2223 C2236 0.960 . S
C2224 H2216 0.929 . S
C2224 C2225 1.377 . S
C2224 C2226 1.384 . S
C2225 C2224 1.377 . S
C2225 C2231 1.390 . S
C2226 H2217 0.930 . S
C2226 C2224 1.384 . S
C2226 C2227 1.372 . S
C2227 C2226 1.372 . S
C2227 C2228 1.400 . S
C2227 C2232 1.490 . S
C2228 H2218 0.930 . S
C2228 C2227 1.400 . S
C2228 C2231 1.386 . S
H2229 C2245 0.930 . S
H2230 C2246 0.931 . S
C2231 H2219 0.929 . S
C2231 C2225 1.390 . S
C2231 C2228 1.386 . S
C2232 C2227 1.490 . S
C2232 C2234 1.395 . S
C2232 C2235 1.403 . S
H2233 C2239 0.930 . S
C2234 H2220 0.930 . S
C2234 C2232 1.395 . S
C2234 C2237 1.403 . S
C2235 C2232 1.403 . S
C2235 C2236 1.524 . S
C2235 C2239 1.400 . S
C2236 H2221 0.960 . S
C2236 H2222 0.960 . S
C2236 H2223 0.960 . S
C2236 C2235 1.524 . S
C2237 C2234 1.403 . S
C2237 C2238 1.392 . S
C2237 C2241 1.495 . S
C2238 C2237 1.392 . S
C2238 C2239 1.385 . S
C2238 C2240 1.478 . S
C2239 H2233 0.930 . S
C2239 C2235 1.400 . S
C2239 C2238 1.385 . S
C2240 C2238 1.478 . S
C2240 C2242 1.381 . S
C2240 C2246 1.383 . S
C2241 C2237 1.495 . S
C2241 H2247 0.959 . S
C2241 H2248 0.961 . S
C2241 H2249 0.960 . S
C2242 C2240 1.381 . S
C2242 C2243 1.394 1_655 S
C2242 H2250 0.930 1_655 S
C2243 C2242 1.394 1_455 S
C2243 C2244 1.383 . S
C2243 H2251 0.929 . S
C2244 C2243 1.383 . S
C2244 C2245 1.377 1_455 S
C2245 H2229 0.930 . S
C2245 C2244 1.377 1_655 S
C2245 C2246 1.379 . S
C2246 H2230 0.931 . S
C2246 C2240 1.383 . S
C2246 C2245 1.379 . S
H2247 C2241 0.959 . S
H2248 C2241 0.961 . S
H2249 C2241 0.960 . S
H2250 C2242 0.930 1_455 S
H2251 C2243 0.929 . S
H2252 C2260 0.929 . S
H2253 C2262 0.930 . S
H2254 C2264 0.930 . S
H2255 C2267 0.929 . S
H2256 C2270 0.930 . S
H2257 C2272 0.960 . S
H2258 C2272 0.960 . S
H2259 C2272 0.960 . S
C2260 H2252 0.929 . S
C2260 C2261 1.377 . S
C2260 C2262 1.384 . S
C2261 C2260 1.377 . S
C2261 C2267 1.390 . S
C2262 H2253 0.930 . S
C2262 C2260 1.384 . S
C2262 C2263 1.372 . S
C2263 C2262 1.372 . S
C2263 C2264 1.400 . S
C2263 C2268 1.490 . S
C2264 H2254 0.930 . S
C2264 C2263 1.400 . S
C2264 C2267 1.386 . S
H2265 C2281 0.930 . S
H2266 C2282 0.931 . S
C2267 H2255 0.929 . S
C2267 C2261 1.390 . S
C2267 C2264 1.386 . S
C2268 C2263 1.490 . S
C2268 C2270 1.395 . S
C2268 C2271 1.403 . S
H2269 C2275 0.930 . S
C2270 H2256 0.930 . S
C2270 C2268 1.395 . S
C2270 C2273 1.403 . S
C2271 C2268 1.403 . S
C2271 C2272 1.524 . S
C2271 C2275 1.400 . S
C2272 H2257 0.960 . S
C2272 H2258 0.960 . S
C2272 H2259 0.960 . S
C2272 C2271 1.524 . S
C2273 C2270 1.403 . S
C2273 C2274 1.392 . S
C2273 C2277 1.495 . S
C2274 C2273 1.392 . S
C2274 C2275 1.385 . S
C2274 C2276 1.478 . S
C2275 H2269 0.930 . S
C2275 C2271 1.400 . S
C2275 C2274 1.385 . S
C2276 C2274 1.478 . S
C2276 C2278 1.381 . S
C2276 C2282 1.383 . S
C2277 C2273 1.495 . S
C2277 H2283 0.959 . S
C2277 H2284 0.961 . S
C2277 H2285 0.960 . S
C2278 C2276 1.381 . S
C2278 C2279 1.394 . S
C2278 H2286 0.930 . S
C2279 C2278 1.394 . S
C2279 C2280 1.383 . S
C2279 H2287 0.929 . S
C2280 C2279 1.383 . S
C2280 C2281 1.377 . S
C2281 H2265 0.930 . S
C2281 C2280 1.377 . S
C2281 C2282 1.379 . S
C2282 H2266 0.931 . S
C2282 C2276 1.383 . S
C2282 C2281 1.379 . S
H2283 C2277 0.959 . S
H2284 C2277 0.961 . S
H2285 C2277 0.960 . S
H2286 C2278 0.930 . S
H2287 C2279 0.929 . S
H2288 C2296 0.929 . S
H2289 C2298 0.930 . S
H2290 C2300 0.930 . S
H2291 C2303 0.929 . S
H2292 C2306 0.930 . S
H2293 C2308 0.960 . S
H2294 C2308 0.960 . S
H2295 C2308 0.960 . S
C2296 H2288 0.929 . S
C2296 C2297 1.377 . S
C2296 C2298 1.384 . S
C2297 C2296 1.377 . S
C2297 C2303 1.390 . S
C2298 H2289 0.930 . S
C2298 C2296 1.384 . S
C2298 C2299 1.372 . S
C2299 C2298 1.372 . S
C2299 C2300 1.400 . S
C2299 C2304 1.490 . S
C2300 H2290 0.930 . S
C2300 C2299 1.400 . S
C2300 C2303 1.386 . S
H2301 C2317 0.930 . S
H2302 C2318 0.931 . S
C2303 H2291 0.929 . S
C2303 C2297 1.390 . S
C2303 C2300 1.386 . S
C2304 C2299 1.490 . S
C2304 C2306 1.395 . S
C2304 C2307 1.403 . S
H2305 C2311 0.930 . S
C2306 H2292 0.930 . S
C2306 C2304 1.395 . S
C2306 C2309 1.403 . S
C2307 C2304 1.403 . S
C2307 C2308 1.524 . S
C2307 C2311 1.400 . S
C2308 H2293 0.960 . S
C2308 H2294 0.960 . S
C2308 H2295 0.960 . S
C2308 C2307 1.524 . S
C2309 C2306 1.403 . S
C2309 C2310 1.392 . S
C2309 C2313 1.495 . S
C2310 C2309 1.392 . S
C2310 C2311 1.385 . S
C2310 C2312 1.478 . S
C2311 H2305 0.930 . S
C2311 C2307 1.400 . S
C2311 C2310 1.385 . S
C2312 C2310 1.478 . S
C2312 C2314 1.381 . S
C2312 C2318 1.383 . S
C2313 C2309 1.495 . S
C2313 H2319 0.959 . S
C2313 H2320 0.961 . S
C2313 H2321 0.960 . S
C2314 C2312 1.381 . S
C2314 C2315 1.394 1_455 S
C2314 H2322 0.930 1_455 S
C2315 C2314 1.394 1_655 S
C2315 C2316 1.383 . S
C2315 H2323 0.929 . S
C2316 C2315 1.383 . S
C2316 C2317 1.377 1_655 S
C2317 H2301 0.930 . S
C2317 C2316 1.377 1_455 S
C2317 C2318 1.379 . S
C2318 H2302 0.931 . S
C2318 C2312 1.383 . S
C2318 C2317 1.379 . S
H2319 C2313 0.959 . S
H2320 C2313 0.961 . S
H2321 C2313 0.960 . S
H2322 C2314 0.930 1_655 S
H2323 C2315 0.929 . S
H2324 C2332 0.929 . S
H2325 C2334 0.930 . S
H2326 C2336 0.930 . S
H2327 C2339 0.929 . S
H2328 C2342 0.930 . S
H2329 C2344 0.960 . S
H2330 C2344 0.960 . S
H2331 C2344 0.960 . S
C2332 H2324 0.929 . S
C2332 C2333 1.377 . S
C2332 C2334 1.384 . S
C2333 C2332 1.377 . S
C2333 C2339 1.390 . S
C2334 H2325 0.930 . S
C2334 C2332 1.384 . S
C2334 C2335 1.372 . S
C2335 C2334 1.372 . S
C2335 C2336 1.400 . S
C2335 C2340 1.490 . S
C2336 H2326 0.930 . S
C2336 C2335 1.400 . S
C2336 C2339 1.386 . S
H2337 C2353 0.930 . S
H2338 C2354 0.931 . S
C2339 H2327 0.929 . S
C2339 C2333 1.390 . S
C2339 C2336 1.386 . S
C2340 C2335 1.490 . S
C2340 C2342 1.395 . S
C2340 C2343 1.403 . S
H2341 C2347 0.930 . S
C2342 H2328 0.930 . S
C2342 C2340 1.395 . S
C2342 C2345 1.403 . S
C2343 C2340 1.403 . S
C2343 C2344 1.524 . S
C2343 C2347 1.400 . S
C2344 H2329 0.960 . S
C2344 H2330 0.960 . S
C2344 H2331 0.960 . S
C2344 C2343 1.524 . S
C2345 C2342 1.403 . S
C2345 C2346 1.392 . S
C2345 C2349 1.495 . S
C2346 C2345 1.392 . S
C2346 C2347 1.385 . S
C2346 C2348 1.478 . S
C2347 H2341 0.930 . S
C2347 C2343 1.400 . S
C2347 C2346 1.385 . S
C2348 C2346 1.478 . S
C2348 C2350 1.381 . S
C2348 C2354 1.383 . S
C2349 C2345 1.495 . S
C2349 H2355 0.959 . S
C2349 H2356 0.961 . S
C2349 H2357 0.960 . S
C2350 C2348 1.381 . S
C2350 C2351 1.394 . S
C2350 H2358 0.930 . S
C2351 C2350 1.394 . S
C2351 C2352 1.383 . S
C2351 H2359 0.929 . S
C2352 C2351 1.383 . S
C2352 C2353 1.377 . S
C2353 H2337 0.930 . S
C2353 C2352 1.377 . S
C2353 C2354 1.379 . S
C2354 H2338 0.931 . S
C2354 C2348 1.383 . S
C2354 C2353 1.379 . S
H2355 C2349 0.959 . S
H2356 C2349 0.961 . S
H2357 C2349 0.960 . S
H2358 C2350 0.930 . S
H2359 C2351 0.929 . S
H2360 C2368 0.929 . S
H2361 C2370 0.930 . S
H2362 C2372 0.930 . S
H2363 C2375 0.929 . S
H2364 C2378 0.930 . S
H2365 C2380 0.960 . S
H2366 C2380 0.960 . S
H2367 C2380 0.960 . S
C2368 H2360 0.929 . S
C2368 C2369 1.377 . S
C2368 C2370 1.384 . S
C2369 C2368 1.377 . S
C2369 C2375 1.390 . S
C2370 H2361 0.930 . S
C2370 C2368 1.384 . S
C2370 C2371 1.372 . S
C2371 C2370 1.372 . S
C2371 C2372 1.400 . S
C2371 C2376 1.490 . S
C2372 H2362 0.930 . S
C2372 C2371 1.400 . S
C2372 C2375 1.386 . S
H2373 C2389 0.930 . S
H2374 C2390 0.931 . S
C2375 H2363 0.929 . S
C2375 C2369 1.390 . S
C2375 C2372 1.386 . S
C2376 C2371 1.490 . S
C2376 C2378 1.395 . S
C2376 C2379 1.403 . S
H2377 C2383 0.930 . S
C2378 H2364 0.930 . S
C2378 C2376 1.395 . S
C2378 C2381 1.403 . S
C2379 C2376 1.403 . S
C2379 C2380 1.524 . S
C2379 C2383 1.400 . S
C2380 H2365 0.960 . S
C2380 H2366 0.960 . S
C2380 H2367 0.960 . S
C2380 C2379 1.524 . S
C2381 C2378 1.403 . S
C2381 C2382 1.392 . S
C2381 C2385 1.495 . S
C2382 C2381 1.392 . S
C2382 C2383 1.385 . S
C2382 C2384 1.478 . S
C2383 H2377 0.930 . S
C2383 C2379 1.400 . S
C2383 C2382 1.385 . S
C2384 C2382 1.478 . S
C2384 C2386 1.381 . S
C2384 C2390 1.383 . S
C2385 C2381 1.495 . S
C2385 H2391 0.959 . S
C2385 H2392 0.961 . S
C2385 H2393 0.960 . S
C2386 C2384 1.381 . S
C2386 C2387 1.394 1_455 S
C2386 H2394 0.930 . S
C2387 C2386 1.394 1_655 S
C2387 C2388 1.383 . S
C2387 H2395 0.929 . S
C2388 C2387 1.383 . S
C2388 C2389 1.377 1_655 S
C2389 H2373 0.930 . S
C2389 C2388 1.377 1_455 S
C2389 C2390 1.379 . S
C2390 H2374 0.931 . S
C2390 C2384 1.383 . S
C2390 C2389 1.379 . S
H2391 C2385 0.959 . S
H2392 C2385 0.961 . S
H2393 C2385 0.960 . S
H2394 C2386 0.930 . S
H2395 C2387 0.929 . S
H2396 C2404 0.929 . S
H2397 C2406 0.930 . S
H2398 C2408 0.930 . S
H2399 C2411 0.929 . S
H2400 C2414 0.930 . S
H2401 C2416 0.960 . S
H2402 C2416 0.960 . S
H2403 C2416 0.960 . S
C2404 H2396 0.929 . S
C2404 C2405 1.377 . S
C2404 C2406 1.384 . S
C2405 C2404 1.377 . S
C2405 C2411 1.390 . S
C2406 H2397 0.930 . S
C2406 C2404 1.384 . S
C2406 C2407 1.372 . S
C2407 C2406 1.372 . S
C2407 C2408 1.400 . S
C2407 C2412 1.490 . S
C2408 H2398 0.930 . S
C2408 C2407 1.400 . S
C2408 C2411 1.386 . S
H2409 C2425 0.930 . S
H2410 C2426 0.931 . S
C2411 H2399 0.929 . S
C2411 C2405 1.390 . S
C2411 C2408 1.386 . S
C2412 C2407 1.490 . S
C2412 C2414 1.395 . S
C2412 C2415 1.403 . S
H2413 C2419 0.930 . S
C2414 H2400 0.930 . S
C2414 C2412 1.395 . S
C2414 C2417 1.403 . S
C2415 C2412 1.403 . S
C2415 C2416 1.524 . S
C2415 C2419 1.400 . S
C2416 H2401 0.960 . S
C2416 H2402 0.960 . S
C2416 H2403 0.960 . S
C2416 C2415 1.524 . S
C2417 C2414 1.403 . S
C2417 C2418 1.392 . S
C2417 C2421 1.495 . S
C2418 C2417 1.392 . S
C2418 C2419 1.385 . S
C2418 C2420 1.478 . S
C2419 H2413 0.930 . S
C2419 C2415 1.400 . S
C2419 C2418 1.385 . S
C2420 C2418 1.478 . S
C2420 C2422 1.381 . S
C2420 C2426 1.383 . S
C2421 C2417 1.495 . S
C2421 H2427 0.959 . S
C2421 H2428 0.961 . S
C2421 H2429 0.960 . S
C2422 C2420 1.381 . S
C2422 C2423 1.394 . S
C2422 H2430 0.930 . S
C2423 C2422 1.394 . S
C2423 C2424 1.383 . S
C2423 H2431 0.929 . S
C2424 C2423 1.383 . S
C2424 C2425 1.377 . S
C2425 H2409 0.930 . S
C2425 C2424 1.377 . S
C2425 C2426 1.379 . S
C2426 H2410 0.931 . S
C2426 C2420 1.383 . S
C2426 C2425 1.379 . S
H2427 C2421 0.959 . S
H2428 C2421 0.961 . S
H2429 C2421 0.960 . S
H2430 C2422 0.930 . S
H2431 C2423 0.929 . S
H2432 C2440 0.929 . S
H2433 C2442 0.930 . S
H2434 C2444 0.930 . S
H2435 C2447 0.929 . S
H2436 C2450 0.930 . S
H2437 C2452 0.960 . S
H2438 C2452 0.960 . S
H2439 C2452 0.960 . S
C2440 H2432 0.929 . S
C2440 C2441 1.377 1_655 S
C2440 C2442 1.384 . S
C2441 C2440 1.377 1_455 S
C2441 C2447 1.390 . S
C2442 H2433 0.930 . S
C2442 C2440 1.384 . S
C2442 C2443 1.372 . S
C2443 C2442 1.372 . S
C2443 C2444 1.400 . S
C2443 C2448 1.490 . S
C2444 H2434 0.930 . S
C2444 C2443 1.400 . S
C2444 C2447 1.386 1_655 S
H2445 C2461 0.930 . S
H2446 C2462 0.931 . S
C2447 H2435 0.929 . S
C2447 C2441 1.390 . S
C2447 C2444 1.386 1_455 S
C2448 C2443 1.490 . S
C2448 C2450 1.395 . S
C2448 C2451 1.403 . S
H2449 C2455 0.930 . S
C2450 H2436 0.930 . S
C2450 C2448 1.395 . S
C2450 C2453 1.403 . S
C2451 C2448 1.403 . S
C2451 C2452 1.524 . S
C2451 C2455 1.400 . S
C2452 H2437 0.960 . S
C2452 H2438 0.960 . S
C2452 H2439 0.960 . S
C2452 C2451 1.524 . S
C2453 C2450 1.403 . S
C2453 C2454 1.392 . S
C2453 C2457 1.495 . S
C2454 C2453 1.392 . S
C2454 C2455 1.385 . S
C2454 C2456 1.478 . S
C2455 H2449 0.930 . S
C2455 C2451 1.400 . S
C2455 C2454 1.385 . S
C2456 C2454 1.478 . S
C2456 C2458 1.381 . S
C2456 C2462 1.383 . S
C2457 C2453 1.495 . S
C2457 H2463 0.959 . S
C2457 H2464 0.961 . S
C2457 H2465 0.960 . S
C2458 C2456 1.381 . S
C2458 C2459 1.394 . S
C2458 H2466 0.930 . S
C2459 C2458 1.394 . S
C2459 C2460 1.383 . S
C2459 H2467 0.929 . S
C2460 C2459 1.383 . S
C2460 C2461 1.377 . S
C2461 H2445 0.930 . S
C2461 C2460 1.377 . S
C2461 C2462 1.379 . S
C2462 H2446 0.931 . S
C2462 C2456 1.383 . S
C2462 C2461 1.379 . S
H2463 C2457 0.959 . S
H2464 C2457 0.961 . S
H2465 C2457 0.960 . S
H2466 C2458 0.930 . S
H2467 C2459 0.929 . S
H2468 C2476 0.929 . S
H2469 C2478 0.930 . S
H2470 C2480 0.930 . S
H2471 C2483 0.929 . S
H2472 C2486 0.930 . S
H2473 C2488 0.960 . S
H2474 C2488 0.960 . S
H2475 C2488 0.960 . S
C2476 H2468 0.929 . S
C2476 C2477 1.377 . S
C2476 C2478 1.384 . S
C2477 C2476 1.377 . S
C2477 C2483 1.390 . S
C2478 H2469 0.930 . S
C2478 C2476 1.384 . S
C2478 C2479 1.372 . S
C2479 C2478 1.372 . S
C2479 C2480 1.400 . S
C2479 C2484 1.490 . S
C2480 H2470 0.930 . S
C2480 C2479 1.400 . S
C2480 C2483 1.386 . S
H2481 C2497 0.930 . S
H2482 C2498 0.931 . S
C2483 H2471 0.929 . S
C2483 C2477 1.390 . S
C2483 C2480 1.386 . S
C2484 C2479 1.490 . S
C2484 C2486 1.395 . S
C2484 C2487 1.403 . S
H2485 C2491 0.930 . S
C2486 H2472 0.930 . S
C2486 C2484 1.395 . S
C2486 C2489 1.403 . S
C2487 C2484 1.403 . S
C2487 C2488 1.524 . S
C2487 C2491 1.400 . S
C2488 H2473 0.960 . S
C2488 H2474 0.960 . S
C2488 H2475 0.960 . S
C2488 C2487 1.524 . S
C2489 C2486 1.403 . S
C2489 C2490 1.392 . S
C2489 C2493 1.495 . S
C2490 C2489 1.392 . S
C2490 C2491 1.385 . S
C2490 C2492 1.478 . S
C2491 H2485 0.930 . S
C2491 C2487 1.400 . S
C2491 C2490 1.385 . S
C2492 C2490 1.478 . S
C2492 C2494 1.381 . S
C2492 C2498 1.383 . S
C2493 C2489 1.495 . S
C2493 H2499 0.959 . S
C2493 H2500 0.961 . S
C2493 H2501 0.960 . S
C2494 C2492 1.381 . S
C2494 C2495 1.394 . S
C2494 H2502 0.930 . S
C2495 C2494 1.394 . S
C2495 C2496 1.383 . S
C2495 H2503 0.929 . S
C2496 C2495 1.383 . S
C2496 C2497 1.377 . S
C2497 H2481 0.930 . S
C2497 C2496 1.377 . S
C2497 C2498 1.379 . S
C2498 H2482 0.931 . S
C2498 C2492 1.383 . S
C2498 C2497 1.379 . S
H2499 C2493 0.959 . S
H2500 C2493 0.961 . S
H2501 C2493 0.960 . S
H2502 C2494 0.930 . S
H2503 C2495 0.929 . S
H2504 C2512 0.929 . S
H2505 C2514 0.930 1_455 S
H2506 C2516 0.930 . S
H2507 C2519 0.929 . S
H2508 C2522 0.930 . S
H2509 C2524 0.960 . S
H2510 C2524 0.960 . S
H2511 C2524 0.960 . S
C2512 H2504 0.929 . S
C2512 C2513 1.377 . S
C2512 C2514 1.384 1_455 S
C2513 C2512 1.377 . S
C2513 C2519 1.390 1_455 S
C2514 H2505 0.930 1_655 S
C2514 C2512 1.384 1_655 S
C2514 C2515 1.372 . S
C2515 C2514 1.372 . S
C2515 C2516 1.400 . S
C2515 C2520 1.490 . S
C2516 H2506 0.930 . S
C2516 C2515 1.400 . S
C2516 C2519 1.386 . S
H2517 C2533 0.930 . S
H2518 C2534 0.931 . S
C2519 H2507 0.929 . S
C2519 C2513 1.390 1_655 S
C2519 C2516 1.386 . S
C2520 C2515 1.490 . S
C2520 C2522 1.395 . S
C2520 C2523 1.403 . S
H2521 C2527 0.930 . S
C2522 H2508 0.930 . S
C2522 C2520 1.395 . S
C2522 C2525 1.403 . S
C2523 C2520 1.403 . S
C2523 C2524 1.524 . S
C2523 C2527 1.400 . S
C2524 H2509 0.960 . S
C2524 H2510 0.960 . S
C2524 H2511 0.960 . S
C2524 C2523 1.524 . S
C2525 C2522 1.403 . S
C2525 C2526 1.392 . S
C2525 C2529 1.495 . S
C2526 C2525 1.392 . S
C2526 C2527 1.385 . S
C2526 C2528 1.478 . S
C2527 H2521 0.930 . S
C2527 C2523 1.400 . S
C2527 C2526 1.385 . S
C2528 C2526 1.478 . S
C2528 C2530 1.381 . S
C2528 C2534 1.383 . S
C2529 C2525 1.495 . S
C2529 H2535 0.959 . S
C2529 H2536 0.961 . S
C2529 H2537 0.960 . S
C2530 C2528 1.381 . S
C2530 C2531 1.394 . S
C2530 H2538 0.930 . S
C2531 C2530 1.394 . S
C2531 C2532 1.383 . S
C2531 H2539 0.929 . S
C2532 C2531 1.383 . S
C2532 C2533 1.377 . S
C2533 H2517 0.930 . S
C2533 C2532 1.377 . S
C2533 C2534 1.379 . S
C2534 H2518 0.931 . S
C2534 C2528 1.383 . S
C2534 C2533 1.379 . S
H2535 C2529 0.959 . S
H2536 C2529 0.961 . S
H2537 C2529 0.960 . S
H2538 C2530 0.930 . S
H2539 C2531 0.929 . S
H2540 C2548 0.929 . S
H2541 C2550 0.930 . S
H2542 C2552 0.930 . S
H2543 C2555 0.929 . S
H2544 C2558 0.930 . S
H2545 C2560 0.960 . S
H2546 C2560 0.960 . S
H2547 C2560 0.960 . S
C2548 H2540 0.929 . S
C2548 C2549 1.377 . S
C2548 C2550 1.384 . S
C2549 C2548 1.377 . S
C2549 C2555 1.390 . S
C2550 H2541 0.930 . S
C2550 C2548 1.384 . S
C2550 C2551 1.372 . S
C2551 C2550 1.372 . S
C2551 C2552 1.400 . S
C2551 C2556 1.490 . S
C2552 H2542 0.930 . S
C2552 C2551 1.400 . S
C2552 C2555 1.386 . S
H2553 C2569 0.930 . S
H2554 C2570 0.931 . S
C2555 H2543 0.929 . S
C2555 C2549 1.390 . S
C2555 C2552 1.386 . S
C2556 C2551 1.490 . S
C2556 C2558 1.395 . S
C2556 C2559 1.403 . S
H2557 C2563 0.930 . S
C2558 H2544 0.930 . S
C2558 C2556 1.395 . S
C2558 C2561 1.403 . S
C2559 C2556 1.403 . S
C2559 C2560 1.524 . S
C2559 C2563 1.400 . S
C2560 H2545 0.960 . S
C2560 H2546 0.960 . S
C2560 H2547 0.960 . S
C2560 C2559 1.524 . S
C2561 C2558 1.403 . S
C2561 C2562 1.392 . S
C2561 C2565 1.495 . S
C2562 C2561 1.392 . S
C2562 C2563 1.385 . S
C2562 C2564 1.478 . S
C2563 H2557 0.930 . S
C2563 C2559 1.400 . S
C2563 C2562 1.385 . S
C2564 C2562 1.478 . S
C2564 C2566 1.381 . S
C2564 C2570 1.383 . S
C2565 C2561 1.495 . S
C2565 H2571 0.959 . S
C2565 H2572 0.961 . S
C2565 H2573 0.960 . S
C2566 C2564 1.381 . S
C2566 C2567 1.394 . S
C2566 H2574 0.930 . S
C2567 C2566 1.394 . S
C2567 C2568 1.383 . S
C2567 H2575 0.929 . S
C2568 C2567 1.383 . S
C2568 C2569 1.377 . S
C2569 H2553 0.930 . S
C2569 C2568 1.377 . S
C2569 C2570 1.379 . S
C2570 H2554 0.931 . S
C2570 C2564 1.383 . S
C2570 C2569 1.379 . S
H2571 C2565 0.959 . S
H2572 C2565 0.961 . S
H2573 C2565 0.960 . S
H2574 C2566 0.930 . S
H2575 C2567 0.929 . S
H2576 C2584 0.929 . S
H2577 C2586 0.930 . S
H2578 C2588 0.930 . S
H2579 C2591 0.929 . S
H2580 C2594 0.930 . S
H2581 C2596 0.960 . S
H2582 C2596 0.960 . S
H2583 C2596 0.960 . S
C2584 H2576 0.929 . S
C2584 C2585 1.377 1_455 S
C2584 C2586 1.384 . S
C2585 C2584 1.377 1_655 S
C2585 C2591 1.390 . S
C2586 H2577 0.930 . S
C2586 C2584 1.384 . S
C2586 C2587 1.372 . S
C2587 C2586 1.372 . S
C2587 C2588 1.400 . S
C2587 C2592 1.490 . S
C2588 H2578 0.930 . S
C2588 C2587 1.400 . S
C2588 C2591 1.386 1_455 S
H2589 C2605 0.930 . S
H2590 C2606 0.931 . S
C2591 H2579 0.929 . S
C2591 C2585 1.390 . S
C2591 C2588 1.386 1_655 S
C2592 C2587 1.490 . S
C2592 C2594 1.395 . S
C2592 C2595 1.403 . S
H2593 C2599 0.930 . S
C2594 H2580 0.930 . S
C2594 C2592 1.395 . S
C2594 C2597 1.403 . S
C2595 C2592 1.403 . S
C2595 C2596 1.524 . S
C2595 C2599 1.400 . S
C2596 H2581 0.960 . S
C2596 H2582 0.960 . S
C2596 H2583 0.960 . S
C2596 C2595 1.524 . S
C2597 C2594 1.403 . S
C2597 C2598 1.392 . S
C2597 C2601 1.495 . S
C2598 C2597 1.392 . S
C2598 C2599 1.385 . S
C2598 C2600 1.478 . S
C2599 H2593 0.930 . S
C2599 C2595 1.400 . S
C2599 C2598 1.385 . S
C2600 C2598 1.478 . S
C2600 C2602 1.381 . S
C2600 C2606 1.383 . S
C2601 C2597 1.495 . S
C2601 H2607 0.959 . S
C2601 H2608 0.961 . S
C2601 H2609 0.960 . S
C2602 C2600 1.381 . S
C2602 C2603 1.394 . S
C2602 H2610 0.930 . S
C2603 C2602 1.394 . S
C2603 C2604 1.383 . S
C2603 H2611 0.929 . S
C2604 C2603 1.383 . S
C2604 C2605 1.377 . S
C2605 H2589 0.930 . S
C2605 C2604 1.377 . S
C2605 C2606 1.379 . S
C2606 H2590 0.931 . S
C2606 C2600 1.383 . S
C2606 C2605 1.379 . S
H2607 C2601 0.959 . S
H2608 C2601 0.961 . S
H2609 C2601 0.960 . S
H2610 C2602 0.930 . S
H2611 C2603 0.929 . S
H2612 C2620 0.929 . S
H2613 C2622 0.930 . S
H2614 C2624 0.930 . S
H2615 C2627 0.929 . S
H2616 C2630 0.930 . S
H2617 C2632 0.960 . S
H2618 C2632 0.960 . S
H2619 C2632 0.960 . S
C2620 H2612 0.929 . S
C2620 C2621 1.377 . S
C2620 C2622 1.384 . S
C2621 C2620 1.377 . S
C2621 C2627 1.390 . S
C2622 H2613 0.930 . S
C2622 C2620 1.384 . S
C2622 C2623 1.372 . S
C2623 C2622 1.372 . S
C2623 C2624 1.400 . S
C2623 C2628 1.490 . S
C2624 H2614 0.930 . S
C2624 C2623 1.400 . S
C2624 C2627 1.386 . S
H2625 C2641 0.930 . S
H2626 C2642 0.931 . S
C2627 H2615 0.929 . S
C2627 C2621 1.390 . S
C2627 C2624 1.386 . S
C2628 C2623 1.490 . S
C2628 C2630 1.395 . S
C2628 C2631 1.403 . S
H2629 C2635 0.930 . S
C2630 H2616 0.930 . S
C2630 C2628 1.395 . S
C2630 C2633 1.403 . S
C2631 C2628 1.403 . S
C2631 C2632 1.524 . S
C2631 C2635 1.400 . S
C2632 H2617 0.960 . S
C2632 H2618 0.960 . S
C2632 H2619 0.960 . S
C2632 C2631 1.524 . S
C2633 C2630 1.403 . S
C2633 C2634 1.392 . S
C2633 C2637 1.495 . S
C2634 C2633 1.392 . S
C2634 C2635 1.385 . S
C2634 C2636 1.478 . S
C2635 H2629 0.930 . S
C2635 C2631 1.400 . S
C2635 C2634 1.385 . S
C2636 C2634 1.478 . S
C2636 C2638 1.381 . S
C2636 C2642 1.383 . S
C2637 C2633 1.495 . S
C2637 H2643 0.959 . S
C2637 H2644 0.961 . S
C2637 H2645 0.960 . S
C2638 C2636 1.381 . S
C2638 C2639 1.394 . S
C2638 H2646 0.930 . S
C2639 C2638 1.394 . S
C2639 C2640 1.383 . S
C2639 H2647 0.929 . S
C2640 C2639 1.383 . S
C2640 C2641 1.377 . S
C2641 H2625 0.930 . S
C2641 C2640 1.377 . S
C2641 C2642 1.379 . S
C2642 H2626 0.931 . S
C2642 C2636 1.383 . S
C2642 C2641 1.379 . S
H2643 C2637 0.959 . S
H2644 C2637 0.961 . S
H2645 C2637 0.960 . S
H2646 C2638 0.930 . S
H2647 C2639 0.929 . S
H2648 C2656 0.929 1_655 S
H2649 C2658 0.930 . S
H2650 C2660 0.930 . S
H2651 C2663 0.929 1_655 S
H2652 C2666 0.930 . S
H2653 C2668 0.960 . S
H2654 C2668 0.960 . S
H2655 C2668 0.960 . S
C2656 H2648 0.929 1_455 S
C2656 C2657 1.377 1_455 S
C2656 C2658 1.384 . S
C2657 C2656 1.377 1_655 S
C2657 C2663 1.390 1_655 S
C2658 H2649 0.930 . S
C2658 C2656 1.384 . S
C2658 C2659 1.372 . S
C2659 C2658 1.372 . S
C2659 C2660 1.400 . S
C2659 C2664 1.490 . S
C2660 H2650 0.930 . S
C2660 C2659 1.400 . S
C2660 C2663 1.386 . S
H2661 C2677 0.930 . S
H2662 C2678 0.931 . S
C2663 H2651 0.929 1_455 S
C2663 C2657 1.390 1_455 S
C2663 C2660 1.386 . S
C2664 C2659 1.490 . S
C2664 C2666 1.395 . S
C2664 C2667 1.403 . S
H2665 C2671 0.930 . S
C2666 H2652 0.930 . S
C2666 C2664 1.395 . S
C2666 C2669 1.403 . S
C2667 C2664 1.403 . S
C2667 C2668 1.524 . S
C2667 C2671 1.400 . S
C2668 H2653 0.960 . S
C2668 H2654 0.960 . S
C2668 H2655 0.960 . S
C2668 C2667 1.524 . S
C2669 C2666 1.403 . S
C2669 C2670 1.392 . S
C2669 C2673 1.495 . S
C2670 C2669 1.392 . S
C2670 C2671 1.385 . S
C2670 C2672 1.478 . S
C2671 H2665 0.930 . S
C2671 C2667 1.400 . S
C2671 C2670 1.385 . S
C2672 C2670 1.478 . S
C2672 C2674 1.381 . S
C2672 C2678 1.383 . S
C2673 C2669 1.495 . S
C2673 H2679 0.959 . S
C2673 H2680 0.961 . S
C2673 H2681 0.960 . S
C2674 C2672 1.381 . S
C2674 C2675 1.394 . S
C2674 H2682 0.930 . S
C2675 C2674 1.394 . S
C2675 C2676 1.383 . S
C2675 H2683 0.929 . S
C2676 C2675 1.383 . S
C2676 C2677 1.377 . S
C2677 H2661 0.930 . S
C2677 C2676 1.377 . S
C2677 C2678 1.379 . S
C2678 H2662 0.931 . S
C2678 C2672 1.383 . S
C2678 C2677 1.379 . S
H2679 C2673 0.959 . S
H2680 C2673 0.961 . S
H2681 C2673 0.960 . S
H2682 C2674 0.930 . S
H2683 C2675 0.929 . S
H2684 C2692 0.929 . S
H2685 C2694 0.930 . S
H2686 C2696 0.930 . S
H2687 C2699 0.929 . S
H2688 C2702 0.930 . S
H2689 C2704 0.960 . S
H2690 C2704 0.960 . S
H2691 C2704 0.960 . S
C2692 H2684 0.929 . S
C2692 C2693 1.377 . S
C2692 C2694 1.384 . S
C2693 C2692 1.377 . S
C2693 C2699 1.390 . S
C2694 H2685 0.930 . S
C2694 C2692 1.384 . S
C2694 C2695 1.372 . S
C2695 C2694 1.372 . S
C2695 C2696 1.400 . S
C2695 C2700 1.490 . S
C2696 H2686 0.930 . S
C2696 C2695 1.400 . S
C2696 C2699 1.386 . S
H2697 C2713 0.930 . S
H2698 C2714 0.931 . S
C2699 H2687 0.929 . S
C2699 C2693 1.390 . S
C2699 C2696 1.386 . S
C2700 C2695 1.490 . S
C2700 C2702 1.395 . S
C2700 C2703 1.403 . S
H2701 C2707 0.930 . S
C2702 H2688 0.930 . S
C2702 C2700 1.395 . S
C2702 C2705 1.403 . S
C2703 C2700 1.403 . S
C2703 C2704 1.524 . S
C2703 C2707 1.400 . S
C2704 H2689 0.960 . S
C2704 H2690 0.960 . S
C2704 H2691 0.960 . S
C2704 C2703 1.524 . S
C2705 C2702 1.403 . S
C2705 C2706 1.392 . S
C2705 C2709 1.495 . S
C2706 C2705 1.392 . S
C2706 C2707 1.385 . S
C2706 C2708 1.478 . S
C2707 H2701 0.930 . S
C2707 C2703 1.400 . S
C2707 C2706 1.385 . S
C2708 C2706 1.478 . S
C2708 C2710 1.381 . S
C2708 C2714 1.383 . S
C2709 C2705 1.495 . S
C2709 H2715 0.959 . S
C2709 H2716 0.961 . S
C2709 H2717 0.960 . S
C2710 C2708 1.381 . S
C2710 C2711 1.394 . S
C2710 H2718 0.930 . S
C2711 C2710 1.394 . S
C2711 C2712 1.383 . S
C2711 H2719 0.929 . S
C2712 C2711 1.383 . S
C2712 C2713 1.377 . S
C2713 H2697 0.930 . S
C2713 C2712 1.377 . S
C2713 C2714 1.379 . S
C2714 H2698 0.931 . S
C2714 C2708 1.383 . S
C2714 C2713 1.379 . S
H2715 C2709 0.959 . S
H2716 C2709 0.961 . S
H2717 C2709 0.960 . S
H2718 C2710 0.930 . S
H2719 C2711 0.929 . S
C425 C42 1.332 . S
C444 C3 1.330 . S
C461 C31 1.333 . S
C480 C16 1.320 . S
C497 C94 1.330 . S
C516 C57 1.326 . S
C533 C81 1.333 . S
C552 C68 1.337 . S
C569 C109 1.330 . S
C588 C146 1.323 . S
C605 C120 1.333 . S
C624 C135 1.325 . S
C641 C198 1.332 . S
C660 C161 1.337 . S
C677 C174 1.330 . S
C696 C185 1.325 . S
C713 C211 1.332 . S
C732 C250 1.319 . S
C749 C224 1.333 . S
C768 C239 1.322 . S
C785 C302 1.333 . S
C804 C263 1.336 . S
C821 C289 1.332 . S
C840 C278 1.332 . S
C857 C354 1.330 . S
C876 C315 1.323 . S
C893 C328 1.329 . S
C912 C341 1.330 . S
C929 C367 1.330 . S
C948 C408 1.322 . S
C965 C382 1.332 . S
C984 C393 1.337 . S
C1001 C265 1.254 . S
C1020 C5 1.270 . S
C1037 C172 1.247 . S
C1056 C18 1.244 . S
C1073 C29 1.249 . S
C1092 C395 1.261 . S
C1109 C44 1.249 . S
C1128 C96 1.257 . S
C1145 C213 1.247 . S
C1164 C55 1.242 . S
C1181 C122 1.248 . S
C1200 C70 1.230 . S
C1217 C343 1.248 . S
C1236 C83 1.232 . S
C1253 C107 1.255 . S
C1272 C369 1.269 . S
C1289 C291 1.253 . S
C1308 C133 1.270 . S
C1325 C200 1.256 . S
C1344 C148 1.254 . S
C1361 C317 1.252 . S
C1380 C159 1.268 . S
C1397 C187 1.253 . S
C1416 C237 1.270 . S
C1433 C380 1.247 . S
C1452 C226 1.231 . S
C1469 C252 1.255 . S
C1488 C304 1.245 . S
C1505 C330 1.247 . S
C1524 C276 1.237 . S
C1541 C406 1.253 . S
C1560 C356 1.233 . S
C1577 C17 1.342 . S
C1596 C4 1.336 . S
C1613 C36 1.344 . S
C1632 C43 1.327 . S
C1649 C62 1.348 . S
C1668 C69 1.358 . S
C1685 C95 1.343 . S
C1704 C82 1.337 . S
C1721 C114 1.341 . S
C1740 C121 1.358 . S
C1757 C140 1.345 . S
C1776 C147 1.353 . S
C1793 C179 1.347 . S
C1812 C166 1.357 . S
C1829 C186 1.348 . S
C1848 C199 1.357 . S
C1865 C212 1.344 . S
C1884 C225 1.355 . S
C1901 C244 1.345 . S
C1920 C251 1.351 . S
C1937 C264 1.344 . S
C1956 C283 1.343 . S
C1973 C303 1.347 . S
C1992 C290 1.352 . S
C2009 C329 1.342 . S
C2028 C316 1.358 . S
C2045 C342 1.341 . S
C2064 C355 1.350 . S
C2081 C368 1.344 . S
C2100 C387 1.340 . S
C2117 C413 1.343 . S
C2136 C394 1.335 . S
C2153 C10 1.522 . S
C2172 C257 1.515 . S
C2189 C23 1.521 . S
C2208 C238 1.520 . S
C2225 C231 1.521 . S
C2244 C30 1.522 . S
C2261 C49 1.522 . S
C2280 C218 1.515 . S
C2297 C309 1.522 . S
C2316 C56 1.515 . S
C2333 C75 1.521 . S
C2352 C296 1.519 . S
C2369 C277 1.522 . S
C2388 C88 1.515 . S
C2405 C101 1.521 . S
C2424 C270 1.522 . S
C2441 C108 1.522 . S
C2460 C361 1.522 . S
C2477 C127 1.523 . S
C2496 C348 1.520 . S
C2513 C134 1.523 . S
C2532 C335 1.516 . S
C2549 C322 1.521 . S
C2568 C153 1.519 . S
C2585 C160 1.523 . S
C2604 C407 1.518 . S
C2621 C173 1.523 . S
C2640 C400 1.517 . S
C2657 C192 1.522 . S
C2676 C381 1.519 . S
C2693 C374 1.523 . S
C2712 C205 1.517 . S
