# Generated by pormake.
# Topology uof, (4)-cn, num edge types: 1
# Building blocks:
#     Node 0, Type 0, BuildingBlock: UXUYUI_clean_sbu_0, # of connection points: 4
#     Node 1, Type 0, BuildingBlock: UXUYUI_clean_sbu_0, # of connection points: 4
#     Node 2, Type 0, BuildingBlock: UXUYUI_clean_sbu_0, # of connection points: 4
#     Node 3, Type 0, BuildingBlock: UXUYUI_clean_sbu_0, # of connection points: 4
#     Node 4, Type 0, BuildingBlock: UXUYUI_clean_sbu_0, # of connection points: 4
#     Node 5, Type 0, BuildingBlock: UXUYUI_clean_sbu_0, # of connection points: 4
#     Node 6, Type 0, BuildingBlock: UXUYUI_clean_sbu_0, # of connection points: 4
#     Node 7, Type 0, BuildingBlock: UXUYUI_clean_sbu_0, # of connection points: 4
#     Node 8, Type 0, BuildingBlock: UXUYUI_clean_sbu_0, # of connection points: 4
#     Node 9, Type 0, BuildingBlock: UXUYUI_clean_sbu_0, # of connection points: 4
#     Node 10, Type 0, BuildingBlock: UXUYUI_clean_sbu_0, # of connection points: 4
#     Node 11, Type 0, BuildingBlock: UXUYUI_clean_sbu_0, # of connection points: 4
#     Edge 12, Type (0, 0), BuildingBlock: OJICUG_clean_linker_0, # of connection points: 2
#     Edge 13, Type (0, 0), BuildingBlock: OJICUG_clean_linker_0, # of connection points: 2
#     Edge 14, Type (0, 0), BuildingBlock: OJICUG_clean_linker_0, # of connection points: 2
#     Edge 15, Type (0, 0), BuildingBlock: OJICUG_clean_linker_0, # of connection points: 2
#     Edge 16, Type (0, 0), BuildingBlock: OJICUG_clean_linker_0, # of connection points: 2
#     Edge 17, Type (0, 0), BuildingBlock: OJICUG_clean_linker_0, # of connection points: 2
#     Edge 18, Type (0, 0), BuildingBlock: OJICUG_clean_linker_0, # of connection points: 2
#     Edge 19, Type (0, 0), BuildingBlock: OJICUG_clean_linker_0, # of connection points: 2
#     Edge 20, Type (0, 0), BuildingBlock: OJICUG_clean_linker_0, # of connection points: 2
#     Edge 21, Type (0, 0), BuildingBlock: OJICUG_clean_linker_0, # of connection points: 2
#     Edge 22, Type (0, 0), BuildingBlock: OJICUG_clean_linker_0, # of connection points: 2
#     Edge 23, Type (0, 0), BuildingBlock: OJICUG_clean_linker_0, # of connection points: 2
#     Edge 24, Type (0, 0), BuildingBlock: OJICUG_clean_linker_0, # of connection points: 2
#     Edge 25, Type (0, 0), BuildingBlock: OJICUG_clean_linker_0, # of connection points: 2
#     Edge 26, Type (0, 0), BuildingBlock: OJICUG_clean_linker_0, # of connection points: 2
#     Edge 27, Type (0, 0), BuildingBlock: OJICUG_clean_linker_0, # of connection points: 2
#     Edge 28, Type (0, 0), BuildingBlock: OJICUG_clean_linker_0, # of connection points: 2
#     Edge 29, Type (0, 0), BuildingBlock: OJICUG_clean_linker_0, # of connection points: 2
#     Edge 30, Type (0, 0), BuildingBlock: OJICUG_clean_linker_0, # of connection points: 2
#     Edge 31, Type (0, 0), BuildingBlock: OJICUG_clean_linker_0, # of connection points: 2
#     Edge 32, Type (0, 0), BuildingBlock: OJICUG_clean_linker_0, # of connection points: 2
#     Edge 33, Type (0, 0), BuildingBlock: OJICUG_clean_linker_0, # of connection points: 2
#     Edge 34, Type (0, 0), BuildingBlock: OJICUG_clean_linker_0, # of connection points: 2
#     Edge 35, Type (0, 0), BuildingBlock: OJICUG_clean_linker_0, # of connection points: 2
# Relax obj value: 0.353
# Max RMSD: 0.222
# Mean RMSD: 0.221
data_MOF--net-uof--node1-UXUYUI_clean_sbu_0--edge1-OJICUG_clean_linker_0
_symmetry_space_group_name_H-M    P1
_symmetry_Int_Tables_number       1
_symmetry_cell_setting            triclinic
loop_
_symmetry_equiv_pos_as_xyz
'x, y, z'
_cell_length_a     38.078809
_cell_length_b     38.117086
_cell_length_c     73.7993
_cell_angle_alpha  90.002643
_cell_angle_beta   89.99115
_cell_angle_gamma 119.97708
loop_
_atom_site_label
_atom_site_type_symbol
_atom_site_fract_x
_atom_site_fract_y
_atom_site_fract_z
_atom_type_partial_charge
Li0 Li 0.20213 0.33393 0.21239 0.0
Li1 Li 0.23273 0.3226 0.24013 0.0
Li2 Li 0.27671 0.36567 0.21532 0.0
Li3 Li 0.23399 0.29202 0.21186 0.0
C4 C 0.21945 0.39482 0.23615 0.0
N5 N 0.17753 0.43333 0.24647 0.0
C6 C 0.19416 0.38136 0.25134 0.0
C7 C 0.22367 0.42798 0.22628 0.0
C8 C 0.1732 0.40126 0.25633 0.0
C9 C 0.2021 0.44697 0.23168 0.0
C10 C 0.16 0.24249 0.22234 0.0
C11 C 0.14229 0.17248 0.22536 0.0
N12 N 0.11073 0.16159 0.21377 0.0
C13 C 0.12719 0.23052 0.21057 0.0
C14 C 0.1674 0.21318 0.22992 0.0
C15 C 0.1027 0.18951 0.20638 0.0
C16 C 0.15028 0.32383 0.18342 0.0
N17 N 0.15617 0.33429 0.20125 0.0
C18 C 0.09013 0.32754 0.20288 0.0
C19 C 0.12713 0.33681 0.21098 0.0
C20 C 0.0824 0.31464 0.18467 0.0
C21 C 0.11372 0.31391 0.17487 0.0
H22 H 0.17285 0.32029 0.17608 0.0
H23 H 0.13163 0.34383 0.22525 0.0
C24 C 0.26291 0.34433 0.27572 0.0
N25 N 0.23242 0.3148 0.26578 0.0
C26 C 0.27185 0.33564 0.29295 0.0
C27 C 0.21562 0.26735 0.28997 0.0
C28 C 0.20778 0.27737 0.27281 0.0
C29 C 0.24904 0.2962 0.29999 0.0
H30 H 0.2824 0.37366 0.26968 0.0
H31 H 0.18366 0.25449 0.26466 0.0
C32 C 0.25728 0.35652 0.17941 0.0
N33 N 0.29121 0.40179 0.1485 0.0
C34 C 0.27426 0.34306 0.16627 0.0
C35 C 0.2573 0.39282 0.1768 0.0
C36 C 0.29135 0.36644 0.15074 0.0
C37 C 0.27466 0.41533 0.16108 0.0
C38 C 0.3021 0.31975 0.24218 0.0
C39 C 0.33796 0.35437 0.24744 0.0
C40 C 0.28932 0.28341 0.25153 0.0
C41 C 0.36026 0.35211 0.26197 0.0
C42 C 0.31241 0.2824 0.26602 0.0
N43 N 0.3471 0.31648 0.2709 0.0
C44 C 0.34861 0.44382 0.21866 0.0
C45 C 0.35165 0.39651 0.1988 0.0
C46 C 0.39067 0.46937 0.21733 0.0
N47 N 0.33025 0.40782 0.20971 0.0
C48 C 0.39344 0.42136 0.19683 0.0
C49 C 0.41368 0.45777 0.20656 0.0
H50 H 0.33105 0.45148 0.22768 0.0
H51 H 0.33661 0.36696 0.1925 0.0
C52 C 0.20838 0.23265 0.18507 0.0
N53 N 0.23215 0.24767 0.20002 0.0
C54 C 0.20631 0.19972 0.1759 0.0
C55 C 0.25332 0.19871 0.19771 0.0
C56 C 0.25487 0.23193 0.20629 0.0
C57 C 0.22877 0.18232 0.18236 0.0
H58 H 0.19104 0.24629 0.18035 0.0
H59 H 0.27433 0.24523 0.21787 0.0
O60 O 0.24026 0.37584 0.23103 0.0
O61 O 0.18491 0.28266 0.22629 0.0
O62 O 0.24068 0.33418 0.19475 0.0
O63 O 0.27945 0.32154 0.22813 0.0
H64 H 0.19053 0.3557 0.25911 0.0
H65 H 0.24341 0.43894 0.21458 0.0
H66 H 0.1534 0.39112 0.26802 0.0
H67 H 0.20495 0.4726 0.22414 0.0
H68 H 0.148 0.14959 0.23098 0.0
H69 H 0.12062 0.25253 0.20469 0.0
H70 H 0.19276 0.22177 0.23893 0.0
H71 H 0.07732 0.17989 0.19723 0.0
H72 H 0.06734 0.32912 0.21103 0.0
H73 H 0.10933 0.30331 0.161 0.0
H74 H 0.29804 0.3588 0.30009 0.0
H75 H 0.19666 0.23686 0.29503 0.0
H76 H 0.27442 0.31496 0.16812 0.0
H77 H 0.24405 0.40346 0.18682 0.0
H78 H 0.30475 0.3565 0.14048 0.0
H79 H 0.27498 0.44354 0.15889 0.0
H80 H 0.34842 0.38282 0.24052 0.0
H81 H 0.26145 0.25639 0.2479 0.0
H82 H 0.38796 0.37873 0.26619 0.0
H83 H 0.30257 0.25457 0.27346 0.0
H84 H 0.40522 0.49725 0.22505 0.0
H85 H 0.41008 0.41095 0.18866 0.0
H86 H 0.18708 0.18768 0.16407 0.0
H87 H 0.27154 0.18635 0.20283 0.0
Li88 Li 0.87298 0.20102 0.54719 0.0
Li89 Li 0.91385 0.2335 0.57486 0.0
Li90 Li 0.91361 0.27588 0.55044 0.0
Li91 Li 0.94571 0.234 0.54693 0.0
C92 C 0.83154 0.21337 0.57537 0.0
N93 N 0.76229 0.16494 0.59519 0.0
C94 C 0.82804 0.18024 0.58506 0.0
C95 C 0.79984 0.22185 0.57577 0.0
C96 C 0.79279 0.15615 0.59501 0.0
C97 C 0.76506 0.19699 0.58586 0.0
C98 C 0.92162 0.15927 0.55983 0.0
C99 C 0.97377 0.14182 0.5646 0.0
N100 N 0.95027 0.10573 0.55619 0.0
C101 C 0.89775 0.12169 0.5515 0.0
C102 C 0.95969 0.16913 0.56668 0.0
C103 C 0.91285 0.09516 0.54969 0.0
C104 C 0.8432 0.1456 0.51961 0.0
N105 N 0.82964 0.1542 0.53511 0.0
C106 C 0.76705 0.09104 0.53286 0.0
C107 C 0.79189 0.1282 0.54164 0.0
C108 C 0.78156 0.08058 0.51742 0.0
C109 C 0.81968 0.10906 0.51055 0.0
H110 H 0.87357 0.16609 0.51485 0.0
H111 H 0.78171 0.13521 0.55408 0.0
C112 C 0.92394 0.26558 0.6102 0.0
N113 N 0.92188 0.23423 0.60053 0.0
C114 C 0.94178 0.27473 0.62738 0.0
C115 C 0.95099 0.21659 0.62511 0.0
C116 C 0.93358 0.20894 0.60785 0.0
C117 C 0.95676 0.25082 0.63477 0.0
H118 H 0.91463 0.28534 0.60399 0.0
H119 H 0.93173 0.18432 0.59988 0.0
C120 C 0.88998 0.24757 0.51579 0.0
N121 N 0.84825 0.25954 0.48812 0.0
C122 C 0.90509 0.25426 0.49811 0.0
C123 C 0.85364 0.24696 0.51942 0.0
C124 C 0.88355 0.26026 0.4843 0.0
C125 C 0.833 0.25307 0.50524 0.0
C126 C 0.98692 0.30273 0.57647 0.0
C127 C 0.98738 0.3377 0.58257 0.0
C128 C 0.0131 0.29134 0.58439 0.0
C129 C 0.01349 0.36026 0.59664 0.0
C130 C 0.03866 0.31461 0.59847 0.0
N131 N 0.03832 0.3483 0.60426 0.0
C132 C 0.90892 0.34802 0.55543 0.0
C133 C 0.95214 0.34914 0.53204 0.0
C134 C 0.92552 0.39002 0.55404 0.0
N135 N 0.92331 0.32881 0.54484 0.0
C136 C 0.9692 0.39097 0.53005 0.0
C137 C 0.95692 0.41219 0.54156 0.0
H138 H 0.8867 0.33125 0.56581 0.0
H139 H 0.96373 0.33322 0.52414 0.0
C140 C 0.9799 0.20152 0.52371 0.0
N141 N 0.98857 0.23249 0.53531 0.0
C142 C 0.01106 0.19995 0.51456 0.0
C143 C 0.05915 0.26296 0.52901 0.0
C144 C 0.0271 0.2631 0.538 0.0
C145 C 0.0512 0.23106 0.51715 0.0
H146 H 0.94876 0.17817 0.52155 0.0
H147 H 0.03286 0.28783 0.54696 0.0
O148 O 0.86564 0.23759 0.56549 0.0
O149 O 0.90742 0.18581 0.56156 0.0
O150 O 0.91086 0.24167 0.5294 0.0
O151 O 0.961 0.27983 0.56288 0.0
H152 H 0.85203 0.17294 0.58488 0.0
H153 H 0.80211 0.24738 0.56832 0.0
H154 H 0.78965 0.1304 0.60255 0.0
H155 H 0.74028 0.20319 0.58627 0.0
H156 H 0.00337 0.14935 0.56967 0.0
H157 H 0.86771 0.11279 0.54664 0.0
H158 H 0.97838 0.19773 0.57336 0.0
H159 H 0.89473 0.06608 0.54319 0.0
H160 H 0.73789 0.06982 0.53866 0.0
H161 H 0.83196 0.10247 0.49862 0.0
H162 H 0.94526 0.30113 0.6345 0.0
H163 H 0.96218 0.19744 0.63033 0.0
H164 H 0.93319 0.2548 0.49511 0.0
H165 H 0.84141 0.24176 0.533 0.0
H166 H 0.89488 0.26547 0.47055 0.0
H167 H 0.80483 0.25266 0.50784 0.0
H168 H 0.96752 0.34716 0.57669 0.0
H169 H 0.01362 0.26474 0.57979 0.0
H170 H 0.01389 0.3872 0.60155 0.0
H171 H 0.05877 0.30587 0.6048 0.0
H172 H 0.91497 0.40519 0.56308 0.0
H173 H 0.99356 0.40682 0.5204 0.0
H174 H 0.00381 0.17521 0.50529 0.0
H175 H 0.0898 0.28739 0.53136 0.0
Li176 Li 0.67475 0.90815 0.90792 0.0
Li177 Li 0.66959 0.86847 0.87931 0.0
Li178 Li 0.70885 0.93925 0.87994 0.0
Li179 Li 0.63712 0.91085 0.88034 0.0
C180 C 0.75698 0.91314 0.89583 0.0
N181 N 0.83856 0.93724 0.89661 0.0
C182 C 0.77601 0.90923 0.88039 0.0
C183 C 0.77952 0.92934 0.91167 0.0
C184 C 0.81726 0.92159 0.88105 0.0
C185 C 0.8207 0.94134 0.9118 0.0
C186 C 0.60886 0.82702 0.90567 0.0
C187 C 0.5531 0.76153 0.91392 0.0
N188 N 0.57819 0.75567 0.92504 0.0
C189 C 0.63412 0.82035 0.91716 0.0
C190 C 0.56803 0.79743 0.90402 0.0
C191 C 0.61802 0.7841 0.92686 0.0
C192 C 0.65965 0.94051 0.93791 0.0
N193 N 0.67621 0.91726 0.93353 0.0
C194 C 0.70489 0.92661 0.96321 0.0
C195 C 0.69738 0.90889 0.94596 0.0
C196 C 0.69091 0.95357 0.96761 0.0
C197 C 0.66701 0.95937 0.95476 0.0
H198 H 0.643 0.9468 0.92778 0.0
H199 H 0.71009 0.89008 0.94226 0.0
C200 C 0.69294 0.83413 0.85218 0.0
N201 N 0.67255 0.8236 0.86821 0.0
C202 C 0.70328 0.80814 0.84341 0.0
C203 C 0.67051 0.75959 0.86742 0.0
C204 C 0.66073 0.78677 0.8758 0.0
C205 C 0.69271 0.77041 0.85108 0.0
H206 H 0.70321 0.86385 0.84655 0.0
H207 H 0.64489 0.77881 0.8886 0.0
C208 C 0.70212 0.99564 0.897 0.0
N209 N 0.7537 0.07829 0.89958 0.0
C210 C 0.69844 0.02183 0.88491 0.0
C211 C 0.73202 0.0115 0.91043 0.0
C212 C 0.72483 0.06352 0.88642 0.0
C213 C 0.75777 0.05337 0.91151 0.0
C214 C 0.64367 0.88495 0.847 0.0
C215 C 0.65401 0.89667 0.82894 0.0
C216 C 0.60635 0.85071 0.851 0.0
C217 C 0.62688 0.87399 0.81519 0.0
C218 C 0.58005 0.82883 0.83687 0.0
N219 N 0.59076 0.84082 0.81941 0.0
C220 C 0.7913 0.00475 0.8797 0.0
C221 C 0.75249 0.99448 0.8531 0.0
C222 C 0.82519 0.03679 0.8716 0.0
N223 N 0.75618 0.98381 0.87023 0.0
C224 C 0.78537 0.02666 0.84456 0.0
C225 C 0.82252 0.04793 0.85374 0.0
H226 H 0.7931 0.99687 0.89356 0.0
H227 H 0.7238 0.97821 0.84613 0.0
C228 C 0.56381 0.91084 0.88595 0.0
N229 N 0.59501 0.92191 0.87417 0.0
C230 C 0.53828 0.92723 0.88437 0.0
C231 C 0.57653 0.96484 0.85813 0.0
C232 C 0.6011 0.94744 0.86014 0.0
C233 C 0.54536 0.95584 0.87071 0.0
H234 H 0.56015 0.89105 0.89719 0.0
H235 H 0.62679 0.95649 0.85123 0.0
O236 O 0.71649 0.90084 0.89555 0.0
O237 O 0.62377 0.86233 0.89611 0.0
O238 O 0.67706 0.95465 0.89551 0.0
O239 O 0.67024 0.90707 0.86053 0.0
H240 H 0.75935 0.89738 0.86795 0.0
H241 H 0.76563 0.9333 0.92366 0.0
H242 H 0.83236 0.91886 0.86917 0.0
H243 H 0.8385 0.95409 0.92395 0.0
H244 H 0.52155 0.73834 0.91276 0.0
H245 H 0.66589 0.84265 0.91841 0.0
H246 H 0.54811 0.8022 0.89517 0.0
H247 H 0.63724 0.77848 0.93577 0.0
H248 H 0.72247 0.92015 0.97277 0.0
H249 H 0.65586 0.98008 0.95717 0.0
H250 H 0.72121 0.81859 0.83115 0.0
H251 H 0.66136 0.73074 0.87383 0.0
H252 H 0.67571 0.01012 0.87437 0.0
H253 H 0.73586 0.99169 0.9197 0.0
H254 H 0.72242 0.08414 0.87711 0.0
H255 H 0.78118 0.06602 0.92177 0.0
H256 H 0.6828 0.92294 0.82554 0.0
H257 H 0.59761 0.84091 0.86479 0.0
H258 H 0.63455 0.88274 0.80117 0.0
H259 H 0.55111 0.80229 0.83979 0.0
H260 H 0.8532 0.05232 0.87921 0.0
H261 H 0.78154 0.03499 0.83098 0.0
H262 H 0.51419 0.91869 0.89417 0.0
H263 H 0.58357 0.98698 0.84752 0.0
Li264 Li 0.8013 0.66938 0.21261 0.0
Li265 Li 0.77047 0.67882 0.24082 0.0
Li266 Li 0.72622 0.63685 0.21603 0.0
Li267 Li 0.77017 0.71079 0.21308 0.0
C268 C 0.78477 0.60948 0.23827 0.0
N269 N 0.82717 0.57519 0.25315 0.0
C270 C 0.81405 0.63022 0.25159 0.0
C271 C 0.77699 0.57132 0.23254 0.0
C272 C 0.83511 0.61231 0.25897 0.0
C273 C 0.79882 0.55453 0.24019 0.0
C274 C 0.84368 0.7599 0.22409 0.0
C275 C 0.86162 0.82958 0.22881 0.0
N276 N 0.89276 0.84158 0.21687 0.0
C277 C 0.87619 0.77303 0.21203 0.0
C278 C 0.83666 0.7885 0.23271 0.0
C279 C 0.90054 0.81439 0.20852 0.0
C280 C 0.85462 0.68488 0.18357 0.0
N281 N 0.84721 0.66978 0.20074 0.0
C282 C 0.91119 0.67168 0.20108 0.0
C283 C 0.87445 0.66252 0.20946 0.0
C284 C 0.92032 0.68891 0.18361 0.0
C285 C 0.89082 0.69452 0.17475 0.0
H286 H 0.83368 0.69223 0.17709 0.0
H287 H 0.86878 0.65149 0.22321 0.0
C288 C 0.73733 0.65672 0.2759 0.0
N289 N 0.77006 0.6851 0.26659 0.0
C290 C 0.72818 0.66571 0.29301 0.0
C291 C 0.78908 0.73118 0.29147 0.0
C292 C 0.7968 0.72109 0.27429 0.0
C293 C 0.75333 0.70409 0.30074 0.0
H294 H 0.71631 0.62853 0.26934 0.0
H295 H 0.82272 0.74303 0.26665 0.0
C296 C 0.75185 0.64313 0.18076 0.0
N297 N 0.73204 0.59148 0.15151 0.0
C298 C 0.74007 0.65255 0.16439 0.0
C299 C 0.75354 0.60748 0.1823 0.0
C300 C 0.73015 0.62602 0.14974 0.0
C301 C 0.74345 0.58176 0.16733 0.0
C302 C 0.70126 0.68361 0.24286 0.0
C303 C 0.66331 0.65045 0.24704 0.0
C304 C 0.7156 0.71939 0.25286 0.0
C305 C 0.64064 0.65345 0.26123 0.0
C306 C 0.69208 0.7212 0.26697 0.0
N307 N 0.6554 0.68845 0.27084 0.0
C308 C 0.65354 0.56094 0.22112 0.0
C309 C 0.65276 0.60294 0.19761 0.0
C310 C 0.61148 0.53573 0.21973 0.0
N311 N 0.67296 0.59437 0.21045 0.0
C312 C 0.61091 0.57827 0.19557 0.0
C313 C 0.58954 0.54492 0.20711 0.0
H314 H 0.67022 0.55546 0.23154 0.0
H315 H 0.66878 0.63039 0.1897 0.0
C316 C 0.7953 0.76962 0.18627 0.0
N317 N 0.77297 0.75602 0.20169 0.0
C318 C 0.79785 0.80274 0.17708 0.0
C319 C 0.7545 0.80707 0.19992 0.0
C320 C 0.7524 0.77362 0.20852 0.0
C321 C 0.77736 0.82182 0.184 0.0
H322 H 0.81101 0.7546 0.18114 0.0
H323 H 0.73413 0.76154 0.22052 0.0
O324 O 0.76364 0.62624 0.23086 0.0
O325 O 0.81882 0.71937 0.22736 0.0
O326 O 0.76102 0.66854 0.19527 0.0
O327 O 0.72418 0.68096 0.22914 0.0
H328 H 0.82088 0.66 0.25602 0.0
H329 H 0.75432 0.55486 0.22227 0.0
H330 H 0.85795 0.62804 0.26925 0.0
H331 H 0.7932 0.52506 0.23585 0.0
H332 H 0.85618 0.85192 0.23524 0.0
H333 H 0.88272 0.75165 0.20547 0.0
H334 H 0.81186 0.77911 0.24211 0.0
H335 H 0.92565 0.82486 0.19914 0.0
H336 H 0.93268 0.6664 0.20847 0.0
H337 H 0.89651 0.70859 0.16152 0.0
H338 H 0.70014 0.64384 0.29946 0.0
H339 H 0.81008 0.76061 0.29706 0.0
H340 H 0.73848 0.68001 0.16305 0.0
H341 H 0.76254 0.59976 0.1949 0.0
H342 H 0.72091 0.63287 0.13699 0.0
H343 H 0.74464 0.55406 0.1683 0.0
H344 H 0.65137 0.6226 0.2395 0.0
H345 H 0.74491 0.7453 0.25004 0.0
H346 H 0.61132 0.62791 0.26461 0.0
H347 H 0.70312 0.74856 0.27491 0.0
H348 H 0.59609 0.51016 0.22882 0.0
H349 H 0.59513 0.58668 0.18583 0.0
H350 H 0.81579 0.8135 0.16482 0.0
H351 H 0.7378 0.82076 0.20543 0.0
Li352 Li 0.13202 0.79948 0.54757 0.0
Li353 Li 0.09264 0.76796 0.57575 0.0
Li354 Li 0.09083 0.72463 0.55124 0.0
Li355 Li 0.05957 0.76729 0.54831 0.0
C356 C 0.17475 0.78696 0.57513 0.0
N357 N 0.24548 0.83488 0.5941 0.0
C358 C 0.17922 0.82015 0.58511 0.0
C359 C 0.20623 0.77816 0.57481 0.0
C360 C 0.2152 0.84397 0.59462 0.0
C361 C 0.24177 0.80277 0.58447 0.0
C362 C 0.08411 0.84164 0.56028 0.0
C363 C 0.03192 0.85892 0.56531 0.0
N364 N 0.05369 0.89347 0.55555 0.0
C365 C 0.10624 0.87767 0.55056 0.0
C366 C 0.04693 0.83254 0.56796 0.0
C367 C 0.09026 0.90334 0.54822 0.0
C368 C 0.1619 0.85303 0.51906 0.0
N369 N 0.17515 0.84575 0.53498 0.0
C370 C 0.23688 0.90973 0.53263 0.0
C371 C 0.21239 0.87283 0.54168 0.0
C372 C 0.22258 0.9188 0.51673 0.0
C373 C 0.18513 0.88921 0.5097 0.0
H374 H 0.13184 0.83192 0.51419 0.0
H375 H 0.22232 0.86697 0.55445 0.0
C376 C 0.08357 0.73609 0.61107 0.0
N377 N 0.08621 0.76783 0.60152 0.0
C378 C 0.06603 0.72713 0.62831 0.0
C379 C 0.05842 0.78628 0.62636 0.0
C380 C 0.07557 0.79376 0.60904 0.0
C381 C 0.05186 0.75159 0.63587 0.0
H382 H 0.09194 0.71576 0.60468 0.0
H383 H 0.07781 0.81866 0.60116 0.0
C384 C 0.11256 0.75166 0.51644 0.0
N385 N 0.15196 0.73764 0.48837 0.0
C386 C 0.09584 0.74341 0.49905 0.0
C387 C 0.14931 0.75276 0.51958 0.0
C388 C 0.11623 0.7364 0.48503 0.0
C389 C 0.16876 0.7456 0.5052 0.0
C390 C 0.01952 0.69865 0.57822 0.0
C391 C 0.01781 0.66247 0.58329 0.0
C392 C 0.99554 0.71115 0.58742 0.0
C393 C 0.99256 0.63971 0.59756 0.0
C394 C 0.97076 0.68762 0.60165 0.0
N395 N 0.96979 0.65268 0.60638 0.0
C396 C 0.09557 0.65226 0.5556 0.0
C397 C 0.05091 0.65131 0.53297 0.0
C398 C 0.07895 0.61027 0.55403 0.0
N399 N 0.08051 0.67154 0.54548 0.0
C400 C 0.0338 0.60952 0.53082 0.0
C401 C 0.04684 0.58821 0.54185 0.0
H402 H 0.11847 0.66895 0.56573 0.0
H403 H 0.03884 0.66728 0.52545 0.0
C404 C 0.02554 0.79724 0.52386 0.0
N405 N 0.01657 0.76956 0.53723 0.0
C406 C 0.99454 0.79946 0.51489 0.0
C407 C 0.94584 0.74441 0.53362 0.0
C408 C 0.97778 0.74322 0.54217 0.0
C409 C 0.95408 0.77264 0.51971 0.0
H410 H 0.05681 0.81735 0.5201 0.0
H411 H 0.9716 0.72101 0.55259 0.0
O412 O 0.13984 0.76293 0.56573 0.0
O413 O 0.09906 0.8158 0.56249 0.0
O414 O 0.09278 0.75851 0.53027 0.0
O415 O 0.04443 0.72156 0.56433 0.0
H416 H 0.15541 0.82771 0.58546 0.0
H417 H 0.2032 0.75258 0.56714 0.0
H418 H 0.2191 0.86976 0.60238 0.0
H419 H 0.26641 0.79633 0.58433 0.0
H420 H 0.00296 0.85192 0.571 0.0
H421 H 0.13561 0.88607 0.54501 0.0
H422 H 0.02957 0.80515 0.57569 0.0
H423 H 0.10702 0.93119 0.54064 0.0
H424 H 0.2655 0.93183 0.53858 0.0
H425 H 0.17302 0.89469 0.49742 0.0
H426 H 0.06193 0.70036 0.63531 0.0
H427 H 0.04787 0.80586 0.6317 0.0
H428 H 0.0674 0.74245 0.49643 0.0
H429 H 0.16278 0.75916 0.53293 0.0
H430 H 0.10364 0.72998 0.47149 0.0
H431 H 0.19723 0.74639 0.50741 0.0
H432 H 0.03587 0.65206 0.5764 0.0
H433 H 0.99624 0.73888 0.58376 0.0
H434 H 0.99115 0.61178 0.60164 0.0
H435 H 0.95239 0.69721 0.60897 0.0
H436 H 0.09009 0.59503 0.5627 0.0
H437 H 0.00887 0.59375 0.52142 0.0
H438 H 1.0021 0.82123 0.50405 0.0
H439 H 0.91506 0.72343 0.53782 0.0
Li440 Li 0.33059 0.09481 0.90803 0.0
Li441 Li 0.33543 0.13425 0.8794 0.0
Li442 Li 0.29613 0.06339 0.88013 0.0
Li443 Li 0.36791 0.0919 0.88042 0.0
C444 C 0.24815 0.08943 0.8966 0.0
N445 N 0.16665 0.0653 0.89865 0.0
C446 C 0.22826 0.09408 0.88167 0.0
C447 C 0.2265 0.07247 0.91258 0.0
C448 C 0.18707 0.08169 0.88297 0.0
C449 C 0.18534 0.06047 0.91335 0.0
C450 C 0.39618 0.17588 0.90568 0.0
C451 C 0.4518 0.2413 0.91411 0.0
N452 N 0.42644 0.24722 0.92502 0.0
C453 C 0.37064 0.18262 0.91695 0.0
C454 C 0.43707 0.2054 0.90422 0.0
C455 C 0.38653 0.21887 0.92664 0.0
C456 C 0.34561 0.06227 0.93796 0.0
N457 N 0.3294 0.08587 0.93366 0.0
C458 C 0.30113 0.07687 0.96341 0.0
C459 C 0.30869 0.09465 0.94617 0.0
C460 C 0.31464 0.0495 0.96772 0.0
C461 C 0.3382 0.04337 0.9548 0.0
H462 H 0.36197 0.05572 0.92779 0.0
H463 H 0.29626 0.11373 0.94253 0.0
C464 C 0.31075 0.16739 0.85247 0.0
N465 N 0.3324 0.17887 0.86815 0.0
C466 C 0.30043 0.19318 0.84351 0.0
C467 C 0.33595 0.24352 0.86657 0.0
C468 C 0.34558 0.21646 0.87519 0.0
C469 C 0.31248 0.23178 0.85059 0.0
H470 H 0.29959 0.13715 0.84728 0.0
H471 H 0.36254 0.22521 0.8877 0.0
C472 C 0.30304 0.00721 0.89719 0.0
N473 N 0.25134 0.92458 0.89981 0.0
C474 C 0.30682 0.98093 0.88518 0.0
C475 C 0.27298 0.99145 0.91055 0.0
C476 C 0.28036 0.93926 0.88671 0.0
C477 C 0.24716 0.94959 0.91165 0.0
C478 C 0.36087 0.11744 0.84704 0.0
C479 C 0.35003 0.10569 0.82902 0.0
C480 C 0.39839 0.15156 0.85089 0.0
C481 C 0.37689 0.1282 0.81516 0.0
C482 C 0.4244 0.17328 0.83664 0.0
N483 N 0.41321 0.16125 0.81922 0.0
C484 C 0.21351 0.99803 0.87978 0.0
C485 C 0.2529 0.00772 0.85343 0.0
C486 C 0.17978 0.96588 0.87165 0.0
N487 N 0.24885 0.01875 0.87044 0.0
C488 C 0.22019 0.9754 0.84487 0.0
C489 C 0.18282 0.95436 0.85391 0.0
H490 H 0.21142 0.00608 0.89356 0.0
H491 H 0.28177 0.02379 0.84658 0.0
C492 C 0.44117 0.09183 0.88597 0.0
N493 N 0.40997 0.0808 0.87419 0.0
C494 C 0.46666 0.0754 0.88437 0.0
C495 C 0.4284 0.03784 0.85814 0.0
C496 C 0.40385 0.05527 0.86015 0.0
C497 C 0.45956 0.04679 0.87071 0.0
H498 H 0.44484 0.11162 0.8972 0.0
H499 H 0.37816 0.04624 0.85125 0.0
O500 O 0.28865 0.10193 0.89573 0.0
O501 O 0.38145 0.14061 0.8961 0.0
O502 O 0.32812 0.04818 0.89567 0.0
O503 O 0.33456 0.09551 0.86068 0.0
H504 H 0.24422 0.10662 0.86914 0.0
H505 H 0.24101 0.06787 0.92416 0.0
H506 H 0.17133 0.08503 0.87148 0.0
H507 H 0.16823 0.04713 0.92561 0.0
H508 H 0.48339 0.26444 0.9131 0.0
H509 H 0.33882 0.16036 0.91806 0.0
H510 H 0.4572 0.2006 0.89553 0.0
H511 H 0.3671 0.22452 0.93539 0.0
H512 H 0.28382 0.08359 0.97302 0.0
H513 H 0.34901 0.02236 0.95715 0.0
H514 H 0.28151 0.18201 0.83157 0.0
H515 H 0.34629 0.27306 0.87251 0.0
H516 H 0.32968 0.99258 0.87469 0.0
H517 H 0.26909 0.01132 0.91976 0.0
H518 H 0.28285 0.91859 0.87747 0.0
H519 H 0.22364 0.93701 0.92186 0.0
H520 H 0.32107 0.07951 0.82574 0.0
H521 H 0.4075 0.16137 0.86465 0.0
H522 H 0.36884 0.11942 0.80116 0.0
H523 H 0.45349 0.19973 0.83944 0.0
H524 H 0.1516 0.95053 0.87915 0.0
H525 H 0.22432 0.96678 0.8314 0.0
H526 H 0.49074 0.08391 0.89418 0.0
H527 H 0.42135 0.0157 0.84752 0.0
Li528 Li 0.71172 0.76876 0.4531 0.0
Li529 Li 0.63792 0.72557 0.45044 0.0
Li530 Li 0.67856 0.76939 0.42585 0.0
Li531 Li 0.67097 0.80032 0.45427 0.0
C532 C 0.68201 0.70006 0.42297 0.0
N533 N 0.68353 0.65335 0.39461 0.0
C534 C 0.64667 0.66473 0.41784 0.0
C535 C 0.71816 0.71145 0.41366 0.0
C536 C 0.64806 0.64156 0.40348 0.0
C537 C 0.71829 0.68753 0.39935 0.0
C538 C 0.64354 0.75182 0.48531 0.0
C539 C 0.58166 0.74571 0.49711 0.0
N540 N 0.59025 0.73609 0.51364 0.0
C541 C 0.65175 0.74185 0.5024 0.0
C542 C 0.6082 0.75374 0.4826 0.0
C543 C 0.62443 0.73401 0.51656 0.0
C544 C 0.77615 0.7986 0.47736 0.0
N545 N 0.75724 0.77108 0.46394 0.0
C546 C 0.80257 0.74557 0.46732 0.0
C547 C 0.76949 0.74466 0.45886 0.0
C548 C 0.82271 0.77356 0.48129 0.0
C549 C 0.80933 0.80052 0.48623 0.0
H550 H 0.76512 0.81874 0.48124 0.0
H551 H 0.75327 0.72255 0.44844 0.0
C552 C 0.55848 0.65388 0.44882 0.0
N553 N 0.59615 0.67209 0.45627 0.0
C554 C 0.53302 0.61188 0.45043 0.0
C555 C 0.58506 0.60881 0.46792 0.0
C556 C 0.60934 0.65068 0.46603 0.0
C557 C 0.54667 0.58853 0.45966 0.0
H558 H 0.54909 0.67154 0.44081 0.0
H559 H 0.63983 0.66591 0.47143 0.0
C560 C 0.76088 0.84285 0.44112 0.0
N561 N 0.84332 0.8942 0.44552 0.0
C562 C 0.77524 0.8789 0.45088 0.0
C563 C 0.78858 0.83344 0.43327 0.0
C564 C 0.81698 0.90434 0.45303 0.0
C565 C 0.83008 0.85961 0.43575 0.0
C566 C 0.61477 0.78741 0.42709 0.0
C567 C 0.64291 0.82065 0.41695 0.0
C568 C 0.57444 0.77839 0.42785 0.0
C569 C 0.63012 0.84429 0.40772 0.0
C570 C 0.56288 0.80283 0.41846 0.0
N571 N 0.59072 0.83498 0.40867 0.0
C572 C 0.65521 0.7381 0.39041 0.0
C573 C 0.7212 0.79528 0.39251 0.0
C574 C 0.66371 0.72908 0.37316 0.0
N575 N 0.68454 0.76956 0.40001 0.0
C576 C 0.7308 0.78773 0.3752 0.0
C577 C 0.70247 0.75321 0.36565 0.0
H578 H 0.62641 0.71796 0.39676 0.0
H579 H 0.74399 0.82002 0.40042 0.0
C580 C 0.69515 0.85394 0.4828 0.0
N581 N 0.6741 0.84641 0.46701 0.0
C582 C 0.70822 0.89019 0.49212 0.0
C583 C 0.67602 0.9102 0.46945 0.0
C584 C 0.66353 0.87327 0.46043 0.0
C585 C 0.69993 0.91957 0.4852 0.0
H586 H 0.70431 0.83293 0.48757 0.0
H587 H 0.64735 0.86722 0.44776 0.0
O588 O 0.68121 0.72329 0.43698 0.0
O589 O 0.67001 0.75937 0.47135 0.0
O590 O 0.72001 0.81724 0.4391 0.0
O591 O 0.62626 0.76359 0.43625 0.0
H592 H 0.61832 0.65539 0.42469 0.0
H593 H 0.74581 0.73865 0.41731 0.0
H594 H 0.62089 0.61426 0.39936 0.0
H595 H 0.74599 0.69622 0.39197 0.0
H596 H 0.55422 0.74712 0.49522 0.0
H597 H 0.67898 0.74019 0.50468 0.0
H598 H 0.60131 0.76142 0.46948 0.0
H599 H 0.6304 0.72625 0.52986 0.0
H600 H 0.81216 0.72449 0.46302 0.0
H601 H 0.82366 0.82211 0.49713 0.0
H602 H 0.50349 0.59773 0.44403 0.0
H603 H 0.59733 0.59233 0.4749 0.0
H604 H 0.7545 0.88744 0.45661 0.0
H605 H 0.77815 0.80591 0.42557 0.0
H606 H 0.82843 0.93221 0.46063 0.0
H607 H 0.85177 0.85238 0.42992 0.0
H608 H 0.67431 0.8284 0.41628 0.0
H609 H 0.55233 0.75278 0.43566 0.0
H610 H 0.65156 0.87012 0.39985 0.0
H611 H 0.53176 0.79622 0.41896 0.0
H612 H 0.64087 0.70247 0.36613 0.0
H613 H 0.76102 0.80708 0.3699 0.0
H614 H 0.72625 0.89591 0.50427 0.0
H615 H 0.66914 0.93212 0.46359 0.0
Li616 Li 0.94369 0.71017 0.78893 0.0
Li617 Li 0.91323 0.63615 0.78599 0.0
Li618 Li 0.91123 0.67827 0.76117 0.0
Li619 Li 0.87089 0.66887 0.78934 0.0
C620 C 0.98484 0.6825 0.75907 0.0
N621 N 0.03498 0.68684 0.73095 0.0
C622 C 0.98885 0.64897 0.7547 0.0
C623 C 0.00675 0.71837 0.74918 0.0
C624 C 0.01427 0.65173 0.74044 0.0
C625 C 0.03179 0.71993 0.735 0.0
C626 C 0.89509 0.64305 0.82138 0.0
C627 C 0.84297 0.58222 0.83554 0.0
N628 N 0.86542 0.59218 0.85099 0.0
C629 C 0.91765 0.65273 0.83737 0.0
C630 C 0.85748 0.60754 0.8204 0.0
C631 C 0.90213 0.6266 0.85221 0.0
C632 C 0.97767 0.76958 0.81551 0.0
N633 N 0.98634 0.75523 0.80032 0.0
C634 C 0.05619 0.80531 0.80225 0.0
C635 C 0.02462 0.77195 0.79369 0.0
C636 C 0.04816 0.82088 0.81792 0.0
C637 C 0.00844 0.80265 0.82465 0.0
H638 H 0.94684 0.75522 0.8205 0.0
H639 H 0.03075 0.75925 0.78189 0.0
C640 C 0.90917 0.55972 0.78123 0.0
N641 N 0.92392 0.59363 0.79162 0.0
C642 C 0.92589 0.5344 0.78261 0.0
C643 C 0.97049 0.57792 0.80616 0.0
C644 C 0.95338 0.60266 0.80416 0.0
C645 C 0.9577 0.54401 0.7949 0.0
H646 H 0.88647 0.55389 0.77104 0.0
H647 H 0.96541 0.6305 0.81181 0.0
C648 C 0.9194 0.75945 0.77793 0.0
N649 N 0.952 0.84111 0.78515 0.0
C650 C 0.89979 0.77259 0.78984 0.0
C651 C 0.95526 0.78801 0.76946 0.0
C652 C 0.9168 0.81395 0.79336 0.0
C653 C 0.97138 0.8291 0.77336 0.0
C654 C 0.82719 0.60873 0.76396 0.0
C655 C 0.81837 0.6286 0.75032 0.0
C656 C 0.79679 0.57117 0.77031 0.0
C657 C 0.77912 0.61047 0.74325 0.0
C658 C 0.75788 0.55414 0.76294 0.0
N659 N 0.74993 0.57396 0.74967 0.0
C660 C 0.92177 0.65609 0.72601 0.0
C661 C 0.92753 0.7208 0.72777 0.0
C662 C 0.93965 0.66496 0.70883 0.0
N663 N 0.91793 0.68466 0.73541 0.0
C664 C 0.94509 0.73079 0.71055 0.0
C665 C 0.95315 0.70343 0.70116 0.0
H666 H 0.91433 0.62776 0.73251 0.0
H667 H 0.92396 0.7429 0.73549 0.0
C668 C 0.83291 0.68422 0.81836 0.0
N669 N 0.82543 0.66944 0.80114 0.0
C670 C 0.80642 0.69402 0.82713 0.0
C671 C 0.7637 0.67197 0.80062 0.0
C672 C 0.79122 0.66267 0.7923 0.0
C673 C 0.77159 0.68889 0.81816 0.0
H674 H 0.861 0.69118 0.82493 0.0
H675 H 0.78609 0.65196 0.7785 0.0
O676 O 0.95953 0.68011 0.77286 0.0
O677 O 0.91023 0.66804 0.80667 0.0
O678 O 0.90369 0.71892 0.77465 0.0
O679 O 0.86537 0.62573 0.77108 0.0
H680 H 0.9725 0.62101 0.76214 0.0
H681 H 0.00395 0.74457 0.75217 0.0
H682 H 0.01745 0.62592 0.7369 0.0
H683 H 0.04848 0.74737 0.72713 0.0
H684 H 0.81389 0.55463 0.83499 0.0
H685 H 0.94692 0.68009 0.83828 0.0
H686 H 0.83973 0.59964 0.80809 0.0
H687 H 0.91928 0.63365 0.86468 0.0
H688 H 0.08667 0.81831 0.7969 0.0
H689 H 1.0013 0.81405 0.83672 0.0
H690 H 0.91507 0.5084 0.77373 0.0
H691 H 0.99523 0.5867 0.81563 0.0
H692 H 0.87171 0.75122 0.7963 0.0
H693 H 0.97085 0.77859 0.76018 0.0
H694 H 0.902 0.82444 0.80263 0.0
H695 H 0.99935 0.85142 0.76704 0.0
H696 H 0.84136 0.6579 0.74541 0.0
H697 H 0.80321 0.55536 0.78082 0.0
H698 H 0.7718 0.62553 0.73273 0.0
H699 H 0.73401 0.52513 0.76775 0.0
H700 H 0.94536 0.64288 0.70229 0.0
H701 H 0.95377 0.76031 0.705 0.0
H702 H 0.81465 0.70784 0.84041 0.0
H703 H 0.73716 0.66707 0.79315 0.0
Li704 Li 0.23341 0.93836 0.12134 0.0
Li705 Li 0.27672 0.90991 0.12112 0.0
Li706 Li 0.23634 0.90681 0.09348 0.0
Li707 Li 0.20185 0.86758 0.12219 0.0
C708 C 0.29649 0.99442 0.10411 0.0
N709 N 0.32751 0.077 0.10115 0.0
C710 C 0.32676 0.02091 0.11597 0.0
C711 C 0.28201 0.00993 0.09072 0.0
C712 C 0.34203 0.06257 0.11427 0.0
C713 C 0.29811 0.05177 0.08944 0.0
C714 C 0.24437 0.88465 0.15452 0.0
C715 C 0.25134 0.82841 0.16494 0.0
N716 N 0.25332 0.84111 0.18233 0.0
C717 C 0.24647 0.8971 0.1725 0.0
C718 C 0.24682 0.84999 0.1507 0.0
C719 C 0.251 0.87471 0.18636 0.0
C720 C 0.21608 0.00359 0.12138 0.0
N721 N 0.23086 0.98317 0.13083 0.0
C722 C 0.24589 0.02722 0.15615 0.0
C723 C 0.24617 0.99467 0.14778 0.0
C724 C 0.22939 0.04797 0.147 0.0
C725 C 0.21458 0.03595 0.12932 0.0
H726 H 0.2057 0.99508 0.10764 0.0
H727 H 0.25905 0.97879 0.15472 0.0
C728 C 0.35008 0.90986 0.11567 0.0
N729 N 0.3299 0.9211 0.12735 0.0
C730 C 0.39201 0.92634 0.11728 0.0
C731 C 0.3913 0.96437 0.14333 0.0
C732 C 0.34932 0.94689 0.14131 0.0
C733 C 0.41352 0.95519 0.13086 0.0
H734 H 0.33396 0.88987 0.10449 0.0
H735 H 0.33265 0.95607 0.15012 0.0
C736 C 0.1588 0.91159 0.10559 0.0
N737 N 0.10069 0.93485 0.10495 0.0
C738 C 0.13629 0.90797 0.12114 0.0
C739 C 0.15173 0.92709 0.0897 0.0
C740 C 0.10707 0.91989 0.12055 0.0
C741 C 0.12224 0.93868 0.08965 0.0
C742 C 0.22104 0.82568 0.09604 0.0
C743 C 0.18929 0.81896 0.08443 0.0
C744 C 0.23204 0.79597 0.09795 0.0
C745 C 0.16906 0.78253 0.07486 0.0
C746 C 0.21101 0.75989 0.08818 0.0
N747 N 0.18023 0.75399 0.07692 0.0
C748 C 0.28387 0.93891 0.0635 0.0
C749 C 0.21452 0.90753 0.05544 0.0
C750 C 0.29544 0.95789 0.04668 0.0
N751 N 0.24403 0.91574 0.06786 0.0
C752 C 0.22481 0.92539 0.03821 0.0
C753 C 0.26578 0.9523 0.03384 0.0
H754 H 0.30677 0.94508 0.07362 0.0
H755 H 0.18299 0.88878 0.05912 0.0
C756 C 0.14431 0.83333 0.14947 0.0
N757 N 0.15399 0.82284 0.13339 0.0
C758 C 0.10798 0.80742 0.15826 0.0
C759 C 0.09178 0.75902 0.13415 0.0
C760 C 0.12875 0.78612 0.12575 0.0
C761 C 0.08061 0.76981 0.15055 0.0
H762 H 0.16391 0.86299 0.15513 0.0
H763 H 0.13646 0.7782 0.11291 0.0
O764 O 0.28057 0.95347 0.10579 0.0
O765 O 0.23989 0.9065 0.14087 0.0
O766 O 0.18734 0.89975 0.10581 0.0
O767 O 0.2415 0.86116 0.10548 0.0
H768 H 0.33812 0.00947 0.12648 0.0
H769 H 0.25806 0.98989 0.08162 0.0
H770 H 0.36536 0.08341 0.1234 0.0
H771 H 0.28702 0.06416 0.07921 0.0
H772 H 0.25324 0.80154 0.16217 0.0
H773 H 0.24447 0.92372 0.17575 0.0
H774 H 0.24519 0.83963 0.13697 0.0
H775 H 0.25263 0.88402 0.20033 0.0
H776 H 0.25883 0.03623 0.16957 0.0
H777 H 0.20159 0.05103 0.12175 0.0
H778 H 0.40758 0.91765 0.10756 0.0
H779 H 0.40638 0.9867 0.15388 0.0
H780 H 0.14172 0.89673 0.13362 0.0
H781 H 0.16924 0.93083 0.07762 0.0
H782 H 0.08957 0.91739 0.13252 0.0
H783 H 0.11661 0.95087 0.07746 0.0
H784 H 0.18 0.84136 0.08298 0.0
H785 H 0.25658 0.80077 0.1069 0.0
H786 H 0.14436 0.77687 0.06585 0.0
H787 H 0.21917 0.7366 0.08953 0.0
H788 H 0.32733 0.97855 0.04428 0.0
H789 H 0.20079 0.91908 0.02866 0.0
H790 H 0.10066 0.81784 0.17057 0.0
H791 H 0.0719 0.73026 0.12771 0.0
Li792 Li 0.36785 0.27446 0.45076 0.0
Li793 Li 0.29638 0.23529 0.45343 0.0
Li794 Li 0.33286 0.20037 0.45399 0.0
Li795 Li 0.32713 0.23292 0.42525 0.0
C796 C 0.36267 0.24552 0.48534 0.0
N797 N 0.41567 0.25408 0.51281 0.0
C798 C 0.35367 0.24973 0.50329 0.0
C799 C 0.3986 0.24559 0.48135 0.0
C800 C 0.38086 0.25405 0.51699 0.0
C801 C 0.425 0.24997 0.49544 0.0
C802 C 0.32686 0.31437 0.43996 0.0
C803 C 0.32838 0.37506 0.4295 0.0
N804 N 0.32731 0.3858 0.44698 0.0
C805 C 0.3256 0.32592 0.45782 0.0
C806 C 0.32814 0.33905 0.42567 0.0
C807 C 0.32594 0.36218 0.46109 0.0
C808 C 0.43351 0.34943 0.44057 0.0
N809 N 0.41202 0.32806 0.45529 0.0
C810 C 0.43922 0.38879 0.47294 0.0
C811 C 0.41519 0.34671 0.47143 0.0
C812 C 0.46018 0.41203 0.45771 0.0
C813 C 0.45807 0.39154 0.44151 0.0
H814 H 0.42958 0.33403 0.42778 0.0
H815 H 0.39666 0.32946 0.48277 0.0
C816 C 0.23832 0.21567 0.48005 0.0
N817 N 0.25052 0.23383 0.46363 0.0
C818 C 0.20471 0.21362 0.48853 0.0
C819 C 0.19696 0.24897 0.46294 0.0
C820 C 0.23058 0.2501 0.45491 0.0
C821 C 0.18385 0.23069 0.47999 0.0
H822 H 0.25488 0.20294 0.48655 0.0
H823 H 0.24074 0.26382 0.44172 0.0
C824 C 0.38828 0.21171 0.42641 0.0
N825 N 0.40972 0.16288 0.40731 0.0
C826 C 0.35914 0.17891 0.41638 0.0
C827 C 0.42828 0.21963 0.42673 0.0
C828 C 0.37061 0.15462 0.4068 0.0
C829 C 0.43852 0.19458 0.417 0.0
C830 C 0.24315 0.16683 0.43897 0.0
C831 C 0.22119 0.13442 0.45079 0.0
C832 C 0.22253 0.17962 0.42749 0.0
C833 C 0.17892 0.11556 0.45104 0.0
C834 C 0.18024 0.15996 0.42814 0.0
N835 N 0.15949 0.12863 0.43982 0.0
C836 C 0.30417 0.14383 0.48106 0.0
C837 C 0.34025 0.12704 0.45995 0.0
C838 C 0.29085 0.10738 0.49024 0.0
N839 N 0.32762 0.15272 0.46597 0.0
C840 C 0.32762 0.08994 0.46886 0.0
C841 C 0.3015 0.07924 0.48391 0.0
H842 H 0.29393 0.16425 0.48548 0.0
H843 H 0.35866 0.13436 0.44788 0.0
C844 C 0.34543 0.2725 0.39228 0.0
N845 N 0.32146 0.23536 0.39969 0.0
C846 C 0.3366 0.2817 0.37517 0.0
C847 C 0.28017 0.2133 0.37306 0.0
C848 C 0.2901 0.20542 0.39028 0.0
C849 C 0.30265 0.25239 0.3656 0.0
H850 H 0.36982 0.29586 0.4002 0.0
H851 H 0.27113 0.17631 0.39659 0.0
O852 O 0.33609 0.24126 0.47188 0.0
O853 O 0.32662 0.279 0.43638 0.0
O854 O 0.37802 0.23602 0.43597 0.0
O855 O 0.28462 0.18631 0.43881 0.0
H856 H 0.32595 0.2497 0.50658 0.0
H857 H 0.40616 0.2423 0.4676 0.0
H858 H 0.37429 0.25737 0.53094 0.0
H859 H 0.45291 0.25009 0.49256 0.0
H860 H 0.32937 0.39445 0.41858 0.0
H861 H 0.32442 0.30713 0.46905 0.0
H862 H 0.32886 0.33046 0.41176 0.0
H863 H 0.3251 0.37154 0.47484 0.0
H864 H 0.4393 0.40308 0.48563 0.0
H865 H 0.47415 0.40796 0.42948 0.0
H866 H 0.19565 0.19962 0.50176 0.0
H867 H 0.18124 0.262 0.45588 0.0
H868 H 0.32798 0.172 0.41607 0.0
H869 H 0.45116 0.24486 0.43447 0.0
H870 H 0.34838 0.12912 0.39901 0.0
H871 H 0.46937 0.20034 0.41714 0.0
H872 H 0.23655 0.12394 0.45969 0.0
H873 H 0.23904 0.2051 0.41849 0.0
H874 H 0.16156 0.09055 0.46017 0.0
H875 H 0.16393 0.16979 0.41945 0.0
H876 H 0.27118 0.1007 0.50189 0.0
H877 H 0.33644 0.06903 0.46348 0.0
H878 H 0.35523 0.31197 0.36982 0.0
H879 H 0.25365 0.18983 0.36622 0.0
Li880 Li 0.06177 0.29191 0.78868 0.0
Li881 Li 0.09228 0.36583 0.78584 0.0
Li882 Li 0.09436 0.32402 0.76079 0.0
Li883 Li 0.13522 0.33397 0.78885 0.0
C884 C 0.02084 0.31977 0.75884 0.0
N885 N 0.971 0.31576 0.73066 0.0
C886 C 0.01694 0.35338 0.75451 0.0
C887 C 0.99907 0.28401 0.74886 0.0
C888 C 0.99165 0.35077 0.74023 0.0
C889 C 0.97416 0.28262 0.73465 0.0
C890 C 0.10504 0.35684 0.82157 0.0
C891 C 0.15041 0.41638 0.83866 0.0
N892 N 0.12281 0.4039 0.85235 0.0
C893 C 0.07717 0.3445 0.8358 0.0
C894 C 0.14199 0.39298 0.82298 0.0
C895 C 0.0867 0.36876 0.85125 0.0
C896 C 0.02781 0.23296 0.81549 0.0
N897 N 0.01924 0.24677 0.8001 0.0
C898 C 0.94956 0.19609 0.80185 0.0
C899 C 0.98108 0.22946 0.79328 0.0
C900 C 0.95749 0.1811 0.81774 0.0
C901 C 0.99707 0.1999 0.82466 0.0
H902 H 0.05852 0.24777 0.82062 0.0
H903 H 0.97502 0.24171 0.7813 0.0
C904 C 0.09717 0.44304 0.78209 0.0
N905 N 0.08084 0.40783 0.79162 0.0
C906 C 0.08044 0.46837 0.78351 0.0
C907 C 0.03224 0.42188 0.8053 0.0
C908 C 0.0494 0.39722 0.80325 0.0
C909 C 0.04694 0.45737 0.79495 0.0
H910 H 0.12138 0.45013 0.77254 0.0
H911 H 0.03595 0.36829 0.81008 0.0
C912 C 0.0865 0.24313 0.77779 0.0
N913 N 0.05389 0.16169 0.78548 0.0
C914 C 0.10557 0.23042 0.79021 0.0
C915 C 0.05108 0.21429 0.76912 0.0
C916 C 0.08858 0.18915 0.79395 0.0
C917 C 0.03498 0.17331 0.77325 0.0
C918 C 0.17916 0.39506 0.76477 0.0
C919 C 0.18983 0.37935 0.75001 0.0
C920 C 0.20884 0.42971 0.77357 0.0
C921 C 0.23023 0.39857 0.74433 0.0
C922 C 0.24893 0.44797 0.76752 0.0
N923 N 0.2587 0.43216 0.75315 0.0
C924 C 0.08372 0.34602 0.72562 0.0
C925 C 0.07884 0.28168 0.72736 0.0
C926 C 0.06634 0.3372 0.70835 0.0
N927 N 0.08777 0.3176 0.73504 0.0
C928 C 0.0618 0.27176 0.71004 0.0
C929 C 0.05358 0.29894 0.70059 0.0
H930 H 0.09071 0.37419 0.73214 0.0
H931 H 0.08262 0.25972 0.73509 0.0
C932 C 0.17555 0.32211 0.81799 0.0
N933 N 0.18112 0.33389 0.80032 0.0
C934 C 0.20211 0.31222 0.82665 0.0
C935 C 0.24113 0.32831 0.79907 0.0
C936 C 0.21352 0.33763 0.79087 0.0
C937 C 0.23505 0.31425 0.81711 0.0
H938 H 0.14879 0.31748 0.8251 0.0
H939 H 0.2169 0.34572 0.77671 0.0
O940 O 0.04601 0.32198 0.77265 0.0
O941 O 0.09601 0.3337 0.80627 0.0
O942 O 0.1021 0.28355 0.77431 0.0
O943 O 0.13984 0.37678 0.77056 0.0
H944 H 0.03334 0.38131 0.76198 0.0
H945 H 1.00194 0.25781 0.75178 0.0
H946 H 0.98852 0.37663 0.73673 0.0
H947 H 0.95756 0.25528 0.72672 0.0
H948 H 0.17887 0.44446 0.83994 0.0
H949 H 0.0484 0.31658 0.83486 0.0
H950 H 0.16386 0.40281 0.81207 0.0
H951 H 0.06539 0.35968 0.86236 0.0
H952 H 0.91918 0.18264 0.79634 0.0
H953 H 0.00413 0.18897 0.83689 0.0
H954 H 0.09268 0.49555 0.77533 0.0
H955 H 0.0061 0.41196 0.81403 0.0
H956 H 0.13314 0.25207 0.79695 0.0
H957 H 0.03579 0.22342 0.75952 0.0
H958 H 0.10297 0.17897 0.80359 0.0
H959 H 0.00737 0.15076 0.76676 0.0
H960 H 0.16731 0.35241 0.74311 0.0
H961 H 0.20099 0.44238 0.78494 0.0
H962 H 0.23898 0.38669 0.73297 0.0
H963 H 0.27226 0.47474 0.77423 0.0
H964 H 0.06048 0.35913 0.70177 0.0
H965 H 0.0537 0.24242 0.70443 0.0
H966 H 0.19521 0.30066 0.84036 0.0
H967 H 0.26619 0.33083 0.79113 0.0
Li968 Li 0.72716 0.09176 0.12131 0.0
Li969 Li 0.77045 0.06338 0.12167 0.0
Li970 Li 0.80199 0.13418 0.12239 0.0
Li971 Li 0.76758 0.0947 0.09375 0.0
C972 C 0.75966 0.11754 0.15469 0.0
N973 N 0.75115 0.16163 0.18238 0.0
C974 C 0.75991 0.10666 0.17277 0.0
C975 C 0.7551 0.15093 0.15072 0.0
C976 C 0.75557 0.1293 0.18656 0.0
C977 C 0.75084 0.1728 0.1649 0.0
C978 C 0.70726 0.00705 0.10469 0.0
C979 C 0.70455 0.94902 0.09019 0.0
N980 N 0.67593 0.92433 0.10232 0.0
C981 C 0.67777 0.9811 0.11699 0.0
C982 C 0.72078 0.99092 0.09117 0.0
C983 C 0.66234 0.93937 0.11558 0.0
C984 C 0.65371 0.09131 0.11556 0.0
N985 N 0.67393 0.0806 0.12746 0.0
C986 C 0.61254 0.03785 0.14356 0.0
C987 C 0.65453 0.05535 0.14158 0.0
C988 C 0.59029 0.04645 0.13087 0.0
C989 C 0.61177 0.0748 0.11711 0.0
H990 H 0.66981 0.11088 0.10425 0.0
H991 H 0.67124 0.04658 0.15059 0.0
C992 C 0.78694 0.99756 0.12184 0.0
N993 N 0.77326 0.01884 0.13138 0.0
C994 C 0.78889 0.96561 0.12995 0.0
C995 C 0.7603 0.97649 0.15718 0.0
C996 C 0.75949 0.00858 0.14862 0.0
C997 C 0.7757 0.95489 0.14791 0.0
H998 H 0.79611 0.00508 0.10791 0.0
H999 H 0.74743 0.0251 0.15566 0.0
C1000 C 0.78294 0.17571 0.09603 0.0
N1001 N 0.824 0.247 0.07665 0.0
C1002 C 0.81541 0.18256 0.08487 0.0
C1003 C 0.77136 0.20509 0.09737 0.0
C1004 C 0.83575 0.21878 0.07515 0.0
C1005 C 0.79253 0.24097 0.08746 0.0
C1006 C 0.84421 0.08887 0.10542 0.0
C1007 C 0.86812 0.09286 0.12051 0.0
C1008 C 0.84906 0.07191 0.08947 0.0
C1009 C 0.89641 0.07979 0.11941 0.0
C1010 C 0.8777 0.05922 0.0889 0.0
N1011 N 0.90059 0.0634 0.10375 0.0
C1012 C 0.85985 0.16724 0.14927 0.0
C1013 C 0.87378 0.2166 0.12673 0.0
C1014 C 0.89594 0.19301 0.15823 0.0
N1015 N 0.84955 0.17886 0.13366 0.0
C1016 C 0.91044 0.24367 0.13538 0.0
C1017 C 0.92233 0.23177 0.15127 0.0
H1018 H 0.84084 0.13691 0.15439 0.0
H1019 H 0.86544 0.22547 0.11429 0.0
C1020 C 0.72027 0.06242 0.06372 0.0
N1021 N 0.76005 0.0859 0.06811 0.0
C1022 C 0.70893 0.04371 0.04684 0.0
C1023 C 0.7796 0.07715 0.03838 0.0
C1024 C 0.78967 0.09474 0.05567 0.0
C1025 C 0.73874 0.04991 0.03397 0.0
H1026 H 0.69726 0.05582 0.07385 0.0
H1027 H 0.82115 0.11373 0.05938 0.0
O1028 O 0.76407 0.09549 0.14111 0.0
O1029 O 0.72332 0.04807 0.10607 0.0
O1030 O 0.7624 0.14046 0.10563 0.0
O1031 O 0.81664 0.10193 0.10612 0.0
H1032 H 0.76363 0.08108 0.17613 0.0
H1033 H 0.75483 0.16004 0.13692 0.0
H1034 H 0.75575 0.1212 0.20059 0.0
H1035 H 0.74729 0.19868 0.16201 0.0
H1036 H 0.71491 0.93616 0.07986 0.0
H1037 H 0.66717 0.99303 0.12761 0.0
H1038 H 0.74414 0.01053 0.08173 0.0
H1039 H 0.63961 0.91895 0.12505 0.0
H1040 H 0.59748 0.01592 0.15426 0.0
H1041 H 0.59617 0.08305 0.10721 0.0
H1042 H 0.80098 0.94981 0.12227 0.0
H1043 H 0.7486 0.96849 0.17084 0.0
H1044 H 0.82511 0.16041 0.08385 0.0
H1045 H 0.74628 0.2002 0.10598 0.0
H1046 H 0.86098 0.22453 0.06648 0.0
H1047 H 0.78392 0.264 0.08837 0.0
H1048 H 0.86456 0.10537 0.13301 0.0
H1049 H 0.83044 0.06784 0.07776 0.0
H1050 H 0.91497 0.08258 0.13102 0.0
H1051 H 0.88158 0.04588 0.07667 0.0
H1052 H 0.9038 0.18169 0.1701 0.0
H1053 H 0.92947 0.27334 0.12953 0.0
H1054 H 0.67711 0.02278 0.04441 0.0
H1055 H 0.80372 0.08392 0.02882 0.0
C1056 C 0.96744 0.25664 0.17894 0.0
C1057 C 0.96279 0.25789 0.16005 0.0
H1058 H 0.00797 0.27245 0.20138 0.0
C1059 C 0.99772 0.28161 0.14958 0.0
H1060 H 0.94134 0.23953 0.18758 0.0
C1061 C 0.03624 0.30166 0.15764 0.0
C1062 C 0.04109 0.29832 0.1764 0.0
H1063 H 0.99564 0.28334 0.13501 0.0
H1064 H 0.06234 0.31902 0.14904 0.0
C1065 C 0.00591 0.27625 0.18696 0.0
C1066 C 0.78077 0.01865 0.50562 0.0
C1067 C 0.75948 0.03915 0.50936 0.0
H1068 H 0.77885 0.96553 0.49506 0.0
C1069 C 0.71788 0.0199 0.50516 0.0
H1070 H 0.81271 0.03236 0.50886 0.0
C1071 C 0.6983 0.98125 0.49709 0.0
C1072 C 0.71978 0.96082 0.49347 0.0
H1073 H 0.70072 0.035 0.50784 0.0
H1074 H 0.66632 0.96713 0.49391 0.0
C1075 C 0.76123 0.98011 0.49785 0.0
C1076 C 0.71101 0.7432 0.82362 0.0
C1077 C 0.70751 0.74443 0.84258 0.0
H1078 H 0.73404 0.7255 0.80112 0.0
C1079 C 0.72162 0.72351 0.85332 0.0
H1080 H 0.69986 0.75823 0.81483 0.0
C1081 C 0.74058 0.70384 0.84538 0.0
C1082 C 0.7462 0.70465 0.82647 0.0
H1083 H 0.71973 0.72382 0.86795 0.0
H1084 H 0.75176 0.68881 0.85415 0.0
C1085 C 0.73019 0.7238 0.81569 0.0
C1086 C 0.99661 0.72329 0.18601 0.0
C1087 C 0.9614 0.70447 0.17526 0.0
H1088 H 0.06142 0.75735 0.18682 0.0
C1089 C 0.96609 0.70382 0.15633 0.0
H1090 H 0.99454 0.72484 0.20058 0.0
C1091 C 0.00471 0.72335 0.14835 0.0
C1092 C 0.03982 0.74396 0.15907 0.0
H1093 H 0.93983 0.68905 0.14757 0.0
H1094 H 0.00683 0.7238 0.13372 0.0
C1095 C 0.03518 0.74256 0.17805 0.0
C1096 C 0.24041 0.0172 0.4957 0.0
C1097 C 0.28229 0.03798 0.49215 0.0
H1098 H 0.18927 0.96406 0.50628 0.0
C1099 C 0.30487 0.01917 0.49673 0.0
H1100 H 0.22199 0.03053 0.49219 0.0
C1101 C 0.28591 0.98067 0.50495 0.0
C1102 C 0.24391 0.95997 0.50837 0.0
H1103 H 0.3372 0.03448 0.49422 0.0
H1104 H 0.30393 0.96687 0.50839 0.0
C1105 C 0.22155 0.97885 0.50365 0.0
C1106 C 0.29287 0.25717 0.82291 0.0
C1107 C 0.29808 0.25785 0.84183 0.0
H1108 H 0.26871 0.27345 0.80039 0.0
C1109 C 0.28611 0.2809 0.85233 0.0
H1110 H 0.30242 0.24053 0.81426 0.0
C1111 C 0.26755 0.30085 0.84425 0.0
C1112 C 0.26011 0.2981 0.82544 0.0
H1113 H 0.28937 0.28216 0.86692 0.0
H1114 H 0.25813 0.31763 0.85287 0.0
C1115 C 0.27399 0.27673 0.81486 0.0
C1116 C 0.52307 0.50984 0.19044 0.0
C1117 C 0.54447 0.52201 0.20689 0.0
H1118 H 0.46491 0.48009 0.17742 0.0
C1119 C 0.52254 0.51389 0.22317 0.0
H1120 H 0.53916 0.51573 0.17769 0.0
C1121 C 0.48015 0.49405 0.223 0.0
C1122 C 0.45872 0.48146 0.20656 0.0
H1123 H 0.5382 0.52342 0.23604 0.0
H1124 H 0.46409 0.4878 0.23577 0.0
C1125 C 0.48063 0.48947 0.19029 0.0
C1126 C 0.01375 0.52123 0.55799 0.0
C1127 C 0.02476 0.5431 0.54164 0.0
H1128 H 0.98351 0.463 0.57077 0.0
C1129 C 0.01266 0.52155 0.52521 0.0
H1130 H 0.02204 0.53689 0.57088 0.0
C1131 C 0.99031 0.47914 0.52514 0.0
C1132 C 0.97911 0.45731 0.54151 0.0
H1133 H 0.02069 0.53751 0.51238 0.0
H1134 H 0.98154 0.46342 0.51227 0.0
C1135 C 0.99108 0.47889 0.55793 0.0
C1136 C 0.49239 0.01242 0.88684 0.0
C1137 C 0.48221 0.02413 0.87048 0.0
H1138 H 0.52041 0.98256 0.89976 0.0
C1139 C 0.49248 0.01259 0.85409 0.0
H1140 H 0.48437 0.01996 0.89976 0.0
C1141 C 0.51243 0.99005 0.85408 0.0
C1142 C 0.52266 0.97847 0.87048 0.0
H1143 H 0.48538 0.02119 0.84121 0.0
H1144 H 0.51958 0.98149 0.84121 0.0
C1145 C 0.51243 0.99012 0.88684 0.0
C1146 C 0.52302 0.52074 0.47465 0.0
C1147 C 0.52271 0.54327 0.45959 0.0
H1148 H 0.50459 0.46218 0.48579 0.0
C1149 C 0.50122 0.52214 0.44403 0.0
H1150 H 0.53884 0.53583 0.48696 0.0
C1151 C 0.48105 0.47979 0.44346 0.0
C1152 C 0.48198 0.45727 0.45839 0.0
H1153 H 0.50068 0.53829 0.43206 0.0
H1154 H 0.46448 0.46473 0.43129 0.0
C1155 C 0.50302 0.47836 0.47405 0.0
C1156 C 0.99231 0.51184 0.77863 0.0
C1157 C 0.97976 0.521 0.79501 0.0
H1158 H 0.0238 0.48509 0.76582 0.0
C1159 C 0.99027 0.50987 0.81142 0.0
H1160 H 0.9852 0.52056 0.76578 0.0
C1161 C 0.01246 0.48963 0.81144 0.0
C1162 C 0.02517 0.48066 0.79506 0.0
H1163 H 0.98104 0.51655 0.82424 0.0
H1164 H 0.01988 0.48116 0.82428 0.0
C1165 C 0.01494 0.4921 0.77866 0.0
C1166 C 0.48064 0.9898 0.14749 0.0
C1167 C 0.45884 0.97788 0.13109 0.0
H1168 H 0.53882 0.02128 0.16036 0.0
C1169 C 0.48075 0.98927 0.11473 0.0
H1170 H 0.46492 0.98144 0.16036 0.0
C1171 C 0.52309 0.01164 0.11473 0.0
C1172 C 0.54496 0.0237 0.13109 0.0
H1173 H 0.46521 0.98144 0.10181 0.0
H1174 H 0.53866 0.01897 0.10182 0.0
C1175 C 0.52313 0.01241 0.14749 0.0
C1176 C 0.23486 0.11632 0.14588 0.0
C1177 C 0.22785 0.082 0.15588 0.0
H1178 H 0.24036 0.17507 0.14652 0.0
C1179 C 0.21977 0.08055 0.17454 0.0
H1180 H 0.24177 0.11869 0.13155 0.0
C1181 C 0.21972 0.11308 0.18309 0.0
C1182 C 0.22711 0.14737 0.17311 0.0
H1183 H 0.21334 0.05422 0.18257 0.0
H1184 H 0.21373 0.1114 0.19752 0.0
C1185 C 0.2342 0.14863 0.15441 0.0
C1186 C 0.11459 0.26591 0.49882 0.0
C1187 C 0.08465 0.23061 0.50732 0.0
H1188 H 0.16958 0.29349 0.48346 0.0
C1189 C 0.087 0.19505 0.50647 0.0
H1190 H 0.11319 0.29359 0.49914 0.0
C1191 C 0.11914 0.19495 0.49747 0.0
C1192 C 0.1492 0.23033 0.48906 0.0
H1193 H 0.06435 0.16753 0.51302 0.0
H1194 H 0.12043 0.16721 0.49703 0.0
C1195 C 0.14655 0.26573 0.48971 0.0
C1196 C 0.91799 0.14859 0.84577 0.0
C1197 C 0.92423 0.14641 0.82717 0.0
H1198 H 0.8802 0.11962 0.86869 0.0
C1199 C 0.8977 0.11146 0.81745 0.0
H1200 H 0.93793 0.17552 0.85346 0.0
C1201 C 0.8651 0.07924 0.82616 0.0
C1202 C 0.8581 0.08162 0.84471 0.0
H1203 H 0.90229 0.10904 0.80312 0.0
H1204 H 0.84546 0.05243 0.81835 0.0
C1205 C 0.88505 0.11656 0.85445 0.0
C1206 C 0.78757 0.92391 0.17544 0.0
C1207 C 0.77767 0.92126 0.15695 0.0
H1208 H 0.79528 0.8943 0.19847 0.0
C1209 C 0.76916 0.88609 0.14727 0.0
H1210 H 0.79515 0.9509 0.18319 0.0
C1211 C 0.77007 0.85409 0.15598 0.0
C1212 C 0.77895 0.85652 0.17453 0.0
H1213 H 0.76085 0.88282 0.13309 0.0
H1214 H 0.76265 0.82696 0.14835 0.0
C1215 C 0.78791 0.8917 0.18418 0.0
C1216 C 0.8912 0.81023 0.49587 0.0
C1217 C 0.85659 0.77361 0.49105 0.0
H1218 H 0.94911 0.83864 0.50893 0.0
C1219 C 0.85425 0.73682 0.49578 0.0
H1220 H 0.89393 0.83904 0.49227 0.0
C1221 C 0.88593 0.73659 0.50507 0.0
C1222 C 0.92053 0.77316 0.50992 0.0
H1223 H 0.82771 0.70812 0.49247 0.0
H1224 H 0.88347 0.70772 0.50829 0.0
C1225 C 0.92291 0.81 0.50523 0.0
C1226 C 0.12009 0.8859 0.85467 0.0
C1227 C 0.1474 0.92055 0.84485 0.0
H1228 H 0.06696 0.82711 0.85375 0.0
C1229 C 0.14089 0.92254 0.82622 0.0
H1230 H 0.12456 0.88312 0.86897 0.0
C1231 C 0.10836 0.89024 0.81751 0.0
C1232 C 0.08143 0.85561 0.82732 0.0
H1233 H 0.16081 0.94913 0.81834 0.0
H1234 H 0.10412 0.89237 0.80312 0.0
C1235 C 0.08721 0.8538 0.84598 0.0
C1236 C 0.27396 0.23665 0.33394 0.0
C1237 C 0.28911 0.2635 0.34869 0.0
H1238 H 0.25003 0.22609 0.30699 0.0
C1239 C 0.29022 0.30089 0.34741 0.0
H1240 H 0.27301 0.20779 0.3344 0.0
C1241 C 0.27677 0.31129 0.33176 0.0
C1242 C 0.26179 0.28455 0.31698 0.0
H1243 H 0.30087 0.32197 0.35866 0.0
H1244 H 0.27775 0.34016 0.33133 0.0
C1245 C 0.26057 0.24708 0.31826 0.0
C1246 C 0.97385 0.23475 0.66541 0.0
C1247 C 0.98094 0.26315 0.65174 0.0
H1248 H 0.99024 0.22383 0.69162 0.0
C1249 C 0.01248 0.30328 0.65405 0.0
H1250 H 0.9496 0.20366 0.66403 0.0
C1251 C 0.03652 0.31476 0.66967 0.0
C1252 C 0.02933 0.28647 0.68348 0.0
H1253 H 0.01911 0.32568 0.64359 0.0
H1254 H 0.061 0.34576 0.6708 0.0
C1255 C 0.9975 0.24632 0.68114 0.0
C1256 C 0.68927 0.01386 0.00851 0.0
C1257 C 0.72711 0.02624 0.01666 0.0
H1258 H 0.64731 0.97987 0.9876 0.0
C1259 C 0.75271 0.01385 0.00863 0.0
H1260 H 0.66877 0.02309 0.01398 0.0
C1261 C 0.7409 0.99007 0.99291 0.0
C1262 C 0.70283 0.97732 0.9849 0.0
H1263 H 0.78176 0.02196 0.01459 0.0
H1264 H 0.76204 0.98222 0.98695 0.0
C1265 C 0.67712 0.98937 0.99306 0.0
C1266 C 0.71913 0.68871 0.33135 0.0
C1267 C 0.74083 0.71681 0.31757 0.0
H1268 H 0.68978 0.67811 0.35716 0.0
C1269 C 0.74904 0.75698 0.31965 0.0
H1270 H 0.71263 0.65768 0.33042 0.0
C1271 C 0.73637 0.76878 0.33514 0.0
C1272 C 0.71454 0.74058 0.34881 0.0
H1273 H 0.7647 0.77933 0.30917 0.0
H1274 H 0.74322 0.79989 0.33634 0.0
C1275 C 0.70596 0.70039 0.34671 0.0
C1276 C 0.03443 0.76748 0.6665 0.0
C1277 C 0.02737 0.73921 0.65277 0.0
H1278 H 0.01751 0.77828 0.69262 0.0
C1279 C 0.99541 0.69921 0.6549 0.0
H1280 H 0.05899 0.79846 0.66528 0.0
C1281 C 0.9709 0.68776 0.67036 0.0
C1282 C 0.978 0.71592 0.68422 0.0
H1283 H 0.98879 0.6769 0.6444 0.0
H1284 H 0.94609 0.65687 0.67133 0.0
C1285 C 0.01029 0.75592 0.68209 0.0
C1286 C 0.31546 0.98834 0.00844 0.0
C1287 C 0.27769 0.97627 0.01661 0.0
H1288 H 0.35761 0.02227 0.98757 0.0
C1289 C 0.25246 0.98921 0.00867 0.0
H1290 H 0.33569 0.97869 0.01384 0.0
C1291 C 0.26452 0.0132 0.99301 0.0
C1292 C 0.30251 0.02561 0.98497 0.0
H1293 H 0.22349 0.98136 0.01465 0.0
H1294 H 0.24365 0.02146 0.98711 0.0
C1295 C 0.32788 0.01303 0.99306 0.0
loop_
_geom_bond_atom_site_label_1
_geom_bond_atom_site_label_2
_geom_bond_distance
_geom_bond_site_symmetry_2
_ccdc_geom_bond_type
Li0 N17 1.990 . S
Li0 O60 1.956 . S
Li0 O61 1.970 . S
Li0 O62 1.961 . S
Li1 N25 1.990 . S
Li1 O60 1.970 . S
Li1 O61 1.956 . S
Li1 O63 1.961 . S
Li2 N47 1.990 . S
Li2 O60 1.961 . S
Li2 O62 1.956 . S
Li2 O63 1.970 . S
Li3 N53 1.990 . S
Li3 O61 1.961 . S
Li3 O62 1.970 . S
Li3 O63 1.956 . S
C4 C6 1.348 . S
C4 C7 1.356 . S
C4 O60 1.325 . S
N5 C8 1.314 . S
N5 C9 1.279 . S
C6 C4 1.348 . S
C6 C8 1.353 . S
C6 H64 0.929 . S
C7 C4 1.356 . S
C7 C9 1.358 . S
C7 H65 0.930 . S
C8 N5 1.314 . S
C8 C6 1.353 . S
C8 H66 0.930 . S
C9 N5 1.279 . S
C9 C7 1.358 . S
C9 H67 0.930 . S
C10 C13 1.348 . S
C10 C14 1.356 . S
C10 O61 1.325 . S
C11 N12 1.279 . S
C11 C14 1.358 . S
C11 H68 0.930 . S
N12 C11 1.279 . S
N12 C15 1.314 . S
C13 C10 1.348 . S
C13 C15 1.353 . S
C13 H69 0.929 . S
C14 C10 1.356 . S
C14 C11 1.358 . S
C14 H70 0.930 . S
C15 N12 1.314 . S
C15 C13 1.353 . S
C15 H71 0.930 . S
C16 N17 1.314 . S
C16 C21 1.353 . S
C16 H22 0.930 . S
N17 Li0 1.990 . S
N17 C16 1.314 . S
N17 C19 1.279 . S
C18 C19 1.358 . S
C18 C20 1.356 . S
C18 H72 0.930 . S
C19 N17 1.279 . S
C19 C18 1.358 . S
C19 H23 0.930 . S
C20 C18 1.356 . S
C20 C21 1.348 . S
C21 C16 1.353 . S
C21 C20 1.348 . S
C21 H73 0.929 . S
H22 C16 0.930 . S
H23 C19 0.930 . S
C24 N25 1.314 . S
C24 C26 1.353 . S
C24 H30 0.930 . S
N25 Li1 1.990 . S
N25 C24 1.314 . S
N25 C28 1.279 . S
C26 C24 1.353 . S
C26 C29 1.348 . S
C26 H74 0.929 . S
C27 C28 1.358 . S
C27 C29 1.356 . S
C27 H75 0.930 . S
C28 N25 1.279 . S
C28 C27 1.358 . S
C28 H31 0.930 . S
C29 C26 1.348 . S
C29 C27 1.356 . S
H30 C24 0.930 . S
H31 C28 0.930 . S
C32 C34 1.348 . S
C32 C35 1.356 . S
C32 O62 1.325 . S
N33 C36 1.314 . S
N33 C37 1.279 . S
C34 C32 1.348 . S
C34 C36 1.353 . S
C34 H76 0.929 . S
C35 C32 1.356 . S
C35 C37 1.358 . S
C35 H77 0.930 . S
C36 N33 1.314 . S
C36 C34 1.353 . S
C36 H78 0.930 . S
C37 N33 1.279 . S
C37 C35 1.358 . S
C37 H79 0.930 . S
C38 C39 1.348 . S
C38 C40 1.356 . S
C38 O63 1.325 . S
C39 C38 1.348 . S
C39 C41 1.353 . S
C39 H80 0.929 . S
C40 C38 1.356 . S
C40 C42 1.358 . S
C40 H81 0.930 . S
C41 C39 1.353 . S
C41 N43 1.314 . S
C41 H82 0.930 . S
C42 C40 1.358 . S
C42 N43 1.279 . S
C42 H83 0.930 . S
N43 C41 1.314 . S
N43 C42 1.279 . S
C44 C46 1.353 . S
C44 N47 1.314 . S
C44 H50 0.930 . S
C45 N47 1.279 . S
C45 C48 1.358 . S
C45 H51 0.930 . S
C46 C44 1.353 . S
C46 C49 1.348 . S
C46 H84 0.929 . S
N47 Li2 1.990 . S
N47 C44 1.314 . S
N47 C45 1.279 . S
C48 C45 1.358 . S
C48 C49 1.356 . S
C48 H85 0.930 . S
C49 C46 1.348 . S
C49 C48 1.356 . S
H50 C44 0.930 . S
H51 C45 0.930 . S
C52 N53 1.314 . S
C52 C54 1.353 . S
C52 H58 0.930 . S
N53 Li3 1.990 . S
N53 C52 1.314 . S
N53 C56 1.279 . S
C54 C52 1.353 . S
C54 C57 1.348 . S
C54 H86 0.929 . S
C55 C56 1.358 . S
C55 C57 1.356 . S
C55 H87 0.930 . S
C56 N53 1.279 . S
C56 C55 1.358 . S
C56 H59 0.930 . S
C57 C54 1.348 . S
C57 C55 1.356 . S
H58 C52 0.930 . S
H59 C56 0.930 . S
O60 Li0 1.956 . S
O60 Li1 1.970 . S
O60 Li2 1.961 . S
O60 C4 1.325 . S
O61 Li0 1.970 . S
O61 Li1 1.956 . S
O61 Li3 1.961 . S
O61 C10 1.325 . S
O62 Li0 1.961 . S
O62 Li2 1.956 . S
O62 Li3 1.970 . S
O62 C32 1.325 . S
O63 Li1 1.961 . S
O63 Li2 1.970 . S
O63 Li3 1.956 . S
O63 C38 1.325 . S
H64 C6 0.929 . S
H65 C7 0.930 . S
H66 C8 0.930 . S
H67 C9 0.930 . S
H68 C11 0.930 . S
H69 C13 0.929 . S
H70 C14 0.930 . S
H71 C15 0.930 . S
H72 C18 0.930 . S
H73 C21 0.929 . S
H74 C26 0.929 . S
H75 C27 0.930 . S
H76 C34 0.929 . S
H77 C35 0.930 . S
H78 C36 0.930 . S
H79 C37 0.930 . S
H80 C39 0.929 . S
H81 C40 0.930 . S
H82 C41 0.930 . S
H83 C42 0.930 . S
H84 C46 0.929 . S
H85 C48 0.930 . S
H86 C54 0.929 . S
H87 C55 0.930 . S
Li88 N105 1.990 . S
Li88 O148 1.956 . S
Li88 O149 1.970 . S
Li88 O150 1.961 . S
Li89 N113 1.990 . S
Li89 O148 1.970 . S
Li89 O149 1.956 . S
Li89 O151 1.961 . S
Li90 N135 1.990 . S
Li90 O148 1.961 . S
Li90 O150 1.956 . S
Li90 O151 1.970 . S
Li91 N141 1.990 1_655 S
Li91 O149 1.961 . S
Li91 O150 1.970 . S
Li91 O151 1.956 . S
C92 C94 1.348 . S
C92 C95 1.356 . S
C92 O148 1.325 . S
N93 C96 1.314 . S
N93 C97 1.279 . S
C94 C92 1.348 . S
C94 C96 1.353 . S
C94 H152 0.929 . S
C95 C92 1.356 . S
C95 C97 1.358 . S
C95 H153 0.930 . S
C96 N93 1.314 . S
C96 C94 1.353 . S
C96 H154 0.930 . S
C97 N93 1.279 . S
C97 C95 1.358 . S
C97 H155 0.930 . S
C98 C101 1.348 . S
C98 C102 1.356 . S
C98 O149 1.325 . S
C99 N100 1.279 . S
C99 C102 1.358 . S
C99 H156 0.930 1_655 S
N100 C99 1.279 . S
N100 C103 1.314 . S
C101 C98 1.348 . S
C101 C103 1.353 . S
C101 H157 0.929 . S
C102 C98 1.356 . S
C102 C99 1.358 . S
C102 H158 0.930 1_655 S
C103 N100 1.314 . S
C103 C101 1.353 . S
C103 H159 0.930 . S
C104 N105 1.314 . S
C104 C109 1.353 . S
C104 H110 0.930 . S
N105 Li88 1.990 . S
N105 C104 1.314 . S
N105 C107 1.279 . S
C106 C107 1.358 . S
C106 C108 1.356 . S
C106 H160 0.930 . S
C107 N105 1.279 . S
C107 C106 1.358 . S
C107 H111 0.930 . S
C108 C106 1.356 . S
C108 C109 1.348 . S
C109 C104 1.353 . S
C109 C108 1.348 . S
C109 H161 0.929 . S
H110 C104 0.930 . S
H111 C107 0.930 . S
C112 N113 1.314 . S
C112 C114 1.353 . S
C112 H118 0.930 . S
N113 Li89 1.990 . S
N113 C112 1.314 . S
N113 C116 1.279 . S
C114 C112 1.353 . S
C114 C117 1.348 . S
C114 H162 0.929 . S
C115 C116 1.358 . S
C115 C117 1.356 . S
C115 H163 0.930 . S
C116 N113 1.279 . S
C116 C115 1.358 . S
C116 H119 0.930 . S
C117 C114 1.348 . S
C117 C115 1.356 . S
H118 C112 0.930 . S
H119 C116 0.930 . S
C120 C122 1.348 . S
C120 C123 1.356 . S
C120 O150 1.325 . S
N121 C124 1.314 . S
N121 C125 1.279 . S
C122 C120 1.348 . S
C122 C124 1.353 . S
C122 H164 0.929 . S
C123 C120 1.356 . S
C123 C125 1.358 . S
C123 H165 0.930 . S
C124 N121 1.314 . S
C124 C122 1.353 . S
C124 H166 0.930 . S
C125 N121 1.279 . S
C125 C123 1.358 . S
C125 H167 0.930 . S
C126 C127 1.348 . S
C126 C128 1.356 . S
C126 O151 1.325 1_455 S
C127 C126 1.348 . S
C127 C129 1.353 . S
C127 H168 0.929 . S
C128 C126 1.356 . S
C128 C130 1.358 . S
C128 H169 0.930 . S
C129 C127 1.353 . S
C129 N131 1.314 . S
C129 H170 0.930 . S
C130 C128 1.358 . S
C130 N131 1.279 . S
C130 H171 0.930 . S
N131 C129 1.314 . S
N131 C130 1.279 . S
C132 C134 1.353 . S
C132 N135 1.314 . S
C132 H138 0.930 . S
C133 N135 1.279 . S
C133 C136 1.358 . S
C133 H139 0.930 . S
C134 C132 1.353 . S
C134 C137 1.348 . S
C134 H172 0.929 . S
N135 Li90 1.990 . S
N135 C132 1.314 . S
N135 C133 1.279 . S
C136 C133 1.358 . S
C136 C137 1.356 . S
C136 H173 0.930 . S
C137 C134 1.348 . S
C137 C136 1.356 . S
H138 C132 0.930 . S
H139 C133 0.930 . S
C140 N141 1.314 . S
C140 C142 1.353 . S
C140 H146 0.930 . S
N141 Li91 1.990 1_455 S
N141 C140 1.314 . S
N141 C144 1.279 . S
C142 C140 1.353 . S
C142 C145 1.348 . S
C142 H174 0.929 . S
C143 C144 1.358 . S
C143 C145 1.356 . S
C143 H175 0.930 . S
C144 N141 1.279 . S
C144 C143 1.358 . S
C144 H147 0.930 . S
C145 C142 1.348 . S
C145 C143 1.356 . S
H146 C140 0.930 . S
H147 C144 0.930 . S
O148 Li88 1.956 . S
O148 Li89 1.970 . S
O148 Li90 1.961 . S
O148 C92 1.325 . S
O149 Li88 1.970 . S
O149 Li89 1.956 . S
O149 Li91 1.961 . S
O149 C98 1.325 . S
O150 Li88 1.961 . S
O150 Li90 1.956 . S
O150 Li91 1.970 . S
O150 C120 1.325 . S
O151 Li89 1.961 . S
O151 Li90 1.970 . S
O151 Li91 1.956 . S
O151 C126 1.325 1_655 S
H152 C94 0.929 . S
H153 C95 0.930 . S
H154 C96 0.930 . S
H155 C97 0.930 . S
H156 C99 0.930 1_455 S
H157 C101 0.929 . S
H158 C102 0.930 1_455 S
H159 C103 0.930 . S
H160 C106 0.930 . S
H161 C109 0.929 . S
H162 C114 0.929 . S
H163 C115 0.930 . S
H164 C122 0.929 . S
H165 C123 0.930 . S
H166 C124 0.930 . S
H167 C125 0.930 . S
H168 C127 0.929 . S
H169 C128 0.930 . S
H170 C129 0.930 . S
H171 C130 0.930 . S
H172 C134 0.929 . S
H173 C136 0.930 . S
H174 C142 0.929 . S
H175 C143 0.930 . S
Li176 N193 1.990 . S
Li176 O236 1.956 . S
Li176 O237 1.970 . S
Li176 O238 1.961 . S
Li177 N201 1.990 . S
Li177 O236 1.970 . S
Li177 O237 1.956 . S
Li177 O239 1.961 . S
Li178 N223 1.990 1_565 S
Li178 O236 1.961 . S
Li178 O238 1.956 . S
Li178 O239 1.970 . S
Li179 N229 1.990 . S
Li179 O237 1.961 . S
Li179 O238 1.970 . S
Li179 O239 1.956 . S
C180 C182 1.348 . S
C180 C183 1.356 . S
C180 O236 1.325 . S
N181 C184 1.314 . S
N181 C185 1.279 . S
C182 C180 1.348 . S
C182 C184 1.353 . S
C182 H240 0.929 . S
C183 C180 1.356 . S
C183 C185 1.358 . S
C183 H241 0.930 1_565 S
C184 N181 1.314 . S
C184 C182 1.353 . S
C184 H242 0.930 . S
C185 N181 1.279 . S
C185 C183 1.358 . S
C185 H243 0.930 1_565 S
C186 C189 1.348 . S
C186 C190 1.356 . S
C186 O237 1.325 . S
C187 N188 1.279 . S
C187 C190 1.358 . S
C187 H244 0.930 . S
N188 C187 1.279 . S
N188 C191 1.314 . S
C189 C186 1.348 . S
C189 C191 1.353 . S
C189 H245 0.929 . S
C190 C186 1.356 . S
C190 C187 1.358 . S
C190 H246 0.930 . S
C191 N188 1.314 . S
C191 C189 1.353 . S
C191 H247 0.930 . S
C192 N193 1.314 . S
C192 C197 1.353 . S
C192 H198 0.930 . S
N193 Li176 1.990 . S
N193 C192 1.314 . S
N193 C195 1.279 . S
C194 C195 1.358 . S
C194 C196 1.356 . S
C194 H248 0.930 . S
C195 N193 1.279 . S
C195 C194 1.358 . S
C195 H199 0.930 . S
C196 C194 1.356 . S
C196 C197 1.348 . S
C197 C192 1.353 . S
C197 C196 1.348 . S
C197 H249 0.929 . S
H198 C192 0.930 . S
H199 C195 0.930 . S
C200 N201 1.314 . S
C200 C202 1.353 . S
C200 H206 0.930 . S
N201 Li177 1.990 . S
N201 C200 1.314 . S
N201 C204 1.279 . S
C202 C200 1.353 . S
C202 C205 1.348 . S
C202 H250 0.929 . S
C203 C204 1.358 . S
C203 C205 1.356 . S
C203 H251 0.930 . S
C204 N201 1.279 . S
C204 C203 1.358 . S
C204 H207 0.930 . S
C205 C202 1.348 . S
C205 C203 1.356 . S
H206 C200 0.930 . S
H207 C204 0.930 . S
C208 C210 1.348 . S
C208 C211 1.356 . S
C208 O238 1.325 1_545 S
N209 C212 1.314 . S
N209 C213 1.279 . S
C210 C208 1.348 . S
C210 C212 1.353 . S
C210 H252 0.929 . S
C211 C208 1.356 . S
C211 C213 1.358 . S
C211 H253 0.930 . S
C212 N209 1.314 . S
C212 C210 1.353 . S
C212 H254 0.930 . S
C213 N209 1.279 . S
C213 C211 1.358 . S
C213 H255 0.930 . S
C214 C215 1.348 . S
C214 C216 1.356 . S
C214 O239 1.325 . S
C215 C214 1.348 . S
C215 C217 1.353 . S
C215 H256 0.929 . S
C216 C214 1.356 . S
C216 C218 1.358 . S
C216 H257 0.930 . S
C217 C215 1.353 . S
C217 N219 1.314 . S
C217 H258 0.930 . S
C218 C216 1.358 . S
C218 N219 1.279 . S
C218 H259 0.930 . S
N219 C217 1.314 . S
N219 C218 1.279 . S
C220 C222 1.353 . S
C220 N223 1.314 . S
C220 H226 0.930 . S
C221 N223 1.279 . S
C221 C224 1.358 . S
C221 H227 0.930 . S
C222 C220 1.353 . S
C222 C225 1.348 . S
C222 H260 0.929 . S
N223 Li178 1.990 1_545 S
N223 C220 1.314 . S
N223 C221 1.279 . S
C224 C221 1.358 . S
C224 C225 1.356 . S
C224 H261 0.930 . S
C225 C222 1.348 . S
C225 C224 1.356 . S
H226 C220 0.930 . S
H227 C221 0.930 . S
C228 N229 1.314 . S
C228 C230 1.353 . S
C228 H234 0.930 . S
N229 Li179 1.990 . S
N229 C228 1.314 . S
N229 C232 1.279 . S
C230 C228 1.353 . S
C230 C233 1.348 . S
C230 H262 0.929 . S
C231 C232 1.358 . S
C231 C233 1.356 . S
C231 H263 0.930 . S
C232 N229 1.279 . S
C232 C231 1.358 . S
C232 H235 0.930 . S
C233 C230 1.348 . S
C233 C231 1.356 . S
H234 C228 0.930 . S
H235 C232 0.930 . S
O236 Li176 1.956 . S
O236 Li177 1.970 . S
O236 Li178 1.961 . S
O236 C180 1.325 . S
O237 Li176 1.970 . S
O237 Li177 1.956 . S
O237 Li179 1.961 . S
O237 C186 1.325 . S
O238 Li176 1.961 . S
O238 Li178 1.956 . S
O238 Li179 1.970 . S
O238 C208 1.325 1_565 S
O239 Li177 1.961 . S
O239 Li178 1.970 . S
O239 Li179 1.956 . S
O239 C214 1.325 . S
H240 C182 0.929 . S
H241 C183 0.930 1_545 S
H242 C184 0.930 . S
H243 C185 0.930 1_545 S
H244 C187 0.930 . S
H245 C189 0.929 . S
H246 C190 0.930 . S
H247 C191 0.930 . S
H248 C194 0.930 . S
H249 C197 0.929 . S
H250 C202 0.929 . S
H251 C203 0.930 . S
H252 C210 0.929 . S
H253 C211 0.930 . S
H254 C212 0.930 . S
H255 C213 0.930 . S
H256 C215 0.929 . S
H257 C216 0.930 . S
H258 C217 0.930 . S
H259 C218 0.930 . S
H260 C222 0.929 . S
H261 C224 0.930 . S
H262 C230 0.929 . S
H263 C231 0.930 . S
Li264 N281 1.990 . S
Li264 O324 1.956 . S
Li264 O325 1.970 . S
Li264 O326 1.961 . S
Li265 N289 1.990 . S
Li265 O324 1.970 . S
Li265 O325 1.956 . S
Li265 O327 1.961 . S
Li266 N311 1.990 . S
Li266 O324 1.961 . S
Li266 O326 1.956 . S
Li266 O327 1.970 . S
Li267 N317 1.990 . S
Li267 O325 1.961 . S
Li267 O326 1.970 . S
Li267 O327 1.956 . S
C268 C270 1.348 . S
C268 C271 1.356 . S
C268 O324 1.325 . S
N269 C272 1.314 . S
N269 C273 1.279 . S
C270 C268 1.348 . S
C270 C272 1.353 . S
C270 H328 0.929 . S
C271 C268 1.356 . S
C271 C273 1.358 . S
C271 H329 0.930 . S
C272 N269 1.314 . S
C272 C270 1.353 . S
C272 H330 0.930 . S
C273 N269 1.279 . S
C273 C271 1.358 . S
C273 H331 0.930 . S
C274 C277 1.348 . S
C274 C278 1.356 . S
C274 O325 1.325 . S
C275 N276 1.279 . S
C275 C278 1.358 . S
C275 H332 0.930 . S
N276 C275 1.279 . S
N276 C279 1.314 . S
C277 C274 1.348 . S
C277 C279 1.353 . S
C277 H333 0.929 . S
C278 C274 1.356 . S
C278 C275 1.358 . S
C278 H334 0.930 . S
C279 N276 1.314 . S
C279 C277 1.353 . S
C279 H335 0.930 . S
C280 N281 1.314 . S
C280 C285 1.353 . S
C280 H286 0.930 . S
N281 Li264 1.990 . S
N281 C280 1.314 . S
N281 C283 1.279 . S
C282 C283 1.358 . S
C282 C284 1.356 . S
C282 H336 0.930 . S
C283 N281 1.279 . S
C283 C282 1.358 . S
C283 H287 0.930 . S
C284 C282 1.356 . S
C284 C285 1.348 . S
C285 C280 1.353 . S
C285 C284 1.348 . S
C285 H337 0.929 . S
H286 C280 0.930 . S
H287 C283 0.930 . S
C288 N289 1.314 . S
C288 C290 1.353 . S
C288 H294 0.930 . S
N289 Li265 1.990 . S
N289 C288 1.314 . S
N289 C292 1.279 . S
C290 C288 1.353 . S
C290 C293 1.348 . S
C290 H338 0.929 . S
C291 C292 1.358 . S
C291 C293 1.356 . S
C291 H339 0.930 . S
C292 N289 1.279 . S
C292 C291 1.358 . S
C292 H295 0.930 . S
C293 C290 1.348 . S
C293 C291 1.356 . S
H294 C288 0.930 . S
H295 C292 0.930 . S
C296 C298 1.348 . S
C296 C299 1.356 . S
C296 O326 1.325 . S
N297 C300 1.314 . S
N297 C301 1.279 . S
C298 C296 1.348 . S
C298 C300 1.353 . S
C298 H340 0.929 . S
C299 C296 1.356 . S
C299 C301 1.358 . S
C299 H341 0.930 . S
C300 N297 1.314 . S
C300 C298 1.353 . S
C300 H342 0.930 . S
C301 N297 1.279 . S
C301 C299 1.358 . S
C301 H343 0.930 . S
C302 C303 1.348 . S
C302 C304 1.356 . S
C302 O327 1.325 . S
C303 C302 1.348 . S
C303 C305 1.353 . S
C303 H344 0.929 . S
C304 C302 1.356 . S
C304 C306 1.358 . S
C304 H345 0.930 . S
C305 C303 1.353 . S
C305 N307 1.314 . S
C305 H346 0.930 . S
C306 C304 1.358 . S
C306 N307 1.279 . S
C306 H347 0.930 . S
N307 C305 1.314 . S
N307 C306 1.279 . S
C308 C310 1.353 . S
C308 N311 1.314 . S
C308 H314 0.930 . S
C309 N311 1.279 . S
C309 C312 1.358 . S
C309 H315 0.930 . S
C310 C308 1.353 . S
C310 C313 1.348 . S
C310 H348 0.929 . S
N311 Li266 1.990 . S
N311 C308 1.314 . S
N311 C309 1.279 . S
C312 C309 1.358 . S
C312 C313 1.356 . S
C312 H349 0.930 . S
C313 C310 1.348 . S
C313 C312 1.356 . S
H314 C308 0.930 . S
H315 C309 0.930 . S
C316 N317 1.314 . S
C316 C318 1.353 . S
C316 H322 0.930 . S
N317 Li267 1.990 . S
N317 C316 1.314 . S
N317 C320 1.279 . S
C318 C316 1.353 . S
C318 C321 1.348 . S
C318 H350 0.929 . S
C319 C320 1.358 . S
C319 C321 1.356 . S
C319 H351 0.930 . S
C320 N317 1.279 . S
C320 C319 1.358 . S
C320 H323 0.930 . S
C321 C318 1.348 . S
C321 C319 1.356 . S
H322 C316 0.930 . S
H323 C320 0.930 . S
O324 Li264 1.956 . S
O324 Li265 1.970 . S
O324 Li266 1.961 . S
O324 C268 1.325 . S
O325 Li264 1.970 . S
O325 Li265 1.956 . S
O325 Li267 1.961 . S
O325 C274 1.325 . S
O326 Li264 1.961 . S
O326 Li266 1.956 . S
O326 Li267 1.970 . S
O326 C296 1.325 . S
O327 Li265 1.961 . S
O327 Li266 1.970 . S
O327 Li267 1.956 . S
O327 C302 1.325 . S
H328 C270 0.929 . S
H329 C271 0.930 . S
H330 C272 0.930 . S
H331 C273 0.930 . S
H332 C275 0.930 . S
H333 C277 0.929 . S
H334 C278 0.930 . S
H335 C279 0.930 . S
H336 C282 0.930 . S
H337 C285 0.929 . S
H338 C290 0.929 . S
H339 C291 0.930 . S
H340 C298 0.929 . S
H341 C299 0.930 . S
H342 C300 0.930 . S
H343 C301 0.930 . S
H344 C303 0.929 . S
H345 C304 0.930 . S
H346 C305 0.930 . S
H347 C306 0.930 . S
H348 C310 0.929 . S
H349 C312 0.930 . S
H350 C318 0.929 . S
H351 C319 0.930 . S
Li352 N369 1.990 . S
Li352 O412 1.956 . S
Li352 O413 1.970 . S
Li352 O414 1.961 . S
Li353 N377 1.990 . S
Li353 O412 1.970 . S
Li353 O413 1.956 . S
Li353 O415 1.961 . S
Li354 N399 1.990 . S
Li354 O412 1.961 . S
Li354 O414 1.956 . S
Li354 O415 1.970 . S
Li355 N405 1.990 1_455 S
Li355 O413 1.961 . S
Li355 O414 1.970 . S
Li355 O415 1.956 . S
C356 C358 1.348 . S
C356 C359 1.356 . S
C356 O412 1.325 . S
N357 C360 1.314 . S
N357 C361 1.279 . S
C358 C356 1.348 . S
C358 C360 1.353 . S
C358 H416 0.929 . S
C359 C356 1.356 . S
C359 C361 1.358 . S
C359 H417 0.930 . S
C360 N357 1.314 . S
C360 C358 1.353 . S
C360 H418 0.930 . S
C361 N357 1.279 . S
C361 C359 1.358 . S
C361 H419 0.930 . S
C362 C365 1.348 . S
C362 C366 1.356 . S
C362 O413 1.325 . S
C363 N364 1.279 . S
C363 C366 1.358 . S
C363 H420 0.930 1_455 S
N364 C363 1.279 . S
N364 C367 1.314 . S
C365 C362 1.348 . S
C365 C367 1.353 . S
C365 H421 0.929 . S
C366 C362 1.356 . S
C366 C363 1.358 . S
C366 H422 0.930 1_455 S
C367 N364 1.314 . S
C367 C365 1.353 . S
C367 H423 0.930 . S
C368 N369 1.314 . S
C368 C373 1.353 . S
C368 H374 0.930 . S
N369 Li352 1.990 . S
N369 C368 1.314 . S
N369 C371 1.279 . S
C370 C371 1.358 . S
C370 C372 1.356 . S
C370 H424 0.930 . S
C371 N369 1.279 . S
C371 C370 1.358 . S
C371 H375 0.930 . S
C372 C370 1.356 . S
C372 C373 1.348 . S
C373 C368 1.353 . S
C373 C372 1.348 . S
C373 H425 0.929 . S
H374 C368 0.930 . S
H375 C371 0.930 . S
C376 N377 1.314 . S
C376 C378 1.353 . S
C376 H382 0.930 . S
N377 Li353 1.990 . S
N377 C376 1.314 . S
N377 C380 1.279 . S
C378 C376 1.353 . S
C378 C381 1.348 . S
C378 H426 0.929 . S
C379 C380 1.358 . S
C379 C381 1.356 . S
C379 H427 0.930 . S
C380 N377 1.279 . S
C380 C379 1.358 . S
C380 H383 0.930 . S
C381 C378 1.348 . S
C381 C379 1.356 . S
H382 C376 0.930 . S
H383 C380 0.930 . S
C384 C386 1.348 . S
C384 C387 1.356 . S
C384 O414 1.325 . S
N385 C388 1.314 . S
N385 C389 1.279 . S
C386 C384 1.348 . S
C386 C388 1.353 . S
C386 H428 0.929 . S
C387 C384 1.356 . S
C387 C389 1.358 . S
C387 H429 0.930 . S
C388 N385 1.314 . S
C388 C386 1.353 . S
C388 H430 0.930 . S
C389 N385 1.279 . S
C389 C387 1.358 . S
C389 H431 0.930 . S
C390 C391 1.348 . S
C390 C392 1.356 . S
C390 O415 1.325 1_655 S
C391 C390 1.348 . S
C391 C393 1.353 . S
C391 H432 0.929 . S
C392 C390 1.356 . S
C392 C394 1.358 . S
C392 H433 0.930 . S
C393 C391 1.353 . S
C393 N395 1.314 . S
C393 H434 0.930 . S
C394 C392 1.358 . S
C394 N395 1.279 . S
C394 H435 0.930 . S
N395 C393 1.314 . S
N395 C394 1.279 . S
C396 C398 1.353 . S
C396 N399 1.314 . S
C396 H402 0.930 . S
C397 N399 1.279 . S
C397 C400 1.358 . S
C397 H403 0.930 . S
C398 C396 1.353 . S
C398 C401 1.348 . S
C398 H436 0.929 . S
N399 Li354 1.990 . S
N399 C396 1.314 . S
N399 C397 1.279 . S
C400 C397 1.358 . S
C400 C401 1.356 . S
C400 H437 0.930 . S
C401 C398 1.348 . S
C401 C400 1.356 . S
H402 C396 0.930 . S
H403 C397 0.930 . S
C404 N405 1.314 . S
C404 C406 1.353 . S
C404 H410 0.930 . S
N405 Li355 1.990 1_655 S
N405 C404 1.314 . S
N405 C408 1.279 . S
C406 C404 1.353 . S
C406 C409 1.348 . S
C406 H438 0.929 . S
C407 C408 1.358 . S
C407 C409 1.356 . S
C407 H439 0.930 . S
C408 N405 1.279 . S
C408 C407 1.358 . S
C408 H411 0.930 . S
C409 C406 1.348 . S
C409 C407 1.356 . S
H410 C404 0.930 . S
H411 C408 0.930 . S
O412 Li352 1.956 . S
O412 Li353 1.970 . S
O412 Li354 1.961 . S
O412 C356 1.325 . S
O413 Li352 1.970 . S
O413 Li353 1.956 . S
O413 Li355 1.961 . S
O413 C362 1.325 . S
O414 Li352 1.961 . S
O414 Li354 1.956 . S
O414 Li355 1.970 . S
O414 C384 1.325 . S
O415 Li353 1.961 . S
O415 Li354 1.970 . S
O415 Li355 1.956 . S
O415 C390 1.325 1_455 S
H416 C358 0.929 . S
H417 C359 0.930 . S
H418 C360 0.930 . S
H419 C361 0.930 . S
H420 C363 0.930 1_655 S
H421 C365 0.929 . S
H422 C366 0.930 1_655 S
H423 C367 0.930 . S
H424 C370 0.930 . S
H425 C373 0.929 . S
H426 C378 0.929 . S
H427 C379 0.930 . S
H428 C386 0.929 . S
H429 C387 0.930 . S
H430 C388 0.930 . S
H431 C389 0.930 . S
H432 C391 0.929 . S
H433 C392 0.930 . S
H434 C393 0.930 . S
H435 C394 0.930 . S
H436 C398 0.929 . S
H437 C400 0.930 . S
H438 C406 0.929 . S
H439 C407 0.930 . S
Li440 N457 1.990 . S
Li440 O500 1.956 . S
Li440 O501 1.970 . S
Li440 O502 1.961 . S
Li441 N465 1.990 . S
Li441 O500 1.970 . S
Li441 O501 1.956 . S
Li441 O503 1.961 . S
Li442 N487 1.990 1_545 S
Li442 O500 1.961 . S
Li442 O502 1.956 . S
Li442 O503 1.970 . S
Li443 N493 1.990 . S
Li443 O501 1.961 . S
Li443 O502 1.970 . S
Li443 O503 1.956 . S
C444 C446 1.348 . S
C444 C447 1.356 . S
C444 O500 1.325 . S
N445 C448 1.314 . S
N445 C449 1.279 . S
C446 C444 1.348 . S
C446 C448 1.353 . S
C446 H504 0.929 . S
C447 C444 1.356 . S
C447 C449 1.358 . S
C447 H505 0.930 1_545 S
C448 N445 1.314 . S
C448 C446 1.353 . S
C448 H506 0.930 . S
C449 N445 1.279 . S
C449 C447 1.358 . S
C449 H507 0.930 1_545 S
C450 C453 1.348 . S
C450 C454 1.356 . S
C450 O501 1.325 . S
C451 N452 1.279 . S
C451 C454 1.358 . S
C451 H508 0.930 . S
N452 C451 1.279 . S
N452 C455 1.314 . S
C453 C450 1.348 . S
C453 C455 1.353 . S
C453 H509 0.929 . S
C454 C450 1.356 . S
C454 C451 1.358 . S
C454 H510 0.930 . S
C455 N452 1.314 . S
C455 C453 1.353 . S
C455 H511 0.930 . S
C456 N457 1.314 . S
C456 C461 1.353 . S
C456 H462 0.930 . S
N457 Li440 1.990 . S
N457 C456 1.314 . S
N457 C459 1.279 . S
C458 C459 1.358 . S
C458 C460 1.356 . S
C458 H512 0.930 . S
C459 N457 1.279 . S
C459 C458 1.358 . S
C459 H463 0.930 . S
C460 C458 1.356 . S
C460 C461 1.348 . S
C461 C456 1.353 . S
C461 C460 1.348 . S
C461 H513 0.929 . S
H462 C456 0.930 . S
H463 C459 0.930 . S
C464 N465 1.314 . S
C464 C466 1.353 . S
C464 H470 0.930 . S
N465 Li441 1.990 . S
N465 C464 1.314 . S
N465 C468 1.279 . S
C466 C464 1.353 . S
C466 C469 1.348 . S
C466 H514 0.929 . S
C467 C468 1.358 . S
C467 C469 1.356 . S
C467 H515 0.930 . S
C468 N465 1.279 . S
C468 C467 1.358 . S
C468 H471 0.930 . S
C469 C466 1.348 . S
C469 C467 1.356 . S
H470 C464 0.930 . S
H471 C468 0.930 . S
C472 C474 1.348 . S
C472 C475 1.356 . S
C472 O502 1.325 1_565 S
N473 C476 1.314 . S
N473 C477 1.279 . S
C474 C472 1.348 . S
C474 C476 1.353 . S
C474 H516 0.929 . S
C475 C472 1.356 . S
C475 C477 1.358 . S
C475 H517 0.930 . S
C476 N473 1.314 . S
C476 C474 1.353 . S
C476 H518 0.930 . S
C477 N473 1.279 . S
C477 C475 1.358 . S
C477 H519 0.930 . S
C478 C479 1.348 . S
C478 C480 1.356 . S
C478 O503 1.325 . S
C479 C478 1.348 . S
C479 C481 1.353 . S
C479 H520 0.929 . S
C480 C478 1.356 . S
C480 C482 1.358 . S
C480 H521 0.930 . S
C481 C479 1.353 . S
C481 N483 1.314 . S
C481 H522 0.930 . S
C482 C480 1.358 . S
C482 N483 1.279 . S
C482 H523 0.930 . S
N483 C481 1.314 . S
N483 C482 1.279 . S
C484 C486 1.353 . S
C484 N487 1.314 . S
C484 H490 0.930 . S
C485 N487 1.279 . S
C485 C488 1.358 . S
C485 H491 0.930 . S
C486 C484 1.353 . S
C486 C489 1.348 . S
C486 H524 0.929 . S
N487 Li442 1.990 1_565 S
N487 C484 1.314 . S
N487 C485 1.279 . S
C488 C485 1.358 . S
C488 C489 1.356 . S
C488 H525 0.930 . S
C489 C486 1.348 . S
C489 C488 1.356 . S
H490 C484 0.930 . S
H491 C485 0.930 . S
C492 N493 1.314 . S
C492 C494 1.353 . S
C492 H498 0.930 . S
N493 Li443 1.990 . S
N493 C492 1.314 . S
N493 C496 1.279 . S
C494 C492 1.353 . S
C494 C497 1.348 . S
C494 H526 0.929 . S
C495 C496 1.358 . S
C495 C497 1.356 . S
C495 H527 0.930 . S
C496 N493 1.279 . S
C496 C495 1.358 . S
C496 H499 0.930 . S
C497 C494 1.348 . S
C497 C495 1.356 . S
H498 C492 0.930 . S
H499 C496 0.930 . S
O500 Li440 1.956 . S
O500 Li441 1.970 . S
O500 Li442 1.961 . S
O500 C444 1.325 . S
O501 Li440 1.970 . S
O501 Li441 1.956 . S
O501 Li443 1.961 . S
O501 C450 1.325 . S
O502 Li440 1.961 . S
O502 Li442 1.956 . S
O502 Li443 1.970 . S
O502 C472 1.325 1_545 S
O503 Li441 1.961 . S
O503 Li442 1.970 . S
O503 Li443 1.956 . S
O503 C478 1.325 . S
H504 C446 0.929 . S
H505 C447 0.930 1_565 S
H506 C448 0.930 . S
H507 C449 0.930 1_565 S
H508 C451 0.930 . S
H509 C453 0.929 . S
H510 C454 0.930 . S
H511 C455 0.930 . S
H512 C458 0.930 . S
H513 C461 0.929 . S
H514 C466 0.929 . S
H515 C467 0.930 . S
H516 C474 0.929 . S
H517 C475 0.930 . S
H518 C476 0.930 . S
H519 C477 0.930 . S
H520 C479 0.929 . S
H521 C480 0.930 . S
H522 C481 0.930 . S
H523 C482 0.930 . S
H524 C486 0.929 . S
H525 C488 0.930 . S
H526 C494 0.929 . S
H527 C495 0.930 . S
Li528 N545 1.990 . S
Li528 O588 1.956 . S
Li528 O589 1.970 . S
Li528 O590 1.961 . S
Li529 N553 1.990 . S
Li529 O588 1.970 . S
Li529 O589 1.956 . S
Li529 O591 1.961 . S
Li530 N575 1.990 . S
Li530 O588 1.961 . S
Li530 O590 1.956 . S
Li530 O591 1.970 . S
Li531 N581 1.990 . S
Li531 O589 1.961 . S
Li531 O590 1.970 . S
Li531 O591 1.956 . S
C532 C534 1.348 . S
C532 C535 1.356 . S
C532 O588 1.325 . S
N533 C536 1.314 . S
N533 C537 1.279 . S
C534 C532 1.348 . S
C534 C536 1.353 . S
C534 H592 0.929 . S
C535 C532 1.356 . S
C535 C537 1.358 . S
C535 H593 0.930 . S
C536 N533 1.314 . S
C536 C534 1.353 . S
C536 H594 0.930 . S
C537 N533 1.279 . S
C537 C535 1.358 . S
C537 H595 0.930 . S
C538 C541 1.348 . S
C538 C542 1.356 . S
C538 O589 1.325 . S
C539 N540 1.279 . S
C539 C542 1.358 . S
C539 H596 0.930 . S
N540 C539 1.279 . S
N540 C543 1.314 . S
C541 C538 1.348 . S
C541 C543 1.353 . S
C541 H597 0.929 . S
C542 C538 1.356 . S
C542 C539 1.358 . S
C542 H598 0.930 . S
C543 N540 1.314 . S
C543 C541 1.353 . S
C543 H599 0.930 . S
C544 N545 1.314 . S
C544 C549 1.353 . S
C544 H550 0.930 . S
N545 Li528 1.990 . S
N545 C544 1.314 . S
N545 C547 1.279 . S
C546 C547 1.358 . S
C546 C548 1.356 . S
C546 H600 0.930 . S
C547 N545 1.279 . S
C547 C546 1.358 . S
C547 H551 0.930 . S
C548 C546 1.356 . S
C548 C549 1.348 . S
C549 C544 1.353 . S
C549 C548 1.348 . S
C549 H601 0.929 . S
H550 C544 0.930 . S
H551 C547 0.930 . S
C552 N553 1.314 . S
C552 C554 1.353 . S
C552 H558 0.930 . S
N553 Li529 1.990 . S
N553 C552 1.314 . S
N553 C556 1.279 . S
C554 C552 1.353 . S
C554 C557 1.348 . S
C554 H602 0.929 . S
C555 C556 1.358 . S
C555 C557 1.356 . S
C555 H603 0.930 . S
C556 N553 1.279 . S
C556 C555 1.358 . S
C556 H559 0.930 . S
C557 C554 1.348 . S
C557 C555 1.356 . S
H558 C552 0.930 . S
H559 C556 0.930 . S
C560 C562 1.348 . S
C560 C563 1.356 . S
C560 O590 1.325 . S
N561 C564 1.314 . S
N561 C565 1.279 . S
C562 C560 1.348 . S
C562 C564 1.353 . S
C562 H604 0.929 . S
C563 C560 1.356 . S
C563 C565 1.358 . S
C563 H605 0.930 . S
C564 N561 1.314 . S
C564 C562 1.353 . S
C564 H606 0.930 . S
C565 N561 1.279 . S
C565 C563 1.358 . S
C565 H607 0.930 . S
C566 C567 1.348 . S
C566 C568 1.356 . S
C566 O591 1.325 . S
C567 C566 1.348 . S
C567 C569 1.353 . S
C567 H608 0.929 . S
C568 C566 1.356 . S
C568 C570 1.358 . S
C568 H609 0.930 . S
C569 C567 1.353 . S
C569 N571 1.314 . S
C569 H610 0.930 . S
C570 C568 1.358 . S
C570 N571 1.279 . S
C570 H611 0.930 . S
N571 C569 1.314 . S
N571 C570 1.279 . S
C572 C574 1.353 . S
C572 N575 1.314 . S
C572 H578 0.930 . S
C573 N575 1.279 . S
C573 C576 1.358 . S
C573 H579 0.930 . S
C574 C572 1.353 . S
C574 C577 1.348 . S
C574 H612 0.929 . S
N575 Li530 1.990 . S
N575 C572 1.314 . S
N575 C573 1.279 . S
C576 C573 1.358 . S
C576 C577 1.356 . S
C576 H613 0.930 . S
C577 C574 1.348 . S
C577 C576 1.356 . S
H578 C572 0.930 . S
H579 C573 0.930 . S
C580 N581 1.314 . S
C580 C582 1.353 . S
C580 H586 0.930 . S
N581 Li531 1.990 . S
N581 C580 1.314 . S
N581 C584 1.279 . S
C582 C580 1.353 . S
C582 C585 1.348 . S
C582 H614 0.929 . S
C583 C584 1.358 . S
C583 C585 1.356 . S
C583 H615 0.930 . S
C584 N581 1.279 . S
C584 C583 1.358 . S
C584 H587 0.930 . S
C585 C582 1.348 . S
C585 C583 1.356 . S
H586 C580 0.930 . S
H587 C584 0.930 . S
O588 Li528 1.956 . S
O588 Li529 1.970 . S
O588 Li530 1.961 . S
O588 C532 1.325 . S
O589 Li528 1.970 . S
O589 Li529 1.956 . S
O589 Li531 1.961 . S
O589 C538 1.325 . S
O590 Li528 1.961 . S
O590 Li530 1.956 . S
O590 Li531 1.970 . S
O590 C560 1.325 . S
O591 Li529 1.961 . S
O591 Li530 1.970 . S
O591 Li531 1.956 . S
O591 C566 1.325 . S
H592 C534 0.929 . S
H593 C535 0.930 . S
H594 C536 0.930 . S
H595 C537 0.930 . S
H596 C539 0.930 . S
H597 C541 0.929 . S
H598 C542 0.930 . S
H599 C543 0.930 . S
H600 C546 0.930 . S
H601 C549 0.929 . S
H602 C554 0.929 . S
H603 C555 0.930 . S
H604 C562 0.929 . S
H605 C563 0.930 . S
H606 C564 0.930 . S
H607 C565 0.930 . S
H608 C567 0.929 . S
H609 C568 0.930 . S
H610 C569 0.930 . S
H611 C570 0.930 . S
H612 C574 0.929 . S
H613 C576 0.930 . S
H614 C582 0.929 . S
H615 C583 0.930 . S
Li616 N633 1.990 1_655 S
Li616 O676 1.956 . S
Li616 O677 1.970 . S
Li616 O678 1.961 . S
Li617 N641 1.990 . S
Li617 O676 1.970 . S
Li617 O677 1.956 . S
Li617 O679 1.961 . S
Li618 N663 1.990 . S
Li618 O676 1.961 . S
Li618 O678 1.956 . S
Li618 O679 1.970 . S
Li619 N669 1.990 . S
Li619 O677 1.961 . S
Li619 O678 1.970 . S
Li619 O679 1.956 . S
C620 C622 1.348 . S
C620 C623 1.356 . S
C620 O676 1.325 1_455 S
N621 C624 1.314 . S
N621 C625 1.279 . S
C622 C620 1.348 . S
C622 C624 1.353 . S
C622 H680 0.929 . S
C623 C620 1.356 . S
C623 C625 1.358 . S
C623 H681 0.930 . S
C624 N621 1.314 . S
C624 C622 1.353 . S
C624 H682 0.930 . S
C625 N621 1.279 . S
C625 C623 1.358 . S
C625 H683 0.930 . S
C626 C629 1.348 . S
C626 C630 1.356 . S
C626 O677 1.325 . S
C627 N628 1.279 . S
C627 C630 1.358 . S
C627 H684 0.930 . S
N628 C627 1.279 . S
N628 C631 1.314 . S
C629 C626 1.348 . S
C629 C631 1.353 . S
C629 H685 0.929 . S
C630 C626 1.356 . S
C630 C627 1.358 . S
C630 H686 0.930 . S
C631 N628 1.314 . S
C631 C629 1.353 . S
C631 H687 0.930 . S
C632 N633 1.314 . S
C632 C637 1.353 . S
C632 H638 0.930 . S
N633 Li616 1.990 1_455 S
N633 C632 1.314 . S
N633 C635 1.279 . S
C634 C635 1.358 . S
C634 C636 1.356 . S
C634 H688 0.930 . S
C635 N633 1.279 . S
C635 C634 1.358 . S
C635 H639 0.930 . S
C636 C634 1.356 . S
C636 C637 1.348 . S
C637 C632 1.353 . S
C637 C636 1.348 . S
C637 H689 0.929 . S
H638 C632 0.930 . S
H639 C635 0.930 . S
C640 N641 1.314 . S
C640 C642 1.353 . S
C640 H646 0.930 . S
N641 Li617 1.990 . S
N641 C640 1.314 . S
N641 C644 1.279 . S
C642 C640 1.353 . S
C642 C645 1.348 . S
C642 H690 0.929 . S
C643 C644 1.358 . S
C643 C645 1.356 . S
C643 H691 0.930 . S
C644 N641 1.279 . S
C644 C643 1.358 . S
C644 H647 0.930 . S
C645 C642 1.348 . S
C645 C643 1.356 . S
H646 C640 0.930 . S
H647 C644 0.930 . S
C648 C650 1.348 . S
C648 C651 1.356 . S
C648 O678 1.325 . S
N649 C652 1.314 . S
N649 C653 1.279 . S
C650 C648 1.348 . S
C650 C652 1.353 . S
C650 H692 0.929 . S
C651 C648 1.356 . S
C651 C653 1.358 . S
C651 H693 0.930 1_655 S
C652 N649 1.314 . S
C652 C650 1.353 . S
C652 H694 0.930 . S
C653 N649 1.279 . S
C653 C651 1.358 . S
C653 H695 0.930 1_655 S
C654 C655 1.348 . S
C654 C656 1.356 . S
C654 O679 1.325 . S
C655 C654 1.348 . S
C655 C657 1.353 . S
C655 H696 0.929 . S
C656 C654 1.356 . S
C656 C658 1.358 . S
C656 H697 0.930 . S
C657 C655 1.353 . S
C657 N659 1.314 . S
C657 H698 0.930 . S
C658 C656 1.358 . S
C658 N659 1.279 . S
C658 H699 0.930 . S
N659 C657 1.314 . S
N659 C658 1.279 . S
C660 C662 1.353 . S
C660 N663 1.314 . S
C660 H666 0.930 . S
C661 N663 1.279 . S
C661 C664 1.358 . S
C661 H667 0.930 . S
C662 C660 1.353 . S
C662 C665 1.348 . S
C662 H700 0.929 . S
N663 Li618 1.990 . S
N663 C660 1.314 . S
N663 C661 1.279 . S
C664 C661 1.358 . S
C664 C665 1.356 . S
C664 H701 0.930 . S
C665 C662 1.348 . S
C665 C664 1.356 . S
H666 C660 0.930 . S
H667 C661 0.930 . S
C668 N669 1.314 . S
C668 C670 1.353 . S
C668 H674 0.930 . S
N669 Li619 1.990 . S
N669 C668 1.314 . S
N669 C672 1.279 . S
C670 C668 1.353 . S
C670 C673 1.348 . S
C670 H702 0.929 . S
C671 C672 1.358 . S
C671 C673 1.356 . S
C671 H703 0.930 . S
C672 N669 1.279 . S
C672 C671 1.358 . S
C672 H675 0.930 . S
C673 C670 1.348 . S
C673 C671 1.356 . S
H674 C668 0.930 . S
H675 C672 0.930 . S
O676 Li616 1.956 . S
O676 Li617 1.970 . S
O676 Li618 1.961 . S
O676 C620 1.325 1_655 S
O677 Li616 1.970 . S
O677 Li617 1.956 . S
O677 Li619 1.961 . S
O677 C626 1.325 . S
O678 Li616 1.961 . S
O678 Li618 1.956 . S
O678 Li619 1.970 . S
O678 C648 1.325 . S
O679 Li617 1.961 . S
O679 Li618 1.970 . S
O679 Li619 1.956 . S
O679 C654 1.325 . S
H680 C622 0.929 . S
H681 C623 0.930 . S
H682 C624 0.930 . S
H683 C625 0.930 . S
H684 C627 0.930 . S
H685 C629 0.929 . S
H686 C630 0.930 . S
H687 C631 0.930 . S
H688 C634 0.930 . S
H689 C637 0.929 . S
H690 C642 0.929 . S
H691 C643 0.930 . S
H692 C650 0.929 . S
H693 C651 0.930 1_455 S
H694 C652 0.930 . S
H695 C653 0.930 1_455 S
H696 C655 0.929 . S
H697 C656 0.930 . S
H698 C657 0.930 . S
H699 C658 0.930 . S
H700 C662 0.929 . S
H701 C664 0.930 . S
H702 C670 0.929 . S
H703 C671 0.930 . S
Li704 N721 1.990 1_565 S
Li704 O764 1.956 . S
Li704 O765 1.970 . S
Li704 O766 1.961 . S
Li705 N729 1.990 . S
Li705 O764 1.970 . S
Li705 O765 1.956 . S
Li705 O767 1.961 . S
Li706 N751 1.990 . S
Li706 O764 1.961 . S
Li706 O766 1.956 . S
Li706 O767 1.970 . S
Li707 N757 1.990 . S
Li707 O765 1.961 . S
Li707 O766 1.970 . S
Li707 O767 1.956 . S
C708 C710 1.348 . S
C708 C711 1.356 . S
C708 O764 1.325 1_545 S
N709 C712 1.314 . S
N709 C713 1.279 . S
C710 C708 1.348 . S
C710 C712 1.353 . S
C710 H768 0.929 . S
C711 C708 1.356 . S
C711 C713 1.358 . S
C711 H769 0.930 . S
C712 N709 1.314 . S
C712 C710 1.353 . S
C712 H770 0.930 . S
C713 N709 1.279 . S
C713 C711 1.358 . S
C713 H771 0.930 . S
C714 C717 1.348 . S
C714 C718 1.356 . S
C714 O765 1.325 . S
C715 N716 1.279 . S
C715 C718 1.358 . S
C715 H772 0.930 . S
N716 C715 1.279 . S
N716 C719 1.314 . S
C717 C714 1.348 . S
C717 C719 1.353 . S
C717 H773 0.929 . S
C718 C714 1.356 . S
C718 C715 1.358 . S
C718 H774 0.930 . S
C719 N716 1.314 . S
C719 C717 1.353 . S
C719 H775 0.930 . S
C720 N721 1.314 . S
C720 C725 1.353 . S
C720 H726 0.930 . S
N721 Li704 1.990 1_545 S
N721 C720 1.314 . S
N721 C723 1.279 . S
C722 C723 1.358 . S
C722 C724 1.356 . S
C722 H776 0.930 . S
C723 N721 1.279 . S
C723 C722 1.358 . S
C723 H727 0.930 . S
C724 C722 1.356 . S
C724 C725 1.348 . S
C725 C720 1.353 . S
C725 C724 1.348 . S
C725 H777 0.929 . S
H726 C720 0.930 . S
H727 C723 0.930 . S
C728 N729 1.314 . S
C728 C730 1.353 . S
C728 H734 0.930 . S
N729 Li705 1.990 . S
N729 C728 1.314 . S
N729 C732 1.279 . S
C730 C728 1.353 . S
C730 C733 1.348 . S
C730 H778 0.929 . S
C731 C732 1.358 . S
C731 C733 1.356 . S
C731 H779 0.930 . S
C732 N729 1.279 . S
C732 C731 1.358 . S
C732 H735 0.930 . S
C733 C730 1.348 . S
C733 C731 1.356 . S
H734 C728 0.930 . S
H735 C732 0.930 . S
C736 C738 1.348 . S
C736 C739 1.356 . S
C736 O766 1.325 . S
N737 C740 1.314 . S
N737 C741 1.279 . S
C738 C736 1.348 . S
C738 C740 1.353 . S
C738 H780 0.929 . S
C739 C736 1.356 . S
C739 C741 1.358 . S
C739 H781 0.930 1_565 S
C740 N737 1.314 . S
C740 C738 1.353 . S
C740 H782 0.930 . S
C741 N737 1.279 . S
C741 C739 1.358 . S
C741 H783 0.930 1_565 S
C742 C743 1.348 . S
C742 C744 1.356 . S
C742 O767 1.325 . S
C743 C742 1.348 . S
C743 C745 1.353 . S
C743 H784 0.929 . S
C744 C742 1.356 . S
C744 C746 1.358 . S
C744 H785 0.930 . S
C745 C743 1.353 . S
C745 N747 1.314 . S
C745 H786 0.930 . S
C746 C744 1.358 . S
C746 N747 1.279 . S
C746 H787 0.930 . S
N747 C745 1.314 . S
N747 C746 1.279 . S
C748 C750 1.353 . S
C748 N751 1.314 . S
C748 H754 0.930 . S
C749 N751 1.279 . S
C749 C752 1.358 . S
C749 H755 0.930 . S
C750 C748 1.353 . S
C750 C753 1.348 . S
C750 H788 0.929 . S
N751 Li706 1.990 . S
N751 C748 1.314 . S
N751 C749 1.279 . S
C752 C749 1.358 . S
C752 C753 1.356 . S
C752 H789 0.930 . S
C753 C750 1.348 . S
C753 C752 1.356 . S
H754 C748 0.930 . S
H755 C749 0.930 . S
C756 N757 1.314 . S
C756 C758 1.353 . S
C756 H762 0.930 . S
N757 Li707 1.990 . S
N757 C756 1.314 . S
N757 C760 1.279 . S
C758 C756 1.353 . S
C758 C761 1.348 . S
C758 H790 0.929 . S
C759 C760 1.358 . S
C759 C761 1.356 . S
C759 H791 0.930 . S
C760 N757 1.279 . S
C760 C759 1.358 . S
C760 H763 0.930 . S
C761 C758 1.348 . S
C761 C759 1.356 . S
H762 C756 0.930 . S
H763 C760 0.930 . S
O764 Li704 1.956 . S
O764 Li705 1.970 . S
O764 Li706 1.961 . S
O764 C708 1.325 1_565 S
O765 Li704 1.970 . S
O765 Li705 1.956 . S
O765 Li707 1.961 . S
O765 C714 1.325 . S
O766 Li704 1.961 . S
O766 Li706 1.956 . S
O766 Li707 1.970 . S
O766 C736 1.325 . S
O767 Li705 1.961 . S
O767 Li706 1.970 . S
O767 Li707 1.956 . S
O767 C742 1.325 . S
H768 C710 0.929 . S
H769 C711 0.930 . S
H770 C712 0.930 . S
H771 C713 0.930 . S
H772 C715 0.930 . S
H773 C717 0.929 . S
H774 C718 0.930 . S
H775 C719 0.930 . S
H776 C722 0.930 . S
H777 C725 0.929 . S
H778 C730 0.929 . S
H779 C731 0.930 . S
H780 C738 0.929 . S
H781 C739 0.930 1_545 S
H782 C740 0.930 . S
H783 C741 0.930 1_545 S
H784 C743 0.929 . S
H785 C744 0.930 . S
H786 C745 0.930 . S
H787 C746 0.930 . S
H788 C750 0.929 . S
H789 C752 0.930 . S
H790 C758 0.929 . S
H791 C759 0.930 . S
Li792 N809 1.990 . S
Li792 O852 1.956 . S
Li792 O853 1.970 . S
Li792 O854 1.961 . S
Li793 N817 1.990 . S
Li793 O852 1.970 . S
Li793 O853 1.956 . S
Li793 O855 1.961 . S
Li794 N839 1.990 . S
Li794 O852 1.961 . S
Li794 O854 1.956 . S
Li794 O855 1.970 . S
Li795 N845 1.990 . S
Li795 O853 1.961 . S
Li795 O854 1.970 . S
Li795 O855 1.956 . S
C796 C798 1.348 . S
C796 C799 1.356 . S
C796 O852 1.325 . S
N797 C800 1.314 . S
N797 C801 1.279 . S
C798 C796 1.348 . S
C798 C800 1.353 . S
C798 H856 0.929 . S
C799 C796 1.356 . S
C799 C801 1.358 . S
C799 H857 0.930 . S
C800 N797 1.314 . S
C800 C798 1.353 . S
C800 H858 0.930 . S
C801 N797 1.279 . S
C801 C799 1.358 . S
C801 H859 0.930 . S
C802 C805 1.348 . S
C802 C806 1.356 . S
C802 O853 1.325 . S
C803 N804 1.279 . S
C803 C806 1.358 . S
C803 H860 0.930 . S
N804 C803 1.279 . S
N804 C807 1.314 . S
C805 C802 1.348 . S
C805 C807 1.353 . S
C805 H861 0.929 . S
C806 C802 1.356 . S
C806 C803 1.358 . S
C806 H862 0.930 . S
C807 N804 1.314 . S
C807 C805 1.353 . S
C807 H863 0.930 . S
C808 N809 1.314 . S
C808 C813 1.353 . S
C808 H814 0.930 . S
N809 Li792 1.990 . S
N809 C808 1.314 . S
N809 C811 1.279 . S
C810 C811 1.358 . S
C810 C812 1.356 . S
C810 H864 0.930 . S
C811 N809 1.279 . S
C811 C810 1.358 . S
C811 H815 0.930 . S
C812 C810 1.356 . S
C812 C813 1.348 . S
C813 C808 1.353 . S
C813 C812 1.348 . S
C813 H865 0.929 . S
H814 C808 0.930 . S
H815 C811 0.930 . S
C816 N817 1.314 . S
C816 C818 1.353 . S
C816 H822 0.930 . S
N817 Li793 1.990 . S
N817 C816 1.314 . S
N817 C820 1.279 . S
C818 C816 1.353 . S
C818 C821 1.348 . S
C818 H866 0.929 . S
C819 C820 1.358 . S
C819 C821 1.356 . S
C819 H867 0.930 . S
C820 N817 1.279 . S
C820 C819 1.358 . S
C820 H823 0.930 . S
C821 C818 1.348 . S
C821 C819 1.356 . S
H822 C816 0.930 . S
H823 C820 0.930 . S
C824 C826 1.348 . S
C824 C827 1.356 . S
C824 O854 1.325 . S
N825 C828 1.314 . S
N825 C829 1.279 . S
C826 C824 1.348 . S
C826 C828 1.353 . S
C826 H868 0.929 . S
C827 C824 1.356 . S
C827 C829 1.358 . S
C827 H869 0.930 . S
C828 N825 1.314 . S
C828 C826 1.353 . S
C828 H870 0.930 . S
C829 N825 1.279 . S
C829 C827 1.358 . S
C829 H871 0.930 . S
C830 C831 1.348 . S
C830 C832 1.356 . S
C830 O855 1.325 . S
C831 C830 1.348 . S
C831 C833 1.353 . S
C831 H872 0.929 . S
C832 C830 1.356 . S
C832 C834 1.358 . S
C832 H873 0.930 . S
C833 C831 1.353 . S
C833 N835 1.314 . S
C833 H874 0.930 . S
C834 C832 1.358 . S
C834 N835 1.279 . S
C834 H875 0.930 . S
N835 C833 1.314 . S
N835 C834 1.279 . S
C836 C838 1.353 . S
C836 N839 1.314 . S
C836 H842 0.930 . S
C837 N839 1.279 . S
C837 C840 1.358 . S
C837 H843 0.930 . S
C838 C836 1.353 . S
C838 C841 1.348 . S
C838 H876 0.929 . S
N839 Li794 1.990 . S
N839 C836 1.314 . S
N839 C837 1.279 . S
C840 C837 1.358 . S
C840 C841 1.356 . S
C840 H877 0.930 . S
C841 C838 1.348 . S
C841 C840 1.356 . S
H842 C836 0.930 . S
H843 C837 0.930 . S
C844 N845 1.314 . S
C844 C846 1.353 . S
C844 H850 0.930 . S
N845 Li795 1.990 . S
N845 C844 1.314 . S
N845 C848 1.279 . S
C846 C844 1.353 . S
C846 C849 1.348 . S
C846 H878 0.929 . S
C847 C848 1.358 . S
C847 C849 1.356 . S
C847 H879 0.930 . S
C848 N845 1.279 . S
C848 C847 1.358 . S
C848 H851 0.930 . S
C849 C846 1.348 . S
C849 C847 1.356 . S
H850 C844 0.930 . S
H851 C848 0.930 . S
O852 Li792 1.956 . S
O852 Li793 1.970 . S
O852 Li794 1.961 . S
O852 C796 1.325 . S
O853 Li792 1.970 . S
O853 Li793 1.956 . S
O853 Li795 1.961 . S
O853 C802 1.325 . S
O854 Li792 1.961 . S
O854 Li794 1.956 . S
O854 Li795 1.970 . S
O854 C824 1.325 . S
O855 Li793 1.961 . S
O855 Li794 1.970 . S
O855 Li795 1.956 . S
O855 C830 1.325 . S
H856 C798 0.929 . S
H857 C799 0.930 . S
H858 C800 0.930 . S
H859 C801 0.930 . S
H860 C803 0.930 . S
H861 C805 0.929 . S
H862 C806 0.930 . S
H863 C807 0.930 . S
H864 C810 0.930 . S
H865 C813 0.929 . S
H866 C818 0.929 . S
H867 C819 0.930 . S
H868 C826 0.929 . S
H869 C827 0.930 . S
H870 C828 0.930 . S
H871 C829 0.930 . S
H872 C831 0.929 . S
H873 C832 0.930 . S
H874 C833 0.930 . S
H875 C834 0.930 . S
H876 C838 0.929 . S
H877 C840 0.930 . S
H878 C846 0.929 . S
H879 C847 0.930 . S
Li880 N897 1.990 1_455 S
Li880 O940 1.956 . S
Li880 O941 1.970 . S
Li880 O942 1.961 . S
Li881 N905 1.990 . S
Li881 O940 1.970 . S
Li881 O941 1.956 . S
Li881 O943 1.961 . S
Li882 N927 1.990 . S
Li882 O940 1.961 . S
Li882 O942 1.956 . S
Li882 O943 1.970 . S
Li883 N933 1.990 . S
Li883 O941 1.961 . S
Li883 O942 1.970 . S
Li883 O943 1.956 . S
C884 C886 1.348 . S
C884 C887 1.356 . S
C884 O940 1.325 1_655 S
N885 C888 1.314 . S
N885 C889 1.279 . S
C886 C884 1.348 . S
C886 C888 1.353 . S
C886 H944 0.929 . S
C887 C884 1.356 . S
C887 C889 1.358 . S
C887 H945 0.930 . S
C888 N885 1.314 . S
C888 C886 1.353 . S
C888 H946 0.930 . S
C889 N885 1.279 . S
C889 C887 1.358 . S
C889 H947 0.930 . S
C890 C893 1.348 . S
C890 C894 1.356 . S
C890 O941 1.325 . S
C891 N892 1.279 . S
C891 C894 1.358 . S
C891 H948 0.930 . S
N892 C891 1.279 . S
N892 C895 1.314 . S
C893 C890 1.348 . S
C893 C895 1.353 . S
C893 H949 0.929 . S
C894 C890 1.356 . S
C894 C891 1.358 . S
C894 H950 0.930 . S
C895 N892 1.314 . S
C895 C893 1.353 . S
C895 H951 0.930 . S
C896 N897 1.314 . S
C896 C901 1.353 . S
C896 H902 0.930 . S
N897 Li880 1.990 1_655 S
N897 C896 1.314 . S
N897 C899 1.279 . S
C898 C899 1.358 . S
C898 C900 1.356 . S
C898 H952 0.930 . S
C899 N897 1.279 . S
C899 C898 1.358 . S
C899 H903 0.930 . S
C900 C898 1.356 . S
C900 C901 1.348 . S
C901 C896 1.353 . S
C901 C900 1.348 . S
C901 H953 0.929 . S
H902 C896 0.930 . S
H903 C899 0.930 . S
C904 N905 1.314 . S
C904 C906 1.353 . S
C904 H910 0.930 . S
N905 Li881 1.990 . S
N905 C904 1.314 . S
N905 C908 1.279 . S
C906 C904 1.353 . S
C906 C909 1.348 . S
C906 H954 0.929 . S
C907 C908 1.358 . S
C907 C909 1.356 . S
C907 H955 0.930 . S
C908 N905 1.279 . S
C908 C907 1.358 . S
C908 H911 0.930 . S
C909 C906 1.348 . S
C909 C907 1.356 . S
H910 C904 0.930 . S
H911 C908 0.930 . S
C912 C914 1.348 . S
C912 C915 1.356 . S
C912 O942 1.325 . S
N913 C916 1.314 . S
N913 C917 1.279 . S
C914 C912 1.348 . S
C914 C916 1.353 . S
C914 H956 0.929 . S
C915 C912 1.356 . S
C915 C917 1.358 . S
C915 H957 0.930 1_455 S
C916 N913 1.314 . S
C916 C914 1.353 . S
C916 H958 0.930 . S
C917 N913 1.279 . S
C917 C915 1.358 . S
C917 H959 0.930 1_455 S
C918 C919 1.348 . S
C918 C920 1.356 . S
C918 O943 1.325 . S
C919 C918 1.348 . S
C919 C921 1.353 . S
C919 H960 0.929 . S
C920 C918 1.356 . S
C920 C922 1.358 . S
C920 H961 0.930 . S
C921 C919 1.353 . S
C921 N923 1.314 . S
C921 H962 0.930 . S
C922 C920 1.358 . S
C922 N923 1.279 . S
C922 H963 0.930 . S
N923 C921 1.314 . S
N923 C922 1.279 . S
C924 C926 1.353 . S
C924 N927 1.314 . S
C924 H930 0.930 . S
C925 N927 1.279 . S
C925 C928 1.358 . S
C925 H931 0.930 . S
C926 C924 1.353 . S
C926 C929 1.348 . S
C926 H964 0.929 . S
N927 Li882 1.990 . S
N927 C924 1.314 . S
N927 C925 1.279 . S
C928 C925 1.358 . S
C928 C929 1.356 . S
C928 H965 0.930 . S
C929 C926 1.348 . S
C929 C928 1.356 . S
H930 C924 0.930 . S
H931 C925 0.930 . S
C932 N933 1.314 . S
C932 C934 1.353 . S
C932 H938 0.930 . S
N933 Li883 1.990 . S
N933 C932 1.314 . S
N933 C936 1.279 . S
C934 C932 1.353 . S
C934 C937 1.348 . S
C934 H966 0.929 . S
C935 C936 1.358 . S
C935 C937 1.356 . S
C935 H967 0.930 . S
C936 N933 1.279 . S
C936 C935 1.358 . S
C936 H939 0.930 . S
C937 C934 1.348 . S
C937 C935 1.356 . S
H938 C932 0.930 . S
H939 C936 0.930 . S
O940 Li880 1.956 . S
O940 Li881 1.970 . S
O940 Li882 1.961 . S
O940 C884 1.325 1_455 S
O941 Li880 1.970 . S
O941 Li881 1.956 . S
O941 Li883 1.961 . S
O941 C890 1.325 . S
O942 Li880 1.961 . S
O942 Li882 1.956 . S
O942 Li883 1.970 . S
O942 C912 1.325 . S
O943 Li881 1.961 . S
O943 Li882 1.970 . S
O943 Li883 1.956 . S
O943 C918 1.325 . S
H944 C886 0.929 . S
H945 C887 0.930 . S
H946 C888 0.930 . S
H947 C889 0.930 . S
H948 C891 0.930 . S
H949 C893 0.929 . S
H950 C894 0.930 . S
H951 C895 0.930 . S
H952 C898 0.930 . S
H953 C901 0.929 . S
H954 C906 0.929 . S
H955 C907 0.930 . S
H956 C914 0.929 . S
H957 C915 0.930 1_655 S
H958 C916 0.930 . S
H959 C917 0.930 1_655 S
H960 C919 0.929 . S
H961 C920 0.930 . S
H962 C921 0.930 . S
H963 C922 0.930 . S
H964 C926 0.929 . S
H965 C928 0.930 . S
H966 C934 0.929 . S
H967 C935 0.930 . S
Li968 N985 1.990 . S
Li968 O1028 1.956 . S
Li968 O1029 1.970 . S
Li968 O1030 1.961 . S
Li969 N993 1.990 1_545 S
Li969 O1028 1.970 . S
Li969 O1029 1.956 . S
Li969 O1031 1.961 . S
Li970 N1015 1.990 . S
Li970 O1028 1.961 . S
Li970 O1030 1.956 . S
Li970 O1031 1.970 . S
Li971 N1021 1.990 . S
Li971 O1029 1.961 . S
Li971 O1030 1.970 . S
Li971 O1031 1.956 . S
C972 C974 1.348 . S
C972 C975 1.356 . S
C972 O1028 1.325 . S
N973 C976 1.314 . S
N973 C977 1.279 . S
C974 C972 1.348 . S
C974 C976 1.353 . S
C974 H1032 0.929 . S
C975 C972 1.356 . S
C975 C977 1.358 . S
C975 H1033 0.930 . S
C976 N973 1.314 . S
C976 C974 1.353 . S
C976 H1034 0.930 . S
C977 N973 1.279 . S
C977 C975 1.358 . S
C977 H1035 0.930 . S
C978 C981 1.348 . S
C978 C982 1.356 . S
C978 O1029 1.325 1_565 S
C979 N980 1.279 . S
C979 C982 1.358 . S
C979 H1036 0.930 . S
N980 C979 1.279 . S
N980 C983 1.314 . S
C981 C978 1.348 . S
C981 C983 1.353 . S
C981 H1037 0.929 . S
C982 C978 1.356 . S
C982 C979 1.358 . S
C982 H1038 0.930 . S
C983 N980 1.314 . S
C983 C981 1.353 . S
C983 H1039 0.930 . S
C984 N985 1.314 . S
C984 C989 1.353 . S
C984 H990 0.930 . S
N985 Li968 1.990 . S
N985 C984 1.314 . S
N985 C987 1.279 . S
C986 C987 1.358 . S
C986 C988 1.356 . S
C986 H1040 0.930 . S
C987 N985 1.279 . S
C987 C986 1.358 . S
C987 H991 0.930 . S
C988 C986 1.356 . S
C988 C989 1.348 . S
C989 C984 1.353 . S
C989 C988 1.348 . S
C989 H1041 0.929 . S
H990 C984 0.930 . S
H991 C987 0.930 . S
C992 N993 1.314 . S
C992 C994 1.353 . S
C992 H998 0.930 . S
N993 Li969 1.990 1_565 S
N993 C992 1.314 . S
N993 C996 1.279 . S
C994 C992 1.353 . S
C994 C997 1.348 . S
C994 H1042 0.929 . S
C995 C996 1.358 . S
C995 C997 1.356 . S
C995 H1043 0.930 . S
C996 N993 1.279 . S
C996 C995 1.358 . S
C996 H999 0.930 . S
C997 C994 1.348 . S
C997 C995 1.356 . S
H998 C992 0.930 . S
H999 C996 0.930 . S
C1000 C1002 1.348 . S
C1000 C1003 1.356 . S
C1000 O1030 1.325 . S
N1001 C1004 1.314 . S
N1001 C1005 1.279 . S
C1002 C1000 1.348 . S
C1002 C1004 1.353 . S
C1002 H1044 0.929 . S
C1003 C1000 1.356 . S
C1003 C1005 1.358 . S
C1003 H1045 0.930 . S
C1004 N1001 1.314 . S
C1004 C1002 1.353 . S
C1004 H1046 0.930 . S
C1005 N1001 1.279 . S
C1005 C1003 1.358 . S
C1005 H1047 0.930 . S
C1006 C1007 1.348 . S
C1006 C1008 1.356 . S
C1006 O1031 1.325 . S
C1007 C1006 1.348 . S
C1007 C1009 1.353 . S
C1007 H1048 0.929 . S
C1008 C1006 1.356 . S
C1008 C1010 1.358 . S
C1008 H1049 0.930 1_545 S
C1009 C1007 1.353 . S
C1009 N1011 1.314 . S
C1009 H1050 0.930 . S
C1010 C1008 1.358 . S
C1010 N1011 1.279 . S
C1010 H1051 0.930 1_545 S
N1011 C1009 1.314 . S
N1011 C1010 1.279 . S
C1012 C1014 1.353 . S
C1012 N1015 1.314 . S
C1012 H1018 0.930 . S
C1013 N1015 1.279 . S
C1013 C1016 1.358 . S
C1013 H1019 0.930 . S
C1014 C1012 1.353 . S
C1014 C1017 1.348 . S
C1014 H1052 0.929 . S
N1015 Li970 1.990 . S
N1015 C1012 1.314 . S
N1015 C1013 1.279 . S
C1016 C1013 1.358 . S
C1016 C1017 1.356 . S
C1016 H1053 0.930 . S
C1017 C1014 1.348 . S
C1017 C1016 1.356 . S
H1018 C1012 0.930 . S
H1019 C1013 0.930 . S
C1020 N1021 1.314 . S
C1020 C1022 1.353 . S
C1020 H1026 0.930 . S
N1021 Li971 1.990 . S
N1021 C1020 1.314 . S
N1021 C1024 1.279 . S
C1022 C1020 1.353 . S
C1022 C1025 1.348 . S
C1022 H1054 0.929 . S
C1023 C1024 1.358 . S
C1023 C1025 1.356 . S
C1023 H1055 0.930 . S
C1024 N1021 1.279 . S
C1024 C1023 1.358 . S
C1024 H1027 0.930 . S
C1025 C1022 1.348 . S
C1025 C1023 1.356 . S
H1026 C1020 0.930 . S
H1027 C1024 0.930 . S
O1028 Li968 1.956 . S
O1028 Li969 1.970 . S
O1028 Li970 1.961 . S
O1028 C972 1.325 . S
O1029 Li968 1.970 . S
O1029 Li969 1.956 . S
O1029 Li971 1.961 . S
O1029 C978 1.325 1_545 S
O1030 Li968 1.961 . S
O1030 Li970 1.956 . S
O1030 Li971 1.970 . S
O1030 C1000 1.325 . S
O1031 Li969 1.961 . S
O1031 Li970 1.970 . S
O1031 Li971 1.956 . S
O1031 C1006 1.325 . S
H1032 C974 0.929 . S
H1033 C975 0.930 . S
H1034 C976 0.930 . S
H1035 C977 0.930 . S
H1036 C979 0.930 . S
H1037 C981 0.929 . S
H1038 C982 0.930 . S
H1039 C983 0.930 . S
H1040 C986 0.930 . S
H1041 C989 0.929 . S
H1042 C994 0.929 . S
H1043 C995 0.930 . S
H1044 C1002 0.929 . S
H1045 C1003 0.930 . S
H1046 C1004 0.930 . S
H1047 C1005 0.930 . S
H1048 C1007 0.929 . S
H1049 C1008 0.930 1_565 S
H1050 C1009 0.930 . S
H1051 C1010 0.930 1_565 S
H1052 C1014 0.929 . S
H1053 C1016 0.930 . S
H1054 C1022 0.929 . S
H1055 C1023 0.930 . S
C1056 C1057 1.387 . S
C1056 H1060 0.950 . S
C1056 C1065 1.390 1_655 S
C1057 C1056 1.387 . S
C1057 C1059 1.387 . S
H1058 C1065 0.950 . S
C1059 C1057 1.387 . S
C1059 C1061 1.390 1_655 S
C1059 H1063 0.950 . S
H1060 C1056 0.950 . S
C1061 C1059 1.390 1_455 S
C1061 C1062 1.387 . S
C1061 H1064 0.950 . S
C1062 C1061 1.387 . S
C1062 C1065 1.387 . S
H1063 C1059 0.950 . S
H1064 C1061 0.950 . S
C1065 C1056 1.390 1_455 S
C1065 H1058 0.950 . S
C1065 C1062 1.387 . S
C1066 C1067 1.387 . S
C1066 H1070 0.950 . S
C1066 C1075 1.390 1_545 S
C1067 C1066 1.387 . S
C1067 C1069 1.387 . S
H1068 C1075 0.950 . S
C1069 C1067 1.387 . S
C1069 C1071 1.390 1_545 S
C1069 H1073 0.950 . S
H1070 C1066 0.950 . S
C1071 C1069 1.390 1_565 S
C1071 C1072 1.387 . S
C1071 H1074 0.950 . S
C1072 C1071 1.387 . S
C1072 C1075 1.387 . S
H1073 C1069 0.950 . S
H1074 C1071 0.950 . S
C1075 C1066 1.390 1_565 S
C1075 H1068 0.950 . S
C1075 C1072 1.387 . S
C1076 C1077 1.387 . S
C1076 H1080 0.950 . S
C1076 C1085 1.390 . S
C1077 C1076 1.387 . S
C1077 C1079 1.387 . S
H1078 C1085 0.950 . S
C1079 C1077 1.387 . S
C1079 C1081 1.390 . S
C1079 H1083 0.950 . S
H1080 C1076 0.950 . S
C1081 C1079 1.390 . S
C1081 C1082 1.387 . S
C1081 H1084 0.950 . S
C1082 C1081 1.387 . S
C1082 C1085 1.387 . S
H1083 C1079 0.950 . S
H1084 C1081 0.950 . S
C1085 C1076 1.390 . S
C1085 H1078 0.950 . S
C1085 C1082 1.387 . S
C1086 C1087 1.387 . S
C1086 H1090 0.950 . S
C1086 C1095 1.390 1_655 S
C1087 C1086 1.387 . S
C1087 C1089 1.387 . S
H1088 C1095 0.950 . S
C1089 C1087 1.387 . S
C1089 C1091 1.390 1_655 S
C1089 H1093 0.950 . S
H1090 C1086 0.950 . S
C1091 C1089 1.390 1_455 S
C1091 C1092 1.387 . S
C1091 H1094 0.950 . S
C1092 C1091 1.387 . S
C1092 C1095 1.387 . S
H1093 C1089 0.950 . S
H1094 C1091 0.950 . S
C1095 C1086 1.390 1_455 S
C1095 H1088 0.950 . S
C1095 C1092 1.387 . S
C1096 C1097 1.387 . S
C1096 H1100 0.950 . S
C1096 C1105 1.390 1_545 S
C1097 C1096 1.387 . S
C1097 C1099 1.387 . S
H1098 C1105 0.950 . S
C1099 C1097 1.387 . S
C1099 C1101 1.390 1_545 S
C1099 H1103 0.950 . S
H1100 C1096 0.950 . S
C1101 C1099 1.390 1_565 S
C1101 C1102 1.387 . S
C1101 H1104 0.950 . S
C1102 C1101 1.387 . S
C1102 C1105 1.387 . S
H1103 C1099 0.950 . S
H1104 C1101 0.950 . S
C1105 C1096 1.390 1_565 S
C1105 H1098 0.950 . S
C1105 C1102 1.387 . S
C1106 C1107 1.387 . S
C1106 H1110 0.950 . S
C1106 C1115 1.390 . S
C1107 C1106 1.387 . S
C1107 C1109 1.387 . S
H1108 C1115 0.950 . S
C1109 C1107 1.387 . S
C1109 C1111 1.390 . S
C1109 H1113 0.950 . S
H1110 C1106 0.950 . S
C1111 C1109 1.390 . S
C1111 C1112 1.387 . S
C1111 H1114 0.950 . S
C1112 C1111 1.387 . S
C1112 C1115 1.387 . S
H1113 C1109 0.950 . S
H1114 C1111 0.950 . S
C1115 C1106 1.390 . S
C1115 H1108 0.950 . S
C1115 C1112 1.387 . S
C1116 C1117 1.387 . S
C1116 H1120 0.950 . S
C1116 C1125 1.390 . S
C1117 C1116 1.387 . S
C1117 C1119 1.387 . S
H1118 C1125 0.950 . S
C1119 C1117 1.387 . S
C1119 C1121 1.390 . S
C1119 H1123 0.950 . S
H1120 C1116 0.950 . S
C1121 C1119 1.390 . S
C1121 C1122 1.387 . S
C1121 H1124 0.950 . S
C1122 C1121 1.387 . S
C1122 C1125 1.387 . S
H1123 C1119 0.950 . S
H1124 C1121 0.950 . S
C1125 C1116 1.390 . S
C1125 H1118 0.950 . S
C1125 C1122 1.387 . S
C1126 C1127 1.387 . S
C1126 H1130 0.950 . S
C1126 C1135 1.390 1_455 S
C1127 C1126 1.387 . S
C1127 C1129 1.387 . S
H1128 C1135 0.950 . S
C1129 C1127 1.387 . S
C1129 C1131 1.390 1_455 S
C1129 H1133 0.950 . S
H1130 C1126 0.950 . S
C1131 C1129 1.390 1_655 S
C1131 C1132 1.387 . S
C1131 H1134 0.950 . S
C1132 C1131 1.387 . S
C1132 C1135 1.387 . S
H1133 C1129 0.950 . S
H1134 C1131 0.950 . S
C1135 C1126 1.390 1_655 S
C1135 H1128 0.950 . S
C1135 C1132 1.387 . S
C1136 C1137 1.387 . S
C1136 H1140 0.950 . S
C1136 C1145 1.390 1_545 S
C1137 C1136 1.387 . S
C1137 C1139 1.387 . S
H1138 C1145 0.950 . S
C1139 C1137 1.387 . S
C1139 C1141 1.390 1_545 S
C1139 H1143 0.950 . S
H1140 C1136 0.950 . S
C1141 C1139 1.390 1_565 S
C1141 C1142 1.387 . S
C1141 H1144 0.950 . S
C1142 C1141 1.387 . S
C1142 C1145 1.387 . S
H1143 C1139 0.950 . S
H1144 C1141 0.950 . S
C1145 C1136 1.390 1_565 S
C1145 H1138 0.950 . S
C1145 C1142 1.387 . S
C1146 C1147 1.387 . S
C1146 H1150 0.950 . S
C1146 C1155 1.390 . S
C1147 C1146 1.387 . S
C1147 C1149 1.387 . S
H1148 C1155 0.950 . S
C1149 C1147 1.387 . S
C1149 C1151 1.390 . S
C1149 H1153 0.950 . S
H1150 C1146 0.950 . S
C1151 C1149 1.390 . S
C1151 C1152 1.387 . S
C1151 H1154 0.950 . S
C1152 C1151 1.387 . S
C1152 C1155 1.387 . S
H1153 C1149 0.950 . S
H1154 C1151 0.950 . S
C1155 C1146 1.390 . S
C1155 H1148 0.950 . S
C1155 C1152 1.387 . S
C1156 C1157 1.387 . S
C1156 H1160 0.950 . S
C1156 C1165 1.390 1_655 S
C1157 C1156 1.387 . S
C1157 C1159 1.387 . S
H1158 C1165 0.950 . S
C1159 C1157 1.387 . S
C1159 C1161 1.390 1_655 S
C1159 H1163 0.950 . S
H1160 C1156 0.950 . S
C1161 C1159 1.390 1_455 S
C1161 C1162 1.387 . S
C1161 H1164 0.950 . S
C1162 C1161 1.387 . S
C1162 C1165 1.387 . S
H1163 C1159 0.950 . S
H1164 C1161 0.950 . S
C1165 C1156 1.390 1_455 S
C1165 H1158 0.950 . S
C1165 C1162 1.387 . S
C1166 C1167 1.387 . S
C1166 H1170 0.950 . S
C1166 C1175 1.390 1_565 S
C1167 C1166 1.387 . S
C1167 C1169 1.387 . S
H1168 C1175 0.950 . S
C1169 C1167 1.387 . S
C1169 C1171 1.390 1_565 S
C1169 H1173 0.950 . S
H1170 C1166 0.950 . S
C1171 C1169 1.390 1_545 S
C1171 C1172 1.387 . S
C1171 H1174 0.950 . S
C1172 C1171 1.387 . S
C1172 C1175 1.387 . S
H1173 C1169 0.950 . S
H1174 C1171 0.950 . S
C1175 C1166 1.390 1_545 S
C1175 H1168 0.950 . S
C1175 C1172 1.387 . S
C1176 C1177 1.387 . S
C1176 H1180 0.950 . S
C1176 C1185 1.390 . S
C1177 C1176 1.387 . S
C1177 C1179 1.387 . S
H1178 C1185 0.950 . S
C1179 C1177 1.387 . S
C1179 C1181 1.390 . S
C1179 H1183 0.950 . S
H1180 C1176 0.950 . S
C1181 C1179 1.390 . S
C1181 C1182 1.387 . S
C1181 H1184 0.950 . S
C1182 C1181 1.387 . S
C1182 C1185 1.387 . S
H1183 C1179 0.950 . S
H1184 C1181 0.950 . S
C1185 C1176 1.390 . S
C1185 H1178 0.950 . S
C1185 C1182 1.387 . S
C1186 C1187 1.387 . S
C1186 H1190 0.950 . S
C1186 C1195 1.390 . S
C1187 C1186 1.387 . S
C1187 C1189 1.387 . S
H1188 C1195 0.950 . S
C1189 C1187 1.387 . S
C1189 C1191 1.390 . S
C1189 H1193 0.950 . S
H1190 C1186 0.950 . S
C1191 C1189 1.390 . S
C1191 C1192 1.387 . S
C1191 H1194 0.950 . S
C1192 C1191 1.387 . S
C1192 C1195 1.387 . S
H1193 C1189 0.950 . S
H1194 C1191 0.950 . S
C1195 C1186 1.390 . S
C1195 H1188 0.950 . S
C1195 C1192 1.387 . S
C1196 C1197 1.387 . S
C1196 H1200 0.950 . S
C1196 C1205 1.390 . S
C1197 C1196 1.387 . S
C1197 C1199 1.387 . S
H1198 C1205 0.950 . S
C1199 C1197 1.387 . S
C1199 C1201 1.390 . S
C1199 H1203 0.950 . S
H1200 C1196 0.950 . S
C1201 C1199 1.390 . S
C1201 C1202 1.387 . S
C1201 H1204 0.950 . S
C1202 C1201 1.387 . S
C1202 C1205 1.387 . S
H1203 C1199 0.950 . S
H1204 C1201 0.950 . S
C1205 C1196 1.390 . S
C1205 H1198 0.950 . S
C1205 C1202 1.387 . S
C1206 C1207 1.387 . S
C1206 H1210 0.950 . S
C1206 C1215 1.390 . S
C1207 C1206 1.387 . S
C1207 C1209 1.387 . S
H1208 C1215 0.950 . S
C1209 C1207 1.387 . S
C1209 C1211 1.390 . S
C1209 H1213 0.950 . S
H1210 C1206 0.950 . S
C1211 C1209 1.390 . S
C1211 C1212 1.387 . S
C1211 H1214 0.950 . S
C1212 C1211 1.387 . S
C1212 C1215 1.387 . S
H1213 C1209 0.950 . S
H1214 C1211 0.950 . S
C1215 C1206 1.390 . S
C1215 H1208 0.950 . S
C1215 C1212 1.387 . S
C1216 C1217 1.387 . S
C1216 H1220 0.950 . S
C1216 C1225 1.390 . S
C1217 C1216 1.387 . S
C1217 C1219 1.387 . S
H1218 C1225 0.950 . S
C1219 C1217 1.387 . S
C1219 C1221 1.390 . S
C1219 H1223 0.950 . S
H1220 C1216 0.950 . S
C1221 C1219 1.390 . S
C1221 C1222 1.387 . S
C1221 H1224 0.950 . S
C1222 C1221 1.387 . S
C1222 C1225 1.387 . S
H1223 C1219 0.950 . S
H1224 C1221 0.950 . S
C1225 C1216 1.390 . S
C1225 H1218 0.950 . S
C1225 C1222 1.387 . S
C1226 C1227 1.387 . S
C1226 H1230 0.950 . S
C1226 C1235 1.390 . S
C1227 C1226 1.387 . S
C1227 C1229 1.387 . S
H1228 C1235 0.950 . S
C1229 C1227 1.387 . S
C1229 C1231 1.390 . S
C1229 H1233 0.950 . S
H1230 C1226 0.950 . S
C1231 C1229 1.390 . S
C1231 C1232 1.387 . S
C1231 H1234 0.950 . S
C1232 C1231 1.387 . S
C1232 C1235 1.387 . S
H1233 C1229 0.950 . S
H1234 C1231 0.950 . S
C1235 C1226 1.390 . S
C1235 H1228 0.950 . S
C1235 C1232 1.387 . S
C1236 C1237 1.387 . S
C1236 H1240 0.950 . S
C1236 C1245 1.390 . S
C1237 C1236 1.387 . S
C1237 C1239 1.387 . S
H1238 C1245 0.950 . S
C1239 C1237 1.387 . S
C1239 C1241 1.390 . S
C1239 H1243 0.950 . S
H1240 C1236 0.950 . S
C1241 C1239 1.390 . S
C1241 C1242 1.387 . S
C1241 H1244 0.950 . S
C1242 C1241 1.387 . S
C1242 C1245 1.387 . S
H1243 C1239 0.950 . S
H1244 C1241 0.950 . S
C1245 C1236 1.390 . S
C1245 H1238 0.950 . S
C1245 C1242 1.387 . S
C1246 C1247 1.387 . S
C1246 H1250 0.950 . S
C1246 C1255 1.390 . S
C1247 C1246 1.387 . S
C1247 C1249 1.387 1_655 S
H1248 C1255 0.950 . S
C1249 C1247 1.387 1_455 S
C1249 C1251 1.390 . S
C1249 H1253 0.950 . S
H1250 C1246 0.950 . S
C1251 C1249 1.390 . S
C1251 C1252 1.387 . S
C1251 H1254 0.950 . S
C1252 C1251 1.387 . S
C1252 C1255 1.387 1_455 S
H1253 C1249 0.950 . S
H1254 C1251 0.950 . S
C1255 C1246 1.390 . S
C1255 H1248 0.950 . S
C1255 C1252 1.387 1_655 S
C1256 C1257 1.387 . S
C1256 H1260 0.950 . S
C1256 C1265 1.390 1_544 S
C1257 C1256 1.387 . S
C1257 C1259 1.387 . S
H1258 C1265 0.950 . S
C1259 C1257 1.387 . S
C1259 C1261 1.390 1_544 S
C1259 H1263 0.950 . S
H1260 C1256 0.950 . S
C1261 C1259 1.390 1_566 S
C1261 C1262 1.387 . S
C1261 H1264 0.950 . S
C1262 C1261 1.387 . S
C1262 C1265 1.387 . S
H1263 C1259 0.950 . S
H1264 C1261 0.950 . S
C1265 C1256 1.390 1_566 S
C1265 H1258 0.950 . S
C1265 C1262 1.387 . S
C1266 C1267 1.387 . S
C1266 H1270 0.950 . S
C1266 C1275 1.390 . S
C1267 C1266 1.387 . S
C1267 C1269 1.387 . S
H1268 C1275 0.950 . S
C1269 C1267 1.387 . S
C1269 C1271 1.390 . S
C1269 H1273 0.950 . S
H1270 C1266 0.950 . S
C1271 C1269 1.390 . S
C1271 C1272 1.387 . S
C1271 H1274 0.950 . S
C1272 C1271 1.387 . S
C1272 C1275 1.387 . S
H1273 C1269 0.950 . S
H1274 C1271 0.950 . S
C1275 C1266 1.390 . S
C1275 H1268 0.950 . S
C1275 C1272 1.387 . S
C1276 C1277 1.387 . S
C1276 H1280 0.950 . S
C1276 C1285 1.390 . S
C1277 C1276 1.387 . S
C1277 C1279 1.387 1_455 S
H1278 C1285 0.950 . S
C1279 C1277 1.387 1_655 S
C1279 C1281 1.390 . S
C1279 H1283 0.950 . S
H1280 C1276 0.950 . S
C1281 C1279 1.390 . S
C1281 C1282 1.387 . S
C1281 H1284 0.950 . S
C1282 C1281 1.387 . S
C1282 C1285 1.387 1_655 S
H1283 C1279 0.950 . S
H1284 C1281 0.950 . S
C1285 C1276 1.390 . S
C1285 H1278 0.950 . S
C1285 C1282 1.387 1_455 S
C1286 C1287 1.387 . S
C1286 H1290 0.950 . S
C1286 C1295 1.390 1_564 S
C1287 C1286 1.387 . S
C1287 C1289 1.387 . S
H1288 C1295 0.950 . S
C1289 C1287 1.387 . S
C1289 C1291 1.390 1_564 S
C1289 H1293 0.950 . S
H1290 C1286 0.950 . S
C1291 C1289 1.390 1_546 S
C1291 C1292 1.387 . S
C1291 H1294 0.950 . S
C1292 C1291 1.387 . S
C1292 C1295 1.387 . S
H1293 C1289 0.950 . S
H1294 C1291 0.950 . S
C1295 C1286 1.390 1_546 S
C1295 H1288 0.950 . S
C1295 C1292 1.387 . S
C1057 C1017 1.811 . S
C1062 C20 1.809 . S
C1067 C108 1.810 . S
C1072 C585 1.810 . S
C1077 C205 1.811 . S
C1082 C673 1.809 . S
C1087 C284 1.809 . S
C1092 C761 1.811 . S
C1097 C841 1.810 . S
C1102 C372 1.810 . S
C1107 C469 1.810 . S
C1112 C937 1.809 . S
C1117 C313 2.030 . S
C1122 C49 2.030 . S
C1127 C401 2.034 . S
C1132 C137 2.034 . S
C1137 C497 2.034 . S
C1142 C233 2.034 . S
C1147 C557 2.030 . S
C1152 C812 2.030 . S
C1157 C645 2.034 . S
C1162 C909 2.034 . S
C1167 C733 2.030 . S
C1172 C988 2.030 . S
C1177 C724 0.330 . S
C1182 C57 0.328 . S
C1187 C145 0.335 . S
C1192 C821 0.335 . S
C1197 C900 0.328 . S
C1202 C225 0.330 . S
C1207 C997 0.328 . S
C1212 C321 0.330 . S
C1217 C548 0.323 . S
C1222 C409 0.323 . S
C1227 C489 0.330 . S
C1232 C636 0.328 . S
C1237 C849 1.782 . S
C1242 C29 1.782 . S
C1247 C117 1.783 . S
C1252 C929 1.783 . S
C1257 C1025 1.780 . S
C1262 C196 1.780 . S
C1267 C293 1.781 . S
C1272 C577 1.781 . S
C1277 C381 1.783 . S
C1282 C665 1.783 . S
C1287 C753 1.780 . S
C1292 C460 1.780 . S
