# Generated by pormake.
# Topology upa, (4)-cn, num edge types: 1
# Building blocks:
#     Node 0, Type 0, BuildingBlock: ICAMEG_clean_sbu_1, # of connection points: 4
#     Node 1, Type 0, BuildingBlock: ICAMEG_clean_sbu_1, # of connection points: 4
#     Node 2, Type 0, BuildingBlock: ICAMEG_clean_sbu_1, # of connection points: 4
#     Node 3, Type 0, BuildingBlock: ICAMEG_clean_sbu_1, # of connection points: 4
#     Node 4, Type 0, BuildingBlock: ICAMEG_clean_sbu_1, # of connection points: 4
#     Node 5, Type 0, BuildingBlock: ICAMEG_clean_sbu_1, # of connection points: 4
#     Node 6, Type 0, BuildingBlock: ICAMEG_clean_sbu_1, # of connection points: 4
#     Node 7, Type 0, BuildingBlock: ICAMEG_clean_sbu_1, # of connection points: 4
#     Edge 8, Type (0, 0), BuildingBlock: ZUJKAS_clean_linker_0, # of connection points: 2
#     Edge 9, Type (0, 0), BuildingBlock: ZUJKAS_clean_linker_0, # of connection points: 2
#     Edge 10, Type (0, 0), BuildingBlock: ZUJKAS_clean_linker_0, # of connection points: 2
#     Edge 11, Type (0, 0), BuildingBlock: ZUJKAS_clean_linker_0, # of connection points: 2
#     Edge 12, Type (0, 0), BuildingBlock: ZUJKAS_clean_linker_0, # of connection points: 2
#     Edge 13, Type (0, 0), BuildingBlock: ZUJKAS_clean_linker_0, # of connection points: 2
#     Edge 14, Type (0, 0), BuildingBlock: ZUJKAS_clean_linker_0, # of connection points: 2
#     Edge 15, Type (0, 0), BuildingBlock: ZUJKAS_clean_linker_0, # of connection points: 2
#     Edge 16, Type (0, 0), BuildingBlock: ZUJKAS_clean_linker_0, # of connection points: 2
#     Edge 17, Type (0, 0), BuildingBlock: ZUJKAS_clean_linker_0, # of connection points: 2
#     Edge 18, Type (0, 0), BuildingBlock: ZUJKAS_clean_linker_0, # of connection points: 2
#     Edge 19, Type (0, 0), BuildingBlock: ZUJKAS_clean_linker_0, # of connection points: 2
#     Edge 20, Type (0, 0), BuildingBlock: ZUJKAS_clean_linker_0, # of connection points: 2
#     Edge 21, Type (0, 0), BuildingBlock: ZUJKAS_clean_linker_0, # of connection points: 2
#     Edge 22, Type (0, 0), BuildingBlock: ZUJKAS_clean_linker_0, # of connection points: 2
#     Edge 23, Type (0, 0), BuildingBlock: ZUJKAS_clean_linker_0, # of connection points: 2
# Relax obj value: 0.140
# Max RMSD: 0.081
# Mean RMSD: 0.081
data_MOF--net-upa--node1-ICAMEG_clean_sbu_1--edge1-ZUJKAS_clean_linker_0
_symmetry_space_group_name_H-M    P1
_symmetry_Int_Tables_number       1
_symmetry_cell_setting            triclinic
loop_
_symmetry_equiv_pos_as_xyz
'x, y, z'
_cell_length_a     33.705852
_cell_length_b     33.682778
_cell_length_c     64.359735
_cell_angle_alpha  90.02506
_cell_angle_beta   89.971028
_cell_angle_gamma 89.975398
loop_
_atom_site_label
_atom_site_type_symbol
_atom_site_fract_x
_atom_site_fract_y
_atom_site_fract_z
_atom_type_partial_charge
Co0 Co 0.16646 0.24261 0.35473 0.0
Co1 Co 0.2102 0.1737 0.32204 0.0
O2 O 0.21308 0.21652 0.34266 0.0
C3 C 0.20776 0.21349 0.39222 0.0
O4 O 0.21193 0.17947 0.38249 0.0
C5 C 0.26834 0.23178 0.30406 0.0
O6 O 0.24645 0.26129 0.31087 0.0
O7 O 0.17271 0.20489 0.30425 0.0
O8 O 0.13915 0.24246 0.32719 0.0
H9 H 0.14077 0.07881 0.274 0.0
H10 H 0.24583 0.27767 0.36183 0.0
O11 O 0.19204 0.24291 0.38288 0.0
H12 H 0.16972 0.3806 0.32469 0.0
H13 H 0.0969 0.34144 0.40081 0.0
H14 H 0.07942 0.2325 0.35043 0.0
H15 H 0.1388 0.31648 0.33362 0.0
H16 H 0.15503 0.30846 0.38515 0.0
O17 O 0.25716 0.19604 0.30678 0.0
H18 H 0.14487 0.13255 0.29993 0.0
H19 H 0.27056 0.12346 0.3005 0.0
H20 H 0.02048 0.2649 0.36557 0.0
H21 H 0.27785 0.34156 0.35343 0.0
H22 H 0.02903 0.31978 0.39096 0.0
H23 H 0.23974 0.39349 0.33466 0.0
O24 O 0.14141 0.19057 0.36148 0.0
H25 H 0.33151 0.15293 0.36612 0.0
H26 H 0.21034 0.09065 0.33822 0.0
H27 H 0.25455 0.05187 0.361 0.0
H28 H 0.31569 0.08298 0.37508 0.0
H29 H 0.28626 0.19077 0.34346 0.0
H30 H 0.26784 0.06983 0.27445 0.0
H31 H 0.20258 0.04707 0.26107 0.0
O32 O 0.1642 0.14951 0.33675 0.0
C33 C 0.14416 0.22823 0.30899 0.0
C34 C 0.16939 0.08845 0.27971 0.0
C35 C 0.2407 0.08345 0.27994 0.0
N36 N 0.2079 0.13118 0.30172 0.0
C37 C 0.1719 0.11885 0.29441 0.0
C38 C 0.24206 0.11395 0.29463 0.0
C39 C 0.20408 0.07068 0.27245 0.0
C40 C 0.22898 0.30029 0.35383 0.0
N41 N 0.1905 0.29339 0.34823 0.0
C42 C 0.2473 0.33633 0.34904 0.0
C43 C 0.22592 0.36543 0.33848 0.0
C44 C 0.18665 0.3582 0.33286 0.0
C45 C 0.16933 0.32177 0.33787 0.0
C46 C 0.09279 0.31761 0.38974 0.0
C47 C 0.08339 0.25653 0.36137 0.0
C48 C 0.12559 0.29877 0.38085 0.0
N49 N 0.12062 0.26877 0.36678 0.0
C50 C 0.04989 0.27469 0.36993 0.0
C51 C 0.05472 0.30545 0.3842 0.0
C52 C 0.14167 0.15719 0.35213 0.0
C53 C 0.30503 0.139 0.36002 0.0
C54 C 0.23683 0.10446 0.34432 0.0
C55 C 0.2618 0.08231 0.35718 0.0
C56 C 0.29611 0.09977 0.36507 0.0
N57 N 0.24584 0.14289 0.33939 0.0
C58 C 0.27938 0.16023 0.3471 0.0
Co59 Co 0.25373 0.65235 0.85625 0.0
Co60 Co 0.3155 0.70461 0.82339 0.0
O61 O 0.27426 0.70185 0.84474 0.0
C62 C 0.28052 0.69417 0.89408 0.0
O63 O 0.31388 0.70131 0.88422 0.0
C64 C 0.27799 0.75767 0.79194 0.0
O65 O 0.28401 0.72968 0.77807 0.0
O66 O 0.28591 0.6663 0.80517 0.0
O67 O 0.25505 0.62697 0.8283 0.0
H68 H 0.41047 0.64933 0.77054 0.0
H69 H 0.21152 0.72774 0.86473 0.0
O70 O 0.25235 0.67628 0.88479 0.0
H71 H 0.11419 0.64272 0.82879 0.0
H72 H 0.16537 0.57035 0.90248 0.0
H73 H 0.27231 0.56703 0.85019 0.0
H74 H 0.18171 0.61818 0.83609 0.0
H75 H 0.19133 0.63248 0.88744 0.0
O76 O 0.28691 0.75146 0.81093 0.0
H77 H 0.35863 0.64589 0.79752 0.0
H78 H 0.36064 0.77138 0.80392 0.0
H79 H 0.24698 0.50419 0.86468 0.0
H80 H 0.14417 0.75341 0.85793 0.0
H81 H 0.19312 0.5056 0.89103 0.0
H82 H 0.095 0.71077 0.83981 0.0
O83 O 0.30839 0.63234 0.86165 0.0
H84 H 0.33007 0.8221 0.87101 0.0
H85 H 0.39932 0.70931 0.83821 0.0
H86 H 0.43613 0.75372 0.86176 0.0
H87 H 0.40152 0.81067 0.8783 0.0
H88 H 0.29423 0.77669 0.84756 0.0
H89 H 0.41247 0.77619 0.77697 0.0
H90 H 0.43774 0.71485 0.76009 0.0
O91 O 0.34467 0.65885 0.83587 0.0
C92 C 0.26654 0.63487 0.80987 0.0
C93 C 0.39967 0.67627 0.77776 0.0
C94 C 0.40079 0.74747 0.78137 0.0
N95 N 0.35647 0.70838 0.80222 0.0
C96 C 0.37028 0.67451 0.79304 0.0
C97 C 0.3714 0.74456 0.79659 0.0
C98 C 0.41496 0.71304 0.77191 0.0
C99 C 0.19019 0.70897 0.85694 0.0
N100 N 0.20046 0.67148 0.85087 0.0
C101 C 0.15215 0.72368 0.85309 0.0
C102 C 0.12459 0.69976 0.8429 0.0
C103 C 0.13535 0.66159 0.8367 0.0
C104 C 0.17366 0.64789 0.84081 0.0
C105 C 0.18879 0.56934 0.89098 0.0
C106 C 0.24871 0.56788 0.86156 0.0
C107 C 0.20368 0.60443 0.88245 0.0
N108 N 0.23311 0.60336 0.86784 0.0
C109 C 0.23456 0.5322 0.86975 0.0
C110 C 0.20437 0.53302 0.88455 0.0
C111 C 0.3404 0.63515 0.85116 0.0
C112 C 0.34552 0.79748 0.86382 0.0
C113 C 0.38398 0.73394 0.84538 0.0
C114 C 0.40502 0.75905 0.85867 0.0
C115 C 0.38559 0.79101 0.86794 0.0
N116 N 0.3447 0.74056 0.84135 0.0
C117 C 0.32543 0.77178 0.85044 0.0
Co118 Co 0.84022 0.76467 0.35261 0.0
Co119 Co 0.79617 0.83514 0.32133 0.0
O120 O 0.79363 0.79164 0.34139 0.0
C121 C 0.80003 0.79241 0.39062 0.0
O122 O 0.79629 0.82683 0.38125 0.0
C123 C 0.73918 0.77998 0.29997 0.0
O124 O 0.76613 0.75181 0.29972 0.0
O125 O 0.83198 0.8039 0.3025 0.0
O126 O 0.86666 0.76612 0.32487 0.0
H127 H 0.86355 0.93078 0.27289 0.0
H128 H 0.76034 0.73039 0.35913 0.0
O129 O 0.81529 0.76313 0.38094 0.0
H130 H 0.83533 0.62821 0.32074 0.0
H131 H 0.91025 0.66307 0.39672 0.0
H132 H 0.92721 0.77423 0.34767 0.0
H133 H 0.86708 0.69141 0.33062 0.0
H134 H 0.85196 0.69732 0.38204 0.0
O135 O 0.74729 0.81406 0.30739 0.0
H136 H 0.86054 0.87626 0.29838 0.0
H137 H 0.73506 0.88665 0.30134 0.0
H138 H 0.9863 0.74057 0.36182 0.0
H139 H 0.72743 0.66747 0.34969 0.0
H140 H 0.97802 0.68457 0.38654 0.0
H141 H 0.765 0.6159 0.33032 0.0
O142 O 0.86581 0.81619 0.35988 0.0
H143 H 0.6789 0.85711 0.36826 0.0
H144 H 0.79911 0.91763 0.3382 0.0
H145 H 0.75761 0.95663 0.36227 0.0
H146 H 0.69696 0.92641 0.37745 0.0
H147 H 0.72147 0.819 0.34431 0.0
H148 H 0.7367 0.94111 0.27576 0.0
H149 H 0.80131 0.96361 0.2614 0.0
O150 O 0.84385 0.85786 0.33523 0.0
C151 C 0.86088 0.78063 0.30681 0.0
C152 C 0.83522 0.92127 0.27904 0.0
C153 C 0.76402 0.92702 0.28063 0.0
N154 N 0.79769 0.87826 0.30135 0.0
C155 C 0.83332 0.89042 0.29349 0.0
C156 C 0.76327 0.89606 0.29506 0.0
C157 C 0.80028 0.93965 0.27259 0.0
C158 C 0.77691 0.70796 0.35082 0.0
N159 N 0.81559 0.71448 0.34548 0.0
C160 C 0.75811 0.67245 0.34546 0.0
C161 C 0.77919 0.64355 0.33457 0.0
C162 C 0.81865 0.65044 0.32918 0.0
C163 C 0.83644 0.68633 0.33476 0.0
C164 C 0.91425 0.68739 0.38594 0.0
C165 C 0.92336 0.74972 0.35832 0.0
C166 C 0.88135 0.70695 0.37761 0.0
N167 N 0.88618 0.73755 0.3639 0.0
C168 C 0.95693 0.73085 0.36633 0.0
C169 C 0.95226 0.69945 0.38021 0.0
C170 C 0.86631 0.84959 0.35056 0.0
C171 C 0.70518 0.87066 0.36169 0.0
C172 C 0.77282 0.90421 0.34477 0.0
C173 C 0.74939 0.92648 0.35836 0.0
C174 C 0.71536 0.90952 0.36687 0.0
N175 N 0.7626 0.86613 0.33973 0.0
C176 C 0.7293 0.84928 0.34804 0.0
Co177 Co 0.75293 0.35007 0.86022 0.0
Co178 Co 0.69337 0.2993 0.8256 0.0
O179 O 0.73284 0.30109 0.84786 0.0
C180 C 0.72225 0.30767 0.8971 0.0
O181 O 0.68961 0.30131 0.88649 0.0
C182 C 0.7328 0.24701 0.79444 0.0
O183 O 0.72814 0.27563 0.7808 0.0
O184 O 0.72472 0.33792 0.80841 0.0
O185 O 0.75459 0.37613 0.83242 0.0
H186 H 0.60311 0.357 0.77128 0.0
H187 H 0.79324 0.27382 0.86909 0.0
O188 O 0.7514 0.32541 0.88858 0.0
H189 H 0.89505 0.35846 0.83645 0.0
H190 H 0.83784 0.42972 0.90926 0.0
H191 H 0.73611 0.43577 0.8543 0.0
H192 H 0.82727 0.38378 0.84225 0.0
H193 H 0.81258 0.36832 0.89309 0.0
O194 O 0.72257 0.25259 0.81331 0.0
H195 H 0.65267 0.35918 0.79942 0.0
H196 H 0.64938 0.23351 0.80453 0.0
H197 H 0.7608 0.4979 0.86991 0.0
H198 H 0.86079 0.24737 0.86377 0.0
H199 H 0.81203 0.49511 0.89761 0.0
H200 H 0.91221 0.28982 0.84732 0.0
O201 O 0.6981 0.37072 0.86444 0.0
H202 H 0.67399 0.18043 0.87172 0.0
H203 H 0.60838 0.29486 0.83852 0.0
H204 H 0.56931 0.24999 0.8608 0.0
H205 H 0.60208 0.19221 0.87753 0.0
H206 H 0.71209 0.2263 0.84954 0.0
H207 H 0.59981 0.22996 0.77642 0.0
H208 H 0.57635 0.29203 0.75959 0.0
O209 O 0.66357 0.34489 0.83783 0.0
C210 C 0.74439 0.36882 0.81371 0.0
C211 C 0.61315 0.32974 0.77846 0.0
C212 C 0.6113 0.25845 0.78134 0.0
N213 N 0.65412 0.29652 0.80353 0.0
C214 C 0.64126 0.33079 0.79439 0.0
C215 C 0.63942 0.26065 0.79723 0.0
C216 C 0.59814 0.29328 0.77191 0.0
C217 C 0.81554 0.2925 0.86201 0.0
N218 N 0.80638 0.33031 0.85602 0.0
C219 C 0.8537 0.27735 0.859 0.0
C220 C 0.88252 0.30117 0.84975 0.0
C221 C 0.87291 0.33967 0.84363 0.0
C222 C 0.83444 0.35381 0.84688 0.0
C223 C 0.81556 0.43132 0.89718 0.0
C224 C 0.75858 0.43431 0.86625 0.0
C225 C 0.80108 0.39665 0.888 0.0
N226 N 0.7731 0.39848 0.87266 0.0
C227 C 0.77237 0.46959 0.87508 0.0
C228 C 0.80108 0.468 0.89063 0.0
C229 C 0.66689 0.36833 0.85331 0.0
C230 C 0.65933 0.20541 0.86445 0.0
C231 C 0.62293 0.26987 0.84579 0.0
C232 C 0.60061 0.2445 0.85835 0.0
C233 C 0.61901 0.21207 0.86773 0.0
N234 N 0.66245 0.26305 0.84257 0.0
C235 C 0.68071 0.23138 0.85178 0.0
Co236 Co 0.66626 0.26142 0.15698 0.0
Co237 Co 0.70977 0.32995 0.18992 0.0
O238 O 0.71277 0.28768 0.169 0.0
C239 C 0.70682 0.29183 0.11956 0.0
O240 O 0.7106 0.32566 0.12951 0.0
C241 C 0.76839 0.27177 0.20728 0.0
O242 O 0.74661 0.24245 0.2002 0.0
O243 O 0.67283 0.29803 0.20765 0.0
O244 O 0.63927 0.26079 0.1846 0.0
H245 H 0.64008 0.42296 0.23892 0.0
H246 H 0.74581 0.22712 0.14923 0.0
O247 O 0.69151 0.26201 0.12873 0.0
H248 H 0.67135 0.12295 0.18633 0.0
H249 H 0.59716 0.16288 0.11061 0.0
H250 H 0.57916 0.27061 0.16167 0.0
H251 H 0.63969 0.18699 0.17792 0.0
H252 H 0.65514 0.19612 0.12622 0.0
O253 O 0.75711 0.30757 0.20488 0.0
H254 H 0.64434 0.3699 0.21261 0.0
H255 H 0.76992 0.38015 0.21156 0.0
H256 H 0.52038 0.23795 0.14658 0.0
H257 H 0.77853 0.16333 0.15712 0.0
H258 H 0.52919 0.18366 0.12085 0.0
H259 H 0.74125 0.11078 0.17587 0.0
O260 O 0.64054 0.31332 0.15069 0.0
H261 H 0.83027 0.35283 0.14548 0.0
H262 H 0.70885 0.41335 0.17427 0.0
H263 H 0.75237 0.45305 0.15155 0.0
H264 H 0.81362 0.42282 0.13702 0.0
H265 H 0.78572 0.31407 0.1681 0.0
H266 H 0.76704 0.43312 0.23798 0.0
H267 H 0.70174 0.45495 0.25179 0.0
O268 O 0.66325 0.35407 0.17557 0.0
C269 C 0.64434 0.27469 0.20286 0.0
C270 C 0.6687 0.41374 0.23301 0.0
C271 C 0.73996 0.41939 0.2325 0.0
N272 N 0.70732 0.37194 0.21054 0.0
C273 C 0.6713 0.38373 0.21809 0.0
C274 C 0.74141 0.38928 0.2176 0.0
C275 C 0.70331 0.43165 0.24024 0.0
C276 C 0.72931 0.20423 0.15722 0.0
N277 N 0.69089 0.21072 0.16309 0.0
C278 C 0.74803 0.16824 0.16172 0.0
C279 C 0.72712 0.1388 0.17227 0.0
C280 C 0.68791 0.14563 0.17817 0.0
C281 C 0.67018 0.182 0.17344 0.0
C282 C 0.59294 0.18644 0.12184 0.0
C283 C 0.58325 0.24684 0.15058 0.0
C284 C 0.62566 0.20542 0.1307 0.0
N285 N 0.62054 0.23507 0.14496 0.0
C286 C 0.54984 0.22854 0.14205 0.0
C287 C 0.55481 0.19811 0.12759 0.0
C288 C 0.64046 0.34643 0.16029 0.0
C289 C 0.80373 0.36638 0.15178 0.0
C290 C 0.73541 0.39994 0.16798 0.0
C291 C 0.75997 0.4226 0.15515 0.0
C292 C 0.79435 0.40563 0.14701 0.0
N293 N 0.74487 0.36148 0.17264 0.0
C294 C 0.77849 0.34463 0.16468 0.0
Co295 Co 0.24737 0.16106 0.65198 0.0
Co296 Co 0.17954 0.20404 0.68534 0.0
O297 O 0.22125 0.20744 0.66421 0.0
C298 C 0.21705 0.20233 0.61475 0.0
O299 O 0.18313 0.20576 0.62464 0.0
C300 C 0.23694 0.26289 0.70323 0.0
O301 O 0.26655 0.23936 0.69828 0.0
O302 O 0.21258 0.16789 0.70302 0.0
O303 O 0.24809 0.13366 0.67948 0.0
H304 H 0.08895 0.1338 0.7353 0.0
H305 H 0.28138 0.24098 0.64504 0.0
O306 O 0.24681 0.18683 0.62387 0.0
H307 H 0.38592 0.1653 0.68114 0.0
H308 H 0.34559 0.09246 0.60518 0.0
H309 H 0.23809 0.07385 0.65626 0.0
H310 H 0.322 0.13379 0.67245 0.0
H311 H 0.31252 0.15029 0.62112 0.0
O312 O 0.20134 0.25225 0.69967 0.0
H313 H 0.14122 0.13839 0.7086 0.0
H314 H 0.12887 0.26385 0.70704 0.0
H315 H 0.2706 0.0152 0.64085 0.0
H316 H 0.34501 0.27361 0.65326 0.0
H317 H 0.32476 0.02432 0.6151 0.0
H318 H 0.39776 0.23571 0.6715 0.0
O319 O 0.19537 0.13556 0.64563 0.0
H320 H 0.1533 0.32334 0.6405 0.0
H321 H 0.09579 0.20141 0.67032 0.0
H322 H 0.05475 0.24382 0.64769 0.0
H323 H 0.08345 0.30533 0.63264 0.0
H324 H 0.19345 0.27986 0.66303 0.0
H325 H 0.07668 0.26064 0.73384 0.0
H326 H 0.0563 0.19524 0.74811 0.0
O327 O 0.15593 0.15682 0.67143 0.0
C328 C 0.23526 0.139 0.69793 0.0
C329 C 0.09756 0.16247 0.7292 0.0
C330 C 0.09071 0.23366 0.7284 0.0
N331 N 0.13814 0.20134 0.70627 0.0
C332 C 0.12712 0.16526 0.71406 0.0
C333 C 0.12041 0.2353 0.71328 0.0
C334 C 0.07927 0.19696 0.73639 0.0
C335 C 0.30434 0.22423 0.65282 0.0
N336 N 0.29805 0.18552 0.65821 0.0
C337 C 0.34024 0.24289 0.6575 0.0
C338 C 0.3698 0.22162 0.66776 0.0
C339 C 0.36316 0.18213 0.6732 0.0
C340 C 0.32687 0.16447 0.66829 0.0
C341 C 0.32208 0.0881 0.61641 0.0
C342 C 0.2618 0.07807 0.64516 0.0
C343 C 0.30319 0.12073 0.62545 0.0
N344 N 0.2736 0.11545 0.63972 0.0
C345 C 0.28002 0.04474 0.63644 0.0
C346 C 0.31038 0.04988 0.62198 0.0
C347 C 0.16288 0.13469 0.65578 0.0
C348 C 0.14042 0.29667 0.64701 0.0
C349 C 0.10857 0.22805 0.66378 0.0
C350 C 0.08513 0.252 0.65102 0.0
C351 C 0.10125 0.28652 0.64259 0.0
N352 N 0.14695 0.23824 0.66809 0.0
C353 C 0.16296 0.27202 0.65986 0.0
Co354 Co 0.33665 0.74151 0.15177 0.0
Co355 Co 0.29595 0.68029 0.18894 0.0
O356 O 0.2908 0.71872 0.16618 0.0
C357 C 0.29079 0.70963 0.11634 0.0
O358 O 0.28754 0.67632 0.1268 0.0
C359 C 0.23657 0.73987 0.20445 0.0
O360 O 0.25722 0.76853 0.19586 0.0
O361 O 0.33303 0.71616 0.20435 0.0
O362 O 0.36752 0.74363 0.17823 0.0
H363 H 0.37051 0.59903 0.24148 0.0
H364 H 0.2581 0.77927 0.14586 0.0
O365 O 0.3076 0.73957 0.12462 0.0
H366 H 0.34247 0.88281 0.17719 0.0
H367 H 0.40379 0.83172 0.10025 0.0
H368 H 0.42357 0.72781 0.15319 0.0
H369 H 0.36962 0.81634 0.16963 0.0
H370 H 0.34663 0.8033 0.11899 0.0
O371 O 0.24883 0.70414 0.2035 0.0
H372 H 0.3635 0.64681 0.21271 0.0
H373 H 0.23831 0.63244 0.21372 0.0
H374 H 0.48158 0.75564 0.13495 0.0
H375 H 0.22984 0.84552 0.15293 0.0
H376 H 0.47187 0.80799 0.10825 0.0
H377 H 0.27212 0.89777 0.16878 0.0
O378 O 0.3587 0.68776 0.14616 0.0
H379 H 0.17373 0.64697 0.14777 0.0
H380 H 0.29789 0.59438 0.1775 0.0
H381 H 0.25408 0.54985 0.15758 0.0
H382 H 0.19144 0.57606 0.14259 0.0
H383 H 0.21859 0.69059 0.16762 0.0
H384 H 0.24396 0.58472 0.24262 0.0
H385 H 0.31045 0.56761 0.25664 0.0
O386 O 0.34229 0.65441 0.17507 0.0
C387 C 0.36303 0.73525 0.19741 0.0
C388 C 0.34138 0.60618 0.23548 0.0
C389 C 0.27035 0.59819 0.23614 0.0
N390 N 0.30055 0.64233 0.21148 0.0
C391 C 0.33722 0.63317 0.21916 0.0
C392 C 0.26733 0.62534 0.21981 0.0
C393 C 0.30767 0.58859 0.24399 0.0
C394 C 0.27676 0.802 0.15257 0.0
N395 N 0.31545 0.79399 0.1573 0.0
C396 C 0.26056 0.83939 0.15662 0.0
C397 C 0.28428 0.86867 0.16555 0.0
C398 C 0.32374 0.86028 0.1703 0.0
C399 C 0.33891 0.82254 0.16606 0.0
C400 C 0.40841 0.80899 0.11188 0.0
C401 C 0.41912 0.75075 0.14169 0.0
C402 C 0.37615 0.79274 0.12252 0.0
N403 N 0.38178 0.76417 0.1373 0.0
C404 C 0.45207 0.76632 0.13137 0.0
C405 C 0.4466 0.79567 0.11638 0.0
C406 C 0.36139 0.65761 0.15804 0.0
C407 C 0.20087 0.63516 0.15428 0.0
C408 C 0.27074 0.60607 0.17099 0.0
C409 C 0.24601 0.58067 0.15975 0.0
C410 C 0.21086 0.5954 0.15136 0.0
N411 N 0.26069 0.64502 0.17385 0.0
C412 C 0.22631 0.65968 0.16562 0.0
Co413 Co 0.75829 0.84797 0.64952 0.0
Co414 Co 0.81954 0.7986 0.6838 0.0
O415 O 0.77901 0.79949 0.66207 0.0
C416 C 0.78706 0.80388 0.61281 0.0
O417 O 0.82 0.79767 0.62319 0.0
C418 C 0.78151 0.74676 0.71571 0.0
O419 O 0.78661 0.77545 0.72929 0.0
O420 O 0.78877 0.83761 0.70107 0.0
O421 O 0.75821 0.87521 0.67705 0.0
H422 H 0.91179 0.85843 0.73654 0.0
H423 H 0.71734 0.77155 0.64206 0.0
O424 O 0.75831 0.82215 0.62142 0.0
H425 H 0.61758 0.85781 0.67537 0.0
H426 H 0.67086 0.92584 0.60093 0.0
H427 H 0.7756 0.93384 0.65424 0.0
H428 H 0.68507 0.88265 0.66828 0.0
H429 H 0.69691 0.86505 0.61736 0.0
O430 O 0.79107 0.7522 0.69674 0.0
H431 H 0.861 0.85947 0.70899 0.0
H432 H 0.86473 0.73367 0.70491 0.0
H433 H 0.75014 0.99539 0.63834 0.0
H434 H 0.65005 0.74555 0.64867 0.0
H435 H 0.69739 0.99162 0.61147 0.0
H436 H 0.59967 0.78882 0.66547 0.0
O437 O 0.81288 0.86813 0.64424 0.0
H438 H 0.83742 0.6784 0.63837 0.0
H439 H 0.904 0.79393 0.66996 0.0
H440 H 0.94229 0.74851 0.64759 0.0
H441 H 0.90903 0.69017 0.63166 0.0
H442 H 0.80009 0.72484 0.66063 0.0
H443 H 0.91554 0.73125 0.73245 0.0
H444 H 0.9394 0.79396 0.74846 0.0
O445 O 0.84868 0.84383 0.67078 0.0
C446 C 0.76908 0.86847 0.69571 0.0
C447 C 0.90159 0.83089 0.72971 0.0
C448 C 0.90369 0.75952 0.72741 0.0
N449 N 0.85974 0.79668 0.70542 0.0
C450 C 0.8728 0.8313 0.71411 0.0
C451 C 0.87488 0.76108 0.71185 0.0
C452 C 0.91707 0.79471 0.73638 0.0
C453 C 0.69548 0.79058 0.64928 0.0
N454 N 0.70505 0.82859 0.65473 0.0
C455 C 0.65748 0.77569 0.65303 0.0
C456 C 0.62923 0.79997 0.66247 0.0
C457 C 0.63927 0.83867 0.66804 0.0
C458 C 0.67757 0.85253 0.66406 0.0
C459 C 0.69379 0.92788 0.61264 0.0
C460 C 0.75247 0.93197 0.64265 0.0
C461 C 0.70872 0.89355 0.62197 0.0
N462 N 0.73754 0.89592 0.63686 0.0
C463 C 0.73825 0.96692 0.63366 0.0
C464 C 0.70868 0.96478 0.61857 0.0
C465 C 0.84467 0.86622 0.65493 0.0
C466 C 0.85229 0.70362 0.64529 0.0
C467 C 0.88924 0.76869 0.66305 0.0
C468 C 0.91112 0.74302 0.65043 0.0
C469 C 0.89244 0.71028 0.64151 0.0
N470 N 0.84987 0.76189 0.66676 0.0
C471 C 0.83135 0.72992 0.65801 0.0
H472 H 0.09223 0.15663 0.38628 0.0
H473 H 0.04714 0.10325 0.39707 0.0
H474 H 0.08412 0.03324 0.34437 0.0
H475 H 0.12948 0.08523 0.33386 0.0
H476 H 0.98489 0.07379 0.37725 0.0
H477 H 0.09026 0.95128 0.3891 0.0
H478 H 0.10633 1.00229 0.38714 0.0
H479 H 0.0989 0.97277 0.36406 0.0
C480 C 0.09105 0.12964 0.37715 0.0
C481 C 0.11466 0.12524 0.35924 0.0
C482 C 0.06537 0.09915 0.38337 0.0
C483 C 0.06302 0.06378 0.37185 0.0
C484 C 0.08641 0.05957 0.35396 0.0
H485 H 0.88095 0.92085 0.33206 0.0
H486 H 0.92654 0.97232 0.34302 0.0
C487 C 0.1121 0.0897 0.34782 0.0
C488 C 0.03374 0.03245 0.37704 0.0
H489 H 0.02367 0.93168 0.37734 0.0
C490 C 0.99343 0.04276 0.37784 0.0
C491 C 0.04471 0.99196 0.37848 0.0
C492 C 0.08749 0.97906 0.3799 0.0
C493 C 0.96382 0.01351 0.3779 0.0
C494 C 0.97487 0.97304 0.3765 0.0
C495 C 0.01511 0.96271 0.37789 0.0
C496 C 0.94584 0.94179 0.37084 0.0
C497 C 0.92098 0.0264 0.3787 0.0
C498 C 0.94253 0.90654 0.38238 0.0
C499 C 0.91671 0.87636 0.37591 0.0
C500 C 0.89394 0.88095 0.35773 0.0
C501 C 0.89764 0.91626 0.34623 0.0
C502 C 0.92347 0.94609 0.35262 0.0
H503 H 0.91768 0.0542 0.38785 0.0
H504 H 0.91043 0.03263 0.3627 0.0
H505 H 0.90177 0.00317 0.38567 0.0
H506 H 0.95998 0.90236 0.39634 0.0
H507 H 0.91463 0.84952 0.38511 0.0
H508 H 0.40985 0.62638 0.82982 0.0
H509 H 0.46414 0.58102 0.83715 0.0
H510 H 0.4035 0.53992 0.89211 0.0
H511 H 0.348 0.58464 0.88454 0.0
H512 H 0.51421 0.57434 0.86969 0.0
H513 H 0.42391 0.43699 0.86154 0.0
H514 H 0.40541 0.48517 0.85413 0.0
H515 H 0.40725 0.47126 0.88107 0.0
C516 C 0.40786 0.60781 0.84351 0.0
C517 C 0.37426 0.60896 0.85648 0.0
C518 C 0.4391 0.58192 0.84771 0.0
C519 C 0.43768 0.55666 0.86501 0.0
C520 C 0.40484 0.55853 0.87842 0.0
H521 H 0.65631 0.41708 0.88721 0.0
H522 H 0.6003 0.46166 0.89404 0.0
C523 C 0.37325 0.58427 0.87412 0.0
C524 C 0.47042 0.52792 0.86837 0.0
H525 H 0.49195 0.42888 0.86796 0.0
C526 C 0.50939 0.5425 0.86956 0.0
C527 C 0.46398 0.48641 0.86807 0.0
C528 C 0.42296 0.46886 0.86597 0.0
C529 C 0.5422 0.51681 0.86947 0.0
C530 C 0.53578 0.47532 0.86878 0.0
C531 C 0.49676 0.4607 0.86858 0.0
C532 C 0.56883 0.44677 0.86577 0.0
C533 C 0.58336 0.53445 0.86888 0.0
C534 C 0.56908 0.4226 0.84802 0.0
C535 C 0.60057 0.39678 0.84424 0.0
C536 C 0.63279 0.39461 0.85809 0.0
C537 C 0.63217 0.41827 0.87612 0.0
C538 C 0.60028 0.44392 0.88 0.0
H539 H 0.58284 0.56661 0.86505 0.0
H540 H 0.59744 0.53102 0.88436 0.0
H541 H 0.60216 0.51895 0.85726 0.0
H542 H 0.54514 0.42427 0.83682 0.0
H543 H 0.59986 0.37903 0.83021 0.0
H544 H 0.62781 0.41802 0.17897 0.0
H545 H 0.57971 0.46861 0.16974 0.0
H546 H 0.54141 0.39827 0.11745 0.0
H547 H 0.58917 0.34638 0.12694 0.0
H548 H 0.57029 0.51333 0.13476 0.0
H549 H 0.43806 0.41767 0.1484 0.0
H550 H 0.48723 0.40295 0.1563 0.0
H551 H 0.47315 0.40035 0.12943 0.0
C552 C 0.60931 0.41306 0.16546 0.0
C553 C 0.61221 0.37782 0.15381 0.0
C554 C 0.58186 0.44223 0.16016 0.0
C555 C 0.55666 0.43708 0.14305 0.0
C556 C 0.56009 0.40253 0.13095 0.0
H557 H 0.4035 0.64752 0.12171 0.0
H558 H 0.44904 0.59311 0.11309 0.0
C559 C 0.58751 0.373 0.13635 0.0
C560 C 0.52621 0.46776 0.13871 0.0
H561 H 0.42658 0.48496 0.14166 0.0
C562 C 0.53879 0.50714 0.13591 0.0
C563 C 0.48517 0.45948 0.14028 0.0
C564 C 0.46989 0.41793 0.14391 0.0
C565 C 0.51167 0.53878 0.13595 0.0
C566 C 0.47075 0.53064 0.13834 0.0
C567 C 0.45798 0.49104 0.1398 0.0
C568 C 0.44148 0.56259 0.14242 0.0
C569 C 0.52733 0.58072 0.13491 0.0
C570 C 0.42128 0.56286 0.16147 0.0
C571 C 0.39506 0.59344 0.16633 0.0
C572 C 0.38844 0.62471 0.15226 0.0
C573 C 0.40816 0.62409 0.13297 0.0
C574 C 0.43431 0.59312 0.12804 0.0
H575 H 0.56006 0.58194 0.13684 0.0
H576 H 0.5199 0.59373 0.11956 0.0
H577 H 0.51345 0.59948 0.1471 0.0
H578 H 0.4264 0.53966 0.17283 0.0
H579 H 0.38043 0.59273 0.18131 0.0
H580 H 0.16233 0.08237 0.62278 0.0
H581 H 0.10905 0.03616 0.61314 0.0
H582 H 0.03936 0.0771 0.66512 0.0
H583 H 0.09132 0.12331 0.6746 0.0
H584 H 0.07797 0.97501 0.63546 0.0
H585 H 0.95919 0.08277 0.61875 0.0
H586 H 0.01069 0.09717 0.62051 0.0
H587 H 0.98073 0.09298 0.64363 0.0
C588 C 0.13546 0.08177 0.63201 0.0
C589 C 0.13111 0.10681 0.64939 0.0
C590 C 0.10507 0.0554 0.62647 0.0
C591 C 0.06984 0.05391 0.63811 0.0
C592 C 0.0657 0.07861 0.6555 0.0
H593 H 0.91383 0.87707 0.67625 0.0
H594 H 0.96918 0.91987 0.66722 0.0
C595 C 0.09578 0.10486 0.66101 0.0
C596 C 0.03811 0.02487 0.63332 0.0
H597 H 0.93733 0.01755 0.63057 0.0
C598 C 0.04728 0.98426 0.63388 0.0
C599 C 0.99817 0.03683 0.63071 0.0
C600 C 0.98671 0.07985 0.62812 0.0
C601 C 0.01723 0.95542 0.63374 0.0
C602 C 0.97703 0.96767 0.63357 0.0
C603 C 0.96808 0.0081 0.63114 0.0
C604 C 0.94407 0.93977 0.63807 0.0
C605 C 0.02891 0.9122 0.63431 0.0
C606 C 0.91074 0.9376 0.62503 0.0
C607 C 0.87844 0.91354 0.63035 0.0
C608 C 0.8789 0.89128 0.64886 0.0
C609 C 0.91246 0.89348 0.6618 0.0
C610 C 0.94446 0.91768 0.65654 0.0
H611 H 0.05787 0.90742 0.62644 0.0
H612 H 0.03231 0.90268 0.65071 0.0
H613 H 0.00625 0.89312 0.62676 0.0
H614 H 0.90959 0.95477 0.61081 0.0
H615 H 0.85308 0.91257 0.62003 0.0
H616 H 0.23499 0.15507 0.4182 0.0
H617 H 0.24075 0.15782 0.45608 0.0
H618 H 0.20446 0.28055 0.45539 0.0
H619 H 0.19895 0.2783 0.41753 0.0
H620 H 0.2677 0.26401 0.4834 0.0
H621 H 0.14086 0.16047 0.49327 0.0
H622 H 0.18021 0.14204 0.47707 0.0
H623 H 0.15186 0.1844 0.46885 0.0
C624 C 0.22868 0.18281 0.42605 0.0
C625 C 0.21612 0.21634 0.41481 0.0
C626 C 0.23178 0.18425 0.44772 0.0
C627 C 0.2223 0.21918 0.45857 0.0
C628 C 0.21168 0.25324 0.44734 0.0
H629 H 0.15824 0.23069 0.58939 0.0
H630 H 0.16055 0.23883 0.55163 0.0
C631 C 0.20853 0.25184 0.42568 0.0
C632 C 0.22176 0.21976 0.48163 0.0
H633 H 0.1758 0.17856 0.52371 0.0
C634 C 0.24762 0.24538 0.49225 0.0
C635 C 0.19501 0.19596 0.49311 0.0
C636 C 0.16512 0.1694 0.48255 0.0
C637 C 0.248 0.24719 0.51409 0.0
C638 C 0.22211 0.22242 0.52557 0.0
C639 C 0.19577 0.19738 0.51491 0.0
C640 C 0.22208 0.22138 0.54865 0.0
C641 C 0.27569 0.27597 0.52466 0.0
C642 C 0.25602 0.20926 0.55956 0.0
C643 C 0.25483 0.20464 0.58115 0.0
C644 C 0.21955 0.21176 0.59227 0.0
C645 C 0.1859 0.22497 0.58135 0.0
C646 C 0.18714 0.22957 0.55975 0.0
H647 H 0.28524 0.30003 0.51397 0.0
H648 H 0.26145 0.28955 0.53851 0.0
H649 H 0.30261 0.25984 0.52988 0.0
H650 H 0.28309 0.20203 0.55131 0.0
H651 H 0.28127 0.19427 0.58902 0.0
H652 H 0.21665 0.68087 0.91941 0.0
H653 H 0.2135 0.68795 0.95715 0.0
H654 H 0.33315 0.73315 0.95772 0.0
H655 H 0.33679 0.72583 0.91993 0.0
H656 H 0.32061 0.67084 0.98544 0.0
H657 H 0.20448 0.78647 0.99439 0.0
H658 H 0.1904 0.74544 0.97815 0.0
H659 H 0.22998 0.77772 0.97013 0.0
C660 C 0.24214 0.69289 0.92749 0.0
C661 C 0.27704 0.7027 0.91661 0.0
C662 C 0.24018 0.6971 0.94909 0.0
C663 C 0.27294 0.71142 0.96023 0.0
C664 C 0.30747 0.72216 0.94939 0.0
H665 H 0.29502 0.77342 0.09014 0.0
H666 H 0.28773 0.77345 0.05238 0.0
C667 C 0.30946 0.71803 0.92778 0.0
C668 C 0.27227 0.71242 0.98329 0.0
H669 H 0.22432 0.75261 0.02513 0.0
C670 C 0.29962 0.68879 0.99412 0.0
C671 C 0.245 0.73602 0.99457 0.0
C672 C 0.216 0.76315 0.98376 0.0
C673 C 0.30025 0.68782 0.01592 0.0
C674 C 0.27236 0.71067 0.02722 0.0
C675 C 0.24529 0.7347 0.01642 0.0
C676 C 0.27229 0.71127 0.05027 0.0
C677 C 0.3313 0.66295 0.0267 0.0
C678 C 0.26465 0.67659 0.06169 0.0
C679 C 0.26879 0.67641 0.08333 0.0
C680 C 0.2806 0.71098 0.09393 0.0
C681 C 0.28612 0.74619 0.0825 0.0
C682 C 0.28193 0.74631 0.06089 0.0
H683 H 0.35572 0.65434 0.016 0.0
H684 H 0.34419 0.67917 0.04011 0.0
H685 H 0.31734 0.63537 0.03264 0.0
H686 H 0.25649 0.64938 0.0538 0.0
H687 H 0.2641 0.64886 0.09164 0.0
H688 H 0.72433 0.81491 0.58643 0.0
H689 H 0.72337 0.80608 0.54877 0.0
H690 H 0.84357 0.76235 0.55051 0.0
H691 H 0.84501 0.77142 0.58823 0.0
H692 H 0.83218 0.82351 0.52219 0.0
H693 H 0.7177 0.70688 0.51195 0.0
H694 H 0.70195 0.74794 0.52775 0.0
H695 H 0.74151 0.7164 0.5366 0.0
C696 C 0.7504 0.8028 0.57889 0.0
C697 C 0.78482 0.79398 0.59038 0.0
C698 C 0.74969 0.79756 0.55734 0.0
C699 C 0.78325 0.78319 0.54684 0.0
C700 C 0.81727 0.77332 0.55832 0.0
H701 H 0.80813 0.72679 0.41542 0.0
H702 H 0.80226 0.72362 0.45329 0.0
C703 C 0.81801 0.77848 0.57989 0.0
C704 C 0.78399 0.78168 0.52379 0.0
H705 H 0.73766 0.74179 0.48141 0.0
C706 C 0.81166 0.80546 0.51328 0.0
C707 C 0.75738 0.75792 0.5122 0.0
C708 C 0.72817 0.73054 0.52267 0.0
C709 C 0.81294 0.80676 0.4915 0.0
C710 C 0.78544 0.78407 0.4799 0.0
C711 C 0.75834 0.75956 0.49036 0.0
C712 C 0.78507 0.7851 0.45686 0.0
C713 C 0.84398 0.83215 0.48105 0.0
C714 C 0.77608 0.82041 0.44628 0.0
C715 C 0.77933 0.82236 0.42464 0.0
C716 C 0.7916 0.78898 0.41317 0.0
C717 C 0.79876 0.75312 0.42376 0.0
C718 C 0.79541 0.7512 0.44541 0.0
H719 H 0.86829 0.84034 0.49189 0.0
H720 H 0.857 0.81653 0.46746 0.0
H721 H 0.82997 0.85995 0.47541 0.0
H722 H 0.76742 0.84674 0.45483 0.0
H723 H 0.77335 0.85037 0.41699 0.0
H724 H 0.78451 0.31864 0.92377 0.0
H725 H 0.78487 0.31009 0.96144 0.0
H726 H 0.66429 0.26761 0.95932 0.0
H727 H 0.66345 0.27643 0.92157 0.0
H728 H 0.67597 0.32815 0.988 0.0
H729 H 0.78954 0.21044 0.9978 0.0
H730 H 0.80575 0.25165 0.98228 0.0
H731 H 0.76601 0.22062 0.97316 0.0
C732 C 0.75821 0.30691 0.93123 0.0
C733 C 0.72389 0.2983 0.91961 0.0
C734 C 0.75857 0.30183 0.9528 0.0
C735 C 0.72476 0.28783 0.96319 0.0
C736 C 0.69077 0.27831 0.9516 0.0
H737 H 0.69959 0.22734 0.0939 0.0
H738 H 0.70564 0.22587 0.05604 0.0
C739 C 0.69038 0.2833 0.93001 0.0
C740 C 0.72389 0.286 0.98624 0.0
H741 H 0.7696 0.24489 0.02848 0.0
C742 C 0.6963 0.30979 0.99684 0.0
C743 C 0.75026 0.26183 0.99776 0.0
C744 C 0.77934 0.23438 0.9872 0.0
C745 C 0.69484 0.31063 0.01864 0.0
C746 C 0.72208 0.28748 0.03017 0.0
C747 C 0.74913 0.26303 0.0196 0.0
C748 C 0.72208 0.28769 0.05323 0.0
C749 C 0.66379 0.33594 0.02916 0.0
C750 C 0.73055 0.32264 0.06426 0.0
C751 C 0.72718 0.32362 0.08592 0.0
C752 C 0.71531 0.2896 0.09697 0.0
C753 C 0.70863 0.25414 0.08591 0.0
C754 C 0.71208 0.25321 0.06425 0.0
H755 H 0.63959 0.34442 0.01831 0.0
H756 H 0.65061 0.32013 0.04263 0.0
H757 H 0.67782 0.36359 0.03497 0.0
H758 H 0.739 0.34941 0.05606 0.0
H759 H 0.73277 0.35134 0.09393 0.0
H760 H 0.58636 0.21804 0.20097 0.0
H761 H 0.52644 0.21369 0.22213 0.0
H762 H 0.56759 0.31051 0.26017 0.0
H763 H 0.62827 0.31495 0.2392 0.0
H764 H 0.51989 0.21275 0.27294 0.0
H765 H 0.45276 0.33799 0.22852 0.0
H766 H 0.48966 0.3061 0.21683 0.0
H767 H 0.5039 0.34042 0.23673 0.0
C768 C 0.58327 0.23794 0.21409 0.0
C769 C 0.61224 0.26705 0.21825 0.0
C770 C 0.54886 0.23541 0.22614 0.0
C771 C 0.54245 0.26203 0.24254 0.0
C772 C 0.572 0.28981 0.24749 0.0
H773 H 0.31216 0.30076 0.30414 0.0
H774 H 0.37984 0.31016 0.29087 0.0
C775 C 0.60676 0.29215 0.23553 0.0
C776 C 0.50368 0.26199 0.25347 0.0
H777 H 0.41168 0.3046 0.2523 0.0
C778 C 0.4963 0.23305 0.26862 0.0
C779 C 0.47313 0.28867 0.24786 0.0
C780 C 0.47987 0.32016 0.23158 0.0
C781 C 0.45884 0.22964 0.2781 0.0
C782 C 0.42756 0.25511 0.27177 0.0
C783 C 0.43546 0.28493 0.25708 0.0
C784 C 0.38613 0.25 0.27948 0.0
C785 C 0.45327 0.19884 0.29486 0.0
C786 C 0.36662 0.21351 0.27695 0.0
C787 C 0.32818 0.20803 0.28457 0.0
C788 C 0.30793 0.23913 0.29463 0.0
C789 C 0.32686 0.2762 0.29646 0.0
C790 C 0.36561 0.28157 0.28894 0.0
H791 H 0.48184 0.19157 0.30258 0.0
H792 H 0.43188 0.20904 0.30685 0.0
H793 H 0.44171 0.17112 0.28778 0.0
H794 H 0.38119 0.18907 0.2691 0.0
H795 H 0.31441 0.17921 0.28265 0.0
H796 H 0.27459 0.82523 0.81566 0.0
H797 H 0.26406 0.89342 0.80387 0.0
H798 H 0.24787 0.85156 0.74115 0.0
H799 H 0.25825 0.78316 0.75278 0.0
H800 H 0.31079 0.93366 0.77444 0.0
H801 H 0.1534 0.92755 0.74958 0.0
H802 H 0.17534 0.89059 0.76636 0.0
H803 H 0.1838 0.88887 0.73879 0.0
C804 C 0.26815 0.83034 0.79939 0.0
C805 C 0.26718 0.79853 0.78518 0.0
C806 C 0.26227 0.86945 0.79268 0.0
C807 C 0.25483 0.87766 0.77166 0.0
C808 C 0.2529 0.84594 0.7575 0.0
H809 H 0.29177 0.08104 0.69532 0.0
H810 H 0.29697 0.02094 0.71613 0.0
C811 C 0.25898 0.8068 0.76418 0.0
C812 C 0.25158 0.91947 0.76431 0.0
H813 H 0.19078 0.98388 0.73841 0.0
C814 C 0.28439 0.94476 0.76676 0.0
C815 C 0.21699 0.93417 0.75451 0.0
C816 C 0.1802 0.90905 0.75229 0.0
C817 C 0.2841 0.98375 0.75893 0.0
C818 C 0.25022 0.9978 0.74825 0.0
C819 C 0.21682 0.97308 0.74654 0.0
C820 C 0.24986 0.03682 0.73739 0.0
C821 C 0.32023 0.00949 0.76199 0.0
C822 C 0.22196 0.06624 0.74255 0.0
C823 C 0.21906 0.10112 0.7307 0.0
C824 C 0.24351 0.10682 0.7132 0.0
C825 C 0.27247 0.0779 0.70867 0.0
C826 C 0.27558 0.04339 0.72061 0.0
H827 H 0.3386 0.99901 0.77523 0.0
H828 H 0.3388 0.00838 0.74776 0.0
H829 H 0.31168 0.04089 0.76479 0.0
H830 H 0.20172 0.06174 0.75541 0.0
H831 H 0.19633 0.12256 0.73463 0.0
H832 H 0.67193 0.81975 0.31056 0.0
H833 H 0.60502 0.81047 0.29716 0.0
H834 H 0.64712 0.71643 0.25726 0.0
H835 H 0.71412 0.7243 0.27155 0.0
H836 H 0.57765 0.82238 0.26101 0.0
H837 H 0.55009 0.66424 0.27866 0.0
H838 H 0.59218 0.69067 0.28904 0.0
H839 H 0.59383 0.67031 0.26314 0.0
C840 C 0.66693 0.79672 0.2991 0.0
C841 C 0.6984 0.77271 0.29213 0.0
C842 C 0.62853 0.79145 0.29142 0.0
C843 C 0.62055 0.76239 0.27633 0.0
C844 C 0.652 0.73828 0.26932 0.0
H845 H 0.43073 0.77574 0.1878 0.0
H846 H 0.49033 0.78279 0.20848 0.0
C847 C 0.69044 0.74301 0.27736 0.0
C848 C 0.57994 0.75948 0.2671 0.0
H849 H 0.50594 0.6946 0.25407 0.0
C850 C 0.56191 0.79441 0.25974 0.0
C851 C 0.55869 0.72325 0.26571 0.0
C852 C 0.57452 0.68511 0.27477 0.0
C853 C 0.52407 0.79402 0.25061 0.0
C854 C 0.50401 0.75743 0.24793 0.0
C855 C 0.52138 0.72264 0.25586 0.0
C856 C 0.4663 0.7544 0.23589 0.0
C857 C 0.50591 0.83309 0.24415 0.0
C858 C 0.43267 0.73527 0.24413 0.0
C859 C 0.39823 0.73051 0.23209 0.0
C860 C 0.39681 0.74468 0.21152 0.0
C861 C 0.43031 0.76458 0.20358 0.0
C862 C 0.46461 0.76895 0.21549 0.0
H863 H 0.51719 0.85789 0.25387 0.0
H864 H 0.51423 0.83952 0.22781 0.0
H865 H 0.47305 0.83246 0.24533 0.0
H866 H 0.43326 0.72355 0.2598 0.0
H867 H 0.37324 0.71471 0.23869 0.0
H868 H 0.75316 0.22255 0.75518 0.0
H869 H 0.76185 0.15433 0.74283 0.0
H870 H 0.74389 0.11058 0.80504 0.0
H871 H 0.73497 0.17859 0.81755 0.0
H872 H 0.81539 0.09187 0.7551 0.0
H873 H 0.65733 0.05401 0.77009 0.0
H874 H 0.67502 0.10458 0.76951 0.0
H875 H 0.68441 0.07392 0.79178 0.0
C876 C 0.75151 0.19851 0.76631 0.0
C877 C 0.7431 0.20619 0.78735 0.0
C878 C 0.75648 0.15948 0.75921 0.0
C879 C 0.7529 0.12729 0.77294 0.0
C880 C 0.74615 0.1349 0.7941 0.0
H881 H 0.80511 0.88073 0.73373 0.0
H882 H 0.80158 0.94099 0.75516 0.0
C883 C 0.7413 0.1739 0.80124 0.0
C884 C 0.75468 0.08584 0.76492 0.0
H885 H 0.69793 0.00316 0.75666 0.0
C886 C 0.78986 0.0723 0.75561 0.0
C887 C 0.7212 0.06047 0.76544 0.0
C888 C 0.68219 0.07389 0.77458 0.0
C889 C 0.79232 0.03427 0.74661 0.0
C890 C 0.75878 0.00897 0.74705 0.0
C891 C 0.72376 0.02236 0.75658 0.0
C892 C 0.75819 0.97039 0.73575 0.0
C893 C 0.83026 0.02201 0.73593 0.0
C894 C 0.73375 0.96617 0.71828 0.0
C895 C 0.73567 0.93196 0.70605 0.0
C896 C 0.76192 0.90082 0.71106 0.0
C897 C 0.78464 0.90403 0.72935 0.0
C898 C 0.7829 0.93862 0.74153 0.0
H899 H 0.85118 0.04725 0.73409 0.0
H900 H 0.84514 0.99865 0.74525 0.0
H901 H 0.82382 0.0094 0.72034 0.0
H902 H 0.71429 0.99015 0.71357 0.0
H903 H 0.71758 0.93068 0.69217 0.0
H904 H 0.12605 0.18568 0.27368 0.0
H905 H 0.06545 0.1909 0.25273 0.0
H906 H 0.02849 0.29229 0.2887 0.0
H907 H 0.08821 0.28699 0.3099 0.0
H908 H 0.98324 0.19029 0.27388 0.0
H909 H 0.01347 0.32233 0.22459 0.0
H910 H 0.05261 0.2916 0.2351 0.0
H911 H 0.02697 0.32609 0.25158 0.0
C912 C 0.10549 0.2096 0.27688 0.0
C913 C 0.11211 0.23582 0.29358 0.0
C914 C 0.07076 0.21241 0.26494 0.0
C915 C 0.04252 0.24199 0.26917 0.0
C916 C 0.05001 0.2694 0.28508 0.0
H917 H 0.81273 0.32267 0.23066 0.0
H918 H 0.87894 0.3121 0.2449 0.0
C919 C 0.0843 0.26631 0.29719 0.0
C920 C 0.00375 0.24276 0.2582 0.0
H921 H 0.94713 0.29924 0.22566 0.0
C922 C 0.97537 0.21375 0.2631 0.0
C923 C 0.99356 0.27364 0.24436 0.0
C924 C 0.02323 0.30515 0.23841 0.0
C925 C 0.93649 0.21569 0.25518 0.0
C926 C 0.92603 0.24694 0.24147 0.0
C927 C 0.95494 0.27531 0.23616 0.0
C928 C 0.88491 0.25209 0.23326 0.0
C929 C 0.90658 0.18534 0.26239 0.0
C930 C 0.86579 0.22184 0.22198 0.0
C931 C 0.82743 0.22763 0.21405 0.0
C932 C 0.80773 0.26406 0.21689 0.0
C933 C 0.82698 0.29424 0.22815 0.0
C934 C 0.86499 0.28827 0.23627 0.0
H935 H 0.91613 0.17055 0.27699 0.0
H936 H 0.8771 0.19916 0.26504 0.0
H937 H 0.90333 0.16208 0.2503 0.0
H938 H 0.88077 0.19401 0.21895 0.0
H939 H 0.81368 0.20398 0.2052 0.0
H940 H 0.30819 0.29749 0.71407 0.0
H941 H 0.31866 0.36411 0.72864 0.0
H942 H 0.19262 0.38555 0.72698 0.0
H943 H 0.18188 0.31971 0.7124 0.0
H944 H 0.23862 0.4499 0.71179 0.0
H945 H 0.29092 0.39648 0.7889 0.0
H946 H 0.317 0.37774 0.76657 0.0
H947 H 0.26604 0.36435 0.77064 0.0
C948 C 0.28271 0.31636 0.71686 0.0
C949 C 0.24417 0.30297 0.71222 0.0
C950 C 0.28874 0.35442 0.72521 0.0
C951 C 0.25637 0.37974 0.72906 0.0
C952 C 0.21804 0.36661 0.72415 0.0
H953 H 0.21728 0.57087 0.81248 0.0
H954 H 0.217 0.51194 0.79069 0.0
C955 C 0.21198 0.32873 0.7159 0.0
C956 C 0.26173 0.41962 0.73864 0.0
H957 H 0.28614 0.46547 0.78423 0.0
C958 C 0.24944 0.45342 0.72755 0.0
C959 C 0.27552 0.42411 0.75927 0.0
C960 C 0.2879 0.38883 0.77218 0.0
C961 C 0.2498 0.49143 0.73669 0.0
C962 C 0.26297 0.49576 0.75741 0.0
C963 C 0.27617 0.4621 0.76831 0.0
C964 C 0.26033 0.53412 0.76882 0.0
C965 C 0.23457 0.52642 0.72445 0.0
C966 C 0.28391 0.56698 0.76343 0.0
C967 C 0.284 0.60126 0.7759 0.0
C968 C 0.26077 0.60304 0.79408 0.0
C969 C 0.23572 0.57074 0.7987 0.0
C970 C 0.23561 0.53678 0.78628 0.0
H971 H 0.21965 0.51714 0.70985 0.0
H972 H 0.21335 0.54402 0.73392 0.0
H973 H 0.2598 0.54609 0.72035 0.0
H974 H 0.30348 0.56549 0.7501 0.0
H975 H 0.30376 0.6254 0.77188 0.0
H976 H 0.19073 0.80738 0.20168 0.0
H977 H 0.12433 0.81825 0.21653 0.0
H978 H 0.12738 0.70148 0.24381 0.0
H979 H 0.19317 0.69024 0.22906 0.0
H980 H 0.05182 0.76255 0.21074 0.0
H981 H 0.10169 0.78423 0.29226 0.0
H982 H 0.13388 0.79262 0.27023 0.0
H983 H 0.12334 0.74292 0.27861 0.0
C984 C 0.17737 0.78415 0.21097 0.0
C985 C 0.1974 0.74799 0.21423 0.0
C986 C 0.13936 0.79033 0.21933 0.0
C987 C 0.12102 0.7607 0.2313 0.0
C988 C 0.14107 0.7248 0.2347 0.0
H989 H 0.91635 0.72163 0.30684 0.0
H990 H 0.97675 0.71792 0.28624 0.0
C991 C 0.17873 0.71845 0.22623 0.0
C992 C 0.08093 0.76675 0.2404 0.0
H993 H 0.0329 0.77483 0.2869 0.0
C994 C 0.04753 0.7657 0.22736 0.0
C995 C 0.07553 0.77071 0.26206 0.0
C996 C 0.11043 0.77301 0.27668 0.0
C997 C 0.00874 0.76689 0.23556 0.0
C998 C 0.00332 0.76996 0.25733 0.0
C999 C 0.03691 0.7722 0.27023 0.0
C1000 C 0.96342 0.76937 0.26738 0.0
C1001 C 0.974 0.7632 0.22093 0.0
C1002 C 0.93479 0.79869 0.26319 0.0
C1003 C 0.89956 0.80056 0.27484 0.0
C1004 C 0.89269 0.77357 0.29116 0.0
C1005 C 0.92052 0.74304 0.29448 0.0
C1006 C 0.95533 0.74097 0.28275 0.0
H1007 H 0.98309 0.75115 0.20557 0.0
H1008 H 0.95069 0.74367 0.22757 0.0
H1009 H 0.96085 0.793 0.21837 0.0
H1010 H 0.94048 0.82134 0.25164 0.0
H1011 H 0.87898 0.82457 0.27188 0.0
H1012 H 0.70794 0.38148 0.7759 0.0
H1013 H 0.71222 0.44152 0.75438 0.0
H1014 H 0.80174 0.48883 0.79525 0.0
H1015 H 0.79748 0.42969 0.81682 0.0
H1016 H 0.6968 0.52068 0.77062 0.0
H1017 H 0.84719 0.50836 0.73625 0.0
H1018 H 0.82061 0.46605 0.74646 0.0
H1019 H 0.84559 0.49962 0.76378 0.0
C1020 C 0.72917 0.40424 0.78005 0.0
C1021 C 0.75224 0.40064 0.79819 0.0
C1022 C 0.73143 0.43864 0.76778 0.0
C1023 C 0.75741 0.46962 0.77316 0.0
C1024 C 0.78184 0.46517 0.79063 0.0
H1025 H 0.76068 0.72253 0.75497 0.0
H1026 H 0.75109 0.65439 0.76724 0.0
C1027 C 0.77929 0.43119 0.80298 0.0
C1028 C 0.75709 0.50801 0.76174 0.0
H1029 H 0.81724 0.57272 0.73568 0.0
C1030 C 0.72294 0.53186 0.76272 0.0
C1031 C 0.79113 0.52256 0.75138 0.0
C1032 C 0.82814 0.49772 0.7492 0.0
C1033 C 0.72248 0.57045 0.75434 0.0
C1034 C 0.75716 0.58569 0.74485 0.0
C1035 C 0.79076 0.56121 0.74312 0.0
C1036 C 0.75968 0.62726 0.73709 0.0
C1037 C 0.68497 0.59472 0.75581 0.0
C1038 C 0.7677 0.63477 0.71606 0.0
C1039 C 0.77309 0.6737 0.70898 0.0
C1040 C 0.77108 0.70604 0.72284 0.0
C1041 C 0.76224 0.69845 0.74384 0.0
C1042 C 0.75662 0.65947 0.75088 0.0
H1043 H 0.65854 0.57569 0.75851 0.0
H1044 H 0.6875 0.6157 0.76904 0.0
H1045 H 0.68023 0.61231 0.74143 0.0
H1046 H 0.77036 0.61041 0.70515 0.0
H1047 H 0.78003 0.67826 0.69273 0.0
loop_
_geom_bond_atom_site_label_1
_geom_bond_atom_site_label_2
_geom_bond_distance
_geom_bond_site_symmetry_2
_ccdc_geom_bond_type
Co0 O2 2.143 . S
Co0 O8 2.074 . S
Co0 O11 2.093 . S
Co0 O24 2.097 . S
Co0 N41 2.151 . S
Co0 N49 2.214 . S
Co1 O2 2.160 . S
Co1 O7 2.058 . S
Co1 O17 2.057 . S
Co1 O32 2.037 . S
Co1 N36 2.145 . S
Co1 N57 2.257 . S
O2 Co0 2.143 . S
O2 Co1 2.160 . S
C3 O4 1.278 . S
C3 O11 1.224 . S
O4 C3 1.278 . S
C5 O6 1.245 . S
C5 O17 1.232 . S
O6 C5 1.245 . S
O7 Co1 2.058 . S
O7 C33 1.269 . S
O8 Co0 2.074 . S
O8 C33 1.257 . S
H9 C34 0.930 . S
H10 C40 0.930 . S
O11 Co0 2.093 . S
O11 C3 1.224 . S
H12 C44 0.929 . S
H13 C46 0.930 . S
H14 C47 0.930 . S
H15 C45 0.929 . S
H16 C48 0.928 . S
O17 Co1 2.057 . S
O17 C5 1.232 . S
H18 C37 0.929 . S
H19 C38 0.929 . S
H20 C50 0.931 . S
H21 C42 0.929 . S
H22 C51 0.930 . S
H23 C43 0.931 . S
O24 Co0 2.097 . S
O24 C52 1.214 . S
H25 C53 0.929 . S
H26 C54 0.929 . S
H27 C55 0.930 . S
H28 C56 0.929 . S
H29 C58 0.930 . S
H30 C35 0.930 . S
H31 C39 0.930 . S
O32 Co1 2.037 . S
O32 C52 1.234 . S
C33 O7 1.269 . S
C33 O8 1.257 . S
C34 H9 0.930 . S
C34 C37 1.388 . S
C34 C39 1.418 . S
C35 H30 0.930 . S
C35 C38 1.404 . S
C35 C39 1.353 . S
N36 Co1 2.145 . S
N36 C37 1.397 . S
N36 C38 1.334 . S
C37 H18 0.929 . S
C37 C34 1.388 . S
C37 N36 1.397 . S
C38 H19 0.929 . S
C38 C35 1.404 . S
C38 N36 1.334 . S
C39 H31 0.930 . S
C39 C34 1.418 . S
C39 C35 1.353 . S
C40 H10 0.930 . S
C40 N41 1.330 . S
C40 C42 1.446 . S
N41 Co0 2.151 . S
N41 C40 1.330 . S
N41 C45 1.418 . S
C42 H21 0.929 . S
C42 C40 1.446 . S
C42 C43 1.332 . S
C43 H23 0.931 . S
C43 C42 1.332 . S
C43 C44 1.267 . S
C44 H12 0.929 . S
C44 C43 1.267 . S
C44 C45 1.251 . S
C45 H15 0.929 . S
C45 N41 1.418 . S
C45 C44 1.251 . S
C46 H13 0.930 . S
C46 C48 1.406 . S
C46 C51 1.261 1_455 S
C47 H14 0.930 . S
C47 N49 1.325 . S
C47 C50 1.357 1_455 S
C48 H16 0.928 . S
C48 C46 1.406 . S
C48 N49 1.261 . S
N49 Co0 2.214 . S
N49 C47 1.325 . S
N49 C48 1.261 . S
C50 H20 0.931 . S
C50 C47 1.357 1_655 S
C50 C51 1.312 . S
C51 H22 0.930 . S
C51 C46 1.261 1_655 S
C51 C50 1.312 . S
C52 O24 1.214 . S
C52 O32 1.234 . S
C53 H25 0.929 . S
C53 C56 1.391 . S
C53 C58 1.391 . S
C54 H26 0.929 . S
C54 C55 1.390 . S
C54 N57 1.391 . S
C55 H27 0.930 . S
C55 C54 1.390 . S
C55 C56 1.392 . S
C56 H28 0.929 . S
C56 C53 1.391 . S
C56 C55 1.392 . S
N57 Co1 2.257 . S
N57 C54 1.391 . S
N57 C58 1.388 . S
C58 H29 0.930 . S
C58 C53 1.391 . S
C58 N57 1.388 . S
Co59 O61 2.143 . S
Co59 O67 2.074 . S
Co59 O70 2.093 . S
Co59 O83 2.097 . S
Co59 N100 2.151 . S
Co59 N108 2.214 . S
Co60 O61 2.160 . S
Co60 O66 2.058 . S
Co60 O76 2.057 . S
Co60 O91 2.037 . S
Co60 N95 2.145 . S
Co60 N116 2.257 . S
O61 Co59 2.143 . S
O61 Co60 2.160 . S
C62 O63 1.278 . S
C62 O70 1.224 . S
O63 C62 1.278 . S
C64 O65 1.245 . S
C64 O76 1.232 . S
O65 C64 1.245 . S
O66 Co60 2.058 . S
O66 C92 1.269 . S
O67 Co59 2.074 . S
O67 C92 1.257 . S
H68 C93 0.930 . S
H69 C99 0.930 . S
O70 Co59 2.093 . S
O70 C62 1.224 . S
H71 C103 0.929 . S
H72 C105 0.930 . S
H73 C106 0.930 . S
H74 C104 0.929 . S
H75 C107 0.928 . S
O76 Co60 2.057 . S
O76 C64 1.232 . S
H77 C96 0.929 . S
H78 C97 0.929 . S
H79 C109 0.931 . S
H80 C101 0.929 . S
H81 C110 0.930 . S
H82 C102 0.931 . S
O83 Co59 2.097 . S
O83 C111 1.214 . S
H84 C112 0.929 . S
H85 C113 0.929 . S
H86 C114 0.930 . S
H87 C115 0.929 . S
H88 C117 0.930 . S
H89 C94 0.930 . S
H90 C98 0.930 . S
O91 Co60 2.037 . S
O91 C111 1.234 . S
C92 O66 1.269 . S
C92 O67 1.257 . S
C93 H68 0.930 . S
C93 C96 1.388 . S
C93 C98 1.418 . S
C94 H89 0.930 . S
C94 C97 1.404 . S
C94 C98 1.353 . S
N95 Co60 2.145 . S
N95 C96 1.397 . S
N95 C97 1.334 . S
C96 H77 0.929 . S
C96 C93 1.388 . S
C96 N95 1.397 . S
C97 H78 0.929 . S
C97 C94 1.404 . S
C97 N95 1.334 . S
C98 H90 0.930 . S
C98 C93 1.418 . S
C98 C94 1.353 . S
C99 H69 0.930 . S
C99 N100 1.330 . S
C99 C101 1.446 . S
N100 Co59 2.151 . S
N100 C99 1.330 . S
N100 C104 1.418 . S
C101 H80 0.929 . S
C101 C99 1.446 . S
C101 C102 1.332 . S
C102 H82 0.931 . S
C102 C101 1.332 . S
C102 C103 1.267 . S
C103 H71 0.929 . S
C103 C102 1.267 . S
C103 C104 1.251 . S
C104 H74 0.929 . S
C104 N100 1.418 . S
C104 C103 1.251 . S
C105 H72 0.930 . S
C105 C107 1.406 . S
C105 C110 1.261 . S
C106 H73 0.930 . S
C106 N108 1.325 . S
C106 C109 1.357 . S
C107 H75 0.928 . S
C107 C105 1.406 . S
C107 N108 1.261 . S
N108 Co59 2.214 . S
N108 C106 1.325 . S
N108 C107 1.261 . S
C109 H79 0.931 . S
C109 C106 1.357 . S
C109 C110 1.312 . S
C110 H81 0.930 . S
C110 C105 1.261 . S
C110 C109 1.312 . S
C111 O83 1.214 . S
C111 O91 1.234 . S
C112 H84 0.929 . S
C112 C115 1.391 . S
C112 C117 1.391 . S
C113 H85 0.929 . S
C113 C114 1.390 . S
C113 N116 1.391 . S
C114 H86 0.930 . S
C114 C113 1.390 . S
C114 C115 1.392 . S
C115 H87 0.929 . S
C115 C112 1.391 . S
C115 C114 1.392 . S
N116 Co60 2.257 . S
N116 C113 1.391 . S
N116 C117 1.388 . S
C117 H88 0.930 . S
C117 C112 1.391 . S
C117 N116 1.388 . S
Co118 O120 2.143 . S
Co118 O126 2.074 . S
Co118 O129 2.093 . S
Co118 O142 2.097 . S
Co118 N159 2.151 . S
Co118 N167 2.214 . S
Co119 O120 2.160 . S
Co119 O125 2.058 . S
Co119 O135 2.057 . S
Co119 O150 2.037 . S
Co119 N154 2.145 . S
Co119 N175 2.257 . S
O120 Co118 2.143 . S
O120 Co119 2.160 . S
C121 O122 1.278 . S
C121 O129 1.224 . S
O122 C121 1.278 . S
C123 O124 1.245 . S
C123 O135 1.232 . S
O124 C123 1.245 . S
O125 Co119 2.058 . S
O125 C151 1.269 . S
O126 Co118 2.074 . S
O126 C151 1.257 . S
H127 C152 0.930 . S
H128 C158 0.930 . S
O129 Co118 2.093 . S
O129 C121 1.224 . S
H130 C162 0.929 . S
H131 C164 0.930 . S
H132 C165 0.930 . S
H133 C163 0.929 . S
H134 C166 0.928 . S
O135 Co119 2.057 . S
O135 C123 1.232 . S
H136 C155 0.929 . S
H137 C156 0.929 . S
H138 C168 0.931 . S
H139 C160 0.929 . S
H140 C169 0.930 . S
H141 C161 0.931 . S
O142 Co118 2.097 . S
O142 C170 1.214 . S
H143 C171 0.929 . S
H144 C172 0.929 . S
H145 C173 0.930 . S
H146 C174 0.929 . S
H147 C176 0.930 . S
H148 C153 0.930 . S
H149 C157 0.930 . S
O150 Co119 2.037 . S
O150 C170 1.234 . S
C151 O125 1.269 . S
C151 O126 1.257 . S
C152 H127 0.930 . S
C152 C155 1.388 . S
C152 C157 1.418 . S
C153 H148 0.930 . S
C153 C156 1.404 . S
C153 C157 1.353 . S
N154 Co119 2.145 . S
N154 C155 1.397 . S
N154 C156 1.334 . S
C155 H136 0.929 . S
C155 C152 1.388 . S
C155 N154 1.397 . S
C156 H137 0.929 . S
C156 C153 1.404 . S
C156 N154 1.334 . S
C157 H149 0.930 . S
C157 C152 1.418 . S
C157 C153 1.353 . S
C158 H128 0.930 . S
C158 N159 1.330 . S
C158 C160 1.446 . S
N159 Co118 2.151 . S
N159 C158 1.330 . S
N159 C163 1.418 . S
C160 H139 0.929 . S
C160 C158 1.446 . S
C160 C161 1.332 . S
C161 H141 0.931 . S
C161 C160 1.332 . S
C161 C162 1.267 . S
C162 H130 0.929 . S
C162 C161 1.267 . S
C162 C163 1.251 . S
C163 H133 0.929 . S
C163 N159 1.418 . S
C163 C162 1.251 . S
C164 H131 0.930 . S
C164 C166 1.406 . S
C164 C169 1.261 1_655 S
C165 H132 0.930 . S
C165 N167 1.325 . S
C165 C168 1.357 1_655 S
C166 H134 0.928 . S
C166 C164 1.406 . S
C166 N167 1.261 . S
N167 Co118 2.214 . S
N167 C165 1.325 . S
N167 C166 1.261 . S
C168 H138 0.931 . S
C168 C165 1.357 1_455 S
C168 C169 1.312 . S
C169 H140 0.930 . S
C169 C164 1.261 1_455 S
C169 C168 1.312 . S
C170 O142 1.214 . S
C170 O150 1.234 . S
C171 H143 0.929 . S
C171 C174 1.391 . S
C171 C176 1.391 . S
C172 H144 0.929 . S
C172 C173 1.390 . S
C172 N175 1.391 . S
C173 H145 0.930 . S
C173 C172 1.390 . S
C173 C174 1.392 . S
C174 H146 0.929 . S
C174 C171 1.391 . S
C174 C173 1.392 . S
N175 Co119 2.257 . S
N175 C172 1.391 . S
N175 C176 1.388 . S
C176 H147 0.930 . S
C176 C171 1.391 . S
C176 N175 1.388 . S
Co177 O179 2.143 . S
Co177 O185 2.074 . S
Co177 O188 2.093 . S
Co177 O201 2.097 . S
Co177 N218 2.151 . S
Co177 N226 2.214 . S
Co178 O179 2.160 . S
Co178 O184 2.058 . S
Co178 O194 2.057 . S
Co178 O209 2.037 . S
Co178 N213 2.145 . S
Co178 N234 2.257 . S
O179 Co177 2.143 . S
O179 Co178 2.160 . S
C180 O181 1.278 . S
C180 O188 1.224 . S
O181 C180 1.278 . S
C182 O183 1.245 . S
C182 O194 1.232 . S
O183 C182 1.245 . S
O184 Co178 2.058 . S
O184 C210 1.269 . S
O185 Co177 2.074 . S
O185 C210 1.257 . S
H186 C211 0.930 . S
H187 C217 0.930 . S
O188 Co177 2.093 . S
O188 C180 1.224 . S
H189 C221 0.929 . S
H190 C223 0.930 . S
H191 C224 0.930 . S
H192 C222 0.929 . S
H193 C225 0.928 . S
O194 Co178 2.057 . S
O194 C182 1.232 . S
H195 C214 0.929 . S
H196 C215 0.929 . S
H197 C227 0.931 . S
H198 C219 0.929 . S
H199 C228 0.930 . S
H200 C220 0.931 . S
O201 Co177 2.097 . S
O201 C229 1.214 . S
H202 C230 0.929 . S
H203 C231 0.929 . S
H204 C232 0.930 . S
H205 C233 0.929 . S
H206 C235 0.930 . S
H207 C212 0.930 . S
H208 C216 0.930 . S
O209 Co178 2.037 . S
O209 C229 1.234 . S
C210 O184 1.269 . S
C210 O185 1.257 . S
C211 H186 0.930 . S
C211 C214 1.388 . S
C211 C216 1.418 . S
C212 H207 0.930 . S
C212 C215 1.404 . S
C212 C216 1.353 . S
N213 Co178 2.145 . S
N213 C214 1.397 . S
N213 C215 1.334 . S
C214 H195 0.929 . S
C214 C211 1.388 . S
C214 N213 1.397 . S
C215 H196 0.929 . S
C215 C212 1.404 . S
C215 N213 1.334 . S
C216 H208 0.930 . S
C216 C211 1.418 . S
C216 C212 1.353 . S
C217 H187 0.930 . S
C217 N218 1.330 . S
C217 C219 1.446 . S
N218 Co177 2.151 . S
N218 C217 1.330 . S
N218 C222 1.418 . S
C219 H198 0.929 . S
C219 C217 1.446 . S
C219 C220 1.332 . S
C220 H200 0.931 . S
C220 C219 1.332 . S
C220 C221 1.267 . S
C221 H189 0.929 . S
C221 C220 1.267 . S
C221 C222 1.251 . S
C222 H192 0.929 . S
C222 N218 1.418 . S
C222 C221 1.251 . S
C223 H190 0.930 . S
C223 C225 1.406 . S
C223 C228 1.261 . S
C224 H191 0.930 . S
C224 N226 1.325 . S
C224 C227 1.357 . S
C225 H193 0.928 . S
C225 C223 1.406 . S
C225 N226 1.261 . S
N226 Co177 2.214 . S
N226 C224 1.325 . S
N226 C225 1.261 . S
C227 H197 0.931 . S
C227 C224 1.357 . S
C227 C228 1.312 . S
C228 H199 0.930 . S
C228 C223 1.261 . S
C228 C227 1.312 . S
C229 O201 1.214 . S
C229 O209 1.234 . S
C230 H202 0.929 . S
C230 C233 1.391 . S
C230 C235 1.391 . S
C231 H203 0.929 . S
C231 C232 1.390 . S
C231 N234 1.391 . S
C232 H204 0.930 . S
C232 C231 1.390 . S
C232 C233 1.392 . S
C233 H205 0.929 . S
C233 C230 1.391 . S
C233 C232 1.392 . S
N234 Co178 2.257 . S
N234 C231 1.391 . S
N234 C235 1.388 . S
C235 H206 0.930 . S
C235 C230 1.391 . S
C235 N234 1.388 . S
Co236 O238 2.143 . S
Co236 O244 2.074 . S
Co236 O247 2.093 . S
Co236 O260 2.097 . S
Co236 N277 2.151 . S
Co236 N285 2.214 . S
Co237 O238 2.160 . S
Co237 O243 2.058 . S
Co237 O253 2.057 . S
Co237 O268 2.037 . S
Co237 N272 2.145 . S
Co237 N293 2.257 . S
O238 Co236 2.143 . S
O238 Co237 2.160 . S
C239 O240 1.278 . S
C239 O247 1.224 . S
O240 C239 1.278 . S
C241 O242 1.245 . S
C241 O253 1.232 . S
O242 C241 1.245 . S
O243 Co237 2.058 . S
O243 C269 1.269 . S
O244 Co236 2.074 . S
O244 C269 1.257 . S
H245 C270 0.930 . S
H246 C276 0.930 . S
O247 Co236 2.093 . S
O247 C239 1.224 . S
H248 C280 0.929 . S
H249 C282 0.930 . S
H250 C283 0.930 . S
H251 C281 0.929 . S
H252 C284 0.928 . S
O253 Co237 2.057 . S
O253 C241 1.232 . S
H254 C273 0.929 . S
H255 C274 0.929 . S
H256 C286 0.931 . S
H257 C278 0.929 . S
H258 C287 0.930 . S
H259 C279 0.931 . S
O260 Co236 2.097 . S
O260 C288 1.214 . S
H261 C289 0.929 . S
H262 C290 0.929 . S
H263 C291 0.930 . S
H264 C292 0.929 . S
H265 C294 0.930 . S
H266 C271 0.930 . S
H267 C275 0.930 . S
O268 Co237 2.037 . S
O268 C288 1.234 . S
C269 O243 1.269 . S
C269 O244 1.257 . S
C270 H245 0.930 . S
C270 C273 1.388 . S
C270 C275 1.418 . S
C271 H266 0.930 . S
C271 C274 1.404 . S
C271 C275 1.353 . S
N272 Co237 2.145 . S
N272 C273 1.397 . S
N272 C274 1.334 . S
C273 H254 0.929 . S
C273 C270 1.388 . S
C273 N272 1.397 . S
C274 H255 0.929 . S
C274 C271 1.404 . S
C274 N272 1.334 . S
C275 H267 0.930 . S
C275 C270 1.418 . S
C275 C271 1.353 . S
C276 H246 0.930 . S
C276 N277 1.330 . S
C276 C278 1.446 . S
N277 Co236 2.151 . S
N277 C276 1.330 . S
N277 C281 1.418 . S
C278 H257 0.929 . S
C278 C276 1.446 . S
C278 C279 1.332 . S
C279 H259 0.931 . S
C279 C278 1.332 . S
C279 C280 1.267 . S
C280 H248 0.929 . S
C280 C279 1.267 . S
C280 C281 1.251 . S
C281 H251 0.929 . S
C281 N277 1.418 . S
C281 C280 1.251 . S
C282 H249 0.930 . S
C282 C284 1.406 . S
C282 C287 1.261 . S
C283 H250 0.930 . S
C283 N285 1.325 . S
C283 C286 1.357 . S
C284 H252 0.928 . S
C284 C282 1.406 . S
C284 N285 1.261 . S
N285 Co236 2.214 . S
N285 C283 1.325 . S
N285 C284 1.261 . S
C286 H256 0.931 . S
C286 C283 1.357 . S
C286 C287 1.312 . S
C287 H258 0.930 . S
C287 C282 1.261 . S
C287 C286 1.312 . S
C288 O260 1.214 . S
C288 O268 1.234 . S
C289 H261 0.929 . S
C289 C292 1.391 . S
C289 C294 1.391 . S
C290 H262 0.929 . S
C290 C291 1.390 . S
C290 N293 1.391 . S
C291 H263 0.930 . S
C291 C290 1.390 . S
C291 C292 1.392 . S
C292 H264 0.929 . S
C292 C289 1.391 . S
C292 C291 1.392 . S
N293 Co237 2.257 . S
N293 C290 1.391 . S
N293 C294 1.388 . S
C294 H265 0.930 . S
C294 C289 1.391 . S
C294 N293 1.388 . S
Co295 O297 2.143 . S
Co295 O303 2.074 . S
Co295 O306 2.093 . S
Co295 O319 2.097 . S
Co295 N336 2.151 . S
Co295 N344 2.214 . S
Co296 O297 2.160 . S
Co296 O302 2.058 . S
Co296 O312 2.057 . S
Co296 O327 2.037 . S
Co296 N331 2.145 . S
Co296 N352 2.257 . S
O297 Co295 2.143 . S
O297 Co296 2.160 . S
C298 O299 1.278 . S
C298 O306 1.224 . S
O299 C298 1.278 . S
C300 O301 1.245 . S
C300 O312 1.232 . S
O301 C300 1.245 . S
O302 Co296 2.058 . S
O302 C328 1.269 . S
O303 Co295 2.074 . S
O303 C328 1.257 . S
H304 C329 0.930 . S
H305 C335 0.930 . S
O306 Co295 2.093 . S
O306 C298 1.224 . S
H307 C339 0.929 . S
H308 C341 0.930 . S
H309 C342 0.930 . S
H310 C340 0.929 . S
H311 C343 0.928 . S
O312 Co296 2.057 . S
O312 C300 1.232 . S
H313 C332 0.929 . S
H314 C333 0.929 . S
H315 C345 0.931 . S
H316 C337 0.929 . S
H317 C346 0.930 . S
H318 C338 0.931 . S
O319 Co295 2.097 . S
O319 C347 1.214 . S
H320 C348 0.929 . S
H321 C349 0.929 . S
H322 C350 0.930 . S
H323 C351 0.929 . S
H324 C353 0.930 . S
H325 C330 0.930 . S
H326 C334 0.930 . S
O327 Co296 2.037 . S
O327 C347 1.234 . S
C328 O302 1.269 . S
C328 O303 1.257 . S
C329 H304 0.930 . S
C329 C332 1.388 . S
C329 C334 1.418 . S
C330 H325 0.930 . S
C330 C333 1.404 . S
C330 C334 1.353 . S
N331 Co296 2.145 . S
N331 C332 1.397 . S
N331 C333 1.334 . S
C332 H313 0.929 . S
C332 C329 1.388 . S
C332 N331 1.397 . S
C333 H314 0.929 . S
C333 C330 1.404 . S
C333 N331 1.334 . S
C334 H326 0.930 . S
C334 C329 1.418 . S
C334 C330 1.353 . S
C335 H305 0.930 . S
C335 N336 1.330 . S
C335 C337 1.446 . S
N336 Co295 2.151 . S
N336 C335 1.330 . S
N336 C340 1.418 . S
C337 H316 0.929 . S
C337 C335 1.446 . S
C337 C338 1.332 . S
C338 H318 0.931 . S
C338 C337 1.332 . S
C338 C339 1.267 . S
C339 H307 0.929 . S
C339 C338 1.267 . S
C339 C340 1.251 . S
C340 H310 0.929 . S
C340 N336 1.418 . S
C340 C339 1.251 . S
C341 H308 0.930 . S
C341 C343 1.406 . S
C341 C346 1.261 1_545 S
C342 H309 0.930 . S
C342 N344 1.325 . S
C342 C345 1.357 1_545 S
C343 H311 0.928 . S
C343 C341 1.406 . S
C343 N344 1.261 . S
N344 Co295 2.214 . S
N344 C342 1.325 . S
N344 C343 1.261 . S
C345 H315 0.931 . S
C345 C342 1.357 1_565 S
C345 C346 1.312 . S
C346 H317 0.930 . S
C346 C341 1.261 1_565 S
C346 C345 1.312 . S
C347 O319 1.214 . S
C347 O327 1.234 . S
C348 H320 0.929 . S
C348 C351 1.391 . S
C348 C353 1.391 . S
C349 H321 0.929 . S
C349 C350 1.390 . S
C349 N352 1.391 . S
C350 H322 0.930 . S
C350 C349 1.390 . S
C350 C351 1.392 . S
C351 H323 0.929 . S
C351 C348 1.391 . S
C351 C350 1.392 . S
N352 Co296 2.257 . S
N352 C349 1.391 . S
N352 C353 1.388 . S
C353 H324 0.930 . S
C353 C348 1.391 . S
C353 N352 1.388 . S
Co354 O356 2.143 . S
Co354 O362 2.074 . S
Co354 O365 2.093 . S
Co354 O378 2.097 . S
Co354 N395 2.151 . S
Co354 N403 2.214 . S
Co355 O356 2.160 . S
Co355 O361 2.058 . S
Co355 O371 2.057 . S
Co355 O386 2.037 . S
Co355 N390 2.145 . S
Co355 N411 2.257 . S
O356 Co354 2.143 . S
O356 Co355 2.160 . S
C357 O358 1.278 . S
C357 O365 1.224 . S
O358 C357 1.278 . S
C359 O360 1.245 . S
C359 O371 1.232 . S
O360 C359 1.245 . S
O361 Co355 2.058 . S
O361 C387 1.269 . S
O362 Co354 2.074 . S
O362 C387 1.257 . S
H363 C388 0.930 . S
H364 C394 0.930 . S
O365 Co354 2.093 . S
O365 C357 1.224 . S
H366 C398 0.929 . S
H367 C400 0.930 . S
H368 C401 0.930 . S
H369 C399 0.929 . S
H370 C402 0.928 . S
O371 Co355 2.057 . S
O371 C359 1.232 . S
H372 C391 0.929 . S
H373 C392 0.929 . S
H374 C404 0.931 . S
H375 C396 0.929 . S
H376 C405 0.930 . S
H377 C397 0.931 . S
O378 Co354 2.097 . S
O378 C406 1.214 . S
H379 C407 0.929 . S
H380 C408 0.929 . S
H381 C409 0.930 . S
H382 C410 0.929 . S
H383 C412 0.930 . S
H384 C389 0.930 . S
H385 C393 0.930 . S
O386 Co355 2.037 . S
O386 C406 1.234 . S
C387 O361 1.269 . S
C387 O362 1.257 . S
C388 H363 0.930 . S
C388 C391 1.388 . S
C388 C393 1.418 . S
C389 H384 0.930 . S
C389 C392 1.404 . S
C389 C393 1.353 . S
N390 Co355 2.145 . S
N390 C391 1.397 . S
N390 C392 1.334 . S
C391 H372 0.929 . S
C391 C388 1.388 . S
C391 N390 1.397 . S
C392 H373 0.929 . S
C392 C389 1.404 . S
C392 N390 1.334 . S
C393 H385 0.930 . S
C393 C388 1.418 . S
C393 C389 1.353 . S
C394 H364 0.930 . S
C394 N395 1.330 . S
C394 C396 1.446 . S
N395 Co354 2.151 . S
N395 C394 1.330 . S
N395 C399 1.418 . S
C396 H375 0.929 . S
C396 C394 1.446 . S
C396 C397 1.332 . S
C397 H377 0.931 . S
C397 C396 1.332 . S
C397 C398 1.267 . S
C398 H366 0.929 . S
C398 C397 1.267 . S
C398 C399 1.251 . S
C399 H369 0.929 . S
C399 N395 1.418 . S
C399 C398 1.251 . S
C400 H367 0.930 . S
C400 C402 1.406 . S
C400 C405 1.261 . S
C401 H368 0.930 . S
C401 N403 1.325 . S
C401 C404 1.357 . S
C402 H370 0.928 . S
C402 C400 1.406 . S
C402 N403 1.261 . S
N403 Co354 2.214 . S
N403 C401 1.325 . S
N403 C402 1.261 . S
C404 H374 0.931 . S
C404 C401 1.357 . S
C404 C405 1.312 . S
C405 H376 0.930 . S
C405 C400 1.261 . S
C405 C404 1.312 . S
C406 O378 1.214 . S
C406 O386 1.234 . S
C407 H379 0.929 . S
C407 C410 1.391 . S
C407 C412 1.391 . S
C408 H380 0.929 . S
C408 C409 1.390 . S
C408 N411 1.391 . S
C409 H381 0.930 . S
C409 C408 1.390 . S
C409 C410 1.392 . S
C410 H382 0.929 . S
C410 C407 1.391 . S
C410 C409 1.392 . S
N411 Co355 2.257 . S
N411 C408 1.391 . S
N411 C412 1.388 . S
C412 H383 0.930 . S
C412 C407 1.391 . S
C412 N411 1.388 . S
Co413 O415 2.143 . S
Co413 O421 2.074 . S
Co413 O424 2.093 . S
Co413 O437 2.097 . S
Co413 N454 2.151 . S
Co413 N462 2.214 . S
Co414 O415 2.160 . S
Co414 O420 2.058 . S
Co414 O430 2.057 . S
Co414 O445 2.037 . S
Co414 N449 2.145 . S
Co414 N470 2.257 . S
O415 Co413 2.143 . S
O415 Co414 2.160 . S
C416 O417 1.278 . S
C416 O424 1.224 . S
O417 C416 1.278 . S
C418 O419 1.245 . S
C418 O430 1.232 . S
O419 C418 1.245 . S
O420 Co414 2.058 . S
O420 C446 1.269 . S
O421 Co413 2.074 . S
O421 C446 1.257 . S
H422 C447 0.930 . S
H423 C453 0.930 . S
O424 Co413 2.093 . S
O424 C416 1.224 . S
H425 C457 0.929 . S
H426 C459 0.930 . S
H427 C460 0.930 . S
H428 C458 0.929 . S
H429 C461 0.928 . S
O430 Co414 2.057 . S
O430 C418 1.232 . S
H431 C450 0.929 . S
H432 C451 0.929 . S
H433 C463 0.931 . S
H434 C455 0.929 . S
H435 C464 0.930 . S
H436 C456 0.931 . S
O437 Co413 2.097 . S
O437 C465 1.214 . S
H438 C466 0.929 . S
H439 C467 0.929 . S
H440 C468 0.930 . S
H441 C469 0.929 . S
H442 C471 0.930 . S
H443 C448 0.930 . S
H444 C452 0.930 . S
O445 Co414 2.037 . S
O445 C465 1.234 . S
C446 O420 1.269 . S
C446 O421 1.257 . S
C447 H422 0.930 . S
C447 C450 1.388 . S
C447 C452 1.418 . S
C448 H443 0.930 . S
C448 C451 1.404 . S
C448 C452 1.353 . S
N449 Co414 2.145 . S
N449 C450 1.397 . S
N449 C451 1.334 . S
C450 H431 0.929 . S
C450 C447 1.388 . S
C450 N449 1.397 . S
C451 H432 0.929 . S
C451 C448 1.404 . S
C451 N449 1.334 . S
C452 H444 0.930 . S
C452 C447 1.418 . S
C452 C448 1.353 . S
C453 H423 0.930 . S
C453 N454 1.330 . S
C453 C455 1.446 . S
N454 Co413 2.151 . S
N454 C453 1.330 . S
N454 C458 1.418 . S
C455 H434 0.929 . S
C455 C453 1.446 . S
C455 C456 1.332 . S
C456 H436 0.931 . S
C456 C455 1.332 . S
C456 C457 1.267 . S
C457 H425 0.929 . S
C457 C456 1.267 . S
C457 C458 1.251 . S
C458 H428 0.929 . S
C458 N454 1.418 . S
C458 C457 1.251 . S
C459 H426 0.930 . S
C459 C461 1.406 . S
C459 C464 1.261 1_565 S
C460 H427 0.930 . S
C460 N462 1.325 . S
C460 C463 1.357 1_565 S
C461 H429 0.928 . S
C461 C459 1.406 . S
C461 N462 1.261 . S
N462 Co413 2.214 . S
N462 C460 1.325 . S
N462 C461 1.261 . S
C463 H433 0.931 . S
C463 C460 1.357 1_545 S
C463 C464 1.312 . S
C464 H435 0.930 . S
C464 C459 1.261 1_545 S
C464 C463 1.312 . S
C465 O437 1.214 . S
C465 O445 1.234 . S
C466 H438 0.929 . S
C466 C469 1.391 . S
C466 C471 1.391 . S
C467 H439 0.929 . S
C467 C468 1.390 . S
C467 N470 1.391 . S
C468 H440 0.930 . S
C468 C467 1.390 . S
C468 C469 1.392 . S
C469 H441 0.929 . S
C469 C466 1.391 . S
C469 C468 1.392 . S
N470 Co414 2.257 . S
N470 C467 1.391 . S
N470 C471 1.388 . S
C471 H442 0.930 . S
C471 C466 1.391 . S
C471 N470 1.388 . S
H472 C480 0.929 . S
H473 C482 0.930 . S
H474 C484 0.930 . S
H475 C487 0.929 . S
H476 C490 0.930 . S
H477 C492 0.960 . S
H478 C492 0.960 . S
H479 C492 0.960 . S
C480 H472 0.929 . S
C480 C481 1.377 . S
C480 C482 1.384 . S
C481 C480 1.377 . S
C481 C487 1.390 . S
C482 H473 0.930 . S
C482 C480 1.384 . S
C482 C483 1.372 . S
C483 C482 1.372 . S
C483 C484 1.400 . S
C483 C488 1.490 . S
C484 H474 0.930 . S
C484 C483 1.400 . S
C484 C487 1.386 . S
H485 C501 0.930 . S
H486 C502 0.931 . S
C487 H475 0.929 . S
C487 C481 1.390 . S
C487 C484 1.386 . S
C488 C483 1.490 . S
C488 C490 1.395 . S
C488 C491 1.403 . S
H489 C495 0.930 . S
C490 H476 0.930 . S
C490 C488 1.395 . S
C490 C493 1.403 1_445 S
C491 C488 1.403 . S
C491 C492 1.524 . S
C491 C495 1.400 1_445 S
C492 H477 0.960 . S
C492 H478 0.960 . S
C492 H479 0.960 . S
C492 C491 1.524 . S
C493 C490 1.403 1_665 S
C493 C494 1.392 . S
C493 C497 1.495 . S
C494 C493 1.392 . S
C494 C495 1.385 . S
C494 C496 1.478 . S
C495 H489 0.930 . S
C495 C491 1.400 1_665 S
C495 C494 1.385 . S
C496 C494 1.478 . S
C496 C498 1.381 . S
C496 C502 1.383 . S
C497 C493 1.495 . S
C497 H503 0.959 . S
C497 H504 0.961 . S
C497 H505 0.960 . S
C498 C496 1.381 . S
C498 C499 1.394 . S
C498 H506 0.930 . S
C499 C498 1.394 . S
C499 C500 1.383 . S
C499 H507 0.929 . S
C500 C499 1.383 . S
C500 C501 1.377 . S
C501 H485 0.930 . S
C501 C500 1.377 . S
C501 C502 1.379 . S
C502 H486 0.931 . S
C502 C496 1.383 . S
C502 C501 1.379 . S
H503 C497 0.959 . S
H504 C497 0.961 . S
H505 C497 0.960 . S
H506 C498 0.930 . S
H507 C499 0.929 . S
H508 C516 0.929 . S
H509 C518 0.930 . S
H510 C520 0.930 . S
H511 C523 0.929 . S
H512 C526 0.930 . S
H513 C528 0.960 . S
H514 C528 0.960 . S
H515 C528 0.960 . S
C516 H508 0.929 . S
C516 C517 1.377 . S
C516 C518 1.384 . S
C517 C516 1.377 . S
C517 C523 1.390 . S
C518 H509 0.930 . S
C518 C516 1.384 . S
C518 C519 1.372 . S
C519 C518 1.372 . S
C519 C520 1.400 . S
C519 C524 1.490 . S
C520 H510 0.930 . S
C520 C519 1.400 . S
C520 C523 1.386 . S
H521 C537 0.930 . S
H522 C538 0.931 . S
C523 H511 0.929 . S
C523 C517 1.390 . S
C523 C520 1.386 . S
C524 C519 1.490 . S
C524 C526 1.395 . S
C524 C527 1.403 . S
H525 C531 0.930 . S
C526 H512 0.930 . S
C526 C524 1.395 . S
C526 C529 1.403 . S
C527 C524 1.403 . S
C527 C528 1.524 . S
C527 C531 1.400 . S
C528 H513 0.960 . S
C528 H514 0.960 . S
C528 H515 0.960 . S
C528 C527 1.524 . S
C529 C526 1.403 . S
C529 C530 1.392 . S
C529 C533 1.495 . S
C530 C529 1.392 . S
C530 C531 1.385 . S
C530 C532 1.478 . S
C531 H525 0.930 . S
C531 C527 1.400 . S
C531 C530 1.385 . S
C532 C530 1.478 . S
C532 C534 1.381 . S
C532 C538 1.383 . S
C533 C529 1.495 . S
C533 H539 0.959 . S
C533 H540 0.961 . S
C533 H541 0.960 . S
C534 C532 1.381 . S
C534 C535 1.394 . S
C534 H542 0.930 . S
C535 C534 1.394 . S
C535 C536 1.383 . S
C535 H543 0.929 . S
C536 C535 1.383 . S
C536 C537 1.377 . S
C537 H521 0.930 . S
C537 C536 1.377 . S
C537 C538 1.379 . S
C538 H522 0.931 . S
C538 C532 1.383 . S
C538 C537 1.379 . S
H539 C533 0.959 . S
H540 C533 0.961 . S
H541 C533 0.960 . S
H542 C534 0.930 . S
H543 C535 0.929 . S
H544 C552 0.929 . S
H545 C554 0.930 . S
H546 C556 0.930 . S
H547 C559 0.929 . S
H548 C562 0.930 . S
H549 C564 0.960 . S
H550 C564 0.960 . S
H551 C564 0.960 . S
C552 H544 0.929 . S
C552 C553 1.377 . S
C552 C554 1.384 . S
C553 C552 1.377 . S
C553 C559 1.390 . S
C554 H545 0.930 . S
C554 C552 1.384 . S
C554 C555 1.372 . S
C555 C554 1.372 . S
C555 C556 1.400 . S
C555 C560 1.490 . S
C556 H546 0.930 . S
C556 C555 1.400 . S
C556 C559 1.386 . S
H557 C573 0.930 . S
H558 C574 0.931 . S
C559 H547 0.929 . S
C559 C553 1.390 . S
C559 C556 1.386 . S
C560 C555 1.490 . S
C560 C562 1.395 . S
C560 C563 1.403 . S
H561 C567 0.930 . S
C562 H548 0.930 . S
C562 C560 1.395 . S
C562 C565 1.403 . S
C563 C560 1.403 . S
C563 C564 1.524 . S
C563 C567 1.400 . S
C564 H549 0.960 . S
C564 H550 0.960 . S
C564 H551 0.960 . S
C564 C563 1.524 . S
C565 C562 1.403 . S
C565 C566 1.392 . S
C565 C569 1.495 . S
C566 C565 1.392 . S
C566 C567 1.385 . S
C566 C568 1.478 . S
C567 H561 0.930 . S
C567 C563 1.400 . S
C567 C566 1.385 . S
C568 C566 1.478 . S
C568 C570 1.381 . S
C568 C574 1.383 . S
C569 C565 1.495 . S
C569 H575 0.959 . S
C569 H576 0.961 . S
C569 H577 0.960 . S
C570 C568 1.381 . S
C570 C571 1.394 . S
C570 H578 0.930 . S
C571 C570 1.394 . S
C571 C572 1.383 . S
C571 H579 0.929 . S
C572 C571 1.383 . S
C572 C573 1.377 . S
C573 H557 0.930 . S
C573 C572 1.377 . S
C573 C574 1.379 . S
C574 H558 0.931 . S
C574 C568 1.383 . S
C574 C573 1.379 . S
H575 C569 0.959 . S
H576 C569 0.961 . S
H577 C569 0.960 . S
H578 C570 0.930 . S
H579 C571 0.929 . S
H580 C588 0.929 . S
H581 C590 0.930 . S
H582 C592 0.930 . S
H583 C595 0.929 . S
H584 C598 0.930 . S
H585 C600 0.960 . S
H586 C600 0.960 . S
H587 C600 0.955 1_455 S
C588 H580 0.929 . S
C588 C589 1.377 . S
C588 C590 1.384 . S
C589 C588 1.377 . S
C589 C595 1.390 . S
C590 H581 0.930 . S
C590 C588 1.384 . S
C590 C591 1.372 . S
C591 C590 1.372 . S
C591 C592 1.400 . S
C591 C596 1.490 . S
C592 H582 0.930 . S
C592 C591 1.400 . S
C592 C595 1.386 . S
H593 C609 0.930 . S
H594 C610 0.931 . S
C595 H583 0.929 . S
C595 C589 1.390 . S
C595 C592 1.386 . S
C596 C591 1.490 . S
C596 C598 1.395 1_545 S
C596 C599 1.403 1_455 S
H597 C603 0.930 . S
C598 H584 0.930 . S
C598 C596 1.395 1_565 S
C598 C601 1.403 . S
C599 C596 1.403 1_655 S
C599 C600 1.524 . S
C599 C603 1.400 . S
C600 H585 0.960 . S
C600 H586 0.960 . S
C600 H587 0.955 1_655 S
C600 C599 1.524 . S
C601 C598 1.403 . S
C601 C602 1.392 1_455 S
C601 C605 1.495 . S
C602 C601 1.392 1_655 S
C602 C603 1.385 1_565 S
C602 C604 1.478 . S
C603 H597 0.930 . S
C603 C599 1.400 . S
C603 C602 1.385 1_545 S
C604 C602 1.478 . S
C604 C606 1.381 . S
C604 C610 1.383 . S
C605 C601 1.495 . S
C605 H611 0.959 . S
C605 H612 0.961 . S
C605 H613 0.960 . S
C606 C604 1.381 . S
C606 C607 1.394 . S
C606 H614 0.930 . S
C607 C606 1.394 . S
C607 C608 1.383 . S
C607 H615 0.929 . S
C608 C607 1.383 . S
C608 C609 1.377 . S
C609 H593 0.930 . S
C609 C608 1.377 . S
C609 C610 1.379 . S
C610 H594 0.931 . S
C610 C604 1.383 . S
C610 C609 1.379 . S
H611 C605 0.959 . S
H612 C605 0.961 . S
H613 C605 0.960 . S
H614 C606 0.930 . S
H615 C607 0.929 . S
H616 C624 0.929 . S
H617 C626 0.930 . S
H618 C628 0.930 . S
H619 C631 0.929 . S
H620 C634 0.930 . S
H621 C636 0.960 . S
H622 C636 0.960 . S
H623 C636 0.960 . S
C624 H616 0.929 . S
C624 C625 1.377 . S
C624 C626 1.384 . S
C625 C624 1.377 . S
C625 C631 1.390 . S
C626 H617 0.930 . S
C626 C624 1.384 . S
C626 C627 1.372 . S
C627 C626 1.372 . S
C627 C628 1.400 . S
C627 C632 1.490 . S
C628 H618 0.930 . S
C628 C627 1.400 . S
C628 C631 1.386 . S
H629 C645 0.930 . S
H630 C646 0.931 . S
C631 H619 0.929 . S
C631 C625 1.390 . S
C631 C628 1.386 . S
C632 C627 1.490 . S
C632 C634 1.395 . S
C632 C635 1.403 . S
H633 C639 0.930 . S
C634 H620 0.930 . S
C634 C632 1.395 . S
C634 C637 1.403 . S
C635 C632 1.403 . S
C635 C636 1.524 . S
C635 C639 1.400 . S
C636 H621 0.960 . S
C636 H622 0.960 . S
C636 H623 0.960 . S
C636 C635 1.524 . S
C637 C634 1.403 . S
C637 C638 1.392 . S
C637 C641 1.495 . S
C638 C637 1.392 . S
C638 C639 1.385 . S
C638 C640 1.478 . S
C639 H633 0.930 . S
C639 C635 1.400 . S
C639 C638 1.385 . S
C640 C638 1.478 . S
C640 C642 1.381 . S
C640 C646 1.383 . S
C641 C637 1.495 . S
C641 H647 0.959 . S
C641 H648 0.961 . S
C641 H649 0.960 . S
C642 C640 1.381 . S
C642 C643 1.394 . S
C642 H650 0.930 . S
C643 C642 1.394 . S
C643 C644 1.383 . S
C643 H651 0.929 . S
C644 C643 1.383 . S
C644 C645 1.377 . S
C645 H629 0.930 . S
C645 C644 1.377 . S
C645 C646 1.379 . S
C646 H630 0.931 . S
C646 C640 1.383 . S
C646 C645 1.379 . S
H647 C641 0.959 . S
H648 C641 0.961 . S
H649 C641 0.960 . S
H650 C642 0.930 . S
H651 C643 0.929 . S
H652 C660 0.929 . S
H653 C662 0.930 . S
H654 C664 0.930 . S
H655 C667 0.929 . S
H656 C670 0.930 . S
H657 C672 0.960 . S
H658 C672 0.960 . S
H659 C672 0.960 . S
C660 H652 0.929 . S
C660 C661 1.377 . S
C660 C662 1.384 . S
C661 C660 1.377 . S
C661 C667 1.390 . S
C662 H653 0.930 . S
C662 C660 1.384 . S
C662 C663 1.372 . S
C663 C662 1.372 . S
C663 C664 1.400 . S
C663 C668 1.490 . S
C664 H654 0.930 . S
C664 C663 1.400 . S
C664 C667 1.386 . S
H665 C681 0.930 . S
H666 C682 0.931 . S
C667 H655 0.929 . S
C667 C661 1.390 . S
C667 C664 1.386 . S
C668 C663 1.490 . S
C668 C670 1.395 . S
C668 C671 1.403 . S
H669 C675 0.930 . S
C670 H656 0.930 . S
C670 C668 1.395 . S
C670 C673 1.403 1_556 S
C671 C668 1.403 . S
C671 C672 1.524 . S
C671 C675 1.400 1_556 S
C672 H657 0.960 . S
C672 H658 0.960 . S
C672 H659 0.960 . S
C672 C671 1.524 . S
C673 C670 1.403 1_554 S
C673 C674 1.392 . S
C673 C677 1.495 . S
C674 C673 1.392 . S
C674 C675 1.385 . S
C674 C676 1.478 . S
C675 H669 0.930 . S
C675 C671 1.400 1_554 S
C675 C674 1.385 . S
C676 C674 1.478 . S
C676 C678 1.381 . S
C676 C682 1.383 . S
C677 C673 1.495 . S
C677 H683 0.959 . S
C677 H684 0.961 . S
C677 H685 0.960 . S
C678 C676 1.381 . S
C678 C679 1.394 . S
C678 H686 0.930 . S
C679 C678 1.394 . S
C679 C680 1.383 . S
C679 H687 0.929 . S
C680 C679 1.383 . S
C680 C681 1.377 . S
C681 H665 0.930 . S
C681 C680 1.377 . S
C681 C682 1.379 . S
C682 H666 0.931 . S
C682 C676 1.383 . S
C682 C681 1.379 . S
H683 C677 0.959 . S
H684 C677 0.961 . S
H685 C677 0.960 . S
H686 C678 0.930 . S
H687 C679 0.929 . S
H688 C696 0.929 . S
H689 C698 0.930 . S
H690 C700 0.930 . S
H691 C703 0.929 . S
H692 C706 0.930 . S
H693 C708 0.960 . S
H694 C708 0.960 . S
H695 C708 0.960 . S
C696 H688 0.929 . S
C696 C697 1.377 . S
C696 C698 1.384 . S
C697 C696 1.377 . S
C697 C703 1.390 . S
C698 H689 0.930 . S
C698 C696 1.384 . S
C698 C699 1.372 . S
C699 C698 1.372 . S
C699 C700 1.400 . S
C699 C704 1.490 . S
C700 H690 0.930 . S
C700 C699 1.400 . S
C700 C703 1.386 . S
H701 C717 0.930 . S
H702 C718 0.931 . S
C703 H691 0.929 . S
C703 C697 1.390 . S
C703 C700 1.386 . S
C704 C699 1.490 . S
C704 C706 1.395 . S
C704 C707 1.403 . S
H705 C711 0.930 . S
C706 H692 0.930 . S
C706 C704 1.395 . S
C706 C709 1.403 . S
C707 C704 1.403 . S
C707 C708 1.524 . S
C707 C711 1.400 . S
C708 H693 0.960 . S
C708 H694 0.960 . S
C708 H695 0.960 . S
C708 C707 1.524 . S
C709 C706 1.403 . S
C709 C710 1.392 . S
C709 C713 1.495 . S
C710 C709 1.392 . S
C710 C711 1.385 . S
C710 C712 1.478 . S
C711 H705 0.930 . S
C711 C707 1.400 . S
C711 C710 1.385 . S
C712 C710 1.478 . S
C712 C714 1.381 . S
C712 C718 1.383 . S
C713 C709 1.495 . S
C713 H719 0.959 . S
C713 H720 0.961 . S
C713 H721 0.960 . S
C714 C712 1.381 . S
C714 C715 1.394 . S
C714 H722 0.930 . S
C715 C714 1.394 . S
C715 C716 1.383 . S
C715 H723 0.929 . S
C716 C715 1.383 . S
C716 C717 1.377 . S
C717 H701 0.930 . S
C717 C716 1.377 . S
C717 C718 1.379 . S
C718 H702 0.931 . S
C718 C712 1.383 . S
C718 C717 1.379 . S
H719 C713 0.959 . S
H720 C713 0.961 . S
H721 C713 0.960 . S
H722 C714 0.930 . S
H723 C715 0.929 . S
H724 C732 0.929 . S
H725 C734 0.930 . S
H726 C736 0.930 . S
H727 C739 0.929 . S
H728 C742 0.930 . S
H729 C744 0.960 . S
H730 C744 0.960 . S
H731 C744 0.960 . S
C732 H724 0.929 . S
C732 C733 1.377 . S
C732 C734 1.384 . S
C733 C732 1.377 . S
C733 C739 1.390 . S
C734 H725 0.930 . S
C734 C732 1.384 . S
C734 C735 1.372 . S
C735 C734 1.372 . S
C735 C736 1.400 . S
C735 C740 1.490 . S
C736 H726 0.930 . S
C736 C735 1.400 . S
C736 C739 1.386 . S
H737 C753 0.930 . S
H738 C754 0.931 . S
C739 H727 0.929 . S
C739 C733 1.390 . S
C739 C736 1.386 . S
C740 C735 1.490 . S
C740 C742 1.395 . S
C740 C743 1.403 . S
H741 C747 0.930 . S
C742 H728 0.930 . S
C742 C740 1.395 . S
C742 C745 1.403 1_556 S
C743 C740 1.403 . S
C743 C744 1.524 . S
C743 C747 1.400 1_556 S
C744 H729 0.960 . S
C744 H730 0.960 . S
C744 H731 0.960 . S
C744 C743 1.524 . S
C745 C742 1.403 1_554 S
C745 C746 1.392 . S
C745 C749 1.495 . S
C746 C745 1.392 . S
C746 C747 1.385 . S
C746 C748 1.478 . S
C747 H741 0.930 . S
C747 C743 1.400 1_554 S
C747 C746 1.385 . S
C748 C746 1.478 . S
C748 C750 1.381 . S
C748 C754 1.383 . S
C749 C745 1.495 . S
C749 H755 0.959 . S
C749 H756 0.961 . S
C749 H757 0.960 . S
C750 C748 1.381 . S
C750 C751 1.394 . S
C750 H758 0.930 . S
C751 C750 1.394 . S
C751 C752 1.383 . S
C751 H759 0.929 . S
C752 C751 1.383 . S
C752 C753 1.377 . S
C753 H737 0.930 . S
C753 C752 1.377 . S
C753 C754 1.379 . S
C754 H738 0.931 . S
C754 C748 1.383 . S
C754 C753 1.379 . S
H755 C749 0.959 . S
H756 C749 0.961 . S
H757 C749 0.960 . S
H758 C750 0.930 . S
H759 C751 0.929 . S
H760 C768 0.929 . S
H761 C770 0.930 . S
H762 C772 0.930 . S
H763 C775 0.929 . S
H764 C778 0.930 . S
H765 C780 0.960 . S
H766 C780 0.960 . S
H767 C780 0.960 . S
C768 H760 0.929 . S
C768 C769 1.377 . S
C768 C770 1.384 . S
C769 C768 1.377 . S
C769 C775 1.390 . S
C770 H761 0.930 . S
C770 C768 1.384 . S
C770 C771 1.372 . S
C771 C770 1.372 . S
C771 C772 1.400 . S
C771 C776 1.490 . S
C772 H762 0.930 . S
C772 C771 1.400 . S
C772 C775 1.386 . S
H773 C789 0.930 . S
H774 C790 0.931 . S
C775 H763 0.929 . S
C775 C769 1.390 . S
C775 C772 1.386 . S
C776 C771 1.490 . S
C776 C778 1.395 . S
C776 C779 1.403 . S
H777 C783 0.930 . S
C778 H764 0.930 . S
C778 C776 1.395 . S
C778 C781 1.403 . S
C779 C776 1.403 . S
C779 C780 1.524 . S
C779 C783 1.400 . S
C780 H765 0.960 . S
C780 H766 0.960 . S
C780 H767 0.960 . S
C780 C779 1.524 . S
C781 C778 1.403 . S
C781 C782 1.392 . S
C781 C785 1.495 . S
C782 C781 1.392 . S
C782 C783 1.385 . S
C782 C784 1.478 . S
C783 H777 0.930 . S
C783 C779 1.400 . S
C783 C782 1.385 . S
C784 C782 1.478 . S
C784 C786 1.381 . S
C784 C790 1.383 . S
C785 C781 1.495 . S
C785 H791 0.959 . S
C785 H792 0.961 . S
C785 H793 0.960 . S
C786 C784 1.381 . S
C786 C787 1.394 . S
C786 H794 0.930 . S
C787 C786 1.394 . S
C787 C788 1.383 . S
C787 H795 0.929 . S
C788 C787 1.383 . S
C788 C789 1.377 . S
C789 H773 0.930 . S
C789 C788 1.377 . S
C789 C790 1.379 . S
C790 H774 0.931 . S
C790 C784 1.383 . S
C790 C789 1.379 . S
H791 C785 0.959 . S
H792 C785 0.961 . S
H793 C785 0.960 . S
H794 C786 0.930 . S
H795 C787 0.929 . S
H796 C804 0.929 . S
H797 C806 0.930 . S
H798 C808 0.930 . S
H799 C811 0.929 . S
H800 C814 0.930 . S
H801 C816 0.960 . S
H802 C816 0.960 . S
H803 C816 0.960 . S
C804 H796 0.929 . S
C804 C805 1.377 . S
C804 C806 1.384 . S
C805 C804 1.377 . S
C805 C811 1.390 . S
C806 H797 0.930 . S
C806 C804 1.384 . S
C806 C807 1.372 . S
C807 C806 1.372 . S
C807 C808 1.400 . S
C807 C812 1.490 . S
C808 H798 0.930 . S
C808 C807 1.400 . S
C808 C811 1.386 . S
H809 C825 0.930 . S
H810 C826 0.931 . S
C811 H799 0.929 . S
C811 C805 1.390 . S
C811 C808 1.386 . S
C812 C807 1.490 . S
C812 C814 1.395 . S
C812 C815 1.403 . S
H813 C819 0.930 . S
C814 H800 0.930 . S
C814 C812 1.395 . S
C814 C817 1.403 . S
C815 C812 1.403 . S
C815 C816 1.524 . S
C815 C819 1.400 . S
C816 H801 0.960 . S
C816 H802 0.960 . S
C816 H803 0.960 . S
C816 C815 1.524 . S
C817 C814 1.403 . S
C817 C818 1.392 . S
C817 C821 1.495 . S
C818 C817 1.392 . S
C818 C819 1.385 . S
C818 C820 1.478 . S
C819 H813 0.930 . S
C819 C815 1.400 . S
C819 C818 1.385 . S
C820 C818 1.478 . S
C820 C822 1.381 1_565 S
C820 C826 1.383 . S
C821 C817 1.495 . S
C821 H827 0.959 . S
C821 H828 0.961 . S
C821 H829 0.960 . S
C822 C820 1.381 1_545 S
C822 C823 1.394 . S
C822 H830 0.930 . S
C823 C822 1.394 . S
C823 C824 1.383 . S
C823 H831 0.929 . S
C824 C823 1.383 . S
C824 C825 1.377 . S
C825 H809 0.930 . S
C825 C824 1.377 . S
C825 C826 1.379 1_545 S
C826 H810 0.931 . S
C826 C820 1.383 . S
C826 C825 1.379 1_565 S
H827 C821 0.959 . S
H828 C821 0.961 . S
H829 C821 0.960 . S
H830 C822 0.930 . S
H831 C823 0.929 . S
H832 C840 0.929 . S
H833 C842 0.930 . S
H834 C844 0.930 . S
H835 C847 0.929 . S
H836 C850 0.930 . S
H837 C852 0.960 . S
H838 C852 0.960 . S
H839 C852 0.960 . S
C840 H832 0.929 . S
C840 C841 1.377 . S
C840 C842 1.384 . S
C841 C840 1.377 . S
C841 C847 1.390 . S
C842 H833 0.930 . S
C842 C840 1.384 . S
C842 C843 1.372 . S
C843 C842 1.372 . S
C843 C844 1.400 . S
C843 C848 1.490 . S
C844 H834 0.930 . S
C844 C843 1.400 . S
C844 C847 1.386 . S
H845 C861 0.930 . S
H846 C862 0.931 . S
C847 H835 0.929 . S
C847 C841 1.390 . S
C847 C844 1.386 . S
C848 C843 1.490 . S
C848 C850 1.395 . S
C848 C851 1.403 . S
H849 C855 0.930 . S
C850 H836 0.930 . S
C850 C848 1.395 . S
C850 C853 1.403 . S
C851 C848 1.403 . S
C851 C852 1.524 . S
C851 C855 1.400 . S
C852 H837 0.960 . S
C852 H838 0.960 . S
C852 H839 0.960 . S
C852 C851 1.524 . S
C853 C850 1.403 . S
C853 C854 1.392 . S
C853 C857 1.495 . S
C854 C853 1.392 . S
C854 C855 1.385 . S
C854 C856 1.478 . S
C855 H849 0.930 . S
C855 C851 1.400 . S
C855 C854 1.385 . S
C856 C854 1.478 . S
C856 C858 1.381 . S
C856 C862 1.383 . S
C857 C853 1.495 . S
C857 H863 0.959 . S
C857 H864 0.961 . S
C857 H865 0.960 . S
C858 C856 1.381 . S
C858 C859 1.394 . S
C858 H866 0.930 . S
C859 C858 1.394 . S
C859 C860 1.383 . S
C859 H867 0.929 . S
C860 C859 1.383 . S
C860 C861 1.377 . S
C861 H845 0.930 . S
C861 C860 1.377 . S
C861 C862 1.379 . S
C862 H846 0.931 . S
C862 C856 1.383 . S
C862 C861 1.379 . S
H863 C857 0.959 . S
H864 C857 0.961 . S
H865 C857 0.960 . S
H866 C858 0.930 . S
H867 C859 0.929 . S
H868 C876 0.929 . S
H869 C878 0.930 . S
H870 C880 0.930 . S
H871 C883 0.929 . S
H872 C886 0.930 . S
H873 C888 0.960 . S
H874 C888 0.960 . S
H875 C888 0.960 . S
C876 H868 0.929 . S
C876 C877 1.377 . S
C876 C878 1.384 . S
C877 C876 1.377 . S
C877 C883 1.390 . S
C878 H869 0.930 . S
C878 C876 1.384 . S
C878 C879 1.372 . S
C879 C878 1.372 . S
C879 C880 1.400 . S
C879 C884 1.490 . S
C880 H870 0.930 . S
C880 C879 1.400 . S
C880 C883 1.386 . S
H881 C897 0.930 . S
H882 C898 0.931 . S
C883 H871 0.929 . S
C883 C877 1.390 . S
C883 C880 1.386 . S
C884 C879 1.490 . S
C884 C886 1.395 . S
C884 C887 1.403 . S
H885 C891 0.930 . S
C886 H872 0.930 . S
C886 C884 1.395 . S
C886 C889 1.403 . S
C887 C884 1.403 . S
C887 C888 1.524 . S
C887 C891 1.400 . S
C888 H873 0.960 . S
C888 H874 0.960 . S
C888 H875 0.960 . S
C888 C887 1.524 . S
C889 C886 1.403 . S
C889 C890 1.392 . S
C889 C893 1.495 . S
C890 C889 1.392 . S
C890 C891 1.385 . S
C890 C892 1.478 . S
C891 H885 0.930 . S
C891 C887 1.400 . S
C891 C890 1.385 . S
C892 C890 1.478 . S
C892 C894 1.381 1_545 S
C892 C898 1.383 1_545 S
C893 C889 1.495 . S
C893 H899 0.959 . S
C893 H900 0.961 1_545 S
C893 H901 0.960 1_545 S
C894 C892 1.381 1_565 S
C894 C895 1.394 . S
C894 H902 0.930 . S
C895 C894 1.394 . S
C895 C896 1.383 . S
C895 H903 0.929 . S
C896 C895 1.383 . S
C896 C897 1.377 . S
C897 H881 0.930 . S
C897 C896 1.377 . S
C897 C898 1.379 . S
C898 H882 0.931 . S
C898 C892 1.383 1_565 S
C898 C897 1.379 . S
H899 C893 0.959 . S
H900 C893 0.961 1_565 S
H901 C893 0.960 1_565 S
H902 C894 0.930 . S
H903 C895 0.929 . S
H904 C912 0.929 . S
H905 C914 0.930 . S
H906 C916 0.930 . S
H907 C919 0.929 . S
H908 C922 0.930 . S
H909 C924 0.960 . S
H910 C924 0.960 . S
H911 C924 0.960 . S
C912 H904 0.929 . S
C912 C913 1.377 . S
C912 C914 1.384 . S
C913 C912 1.377 . S
C913 C919 1.390 . S
C914 H905 0.930 . S
C914 C912 1.384 . S
C914 C915 1.372 1_455 S
C915 C914 1.372 1_655 S
C915 C916 1.400 . S
C915 C920 1.490 . S
C916 H906 0.930 . S
C916 C915 1.400 . S
C916 C919 1.386 1_655 S
H917 C933 0.930 . S
H918 C934 0.931 . S
C919 H907 0.929 . S
C919 C913 1.390 . S
C919 C916 1.386 1_455 S
C920 C915 1.490 . S
C920 C922 1.395 . S
C920 C923 1.403 . S
H921 C927 0.930 . S
C922 H908 0.930 . S
C922 C920 1.395 . S
C922 C925 1.403 . S
C923 C920 1.403 . S
C923 C924 1.524 . S
C923 C927 1.400 . S
C924 H909 0.960 . S
C924 H910 0.960 . S
C924 H911 0.960 . S
C924 C923 1.524 . S
C925 C922 1.403 . S
C925 C926 1.392 . S
C925 C929 1.495 . S
C926 C925 1.392 . S
C926 C927 1.385 . S
C926 C928 1.478 . S
C927 H921 0.930 . S
C927 C923 1.400 . S
C927 C926 1.385 . S
C928 C926 1.478 . S
C928 C930 1.381 . S
C928 C934 1.383 . S
C929 C925 1.495 . S
C929 H935 0.959 . S
C929 H936 0.961 . S
C929 H937 0.960 . S
C930 C928 1.381 . S
C930 C931 1.394 . S
C930 H938 0.930 . S
C931 C930 1.394 . S
C931 C932 1.383 . S
C931 H939 0.929 . S
C932 C931 1.383 . S
C932 C933 1.377 . S
C933 H917 0.930 . S
C933 C932 1.377 . S
C933 C934 1.379 . S
C934 H918 0.931 . S
C934 C928 1.383 . S
C934 C933 1.379 . S
H935 C929 0.959 . S
H936 C929 0.961 . S
H937 C929 0.960 . S
H938 C930 0.930 . S
H939 C931 0.929 . S
H940 C948 0.929 . S
H941 C950 0.930 . S
H942 C952 0.930 . S
H943 C955 0.929 . S
H944 C958 0.930 . S
H945 C960 0.960 . S
H946 C960 0.960 . S
H947 C960 0.960 . S
C948 H940 0.929 . S
C948 C949 1.377 . S
C948 C950 1.384 . S
C949 C948 1.377 . S
C949 C955 1.390 . S
C950 H941 0.930 . S
C950 C948 1.384 . S
C950 C951 1.372 . S
C951 C950 1.372 . S
C951 C952 1.400 . S
C951 C956 1.490 . S
C952 H942 0.930 . S
C952 C951 1.400 . S
C952 C955 1.386 . S
H953 C969 0.930 . S
H954 C970 0.931 . S
C955 H943 0.929 . S
C955 C949 1.390 . S
C955 C952 1.386 . S
C956 C951 1.490 . S
C956 C958 1.395 . S
C956 C959 1.403 . S
H957 C963 0.930 . S
C958 H944 0.930 . S
C958 C956 1.395 . S
C958 C961 1.403 . S
C959 C956 1.403 . S
C959 C960 1.524 . S
C959 C963 1.400 . S
C960 H945 0.960 . S
C960 H946 0.960 . S
C960 H947 0.960 . S
C960 C959 1.524 . S
C961 C958 1.403 . S
C961 C962 1.392 . S
C961 C965 1.495 . S
C962 C961 1.392 . S
C962 C963 1.385 . S
C962 C964 1.478 . S
C963 H957 0.930 . S
C963 C959 1.400 . S
C963 C962 1.385 . S
C964 C962 1.478 . S
C964 C966 1.381 . S
C964 C970 1.383 . S
C965 C961 1.495 . S
C965 H971 0.959 . S
C965 H972 0.961 . S
C965 H973 0.960 . S
C966 C964 1.381 . S
C966 C967 1.394 . S
C966 H974 0.930 . S
C967 C966 1.394 . S
C967 C968 1.383 . S
C967 H975 0.929 . S
C968 C967 1.383 . S
C968 C969 1.377 . S
C969 H953 0.930 . S
C969 C968 1.377 . S
C969 C970 1.379 . S
C970 H954 0.931 . S
C970 C964 1.383 . S
C970 C969 1.379 . S
H971 C965 0.959 . S
H972 C965 0.961 . S
H973 C965 0.960 . S
H974 C966 0.930 . S
H975 C967 0.929 . S
H976 C984 0.929 . S
H977 C986 0.930 . S
H978 C988 0.930 . S
H979 C991 0.929 . S
H980 C994 0.930 . S
H981 C996 0.960 . S
H982 C996 0.960 . S
H983 C996 0.960 . S
C984 H976 0.929 . S
C984 C985 1.377 . S
C984 C986 1.384 . S
C985 C984 1.377 . S
C985 C991 1.390 . S
C986 H977 0.930 . S
C986 C984 1.384 . S
C986 C987 1.372 . S
C987 C986 1.372 . S
C987 C988 1.400 . S
C987 C992 1.490 . S
C988 H978 0.930 . S
C988 C987 1.400 . S
C988 C991 1.386 . S
H989 C1005 0.930 . S
H990 C1006 0.931 1_455 S
C991 H979 0.929 . S
C991 C985 1.390 . S
C991 C988 1.386 . S
C992 C987 1.490 . S
C992 C994 1.395 . S
C992 C995 1.403 . S
H993 C999 0.930 . S
C994 H980 0.930 . S
C994 C992 1.395 . S
C994 C997 1.403 . S
C995 C992 1.403 . S
C995 C996 1.524 . S
C995 C999 1.400 . S
C996 H981 0.960 . S
C996 H982 0.960 . S
C996 H983 0.960 . S
C996 C995 1.524 . S
C997 C994 1.403 . S
C997 C998 1.392 . S
C997 C1001 1.506 . S
C998 C997 1.392 . S
C998 C999 1.385 . S
C998 C1000 1.478 . S
C999 H993 0.930 . S
C999 C995 1.400 . S
C999 C998 1.385 . S
C1000 C998 1.478 . S
C1000 C1002 1.381 1_455 S
C1000 C1006 1.383 1_455 S
C1001 C997 1.506 . S
C1001 H1007 0.962 . S
C1001 H1008 0.955 1_455 S
C1001 H1009 0.953 1_455 S
C1002 C1000 1.381 1_655 S
C1002 C1003 1.394 . S
C1002 H1010 0.930 . S
C1003 C1002 1.394 . S
C1003 C1004 1.383 . S
C1003 H1011 0.929 . S
C1004 C1003 1.383 . S
C1004 C1005 1.377 . S
C1005 H989 0.930 . S
C1005 C1004 1.377 . S
C1005 C1006 1.379 . S
C1006 H990 0.931 1_655 S
C1006 C1000 1.383 1_655 S
C1006 C1005 1.379 . S
H1007 C1001 0.962 . S
H1008 C1001 0.955 1_655 S
H1009 C1001 0.953 1_655 S
H1010 C1002 0.930 . S
H1011 C1003 0.929 . S
H1012 C1020 0.929 . S
H1013 C1022 0.930 . S
H1014 C1024 0.930 . S
H1015 C1027 0.929 . S
H1016 C1030 0.930 . S
H1017 C1032 0.960 . S
H1018 C1032 0.960 . S
H1019 C1032 0.960 . S
C1020 H1012 0.929 . S
C1020 C1021 1.377 . S
C1020 C1022 1.384 . S
C1021 C1020 1.377 . S
C1021 C1027 1.390 . S
C1022 H1013 0.930 . S
C1022 C1020 1.384 . S
C1022 C1023 1.372 . S
C1023 C1022 1.372 . S
C1023 C1024 1.400 . S
C1023 C1028 1.490 . S
C1024 H1014 0.930 . S
C1024 C1023 1.400 . S
C1024 C1027 1.386 . S
H1025 C1041 0.930 . S
H1026 C1042 0.931 . S
C1027 H1015 0.929 . S
C1027 C1021 1.390 . S
C1027 C1024 1.386 . S
C1028 C1023 1.490 . S
C1028 C1030 1.395 . S
C1028 C1031 1.403 . S
H1029 C1035 0.930 . S
C1030 H1016 0.930 . S
C1030 C1028 1.395 . S
C1030 C1033 1.403 . S
C1031 C1028 1.403 . S
C1031 C1032 1.524 . S
C1031 C1035 1.400 . S
C1032 H1017 0.960 . S
C1032 H1018 0.960 . S
C1032 H1019 0.960 . S
C1032 C1031 1.524 . S
C1033 C1030 1.403 . S
C1033 C1034 1.392 . S
C1033 C1037 1.495 . S
C1034 C1033 1.392 . S
C1034 C1035 1.385 . S
C1034 C1036 1.478 . S
C1035 H1029 0.930 . S
C1035 C1031 1.400 . S
C1035 C1034 1.385 . S
C1036 C1034 1.478 . S
C1036 C1038 1.381 . S
C1036 C1042 1.383 . S
C1037 C1033 1.495 . S
C1037 H1043 0.959 . S
C1037 H1044 0.961 . S
C1037 H1045 0.960 . S
C1038 C1036 1.381 . S
C1038 C1039 1.394 . S
C1038 H1046 0.930 . S
C1039 C1038 1.394 . S
C1039 C1040 1.383 . S
C1039 H1047 0.929 . S
C1040 C1039 1.383 . S
C1040 C1041 1.377 . S
C1041 H1025 0.930 . S
C1041 C1040 1.377 . S
C1041 C1042 1.379 . S
C1042 H1026 0.931 . S
C1042 C1036 1.383 . S
C1042 C1041 1.379 . S
H1043 C1037 0.959 . S
H1044 C1037 0.961 . S
H1045 C1037 0.960 . S
H1046 C1038 0.930 . S
H1047 C1039 0.929 . S
C481 C52 0.727 . S
C500 C170 0.732 . S
C517 C111 0.728 . S
C536 C229 0.732 . S
C553 C288 0.729 . S
C572 C406 0.730 . S
C589 C347 0.729 . S
C608 C465 0.724 . S
C625 C3 1.361 . S
C644 C298 1.365 . S
C661 C62 1.371 . S
C680 C357 1.341 . S
C697 C416 1.371 . S
C716 C121 1.359 . S
C733 C180 1.370 . S
C752 C239 1.367 . S
C769 C269 1.774 . S
C788 C5 1.787 . S
C805 C64 1.804 . S
C824 C328 1.789 . S
C841 C123 1.801 . S
C860 C387 1.772 . S
C877 C182 1.803 . S
C896 C446 1.772 . S
C913 C33 1.781 . S
C932 C241 1.811 . S
C949 C300 1.804 . S
C968 C92 1.783 . S
C985 C359 1.804 . S
C1004 C151 1.781 . S
C1021 C210 1.781 . S
C1040 C418 1.805 . S
