# Generated by pormake.
# Topology uog, (4)-cn, num edge types: 1
# Building blocks:
#     Node 0, Type 0, BuildingBlock: MUDLON_clean_sbu_0, # of connection points: 4
#     Node 1, Type 0, BuildingBlock: MUDLON_clean_sbu_0, # of connection points: 4
#     Node 2, Type 0, BuildingBlock: MUDLON_clean_sbu_0, # of connection points: 4
#     Node 3, Type 0, BuildingBlock: MUDLON_clean_sbu_0, # of connection points: 4
#     Node 4, Type 0, BuildingBlock: MUDLON_clean_sbu_0, # of connection points: 4
#     Node 5, Type 0, BuildingBlock: MUDLON_clean_sbu_0, # of connection points: 4
#     Edge 6, Type (0, 0), BuildingBlock: XUDNAN_clean_linker_2, # of connection points: 2
#     Edge 7, Type (0, 0), BuildingBlock: XUDNAN_clean_linker_2, # of connection points: 2
#     Edge 8, Type (0, 0), BuildingBlock: XUDNAN_clean_linker_2, # of connection points: 2
#     Edge 9, Type (0, 0), BuildingBlock: XUDNAN_clean_linker_2, # of connection points: 2
#     Edge 10, Type (0, 0), BuildingBlock: XUDNAN_clean_linker_2, # of connection points: 2
#     Edge 11, Type (0, 0), BuildingBlock: XUDNAN_clean_linker_2, # of connection points: 2
#     Edge 12, Type (0, 0), BuildingBlock: XUDNAN_clean_linker_2, # of connection points: 2
#     Edge 13, Type (0, 0), BuildingBlock: XUDNAN_clean_linker_2, # of connection points: 2
#     Edge 14, Type (0, 0), BuildingBlock: XUDNAN_clean_linker_2, # of connection points: 2
#     Edge 15, Type (0, 0), BuildingBlock: XUDNAN_clean_linker_2, # of connection points: 2
#     Edge 16, Type (0, 0), BuildingBlock: XUDNAN_clean_linker_2, # of connection points: 2
#     Edge 17, Type (0, 0), BuildingBlock: XUDNAN_clean_linker_2, # of connection points: 2
# Relax obj value: 0.035
# Max RMSD: 0.253
# Mean RMSD: 0.253
data_MOF--net-uog--node1-MUDLON_clean_sbu_0--edge1-XUDNAN_clean_linker_2
_symmetry_space_group_name_H-M    P1
_symmetry_Int_Tables_number       1
_symmetry_cell_setting            triclinic
loop_
_symmetry_equiv_pos_as_xyz
'x, y, z'
_cell_length_a     29.619236
_cell_length_b     29.697318
_cell_length_c     44.661013
_cell_angle_alpha  89.869817
_cell_angle_beta   89.948779
_cell_angle_gamma 119.74998
loop_
_atom_site_label
_atom_site_type_symbol
_atom_site_fract_x
_atom_site_fract_y
_atom_site_fract_z
_atom_type_partial_charge
Mg0 Mg 0.61711 0.30367 0.18147 0.0
C1 C 0.67158 0.37143 0.12575 0.0
O2 O 0.66966 0.40851 0.14069 0.0
C3 C 0.64265 0.31531 0.24489 0.0
O4 O 0.59211 0.28399 0.2438 0.0
C5 C 0.61926 0.20727 0.18392 0.0
O6 O 0.66806 0.24456 0.18367 0.0
O7 O 0.5839 0.21978 0.18318 0.0
O8 O 0.65577 0.32752 0.13818 0.0
O9 O 0.56484 0.33494 0.18706 0.0
C10 C 0.54906 0.35178 0.16559 0.0
O11 O 0.55735 0.34285 0.1379 0.0
O12 O 0.66749 0.33206 0.22037 0.0
Mg13 Mg 0.29359 0.59588 0.52318 0.0
C14 C 0.35565 0.65019 0.46728 0.0
O15 O 0.38548 0.63239 0.47729 0.0
C16 C 0.29968 0.60701 0.58781 0.0
O17 O 0.26145 0.5597 0.58289 0.0
C18 C 0.36749 0.55654 0.52884 0.0
O19 O 0.3926 0.60263 0.54122 0.0
O20 O 0.32153 0.54059 0.51921 0.0
O21 O 0.31724 0.64397 0.48307 0.0
O22 O 0.20974 0.56425 0.52544 0.0
C23 C 0.19784 0.59986 0.52751 0.0
O24 O 0.23566 0.64833 0.52812 0.0
O25 O 0.32328 0.63568 0.56542 0.0
Mg26 Mg 0.7347 0.31911 0.84812 0.0
C27 C 0.69472 0.29195 0.78618 0.0
O28 O 0.70436 0.2547 0.79349 0.0
C29 C 0.71329 0.32283 0.91223 0.0
O30 O 0.7243 0.28518 0.91043 0.0
C31 C 0.84798 0.39235 0.86483 0.0
O32 O 0.82774 0.38513 0.89177 0.0
O33 O 0.81885 0.36721 0.84297 0.0
O34 O 0.70239 0.32641 0.80558 0.0
O35 O 0.70546 0.23629 0.85457 0.0
C36 C 0.65616 0.20845 0.85629 0.0
O37 O 0.62793 0.23126 0.85439 0.0
O38 O 0.71288 0.3459 0.88823 0.0
Mg39 Mg 0.44173 0.71801 0.18857 0.0
C40 C 0.3736 0.65726 0.13519 0.0
O41 O 0.37141 0.61707 0.14894 0.0
C42 C 0.42838 0.71217 0.25274 0.0
O43 O 0.47629 0.72226 0.2479 0.0
C44 C 0.47614 0.82887 0.18586 0.0
O45 O 0.42512 0.80611 0.1853 0.0
O46 O 0.49728 0.80059 0.18704 0.0
O47 O 0.3965 0.70138 0.1478 0.0
O48 O 0.47444 0.66663 0.19195 0.0
C49 C 0.48674 0.64748 0.17006 0.0
O50 O 0.48495 0.66281 0.14269 0.0
O51 O 0.39986 0.70709 0.23027 0.0
Mg52 Mg 0.70953 0.42523 0.51583 0.0
C53 C 0.74166 0.41449 0.45381 0.0
O54 O 0.78238 0.45771 0.46259 0.0
C55 C 0.69085 0.3965 0.57891 0.0
O56 O 0.70741 0.44656 0.57836 0.0
C57 C 0.61031 0.42256 0.50719 0.0
O58 O 0.60101 0.37601 0.49955 0.0
O59 O 0.65619 0.45579 0.51523 0.0
O60 O 0.70411 0.39003 0.47206 0.0
O61 O 0.79134 0.48047 0.52359 0.0
C62 C 0.8191 0.45922 0.52765 0.0
O63 O 0.79615 0.40831 0.5278 0.0
O64 O 0.6862 0.37334 0.55419 0.0
Mg65 Mg 0.3264 0.73356 0.85898 0.0
C66 C 0.32009 0.67379 0.80326 0.0
O67 O 0.27354 0.64301 0.81431 0.0
C68 C 0.34179 0.72505 0.92363 0.0
O69 O 0.34175 0.76919 0.92169 0.0
C70 C 0.21115 0.67388 0.87306 0.0
O71 O 0.22936 0.6697 0.89907 0.0
O72 O 0.24296 0.70258 0.85292 0.0
O73 O 0.35212 0.71267 0.81851 0.0
O74 O 0.37632 0.81743 0.86188 0.0
C75 C 0.42401 0.83025 0.86462 0.0
O76 O 0.43598 0.79318 0.86588 0.0
O77 O 0.33733 0.69994 0.89974 0.0
H78 H 0.52287 0.11832 0.18199 0.0
H79 H 0.68829 0.17203 0.18781 0.0
H80 H 0.66992 0.08164 0.18874 0.0
H81 H 0.48091 1.00796 0.23114 0.0
H82 H 0.4236 0.96676 0.20963 0.0
H83 H 0.4496 0.03594 0.20947 0.0
H84 H 0.45568 0.03687 0.15155 0.0
H85 H 0.42979 0.9677 0.15155 0.0
H86 H 0.49127 1.00966 0.13365 0.0
H87 H 0.63409 0.9853 0.18887 0.0
H88 H 0.58249 0.8895 0.18859 0.0
H89 H 0.44067 0.89821 0.18264 0.0
C90 C 0.55519 0.11105 0.18351 0.0
C91 C 0.60703 0.15242 0.18481 0.0
C92 C 0.64821 0.14114 0.18675 0.0
C93 C 0.63824 0.08984 0.18729 0.0
C94 C 0.58684 0.05001 0.18588 0.0
C95 C 0.54595 0.05991 0.18405 0.0
C96 C 0.49433 1.00984 0.18273 0.0
C97 C 0.4601 1.00484 0.20986 0.0
C98 C 0.46612 1.00579 0.15311 0.0
C99 C 0.51269 0.97045 0.18417 0.0
C100 C 0.56618 0.9944 0.18594 0.0
C101 C 0.59211 0.96604 0.18749 0.0
C102 C 0.56251 0.91165 0.1873 0.0
C103 C 0.50757 0.88626 0.1856 0.0
C104 C 0.4826 0.91632 0.18397 0.0
H105 H 0.46882 0.58643 0.54178 0.0
H106 H 0.3279 0.45911 0.5046 0.0
H107 H 0.37502 0.41127 0.49487 0.0
H108 H 0.55703 0.58047 0.48948 0.0
H109 H 0.60756 0.59619 0.51672 0.0
H110 H 0.56244 0.61968 0.52151 0.0
H111 H 0.53759 0.5771 0.57409 0.0
H112 H 0.58282 0.5537 0.56954 0.0
H113 H 0.51558 0.50886 0.57805 0.0
H114 H 0.43792 0.378 0.4888 0.0
H115 H 0.51116 0.36081 0.48722 0.0
H116 H 0.61154 0.51073 0.52781 0.0
C117 C 0.44762 0.54833 0.53176 0.0
C118 C 0.39451 0.52642 0.52402 0.0
C119 C 0.36849 0.47662 0.51077 0.0
C120 C 0.39496 0.44922 0.50514 0.0
C121 C 0.44742 0.47223 0.51282 0.0
C122 C 0.47344 0.52063 0.52588 0.0
C123 C 0.52997 0.53705 0.53166 0.0
C124 C 0.56639 0.58626 0.51377 0.0
C125 C 0.54219 0.5446 0.56534 0.0
C126 C 0.53179 0.49024 0.51982 0.0
C127 C 0.48375 0.45331 0.50908 0.0
C128 C 0.47567 0.40663 0.49715 0.0
C129 C 0.51763 0.39728 0.49635 0.0
C130 C 0.56723 0.43444 0.50736 0.0
C131 C 0.57425 0.48164 0.51911 0.0
H132 H 0.92297 0.44624 0.90689 0.0
H133 H 0.89605 0.43282 0.81097 0.0
H134 H 0.98453 0.50676 0.80267 0.0
H135 H 0.99674 0.58476 0.91004 0.0
H136 H 0.04108 0.58625 0.93816 0.0
H137 H 0.97569 0.53228 0.93661 0.0
H138 H 1.01113 0.46837 0.93233 0.0
H139 H 0.07657 0.52206 0.93428 0.0
H140 H 0.05718 0.47777 0.90318 0.0
H141 H 0.07568 0.58408 0.80508 0.0
H142 H 0.16505 0.65231 0.81763 0.0
H143 H 0.13227 0.61352 0.91188 0.0
C144 C 0.93569 0.45863 0.8841 0.0
C145 C 0.90246 0.43374 0.85958 0.0
C146 C 0.92082 0.45111 0.83012 0.0
C147 C 0.97092 0.49331 0.82519 0.0
C148 C 1.00231 0.51753 0.84992 0.0
C149 C 0.98562 0.50037 0.87877 0.0
C150 C 0.02732 0.53217 0.90146 0.0
C151 C 1.0091 0.56054 0.92282 0.0
C152 C 0.04404 0.49806 0.91883 0.0
C153 C 0.07016 0.56991 0.88089 0.0
C154 C 0.05486 0.56123 0.85127 0.0
C155 C 0.08808 0.59117 0.82821 0.0
C156 C 0.13869 0.63008 0.83558 0.0
C157 C 0.15572 0.63839 0.86575 0.0
C158 C 0.12049 0.6083 0.88862 0.0
H159 H 0.10838 0.50408 0.52935 0.0
H160 H 0.16327 0.66956 0.52859 0.0
H161 H 0.07283 0.65186 0.5301 0.0
H162 H 0.99791 0.46715 0.48228 0.0
H163 H 0.9564 0.40823 0.50255 0.0
H164 H 0.02569 0.43381 0.50216 0.0
H165 H 0.02672 0.43485 0.56019 0.0
H166 H 0.95741 0.40934 0.56074 0.0
H167 H 0.99974 0.46895 0.57997 0.0
H168 H 0.9762 0.61653 0.53018 0.0
H169 H 0.88012 0.56537 0.52902 0.0
H170 H 0.8881 0.42327 0.5305 0.0
C171 C 0.10137 0.53657 0.52959 0.0
C172 C 0.14305 0.5882 0.52884 0.0
C173 C 0.13212 0.62962 0.52919 0.0
C174 C 0.0808 0.62002 0.53006 0.0
C175 C 0.04064 0.56878 0.53072 0.0
C176 C 0.05025 0.5277 0.53058 0.0
C177 C 0.99991 0.4763 0.53108 0.0
C178 C 0.99469 0.44452 0.50283 0.0
C179 C 0.99571 0.44556 0.5597 0.0
C180 C 0.96067 0.49497 0.53119 0.0
C181 C 0.98493 0.54844 0.53105 0.0
C182 C 0.95671 0.57459 0.53045 0.0
C183 C 0.90217 0.54524 0.5298 0.0
C184 C 0.87651 0.49036 0.52977 0.0
C185 C 0.90641 0.46516 0.53069 0.0
H186 H 0.41548 0.9187 0.86063 0.0
H187 H 0.52798 0.8663 0.87058 0.0
H188 H 0.59912 0.95691 0.87062 0.0
H189 H 0.4917 0.02418 0.81095 0.0
H190 H 0.4716 0.06707 0.82703 0.0
H191 H 0.42893 0.99794 0.82872 0.0
H192 H 0.42354 1.0028 0.88645 0.0
H193 H 0.46616 0.072 0.88492 0.0
H194 H 0.4826 0.0325 0.90812 0.0
H195 H 0.65877 0.05311 0.86801 0.0
H196 H 0.70229 0.14861 0.86363 0.0
H197 H 0.55155 0.13887 0.85585 0.0
C198 C 0.45504 0.92631 0.86299 0.0
C199 C 0.466 0.88524 0.86559 0.0
C200 C 0.51841 0.89695 0.86855 0.0
C201 C 0.55924 0.94838 0.86861 0.0
C202 C 0.54721 0.9879 0.8658 0.0
C203 C 0.49643 0.97759 0.86314 0.0
C204 C 0.49438 0.02737 0.86002 0.0
C205 C 0.47023 0.02923 0.82989 0.0
C206 C 0.46493 0.03405 0.88646 0.0
C207 C 0.55187 0.06706 0.86108 0.0
C208 C 0.58168 0.04349 0.86447 0.0
C209 C 0.63584 0.07209 0.86549 0.0
C210 C 0.66023 0.1263 0.86295 0.0
C211 C 0.63043 0.15131 0.85946 0.0
C212 C 0.57552 0.12105 0.85863 0.0
H213 H 0.50488 0.59024 0.1282 0.0
H214 H 0.48931 0.60459 0.22392 0.0
H215 H 0.49842 0.52752 0.23278 0.0
H216 H 0.43312 0.45106 0.12545 0.0
H217 H 0.47488 0.44609 0.09786 0.0
H218 H 0.46746 0.50272 0.09876 0.0
H219 H 0.56725 0.56174 0.10357 0.0
H220 H 0.57501 0.50536 0.10229 0.0
H221 H 0.60126 0.54981 0.13324 0.0
H222 H 0.50865 0.44863 0.23142 0.0
H223 H 0.5258 0.37719 0.22014 0.0
H224 H 0.53443 0.41361 0.12535 0.0
C225 C 0.50374 0.57744 0.15105 0.0
C226 C 0.49637 0.60361 0.17535 0.0
C227 C 0.49497 0.58535 0.2049 0.0
C228 C 0.49988 0.54142 0.21018 0.0
C229 C 0.50619 0.51605 0.18572 0.0
C230 C 0.50859 0.53358 0.15675 0.0
C231 C 0.5165 0.49961 0.13449 0.0
C232 C 0.47023 0.47332 0.11287 0.0
C233 C 0.56808 0.531 0.1174 0.0
C234 C 0.51843 0.46043 0.1555 0.0
C235 C 0.51207 0.47045 0.18493 0.0
C236 C 0.51358 0.44033 0.20845 0.0
C237 C 0.52319 0.3997 0.2018 0.0
C238 C 0.53127 0.38953 0.17185 0.0
C239 C 0.52784 0.41987 0.14843 0.0
H240 H 0.70119 0.27322 0.96546 0.0
H241 H 0.71001 0.41148 0.92667 0.0
H242 H 0.70397 0.44153 0.97752 0.0
H243 H 0.60865 0.254 0.02307 0.0
H244 H 0.63809 0.2312 0.04999 0.0
H245 H 0.64298 0.22151 1.01061 0.0
H246 H 0.74343 0.26823 1.01516 0.0
H247 H 0.73887 0.27859 0.05449 0.0
H248 H 0.7778 0.33295 0.03026 0.0
H249 H 0.69843 0.4565 0.03351 0.0
H250 H 0.68746 0.45205 0.08858 0.0
H251 H 0.68226 0.30338 0.08932 0.0
C252 C 0.70173 0.30981 0.96753 0.0
C253 C 0.70618 0.34008 0.94208 0.0
C254 C 0.70643 0.38756 0.94586 0.0
C255 C 0.7033 0.40503 0.97465 0.0
C256 C 0.69974 0.37443 0.99932 0.0
C257 C 0.69848 0.32759 0.99591 0.0
C258 C 0.69364 0.30134 0.02574 0.0
C259 C 0.64282 0.24893 0.02744 0.0
C260 C 0.74128 0.29492 0.03175 0.0
C261 C 0.69236 0.34065 0.04661 0.0
C262 C 0.69621 0.38275 0.03109 0.0
C263 C 0.69539 0.42369 0.04584 0.0
C264 C 0.68941 0.42093 0.07715 0.0
C265 C 0.68407 0.37741 0.09332 0.0
C266 C 0.68634 0.33727 0.07771 0.0
H267 H 0.47414 0.70208 0.30317 0.0
H268 H 0.33921 0.71002 0.27262 0.0
H269 H 0.30903 0.70216 0.32517 0.0
H270 H 0.40841 0.60629 0.35884 0.0
H271 H 0.46229 0.63337 0.38458 0.0
H272 H 0.47412 0.64285 0.34493 0.0
H273 H 0.52599 0.74238 0.35289 0.0
H274 H 0.51395 0.73321 0.3926 0.0
H275 H 0.49562 0.7739 0.37199 0.0
H276 H 0.29328 0.69153 0.38142 0.0
H277 H 0.28933 0.67195 0.43549 0.0
H278 H 0.43421 0.66943 0.42803 0.0
C279 C 0.43841 0.70262 0.30746 0.0
C280 C 0.40914 0.70698 0.28383 0.0
C281 C 0.36224 0.70674 0.29041 0.0
C282 C 0.34499 0.70257 0.32018 0.0
C283 C 0.37503 0.69851 0.34296 0.0
C284 C 0.42055 0.69811 0.33684 0.0
C285 C 0.44443 0.69046 0.36495 0.0
C286 C 0.44745 0.64026 0.36321 0.0
C287 C 0.49818 0.73782 0.37095 0.0
C288 C 0.405 0.6861 0.38796 0.0
C289 C 0.36555 0.69144 0.37497 0.0
C290 C 0.32408 0.68748 0.39181 0.0
C291 C 0.32229 0.67653 0.42254 0.0
C292 C 0.36149 0.66917 0.43603 0.0
C293 C 0.40376 0.67505 0.41848 0.0
H294 H 0.70539 0.37798 0.75637 0.0
H295 H 0.65373 0.21443 0.745 0.0
H296 H 0.6403 0.22168 0.69113 0.0
H297 H 0.61786 0.38609 0.69966 0.0
H298 H 0.66713 0.44949 0.68724 0.0
H299 H 0.66632 0.42996 0.72556 0.0
H300 H 0.76167 0.4501 0.72007 0.0
H301 H 0.76264 0.46924 0.68173 0.0
H302 H 0.77822 0.4193 0.69066 0.0
H303 H 0.64082 0.24832 0.63769 0.0
H304 H 0.65372 0.29254 0.58883 0.0
H305 H 0.70549 0.43864 0.6349 0.0
C306 C 0.6899 0.34344 0.74268 0.0
C307 C 0.6803 0.29558 0.75491 0.0
C308 C 0.66128 0.2515 0.73612 0.0
C309 C 0.6534 0.25518 0.70548 0.0
C310 C 0.66466 0.30321 0.69391 0.0
C311 C 0.68218 0.34652 0.71194 0.0
C312 C 0.69508 0.39432 0.6935 0.0
C313 C 0.65946 0.41624 0.702 0.0
C314 C 0.75283 0.43565 0.69668 0.0
C315 C 0.68317 0.37129 0.66233 0.0
C316 C 0.66526 0.31862 0.66304 0.0
C317 C 0.65418 0.28947 0.63686 0.0
C318 C 0.66175 0.31491 0.60921 0.0
C319 C 0.6804 0.36897 0.60799 0.0
C320 C 0.69074 0.39718 0.63501 0.0
H321 H 0.36008 0.77413 0.97752 0.0
H322 H 0.32566 0.62769 0.93716 0.0
H323 H 0.32404 0.59183 0.98751 0.0
H324 H 0.44553 0.77483 0.03391 0.0
H325 H 0.42411 0.80408 0.06171 0.0
H326 H 0.42088 0.81688 0.0226 0.0
H327 H 0.32246 0.7852 0.02828 0.0
H328 H 0.32529 0.77177 0.06738 0.0
H329 H 0.27976 0.72127 0.04307 0.0
H330 H 0.32703 0.57267 0.04277 0.0
H331 H 0.34082 0.5739 0.09743 0.0
H332 H 0.37345 0.7334 0.10064 0.0
C333 C 0.3521 0.73446 0.97918 0.0
C334 C 0.34288 0.70366 0.9534 0.0
C335 C 0.33296 0.65205 0.95661 0.0
C336 C 0.33168 0.63128 0.98512 0.0
C337 C 0.34046 0.66267 1.0101 0.0
C338 C 0.35086 0.71328 1.00733 0.0
C339 C 0.36075 0.73967 0.03745 0.0
C340 C 0.4161 0.78662 0.039 0.0
C341 C 0.3196 0.75538 0.04445 0.0
C342 C 0.35473 0.69615 0.0577 0.0
C343 C 0.34257 0.65186 0.04161 0.0
C344 C 0.33639 0.6071 0.05558 0.0
C345 C 0.34408 0.60811 0.08667 0.0
C346 C 0.35814 0.6537 0.10337 0.0
C347 C 0.3625 0.69782 0.08861 0.0
H348 H 0.65428 0.34659 0.42241 0.0
H349 H 0.82108 0.44721 0.41349 0.0
H350 H 0.81496 0.42851 0.3594 0.0
H351 H 0.6407 0.24996 0.3659 0.0
H352 H 0.5796 0.24159 0.35253 0.0
H353 H 0.59798 0.25858 0.39107 0.0
H354 H 0.58598 0.33883 0.38497 0.0
H355 H 0.568 0.32235 0.3464 0.0
H356 H 0.62114 0.38549 0.35587 0.0
H357 H 0.78982 0.40479 0.30548 0.0
H358 H 0.7473 0.37606 0.25609 0.0
H359 H 0.59718 0.29152 0.30029 0.0
C360 C 0.68965 0.3637 0.4092 0.0
C361 C 0.73819 0.39815 0.4222 0.0
C362 C 0.78345 0.42064 0.40402 0.0
C363 C 0.78041 0.41021 0.37326 0.0
C364 C 0.73183 0.37714 0.36097 0.0
C365 C 0.68728 0.35397 0.37838 0.0
C366 C 0.63948 0.32257 0.35934 0.0
C367 C 0.61289 0.26474 0.36771 0.0
C368 C 0.60143 0.34359 0.3618 0.0
C369 C 0.66403 0.3324 0.32852 0.0
C370 C 0.71736 0.36371 0.32991 0.0
C371 C 0.74811 0.37977 0.30413 0.0
C372 C 0.72364 0.3634 0.27618 0.0
C373 C 0.66898 0.33143 0.27428 0.0
C374 C 0.6391 0.31562 0.30091 0.0
H375 H 0.25901 0.59656 0.76416 0.0
H376 H 0.40644 0.74004 0.77046 0.0
H377 H 0.41946 0.73734 0.71599 0.0
H378 H 0.29922 0.53611 0.70581 0.0
H379 H 0.23646 0.50675 0.68795 0.0
H380 H 0.24153 0.51792 0.72775 0.0
H381 H 0.19323 0.57019 0.72225 0.0
H382 H 0.18858 0.55978 0.68243 0.0
H383 H 0.21857 0.62484 0.69699 0.0
H384 H 0.41187 0.72316 0.65976 0.0
H385 H 0.38727 0.69476 0.60726 0.0
H386 H 0.24578 0.5603 0.63872 0.0
C387 C 0.29457 0.62691 0.75425 0.0
C388 C 0.3317 0.66847 0.77162 0.0
C389 C 0.37751 0.70763 0.75766 0.0
C390 C 0.3852 0.70653 0.7267 0.0
C391 C 0.34699 0.66578 0.71009 0.0
C392 C 0.30293 0.62631 0.72348 0.0
C393 C 0.26677 0.58793 0.70059 0.0
C394 C 0.26066 0.53399 0.70584 0.0
C395 C 0.21367 0.58559 0.70057 0.0
C396 C 0.29683 0.61247 0.67215 0.0
C397 C 0.34302 0.65733 0.67799 0.0
C398 C 0.37609 0.68772 0.65496 0.0
C399 C 0.3617 0.67148 0.62524 0.0
C400 C 0.31478 0.62523 0.61891 0.0
C401 C 0.28217 0.59558 0.64279 0.0
loop_
_geom_bond_atom_site_label_1
_geom_bond_atom_site_label_2
_geom_bond_distance
_geom_bond_site_symmetry_2
_ccdc_geom_bond_type
Mg0 O7 2.141 . S
Mg0 O8 2.048 . S
Mg0 O9 2.048 . S
Mg0 O12 2.141 . S
C1 O2 1.313 . S
C1 O8 1.195 . S
O2 C1 1.313 . S
C3 O4 1.245 . S
C3 O12 1.289 . S
O4 C3 1.245 . S
C5 O6 1.245 . S
C5 O7 1.289 . S
O6 C5 1.245 . S
O7 Mg0 2.141 . S
O7 C5 1.289 . S
O8 Mg0 2.048 . S
O8 C1 1.195 . S
O9 Mg0 2.048 . S
O9 C10 1.195 . S
C10 O9 1.195 . S
C10 O11 1.313 . S
O11 C10 1.313 . S
O12 Mg0 2.141 . S
O12 C3 1.289 . S
Mg13 O20 2.141 . S
Mg13 O21 2.048 . S
Mg13 O22 2.048 . S
Mg13 O25 2.141 . S
C14 O15 1.313 . S
C14 O21 1.195 . S
O15 C14 1.313 . S
C16 O17 1.245 . S
C16 O25 1.289 . S
O17 C16 1.245 . S
C18 O19 1.245 . S
C18 O20 1.289 . S
O19 C18 1.245 . S
O20 Mg13 2.141 . S
O20 C18 1.289 . S
O21 Mg13 2.048 . S
O21 C14 1.195 . S
O22 Mg13 2.048 . S
O22 C23 1.195 . S
C23 O22 1.195 . S
C23 O24 1.313 . S
O24 C23 1.313 . S
O25 Mg13 2.141 . S
O25 C16 1.289 . S
Mg26 O33 2.141 . S
Mg26 O34 2.048 . S
Mg26 O35 2.048 . S
Mg26 O38 2.141 . S
C27 O28 1.313 . S
C27 O34 1.195 . S
O28 C27 1.313 . S
C29 O30 1.245 . S
C29 O38 1.289 . S
O30 C29 1.245 . S
C31 O32 1.245 . S
C31 O33 1.289 . S
O32 C31 1.245 . S
O33 Mg26 2.141 . S
O33 C31 1.289 . S
O34 Mg26 2.048 . S
O34 C27 1.195 . S
O35 Mg26 2.048 . S
O35 C36 1.195 . S
C36 O35 1.195 . S
C36 O37 1.313 . S
O37 C36 1.313 . S
O38 Mg26 2.141 . S
O38 C29 1.289 . S
Mg39 O46 2.141 . S
Mg39 O47 2.048 . S
Mg39 O48 2.048 . S
Mg39 O51 2.141 . S
C40 O41 1.313 . S
C40 O47 1.195 . S
O41 C40 1.313 . S
C42 O43 1.245 . S
C42 O51 1.289 . S
O43 C42 1.245 . S
C44 O45 1.245 . S
C44 O46 1.289 . S
O45 C44 1.245 . S
O46 Mg39 2.141 . S
O46 C44 1.289 . S
O47 Mg39 2.048 . S
O47 C40 1.195 . S
O48 Mg39 2.048 . S
O48 C49 1.195 . S
C49 O48 1.195 . S
C49 O50 1.313 . S
O50 C49 1.313 . S
O51 Mg39 2.141 . S
O51 C42 1.289 . S
Mg52 O59 2.141 . S
Mg52 O60 2.048 . S
Mg52 O61 2.048 . S
Mg52 O64 2.141 . S
C53 O54 1.313 . S
C53 O60 1.195 . S
O54 C53 1.313 . S
C55 O56 1.245 . S
C55 O64 1.289 . S
O56 C55 1.245 . S
C57 O58 1.245 . S
C57 O59 1.289 . S
O58 C57 1.245 . S
O59 Mg52 2.141 . S
O59 C57 1.289 . S
O60 Mg52 2.048 . S
O60 C53 1.195 . S
O61 Mg52 2.048 . S
O61 C62 1.195 . S
C62 O61 1.195 . S
C62 O63 1.313 . S
O63 C62 1.313 . S
O64 Mg52 2.141 . S
O64 C55 1.289 . S
Mg65 O72 2.141 . S
Mg65 O73 2.048 . S
Mg65 O74 2.048 . S
Mg65 O77 2.141 . S
C66 O67 1.313 . S
C66 O73 1.195 . S
O67 C66 1.313 . S
C68 O69 1.245 . S
C68 O77 1.289 . S
O69 C68 1.245 . S
C70 O71 1.245 . S
C70 O72 1.289 . S
O71 C70 1.245 . S
O72 Mg65 2.141 . S
O72 C70 1.289 . S
O73 Mg65 2.048 . S
O73 C66 1.195 . S
O74 Mg65 2.048 . S
O74 C75 1.195 . S
C75 O74 1.195 . S
C75 O76 1.313 . S
O76 C75 1.313 . S
O77 Mg65 2.141 . S
O77 C68 1.289 . S
H78 C90 0.930 . S
H79 C92 0.930 . S
H80 C93 0.930 . S
H81 C97 0.955 . S
H82 C97 0.959 1_565 S
H83 C97 0.961 . S
H84 C98 0.960 1_545 S
H85 C98 0.961 . S
H86 C98 0.959 . S
H87 C101 0.929 . S
H88 C102 0.931 . S
H89 C104 0.930 . S
C90 H78 0.930 . S
C90 C91 1.399 . S
C90 C95 1.399 . S
C91 C90 1.399 . S
C91 C92 1.376 . S
C92 H79 0.930 . S
C92 C91 1.376 . S
C92 C93 1.388 . S
C93 H80 0.930 . S
C93 C92 1.388 . S
C93 C94 1.390 . S
C94 C93 1.390 . S
C94 C95 1.394 . S
C94 C100 1.465 1_545 S
C95 C90 1.399 . S
C95 C94 1.394 . S
C95 C96 1.523 . S
C96 C95 1.523 . S
C96 C97 1.507 . S
C96 C98 1.557 1_545 S
C96 C99 1.517 1_545 S
C97 H81 0.955 . S
C97 H82 0.959 1_545 S
C97 H83 0.961 . S
C97 C96 1.507 . S
C98 H84 0.960 1_565 S
C98 H85 0.961 . S
C98 H86 0.959 . S
C98 C96 1.557 1_565 S
C99 C96 1.517 1_565 S
C99 C100 1.396 . S
C99 C104 1.390 . S
C100 C94 1.465 1_565 S
C100 C99 1.396 . S
C100 C101 1.399 . S
C101 H87 0.929 . S
C101 C100 1.399 . S
C101 C102 1.385 . S
C102 H88 0.931 . S
C102 C101 1.385 . S
C102 C103 1.389 . S
C103 C102 1.389 . S
C103 C104 1.387 . S
C104 H89 0.930 . S
C104 C99 1.390 . S
C104 C103 1.387 . S
H105 C117 0.930 . S
H106 C119 0.930 . S
H107 C120 0.930 . S
H108 C124 0.959 . S
H109 C124 0.959 . S
H110 C124 0.961 . S
H111 C125 0.960 . S
H112 C125 0.961 . S
H113 C125 0.959 . S
H114 C128 0.929 . S
H115 C129 0.931 . S
H116 C131 0.930 . S
C117 H105 0.930 . S
C117 C118 1.399 . S
C117 C122 1.399 . S
C118 C117 1.399 . S
C118 C119 1.376 . S
C119 H106 0.930 . S
C119 C118 1.376 . S
C119 C120 1.388 . S
C120 H107 0.930 . S
C120 C119 1.388 . S
C120 C121 1.390 . S
C121 C120 1.390 . S
C121 C122 1.394 . S
C121 C127 1.465 . S
C122 C117 1.399 . S
C122 C121 1.394 . S
C122 C123 1.516 . S
C123 C122 1.516 . S
C123 C124 1.502 . S
C123 C125 1.561 . S
C123 C126 1.526 . S
C124 H108 0.959 . S
C124 H109 0.959 . S
C124 H110 0.961 . S
C124 C123 1.502 . S
C125 H111 0.960 . S
C125 H112 0.961 . S
C125 H113 0.959 . S
C125 C123 1.561 . S
C126 C123 1.526 . S
C126 C127 1.396 . S
C126 C131 1.390 . S
C127 C121 1.465 . S
C127 C126 1.396 . S
C127 C128 1.399 . S
C128 H114 0.929 . S
C128 C127 1.399 . S
C128 C129 1.385 . S
C129 H115 0.931 . S
C129 C128 1.385 . S
C129 C130 1.389 . S
C130 C129 1.389 . S
C130 C131 1.387 . S
C131 H116 0.930 . S
C131 C126 1.390 . S
C131 C130 1.387 . S
H132 C144 0.930 . S
H133 C146 0.930 . S
H134 C147 0.930 . S
H135 C151 0.959 . S
H136 C151 0.959 . S
H137 C151 0.961 1_655 S
H138 C152 0.960 . S
H139 C152 0.961 1_455 S
H140 C152 0.961 . S
H141 C155 0.929 . S
H142 C156 0.931 . S
H143 C158 0.930 . S
C144 H132 0.930 . S
C144 C145 1.399 . S
C144 C149 1.399 . S
C145 C144 1.399 . S
C145 C146 1.376 . S
C146 H133 0.930 . S
C146 C145 1.376 . S
C146 C147 1.388 . S
C147 H134 0.930 . S
C147 C146 1.388 . S
C147 C148 1.390 . S
C148 C147 1.390 . S
C148 C149 1.394 . S
C148 C154 1.465 1_655 S
C149 C144 1.399 . S
C149 C148 1.394 . S
C149 C150 1.507 1_655 S
C150 C149 1.507 1_455 S
C150 C151 1.496 . S
C150 C152 1.566 1_455 S
C150 C153 1.537 . S
C151 H135 0.959 . S
C151 H136 0.959 . S
C151 H137 0.961 1_455 S
C151 C150 1.496 . S
C152 H138 0.960 . S
C152 H139 0.961 1_655 S
C152 H140 0.961 . S
C152 C150 1.566 1_655 S
C153 C150 1.537 . S
C153 C154 1.396 . S
C153 C158 1.390 . S
C154 C148 1.465 1_455 S
C154 C153 1.396 . S
C154 C155 1.399 . S
C155 H141 0.929 . S
C155 C154 1.399 . S
C155 C156 1.385 . S
C156 H142 0.931 . S
C156 C155 1.385 . S
C156 C157 1.389 . S
C157 C156 1.389 . S
C157 C158 1.387 . S
C158 H143 0.930 . S
C158 C153 1.390 . S
C158 C157 1.387 . S
H159 C171 0.930 . S
H160 C173 0.930 . S
H161 C174 0.930 . S
H162 C178 0.958 . S
H163 C178 0.959 1_655 S
H164 C178 0.961 . S
H165 C179 0.960 1_455 S
H166 C179 0.961 . S
H167 C179 0.959 . S
H168 C182 0.929 . S
H169 C183 0.931 . S
H170 C185 0.930 . S
C171 H159 0.930 . S
C171 C172 1.399 . S
C171 C176 1.399 . S
C172 C171 1.399 . S
C172 C173 1.376 . S
C173 H160 0.930 . S
C173 C172 1.376 . S
C173 C174 1.388 . S
C174 H161 0.930 . S
C174 C173 1.388 . S
C174 C175 1.390 . S
C175 C174 1.390 . S
C175 C176 1.394 . S
C175 C181 1.465 1_455 S
C176 C171 1.399 . S
C176 C175 1.394 . S
C176 C177 1.524 . S
C177 C176 1.524 . S
C177 C178 1.508 . S
C177 C179 1.556 1_455 S
C177 C180 1.516 1_455 S
C178 H162 0.958 . S
C178 H163 0.959 1_455 S
C178 H164 0.961 . S
C178 C177 1.508 . S
C179 H165 0.960 1_655 S
C179 H166 0.961 . S
C179 H167 0.959 . S
C179 C177 1.556 1_655 S
C180 C177 1.516 1_655 S
C180 C181 1.396 . S
C180 C185 1.390 . S
C181 C175 1.465 1_655 S
C181 C180 1.396 . S
C181 C182 1.399 . S
C182 H168 0.929 . S
C182 C181 1.399 . S
C182 C183 1.385 . S
C183 H169 0.931 . S
C183 C182 1.385 . S
C183 C184 1.389 . S
C184 C183 1.389 . S
C184 C185 1.387 . S
C185 H170 0.930 . S
C185 C180 1.390 . S
C185 C184 1.387 . S
H186 C198 0.930 . S
H187 C200 0.930 . S
H188 C201 0.930 . S
H189 C205 0.965 . S
H190 C205 0.959 1_545 S
H191 C205 0.961 . S
H192 C206 0.953 1_565 S
H193 C206 0.970 . S
H194 C206 0.955 . S
H195 C209 0.929 . S
H196 C210 0.931 . S
H197 C212 0.930 . S
C198 H186 0.930 . S
C198 C199 1.399 . S
C198 C203 1.399 . S
C199 C198 1.399 . S
C199 C200 1.376 . S
C200 H187 0.930 . S
C200 C199 1.376 . S
C200 C201 1.388 . S
C201 H188 0.930 . S
C201 C200 1.388 . S
C201 C202 1.390 . S
C202 C201 1.390 . S
C202 C203 1.394 . S
C202 C208 1.465 1_565 S
C203 C198 1.399 . S
C203 C202 1.394 . S
C203 C204 1.516 . S
C204 C203 1.516 . S
C204 C205 1.502 . S
C204 C206 1.564 1_565 S
C204 C207 1.526 1_565 S
C205 H189 0.965 . S
C205 H190 0.959 1_565 S
C205 H191 0.961 . S
C205 C204 1.502 . S
C206 H192 0.953 1_545 S
C206 H193 0.970 . S
C206 H194 0.955 . S
C206 C204 1.564 1_545 S
C207 C204 1.526 1_545 S
C207 C208 1.396 . S
C207 C212 1.390 . S
C208 C202 1.465 1_545 S
C208 C207 1.396 . S
C208 C209 1.399 . S
C209 H195 0.929 . S
C209 C208 1.399 . S
C209 C210 1.385 . S
C210 H196 0.931 . S
C210 C209 1.385 . S
C210 C211 1.389 . S
C211 C210 1.389 . S
C211 C212 1.387 . S
C212 H197 0.930 . S
C212 C207 1.390 . S
C212 C211 1.387 . S
H213 C225 0.930 . S
H214 C227 0.930 . S
H215 C228 0.930 . S
H216 C232 0.959 . S
H217 C232 0.959 . S
H218 C232 0.961 . S
H219 C233 0.960 . S
H220 C233 0.961 . S
H221 C233 0.959 . S
H222 C236 0.929 . S
H223 C237 0.931 . S
H224 C239 0.930 . S
C225 H213 0.930 . S
C225 C226 1.399 . S
C225 C230 1.399 . S
C226 C225 1.399 . S
C226 C227 1.376 . S
C227 H214 0.930 . S
C227 C226 1.376 . S
C227 C228 1.388 . S
C228 H215 0.930 . S
C228 C227 1.388 . S
C228 C229 1.390 . S
C229 C228 1.390 . S
C229 C230 1.394 . S
C229 C235 1.465 . S
C230 C225 1.399 . S
C230 C229 1.394 . S
C230 C231 1.516 . S
C231 C230 1.516 . S
C231 C232 1.502 . S
C231 C233 1.561 . S
C231 C234 1.526 . S
C232 H216 0.959 . S
C232 H217 0.959 . S
C232 H218 0.961 . S
C232 C231 1.502 . S
C233 H219 0.960 . S
C233 H220 0.961 . S
C233 H221 0.959 . S
C233 C231 1.561 . S
C234 C231 1.526 . S
C234 C235 1.396 . S
C234 C239 1.390 . S
C235 C229 1.465 . S
C235 C234 1.396 . S
C235 C236 1.399 . S
C236 H222 0.929 . S
C236 C235 1.399 . S
C236 C237 1.385 . S
C237 H223 0.931 . S
C237 C236 1.385 . S
C237 C238 1.389 . S
C238 C237 1.389 . S
C238 C239 1.387 . S
C239 H224 0.930 . S
C239 C234 1.390 . S
C239 C238 1.387 . S
H240 C252 0.930 . S
H241 C254 0.930 . S
H242 C255 0.930 . S
H243 C259 0.959 . S
H244 C259 0.959 1_554 S
H245 C259 0.961 . S
H246 C260 0.960 1_556 S
H247 C260 0.961 . S
H248 C260 0.959 . S
H249 C263 0.929 . S
H250 C264 0.931 . S
H251 C266 0.930 . S
C252 H240 0.930 . S
C252 C253 1.399 . S
C252 C257 1.399 . S
C253 C252 1.399 . S
C253 C254 1.376 . S
C254 H241 0.930 . S
C254 C253 1.376 . S
C254 C255 1.388 . S
C255 H242 0.930 . S
C255 C254 1.388 . S
C255 C256 1.390 . S
C256 C255 1.390 . S
C256 C257 1.394 . S
C256 C262 1.465 1_556 S
C257 C252 1.399 . S
C257 C256 1.394 . S
C257 C258 1.516 . S
C258 C257 1.516 . S
C258 C259 1.502 . S
C258 C260 1.561 1_556 S
C258 C261 1.526 1_556 S
C259 H243 0.959 . S
C259 H244 0.959 1_556 S
C259 H245 0.961 . S
C259 C258 1.502 . S
C260 H246 0.960 1_554 S
C260 H247 0.961 . S
C260 H248 0.959 . S
C260 C258 1.561 1_554 S
C261 C258 1.526 1_554 S
C261 C262 1.396 . S
C261 C266 1.390 . S
C262 C256 1.465 1_554 S
C262 C261 1.396 . S
C262 C263 1.399 . S
C263 H249 0.929 . S
C263 C262 1.399 . S
C263 C264 1.385 . S
C264 H250 0.931 . S
C264 C263 1.385 . S
C264 C265 1.389 . S
C265 C264 1.389 . S
C265 C266 1.387 . S
C266 H251 0.930 . S
C266 C261 1.390 . S
C266 C265 1.387 . S
H267 C279 0.930 . S
H268 C281 0.930 . S
H269 C282 0.930 . S
H270 C286 0.959 . S
H271 C286 0.959 . S
H272 C286 0.961 . S
H273 C287 0.960 . S
H274 C287 0.961 . S
H275 C287 0.959 . S
H276 C290 0.929 . S
H277 C291 0.931 . S
H278 C293 0.930 . S
C279 H267 0.930 . S
C279 C280 1.399 . S
C279 C284 1.399 . S
C280 C279 1.399 . S
C280 C281 1.376 . S
C281 H268 0.930 . S
C281 C280 1.376 . S
C281 C282 1.388 . S
C282 H269 0.930 . S
C282 C281 1.388 . S
C282 C283 1.390 . S
C283 C282 1.390 . S
C283 C284 1.394 . S
C283 C289 1.465 . S
C284 C279 1.399 . S
C284 C283 1.394 . S
C284 C285 1.516 . S
C285 C284 1.516 . S
C285 C286 1.502 . S
C285 C287 1.561 . S
C285 C288 1.526 . S
C286 H270 0.959 . S
C286 H271 0.959 . S
C286 H272 0.961 . S
C286 C285 1.502 . S
C287 H273 0.960 . S
C287 H274 0.961 . S
C287 H275 0.959 . S
C287 C285 1.561 . S
C288 C285 1.526 . S
C288 C289 1.396 . S
C288 C293 1.390 . S
C289 C283 1.465 . S
C289 C288 1.396 . S
C289 C290 1.399 . S
C290 H276 0.929 . S
C290 C289 1.399 . S
C290 C291 1.385 . S
C291 H277 0.931 . S
C291 C290 1.385 . S
C291 C292 1.389 . S
C292 C291 1.389 . S
C292 C293 1.387 . S
C293 H278 0.930 . S
C293 C288 1.390 . S
C293 C292 1.387 . S
H294 C306 0.930 . S
H295 C308 0.930 . S
H296 C309 0.930 . S
H297 C313 0.959 . S
H298 C313 0.959 . S
H299 C313 0.961 . S
H300 C314 0.960 . S
H301 C314 0.961 . S
H302 C314 0.959 . S
H303 C317 0.929 . S
H304 C318 0.931 . S
H305 C320 0.930 . S
C306 H294 0.930 . S
C306 C307 1.399 . S
C306 C311 1.399 . S
C307 C306 1.399 . S
C307 C308 1.376 . S
C308 H295 0.930 . S
C308 C307 1.376 . S
C308 C309 1.388 . S
C309 H296 0.930 . S
C309 C308 1.388 . S
C309 C310 1.390 . S
C310 C309 1.390 . S
C310 C311 1.394 . S
C310 C316 1.465 . S
C311 C306 1.399 . S
C311 C310 1.394 . S
C311 C312 1.516 . S
C312 C311 1.516 . S
C312 C313 1.502 . S
C312 C314 1.561 . S
C312 C315 1.526 . S
C313 H297 0.959 . S
C313 H298 0.959 . S
C313 H299 0.961 . S
C313 C312 1.502 . S
C314 H300 0.960 . S
C314 H301 0.961 . S
C314 H302 0.959 . S
C314 C312 1.561 . S
C315 C312 1.526 . S
C315 C316 1.396 . S
C315 C320 1.390 . S
C316 C310 1.465 . S
C316 C315 1.396 . S
C316 C317 1.399 . S
C317 H303 0.929 . S
C317 C316 1.399 . S
C317 C318 1.385 . S
C318 H304 0.931 . S
C318 C317 1.385 . S
C318 C319 1.389 . S
C319 C318 1.389 . S
C319 C320 1.387 . S
C320 H305 0.930 . S
C320 C315 1.390 . S
C320 C319 1.387 . S
H321 C333 0.930 . S
H322 C335 0.930 . S
H323 C336 0.930 . S
H324 C340 0.959 . S
H325 C340 0.959 1_554 S
H326 C340 0.961 . S
H327 C341 0.960 1_556 S
H328 C341 0.961 . S
H329 C341 0.959 . S
H330 C344 0.929 . S
H331 C345 0.931 . S
H332 C347 0.930 . S
C333 H321 0.930 . S
C333 C334 1.399 . S
C333 C338 1.399 . S
C334 C333 1.399 . S
C334 C335 1.376 . S
C335 H322 0.930 . S
C335 C334 1.376 . S
C335 C336 1.388 . S
C336 H323 0.930 . S
C336 C335 1.388 . S
C336 C337 1.390 . S
C337 C336 1.390 . S
C337 C338 1.394 . S
C337 C343 1.465 1_556 S
C338 C333 1.399 . S
C338 C337 1.394 . S
C338 C339 1.494 1_556 S
C339 C338 1.494 1_554 S
C339 C340 1.494 1_554 S
C339 C341 1.570 . S
C339 C342 1.549 . S
C340 H324 0.959 . S
C340 H325 0.959 1_556 S
C340 H326 0.961 . S
C340 C339 1.494 1_556 S
C341 H327 0.960 1_554 S
C341 H328 0.961 . S
C341 H329 0.959 . S
C341 C339 1.570 . S
C342 C339 1.549 . S
C342 C343 1.396 . S
C342 C347 1.390 . S
C343 C337 1.465 1_554 S
C343 C342 1.396 . S
C343 C344 1.399 . S
C344 H330 0.929 . S
C344 C343 1.399 . S
C344 C345 1.385 . S
C345 H331 0.931 . S
C345 C344 1.385 . S
C345 C346 1.389 . S
C346 C345 1.389 . S
C346 C347 1.387 . S
C347 H332 0.930 . S
C347 C342 1.390 . S
C347 C346 1.387 . S
H348 C360 0.930 . S
H349 C362 0.930 . S
H350 C363 0.930 . S
H351 C367 0.959 . S
H352 C367 0.959 . S
H353 C367 0.961 . S
H354 C368 0.960 . S
H355 C368 0.961 . S
H356 C368 0.959 . S
H357 C371 0.929 . S
H358 C372 0.931 . S
H359 C374 0.930 . S
C360 H348 0.930 . S
C360 C361 1.399 . S
C360 C365 1.399 . S
C361 C360 1.399 . S
C361 C362 1.376 . S
C362 H349 0.930 . S
C362 C361 1.376 . S
C362 C363 1.388 . S
C363 H350 0.930 . S
C363 C362 1.388 . S
C363 C364 1.390 . S
C364 C363 1.390 . S
C364 C365 1.394 . S
C364 C370 1.465 . S
C365 C360 1.399 . S
C365 C364 1.394 . S
C365 C366 1.516 . S
C366 C365 1.516 . S
C366 C367 1.502 . S
C366 C368 1.561 . S
C366 C369 1.526 . S
C367 H351 0.959 . S
C367 H352 0.959 . S
C367 H353 0.961 . S
C367 C366 1.502 . S
C368 H354 0.960 . S
C368 H355 0.961 . S
C368 H356 0.959 . S
C368 C366 1.561 . S
C369 C366 1.526 . S
C369 C370 1.396 . S
C369 C374 1.390 . S
C370 C364 1.465 . S
C370 C369 1.396 . S
C370 C371 1.399 . S
C371 H357 0.929 . S
C371 C370 1.399 . S
C371 C372 1.385 . S
C372 H358 0.931 . S
C372 C371 1.385 . S
C372 C373 1.389 . S
C373 C372 1.389 . S
C373 C374 1.387 . S
C374 H359 0.930 . S
C374 C369 1.390 . S
C374 C373 1.387 . S
H375 C387 0.930 . S
H376 C389 0.930 . S
H377 C390 0.930 . S
H378 C394 0.959 . S
H379 C394 0.959 . S
H380 C394 0.961 . S
H381 C395 0.960 . S
H382 C395 0.961 . S
H383 C395 0.959 . S
H384 C398 0.929 . S
H385 C399 0.931 . S
H386 C401 0.930 . S
C387 H375 0.930 . S
C387 C388 1.399 . S
C387 C392 1.399 . S
C388 C387 1.399 . S
C388 C389 1.376 . S
C389 H376 0.930 . S
C389 C388 1.376 . S
C389 C390 1.388 . S
C390 H377 0.930 . S
C390 C389 1.388 . S
C390 C391 1.390 . S
C391 C390 1.390 . S
C391 C392 1.394 . S
C391 C397 1.465 . S
C392 C387 1.399 . S
C392 C391 1.394 . S
C392 C393 1.516 . S
C393 C392 1.516 . S
C393 C394 1.502 . S
C393 C395 1.561 . S
C393 C396 1.526 . S
C394 H378 0.959 . S
C394 H379 0.959 . S
C394 H380 0.961 . S
C394 C393 1.502 . S
C395 H381 0.960 . S
C395 H382 0.961 . S
C395 H383 0.959 . S
C395 C393 1.561 . S
C396 C393 1.526 . S
C396 C397 1.396 . S
C396 C401 1.390 . S
C397 C391 1.465 . S
C397 C396 1.396 . S
C397 C398 1.399 . S
C398 H384 0.929 . S
C398 C397 1.399 . S
C398 C399 1.385 . S
C399 H385 0.931 . S
C399 C398 1.385 . S
C399 C400 1.389 . S
C400 C399 1.389 . S
C400 C401 1.387 . S
C401 H386 0.930 . S
C401 C396 1.390 . S
C401 C400 1.387 . S
C91 C5 1.947 . S
C103 C44 1.927 . S
C118 C18 1.915 . S
C130 C57 1.952 . S
C145 C31 1.923 . S
C157 C70 1.942 . S
C172 C23 2.026 . S
C184 C62 2.001 . S
C199 C75 2.029 . S
C211 C36 1.998 . S
C226 C49 1.997 . S
C238 C10 2.022 . S
C253 C29 1.628 . S
C265 C1 1.605 . S
C280 C42 1.580 . S
C292 C14 1.656 . S
C307 C27 1.632 . S
C319 C55 1.595 . S
C334 C68 1.623 . S
C346 C40 1.608 . S
C361 C53 1.622 . S
C373 C3 1.605 . S
C388 C66 1.659 . S
C400 C16 1.585 . S
