# Generated by pormake.
# Topology uot, (4)-cn, num edge types: 1
# Building blocks:
#     Node 0, Type 0, BuildingBlock: ICAMEG_clean_sbu_1, # of connection points: 4
#     Node 1, Type 0, BuildingBlock: ICAMEG_clean_sbu_1, # of connection points: 4
#     Node 2, Type 0, BuildingBlock: ICAMEG_clean_sbu_1, # of connection points: 4
#     Node 3, Type 0, BuildingBlock: ICAMEG_clean_sbu_1, # of connection points: 4
#     Node 4, Type 0, BuildingBlock: ICAMEG_clean_sbu_1, # of connection points: 4
#     Node 5, Type 0, BuildingBlock: ICAMEG_clean_sbu_1, # of connection points: 4
#     Node 6, Type 0, BuildingBlock: ICAMEG_clean_sbu_1, # of connection points: 4
#     Node 7, Type 0, BuildingBlock: ICAMEG_clean_sbu_1, # of connection points: 4
#     Node 8, Type 0, BuildingBlock: ICAMEG_clean_sbu_1, # of connection points: 4
#     Node 9, Type 0, BuildingBlock: ICAMEG_clean_sbu_1, # of connection points: 4
#     Node 10, Type 0, BuildingBlock: ICAMEG_clean_sbu_1, # of connection points: 4
#     Node 11, Type 0, BuildingBlock: ICAMEG_clean_sbu_1, # of connection points: 4
#     Node 12, Type 0, BuildingBlock: ICAMEG_clean_sbu_1, # of connection points: 4
#     Node 13, Type 0, BuildingBlock: ICAMEG_clean_sbu_1, # of connection points: 4
#     Node 14, Type 0, BuildingBlock: ICAMEG_clean_sbu_1, # of connection points: 4
#     Node 15, Type 0, BuildingBlock: ICAMEG_clean_sbu_1, # of connection points: 4
#     Edge 16, Type (0, 0), BuildingBlock: UVAHIK_clean_linker_0, # of connection points: 2
#     Edge 17, Type (0, 0), BuildingBlock: UVAHIK_clean_linker_0, # of connection points: 2
#     Edge 18, Type (0, 0), BuildingBlock: UVAHIK_clean_linker_0, # of connection points: 2
#     Edge 19, Type (0, 0), BuildingBlock: UVAHIK_clean_linker_0, # of connection points: 2
#     Edge 20, Type (0, 0), BuildingBlock: UVAHIK_clean_linker_0, # of connection points: 2
#     Edge 21, Type (0, 0), BuildingBlock: UVAHIK_clean_linker_0, # of connection points: 2
#     Edge 22, Type (0, 0), BuildingBlock: UVAHIK_clean_linker_0, # of connection points: 2
#     Edge 23, Type (0, 0), BuildingBlock: UVAHIK_clean_linker_0, # of connection points: 2
#     Edge 24, Type (0, 0), BuildingBlock: UVAHIK_clean_linker_0, # of connection points: 2
#     Edge 25, Type (0, 0), BuildingBlock: UVAHIK_clean_linker_0, # of connection points: 2
#     Edge 26, Type (0, 0), BuildingBlock: UVAHIK_clean_linker_0, # of connection points: 2
#     Edge 27, Type (0, 0), BuildingBlock: UVAHIK_clean_linker_0, # of connection points: 2
#     Edge 28, Type (0, 0), BuildingBlock: UVAHIK_clean_linker_0, # of connection points: 2
#     Edge 29, Type (0, 0), BuildingBlock: UVAHIK_clean_linker_0, # of connection points: 2
#     Edge 30, Type (0, 0), BuildingBlock: UVAHIK_clean_linker_0, # of connection points: 2
#     Edge 31, Type (0, 0), BuildingBlock: UVAHIK_clean_linker_0, # of connection points: 2
#     Edge 32, Type (0, 0), BuildingBlock: UVAHIK_clean_linker_0, # of connection points: 2
#     Edge 33, Type (0, 0), BuildingBlock: UVAHIK_clean_linker_0, # of connection points: 2
#     Edge 34, Type (0, 0), BuildingBlock: UVAHIK_clean_linker_0, # of connection points: 2
#     Edge 35, Type (0, 0), BuildingBlock: UVAHIK_clean_linker_0, # of connection points: 2
#     Edge 36, Type (0, 0), BuildingBlock: UVAHIK_clean_linker_0, # of connection points: 2
#     Edge 37, Type (0, 0), BuildingBlock: UVAHIK_clean_linker_0, # of connection points: 2
#     Edge 38, Type (0, 0), BuildingBlock: UVAHIK_clean_linker_0, # of connection points: 2
#     Edge 39, Type (0, 0), BuildingBlock: UVAHIK_clean_linker_0, # of connection points: 2
#     Edge 40, Type (0, 0), BuildingBlock: UVAHIK_clean_linker_0, # of connection points: 2
#     Edge 41, Type (0, 0), BuildingBlock: UVAHIK_clean_linker_0, # of connection points: 2
#     Edge 42, Type (0, 0), BuildingBlock: UVAHIK_clean_linker_0, # of connection points: 2
#     Edge 43, Type (0, 0), BuildingBlock: UVAHIK_clean_linker_0, # of connection points: 2
#     Edge 44, Type (0, 0), BuildingBlock: UVAHIK_clean_linker_0, # of connection points: 2
#     Edge 45, Type (0, 0), BuildingBlock: UVAHIK_clean_linker_0, # of connection points: 2
#     Edge 46, Type (0, 0), BuildingBlock: UVAHIK_clean_linker_0, # of connection points: 2
#     Edge 47, Type (0, 0), BuildingBlock: UVAHIK_clean_linker_0, # of connection points: 2
# Relax obj value: 0.030
# Max RMSD: 0.051
# Mean RMSD: 0.051
data_MOF--net-uot--node1-ICAMEG_clean_sbu_1--edge1-UVAHIK_clean_linker_0
_symmetry_space_group_name_H-M    P1
_symmetry_Int_Tables_number       1
_symmetry_cell_setting            triclinic
loop_
_symmetry_equiv_pos_as_xyz
'x, y, z'
_cell_length_a     59.734354
_cell_length_b     59.732491
_cell_length_c     58.912453
_cell_angle_alpha  90.011757
_cell_angle_beta   90.002817
_cell_angle_gamma 90.013431
loop_
_atom_site_label
_atom_site_type_symbol
_atom_site_fract_x
_atom_site_fract_y
_atom_site_fract_z
_atom_type_partial_charge
Co0 Co 0.16404 0.43884 0.35407 0.0
Co1 Co 0.20585 0.43805 0.31341 0.0
O2 O 0.19494 0.43359 0.34444 0.0
C3 C 0.19118 0.46555 0.387 0.0
O4 O 0.20465 0.47166 0.37052 0.0
C5 C 0.21792 0.39095 0.32355 0.0
O6 O 0.19744 0.3881 0.33113 0.0
O7 O 0.18033 0.42074 0.30029 0.0
O8 O 0.15247 0.42473 0.32568 0.0
H9 H 0.19913 0.45793 0.23081 0.0
H10 H 0.19613 0.41491 0.38376 0.0
O11 O 0.17462 0.45272 0.38304 0.0
H12 H 0.13322 0.36254 0.37284 0.0
H13 H 0.10077 0.44162 0.41056 0.0
H14 H 0.123 0.45492 0.33108 0.0
H15 H 0.13238 0.40019 0.35567 0.0
H16 H 0.1395 0.4344 0.39804 0.0
O17 O 0.22395 0.40991 0.31575 0.0
H18 H 0.18542 0.45245 0.26991 0.0
H19 H 0.25038 0.43261 0.2912 0.0
H20 H 0.08402 0.46215 0.34282 0.0
H21 H 0.19759 0.37753 0.4015 0.0
H22 H 0.0727 0.45551 0.38282 0.0
H23 H 0.16602 0.35101 0.39598 0.0
O24 O 0.16378 0.46898 0.33937 0.0
H25 H 0.26969 0.45182 0.36721 0.0
H26 H 0.22631 0.48248 0.30314 0.0
H27 H 0.25726 0.50461 0.3194 0.0
H28 H 0.27922 0.48927 0.35164 0.0
H29 H 0.23846 0.43034 0.35059 0.0
H30 H 0.26477 0.43771 0.2523 0.0
H31 H 0.23908 0.45054 0.2218 0.0
O32 O 0.18816 0.46618 0.31046 0.0
C33 C 0.1601 0.41794 0.30666 0.0
C34 C 0.2105 0.45238 0.24396 0.0
C35 C 0.24733 0.441 0.25601 0.0
N36 N 0.2171 0.44232 0.28283 0.0
C37 C 0.20284 0.44929 0.26614 0.0
C38 C 0.23908 0.43808 0.278 0.0
C39 C 0.23291 0.44821 0.23891 0.0
C40 C 0.18228 0.4035 0.38137 0.0
N41 N 0.16427 0.40964 0.36851 0.0
C42 C 0.18322 0.38234 0.39142 0.0
C43 C 0.16551 0.36746 0.3883 0.0
C44 C 0.14713 0.37391 0.37529 0.0
C45 C 0.1468 0.39518 0.36547 0.0
C46 C 0.10549 0.44455 0.39307 0.0
C47 C 0.11815 0.45185 0.34848 0.0
C48 C 0.12741 0.44056 0.3859 0.0
N49 N 0.13346 0.44411 0.36381 0.0
C50 C 0.09608 0.45604 0.35504 0.0
C51 C 0.08975 0.45233 0.3775 0.0
C52 C 0.17326 0.47679 0.32162 0.0
C53 C 0.26029 0.45865 0.35312 0.0
C54 C 0.23572 0.47572 0.31723 0.0
C55 C 0.25328 0.48831 0.32632 0.0
C56 C 0.2656 0.47968 0.3444 0.0
N57 N 0.23063 0.4551 0.32585 0.0
C58 C 0.24265 0.44653 0.34357 0.0
Co59 Co 0.43533 0.83916 0.6483 0.0
Co60 Co 0.43826 0.797 0.68855 0.0
O61 O 0.43191 0.80804 0.65795 0.0
C62 C 0.46285 0.81328 0.61528 0.0
O63 O 0.46983 0.80046 0.63193 0.0
C64 C 0.39085 0.7849 0.68069 0.0
O65 O 0.38787 0.80534 0.67309 0.0
O66 O 0.42151 0.82226 0.7029 0.0
O67 O 0.42126 0.84992 0.677 0.0
H68 H 0.46306 0.80335 0.76979 0.0
H69 H 0.41265 0.80598 0.61879 0.0
O70 O 0.44924 0.82924 0.61911 0.0
H71 H 0.35695 0.86557 0.63162 0.0
H72 H 0.4336 0.90238 0.59176 0.0
H73 H 0.44959 0.88106 0.67099 0.0
H74 H 0.39485 0.86846 0.64799 0.0
H75 H 0.42874 0.86333 0.60445 0.0
O76 O 0.41006 0.77876 0.68774 0.0
H77 H 0.45519 0.81725 0.73118 0.0
H78 H 0.43426 0.75234 0.71078 0.0
H79 H 0.45449 0.92036 0.65908 0.0
H80 H 0.37503 0.8025 0.60187 0.0
H81 H 0.44648 0.93122 0.6192 0.0
H82 H 0.34685 0.83239 0.60835 0.0
O83 O 0.46564 0.84109 0.66243 0.0
H84 H 0.44932 0.73388 0.63325 0.0
H85 H 0.48321 0.77657 0.69613 0.0
H86 H 0.50457 0.74596 0.67824 0.0
H87 H 0.4876 0.72436 0.64658 0.0
H88 H 0.42864 0.76477 0.65149 0.0
H89 H 0.44174 0.73776 0.74922 0.0
H90 H 0.45632 0.76333 0.77901 0.0
O91 O 0.46643 0.81492 0.68985 0.0
C92 C 0.41662 0.8421 0.69658 0.0
C93 C 0.45676 0.79203 0.75694 0.0
C94 C 0.44476 0.75523 0.74541 0.0
N95 N 0.4444 0.7856 0.71873 0.0
C96 C 0.45233 0.79979 0.73504 0.0
C97 C 0.44051 0.76359 0.72369 0.0
C98 C 0.45296 0.76958 0.76211 0.0
C99 C 0.40052 0.81913 0.62156 0.0
N100 N 0.40589 0.83736 0.63448 0.0
C101 C 0.37923 0.81704 0.61199 0.0
C102 C 0.36341 0.8338 0.61565 0.0
C103 C 0.36906 0.8524 0.62873 0.0
C104 C 0.3905 0.8539 0.63807 0.0
C105 C 0.43711 0.89786 0.60919 0.0
C106 C 0.44593 0.8857 0.65365 0.0
C107 C 0.43445 0.87577 0.61646 0.0
N108 N 0.43874 0.86996 0.63848 0.0
C109 C 0.4488 0.90796 0.64699 0.0
C110 C 0.44433 0.91404 0.6246 0.0
C111 C 0.47529 0.83108 0.6789 0.0
C112 C 0.45687 0.74314 0.64707 0.0
C113 C 0.47576 0.76731 0.68231 0.0
C114 C 0.4879 0.74995 0.67228 0.0
C115 C 0.47837 0.73783 0.65453 0.0
N116 N 0.45468 0.77242 0.6749 0.0
C117 C 0.44521 0.76058 0.65753 0.0
Co118 Co 0.83763 0.56463 0.35299 0.0
Co119 Co 0.79734 0.56667 0.3109 0.0
O120 O 0.80724 0.57076 0.34231 0.0
C121 C 0.80874 0.53842 0.38442 0.0
O122 O 0.79599 0.5329 0.36716 0.0
C123 C 0.78608 0.61396 0.32089 0.0
O124 O 0.80632 0.61623 0.32927 0.0
O125 O 0.82369 0.58345 0.29886 0.0
O126 O 0.85061 0.57805 0.3249 0.0
H127 H 0.80667 0.54719 0.22846 0.0
H128 H 0.80568 0.58931 0.38216 0.0
O129 O 0.82565 0.55108 0.38157 0.0
H130 H 0.86949 0.6406 0.37142 0.0
H131 H 0.89881 0.56071 0.41167 0.0
H132 H 0.87897 0.54715 0.33158 0.0
H133 H 0.86982 0.6029 0.35437 0.0
H134 H 0.86073 0.56878 0.39773 0.0
O135 O 0.77985 0.59522 0.31272 0.0
H136 H 0.81907 0.5522 0.26808 0.0
H137 H 0.75376 0.57312 0.2871 0.0
H138 H 0.91732 0.53904 0.34476 0.0
H139 H 0.80472 0.62678 0.39972 0.0
H140 H 0.92744 0.54581 0.38508 0.0
H141 H 0.83675 0.65276 0.39432 0.0
O142 O 0.83747 0.53447 0.33842 0.0
H143 H 0.73127 0.55421 0.36218 0.0
H144 H 0.77626 0.52275 0.29966 0.0
H145 H 0.74423 0.50129 0.31464 0.0
H146 H 0.72146 0.51704 0.3461 0.0
H147 H 0.76358 0.575 0.34686 0.0
H148 H 0.74069 0.56852 0.24765 0.0
H149 H 0.76721 0.55538 0.21804 0.0
O150 O 0.81449 0.53811 0.30845 0.0
C151 C 0.84387 0.58525 0.3057 0.0
C152 C 0.79493 0.55287 0.24122 0.0
C153 C 0.75791 0.56486 0.25199 0.0
N154 N 0.78712 0.56279 0.2799 0.0
C155 C 0.80184 0.55568 0.26369 0.0
C156 C 0.76542 0.56749 0.27428 0.0
C157 C 0.7728 0.55748 0.23538 0.0
C158 C 0.81976 0.60045 0.37988 0.0
N159 N 0.83778 0.59393 0.36723 0.0
C160 C 0.81909 0.62168 0.38981 0.0
C161 C 0.83705 0.63625 0.38674 0.0
C162 C 0.85541 0.62945 0.37387 0.0
C163 C 0.85547 0.60812 0.36417 0.0
C164 C 0.89462 0.55772 0.39406 0.0
C165 C 0.8833 0.55027 0.34912 0.0
C166 C 0.87307 0.56221 0.38607 0.0
N167 N 0.86769 0.55858 0.36382 0.0
C168 C 0.90502 0.54559 0.3565 0.0
C169 C 0.91068 0.54937 0.37913 0.0
C170 C 0.82855 0.52701 0.32023 0.0
C171 C 0.74103 0.5472 0.34843 0.0
C172 C 0.7665 0.52968 0.31342 0.0
C173 C 0.74834 0.51748 0.32179 0.0
C174 C 0.73556 0.52633 0.33942 0.0
N175 N 0.77174 0.55015 0.32232 0.0
C176 C 0.75928 0.55895 0.33961 0.0
Co177 Co 0.56414 0.16236 0.65093 0.0
Co178 Co 0.56893 0.20491 0.6897 0.0
O179 O 0.57191 0.1932 0.65884 0.0
C180 C 0.54067 0.1894 0.6158 0.0
O181 O 0.53413 0.20324 0.63178 0.0
C182 C 0.61551 0.21731 0.67744 0.0
O183 O 0.61864 0.19656 0.6708 0.0
O184 O 0.58738 0.1799 0.70197 0.0
O185 O 0.57543 0.15107 0.6808 0.0
H186 H 0.5549 0.1996 0.77362 0.0
H187 H 0.59216 0.18911 0.61953 0.0
O188 O 0.55275 0.17251 0.62069 0.0
H189 H 0.63829 0.1237 0.63999 0.0
H190 H 0.55824 0.09621 0.59826 0.0
H191 H 0.54239 0.12469 0.67518 0.0
H192 H 0.60011 0.12791 0.65532 0.0
H193 H 0.56862 0.13477 0.60895 0.0
O194 O 0.59658 0.22336 0.68527 0.0
H195 H 0.55815 0.18512 0.73455 0.0
H196 H 0.57465 0.25008 0.71049 0.0
H197 H 0.53188 0.08597 0.66527 0.0
H198 H 0.6302 0.18546 0.60364 0.0
H199 H 0.53981 0.07149 0.62656 0.0
H200 H 0.65356 0.1526 0.61392 0.0
O201 O 0.53371 0.16612 0.66414 0.0
H202 H 0.55112 0.26733 0.63547 0.0
H203 H 0.5249 0.22504 0.70226 0.0
H204 H 0.50145 0.25535 0.68671 0.0
H205 H 0.51455 0.27676 0.65311 0.0
H206 H 0.57394 0.23672 0.65142 0.0
H207 H 0.57177 0.26524 0.74933 0.0
H208 H 0.56173 0.23994 0.78121 0.0
O209 O 0.54112 0.18688 0.69498 0.0
C210 C 0.58578 0.15898 0.69797 0.0
C211 C 0.55921 0.21081 0.75986 0.0
C212 C 0.5687 0.24764 0.74624 0.0
N213 N 0.56638 0.21678 0.72023 0.0
C214 C 0.56101 0.20272 0.73769 0.0
C215 C 0.57035 0.23896 0.72429 0.0
C216 C 0.56307 0.23344 0.76411 0.0
C217 C 0.60215 0.17466 0.6239 0.0
N218 N 0.59388 0.1587 0.63824 0.0
C219 C 0.62371 0.17273 0.61493 0.0
C220 C 0.63682 0.1543 0.62073 0.0
C221 C 0.62827 0.13809 0.63537 0.0
C222 C 0.60665 0.14059 0.64404 0.0
C223 C 0.55474 0.1023 0.6152 0.0
C224 C 0.54601 0.11847 0.65834 0.0
C225 C 0.56054 0.12414 0.62133 0.0
N226 N 0.55627 0.13191 0.64272 0.0
C227 C 0.53997 0.09655 0.65281 0.0
C228 C 0.5444 0.08845 0.63108 0.0
C229 C 0.52822 0.17424 0.68338 0.0
C230 C 0.54526 0.25816 0.65016 0.0
C231 C 0.53068 0.2342 0.68756 0.0
C232 C 0.51735 0.2514 0.67888 0.0
C233 C 0.52473 0.26342 0.66004 0.0
N234 N 0.55081 0.22916 0.67779 0.0
C235 C 0.55816 0.24088 0.65932 0.0
Co236 Co 0.16776 0.56604 0.64952 0.0
Co237 Co 0.20955 0.56653 0.69039 0.0
O238 O 0.19867 0.57109 0.65935 0.0
C239 C 0.19517 0.53819 0.61792 0.0
O240 O 0.20916 0.53378 0.6345 0.0
C241 C 0.22061 0.61405 0.68077 0.0
O242 O 0.20035 0.61645 0.67246 0.0
O243 O 0.18344 0.58292 0.70369 0.0
O244 O 0.15632 0.58132 0.67723 0.0
H245 H 0.20283 0.54492 0.77254 0.0
H246 H 0.20046 0.58807 0.61901 0.0
O247 O 0.17825 0.55072 0.62124 0.0
H248 H 0.13908 0.6425 0.62824 0.0
H249 H 0.10507 0.56262 0.59243 0.0
H250 H 0.12606 0.55185 0.67265 0.0
H251 H 0.13727 0.60552 0.6468 0.0
H252 H 0.14383 0.56936 0.60513 0.0
O253 O 0.22683 0.59522 0.6887 0.0
H254 H 0.18926 0.55068 0.73343 0.0
H255 H 0.25373 0.57301 0.7131 0.0
H256 H 0.08705 0.54511 0.66071 0.0
H257 H 0.20288 0.62475 0.59993 0.0
H258 H 0.07635 0.55048 0.62033 0.0
H259 H 0.17208 0.65229 0.60458 0.0
O260 O 0.16656 0.53645 0.66531 0.0
H261 H 0.27397 0.5557 0.63664 0.0
H262 H 0.23165 0.52279 0.70027 0.0
H263 H 0.26338 0.50197 0.68382 0.0
H264 H 0.28482 0.51845 0.65179 0.0
H265 H 0.24195 0.57582 0.65343 0.0
H266 H 0.26795 0.56767 0.75203 0.0
H267 H 0.24244 0.55345 0.78205 0.0
O268 O 0.19273 0.53784 0.69268 0.0
C269 C 0.16361 0.587 0.69674 0.0
C270 C 0.21412 0.55108 0.7596 0.0
C271 C 0.25066 0.56388 0.7481 0.0
N272 N 0.22071 0.56207 0.72098 0.0
C273 C 0.20654 0.55433 0.73741 0.0
C274 C 0.24249 0.56693 0.7261 0.0
C275 C 0.23634 0.55589 0.76493 0.0
C276 C 0.18693 0.59991 0.62098 0.0
N277 N 0.16878 0.5947 0.63406 0.0
C278 C 0.18842 0.62068 0.61019 0.0
C279 C 0.17114 0.63614 0.61283 0.0
C280 C 0.15264 0.63066 0.62613 0.0
C281 C 0.15174 0.60975 0.63668 0.0
C282 C 0.10951 0.56025 0.61007 0.0
C283 C 0.12149 0.55437 0.65508 0.0
C284 C 0.13145 0.56399 0.61736 0.0
N285 N 0.13716 0.56114 0.63964 0.0
C286 C 0.0994 0.55046 0.6484 0.0
C287 C 0.09341 0.55345 0.62574 0.0
C288 C 0.1769 0.52793 0.68219 0.0
C289 C 0.26479 0.54836 0.65062 0.0
C290 C 0.24079 0.53 0.68624 0.0
C291 C 0.2588 0.51818 0.67706 0.0
C292 C 0.27084 0.52745 0.6591 0.0
N293 N 0.23494 0.5505 0.67782 0.0
C294 C 0.2467 0.55972 0.66026 0.0
Co295 Co 0.56636 0.83519 0.35415 0.0
Co296 Co 0.56677 0.79337 0.31332 0.0
O297 O 0.57138 0.80429 0.34434 0.0
C298 C 0.53834 0.80784 0.38556 0.0
O299 O 0.53392 0.79395 0.3689 0.0
C300 C 0.61435 0.78281 0.32285 0.0
O301 O 0.61645 0.80306 0.33127 0.0
O302 O 0.58294 0.81956 0.29993 0.0
O303 O 0.5816 0.84663 0.32643 0.0
H304 H 0.54477 0.79986 0.23126 0.0
H305 H 0.58833 0.80251 0.38472 0.0
O306 O 0.55101 0.82469 0.38239 0.0
H307 H 0.64286 0.86381 0.3754 0.0
H308 H 0.56297 0.89788 0.41125 0.0
H309 H 0.55215 0.87689 0.33103 0.0
H310 H 0.60589 0.86564 0.35685 0.0
H311 H 0.56969 0.85911 0.39854 0.0
O312 O 0.59561 0.77633 0.3149 0.0
H313 H 0.55061 0.81351 0.27033 0.0
H314 H 0.57344 0.74923 0.29063 0.0
H315 H 0.54544 0.9159 0.34298 0.0
H316 H 0.62501 0.80007 0.4038 0.0
H317 H 0.55084 0.9266 0.38336 0.0
H318 H 0.65261 0.83083 0.3991 0.0
O319 O 0.53679 0.83637 0.33836 0.0
H320 H 0.55655 0.72889 0.36711 0.0
H321 H 0.52307 0.77107 0.3037 0.0
H322 H 0.50249 0.73923 0.32025 0.0
H323 H 0.51926 0.71786 0.35217 0.0
H324 H 0.57644 0.76101 0.35022 0.0
H325 H 0.56803 0.73493 0.25173 0.0
H326 H 0.55351 0.7603 0.22175 0.0
O327 O 0.53796 0.81003 0.31114 0.0
C328 C 0.5871 0.83937 0.30687 0.0
C329 C 0.55106 0.78863 0.24418 0.0
C330 C 0.56414 0.75219 0.25566 0.0
N331 N 0.56225 0.78216 0.28276 0.0
C332 C 0.55435 0.79625 0.26635 0.0
C333 C 0.56723 0.7604 0.27764 0.0
C334 C 0.55598 0.76644 0.23885 0.0
C335 C 0.60019 0.81603 0.38273 0.0
N336 N 0.59501 0.83417 0.36962 0.0
C337 C 0.62096 0.81453 0.39351 0.0
C338 C 0.63645 0.83178 0.39085 0.0
C339 C 0.631 0.85027 0.37753 0.0
C340 C 0.61009 0.85118 0.36697 0.0
C341 C 0.5606 0.89343 0.3936 0.0
C342 C 0.55469 0.88146 0.3486 0.0
C343 C 0.56433 0.87149 0.38631 0.0
N344 N 0.56147 0.86578 0.36403 0.0
C345 C 0.55079 0.90355 0.35528 0.0
C346 C 0.5538 0.90954 0.37794 0.0
C347 C 0.52815 0.82593 0.3216 0.0
C348 C 0.54909 0.73804 0.35318 0.0
C349 C 0.53042 0.76195 0.31767 0.0
C350 C 0.51872 0.74388 0.32692 0.0
C351 C 0.52815 0.73188 0.34481 0.0
N352 N 0.55094 0.76789 0.32596 0.0
C353 C 0.56031 0.75618 0.34348 0.0
Co354 Co 0.8372 0.43944 0.64746 0.0
Co355 Co 0.79594 0.43684 0.68828 0.0
O356 O 0.80657 0.433 0.65711 0.0
C357 C 0.80938 0.46464 0.61409 0.0
O358 O 0.79647 0.4715 0.63072 0.0
C359 C 0.78426 0.38979 0.67766 0.0
O360 O 0.80485 0.38719 0.67032 0.0
O361 O 0.82165 0.41939 0.7007 0.0
O362 O 0.84948 0.42699 0.6763 0.0
H363 H 0.80351 0.45466 0.77129 0.0
H364 H 0.80688 0.41339 0.61771 0.0
O365 O 0.82598 0.45188 0.61809 0.0
H366 H 0.87122 0.36373 0.63222 0.0
H367 H 0.90049 0.44306 0.59109 0.0
H368 H 0.87731 0.4585 0.6699 0.0
H369 H 0.87016 0.40181 0.64832 0.0
H370 H 0.86209 0.4345 0.6038 0.0
O371 O 0.77795 0.40865 0.68549 0.0
H372 H 0.81683 0.45011 0.73193 0.0
H373 H 0.75163 0.43086 0.7108 0.0
H374 H 0.91594 0.46713 0.65796 0.0
H375 H 0.80734 0.37551 0.60104 0.0
H376 H 0.92774 0.4594 0.61829 0.0
H377 H 0.83965 0.35036 0.60835 0.0
O378 O 0.83585 0.46988 0.66135 0.0
H379 H 0.7316 0.45147 0.63535 0.0
H380 H 0.77537 0.48093 0.69976 0.0
H381 H 0.74419 0.50326 0.68427 0.0
H382 H 0.72204 0.48852 0.65186 0.0
H383 H 0.76306 0.42979 0.65123 0.0
H384 H 0.73763 0.43503 0.74997 0.0
H385 H 0.76364 0.4471 0.78052 0.0
O386 O 0.81358 0.46507 0.6917 0.0
C387 C 0.8422 0.41874 0.69485 0.0
C388 C 0.792 0.44946 0.75812 0.0
C389 C 0.75503 0.43842 0.74615 0.0
N390 N 0.78499 0.4404 0.71906 0.0
C391 C 0.79943 0.44692 0.73579 0.0
C392 C 0.76306 0.43604 0.72402 0.0
C393 C 0.76963 0.4452 0.76328 0.0
C394 C 0.82108 0.40261 0.62081 0.0
N395 N 0.83847 0.40981 0.63399 0.0
C396 C 0.82121 0.38115 0.61139 0.0
C397 C 0.83933 0.36704 0.61552 0.0
C398 C 0.85704 0.37452 0.62893 0.0
C399 C 0.85631 0.39607 0.6381 0.0
C400 C 0.89555 0.44647 0.60842 0.0
C401 C 0.88236 0.45499 0.65264 0.0
C402 C 0.87381 0.44172 0.6157 0.0
N403 N 0.8675 0.44589 0.63761 0.0
C404 C 0.90424 0.45995 0.64596 0.0
C405 C 0.91084 0.45564 0.6237 0.0
C406 C 0.82721 0.47673 0.67992 0.0
C407 C 0.74109 0.45804 0.64952 0.0
C408 C 0.76586 0.47444 0.6856 0.0
C409 C 0.74819 0.48713 0.67694 0.0
C410 C 0.73575 0.47884 0.65877 0.0
N411 N 0.77098 0.45403 0.67646 0.0
C412 C 0.75886 0.4458 0.65864 0.0
Co413 Co 0.43746 0.1665 0.3535 0.0
Co414 Co 0.43626 0.20896 0.31352 0.0
O415 O 0.43266 0.19768 0.34452 0.0
C416 C 0.46634 0.1927 0.38508 0.0
O417 O 0.47123 0.20644 0.36843 0.0
C418 C 0.38968 0.22151 0.32522 0.0
O419 O 0.38687 0.20101 0.33275 0.0
O420 O 0.41807 0.18397 0.3007 0.0
O421 O 0.42183 0.15569 0.32559 0.0
H422 H 0.45281 0.20295 0.23011 0.0
H423 H 0.41607 0.19864 0.38506 0.0
O424 O 0.45312 0.17628 0.38187 0.0
H425 H 0.36088 0.13808 0.3748 0.0
H426 H 0.44076 0.10253 0.4091 0.0
H427 H 0.45122 0.12524 0.32932 0.0
H428 H 0.39766 0.13634 0.35586 0.0
H429 H 0.43427 0.14162 0.39734 0.0
O430 O 0.4085 0.22748 0.31704 0.0
H431 H 0.44847 0.18882 0.26919 0.0
H432 H 0.43104 0.25392 0.29216 0.0
H433 H 0.45771 0.08592 0.3403 0.0
H434 H 0.3796 0.20097 0.40455 0.0
H435 H 0.45248 0.07435 0.38045 0.0
H436 H 0.35167 0.17058 0.39939 0.0
O437 O 0.46687 0.16553 0.33742 0.0
H438 H 0.45284 0.27201 0.36746 0.0
H439 H 0.48075 0.22866 0.30208 0.0
H440 H 0.50394 0.25905 0.31793 0.0
H441 H 0.48998 0.28099 0.35083 0.0
H442 H 0.4303 0.24133 0.35123 0.0
H443 H 0.43503 0.26874 0.25329 0.0
H444 H 0.44607 0.24319 0.22195 0.0
O445 O 0.46394 0.19077 0.3093 0.0
C446 C 0.41482 0.16375 0.30684 0.0
C447 C 0.44806 0.21426 0.24363 0.0
C448 C 0.43805 0.25118 0.25663 0.0
N449 N 0.43968 0.22055 0.28296 0.0
C450 C 0.44563 0.20637 0.2658 0.0
C451 C 0.43577 0.24269 0.2786 0.0
C452 C 0.44425 0.23684 0.23906 0.0
C453 C 0.40406 0.18528 0.38286 0.0
N454 N 0.40895 0.1674 0.36926 0.0
C455 C 0.38341 0.18672 0.39389 0.0
C456 C 0.36774 0.16968 0.39096 0.0
C457 C 0.37289 0.15145 0.37714 0.0
C458 C 0.39369 0.1506 0.36636 0.0
C459 C 0.44305 0.10736 0.39154 0.0
C460 C 0.44877 0.1203 0.34679 0.0
C461 C 0.43945 0.12948 0.38479 0.0
N462 N 0.4422 0.13566 0.36263 0.0
C463 C 0.45253 0.09803 0.35293 0.0
C464 C 0.44962 0.09155 0.37546 0.0
C465 C 0.47439 0.17522 0.31968 0.0
C466 C 0.45907 0.26262 0.35308 0.0
C467 C 0.4746 0.23807 0.31646 0.0
C468 C 0.48778 0.2553 0.32532 0.0
C469 C 0.47993 0.26762 0.34376 0.0
N470 N 0.45415 0.23328 0.32568 0.0
C471 C 0.44634 0.24529 0.34375 0.0
Co472 Co 0.66394 0.93651 0.85308 0.0
Co473 Co 0.70596 0.93591 0.81309 0.0
O474 O 0.69467 0.93018 0.84371 0.0
C475 C 0.69139 0.95915 0.88832 0.0
O476 O 0.70424 0.96704 0.87211 0.0
C477 C 0.71762 0.88834 0.82125 0.0
O478 O 0.69693 0.88522 0.82807 0.0
O479 O 0.68046 0.91918 0.79923 0.0
O480 O 0.65209 0.92658 0.82303 0.0
H481 H 0.7 0.95875 0.73124 0.0
H482 H 0.6926 0.90775 0.88197 0.0
O483 O 0.67482 0.94659 0.88354 0.0
H484 H 0.62817 0.86053 0.86077 0.0
H485 H 0.59955 0.93724 0.90823 0.0
H486 H 0.62475 0.9582 0.8314 0.0
H487 H 0.63059 0.89965 0.84764 0.0
H488 H 0.63802 0.9288 0.89564 0.0
O489 O 0.72392 0.90761 0.81453 0.0
H490 H 0.68593 0.95187 0.76998 0.0
H491 H 0.75068 0.93115 0.79109 0.0
H492 H 0.58608 0.96681 0.84322 0.0
H493 H 0.69075 0.86876 0.89564 0.0
H494 H 0.57326 0.9563 0.88189 0.0
H495 H 0.65839 0.84485 0.88498 0.0
O496 O 0.66618 0.96773 0.84157 0.0
H497 H 0.76906 0.94732 0.86832 0.0
H498 H 0.72706 0.98044 0.80458 0.0
H499 H 0.75791 0.00175 0.8221 0.0
H500 H 0.77918 0.98517 0.85418 0.0
H501 H 0.73793 0.92669 0.85045 0.0
H502 H 0.76541 0.93763 0.75253 0.0
H503 H 0.74001 0.95161 0.72231 0.0
O504 O 0.68844 0.96445 0.81102 0.0
C505 C 0.6597 0.91898 0.80433 0.0
C506 C 0.71124 0.95271 0.74428 0.0
C507 C 0.74795 0.94083 0.75622 0.0
N508 N 0.7175 0.94127 0.78281 0.0
C509 C 0.70339 0.94884 0.76626 0.0
C510 C 0.7395 0.93714 0.77801 0.0
C511 C 0.73369 0.94869 0.73927 0.0
C512 C 0.67835 0.89751 0.87745 0.0
N513 N 0.66168 0.906 0.86412 0.0
C514 C 0.67745 0.87542 0.88516 0.0
C515 C 0.6593 0.862 0.87914 0.0
C516 C 0.64235 0.87079 0.86554 0.0
C517 C 0.64384 0.89294 0.85812 0.0
C518 C 0.60492 0.94186 0.89132 0.0
C519 C 0.61925 0.95346 0.84821 0.0
C520 C 0.62669 0.93716 0.88412 0.0
N521 N 0.63356 0.94285 0.86275 0.0
C522 C 0.59735 0.95843 0.85483 0.0
C523 C 0.59018 0.95255 0.87653 0.0
C524 C 0.67494 0.97557 0.82348 0.0
C525 C 0.75996 0.9547 0.85431 0.0
C526 C 0.73615 0.97316 0.8186 0.0
C527 C 0.75366 0.98527 0.82841 0.0
C528 C 0.7656 0.97595 0.8464 0.0
N529 N 0.73072 0.95232 0.82645 0.0
C530 C 0.74237 0.94306 0.84406 0.0
Co531 Co 0.93519 0.33854 0.15044 0.0
Co532 Co 0.93571 0.29564 0.1899 0.0
O533 O 0.93082 0.30729 0.15926 0.0
C534 C 0.963 0.3129 0.1175 0.0
O535 O 0.96967 0.29986 0.13412 0.0
C536 C 0.88879 0.28317 0.17972 0.0
O537 O 0.88576 0.30377 0.17262 0.0
O538 O 0.91801 0.32044 0.20379 0.0
O539 O 0.92074 0.34905 0.17912 0.0
H540 H 0.95589 0.30056 0.27256 0.0
H541 H 0.91235 0.30658 0.11969 0.0
O542 O 0.94945 0.32891 0.12132 0.0
H543 H 0.85788 0.36727 0.13259 0.0
H544 H 0.93615 0.40302 0.09536 0.0
H545 H 0.94998 0.37957 0.17439 0.0
H546 H 0.89546 0.36885 0.14987 0.0
H547 H 0.93011 0.36383 0.10702 0.0
O548 O 0.90785 0.2771 0.18724 0.0
H549 H 0.9499 0.3152 0.23389 0.0
H550 H 0.9313 0.25043 0.21088 0.0
H551 H 0.95603 0.419 0.1635 0.0
H552 H 0.87507 0.30441 0.10184 0.0
H553 H 0.94912 0.43093 0.12373 0.0
H554 H 0.84749 0.33486 0.10835 0.0
O555 O 0.96526 0.33942 0.16526 0.0
H556 H 0.95039 0.23366 0.13417 0.0
H557 H 0.98059 0.27582 0.19932 0.0
H558 H 0.00324 0.24581 0.18201 0.0
H559 H 0.98813 0.22448 0.14921 0.0
H560 H 0.92839 0.26393 0.15186 0.0
H561 H 0.93692 0.23511 0.24935 0.0
H562 H 0.94939 0.26024 0.28048 0.0
O563 O 0.96349 0.31385 0.19317 0.0
C564 C 0.91447 0.34072 0.19802 0.0
C565 C 0.95051 0.28943 0.25912 0.0
C566 C 0.93983 0.25271 0.2461 0.0
N567 N 0.94039 0.28367 0.22013 0.0
C568 C 0.94714 0.29762 0.23718 0.0
C569 C 0.93663 0.26149 0.22437 0.0
C570 C 0.94684 0.26681 0.26356 0.0
C571 C 0.90049 0.31996 0.12249 0.0
N572 N 0.90602 0.33776 0.13594 0.0
C573 C 0.87938 0.31861 0.11238 0.0
C574 C 0.86391 0.33569 0.11606 0.0
C575 C 0.86972 0.35386 0.12969 0.0
C576 C 0.89097 0.35461 0.13955 0.0
C577 C 0.93919 0.39803 0.11275 0.0
C578 C 0.94679 0.38468 0.15708 0.0
C579 C 0.93586 0.37585 0.11944 0.0
N580 N 0.93955 0.36946 0.1414 0.0
C581 C 0.95031 0.40701 0.151 0.0
C582 C 0.94645 0.41368 0.12868 0.0
C583 C 0.97349 0.32955 0.18257 0.0
C584 C 0.95712 0.24279 0.14849 0.0
C585 C 0.97393 0.26666 0.18501 0.0
C586 C 0.98681 0.24965 0.17531 0.0
C587 C 0.97831 0.23767 0.15692 0.0
N588 N 0.95314 0.27155 0.17666 0.0
C589 C 0.9447 0.25988 0.15865 0.0
Co590 Co 0.33139 0.06384 0.85276 0.0
Co591 Co 0.29369 0.06624 0.80826 0.0
O592 O 0.3016 0.06913 0.8403 0.0
C593 C 0.32205 0.02927 0.88737 0.0
O594 O 0.33717 0.01698 0.87706 0.0
C595 C 0.28146 0.11291 0.81963 0.0
O596 O 0.30133 0.1149 0.82894 0.0
O597 O 0.32048 0.08376 0.79858 0.0
O598 O 0.34584 0.07914 0.8264 0.0
H599 H 0.3081 0.05005 0.72584 0.0
H600 H 0.29648 0.08564 0.88089 0.0
O601 O 0.31708 0.04856 0.87953 0.0
H602 H 0.35825 0.14026 0.87669 0.0
H603 H 0.38878 0.06095 0.91545 0.0
H604 H 0.37468 0.04832 0.83396 0.0
H605 H 0.3615 0.10345 0.85804 0.0
H606 H 0.35138 0.06788 0.89912 0.0
O607 O 0.27573 0.09452 0.81031 0.0
H608 H 0.31804 0.05349 0.76633 0.0
H609 H 0.25161 0.0735 0.78206 0.0
H610 H 0.41235 0.04125 0.84956 0.0
H611 H 0.29261 0.12216 0.90002 0.0
H612 H 0.41958 0.04756 0.89059 0.0
H613 H 0.3236 0.14981 0.89791 0.0
O614 O 0.33355 0.03463 0.83635 0.0
H615 H 0.22495 0.05069 0.85487 0.0
H616 H 0.27377 0.02279 0.79358 0.0
H617 H 0.24105 1.00046 0.80536 0.0
H618 H 0.21633 0.01443 0.83617 0.0
H619 H 0.25797 0.0724 0.84269 0.0
H620 H 0.24098 0.07046 0.74171 0.0
H621 H 0.26932 0.05857 0.7133 0.0
O622 O 0.31134 0.03802 0.80575 0.0
C623 C 0.34003 0.08638 0.80689 0.0
C624 C 0.29559 0.05519 0.73806 0.0
C625 C 0.25793 0.06667 0.74697 0.0
N626 N 0.28539 0.06356 0.77655 0.0
C627 C 0.3011 0.05711 0.76102 0.0
C628 C 0.26405 0.06843 0.76978 0.0
C629 C 0.27383 0.05999 0.73104 0.0
C630 C 0.31013 0.09749 0.88008 0.0
N631 N 0.32922 0.09239 0.86838 0.0
C632 C 0.30781 0.11818 0.89087 0.0
C633 C 0.32519 0.1337 0.88964 0.0
C634 C 0.34462 0.12837 0.87772 0.0
C635 C 0.34633 0.10753 0.86711 0.0
C636 C 0.38584 0.05817 0.89754 0.0
C637 C 0.37773 0.05118 0.85181 0.0
C638 C 0.36471 0.06206 0.8882 0.0
N639 N 0.36089 0.05859 0.86559 0.0
C640 C 0.39908 0.04711 0.86056 0.0
C641 C 0.40312 0.05065 0.88358 0.0
C642 C 0.32552 0.02725 0.81771 0.0
C643 C 0.23557 0.04446 0.84139 0.0
C644 C 0.26316 0.02894 0.80707 0.0
C645 C 0.24462 0.01624 0.81363 0.0
C646 C 0.23075 0.0241 0.83091 0.0
N647 N 0.26771 0.04894 0.81737 0.0
C648 C 0.25425 0.05671 0.83438 0.0
Co649 Co 0.06856 0.66347 0.14857 0.0
Co650 Co 0.06719 0.70678 0.18759 0.0
O651 O 0.07258 0.69486 0.15712 0.0
C652 C 0.04108 0.68851 0.11476 0.0
O653 O 0.03444 0.7021 0.13093 0.0
C654 C 0.11418 0.71961 0.17805 0.0
O655 O 0.11756 0.69898 0.17117 0.0
O656 O 0.08489 0.68226 0.20199 0.0
O657 O 0.08272 0.6534 0.17755 0.0
H658 H 0.04604 0.70253 0.27004 0.0
H659 H 0.09153 0.69523 0.11775 0.0
O660 O 0.05455 0.67257 0.11912 0.0
H661 H 0.1463 0.63512 0.13207 0.0
H662 H 0.06874 0.59832 0.09426 0.0
H663 H 0.05374 0.62263 0.17281 0.0
H664 H 0.10853 0.63348 0.1489 0.0
H665 H 0.0744 0.63769 0.10553 0.0
O666 O 0.09493 0.72554 0.18515 0.0
H667 H 0.05259 0.68756 0.23159 0.0
H668 H 0.07095 0.75225 0.20817 0.0
H669 H 0.04807 0.58304 0.16231 0.0
H670 H 0.12901 0.69746 0.10033 0.0
H671 H 0.05557 0.57067 0.12278 0.0
H672 H 0.15674 0.6673 0.10755 0.0
O673 O 0.03832 0.66255 0.16299 0.0
H674 H 0.05281 0.7682 0.13115 0.0
H675 H 0.02202 0.72631 0.19618 0.0
H676 H 0.99939 0.75601 0.17832 0.0
H677 H 0.0148 0.7772 0.14558 0.0
H678 H 0.07479 0.73822 0.14939 0.0
H679 H 0.06476 0.7679 0.24641 0.0
H680 H 0.05213 0.74298 0.27765 0.0
O681 O 0.03951 0.68838 0.19069 0.0
C682 C 0.08864 0.66195 0.19648 0.0
C683 C 0.05148 0.71357 0.25656 0.0
C684 C 0.06202 0.75025 0.2433 0.0
N685 N 0.06201 0.71903 0.21763 0.0
C686 C 0.05517 0.7052 0.23475 0.0
C687 C 0.06555 0.74128 0.2217 0.0
C688 C 0.05493 0.73626 0.26082 0.0
C689 C 0.10346 0.68198 0.12086 0.0
N690 N 0.0979 0.6643 0.13445 0.0
C691 C 0.12467 0.68336 0.11099 0.0
C692 C 0.14023 0.66645 0.11507 0.0
C693 C 0.13439 0.64841 0.12885 0.0
C694 C 0.11303 0.64762 0.13846 0.0
C695 C 0.06545 0.6035 0.11155 0.0
C696 C 0.05719 0.61733 0.15561 0.0
C697 C 0.06857 0.62578 0.11802 0.0
N698 N 0.06455 0.63241 0.13985 0.0
C699 C 0.05388 0.59492 0.14975 0.0
C700 C 0.05807 0.58799 0.12756 0.0
C701 C 0.02978 0.6725 0.1801 0.0
C702 C 0.04595 0.75912 0.14545 0.0
C703 C 0.02881 0.7354 0.18189 0.0
C704 C 0.01594 0.75224 0.17188 0.0
C705 C 0.0246 0.76414 0.15353 0.0
N706 N 0.04974 0.7306 0.17389 0.0
C707 C 0.05835 0.7422 0.15591 0.0
Co708 Co 0.66549 0.06335 0.14801 0.0
Co709 Co 0.70619 0.06542 0.18982 0.0
O710 O 0.69617 0.06874 0.15834 0.0
C711 C 0.69339 0.03475 0.1177 0.0
O712 O 0.70665 0.03028 0.13487 0.0
C713 C 0.7185 0.11219 0.17847 0.0
O714 O 0.69829 0.11474 0.17011 0.0
O715 O 0.6803 0.08312 0.20155 0.0
O716 O 0.65328 0.07889 0.17533 0.0
H717 H 0.69703 0.04853 0.27286 0.0
H718 H 0.69859 0.08514 0.1178 0.0
O719 O 0.67667 0.04772 0.12019 0.0
H720 H 0.63674 0.13933 0.12505 0.0
H721 H 0.60396 0.05872 0.08972 0.0
H722 H 0.62349 0.049 0.17046 0.0
H723 H 0.6348 0.10261 0.14409 0.0
H724 H 0.64242 0.06593 0.10311 0.0
O725 O 0.72433 0.0935 0.18704 0.0
H726 H 0.68448 0.05261 0.23319 0.0
H727 H 0.75007 0.07167 0.21315 0.0
H728 H 0.58477 0.04181 0.15782 0.0
H729 H 0.70117 0.12157 0.09825 0.0
H730 H 0.57481 0.04666 0.11718 0.0
H731 H 0.67013 0.149 0.1019 0.0
O732 O 0.6643 0.034 0.16418 0.0
H733 H 0.77176 0.05005 0.13868 0.0
H734 H 0.7263 0.02137 0.20222 0.0
H735 H 0.75778 0.9988 0.18776 0.0
H736 H 0.78079 0.01314 0.1558 0.0
H737 H 0.73997 0.07197 0.1535 0.0
H738 H 0.7633 0.06796 0.25264 0.0
H739 H 0.73671 0.05624 0.2828 0.0
O740 O 0.68842 0.0374 0.19324 0.0
C741 C 0.66033 0.08602 0.19444 0.0
C742 C 0.70879 0.0536 0.25986 0.0
C743 C 0.74597 0.06454 0.24852 0.0
N744 N 0.71654 0.06224 0.22086 0.0
C745 C 0.70179 0.05589 0.23736 0.0
C746 C 0.73837 0.06666 0.2262 0.0
C747 C 0.73105 0.05795 0.26543 0.0
C748 C 0.68496 0.09694 0.11934 0.0
N749 N 0.6666 0.0918 0.13216 0.0
C750 C 0.68654 0.11756 0.10829 0.0
C751 C 0.66913 0.13295 0.11037 0.0
C752 C 0.65041 0.12755 0.12338 0.0
C753 C 0.64943 0.10678 0.13422 0.0
C754 C 0.60809 0.05659 0.10748 0.0
C755 C 0.61924 0.0513 0.15277 0.0
C756 C 0.62985 0.0606 0.11515 0.0
N757 N 0.63514 0.05805 0.13758 0.0
C758 C 0.59731 0.04713 0.14571 0.0
C759 C 0.59174 0.04983 0.1229 0.0
C760 C 0.67347 0.02665 0.18228 0.0
C761 C 0.7619 0.04365 0.15266 0.0
C762 C 0.73616 0.02769 0.18824 0.0
C763 C 0.75402 0.01486 0.18017 0.0
C764 C 0.76693 0.02292 0.16225 0.0
N765 N 0.73134 0.04801 0.17876 0.0
C766 C 0.74394 0.05603 0.16119 0.0
Co767 Co 0.06257 0.33837 0.8546 0.0
Co768 Co 0.06584 0.298 0.81304 0.0
O769 O 0.06926 0.30788 0.84455 0.0
C770 C 0.03753 0.30989 0.88734 0.0
O771 O 0.03163 0.29675 0.87051 0.0
C772 C 0.11243 0.28496 0.82421 0.0
O773 O 0.11539 0.30522 0.83233 0.0
O774 O 0.08415 0.32361 0.80178 0.0
O775 O 0.07492 0.35115 0.82589 0.0
H776 H 0.05046 0.30804 0.7298 0.0
H777 H 0.08876 0.30828 0.88443 0.0
O778 O 0.05003 0.32678 0.88379 0.0
H779 H 0.13808 0.37287 0.86969 0.0
H780 H 0.05832 0.40095 0.91174 0.0
H781 H 0.04307 0.37855 0.83266 0.0
H782 H 0.10005 0.37148 0.85347 0.0
H783 H 0.06727 0.3628 0.89854 0.0
O784 O 0.09355 0.27934 0.81593 0.0
H785 H 0.05433 0.32029 0.7696 0.0
H786 H 0.07116 0.25408 0.78957 0.0
H787 H 0.03403 0.41693 0.84509 0.0
H788 H 0.12661 0.30908 0.90117 0.0
H789 H 0.04165 0.42835 0.88489 0.0
H790 H 0.15157 0.34152 0.89376 0.0
O791 O 0.03223 0.33687 0.84072 0.0
H792 H 0.04884 0.2325 0.8637 0.0
H793 H 0.02152 0.27874 0.80013 0.0
H794 H 0.99827 0.24759 0.81423 0.0
H795 H 0.01193 0.22418 0.8462 0.0
H796 H 0.07145 0.26397 0.84923 0.0
H797 H 0.06765 0.24115 0.74996 0.0
H798 H 0.05714 0.2682 0.71977 0.0
O799 O 0.03803 0.31633 0.80934 0.0
C800 C 0.08407 0.34415 0.80767 0.0
C801 C 0.05497 0.29607 0.74282 0.0
C802 C 0.06464 0.25854 0.75412 0.0
N803 N 0.06276 0.28788 0.78191 0.0
C804 C 0.05712 0.3029 0.76539 0.0
C805 C 0.06665 0.26596 0.77651 0.0
C806 C 0.05874 0.27373 0.7372 0.0
C807 C 0.09945 0.32255 0.88131 0.0
N808 N 0.09217 0.33984 0.86806 0.0
C809 C 0.1209 0.32287 0.89076 0.0
C810 C 0.13491 0.34106 0.88657 0.0
C811 C 0.12735 0.35865 0.87305 0.0
C812 C 0.10582 0.35774 0.86386 0.0
C813 C 0.05496 0.3962 0.89434 0.0
C814 C 0.04656 0.38343 0.84997 0.0
C815 C 0.05995 0.3746 0.88678 0.0
N816 N 0.05584 0.36851 0.86481 0.0
C817 C 0.04135 0.40517 0.85692 0.0
C818 C 0.04561 0.41156 0.87927 0.0
C819 C 0.02595 0.32923 0.82153 0.0
C820 C 0.04273 0.24253 0.84971 0.0
C821 C 0.02754 0.26871 0.81413 0.0
C822 C 0.01432 0.25104 0.82199 0.0
C823 C 0.02201 0.2379 0.83992 0.0
N824 N 0.04786 0.27313 0.82381 0.0
C825 C 0.05551 0.26032 0.84139 0.0
Co826 Co 0.33722 0.94101 0.15139 0.0
Co827 Co 0.29713 0.93734 0.19296 0.0
O828 O 0.30696 0.9339 0.16154 0.0
C829 C 0.30943 0.96665 0.1185 0.0
O830 O 0.2992 0.97632 0.13563 0.0
C831 C 0.28467 0.89058 0.1819 0.0
O832 O 0.30515 0.88775 0.17434 0.0
O833 O 0.32298 0.91935 0.20416 0.0
O834 O 0.35042 0.92951 0.18029 0.0
H835 H 0.30706 0.95329 0.2761 0.0
H836 H 0.30758 0.91345 0.12225 0.0
O837 O 0.32484 0.95235 0.12203 0.0
H838 H 0.37349 0.86612 0.13756 0.0
H839 H 0.39917 0.94575 0.09363 0.0
H840 H 0.37719 0.96166 0.17269 0.0
H841 H 0.37123 0.90441 0.15304 0.0
H842 H 0.3613 0.93627 0.10729 0.0
O843 O 0.27872 0.90943 0.19003 0.0
H844 H 0.3193 0.94941 0.2363 0.0
H845 H 0.25334 0.93142 0.2165 0.0
H846 H 0.41528 0.97126 0.15978 0.0
H847 H 0.30925 0.87533 0.10625 0.0
H848 H 0.42648 0.9633 0.11999 0.0
H849 H 0.34236 0.85135 0.11395 0.0
O850 O 0.33517 0.97155 0.16487 0.0
H851 H 0.23212 0.95407 0.14157 0.0
H852 H 0.27715 0.98126 0.2061 0.0
H853 H 0.24596 0.00431 0.19178 0.0
H854 H 0.22317 0.99072 0.15931 0.0
H855 H 0.26358 0.93163 0.15632 0.0
H856 H 0.24041 0.93492 0.25611 0.0
H857 H 0.26734 0.94602 0.28621 0.0
O858 O 0.31513 0.96538 0.19652 0.0
C859 C 0.34356 0.92002 0.1984 0.0
C860 C 0.29514 0.94851 0.26312 0.0
C861 C 0.25774 0.93817 0.25191 0.0
N862 N 0.28702 0.94038 0.22408 0.0
C863 C 0.30197 0.94635 0.24056 0.0
C864 C 0.26517 0.93617 0.22952 0.0
C865 C 0.27286 0.94441 0.26879 0.0
C866 C 0.32214 0.9032 0.1255 0.0
N867 N 0.33931 0.91118 0.1385 0.0
C868 C 0.32295 0.88159 0.11647 0.0
C869 C 0.34152 0.86814 0.12082 0.0
C870 C 0.35898 0.87641 0.13409 0.0
C871 C 0.35758 0.89808 0.14286 0.0
C872 C 0.3945 0.94926 0.11102 0.0
C873 C 0.38198 0.95803 0.15538 0.0
C874 C 0.37307 0.94397 0.11884 0.0
N875 N 0.36711 0.94825 0.14082 0.0
C876 C 0.40355 0.96356 0.14816 0.0
C877 C 0.40982 0.9591 0.12582 0.0
C878 C 0.32758 0.97775 0.18413 0.0
C879 C 0.24189 0.96015 0.15577 0.0
C880 C 0.26735 0.97525 0.19193 0.0
C881 C 0.24968 0.98836 0.18393 0.0
C882 C 0.23689 0.98072 0.16572 0.0
N883 N 0.27211 0.95506 0.18213 0.0
C884 C 0.25967 0.94747 0.16425 0.0
Co885 Co 0.93675 0.66373 0.85187 0.0
Co886 Co 0.93634 0.70655 0.81223 0.0
O887 O 0.93205 0.69497 0.84302 0.0
C888 C 0.965 0.6898 0.88413 0.0
O889 O 0.97016 0.70362 0.86763 0.0
C890 C 0.88938 0.71876 0.82288 0.0
O891 O 0.88648 0.6982 0.8302 0.0
O892 O 0.91867 0.68151 0.79872 0.0
O893 O 0.92161 0.65311 0.8236 0.0
H894 H 0.95531 0.70136 0.72929 0.0
H895 H 0.91474 0.69565 0.88322 0.0
O896 O 0.9519 0.67336 0.88059 0.0
H897 H 0.8599 0.63501 0.87166 0.0
H898 H 0.93925 0.59941 0.90709 0.0
H899 H 0.95097 0.62265 0.82765 0.0
H900 H 0.897 0.63346 0.85337 0.0
H901 H 0.93287 0.63856 0.89548 0.0
O902 O 0.90836 0.72485 0.81517 0.0
H903 H 0.95004 0.68688 0.76813 0.0
H904 H 0.93123 0.75161 0.79107 0.0
H905 H 0.95736 0.58327 0.83848 0.0
H906 H 0.87793 0.6978 0.90207 0.0
H907 H 0.9515 0.57144 0.87846 0.0
H908 H 0.85018 0.66736 0.89625 0.0
O909 O 0.96645 0.66287 0.83631 0.0
H910 H 0.95106 0.76922 0.86717 0.0
H911 H 0.98093 0.72673 0.80209 0.0
H912 H 0.00346 0.75715 0.81881 0.0
H913 H 0.98852 0.77866 0.85156 0.0
H914 H 0.92919 0.7385 0.85008 0.0
H915 H 0.93612 0.76677 0.75244 0.0
H916 H 0.94833 0.74159 0.72125 0.0
O917 O 0.96427 0.68862 0.80861 0.0
C918 C 0.91514 0.66128 0.8047 0.0
C919 C 0.95004 0.71252 0.74275 0.0
C920 C 0.93924 0.74922 0.75574 0.0
N921 N 0.94047 0.71841 0.78187 0.0
C922 C 0.94708 0.70442 0.76479 0.0
C923 C 0.93645 0.74053 0.77756 0.0
C924 C 0.9461 0.73508 0.73825 0.0
C925 C 0.90281 0.68228 0.88073 0.0
N926 N 0.90797 0.66449 0.86712 0.0
C927 C 0.88197 0.68361 0.8914 0.0
C928 C 0.86639 0.66655 0.8881 0.0
C929 C 0.87182 0.6484 0.87428 0.0
C930 C 0.89281 0.64766 0.86387 0.0
C931 C 0.94182 0.60435 0.88961 0.0
C932 C 0.94824 0.61759 0.84504 0.0
C933 C 0.93828 0.62651 0.88294 0.0
N934 N 0.94138 0.63284 0.86087 0.0
C935 C 0.95195 0.59529 0.85109 0.0
C936 C 0.94868 0.58866 0.87353 0.0
C937 C 0.97446 0.6729 0.81898 0.0
C938 C 0.95772 0.76001 0.85286 0.0
C939 C 0.97435 0.73594 0.8164 0.0
C940 C 0.98716 0.7532 0.82576 0.0
C941 C 0.97875 0.76527 0.84412 0.0
N942 N 0.95372 0.7309 0.82506 0.0
C943 C 0.94537 0.74267 0.84305 0.0
C944 C 0.22867 0.35136 0.33337 0.0
C945 C 0.23428 0.37229 0.32403 0.0
C946 C 0.24432 0.33388 0.33364 0.0
C947 C 0.29644 0.31513 0.30542 0.0
H948 H 0.30448 0.27826 0.35897 0.0
C949 C 0.37388 0.25939 0.31675 0.0
C950 C 0.37095 0.23779 0.32575 0.0
C951 C 0.35626 0.27473 0.31666 0.0
C952 C 0.30224 0.28822 0.34378 0.0
H953 H 0.26086 0.39128 0.30786 0.0
H954 H 0.288 0.36103 0.30849 0.0
H955 H 0.27524 0.30691 0.3585 0.0
H956 H 0.3472 0.21552 0.34207 0.0
H957 H 0.3163 0.2424 0.34181 0.0
H958 H 0.32348 0.29668 0.29074 0.0
C959 C 0.27144 0.35794 0.31531 0.0
C960 C 0.28548 0.30463 0.34351 0.0
C961 C 0.25588 0.37537 0.31508 0.0
C962 C 0.35001 0.23201 0.33496 0.0
C963 C 0.33233 0.24744 0.33492 0.0
C964 C 0.31314 0.29878 0.3057 0.0
C965 C 0.26586 0.33695 0.32449 0.0
C966 C 0.28262 0.3185 0.32443 0.0
C967 C 0.33522 0.26893 0.32559 0.0
C968 C 0.31648 0.28535 0.32499 0.0
H969 H 0.21219 0.34845 0.34046 0.0
H970 H 0.23945 0.31787 0.34072 0.0
H971 H 0.29437 0.32518 0.29026 0.0
H972 H 0.3898 0.26451 0.30963 0.0
H973 H 0.35919 0.29127 0.30973 0.0
C974 C 0.37489 0.74732 0.69033 0.0
C975 C 0.37201 0.76874 0.6809 0.0
C976 C 0.35726 0.73197 0.69058 0.0
C977 C 0.30382 0.71796 0.66266 0.0
H978 H 0.29518 0.6812 0.71619 0.0
C979 C 0.23087 0.65389 0.67139 0.0
C980 C 0.23658 0.63305 0.68088 0.0
C981 C 0.24623 0.67164 0.67159 0.0
C982 C 0.29746 0.6912 0.70103 0.0
H983 H 0.34831 0.79074 0.66414 0.0
H984 H 0.31743 0.76387 0.66467 0.0
H985 H 0.32408 0.70995 0.71616 0.0
H986 H 0.26302 0.61454 0.69784 0.0
H987 H 0.28963 0.64524 0.698 0.0
H988 H 0.27731 0.69895 0.64746 0.0
C989 C 0.33342 0.75896 0.67178 0.0
C990 C 0.31404 0.70769 0.70102 0.0
C991 C 0.35107 0.7744 0.6716 0.0
C992 C 0.25796 0.63037 0.69049 0.0
C993 C 0.27322 0.64805 0.69072 0.0
C994 C 0.2872 0.70141 0.66267 0.0
C995 C 0.33629 0.73759 0.68136 0.0
C996 C 0.31766 0.72105 0.68173 0.0
C997 C 0.26756 0.66893 0.68136 0.0
C998 C 0.28407 0.68761 0.68175 0.0
H999 H 0.3908 0.74234 0.69756 0.0
H1000 H 0.36017 0.71553 0.69776 0.0
H1001 H 0.30629 0.72785 0.64746 0.0
H1002 H 0.21456 0.6565 0.66381 0.0
H1003 H 0.2413 0.68756 0.66435 0.0
C1004 C 0.63155 0.74611 0.31222 0.0
C1005 C 0.63365 0.76722 0.32257 0.0
C1006 C 0.64955 0.73124 0.3118 0.0
C1007 C 0.70248 0.71719 0.34047 0.0
H1008 H 0.71288 0.68263 0.28574 0.0
C1009 C 0.77575 0.65352 0.33124 0.0
C1010 C 0.77018 0.63301 0.32096 0.0
C1011 C 0.76046 0.67132 0.33126 0.0
C1012 C 0.71011 0.69203 0.30121 0.0
H1013 H 0.65635 0.78914 0.3408 0.0
H1014 H 0.68794 0.76305 0.33998 0.0
H1015 H 0.68381 0.71119 0.2861 0.0
H1016 H 0.7441 0.61511 0.30277 0.0
H1017 H 0.71761 0.64593 0.30294 0.0
H1018 H 0.72867 0.69773 0.35564 0.0
C1019 C 0.67225 0.75805 0.33227 0.0
C1020 C 0.69345 0.70841 0.30142 0.0
C1021 C 0.6542 0.77304 0.33263 0.0
C1022 C 0.74903 0.63069 0.31076 0.0
C1023 C 0.73385 0.64844 0.31072 0.0
C1024 C 0.7192 0.70076 0.34026 0.0
C1025 C 0.67014 0.73702 0.32174 0.0
C1026 C 0.68914 0.72091 0.32116 0.0
C1027 C 0.73936 0.66899 0.3209 0.0
C1028 C 0.72293 0.68771 0.32074 0.0
H1029 H 0.61596 0.74099 0.30439 0.0
H1030 H 0.64722 0.71502 0.3039 0.0
H1031 H 0.69947 0.72643 0.35599 0.0
H1032 H 0.79188 0.65584 0.3393 0.0
H1033 H 0.76525 0.68699 0.33914 0.0
C1034 C 0.6552 0.22808 0.66788 0.0
C1035 C 0.63401 0.23386 0.67649 0.0
C1036 C 0.67264 0.2438 0.66766 0.0
C1037 C 0.69048 0.29627 0.69564 0.0
H1038 H 0.72903 0.30386 0.64325 0.0
C1039 C 0.74634 0.37374 0.68548 0.0
C1040 C 0.76817 0.3709 0.67703 0.0
C1041 C 0.7311 0.35604 0.68528 0.0
C1042 C 0.7186 0.30175 0.65813 0.0
H1043 H 0.61447 0.26087 0.69121 0.0
H1044 H 0.64465 0.28807 0.6907 0.0
H1045 H 0.7004 0.27456 0.64307 0.0
H1046 H 0.79096 0.34718 0.66144 0.0
H1047 H 0.76426 0.31611 0.66123 0.0
H1048 H 0.70845 0.32343 0.71068 0.0
C1049 C 0.64796 0.27135 0.68444 0.0
C1050 C 0.7022 0.28496 0.65802 0.0
C1051 C 0.63059 0.25574 0.68459 0.0
C1052 C 0.7743 0.34992 0.66813 0.0
C1053 C 0.75897 0.33215 0.6679 0.0
C1054 C 0.70683 0.31297 0.69575 0.0
C1055 C 0.66925 0.26556 0.67616 0.0
C1056 C 0.68771 0.28228 0.67665 0.0
C1057 C 0.73723 0.33498 0.67663 0.0
C1058 C 0.72086 0.31617 0.67688 0.0
H1059 H 0.65838 0.21139 0.66146 0.0
H1060 H 0.68888 0.2388 0.66126 0.0
H1061 H 0.67994 0.29433 0.71047 0.0
H1062 H 0.74096 0.38969 0.69233 0.0
H1063 H 0.71437 0.35894 0.69174 0.0
C1064 C 0.75575 0.87294 0.81311 0.0
C1065 C 0.73394 0.86963 0.82144 0.0
C1066 C 0.77131 0.85552 0.81321 0.0
C1067 C 0.78471 0.8015 0.84033 0.0
H1068 H 0.82403 0.79487 0.78839 0.0
C1069 C 0.84947 0.72909 0.8318 0.0
C1070 C 0.87062 0.73503 0.8232 0.0
C1071 C 0.8318 0.74453 0.83164 0.0
C1072 C 0.81332 0.79659 0.80312 0.0
H1073 H 0.71148 0.84532 0.8366 0.0
H1074 H 0.73874 0.81475 0.83664 0.0
H1075 H 0.79495 0.82339 0.7879 0.0
H1076 H 0.88982 0.76202 0.80802 0.0
H1077 H 0.85924 0.7888 0.80792 0.0
H1078 H 0.80332 0.77475 0.85561 0.0
C1079 C 0.74377 0.83095 0.83015 0.0
C1080 C 0.79663 0.81295 0.80283 0.0
C1081 C 0.72812 0.84843 0.83 0.0
C1082 C 0.87374 0.75678 0.81466 0.0
C1083 C 0.85613 0.77214 0.81446 0.0
C1084 C 0.80147 0.78508 0.84062 0.0
C1085 C 0.76553 0.83428 0.82165 0.0
C1086 C 0.78232 0.81584 0.82155 0.0
C1087 C 0.8349 0.7662 0.8228 0.0
C1088 C 0.81619 0.78266 0.82214 0.0
H1089 H 0.7609 0.88906 0.8065 0.0
H1090 H 0.78803 0.85879 0.8069 0.0
H1091 H 0.77409 0.8034 0.8551 0.0
H1092 H 0.84651 0.71249 0.83855 0.0
H1093 H 0.81562 0.73937 0.83807 0.0
C1094 C 0.75622 0.12807 0.18754 0.0
C1095 C 0.73477 0.13095 0.17816 0.0
C1096 C 0.77164 0.14562 0.18762 0.0
C1097 C 0.78569 0.19918 0.15984 0.0
H1098 H 0.82264 0.20729 0.21335 0.0
C1099 C 0.84922 0.27247 0.16988 0.0
C1100 C 0.87014 0.2668 0.1792 0.0
C1101 C 0.83168 0.25688 0.16966 0.0
C1102 C 0.81258 0.20515 0.1982 0.0
H1103 H 0.71283 0.15457 0.16123 0.0
H1104 H 0.73982 0.18539 0.16152 0.0
H1105 H 0.79382 0.17848 0.21315 0.0
H1106 H 0.88907 0.24018 0.19537 0.0
H1107 H 0.85867 0.21315 0.19488 0.0
H1108 H 0.80466 0.22586 0.14488 0.0
C1109 C 0.74469 0.16942 0.16869 0.0
C1110 C 0.79606 0.18862 0.19808 0.0
C1111 C 0.72919 0.1518 0.16864 0.0
C1112 C 0.87316 0.24519 0.18816 0.0
C1113 C 0.85566 0.2297 0.18801 0.0
C1114 C 0.80226 0.21579 0.15997 0.0
C1115 C 0.76606 0.16656 0.17833 0.0
C1116 C 0.78262 0.18519 0.17879 0.0
C1117 C 0.83467 0.23536 0.17887 0.0
C1118 C 0.81612 0.21873 0.17905 0.0
H1119 H 0.76118 0.11221 0.1949 0.0
H1120 H 0.78807 0.14268 0.19479 0.0
H1121 H 0.77575 0.19686 0.14465 0.0
H1122 H 0.84635 0.28895 0.16279 0.0
H1123 H 0.81567 0.2618 0.16262 0.0
C1124 C 0.128 0.24739 0.8141 0.0
C1125 C 0.13099 0.26848 0.82425 0.0
C1126 C 0.14541 0.23182 0.81366 0.0
C1127 C 0.19821 0.21603 0.84167 0.0
H1128 H 0.20738 0.1818 0.7865 0.0
C1129 C 0.27086 0.15209 0.831 0.0
C1130 C 0.26542 0.13183 0.82015 0.0
C1131 C 0.25552 0.16982 0.83148 0.0
C1132 C 0.20493 0.19106 0.80211 0.0
H1133 H 0.15463 0.28962 0.8422 0.0
H1134 H 0.18517 0.26232 0.84138 0.0
H1135 H 0.17878 0.21081 0.7875 0.0
H1136 H 0.23945 0.11429 0.80147 0.0
H1137 H 0.21277 0.14497 0.80251 0.0
H1138 H 0.22424 0.19602 0.85634 0.0
C1139 C 0.16925 0.25787 0.83383 0.0
C1140 C 0.18854 0.20771 0.80268 0.0
C1141 C 0.15179 0.27355 0.8342 0.0
C1142 C 0.24429 0.12969 0.80987 0.0
C1143 C 0.229 0.14736 0.81034 0.0
C1144 C 0.21464 0.1993 0.84111 0.0
C1145 C 0.16629 0.23689 0.82339 0.0
C1146 C 0.18475 0.22019 0.82254 0.0
C1147 C 0.23442 0.16768 0.82108 0.0
C1148 C 0.21797 0.1864 0.82141 0.0
H1149 H 0.11219 0.24284 0.80637 0.0
H1150 H 0.14243 0.21568 0.80584 0.0
H1151 H 0.19559 0.22523 0.85729 0.0
H1152 H 0.28698 0.15428 0.83913 0.0
H1153 H 0.26029 0.18529 0.83975 0.0
C1154 C 0.24647 0.87509 0.18958 0.0
C1155 C 0.26825 0.87196 0.18111 0.0
C1156 C 0.2309 0.85766 0.18913 0.0
C1157 C 0.21765 0.80391 0.16115 0.0
H1158 H 0.17846 0.7964 0.21307 0.0
C1159 C 0.15398 0.73052 0.16938 0.0
C1160 C 0.1327 0.73615 0.17788 0.0
C1161 C 0.17141 0.74623 0.16962 0.0
C1162 C 0.18914 0.79838 0.19835 0.0
H1163 H 0.29064 0.84802 0.16527 0.0
H1164 H 0.26341 0.81745 0.16464 0.0
H1165 H 0.20728 0.82519 0.21383 0.0
H1166 H 0.11304 0.76283 0.193 0.0
H1167 H 0.14325 0.79007 0.19328 0.0
H1168 H 0.19932 0.77707 0.14566 0.0
C1169 C 0.25838 0.8335 0.1715 0.0
C1170 C 0.20567 0.8149 0.19878 0.0
C1171 C 0.27402 0.85099 0.17198 0.0
C1172 C 0.12922 0.75785 0.18643 0.0
C1173 C 0.14661 0.77346 0.18673 0.0
C1174 C 0.20108 0.78731 0.16073 0.0
C1175 C 0.23666 0.83661 0.1802 0.0
C1176 C 0.21994 0.8181 0.18008 0.0
C1177 C 0.16796 0.76784 0.17846 0.0
C1178 C 0.18643 0.78456 0.17922 0.0
H1179 H 0.24136 0.89105 0.19662 0.0
H1180 H 0.21422 0.86079 0.19559 0.0
H1181 H 0.22823 0.80604 0.14638 0.0
H1182 H 0.15721 0.71397 0.16263 0.0
H1183 H 0.1877 0.74133 0.16325 0.0
C1184 C 0.17451 0.50659 0.2918 0.0
C1185 C 0.16637 0.49908 0.31286 0.0
C1186 C 0.16758 0.52702 0.28279 0.0
C1187 C 0.12209 0.56901 0.2863 0.0
H1188 H 0.16237 0.6022 0.24712 0.0
C1189 C 0.09723 0.64996 0.23646 0.0
C1190 C 0.10009 0.64712 0.21293 0.0
C1191 C 0.10651 0.63455 0.25175 0.0
C1192 C 0.151 0.59318 0.25816 0.0
H1193 H 0.14475 0.50758 0.34117 0.0
H1194 H 0.13302 0.54367 0.32563 0.0
H1195 H 0.17658 0.57062 0.26899 0.0
H1196 H 0.11563 0.62644 0.18713 0.0
H1197 H 0.13233 0.60013 0.21372 0.0
H1198 H 0.09655 0.59185 0.27527 0.0
C1199 C 0.14451 0.53345 0.31589 0.0
C1200 C 0.15905 0.57497 0.27056 0.0
C1201 C 0.15133 0.5128 0.32487 0.0
C1202 C 0.11304 0.62908 0.20509 0.0
C1203 C 0.1227 0.61405 0.22032 0.0
C1204 C 0.11412 0.58751 0.27413 0.0
C1205 C 0.15247 0.54078 0.29465 0.0
C1206 C 0.14455 0.56212 0.2842 0.0
C1207 C 0.11929 0.61644 0.24376 0.0
C1208 C 0.12838 0.59932 0.25944 0.0
H1209 H 0.18601 0.49651 0.28192 0.0
H1210 H 0.1737 0.53171 0.26616 0.0
H1211 H 0.11036 0.55949 0.29645 0.0
H1212 H 0.08724 0.66364 0.243 0.0
H1213 H 0.10367 0.63671 0.26978 0.0
C1214 C 0.5065 0.8594 0.67825 0.0
C1215 C 0.49758 0.83917 0.68651 0.0
C1216 C 0.52654 0.86794 0.68704 0.0
C1217 C 0.55804 0.88902 0.72173 0.0
H1218 H 0.6084 0.8514 0.7383 0.0
C1219 C 0.62018 0.91328 0.79154 0.0
C1220 C 0.64322 0.90998 0.78781 0.0
C1221 C 0.60437 0.90519 0.77619 0.0
C1222 C 0.5946 0.86217 0.73352 0.0
H1223 H 0.50336 0.81167 0.70991 0.0
H1224 H 0.53816 0.82653 0.72508 0.0
H1225 H 0.5776 0.83571 0.71593 0.0
H1226 H 0.6676 0.89537 0.76489 0.0
H1227 H 0.63971 0.88083 0.73809 0.0
H1228 H 0.5747 0.9153 0.73977 0.0
C1229 C 0.52974 0.83574 0.71175 0.0
C1230 C 0.57689 0.85316 0.72089 0.0
C1231 C 0.50965 0.8273 0.70312 0.0
C1232 C 0.65001 0.89822 0.76828 0.0
C1233 C 0.63407 0.88985 0.75298 0.0
C1234 C 0.57561 0.89795 0.73449 0.0
C1235 C 0.53822 0.85635 0.70412 0.0
C1236 C 0.55821 0.86639 0.71522 0.0
C1237 C 0.61109 0.89339 0.75674 0.0
C1238 C 0.59386 0.88452 0.74093 0.0
H1239 H 0.4977 0.869 0.66546 0.0
H1240 H 0.53275 0.88377 0.68067 0.0
H1241 H 0.54385 0.89963 0.71782 0.0
H1242 H 0.61422 0.92222 0.80635 0.0
H1243 H 0.58679 0.90788 0.77976 0.0
C1244 C 0.89024 0.3739 0.20587 0.0
C1245 C 0.90278 0.35574 0.21411 0.0
C1246 C 0.88023 0.38899 0.22079 0.0
C1247 C 0.88728 0.41534 0.27495 0.0
H1248 H 0.82531 0.43315 0.26743 0.0
C1249 C 0.84942 0.4905 0.32434 0.0
C1250 C 0.83519 0.50456 0.31173 0.0
C1251 C 0.85614 0.46972 0.31561 0.0
C1252 C 0.8427 0.42854 0.26968 0.0
H1253 H 0.91453 0.33911 0.24458 0.0
H1254 H 0.89749 0.36617 0.27083 0.0
H1255 H 0.83987 0.40137 0.24608 0.0
H1256 H 0.81684 0.50758 0.28003 0.0
H1257 H 0.82899 0.47209 0.26473 0.0
H1258 H 0.89061 0.44329 0.29745 0.0
C1259 C 0.89524 0.36836 0.25272 0.0
C1260 C 0.85094 0.41021 0.25757 0.0
C1261 C 0.90488 0.35288 0.23772 0.0
C1262 C 0.8277 0.49723 0.29035 0.0
C1263 C 0.83454 0.47666 0.2816 0.0
C1264 C 0.87913 0.43394 0.28684 0.0
C1265 C 0.88286 0.38657 0.24432 0.0
C1266 C 0.87342 0.40376 0.2597 0.0
C1267 C 0.84889 0.46259 0.29404 0.0
C1268 C 0.85687 0.44115 0.28388 0.0
H1269 H 0.88823 0.37656 0.18784 0.0
H1270 H 0.87093 0.403 0.21388 0.0
H1271 H 0.90474 0.41076 0.27674 0.0
H1272 H 0.85546 0.49557 0.3409 0.0
H1273 H 0.86702 0.45926 0.32579 0.0
C1274 C 0.50234 0.17239 0.71673 0.0
C1275 C 0.50662 0.16745 0.69377 0.0
C1276 C 0.48312 0.16435 0.7274 0.0
C1277 C 0.42613 0.14496 0.71975 0.0
H1278 H 0.43712 0.11088 0.77464 0.0
C1279 C 0.35521 0.09918 0.76922 0.0
C1280 C 0.35732 0.09772 0.79295 0.0
C1281 C 0.37256 0.10814 0.75603 0.0
C1282 C 0.43361 0.12067 0.75959 0.0
H1283 H 0.49337 0.15094 0.66382 0.0
H1284 H 0.45932 0.13729 0.68257 0.0
H1285 H 0.4685 0.12619 0.75347 0.0
H1286 H 0.37895 0.10551 0.82145 0.0
H1287 H 0.40849 0.12198 0.7988 0.0
H1288 H 0.39117 0.14013 0.72624 0.0
C1289 C 0.47115 0.14725 0.69219 0.0
C1290 C 0.45167 0.12928 0.74738 0.0
C1291 C 0.49064 0.15501 0.68152 0.0
C1292 C 0.37679 0.10617 0.80323 0.0
C1293 C 0.39391 0.11543 0.79014 0.0
C1294 C 0.40794 0.13663 0.73221 0.0
C1295 C 0.4675 0.15147 0.71535 0.0
C1296 C 0.44812 0.14164 0.72746 0.0
C1297 C 0.3923 0.1161 0.76631 0.0
C1298 C 0.41146 0.12455 0.75245 0.0
H1299 H 0.51415 0.18196 0.72675 0.0
H1300 H 0.48057 0.16801 0.74524 0.0
H1301 H 0.423 0.15452 0.70445 0.0
H1302 H 0.34047 0.09273 0.76073 0.0
H1303 H 0.37074 0.10817 0.73775 0.0
C1304 C 0.18275 0.49461 0.70726 0.0
C1305 C 0.16963 0.50582 0.69103 0.0
C1306 C 0.1751 0.47498 0.71748 0.0
C1307 C 0.13231 0.42984 0.71442 0.0
H1308 H 0.14179 0.42808 0.77952 0.0
C1309 C 0.10477 0.3551 0.77196 0.0
C1310 C 0.09484 0.36108 0.79277 0.0
C1311 C 0.11475 0.37144 0.75816 0.0
C1312 C 0.13892 0.42831 0.76136 0.0
H1313 H 0.13844 0.50456 0.67218 0.0
H1314 H 0.12485 0.47043 0.69045 0.0
H1315 H 0.1574 0.45863 0.7575 0.0
H1316 H 0.08734 0.38912 0.81505 0.0
H1317 H 0.10446 0.41723 0.79113 0.0
H1318 H 0.11311 0.39974 0.71865 0.0
C1319 C 0.14125 0.47673 0.69501 0.0
C1320 C 0.14813 0.44572 0.74865 0.0
C1321 C 0.149 0.49636 0.6846 0.0
C1322 C 0.09498 0.38374 0.7993 0.0
C1323 C 0.10492 0.39994 0.78559 0.0
C1324 C 0.12306 0.41233 0.72721 0.0
C1325 C 0.154 0.46611 0.71197 0.0
C1326 C 0.14484 0.44683 0.72504 0.0
C1327 C 0.11507 0.39402 0.76494 0.0
C1328 C 0.12604 0.41156 0.75088 0.0
H1329 H 0.19881 0.50121 0.71251 0.0
H1330 H 0.1856 0.46698 0.73008 0.0
H1331 H 0.12962 0.4301 0.69624 0.0
H1332 H 0.10488 0.33783 0.76635 0.0
H1333 H 0.12252 0.36634 0.74237 0.0
C1334 C 0.35475 0.89876 0.23367 0.0
C1335 C 0.36065 0.90939 0.2132 0.0
C1336 C 0.37119 0.88865 0.24724 0.0
C1337 C 0.41215 0.87991 0.27801 0.0
H1338 H 0.45873 0.84687 0.24671 0.0
C1339 C 0.49641 0.85365 0.31976 0.0
C1340 C 0.50601 0.83324 0.31286 0.0
C1341 C 0.47672 0.86148 0.30956 0.0
C1342 C 0.44574 0.85577 0.25581 0.0
H1343 H 0.38865 0.91807 0.19132 0.0
H1344 H 0.41694 0.90068 0.21483 0.0
H1345 H 0.42807 0.86292 0.22514 0.0
H1346 H 0.50161 0.80451 0.29069 0.0
H1347 H 0.46728 0.81789 0.27341 0.0
H1348 H 0.42996 0.87257 0.30876 0.0
C1349 C 0.39964 0.89979 0.22027 0.0
C1350 C 0.42827 0.86523 0.24338 0.0
C1351 C 0.38334 0.90989 0.20681 0.0
C1352 C 0.49489 0.8204 0.29632 0.0
C1353 C 0.47521 0.82814 0.28627 0.0
C1354 C 0.42973 0.87042 0.29051 0.0
C1355 C 0.3938 0.88888 0.24053 0.0
C1356 C 0.41143 0.87766 0.25425 0.0
C1357 C 0.46618 0.84903 0.29231 0.0
C1358 C 0.44681 0.85836 0.27951 0.0
H1359 H 0.33746 0.89815 0.23918 0.0
H1360 H 0.36616 0.8803 0.26274 0.0
H1361 H 0.39947 0.88948 0.28686 0.0
H1362 H 0.50452 0.86399 0.33243 0.0
H1363 H 0.4703 0.87771 0.31451 0.0
C1364 C 0.84763 0.5136 0.67655 0.0
C1365 C 0.83385 0.49897 0.68902 0.0
C1366 C 0.85451 0.53408 0.68588 0.0
C1367 C 0.84238 0.57334 0.73397 0.0
H1368 H 0.90383 0.59228 0.72491 0.0
C1369 C 0.8915 0.62753 0.79722 0.0
C1370 C 0.90327 0.64614 0.78882 0.0
C1371 C 0.88127 0.61243 0.78242 0.0
C1372 C 0.88653 0.58736 0.7273 0.0
H1373 H 0.81645 0.49465 0.72111 0.0
H1374 H 0.8289 0.52958 0.73743 0.0
H1375 H 0.88929 0.56026 0.70371 0.0
H1376 H 0.91346 0.66351 0.75818 0.0
H1377 H 0.89604 0.6365 0.73217 0.0
H1378 H 0.84017 0.59967 0.75859 0.0
C1379 C 0.83396 0.52572 0.72023 0.0
C1380 C 0.87813 0.56905 0.71512 0.0
C1381 C 0.82694 0.50545 0.71088 0.0
C1382 C 0.90441 0.6494 0.76519 0.0
C1383 C 0.89456 0.63394 0.75031 0.0
C1384 C 0.85088 0.59136 0.74637 0.0
C1385 C 0.84789 0.54034 0.70794 0.0
C1386 C 0.85609 0.56145 0.7187 0.0
C1387 C 0.88292 0.61531 0.75885 0.0
C1388 C 0.87316 0.59825 0.7435 0.0
H1389 H 0.85322 0.50919 0.65965 0.0
H1390 H 0.86501 0.54499 0.67579 0.0
H1391 H 0.82514 0.56844 0.73675 0.0
H1392 H 0.89026 0.6245 0.81526 0.0
H1393 H 0.87256 0.5981 0.78943 0.0
C1394 C 0.6459 0.09689 0.23306 0.0
C1395 C 0.64395 0.09754 0.20928 0.0
C1396 C 0.62885 0.10558 0.24686 0.0
C1397 C 0.56843 0.12084 0.24348 0.0
H1398 H 0.579 0.15002 0.30131 0.0
C1399 C 0.50181 0.17401 0.28759 0.0
C1400 C 0.49582 0.16737 0.3097 0.0
C1401 C 0.52094 0.16542 0.27721 0.0
C1402 C 0.57589 0.14173 0.28526 0.0
H1403 H 0.62326 0.10911 0.18144 0.0
H1404 H 0.59434 0.12507 0.20517 0.0
H1405 H 0.61079 0.13579 0.27926 0.0
H1406 H 0.50595 0.14715 0.33854 0.0
H1407 H 0.53991 0.1325 0.32033 0.0
H1408 H 0.53368 0.12756 0.24909 0.0
C1409 C 0.60842 0.11701 0.21335 0.0
C1410 C 0.59404 0.13352 0.27264 0.0
C1411 C 0.62518 0.10802 0.19965 0.0
C1412 C 0.51001 0.15254 0.32147 0.0
C1413 C 0.52946 0.14422 0.31114 0.0
C1414 C 0.55045 0.12934 0.25586 0.0
C1415 C 0.60965 0.11536 0.23714 0.0
C1416 C 0.59055 0.12326 0.25139 0.0
C1417 C 0.53479 0.15028 0.28875 0.0
C1418 C 0.55401 0.14008 0.27671 0.0
H1419 H 0.66014 0.08886 0.241 0.0
H1420 H 0.63038 0.10392 0.26509 0.0
H1421 H 0.56491 0.1124 0.22761 0.0
H1422 H 0.49141 0.18543 0.27797 0.0
H1423 H 0.52481 0.17045 0.25998 0.0
C1424 C 0.67864 0.00811 0.7968 0.0
C1425 C 0.66809 0.99817 0.81564 0.0
C1426 C 0.67082 0.02834 0.78792 0.0
C1427 C 0.65596 0.07618 0.7776 0.0
H1428 H 0.59192 0.07774 0.76694 0.0
C1429 C 0.61027 0.1497 0.7316 0.0
C1430 C 0.59572 0.14275 0.71417 0.0
C1431 C 0.61945 0.13404 0.74669 0.0
C1432 C 0.60982 0.0776 0.7699 0.0
H1433 H 0.64147 0.0023 0.84039 0.0
H1434 H 0.62778 0.03756 0.82472 0.0
H1435 H 0.60804 0.04719 0.78898 0.0
H1436 H 0.57938 0.1138 0.69913 0.0
H1437 H 0.59515 0.08682 0.7254 0.0
H1438 H 0.65769 0.10631 0.75785 0.0
C1439 C 0.64207 0.02958 0.81682 0.0
C1440 C 0.61903 0.06022 0.7827 0.0
C1441 C 0.65 0.00941 0.82585 0.0
C1442 C 0.5905 0.11985 0.7123 0.0
C1443 C 0.59942 0.10433 0.72748 0.0
C1444 C 0.64668 0.09372 0.76495 0.0
C1445 C 0.65216 0.03906 0.79752 0.0
C1446 C 0.64226 0.05903 0.78629 0.0
C1447 C 0.61397 0.11121 0.74483 0.0
C1448 C 0.62358 0.09429 0.76052 0.0
H1449 H 0.69261 0.99999 0.78847 0.0
H1450 H 0.67882 0.03507 0.77289 0.0
H1451 H 0.6739 0.0758 0.78024 0.0
H1452 H 0.61465 0.1672 0.73351 0.0
H1453 H 0.63061 0.13979 0.75995 0.0
C1454 C 0.14481 0.4101 0.26767 0.0
C1455 C 0.14418 0.40659 0.29126 0.0
C1456 C 0.12777 0.40157 0.25372 0.0
C1457 C 0.06896 0.38153 0.25834 0.0
H1458 H 0.07791 0.3593 0.19716 0.0
C1459 C 0.00279 0.32923 0.21294 0.0
C1460 C 0.99526 0.33736 0.19185 0.0
C1461 C 0.0221 0.33783 0.22296 0.0
C1462 C 0.07523 0.36565 0.21416 0.0
H1463 H 0.12633 0.38993 0.31839 0.0
H1464 H 0.09741 0.37439 0.2943 0.0
H1465 H 0.10999 0.37348 0.2189 0.0
H1466 H 0.00293 0.36027 0.16431 0.0
H1467 H 0.03718 0.37502 0.18187 0.0
H1468 H 0.03445 0.37303 0.25392 0.0
C1469 C 0.11031 0.38457 0.28652 0.0
C1470 C 0.09354 0.37381 0.22661 0.0
C1471 C 0.12701 0.39337 0.3004 0.0
C1472 C 0.00818 0.35368 0.18059 0.0
C1473 C 0.0278 0.36208 0.19056 0.0
C1474 C 0.05086 0.37312 0.24609 0.0
C1475 C 0.10999 0.38912 0.2631 0.0
C1476 C 0.09066 0.38151 0.24904 0.0
C1477 C 0.0346 0.35455 0.21207 0.0
C1478 C 0.05384 0.36482 0.22403 0.0
H1479 H 0.15786 0.42028 0.26016 0.0
H1480 H 0.1281 0.40544 0.23577 0.0
H1481 H 0.06588 0.38799 0.27523 0.0
H1482 H 0.99345 0.31661 0.22212 0.0
H1483 H 0.02713 0.3316 0.23946 0.0
C1484 C 0.34831 0.99188 0.82146 0.0
C1485 C 0.33327 0.00522 0.80901 0.0
C1486 C 0.35588 0.9714 0.81274 0.0
C1487 C 0.3434 0.92919 0.76762 0.0
H1488 H 0.4062 0.91393 0.77387 0.0
C1489 C 0.39097 0.87418 0.70431 0.0
C1490 C 0.40493 0.85714 0.71265 0.0
C1491 C 0.3808 0.88932 0.71906 0.0
C1492 C 0.38855 0.91779 0.77231 0.0
H1493 H 0.31449 0.00732 0.7775 0.0
H1494 H 0.32805 0.9723 0.76219 0.0
H1495 H 0.39121 0.94633 0.79413 0.0
H1496 H 0.41906 0.84252 0.74313 0.0
H1497 H 0.40162 0.86964 0.76908 0.0
H1498 H 0.34113 0.90135 0.7448 0.0
C1499 C 0.3336 0.97722 0.77896 0.0
C1500 C 0.37991 0.93633 0.78394 0.0
C1501 C 0.32594 0.99752 0.78771 0.0
C1502 C 0.4083 0.85542 0.73622 0.0
C1503 C 0.39844 0.87095 0.75103 0.0
C1504 C 0.3521 0.91089 0.75581 0.0
C1505 C 0.34868 0.96385 0.79131 0.0
C1506 C 0.35734 0.94261 0.78127 0.0
C1507 C 0.38463 0.88805 0.74253 0.0
C1508 C 0.37485 0.90531 0.75764 0.0
H1509 H 0.35436 0.99726 0.8379 0.0
H1510 H 0.36732 0.96148 0.82282 0.0
H1511 H 0.32581 0.9331 0.76563 0.0
H1512 H 0.38793 0.87592 0.68631 0.0
H1513 H 0.3704 0.90246 0.71203 0.0
C1514 C 0.857 0.59774 0.26703 0.0
C1515 C 0.8608 0.59555 0.2905 0.0
C1516 C 0.87394 0.60578 0.25268 0.0
C1517 C 0.93583 0.61377 0.25166 0.0
H1518 H 0.92392 0.65276 0.20042 0.0
C1519 C 1.00025 0.67242 0.21028 0.0
C1520 C 0.00797 0.66454 0.18915 0.0
C1521 C 0.98088 0.66364 0.22004 0.0
C1522 C 0.92734 0.64169 0.21456 0.0
H1523 H 0.88516 0.60096 0.31728 0.0
H1524 H 0.91398 0.61573 0.29272 0.0
H1525 H 0.89261 0.63835 0.22313 0.0
H1526 H 1.00065 0.64184 0.16132 0.0
H1527 H 0.96631 0.62678 0.17847 0.0
H1528 H 0.97057 0.61805 0.24367 0.0
C1529 C 0.89832 0.61052 0.28512 0.0
C1530 C 0.90949 0.63337 0.22752 0.0
C1531 C 0.8816 0.60225 0.29932 0.0
C1532 C 0.99524 0.64826 0.17762 0.0
C1533 C 0.97559 0.63968 0.18733 0.0
C1534 C 0.95357 0.62229 0.23892 0.0
C1535 C 0.89495 0.61197 0.26154 0.0
C1536 C 0.91355 0.61962 0.24652 0.0
C1537 C 0.96856 0.64708 0.20877 0.0
C1538 C 0.94948 0.63649 0.22048 0.0
H1539 H 0.8412 0.59263 0.25964 0.0
H1540 H 0.87076 0.60654 0.2346 0.0
H1541 H 0.93964 0.60275 0.26573 0.0
H1542 H 0.00951 0.68494 0.2197 0.0
H1543 H 0.97571 0.66949 0.23664 0.0
C1544 C 0.65029 0.99132 0.18038 0.0
C1545 C 0.66577 0.005 0.19192 0.0
C1546 C 0.64211 0.97171 0.19052 0.0
C1547 C 0.63056 0.94907 0.24643 0.0
H1548 H 0.63141 0.88992 0.21928 0.0
C1549 C 0.61159 0.87253 0.3006 0.0
C1550 C 0.59838 0.85533 0.29145 0.0
C1551 C 0.62022 0.88934 0.28675 0.0
C1552 C 0.63077 0.90637 0.22697 0.0
H1553 H 0.68526 0.00823 0.22294 0.0
H1554 H 0.6707 0.9745 0.24052 0.0
H1555 H 0.64518 0.92221 0.19761 0.0
H1556 H 0.58457 0.84172 0.26036 0.0
H1557 H 0.59921 0.8716 0.23602 0.0
H1558 H 0.61585 0.93378 0.27551 0.0
C1559 C 0.66491 0.97895 0.22369 0.0
C1560 C 0.63868 0.9248 0.21457 0.0
C1561 C 0.67327 0.99828 0.21352 0.0
C1562 C 0.59475 0.85477 0.26788 0.0
C1563 C 0.60316 0.87188 0.25395 0.0
C1564 C 0.62245 0.93082 0.25865 0.0
C1565 C 0.64902 0.96564 0.21247 0.0
C1566 C 0.63906 0.94623 0.22443 0.0
C1567 C 0.61555 0.88969 0.26336 0.0
C1568 C 0.62291 0.90913 0.24934 0.0
H1569 H 0.64421 0.99594 0.16371 0.0
H1570 H 0.62983 0.96171 0.18156 0.0
H1571 H 0.63027 0.96548 0.25425 0.0
H1572 H 0.61507 0.87321 0.31861 0.0
H1573 H 0.63032 0.9023 0.29452 0.0
C1574 C 0.85369 0.40347 0.73309 0.0
C1575 C 0.85887 0.40842 0.71033 0.0
C1576 C 0.8702 0.39507 0.74775 0.0
C1577 C 0.93227 0.39106 0.75251 0.0
H1578 H 0.92022 0.34478 0.79704 0.0
C1579 C 0.99921 0.33276 0.78903 0.0
C1580 C 0.0042 0.33674 0.81203 0.0
C1581 C 0.97984 0.34153 0.77927 0.0
C1582 C 0.92366 0.35788 0.78481 0.0
H1583 H 0.88539 0.40774 0.68511 0.0
H1584 H 0.91347 0.3924 0.71006 0.0
H1585 H 0.88931 0.36024 0.77444 0.0
H1586 H 0.99208 0.35226 0.84302 0.0
H1587 H 0.95775 0.36723 0.82578 0.0
H1588 H 0.96672 0.38785 0.76209 0.0
C1589 C 0.89699 0.39565 0.71696 0.0
C1590 C 0.90603 0.36679 0.77193 0.0
C1591 C 0.88069 0.40424 0.70249 0.0
C1592 C 0.98879 0.34894 0.82526 0.0
C1593 C 0.96915 0.35743 0.81548 0.0
C1594 C 0.94981 0.38196 0.76508 0.0
C1595 C 0.89215 0.39133 0.73989 0.0
C1596 C 0.91023 0.38316 0.75525 0.0
C1597 C 0.96482 0.35412 0.79232 0.0
C1598 C 0.9457 0.36509 0.78105 0.0
H1599 H 0.83707 0.40659 0.73973 0.0
H1600 H 0.86589 0.39203 0.76534 0.0
H1601 H 0.9361 0.4041 0.74034 0.0
H1602 H 0.01059 0.32345 0.77829 0.0
H1603 H 0.97676 0.33882 0.76135 0.0
C1604 C 0.40261 0.15208 0.26769 0.0
C1605 C 0.40268 0.14846 0.2913 0.0
C1606 C 0.39257 0.13652 0.25306 0.0
C1607 C 0.35026 0.09242 0.25066 0.0
H1608 H 0.38762 0.06338 0.20561 0.0
C1609 C 0.32819 0.00593 0.21556 0.0
C1610 C 0.33399 1.00004 0.19321 0.0
C1611 C 0.33489 0.02637 0.22476 0.0
C1612 C 0.37674 0.07159 0.21772 0.0
H1613 H 0.39168 0.12599 0.31799 0.0
H1614 H 0.37364 0.09941 0.29262 0.0
H1615 H 0.40196 0.09571 0.22648 0.0
H1616 H 0.35108 0.01144 0.16284 0.0
H1617 H 0.36234 0.04751 0.17878 0.0
H1618 H 0.32501 0.06856 0.2421 0.0
C1619 C 0.38152 0.11413 0.28543 0.0
C1620 C 0.38502 0.09008 0.2297 0.0
C1621 C 0.39194 0.12934 0.29996 0.0
C1622 C 0.34637 0.01539 0.18014 0.0
C1623 C 0.35294 0.03603 0.18933 0.0
C1624 C 0.34186 0.07421 0.23848 0.0
C1625 C 0.38196 0.1174 0.26185 0.0
C1626 C 0.37207 0.10022 0.24673 0.0
C1627 C 0.34738 0.04172 0.21184 0.0
C1628 C 0.35524 0.06305 0.22237 0.0
H1629 H 0.41085 0.16658 0.26048 0.0
H1630 H 0.3931 0.13938 0.23492 0.0
H1631 H 0.33987 0.10014 0.26354 0.0
H1632 H 0.31879 0.99456 0.22625 0.0
H1633 H 0.33071 0.02981 0.2423 0.0
C1634 C 0.13141 0.61275 0.70276 0.0
C1635 C 0.14768 0.59848 0.712 0.0
C1636 C 0.11443 0.62153 0.71631 0.0
C1637 C 0.09528 0.62992 0.77591 0.0
H1638 H 0.03738 0.63306 0.74626 0.0
C1639 C 0.00935 0.64906 0.82058 0.0
C1640 C 0.99625 0.66536 0.80952 0.0
C1641 C 0.02913 0.6411 0.81058 0.0
C1642 C 0.05346 0.63237 0.75474 0.0
H1643 H 0.15951 0.58291 0.74296 0.0
H1644 H 0.12929 0.59778 0.76674 0.0
H1645 H 0.06944 0.61882 0.72547 0.0
H1646 H 0.99423 0.68649 0.77954 0.0
H1647 H 0.02826 0.67234 0.76217 0.0
H1648 H 0.07869 0.64311 0.80544 0.0
C1649 C 0.12988 0.60248 0.749 0.0
C1650 C 0.07193 0.62434 0.7428 0.0
C1651 C 0.14719 0.59393 0.7354 0.0
C1652 C 0.00372 0.67386 0.78857 0.0
C1653 C 0.02322 0.66573 0.77852 0.0
C1654 C 0.0766 0.63774 0.78801 0.0
C1655 C 0.11295 0.61594 0.73946 0.0
C1656 C 0.09321 0.62343 0.75301 0.0
C1657 C 0.03596 0.64906 0.78923 0.0
C1658 C 0.05562 0.63941 0.77735 0.0
H1659 H 0.13161 0.61694 0.6849 0.0
H1660 H 0.10221 0.63246 0.70848 0.0
H1661 H 0.11139 0.62952 0.78431 0.0
H1662 H 0.00416 0.64219 0.83676 0.0
H1663 H 0.03866 0.6282 0.81915 0.0
C1664 C 0.17999 0.52539 0.58078 0.0
C1665 C 0.19855 0.52856 0.59507 0.0
C1666 C 0.18277 0.51684 0.55895 0.0
C1667 C 0.21898 0.51485 0.51099 0.0
H1668 H 0.18437 0.46271 0.49349 0.0
C1669 C 0.21599 0.48089 0.41797 0.0
C1670 C 0.19501 0.47303 0.41065 0.0
C1671 C 0.21945 0.48652 0.44085 0.0
C1672 C 0.19401 0.47742 0.49798 0.0
H1673 H 0.23462 0.5255 0.59767 0.0
H1674 H 0.23953 0.51107 0.5588 0.0
H1675 H 0.18499 0.47453 0.53305 0.0
H1676 H 0.16099 0.46588 0.42133 0.0
H1677 H 0.16672 0.47627 0.46058 0.0
H1678 H 0.22697 0.51857 0.4757 0.0
C1679 C 0.22286 0.51496 0.56485 0.0
C1680 C 0.1945 0.48401 0.52069 0.0
C1681 C 0.22003 0.52308 0.58702 0.0
C1682 C 0.17747 0.47153 0.42645 0.0
C1683 C 0.18083 0.47734 0.44908 0.0
C1684 C 0.21821 0.50845 0.4881 0.0
C1685 C 0.20419 0.51169 0.55072 0.0
C1686 C 0.20657 0.50304 0.52732 0.0
C1687 C 0.20193 0.48453 0.45675 0.0
C1688 C 0.20519 0.48999 0.48124 0.0
H1689 H 0.16324 0.5294 0.58652 0.0
H1690 H 0.16814 0.51456 0.5483 0.0
H1691 H 0.2283 0.52968 0.51575 0.0
H1692 H 0.22985 0.48215 0.40618 0.0
H1693 H 0.23593 0.49196 0.44615 0.0
C1694 C 0.52504 0.82314 0.42244 0.0
C1695 C 0.52843 0.80453 0.40827 0.0
C1696 C 0.51617 0.82043 0.44414 0.0
C1697 C 0.51416 0.7853 0.49238 0.0
H1698 H 0.46015 0.81769 0.50828 0.0
C1699 C 0.47935 0.78867 0.58485 0.0
C1700 C 0.47029 0.80932 0.59166 0.0
C1701 C 0.4852 0.78501 0.56208 0.0
C1702 C 0.47537 0.80869 0.50424 0.0
H1703 H 0.52544 0.76845 0.40573 0.0
H1704 H 0.51046 0.76365 0.44441 0.0
H1705 H 0.47262 0.81679 0.46892 0.0
H1706 H 0.46104 0.84256 0.58015 0.0
H1707 H 0.47186 0.83654 0.54105 0.0
H1708 H 0.51777 0.77834 0.52788 0.0
C1709 C 0.51442 0.78031 0.43835 0.0
C1710 C 0.48233 0.80801 0.48165 0.0
C1711 C 0.52285 0.78307 0.41629 0.0
C1712 C 0.46768 0.82634 0.57543 0.0
C1713 C 0.47373 0.82279 0.55288 0.0
C1714 C 0.50739 0.78628 0.51514 0.0
C1715 C 0.51094 0.79903 0.45235 0.0
C1716 C 0.502 0.79671 0.47561 0.0
C1717 C 0.48226 0.802 0.54576 0.0
C1718 C 0.48821 0.79852 0.52142 0.0
H1719 H 0.52911 0.83988 0.41669 0.0
H1720 H 0.5137 0.83508 0.45471 0.0
H1721 H 0.5295 0.77661 0.48805 0.0
H1722 H 0.48146 0.77521 0.59698 0.0
H1723 H 0.49162 0.76875 0.55721 0.0
C1724 C 0.82169 0.52854 0.42335 0.0
C1725 C 0.80423 0.52948 0.40738 0.0
C1726 C 0.81791 0.52011 0.44507 0.0
C1727 C 0.7828 0.51657 0.49135 0.0
H1728 H 0.81125 0.46023 0.50672 0.0
C1729 C 0.78469 0.48129 0.58371 0.0
C1730 C 0.8051 0.47155 0.59033 0.0
C1731 C 0.78092 0.48707 0.56093 0.0
C1732 C 0.80327 0.47604 0.5028 0.0
H1733 H 0.76901 0.52264 0.40176 0.0
H1734 H 0.76229 0.50828 0.44039 0.0
H1735 H 0.81116 0.47308 0.46742 0.0
H1736 H 0.83775 0.46084 0.57831 0.0
H1737 H 0.83149 0.47137 0.53922 0.0
H1738 H 0.77617 0.52035 0.52691 0.0
C1739 C 0.7789 0.51391 0.43572 0.0
C1740 C 0.80304 0.48321 0.48026 0.0
C1741 C 0.78278 0.522 0.4137 0.0
C1742 C 0.8217 0.46803 0.57382 0.0
C1743 C 0.81803 0.47392 0.55126 0.0
C1744 C 0.78327 0.50953 0.51405 0.0
C1745 C 0.79653 0.51282 0.45144 0.0
C1746 C 0.79322 0.50372 0.47446 0.0
C1747 C 0.79754 0.4833 0.5444 0.0
C1748 C 0.79411 0.48947 0.52012 0.0
H1749 H 0.83843 0.53405 0.41898 0.0
H1750 H 0.83171 0.51934 0.45699 0.0
H1751 H 0.77533 0.53257 0.48717 0.0
H1752 H 0.77154 0.48415 0.59604 0.0
H1753 H 0.76491 0.49419 0.55624 0.0
C1754 C 0.47895 0.17711 0.42214 0.0
C1755 C 0.4763 0.19575 0.40783 0.0
C1756 C 0.48791 0.17962 0.44385 0.0
C1757 C 0.49165 0.21584 0.49162 0.0
H1758 H 0.5434 0.18043 0.50859 0.0
C1759 C 0.5262 0.21378 0.58414 0.0
C1760 C 0.53407 0.19295 0.59183 0.0
C1761 C 0.52067 0.21688 0.5612 0.0
C1762 C 0.52878 0.19026 0.50427 0.0
H1763 H 0.4807 0.23166 0.4051 0.0
H1764 H 0.4958 0.23614 0.44375 0.0
H1765 H 0.53085 0.18077 0.46925 0.0
H1766 H 0.54167 0.15888 0.58166 0.0
H1767 H 0.53136 0.16395 0.54229 0.0
H1768 H 0.48867 0.2243 0.52683 0.0
C1769 C 0.4912 0.2196 0.4378 0.0
C1770 C 0.52178 0.1906 0.48168 0.0
C1771 C 0.4827 0.21702 0.41575 0.0
C1772 C 0.53595 0.17525 0.57626 0.0
C1773 C 0.53019 0.17823 0.55354 0.0
C1774 C 0.49842 0.2152 0.51439 0.0
C1775 C 0.49396 0.20086 0.45194 0.0
C1776 C 0.50293 0.20305 0.47523 0.0
C1777 C 0.52271 0.19913 0.54556 0.0
C1778 C 0.51678 0.20195 0.5211 0.0
H1779 H 0.47424 0.16051 0.41649 0.0
H1780 H 0.48978 0.16496 0.45451 0.0
H1781 H 0.47696 0.22544 0.487 0.0
H1782 H 0.52466 0.22778 0.59573 0.0
H1783 H 0.51512 0.23325 0.55568 0.0
C1784 C 0.71881 0.01846 0.08794 0.0
C1785 C 0.69722 0.02445 0.09524 0.0
C1786 C 0.72209 0.00964 0.06611 0.0
C1787 C 0.69602 0.97681 0.02268 0.0
H1788 H 0.72488 0.01271 0.97629 0.0
C1789 C 0.6788 0.9612 0.92865 0.0
C1790 C 0.69553 0.96511 0.91237 0.0
C1791 C 0.68222 0.96683 0.95134 0.0
C1792 C 0.71721 0.00218 0.98906 0.0
H1793 H 0.66212 0.0254 0.08578 0.0
H1794 H 0.66781 0.00928 0.04817 0.0
H1795 H 0.72584 0.02496 0.01594 0.0
H1796 H 0.72914 0.97781 0.90723 0.0
H1797 H 0.73541 0.98716 0.94719 0.0
H1798 H 0.68737 0.95395 0.99625 0.0
C1799 C 0.68217 0.01177 0.05912 0.0
C1800 C 0.71774 0.00926 0.01174 0.0
C1801 C 0.67897 0.02104 0.08059 0.0
C1802 C 0.71588 0.97469 0.91937 0.0
C1803 C 0.71943 0.98012 0.94227 0.0
C1804 C 0.69582 0.96952 1.00017 0.0
C1805 C 0.70373 0.00616 0.05163 0.0
C1806 C 0.7066 0.99693 0.02856 0.0
C1807 C 0.7026 0.97624 0.95857 0.0
C1808 C 0.70571 0.98249 0.9829 0.0
H1809 H 0.73316 0.02104 0.09888 0.0
H1810 H 0.73885 0.0054 0.06058 0.0
H1811 H 0.68742 0.967 0.03546 0.0
H1812 H 0.66281 0.95408 0.92383 0.0
H1813 H 0.66859 0.96415 0.96315 0.0
C1814 C 0.02159 0.28479 0.91766 0.0
C1815 C 0.02892 0.30605 0.91055 0.0
C1816 C 0.01367 0.28162 0.93986 0.0
C1817 C 0.98366 0.30829 0.98403 0.0
H1818 H 0.01913 0.27895 0.03045 0.0
C1819 C 0.9682 0.32621 0.07777 0.0
C1820 C 0.97072 0.30912 0.09394 0.0
C1821 C 0.97449 0.32282 0.05526 0.0
C1822 C 0.00876 0.2868 0.01766 0.0
H1823 H 0.03341 0.34064 0.92095 0.0
H1824 H 0.01896 0.33515 0.95924 0.0
H1825 H 0.03118 0.27749 0.99068 0.0
H1826 H 0.98201 0.27503 0.09917 0.0
H1827 H 0.99263 0.26885 0.05947 0.0
H1828 H 0.9612 0.31769 0.01053 0.0
C1829 C 0.01972 0.32095 0.94781 0.0
C1830 C 0.01571 0.28597 0.99494 0.0
C1831 C 0.02802 0.32403 0.92593 0.0
C1832 C 0.97995 0.28855 0.0871 0.0
C1833 C 0.98606 0.28504 0.06437 0.0
C1834 C 0.97654 0.30886 0.00657 0.0
C1835 C 0.01253 0.29977 0.95496 0.0
C1836 C 0.00348 0.29722 0.97811 0.0
C1837 C 0.98319 0.30211 0.04812 0.0
C1838 C 0.98938 0.29878 0.02382 0.0
H1839 H 0.0222 0.27064 0.90618 0.0
H1840 H 0.00813 0.26515 0.94513 0.0
H1841 H 0.97397 0.31702 0.97124 0.0
H1842 H 0.96143 0.34237 0.08251 0.0
H1843 H 0.97266 0.33661 0.04348 0.0
C1844 C 0.31894 1.001 0.91854 0.0
C1845 C 0.31325 0.0221 0.90974 0.0
C1846 C 0.31281 0.99504 0.9406 0.0
C1847 C 0.29984 0.02049 0.9958 0.0
H1848 H 0.28575 0.95923 0.01224 0.0
C1849 C 0.29135 0.99191 0.08959 0.0
C1850 C 0.30386 0.97264 0.09477 0.0
C1851 C 0.28774 0.99814 0.06694 0.0
C1852 C 0.28964 0.97642 0.00791 0.0
H1853 H 0.29583 0.05318 0.91695 0.0
H1854 H 0.285 0.04266 0.95549 0.0
H1855 H 0.28765 0.96976 0.97228 0.0
H1856 H 0.32161 0.94434 0.08022 0.0
H1857 H 0.3153 0.95514 0.04103 0.0
H1858 H 0.30242 0.02697 0.03147 0.0
C1859 C 0.29444 0.03084 0.94537 0.0
C1860 C 0.29077 0.98245 0.98502 0.0
C1861 C 0.30053 0.0368 0.92323 0.0
C1862 C 0.31199 0.95936 0.07687 0.0
C1863 C 0.30821 0.96544 0.05435 0.0
C1864 C 0.29865 0.01446 0.01872 0.0
C1865 C 0.30084 0.01003 0.95445 0.0
C1866 C 0.2965 0.0044 0.97867 0.0
C1867 C 0.2963 0.98504 0.04908 0.0
C1868 C 0.29417 0.99221 0.02501 0.0
H1869 H 0.32871 0.98926 0.90863 0.0
H1870 H 0.31829 0.97899 0.94711 0.0
H1871 H 0.3045 0.03749 0.99153 0.0
H1872 H 0.28486 0.00247 0.10301 0.0
H1873 H 0.27839 0.01327 0.06339 0.0
C1874 C 0.98102 0.71405 0.91505 0.0
C1875 C 0.97453 0.69282 0.90709 0.0
C1876 C 0.98923 0.7166 0.93722 0.0
C1877 C 0.01924 0.68746 0.98128 0.0
H1878 H 0.98654 0.7218 0.02624 0.0
C1879 C 0.0347 0.67344 0.07586 0.0
C1880 C 0.03328 0.69146 0.0911 0.0
C1881 C 0.0283 0.67598 0.05326 0.0
C1882 C 0.99617 0.7125 0.01386 0.0
H1883 H 0.97195 0.65763 0.91581 0.0
H1884 H 0.987 0.66202 0.95405 0.0
H1885 H 0.97472 0.7227 0.98643 0.0
H1886 H 0.02386 0.72631 0.09462 0.0
H1887 H 0.01322 0.73102 0.05475 0.0
H1888 H 0.04089 0.67738 0.00819 0.0
C1889 C 0.98541 0.67668 0.94333 0.0
C1890 C 0.98933 0.713 0.99109 0.0
C1891 C 0.97675 0.6742 0.92149 0.0
C1892 C 0.02505 0.71209 0.08327 0.0
C1893 C 0.0189 0.71475 0.06043 0.0
C1894 C 0.02631 0.68725 0.00386 0.0
C1895 C 0.9916 0.69787 0.95144 0.0
C1896 C 1.00049 0.70001 0.97477 0.0
C1897 C 0.02065 0.69674 0.04506 0.0
C1898 C 0.01447 0.6992 0.02062 0.0
H1899 H 0.97935 0.72868 0.90433 0.0
H1900 H 0.99395 0.7331 0.94317 0.0
H1901 H 0.02822 0.67748 0.96891 0.0
H1902 H 0.04067 0.65722 0.08142 0.0
H1903 H 0.02923 0.6615 0.04225 0.0
loop_
_geom_bond_atom_site_label_1
_geom_bond_atom_site_label_2
_geom_bond_distance
_geom_bond_site_symmetry_2
_ccdc_geom_bond_type
Co0 O2 2.143 . S
Co0 O8 2.074 . S
Co0 O11 2.093 . S
Co0 O24 2.097 . S
Co0 N41 2.151 . S
Co0 N49 2.214 . S
Co1 O2 2.160 . S
Co1 O7 2.058 . S
Co1 O17 2.057 . S
Co1 O32 2.037 . S
Co1 N36 2.145 . S
Co1 N57 2.257 . S
O2 Co0 2.143 . S
O2 Co1 2.160 . S
C3 O4 1.278 . S
C3 O11 1.224 . S
O4 C3 1.278 . S
C5 O6 1.245 . S
C5 O17 1.232 . S
O6 C5 1.245 . S
O7 Co1 2.058 . S
O7 C33 1.269 . S
O8 Co0 2.074 . S
O8 C33 1.257 . S
H9 C34 0.930 . S
H10 C40 0.930 . S
O11 Co0 2.093 . S
O11 C3 1.224 . S
H12 C44 0.929 . S
H13 C46 0.930 . S
H14 C47 0.930 . S
H15 C45 0.929 . S
H16 C48 0.928 . S
O17 Co1 2.057 . S
O17 C5 1.232 . S
H18 C37 0.929 . S
H19 C38 0.929 . S
H20 C50 0.931 . S
H21 C42 0.929 . S
H22 C51 0.930 . S
H23 C43 0.931 . S
O24 Co0 2.097 . S
O24 C52 1.214 . S
H25 C53 0.929 . S
H26 C54 0.929 . S
H27 C55 0.930 . S
H28 C56 0.929 . S
H29 C58 0.930 . S
H30 C35 0.930 . S
H31 C39 0.930 . S
O32 Co1 2.037 . S
O32 C52 1.234 . S
C33 O7 1.269 . S
C33 O8 1.257 . S
C34 H9 0.930 . S
C34 C37 1.388 . S
C34 C39 1.418 . S
C35 H30 0.930 . S
C35 C38 1.404 . S
C35 C39 1.353 . S
N36 Co1 2.145 . S
N36 C37 1.397 . S
N36 C38 1.334 . S
C37 H18 0.929 . S
C37 C34 1.388 . S
C37 N36 1.397 . S
C38 H19 0.929 . S
C38 C35 1.404 . S
C38 N36 1.334 . S
C39 H31 0.930 . S
C39 C34 1.418 . S
C39 C35 1.353 . S
C40 H10 0.930 . S
C40 N41 1.330 . S
C40 C42 1.446 . S
N41 Co0 2.151 . S
N41 C40 1.330 . S
N41 C45 1.418 . S
C42 H21 0.929 . S
C42 C40 1.446 . S
C42 C43 1.332 . S
C43 H23 0.931 . S
C43 C42 1.332 . S
C43 C44 1.267 . S
C44 H12 0.929 . S
C44 C43 1.267 . S
C44 C45 1.251 . S
C45 H15 0.929 . S
C45 N41 1.418 . S
C45 C44 1.251 . S
C46 H13 0.930 . S
C46 C48 1.406 . S
C46 C51 1.261 . S
C47 H14 0.930 . S
C47 N49 1.325 . S
C47 C50 1.357 . S
C48 H16 0.928 . S
C48 C46 1.406 . S
C48 N49 1.261 . S
N49 Co0 2.214 . S
N49 C47 1.325 . S
N49 C48 1.261 . S
C50 H20 0.931 . S
C50 C47 1.357 . S
C50 C51 1.312 . S
C51 H22 0.930 . S
C51 C46 1.261 . S
C51 C50 1.312 . S
C52 O24 1.214 . S
C52 O32 1.234 . S
C53 H25 0.929 . S
C53 C56 1.391 . S
C53 C58 1.391 . S
C54 H26 0.929 . S
C54 C55 1.390 . S
C54 N57 1.391 . S
C55 H27 0.930 . S
C55 C54 1.390 . S
C55 C56 1.392 . S
C56 H28 0.929 . S
C56 C53 1.391 . S
C56 C55 1.392 . S
N57 Co1 2.257 . S
N57 C54 1.391 . S
N57 C58 1.388 . S
C58 H29 0.930 . S
C58 C53 1.391 . S
C58 N57 1.388 . S
Co59 O61 2.143 . S
Co59 O67 2.074 . S
Co59 O70 2.093 . S
Co59 O83 2.097 . S
Co59 N100 2.151 . S
Co59 N108 2.214 . S
Co60 O61 2.160 . S
Co60 O66 2.058 . S
Co60 O76 2.057 . S
Co60 O91 2.037 . S
Co60 N95 2.145 . S
Co60 N116 2.257 . S
O61 Co59 2.143 . S
O61 Co60 2.160 . S
C62 O63 1.278 . S
C62 O70 1.224 . S
O63 C62 1.278 . S
C64 O65 1.245 . S
C64 O76 1.232 . S
O65 C64 1.245 . S
O66 Co60 2.058 . S
O66 C92 1.269 . S
O67 Co59 2.074 . S
O67 C92 1.257 . S
H68 C93 0.930 . S
H69 C99 0.930 . S
O70 Co59 2.093 . S
O70 C62 1.224 . S
H71 C103 0.929 . S
H72 C105 0.930 . S
H73 C106 0.930 . S
H74 C104 0.929 . S
H75 C107 0.928 . S
O76 Co60 2.057 . S
O76 C64 1.232 . S
H77 C96 0.929 . S
H78 C97 0.929 . S
H79 C109 0.931 . S
H80 C101 0.929 . S
H81 C110 0.930 . S
H82 C102 0.931 . S
O83 Co59 2.097 . S
O83 C111 1.214 . S
H84 C112 0.929 . S
H85 C113 0.929 . S
H86 C114 0.930 . S
H87 C115 0.929 . S
H88 C117 0.930 . S
H89 C94 0.930 . S
H90 C98 0.930 . S
O91 Co60 2.037 . S
O91 C111 1.234 . S
C92 O66 1.269 . S
C92 O67 1.257 . S
C93 H68 0.930 . S
C93 C96 1.388 . S
C93 C98 1.418 . S
C94 H89 0.930 . S
C94 C97 1.404 . S
C94 C98 1.353 . S
N95 Co60 2.145 . S
N95 C96 1.397 . S
N95 C97 1.334 . S
C96 H77 0.929 . S
C96 C93 1.388 . S
C96 N95 1.397 . S
C97 H78 0.929 . S
C97 C94 1.404 . S
C97 N95 1.334 . S
C98 H90 0.930 . S
C98 C93 1.418 . S
C98 C94 1.353 . S
C99 H69 0.930 . S
C99 N100 1.330 . S
C99 C101 1.446 . S
N100 Co59 2.151 . S
N100 C99 1.330 . S
N100 C104 1.418 . S
C101 H80 0.929 . S
C101 C99 1.446 . S
C101 C102 1.332 . S
C102 H82 0.931 . S
C102 C101 1.332 . S
C102 C103 1.267 . S
C103 H71 0.929 . S
C103 C102 1.267 . S
C103 C104 1.251 . S
C104 H74 0.929 . S
C104 N100 1.418 . S
C104 C103 1.251 . S
C105 H72 0.930 . S
C105 C107 1.406 . S
C105 C110 1.261 . S
C106 H73 0.930 . S
C106 N108 1.325 . S
C106 C109 1.357 . S
C107 H75 0.928 . S
C107 C105 1.406 . S
C107 N108 1.261 . S
N108 Co59 2.214 . S
N108 C106 1.325 . S
N108 C107 1.261 . S
C109 H79 0.931 . S
C109 C106 1.357 . S
C109 C110 1.312 . S
C110 H81 0.930 . S
C110 C105 1.261 . S
C110 C109 1.312 . S
C111 O83 1.214 . S
C111 O91 1.234 . S
C112 H84 0.929 . S
C112 C115 1.391 . S
C112 C117 1.391 . S
C113 H85 0.929 . S
C113 C114 1.390 . S
C113 N116 1.391 . S
C114 H86 0.930 . S
C114 C113 1.390 . S
C114 C115 1.392 . S
C115 H87 0.929 . S
C115 C112 1.391 . S
C115 C114 1.392 . S
N116 Co60 2.257 . S
N116 C113 1.391 . S
N116 C117 1.388 . S
C117 H88 0.930 . S
C117 C112 1.391 . S
C117 N116 1.388 . S
Co118 O120 2.143 . S
Co118 O126 2.074 . S
Co118 O129 2.093 . S
Co118 O142 2.097 . S
Co118 N159 2.151 . S
Co118 N167 2.214 . S
Co119 O120 2.160 . S
Co119 O125 2.058 . S
Co119 O135 2.057 . S
Co119 O150 2.037 . S
Co119 N154 2.145 . S
Co119 N175 2.257 . S
O120 Co118 2.143 . S
O120 Co119 2.160 . S
C121 O122 1.278 . S
C121 O129 1.224 . S
O122 C121 1.278 . S
C123 O124 1.245 . S
C123 O135 1.232 . S
O124 C123 1.245 . S
O125 Co119 2.058 . S
O125 C151 1.269 . S
O126 Co118 2.074 . S
O126 C151 1.257 . S
H127 C152 0.930 . S
H128 C158 0.930 . S
O129 Co118 2.093 . S
O129 C121 1.224 . S
H130 C162 0.929 . S
H131 C164 0.930 . S
H132 C165 0.930 . S
H133 C163 0.929 . S
H134 C166 0.928 . S
O135 Co119 2.057 . S
O135 C123 1.232 . S
H136 C155 0.929 . S
H137 C156 0.929 . S
H138 C168 0.931 . S
H139 C160 0.929 . S
H140 C169 0.930 . S
H141 C161 0.931 . S
O142 Co118 2.097 . S
O142 C170 1.214 . S
H143 C171 0.929 . S
H144 C172 0.929 . S
H145 C173 0.930 . S
H146 C174 0.929 . S
H147 C176 0.930 . S
H148 C153 0.930 . S
H149 C157 0.930 . S
O150 Co119 2.037 . S
O150 C170 1.234 . S
C151 O125 1.269 . S
C151 O126 1.257 . S
C152 H127 0.930 . S
C152 C155 1.388 . S
C152 C157 1.418 . S
C153 H148 0.930 . S
C153 C156 1.404 . S
C153 C157 1.353 . S
N154 Co119 2.145 . S
N154 C155 1.397 . S
N154 C156 1.334 . S
C155 H136 0.929 . S
C155 C152 1.388 . S
C155 N154 1.397 . S
C156 H137 0.929 . S
C156 C153 1.404 . S
C156 N154 1.334 . S
C157 H149 0.930 . S
C157 C152 1.418 . S
C157 C153 1.353 . S
C158 H128 0.930 . S
C158 N159 1.330 . S
C158 C160 1.446 . S
N159 Co118 2.151 . S
N159 C158 1.330 . S
N159 C163 1.418 . S
C160 H139 0.929 . S
C160 C158 1.446 . S
C160 C161 1.332 . S
C161 H141 0.931 . S
C161 C160 1.332 . S
C161 C162 1.267 . S
C162 H130 0.929 . S
C162 C161 1.267 . S
C162 C163 1.251 . S
C163 H133 0.929 . S
C163 N159 1.418 . S
C163 C162 1.251 . S
C164 H131 0.930 . S
C164 C166 1.406 . S
C164 C169 1.261 . S
C165 H132 0.930 . S
C165 N167 1.325 . S
C165 C168 1.357 . S
C166 H134 0.928 . S
C166 C164 1.406 . S
C166 N167 1.261 . S
N167 Co118 2.214 . S
N167 C165 1.325 . S
N167 C166 1.261 . S
C168 H138 0.931 . S
C168 C165 1.357 . S
C168 C169 1.312 . S
C169 H140 0.930 . S
C169 C164 1.261 . S
C169 C168 1.312 . S
C170 O142 1.214 . S
C170 O150 1.234 . S
C171 H143 0.929 . S
C171 C174 1.391 . S
C171 C176 1.391 . S
C172 H144 0.929 . S
C172 C173 1.390 . S
C172 N175 1.391 . S
C173 H145 0.930 . S
C173 C172 1.390 . S
C173 C174 1.392 . S
C174 H146 0.929 . S
C174 C171 1.391 . S
C174 C173 1.392 . S
N175 Co119 2.257 . S
N175 C172 1.391 . S
N175 C176 1.388 . S
C176 H147 0.930 . S
C176 C171 1.391 . S
C176 N175 1.388 . S
Co177 O179 2.143 . S
Co177 O185 2.074 . S
Co177 O188 2.093 . S
Co177 O201 2.097 . S
Co177 N218 2.151 . S
Co177 N226 2.214 . S
Co178 O179 2.160 . S
Co178 O184 2.058 . S
Co178 O194 2.057 . S
Co178 O209 2.037 . S
Co178 N213 2.145 . S
Co178 N234 2.257 . S
O179 Co177 2.143 . S
O179 Co178 2.160 . S
C180 O181 1.278 . S
C180 O188 1.224 . S
O181 C180 1.278 . S
C182 O183 1.245 . S
C182 O194 1.232 . S
O183 C182 1.245 . S
O184 Co178 2.058 . S
O184 C210 1.269 . S
O185 Co177 2.074 . S
O185 C210 1.257 . S
H186 C211 0.930 . S
H187 C217 0.930 . S
O188 Co177 2.093 . S
O188 C180 1.224 . S
H189 C221 0.929 . S
H190 C223 0.930 . S
H191 C224 0.930 . S
H192 C222 0.929 . S
H193 C225 0.928 . S
O194 Co178 2.057 . S
O194 C182 1.232 . S
H195 C214 0.929 . S
H196 C215 0.929 . S
H197 C227 0.931 . S
H198 C219 0.929 . S
H199 C228 0.930 . S
H200 C220 0.931 . S
O201 Co177 2.097 . S
O201 C229 1.214 . S
H202 C230 0.929 . S
H203 C231 0.929 . S
H204 C232 0.930 . S
H205 C233 0.929 . S
H206 C235 0.930 . S
H207 C212 0.930 . S
H208 C216 0.930 . S
O209 Co178 2.037 . S
O209 C229 1.234 . S
C210 O184 1.269 . S
C210 O185 1.257 . S
C211 H186 0.930 . S
C211 C214 1.388 . S
C211 C216 1.418 . S
C212 H207 0.930 . S
C212 C215 1.404 . S
C212 C216 1.353 . S
N213 Co178 2.145 . S
N213 C214 1.397 . S
N213 C215 1.334 . S
C214 H195 0.929 . S
C214 C211 1.388 . S
C214 N213 1.397 . S
C215 H196 0.929 . S
C215 C212 1.404 . S
C215 N213 1.334 . S
C216 H208 0.930 . S
C216 C211 1.418 . S
C216 C212 1.353 . S
C217 H187 0.930 . S
C217 N218 1.330 . S
C217 C219 1.446 . S
N218 Co177 2.151 . S
N218 C217 1.330 . S
N218 C222 1.418 . S
C219 H198 0.929 . S
C219 C217 1.446 . S
C219 C220 1.332 . S
C220 H200 0.931 . S
C220 C219 1.332 . S
C220 C221 1.267 . S
C221 H189 0.929 . S
C221 C220 1.267 . S
C221 C222 1.251 . S
C222 H192 0.929 . S
C222 N218 1.418 . S
C222 C221 1.251 . S
C223 H190 0.930 . S
C223 C225 1.406 . S
C223 C228 1.261 . S
C224 H191 0.930 . S
C224 N226 1.325 . S
C224 C227 1.357 . S
C225 H193 0.928 . S
C225 C223 1.406 . S
C225 N226 1.261 . S
N226 Co177 2.214 . S
N226 C224 1.325 . S
N226 C225 1.261 . S
C227 H197 0.931 . S
C227 C224 1.357 . S
C227 C228 1.312 . S
C228 H199 0.930 . S
C228 C223 1.261 . S
C228 C227 1.312 . S
C229 O201 1.214 . S
C229 O209 1.234 . S
C230 H202 0.929 . S
C230 C233 1.391 . S
C230 C235 1.391 . S
C231 H203 0.929 . S
C231 C232 1.390 . S
C231 N234 1.391 . S
C232 H204 0.930 . S
C232 C231 1.390 . S
C232 C233 1.392 . S
C233 H205 0.929 . S
C233 C230 1.391 . S
C233 C232 1.392 . S
N234 Co178 2.257 . S
N234 C231 1.391 . S
N234 C235 1.388 . S
C235 H206 0.930 . S
C235 C230 1.391 . S
C235 N234 1.388 . S
Co236 O238 2.143 . S
Co236 O244 2.074 . S
Co236 O247 2.093 . S
Co236 O260 2.097 . S
Co236 N277 2.151 . S
Co236 N285 2.214 . S
Co237 O238 2.160 . S
Co237 O243 2.058 . S
Co237 O253 2.057 . S
Co237 O268 2.037 . S
Co237 N272 2.145 . S
Co237 N293 2.257 . S
O238 Co236 2.143 . S
O238 Co237 2.160 . S
C239 O240 1.278 . S
C239 O247 1.224 . S
O240 C239 1.278 . S
C241 O242 1.245 . S
C241 O253 1.232 . S
O242 C241 1.245 . S
O243 Co237 2.058 . S
O243 C269 1.269 . S
O244 Co236 2.074 . S
O244 C269 1.257 . S
H245 C270 0.930 . S
H246 C276 0.930 . S
O247 Co236 2.093 . S
O247 C239 1.224 . S
H248 C280 0.929 . S
H249 C282 0.930 . S
H250 C283 0.930 . S
H251 C281 0.929 . S
H252 C284 0.928 . S
O253 Co237 2.057 . S
O253 C241 1.232 . S
H254 C273 0.929 . S
H255 C274 0.929 . S
H256 C286 0.931 . S
H257 C278 0.929 . S
H258 C287 0.930 . S
H259 C279 0.931 . S
O260 Co236 2.097 . S
O260 C288 1.214 . S
H261 C289 0.929 . S
H262 C290 0.929 . S
H263 C291 0.930 . S
H264 C292 0.929 . S
H265 C294 0.930 . S
H266 C271 0.930 . S
H267 C275 0.930 . S
O268 Co237 2.037 . S
O268 C288 1.234 . S
C269 O243 1.269 . S
C269 O244 1.257 . S
C270 H245 0.930 . S
C270 C273 1.388 . S
C270 C275 1.418 . S
C271 H266 0.930 . S
C271 C274 1.404 . S
C271 C275 1.353 . S
N272 Co237 2.145 . S
N272 C273 1.397 . S
N272 C274 1.334 . S
C273 H254 0.929 . S
C273 C270 1.388 . S
C273 N272 1.397 . S
C274 H255 0.929 . S
C274 C271 1.404 . S
C274 N272 1.334 . S
C275 H267 0.930 . S
C275 C270 1.418 . S
C275 C271 1.353 . S
C276 H246 0.930 . S
C276 N277 1.330 . S
C276 C278 1.446 . S
N277 Co236 2.151 . S
N277 C276 1.330 . S
N277 C281 1.418 . S
C278 H257 0.929 . S
C278 C276 1.446 . S
C278 C279 1.332 . S
C279 H259 0.931 . S
C279 C278 1.332 . S
C279 C280 1.267 . S
C280 H248 0.929 . S
C280 C279 1.267 . S
C280 C281 1.251 . S
C281 H251 0.929 . S
C281 N277 1.418 . S
C281 C280 1.251 . S
C282 H249 0.930 . S
C282 C284 1.406 . S
C282 C287 1.261 . S
C283 H250 0.930 . S
C283 N285 1.325 . S
C283 C286 1.357 . S
C284 H252 0.928 . S
C284 C282 1.406 . S
C284 N285 1.261 . S
N285 Co236 2.214 . S
N285 C283 1.325 . S
N285 C284 1.261 . S
C286 H256 0.931 . S
C286 C283 1.357 . S
C286 C287 1.312 . S
C287 H258 0.930 . S
C287 C282 1.261 . S
C287 C286 1.312 . S
C288 O260 1.214 . S
C288 O268 1.234 . S
C289 H261 0.929 . S
C289 C292 1.391 . S
C289 C294 1.391 . S
C290 H262 0.929 . S
C290 C291 1.390 . S
C290 N293 1.391 . S
C291 H263 0.930 . S
C291 C290 1.390 . S
C291 C292 1.392 . S
C292 H264 0.929 . S
C292 C289 1.391 . S
C292 C291 1.392 . S
N293 Co237 2.257 . S
N293 C290 1.391 . S
N293 C294 1.388 . S
C294 H265 0.930 . S
C294 C289 1.391 . S
C294 N293 1.388 . S
Co295 O297 2.143 . S
Co295 O303 2.074 . S
Co295 O306 2.093 . S
Co295 O319 2.097 . S
Co295 N336 2.151 . S
Co295 N344 2.214 . S
Co296 O297 2.160 . S
Co296 O302 2.058 . S
Co296 O312 2.057 . S
Co296 O327 2.037 . S
Co296 N331 2.145 . S
Co296 N352 2.257 . S
O297 Co295 2.143 . S
O297 Co296 2.160 . S
C298 O299 1.278 . S
C298 O306 1.224 . S
O299 C298 1.278 . S
C300 O301 1.245 . S
C300 O312 1.232 . S
O301 C300 1.245 . S
O302 Co296 2.058 . S
O302 C328 1.269 . S
O303 Co295 2.074 . S
O303 C328 1.257 . S
H304 C329 0.930 . S
H305 C335 0.930 . S
O306 Co295 2.093 . S
O306 C298 1.224 . S
H307 C339 0.929 . S
H308 C341 0.930 . S
H309 C342 0.930 . S
H310 C340 0.929 . S
H311 C343 0.928 . S
O312 Co296 2.057 . S
O312 C300 1.232 . S
H313 C332 0.929 . S
H314 C333 0.929 . S
H315 C345 0.931 . S
H316 C337 0.929 . S
H317 C346 0.930 . S
H318 C338 0.931 . S
O319 Co295 2.097 . S
O319 C347 1.214 . S
H320 C348 0.929 . S
H321 C349 0.929 . S
H322 C350 0.930 . S
H323 C351 0.929 . S
H324 C353 0.930 . S
H325 C330 0.930 . S
H326 C334 0.930 . S
O327 Co296 2.037 . S
O327 C347 1.234 . S
C328 O302 1.269 . S
C328 O303 1.257 . S
C329 H304 0.930 . S
C329 C332 1.388 . S
C329 C334 1.418 . S
C330 H325 0.930 . S
C330 C333 1.404 . S
C330 C334 1.353 . S
N331 Co296 2.145 . S
N331 C332 1.397 . S
N331 C333 1.334 . S
C332 H313 0.929 . S
C332 C329 1.388 . S
C332 N331 1.397 . S
C333 H314 0.929 . S
C333 C330 1.404 . S
C333 N331 1.334 . S
C334 H326 0.930 . S
C334 C329 1.418 . S
C334 C330 1.353 . S
C335 H305 0.930 . S
C335 N336 1.330 . S
C335 C337 1.446 . S
N336 Co295 2.151 . S
N336 C335 1.330 . S
N336 C340 1.418 . S
C337 H316 0.929 . S
C337 C335 1.446 . S
C337 C338 1.332 . S
C338 H318 0.931 . S
C338 C337 1.332 . S
C338 C339 1.267 . S
C339 H307 0.929 . S
C339 C338 1.267 . S
C339 C340 1.251 . S
C340 H310 0.929 . S
C340 N336 1.418 . S
C340 C339 1.251 . S
C341 H308 0.930 . S
C341 C343 1.406 . S
C341 C346 1.261 . S
C342 H309 0.930 . S
C342 N344 1.325 . S
C342 C345 1.357 . S
C343 H311 0.928 . S
C343 C341 1.406 . S
C343 N344 1.261 . S
N344 Co295 2.214 . S
N344 C342 1.325 . S
N344 C343 1.261 . S
C345 H315 0.931 . S
C345 C342 1.357 . S
C345 C346 1.312 . S
C346 H317 0.930 . S
C346 C341 1.261 . S
C346 C345 1.312 . S
C347 O319 1.214 . S
C347 O327 1.234 . S
C348 H320 0.929 . S
C348 C351 1.391 . S
C348 C353 1.391 . S
C349 H321 0.929 . S
C349 C350 1.390 . S
C349 N352 1.391 . S
C350 H322 0.930 . S
C350 C349 1.390 . S
C350 C351 1.392 . S
C351 H323 0.929 . S
C351 C348 1.391 . S
C351 C350 1.392 . S
N352 Co296 2.257 . S
N352 C349 1.391 . S
N352 C353 1.388 . S
C353 H324 0.930 . S
C353 C348 1.391 . S
C353 N352 1.388 . S
Co354 O356 2.143 . S
Co354 O362 2.074 . S
Co354 O365 2.093 . S
Co354 O378 2.097 . S
Co354 N395 2.151 . S
Co354 N403 2.214 . S
Co355 O356 2.160 . S
Co355 O361 2.058 . S
Co355 O371 2.057 . S
Co355 O386 2.037 . S
Co355 N390 2.145 . S
Co355 N411 2.257 . S
O356 Co354 2.143 . S
O356 Co355 2.160 . S
C357 O358 1.278 . S
C357 O365 1.224 . S
O358 C357 1.278 . S
C359 O360 1.245 . S
C359 O371 1.232 . S
O360 C359 1.245 . S
O361 Co355 2.058 . S
O361 C387 1.269 . S
O362 Co354 2.074 . S
O362 C387 1.257 . S
H363 C388 0.930 . S
H364 C394 0.930 . S
O365 Co354 2.093 . S
O365 C357 1.224 . S
H366 C398 0.929 . S
H367 C400 0.930 . S
H368 C401 0.930 . S
H369 C399 0.929 . S
H370 C402 0.928 . S
O371 Co355 2.057 . S
O371 C359 1.232 . S
H372 C391 0.929 . S
H373 C392 0.929 . S
H374 C404 0.931 . S
H375 C396 0.929 . S
H376 C405 0.930 . S
H377 C397 0.931 . S
O378 Co354 2.097 . S
O378 C406 1.214 . S
H379 C407 0.929 . S
H380 C408 0.929 . S
H381 C409 0.930 . S
H382 C410 0.929 . S
H383 C412 0.930 . S
H384 C389 0.930 . S
H385 C393 0.930 . S
O386 Co355 2.037 . S
O386 C406 1.234 . S
C387 O361 1.269 . S
C387 O362 1.257 . S
C388 H363 0.930 . S
C388 C391 1.388 . S
C388 C393 1.418 . S
C389 H384 0.930 . S
C389 C392 1.404 . S
C389 C393 1.353 . S
N390 Co355 2.145 . S
N390 C391 1.397 . S
N390 C392 1.334 . S
C391 H372 0.929 . S
C391 C388 1.388 . S
C391 N390 1.397 . S
C392 H373 0.929 . S
C392 C389 1.404 . S
C392 N390 1.334 . S
C393 H385 0.930 . S
C393 C388 1.418 . S
C393 C389 1.353 . S
C394 H364 0.930 . S
C394 N395 1.330 . S
C394 C396 1.446 . S
N395 Co354 2.151 . S
N395 C394 1.330 . S
N395 C399 1.418 . S
C396 H375 0.929 . S
C396 C394 1.446 . S
C396 C397 1.332 . S
C397 H377 0.931 . S
C397 C396 1.332 . S
C397 C398 1.267 . S
C398 H366 0.929 . S
C398 C397 1.267 . S
C398 C399 1.251 . S
C399 H369 0.929 . S
C399 N395 1.418 . S
C399 C398 1.251 . S
C400 H367 0.930 . S
C400 C402 1.406 . S
C400 C405 1.261 . S
C401 H368 0.930 . S
C401 N403 1.325 . S
C401 C404 1.357 . S
C402 H370 0.928 . S
C402 C400 1.406 . S
C402 N403 1.261 . S
N403 Co354 2.214 . S
N403 C401 1.325 . S
N403 C402 1.261 . S
C404 H374 0.931 . S
C404 C401 1.357 . S
C404 C405 1.312 . S
C405 H376 0.930 . S
C405 C400 1.261 . S
C405 C404 1.312 . S
C406 O378 1.214 . S
C406 O386 1.234 . S
C407 H379 0.929 . S
C407 C410 1.391 . S
C407 C412 1.391 . S
C408 H380 0.929 . S
C408 C409 1.390 . S
C408 N411 1.391 . S
C409 H381 0.930 . S
C409 C408 1.390 . S
C409 C410 1.392 . S
C410 H382 0.929 . S
C410 C407 1.391 . S
C410 C409 1.392 . S
N411 Co355 2.257 . S
N411 C408 1.391 . S
N411 C412 1.388 . S
C412 H383 0.930 . S
C412 C407 1.391 . S
C412 N411 1.388 . S
Co413 O415 2.143 . S
Co413 O421 2.074 . S
Co413 O424 2.093 . S
Co413 O437 2.097 . S
Co413 N454 2.151 . S
Co413 N462 2.214 . S
Co414 O415 2.160 . S
Co414 O420 2.058 . S
Co414 O430 2.057 . S
Co414 O445 2.037 . S
Co414 N449 2.145 . S
Co414 N470 2.257 . S
O415 Co413 2.143 . S
O415 Co414 2.160 . S
C416 O417 1.278 . S
C416 O424 1.224 . S
O417 C416 1.278 . S
C418 O419 1.245 . S
C418 O430 1.232 . S
O419 C418 1.245 . S
O420 Co414 2.058 . S
O420 C446 1.269 . S
O421 Co413 2.074 . S
O421 C446 1.257 . S
H422 C447 0.930 . S
H423 C453 0.930 . S
O424 Co413 2.093 . S
O424 C416 1.224 . S
H425 C457 0.929 . S
H426 C459 0.930 . S
H427 C460 0.930 . S
H428 C458 0.929 . S
H429 C461 0.928 . S
O430 Co414 2.057 . S
O430 C418 1.232 . S
H431 C450 0.929 . S
H432 C451 0.929 . S
H433 C463 0.931 . S
H434 C455 0.929 . S
H435 C464 0.930 . S
H436 C456 0.931 . S
O437 Co413 2.097 . S
O437 C465 1.214 . S
H438 C466 0.929 . S
H439 C467 0.929 . S
H440 C468 0.930 . S
H441 C469 0.929 . S
H442 C471 0.930 . S
H443 C448 0.930 . S
H444 C452 0.930 . S
O445 Co414 2.037 . S
O445 C465 1.234 . S
C446 O420 1.269 . S
C446 O421 1.257 . S
C447 H422 0.930 . S
C447 C450 1.388 . S
C447 C452 1.418 . S
C448 H443 0.930 . S
C448 C451 1.404 . S
C448 C452 1.353 . S
N449 Co414 2.145 . S
N449 C450 1.397 . S
N449 C451 1.334 . S
C450 H431 0.929 . S
C450 C447 1.388 . S
C450 N449 1.397 . S
C451 H432 0.929 . S
C451 C448 1.404 . S
C451 N449 1.334 . S
C452 H444 0.930 . S
C452 C447 1.418 . S
C452 C448 1.353 . S
C453 H423 0.930 . S
C453 N454 1.330 . S
C453 C455 1.446 . S
N454 Co413 2.151 . S
N454 C453 1.330 . S
N454 C458 1.418 . S
C455 H434 0.929 . S
C455 C453 1.446 . S
C455 C456 1.332 . S
C456 H436 0.931 . S
C456 C455 1.332 . S
C456 C457 1.267 . S
C457 H425 0.929 . S
C457 C456 1.267 . S
C457 C458 1.251 . S
C458 H428 0.929 . S
C458 N454 1.418 . S
C458 C457 1.251 . S
C459 H426 0.930 . S
C459 C461 1.406 . S
C459 C464 1.261 . S
C460 H427 0.930 . S
C460 N462 1.325 . S
C460 C463 1.357 . S
C461 H429 0.928 . S
C461 C459 1.406 . S
C461 N462 1.261 . S
N462 Co413 2.214 . S
N462 C460 1.325 . S
N462 C461 1.261 . S
C463 H433 0.931 . S
C463 C460 1.357 . S
C463 C464 1.312 . S
C464 H435 0.930 . S
C464 C459 1.261 . S
C464 C463 1.312 . S
C465 O437 1.214 . S
C465 O445 1.234 . S
C466 H438 0.929 . S
C466 C469 1.391 . S
C466 C471 1.391 . S
C467 H439 0.929 . S
C467 C468 1.390 . S
C467 N470 1.391 . S
C468 H440 0.930 . S
C468 C467 1.390 . S
C468 C469 1.392 . S
C469 H441 0.929 . S
C469 C466 1.391 . S
C469 C468 1.392 . S
N470 Co414 2.257 . S
N470 C467 1.391 . S
N470 C471 1.388 . S
C471 H442 0.930 . S
C471 C466 1.391 . S
C471 N470 1.388 . S
Co472 O474 2.143 . S
Co472 O480 2.074 . S
Co472 O483 2.093 . S
Co472 O496 2.097 . S
Co472 N513 2.151 . S
Co472 N521 2.214 . S
Co473 O474 2.160 . S
Co473 O479 2.058 . S
Co473 O489 2.057 . S
Co473 O504 2.037 . S
Co473 N508 2.145 . S
Co473 N529 2.257 . S
O474 Co472 2.143 . S
O474 Co473 2.160 . S
C475 O476 1.278 . S
C475 O483 1.224 . S
O476 C475 1.278 . S
C477 O478 1.245 . S
C477 O489 1.232 . S
O478 C477 1.245 . S
O479 Co473 2.058 . S
O479 C505 1.269 . S
O480 Co472 2.074 . S
O480 C505 1.257 . S
H481 C506 0.930 . S
H482 C512 0.930 . S
O483 Co472 2.093 . S
O483 C475 1.224 . S
H484 C516 0.929 . S
H485 C518 0.930 . S
H486 C519 0.930 . S
H487 C517 0.929 . S
H488 C520 0.928 . S
O489 Co473 2.057 . S
O489 C477 1.232 . S
H490 C509 0.929 . S
H491 C510 0.929 . S
H492 C522 0.931 . S
H493 C514 0.929 . S
H494 C523 0.930 . S
H495 C515 0.931 . S
O496 Co472 2.097 . S
O496 C524 1.214 . S
H497 C525 0.929 . S
H498 C526 0.929 . S
H499 C527 0.930 1_545 S
H500 C528 0.929 1_545 S
H501 C530 0.930 . S
H502 C507 0.930 . S
H503 C511 0.930 . S
O504 Co473 2.037 . S
O504 C524 1.234 . S
C505 O479 1.269 . S
C505 O480 1.257 . S
C506 H481 0.930 . S
C506 C509 1.388 . S
C506 C511 1.418 . S
C507 H502 0.930 . S
C507 C510 1.404 . S
C507 C511 1.353 . S
N508 Co473 2.145 . S
N508 C509 1.397 . S
N508 C510 1.334 . S
C509 H490 0.929 . S
C509 C506 1.388 . S
C509 N508 1.397 . S
C510 H491 0.929 . S
C510 C507 1.404 . S
C510 N508 1.334 . S
C511 H503 0.930 . S
C511 C506 1.418 . S
C511 C507 1.353 . S
C512 H482 0.930 . S
C512 N513 1.330 . S
C512 C514 1.446 . S
N513 Co472 2.151 . S
N513 C512 1.330 . S
N513 C517 1.418 . S
C514 H493 0.929 . S
C514 C512 1.446 . S
C514 C515 1.332 . S
C515 H495 0.931 . S
C515 C514 1.332 . S
C515 C516 1.267 . S
C516 H484 0.929 . S
C516 C515 1.267 . S
C516 C517 1.251 . S
C517 H487 0.929 . S
C517 N513 1.418 . S
C517 C516 1.251 . S
C518 H485 0.930 . S
C518 C520 1.406 . S
C518 C523 1.261 . S
C519 H486 0.930 . S
C519 N521 1.325 . S
C519 C522 1.357 . S
C520 H488 0.928 . S
C520 C518 1.406 . S
C520 N521 1.261 . S
N521 Co472 2.214 . S
N521 C519 1.325 . S
N521 C520 1.261 . S
C522 H492 0.931 . S
C522 C519 1.357 . S
C522 C523 1.312 . S
C523 H494 0.930 . S
C523 C518 1.261 . S
C523 C522 1.312 . S
C524 O496 1.214 . S
C524 O504 1.234 . S
C525 H497 0.929 . S
C525 C528 1.391 . S
C525 C530 1.391 . S
C526 H498 0.929 . S
C526 C527 1.390 . S
C526 N529 1.391 . S
C527 H499 0.930 1_565 S
C527 C526 1.390 . S
C527 C528 1.392 . S
C528 H500 0.929 1_565 S
C528 C525 1.391 . S
C528 C527 1.392 . S
N529 Co473 2.257 . S
N529 C526 1.391 . S
N529 C530 1.388 . S
C530 H501 0.930 . S
C530 C525 1.391 . S
C530 N529 1.388 . S
Co531 O533 2.143 . S
Co531 O539 2.074 . S
Co531 O542 2.093 . S
Co531 O555 2.097 . S
Co531 N572 2.151 . S
Co531 N580 2.214 . S
Co532 O533 2.160 . S
Co532 O538 2.058 . S
Co532 O548 2.057 . S
Co532 O563 2.037 . S
Co532 N567 2.145 . S
Co532 N588 2.257 . S
O533 Co531 2.143 . S
O533 Co532 2.160 . S
C534 O535 1.278 . S
C534 O542 1.224 . S
O535 C534 1.278 . S
C536 O537 1.245 . S
C536 O548 1.232 . S
O537 C536 1.245 . S
O538 Co532 2.058 . S
O538 C564 1.269 . S
O539 Co531 2.074 . S
O539 C564 1.257 . S
H540 C565 0.930 . S
H541 C571 0.930 . S
O542 Co531 2.093 . S
O542 C534 1.224 . S
H543 C575 0.929 . S
H544 C577 0.930 . S
H545 C578 0.930 . S
H546 C576 0.929 . S
H547 C579 0.928 . S
O548 Co532 2.057 . S
O548 C536 1.232 . S
H549 C568 0.929 . S
H550 C569 0.929 . S
H551 C581 0.931 . S
H552 C573 0.929 . S
H553 C582 0.930 . S
H554 C574 0.931 . S
O555 Co531 2.097 . S
O555 C583 1.214 . S
H556 C584 0.929 . S
H557 C585 0.929 . S
H558 C586 0.930 1_455 S
H559 C587 0.929 1_455 S
H560 C589 0.930 . S
H561 C566 0.930 . S
H562 C570 0.930 . S
O563 Co532 2.037 . S
O563 C583 1.234 . S
C564 O538 1.269 . S
C564 O539 1.257 . S
C565 H540 0.930 . S
C565 C568 1.388 . S
C565 C570 1.418 . S
C566 H561 0.930 . S
C566 C569 1.404 . S
C566 C570 1.353 . S
N567 Co532 2.145 . S
N567 C568 1.397 . S
N567 C569 1.334 . S
C568 H549 0.929 . S
C568 C565 1.388 . S
C568 N567 1.397 . S
C569 H550 0.929 . S
C569 C566 1.404 . S
C569 N567 1.334 . S
C570 H562 0.930 . S
C570 C565 1.418 . S
C570 C566 1.353 . S
C571 H541 0.930 . S
C571 N572 1.330 . S
C571 C573 1.446 . S
N572 Co531 2.151 . S
N572 C571 1.330 . S
N572 C576 1.418 . S
C573 H552 0.929 . S
C573 C571 1.446 . S
C573 C574 1.332 . S
C574 H554 0.931 . S
C574 C573 1.332 . S
C574 C575 1.267 . S
C575 H543 0.929 . S
C575 C574 1.267 . S
C575 C576 1.251 . S
C576 H546 0.929 . S
C576 N572 1.418 . S
C576 C575 1.251 . S
C577 H544 0.930 . S
C577 C579 1.406 . S
C577 C582 1.261 . S
C578 H545 0.930 . S
C578 N580 1.325 . S
C578 C581 1.357 . S
C579 H547 0.928 . S
C579 C577 1.406 . S
C579 N580 1.261 . S
N580 Co531 2.214 . S
N580 C578 1.325 . S
N580 C579 1.261 . S
C581 H551 0.931 . S
C581 C578 1.357 . S
C581 C582 1.312 . S
C582 H553 0.930 . S
C582 C577 1.261 . S
C582 C581 1.312 . S
C583 O555 1.214 . S
C583 O563 1.234 . S
C584 H556 0.929 . S
C584 C587 1.391 . S
C584 C589 1.391 . S
C585 H557 0.929 . S
C585 C586 1.390 . S
C585 N588 1.391 . S
C586 H558 0.930 1_655 S
C586 C585 1.390 . S
C586 C587 1.392 . S
C587 H559 0.929 1_655 S
C587 C584 1.391 . S
C587 C586 1.392 . S
N588 Co532 2.257 . S
N588 C585 1.391 . S
N588 C589 1.388 . S
C589 H560 0.930 . S
C589 C584 1.391 . S
C589 N588 1.388 . S
Co590 O592 2.143 . S
Co590 O598 2.074 . S
Co590 O601 2.093 . S
Co590 O614 2.097 . S
Co590 N631 2.151 . S
Co590 N639 2.214 . S
Co591 O592 2.160 . S
Co591 O597 2.058 . S
Co591 O607 2.057 . S
Co591 O622 2.037 . S
Co591 N626 2.145 . S
Co591 N647 2.257 . S
O592 Co590 2.143 . S
O592 Co591 2.160 . S
C593 O594 1.278 . S
C593 O601 1.224 . S
O594 C593 1.278 . S
C595 O596 1.245 . S
C595 O607 1.232 . S
O596 C595 1.245 . S
O597 Co591 2.058 . S
O597 C623 1.269 . S
O598 Co590 2.074 . S
O598 C623 1.257 . S
H599 C624 0.930 . S
H600 C630 0.930 . S
O601 Co590 2.093 . S
O601 C593 1.224 . S
H602 C634 0.929 . S
H603 C636 0.930 . S
H604 C637 0.930 . S
H605 C635 0.929 . S
H606 C638 0.928 . S
O607 Co591 2.057 . S
O607 C595 1.232 . S
H608 C627 0.929 . S
H609 C628 0.929 . S
H610 C640 0.931 . S
H611 C632 0.929 . S
H612 C641 0.930 . S
H613 C633 0.931 . S
O614 Co590 2.097 . S
O614 C642 1.214 . S
H615 C643 0.929 . S
H616 C644 0.929 . S
H617 C645 0.930 1_565 S
H618 C646 0.929 1_565 S
H619 C648 0.930 . S
H620 C625 0.930 . S
H621 C629 0.930 . S
O622 Co591 2.037 . S
O622 C642 1.234 . S
C623 O597 1.269 . S
C623 O598 1.257 . S
C624 H599 0.930 . S
C624 C627 1.388 . S
C624 C629 1.418 . S
C625 H620 0.930 . S
C625 C628 1.404 . S
C625 C629 1.353 . S
N626 Co591 2.145 . S
N626 C627 1.397 . S
N626 C628 1.334 . S
C627 H608 0.929 . S
C627 C624 1.388 . S
C627 N626 1.397 . S
C628 H609 0.929 . S
C628 C625 1.404 . S
C628 N626 1.334 . S
C629 H621 0.930 . S
C629 C624 1.418 . S
C629 C625 1.353 . S
C630 H600 0.930 . S
C630 N631 1.330 . S
C630 C632 1.446 . S
N631 Co590 2.151 . S
N631 C630 1.330 . S
N631 C635 1.418 . S
C632 H611 0.929 . S
C632 C630 1.446 . S
C632 C633 1.332 . S
C633 H613 0.931 . S
C633 C632 1.332 . S
C633 C634 1.267 . S
C634 H602 0.929 . S
C634 C633 1.267 . S
C634 C635 1.251 . S
C635 H605 0.929 . S
C635 N631 1.418 . S
C635 C634 1.251 . S
C636 H603 0.930 . S
C636 C638 1.406 . S
C636 C641 1.261 . S
C637 H604 0.930 . S
C637 N639 1.325 . S
C637 C640 1.357 . S
C638 H606 0.928 . S
C638 C636 1.406 . S
C638 N639 1.261 . S
N639 Co590 2.214 . S
N639 C637 1.325 . S
N639 C638 1.261 . S
C640 H610 0.931 . S
C640 C637 1.357 . S
C640 C641 1.312 . S
C641 H612 0.930 . S
C641 C636 1.261 . S
C641 C640 1.312 . S
C642 O614 1.214 . S
C642 O622 1.234 . S
C643 H615 0.929 . S
C643 C646 1.391 . S
C643 C648 1.391 . S
C644 H616 0.929 . S
C644 C645 1.390 . S
C644 N647 1.391 . S
C645 H617 0.930 1_545 S
C645 C644 1.390 . S
C645 C646 1.392 . S
C646 H618 0.929 1_545 S
C646 C643 1.391 . S
C646 C645 1.392 . S
N647 Co591 2.257 . S
N647 C644 1.391 . S
N647 C648 1.388 . S
C648 H619 0.930 . S
C648 C643 1.391 . S
C648 N647 1.388 . S
Co649 O651 2.143 . S
Co649 O657 2.074 . S
Co649 O660 2.093 . S
Co649 O673 2.097 . S
Co649 N690 2.151 . S
Co649 N698 2.214 . S
Co650 O651 2.160 . S
Co650 O656 2.058 . S
Co650 O666 2.057 . S
Co650 O681 2.037 . S
Co650 N685 2.145 . S
Co650 N706 2.257 . S
O651 Co649 2.143 . S
O651 Co650 2.160 . S
C652 O653 1.278 . S
C652 O660 1.224 . S
O653 C652 1.278 . S
C654 O655 1.245 . S
C654 O666 1.232 . S
O655 C654 1.245 . S
O656 Co650 2.058 . S
O656 C682 1.269 . S
O657 Co649 2.074 . S
O657 C682 1.257 . S
H658 C683 0.930 . S
H659 C689 0.930 . S
O660 Co649 2.093 . S
O660 C652 1.224 . S
H661 C693 0.929 . S
H662 C695 0.930 . S
H663 C696 0.930 . S
H664 C694 0.929 . S
H665 C697 0.928 . S
O666 Co650 2.057 . S
O666 C654 1.232 . S
H667 C686 0.929 . S
H668 C687 0.929 . S
H669 C699 0.931 . S
H670 C691 0.929 . S
H671 C700 0.930 . S
H672 C692 0.931 . S
O673 Co649 2.097 . S
O673 C701 1.214 . S
H674 C702 0.929 . S
H675 C703 0.929 . S
H676 C704 0.930 1_655 S
H677 C705 0.929 1_655 S
H678 C707 0.930 . S
H679 C684 0.930 . S
H680 C688 0.930 . S
O681 Co650 2.037 . S
O681 C701 1.234 . S
C682 O656 1.269 . S
C682 O657 1.257 . S
C683 H658 0.930 . S
C683 C686 1.388 . S
C683 C688 1.418 . S
C684 H679 0.930 . S
C684 C687 1.404 . S
C684 C688 1.353 . S
N685 Co650 2.145 . S
N685 C686 1.397 . S
N685 C687 1.334 . S
C686 H667 0.929 . S
C686 C683 1.388 . S
C686 N685 1.397 . S
C687 H668 0.929 . S
C687 C684 1.404 . S
C687 N685 1.334 . S
C688 H680 0.930 . S
C688 C683 1.418 . S
C688 C684 1.353 . S
C689 H659 0.930 . S
C689 N690 1.330 . S
C689 C691 1.446 . S
N690 Co649 2.151 . S
N690 C689 1.330 . S
N690 C694 1.418 . S
C691 H670 0.929 . S
C691 C689 1.446 . S
C691 C692 1.332 . S
C692 H672 0.931 . S
C692 C691 1.332 . S
C692 C693 1.267 . S
C693 H661 0.929 . S
C693 C692 1.267 . S
C693 C694 1.251 . S
C694 H664 0.929 . S
C694 N690 1.418 . S
C694 C693 1.251 . S
C695 H662 0.930 . S
C695 C697 1.406 . S
C695 C700 1.261 . S
C696 H663 0.930 . S
C696 N698 1.325 . S
C696 C699 1.357 . S
C697 H665 0.928 . S
C697 C695 1.406 . S
C697 N698 1.261 . S
N698 Co649 2.214 . S
N698 C696 1.325 . S
N698 C697 1.261 . S
C699 H669 0.931 . S
C699 C696 1.357 . S
C699 C700 1.312 . S
C700 H671 0.930 . S
C700 C695 1.261 . S
C700 C699 1.312 . S
C701 O673 1.214 . S
C701 O681 1.234 . S
C702 H674 0.929 . S
C702 C705 1.391 . S
C702 C707 1.391 . S
C703 H675 0.929 . S
C703 C704 1.390 . S
C703 N706 1.391 . S
C704 H676 0.930 1_455 S
C704 C703 1.390 . S
C704 C705 1.392 . S
C705 H677 0.929 1_455 S
C705 C702 1.391 . S
C705 C704 1.392 . S
N706 Co650 2.257 . S
N706 C703 1.391 . S
N706 C707 1.388 . S
C707 H678 0.930 . S
C707 C702 1.391 . S
C707 N706 1.388 . S
Co708 O710 2.143 . S
Co708 O716 2.074 . S
Co708 O719 2.093 . S
Co708 O732 2.097 . S
Co708 N749 2.151 . S
Co708 N757 2.214 . S
Co709 O710 2.160 . S
Co709 O715 2.058 . S
Co709 O725 2.057 . S
Co709 O740 2.037 . S
Co709 N744 2.145 . S
Co709 N765 2.257 . S
O710 Co708 2.143 . S
O710 Co709 2.160 . S
C711 O712 1.278 . S
C711 O719 1.224 . S
O712 C711 1.278 . S
C713 O714 1.245 . S
C713 O725 1.232 . S
O714 C713 1.245 . S
O715 Co709 2.058 . S
O715 C741 1.269 . S
O716 Co708 2.074 . S
O716 C741 1.257 . S
H717 C742 0.930 . S
H718 C748 0.930 . S
O719 Co708 2.093 . S
O719 C711 1.224 . S
H720 C752 0.929 . S
H721 C754 0.930 . S
H722 C755 0.930 . S
H723 C753 0.929 . S
H724 C756 0.928 . S
O725 Co709 2.057 . S
O725 C713 1.232 . S
H726 C745 0.929 . S
H727 C746 0.929 . S
H728 C758 0.931 . S
H729 C750 0.929 . S
H730 C759 0.930 . S
H731 C751 0.931 . S
O732 Co708 2.097 . S
O732 C760 1.214 . S
H733 C761 0.929 . S
H734 C762 0.929 . S
H735 C763 0.930 1_565 S
H736 C764 0.929 1_565 S
H737 C766 0.930 . S
H738 C743 0.930 . S
H739 C747 0.930 . S
O740 Co709 2.037 . S
O740 C760 1.234 . S
C741 O715 1.269 . S
C741 O716 1.257 . S
C742 H717 0.930 . S
C742 C745 1.388 . S
C742 C747 1.418 . S
C743 H738 0.930 . S
C743 C746 1.404 . S
C743 C747 1.353 . S
N744 Co709 2.145 . S
N744 C745 1.397 . S
N744 C746 1.334 . S
C745 H726 0.929 . S
C745 C742 1.388 . S
C745 N744 1.397 . S
C746 H727 0.929 . S
C746 C743 1.404 . S
C746 N744 1.334 . S
C747 H739 0.930 . S
C747 C742 1.418 . S
C747 C743 1.353 . S
C748 H718 0.930 . S
C748 N749 1.330 . S
C748 C750 1.446 . S
N749 Co708 2.151 . S
N749 C748 1.330 . S
N749 C753 1.418 . S
C750 H729 0.929 . S
C750 C748 1.446 . S
C750 C751 1.332 . S
C751 H731 0.931 . S
C751 C750 1.332 . S
C751 C752 1.267 . S
C752 H720 0.929 . S
C752 C751 1.267 . S
C752 C753 1.251 . S
C753 H723 0.929 . S
C753 N749 1.418 . S
C753 C752 1.251 . S
C754 H721 0.930 . S
C754 C756 1.406 . S
C754 C759 1.261 . S
C755 H722 0.930 . S
C755 N757 1.325 . S
C755 C758 1.357 . S
C756 H724 0.928 . S
C756 C754 1.406 . S
C756 N757 1.261 . S
N757 Co708 2.214 . S
N757 C755 1.325 . S
N757 C756 1.261 . S
C758 H728 0.931 . S
C758 C755 1.357 . S
C758 C759 1.312 . S
C759 H730 0.930 . S
C759 C754 1.261 . S
C759 C758 1.312 . S
C760 O732 1.214 . S
C760 O740 1.234 . S
C761 H733 0.929 . S
C761 C764 1.391 . S
C761 C766 1.391 . S
C762 H734 0.929 . S
C762 C763 1.390 . S
C762 N765 1.391 . S
C763 H735 0.930 1_545 S
C763 C762 1.390 . S
C763 C764 1.392 . S
C764 H736 0.929 1_545 S
C764 C761 1.391 . S
C764 C763 1.392 . S
N765 Co709 2.257 . S
N765 C762 1.391 . S
N765 C766 1.388 . S
C766 H737 0.930 . S
C766 C761 1.391 . S
C766 N765 1.388 . S
Co767 O769 2.143 . S
Co767 O775 2.074 . S
Co767 O778 2.093 . S
Co767 O791 2.097 . S
Co767 N808 2.151 . S
Co767 N816 2.214 . S
Co768 O769 2.160 . S
Co768 O774 2.058 . S
Co768 O784 2.057 . S
Co768 O799 2.037 . S
Co768 N803 2.145 . S
Co768 N824 2.257 . S
O769 Co767 2.143 . S
O769 Co768 2.160 . S
C770 O771 1.278 . S
C770 O778 1.224 . S
O771 C770 1.278 . S
C772 O773 1.245 . S
C772 O784 1.232 . S
O773 C772 1.245 . S
O774 Co768 2.058 . S
O774 C800 1.269 . S
O775 Co767 2.074 . S
O775 C800 1.257 . S
H776 C801 0.930 . S
H777 C807 0.930 . S
O778 Co767 2.093 . S
O778 C770 1.224 . S
H779 C811 0.929 . S
H780 C813 0.930 . S
H781 C814 0.930 . S
H782 C812 0.929 . S
H783 C815 0.928 . S
O784 Co768 2.057 . S
O784 C772 1.232 . S
H785 C804 0.929 . S
H786 C805 0.929 . S
H787 C817 0.931 . S
H788 C809 0.929 . S
H789 C818 0.930 . S
H790 C810 0.931 . S
O791 Co767 2.097 . S
O791 C819 1.214 . S
H792 C820 0.929 . S
H793 C821 0.929 . S
H794 C822 0.930 1_655 S
H795 C823 0.929 1_655 S
H796 C825 0.930 . S
H797 C802 0.930 . S
H798 C806 0.930 . S
O799 Co768 2.037 . S
O799 C819 1.234 . S
C800 O774 1.269 . S
C800 O775 1.257 . S
C801 H776 0.930 . S
C801 C804 1.388 . S
C801 C806 1.418 . S
C802 H797 0.930 . S
C802 C805 1.404 . S
C802 C806 1.353 . S
N803 Co768 2.145 . S
N803 C804 1.397 . S
N803 C805 1.334 . S
C804 H785 0.929 . S
C804 C801 1.388 . S
C804 N803 1.397 . S
C805 H786 0.929 . S
C805 C802 1.404 . S
C805 N803 1.334 . S
C806 H798 0.930 . S
C806 C801 1.418 . S
C806 C802 1.353 . S
C807 H777 0.930 . S
C807 N808 1.330 . S
C807 C809 1.446 . S
N808 Co767 2.151 . S
N808 C807 1.330 . S
N808 C812 1.418 . S
C809 H788 0.929 . S
C809 C807 1.446 . S
C809 C810 1.332 . S
C810 H790 0.931 . S
C810 C809 1.332 . S
C810 C811 1.267 . S
C811 H779 0.929 . S
C811 C810 1.267 . S
C811 C812 1.251 . S
C812 H782 0.929 . S
C812 N808 1.418 . S
C812 C811 1.251 . S
C813 H780 0.930 . S
C813 C815 1.406 . S
C813 C818 1.261 . S
C814 H781 0.930 . S
C814 N816 1.325 . S
C814 C817 1.357 . S
C815 H783 0.928 . S
C815 C813 1.406 . S
C815 N816 1.261 . S
N816 Co767 2.214 . S
N816 C814 1.325 . S
N816 C815 1.261 . S
C817 H787 0.931 . S
C817 C814 1.357 . S
C817 C818 1.312 . S
C818 H789 0.930 . S
C818 C813 1.261 . S
C818 C817 1.312 . S
C819 O791 1.214 . S
C819 O799 1.234 . S
C820 H792 0.929 . S
C820 C823 1.391 . S
C820 C825 1.391 . S
C821 H793 0.929 . S
C821 C822 1.390 . S
C821 N824 1.391 . S
C822 H794 0.930 1_455 S
C822 C821 1.390 . S
C822 C823 1.392 . S
C823 H795 0.929 1_455 S
C823 C820 1.391 . S
C823 C822 1.392 . S
N824 Co768 2.257 . S
N824 C821 1.391 . S
N824 C825 1.388 . S
C825 H796 0.930 . S
C825 C820 1.391 . S
C825 N824 1.388 . S
Co826 O828 2.143 . S
Co826 O834 2.074 . S
Co826 O837 2.093 . S
Co826 O850 2.097 . S
Co826 N867 2.151 . S
Co826 N875 2.214 . S
Co827 O828 2.160 . S
Co827 O833 2.058 . S
Co827 O843 2.057 . S
Co827 O858 2.037 . S
Co827 N862 2.145 . S
Co827 N883 2.257 . S
O828 Co826 2.143 . S
O828 Co827 2.160 . S
C829 O830 1.278 . S
C829 O837 1.224 . S
O830 C829 1.278 . S
C831 O832 1.245 . S
C831 O843 1.232 . S
O832 C831 1.245 . S
O833 Co827 2.058 . S
O833 C859 1.269 . S
O834 Co826 2.074 . S
O834 C859 1.257 . S
H835 C860 0.930 . S
H836 C866 0.930 . S
O837 Co826 2.093 . S
O837 C829 1.224 . S
H838 C870 0.929 . S
H839 C872 0.930 . S
H840 C873 0.930 . S
H841 C871 0.929 . S
H842 C874 0.928 . S
O843 Co827 2.057 . S
O843 C831 1.232 . S
H844 C863 0.929 . S
H845 C864 0.929 . S
H846 C876 0.931 . S
H847 C868 0.929 . S
H848 C877 0.930 . S
H849 C869 0.931 . S
O850 Co826 2.097 . S
O850 C878 1.214 . S
H851 C879 0.929 . S
H852 C880 0.929 . S
H853 C881 0.930 1_545 S
H854 C882 0.929 1_545 S
H855 C884 0.930 . S
H856 C861 0.930 . S
H857 C865 0.930 . S
O858 Co827 2.037 . S
O858 C878 1.234 . S
C859 O833 1.269 . S
C859 O834 1.257 . S
C860 H835 0.930 . S
C860 C863 1.388 . S
C860 C865 1.418 . S
C861 H856 0.930 . S
C861 C864 1.404 . S
C861 C865 1.353 . S
N862 Co827 2.145 . S
N862 C863 1.397 . S
N862 C864 1.334 . S
C863 H844 0.929 . S
C863 C860 1.388 . S
C863 N862 1.397 . S
C864 H845 0.929 . S
C864 C861 1.404 . S
C864 N862 1.334 . S
C865 H857 0.930 . S
C865 C860 1.418 . S
C865 C861 1.353 . S
C866 H836 0.930 . S
C866 N867 1.330 . S
C866 C868 1.446 . S
N867 Co826 2.151 . S
N867 C866 1.330 . S
N867 C871 1.418 . S
C868 H847 0.929 . S
C868 C866 1.446 . S
C868 C869 1.332 . S
C869 H849 0.931 . S
C869 C868 1.332 . S
C869 C870 1.267 . S
C870 H838 0.929 . S
C870 C869 1.267 . S
C870 C871 1.251 . S
C871 H841 0.929 . S
C871 N867 1.418 . S
C871 C870 1.251 . S
C872 H839 0.930 . S
C872 C874 1.406 . S
C872 C877 1.261 . S
C873 H840 0.930 . S
C873 N875 1.325 . S
C873 C876 1.357 . S
C874 H842 0.928 . S
C874 C872 1.406 . S
C874 N875 1.261 . S
N875 Co826 2.214 . S
N875 C873 1.325 . S
N875 C874 1.261 . S
C876 H846 0.931 . S
C876 C873 1.357 . S
C876 C877 1.312 . S
C877 H848 0.930 . S
C877 C872 1.261 . S
C877 C876 1.312 . S
C878 O850 1.214 . S
C878 O858 1.234 . S
C879 H851 0.929 . S
C879 C882 1.391 . S
C879 C884 1.391 . S
C880 H852 0.929 . S
C880 C881 1.390 . S
C880 N883 1.391 . S
C881 H853 0.930 1_565 S
C881 C880 1.390 . S
C881 C882 1.392 . S
C882 H854 0.929 1_565 S
C882 C879 1.391 . S
C882 C881 1.392 . S
N883 Co827 2.257 . S
N883 C880 1.391 . S
N883 C884 1.388 . S
C884 H855 0.930 . S
C884 C879 1.391 . S
C884 N883 1.388 . S
Co885 O887 2.143 . S
Co885 O893 2.074 . S
Co885 O896 2.093 . S
Co885 O909 2.097 . S
Co885 N926 2.151 . S
Co885 N934 2.214 . S
Co886 O887 2.160 . S
Co886 O892 2.058 . S
Co886 O902 2.057 . S
Co886 O917 2.037 . S
Co886 N921 2.145 . S
Co886 N942 2.257 . S
O887 Co885 2.143 . S
O887 Co886 2.160 . S
C888 O889 1.278 . S
C888 O896 1.224 . S
O889 C888 1.278 . S
C890 O891 1.245 . S
C890 O902 1.232 . S
O891 C890 1.245 . S
O892 Co886 2.058 . S
O892 C918 1.269 . S
O893 Co885 2.074 . S
O893 C918 1.257 . S
H894 C919 0.930 . S
H895 C925 0.930 . S
O896 Co885 2.093 . S
O896 C888 1.224 . S
H897 C929 0.929 . S
H898 C931 0.930 . S
H899 C932 0.930 . S
H900 C930 0.929 . S
H901 C933 0.928 . S
O902 Co886 2.057 . S
O902 C890 1.232 . S
H903 C922 0.929 . S
H904 C923 0.929 . S
H905 C935 0.931 . S
H906 C927 0.929 . S
H907 C936 0.930 . S
H908 C928 0.931 . S
O909 Co885 2.097 . S
O909 C937 1.214 . S
H910 C938 0.929 . S
H911 C939 0.929 . S
H912 C940 0.930 1_455 S
H913 C941 0.929 1_455 S
H914 C943 0.930 . S
H915 C920 0.930 . S
H916 C924 0.930 . S
O917 Co886 2.037 . S
O917 C937 1.234 . S
C918 O892 1.269 . S
C918 O893 1.257 . S
C919 H894 0.930 . S
C919 C922 1.388 . S
C919 C924 1.418 . S
C920 H915 0.930 . S
C920 C923 1.404 . S
C920 C924 1.353 . S
N921 Co886 2.145 . S
N921 C922 1.397 . S
N921 C923 1.334 . S
C922 H903 0.929 . S
C922 C919 1.388 . S
C922 N921 1.397 . S
C923 H904 0.929 . S
C923 C920 1.404 . S
C923 N921 1.334 . S
C924 H916 0.930 . S
C924 C919 1.418 . S
C924 C920 1.353 . S
C925 H895 0.930 . S
C925 N926 1.330 . S
C925 C927 1.446 . S
N926 Co885 2.151 . S
N926 C925 1.330 . S
N926 C930 1.418 . S
C927 H906 0.929 . S
C927 C925 1.446 . S
C927 C928 1.332 . S
C928 H908 0.931 . S
C928 C927 1.332 . S
C928 C929 1.267 . S
C929 H897 0.929 . S
C929 C928 1.267 . S
C929 C930 1.251 . S
C930 H900 0.929 . S
C930 N926 1.418 . S
C930 C929 1.251 . S
C931 H898 0.930 . S
C931 C933 1.406 . S
C931 C936 1.261 . S
C932 H899 0.930 . S
C932 N934 1.325 . S
C932 C935 1.357 . S
C933 H901 0.928 . S
C933 C931 1.406 . S
C933 N934 1.261 . S
N934 Co885 2.214 . S
N934 C932 1.325 . S
N934 C933 1.261 . S
C935 H905 0.931 . S
C935 C932 1.357 . S
C935 C936 1.312 . S
C936 H907 0.930 . S
C936 C931 1.261 . S
C936 C935 1.312 . S
C937 O909 1.214 . S
C937 O917 1.234 . S
C938 H910 0.929 . S
C938 C941 1.391 . S
C938 C943 1.391 . S
C939 H911 0.929 . S
C939 C940 1.390 . S
C939 N942 1.391 . S
C940 H912 0.930 1_655 S
C940 C939 1.390 . S
C940 C941 1.392 . S
C941 H913 0.929 1_655 S
C941 C938 1.391 . S
C941 C940 1.392 . S
N942 Co886 2.257 . S
N942 C939 1.391 . S
N942 C943 1.388 . S
C943 H914 0.930 . S
C943 C938 1.391 . S
C943 N942 1.388 . S
C944 C945 1.349 . S
C944 C946 1.327 . S
C944 H969 0.950 . S
C945 C944 1.349 . S
C945 C961 1.349 . S
C946 C944 1.327 . S
C946 C965 1.429 . S
C946 H970 0.950 . S
C947 C964 1.574 . S
C947 C966 1.368 . S
C947 H971 0.949 . S
H948 C952 0.949 . S
C949 C950 1.349 . S
C949 C951 1.327 . S
C949 H972 0.950 . S
C950 C949 1.349 . S
C950 C962 1.349 . S
C951 C949 1.327 . S
C951 C967 1.429 . S
C951 H973 0.950 . S
C952 H948 0.949 . S
C952 C960 1.574 . S
C952 C968 1.368 . S
H953 C961 0.950 . S
H954 C959 0.950 . S
H955 C960 0.949 . S
H956 C962 0.950 . S
H957 C963 0.950 . S
H958 C964 0.949 . S
C959 H954 0.950 . S
C959 C961 1.327 . S
C959 C965 1.429 . S
C960 C952 1.574 . S
C960 H955 0.949 . S
C960 C966 1.368 . S
C961 C945 1.349 . S
C961 H953 0.950 . S
C961 C959 1.327 . S
C962 C950 1.349 . S
C962 H956 0.950 . S
C962 C963 1.327 . S
C963 H957 0.950 . S
C963 C962 1.327 . S
C963 C967 1.429 . S
C964 C947 1.574 . S
C964 H958 0.949 . S
C964 C968 1.368 . S
C965 C946 1.429 . S
C965 C959 1.429 . S
C965 C966 1.523 . S
C966 C947 1.368 . S
C966 C960 1.368 . S
C966 C965 1.523 . S
C967 C951 1.429 . S
C967 C963 1.429 . S
C967 C968 1.523 . S
C968 C952 1.368 . S
C968 C964 1.368 . S
C968 C967 1.523 . S
H969 C944 0.950 . S
H970 C946 0.950 . S
H971 C947 0.949 . S
H972 C949 0.950 . S
H973 C951 0.950 . S
C974 C975 1.349 . S
C974 C976 1.327 . S
C974 H999 0.950 . S
C975 C974 1.349 . S
C975 C991 1.349 . S
C976 C974 1.327 . S
C976 C995 1.429 . S
C976 H1000 0.950 . S
C977 C994 1.574 . S
C977 C996 1.368 . S
C977 H1001 0.949 . S
H978 C982 0.949 . S
C979 C980 1.349 . S
C979 C981 1.327 . S
C979 H1002 0.950 . S
C980 C979 1.349 . S
C980 C992 1.349 . S
C981 C979 1.327 . S
C981 C997 1.429 . S
C981 H1003 0.950 . S
C982 H978 0.949 . S
C982 C990 1.574 . S
C982 C998 1.368 . S
H983 C991 0.950 . S
H984 C989 0.950 . S
H985 C990 0.949 . S
H986 C992 0.950 . S
H987 C993 0.950 . S
H988 C994 0.949 . S
C989 H984 0.950 . S
C989 C991 1.327 . S
C989 C995 1.429 . S
C990 C982 1.574 . S
C990 H985 0.949 . S
C990 C996 1.368 . S
C991 C975 1.349 . S
C991 H983 0.950 . S
C991 C989 1.327 . S
C992 C980 1.349 . S
C992 H986 0.950 . S
C992 C993 1.327 . S
C993 H987 0.950 . S
C993 C992 1.327 . S
C993 C997 1.429 . S
C994 C977 1.574 . S
C994 H988 0.949 . S
C994 C998 1.368 . S
C995 C976 1.429 . S
C995 C989 1.429 . S
C995 C996 1.523 . S
C996 C977 1.368 . S
C996 C990 1.368 . S
C996 C995 1.523 . S
C997 C981 1.429 . S
C997 C993 1.429 . S
C997 C998 1.523 . S
C998 C982 1.368 . S
C998 C994 1.368 . S
C998 C997 1.523 . S
H999 C974 0.950 . S
H1000 C976 0.950 . S
H1001 C977 0.949 . S
H1002 C979 0.950 . S
H1003 C981 0.950 . S
C1004 C1005 1.349 . S
C1004 C1006 1.327 . S
C1004 H1029 0.950 . S
C1005 C1004 1.349 . S
C1005 C1021 1.349 . S
C1006 C1004 1.327 . S
C1006 C1025 1.429 . S
C1006 H1030 0.950 . S
C1007 C1024 1.574 . S
C1007 C1026 1.368 . S
C1007 H1031 0.949 . S
H1008 C1012 0.949 . S
C1009 C1010 1.349 . S
C1009 C1011 1.327 . S
C1009 H1032 0.950 . S
C1010 C1009 1.349 . S
C1010 C1022 1.349 . S
C1011 C1009 1.327 . S
C1011 C1027 1.429 . S
C1011 H1033 0.950 . S
C1012 H1008 0.949 . S
C1012 C1020 1.574 . S
C1012 C1028 1.368 . S
H1013 C1021 0.950 . S
H1014 C1019 0.950 . S
H1015 C1020 0.949 . S
H1016 C1022 0.950 . S
H1017 C1023 0.950 . S
H1018 C1024 0.949 . S
C1019 H1014 0.950 . S
C1019 C1021 1.327 . S
C1019 C1025 1.429 . S
C1020 C1012 1.574 . S
C1020 H1015 0.949 . S
C1020 C1026 1.368 . S
C1021 C1005 1.349 . S
C1021 H1013 0.950 . S
C1021 C1019 1.327 . S
C1022 C1010 1.349 . S
C1022 H1016 0.950 . S
C1022 C1023 1.327 . S
C1023 H1017 0.950 . S
C1023 C1022 1.327 . S
C1023 C1027 1.429 . S
C1024 C1007 1.574 . S
C1024 H1018 0.949 . S
C1024 C1028 1.368 . S
C1025 C1006 1.429 . S
C1025 C1019 1.429 . S
C1025 C1026 1.523 . S
C1026 C1007 1.368 . S
C1026 C1020 1.368 . S
C1026 C1025 1.523 . S
C1027 C1011 1.429 . S
C1027 C1023 1.429 . S
C1027 C1028 1.523 . S
C1028 C1012 1.368 . S
C1028 C1024 1.368 . S
C1028 C1027 1.523 . S
H1029 C1004 0.950 . S
H1030 C1006 0.950 . S
H1031 C1007 0.949 . S
H1032 C1009 0.950 . S
H1033 C1011 0.950 . S
C1034 C1035 1.349 . S
C1034 C1036 1.327 . S
C1034 H1059 0.950 . S
C1035 C1034 1.349 . S
C1035 C1051 1.349 . S
C1036 C1034 1.327 . S
C1036 C1055 1.429 . S
C1036 H1060 0.950 . S
C1037 C1054 1.574 . S
C1037 C1056 1.368 . S
C1037 H1061 0.949 . S
H1038 C1042 0.949 . S
C1039 C1040 1.349 . S
C1039 C1041 1.327 . S
C1039 H1062 0.950 . S
C1040 C1039 1.349 . S
C1040 C1052 1.349 . S
C1041 C1039 1.327 . S
C1041 C1057 1.429 . S
C1041 H1063 0.950 . S
C1042 H1038 0.949 . S
C1042 C1050 1.574 . S
C1042 C1058 1.368 . S
H1043 C1051 0.950 . S
H1044 C1049 0.950 . S
H1045 C1050 0.949 . S
H1046 C1052 0.950 . S
H1047 C1053 0.950 . S
H1048 C1054 0.949 . S
C1049 H1044 0.950 . S
C1049 C1051 1.327 . S
C1049 C1055 1.429 . S
C1050 C1042 1.574 . S
C1050 H1045 0.949 . S
C1050 C1056 1.368 . S
C1051 C1035 1.349 . S
C1051 H1043 0.950 . S
C1051 C1049 1.327 . S
C1052 C1040 1.349 . S
C1052 H1046 0.950 . S
C1052 C1053 1.327 . S
C1053 H1047 0.950 . S
C1053 C1052 1.327 . S
C1053 C1057 1.429 . S
C1054 C1037 1.574 . S
C1054 H1048 0.949 . S
C1054 C1058 1.368 . S
C1055 C1036 1.429 . S
C1055 C1049 1.429 . S
C1055 C1056 1.523 . S
C1056 C1037 1.368 . S
C1056 C1050 1.368 . S
C1056 C1055 1.523 . S
C1057 C1041 1.429 . S
C1057 C1053 1.429 . S
C1057 C1058 1.523 . S
C1058 C1042 1.368 . S
C1058 C1054 1.368 . S
C1058 C1057 1.523 . S
H1059 C1034 0.950 . S
H1060 C1036 0.950 . S
H1061 C1037 0.949 . S
H1062 C1039 0.950 . S
H1063 C1041 0.950 . S
C1064 C1065 1.349 . S
C1064 C1066 1.327 . S
C1064 H1089 0.950 . S
C1065 C1064 1.349 . S
C1065 C1081 1.349 . S
C1066 C1064 1.327 . S
C1066 C1085 1.429 . S
C1066 H1090 0.950 . S
C1067 C1084 1.574 . S
C1067 C1086 1.368 . S
C1067 H1091 0.949 . S
H1068 C1072 0.949 . S
C1069 C1070 1.349 . S
C1069 C1071 1.327 . S
C1069 H1092 0.950 . S
C1070 C1069 1.349 . S
C1070 C1082 1.349 . S
C1071 C1069 1.327 . S
C1071 C1087 1.429 . S
C1071 H1093 0.950 . S
C1072 H1068 0.949 . S
C1072 C1080 1.574 . S
C1072 C1088 1.368 . S
H1073 C1081 0.950 . S
H1074 C1079 0.950 . S
H1075 C1080 0.949 . S
H1076 C1082 0.950 . S
H1077 C1083 0.950 . S
H1078 C1084 0.949 . S
C1079 H1074 0.950 . S
C1079 C1081 1.327 . S
C1079 C1085 1.429 . S
C1080 C1072 1.574 . S
C1080 H1075 0.949 . S
C1080 C1086 1.368 . S
C1081 C1065 1.349 . S
C1081 H1073 0.950 . S
C1081 C1079 1.327 . S
C1082 C1070 1.349 . S
C1082 H1076 0.950 . S
C1082 C1083 1.327 . S
C1083 H1077 0.950 . S
C1083 C1082 1.327 . S
C1083 C1087 1.429 . S
C1084 C1067 1.574 . S
C1084 H1078 0.949 . S
C1084 C1088 1.368 . S
C1085 C1066 1.429 . S
C1085 C1079 1.429 . S
C1085 C1086 1.523 . S
C1086 C1067 1.368 . S
C1086 C1080 1.368 . S
C1086 C1085 1.523 . S
C1087 C1071 1.429 . S
C1087 C1083 1.429 . S
C1087 C1088 1.523 . S
C1088 C1072 1.368 . S
C1088 C1084 1.368 . S
C1088 C1087 1.523 . S
H1089 C1064 0.950 . S
H1090 C1066 0.950 . S
H1091 C1067 0.949 . S
H1092 C1069 0.950 . S
H1093 C1071 0.950 . S
C1094 C1095 1.349 . S
C1094 C1096 1.327 . S
C1094 H1119 0.950 . S
C1095 C1094 1.349 . S
C1095 C1111 1.349 . S
C1096 C1094 1.327 . S
C1096 C1115 1.429 . S
C1096 H1120 0.950 . S
C1097 C1114 1.574 . S
C1097 C1116 1.368 . S
C1097 H1121 0.949 . S
H1098 C1102 0.949 . S
C1099 C1100 1.349 . S
C1099 C1101 1.327 . S
C1099 H1122 0.950 . S
C1100 C1099 1.349 . S
C1100 C1112 1.349 . S
C1101 C1099 1.327 . S
C1101 C1117 1.429 . S
C1101 H1123 0.950 . S
C1102 H1098 0.949 . S
C1102 C1110 1.574 . S
C1102 C1118 1.368 . S
H1103 C1111 0.950 . S
H1104 C1109 0.950 . S
H1105 C1110 0.949 . S
H1106 C1112 0.950 . S
H1107 C1113 0.950 . S
H1108 C1114 0.949 . S
C1109 H1104 0.950 . S
C1109 C1111 1.327 . S
C1109 C1115 1.429 . S
C1110 C1102 1.574 . S
C1110 H1105 0.949 . S
C1110 C1116 1.368 . S
C1111 C1095 1.349 . S
C1111 H1103 0.950 . S
C1111 C1109 1.327 . S
C1112 C1100 1.349 . S
C1112 H1106 0.950 . S
C1112 C1113 1.327 . S
C1113 H1107 0.950 . S
C1113 C1112 1.327 . S
C1113 C1117 1.429 . S
C1114 C1097 1.574 . S
C1114 H1108 0.949 . S
C1114 C1118 1.368 . S
C1115 C1096 1.429 . S
C1115 C1109 1.429 . S
C1115 C1116 1.523 . S
C1116 C1097 1.368 . S
C1116 C1110 1.368 . S
C1116 C1115 1.523 . S
C1117 C1101 1.429 . S
C1117 C1113 1.429 . S
C1117 C1118 1.523 . S
C1118 C1102 1.368 . S
C1118 C1114 1.368 . S
C1118 C1117 1.523 . S
H1119 C1094 0.950 . S
H1120 C1096 0.950 . S
H1121 C1097 0.949 . S
H1122 C1099 0.950 . S
H1123 C1101 0.950 . S
C1124 C1125 1.349 . S
C1124 C1126 1.327 . S
C1124 H1149 0.950 . S
C1125 C1124 1.349 . S
C1125 C1141 1.349 . S
C1126 C1124 1.327 . S
C1126 C1145 1.429 . S
C1126 H1150 0.950 . S
C1127 C1144 1.574 . S
C1127 C1146 1.368 . S
C1127 H1151 0.949 . S
H1128 C1132 0.949 . S
C1129 C1130 1.349 . S
C1129 C1131 1.327 . S
C1129 H1152 0.950 . S
C1130 C1129 1.349 . S
C1130 C1142 1.349 . S
C1131 C1129 1.327 . S
C1131 C1147 1.429 . S
C1131 H1153 0.950 . S
C1132 H1128 0.949 . S
C1132 C1140 1.574 . S
C1132 C1148 1.368 . S
H1133 C1141 0.950 . S
H1134 C1139 0.950 . S
H1135 C1140 0.949 . S
H1136 C1142 0.950 . S
H1137 C1143 0.950 . S
H1138 C1144 0.949 . S
C1139 H1134 0.950 . S
C1139 C1141 1.327 . S
C1139 C1145 1.429 . S
C1140 C1132 1.574 . S
C1140 H1135 0.949 . S
C1140 C1146 1.368 . S
C1141 C1125 1.349 . S
C1141 H1133 0.950 . S
C1141 C1139 1.327 . S
C1142 C1130 1.349 . S
C1142 H1136 0.950 . S
C1142 C1143 1.327 . S
C1143 H1137 0.950 . S
C1143 C1142 1.327 . S
C1143 C1147 1.429 . S
C1144 C1127 1.574 . S
C1144 H1138 0.949 . S
C1144 C1148 1.368 . S
C1145 C1126 1.429 . S
C1145 C1139 1.429 . S
C1145 C1146 1.523 . S
C1146 C1127 1.368 . S
C1146 C1140 1.368 . S
C1146 C1145 1.523 . S
C1147 C1131 1.429 . S
C1147 C1143 1.429 . S
C1147 C1148 1.523 . S
C1148 C1132 1.368 . S
C1148 C1144 1.368 . S
C1148 C1147 1.523 . S
H1149 C1124 0.950 . S
H1150 C1126 0.950 . S
H1151 C1127 0.949 . S
H1152 C1129 0.950 . S
H1153 C1131 0.950 . S
C1154 C1155 1.349 . S
C1154 C1156 1.327 . S
C1154 H1179 0.950 . S
C1155 C1154 1.349 . S
C1155 C1171 1.349 . S
C1156 C1154 1.327 . S
C1156 C1175 1.429 . S
C1156 H1180 0.950 . S
C1157 C1174 1.574 . S
C1157 C1176 1.368 . S
C1157 H1181 0.949 . S
H1158 C1162 0.949 . S
C1159 C1160 1.349 . S
C1159 C1161 1.327 . S
C1159 H1182 0.950 . S
C1160 C1159 1.349 . S
C1160 C1172 1.349 . S
C1161 C1159 1.327 . S
C1161 C1177 1.429 . S
C1161 H1183 0.950 . S
C1162 H1158 0.949 . S
C1162 C1170 1.574 . S
C1162 C1178 1.368 . S
H1163 C1171 0.950 . S
H1164 C1169 0.950 . S
H1165 C1170 0.949 . S
H1166 C1172 0.950 . S
H1167 C1173 0.950 . S
H1168 C1174 0.949 . S
C1169 H1164 0.950 . S
C1169 C1171 1.327 . S
C1169 C1175 1.429 . S
C1170 C1162 1.574 . S
C1170 H1165 0.949 . S
C1170 C1176 1.368 . S
C1171 C1155 1.349 . S
C1171 H1163 0.950 . S
C1171 C1169 1.327 . S
C1172 C1160 1.349 . S
C1172 H1166 0.950 . S
C1172 C1173 1.327 . S
C1173 H1167 0.950 . S
C1173 C1172 1.327 . S
C1173 C1177 1.429 . S
C1174 C1157 1.574 . S
C1174 H1168 0.949 . S
C1174 C1178 1.368 . S
C1175 C1156 1.429 . S
C1175 C1169 1.429 . S
C1175 C1176 1.523 . S
C1176 C1157 1.368 . S
C1176 C1170 1.368 . S
C1176 C1175 1.523 . S
C1177 C1161 1.429 . S
C1177 C1173 1.429 . S
C1177 C1178 1.523 . S
C1178 C1162 1.368 . S
C1178 C1174 1.368 . S
C1178 C1177 1.523 . S
H1179 C1154 0.950 . S
H1180 C1156 0.950 . S
H1181 C1157 0.949 . S
H1182 C1159 0.950 . S
H1183 C1161 0.950 . S
C1184 C1185 1.349 . S
C1184 C1186 1.327 . S
C1184 H1209 0.950 . S
C1185 C1184 1.349 . S
C1185 C1201 1.349 . S
C1186 C1184 1.327 . S
C1186 C1205 1.429 . S
C1186 H1210 0.950 . S
C1187 C1204 1.574 . S
C1187 C1206 1.368 . S
C1187 H1211 0.949 . S
H1188 C1192 0.949 . S
C1189 C1190 1.349 . S
C1189 C1191 1.327 . S
C1189 H1212 0.950 . S
C1190 C1189 1.349 . S
C1190 C1202 1.349 . S
C1191 C1189 1.327 . S
C1191 C1207 1.429 . S
C1191 H1213 0.950 . S
C1192 H1188 0.949 . S
C1192 C1200 1.574 . S
C1192 C1208 1.368 . S
H1193 C1201 0.950 . S
H1194 C1199 0.950 . S
H1195 C1200 0.949 . S
H1196 C1202 0.950 . S
H1197 C1203 0.950 . S
H1198 C1204 0.949 . S
C1199 H1194 0.950 . S
C1199 C1201 1.327 . S
C1199 C1205 1.429 . S
C1200 C1192 1.574 . S
C1200 H1195 0.949 . S
C1200 C1206 1.368 . S
C1201 C1185 1.349 . S
C1201 H1193 0.950 . S
C1201 C1199 1.327 . S
C1202 C1190 1.349 . S
C1202 H1196 0.950 . S
C1202 C1203 1.327 . S
C1203 H1197 0.950 . S
C1203 C1202 1.327 . S
C1203 C1207 1.429 . S
C1204 C1187 1.574 . S
C1204 H1198 0.949 . S
C1204 C1208 1.368 . S
C1205 C1186 1.429 . S
C1205 C1199 1.429 . S
C1205 C1206 1.523 . S
C1206 C1187 1.368 . S
C1206 C1200 1.368 . S
C1206 C1205 1.523 . S
C1207 C1191 1.429 . S
C1207 C1203 1.429 . S
C1207 C1208 1.523 . S
C1208 C1192 1.368 . S
C1208 C1204 1.368 . S
C1208 C1207 1.523 . S
H1209 C1184 0.950 . S
H1210 C1186 0.950 . S
H1211 C1187 0.949 . S
H1212 C1189 0.950 . S
H1213 C1191 0.950 . S
C1214 C1215 1.349 . S
C1214 C1216 1.327 . S
C1214 H1239 0.950 . S
C1215 C1214 1.349 . S
C1215 C1231 1.349 . S
C1216 C1214 1.327 . S
C1216 C1235 1.429 . S
C1216 H1240 0.950 . S
C1217 C1234 1.574 . S
C1217 C1236 1.368 . S
C1217 H1241 0.949 . S
H1218 C1222 0.949 . S
C1219 C1220 1.349 . S
C1219 C1221 1.327 . S
C1219 H1242 0.950 . S
C1220 C1219 1.349 . S
C1220 C1232 1.349 . S
C1221 C1219 1.327 . S
C1221 C1237 1.429 . S
C1221 H1243 0.950 . S
C1222 H1218 0.949 . S
C1222 C1230 1.574 . S
C1222 C1238 1.368 . S
H1223 C1231 0.950 . S
H1224 C1229 0.950 . S
H1225 C1230 0.949 . S
H1226 C1232 0.950 . S
H1227 C1233 0.950 . S
H1228 C1234 0.949 . S
C1229 H1224 0.950 . S
C1229 C1231 1.327 . S
C1229 C1235 1.429 . S
C1230 C1222 1.574 . S
C1230 H1225 0.949 . S
C1230 C1236 1.368 . S
C1231 C1215 1.349 . S
C1231 H1223 0.950 . S
C1231 C1229 1.327 . S
C1232 C1220 1.349 . S
C1232 H1226 0.950 . S
C1232 C1233 1.327 . S
C1233 H1227 0.950 . S
C1233 C1232 1.327 . S
C1233 C1237 1.429 . S
C1234 C1217 1.574 . S
C1234 H1228 0.949 . S
C1234 C1238 1.368 . S
C1235 C1216 1.429 . S
C1235 C1229 1.429 . S
C1235 C1236 1.523 . S
C1236 C1217 1.368 . S
C1236 C1230 1.368 . S
C1236 C1235 1.523 . S
C1237 C1221 1.429 . S
C1237 C1233 1.429 . S
C1237 C1238 1.523 . S
C1238 C1222 1.368 . S
C1238 C1234 1.368 . S
C1238 C1237 1.523 . S
H1239 C1214 0.950 . S
H1240 C1216 0.950 . S
H1241 C1217 0.949 . S
H1242 C1219 0.950 . S
H1243 C1221 0.950 . S
C1244 C1245 1.349 . S
C1244 C1246 1.327 . S
C1244 H1269 0.950 . S
C1245 C1244 1.349 . S
C1245 C1261 1.349 . S
C1246 C1244 1.327 . S
C1246 C1265 1.429 . S
C1246 H1270 0.950 . S
C1247 C1264 1.574 . S
C1247 C1266 1.368 . S
C1247 H1271 0.949 . S
H1248 C1252 0.949 . S
C1249 C1250 1.349 . S
C1249 C1251 1.327 . S
C1249 H1272 0.950 . S
C1250 C1249 1.349 . S
C1250 C1262 1.349 . S
C1251 C1249 1.327 . S
C1251 C1267 1.429 . S
C1251 H1273 0.950 . S
C1252 H1248 0.949 . S
C1252 C1260 1.574 . S
C1252 C1268 1.368 . S
H1253 C1261 0.950 . S
H1254 C1259 0.950 . S
H1255 C1260 0.949 . S
H1256 C1262 0.950 . S
H1257 C1263 0.950 . S
H1258 C1264 0.949 . S
C1259 H1254 0.950 . S
C1259 C1261 1.327 . S
C1259 C1265 1.429 . S
C1260 C1252 1.574 . S
C1260 H1255 0.949 . S
C1260 C1266 1.368 . S
C1261 C1245 1.349 . S
C1261 H1253 0.950 . S
C1261 C1259 1.327 . S
C1262 C1250 1.349 . S
C1262 H1256 0.950 . S
C1262 C1263 1.327 . S
C1263 H1257 0.950 . S
C1263 C1262 1.327 . S
C1263 C1267 1.429 . S
C1264 C1247 1.574 . S
C1264 H1258 0.949 . S
C1264 C1268 1.368 . S
C1265 C1246 1.429 . S
C1265 C1259 1.429 . S
C1265 C1266 1.523 . S
C1266 C1247 1.368 . S
C1266 C1260 1.368 . S
C1266 C1265 1.523 . S
C1267 C1251 1.429 . S
C1267 C1263 1.429 . S
C1267 C1268 1.523 . S
C1268 C1252 1.368 . S
C1268 C1264 1.368 . S
C1268 C1267 1.523 . S
H1269 C1244 0.950 . S
H1270 C1246 0.950 . S
H1271 C1247 0.949 . S
H1272 C1249 0.950 . S
H1273 C1251 0.950 . S
C1274 C1275 1.349 . S
C1274 C1276 1.327 . S
C1274 H1299 0.950 . S
C1275 C1274 1.349 . S
C1275 C1291 1.349 . S
C1276 C1274 1.327 . S
C1276 C1295 1.429 . S
C1276 H1300 0.950 . S
C1277 C1294 1.574 . S
C1277 C1296 1.368 . S
C1277 H1301 0.949 . S
H1278 C1282 0.949 . S
C1279 C1280 1.349 . S
C1279 C1281 1.327 . S
C1279 H1302 0.950 . S
C1280 C1279 1.349 . S
C1280 C1292 1.349 . S
C1281 C1279 1.327 . S
C1281 C1297 1.429 . S
C1281 H1303 0.950 . S
C1282 H1278 0.949 . S
C1282 C1290 1.574 . S
C1282 C1298 1.368 . S
H1283 C1291 0.950 . S
H1284 C1289 0.950 . S
H1285 C1290 0.949 . S
H1286 C1292 0.950 . S
H1287 C1293 0.950 . S
H1288 C1294 0.949 . S
C1289 H1284 0.950 . S
C1289 C1291 1.327 . S
C1289 C1295 1.429 . S
C1290 C1282 1.574 . S
C1290 H1285 0.949 . S
C1290 C1296 1.368 . S
C1291 C1275 1.349 . S
C1291 H1283 0.950 . S
C1291 C1289 1.327 . S
C1292 C1280 1.349 . S
C1292 H1286 0.950 . S
C1292 C1293 1.327 . S
C1293 H1287 0.950 . S
C1293 C1292 1.327 . S
C1293 C1297 1.429 . S
C1294 C1277 1.574 . S
C1294 H1288 0.949 . S
C1294 C1298 1.368 . S
C1295 C1276 1.429 . S
C1295 C1289 1.429 . S
C1295 C1296 1.523 . S
C1296 C1277 1.368 . S
C1296 C1290 1.368 . S
C1296 C1295 1.523 . S
C1297 C1281 1.429 . S
C1297 C1293 1.429 . S
C1297 C1298 1.523 . S
C1298 C1282 1.368 . S
C1298 C1294 1.368 . S
C1298 C1297 1.523 . S
H1299 C1274 0.950 . S
H1300 C1276 0.950 . S
H1301 C1277 0.949 . S
H1302 C1279 0.950 . S
H1303 C1281 0.950 . S
C1304 C1305 1.349 . S
C1304 C1306 1.327 . S
C1304 H1329 0.950 . S
C1305 C1304 1.349 . S
C1305 C1321 1.349 . S
C1306 C1304 1.327 . S
C1306 C1325 1.429 . S
C1306 H1330 0.950 . S
C1307 C1324 1.574 . S
C1307 C1326 1.368 . S
C1307 H1331 0.949 . S
H1308 C1312 0.949 . S
C1309 C1310 1.349 . S
C1309 C1311 1.327 . S
C1309 H1332 0.950 . S
C1310 C1309 1.349 . S
C1310 C1322 1.349 . S
C1311 C1309 1.327 . S
C1311 C1327 1.429 . S
C1311 H1333 0.950 . S
C1312 H1308 0.949 . S
C1312 C1320 1.574 . S
C1312 C1328 1.368 . S
H1313 C1321 0.950 . S
H1314 C1319 0.950 . S
H1315 C1320 0.949 . S
H1316 C1322 0.950 . S
H1317 C1323 0.950 . S
H1318 C1324 0.949 . S
C1319 H1314 0.950 . S
C1319 C1321 1.327 . S
C1319 C1325 1.429 . S
C1320 C1312 1.574 . S
C1320 H1315 0.949 . S
C1320 C1326 1.368 . S
C1321 C1305 1.349 . S
C1321 H1313 0.950 . S
C1321 C1319 1.327 . S
C1322 C1310 1.349 . S
C1322 H1316 0.950 . S
C1322 C1323 1.327 . S
C1323 H1317 0.950 . S
C1323 C1322 1.327 . S
C1323 C1327 1.429 . S
C1324 C1307 1.574 . S
C1324 H1318 0.949 . S
C1324 C1328 1.368 . S
C1325 C1306 1.429 . S
C1325 C1319 1.429 . S
C1325 C1326 1.523 . S
C1326 C1307 1.368 . S
C1326 C1320 1.368 . S
C1326 C1325 1.523 . S
C1327 C1311 1.429 . S
C1327 C1323 1.429 . S
C1327 C1328 1.523 . S
C1328 C1312 1.368 . S
C1328 C1324 1.368 . S
C1328 C1327 1.523 . S
H1329 C1304 0.950 . S
H1330 C1306 0.950 . S
H1331 C1307 0.949 . S
H1332 C1309 0.950 . S
H1333 C1311 0.950 . S
C1334 C1335 1.349 . S
C1334 C1336 1.327 . S
C1334 H1359 0.950 . S
C1335 C1334 1.349 . S
C1335 C1351 1.349 . S
C1336 C1334 1.327 . S
C1336 C1355 1.429 . S
C1336 H1360 0.950 . S
C1337 C1354 1.574 . S
C1337 C1356 1.368 . S
C1337 H1361 0.949 . S
H1338 C1342 0.949 . S
C1339 C1340 1.349 . S
C1339 C1341 1.327 . S
C1339 H1362 0.950 . S
C1340 C1339 1.349 . S
C1340 C1352 1.349 . S
C1341 C1339 1.327 . S
C1341 C1357 1.429 . S
C1341 H1363 0.950 . S
C1342 H1338 0.949 . S
C1342 C1350 1.574 . S
C1342 C1358 1.368 . S
H1343 C1351 0.950 . S
H1344 C1349 0.950 . S
H1345 C1350 0.949 . S
H1346 C1352 0.950 . S
H1347 C1353 0.950 . S
H1348 C1354 0.949 . S
C1349 H1344 0.950 . S
C1349 C1351 1.327 . S
C1349 C1355 1.429 . S
C1350 C1342 1.574 . S
C1350 H1345 0.949 . S
C1350 C1356 1.368 . S
C1351 C1335 1.349 . S
C1351 H1343 0.950 . S
C1351 C1349 1.327 . S
C1352 C1340 1.349 . S
C1352 H1346 0.950 . S
C1352 C1353 1.327 . S
C1353 H1347 0.950 . S
C1353 C1352 1.327 . S
C1353 C1357 1.429 . S
C1354 C1337 1.574 . S
C1354 H1348 0.949 . S
C1354 C1358 1.368 . S
C1355 C1336 1.429 . S
C1355 C1349 1.429 . S
C1355 C1356 1.523 . S
C1356 C1337 1.368 . S
C1356 C1350 1.368 . S
C1356 C1355 1.523 . S
C1357 C1341 1.429 . S
C1357 C1353 1.429 . S
C1357 C1358 1.523 . S
C1358 C1342 1.368 . S
C1358 C1354 1.368 . S
C1358 C1357 1.523 . S
H1359 C1334 0.950 . S
H1360 C1336 0.950 . S
H1361 C1337 0.949 . S
H1362 C1339 0.950 . S
H1363 C1341 0.950 . S
C1364 C1365 1.349 . S
C1364 C1366 1.327 . S
C1364 H1389 0.950 . S
C1365 C1364 1.349 . S
C1365 C1381 1.349 . S
C1366 C1364 1.327 . S
C1366 C1385 1.429 . S
C1366 H1390 0.950 . S
C1367 C1384 1.574 . S
C1367 C1386 1.368 . S
C1367 H1391 0.949 . S
H1368 C1372 0.949 . S
C1369 C1370 1.349 . S
C1369 C1371 1.327 . S
C1369 H1392 0.950 . S
C1370 C1369 1.349 . S
C1370 C1382 1.349 . S
C1371 C1369 1.327 . S
C1371 C1387 1.429 . S
C1371 H1393 0.950 . S
C1372 H1368 0.949 . S
C1372 C1380 1.574 . S
C1372 C1388 1.368 . S
H1373 C1381 0.950 . S
H1374 C1379 0.950 . S
H1375 C1380 0.949 . S
H1376 C1382 0.950 . S
H1377 C1383 0.950 . S
H1378 C1384 0.949 . S
C1379 H1374 0.950 . S
C1379 C1381 1.327 . S
C1379 C1385 1.429 . S
C1380 C1372 1.574 . S
C1380 H1375 0.949 . S
C1380 C1386 1.368 . S
C1381 C1365 1.349 . S
C1381 H1373 0.950 . S
C1381 C1379 1.327 . S
C1382 C1370 1.349 . S
C1382 H1376 0.950 . S
C1382 C1383 1.327 . S
C1383 H1377 0.950 . S
C1383 C1382 1.327 . S
C1383 C1387 1.429 . S
C1384 C1367 1.574 . S
C1384 H1378 0.949 . S
C1384 C1388 1.368 . S
C1385 C1366 1.429 . S
C1385 C1379 1.429 . S
C1385 C1386 1.523 . S
C1386 C1367 1.368 . S
C1386 C1380 1.368 . S
C1386 C1385 1.523 . S
C1387 C1371 1.429 . S
C1387 C1383 1.429 . S
C1387 C1388 1.523 . S
C1388 C1372 1.368 . S
C1388 C1384 1.368 . S
C1388 C1387 1.523 . S
H1389 C1364 0.950 . S
H1390 C1366 0.950 . S
H1391 C1367 0.949 . S
H1392 C1369 0.950 . S
H1393 C1371 0.950 . S
C1394 C1395 1.349 . S
C1394 C1396 1.327 . S
C1394 H1419 0.950 . S
C1395 C1394 1.349 . S
C1395 C1411 1.349 . S
C1396 C1394 1.327 . S
C1396 C1415 1.429 . S
C1396 H1420 0.950 . S
C1397 C1414 1.574 . S
C1397 C1416 1.368 . S
C1397 H1421 0.949 . S
H1398 C1402 0.949 . S
C1399 C1400 1.349 . S
C1399 C1401 1.327 . S
C1399 H1422 0.950 . S
C1400 C1399 1.349 . S
C1400 C1412 1.349 . S
C1401 C1399 1.327 . S
C1401 C1417 1.429 . S
C1401 H1423 0.950 . S
C1402 H1398 0.949 . S
C1402 C1410 1.574 . S
C1402 C1418 1.368 . S
H1403 C1411 0.950 . S
H1404 C1409 0.950 . S
H1405 C1410 0.949 . S
H1406 C1412 0.950 . S
H1407 C1413 0.950 . S
H1408 C1414 0.949 . S
C1409 H1404 0.950 . S
C1409 C1411 1.327 . S
C1409 C1415 1.429 . S
C1410 C1402 1.574 . S
C1410 H1405 0.949 . S
C1410 C1416 1.368 . S
C1411 C1395 1.349 . S
C1411 H1403 0.950 . S
C1411 C1409 1.327 . S
C1412 C1400 1.349 . S
C1412 H1406 0.950 . S
C1412 C1413 1.327 . S
C1413 H1407 0.950 . S
C1413 C1412 1.327 . S
C1413 C1417 1.429 . S
C1414 C1397 1.574 . S
C1414 H1408 0.949 . S
C1414 C1418 1.368 . S
C1415 C1396 1.429 . S
C1415 C1409 1.429 . S
C1415 C1416 1.523 . S
C1416 C1397 1.368 . S
C1416 C1410 1.368 . S
C1416 C1415 1.523 . S
C1417 C1401 1.429 . S
C1417 C1413 1.429 . S
C1417 C1418 1.523 . S
C1418 C1402 1.368 . S
C1418 C1414 1.368 . S
C1418 C1417 1.523 . S
H1419 C1394 0.950 . S
H1420 C1396 0.950 . S
H1421 C1397 0.949 . S
H1422 C1399 0.950 . S
H1423 C1401 0.950 . S
C1424 C1425 1.352 . S
C1424 C1426 1.327 1_565 S
C1424 H1449 0.950 . S
C1425 C1424 1.352 . S
C1425 C1441 1.332 1_565 S
C1426 C1424 1.327 1_545 S
C1426 C1445 1.429 . S
C1426 H1450 0.950 . S
C1427 C1444 1.574 . S
C1427 C1446 1.368 . S
C1427 H1451 0.949 . S
H1428 C1432 0.949 . S
C1429 C1430 1.349 . S
C1429 C1431 1.327 . S
C1429 H1452 0.950 . S
C1430 C1429 1.349 . S
C1430 C1442 1.349 . S
C1431 C1429 1.327 . S
C1431 C1447 1.429 . S
C1431 H1453 0.950 . S
C1432 H1428 0.949 . S
C1432 C1440 1.574 . S
C1432 C1448 1.368 . S
H1433 C1441 0.950 . S
H1434 C1439 0.950 . S
H1435 C1440 0.949 . S
H1436 C1442 0.950 . S
H1437 C1443 0.950 . S
H1438 C1444 0.949 . S
C1439 H1434 0.950 . S
C1439 C1441 1.327 . S
C1439 C1445 1.429 . S
C1440 C1432 1.574 . S
C1440 H1435 0.949 . S
C1440 C1446 1.368 . S
C1441 C1425 1.332 1_545 S
C1441 H1433 0.950 . S
C1441 C1439 1.327 . S
C1442 C1430 1.349 . S
C1442 H1436 0.950 . S
C1442 C1443 1.327 . S
C1443 H1437 0.950 . S
C1443 C1442 1.327 . S
C1443 C1447 1.429 . S
C1444 C1427 1.574 . S
C1444 H1438 0.949 . S
C1444 C1448 1.368 . S
C1445 C1426 1.429 . S
C1445 C1439 1.429 . S
C1445 C1446 1.523 . S
C1446 C1427 1.368 . S
C1446 C1440 1.368 . S
C1446 C1445 1.523 . S
C1447 C1431 1.429 . S
C1447 C1443 1.429 . S
C1447 C1448 1.523 . S
C1448 C1432 1.368 . S
C1448 C1444 1.368 . S
C1448 C1447 1.523 . S
H1449 C1424 0.950 . S
H1450 C1426 0.950 . S
H1451 C1427 0.949 . S
H1452 C1429 0.950 . S
H1453 C1431 0.950 . S
C1454 C1455 1.349 . S
C1454 C1456 1.327 . S
C1454 H1479 0.950 . S
C1455 C1454 1.349 . S
C1455 C1471 1.349 . S
C1456 C1454 1.327 . S
C1456 C1475 1.429 . S
C1456 H1480 0.950 . S
C1457 C1474 1.574 . S
C1457 C1476 1.368 . S
C1457 H1481 0.949 . S
H1458 C1462 0.949 . S
C1459 C1460 1.346 1_455 S
C1459 C1461 1.327 . S
C1459 H1482 0.950 1_455 S
C1460 C1459 1.346 1_655 S
C1460 C1472 1.338 1_655 S
C1461 C1459 1.327 . S
C1461 C1477 1.429 . S
C1461 H1483 0.950 . S
C1462 H1458 0.949 . S
C1462 C1470 1.574 . S
C1462 C1478 1.368 . S
H1463 C1471 0.950 . S
H1464 C1469 0.950 . S
H1465 C1470 0.949 . S
H1466 C1472 0.950 . S
H1467 C1473 0.950 . S
H1468 C1474 0.949 . S
C1469 H1464 0.950 . S
C1469 C1471 1.327 . S
C1469 C1475 1.429 . S
C1470 C1462 1.574 . S
C1470 H1465 0.949 . S
C1470 C1476 1.368 . S
C1471 C1455 1.349 . S
C1471 H1463 0.950 . S
C1471 C1469 1.327 . S
C1472 C1460 1.338 1_455 S
C1472 H1466 0.950 . S
C1472 C1473 1.327 . S
C1473 H1467 0.950 . S
C1473 C1472 1.327 . S
C1473 C1477 1.429 . S
C1474 C1457 1.574 . S
C1474 H1468 0.949 . S
C1474 C1478 1.368 . S
C1475 C1456 1.429 . S
C1475 C1469 1.429 . S
C1475 C1476 1.523 . S
C1476 C1457 1.368 . S
C1476 C1470 1.368 . S
C1476 C1475 1.523 . S
C1477 C1461 1.429 . S
C1477 C1473 1.429 . S
C1477 C1478 1.523 . S
C1478 C1462 1.368 . S
C1478 C1474 1.368 . S
C1478 C1477 1.523 . S
H1479 C1454 0.950 . S
H1480 C1456 0.950 . S
H1481 C1457 0.949 . S
H1482 C1459 0.950 1_655 S
H1483 C1461 0.950 . S
C1484 C1485 1.333 1_565 S
C1484 C1486 1.327 . S
C1484 H1509 0.950 . S
C1485 C1484 1.333 1_545 S
C1485 C1501 1.350 . S
C1486 C1484 1.327 . S
C1486 C1505 1.429 . S
C1486 H1510 0.950 . S
C1487 C1504 1.574 . S
C1487 C1506 1.368 . S
C1487 H1511 0.949 . S
H1488 C1492 0.949 . S
C1489 C1490 1.349 . S
C1489 C1491 1.327 . S
C1489 H1512 0.950 . S
C1490 C1489 1.349 . S
C1490 C1502 1.349 . S
C1491 C1489 1.327 . S
C1491 C1507 1.429 . S
C1491 H1513 0.950 . S
C1492 H1488 0.949 . S
C1492 C1500 1.574 . S
C1492 C1508 1.368 . S
H1493 C1501 0.950 . S
H1494 C1499 0.950 . S
H1495 C1500 0.949 . S
H1496 C1502 0.950 . S
H1497 C1503 0.950 . S
H1498 C1504 0.949 . S
C1499 H1494 0.950 . S
C1499 C1501 1.327 1_565 S
C1499 C1505 1.429 . S
C1500 C1492 1.574 . S
C1500 H1495 0.949 . S
C1500 C1506 1.368 . S
C1501 C1485 1.350 . S
C1501 H1493 0.950 . S
C1501 C1499 1.327 1_545 S
C1502 C1490 1.349 . S
C1502 H1496 0.950 . S
C1502 C1503 1.327 . S
C1503 H1497 0.950 . S
C1503 C1502 1.327 . S
C1503 C1507 1.429 . S
C1504 C1487 1.574 . S
C1504 H1498 0.949 . S
C1504 C1508 1.368 . S
C1505 C1486 1.429 . S
C1505 C1499 1.429 . S
C1505 C1506 1.523 . S
C1506 C1487 1.368 . S
C1506 C1500 1.368 . S
C1506 C1505 1.523 . S
C1507 C1491 1.429 . S
C1507 C1503 1.429 . S
C1507 C1508 1.523 . S
C1508 C1492 1.368 . S
C1508 C1504 1.368 . S
C1508 C1507 1.523 . S
H1509 C1484 0.950 . S
H1510 C1486 0.950 . S
H1511 C1487 0.949 . S
H1512 C1489 0.950 . S
H1513 C1491 0.950 . S
C1514 C1515 1.349 . S
C1514 C1516 1.327 . S
C1514 H1539 0.950 . S
C1515 C1514 1.349 . S
C1515 C1531 1.349 . S
C1516 C1514 1.327 . S
C1516 C1535 1.429 . S
C1516 H1540 0.950 . S
C1517 C1534 1.574 . S
C1517 C1536 1.368 . S
C1517 H1541 0.949 . S
H1518 C1522 0.949 . S
C1519 C1520 1.346 1_655 S
C1519 C1521 1.327 . S
C1519 H1542 0.950 1_655 S
C1520 C1519 1.346 1_455 S
C1520 C1532 1.338 1_455 S
C1521 C1519 1.327 . S
C1521 C1537 1.429 . S
C1521 H1543 0.950 . S
C1522 H1518 0.949 . S
C1522 C1530 1.574 . S
C1522 C1538 1.368 . S
H1523 C1531 0.950 . S
H1524 C1529 0.950 . S
H1525 C1530 0.949 . S
H1526 C1532 0.950 . S
H1527 C1533 0.950 . S
H1528 C1534 0.949 . S
C1529 H1524 0.950 . S
C1529 C1531 1.327 . S
C1529 C1535 1.429 . S
C1530 C1522 1.574 . S
C1530 H1525 0.949 . S
C1530 C1536 1.368 . S
C1531 C1515 1.349 . S
C1531 H1523 0.950 . S
C1531 C1529 1.327 . S
C1532 C1520 1.338 1_655 S
C1532 H1526 0.950 . S
C1532 C1533 1.327 . S
C1533 H1527 0.950 . S
C1533 C1532 1.327 . S
C1533 C1537 1.429 . S
C1534 C1517 1.574 . S
C1534 H1528 0.949 . S
C1534 C1538 1.368 . S
C1535 C1516 1.429 . S
C1535 C1529 1.429 . S
C1535 C1536 1.523 . S
C1536 C1517 1.368 . S
C1536 C1530 1.368 . S
C1536 C1535 1.523 . S
C1537 C1521 1.429 . S
C1537 C1533 1.429 . S
C1537 C1538 1.523 . S
C1538 C1522 1.368 . S
C1538 C1534 1.368 . S
C1538 C1537 1.523 . S
H1539 C1514 0.950 . S
H1540 C1516 0.950 . S
H1541 C1517 0.949 . S
H1542 C1519 0.950 1_455 S
H1543 C1521 0.950 . S
C1544 C1545 1.332 1_565 S
C1544 C1546 1.327 . S
C1544 H1569 0.950 . S
C1545 C1544 1.332 1_545 S
C1545 C1561 1.352 . S
C1546 C1544 1.327 . S
C1546 C1565 1.429 . S
C1546 H1570 0.950 . S
C1547 C1564 1.574 . S
C1547 C1566 1.368 . S
C1547 H1571 0.949 . S
H1548 C1552 0.949 . S
C1549 C1550 1.349 . S
C1549 C1551 1.327 . S
C1549 H1572 0.950 . S
C1550 C1549 1.349 . S
C1550 C1562 1.349 . S
C1551 C1549 1.327 . S
C1551 C1567 1.429 . S
C1551 H1573 0.950 . S
C1552 H1548 0.949 . S
C1552 C1560 1.574 . S
C1552 C1568 1.368 . S
H1553 C1561 0.950 . S
H1554 C1559 0.950 . S
H1555 C1560 0.949 . S
H1556 C1562 0.950 . S
H1557 C1563 0.950 . S
H1558 C1564 0.949 . S
C1559 H1554 0.950 . S
C1559 C1561 1.327 1_565 S
C1559 C1565 1.429 . S
C1560 C1552 1.574 . S
C1560 H1555 0.949 . S
C1560 C1566 1.368 . S
C1561 C1545 1.352 . S
C1561 H1553 0.950 . S
C1561 C1559 1.327 1_545 S
C1562 C1550 1.349 . S
C1562 H1556 0.950 . S
C1562 C1563 1.327 . S
C1563 H1557 0.950 . S
C1563 C1562 1.327 . S
C1563 C1567 1.429 . S
C1564 C1547 1.574 . S
C1564 H1558 0.949 . S
C1564 C1568 1.368 . S
C1565 C1546 1.429 . S
C1565 C1559 1.429 . S
C1565 C1566 1.523 . S
C1566 C1547 1.368 . S
C1566 C1560 1.368 . S
C1566 C1565 1.523 . S
C1567 C1551 1.429 . S
C1567 C1563 1.429 . S
C1567 C1568 1.523 . S
C1568 C1552 1.368 . S
C1568 C1564 1.368 . S
C1568 C1567 1.523 . S
H1569 C1544 0.950 . S
H1570 C1546 0.950 . S
H1571 C1547 0.949 . S
H1572 C1549 0.950 . S
H1573 C1551 0.950 . S
C1574 C1575 1.349 . S
C1574 C1576 1.327 . S
C1574 H1599 0.950 . S
C1575 C1574 1.349 . S
C1575 C1591 1.349 . S
C1576 C1574 1.327 . S
C1576 C1595 1.429 . S
C1576 H1600 0.950 . S
C1577 C1594 1.574 . S
C1577 C1596 1.368 . S
C1577 H1601 0.949 . S
H1578 C1582 0.949 . S
C1579 C1580 1.346 1_655 S
C1579 C1581 1.368 . S
C1579 H1602 0.912 1_655 S
C1580 C1579 1.346 1_455 S
C1580 C1592 1.336 1_455 S
C1581 C1579 1.368 . S
C1581 C1597 1.429 . S
C1581 H1603 0.950 . S
C1582 H1578 0.949 . S
C1582 C1590 1.574 . S
C1582 C1598 1.368 . S
H1583 C1591 0.950 . S
H1584 C1589 0.950 . S
H1585 C1590 0.949 . S
H1586 C1592 0.950 . S
H1587 C1593 0.950 . S
H1588 C1594 0.949 . S
C1589 H1584 0.950 . S
C1589 C1591 1.327 . S
C1589 C1595 1.429 . S
C1590 C1582 1.574 . S
C1590 H1585 0.949 . S
C1590 C1596 1.368 . S
C1591 C1575 1.349 . S
C1591 H1583 0.950 . S
C1591 C1589 1.327 . S
C1592 C1580 1.336 1_655 S
C1592 H1586 0.950 . S
C1592 C1593 1.327 . S
C1593 H1587 0.950 . S
C1593 C1592 1.327 . S
C1593 C1597 1.429 . S
C1594 C1577 1.574 . S
C1594 H1588 0.949 . S
C1594 C1598 1.368 . S
C1595 C1576 1.429 . S
C1595 C1589 1.429 . S
C1595 C1596 1.523 . S
C1596 C1577 1.368 . S
C1596 C1590 1.368 . S
C1596 C1595 1.523 . S
C1597 C1581 1.429 . S
C1597 C1593 1.429 . S
C1597 C1598 1.523 . S
C1598 C1582 1.368 . S
C1598 C1594 1.368 . S
C1598 C1597 1.523 . S
H1599 C1574 0.950 . S
H1600 C1576 0.950 . S
H1601 C1577 0.949 . S
H1602 C1579 0.912 1_455 S
H1603 C1581 0.950 . S
C1604 C1605 1.349 . S
C1604 C1606 1.327 . S
C1604 H1629 0.950 . S
C1605 C1604 1.349 . S
C1605 C1621 1.349 . S
C1606 C1604 1.327 . S
C1606 C1625 1.429 . S
C1606 H1630 0.950 . S
C1607 C1624 1.574 . S
C1607 C1626 1.368 . S
C1607 H1631 0.949 . S
H1608 C1612 0.949 . S
C1609 C1610 1.343 1_545 S
C1609 C1611 1.327 . S
C1609 H1632 0.952 1_545 S
C1610 C1609 1.343 1_565 S
C1610 C1622 1.341 1_565 S
C1611 C1609 1.327 . S
C1611 C1627 1.429 . S
C1611 H1633 0.950 . S
C1612 H1608 0.949 . S
C1612 C1620 1.574 . S
C1612 C1628 1.368 . S
H1613 C1621 0.950 . S
H1614 C1619 0.950 . S
H1615 C1620 0.949 . S
H1616 C1622 0.950 . S
H1617 C1623 0.950 . S
H1618 C1624 0.949 . S
C1619 H1614 0.950 . S
C1619 C1621 1.327 . S
C1619 C1625 1.429 . S
C1620 C1612 1.574 . S
C1620 H1615 0.949 . S
C1620 C1626 1.368 . S
C1621 C1605 1.349 . S
C1621 H1613 0.950 . S
C1621 C1619 1.327 . S
C1622 C1610 1.341 1_545 S
C1622 H1616 0.950 . S
C1622 C1623 1.327 . S
C1623 H1617 0.950 . S
C1623 C1622 1.327 . S
C1623 C1627 1.429 . S
C1624 C1607 1.574 . S
C1624 H1618 0.949 . S
C1624 C1628 1.368 . S
C1625 C1606 1.429 . S
C1625 C1619 1.429 . S
C1625 C1626 1.523 . S
C1626 C1607 1.368 . S
C1626 C1620 1.368 . S
C1626 C1625 1.523 . S
C1627 C1611 1.429 . S
C1627 C1623 1.429 . S
C1627 C1628 1.523 . S
C1628 C1612 1.368 . S
C1628 C1624 1.368 . S
C1628 C1627 1.523 . S
H1629 C1604 0.950 . S
H1630 C1606 0.950 . S
H1631 C1607 0.949 . S
H1632 C1609 0.952 1_565 S
H1633 C1611 0.950 . S
C1634 C1635 1.349 . S
C1634 C1636 1.327 . S
C1634 H1659 0.950 . S
C1635 C1634 1.349 . S
C1635 C1651 1.349 . S
C1636 C1634 1.327 . S
C1636 C1655 1.429 . S
C1636 H1660 0.950 . S
C1637 C1654 1.574 . S
C1637 C1656 1.368 . S
C1637 H1661 0.949 . S
H1638 C1642 0.949 . S
C1639 C1640 1.332 1_455 S
C1639 C1641 1.327 . S
C1639 H1662 0.950 . S
C1640 C1639 1.332 1_655 S
C1640 C1652 1.352 . S
C1641 C1639 1.327 . S
C1641 C1657 1.429 . S
C1641 H1663 0.950 . S
C1642 H1638 0.949 . S
C1642 C1650 1.574 . S
C1642 C1658 1.368 . S
H1643 C1651 0.950 . S
H1644 C1649 0.950 . S
H1645 C1650 0.949 . S
H1646 C1652 0.950 . S
H1647 C1653 0.950 . S
H1648 C1654 0.949 . S
C1649 H1644 0.950 . S
C1649 C1651 1.327 . S
C1649 C1655 1.429 . S
C1650 C1642 1.574 . S
C1650 H1645 0.949 . S
C1650 C1656 1.368 . S
C1651 C1635 1.349 . S
C1651 H1643 0.950 . S
C1651 C1649 1.327 . S
C1652 C1640 1.352 . S
C1652 H1646 0.950 . S
C1652 C1653 1.327 1_655 S
C1653 H1647 0.950 . S
C1653 C1652 1.327 1_455 S
C1653 C1657 1.429 . S
C1654 C1637 1.574 . S
C1654 H1648 0.949 . S
C1654 C1658 1.368 . S
C1655 C1636 1.429 . S
C1655 C1649 1.429 . S
C1655 C1656 1.523 . S
C1656 C1637 1.368 . S
C1656 C1650 1.368 . S
C1656 C1655 1.523 . S
C1657 C1641 1.429 . S
C1657 C1653 1.429 . S
C1657 C1658 1.523 . S
C1658 C1642 1.368 . S
C1658 C1654 1.368 . S
C1658 C1657 1.523 . S
H1659 C1634 0.950 . S
H1660 C1636 0.950 . S
H1661 C1637 0.949 . S
H1662 C1639 0.950 . S
H1663 C1641 0.950 . S
C1664 C1665 1.349 . S
C1664 C1666 1.327 . S
C1664 H1689 0.950 . S
C1665 C1664 1.349 . S
C1665 C1681 1.349 . S
C1666 C1664 1.327 . S
C1666 C1685 1.429 . S
C1666 H1690 0.950 . S
C1667 C1684 1.574 . S
C1667 C1686 1.368 . S
C1667 H1691 0.949 . S
H1668 C1672 0.949 . S
C1669 C1670 1.349 . S
C1669 C1671 1.327 . S
C1669 H1692 0.950 . S
C1670 C1669 1.349 . S
C1670 C1682 1.349 . S
C1671 C1669 1.327 . S
C1671 C1687 1.429 . S
C1671 H1693 0.950 . S
C1672 H1668 0.949 . S
C1672 C1680 1.574 . S
C1672 C1688 1.368 . S
H1673 C1681 0.950 . S
H1674 C1679 0.950 . S
H1675 C1680 0.949 . S
H1676 C1682 0.950 . S
H1677 C1683 0.950 . S
H1678 C1684 0.949 . S
C1679 H1674 0.950 . S
C1679 C1681 1.327 . S
C1679 C1685 1.429 . S
C1680 C1672 1.574 . S
C1680 H1675 0.949 . S
C1680 C1686 1.368 . S
C1681 C1665 1.349 . S
C1681 H1673 0.950 . S
C1681 C1679 1.327 . S
C1682 C1670 1.349 . S
C1682 H1676 0.950 . S
C1682 C1683 1.327 . S
C1683 H1677 0.950 . S
C1683 C1682 1.327 . S
C1683 C1687 1.429 . S
C1684 C1667 1.574 . S
C1684 H1678 0.949 . S
C1684 C1688 1.368 . S
C1685 C1666 1.429 . S
C1685 C1679 1.429 . S
C1685 C1686 1.523 . S
C1686 C1667 1.368 . S
C1686 C1680 1.368 . S
C1686 C1685 1.523 . S
C1687 C1671 1.429 . S
C1687 C1683 1.429 . S
C1687 C1688 1.523 . S
C1688 C1672 1.368 . S
C1688 C1684 1.368 . S
C1688 C1687 1.523 . S
H1689 C1664 0.950 . S
H1690 C1666 0.950 . S
H1691 C1667 0.949 . S
H1692 C1669 0.950 . S
H1693 C1671 0.950 . S
C1694 C1695 1.349 . S
C1694 C1696 1.327 . S
C1694 H1719 0.950 . S
C1695 C1694 1.349 . S
C1695 C1711 1.349 . S
C1696 C1694 1.327 . S
C1696 C1715 1.429 . S
C1696 H1720 0.950 . S
C1697 C1714 1.574 . S
C1697 C1716 1.368 . S
C1697 H1721 0.949 . S
H1698 C1702 0.949 . S
C1699 C1700 1.349 . S
C1699 C1701 1.327 . S
C1699 H1722 0.950 . S
C1700 C1699 1.349 . S
C1700 C1712 1.349 . S
C1701 C1699 1.327 . S
C1701 C1717 1.429 . S
C1701 H1723 0.950 . S
C1702 H1698 0.949 . S
C1702 C1710 1.574 . S
C1702 C1718 1.368 . S
H1703 C1711 0.950 . S
H1704 C1709 0.950 . S
H1705 C1710 0.949 . S
H1706 C1712 0.950 . S
H1707 C1713 0.950 . S
H1708 C1714 0.949 . S
C1709 H1704 0.950 . S
C1709 C1711 1.327 . S
C1709 C1715 1.429 . S
C1710 C1702 1.574 . S
C1710 H1705 0.949 . S
C1710 C1716 1.368 . S
C1711 C1695 1.349 . S
C1711 H1703 0.950 . S
C1711 C1709 1.327 . S
C1712 C1700 1.349 . S
C1712 H1706 0.950 . S
C1712 C1713 1.327 . S
C1713 H1707 0.950 . S
C1713 C1712 1.327 . S
C1713 C1717 1.429 . S
C1714 C1697 1.574 . S
C1714 H1708 0.949 . S
C1714 C1718 1.368 . S
C1715 C1696 1.429 . S
C1715 C1709 1.429 . S
C1715 C1716 1.523 . S
C1716 C1697 1.368 . S
C1716 C1710 1.368 . S
C1716 C1715 1.523 . S
C1717 C1701 1.429 . S
C1717 C1713 1.429 . S
C1717 C1718 1.523 . S
C1718 C1702 1.368 . S
C1718 C1714 1.368 . S
C1718 C1717 1.523 . S
H1719 C1694 0.950 . S
H1720 C1696 0.950 . S
H1721 C1697 0.949 . S
H1722 C1699 0.950 . S
H1723 C1701 0.950 . S
C1724 C1725 1.349 . S
C1724 C1726 1.327 . S
C1724 H1749 0.950 . S
C1725 C1724 1.349 . S
C1725 C1741 1.349 . S
C1726 C1724 1.327 . S
C1726 C1745 1.429 . S
C1726 H1750 0.950 . S
C1727 C1744 1.574 . S
C1727 C1746 1.368 . S
C1727 H1751 0.949 . S
H1728 C1732 0.949 . S
C1729 C1730 1.349 . S
C1729 C1731 1.327 . S
C1729 H1752 0.950 . S
C1730 C1729 1.349 . S
C1730 C1742 1.349 . S
C1731 C1729 1.327 . S
C1731 C1747 1.429 . S
C1731 H1753 0.950 . S
C1732 H1728 0.949 . S
C1732 C1740 1.574 . S
C1732 C1748 1.368 . S
H1733 C1741 0.950 . S
H1734 C1739 0.950 . S
H1735 C1740 0.949 . S
H1736 C1742 0.950 . S
H1737 C1743 0.950 . S
H1738 C1744 0.949 . S
C1739 H1734 0.950 . S
C1739 C1741 1.327 . S
C1739 C1745 1.429 . S
C1740 C1732 1.574 . S
C1740 H1735 0.949 . S
C1740 C1746 1.368 . S
C1741 C1725 1.349 . S
C1741 H1733 0.950 . S
C1741 C1739 1.327 . S
C1742 C1730 1.349 . S
C1742 H1736 0.950 . S
C1742 C1743 1.327 . S
C1743 H1737 0.950 . S
C1743 C1742 1.327 . S
C1743 C1747 1.429 . S
C1744 C1727 1.574 . S
C1744 H1738 0.949 . S
C1744 C1748 1.368 . S
C1745 C1726 1.429 . S
C1745 C1739 1.429 . S
C1745 C1746 1.523 . S
C1746 C1727 1.368 . S
C1746 C1740 1.368 . S
C1746 C1745 1.523 . S
C1747 C1731 1.429 . S
C1747 C1743 1.429 . S
C1747 C1748 1.523 . S
C1748 C1732 1.368 . S
C1748 C1744 1.368 . S
C1748 C1747 1.523 . S
H1749 C1724 0.950 . S
H1750 C1726 0.950 . S
H1751 C1727 0.949 . S
H1752 C1729 0.950 . S
H1753 C1731 0.950 . S
C1754 C1755 1.349 . S
C1754 C1756 1.327 . S
C1754 H1779 0.950 . S
C1755 C1754 1.349 . S
C1755 C1771 1.349 . S
C1756 C1754 1.327 . S
C1756 C1775 1.429 . S
C1756 H1780 0.950 . S
C1757 C1774 1.574 . S
C1757 C1776 1.368 . S
C1757 H1781 0.949 . S
H1758 C1762 0.949 . S
C1759 C1760 1.349 . S
C1759 C1761 1.327 . S
C1759 H1782 0.950 . S
C1760 C1759 1.349 . S
C1760 C1772 1.349 . S
C1761 C1759 1.327 . S
C1761 C1777 1.429 . S
C1761 H1783 0.950 . S
C1762 H1758 0.949 . S
C1762 C1770 1.574 . S
C1762 C1778 1.368 . S
H1763 C1771 0.950 . S
H1764 C1769 0.950 . S
H1765 C1770 0.949 . S
H1766 C1772 0.950 . S
H1767 C1773 0.950 . S
H1768 C1774 0.949 . S
C1769 H1764 0.950 . S
C1769 C1771 1.327 . S
C1769 C1775 1.429 . S
C1770 C1762 1.574 . S
C1770 H1765 0.949 . S
C1770 C1776 1.368 . S
C1771 C1755 1.349 . S
C1771 H1763 0.950 . S
C1771 C1769 1.327 . S
C1772 C1760 1.349 . S
C1772 H1766 0.950 . S
C1772 C1773 1.327 . S
C1773 H1767 0.950 . S
C1773 C1772 1.327 . S
C1773 C1777 1.429 . S
C1774 C1757 1.574 . S
C1774 H1768 0.949 . S
C1774 C1778 1.368 . S
C1775 C1756 1.429 . S
C1775 C1769 1.429 . S
C1775 C1776 1.523 . S
C1776 C1757 1.368 . S
C1776 C1770 1.368 . S
C1776 C1775 1.523 . S
C1777 C1761 1.429 . S
C1777 C1773 1.429 . S
C1777 C1778 1.523 . S
C1778 C1762 1.368 . S
C1778 C1774 1.368 . S
C1778 C1777 1.523 . S
H1779 C1754 0.950 . S
H1780 C1756 0.950 . S
H1781 C1757 0.949 . S
H1782 C1759 0.950 . S
H1783 C1761 0.950 . S
C1784 C1785 1.349 . S
C1784 C1786 1.327 . S
C1784 H1809 0.950 . S
C1785 C1784 1.349 . S
C1785 C1801 1.349 . S
C1786 C1784 1.327 . S
C1786 C1805 1.429 . S
C1786 H1810 0.950 . S
C1787 C1804 1.574 1_554 S
C1787 C1806 1.368 1_565 S
C1787 H1811 0.949 . S
H1788 C1792 0.949 . S
C1789 C1790 1.349 . S
C1789 C1791 1.327 . S
C1789 H1812 0.950 . S
C1790 C1789 1.349 . S
C1790 C1802 1.349 . S
C1791 C1789 1.327 . S
C1791 C1807 1.429 . S
C1791 H1813 0.950 . S
C1792 H1788 0.949 . S
C1792 C1800 1.574 1_556 S
C1792 C1808 1.368 1_545 S
H1793 C1801 0.950 . S
H1794 C1799 0.950 1_565 S
H1795 C1800 0.949 . S
H1796 C1802 0.950 . S
H1797 C1803 0.950 1_545 S
H1798 C1804 0.949 . S
C1799 H1794 0.950 1_545 S
C1799 C1801 1.327 . S
C1799 C1805 1.429 . S
C1800 C1792 1.574 1_554 S
C1800 H1795 0.949 . S
C1800 C1806 1.368 . S
C1801 C1785 1.349 . S
C1801 H1793 0.950 . S
C1801 C1799 1.327 . S
C1802 C1790 1.349 . S
C1802 H1796 0.950 . S
C1802 C1803 1.327 . S
C1803 H1797 0.950 1_565 S
C1803 C1802 1.327 . S
C1803 C1807 1.429 . S
C1804 C1787 1.574 1_556 S
C1804 H1798 0.949 . S
C1804 C1808 1.368 . S
C1805 C1786 1.429 . S
C1805 C1799 1.429 . S
C1805 C1806 1.523 . S
C1806 C1787 1.368 1_545 S
C1806 C1800 1.368 . S
C1806 C1805 1.523 . S
C1807 C1791 1.429 . S
C1807 C1803 1.429 . S
C1807 C1808 1.523 . S
C1808 C1792 1.368 1_565 S
C1808 C1804 1.368 . S
C1808 C1807 1.523 . S
H1809 C1784 0.950 . S
H1810 C1786 0.950 . S
H1811 C1787 0.949 . S
H1812 C1789 0.950 . S
H1813 C1791 0.950 . S
C1814 C1815 1.349 . S
C1814 C1816 1.327 . S
C1814 H1839 0.950 . S
C1815 C1814 1.349 . S
C1815 C1831 1.349 . S
C1816 C1814 1.327 . S
C1816 C1835 1.429 . S
C1816 H1840 0.950 . S
C1817 C1834 1.574 1_556 S
C1817 C1836 1.368 1_655 S
C1817 H1841 0.949 . S
H1818 C1822 0.949 . S
C1819 C1820 1.349 . S
C1819 C1821 1.327 . S
C1819 H1842 0.950 . S
C1820 C1819 1.349 . S
C1820 C1832 1.349 . S
C1821 C1819 1.327 . S
C1821 C1837 1.429 . S
C1821 H1843 0.950 . S
C1822 H1818 0.949 . S
C1822 C1830 1.574 1_554 S
C1822 C1838 1.368 1_455 S
H1823 C1831 0.950 . S
H1824 C1829 0.950 1_655 S
H1825 C1830 0.949 . S
H1826 C1832 0.950 . S
H1827 C1833 0.950 1_455 S
H1828 C1834 0.949 . S
C1829 H1824 0.950 1_455 S
C1829 C1831 1.327 . S
C1829 C1835 1.429 . S
C1830 C1822 1.574 1_556 S
C1830 H1825 0.949 . S
C1830 C1836 1.368 . S
C1831 C1815 1.349 . S
C1831 H1823 0.950 . S
C1831 C1829 1.327 . S
C1832 C1820 1.349 . S
C1832 H1826 0.950 . S
C1832 C1833 1.327 . S
C1833 H1827 0.950 1_655 S
C1833 C1832 1.327 . S
C1833 C1837 1.429 . S
C1834 C1817 1.574 1_554 S
C1834 H1828 0.949 . S
C1834 C1838 1.368 . S
C1835 C1816 1.429 . S
C1835 C1829 1.429 . S
C1835 C1836 1.523 . S
C1836 C1817 1.368 1_455 S
C1836 C1830 1.368 . S
C1836 C1835 1.523 . S
C1837 C1821 1.429 . S
C1837 C1833 1.429 . S
C1837 C1838 1.523 . S
C1838 C1822 1.368 1_655 S
C1838 C1834 1.368 . S
C1838 C1837 1.523 . S
H1839 C1814 0.950 . S
H1840 C1816 0.950 . S
H1841 C1817 0.949 . S
H1842 C1819 0.950 . S
H1843 C1821 0.950 . S
C1844 C1845 1.349 . S
C1844 C1846 1.327 1_545 S
C1844 H1869 0.950 1_545 S
C1845 C1844 1.349 . S
C1845 C1861 1.349 . S
C1846 C1844 1.327 1_565 S
C1846 C1865 1.429 1_565 S
C1846 H1870 0.950 . S
C1847 C1864 1.574 1_556 S
C1847 C1866 1.368 . S
C1847 H1871 0.949 . S
H1848 C1852 0.949 . S
C1849 C1850 1.349 . S
C1849 C1851 1.327 1_565 S
C1849 H1872 0.950 1_565 S
C1850 C1849 1.349 . S
C1850 C1862 1.349 . S
C1851 C1849 1.327 1_545 S
C1851 C1867 1.429 1_545 S
C1851 H1873 0.950 . S
C1852 H1848 0.949 . S
C1852 C1860 1.574 1_554 S
C1852 C1868 1.368 . S
H1853 C1861 0.950 . S
H1854 C1859 0.950 . S
H1855 C1860 0.949 . S
H1856 C1862 0.950 . S
H1857 C1863 0.950 . S
H1858 C1864 0.949 . S
C1859 H1854 0.950 . S
C1859 C1861 1.327 . S
C1859 C1865 1.429 . S
C1860 C1852 1.574 1_556 S
C1860 H1855 0.949 . S
C1860 C1866 1.368 1_565 S
C1861 C1845 1.349 . S
C1861 H1853 0.950 . S
C1861 C1859 1.327 . S
C1862 C1850 1.349 . S
C1862 H1856 0.950 . S
C1862 C1863 1.327 . S
C1863 H1857 0.950 . S
C1863 C1862 1.327 . S
C1863 C1867 1.429 . S
C1864 C1847 1.574 1_554 S
C1864 H1858 0.949 . S
C1864 C1868 1.368 1_545 S
C1865 C1846 1.429 1_545 S
C1865 C1859 1.429 . S
C1865 C1866 1.523 . S
C1866 C1847 1.368 . S
C1866 C1860 1.368 1_545 S
C1866 C1865 1.523 . S
C1867 C1851 1.429 1_565 S
C1867 C1863 1.429 . S
C1867 C1868 1.523 . S
C1868 C1852 1.368 . S
C1868 C1864 1.368 1_565 S
C1868 C1867 1.523 . S
H1869 C1844 0.950 1_565 S
H1870 C1846 0.950 . S
H1871 C1847 0.949 . S
H1872 C1849 0.950 1_545 S
H1873 C1851 0.950 . S
C1874 C1875 1.349 . S
C1874 C1876 1.327 . S
C1874 H1899 0.950 . S
C1875 C1874 1.349 . S
C1875 C1891 1.349 . S
C1876 C1874 1.327 . S
C1876 C1895 1.429 . S
C1876 H1900 0.950 . S
C1877 C1894 1.574 1_556 S
C1877 C1896 1.368 1_455 S
C1877 H1901 0.949 . S
H1878 C1882 0.949 . S
C1879 C1880 1.349 . S
C1879 C1881 1.327 . S
C1879 H1902 0.950 . S
C1880 C1879 1.349 . S
C1880 C1892 1.349 . S
C1881 C1879 1.327 . S
C1881 C1897 1.429 . S
C1881 H1903 0.950 . S
C1882 H1878 0.949 . S
C1882 C1890 1.574 1_554 S
C1882 C1898 1.368 1_655 S
H1883 C1891 0.950 . S
H1884 C1889 0.950 1_455 S
H1885 C1890 0.949 . S
H1886 C1892 0.950 . S
H1887 C1893 0.950 1_655 S
H1888 C1894 0.949 . S
C1889 H1884 0.950 1_655 S
C1889 C1891 1.327 . S
C1889 C1895 1.429 . S
C1890 C1882 1.574 1_556 S
C1890 H1885 0.949 . S
C1890 C1896 1.368 . S
C1891 C1875 1.349 . S
C1891 H1883 0.950 . S
C1891 C1889 1.327 . S
C1892 C1880 1.349 . S
C1892 H1886 0.950 . S
C1892 C1893 1.327 . S
C1893 H1887 0.950 1_455 S
C1893 C1892 1.327 . S
C1893 C1897 1.429 . S
C1894 C1877 1.574 1_554 S
C1894 H1888 0.949 . S
C1894 C1898 1.368 . S
C1895 C1876 1.429 . S
C1895 C1889 1.429 . S
C1895 C1896 1.523 . S
C1896 C1877 1.368 1_655 S
C1896 C1890 1.368 . S
C1896 C1895 1.523 . S
C1897 C1881 1.429 . S
C1897 C1893 1.429 . S
C1897 C1898 1.523 . S
C1898 C1882 1.368 1_455 S
C1898 C1894 1.368 . S
C1898 C1897 1.523 . S
H1899 C1874 0.950 . S
H1900 C1876 0.950 . S
H1901 C1877 0.949 . S
H1902 C1879 0.950 . S
H1903 C1881 0.950 . S
C945 C5 1.329 . S
C950 C418 1.329 . S
C975 C64 1.329 . S
C980 C241 1.329 . S
C1005 C300 1.329 . S
C1010 C123 1.329 . S
C1035 C182 1.329 . S
C1040 C359 1.329 . S
C1065 C477 1.329 . S
C1070 C890 1.329 . S
C1095 C713 1.329 . S
C1100 C536 1.329 . S
C1125 C772 1.329 . S
C1130 C595 1.329 . S
C1155 C831 1.329 . S
C1160 C654 1.329 . S
C1185 C52 1.522 . S
C1190 C682 1.521 . S
C1215 C111 1.522 . S
C1220 C505 1.521 . S
C1245 C564 1.521 . S
C1250 C170 1.522 . S
C1275 C229 1.522 . S
C1280 C623 1.521 . S
C1305 C288 1.522 . S
C1310 C800 1.521 . S
C1335 C859 1.521 . S
C1340 C347 1.522 . S
C1365 C406 1.522 . S
C1370 C918 1.521 . S
C1395 C741 1.521 . S
C1400 C465 1.522 . S
C1425 C524 1.537 . S
C1430 C210 1.521 . S
C1455 C33 1.521 . S
C1460 C583 1.537 . S
C1485 C642 1.537 . S
C1490 C92 1.521 . S
C1515 C151 1.521 . S
C1520 C701 1.537 . S
C1545 C760 1.537 . S
C1550 C328 1.521 . S
C1575 C387 1.521 . S
C1580 C819 1.537 . S
C1605 C446 1.521 . S
C1610 C878 1.537 . S
C1635 C269 1.521 . S
C1640 C937 1.537 . S
C1665 C239 1.662 . S
C1670 C3 1.662 . S
C1695 C298 1.662 . S
C1700 C62 1.662 . S
C1725 C121 1.662 . S
C1730 C357 1.662 . S
C1755 C416 1.662 . S
C1760 C180 1.662 . S
C1785 C711 1.662 . S
C1790 C475 1.662 . S
C1815 C770 1.662 . S
C1820 C534 1.662 . S
C1845 C593 1.662 . S
C1850 C829 1.662 . S
C1875 C888 1.662 . S
C1880 C652 1.662 . S
