# Generated by pormake.
# Topology snl, (6)-cn, num edge types: 1
# Building blocks:
#     Node 0, Type 0, BuildingBlock: HISSIN_clean_sbu_0, # of connection points: 6
#     Node 1, Type 0, BuildingBlock: HISSIN_clean_sbu_0, # of connection points: 6
#     Node 2, Type 0, BuildingBlock: HISSIN_clean_sbu_0, # of connection points: 6
#     Node 3, Type 0, BuildingBlock: HISSIN_clean_sbu_0, # of connection points: 6
#     Node 4, Type 0, BuildingBlock: HISSIN_clean_sbu_0, # of connection points: 6
#     Node 5, Type 0, BuildingBlock: HISSIN_clean_sbu_0, # of connection points: 6
#     Node 6, Type 0, BuildingBlock: HISSIN_clean_sbu_0, # of connection points: 6
#     Node 7, Type 0, BuildingBlock: HISSIN_clean_sbu_0, # of connection points: 6
#     Node 8, Type 0, BuildingBlock: HISSIN_clean_sbu_0, # of connection points: 6
#     Node 9, Type 0, BuildingBlock: HISSIN_clean_sbu_0, # of connection points: 6
#     Node 10, Type 0, BuildingBlock: HISSIN_clean_sbu_0, # of connection points: 6
#     Node 11, Type 0, BuildingBlock: HISSIN_clean_sbu_0, # of connection points: 6
#     Node 12, Type 0, BuildingBlock: HISSIN_clean_sbu_0, # of connection points: 6
#     Node 13, Type 0, BuildingBlock: HISSIN_clean_sbu_0, # of connection points: 6
#     Node 14, Type 0, BuildingBlock: HISSIN_clean_sbu_0, # of connection points: 6
#     Node 15, Type 0, BuildingBlock: HISSIN_clean_sbu_0, # of connection points: 6
#     Edge 16, Type (0, 0), BuildingBlock: OJICUG_clean_linker_0, # of connection points: 2
#     Edge 17, Type (0, 0), BuildingBlock: OJICUG_clean_linker_0, # of connection points: 2
#     Edge 18, Type (0, 0), BuildingBlock: OJICUG_clean_linker_0, # of connection points: 2
#     Edge 19, Type (0, 0), BuildingBlock: OJICUG_clean_linker_0, # of connection points: 2
#     Edge 20, Type (0, 0), BuildingBlock: OJICUG_clean_linker_0, # of connection points: 2
#     Edge 21, Type (0, 0), BuildingBlock: OJICUG_clean_linker_0, # of connection points: 2
#     Edge 22, Type (0, 0), BuildingBlock: OJICUG_clean_linker_0, # of connection points: 2
#     Edge 23, Type (0, 0), BuildingBlock: OJICUG_clean_linker_0, # of connection points: 2
#     Edge 24, Type (0, 0), BuildingBlock: OJICUG_clean_linker_0, # of connection points: 2
#     Edge 25, Type (0, 0), BuildingBlock: OJICUG_clean_linker_0, # of connection points: 2
#     Edge 26, Type (0, 0), BuildingBlock: OJICUG_clean_linker_0, # of connection points: 2
#     Edge 27, Type (0, 0), BuildingBlock: OJICUG_clean_linker_0, # of connection points: 2
#     Edge 28, Type (0, 0), BuildingBlock: OJICUG_clean_linker_0, # of connection points: 2
#     Edge 29, Type (0, 0), BuildingBlock: OJICUG_clean_linker_0, # of connection points: 2
#     Edge 30, Type (0, 0), BuildingBlock: OJICUG_clean_linker_0, # of connection points: 2
#     Edge 31, Type (0, 0), BuildingBlock: OJICUG_clean_linker_0, # of connection points: 2
#     Edge 32, Type (0, 0), BuildingBlock: OJICUG_clean_linker_0, # of connection points: 2
#     Edge 33, Type (0, 0), BuildingBlock: OJICUG_clean_linker_0, # of connection points: 2
#     Edge 34, Type (0, 0), BuildingBlock: OJICUG_clean_linker_0, # of connection points: 2
#     Edge 35, Type (0, 0), BuildingBlock: OJICUG_clean_linker_0, # of connection points: 2
#     Edge 36, Type (0, 0), BuildingBlock: OJICUG_clean_linker_0, # of connection points: 2
#     Edge 37, Type (0, 0), BuildingBlock: OJICUG_clean_linker_0, # of connection points: 2
#     Edge 38, Type (0, 0), BuildingBlock: OJICUG_clean_linker_0, # of connection points: 2
#     Edge 39, Type (0, 0), BuildingBlock: OJICUG_clean_linker_0, # of connection points: 2
#     Edge 40, Type (0, 0), BuildingBlock: OJICUG_clean_linker_0, # of connection points: 2
#     Edge 41, Type (0, 0), BuildingBlock: OJICUG_clean_linker_0, # of connection points: 2
#     Edge 42, Type (0, 0), BuildingBlock: OJICUG_clean_linker_0, # of connection points: 2
#     Edge 43, Type (0, 0), BuildingBlock: OJICUG_clean_linker_0, # of connection points: 2
#     Edge 44, Type (0, 0), BuildingBlock: OJICUG_clean_linker_0, # of connection points: 2
#     Edge 45, Type (0, 0), BuildingBlock: OJICUG_clean_linker_0, # of connection points: 2
#     Edge 46, Type (0, 0), BuildingBlock: OJICUG_clean_linker_0, # of connection points: 2
#     Edge 47, Type (0, 0), BuildingBlock: OJICUG_clean_linker_0, # of connection points: 2
#     Edge 48, Type (0, 0), BuildingBlock: OJICUG_clean_linker_0, # of connection points: 2
#     Edge 49, Type (0, 0), BuildingBlock: OJICUG_clean_linker_0, # of connection points: 2
#     Edge 50, Type (0, 0), BuildingBlock: OJICUG_clean_linker_0, # of connection points: 2
#     Edge 51, Type (0, 0), BuildingBlock: OJICUG_clean_linker_0, # of connection points: 2
#     Edge 52, Type (0, 0), BuildingBlock: OJICUG_clean_linker_0, # of connection points: 2
#     Edge 53, Type (0, 0), BuildingBlock: OJICUG_clean_linker_0, # of connection points: 2
#     Edge 54, Type (0, 0), BuildingBlock: OJICUG_clean_linker_0, # of connection points: 2
#     Edge 55, Type (0, 0), BuildingBlock: OJICUG_clean_linker_0, # of connection points: 2
#     Edge 56, Type (0, 0), BuildingBlock: OJICUG_clean_linker_0, # of connection points: 2
#     Edge 57, Type (0, 0), BuildingBlock: OJICUG_clean_linker_0, # of connection points: 2
#     Edge 58, Type (0, 0), BuildingBlock: OJICUG_clean_linker_0, # of connection points: 2
#     Edge 59, Type (0, 0), BuildingBlock: OJICUG_clean_linker_0, # of connection points: 2
#     Edge 60, Type (0, 0), BuildingBlock: OJICUG_clean_linker_0, # of connection points: 2
#     Edge 61, Type (0, 0), BuildingBlock: OJICUG_clean_linker_0, # of connection points: 2
#     Edge 62, Type (0, 0), BuildingBlock: OJICUG_clean_linker_0, # of connection points: 2
#     Edge 63, Type (0, 0), BuildingBlock: OJICUG_clean_linker_0, # of connection points: 2
# Relax obj value: 0.187
# Max RMSD: 0.239
# Mean RMSD: 0.239
data_MOF--net-snl--node1-HISSIN_clean_sbu_0--edge1-OJICUG_clean_linker_0
_symmetry_space_group_name_H-M    P1
_symmetry_Int_Tables_number       1
_symmetry_cell_setting            triclinic
loop_
_symmetry_equiv_pos_as_xyz
'x, y, z'
_cell_length_a     41.371344
_cell_length_b     40.581255
_cell_length_c     21.213458
_cell_angle_alpha  89.999948
_cell_angle_beta   90.079958
_cell_angle_gamma 89.979445
loop_
_atom_site_label
_atom_site_type_symbol
_atom_site_fract_x
_atom_site_fract_y
_atom_site_fract_z
_atom_type_partial_charge
Eu0 Eu 0.13276 0.60845 0.23318 0.0
Eu1 Eu 0.15885 0.6408 0.09989 0.0
C2 C 0.20598 0.62807 0.21578 0.0
C3 C 0.12514 0.59007 0.40884 0.0
C4 C 0.14759 0.61464 0.42459 0.0
C5 C 0.11819 0.57782 0.52005 0.0
C6 C 0.15508 0.62098 0.4878 0.0
C7 C 0.11071 0.57154 0.45684 0.0
C8 C 0.14023 0.60285 0.53641 0.0
C9 C 0.1158 0.58441 0.3428 0.0
O10 O 0.16812 0.58631 0.09605 0.0
O11 O 0.12676 0.56859 0.15884 0.0
C12 C 0.14742 0.56355 0.11277 0.0
O13 O 0.08793 0.62094 0.17901 0.0
O14 O 0.19636 0.64286 1.02757 0.0
O15 O 0.15458 0.67461 1.02033 0.0
O16 O 0.10774 0.62393 0.07748 0.0
C17 C 0.08361 0.62181 0.11772 0.0
O18 O 0.14217 0.66273 0.25277 0.0
O19 O 0.13344 0.68102 0.15205 0.0
O20 O 0.19718 0.65069 0.17481 0.0
O21 O 0.10102 0.60883 0.31509 0.0
O22 O 0.13759 0.57096 0.3066 0.0
O23 O 0.18663 0.6036 0.22921 0.0
C24 C 0.17573 0.65331 0.92599 0.0
C25 C 0.15551 0.6267 0.91091 0.0
C26 C 0.18621 0.6617 0.81448 0.0
C27 C 0.15047 0.61779 0.84797 0.0
C28 C 0.19117 0.67064 0.87751 0.0
C29 C 0.1656 0.6353 0.7989 0.0
C30 C 0.18025 0.66333 0.99205 0.0
C31 C 0.13489 0.68638 0.21283 0.0
H32 H 0.15891 0.62926 0.388 0.0
H33 H 0.1067 0.56303 0.55611 0.0
H34 H 0.17187 0.64066 0.4986 0.0
H35 H 0.09339 0.55241 0.44547 0.0
H36 H 0.14349 0.61294 0.94786 0.0
H37 H 0.19796 0.67592 0.7779 0.0
H38 H 0.13483 0.59706 0.83776 0.0
H39 H 0.20682 0.69129 0.88836 0.0
Eu40 Eu 0.63284 0.90187 0.33733 0.0
Eu41 Eu 0.65918 0.86967 0.47074 0.0
C42 C 0.70611 0.88233 0.35477 0.0
C43 C 0.62512 0.9202 0.16162 0.0
C44 C 0.64781 0.89583 0.14603 0.0
C45 C 0.61802 0.93232 0.05035 0.0
C46 C 0.65536 0.88954 0.08285 0.0
C47 C 0.61049 0.93856 0.11352 0.0
C48 C 0.64032 0.9075 1.03414 0.0
C49 C 0.61574 0.92581 0.22761 0.0
O50 O 0.66832 0.92418 0.47437 0.0
O51 O 0.62679 0.94175 0.41159 0.0
C52 C 0.6475 0.94686 0.45765 0.0
O53 O 0.58809 0.88939 0.39154 0.0
O54 O 0.69675 0.86784 0.5432 0.0
O55 O 0.65518 0.83585 0.55033 0.0
O56 O 0.60805 0.88641 0.49308 0.0
C57 C 0.58386 0.88851 0.45283 0.0
O58 O 0.6423 0.84757 0.31793 0.0
O59 O 0.63379 0.82936 0.41872 0.0
O60 O 0.69742 0.85974 0.39583 0.0
O61 O 0.60109 0.90132 0.25525 0.0
O62 O 0.63746 0.93938 0.26393 0.0
O63 O 0.6867 0.90679 0.34135 0.0
C64 C 0.67623 0.85731 0.64473 0.0
C65 C 0.65575 0.88372 0.65972 0.0
C66 C 0.68687 0.84907 0.75629 0.0
C67 C 0.65065 0.8926 0.72263 0.0
C68 C 0.69189 0.84016 0.69328 0.0
C69 C 0.66598 0.87526 0.77177 0.0
C70 C 0.68079 0.84729 0.57869 0.0
C71 C 0.63513 0.82396 0.35795 0.0
H72 H 0.65929 0.88135 0.18269 0.0
H73 H 0.60638 0.94698 1.01421 0.0
H74 H 0.67236 0.87003 0.07217 0.0
H75 H 0.59298 0.95752 0.12477 0.0
H76 H 0.64356 0.89734 0.62271 0.0
H77 H 0.69879 0.83498 0.79292 0.0
H78 H 0.63479 0.91317 0.73276 0.0
H79 H 0.70774 0.81967 0.6825 0.0
Eu80 Eu 0.39988 0.40184 0.73334 0.0
Eu81 Eu 0.3736 0.36958 0.59994 0.0
C82 C 0.32664 0.38228 0.71587 0.0
C83 C 0.40756 0.42026 0.90904 0.0
C84 C 0.38468 0.3961 0.92463 0.0
C85 C 0.41491 0.43216 1.02033 0.0
C86 C 0.37715 0.3898 0.98781 0.0
C87 C 0.42241 0.43841 0.95716 0.0
C88 C 0.39241 0.40754 0.03654 0.0
C89 C 0.41693 0.42584 0.84304 0.0
O90 O 0.36441 0.42408 0.59628 0.0
O91 O 0.40594 0.44168 0.659 0.0
C92 C 0.38524 0.44676 0.6129 0.0
O93 O 0.44465 0.3893 0.67924 0.0
O94 O 0.33606 0.36774 0.52743 0.0
O95 O 0.37765 0.33575 0.52038 0.0
O96 O 0.42472 0.38633 0.57767 0.0
C97 C 0.4489 0.38842 0.61794 0.0
O98 O 0.39044 0.34756 0.75282 0.0
O99 O 0.39899 0.32928 0.65207 0.0
O100 O 0.33535 0.35967 0.67483 0.0
O101 O 0.43162 0.40135 0.81545 0.0
O102 O 0.3952 0.43938 0.80668 0.0
O103 O 0.34602 0.40675 0.72925 0.0
C104 C 0.35663 0.35722 0.42594 0.0
C105 C 0.37733 0.38343 0.41094 0.0
C106 C 0.34575 0.34922 0.3144 0.0
C107 C 0.38243 0.39233 0.34803 0.0
C108 C 0.34074 0.34029 0.3774 0.0
C109 C 0.36686 0.3752 0.2989 0.0
C110 C 0.35205 0.34719 0.49197 0.0
C111 C 0.39762 0.32392 0.71285 0.0
H112 H 0.37302 0.38178 0.88795 0.0
H113 H 0.42673 0.44665 0.05649 0.0
H114 H 0.36 0.37044 0.99849 0.0
H115 H 0.44008 0.45721 0.94592 0.0
H116 H 0.3897 0.39689 0.44793 0.0
H117 H 0.33364 0.3353 0.27778 0.0
H118 H 0.39846 0.41274 0.33789 0.0
H119 H 0.3247 0.31996 0.38818 0.0
Eu120 Eu 0.89992 0.1084 0.83729 0.0
Eu121 Eu 0.87371 0.14074 0.97056 0.0
C122 C 0.82667 0.12806 0.8545 0.0
C123 C 0.90764 0.09001 0.66164 0.0
C124 C 0.88466 0.1141 0.64594 0.0
C125 C 0.91516 0.07828 0.55037 0.0
C126 C 0.87718 0.12045 0.58272 0.0
C127 C 0.92262 0.07198 0.61358 0.0
C128 C 0.89257 0.10283 0.53406 0.0
C129 C 0.91696 0.08438 0.7277 0.0
O130 O 0.86447 0.08625 0.97425 0.0
O131 O 0.90593 0.06856 0.91166 0.0
C132 C 0.88524 0.06351 0.95767 0.0
O133 O 0.9447 0.12095 0.89154 0.0
O134 O 0.83622 0.14266 0.04295 0.0
O135 O 0.87784 0.1746 0.05007 0.0
O136 O 0.92483 0.12391 0.99303 0.0
C137 C 0.94899 0.12181 0.95284 0.0
O138 O 0.89047 0.16268 0.81769 0.0
O139 O 0.89909 0.18098 0.91844 0.0
O140 O 0.83541 0.15065 0.89557 0.0
O141 O 0.93169 0.10882 0.7554 0.0
O142 O 0.89519 0.0709 0.76389 0.0
O143 O 0.84605 0.10358 0.84112 0.0
C144 C 0.85685 0.15321 0.14448 0.0
C145 C 0.87765 0.12707 0.15962 0.0
C146 C 0.84588 0.16116 0.25594 0.0
C147 C 0.88276 0.11819 0.22256 0.0
C148 C 0.84086 0.17008 0.1929 0.0
C149 C 0.86708 0.13525 0.27157 0.0
C150 C 0.85224 0.16321 0.07842 0.0
C151 C 0.89769 0.18633 0.85765 0.0
H152 H 0.87291 0.12833 0.68257 0.0
H153 H 0.92709 0.06388 0.51425 0.0
H154 H 0.85995 0.13975 0.57197 0.0
H155 H 0.94037 0.05323 0.6249 0.0
H156 H 0.89009 0.11366 0.12272 0.0
H157 H 0.83369 0.17503 0.29248 0.0
H158 H 0.89886 0.09783 0.23281 0.0
H159 H 0.82475 0.19035 0.18201 0.0
Eu160 Eu 0.13298 0.40185 0.83702 0.0
Eu161 Eu 0.15941 0.36971 0.97043 0.0
C162 C 0.20626 0.38233 0.85433 0.0
C163 C 0.12522 0.42015 0.66131 0.0
C164 C 0.14793 0.39581 0.64572 0.0
C165 C 0.11813 0.43227 0.55004 0.0
C166 C 0.1555 0.38953 0.58255 0.0
C167 C 0.11058 0.4385 0.6132 0.0
C168 C 0.14045 0.40748 0.53383 0.0
C169 C 0.11584 0.42576 0.7273 0.0
O170 O 0.1685 0.42424 0.97397 0.0
O171 O 0.12692 0.44175 0.91124 0.0
C172 C 0.14764 0.44689 0.95727 0.0
O173 O 0.08827 0.38936 0.89131 0.0
O174 O 0.19698 0.36796 0.04288 0.0
O175 O 0.15547 0.33589 0.05002 0.0
O176 O 0.10828 0.38644 0.99282 0.0
C177 C 0.08406 0.3885 0.95262 0.0
O178 O 0.14244 0.34755 0.81768 0.0
O179 O 0.13398 0.32938 0.91851 0.0
O180 O 0.1976 0.35976 0.89547 0.0
O181 O 0.10122 0.40125 0.75495 0.0
O182 O 0.13754 0.43936 0.7636 0.0
O183 O 0.18684 0.40678 0.84092 0.0
C184 C 0.17649 0.35739 0.14441 0.0
C185 C 0.15598 0.38378 0.1594 0.0
C186 C 0.18711 0.34914 0.25597 0.0
C187 C 0.15086 0.39265 0.22232 0.0
C188 C 0.19215 0.34025 0.19296 0.0
C189 C 0.1662 0.37531 0.27146 0.0
C190 C 0.18106 0.34738 0.07837 0.0
C191 C 0.1353 0.32396 0.85775 0.0
H192 H 0.15943 0.38134 0.68238 0.0
H193 H 0.10647 0.44692 0.51389 0.0
H194 H 0.17252 0.37003 0.57187 0.0
H195 H 0.09305 0.45745 0.62444 0.0
H196 H 0.14378 0.39739 0.1224 0.0
H197 H 0.19904 0.33506 0.2926 0.0
H198 H 0.13498 0.41319 0.23246 0.0
H199 H 0.20803 0.31977 0.18219 0.0
Eu200 Eu 0.89983 0.90185 0.23357 0.0
Eu201 Eu 0.87331 0.8698 0.10017 0.0
C202 C 0.82651 0.88239 0.2164 0.0
C203 C 0.90774 0.92014 0.40927 0.0
C204 C 0.8843 0.89653 0.42479 0.0
C205 C 0.91565 0.9315 0.52062 0.0
C206 C 0.87676 0.89023 0.48797 0.0
C207 C 0.92316 0.93774 0.45746 0.0
C208 C 0.89257 0.90743 0.53676 0.0
C209 C 0.91709 0.9257 0.34325 0.0
O210 O 0.86419 0.92432 0.09683 0.0
O211 O 0.90585 0.94176 0.15936 0.0
C212 C 0.88508 0.94695 0.11343 0.0
O213 O 0.94449 0.88925 0.17919 0.0
O214 O 0.8358 0.86826 1.02758 0.0
O215 O 0.87712 0.8359 1.02068 0.0
O216 O 0.92443 0.88651 0.07771 0.0
C217 C 0.94867 0.88847 0.11788 0.0
O218 O 0.89032 0.84756 0.25286 0.0
O219 O 0.89876 0.82943 0.15199 0.0
O220 O 0.83513 0.85986 0.17514 0.0
O221 O 0.93162 0.90113 0.31559 0.0
O222 O 0.89541 0.93937 0.30698 0.0
O223 O 0.84595 0.9068 0.2299 0.0
C224 C 0.85632 0.8575 0.92616 0.0
C225 C 0.87765 0.88318 0.91107 0.0
C226 C 0.84501 0.84989 0.81468 0.0
C227 C 0.88284 0.89199 0.84815 0.0
C228 C 0.83991 0.84104 0.8777 0.0
C229 C 0.86674 0.87532 0.7991 0.0
C230 C 0.85163 0.84755 0.9922 0.0
C231 C 0.89745 0.82397 0.21274 0.0
H232 H 0.87221 0.88263 0.38806 0.0
H233 H 0.92792 0.94556 0.55683 0.0
H234 H 0.85914 0.87131 0.4986 0.0
H235 H 0.94127 0.95611 0.44626 0.0
H236 H 0.89042 0.89628 0.94799 0.0
H237 H 0.83247 0.83633 0.77811 0.0
H238 H 0.89936 0.91198 0.83794 0.0
H239 H 0.82338 0.82113 0.88855 0.0
Eu240 Eu 0.39999 0.6083 0.33681 0.0
Eu241 Eu 0.37361 0.64042 0.47013 0.0
C242 C 0.32671 0.62785 0.35377 0.0
C243 C 0.40722 0.59015 0.16124 0.0
C244 C 0.3818 0.61177 0.14681 0.0
C245 C 0.416 0.58118 0.04935 0.0
C246 C 0.37367 0.61826 0.08396 0.0
C247 C 0.42411 0.57475 0.11222 0.0
C248 C 0.39084 0.60324 1.03438 0.0
C249 C 0.41704 0.58454 0.22703 0.0
O250 O 0.36446 0.58591 0.47348 0.0
O251 O 0.40606 0.5684 0.41105 0.0
C252 C 0.38531 0.56325 0.45694 0.0
O253 O 0.44472 0.6208 0.39127 0.0
O254 O 0.33601 0.64208 0.54238 0.0
O255 O 0.37745 0.67425 0.5497 0.0
O256 O 0.42475 0.62371 0.49272 0.0
C257 C 0.44895 0.62166 0.4526 0.0
O258 O 0.39046 0.66261 0.31752 0.0
O259 O 0.39901 0.68077 0.41837 0.0
O260 O 0.33539 0.65039 0.39499 0.0
O261 O 0.43152 0.6092 0.25453 0.0
O262 O 0.39568 0.57067 0.26362 0.0
O263 O 0.34612 0.60341 0.34033 0.0
C264 C 0.35616 0.65305 0.64415 0.0
C265 C 0.37917 0.62917 0.66081 0.0
C266 C 0.34191 0.65913 0.75459 0.0
C267 C 0.38371 0.6205 0.72404 0.0
C268 C 0.33745 0.66782 0.6913 0.0
C269 C 0.36525 0.63549 0.77185 0.0
C270 C 0.35183 0.66277 0.57785 0.0
C271 C 0.39764 0.68621 0.35761 0.0
H272 H 0.36847 0.62388 0.18418 0.0
H273 H 0.42998 0.56951 1.01245 0.0
H274 H 0.35391 0.63502 0.07419 0.0
H275 H 0.44391 0.55811 0.12256 0.0
H276 H 0.39383 0.61746 0.62492 0.0
H277 H 0.32692 0.6708 0.78996 0.0
H278 H 0.40216 0.60254 0.73553 0.0
H279 H 0.31944 0.68617 0.67921 0.0
Eu280 Eu 0.63278 0.1084 0.73363 0.0
Eu281 Eu 0.65894 0.14071 0.60034 0.0
C282 C 0.70601 0.12803 0.71635 0.0
C283 C 0.62515 0.09 0.90928 0.0
C284 C 0.64772 0.11446 0.92502 0.0
C285 C 0.61812 0.07782 1.02049 0.0
C286 C 0.65524 0.12078 0.98823 0.0
C287 C 0.61062 0.07156 0.95729 0.0
C288 C 0.64029 0.10274 0.03685 0.0
C289 C 0.6158 0.08437 0.84324 0.0
O290 O 0.66818 0.08622 0.59659 0.0
O291 O 0.62676 0.06855 0.65928 0.0
C292 C 0.64743 0.06349 0.61324 0.0
O293 O 0.58798 0.12095 0.67941 0.0
O294 O 0.69647 0.14271 0.52804 0.0
O295 O 0.65473 0.17451 0.52073 0.0
O296 O 0.60782 0.12388 0.5779 0.0
C297 C 0.58367 0.1218 0.61811 0.0
O298 O 0.64222 0.16268 0.7532 0.0
O299 O 0.63356 0.18097 0.65246 0.0
O300 O 0.69724 0.15063 0.6753 0.0
O301 O 0.60105 0.10883 0.81556 0.0
O302 O 0.63756 0.07089 0.80701 0.0
O303 O 0.68665 0.10355 0.72973 0.0
C304 C 0.67588 0.15315 0.42643 0.0
C305 C 0.65554 0.12663 0.41135 0.0
C306 C 0.68647 0.16143 0.31493 0.0
C307 C 0.65049 0.11772 0.34841 0.0
C308 C 0.69144 0.17037 0.37796 0.0
C309 C 0.66573 0.13513 0.29935 0.0
C310 C 0.68039 0.16319 0.49249 0.0
C311 C 0.63499 0.18633 0.71324 0.0
H312 H 0.65913 0.12901 0.88843 0.0
H313 H 0.60655 0.0631 0.05657 0.0
H314 H 0.67213 0.14037 0.99903 0.0
H315 H 0.59321 0.05252 0.94592 0.0
H316 H 0.64343 0.11295 0.44829 0.0
H317 H 0.69831 0.17557 0.27836 0.0
H318 H 0.63475 0.09707 0.3382 0.0
H319 H 0.70718 0.19094 0.38881 0.0
Eu320 Eu 0.87389 0.3695 0.97064 0.0
Eu321 Eu 0.90002 0.40186 0.83736 0.0
C322 C 0.94914 0.38846 0.95285 0.0
C323 C 0.85701 0.35702 0.14455 0.0
C324 C 0.87749 0.38342 0.15966 0.0
C325 C 0.84629 0.34885 0.25604 0.0
C326 C 0.88255 0.39232 0.2226 0.0
C327 C 0.84131 0.33992 0.19301 0.0
C328 C 0.86717 0.37503 0.27165 0.0
C329 C 0.85246 0.347 0.07849 0.0
O330 O 0.89058 0.34758 0.81775 0.0
O331 O 0.89927 0.32927 0.91847 0.0
C332 C 0.89783 0.32393 0.85768 0.0
O333 O 0.83558 0.3596 0.89569 0.0
O334 O 0.93177 0.40146 0.75546 0.0
O335 O 0.89522 0.43936 0.76397 0.0
O336 O 0.84615 0.40669 0.84129 0.0
C337 C 0.8268 0.3822 0.85466 0.0
O338 O 0.8646 0.42399 0.97441 0.0
O339 O 0.90602 0.4417 0.91174 0.0
O340 O 0.94482 0.3893 0.89155 0.0
O341 O 0.83638 0.36749 0.04298 0.0
O342 O 0.87811 0.33568 0.0502 0.0
O343 O 0.92499 0.38636 0.99307 0.0
C344 C 0.90766 0.42026 0.66172 0.0
C345 C 0.88497 0.39591 0.646 0.0
C346 C 0.91488 0.43226 0.55047 0.0
C347 C 0.87748 0.38957 0.58278 0.0
C348 C 0.92236 0.43855 0.61368 0.0
C349 C 0.89258 0.40746 0.53414 0.0
C350 C 0.917 0.4259 0.72776 0.0
C351 C 0.88533 0.44673 0.95778 0.0
H352 H 0.88971 0.39701 0.12274 0.0
H353 H 0.83433 0.3348 0.2926 0.0
H354 H 0.89841 0.41287 0.23283 0.0
H355 H 0.82544 0.31945 0.18214 0.0
H356 H 0.87345 0.38148 0.6826 0.0
H357 H 0.92658 0.44687 0.51438 0.0
H358 H 0.86048 0.37007 0.572 0.0
H359 H 0.93987 0.4575 0.62503 0.0
Eu360 Eu 0.37341 0.14053 0.60034 0.0
Eu361 Eu 0.39983 0.10837 0.73374 0.0
C362 C 0.44875 0.12173 0.61815 0.0
C363 C 0.35639 0.15289 0.42634 0.0
C364 C 0.37713 0.12669 0.41132 0.0
C365 C 0.34556 0.16096 0.3148 0.0
C366 C 0.38227 0.11784 0.34841 0.0
C367 C 0.34051 0.16984 0.37782 0.0
C368 C 0.36671 0.13499 0.29929 0.0
C369 C 0.35178 0.16288 0.49238 0.0
O370 O 0.39036 0.16267 0.75311 0.0
O371 O 0.39883 0.18085 0.65228 0.0
C372 C 0.39751 0.18627 0.71305 0.0
O373 O 0.3352 0.15048 0.67528 0.0
O374 O 0.43161 0.10897 0.81579 0.0
O375 O 0.39527 0.07087 0.80716 0.0
O376 O 0.34597 0.10346 0.72985 0.0
C377 C 0.32655 0.12791 0.71643 0.0
O378 O 0.36428 0.08602 0.59681 0.0
O379 O 0.40586 0.06848 0.6595 0.0
O380 O 0.44454 0.12088 0.67946 0.0
O381 O 0.33587 0.14227 0.52783 0.0
O382 O 0.37734 0.17439 0.52079 0.0
O383 O 0.42453 0.12379 0.57795 0.0
C384 C 0.40763 0.09007 0.90944 0.0
C385 C 0.38471 0.11422 0.92501 0.0
C386 C 0.41497 0.07819 1.02075 0.0
C387 C 0.37717 0.12052 0.98819 0.0
C388 C 0.4225 0.07194 0.95758 0.0
C389 C 0.39244 0.10279 0.03693 0.0
C390 C 0.41699 0.08446 0.84345 0.0
C391 C 0.38512 0.06335 0.61349 0.0
H392 H 0.3895 0.11322 0.4483 0.0
H393 H 0.33346 0.1749 0.27819 0.0
H394 H 0.39833 0.09744 0.33825 0.0
H395 H 0.32445 0.19016 0.38861 0.0
H396 H 0.37304 0.12853 0.88832 0.0
H397 H 0.42681 0.06371 0.05692 0.0
H398 H 0.35998 0.13987 0.99885 0.0
H399 H 0.44019 0.05315 0.94636 0.0
Eu400 Eu 0.65917 0.64059 0.47077 0.0
Eu401 Eu 0.63284 0.6084 0.33736 0.0
C402 C 0.58386 0.62176 0.45285 0.0
C403 C 0.67619 0.65295 0.64476 0.0
C404 C 0.65571 0.62655 0.65975 0.0
C405 C 0.68684 0.66117 0.75632 0.0
C406 C 0.65061 0.61767 0.72266 0.0
C407 C 0.69186 0.67008 0.69331 0.0
C408 C 0.66596 0.635 0.77181 0.0
C409 C 0.68075 0.66296 0.57873 0.0
O410 O 0.6423 0.66269 0.31796 0.0
O411 O 0.63375 0.6809 0.41874 0.0
C412 C 0.63511 0.68631 0.35798 0.0
O413 O 0.6974 0.65052 0.39588 0.0
O414 O 0.60109 0.60895 0.25529 0.0
O415 O 0.63747 0.57089 0.26396 0.0
O416 O 0.68671 0.60348 0.34135 0.0
C417 C 0.7061 0.62793 0.3548 0.0
O418 O 0.66835 0.58608 0.47438 0.0
O419 O 0.62683 0.56851 0.41162 0.0
O420 O 0.5881 0.62092 0.39155 0.0
O421 O 0.69672 0.64242 0.54325 0.0
O422 O 0.65513 0.67441 0.55036 0.0
O423 O 0.60806 0.62381 0.49309 0.0
C424 C 0.62512 0.59007 0.16166 0.0
C425 C 0.64781 0.61441 0.14606 0.0
C426 C 0.61802 0.57796 0.05039 0.0
C427 C 0.65536 0.6207 0.08288 0.0
C428 C 0.61048 0.57172 0.11355 0.0
C429 C 0.64031 0.60276 1.03417 0.0
C430 C 0.61575 0.58446 0.22765 0.0
C431 C 0.64755 0.5634 0.45767 0.0
H432 H 0.64351 0.61294 0.62275 0.0
H433 H 0.69877 0.67525 0.79295 0.0
H434 H 0.63476 0.59711 0.7328 0.0
H435 H 0.70771 0.69056 0.68254 0.0
H436 H 0.6593 0.62888 0.18272 0.0
H437 H 0.60636 0.56331 1.01424 0.0
H438 H 0.67236 0.6402 0.07219 0.0
H439 H 0.59297 0.55277 0.1248 0.0
Eu440 Eu 0.15889 0.86978 0.10063 0.0
Eu441 Eu 0.13251 0.90192 0.23394 0.0
C442 C 0.08356 0.88859 0.11811 0.0
C443 C 0.17632 0.85711 0.92661 0.0
C444 C 0.15353 0.88122 0.91 0.0
C445 C 0.19033 0.85077 0.81611 0.0
C446 C 0.14897 0.88987 0.84677 0.0
C447 C 0.19481 0.84209 0.8794 0.0
C448 C 0.16721 0.87464 0.79891 0.0
C449 C 0.18065 0.8474 0.99292 0.0
O450 O 0.14203 0.84762 0.25324 0.0
O451 O 0.13347 0.82946 0.15239 0.0
C452 C 0.13484 0.82402 0.21315 0.0
O453 O 0.1971 0.85981 0.17577 0.0
O454 O 0.10096 0.90105 0.31618 0.0
O455 O 0.13686 0.93953 0.30717 0.0
O456 O 0.18638 0.9068 0.23042 0.0
C457 C 0.20579 0.88236 0.21698 0.0
O458 O 0.16807 0.92428 0.09726 0.0
O459 O 0.12649 0.94184 0.1597 0.0
O460 O 0.08778 0.88946 0.17944 0.0
O461 O 0.19649 0.86809 1.02838 0.0
O462 O 0.15503 0.83594 1.02107 0.0
O463 O 0.10776 0.88653 0.07801 0.0
C464 C 0.12527 0.92004 0.40951 0.0
C465 C 0.15048 0.89815 0.42394 0.0
C466 C 0.11668 0.92921 0.5214 0.0
C467 C 0.15859 0.89164 0.4868 0.0
C468 C 0.10858 0.93566 0.45852 0.0
C469 C 0.14161 0.90689 0.53637 0.0
C470 C 0.11546 0.92569 0.34372 0.0
C471 C 0.14725 0.94697 0.11383 0.0
H472 H 0.13904 0.89311 0.94594 0.0
H473 H 0.20514 0.8389 0.78069 0.0
H474 H 0.13069 0.90802 0.83533 0.0
H475 H 0.21265 0.82357 0.89145 0.0
H476 H 0.16365 0.88587 0.38658 0.0
H477 H 0.10284 0.94107 0.55829 0.0
H478 H 0.17818 0.87468 0.49656 0.0
H479 H 0.08894 0.9525 0.44819 0.0
Eu480 Eu 0.87331 0.64047 0.10023 0.0
Eu481 Eu 0.89984 0.60842 0.23364 0.0
C482 C 0.94868 0.62178 0.11793 0.0
C483 C 0.85631 0.65277 0.92622 0.0
C484 C 0.87768 0.62712 0.91113 0.0
C485 C 0.84495 0.66036 0.81475 0.0
C486 C 0.88288 0.61831 0.84821 0.0
C487 C 0.83984 0.6692 0.87777 0.0
C488 C 0.86673 0.63496 0.79916 0.0
C489 C 0.85161 0.66272 0.99227 0.0
O490 O 0.89033 0.66271 0.25291 0.0
O491 O 0.89874 0.68083 0.15203 0.0
C492 C 0.89744 0.68629 0.21279 0.0
O493 O 0.83513 0.65042 0.17522 0.0
O494 O 0.93163 0.60913 0.31567 0.0
O495 O 0.89544 0.5709 0.30705 0.0
O496 O 0.84597 0.60347 0.22995 0.0
C497 C 0.82652 0.62788 0.21646 0.0
O498 O 0.86423 0.58594 0.09689 0.0
O499 O 0.90589 0.56851 0.15944 0.0
O500 O 0.94451 0.62097 0.17924 0.0
O501 O 0.83579 0.642 1.02765 0.0
O502 O 0.87708 0.67437 1.02075 0.0
O503 O 0.92444 0.62377 0.07776 0.0
C504 C 0.90776 0.59012 0.40934 0.0
C505 C 0.88428 0.61371 0.42486 0.0
C506 C 0.91571 0.5788 0.52069 0.0
C507 C 0.87673 0.62 0.48804 0.0
C508 C 0.92323 0.57255 0.45753 0.0
C509 C 0.89259 0.60284 0.53683 0.0
C510 C 0.91711 0.58457 0.34332 0.0
C511 C 0.88513 0.56332 0.1135 0.0
H512 H 0.89049 0.61404 0.94805 0.0
H513 H 0.83238 0.67389 0.77819 0.0
H514 H 0.89944 0.59835 0.838 0.0
H515 H 0.82328 0.68909 0.88863 0.0
H516 H 0.87215 0.62758 0.38813 0.0
H517 H 0.92801 0.56476 0.55691 0.0
H518 H 0.85908 0.63891 0.49866 0.0
H519 H 0.94137 0.55421 0.44634 0.0
Eu520 Eu 0.15923 0.14064 0.97084 0.0
Eu521 Eu 0.13293 0.10839 0.83744 0.0
C522 C 0.08392 0.12183 0.95286 0.0
C523 C 0.17625 0.15297 0.14484 0.0
C524 C 0.15569 0.12664 0.15983 0.0
C525 C 0.18701 0.16107 0.2564 0.0
C526 C 0.1506 0.11773 0.22273 0.0
C527 C 0.19201 0.17001 0.1934 0.0
C528 C 0.16604 0.13497 0.27188 0.0
C529 C 0.1808 0.16301 0.07881 0.0
O530 O 0.14237 0.16267 0.81797 0.0
O531 O 0.13385 0.18095 0.91874 0.0
C532 C 0.1352 0.18631 0.85795 0.0
O533 O 0.19747 0.15054 0.89594 0.0
O534 O 0.10121 0.10889 0.75531 0.0
O535 O 0.1376 0.07084 0.76411 0.0
O536 O 0.18679 0.10346 0.84155 0.0
C537 C 0.20617 0.12794 0.8549 0.0
O538 O 0.16837 0.08613 0.97451 0.0
O539 O 0.12684 0.06856 0.91179 0.0
O540 O 0.08817 0.12093 0.89157 0.0
O541 O 0.19679 0.14247 0.04332 0.0
O542 O 0.15519 0.17445 0.05045 0.0
O543 O 0.1081 0.12392 0.99313 0.0
C544 C 0.12527 0.08997 0.66175 0.0
C545 C 0.14804 0.11425 0.64614 0.0
C546 C 0.11809 0.07792 0.55047 0.0
C547 C 0.15558 0.12054 0.58296 0.0
C548 C 0.11057 0.07169 0.61364 0.0
C549 C 0.14046 0.10266 0.53425 0.0
C550 C 0.11589 0.08439 0.72774 0.0
C551 C 0.14753 0.06346 0.9579 0.0
H552 H 0.14342 0.1131 0.12282 0.0
H553 H 0.19901 0.17508 0.29303 0.0
H554 H 0.13468 0.09723 0.23286 0.0
H555 H 0.20794 0.19043 0.18263 0.0
H556 H 0.15959 0.12867 0.68281 0.0
H557 H 0.10637 0.06334 0.51432 0.0
H558 H 0.17264 0.13998 0.57228 0.0
H559 H 0.09299 0.0528 0.62489 0.0
Eu560 Eu 0.65912 0.36956 0.60039 0.0
Eu561 Eu 0.63291 0.40187 0.73368 0.0
C562 C 0.58383 0.38848 0.61811 0.0
C563 C 0.6761 0.35716 0.42649 0.0
C564 C 0.65579 0.38372 0.41142 0.0
C565 C 0.68662 0.34883 0.31498 0.0
C566 C 0.65073 0.39264 0.34849 0.0
C567 C 0.69161 0.33989 0.378 0.0
C568 C 0.66592 0.37518 0.29941 0.0
C569 C 0.68061 0.34711 0.49255 0.0
O570 O 0.64233 0.34758 0.75324 0.0
O571 O 0.63375 0.3293 0.65246 0.0
C572 C 0.63513 0.32394 0.71325 0.0
O573 O 0.6974 0.35963 0.6754 0.0
O574 O 0.60117 0.40145 0.8156 0.0
O575 O 0.63765 0.43938 0.80706 0.0
O576 O 0.68677 0.40671 0.72981 0.0
C577 C 0.70614 0.38222 0.71646 0.0
O578 O 0.66832 0.42406 0.59668 0.0
O579 O 0.62686 0.44172 0.65933 0.0
O580 O 0.58812 0.38936 0.67941 0.0
O581 O 0.69666 0.36759 0.52812 0.0
O582 O 0.65497 0.33577 0.52077 0.0
O583 O 0.60799 0.38637 0.57792 0.0
C584 C 0.62526 0.42027 0.90933 0.0
C585 C 0.64779 0.39575 0.92508 0.0
C586 C 0.61829 0.43251 1.02054 0.0
C587 C 0.65532 0.38944 0.98829 0.0
C588 C 0.61078 0.43876 0.95733 0.0
C589 C 0.64042 0.40754 0.03691 0.0
C590 C 0.6159 0.4259 0.84329 0.0
C591 C 0.64755 0.44678 0.61331 0.0
H592 H 0.64372 0.39743 0.44837 0.0
H593 H 0.69842 0.33465 0.27839 0.0
H594 H 0.63502 0.41332 0.33829 0.0
H595 H 0.70732 0.31928 0.38884 0.0
H596 H 0.65917 0.38117 0.8885 0.0
H597 H 0.60675 0.44727 0.05661 0.0
H598 H 0.67218 0.36982 0.9991 0.0
H599 H 0.59339 0.45785 0.94596 0.0
Eu600 Eu 0.37366 0.86946 0.47084 0.0
Eu601 Eu 0.39976 0.90178 0.33754 0.0
C602 C 0.44891 0.8884 0.45299 0.0
C603 C 0.35681 0.85695 0.64475 0.0
C604 C 0.37744 0.88322 0.65988 0.0
C605 C 0.34596 0.84887 0.75621 0.0
C606 C 0.38251 0.89211 0.72282 0.0
C607 C 0.34098 0.83995 0.69317 0.0
C608 C 0.36699 0.87492 0.77184 0.0
C609 C 0.35225 0.84695 0.57869 0.0
O610 O 0.39032 0.8475 0.31797 0.0
O611 O 0.39905 0.82923 0.41869 0.0
C612 C 0.3976 0.82386 0.35791 0.0
O613 O 0.33532 0.85957 0.39594 0.0
O614 O 0.4315 0.90136 0.25562 0.0
O615 O 0.39497 0.93928 0.26414 0.0
O616 O 0.34589 0.90665 0.34149 0.0
C617 C 0.32653 0.88219 0.35494 0.0
O618 O 0.36442 0.92396 0.47467 0.0
O619 O 0.4058 0.94164 0.41187 0.0
O620 O 0.44458 0.88924 0.3917 0.0
O621 O 0.33617 0.86747 0.54322 0.0
O622 O 0.37787 0.83561 0.55036 0.0
O623 O 0.42478 0.8863 0.49324 0.0
C624 C 0.40742 0.92018 0.16189 0.0
C625 C 0.3846 0.89596 0.14618 0.0
C626 C 0.41479 0.93206 0.05064 0.0
C627 C 0.37712 0.88961 0.08296 0.0
C628 C 0.42225 0.93835 0.11385 0.0
C629 C 0.39236 0.90737 1.03431 0.0
C630 C 0.41675 0.92581 0.22794 0.0
C631 C 0.38515 0.94669 0.45796 0.0
H632 H 0.38976 0.89673 0.62297 0.0
H633 H 0.33389 0.83491 0.79275 0.0
H634 H 0.39848 0.91257 0.73307 0.0
H635 H 0.325 0.81957 0.68228 0.0
H636 H 0.37297 0.88162 0.18279 0.0
H637 H 0.4266 0.94656 1.01454 0.0
H638 H 0.36002 0.87021 0.07218 0.0
H639 H 0.43987 0.9572 0.12519 0.0
C640 C 0.12799 0.61829 0.71159 0.0
C641 C 0.15936 0.62648 0.73179 0.0
H642 H 0.09729 0.60501 0.63445 0.0
C643 C 0.18453 0.62651 0.68728 0.0
H644 H 0.10793 0.61857 0.74433 0.0
C645 C 0.17844 0.61863 0.6241 0.0
C646 C 0.14701 0.61058 0.60387 0.0
H647 H 0.20906 0.63226 0.70139 0.0
H648 H 0.19845 0.61852 0.59124 0.0
C649 C 0.12189 0.61047 0.64849 0.0
C650 C 0.62205 0.89966 0.92197 0.0
C651 C 0.64717 0.89981 0.96672 0.0
H652 H 0.60815 0.89141 0.82607 0.0
C653 C 0.67868 0.89207 0.94664 0.0
H654 H 0.5974 0.90488 0.93588 0.0
C655 C 0.68484 0.88425 0.8835 0.0
C656 C 0.65967 0.88403 0.83885 0.0
H657 H 0.69869 0.89239 0.9796 0.0
H658 H 0.70943 0.87875 0.8695 0.0
C659 C 0.62821 0.8919 0.85891 0.0
C660 C 0.40465 0.39155 0.21161 0.0
C661 C 0.37315 0.38398 0.23182 0.0
H662 H 0.43546 0.40432 0.13452 0.0
C663 C 0.34791 0.38453 0.18732 0.0
H664 H 0.42475 0.39081 0.24433 0.0
C665 C 0.35405 0.39238 0.12418 0.0
C666 C 0.38559 0.39982 0.10395 0.0
H667 H 0.3233 0.37927 0.20144 0.0
H668 H 0.334 0.39295 0.09134 0.0
C669 C 0.41079 0.39934 0.14855 0.0
C670 C 0.91101 0.11122 0.42224 0.0
C671 C 0.88578 0.11059 0.46662 0.0
H672 H 0.92501 0.11987 0.32661 0.0
C673 C 0.85422 0.11792 0.44614 0.0
H674 H 0.93569 0.10632 0.43648 0.0
C675 C 0.84809 0.12579 0.38297 0.0
C676 C 0.87337 0.12647 0.33869 0.0
H677 H 0.83413 0.11723 0.4788 0.0
H678 H 0.82347 0.13096 0.36865 0.0
C679 C 0.90488 0.11902 0.35915 0.0
C680 C 0.18503 0.38429 0.38321 0.0
C681 C 0.15986 0.38405 0.33855 0.0
H682 H 0.19884 0.39243 0.47933 0.0
C683 C 0.1284 0.39189 0.35858 0.0
H684 H 0.20962 0.37882 0.36924 0.0
C685 C 0.12221 0.39963 0.42164 0.0
C686 C 0.14732 0.3998 0.46641 0.0
H687 H 0.10834 0.39139 0.32572 0.0
H688 H 0.09755 0.40483 0.43554 0.0
C689 C 0.17884 0.39209 0.44635 0.0
C690 C 0.84781 0.8853 0.68772 0.0
C691 C 0.87312 0.88399 0.732 0.0
H692 H 0.83391 0.89428 0.59191 0.0
C693 C 0.90476 0.89071 0.71158 0.0
H694 H 0.8231 0.88069 0.70201 0.0
C695 C 0.91097 0.89844 0.64852 0.0
C696 C 0.8857 0.89971 0.60415 0.0
H697 H 0.92491 0.88937 0.74413 0.0
H698 H 0.93574 0.90278 0.63432 0.0
C699 C 0.85402 0.89309 0.62458 0.0
C700 C 0.37726 0.59429 0.85771 0.0
C701 C 0.37077 0.62696 0.83941 0.0
H702 H 0.38814 0.56109 0.93334 0.0
C703 C 0.37023 0.65158 0.88608 0.0
H704 H 0.37736 0.5746 0.82326 0.0
C705 C 0.37633 0.64381 0.94923 0.0
C706 C 0.3832 0.61122 0.96741 0.0
H707 H 0.36585 0.67708 0.87367 0.0
H708 H 0.37647 0.66355 0.9836 0.0
C709 C 0.38343 0.58653 0.92088 0.0
C710 C 0.62195 0.11049 0.1489 0.0
C711 C 0.64709 0.11046 0.10431 0.0
H712 H 0.608 0.11869 0.24471 0.0
C713 C 0.67855 0.11835 0.12458 0.0
H714 H 0.59733 0.10516 0.13484 0.0
C715 C 0.68466 0.12621 0.18775 0.0
C716 C 0.65947 0.12632 0.23224 0.0
H717 H 0.69856 0.11812 0.09174 0.0
H718 H 0.70921 0.13183 0.20189 0.0
C719 C 0.62807 0.11829 0.212 0.0
C720 C 0.90486 0.39167 0.35909 0.0
C721 C 0.87343 0.38383 0.33876 0.0
H722 H 0.93561 0.40467 0.43631 0.0
C723 C 0.8482 0.38414 0.38316 0.0
H724 H 0.92496 0.39112 0.32644 0.0
C725 C 0.85431 0.392 0.44634 0.0
C726 C 0.8858 0.39971 0.46669 0.0
H727 H 0.82363 0.37866 0.36896 0.0
H728 H 0.83426 0.39239 0.47911 0.0
C729 C 0.91097 0.39948 0.42218 0.0
C730 C 0.34783 0.12572 0.18766 0.0
C731 C 0.37305 0.12626 0.2322 0.0
H732 H 0.33398 0.11733 0.09163 0.0
C733 C 0.40457 0.11872 0.21204 0.0
H734 H 0.32321 0.13096 0.20173 0.0
C735 C 0.41075 0.11097 0.14898 0.0
C736 C 0.38558 0.11049 0.10434 0.0
H737 H 0.42466 0.11946 0.2448 0.0
H738 H 0.43544 0.10601 0.13499 0.0
C739 C 0.35402 0.11791 0.12451 0.0
C740 C 0.62203 0.61062 0.92202 0.0
C741 C 0.64716 0.61045 0.96675 0.0
H742 H 0.60813 0.61889 0.82612 0.0
C743 C 0.67866 0.61816 0.94666 0.0
H744 H 0.59738 0.60542 0.93593 0.0
C745 C 0.68482 0.62598 0.88352 0.0
C746 C 0.65964 0.62623 0.83889 0.0
H747 H 0.69868 0.61782 0.97962 0.0
H748 H 0.70941 0.63146 0.86952 0.0
C749 C 0.62819 0.61838 0.85895 0.0
C750 C 0.14932 0.92364 0.64978 0.0
C751 C 0.14923 0.89889 0.60334 0.0
H752 H 0.15563 0.9356 0.74733 0.0
C753 C 0.15577 0.86625 0.62162 0.0
H754 H 0.14485 0.94911 0.63724 0.0
C755 C 0.16188 0.85848 0.68477 0.0
C756 C 0.16166 0.88315 0.73135 0.0
H757 H 0.15539 0.84648 0.58732 0.0
H758 H 0.16601 0.83295 0.69725 0.0
C759 C 0.15548 0.91588 0.71295 0.0
C760 C 0.90477 0.61961 0.71163 0.0
C761 C 0.87312 0.62629 0.73207 0.0
H762 H 0.93576 0.60758 0.63435 0.0
C763 C 0.8478 0.62493 0.68781 0.0
H764 H 0.92493 0.62099 0.74416 0.0
C765 C 0.85402 0.61714 0.62466 0.0
C766 C 0.88571 0.61056 0.60421 0.0
H767 H 0.82309 0.62951 0.70211 0.0
H768 H 0.83391 0.61591 0.59201 0.0
C769 C 0.91099 0.61188 0.64857 0.0
C770 C 0.12213 0.11066 0.42215 0.0
C771 C 0.14729 0.11036 0.46683 0.0
H772 H 0.10819 0.11903 0.32631 0.0
C773 C 0.1788 0.11798 0.44668 0.0
H774 H 0.09747 0.10553 0.43612 0.0
C775 C 0.18495 0.12582 0.38353 0.0
C776 C 0.15974 0.12618 0.33896 0.0
H777 H 0.19884 0.11755 0.47958 0.0
H778 H 0.20954 0.13123 0.36948 0.0
C779 C 0.12828 0.11843 0.35909 0.0
C780 C 0.68482 0.38402 0.18777 0.0
C781 C 0.65965 0.38399 0.2323 0.0
H782 H 0.69869 0.39203 0.09172 0.0
C783 C 0.62825 0.39209 0.2121 0.0
H784 H 0.70936 0.37833 0.20187 0.0
C785 C 0.62212 0.39989 0.149 0.0
C786 C 0.64724 0.39984 0.10436 0.0
H787 H 0.6082 0.39176 0.24485 0.0
H788 H 0.59751 0.40529 0.13498 0.0
C789 C 0.67869 0.39187 0.12459 0.0
C790 C 0.4108 0.89917 0.92246 0.0
C791 C 0.38559 0.89961 0.96687 0.0
H792 H 0.42483 0.89065 0.82679 0.0
C793 C 0.35407 0.8921 0.94644 0.0
H794 H 0.43546 0.90421 0.93666 0.0
C795 C 0.34797 0.88422 0.88326 0.0
C796 C 0.37324 0.88372 0.83895 0.0
H797 H 0.334 0.89264 0.97913 0.0
H798 H 0.32338 0.8789 0.86898 0.0
C799 C 0.40471 0.89136 0.85937 0.0
C800 C 0.10398 0.73806 0.20574 0.0
C801 C 0.1295 0.72055 0.23356 0.0
H802 H 0.08544 0.7852 0.17927 0.0
C803 C 0.15322 0.73783 0.26767 0.0
H804 H 0.08546 0.72523 0.17916 0.0
C805 C 0.15321 0.7725 0.26774 0.0
C806 C 0.12948 0.78982 0.2337 0.0
H807 H 0.17338 0.72478 0.28868 0.0
H808 H 0.17336 0.78553 0.2888 0.0
C809 C 0.10397 0.77234 0.20581 0.0
C810 C 0.53319 0.92025 0.45454 0.0
C811 C 0.55038 0.8924 0.47476 0.0
H812 H 0.48681 0.9409 0.4337 0.0
C813 C 0.53345 0.86569 0.50087 0.0
H814 H 0.5458 0.94094 0.4336 0.0
C815 C 0.49947 0.86567 0.50092 0.0
C816 C 0.48242 0.89236 0.47487 0.0
H817 H 0.54629 0.84371 0.5155 0.0
H818 H 0.4867 0.84366 0.51558 0.0
C819 C 0.49951 0.92023 0.45461 0.0
C820 C 0.37927 0.27247 0.76759 0.0
C821 C 0.40299 0.28973 0.73354 0.0
H822 H 0.35909 0.2248 0.78865 0.0
C823 C 0.42846 0.2722 0.70578 0.0
H824 H 0.35914 0.28556 0.78856 0.0
C825 C 0.42843 0.23791 0.70583 0.0
C826 C 0.40292 0.22046 0.73365 0.0
H827 H 0.44698 0.285 0.67924 0.0
H828 H 0.44693 0.22503 0.67932 0.0
C829 C 0.37924 0.23781 0.76764 0.0
C830 C 0.99962 0.09002 0.95467 0.0
C831 C 0.98249 0.1179 0.97481 0.0
H832 H 0.04595 0.06933 0.93379 0.0
C833 C 0.99948 0.14464 1.00077 0.0
H834 H 0.98696 0.06932 0.93383 0.0
C835 C 0.03346 0.14464 1.00075 0.0
C836 C 0.05044 0.11792 0.97476 0.0
H837 H 0.98668 0.16665 1.01532 0.0
H838 H 0.04626 0.16666 1.0153 0.0
C839 C 0.0333 0.09003 0.95465 0.0
C840 C 0.15356 0.27243 0.80315 0.0
C841 C 0.12988 0.28976 0.83717 0.0
H842 H 0.17366 0.22469 0.7822 0.0
C843 C 0.10438 0.27231 0.86502 0.0
H844 H 0.1737 0.28544 0.78212 0.0
C845 C 0.10436 0.23803 0.86506 0.0
C846 C 0.12983 0.2205 0.83726 0.0
H847 H 0.08589 0.28519 0.89154 0.0
H848 H 0.08585 0.22521 0.89162 0.0
C849 C 0.15353 0.23776 0.80319 0.0
C850 C 0.03312 0.86559 0.07035 0.0
C851 C 0.05008 0.89243 0.09599 0.0
H852 H 0.98637 0.84347 0.05603 0.0
C853 C 0.03291 0.92037 0.11572 0.0
H854 H 0.04595 0.84354 0.05614 0.0
C855 C 0.99923 0.92034 0.11565 0.0
C856 C 0.98212 0.89236 0.09586 0.0
H857 H 0.04554 0.94116 0.13634 0.0
H858 H 0.98655 0.9411 0.13622 0.0
C859 C 0.99914 0.86556 0.07029 0.0
C860 C 0.37926 0.73773 0.30304 0.0
C861 C 0.40299 0.72041 0.33707 0.0
H862 H 0.35908 0.78545 0.2821 0.0
C863 C 0.4285 0.73788 0.36496 0.0
H864 H 0.35911 0.7247 0.28198 0.0
C865 C 0.4285 0.77217 0.36502 0.0
C866 C 0.40297 0.78968 0.3372 0.0
H867 H 0.44704 0.72502 0.39149 0.0
H868 H 0.44702 0.785 0.3916 0.0
C869 C 0.37925 0.7724 0.30311 0.0
C870 C 0.53315 0.14459 0.57023 0.0
C871 C 0.55018 0.11787 0.59617 0.0
H872 H 0.48634 0.16659 0.55572 0.0
C873 C 0.53308 0.08997 0.61628 0.0
H874 H 0.54592 0.16661 0.5557 0.0
C875 C 0.49939 0.08996 0.61629 0.0
C876 C 0.48222 0.11784 0.59619 0.0
H877 H 0.54576 0.06927 0.6371 0.0
H878 H 0.48677 0.06924 0.63712 0.0
C879 C 0.49917 0.14458 0.57023 0.0
C880 C 0.92868 0.23794 0.86461 0.0
C881 C 0.90309 0.22049 0.83692 0.0
H882 H 0.94729 0.28504 0.89107 0.0
C883 C 0.87933 0.23783 0.803 0.0
H884 H 0.94723 0.22506 0.89105 0.0
C885 C 0.87936 0.27249 0.803 0.0
C886 C 0.90316 0.28975 0.83694 0.0
H887 H 0.85912 0.22481 0.7821 0.0
H888 H 0.85918 0.28557 0.78211 0.0
C889 C 0.92871 0.27223 0.86461 0.0
C890 C 0.60425 0.77229 0.36515 0.0
C891 C 0.62974 0.78977 0.33732 0.0
H892 H 0.58574 0.72518 0.39169 0.0
C893 C 0.65343 0.77245 0.3033 0.0
H894 H 0.58575 0.78515 0.39167 0.0
C895 C 0.65343 0.73778 0.30331 0.0
C896 C 0.62973 0.7205 0.33735 0.0
H897 H 0.67357 0.78548 0.28229 0.0
H898 H 0.67356 0.72473 0.2823 0.0
C899 C 0.60424 0.73801 0.36515 0.0
C900 C 0.92827 0.73797 0.20523 0.0
C901 C 0.90285 0.7205 0.23329 0.0
H902 H 0.94672 0.78509 0.17852 0.0
C903 C 0.87924 0.73781 0.26752 0.0
H904 H 0.94671 0.72512 0.17856 0.0
C905 C 0.87924 0.77248 0.26751 0.0
C906 C 0.90285 0.78976 0.23325 0.0
H907 H 0.85916 0.72478 0.28873 0.0
H908 H 0.85916 0.78553 0.2887 0.0
C909 C 0.92827 0.77226 0.20521 0.0
C910 C 0.60412 0.23803 0.70621 0.0
C911 C 0.62965 0.22051 0.73396 0.0
H912 H 0.58562 0.28519 0.6797 0.0
C913 C 0.65343 0.23778 0.76793 0.0
H914 H 0.58556 0.22522 0.67972 0.0
C915 C 0.65347 0.27244 0.76793 0.0
C916 C 0.62972 0.28977 0.73394 0.0
H917 H 0.6736 0.22471 0.78887 0.0
H918 H 0.67366 0.28546 0.78887 0.0
C919 C 0.60415 0.27232 0.70621 0.0
C920 C 0.99973 0.42027 0.95461 0.0
C921 C 0.98264 0.39238 0.97477 0.0
H922 H 0.04603 0.44099 0.93366 0.0
C923 C 0.99968 0.36565 1.00069 0.0
H924 H 0.98704 0.44097 0.9338 0.0
C925 C 0.03366 0.36567 1.00061 0.0
C926 C 0.0506 0.3924 0.9746 0.0
H927 H 0.98691 0.34364 1.01525 0.0
H928 H 0.04649 0.34366 1.01512 0.0
C929 C 0.03342 0.42028 0.95453 0.0
C930 C 0.49959 0.58989 0.45476 0.0
C931 C 0.48243 0.61779 0.47468 0.0
H932 H 0.54595 0.56919 0.43409 0.0
C933 C 0.4994 0.64458 0.5005 0.0
H934 H 0.48696 0.56914 0.43402 0.0
C935 C 0.53338 0.64461 0.50055 0.0
C936 C 0.55039 0.61785 0.47477 0.0
H937 H 0.48658 0.66661 0.51487 0.0
H938 H 0.54616 0.66666 0.51496 0.0
C939 C 0.53328 0.58991 0.4548 0.0
C940 C 0.49937 0.36563 0.57009 0.0
C941 C 0.48238 0.39235 0.59607 0.0
H942 H 0.54616 0.34364 0.55557 0.0
C943 C 0.4995 0.42023 0.61623 0.0
H944 H 0.48658 0.34362 0.55551 0.0
C945 C 0.53319 0.42025 0.61625 0.0
C946 C 0.55034 0.39238 0.59612 0.0
H947 H 0.48684 0.44093 0.63707 0.0
H948 H 0.54583 0.44096 0.63712 0.0
C949 C 0.53335 0.36565 0.57011 0.0
C950 C 0.03307 0.64463 0.06992 0.0
C951 C 0.0501 0.61789 0.0958 0.0
H952 H 0.98626 0.66665 0.0555 0.0
C953 C 0.033 0.58999 0.11589 0.0
H954 H 0.04584 0.66666 0.05541 0.0
C955 C 0.99931 0.58999 0.11594 0.0
C956 C 0.98214 0.61788 0.0959 0.0
H957 H 0.04569 0.56928 0.13668 0.0
H958 H 0.9867 0.56927 0.13677 0.0
C959 C 0.99909 0.64463 0.06997 0.0
C960 C 0.17612 0.51907 0.05474 0.0
C961 C 0.14688 0.53276 0.0757 0.0
H962 H 0.19911 0.48102 1.00108 0.0
C963 C 0.11757 0.51873 0.05554 0.0
H964 H 0.19902 0.52964 0.06913 0.0
C965 C 0.11763 0.49159 1.01443 0.0
C966 C 0.14699 0.47767 0.99436 0.0
H967 H 0.09472 0.52924 0.07022 0.0
H968 H 0.09481 0.48098 0.99968 0.0
C969 C 0.17617 0.49149 1.01541 0.0
C970 C 0.75208 0.85118 0.30368 0.0
C971 C 0.73762 0.8811 0.32182 0.0
H972 H 0.79136 0.82794 0.25386 0.0
C973 C 0.75216 0.91083 0.30345 0.0
H974 H 0.74109 0.82791 0.3165 0.0
C975 C 0.78061 0.91085 0.26841 0.0
C976 C 0.79504 0.88115 0.24948 0.0
H977 H 0.74155 0.93428 0.31644 0.0
H978 H 0.79129 0.93432 0.25583 0.0
C979 C 0.78047 0.8512 0.26711 0.0
C980 C 0.35667 0.49117 0.55428 0.0
C981 C 0.38586 0.4775 0.57566 0.0
H982 H 0.33378 0.52915 0.50018 0.0
C983 C 0.41521 0.49148 0.55574 0.0
H984 H 0.33374 0.48065 0.56848 0.0
C985 C 0.41524 0.51856 0.51449 0.0
C986 C 0.38592 0.53247 0.49403 0.0
H987 H 0.43804 0.48097 0.57074 0.0
H988 H 0.43808 0.52915 0.49996 0.0
C989 C 0.35669 0.51869 0.5148 0.0
C990 C 0.78061 0.09958 0.80292 0.0
C991 C 0.79512 0.1293 0.82153 0.0
H992 H 0.74144 0.0761 0.75517 0.0
C993 C 0.78055 0.15923 0.80368 0.0
H994 H 0.79129 0.07611 0.81569 0.0
C995 C 0.75209 0.15922 0.76717 0.0
C996 C 0.73756 0.12928 0.74932 0.0
H997 H 0.79151 0.1825 0.81669 0.0
H998 H 0.74111 0.18248 0.75415 0.0
C999 C 0.7521 0.09957 0.76794 0.0
C1000 C 0.8566 0.5187 0.05543 0.0
C1001 C 0.88579 0.53254 0.0764 0.0
H1002 H 0.83374 0.48057 1.00171 0.0
C1003 C 0.91515 0.51867 0.05618 0.0
H1004 H 0.83366 0.52913 0.06986 0.0
C1005 C 0.91519 0.49156 1.01501 0.0
C1006 C 0.88588 0.4775 0.99493 0.0
H1007 H 0.93797 0.52931 0.07086 0.0
H1008 H 0.93805 0.48108 1.00022 0.0
C1009 C 0.85665 0.49114 1.01604 0.0
C1010 C 0.25217 0.09945 0.80328 0.0
C1011 C 0.23766 0.12917 0.82188 0.0
H1012 H 0.29126 0.07598 0.75546 0.0
C1013 C 0.25215 0.15911 0.80391 0.0
H1014 H 0.24155 0.07599 0.81613 0.0
C1015 C 0.28053 0.1591 0.76731 0.0
C1016 C 0.29506 0.12916 0.74948 0.0
H1017 H 0.24119 0.18237 0.8169 0.0
H1018 H 0.29145 0.18236 0.75421 0.0
C1019 C 0.28061 0.09945 0.76821 0.0
C1020 C 0.61761 0.51868 0.51489 0.0
C1021 C 0.64694 0.53262 0.49477 0.0
H1022 H 0.59478 0.48103 0.57076 0.0
C1023 C 0.67615 0.51883 0.5158 0.0
H1024 H 0.59477 0.52927 0.50015 0.0
C1025 C 0.67615 0.49126 0.55517 0.0
C1026 C 0.64695 0.47756 0.57618 0.0
H1027 H 0.69908 0.52931 0.50144 0.0
H1028 H 0.69908 0.48073 0.56955 0.0
C1029 C 0.61761 0.49156 0.55603 0.0
C1030 C 0.2803 0.91073 0.30398 0.0
C1031 C 0.29493 0.88099 0.32213 0.0
H1032 H 0.24102 0.93426 0.25663 0.0
C1033 C 0.28046 0.85108 0.30392 0.0
H1034 H 0.29091 0.93417 0.31703 0.0
C1035 C 0.25198 0.85113 0.26747 0.0
C1036 C 0.23732 0.88109 0.25004 0.0
H1037 H 0.29151 0.82779 0.31658 0.0
H1038 H 0.24108 0.82788 0.25414 0.0
C1039 C 0.25176 0.91078 0.26906 0.0
C1040 C 0.61754 0.99158 0.51486 0.0
C1041 C 0.64688 0.97765 0.49474 0.0
H1042 H 0.59468 0.02924 0.57072 0.0
C1043 C 0.67608 0.99143 0.51575 0.0
H1044 H 0.59471 0.98099 0.50013 0.0
C1045 C 0.67607 0.01901 0.55511 0.0
C1046 C 0.64685 0.03272 0.57613 0.0
H1047 H 0.69901 0.98095 0.50139 0.0
H1048 H 0.69899 0.02954 0.56948 0.0
C1049 C 0.61753 0.01871 0.55599 0.0
C1050 C 0.25228 0.35113 0.80348 0.0
C1051 C 0.23774 0.38107 0.82126 0.0
H1052 H 0.29164 0.32784 0.75394 0.0
C1053 C 0.25219 0.41078 0.80248 0.0
H1054 H 0.24137 0.32787 0.81662 0.0
C1055 C 0.28062 0.41077 0.7674 0.0
C1056 C 0.29514 0.38104 0.74886 0.0
H1057 H 0.24152 0.43425 0.81518 0.0
H1058 H 0.29124 0.43423 0.75452 0.0
C1059 C 0.28066 0.35112 0.76688 0.0
C1060 C 0.85654 0.99155 0.0553 0.0
C1061 C 0.88573 0.97772 0.07631 0.0
H1062 H 0.83366 0.02967 1.00152 0.0
C1063 C 0.91508 0.99159 0.05613 0.0
H1064 H 0.8336 0.98112 0.0697 0.0
C1065 C 0.91511 0.0187 1.01495 0.0
C1066 C 0.8858 0.03275 0.99482 0.0
H1067 H 0.93791 0.98096 0.07085 0.0
H1068 H 0.93797 0.02918 1.00018 0.0
C1069 C 0.85657 0.0191 1.01589 0.0
C1070 C 0.25224 0.59951 0.26661 0.0
C1071 C 0.23758 0.62927 0.24857 0.0
H1072 H 0.29153 0.57596 0.31388 0.0
C1073 C 0.25203 0.65917 0.26689 0.0
H1074 H 0.24164 0.57608 0.25346 0.0
C1075 C 0.28051 0.6591 0.30335 0.0
C1076 C 0.29518 0.62913 0.32067 0.0
H1077 H 0.24096 0.68245 0.25432 0.0
H1078 H 0.29139 0.68234 0.31678 0.0
C1079 C 0.28077 0.59945 0.30153 0.0
C1080 C 0.35653 0.99118 0.51612 0.0
C1081 C 0.38574 0.97747 0.49506 0.0
H1082 H 0.3336 0.02924 0.56986 0.0
C1083 C 0.41507 0.99149 0.51513 0.0
H1084 H 0.33361 0.98063 0.5018 0.0
C1085 C 0.41507 0.01863 0.55625 0.0
C1086 C 0.38573 0.03256 0.57642 0.0
H1087 H 0.43791 0.98097 0.50037 0.0
H1088 H 0.4379 0.02923 0.57092 0.0
C1089 C 0.35653 0.01876 0.55546 0.0
C1090 C 0.78045 0.65906 0.26717 0.0
C1091 C 0.79504 0.62912 0.24953 0.0
H1092 H 0.74105 0.68236 0.31656 0.0
C1093 C 0.78063 0.59941 0.26844 0.0
H1094 H 0.79133 0.68232 0.25393 0.0
C1095 C 0.75218 0.59943 0.30347 0.0
C1096 C 0.73762 0.62916 0.32185 0.0
H1097 H 0.79133 0.57595 0.25585 0.0
H1098 H 0.74158 0.57598 0.31644 0.0
C1099 C 0.75206 0.65909 0.30374 0.0
C1100 C 0.11748 0.01877 1.01496 0.0
C1101 C 0.14685 0.03274 0.99516 0.0
H1102 H 0.09454 0.9811 0.07064 0.0
C1103 C 0.17602 0.01905 1.01665 0.0
H1104 H 0.09467 0.02928 0.99988 0.0
C1105 C 0.17594 0.99152 0.05612 0.0
C1106 C 0.14669 0.97776 0.07677 0.0
H1107 H 0.19897 0.02956 1.00254 0.0
H1108 H 0.19884 0.98105 0.07082 0.0
C1109 C 0.1174 0.99168 0.0562 0.0
C1110 C 0.75226 0.35104 0.76726 0.0
C1111 C 0.73769 0.38097 0.74947 0.0
H1112 H 0.79171 0.32776 0.81674 0.0
C1113 C 0.75218 0.41069 0.76816 0.0
H1114 H 0.74131 0.32777 0.75418 0.0
C1115 C 0.7807 0.41068 0.80315 0.0
C1116 C 0.79524 0.38096 0.8217 0.0
H1117 H 0.7415 0.43415 0.75543 0.0
H1118 H 0.79134 0.43414 0.81597 0.0
C1119 C 0.78072 0.35103 0.80378 0.0
loop_
_geom_bond_atom_site_label_1
_geom_bond_atom_site_label_2
_geom_bond_distance
_geom_bond_site_symmetry_2
_ccdc_geom_bond_type
Eu0 C9 2.828 . S
Eu0 O11 2.392 . S
Eu0 O13 2.418 . S
Eu0 O18 2.373 . S
Eu0 O21 2.488 . S
Eu0 O22 2.471 . S
Eu0 O23 2.349 . S
Eu1 O10 2.373 . S
Eu1 O14 2.488 . S
Eu1 O15 2.471 . S
Eu1 O16 2.349 . S
Eu1 O19 2.392 . S
Eu1 O20 2.418 . S
Eu1 C30 2.828 1_554 S
C2 O20 1.244 . S
C2 O23 1.265 . S
C3 C4 1.379 . S
C3 C7 1.373 . S
C3 C9 1.505 . S
C4 C3 1.379 . S
C4 C6 1.369 . S
C4 H32 0.930 . S
C5 C7 1.383 . S
C5 C8 1.382 . S
C5 H33 0.930 . S
C6 C4 1.369 . S
C6 C8 1.392 . S
C6 H34 0.930 . S
C7 C3 1.373 . S
C7 C5 1.383 . S
C7 H35 0.931 . S
C8 C5 1.382 . S
C8 C6 1.392 . S
C9 Eu0 2.828 . S
C9 C3 1.505 . S
C9 O21 1.249 . S
C9 O22 1.244 . S
O10 Eu1 2.373 . S
O10 C12 1.258 . S
O11 Eu0 2.392 . S
O11 C12 1.242 . S
C12 O10 1.258 . S
C12 O11 1.242 . S
O13 Eu0 2.418 . S
O13 C17 1.244 . S
O14 Eu1 2.488 . S
O14 C30 1.249 1_554 S
O15 Eu1 2.471 . S
O15 C30 1.244 1_554 S
O16 Eu1 2.349 . S
O16 C17 1.265 . S
C17 O13 1.244 . S
C17 O16 1.265 . S
O18 Eu0 2.373 . S
O18 C31 1.258 . S
O19 Eu1 2.392 . S
O19 C31 1.242 . S
O20 Eu1 2.418 . S
O20 C2 1.244 . S
O21 Eu0 2.488 . S
O21 C9 1.249 . S
O22 Eu0 2.471 . S
O22 C9 1.244 . S
O23 Eu0 2.349 . S
O23 C2 1.265 . S
C24 C25 1.379 . S
C24 C28 1.373 . S
C24 C30 1.505 . S
C25 C24 1.379 . S
C25 C27 1.369 . S
C25 H36 0.930 . S
C26 C28 1.383 . S
C26 C29 1.382 . S
C26 H37 0.930 . S
C27 C25 1.369 . S
C27 C29 1.392 . S
C27 H38 0.930 . S
C28 C24 1.373 . S
C28 C26 1.383 . S
C28 H39 0.931 . S
C29 C26 1.382 . S
C29 C27 1.392 . S
C30 Eu1 2.828 1_556 S
C30 O14 1.249 1_556 S
C30 O15 1.244 1_556 S
C30 C24 1.505 . S
C31 O18 1.258 . S
C31 O19 1.242 . S
H32 C4 0.930 . S
H33 C5 0.930 . S
H34 C6 0.930 . S
H35 C7 0.931 . S
H36 C25 0.930 . S
H37 C26 0.930 . S
H38 C27 0.930 . S
H39 C28 0.931 . S
Eu40 C49 2.828 . S
Eu40 O51 2.392 . S
Eu40 O53 2.418 . S
Eu40 O58 2.373 . S
Eu40 O61 2.488 . S
Eu40 O62 2.471 . S
Eu40 O63 2.349 . S
Eu41 O50 2.373 . S
Eu41 O54 2.488 . S
Eu41 O55 2.471 . S
Eu41 O56 2.349 . S
Eu41 O59 2.392 . S
Eu41 O60 2.418 . S
Eu41 C70 2.828 . S
C42 O60 1.244 . S
C42 O63 1.265 . S
C43 C44 1.379 . S
C43 C47 1.373 . S
C43 C49 1.505 . S
C44 C43 1.379 . S
C44 C46 1.369 1_554 S
C44 H72 0.930 . S
C45 C47 1.383 1_556 S
C45 C48 1.382 . S
C45 H73 0.930 . S
C46 C44 1.369 1_556 S
C46 C48 1.392 . S
C46 H74 0.930 . S
C47 C43 1.373 . S
C47 C45 1.383 1_554 S
C47 H75 0.931 . S
C48 C45 1.382 . S
C48 C46 1.392 . S
C49 Eu40 2.828 . S
C49 C43 1.505 . S
C49 O61 1.249 . S
C49 O62 1.244 . S
O50 Eu41 2.373 . S
O50 C52 1.258 . S
O51 Eu40 2.392 . S
O51 C52 1.242 . S
C52 O50 1.258 . S
C52 O51 1.242 . S
O53 Eu40 2.418 . S
O53 C57 1.244 . S
O54 Eu41 2.488 . S
O54 C70 1.249 . S
O55 Eu41 2.471 . S
O55 C70 1.244 . S
O56 Eu41 2.349 . S
O56 C57 1.265 . S
C57 O53 1.244 . S
C57 O56 1.265 . S
O58 Eu40 2.373 . S
O58 C71 1.258 . S
O59 Eu41 2.392 . S
O59 C71 1.242 . S
O60 Eu41 2.418 . S
O60 C42 1.244 . S
O61 Eu40 2.488 . S
O61 C49 1.249 . S
O62 Eu40 2.471 . S
O62 C49 1.244 . S
O63 Eu40 2.349 . S
O63 C42 1.265 . S
C64 C65 1.379 . S
C64 C68 1.373 . S
C64 C70 1.505 . S
C65 C64 1.379 . S
C65 C67 1.369 . S
C65 H76 0.930 . S
C66 C68 1.383 . S
C66 C69 1.382 . S
C66 H77 0.930 . S
C67 C65 1.369 . S
C67 C69 1.392 . S
C67 H78 0.930 . S
C68 C64 1.373 . S
C68 C66 1.383 . S
C68 H79 0.931 . S
C69 C66 1.382 . S
C69 C67 1.392 . S
C70 Eu41 2.828 . S
C70 O54 1.249 . S
C70 O55 1.244 . S
C70 C64 1.505 . S
C71 O58 1.258 . S
C71 O59 1.242 . S
H72 C44 0.930 . S
H73 C45 0.930 . S
H74 C46 0.930 . S
H75 C47 0.931 . S
H76 C65 0.930 . S
H77 C66 0.930 . S
H78 C67 0.930 . S
H79 C68 0.931 . S
Eu80 C89 2.828 . S
Eu80 O91 2.392 . S
Eu80 O93 2.418 . S
Eu80 O98 2.373 . S
Eu80 O101 2.488 . S
Eu80 O102 2.471 . S
Eu80 O103 2.349 . S
Eu81 O90 2.373 . S
Eu81 O94 2.488 . S
Eu81 O95 2.471 . S
Eu81 O96 2.349 . S
Eu81 O99 2.392 . S
Eu81 O100 2.418 . S
Eu81 C110 2.828 . S
C82 O100 1.244 . S
C82 O103 1.265 . S
C83 C84 1.379 . S
C83 C87 1.373 . S
C83 C89 1.505 . S
C84 C83 1.379 . S
C84 C86 1.369 1_556 S
C84 H112 0.930 . S
C85 C87 1.383 1_554 S
C85 C88 1.382 . S
C85 H113 0.930 . S
C86 C84 1.369 1_554 S
C86 C88 1.392 . S
C86 H114 0.930 . S
C87 C83 1.373 . S
C87 C85 1.383 1_556 S
C87 H115 0.931 . S
C88 C85 1.382 . S
C88 C86 1.392 . S
C89 Eu80 2.828 . S
C89 C83 1.505 . S
C89 O101 1.249 . S
C89 O102 1.244 . S
O90 Eu81 2.373 . S
O90 C92 1.258 . S
O91 Eu80 2.392 . S
O91 C92 1.242 . S
C92 O90 1.258 . S
C92 O91 1.242 . S
O93 Eu80 2.418 . S
O93 C97 1.244 . S
O94 Eu81 2.488 . S
O94 C110 1.249 . S
O95 Eu81 2.471 . S
O95 C110 1.244 . S
O96 Eu81 2.349 . S
O96 C97 1.265 . S
C97 O93 1.244 . S
C97 O96 1.265 . S
O98 Eu80 2.373 . S
O98 C111 1.258 . S
O99 Eu81 2.392 . S
O99 C111 1.242 . S
O100 Eu81 2.418 . S
O100 C82 1.244 . S
O101 Eu80 2.488 . S
O101 C89 1.249 . S
O102 Eu80 2.471 . S
O102 C89 1.244 . S
O103 Eu80 2.349 . S
O103 C82 1.265 . S
C104 C105 1.379 . S
C104 C108 1.373 . S
C104 C110 1.505 . S
C105 C104 1.379 . S
C105 C107 1.369 . S
C105 H116 0.930 . S
C106 C108 1.383 . S
C106 C109 1.382 . S
C106 H117 0.930 . S
C107 C105 1.369 . S
C107 C109 1.392 . S
C107 H118 0.930 . S
C108 C104 1.373 . S
C108 C106 1.383 . S
C108 H119 0.931 . S
C109 C106 1.382 . S
C109 C107 1.392 . S
C110 Eu81 2.828 . S
C110 O94 1.249 . S
C110 O95 1.244 . S
C110 C104 1.505 . S
C111 O98 1.258 . S
C111 O99 1.242 . S
H112 C84 0.930 . S
H113 C85 0.930 . S
H114 C86 0.930 . S
H115 C87 0.931 . S
H116 C105 0.930 . S
H117 C106 0.930 . S
H118 C107 0.930 . S
H119 C108 0.931 . S
Eu120 C129 2.828 . S
Eu120 O131 2.392 . S
Eu120 O133 2.418 . S
Eu120 O138 2.373 . S
Eu120 O141 2.488 . S
Eu120 O142 2.471 . S
Eu120 O143 2.349 . S
Eu121 O130 2.373 . S
Eu121 O134 2.488 . S
Eu121 O135 2.471 . S
Eu121 O136 2.349 . S
Eu121 O139 2.392 . S
Eu121 O140 2.418 . S
Eu121 C150 2.828 1_556 S
C122 O140 1.244 . S
C122 O143 1.265 . S
C123 C124 1.379 . S
C123 C127 1.373 . S
C123 C129 1.505 . S
C124 C123 1.379 . S
C124 C126 1.369 . S
C124 H152 0.930 . S
C125 C127 1.383 . S
C125 C128 1.382 . S
C125 H153 0.930 . S
C126 C124 1.369 . S
C126 C128 1.392 . S
C126 H154 0.930 . S
C127 C123 1.373 . S
C127 C125 1.383 . S
C127 H155 0.931 . S
C128 C125 1.382 . S
C128 C126 1.392 . S
C129 Eu120 2.828 . S
C129 C123 1.505 . S
C129 O141 1.249 . S
C129 O142 1.244 . S
O130 Eu121 2.373 . S
O130 C132 1.258 . S
O131 Eu120 2.392 . S
O131 C132 1.242 . S
C132 O130 1.258 . S
C132 O131 1.242 . S
O133 Eu120 2.418 . S
O133 C137 1.244 . S
O134 Eu121 2.488 . S
O134 C150 1.249 1_556 S
O135 Eu121 2.471 . S
O135 C150 1.244 1_556 S
O136 Eu121 2.349 . S
O136 C137 1.265 . S
C137 O133 1.244 . S
C137 O136 1.265 . S
O138 Eu120 2.373 . S
O138 C151 1.258 . S
O139 Eu121 2.392 . S
O139 C151 1.242 . S
O140 Eu121 2.418 . S
O140 C122 1.244 . S
O141 Eu120 2.488 . S
O141 C129 1.249 . S
O142 Eu120 2.471 . S
O142 C129 1.244 . S
O143 Eu120 2.349 . S
O143 C122 1.265 . S
C144 C145 1.379 . S
C144 C148 1.373 . S
C144 C150 1.505 . S
C145 C144 1.379 . S
C145 C147 1.369 . S
C145 H156 0.930 . S
C146 C148 1.383 . S
C146 C149 1.382 . S
C146 H157 0.930 . S
C147 C145 1.369 . S
C147 C149 1.392 . S
C147 H158 0.930 . S
C148 C144 1.373 . S
C148 C146 1.383 . S
C148 H159 0.931 . S
C149 C146 1.382 . S
C149 C147 1.392 . S
C150 Eu121 2.828 1_554 S
C150 O134 1.249 1_554 S
C150 O135 1.244 1_554 S
C150 C144 1.505 . S
C151 O138 1.258 . S
C151 O139 1.242 . S
H152 C124 0.930 . S
H153 C125 0.930 . S
H154 C126 0.930 . S
H155 C127 0.931 . S
H156 C145 0.930 . S
H157 C146 0.930 . S
H158 C147 0.930 . S
H159 C148 0.931 . S
Eu160 C169 2.828 . S
Eu160 O171 2.392 . S
Eu160 O173 2.418 . S
Eu160 O178 2.373 . S
Eu160 O181 2.488 . S
Eu160 O182 2.471 . S
Eu160 O183 2.349 . S
Eu161 O170 2.373 . S
Eu161 O174 2.488 . S
Eu161 O175 2.471 . S
Eu161 O176 2.349 . S
Eu161 O179 2.392 . S
Eu161 O180 2.418 . S
Eu161 C190 2.828 1_556 S
C162 O180 1.244 . S
C162 O183 1.265 . S
C163 C164 1.379 . S
C163 C167 1.373 . S
C163 C169 1.505 . S
C164 C163 1.379 . S
C164 C166 1.369 . S
C164 H192 0.930 . S
C165 C167 1.383 . S
C165 C168 1.382 . S
C165 H193 0.930 . S
C166 C164 1.369 . S
C166 C168 1.392 . S
C166 H194 0.930 . S
C167 C163 1.373 . S
C167 C165 1.383 . S
C167 H195 0.931 . S
C168 C165 1.382 . S
C168 C166 1.392 . S
C169 Eu160 2.828 . S
C169 C163 1.505 . S
C169 O181 1.249 . S
C169 O182 1.244 . S
O170 Eu161 2.373 . S
O170 C172 1.258 . S
O171 Eu160 2.392 . S
O171 C172 1.242 . S
C172 O170 1.258 . S
C172 O171 1.242 . S
O173 Eu160 2.418 . S
O173 C177 1.244 . S
O174 Eu161 2.488 . S
O174 C190 1.249 1_556 S
O175 Eu161 2.471 . S
O175 C190 1.244 1_556 S
O176 Eu161 2.349 . S
O176 C177 1.265 . S
C177 O173 1.244 . S
C177 O176 1.265 . S
O178 Eu160 2.373 . S
O178 C191 1.258 . S
O179 Eu161 2.392 . S
O179 C191 1.242 . S
O180 Eu161 2.418 . S
O180 C162 1.244 . S
O181 Eu160 2.488 . S
O181 C169 1.249 . S
O182 Eu160 2.471 . S
O182 C169 1.244 . S
O183 Eu160 2.349 . S
O183 C162 1.265 . S
C184 C185 1.379 . S
C184 C188 1.373 . S
C184 C190 1.505 . S
C185 C184 1.379 . S
C185 C187 1.369 . S
C185 H196 0.930 . S
C186 C188 1.383 . S
C186 C189 1.382 . S
C186 H197 0.930 . S
C187 C185 1.369 . S
C187 C189 1.392 . S
C187 H198 0.930 . S
C188 C184 1.373 . S
C188 C186 1.383 . S
C188 H199 0.931 . S
C189 C186 1.382 . S
C189 C187 1.392 . S
C190 Eu161 2.828 1_554 S
C190 O174 1.249 1_554 S
C190 O175 1.244 1_554 S
C190 C184 1.505 . S
C191 O178 1.258 . S
C191 O179 1.242 . S
H192 C164 0.930 . S
H193 C165 0.930 . S
H194 C166 0.930 . S
H195 C167 0.931 . S
H196 C185 0.930 . S
H197 C186 0.930 . S
H198 C187 0.930 . S
H199 C188 0.931 . S
Eu200 C209 2.828 . S
Eu200 O211 2.392 . S
Eu200 O213 2.418 . S
Eu200 O218 2.373 . S
Eu200 O221 2.488 . S
Eu200 O222 2.471 . S
Eu200 O223 2.349 . S
Eu201 O210 2.373 . S
Eu201 O214 2.488 . S
Eu201 O215 2.471 . S
Eu201 O216 2.349 . S
Eu201 O219 2.392 . S
Eu201 O220 2.418 . S
Eu201 C230 2.828 1_554 S
C202 O220 1.244 . S
C202 O223 1.265 . S
C203 C204 1.379 . S
C203 C207 1.373 . S
C203 C209 1.505 . S
C204 C203 1.379 . S
C204 C206 1.369 . S
C204 H232 0.930 . S
C205 C207 1.383 . S
C205 C208 1.382 . S
C205 H233 0.930 . S
C206 C204 1.369 . S
C206 C208 1.392 . S
C206 H234 0.930 . S
C207 C203 1.373 . S
C207 C205 1.383 . S
C207 H235 0.931 . S
C208 C205 1.382 . S
C208 C206 1.392 . S
C209 Eu200 2.828 . S
C209 C203 1.505 . S
C209 O221 1.249 . S
C209 O222 1.244 . S
O210 Eu201 2.373 . S
O210 C212 1.258 . S
O211 Eu200 2.392 . S
O211 C212 1.242 . S
C212 O210 1.258 . S
C212 O211 1.242 . S
O213 Eu200 2.418 . S
O213 C217 1.244 . S
O214 Eu201 2.488 . S
O214 C230 1.249 1_554 S
O215 Eu201 2.471 . S
O215 C230 1.244 1_554 S
O216 Eu201 2.349 . S
O216 C217 1.265 . S
C217 O213 1.244 . S
C217 O216 1.265 . S
O218 Eu200 2.373 . S
O218 C231 1.258 . S
O219 Eu201 2.392 . S
O219 C231 1.242 . S
O220 Eu201 2.418 . S
O220 C202 1.244 . S
O221 Eu200 2.488 . S
O221 C209 1.249 . S
O222 Eu200 2.471 . S
O222 C209 1.244 . S
O223 Eu200 2.349 . S
O223 C202 1.265 . S
C224 C225 1.379 . S
C224 C228 1.373 . S
C224 C230 1.505 . S
C225 C224 1.379 . S
C225 C227 1.369 . S
C225 H236 0.930 . S
C226 C228 1.383 . S
C226 C229 1.382 . S
C226 H237 0.930 . S
C227 C225 1.369 . S
C227 C229 1.392 . S
C227 H238 0.930 . S
C228 C224 1.373 . S
C228 C226 1.383 . S
C228 H239 0.931 . S
C229 C226 1.382 . S
C229 C227 1.392 . S
C230 Eu201 2.828 1_556 S
C230 O214 1.249 1_556 S
C230 O215 1.244 1_556 S
C230 C224 1.505 . S
C231 O218 1.258 . S
C231 O219 1.242 . S
H232 C204 0.930 . S
H233 C205 0.930 . S
H234 C206 0.930 . S
H235 C207 0.931 . S
H236 C225 0.930 . S
H237 C226 0.930 . S
H238 C227 0.930 . S
H239 C228 0.931 . S
Eu240 C249 2.828 . S
Eu240 O251 2.392 . S
Eu240 O253 2.418 . S
Eu240 O258 2.373 . S
Eu240 O261 2.488 . S
Eu240 O262 2.471 . S
Eu240 O263 2.349 . S
Eu241 O250 2.373 . S
Eu241 O254 2.488 . S
Eu241 O255 2.471 . S
Eu241 O256 2.349 . S
Eu241 O259 2.392 . S
Eu241 O260 2.418 . S
Eu241 C270 2.828 . S
C242 O260 1.244 . S
C242 O263 1.265 . S
C243 C244 1.379 . S
C243 C247 1.373 . S
C243 C249 1.505 . S
C244 C243 1.379 . S
C244 C246 1.369 1_554 S
C244 H272 0.930 . S
C245 C247 1.383 1_556 S
C245 C248 1.382 . S
C245 H273 0.930 . S
C246 C244 1.369 1_556 S
C246 C248 1.392 . S
C246 H274 0.930 . S
C247 C243 1.373 . S
C247 C245 1.383 1_554 S
C247 H275 0.931 . S
C248 C245 1.382 . S
C248 C246 1.392 . S
C249 Eu240 2.828 . S
C249 C243 1.505 . S
C249 O261 1.249 . S
C249 O262 1.244 . S
O250 Eu241 2.373 . S
O250 C252 1.258 . S
O251 Eu240 2.392 . S
O251 C252 1.242 . S
C252 O250 1.258 . S
C252 O251 1.242 . S
O253 Eu240 2.418 . S
O253 C257 1.244 . S
O254 Eu241 2.488 . S
O254 C270 1.249 . S
O255 Eu241 2.471 . S
O255 C270 1.244 . S
O256 Eu241 2.349 . S
O256 C257 1.265 . S
C257 O253 1.244 . S
C257 O256 1.265 . S
O258 Eu240 2.373 . S
O258 C271 1.258 . S
O259 Eu241 2.392 . S
O259 C271 1.242 . S
O260 Eu241 2.418 . S
O260 C242 1.244 . S
O261 Eu240 2.488 . S
O261 C249 1.249 . S
O262 Eu240 2.471 . S
O262 C249 1.244 . S
O263 Eu240 2.349 . S
O263 C242 1.265 . S
C264 C265 1.379 . S
C264 C268 1.373 . S
C264 C270 1.505 . S
C265 C264 1.379 . S
C265 C267 1.369 . S
C265 H276 0.930 . S
C266 C268 1.383 . S
C266 C269 1.382 . S
C266 H277 0.930 . S
C267 C265 1.369 . S
C267 C269 1.392 . S
C267 H278 0.930 . S
C268 C264 1.373 . S
C268 C266 1.383 . S
C268 H279 0.931 . S
C269 C266 1.382 . S
C269 C267 1.392 . S
C270 Eu241 2.828 . S
C270 O254 1.249 . S
C270 O255 1.244 . S
C270 C264 1.505 . S
C271 O258 1.258 . S
C271 O259 1.242 . S
H272 C244 0.930 . S
H273 C245 0.930 . S
H274 C246 0.930 . S
H275 C247 0.931 . S
H276 C265 0.930 . S
H277 C266 0.930 . S
H278 C267 0.930 . S
H279 C268 0.931 . S
Eu280 C289 2.828 . S
Eu280 O291 2.392 . S
Eu280 O293 2.418 . S
Eu280 O298 2.373 . S
Eu280 O301 2.488 . S
Eu280 O302 2.471 . S
Eu280 O303 2.349 . S
Eu281 O290 2.373 . S
Eu281 O294 2.488 . S
Eu281 O295 2.471 . S
Eu281 O296 2.349 . S
Eu281 O299 2.392 . S
Eu281 O300 2.418 . S
Eu281 C310 2.828 . S
C282 O300 1.244 . S
C282 O303 1.265 . S
C283 C284 1.379 . S
C283 C287 1.373 . S
C283 C289 1.505 . S
C284 C283 1.379 . S
C284 C286 1.369 1_556 S
C284 H312 0.930 . S
C285 C287 1.383 1_554 S
C285 C288 1.382 . S
C285 H313 0.930 . S
C286 C284 1.369 1_554 S
C286 C288 1.392 . S
C286 H314 0.930 . S
C287 C283 1.373 . S
C287 C285 1.383 1_556 S
C287 H315 0.931 . S
C288 C285 1.382 . S
C288 C286 1.392 . S
C289 Eu280 2.828 . S
C289 C283 1.505 . S
C289 O301 1.249 . S
C289 O302 1.244 . S
O290 Eu281 2.373 . S
O290 C292 1.258 . S
O291 Eu280 2.392 . S
O291 C292 1.242 . S
C292 O290 1.258 . S
C292 O291 1.242 . S
O293 Eu280 2.418 . S
O293 C297 1.244 . S
O294 Eu281 2.488 . S
O294 C310 1.249 . S
O295 Eu281 2.471 . S
O295 C310 1.244 . S
O296 Eu281 2.349 . S
O296 C297 1.265 . S
C297 O293 1.244 . S
C297 O296 1.265 . S
O298 Eu280 2.373 . S
O298 C311 1.258 . S
O299 Eu281 2.392 . S
O299 C311 1.242 . S
O300 Eu281 2.418 . S
O300 C282 1.244 . S
O301 Eu280 2.488 . S
O301 C289 1.249 . S
O302 Eu280 2.471 . S
O302 C289 1.244 . S
O303 Eu280 2.349 . S
O303 C282 1.265 . S
C304 C305 1.379 . S
C304 C308 1.373 . S
C304 C310 1.505 . S
C305 C304 1.379 . S
C305 C307 1.369 . S
C305 H316 0.930 . S
C306 C308 1.383 . S
C306 C309 1.382 . S
C306 H317 0.930 . S
C307 C305 1.369 . S
C307 C309 1.392 . S
C307 H318 0.930 . S
C308 C304 1.373 . S
C308 C306 1.383 . S
C308 H319 0.931 . S
C309 C306 1.382 . S
C309 C307 1.392 . S
C310 Eu281 2.828 . S
C310 O294 1.249 . S
C310 O295 1.244 . S
C310 C304 1.505 . S
C311 O298 1.258 . S
C311 O299 1.242 . S
H312 C284 0.930 . S
H313 C285 0.930 . S
H314 C286 0.930 . S
H315 C287 0.931 . S
H316 C305 0.930 . S
H317 C306 0.930 . S
H318 C307 0.930 . S
H319 C308 0.931 . S
Eu320 C329 2.828 1_556 S
Eu320 O331 2.392 . S
Eu320 O333 2.418 . S
Eu320 O338 2.373 . S
Eu320 O341 2.488 . S
Eu320 O342 2.471 . S
Eu320 O343 2.349 . S
Eu321 O330 2.373 . S
Eu321 O334 2.488 . S
Eu321 O335 2.471 . S
Eu321 O336 2.349 . S
Eu321 O339 2.392 . S
Eu321 O340 2.418 . S
Eu321 C350 2.828 . S
C322 O340 1.244 . S
C322 O343 1.265 . S
C323 C324 1.379 . S
C323 C327 1.373 . S
C323 C329 1.505 . S
C324 C323 1.379 . S
C324 C326 1.369 . S
C324 H352 0.930 . S
C325 C327 1.383 . S
C325 C328 1.382 . S
C325 H353 0.930 . S
C326 C324 1.369 . S
C326 C328 1.392 . S
C326 H354 0.930 . S
C327 C323 1.373 . S
C327 C325 1.383 . S
C327 H355 0.931 . S
C328 C325 1.382 . S
C328 C326 1.392 . S
C329 Eu320 2.828 1_554 S
C329 C323 1.505 . S
C329 O341 1.249 1_554 S
C329 O342 1.244 1_554 S
O330 Eu321 2.373 . S
O330 C332 1.258 . S
O331 Eu320 2.392 . S
O331 C332 1.242 . S
C332 O330 1.258 . S
C332 O331 1.242 . S
O333 Eu320 2.418 . S
O333 C337 1.244 . S
O334 Eu321 2.488 . S
O334 C350 1.249 . S
O335 Eu321 2.471 . S
O335 C350 1.244 . S
O336 Eu321 2.349 . S
O336 C337 1.265 . S
C337 O333 1.244 . S
C337 O336 1.265 . S
O338 Eu320 2.373 . S
O338 C351 1.258 . S
O339 Eu321 2.392 . S
O339 C351 1.242 . S
O340 Eu321 2.418 . S
O340 C322 1.244 . S
O341 Eu320 2.488 . S
O341 C329 1.249 1_556 S
O342 Eu320 2.471 . S
O342 C329 1.244 1_556 S
O343 Eu320 2.349 . S
O343 C322 1.265 . S
C344 C345 1.379 . S
C344 C348 1.373 . S
C344 C350 1.505 . S
C345 C344 1.379 . S
C345 C347 1.369 . S
C345 H356 0.930 . S
C346 C348 1.383 . S
C346 C349 1.382 . S
C346 H357 0.930 . S
C347 C345 1.369 . S
C347 C349 1.392 . S
C347 H358 0.930 . S
C348 C344 1.373 . S
C348 C346 1.383 . S
C348 H359 0.931 . S
C349 C346 1.382 . S
C349 C347 1.392 . S
C350 Eu321 2.828 . S
C350 O334 1.249 . S
C350 O335 1.244 . S
C350 C344 1.505 . S
C351 O338 1.258 . S
C351 O339 1.242 . S
H352 C324 0.930 . S
H353 C325 0.930 . S
H354 C326 0.930 . S
H355 C327 0.931 . S
H356 C345 0.930 . S
H357 C346 0.930 . S
H358 C347 0.930 . S
H359 C348 0.931 . S
Eu360 C369 2.828 . S
Eu360 O371 2.392 . S
Eu360 O373 2.418 . S
Eu360 O378 2.373 . S
Eu360 O381 2.488 . S
Eu360 O382 2.471 . S
Eu360 O383 2.349 . S
Eu361 O370 2.373 . S
Eu361 O374 2.488 . S
Eu361 O375 2.471 . S
Eu361 O376 2.349 . S
Eu361 O379 2.392 . S
Eu361 O380 2.418 . S
Eu361 C390 2.828 . S
C362 O380 1.244 . S
C362 O383 1.265 . S
C363 C364 1.379 . S
C363 C367 1.373 . S
C363 C369 1.505 . S
C364 C363 1.379 . S
C364 C366 1.369 . S
C364 H392 0.930 . S
C365 C367 1.383 . S
C365 C368 1.382 . S
C365 H393 0.930 . S
C366 C364 1.369 . S
C366 C368 1.392 . S
C366 H394 0.930 . S
C367 C363 1.373 . S
C367 C365 1.383 . S
C367 H395 0.931 . S
C368 C365 1.382 . S
C368 C366 1.392 . S
C369 Eu360 2.828 . S
C369 C363 1.505 . S
C369 O381 1.249 . S
C369 O382 1.244 . S
O370 Eu361 2.373 . S
O370 C372 1.258 . S
O371 Eu360 2.392 . S
O371 C372 1.242 . S
C372 O370 1.258 . S
C372 O371 1.242 . S
O373 Eu360 2.418 . S
O373 C377 1.244 . S
O374 Eu361 2.488 . S
O374 C390 1.249 . S
O375 Eu361 2.471 . S
O375 C390 1.244 . S
O376 Eu361 2.349 . S
O376 C377 1.265 . S
C377 O373 1.244 . S
C377 O376 1.265 . S
O378 Eu360 2.373 . S
O378 C391 1.258 . S
O379 Eu361 2.392 . S
O379 C391 1.242 . S
O380 Eu361 2.418 . S
O380 C362 1.244 . S
O381 Eu360 2.488 . S
O381 C369 1.249 . S
O382 Eu360 2.471 . S
O382 C369 1.244 . S
O383 Eu360 2.349 . S
O383 C362 1.265 . S
C384 C385 1.379 . S
C384 C388 1.373 . S
C384 C390 1.505 . S
C385 C384 1.379 . S
C385 C387 1.369 1_556 S
C385 H396 0.930 . S
C386 C388 1.383 1_554 S
C386 C389 1.382 . S
C386 H397 0.930 . S
C387 C385 1.369 1_554 S
C387 C389 1.392 . S
C387 H398 0.930 . S
C388 C384 1.373 . S
C388 C386 1.383 1_556 S
C388 H399 0.931 . S
C389 C386 1.382 . S
C389 C387 1.392 . S
C390 Eu361 2.828 . S
C390 O374 1.249 . S
C390 O375 1.244 . S
C390 C384 1.505 . S
C391 O378 1.258 . S
C391 O379 1.242 . S
H392 C364 0.930 . S
H393 C365 0.930 . S
H394 C366 0.930 . S
H395 C367 0.931 . S
H396 C385 0.930 . S
H397 C386 0.930 . S
H398 C387 0.930 . S
H399 C388 0.931 . S
Eu400 C409 2.828 . S
Eu400 O411 2.392 . S
Eu400 O413 2.418 . S
Eu400 O418 2.373 . S
Eu400 O421 2.488 . S
Eu400 O422 2.471 . S
Eu400 O423 2.349 . S
Eu401 O410 2.373 . S
Eu401 O414 2.488 . S
Eu401 O415 2.471 . S
Eu401 O416 2.349 . S
Eu401 O419 2.392 . S
Eu401 O420 2.418 . S
Eu401 C430 2.828 . S
C402 O420 1.244 . S
C402 O423 1.265 . S
C403 C404 1.379 . S
C403 C407 1.373 . S
C403 C409 1.505 . S
C404 C403 1.379 . S
C404 C406 1.369 . S
C404 H432 0.930 . S
C405 C407 1.383 . S
C405 C408 1.382 . S
C405 H433 0.930 . S
C406 C404 1.369 . S
C406 C408 1.392 . S
C406 H434 0.930 . S
C407 C403 1.373 . S
C407 C405 1.383 . S
C407 H435 0.931 . S
C408 C405 1.382 . S
C408 C406 1.392 . S
C409 Eu400 2.828 . S
C409 C403 1.505 . S
C409 O421 1.249 . S
C409 O422 1.244 . S
O410 Eu401 2.373 . S
O410 C412 1.258 . S
O411 Eu400 2.392 . S
O411 C412 1.242 . S
C412 O410 1.258 . S
C412 O411 1.242 . S
O413 Eu400 2.418 . S
O413 C417 1.244 . S
O414 Eu401 2.488 . S
O414 C430 1.249 . S
O415 Eu401 2.471 . S
O415 C430 1.244 . S
O416 Eu401 2.349 . S
O416 C417 1.265 . S
C417 O413 1.244 . S
C417 O416 1.265 . S
O418 Eu400 2.373 . S
O418 C431 1.258 . S
O419 Eu401 2.392 . S
O419 C431 1.242 . S
O420 Eu401 2.418 . S
O420 C402 1.244 . S
O421 Eu400 2.488 . S
O421 C409 1.249 . S
O422 Eu400 2.471 . S
O422 C409 1.244 . S
O423 Eu400 2.349 . S
O423 C402 1.265 . S
C424 C425 1.379 . S
C424 C428 1.373 . S
C424 C430 1.505 . S
C425 C424 1.379 . S
C425 C427 1.369 1_554 S
C425 H436 0.930 . S
C426 C428 1.383 1_556 S
C426 C429 1.382 . S
C426 H437 0.930 . S
C427 C425 1.369 1_556 S
C427 C429 1.392 . S
C427 H438 0.930 . S
C428 C424 1.373 . S
C428 C426 1.383 1_554 S
C428 H439 0.931 . S
C429 C426 1.382 . S
C429 C427 1.392 . S
C430 Eu401 2.828 . S
C430 O414 1.249 . S
C430 O415 1.244 . S
C430 C424 1.505 . S
C431 O418 1.258 . S
C431 O419 1.242 . S
H432 C404 0.930 . S
H433 C405 0.930 . S
H434 C406 0.930 . S
H435 C407 0.931 . S
H436 C425 0.930 . S
H437 C426 0.930 . S
H438 C427 0.930 . S
H439 C428 0.931 . S
Eu440 C449 2.828 1_554 S
Eu440 O451 2.392 . S
Eu440 O453 2.418 . S
Eu440 O458 2.373 . S
Eu440 O461 2.488 . S
Eu440 O462 2.471 . S
Eu440 O463 2.349 . S
Eu441 O450 2.373 . S
Eu441 O454 2.488 . S
Eu441 O455 2.471 . S
Eu441 O456 2.349 . S
Eu441 O459 2.392 . S
Eu441 O460 2.418 . S
Eu441 C470 2.828 . S
C442 O460 1.244 . S
C442 O463 1.265 . S
C443 C444 1.379 . S
C443 C447 1.373 . S
C443 C449 1.505 . S
C444 C443 1.379 . S
C444 C446 1.369 . S
C444 H472 0.930 . S
C445 C447 1.383 . S
C445 C448 1.382 . S
C445 H473 0.930 . S
C446 C444 1.369 . S
C446 C448 1.392 . S
C446 H474 0.930 . S
C447 C443 1.373 . S
C447 C445 1.383 . S
C447 H475 0.931 . S
C448 C445 1.382 . S
C448 C446 1.392 . S
C449 Eu440 2.828 1_556 S
C449 C443 1.505 . S
C449 O461 1.249 1_556 S
C449 O462 1.244 1_556 S
O450 Eu441 2.373 . S
O450 C452 1.258 . S
O451 Eu440 2.392 . S
O451 C452 1.242 . S
C452 O450 1.258 . S
C452 O451 1.242 . S
O453 Eu440 2.418 . S
O453 C457 1.244 . S
O454 Eu441 2.488 . S
O454 C470 1.249 . S
O455 Eu441 2.471 . S
O455 C470 1.244 . S
O456 Eu441 2.349 . S
O456 C457 1.265 . S
C457 O453 1.244 . S
C457 O456 1.265 . S
O458 Eu440 2.373 . S
O458 C471 1.258 . S
O459 Eu441 2.392 . S
O459 C471 1.242 . S
O460 Eu441 2.418 . S
O460 C442 1.244 . S
O461 Eu440 2.488 . S
O461 C449 1.249 1_554 S
O462 Eu440 2.471 . S
O462 C449 1.244 1_554 S
O463 Eu440 2.349 . S
O463 C442 1.265 . S
C464 C465 1.379 . S
C464 C468 1.373 . S
C464 C470 1.505 . S
C465 C464 1.379 . S
C465 C467 1.369 . S
C465 H476 0.930 . S
C466 C468 1.383 . S
C466 C469 1.382 . S
C466 H477 0.930 . S
C467 C465 1.369 . S
C467 C469 1.392 . S
C467 H478 0.930 . S
C468 C464 1.373 . S
C468 C466 1.383 . S
C468 H479 0.931 . S
C469 C466 1.382 . S
C469 C467 1.392 . S
C470 Eu441 2.828 . S
C470 O454 1.249 . S
C470 O455 1.244 . S
C470 C464 1.505 . S
C471 O458 1.258 . S
C471 O459 1.242 . S
H472 C444 0.930 . S
H473 C445 0.930 . S
H474 C446 0.930 . S
H475 C447 0.931 . S
H476 C465 0.930 . S
H477 C466 0.930 . S
H478 C467 0.930 . S
H479 C468 0.931 . S
Eu480 C489 2.828 1_554 S
Eu480 O491 2.392 . S
Eu480 O493 2.418 . S
Eu480 O498 2.373 . S
Eu480 O501 2.488 . S
Eu480 O502 2.471 . S
Eu480 O503 2.349 . S
Eu481 O490 2.373 . S
Eu481 O494 2.488 . S
Eu481 O495 2.471 . S
Eu481 O496 2.349 . S
Eu481 O499 2.392 . S
Eu481 O500 2.418 . S
Eu481 C510 2.828 . S
C482 O500 1.244 . S
C482 O503 1.265 . S
C483 C484 1.379 . S
C483 C487 1.373 . S
C483 C489 1.505 . S
C484 C483 1.379 . S
C484 C486 1.369 . S
C484 H512 0.930 . S
C485 C487 1.383 . S
C485 C488 1.382 . S
C485 H513 0.930 . S
C486 C484 1.369 . S
C486 C488 1.392 . S
C486 H514 0.930 . S
C487 C483 1.373 . S
C487 C485 1.383 . S
C487 H515 0.931 . S
C488 C485 1.382 . S
C488 C486 1.392 . S
C489 Eu480 2.828 1_556 S
C489 C483 1.505 . S
C489 O501 1.249 1_556 S
C489 O502 1.244 1_556 S
O490 Eu481 2.373 . S
O490 C492 1.258 . S
O491 Eu480 2.392 . S
O491 C492 1.242 . S
C492 O490 1.258 . S
C492 O491 1.242 . S
O493 Eu480 2.418 . S
O493 C497 1.244 . S
O494 Eu481 2.488 . S
O494 C510 1.249 . S
O495 Eu481 2.471 . S
O495 C510 1.244 . S
O496 Eu481 2.349 . S
O496 C497 1.265 . S
C497 O493 1.244 . S
C497 O496 1.265 . S
O498 Eu480 2.373 . S
O498 C511 1.258 . S
O499 Eu481 2.392 . S
O499 C511 1.242 . S
O500 Eu481 2.418 . S
O500 C482 1.244 . S
O501 Eu480 2.488 . S
O501 C489 1.249 1_554 S
O502 Eu480 2.471 . S
O502 C489 1.244 1_554 S
O503 Eu480 2.349 . S
O503 C482 1.265 . S
C504 C505 1.379 . S
C504 C508 1.373 . S
C504 C510 1.505 . S
C505 C504 1.379 . S
C505 C507 1.369 . S
C505 H516 0.930 . S
C506 C508 1.383 . S
C506 C509 1.382 . S
C506 H517 0.930 . S
C507 C505 1.369 . S
C507 C509 1.392 . S
C507 H518 0.930 . S
C508 C504 1.373 . S
C508 C506 1.383 . S
C508 H519 0.931 . S
C509 C506 1.382 . S
C509 C507 1.392 . S
C510 Eu481 2.828 . S
C510 O494 1.249 . S
C510 O495 1.244 . S
C510 C504 1.505 . S
C511 O498 1.258 . S
C511 O499 1.242 . S
H512 C484 0.930 . S
H513 C485 0.930 . S
H514 C486 0.930 . S
H515 C487 0.931 . S
H516 C505 0.930 . S
H517 C506 0.930 . S
H518 C507 0.930 . S
H519 C508 0.931 . S
Eu520 C529 2.828 1_556 S
Eu520 O531 2.392 . S
Eu520 O533 2.418 . S
Eu520 O538 2.373 . S
Eu520 O541 2.488 . S
Eu520 O542 2.471 . S
Eu520 O543 2.349 . S
Eu521 O530 2.373 . S
Eu521 O534 2.488 . S
Eu521 O535 2.471 . S
Eu521 O536 2.349 . S
Eu521 O539 2.392 . S
Eu521 O540 2.418 . S
Eu521 C550 2.828 . S
C522 O540 1.244 . S
C522 O543 1.265 . S
C523 C524 1.379 . S
C523 C527 1.373 . S
C523 C529 1.505 . S
C524 C523 1.379 . S
C524 C526 1.369 . S
C524 H552 0.930 . S
C525 C527 1.383 . S
C525 C528 1.382 . S
C525 H553 0.930 . S
C526 C524 1.369 . S
C526 C528 1.392 . S
C526 H554 0.930 . S
C527 C523 1.373 . S
C527 C525 1.383 . S
C527 H555 0.931 . S
C528 C525 1.382 . S
C528 C526 1.392 . S
C529 Eu520 2.828 1_554 S
C529 C523 1.505 . S
C529 O541 1.249 1_554 S
C529 O542 1.244 1_554 S
O530 Eu521 2.373 . S
O530 C532 1.258 . S
O531 Eu520 2.392 . S
O531 C532 1.242 . S
C532 O530 1.258 . S
C532 O531 1.242 . S
O533 Eu520 2.418 . S
O533 C537 1.244 . S
O534 Eu521 2.488 . S
O534 C550 1.249 . S
O535 Eu521 2.471 . S
O535 C550 1.244 . S
O536 Eu521 2.349 . S
O536 C537 1.265 . S
C537 O533 1.244 . S
C537 O536 1.265 . S
O538 Eu520 2.373 . S
O538 C551 1.258 . S
O539 Eu521 2.392 . S
O539 C551 1.242 . S
O540 Eu521 2.418 . S
O540 C522 1.244 . S
O541 Eu520 2.488 . S
O541 C529 1.249 1_556 S
O542 Eu520 2.471 . S
O542 C529 1.244 1_556 S
O543 Eu520 2.349 . S
O543 C522 1.265 . S
C544 C545 1.379 . S
C544 C548 1.373 . S
C544 C550 1.505 . S
C545 C544 1.379 . S
C545 C547 1.369 . S
C545 H556 0.930 . S
C546 C548 1.383 . S
C546 C549 1.382 . S
C546 H557 0.930 . S
C547 C545 1.369 . S
C547 C549 1.392 . S
C547 H558 0.930 . S
C548 C544 1.373 . S
C548 C546 1.383 . S
C548 H559 0.931 . S
C549 C546 1.382 . S
C549 C547 1.392 . S
C550 Eu521 2.828 . S
C550 O534 1.249 . S
C550 O535 1.244 . S
C550 C544 1.505 . S
C551 O538 1.258 . S
C551 O539 1.242 . S
H552 C524 0.930 . S
H553 C525 0.930 . S
H554 C526 0.930 . S
H555 C527 0.931 . S
H556 C545 0.930 . S
H557 C546 0.930 . S
H558 C547 0.930 . S
H559 C548 0.931 . S
Eu560 C569 2.828 . S
Eu560 O571 2.392 . S
Eu560 O573 2.418 . S
Eu560 O578 2.373 . S
Eu560 O581 2.488 . S
Eu560 O582 2.471 . S
Eu560 O583 2.349 . S
Eu561 O570 2.373 . S
Eu561 O574 2.488 . S
Eu561 O575 2.471 . S
Eu561 O576 2.349 . S
Eu561 O579 2.392 . S
Eu561 O580 2.418 . S
Eu561 C590 2.828 . S
C562 O580 1.244 . S
C562 O583 1.265 . S
C563 C564 1.379 . S
C563 C567 1.373 . S
C563 C569 1.505 . S
C564 C563 1.379 . S
C564 C566 1.369 . S
C564 H592 0.930 . S
C565 C567 1.383 . S
C565 C568 1.382 . S
C565 H593 0.930 . S
C566 C564 1.369 . S
C566 C568 1.392 . S
C566 H594 0.930 . S
C567 C563 1.373 . S
C567 C565 1.383 . S
C567 H595 0.931 . S
C568 C565 1.382 . S
C568 C566 1.392 . S
C569 Eu560 2.828 . S
C569 C563 1.505 . S
C569 O581 1.249 . S
C569 O582 1.244 . S
O570 Eu561 2.373 . S
O570 C572 1.258 . S
O571 Eu560 2.392 . S
O571 C572 1.242 . S
C572 O570 1.258 . S
C572 O571 1.242 . S
O573 Eu560 2.418 . S
O573 C577 1.244 . S
O574 Eu561 2.488 . S
O574 C590 1.249 . S
O575 Eu561 2.471 . S
O575 C590 1.244 . S
O576 Eu561 2.349 . S
O576 C577 1.265 . S
C577 O573 1.244 . S
C577 O576 1.265 . S
O578 Eu560 2.373 . S
O578 C591 1.258 . S
O579 Eu561 2.392 . S
O579 C591 1.242 . S
O580 Eu561 2.418 . S
O580 C562 1.244 . S
O581 Eu560 2.488 . S
O581 C569 1.249 . S
O582 Eu560 2.471 . S
O582 C569 1.244 . S
O583 Eu560 2.349 . S
O583 C562 1.265 . S
C584 C585 1.379 . S
C584 C588 1.373 . S
C584 C590 1.505 . S
C585 C584 1.379 . S
C585 C587 1.369 1_556 S
C585 H596 0.930 . S
C586 C588 1.383 1_554 S
C586 C589 1.382 . S
C586 H597 0.930 . S
C587 C585 1.369 1_554 S
C587 C589 1.392 . S
C587 H598 0.930 . S
C588 C584 1.373 . S
C588 C586 1.383 1_556 S
C588 H599 0.931 . S
C589 C586 1.382 . S
C589 C587 1.392 . S
C590 Eu561 2.828 . S
C590 O574 1.249 . S
C590 O575 1.244 . S
C590 C584 1.505 . S
C591 O578 1.258 . S
C591 O579 1.242 . S
H592 C564 0.930 . S
H593 C565 0.930 . S
H594 C566 0.930 . S
H595 C567 0.931 . S
H596 C585 0.930 . S
H597 C586 0.930 . S
H598 C587 0.930 . S
H599 C588 0.931 . S
Eu600 C609 2.828 . S
Eu600 O611 2.392 . S
Eu600 O613 2.418 . S
Eu600 O618 2.373 . S
Eu600 O621 2.488 . S
Eu600 O622 2.471 . S
Eu600 O623 2.349 . S
Eu601 O610 2.373 . S
Eu601 O614 2.488 . S
Eu601 O615 2.471 . S
Eu601 O616 2.349 . S
Eu601 O619 2.392 . S
Eu601 O620 2.418 . S
Eu601 C630 2.828 . S
C602 O620 1.244 . S
C602 O623 1.265 . S
C603 C604 1.379 . S
C603 C607 1.373 . S
C603 C609 1.505 . S
C604 C603 1.379 . S
C604 C606 1.369 . S
C604 H632 0.930 . S
C605 C607 1.383 . S
C605 C608 1.382 . S
C605 H633 0.930 . S
C606 C604 1.369 . S
C606 C608 1.392 . S
C606 H634 0.930 . S
C607 C603 1.373 . S
C607 C605 1.383 . S
C607 H635 0.931 . S
C608 C605 1.382 . S
C608 C606 1.392 . S
C609 Eu600 2.828 . S
C609 C603 1.505 . S
C609 O621 1.249 . S
C609 O622 1.244 . S
O610 Eu601 2.373 . S
O610 C612 1.258 . S
O611 Eu600 2.392 . S
O611 C612 1.242 . S
C612 O610 1.258 . S
C612 O611 1.242 . S
O613 Eu600 2.418 . S
O613 C617 1.244 . S
O614 Eu601 2.488 . S
O614 C630 1.249 . S
O615 Eu601 2.471 . S
O615 C630 1.244 . S
O616 Eu601 2.349 . S
O616 C617 1.265 . S
C617 O613 1.244 . S
C617 O616 1.265 . S
O618 Eu600 2.373 . S
O618 C631 1.258 . S
O619 Eu601 2.392 . S
O619 C631 1.242 . S
O620 Eu601 2.418 . S
O620 C602 1.244 . S
O621 Eu600 2.488 . S
O621 C609 1.249 . S
O622 Eu600 2.471 . S
O622 C609 1.244 . S
O623 Eu600 2.349 . S
O623 C602 1.265 . S
C624 C625 1.379 . S
C624 C628 1.373 . S
C624 C630 1.505 . S
C625 C624 1.379 . S
C625 C627 1.369 1_554 S
C625 H636 0.930 . S
C626 C628 1.383 1_556 S
C626 C629 1.382 . S
C626 H637 0.930 . S
C627 C625 1.369 1_556 S
C627 C629 1.392 . S
C627 H638 0.930 . S
C628 C624 1.373 . S
C628 C626 1.383 1_554 S
C628 H639 0.931 . S
C629 C626 1.382 . S
C629 C627 1.392 . S
C630 Eu601 2.828 . S
C630 O614 1.249 . S
C630 O615 1.244 . S
C630 C624 1.505 . S
C631 O618 1.258 . S
C631 O619 1.242 . S
H632 C604 0.930 . S
H633 C605 0.930 . S
H634 C606 0.930 . S
H635 C607 0.931 . S
H636 C625 0.930 . S
H637 C626 0.930 . S
H638 C627 0.930 . S
H639 C628 0.931 . S
C640 C641 1.387 . S
C640 H644 0.950 . S
C640 C649 1.390 . S
C641 C640 1.387 . S
C641 C643 1.387 . S
H642 C649 0.950 . S
C643 C641 1.387 . S
C643 C645 1.390 . S
C643 H647 0.950 . S
H644 C640 0.950 . S
C645 C643 1.390 . S
C645 C646 1.387 . S
C645 H648 0.950 . S
C646 C645 1.387 . S
C646 C649 1.387 . S
H647 C643 0.950 . S
H648 C645 0.950 . S
C649 C640 1.390 . S
C649 H642 0.950 . S
C649 C646 1.387 . S
C650 C651 1.387 . S
C650 H654 0.950 . S
C650 C659 1.390 . S
C651 C650 1.387 . S
C651 C653 1.387 . S
H652 C659 0.950 . S
C653 C651 1.387 . S
C653 C655 1.390 . S
C653 H657 0.950 . S
H654 C650 0.950 . S
C655 C653 1.390 . S
C655 C656 1.387 . S
C655 H658 0.950 . S
C656 C655 1.387 . S
C656 C659 1.387 . S
H657 C653 0.950 . S
H658 C655 0.950 . S
C659 C650 1.390 . S
C659 H652 0.950 . S
C659 C656 1.387 . S
C660 C661 1.387 . S
C660 H664 0.950 . S
C660 C669 1.390 . S
C661 C660 1.387 . S
C661 C663 1.387 . S
H662 C669 0.950 . S
C663 C661 1.387 . S
C663 C665 1.390 . S
C663 H667 0.950 . S
H664 C660 0.950 . S
C665 C663 1.390 . S
C665 C666 1.387 . S
C665 H668 0.950 . S
C666 C665 1.387 . S
C666 C669 1.387 . S
H667 C663 0.950 . S
H668 C665 0.950 . S
C669 C660 1.390 . S
C669 H662 0.950 . S
C669 C666 1.387 . S
C670 C671 1.387 . S
C670 H674 0.950 . S
C670 C679 1.390 . S
C671 C670 1.387 . S
C671 C673 1.387 . S
H672 C679 0.950 . S
C673 C671 1.387 . S
C673 C675 1.390 . S
C673 H677 0.950 . S
H674 C670 0.950 . S
C675 C673 1.390 . S
C675 C676 1.387 . S
C675 H678 0.950 . S
C676 C675 1.387 . S
C676 C679 1.387 . S
H677 C673 0.950 . S
H678 C675 0.950 . S
C679 C670 1.390 . S
C679 H672 0.950 . S
C679 C676 1.387 . S
C680 C681 1.387 . S
C680 H684 0.950 . S
C680 C689 1.390 . S
C681 C680 1.387 . S
C681 C683 1.387 . S
H682 C689 0.950 . S
C683 C681 1.387 . S
C683 C685 1.390 . S
C683 H687 0.950 . S
H684 C680 0.950 . S
C685 C683 1.390 . S
C685 C686 1.387 . S
C685 H688 0.950 . S
C686 C685 1.387 . S
C686 C689 1.387 . S
H687 C683 0.950 . S
H688 C685 0.950 . S
C689 C680 1.390 . S
C689 H682 0.950 . S
C689 C686 1.387 . S
C690 C691 1.387 . S
C690 H694 0.950 . S
C690 C699 1.390 . S
C691 C690 1.387 . S
C691 C693 1.387 . S
H692 C699 0.950 . S
C693 C691 1.387 . S
C693 C695 1.390 . S
C693 H697 0.950 . S
H694 C690 0.950 . S
C695 C693 1.390 . S
C695 C696 1.387 . S
C695 H698 0.950 . S
C696 C695 1.387 . S
C696 C699 1.387 . S
H697 C693 0.950 . S
H698 C695 0.950 . S
C699 C690 1.390 . S
C699 H692 0.950 . S
C699 C696 1.387 . S
C700 C701 1.387 . S
C700 H704 0.950 . S
C700 C709 1.390 . S
C701 C700 1.387 . S
C701 C703 1.387 . S
H702 C709 0.950 . S
C703 C701 1.387 . S
C703 C705 1.390 . S
C703 H707 0.950 . S
H704 C700 0.950 . S
C705 C703 1.390 . S
C705 C706 1.387 . S
C705 H708 0.950 . S
C706 C705 1.387 . S
C706 C709 1.387 . S
H707 C703 0.950 . S
H708 C705 0.950 . S
C709 C700 1.390 . S
C709 H702 0.950 . S
C709 C706 1.387 . S
C710 C711 1.387 . S
C710 H714 0.950 . S
C710 C719 1.390 . S
C711 C710 1.387 . S
C711 C713 1.387 . S
H712 C719 0.950 . S
C713 C711 1.387 . S
C713 C715 1.390 . S
C713 H717 0.950 . S
H714 C710 0.950 . S
C715 C713 1.390 . S
C715 C716 1.387 . S
C715 H718 0.950 . S
C716 C715 1.387 . S
C716 C719 1.387 . S
H717 C713 0.950 . S
H718 C715 0.950 . S
C719 C710 1.390 . S
C719 H712 0.950 . S
C719 C716 1.387 . S
C720 C721 1.387 . S
C720 H724 0.950 . S
C720 C729 1.390 . S
C721 C720 1.387 . S
C721 C723 1.387 . S
H722 C729 0.950 . S
C723 C721 1.387 . S
C723 C725 1.390 . S
C723 H727 0.950 . S
H724 C720 0.950 . S
C725 C723 1.390 . S
C725 C726 1.387 . S
C725 H728 0.950 . S
C726 C725 1.387 . S
C726 C729 1.387 . S
H727 C723 0.950 . S
H728 C725 0.950 . S
C729 C720 1.390 . S
C729 H722 0.950 . S
C729 C726 1.387 . S
C730 C731 1.387 . S
C730 H734 0.950 . S
C730 C739 1.390 . S
C731 C730 1.387 . S
C731 C733 1.387 . S
H732 C739 0.950 . S
C733 C731 1.387 . S
C733 C735 1.390 . S
C733 H737 0.950 . S
H734 C730 0.950 . S
C735 C733 1.390 . S
C735 C736 1.387 . S
C735 H738 0.950 . S
C736 C735 1.387 . S
C736 C739 1.387 . S
H737 C733 0.950 . S
H738 C735 0.950 . S
C739 C730 1.390 . S
C739 H732 0.950 . S
C739 C736 1.387 . S
C740 C741 1.387 . S
C740 H744 0.950 . S
C740 C749 1.390 . S
C741 C740 1.387 . S
C741 C743 1.387 . S
H742 C749 0.950 . S
C743 C741 1.387 . S
C743 C745 1.390 . S
C743 H747 0.950 . S
H744 C740 0.950 . S
C745 C743 1.390 . S
C745 C746 1.387 . S
C745 H748 0.950 . S
C746 C745 1.387 . S
C746 C749 1.387 . S
H747 C743 0.950 . S
H748 C745 0.950 . S
C749 C740 1.390 . S
C749 H742 0.950 . S
C749 C746 1.387 . S
C750 C751 1.387 . S
C750 H754 0.950 . S
C750 C759 1.390 . S
C751 C750 1.387 . S
C751 C753 1.387 . S
H752 C759 0.950 . S
C753 C751 1.387 . S
C753 C755 1.390 . S
C753 H757 0.950 . S
H754 C750 0.950 . S
C755 C753 1.390 . S
C755 C756 1.387 . S
C755 H758 0.950 . S
C756 C755 1.387 . S
C756 C759 1.387 . S
H757 C753 0.950 . S
H758 C755 0.950 . S
C759 C750 1.390 . S
C759 H752 0.950 . S
C759 C756 1.387 . S
C760 C761 1.387 . S
C760 H764 0.950 . S
C760 C769 1.390 . S
C761 C760 1.387 . S
C761 C763 1.387 . S
H762 C769 0.950 . S
C763 C761 1.387 . S
C763 C765 1.390 . S
C763 H767 0.950 . S
H764 C760 0.950 . S
C765 C763 1.390 . S
C765 C766 1.387 . S
C765 H768 0.950 . S
C766 C765 1.387 . S
C766 C769 1.387 . S
H767 C763 0.950 . S
H768 C765 0.950 . S
C769 C760 1.390 . S
C769 H762 0.950 . S
C769 C766 1.387 . S
C770 C771 1.387 . S
C770 H774 0.950 . S
C770 C779 1.390 . S
C771 C770 1.387 . S
C771 C773 1.387 . S
H772 C779 0.950 . S
C773 C771 1.387 . S
C773 C775 1.390 . S
C773 H777 0.950 . S
H774 C770 0.950 . S
C775 C773 1.390 . S
C775 C776 1.387 . S
C775 H778 0.950 . S
C776 C775 1.387 . S
C776 C779 1.387 . S
H777 C773 0.950 . S
H778 C775 0.950 . S
C779 C770 1.390 . S
C779 H772 0.950 . S
C779 C776 1.387 . S
C780 C781 1.387 . S
C780 H784 0.950 . S
C780 C789 1.390 . S
C781 C780 1.387 . S
C781 C783 1.387 . S
H782 C789 0.950 . S
C783 C781 1.387 . S
C783 C785 1.390 . S
C783 H787 0.950 . S
H784 C780 0.950 . S
C785 C783 1.390 . S
C785 C786 1.387 . S
C785 H788 0.950 . S
C786 C785 1.387 . S
C786 C789 1.387 . S
H787 C783 0.950 . S
H788 C785 0.950 . S
C789 C780 1.390 . S
C789 H782 0.950 . S
C789 C786 1.387 . S
C790 C791 1.387 . S
C790 H794 0.950 . S
C790 C799 1.390 . S
C791 C790 1.387 . S
C791 C793 1.387 . S
H792 C799 0.950 . S
C793 C791 1.387 . S
C793 C795 1.390 . S
C793 H797 0.950 . S
H794 C790 0.950 . S
C795 C793 1.390 . S
C795 C796 1.387 . S
C795 H798 0.950 . S
C796 C795 1.387 . S
C796 C799 1.387 . S
H797 C793 0.950 . S
H798 C795 0.950 . S
C799 C790 1.390 . S
C799 H792 0.950 . S
C799 C796 1.387 . S
C800 C801 1.387 . S
C800 H804 0.950 . S
C800 C809 1.390 . S
C801 C800 1.387 . S
C801 C803 1.387 . S
H802 C809 0.950 . S
C803 C801 1.387 . S
C803 C805 1.390 . S
C803 H807 0.950 . S
H804 C800 0.950 . S
C805 C803 1.390 . S
C805 C806 1.387 . S
C805 H808 0.950 . S
C806 C805 1.387 . S
C806 C809 1.387 . S
H807 C803 0.950 . S
H808 C805 0.950 . S
C809 C800 1.390 . S
C809 H802 0.950 . S
C809 C806 1.387 . S
C810 C811 1.387 . S
C810 H814 0.950 . S
C810 C819 1.390 . S
C811 C810 1.387 . S
C811 C813 1.387 . S
H812 C819 0.950 . S
C813 C811 1.387 . S
C813 C815 1.390 . S
C813 H817 0.950 . S
H814 C810 0.950 . S
C815 C813 1.390 . S
C815 C816 1.387 . S
C815 H818 0.950 . S
C816 C815 1.387 . S
C816 C819 1.387 . S
H817 C813 0.950 . S
H818 C815 0.950 . S
C819 C810 1.390 . S
C819 H812 0.950 . S
C819 C816 1.387 . S
C820 C821 1.387 . S
C820 H824 0.950 . S
C820 C829 1.390 . S
C821 C820 1.387 . S
C821 C823 1.387 . S
H822 C829 0.950 . S
C823 C821 1.387 . S
C823 C825 1.390 . S
C823 H827 0.950 . S
H824 C820 0.950 . S
C825 C823 1.390 . S
C825 C826 1.387 . S
C825 H828 0.950 . S
C826 C825 1.387 . S
C826 C829 1.387 . S
H827 C823 0.950 . S
H828 C825 0.950 . S
C829 C820 1.390 . S
C829 H822 0.950 . S
C829 C826 1.387 . S
C830 C831 1.387 . S
C830 H834 0.950 . S
C830 C839 1.390 1_655 S
C831 C830 1.387 . S
C831 C833 1.387 . S
H832 C839 0.950 . S
C833 C831 1.387 . S
C833 C835 1.390 1_655 S
C833 H837 0.950 . S
H834 C830 0.950 . S
C835 C833 1.390 1_455 S
C835 C836 1.387 . S
C835 H838 0.950 . S
C836 C835 1.387 . S
C836 C839 1.387 . S
H837 C833 0.950 . S
H838 C835 0.950 . S
C839 C830 1.390 1_455 S
C839 H832 0.950 . S
C839 C836 1.387 . S
C840 C841 1.387 . S
C840 H844 0.950 . S
C840 C849 1.390 . S
C841 C840 1.387 . S
C841 C843 1.387 . S
H842 C849 0.950 . S
C843 C841 1.387 . S
C843 C845 1.390 . S
C843 H847 0.950 . S
H844 C840 0.950 . S
C845 C843 1.390 . S
C845 C846 1.387 . S
C845 H848 0.950 . S
C846 C845 1.387 . S
C846 C849 1.387 . S
H847 C843 0.950 . S
H848 C845 0.950 . S
C849 C840 1.390 . S
C849 H842 0.950 . S
C849 C846 1.387 . S
C850 C851 1.387 . S
C850 H854 0.950 . S
C850 C859 1.390 1_455 S
C851 C850 1.387 . S
C851 C853 1.387 . S
H852 C859 0.950 . S
C853 C851 1.387 . S
C853 C855 1.390 1_455 S
C853 H857 0.950 . S
H854 C850 0.950 . S
C855 C853 1.390 1_655 S
C855 C856 1.387 . S
C855 H858 0.950 . S
C856 C855 1.387 . S
C856 C859 1.387 . S
H857 C853 0.950 . S
H858 C855 0.950 . S
C859 C850 1.390 1_655 S
C859 H852 0.950 . S
C859 C856 1.387 . S
C860 C861 1.387 . S
C860 H864 0.950 . S
C860 C869 1.390 . S
C861 C860 1.387 . S
C861 C863 1.387 . S
H862 C869 0.950 . S
C863 C861 1.387 . S
C863 C865 1.390 . S
C863 H867 0.950 . S
H864 C860 0.950 . S
C865 C863 1.390 . S
C865 C866 1.387 . S
C865 H868 0.950 . S
C866 C865 1.387 . S
C866 C869 1.387 . S
H867 C863 0.950 . S
H868 C865 0.950 . S
C869 C860 1.390 . S
C869 H862 0.950 . S
C869 C866 1.387 . S
C870 C871 1.387 . S
C870 H874 0.950 . S
C870 C879 1.390 . S
C871 C870 1.387 . S
C871 C873 1.387 . S
H872 C879 0.950 . S
C873 C871 1.387 . S
C873 C875 1.390 . S
C873 H877 0.950 . S
H874 C870 0.950 . S
C875 C873 1.390 . S
C875 C876 1.387 . S
C875 H878 0.950 . S
C876 C875 1.387 . S
C876 C879 1.387 . S
H877 C873 0.950 . S
H878 C875 0.950 . S
C879 C870 1.390 . S
C879 H872 0.950 . S
C879 C876 1.387 . S
C880 C881 1.387 . S
C880 H884 0.950 . S
C880 C889 1.390 . S
C881 C880 1.387 . S
C881 C883 1.387 . S
H882 C889 0.950 . S
C883 C881 1.387 . S
C883 C885 1.390 . S
C883 H887 0.950 . S
H884 C880 0.950 . S
C885 C883 1.390 . S
C885 C886 1.387 . S
C885 H888 0.950 . S
C886 C885 1.387 . S
C886 C889 1.387 . S
H887 C883 0.950 . S
H888 C885 0.950 . S
C889 C880 1.390 . S
C889 H882 0.950 . S
C889 C886 1.387 . S
C890 C891 1.387 . S
C890 H894 0.950 . S
C890 C899 1.390 . S
C891 C890 1.387 . S
C891 C893 1.387 . S
H892 C899 0.950 . S
C893 C891 1.387 . S
C893 C895 1.390 . S
C893 H897 0.950 . S
H894 C890 0.950 . S
C895 C893 1.390 . S
C895 C896 1.387 . S
C895 H898 0.950 . S
C896 C895 1.387 . S
C896 C899 1.387 . S
H897 C893 0.950 . S
H898 C895 0.950 . S
C899 C890 1.390 . S
C899 H892 0.950 . S
C899 C896 1.387 . S
C900 C901 1.387 . S
C900 H904 0.950 . S
C900 C909 1.390 . S
C901 C900 1.387 . S
C901 C903 1.387 . S
H902 C909 0.950 . S
C903 C901 1.387 . S
C903 C905 1.390 . S
C903 H907 0.950 . S
H904 C900 0.950 . S
C905 C903 1.390 . S
C905 C906 1.387 . S
C905 H908 0.950 . S
C906 C905 1.387 . S
C906 C909 1.387 . S
H907 C903 0.950 . S
H908 C905 0.950 . S
C909 C900 1.390 . S
C909 H902 0.950 . S
C909 C906 1.387 . S
C910 C911 1.387 . S
C910 H914 0.950 . S
C910 C919 1.390 . S
C911 C910 1.387 . S
C911 C913 1.387 . S
H912 C919 0.950 . S
C913 C911 1.387 . S
C913 C915 1.390 . S
C913 H917 0.950 . S
H914 C910 0.950 . S
C915 C913 1.390 . S
C915 C916 1.387 . S
C915 H918 0.950 . S
C916 C915 1.387 . S
C916 C919 1.387 . S
H917 C913 0.950 . S
H918 C915 0.950 . S
C919 C910 1.390 . S
C919 H912 0.950 . S
C919 C916 1.387 . S
C920 C921 1.387 . S
C920 H924 0.950 . S
C920 C929 1.390 1_655 S
C921 C920 1.387 . S
C921 C923 1.387 . S
H922 C929 0.950 . S
C923 C921 1.387 . S
C923 C925 1.390 1_655 S
C923 H927 0.950 . S
H924 C920 0.950 . S
C925 C923 1.390 1_455 S
C925 C926 1.387 . S
C925 H928 0.950 . S
C926 C925 1.387 . S
C926 C929 1.387 . S
H927 C923 0.950 . S
H928 C925 0.950 . S
C929 C920 1.390 1_455 S
C929 H922 0.950 . S
C929 C926 1.387 . S
C930 C931 1.387 . S
C930 H934 0.950 . S
C930 C939 1.390 . S
C931 C930 1.387 . S
C931 C933 1.387 . S
H932 C939 0.950 . S
C933 C931 1.387 . S
C933 C935 1.390 . S
C933 H937 0.950 . S
H934 C930 0.950 . S
C935 C933 1.390 . S
C935 C936 1.387 . S
C935 H938 0.950 . S
C936 C935 1.387 . S
C936 C939 1.387 . S
H937 C933 0.950 . S
H938 C935 0.950 . S
C939 C930 1.390 . S
C939 H932 0.950 . S
C939 C936 1.387 . S
C940 C941 1.387 . S
C940 H944 0.950 . S
C940 C949 1.390 . S
C941 C940 1.387 . S
C941 C943 1.387 . S
H942 C949 0.950 . S
C943 C941 1.387 . S
C943 C945 1.390 . S
C943 H947 0.950 . S
H944 C940 0.950 . S
C945 C943 1.390 . S
C945 C946 1.387 . S
C945 H948 0.950 . S
C946 C945 1.387 . S
C946 C949 1.387 . S
H947 C943 0.950 . S
H948 C945 0.950 . S
C949 C940 1.390 . S
C949 H942 0.950 . S
C949 C946 1.387 . S
C950 C951 1.387 . S
C950 H954 0.950 . S
C950 C959 1.390 1_455 S
C951 C950 1.387 . S
C951 C953 1.387 . S
H952 C959 0.950 . S
C953 C951 1.387 . S
C953 C955 1.390 1_455 S
C953 H957 0.950 . S
H954 C950 0.950 . S
C955 C953 1.390 1_655 S
C955 C956 1.387 . S
C955 H958 0.950 . S
C956 C955 1.387 . S
C956 C959 1.387 . S
H957 C953 0.950 . S
H958 C955 0.950 . S
C959 C950 1.390 1_655 S
C959 H952 0.950 . S
C959 C956 1.387 . S
C960 C961 1.387 . S
C960 H964 0.950 . S
C960 C969 1.390 1_554 S
C961 C960 1.387 . S
C961 C963 1.387 . S
H962 C969 0.950 . S
C963 C961 1.387 . S
C963 C965 1.390 1_554 S
C963 H967 0.950 . S
H964 C960 0.950 . S
C965 C963 1.390 1_556 S
C965 C966 1.387 . S
C965 H968 0.950 . S
C966 C965 1.387 . S
C966 C969 1.387 . S
H967 C963 0.950 . S
H968 C965 0.950 . S
C969 C960 1.390 1_556 S
C969 H962 0.950 . S
C969 C966 1.387 . S
C970 C971 1.387 . S
C970 H974 0.950 . S
C970 C979 1.390 . S
C971 C970 1.387 . S
C971 C973 1.387 . S
H972 C979 0.950 . S
C973 C971 1.387 . S
C973 C975 1.390 . S
C973 H977 0.950 . S
H974 C970 0.950 . S
C975 C973 1.390 . S
C975 C976 1.387 . S
C975 H978 0.950 . S
C976 C975 1.387 . S
C976 C979 1.387 . S
H977 C973 0.950 . S
H978 C975 0.950 . S
C979 C970 1.390 . S
C979 H972 0.950 . S
C979 C976 1.387 . S
C980 C981 1.387 . S
C980 H984 0.950 . S
C980 C989 1.390 . S
C981 C980 1.387 . S
C981 C983 1.387 . S
H982 C989 0.950 . S
C983 C981 1.387 . S
C983 C985 1.390 . S
C983 H987 0.950 . S
H984 C980 0.950 . S
C985 C983 1.390 . S
C985 C986 1.387 . S
C985 H988 0.950 . S
C986 C985 1.387 . S
C986 C989 1.387 . S
H987 C983 0.950 . S
H988 C985 0.950 . S
C989 C980 1.390 . S
C989 H982 0.950 . S
C989 C986 1.387 . S
C990 C991 1.387 . S
C990 H994 0.950 . S
C990 C999 1.390 . S
C991 C990 1.387 . S
C991 C993 1.387 . S
H992 C999 0.950 . S
C993 C991 1.387 . S
C993 C995 1.390 . S
C993 H997 0.950 . S
H994 C990 0.950 . S
C995 C993 1.390 . S
C995 C996 1.387 . S
C995 H998 0.950 . S
C996 C995 1.387 . S
C996 C999 1.387 . S
H997 C993 0.950 . S
H998 C995 0.950 . S
C999 C990 1.390 . S
C999 H992 0.950 . S
C999 C996 1.387 . S
C1000 C1001 1.387 . S
C1000 H1004 0.950 . S
C1000 C1009 1.390 1_554 S
C1001 C1000 1.387 . S
C1001 C1003 1.387 . S
H1002 C1009 0.950 . S
C1003 C1001 1.387 . S
C1003 C1005 1.390 1_554 S
C1003 H1007 0.950 . S
H1004 C1000 0.950 . S
C1005 C1003 1.390 1_556 S
C1005 C1006 1.387 . S
C1005 H1008 0.950 . S
C1006 C1005 1.387 . S
C1006 C1009 1.387 . S
H1007 C1003 0.950 . S
H1008 C1005 0.950 . S
C1009 C1000 1.390 1_556 S
C1009 H1002 0.950 . S
C1009 C1006 1.387 . S
C1010 C1011 1.387 . S
C1010 H1014 0.950 . S
C1010 C1019 1.390 . S
C1011 C1010 1.387 . S
C1011 C1013 1.387 . S
H1012 C1019 0.950 . S
C1013 C1011 1.387 . S
C1013 C1015 1.390 . S
C1013 H1017 0.950 . S
H1014 C1010 0.950 . S
C1015 C1013 1.390 . S
C1015 C1016 1.387 . S
C1015 H1018 0.950 . S
C1016 C1015 1.387 . S
C1016 C1019 1.387 . S
H1017 C1013 0.950 . S
H1018 C1015 0.950 . S
C1019 C1010 1.390 . S
C1019 H1012 0.950 . S
C1019 C1016 1.387 . S
C1020 C1021 1.387 . S
C1020 H1024 0.950 . S
C1020 C1029 1.390 . S
C1021 C1020 1.387 . S
C1021 C1023 1.387 . S
H1022 C1029 0.950 . S
C1023 C1021 1.387 . S
C1023 C1025 1.390 . S
C1023 H1027 0.950 . S
H1024 C1020 0.950 . S
C1025 C1023 1.390 . S
C1025 C1026 1.387 . S
C1025 H1028 0.950 . S
C1026 C1025 1.387 . S
C1026 C1029 1.387 . S
H1027 C1023 0.950 . S
H1028 C1025 0.950 . S
C1029 C1020 1.390 . S
C1029 H1022 0.950 . S
C1029 C1026 1.387 . S
C1030 C1031 1.387 . S
C1030 H1034 0.950 . S
C1030 C1039 1.390 . S
C1031 C1030 1.387 . S
C1031 C1033 1.387 . S
H1032 C1039 0.950 . S
C1033 C1031 1.387 . S
C1033 C1035 1.390 . S
C1033 H1037 0.950 . S
H1034 C1030 0.950 . S
C1035 C1033 1.390 . S
C1035 C1036 1.387 . S
C1035 H1038 0.950 . S
C1036 C1035 1.387 . S
C1036 C1039 1.387 . S
H1037 C1033 0.950 . S
H1038 C1035 0.950 . S
C1039 C1030 1.390 . S
C1039 H1032 0.950 . S
C1039 C1036 1.387 . S
C1040 C1041 1.387 . S
C1040 H1044 0.950 . S
C1040 C1049 1.390 1_565 S
C1041 C1040 1.387 . S
C1041 C1043 1.387 . S
H1042 C1049 0.950 . S
C1043 C1041 1.387 . S
C1043 C1045 1.390 1_565 S
C1043 H1047 0.950 . S
H1044 C1040 0.950 . S
C1045 C1043 1.390 1_545 S
C1045 C1046 1.387 . S
C1045 H1048 0.950 . S
C1046 C1045 1.387 . S
C1046 C1049 1.387 . S
H1047 C1043 0.950 . S
H1048 C1045 0.950 . S
C1049 C1040 1.390 1_545 S
C1049 H1042 0.950 . S
C1049 C1046 1.387 . S
C1050 C1051 1.387 . S
C1050 H1054 0.950 . S
C1050 C1059 1.390 . S
C1051 C1050 1.387 . S
C1051 C1053 1.387 . S
H1052 C1059 0.950 . S
C1053 C1051 1.387 . S
C1053 C1055 1.390 . S
C1053 H1057 0.950 . S
H1054 C1050 0.950 . S
C1055 C1053 1.390 . S
C1055 C1056 1.387 . S
C1055 H1058 0.950 . S
C1056 C1055 1.387 . S
C1056 C1059 1.387 . S
H1057 C1053 0.950 . S
H1058 C1055 0.950 . S
C1059 C1050 1.390 . S
C1059 H1052 0.950 . S
C1059 C1056 1.387 . S
C1060 C1061 1.387 . S
C1060 H1064 0.950 . S
C1060 C1069 1.390 1_564 S
C1061 C1060 1.387 . S
C1061 C1063 1.387 . S
H1062 C1069 0.950 . S
C1063 C1061 1.387 . S
C1063 C1065 1.390 1_564 S
C1063 H1067 0.950 . S
H1064 C1060 0.950 . S
C1065 C1063 1.390 1_546 S
C1065 C1066 1.387 . S
C1065 H1068 0.950 . S
C1066 C1065 1.387 . S
C1066 C1069 1.387 . S
H1067 C1063 0.950 . S
H1068 C1065 0.950 . S
C1069 C1060 1.390 1_546 S
C1069 H1062 0.950 . S
C1069 C1066 1.387 . S
C1070 C1071 1.387 . S
C1070 H1074 0.950 . S
C1070 C1079 1.390 . S
C1071 C1070 1.387 . S
C1071 C1073 1.387 . S
H1072 C1079 0.950 . S
C1073 C1071 1.387 . S
C1073 C1075 1.390 . S
C1073 H1077 0.950 . S
H1074 C1070 0.950 . S
C1075 C1073 1.390 . S
C1075 C1076 1.387 . S
C1075 H1078 0.950 . S
C1076 C1075 1.387 . S
C1076 C1079 1.387 . S
H1077 C1073 0.950 . S
H1078 C1075 0.950 . S
C1079 C1070 1.390 . S
C1079 H1072 0.950 . S
C1079 C1076 1.387 . S
C1080 C1081 1.387 . S
C1080 H1084 0.950 . S
C1080 C1089 1.390 1_565 S
C1081 C1080 1.387 . S
C1081 C1083 1.387 . S
H1082 C1089 0.950 . S
C1083 C1081 1.387 . S
C1083 C1085 1.390 1_565 S
C1083 H1087 0.950 . S
H1084 C1080 0.950 . S
C1085 C1083 1.390 1_545 S
C1085 C1086 1.387 . S
C1085 H1088 0.950 . S
C1086 C1085 1.387 . S
C1086 C1089 1.387 . S
H1087 C1083 0.950 . S
H1088 C1085 0.950 . S
C1089 C1080 1.390 1_545 S
C1089 H1082 0.950 . S
C1089 C1086 1.387 . S
C1090 C1091 1.387 . S
C1090 H1094 0.950 . S
C1090 C1099 1.390 . S
C1091 C1090 1.387 . S
C1091 C1093 1.387 . S
H1092 C1099 0.950 . S
C1093 C1091 1.387 . S
C1093 C1095 1.390 . S
C1093 H1097 0.950 . S
H1094 C1090 0.950 . S
C1095 C1093 1.390 . S
C1095 C1096 1.387 . S
C1095 H1098 0.950 . S
C1096 C1095 1.387 . S
C1096 C1099 1.387 . S
H1097 C1093 0.950 . S
H1098 C1095 0.950 . S
C1099 C1090 1.390 . S
C1099 H1092 0.950 . S
C1099 C1096 1.387 . S
C1100 C1101 1.387 . S
C1100 H1104 0.950 . S
C1100 C1109 1.390 1_546 S
C1101 C1100 1.387 . S
C1101 C1103 1.387 . S
H1102 C1109 0.950 . S
C1103 C1101 1.387 . S
C1103 C1105 1.390 1_546 S
C1103 H1107 0.950 . S
H1104 C1100 0.950 . S
C1105 C1103 1.390 1_564 S
C1105 C1106 1.387 . S
C1105 H1108 0.950 . S
C1106 C1105 1.387 . S
C1106 C1109 1.387 . S
H1107 C1103 0.950 . S
H1108 C1105 0.950 . S
C1109 C1100 1.390 1_564 S
C1109 H1102 0.950 . S
C1109 C1106 1.387 . S
C1110 C1111 1.387 . S
C1110 H1114 0.950 . S
C1110 C1119 1.390 . S
C1111 C1110 1.387 . S
C1111 C1113 1.387 . S
H1112 C1119 0.950 . S
C1113 C1111 1.387 . S
C1113 C1115 1.390 . S
C1113 H1117 0.950 . S
H1114 C1110 0.950 . S
C1115 C1113 1.390 . S
C1115 C1116 1.387 . S
C1115 H1118 0.950 . S
C1116 C1115 1.387 . S
C1116 C1119 1.387 . S
H1117 C1113 0.950 . S
H1118 C1115 0.950 . S
C1119 C1110 1.390 . S
C1119 H1112 0.950 . S
C1119 C1116 1.387 . S
C641 C29 1.578 . S
C646 C8 1.578 . S
C651 C48 1.578 . S
C656 C69 1.578 . S
C661 C109 1.578 . S
C666 C88 1.578 . S
C671 C128 1.578 . S
C676 C149 1.578 . S
C681 C189 1.574 . S
C686 C168 1.574 . S
C691 C229 1.574 . S
C696 C208 1.574 . S
C701 C269 1.577 . S
C706 C248 1.577 . S
C711 C288 1.578 . S
C716 C309 1.578 . S
C721 C328 1.574 . S
C726 C349 1.574 . S
C731 C368 1.578 . S
C736 C389 1.578 . S
C741 C429 1.574 . S
C746 C408 1.574 . S
C751 C469 1.574 . S
C756 C448 1.574 . S
C761 C488 1.574 . S
C766 C509 1.574 . S
C771 C549 1.574 . S
C776 C528 1.574 . S
C781 C568 1.578 . S
C786 C589 1.578 . S
C791 C629 1.574 . S
C796 C608 1.574 . S
C801 C31 2.049 . S
C806 C452 2.050 . S
C811 C57 1.510 . S
C816 C602 1.508 . S
C821 C111 2.050 . S
C826 C372 2.049 . S
C831 C137 1.510 . S
C836 C522 1.508 . S
C841 C191 2.050 . S
C846 C532 2.048 . S
C851 C442 1.510 . S
C856 C217 1.508 . S
C861 C271 2.050 . S
C866 C612 2.048 . S
C871 C297 1.508 . S
C876 C362 1.510 . S
C881 C151 2.048 . S
C886 C332 2.050 . S
C891 C71 2.048 . S
C896 C412 2.050 . S
C901 C492 2.050 . S
C906 C231 2.048 . S
C911 C311 2.049 . S
C916 C572 2.050 . S
C921 C322 1.508 . S
C926 C177 1.510 . S
C931 C257 1.510 . S
C936 C402 1.507 . S
C941 C97 1.508 . S
C946 C562 1.510 . S
C951 C17 1.508 . S
C956 C482 1.510 . S
C961 C12 2.043 . S
C966 C172 2.043 . S
C971 C42 1.641 . S
C976 C202 1.641 . S
C981 C92 2.043 . S
C986 C252 2.043 . S
C991 C122 1.641 . S
C996 C282 1.641 . S
C1001 C511 2.045 . S
C1006 C351 2.045 . S
C1011 C537 1.641 . S
C1016 C377 1.641 . S
C1021 C431 2.043 . S
C1026 C591 2.043 . S
C1031 C617 1.641 . S
C1036 C457 1.641 . S
C1041 C52 2.045 . S
C1046 C292 2.045 . S
C1051 C162 1.641 . S
C1056 C82 1.641 . S
C1061 C212 2.043 . S
C1066 C132 2.043 . S
C1071 C2 1.641 . S
C1076 C242 1.641 . S
C1081 C631 2.045 . S
C1086 C391 2.045 . S
C1091 C497 1.641 . S
C1096 C417 1.641 . S
C1101 C551 2.043 . S
C1106 C471 2.043 . S
C1111 C577 1.641 . S
C1116 C337 1.641 . S
