# Generated by pormake.
# Topology kag, (6)-cn, num edge types: 1
# Building blocks:
#     Node 0, Type 0, BuildingBlock: KUMBOL_clean_sbu_1, # of connection points: 6
#     Node 1, Type 0, BuildingBlock: KUMBOL_clean_sbu_1, # of connection points: 6
#     Node 2, Type 0, BuildingBlock: KUMBOL_clean_sbu_1, # of connection points: 6
#     Edge 3, Type (0, 0), BuildingBlock: FUNLAD_clean_linker_0, # of connection points: 2
#     Edge 4, Type (0, 0), BuildingBlock: FUNLAD_clean_linker_0, # of connection points: 2
#     Edge 5, Type (0, 0), BuildingBlock: FUNLAD_clean_linker_0, # of connection points: 2
#     Edge 6, Type (0, 0), BuildingBlock: FUNLAD_clean_linker_0, # of connection points: 2
#     Edge 7, Type (0, 0), BuildingBlock: FUNLAD_clean_linker_0, # of connection points: 2
#     Edge 8, Type (0, 0), BuildingBlock: FUNLAD_clean_linker_0, # of connection points: 2
#     Edge 9, Type (0, 0), BuildingBlock: FUNLAD_clean_linker_0, # of connection points: 2
#     Edge 10, Type (0, 0), BuildingBlock: FUNLAD_clean_linker_0, # of connection points: 2
#     Edge 11, Type (0, 0), BuildingBlock: FUNLAD_clean_linker_0, # of connection points: 2
# Relax obj value: 0.079
# Max RMSD: 0.173
# Mean RMSD: 0.116
data_MOF--net-kag--node1-KUMBOL_clean_sbu_1--edge1-FUNLAD_clean_linker_0
_symmetry_space_group_name_H-M    P1
_symmetry_Int_Tables_number       1
_symmetry_cell_setting            triclinic
loop_
_symmetry_equiv_pos_as_xyz
'x, y, z'
_cell_length_a     35.466334
_cell_length_b     45.06453
_cell_length_c     17.434868
_cell_angle_alpha  107.88817
_cell_angle_beta   96.635141
_cell_angle_gamma 101.26465
loop_
_atom_site_label
_atom_site_type_symbol
_atom_site_fract_x
_atom_site_fract_y
_atom_site_fract_z
_atom_type_partial_charge
C0 C 0.06938 0.4247 0.8203 0.0
C1 C 0.11527 0.40276 0.88703 0.0
C2 C 0.08741 0.42136 0.89086 0.0
C3 C 0.12661 0.38939 0.81186 0.0
C4 C 0.07909 0.40987 0.7439 0.0
C5 C 0.10865 0.39305 0.74045 0.0
N6 N 1.03991 0.44001 0.8254 0.0
C7 C 1.01659 0.43874 0.75597 0.0
C8 C 0.05749 0.41109 0.6729 0.0
C9 C 1.02563 0.42509 0.67887 0.0
Gd10 Gd 0.05648 0.56052 0.06676 0.0
Gd11 Gd 1.02825 0.46378 0.95765 0.0
N12 N 0.07574 0.43452 0.96242 0.0
C13 C 0.12993 0.39736 0.95838 0.0
C14 C 0.08811 0.42781 0.031 0.0
C15 C 0.11588 0.40959 0.03041 0.0
H16 H 0.077 0.43714 0.08644 0.0
H17 H 0.12635 0.40492 0.08534 0.0
H18 H 0.05563 0.58262 0.89612 0.0
H19 H 0.99087 0.44821 0.76009 0.0
H20 H 1.00928 0.59673 0.80552 0.0
H21 H 0.15134 0.38316 0.95799 0.0
H22 H 0.14837 0.3754 0.80784 0.0
H23 H 1.02441 0.57233 0.24256 0.0
H24 H 0.06407 0.40007 0.61303 0.0
H25 H 1.00768 0.42495 0.6241 0.0
H26 H 0.90235 0.60906 0.9478 0.0
H27 H 0.11678 0.38174 0.68243 0.0
H28 H 0.91677 0.60142 0.21754 0.0
H29 H 0.96809 0.58841 0.30159 0.0
N30 N 1.00477 0.57644 0.12737 0.0
C31 C 0.97811 0.5851 0.08178 0.0
C32 C 1.0023 0.5785 0.20635 0.0
C33 C 0.94157 0.59478 0.19193 0.0
C34 C 0.97048 0.58744 0.2396 0.0
C35 C 0.94529 0.59389 0.11218 0.0
H36 H 0.89184 0.60813 0.08422 0.0
N37 N 1.01707 0.57825 0.97951 0.0
C38 C 0.98402 0.58538 0.00483 0.0
C39 C 0.96581 0.59766 0.88228 0.0
C40 C 0.95722 0.59481 0.95638 0.0
C41 C 1.0273 0.58416 0.91139 0.0
C42 C 1.00143 0.593 0.86063 0.0
O43 O 0.09359 0.48644 0.01353 0.0
O44 O 0.1064 0.54 0.02121 0.0
O45 O 0.08724 0.60958 0.0826 0.0
O46 O 0.09051 0.59225 0.18466 0.0
O47 O 1.03472 0.48191 0.09591 0.0
O48 O 0.0732 0.53441 0.15157 0.0
O49 O 0.99965 0.52696 0.06943 0.0
O50 O 0.98393 0.49202 0.93953 0.0
O51 O 0.98529 0.4419 0.01612 0.0
O52 O 0.99218 0.41542 0.89441 0.0
O53 O 0.07116 0.54077 0.94096 0.0
O54 O 1.02003 0.49644 0.88443 0.0
C55 C 0.1181 0.51392 0.02117 0.0
C56 C 0.05581 0.50694 0.15821 0.0
C57 C 0.14818 0.62649 0.17547 0.0
C58 C 0.20838 0.65713 0.1531 0.0
C59 C 0.21163 0.62632 0.24517 0.0
C60 C 0.17092 0.6164 0.22976 0.0
C61 C 0.2303 0.64642 0.20701 0.0
C62 C 0.1672 0.64727 0.13809 0.0
C63 C 0.10494 0.61482 0.15688 0.0
C64 C 0.92349 0.60217 0.98467 0.0
C65 C 0.91757 0.60175 0.06248 0.0
H66 H 0.946 0.60482 0.84325 0.0
C67 C 0.97296 0.50955 0.00394 0.0
C68 C 0.04908 0.51757 0.87648 0.0
C69 C 0.92939 0.40492 0.92643 0.0
C70 C 0.86838 0.36693 0.91828 0.0
C71 C 0.86791 0.40967 0.86044 0.0
C72 C 0.90857 0.42034 0.88406 0.0
C73 C 0.84784 0.38312 0.87732 0.0
C74 C 0.90928 0.37837 0.94354 0.0
C75 C 0.9721 0.41586 0.9524 0.0
H76 H 0.2288 0.61831 0.28677 0.0
H77 H 0.15737 0.6006 0.26005 0.0
H78 H 0.26198 0.65393 0.22049 0.0
H79 H 0.15007 0.65518 0.09608 0.0
H80 H 0.85194 0.42175 0.82806 0.0
H81 H 0.92378 0.44041 0.86884 0.0
H82 H 0.81643 0.37484 0.8566 0.0
H83 H 0.9256 0.36668 0.97669 0.0
C84 C 0.63298 0.96308 0.09363 0.0
C85 C 0.65971 0.93529 0.97764 0.0
C86 C 0.6399 0.95859 0.01448 0.0
C87 C 0.67182 0.91609 0.02086 0.0
C88 C 0.64595 0.94433 0.13785 0.0
C89 C 0.66484 0.92053 0.10063 0.0
N90 N 0.61475 0.98643 0.12824 0.0
C91 C 0.6123 0.99426 0.20925 0.0
C92 C 0.64041 0.95057 0.21893 0.0
C93 C 0.62409 0.97601 0.25518 0.0
Gd94 Gd 0.47751 0.98633 0.96066 0.0
Gd95 Gd 0.5953 0.01486 0.04392 0.0
N96 N 0.62645 0.97662 0.97278 0.0
C97 C 0.66643 0.9318 0.89811 0.0
C98 C 0.63404 0.97415 0.89642 0.0
C99 C 0.6538 0.95149 0.85761 0.0
H100 H 0.6249 0.98965 0.86543 0.0
H101 H 0.65937 0.94928 0.79661 0.0
H102 H 0.43705 0.98175 0.12452 0.0
H103 H 0.60273 0.01528 0.23976 0.0
H104 H 0.39934 0.01153 0.21688 0.0
H105 H 0.68156 0.91417 0.86769 0.0
H106 H 0.68676 0.89785 0.9933 0.0
H107 H 0.46577 0.00532 0.79192 0.0
H108 H 0.64993 0.93669 0.25494 0.0
H109 H 0.62136 0.98203 0.31903 0.0
H110 H 0.36632 0.08644 0.09145 0.0
H111 H 0.67476 0.90577 0.13354 0.0
H112 H 0.40068 0.07772 0.82847 0.0
H113 H 0.43576 0.04251 0.74044 0.0
N114 N 0.44877 0.02024 0.90768 0.0
C115 C 0.42794 0.03801 0.95507 0.0
C116 C 0.45061 0.02074 0.83032 0.0
C117 C 0.41385 0.06152 0.8511 0.0
C118 C 0.43358 0.04167 0.80118 0.0
C119 C 0.41034 0.05953 0.9287 0.0
H120 H 0.37552 0.09449 0.96075 0.0
N121 N 0.438 0.01073 0.04824 0.0
C122 C 0.42281 0.03339 0.0283 0.0
C123 C 0.39245 0.04301 0.14781 0.0
C124 C 0.39982 0.05031 0.0777 0.0
C125 C 0.42835 1.00185 0.11302 0.0
C126 C 0.40623 0.01828 0.16473 0.0
O127 O 0.56551 0.96227 0.96831 0.0
O128 O 0.50831 0.95648 0.01526 0.0
O129 O 0.42133 0.95184 0.93725 0.0
O130 O 0.45561 0.94914 0.8421 0.0
O131 O 0.57515 0.02012 0.92236 0.0
O132 O 0.51903 0.97909 0.87048 0.0
O133 O 0.50838 0.03668 0.96888 0.0
O134 O 0.5573 0.0499 0.07964 0.0
O135 O 0.6377 0.05068 0.01565 0.0
O136 O 0.64864 0.04156 0.13161 0.0
O137 O 0.50047 0.9861 0.08789 0.0
O138 O 0.55793 0.02603 0.14204 0.0
C139 C 0.53635 0.94425 0.98622 0.0
C140 C 0.54707 1.00087 0.8611 0.0
C141 C 0.42525 0.8999 0.85567 0.0
C142 C 0.39915 0.85086 0.88461 0.0
C143 C 0.4529 0.85348 0.81028 0.0
C144 C 0.45228 0.88486 0.81551 0.0
C145 C 0.4267 0.83661 0.84483 0.0
C146 C 0.39834 0.8825 0.88919 0.0
C147 C 0.42688 0.93416 0.86686 0.0
C148 C 0.38376 0.07301 0.05392 0.0
C149 C 0.38896 0.07757 0.97946 0.0
H150 H 0.37492 0.05544 0.1874 0.0
C151 C 0.53594 0.05831 0.02711 0.0
C152 C 0.52616 0.0075 0.15098 0.0
C153 C 0.6993 0.08137 0.11115 0.0
C154 C 0.7457 0.12596 0.09571 0.0
C155 C 0.76358 0.10273 0.19912 0.0
C156 C 0.72699 0.08102 0.1752 0.0
C157 C 0.77301 0.12499 0.15952 0.0
C158 C 0.70868 0.10412 0.07188 0.0
C159 C 0.66122 0.05755 0.08523 0.0
H160 H 0.47407 0.8423 0.78002 0.0
H161 H 0.47353 0.89744 0.7892 0.0
H162 H 0.42782 0.81225 0.83993 0.0
H163 H 0.37762 0.89386 0.9209 0.0
H164 H 0.78477 0.10222 0.24837 0.0
H165 H 0.72054 0.06373 0.20637 0.0
H166 H 0.80157 0.1417 0.1793 0.0
H167 H 0.68757 0.10458 0.02233 0.0
C168 C 0.64317 0.5885 0.13908 0.0
C169 C 0.6883 0.59191 0.04543 0.0
C170 C 0.6503 0.5817 0.05931 0.0
C171 C 0.719 0.60897 0.11255 0.0
C172 C 0.67396 0.6057 0.20651 0.0
C173 C 0.71186 0.61584 0.1928 0.0
N174 N 0.60629 0.57804 0.1507 0.0
C175 C 0.59791 0.58504 0.22776 0.0
C176 C 0.66576 0.6122 0.28583 0.0
C177 C 0.62753 0.60196 0.29644 0.0
Gd178 Gd 0.52416 0.4536 0.95044 0.0
Gd179 Gd 0.5592 0.55015 0.03103 0.0
N180 N 0.62033 0.56398 0.99544 0.0
C181 C 0.69437 0.58436 0.96443 0.0
C182 C 0.62569 0.55777 0.9164 0.0
C183 C 0.66286 0.56745 0.89967 0.0
H184 H 0.60141 0.54562 0.86619 0.0
H185 H 0.66714 0.56203 0.83684 0.0
H186 H 0.4809 0.45977 0.11453 0.0
H187 H 0.56824 0.57822 0.23643 0.0
H188 H 0.41478 0.44417 0.14287 0.0
H189 H 0.72316 0.59169 0.95123 0.0
H190 H 0.74842 0.61689 0.10306 0.0
H191 H 0.51613 0.42414 0.74558 0.0
H192 H 0.68862 0.62536 0.33921 0.0
H193 H 0.6208 0.60734 0.35749 0.0
H194 H 0.33456 0.38801 0.87605 0.0
H195 H 0.73588 0.62901 0.2439 0.0
H196 H 0.39581 0.37721 0.64121 0.0
H197 H 0.46398 0.39453 0.62396 0.0
N198 N 0.4775 0.42519 0.83045 0.0
C199 C 0.44043 0.41515 0.84158 0.0
C200 C 0.48631 0.41757 0.75372 0.0
C201 C 0.4185 0.39055 0.6948 0.0
C202 C 0.45692 0.40039 0.68477 0.0
C203 C 0.40985 0.39772 0.77385 0.0
H204 H 0.34787 0.3747 0.73567 0.0
N205 N 0.46264 0.44057 0.98517 0.0
C206 C 0.43286 0.42264 0.92109 0.0
C207 C 0.38811 0.42111 0.01513 0.0
C208 C 0.39463 0.41287 0.9344 0.0
C209 C 0.45682 0.44743 0.06403 0.0
C210 C 0.41941 0.43823 0.0802 0.0
O211 O 0.60643 0.5219 0.03573 0.0
O212 O 0.58548 0.47227 0.93273 0.0
O213 O 0.53485 0.42288 0.02099 0.0
O214 O 0.53017 0.40523 0.88928 0.0
O215 O 0.53026 0.52265 0.8985 0.0
O216 O 0.54838 0.47456 0.85948 0.0
O217 O 0.47779 0.48222 0.94232 0.0
O218 O 0.49769 0.53099 0.04808 0.0
O219 O 0.54509 0.58052 0.96152 0.0
O220 O 0.55535 0.59893 0.09391 0.0
O221 O 0.55459 0.48163 0.08164 0.0
O222 O 0.53478 0.52876 0.12108 0.0
C223 C 0.61363 0.49619 0.98397 0.0
C224 C 0.53902 0.49907 0.84298 0.0
C225 C 0.56767 0.38251 0.96687 0.0
C226 C 0.58763 0.33529 0.98325 0.0
C227 C 0.63619 0.38167 0.98233 0.0
C228 C 0.60684 0.39749 0.97196 0.0
C229 C 0.62678 0.35086 0.98794 0.0
C230 C 0.55818 0.3515 0.97254 0.0
C231 C 0.53637 0.39901 0.95716 0.0
C232 C 0.36415 0.39558 0.86699 0.0
C233 C 0.37173 0.38804 0.787 0.0
H234 H 0.35913 0.41414 0.02789 0.0
C235 C 0.46992 0.5075 0.99431 0.0
C236 C 0.54473 0.5044 0.13726 0.0
C237 C 0.51331 0.62067 0.02349 0.0
C238 C 0.48855 0.66595 0.00664 0.0
C239 C 0.44643 0.62256 0.03594 0.0
C240 C 0.47675 0.60703 0.0369 0.0
C241 C 0.45224 0.65178 0.02143 0.0
C242 C 0.51913 0.65003 0.00806 0.0
C243 C 0.54568 0.60469 0.02653 0.0
H244 H 0.6664 0.3933 0.98589 0.0
H245 H 0.61467 0.42138 0.96805 0.0
H246 H 0.65016 0.33908 0.9948 0.0
H247 H 0.52787 0.34025 0.96983 0.0
H248 H 0.41836 0.61202 0.04712 0.0
H249 H 0.47179 0.58452 0.04876 0.0
H250 H 0.42828 0.66348 0.02312 0.0
H251 H 0.54732 0.66021 0.99657 0.0
C252 C 1.02251 0.50734 0.72863 0.0
C253 C 0.05451 0.51807 0.79404 0.0
C254 C 1.02793 0.50764 0.65064 0.0
C255 C 0.06554 0.51894 0.63663 0.0
C256 C 0.0973 0.53052 0.7028 0.0
C257 C 0.09189 0.53001 0.78064 0.0
C258 C 0.07235 0.52037 0.55499 0.0
C259 C 0.04931 0.5003 0.48362 0.0
C260 C 0.05466 0.50204 0.40141 0.0
C261 C 1.03708 0.47502 0.33155 0.0
C262 C 1.0387 0.47624 0.25281 0.0
C263 C 0.05772 0.50469 0.24179 0.0
H264 H 0.08766 0.55198 0.44245 0.0
C265 C 0.07611 0.53158 0.31175 0.0
C266 C 0.07451 0.53034 0.39061 0.0
H267 H 0.09081 0.55399 0.30584 0.0
H268 H 0.99317 0.4991 0.73798 0.0
H269 H 1.00244 0.49972 0.60217 0.0
H270 H 0.12648 0.53977 0.69414 0.0
H271 H 0.11703 0.53872 0.83026 0.0
H272 H 0.09808 0.53775 0.5541 0.0
H273 H 1.02584 0.48104 0.4848 0.0
H274 H 1.02148 0.45294 0.33782 0.0
H275 H 1.02418 0.45501 0.20061 0.0
C276 C 0.54165 0.03319 0.30478 0.0
C277 C 0.52217 0.00695 0.23435 0.0
C278 C 0.54039 0.03128 0.3832 0.0
C279 C 0.51934 0.00309 0.39266 0.0
C280 C 0.49863 0.97746 0.3223 0.0
C281 C 0.50024 0.97924 0.24413 0.0
C282 C 0.5178 0.99944 0.47436 0.0
C283 C 0.54671 0.01474 0.5406 0.0
C284 C 0.54626 0.01011 0.62172 0.0
C285 C 0.57152 0.0333 0.6914 0.0
C286 C 0.5722 0.03007 0.76878 0.0
C287 C 0.5477 0.00341 0.77839 0.0
H288 H 0.50343 0.9639 0.57912 0.0
C289 C 0.52303 0.97978 0.70854 0.0
C290 C 0.52236 0.983 0.63111 0.0
H291 H 0.50409 0.95875 0.71359 0.0
H292 H 0.5584 0.05502 0.2992 0.0
H293 H 0.55568 0.05198 0.43598 0.0
H294 H 0.48191 0.95558 0.32768 0.0
H295 H 0.48507 0.95846 0.19131 0.0
H296 H 0.4924 0.98253 0.47831 0.0
H297 H 0.57209 0.0315 0.53578 0.0
H298 H 0.59055 0.05426 0.68619 0.0
H299 H 0.59156 0.04877 0.82123 0.0
C300 C 0.55326 0.47987 0.70067 0.0
C301 C 0.53606 0.49962 0.7581 0.0
C302 C 0.55107 0.48117 0.62116 0.0
C303 C 0.53179 0.50245 0.59774 0.0
C304 C 0.51413 0.52175 0.65492 0.0
C305 C 0.51643 0.52054 0.73429 0.0
C306 C 0.52863 0.50486 0.5142 0.0
C307 C 0.55423 0.49712 0.46459 0.0
C308 C 0.5512 0.49978 0.38129 0.0
C309 C 0.56901 0.48071 0.32396 0.0
C310 C 0.56694 0.4823 0.24495 0.0
C311 C 0.54739 0.50337 0.22168 0.0
H312 H 0.51886 0.53705 0.40133 0.0
C313 C 0.52997 0.52283 0.27923 0.0
C314 C 0.53196 0.52118 0.35836 0.0
H315 H 0.51454 0.5392 0.26306 0.0
H316 H 0.56874 0.46361 0.71726 0.0
H317 H 0.56407 0.46517 0.57832 0.0
H318 H 0.49881 0.53815 0.63844 0.0
H319 H 0.50269 0.536 0.77689 0.0
H320 H 0.50459 0.51402 0.49408 0.0
H321 H 0.57826 0.48793 0.48467 0.0
H322 H 0.5843 0.46423 0.34007 0.0
H323 H 0.58081 0.46702 0.2022 0.0
C324 C 0.17619 0.48838 0.00765 0.0
C325 C 0.16125 0.51598 0.02659 0.0
C326 C 0.21653 0.49069 0.01018 0.0
C327 C 0.24338 0.52087 0.03278 0.0
C328 C 0.22858 0.5485 0.05373 0.0
C329 C 0.18826 0.54612 0.0499 0.0
C330 C 0.28687 0.52466 0.03773 0.0
C331 C 0.3033 0.50206 0.9928 0.0
C332 C 0.34657 0.50581 0.99436 0.0
C333 C 0.3589 0.48644 0.92678 0.0
C334 C 0.39871 0.48791 0.92604 0.0
C335 C 0.42775 0.50823 0.99382 0.0
H336 H 0.36758 0.54184 0.11571 0.0
C337 C 0.41564 0.52799 0.0614 0.0
C338 C 0.37561 0.52687 0.06169 0.0
H339 H 0.43703 0.54384 0.11498 0.0
H340 H 0.15675 0.46491 0.99023 0.0
H341 H 0.22654 0.46876 0.99566 0.0
H342 H 0.24828 0.57216 0.0723 0.0
H343 H 0.17833 0.5681 0.0656 0.0
H344 H 0.30576 0.54774 0.07647 0.0
H345 H 0.28406 0.48009 0.94905 0.0
H346 H 0.33755 0.46995 0.87387 0.0
H347 H 0.40667 0.47275 0.87213 0.0
C348 C 0.73238 0.17042 0.04648 0.0
C349 C 0.75642 0.14978 0.05444 0.0
C350 C 0.74464 0.19484 0.0143 0.0
C351 C 0.78101 0.19872 0.98881 0.0
C352 C 0.804 0.17704 0.9933 0.0
C353 C 0.79206 0.15304 0.02649 0.0
C354 C 0.79652 0.22516 0.95835 0.0
C355 C 0.78894 0.25444 0.98461 0.0
C356 C 0.80897 0.28237 0.9634 0.0
C357 C 0.79218 0.30877 0.97344 0.0
C358 C 0.81112 0.33611 0.95813 0.0
C359 C 0.84754 0.33776 0.93309 0.0
H360 H 0.86031 0.26494 0.93226 0.0
C361 C 0.8643 0.31133 0.9229 0.0
C362 C 0.84546 0.28409 0.93828 0.0
H363 H 0.89214 0.31164 0.90295 0.0
H364 H 0.70469 0.16829 0.06742 0.0
H365 H 0.72566 0.21057 0.0096 0.0
H366 H 0.83192 0.17927 0.97333 0.0
H367 H 0.8109 0.13717 0.03107 0.0
H368 H 0.81707 0.22073 0.91717 0.0
H369 H 0.7682 0.25864 0.02555 0.0
H370 H 0.76439 0.30835 0.99373 0.0
H371 H 0.79761 0.3562 0.96754 0.0
C372 C 0.50958 0.89443 0.01754 0.0
C373 C 0.53583 0.91047 0.98012 0.0
C374 C 0.50889 0.86289 0.01385 0.0
C375 C 0.53452 0.84644 0.97271 0.0
C376 C 0.56076 0.86237 0.93521 0.0
C377 C 0.56093 0.89384 0.93762 0.0
C378 C 0.53526 0.81324 0.97131 0.0
C379 C 0.50262 0.79141 0.9685 0.0
C380 C 0.50171 0.7586 0.97202 0.0
C381 C 0.46653 0.73476 0.93977 0.0
C382 C 0.46289 0.70452 0.94831 0.0
C383 C 0.49412 0.69735 0.99109 0.0
H384 H 0.5609 0.76921 0.03953 0.0
C385 C 0.52977 0.72101 0.0218 0.0
C386 C 0.53356 0.75126 0.01228 0.0
H387 H 0.55435 0.71668 0.056 0.0
H388 H 0.48964 0.90633 0.05068 0.0
H389 H 0.48885 0.85174 0.04507 0.0
H390 H 0.58084 0.85031 0.90303 0.0
H391 H 0.58045 0.90499 0.90565 0.0
H392 H 0.56302 0.8065 0.97021 0.0
H393 H 0.47463 0.79756 0.96134 0.0
H394 H 0.44148 0.73966 0.90848 0.0
H395 H 0.43526 0.68686 0.92191 0.0
C396 C 0.90287 0.50087 0.93481 0.0
C397 C 0.9305 0.50736 0.0063 0.0
C398 C 0.8632 0.50008 0.93843 0.0
C399 C 0.8501 0.50574 0.01396 0.0
C400 C 0.87796 0.51212 0.08506 0.0
C401 C 0.91738 0.51274 0.08127 0.0
C402 C 0.80844 0.50644 0.02286 0.0
C403 C 0.77693 0.49414 0.96064 0.0
C404 C 0.7353 0.49463 0.97053 0.0
C405 C 0.70446 0.47421 0.90643 0.0
C406 C 0.66521 0.47429 0.9114 0.0
C407 C 0.65541 0.49506 0.98053 0.0
H408 H 0.74785 0.53196 0.09059 0.0
C409 C 0.68613 0.5153 0.04516 0.0
C410 C 0.72545 0.51528 0.04017 0.0
H411 H 0.67985 0.53137 0.09987 0.0
H412 H 0.91208 0.49698 0.87613 0.0
H413 H 0.84327 0.49573 0.88214 0.0
H414 H 0.86921 0.5167 0.1443 0.0
H415 H 0.93769 0.5175 0.13746 0.0
H416 H 0.8037 0.51666 0.08488 0.0
H417 H 0.78127 0.48197 0.89937 0.0
H418 H 0.71074 0.45807 0.85174 0.0
H419 H 0.64254 0.45838 0.86021 0.0
C420 C 0.21722 0.70627 0.11082 0.0
C421 C 0.22893 0.67844 0.11286 0.0
C422 C 0.23881 0.72761 0.07876 0.0
C423 C 0.27241 0.72129 0.04733 0.0
C424 C 0.28318 0.69289 0.04732 0.0
C425 C 0.26179 0.67177 0.07963 0.0
C426 C 0.29834 0.74381 0.01726 0.0
C427 C 0.2914 0.77121 0.00925 0.0
C428 C 0.31961 0.79298 0.98151 0.0
C429 C 0.30575 0.81168 0.93864 0.0
C430 C 0.3316 0.83123 0.90879 0.0
C431 C 0.37184 0.83253 0.9218 0.0
H432 H 0.37227 0.78282 0.03405 0.0
C433 C 0.38586 0.81505 0.96813 0.0
C434 C 0.36015 0.79561 -0.0021 0.0
H435 H 0.41683 0.81641 0.98134 0.0
H436 H 0.19214 0.71212 0.13657 0.0
H437 H 0.22938 0.74918 0.08083 0.0
H438 H 0.30874 0.6872 0.02337 0.0
H439 H 0.27122 0.65027 0.07925 0.0
H440 H 0.32478 0.73709 0.00014 0.0
H441 H 0.26403 0.77751 0.01983 0.0
H442 H 0.27475 0.81051 0.9263 0.0
H443 H 0.31998 0.84451 0.87343 0.0
C444 C 0.60206 0.29341 0.0435 0.0
C445 C 0.57775 0.30225 0.98893 0.0
C446 C 0.59333 0.26226 0.04762 0.0
C447 C 0.55997 0.23893 0.99685 0.0
C448 C 0.53549 0.24797 0.9432 0.0
C449 C 0.54422 0.27909 0.93912 0.0
C450 C 0.54904 0.20518 -0.0021 0.0
C451 C 0.57276 0.19129 0.03455 0.0
C452 C 0.56162 0.15719 0.0328 0.0
C453 C 0.58329 0.14794 0.09051 0.0
C454 C 0.57469 0.11608 0.08969 0.0
C455 C 0.54428 0.09249 0.03056 0.0
H456 H 0.51455 0.13894 0.92586 0.0
C457 C 0.52281 0.10167 0.97248 0.0
C458 C 0.53129 0.13347 0.97338 0.0
H459 H 0.49975 0.08417 0.92508 0.0
H460 H 0.62774 0.31073 0.08403 0.0
H461 H 0.61267 0.25698 0.09149 0.0
H462 H 0.50953 0.23075 0.90338 0.0
H463 H 0.525 0.28478 0.89569 0.0
H464 H 0.51985 0.19118 0.96589 0.0
H465 H 0.60175 0.20519 0.06786 0.0
H466 H 0.60712 0.16544 0.13653 0.0
H467 H 0.5922 0.10994 0.13495 0.0
loop_
_geom_bond_atom_site_label_1
_geom_bond_atom_site_label_2
_geom_bond_distance
_geom_bond_site_symmetry_2
_ccdc_geom_bond_type
C0 C2 1.422 . S
C0 C4 1.415 . S
C0 N6 1.369 . S
C1 C2 1.421 . S
C1 C3 1.417 . S
C1 C13 1.422 1_556 S
C2 C0 1.422 . S
C2 C1 1.421 . S
C2 N12 1.359 . S
C3 C1 1.417 . S
C3 C5 1.329 . S
C3 H22 0.930 . S
C4 C0 1.415 . S
C4 C5 1.437 . S
C4 C8 1.413 . S
C5 C3 1.329 . S
C5 C4 1.437 . S
C5 H27 0.929 . S
N6 C0 1.369 . S
N6 C7 1.338 1_455 S
N6 Gd11 2.622 1_455 S
C7 N6 1.338 1_655 S
C7 C9 1.378 1_655 S
C7 H19 0.929 . S
C8 C4 1.413 . S
C8 C9 1.348 . S
C8 H24 0.931 . S
C9 C7 1.378 1_455 S
C9 C8 1.348 . S
C9 H25 0.930 . S
Gd10 N30 2.622 1_455 S
Gd10 N37 2.570 1_455 S
Gd10 O44 2.353 . S
Gd10 O45 2.468 1_554 S
Gd10 O46 2.427 . S
Gd10 O48 2.388 . S
Gd10 O49 2.386 1_455 S
Gd10 O53 2.306 1_454 S
Gd10 C63 2.805 . S
Gd11 N6 2.622 1_655 S
Gd11 N12 2.570 1_655 S
Gd11 O43 2.386 1_655 S
Gd11 O47 2.305 1_656 S
Gd11 O50 2.353 . S
Gd11 O51 2.468 1_556 S
Gd11 O52 2.427 . S
Gd11 O54 2.388 . S
Gd11 C75 2.805 . S
N12 C2 1.359 . S
N12 Gd11 2.570 1_455 S
N12 C14 1.343 1_556 S
C13 C1 1.422 1_554 S
C13 C15 1.321 . S
C13 H21 0.931 . S
C14 N12 1.343 1_554 S
C14 C15 1.390 . S
C14 H16 0.931 . S
C15 C13 1.321 . S
C15 C14 1.390 . S
C15 H17 0.930 . S
H16 C14 0.931 . S
H17 C15 0.930 . S
H18 C41 0.931 . S
H19 C7 0.929 . S
H20 C42 0.930 . S
H21 C13 0.931 . S
H22 C3 0.930 . S
H23 C32 0.929 . S
H24 C8 0.931 . S
H25 C9 0.930 . S
H26 C64 0.930 . S
H27 C5 0.929 . S
H28 C33 0.931 . S
H29 C34 0.935 . S
N30 Gd10 2.622 1_655 S
N30 C31 1.369 . S
N30 C32 1.338 1_655 S
C31 N30 1.369 . S
C31 C35 1.415 . S
C31 C38 1.422 . S
C32 H23 0.929 . S
C32 N30 1.338 1_455 S
C32 C34 1.378 1_455 S
C33 H28 0.931 . S
C33 C34 1.348 . S
C33 C35 1.413 . S
C34 H29 0.935 . S
C34 C32 1.378 1_655 S
C34 C33 1.348 . S
C35 C31 1.415 . S
C35 C33 1.413 . S
C35 C65 1.437 . S
H36 C65 0.929 . S
N37 Gd10 2.570 1_655 S
N37 C38 1.359 . S
N37 C41 1.343 1_554 S
C38 C31 1.422 . S
C38 N37 1.359 . S
C38 C40 1.421 . S
C39 C40 1.422 1_556 S
C39 C42 1.321 . S
C39 H66 0.931 . S
C40 C38 1.421 . S
C40 C39 1.422 1_554 S
C40 C64 1.417 . S
C41 H18 0.931 . S
C41 N37 1.343 1_556 S
C41 C42 1.390 . S
C42 H20 0.930 . S
C42 C39 1.321 . S
C42 C41 1.390 . S
O43 Gd11 2.386 1_455 S
O43 C55 1.265 1_556 S
O44 Gd10 2.353 . S
O44 C55 1.242 . S
O45 Gd10 2.468 1_556 S
O45 C63 1.263 1_556 S
O46 Gd10 2.427 . S
O46 C63 1.252 . S
O47 Gd11 2.305 1_454 S
O47 C56 1.259 . S
O48 Gd10 2.388 . S
O48 C56 1.252 . S
O49 Gd10 2.386 1_655 S
O49 C67 1.262 1_554 S
O50 Gd11 2.353 . S
O50 C67 1.244 . S
O51 Gd11 2.468 1_554 S
O51 C75 1.263 1_554 S
O52 Gd11 2.427 . S
O52 C75 1.252 . S
O53 Gd10 2.306 1_656 S
O53 C68 1.260 . S
O54 Gd11 2.388 . S
O54 C68 1.252 . S
C55 O43 1.265 1_554 S
C55 O44 1.242 . S
C56 O47 1.259 . S
C56 O48 1.252 . S
C57 C60 1.394 . S
C57 C62 1.370 . S
C57 C63 1.500 . S
C58 C61 1.383 . S
C58 C62 1.395 . S
C59 C60 1.396 . S
C59 C61 1.365 . S
C59 H76 0.929 . S
C60 C57 1.394 . S
C60 C59 1.396 . S
C60 H77 0.930 . S
C61 C58 1.383 . S
C61 C59 1.365 . S
C61 H78 0.931 . S
C62 C57 1.370 . S
C62 C58 1.395 . S
C62 H79 0.930 1_554 S
C63 Gd10 2.805 . S
C63 O45 1.263 1_554 S
C63 O46 1.252 . S
C63 C57 1.500 . S
C64 H26 0.930 . S
C64 C40 1.417 . S
C64 C65 1.329 . S
C65 C35 1.437 . S
C65 H36 0.929 . S
C65 C64 1.329 . S
H66 C39 0.931 . S
C67 O49 1.262 1_556 S
C67 O50 1.244 . S
C68 O53 1.260 . S
C68 O54 1.252 . S
C69 C72 1.394 . S
C69 C74 1.370 . S
C69 C75 1.500 . S
C70 C73 1.383 . S
C70 C74 1.395 . S
C71 C72 1.396 . S
C71 C73 1.365 . S
C71 H80 0.929 . S
C72 C69 1.394 . S
C72 C71 1.396 . S
C72 H81 0.930 . S
C73 C70 1.383 . S
C73 C71 1.365 . S
C73 H82 0.931 . S
C74 C69 1.370 . S
C74 C70 1.395 . S
C74 H83 0.930 1_556 S
C75 Gd11 2.805 . S
C75 O51 1.263 1_556 S
C75 O52 1.252 . S
C75 C69 1.500 . S
H76 C59 0.929 . S
H77 C60 0.930 . S
H78 C61 0.931 . S
H79 C62 0.930 1_556 S
H80 C71 0.929 . S
H81 C72 0.930 . S
H82 C73 0.931 . S
H83 C74 0.930 1_554 S
C84 C86 1.422 . S
C84 C88 1.415 . S
C84 N90 1.369 1_565 S
C85 C86 1.421 1_556 S
C85 C87 1.417 1_556 S
C85 C97 1.422 . S
C86 C84 1.422 . S
C86 C85 1.421 1_554 S
C86 N96 1.359 1_554 S
C87 C85 1.417 1_554 S
C87 C89 1.329 . S
C87 H106 0.930 . S
C88 C84 1.415 . S
C88 C89 1.437 . S
C88 C92 1.413 . S
C89 C87 1.329 . S
C89 C88 1.437 . S
C89 H111 0.929 . S
N90 C84 1.369 1_545 S
N90 C91 1.338 . S
N90 Gd95 2.622 . S
C91 N90 1.338 . S
C91 C93 1.378 . S
C91 H103 0.929 . S
C92 C88 1.413 . S
C92 C93 1.348 1_565 S
C92 H108 0.931 . S
C93 C91 1.378 . S
C93 C92 1.348 1_545 S
C93 H109 0.930 . S
Gd94 N114 2.622 . S
Gd94 N121 2.570 1_566 S
Gd94 O128 2.353 . S
Gd94 O129 2.468 1_556 S
Gd94 O130 2.427 . S
Gd94 O132 2.388 . S
Gd94 O133 2.386 1_565 S
Gd94 O137 2.307 1_566 S
Gd94 C147 2.805 . S
Gd95 N90 2.622 . S
Gd95 N96 2.570 1_544 S
Gd95 O127 2.386 1_545 S
Gd95 O131 2.307 1_544 S
Gd95 O134 2.353 . S
Gd95 O135 2.468 1_554 S
Gd95 O136 2.427 . S
Gd95 O138 2.388 . S
Gd95 C159 2.805 . S
N96 C86 1.359 1_556 S
N96 Gd95 2.570 1_566 S
N96 C98 1.343 . S
C97 C85 1.422 . S
C97 C99 1.321 . S
C97 H105 0.931 . S
C98 N96 1.343 . S
C98 C99 1.390 . S
C98 H100 0.931 . S
C99 C97 1.321 . S
C99 C98 1.390 . S
C99 H101 0.930 . S
H100 C98 0.931 . S
H101 C99 0.930 . S
H102 C125 0.931 . S
H103 C91 0.929 . S
H104 C126 0.930 . S
H105 C97 0.931 . S
H106 C87 0.930 . S
H107 C116 0.929 . S
H108 C92 0.931 . S
H109 C93 0.930 . S
H110 C148 0.930 . S
H111 C89 0.929 . S
H112 C117 0.931 . S
H113 C118 0.930 . S
N114 Gd94 2.622 . S
N114 C115 1.369 1_565 S
N114 C116 1.338 . S
C115 N114 1.369 1_545 S
C115 C119 1.415 . S
C115 C122 1.422 . S
C116 H107 0.929 . S
C116 N114 1.338 . S
C116 C118 1.378 . S
C117 H112 0.931 . S
C117 C118 1.348 1_545 S
C117 C119 1.413 . S
C118 H113 0.930 . S
C118 C116 1.378 . S
C118 C117 1.348 1_565 S
C119 C115 1.415 . S
C119 C117 1.413 . S
C119 C149 1.437 . S
H120 C149 0.929 . S
N121 Gd94 2.570 1_544 S
N121 C122 1.359 1_554 S
N121 C125 1.343 . S
C122 C115 1.422 . S
C122 N121 1.359 1_556 S
C122 C124 1.421 1_556 S
C123 C124 1.422 . S
C123 C126 1.321 . S
C123 H150 0.931 . S
C124 C122 1.421 1_554 S
C124 C123 1.422 . S
C124 C148 1.417 1_554 S
C125 H102 0.931 . S
C125 N121 1.343 . S
C125 C126 1.390 . S
C126 H104 0.930 . S
C126 C123 1.321 . S
C126 C125 1.390 . S
O127 Gd95 2.386 1_565 S
O127 C139 1.265 1_554 S
O128 Gd94 2.353 . S
O128 C139 1.242 . S
O129 Gd94 2.468 1_554 S
O129 C147 1.263 1_554 S
O130 Gd94 2.427 . S
O130 C147 1.252 . S
O131 Gd95 2.307 1_566 S
O131 C140 1.261 . S
O132 Gd94 2.388 . S
O132 C140 1.252 . S
O133 Gd94 2.386 1_545 S
O133 C151 1.265 1_556 S
O134 Gd95 2.353 . S
O134 C151 1.242 . S
O135 Gd95 2.468 1_556 S
O135 C159 1.263 1_556 S
O136 Gd95 2.427 . S
O136 C159 1.252 . S
O137 Gd94 2.307 1_544 S
O137 C152 1.261 . S
O138 Gd95 2.388 . S
O138 C152 1.252 . S
C139 O127 1.265 1_556 S
C139 O128 1.242 . S
C140 O131 1.261 . S
C140 O132 1.252 . S
C141 C144 1.394 . S
C141 C146 1.370 1_556 S
C141 C147 1.500 . S
C142 C145 1.383 1_554 S
C142 C146 1.395 . S
C143 C144 1.396 . S
C143 C145 1.365 . S
C143 H160 0.929 . S
C144 C141 1.394 . S
C144 C143 1.396 . S
C144 H161 0.930 . S
C145 C142 1.383 1_556 S
C145 C143 1.365 . S
C145 H162 0.931 . S
C146 C141 1.370 1_554 S
C146 C142 1.395 . S
C146 H163 0.930 . S
C147 Gd94 2.805 . S
C147 O129 1.263 1_556 S
C147 O130 1.252 . S
C147 C141 1.500 . S
C148 H110 0.930 . S
C148 C124 1.417 1_556 S
C148 C149 1.329 . S
C149 C119 1.437 . S
C149 H120 0.929 . S
C149 C148 1.329 . S
H150 C123 0.931 . S
C151 O133 1.265 1_554 S
C151 O134 1.242 . S
C152 O137 1.261 . S
C152 O138 1.252 . S
C153 C156 1.394 . S
C153 C158 1.370 1_554 S
C153 C159 1.500 . S
C154 C157 1.383 1_556 S
C154 C158 1.395 . S
C155 C156 1.396 . S
C155 C157 1.365 . S
C155 H164 0.929 . S
C156 C153 1.394 . S
C156 C155 1.396 . S
C156 H165 0.930 . S
C157 C154 1.383 1_554 S
C157 C155 1.365 . S
C157 H166 0.931 . S
C158 C153 1.370 1_556 S
C158 C154 1.395 . S
C158 H167 0.930 . S
C159 Gd95 2.805 . S
C159 O135 1.263 1_554 S
C159 O136 1.252 . S
C159 C153 1.500 . S
H160 C143 0.929 . S
H161 C144 0.930 . S
H162 C145 0.931 . S
H163 C146 0.930 . S
H164 C155 0.929 . S
H165 C156 0.930 . S
H166 C157 0.931 . S
H167 C158 0.930 . S
C168 C170 1.422 . S
C168 C172 1.415 . S
C168 N174 1.369 . S
C169 C170 1.421 . S
C169 C171 1.417 . S
C169 C181 1.422 1_554 S
C170 C168 1.422 . S
C170 C169 1.421 . S
C170 N180 1.359 . S
C171 C169 1.417 . S
C171 C173 1.329 . S
C171 H190 0.930 . S
C172 C168 1.415 . S
C172 C173 1.437 . S
C172 C176 1.413 . S
C173 C171 1.329 . S
C173 C172 1.437 . S
C173 H195 0.929 . S
N174 C168 1.369 . S
N174 C175 1.338 . S
N174 Gd179 2.622 . S
C175 N174 1.338 . S
C175 C177 1.378 . S
C175 H187 0.929 . S
C176 C172 1.413 . S
C176 C177 1.348 . S
C176 H192 0.931 . S
C177 C175 1.378 . S
C177 C176 1.348 . S
C177 H193 0.930 . S
Gd178 N198 2.622 . S
Gd178 N205 2.570 . S
Gd178 O212 2.353 . S
Gd178 O213 2.468 1_556 S
Gd178 O214 2.427 . S
Gd178 O216 2.388 . S
Gd178 O217 2.386 . S
Gd178 O221 2.307 1_556 S
Gd178 C231 2.805 . S
Gd179 N174 2.622 . S
Gd179 N180 2.570 . S
Gd179 O211 2.386 . S
Gd179 O215 2.307 1_554 S
Gd179 O218 2.353 . S
Gd179 O219 2.468 1_554 S
Gd179 O220 2.427 . S
Gd179 O222 2.388 . S
Gd179 C243 2.805 . S
N180 C170 1.359 . S
N180 Gd179 2.570 . S
N180 C182 1.343 1_554 S
C181 C169 1.422 1_556 S
C181 C183 1.321 . S
C181 H189 0.931 . S
C182 N180 1.343 1_556 S
C182 C183 1.390 . S
C182 H184 0.931 . S
C183 C181 1.321 . S
C183 C182 1.390 . S
C183 H185 0.930 . S
H184 C182 0.931 . S
H185 C183 0.930 . S
H186 C209 0.931 . S
H187 C175 0.929 . S
H188 C210 0.930 . S
H189 C181 0.931 . S
H190 C171 0.930 . S
H191 C200 0.929 . S
H192 C176 0.931 . S
H193 C177 0.930 . S
H194 C232 0.930 . S
H195 C173 0.929 . S
H196 C201 0.931 . S
H197 C202 0.930 . S
N198 Gd178 2.622 . S
N198 C199 1.369 . S
N198 C200 1.338 . S
C199 N198 1.369 . S
C199 C203 1.415 . S
C199 C206 1.422 . S
C200 H191 0.929 . S
C200 N198 1.338 . S
C200 C202 1.378 . S
C201 H196 0.931 . S
C201 C202 1.348 . S
C201 C203 1.413 . S
C202 H197 0.930 . S
C202 C200 1.378 . S
C202 C201 1.348 . S
C203 C199 1.415 . S
C203 C201 1.413 . S
C203 C233 1.437 . S
H204 C233 0.929 . S
N205 Gd178 2.570 . S
N205 C206 1.359 . S
N205 C209 1.343 1_556 S
C206 C199 1.422 . S
C206 N205 1.359 . S
C206 C208 1.421 . S
C207 C208 1.422 1_554 S
C207 C210 1.321 . S
C207 H234 0.931 . S
C208 C206 1.421 . S
C208 C207 1.422 1_556 S
C208 C232 1.417 . S
C209 H186 0.931 . S
C209 N205 1.343 1_554 S
C209 C210 1.390 . S
C210 H188 0.930 . S
C210 C207 1.321 . S
C210 C209 1.390 . S
O211 Gd179 2.386 . S
O211 C223 1.265 . S
O212 Gd178 2.353 . S
O212 C223 1.242 1_556 S
O213 Gd178 2.468 1_554 S
O213 C231 1.263 1_554 S
O214 Gd178 2.427 . S
O214 C231 1.252 . S
O215 Gd179 2.307 1_556 S
O215 C224 1.261 . S
O216 Gd178 2.388 . S
O216 C224 1.252 . S
O217 Gd178 2.386 . S
O217 C235 1.265 . S
O218 Gd179 2.353 . S
O218 C235 1.242 1_554 S
O219 Gd179 2.468 1_556 S
O219 C243 1.263 1_556 S
O220 Gd179 2.427 . S
O220 C243 1.252 . S
O221 Gd178 2.307 1_554 S
O221 C236 1.261 . S
O222 Gd179 2.388 . S
O222 C236 1.252 . S
C223 O211 1.265 . S
C223 O212 1.242 1_554 S
C224 O215 1.261 . S
C224 O216 1.252 . S
C225 C228 1.394 . S
C225 C230 1.379 . S
C225 C231 1.500 . S
C226 C229 1.383 . S
C226 C230 1.393 . S
C227 C228 1.396 . S
C227 C229 1.365 . S
C227 H244 0.929 . S
C228 C225 1.394 . S
C228 C227 1.396 . S
C228 H245 0.930 . S
C229 C226 1.383 . S
C229 C227 1.365 . S
C229 H246 0.931 . S
C230 C225 1.379 . S
C230 C226 1.393 . S
C230 H247 0.923 1_556 S
C231 Gd178 2.805 . S
C231 O213 1.263 1_556 S
C231 O214 1.252 . S
C231 C225 1.500 . S
C232 H194 0.930 . S
C232 C208 1.417 . S
C232 C233 1.329 . S
C233 C203 1.437 . S
C233 H204 0.929 . S
C233 C232 1.329 . S
H234 C207 0.931 . S
C235 O217 1.265 . S
C235 O218 1.242 1_556 S
C236 O221 1.261 . S
C236 O222 1.252 . S
C237 C240 1.394 . S
C237 C242 1.382 . S
C237 C243 1.500 . S
C238 C241 1.383 . S
C238 C242 1.393 . S
C239 C240 1.396 . S
C239 C241 1.365 . S
C239 H248 0.929 . S
C240 C237 1.394 . S
C240 C239 1.396 . S
C240 H249 0.930 . S
C241 C238 1.383 . S
C241 C239 1.365 . S
C241 H250 0.931 . S
C242 C237 1.382 . S
C242 C238 1.393 . S
C242 H251 0.921 1_554 S
C243 Gd179 2.805 . S
C243 O219 1.263 1_554 S
C243 O220 1.252 . S
C243 C237 1.500 . S
H244 C227 0.929 . S
H245 C228 0.930 . S
H246 C229 0.931 . S
H247 C230 0.923 1_554 S
H248 C239 0.929 . S
H249 C240 0.930 . S
H250 C241 0.931 . S
H251 C242 0.921 1_556 S
C252 C253 1.371 1_655 S
C252 C254 1.383 . S
C252 H268 0.951 . S
C253 C252 1.371 1_455 S
C253 C257 1.402 . S
C254 C252 1.383 . S
C254 C255 1.402 1_655 S
C254 H269 0.951 . S
C255 C254 1.402 1_455 S
C255 C256 1.375 . S
C255 C258 1.481 . S
C256 C255 1.375 . S
C256 C257 1.367 . S
C256 H270 0.951 . S
C257 C253 1.402 . S
C257 C256 1.367 . S
C257 H271 0.950 . S
C258 C255 1.481 . S
C258 C259 1.297 1_455 S
C258 H272 0.950 . S
C259 C258 1.297 1_655 S
C259 C260 1.479 . S
C259 H273 0.950 . S
C260 C259 1.479 . S
C260 C261 1.375 . S
C260 C266 1.404 1_655 S
C261 C260 1.375 . S
C261 C262 1.369 . S
C261 H274 0.950 . S
C262 C261 1.369 . S
C262 C263 1.400 . S
C262 H275 0.951 . S
C263 C262 1.400 . S
C263 C265 1.379 1_655 S
H264 C266 0.949 . S
C265 C263 1.379 1_455 S
C265 C266 1.385 . S
C265 H267 0.950 . S
C266 C260 1.404 1_455 S
C266 H264 0.949 . S
C266 C265 1.385 . S
H267 C265 0.950 . S
H268 C252 0.951 . S
H269 C254 0.951 . S
H270 C256 0.951 . S
H271 C257 0.950 . S
H272 C258 0.950 . S
H273 C259 0.950 . S
H274 C261 0.950 . S
H275 C262 0.951 . S
C276 C277 1.386 . S
C276 C278 1.383 . S
C276 H292 0.951 . S
C277 C276 1.386 . S
C277 C281 1.383 1_545 S
C278 C276 1.383 . S
C278 C279 1.402 1_545 S
C278 H293 0.951 . S
C279 C278 1.402 1_565 S
C279 C280 1.375 . S
C279 C282 1.481 . S
C280 C279 1.375 . S
C280 C281 1.367 . S
C280 H294 0.951 . S
C281 C277 1.383 1_565 S
C281 C280 1.367 . S
C281 H295 0.950 . S
C282 C279 1.481 . S
C282 C283 1.297 1_565 S
C282 H296 0.950 . S
C283 C282 1.297 1_545 S
C283 C284 1.481 . S
C283 H297 0.950 . S
C284 C283 1.481 . S
C284 C285 1.377 . S
C284 C290 1.401 1_545 S
C285 C284 1.377 . S
C285 C286 1.369 . S
C285 H298 0.950 . S
C286 C285 1.369 . S
C286 C287 1.392 1_545 S
C286 H299 0.951 . S
C287 C286 1.392 1_565 S
C287 C289 1.384 . S
H288 C290 0.949 . S
C289 C287 1.384 . S
C289 C290 1.385 . S
C289 H291 0.950 . S
C290 C284 1.401 1_565 S
C290 H288 0.949 . S
C290 C289 1.385 . S
H291 C289 0.950 . S
H292 C276 0.951 . S
H293 C278 0.951 . S
H294 C280 0.951 . S
H295 C281 0.950 . S
H296 C282 0.950 . S
H297 C283 0.950 . S
H298 C285 0.950 . S
H299 C286 0.951 . S
C300 C301 1.386 . S
C300 C302 1.383 . S
C300 H316 0.951 . S
C301 C300 1.386 . S
C301 C305 1.383 . S
C302 C300 1.383 . S
C302 C303 1.402 . S
C302 H317 0.951 . S
C303 C302 1.402 . S
C303 C304 1.375 . S
C303 C306 1.481 . S
C304 C303 1.375 . S
C304 C305 1.367 . S
C304 H318 0.951 . S
C305 C301 1.383 . S
C305 C304 1.367 . S
C305 H319 0.950 . S
C306 C303 1.481 . S
C306 C307 1.297 . S
C306 H320 0.950 . S
C307 C306 1.297 . S
C307 C308 1.479 . S
C307 H321 0.950 . S
C308 C307 1.479 . S
C308 C309 1.375 . S
C308 C314 1.404 . S
C309 C308 1.375 . S
C309 C310 1.369 . S
C309 H322 0.950 . S
C310 C309 1.369 . S
C310 C311 1.392 . S
C310 H323 0.951 . S
C311 C310 1.392 . S
C311 C313 1.384 . S
H312 C314 0.949 . S
C313 C311 1.384 . S
C313 C314 1.385 . S
C313 H315 0.950 . S
C314 C308 1.404 . S
C314 H312 0.949 . S
C314 C313 1.385 . S
H315 C313 0.950 . S
H316 C300 0.951 . S
H317 C302 0.951 . S
H318 C304 0.951 . S
H319 C305 0.950 . S
H320 C306 0.950 . S
H321 C307 0.950 . S
H322 C309 0.950 . S
H323 C310 0.951 . S
C324 C325 1.386 1_556 S
C324 C326 1.383 . S
C324 H340 0.951 . S
C325 C324 1.386 1_554 S
C325 C329 1.383 . S
C326 C324 1.383 . S
C326 C327 1.402 . S
C326 H341 0.951 . S
C327 C326 1.402 . S
C327 C328 1.375 . S
C327 C330 1.481 . S
C328 C327 1.375 . S
C328 C329 1.367 1_556 S
C328 H342 0.951 . S
C329 C325 1.383 . S
C329 C328 1.367 1_554 S
C329 H343 0.950 . S
C330 C327 1.481 . S
C330 C331 1.297 . S
C330 H344 0.950 . S
C331 C330 1.297 . S
C331 C332 1.479 . S
C331 H345 0.950 . S
C332 C331 1.479 . S
C332 C333 1.375 . S
C332 C338 1.404 . S
C333 C332 1.375 . S
C333 C334 1.369 . S
C333 H346 0.950 . S
C334 C333 1.369 . S
C334 C335 1.392 . S
C334 H347 0.951 . S
C335 C334 1.392 . S
C335 C337 1.384 . S
H336 C338 0.949 . S
C337 C335 1.384 . S
C337 C338 1.385 . S
C337 H339 0.950 . S
C338 C332 1.404 . S
C338 H336 0.949 . S
C338 C337 1.385 . S
H339 C337 0.950 . S
H340 C324 0.951 . S
H341 C326 0.951 . S
H342 C328 0.951 . S
H343 C329 0.950 . S
H344 C330 0.950 . S
H345 C331 0.950 . S
H346 C333 0.950 . S
H347 C334 0.951 . S
C348 C349 1.386 . S
C348 C350 1.383 . S
C348 H364 0.951 . S
C349 C348 1.386 . S
C349 C353 1.383 . S
C350 C348 1.383 . S
C350 C351 1.402 . S
C350 H365 0.951 1_556 S
C351 C350 1.402 . S
C351 C352 1.375 . S
C351 C354 1.481 1_556 S
C352 C351 1.375 . S
C352 C353 1.367 . S
C352 H366 0.951 . S
C353 C349 1.383 . S
C353 C352 1.367 . S
C353 H367 0.950 . S
C354 C351 1.481 1_554 S
C354 C355 1.297 . S
C354 H368 0.950 1_554 S
C355 C354 1.297 . S
C355 C356 1.479 . S
C355 H369 0.950 . S
C356 C355 1.479 . S
C356 C357 1.375 . S
C356 C362 1.404 . S
C357 C356 1.375 . S
C357 C358 1.369 . S
C357 H370 0.950 . S
C358 C357 1.369 . S
C358 C359 1.392 . S
C358 H371 0.951 . S
C359 C358 1.392 . S
C359 C361 1.384 . S
H360 C362 0.949 . S
C361 C359 1.384 . S
C361 C362 1.385 . S
C361 H363 0.950 . S
C362 C356 1.404 . S
C362 H360 0.949 . S
C362 C361 1.385 . S
H363 C361 0.950 . S
H364 C348 0.951 . S
H365 C350 0.951 1_554 S
H366 C352 0.951 . S
H367 C353 0.950 . S
H368 C354 0.950 1_556 S
H369 C355 0.950 . S
H370 C357 0.950 . S
H371 C358 0.951 . S
C372 C373 1.386 . S
C372 C374 1.383 . S
C372 H388 0.951 . S
C373 C372 1.386 . S
C373 C377 1.383 . S
C374 C372 1.383 . S
C374 C375 1.402 . S
C374 H389 0.951 . S
C375 C374 1.402 . S
C375 C376 1.375 . S
C375 C378 1.481 . S
C376 C375 1.375 . S
C376 C377 1.367 . S
C376 H390 0.951 . S
C377 C373 1.383 . S
C377 C376 1.367 . S
C377 H391 0.950 . S
C378 C375 1.481 . S
C378 C379 1.297 . S
C378 H392 0.950 . S
C379 C378 1.297 . S
C379 C380 1.479 . S
C379 H393 0.950 . S
C380 C379 1.479 . S
C380 C381 1.375 . S
C380 C386 1.404 . S
C381 C380 1.375 . S
C381 C382 1.369 . S
C381 H394 0.950 . S
C382 C381 1.369 . S
C382 C383 1.392 . S
C382 H395 0.951 . S
C383 C382 1.392 . S
C383 C385 1.384 . S
H384 C386 0.949 . S
C385 C383 1.384 . S
C385 C386 1.385 . S
C385 H387 0.950 . S
C386 C380 1.404 . S
C386 H384 0.949 . S
C386 C385 1.385 . S
H387 C385 0.950 . S
H388 C372 0.951 . S
H389 C374 0.951 . S
H390 C376 0.951 . S
H391 C377 0.950 . S
H392 C378 0.950 . S
H393 C379 0.950 . S
H394 C381 0.950 . S
H395 C382 0.951 . S
C396 C397 1.388 . S
C396 C398 1.383 . S
C396 H412 0.951 . S
C397 C396 1.388 . S
C397 C401 1.378 1_556 S
C398 C396 1.383 . S
C398 C399 1.402 1_556 S
C398 H413 0.951 . S
C399 C398 1.402 1_554 S
C399 C400 1.375 . S
C399 C402 1.481 . S
C400 C399 1.375 . S
C400 C401 1.367 . S
C400 H414 0.951 . S
C401 C397 1.378 1_554 S
C401 C400 1.367 . S
C401 H415 0.950 . S
C402 C399 1.481 . S
C402 C403 1.297 . S
C402 H416 0.950 . S
C403 C402 1.297 . S
C403 C404 1.479 . S
C403 H417 0.950 1_554 S
C404 C403 1.479 . S
C404 C405 1.375 1_554 S
C404 C410 1.404 . S
C405 C404 1.375 1_556 S
C405 C406 1.369 . S
C405 H418 0.950 . S
C406 C405 1.369 . S
C406 C407 1.392 1_556 S
C406 H419 0.951 . S
C407 C406 1.392 1_554 S
C407 C409 1.384 . S
H408 C410 0.949 . S
C409 C407 1.384 . S
C409 C410 1.385 . S
C409 H411 0.950 . S
C410 C404 1.404 . S
C410 H408 0.949 . S
C410 C409 1.385 . S
H411 C409 0.950 . S
H412 C396 0.951 . S
H413 C398 0.951 . S
H414 C400 0.951 . S
H415 C401 0.950 . S
H416 C402 0.950 . S
H417 C403 0.950 1_556 S
H418 C405 0.950 . S
H419 C406 0.951 . S
C420 C421 1.386 . S
C420 C422 1.383 1_556 S
C420 H436 0.951 . S
C421 C420 1.386 . S
C421 C425 1.383 1_556 S
C422 C420 1.383 1_554 S
C422 C423 1.402 . S
C422 H437 0.950 1_554 S
C423 C422 1.402 . S
C423 C424 1.375 . S
C423 C426 1.481 . S
C424 C423 1.375 . S
C424 C425 1.367 . S
C424 H438 0.951 . S
C425 C421 1.383 1_554 S
C425 C424 1.367 . S
C425 H439 0.950 . S
C426 C423 1.481 . S
C426 C427 1.297 . S
C426 H440 0.950 . S
C427 C426 1.297 . S
C427 C428 1.479 . S
C427 H441 0.950 . S
C428 C427 1.479 . S
C428 C429 1.375 . S
C428 C434 1.404 . S
C429 C428 1.375 . S
C429 C430 1.369 . S
C429 H442 0.950 . S
C430 C429 1.369 . S
C430 C431 1.392 . S
C430 H443 0.951 . S
C431 C430 1.392 . S
C431 C433 1.384 . S
H432 C434 0.949 . S
C433 C431 1.384 . S
C433 C434 1.385 . S
C433 H435 0.950 . S
C434 C428 1.404 . S
C434 H432 0.949 . S
C434 C433 1.385 . S
H435 C433 0.950 . S
H436 C420 0.951 . S
H437 C422 0.950 1_556 S
H438 C424 0.951 . S
H439 C425 0.950 . S
H440 C426 0.950 . S
H441 C427 0.950 . S
H442 C429 0.950 . S
H443 C430 0.951 . S
C444 C445 1.386 1_556 S
C444 C446 1.383 1_556 S
C444 H460 0.951 . S
C445 C444 1.386 1_554 S
C445 C449 1.383 . S
C446 C444 1.383 1_554 S
C446 C447 1.402 . S
C446 H461 0.951 1_554 S
C447 C446 1.402 . S
C447 C448 1.375 . S
C447 C450 1.481 . S
C448 C447 1.375 . S
C448 C449 1.367 . S
C448 H462 0.951 . S
C449 C445 1.383 . S
C449 C448 1.367 . S
C449 H463 0.950 . S
C450 C447 1.481 . S
C450 C451 1.297 . S
C450 H464 0.950 . S
C451 C450 1.297 . S
C451 C452 1.479 . S
C451 H465 0.950 . S
C452 C451 1.479 . S
C452 C453 1.375 1_554 S
C452 C458 1.404 . S
C453 C452 1.375 1_556 S
C453 C454 1.369 . S
C453 H466 0.950 . S
C454 C453 1.369 . S
C454 C455 1.392 1_556 S
C454 H467 0.951 . S
C455 C454 1.392 1_554 S
C455 C457 1.384 . S
H456 C458 0.949 . S
C457 C455 1.384 . S
C457 C458 1.385 . S
C457 H459 0.950 . S
C458 C452 1.404 . S
C458 H456 0.949 . S
C458 C457 1.385 . S
H459 C457 0.950 . S
H460 C444 0.951 . S
H461 C446 0.951 1_556 S
H462 C448 0.951 . S
H463 C449 0.950 . S
H464 C450 0.950 . S
H465 C451 0.950 . S
H466 C453 0.950 . S
H467 C454 0.951 . S
C253 C68 1.492 1_455 S
C263 C56 1.460 1_655 S
C277 C152 1.532 . S
C287 C140 1.486 . S
C301 C224 1.453 . S
C311 C236 1.503 . S
C325 C55 2.267 . S
C335 C235 2.271 . S
C349 C154 0.719 . S
C359 C70 0.914 1_554 S
C373 C139 1.591 . S
C383 C238 1.509 1_556 S
C397 C67 2.269 . S
C407 C223 2.286 . S
C421 C58 0.696 1_556 S
C431 C142 0.912 . S
C445 C226 1.478 1_554 S
C455 C151 1.549 . S
