# Generated by pormake.
# Topology pcb, (4)-cn, num edge types: 1
# Building blocks:
#     Node 0, Type 0, BuildingBlock: NAHDIM_clean_sbu_0, # of connection points: 4
#     Node 1, Type 0, BuildingBlock: NAHDIM_clean_sbu_0, # of connection points: 4
#     Node 2, Type 0, BuildingBlock: NAHDIM_clean_sbu_0, # of connection points: 4
#     Node 3, Type 0, BuildingBlock: NAHDIM_clean_sbu_0, # of connection points: 4
#     Node 4, Type 0, BuildingBlock: NAHDIM_clean_sbu_0, # of connection points: 4
#     Node 5, Type 0, BuildingBlock: NAHDIM_clean_sbu_0, # of connection points: 4
#     Node 6, Type 0, BuildingBlock: NAHDIM_clean_sbu_0, # of connection points: 4
#     Node 7, Type 0, BuildingBlock: NAHDIM_clean_sbu_0, # of connection points: 4
#     Node 8, Type 0, BuildingBlock: NAHDIM_clean_sbu_0, # of connection points: 4
#     Node 9, Type 0, BuildingBlock: NAHDIM_clean_sbu_0, # of connection points: 4
#     Node 10, Type 0, BuildingBlock: NAHDIM_clean_sbu_0, # of connection points: 4
#     Node 11, Type 0, BuildingBlock: NAHDIM_clean_sbu_0, # of connection points: 4
#     Node 12, Type 0, BuildingBlock: NAHDIM_clean_sbu_0, # of connection points: 4
#     Node 13, Type 0, BuildingBlock: NAHDIM_clean_sbu_0, # of connection points: 4
#     Node 14, Type 0, BuildingBlock: NAHDIM_clean_sbu_0, # of connection points: 4
#     Node 15, Type 0, BuildingBlock: NAHDIM_clean_sbu_0, # of connection points: 4
#     Edge 16, Type (0, 0), BuildingBlock: EZIPEK_clean_linker_0, # of connection points: 2
#     Edge 17, Type (0, 0), BuildingBlock: EZIPEK_clean_linker_0, # of connection points: 2
#     Edge 18, Type (0, 0), BuildingBlock: EZIPEK_clean_linker_0, # of connection points: 2
#     Edge 19, Type (0, 0), BuildingBlock: EZIPEK_clean_linker_0, # of connection points: 2
#     Edge 20, Type (0, 0), BuildingBlock: EZIPEK_clean_linker_0, # of connection points: 2
#     Edge 21, Type (0, 0), BuildingBlock: EZIPEK_clean_linker_0, # of connection points: 2
#     Edge 22, Type (0, 0), BuildingBlock: EZIPEK_clean_linker_0, # of connection points: 2
#     Edge 23, Type (0, 0), BuildingBlock: EZIPEK_clean_linker_0, # of connection points: 2
#     Edge 24, Type (0, 0), BuildingBlock: EZIPEK_clean_linker_0, # of connection points: 2
#     Edge 25, Type (0, 0), BuildingBlock: EZIPEK_clean_linker_0, # of connection points: 2
#     Edge 26, Type (0, 0), BuildingBlock: EZIPEK_clean_linker_0, # of connection points: 2
#     Edge 27, Type (0, 0), BuildingBlock: EZIPEK_clean_linker_0, # of connection points: 2
#     Edge 28, Type (0, 0), BuildingBlock: EZIPEK_clean_linker_0, # of connection points: 2
#     Edge 29, Type (0, 0), BuildingBlock: EZIPEK_clean_linker_0, # of connection points: 2
#     Edge 30, Type (0, 0), BuildingBlock: EZIPEK_clean_linker_0, # of connection points: 2
#     Edge 31, Type (0, 0), BuildingBlock: EZIPEK_clean_linker_0, # of connection points: 2
#     Edge 32, Type (0, 0), BuildingBlock: EZIPEK_clean_linker_0, # of connection points: 2
#     Edge 33, Type (0, 0), BuildingBlock: EZIPEK_clean_linker_0, # of connection points: 2
#     Edge 34, Type (0, 0), BuildingBlock: EZIPEK_clean_linker_0, # of connection points: 2
#     Edge 35, Type (0, 0), BuildingBlock: EZIPEK_clean_linker_0, # of connection points: 2
#     Edge 36, Type (0, 0), BuildingBlock: EZIPEK_clean_linker_0, # of connection points: 2
#     Edge 37, Type (0, 0), BuildingBlock: EZIPEK_clean_linker_0, # of connection points: 2
#     Edge 38, Type (0, 0), BuildingBlock: EZIPEK_clean_linker_0, # of connection points: 2
#     Edge 39, Type (0, 0), BuildingBlock: EZIPEK_clean_linker_0, # of connection points: 2
#     Edge 40, Type (0, 0), BuildingBlock: EZIPEK_clean_linker_0, # of connection points: 2
#     Edge 41, Type (0, 0), BuildingBlock: EZIPEK_clean_linker_0, # of connection points: 2
#     Edge 42, Type (0, 0), BuildingBlock: EZIPEK_clean_linker_0, # of connection points: 2
#     Edge 43, Type (0, 0), BuildingBlock: EZIPEK_clean_linker_0, # of connection points: 2
#     Edge 44, Type (0, 0), BuildingBlock: EZIPEK_clean_linker_0, # of connection points: 2
#     Edge 45, Type (0, 0), BuildingBlock: EZIPEK_clean_linker_0, # of connection points: 2
#     Edge 46, Type (0, 0), BuildingBlock: EZIPEK_clean_linker_0, # of connection points: 2
#     Edge 47, Type (0, 0), BuildingBlock: EZIPEK_clean_linker_0, # of connection points: 2
# Relax obj value: 0.188
# Max RMSD: 0.099
# Mean RMSD: 0.079
data_MOF--net-pcb--node1-NAHDIM_clean_sbu_0--edge1-EZIPEK_clean_linker_0
_symmetry_space_group_name_H-M    P1
_symmetry_Int_Tables_number       1
_symmetry_cell_setting            triclinic
loop_
_symmetry_equiv_pos_as_xyz
'x, y, z'
_cell_length_a     32.973511
_cell_length_b     34.871287
_cell_length_c     36.706366
_cell_angle_alpha  90.26082
_cell_angle_beta   90.581442
_cell_angle_gamma 92.170656
loop_
_atom_site_label
_atom_site_type_symbol
_atom_site_fract_x
_atom_site_fract_y
_atom_site_fract_z
_atom_type_partial_charge
C0 C 0.19389 0.20146 0.19292 0.0
O1 O 0.17831 0.16925 0.20606 0.0
O2 O 0.16354 0.1227 0.13508 0.0
Zn3 Zn 0.14724 0.17762 0.13172 0.0
O4 O 0.08966 0.18059 0.14736 0.0
C5 C 0.17906 0.18098 0.06024 0.0
O6 O 0.21012 0.16528 0.07618 0.0
O7 O 0.18452 0.21181 0.16096 0.0
C8 C 0.06615 0.20578 0.13556 0.0
O9 O 0.08045 0.23351 0.11469 0.0
C10 C 0.14019 0.09712 0.14907 0.0
O11 O 0.1058 0.10669 0.16365 0.0
O12 O 0.14926 0.19106 0.07916 0.0
C13 C 0.78754 0.17925 0.19608 0.0
O14 O 0.81893 0.1601 0.20696 0.0
O15 O 0.86968 0.17689 0.12942 0.0
Zn16 Zn 0.81336 0.15289 0.12727 0.0
O17 O 0.81687 0.09692 0.13869 0.0
C18 C 0.81838 0.14455 0.05271 0.0
O19 O 0.85294 0.13125 0.06423 0.0
O20 O 0.778 0.17967 0.16248 0.0
C21 C 0.78638 0.0743 0.1436 0.0
O22 O 0.74957 0.08737 0.14229 0.0
C23 C 0.89694 0.16276 0.14938 0.0
O24 O 0.88812 0.13285 0.1698 0.0
O25 O 0.79352 0.15714 0.07568 0.0
C26 C 0.79499 0.81005 0.20652 0.0
O27 O 0.81379 0.84016 0.2214 0.0
O28 O 0.81374 0.88947 0.14009 0.0
Zn29 Zn 0.83587 0.83665 0.14255 0.0
O30 O 0.89316 0.84077 0.16136 0.0
C31 C 0.80535 0.81034 0.07279 0.0
O32 O 0.76978 0.81522 0.08753 0.0
O33 O 0.80035 0.80233 0.17314 0.0
C34 C 0.9169 0.81321 0.15769 0.0
O35 O 0.90301 0.78039 0.14396 0.0
C36 C 0.82554 0.91579 0.1622 0.0
O37 O 0.85158 0.90834 0.18827 0.0
O38 O 0.8375 0.81661 0.09152 0.0
C39 C 0.19357 0.79728 0.19301 0.0
O40 O 0.16222 0.7785 0.17828 0.0
O41 O 0.19026 0.84673 0.09467 0.0
Zn42 Zn 0.1693 0.85695 0.14485 0.0
O43 O 0.11089 0.83859 0.14627 0.0
C44 C 0.16923 0.93667 0.12632 0.0
O45 O 0.17147 0.92284 0.0931 0.0
O46 O 0.20259 0.83134 0.18306 0.0
C47 C 0.08983 0.84067 0.17496 0.0
O48 O 0.10669 0.85373 0.20534 0.0
C49 C 0.18537 0.81465 0.0784 0.0
O50 O 0.16841 0.78528 0.09545 0.0
O51 O 0.16947 0.91402 0.15335 0.0
C52 C 0.18709 0.75788 0.80053 0.0
O53 O 0.14951 0.74657 0.80738 0.0
O54 O 0.10959 0.81062 0.83848 0.0
Zn55 Zn 0.16896 0.81681 0.8515 0.0
O56 O 0.17595 0.80076 0.90357 0.0
C57 C 0.17582 0.89251 0.8209 0.0
O58 O 0.16097 0.87519 0.79157 0.0
O59 O 0.20272 0.78711 0.81688 0.0
C60 C 0.20685 0.8112 0.92256 0.0
O61 O 0.23732 0.82995 0.90711 0.0
C62 C 0.08434 0.81951 0.86273 0.0
O63 O 0.09757 0.83105 0.89496 0.0
O64 O 0.18338 0.87305 0.84914 0.0
C65 C 0.19199 0.15602 0.77815 0.0
O66 O 0.18488 0.12153 0.76447 0.0
O67 O 0.08396 0.14307 0.83449 0.0
Zn68 Zn 0.14223 0.13 0.83858 0.0
O69 O 0.14773 0.07445 0.82613 0.0
C70 C 0.16075 0.17098 0.90425 0.0
O71 O 0.15501 0.20092 0.88352 0.0
O72 O 0.17677 0.16527 0.80836 0.0
C73 C 0.18128 0.05802 0.82944 0.0
O74 O 0.2141 0.07803 0.83939 0.0
C75 C 0.06439 0.1455 0.80471 0.0
O76 O 0.08262 0.13979 0.77362 0.0
O77 O 0.15783 0.13745 0.89067 0.0
C78 C 0.77627 0.20195 0.79452 0.0
O79 O 0.7928 0.2165 0.82445 0.0
O80 O 0.86892 0.13792 0.80951 0.0
Zn81 Zn 0.80959 0.13293 0.82083 0.0
O82 O 0.80158 0.14877 0.87318 0.0
C83 C 0.81831 0.05229 0.81769 0.0
O84 O 0.85631 0.06363 0.82313 0.0
O85 O 0.77907 0.16653 0.7873 0.0
C86 C 0.80993 0.1255 0.89845 0.0
O87 O 0.82299 0.09149 0.89035 0.0
C88 C 0.89233 0.16682 0.81638 0.0
O89 O 0.87781 0.19797 0.83065 0.0
O90 O 0.7914 0.07721 0.81408 0.0
C91 C 0.79732 0.7741 0.7813 0.0
O92 O 0.82563 0.79704 0.76748 0.0
O93 O 0.88545 0.80026 0.84025 0.0
Zn94 Zn 0.826 0.8111 0.8445 0.0
O95 O 0.81551 0.86362 0.82466 0.0
C96 C 0.82022 0.78247 0.9184 0.0
O97 O 0.83729 0.75199 0.90529 0.0
O98 O 0.79192 0.77361 0.81546 0.0
C99 C 0.8138 0.89217 0.8461 0.0
O100 O 0.81762 0.88702 0.88137 0.0
C101 C 0.91124 0.82681 0.84893 0.0
O102 O 0.89878 0.8604 0.85927 0.0
O103 O 0.81137 0.80971 0.8973 0.0
C104 C 0.68464 0.68825 0.68852 0.0
O105 O 0.66153 0.66093 0.70281 0.0
O106 O 0.65967 0.60641 0.62896 0.0
Zn107 Zn 0.645 0.66168 0.62381 0.0
O108 O 0.5866 0.66859 0.63696 0.0
C109 C 0.6836 0.67117 0.5541 0.0
O110 O 0.71618 0.66053 0.57162 0.0
O111 O 0.68255 0.69483 0.65459 0.0
C112 C 0.56091 0.65048 0.61669 0.0
O113 O 0.57388 0.62925 0.58988 0.0
C114 C 0.64377 0.58386 0.65232 0.0
O115 O 0.61676 0.59638 0.67503 0.0
O116 O 0.65067 0.67486 0.57114 0.0
C117 C 0.27861 0.67638 0.69354 0.0
O118 O 0.30921 0.65615 0.70451 0.0
O119 O 0.36146 0.66237 0.63213 0.0
Zn120 Zn 0.30277 0.64451 0.62763 0.0
O121 O 0.29839 0.58978 0.64553 0.0
C122 C 0.29762 0.67508 0.55466 0.0
O123 O 0.31825 0.70431 0.56927 0.0
O124 O 0.26909 0.67673 0.65992 0.0
C125 C 0.29698 0.5617 0.62334 0.0
O126 O 0.29537 0.56823 0.58817 0.0
C127 C 0.38772 0.64057 0.61907 0.0
O128 O 0.37598 0.60836 0.60295 0.0
O129 O 0.28596 0.64715 0.57462 0.0
C130 C 0.29386 0.27198 0.7097 0.0
O131 O 0.32595 0.28704 0.72662 0.0
O132 O 0.29932 0.37562 0.6603 0.0
Zn133 Zn 0.31837 0.32229 0.65108 0.0
O134 O 0.37774 0.32017 0.66449 0.0
C135 C 0.34106 0.31768 0.57609 0.0
O136 O 0.37676 0.32872 0.58922 0.0
O137 O 0.28472 0.28305 0.67789 0.0
C138 C 0.39772 0.28974 0.66384 0.0
O139 O 0.37912 0.25657 0.65666 0.0
C140 C 0.32197 0.40255 0.64763 0.0
O141 O 0.35652 0.39434 0.63255 0.0
O142 O 0.31127 0.31233 0.59735 0.0
C143 C 0.69454 0.2883 0.68491 0.0
O144 O 0.68424 0.26919 0.65512 0.0
O145 O 0.67529 0.33164 0.59994 0.0
Zn146 Zn 0.6508 0.34335 0.64832 0.0
O147 O 0.59502 0.31824 0.65046 0.0
C148 C 0.67715 0.4229 0.65759 0.0
O149 O 0.7133 0.40903 0.66219 0.0
O150 O 0.68428 0.32276 0.68868 0.0
C151 C 0.56712 0.33423 0.66788 0.0
O152 O 0.57539 0.36654 0.68543 0.0
C153 C 0.65587 0.34391 0.57265 0.0
O154 O 0.62215 0.36196 0.57772 0.0
O155 O 0.64658 0.40037 0.65203 0.0
C156 C 0.70091 0.26938 0.29989 0.0
O157 O 0.66443 0.25791 0.31023 0.0
O158 O 0.62374 0.32585 0.32889 0.0
Zn159 Zn 0.68259 0.33363 0.34354 0.0
O160 O 0.68887 0.31896 0.39658 0.0
C161 C 0.68855 0.40734 0.30802 0.0
O162 O 0.67235 0.38836 0.28018 0.0
O163 O 0.71615 0.3012 0.31146 0.0
C164 C 0.68833 0.34523 0.42068 0.0
O165 O 0.68755 0.38125 0.41055 0.0
C166 C 0.59683 0.33816 0.34997 0.0
O167 O 0.60756 0.35537 0.38059 0.0
O168 O 0.69728 0.38958 0.33703 0.0
C169 C 0.68428 0.71339 0.28923 0.0
O170 O 0.6503 0.72647 0.30182 0.0
O171 O 0.59998 0.65962 0.32523 0.0
Zn172 Zn 0.65817 0.64486 0.32648 0.0
O173 O 0.66095 0.58986 0.31139 0.0
C174 C 0.67199 0.67813 0.3974 0.0
O175 O 0.65832 0.70901 0.38191 0.0
O176 O 0.69371 0.67915 0.29584 0.0
C177 C 0.69448 0.5731 0.31137 0.0
O178 O 0.72836 0.59275 0.3187 0.0
C179 C 0.57722 0.65723 0.29716 0.0
O180 O 0.59194 0.64589 0.26597 0.0
O181 O 0.67609 0.6479 0.37862 0.0
C182 C 0.28845 0.71828 0.2997 0.0
O183 O 0.30822 0.73538 0.32682 0.0
O184 O 0.38211 0.65183 0.31279 0.0
Zn185 Zn 0.32354 0.64955 0.3276 0.0
O186 O 0.32038 0.66419 0.3805 0.0
C187 C 0.32847 0.57103 0.33708 0.0
O188 O 0.36211 0.58413 0.35292 0.0
O189 O 0.29037 0.68231 0.29517 0.0
C190 C 0.28707 0.66607 0.39738 0.0
O191 O 0.25254 0.6606 0.37963 0.0
C192 C 0.40636 0.68069 0.31697 0.0
O193 O 0.39327 0.71283 0.33042 0.0
O194 O 0.30446 0.59442 0.32281 0.0
C195 C 0.30646 0.2951 0.27857 0.0
O196 O 0.33219 0.32013 0.26401 0.0
O197 O 0.39748 0.31646 0.33494 0.0
Zn198 Zn 0.33856 0.32745 0.34379 0.0
O199 O 0.32681 0.38182 0.3293 0.0
C200 C 0.34955 0.32419 0.42171 0.0
O201 O 0.38617 0.33748 0.41402 0.0
O202 O 0.30391 0.29249 0.31289 0.0
C203 C 0.32947 0.40923 0.35219 0.0
O204 O 0.33891 0.40225 0.38624 0.0
C205 C 0.42483 0.34257 0.3403 0.0
O206 O 0.41451 0.37695 0.35041 0.0
O207 O 0.32391 0.31742 0.39625 0.0
C208 C 0.28684 0.23248 0.24899 0.0
C209 C 0.27868 0.27154 0.25538 0.0
C210 C 0.21333 0.26361 0.22362 0.0
C211 C 0.22284 0.22535 0.21482 0.0
N212 N 0.27125 0.17514 0.21324 0.0
N213 N 0.23753 0.32628 0.24512 0.0
C214 C 0.26027 0.21014 0.226 0.0
C215 C 0.24299 0.28777 0.24142 0.0
N216 N 0.31976 0.21669 0.2652 0.0
N217 N 0.17525 0.27621 0.21659 0.0
H218 H 0.25786 0.34468 0.25927 0.0
H219 H 0.21445 0.34055 0.23195 0.0
H220 H 0.15237 0.25909 0.20422 0.0
H221 H 0.16506 0.30237 0.22586 0.0
H222 H 0.32464 0.18737 0.26517 0.0
H223 H 0.341 0.23265 0.28083 0.0
H224 H 0.29996 0.16435 0.21723 0.0
H225 H 0.2529 0.15808 0.19588 0.0
C226 C 0.73054 0.20727 0.28099 0.0
C227 C 0.72317 0.24628 0.27343 0.0
C228 C 0.76181 0.24219 0.21708 0.0
C229 C 0.76513 0.20218 0.22256 0.0
N230 N 0.74628 0.14513 0.25637 0.0
N231 N 0.72413 0.29859 0.2304 0.0
C232 C 0.74774 0.18424 0.25362 0.0
C233 C 0.73667 0.26318 0.24039 0.0
N234 N 0.72268 0.1926 0.31478 0.0
N235 N 0.78401 0.26057 0.19069 0.0
H236 H 0.70458 0.31455 0.24606 0.0
H237 H 0.72974 0.3104 0.20484 0.0
H238 H 0.80392 0.24657 0.17371 0.0
H239 H 0.78586 0.29033 0.18815 0.0
H240 H 0.73143 0.16553 0.32293 0.0
H241 H 0.711 0.20879 0.33591 0.0
H242 H 0.73017 0.13038 0.27653 0.0
H243 H 0.75788 0.12721 0.23653 0.0
C244 C 0.72525 0.78161 0.21688 0.0
C245 C 0.76649 0.78596 0.22814 0.0
C246 C 0.75223 0.74669 0.28193 0.0
C247 C 0.71228 0.73882 0.26845 0.0
N248 N 0.66255 0.74339 0.22012 0.0
N249 N 0.82114 0.76752 0.26784 0.0
C250 C 0.69919 0.75485 0.23512 0.0
C251 C 0.78056 0.76717 0.25976 0.0
N252 N 0.71056 0.8041 0.18971 0.0
N253 N 0.7627 0.73587 0.31643 0.0
H254 H 0.843 0.78171 0.25196 0.0
H255 H 0.83351 0.75084 0.28831 0.0
H256 H 0.74259 0.72142 0.33383 0.0
H257 H 0.79002 0.74443 0.32906 0.0
H258 H 0.67984 0.805 0.18302 0.0
H259 H 0.72845 0.82468 0.17614 0.0
H260 H 0.65341 0.75095 0.19396 0.0
H261 H 0.64277 0.72343 0.2324 0.0
C262 C 0.22822 0.75652 0.28354 0.0
C263 C 0.2655 0.74087 0.27316 0.0
C264 C 0.2573 0.76542 0.21106 0.0
C265 C 0.21866 0.7786 0.22077 0.0
N266 N 0.16548 0.78527 0.26466 0.0
N267 N 0.3157 0.72857 0.22765 0.0
C268 C 0.20363 0.77384 0.25663 0.0
C269 C 0.28015 0.7449 0.23706 0.0
N270 N 0.21652 0.75494 0.31919 0.0
N271 N 0.27216 0.77287 0.17702 0.0
H272 H 0.33474 0.71574 0.24649 0.0
H273 H 0.32585 0.72618 0.20103 0.0
H274 H 0.25545 0.78605 0.15664 0.0
H275 H 0.30175 0.76794 0.16921 0.0
H276 H 0.19212 0.76939 0.32956 0.0
H277 H 0.23272 0.74084 0.33929 0.0
H278 H 0.15059 0.77879 0.28883 0.0
H279 H 0.14745 0.79978 0.2462 0.0
C280 C 0.2357 0.67689 0.74939 0.0
C281 C 0.25466 0.69733 0.72046 0.0
C282 C 0.22587 0.75692 0.7421 0.0
C283 C 0.21068 0.7372 0.77315 0.0
N284 N 0.20748 0.67997 0.80991 0.0
N285 N 0.27395 0.75783 0.69265 0.0
C286 C 0.2173 0.69757 0.7778 0.0
C287 C 0.25142 0.73767 0.71767 0.0
N288 N 0.2338 0.63764 0.74902 0.0
N289 N 0.21459 0.79352 0.73509 0.0
H290 H 0.29344 0.74488 0.67452 0.0
H291 H 0.27618 0.7877 0.69208 0.0
H292 H 0.1953 0.80846 0.75191 0.0
H293 H 0.22122 0.80775 0.71086 0.0
H294 H 0.21664 0.6213 0.76737 0.0
H295 H 0.24603 0.62134 0.72823 0.0
H296 H 0.21565 0.6522 0.81626 0.0
H297 H 0.1946 0.69428 0.83168 0.0
C298 C 0.20078 0.21899 0.7468 0.0
C299 C 0.21784 0.18449 0.75881 0.0
C300 C 0.28437 0.20618 0.73617 0.0
C301 C 0.26811 0.24214 0.72741 0.0
N302 N 0.2128 0.28545 0.72989 0.0
N303 N 0.27668 0.14706 0.77026 0.0
C304 C 0.22679 0.24929 0.73415 0.0
C305 C 0.25986 0.17846 0.75486 0.0
N306 N 0.15958 0.22233 0.74647 0.0
N307 N 0.32271 0.19798 0.7255 0.0
H308 H 0.25974 0.12595 0.78403 0.0
H309 H 0.30785 0.14345 0.77197 0.0
H310 H 0.34174 0.21755 0.71189 0.0
H311 H 0.33447 0.17076 0.72741 0.0
H312 H 0.14508 0.24515 0.73445 0.0
H313 H 0.13951 0.20052 0.75523 0.0
H314 H 0.18416 0.29334 0.73814 0.0
H315 H 0.23111 0.30862 0.72122 0.0
C316 C 0.71813 0.24144 0.77547 0.0
C317 C 0.75682 0.22707 0.76791 0.0
C318 C 0.75711 0.25846 0.70834 0.0
C319 C 0.71668 0.26917 0.71429 0.0
N320 N 0.6566 0.26814 0.75134 0.0
N321 N 0.81331 0.2201 0.72742 0.0
C322 C 0.6967 0.26034 0.74745 0.0
C323 C 0.77641 0.23511 0.7344 0.0
N324 N 0.70185 0.23688 0.80938 0.0
N325 N 0.77743 0.27181 0.67836 0.0
H326 H 0.82975 0.20513 0.74677 0.0
H327 H 0.8269 0.22078 0.70195 0.0
H328 H 0.76419 0.28919 0.65884 0.0
H329 H 0.80825 0.26843 0.67416 0.0
H330 H 0.67599 0.25042 0.81792 0.0
H331 H 0.71577 0.2216 0.83009 0.0
H332 H 0.63897 0.25848 0.77304 0.0
H333 H 0.6398 0.28199 0.73146 0.0
C334 C 0.73897 0.77184 0.73737 0.0
C335 C 0.76905 0.75219 0.75704 0.0
C336 C 0.74601 0.69126 0.72904 0.0
C337 C 0.71391 0.71039 0.7117 0.0
N338 N 0.6757 0.76732 0.70311 0.0
N339 N 0.79892 0.69318 0.77546 0.0
C340 C 0.70938 0.75034 0.71666 0.0
C341 C 0.77181 0.71183 0.75412 0.0
N342 N 0.73865 0.81105 0.73856 0.0
N343 N 0.75296 0.65393 0.72022 0.0
H344 H 0.81971 0.70748 0.79284 0.0
H345 H 0.79912 0.66344 0.7778 0.0
H346 H 0.73516 0.63811 0.70144 0.0
H347 H 0.77836 0.63956 0.72896 0.0
H348 H 0.72081 0.82726 0.72139 0.0
H349 H 0.75811 0.82781 0.75522 0.0
H350 H 0.66822 0.79534 0.70922 0.0
H351 H 0.65316 0.75245 0.68802 0.0
C352 C 0.1992 0.1959 0.95938 0.0
C353 C 0.16498 0.17559 0.94406 0.0
C354 C 0.14256 0.15623 0.00469 0.0
C355 C 0.17466 0.1793 0.02027 0.0
N356 N 0.23014 0.22561 0.01329 0.0
N357 N 0.09914 0.14422 0.95216 0.0
C358 C 0.20211 0.20045 -0.00214 0.0
C359 C 0.13518 0.15803 0.96673 0.0
N360 N 0.22958 0.20951 0.93731 0.0
N361 N 0.1203 0.13121 0.02584 0.0
H362 H 0.09199 0.14589 0.92448 0.0
H363 H 0.07472 0.13477 0.96799 0.0
H364 H 0.12557 0.12785 0.05368 0.0
H365 H 0.09938 0.11091 0.01515 0.0
H366 H 0.25726 0.22086 0.94712 0.0
H367 H 0.22844 0.20675 0.90901 0.0
H368 H 0.24813 0.24483 -0.0017 0.0
H369 H 0.23318 0.22944 0.04141 0.0
C370 C 0.77658 0.11812 0.95875 0.0
C371 C 0.8067 0.13664 0.93707 0.0
C372 C 0.83584 0.169 -0.00892 0.0
C373 C 0.80997 0.14582 0.01319 0.0
N374 N 0.7561 0.09755 0.01908 0.0
N375 N 0.86632 0.17844 0.93185 0.0
C376 C 0.77992 0.12059 -0.00266 0.0
C377 C 0.83636 0.16225 0.95292 0.0
N378 N 0.74463 0.09857 0.94228 0.0
N379 N 0.85952 0.19776 0.00668 0.0
H380 H 0.86731 0.17478 0.90367 0.0
H381 H 0.89166 0.19352 0.94245 0.0
H382 H 0.85944 0.20354 0.03461 0.0
H383 H 0.87622 0.21807 -0.00821 0.0
H384 H 0.71962 0.08734 0.95628 0.0
H385 H 0.74139 0.09653 0.91401 0.0
H386 H 0.73725 0.07516 0.00921 0.0
H387 H 0.75678 0.09938 0.04744 0.0
C388 C 0.79232 0.76298 0.9794 0.0
C389 C 0.81714 0.78818 0.95819 0.0
C390 C 0.83006 0.82969 0.01126 0.0
C391 C 0.80849 0.80274 0.03329 0.0
N392 N 0.77432 0.7408 0.03989 0.0
N393 N 0.86737 0.84037 0.95571 0.0
C394 C 0.79097 0.76853 0.01781 0.0
C395 C 0.83825 0.82008 0.97462 0.0
N396 N 0.76898 0.73467 0.96276 0.0
N397 N 0.84125 0.86519 0.0248 0.0
H398 H 0.87532 0.83357 0.9291 0.0
H399 H 0.88659 0.86134 0.96766 0.0
H400 H 0.8347 0.87403 0.05121 0.0
H401 H 0.85325 0.88729 0.00869 0.0
H402 H 0.74699 0.71808 0.97626 0.0
H403 H 0.76928 0.72973 0.93471 0.0
H404 H 0.76501 0.71357 0.03061 0.0
H405 H 0.77288 0.74385 0.06812 0.0
C406 C 0.16748 0.83624 0.01577 0.0
C407 C 0.19119 0.81291 0.03855 0.0
C408 C 0.22427 0.78652 0.98485 0.0
C409 C 0.20296 0.81227 0.96259 0.0
N410 N 0.16088 0.86721 0.95731 0.0
N411 N 0.24561 0.76931 0.046 0.0
C412 C 0.17648 0.83878 0.97819 0.0
C413 C 0.22053 0.78886 0.02344 0.0
N414 N 0.13511 0.85467 0.0297 0.0
N415 N 0.24724 0.75934 0.96902 0.0
H416 H 0.24345 0.77024 0.07433 0.0
H417 H 0.27039 0.75444 0.03692 0.0
H418 H 0.25125 0.75756 0.9409 0.0
H419 H 0.26008 0.73707 0.98336 0.0
H420 H 0.11419 0.86867 0.01357 0.0
H421 H 0.12663 0.8528 0.05695 0.0
H422 H 0.14504 0.88984 0.9681 0.0
H423 H 0.16701 0.87039 0.92964 0.0
C424 C 0.00568 0.16542 0.11695 0.0
C425 C 0.02207 0.19736 0.137 0.0
C426 C 0.95485 0.20987 0.16122 0.0
C427 C 0.93965 0.1754 0.14452 0.0
N428 N 0.95024 0.1186 0.10849 0.0
N429 N 0.01413 0.24903 0.17974 0.0
C430 C 0.96498 0.15265 0.12293 0.0
C431 C -0.0029 0.21961 0.15934 0.0
N432 N 0.02868 0.14823 0.09115 0.0
N433 N 0.92883 0.23323 0.17868 0.0
H434 H 0.04482 0.25729 0.17833 0.0
H435 H -0.00137 0.2638 0.19962 0.0
H436 H 0.89798 0.22623 0.1816 0.0
H437 H 0.93705 0.26061 0.18823 0.0
H438 H 0.01731 0.12742 0.07295 0.0
H439 H 0.0585 0.15717 0.08552 0.0
H440 H 0.96848 0.09842 0.09653 0.0
H441 H 0.91995 0.10916 0.11036 0.0
C442 C 0.78995 0.97384 0.18359 0.0
C443 C 0.81294 0.95555 0.15656 0.0
C444 C 0.81134 0.01297 0.11854 0.0
C445 C 0.79274 0.03277 0.14739 0.0
N446 N 0.76793 0.03383 0.20895 0.0
N447 N 0.85083 0.95905 0.10061 0.0
C448 C 0.78271 0.01364 0.18031 0.0
C449 C 0.82489 0.97537 0.12451 0.0
N450 N 0.77414 0.95291 0.21185 0.0
N451 N 0.81502 0.02975 0.08507 0.0
H452 H 0.86198 0.93171 0.10408 0.0
H453 H 0.8642 0.97387 0.07899 0.0
H454 H 0.80503 0.05716 0.07952 0.0
H455 H 0.82431 0.01523 0.06193 0.0
H456 H 0.75362 0.9636 0.23034 0.0
H457 H 0.7788 0.92367 0.21502 0.0
H458 H 0.76447 0.02256 0.235 0.0
H459 H 0.76186 0.0629 0.20744 0.0
C460 C 0.98145 0.84893 0.14199 0.0
C461 C 0.96106 0.82028 0.16305 0.0
C462 C 0.02574 0.80356 0.19132 0.0
C463 C 0.04533 0.83429 0.17238 0.0
N464 N 0.04037 0.89187 0.13669 0.0
N465 N 0.96207 0.77427 0.21185 0.0
C466 C 0.02274 0.85865 0.14974 0.0
C467 C 0.98272 0.79862 0.18889 0.0
N468 N 0.96201 0.86566 0.11341 0.0
N469 N 0.04834 0.77842 0.21058 0.0
H470 H 0.93058 0.77005 0.21083 0.0
H471 H 0.97563 0.7607 0.23377 0.0
H472 H 0.07983 0.78142 0.21316 0.0
H473 H 0.03634 0.75308 0.22171 0.0
H474 H 0.97682 0.88368 0.09484 0.0
H475 H 0.93205 0.85863 0.1059 0.0
H476 H 0.02418 0.91269 0.12317 0.0
H477 H 0.07031 0.90056 0.14273 0.0
C478 C 0.12278 0.03437 0.11895 0.0
C479 C 0.14824 0.05628 0.14318 0.0
C480 C 0.19021 0.00075 0.15333 0.0
C481 C 0.16237 0.97792 0.13197 0.0
N482 N 0.09832 0.97131 0.09943 0.0
N483 N 0.20324 0.06015 0.18692 0.0
C484 C 0.12763 -0.00574 0.11604 0.0
C485 C 0.18124 0.03946 0.16133 0.0
N486 N 0.09489 0.05212 0.09764 0.0
N487 N 0.22596 0.98591 0.16472 0.0
H488 H 0.19778 0.08872 0.19309 0.0
H489 H 0.22479 0.04829 0.20399 0.0
H490 H 0.23377 0.95782 0.15902 0.0
H491 H 0.24938 0.00225 0.17706 0.0
H492 H 0.07886 0.03836 0.07643 0.0
H493 H 0.09032 0.08153 0.09881 0.0
H494 H 0.07017 0.98107 0.09133 0.0
H495 H 0.10043 0.94173 0.09655 0.0
C496 C 0.98023 0.84106 0.82399 0.0
C497 C 0.9552 0.82014 0.84864 0.0
C498 C 0.01514 0.79208 0.87613 0.0
C499 C 0.04023 0.81722 0.85515 0.0
N500 N 0.04719 0.86839 0.81127 0.0
N501 N 0.94823 0.7782 0.90051 0.0
C502 C 0.023 0.84219 0.82931 0.0
C503 C 0.97241 0.79594 0.87512 0.0
N504 N 0.96305 0.85928 0.79511 0.0
N505 N 0.03219 0.76401 0.89643 0.0
H506 H 0.91676 0.77996 0.90051 0.0
H507 H 0.95952 0.76404 0.92315 0.0
H508 H 0.06342 0.76018 0.89746 0.0
H509 H 0.01533 0.74235 0.90944 0.0
H510 H 0.97978 0.87191 0.77414 0.0
H511 H 0.9318 0.85853 0.79026 0.0
H512 H 0.0359 0.89039 0.79549 0.0
H513 H 0.07867 0.87004 0.81415 0.0
C514 C 0.20415 0.95635 0.79954 0.0
C515 C 0.17803 0.93489 0.82301 0.0
C516 C 0.15897 -0.006 0.85356 0.0
C517 C 0.18167 0.0157 0.82773 0.0
N518 N 0.22238 0.01848 0.77357 0.0
N519 N 0.12456 0.93355 0.86762 0.0
C520 C 0.20347 -0.00284 0.80004 0.0
C521 C 0.15383 0.95376 0.8488 0.0
N522 N 0.23051 0.93776 0.77773 0.0
N523 N 0.14349 0.01167 0.88344 0.0
H524 H 0.11905 0.90409 0.86452 0.0
H525 H 0.10307 0.94652 0.88369 0.0
H526 H 0.14715 0.04109 0.88835 0.0
H527 H 0.13055 -0.0033 0.90518 0.0
H528 H 0.25328 0.95181 0.76288 0.0
H529 H 0.23181 0.90793 0.77671 0.0
H530 H 0.23492 0.00661 0.75039 0.0
H531 H 0.22296 0.04841 0.77341 0.0
C532 C 0.00275 0.18267 0.78871 0.0
C533 C 0.02014 0.15068 0.80584 0.0
C534 C 0.955 0.13318 0.83357 0.0
C535 C 0.93658 0.16266 0.81355 0.0
N536 N 0.9412 0.21208 0.76787 0.0
N537 N 0.01083 0.09048 0.83755 0.0
C538 C 0.95997 0.18657 0.78993 0.0
C539 C -0.00431 0.12447 0.82627 0.0
N540 N 0.02717 0.21006 0.77257 0.0
N541 N 0.93419 0.11453 0.8607 0.0
H542 H 0.04017 0.0823 0.83167 0.0
H543 H -0.00703 0.06867 0.8493 0.0
H544 H 0.90469 0.12096 0.8679 0.0
H545 H 0.94764 0.09555 0.87858 0.0
H546 H 0.01667 0.23604 0.76313 0.0
H547 H 0.05862 0.20828 0.77124 0.0
H548 H 0.95606 0.2273 0.74728 0.0
H549 H 0.90996 0.21581 0.76818 0.0
C550 C 0.8354 0.94761 0.80589 0.0
C551 C 0.80833 0.93134 0.83197 0.0
C552 C 0.78064 -0.00564 0.84356 0.0
C553 C 0.80801 0.01063 0.81773 0.0
N554 N 0.85075 0.00123 0.76595 0.0
N555 N 0.74663 0.93648 0.86597 0.0
C556 C 0.83171 0.9866 0.79602 0.0
C557 C 0.77808 0.95388 0.84761 0.0
N558 N 0.86643 0.92703 0.79244 0.0
N559 N 0.75907 0.01727 0.86593 0.0
H560 H 0.74342 0.90673 0.8686 0.0
H561 H 0.72165 0.9511 0.87505 0.0
H562 H 0.75913 0.047 0.86381 0.0
H563 H 0.743 0.00685 0.88833 0.0
H564 H 0.88974 0.93922 0.77685 0.0
H565 H 0.87105 0.89857 0.79911 0.0
H566 H 0.86551 0.98433 0.74715 0.0
H567 H 0.84789 0.02966 0.7578 0.0
C568 C 0.70507 0.70044 0.45607 0.0
C569 C 0.67598 0.67635 0.43745 0.0
C570 C 0.6571 0.64533 0.49477 0.0
C571 C 0.68285 0.67215 0.51389 0.0
N572 N 0.7281 0.72809 0.51383 0.0
N573 N 0.61847 0.63133 0.43971 0.0
C574 C 0.70614 0.70046 0.49486 0.0
C575 C 0.65041 0.65021 0.45694 0.0
N576 N 0.7324 0.72237 0.43668 0.0
N577 N 0.64009 0.61438 0.51252 0.0
H578 H 0.6116 0.63482 0.41216 0.0
H579 H 0.59634 0.61517 0.4535 0.0
H580 H 0.64504 0.60917 0.54014 0.0
H581 H 0.62453 0.5918 0.49913 0.0
H582 H 0.75703 0.73744 0.44854 0.0
H583 H 0.73238 0.72307 0.40827 0.0
H584 H 0.7421 0.75195 0.50164 0.0
H585 H 0.72985 0.72871 0.54222 0.0
C586 C 0.27141 0.70009 0.49504 0.0
C587 C 0.29312 0.6722 0.51448 0.0
C588 C 0.30536 0.63787 0.4575 0.0
C589 C 0.28765 0.6679 0.43769 0.0
N590 N 0.25771 0.72986 0.43672 0.0
N591 N 0.33729 0.61844 0.51353 0.0
C592 C 0.27152 0.69961 0.45621 0.0
C593 C 0.31174 0.64204 0.49556 0.0
N594 N 0.24968 0.72626 0.51369 0.0
N595 N 0.31495 0.60468 0.44014 0.0
H596 H 0.3434 0.62068 0.54131 0.0
H597 H 0.35546 0.59904 0.50033 0.0
H598 H 0.31061 0.6003 0.41227 0.0
H599 H 0.32349 0.58012 0.45385 0.0
H600 H 0.22986 0.74479 0.50119 0.0
H601 H 0.24882 0.72729 0.54208 0.0
H602 H 0.24972 0.75566 0.44855 0.0
H603 H 0.25714 0.73033 0.4083 0.0
C604 C 0.35843 0.28732 0.47911 0.0
C605 C 0.33904 0.31692 0.46004 0.0
C606 C 0.31527 0.34376 0.51727 0.0
C607 C 0.33531 0.31458 0.53636 0.0
N608 N 0.36594 0.25309 0.53607 0.0
N609 N 0.28998 0.36652 0.45935 0.0
C610 C 0.35378 0.28455 0.5174 0.0
C611 C 0.31421 0.34277 0.47861 0.0
N612 N 0.38186 0.2624 0.46062 0.0
N613 N 0.29946 0.37363 0.53598 0.0
H614 H 0.28849 0.36654 0.431 0.0
H615 H 0.26846 0.3835 0.47137 0.0
H616 H 0.29949 0.37526 0.56433 0.0
H617 H 0.28888 0.39813 0.52352 0.0
H618 H 0.40091 0.24332 0.47334 0.0
H619 H 0.38348 0.2619 0.43225 0.0
H620 H 0.37673 0.22869 0.5236 0.0
H621 H 0.36141 0.24993 0.56401 0.0
C622 C 0.65141 0.31482 0.47368 0.0
C623 C 0.68556 0.33615 0.45999 0.0
C624 C 0.7045 0.35739 0.52181 0.0
C625 C 0.66978 0.33705 0.5352 0.0
N626 N 0.61706 0.28818 0.52653 0.0
N627 N 0.75044 0.36814 0.47132 0.0
C628 C 0.64551 0.31302 0.51191 0.0
C629 C 0.71405 0.35431 0.48428 0.0
N630 N 0.62323 0.29833 0.45033 0.0
N631 N 0.72704 0.38122 0.54448 0.0
H632 H 0.75842 0.36555 0.444 0.0
H633 H 0.7741 0.37864 0.48799 0.0
H634 H 0.72162 0.38348 0.57233 0.0
H635 H 0.7496 0.40046 0.53539 0.0
H636 H 0.59504 0.28729 0.45861 0.0
H637 H 0.6268 0.29737 0.42225 0.0
H638 H 0.60112 0.2671 0.51145 0.0
H639 H 0.61216 0.28621 0.55453 0.0
C640 C 0.4946 0.66885 0.59014 0.0
C641 C 0.51677 0.65555 0.62059 0.0
C642 C 0.45326 0.644 0.65375 0.0
C643 C 0.43138 0.65111 0.62121 0.0
N644 N 0.42987 0.67059 0.55835 0.0
N645 N 0.51796 0.63014 0.68166 0.0
C646 C 0.45167 0.66395 0.58943 0.0
C647 C 0.49638 0.64375 0.65281 0.0
N648 N 0.5147 0.68719 0.56241 0.0
N649 N 0.43272 0.63715 0.68538 0.0
H650 H 0.54952 0.63057 0.68255 0.0
H651 H 0.50475 0.61649 0.70398 0.0
H652 H 0.40111 0.63607 0.6867 0.0
H653 H 0.44675 0.63559 0.71083 0.0
H654 H 0.50019 0.70067 0.54095 0.0
H655 H 0.54611 0.69222 0.56268 0.0
H656 H 0.44298 0.67512 0.53298 0.0
H657 H 0.39821 0.66986 0.55761 0.0
C658 C 0.2685 0.49438 0.62506 0.0
C659 C 0.299 0.5217 0.63649 0.0
C660 C 0.33625 0.47056 0.66587 0.0
C661 C 0.30989 0.44295 0.64859 0.0
N662 N 0.2514 0.42799 0.61021 0.0
N663 N 0.36372 0.53581 0.66637 0.0
C664 C 0.27569 0.45461 0.62824 0.0
C665 C 0.33308 0.50997 0.6571 0.0
N666 N 0.23235 0.50657 0.61175 0.0
N667 N 0.36407 0.45899 0.69099 0.0
H668 H 0.36286 0.56504 0.66104 0.0
H669 H 0.39149 0.52789 0.67715 0.0
H670 H 0.36669 0.43027 0.69823 0.0
H671 H 0.38152 0.47796 0.70724 0.0
H672 H 0.2074 0.48817 0.60623 0.0
H673 H 0.22592 0.53556 0.60973 0.0
H674 H 0.22939 0.43518 0.59114 0.0
H675 H 0.25484 0.39853 0.61241 0.0
C676 C 0.50529 0.30861 0.63365 0.0
C677 C 0.52511 0.31753 0.66735 0.0
C678 C 0.46169 0.30338 0.69981 0.0
C679 C 0.4425 0.29323 0.66623 0.0
N680 N 0.4488 0.27571 0.60291 0.0
N681 N 0.52517 0.31356 0.73297 0.0
C682 C 0.46533 0.29211 0.63377 0.0
C683 C 0.50419 0.31198 0.70065 0.0
N684 N 0.52322 0.31847 0.60142 0.0
N685 N 0.43921 0.3053 0.73079 0.0
H686 H 0.55656 0.31839 0.7345 0.0
H687 H 0.51223 0.30628 0.75789 0.0
H688 H 0.40856 0.29682 0.73153 0.0
H689 H 0.45043 0.31707 0.75517 0.0
H690 H 0.50819 0.31647 0.57634 0.0
H691 H 0.55158 0.33245 0.59978 0.0
H692 H 0.46549 0.27075 0.57952 0.0
H693 H 0.41954 0.26349 0.60184 0.0
C694 C 0.67253 0.52799 0.68503 0.0
C695 C 0.65464 0.54316 0.65313 0.0
C696 C 0.65898 0.48099 0.62249 0.0
C697 C 0.67207 0.46473 0.65573 0.0
N698 N 0.68726 0.47121 0.71992 0.0
N699 N 0.62515 0.53309 0.59317 0.0
C700 C 0.67801 0.48783 0.68736 0.0
C701 C 0.64651 0.51947 0.62218 0.0
N702 N 0.68547 0.55211 0.7126 0.0
N703 N 0.65956 0.45993 0.59099 0.0
H704 H 0.61484 0.56095 0.59199 0.0
H705 H 0.61445 0.51582 0.57166 0.0
H706 H 0.66907 0.43177 0.5901 0.0
H707 H 0.65446 0.47148 0.5653 0.0
H708 H 0.70262 0.54332 0.73481 0.0
H709 H 0.6822 0.58172 0.71175 0.0
H710 H 0.68734 0.48586 0.74471 0.0
H711 H 0.69189 0.44194 0.72263 0.0
C712 C 0.49219 0.35869 0.31317 0.0
C713 C 0.46835 0.33479 0.33643 0.0
C714 C 0.52977 0.30469 0.35856 0.0
C715 C 0.55343 0.33334 0.34058 0.0
N716 N 0.55846 0.3879 0.30064 0.0
N717 N 0.46412 0.28545 0.38256 0.0
C718 C 0.53506 0.36014 0.31739 0.0
C719 C 0.48692 0.30731 0.35902 0.0
N720 N 0.47368 0.37942 0.28666 0.0
N721 N 0.54843 0.27487 0.37495 0.0
H722 H 0.43261 0.28564 0.38341 0.0
H723 H 0.47658 0.26877 0.40296 0.0
H724 H 0.57982 0.2721 0.3745 0.0
H725 H 0.53279 0.25108 0.3857 0.0
H726 H 0.48942 0.39486 0.26675 0.0
H727 H 0.44232 0.37808 0.28239 0.0
H728 H 0.54658 0.41119 0.2871 0.0
H729 H 0.59009 0.38874 0.30192 0.0
C730 C 0.71481 0.47039 0.28276 0.0
C731 C 0.69025 0.4498 0.30811 0.0
C732 C 0.67308 0.5099 0.33783 0.0
C733 C 0.69415 0.53072 0.31036 0.0
N734 N 0.73097 0.53157 0.25396 0.0
N735 N 0.63869 0.45032 0.35442 0.0
C736 C 0.71402 0.5112 0.28205 0.0
C737 C 0.66734 0.46964 0.33419 0.0
N738 N 0.73985 0.45106 0.26027 0.0
N739 N 0.65988 0.52834 0.36823 0.0
H740 H 0.63251 0.42093 0.35183 0.0
H741 H 0.61813 0.46401 0.37094 0.0
H742 H 0.66438 0.55778 0.37259 0.0
H743 H 0.64823 0.5139 0.39083 0.0
H744 H 0.76161 0.46461 0.24392 0.0
H745 H 0.74113 0.42122 0.26006 0.0
H746 H 0.74204 0.51884 0.23054 0.0
H747 H 0.73115 0.56146 0.25276 0.0
C748 C 0.51082 0.64003 0.32611 0.0
C749 C 0.53325 0.66301 0.30101 0.0
C750 C 0.47155 0.69634 0.28438 0.0
C751 C 0.45028 0.67583 0.31197 0.0
N752 N 0.45166 0.63429 0.36437 0.0
N753 N 0.53692 0.71685 0.25998 0.0
C754 C 0.47047 0.64938 0.33434 0.0
C755 C 0.51415 0.69219 0.28103 0.0
N756 N 0.52747 0.60829 0.34101 0.0
N757 N 0.45085 0.71881 0.26073 0.0
H758 H 0.56817 0.71474 0.25695 0.0
H759 H 0.52551 0.74119 0.24788 0.0
H760 H 0.41973 0.72278 0.26266 0.0
H761 H 0.46379 0.73113 0.2376 0.0
H762 H 0.51098 0.58829 0.35647 0.0
H763 H 0.5566 0.59968 0.33492 0.0
H764 H 0.46647 0.61801 0.38377 0.0
H765 H 0.42242 0.64121 0.37199 0.0
C766 C 0.29188 0.46948 0.3587 0.0
C767 C 0.32259 0.44915 0.34102 0.0
C768 C 0.34663 0.50824 0.31106 0.0
C769 C 0.32097 0.52923 0.33376 0.0
N770 N 0.26747 0.53116 0.3778 0.0
N771 N 0.37907 0.44833 0.29956 0.0
C772 C 0.29254 0.5102 0.35675 0.0
C773 C 0.34943 0.46811 0.31632 0.0
N774 N 0.2618 0.44959 0.37677 0.0
N775 N 0.36798 0.52685 0.28425 0.0
H776 H 0.38111 0.4187 0.30114 0.0
H777 H 0.40297 0.46142 0.28538 0.0
H778 H 0.36622 0.55629 0.27978 0.0
H779 H 0.38432 0.51289 0.26439 0.0
H780 H 0.23651 0.4622 0.3877 0.0
H781 H 0.26028 0.41967 0.37801 0.0
H782 H 0.24977 0.51957 0.39864 0.0
H783 H 0.26546 0.56079 0.37526 0.0
loop_
_geom_bond_atom_site_label_1
_geom_bond_atom_site_label_2
_geom_bond_distance
_geom_bond_site_symmetry_2
_ccdc_geom_bond_type
C0 O1 1.160 . S
C0 O7 1.185 . S
O1 C0 1.160 . S
O2 Zn3 1.899 . S
O2 C10 1.284 . S
Zn3 O2 1.899 . S
Zn3 O4 2.032 . S
Zn3 O7 2.086 . S
Zn3 O12 1.977 . S
O4 Zn3 2.032 . S
O4 C8 1.278 . S
C5 O6 1.203 . S
C5 O12 1.267 . S
O6 C5 1.203 . S
O7 C0 1.185 . S
O7 Zn3 2.086 . S
C8 O4 1.278 . S
C8 O9 1.211 . S
O9 C8 1.211 . S
C10 O2 1.284 . S
C10 O11 1.273 . S
O11 C10 1.273 . S
O12 Zn3 1.977 . S
O12 C5 1.267 . S
C13 O14 1.160 . S
C13 O20 1.185 . S
O14 C13 1.160 . S
O15 Zn16 1.899 . S
O15 C23 1.284 . S
Zn16 O15 1.899 . S
Zn16 O17 2.032 . S
Zn16 O20 2.086 . S
Zn16 O25 1.977 . S
O17 Zn16 2.032 . S
O17 C21 1.278 . S
C18 O19 1.203 . S
C18 O25 1.267 . S
O19 C18 1.203 . S
O20 C13 1.185 . S
O20 Zn16 2.086 . S
C21 O17 1.278 . S
C21 O22 1.211 . S
O22 C21 1.211 . S
C23 O15 1.284 . S
C23 O24 1.273 . S
O24 C23 1.273 . S
O25 Zn16 1.977 . S
O25 C18 1.267 . S
C26 O27 1.160 . S
C26 O33 1.185 . S
O27 C26 1.160 . S
O28 Zn29 1.899 . S
O28 C36 1.284 . S
Zn29 O28 1.899 . S
Zn29 O30 2.032 . S
Zn29 O33 2.086 . S
Zn29 O38 1.977 . S
O30 Zn29 2.032 . S
O30 C34 1.278 . S
C31 O32 1.203 . S
C31 O38 1.267 . S
O32 C31 1.203 . S
O33 C26 1.185 . S
O33 Zn29 2.086 . S
C34 O30 1.278 . S
C34 O35 1.211 . S
O35 C34 1.211 . S
C36 O28 1.284 . S
C36 O37 1.273 . S
O37 C36 1.273 . S
O38 Zn29 1.977 . S
O38 C31 1.267 . S
C39 O40 1.160 . S
C39 O46 1.185 . S
O40 C39 1.160 . S
O41 Zn42 1.899 . S
O41 C49 1.284 . S
Zn42 O41 1.899 . S
Zn42 O43 2.032 . S
Zn42 O46 2.086 . S
Zn42 O51 1.977 . S
O43 Zn42 2.032 . S
O43 C47 1.278 . S
C44 O45 1.203 . S
C44 O51 1.267 . S
O45 C44 1.203 . S
O46 C39 1.185 . S
O46 Zn42 2.086 . S
C47 O43 1.278 . S
C47 O48 1.211 . S
O48 C47 1.211 . S
C49 O41 1.284 . S
C49 O50 1.273 . S
O50 C49 1.273 . S
O51 Zn42 1.977 . S
O51 C44 1.267 . S
C52 O53 1.160 . S
C52 O59 1.185 . S
O53 C52 1.160 . S
O54 Zn55 1.899 . S
O54 C62 1.284 . S
Zn55 O54 1.899 . S
Zn55 O56 2.032 . S
Zn55 O59 2.086 . S
Zn55 O64 1.977 . S
O56 Zn55 2.032 . S
O56 C60 1.278 . S
C57 O58 1.203 . S
C57 O64 1.267 . S
O58 C57 1.203 . S
O59 C52 1.185 . S
O59 Zn55 2.086 . S
C60 O56 1.278 . S
C60 O61 1.211 . S
O61 C60 1.211 . S
C62 O54 1.284 . S
C62 O63 1.273 . S
O63 C62 1.273 . S
O64 Zn55 1.977 . S
O64 C57 1.267 . S
C65 O66 1.160 . S
C65 O72 1.185 . S
O66 C65 1.160 . S
O67 Zn68 1.899 . S
O67 C75 1.284 . S
Zn68 O67 1.899 . S
Zn68 O69 2.032 . S
Zn68 O72 2.086 . S
Zn68 O77 1.977 . S
O69 Zn68 2.032 . S
O69 C73 1.278 . S
C70 O71 1.203 . S
C70 O77 1.267 . S
O71 C70 1.203 . S
O72 C65 1.185 . S
O72 Zn68 2.086 . S
C73 O69 1.278 . S
C73 O74 1.211 . S
O74 C73 1.211 . S
C75 O67 1.284 . S
C75 O76 1.273 . S
O76 C75 1.273 . S
O77 Zn68 1.977 . S
O77 C70 1.267 . S
C78 O79 1.160 . S
C78 O85 1.185 . S
O79 C78 1.160 . S
O80 Zn81 1.899 . S
O80 C88 1.284 . S
Zn81 O80 1.899 . S
Zn81 O82 2.032 . S
Zn81 O85 2.086 . S
Zn81 O90 1.977 . S
O82 Zn81 2.032 . S
O82 C86 1.278 . S
C83 O84 1.203 . S
C83 O90 1.267 . S
O84 C83 1.203 . S
O85 C78 1.185 . S
O85 Zn81 2.086 . S
C86 O82 1.278 . S
C86 O87 1.211 . S
O87 C86 1.211 . S
C88 O80 1.284 . S
C88 O89 1.273 . S
O89 C88 1.273 . S
O90 Zn81 1.977 . S
O90 C83 1.267 . S
C91 O92 1.160 . S
C91 O98 1.185 . S
O92 C91 1.160 . S
O93 Zn94 1.899 . S
O93 C101 1.284 . S
Zn94 O93 1.899 . S
Zn94 O95 2.032 . S
Zn94 O98 2.086 . S
Zn94 O103 1.977 . S
O95 Zn94 2.032 . S
O95 C99 1.278 . S
C96 O97 1.203 . S
C96 O103 1.267 . S
O97 C96 1.203 . S
O98 C91 1.185 . S
O98 Zn94 2.086 . S
C99 O95 1.278 . S
C99 O100 1.211 . S
O100 C99 1.211 . S
C101 O93 1.284 . S
C101 O102 1.273 . S
O102 C101 1.273 . S
O103 Zn94 1.977 . S
O103 C96 1.267 . S
C104 O105 1.160 . S
C104 O111 1.185 . S
O105 C104 1.160 . S
O106 Zn107 1.899 . S
O106 C114 1.284 . S
Zn107 O106 1.899 . S
Zn107 O108 2.032 . S
Zn107 O111 2.086 . S
Zn107 O116 1.977 . S
O108 Zn107 2.032 . S
O108 C112 1.278 . S
C109 O110 1.203 . S
C109 O116 1.267 . S
O110 C109 1.203 . S
O111 C104 1.185 . S
O111 Zn107 2.086 . S
C112 O108 1.278 . S
C112 O113 1.211 . S
O113 C112 1.211 . S
C114 O106 1.284 . S
C114 O115 1.273 . S
O115 C114 1.273 . S
O116 Zn107 1.977 . S
O116 C109 1.267 . S
C117 O118 1.160 . S
C117 O124 1.185 . S
O118 C117 1.160 . S
O119 Zn120 1.899 . S
O119 C127 1.284 . S
Zn120 O119 1.899 . S
Zn120 O121 2.032 . S
Zn120 O124 2.086 . S
Zn120 O129 1.977 . S
O121 Zn120 2.032 . S
O121 C125 1.278 . S
C122 O123 1.203 . S
C122 O129 1.267 . S
O123 C122 1.203 . S
O124 C117 1.185 . S
O124 Zn120 2.086 . S
C125 O121 1.278 . S
C125 O126 1.211 . S
O126 C125 1.211 . S
C127 O119 1.284 . S
C127 O128 1.273 . S
O128 C127 1.273 . S
O129 Zn120 1.977 . S
O129 C122 1.267 . S
C130 O131 1.160 . S
C130 O137 1.185 . S
O131 C130 1.160 . S
O132 Zn133 1.899 . S
O132 C140 1.284 . S
Zn133 O132 1.899 . S
Zn133 O134 2.032 . S
Zn133 O137 2.086 . S
Zn133 O142 1.977 . S
O134 Zn133 2.032 . S
O134 C138 1.278 . S
C135 O136 1.203 . S
C135 O142 1.267 . S
O136 C135 1.203 . S
O137 C130 1.185 . S
O137 Zn133 2.086 . S
C138 O134 1.278 . S
C138 O139 1.211 . S
O139 C138 1.211 . S
C140 O132 1.284 . S
C140 O141 1.273 . S
O141 C140 1.273 . S
O142 Zn133 1.977 . S
O142 C135 1.267 . S
C143 O144 1.160 . S
C143 O150 1.185 . S
O144 C143 1.160 . S
O145 Zn146 1.899 . S
O145 C153 1.284 . S
Zn146 O145 1.899 . S
Zn146 O147 2.032 . S
Zn146 O150 2.086 . S
Zn146 O155 1.977 . S
O147 Zn146 2.032 . S
O147 C151 1.278 . S
C148 O149 1.203 . S
C148 O155 1.267 . S
O149 C148 1.203 . S
O150 C143 1.185 . S
O150 Zn146 2.086 . S
C151 O147 1.278 . S
C151 O152 1.211 . S
O152 C151 1.211 . S
C153 O145 1.284 . S
C153 O154 1.273 . S
O154 C153 1.273 . S
O155 Zn146 1.977 . S
O155 C148 1.267 . S
C156 O157 1.160 . S
C156 O163 1.185 . S
O157 C156 1.160 . S
O158 Zn159 1.899 . S
O158 C166 1.284 . S
Zn159 O158 1.899 . S
Zn159 O160 2.032 . S
Zn159 O163 2.086 . S
Zn159 O168 1.977 . S
O160 Zn159 2.032 . S
O160 C164 1.278 . S
C161 O162 1.203 . S
C161 O168 1.267 . S
O162 C161 1.203 . S
O163 C156 1.185 . S
O163 Zn159 2.086 . S
C164 O160 1.278 . S
C164 O165 1.211 . S
O165 C164 1.211 . S
C166 O158 1.284 . S
C166 O167 1.273 . S
O167 C166 1.273 . S
O168 Zn159 1.977 . S
O168 C161 1.267 . S
C169 O170 1.160 . S
C169 O176 1.185 . S
O170 C169 1.160 . S
O171 Zn172 1.899 . S
O171 C179 1.284 . S
Zn172 O171 1.899 . S
Zn172 O173 2.032 . S
Zn172 O176 2.086 . S
Zn172 O181 1.977 . S
O173 Zn172 2.032 . S
O173 C177 1.278 . S
C174 O175 1.203 . S
C174 O181 1.267 . S
O175 C174 1.203 . S
O176 C169 1.185 . S
O176 Zn172 2.086 . S
C177 O173 1.278 . S
C177 O178 1.211 . S
O178 C177 1.211 . S
C179 O171 1.284 . S
C179 O180 1.273 . S
O180 C179 1.273 . S
O181 Zn172 1.977 . S
O181 C174 1.267 . S
C182 O183 1.160 . S
C182 O189 1.185 . S
O183 C182 1.160 . S
O184 Zn185 1.899 . S
O184 C192 1.284 . S
Zn185 O184 1.899 . S
Zn185 O186 2.032 . S
Zn185 O189 2.086 . S
Zn185 O194 1.977 . S
O186 Zn185 2.032 . S
O186 C190 1.278 . S
C187 O188 1.203 . S
C187 O194 1.267 . S
O188 C187 1.203 . S
O189 C182 1.185 . S
O189 Zn185 2.086 . S
C190 O186 1.278 . S
C190 O191 1.211 . S
O191 C190 1.211 . S
C192 O184 1.284 . S
C192 O193 1.273 . S
O193 C192 1.273 . S
O194 Zn185 1.977 . S
O194 C187 1.267 . S
C195 O196 1.160 . S
C195 O202 1.185 . S
O196 C195 1.160 . S
O197 Zn198 1.899 . S
O197 C205 1.284 . S
Zn198 O197 1.899 . S
Zn198 O199 2.032 . S
Zn198 O202 2.086 . S
Zn198 O207 1.977 . S
O199 Zn198 2.032 . S
O199 C203 1.278 . S
C200 O201 1.203 . S
C200 O207 1.267 . S
O201 C200 1.203 . S
O202 C195 1.185 . S
O202 Zn198 2.086 . S
C203 O199 1.278 . S
C203 O204 1.211 . S
O204 C203 1.211 . S
C205 O197 1.284 . S
C205 O206 1.273 . S
O206 C205 1.273 . S
O207 Zn198 1.977 . S
O207 C200 1.267 . S
C208 C209 1.363 . S
C208 C214 1.379 . S
C208 N216 1.356 . S
C209 C208 1.363 . S
C209 C215 1.363 . S
C210 C211 1.363 . S
C210 C215 1.379 . S
C210 N217 1.356 . S
C211 C210 1.363 . S
C211 C214 1.363 . S
N212 C214 1.356 . S
N212 H224 0.984 . S
N212 H225 0.985 . S
N213 C215 1.356 . S
N213 H218 0.984 . S
N213 H219 0.985 . S
C214 C208 1.379 . S
C214 C211 1.363 . S
C214 N212 1.356 . S
C215 C209 1.363 . S
C215 C210 1.379 . S
C215 N213 1.356 . S
N216 C208 1.356 . S
N216 H222 0.984 . S
N216 H223 0.984 . S
N217 C210 1.356 . S
N217 H220 0.984 . S
N217 H221 0.985 . S
H218 N213 0.984 . S
H219 N213 0.985 . S
H220 N217 0.984 . S
H221 N217 0.985 . S
H222 N216 0.984 . S
H223 N216 0.984 . S
H224 N212 0.984 . S
H225 N212 0.985 . S
C226 C227 1.363 . S
C226 C232 1.379 . S
C226 N234 1.356 . S
C227 C226 1.363 . S
C227 C233 1.363 . S
C228 C229 1.363 . S
C228 C233 1.379 . S
C228 N235 1.356 . S
C229 C228 1.363 . S
C229 C232 1.363 . S
N230 C232 1.356 . S
N230 H242 0.984 . S
N230 H243 0.985 . S
N231 C233 1.356 . S
N231 H236 0.984 . S
N231 H237 0.985 . S
C232 C226 1.379 . S
C232 C229 1.363 . S
C232 N230 1.356 . S
C233 C227 1.363 . S
C233 C228 1.379 . S
C233 N231 1.356 . S
N234 C226 1.356 . S
N234 H240 0.984 . S
N234 H241 0.984 . S
N235 C228 1.356 . S
N235 H238 0.984 . S
N235 H239 0.985 . S
H236 N231 0.984 . S
H237 N231 0.985 . S
H238 N235 0.984 . S
H239 N235 0.985 . S
H240 N234 0.984 . S
H241 N234 0.984 . S
H242 N230 0.984 . S
H243 N230 0.985 . S
C244 C245 1.363 . S
C244 C250 1.379 . S
C244 N252 1.356 . S
C245 C244 1.363 . S
C245 C251 1.363 . S
C246 C247 1.363 . S
C246 C251 1.379 . S
C246 N253 1.356 . S
C247 C246 1.363 . S
C247 C250 1.363 . S
N248 C250 1.356 . S
N248 H260 0.984 . S
N248 H261 0.985 . S
N249 C251 1.356 . S
N249 H254 0.984 . S
N249 H255 0.985 . S
C250 C244 1.379 . S
C250 C247 1.363 . S
C250 N248 1.356 . S
C251 C245 1.363 . S
C251 C246 1.379 . S
C251 N249 1.356 . S
N252 C244 1.356 . S
N252 H258 0.984 . S
N252 H259 0.984 . S
N253 C246 1.356 . S
N253 H256 0.984 . S
N253 H257 0.985 . S
H254 N249 0.984 . S
H255 N249 0.985 . S
H256 N253 0.984 . S
H257 N253 0.985 . S
H258 N252 0.984 . S
H259 N252 0.984 . S
H260 N248 0.984 . S
H261 N248 0.985 . S
C262 C263 1.363 . S
C262 C268 1.379 . S
C262 N270 1.356 . S
C263 C262 1.363 . S
C263 C269 1.363 . S
C264 C265 1.363 . S
C264 C269 1.379 . S
C264 N271 1.356 . S
C265 C264 1.363 . S
C265 C268 1.363 . S
N266 C268 1.356 . S
N266 H278 0.984 . S
N266 H279 0.985 . S
N267 C269 1.356 . S
N267 H272 0.984 . S
N267 H273 0.985 . S
C268 C262 1.379 . S
C268 C265 1.363 . S
C268 N266 1.356 . S
C269 C263 1.363 . S
C269 C264 1.379 . S
C269 N267 1.356 . S
N270 C262 1.356 . S
N270 H276 0.984 . S
N270 H277 0.984 . S
N271 C264 1.356 . S
N271 H274 0.984 . S
N271 H275 0.985 . S
H272 N267 0.984 . S
H273 N267 0.985 . S
H274 N271 0.984 . S
H275 N271 0.985 . S
H276 N270 0.984 . S
H277 N270 0.984 . S
H278 N266 0.984 . S
H279 N266 0.985 . S
C280 C281 1.363 . S
C280 C286 1.379 . S
C280 N288 1.356 . S
C281 C280 1.363 . S
C281 C287 1.363 . S
C282 C283 1.363 . S
C282 C287 1.379 . S
C282 N289 1.356 . S
C283 C282 1.363 . S
C283 C286 1.363 . S
N284 C286 1.356 . S
N284 H296 0.984 . S
N284 H297 0.985 . S
N285 C287 1.356 . S
N285 H290 0.984 . S
N285 H291 0.985 . S
C286 C280 1.379 . S
C286 C283 1.363 . S
C286 N284 1.356 . S
C287 C281 1.363 . S
C287 C282 1.379 . S
C287 N285 1.356 . S
N288 C280 1.356 . S
N288 H294 0.984 . S
N288 H295 0.984 . S
N289 C282 1.356 . S
N289 H292 0.984 . S
N289 H293 0.985 . S
H290 N285 0.984 . S
H291 N285 0.985 . S
H292 N289 0.984 . S
H293 N289 0.985 . S
H294 N288 0.984 . S
H295 N288 0.984 . S
H296 N284 0.984 . S
H297 N284 0.985 . S
C298 C299 1.363 . S
C298 C304 1.379 . S
C298 N306 1.356 . S
C299 C298 1.363 . S
C299 C305 1.363 . S
C300 C301 1.363 . S
C300 C305 1.379 . S
C300 N307 1.356 . S
C301 C300 1.363 . S
C301 C304 1.363 . S
N302 C304 1.356 . S
N302 H314 0.984 . S
N302 H315 0.985 . S
N303 C305 1.356 . S
N303 H308 0.984 . S
N303 H309 0.985 . S
C304 C298 1.379 . S
C304 C301 1.363 . S
C304 N302 1.356 . S
C305 C299 1.363 . S
C305 C300 1.379 . S
C305 N303 1.356 . S
N306 C298 1.356 . S
N306 H312 0.984 . S
N306 H313 0.984 . S
N307 C300 1.356 . S
N307 H310 0.984 . S
N307 H311 0.985 . S
H308 N303 0.984 . S
H309 N303 0.985 . S
H310 N307 0.984 . S
H311 N307 0.985 . S
H312 N306 0.984 . S
H313 N306 0.984 . S
H314 N302 0.984 . S
H315 N302 0.985 . S
C316 C317 1.363 . S
C316 C322 1.379 . S
C316 N324 1.356 . S
C317 C316 1.363 . S
C317 C323 1.363 . S
C318 C319 1.363 . S
C318 C323 1.379 . S
C318 N325 1.356 . S
C319 C318 1.363 . S
C319 C322 1.363 . S
N320 C322 1.356 . S
N320 H332 0.984 . S
N320 H333 0.985 . S
N321 C323 1.356 . S
N321 H326 0.984 . S
N321 H327 0.985 . S
C322 C316 1.379 . S
C322 C319 1.363 . S
C322 N320 1.356 . S
C323 C317 1.363 . S
C323 C318 1.379 . S
C323 N321 1.356 . S
N324 C316 1.356 . S
N324 H330 0.984 . S
N324 H331 0.984 . S
N325 C318 1.356 . S
N325 H328 0.984 . S
N325 H329 0.985 . S
H326 N321 0.984 . S
H327 N321 0.985 . S
H328 N325 0.984 . S
H329 N325 0.985 . S
H330 N324 0.984 . S
H331 N324 0.984 . S
H332 N320 0.984 . S
H333 N320 0.985 . S
C334 C335 1.363 . S
C334 C340 1.379 . S
C334 N342 1.356 . S
C335 C334 1.363 . S
C335 C341 1.363 . S
C336 C337 1.363 . S
C336 C341 1.379 . S
C336 N343 1.356 . S
C337 C336 1.363 . S
C337 C340 1.363 . S
N338 C340 1.356 . S
N338 H350 0.984 . S
N338 H351 0.985 . S
N339 C341 1.356 . S
N339 H344 0.984 . S
N339 H345 0.985 . S
C340 C334 1.379 . S
C340 C337 1.363 . S
C340 N338 1.356 . S
C341 C335 1.363 . S
C341 C336 1.379 . S
C341 N339 1.356 . S
N342 C334 1.356 . S
N342 H348 0.984 . S
N342 H349 0.984 . S
N343 C336 1.356 . S
N343 H346 0.984 . S
N343 H347 0.985 . S
H344 N339 0.984 . S
H345 N339 0.985 . S
H346 N343 0.984 . S
H347 N343 0.985 . S
H348 N342 0.984 . S
H349 N342 0.984 . S
H350 N338 0.984 . S
H351 N338 0.985 . S
C352 C353 1.363 . S
C352 C358 1.379 1_556 S
C352 N360 1.356 . S
C353 C352 1.363 . S
C353 C359 1.363 . S
C354 C355 1.363 . S
C354 C359 1.379 1_554 S
C354 N361 1.356 . S
C355 C354 1.363 . S
C355 C358 1.363 . S
N356 C358 1.356 . S
N356 H368 0.984 . S
N356 H369 0.985 . S
N357 C359 1.356 . S
N357 H362 0.984 . S
N357 H363 0.985 . S
C358 C352 1.379 1_554 S
C358 C355 1.363 . S
C358 N356 1.356 . S
C359 C353 1.363 . S
C359 C354 1.379 1_556 S
C359 N357 1.356 . S
N360 C352 1.356 . S
N360 H366 0.984 . S
N360 H367 0.984 . S
N361 C354 1.356 . S
N361 H364 0.984 . S
N361 H365 0.985 . S
H362 N357 0.984 . S
H363 N357 0.985 . S
H364 N361 0.984 . S
H365 N361 0.985 . S
H366 N360 0.984 . S
H367 N360 0.984 . S
H368 N356 0.984 . S
H369 N356 0.985 . S
C370 C371 1.363 . S
C370 C376 1.379 1_556 S
C370 N378 1.356 . S
C371 C370 1.363 . S
C371 C377 1.363 . S
C372 C373 1.363 . S
C372 C377 1.379 1_554 S
C372 N379 1.356 . S
C373 C372 1.363 . S
C373 C376 1.363 . S
N374 C376 1.356 . S
N374 H386 0.984 . S
N374 H387 0.985 . S
N375 C377 1.356 . S
N375 H380 0.984 . S
N375 H381 0.985 . S
C376 C370 1.379 1_554 S
C376 C373 1.363 . S
C376 N374 1.356 . S
C377 C371 1.363 . S
C377 C372 1.379 1_556 S
C377 N375 1.356 . S
N378 C370 1.356 . S
N378 H384 0.984 . S
N378 H385 0.984 . S
N379 C372 1.356 . S
N379 H382 0.984 . S
N379 H383 0.985 . S
H380 N375 0.984 . S
H381 N375 0.985 . S
H382 N379 0.984 . S
H383 N379 0.985 . S
H384 N378 0.984 . S
H385 N378 0.984 . S
H386 N374 0.984 . S
H387 N374 0.985 . S
C388 C389 1.363 . S
C388 C394 1.379 1_556 S
C388 N396 1.356 . S
C389 C388 1.363 . S
C389 C395 1.363 . S
C390 C391 1.363 . S
C390 C395 1.379 1_554 S
C390 N397 1.356 . S
C391 C390 1.363 . S
C391 C394 1.363 . S
N392 C394 1.356 . S
N392 H404 0.984 . S
N392 H405 0.985 . S
N393 C395 1.356 . S
N393 H398 0.984 . S
N393 H399 0.985 . S
C394 C388 1.379 1_554 S
C394 C391 1.363 . S
C394 N392 1.356 . S
C395 C389 1.363 . S
C395 C390 1.379 1_556 S
C395 N393 1.356 . S
N396 C388 1.356 . S
N396 H402 0.984 . S
N396 H403 0.984 . S
N397 C390 1.356 . S
N397 H400 0.984 . S
N397 H401 0.985 . S
H398 N393 0.984 . S
H399 N393 0.985 . S
H400 N397 0.984 . S
H401 N397 0.985 . S
H402 N396 0.984 . S
H403 N396 0.984 . S
H404 N392 0.984 . S
H405 N392 0.985 . S
C406 C407 1.363 . S
C406 C412 1.379 1_554 S
C406 N414 1.356 . S
C407 C406 1.363 . S
C407 C413 1.363 . S
C408 C409 1.363 . S
C408 C413 1.379 1_556 S
C408 N415 1.356 . S
C409 C408 1.363 . S
C409 C412 1.363 . S
N410 C412 1.356 . S
N410 H422 0.984 . S
N410 H423 0.985 . S
N411 C413 1.356 . S
N411 H416 0.984 . S
N411 H417 0.985 . S
C412 C406 1.379 1_556 S
C412 C409 1.363 . S
C412 N410 1.356 . S
C413 C407 1.363 . S
C413 C408 1.379 1_554 S
C413 N411 1.356 . S
N414 C406 1.356 . S
N414 H420 0.984 . S
N414 H421 0.984 . S
N415 C408 1.356 . S
N415 H418 0.984 . S
N415 H419 0.985 . S
H416 N411 0.984 . S
H417 N411 0.985 . S
H418 N415 0.984 . S
H419 N415 0.985 . S
H420 N414 0.984 . S
H421 N414 0.984 . S
H422 N410 0.984 . S
H423 N410 0.985 . S
C424 C425 1.363 . S
C424 C430 1.379 1_455 S
C424 N432 1.356 . S
C425 C424 1.363 . S
C425 C431 1.363 . S
C426 C427 1.363 . S
C426 C431 1.379 1_655 S
C426 N433 1.356 . S
C427 C426 1.363 . S
C427 C430 1.363 . S
N428 C430 1.356 . S
N428 H440 0.984 . S
N428 H441 0.985 . S
N429 C431 1.356 . S
N429 H434 0.984 . S
N429 H435 0.985 . S
C430 C424 1.379 1_655 S
C430 C427 1.363 . S
C430 N428 1.356 . S
C431 C425 1.363 . S
C431 C426 1.379 1_455 S
C431 N429 1.356 . S
N432 C424 1.356 . S
N432 H438 0.984 . S
N432 H439 0.984 . S
N433 C426 1.356 . S
N433 H436 0.984 . S
N433 H437 0.985 . S
H434 N429 0.984 . S
H435 N429 0.985 . S
H436 N433 0.984 . S
H437 N433 0.985 . S
H438 N432 0.984 . S
H439 N432 0.984 . S
H440 N428 0.984 . S
H441 N428 0.985 . S
C442 C443 1.363 . S
C442 C448 1.379 1_565 S
C442 N450 1.356 . S
C443 C442 1.363 . S
C443 C449 1.363 . S
C444 C445 1.363 . S
C444 C449 1.379 1_545 S
C444 N451 1.356 . S
C445 C444 1.363 . S
C445 C448 1.363 . S
N446 C448 1.356 . S
N446 H458 0.984 . S
N446 H459 0.985 . S
N447 C449 1.356 . S
N447 H452 0.984 . S
N447 H453 0.985 . S
C448 C442 1.379 1_545 S
C448 C445 1.363 . S
C448 N446 1.356 . S
C449 C443 1.363 . S
C449 C444 1.379 1_565 S
C449 N447 1.356 . S
N450 C442 1.356 . S
N450 H456 0.984 . S
N450 H457 0.984 . S
N451 C444 1.356 . S
N451 H454 0.984 . S
N451 H455 0.985 . S
H452 N447 0.984 . S
H453 N447 0.985 . S
H454 N451 0.984 . S
H455 N451 0.985 . S
H456 N450 0.984 . S
H457 N450 0.984 . S
H458 N446 0.984 . S
H459 N446 0.985 . S
C460 C461 1.363 . S
C460 C466 1.379 1_655 S
C460 N468 1.356 . S
C461 C460 1.363 . S
C461 C467 1.363 . S
C462 C463 1.363 . S
C462 C467 1.379 1_455 S
C462 N469 1.356 . S
C463 C462 1.363 . S
C463 C466 1.363 . S
N464 C466 1.356 . S
N464 H476 0.984 . S
N464 H477 0.985 . S
N465 C467 1.356 . S
N465 H470 0.984 . S
N465 H471 0.985 . S
C466 C460 1.379 1_455 S
C466 C463 1.363 . S
C466 N464 1.356 . S
C467 C461 1.363 . S
C467 C462 1.379 1_655 S
C467 N465 1.356 . S
N468 C460 1.356 . S
N468 H474 0.984 . S
N468 H475 0.984 . S
N469 C462 1.356 . S
N469 H472 0.984 . S
N469 H473 0.985 . S
H470 N465 0.984 . S
H471 N465 0.985 . S
H472 N469 0.984 . S
H473 N469 0.985 . S
H474 N468 0.984 . S
H475 N468 0.984 . S
H476 N464 0.984 . S
H477 N464 0.985 . S
C478 C479 1.363 . S
C478 C484 1.379 1_545 S
C478 N486 1.356 . S
C479 C478 1.363 . S
C479 C485 1.363 . S
C480 C481 1.363 . S
C480 C485 1.379 1_565 S
C480 N487 1.356 . S
C481 C480 1.363 . S
C481 C484 1.363 . S
N482 C484 1.356 . S
N482 H494 0.984 . S
N482 H495 0.985 . S
N483 C485 1.356 . S
N483 H488 0.984 . S
N483 H489 0.985 . S
C484 C478 1.379 1_565 S
C484 C481 1.363 . S
C484 N482 1.356 . S
C485 C479 1.363 . S
C485 C480 1.379 1_545 S
C485 N483 1.356 . S
N486 C478 1.356 . S
N486 H492 0.984 . S
N486 H493 0.984 . S
N487 C480 1.356 . S
N487 H490 0.984 . S
N487 H491 0.985 . S
H488 N483 0.984 . S
H489 N483 0.985 . S
H490 N487 0.984 . S
H491 N487 0.985 . S
H492 N486 0.984 . S
H493 N486 0.984 . S
H494 N482 0.984 . S
H495 N482 0.985 . S
C496 C497 1.363 . S
C496 C502 1.379 1_655 S
C496 N504 1.356 . S
C497 C496 1.363 . S
C497 C503 1.363 . S
C498 C499 1.363 . S
C498 C503 1.379 1_455 S
C498 N505 1.356 . S
C499 C498 1.363 . S
C499 C502 1.363 . S
N500 C502 1.356 . S
N500 H512 0.984 . S
N500 H513 0.985 . S
N501 C503 1.356 . S
N501 H506 0.984 . S
N501 H507 0.985 . S
C502 C496 1.379 1_455 S
C502 C499 1.363 . S
C502 N500 1.356 . S
C503 C497 1.363 . S
C503 C498 1.379 1_655 S
C503 N501 1.356 . S
N504 C496 1.356 . S
N504 H510 0.984 . S
N504 H511 0.984 . S
N505 C498 1.356 . S
N505 H508 0.984 . S
N505 H509 0.985 . S
H506 N501 0.984 . S
H507 N501 0.985 . S
H508 N505 0.984 . S
H509 N505 0.985 . S
H510 N504 0.984 . S
H511 N504 0.984 . S
H512 N500 0.984 . S
H513 N500 0.985 . S
C514 C515 1.363 . S
C514 C520 1.379 1_565 S
C514 N522 1.356 . S
C515 C514 1.363 . S
C515 C521 1.363 . S
C516 C517 1.363 . S
C516 C521 1.379 1_545 S
C516 N523 1.356 . S
C517 C516 1.363 . S
C517 C520 1.363 . S
N518 C520 1.356 . S
N518 H530 0.984 . S
N518 H531 0.985 . S
N519 C521 1.356 . S
N519 H524 0.984 . S
N519 H525 0.985 . S
C520 C514 1.379 1_545 S
C520 C517 1.363 . S
C520 N518 1.356 . S
C521 C515 1.363 . S
C521 C516 1.379 1_565 S
C521 N519 1.356 . S
N522 C514 1.356 . S
N522 H528 0.984 . S
N522 H529 0.984 . S
N523 C516 1.356 . S
N523 H526 0.984 . S
N523 H527 0.985 . S
H524 N519 0.984 . S
H525 N519 0.985 . S
H526 N523 0.984 . S
H527 N523 0.985 . S
H528 N522 0.984 . S
H529 N522 0.984 . S
H530 N518 0.984 . S
H531 N518 0.985 . S
C532 C533 1.363 . S
C532 C538 1.379 1_455 S
C532 N540 1.356 . S
C533 C532 1.363 . S
C533 C539 1.363 . S
C534 C535 1.363 . S
C534 C539 1.379 1_655 S
C534 N541 1.356 . S
C535 C534 1.363 . S
C535 C538 1.363 . S
N536 C538 1.356 . S
N536 H548 0.984 . S
N536 H549 0.985 . S
N537 C539 1.356 . S
N537 H542 0.984 . S
N537 H543 0.985 . S
C538 C532 1.379 1_655 S
C538 C535 1.363 . S
C538 N536 1.356 . S
C539 C533 1.363 . S
C539 C534 1.379 1_455 S
C539 N537 1.356 . S
N540 C532 1.356 . S
N540 H546 0.984 . S
N540 H547 0.984 . S
N541 C534 1.356 . S
N541 H544 0.984 . S
N541 H545 0.985 . S
H542 N537 0.984 . S
H543 N537 0.985 . S
H544 N541 0.984 . S
H545 N541 0.985 . S
H546 N540 0.984 . S
H547 N540 0.984 . S
H548 N536 0.984 . S
H549 N536 0.985 . S
C550 C551 1.363 . S
C550 C556 1.379 1_565 S
C550 N558 1.356 . S
C551 C550 1.363 . S
C551 C557 1.363 . S
C552 C553 1.363 . S
C552 C557 1.379 1_545 S
C552 N559 1.356 . S
C553 C552 1.363 . S
C553 C556 1.363 . S
N554 C556 1.356 . S
N554 H566 0.984 . S
N554 H567 0.985 . S
N555 C557 1.356 . S
N555 H560 0.984 . S
N555 H561 0.985 . S
C556 C550 1.379 1_545 S
C556 C553 1.363 . S
C556 N554 1.356 . S
C557 C551 1.363 . S
C557 C552 1.379 1_565 S
C557 N555 1.356 . S
N558 C550 1.356 . S
N558 H564 0.984 . S
N558 H565 0.984 . S
N559 C552 1.356 . S
N559 H562 0.984 . S
N559 H563 0.985 . S
H560 N555 0.984 . S
H561 N555 0.985 . S
H562 N559 0.984 . S
H563 N559 0.985 . S
H564 N558 0.984 . S
H565 N558 0.984 . S
H566 N554 0.984 . S
H567 N554 0.985 . S
C568 C569 1.363 . S
C568 C574 1.379 . S
C568 N576 1.356 . S
C569 C568 1.363 . S
C569 C575 1.363 . S
C570 C571 1.363 . S
C570 C575 1.379 . S
C570 N577 1.356 . S
C571 C570 1.363 . S
C571 C574 1.363 . S
N572 C574 1.356 . S
N572 H584 0.984 . S
N572 H585 0.985 . S
N573 C575 1.356 . S
N573 H578 0.984 . S
N573 H579 0.985 . S
C574 C568 1.379 . S
C574 C571 1.363 . S
C574 N572 1.356 . S
C575 C569 1.363 . S
C575 C570 1.379 . S
C575 N573 1.356 . S
N576 C568 1.356 . S
N576 H582 0.984 . S
N576 H583 0.984 . S
N577 C570 1.356 . S
N577 H580 0.984 . S
N577 H581 0.985 . S
H578 N573 0.984 . S
H579 N573 0.985 . S
H580 N577 0.984 . S
H581 N577 0.985 . S
H582 N576 0.984 . S
H583 N576 0.984 . S
H584 N572 0.984 . S
H585 N572 0.985 . S
C586 C587 1.363 . S
C586 C592 1.379 . S
C586 N594 1.356 . S
C587 C586 1.363 . S
C587 C593 1.363 . S
C588 C589 1.363 . S
C588 C593 1.379 . S
C588 N595 1.356 . S
C589 C588 1.363 . S
C589 C592 1.363 . S
N590 C592 1.356 . S
N590 H602 0.984 . S
N590 H603 0.985 . S
N591 C593 1.356 . S
N591 H596 0.984 . S
N591 H597 0.985 . S
C592 C586 1.379 . S
C592 C589 1.363 . S
C592 N590 1.356 . S
C593 C587 1.363 . S
C593 C588 1.379 . S
C593 N591 1.356 . S
N594 C586 1.356 . S
N594 H600 0.984 . S
N594 H601 0.984 . S
N595 C588 1.356 . S
N595 H598 0.984 . S
N595 H599 0.985 . S
H596 N591 0.984 . S
H597 N591 0.985 . S
H598 N595 0.984 . S
H599 N595 0.985 . S
H600 N594 0.984 . S
H601 N594 0.984 . S
H602 N590 0.984 . S
H603 N590 0.985 . S
C604 C605 1.363 . S
C604 C610 1.379 . S
C604 N612 1.356 . S
C605 C604 1.363 . S
C605 C611 1.363 . S
C606 C607 1.363 . S
C606 C611 1.379 . S
C606 N613 1.356 . S
C607 C606 1.363 . S
C607 C610 1.363 . S
N608 C610 1.356 . S
N608 H620 0.984 . S
N608 H621 0.985 . S
N609 C611 1.356 . S
N609 H614 0.984 . S
N609 H615 0.985 . S
C610 C604 1.379 . S
C610 C607 1.363 . S
C610 N608 1.356 . S
C611 C605 1.363 . S
C611 C606 1.379 . S
C611 N609 1.356 . S
N612 C604 1.356 . S
N612 H618 0.984 . S
N612 H619 0.984 . S
N613 C606 1.356 . S
N613 H616 0.984 . S
N613 H617 0.985 . S
H614 N609 0.984 . S
H615 N609 0.985 . S
H616 N613 0.984 . S
H617 N613 0.985 . S
H618 N612 0.984 . S
H619 N612 0.984 . S
H620 N608 0.984 . S
H621 N608 0.985 . S
C622 C623 1.363 . S
C622 C628 1.379 . S
C622 N630 1.356 . S
C623 C622 1.363 . S
C623 C629 1.363 . S
C624 C625 1.363 . S
C624 C629 1.379 . S
C624 N631 1.356 . S
C625 C624 1.363 . S
C625 C628 1.363 . S
N626 C628 1.356 . S
N626 H638 0.984 . S
N626 H639 0.985 . S
N627 C629 1.356 . S
N627 H632 0.984 . S
N627 H633 0.985 . S
C628 C622 1.379 . S
C628 C625 1.363 . S
C628 N626 1.356 . S
C629 C623 1.363 . S
C629 C624 1.379 . S
C629 N627 1.356 . S
N630 C622 1.356 . S
N630 H636 0.984 . S
N630 H637 0.984 . S
N631 C624 1.356 . S
N631 H634 0.984 . S
N631 H635 0.985 . S
H632 N627 0.984 . S
H633 N627 0.985 . S
H634 N631 0.984 . S
H635 N631 0.985 . S
H636 N630 0.984 . S
H637 N630 0.984 . S
H638 N626 0.984 . S
H639 N626 0.985 . S
C640 C641 1.363 . S
C640 C646 1.379 . S
C640 N648 1.356 . S
C641 C640 1.363 . S
C641 C647 1.363 . S
C642 C643 1.363 . S
C642 C647 1.379 . S
C642 N649 1.356 . S
C643 C642 1.363 . S
C643 C646 1.363 . S
N644 C646 1.356 . S
N644 H656 0.984 . S
N644 H657 0.985 . S
N645 C647 1.356 . S
N645 H650 0.984 . S
N645 H651 0.985 . S
C646 C640 1.379 . S
C646 C643 1.363 . S
C646 N644 1.356 . S
C647 C641 1.363 . S
C647 C642 1.379 . S
C647 N645 1.356 . S
N648 C640 1.356 . S
N648 H654 0.984 . S
N648 H655 0.984 . S
N649 C642 1.356 . S
N649 H652 0.984 . S
N649 H653 0.985 . S
H650 N645 0.984 . S
H651 N645 0.985 . S
H652 N649 0.984 . S
H653 N649 0.985 . S
H654 N648 0.984 . S
H655 N648 0.984 . S
H656 N644 0.984 . S
H657 N644 0.985 . S
C658 C659 1.363 . S
C658 C664 1.379 . S
C658 N666 1.356 . S
C659 C658 1.363 . S
C659 C665 1.363 . S
C660 C661 1.363 . S
C660 C665 1.379 . S
C660 N667 1.356 . S
C661 C660 1.363 . S
C661 C664 1.363 . S
N662 C664 1.356 . S
N662 H674 0.984 . S
N662 H675 0.985 . S
N663 C665 1.356 . S
N663 H668 0.984 . S
N663 H669 0.985 . S
C664 C658 1.379 . S
C664 C661 1.363 . S
C664 N662 1.356 . S
C665 C659 1.363 . S
C665 C660 1.379 . S
C665 N663 1.356 . S
N666 C658 1.356 . S
N666 H672 0.984 . S
N666 H673 0.984 . S
N667 C660 1.356 . S
N667 H670 0.984 . S
N667 H671 0.985 . S
H668 N663 0.984 . S
H669 N663 0.985 . S
H670 N667 0.984 . S
H671 N667 0.985 . S
H672 N666 0.984 . S
H673 N666 0.984 . S
H674 N662 0.984 . S
H675 N662 0.985 . S
C676 C677 1.363 . S
C676 C682 1.379 . S
C676 N684 1.356 . S
C677 C676 1.363 . S
C677 C683 1.363 . S
C678 C679 1.363 . S
C678 C683 1.379 . S
C678 N685 1.356 . S
C679 C678 1.363 . S
C679 C682 1.363 . S
N680 C682 1.356 . S
N680 H692 0.984 . S
N680 H693 0.985 . S
N681 C683 1.356 . S
N681 H686 0.984 . S
N681 H687 0.985 . S
C682 C676 1.379 . S
C682 C679 1.363 . S
C682 N680 1.356 . S
C683 C677 1.363 . S
C683 C678 1.379 . S
C683 N681 1.356 . S
N684 C676 1.356 . S
N684 H690 0.984 . S
N684 H691 0.984 . S
N685 C678 1.356 . S
N685 H688 0.984 . S
N685 H689 0.985 . S
H686 N681 0.984 . S
H687 N681 0.985 . S
H688 N685 0.984 . S
H689 N685 0.985 . S
H690 N684 0.984 . S
H691 N684 0.984 . S
H692 N680 0.984 . S
H693 N680 0.985 . S
C694 C695 1.363 . S
C694 C700 1.379 . S
C694 N702 1.356 . S
C695 C694 1.363 . S
C695 C701 1.363 . S
C696 C697 1.363 . S
C696 C701 1.379 . S
C696 N703 1.356 . S
C697 C696 1.363 . S
C697 C700 1.363 . S
N698 C700 1.356 . S
N698 H710 0.984 . S
N698 H711 0.985 . S
N699 C701 1.356 . S
N699 H704 0.984 . S
N699 H705 0.985 . S
C700 C694 1.379 . S
C700 C697 1.363 . S
C700 N698 1.356 . S
C701 C695 1.363 . S
C701 C696 1.379 . S
C701 N699 1.356 . S
N702 C694 1.356 . S
N702 H708 0.984 . S
N702 H709 0.984 . S
N703 C696 1.356 . S
N703 H706 0.984 . S
N703 H707 0.985 . S
H704 N699 0.984 . S
H705 N699 0.985 . S
H706 N703 0.984 . S
H707 N703 0.985 . S
H708 N702 0.984 . S
H709 N702 0.984 . S
H710 N698 0.984 . S
H711 N698 0.985 . S
C712 C713 1.363 . S
C712 C718 1.379 . S
C712 N720 1.356 . S
C713 C712 1.363 . S
C713 C719 1.363 . S
C714 C715 1.363 . S
C714 C719 1.379 . S
C714 N721 1.356 . S
C715 C714 1.363 . S
C715 C718 1.363 . S
N716 C718 1.356 . S
N716 H728 0.984 . S
N716 H729 0.985 . S
N717 C719 1.356 . S
N717 H722 0.984 . S
N717 H723 0.985 . S
C718 C712 1.379 . S
C718 C715 1.363 . S
C718 N716 1.356 . S
C719 C713 1.363 . S
C719 C714 1.379 . S
C719 N717 1.356 . S
N720 C712 1.356 . S
N720 H726 0.984 . S
N720 H727 0.984 . S
N721 C714 1.356 . S
N721 H724 0.984 . S
N721 H725 0.985 . S
H722 N717 0.984 . S
H723 N717 0.985 . S
H724 N721 0.984 . S
H725 N721 0.985 . S
H726 N720 0.984 . S
H727 N720 0.984 . S
H728 N716 0.984 . S
H729 N716 0.985 . S
C730 C731 1.363 . S
C730 C736 1.379 . S
C730 N738 1.356 . S
C731 C730 1.363 . S
C731 C737 1.363 . S
C732 C733 1.363 . S
C732 C737 1.379 . S
C732 N739 1.356 . S
C733 C732 1.363 . S
C733 C736 1.363 . S
N734 C736 1.356 . S
N734 H746 0.984 . S
N734 H747 0.985 . S
N735 C737 1.356 . S
N735 H740 0.984 . S
N735 H741 0.985 . S
C736 C730 1.379 . S
C736 C733 1.363 . S
C736 N734 1.356 . S
C737 C731 1.363 . S
C737 C732 1.379 . S
C737 N735 1.356 . S
N738 C730 1.356 . S
N738 H744 0.984 . S
N738 H745 0.984 . S
N739 C732 1.356 . S
N739 H742 0.984 . S
N739 H743 0.985 . S
H740 N735 0.984 . S
H741 N735 0.985 . S
H742 N739 0.984 . S
H743 N739 0.985 . S
H744 N738 0.984 . S
H745 N738 0.984 . S
H746 N734 0.984 . S
H747 N734 0.985 . S
C748 C749 1.363 . S
C748 C754 1.379 . S
C748 N756 1.356 . S
C749 C748 1.363 . S
C749 C755 1.363 . S
C750 C751 1.363 . S
C750 C755 1.379 . S
C750 N757 1.356 . S
C751 C750 1.363 . S
C751 C754 1.363 . S
N752 C754 1.356 . S
N752 H764 0.984 . S
N752 H765 0.985 . S
N753 C755 1.356 . S
N753 H758 0.984 . S
N753 H759 0.985 . S
C754 C748 1.379 . S
C754 C751 1.363 . S
C754 N752 1.356 . S
C755 C749 1.363 . S
C755 C750 1.379 . S
C755 N753 1.356 . S
N756 C748 1.356 . S
N756 H762 0.984 . S
N756 H763 0.984 . S
N757 C750 1.356 . S
N757 H760 0.984 . S
N757 H761 0.985 . S
H758 N753 0.984 . S
H759 N753 0.985 . S
H760 N757 0.984 . S
H761 N757 0.985 . S
H762 N756 0.984 . S
H763 N756 0.984 . S
H764 N752 0.984 . S
H765 N752 0.985 . S
C766 C767 1.363 . S
C766 C772 1.379 . S
C766 N774 1.356 . S
C767 C766 1.363 . S
C767 C773 1.363 . S
C768 C769 1.363 . S
C768 C773 1.379 . S
C768 N775 1.356 . S
C769 C768 1.363 . S
C769 C772 1.363 . S
N770 C772 1.356 . S
N770 H782 0.984 . S
N770 H783 0.985 . S
N771 C773 1.356 . S
N771 H776 0.984 . S
N771 H777 0.985 . S
C772 C766 1.379 . S
C772 C769 1.363 . S
C772 N770 1.356 . S
C773 C767 1.363 . S
C773 C768 1.379 . S
C773 N771 1.356 . S
N774 C766 1.356 . S
N774 H780 0.984 . S
N774 H781 0.984 . S
N775 C768 1.356 . S
N775 H778 0.984 . S
N775 H779 0.985 . S
H776 N771 0.984 . S
H777 N771 0.985 . S
H778 N775 0.984 . S
H779 N775 0.985 . S
H780 N774 0.984 . S
H781 N774 0.984 . S
H782 N770 0.984 . S
H783 N770 0.985 . S
C209 C195 1.052 . S
C211 C0 1.042 . S
C227 C156 1.174 . S
C229 C13 1.180 . S
C245 C26 1.092 . S
C247 C169 1.084 . S
C263 C182 1.137 . S
C265 C39 1.175 . S
C281 C117 1.180 . S
C283 C52 1.174 . S
C299 C65 1.084 . S
C301 C130 1.092 . S
C317 C78 1.137 . S
C319 C143 1.175 . S
C335 C91 1.052 . S
C337 C104 1.042 . S
C353 C70 1.233 . S
C355 C5 1.227 . S
C371 C86 1.458 . S
C373 C18 1.479 . S
C389 C96 1.331 . S
C391 C31 1.334 . S
C407 C49 1.534 . S
C409 C60 1.473 . S
C425 C8 1.398 . S
C427 C23 1.430 . S
C443 C36 1.547 . S
C445 C21 1.493 . S
C461 C34 1.444 . S
C463 C47 1.452 . S
C479 C10 1.459 . S
C481 C44 1.416 . S
C497 C101 1.440 . S
C499 C62 1.440 . S
C515 C57 1.385 . S
C517 C73 1.358 . S
C533 C75 1.413 . S
C535 C88 1.415 . S
C551 C99 1.312 . S
C553 C83 1.305 . S
C569 C174 1.233 . S
C571 C109 1.227 . S
C587 C122 1.479 . S
C589 C190 1.458 . S
C605 C200 1.331 . S
C607 C135 1.334 . S
C623 C164 1.473 . S
C625 C153 1.534 . S
C641 C112 1.398 . S
C643 C127 1.430 . S
C659 C125 1.493 . S
C661 C140 1.547 . S
C677 C151 1.452 . S
C679 C138 1.444 . S
C695 C114 1.459 . S
C697 C148 1.416 . S
C713 C205 1.440 . S
C715 C166 1.440 . S
C731 C161 1.385 . S
C733 C177 1.358 . S
C749 C179 1.413 . S
C751 C192 1.415 . S
C767 C203 1.312 . S
C769 C187 1.305 . S
