# Generated by pormake.
# Topology fch, (5)-cn, num edge types: 1
# Building blocks:
#     Node 0, Type 0, BuildingBlock: BEQFEK_clean_sbu_0, # of connection points: 5
#     Node 1, Type 0, BuildingBlock: BEQFEK_clean_sbu_0, # of connection points: 5
#     Node 2, Type 0, BuildingBlock: BEQFEK_clean_sbu_0, # of connection points: 5
#     Node 3, Type 0, BuildingBlock: BEQFEK_clean_sbu_0, # of connection points: 5
#     Node 4, Type 0, BuildingBlock: BEQFEK_clean_sbu_0, # of connection points: 5
#     Node 5, Type 0, BuildingBlock: BEQFEK_clean_sbu_0, # of connection points: 5
#     Node 6, Type 0, BuildingBlock: BEQFEK_clean_sbu_0, # of connection points: 5
#     Node 7, Type 0, BuildingBlock: BEQFEK_clean_sbu_0, # of connection points: 5
#     Node 8, Type 0, BuildingBlock: BEQFEK_clean_sbu_0, # of connection points: 5
#     Node 9, Type 0, BuildingBlock: BEQFEK_clean_sbu_0, # of connection points: 5
#     Node 10, Type 0, BuildingBlock: BEQFEK_clean_sbu_0, # of connection points: 5
#     Node 11, Type 0, BuildingBlock: BEQFEK_clean_sbu_0, # of connection points: 5
#     Node 12, Type 0, BuildingBlock: BEQFEK_clean_sbu_0, # of connection points: 5
#     Node 13, Type 0, BuildingBlock: BEQFEK_clean_sbu_0, # of connection points: 5
#     Node 14, Type 0, BuildingBlock: BEQFEK_clean_sbu_0, # of connection points: 5
#     Node 15, Type 0, BuildingBlock: BEQFEK_clean_sbu_0, # of connection points: 5
#     Node 16, Type 0, BuildingBlock: BEQFEK_clean_sbu_0, # of connection points: 5
#     Node 17, Type 0, BuildingBlock: BEQFEK_clean_sbu_0, # of connection points: 5
#     Node 18, Type 0, BuildingBlock: BEQFEK_clean_sbu_0, # of connection points: 5
#     Node 19, Type 0, BuildingBlock: BEQFEK_clean_sbu_0, # of connection points: 5
#     Node 20, Type 0, BuildingBlock: BEQFEK_clean_sbu_0, # of connection points: 5
#     Node 21, Type 0, BuildingBlock: BEQFEK_clean_sbu_0, # of connection points: 5
#     Node 22, Type 0, BuildingBlock: BEQFEK_clean_sbu_0, # of connection points: 5
#     Node 23, Type 0, BuildingBlock: BEQFEK_clean_sbu_0, # of connection points: 5
#     Node 24, Type 0, BuildingBlock: BEQFEK_clean_sbu_0, # of connection points: 5
#     Node 25, Type 0, BuildingBlock: BEQFEK_clean_sbu_0, # of connection points: 5
#     Node 26, Type 0, BuildingBlock: BEQFEK_clean_sbu_0, # of connection points: 5
#     Node 27, Type 0, BuildingBlock: BEQFEK_clean_sbu_0, # of connection points: 5
#     Node 28, Type 0, BuildingBlock: BEQFEK_clean_sbu_0, # of connection points: 5
#     Node 29, Type 0, BuildingBlock: BEQFEK_clean_sbu_0, # of connection points: 5
#     Node 30, Type 0, BuildingBlock: BEQFEK_clean_sbu_0, # of connection points: 5
#     Node 31, Type 0, BuildingBlock: BEQFEK_clean_sbu_0, # of connection points: 5
#     Node 32, Type 0, BuildingBlock: BEQFEK_clean_sbu_0, # of connection points: 5
#     Node 33, Type 0, BuildingBlock: BEQFEK_clean_sbu_0, # of connection points: 5
#     Node 34, Type 0, BuildingBlock: BEQFEK_clean_sbu_0, # of connection points: 5
#     Node 35, Type 0, BuildingBlock: BEQFEK_clean_sbu_0, # of connection points: 5
#     Node 36, Type 0, BuildingBlock: BEQFEK_clean_sbu_0, # of connection points: 5
#     Node 37, Type 0, BuildingBlock: BEQFEK_clean_sbu_0, # of connection points: 5
#     Node 38, Type 0, BuildingBlock: BEQFEK_clean_sbu_0, # of connection points: 5
#     Node 39, Type 0, BuildingBlock: BEQFEK_clean_sbu_0, # of connection points: 5
#     Node 40, Type 0, BuildingBlock: BEQFEK_clean_sbu_0, # of connection points: 5
#     Node 41, Type 0, BuildingBlock: BEQFEK_clean_sbu_0, # of connection points: 5
#     Node 42, Type 0, BuildingBlock: BEQFEK_clean_sbu_0, # of connection points: 5
#     Node 43, Type 0, BuildingBlock: BEQFEK_clean_sbu_0, # of connection points: 5
#     Node 44, Type 0, BuildingBlock: BEQFEK_clean_sbu_0, # of connection points: 5
#     Node 45, Type 0, BuildingBlock: BEQFEK_clean_sbu_0, # of connection points: 5
#     Node 46, Type 0, BuildingBlock: BEQFEK_clean_sbu_0, # of connection points: 5
#     Node 47, Type 0, BuildingBlock: BEQFEK_clean_sbu_0, # of connection points: 5
#     Edge 48, Type (0, 0), BuildingBlock: UVAHIK_clean_linker_0, # of connection points: 2
#     Edge 49, Type (0, 0), BuildingBlock: UVAHIK_clean_linker_0, # of connection points: 2
#     Edge 50, Type (0, 0), BuildingBlock: UVAHIK_clean_linker_0, # of connection points: 2
#     Edge 51, Type (0, 0), BuildingBlock: UVAHIK_clean_linker_0, # of connection points: 2
#     Edge 52, Type (0, 0), BuildingBlock: UVAHIK_clean_linker_0, # of connection points: 2
#     Edge 53, Type (0, 0), BuildingBlock: UVAHIK_clean_linker_0, # of connection points: 2
#     Edge 54, Type (0, 0), BuildingBlock: UVAHIK_clean_linker_0, # of connection points: 2
#     Edge 55, Type (0, 0), BuildingBlock: UVAHIK_clean_linker_0, # of connection points: 2
#     Edge 56, Type (0, 0), BuildingBlock: UVAHIK_clean_linker_0, # of connection points: 2
#     Edge 57, Type (0, 0), BuildingBlock: UVAHIK_clean_linker_0, # of connection points: 2
#     Edge 58, Type (0, 0), BuildingBlock: UVAHIK_clean_linker_0, # of connection points: 2
#     Edge 59, Type (0, 0), BuildingBlock: UVAHIK_clean_linker_0, # of connection points: 2
#     Edge 60, Type (0, 0), BuildingBlock: UVAHIK_clean_linker_0, # of connection points: 2
#     Edge 61, Type (0, 0), BuildingBlock: UVAHIK_clean_linker_0, # of connection points: 2
#     Edge 62, Type (0, 0), BuildingBlock: UVAHIK_clean_linker_0, # of connection points: 2
#     Edge 63, Type (0, 0), BuildingBlock: UVAHIK_clean_linker_0, # of connection points: 2
#     Edge 64, Type (0, 0), BuildingBlock: UVAHIK_clean_linker_0, # of connection points: 2
#     Edge 65, Type (0, 0), BuildingBlock: UVAHIK_clean_linker_0, # of connection points: 2
#     Edge 66, Type (0, 0), BuildingBlock: UVAHIK_clean_linker_0, # of connection points: 2
#     Edge 67, Type (0, 0), BuildingBlock: UVAHIK_clean_linker_0, # of connection points: 2
#     Edge 68, Type (0, 0), BuildingBlock: UVAHIK_clean_linker_0, # of connection points: 2
#     Edge 69, Type (0, 0), BuildingBlock: UVAHIK_clean_linker_0, # of connection points: 2
#     Edge 70, Type (0, 0), BuildingBlock: UVAHIK_clean_linker_0, # of connection points: 2
#     Edge 71, Type (0, 0), BuildingBlock: UVAHIK_clean_linker_0, # of connection points: 2
#     Edge 72, Type (0, 0), BuildingBlock: UVAHIK_clean_linker_0, # of connection points: 2
#     Edge 73, Type (0, 0), BuildingBlock: UVAHIK_clean_linker_0, # of connection points: 2
#     Edge 74, Type (0, 0), BuildingBlock: UVAHIK_clean_linker_0, # of connection points: 2
#     Edge 75, Type (0, 0), BuildingBlock: UVAHIK_clean_linker_0, # of connection points: 2
#     Edge 76, Type (0, 0), BuildingBlock: UVAHIK_clean_linker_0, # of connection points: 2
#     Edge 77, Type (0, 0), BuildingBlock: UVAHIK_clean_linker_0, # of connection points: 2
#     Edge 78, Type (0, 0), BuildingBlock: UVAHIK_clean_linker_0, # of connection points: 2
#     Edge 79, Type (0, 0), BuildingBlock: UVAHIK_clean_linker_0, # of connection points: 2
#     Edge 80, Type (0, 0), BuildingBlock: UVAHIK_clean_linker_0, # of connection points: 2
#     Edge 81, Type (0, 0), BuildingBlock: UVAHIK_clean_linker_0, # of connection points: 2
#     Edge 82, Type (0, 0), BuildingBlock: UVAHIK_clean_linker_0, # of connection points: 2
#     Edge 83, Type (0, 0), BuildingBlock: UVAHIK_clean_linker_0, # of connection points: 2
#     Edge 84, Type (0, 0), BuildingBlock: UVAHIK_clean_linker_0, # of connection points: 2
#     Edge 85, Type (0, 0), BuildingBlock: UVAHIK_clean_linker_0, # of connection points: 2
#     Edge 86, Type (0, 0), BuildingBlock: UVAHIK_clean_linker_0, # of connection points: 2
#     Edge 87, Type (0, 0), BuildingBlock: UVAHIK_clean_linker_0, # of connection points: 2
#     Edge 88, Type (0, 0), BuildingBlock: UVAHIK_clean_linker_0, # of connection points: 2
#     Edge 89, Type (0, 0), BuildingBlock: UVAHIK_clean_linker_0, # of connection points: 2
#     Edge 90, Type (0, 0), BuildingBlock: UVAHIK_clean_linker_0, # of connection points: 2
#     Edge 91, Type (0, 0), BuildingBlock: UVAHIK_clean_linker_0, # of connection points: 2
#     Edge 92, Type (0, 0), BuildingBlock: UVAHIK_clean_linker_0, # of connection points: 2
#     Edge 93, Type (0, 0), BuildingBlock: UVAHIK_clean_linker_0, # of connection points: 2
#     Edge 94, Type (0, 0), BuildingBlock: UVAHIK_clean_linker_0, # of connection points: 2
#     Edge 95, Type (0, 0), BuildingBlock: UVAHIK_clean_linker_0, # of connection points: 2
#     Edge 96, Type (0, 0), BuildingBlock: UVAHIK_clean_linker_0, # of connection points: 2
#     Edge 97, Type (0, 0), BuildingBlock: UVAHIK_clean_linker_0, # of connection points: 2
#     Edge 98, Type (0, 0), BuildingBlock: UVAHIK_clean_linker_0, # of connection points: 2
#     Edge 99, Type (0, 0), BuildingBlock: UVAHIK_clean_linker_0, # of connection points: 2
#     Edge 100, Type (0, 0), BuildingBlock: UVAHIK_clean_linker_0, # of connection points: 2
#     Edge 101, Type (0, 0), BuildingBlock: UVAHIK_clean_linker_0, # of connection points: 2
#     Edge 102, Type (0, 0), BuildingBlock: UVAHIK_clean_linker_0, # of connection points: 2
#     Edge 103, Type (0, 0), BuildingBlock: UVAHIK_clean_linker_0, # of connection points: 2
#     Edge 104, Type (0, 0), BuildingBlock: UVAHIK_clean_linker_0, # of connection points: 2
#     Edge 105, Type (0, 0), BuildingBlock: UVAHIK_clean_linker_0, # of connection points: 2
#     Edge 106, Type (0, 0), BuildingBlock: UVAHIK_clean_linker_0, # of connection points: 2
#     Edge 107, Type (0, 0), BuildingBlock: UVAHIK_clean_linker_0, # of connection points: 2
#     Edge 108, Type (0, 0), BuildingBlock: UVAHIK_clean_linker_0, # of connection points: 2
#     Edge 109, Type (0, 0), BuildingBlock: UVAHIK_clean_linker_0, # of connection points: 2
#     Edge 110, Type (0, 0), BuildingBlock: UVAHIK_clean_linker_0, # of connection points: 2
#     Edge 111, Type (0, 0), BuildingBlock: UVAHIK_clean_linker_0, # of connection points: 2
#     Edge 112, Type (0, 0), BuildingBlock: UVAHIK_clean_linker_0, # of connection points: 2
#     Edge 113, Type (0, 0), BuildingBlock: UVAHIK_clean_linker_0, # of connection points: 2
#     Edge 114, Type (0, 0), BuildingBlock: UVAHIK_clean_linker_0, # of connection points: 2
#     Edge 115, Type (0, 0), BuildingBlock: UVAHIK_clean_linker_0, # of connection points: 2
#     Edge 116, Type (0, 0), BuildingBlock: UVAHIK_clean_linker_0, # of connection points: 2
#     Edge 117, Type (0, 0), BuildingBlock: UVAHIK_clean_linker_0, # of connection points: 2
#     Edge 118, Type (0, 0), BuildingBlock: UVAHIK_clean_linker_0, # of connection points: 2
#     Edge 119, Type (0, 0), BuildingBlock: UVAHIK_clean_linker_0, # of connection points: 2
#     Edge 120, Type (0, 0), BuildingBlock: UVAHIK_clean_linker_0, # of connection points: 2
#     Edge 121, Type (0, 0), BuildingBlock: UVAHIK_clean_linker_0, # of connection points: 2
#     Edge 122, Type (0, 0), BuildingBlock: UVAHIK_clean_linker_0, # of connection points: 2
#     Edge 123, Type (0, 0), BuildingBlock: UVAHIK_clean_linker_0, # of connection points: 2
#     Edge 124, Type (0, 0), BuildingBlock: UVAHIK_clean_linker_0, # of connection points: 2
#     Edge 125, Type (0, 0), BuildingBlock: UVAHIK_clean_linker_0, # of connection points: 2
#     Edge 126, Type (0, 0), BuildingBlock: UVAHIK_clean_linker_0, # of connection points: 2
#     Edge 127, Type (0, 0), BuildingBlock: UVAHIK_clean_linker_0, # of connection points: 2
#     Edge 128, Type (0, 0), BuildingBlock: UVAHIK_clean_linker_0, # of connection points: 2
#     Edge 129, Type (0, 0), BuildingBlock: UVAHIK_clean_linker_0, # of connection points: 2
#     Edge 130, Type (0, 0), BuildingBlock: UVAHIK_clean_linker_0, # of connection points: 2
#     Edge 131, Type (0, 0), BuildingBlock: UVAHIK_clean_linker_0, # of connection points: 2
#     Edge 132, Type (0, 0), BuildingBlock: UVAHIK_clean_linker_0, # of connection points: 2
#     Edge 133, Type (0, 0), BuildingBlock: UVAHIK_clean_linker_0, # of connection points: 2
#     Edge 134, Type (0, 0), BuildingBlock: UVAHIK_clean_linker_0, # of connection points: 2
#     Edge 135, Type (0, 0), BuildingBlock: UVAHIK_clean_linker_0, # of connection points: 2
#     Edge 136, Type (0, 0), BuildingBlock: UVAHIK_clean_linker_0, # of connection points: 2
#     Edge 137, Type (0, 0), BuildingBlock: UVAHIK_clean_linker_0, # of connection points: 2
#     Edge 138, Type (0, 0), BuildingBlock: UVAHIK_clean_linker_0, # of connection points: 2
#     Edge 139, Type (0, 0), BuildingBlock: UVAHIK_clean_linker_0, # of connection points: 2
#     Edge 140, Type (0, 0), BuildingBlock: UVAHIK_clean_linker_0, # of connection points: 2
#     Edge 141, Type (0, 0), BuildingBlock: UVAHIK_clean_linker_0, # of connection points: 2
#     Edge 142, Type (0, 0), BuildingBlock: UVAHIK_clean_linker_0, # of connection points: 2
#     Edge 143, Type (0, 0), BuildingBlock: UVAHIK_clean_linker_0, # of connection points: 2
#     Edge 144, Type (0, 0), BuildingBlock: UVAHIK_clean_linker_0, # of connection points: 2
#     Edge 145, Type (0, 0), BuildingBlock: UVAHIK_clean_linker_0, # of connection points: 2
#     Edge 146, Type (0, 0), BuildingBlock: UVAHIK_clean_linker_0, # of connection points: 2
#     Edge 147, Type (0, 0), BuildingBlock: UVAHIK_clean_linker_0, # of connection points: 2
#     Edge 148, Type (0, 0), BuildingBlock: UVAHIK_clean_linker_0, # of connection points: 2
#     Edge 149, Type (0, 0), BuildingBlock: UVAHIK_clean_linker_0, # of connection points: 2
#     Edge 150, Type (0, 0), BuildingBlock: UVAHIK_clean_linker_0, # of connection points: 2
#     Edge 151, Type (0, 0), BuildingBlock: UVAHIK_clean_linker_0, # of connection points: 2
#     Edge 152, Type (0, 0), BuildingBlock: UVAHIK_clean_linker_0, # of connection points: 2
#     Edge 153, Type (0, 0), BuildingBlock: UVAHIK_clean_linker_0, # of connection points: 2
#     Edge 154, Type (0, 0), BuildingBlock: UVAHIK_clean_linker_0, # of connection points: 2
#     Edge 155, Type (0, 0), BuildingBlock: UVAHIK_clean_linker_0, # of connection points: 2
#     Edge 156, Type (0, 0), BuildingBlock: UVAHIK_clean_linker_0, # of connection points: 2
#     Edge 157, Type (0, 0), BuildingBlock: UVAHIK_clean_linker_0, # of connection points: 2
#     Edge 158, Type (0, 0), BuildingBlock: UVAHIK_clean_linker_0, # of connection points: 2
#     Edge 159, Type (0, 0), BuildingBlock: UVAHIK_clean_linker_0, # of connection points: 2
#     Edge 160, Type (0, 0), BuildingBlock: UVAHIK_clean_linker_0, # of connection points: 2
#     Edge 161, Type (0, 0), BuildingBlock: UVAHIK_clean_linker_0, # of connection points: 2
#     Edge 162, Type (0, 0), BuildingBlock: UVAHIK_clean_linker_0, # of connection points: 2
#     Edge 163, Type (0, 0), BuildingBlock: UVAHIK_clean_linker_0, # of connection points: 2
#     Edge 164, Type (0, 0), BuildingBlock: UVAHIK_clean_linker_0, # of connection points: 2
#     Edge 165, Type (0, 0), BuildingBlock: UVAHIK_clean_linker_0, # of connection points: 2
#     Edge 166, Type (0, 0), BuildingBlock: UVAHIK_clean_linker_0, # of connection points: 2
#     Edge 167, Type (0, 0), BuildingBlock: UVAHIK_clean_linker_0, # of connection points: 2
# Relax obj value: 0.828
# Max RMSD: 0.190
# Mean RMSD: 0.190
data_MOF--net-fch--node1-BEQFEK_clean_sbu_0--edge1-UVAHIK_clean_linker_0
_symmetry_space_group_name_H-M    P1
_symmetry_Int_Tables_number       1
_symmetry_cell_setting            triclinic
loop_
_symmetry_equiv_pos_as_xyz
'x, y, z'
_cell_length_a     92.255149
_cell_length_b     92.24126
_cell_length_c     92.227097
_cell_angle_alpha  90.01317
_cell_angle_beta   90.008817
_cell_angle_gamma 89.989934
loop_
_atom_site_label
_atom_site_type_symbol
_atom_site_fract_x
_atom_site_fract_y
_atom_site_fract_z
_atom_type_partial_charge
Co0 Co 0.0672 0.42011 0.15316 0.0
Co1 Co 0.04059 0.39933 0.15599 0.0
C2 C 0.03732 0.43134 0.15971 0.0
O3 O 0.0509 0.43267 0.1582 0.0
O4 O 0.03133 0.41895 0.15871 0.0
C5 C 0.08014 0.4457 0.14422 0.0
O6 O 0.06665 0.4482 0.14041 0.0
C7 C 0.01465 0.38688 0.14378 0.0
C8 C 0.01028 0.3677 0.15742 0.0
C9 C 0.00525 0.37534 0.14551 0.0
N10 N 0.02496 0.38602 0.15399 0.0
N11 N 0.02232 0.37454 0.16217 0.0
C12 C 0.01333 0.39913 0.13319 0.0
H13 H 0.00266 0.40452 0.13461 0.0
H14 H 0.02215 0.40714 0.13474 0.0
H15 H 0.01381 0.39499 0.12193 0.0
C16 C 0.07039 0.40541 0.12528 0.0
N17 N 0.06289 0.40803 0.13747 0.0
N18 N 0.05236 0.3985 0.13879 0.0
C19 C 0.05306 0.38924 0.12743 0.0
C20 C 0.06445 0.39339 0.11852 0.0
C21 C 0.08324 0.4141 0.12052 0.0
H22 H 0.09235 0.41221 0.12815 0.0
H23 H 0.0805 0.42579 0.12086 0.0
H24 H 0.08671 0.41128 0.10936 0.0
O25 O 0.07216 0.40809 0.16973 0.0
O26 O 0.0527 0.39426 0.17341 0.0
H27 H 0.04205 0.371 0.13688 0.0
H28 H 0.05029 0.36739 0.11948 0.0
C29 C 0.0444 0.37559 0.12603 0.0
H30 H 0.03404 0.37801 0.12046 0.0
H31 H 0.02869 0.37141 0.17097 0.0
O32 O 0.08359 0.43333 0.14919 0.0
C33 C 0.06543 0.39844 0.17692 0.0
Co34 Co 0.57493 0.06525 0.15384 0.0
Co35 Co 0.59625 0.03906 0.15678 0.0
C36 C 0.56436 0.03482 0.1596 0.0
O37 O 0.56269 0.04839 0.15815 0.0
O38 O 0.57694 0.02916 0.15901 0.0
C39 C 0.5493 0.078 0.14424 0.0
O40 O 0.54673 0.06446 0.14066 0.0
C41 C 0.60918 0.01178 0.14814 0.0
C42 C 0.63177 0.01354 0.15589 0.0
C43 C 0.62236 0.00462 0.14831 0.0
N44 N 0.61064 0.02432 0.15535 0.0
N45 N 0.62413 0.02527 0.16012 0.0
C46 C 0.59585 0.00763 0.13986 0.0
H47 H 0.58993 0.01747 0.13629 0.0
H48 H 0.59863 0.00091 0.13026 0.0
H49 H 0.58862 0.00123 0.14703 0.0
C50 C 0.59057 0.06943 0.12665 0.0
N51 N 0.58758 0.06153 0.1385 0.0
N52 N 0.59688 0.05076 0.13957 0.0
C53 C 0.60613 0.05149 0.12822 0.0
C54 C 0.60241 0.06336 0.11974 0.0
C55 C 0.58277 0.08309 0.12265 0.0
H56 H 0.57105 0.08073 0.12139 0.0
H57 H 0.58692 0.0878 0.1124 0.0
H58 H 0.58397 0.09111 0.13155 0.0
O59 O 0.58618 0.07043 0.17085 0.0
O60 O 0.60044 0.05128 0.17436 0.0
H61 H 0.62564 0.04529 0.11672 0.0
H62 H 0.61563 0.03063 0.12494 0.0
C63 C 0.61916 0.04203 0.12632 0.0
H64 H 0.62605 0.0427 0.13614 0.0
H65 H 0.62824 0.03414 0.1658 0.0
O66 O 0.56155 0.0814 0.14951 0.0
C67 C 0.59583 0.06379 0.17809 0.0
Co68 Co 0.92993 0.58002 0.15249 0.0
Co69 Co 0.95767 0.59918 0.15559 0.0
C70 C 0.95953 0.56682 0.15594 0.0
O71 O 0.94586 0.56609 0.15468 0.0
O72 O 0.96595 0.57904 0.15627 0.0
C73 C 0.91479 0.55774 0.13943 0.0
O74 O 0.92737 0.55663 0.13284 0.0
C75 C 0.98488 0.61091 0.14523 0.0
C76 C 0.98709 0.63153 0.15726 0.0
C77 C 0.99362 0.62306 0.1467 0.0
N78 N 0.97356 0.61229 0.15425 0.0
N79 N 0.97495 0.62458 0.16149 0.0
C80 C 0.98746 0.59768 0.13616 0.0
H81 H 0.97743 0.59486 0.13014 0.0
H82 H 0.99662 0.59898 0.12852 0.0
H83 H 0.98999 0.58844 0.14343 0.0
C84 C 0.92581 0.59773 0.12641 0.0
N85 N 0.9337 0.59365 0.13796 0.0
N86 N 0.94523 0.60198 0.13909 0.0
C87 C 0.94504 0.61166 0.12807 0.0
C88 C 0.93271 0.60927 0.11977 0.0
C89 C 0.91199 0.59052 0.12186 0.0
H90 H 0.90454 0.58977 0.13127 0.0
H91 H 0.91444 0.57937 0.11813 0.0
H92 H 0.90652 0.59631 0.11288 0.0
O93 O 0.92669 0.5901 0.17069 0.0
O94 O 0.94679 0.60302 0.17405 0.0
H95 H 0.95776 0.62915 0.13654 0.0
H96 H 0.95191 0.63171 0.11801 0.0
C97 C 0.95578 0.62364 0.12605 0.0
H98 H 0.96616 0.61902 0.12213 0.0
H99 H 0.96752 0.62831 0.16917 0.0
O100 O 0.91279 0.56809 0.14827 0.0
C101 C 0.93428 0.5988 0.17821 0.0
Co102 Co 0.41406 0.92791 0.15473 0.0
Co103 Co 0.39648 0.95677 0.1563 0.0
C104 C 0.42915 0.95653 0.15599 0.0
O105 O 0.42931 0.94277 0.15531 0.0
O106 O 0.41721 0.9635 0.15637 0.0
C107 C 0.43337 0.90591 0.16127 0.0
O108 O 0.43532 0.91445 0.17251 0.0
C109 C 0.38629 0.98426 0.14466 0.0
C110 C 0.36596 0.98804 0.15678 0.0
C111 C 0.37466 0.99372 0.14593 0.0
N112 N 0.38438 0.97335 0.15411 0.0
N113 N 0.37225 0.97569 0.16137 0.0
C114 C 0.39957 0.98581 0.13544 0.0
H115 H 0.40114 0.97582 0.12892 0.0
H116 H 0.39914 0.9954 0.12826 0.0
H117 H 0.40916 0.98694 0.1426 0.0
C118 C 0.39679 0.92377 0.12847 0.0
N119 N 0.4007 0.93171 0.14002 0.0
N120 N 0.3928 0.94356 0.14063 0.0
C121 C 0.38337 0.94342 0.1294 0.0
C122 C 0.38558 0.93084 0.1214 0.0
C123 C 0.40421 0.91001 0.12405 0.0
H124 H 0.40082 0.90116 0.13146 0.0
H125 H 0.41611 0.91134 0.12506 0.0
H126 H 0.40159 0.90694 0.11273 0.0
O127 O 0.40409 0.92677 0.17324 0.0
O128 O 0.39208 0.94754 0.17544 0.0
H129 H 0.36671 0.95762 0.13719 0.0
H130 H 0.36354 0.95061 0.11917 0.0
C131 C 0.37193 0.95462 0.1268 0.0
H132 H 0.37701 0.96445 0.1221 0.0
H133 H 0.3682 0.96877 0.16936 0.0
O134 O 0.42393 0.90932 0.15185 0.0
C135 C 0.39584 0.93517 0.18036 0.0
Co136 Co 0.07226 0.57253 0.84221 0.0
Co137 Co 0.04452 0.59182 0.8431 0.0
C138 C 0.04272 0.55942 0.83964 0.0
O139 O 0.05645 0.55842 0.84005 0.0
O140 O 0.03645 0.57171 0.84067 0.0
C141 C 0.09245 0.55155 0.83431 0.0
O142 O 0.08255 0.54913 0.82435 0.0
C143 C 0.01729 0.60186 0.85533 0.0
C144 C 0.01584 0.62446 0.8475 0.0
C145 C 0.00881 0.61429 0.85605 0.0
N146 N 0.02873 0.60458 0.84677 0.0
N147 N 0.02776 0.61805 0.842 0.0
C148 C 0.01554 0.58811 0.86378 0.0
H149 H 0.02619 0.58274 0.86531 0.0
H150 H 0.01058 0.59028 0.87453 0.0
H151 H 0.00839 0.58061 0.85767 0.0
C152 C 0.07754 0.58617 0.87032 0.0
N153 N 0.06932 0.58417 0.85849 0.0
N154 N 0.05787 0.59265 0.85907 0.0
C155 C 0.05852 0.60046 0.87147 0.0
C156 C 0.07096 0.59648 0.87903 0.0
C157 C 0.09196 0.57903 0.87257 0.0
H158 H 0.09868 0.58044 0.8627 0.0
H159 H 0.09031 0.56723 0.87423 0.0
H160 H 0.09789 0.58362 0.88196 0.0
O161 O 0.07411 0.58476 0.82521 0.0
O162 O 0.05414 0.59821 0.82468 0.0
H163 H 0.0453 0.61906 0.8672 0.0
H164 H 0.05071 0.61725 0.88598 0.0
C165 C 0.04735 0.61126 0.87612 0.0
H166 H 0.03709 0.60553 0.87853 0.0
H167 H 0.03543 0.62298 0.8353 0.0
O168 O 0.09036 0.56146 0.84363 0.0
C169 C 0.06632 0.59446 0.81934 0.0
Co170 Co 0.42119 0.06618 0.8475 0.0
Co171 Co 0.40043 0.03968 0.84399 0.0
C172 C 0.43256 0.03567 0.8459 0.0
O173 O 0.43419 0.0493 0.84685 0.0
O174 O 0.41996 0.03012 0.84488 0.0
C175 C 0.44371 0.08091 0.86106 0.0
O176 O 0.44438 0.06849 0.86801 0.0
C177 C 0.3863 0.01348 0.85401 0.0
C178 C 0.36592 0.01292 0.8414 0.0
C179 C 0.37349 0.0058 0.85226 0.0
N180 N 0.38615 0.02479 0.84487 0.0
N181 N 0.37401 0.02437 0.83727 0.0
C182 C 0.39899 0.00989 0.86351 0.0
H183 H 0.40835 0.00704 0.85654 0.0
H184 H 0.40211 0.01958 0.86993 0.0
H185 H 0.39689 0.0006 0.8708 0.0
C186 C 0.40243 0.07208 0.87257 0.0
N187 N 0.40644 0.06382 0.86125 0.0
N188 N 0.39748 0.05279 0.85994 0.0
C189 C 0.38743 0.0537 0.87058 0.0
C190 C 0.39025 0.06595 0.87886 0.0
C191 C 0.41051 0.08529 0.87746 0.0
H192 H 0.41217 0.09268 0.86812 0.0
H193 H 0.4213 0.08196 0.88156 0.0
H194 H 0.40485 0.09117 0.88626 0.0
O195 O 0.41263 0.06935 0.82851 0.0
O196 O 0.39855 0.0501 0.82499 0.0
H197 H 0.36961 0.0417 0.86177 0.0
H198 H 0.36676 0.04799 0.88009 0.0
C199 C 0.37489 0.04358 0.8724 0.0
H200 H 0.37886 0.03306 0.87663 0.0
H201 H 0.37113 0.03203 0.82946 0.0
O202 O 0.43371 0.08287 0.85182 0.0
C203 C 0.40395 0.06208 0.82067 0.0
Co204 Co 0.92797 0.41715 0.84152 0.0
Co205 Co 0.95414 0.39576 0.83943 0.0
C206 C 0.95841 0.42778 0.83687 0.0
O207 O 0.94484 0.42956 0.83795 0.0
O208 O 0.9639 0.41515 0.83747 0.0
C209 C 0.91599 0.44165 0.85311 0.0
O210 O 0.92878 0.44126 0.85938 0.0
C211 C 0.97952 0.38297 0.85235 0.0
C212 C 0.98427 0.3639 0.83867 0.0
C213 C 0.98898 0.37145 0.85078 0.0
N214 N 0.96948 0.38218 0.84186 0.0
N215 N 0.97233 0.37075 0.83369 0.0
C216 C 0.98062 0.39522 0.86296 0.0
H217 H 0.9911 0.40093 0.86141 0.0
H218 H 0.97155 0.40297 0.86157 0.0
H219 H 0.98042 0.39105 0.87422 0.0
C220 C 0.92302 0.40165 0.86889 0.0
N221 N 0.93105 0.40441 0.85705 0.0
N222 N 0.9416 0.39485 0.85607 0.0
C223 C 0.94045 0.38551 0.86731 0.0
C224 C 0.92872 0.38959 0.87579 0.0
C225 C 0.9101 0.41044 0.87332 0.0
H226 H 0.90222 0.41086 0.86424 0.0
H227 H 0.91362 0.42168 0.87569 0.0
H228 H 0.90473 0.40611 0.88314 0.0
O229 O 0.92355 0.40578 0.82426 0.0
O230 O 0.94273 0.39133 0.82142 0.0
H231 H 0.95184 0.36726 0.85833 0.0
H232 H 0.94322 0.36377 0.87556 0.0
C233 C 0.94919 0.37195 0.86907 0.0
H234 H 0.95939 0.37453 0.87486 0.0
H235 H 0.96622 0.36771 0.82466 0.0
O236 O 0.91215 0.43104 0.84521 0.0
C237 C 0.93037 0.39602 0.81728 0.0
Co238 Co 0.57905 0.9228 0.84296 0.0
Co239 Co 0.59745 0.95114 0.84264 0.0
C240 C 0.56467 0.95165 0.84246 0.0
O241 O 0.56399 0.9379 0.84266 0.0
O242 O 0.57687 0.95814 0.84239 0.0
C243 C 0.5598 0.90105 0.8351 0.0
O244 O 0.55831 0.90981 0.82397 0.0
C245 C 0.60612 0.97769 0.8565 0.0
C246 C 0.62602 0.98425 0.84492 0.0
C247 C 0.61671 0.98838 0.856 0.0
N248 N 0.60896 0.96786 0.84617 0.0
N249 N 0.62085 0.97181 0.83923 0.0
C250 C 0.59406 0.97601 0.86724 0.0
H251 H 0.59086 0.96446 0.86819 0.0
H252 H 0.59733 0.98017 0.87804 0.0
H253 H 0.58447 0.98219 0.86342 0.0
C254 C 0.59617 0.91707 0.86903 0.0
N255 N 0.59222 0.92575 0.85805 0.0
N256 N 0.60055 0.93733 0.85785 0.0
C257 C 0.61023 0.93628 0.8688 0.0
C258 C 0.60776 0.92339 0.87617 0.0
C259 C 0.58889 0.90298 0.87251 0.0
H260 H 0.57696 0.90437 0.872 0.0
H261 H 0.59192 0.89898 0.88344 0.0
H262 H 0.59203 0.89479 0.86428 0.0
O263 O 0.58969 0.92213 0.82478 0.0
O264 O 0.60261 0.94246 0.82342 0.0
H265 H 0.62704 0.95031 0.861 0.0
H266 H 0.6309 0.9419 0.87831 0.0
C267 C 0.6223 0.94678 0.87146 0.0
H268 H 0.61794 0.95645 0.87712 0.0
H269 H 0.62547 0.96599 0.8307 0.0
O270 O 0.56889 0.90424 0.84494 0.0
C271 C 0.5986 0.9303 0.81819 0.0
Co272 Co 0.15362 0.07054 0.42423 0.0
Co273 Co 0.15495 0.04395 0.40343 0.0
C274 C 0.15689 0.04068 0.436 0.0
O275 O 0.15582 0.0543 0.43772 0.0
O276 O 0.15668 0.03509 0.42335 0.0
C277 C 0.16194 0.09093 0.44439 0.0
O278 O 0.17329 0.08231 0.44435 0.0
C279 C 0.14155 0.0185 0.39058 0.0
C280 C 0.15559 0.01381 0.37173 0.0
C281 C 0.14327 0.00915 0.37895 0.0
N282 N 0.1522 0.0284 0.39014 0.0
N283 N 0.16057 0.02557 0.37885 0.0
C284 C 0.1306 0.01749 0.40253 0.0
H285 H 0.12995 0.00616 0.40653 0.0
H286 H 0.13341 0.02489 0.41157 0.0
H287 H 0.11975 0.02054 0.39841 0.0
C288 C 0.12632 0.07582 0.40898 0.0
N289 N 0.13802 0.0676 0.41166 0.0
N290 N 0.13878 0.05703 0.40211 0.0
C291 C 0.12763 0.05848 0.39271 0.0
C292 C 0.11936 0.07039 0.39682 0.0
C293 C 0.12206 0.08867 0.41794 0.0
H294 H 0.12887 0.09808 0.41482 0.0
H295 H 0.12401 0.08635 0.42958 0.0
H296 H 0.11048 0.09149 0.41637 0.0
O297 O 0.17111 0.07348 0.41276 0.0
O298 O 0.17327 0.05431 0.39833 0.0
H299 H 0.13664 0.04665 0.37474 0.0
H300 H 0.12012 0.05632 0.37064 0.0
C301 C 0.12591 0.04992 0.37902 0.0
H302 H 0.11943 0.04006 0.38128 0.0
H303 H 0.16971 0.03162 0.37604 0.0
O304 O 0.15137 0.08809 0.43603 0.0
C305 C 0.17783 0.06649 0.40299 0.0
Co306 Co 0.92598 0.15635 0.41801 0.0
Co307 Co 0.95307 0.15803 0.39795 0.0
C308 C 0.95538 0.15967 0.43068 0.0
O309 O 0.94173 0.15851 0.43213 0.0
O310 O 0.96121 0.15967 0.41814 0.0
C311 C 0.90465 0.1618 0.43913 0.0
O312 O 0.91307 0.17293 0.442 0.0
C313 C 0.97918 0.14486 0.38657 0.0
C314 C 0.9848 0.15863 0.3678 0.0
C315 C 0.98917 0.14649 0.3755 0.0
N316 N 0.9692 0.15538 0.38537 0.0
N317 N 0.97258 0.16359 0.37412 0.0
C318 C 0.97969 0.1342 0.39882 0.0
H319 H 0.9901 0.13537 0.40473 0.0
H320 H 0.97051 0.13588 0.40638 0.0
H321 H 0.97917 0.12297 0.39459 0.0
C322 C 0.92178 0.12878 0.40289 0.0
N323 N 0.92948 0.14086 0.40543 0.0
N324 N 0.94034 0.14166 0.39622 0.0
C325 C 0.93963 0.1301 0.38721 0.0
C326 C 0.92787 0.12159 0.3912 0.0
C327 C 0.90905 0.12413 0.41183 0.0
H328 H 0.89947 0.13076 0.4088 0.0
H329 H 0.91136 0.12602 0.42348 0.0
H330 H 0.90647 0.1125 0.41021 0.0
O331 O 0.92316 0.17394 0.4067 0.0
O332 O 0.9426 0.17629 0.39263 0.0
H333 H 0.95238 0.13842 0.36956 0.0
H334 H 0.94338 0.1214 0.36583 0.0
C335 C 0.9491 0.12785 0.37423 0.0
H336 H 0.95894 0.12179 0.3775 0.0
H337 H 0.96662 0.17262 0.37082 0.0
O338 O 0.90807 0.1532 0.42895 0.0
C339 C 0.9303 0.18075 0.39709 0.0
Co340 Co 0.8439 0.92211 0.42198 0.0
Co341 Co 0.84299 0.95049 0.4036 0.0
C342 C 0.84151 0.95092 0.43631 0.0
O343 O 0.8424 0.9372 0.43692 0.0
O344 O 0.84156 0.95751 0.42416 0.0
C345 C 0.83464 0.90047 0.44006 0.0
O346 O 0.82339 0.9092 0.43983 0.0
C347 C 0.85575 0.97768 0.39472 0.0
C348 C 0.84468 0.98272 0.37409 0.0
C349 C 0.85518 0.9878 0.38359 0.0
N350 N 0.84605 0.96721 0.39194 0.0
N351 N 0.83938 0.97029 0.37964 0.0
C352 C 0.86611 0.97709 0.4072 0.0
H353 H 0.86751 0.96576 0.41097 0.0
H354 H 0.8768 0.98166 0.4041 0.0
H355 H 0.86165 0.98352 0.41634 0.0
C356 C 0.87105 0.91773 0.40602 0.0
N357 N 0.85941 0.92575 0.40947 0.0
N358 N 0.85887 0.93728 0.40109 0.0
C359 C 0.87016 0.93681 0.39179 0.0
C360 C 0.87824 0.92439 0.39462 0.0
C361 C 0.87516 0.90404 0.41371 0.0
H362 H 0.86846 0.89499 0.40948 0.0
H363 H 0.87295 0.90514 0.42548 0.0
H364 H 0.88679 0.90142 0.41211 0.0
O365 O 0.82615 0.92078 0.41056 0.0
O366 O 0.82438 0.94111 0.39777 0.0
H367 H 0.86186 0.95024 0.37472 0.0
H368 H 0.87949 0.94259 0.37105 0.0
C369 C 0.87242 0.94726 0.37959 0.0
H370 H 0.87763 0.95723 0.38385 0.0
H371 H 0.83139 0.9638 0.37494 0.0
O372 O 0.84566 0.90362 0.4324 0.0
C373 C 0.81951 0.92873 0.4015 0.0
Co374 Co 0.06921 0.84292 0.41663 0.0
Co375 Co 0.04318 0.8412 0.39507 0.0
C376 C 0.03852 0.83973 0.42713 0.0
O377 O 0.05211 0.84036 0.42903 0.0
O378 O 0.03317 0.84018 0.41442 0.0
C379 C 0.0822 0.85349 0.4414 0.0
O380 O 0.06944 0.85977 0.44209 0.0
C381 C 0.0181 0.85403 0.38148 0.0
C382 C 0.01386 0.83999 0.36253 0.0
C383 C 0.00893 0.85221 0.36975 0.0
N384 N 0.02819 0.84356 0.38111 0.0
N385 N 0.02565 0.83519 0.36975 0.0
C386 C 0.01665 0.86479 0.39356 0.0
H387 H 0.00626 0.86294 0.39933 0.0
H388 H 0.02579 0.86383 0.40131 0.0
H389 H 0.01645 0.87599 0.38923 0.0
C390 C 0.07495 0.86998 0.40085 0.0
N391 N 0.06675 0.85823 0.40352 0.0
N392 N 0.05625 0.85741 0.39389 0.0
C393 C 0.05761 0.86865 0.38458 0.0
C394 C 0.06944 0.87697 0.38875 0.0
C395 C 0.08763 0.8744 0.40997 0.0
H396 H 0.0958 0.86558 0.41 0.0
H397 H 0.08395 0.87606 0.42128 0.0
H398 H 0.0927 0.88459 0.40616 0.0
O399 O 0.07301 0.82521 0.4058 0.0
O400 O 0.05388 0.82266 0.3913 0.0
H401 H 0.04596 0.86008 0.36631 0.0
H402 H 0.05475 0.87725 0.36299 0.0
C403 C 0.04877 0.87072 0.37113 0.0
H404 H 0.03866 0.87658 0.37389 0.0
H405 H 0.03185 0.82612 0.36702 0.0
O406 O 0.08542 0.84613 0.43022 0.0
C407 C 0.06602 0.81818 0.39622 0.0
Co408 Co 0.15636 0.92591 0.58058 0.0
Co409 Co 0.15764 0.95384 0.59958 0.0
C410 C 0.15998 0.95517 0.56708 0.0
O411 O 0.15884 0.94149 0.56614 0.0
O412 O 0.15979 0.96144 0.57937 0.0
C413 C 0.1436 0.90909 0.55945 0.0
O414 O 0.13607 0.92112 0.5582 0.0
C415 C 0.1465 0.98173 0.60811 0.0
C416 C 0.15548 0.98526 0.63003 0.0
C417 C 0.14657 0.99144 0.6196 0.0
N418 N 0.15499 0.97044 0.61153 0.0
N419 N 0.16044 0.97261 0.6246 0.0
C420 C 0.13739 0.98228 0.59466 0.0
H421 H 0.1354 0.97119 0.59046 0.0
H422 H 0.12684 0.98765 0.59684 0.0
H423 H 0.14322 0.98851 0.58619 0.0
C424 C 0.12837 0.9223 0.59587 0.0
N425 N 0.14065 0.92967 0.59311 0.0
N426 N 0.14104 0.9414 0.60125 0.0
C427 C 0.12885 0.94185 0.60941 0.0
C428 C 0.12042 0.92985 0.60608 0.0
C429 C 0.12456 0.90784 0.58956 0.0
H430 H 0.13446 0.9012 0.58809 0.0
H431 H 0.11923 0.90943 0.57891 0.0
H432 H 0.11691 0.90191 0.59671 0.0
O433 O 0.17378 0.92328 0.59216 0.0
O434 O 0.17569 0.94329 0.60552 0.0
H435 H 0.13471 0.95624 0.62669 0.0
H436 H 0.11602 0.9504 0.62709 0.0
C437 C 0.12513 0.95361 0.61994 0.0
H438 H 0.12186 0.96346 0.6139 0.0
H439 H 0.16728 0.96534 0.62993 0.0
O440 O 0.15335 0.90823 0.5691 0.0
C441 C 0.18032 0.93085 0.60163 0.0
Co442 Co 0.07129 0.15467 0.5742 0.0
Co443 Co 0.0439 0.15706 0.59382 0.0
C444 C 0.04207 0.1579 0.56105 0.0
O445 O 0.0557 0.15636 0.55973 0.0
O446 O 0.03617 0.15844 0.57353 0.0
C447 C 0.09222 0.16058 0.55353 0.0
O448 O 0.08293 0.17102 0.55079 0.0
C449 C 0.01664 0.14532 0.60325 0.0
C450 C 0.01221 0.15635 0.62404 0.0
C451 C 0.00668 0.14612 0.6145 0.0
N452 N 0.02742 0.15467 0.60595 0.0
N453 N 0.02474 0.16132 0.61836 0.0
C454 C 0.01678 0.13496 0.59073 0.0
H455 H 0.02802 0.13322 0.58683 0.0
H456 H 0.01195 0.1244 0.59385 0.0
H457 H 0.0104 0.13963 0.58166 0.0
C458 C 0.07541 0.12779 0.59059 0.0
N459 N 0.06763 0.13963 0.58726 0.0
N460 N 0.05645 0.14065 0.59605 0.0
C461 C 0.05685 0.12939 0.60542 0.0
C462 C 0.0689 0.12094 0.60226 0.0
C463 C 0.08875 0.12318 0.58259 0.0
H464 H 0.0979 0.13031 0.58577 0.0
H465 H 0.08701 0.12442 0.57075 0.0
H466 H 0.09163 0.11174 0.58496 0.0
O467 O 0.07378 0.1726 0.58505 0.0
O468 O 0.05435 0.17532 0.59905 0.0
H469 H 0.04427 0.13795 0.623 0.0
H470 H 0.05112 0.11982 0.62604 0.0
C471 C 0.0466 0.12736 0.61782 0.0
H472 H 0.03628 0.12277 0.6137 0.0
H473 H 0.03153 0.16905 0.62303 0.0
O474 O 0.0895 0.15165 0.56364 0.0
C475 C 0.06666 0.17965 0.59449 0.0
Co476 Co 0.84289 0.0651 0.57686 0.0
Co477 Co 0.84115 0.04015 0.59989 0.0
C478 C 0.83696 0.03416 0.56835 0.0
O479 O 0.83817 0.0476 0.56583 0.0
O480 O 0.83826 0.02925 0.58118 0.0
C481 C 0.84775 0.07775 0.54939 0.0
O482 O 0.84818 0.06407 0.54553 0.0
C483 C 0.85413 0.01555 0.61416 0.0
C484 C 0.84074 0.01232 0.63375 0.0
C485 C 0.85265 0.00696 0.62634 0.0
N486 N 0.84377 0.02575 0.61441 0.0
N487 N 0.83577 0.02381 0.62615 0.0
C488 C 0.86452 0.01346 0.60185 0.0
H489 H 0.86306 0.00245 0.5972 0.0
H490 H 0.86281 0.02173 0.5933 0.0
H491 H 0.87583 0.01424 0.60579 0.0
C492 C 0.87096 0.07006 0.59064 0.0
N493 N 0.85889 0.06211 0.58892 0.0
N494 N 0.85805 0.05235 0.59931 0.0
C495 C 0.86956 0.05407 0.60822 0.0
C496 C 0.8781 0.06529 0.60295 0.0
C497 C 0.8752 0.08229 0.58085 0.0
H498 H 0.86793 0.09166 0.58285 0.0
H499 H 0.87386 0.07892 0.56938 0.0
H500 H 0.88661 0.08565 0.58264 0.0
O501 O 0.82645 0.07051 0.58895 0.0
O502 O 0.82361 0.0522 0.60445 0.0
H503 H 0.86072 0.04446 0.62753 0.0
H504 H 0.87802 0.05328 0.63005 0.0
C505 C 0.87142 0.04661 0.62252 0.0
H506 H 0.87713 0.03618 0.62084 0.0
H507 H 0.82687 0.03022 0.62891 0.0
O508 O 0.84621 0.08102 0.56269 0.0
C509 C 0.81971 0.06446 0.59934 0.0
Co510 Co 0.92399 0.84489 0.57216 0.0
Co511 Co 0.9519 0.84267 0.59108 0.0
C512 C 0.95295 0.84308 0.55825 0.0
O513 O 0.93926 0.84422 0.55733 0.0
O514 O 0.95919 0.84231 0.57056 0.0
C515 C 0.90301 0.83771 0.55241 0.0
O516 O 0.91265 0.82744 0.55029 0.0
C517 C 0.97869 0.85536 0.60078 0.0
C518 C 0.98427 0.84306 0.62055 0.0
C519 C 0.98896 0.85433 0.61175 0.0
N520 N 0.96855 0.84519 0.60296 0.0
N521 N 0.97193 0.83779 0.61475 0.0
C522 C 0.97763 0.86653 0.58903 0.0
H523 H 0.96625 0.8677 0.58533 0.0
H524 H 0.9817 0.87718 0.59288 0.0
H525 H 0.98422 0.863 0.57961 0.0
C526 C 0.91939 0.87106 0.58964 0.0
N527 N 0.92742 0.85958 0.58569 0.0
N528 N 0.93874 0.85845 0.5943 0.0
C529 C 0.9381 0.86917 0.60426 0.0
C530 C 0.92582 0.8775 0.60161 0.0
C531 C 0.90593 0.87576 0.58188 0.0
H532 H 0.89673 0.86889 0.58546 0.0
H533 H 0.90732 0.87426 0.57003 0.0
H534 H 0.90336 0.88729 0.58412 0.0
O535 O 0.92245 0.82649 0.58244 0.0
O536 O 0.94231 0.82386 0.59583 0.0
H537 H 0.95134 0.85982 0.62095 0.0
H538 H 0.9433 0.87703 0.62573 0.0
C539 C 0.94828 0.87067 0.61681 0.0
H540 H 0.95823 0.87635 0.61317 0.0
H541 H 0.96573 0.82932 0.61894 0.0
O542 O 0.90545 0.84729 0.56199 0.0
C543 C 0.93004 0.8193 0.59139 0.0
Co544 Co 0.41889 0.15763 0.07008 0.0
Co545 Co 0.39972 0.15879 0.04233 0.0
C546 C 0.43255 0.16081 0.04114 0.0
O547 O 0.43351 0.15982 0.05485 0.0
O548 O 0.42023 0.1606 0.03485 0.0
C549 C 0.43844 0.16386 0.09288 0.0
O550 O 0.44111 0.17552 0.08515 0.0
C551 C 0.38866 0.14461 0.01651 0.0
C552 C 0.36967 0.15793 0.01054 0.0
C553 C 0.37736 0.14561 0.00666 0.0
N554 N 0.38755 0.15563 0.02596 0.0
N555 N 0.37621 0.1636 0.02232 0.0
C556 C 0.40079 0.13381 0.01656 0.0
H557 H 0.41002 0.13776 0.02314 0.0
H558 H 0.39703 0.12346 0.02135 0.0
H559 H 0.40443 0.13158 0.0053 0.0
C560 C 0.40338 0.13045 0.07462 0.0
N561 N 0.40663 0.14197 0.06635 0.0
N562 N 0.39765 0.14264 0.05528 0.0
C563 C 0.38806 0.13159 0.05644 0.0
C564 C 0.39149 0.12352 0.06867 0.0
C565 C 0.4112 0.12658 0.08831 0.0
H566 H 0.42307 0.12743 0.08657 0.0
H567 H 0.40855 0.11541 0.09192 0.0
H568 H 0.40812 0.13436 0.09695 0.0
O569 O 0.40714 0.17497 0.07237 0.0
O570 O 0.39369 0.17706 0.05245 0.0
H571 H 0.36602 0.12433 0.05352 0.0
H572 H 0.37726 0.12321 0.03772 0.0
C573 C 0.37472 0.12991 0.04736 0.0
H574 H 0.37073 0.14064 0.04372 0.0
H575 H 0.37286 0.17284 0.02794 0.0
O576 O 0.42912 0.15477 0.08841 0.0
C577 C 0.39763 0.18158 0.06492 0.0
Co578 Co 0.41714 0.84661 0.9267 0.0
Co579 Co 0.39805 0.84382 0.95449 0.0
C580 C 0.4305 0.8443 0.95626 0.0
O581 O 0.43135 0.84534 0.94257 0.0
O582 O 0.41823 0.8437 0.96253 0.0
C583 C 0.43853 0.8602 0.91081 0.0
O584 O 0.43899 0.8677 0.92292 0.0
C585 C 0.38777 0.85488 0.98174 0.0
C586 C 0.36712 0.84338 0.98552 0.0
C587 C 0.37631 0.85374 0.99139 0.0
N588 N 0.38554 0.8456 0.97078 0.0
N589 N 0.37323 0.83866 0.97309 0.0
C590 C 0.39998 0.86558 0.98202 0.0
H591 H 0.40392 0.86774 0.97086 0.0
H592 H 0.39652 0.87592 0.98711 0.0
H593 H 0.4091 0.861 0.98839 0.0
C594 C 0.39844 0.87194 0.92174 0.0
N595 N 0.40311 0.86093 0.93006 0.0
N596 N 0.39483 0.85986 0.94165 0.0
C597 C 0.38464 0.87038 0.94108 0.0
C598 C 0.38663 0.87831 0.92846 0.0
C599 C 0.40499 0.87598 0.90745 0.0
H600 H 0.40636 0.86613 0.90069 0.0
H601 H 0.41583 0.88078 0.90933 0.0
H602 H 0.39833 0.88402 0.9015 0.0
O603 O 0.40741 0.82806 0.92413 0.0
O604 O 0.3943 0.82505 0.94419 0.0
H605 H 0.36738 0.8614 0.95373 0.0
H606 H 0.36416 0.87976 0.94765 0.0
C607 C 0.37249 0.87208 0.95168 0.0
H608 H 0.37685 0.87625 0.96208 0.0
H609 H 0.36887 0.83093 0.96607 0.0
O610 O 0.42885 0.85054 0.90934 0.0
C611 C 0.39872 0.82064 0.93183 0.0
Co612 Co 0.15241 0.42428 0.92535 0.0
Co613 Co 0.15399 0.40414 0.95238 0.0
C614 C 0.15622 0.43681 0.9548 0.0
O615 O 0.1549 0.43832 0.94118 0.0
O616 O 0.15609 0.42425 0.96058 0.0
C617 C 0.16096 0.44314 0.90384 0.0
O618 O 0.17256 0.44298 0.91211 0.0
C619 C 0.14163 0.39423 0.97926 0.0
C620 C 0.15224 0.37313 0.98322 0.0
C621 C 0.14208 0.38267 0.98888 0.0
N622 N 0.15111 0.39169 0.96854 0.0
N623 N 0.1575 0.3791 0.97095 0.0
C624 C 0.13153 0.40695 0.97935 0.0
H625 H 0.13008 0.41125 0.96821 0.0
H626 H 0.12082 0.40387 0.98389 0.0
H627 H 0.13625 0.4157 0.98612 0.0
C628 C 0.12493 0.40902 0.92082 0.0
N629 N 0.13675 0.41192 0.92879 0.0
N630 N 0.13755 0.40277 0.9397 0.0
C631 C 0.12622 0.39353 0.93887 0.0
C632 C 0.11787 0.39719 0.92685 0.0
C633 C 0.12068 0.41741 0.90759 0.0
H634 H 0.12749 0.41387 0.89832 0.0
H635 H 0.12265 0.42913 0.90941 0.0
H636 H 0.10909 0.41573 0.90484 0.0
O637 O 0.16969 0.41246 0.92254 0.0
O638 O 0.17204 0.39829 0.94188 0.0
H639 H 0.13488 0.37547 0.95068 0.0
H640 H 0.11695 0.37245 0.9434 0.0
C641 C 0.12424 0.38058 0.94844 0.0
H642 H 0.11942 0.3841 0.95888 0.0
H643 H 0.16526 0.37449 0.96414 0.0
O644 O 0.15011 0.43545 0.90739 0.0
C645 C 0.17639 0.40268 0.92952 0.0
Co646 Co 0.57972 0.15571 0.93026 0.0
Co647 Co 0.59892 0.15636 0.95806 0.0
C648 C 0.56635 0.158 0.95973 0.0
O649 O 0.5654 0.15736 0.94599 0.0
O650 O 0.57867 0.15769 0.96602 0.0
C651 C 0.55893 0.16234 0.90939 0.0
O652 O 0.55682 0.17328 0.91828 0.0
C653 C 0.60966 0.14469 0.98522 0.0
C654 C 0.63155 0.15428 0.98708 0.0
C655 C 0.62206 0.14473 0.99373 0.0
N656 N 0.61183 0.15357 0.97391 0.0
N657 N 0.62488 0.15937 0.97511 0.0
C658 C 0.59558 0.13709 0.98801 0.0
H659 H 0.59171 0.13183 0.9779 0.0
H660 H 0.59634 0.12901 0.99684 0.0
H661 H 0.58735 0.14527 0.99116 0.0
C662 C 0.59435 0.12793 0.92591 0.0
N663 N 0.59222 0.14014 0.93352 0.0
N664 N 0.60073 0.14025 0.94496 0.0
C665 C 0.60876 0.12796 0.94486 0.0
C666 C 0.60484 0.11975 0.93284 0.0
C667 C 0.58661 0.12442 0.91207 0.0
H668 H 0.58778 0.13362 0.90441 0.0
H669 H 0.57489 0.123 0.91434 0.0
H670 H 0.59094 0.11447 0.90688 0.0
O671 O 0.59082 0.17345 0.92821 0.0
O672 O 0.60405 0.17507 0.94827 0.0
H673 H 0.62654 0.13317 0.95887 0.0
H674 H 0.62623 0.11449 0.95293 0.0
C675 C 0.61944 0.12381 0.95634 0.0
H676 H 0.61353 0.12069 0.96632 0.0
H677 H 0.62933 0.16659 0.96761 0.0
O678 O 0.56874 0.15314 0.91227 0.0
C679 C 0.60001 0.18006 0.93603 0.0
Co680 Co 0.84438 0.5827 0.92673 0.0
Co681 Co 0.84151 0.60062 0.95526 0.0
C682 C 0.84232 0.56809 0.95571 0.0
O683 O 0.84356 0.5677 0.94201 0.0
O684 O 0.84138 0.58014 0.96237 0.0
C685 C 0.85895 0.56328 0.90924 0.0
O686 O 0.86674 0.56249 0.92115 0.0
C687 C 0.85191 0.60979 0.98324 0.0
C688 C 0.84114 0.63086 0.98694 0.0
C689 C 0.85097 0.6212 0.99297 0.0
N690 N 0.84305 0.6125 0.97205 0.0
N691 N 0.83651 0.62505 0.97433 0.0
C692 C 0.86221 0.59723 0.98364 0.0
H693 H 0.86457 0.59337 0.97249 0.0
H694 H 0.87252 0.60029 0.98904 0.0
H695 H 0.85718 0.58819 0.98978 0.0
C696 C 0.87 0.60161 0.9228 0.0
N697 N 0.85855 0.59692 0.93053 0.0
N698 N 0.85765 0.60439 0.94267 0.0
C699 C 0.86882 0.61387 0.94316 0.0
C700 C 0.87694 0.61241 0.93059 0.0
C701 C 0.87446 0.59551 0.90841 0.0
H702 H 0.86475 0.59308 0.90178 0.0
H703 H 0.88064 0.58536 0.91019 0.0
H704 H 0.88151 0.60303 0.90229 0.0
O705 O 0.82567 0.59215 0.9247 0.0
O706 O 0.82274 0.60471 0.94511 0.0
H707 H 0.86127 0.63015 0.9579 0.0
H708 H 0.87973 0.63269 0.9519 0.0
C709 C 0.8715 0.62451 0.95509 0.0
H710 H 0.87547 0.61868 0.96481 0.0
H711 H 0.82921 0.62981 0.96713 0.0
O712 O 0.84833 0.572 0.90874 0.0
C713 C 0.81825 0.60058 0.93268 0.0
Co714 Co 0.57543 0.84832 0.06876 0.0
Co715 Co 0.59583 0.84378 0.04221 0.0
C716 C 0.56355 0.84385 0.0388 0.0
O717 O 0.56217 0.8456 0.05238 0.0
O718 O 0.57607 0.84313 0.03301 0.0
C719 C 0.55284 0.86231 0.08291 0.0
O720 O 0.55228 0.86893 0.07031 0.0
C721 C 0.60908 0.85272 0.01523 0.0
C722 C 0.62957 0.8403 0.0146 0.0
C723 C 0.62163 0.85069 0.00721 0.0
N724 N 0.60972 0.84417 0.02698 0.0
N725 N 0.62193 0.83669 0.02653 0.0
C726 C 0.59618 0.8619 0.01161 0.0
H727 H 0.59286 0.86824 0.02129 0.0
H728 H 0.59815 0.86926 0.00234 0.0
H729 H 0.587 0.85469 0.00873 0.0
C730 C 0.59276 0.87492 0.07202 0.0
N731 N 0.58919 0.86275 0.06484 0.0
N732 N 0.59825 0.86079 0.05397 0.0
C733 C 0.60805 0.8717 0.05408 0.0
C734 C 0.60471 0.88103 0.06538 0.0
C735 C 0.58559 0.87997 0.08568 0.0
H736 H 0.58369 0.87062 0.09299 0.0
H737 H 0.57497 0.88488 0.08295 0.0
H738 H 0.59225 0.88819 0.09141 0.0
O739 O 0.58523 0.83019 0.07336 0.0
O740 O 0.599 0.82585 0.05406 0.0
H741 H 0.62618 0.86229 0.04302 0.0
H742 H 0.62861 0.88113 0.0479 0.0
C743 C 0.6207 0.87293 0.04402 0.0
H744 H 0.61681 0.87627 0.03315 0.0
H745 H 0.62514 0.82929 0.03446 0.0
O746 O 0.56288 0.85321 0.08523 0.0
C747 C 0.59419 0.82227 0.06652 0.0
Co748 Co 0.1567 0.57916 0.07192 0.0
Co749 Co 0.15936 0.59934 0.04505 0.0
C750 C 0.16021 0.56652 0.04257 0.0
O751 O 0.15872 0.56497 0.05618 0.0
O752 O 0.16069 0.57911 0.03688 0.0
C753 C 0.16236 0.55929 0.09439 0.0
O754 O 0.17431 0.55711 0.08696 0.0
C755 C 0.14676 0.61106 0.01885 0.0
C756 C 0.16164 0.62881 0.01279 0.0
C757 C 0.14911 0.62169 0.00853 0.0
N758 N 0.15723 0.61198 0.0289 0.0
N759 N 0.16608 0.62266 0.02529 0.0
C760 C 0.13553 0.59934 0.01851 0.0
H761 H 0.13714 0.59156 0.02752 0.0
H762 H 0.12456 0.60413 0.01951 0.0
H763 H 0.13603 0.59356 0.00796 0.0
C764 C 0.12999 0.59557 0.07635 0.0
N765 N 0.14164 0.5922 0.06831 0.0
N766 N 0.14286 0.60144 0.05752 0.0
C767 C 0.13199 0.61123 0.05855 0.0
C768 C 0.12351 0.60775 0.07049 0.0
C769 C 0.12557 0.58756 0.08976 0.0
H770 H 0.12596 0.57572 0.0877 0.0
H771 H 0.11447 0.59059 0.09328 0.0
H772 H 0.13334 0.59007 0.0986 0.0
O773 O 0.17445 0.59007 0.07507 0.0
O774 O 0.17751 0.60435 0.05589 0.0
H775 H 0.12457 0.63319 0.05524 0.0
H776 H 0.12464 0.62191 0.03937 0.0
C777 C 0.13065 0.62458 0.04943 0.0
H778 H 0.14154 0.6287 0.04644 0.0
H779 H 0.17528 0.62556 0.0312 0.0
O780 O 0.15314 0.56843 0.08983 0.0
C781 C 0.18159 0.59965 0.06825 0.0
Co782 Co 0.84201 0.42291 0.06795 0.0
Co783 Co 0.84087 0.40239 0.04117 0.0
C784 C 0.83948 0.43508 0.03822 0.0
O785 O 0.8403 0.4367 0.05188 0.0
O786 O 0.83958 0.42247 0.03254 0.0
C787 C 0.835 0.44397 0.08838 0.0
O788 O 0.82433 0.44604 0.07916 0.0
C789 C 0.85464 0.38969 0.01587 0.0
C790 C 0.84057 0.37099 0.01073 0.0
C791 C 0.85305 0.37814 0.0064 0.0
N792 N 0.84377 0.38926 0.02553 0.0
N793 N 0.83538 0.37807 0.02242 0.0
C794 C 0.86572 0.40154 0.01521 0.0
H795 H 0.86685 0.40548 0.00389 0.0
H796 H 0.86272 0.41065 0.02245 0.0
H797 H 0.87641 0.39735 0.01872 0.0
C798 C 0.86907 0.40736 0.07348 0.0
N799 N 0.85751 0.4102 0.06511 0.0
N800 N 0.8568 0.40072 0.05448 0.0
C801 C 0.86782 0.39118 0.05605 0.0
C802 C 0.87597 0.39515 0.0681 0.0
C803 C 0.8733 0.41626 0.08638 0.0
H804 H 0.86629 0.41328 0.0957 0.0
H805 H 0.87161 0.42793 0.08401 0.0
H806 H 0.88481 0.41449 0.08938 0.0
O807 O 0.82438 0.41165 0.0705 0.0
O808 O 0.82235 0.39734 0.05122 0.0
H809 H 0.8588 0.37344 0.0439 0.0
H810 H 0.87506 0.36903 0.05391 0.0
C811 C 0.86953 0.37753 0.04743 0.0
H812 H 0.87625 0.37975 0.03773 0.0
H813 H 0.82609 0.37528 0.02826 0.0
O814 O 0.84432 0.43419 0.0858 0.0
C815 C 0.81768 0.40197 0.06337 0.0
Co816 Co 0.57169 0.91178 0.64841 0.0
Co817 Co 0.54442 0.89278 0.65434 0.0
C818 C 0.542 0.92493 0.6507 0.0
O819 O 0.55559 0.92573 0.64881 0.0
O820 O 0.53594 0.91275 0.65297 0.0
C821 C 0.58648 0.93084 0.63088 0.0
O822 O 0.57471 0.92867 0.62313 0.0
C823 C 0.51741 0.88045 0.64499 0.0
C824 C 0.51346 0.86225 0.66005 0.0
C825 C 0.50788 0.86929 0.64801 0.0
N826 N 0.5283 0.87994 0.65459 0.0
N827 N 0.5259 0.86908 0.66364 0.0
C828 C 0.5159 0.89206 0.63372 0.0
H829 H 0.50919 0.90098 0.63822 0.0
H830 H 0.52668 0.89652 0.63083 0.0
H831 H 0.51047 0.88798 0.62382 0.0
C832 C 0.57586 0.89063 0.62472 0.0
N833 N 0.56817 0.89611 0.63585 0.0
N834 N 0.55654 0.88812 0.63799 0.0
C835 C 0.55634 0.87743 0.62793 0.0
C836 C 0.56855 0.87871 0.61926 0.0
C837 C 0.58981 0.89692 0.61927 0.0
H838 H 0.59616 0.90144 0.6284 0.0
H839 H 0.58738 0.90569 0.61141 0.0
H840 H 0.59654 0.88875 0.61363 0.0
O841 O 0.57531 0.90422 0.6677 0.0
O842 O 0.5558 0.89096 0.67285 0.0
H843 H 0.54254 0.86159 0.63789 0.0
H844 H 0.54902 0.85661 0.62009 0.0
C845 C 0.54516 0.86573 0.62693 0.0
H846 H 0.53518 0.8702 0.62195 0.0
H847 H 0.53277 0.86629 0.67218 0.0
O848 O 0.58825 0.92372 0.64251 0.0
C849 C 0.56821 0.8961 0.67627 0.0
Co850 Co 0.07574 0.57364 0.65161 0.0
Co851 Co 0.09434 0.54561 0.65527 0.0
C852 C 0.06149 0.54502 0.65519 0.0
O853 O 0.06079 0.55862 0.65316 0.0
O854 O 0.07369 0.53861 0.65629 0.0
C855 C 0.05629 0.59529 0.65761 0.0
O856 O 0.05413 0.58636 0.66849 0.0
C857 C 0.10555 0.51843 0.64369 0.0
C858 C 0.1241 0.5137 0.65809 0.0
C859 C 0.11673 0.50863 0.64601 0.0
N860 N 0.10645 0.52894 0.65374 0.0
N861 N 0.11754 0.52605 0.66235 0.0
C862 C 0.09372 0.51751 0.63259 0.0
H863 H 0.09777 0.52148 0.622 0.0
H864 H 0.09016 0.5061 0.63121 0.0
H865 H 0.08437 0.52435 0.63571 0.0
C866 C 0.09338 0.57682 0.62546 0.0
N867 N 0.0892 0.56924 0.63715 0.0
N868 N 0.0977 0.5579 0.63882 0.0
C869 C 0.10786 0.55812 0.62825 0.0
C870 C 0.10539 0.5701 0.61947 0.0
C871 C 0.08596 0.5903 0.62029 0.0
H872 H 0.08933 0.59954 0.62721 0.0
H873 H 0.07405 0.58903 0.62129 0.0
H874 H 0.08872 0.59274 0.60883 0.0
O875 O 0.08593 0.57607 0.66995 0.0
O876 O 0.0991 0.55623 0.67355 0.0
H877 H 0.12437 0.54533 0.63855 0.0
H878 H 0.12974 0.5533 0.62148 0.0
C879 C 0.12066 0.54819 0.62749 0.0
H880 H 0.11756 0.53813 0.62171 0.0
H881 H 0.12066 0.53253 0.67109 0.0
O882 O 0.06576 0.59212 0.64813 0.0
C883 C 0.09477 0.56874 0.67753 0.0
Co884 Co 0.43149 0.07256 0.65142 0.0
Co885 Co 0.45937 0.09175 0.65191 0.0
C886 C 0.46074 0.05894 0.65119 0.0
O887 O 0.447 0.05801 0.65106 0.0
O888 O 0.46703 0.07126 0.65151 0.0
C889 C 0.41093 0.05222 0.65905 0.0
O890 O 0.42108 0.04947 0.66867 0.0
C891 C 0.48471 0.10444 0.63775 0.0
C892 C 0.48915 0.12367 0.65133 0.0
C893 C 0.49361 0.11652 0.63889 0.0
N894 N 0.47522 0.10464 0.6488 0.0
N895 N 0.47799 0.11611 0.65694 0.0
C896 C 0.48552 0.09256 0.62669 0.0
H897 H 0.48072 0.08243 0.63094 0.0
H898 H 0.47934 0.0957 0.61689 0.0
H899 H 0.49695 0.09056 0.62347 0.0
C900 C 0.42517 0.08985 0.62557 0.0
N901 N 0.43388 0.08619 0.63664 0.0
N902 N 0.44508 0.09501 0.63709 0.0
C903 C 0.44357 0.10492 0.62639 0.0
C904 C 0.43096 0.1019 0.61873 0.0
C905 C 0.41183 0.08157 0.62146 0.0
H906 H 0.40281 0.08479 0.62873 0.0
H907 H 0.41375 0.06978 0.62286 0.0
H908 H 0.40864 0.08369 0.61006 0.0
O909 O 0.43093 0.0825 0.67004 0.0
O910 O 0.45098 0.09576 0.67149 0.0
H911 H 0.45705 0.12187 0.63498 0.0
H912 H 0.44712 0.12677 0.61883 0.0
C913 C 0.45309 0.1179 0.62436 0.0
H914 H 0.4625 0.11494 0.61751 0.0
H915 H 0.47209 0.11891 0.66618 0.0
O916 O 0.41295 0.06226 0.64985 0.0
C917 C 0.43908 0.09126 0.67685 0.0
Co918 Co 0.92068 0.42961 0.65454 0.0
Co919 Co 0.89851 0.45496 0.65752 0.0
C920 C 0.93075 0.45991 0.65956 0.0
O921 O 0.93313 0.44648 0.65774 0.0
O922 O 0.91786 0.46489 0.65967 0.0
C923 C 0.94334 0.41102 0.66032 0.0
O924 O 0.94373 0.41945 0.6718 0.0
C925 C 0.88435 0.48071 0.64625 0.0
C926 C 0.86514 0.48312 0.66037 0.0
C927 C 0.87227 0.4893 0.64868 0.0
N928 N 0.88426 0.4698 0.65588 0.0
N929 N 0.87273 0.47124 0.66427 0.0
C930 C 0.89643 0.48342 0.63575 0.0
H931 H 0.90039 0.49472 0.63693 0.0
H932 H 0.90547 0.4757 0.63747 0.0
H933 H 0.89248 0.48209 0.62449 0.0
C934 C 0.90547 0.42511 0.62713 0.0
N935 N 0.90784 0.43282 0.63924 0.0
N936 N 0.89789 0.44297 0.64051 0.0
C937 C 0.88865 0.44182 0.62918 0.0
C938 C 0.89328 0.43056 0.62036 0.0
C939 C 0.91434 0.41229 0.62264 0.0
H940 H 0.91264 0.40336 0.63052 0.0
H941 H 0.926 0.41521 0.62285 0.0
H942 H 0.91137 0.40847 0.61161 0.0
O943 O 0.90964 0.42478 0.67186 0.0
O944 O 0.89428 0.44306 0.67518 0.0
H945 H 0.86983 0.45207 0.63831 0.0
H946 H 0.86706 0.44434 0.62048 0.0
C947 C 0.87485 0.45019 0.62755 0.0
H948 H 0.87723 0.46081 0.62249 0.0
H949 H 0.87014 0.46424 0.67276 0.0
O950 O 0.93367 0.41319 0.65076 0.0
C951 C 0.89958 0.43087 0.67901 0.0
Co952 Co 0.57399 0.0773 0.34471 0.0
Co953 Co 0.54683 0.09733 0.34322 0.0
C954 C 0.54442 0.06457 0.3438 0.0
O955 O 0.5581 0.06314 0.34449 0.0
O956 O 0.53862 0.0771 0.34319 0.0
C957 C 0.59414 0.05616 0.33804 0.0
O958 O 0.58423 0.05349 0.32816 0.0
C959 C 0.52127 0.10966 0.35683 0.0
C960 C 0.51504 0.12735 0.34193 0.0
C961 C 0.51111 0.12052 0.35472 0.0
N962 N 0.53089 0.11016 0.34592 0.0
N963 N 0.52717 0.1208 0.33706 0.0
C964 C 0.52122 0.09819 0.36833 0.0
H965 H 0.51031 0.09316 0.36904 0.0
H966 H 0.52948 0.08977 0.36607 0.0
H967 H 0.52371 0.10308 0.37901 0.0
C968 C 0.58011 0.09463 0.37058 0.0
N969 N 0.57149 0.09099 0.35944 0.0
N970 N 0.56055 0.1001 0.35863 0.0
C971 C 0.56208 0.11013 0.36922 0.0
C972 C 0.57452 0.10695 0.37711 0.0
C973 C 0.59337 0.08631 0.37484 0.0
H974 H 0.60236 0.08912 0.36736 0.0
H975 H 0.59126 0.07451 0.37388 0.0
H976 H 0.59671 0.08879 0.38613 0.0
O977 O 0.57561 0.08741 0.32623 0.0
O978 O 0.55617 0.10148 0.3241 0.0
H979 H 0.54903 0.12716 0.36013 0.0
H980 H 0.55884 0.13219 0.37635 0.0
C981 C 0.5528 0.12333 0.37087 0.0
H982 H 0.54323 0.12063 0.37761 0.0
H983 H 0.53277 0.12344 0.32759 0.0
O984 O 0.59214 0.06646 0.34695 0.0
C985 C 0.56815 0.09661 0.31923 0.0
Co986 Co 0.9188 0.56847 0.34355 0.0
Co987 Co 0.8999 0.54054 0.34206 0.0
C988 C 0.93277 0.53956 0.34157 0.0
O989 O 0.93376 0.55327 0.3425 0.0
O990 O 0.92043 0.53334 0.34126 0.0
C991 C 0.93776 0.59162 0.33718 0.0
O992 O 0.9402 0.58397 0.32541 0.0
C993 C 0.89082 0.51385 0.35524 0.0
C994 C 0.87036 0.50831 0.3441 0.0
C995 C 0.87971 0.50369 0.35496 0.0
N996 N 0.88819 0.52386 0.34505 0.0
N997 N 0.87601 0.52049 0.33832 0.0
C998 C 0.90307 0.51502 0.36585 0.0
H999 H 0.90695 0.52637 0.3666 0.0
H1000 H 0.89967 0.51125 0.37676 0.0
H1001 H 0.91224 0.50822 0.36207 0.0
C1002 C 0.90263 0.57281 0.37054 0.0
N1003 N 0.90576 0.56499 0.35866 0.0
N1004 N 0.89712 0.55368 0.35792 0.0
C1005 C 0.88794 0.55411 0.36935 0.0
C1006 C 0.89116 0.56625 0.37768 0.0
C1007 C 0.91095 0.58596 0.37517 0.0
H1008 H 0.9077 0.59529 0.3683 0.0
H1009 H 0.92272 0.58407 0.37358 0.0
H1010 H 0.90897 0.58866 0.38671 0.0
O1011 O 0.90819 0.56997 0.32535 0.0
O1012 O 0.89485 0.55 0.32323 0.0
H1013 H 0.87092 0.54042 0.36132 0.0
H1014 H 0.86724 0.54858 0.37877 0.0
C1015 C 0.87576 0.54369 0.37182 0.0
H1016 H 0.87999 0.5339 0.37735 0.0
H1017 H 0.87139 0.52666 0.33003 0.0
O1018 O 0.9287 0.58701 0.34645 0.0
C1019 C 0.89915 0.56223 0.31842 0.0
Co1020 Co 0.42717 0.92223 0.34849 0.0
Co1021 Co 0.45409 0.90195 0.34604 0.0
C1022 C 0.4568 0.93471 0.34718 0.0
O1023 O 0.44316 0.93626 0.34828 0.0
O1024 O 0.46246 0.92213 0.34619 0.0
C1025 C 0.407 0.94322 0.34193 0.0
O1026 O 0.41683 0.94564 0.33191 0.0
C1027 C 0.47954 0.8891 0.35917 0.0
C1028 C 0.48539 0.87145 0.34406 0.0
C1029 C 0.48944 0.87804 0.35695 0.0
N1030 N 0.46992 0.88894 0.34826 0.0
N1031 N 0.47343 0.87835 0.33926 0.0
C1032 C 0.47984 0.90041 0.37083 0.0
H1033 H 0.4907 0.90556 0.37122 0.0
H1034 H 0.4714 0.90875 0.36896 0.0
H1035 H 0.47783 0.89535 0.38154 0.0
C1036 C 0.42154 0.90462 0.37428 0.0
N1037 N 0.4298 0.90822 0.36286 0.0
N1038 N 0.44059 0.89898 0.36161 0.0
C1039 C 0.43929 0.88889 0.37216 0.0
C1040 C 0.4272 0.89219 0.38053 0.0
C1041 C 0.40869 0.91323 0.37921 0.0
H1042 H 0.3992 0.91039 0.37238 0.0
H1043 H 0.41089 0.92497 0.37788 0.0
H1044 H 0.40605 0.91101 0.39073 0.0
O1045 O 0.42532 0.91262 0.32977 0.0
O1046 O 0.44453 0.89835 0.32696 0.0
H1047 H 0.45204 0.87189 0.36258 0.0
H1048 H 0.44241 0.8667 0.37885 0.0
C1049 C 0.44847 0.87558 0.37345 0.0
H1050 H 0.45815 0.87806 0.38012 0.0
H1051 H 0.46774 0.87592 0.32978 0.0
O1052 O 0.40906 0.93311 0.35104 0.0
C1053 C 0.43258 0.90355 0.32238 0.0
Co1054 Co 0.07701 0.42461 0.33903 0.0
Co1055 Co 0.09669 0.45201 0.33875 0.0
C1056 C 0.06396 0.45401 0.33729 0.0
O1057 O 0.06263 0.44032 0.33783 0.0
O1058 O 0.07645 0.45992 0.33744 0.0
C1059 C 0.0563 0.40384 0.33184 0.0
O1060 O 0.05418 0.41299 0.32114 0.0
C1061 C 0.10576 0.47845 0.35242 0.0
C1062 C 0.12641 0.48405 0.34168 0.0
C1063 C 0.11676 0.48873 0.35224 0.0
N1064 N 0.1087 0.46834 0.34241 0.0
N1065 N 0.12103 0.47171 0.33595 0.0
C1066 C 0.09318 0.47741 0.36264 0.0
H1067 H 0.08948 0.46601 0.36362 0.0
H1068 H 0.09614 0.48159 0.37353 0.0
H1069 H 0.08402 0.48389 0.35832 0.0
C1070 C 0.09265 0.41887 0.36604 0.0
N1071 N 0.08964 0.42736 0.35461 0.0
N1072 N 0.0985 0.43854 0.35447 0.0
C1073 C 0.10759 0.43741 0.36592 0.0
C1074 C 0.10416 0.42489 0.37356 0.0
C1075 C 0.08456 0.40526 0.36959 0.0
H1076 H 0.07274 0.40719 0.36853 0.0
H1077 H 0.08694 0.40144 0.38074 0.0
H1078 H 0.08763 0.39669 0.36172 0.0
O1079 O 0.08838 0.42293 0.32136 0.0
O1080 O 0.10236 0.44254 0.32002 0.0
H1081 H 0.1281 0.44231 0.37614 0.0
H1082 H 0.11587 0.45739 0.37414 0.0
C1083 C 0.12001 0.44742 0.36885 0.0
H1084 H 0.12532 0.45051 0.35852 0.0
H1085 H 0.12582 0.46555 0.32776 0.0
O1086 O 0.06615 0.40648 0.34108 0.0
C1087 C 0.098 0.43043 0.31497 0.0
Co1088 Co 0.65163 0.57304 0.92103 0.0
Co1089 Co 0.65201 0.54588 0.90086 0.0
C1090 C 0.65267 0.54326 0.93348 0.0
O1091 O 0.65222 0.55694 0.93499 0.0
O1092 O 0.65267 0.53751 0.92091 0.0
C1093 C 0.66076 0.59308 0.94103 0.0
O1094 O 0.6716 0.58384 0.94096 0.0
C1095 C 0.63867 0.51968 0.89049 0.0
C1096 C 0.64986 0.5151 0.86981 0.0
C1097 C 0.63918 0.50992 0.87905 0.0
N1098 N 0.64862 0.53001 0.88819 0.0
N1099 N 0.65533 0.52725 0.87584 0.0
C1100 C 0.62822 0.52003 0.90291 0.0
H1101 H 0.62683 0.5313 0.90691 0.0
H1102 H 0.61753 0.51558 0.89964 0.0
H1103 H 0.63259 0.51341 0.91195 0.0
C1104 C 0.62545 0.57972 0.9043 0.0
N1105 N 0.63643 0.57085 0.90781 0.0
N1106 N 0.63668 0.55975 0.89885 0.0
C1107 C 0.62577 0.56129 0.88921 0.0
C1108 C 0.61835 0.57402 0.89236 0.0
C1109 C 0.62207 0.5935 0.91219 0.0
H1110 H 0.62298 0.59172 0.92405 0.0
H1111 H 0.61102 0.59748 0.9096 0.0
H1112 H 0.63012 0.60188 0.90908 0.0
O1113 O 0.66973 0.57441 0.91024 0.0
O1114 O 0.67109 0.55492 0.89612 0.0
H1115 H 0.61623 0.55675 0.86824 0.0
H1116 H 0.6181 0.54141 0.88018 0.0
C1117 C 0.62333 0.55157 0.87646 0.0
H1118 H 0.63385 0.54877 0.87138 0.0
H1119 H 0.66353 0.5337 0.87148 0.0
O1120 O 0.65011 0.5909 0.93257 0.0
C1121 C 0.67631 0.56682 0.90082 0.0
Co1122 Co 0.42902 0.65533 0.91801 0.0
Co1123 Co 0.45419 0.65606 0.89529 0.0
C1124 C 0.46012 0.65852 0.92716 0.0
O1125 O 0.44661 0.65799 0.92967 0.0
O1126 O 0.46494 0.65767 0.91424 0.0
C1127 C 0.41518 0.64892 0.94447 0.0
O1128 O 0.42849 0.64546 0.94816 0.0
C1129 C 0.47899 0.64345 0.88053 0.0
C1130 C 0.48148 0.65734 0.86117 0.0
C1131 C 0.48745 0.64553 0.86829 0.0
N1132 N 0.46838 0.65341 0.88055 0.0
N1133 N 0.46985 0.66164 0.86891 0.0
C1134 C 0.48163 0.63302 0.8927 0.0
H1135 H 0.47396 0.63491 0.90174 0.0
H1136 H 0.48015 0.62175 0.88885 0.0
H1137 H 0.49296 0.63412 0.89662 0.0
C1138 C 0.42246 0.62789 0.90341 0.0
N1139 N 0.43089 0.6396 0.90532 0.0
N1140 N 0.44095 0.63998 0.8952 0.0
C1141 C 0.43901 0.62849 0.88631 0.0
C1142 C 0.42726 0.62048 0.89126 0.0
C1143 C 0.41013 0.62395 0.91319 0.0
H1144 H 0.40113 0.63177 0.91156 0.0
H1145 H 0.41369 0.62475 0.92464 0.0
H1146 H 0.40616 0.61279 0.91114 0.0
O1147 O 0.42515 0.67278 0.90683 0.0
O1148 O 0.44361 0.67462 0.89144 0.0
H1149 H 0.44967 0.63646 0.8672 0.0
H1150 H 0.44091 0.61909 0.86493 0.0
C1151 C 0.4472 0.62598 0.87253 0.0
H1152 H 0.45752 0.62037 0.87503 0.0
H1153 H 0.4631 0.67037 0.86641 0.0
O1154 O 0.41259 0.6529 0.93155 0.0
C1155 C 0.43179 0.67943 0.89677 0.0
Co1156 Co 0.33626 0.42816 0.92081 0.0
Co1157 Co 0.33553 0.45511 0.90022 0.0
C1158 C 0.33007 0.45801 0.93214 0.0
O1159 O 0.33123 0.44439 0.9335 0.0
O1160 O 0.33178 0.46404 0.91983 0.0
C1161 C 0.342 0.41298 0.94656 0.0
O1162 O 0.34427 0.42624 0.95119 0.0
C1163 C 0.34913 0.48095 0.88871 0.0
C1164 C 0.33651 0.48573 0.86892 0.0
C1165 C 0.34814 0.49047 0.87716 0.0
N1166 N 0.33875 0.47086 0.88727 0.0
N1167 N 0.33121 0.47376 0.87543 0.0
C1168 C 0.3591 0.48196 0.90149 0.0
H1169 H 0.35832 0.49294 0.90637 0.0
H1170 H 0.35642 0.47363 0.90972 0.0
H1171 H 0.37048 0.48037 0.89799 0.0
C1172 C 0.36499 0.42444 0.90798 0.0
N1173 N 0.3528 0.43218 0.9098 0.0
N1174 N 0.35237 0.44281 0.90029 0.0
C1175 C 0.36427 0.44187 0.89178 0.0
C1176 C 0.37265 0.43025 0.89644 0.0
C1177 C 0.36897 0.41156 0.91702 0.0
H1178 H 0.3618 0.40234 0.91415 0.0
H1179 H 0.36728 0.41414 0.92863 0.0
H1180 H 0.38044 0.40834 0.91541 0.0
O1181 O 0.32025 0.42411 0.90768 0.0
O1182 O 0.31814 0.44374 0.89379 0.0
H1183 H 0.35616 0.45333 0.87315 0.0
H1184 H 0.37332 0.44435 0.87033 0.0
C1185 C 0.36666 0.4505 0.87824 0.0
H1186 H 0.37256 0.4606 0.88096 0.0
H1187 H 0.32243 0.4676 0.87181 0.0
O1188 O 0.33892 0.41091 0.9333 0.0
C1189 C 0.31394 0.43113 0.89764 0.0
Co1190 Co 0.56944 0.34596 0.92145 0.0
Co1191 Co 0.54123 0.34308 0.90296 0.0
C1192 C 0.54088 0.34263 0.93583 0.0
O1193 O 0.55451 0.34443 0.93647 0.0
O1194 O 0.53438 0.34186 0.92365 0.0
C1195 C 0.59088 0.3397 0.94119 0.0
O1196 O 0.58171 0.32905 0.9435 0.0
C1197 C 0.51464 0.35613 0.89243 0.0
C1198 C 0.50801 0.34172 0.87448 0.0
C1199 C 0.50417 0.35426 0.88182 0.0
N1200 N 0.52437 0.34536 0.89126 0.0
N1201 N 0.52036 0.33676 0.88053 0.0
C1202 C 0.51497 0.36742 0.90411 0.0
H1203 H 0.52276 0.36446 0.91275 0.0
H1204 H 0.51839 0.37797 0.89951 0.0
H1205 H 0.50397 0.36884 0.90879 0.0
C1206 C 0.57284 0.37247 0.90441 0.0
N1207 N 0.56521 0.3607 0.90827 0.0
N1208 N 0.55391 0.35926 0.89969 0.0
C1209 C 0.55426 0.36999 0.88972 0.0
C1210 C 0.56622 0.37872 0.89246 0.0
C1211 C 0.5861 0.3776 0.91223 0.0
H1212 H 0.59557 0.37115 0.90856 0.0
H1213 H 0.58478 0.37593 0.92406 0.0
H1214 H 0.58823 0.38925 0.91012 0.0
O1215 O 0.57132 0.32767 0.91098 0.0
O1216 O 0.55128 0.32457 0.89795 0.0
H1217 H 0.54101 0.36001 0.87333 0.0
H1218 H 0.55005 0.37643 0.86764 0.0
C1219 C 0.54448 0.37097 0.8768 0.0
H1220 H 0.53478 0.37746 0.87961 0.0
H1221 H 0.52605 0.32751 0.87733 0.0
O1222 O 0.588 0.34901 0.93146 0.0
C1223 C 0.56374 0.3203 0.90215 0.0
Co1224 Co 0.6526 0.42469 0.07464 0.0
Co1225 Co 0.65447 0.45164 0.09498 0.0
C1226 C 0.65521 0.4544 0.06235 0.0
O1227 O 0.65402 0.44078 0.06074 0.0
O1228 O 0.65562 0.46003 0.07496 0.0
C1229 C 0.66053 0.40447 0.05437 0.0
O1230 O 0.67178 0.41321 0.05441 0.0
C1231 C 0.64252 0.47857 0.10505 0.0
C1232 C 0.6534 0.48255 0.12601 0.0
C1233 C 0.64328 0.4883 0.11648 0.0
N1234 N 0.65181 0.4677 0.1076 0.0
N1235 N 0.65835 0.47011 0.12013 0.0
C1236 C 0.63231 0.47877 0.09242 0.0
H1237 H 0.63035 0.4676 0.08842 0.0
H1238 H 0.62183 0.48384 0.09546 0.0
H1239 H 0.63722 0.48511 0.08346 0.0
C1240 C 0.62588 0.41955 0.09111 0.0
N1241 N 0.6375 0.42767 0.08782 0.0
N1242 N 0.63834 0.4387 0.09684 0.0
C1243 C 0.62718 0.43786 0.10628 0.0
C1244 C 0.61898 0.42568 0.10296 0.0
C1245 C 0.6216 0.40618 0.08296 0.0
H1246 H 0.62887 0.39714 0.08614 0.0
H1247 H 0.62291 0.40802 0.07115 0.0
H1248 H 0.61021 0.40307 0.08525 0.0
O1249 O 0.67053 0.42219 0.08553 0.0
O1250 O 0.67293 0.44142 0.09987 0.0
H1251 H 0.63566 0.44997 0.12422 0.0
H1252 H 0.61754 0.44307 0.12704 0.0
C1253 C 0.62509 0.44779 0.11895 0.0
H1254 H 0.62054 0.45822 0.11508 0.0
H1255 H 0.66606 0.46321 0.12471 0.0
O1256 O 0.6501 0.40703 0.063 0.0
C1257 C 0.67745 0.42926 0.0951 0.0
Co1258 Co 0.57359 0.65387 0.0733 0.0
Co1259 Co 0.54473 0.6553 0.09089 0.0
C1260 C 0.54529 0.65567 0.05806 0.0
O1261 O 0.55902 0.65465 0.05773 0.0
O1262 O 0.53851 0.65614 0.07008 0.0
C1263 C 0.59536 0.66085 0.0541 0.0
O1264 O 0.58599 0.67127 0.05158 0.0
C1265 C 0.51752 0.64212 0.09837 0.0
C1266 C 0.51069 0.65334 0.11839 0.0
C1267 C 0.5066 0.64255 0.10872 0.0
N1268 N 0.52745 0.65219 0.10169 0.0
N1269 N 0.52333 0.65895 0.11363 0.0
C1270 C 0.51934 0.63154 0.08617 0.0
H1271 H 0.53094 0.63049 0.0832 0.0
H1272 H 0.51499 0.62074 0.08918 0.0
H1273 H 0.51341 0.63558 0.07651 0.0
C1274 C 0.57748 0.62721 0.09021 0.0
N1275 N 0.56965 0.63884 0.08632 0.0
N1276 N 0.55787 0.63957 0.09432 0.0
C1277 C 0.55797 0.62841 0.10381 0.0
C1278 C 0.57042 0.62024 0.1015 0.0
C1279 C 0.59123 0.62272 0.08285 0.0
H1280 H 0.60027 0.62954 0.0869 0.0
H1281 H 0.59027 0.62447 0.07099 0.0
H1282 H 0.5938 0.61115 0.0849 0.0
O1283 O 0.57442 0.67214 0.084 0.0
O1284 O 0.55388 0.67409 0.09649 0.0
H1285 H 0.5436 0.63675 0.12009 0.0
H1286 H 0.55136 0.61927 0.12434 0.0
C1287 C 0.54697 0.62617 0.11551 0.0
H1288 H 0.53731 0.62073 0.11087 0.0
H1289 H 0.52922 0.66721 0.11863 0.0
O1290 O 0.59251 0.65151 0.0638 0.0
C1291 C 0.56625 0.67899 0.09274 0.0
Co1292 Co 0.3376 0.5682 0.07677 0.0
Co1293 Co 0.33725 0.541 0.09696 0.0
C1294 C 0.33 0.53859 0.06545 0.0
O1295 O 0.33153 0.55219 0.06414 0.0
O1296 O 0.33195 0.53242 0.07764 0.0
C1297 C 0.34546 0.58213 0.05133 0.0
O1298 O 0.34978 0.56886 0.04847 0.0
C1299 C 0.34695 0.51266 0.10631 0.0
C1300 C 0.34287 0.51272 0.12992 0.0
C1301 C 0.34858 0.50442 0.11877 0.0
N1302 N 0.3405 0.5252 0.10987 0.0
N1303 N 0.33792 0.52514 0.12398 0.0
C1304 C 0.35302 0.50953 0.09158 0.0
H1305 H 0.35569 0.51978 0.08588 0.0
H1306 H 0.36292 0.50274 0.09233 0.0
H1307 H 0.34479 0.5036 0.08511 0.0
C1308 C 0.36748 0.57038 0.08743 0.0
N1309 N 0.35463 0.56357 0.08676 0.0
N1310 N 0.35469 0.55233 0.09555 0.0
C1311 C 0.36777 0.55167 0.10215 0.0
C1312 C 0.37629 0.56303 0.09711 0.0
C1313 C 0.37077 0.58433 0.07981 0.0
H1314 H 0.3613 0.5917 0.08053 0.0
H1315 H 0.37291 0.58205 0.06819 0.0
H1316 H 0.38035 0.58984 0.08454 0.0
O1317 O 0.32252 0.57284 0.09066 0.0
O1318 O 0.32076 0.55314 0.10449 0.0
H1319 H 0.36415 0.54003 0.12188 0.0
H1320 H 0.38309 0.54229 0.11734 0.0
C1321 C 0.37211 0.5403 0.11288 0.0
H1322 H 0.3721 0.52957 0.1075 0.0
H1323 H 0.33324 0.53377 0.12961 0.0
O1324 O 0.34021 0.58493 0.06374 0.0
C1325 C 0.31669 0.56591 0.10103 0.0
Co1326 Co 0.42833 0.33925 0.07782 0.0
Co1327 Co 0.45407 0.33744 0.09967 0.0
C1328 C 0.4584 0.33269 0.06773 0.0
O1329 O 0.44492 0.33424 0.06556 0.0
O1330 O 0.46367 0.33376 0.08045 0.0
C1331 C 0.41493 0.34785 0.05215 0.0
O1332 O 0.42818 0.3524 0.04957 0.0
C1333 C 0.48121 0.34823 0.11023 0.0
C1334 C 0.4831 0.33956 0.13247 0.0
C1335 C 0.49018 0.34806 0.12228 0.0
N1336 N 0.46951 0.34011 0.11305 0.0
N1337 N 0.47067 0.33487 0.12634 0.0
C1338 C 0.4829 0.35704 0.09668 0.0
H1339 H 0.47218 0.3592 0.09169 0.0
H1340 H 0.48839 0.36748 0.09903 0.0
H1341 H 0.48954 0.35089 0.08877 0.0
C1342 C 0.42533 0.36833 0.09046 0.0
N1343 N 0.43226 0.35558 0.0892 0.0
N1344 N 0.44255 0.35476 0.09906 0.0
C1345 C 0.44229 0.367 0.1071 0.0
C1346 C 0.43149 0.376 0.10176 0.0
C1347 C 0.41241 0.3726 0.08161 0.0
H1348 H 0.40417 0.36386 0.08207 0.0
H1349 H 0.41576 0.37393 0.07014 0.0
H1350 H 0.40754 0.38289 0.0855 0.0
O1351 O 0.42324 0.32318 0.09046 0.0
O1352 O 0.44188 0.32041 0.10553 0.0
H1353 H 0.45249 0.35992 0.12675 0.0
H1354 H 0.44739 0.37889 0.12665 0.0
C1355 C 0.4517 0.36984 0.12 0.0
H1356 H 0.46273 0.37278 0.11627 0.0
H1357 H 0.46292 0.32828 0.13128 0.0
O1358 O 0.41201 0.34236 0.06443 0.0
C1359 C 0.42941 0.31662 0.10089 0.0
Co1360 Co 0.92357 0.65189 0.57291 0.0
Co1361 Co 0.90346 0.65188 0.5457 0.0
C1362 C 0.93607 0.6537 0.54321 0.0
O1363 O 0.93744 0.65314 0.55689 0.0
O1364 O 0.92357 0.65333 0.53731 0.0
C1365 C 0.94317 0.66165 0.59298 0.0
O1366 O 0.94264 0.67254 0.58381 0.0
C1367 C 0.89134 0.63731 0.52045 0.0
C1368 C 0.8726 0.65109 0.51474 0.0
C1369 C 0.87998 0.63865 0.51068 0.0
N1370 N 0.89057 0.64831 0.52996 0.0
N1371 N 0.87933 0.65651 0.52652 0.0
C1372 C 0.90334 0.62638 0.52022 0.0
H1373 H 0.91243 0.62984 0.52726 0.0
H1374 H 0.8993 0.61583 0.5243 0.0
H1375 H 0.90724 0.62474 0.50895 0.0
C1376 C 0.90753 0.62543 0.57961 0.0
N1377 N 0.91092 0.63629 0.57055 0.0
N1378 N 0.90176 0.63646 0.5596 0.0
C1379 C 0.89199 0.62572 0.56157 0.0
C1380 C 0.89539 0.61839 0.57428 0.0
C1381 C 0.91552 0.62232 0.5934 0.0
H1382 H 0.9123 0.63039 0.60172 0.0
H1383 H 0.92735 0.62338 0.59156 0.0
H1384 H 0.91311 0.61127 0.59748 0.0
O1385 O 0.91216 0.66957 0.57452 0.0
O1386 O 0.89815 0.67074 0.55495 0.0
H1387 H 0.87439 0.63439 0.54901 0.0
H1388 H 0.86999 0.61809 0.55896 0.0
C1389 C 0.87856 0.62374 0.55268 0.0
H1390 H 0.88113 0.61706 0.54303 0.0
H1391 H 0.87632 0.66586 0.53215 0.0
O1392 O 0.93516 0.65066 0.59073 0.0
C1393 C 0.90259 0.67595 0.56696 0.0
Co1394 Co 0.91905 0.34308 0.42924 0.0
Co1395 Co 0.89973 0.33869 0.45663 0.0
C1396 C 0.93212 0.33645 0.45823 0.0
O1397 O 0.93305 0.33887 0.44472 0.0
O1398 O 0.91984 0.33606 0.4645 0.0
C1399 C 0.94156 0.35653 0.41463 0.0
O1400 O 0.94298 0.36248 0.4275 0.0
C1401 C 0.89023 0.34655 0.48532 0.0
C1402 C 0.86791 0.338 0.48673 0.0
C1403 C 0.87826 0.34579 0.49435 0.0
N1404 N 0.88719 0.33947 0.47299 0.0
N1405 N 0.87388 0.33423 0.47391 0.0
C1406 C 0.90371 0.35535 0.48752 0.0
H1407 H 0.90839 0.3586 0.47693 0.0
H1408 H 0.90141 0.36521 0.49401 0.0
H1409 H 0.91183 0.34871 0.49341 0.0
C1410 C 0.9037 0.37104 0.42829 0.0
N1411 N 0.9065 0.35818 0.43453 0.0
N1412 N 0.89806 0.35648 0.44592 0.0
C1413 C 0.88957 0.36836 0.44725 0.0
C1414 C 0.89303 0.37799 0.43621 0.0
C1415 C 0.91037 0.37616 0.4144 0.0
H1416 H 0.91167 0.36694 0.4068 0.0
H1417 H 0.92121 0.38081 0.41671 0.0
H1418 H 0.90362 0.38462 0.40915 0.0
O1419 O 0.90773 0.32596 0.42449 0.0
O1420 O 0.89439 0.32168 0.44413 0.0
H1421 H 0.87147 0.36088 0.45969 0.0
H1422 H 0.87171 0.38027 0.45679 0.0
C1423 C 0.87851 0.37058 0.4589 0.0
H1424 H 0.88408 0.3721 0.46942 0.0
H1425 H 0.86873 0.32849 0.46563 0.0
O1426 O 0.93105 0.34796 0.41236 0.0
C1427 C 0.89841 0.31844 0.43128 0.0
Co1428 Co 0.65359 0.92744 0.42968 0.0
Co1429 Co 0.65577 0.90703 0.45648 0.0
C1430 C 0.65697 0.93959 0.45946 0.0
O1431 O 0.6558 0.94112 0.44582 0.0
O1432 O 0.65705 0.92702 0.46522 0.0
C1433 C 0.66162 0.94698 0.40867 0.0
O1434 O 0.67319 0.94684 0.41698 0.0
C1435 C 0.64406 0.89496 0.48293 0.0
C1436 C 0.65518 0.87382 0.48484 0.0
C1437 C 0.64474 0.88248 0.49132 0.0
N1438 N 0.65361 0.89371 0.47205 0.0
N1439 N 0.66036 0.88113 0.4733 0.0
C1440 C 0.6335 0.90723 0.48414 0.0
H1441 H 0.63214 0.91268 0.4735 0.0
H1442 H 0.62283 0.90331 0.48806 0.0
H1443 H 0.63774 0.91532 0.49197 0.0
C1444 C 0.62644 0.91163 0.4251 0.0
N1445 N 0.6383 0.9146 0.43299 0.0
N1446 N 0.63935 0.90534 0.44379 0.0
C1447 C 0.62815 0.89594 0.44293 0.0
C1448 C 0.61963 0.89964 0.43106 0.0
C1449 C 0.62185 0.92021 0.41211 0.0
H1450 H 0.62855 0.91695 0.40266 0.0
H1451 H 0.62368 0.93193 0.41412 0.0
H1452 H 0.61024 0.91843 0.40952 0.0
O1453 O 0.67117 0.91625 0.4265 0.0
O1454 O 0.67399 0.90215 0.44581 0.0
H1455 H 0.63711 0.87782 0.45443 0.0
H1456 H 0.61921 0.87467 0.44719 0.0
C1457 C 0.6264 0.88283 0.45233 0.0
H1458 H 0.62156 0.88611 0.46283 0.0
H1459 H 0.66815 0.87734 0.46602 0.0
O1460 O 0.65091 0.93898 0.412 0.0
C1461 C 0.6782 0.9067 0.43346 0.0
Co1462 Co 0.07841 0.65469 0.42825 0.0
Co1463 Co 0.09928 0.65618 0.4549 0.0
C1464 C 0.06738 0.65992 0.45856 0.0
O1465 O 0.06585 0.65897 0.44493 0.0
O1466 O 0.07985 0.65878 0.46432 0.0
C1467 C 0.05316 0.64478 0.41567 0.0
O1468 O 0.05168 0.63987 0.42895 0.0
C1469 C 0.11022 0.64575 0.48217 0.0
C1470 C 0.13251 0.65439 0.48341 0.0
C1471 C 0.12253 0.64592 0.4908 0.0
N1472 N 0.11274 0.65381 0.47034 0.0
N1473 N 0.12605 0.65905 0.47114 0.0
C1474 C 0.09674 0.6369 0.48421 0.0
H1475 H 0.09157 0.6346 0.4736 0.0
H1476 H 0.09923 0.62651 0.48974 0.0
H1477 H 0.08893 0.64309 0.49094 0.0
C1478 C 0.09211 0.6262 0.42465 0.0
N1479 N 0.09039 0.63871 0.4319 0.0
N1480 N 0.0996 0.63925 0.44279 0.0
C1481 C 0.10762 0.62697 0.44271 0.0
C1482 C 0.10299 0.61828 0.4313 0.0
C1483 C 0.08407 0.62237 0.41108 0.0
H1484 H 0.08348 0.63197 0.40386 0.0
H1485 H 0.07285 0.61913 0.41393 0.0
H1486 H 0.08938 0.61334 0.40516 0.0
O1487 O 0.09033 0.67153 0.42383 0.0
O1488 O 0.10428 0.67397 0.4434 0.0
H1489 H 0.12651 0.63297 0.45483 0.0
H1490 H 0.12576 0.61396 0.45011 0.0
C1491 C 0.11926 0.62349 0.45347 0.0
H1492 H 0.11423 0.621 0.46408 0.0
H1493 H 0.1308 0.66555 0.46319 0.0
O1494 O 0.06484 0.6511 0.41206 0.0
C1495 C 0.10003 0.67827 0.43094 0.0
Co1496 Co 0.3432 0.07433 0.42492 0.0
Co1497 Co 0.34194 0.09478 0.4518 0.0
C1498 C 0.34026 0.06214 0.45458 0.0
O1499 O 0.34134 0.0604 0.44095 0.0
O1500 O 0.34026 0.07478 0.46014 0.0
C1501 C 0.33476 0.05475 0.40396 0.0
O1502 O 0.32326 0.05489 0.41236 0.0
C1503 C 0.3543 0.10455 0.47869 0.0
C1504 C 0.34362 0.12556 0.48293 0.0
C1505 C 0.35371 0.11591 0.48854 0.0
N1506 N 0.34495 0.10727 0.46791 0.0
N1507 N 0.33853 0.11982 0.47047 0.0
C1508 C 0.36436 0.09179 0.47872 0.0
H1509 H 0.36609 0.08777 0.46751 0.0
H1510 H 0.37496 0.09472 0.48361 0.0
H1511 H 0.35945 0.08289 0.48514 0.0
C1512 C 0.3707 0.08958 0.42005 0.0
N1513 N 0.35877 0.08697 0.42795 0.0
N1514 N 0.35812 0.09616 0.43885 0.0
C1515 C 0.36967 0.10512 0.43808 0.0
C1516 C 0.378 0.10124 0.42614 0.0
C1517 C 0.37505 0.08083 0.40709 0.0
H1518 H 0.36848 0.0843 0.39762 0.0
H1519 H 0.37282 0.06919 0.4091 0.0
H1520 H 0.38671 0.08222 0.40453 0.0
O1521 O 0.32557 0.08574 0.42243 0.0
O1522 O 0.32361 0.10017 0.44164 0.0
H1523 H 0.36159 0.12318 0.45032 0.0
H1524 H 0.3795 0.12587 0.44286 0.0
C1525 C 0.37207 0.11784 0.44786 0.0
H1526 H 0.37693 0.11403 0.45818 0.0
H1527 H 0.3308 0.12451 0.46369 0.0
O1528 O 0.34542 0.06288 0.40711 0.0
C1529 C 0.31891 0.0955 0.42951 0.0
Co1530 Co 0.07714 0.34441 0.57027 0.0
Co1531 Co 0.09732 0.34253 0.54316 0.0
C1532 C 0.0647 0.34041 0.54078 0.0
O1533 O 0.06326 0.34192 0.55439 0.0
O1534 O 0.07721 0.34043 0.53491 0.0
C1535 C 0.05529 0.33926 0.59052 0.0
O1536 O 0.0525 0.32868 0.5814 0.0
C1537 C 0.10924 0.35481 0.51663 0.0
C1538 C 0.1284 0.34106 0.51243 0.0
C1539 C 0.12068 0.35279 0.50707 0.0
N1540 N 0.11027 0.34489 0.52723 0.0
N1541 N 0.12176 0.33672 0.52471 0.0
C1542 C 0.09693 0.36531 0.51523 0.0
H1543 H 0.08792 0.3624 0.52261 0.0
H1544 H 0.10066 0.37635 0.51817 0.0
H1545 H 0.093 0.36561 0.50385 0.0
C1546 C 0.09287 0.37145 0.57484 0.0
N1547 N 0.08978 0.3598 0.5667 0.0
N1548 N 0.09891 0.35899 0.55577 0.0
C1549 C 0.10837 0.37015 0.55681 0.0
C1550 C 0.10478 0.37837 0.56891 0.0
C1551 C 0.08485 0.37549 0.58835 0.0
H1552 H 0.07301 0.37493 0.58632 0.0
H1553 H 0.08768 0.38657 0.59208 0.0
H1554 H 0.08751 0.36759 0.59703 0.0
O1555 O 0.08841 0.32682 0.57333 0.0
O1556 O 0.10253 0.32441 0.55393 0.0
H1557 H 0.12982 0.37877 0.55308 0.0
H1558 H 0.11847 0.37743 0.53731 0.0
C1559 C 0.12156 0.37198 0.54755 0.0
H1560 H 0.1263 0.36126 0.54492 0.0
H1561 H 0.125 0.32809 0.53128 0.0
O1562 O 0.06587 0.34768 0.58801 0.0
C1563 C 0.09803 0.31998 0.56623 0.0
Co1564 Co 0.65488 0.08637 0.57184 0.0
Co1565 Co 0.66031 0.10469 0.54396 0.0
C1566 C 0.65843 0.07231 0.54269 0.0
O1567 O 0.65625 0.07178 0.55625 0.0
O1568 O 0.66027 0.08441 0.53636 0.0
C1569 C 0.63725 0.06765 0.58649 0.0
O1570 O 0.62987 0.06984 0.5745 0.0
C1571 C 0.65165 0.11393 0.51558 0.0
C1572 C 0.66374 0.1342 0.51164 0.0
C1573 C 0.65374 0.12482 0.50546 0.0
N1574 N 0.66008 0.1166 0.52711 0.0
N1575 N 0.66738 0.1287 0.52472 0.0
C1576 C 0.64075 0.10189 0.51508 0.0
H1577 H 0.63763 0.09856 0.52621 0.0
H1578 H 0.6309 0.10526 0.50905 0.0
H1579 H 0.6456 0.09238 0.50952 0.0
C1580 C 0.63013 0.10662 0.5748 0.0
N1581 N 0.64161 0.10132 0.56752 0.0
N1582 N 0.64348 0.10882 0.55552 0.0
C1583 C 0.63286 0.11888 0.5546 0.0
C1584 C 0.6241 0.1178 0.56677 0.0
C1585 C 0.62495 0.10099 0.58914 0.0
H1586 H 0.63418 0.09675 0.59553 0.0
H1587 H 0.61698 0.09218 0.58729 0.0
H1588 H 0.61949 0.1095 0.59559 0.0
O1589 O 0.67372 0.0951 0.57555 0.0
O1590 O 0.67841 0.108 0.55565 0.0
H1591 H 0.64209 0.13489 0.54054 0.0
H1592 H 0.62354 0.13846 0.54567 0.0
C1593 C 0.63142 0.12985 0.54274 0.0
H1594 H 0.62761 0.12441 0.53273 0.0
H1595 H 0.67463 0.13331 0.53207 0.0
O1596 O 0.64893 0.07461 0.58855 0.0
C1597 C 0.6819 0.10349 0.56829 0.0
Co1598 Co 0.34482 0.92288 0.57525 0.0
Co1599 Co 0.34239 0.9021 0.5487 0.0
C1600 C 0.34133 0.93476 0.54554 0.0
O1601 O 0.34281 0.93661 0.55911 0.0
O1602 O 0.34094 0.92206 0.54011 0.0
C1603 C 0.33713 0.94273 0.5962 0.0
O1604 O 0.32548 0.94271 0.588 0.0
C1605 C 0.35421 0.8916 0.52186 0.0
C1606 C 0.34266 0.87102 0.51782 0.0
C1607 C 0.3531 0.8802 0.5121 0.0
N1608 N 0.3448 0.88935 0.5327 0.0
N1609 N 0.33787 0.87705 0.53026 0.0
C1610 C 0.36475 0.90395 0.52168 0.0
H1611 H 0.36668 0.908 0.53284 0.0
H1612 H 0.3752 0.90059 0.51676 0.0
H1613 H 0.36014 0.91299 0.51522 0.0
C1614 C 0.37175 0.90669 0.58 0.0
N1615 N 0.35999 0.90983 0.57203 0.0
N1616 N 0.35878 0.90043 0.56137 0.0
C1617 C 0.36973 0.89078 0.56239 0.0
C1618 C 0.37829 0.89442 0.57426 0.0
C1619 C 0.37646 0.91534 0.59291 0.0
H1620 H 0.36974 0.91225 0.60239 0.0
H1621 H 0.37478 0.92706 0.5908 0.0
H1622 H 0.38805 0.91342 0.59549 0.0
O1623 O 0.32707 0.91182 0.57831 0.0
O1624 O 0.32421 0.89719 0.55937 0.0
H1625 H 0.36025 0.87287 0.55098 0.0
H1626 H 0.37801 0.86919 0.55836 0.0
C1627 C 0.37111 0.87753 0.55312 0.0
H1628 H 0.37607 0.88058 0.5426 0.0
H1629 H 0.32998 0.87274 0.53712 0.0
O1630 O 0.34763 0.93446 0.59288 0.0
C1631 C 0.32001 0.9021 0.57159 0.0
C1632 C 0.10381 0.43373 0.28878 0.0
C1633 C 0.10337 0.42484 0.30107 0.0
C1634 C 0.10468 0.42749 0.27497 0.0
C1635 C 0.10805 0.41164 0.2463 0.0
H1636 H 0.08028 0.3801 0.24401 0.0
C1637 C 0.08751 0.39327 0.19134 0.0
C1638 C 0.07231 0.39342 0.1904 0.0
C1639 C 0.09434 0.39264 0.20479 0.0
C1640 C 0.08814 0.38881 0.24447 0.0
H1641 H 0.10522 0.40278 0.30893 0.0
H1642 H 0.1073 0.39194 0.28494 0.0
H1643 H 0.08816 0.38886 0.26759 0.0
H1644 H 0.05233 0.39158 0.20255 0.0
H1645 H 0.06422 0.39075 0.22617 0.0
H1646 H 0.10721 0.41228 0.22319 0.0
C1647 C 0.10646 0.40363 0.28581 0.0
C1648 C 0.09281 0.39374 0.25798 0.0
C1649 C 0.10538 0.40983 0.29953 0.0
C1650 C 0.06406 0.39144 0.203 0.0
C1651 C 0.07091 0.39097 0.21653 0.0
C1652 C 0.10334 0.40672 0.23278 0.0
C1653 C 0.10528 0.4123 0.27337 0.0
C1654 C 0.10248 0.40551 0.25905 0.0
C1655 C 0.08609 0.39232 0.21757 0.0
C1656 C 0.09299 0.39555 0.23173 0.0
H1657 H 0.10216 0.44532 0.28974 0.0
H1658 H 0.10368 0.43449 0.2656 0.0
H1659 H 0.11561 0.42061 0.24676 0.0
H1660 H 0.09411 0.39459 0.18171 0.0
H1661 H 0.10606 0.39331 0.20522 0.0
C1662 C 0.60294 0.06191 0.20413 0.0
C1663 C 0.6005 0.07046 0.19181 0.0
C1664 C 0.60356 0.06837 0.21784 0.0
C1665 C 0.58836 0.10048 0.23566 0.0
H1666 H 0.60748 0.08413 0.26927 0.0
C1667 C 0.56411 0.10175 0.29296 0.0
C1668 C 0.57352 0.10085 0.30485 0.0
C1669 C 0.56972 0.10212 0.27888 0.0
C1670 C 0.60224 0.0891 0.26001 0.0
H1671 H 0.59852 0.09247 0.1838 0.0
H1672 H 0.60014 0.10377 0.20761 0.0
H1673 H 0.61506 0.07672 0.24516 0.0
H1674 H 0.59601 0.10129 0.31163 0.0
H1675 H 0.60579 0.10256 0.28716 0.0
H1676 H 0.57544 0.11275 0.25052 0.0
C1677 C 0.60101 0.09208 0.20684 0.0
C1678 C 0.60649 0.08468 0.24618 0.0
C1679 C 0.60018 0.08563 0.19321 0.0
C1680 C 0.58854 0.10177 0.30257 0.0
C1681 C 0.59414 0.10239 0.28857 0.0
C1682 C 0.58418 0.10497 0.24949 0.0
C1683 C 0.60193 0.08349 0.21937 0.0
C1684 C 0.59929 0.08997 0.23386 0.0
C1685 C 0.58483 0.10181 0.27654 0.0
C1686 C 0.59077 0.099 0.26184 0.0
H1687 H 0.60316 0.0502 0.20333 0.0
H1688 H 0.60421 0.0614 0.22726 0.0
H1689 H 0.58245 0.10469 0.22643 0.0
H1690 H 0.55249 0.10098 0.29448 0.0
H1691 H 0.56222 0.1016 0.26986 0.0
C1692 C 0.91388 0.60234 0.19536 0.0
C1693 C 0.9289 0.60233 0.19279 0.0
C1694 C 0.90853 0.60131 0.20945 0.0
C1695 C 0.91926 0.58287 0.24184 0.0
H1696 H 0.88531 0.6003 0.25953 0.0
C1697 C 0.89483 0.55748 0.29219 0.0
C1698 C 0.89509 0.56722 0.30385 0.0
C1699 C 0.89563 0.5627 0.27798 0.0
C1700 C 0.89474 0.5953 0.25462 0.0
H1701 H 0.95009 0.60279 0.20289 0.0
H1702 H 0.94071 0.60087 0.22765 0.0
H1703 H 0.89499 0.61032 0.23683 0.0
H1704 H 0.89458 0.58991 0.30997 0.0
H1705 H 0.89573 0.59899 0.28521 0.0
H1706 H 0.91908 0.56785 0.25944 0.0
C1707 C 0.93311 0.6016 0.21872 0.0
C1708 C 0.90031 0.60107 0.24174 0.0
C1709 C 0.93847 0.60281 0.2046 0.0
C1710 C 0.89446 0.58219 0.30111 0.0
C1711 C 0.89507 0.5874 0.28694 0.0
C1712 C 0.91361 0.57702 0.25454 0.0
C1713 C 0.91813 0.6001 0.22116 0.0
C1714 C 0.91269 0.59495 0.23532 0.0
C1715 C 0.8965 0.5777 0.27533 0.0
C1716 C 0.90132 0.58317 0.26107 0.0
H1717 H 0.90628 0.60207 0.1864 0.0
H1718 H 0.89695 0.60019 0.21103 0.0
H1719 H 0.92864 0.57776 0.23696 0.0
H1720 H 0.89536 0.54589 0.29405 0.0
H1721 H 0.89656 0.55502 0.26914 0.0
C1722 C 0.43687 0.89942 0.29599 0.0
C1723 C 0.42725 0.90025 0.30773 0.0
C1724 C 0.43157 0.90037 0.28182 0.0
C1725 C 0.3987 0.90004 0.25886 0.0
H1726 H 0.41764 0.93208 0.23928 0.0
C1727 C 0.39164 0.91608 0.19878 0.0
C1728 C 0.39233 0.93089 0.1953 0.0
C1729 C 0.39271 0.91155 0.21314 0.0
C1730 C 0.41214 0.92323 0.2447 0.0
H1731 H 0.40462 0.90108 0.31403 0.0
H1732 H 0.3954 0.90248 0.28933 0.0
H1733 H 0.42733 0.92324 0.26218 0.0
H1734 H 0.39321 0.95266 0.20407 0.0
H1735 H 0.39519 0.9447 0.22933 0.0
H1736 H 0.38352 0.90008 0.24123 0.0
C1737 C 0.40697 0.90126 0.29099 0.0
C1738 C 0.41785 0.91799 0.25765 0.0
C1739 C 0.41225 0.90052 0.30511 0.0
C1740 C 0.39263 0.94118 0.20649 0.0
C1741 C 0.39389 0.93663 0.22089 0.0
C1742 C 0.39306 0.9052 0.24576 0.0
C1743 C 0.41661 0.90193 0.27927 0.0
C1744 C 0.4112 0.90637 0.26486 0.0
C1745 C 0.39466 0.92177 0.22423 0.0
C1746 C 0.3997 0.91691 0.23863 0.0
H1747 H 0.44847 0.89925 0.29777 0.0
H1748 H 0.4392 0.90071 0.2729 0.0
H1749 H 0.39333 0.89112 0.26428 0.0
H1750 H 0.39133 0.90795 0.1903 0.0
H1751 H 0.39328 0.90004 0.21541 0.0
C1752 C 0.10088 0.56571 0.70375 0.0
C1753 C 0.09894 0.57476 0.6917 0.0
C1754 C 0.10128 0.57165 0.7177 0.0
C1755 C 0.08621 0.60318 0.73645 0.0
H1756 H 0.10537 0.58602 0.76963 0.0
C1757 C 0.06195 0.60161 0.79366 0.0
C1758 C 0.07142 0.60037 0.80548 0.0
C1759 C 0.06753 0.603 0.77963 0.0
C1760 C 0.10013 0.59121 0.76049 0.0
H1761 H 0.09752 0.5971 0.6845 0.0
H1762 H 0.09864 0.60745 0.70874 0.0
H1763 H 0.11292 0.57919 0.74533 0.0
H1764 H 0.09386 0.60138 0.81233 0.0
H1765 H 0.10356 0.60436 0.78795 0.0
H1766 H 0.07323 0.615 0.75163 0.0
C1767 C 0.09935 0.59579 0.70754 0.0
C1768 C 0.10436 0.58713 0.74656 0.0
C1769 C 0.0988 0.58987 0.69367 0.0
C1770 C 0.08637 0.60214 0.8033 0.0
C1771 C 0.09192 0.60373 0.78936 0.0
C1772 C 0.08201 0.6073 0.75039 0.0
C1773 C 0.09988 0.58673 0.71974 0.0
C1774 C 0.09716 0.59274 0.7344 0.0
C1775 C 0.08263 0.60333 0.77731 0.0
C1776 C 0.08864 0.60105 0.76257 0.0
H1777 H 0.10097 0.55403 0.70251 0.0
H1778 H 0.10163 0.56434 0.72688 0.0
H1779 H 0.08032 0.60762 0.72732 0.0
H1780 H 0.05038 0.6002 0.79511 0.0
H1781 H 0.06006 0.60261 0.77058 0.0
C1782 C 0.42003 0.09582 0.69522 0.0
C1783 C 0.43483 0.09502 0.69174 0.0
C1784 C 0.41554 0.09564 0.70964 0.0
C1785 C 0.42691 0.07848 0.74251 0.0
H1786 H 0.39524 0.0994 0.76064 0.0
C1787 C 0.40073 0.05715 0.79427 0.0
C1788 C 0.40166 0.06713 0.80571 0.0
C1789 C 0.40251 0.06184 0.77997 0.0
C1790 C 0.40405 0.09347 0.75564 0.0
H1791 H 0.45662 0.09458 0.70047 0.0
H1792 H 0.44873 0.09404 0.72586 0.0
H1793 H 0.40454 0.10741 0.73702 0.0
H1794 H 0.4036 0.0899 0.81123 0.0
H1795 H 0.4064 0.09809 0.78625 0.0
H1796 H 0.42636 0.06443 0.76093 0.0
C1797 C 0.44064 0.09484 0.71738 0.0
C1798 C 0.40939 0.09807 0.74222 0.0
C1799 C 0.44515 0.09526 0.70291 0.0
C1800 C 0.40294 0.08198 0.80257 0.0
C1801 C 0.4045 0.08668 0.78829 0.0
C1802 C 0.42145 0.07377 0.75577 0.0
C1803 C 0.42578 0.09443 0.7208 0.0
C1804 C 0.4209 0.09062 0.73557 0.0
C1805 C 0.40499 0.07658 0.77695 0.0
C1806 C 0.40995 0.08118 0.76244 0.0
H1807 H 0.41188 0.09571 0.68676 0.0
H1808 H 0.40404 0.09529 0.71197 0.0
H1809 H 0.43561 0.07239 0.73749 0.0
H1810 H 0.39979 0.04564 0.79641 0.0
H1811 H 0.40269 0.05387 0.77133 0.0
C1812 C 0.90891 0.39068 0.802 0.0
C1813 C 0.92405 0.39124 0.80346 0.0
C1814 C 0.90258 0.38983 0.78831 0.0
C1815 C 0.89346 0.403 0.76 0.0
H1816 H 0.91202 0.38758 0.72567 0.0
C1817 C 0.8926 0.4319 0.70512 0.0
C1818 C 0.89493 0.42378 0.6925 0.0
C1819 C 0.89188 0.42493 0.71857 0.0
C1820 C 0.90641 0.39175 0.7351 0.0
H1821 H 0.94449 0.39016 0.79201 0.0
H1822 H 0.9335 0.38921 0.76801 0.0
H1823 H 0.91927 0.37876 0.74936 0.0
H1824 H 0.89666 0.40209 0.68364 0.0
H1825 H 0.89475 0.3899 0.70697 0.0
H1826 H 0.88066 0.41605 0.74574 0.0
C1827 C 0.92644 0.3891 0.77738 0.0
C1828 C 0.91075 0.38681 0.74873 0.0
C1829 C 0.93279 0.38967 0.79114 0.0
C1830 C 0.89506 0.40858 0.6933 0.0
C1831 C 0.89408 0.40162 0.70667 0.0
C1832 C 0.88901 0.40782 0.74637 0.0
C1833 C 0.91126 0.38986 0.7758 0.0
C1834 C 0.90472 0.39278 0.76136 0.0
C1835 C 0.89326 0.40974 0.71953 0.0
C1836 C 0.89582 0.40267 0.73378 0.0
H1837 H 0.90196 0.39168 0.81141 0.0
H1838 H 0.89086 0.39 0.7875 0.0
H1839 H 0.88862 0.40797 0.76947 0.0
H1840 H 0.89253 0.44364 0.70475 0.0
H1841 H 0.89133 0.43157 0.72824 0.0
C1842 C 0.60327 0.93505 0.79199 0.0
C1843 C 0.60341 0.9255 0.8038 0.0
C1844 C 0.6037 0.92957 0.77784 0.0
C1845 C 0.5919 0.89659 0.75936 0.0
H1846 H 0.60634 0.91626 0.7252 0.0
C1847 C 0.56548 0.89221 0.70298 0.0
C1848 C 0.57442 0.89363 0.69076 0.0
C1849 C 0.57145 0.89311 0.71689 0.0
C1850 C 0.60243 0.91046 0.73463 0.0
H1851 H 0.6058 0.90308 0.81038 0.0
H1852 H 0.60709 0.89358 0.78578 0.0
H1853 H 0.61426 0.92421 0.74911 0.0
H1854 H 0.59666 0.89557 0.68338 0.0
H1855 H 0.60707 0.89679 0.70758 0.0
H1856 H 0.57989 0.88299 0.7449 0.0
C1857 C 0.60613 0.90519 0.78732 0.0
C1858 C 0.60686 0.91513 0.74832 0.0
C1859 C 0.60551 0.91063 0.80138 0.0
C1860 C 0.5895 0.89469 0.69265 0.0
C1861 C 0.59546 0.89546 0.70649 0.0
C1862 C 0.58748 0.89192 0.74568 0.0
C1863 C 0.60442 0.91451 0.77541 0.0
C1864 C 0.60142 0.90844 0.76084 0.0
C1865 C 0.58645 0.89532 0.71874 0.0
C1866 C 0.59245 0.89899 0.73318 0.0
H1867 H 0.60156 0.94656 0.79363 0.0
H1868 H 0.60233 0.93704 0.76889 0.0
H1869 H 0.58732 0.89132 0.7688 0.0
H1870 H 0.55382 0.89142 0.7018 0.0
H1871 H 0.56421 0.89302 0.72613 0.0
C1872 C 0.19334 0.08769 0.39743 0.0
C1873 C 0.19165 0.07257 0.39792 0.0
C1874 C 0.20707 0.0938 0.39608 0.0
C1875 C 0.23612 0.1023 0.40797 0.0
H1876 H 0.26927 0.08397 0.38989 0.0
C1877 C 0.29299 0.10245 0.43279 0.0
C1878 C 0.30495 0.10046 0.42365 0.0
C1879 C 0.27905 0.10333 0.4269 0.0
C1880 C 0.26015 0.0895 0.3948 0.0
H1881 H 0.20268 0.05194 0.39622 0.0
H1882 H 0.22683 0.06256 0.39432 0.0
H1883 H 0.24499 0.07684 0.38265 0.0
H1884 H 0.31212 0.09954 0.40129 0.0
H1885 H 0.28791 0.10168 0.391 0.0
H1886 H 0.25128 0.11485 0.42023 0.0
C1887 C 0.21756 0.06976 0.3947 0.0
C1888 C 0.24621 0.08524 0.39076 0.0
C1889 C 0.20375 0.06363 0.39581 0.0
C1890 C 0.30299 0.10087 0.40856 0.0
C1891 C 0.28913 0.10199 0.40268 0.0
C1892 C 0.25006 0.10665 0.41192 0.0
C1893 C 0.21941 0.08491 0.39547 0.0
C1894 C 0.23405 0.09123 0.39766 0.0
C1895 C 0.27694 0.10244 0.41178 0.0
C1896 C 0.26224 0.09994 0.40575 0.0
H1897 H 0.1841 0.0948 0.39884 0.0
H1898 H 0.20808 0.1055 0.39629 0.0
H1899 H 0.22702 0.10708 0.41363 0.0
H1900 H 0.29426 0.1021 0.44446 0.0
H1901 H 0.26991 0.1036 0.43426 0.0
C1902 C 0.90911 0.19594 0.39078 0.0
C1903 C 0.92422 0.19456 0.39204 0.0
C1904 C 0.90272 0.20958 0.38985 0.0
C1905 C 0.91045 0.24919 0.38757 0.0
H1906 H 0.87989 0.2515 0.4164 0.0
C1907 C 0.89315 0.30416 0.4091 0.0
C1908 C 0.89349 0.30497 0.42431 0.0
C1909 C 0.89232 0.29077 0.40216 0.0
C1910 C 0.88833 0.25104 0.40826 0.0
H1911 H 0.94461 0.20612 0.39205 0.0
H1912 H 0.93349 0.23011 0.39085 0.0
H1913 H 0.88837 0.22793 0.40827 0.0
H1914 H 0.89189 0.29264 0.44421 0.0
H1915 H 0.8908 0.26915 0.43214 0.0
H1916 H 0.91119 0.27229 0.38841 0.0
C1917 C 0.92653 0.22067 0.39031 0.0
C1918 C 0.8931 0.23752 0.40343 0.0
C1919 C 0.93294 0.20695 0.39101 0.0
C1920 C 0.8916 0.29229 0.43247 0.0
C1921 C 0.89096 0.27884 0.42552 0.0
C1922 C 0.90573 0.26271 0.39245 0.0
C1923 C 0.91131 0.22213 0.39044 0.0
C1924 C 0.90454 0.23643 0.39337 0.0
C1925 C 0.89203 0.27792 0.4103 0.0
C1926 C 0.89495 0.26377 0.40321 0.0
H1927 H 0.90218 0.18647 0.39138 0.0
H1928 H 0.89101 0.21032 0.38955 0.0
H1929 H 0.91913 0.24873 0.37968 0.0
H1930 H 0.89438 0.31384 0.40257 0.0
H1931 H 0.89277 0.29045 0.39043 0.0
C1932 C 0.80265 0.90871 0.3955 0.0
C1933 C 0.80526 0.92368 0.3965 0.0
C1934 C 0.78852 0.90347 0.39457 0.0
C1935 C 0.74978 0.91439 0.39158 0.0
H1936 H 0.74455 0.88485 0.42109 0.0
C1937 C 0.69318 0.9012 0.41187 0.0
C1938 C 0.69186 0.90163 0.42704 0.0
C1939 C 0.70672 0.89963 0.40541 0.0
C1940 C 0.74582 0.89304 0.41277 0.0
H1941 H 0.79541 0.94497 0.39599 0.0
H1942 H 0.77062 0.93585 0.39477 0.0
H1943 H 0.76886 0.89122 0.4132 0.0
H1944 H 0.70337 0.89959 0.44738 0.0
H1945 H 0.72722 0.89727 0.43612 0.0
H1946 H 0.72681 0.91699 0.39196 0.0
C1947 C 0.77945 0.92812 0.39447 0.0
C1948 C 0.75975 0.89658 0.40808 0.0
C1949 C 0.79365 0.93338 0.39519 0.0
C1950 C 0.70414 0.89926 0.43566 0.0
C1951 C 0.71778 0.8979 0.42918 0.0
C1952 C 0.73585 0.91091 0.39633 0.0
C1953 C 0.77674 0.91309 0.39487 0.0
C1954 C 0.76191 0.90761 0.39775 0.0
C1955 C 0.71925 0.8987 0.41399 0.0
C1956 C 0.73375 0.9005 0.40729 0.0
H1957 H 0.81149 0.90102 0.39629 0.0
H1958 H 0.78681 0.89185 0.39449 0.0
H1959 H 0.75107 0.92281 0.38349 0.0
H1960 H 0.68379 0.90279 0.40499 0.0
H1961 H 0.70745 0.8999 0.39369 0.0
C1962 C 0.0622 0.79198 0.39093 0.0
C1963 C 0.07165 0.80382 0.39223 0.0
C1964 C 0.06766 0.77787 0.39158 0.0
C1965 C 0.10013 0.75468 0.39139 0.0
H1966 H 0.08216 0.73681 0.42497 0.0
C1967 C 0.1043 0.69486 0.41018 0.0
C1968 C 0.10467 0.69241 0.42522 0.0
C1969 C 0.10413 0.70896 0.40474 0.0
C1970 C 0.08738 0.74175 0.41567 0.0
H1971 H 0.09418 0.81038 0.39342 0.0
H1972 H 0.10371 0.78572 0.39423 0.0
H1973 H 0.07257 0.75955 0.4156 0.0
H1974 H 0.10675 0.7026 0.44628 0.0
H1975 H 0.10622 0.72735 0.43675 0.0
H1976 H 0.1148 0.73657 0.39141 0.0
C1977 C 0.09215 0.7873 0.3929 0.0
C1978 C 0.08173 0.75459 0.41015 0.0
C1979 C 0.08669 0.80138 0.3925 0.0
C1980 C 0.10647 0.70421 0.43465 0.0
C1981 C 0.10607 0.71834 0.42922 0.0
C1982 C 0.10564 0.7416 0.39677 0.0
C1983 C 0.08262 0.77547 0.39326 0.0
C1984 C 0.08803 0.76118 0.39798 0.0
C1985 C 0.10413 0.72079 0.41429 0.0
C1986 C 0.09936 0.73512 0.40904 0.0
H1987 H 0.05057 0.7936 0.39075 0.0
H1988 H 0.06014 0.76885 0.39174 0.0
H1989 H 0.10523 0.75967 0.38207 0.0
H1990 H 0.10301 0.6859 0.40269 0.0
H1991 H 0.10262 0.71058 0.39321 0.0
C1992 C 0.30498 0.89718 0.59328 0.0
C1993 C 0.30628 0.89734 0.57811 0.0
C1994 C 0.2914 0.89616 0.59978 0.0
C1995 C 0.25204 0.89106 0.5925 0.0
H1996 H 0.24805 0.92174 0.62104 0.0
C1997 C 0.20623 0.93427 0.60846 0.0
C1998 C 0.19415 0.92517 0.60712 0.0
C1999 C 0.22011 0.92827 0.60959 0.0
C2000 C 0.24898 0.91307 0.61316 0.0
H2001 H 0.29469 0.89535 0.55781 0.0
H2002 H 0.2708 0.89397 0.56912 0.0
H2003 H 0.27205 0.91455 0.6129 0.0
H2004 H 0.18669 0.9029 0.60772 0.0
H2005 H 0.2108 0.89246 0.61026 0.0
H2006 H 0.22895 0.89036 0.59192 0.0
C2007 C 0.28026 0.89439 0.57605 0.0
C2008 C 0.26275 0.9088 0.60861 0.0
C2009 C 0.29393 0.8952 0.56953 0.0
C2010 C 0.19592 0.91012 0.60853 0.0
C2011 C 0.20972 0.90414 0.60988 0.0
C2012 C 0.23826 0.89538 0.597 0.0
C2013 C 0.27884 0.89552 0.59123 0.0
C2014 C 0.26442 0.89806 0.59788 0.0
C2015 C 0.22201 0.91311 0.60958 0.0
C2016 C 0.23657 0.90676 0.60704 0.0
H2017 H 0.31442 0.89862 0.60012 0.0
H2018 H 0.2907 0.89666 0.61149 0.0
H2019 H 0.25296 0.88263 0.58438 0.0
H2020 H 0.20511 0.94591 0.60734 0.0
H2021 H 0.22934 0.9355 0.60928 0.0
C2022 C 0.08794 0.19502 0.60006 0.0
C2023 C 0.07281 0.19353 0.59934 0.0
C2024 C 0.09424 0.2087 0.60115 0.0
C2025 C 0.0863 0.24803 0.60555 0.0
H2026 H 0.11623 0.25207 0.57625 0.0
C2027 C 0.10464 0.29394 0.56317 0.0
C2028 C 0.1029 0.30604 0.5722 0.0
C2029 C 0.10527 0.28004 0.56919 0.0
C2030 C 0.10795 0.25113 0.58452 0.0
H2031 H 0.05233 0.20489 0.60037 0.0
H2032 H 0.06328 0.22894 0.60187 0.0
H2033 H 0.10791 0.22805 0.58315 0.0
H2034 H 0.10223 0.31344 0.5945 0.0
H2035 H 0.10391 0.28928 0.60501 0.0
H2036 H 0.08555 0.27113 0.60612 0.0
C2037 C 0.07033 0.21956 0.60185 0.0
C2038 C 0.10328 0.23734 0.58863 0.0
C2039 C 0.06402 0.2058 0.60097 0.0
C2040 C 0.10336 0.30421 0.58731 0.0
C2041 C 0.10422 0.29039 0.59332 0.0
C2042 C 0.09091 0.26182 0.60137 0.0
C2043 C 0.08552 0.22117 0.60129 0.0
C2044 C 0.0921 0.23565 0.59888 0.0
C2045 C 0.10436 0.27811 0.58432 0.0
C2046 C 0.10148 0.26353 0.59049 0.0
H2047 H 0.09495 0.18564 0.59902 0.0
H2048 H 0.10595 0.20954 0.6011 0.0
H2049 H 0.07781 0.2471 0.6136 0.0
H2050 H 0.10424 0.2951 0.55149 0.0
H2051 H 0.10532 0.27082 0.56192 0.0
C2052 C 0.80578 0.0868 0.6046 0.0
C2053 C 0.80642 0.07159 0.60444 0.0
C2054 C 0.79248 0.09388 0.60558 0.0
C2055 C 0.75266 0.08812 0.60986 0.0
H2056 H 0.75058 0.11711 0.57944 0.0
C2057 C 0.70853 0.10768 0.5658 0.0
C2058 C 0.69614 0.10699 0.57456 0.0
C2059 C 0.7223 0.10746 0.57212 0.0
C2060 C 0.75097 0.10909 0.588 0.0
H2061 H 0.79396 0.05183 0.60641 0.0
H2062 H 0.77059 0.06413 0.60766 0.0
H2063 H 0.77403 0.10797 0.58712 0.0
H2064 H 0.68825 0.10718 0.5967 0.0
H2065 H 0.71222 0.10735 0.60774 0.0
H2066 H 0.72954 0.0884 0.60992 0.0
C2067 C 0.78033 0.07067 0.60731 0.0
C2068 C 0.76444 0.10397 0.59258 0.0
C2069 C 0.79371 0.06357 0.60659 0.0
C2070 C 0.69768 0.10749 0.58971 0.0
C2071 C 0.7114 0.10749 0.59602 0.0
C2072 C 0.73917 0.09316 0.60519 0.0
C2073 C 0.77954 0.08588 0.6061 0.0
C2074 C 0.76543 0.0931 0.60326 0.0
C2075 C 0.72386 0.10675 0.58731 0.0
C2076 C 0.73816 0.10338 0.59389 0.0
H2077 H 0.81551 0.09321 0.60313 0.0
H2078 H 0.79229 0.10561 0.60505 0.0
H2079 H 0.75304 0.07991 0.61823 0.0
H2080 H 0.7076 0.10724 0.55409 0.0
H2081 H 0.73166 0.10681 0.56507 0.0
C2082 C 0.89597 0.70176 0.56238 0.0
C2083 C 0.89764 0.69019 0.57208 0.0
C2084 C 0.89523 0.71597 0.56762 0.0
C2085 C 0.90912 0.73604 0.59889 0.0
H2086 H 0.89128 0.76861 0.57932 0.0
C2087 C 0.93381 0.79319 0.59754 0.0
C2088 C 0.92447 0.80504 0.59583 0.0
C2089 C 0.92814 0.77915 0.59835 0.0
C2090 C 0.89615 0.75966 0.58515 0.0
H2091 H 0.89814 0.68403 0.59475 0.0
H2092 H 0.8963 0.70872 0.60391 0.0
H2093 H 0.88372 0.74411 0.57324 0.0
H2094 H 0.90198 0.81187 0.59523 0.0
H2095 H 0.8921 0.78748 0.59714 0.0
H2096 H 0.92168 0.75158 0.61066 0.0
C2097 C 0.8961 0.70697 0.59229 0.0
C2098 C 0.89192 0.7456 0.58151 0.0
C2099 C 0.89705 0.69284 0.58706 0.0
C2100 C 0.90941 0.80283 0.59632 0.0
C2101 C 0.90376 0.78888 0.59732 0.0
C2102 C 0.9133 0.7501 0.60257 0.0
C2103 C 0.89598 0.71873 0.58264 0.0
C2104 C 0.89863 0.73363 0.58806 0.0
C2105 C 0.91305 0.77684 0.59764 0.0
C2106 C 0.90715 0.76205 0.59546 0.0
H2107 H 0.89647 0.69996 0.55078 0.0
H2108 H 0.89519 0.72479 0.55988 0.0
H2109 H 0.91466 0.72706 0.60404 0.0
H2110 H 0.94545 0.79464 0.59715 0.0
H2111 H 0.93561 0.77009 0.59853 0.0
C2112 C 0.38927 0.19573 0.08606 0.0
C2113 C 0.39181 0.19504 0.07107 0.0
C2114 C 0.3877 0.20907 0.09295 0.0
C2115 C 0.38584 0.24895 0.08693 0.0
H2116 H 0.41287 0.24988 0.11918 0.0
C2117 C 0.407 0.30299 0.10649 0.0
C2118 C 0.42221 0.30352 0.10637 0.0
C2119 C 0.39982 0.28973 0.10719 0.0
C2120 C 0.40519 0.2498 0.11029 0.0
H2121 H 0.39341 0.20748 0.05126 0.0
H2122 H 0.39105 0.23095 0.06331 0.0
H2123 H 0.40515 0.22671 0.1093 0.0
H2124 H 0.44187 0.2909 0.1084 0.0
H2125 H 0.4294 0.26761 0.10928 0.0
H2126 H 0.38678 0.27205 0.08718 0.0
C2127 C 0.39002 0.22121 0.06977 0.0
C2128 C 0.40061 0.23651 0.10471 0.0
C2129 C 0.39138 0.20779 0.06283 0.0
C2130 C 0.43013 0.29074 0.10853 0.0
C2131 C 0.42294 0.27741 0.10904 0.0
C2132 C 0.39045 0.26224 0.09249 0.0
C2133 C 0.3889 0.22198 0.085 0.0
C2134 C 0.39129 0.23594 0.09263 0.0
C2135 C 0.40775 0.27675 0.10754 0.0
C2136 C 0.40059 0.26281 0.10389 0.0
H2137 H 0.38941 0.18596 0.0926 0.0
H2138 H 0.38647 0.20929 0.10463 0.0
H2139 H 0.37852 0.24887 0.07775 0.0
H2140 H 0.40066 0.31278 0.10501 0.0
H2141 H 0.3881 0.28959 0.10641 0.0
C2142 C 0.43594 0.70543 0.89082 0.0
C2143 C 0.4263 0.69384 0.89276 0.0
C2144 C 0.43086 0.71969 0.8916 0.0
C2145 C 0.39873 0.74343 0.89317 0.0
H2146 H 0.41929 0.76163 0.92505 0.0
C2147 C 0.39465 0.80334 0.91164 0.0
C2148 C 0.39513 0.806 0.92664 0.0
C2149 C 0.39519 0.78919 0.90636 0.0
C2150 C 0.41337 0.75661 0.91623 0.0
H2151 H 0.40372 0.68784 0.89522 0.0
H2152 H 0.39483 0.71271 0.89627 0.0
H2153 H 0.42803 0.73872 0.91528 0.0
H2154 H 0.39525 0.79608 0.94791 0.0
H2155 H 0.39645 0.77121 0.93864 0.0
H2156 H 0.38415 0.76157 0.89413 0.0
C2157 C 0.40627 0.71086 0.89434 0.0
C2158 C 0.41852 0.74366 0.91047 0.0
C2159 C 0.41136 0.69664 0.89379 0.0
C2160 C 0.39483 0.79428 0.93631 0.0
C2161 C 0.39562 0.78011 0.93101 0.0
C2162 C 0.3937 0.7566 0.8988 0.0
C2163 C 0.41608 0.72246 0.89408 0.0
C2164 C 0.41125 0.73693 0.89892 0.0
C2165 C 0.39645 0.77753 0.916 0.0
C2166 C 0.40093 0.76319 0.91048 0.0
H2167 H 0.44751 0.70353 0.89006 0.0
H2168 H 0.43859 0.72852 0.89125 0.0
H2169 H 0.39289 0.73835 0.88434 0.0
H2170 H 0.39479 0.81224 0.90397 0.0
H2171 H 0.39584 0.78748 0.89475 0.0
C2172 C 0.29932 0.40963 0.89089 0.0
C2173 C 0.30058 0.42478 0.89172 0.0
C2174 C 0.28574 0.40315 0.88959 0.0
C2175 C 0.24619 0.41074 0.88589 0.0
H2176 H 0.24315 0.38209 0.91656 0.0
C2177 C 0.2024 0.39551 0.93148 0.0
C2178 C 0.18986 0.39716 0.92307 0.0
C2179 C 0.2159 0.39417 0.92471 0.0
C2180 C 0.24381 0.39 0.9079 0.0
H2181 H 0.28895 0.44511 0.89037 0.0
H2182 H 0.26513 0.43386 0.88847 0.0
H2183 H 0.26691 0.38976 0.90821 0.0
H2184 H 0.18119 0.39698 0.90123 0.0
H2185 H 0.20463 0.39407 0.88945 0.0
H2186 H 0.22311 0.41185 0.8864 0.0
C2187 C 0.27459 0.42691 0.8886 0.0
C2188 C 0.25744 0.39427 0.90295 0.0
C2189 C 0.28824 0.4334 0.8897 0.0
C2190 C 0.19079 0.39592 0.90792 0.0
C2191 C 0.2042 0.39435 0.90118 0.0
C2192 C 0.23256 0.40652 0.89089 0.0
C2193 C 0.27316 0.41172 0.88934 0.0
C2194 C 0.2588 0.40508 0.89224 0.0
C2195 C 0.21698 0.39427 0.90945 0.0
C2196 C 0.23123 0.39647 0.90232 0.0
H2197 H 0.30876 0.40276 0.89224 0.0
H2198 H 0.28503 0.39143 0.88977 0.0
H2199 H 0.24686 0.41894 0.87751 0.0
H2200 H 0.20192 0.3965 0.94317 0.0
H2201 H 0.22553 0.3942 0.93142 0.0
C2202 C 0.58421 0.30341 0.898 0.0
C2203 C 0.56917 0.30581 0.89835 0.0
C2204 C 0.58973 0.28938 0.8988 0.0
C2205 C 0.5798 0.25669 0.91714 0.0
H2206 H 0.61352 0.23956 0.89873 0.0
C2207 C 0.60484 0.2061 0.94121 0.0
C2208 C 0.60435 0.19462 0.93126 0.0
C2209 C 0.60405 0.2204 0.93626 0.0
C2210 C 0.60417 0.24432 0.90401 0.0
H2211 H 0.54808 0.29551 0.89831 0.0
H2212 H 0.55778 0.27083 0.89981 0.0
H2213 H 0.60337 0.26227 0.88921 0.0
H2214 H 0.60458 0.18892 0.90846 0.0
H2215 H 0.60344 0.21384 0.89984 0.0
H2216 H 0.58051 0.2389 0.93193 0.0
C2217 C 0.56525 0.27985 0.89899 0.0
C2218 C 0.59833 0.2572 0.89853 0.0
C2219 C 0.55971 0.29392 0.89801 0.0
C2220 C 0.60487 0.19763 0.91634 0.0
C2221 C 0.60426 0.21189 0.9114 0.0
C2222 C 0.58572 0.24398 0.92271 0.0
C2223 C 0.58029 0.27755 0.90012 0.0
C2224 C 0.58602 0.26341 0.90499 0.0
C2225 C 0.60296 0.22333 0.92133 0.0
C2226 C 0.59793 0.23765 0.9162 0.0
H2227 H 0.59171 0.31245 0.89818 0.0
H2228 H 0.60136 0.28792 0.89965 0.0
H2229 H 0.57049 0.26141 0.92253 0.0
H2230 H 0.60441 0.20404 0.95277 0.0
H2231 H 0.60325 0.2291 0.94412 0.0
C2232 C 0.80054 0.60441 0.91283 0.0
C2233 C 0.8035 0.60407 0.92777 0.0
C2234 C 0.78631 0.60355 0.90783 0.0
C2235 C 0.75405 0.58512 0.91888 0.0
H2236 H 0.7355 0.60398 0.88617 0.0
C2237 C 0.70228 0.56162 0.89553 0.0
C2238 C 0.69088 0.57162 0.89659 0.0
C2239 C 0.71662 0.56648 0.89596 0.0
C2240 C 0.74066 0.59858 0.89524 0.0
H2241 H 0.79398 0.60402 0.94924 0.0
H2242 H 0.76898 0.60237 0.94047 0.0
H2243 H 0.75867 0.61331 0.8954 0.0
H2244 H 0.6853 0.59444 0.89713 0.0
H2245 H 0.71029 0.6029 0.89763 0.0
H2246 H 0.73619 0.5704 0.9188 0.0
C2247 C 0.77771 0.60325 0.93266 0.0
C2248 C 0.7538 0.60395 0.90056 0.0
C2249 C 0.79196 0.60431 0.93767 0.0
C2250 C 0.69396 0.58653 0.89641 0.0
C2251 C 0.70825 0.59138 0.89663 0.0
C2252 C 0.74107 0.57966 0.91347 0.0
C2253 C 0.77486 0.60216 0.91771 0.0
C2254 C 0.76052 0.59733 0.91252 0.0
C2255 C 0.71967 0.58137 0.89723 0.0
C2256 C 0.73422 0.58635 0.90165 0.0
H2257 H 0.80928 0.60434 0.90499 0.0
H2258 H 0.78441 0.60273 0.89627 0.0
H2259 H 0.75915 0.57963 0.92792 0.0
H2260 H 0.70014 0.55007 0.89569 0.0
H2261 H 0.7253 0.55857 0.89625 0.0
C2262 C 0.60067 0.79609 0.06396 0.0
C2263 C 0.59784 0.80808 0.07287 0.0
C2264 C 0.60089 0.78214 0.06985 0.0
C2265 C 0.58447 0.76276 0.10046 0.0
H2266 H 0.60508 0.73022 0.08376 0.0
C2267 C 0.56152 0.70498 0.09859 0.0
C2268 C 0.57121 0.69332 0.09763 0.0
C2269 C 0.56681 0.71914 0.09972 0.0
C2270 C 0.59942 0.73917 0.08882 0.0
H2271 H 0.59458 0.81514 0.09507 0.0
H2272 H 0.59545 0.79087 0.1054 0.0
H2273 H 0.61243 0.75474 0.07762 0.0
H2274 H 0.5938 0.68697 0.09873 0.0
H2275 H 0.603 0.71157 0.1013 0.0
H2276 H 0.5714 0.74717 0.11159 0.0
C2277 C 0.59696 0.79213 0.09382 0.0
C2278 C 0.60352 0.75324 0.08512 0.0
C2279 C 0.59655 0.80603 0.08791 0.0
C2280 C 0.58613 0.69586 0.09923 0.0
C2281 C 0.59139 0.70994 0.1006 0.0
C2282 C 0.58043 0.74868 0.10425 0.0
C2283 C 0.59847 0.77998 0.08478 0.0
C2284 C 0.59581 0.76519 0.09053 0.0
C2285 C 0.58185 0.72179 0.10011 0.0
C2286 C 0.58757 0.73671 0.09813 0.0
H2287 H 0.60167 0.79738 0.05233 0.0
H2288 H 0.60199 0.77302 0.06254 0.0
H2289 H 0.57818 0.77169 0.10475 0.0
H2290 H 0.54997 0.70327 0.09732 0.0
H2291 H 0.55914 0.72802 0.09923 0.0
C2292 C 0.29116 0.56435 0.10952 0.0
C2293 C 0.30383 0.57252 0.1077 0.0
C2294 C 0.27778 0.57136 0.11081 0.0
C2295 C 0.26228 0.60481 0.09671 0.0
H2296 H 0.22691 0.58843 0.11225 0.0
C2297 C 0.19577 0.60589 0.09012 0.0
C2298 C 0.19513 0.60465 0.07496 0.0
C2299 C 0.20909 0.60687 0.09717 0.0
C2300 C 0.23666 0.59343 0.10804 0.0
H2301 H 0.31291 0.59417 0.10785 0.0
H2302 H 0.28966 0.6064 0.11067 0.0
H2303 H 0.25016 0.58035 0.12165 0.0
H2304 H 0.20765 0.6047 0.05514 0.0
H2305 H 0.23107 0.60603 0.06743 0.0
H2306 H 0.24879 0.6176 0.08282 0.0
C2307 C 0.2899 0.59466 0.11056 0.0
C2308 C 0.25 0.58865 0.11335 0.0
C2309 C 0.3032 0.58767 0.10907 0.0
C2310 C 0.20791 0.60572 0.06684 0.0
C2311 C 0.2213 0.60649 0.07391 0.0
C2312 C 0.24895 0.60962 0.09144 0.0
C2313 C 0.27698 0.58662 0.11046 0.0
C2314 C 0.26296 0.59388 0.10736 0.0
C2315 C 0.22203 0.60638 0.08919 0.0
C2316 C 0.236 0.60359 0.09666 0.0
H2317 H 0.29139 0.55266 0.10842 0.0
H2318 H 0.26805 0.56481 0.11069 0.0
H2319 H 0.27204 0.60899 0.09172 0.0
H2320 H 0.18599 0.60526 0.0966 0.0
H2321 H 0.20926 0.60715 0.10891 0.0
C2322 C 0.79165 0.39524 0.06055 0.0
C2323 C 0.80389 0.39681 0.0694 0.0
C2324 C 0.7779 0.39413 0.06683 0.0
C2325 C 0.74943 0.39013 0.08273 0.0
H2326 H 0.74539 0.4191 0.11301 0.0
C2327 C 0.69331 0.4082 0.10012 0.0
C2328 C 0.69147 0.42331 0.09975 0.0
C2329 C 0.70713 0.40219 0.10087 0.0
C2330 C 0.74634 0.41092 0.10463 0.0
H2331 H 0.81177 0.39676 0.09153 0.0
H2332 H 0.78789 0.39426 0.10248 0.0
H2333 H 0.76941 0.41225 0.10465 0.0
H2334 H 0.70237 0.44402 0.10114 0.0
H2335 H 0.72667 0.43359 0.10204 0.0
H2336 H 0.72634 0.38962 0.08195 0.0
C2337 C 0.78874 0.39443 0.09077 0.0
C2338 C 0.76012 0.40683 0.09995 0.0
C2339 C 0.8024 0.39577 0.08451 0.0
C2340 C 0.70355 0.43234 0.10146 0.0
C2341 C 0.71745 0.42632 0.10199 0.0
C2342 C 0.73565 0.39428 0.08737 0.0
C2343 C 0.77628 0.3944 0.08203 0.0
C2344 C 0.76181 0.39671 0.08864 0.0
C2345 C 0.71939 0.4112 0.10101 0.0
C2346 C 0.73395 0.40504 0.09807 0.0
H2347 H 0.79257 0.39609 0.04887 0.0
H2348 H 0.76852 0.39419 0.05977 0.0
H2349 H 0.75037 0.38218 0.07414 0.0
H2350 H 0.68408 0.40101 0.09901 0.0
H2351 H 0.70824 0.39051 0.10049 0.0
C2352 C 0.96049 0.53971 0.15607 0.0
C2353 C 0.96782 0.55306 0.15711 0.0
C2354 C 0.96797 0.52663 0.15729 0.0
C2355 C 0.00448 0.5106 0.15411 0.0
H2356 H 0.98687 0.47831 0.17453 0.0
C2357 C 0.03585 0.45793 0.16449 0.0
C2358 C 0.02866 0.44475 0.16174 0.0
C2359 C 0.02823 0.47097 0.16493 0.0
C2360 C 0.99186 0.48718 0.16868 0.0
H2361 H 0.98886 0.56303 0.16028 0.0
H2362 H 0.00198 0.54008 0.16255 0.0
H2363 H 0.97434 0.5016 0.17351 0.0
H2364 H 0.00768 0.43494 0.15783 0.0
H2365 H 0.99427 0.45789 0.15858 0.0
H2366 H 0.02198 0.49619 0.14926 0.0
C2367 C 0.9904 0.53981 0.16063 0.0
C2368 C 0.9847 0.50054 0.16809 0.0
C2369 C 0.98288 0.55296 0.15938 0.0
C2370 C 0.01352 0.44489 0.16 0.0
C2371 C 0.00586 0.45803 0.16045 0.0
C2372 C 0.01165 0.49726 0.15473 0.0
C2373 C 0.98301 0.52647 0.15962 0.0
C2374 C 0.99089 0.51241 0.16074 0.0
C2375 C 0.0132 0.47125 0.16262 0.0
C2376 C 0.00543 0.48538 0.16201 0.0
H2377 H 0.9489 0.53931 0.15424 0.0
H2378 H 0.96196 0.5166 0.15617 0.0
H2379 H 0.00945 0.5194 0.14814 0.0
H2380 H 0.04748 0.45827 0.16606 0.0
H2381 H 0.03417 0.4809 0.16696 0.0
C2382 C 0.53762 0.03251 0.16319 0.0
C2383 C 0.55117 0.02575 0.16126 0.0
C2384 C 0.52489 0.02439 0.16363 0.0
C2385 C 0.5095 0.98952 0.15183 0.0
H2386 H 0.47786 0.00066 0.1772 0.0
C2387 C 0.45633 0.95659 0.15586 0.0
C2388 C 0.44321 0.96436 0.15663 0.0
C2389 C 0.46964 0.96372 0.15681 0.0
C2390 C 0.48653 0.99751 0.16994 0.0
H2391 H 0.5619 0.00501 0.15864 0.0
H2392 H 0.53953 0.99071 0.15956 0.0
H2393 H 0.50107 0.01316 0.17897 0.0
H2394 H 0.43392 0.98584 0.15891 0.0
H2395 H 0.45723 0.99833 0.16049 0.0
H2396 H 0.49492 0.97389 0.14277 0.0
C2397 C 0.53884 0.00238 0.16056 0.0
C2398 C 0.49986 0.00464 0.17098 0.0
C2399 C 0.55167 0.01056 0.16014 0.0
C2400 C 0.44378 0.97951 0.15829 0.0
C2401 C 0.45715 0.98665 0.15929 0.0
C2402 C 0.49617 0.98235 0.15082 0.0
C2403 C 0.52528 0.00924 0.16218 0.0
C2404 C 0.51148 0.00085 0.16183 0.0
C2405 C 0.47024 0.97883 0.15859 0.0
C2406 C 0.48448 0.98634 0.15978 0.0
H2407 H 0.53676 0.04419 0.1641 0.0
H2408 H 0.51467 0.03008 0.16467 0.0
H2409 H 0.51812 0.98646 0.14447 0.0
H2410 H 0.45635 0.94491 0.15462 0.0
H2411 H 0.47949 0.95734 0.1564 0.0
C2412 C 0.98291 0.43988 0.83519 0.0
C2413 C 0.96771 0.44086 0.83549 0.0
C2414 C 0.99142 0.45246 0.83459 0.0
C2415 C 0.98949 0.49189 0.82599 0.0
H2416 H 0.02355 0.4944 0.85045 0.0
C2417 C 0.01885 0.54619 0.83807 0.0
C2418 C 0.03409 0.54591 0.83818 0.0
C2419 C 0.01091 0.53327 0.83703 0.0
C2420 C 0.01415 0.49383 0.84344 0.0
H2421 H 0.94957 0.45592 0.83527 0.0
H2422 H 0.96431 0.47761 0.83441 0.0
H2423 H 0.00978 0.47187 0.84952 0.0
H2424 H 0.0529 0.53176 0.83706 0.0
H2425 H 0.0391 0.50942 0.83519 0.0
H2426 H 0.99376 0.51394 0.82007 0.0
C2427 C 0.96972 0.46718 0.8344 0.0
C2428 C 0.00628 0.48088 0.84287 0.0
C2429 C 0.96125 0.45468 0.83499 0.0
C2430 C 0.04117 0.53243 0.83709 0.0
C2431 C 0.03326 0.51957 0.8361 0.0
C2432 C 0.99733 0.50486 0.8266 0.0
C2433 C 0.98491 0.46628 0.83426 0.0
C2434 C 0.99379 0.47977 0.83421 0.0
C2435 C 0.01805 0.51981 0.83613 0.0
C2436 C 0.00972 0.506 0.83538 0.0
H2437 H 0.98824 0.42942 0.83558 0.0
H2438 H 0.00311 0.45137 0.83435 0.0
H2439 H 0.98005 0.49136 0.81902 0.0
H2440 H 0.01304 0.55636 0.83892 0.0
H2441 H -0.00081 0.53381 0.83721 0.0
C2442 C 0.53752 0.95303 0.8417 0.0
C2443 C 0.55099 0.96015 0.84251 0.0
C2444 C 0.52457 0.96089 0.84205 0.0
C2445 C 0.50938 0.99602 0.85367 0.0
H2446 H 0.47745 0.98572 0.82831 0.0
C2447 C 0.45951 0.03281 0.84699 0.0
C2448 C 0.44572 0.02638 0.84587 0.0
C2449 C 0.47204 0.02435 0.84679 0.0
C2450 C 0.48618 0.98861 0.83561 0.0
H2451 H 0.56135 0.98119 0.84419 0.0
H2452 H 0.53873 0.99493 0.84471 0.0
H2453 H 0.50001 0.97193 0.82724 0.0
H2454 H 0.43437 0.00591 0.84369 0.0
H2455 H 0.45637 0.99106 0.8435 0.0
H2456 H 0.4956 0.01267 0.86206 0.0
C2457 C 0.53821 0.98322 0.84396 0.0
C2458 C 0.49914 0.98073 0.83497 0.0
C2459 C 0.55118 0.97535 0.84357 0.0
C2460 C 0.4448 0.01121 0.84457 0.0
C2461 C 0.45742 0.00272 0.84438 0.0
C2462 C 0.49644 0.00387 0.85432 0.0
C2463 C 0.52474 0.97608 0.84325 0.0
C2464 C 0.51092 0.9844 0.84394 0.0
C2465 C 0.47119 0.0092 0.84551 0.0
C2466 C 0.4847 0.00035 0.84523 0.0
H2467 H 0.53693 0.94133 0.84089 0.0
H2468 H 0.51441 0.95503 0.84165 0.0
H2469 H 0.51813 -0.00104 0.86093 0.0
H2470 H 0.46069 0.04445 0.84795 0.0
H2471 H 0.48245 0.02975 0.84743 0.0
C2472 C 0.15928 0.03784 0.46287 0.0
C2473 C 0.15818 0.03139 0.44909 0.0
C2474 C 0.16004 0.02936 0.47537 0.0
C2475 C 0.16845 0.99259 0.4888 0.0
H2476 H 0.1462 0.00514 0.52221 0.0
C2477 C 0.16084 0.95697 0.53994 0.0
C2478 C 0.16099 0.96386 0.55356 0.0
C2479 C 0.16109 0.96508 0.52714 0.0
C2480 C 0.15264 0.00157 0.51306 0.0
H2481 H 0.15723 0.01084 0.43769 0.0
H2482 H 0.15847 0.99596 0.45964 0.0
H2483 H 0.14532 0.0192 0.49991 0.0
H2484 H 0.16183 0.98476 0.56432 0.0
H2485 H 0.1624 -0.00109 0.54198 0.0
H2486 H 0.17574 0.97492 0.502 0.0
C2487 C 0.15885 0.00764 0.4607 0.0
C2488 C 0.15211 0.00963 0.50024 0.0
C2489 C 0.15809 0.01617 0.44812 0.0
C2490 C 0.16164 0.97908 0.55404 0.0
C2491 C 0.16188 0.9872 0.54122 0.0
C2492 C 0.16898 0.98451 0.50165 0.0
C2493 C 0.1597 0.01416 0.47448 0.0
C2494 C 0.16005 0.00528 0.48797 0.0
C2495 C 0.16148 0.9803 0.52761 0.0
C2496 C 0.16111 0.98894 0.51396 0.0
H2497 H 0.15951 0.04952 0.46408 0.0
H2498 H 0.16097 0.03475 0.48576 0.0
H2499 H 0.17483 0.98903 0.47961 0.0
H2500 H 0.1603 0.94527 0.53912 0.0
H2501 H 0.1606 0.95941 0.51687 0.0
C2502 C 0.01784 0.15988 0.54864 0.0
C2503 C 0.03303 0.15894 0.54776 0.0
C2504 C 0.00941 0.1606 0.53603 0.0
C2505 C 0.01151 0.16908 0.49673 0.0
H2506 H 0.97615 0.14648 0.49461 0.0
C2507 C 0.97972 0.16039 0.44308 0.0
C2508 C 0.9645 0.16065 0.44392 0.0
C2509 C 0.98814 0.16073 0.45573 0.0
C2510 C 0.98591 0.153 0.49507 0.0
H2511 H 0.05124 0.15811 0.53286 0.0
H2512 H 0.03657 0.15921 0.51099 0.0
H2513 H 0.99051 0.14621 0.51677 0.0
H2514 H 0.94625 0.16182 0.45875 0.0
H2515 H 0.96088 0.16256 0.48063 0.0
H2516 H 0.00692 0.17581 0.47497 0.0
C2517 C 0.03116 0.15958 0.5214 0.0
C2518 C 0.99413 0.15285 0.5078 0.0
C2519 C 0.03957 0.15884 0.53398 0.0
C2520 C 0.95793 0.16149 0.45766 0.0
C2521 C 0.96633 0.16183 0.47025 0.0
C2522 C 0.00328 0.16923 0.48398 0.0
C2523 C 0.01598 0.16042 0.52225 0.0
C2524 C 0.00705 0.16087 0.50879 0.0
C2525 C 0.98153 0.16132 0.46947 0.0
C2526 C 0.99037 0.16119 0.48299 0.0
H2527 H 0.01243 0.16 0.55907 0.0
H2528 H 0.99775 0.16141 0.53708 0.0
H2529 H 0.0213 0.17554 0.49719 0.0
H2530 H 0.98513 0.1597 0.43268 0.0
H2531 H -0.00018 0.16019 0.45474 0.0
C2532 C 0.83796 0.00943 0.55661 0.0
C2533 C 0.83491 0.02435 0.55577 0.0
C2534 C 0.83776 0.00083 0.54405 0.0
C2535 C 0.84264 0.00448 0.50467 0.0
H2536 H 0.82539 0.96627 0.5021 0.0
C2537 C 0.83807 0.97427 0.45003 0.0
C2538 C 0.84039 0.95921 0.45007 0.0
C2539 C 0.83695 0.98193 0.4631 0.0
C2540 C 0.83043 0.97685 0.50268 0.0
H2541 H 0.82826 0.04165 0.54124 0.0
H2542 H 0.82797 0.02676 0.51958 0.0
H2543 H 0.82415 0.97972 0.52491 0.0
H2544 H 0.84344 0.94043 0.46394 0.0
H2545 H 0.84184 0.95379 0.48658 0.0
H2546 H 0.84915 0.00164 0.48262 0.0
C2547 C 0.83082 0.02175 0.52982 0.0
C2548 C 0.82968 0.98455 0.51575 0.0
C2549 C 0.83095 0.03027 0.54228 0.0
C2550 C 0.84159 0.95202 0.46347 0.0
C2551 C 0.84056 0.95967 0.4765 0.0
C2552 C 0.84348 0.99677 0.49166 0.0
C2553 C 0.83456 0.00702 0.53047 0.0
C2554 C 0.83568 0.99849 0.51684 0.0
C2555 C 0.83822 0.97473 0.47651 0.0
C2556 C 0.83731 0.98289 0.49044 0.0
H2557 H 0.84105 0.00455 0.56684 0.0
H2558 H 0.84068 0.98948 0.54487 0.0
H2559 H 0.84759 0.01511 0.50525 0.0
H2560 H 0.83703 0.98015 0.43992 0.0
H2561 H 0.83493 0.99348 0.46266 0.0
C2562 C 0.95469 0.843 0.5311 0.0
C2563 C 0.96163 0.84255 0.54469 0.0
C2564 C 0.96272 0.84247 0.51827 0.0
C2565 C -0.00046 0.84872 0.50374 0.0
H2566 H 0.98566 0.82611 0.47108 0.0
C2567 C 0.03536 0.83796 0.454 0.0
C2568 C 0.02905 0.83906 0.44014 0.0
C2569 C 0.0268 0.83814 0.46645 0.0
C2570 C 0.9896 0.83261 0.48004 0.0
H2571 H 0.98253 0.84113 0.55537 0.0
H2572 H 0.99655 0.84006 0.53294 0.0
H2573 H 0.9716 0.8268 0.49351 0.0
H2574 H 0.00867 0.84095 0.42858 0.0
H2575 H 0.99363 0.84131 0.45049 0.0
H2576 H 0.01753 0.85451 0.49032 0.0
C2577 C 0.98488 0.841 0.53224 0.0
C2578 C 0.98155 0.833 0.49291 0.0
C2579 C 0.97683 0.84154 0.54511 0.0
C2580 C 0.01387 0.84004 0.43907 0.0
C2581 C 0.00526 0.84021 0.45162 0.0
C2582 C 0.00758 0.84832 0.4909 0.0
C2583 C 0.97792 0.84146 0.51866 0.0
C2584 C 0.98645 0.84102 0.50494 0.0
C2585 C 0.01167 0.83945 0.46547 0.0
C2586 C 0.00276 0.84019 0.47892 0.0
H2587 H 0.943 0.84381 0.53033 0.0
H2588 H 0.95701 0.84306 0.50802 0.0
H2589 H 0.0035 0.85524 0.51266 0.0
H2590 H 0.04699 0.83709 0.45529 0.0
H2591 H 0.03207 0.83723 0.47691 0.0
C2592 C 0.55309 0.1598 0.98358 0.0
C2593 C 0.55278 0.15903 0.96836 0.0
C2594 C 0.54016 0.16061 0.99153 0.0
C2595 C 0.50103 0.16961 0.98783 0.0
H2596 H 0.49717 0.14711 0.0231 0.0
C2597 C 0.44595 0.16139 0.0173 0.0
C2598 C 0.44614 0.16175 0.03254 0.0
C2599 C 0.45895 0.16161 0.00941 0.0
C2600 C 0.49811 0.1536 0.01336 0.0
H2601 H 0.53854 0.15854 0.94959 0.0
H2602 H 0.51618 0.15977 0.96341 0.0
H2603 H 0.51994 0.14661 0.00974 0.0
H2604 H 0.46022 0.16295 0.05139 0.0
H2605 H 0.48268 0.16346 0.03769 0.0
H2606 H 0.47914 0.17652 0.99143 0.0
C2607 C 0.52637 0.15997 0.96923 0.0
C2608 C 0.51119 0.15332 0.0057 0.0
C2609 C 0.53925 0.15916 0.9613 0.0
C2610 C 0.45961 0.16256 0.03967 0.0
C2611 C 0.47255 0.16276 0.03181 0.0
C2612 C 0.48793 0.16987 0.99549 0.0
C2613 C 0.52664 0.16069 0.98445 0.0
C2614 C 0.51282 0.1613 0.99282 0.0
C2615 C 0.47241 0.16215 0.01659 0.0
C2616 C 0.4863 0.16186 0.00835 0.0
H2617 H 0.5633 0.15979 0.98937 0.0
H2618 H 0.54078 0.16132 0.00324 0.0
H2619 H 0.50196 0.17606 0.97807 0.0
H2620 H 0.43579 0.16072 0.01145 0.0
H2621 H 0.45846 0.161 0.99769 0.0
C2622 C 0.44386 0.84314 0.98007 0.0
C2623 C 0.44411 0.84376 0.96484 0.0
C2624 C 0.45682 0.84271 0.98798 0.0
C2625 C 0.49597 0.83422 0.98447 0.0
H2626 H 0.49958 0.85779 0.01907 0.0
C2627 C 0.55073 0.84266 0.01462 0.0
C2628 C 0.55019 0.84292 0.02986 0.0
C2629 C 0.5379 0.84239 0.00646 0.0
C2630 C 0.49871 0.851 0.00952 0.0
H2631 H 0.45827 0.8444 0.94602 0.0
H2632 H 0.48071 0.84376 0.95979 0.0
H2633 H 0.47688 0.8578 0.00559 0.0
H2634 H 0.53566 0.84268 0.04841 0.0
H2635 H 0.51355 0.84197 0.03428 0.0
H2636 H 0.51782 0.82741 0.98842 0.0
C2637 C 0.47053 0.84342 0.96563 0.0
C2638 C 0.48568 0.85101 0.0018 0.0
C2639 C 0.45762 0.84389 0.95773 0.0
C2640 C 0.53656 0.84262 0.0367 0.0
C2641 C 0.52381 0.84231 0.02858 0.0
C2642 C 0.50902 0.83419 0.99221 0.0
C2643 C 0.47031 0.84285 0.98084 0.0
C2644 C 0.48413 0.84262 0.98919 0.0
C2645 C 0.52428 0.84236 0.01336 0.0
C2646 C 0.51054 0.84256 0.00486 0.0
H2647 H 0.43366 0.843 0.98589 0.0
H2648 H 0.45627 0.84213 -0.00031 0.0
H2649 H 0.49508 0.8275 0.97488 0.0
H2650 H 0.56104 0.84289 0.00901 0.0
H2651 H 0.53865 0.84253 0.99474 0.0
C2652 C 0.15853 0.46375 0.95745 0.0
C2653 C 0.15766 0.44999 0.96396 0.0
C2654 C 0.15946 0.47629 0.96589 0.0
C2655 C 0.16872 0.48958 0.00261 0.0
H2656 H 0.14622 0.52313 0.99093 0.0
C2657 C 0.161 0.53949 0.03969 0.0
C2658 C 0.16102 0.55335 0.03331 0.0
C2659 C 0.16124 0.527 0.03112 0.0
C2660 C 0.15273 0.51394 0.99424 0.0
H2661 H 0.15723 0.43867 0.98457 0.0
H2662 H 0.15875 0.46062 -0.00065 0.0
H2663 H 0.14526 0.50106 0.97645 0.0
H2664 H 0.16151 0.56487 0.01282 0.0
H2665 H 0.16207 0.54302 0.99783 0.0
H2666 H 0.17614 0.50247 0.02044 0.0
C2667 C 0.15886 0.46166 0.98766 0.0
C2668 C 0.15217 0.50126 0.98595 0.0
C2669 C 0.15792 0.44908 0.97918 0.0
C2670 C 0.16147 0.55439 0.0181 0.0
C2671 C 0.16169 0.54185 0.00951 0.0
C2672 C 0.16929 0.50228 0.01091 0.0
C2673 C 0.15954 0.47544 0.98111 0.0
C2674 C 0.16015 0.48891 0.99002 0.0
C2675 C 0.16151 0.528 0.01592 0.0
C2676 C 0.16127 0.51461 0.00685 0.0
H2677 H 0.15845 0.4649 0.94576 0.0
H2678 H 0.16022 0.48667 0.96047 0.0
H2679 H 0.17517 0.48036 0.00595 0.0
H2680 H 0.16064 0.53823 0.05137 0.0
H2681 H 0.16089 0.51654 0.03644 0.0
C2682 C 0.84018 0.55414 0.97908 0.0
C2683 C 0.84177 0.55424 0.96392 0.0
C2684 C 0.83944 0.54102 0.98667 0.0
C2685 C 0.84844 0.50195 0.9836 0.0
H2686 H 0.82126 0.498 0.0154 0.0
C2687 C 0.83953 0.44738 0.01377 0.0
C2688 C 0.83866 0.44825 0.02898 0.0
C2689 C 0.83927 0.46001 0.0053 0.0
C2690 C 0.82899 0.49895 0.00662 0.0
H2691 H 0.84389 0.54053 0.94489 0.0
H2692 H 0.84249 0.51775 0.9581 0.0
H2693 H 0.82235 0.52068 0.0019 0.0
H2694 H 0.83664 0.46313 0.04713 0.0
H2695 H 0.8363 0.48494 0.03246 0.0
H2696 H 0.85515 0.48024 0.98841 0.0
C2697 C 0.84196 0.5278 0.96415 0.0
C2698 C 0.82964 0.51198 -0.00111 0.0
C2699 C 0.84269 0.5409 0.95656 0.0
C2700 C 0.83733 0.462 0.03546 0.0
C2701 C 0.83703 0.47455 0.02702 0.0
C2702 C 0.8478 0.48891 0.99134 0.0
C2703 C 0.8403 0.52768 0.9793 0.0
C2704 C 0.83944 0.51369 0.98736 0.0
C2705 C 0.83805 0.47375 0.01185 0.0
C2706 C 0.83816 0.48729 0.00303 0.0
H2707 H 0.83948 0.5642 0.9851 0.0
H2708 H 0.83836 0.54133 0.99836 0.0
H2709 H 0.85624 0.50294 0.97489 0.0
H2710 H 0.84057 0.43698 0.00842 0.0
H2711 H 0.83995 0.45901 0.99362 0.0
C2712 C 0.48457 0.04556 0.65006 0.0
C2713 C 0.46936 0.04533 0.65112 0.0
C2714 C 0.49249 0.03259 0.64999 0.0
C2715 C 0.48985 0.99386 0.66036 0.0
H2716 H 0.52161 0.98879 0.63333 0.0
C2717 C 0.5182 0.93835 0.65209 0.0
C2718 C 0.53336 0.93852 0.65046 0.0
C2719 C 0.51029 0.95132 0.65204 0.0
C2720 C 0.51287 0.99006 0.64107 0.0
H2721 H 0.45061 0.0312 0.65295 0.0
H2722 H 0.46437 0.00876 0.65275 0.0
H2723 H 0.5084 0.01168 0.63383 0.0
H2724 H 0.55203 0.95257 0.64751 0.0
H2725 H 0.53833 0.97501 0.64764 0.0
H2726 H 0.49435 0.97229 0.66767 0.0
C2727 C 0.47021 0.01893 0.65212 0.0
C2728 C 0.50531 0.00321 0.64136 0.0
C2729 C 0.46231 0.03184 0.65213 0.0
C2730 C 0.54037 0.95196 0.64873 0.0
C2731 C 0.53248 0.96489 0.64871 0.0
C2732 C 0.49744 0.98073 0.66011 0.0
C2733 C 0.48539 0.01912 0.65106 0.0
C2734 C 0.49369 0.00526 0.65099 0.0
C2735 C 0.51734 0.96477 0.65036 0.0
C2736 C 0.50906 0.97865 0.65046 0.0
H2737 H 0.49036 0.05575 0.64927 0.0
H2738 H 0.5042 0.03311 0.64928 0.0
H2739 H 0.48108 0.99515 0.66806 0.0
H2740 H 0.51245 0.9282 0.65339 0.0
H2741 H 0.49862 0.95081 0.65316 0.0
C2742 C 0.9573 0.4638 0.66322 0.0
C2743 C 0.9434 0.46972 0.66116 0.0
C2744 C 0.96949 0.47271 0.66387 0.0
C2745 C 0.98287 0.50829 0.65207 0.0
H2746 H 0.01461 0.49954 0.67823 0.0
C2747 C 0.03434 0.54387 0.6554 0.0
C2748 C 0.04777 0.53669 0.65644 0.0
C2749 C 0.02134 0.53621 0.65669 0.0
C2750 C 0.0059 0.50204 0.67077 0.0
H2751 H 0.93141 0.48976 0.65845 0.0
H2752 H 0.95283 0.50543 0.65962 0.0
H2753 H 0.99214 0.48572 0.67984 0.0
H2754 H 0.05798 0.51576 0.65965 0.0
H2755 H 0.03524 0.50236 0.6618 0.0
H2756 H 0.9967 0.52451 0.6429 0.0
C2757 C 0.95423 0.49381 0.66063 0.0
C2758 C 0.993 0.49415 0.67171 0.0
C2759 C 0.94196 0.48486 0.66005 0.0
C2760 C 0.04785 0.52164 0.65882 0.0
C2761 C 0.03481 0.51397 0.66014 0.0
C2762 C 0.99578 0.51619 0.65113 0.0
C2763 C 0.96816 0.48781 0.66243 0.0
C2764 C 0.98139 0.49705 0.66225 0.0
C2765 C 0.0214 0.52118 0.65908 0.0
C2766 C 0.00751 0.51306 0.66037 0.0
H2767 H 0.95885 0.4522 0.66416 0.0
H2768 H 0.98004 0.4677 0.66507 0.0
H2769 H 0.97422 0.51068 0.64449 0.0
H2770 H 0.03382 0.55547 0.65363 0.0
H2771 H 0.01122 0.54213 0.656 0.0
C2772 C 0.45968 0.96173 0.34715 0.0
C2773 C 0.46607 0.94788 0.34686 0.0
C2774 C 0.46821 0.97422 0.34665 0.0
C2775 C 0.50531 0.98766 0.35334 0.0
H2776 H 0.4927 0.02023 0.32991 0.0
C2777 C 0.54176 0.03752 0.34359 0.0
C2778 C 0.53525 0.05132 0.34382 0.0
C2779 C 0.53331 0.02496 0.34382 0.0
C2780 C 0.49629 0.01131 0.33665 0.0
H2781 H 0.48656 0.93637 0.34586 0.0
H2782 H 0.50149 0.95825 0.34491 0.0
H2783 H 0.47823 0.99812 0.33046 0.0
H2784 H 0.51467 0.06267 0.34444 0.0
H2785 H 0.49989 0.04069 0.34496 0.0
H2786 H 0.52335 0.00085 0.35956 0.0
C2787 C 0.48983 0.9594 0.34565 0.0
C2788 C 0.488 0.99861 0.33695 0.0
C2789 C 0.48127 0.94685 0.34612 0.0
C2790 C 0.52004 0.05223 0.3442 0.0
C2791 C 0.51157 0.03962 0.34444 0.0
C2792 C 0.51359 0.00036 0.35305 0.0
C2793 C 0.48339 0.97324 0.34586 0.0
C2794 C 0.49239 0.98664 0.34532 0.0
C2795 C 0.51811 0.02582 0.3443 0.0
C2796 C 0.50919 0.01236 0.3447 0.0
H2797 H 0.44802 0.96298 0.34775 0.0
H2798 H 0.4629 0.98468 0.34707 0.0
H2799 H 0.50889 0.97874 0.36007 0.0
H2800 H 0.55344 0.03637 0.34321 0.0
H2801 H 0.53872 0.01455 0.34345 0.0
C2802 C 0.05155 0.47835 0.3372 0.0
C2803 C 0.05069 0.46313 0.33682 0.0
C2804 C 0.03893 0.48681 0.33724 0.0
C2805 C -0.00042 0.48534 0.32877 0.0
H2806 H 0.9974 0.51863 0.35433 0.0
C2807 C 0.9457 0.51556 0.34011 0.0
C2808 C 0.94625 0.53078 0.3408 0.0
C2809 C 0.95848 0.50739 0.33936 0.0
C2810 C 0.99787 0.50946 0.347 0.0
H2811 H 0.0358 0.44491 0.33606 0.0
H2812 H 0.01393 0.4596 0.33625 0.0
H2813 H 0.01967 0.50447 0.3532 0.0
H2814 H 0.96076 0.54931 0.34121 0.0
H2815 H 0.98293 0.53511 0.33981 0.0
H2816 H 0.97775 0.4903 0.32263 0.0
C2817 C 0.02433 0.46504 0.33634 0.0
C2818 C 0.01067 0.50135 0.34634 0.0
C2819 C 0.03691 0.4566 0.33633 0.0
C2820 C 0.95989 0.53761 0.34075 0.0
C2821 C 0.97264 0.52945 0.34002 0.0
C2822 C 0.98678 0.49345 0.32944 0.0
C2823 C 0.02516 0.48024 0.33686 0.0
C2824 C 0.01168 0.48915 0.33725 0.0
C2825 C 0.97212 0.51424 0.33933 0.0
C2826 C 0.98575 0.5056 0.33859 0.0
H2827 H 0.06197 0.48375 0.33758 0.0
H2828 H 0.03998 0.4985 0.33747 0.0
H2829 H 4e-05 0.47615 0.32147 0.0
H2830 H 0.9354 0.50992 0.34018 0.0
H2831 H 0.95768 0.49568 0.33902 0.0
C2832 C 0.65332 0.5188 0.94559 0.0
C2833 C 0.65325 0.53401 0.94664 0.0
C2834 C 0.65388 0.51021 0.95811 0.0
C2835 C 0.64676 0.51151 0.99763 0.0
H2836 H 0.67099 0.47718 0.99868 0.0
C2837 C 0.65617 0.47895 0.05045 0.0
C2838 C 0.65583 0.46376 0.04927 0.0
C2839 C 0.65631 0.48765 0.03801 0.0
C2840 C 0.66406 0.48666 0.99852 0.0
H2841 H 0.65383 0.55208 0.96173 0.0
H2842 H 0.65493 0.53717 0.9834 0.0
H2843 H 0.67011 0.49189 0.97672 0.0
H2844 H 0.6555 0.44583 0.034 0.0
H2845 H 0.65561 0.46095 0.01243 0.0
H2846 H 0.64068 0.50626 0.0194 0.0
C2847 C 0.65434 0.53185 0.97295 0.0
C2848 C 0.66354 0.49508 0.98592 0.0
C2849 C 0.65379 0.54041 0.96048 0.0
C2850 C 0.65579 0.45749 0.03535 0.0
C2851 C 0.65595 0.46617 0.02295 0.0
C2852 C 0.64728 0.50309 0.01022 0.0
C2853 C 0.65437 0.51665 0.97195 0.0
C2854 C 0.65488 0.5076 0.98531 0.0
C2855 C 0.65615 0.48136 0.0241 0.0
C2856 C 0.65591 0.49054 0.01082 0.0
H2857 H 0.65288 0.5135 0.93512 0.0
H2858 H 0.65373 0.49853 0.95696 0.0
H2859 H 0.6398 0.52096 0.99746 0.0
H2860 H 0.65624 0.48415 0.06098 0.0
H2861 H 0.65664 0.49932 0.03928 0.0
C2862 C 0.4852 0.65812 0.93818 0.0
C2863 C 0.47012 0.65977 0.93972 0.0
C2864 C 0.49428 0.65861 0.95039 0.0
C2865 C 0.49499 0.67053 0.98897 0.0
H2866 H 0.52538 0.64181 0.9931 0.0
C2867 C 0.52205 0.65832 0.04404 0.0
C2868 C 0.53717 0.65644 0.04417 0.0
C2869 C 0.51452 0.65928 0.03091 0.0
C2870 C 0.51704 0.65 0.99204 0.0
H2871 H 0.45286 0.66351 0.95531 0.0
H2872 H 0.46851 0.66414 0.97633 0.0
H2873 H 0.51144 0.64298 0.97061 0.0
H2874 H 0.5562 0.65398 0.03051 0.0
H2875 H 0.54303 0.65565 0.00767 0.0
H2876 H 0.50039 0.67738 0.01048 0.0
C2877 C 0.47342 0.66266 0.96577 0.0
C2878 C 0.50908 0.65071 0.97913 0.0
C2879 C 0.4644 0.66216 0.95366 0.0
C2880 C 0.54455 0.65542 0.03085 0.0
C2881 C 0.537 0.6563 0.01773 0.0
C2882 C 0.50289 0.66979 0.00187 0.0
C2883 C 0.48846 0.66083 0.96434 0.0
C2884 C 0.49782 0.66085 0.97751 0.0
C2885 C 0.52191 0.65831 0.0176 0.0
C2886 C 0.51389 0.6594 0.00364 0.0
H2887 H 0.48995 0.65624 0.92761 0.0
H2888 H 0.50584 0.65727 0.9489 0.0
H2889 H 0.48659 0.67868 0.988 0.0
H2890 H 0.51601 0.65909 0.05408 0.0
H2891 H 0.50286 0.66063 0.03118 0.0
C2892 C 0.32618 0.51476 0.05257 0.0
C2893 C 0.32698 0.52997 0.05219 0.0
C2894 C 0.32466 0.50681 0.0397 0.0
C2895 C 0.31554 0.5106 0.00033 0.0
H2896 H 0.33866 0.47571 0.99668 0.0
C2897 C 0.32812 0.48194 0.94534 0.0
C2898 C 0.32739 0.46672 0.94542 0.0
C2899 C 0.3267 0.48978 0.95832 0.0
C2900 C 0.33204 0.48537 0.99757 0.0
H2901 H 0.32634 0.54873 0.03794 0.0
H2902 H 0.32404 0.53497 0.01573 0.0
H2903 H 0.33829 0.48873 0.01963 0.0
H2904 H 0.32392 0.44788 0.95916 0.0
H2905 H 0.32156 0.46146 0.98152 0.0
H2906 H 0.30963 0.50733 0.97806 0.0
C2907 C 0.32433 0.52911 0.0259 0.0
C2908 C 0.33175 0.4928 0.01077 0.0
C2909 C 0.32577 0.53703 0.03871 0.0
C2910 C 0.32475 0.45957 0.95865 0.0
C2911 C 0.32343 0.46735 0.97153 0.0
C2912 C 0.31593 0.50321 0.98707 0.0
C2913 C 0.32395 0.5139 0.02617 0.0
C2914 C 0.32354 0.50555 0.01233 0.0
C2915 C 0.32462 0.48251 0.97158 0.0
C2916 C 0.32419 0.49051 0.98556 0.0
H2917 H 0.32702 0.50898 0.06275 0.0
H2918 H 0.32416 0.4951 0.04035 0.0
H2919 H 0.30893 0.52026 0.00117 0.0
H2920 H 0.33014 0.48778 0.93536 0.0
H2921 H 0.32771 0.50147 0.95804 0.0
C2922 C 0.4831 0.33217 0.05604 0.0
C2923 C 0.46797 0.33074 0.05495 0.0
C2924 C 0.49176 0.33201 0.04355 0.0
C2925 C 0.49146 0.3224 0.00431 0.0
H2926 H 0.52075 0.35237 0.00126 0.0
C2927 C 0.51767 0.33836 0.94957 0.0
C2928 C 0.53267 0.341 0.94958 0.0
C2929 C 0.51018 0.33641 0.96264 0.0
C2930 C 0.51273 0.34383 0.00199 0.0
H2931 H 0.45017 0.32738 0.03988 0.0
H2932 H 0.46516 0.32719 0.01831 0.0
H2933 H 0.5075 0.34933 0.02392 0.0
H2934 H 0.55154 0.34369 0.96343 0.0
H2935 H 0.53853 0.34025 0.98606 0.0
H2936 H 0.49655 0.31705 0.98229 0.0
C2937 C 0.47041 0.32834 0.02875 0.0
C2938 C 0.50517 0.34205 0.01501 0.0
C2939 C 0.46179 0.32855 0.04117 0.0
C2940 C 0.53998 0.34174 0.96297 0.0
C2941 C 0.5325 0.33982 0.97599 0.0
C2942 C 0.499 0.3242 0.99128 0.0
C2943 C 0.48547 0.33032 0.02973 0.0
C2944 C 0.49434 0.3314 0.01629 0.0
C2945 C 0.51753 0.3371 0.976 0.0
C2946 C 0.50965 0.33501 0.98993 0.0
H2947 H 0.48821 0.33385 0.06648 0.0
H2948 H 0.50336 0.33337 0.0447 0.0
H2949 H 0.48333 0.31396 0.00499 0.0
H2950 H 0.5117 0.33774 0.93947 0.0
H2951 H 0.4986 0.3345 0.96228 0.0
C2952 C 0.94861 0.65623 0.51904 0.0
C2953 C 0.94936 0.65493 0.53421 0.0
C2954 C 0.9613 0.65756 0.51078 0.0
C2955 C 0.00034 0.66718 0.51395 0.0
H2956 H 0.00369 0.64648 0.47753 0.0
C2957 C 0.05476 0.66037 0.48282 0.0
C2958 C 0.05416 0.66137 0.46762 0.0
C2959 C 0.04198 0.66045 0.49105 0.0
C2960 C 0.00288 0.65247 0.4876 0.0
H2961 H 0.96413 0.65391 0.55254 0.0
H2962 H 0.98606 0.65597 0.5382 0.0
H2963 H 0.98128 0.64493 0.49139 0.0
H2964 H 0.03961 0.66381 0.44923 0.0
H2965 H 0.01755 0.66408 0.46353 0.0
H2966 H 0.02205 0.67458 0.51019 0.0
C2967 C 0.97571 0.65625 0.53266 0.0
C2968 C 0.99 0.6516 0.49554 0.0
C2969 C 0.96308 0.65494 0.54089 0.0
C2970 C 0.04054 0.66291 0.46091 0.0
C2971 C 0.02783 0.66296 0.4691 0.0
C2972 C 0.01325 0.66801 0.50602 0.0
C2973 C 0.97501 0.65762 0.51751 0.0
C2974 C 0.98857 0.6589 0.50884 0.0
C2975 C 0.02835 0.6615 0.48424 0.0
C2976 C 0.01467 0.66067 0.49275 0.0
H2977 H 0.93823 0.65629 0.51354 0.0
H2978 H 0.96035 0.65874 0.49914 0.0
H2979 H -0.00045 0.67313 0.52404 0.0
H2980 H 0.06505 0.65915 0.48834 0.0
H2981 H 0.04274 0.65924 0.50271 0.0
C2982 C 0.0378 0.33761 0.53854 0.0
C2983 C 0.05145 0.33864 0.53181 0.0
C2984 C 0.02519 0.33619 0.5303 0.0
C2985 C 0.01043 0.34327 0.49391 0.0
H2986 H 0.97929 0.31808 0.50675 0.0
C2987 C 0.95917 0.33465 0.45945 0.0
C2988 C 0.94573 0.33477 0.46667 0.0
C2989 C 0.97213 0.33408 0.46723 0.0
C2990 C 0.98783 0.32527 0.50309 0.0
H2991 H 0.0625 0.33885 0.51105 0.0
H2992 H 0.04039 0.33631 0.49662 0.0
H2993 H 0.00198 0.31886 0.52035 0.0
H2994 H 0.93544 0.33401 0.48779 0.0
H2995 H 0.95815 0.33316 0.50143 0.0
H2996 H 0.99627 0.34979 0.47676 0.0
C2997 C 0.0395 0.33672 0.50832 0.0
C2998 C 0.00084 0.3257 0.51087 0.0
C2999 C 0.05217 0.33811 0.51659 0.0
C3000 C 0.94558 0.33393 0.48189 0.0
C3001 C 0.9586 0.33338 0.4897 0.0
C3002 C 0.99743 0.34284 0.48615 0.0
C3003 C 0.02585 0.33579 0.5151 0.0
C3004 C 0.01227 0.33477 0.50642 0.0
C3005 C 0.97204 0.33365 0.48245 0.0
C3006 C 0.98594 0.33388 0.49067 0.0
H3007 H 0.03679 0.33798 0.55024 0.0
H3008 H 0.01487 0.33572 0.53588 0.0
H3009 H 0.01891 0.35055 0.49032 0.0
H3010 H 0.95973 0.33518 0.44773 0.0
H3011 H 0.98225 0.33402 0.46129 0.0
C3012 C 0.66053 0.05869 0.51912 0.0
C3013 C 0.65873 0.05859 0.53426 0.0
C3014 C 0.66063 0.04569 0.51127 0.0
C3015 C 0.66608 0.00608 0.51528 0.0
H3016 H 0.64521 0.00415 0.47886 0.0
C3017 C 0.657 0.95214 0.48378 0.0
C3018 C 0.65798 0.95282 0.46858 0.0
C3019 C 0.65734 0.96486 0.49212 0.0
C3020 C 0.65124 0.00453 0.48893 0.0
H3021 H 0.65568 0.04465 0.55299 0.0
H3022 H 0.65579 0.02209 0.53931 0.0
H3023 H 0.64551 0.02672 0.49254 0.0
H3024 H 0.66052 0.96745 0.4503 0.0
H3025 H 0.66131 0.98939 0.46475 0.0
H3026 H 0.67185 0.98386 0.51162 0.0
C3027 C 0.65727 0.0322 0.53351 0.0
C3028 C 0.65141 0.01749 0.49677 0.0
C3029 C 0.65712 0.04517 0.54135 0.0
C3030 C 0.65958 0.96647 0.46196 0.0
C3031 C 0.65995 0.97912 0.47026 0.0
C3032 C 0.66594 0.99309 0.5074 0.0
C3033 C 0.65898 0.03228 0.51837 0.0
C3034 C 0.65887 0.01845 0.51003 0.0
C3035 C 0.65867 0.97852 0.48543 0.0
C3036 C 0.65857 0.99218 0.49408 0.0
H3037 H 0.66184 0.0688 0.5133 0.0
H3038 H 0.66213 0.04614 0.49963 0.0
H3039 H 0.67206 0.00649 0.52538 0.0
H3040 H 0.65572 0.94182 0.48923 0.0
H3041 H 0.65622 0.96401 0.50378 0.0
C3042 C 0.33994 0.96167 0.54213 0.0
C3043 C 0.34027 0.9477 0.53602 0.0
C3044 C 0.33934 0.97396 0.53332 0.0
C3045 C 0.33014 0.98643 0.49633 0.0
H3046 H 0.35391 0.0195 0.50679 0.0
C3047 C 0.33893 0.03518 0.45794 0.0
C3048 C 0.33929 0.04916 0.46405 0.0
C3049 C 0.33848 0.02288 0.46676 0.0
C3050 C 0.34706 0.01045 0.50381 0.0
H3051 H 0.3401 0.93575 0.51576 0.0
H3052 H 0.33918 0.95727 0.50034 0.0
H3053 H 0.35432 0.99784 0.52187 0.0
H3054 H 0.33926 0.0611 0.48432 0.0
H3055 H 0.33835 0.03961 0.49973 0.0
H3056 H 0.32294 -0.00095 0.47822 0.0
C3057 C 0.33923 0.95867 0.512 0.0
C3058 C 0.3473 0.998 0.51245 0.0
C3059 C 0.33982 0.94633 0.52084 0.0
C3060 C 0.33903 0.05051 0.47924 0.0
C3061 C 0.33859 0.03818 0.48808 0.0
C3062 C 0.3299 -0.00111 0.48767 0.0
C3063 C 0.33909 0.97265 0.51814 0.0
C3064 C 0.33884 0.98584 0.50883 0.0
C3065 C 0.33838 0.02421 0.48194 0.0
C3066 C 0.33837 0.01105 0.4913 0.0
H3067 H 0.34016 0.96317 0.55378 0.0
H3068 H 0.33898 0.98453 0.53843 0.0
H3069 H 0.32334 0.97734 0.49334 0.0
H3070 H 0.33914 0.03369 0.44629 0.0
H3071 H 0.33851 0.0123 0.46167 0.0
C3072 C 0.16452 0.53578 0.10763 0.0
C3073 C 0.15842 0.54969 0.10649 0.0
C3074 C 0.15831 0.52551 0.11686 0.0
C3075 C 0.12194 0.51766 0.12835 0.0
H3076 H 0.13893 0.48482 0.14834 0.0
C3077 C 0.08568 0.47175 0.14689 0.0
C3078 C 0.0906 0.45765 0.14411 0.0
C3079 C 0.09521 0.4834 0.14628 0.0
C3080 C 0.13406 0.49392 0.14274 0.0
H3081 H 0.14244 0.56444 0.11543 0.0
H3082 H 0.1318 0.54661 0.13172 0.0
H3083 H 0.15435 0.50521 0.14103 0.0
H3084 H 0.10933 0.44442 0.13916 0.0
H3085 H 0.12601 0.465 0.13719 0.0
H3086 H 0.10194 0.5063 0.12912 0.0
C3087 C 0.14107 0.54349 0.12521 0.0
C3088 C 0.14286 0.50559 0.13866 0.0
C3089 C 0.14714 0.55368 0.11589 0.0
C3090 C 0.10533 0.45527 0.14124 0.0
C3091 C 0.11487 0.46702 0.14026 0.0
C3092 C 0.11324 0.50603 0.13227 0.0
C3093 C 0.14603 0.5291 0.12513 0.0
C3094 C 0.13686 0.51751 0.13131 0.0
C3095 C 0.1098 0.48126 0.14245 0.0
C3096 C 0.11917 0.49395 0.1394 0.0
H3097 H 0.17329 0.53247 0.10057 0.0
H3098 H 0.16234 0.51449 0.11658 0.0
H3099 H 0.11705 0.52647 0.12232 0.0
H3100 H 0.07441 0.4738 0.14951 0.0
H3101 H 0.09104 0.49415 0.14848 0.0
C3102 C 0.54048 0.10342 0.1409 0.0
C3103 C 0.53757 0.0887 0.14337 0.0
C3104 C 0.52906 0.11329 0.13944 0.0
C3105 C 0.4903 0.11314 0.1298 0.0
H3106 H 0.492 0.15389 0.14005 0.0
C3107 C 0.44355 0.14867 0.11451 0.0
C3108 C 0.44785 0.15983 0.10512 0.0
C3109 C 0.45361 0.14222 0.12373 0.0
C3110 C 0.49138 0.1425 0.13726 0.0
H3111 H 0.52072 0.07284 0.14739 0.0
H3112 H 0.5009 0.09003 0.14551 0.0
H3113 H 0.51177 0.13765 0.14732 0.0
H3114 H 0.46548 0.17421 0.09918 0.0
H3115 H 0.48319 0.16264 0.1151 0.0
H3116 H 0.47017 0.11788 0.11959 0.0
C3117 C 0.51186 0.09396 0.14402 0.0
C3118 C 0.50271 0.13324 0.14131 0.0
C3119 C 0.52321 0.0841 0.14512 0.0
C3120 C 0.46193 0.16552 0.10624 0.0
C3121 C 0.47205 0.15896 0.11541 0.0
C3122 C 0.479 0.12229 0.12595 0.0
C3123 C 0.5146 0.10858 0.14072 0.0
C3124 C 0.50233 0.11846 0.13747 0.0
C3125 C 0.46814 0.14673 0.12359 0.0
C3126 C 0.47946 0.13708 0.1295 0.0
H3127 H 0.55153 0.10719 0.1396 0.0
H3128 H 0.53155 0.12444 0.13678 0.0
H3129 H 0.4898 0.10196 0.12625 0.0
H3130 H 0.43267 0.14427 0.11406 0.0
H3131 H 0.45028 0.13297 0.13017 0.0
C3132 C 0.89108 0.5462 0.14602 0.0
C3133 C 0.90372 0.5464 0.13748 0.0
C3134 C 0.88132 0.53465 0.14497 0.0
C3135 C 0.87996 0.49657 0.13303 0.0
H3136 H 0.83867 0.50277 0.12835 0.0
C3137 C 0.83282 0.4687 0.09892 0.0
C3138 C 0.83754 0.45431 0.10024 0.0
C3139 C 0.83792 0.47927 0.10847 0.0
C3140 C 0.85016 0.50084 0.12972 0.0
H3141 H 0.91575 0.535 0.12078 0.0
H3142 H 0.89868 0.51511 0.11878 0.0
H3143 H 0.85437 0.52321 0.13441 0.0
H3144 H 0.84966 0.43922 0.11353 0.0
H3145 H 0.85801 0.45752 0.13066 0.0
H3146 H 0.87619 0.47461 0.12724 0.0
C3147 C 0.89647 0.52364 0.12655 0.0
C3148 C 0.85912 0.51253 0.13332 0.0
C3149 C 0.90619 0.53511 0.1276 0.0
C3150 C 0.84613 0.45033 0.11214 0.0
C3151 C 0.85094 0.46083 0.12189 0.0
C3152 C 0.87108 0.48497 0.12932 0.0
C3153 C 0.88409 0.52314 0.1354 0.0
C3154 C 0.87418 0.51058 0.13436 0.0
C3155 C 0.84762 0.47555 0.11965 0.0
C3156 C 0.85615 0.48706 0.12702 0.0
H3157 H 0.88891 0.55477 0.15375 0.0
H3158 H 0.87182 0.53455 0.15187 0.0
H3159 H 0.8915 0.4947 0.13412 0.0
H3160 H 0.82614 0.47203 0.08985 0.0
H3161 H 0.83517 0.49047 0.10629 0.0
C3162 C 0.44085 0.88397 0.14738 0.0
C3163 C 0.44394 0.89443 0.15797 0.0
C3164 C 0.45189 0.87524 0.14184 0.0
C3165 C 0.47765 0.87143 0.12266 0.0
H3166 H 0.51437 0.86309 0.14133 0.0
C3167 C 0.53038 0.87477 0.09117 0.0
C3168 C 0.54103 0.86417 0.0935 0.0
C3169 C 0.51835 0.87559 0.10024 0.0
C3170 C 0.50413 0.86515 0.13597 0.0
H3171 H 0.46061 0.90301 0.17216 0.0
H3172 H 0.47995 0.88837 0.16209 0.0
H3173 H 0.4928 0.86712 0.15613 0.0
H3174 H 0.54772 0.84642 0.10744 0.0
H3175 H 0.52653 0.84781 0.12325 0.0
H3176 H 0.4889 0.86948 0.10255 0.0
C3177 C 0.46903 0.88657 0.15819 0.0
C3178 C 0.4918 0.86756 0.14444 0.0
C3179 C 0.45793 0.89508 0.16392 0.0
C3180 C 0.53967 0.85473 0.10539 0.0
C3181 C 0.52756 0.85551 0.11445 0.0
C3182 C 0.4899 0.86889 0.11424 0.0
C3183 C 0.46628 0.87709 0.14656 0.0
C3184 C 0.47853 0.87128 0.13788 0.0
C3185 C 0.51664 0.86578 0.11178 0.0
C3186 C 0.50338 0.86632 0.1208 0.0
H3187 H 0.43006 0.88307 0.1428 0.0
H3188 H 0.4493 0.8677 0.13322 0.0
H3189 H 0.46772 0.87439 0.11715 0.0
H3190 H 0.53119 0.88228 0.08219 0.0
H3191 H 0.51031 0.8839 0.09815 0.0
C3192 C 0.11759 0.54655 0.84286 0.0
C3193 C 0.10503 0.54187 0.83567 0.0
C3194 C 0.12877 0.5368 0.8458 0.0
C3195 C 0.14029 0.49801 0.84053 0.0
H3196 H 0.15326 0.50256 0.88025 0.0
C3197 C 0.14848 0.45227 0.88162 0.0
C3198 C 0.15997 0.4533 0.89155 0.0
C3199 C 0.14645 0.46302 0.87117 0.0
C3200 C 0.15004 0.50125 0.86902 0.0
H3201 H 0.09459 0.52365 0.82517 0.0
H3202 H 0.11358 0.50644 0.83102 0.0
H3203 H 0.14098 0.52242 0.86837 0.0
H3204 H 0.17891 0.46581 0.89776 0.0
H3205 H 0.17507 0.48481 0.87972 0.0
H3206 H 0.14828 0.4762 0.84192 0.0
C3207 C 0.11518 0.51768 0.834 0.0
C3208 C 0.14302 0.5127 0.86213 0.0
C3209 C 0.10417 0.52752 0.83075 0.0
C3210 C 0.16991 0.46478 0.89029 0.0
C3211 C 0.16775 0.47563 0.87998 0.0
C3212 C 0.14708 0.48644 0.84756 0.0
C3213 C 0.12743 0.52208 0.84199 0.0
C3214 C 0.13756 0.51106 0.84797 0.0
C3215 C 0.15578 0.47504 0.87062 0.0
C3216 C 0.15158 0.48785 0.86202 0.0
H3217 H 0.11859 0.55766 0.84654 0.0
H3218 H 0.13821 0.5407 0.85158 0.0
H3219 H 0.13659 0.49647 0.82949 0.0
H3220 H 0.14074 0.44347 0.88226 0.0
H3221 H 0.13704 0.4624 0.86417 0.0
C3222 C 0.53413 0.16424 0.89893 0.0
C3223 C 0.54843 0.15921 0.8978 0.0
C3224 C 0.52335 0.15857 0.88997 0.0
C3225 C 0.50143 0.14512 0.86972 0.0
H3226 H 0.50671 0.10343 0.86853 0.0
C3227 C 0.45589 0.10418 0.85415 0.0
C3228 C 0.45511 0.09189 0.86315 0.0
C3229 C 0.46751 0.11383 0.85536 0.0
C3230 C 0.50506 0.11506 0.86877 0.0
H3231 H 0.56314 0.14583 0.8853 0.0
H3232 H 0.54445 0.13639 0.86918 0.0
H3233 H 0.52702 0.11881 0.87461 0.0
H3234 H 0.46551 0.08042 0.88086 0.0
H3235 H 0.48554 0.09732 0.88313 0.0
H3236 H 0.47907 0.14105 0.86488 0.0
C3237 C 0.54139 0.14422 0.87738 0.0
C3238 C 0.5168 0.12395 0.872 0.0
C3239 C 0.55211 0.14966 0.88655 0.0
C3240 C 0.46587 0.0897 0.87368 0.0
C3241 C 0.47742 0.09932 0.87489 0.0
C3242 C 0.48961 0.13616 0.86658 0.0
C3243 C 0.52676 0.14794 0.87956 0.0
C3244 C 0.51504 0.13906 0.87302 0.0
C3245 C 0.47852 0.11132 0.86557 0.0
C3246 C 0.49124 0.12102 0.86663 0.0
H3247 H 0.53102 0.17166 0.9075 0.0
H3248 H 0.51222 0.16166 0.89204 0.0
H3249 H 0.49976 0.15673 0.87018 0.0
H3250 H 0.44774 0.10615 0.84594 0.0
H3251 H 0.46809 0.12301 0.84806 0.0
C3252 C 0.91336 0.46758 0.85969 0.0
C3253 C 0.90717 0.45493 0.85393 0.0
C3254 C 0.90562 0.4805 0.85979 0.0
C3255 C 0.86978 0.49502 0.86242 0.0
H3256 H 0.89064 0.5309 0.85552 0.0
C3257 C 0.8515 0.54928 0.88728 0.0
C3258 C 0.86242 0.55397 0.89681 0.0
C3259 C 0.85461 0.53898 0.8766 0.0
C3260 C 0.88454 0.52101 0.8572 0.0
H3261 H 0.88796 0.44583 0.84386 0.0
H3262 H 0.87415 0.46862 0.84446 0.0
H3263 H 0.90048 0.50806 0.84646 0.0
H3264 H 0.88525 0.5525 0.90211 0.0
H3265 H 0.89075 0.53479 0.88335 0.0
H3266 H 0.85438 0.50788 0.87409 0.0
C3267 C 0.88511 0.46843 0.84867 0.0
C3268 C 0.89016 0.50797 0.85207 0.0
C3269 C 0.89297 0.45544 0.84839 0.0
C3270 C 0.87663 0.54895 0.89496 0.0
C3271 C 0.8798 0.53894 0.88413 0.0
C3272 C 0.86411 0.50811 0.86752 0.0
C3273 C 0.89147 0.48109 0.85424 0.0
C3274 C 0.8833 0.4948 0.85545 0.0
C3275 C 0.86876 0.53358 0.8751 0.0
C3276 C 0.87193 0.52105 0.8657 0.0
H3277 H 0.92428 0.46759 0.864 0.0
H3278 H 0.91066 0.49001 0.8645 0.0
H3279 H 0.8643 0.48501 0.86515 0.0
H3280 H 0.84043 0.55301 0.88854 0.0
H3281 H 0.84594 0.53492 0.86979 0.0
C3282 C 0.53528 0.89042 0.83138 0.0
C3283 C 0.54904 0.88959 0.83782 0.0
C3284 C 0.52389 0.882 0.83666 0.0
C3285 C 0.5004 0.86335 0.84982 0.0
H3286 H 0.50208 0.86607 0.89173 0.0
C3287 C 0.4517 0.85174 0.8886 0.0
C3288 C 0.45017 0.86178 0.89999 0.0
C3289 C 0.46385 0.85222 0.87955 0.0
C3290 C 0.50144 0.86522 0.88003 0.0
H3291 H 0.56227 0.87794 0.85335 0.0
H3292 H 0.54252 0.86276 0.86218 0.0
H3293 H 0.52379 0.87025 0.87769 0.0
H3294 H 0.45966 0.88068 0.91028 0.0
H3295 H 0.48064 0.88165 0.89441 0.0
H3296 H 0.47765 0.85928 0.85238 0.0
C3297 C 0.54034 0.87036 0.8535 0.0
C3298 C 0.51397 0.86735 0.87194 0.0
C3299 C 0.55166 0.87899 0.8484 0.0
C3300 C 0.46061 0.87269 0.90171 0.0
C3301 C 0.47269 0.87318 0.8927 0.0
C3302 C 0.48778 0.86128 0.85797 0.0
C3303 C 0.52613 0.87244 0.84833 0.0
C3304 C 0.51354 0.86694 0.85671 0.0
C3305 C 0.47463 0.86272 0.88178 0.0
C3306 C 0.48812 0.86276 0.87312 0.0
H3307 H 0.53297 0.89845 0.82312 0.0
H3308 H 0.51312 0.88396 0.83242 0.0
H3309 H 0.49973 0.86274 0.83811 0.0
H3310 H 0.4438 0.84321 0.887 0.0
H3311 H 0.46507 0.84407 0.87118 0.0
C3312 C 0.17014 0.10301 0.46717 0.0
C3313 C 0.16083 0.10272 0.45511 0.0
C3314 C 0.16776 0.11286 0.47841 0.0
C3315 C 0.14805 0.14568 0.48959 0.0
H3316 H 0.13922 0.12383 0.52438 0.0
C3317 C 0.1047 0.16363 0.52981 0.0
C3318 C 0.10486 0.15835 0.54406 0.0
C3319 C 0.11571 0.15987 0.52016 0.0
C3320 C 0.14202 0.13031 0.51501 0.0
H3321 H 0.14251 0.11321 0.44475 0.0
H3322 H 0.13845 0.13051 0.46436 0.0
H3323 H 0.15174 0.11208 0.50455 0.0
H3324 H 0.11721 0.14614 0.55987 0.0
H3325 H 0.13685 0.14013 0.54325 0.0
H3326 H 0.13811 0.16388 0.49994 0.0
C3327 C 0.14754 0.1231 0.46513 0.0
C3328 C 0.14917 0.1235 0.50359 0.0
C3329 C 0.14977 0.11312 0.45398 0.0
C3330 C 0.11673 0.15014 0.54884 0.0
C3331 C 0.12794 0.14665 0.53928 0.0
C3332 C 0.14113 0.1526 0.50115 0.0
C3333 C 0.1562 0.12271 0.47764 0.0
C3334 C 0.15172 0.13095 0.49059 0.0
C3335 C 0.12728 0.15099 0.52466 0.0
C3336 C 0.13743 0.14481 0.51375 0.0
H3337 H 0.1788 0.09516 0.46829 0.0
H3338 H 0.17458 0.11239 0.48796 0.0
H3339 H 0.15004 0.15165 0.47968 0.0
H3340 H 0.09565 0.16999 0.52584 0.0
H3341 H 0.11465 0.16327 0.50898 0.0
C3342 C 0.8446 0.08561 0.52391 0.0
C3343 C 0.84867 0.08901 0.53816 0.0
C3344 C 0.84639 0.09568 0.51285 0.0
C3345 C 0.8554 0.13402 0.50442 0.0
H3346 H 0.87313 0.11633 0.47066 0.0
C3347 C 0.8924 0.16322 0.46324 0.0
C3348 C 0.89273 0.15787 0.44898 0.0
C3349 C 0.88305 0.15709 0.47345 0.0
C3350 C 0.86787 0.12147 0.47982 0.0
H3351 H 0.85712 0.1058 0.55225 0.0
H3352 H 0.86089 0.12335 0.53268 0.0
H3353 H 0.86453 0.10112 0.49012 0.0
H3354 H 0.88241 0.14324 0.43373 0.0
H3355 H 0.86588 0.1328 0.45146 0.0
H3356 H 0.85947 0.1545 0.49415 0.0
C3357 C 0.856 0.11298 0.53013 0.0
C3358 C 0.86294 0.11272 0.49103 0.0
C3359 C 0.85396 0.10293 0.54131 0.0
C3360 C 0.88257 0.14737 0.44473 0.0
C3361 C 0.87313 0.14138 0.45488 0.0
C3362 C 0.86042 0.14285 0.49314 0.0
C3363 C 0.85258 0.10929 0.51572 0.0
C3364 C 0.85676 0.11886 0.50352 0.0
C3365 C 0.87382 0.14563 0.4695 0.0
C3366 C 0.86683 0.13662 0.48078 0.0
H3367 H 0.84018 0.07505 0.52125 0.0
H3368 H 0.84329 0.09264 0.50193 0.0
H3369 H 0.85058 0.13905 0.51387 0.0
H3370 H 0.90006 0.17138 0.46678 0.0
H3371 H 0.88385 0.16057 0.48464 0.0
C3372 C 0.89087 0.83284 0.52884 0.0
C3373 C 0.89038 0.83895 0.54276 0.0
C3374 C 0.87982 0.83559 0.51891 0.0
C3375 C 0.8524 0.86372 0.51185 0.0
H3376 H 0.84638 0.84047 0.47732 0.0
C3377 C 0.82524 0.88798 0.46211 0.0
C3378 C 0.8353 0.88855 0.45067 0.0
C3379 C 0.82729 0.87839 0.47362 0.0
C3380 C 0.84778 0.84696 0.48702 0.0
H3381 H 0.87742 0.85156 0.55774 0.0
H3382 H 0.85769 0.85577 0.54064 0.0
H3383 H 0.85809 0.82968 0.4985 0.0
H3384 H 0.85458 0.87863 0.44159 0.0
H3385 H 0.85808 0.86175 0.46168 0.0
H3386 H 0.84226 0.88102 0.50026 0.0
C3387 C 0.8669 0.8494 0.53712 0.0
C3388 C 0.8546 0.84087 0.4991 0.0
C3389 C 0.87815 0.84695 0.54696 0.0
C3390 C 0.84674 0.87851 0.45033 0.0
C3391 C 0.84866 0.86877 0.46175 0.0
C3392 C 0.84531 0.86968 0.49992 0.0
C3393 C 0.86787 0.84425 0.52278 0.0
C3394 C 0.85764 0.8494 0.51141 0.0
C3395 C 0.83929 0.86905 0.47374 0.0
C3396 C 0.84352 0.86154 0.4872 0.0
H3397 H 0.90019 0.82663 0.52532 0.0
H3398 H 0.88117 0.83159 0.50795 0.0
H3399 H 0.85465 0.87077 0.52096 0.0
H3400 H 0.81626 0.89553 0.46263 0.0
H3401 H 0.81993 0.87876 0.48277 0.0
C3402 C 0.15153 0.88737 0.54533 0.0
C3403 C 0.14042 0.8967 0.55001 0.0
C3404 C 0.14857 0.87655 0.53512 0.0
C3405 C 0.11923 0.85571 0.51833 0.0
H3406 H 0.13636 0.8654 0.48116 0.0
C3407 C 0.08642 0.85852 0.46747 0.0
C3408 C 0.09187 0.85376 0.4541 0.0
C3409 C 0.09509 0.85826 0.47978 0.0
C3410 C 0.13178 0.86215 0.49148 0.0
H3411 H 0.11751 0.90159 0.54857 0.0
H3412 H 0.11227 0.8825 0.5311 0.0
H3413 H 0.14734 0.87455 0.50347 0.0
H3414 H 0.11072 0.845 0.44307 0.0
H3415 H 0.12617 0.84499 0.46478 0.0
H3416 H 0.10303 0.84426 0.50634 0.0
C3417 C 0.12324 0.88358 0.53517 0.0
C3418 C 0.13807 0.86738 0.50424 0.0
C3419 C 0.12624 0.89458 0.54503 0.0
C3420 C 0.10626 0.84876 0.45327 0.0
C3421 C 0.11506 0.84868 0.46564 0.0
C3422 C 0.11301 0.85042 0.50563 0.0
C3423 C 0.13441 0.87469 0.52989 0.0
C3424 C 0.13126 0.86497 0.51763 0.0
C3425 C 0.10947 0.85334 0.47902 0.0
C3426 C 0.11867 0.85446 0.49207 0.0
H3427 H 0.16256 0.88888 0.54905 0.0
H3428 H 0.15735 0.86988 0.53106 0.0
H3429 H 0.11389 0.85364 0.52859 0.0
H3430 H 0.07537 0.86236 0.4685 0.0
H3431 H 0.0906 0.86227 0.48987 0.0
C3432 C 0.5973 0.94766 0.61291 0.0
C3433 C 0.59609 0.94299 0.6273 0.0
C3434 C 0.60409 0.96077 0.60975 0.0
C3435 C 0.62511 0.99155 0.6256 0.0
H3436 H 0.60387 0.01288 0.59629 0.0
C3437 C 0.64375 0.04651 0.60188 0.0
C3438 C 0.63311 0.05569 0.59608 0.0
C3439 C 0.63981 0.03326 0.60803 0.0
C3440 C 0.60978 0.00724 0.60471 0.0
H3441 H 0.60172 0.94773 0.64962 0.0
H3442 H 0.613 0.97097 0.64421 0.0
H3443 H 0.59714 0.98822 0.60159 0.0
H3444 H 0.61007 0.05922 0.59349 0.0
H3445 H 0.60306 0.03654 0.60506 0.0
H3446 H 0.63732 0.01099 0.62911 0.0
C3447 C 0.60908 0.96442 0.63529 0.0
C3448 C 0.60614 0.99289 0.60751 0.0
C3449 C 0.60258 0.95112 0.63841 0.0
C3450 C 0.61845 0.05216 0.59774 0.0
C3451 C 0.61448 0.03912 0.60422 0.0
C3452 C 0.62864 0.00606 0.62293 0.0
C3453 C 0.60941 0.96965 0.62097 0.0
C3454 C 0.61382 0.98481 0.61788 0.0
C3455 C 0.62513 0.02916 0.60871 0.0
C3456 C 0.62101 0.01405 0.61242 0.0
H3457 H 0.59254 0.94144 0.60416 0.0
H3458 H 0.60461 0.96423 0.59854 0.0
H3459 H 0.63128 0.98562 0.63363 0.0
H3460 H 0.65515 0.04903 0.60063 0.0
H3461 H 0.64831 0.02586 0.61132 0.0
C3462 C 0.95404 0.65057 0.61518 0.0
C3463 C 0.9543 0.66135 0.60443 0.0
C3464 C 0.96574 0.64897 0.62464 0.0
C3465 C 0.00395 0.65135 0.62256 0.0
H3466 H 0.0033 0.64158 0.66342 0.0
C3467 C 0.05099 0.61949 0.64667 0.0
C3468 C 0.04679 0.60794 0.65563 0.0
C3469 C 0.04127 0.63068 0.64358 0.0
C3470 C 0.00368 0.64423 0.65199 0.0
H3471 H 0.96648 0.67955 0.5958 0.0
H3472 H 0.9871 0.67642 0.6121 0.0
H3473 H 0.98209 0.6529 0.65229 0.0
H3474 H 0.02948 0.59933 0.66897 0.0
H3475 H 0.01229 0.61822 0.66295 0.0
H3476 H 0.02479 0.64154 0.62168 0.0
C3477 C 0.9778 0.66934 0.61324 0.0
C3478 C 0.99158 0.65082 0.6457 0.0
C3479 C 0.96601 0.67109 0.60393 0.0
C3480 C 0.033 0.60812 0.66201 0.0
C3481 C 0.02317 0.61909 0.65866 0.0
C3482 C 0.0159 0.64449 0.62875 0.0
C3483 C 0.97793 0.658 0.62337 0.0
C3484 C 0.99149 0.65401 0.63083 0.0
C3485 C 0.02703 0.63032 0.64907 0.0
C3486 C 0.01571 0.64034 0.64343 0.0
H3487 H 0.9451 0.643 0.61588 0.0
H3488 H 0.96568 0.64005 0.63228 0.0
H3489 H 0.00407 0.65356 0.61102 0.0
H3490 H 0.06168 0.61972 0.64181 0.0
H3491 H 0.04478 0.63934 0.63648 0.0
C3492 C 0.35031 0.95249 0.61774 0.0
C3493 C 0.33869 0.95343 0.60796 0.0
C3494 C 0.35297 0.96372 0.62752 0.0
C3495 C 0.35094 0.00216 0.62753 0.0
H3496 H 0.36506 -0.00092 0.66699 0.0
C3497 C 0.38558 0.04761 0.65076 0.0
C3498 C 0.39807 0.04285 0.65802 0.0
C3499 C 0.37405 0.0381 0.64839 0.0
C3500 C 0.36118 0.00014 0.65596 0.0
H3501 H 0.32013 0.96634 0.6014 0.0
H3502 H 0.32507 0.98615 0.61827 0.0
H3503 H 0.35231 0.97863 0.65598 0.0
H3504 H 0.40805 0.02474 0.66917 0.0
H3505 H 0.38844 0.00796 0.66435 0.0
H3506 H 0.36083 0.02296 0.6268 0.0
C3507 C 0.33201 0.97668 0.6184 0.0
C3508 C 0.35379 0.98847 0.64974 0.0
C3509 C 0.32923 0.96536 0.60876 0.0
C3510 C 0.39854 0.02868 0.66352 0.0
C3511 C 0.38717 0.01909 0.66087 0.0
C3512 C 0.35855 0.01368 0.63362 0.0
C3513 C 0.34415 0.97613 0.62755 0.0
C3514 C 0.34904 0.98924 0.63531 0.0
C3515 C 0.37494 0.02355 0.6529 0.0
C3516 C 0.36426 0.01262 0.64773 0.0
H3517 H 0.3577 0.94337 0.61745 0.0
H3518 H 0.36249 0.96312 0.63438 0.0
H3519 H 0.34753 0.00295 0.61631 0.0
H3520 H 0.38487 0.05858 0.64663 0.0
H3521 H 0.36465 0.04205 0.64256 0.0
C3522 C 0.95331 0.38969 0.64694 0.0
C3523 C 0.95477 0.40012 0.65794 0.0
C3524 C 0.96474 0.3803 0.64377 0.0
C3525 C 0.00351 0.38052 0.64319 0.0
H3526 H 6e-05 0.33955 0.63445 0.0
C3527 C 0.04962 0.35145 0.614 0.0
C3528 C 0.04528 0.34243 0.60253 0.0
C3529 C 0.03961 0.35593 0.62441 0.0
C3530 C 0.0012 0.351 0.63679 0.0
H3531 H 0.96906 0.40854 0.67463 0.0
H3532 H 0.98916 0.39232 0.66881 0.0
H3533 H 0.97987 0.35227 0.64596 0.0
H3534 H 0.02731 0.33042 0.59333 0.0
H3535 H 0.00969 0.33875 0.611 0.0
H3536 H 0.02426 0.37973 0.63315 0.0
C3537 C 0.97913 0.39137 0.66276 0.0
C3538 C 0.98967 0.35822 0.64345 0.0
C3539 C 0.96764 0.40062 0.66608 0.0
C3540 C 0.03095 0.33737 0.60207 0.0
C3541 C 0.02087 0.34208 0.61231 0.0
C3542 C 0.01491 0.37339 0.63633 0.0
C3543 C 0.97787 0.38132 0.65141 0.0
C3544 C 0.99064 0.37311 0.64641 0.0
C3545 C 0.02498 0.35174 0.62338 0.0
C3546 C 0.01378 0.35862 0.63271 0.0
H3547 H 0.94348 0.38902 0.64054 0.0
H3548 H 0.96357 0.37273 0.63486 0.0
H3549 H 0.00443 0.39206 0.6452 0.0
H3550 H 0.06068 0.35533 0.61472 0.0
H3551 H 0.04325 0.36306 0.633 0.0
C3552 C 0.64909 0.95634 0.38656 0.0
C3553 C 0.66055 0.95731 0.39654 0.0
C3554 C 0.64708 0.96716 0.37619 0.0
C3555 C 0.65069 0.00543 0.37409 0.0
H3556 H 0.63785 0.0007 0.33435 0.0
C3557 C 0.61905 0.05096 0.34721 0.0
C3558 C 0.60659 0.04636 0.3398 0.0
C3559 C 0.63008 0.04111 0.35043 0.0
C3560 C 0.64138 0.00222 0.34545 0.0
H3561 H 0.67941 0.96985 0.40293 0.0
H3562 H 0.6756 0.98897 0.38502 0.0
H3563 H 0.64923 0.98037 0.34698 0.0
H3564 H 0.59618 0.02815 0.32922 0.0
H3565 H 0.61487 0.01081 0.33554 0.0
H3566 H 0.64177 0.02666 0.37327 0.0
C3567 C 0.66829 0.97978 0.38519 0.0
C3568 C 0.64799 0.99061 0.35259 0.0
C3569 C 0.67043 0.96886 0.39543 0.0
C3570 C 0.60568 0.03197 0.33497 0.0
C3571 C 0.61652 0.02205 0.33849 0.0
C3572 C 0.64385 0.01691 0.36708 0.0
C3573 C 0.65638 0.9792 0.37575 0.0
C3574 C 0.65227 0.99202 0.36712 0.0
C3575 C 0.62867 0.02638 0.34666 0.0
C3576 C 0.63861 0.0153 0.35284 0.0
H3577 H 0.64139 0.94749 0.38709 0.0
H3578 H 0.63771 0.96656 0.36912 0.0
H3579 H 0.65376 0.00673 0.38536 0.0
H3580 H 0.62011 0.06208 0.35083 0.0
H3581 H 0.63945 0.04495 0.35637 0.0
C3582 C 0.02675 0.64584 0.41142 0.0
C3583 C 0.04075 0.64426 0.40576 0.0
C3584 C 0.01472 0.64473 0.40241 0.0
C3585 C 0.00264 0.64175 0.36391 0.0
H3586 H 0.97199 0.61917 0.38171 0.0
C3587 C 0.96079 0.6056 0.33439 0.0
C3588 C 0.94717 0.60394 0.341 0.0
C3589 C 0.97106 0.61497 0.3404 0.0
C3590 C 0.98027 0.62577 0.37663 0.0
H3591 H 0.05336 0.64089 0.38627 0.0
H3592 H 0.03218 0.63801 0.37048 0.0
H3593 H 0.99251 0.62653 0.39611 0.0
H3594 H 0.93288 0.61211 0.35779 0.0
H3595 H 0.95072 0.62858 0.36814 0.0
H3596 H 0.9905 0.64004 0.3441 0.0
C3597 C 0.03049 0.64055 0.38181 0.0
C3598 C 0.99209 0.63003 0.38491 0.0
C3599 C 0.0426 0.64206 0.39083 0.0
C3600 C 0.94341 0.61296 0.35266 0.0
C3601 C 0.95361 0.62239 0.35858 0.0
C3602 C 0.99079 0.63731 0.35552 0.0
C3603 C 0.0164 0.64155 0.3876 0.0
C3604 C 0.00348 0.63799 0.37868 0.0
C3605 C 0.96777 0.62285 0.35302 0.0
C3606 C 0.97955 0.6292 0.36183 0.0
H3607 H 0.02509 0.64791 0.42287 0.0
H3608 H 0.00406 0.64603 0.40716 0.0
H3609 H 0.01118 0.64798 0.35881 0.0
H3610 H 0.96393 0.59884 0.32531 0.0
H3611 H 0.98191 0.61511 0.33591 0.0
C3612 C 0.3476 0.04463 0.38238 0.0
C3613 C 0.33607 0.04391 0.39229 0.0
C3614 C 0.35014 0.0332 0.37279 0.0
C3615 C 0.34808 0.9948 0.37373 0.0
H3616 H 0.3618 0.99684 0.33407 0.0
C3617 C 0.38203 0.94847 0.35098 0.0
C3618 C 0.3944 0.9529 0.34332 0.0
C3619 C 0.3707 0.95819 0.35344 0.0
C3620 C 0.35804 0.99608 0.34516 0.0
H3621 H 0.31752 0.03121 0.39924 0.0
H3622 H 0.32225 0.01106 0.38273 0.0
H3623 H 0.34922 0.0176 0.34469 0.0
H3624 H 0.40439 0.97067 0.33165 0.0
H3625 H 0.38514 0.98784 0.33662 0.0
H3626 H 0.35793 0.97399 0.37488 0.0
C3627 C 0.32922 0.02051 0.38234 0.0
C3628 C 0.35074 0.00792 0.35116 0.0
C3629 C 0.32655 0.03203 0.39178 0.0
C3630 C 0.39497 0.96698 0.3376 0.0
C3631 C 0.38381 0.97679 0.34034 0.0
C3632 C 0.35561 0.9831 0.36786 0.0
C3633 C 0.34129 0.02082 0.3731 0.0
C3634 C 0.34612 0.00752 0.36564 0.0
C3635 C 0.37168 0.97264 0.34862 0.0
C3636 C 0.36116 0.98378 0.35367 0.0
H3637 H 0.35503 0.05372 0.38245 0.0
H3638 H 0.3596 0.03362 0.36586 0.0
H3639 H 0.34478 0.9943 0.385 0.0
H3640 H 0.38124 0.93758 0.35529 0.0
H3641 H 0.36137 0.95449 0.35953 0.0
C3642 C 0.04925 0.38093 0.34424 0.0
C3643 C 0.04567 0.39236 0.33487 0.0
C3644 C 0.03841 0.37195 0.34976 0.0
C3645 C 0.01405 0.36696 0.3704 0.0
H3646 H 0.97586 0.361 0.35391 0.0
C3647 C 0.96385 0.36889 0.40582 0.0
C3648 C 0.95276 0.35876 0.40347 0.0
C3649 C 0.97524 0.37013 0.396 0.0
C3650 C 0.98652 0.36238 0.35863 0.0
H3651 H 0.02829 0.40253 0.32277 0.0
H3652 H 0.00932 0.38741 0.3329 0.0
H3653 H 0.99638 0.36593 0.33792 0.0
H3654 H 0.94462 0.34227 0.38877 0.0
H3655 H 0.9647 0.34438 0.37161 0.0
H3656 H 0.00426 0.36346 0.39106 0.0
C3657 C 0.02044 0.38505 0.3358 0.0
C3658 C 0.99825 0.36531 0.3495 0.0
C3659 C 0.03132 0.39383 0.33005 0.0
C3660 C 0.95303 0.35019 0.39086 0.0
C3661 C 0.9645 0.35139 0.38103 0.0
C3662 C 0.0024 0.36391 0.37947 0.0
C3663 C 0.02378 0.3745 0.3463 0.0
C3664 C 0.01205 0.36818 0.35534 0.0
C3665 C 0.97585 0.36119 0.38367 0.0
C3666 C 0.98842 0.36219 0.37375 0.0
H3667 H 0.0603 0.37941 0.34791 0.0
H3668 H 0.04142 0.36361 0.35747 0.0
H3669 H 0.02443 0.36924 0.37539 0.0
H3670 H 0.96386 0.37574 0.41536 0.0
H3671 H 0.98362 0.37807 0.39812 0.0
C3672 C 0.66965 0.6043 0.96398 0.0
C3673 C 0.66013 0.60462 0.95208 0.0
C3674 C 0.66768 0.6138 0.97559 0.0
C3675 C 0.64916 0.64668 0.98834 0.0
H3676 H 0.64044 0.62389 0.02254 0.0
C3677 C 0.6077 0.66478 0.03044 0.0
C3678 C 0.6079 0.65882 0.04443 0.0
C3679 C 0.61836 0.66104 0.02039 0.0
C3680 C 0.64323 0.63061 0.01334 0.0
H3681 H 0.64189 0.61587 0.94241 0.0
H3682 H 0.63857 0.63259 0.96269 0.0
H3683 H 0.65198 0.61244 0.00195 0.0
H3684 H 0.62006 0.64542 0.05939 0.0
H3685 H 0.63913 0.63944 0.04209 0.0
H3686 H 0.64026 0.66485 -0.00036 0.0
C3687 C 0.64748 0.62495 0.96303 0.0
C3688 C 0.6498 0.62398 0.00148 0.0
C3689 C 0.64931 0.61531 0.9515 0.0
C3690 C 0.61955 0.64997 0.04858 0.0
C3691 C 0.63042 0.64649 0.03862 0.0
C3692 C 0.64284 0.65343 0.00035 0.0
C3693 C 0.65634 0.62392 0.97538 0.0
C3694 C 0.65231 0.63181 0.9887 0.0
C3695 C 0.62962 0.65148 0.02421 0.0
C3696 C 0.6392 0.64532 0.01277 0.0
H3697 H 0.67814 0.59623 0.96471 0.0
H3698 H 0.67465 0.61285 0.985 0.0
H3699 H 0.65113 0.65295 0.9786 0.0
H3700 H 0.59883 0.67163 0.02693 0.0
H3701 H 0.61718 0.66497 0.0094 0.0
C3702 C 0.38889 0.65002 0.95131 0.0
C3703 C 0.40348 0.64819 0.95532 0.0
C3704 C 0.37789 0.64852 0.96164 0.0
C3705 C 0.3715 0.64475 0.0014 0.0
H3706 H 0.3438 0.61542 0.98969 0.0
C3707 C 0.35015 0.58957 0.02588 0.0
C3708 C 0.34655 0.59345 0.04014 0.0
C3709 C 0.35184 0.60015 0.01528 0.0
C3710 C 0.3513 0.62378 0.99311 0.0
H3711 H 0.41804 0.64412 0.97334 0.0
H3712 H 0.39901 0.64123 0.99115 0.0
H3713 H 0.35761 0.6283 0.97131 0.0
H3714 H 0.34129 0.61141 0.05439 0.0
H3715 H 0.34448 0.63007 0.03576 0.0
H3716 H 0.36626 0.63916 0.02325 0.0
C3717 C 0.39597 0.64404 0.98016 0.0
C3718 C 0.35911 0.63128 0.98257 0.0
C3719 C 0.4069 0.64547 0.96988 0.0
C3720 C 0.34417 0.60813 0.04349 0.0
C3721 C 0.34595 0.61878 0.03285 0.0
C3722 C 0.36376 0.63717 0.01195 0.0
C3723 C 0.38133 0.64528 0.97612 0.0
C3724 C 0.36996 0.64114 0.98667 0.0
C3725 C 0.35001 0.61489 0.01868 0.0
C3726 C 0.3543 0.62595 0.00789 0.0
H3727 H 0.38595 0.65224 0.94016 0.0
H3728 H 0.3667 0.64955 0.95823 0.0
H3729 H 0.37956 0.65257 0.00484 0.0
H3730 H 0.35194 0.57835 0.02292 0.0
H3731 H 0.35527 0.59679 0.00457 0.0
C3732 C 0.40754 0.35385 0.02692 0.0
C3733 C 0.40383 0.34858 0.04069 0.0
C3734 C 0.39716 0.3547 0.01601 0.0
C3735 C 0.35857 0.36002 0.01147 0.0
H3736 H 0.37002 0.3582 0.97106 0.0
C3737 C 0.34428 0.38637 0.9517 0.0
C3738 C 0.3434 0.40073 0.9567 0.0
C3739 C 0.34695 0.37505 0.96144 0.0
C3740 C 0.36637 0.3584 0.98221 0.0
H3741 H 0.38642 0.33963 0.05374 0.0
H3742 H 0.36815 0.34125 0.03458 0.0
H3743 H 0.38465 0.34605 0.98929 0.0
H3744 H 0.34359 0.41443 0.97583 0.0
H3745 H 0.34848 0.39493 0.99264 0.0
H3746 H 0.34061 0.37286 0.00444 0.0
C3747 C 0.37913 0.34473 0.03229 0.0
C3748 C 0.37487 0.35159 0.99269 0.0
C3749 C 0.38957 0.34386 0.04325 0.0
C3750 C 0.34438 0.40349 0.97163 0.0
C3751 C 0.34696 0.39224 0.98131 0.0
C3752 C 0.35 0.36672 0.00097 0.0
C3753 C 0.38281 0.35029 0.01859 0.0
C3754 C 0.3716 0.35321 0.00748 0.0
C3755 C 0.34865 0.37794 0.97631 0.0
C3756 C 0.3544 0.36684 0.98638 0.0
H3757 H 0.41845 0.35752 0.02457 0.0
H3758 H 0.4003 0.35937 0.0057 0.0
H3759 H 0.35569 0.36138 0.02277 0.0
H3760 H 0.34346 0.38394 0.94024 0.0
H3761 H 0.34816 0.36413 0.95729 0.0
C3762 C 0.64801 0.38288 0.04382 0.0
C3763 C 0.65921 0.39316 0.04315 0.0
C3764 C 0.64554 0.37353 0.03217 0.0
C3765 C 0.6468 0.37514 0.99375 0.0
H3766 H 0.63622 0.3345 0.99503 0.0
C3767 C 0.61506 0.35057 0.94674 0.0
C3768 C 0.60338 0.34177 0.95089 0.0
C3769 C 0.62607 0.35381 0.95662 0.0
C3770 C 0.63908 0.34587 0.99448 0.0
H3771 H 0.6772 0.40111 0.03021 0.0
H3772 H 0.67256 0.38502 0.00972 0.0
H3773 H 0.64797 0.34568 0.016 0.0
H3774 H 0.59434 0.32887 0.96832 0.0
H3775 H 0.61294 0.33512 0.98575 0.0
H3776 H 0.63688 0.37591 0.97294 0.0
C3777 C 0.66582 0.38415 0.01929 0.0
C3778 C 0.6459 0.35219 0.00644 0.0
C3779 C 0.66843 0.39334 0.03102 0.0
C3780 C 0.60324 0.33569 0.96482 0.0
C3781 C 0.61404 0.33918 0.9748 0.0
C3782 C 0.63973 0.36893 0.98194 0.0
C3783 C 0.65411 0.37446 0.01963 0.0
C3784 C 0.64945 0.36697 0.00629 0.0
C3785 C 0.6254 0.34861 0.97096 0.0
C3786 C 0.63534 0.35432 0.98232 0.0
H3787 H 0.64081 0.38243 0.05309 0.0
H3788 H 0.63635 0.36622 0.03261 0.0
H3789 H 0.64929 0.38662 0.99344 0.0
H3790 H 0.61553 0.35521 0.93595 0.0
H3791 H 0.63484 0.36078 0.95313 0.0
C3792 C 0.08449 0.38192 0.10457 0.0
C3793 C 0.06991 0.3861 0.1054 0.0
C3794 C 0.09035 0.37725 0.09144 0.0
C3795 C 0.08537 0.38456 0.05328 0.0
H3796 H 0.11691 0.35711 0.0486 0.0
C3797 C 0.1296 0.3923 0.01093 0.0
C3798 C 0.13326 0.38048 0.00208 0.0
C3799 C 0.12052 0.39043 0.02285 0.0
C3800 C 0.10798 0.36466 0.04969 0.0
H3801 H 0.04965 0.38764 0.09371 0.0
H3802 H 0.0599 0.37948 0.07056 0.0
H3803 H 0.1025 0.35695 0.07093 0.0
H3804 H 0.13113 0.35724 -0.00067 0.0
H3805 H 0.11538 0.3539 0.02053 0.0
H3806 H 0.09117 0.39265 0.03234 0.0
C3807 C 0.06684 0.37994 0.08002 0.0
C3808 C 0.0998 0.36462 0.06247 0.0
C3809 C 0.06096 0.38454 0.09322 0.0
C3810 C 0.12833 0.36657 0.00588 0.0
C3811 C 0.11933 0.36466 0.01796 0.0
C3812 C 0.0936 0.38467 0.04061 0.0
C3813 C 0.08171 0.37673 0.0789 0.0
C3814 C 0.08866 0.37483 0.06453 0.0
C3815 C 0.11512 0.37665 0.02636 0.0
C3816 C 0.10524 0.37502 0.03888 0.0
H3817 H 0.09152 0.38291 0.11394 0.0
H3818 H 0.10186 0.37496 0.09092 0.0
H3819 H 0.07697 0.39266 0.05458 0.0
H3820 H 0.13379 0.40302 0.00874 0.0
H3821 H 0.11781 0.39979 0.02942 0.0
C3822 C 0.62251 0.12095 0.00656 0.0
C3823 C 0.62513 0.13592 0.00669 0.0
C3824 C 0.6244 0.11275 0.01912 0.0
C3825 C 0.62343 0.11722 0.05845 0.0
H3826 H 0.63539 0.0769 0.05856 0.0
C3827 C 0.6175 0.08327 0.10982 0.0
C3828 C 0.61063 0.06989 0.10775 0.0
C3829 C 0.62324 0.09079 0.09802 0.0
C3830 C 0.63202 0.08815 0.05869 0.0
H3831 H 0.63299 0.15393 0.0195 0.0
H3832 H 0.63641 0.13957 0.04159 0.0
H3833 H 0.63842 0.09144 0.0366 0.0
H3834 H 0.60494 0.05336 0.09216 0.0
H3835 H 0.61471 0.0666 0.07133 0.0
H3836 H 0.61652 0.1139 0.08026 0.0
C3837 C 0.63253 0.13422 0.03188 0.0
C3838 C 0.63376 0.09647 0.04613 0.0
C3839 C 0.63063 0.14243 0.01927 0.0
C3840 C 0.61027 0.06367 0.09391 0.0
C3841 C 0.61592 0.07124 0.08205 0.0
C3842 C 0.62168 0.10893 0.07096 0.0
C3843 C 0.62911 0.11935 0.03203 0.0
C3844 C 0.62918 0.11101 0.04579 0.0
C3845 C 0.62205 0.0851 0.08392 0.0
C3846 C 0.62568 0.09422 0.07115 0.0
H3847 H 0.61873 0.11562 0.99679 0.0
H3848 H 0.62161 0.10135 0.01886 0.0
H3849 H 0.61957 0.12831 0.05849 0.0
H3850 H 0.61791 0.08817 0.12049 0.0
H3851 H 0.62813 0.1013 0.09987 0.0
C3852 C 0.91409 0.62372 0.10671 0.0
C3853 C 0.92776 0.6171 0.10677 0.0
C3854 C 0.90788 0.62827 0.09369 0.0
C3855 C 0.90864 0.61693 0.05601 0.0
H3856 H 0.88019 0.64753 0.05113 0.0
C3857 C 0.86241 0.61154 0.01548 0.0
C3858 C 0.85955 0.62332 0.00632 0.0
C3859 C 0.87176 0.61309 0.02724 0.0
C3860 C 0.88822 0.63904 0.05227 0.0
H3861 H 0.94637 0.61126 0.09378 0.0
H3862 H 0.93564 0.61942 0.07088 0.0
H3863 H 0.89619 0.64769 0.07233 0.0
H3864 H 0.86336 0.64622 0.00277 0.0
H3865 H 0.87971 0.64901 0.02358 0.0
H3866 H 0.90051 0.60809 0.03619 0.0
C3867 C 0.92956 0.62085 0.08083 0.0
C3868 C 0.89733 0.63909 0.06442 0.0
C3869 C 0.93575 0.61628 0.09389 0.0
C3870 C 0.86549 0.63694 0.00964 0.0
C3871 C 0.87484 0.63853 0.0215 0.0
C3872 C 0.89954 0.61686 0.04395 0.0
C3873 C 0.9153 0.62629 0.08051 0.0
C3874 C 0.90739 0.62783 0.06658 0.0
C3875 C 0.87834 0.6265 0.03018 0.0
C3876 C 0.88897 0.62767 0.04216 0.0
H3877 H 0.90782 0.6245 0.11662 0.0
H3878 H 0.89687 0.63232 0.09385 0.0
H3879 H 0.91612 0.60799 0.0574 0.0
H3880 H 0.85753 0.60105 0.0135 0.0
H3881 H 0.8739 0.60373 0.03402 0.0
C3882 C 0.36003 0.86732 0.00837 0.0
C3883 C 0.37392 0.86223 0.00476 0.0
C3884 C 0.35807 0.87632 0.02045 0.0
C3885 C 0.37846 0.90155 0.04355 0.0
H3886 H 0.34886 0.89455 0.07255 0.0
C3887 C 0.3781 0.93475 0.09569 0.0
C3888 C 0.37817 0.92597 0.1081 0.0
C3889 C 0.37369 0.92903 0.08236 0.0
C3890 C 0.3571 0.89671 0.06447 0.0
H3891 H 0.39636 0.86137 0.01167 0.0
H3892 H 0.39302 0.87719 0.03249 0.0
H3893 H 0.34941 0.87979 0.05048 0.0
H3894 H 0.37257 0.90493 0.11678 0.0
H3895 H 0.36506 0.89482 0.09354 0.0
H3896 H 0.38664 0.91793 0.05768 0.0
C3897 C 0.38372 0.87466 0.02578 0.0
C3898 C 0.35735 0.88832 0.05183 0.0
C3899 C 0.38565 0.86564 0.01382 0.0
C3900 C 0.3727 0.91182 0.10727 0.0
C3901 C 0.36829 0.9061 0.09398 0.0
C3902 C 0.37817 0.90995 0.05611 0.0
C3903 C 0.36998 0.88032 0.02907 0.0
C3904 C 0.36833 0.89037 0.04148 0.0
C3905 C 0.36929 0.91446 0.08128 0.0
C3906 C 0.36776 0.90735 0.06691 0.0
H3907 H 0.35078 0.86472 0.00162 0.0
H3908 H 0.34734 0.88047 0.02282 0.0
H3909 H 0.38691 0.9035 0.03563 0.0
H3910 H 0.38227 0.94572 0.09613 0.0
H3911 H 0.37439 0.93579 0.07279 0.0
C3912 C 0.0795 0.6165 0.89526 0.0
C3913 C 0.07632 0.60177 0.89312 0.0
C3914 C 0.08662 0.62101 0.90788 0.0
C3915 C 0.11265 0.60714 0.93378 0.0
H3916 H 0.10111 0.63856 0.95924 0.0
C3917 C 0.14832 0.62416 0.98165 0.0
C3918 C 0.14099 0.62388 0.99496 0.0
C3919 C 0.14053 0.62414 0.96866 0.0
C3920 C 0.10448 0.62983 0.95215 0.0
H3921 H 0.0773 0.58033 0.90258 0.0
H3922 H 0.08989 0.58814 0.92454 0.0
H3923 H 0.08635 0.63281 0.93782 0.0
H3924 H 0.11994 0.62486 0.0053 0.0
H3925 H 0.10627 0.62473 0.9826 0.0
H3926 H 0.13062 0.60396 0.94805 0.0
C3927 C 0.08697 0.59618 0.9165 0.0
C3928 C 0.09609 0.62659 0.93992 0.0
C3929 C 0.07974 0.59173 0.904 0.0
C3930 C 0.1258 0.62466 0.99514 0.0
C3931 C 0.118 0.6248 0.98216 0.0
C3932 C 0.12112 0.6105 0.94583 0.0
C3933 C 0.09079 0.61079 0.91838 0.0
C3934 C 0.09997 0.61502 0.93082 0.0
C3935 C 0.12528 0.62408 0.96881 0.0
C3936 C 0.11702 0.62172 0.95526 0.0
H3937 H 0.07708 0.62438 0.8869 0.0
H3938 H 0.08951 0.63233 0.9091 0.0
H3939 H 0.11596 0.59828 0.92681 0.0
H3940 H 0.16005 0.62365 0.98128 0.0
H3941 H 0.1464 0.62374 0.9585 0.0
C3942 C 0.37495 0.12067 0.99634 0.0
C3943 C 0.37402 0.13575 0.99451 0.0
C3944 C 0.37281 0.11138 0.9846 0.0
C3945 C 0.35913 0.10946 0.94674 0.0
H3946 H 0.38884 0.07999 0.94274 0.0
C3947 C 0.37706 0.08535 0.8922 0.0
C3948 C 0.38255 0.07119 0.89184 0.0
C3949 C 0.37228 0.09135 0.90523 0.0
C3950 C 0.38023 0.08791 0.9438 0.0
H3951 H 0.3692 0.15294 0.9793 0.0
H3952 H 0.36571 0.13672 0.95861 0.0
H3953 H 0.38763 0.09429 0.96477 0.0
H3954 H 0.38622 0.05167 0.90428 0.0
H3955 H 0.3776 0.06205 0.92717 0.0
H3956 H 0.35208 0.10334 0.92546 0.0
C3957 C 0.36802 0.13205 0.96913 0.0
C3958 C 0.37956 0.09615 0.95646 0.0
C3959 C 0.3701 0.14135 0.98093 0.0
C3960 C 0.38209 0.06267 0.9044 0.0
C3961 C 0.37728 0.06865 0.91747 0.0
C3962 C 0.3598 0.10118 0.93405 0.0
C3963 C 0.36967 0.11697 0.97078 0.0
C3964 C 0.3692 0.10723 0.95796 0.0
C3965 C 0.37284 0.08324 0.91813 0.0
C3966 C 0.37056 0.09052 0.93231 0.0
H3967 H 0.37733 0.11603 0.00685 0.0
H3968 H 0.37379 0.0998 0.98631 0.0
H3969 H 0.35088 0.11776 0.94767 0.0
H3970 H 0.37722 0.09203 0.88254 0.0
H3971 H 0.36903 0.10263 0.90535 0.0
C3972 C 0.85601 0.371 0.98048 0.0
C3973 C 0.86229 0.37439 0.99391 0.0
C3974 C 0.86475 0.36875 0.96831 0.0
C3975 C 0.90063 0.37901 0.95458 0.0
H3976 H 0.89077 0.35306 0.923 0.0
C3977 C 0.93217 0.38115 0.90122 0.0
C3978 C 0.92322 0.38252 0.88902 0.0
C3979 C 0.92637 0.37648 0.91441 0.0
C3980 C 0.89367 0.36033 0.93175 0.0
H3981 H 0.88255 0.37656 0.00558 0.0
H3982 H 0.89784 0.37265 0.98438 0.0
H3983 H 0.8773 0.35171 0.94579 0.0
H3984 H 0.9017 0.37889 0.88044 0.0
H3985 H 0.89143 0.37095 0.90351 0.0
H3986 H 0.91664 0.38798 0.94048 0.0
C3987 C 0.88618 0.37224 0.98309 0.0
C3988 C 0.88594 0.35959 0.94478 0.0
C3989 C 0.87744 0.37458 0.99521 0.0
C3990 C 0.9087 0.37812 0.88985 0.0
C3991 C 0.90289 0.37344 0.903 0.0
C3992 C 0.90835 0.37974 0.9416 0.0
C3993 C 0.87994 0.36967 0.96942 0.0
C3994 C 0.88914 0.36915 0.95622 0.0
C3995 C 0.91155 0.37303 0.91555 0.0
C3996 C 0.90475 0.37064 0.92993 0.0
H3997 H 0.84433 0.37071 0.97927 0.0
H3998 H 0.85958 0.36691 0.95793 0.0
H3999 H 0.90324 0.3867 0.96307 0.0
H4000 H 0.94345 0.38438 0.90072 0.0
H4001 H 0.93336 0.37604 0.92384 0.0
C4002 C 0.61653 0.92449 0.90172 0.0
C4003 C 0.61591 0.91718 0.88842 0.0
C4004 C 0.62195 0.91745 0.91401 0.0
C4005 C 0.62475 0.88038 0.92784 0.0
H4006 H 0.6436 0.89884 0.96056 0.0
C4007 C 0.6308 0.85021 0.98178 0.0
C4008 C 0.62603 0.85817 0.99382 0.0
C4009 C 0.63362 0.85723 0.96864 0.0
C4010 C 0.63835 0.89354 0.95149 0.0
H4011 H 0.62151 0.89748 0.877 0.0
H4012 H 0.63129 0.88523 0.89835 0.0
H4013 H 0.64145 0.91189 0.93758 0.0
H4014 H 0.622 0.87972 0.0022 0.0
H4015 H 0.62642 0.89197 0.9792 0.0
H4016 H 0.62111 0.86229 0.94178 0.0
C4017 C 0.62726 0.89621 0.89947 0.0
C4018 C 0.63712 0.90101 0.93835 0.0
C4019 C 0.62175 0.9032 0.88726 0.0
C4020 C 0.62518 0.87333 0.99288 0.0
C4021 C 0.62796 0.88034 0.97977 0.0
C4022 C 0.62598 0.87294 0.94093 0.0
C4023 C 0.6269 0.90303 0.9131 0.0
C4024 C 0.63003 0.89462 0.92647 0.0
C4025 C 0.63181 0.87233 0.96739 0.0
C4026 C 0.63249 0.87954 0.95301 0.0
H4027 H 0.61203 0.93529 0.90279 0.0
H4028 H 0.62142 0.92298 0.92435 0.0
H4029 H 0.61898 0.87522 0.91901 0.0
H4030 H 0.63179 0.83853 0.98237 0.0
H4031 H 0.63684 0.85078 0.95937 0.0
C4032 C 0.00108 0.12245 0.37226 0.0
C4033 C 0.00215 0.13761 0.3728 0.0
C4034 C 0.01354 0.11394 0.37113 0.0
C4035 C 0.0531 0.11515 0.36335 0.0
H4036 H 0.05436 0.08307 0.39049 0.0
C4037 C 0.10588 0.09138 0.3864 0.0
C4038 C 0.10651 0.07651 0.38953 0.0
C4039 C 0.09315 0.09754 0.38107 0.0
C4040 C 0.05412 0.09178 0.38262 0.0
H4041 H 0.0168 0.15588 0.37167 0.0
H4042 H 0.0387 0.14104 0.36999 0.0
H4043 H 0.03191 0.09642 0.38718 0.0
H4044 H 0.09477 0.05622 0.38878 0.0
H4045 H 0.07239 0.06698 0.37933 0.0
H4046 H 0.07554 0.11077 0.35924 0.0
C4047 C 0.02827 0.13567 0.37032 0.0
C4048 C 0.04123 0.09946 0.38072 0.0
C4049 C 0.01577 0.14418 0.37135 0.0
C4050 C 0.09448 0.06773 0.38648 0.0
C4051 C 0.08169 0.07391 0.38118 0.0
C4052 C 0.06602 0.10747 0.36528 0.0
C4053 C 0.02731 0.12044 0.37054 0.0
C4054 C 0.04063 0.11141 0.37127 0.0
C4055 C 0.08079 0.08894 0.37875 0.0
C4056 C 0.06673 0.09589 0.37516 0.0
H4057 H 0.99062 0.11717 0.37279 0.0
H4058 H 0.01239 0.10226 0.37094 0.0
H4059 H 0.05293 0.12415 0.35581 0.0
H4060 H 0.11514 0.0983 0.38847 0.0
H4061 H 0.09279 0.10916 0.37942 0.0
C4062 C 0.93216 0.09597 0.38361 0.0
C4063 C 0.9228 0.1079 0.38468 0.0
C4064 C 0.9267 0.08234 0.37983 0.0
C4065 C 0.89424 0.063 0.36565 0.0
H4066 H 0.90506 0.03369 0.39379 0.0
C4067 C 0.8682 0.00558 0.36775 0.0
C4068 C 0.86402 0.00105 0.38169 0.0
C4069 C 0.87676 0.01797 0.36594 0.0
C4070 C 0.90198 0.04174 0.38581 0.0
H4071 H 0.90081 0.11542 0.38154 0.0
H4072 H 0.89121 0.09165 0.37502 0.0
H4073 H 0.91796 0.05671 0.39334 0.0
H4074 H 0.86459 0.00663 0.40453 0.0
H4075 H 0.87973 0.02794 0.40143 0.0
H4076 H 0.8778 0.04817 0.35859 0.0
C4077 C 0.90273 0.09271 0.37706 0.0
C4078 C 0.90948 0.05486 0.38543 0.0
C4079 C 0.90817 0.10628 0.3809 0.0
C4080 C 0.86818 0.0094 0.39372 0.0
C4081 C 0.87679 0.02168 0.39193 0.0
C4082 C 0.88677 0.04981 0.36599 0.0
C4083 C 0.91183 0.08049 0.37696 0.0
C4084 C 0.90545 0.06579 0.37561 0.0
C4085 C 0.88127 0.02605 0.37805 0.0
C4086 C 0.8903 0.03923 0.37636 0.0
H4087 H 0.9435 0.09702 0.38647 0.0
H4088 H 0.934 0.07314 0.37967 0.0
H4089 H 0.89097 0.07118 0.35789 0.0
H4090 H 0.86504 -0.00058 0.35827 0.0
H4091 H 0.88003 0.02112 0.35511 0.0
C4092 C 0.89194 0.90455 0.38241 0.0
C4093 C 0.89121 0.91904 0.38693 0.0
C4094 C 0.90471 0.899 0.37651 0.0
C4095 C 0.94381 0.90533 0.37802 0.0
H4096 H 0.94493 0.8745 0.34942 0.0
C4097 C 0.99694 0.87602 0.36555 0.0
C4098 C 0.99599 0.86087 0.36629 0.0
C4099 C 0.9844 0.88441 0.36441 0.0
C4100 C 0.94478 0.88311 0.35741 0.0
H4101 H 0.90284 0.93938 0.38816 0.0
H4102 H 0.92519 0.92979 0.37756 0.0
H4103 H 0.92221 0.88736 0.35398 0.0
H4104 H 0.98153 0.84245 0.36526 0.0
H4105 H 0.95948 0.85709 0.36344 0.0
H4106 H 0.96619 0.90084 0.3818 0.0
C4107 C 0.91598 0.92261 0.37881 0.0
C4108 C 0.93179 0.89047 0.36003 0.0
C4109 C 0.90319 0.92814 0.38477 0.0
C4110 C 0.98246 0.85415 0.36478 0.0
C4111 C 0.96988 0.86253 0.36369 0.0
C4112 C 0.95678 0.89802 0.37538 0.0
C4113 C 0.91699 0.90788 0.37495 0.0
C4114 C 0.93109 0.90144 0.37061 0.0
C4115 C 0.9707 0.87777 0.36396 0.0
C4116 C 0.95734 0.88663 0.36528 0.0
H4117 H 0.88273 0.89739 0.38378 0.0
H4118 H 0.90513 0.88759 0.37379 0.0
H4119 H 0.94363 0.91354 0.38642 0.0
H4120 H 0.00735 0.8814 0.36616 0.0
H4121 H 0.98541 0.89611 0.36429 0.0
C4122 C 0.14091 0.98317 0.37183 0.0
C4123 C 0.13432 0.99645 0.37522 0.0
C4124 C 0.13244 0.97082 0.36953 0.0
C4125 C 0.09674 0.95628 0.37948 0.0
H4126 H 0.1075 0.92502 0.3535 0.0
C4127 C 0.06589 0.90246 0.38053 0.0
C4128 C 0.07495 0.89035 0.38197 0.0
C4129 C 0.07163 0.91577 0.37614 0.0
C4130 C 0.10435 0.93368 0.36079 0.0
H4131 H 0.1138 0.00766 0.37739 0.0
H4132 H 0.09899 0.98614 0.37338 0.0
H4133 H 0.12057 0.94805 0.35243 0.0
H4134 H 0.09667 0.88211 0.37884 0.0
H4135 H 0.10683 0.90538 0.37138 0.0
H4136 H 0.08085 0.94186 0.38814 0.0
C4137 C 0.11068 0.9851 0.37301 0.0
C4138 C 0.11185 0.94684 0.3602 0.0
C4139 C 0.11915 0.9974 0.37539 0.0
C4140 C 0.08957 0.89142 0.37798 0.0
C4141 C 0.09532 0.9047 0.37359 0.0
C4142 C 0.08924 0.94317 0.38004 0.0
C4143 C 0.11723 0.97158 0.37042 0.0
C4144 C 0.10832 0.95818 0.36977 0.0
C4145 C 0.08651 0.91713 0.37307 0.0
C4146 C 0.09315 0.93161 0.37091 0.0
H4147 H 0.15261 0.98222 0.37154 0.0
H4148 H 0.13786 0.96056 0.36768 0.0
H4149 H 0.09388 0.96468 0.38717 0.0
H4150 H 0.05453 0.90179 0.38347 0.0
H4151 H 0.06453 0.92511 0.37563 0.0
C4152 C 0.10205 0.92285 0.62481 0.0
C4153 C 0.10544 0.92658 0.61047 0.0
C4154 C 0.0882 0.91765 0.62824 0.0
C4155 C 0.05087 0.91376 0.61319 0.0
H4156 H 0.05029 0.87757 0.6346 0.0
C4157 C 0.00966 0.86918 0.60237 0.0
C4158 C 0.0019 0.86352 0.61417 0.0
C4159 C 0.02131 0.87851 0.60463 0.0
C4160 C 0.05025 0.8878 0.62883 0.0
H4161 H 0.09722 0.92839 0.58859 0.0
H4162 H 0.0732 0.91929 0.59441 0.0
H4163 H 0.07247 0.8921 0.634 0.0
H4164 H 0.00093 0.86236 0.63764 0.0
H4165 H 0.0218 0.87842 0.64158 0.0
H4166 H 0.02896 0.90895 0.60725 0.0
C4167 C 0.08097 0.92052 0.60313 0.0
C4168 C 0.06291 0.89616 0.62853 0.0
C4169 C 0.09475 0.92564 0.59974 0.0
C4170 C 0.0066 0.86672 0.62833 0.0
C4171 C 0.01847 0.87591 0.6306 0.0
C4172 C 0.03833 0.90534 0.61337 0.0
C4173 C 0.07759 0.91618 0.61735 0.0
C4174 C 0.0635 0.90896 0.62024 0.0
C4175 C 0.02572 0.88209 0.61874 0.0
C4176 C 0.03807 0.89207 0.62078 0.0
H4177 H 0.11026 0.92338 0.63319 0.0
H4178 H 0.08589 0.91445 0.6393 0.0
H4179 H 0.05088 0.92373 0.60699 0.0
H4180 H 0.00689 0.86633 0.59135 0.0
H4181 H 0.02703 0.8828 0.59531 0.0
C4182 C 0.08847 0.10733 0.61486 0.0
C4183 C 0.07416 0.10787 0.60978 0.0
C4184 C 0.09432 0.09432 0.61985 0.0
C4185 C 0.09092 0.0561 0.61218 0.0
H4186 H 0.11983 0.05193 0.64248 0.0
C4187 C 0.13597 0.01397 0.60893 0.0
C4188 C 0.13816 0.005 0.62102 0.0
C4189 C 0.12693 0.02603 0.60987 0.0
C4190 C 0.11165 0.0529 0.6341 0.0
H4191 H 0.05436 0.09569 0.60675 0.0
H4192 H 0.06462 0.07273 0.61542 0.0
H4193 H 0.10511 0.07404 0.64125 0.0
H4194 H 0.13351 0.00221 0.64389 0.0
H4195 H 0.11785 0.02368 0.64562 0.0
H4196 H 0.09782 0.03527 0.60469 0.0
C4197 C 0.07133 0.08236 0.6155 0.0
C4198 C 0.10329 0.06553 0.63336 0.0
C4199 C 0.06544 0.09545 0.61061 0.0
C4200 C 0.13187 0.00888 0.63435 0.0
C4201 C 0.12291 0.0211 0.63535 0.0
C4202 C 0.09936 0.04358 0.61284 0.0
C4203 C 0.08596 0.08158 0.61975 0.0
C4204 C 0.09308 0.06739 0.62218 0.0
C4205 C 0.12011 0.02956 0.623 0.0
C4206 C 0.11005 0.04203 0.62357 0.0
H4207 H 0.09532 0.11686 0.61438 0.0
H4208 H 0.10565 0.09404 0.62292 0.0
H4209 H 0.08327 0.05727 0.60336 0.0
H4210 H 0.1412 0.01167 0.59868 0.0
H4211 H 0.12528 0.03264 0.6003 0.0
C4212 C 0.89144 0.08668 0.61258 0.0
C4213 C 0.89108 0.07178 0.60963 0.0
C4214 C 0.90429 0.09326 0.61709 0.0
C4215 C 0.94278 0.08907 0.61158 0.0
H4216 H 0.94573 0.12162 0.63809 0.0
C4217 C 0.9848 0.13375 0.60437 0.0
C4218 C 0.9933 0.13751 0.61642 0.0
C4219 C 0.97282 0.12471 0.60597 0.0
C4220 C 0.9451 0.11243 0.6308 0.0
H4221 H 0.90334 0.0518 0.60993 0.0
H4222 H 0.92602 0.06333 0.61772 0.0
H4223 H 0.92364 0.10682 0.63778 0.0
H4224 H 0.99532 0.13567 0.63976 0.0
H4225 H 0.97396 0.12002 0.64262 0.0
H4226 H 0.96394 0.095 0.60418 0.0
C4227 C 0.91639 0.06994 0.61648 0.0
C4228 C 0.93248 0.10403 0.63057 0.0
C4229 C 0.90347 0.06334 0.61209 0.0
C4230 C 0.98904 0.13278 0.63026 0.0
C4231 C 0.97688 0.12384 0.63191 0.0
C4232 C 0.95529 0.09754 0.61171 0.0
C4233 C 0.91701 0.08502 0.61865 0.0
C4234 C 0.93108 0.09247 0.62072 0.0
C4235 C 0.96888 0.11948 0.6197 0.0
C4236 C 0.95641 0.10951 0.62104 0.0
H4237 H 0.88191 0.09333 0.61089 0.0
H4238 H 0.90445 0.10491 0.61855 0.0
H4239 H 0.94197 0.08033 0.60377 0.0
H4240 H 0.98735 0.13779 0.59367 0.0
H4241 H 0.96656 0.12185 0.59645 0.0
C4242 C 0.85492 0.98068 0.63218 0.0
C4243 C 0.86147 0.99423 0.63016 0.0
C4244 C 0.86346 0.96822 0.63349 0.0
C4245 C 0.89918 0.95535 0.62182 0.0
H4246 H 0.88853 0.92075 0.64316 0.0
C4247 C 0.92959 0.90198 0.61257 0.0
C4248 C 0.92045 0.89015 0.60982 0.0
C4249 C 0.92401 0.91463 0.61877 0.0
C4250 C 0.89165 0.93034 0.63716 0.0
H4251 H 0.88187 0.0058 0.62948 0.0
H4252 H 0.89684 0.98411 0.63194 0.0
H4253 H 0.87555 0.94342 0.64762 0.0
H4254 H 0.8987 0.88171 0.61227 0.0
H4255 H 0.88884 0.90387 0.62279 0.0
H4256 H 0.91489 0.94226 0.61098 0.0
C4257 C 0.88516 0.98296 0.63202 0.0
C4258 C 0.88421 0.94331 0.6397 0.0
C4259 C 0.87662 0.99535 0.63059 0.0
C4260 C 0.90588 0.89081 0.6141 0.0
C4261 C 0.9003 0.90344 0.62029 0.0
C4262 C 0.90661 0.94243 0.6193 0.0
C4263 C 0.87869 0.96919 0.63295 0.0
C4264 C 0.88769 0.95588 0.63181 0.0
C4265 C 0.90921 0.91563 0.62233 0.0
C4266 C 0.90272 0.9297 0.62668 0.0
H4267 H 0.84323 0.97962 0.6319 0.0
H4268 H 0.85812 0.95779 0.63409 0.0
H4269 H 0.90199 0.96473 0.61535 0.0
H4270 H 0.94088 0.90166 0.60936 0.0
H4271 H 0.93119 0.92378 0.62038 0.0
C4272 C 0.36752 0.01977 0.1449 0.0
C4273 C 0.37179 0.0071 0.13766 0.0
C4274 C 0.36573 0.03271 0.13723 0.0
C4275 C 0.36214 0.04833 0.10022 0.0
H4276 H 0.38175 0.08119 0.11757 0.0
C4277 C 0.38283 0.09794 0.06794 0.0
C4278 C 0.3835 0.11131 0.07511 0.0
C4279 C 0.37779 0.08564 0.07525 0.0
C4280 C 0.37593 0.07225 0.11265 0.0
H4281 H 0.37606 0.99753 0.11664 0.0
H4282 H 0.3734 0.02021 0.10325 0.0
H4283 H 0.37952 0.05881 0.13114 0.0
H4284 H 0.37835 0.12283 0.09487 0.0
H4285 H 0.36913 0.10151 0.10756 0.0
H4286 H 0.35894 0.06177 0.08152 0.0
C4287 C 0.37152 0.02024 0.11484 0.0
C4288 C 0.37466 0.05938 0.12046 0.0
C4289 C 0.3733 0.00732 0.12252 0.0
C4290 C 0.37804 0.11253 0.08924 0.0
C4291 C 0.37288 0.10032 0.09649 0.0
C4292 C 0.36338 0.06126 0.09238 0.0
C4293 C 0.36804 0.03316 0.12215 0.0
C4294 C 0.36796 0.0472 0.11427 0.0
C4295 C 0.37325 0.08662 0.0898 0.0
C4296 C 0.37048 0.07331 0.09845 0.0
H4297 H 0.36603 0.01977 0.15655 0.0
H4298 H 0.36277 0.04242 0.14314 0.0
H4299 H 0.35676 0.03917 0.09522 0.0
H4300 H 0.38704 0.09684 0.05703 0.0
H4301 H 0.3783 0.07526 0.0698 0.0
C4302 C 0.37835 0.90396 0.92932 0.0
C4303 C 0.37779 0.89029 0.92275 0.0
C4304 C 0.37245 0.91601 0.92226 0.0
C4305 C 0.36686 0.92793 0.88508 0.0
H4306 H 0.35095 0.96235 0.90318 0.0
C4307 C 0.36286 0.98094 0.85307 0.0
C4308 C 0.3685 0.99299 0.86041 0.0
C4309 C 0.35948 0.96828 0.86068 0.0
C4310 C 0.35539 0.95282 0.89797 0.0
H4311 H 0.36965 0.87798 0.90453 0.0
H4312 H 0.35911 0.89898 0.89223 0.0
H4313 H 0.35291 0.93991 0.91714 0.0
H4314 H 0.37339 0.00202 0.88152 0.0
H4315 H 0.36814 0.97981 0.89478 0.0
H4316 H 0.37009 0.94086 0.86619 0.0
C4317 C 0.36432 0.90053 0.90264 0.0
C4318 C 0.35648 0.93997 0.90596 0.0
C4319 C 0.37026 0.88853 0.90968 0.0
C4320 C 0.3696 0.99263 0.87557 0.0
C4321 C 0.36632 0.97998 0.88318 0.0
C4322 C 0.36585 0.94074 0.87714 0.0
C4323 C 0.36589 0.91449 0.90856 0.0
C4324 C 0.36255 0.92749 0.89969 0.0
C4325 C 0.36162 0.9675 0.87578 0.0
C4326 C 0.36045 0.95345 0.88358 0.0
H4327 H 0.38415 0.90547 0.93942 0.0
H4328 H 0.37392 0.92662 0.92707 0.0
H4329 H 0.37183 0.91859 0.87998 0.0
H4330 H 0.36162 0.98111 0.84139 0.0
H4331 H 0.35557 0.95897 0.85469 0.0
C4332 C 0.00062 0.3677 0.87484 0.0
C4333 C 0.00184 0.36835 0.8597 0.0
C4334 C 0.013 0.36683 0.88348 0.0
C4335 C 0.05279 0.36041 0.88291 0.0
H4336 H 0.05279 0.3887 0.91403 0.0
C4337 C 0.10471 0.38567 0.90625 0.0
C4338 C 0.1051 0.38958 0.92095 0.0
C4339 C 0.09215 0.37982 0.90022 0.0
C4340 C 0.05292 0.38051 0.90561 0.0
H4341 H 0.01669 0.36752 0.84158 0.0
H4342 H 0.03847 0.3662 0.85666 0.0
H4343 H 0.03061 0.38409 0.90065 0.0
H4344 H 0.0931 0.38976 0.94109 0.0
H4345 H 0.07104 0.37933 0.93059 0.0
H4346 H 0.0753 0.35722 0.88762 0.0
C4347 C 0.02797 0.36629 0.86191 0.0
C4348 C 0.04018 0.37787 0.89791 0.0
C4349 C 0.01554 0.36709 0.85326 0.0
C4350 C 0.09299 0.38686 0.92971 0.0
C4351 C 0.08038 0.38099 0.92367 0.0
C4352 C 0.06557 0.36305 0.89063 0.0
C4353 C 0.02685 0.36659 0.87713 0.0
C4354 C 0.04002 0.36801 0.88628 0.0
C4355 C 0.07972 0.37771 0.90878 0.0
C4356 C 0.06584 0.37337 0.90186 0.0
H4357 H 0.99009 0.36816 0.88001 0.0
H4358 H 0.01175 0.36671 0.89516 0.0
H4359 H 0.05296 0.35259 0.87414 0.0
H4360 H 0.11403 0.38748 0.89934 0.0
H4361 H 0.09199 0.37755 0.88869 0.0
C4362 C 0.63196 0.00677 0.86899 0.0
C4363 C 0.61818 0.00139 0.86531 0.0
C4364 C 0.63332 0.01878 0.87819 0.0
C4365 C 0.61409 0.03806 0.90682 0.0
H4366 H 0.63408 0.07282 0.89424 0.0
C4367 C 0.59887 0.09404 0.92785 0.0
C4368 C 0.60938 0.10494 0.92896 0.0
C4369 C 0.60252 0.08043 0.92243 0.0
C4370 C 0.62876 0.06311 0.89812 0.0
H4371 H 0.59506 0.0053 0.86728 0.0
H4372 H 0.59744 0.02567 0.88378 0.0
H4373 H 0.6359 0.05067 0.87978 0.0
H4374 H 0.632 0.11024 0.92582 0.0
H4375 H 0.63858 0.08618 0.91648 0.0
H4376 H 0.60673 0.0504 0.92499 0.0
C4377 C 0.60718 0.02038 0.87986 0.0
C4378 C 0.62977 0.05046 0.8898 0.0
C4379 C 0.60582 0.00859 0.87052 0.0
C4380 C 0.62376 0.10189 0.92512 0.0
C4381 C 0.62747 0.08821 0.91967 0.0
C4382 C 0.61322 0.05061 0.91521 0.0
C4383 C 0.62092 0.02549 0.8839 0.0
C4384 C 0.62201 0.03801 0.89383 0.0
C4385 C 0.61681 0.07741 0.91802 0.0
C4386 C 0.62007 0.06345 0.91067 0.0
H4387 H 0.64168 0.00155 0.86497 0.0
H4388 H 0.64403 0.02265 0.88106 0.0
H4389 H 0.60819 0.0285 0.91024 0.0
H4390 H 0.5877 0.09623 0.93074 0.0
H4391 H 0.59397 0.07251 0.92108 0.0
C4392 C 0.90319 0.61576 0.93557 0.0
C4393 C 0.89104 0.61902 0.92707 0.0
C4394 C 0.91709 0.61893 0.93047 0.0
C4395 C 0.93779 0.63697 0.90068 0.0
H4396 H 0.96143 0.60229 0.90318 0.0
C4397 C 0.99351 0.6303 0.87169 0.0
C4398 C 0.9957 0.61684 0.86489 0.0
C4399 C 0.98149 0.63251 0.88068 0.0
C4400 C 0.95497 0.61206 0.90239 0.0
H4401 H 0.8835 0.62947 0.9075 0.0
H4402 H 0.90775 0.6348 0.89836 0.0
H4403 H 0.93934 0.60399 0.91737 0.0
H4404 H 0.98644 0.59557 0.86118 0.0
H4405 H 0.96563 0.59931 0.87694 0.0
H4406 H 0.95321 0.64468 0.88509 0.0
C4407 C 0.9067 0.62986 0.90896 0.0
C4408 C 0.94241 0.61315 0.9107 0.0
C4409 C 0.89282 0.62674 0.91411 0.0
C4410 C 0.98537 0.60585 0.86674 0.0
C4411 C 0.97341 0.60802 0.87573 0.0
C4412 C 0.95043 0.63589 0.89235 0.0
C4413 C 0.91901 0.62537 0.91677 0.0
C4414 C 0.93348 0.62546 0.90971 0.0
C4415 C 0.97145 0.62128 0.88297 0.0
C4416 C 0.95892 0.62324 0.89284 0.0
H4417 H 0.902 0.60987 0.94567 0.0
H4418 H 0.92636 0.61562 0.93688 0.0
H4419 H 0.9312 0.64664 0.89976 0.0
H4420 H 0.00128 0.63901 0.87036 0.0
H4421 H 0.98024 0.64285 0.8861 0.0
C4422 C 0.6172 0.97882 0.1425 0.0
C4423 C 0.62598 0.99109 0.14069 0.0
C4424 C 0.61954 0.96646 0.13411 0.0
C4425 C 0.63137 0.93958 0.11886 0.0
H4426 H 0.62858 0.94653 0.07746 0.0
C4427 C 0.62521 0.89249 0.07861 0.0
C4428 C 0.61257 0.89397 0.07032 0.0
C4429 C 0.63098 0.90449 0.08587 0.0
C4430 C 0.62959 0.94444 0.08898 0.0
H4431 H 0.6443 0.0001 0.12913 0.0
H4432 H 0.6482 0.97846 0.11406 0.0
H4433 H 0.63129 0.96704 0.0941 0.0
H4434 H 0.5963 0.90888 0.06245 0.0
H4435 H 0.6065 0.92998 0.07486 0.0
H4436 H 0.62904 0.91705 0.11383 0.0
C4437 C 0.63963 0.97839 0.12209 0.0
C4438 C 0.63121 0.95614 0.09847 0.0
C4439 C 0.63746 0.99068 0.13072 0.0
C4440 C 0.6062 0.90764 0.06866 0.0
C4441 C 0.61205 0.91967 0.07573 0.0
C4442 C 0.62995 0.92787 0.10936 0.0
C4443 C 0.63056 0.96625 0.1236 0.0
C4444 C 0.63163 0.95382 0.11352 0.0
C4445 C 0.62422 0.91812 0.08478 0.0
C4446 C 0.62856 0.93023 0.09437 0.0
H4447 H 0.60832 0.97892 0.15019 0.0
H4448 H 0.61231 0.9573 0.13538 0.0
H4449 H 0.63171 0.93753 0.13042 0.0
H4450 H 0.63013 0.88193 0.08013 0.0
H4451 H 0.64037 0.90303 0.09276 0.0
C4452 C 0.11259 0.62141 0.09094 0.0
C4453 C 0.11136 0.61592 0.07683 0.0
C4454 C 0.1004 0.62668 0.09816 0.0
C4455 C 0.06136 0.63628 0.09398 0.0
H4456 H 0.05879 0.62011 0.13271 0.0
C4457 C 0.00737 0.62541 0.1235 0.0
C4458 C 0.00696 0.62664 0.13866 0.0
C4459 C 0.02032 0.62763 0.11599 0.0
C4460 C 0.05939 0.625 0.12205 0.0
H4461 H 0.09689 0.61237 0.05874 0.0
H4462 H 0.07535 0.62129 0.07145 0.0
H4463 H 0.08123 0.61798 0.11925 0.0
H4464 H 0.01925 0.63241 0.15779 0.0
H4465 H 0.04196 0.63644 0.14467 0.0
H4466 H 0.03922 0.6428 0.0967 0.0
C4467 C 0.08573 0.62177 0.07692 0.0
C4468 C 0.07231 0.62378 0.1143 0.0
C4469 C 0.09801 0.61663 0.06964 0.0
C4470 C 0.01941 0.63114 0.14611 0.0
C4471 C 0.03239 0.63337 0.13861 0.0
C4472 C 0.04839 0.63748 0.10175 0.0
C4473 C 0.08671 0.62636 0.09145 0.0
C4474 C 0.0734 0.6292 0.10009 0.0
C4475 C 0.03307 0.63127 0.12351 0.0
C4476 C 0.0472 0.63162 0.11579 0.0
H4477 H 0.12288 0.62103 0.0966 0.0
H4478 H 0.1016 0.63045 0.10922 0.0
H4479 H 0.0619 0.64071 0.08312 0.0
H4480 H 0.99773 0.62245 0.11748 0.0
H4481 H 0.02046 0.62589 0.10438 0.0
C4482 C 0.99357 0.37127 0.12152 0.0
C4483 C 0.99239 0.37203 0.13666 0.0
C4484 C 0.98119 0.36984 0.11295 0.0
C4485 C 0.94165 0.36191 0.1139 0.0
H4486 H 0.94065 0.38875 0.08155 0.0
C4487 C 0.88907 0.38458 0.08925 0.0
C4488 C 0.88866 0.38771 0.07438 0.0
C4489 C 0.90171 0.37926 0.09561 0.0
C4490 C 0.94082 0.38095 0.09034 0.0
H4491 H 0.97765 0.37097 0.15486 0.0
H4492 H 0.95586 0.36878 0.13989 0.0
H4493 H 0.96294 0.38565 0.09518 0.0
H4494 H 0.90068 0.38692 0.05425 0.0
H4495 H 0.92289 0.37747 0.06534 0.0
H4496 H 0.91927 0.35768 0.1093 0.0
C4497 C 0.96633 0.36915 0.13459 0.0
C4498 C 0.95362 0.37917 0.09818 0.0
C4499 C 0.97876 0.37046 0.14318 0.0
C4500 C 0.9008 0.38463 0.06577 0.0
C4501 C 0.9135 0.37933 0.07213 0.0
C4502 C 0.9288 0.36372 0.10606 0.0
C4503 C 0.96738 0.36921 0.11936 0.0
C4504 C 0.95413 0.36983 0.11021 0.0
C4505 C 0.9142 0.37695 0.08719 0.0
C4506 C 0.92818 0.37348 0.09436 0.0
H4507 H 0.00406 0.37196 0.1163 0.0
H4508 H 0.98242 0.36954 0.10128 0.0
H4509 H 0.94174 0.35446 0.12298 0.0
H4510 H 0.87972 0.38668 0.09605 0.0
H4511 H 0.90191 0.37765 0.10724 0.0
C4512 C 0.58543 0.86404 0.60416 0.0
C4513 C 0.57198 0.87091 0.60576 0.0
C4514 C 0.59053 0.86042 0.59038 0.0
C4515 C 0.58664 0.87557 0.5542 0.0
H4516 H 0.61673 0.84774 0.54486 0.0
C4517 C 0.63144 0.88898 0.51401 0.0
C4518 C 0.63553 0.87849 0.50379 0.0
C4519 C 0.62204 0.88543 0.52528 0.0
C4520 C 0.6082 0.85546 0.54721 0.0
H4521 H 0.55241 0.87763 0.59476 0.0
H4522 H 0.56105 0.87088 0.57061 0.0
H4523 H 0.60172 0.84411 0.56643 0.0
H4524 H 0.63363 0.85586 0.49775 0.0
H4525 H 0.61717 0.84958 0.51765 0.0
H4526 H 0.59326 0.88708 0.53522 0.0
C4527 C 0.56792 0.86873 0.57989 0.0
C4528 C 0.59966 0.85343 0.55959 0.0
C4529 C 0.5629 0.87247 0.59369 0.0
C4530 C 0.63056 0.86418 0.50545 0.0
C4531 C 0.62115 0.8606 0.5168 0.0
C4532 C 0.59513 0.87758 0.54187 0.0
C4533 C 0.58214 0.8635 0.57801 0.0
C4534 C 0.58909 0.86373 0.56347 0.0
C4535 C 0.6166 0.87127 0.52667 0.0
C4536 C 0.60633 0.86784 0.53853 0.0
H4537 H 0.59248 0.86255 0.61344 0.0
H4538 H 0.60151 0.85641 0.58938 0.0
H4539 H 0.57875 0.88384 0.55688 0.0
H4540 H 0.63557 0.89994 0.51337 0.0
H4541 H 0.6191 0.89379 0.53299 0.0
C4542 C 0.11362 0.63638 0.51449 0.0
C4543 C 0.12495 0.63792 0.50447 0.0
C4544 C 0.11522 0.62742 0.52653 0.0
C4545 C 0.1397 0.61174 0.55217 0.0
H4546 H 0.10958 0.58265 0.55624 0.0
C4547 C 0.11883 0.58936 0.60621 0.0
C4548 C 0.11381 0.57503 0.60683 0.0
C4549 C 0.12456 0.59487 0.59335 0.0
C4550 C 0.11827 0.59048 0.55516 0.0
H4551 H 0.1473 0.63237 0.49982 0.0
H4552 H 0.15026 0.61689 0.52134 0.0
H4553 H 0.11081 0.59721 0.53425 0.0
H4554 H 0.11177 0.55483 0.59509 0.0
H4555 H 0.1217 0.56452 0.5724 0.0
H4556 H 0.14665 0.60552 0.57349 0.0
C4557 C 0.14003 0.62236 0.51954 0.0
C4558 C 0.11888 0.59889 0.54263 0.0
C4559 C 0.13834 0.63121 0.50731 0.0
C4560 C 0.11555 0.56594 0.59477 0.0
C4561 C 0.12117 0.57149 0.58183 0.0
C4562 C 0.13899 0.60342 0.56484 0.0
C4563 C 0.12831 0.62009 0.52898 0.0
C4564 C 0.12931 0.60985 0.54122 0.0
C4565 C 0.12525 0.58616 0.58087 0.0
C4566 C 0.128 0.59298 0.5666 0.0
H4567 H 0.10341 0.64195 0.51296 0.0
H4568 H 0.10617 0.62612 0.5339 0.0
H4569 H 0.14784 0.62015 0.55127 0.0
H4570 H 0.1177 0.59648 0.61548 0.0
H4571 H 0.12749 0.60624 0.59291 0.0
C4572 C 0.41049 0.11331 0.60525 0.0
C4573 C 0.42516 0.10936 0.60583 0.0
C4574 C 0.40438 0.11814 0.59227 0.0
C4575 C 0.40913 0.11188 0.55384 0.0
H4576 H 0.37752 0.13935 0.54989 0.0
C4577 C 0.36546 0.1056 0.51068 0.0
C4578 C 0.36215 0.11769 0.50205 0.0
C4579 C 0.37422 0.10706 0.52288 0.0
C4580 C 0.38646 0.13179 0.5508 0.0
H4581 H 0.44526 0.1083 0.59378 0.0
H4582 H 0.4346 0.11682 0.57099 0.0
H4583 H 0.39178 0.13881 0.57233 0.0
H4584 H 0.36453 0.14098 0.50001 0.0
H4585 H 0.37973 0.14359 0.52174 0.0
H4586 H 0.4035 0.10448 0.5326 0.0
C4587 C 0.42779 0.11605 0.58052 0.0
C4588 C 0.39455 0.13142 0.56363 0.0
C4589 C 0.4339 0.11127 0.59354 0.0
C4590 C 0.36708 0.13145 0.50639 0.0
C4591 C 0.37576 0.13294 0.51876 0.0
C4592 C 0.40098 0.11216 0.54113 0.0
C4593 C 0.41286 0.11906 0.57965 0.0
C4594 C 0.40576 0.12123 0.56539 0.0
C4595 C 0.37964 0.12069 0.52692 0.0
C4596 C 0.38934 0.12185 0.53963 0.0
H4597 H 0.40361 0.11206 0.61468 0.0
H4598 H 0.39284 0.12027 0.59193 0.0
H4599 H 0.41758 0.10379 0.55491 0.0
H4600 H 0.36123 0.09498 0.50808 0.0
H4601 H 0.3767 0.0975 0.52925 0.0
C4602 C 0.88775 0.35335 0.51848 0.0
C4603 C 0.87637 0.35321 0.50839 0.0
C4604 C 0.88699 0.36217 0.53072 0.0
C4605 C 0.86314 0.38289 0.55473 0.0
H4606 H 0.89768 0.4062 0.56052 0.0
C4607 C 0.87927 0.41101 0.60833 0.0
C4608 C 0.88622 0.42449 0.60745 0.0
C4609 C 0.87508 0.40377 0.59571 0.0
C4610 C 0.88787 0.39994 0.55894 0.0
H4611 H 0.85479 0.36118 0.50369 0.0
H4612 H 0.85339 0.37663 0.52533 0.0
H4613 H 0.89636 0.38969 0.53998 0.0
H4614 H 0.89372 0.44142 0.59311 0.0
H4615 H 0.88649 0.42871 0.57088 0.0
H4616 H 0.85482 0.393 0.57398 0.0
C4617 C 0.86294 0.37001 0.52364 0.0
C4618 C 0.8872 0.39034 0.54729 0.0
C4619 C 0.86373 0.36118 0.51131 0.0
C4620 C 0.88826 0.43105 0.59392 0.0
C4621 C 0.88421 0.42375 0.58128 0.0
C4622 C 0.86387 0.39242 0.56653 0.0
C4623 C 0.87479 0.37093 0.53318 0.0
C4624 C 0.87494 0.38157 0.54519 0.0
C4625 C 0.878 0.40984 0.58205 0.0
C4626 C 0.87632 0.40093 0.5688 0.0
H4627 H 0.89742 0.34694 0.51669 0.0
H4628 H 0.89612 0.36239 0.53811 0.0
H4629 H 0.85356 0.37625 0.55332 0.0
H4630 H 0.87776 0.40578 0.61874 0.0
H4631 H 0.87046 0.39302 0.59663 0.0
C4632 C 0.5724 0.11729 0.40202 0.0
C4633 C 0.58072 0.11488 0.38953 0.0
C4634 C 0.57897 0.12252 0.41464 0.0
C4635 C 0.61276 0.13845 0.42983 0.0
H4636 H 0.60512 0.11244 0.46196 0.0
C4637 C 0.64121 0.14016 0.48682 0.0
C4638 C 0.64624 0.12653 0.4914 0.0
C4639 C 0.63265 0.14136 0.47433 0.0
C4640 C 0.60728 0.11986 0.45312 0.0
H4641 H 0.60196 0.11717 0.37986 0.0
H4642 H 0.6135 0.12623 0.40189 0.0
H4643 H 0.5902 0.11104 0.44024 0.0
H4644 H 0.64765 0.10377 0.48572 0.0
H4645 H 0.63244 0.10578 0.46425 0.0
H4646 H 0.63026 0.14687 0.44271 0.0
C4647 C 0.60195 0.12412 0.40203 0.0
C4648 C 0.59865 0.11918 0.44074 0.0
C4649 C 0.59541 0.1188 0.38947 0.0
C4650 C 0.64339 0.11431 0.4828 0.0
C4651 C 0.63476 0.11546 0.47048 0.0
C4652 C 0.62134 0.13924 0.44234 0.0
C4653 C 0.59392 0.12553 0.41489 0.0
C4654 C 0.60153 0.12818 0.42881 0.0
C4655 C 0.62901 0.12892 0.46632 0.0
C4656 C 0.61892 0.12963 0.45389 0.0
H4657 H 0.56103 0.11435 0.40226 0.0
H4658 H 0.57249 0.12365 0.42437 0.0
H4659 H 0.61517 0.14557 0.42081 0.0
H4660 H 0.64339 0.14977 0.49321 0.0
H4661 H 0.62842 0.15187 0.47124 0.0
C4662 C 0.88351 0.56179 0.40326 0.0
C4663 C 0.88431 0.57111 0.39129 0.0
C4664 C 0.87916 0.56712 0.41678 0.0
C4665 C 0.86262 0.59883 0.43547 0.0
H4666 H 0.89007 0.5894 0.46587 0.0
C4667 C 0.87289 0.63579 0.48474 0.0
C4668 C 0.87673 0.62943 0.49801 0.0
C4669 C 0.87087 0.62721 0.47242 0.0
C4670 C 0.88209 0.59195 0.45764 0.0
H4671 H 0.88023 0.59288 0.38358 0.0
H4672 H 0.87275 0.60227 0.40715 0.0
H4673 H 0.89118 0.57655 0.44291 0.0
H4674 H 0.88004 0.60904 0.50919 0.0
H4675 H 0.87656 0.59401 0.48772 0.0
H4676 H 0.85383 0.61457 0.4501 0.0
C4677 C 0.87541 0.59087 0.40621 0.0
C4678 C 0.88273 0.58456 0.44446 0.0
C4679 C 0.8798 0.58556 0.39275 0.0
C4680 C 0.87769 0.61427 0.49896 0.0
C4681 C 0.8756 0.60567 0.48668 0.0
C4682 C 0.86196 0.60622 0.44869 0.0
C4683 C 0.87547 0.58183 0.41847 0.0
C4684 C 0.87323 0.58815 0.4331 0.0
C4685 C 0.87248 0.61205 0.47319 0.0
C4686 C 0.87192 0.6031 0.4598 0.0
H4687 H 0.88694 0.5506 0.40235 0.0
H4688 H 0.87914 0.55985 0.426 0.0
H4689 H 0.85504 0.60171 0.42697 0.0
H4690 H 0.872 0.64746 0.48376 0.0
H4691 H 0.86861 0.6325 0.46219 0.0
C4692 C 0.43082 0.88201 0.40532 0.0
C4693 C 0.42168 0.88455 0.39344 0.0
C4694 C 0.42505 0.87715 0.41846 0.0
C4695 C 0.39183 0.86287 0.43636 0.0
H4696 H 0.40288 0.88909 0.46732 0.0
C4697 C 0.36558 0.86402 0.49417 0.0
C4698 C 0.36134 0.878 0.49852 0.0
C4699 C 0.37402 0.86208 0.48169 0.0
C4700 C 0.39978 0.8816 0.45882 0.0
H4701 H 0.39972 0.88284 0.38539 0.0
H4702 H 0.38956 0.87448 0.40834 0.0
H4703 H 0.41635 0.88932 0.44463 0.0
H4704 H 0.36137 0.90071 0.49241 0.0
H4705 H 0.37644 0.89741 0.47107 0.0
H4706 H 0.37482 0.85565 0.4505 0.0
C4707 C 0.40115 0.87619 0.4076 0.0
C4708 C 0.40758 0.88161 0.44588 0.0
C4709 C 0.40692 0.8811 0.39451 0.0
C4710 C 0.36509 0.8899 0.48981 0.0
C4711 C 0.37362 0.888 0.47751 0.0
C4712 C 0.38409 0.86277 0.44941 0.0
C4713 C 0.41007 0.87468 0.41986 0.0
C4714 C 0.40343 0.87257 0.43435 0.0
C4715 C 0.37835 0.87412 0.47344 0.0
C4716 C 0.38773 0.87249 0.46055 0.0
H4717 H 0.44226 0.88458 0.4047 0.0
H4718 H 0.4322 0.87593 0.4277 0.0
H4719 H 0.38846 0.85573 0.42767 0.0
H4720 H 0.36268 0.85463 0.5006 0.0
H4721 H 0.37745 0.85126 0.47869 0.0
C4722 C 0.12177 0.37566 0.49245 0.0
C4723 C 0.12362 0.36058 0.49339 0.0
C4724 C 0.12335 0.38278 0.47919 0.0
C4725 C 0.12011 0.37545 0.44037 0.0
H4726 H 0.13542 0.41439 0.43623 0.0
C4727 C 0.11677 0.40447 0.38581 0.0
C4728 C 0.11145 0.41869 0.38635 0.0
C4729 C 0.12164 0.39766 0.3984 0.0
C4730 C 0.13107 0.40353 0.43723 0.0
H4731 H 0.12965 0.34126 0.48148 0.0
H4732 H 0.13255 0.3537 0.45826 0.0
H4733 H 0.13785 0.40172 0.45939 0.0
H4734 H 0.10776 0.43735 0.40005 0.0
H4735 H 0.116 0.42538 0.42227 0.0
H4736 H 0.11287 0.37734 0.41849 0.0
C4737 C 0.12954 0.35998 0.46772 0.0
C4738 C 0.13247 0.39628 0.45048 0.0
C4739 C 0.12797 0.35288 0.48101 0.0
C4740 C 0.11186 0.42635 0.39946 0.0
C4741 C 0.11662 0.4195 0.41213 0.0
C4742 C 0.11868 0.38269 0.42718 0.0
C4743 C 0.12692 0.37496 0.4666 0.0
C4744 C 0.12682 0.38223 0.45224 0.0
C4745 C 0.12114 0.40492 0.41181 0.0
C4746 C 0.12397 0.39689 0.42549 0.0
H4747 H 0.119 0.38198 0.50193 0.0
H4748 H 0.12126 0.39432 0.47871 0.0
H4749 H 0.11539 0.36475 0.44143 0.0
H4750 H 0.11669 0.39846 0.37572 0.0
H4751 H 0.12537 0.38655 0.39771 0.0
C4752 C 0.59324 0.57319 0.88237 0.0
C4753 C 0.60631 0.58069 0.88427 0.0
C4754 C 0.58127 0.5802 0.87628 0.0
C4755 C 0.56679 0.61706 0.87267 0.0
H4756 H 0.53675 0.59803 0.85025 0.0
C4757 C 0.51337 0.64618 0.86071 0.0
C4758 C 0.50109 0.63809 0.86454 0.0
C4759 C 0.52681 0.63937 0.85915 0.0
C4760 C 0.54508 0.60349 0.85648 0.0
H4761 H 0.61765 0.60084 0.88043 0.0
H4762 H 0.59686 0.61307 0.8695 0.0
H4763 H 0.55966 0.58549 0.85479 0.0
H4764 H 0.49276 0.61641 0.86801 0.0
H4765 H 0.51624 0.60454 0.86578 0.0
H4766 H 0.55214 0.63484 0.87479 0.0
C4767 C 0.59566 0.60194 0.87305 0.0
C4768 C 0.55817 0.5963 0.8591 0.0
C4769 C 0.60755 0.59497 0.87924 0.0
C4770 C 0.50219 0.62296 0.86564 0.0
C4771 C 0.5156 0.61614 0.86408 0.0
C4772 C 0.55376 0.62423 0.87002 0.0
C4773 C 0.58224 0.59479 0.87189 0.0
C4774 C 0.56905 0.6029 0.8675 0.0
C4775 C 0.52814 0.62433 0.86128 0.0
C4776 C 0.54263 0.61742 0.86218 0.0
H4777 H 0.5921 0.56214 0.88621 0.0
H4778 H 0.57107 0.57441 0.87568 0.0
H4779 H 0.5748 0.62238 0.8794 0.0
H4780 H 0.51274 0.65786 0.85963 0.0
H4781 H 0.53624 0.64593 0.85675 0.0
C4782 C 0.35104 0.51678 0.8716 0.0
C4783 C 0.35733 0.50321 0.87429 0.0
C4784 C 0.35976 0.52909 0.87018 0.0
C4785 C 0.39594 0.5423 0.88092 0.0
H4786 H 0.38585 0.57512 0.85667 0.0
C4787 C 0.42922 0.59491 0.88261 0.0
C4788 C 0.42078 0.60735 0.88481 0.0
C4789 C 0.42267 0.58193 0.87829 0.0
C4790 C 0.3888 0.56601 0.86348 0.0
H4791 H 0.37758 0.4915 0.87621 0.0
H4792 H 0.39286 0.51291 0.87359 0.0
H4793 H 0.37203 0.55261 0.85466 0.0
H4794 H 0.39923 0.61648 0.88331 0.0
H4795 H 0.38772 0.59384 0.87584 0.0
H4796 H 0.41251 0.55575 0.88993 0.0
C4797 C 0.3812 0.51421 0.87313 0.0
C4798 C 0.38086 0.55315 0.86237 0.0
C4799 C 0.37247 0.50196 0.87469 0.0
C4800 C 0.40589 0.60692 0.88181 0.0
C4801 C 0.39935 0.59401 0.87742 0.0
C4802 C 0.40391 0.55511 0.88196 0.0
C4803 C 0.37495 0.52799 0.87122 0.0
C4804 C 0.38417 0.54122 0.87128 0.0
C4805 C 0.4076 0.58128 0.87599 0.0
C4806 C 0.40026 0.5672 0.87346 0.0
H4807 H 0.33936 0.51795 0.87119 0.0
H4808 H 0.35456 0.53953 0.86884 0.0
H4809 H 0.39865 0.53344 0.88814 0.0
H4810 H 0.44075 0.59506 0.88484 0.0
H4811 H 0.42932 0.57233 0.87712 0.0
C4812 C 0.47777 0.35694 0.87656 0.0
C4813 C 0.49132 0.36337 0.87904 0.0
C4814 C 0.46538 0.36555 0.87506 0.0
C4815 C 0.45176 0.4015 0.88556 0.0
H4816 H 0.41927 0.39112 0.86099 0.0
C4817 C 0.39823 0.43328 0.88812 0.0
C4818 C 0.38601 0.42442 0.88987 0.0
C4819 C 0.41141 0.42726 0.88364 0.0
C4820 C 0.42827 0.39416 0.86789 0.0
H4821 H 0.50284 0.38379 0.8804 0.0
H4822 H 0.48128 0.39883 0.87786 0.0
H4823 H 0.44201 0.37768 0.85901 0.0
H4824 H 0.37748 0.40272 0.88729 0.0
H4825 H 0.40046 0.39213 0.87964 0.0
H4826 H 0.43795 0.41768 0.89474 0.0
C4827 C 0.48009 0.38715 0.87758 0.0
C4828 C 0.44127 0.38644 0.86679 0.0
C4829 C 0.49243 0.37855 0.87914 0.0
C4830 C 0.38687 0.40969 0.88621 0.0
C4831 C 0.39999 0.40368 0.88169 0.0
C4832 C 0.43879 0.40921 0.88665 0.0
C4833 C 0.46637 0.38076 0.87585 0.0
C4834 C 0.45307 0.38984 0.87583 0.0
C4835 C 0.4125 0.41232 0.88073 0.0
C4836 C 0.4268 0.40543 0.87805 0.0
H4837 H 0.47667 0.34525 0.87634 0.0
H4838 H 0.45497 0.36026 0.87386 0.0
H4839 H 0.46054 0.40428 0.89284 0.0
H4840 H 0.39774 0.4447 0.89082 0.0
H4841 H 0.42083 0.43422 0.88281 0.0
C4842 C 0.58553 0.39317 0.88031 0.0
C4843 C 0.57101 0.39175 0.88454 0.0
C4844 C 0.59071 0.40638 0.87509 0.0
C4845 C 0.58353 0.4445 0.88082 0.0
H4846 H 0.61561 0.44959 0.85411 0.0
C4847 C 0.62624 0.48821 0.88879 0.0
C4848 C 0.6303 0.49676 0.87688 0.0
C4849 C 0.61733 0.47617 0.88689 0.0
C4850 C 0.60651 0.44839 0.86142 0.0
H4851 H 0.55017 0.40247 0.88558 0.0
H4852 H 0.55918 0.42568 0.87635 0.0
H4853 H 0.6022 0.42667 0.85433 0.0
H4854 H 0.629 0.4989 0.85351 0.0
H4855 H 0.61355 0.47747 0.85014 0.0
H4856 H 0.58818 0.46594 0.88831 0.0
C4857 C 0.56662 0.41663 0.87724 0.0
C4858 C 0.5989 0.43527 0.86162 0.0
C4859 C 0.56144 0.40337 0.88242 0.0
C4860 C 0.62587 0.49258 0.8629 0.0
C4861 C 0.61704 0.48038 0.86097 0.0
C4862 C 0.59118 0.45753 0.88068 0.0
C4863 C 0.58142 0.41841 0.87402 0.0
C4864 C 0.58761 0.43305 0.87164 0.0
C4865 C 0.61251 0.47223 0.87301 0.0
C4866 C 0.60303 0.45941 0.87133 0.0
H4867 H 0.59304 0.38423 0.88167 0.0
H4868 H 0.60218 0.4074 0.87282 0.0
H4869 H 0.575 0.44311 0.88877 0.0
H4870 H 0.63006 0.49066 0.8996 0.0
H4871 H 0.61438 0.46979 0.8963 0.0
C4872 C 0.6059 0.40563 0.11539 0.0
C4873 C 0.60613 0.42004 0.11056 0.0
C4874 C 0.59314 0.39961 0.12081 0.0
C4875 C 0.55474 0.40272 0.11468 0.0
H4876 H 0.55167 0.37394 0.14523 0.0
C4877 C 0.51374 0.35692 0.11248 0.0
C4878 C 0.50404 0.35585 0.12414 0.0
C4879 C 0.52594 0.36573 0.11348 0.0
C4880 C 0.55235 0.38209 0.1368 0.0
H4881 H 0.59369 0.43979 0.10834 0.0
H4882 H 0.57117 0.42921 0.11772 0.0
H4883 H 0.5737 0.38877 0.1432 0.0
H4884 H 0.50014 0.36204 0.14647 0.0
H4885 H 0.52194 0.3773 0.14836 0.0
H4886 H 0.53377 0.39559 0.10782 0.0
C4887 C 0.58085 0.42258 0.1173 0.0
C4888 C 0.56492 0.39051 0.1356 0.0
C4889 C 0.59368 0.42863 0.112 0.0
C4890 C 0.50738 0.36284 0.13727 0.0
C4891 C 0.51978 0.37156 0.13834 0.0
C4892 C 0.54232 0.39421 0.11576 0.0
C4893 C 0.58037 0.40789 0.12139 0.0
C4894 C 0.56634 0.40067 0.12432 0.0
C4895 C 0.52887 0.37339 0.12628 0.0
C4896 C 0.54118 0.38359 0.12659 0.0
H4897 H 0.61547 0.39888 0.11447 0.0
H4898 H 0.59306 0.38824 0.12374 0.0
H4899 H 0.55559 0.41034 0.10577 0.0
H4900 H 0.51181 0.35113 0.10246 0.0
H4901 H 0.53304 0.36669 0.10417 0.0
C4902 C 0.56584 0.59497 0.11 0.0
C4903 C 0.57513 0.60696 0.10905 0.0
C4904 C 0.57108 0.58167 0.11503 0.0
C4905 C 0.60272 0.5634 0.13234 0.0
H4906 H 0.59441 0.53315 0.10434 0.0
C4907 C 0.62974 0.50597 0.13207 0.0
C4908 C 0.63496 0.50186 0.11835 0.0
C4909 C 0.62108 0.51836 0.13356 0.0
C4910 C 0.59675 0.54146 0.11232 0.0
H4911 H 0.59666 0.615 0.1137 0.0
H4912 H 0.60594 0.59176 0.12226 0.0
H4913 H 0.58094 0.55579 0.10339 0.0
H4914 H 0.63643 0.50821 0.09577 0.0
H4915 H 0.62109 0.52947 0.09828 0.0
H4916 H 0.61907 0.54915 0.14076 0.0
C4917 C 0.59463 0.59254 0.11923 0.0
C4918 C 0.58892 0.55437 0.11189 0.0
C4919 C 0.58939 0.6058 0.11418 0.0
C4920 C 0.63199 0.51069 0.10634 0.0
C4921 C 0.62328 0.52292 0.10779 0.0
C4922 C 0.61052 0.5504 0.13281 0.0
C4923 C 0.58568 0.5802 0.11921 0.0
C4924 C 0.59212 0.56566 0.1216 0.0
C4925 C 0.61753 0.52675 0.12135 0.0
C4926 C 0.60791 0.53953 0.12248 0.0
H4927 H 0.55478 0.59567 0.10612 0.0
H4928 H 0.56389 0.57239 0.11506 0.0
H4929 H 0.60533 0.57188 0.14003 0.0
H4930 H 0.63202 0.49941 0.14154 0.0
H4931 H 0.61686 0.52117 0.14416 0.0
C4932 C 0.39491 0.57025 0.11547 0.0
C4933 C 0.39127 0.56694 0.10109 0.0
C4934 C 0.40857 0.57601 0.11876 0.0
C4935 C 0.44522 0.58265 0.10298 0.0
H4936 H 0.44493 0.61671 0.12767 0.0
C4937 C 0.48651 0.62834 0.09725 0.0
C4938 C 0.49362 0.63319 0.10982 0.0
C4939 C 0.47485 0.6188 0.09823 0.0
C4940 C 0.44522 0.60709 0.12094 0.0
H4941 H 0.39894 0.56644 0.07894 0.0
H4942 H 0.42261 0.57665 0.0845 0.0
H4943 H 0.42322 0.60165 0.12588 0.0
H4944 H 0.49343 0.63264 0.13332 0.0
H4945 H 0.4726 0.61616 0.13502 0.0
H4946 H 0.46695 0.58859 0.09746 0.0
C4947 C 0.41517 0.57463 0.09336 0.0
C4948 C 0.43282 0.59841 0.11995 0.0
C4949 C 0.40159 0.56888 0.09013 0.0
C4950 C 0.48826 0.62894 0.12344 0.0
C4951 C 0.4764 0.61951 0.12443 0.0
C4952 C 0.45751 0.5914 0.10386 0.0
C4953 C 0.41874 0.57855 0.10767 0.0
C4954 C 0.43255 0.58633 0.11062 0.0
C4955 C 0.46979 0.61415 0.1118 0.0
C4956 C 0.45749 0.6039 0.11253 0.0
H4957 H 0.38701 0.56896 0.12407 0.0
H4958 H 0.41102 0.57878 0.1299 0.0
H4959 H 0.44549 0.57324 0.09596 0.0
H4960 H 0.48984 0.63198 0.08663 0.0
H4961 H 0.46965 0.61517 0.08834 0.0
C4962 C 0.41669 0.3906 0.1189 0.0
C4963 C 0.42653 0.39005 0.10735 0.0
C4964 C 0.40962 0.40358 0.12226 0.0
C4965 C 0.39816 0.43682 0.10367 0.0
H4966 H 0.38558 0.44888 0.14193 0.0
C4967 C 0.35387 0.47945 0.10997 0.0
C4968 C 0.35631 0.4905 0.12012 0.0
C4969 C 0.36248 0.46704 0.10998 0.0
C4970 C 0.3891 0.4457 0.13119 0.0
H4971 H 0.4374 0.40241 0.09069 0.0
H4972 H 0.42546 0.42528 0.09682 0.0
H4973 H 0.40221 0.42835 0.13943 0.0
H4974 H 0.36897 0.49697 0.13879 0.0
H4975 H 0.38427 0.47526 0.13872 0.0
H4976 H 0.38531 0.45417 0.09539 0.0
C4977 C 0.42292 0.41571 0.10313 0.0
C4978 C 0.39853 0.43389 0.12975 0.0
C4979 C 0.42987 0.40272 0.09971 0.0
C4980 C 0.36693 0.48857 0.13084 0.0
C4981 C 0.37566 0.47615 0.1308 0.0
C4982 C 0.3888 0.44857 0.10511 0.0
C4983 C 0.41231 0.41618 0.11409 0.0
C4984 C 0.40311 0.42927 0.11595 0.0
C4985 C 0.37378 0.46544 0.12009 0.0
C4986 C 0.384 0.45306 0.11885 0.0
H4987 H 0.41387 0.38081 0.12475 0.0
H4988 H 0.40143 0.40351 0.13067 0.0
H4989 H 0.40124 0.43344 0.09285 0.0
H4990 H 0.34549 0.48057 0.10182 0.0
H4991 H 0.36047 0.4588 0.10185 0.0
C4992 C 0.88465 0.59359 0.57428 0.0
C4993 C 0.88715 0.60674 0.58145 0.0
C4994 C 0.87853 0.5819 0.58175 0.0
C4995 C 0.87602 0.5683 0.61905 0.0
H4996 H 0.85271 0.53811 0.60138 0.0
C4997 C 0.86488 0.5153 0.64937 0.0
C4998 C 0.86841 0.50292 0.64127 0.0
C4999 C 0.86313 0.52868 0.64247 0.0
C5000 C 0.85918 0.54649 0.60647 0.0
H5001 H 0.88421 0.6186 0.60147 0.0
H5002 H 0.87324 0.59834 0.61449 0.0
H5003 H 0.85697 0.56075 0.58826 0.0
H5004 H 0.87118 0.49436 0.61959 0.0
H5005 H 0.86856 0.51771 0.60754 0.0
H5006 H 0.87865 0.55395 0.63701 0.0
C5007 C 0.87638 0.59681 0.60328 0.0
C5008 C 0.86165 0.55942 0.59895 0.0
C5009 C 0.88261 0.60841 0.59585 0.0
C5010 C 0.86904 0.50387 0.62611 0.0
C5011 C 0.86725 0.5172 0.6192 0.0
C5012 C 0.87352 0.55543 0.62656 0.0
C5013 C 0.8747 0.58328 0.59647 0.0
C5014 C 0.87039 0.57034 0.60503 0.0
C5015 C 0.86473 0.52983 0.62734 0.0
C5016 C 0.86537 0.54424 0.62022 0.0
H5017 H 0.88808 0.59213 0.56314 0.0
H5018 H 0.87752 0.57161 0.57619 0.0
H5019 H 0.88301 0.57634 0.62398 0.0
H5020 H 0.86418 0.51478 0.66109 0.0
H5021 H 0.86096 0.53819 0.649 0.0
C5022 C 0.86349 0.48698 0.369 0.0
C5023 C 0.87753 0.49115 0.36473 0.0
C5024 C 0.86153 0.47572 0.37899 0.0
C5025 C 0.87922 0.45823 0.40914 0.0
H5026 H 0.86105 0.42198 0.39812 0.0
C5027 C 0.89693 0.40425 0.43249 0.0
C5028 C 0.88727 0.39259 0.43333 0.0
C5029 C 0.89235 0.41758 0.42712 0.0
C5030 C 0.86579 0.43214 0.40159 0.0
H5031 H 0.90036 0.48575 0.36646 0.0
H5032 H 0.89697 0.46673 0.38437 0.0
H5033 H 0.85912 0.44303 0.38212 0.0
H5034 H 0.86512 0.38567 0.42993 0.0
H5035 H 0.85689 0.40924 0.42069 0.0
H5036 H 0.88621 0.44744 0.42841 0.0
C5037 C 0.88754 0.47239 0.38024 0.0
C5038 C 0.86473 0.44414 0.39238 0.0
C5039 C 0.88948 0.4834 0.37009 0.0
C5040 C 0.8727 0.39463 0.42948 0.0
C5041 C 0.86806 0.40804 0.42408 0.0
C5042 C 0.88011 0.44634 0.41843 0.0
C5043 C 0.8736 0.4686 0.38491 0.0
C5044 C 0.87196 0.45706 0.39584 0.0
C5045 C 0.87796 0.41954 0.42245 0.0
C5046 C 0.874 0.43295 0.41445 0.0
H5047 H 0.85407 0.49266 0.36489 0.0
H5048 H 0.85067 0.4728 0.38235 0.0
H5049 H 0.88474 0.46818 0.41205 0.0
H5050 H 0.90825 0.40282 0.43532 0.0
H5051 H 0.90036 0.42606 0.42581 0.0
C5052 C 0.51589 0.87309 0.35925 0.0
C5053 C 0.50227 0.87461 0.36581 0.0
C5054 C 0.52833 0.87165 0.36778 0.0
C5055 C 0.5412 0.88184 0.40391 0.0
H5056 H 0.57558 0.86051 0.39252 0.0
C5057 C 0.59484 0.88931 0.4345 0.0
C5058 C 0.6067 0.89211 0.42542 0.0
C5059 C 0.58203 0.88361 0.42875 0.0
C5060 C 0.56604 0.8665 0.39585 0.0
H5061 H 0.49065 0.87416 0.3862 0.0
H5062 H 0.51235 0.87169 0.40114 0.0
H5063 H 0.55288 0.85674 0.37938 0.0
H5064 H 0.615 0.89032 0.40354 0.0
H5065 H 0.59259 0.88066 0.39339 0.0
H5066 H 0.55439 0.892 0.41998 0.0
C5067 C 0.51352 0.87211 0.38947 0.0
C5068 C 0.55307 0.86436 0.38832 0.0
C5069 C 0.50112 0.87361 0.38094 0.0
C5070 C 0.60588 0.88843 0.41069 0.0
C5071 C 0.59311 0.88273 0.40494 0.0
C5072 C 0.55414 0.88398 0.41141 0.0
C5073 C 0.52731 0.87156 0.383 0.0
C5074 C 0.54059 0.87226 0.39206 0.0
C5075 C 0.58092 0.88059 0.41383 0.0
C5076 C 0.5668 0.8766 0.40725 0.0
H5077 H 0.517 0.87374 0.34757 0.0
H5078 H 0.53879 0.87135 0.36245 0.0
H5079 H 0.53185 0.88827 0.40694 0.0
H5080 H 0.59529 0.89205 0.44591 0.0
H5081 H 0.57288 0.88191 0.4359 0.0
C5082 C 0.13208 0.50656 0.36591 0.0
C5083 C 0.1183 0.50176 0.36148 0.0
C5084 C 0.13344 0.51846 0.37526 0.0
C5085 C 0.11414 0.5374 0.40362 0.0
H5086 H 0.13337 0.57283 0.39177 0.0
C5087 C 0.09772 0.59248 0.42599 0.0
C5088 C 0.10791 0.60366 0.42715 0.0
C5089 C 0.10169 0.57908 0.42028 0.0
C5090 C 0.12827 0.56292 0.39546 0.0
H5091 H 0.09529 0.50664 0.36221 0.0
H5092 H 0.09763 0.52677 0.37903 0.0
H5093 H 0.13564 0.55103 0.37685 0.0
H5094 H 0.13031 0.60968 0.4237 0.0
H5095 H 0.13749 0.58598 0.41399 0.0
H5096 H 0.10657 0.54915 0.42208 0.0
C5097 C 0.10732 0.52113 0.37554 0.0
C5098 C 0.12954 0.55049 0.38687 0.0
C5099 C 0.10599 0.50948 0.36603 0.0
C5100 C 0.12232 0.6011 0.42304 0.0
C5101 C 0.12636 0.58762 0.41735 0.0
C5102 C 0.11304 0.54972 0.4123 0.0
C5103 C 0.12102 0.5256 0.38037 0.0
C5104 C 0.12203 0.53782 0.39063 0.0
C5105 C 0.11601 0.57654 0.41566 0.0
C5106 C 0.11959 0.56281 0.40802 0.0
H5107 H 0.14178 0.50094 0.3624 0.0
H5108 H 0.14412 0.52187 0.37875 0.0
H5109 H 0.1084 0.52765 0.40678 0.0
H5110 H 0.08652 0.59429 0.42904 0.0
H5111 H 0.09335 0.57094 0.4189 0.0
C5112 C 0.4846 0.12541 0.35657 0.0
C5113 C 0.49802 0.12344 0.36343 0.0
C5114 C 0.47193 0.12663 0.3648 0.0
C5115 C 0.45773 0.11559 0.40024 0.0
H5116 H 0.42443 0.13854 0.38876 0.0
C5117 C 0.40328 0.11015 0.42997 0.0
C5118 C 0.39139 0.10811 0.42073 0.0
C5119 C 0.41646 0.1152 0.42444 0.0
C5120 C 0.43365 0.13208 0.39209 0.0
H5121 H 0.50903 0.12281 0.38417 0.0
H5122 H 0.48695 0.12486 0.39856 0.0
H5123 H 0.44752 0.14177 0.37619 0.0
H5124 H 0.38348 0.11054 0.39877 0.0
H5125 H 0.4065 0.1191 0.389 0.0
H5126 H 0.44381 0.10557 0.4158 0.0
C5127 C 0.4861 0.12496 0.38685 0.0
C5128 C 0.44686 0.13391 0.38489 0.0
C5129 C 0.49873 0.12368 0.37862 0.0
C5130 C 0.3926 0.11187 0.40605 0.0
C5131 C 0.40573 0.11693 0.40051 0.0
C5132 C 0.44455 0.11377 0.40743 0.0
C5133 C 0.47251 0.12606 0.38003 0.0
C5134 C 0.45896 0.12546 0.38869 0.0
C5135 C 0.4179 0.11833 0.40957 0.0
C5136 C 0.43228 0.12176 0.40323 0.0
H5137 H 0.48381 0.12534 0.34485 0.0
H5138 H 0.46164 0.12736 0.35919 0.0
H5139 H 0.46676 0.10875 0.4033 0.0
H5140 H 0.40256 0.10732 0.44135 0.0
H5141 H 0.4256 0.11633 0.43172 0.0
C5142 C 0.12466 0.48276 0.64515 0.0
C5143 C 0.12011 0.49529 0.63781 0.0
C5144 C 0.12696 0.46985 0.63757 0.0
C5145 C 0.13164 0.45431 0.60063 0.0
H5146 H 0.11319 0.42068 0.61774 0.0
C5147 C 0.11275 0.40415 0.56814 0.0
C5148 C 0.11257 0.39074 0.57526 0.0
C5149 C 0.11741 0.41658 0.57549 0.0
C5150 C 0.11869 0.42985 0.6129 0.0
H5151 H 0.11586 0.50451 0.61661 0.0
H5152 H 0.1193 0.48191 0.60345 0.0
H5153 H 0.11439 0.44312 0.63137 0.0
H5154 H 0.1182 0.3793 0.59493 0.0
H5155 H 0.12676 0.40087 0.60768 0.0
H5156 H 0.13551 0.44104 0.58194 0.0
C5157 C 0.12102 0.48199 0.61506 0.0
C5158 C 0.11937 0.44275 0.62074 0.0
C5159 C 0.11874 0.49488 0.62265 0.0
C5160 C 0.11817 0.38963 0.58934 0.0
C5161 C 0.12295 0.40198 0.59663 0.0
C5162 C 0.13097 0.44136 0.59276 0.0
C5163 C 0.12486 0.46924 0.62247 0.0
C5164 C 0.12562 0.45521 0.61462 0.0
C5165 C 0.12205 0.41568 0.59002 0.0
C5166 C 0.12429 0.42904 0.59874 0.0
H5167 H 0.12601 0.48284 0.65682 0.0
H5168 H 0.13016 0.46027 0.64357 0.0
H5169 H 0.1367 0.46368 0.59569 0.0
H5170 H 0.10841 0.40517 0.55728 0.0
H5171 H 0.1165 0.42697 0.57011 0.0
C5172 C 0.51803 0.12739 0.63466 0.0
C5173 C 0.50531 0.12123 0.62902 0.0
C5174 C 0.52946 0.13113 0.62544 0.0
C5175 C 0.54471 0.12048 0.59057 0.0
H5176 H 0.57023 0.15332 0.59667 0.0
C5177 C 0.59838 0.12271 0.56047 0.0
C5178 C 0.6102 0.12511 0.56969 0.0
C5179 C 0.58439 0.12645 0.56492 0.0
C5180 C 0.5632 0.1441 0.59481 0.0
H5181 H 0.49394 0.11563 0.60922 0.0
H5182 H 0.51397 0.12185 0.59316 0.0
H5183 H 0.54761 0.15154 0.61037 0.0
H5184 H 0.61719 0.13481 0.58984 0.0
H5185 H 0.59281 0.14091 0.59795 0.0
H5186 H 0.56048 0.11256 0.57566 0.0
C5187 C 0.51529 0.12341 0.60473 0.0
C5188 C 0.55026 0.14309 0.60266 0.0
C5189 C 0.50388 0.11969 0.61394 0.0
C5190 C 0.60811 0.13262 0.58272 0.0
C5191 C 0.59414 0.13624 0.58727 0.0
C5192 C 0.55765 0.12143 0.58281 0.0
C5193 C 0.52832 0.12888 0.61041 0.0
C5194 C 0.54106 0.13108 0.60086 0.0
C5195 C 0.58205 0.13255 0.57873 0.0
C5196 C 0.56724 0.13306 0.58509 0.0
H5197 H 0.51934 0.12885 0.64624 0.0
H5198 H 0.5394 0.13523 0.63016 0.0
H5199 H 0.53796 0.11099 0.58906 0.0
H5200 H 0.59982 0.11703 0.55028 0.0
H5201 H 0.57535 0.12381 0.55791 0.0
C5202 C 0.49536 0.86289 0.62501 0.0
C5203 C 0.49463 0.86557 0.63996 0.0
C5204 C 0.4827 0.86158 0.61686 0.0
C5205 C 0.44274 0.85749 0.61896 0.0
H5206 H 0.44322 0.88305 0.58559 0.0
C5207 C 0.39138 0.88329 0.59512 0.0
C5208 C 0.39083 0.88649 0.58026 0.0
C5209 C 0.40381 0.87718 0.60118 0.0
C5210 C 0.44293 0.87559 0.59464 0.0
H5211 H 0.48036 0.86781 0.65842 0.0
H5212 H 0.45806 0.86565 0.64416 0.0
H5213 H 0.46554 0.87835 0.59867 0.0
H5214 H 0.40236 0.88508 0.55989 0.0
H5215 H 0.4241 0.87407 0.57041 0.0
H5216 H 0.41998 0.85506 0.6151 0.0
C5217 C 0.46839 0.86453 0.63871 0.0
C5218 C 0.45575 0.87291 0.60218 0.0
C5219 C 0.48111 0.86582 0.64687 0.0
C5220 C 0.40259 0.88275 0.5714 0.0
C5221 C 0.41504 0.87656 0.57745 0.0
C5222 C 0.42989 0.86012 0.61136 0.0
C5223 C 0.46907 0.86289 0.62354 0.0
C5224 C 0.45575 0.86409 0.61461 0.0
C5225 C 0.41592 0.87405 0.59248 0.0
C5226 C 0.42978 0.86949 0.59932 0.0
H5227 H 0.50575 0.8623 0.61956 0.0
H5228 H 0.48356 0.86001 0.60525 0.0
H5229 H 0.44245 0.8505 0.62839 0.0
H5230 H 0.38231 0.88586 0.60213 0.0
H5231 H 0.40413 0.87554 0.6128 0.0
loop_
_geom_bond_atom_site_label_1
_geom_bond_atom_site_label_2
_geom_bond_distance
_geom_bond_site_symmetry_2
_ccdc_geom_bond_type
Co0 O3 1.970 . S
Co0 N17 1.989 . S
Co0 O25 1.967 . S
Co0 O32 1.920 . S
Co1 O4 1.966 . S
Co1 N10 2.022 . S
Co1 N18 1.993 . S
Co1 O26 1.941 . S
C2 O3 1.258 . S
C2 O4 1.263 . S
O3 Co0 1.970 . S
O3 C2 1.258 . S
O4 Co1 1.966 . S
O4 C2 1.263 . S
C5 O6 1.235 . S
C5 O32 1.289 . S
O6 C5 1.235 . S
C7 C9 1.400 . S
C7 N10 1.351 . S
C7 C12 1.501 . S
C8 C9 1.387 . S
C8 N11 1.341 . S
C9 C7 1.400 . S
C9 C8 1.387 . S
N10 Co1 2.022 . S
N10 C7 1.351 . S
N10 N11 1.365 . S
N11 C8 1.341 . S
N11 N10 1.365 . S
N11 H31 0.862 . S
C12 C7 1.501 . S
C12 H13 0.961 . S
C12 H14 0.961 . S
C12 H15 0.960 . S
H13 C12 0.961 . S
H14 C12 0.961 . S
H15 C12 0.960 . S
C16 N17 1.342 . S
C16 C20 1.401 . S
C16 C21 1.499 . S
N17 Co0 1.989 . S
N17 C16 1.342 . S
N17 N18 1.388 . S
N18 Co1 1.993 . S
N18 N17 1.388 . S
N18 C19 1.346 . S
C19 N18 1.346 . S
C19 C20 1.396 . S
C19 C29 1.510 . S
C20 C16 1.401 . S
C20 C19 1.396 . S
C21 C16 1.499 . S
C21 H22 0.959 . S
C21 H23 0.960 . S
C21 H24 0.961 . S
H22 C21 0.959 . S
H23 C21 0.960 . S
H24 C21 0.961 . S
O25 Co0 1.967 . S
O25 C33 1.258 . S
O26 Co1 1.941 . S
O26 C33 1.266 . S
H27 C29 0.959 . S
H28 C29 0.961 . S
C29 C19 1.510 . S
C29 H27 0.959 . S
C29 H28 0.961 . S
C29 H30 0.960 . S
H30 C29 0.960 . S
H31 N11 0.862 . S
O32 Co0 1.920 . S
O32 C5 1.289 . S
C33 O25 1.258 . S
C33 O26 1.266 . S
Co34 O37 1.970 . S
Co34 N51 1.989 . S
Co34 O59 1.967 . S
Co34 O66 1.920 . S
Co35 O38 1.966 . S
Co35 N44 2.022 . S
Co35 N52 1.993 . S
Co35 O60 1.941 . S
C36 O37 1.258 . S
C36 O38 1.263 . S
O37 Co34 1.970 . S
O37 C36 1.258 . S
O38 Co35 1.966 . S
O38 C36 1.263 . S
C39 O40 1.235 . S
C39 O66 1.289 . S
O40 C39 1.235 . S
C41 C43 1.400 . S
C41 N44 1.351 . S
C41 C46 1.501 . S
C42 C43 1.387 . S
C42 N45 1.341 . S
C43 C41 1.400 . S
C43 C42 1.387 . S
N44 Co35 2.022 . S
N44 C41 1.351 . S
N44 N45 1.365 . S
N45 C42 1.341 . S
N45 N44 1.365 . S
N45 H65 0.862 . S
C46 C41 1.501 . S
C46 H47 0.961 . S
C46 H48 0.961 . S
C46 H49 0.960 . S
H47 C46 0.961 . S
H48 C46 0.961 . S
H49 C46 0.960 . S
C50 N51 1.342 . S
C50 C54 1.401 . S
C50 C55 1.499 . S
N51 Co34 1.989 . S
N51 C50 1.342 . S
N51 N52 1.388 . S
N52 Co35 1.993 . S
N52 N51 1.388 . S
N52 C53 1.346 . S
C53 N52 1.346 . S
C53 C54 1.396 . S
C53 C63 1.510 . S
C54 C50 1.401 . S
C54 C53 1.396 . S
C55 C50 1.499 . S
C55 H56 0.959 . S
C55 H57 0.960 . S
C55 H58 0.961 . S
H56 C55 0.959 . S
H57 C55 0.960 . S
H58 C55 0.961 . S
O59 Co34 1.967 . S
O59 C67 1.258 . S
O60 Co35 1.941 . S
O60 C67 1.266 . S
H61 C63 0.959 . S
H62 C63 0.961 . S
C63 C53 1.510 . S
C63 H61 0.959 . S
C63 H62 0.961 . S
C63 H64 0.960 . S
H64 C63 0.960 . S
H65 N45 0.862 . S
O66 Co34 1.920 . S
O66 C39 1.289 . S
C67 O59 1.258 . S
C67 O60 1.266 . S
Co68 O71 1.970 . S
Co68 N85 1.989 . S
Co68 O93 1.967 . S
Co68 O100 1.920 . S
Co69 O72 1.966 . S
Co69 N78 2.022 . S
Co69 N86 1.993 . S
Co69 O94 1.941 . S
C70 O71 1.258 . S
C70 O72 1.263 . S
O71 Co68 1.970 . S
O71 C70 1.258 . S
O72 Co69 1.966 . S
O72 C70 1.263 . S
C73 O74 1.235 . S
C73 O100 1.289 . S
O74 C73 1.235 . S
C75 C77 1.400 . S
C75 N78 1.351 . S
C75 C80 1.501 . S
C76 C77 1.387 . S
C76 N79 1.341 . S
C77 C75 1.400 . S
C77 C76 1.387 . S
N78 Co69 2.022 . S
N78 C75 1.351 . S
N78 N79 1.365 . S
N79 C76 1.341 . S
N79 N78 1.365 . S
N79 H99 0.862 . S
C80 C75 1.501 . S
C80 H81 0.961 . S
C80 H82 0.961 . S
C80 H83 0.960 . S
H81 C80 0.961 . S
H82 C80 0.961 . S
H83 C80 0.960 . S
C84 N85 1.342 . S
C84 C88 1.401 . S
C84 C89 1.499 . S
N85 Co68 1.989 . S
N85 C84 1.342 . S
N85 N86 1.388 . S
N86 Co69 1.993 . S
N86 N85 1.388 . S
N86 C87 1.346 . S
C87 N86 1.346 . S
C87 C88 1.396 . S
C87 C97 1.510 . S
C88 C84 1.401 . S
C88 C87 1.396 . S
C89 C84 1.499 . S
C89 H90 0.959 . S
C89 H91 0.960 . S
C89 H92 0.961 . S
H90 C89 0.959 . S
H91 C89 0.960 . S
H92 C89 0.961 . S
O93 Co68 1.967 . S
O93 C101 1.258 . S
O94 Co69 1.941 . S
O94 C101 1.266 . S
H95 C97 0.959 . S
H96 C97 0.961 . S
C97 C87 1.510 . S
C97 H95 0.959 . S
C97 H96 0.961 . S
C97 H98 0.960 . S
H98 C97 0.960 . S
H99 N79 0.862 . S
O100 Co68 1.920 . S
O100 C73 1.289 . S
C101 O93 1.258 . S
C101 O94 1.266 . S
Co102 O105 1.970 . S
Co102 N119 1.989 . S
Co102 O127 1.967 . S
Co102 O134 1.920 . S
Co103 O106 1.966 . S
Co103 N112 2.022 . S
Co103 N120 1.993 . S
Co103 O128 1.941 . S
C104 O105 1.258 . S
C104 O106 1.263 . S
O105 Co102 1.970 . S
O105 C104 1.258 . S
O106 Co103 1.966 . S
O106 C104 1.263 . S
C107 O108 1.235 . S
C107 O134 1.289 . S
O108 C107 1.235 . S
C109 C111 1.400 . S
C109 N112 1.351 . S
C109 C114 1.501 . S
C110 C111 1.387 . S
C110 N113 1.341 . S
C111 C109 1.400 . S
C111 C110 1.387 . S
N112 Co103 2.022 . S
N112 C109 1.351 . S
N112 N113 1.365 . S
N113 C110 1.341 . S
N113 N112 1.365 . S
N113 H133 0.862 . S
C114 C109 1.501 . S
C114 H115 0.961 . S
C114 H116 0.961 . S
C114 H117 0.960 . S
H115 C114 0.961 . S
H116 C114 0.961 . S
H117 C114 0.960 . S
C118 N119 1.342 . S
C118 C122 1.401 . S
C118 C123 1.499 . S
N119 Co102 1.989 . S
N119 C118 1.342 . S
N119 N120 1.388 . S
N120 Co103 1.993 . S
N120 N119 1.388 . S
N120 C121 1.346 . S
C121 N120 1.346 . S
C121 C122 1.396 . S
C121 C131 1.510 . S
C122 C118 1.401 . S
C122 C121 1.396 . S
C123 C118 1.499 . S
C123 H124 0.959 . S
C123 H125 0.960 . S
C123 H126 0.961 . S
H124 C123 0.959 . S
H125 C123 0.960 . S
H126 C123 0.961 . S
O127 Co102 1.967 . S
O127 C135 1.258 . S
O128 Co103 1.941 . S
O128 C135 1.266 . S
H129 C131 0.959 . S
H130 C131 0.961 . S
C131 C121 1.510 . S
C131 H129 0.959 . S
C131 H130 0.961 . S
C131 H132 0.960 . S
H132 C131 0.960 . S
H133 N113 0.862 . S
O134 Co102 1.920 . S
O134 C107 1.289 . S
C135 O127 1.258 . S
C135 O128 1.266 . S
Co136 O139 1.970 . S
Co136 N153 1.989 . S
Co136 O161 1.967 . S
Co136 O168 1.920 . S
Co137 O140 1.966 . S
Co137 N146 2.022 . S
Co137 N154 1.993 . S
Co137 O162 1.941 . S
C138 O139 1.258 . S
C138 O140 1.263 . S
O139 Co136 1.970 . S
O139 C138 1.258 . S
O140 Co137 1.966 . S
O140 C138 1.263 . S
C141 O142 1.235 . S
C141 O168 1.289 . S
O142 C141 1.235 . S
C143 C145 1.400 . S
C143 N146 1.351 . S
C143 C148 1.501 . S
C144 C145 1.387 . S
C144 N147 1.341 . S
C145 C143 1.400 . S
C145 C144 1.387 . S
N146 Co137 2.022 . S
N146 C143 1.351 . S
N146 N147 1.365 . S
N147 C144 1.341 . S
N147 N146 1.365 . S
N147 H167 0.862 . S
C148 C143 1.501 . S
C148 H149 0.961 . S
C148 H150 0.961 . S
C148 H151 0.960 . S
H149 C148 0.961 . S
H150 C148 0.961 . S
H151 C148 0.960 . S
C152 N153 1.342 . S
C152 C156 1.401 . S
C152 C157 1.499 . S
N153 Co136 1.989 . S
N153 C152 1.342 . S
N153 N154 1.388 . S
N154 Co137 1.993 . S
N154 N153 1.388 . S
N154 C155 1.346 . S
C155 N154 1.346 . S
C155 C156 1.396 . S
C155 C165 1.510 . S
C156 C152 1.401 . S
C156 C155 1.396 . S
C157 C152 1.499 . S
C157 H158 0.959 . S
C157 H159 0.960 . S
C157 H160 0.961 . S
H158 C157 0.959 . S
H159 C157 0.960 . S
H160 C157 0.961 . S
O161 Co136 1.967 . S
O161 C169 1.258 . S
O162 Co137 1.941 . S
O162 C169 1.266 . S
H163 C165 0.959 . S
H164 C165 0.961 . S
C165 C155 1.510 . S
C165 H163 0.959 . S
C165 H164 0.961 . S
C165 H166 0.960 . S
H166 C165 0.960 . S
H167 N147 0.862 . S
O168 Co136 1.920 . S
O168 C141 1.289 . S
C169 O161 1.258 . S
C169 O162 1.266 . S
Co170 O173 1.970 . S
Co170 N187 1.989 . S
Co170 O195 1.967 . S
Co170 O202 1.920 . S
Co171 O174 1.966 . S
Co171 N180 2.022 . S
Co171 N188 1.993 . S
Co171 O196 1.941 . S
C172 O173 1.258 . S
C172 O174 1.263 . S
O173 Co170 1.970 . S
O173 C172 1.258 . S
O174 Co171 1.966 . S
O174 C172 1.263 . S
C175 O176 1.235 . S
C175 O202 1.289 . S
O176 C175 1.235 . S
C177 C179 1.400 . S
C177 N180 1.351 . S
C177 C182 1.501 . S
C178 C179 1.387 . S
C178 N181 1.341 . S
C179 C177 1.400 . S
C179 C178 1.387 . S
N180 Co171 2.022 . S
N180 C177 1.351 . S
N180 N181 1.365 . S
N181 C178 1.341 . S
N181 N180 1.365 . S
N181 H201 0.862 . S
C182 C177 1.501 . S
C182 H183 0.961 . S
C182 H184 0.961 . S
C182 H185 0.960 . S
H183 C182 0.961 . S
H184 C182 0.961 . S
H185 C182 0.960 . S
C186 N187 1.342 . S
C186 C190 1.401 . S
C186 C191 1.499 . S
N187 Co170 1.989 . S
N187 C186 1.342 . S
N187 N188 1.388 . S
N188 Co171 1.993 . S
N188 N187 1.388 . S
N188 C189 1.346 . S
C189 N188 1.346 . S
C189 C190 1.396 . S
C189 C199 1.510 . S
C190 C186 1.401 . S
C190 C189 1.396 . S
C191 C186 1.499 . S
C191 H192 0.959 . S
C191 H193 0.960 . S
C191 H194 0.961 . S
H192 C191 0.959 . S
H193 C191 0.960 . S
H194 C191 0.961 . S
O195 Co170 1.967 . S
O195 C203 1.258 . S
O196 Co171 1.941 . S
O196 C203 1.266 . S
H197 C199 0.959 . S
H198 C199 0.961 . S
C199 C189 1.510 . S
C199 H197 0.959 . S
C199 H198 0.961 . S
C199 H200 0.960 . S
H200 C199 0.960 . S
H201 N181 0.862 . S
O202 Co170 1.920 . S
O202 C175 1.289 . S
C203 O195 1.258 . S
C203 O196 1.266 . S
Co204 O207 1.970 . S
Co204 N221 1.989 . S
Co204 O229 1.967 . S
Co204 O236 1.920 . S
Co205 O208 1.966 . S
Co205 N214 2.022 . S
Co205 N222 1.993 . S
Co205 O230 1.941 . S
C206 O207 1.258 . S
C206 O208 1.263 . S
O207 Co204 1.970 . S
O207 C206 1.258 . S
O208 Co205 1.966 . S
O208 C206 1.263 . S
C209 O210 1.235 . S
C209 O236 1.289 . S
O210 C209 1.235 . S
C211 C213 1.400 . S
C211 N214 1.351 . S
C211 C216 1.501 . S
C212 C213 1.387 . S
C212 N215 1.341 . S
C213 C211 1.400 . S
C213 C212 1.387 . S
N214 Co205 2.022 . S
N214 C211 1.351 . S
N214 N215 1.365 . S
N215 C212 1.341 . S
N215 N214 1.365 . S
N215 H235 0.862 . S
C216 C211 1.501 . S
C216 H217 0.961 . S
C216 H218 0.961 . S
C216 H219 0.960 . S
H217 C216 0.961 . S
H218 C216 0.961 . S
H219 C216 0.960 . S
C220 N221 1.342 . S
C220 C224 1.401 . S
C220 C225 1.499 . S
N221 Co204 1.989 . S
N221 C220 1.342 . S
N221 N222 1.388 . S
N222 Co205 1.993 . S
N222 N221 1.388 . S
N222 C223 1.346 . S
C223 N222 1.346 . S
C223 C224 1.396 . S
C223 C233 1.510 . S
C224 C220 1.401 . S
C224 C223 1.396 . S
C225 C220 1.499 . S
C225 H226 0.959 . S
C225 H227 0.960 . S
C225 H228 0.961 . S
H226 C225 0.959 . S
H227 C225 0.960 . S
H228 C225 0.961 . S
O229 Co204 1.967 . S
O229 C237 1.258 . S
O230 Co205 1.941 . S
O230 C237 1.266 . S
H231 C233 0.959 . S
H232 C233 0.961 . S
C233 C223 1.510 . S
C233 H231 0.959 . S
C233 H232 0.961 . S
C233 H234 0.960 . S
H234 C233 0.960 . S
H235 N215 0.862 . S
O236 Co204 1.920 . S
O236 C209 1.289 . S
C237 O229 1.258 . S
C237 O230 1.266 . S
Co238 O241 1.970 . S
Co238 N255 1.989 . S
Co238 O263 1.967 . S
Co238 O270 1.920 . S
Co239 O242 1.966 . S
Co239 N248 2.022 . S
Co239 N256 1.993 . S
Co239 O264 1.941 . S
C240 O241 1.258 . S
C240 O242 1.263 . S
O241 Co238 1.970 . S
O241 C240 1.258 . S
O242 Co239 1.966 . S
O242 C240 1.263 . S
C243 O244 1.235 . S
C243 O270 1.289 . S
O244 C243 1.235 . S
C245 C247 1.400 . S
C245 N248 1.351 . S
C245 C250 1.501 . S
C246 C247 1.387 . S
C246 N249 1.341 . S
C247 C245 1.400 . S
C247 C246 1.387 . S
N248 Co239 2.022 . S
N248 C245 1.351 . S
N248 N249 1.365 . S
N249 C246 1.341 . S
N249 N248 1.365 . S
N249 H269 0.862 . S
C250 C245 1.501 . S
C250 H251 0.961 . S
C250 H252 0.961 . S
C250 H253 0.960 . S
H251 C250 0.961 . S
H252 C250 0.961 . S
H253 C250 0.960 . S
C254 N255 1.342 . S
C254 C258 1.401 . S
C254 C259 1.499 . S
N255 Co238 1.989 . S
N255 C254 1.342 . S
N255 N256 1.388 . S
N256 Co239 1.993 . S
N256 N255 1.388 . S
N256 C257 1.346 . S
C257 N256 1.346 . S
C257 C258 1.396 . S
C257 C267 1.510 . S
C258 C254 1.401 . S
C258 C257 1.396 . S
C259 C254 1.499 . S
C259 H260 0.959 . S
C259 H261 0.960 . S
C259 H262 0.961 . S
H260 C259 0.959 . S
H261 C259 0.960 . S
H262 C259 0.961 . S
O263 Co238 1.967 . S
O263 C271 1.258 . S
O264 Co239 1.941 . S
O264 C271 1.266 . S
H265 C267 0.959 . S
H266 C267 0.961 . S
C267 C257 1.510 . S
C267 H265 0.959 . S
C267 H266 0.961 . S
C267 H268 0.960 . S
H268 C267 0.960 . S
H269 N249 0.862 . S
O270 Co238 1.920 . S
O270 C243 1.289 . S
C271 O263 1.258 . S
C271 O264 1.266 . S
Co272 O275 1.970 . S
Co272 N289 1.989 . S
Co272 O297 1.967 . S
Co272 O304 1.920 . S
Co273 O276 1.966 . S
Co273 N282 2.022 . S
Co273 N290 1.993 . S
Co273 O298 1.941 . S
C274 O275 1.258 . S
C274 O276 1.263 . S
O275 Co272 1.970 . S
O275 C274 1.258 . S
O276 Co273 1.966 . S
O276 C274 1.263 . S
C277 O278 1.235 . S
C277 O304 1.289 . S
O278 C277 1.235 . S
C279 C281 1.400 . S
C279 N282 1.351 . S
C279 C284 1.501 . S
C280 C281 1.387 . S
C280 N283 1.341 . S
C281 C279 1.400 . S
C281 C280 1.387 . S
N282 Co273 2.022 . S
N282 C279 1.351 . S
N282 N283 1.365 . S
N283 C280 1.341 . S
N283 N282 1.365 . S
N283 H303 0.862 . S
C284 C279 1.501 . S
C284 H285 0.961 . S
C284 H286 0.961 . S
C284 H287 0.960 . S
H285 C284 0.961 . S
H286 C284 0.961 . S
H287 C284 0.960 . S
C288 N289 1.342 . S
C288 C292 1.401 . S
C288 C293 1.499 . S
N289 Co272 1.989 . S
N289 C288 1.342 . S
N289 N290 1.388 . S
N290 Co273 1.993 . S
N290 N289 1.388 . S
N290 C291 1.346 . S
C291 N290 1.346 . S
C291 C292 1.396 . S
C291 C301 1.510 . S
C292 C288 1.401 . S
C292 C291 1.396 . S
C293 C288 1.499 . S
C293 H294 0.959 . S
C293 H295 0.960 . S
C293 H296 0.961 . S
H294 C293 0.959 . S
H295 C293 0.960 . S
H296 C293 0.961 . S
O297 Co272 1.967 . S
O297 C305 1.258 . S
O298 Co273 1.941 . S
O298 C305 1.266 . S
H299 C301 0.959 . S
H300 C301 0.961 . S
C301 C291 1.510 . S
C301 H299 0.959 . S
C301 H300 0.961 . S
C301 H302 0.960 . S
H302 C301 0.960 . S
H303 N283 0.862 . S
O304 Co272 1.920 . S
O304 C277 1.289 . S
C305 O297 1.258 . S
C305 O298 1.266 . S
Co306 O309 1.970 . S
Co306 N323 1.989 . S
Co306 O331 1.967 . S
Co306 O338 1.920 . S
Co307 O310 1.966 . S
Co307 N316 2.022 . S
Co307 N324 1.993 . S
Co307 O332 1.941 . S
C308 O309 1.258 . S
C308 O310 1.263 . S
O309 Co306 1.970 . S
O309 C308 1.258 . S
O310 Co307 1.966 . S
O310 C308 1.263 . S
C311 O312 1.235 . S
C311 O338 1.289 . S
O312 C311 1.235 . S
C313 C315 1.400 . S
C313 N316 1.351 . S
C313 C318 1.501 . S
C314 C315 1.387 . S
C314 N317 1.341 . S
C315 C313 1.400 . S
C315 C314 1.387 . S
N316 Co307 2.022 . S
N316 C313 1.351 . S
N316 N317 1.365 . S
N317 C314 1.341 . S
N317 N316 1.365 . S
N317 H337 0.862 . S
C318 C313 1.501 . S
C318 H319 0.961 . S
C318 H320 0.961 . S
C318 H321 0.960 . S
H319 C318 0.961 . S
H320 C318 0.961 . S
H321 C318 0.960 . S
C322 N323 1.342 . S
C322 C326 1.401 . S
C322 C327 1.499 . S
N323 Co306 1.989 . S
N323 C322 1.342 . S
N323 N324 1.388 . S
N324 Co307 1.993 . S
N324 N323 1.388 . S
N324 C325 1.346 . S
C325 N324 1.346 . S
C325 C326 1.396 . S
C325 C335 1.510 . S
C326 C322 1.401 . S
C326 C325 1.396 . S
C327 C322 1.499 . S
C327 H328 0.959 . S
C327 H329 0.960 . S
C327 H330 0.961 . S
H328 C327 0.959 . S
H329 C327 0.960 . S
H330 C327 0.961 . S
O331 Co306 1.967 . S
O331 C339 1.258 . S
O332 Co307 1.941 . S
O332 C339 1.266 . S
H333 C335 0.959 . S
H334 C335 0.961 . S
C335 C325 1.510 . S
C335 H333 0.959 . S
C335 H334 0.961 . S
C335 H336 0.960 . S
H336 C335 0.960 . S
H337 N317 0.862 . S
O338 Co306 1.920 . S
O338 C311 1.289 . S
C339 O331 1.258 . S
C339 O332 1.266 . S
Co340 O343 1.970 . S
Co340 N357 1.989 . S
Co340 O365 1.967 . S
Co340 O372 1.920 . S
Co341 O344 1.966 . S
Co341 N350 2.022 . S
Co341 N358 1.993 . S
Co341 O366 1.941 . S
C342 O343 1.258 . S
C342 O344 1.263 . S
O343 Co340 1.970 . S
O343 C342 1.258 . S
O344 Co341 1.966 . S
O344 C342 1.263 . S
C345 O346 1.235 . S
C345 O372 1.289 . S
O346 C345 1.235 . S
C347 C349 1.400 . S
C347 N350 1.351 . S
C347 C352 1.501 . S
C348 C349 1.387 . S
C348 N351 1.341 . S
C349 C347 1.400 . S
C349 C348 1.387 . S
N350 Co341 2.022 . S
N350 C347 1.351 . S
N350 N351 1.365 . S
N351 C348 1.341 . S
N351 N350 1.365 . S
N351 H371 0.862 . S
C352 C347 1.501 . S
C352 H353 0.961 . S
C352 H354 0.961 . S
C352 H355 0.960 . S
H353 C352 0.961 . S
H354 C352 0.961 . S
H355 C352 0.960 . S
C356 N357 1.342 . S
C356 C360 1.401 . S
C356 C361 1.499 . S
N357 Co340 1.989 . S
N357 C356 1.342 . S
N357 N358 1.388 . S
N358 Co341 1.993 . S
N358 N357 1.388 . S
N358 C359 1.346 . S
C359 N358 1.346 . S
C359 C360 1.396 . S
C359 C369 1.510 . S
C360 C356 1.401 . S
C360 C359 1.396 . S
C361 C356 1.499 . S
C361 H362 0.959 . S
C361 H363 0.960 . S
C361 H364 0.961 . S
H362 C361 0.959 . S
H363 C361 0.960 . S
H364 C361 0.961 . S
O365 Co340 1.967 . S
O365 C373 1.258 . S
O366 Co341 1.941 . S
O366 C373 1.266 . S
H367 C369 0.959 . S
H368 C369 0.961 . S
C369 C359 1.510 . S
C369 H367 0.959 . S
C369 H368 0.961 . S
C369 H370 0.960 . S
H370 C369 0.960 . S
H371 N351 0.862 . S
O372 Co340 1.920 . S
O372 C345 1.289 . S
C373 O365 1.258 . S
C373 O366 1.266 . S
Co374 O377 1.970 . S
Co374 N391 1.989 . S
Co374 O399 1.967 . S
Co374 O406 1.920 . S
Co375 O378 1.966 . S
Co375 N384 2.022 . S
Co375 N392 1.993 . S
Co375 O400 1.941 . S
C376 O377 1.258 . S
C376 O378 1.263 . S
O377 Co374 1.970 . S
O377 C376 1.258 . S
O378 Co375 1.966 . S
O378 C376 1.263 . S
C379 O380 1.235 . S
C379 O406 1.289 . S
O380 C379 1.235 . S
C381 C383 1.400 . S
C381 N384 1.351 . S
C381 C386 1.501 . S
C382 C383 1.387 . S
C382 N385 1.341 . S
C383 C381 1.400 . S
C383 C382 1.387 . S
N384 Co375 2.022 . S
N384 C381 1.351 . S
N384 N385 1.365 . S
N385 C382 1.341 . S
N385 N384 1.365 . S
N385 H405 0.862 . S
C386 C381 1.501 . S
C386 H387 0.961 . S
C386 H388 0.961 . S
C386 H389 0.960 . S
H387 C386 0.961 . S
H388 C386 0.961 . S
H389 C386 0.960 . S
C390 N391 1.342 . S
C390 C394 1.401 . S
C390 C395 1.499 . S
N391 Co374 1.989 . S
N391 C390 1.342 . S
N391 N392 1.388 . S
N392 Co375 1.993 . S
N392 N391 1.388 . S
N392 C393 1.346 . S
C393 N392 1.346 . S
C393 C394 1.396 . S
C393 C403 1.510 . S
C394 C390 1.401 . S
C394 C393 1.396 . S
C395 C390 1.499 . S
C395 H396 0.959 . S
C395 H397 0.960 . S
C395 H398 0.961 . S
H396 C395 0.959 . S
H397 C395 0.960 . S
H398 C395 0.961 . S
O399 Co374 1.967 . S
O399 C407 1.258 . S
O400 Co375 1.941 . S
O400 C407 1.266 . S
H401 C403 0.959 . S
H402 C403 0.961 . S
C403 C393 1.510 . S
C403 H401 0.959 . S
C403 H402 0.961 . S
C403 H404 0.960 . S
H404 C403 0.960 . S
H405 N385 0.862 . S
O406 Co374 1.920 . S
O406 C379 1.289 . S
C407 O399 1.258 . S
C407 O400 1.266 . S
Co408 O411 1.970 . S
Co408 N425 1.989 . S
Co408 O433 1.967 . S
Co408 O440 1.920 . S
Co409 O412 1.966 . S
Co409 N418 2.022 . S
Co409 N426 1.993 . S
Co409 O434 1.941 . S
C410 O411 1.258 . S
C410 O412 1.263 . S
O411 Co408 1.970 . S
O411 C410 1.258 . S
O412 Co409 1.966 . S
O412 C410 1.263 . S
C413 O414 1.235 . S
C413 O440 1.289 . S
O414 C413 1.235 . S
C415 C417 1.400 . S
C415 N418 1.351 . S
C415 C420 1.501 . S
C416 C417 1.387 . S
C416 N419 1.341 . S
C417 C415 1.400 . S
C417 C416 1.387 . S
N418 Co409 2.022 . S
N418 C415 1.351 . S
N418 N419 1.365 . S
N419 C416 1.341 . S
N419 N418 1.365 . S
N419 H439 0.862 . S
C420 C415 1.501 . S
C420 H421 0.961 . S
C420 H422 0.961 . S
C420 H423 0.960 . S
H421 C420 0.961 . S
H422 C420 0.961 . S
H423 C420 0.960 . S
C424 N425 1.342 . S
C424 C428 1.401 . S
C424 C429 1.499 . S
N425 Co408 1.989 . S
N425 C424 1.342 . S
N425 N426 1.388 . S
N426 Co409 1.993 . S
N426 N425 1.388 . S
N426 C427 1.346 . S
C427 N426 1.346 . S
C427 C428 1.396 . S
C427 C437 1.510 . S
C428 C424 1.401 . S
C428 C427 1.396 . S
C429 C424 1.499 . S
C429 H430 0.959 . S
C429 H431 0.960 . S
C429 H432 0.961 . S
H430 C429 0.959 . S
H431 C429 0.960 . S
H432 C429 0.961 . S
O433 Co408 1.967 . S
O433 C441 1.258 . S
O434 Co409 1.941 . S
O434 C441 1.266 . S
H435 C437 0.959 . S
H436 C437 0.961 . S
C437 C427 1.510 . S
C437 H435 0.959 . S
C437 H436 0.961 . S
C437 H438 0.960 . S
H438 C437 0.960 . S
H439 N419 0.862 . S
O440 Co408 1.920 . S
O440 C413 1.289 . S
C441 O433 1.258 . S
C441 O434 1.266 . S
Co442 O445 1.970 . S
Co442 N459 1.989 . S
Co442 O467 1.967 . S
Co442 O474 1.920 . S
Co443 O446 1.966 . S
Co443 N452 2.022 . S
Co443 N460 1.993 . S
Co443 O468 1.941 . S
C444 O445 1.258 . S
C444 O446 1.263 . S
O445 Co442 1.970 . S
O445 C444 1.258 . S
O446 Co443 1.966 . S
O446 C444 1.263 . S
C447 O448 1.235 . S
C447 O474 1.289 . S
O448 C447 1.235 . S
C449 C451 1.400 . S
C449 N452 1.351 . S
C449 C454 1.501 . S
C450 C451 1.387 . S
C450 N453 1.341 . S
C451 C449 1.400 . S
C451 C450 1.387 . S
N452 Co443 2.022 . S
N452 C449 1.351 . S
N452 N453 1.365 . S
N453 C450 1.341 . S
N453 N452 1.365 . S
N453 H473 0.862 . S
C454 C449 1.501 . S
C454 H455 0.961 . S
C454 H456 0.961 . S
C454 H457 0.960 . S
H455 C454 0.961 . S
H456 C454 0.961 . S
H457 C454 0.960 . S
C458 N459 1.342 . S
C458 C462 1.401 . S
C458 C463 1.499 . S
N459 Co442 1.989 . S
N459 C458 1.342 . S
N459 N460 1.388 . S
N460 Co443 1.993 . S
N460 N459 1.388 . S
N460 C461 1.346 . S
C461 N460 1.346 . S
C461 C462 1.396 . S
C461 C471 1.510 . S
C462 C458 1.401 . S
C462 C461 1.396 . S
C463 C458 1.499 . S
C463 H464 0.959 . S
C463 H465 0.960 . S
C463 H466 0.961 . S
H464 C463 0.959 . S
H465 C463 0.960 . S
H466 C463 0.961 . S
O467 Co442 1.967 . S
O467 C475 1.258 . S
O468 Co443 1.941 . S
O468 C475 1.266 . S
H469 C471 0.959 . S
H470 C471 0.961 . S
C471 C461 1.510 . S
C471 H469 0.959 . S
C471 H470 0.961 . S
C471 H472 0.960 . S
H472 C471 0.960 . S
H473 N453 0.862 . S
O474 Co442 1.920 . S
O474 C447 1.289 . S
C475 O467 1.258 . S
C475 O468 1.266 . S
Co476 O479 1.970 . S
Co476 N493 1.989 . S
Co476 O501 1.967 . S
Co476 O508 1.920 . S
Co477 O480 1.966 . S
Co477 N486 2.022 . S
Co477 N494 1.993 . S
Co477 O502 1.941 . S
C478 O479 1.258 . S
C478 O480 1.263 . S
O479 Co476 1.970 . S
O479 C478 1.258 . S
O480 Co477 1.966 . S
O480 C478 1.263 . S
C481 O482 1.235 . S
C481 O508 1.289 . S
O482 C481 1.235 . S
C483 C485 1.400 . S
C483 N486 1.351 . S
C483 C488 1.501 . S
C484 C485 1.387 . S
C484 N487 1.341 . S
C485 C483 1.400 . S
C485 C484 1.387 . S
N486 Co477 2.022 . S
N486 C483 1.351 . S
N486 N487 1.365 . S
N487 C484 1.341 . S
N487 N486 1.365 . S
N487 H507 0.862 . S
C488 C483 1.501 . S
C488 H489 0.961 . S
C488 H490 0.961 . S
C488 H491 0.960 . S
H489 C488 0.961 . S
H490 C488 0.961 . S
H491 C488 0.960 . S
C492 N493 1.342 . S
C492 C496 1.401 . S
C492 C497 1.499 . S
N493 Co476 1.989 . S
N493 C492 1.342 . S
N493 N494 1.388 . S
N494 Co477 1.993 . S
N494 N493 1.388 . S
N494 C495 1.346 . S
C495 N494 1.346 . S
C495 C496 1.396 . S
C495 C505 1.510 . S
C496 C492 1.401 . S
C496 C495 1.396 . S
C497 C492 1.499 . S
C497 H498 0.959 . S
C497 H499 0.960 . S
C497 H500 0.961 . S
H498 C497 0.959 . S
H499 C497 0.960 . S
H500 C497 0.961 . S
O501 Co476 1.967 . S
O501 C509 1.258 . S
O502 Co477 1.941 . S
O502 C509 1.266 . S
H503 C505 0.959 . S
H504 C505 0.961 . S
C505 C495 1.510 . S
C505 H503 0.959 . S
C505 H504 0.961 . S
C505 H506 0.960 . S
H506 C505 0.960 . S
H507 N487 0.862 . S
O508 Co476 1.920 . S
O508 C481 1.289 . S
C509 O501 1.258 . S
C509 O502 1.266 . S
Co510 O513 1.970 . S
Co510 N527 1.989 . S
Co510 O535 1.967 . S
Co510 O542 1.920 . S
Co511 O514 1.966 . S
Co511 N520 2.022 . S
Co511 N528 1.993 . S
Co511 O536 1.941 . S
C512 O513 1.258 . S
C512 O514 1.263 . S
O513 Co510 1.970 . S
O513 C512 1.258 . S
O514 Co511 1.966 . S
O514 C512 1.263 . S
C515 O516 1.235 . S
C515 O542 1.289 . S
O516 C515 1.235 . S
C517 C519 1.400 . S
C517 N520 1.351 . S
C517 C522 1.501 . S
C518 C519 1.387 . S
C518 N521 1.341 . S
C519 C517 1.400 . S
C519 C518 1.387 . S
N520 Co511 2.022 . S
N520 C517 1.351 . S
N520 N521 1.365 . S
N521 C518 1.341 . S
N521 N520 1.365 . S
N521 H541 0.862 . S
C522 C517 1.501 . S
C522 H523 0.961 . S
C522 H524 0.961 . S
C522 H525 0.960 . S
H523 C522 0.961 . S
H524 C522 0.961 . S
H525 C522 0.960 . S
C526 N527 1.342 . S
C526 C530 1.401 . S
C526 C531 1.499 . S
N527 Co510 1.989 . S
N527 C526 1.342 . S
N527 N528 1.388 . S
N528 Co511 1.993 . S
N528 N527 1.388 . S
N528 C529 1.346 . S
C529 N528 1.346 . S
C529 C530 1.396 . S
C529 C539 1.510 . S
C530 C526 1.401 . S
C530 C529 1.396 . S
C531 C526 1.499 . S
C531 H532 0.959 . S
C531 H533 0.960 . S
C531 H534 0.961 . S
H532 C531 0.959 . S
H533 C531 0.960 . S
H534 C531 0.961 . S
O535 Co510 1.967 . S
O535 C543 1.258 . S
O536 Co511 1.941 . S
O536 C543 1.266 . S
H537 C539 0.959 . S
H538 C539 0.961 . S
C539 C529 1.510 . S
C539 H537 0.959 . S
C539 H538 0.961 . S
C539 H540 0.960 . S
H540 C539 0.960 . S
H541 N521 0.862 . S
O542 Co510 1.920 . S
O542 C515 1.289 . S
C543 O535 1.258 . S
C543 O536 1.266 . S
Co544 O547 1.970 . S
Co544 N561 1.989 . S
Co544 O569 1.967 . S
Co544 O576 1.920 . S
Co545 O548 1.966 . S
Co545 N554 2.022 . S
Co545 N562 1.993 . S
Co545 O570 1.941 . S
C546 O547 1.258 . S
C546 O548 1.263 . S
O547 Co544 1.970 . S
O547 C546 1.258 . S
O548 Co545 1.966 . S
O548 C546 1.263 . S
C549 O550 1.235 . S
C549 O576 1.289 . S
O550 C549 1.235 . S
C551 C553 1.400 . S
C551 N554 1.351 . S
C551 C556 1.501 . S
C552 C553 1.387 . S
C552 N555 1.341 . S
C553 C551 1.400 . S
C553 C552 1.387 . S
N554 Co545 2.022 . S
N554 C551 1.351 . S
N554 N555 1.365 . S
N555 C552 1.341 . S
N555 N554 1.365 . S
N555 H575 0.862 . S
C556 C551 1.501 . S
C556 H557 0.961 . S
C556 H558 0.961 . S
C556 H559 0.960 . S
H557 C556 0.961 . S
H558 C556 0.961 . S
H559 C556 0.960 . S
C560 N561 1.342 . S
C560 C564 1.401 . S
C560 C565 1.499 . S
N561 Co544 1.989 . S
N561 C560 1.342 . S
N561 N562 1.388 . S
N562 Co545 1.993 . S
N562 N561 1.388 . S
N562 C563 1.346 . S
C563 N562 1.346 . S
C563 C564 1.396 . S
C563 C573 1.510 . S
C564 C560 1.401 . S
C564 C563 1.396 . S
C565 C560 1.499 . S
C565 H566 0.959 . S
C565 H567 0.960 . S
C565 H568 0.961 . S
H566 C565 0.959 . S
H567 C565 0.960 . S
H568 C565 0.961 . S
O569 Co544 1.967 . S
O569 C577 1.258 . S
O570 Co545 1.941 . S
O570 C577 1.266 . S
H571 C573 0.959 . S
H572 C573 0.961 . S
C573 C563 1.510 . S
C573 H571 0.959 . S
C573 H572 0.961 . S
C573 H574 0.960 . S
H574 C573 0.960 . S
H575 N555 0.862 . S
O576 Co544 1.920 . S
O576 C549 1.289 . S
C577 O569 1.258 . S
C577 O570 1.266 . S
Co578 O581 1.970 . S
Co578 N595 1.989 . S
Co578 O603 1.967 . S
Co578 O610 1.920 . S
Co579 O582 1.966 . S
Co579 N588 2.022 . S
Co579 N596 1.993 . S
Co579 O604 1.941 . S
C580 O581 1.258 . S
C580 O582 1.263 . S
O581 Co578 1.970 . S
O581 C580 1.258 . S
O582 Co579 1.966 . S
O582 C580 1.263 . S
C583 O584 1.235 . S
C583 O610 1.289 . S
O584 C583 1.235 . S
C585 C587 1.400 . S
C585 N588 1.351 . S
C585 C590 1.501 . S
C586 C587 1.387 . S
C586 N589 1.341 . S
C587 C585 1.400 . S
C587 C586 1.387 . S
N588 Co579 2.022 . S
N588 C585 1.351 . S
N588 N589 1.365 . S
N589 C586 1.341 . S
N589 N588 1.365 . S
N589 H609 0.862 . S
C590 C585 1.501 . S
C590 H591 0.961 . S
C590 H592 0.961 . S
C590 H593 0.960 . S
H591 C590 0.961 . S
H592 C590 0.961 . S
H593 C590 0.960 . S
C594 N595 1.342 . S
C594 C598 1.401 . S
C594 C599 1.499 . S
N595 Co578 1.989 . S
N595 C594 1.342 . S
N595 N596 1.388 . S
N596 Co579 1.993 . S
N596 N595 1.388 . S
N596 C597 1.346 . S
C597 N596 1.346 . S
C597 C598 1.396 . S
C597 C607 1.510 . S
C598 C594 1.401 . S
C598 C597 1.396 . S
C599 C594 1.499 . S
C599 H600 0.959 . S
C599 H601 0.960 . S
C599 H602 0.961 . S
H600 C599 0.959 . S
H601 C599 0.960 . S
H602 C599 0.961 . S
O603 Co578 1.967 . S
O603 C611 1.258 . S
O604 Co579 1.941 . S
O604 C611 1.266 . S
H605 C607 0.959 . S
H606 C607 0.961 . S
C607 C597 1.510 . S
C607 H605 0.959 . S
C607 H606 0.961 . S
C607 H608 0.960 . S
H608 C607 0.960 . S
H609 N589 0.862 . S
O610 Co578 1.920 . S
O610 C583 1.289 . S
C611 O603 1.258 . S
C611 O604 1.266 . S
Co612 O615 1.970 . S
Co612 N629 1.989 . S
Co612 O637 1.967 . S
Co612 O644 1.920 . S
Co613 O616 1.966 . S
Co613 N622 2.022 . S
Co613 N630 1.993 . S
Co613 O638 1.941 . S
C614 O615 1.258 . S
C614 O616 1.263 . S
O615 Co612 1.970 . S
O615 C614 1.258 . S
O616 Co613 1.966 . S
O616 C614 1.263 . S
C617 O618 1.235 . S
C617 O644 1.289 . S
O618 C617 1.235 . S
C619 C621 1.400 . S
C619 N622 1.351 . S
C619 C624 1.501 . S
C620 C621 1.387 . S
C620 N623 1.341 . S
C621 C619 1.400 . S
C621 C620 1.387 . S
N622 Co613 2.022 . S
N622 C619 1.351 . S
N622 N623 1.365 . S
N623 C620 1.341 . S
N623 N622 1.365 . S
N623 H643 0.862 . S
C624 C619 1.501 . S
C624 H625 0.961 . S
C624 H626 0.961 . S
C624 H627 0.960 . S
H625 C624 0.961 . S
H626 C624 0.961 . S
H627 C624 0.960 . S
C628 N629 1.342 . S
C628 C632 1.401 . S
C628 C633 1.499 . S
N629 Co612 1.989 . S
N629 C628 1.342 . S
N629 N630 1.388 . S
N630 Co613 1.993 . S
N630 N629 1.388 . S
N630 C631 1.346 . S
C631 N630 1.346 . S
C631 C632 1.396 . S
C631 C641 1.510 . S
C632 C628 1.401 . S
C632 C631 1.396 . S
C633 C628 1.499 . S
C633 H634 0.959 . S
C633 H635 0.960 . S
C633 H636 0.961 . S
H634 C633 0.959 . S
H635 C633 0.960 . S
H636 C633 0.961 . S
O637 Co612 1.967 . S
O637 C645 1.258 . S
O638 Co613 1.941 . S
O638 C645 1.266 . S
H639 C641 0.959 . S
H640 C641 0.961 . S
C641 C631 1.510 . S
C641 H639 0.959 . S
C641 H640 0.961 . S
C641 H642 0.960 . S
H642 C641 0.960 . S
H643 N623 0.862 . S
O644 Co612 1.920 . S
O644 C617 1.289 . S
C645 O637 1.258 . S
C645 O638 1.266 . S
Co646 O649 1.970 . S
Co646 N663 1.989 . S
Co646 O671 1.967 . S
Co646 O678 1.920 . S
Co647 O650 1.966 . S
Co647 N656 2.022 . S
Co647 N664 1.993 . S
Co647 O672 1.941 . S
C648 O649 1.258 . S
C648 O650 1.263 . S
O649 Co646 1.970 . S
O649 C648 1.258 . S
O650 Co647 1.966 . S
O650 C648 1.263 . S
C651 O652 1.235 . S
C651 O678 1.289 . S
O652 C651 1.235 . S
C653 C655 1.400 . S
C653 N656 1.351 . S
C653 C658 1.501 . S
C654 C655 1.387 . S
C654 N657 1.341 . S
C655 C653 1.400 . S
C655 C654 1.387 . S
N656 Co647 2.022 . S
N656 C653 1.351 . S
N656 N657 1.365 . S
N657 C654 1.341 . S
N657 N656 1.365 . S
N657 H677 0.862 . S
C658 C653 1.501 . S
C658 H659 0.961 . S
C658 H660 0.961 . S
C658 H661 0.960 . S
H659 C658 0.961 . S
H660 C658 0.961 . S
H661 C658 0.960 . S
C662 N663 1.342 . S
C662 C666 1.401 . S
C662 C667 1.499 . S
N663 Co646 1.989 . S
N663 C662 1.342 . S
N663 N664 1.388 . S
N664 Co647 1.993 . S
N664 N663 1.388 . S
N664 C665 1.346 . S
C665 N664 1.346 . S
C665 C666 1.396 . S
C665 C675 1.510 . S
C666 C662 1.401 . S
C666 C665 1.396 . S
C667 C662 1.499 . S
C667 H668 0.959 . S
C667 H669 0.960 . S
C667 H670 0.961 . S
H668 C667 0.959 . S
H669 C667 0.960 . S
H670 C667 0.961 . S
O671 Co646 1.967 . S
O671 C679 1.258 . S
O672 Co647 1.941 . S
O672 C679 1.266 . S
H673 C675 0.959 . S
H674 C675 0.961 . S
C675 C665 1.510 . S
C675 H673 0.959 . S
C675 H674 0.961 . S
C675 H676 0.960 . S
H676 C675 0.960 . S
H677 N657 0.862 . S
O678 Co646 1.920 . S
O678 C651 1.289 . S
C679 O671 1.258 . S
C679 O672 1.266 . S
Co680 O683 1.970 . S
Co680 N697 1.989 . S
Co680 O705 1.967 . S
Co680 O712 1.920 . S
Co681 O684 1.966 . S
Co681 N690 2.022 . S
Co681 N698 1.993 . S
Co681 O706 1.941 . S
C682 O683 1.258 . S
C682 O684 1.263 . S
O683 Co680 1.970 . S
O683 C682 1.258 . S
O684 Co681 1.966 . S
O684 C682 1.263 . S
C685 O686 1.235 . S
C685 O712 1.289 . S
O686 C685 1.235 . S
C687 C689 1.400 . S
C687 N690 1.351 . S
C687 C692 1.501 . S
C688 C689 1.387 . S
C688 N691 1.341 . S
C689 C687 1.400 . S
C689 C688 1.387 . S
N690 Co681 2.022 . S
N690 C687 1.351 . S
N690 N691 1.365 . S
N691 C688 1.341 . S
N691 N690 1.365 . S
N691 H711 0.862 . S
C692 C687 1.501 . S
C692 H693 0.961 . S
C692 H694 0.961 . S
C692 H695 0.960 . S
H693 C692 0.961 . S
H694 C692 0.961 . S
H695 C692 0.960 . S
C696 N697 1.342 . S
C696 C700 1.401 . S
C696 C701 1.499 . S
N697 Co680 1.989 . S
N697 C696 1.342 . S
N697 N698 1.388 . S
N698 Co681 1.993 . S
N698 N697 1.388 . S
N698 C699 1.346 . S
C699 N698 1.346 . S
C699 C700 1.396 . S
C699 C709 1.510 . S
C700 C696 1.401 . S
C700 C699 1.396 . S
C701 C696 1.499 . S
C701 H702 0.959 . S
C701 H703 0.960 . S
C701 H704 0.961 . S
H702 C701 0.959 . S
H703 C701 0.960 . S
H704 C701 0.961 . S
O705 Co680 1.967 . S
O705 C713 1.258 . S
O706 Co681 1.941 . S
O706 C713 1.266 . S
H707 C709 0.959 . S
H708 C709 0.961 . S
C709 C699 1.510 . S
C709 H707 0.959 . S
C709 H708 0.961 . S
C709 H710 0.960 . S
H710 C709 0.960 . S
H711 N691 0.862 . S
O712 Co680 1.920 . S
O712 C685 1.289 . S
C713 O705 1.258 . S
C713 O706 1.266 . S
Co714 O717 1.970 . S
Co714 N731 1.989 . S
Co714 O739 1.967 . S
Co714 O746 1.920 . S
Co715 O718 1.966 . S
Co715 N724 2.022 . S
Co715 N732 1.993 . S
Co715 O740 1.941 . S
C716 O717 1.258 . S
C716 O718 1.263 . S
O717 Co714 1.970 . S
O717 C716 1.258 . S
O718 Co715 1.966 . S
O718 C716 1.263 . S
C719 O720 1.235 . S
C719 O746 1.289 . S
O720 C719 1.235 . S
C721 C723 1.400 . S
C721 N724 1.351 . S
C721 C726 1.501 . S
C722 C723 1.387 . S
C722 N725 1.341 . S
C723 C721 1.400 . S
C723 C722 1.387 . S
N724 Co715 2.022 . S
N724 C721 1.351 . S
N724 N725 1.365 . S
N725 C722 1.341 . S
N725 N724 1.365 . S
N725 H745 0.862 . S
C726 C721 1.501 . S
C726 H727 0.961 . S
C726 H728 0.961 . S
C726 H729 0.960 . S
H727 C726 0.961 . S
H728 C726 0.961 . S
H729 C726 0.960 . S
C730 N731 1.342 . S
C730 C734 1.401 . S
C730 C735 1.499 . S
N731 Co714 1.989 . S
N731 C730 1.342 . S
N731 N732 1.388 . S
N732 Co715 1.993 . S
N732 N731 1.388 . S
N732 C733 1.346 . S
C733 N732 1.346 . S
C733 C734 1.396 . S
C733 C743 1.510 . S
C734 C730 1.401 . S
C734 C733 1.396 . S
C735 C730 1.499 . S
C735 H736 0.959 . S
C735 H737 0.960 . S
C735 H738 0.961 . S
H736 C735 0.959 . S
H737 C735 0.960 . S
H738 C735 0.961 . S
O739 Co714 1.967 . S
O739 C747 1.258 . S
O740 Co715 1.941 . S
O740 C747 1.266 . S
H741 C743 0.959 . S
H742 C743 0.961 . S
C743 C733 1.510 . S
C743 H741 0.959 . S
C743 H742 0.961 . S
C743 H744 0.960 . S
H744 C743 0.960 . S
H745 N725 0.862 . S
O746 Co714 1.920 . S
O746 C719 1.289 . S
C747 O739 1.258 . S
C747 O740 1.266 . S
Co748 O751 1.970 . S
Co748 N765 1.989 . S
Co748 O773 1.967 . S
Co748 O780 1.920 . S
Co749 O752 1.966 . S
Co749 N758 2.022 . S
Co749 N766 1.993 . S
Co749 O774 1.941 . S
C750 O751 1.258 . S
C750 O752 1.263 . S
O751 Co748 1.970 . S
O751 C750 1.258 . S
O752 Co749 1.966 . S
O752 C750 1.263 . S
C753 O754 1.235 . S
C753 O780 1.289 . S
O754 C753 1.235 . S
C755 C757 1.400 . S
C755 N758 1.351 . S
C755 C760 1.501 . S
C756 C757 1.387 . S
C756 N759 1.341 . S
C757 C755 1.400 . S
C757 C756 1.387 . S
N758 Co749 2.022 . S
N758 C755 1.351 . S
N758 N759 1.365 . S
N759 C756 1.341 . S
N759 N758 1.365 . S
N759 H779 0.862 . S
C760 C755 1.501 . S
C760 H761 0.961 . S
C760 H762 0.961 . S
C760 H763 0.960 . S
H761 C760 0.961 . S
H762 C760 0.961 . S
H763 C760 0.960 . S
C764 N765 1.342 . S
C764 C768 1.401 . S
C764 C769 1.499 . S
N765 Co748 1.989 . S
N765 C764 1.342 . S
N765 N766 1.388 . S
N766 Co749 1.993 . S
N766 N765 1.388 . S
N766 C767 1.346 . S
C767 N766 1.346 . S
C767 C768 1.396 . S
C767 C777 1.510 . S
C768 C764 1.401 . S
C768 C767 1.396 . S
C769 C764 1.499 . S
C769 H770 0.959 . S
C769 H771 0.960 . S
C769 H772 0.961 . S
H770 C769 0.959 . S
H771 C769 0.960 . S
H772 C769 0.961 . S
O773 Co748 1.967 . S
O773 C781 1.258 . S
O774 Co749 1.941 . S
O774 C781 1.266 . S
H775 C777 0.959 . S
H776 C777 0.961 . S
C777 C767 1.510 . S
C777 H775 0.959 . S
C777 H776 0.961 . S
C777 H778 0.960 . S
H778 C777 0.960 . S
H779 N759 0.862 . S
O780 Co748 1.920 . S
O780 C753 1.289 . S
C781 O773 1.258 . S
C781 O774 1.266 . S
Co782 O785 1.970 . S
Co782 N799 1.989 . S
Co782 O807 1.967 . S
Co782 O814 1.920 . S
Co783 O786 1.966 . S
Co783 N792 2.022 . S
Co783 N800 1.993 . S
Co783 O808 1.941 . S
C784 O785 1.258 . S
C784 O786 1.263 . S
O785 Co782 1.970 . S
O785 C784 1.258 . S
O786 Co783 1.966 . S
O786 C784 1.263 . S
C787 O788 1.235 . S
C787 O814 1.289 . S
O788 C787 1.235 . S
C789 C791 1.400 . S
C789 N792 1.351 . S
C789 C794 1.501 . S
C790 C791 1.387 . S
C790 N793 1.341 . S
C791 C789 1.400 . S
C791 C790 1.387 . S
N792 Co783 2.022 . S
N792 C789 1.351 . S
N792 N793 1.365 . S
N793 C790 1.341 . S
N793 N792 1.365 . S
N793 H813 0.862 . S
C794 C789 1.501 . S
C794 H795 0.961 . S
C794 H796 0.961 . S
C794 H797 0.960 . S
H795 C794 0.961 . S
H796 C794 0.961 . S
H797 C794 0.960 . S
C798 N799 1.342 . S
C798 C802 1.401 . S
C798 C803 1.499 . S
N799 Co782 1.989 . S
N799 C798 1.342 . S
N799 N800 1.388 . S
N800 Co783 1.993 . S
N800 N799 1.388 . S
N800 C801 1.346 . S
C801 N800 1.346 . S
C801 C802 1.396 . S
C801 C811 1.510 . S
C802 C798 1.401 . S
C802 C801 1.396 . S
C803 C798 1.499 . S
C803 H804 0.959 . S
C803 H805 0.960 . S
C803 H806 0.961 . S
H804 C803 0.959 . S
H805 C803 0.960 . S
H806 C803 0.961 . S
O807 Co782 1.967 . S
O807 C815 1.258 . S
O808 Co783 1.941 . S
O808 C815 1.266 . S
H809 C811 0.959 . S
H810 C811 0.961 . S
C811 C801 1.510 . S
C811 H809 0.959 . S
C811 H810 0.961 . S
C811 H812 0.960 . S
H812 C811 0.960 . S
H813 N793 0.862 . S
O814 Co782 1.920 . S
O814 C787 1.289 . S
C815 O807 1.258 . S
C815 O808 1.266 . S
Co816 O819 1.970 . S
Co816 N833 1.989 . S
Co816 O841 1.967 . S
Co816 O848 1.920 . S
Co817 O820 1.966 . S
Co817 N826 2.022 . S
Co817 N834 1.993 . S
Co817 O842 1.941 . S
C818 O819 1.258 . S
C818 O820 1.263 . S
O819 Co816 1.970 . S
O819 C818 1.258 . S
O820 Co817 1.966 . S
O820 C818 1.263 . S
C821 O822 1.235 . S
C821 O848 1.289 . S
O822 C821 1.235 . S
C823 C825 1.400 . S
C823 N826 1.351 . S
C823 C828 1.501 . S
C824 C825 1.387 . S
C824 N827 1.341 . S
C825 C823 1.400 . S
C825 C824 1.387 . S
N826 Co817 2.022 . S
N826 C823 1.351 . S
N826 N827 1.365 . S
N827 C824 1.341 . S
N827 N826 1.365 . S
N827 H847 0.862 . S
C828 C823 1.501 . S
C828 H829 0.961 . S
C828 H830 0.961 . S
C828 H831 0.960 . S
H829 C828 0.961 . S
H830 C828 0.961 . S
H831 C828 0.960 . S
C832 N833 1.342 . S
C832 C836 1.401 . S
C832 C837 1.499 . S
N833 Co816 1.989 . S
N833 C832 1.342 . S
N833 N834 1.388 . S
N834 Co817 1.993 . S
N834 N833 1.388 . S
N834 C835 1.346 . S
C835 N834 1.346 . S
C835 C836 1.396 . S
C835 C845 1.510 . S
C836 C832 1.401 . S
C836 C835 1.396 . S
C837 C832 1.499 . S
C837 H838 0.959 . S
C837 H839 0.960 . S
C837 H840 0.961 . S
H838 C837 0.959 . S
H839 C837 0.960 . S
H840 C837 0.961 . S
O841 Co816 1.967 . S
O841 C849 1.258 . S
O842 Co817 1.941 . S
O842 C849 1.266 . S
H843 C845 0.959 . S
H844 C845 0.961 . S
C845 C835 1.510 . S
C845 H843 0.959 . S
C845 H844 0.961 . S
C845 H846 0.960 . S
H846 C845 0.960 . S
H847 N827 0.862 . S
O848 Co816 1.920 . S
O848 C821 1.289 . S
C849 O841 1.258 . S
C849 O842 1.266 . S
Co850 O853 1.970 . S
Co850 N867 1.989 . S
Co850 O875 1.967 . S
Co850 O882 1.920 . S
Co851 O854 1.966 . S
Co851 N860 2.022 . S
Co851 N868 1.993 . S
Co851 O876 1.941 . S
C852 O853 1.258 . S
C852 O854 1.263 . S
O853 Co850 1.970 . S
O853 C852 1.258 . S
O854 Co851 1.966 . S
O854 C852 1.263 . S
C855 O856 1.235 . S
C855 O882 1.289 . S
O856 C855 1.235 . S
C857 C859 1.400 . S
C857 N860 1.351 . S
C857 C862 1.501 . S
C858 C859 1.387 . S
C858 N861 1.341 . S
C859 C857 1.400 . S
C859 C858 1.387 . S
N860 Co851 2.022 . S
N860 C857 1.351 . S
N860 N861 1.365 . S
N861 C858 1.341 . S
N861 N860 1.365 . S
N861 H881 0.862 . S
C862 C857 1.501 . S
C862 H863 0.961 . S
C862 H864 0.961 . S
C862 H865 0.960 . S
H863 C862 0.961 . S
H864 C862 0.961 . S
H865 C862 0.960 . S
C866 N867 1.342 . S
C866 C870 1.401 . S
C866 C871 1.499 . S
N867 Co850 1.989 . S
N867 C866 1.342 . S
N867 N868 1.388 . S
N868 Co851 1.993 . S
N868 N867 1.388 . S
N868 C869 1.346 . S
C869 N868 1.346 . S
C869 C870 1.396 . S
C869 C879 1.510 . S
C870 C866 1.401 . S
C870 C869 1.396 . S
C871 C866 1.499 . S
C871 H872 0.959 . S
C871 H873 0.960 . S
C871 H874 0.961 . S
H872 C871 0.959 . S
H873 C871 0.960 . S
H874 C871 0.961 . S
O875 Co850 1.967 . S
O875 C883 1.258 . S
O876 Co851 1.941 . S
O876 C883 1.266 . S
H877 C879 0.959 . S
H878 C879 0.961 . S
C879 C869 1.510 . S
C879 H877 0.959 . S
C879 H878 0.961 . S
C879 H880 0.960 . S
H880 C879 0.960 . S
H881 N861 0.862 . S
O882 Co850 1.920 . S
O882 C855 1.289 . S
C883 O875 1.258 . S
C883 O876 1.266 . S
Co884 O887 1.970 . S
Co884 N901 1.989 . S
Co884 O909 1.967 . S
Co884 O916 1.920 . S
Co885 O888 1.966 . S
Co885 N894 2.022 . S
Co885 N902 1.993 . S
Co885 O910 1.941 . S
C886 O887 1.258 . S
C886 O888 1.263 . S
O887 Co884 1.970 . S
O887 C886 1.258 . S
O888 Co885 1.966 . S
O888 C886 1.263 . S
C889 O890 1.235 . S
C889 O916 1.289 . S
O890 C889 1.235 . S
C891 C893 1.400 . S
C891 N894 1.351 . S
C891 C896 1.501 . S
C892 C893 1.387 . S
C892 N895 1.341 . S
C893 C891 1.400 . S
C893 C892 1.387 . S
N894 Co885 2.022 . S
N894 C891 1.351 . S
N894 N895 1.365 . S
N895 C892 1.341 . S
N895 N894 1.365 . S
N895 H915 0.862 . S
C896 C891 1.501 . S
C896 H897 0.961 . S
C896 H898 0.961 . S
C896 H899 0.960 . S
H897 C896 0.961 . S
H898 C896 0.961 . S
H899 C896 0.960 . S
C900 N901 1.342 . S
C900 C904 1.401 . S
C900 C905 1.499 . S
N901 Co884 1.989 . S
N901 C900 1.342 . S
N901 N902 1.388 . S
N902 Co885 1.993 . S
N902 N901 1.388 . S
N902 C903 1.346 . S
C903 N902 1.346 . S
C903 C904 1.396 . S
C903 C913 1.510 . S
C904 C900 1.401 . S
C904 C903 1.396 . S
C905 C900 1.499 . S
C905 H906 0.959 . S
C905 H907 0.960 . S
C905 H908 0.961 . S
H906 C905 0.959 . S
H907 C905 0.960 . S
H908 C905 0.961 . S
O909 Co884 1.967 . S
O909 C917 1.258 . S
O910 Co885 1.941 . S
O910 C917 1.266 . S
H911 C913 0.959 . S
H912 C913 0.961 . S
C913 C903 1.510 . S
C913 H911 0.959 . S
C913 H912 0.961 . S
C913 H914 0.960 . S
H914 C913 0.960 . S
H915 N895 0.862 . S
O916 Co884 1.920 . S
O916 C889 1.289 . S
C917 O909 1.258 . S
C917 O910 1.266 . S
Co918 O921 1.970 . S
Co918 N935 1.989 . S
Co918 O943 1.967 . S
Co918 O950 1.920 . S
Co919 O922 1.966 . S
Co919 N928 2.022 . S
Co919 N936 1.993 . S
Co919 O944 1.941 . S
C920 O921 1.258 . S
C920 O922 1.263 . S
O921 Co918 1.970 . S
O921 C920 1.258 . S
O922 Co919 1.966 . S
O922 C920 1.263 . S
C923 O924 1.235 . S
C923 O950 1.289 . S
O924 C923 1.235 . S
C925 C927 1.400 . S
C925 N928 1.351 . S
C925 C930 1.501 . S
C926 C927 1.387 . S
C926 N929 1.341 . S
C927 C925 1.400 . S
C927 C926 1.387 . S
N928 Co919 2.022 . S
N928 C925 1.351 . S
N928 N929 1.365 . S
N929 C926 1.341 . S
N929 N928 1.365 . S
N929 H949 0.862 . S
C930 C925 1.501 . S
C930 H931 0.961 . S
C930 H932 0.961 . S
C930 H933 0.960 . S
H931 C930 0.961 . S
H932 C930 0.961 . S
H933 C930 0.960 . S
C934 N935 1.342 . S
C934 C938 1.401 . S
C934 C939 1.499 . S
N935 Co918 1.989 . S
N935 C934 1.342 . S
N935 N936 1.388 . S
N936 Co919 1.993 . S
N936 N935 1.388 . S
N936 C937 1.346 . S
C937 N936 1.346 . S
C937 C938 1.396 . S
C937 C947 1.510 . S
C938 C934 1.401 . S
C938 C937 1.396 . S
C939 C934 1.499 . S
C939 H940 0.959 . S
C939 H941 0.960 . S
C939 H942 0.961 . S
H940 C939 0.959 . S
H941 C939 0.960 . S
H942 C939 0.961 . S
O943 Co918 1.967 . S
O943 C951 1.258 . S
O944 Co919 1.941 . S
O944 C951 1.266 . S
H945 C947 0.959 . S
H946 C947 0.961 . S
C947 C937 1.510 . S
C947 H945 0.959 . S
C947 H946 0.961 . S
C947 H948 0.960 . S
H948 C947 0.960 . S
H949 N929 0.862 . S
O950 Co918 1.920 . S
O950 C923 1.289 . S
C951 O943 1.258 . S
C951 O944 1.266 . S
Co952 O955 1.970 . S
Co952 N969 1.989 . S
Co952 O977 1.967 . S
Co952 O984 1.920 . S
Co953 O956 1.966 . S
Co953 N962 2.022 . S
Co953 N970 1.993 . S
Co953 O978 1.941 . S
C954 O955 1.258 . S
C954 O956 1.263 . S
O955 Co952 1.970 . S
O955 C954 1.258 . S
O956 Co953 1.966 . S
O956 C954 1.263 . S
C957 O958 1.235 . S
C957 O984 1.289 . S
O958 C957 1.235 . S
C959 C961 1.400 . S
C959 N962 1.351 . S
C959 C964 1.501 . S
C960 C961 1.387 . S
C960 N963 1.341 . S
C961 C959 1.400 . S
C961 C960 1.387 . S
N962 Co953 2.022 . S
N962 C959 1.351 . S
N962 N963 1.365 . S
N963 C960 1.341 . S
N963 N962 1.365 . S
N963 H983 0.862 . S
C964 C959 1.501 . S
C964 H965 0.961 . S
C964 H966 0.961 . S
C964 H967 0.960 . S
H965 C964 0.961 . S
H966 C964 0.961 . S
H967 C964 0.960 . S
C968 N969 1.342 . S
C968 C972 1.401 . S
C968 C973 1.499 . S
N969 Co952 1.989 . S
N969 C968 1.342 . S
N969 N970 1.388 . S
N970 Co953 1.993 . S
N970 N969 1.388 . S
N970 C971 1.346 . S
C971 N970 1.346 . S
C971 C972 1.396 . S
C971 C981 1.510 . S
C972 C968 1.401 . S
C972 C971 1.396 . S
C973 C968 1.499 . S
C973 H974 0.959 . S
C973 H975 0.960 . S
C973 H976 0.961 . S
H974 C973 0.959 . S
H975 C973 0.960 . S
H976 C973 0.961 . S
O977 Co952 1.967 . S
O977 C985 1.258 . S
O978 Co953 1.941 . S
O978 C985 1.266 . S
H979 C981 0.959 . S
H980 C981 0.961 . S
C981 C971 1.510 . S
C981 H979 0.959 . S
C981 H980 0.961 . S
C981 H982 0.960 . S
H982 C981 0.960 . S
H983 N963 0.862 . S
O984 Co952 1.920 . S
O984 C957 1.289 . S
C985 O977 1.258 . S
C985 O978 1.266 . S
Co986 O989 1.970 . S
Co986 N1003 1.989 . S
Co986 O1011 1.967 . S
Co986 O1018 1.920 . S
Co987 O990 1.966 . S
Co987 N996 2.022 . S
Co987 N1004 1.993 . S
Co987 O1012 1.941 . S
C988 O989 1.258 . S
C988 O990 1.263 . S
O989 Co986 1.970 . S
O989 C988 1.258 . S
O990 Co987 1.966 . S
O990 C988 1.263 . S
C991 O992 1.235 . S
C991 O1018 1.289 . S
O992 C991 1.235 . S
C993 C995 1.400 . S
C993 N996 1.351 . S
C993 C998 1.501 . S
C994 C995 1.387 . S
C994 N997 1.341 . S
C995 C993 1.400 . S
C995 C994 1.387 . S
N996 Co987 2.022 . S
N996 C993 1.351 . S
N996 N997 1.365 . S
N997 C994 1.341 . S
N997 N996 1.365 . S
N997 H1017 0.862 . S
C998 C993 1.501 . S
C998 H999 0.961 . S
C998 H1000 0.961 . S
C998 H1001 0.960 . S
H999 C998 0.961 . S
H1000 C998 0.961 . S
H1001 C998 0.960 . S
C1002 N1003 1.342 . S
C1002 C1006 1.401 . S
C1002 C1007 1.499 . S
N1003 Co986 1.989 . S
N1003 C1002 1.342 . S
N1003 N1004 1.388 . S
N1004 Co987 1.993 . S
N1004 N1003 1.388 . S
N1004 C1005 1.346 . S
C1005 N1004 1.346 . S
C1005 C1006 1.396 . S
C1005 C1015 1.510 . S
C1006 C1002 1.401 . S
C1006 C1005 1.396 . S
C1007 C1002 1.499 . S
C1007 H1008 0.959 . S
C1007 H1009 0.960 . S
C1007 H1010 0.961 . S
H1008 C1007 0.959 . S
H1009 C1007 0.960 . S
H1010 C1007 0.961 . S
O1011 Co986 1.967 . S
O1011 C1019 1.258 . S
O1012 Co987 1.941 . S
O1012 C1019 1.266 . S
H1013 C1015 0.959 . S
H1014 C1015 0.961 . S
C1015 C1005 1.510 . S
C1015 H1013 0.959 . S
C1015 H1014 0.961 . S
C1015 H1016 0.960 . S
H1016 C1015 0.960 . S
H1017 N997 0.862 . S
O1018 Co986 1.920 . S
O1018 C991 1.289 . S
C1019 O1011 1.258 . S
C1019 O1012 1.266 . S
Co1020 O1023 1.970 . S
Co1020 N1037 1.989 . S
Co1020 O1045 1.967 . S
Co1020 O1052 1.920 . S
Co1021 O1024 1.966 . S
Co1021 N1030 2.022 . S
Co1021 N1038 1.993 . S
Co1021 O1046 1.941 . S
C1022 O1023 1.258 . S
C1022 O1024 1.263 . S
O1023 Co1020 1.970 . S
O1023 C1022 1.258 . S
O1024 Co1021 1.966 . S
O1024 C1022 1.263 . S
C1025 O1026 1.235 . S
C1025 O1052 1.289 . S
O1026 C1025 1.235 . S
C1027 C1029 1.400 . S
C1027 N1030 1.351 . S
C1027 C1032 1.501 . S
C1028 C1029 1.387 . S
C1028 N1031 1.341 . S
C1029 C1027 1.400 . S
C1029 C1028 1.387 . S
N1030 Co1021 2.022 . S
N1030 C1027 1.351 . S
N1030 N1031 1.365 . S
N1031 C1028 1.341 . S
N1031 N1030 1.365 . S
N1031 H1051 0.862 . S
C1032 C1027 1.501 . S
C1032 H1033 0.961 . S
C1032 H1034 0.961 . S
C1032 H1035 0.960 . S
H1033 C1032 0.961 . S
H1034 C1032 0.961 . S
H1035 C1032 0.960 . S
C1036 N1037 1.342 . S
C1036 C1040 1.401 . S
C1036 C1041 1.499 . S
N1037 Co1020 1.989 . S
N1037 C1036 1.342 . S
N1037 N1038 1.388 . S
N1038 Co1021 1.993 . S
N1038 N1037 1.388 . S
N1038 C1039 1.346 . S
C1039 N1038 1.346 . S
C1039 C1040 1.396 . S
C1039 C1049 1.510 . S
C1040 C1036 1.401 . S
C1040 C1039 1.396 . S
C1041 C1036 1.499 . S
C1041 H1042 0.959 . S
C1041 H1043 0.960 . S
C1041 H1044 0.961 . S
H1042 C1041 0.959 . S
H1043 C1041 0.960 . S
H1044 C1041 0.961 . S
O1045 Co1020 1.967 . S
O1045 C1053 1.258 . S
O1046 Co1021 1.941 . S
O1046 C1053 1.266 . S
H1047 C1049 0.959 . S
H1048 C1049 0.961 . S
C1049 C1039 1.510 . S
C1049 H1047 0.959 . S
C1049 H1048 0.961 . S
C1049 H1050 0.960 . S
H1050 C1049 0.960 . S
H1051 N1031 0.862 . S
O1052 Co1020 1.920 . S
O1052 C1025 1.289 . S
C1053 O1045 1.258 . S
C1053 O1046 1.266 . S
Co1054 O1057 1.970 . S
Co1054 N1071 1.989 . S
Co1054 O1079 1.967 . S
Co1054 O1086 1.920 . S
Co1055 O1058 1.966 . S
Co1055 N1064 2.022 . S
Co1055 N1072 1.993 . S
Co1055 O1080 1.941 . S
C1056 O1057 1.258 . S
C1056 O1058 1.263 . S
O1057 Co1054 1.970 . S
O1057 C1056 1.258 . S
O1058 Co1055 1.966 . S
O1058 C1056 1.263 . S
C1059 O1060 1.235 . S
C1059 O1086 1.289 . S
O1060 C1059 1.235 . S
C1061 C1063 1.400 . S
C1061 N1064 1.351 . S
C1061 C1066 1.501 . S
C1062 C1063 1.387 . S
C1062 N1065 1.341 . S
C1063 C1061 1.400 . S
C1063 C1062 1.387 . S
N1064 Co1055 2.022 . S
N1064 C1061 1.351 . S
N1064 N1065 1.365 . S
N1065 C1062 1.341 . S
N1065 N1064 1.365 . S
N1065 H1085 0.862 . S
C1066 C1061 1.501 . S
C1066 H1067 0.961 . S
C1066 H1068 0.961 . S
C1066 H1069 0.960 . S
H1067 C1066 0.961 . S
H1068 C1066 0.961 . S
H1069 C1066 0.960 . S
C1070 N1071 1.342 . S
C1070 C1074 1.401 . S
C1070 C1075 1.499 . S
N1071 Co1054 1.989 . S
N1071 C1070 1.342 . S
N1071 N1072 1.388 . S
N1072 Co1055 1.993 . S
N1072 N1071 1.388 . S
N1072 C1073 1.346 . S
C1073 N1072 1.346 . S
C1073 C1074 1.396 . S
C1073 C1083 1.510 . S
C1074 C1070 1.401 . S
C1074 C1073 1.396 . S
C1075 C1070 1.499 . S
C1075 H1076 0.959 . S
C1075 H1077 0.960 . S
C1075 H1078 0.961 . S
H1076 C1075 0.959 . S
H1077 C1075 0.960 . S
H1078 C1075 0.961 . S
O1079 Co1054 1.967 . S
O1079 C1087 1.258 . S
O1080 Co1055 1.941 . S
O1080 C1087 1.266 . S
H1081 C1083 0.959 . S
H1082 C1083 0.961 . S
C1083 C1073 1.510 . S
C1083 H1081 0.959 . S
C1083 H1082 0.961 . S
C1083 H1084 0.960 . S
H1084 C1083 0.960 . S
H1085 N1065 0.862 . S
O1086 Co1054 1.920 . S
O1086 C1059 1.289 . S
C1087 O1079 1.258 . S
C1087 O1080 1.266 . S
Co1088 O1091 1.970 . S
Co1088 N1105 1.989 . S
Co1088 O1113 1.967 . S
Co1088 O1120 1.920 . S
Co1089 O1092 1.966 . S
Co1089 N1098 2.022 . S
Co1089 N1106 1.993 . S
Co1089 O1114 1.941 . S
C1090 O1091 1.258 . S
C1090 O1092 1.263 . S
O1091 Co1088 1.970 . S
O1091 C1090 1.258 . S
O1092 Co1089 1.966 . S
O1092 C1090 1.263 . S
C1093 O1094 1.235 . S
C1093 O1120 1.289 . S
O1094 C1093 1.235 . S
C1095 C1097 1.400 . S
C1095 N1098 1.351 . S
C1095 C1100 1.501 . S
C1096 C1097 1.387 . S
C1096 N1099 1.341 . S
C1097 C1095 1.400 . S
C1097 C1096 1.387 . S
N1098 Co1089 2.022 . S
N1098 C1095 1.351 . S
N1098 N1099 1.365 . S
N1099 C1096 1.341 . S
N1099 N1098 1.365 . S
N1099 H1119 0.862 . S
C1100 C1095 1.501 . S
C1100 H1101 0.961 . S
C1100 H1102 0.961 . S
C1100 H1103 0.960 . S
H1101 C1100 0.961 . S
H1102 C1100 0.961 . S
H1103 C1100 0.960 . S
C1104 N1105 1.342 . S
C1104 C1108 1.401 . S
C1104 C1109 1.499 . S
N1105 Co1088 1.989 . S
N1105 C1104 1.342 . S
N1105 N1106 1.388 . S
N1106 Co1089 1.993 . S
N1106 N1105 1.388 . S
N1106 C1107 1.346 . S
C1107 N1106 1.346 . S
C1107 C1108 1.396 . S
C1107 C1117 1.510 . S
C1108 C1104 1.401 . S
C1108 C1107 1.396 . S
C1109 C1104 1.499 . S
C1109 H1110 0.959 . S
C1109 H1111 0.960 . S
C1109 H1112 0.961 . S
H1110 C1109 0.959 . S
H1111 C1109 0.960 . S
H1112 C1109 0.961 . S
O1113 Co1088 1.967 . S
O1113 C1121 1.258 . S
O1114 Co1089 1.941 . S
O1114 C1121 1.266 . S
H1115 C1117 0.959 . S
H1116 C1117 0.961 . S
C1117 C1107 1.510 . S
C1117 H1115 0.959 . S
C1117 H1116 0.961 . S
C1117 H1118 0.960 . S
H1118 C1117 0.960 . S
H1119 N1099 0.862 . S
O1120 Co1088 1.920 . S
O1120 C1093 1.289 . S
C1121 O1113 1.258 . S
C1121 O1114 1.266 . S
Co1122 O1125 1.970 . S
Co1122 N1139 1.989 . S
Co1122 O1147 1.967 . S
Co1122 O1154 1.920 . S
Co1123 O1126 1.966 . S
Co1123 N1132 2.022 . S
Co1123 N1140 1.993 . S
Co1123 O1148 1.941 . S
C1124 O1125 1.258 . S
C1124 O1126 1.263 . S
O1125 Co1122 1.970 . S
O1125 C1124 1.258 . S
O1126 Co1123 1.966 . S
O1126 C1124 1.263 . S
C1127 O1128 1.235 . S
C1127 O1154 1.289 . S
O1128 C1127 1.235 . S
C1129 C1131 1.400 . S
C1129 N1132 1.351 . S
C1129 C1134 1.501 . S
C1130 C1131 1.387 . S
C1130 N1133 1.341 . S
C1131 C1129 1.400 . S
C1131 C1130 1.387 . S
N1132 Co1123 2.022 . S
N1132 C1129 1.351 . S
N1132 N1133 1.365 . S
N1133 C1130 1.341 . S
N1133 N1132 1.365 . S
N1133 H1153 0.862 . S
C1134 C1129 1.501 . S
C1134 H1135 0.961 . S
C1134 H1136 0.961 . S
C1134 H1137 0.960 . S
H1135 C1134 0.961 . S
H1136 C1134 0.961 . S
H1137 C1134 0.960 . S
C1138 N1139 1.342 . S
C1138 C1142 1.401 . S
C1138 C1143 1.499 . S
N1139 Co1122 1.989 . S
N1139 C1138 1.342 . S
N1139 N1140 1.388 . S
N1140 Co1123 1.993 . S
N1140 N1139 1.388 . S
N1140 C1141 1.346 . S
C1141 N1140 1.346 . S
C1141 C1142 1.396 . S
C1141 C1151 1.510 . S
C1142 C1138 1.401 . S
C1142 C1141 1.396 . S
C1143 C1138 1.499 . S
C1143 H1144 0.959 . S
C1143 H1145 0.960 . S
C1143 H1146 0.961 . S
H1144 C1143 0.959 . S
H1145 C1143 0.960 . S
H1146 C1143 0.961 . S
O1147 Co1122 1.967 . S
O1147 C1155 1.258 . S
O1148 Co1123 1.941 . S
O1148 C1155 1.266 . S
H1149 C1151 0.959 . S
H1150 C1151 0.961 . S
C1151 C1141 1.510 . S
C1151 H1149 0.959 . S
C1151 H1150 0.961 . S
C1151 H1152 0.960 . S
H1152 C1151 0.960 . S
H1153 N1133 0.862 . S
O1154 Co1122 1.920 . S
O1154 C1127 1.289 . S
C1155 O1147 1.258 . S
C1155 O1148 1.266 . S
Co1156 O1159 1.970 . S
Co1156 N1173 1.989 . S
Co1156 O1181 1.967 . S
Co1156 O1188 1.920 . S
Co1157 O1160 1.966 . S
Co1157 N1166 2.022 . S
Co1157 N1174 1.993 . S
Co1157 O1182 1.941 . S
C1158 O1159 1.258 . S
C1158 O1160 1.263 . S
O1159 Co1156 1.970 . S
O1159 C1158 1.258 . S
O1160 Co1157 1.966 . S
O1160 C1158 1.263 . S
C1161 O1162 1.235 . S
C1161 O1188 1.289 . S
O1162 C1161 1.235 . S
C1163 C1165 1.400 . S
C1163 N1166 1.351 . S
C1163 C1168 1.501 . S
C1164 C1165 1.387 . S
C1164 N1167 1.341 . S
C1165 C1163 1.400 . S
C1165 C1164 1.387 . S
N1166 Co1157 2.022 . S
N1166 C1163 1.351 . S
N1166 N1167 1.365 . S
N1167 C1164 1.341 . S
N1167 N1166 1.365 . S
N1167 H1187 0.862 . S
C1168 C1163 1.501 . S
C1168 H1169 0.961 . S
C1168 H1170 0.961 . S
C1168 H1171 0.960 . S
H1169 C1168 0.961 . S
H1170 C1168 0.961 . S
H1171 C1168 0.960 . S
C1172 N1173 1.342 . S
C1172 C1176 1.401 . S
C1172 C1177 1.499 . S
N1173 Co1156 1.989 . S
N1173 C1172 1.342 . S
N1173 N1174 1.388 . S
N1174 Co1157 1.993 . S
N1174 N1173 1.388 . S
N1174 C1175 1.346 . S
C1175 N1174 1.346 . S
C1175 C1176 1.396 . S
C1175 C1185 1.510 . S
C1176 C1172 1.401 . S
C1176 C1175 1.396 . S
C1177 C1172 1.499 . S
C1177 H1178 0.959 . S
C1177 H1179 0.960 . S
C1177 H1180 0.961 . S
H1178 C1177 0.959 . S
H1179 C1177 0.960 . S
H1180 C1177 0.961 . S
O1181 Co1156 1.967 . S
O1181 C1189 1.258 . S
O1182 Co1157 1.941 . S
O1182 C1189 1.266 . S
H1183 C1185 0.959 . S
H1184 C1185 0.961 . S
C1185 C1175 1.510 . S
C1185 H1183 0.959 . S
C1185 H1184 0.961 . S
C1185 H1186 0.960 . S
H1186 C1185 0.960 . S
H1187 N1167 0.862 . S
O1188 Co1156 1.920 . S
O1188 C1161 1.289 . S
C1189 O1181 1.258 . S
C1189 O1182 1.266 . S
Co1190 O1193 1.970 . S
Co1190 N1207 1.989 . S
Co1190 O1215 1.967 . S
Co1190 O1222 1.920 . S
Co1191 O1194 1.966 . S
Co1191 N1200 2.022 . S
Co1191 N1208 1.993 . S
Co1191 O1216 1.941 . S
C1192 O1193 1.258 . S
C1192 O1194 1.263 . S
O1193 Co1190 1.970 . S
O1193 C1192 1.258 . S
O1194 Co1191 1.966 . S
O1194 C1192 1.263 . S
C1195 O1196 1.235 . S
C1195 O1222 1.289 . S
O1196 C1195 1.235 . S
C1197 C1199 1.400 . S
C1197 N1200 1.351 . S
C1197 C1202 1.501 . S
C1198 C1199 1.387 . S
C1198 N1201 1.341 . S
C1199 C1197 1.400 . S
C1199 C1198 1.387 . S
N1200 Co1191 2.022 . S
N1200 C1197 1.351 . S
N1200 N1201 1.365 . S
N1201 C1198 1.341 . S
N1201 N1200 1.365 . S
N1201 H1221 0.862 . S
C1202 C1197 1.501 . S
C1202 H1203 0.961 . S
C1202 H1204 0.961 . S
C1202 H1205 0.960 . S
H1203 C1202 0.961 . S
H1204 C1202 0.961 . S
H1205 C1202 0.960 . S
C1206 N1207 1.342 . S
C1206 C1210 1.401 . S
C1206 C1211 1.499 . S
N1207 Co1190 1.989 . S
N1207 C1206 1.342 . S
N1207 N1208 1.388 . S
N1208 Co1191 1.993 . S
N1208 N1207 1.388 . S
N1208 C1209 1.346 . S
C1209 N1208 1.346 . S
C1209 C1210 1.396 . S
C1209 C1219 1.510 . S
C1210 C1206 1.401 . S
C1210 C1209 1.396 . S
C1211 C1206 1.499 . S
C1211 H1212 0.959 . S
C1211 H1213 0.960 . S
C1211 H1214 0.961 . S
H1212 C1211 0.959 . S
H1213 C1211 0.960 . S
H1214 C1211 0.961 . S
O1215 Co1190 1.967 . S
O1215 C1223 1.258 . S
O1216 Co1191 1.941 . S
O1216 C1223 1.266 . S
H1217 C1219 0.959 . S
H1218 C1219 0.961 . S
C1219 C1209 1.510 . S
C1219 H1217 0.959 . S
C1219 H1218 0.961 . S
C1219 H1220 0.960 . S
H1220 C1219 0.960 . S
H1221 N1201 0.862 . S
O1222 Co1190 1.920 . S
O1222 C1195 1.289 . S
C1223 O1215 1.258 . S
C1223 O1216 1.266 . S
Co1224 O1227 1.970 . S
Co1224 N1241 1.989 . S
Co1224 O1249 1.967 . S
Co1224 O1256 1.920 . S
Co1225 O1228 1.966 . S
Co1225 N1234 2.022 . S
Co1225 N1242 1.993 . S
Co1225 O1250 1.941 . S
C1226 O1227 1.258 . S
C1226 O1228 1.263 . S
O1227 Co1224 1.970 . S
O1227 C1226 1.258 . S
O1228 Co1225 1.966 . S
O1228 C1226 1.263 . S
C1229 O1230 1.235 . S
C1229 O1256 1.289 . S
O1230 C1229 1.235 . S
C1231 C1233 1.400 . S
C1231 N1234 1.351 . S
C1231 C1236 1.501 . S
C1232 C1233 1.387 . S
C1232 N1235 1.341 . S
C1233 C1231 1.400 . S
C1233 C1232 1.387 . S
N1234 Co1225 2.022 . S
N1234 C1231 1.351 . S
N1234 N1235 1.365 . S
N1235 C1232 1.341 . S
N1235 N1234 1.365 . S
N1235 H1255 0.862 . S
C1236 C1231 1.501 . S
C1236 H1237 0.961 . S
C1236 H1238 0.961 . S
C1236 H1239 0.960 . S
H1237 C1236 0.961 . S
H1238 C1236 0.961 . S
H1239 C1236 0.960 . S
C1240 N1241 1.342 . S
C1240 C1244 1.401 . S
C1240 C1245 1.499 . S
N1241 Co1224 1.989 . S
N1241 C1240 1.342 . S
N1241 N1242 1.388 . S
N1242 Co1225 1.993 . S
N1242 N1241 1.388 . S
N1242 C1243 1.346 . S
C1243 N1242 1.346 . S
C1243 C1244 1.396 . S
C1243 C1253 1.510 . S
C1244 C1240 1.401 . S
C1244 C1243 1.396 . S
C1245 C1240 1.499 . S
C1245 H1246 0.959 . S
C1245 H1247 0.960 . S
C1245 H1248 0.961 . S
H1246 C1245 0.959 . S
H1247 C1245 0.960 . S
H1248 C1245 0.961 . S
O1249 Co1224 1.967 . S
O1249 C1257 1.258 . S
O1250 Co1225 1.941 . S
O1250 C1257 1.266 . S
H1251 C1253 0.959 . S
H1252 C1253 0.961 . S
C1253 C1243 1.510 . S
C1253 H1251 0.959 . S
C1253 H1252 0.961 . S
C1253 H1254 0.960 . S
H1254 C1253 0.960 . S
H1255 N1235 0.862 . S
O1256 Co1224 1.920 . S
O1256 C1229 1.289 . S
C1257 O1249 1.258 . S
C1257 O1250 1.266 . S
Co1258 O1261 1.970 . S
Co1258 N1275 1.989 . S
Co1258 O1283 1.967 . S
Co1258 O1290 1.920 . S
Co1259 O1262 1.966 . S
Co1259 N1268 2.022 . S
Co1259 N1276 1.993 . S
Co1259 O1284 1.941 . S
C1260 O1261 1.258 . S
C1260 O1262 1.263 . S
O1261 Co1258 1.970 . S
O1261 C1260 1.258 . S
O1262 Co1259 1.966 . S
O1262 C1260 1.263 . S
C1263 O1264 1.235 . S
C1263 O1290 1.289 . S
O1264 C1263 1.235 . S
C1265 C1267 1.400 . S
C1265 N1268 1.351 . S
C1265 C1270 1.501 . S
C1266 C1267 1.387 . S
C1266 N1269 1.341 . S
C1267 C1265 1.400 . S
C1267 C1266 1.387 . S
N1268 Co1259 2.022 . S
N1268 C1265 1.351 . S
N1268 N1269 1.365 . S
N1269 C1266 1.341 . S
N1269 N1268 1.365 . S
N1269 H1289 0.862 . S
C1270 C1265 1.501 . S
C1270 H1271 0.961 . S
C1270 H1272 0.961 . S
C1270 H1273 0.960 . S
H1271 C1270 0.961 . S
H1272 C1270 0.961 . S
H1273 C1270 0.960 . S
C1274 N1275 1.342 . S
C1274 C1278 1.401 . S
C1274 C1279 1.499 . S
N1275 Co1258 1.989 . S
N1275 C1274 1.342 . S
N1275 N1276 1.388 . S
N1276 Co1259 1.993 . S
N1276 N1275 1.388 . S
N1276 C1277 1.346 . S
C1277 N1276 1.346 . S
C1277 C1278 1.396 . S
C1277 C1287 1.510 . S
C1278 C1274 1.401 . S
C1278 C1277 1.396 . S
C1279 C1274 1.499 . S
C1279 H1280 0.959 . S
C1279 H1281 0.960 . S
C1279 H1282 0.961 . S
H1280 C1279 0.959 . S
H1281 C1279 0.960 . S
H1282 C1279 0.961 . S
O1283 Co1258 1.967 . S
O1283 C1291 1.258 . S
O1284 Co1259 1.941 . S
O1284 C1291 1.266 . S
H1285 C1287 0.959 . S
H1286 C1287 0.961 . S
C1287 C1277 1.510 . S
C1287 H1285 0.959 . S
C1287 H1286 0.961 . S
C1287 H1288 0.960 . S
H1288 C1287 0.960 . S
H1289 N1269 0.862 . S
O1290 Co1258 1.920 . S
O1290 C1263 1.289 . S
C1291 O1283 1.258 . S
C1291 O1284 1.266 . S
Co1292 O1295 1.970 . S
Co1292 N1309 1.989 . S
Co1292 O1317 1.967 . S
Co1292 O1324 1.920 . S
Co1293 O1296 1.966 . S
Co1293 N1302 2.022 . S
Co1293 N1310 1.993 . S
Co1293 O1318 1.941 . S
C1294 O1295 1.258 . S
C1294 O1296 1.263 . S
O1295 Co1292 1.970 . S
O1295 C1294 1.258 . S
O1296 Co1293 1.966 . S
O1296 C1294 1.263 . S
C1297 O1298 1.235 . S
C1297 O1324 1.289 . S
O1298 C1297 1.235 . S
C1299 C1301 1.400 . S
C1299 N1302 1.351 . S
C1299 C1304 1.501 . S
C1300 C1301 1.387 . S
C1300 N1303 1.341 . S
C1301 C1299 1.400 . S
C1301 C1300 1.387 . S
N1302 Co1293 2.022 . S
N1302 C1299 1.351 . S
N1302 N1303 1.365 . S
N1303 C1300 1.341 . S
N1303 N1302 1.365 . S
N1303 H1323 0.862 . S
C1304 C1299 1.501 . S
C1304 H1305 0.961 . S
C1304 H1306 0.961 . S
C1304 H1307 0.960 . S
H1305 C1304 0.961 . S
H1306 C1304 0.961 . S
H1307 C1304 0.960 . S
C1308 N1309 1.342 . S
C1308 C1312 1.401 . S
C1308 C1313 1.499 . S
N1309 Co1292 1.989 . S
N1309 C1308 1.342 . S
N1309 N1310 1.388 . S
N1310 Co1293 1.993 . S
N1310 N1309 1.388 . S
N1310 C1311 1.346 . S
C1311 N1310 1.346 . S
C1311 C1312 1.396 . S
C1311 C1321 1.510 . S
C1312 C1308 1.401 . S
C1312 C1311 1.396 . S
C1313 C1308 1.499 . S
C1313 H1314 0.959 . S
C1313 H1315 0.960 . S
C1313 H1316 0.961 . S
H1314 C1313 0.959 . S
H1315 C1313 0.960 . S
H1316 C1313 0.961 . S
O1317 Co1292 1.967 . S
O1317 C1325 1.258 . S
O1318 Co1293 1.941 . S
O1318 C1325 1.266 . S
H1319 C1321 0.959 . S
H1320 C1321 0.961 . S
C1321 C1311 1.510 . S
C1321 H1319 0.959 . S
C1321 H1320 0.961 . S
C1321 H1322 0.960 . S
H1322 C1321 0.960 . S
H1323 N1303 0.862 . S
O1324 Co1292 1.920 . S
O1324 C1297 1.289 . S
C1325 O1317 1.258 . S
C1325 O1318 1.266 . S
Co1326 O1329 1.970 . S
Co1326 N1343 1.989 . S
Co1326 O1351 1.967 . S
Co1326 O1358 1.920 . S
Co1327 O1330 1.966 . S
Co1327 N1336 2.022 . S
Co1327 N1344 1.993 . S
Co1327 O1352 1.941 . S
C1328 O1329 1.258 . S
C1328 O1330 1.263 . S
O1329 Co1326 1.970 . S
O1329 C1328 1.258 . S
O1330 Co1327 1.966 . S
O1330 C1328 1.263 . S
C1331 O1332 1.235 . S
C1331 O1358 1.289 . S
O1332 C1331 1.235 . S
C1333 C1335 1.400 . S
C1333 N1336 1.351 . S
C1333 C1338 1.501 . S
C1334 C1335 1.387 . S
C1334 N1337 1.341 . S
C1335 C1333 1.400 . S
C1335 C1334 1.387 . S
N1336 Co1327 2.022 . S
N1336 C1333 1.351 . S
N1336 N1337 1.365 . S
N1337 C1334 1.341 . S
N1337 N1336 1.365 . S
N1337 H1357 0.862 . S
C1338 C1333 1.501 . S
C1338 H1339 0.961 . S
C1338 H1340 0.961 . S
C1338 H1341 0.960 . S
H1339 C1338 0.961 . S
H1340 C1338 0.961 . S
H1341 C1338 0.960 . S
C1342 N1343 1.342 . S
C1342 C1346 1.401 . S
C1342 C1347 1.499 . S
N1343 Co1326 1.989 . S
N1343 C1342 1.342 . S
N1343 N1344 1.388 . S
N1344 Co1327 1.993 . S
N1344 N1343 1.388 . S
N1344 C1345 1.346 . S
C1345 N1344 1.346 . S
C1345 C1346 1.396 . S
C1345 C1355 1.510 . S
C1346 C1342 1.401 . S
C1346 C1345 1.396 . S
C1347 C1342 1.499 . S
C1347 H1348 0.959 . S
C1347 H1349 0.960 . S
C1347 H1350 0.961 . S
H1348 C1347 0.959 . S
H1349 C1347 0.960 . S
H1350 C1347 0.961 . S
O1351 Co1326 1.967 . S
O1351 C1359 1.258 . S
O1352 Co1327 1.941 . S
O1352 C1359 1.266 . S
H1353 C1355 0.959 . S
H1354 C1355 0.961 . S
C1355 C1345 1.510 . S
C1355 H1353 0.959 . S
C1355 H1354 0.961 . S
C1355 H1356 0.960 . S
H1356 C1355 0.960 . S
H1357 N1337 0.862 . S
O1358 Co1326 1.920 . S
O1358 C1331 1.289 . S
C1359 O1351 1.258 . S
C1359 O1352 1.266 . S
Co1360 O1363 1.970 . S
Co1360 N1377 1.989 . S
Co1360 O1385 1.967 . S
Co1360 O1392 1.920 . S
Co1361 O1364 1.966 . S
Co1361 N1370 2.022 . S
Co1361 N1378 1.993 . S
Co1361 O1386 1.941 . S
C1362 O1363 1.258 . S
C1362 O1364 1.263 . S
O1363 Co1360 1.970 . S
O1363 C1362 1.258 . S
O1364 Co1361 1.966 . S
O1364 C1362 1.263 . S
C1365 O1366 1.235 . S
C1365 O1392 1.289 . S
O1366 C1365 1.235 . S
C1367 C1369 1.400 . S
C1367 N1370 1.351 . S
C1367 C1372 1.501 . S
C1368 C1369 1.387 . S
C1368 N1371 1.341 . S
C1369 C1367 1.400 . S
C1369 C1368 1.387 . S
N1370 Co1361 2.022 . S
N1370 C1367 1.351 . S
N1370 N1371 1.365 . S
N1371 C1368 1.341 . S
N1371 N1370 1.365 . S
N1371 H1391 0.862 . S
C1372 C1367 1.501 . S
C1372 H1373 0.961 . S
C1372 H1374 0.961 . S
C1372 H1375 0.960 . S
H1373 C1372 0.961 . S
H1374 C1372 0.961 . S
H1375 C1372 0.960 . S
C1376 N1377 1.342 . S
C1376 C1380 1.401 . S
C1376 C1381 1.499 . S
N1377 Co1360 1.989 . S
N1377 C1376 1.342 . S
N1377 N1378 1.388 . S
N1378 Co1361 1.993 . S
N1378 N1377 1.388 . S
N1378 C1379 1.346 . S
C1379 N1378 1.346 . S
C1379 C1380 1.396 . S
C1379 C1389 1.510 . S
C1380 C1376 1.401 . S
C1380 C1379 1.396 . S
C1381 C1376 1.499 . S
C1381 H1382 0.959 . S
C1381 H1383 0.960 . S
C1381 H1384 0.961 . S
H1382 C1381 0.959 . S
H1383 C1381 0.960 . S
H1384 C1381 0.961 . S
O1385 Co1360 1.967 . S
O1385 C1393 1.258 . S
O1386 Co1361 1.941 . S
O1386 C1393 1.266 . S
H1387 C1389 0.959 . S
H1388 C1389 0.961 . S
C1389 C1379 1.510 . S
C1389 H1387 0.959 . S
C1389 H1388 0.961 . S
C1389 H1390 0.960 . S
H1390 C1389 0.960 . S
H1391 N1371 0.862 . S
O1392 Co1360 1.920 . S
O1392 C1365 1.289 . S
C1393 O1385 1.258 . S
C1393 O1386 1.266 . S
Co1394 O1397 1.970 . S
Co1394 N1411 1.989 . S
Co1394 O1419 1.967 . S
Co1394 O1426 1.920 . S
Co1395 O1398 1.966 . S
Co1395 N1404 2.022 . S
Co1395 N1412 1.993 . S
Co1395 O1420 1.941 . S
C1396 O1397 1.258 . S
C1396 O1398 1.263 . S
O1397 Co1394 1.970 . S
O1397 C1396 1.258 . S
O1398 Co1395 1.966 . S
O1398 C1396 1.263 . S
C1399 O1400 1.235 . S
C1399 O1426 1.289 . S
O1400 C1399 1.235 . S
C1401 C1403 1.400 . S
C1401 N1404 1.351 . S
C1401 C1406 1.501 . S
C1402 C1403 1.387 . S
C1402 N1405 1.341 . S
C1403 C1401 1.400 . S
C1403 C1402 1.387 . S
N1404 Co1395 2.022 . S
N1404 C1401 1.351 . S
N1404 N1405 1.365 . S
N1405 C1402 1.341 . S
N1405 N1404 1.365 . S
N1405 H1425 0.862 . S
C1406 C1401 1.501 . S
C1406 H1407 0.961 . S
C1406 H1408 0.961 . S
C1406 H1409 0.960 . S
H1407 C1406 0.961 . S
H1408 C1406 0.961 . S
H1409 C1406 0.960 . S
C1410 N1411 1.342 . S
C1410 C1414 1.401 . S
C1410 C1415 1.499 . S
N1411 Co1394 1.989 . S
N1411 C1410 1.342 . S
N1411 N1412 1.388 . S
N1412 Co1395 1.993 . S
N1412 N1411 1.388 . S
N1412 C1413 1.346 . S
C1413 N1412 1.346 . S
C1413 C1414 1.396 . S
C1413 C1423 1.510 . S
C1414 C1410 1.401 . S
C1414 C1413 1.396 . S
C1415 C1410 1.499 . S
C1415 H1416 0.959 . S
C1415 H1417 0.960 . S
C1415 H1418 0.961 . S
H1416 C1415 0.959 . S
H1417 C1415 0.960 . S
H1418 C1415 0.961 . S
O1419 Co1394 1.967 . S
O1419 C1427 1.258 . S
O1420 Co1395 1.941 . S
O1420 C1427 1.266 . S
H1421 C1423 0.959 . S
H1422 C1423 0.961 . S
C1423 C1413 1.510 . S
C1423 H1421 0.959 . S
C1423 H1422 0.961 . S
C1423 H1424 0.960 . S
H1424 C1423 0.960 . S
H1425 N1405 0.862 . S
O1426 Co1394 1.920 . S
O1426 C1399 1.289 . S
C1427 O1419 1.258 . S
C1427 O1420 1.266 . S
Co1428 O1431 1.970 . S
Co1428 N1445 1.989 . S
Co1428 O1453 1.967 . S
Co1428 O1460 1.920 . S
Co1429 O1432 1.966 . S
Co1429 N1438 2.022 . S
Co1429 N1446 1.993 . S
Co1429 O1454 1.941 . S
C1430 O1431 1.258 . S
C1430 O1432 1.263 . S
O1431 Co1428 1.970 . S
O1431 C1430 1.258 . S
O1432 Co1429 1.966 . S
O1432 C1430 1.263 . S
C1433 O1434 1.235 . S
C1433 O1460 1.289 . S
O1434 C1433 1.235 . S
C1435 C1437 1.400 . S
C1435 N1438 1.351 . S
C1435 C1440 1.501 . S
C1436 C1437 1.387 . S
C1436 N1439 1.341 . S
C1437 C1435 1.400 . S
C1437 C1436 1.387 . S
N1438 Co1429 2.022 . S
N1438 C1435 1.351 . S
N1438 N1439 1.365 . S
N1439 C1436 1.341 . S
N1439 N1438 1.365 . S
N1439 H1459 0.862 . S
C1440 C1435 1.501 . S
C1440 H1441 0.961 . S
C1440 H1442 0.961 . S
C1440 H1443 0.960 . S
H1441 C1440 0.961 . S
H1442 C1440 0.961 . S
H1443 C1440 0.960 . S
C1444 N1445 1.342 . S
C1444 C1448 1.401 . S
C1444 C1449 1.499 . S
N1445 Co1428 1.989 . S
N1445 C1444 1.342 . S
N1445 N1446 1.388 . S
N1446 Co1429 1.993 . S
N1446 N1445 1.388 . S
N1446 C1447 1.346 . S
C1447 N1446 1.346 . S
C1447 C1448 1.396 . S
C1447 C1457 1.510 . S
C1448 C1444 1.401 . S
C1448 C1447 1.396 . S
C1449 C1444 1.499 . S
C1449 H1450 0.959 . S
C1449 H1451 0.960 . S
C1449 H1452 0.961 . S
H1450 C1449 0.959 . S
H1451 C1449 0.960 . S
H1452 C1449 0.961 . S
O1453 Co1428 1.967 . S
O1453 C1461 1.258 . S
O1454 Co1429 1.941 . S
O1454 C1461 1.266 . S
H1455 C1457 0.959 . S
H1456 C1457 0.961 . S
C1457 C1447 1.510 . S
C1457 H1455 0.959 . S
C1457 H1456 0.961 . S
C1457 H1458 0.960 . S
H1458 C1457 0.960 . S
H1459 N1439 0.862 . S
O1460 Co1428 1.920 . S
O1460 C1433 1.289 . S
C1461 O1453 1.258 . S
C1461 O1454 1.266 . S
Co1462 O1465 1.970 . S
Co1462 N1479 1.989 . S
Co1462 O1487 1.967 . S
Co1462 O1494 1.920 . S
Co1463 O1466 1.966 . S
Co1463 N1472 2.022 . S
Co1463 N1480 1.993 . S
Co1463 O1488 1.941 . S
C1464 O1465 1.258 . S
C1464 O1466 1.263 . S
O1465 Co1462 1.970 . S
O1465 C1464 1.258 . S
O1466 Co1463 1.966 . S
O1466 C1464 1.263 . S
C1467 O1468 1.235 . S
C1467 O1494 1.289 . S
O1468 C1467 1.235 . S
C1469 C1471 1.400 . S
C1469 N1472 1.351 . S
C1469 C1474 1.501 . S
C1470 C1471 1.387 . S
C1470 N1473 1.341 . S
C1471 C1469 1.400 . S
C1471 C1470 1.387 . S
N1472 Co1463 2.022 . S
N1472 C1469 1.351 . S
N1472 N1473 1.365 . S
N1473 C1470 1.341 . S
N1473 N1472 1.365 . S
N1473 H1493 0.862 . S
C1474 C1469 1.501 . S
C1474 H1475 0.961 . S
C1474 H1476 0.961 . S
C1474 H1477 0.960 . S
H1475 C1474 0.961 . S
H1476 C1474 0.961 . S
H1477 C1474 0.960 . S
C1478 N1479 1.342 . S
C1478 C1482 1.401 . S
C1478 C1483 1.499 . S
N1479 Co1462 1.989 . S
N1479 C1478 1.342 . S
N1479 N1480 1.388 . S
N1480 Co1463 1.993 . S
N1480 N1479 1.388 . S
N1480 C1481 1.346 . S
C1481 N1480 1.346 . S
C1481 C1482 1.396 . S
C1481 C1491 1.510 . S
C1482 C1478 1.401 . S
C1482 C1481 1.396 . S
C1483 C1478 1.499 . S
C1483 H1484 0.959 . S
C1483 H1485 0.960 . S
C1483 H1486 0.961 . S
H1484 C1483 0.959 . S
H1485 C1483 0.960 . S
H1486 C1483 0.961 . S
O1487 Co1462 1.967 . S
O1487 C1495 1.258 . S
O1488 Co1463 1.941 . S
O1488 C1495 1.266 . S
H1489 C1491 0.959 . S
H1490 C1491 0.961 . S
C1491 C1481 1.510 . S
C1491 H1489 0.959 . S
C1491 H1490 0.961 . S
C1491 H1492 0.960 . S
H1492 C1491 0.960 . S
H1493 N1473 0.862 . S
O1494 Co1462 1.920 . S
O1494 C1467 1.289 . S
C1495 O1487 1.258 . S
C1495 O1488 1.266 . S
Co1496 O1499 1.970 . S
Co1496 N1513 1.989 . S
Co1496 O1521 1.967 . S
Co1496 O1528 1.920 . S
Co1497 O1500 1.966 . S
Co1497 N1506 2.022 . S
Co1497 N1514 1.993 . S
Co1497 O1522 1.941 . S
C1498 O1499 1.258 . S
C1498 O1500 1.263 . S
O1499 Co1496 1.970 . S
O1499 C1498 1.258 . S
O1500 Co1497 1.966 . S
O1500 C1498 1.263 . S
C1501 O1502 1.235 . S
C1501 O1528 1.289 . S
O1502 C1501 1.235 . S
C1503 C1505 1.400 . S
C1503 N1506 1.351 . S
C1503 C1508 1.501 . S
C1504 C1505 1.387 . S
C1504 N1507 1.341 . S
C1505 C1503 1.400 . S
C1505 C1504 1.387 . S
N1506 Co1497 2.022 . S
N1506 C1503 1.351 . S
N1506 N1507 1.365 . S
N1507 C1504 1.341 . S
N1507 N1506 1.365 . S
N1507 H1527 0.862 . S
C1508 C1503 1.501 . S
C1508 H1509 0.961 . S
C1508 H1510 0.961 . S
C1508 H1511 0.960 . S
H1509 C1508 0.961 . S
H1510 C1508 0.961 . S
H1511 C1508 0.960 . S
C1512 N1513 1.342 . S
C1512 C1516 1.401 . S
C1512 C1517 1.499 . S
N1513 Co1496 1.989 . S
N1513 C1512 1.342 . S
N1513 N1514 1.388 . S
N1514 Co1497 1.993 . S
N1514 N1513 1.388 . S
N1514 C1515 1.346 . S
C1515 N1514 1.346 . S
C1515 C1516 1.396 . S
C1515 C1525 1.510 . S
C1516 C1512 1.401 . S
C1516 C1515 1.396 . S
C1517 C1512 1.499 . S
C1517 H1518 0.959 . S
C1517 H1519 0.960 . S
C1517 H1520 0.961 . S
H1518 C1517 0.959 . S
H1519 C1517 0.960 . S
H1520 C1517 0.961 . S
O1521 Co1496 1.967 . S
O1521 C1529 1.258 . S
O1522 Co1497 1.941 . S
O1522 C1529 1.266 . S
H1523 C1525 0.959 . S
H1524 C1525 0.961 . S
C1525 C1515 1.510 . S
C1525 H1523 0.959 . S
C1525 H1524 0.961 . S
C1525 H1526 0.960 . S
H1526 C1525 0.960 . S
H1527 N1507 0.862 . S
O1528 Co1496 1.920 . S
O1528 C1501 1.289 . S
C1529 O1521 1.258 . S
C1529 O1522 1.266 . S
Co1530 O1533 1.970 . S
Co1530 N1547 1.989 . S
Co1530 O1555 1.967 . S
Co1530 O1562 1.920 . S
Co1531 O1534 1.966 . S
Co1531 N1540 2.022 . S
Co1531 N1548 1.993 . S
Co1531 O1556 1.941 . S
C1532 O1533 1.258 . S
C1532 O1534 1.263 . S
O1533 Co1530 1.970 . S
O1533 C1532 1.258 . S
O1534 Co1531 1.966 . S
O1534 C1532 1.263 . S
C1535 O1536 1.235 . S
C1535 O1562 1.289 . S
O1536 C1535 1.235 . S
C1537 C1539 1.400 . S
C1537 N1540 1.351 . S
C1537 C1542 1.501 . S
C1538 C1539 1.387 . S
C1538 N1541 1.341 . S
C1539 C1537 1.400 . S
C1539 C1538 1.387 . S
N1540 Co1531 2.022 . S
N1540 C1537 1.351 . S
N1540 N1541 1.365 . S
N1541 C1538 1.341 . S
N1541 N1540 1.365 . S
N1541 H1561 0.862 . S
C1542 C1537 1.501 . S
C1542 H1543 0.961 . S
C1542 H1544 0.961 . S
C1542 H1545 0.960 . S
H1543 C1542 0.961 . S
H1544 C1542 0.961 . S
H1545 C1542 0.960 . S
C1546 N1547 1.342 . S
C1546 C1550 1.401 . S
C1546 C1551 1.499 . S
N1547 Co1530 1.989 . S
N1547 C1546 1.342 . S
N1547 N1548 1.388 . S
N1548 Co1531 1.993 . S
N1548 N1547 1.388 . S
N1548 C1549 1.346 . S
C1549 N1548 1.346 . S
C1549 C1550 1.396 . S
C1549 C1559 1.510 . S
C1550 C1546 1.401 . S
C1550 C1549 1.396 . S
C1551 C1546 1.499 . S
C1551 H1552 0.959 . S
C1551 H1553 0.960 . S
C1551 H1554 0.961 . S
H1552 C1551 0.959 . S
H1553 C1551 0.960 . S
H1554 C1551 0.961 . S
O1555 Co1530 1.967 . S
O1555 C1563 1.258 . S
O1556 Co1531 1.941 . S
O1556 C1563 1.266 . S
H1557 C1559 0.959 . S
H1558 C1559 0.961 . S
C1559 C1549 1.510 . S
C1559 H1557 0.959 . S
C1559 H1558 0.961 . S
C1559 H1560 0.960 . S
H1560 C1559 0.960 . S
H1561 N1541 0.862 . S
O1562 Co1530 1.920 . S
O1562 C1535 1.289 . S
C1563 O1555 1.258 . S
C1563 O1556 1.266 . S
Co1564 O1567 1.970 . S
Co1564 N1581 1.989 . S
Co1564 O1589 1.967 . S
Co1564 O1596 1.920 . S
Co1565 O1568 1.966 . S
Co1565 N1574 2.022 . S
Co1565 N1582 1.993 . S
Co1565 O1590 1.941 . S
C1566 O1567 1.258 . S
C1566 O1568 1.263 . S
O1567 Co1564 1.970 . S
O1567 C1566 1.258 . S
O1568 Co1565 1.966 . S
O1568 C1566 1.263 . S
C1569 O1570 1.235 . S
C1569 O1596 1.289 . S
O1570 C1569 1.235 . S
C1571 C1573 1.400 . S
C1571 N1574 1.351 . S
C1571 C1576 1.501 . S
C1572 C1573 1.387 . S
C1572 N1575 1.341 . S
C1573 C1571 1.400 . S
C1573 C1572 1.387 . S
N1574 Co1565 2.022 . S
N1574 C1571 1.351 . S
N1574 N1575 1.365 . S
N1575 C1572 1.341 . S
N1575 N1574 1.365 . S
N1575 H1595 0.862 . S
C1576 C1571 1.501 . S
C1576 H1577 0.961 . S
C1576 H1578 0.961 . S
C1576 H1579 0.960 . S
H1577 C1576 0.961 . S
H1578 C1576 0.961 . S
H1579 C1576 0.960 . S
C1580 N1581 1.342 . S
C1580 C1584 1.401 . S
C1580 C1585 1.499 . S
N1581 Co1564 1.989 . S
N1581 C1580 1.342 . S
N1581 N1582 1.388 . S
N1582 Co1565 1.993 . S
N1582 N1581 1.388 . S
N1582 C1583 1.346 . S
C1583 N1582 1.346 . S
C1583 C1584 1.396 . S
C1583 C1593 1.510 . S
C1584 C1580 1.401 . S
C1584 C1583 1.396 . S
C1585 C1580 1.499 . S
C1585 H1586 0.959 . S
C1585 H1587 0.960 . S
C1585 H1588 0.961 . S
H1586 C1585 0.959 . S
H1587 C1585 0.960 . S
H1588 C1585 0.961 . S
O1589 Co1564 1.967 . S
O1589 C1597 1.258 . S
O1590 Co1565 1.941 . S
O1590 C1597 1.266 . S
H1591 C1593 0.959 . S
H1592 C1593 0.961 . S
C1593 C1583 1.510 . S
C1593 H1591 0.959 . S
C1593 H1592 0.961 . S
C1593 H1594 0.960 . S
H1594 C1593 0.960 . S
H1595 N1575 0.862 . S
O1596 Co1564 1.920 . S
O1596 C1569 1.289 . S
C1597 O1589 1.258 . S
C1597 O1590 1.266 . S
Co1598 O1601 1.970 . S
Co1598 N1615 1.989 . S
Co1598 O1623 1.967 . S
Co1598 O1630 1.920 . S
Co1599 O1602 1.966 . S
Co1599 N1608 2.022 . S
Co1599 N1616 1.993 . S
Co1599 O1624 1.941 . S
C1600 O1601 1.258 . S
C1600 O1602 1.263 . S
O1601 Co1598 1.970 . S
O1601 C1600 1.258 . S
O1602 Co1599 1.966 . S
O1602 C1600 1.263 . S
C1603 O1604 1.235 . S
C1603 O1630 1.289 . S
O1604 C1603 1.235 . S
C1605 C1607 1.400 . S
C1605 N1608 1.351 . S
C1605 C1610 1.501 . S
C1606 C1607 1.387 . S
C1606 N1609 1.341 . S
C1607 C1605 1.400 . S
C1607 C1606 1.387 . S
N1608 Co1599 2.022 . S
N1608 C1605 1.351 . S
N1608 N1609 1.365 . S
N1609 C1606 1.341 . S
N1609 N1608 1.365 . S
N1609 H1629 0.862 . S
C1610 C1605 1.501 . S
C1610 H1611 0.961 . S
C1610 H1612 0.961 . S
C1610 H1613 0.960 . S
H1611 C1610 0.961 . S
H1612 C1610 0.961 . S
H1613 C1610 0.960 . S
C1614 N1615 1.342 . S
C1614 C1618 1.401 . S
C1614 C1619 1.499 . S
N1615 Co1598 1.989 . S
N1615 C1614 1.342 . S
N1615 N1616 1.388 . S
N1616 Co1599 1.993 . S
N1616 N1615 1.388 . S
N1616 C1617 1.346 . S
C1617 N1616 1.346 . S
C1617 C1618 1.396 . S
C1617 C1627 1.510 . S
C1618 C1614 1.401 . S
C1618 C1617 1.396 . S
C1619 C1614 1.499 . S
C1619 H1620 0.959 . S
C1619 H1621 0.960 . S
C1619 H1622 0.961 . S
H1620 C1619 0.959 . S
H1621 C1619 0.960 . S
H1622 C1619 0.961 . S
O1623 Co1598 1.967 . S
O1623 C1631 1.258 . S
O1624 Co1599 1.941 . S
O1624 C1631 1.266 . S
H1625 C1627 0.959 . S
H1626 C1627 0.961 . S
C1627 C1617 1.510 . S
C1627 H1625 0.959 . S
C1627 H1626 0.961 . S
C1627 H1628 0.960 . S
H1628 C1627 0.960 . S
H1629 N1609 0.862 . S
O1630 Co1598 1.920 . S
O1630 C1603 1.289 . S
C1631 O1623 1.258 . S
C1631 O1624 1.266 . S
C1632 C1633 1.349 . S
C1632 C1634 1.327 . S
C1632 H1657 0.950 . S
C1633 C1632 1.349 . S
C1633 C1649 1.349 . S
C1634 C1632 1.327 . S
C1634 C1653 1.429 . S
C1634 H1658 0.950 . S
C1635 C1652 1.574 . S
C1635 C1654 1.368 . S
C1635 H1659 0.949 . S
H1636 C1640 0.949 . S
C1637 C1638 1.349 . S
C1637 C1639 1.327 . S
C1637 H1660 0.950 . S
C1638 C1637 1.349 . S
C1638 C1650 1.349 . S
C1639 C1637 1.327 . S
C1639 C1655 1.429 . S
C1639 H1661 0.950 . S
C1640 H1636 0.949 . S
C1640 C1648 1.574 . S
C1640 C1656 1.368 . S
H1641 C1649 0.950 . S
H1642 C1647 0.950 . S
H1643 C1648 0.949 . S
H1644 C1650 0.950 . S
H1645 C1651 0.950 . S
H1646 C1652 0.949 . S
C1647 H1642 0.950 . S
C1647 C1649 1.327 . S
C1647 C1653 1.429 . S
C1648 C1640 1.574 . S
C1648 H1643 0.949 . S
C1648 C1654 1.368 . S
C1649 C1633 1.349 . S
C1649 H1641 0.950 . S
C1649 C1647 1.327 . S
C1650 C1638 1.349 . S
C1650 H1644 0.950 . S
C1650 C1651 1.327 . S
C1651 H1645 0.950 . S
C1651 C1650 1.327 . S
C1651 C1655 1.429 . S
C1652 C1635 1.574 . S
C1652 H1646 0.949 . S
C1652 C1656 1.368 . S
C1653 C1634 1.429 . S
C1653 C1647 1.429 . S
C1653 C1654 1.523 . S
C1654 C1635 1.368 . S
C1654 C1648 1.368 . S
C1654 C1653 1.523 . S
C1655 C1639 1.429 . S
C1655 C1651 1.429 . S
C1655 C1656 1.523 . S
C1656 C1640 1.368 . S
C1656 C1652 1.368 . S
C1656 C1655 1.523 . S
H1657 C1632 0.950 . S
H1658 C1634 0.950 . S
H1659 C1635 0.949 . S
H1660 C1637 0.950 . S
H1661 C1639 0.950 . S
C1662 C1663 1.349 . S
C1662 C1664 1.327 . S
C1662 H1687 0.950 . S
C1663 C1662 1.349 . S
C1663 C1679 1.349 . S
C1664 C1662 1.327 . S
C1664 C1683 1.429 . S
C1664 H1688 0.950 . S
C1665 C1682 1.574 . S
C1665 C1684 1.368 . S
C1665 H1689 0.949 . S
H1666 C1670 0.949 . S
C1667 C1668 1.349 . S
C1667 C1669 1.327 . S
C1667 H1690 0.950 . S
C1668 C1667 1.349 . S
C1668 C1680 1.349 . S
C1669 C1667 1.327 . S
C1669 C1685 1.429 . S
C1669 H1691 0.950 . S
C1670 H1666 0.949 . S
C1670 C1678 1.574 . S
C1670 C1686 1.368 . S
H1671 C1679 0.950 . S
H1672 C1677 0.950 . S
H1673 C1678 0.949 . S
H1674 C1680 0.950 . S
H1675 C1681 0.950 . S
H1676 C1682 0.949 . S
C1677 H1672 0.950 . S
C1677 C1679 1.327 . S
C1677 C1683 1.429 . S
C1678 C1670 1.574 . S
C1678 H1673 0.949 . S
C1678 C1684 1.368 . S
C1679 C1663 1.349 . S
C1679 H1671 0.950 . S
C1679 C1677 1.327 . S
C1680 C1668 1.349 . S
C1680 H1674 0.950 . S
C1680 C1681 1.327 . S
C1681 H1675 0.950 . S
C1681 C1680 1.327 . S
C1681 C1685 1.429 . S
C1682 C1665 1.574 . S
C1682 H1676 0.949 . S
C1682 C1686 1.368 . S
C1683 C1664 1.429 . S
C1683 C1677 1.429 . S
C1683 C1684 1.523 . S
C1684 C1665 1.368 . S
C1684 C1678 1.368 . S
C1684 C1683 1.523 . S
C1685 C1669 1.429 . S
C1685 C1681 1.429 . S
C1685 C1686 1.523 . S
C1686 C1670 1.368 . S
C1686 C1682 1.368 . S
C1686 C1685 1.523 . S
H1687 C1662 0.950 . S
H1688 C1664 0.950 . S
H1689 C1665 0.949 . S
H1690 C1667 0.950 . S
H1691 C1669 0.950 . S
C1692 C1693 1.349 . S
C1692 C1694 1.327 . S
C1692 H1717 0.950 . S
C1693 C1692 1.349 . S
C1693 C1709 1.349 . S
C1694 C1692 1.327 . S
C1694 C1713 1.429 . S
C1694 H1718 0.950 . S
C1695 C1712 1.574 . S
C1695 C1714 1.368 . S
C1695 H1719 0.949 . S
H1696 C1700 0.949 . S
C1697 C1698 1.349 . S
C1697 C1699 1.327 . S
C1697 H1720 0.950 . S
C1698 C1697 1.349 . S
C1698 C1710 1.349 . S
C1699 C1697 1.327 . S
C1699 C1715 1.429 . S
C1699 H1721 0.950 . S
C1700 H1696 0.949 . S
C1700 C1708 1.574 . S
C1700 C1716 1.368 . S
H1701 C1709 0.950 . S
H1702 C1707 0.950 . S
H1703 C1708 0.949 . S
H1704 C1710 0.950 . S
H1705 C1711 0.950 . S
H1706 C1712 0.949 . S
C1707 H1702 0.950 . S
C1707 C1709 1.327 . S
C1707 C1713 1.429 . S
C1708 C1700 1.574 . S
C1708 H1703 0.949 . S
C1708 C1714 1.368 . S
C1709 C1693 1.349 . S
C1709 H1701 0.950 . S
C1709 C1707 1.327 . S
C1710 C1698 1.349 . S
C1710 H1704 0.950 . S
C1710 C1711 1.327 . S
C1711 H1705 0.950 . S
C1711 C1710 1.327 . S
C1711 C1715 1.429 . S
C1712 C1695 1.574 . S
C1712 H1706 0.949 . S
C1712 C1716 1.368 . S
C1713 C1694 1.429 . S
C1713 C1707 1.429 . S
C1713 C1714 1.523 . S
C1714 C1695 1.368 . S
C1714 C1708 1.368 . S
C1714 C1713 1.523 . S
C1715 C1699 1.429 . S
C1715 C1711 1.429 . S
C1715 C1716 1.523 . S
C1716 C1700 1.368 . S
C1716 C1712 1.368 . S
C1716 C1715 1.523 . S
H1717 C1692 0.950 . S
H1718 C1694 0.950 . S
H1719 C1695 0.949 . S
H1720 C1697 0.950 . S
H1721 C1699 0.950 . S
C1722 C1723 1.349 . S
C1722 C1724 1.327 . S
C1722 H1747 0.950 . S
C1723 C1722 1.349 . S
C1723 C1739 1.349 . S
C1724 C1722 1.327 . S
C1724 C1743 1.429 . S
C1724 H1748 0.950 . S
C1725 C1742 1.574 . S
C1725 C1744 1.368 . S
C1725 H1749 0.949 . S
H1726 C1730 0.949 . S
C1727 C1728 1.349 . S
C1727 C1729 1.327 . S
C1727 H1750 0.950 . S
C1728 C1727 1.349 . S
C1728 C1740 1.349 . S
C1729 C1727 1.327 . S
C1729 C1745 1.429 . S
C1729 H1751 0.950 . S
C1730 H1726 0.949 . S
C1730 C1738 1.574 . S
C1730 C1746 1.368 . S
H1731 C1739 0.950 . S
H1732 C1737 0.950 . S
H1733 C1738 0.949 . S
H1734 C1740 0.950 . S
H1735 C1741 0.950 . S
H1736 C1742 0.949 . S
C1737 H1732 0.950 . S
C1737 C1739 1.327 . S
C1737 C1743 1.429 . S
C1738 C1730 1.574 . S
C1738 H1733 0.949 . S
C1738 C1744 1.368 . S
C1739 C1723 1.349 . S
C1739 H1731 0.950 . S
C1739 C1737 1.327 . S
C1740 C1728 1.349 . S
C1740 H1734 0.950 . S
C1740 C1741 1.327 . S
C1741 H1735 0.950 . S
C1741 C1740 1.327 . S
C1741 C1745 1.429 . S
C1742 C1725 1.574 . S
C1742 H1736 0.949 . S
C1742 C1746 1.368 . S
C1743 C1724 1.429 . S
C1743 C1737 1.429 . S
C1743 C1744 1.523 . S
C1744 C1725 1.368 . S
C1744 C1738 1.368 . S
C1744 C1743 1.523 . S
C1745 C1729 1.429 . S
C1745 C1741 1.429 . S
C1745 C1746 1.523 . S
C1746 C1730 1.368 . S
C1746 C1742 1.368 . S
C1746 C1745 1.523 . S
H1747 C1722 0.950 . S
H1748 C1724 0.950 . S
H1749 C1725 0.949 . S
H1750 C1727 0.950 . S
H1751 C1729 0.950 . S
C1752 C1753 1.349 . S
C1752 C1754 1.327 . S
C1752 H1777 0.950 . S
C1753 C1752 1.349 . S
C1753 C1769 1.349 . S
C1754 C1752 1.327 . S
C1754 C1773 1.429 . S
C1754 H1778 0.950 . S
C1755 C1772 1.574 . S
C1755 C1774 1.368 . S
C1755 H1779 0.949 . S
H1756 C1760 0.949 . S
C1757 C1758 1.349 . S
C1757 C1759 1.327 . S
C1757 H1780 0.950 . S
C1758 C1757 1.349 . S
C1758 C1770 1.349 . S
C1759 C1757 1.327 . S
C1759 C1775 1.429 . S
C1759 H1781 0.950 . S
C1760 H1756 0.949 . S
C1760 C1768 1.574 . S
C1760 C1776 1.368 . S
H1761 C1769 0.950 . S
H1762 C1767 0.950 . S
H1763 C1768 0.949 . S
H1764 C1770 0.950 . S
H1765 C1771 0.950 . S
H1766 C1772 0.949 . S
C1767 H1762 0.950 . S
C1767 C1769 1.327 . S
C1767 C1773 1.429 . S
C1768 C1760 1.574 . S
C1768 H1763 0.949 . S
C1768 C1774 1.368 . S
C1769 C1753 1.349 . S
C1769 H1761 0.950 . S
C1769 C1767 1.327 . S
C1770 C1758 1.349 . S
C1770 H1764 0.950 . S
C1770 C1771 1.327 . S
C1771 H1765 0.950 . S
C1771 C1770 1.327 . S
C1771 C1775 1.429 . S
C1772 C1755 1.574 . S
C1772 H1766 0.949 . S
C1772 C1776 1.368 . S
C1773 C1754 1.429 . S
C1773 C1767 1.429 . S
C1773 C1774 1.523 . S
C1774 C1755 1.368 . S
C1774 C1768 1.368 . S
C1774 C1773 1.523 . S
C1775 C1759 1.429 . S
C1775 C1771 1.429 . S
C1775 C1776 1.523 . S
C1776 C1760 1.368 . S
C1776 C1772 1.368 . S
C1776 C1775 1.523 . S
H1777 C1752 0.950 . S
H1778 C1754 0.950 . S
H1779 C1755 0.949 . S
H1780 C1757 0.950 . S
H1781 C1759 0.950 . S
C1782 C1783 1.349 . S
C1782 C1784 1.327 . S
C1782 H1807 0.950 . S
C1783 C1782 1.349 . S
C1783 C1799 1.349 . S
C1784 C1782 1.327 . S
C1784 C1803 1.429 . S
C1784 H1808 0.950 . S
C1785 C1802 1.574 . S
C1785 C1804 1.368 . S
C1785 H1809 0.949 . S
H1786 C1790 0.949 . S
C1787 C1788 1.349 . S
C1787 C1789 1.327 . S
C1787 H1810 0.950 . S
C1788 C1787 1.349 . S
C1788 C1800 1.349 . S
C1789 C1787 1.327 . S
C1789 C1805 1.429 . S
C1789 H1811 0.950 . S
C1790 H1786 0.949 . S
C1790 C1798 1.574 . S
C1790 C1806 1.368 . S
H1791 C1799 0.950 . S
H1792 C1797 0.950 . S
H1793 C1798 0.949 . S
H1794 C1800 0.950 . S
H1795 C1801 0.950 . S
H1796 C1802 0.949 . S
C1797 H1792 0.950 . S
C1797 C1799 1.327 . S
C1797 C1803 1.429 . S
C1798 C1790 1.574 . S
C1798 H1793 0.949 . S
C1798 C1804 1.368 . S
C1799 C1783 1.349 . S
C1799 H1791 0.950 . S
C1799 C1797 1.327 . S
C1800 C1788 1.349 . S
C1800 H1794 0.950 . S
C1800 C1801 1.327 . S
C1801 H1795 0.950 . S
C1801 C1800 1.327 . S
C1801 C1805 1.429 . S
C1802 C1785 1.574 . S
C1802 H1796 0.949 . S
C1802 C1806 1.368 . S
C1803 C1784 1.429 . S
C1803 C1797 1.429 . S
C1803 C1804 1.523 . S
C1804 C1785 1.368 . S
C1804 C1798 1.368 . S
C1804 C1803 1.523 . S
C1805 C1789 1.429 . S
C1805 C1801 1.429 . S
C1805 C1806 1.523 . S
C1806 C1790 1.368 . S
C1806 C1802 1.368 . S
C1806 C1805 1.523 . S
H1807 C1782 0.950 . S
H1808 C1784 0.950 . S
H1809 C1785 0.949 . S
H1810 C1787 0.950 . S
H1811 C1789 0.950 . S
C1812 C1813 1.349 . S
C1812 C1814 1.327 . S
C1812 H1837 0.950 . S
C1813 C1812 1.349 . S
C1813 C1829 1.349 . S
C1814 C1812 1.327 . S
C1814 C1833 1.429 . S
C1814 H1838 0.950 . S
C1815 C1832 1.574 . S
C1815 C1834 1.368 . S
C1815 H1839 0.949 . S
H1816 C1820 0.949 . S
C1817 C1818 1.349 . S
C1817 C1819 1.327 . S
C1817 H1840 0.950 . S
C1818 C1817 1.349 . S
C1818 C1830 1.349 . S
C1819 C1817 1.327 . S
C1819 C1835 1.429 . S
C1819 H1841 0.950 . S
C1820 H1816 0.949 . S
C1820 C1828 1.574 . S
C1820 C1836 1.368 . S
H1821 C1829 0.950 . S
H1822 C1827 0.950 . S
H1823 C1828 0.949 . S
H1824 C1830 0.950 . S
H1825 C1831 0.950 . S
H1826 C1832 0.949 . S
C1827 H1822 0.950 . S
C1827 C1829 1.327 . S
C1827 C1833 1.429 . S
C1828 C1820 1.574 . S
C1828 H1823 0.949 . S
C1828 C1834 1.368 . S
C1829 C1813 1.349 . S
C1829 H1821 0.950 . S
C1829 C1827 1.327 . S
C1830 C1818 1.349 . S
C1830 H1824 0.950 . S
C1830 C1831 1.327 . S
C1831 H1825 0.950 . S
C1831 C1830 1.327 . S
C1831 C1835 1.429 . S
C1832 C1815 1.574 . S
C1832 H1826 0.949 . S
C1832 C1836 1.368 . S
C1833 C1814 1.429 . S
C1833 C1827 1.429 . S
C1833 C1834 1.523 . S
C1834 C1815 1.368 . S
C1834 C1828 1.368 . S
C1834 C1833 1.523 . S
C1835 C1819 1.429 . S
C1835 C1831 1.429 . S
C1835 C1836 1.523 . S
C1836 C1820 1.368 . S
C1836 C1832 1.368 . S
C1836 C1835 1.523 . S
H1837 C1812 0.950 . S
H1838 C1814 0.950 . S
H1839 C1815 0.949 . S
H1840 C1817 0.950 . S
H1841 C1819 0.950 . S
C1842 C1843 1.349 . S
C1842 C1844 1.327 . S
C1842 H1867 0.950 . S
C1843 C1842 1.349 . S
C1843 C1859 1.349 . S
C1844 C1842 1.327 . S
C1844 C1863 1.429 . S
C1844 H1868 0.950 . S
C1845 C1862 1.574 . S
C1845 C1864 1.368 . S
C1845 H1869 0.949 . S
H1846 C1850 0.949 . S
C1847 C1848 1.349 . S
C1847 C1849 1.327 . S
C1847 H1870 0.950 . S
C1848 C1847 1.349 . S
C1848 C1860 1.349 . S
C1849 C1847 1.327 . S
C1849 C1865 1.429 . S
C1849 H1871 0.950 . S
C1850 H1846 0.949 . S
C1850 C1858 1.574 . S
C1850 C1866 1.368 . S
H1851 C1859 0.950 . S
H1852 C1857 0.950 . S
H1853 C1858 0.949 . S
H1854 C1860 0.950 . S
H1855 C1861 0.950 . S
H1856 C1862 0.949 . S
C1857 H1852 0.950 . S
C1857 C1859 1.327 . S
C1857 C1863 1.429 . S
C1858 C1850 1.574 . S
C1858 H1853 0.949 . S
C1858 C1864 1.368 . S
C1859 C1843 1.349 . S
C1859 H1851 0.950 . S
C1859 C1857 1.327 . S
C1860 C1848 1.349 . S
C1860 H1854 0.950 . S
C1860 C1861 1.327 . S
C1861 H1855 0.950 . S
C1861 C1860 1.327 . S
C1861 C1865 1.429 . S
C1862 C1845 1.574 . S
C1862 H1856 0.949 . S
C1862 C1866 1.368 . S
C1863 C1844 1.429 . S
C1863 C1857 1.429 . S
C1863 C1864 1.523 . S
C1864 C1845 1.368 . S
C1864 C1858 1.368 . S
C1864 C1863 1.523 . S
C1865 C1849 1.429 . S
C1865 C1861 1.429 . S
C1865 C1866 1.523 . S
C1866 C1850 1.368 . S
C1866 C1862 1.368 . S
C1866 C1865 1.523 . S
H1867 C1842 0.950 . S
H1868 C1844 0.950 . S
H1869 C1845 0.949 . S
H1870 C1847 0.950 . S
H1871 C1849 0.950 . S
C1872 C1873 1.349 . S
C1872 C1874 1.327 . S
C1872 H1897 0.950 . S
C1873 C1872 1.349 . S
C1873 C1889 1.349 . S
C1874 C1872 1.327 . S
C1874 C1893 1.429 . S
C1874 H1898 0.950 . S
C1875 C1892 1.574 . S
C1875 C1894 1.368 . S
C1875 H1899 0.949 . S
H1876 C1880 0.949 . S
C1877 C1878 1.349 . S
C1877 C1879 1.327 . S
C1877 H1900 0.950 . S
C1878 C1877 1.349 . S
C1878 C1890 1.349 . S
C1879 C1877 1.327 . S
C1879 C1895 1.429 . S
C1879 H1901 0.950 . S
C1880 H1876 0.949 . S
C1880 C1888 1.574 . S
C1880 C1896 1.368 . S
H1881 C1889 0.950 . S
H1882 C1887 0.950 . S
H1883 C1888 0.949 . S
H1884 C1890 0.950 . S
H1885 C1891 0.950 . S
H1886 C1892 0.949 . S
C1887 H1882 0.950 . S
C1887 C1889 1.327 . S
C1887 C1893 1.429 . S
C1888 C1880 1.574 . S
C1888 H1883 0.949 . S
C1888 C1894 1.368 . S
C1889 C1873 1.349 . S
C1889 H1881 0.950 . S
C1889 C1887 1.327 . S
C1890 C1878 1.349 . S
C1890 H1884 0.950 . S
C1890 C1891 1.327 . S
C1891 H1885 0.950 . S
C1891 C1890 1.327 . S
C1891 C1895 1.429 . S
C1892 C1875 1.574 . S
C1892 H1886 0.949 . S
C1892 C1896 1.368 . S
C1893 C1874 1.429 . S
C1893 C1887 1.429 . S
C1893 C1894 1.523 . S
C1894 C1875 1.368 . S
C1894 C1888 1.368 . S
C1894 C1893 1.523 . S
C1895 C1879 1.429 . S
C1895 C1891 1.429 . S
C1895 C1896 1.523 . S
C1896 C1880 1.368 . S
C1896 C1892 1.368 . S
C1896 C1895 1.523 . S
H1897 C1872 0.950 . S
H1898 C1874 0.950 . S
H1899 C1875 0.949 . S
H1900 C1877 0.950 . S
H1901 C1879 0.950 . S
C1902 C1903 1.349 . S
C1902 C1904 1.327 . S
C1902 H1927 0.950 . S
C1903 C1902 1.349 . S
C1903 C1919 1.349 . S
C1904 C1902 1.327 . S
C1904 C1923 1.429 . S
C1904 H1928 0.950 . S
C1905 C1922 1.574 . S
C1905 C1924 1.368 . S
C1905 H1929 0.949 . S
H1906 C1910 0.949 . S
C1907 C1908 1.349 . S
C1907 C1909 1.327 . S
C1907 H1930 0.950 . S
C1908 C1907 1.349 . S
C1908 C1920 1.349 . S
C1909 C1907 1.327 . S
C1909 C1925 1.429 . S
C1909 H1931 0.950 . S
C1910 H1906 0.949 . S
C1910 C1918 1.574 . S
C1910 C1926 1.368 . S
H1911 C1919 0.950 . S
H1912 C1917 0.950 . S
H1913 C1918 0.949 . S
H1914 C1920 0.950 . S
H1915 C1921 0.950 . S
H1916 C1922 0.949 . S
C1917 H1912 0.950 . S
C1917 C1919 1.327 . S
C1917 C1923 1.429 . S
C1918 C1910 1.574 . S
C1918 H1913 0.949 . S
C1918 C1924 1.368 . S
C1919 C1903 1.349 . S
C1919 H1911 0.950 . S
C1919 C1917 1.327 . S
C1920 C1908 1.349 . S
C1920 H1914 0.950 . S
C1920 C1921 1.327 . S
C1921 H1915 0.950 . S
C1921 C1920 1.327 . S
C1921 C1925 1.429 . S
C1922 C1905 1.574 . S
C1922 H1916 0.949 . S
C1922 C1926 1.368 . S
C1923 C1904 1.429 . S
C1923 C1917 1.429 . S
C1923 C1924 1.523 . S
C1924 C1905 1.368 . S
C1924 C1918 1.368 . S
C1924 C1923 1.523 . S
C1925 C1909 1.429 . S
C1925 C1921 1.429 . S
C1925 C1926 1.523 . S
C1926 C1910 1.368 . S
C1926 C1922 1.368 . S
C1926 C1925 1.523 . S
H1927 C1902 0.950 . S
H1928 C1904 0.950 . S
H1929 C1905 0.949 . S
H1930 C1907 0.950 . S
H1931 C1909 0.950 . S
C1932 C1933 1.349 . S
C1932 C1934 1.327 . S
C1932 H1957 0.950 . S
C1933 C1932 1.349 . S
C1933 C1949 1.349 . S
C1934 C1932 1.327 . S
C1934 C1953 1.429 . S
C1934 H1958 0.950 . S
C1935 C1952 1.574 . S
C1935 C1954 1.368 . S
C1935 H1959 0.949 . S
H1936 C1940 0.949 . S
C1937 C1938 1.349 . S
C1937 C1939 1.327 . S
C1937 H1960 0.950 . S
C1938 C1937 1.349 . S
C1938 C1950 1.349 . S
C1939 C1937 1.327 . S
C1939 C1955 1.429 . S
C1939 H1961 0.950 . S
C1940 H1936 0.949 . S
C1940 C1948 1.574 . S
C1940 C1956 1.368 . S
H1941 C1949 0.950 . S
H1942 C1947 0.950 . S
H1943 C1948 0.949 . S
H1944 C1950 0.950 . S
H1945 C1951 0.950 . S
H1946 C1952 0.949 . S
C1947 H1942 0.950 . S
C1947 C1949 1.327 . S
C1947 C1953 1.429 . S
C1948 C1940 1.574 . S
C1948 H1943 0.949 . S
C1948 C1954 1.368 . S
C1949 C1933 1.349 . S
C1949 H1941 0.950 . S
C1949 C1947 1.327 . S
C1950 C1938 1.349 . S
C1950 H1944 0.950 . S
C1950 C1951 1.327 . S
C1951 H1945 0.950 . S
C1951 C1950 1.327 . S
C1951 C1955 1.429 . S
C1952 C1935 1.574 . S
C1952 H1946 0.949 . S
C1952 C1956 1.368 . S
C1953 C1934 1.429 . S
C1953 C1947 1.429 . S
C1953 C1954 1.523 . S
C1954 C1935 1.368 . S
C1954 C1948 1.368 . S
C1954 C1953 1.523 . S
C1955 C1939 1.429 . S
C1955 C1951 1.429 . S
C1955 C1956 1.523 . S
C1956 C1940 1.368 . S
C1956 C1952 1.368 . S
C1956 C1955 1.523 . S
H1957 C1932 0.950 . S
H1958 C1934 0.950 . S
H1959 C1935 0.949 . S
H1960 C1937 0.950 . S
H1961 C1939 0.950 . S
C1962 C1963 1.349 . S
C1962 C1964 1.327 . S
C1962 H1987 0.950 . S
C1963 C1962 1.349 . S
C1963 C1979 1.349 . S
C1964 C1962 1.327 . S
C1964 C1983 1.429 . S
C1964 H1988 0.950 . S
C1965 C1982 1.574 . S
C1965 C1984 1.368 . S
C1965 H1989 0.949 . S
H1966 C1970 0.949 . S
C1967 C1968 1.349 . S
C1967 C1969 1.327 . S
C1967 H1990 0.950 . S
C1968 C1967 1.349 . S
C1968 C1980 1.349 . S
C1969 C1967 1.327 . S
C1969 C1985 1.429 . S
C1969 H1991 0.950 . S
C1970 H1966 0.949 . S
C1970 C1978 1.574 . S
C1970 C1986 1.368 . S
H1971 C1979 0.950 . S
H1972 C1977 0.950 . S
H1973 C1978 0.949 . S
H1974 C1980 0.950 . S
H1975 C1981 0.950 . S
H1976 C1982 0.949 . S
C1977 H1972 0.950 . S
C1977 C1979 1.327 . S
C1977 C1983 1.429 . S
C1978 C1970 1.574 . S
C1978 H1973 0.949 . S
C1978 C1984 1.368 . S
C1979 C1963 1.349 . S
C1979 H1971 0.950 . S
C1979 C1977 1.327 . S
C1980 C1968 1.349 . S
C1980 H1974 0.950 . S
C1980 C1981 1.327 . S
C1981 H1975 0.950 . S
C1981 C1980 1.327 . S
C1981 C1985 1.429 . S
C1982 C1965 1.574 . S
C1982 H1976 0.949 . S
C1982 C1986 1.368 . S
C1983 C1964 1.429 . S
C1983 C1977 1.429 . S
C1983 C1984 1.523 . S
C1984 C1965 1.368 . S
C1984 C1978 1.368 . S
C1984 C1983 1.523 . S
C1985 C1969 1.429 . S
C1985 C1981 1.429 . S
C1985 C1986 1.523 . S
C1986 C1970 1.368 . S
C1986 C1982 1.368 . S
C1986 C1985 1.523 . S
H1987 C1962 0.950 . S
H1988 C1964 0.950 . S
H1989 C1965 0.949 . S
H1990 C1967 0.950 . S
H1991 C1969 0.950 . S
C1992 C1993 1.349 . S
C1992 C1994 1.327 . S
C1992 H2017 0.950 . S
C1993 C1992 1.349 . S
C1993 C2009 1.349 . S
C1994 C1992 1.327 . S
C1994 C2013 1.429 . S
C1994 H2018 0.950 . S
C1995 C2012 1.574 . S
C1995 C2014 1.368 . S
C1995 H2019 0.949 . S
H1996 C2000 0.949 . S
C1997 C1998 1.349 . S
C1997 C1999 1.327 . S
C1997 H2020 0.950 . S
C1998 C1997 1.349 . S
C1998 C2010 1.349 . S
C1999 C1997 1.327 . S
C1999 C2015 1.429 . S
C1999 H2021 0.950 . S
C2000 H1996 0.949 . S
C2000 C2008 1.574 . S
C2000 C2016 1.368 . S
H2001 C2009 0.950 . S
H2002 C2007 0.950 . S
H2003 C2008 0.949 . S
H2004 C2010 0.950 . S
H2005 C2011 0.950 . S
H2006 C2012 0.949 . S
C2007 H2002 0.950 . S
C2007 C2009 1.327 . S
C2007 C2013 1.429 . S
C2008 C2000 1.574 . S
C2008 H2003 0.949 . S
C2008 C2014 1.368 . S
C2009 C1993 1.349 . S
C2009 H2001 0.950 . S
C2009 C2007 1.327 . S
C2010 C1998 1.349 . S
C2010 H2004 0.950 . S
C2010 C2011 1.327 . S
C2011 H2005 0.950 . S
C2011 C2010 1.327 . S
C2011 C2015 1.429 . S
C2012 C1995 1.574 . S
C2012 H2006 0.949 . S
C2012 C2016 1.368 . S
C2013 C1994 1.429 . S
C2013 C2007 1.429 . S
C2013 C2014 1.523 . S
C2014 C1995 1.368 . S
C2014 C2008 1.368 . S
C2014 C2013 1.523 . S
C2015 C1999 1.429 . S
C2015 C2011 1.429 . S
C2015 C2016 1.523 . S
C2016 C2000 1.368 . S
C2016 C2012 1.368 . S
C2016 C2015 1.523 . S
H2017 C1992 0.950 . S
H2018 C1994 0.950 . S
H2019 C1995 0.949 . S
H2020 C1997 0.950 . S
H2021 C1999 0.950 . S
C2022 C2023 1.349 . S
C2022 C2024 1.327 . S
C2022 H2047 0.950 . S
C2023 C2022 1.349 . S
C2023 C2039 1.349 . S
C2024 C2022 1.327 . S
C2024 C2043 1.429 . S
C2024 H2048 0.950 . S
C2025 C2042 1.574 . S
C2025 C2044 1.368 . S
C2025 H2049 0.949 . S
H2026 C2030 0.949 . S
C2027 C2028 1.349 . S
C2027 C2029 1.327 . S
C2027 H2050 0.950 . S
C2028 C2027 1.349 . S
C2028 C2040 1.349 . S
C2029 C2027 1.327 . S
C2029 C2045 1.429 . S
C2029 H2051 0.950 . S
C2030 H2026 0.949 . S
C2030 C2038 1.574 . S
C2030 C2046 1.368 . S
H2031 C2039 0.950 . S
H2032 C2037 0.950 . S
H2033 C2038 0.949 . S
H2034 C2040 0.950 . S
H2035 C2041 0.950 . S
H2036 C2042 0.949 . S
C2037 H2032 0.950 . S
C2037 C2039 1.327 . S
C2037 C2043 1.429 . S
C2038 C2030 1.574 . S
C2038 H2033 0.949 . S
C2038 C2044 1.368 . S
C2039 C2023 1.349 . S
C2039 H2031 0.950 . S
C2039 C2037 1.327 . S
C2040 C2028 1.349 . S
C2040 H2034 0.950 . S
C2040 C2041 1.327 . S
C2041 H2035 0.950 . S
C2041 C2040 1.327 . S
C2041 C2045 1.429 . S
C2042 C2025 1.574 . S
C2042 H2036 0.949 . S
C2042 C2046 1.368 . S
C2043 C2024 1.429 . S
C2043 C2037 1.429 . S
C2043 C2044 1.523 . S
C2044 C2025 1.368 . S
C2044 C2038 1.368 . S
C2044 C2043 1.523 . S
C2045 C2029 1.429 . S
C2045 C2041 1.429 . S
C2045 C2046 1.523 . S
C2046 C2030 1.368 . S
C2046 C2042 1.368 . S
C2046 C2045 1.523 . S
H2047 C2022 0.950 . S
H2048 C2024 0.950 . S
H2049 C2025 0.949 . S
H2050 C2027 0.950 . S
H2051 C2029 0.950 . S
C2052 C2053 1.349 . S
C2052 C2054 1.327 . S
C2052 H2077 0.950 . S
C2053 C2052 1.349 . S
C2053 C2069 1.349 . S
C2054 C2052 1.327 . S
C2054 C2073 1.429 . S
C2054 H2078 0.950 . S
C2055 C2072 1.574 . S
C2055 C2074 1.368 . S
C2055 H2079 0.949 . S
H2056 C2060 0.949 . S
C2057 C2058 1.349 . S
C2057 C2059 1.327 . S
C2057 H2080 0.950 . S
C2058 C2057 1.349 . S
C2058 C2070 1.349 . S
C2059 C2057 1.327 . S
C2059 C2075 1.429 . S
C2059 H2081 0.950 . S
C2060 H2056 0.949 . S
C2060 C2068 1.574 . S
C2060 C2076 1.368 . S
H2061 C2069 0.950 . S
H2062 C2067 0.950 . S
H2063 C2068 0.949 . S
H2064 C2070 0.950 . S
H2065 C2071 0.950 . S
H2066 C2072 0.949 . S
C2067 H2062 0.950 . S
C2067 C2069 1.327 . S
C2067 C2073 1.429 . S
C2068 C2060 1.574 . S
C2068 H2063 0.949 . S
C2068 C2074 1.368 . S
C2069 C2053 1.349 . S
C2069 H2061 0.950 . S
C2069 C2067 1.327 . S
C2070 C2058 1.349 . S
C2070 H2064 0.950 . S
C2070 C2071 1.327 . S
C2071 H2065 0.950 . S
C2071 C2070 1.327 . S
C2071 C2075 1.429 . S
C2072 C2055 1.574 . S
C2072 H2066 0.949 . S
C2072 C2076 1.368 . S
C2073 C2054 1.429 . S
C2073 C2067 1.429 . S
C2073 C2074 1.523 . S
C2074 C2055 1.368 . S
C2074 C2068 1.368 . S
C2074 C2073 1.523 . S
C2075 C2059 1.429 . S
C2075 C2071 1.429 . S
C2075 C2076 1.523 . S
C2076 C2060 1.368 . S
C2076 C2072 1.368 . S
C2076 C2075 1.523 . S
H2077 C2052 0.950 . S
H2078 C2054 0.950 . S
H2079 C2055 0.949 . S
H2080 C2057 0.950 . S
H2081 C2059 0.950 . S
C2082 C2083 1.349 . S
C2082 C2084 1.327 . S
C2082 H2107 0.950 . S
C2083 C2082 1.349 . S
C2083 C2099 1.349 . S
C2084 C2082 1.327 . S
C2084 C2103 1.429 . S
C2084 H2108 0.950 . S
C2085 C2102 1.574 . S
C2085 C2104 1.368 . S
C2085 H2109 0.949 . S
H2086 C2090 0.949 . S
C2087 C2088 1.349 . S
C2087 C2089 1.327 . S
C2087 H2110 0.950 . S
C2088 C2087 1.349 . S
C2088 C2100 1.349 . S
C2089 C2087 1.327 . S
C2089 C2105 1.429 . S
C2089 H2111 0.950 . S
C2090 H2086 0.949 . S
C2090 C2098 1.574 . S
C2090 C2106 1.368 . S
H2091 C2099 0.950 . S
H2092 C2097 0.950 . S
H2093 C2098 0.949 . S
H2094 C2100 0.950 . S
H2095 C2101 0.950 . S
H2096 C2102 0.949 . S
C2097 H2092 0.950 . S
C2097 C2099 1.327 . S
C2097 C2103 1.429 . S
C2098 C2090 1.574 . S
C2098 H2093 0.949 . S
C2098 C2104 1.368 . S
C2099 C2083 1.349 . S
C2099 H2091 0.950 . S
C2099 C2097 1.327 . S
C2100 C2088 1.349 . S
C2100 H2094 0.950 . S
C2100 C2101 1.327 . S
C2101 H2095 0.950 . S
C2101 C2100 1.327 . S
C2101 C2105 1.429 . S
C2102 C2085 1.574 . S
C2102 H2096 0.949 . S
C2102 C2106 1.368 . S
C2103 C2084 1.429 . S
C2103 C2097 1.429 . S
C2103 C2104 1.523 . S
C2104 C2085 1.368 . S
C2104 C2098 1.368 . S
C2104 C2103 1.523 . S
C2105 C2089 1.429 . S
C2105 C2101 1.429 . S
C2105 C2106 1.523 . S
C2106 C2090 1.368 . S
C2106 C2102 1.368 . S
C2106 C2105 1.523 . S
H2107 C2082 0.950 . S
H2108 C2084 0.950 . S
H2109 C2085 0.949 . S
H2110 C2087 0.950 . S
H2111 C2089 0.950 . S
C2112 C2113 1.349 . S
C2112 C2114 1.327 . S
C2112 H2137 0.950 . S
C2113 C2112 1.349 . S
C2113 C2129 1.349 . S
C2114 C2112 1.327 . S
C2114 C2133 1.429 . S
C2114 H2138 0.950 . S
C2115 C2132 1.574 . S
C2115 C2134 1.368 . S
C2115 H2139 0.949 . S
H2116 C2120 0.949 . S
C2117 C2118 1.349 . S
C2117 C2119 1.327 . S
C2117 H2140 0.950 . S
C2118 C2117 1.349 . S
C2118 C2130 1.349 . S
C2119 C2117 1.327 . S
C2119 C2135 1.429 . S
C2119 H2141 0.950 . S
C2120 H2116 0.949 . S
C2120 C2128 1.574 . S
C2120 C2136 1.368 . S
H2121 C2129 0.950 . S
H2122 C2127 0.950 . S
H2123 C2128 0.949 . S
H2124 C2130 0.950 . S
H2125 C2131 0.950 . S
H2126 C2132 0.949 . S
C2127 H2122 0.950 . S
C2127 C2129 1.327 . S
C2127 C2133 1.429 . S
C2128 C2120 1.574 . S
C2128 H2123 0.949 . S
C2128 C2134 1.368 . S
C2129 C2113 1.349 . S
C2129 H2121 0.950 . S
C2129 C2127 1.327 . S
C2130 C2118 1.349 . S
C2130 H2124 0.950 . S
C2130 C2131 1.327 . S
C2131 H2125 0.950 . S
C2131 C2130 1.327 . S
C2131 C2135 1.429 . S
C2132 C2115 1.574 . S
C2132 H2126 0.949 . S
C2132 C2136 1.368 . S
C2133 C2114 1.429 . S
C2133 C2127 1.429 . S
C2133 C2134 1.523 . S
C2134 C2115 1.368 . S
C2134 C2128 1.368 . S
C2134 C2133 1.523 . S
C2135 C2119 1.429 . S
C2135 C2131 1.429 . S
C2135 C2136 1.523 . S
C2136 C2120 1.368 . S
C2136 C2132 1.368 . S
C2136 C2135 1.523 . S
H2137 C2112 0.950 . S
H2138 C2114 0.950 . S
H2139 C2115 0.949 . S
H2140 C2117 0.950 . S
H2141 C2119 0.950 . S
C2142 C2143 1.349 . S
C2142 C2144 1.327 . S
C2142 H2167 0.950 . S
C2143 C2142 1.349 . S
C2143 C2159 1.349 . S
C2144 C2142 1.327 . S
C2144 C2163 1.429 . S
C2144 H2168 0.950 . S
C2145 C2162 1.574 . S
C2145 C2164 1.368 . S
C2145 H2169 0.949 . S
H2146 C2150 0.949 . S
C2147 C2148 1.349 . S
C2147 C2149 1.327 . S
C2147 H2170 0.950 . S
C2148 C2147 1.349 . S
C2148 C2160 1.349 . S
C2149 C2147 1.327 . S
C2149 C2165 1.429 . S
C2149 H2171 0.950 . S
C2150 H2146 0.949 . S
C2150 C2158 1.574 . S
C2150 C2166 1.368 . S
H2151 C2159 0.950 . S
H2152 C2157 0.950 . S
H2153 C2158 0.949 . S
H2154 C2160 0.950 . S
H2155 C2161 0.950 . S
H2156 C2162 0.949 . S
C2157 H2152 0.950 . S
C2157 C2159 1.327 . S
C2157 C2163 1.429 . S
C2158 C2150 1.574 . S
C2158 H2153 0.949 . S
C2158 C2164 1.368 . S
C2159 C2143 1.349 . S
C2159 H2151 0.950 . S
C2159 C2157 1.327 . S
C2160 C2148 1.349 . S
C2160 H2154 0.950 . S
C2160 C2161 1.327 . S
C2161 H2155 0.950 . S
C2161 C2160 1.327 . S
C2161 C2165 1.429 . S
C2162 C2145 1.574 . S
C2162 H2156 0.949 . S
C2162 C2166 1.368 . S
C2163 C2144 1.429 . S
C2163 C2157 1.429 . S
C2163 C2164 1.523 . S
C2164 C2145 1.368 . S
C2164 C2158 1.368 . S
C2164 C2163 1.523 . S
C2165 C2149 1.429 . S
C2165 C2161 1.429 . S
C2165 C2166 1.523 . S
C2166 C2150 1.368 . S
C2166 C2162 1.368 . S
C2166 C2165 1.523 . S
H2167 C2142 0.950 . S
H2168 C2144 0.950 . S
H2169 C2145 0.949 . S
H2170 C2147 0.950 . S
H2171 C2149 0.950 . S
C2172 C2173 1.349 . S
C2172 C2174 1.327 . S
C2172 H2197 0.950 . S
C2173 C2172 1.349 . S
C2173 C2189 1.349 . S
C2174 C2172 1.327 . S
C2174 C2193 1.429 . S
C2174 H2198 0.950 . S
C2175 C2192 1.574 . S
C2175 C2194 1.368 . S
C2175 H2199 0.949 . S
H2176 C2180 0.949 . S
C2177 C2178 1.349 . S
C2177 C2179 1.327 . S
C2177 H2200 0.950 . S
C2178 C2177 1.349 . S
C2178 C2190 1.349 . S
C2179 C2177 1.327 . S
C2179 C2195 1.429 . S
C2179 H2201 0.950 . S
C2180 H2176 0.949 . S
C2180 C2188 1.574 . S
C2180 C2196 1.368 . S
H2181 C2189 0.950 . S
H2182 C2187 0.950 . S
H2183 C2188 0.949 . S
H2184 C2190 0.950 . S
H2185 C2191 0.950 . S
H2186 C2192 0.949 . S
C2187 H2182 0.950 . S
C2187 C2189 1.327 . S
C2187 C2193 1.429 . S
C2188 C2180 1.574 . S
C2188 H2183 0.949 . S
C2188 C2194 1.368 . S
C2189 C2173 1.349 . S
C2189 H2181 0.950 . S
C2189 C2187 1.327 . S
C2190 C2178 1.349 . S
C2190 H2184 0.950 . S
C2190 C2191 1.327 . S
C2191 H2185 0.950 . S
C2191 C2190 1.327 . S
C2191 C2195 1.429 . S
C2192 C2175 1.574 . S
C2192 H2186 0.949 . S
C2192 C2196 1.368 . S
C2193 C2174 1.429 . S
C2193 C2187 1.429 . S
C2193 C2194 1.523 . S
C2194 C2175 1.368 . S
C2194 C2188 1.368 . S
C2194 C2193 1.523 . S
C2195 C2179 1.429 . S
C2195 C2191 1.429 . S
C2195 C2196 1.523 . S
C2196 C2180 1.368 . S
C2196 C2192 1.368 . S
C2196 C2195 1.523 . S
H2197 C2172 0.950 . S
H2198 C2174 0.950 . S
H2199 C2175 0.949 . S
H2200 C2177 0.950 . S
H2201 C2179 0.950 . S
C2202 C2203 1.349 . S
C2202 C2204 1.327 . S
C2202 H2227 0.950 . S
C2203 C2202 1.349 . S
C2203 C2219 1.349 . S
C2204 C2202 1.327 . S
C2204 C2223 1.429 . S
C2204 H2228 0.950 . S
C2205 C2222 1.574 . S
C2205 C2224 1.368 . S
C2205 H2229 0.949 . S
H2206 C2210 0.949 . S
C2207 C2208 1.349 . S
C2207 C2209 1.327 . S
C2207 H2230 0.950 . S
C2208 C2207 1.349 . S
C2208 C2220 1.349 . S
C2209 C2207 1.327 . S
C2209 C2225 1.429 . S
C2209 H2231 0.950 . S
C2210 H2206 0.949 . S
C2210 C2218 1.574 . S
C2210 C2226 1.368 . S
H2211 C2219 0.950 . S
H2212 C2217 0.950 . S
H2213 C2218 0.949 . S
H2214 C2220 0.950 . S
H2215 C2221 0.950 . S
H2216 C2222 0.949 . S
C2217 H2212 0.950 . S
C2217 C2219 1.327 . S
C2217 C2223 1.429 . S
C2218 C2210 1.574 . S
C2218 H2213 0.949 . S
C2218 C2224 1.368 . S
C2219 C2203 1.349 . S
C2219 H2211 0.950 . S
C2219 C2217 1.327 . S
C2220 C2208 1.349 . S
C2220 H2214 0.950 . S
C2220 C2221 1.327 . S
C2221 H2215 0.950 . S
C2221 C2220 1.327 . S
C2221 C2225 1.429 . S
C2222 C2205 1.574 . S
C2222 H2216 0.949 . S
C2222 C2226 1.368 . S
C2223 C2204 1.429 . S
C2223 C2217 1.429 . S
C2223 C2224 1.523 . S
C2224 C2205 1.368 . S
C2224 C2218 1.368 . S
C2224 C2223 1.523 . S
C2225 C2209 1.429 . S
C2225 C2221 1.429 . S
C2225 C2226 1.523 . S
C2226 C2210 1.368 . S
C2226 C2222 1.368 . S
C2226 C2225 1.523 . S
H2227 C2202 0.950 . S
H2228 C2204 0.950 . S
H2229 C2205 0.949 . S
H2230 C2207 0.950 . S
H2231 C2209 0.950 . S
C2232 C2233 1.349 . S
C2232 C2234 1.327 . S
C2232 H2257 0.950 . S
C2233 C2232 1.349 . S
C2233 C2249 1.349 . S
C2234 C2232 1.327 . S
C2234 C2253 1.429 . S
C2234 H2258 0.950 . S
C2235 C2252 1.574 . S
C2235 C2254 1.368 . S
C2235 H2259 0.949 . S
H2236 C2240 0.949 . S
C2237 C2238 1.349 . S
C2237 C2239 1.327 . S
C2237 H2260 0.950 . S
C2238 C2237 1.349 . S
C2238 C2250 1.349 . S
C2239 C2237 1.327 . S
C2239 C2255 1.429 . S
C2239 H2261 0.950 . S
C2240 H2236 0.949 . S
C2240 C2248 1.574 . S
C2240 C2256 1.368 . S
H2241 C2249 0.950 . S
H2242 C2247 0.950 . S
H2243 C2248 0.949 . S
H2244 C2250 0.950 . S
H2245 C2251 0.950 . S
H2246 C2252 0.949 . S
C2247 H2242 0.950 . S
C2247 C2249 1.327 . S
C2247 C2253 1.429 . S
C2248 C2240 1.574 . S
C2248 H2243 0.949 . S
C2248 C2254 1.368 . S
C2249 C2233 1.349 . S
C2249 H2241 0.950 . S
C2249 C2247 1.327 . S
C2250 C2238 1.349 . S
C2250 H2244 0.950 . S
C2250 C2251 1.327 . S
C2251 H2245 0.950 . S
C2251 C2250 1.327 . S
C2251 C2255 1.429 . S
C2252 C2235 1.574 . S
C2252 H2246 0.949 . S
C2252 C2256 1.368 . S
C2253 C2234 1.429 . S
C2253 C2247 1.429 . S
C2253 C2254 1.523 . S
C2254 C2235 1.368 . S
C2254 C2248 1.368 . S
C2254 C2253 1.523 . S
C2255 C2239 1.429 . S
C2255 C2251 1.429 . S
C2255 C2256 1.523 . S
C2256 C2240 1.368 . S
C2256 C2252 1.368 . S
C2256 C2255 1.523 . S
H2257 C2232 0.950 . S
H2258 C2234 0.950 . S
H2259 C2235 0.949 . S
H2260 C2237 0.950 . S
H2261 C2239 0.950 . S
C2262 C2263 1.349 . S
C2262 C2264 1.327 . S
C2262 H2287 0.950 . S
C2263 C2262 1.349 . S
C2263 C2279 1.349 . S
C2264 C2262 1.327 . S
C2264 C2283 1.429 . S
C2264 H2288 0.950 . S
C2265 C2282 1.574 . S
C2265 C2284 1.368 . S
C2265 H2289 0.949 . S
H2266 C2270 0.949 . S
C2267 C2268 1.349 . S
C2267 C2269 1.327 . S
C2267 H2290 0.950 . S
C2268 C2267 1.349 . S
C2268 C2280 1.349 . S
C2269 C2267 1.327 . S
C2269 C2285 1.429 . S
C2269 H2291 0.950 . S
C2270 H2266 0.949 . S
C2270 C2278 1.574 . S
C2270 C2286 1.368 . S
H2271 C2279 0.950 . S
H2272 C2277 0.950 . S
H2273 C2278 0.949 . S
H2274 C2280 0.950 . S
H2275 C2281 0.950 . S
H2276 C2282 0.949 . S
C2277 H2272 0.950 . S
C2277 C2279 1.327 . S
C2277 C2283 1.429 . S
C2278 C2270 1.574 . S
C2278 H2273 0.949 . S
C2278 C2284 1.368 . S
C2279 C2263 1.349 . S
C2279 H2271 0.950 . S
C2279 C2277 1.327 . S
C2280 C2268 1.349 . S
C2280 H2274 0.950 . S
C2280 C2281 1.327 . S
C2281 H2275 0.950 . S
C2281 C2280 1.327 . S
C2281 C2285 1.429 . S
C2282 C2265 1.574 . S
C2282 H2276 0.949 . S
C2282 C2286 1.368 . S
C2283 C2264 1.429 . S
C2283 C2277 1.429 . S
C2283 C2284 1.523 . S
C2284 C2265 1.368 . S
C2284 C2278 1.368 . S
C2284 C2283 1.523 . S
C2285 C2269 1.429 . S
C2285 C2281 1.429 . S
C2285 C2286 1.523 . S
C2286 C2270 1.368 . S
C2286 C2282 1.368 . S
C2286 C2285 1.523 . S
H2287 C2262 0.950 . S
H2288 C2264 0.950 . S
H2289 C2265 0.949 . S
H2290 C2267 0.950 . S
H2291 C2269 0.950 . S
C2292 C2293 1.349 . S
C2292 C2294 1.327 . S
C2292 H2317 0.950 . S
C2293 C2292 1.349 . S
C2293 C2309 1.349 . S
C2294 C2292 1.327 . S
C2294 C2313 1.429 . S
C2294 H2318 0.950 . S
C2295 C2312 1.574 . S
C2295 C2314 1.368 . S
C2295 H2319 0.949 . S
H2296 C2300 0.949 . S
C2297 C2298 1.349 . S
C2297 C2299 1.327 . S
C2297 H2320 0.950 . S
C2298 C2297 1.349 . S
C2298 C2310 1.349 . S
C2299 C2297 1.327 . S
C2299 C2315 1.429 . S
C2299 H2321 0.950 . S
C2300 H2296 0.949 . S
C2300 C2308 1.574 . S
C2300 C2316 1.368 . S
H2301 C2309 0.950 . S
H2302 C2307 0.950 . S
H2303 C2308 0.949 . S
H2304 C2310 0.950 . S
H2305 C2311 0.950 . S
H2306 C2312 0.949 . S
C2307 H2302 0.950 . S
C2307 C2309 1.327 . S
C2307 C2313 1.429 . S
C2308 C2300 1.574 . S
C2308 H2303 0.949 . S
C2308 C2314 1.368 . S
C2309 C2293 1.349 . S
C2309 H2301 0.950 . S
C2309 C2307 1.327 . S
C2310 C2298 1.349 . S
C2310 H2304 0.950 . S
C2310 C2311 1.327 . S
C2311 H2305 0.950 . S
C2311 C2310 1.327 . S
C2311 C2315 1.429 . S
C2312 C2295 1.574 . S
C2312 H2306 0.949 . S
C2312 C2316 1.368 . S
C2313 C2294 1.429 . S
C2313 C2307 1.429 . S
C2313 C2314 1.523 . S
C2314 C2295 1.368 . S
C2314 C2308 1.368 . S
C2314 C2313 1.523 . S
C2315 C2299 1.429 . S
C2315 C2311 1.429 . S
C2315 C2316 1.523 . S
C2316 C2300 1.368 . S
C2316 C2312 1.368 . S
C2316 C2315 1.523 . S
H2317 C2292 0.950 . S
H2318 C2294 0.950 . S
H2319 C2295 0.949 . S
H2320 C2297 0.950 . S
H2321 C2299 0.950 . S
C2322 C2323 1.349 . S
C2322 C2324 1.327 . S
C2322 H2347 0.950 . S
C2323 C2322 1.349 . S
C2323 C2339 1.349 . S
C2324 C2322 1.327 . S
C2324 C2343 1.429 . S
C2324 H2348 0.950 . S
C2325 C2342 1.574 . S
C2325 C2344 1.368 . S
C2325 H2349 0.949 . S
H2326 C2330 0.949 . S
C2327 C2328 1.349 . S
C2327 C2329 1.327 . S
C2327 H2350 0.950 . S
C2328 C2327 1.349 . S
C2328 C2340 1.349 . S
C2329 C2327 1.327 . S
C2329 C2345 1.429 . S
C2329 H2351 0.950 . S
C2330 H2326 0.949 . S
C2330 C2338 1.574 . S
C2330 C2346 1.368 . S
H2331 C2339 0.950 . S
H2332 C2337 0.950 . S
H2333 C2338 0.949 . S
H2334 C2340 0.950 . S
H2335 C2341 0.950 . S
H2336 C2342 0.949 . S
C2337 H2332 0.950 . S
C2337 C2339 1.327 . S
C2337 C2343 1.429 . S
C2338 C2330 1.574 . S
C2338 H2333 0.949 . S
C2338 C2344 1.368 . S
C2339 C2323 1.349 . S
C2339 H2331 0.950 . S
C2339 C2337 1.327 . S
C2340 C2328 1.349 . S
C2340 H2334 0.950 . S
C2340 C2341 1.327 . S
C2341 H2335 0.950 . S
C2341 C2340 1.327 . S
C2341 C2345 1.429 . S
C2342 C2325 1.574 . S
C2342 H2336 0.949 . S
C2342 C2346 1.368 . S
C2343 C2324 1.429 . S
C2343 C2337 1.429 . S
C2343 C2344 1.523 . S
C2344 C2325 1.368 . S
C2344 C2338 1.368 . S
C2344 C2343 1.523 . S
C2345 C2329 1.429 . S
C2345 C2341 1.429 . S
C2345 C2346 1.523 . S
C2346 C2330 1.368 . S
C2346 C2342 1.368 . S
C2346 C2345 1.523 . S
H2347 C2322 0.950 . S
H2348 C2324 0.950 . S
H2349 C2325 0.949 . S
H2350 C2327 0.950 . S
H2351 C2329 0.950 . S
C2352 C2353 1.349 . S
C2352 C2354 1.327 . S
C2352 H2377 0.950 . S
C2353 C2352 1.349 . S
C2353 C2369 1.349 . S
C2354 C2352 1.327 . S
C2354 C2373 1.429 . S
C2354 H2378 0.950 . S
C2355 C2372 1.574 . S
C2355 C2374 1.368 1_455 S
C2355 H2379 0.949 . S
H2356 C2360 0.949 . S
C2357 C2358 1.349 . S
C2357 C2359 1.327 . S
C2357 H2380 0.950 . S
C2358 C2357 1.349 . S
C2358 C2370 1.349 . S
C2359 C2357 1.327 . S
C2359 C2375 1.429 . S
C2359 H2381 0.950 . S
C2360 H2356 0.949 . S
C2360 C2368 1.574 . S
C2360 C2376 1.368 1_655 S
H2361 C2369 0.950 . S
H2362 C2367 0.950 . S
H2363 C2368 0.949 . S
H2364 C2370 0.950 . S
H2365 C2371 0.950 . S
H2366 C2372 0.949 . S
C2367 H2362 0.950 . S
C2367 C2369 1.327 . S
C2367 C2373 1.429 . S
C2368 C2360 1.574 . S
C2368 H2363 0.949 . S
C2368 C2374 1.368 . S
C2369 C2353 1.349 . S
C2369 H2361 0.950 . S
C2369 C2367 1.327 . S
C2370 C2358 1.349 . S
C2370 H2364 0.950 . S
C2370 C2371 1.327 . S
C2371 H2365 0.950 . S
C2371 C2370 1.327 . S
C2371 C2375 1.429 . S
C2372 C2355 1.574 . S
C2372 H2366 0.949 . S
C2372 C2376 1.368 . S
C2373 C2354 1.429 . S
C2373 C2367 1.429 . S
C2373 C2374 1.523 . S
C2374 C2355 1.368 1_655 S
C2374 C2368 1.368 . S
C2374 C2373 1.523 . S
C2375 C2359 1.429 . S
C2375 C2371 1.429 . S
C2375 C2376 1.523 . S
C2376 C2360 1.368 1_455 S
C2376 C2372 1.368 . S
C2376 C2375 1.523 . S
H2377 C2352 0.950 . S
H2378 C2354 0.950 . S
H2379 C2355 0.949 . S
H2380 C2357 0.950 . S
H2381 C2359 0.950 . S
C2382 C2383 1.349 . S
C2382 C2384 1.327 . S
C2382 H2407 0.950 . S
C2383 C2382 1.349 . S
C2383 C2399 1.349 . S
C2384 C2382 1.327 . S
C2384 C2403 1.429 . S
C2384 H2408 0.950 . S
C2385 C2402 1.574 . S
C2385 C2404 1.368 1_565 S
C2385 H2409 0.949 . S
H2386 C2390 0.949 . S
C2387 C2388 1.349 . S
C2387 C2389 1.327 . S
C2387 H2410 0.950 . S
C2388 C2387 1.349 . S
C2388 C2400 1.349 . S
C2389 C2387 1.327 . S
C2389 C2405 1.429 . S
C2389 H2411 0.950 . S
C2390 H2386 0.949 . S
C2390 C2398 1.574 . S
C2390 C2406 1.368 1_545 S
H2391 C2399 0.950 . S
H2392 C2397 0.950 . S
H2393 C2398 0.949 . S
H2394 C2400 0.950 . S
H2395 C2401 0.950 . S
H2396 C2402 0.949 . S
C2397 H2392 0.950 . S
C2397 C2399 1.327 . S
C2397 C2403 1.429 . S
C2398 C2390 1.574 . S
C2398 H2393 0.949 . S
C2398 C2404 1.368 . S
C2399 C2383 1.349 . S
C2399 H2391 0.950 . S
C2399 C2397 1.327 . S
C2400 C2388 1.349 . S
C2400 H2394 0.950 . S
C2400 C2401 1.327 . S
C2401 H2395 0.950 . S
C2401 C2400 1.327 . S
C2401 C2405 1.429 . S
C2402 C2385 1.574 . S
C2402 H2396 0.949 . S
C2402 C2406 1.368 . S
C2403 C2384 1.429 . S
C2403 C2397 1.429 . S
C2403 C2404 1.523 . S
C2404 C2385 1.368 1_545 S
C2404 C2398 1.368 . S
C2404 C2403 1.523 . S
C2405 C2389 1.429 . S
C2405 C2401 1.429 . S
C2405 C2406 1.523 . S
C2406 C2390 1.368 1_565 S
C2406 C2402 1.368 . S
C2406 C2405 1.523 . S
H2407 C2382 0.950 . S
H2408 C2384 0.950 . S
H2409 C2385 0.949 . S
H2410 C2387 0.950 . S
H2411 C2389 0.950 . S
C2412 C2413 1.349 . S
C2412 C2414 1.327 . S
C2412 H2437 0.950 . S
C2413 C2412 1.349 . S
C2413 C2429 1.349 . S
C2414 C2412 1.327 . S
C2414 C2433 1.429 . S
C2414 H2438 0.950 . S
C2415 C2432 1.574 . S
C2415 C2434 1.368 . S
C2415 H2439 0.949 . S
H2416 C2420 0.949 . S
C2417 C2418 1.349 . S
C2417 C2419 1.327 . S
C2417 H2440 0.950 . S
C2418 C2417 1.349 . S
C2418 C2430 1.349 . S
C2419 C2417 1.327 . S
C2419 C2435 1.429 . S
C2419 H2441 0.950 . S
C2420 H2416 0.949 . S
C2420 C2428 1.574 . S
C2420 C2436 1.368 . S
H2421 C2429 0.950 . S
H2422 C2427 0.950 . S
H2423 C2428 0.949 . S
H2424 C2430 0.950 . S
H2425 C2431 0.950 . S
H2426 C2432 0.949 . S
C2427 H2422 0.950 . S
C2427 C2429 1.327 . S
C2427 C2433 1.429 . S
C2428 C2420 1.574 . S
C2428 H2423 0.949 . S
C2428 C2434 1.368 1_455 S
C2429 C2413 1.349 . S
C2429 H2421 0.950 . S
C2429 C2427 1.327 . S
C2430 C2418 1.349 . S
C2430 H2424 0.950 . S
C2430 C2431 1.327 . S
C2431 H2425 0.950 . S
C2431 C2430 1.327 . S
C2431 C2435 1.429 . S
C2432 C2415 1.574 . S
C2432 H2426 0.949 . S
C2432 C2436 1.368 1_655 S
C2433 C2414 1.429 . S
C2433 C2427 1.429 . S
C2433 C2434 1.523 . S
C2434 C2415 1.368 . S
C2434 C2428 1.368 1_655 S
C2434 C2433 1.523 . S
C2435 C2419 1.429 . S
C2435 C2431 1.429 . S
C2435 C2436 1.523 . S
C2436 C2420 1.368 . S
C2436 C2432 1.368 1_455 S
C2436 C2435 1.523 . S
H2437 C2412 0.950 . S
H2438 C2414 0.950 . S
H2439 C2415 0.949 . S
H2440 C2417 0.950 . S
H2441 C2419 0.950 . S
C2442 C2443 1.349 . S
C2442 C2444 1.327 . S
C2442 H2467 0.950 . S
C2443 C2442 1.349 . S
C2443 C2459 1.349 . S
C2444 C2442 1.327 . S
C2444 C2463 1.429 . S
C2444 H2468 0.950 . S
C2445 C2462 1.574 . S
C2445 C2464 1.368 1_545 S
C2445 H2469 0.949 . S
H2446 C2450 0.949 . S
C2447 C2448 1.349 . S
C2447 C2449 1.327 . S
C2447 H2470 0.950 . S
C2448 C2447 1.349 . S
C2448 C2460 1.349 . S
C2449 C2447 1.327 . S
C2449 C2465 1.429 . S
C2449 H2471 0.950 . S
C2450 H2446 0.949 . S
C2450 C2458 1.574 . S
C2450 C2466 1.368 1_565 S
H2451 C2459 0.950 . S
H2452 C2457 0.950 . S
H2453 C2458 0.949 . S
H2454 C2460 0.950 . S
H2455 C2461 0.950 . S
H2456 C2462 0.949 . S
C2457 H2452 0.950 . S
C2457 C2459 1.327 . S
C2457 C2463 1.429 . S
C2458 C2450 1.574 . S
C2458 H2453 0.949 . S
C2458 C2464 1.368 . S
C2459 C2443 1.349 . S
C2459 H2451 0.950 . S
C2459 C2457 1.327 . S
C2460 C2448 1.349 . S
C2460 H2454 0.950 . S
C2460 C2461 1.327 . S
C2461 H2455 0.950 . S
C2461 C2460 1.327 . S
C2461 C2465 1.429 . S
C2462 C2445 1.574 . S
C2462 H2456 0.949 . S
C2462 C2466 1.368 . S
C2463 C2444 1.429 . S
C2463 C2457 1.429 . S
C2463 C2464 1.523 . S
C2464 C2445 1.368 1_565 S
C2464 C2458 1.368 . S
C2464 C2463 1.523 . S
C2465 C2449 1.429 . S
C2465 C2461 1.429 . S
C2465 C2466 1.523 . S
C2466 C2450 1.368 1_545 S
C2466 C2462 1.368 . S
C2466 C2465 1.523 . S
H2467 C2442 0.950 . S
H2468 C2444 0.950 . S
H2469 C2445 0.949 . S
H2470 C2447 0.950 . S
H2471 C2449 0.950 . S
C2472 C2473 1.349 . S
C2472 C2474 1.327 . S
C2472 H2497 0.950 . S
C2473 C2472 1.349 . S
C2473 C2489 1.349 . S
C2474 C2472 1.327 . S
C2474 C2493 1.429 . S
C2474 H2498 0.950 . S
C2475 C2492 1.574 . S
C2475 C2494 1.368 1_565 S
C2475 H2499 0.949 . S
H2476 C2480 0.949 . S
C2477 C2478 1.349 . S
C2477 C2479 1.327 . S
C2477 H2500 0.950 . S
C2478 C2477 1.349 . S
C2478 C2490 1.349 . S
C2479 C2477 1.327 . S
C2479 C2495 1.429 . S
C2479 H2501 0.950 . S
C2480 H2476 0.949 . S
C2480 C2488 1.574 . S
C2480 C2496 1.368 1_545 S
H2481 C2489 0.950 . S
H2482 C2487 0.950 . S
H2483 C2488 0.949 . S
H2484 C2490 0.950 . S
H2485 C2491 0.950 . S
H2486 C2492 0.949 . S
C2487 H2482 0.950 . S
C2487 C2489 1.327 . S
C2487 C2493 1.429 . S
C2488 C2480 1.574 . S
C2488 H2483 0.949 . S
C2488 C2494 1.368 . S
C2489 C2473 1.349 . S
C2489 H2481 0.950 . S
C2489 C2487 1.327 . S
C2490 C2478 1.349 . S
C2490 H2484 0.950 . S
C2490 C2491 1.327 . S
C2491 H2485 0.950 . S
C2491 C2490 1.327 . S
C2491 C2495 1.429 . S
C2492 C2475 1.574 . S
C2492 H2486 0.949 . S
C2492 C2496 1.368 . S
C2493 C2474 1.429 . S
C2493 C2487 1.429 . S
C2493 C2494 1.523 . S
C2494 C2475 1.368 1_545 S
C2494 C2488 1.368 . S
C2494 C2493 1.523 . S
C2495 C2479 1.429 . S
C2495 C2491 1.429 . S
C2495 C2496 1.523 . S
C2496 C2480 1.368 1_565 S
C2496 C2492 1.368 . S
C2496 C2495 1.523 . S
H2497 C2472 0.950 . S
H2498 C2474 0.950 . S
H2499 C2475 0.949 . S
H2500 C2477 0.950 . S
H2501 C2479 0.950 . S
C2502 C2503 1.349 . S
C2502 C2504 1.327 . S
C2502 H2527 0.950 . S
C2503 C2502 1.349 . S
C2503 C2519 1.349 . S
C2504 C2502 1.327 . S
C2504 C2523 1.429 . S
C2504 H2528 0.950 . S
C2505 C2522 1.574 . S
C2505 C2524 1.368 . S
C2505 H2529 0.949 . S
H2506 C2510 0.949 . S
C2507 C2508 1.349 . S
C2507 C2509 1.327 . S
C2507 H2530 0.950 . S
C2508 C2507 1.349 . S
C2508 C2520 1.349 . S
C2509 C2507 1.327 . S
C2509 C2525 1.429 . S
C2509 H2531 0.950 . S
C2510 H2506 0.949 . S
C2510 C2518 1.574 . S
C2510 C2526 1.368 . S
H2511 C2519 0.950 . S
H2512 C2517 0.950 . S
H2513 C2518 0.949 . S
H2514 C2520 0.950 . S
H2515 C2521 0.950 . S
H2516 C2522 0.949 . S
C2517 H2512 0.950 . S
C2517 C2519 1.327 . S
C2517 C2523 1.429 . S
C2518 C2510 1.574 . S
C2518 H2513 0.949 . S
C2518 C2524 1.368 1_655 S
C2519 C2503 1.349 . S
C2519 H2511 0.950 . S
C2519 C2517 1.327 . S
C2520 C2508 1.349 . S
C2520 H2514 0.950 . S
C2520 C2521 1.327 . S
C2521 H2515 0.950 . S
C2521 C2520 1.327 . S
C2521 C2525 1.429 . S
C2522 C2505 1.574 . S
C2522 H2516 0.949 . S
C2522 C2526 1.368 1_455 S
C2523 C2504 1.429 . S
C2523 C2517 1.429 . S
C2523 C2524 1.523 . S
C2524 C2505 1.368 . S
C2524 C2518 1.368 1_455 S
C2524 C2523 1.523 . S
C2525 C2509 1.429 . S
C2525 C2521 1.429 . S
C2525 C2526 1.523 . S
C2526 C2510 1.368 . S
C2526 C2522 1.368 1_655 S
C2526 C2525 1.523 . S
H2527 C2502 0.950 . S
H2528 C2504 0.950 . S
H2529 C2505 0.949 . S
H2530 C2507 0.950 . S
H2531 C2509 0.950 . S
C2532 C2533 1.349 . S
C2532 C2534 1.327 . S
C2532 H2557 0.950 . S
C2533 C2532 1.349 . S
C2533 C2549 1.349 . S
C2534 C2532 1.327 . S
C2534 C2553 1.429 . S
C2534 H2558 0.950 . S
C2535 C2552 1.574 1_545 S
C2535 C2554 1.368 . S
C2535 H2559 0.949 . S
H2536 C2540 0.949 . S
C2537 C2538 1.349 . S
C2537 C2539 1.327 . S
C2537 H2560 0.950 . S
C2538 C2537 1.349 . S
C2538 C2550 1.349 . S
C2539 C2537 1.327 . S
C2539 C2555 1.429 . S
C2539 H2561 0.950 . S
C2540 H2536 0.949 . S
C2540 C2548 1.574 1_565 S
C2540 C2556 1.368 . S
H2541 C2549 0.950 . S
H2542 C2547 0.950 . S
H2543 C2548 0.949 . S
H2544 C2550 0.950 . S
H2545 C2551 0.950 . S
H2546 C2552 0.949 . S
C2547 H2542 0.950 . S
C2547 C2549 1.327 . S
C2547 C2553 1.429 . S
C2548 C2540 1.574 1_545 S
C2548 H2543 0.949 . S
C2548 C2554 1.368 . S
C2549 C2533 1.349 . S
C2549 H2541 0.950 . S
C2549 C2547 1.327 . S
C2550 C2538 1.349 . S
C2550 H2544 0.950 . S
C2550 C2551 1.327 . S
C2551 H2545 0.950 . S
C2551 C2550 1.327 . S
C2551 C2555 1.429 . S
C2552 C2535 1.574 1_565 S
C2552 H2546 0.949 . S
C2552 C2556 1.368 . S
C2553 C2534 1.429 . S
C2553 C2547 1.429 . S
C2553 C2554 1.523 . S
C2554 C2535 1.368 . S
C2554 C2548 1.368 . S
C2554 C2553 1.523 . S
C2555 C2539 1.429 . S
C2555 C2551 1.429 . S
C2555 C2556 1.523 . S
C2556 C2540 1.368 . S
C2556 C2552 1.368 . S
C2556 C2555 1.523 . S
H2557 C2532 0.950 . S
H2558 C2534 0.950 . S
H2559 C2535 0.949 . S
H2560 C2537 0.950 . S
H2561 C2539 0.950 . S
C2562 C2563 1.349 . S
C2562 C2564 1.327 . S
C2562 H2587 0.950 . S
C2563 C2562 1.349 . S
C2563 C2579 1.349 . S
C2564 C2562 1.327 . S
C2564 C2583 1.429 . S
C2564 H2588 0.950 . S
C2565 C2582 1.574 . S
C2565 C2584 1.368 1_455 S
C2565 H2589 0.949 . S
H2566 C2570 0.949 . S
C2567 C2568 1.349 . S
C2567 C2569 1.327 . S
C2567 H2590 0.950 . S
C2568 C2567 1.349 . S
C2568 C2580 1.349 . S
C2569 C2567 1.327 . S
C2569 C2585 1.429 . S
C2569 H2591 0.950 . S
C2570 H2566 0.949 . S
C2570 C2578 1.574 . S
C2570 C2586 1.368 1_655 S
H2571 C2579 0.950 . S
H2572 C2577 0.950 . S
H2573 C2578 0.949 . S
H2574 C2580 0.950 . S
H2575 C2581 0.950 . S
H2576 C2582 0.949 . S
C2577 H2572 0.950 . S
C2577 C2579 1.327 . S
C2577 C2583 1.429 . S
C2578 C2570 1.574 . S
C2578 H2573 0.949 . S
C2578 C2584 1.368 . S
C2579 C2563 1.349 . S
C2579 H2571 0.950 . S
C2579 C2577 1.327 . S
C2580 C2568 1.349 . S
C2580 H2574 0.950 . S
C2580 C2581 1.327 . S
C2581 H2575 0.950 . S
C2581 C2580 1.327 . S
C2581 C2585 1.429 . S
C2582 C2565 1.574 . S
C2582 H2576 0.949 . S
C2582 C2586 1.368 . S
C2583 C2564 1.429 . S
C2583 C2577 1.429 . S
C2583 C2584 1.523 . S
C2584 C2565 1.368 1_655 S
C2584 C2578 1.368 . S
C2584 C2583 1.523 . S
C2585 C2569 1.429 . S
C2585 C2581 1.429 . S
C2585 C2586 1.523 . S
C2586 C2570 1.368 1_455 S
C2586 C2582 1.368 . S
C2586 C2585 1.523 . S
H2587 C2562 0.950 . S
H2588 C2564 0.950 . S
H2589 C2565 0.949 . S
H2590 C2567 0.950 . S
H2591 C2569 0.950 . S
C2592 C2593 1.349 . S
C2592 C2594 1.327 . S
C2592 H2617 0.950 . S
C2593 C2592 1.349 . S
C2593 C2609 1.349 . S
C2594 C2592 1.327 . S
C2594 C2613 1.429 . S
C2594 H2618 0.950 . S
C2595 C2612 1.574 . S
C2595 C2614 1.368 . S
C2595 H2619 0.949 . S
H2596 C2600 0.949 . S
C2597 C2598 1.349 . S
C2597 C2599 1.327 . S
C2597 H2620 0.950 . S
C2598 C2597 1.349 . S
C2598 C2610 1.349 . S
C2599 C2597 1.327 . S
C2599 C2615 1.429 . S
C2599 H2621 0.950 . S
C2600 H2596 0.949 . S
C2600 C2608 1.574 . S
C2600 C2616 1.368 . S
H2601 C2609 0.950 . S
H2602 C2607 0.950 . S
H2603 C2608 0.949 . S
H2604 C2610 0.950 . S
H2605 C2611 0.950 . S
H2606 C2612 0.949 . S
C2607 H2602 0.950 . S
C2607 C2609 1.327 . S
C2607 C2613 1.429 . S
C2608 C2600 1.574 . S
C2608 H2603 0.949 . S
C2608 C2614 1.368 1_554 S
C2609 C2593 1.349 . S
C2609 H2601 0.950 . S
C2609 C2607 1.327 . S
C2610 C2598 1.349 . S
C2610 H2604 0.950 . S
C2610 C2611 1.327 . S
C2611 H2605 0.950 . S
C2611 C2610 1.327 . S
C2611 C2615 1.429 . S
C2612 C2595 1.574 . S
C2612 H2606 0.949 . S
C2612 C2616 1.368 1_556 S
C2613 C2594 1.429 . S
C2613 C2607 1.429 . S
C2613 C2614 1.523 . S
C2614 C2595 1.368 . S
C2614 C2608 1.368 1_556 S
C2614 C2613 1.523 . S
C2615 C2599 1.429 . S
C2615 C2611 1.429 . S
C2615 C2616 1.523 . S
C2616 C2600 1.368 . S
C2616 C2612 1.368 1_554 S
C2616 C2615 1.523 . S
H2617 C2592 0.950 . S
H2618 C2594 0.950 . S
H2619 C2595 0.949 . S
H2620 C2597 0.950 . S
H2621 C2599 0.950 . S
C2622 C2623 1.349 . S
C2622 C2624 1.327 . S
C2622 H2647 0.950 . S
C2623 C2622 1.349 . S
C2623 C2639 1.349 . S
C2624 C2622 1.327 . S
C2624 C2643 1.429 . S
C2624 H2648 0.950 . S
C2625 C2642 1.574 . S
C2625 C2644 1.368 . S
C2625 H2649 0.949 . S
H2626 C2630 0.949 . S
C2627 C2628 1.349 . S
C2627 C2629 1.327 . S
C2627 H2650 0.950 . S
C2628 C2627 1.349 . S
C2628 C2640 1.349 . S
C2629 C2627 1.327 . S
C2629 C2645 1.429 . S
C2629 H2651 0.950 . S
C2630 H2626 0.949 . S
C2630 C2638 1.574 . S
C2630 C2646 1.368 . S
H2631 C2639 0.950 . S
H2632 C2637 0.950 . S
H2633 C2638 0.949 . S
H2634 C2640 0.950 . S
H2635 C2641 0.950 . S
H2636 C2642 0.949 . S
C2637 H2632 0.950 . S
C2637 C2639 1.327 . S
C2637 C2643 1.429 . S
C2638 C2630 1.574 . S
C2638 H2633 0.949 . S
C2638 C2644 1.368 1_554 S
C2639 C2623 1.349 . S
C2639 H2631 0.950 . S
C2639 C2637 1.327 . S
C2640 C2628 1.349 . S
C2640 H2634 0.950 . S
C2640 C2641 1.327 . S
C2641 H2635 0.950 . S
C2641 C2640 1.327 . S
C2641 C2645 1.429 . S
C2642 C2625 1.574 . S
C2642 H2636 0.949 . S
C2642 C2646 1.368 1_556 S
C2643 C2624 1.429 . S
C2643 C2637 1.429 . S
C2643 C2644 1.523 . S
C2644 C2625 1.368 . S
C2644 C2638 1.368 1_556 S
C2644 C2643 1.523 . S
C2645 C2629 1.429 . S
C2645 C2641 1.429 . S
C2645 C2646 1.523 . S
C2646 C2630 1.368 . S
C2646 C2642 1.368 1_554 S
C2646 C2645 1.523 . S
H2647 C2622 0.950 . S
H2648 C2624 0.950 . S
H2649 C2625 0.949 . S
H2650 C2627 0.950 . S
H2651 C2629 0.950 . S
C2652 C2653 1.349 . S
C2652 C2654 1.327 . S
C2652 H2677 0.950 . S
C2653 C2652 1.349 . S
C2653 C2669 1.349 . S
C2654 C2652 1.327 . S
C2654 C2673 1.429 . S
C2654 H2678 0.950 . S
C2655 C2672 1.574 . S
C2655 C2674 1.368 1_554 S
C2655 H2679 0.949 . S
H2656 C2660 0.949 . S
C2657 C2658 1.349 . S
C2657 C2659 1.327 . S
C2657 H2680 0.950 . S
C2658 C2657 1.349 . S
C2658 C2670 1.349 . S
C2659 C2657 1.327 . S
C2659 C2675 1.429 . S
C2659 H2681 0.950 . S
C2660 H2656 0.949 . S
C2660 C2668 1.574 . S
C2660 C2676 1.368 1_556 S
H2661 C2669 0.950 . S
H2662 C2667 0.950 . S
H2663 C2668 0.949 . S
H2664 C2670 0.950 . S
H2665 C2671 0.950 . S
H2666 C2672 0.949 . S
C2667 H2662 0.950 . S
C2667 C2669 1.327 . S
C2667 C2673 1.429 . S
C2668 C2660 1.574 . S
C2668 H2663 0.949 . S
C2668 C2674 1.368 . S
C2669 C2653 1.349 . S
C2669 H2661 0.950 . S
C2669 C2667 1.327 . S
C2670 C2658 1.349 . S
C2670 H2664 0.950 . S
C2670 C2671 1.327 . S
C2671 H2665 0.950 . S
C2671 C2670 1.327 . S
C2671 C2675 1.429 . S
C2672 C2655 1.574 . S
C2672 H2666 0.949 . S
C2672 C2676 1.368 . S
C2673 C2654 1.429 . S
C2673 C2667 1.429 . S
C2673 C2674 1.523 . S
C2674 C2655 1.368 1_556 S
C2674 C2668 1.368 . S
C2674 C2673 1.523 . S
C2675 C2659 1.429 . S
C2675 C2671 1.429 . S
C2675 C2676 1.523 . S
C2676 C2660 1.368 1_554 S
C2676 C2672 1.368 . S
C2676 C2675 1.523 . S
H2677 C2652 0.950 . S
H2678 C2654 0.950 . S
H2679 C2655 0.949 . S
H2680 C2657 0.950 . S
H2681 C2659 0.950 . S
C2682 C2683 1.349 . S
C2682 C2684 1.327 . S
C2682 H2707 0.950 . S
C2683 C2682 1.349 . S
C2683 C2699 1.349 . S
C2684 C2682 1.327 . S
C2684 C2703 1.429 . S
C2684 H2708 0.921 1_556 S
C2685 C2702 1.574 . S
C2685 C2704 1.368 . S
C2685 H2709 0.949 . S
H2686 C2690 0.949 . S
C2687 C2688 1.349 . S
C2687 C2689 1.327 . S
C2687 H2710 0.950 . S
C2688 C2687 1.349 . S
C2688 C2700 1.349 . S
C2689 C2687 1.327 . S
C2689 C2705 1.429 . S
C2689 H2711 0.921 1_554 S
C2690 H2686 0.949 . S
C2690 C2698 1.574 . S
C2690 C2706 1.368 . S
H2691 C2699 0.950 . S
H2692 C2697 0.950 . S
H2693 C2698 0.949 . S
H2694 C2700 0.950 . S
H2695 C2701 0.950 . S
H2696 C2702 0.949 . S
C2697 H2692 0.950 . S
C2697 C2699 1.327 . S
C2697 C2703 1.429 . S
C2698 C2690 1.574 . S
C2698 H2693 0.949 . S
C2698 C2704 1.368 1_554 S
C2699 C2683 1.349 . S
C2699 H2691 0.950 . S
C2699 C2697 1.327 . S
C2700 C2688 1.349 . S
C2700 H2694 0.950 . S
C2700 C2701 1.327 . S
C2701 H2695 0.950 . S
C2701 C2700 1.327 . S
C2701 C2705 1.429 . S
C2702 C2685 1.574 . S
C2702 H2696 0.949 . S
C2702 C2706 1.368 1_556 S
C2703 C2684 1.429 . S
C2703 C2697 1.429 . S
C2703 C2704 1.523 . S
C2704 C2685 1.368 . S
C2704 C2698 1.368 1_556 S
C2704 C2703 1.523 . S
C2705 C2689 1.429 . S
C2705 C2701 1.429 . S
C2705 C2706 1.523 . S
C2706 C2690 1.368 . S
C2706 C2702 1.368 1_554 S
C2706 C2705 1.523 . S
H2707 C2682 0.950 . S
H2708 C2684 0.921 1_554 S
H2709 C2685 0.949 . S
H2710 C2687 0.950 . S
H2711 C2689 0.921 1_556 S
C2712 C2713 1.349 . S
C2712 C2714 1.327 . S
C2712 H2737 0.950 . S
C2713 C2712 1.349 . S
C2713 C2729 1.349 . S
C2714 C2712 1.327 . S
C2714 C2733 1.429 . S
C2714 H2738 0.950 . S
C2715 C2732 1.574 1_545 S
C2715 C2734 1.368 . S
C2715 H2739 0.949 . S
H2716 C2720 0.949 . S
C2717 C2718 1.349 . S
C2717 C2719 1.327 . S
C2717 H2740 0.950 . S
C2718 C2717 1.349 . S
C2718 C2730 1.349 . S
C2719 C2717 1.327 . S
C2719 C2735 1.429 . S
C2719 H2741 0.950 . S
C2720 H2716 0.949 . S
C2720 C2728 1.574 1_565 S
C2720 C2736 1.368 . S
H2721 C2729 0.950 . S
H2722 C2727 0.950 . S
H2723 C2728 0.949 . S
H2724 C2730 0.950 . S
H2725 C2731 0.950 . S
H2726 C2732 0.949 . S
C2727 H2722 0.950 . S
C2727 C2729 1.327 . S
C2727 C2733 1.429 . S
C2728 C2720 1.574 1_545 S
C2728 H2723 0.949 . S
C2728 C2734 1.368 . S
C2729 C2713 1.349 . S
C2729 H2721 0.950 . S
C2729 C2727 1.327 . S
C2730 C2718 1.349 . S
C2730 H2724 0.950 . S
C2730 C2731 1.327 . S
C2731 H2725 0.950 . S
C2731 C2730 1.327 . S
C2731 C2735 1.429 . S
C2732 C2715 1.574 1_565 S
C2732 H2726 0.949 . S
C2732 C2736 1.368 . S
C2733 C2714 1.429 . S
C2733 C2727 1.429 . S
C2733 C2734 1.523 . S
C2734 C2715 1.368 . S
C2734 C2728 1.368 . S
C2734 C2733 1.523 . S
C2735 C2719 1.429 . S
C2735 C2731 1.429 . S
C2735 C2736 1.523 . S
C2736 C2720 1.368 . S
C2736 C2732 1.368 . S
C2736 C2735 1.523 . S
H2737 C2712 0.950 . S
H2738 C2714 0.950 . S
H2739 C2715 0.949 . S
H2740 C2717 0.950 . S
H2741 C2719 0.950 . S
C2742 C2743 1.349 . S
C2742 C2744 1.327 . S
C2742 H2767 0.950 . S
C2743 C2742 1.349 . S
C2743 C2759 1.349 . S
C2744 C2742 1.327 . S
C2744 C2763 1.429 . S
C2744 H2768 0.950 . S
C2745 C2762 1.574 1_655 S
C2745 C2764 1.368 . S
C2745 H2769 0.949 . S
H2746 C2750 0.949 . S
C2747 C2748 1.349 . S
C2747 C2749 1.327 . S
C2747 H2770 0.950 . S
C2748 C2747 1.349 . S
C2748 C2760 1.349 . S
C2749 C2747 1.327 . S
C2749 C2765 1.429 . S
C2749 H2771 0.950 . S
C2750 H2746 0.949 . S
C2750 C2758 1.574 1_455 S
C2750 C2766 1.368 . S
H2751 C2759 0.950 . S
H2752 C2757 0.950 . S
H2753 C2758 0.949 . S
H2754 C2760 0.950 . S
H2755 C2761 0.950 . S
H2756 C2762 0.949 . S
C2757 H2752 0.950 . S
C2757 C2759 1.327 . S
C2757 C2763 1.429 . S
C2758 C2750 1.574 1_655 S
C2758 H2753 0.949 . S
C2758 C2764 1.368 . S
C2759 C2743 1.349 . S
C2759 H2751 0.950 . S
C2759 C2757 1.327 . S
C2760 C2748 1.349 . S
C2760 H2754 0.950 . S
C2760 C2761 1.327 . S
C2761 H2755 0.950 . S
C2761 C2760 1.327 . S
C2761 C2765 1.429 . S
C2762 C2745 1.574 1_455 S
C2762 H2756 0.949 . S
C2762 C2766 1.368 . S
C2763 C2744 1.429 . S
C2763 C2757 1.429 . S
C2763 C2764 1.523 . S
C2764 C2745 1.368 . S
C2764 C2758 1.368 . S
C2764 C2763 1.523 . S
C2765 C2749 1.429 . S
C2765 C2761 1.429 . S
C2765 C2766 1.523 . S
C2766 C2750 1.368 . S
C2766 C2762 1.368 . S
C2766 C2765 1.523 . S
H2767 C2742 0.950 . S
H2768 C2744 0.950 . S
H2769 C2745 0.949 . S
H2770 C2747 0.950 . S
H2771 C2749 0.950 . S
C2772 C2773 1.349 . S
C2772 C2774 1.327 . S
C2772 H2797 0.950 . S
C2773 C2772 1.349 . S
C2773 C2789 1.349 . S
C2774 C2772 1.327 . S
C2774 C2793 1.429 . S
C2774 H2798 0.950 . S
C2775 C2792 1.574 1_565 S
C2775 C2794 1.368 . S
C2775 H2799 0.949 . S
H2776 C2780 0.949 . S
C2777 C2778 1.349 . S
C2777 C2779 1.327 . S
C2777 H2800 0.950 . S
C2778 C2777 1.349 . S
C2778 C2790 1.349 . S
C2779 C2777 1.327 . S
C2779 C2795 1.429 . S
C2779 H2801 0.950 . S
C2780 H2776 0.949 . S
C2780 C2788 1.574 1_545 S
C2780 C2796 1.368 . S
H2781 C2789 0.950 . S
H2782 C2787 0.950 . S
H2783 C2788 0.949 . S
H2784 C2790 0.950 . S
H2785 C2791 0.950 . S
H2786 C2792 0.949 . S
C2787 H2782 0.950 . S
C2787 C2789 1.327 . S
C2787 C2793 1.429 . S
C2788 C2780 1.574 1_565 S
C2788 H2783 0.949 . S
C2788 C2794 1.368 . S
C2789 C2773 1.349 . S
C2789 H2781 0.950 . S
C2789 C2787 1.327 . S
C2790 C2778 1.349 . S
C2790 H2784 0.950 . S
C2790 C2791 1.327 . S
C2791 H2785 0.950 . S
C2791 C2790 1.327 . S
C2791 C2795 1.429 . S
C2792 C2775 1.574 1_545 S
C2792 H2786 0.949 . S
C2792 C2796 1.368 . S
C2793 C2774 1.429 . S
C2793 C2787 1.429 . S
C2793 C2794 1.523 . S
C2794 C2775 1.368 . S
C2794 C2788 1.368 . S
C2794 C2793 1.523 . S
C2795 C2779 1.429 . S
C2795 C2791 1.429 . S
C2795 C2796 1.523 . S
C2796 C2780 1.368 . S
C2796 C2792 1.368 . S
C2796 C2795 1.523 . S
H2797 C2772 0.950 . S
H2798 C2774 0.950 . S
H2799 C2775 0.949 . S
H2800 C2777 0.950 . S
H2801 C2779 0.950 . S
C2802 C2803 1.349 . S
C2802 C2804 1.327 . S
C2802 H2827 0.950 . S
C2803 C2802 1.349 . S
C2803 C2819 1.349 . S
C2804 C2802 1.327 . S
C2804 C2823 1.429 . S
C2804 H2828 0.950 . S
C2805 C2822 1.574 1_455 S
C2805 C2824 1.368 . S
C2805 H2829 0.949 . S
H2806 C2810 0.949 . S
C2807 C2808 1.349 . S
C2807 C2809 1.327 . S
C2807 H2830 0.950 . S
C2808 C2807 1.349 . S
C2808 C2820 1.349 . S
C2809 C2807 1.327 . S
C2809 C2825 1.429 . S
C2809 H2831 0.950 . S
C2810 H2806 0.949 . S
C2810 C2818 1.574 1_655 S
C2810 C2826 1.368 . S
H2811 C2819 0.950 . S
H2812 C2817 0.950 . S
H2813 C2818 0.949 . S
H2814 C2820 0.950 . S
H2815 C2821 0.950 . S
H2816 C2822 0.949 . S
C2817 H2812 0.950 . S
C2817 C2819 1.327 . S
C2817 C2823 1.429 . S
C2818 C2810 1.574 1_455 S
C2818 H2813 0.949 . S
C2818 C2824 1.368 . S
C2819 C2803 1.349 . S
C2819 H2811 0.950 . S
C2819 C2817 1.327 . S
C2820 C2808 1.349 . S
C2820 H2814 0.950 . S
C2820 C2821 1.327 . S
C2821 H2815 0.950 . S
C2821 C2820 1.327 . S
C2821 C2825 1.429 . S
C2822 C2805 1.574 1_655 S
C2822 H2816 0.949 . S
C2822 C2826 1.368 . S
C2823 C2804 1.429 . S
C2823 C2817 1.429 . S
C2823 C2824 1.523 . S
C2824 C2805 1.368 . S
C2824 C2818 1.368 . S
C2824 C2823 1.523 . S
C2825 C2809 1.429 . S
C2825 C2821 1.429 . S
C2825 C2826 1.523 . S
C2826 C2810 1.368 . S
C2826 C2822 1.368 . S
C2826 C2825 1.523 . S
H2827 C2802 0.950 . S
H2828 C2804 0.950 . S
H2829 C2805 0.949 . S
H2830 C2807 0.950 . S
H2831 C2809 0.950 . S
C2832 C2833 1.349 . S
C2832 C2834 1.327 . S
C2832 H2857 0.950 . S
C2833 C2832 1.349 . S
C2833 C2849 1.349 . S
C2834 C2832 1.327 . S
C2834 C2853 1.429 . S
C2834 H2858 0.950 . S
C2835 C2852 1.574 1_556 S
C2835 C2854 1.368 . S
C2835 H2859 0.949 . S
H2836 C2840 0.949 . S
C2837 C2838 1.349 . S
C2837 C2839 1.327 . S
C2837 H2860 0.950 . S
C2838 C2837 1.349 . S
C2838 C2850 1.349 . S
C2839 C2837 1.327 . S
C2839 C2855 1.429 . S
C2839 H2861 0.950 . S
C2840 H2836 0.949 . S
C2840 C2848 1.574 1_554 S
C2840 C2856 1.368 . S
H2841 C2849 0.950 . S
H2842 C2847 0.950 . S
H2843 C2848 0.949 . S
H2844 C2850 0.950 . S
H2845 C2851 0.950 . S
H2846 C2852 0.949 . S
C2847 H2842 0.950 . S
C2847 C2849 1.327 . S
C2847 C2853 1.429 . S
C2848 C2840 1.574 1_556 S
C2848 H2843 0.949 . S
C2848 C2854 1.368 . S
C2849 C2833 1.349 . S
C2849 H2841 0.950 . S
C2849 C2847 1.327 . S
C2850 C2838 1.349 . S
C2850 H2844 0.950 . S
C2850 C2851 1.327 . S
C2851 H2845 0.950 . S
C2851 C2850 1.327 . S
C2851 C2855 1.429 . S
C2852 C2835 1.574 1_554 S
C2852 H2846 0.949 . S
C2852 C2856 1.368 . S
C2853 C2834 1.429 . S
C2853 C2847 1.429 . S
C2853 C2854 1.523 . S
C2854 C2835 1.368 . S
C2854 C2848 1.368 . S
C2854 C2853 1.523 . S
C2855 C2839 1.429 . S
C2855 C2851 1.429 . S
C2855 C2856 1.523 . S
C2856 C2840 1.368 . S
C2856 C2852 1.368 . S
C2856 C2855 1.523 . S
H2857 C2832 0.950 . S
H2858 C2834 0.950 . S
H2859 C2835 0.949 . S
H2860 C2837 0.950 . S
H2861 C2839 0.950 . S
C2862 C2863 1.349 . S
C2862 C2864 1.327 . S
C2862 H2887 0.950 . S
C2863 C2862 1.349 . S
C2863 C2879 1.349 . S
C2864 C2862 1.327 . S
C2864 C2883 1.429 . S
C2864 H2888 0.950 . S
C2865 C2882 1.574 1_556 S
C2865 C2884 1.368 . S
C2865 H2889 0.949 . S
H2866 C2870 0.949 . S
C2867 C2868 1.349 . S
C2867 C2869 1.327 . S
C2867 H2890 0.950 . S
C2868 C2867 1.349 . S
C2868 C2880 1.349 . S
C2869 C2867 1.327 . S
C2869 C2885 1.429 . S
C2869 H2891 0.950 . S
C2870 H2866 0.949 . S
C2870 C2878 1.574 1_554 S
C2870 C2886 1.368 . S
H2871 C2879 0.950 . S
H2872 C2877 0.950 . S
H2873 C2878 0.949 . S
H2874 C2880 0.950 . S
H2875 C2881 0.950 . S
H2876 C2882 0.949 . S
C2877 H2872 0.950 . S
C2877 C2879 1.327 . S
C2877 C2883 1.429 . S
C2878 C2870 1.574 1_556 S
C2878 H2873 0.949 . S
C2878 C2884 1.368 . S
C2879 C2863 1.349 . S
C2879 H2871 0.950 . S
C2879 C2877 1.327 . S
C2880 C2868 1.349 . S
C2880 H2874 0.950 . S
C2880 C2881 1.327 . S
C2881 H2875 0.950 . S
C2881 C2880 1.327 . S
C2881 C2885 1.429 . S
C2882 C2865 1.574 1_554 S
C2882 H2876 0.949 . S
C2882 C2886 1.368 . S
C2883 C2864 1.429 . S
C2883 C2877 1.429 . S
C2883 C2884 1.523 . S
C2884 C2865 1.368 . S
C2884 C2878 1.368 . S
C2884 C2883 1.523 . S
C2885 C2869 1.429 . S
C2885 C2881 1.429 . S
C2885 C2886 1.523 . S
C2886 C2870 1.368 . S
C2886 C2882 1.368 . S
C2886 C2885 1.523 . S
H2887 C2862 0.950 . S
H2888 C2864 0.950 . S
H2889 C2865 0.949 . S
H2890 C2867 0.950 . S
H2891 C2869 0.950 . S
C2892 C2893 1.349 . S
C2892 C2894 1.327 . S
C2892 H2917 0.950 . S
C2893 C2892 1.349 . S
C2893 C2909 1.349 . S
C2894 C2892 1.327 . S
C2894 C2913 1.429 . S
C2894 H2918 0.950 . S
C2895 C2912 1.574 1_554 S
C2895 C2914 1.368 . S
C2895 H2919 0.949 . S
H2896 C2900 0.949 . S
C2897 C2898 1.349 . S
C2897 C2899 1.327 . S
C2897 H2920 0.950 . S
C2898 C2897 1.349 . S
C2898 C2910 1.349 . S
C2899 C2897 1.327 . S
C2899 C2915 1.429 . S
C2899 H2921 0.950 . S
C2900 H2896 0.949 . S
C2900 C2908 1.574 1_556 S
C2900 C2916 1.368 . S
H2901 C2909 0.950 . S
H2902 C2907 0.950 . S
H2903 C2908 0.949 . S
H2904 C2910 0.950 . S
H2905 C2911 0.950 . S
H2906 C2912 0.949 . S
C2907 H2902 0.950 . S
C2907 C2909 1.327 . S
C2907 C2913 1.429 . S
C2908 C2900 1.574 1_554 S
C2908 H2903 0.949 . S
C2908 C2914 1.368 . S
C2909 C2893 1.349 . S
C2909 H2901 0.950 . S
C2909 C2907 1.327 . S
C2910 C2898 1.349 . S
C2910 H2904 0.950 . S
C2910 C2911 1.327 . S
C2911 H2905 0.950 . S
C2911 C2910 1.327 . S
C2911 C2915 1.429 . S
C2912 C2895 1.574 1_556 S
C2912 H2906 0.949 . S
C2912 C2916 1.368 . S
C2913 C2894 1.429 . S
C2913 C2907 1.429 . S
C2913 C2914 1.523 . S
C2914 C2895 1.368 . S
C2914 C2908 1.368 . S
C2914 C2913 1.523 . S
C2915 C2899 1.429 . S
C2915 C2911 1.429 . S
C2915 C2916 1.523 . S
C2916 C2900 1.368 . S
C2916 C2912 1.368 . S
C2916 C2915 1.523 . S
H2917 C2892 0.950 . S
H2918 C2894 0.950 . S
H2919 C2895 0.949 . S
H2920 C2897 0.950 . S
H2921 C2899 0.950 . S
C2922 C2923 1.349 . S
C2922 C2924 1.327 . S
C2922 H2947 0.950 . S
C2923 C2922 1.349 . S
C2923 C2939 1.349 . S
C2924 C2922 1.327 . S
C2924 C2943 1.429 . S
C2924 H2948 0.950 . S
C2925 C2942 1.574 1_554 S
C2925 C2944 1.368 . S
C2925 H2949 0.949 . S
H2926 C2930 0.949 . S
C2927 C2928 1.349 . S
C2927 C2929 1.327 . S
C2927 H2950 0.950 . S
C2928 C2927 1.349 . S
C2928 C2940 1.349 . S
C2929 C2927 1.327 . S
C2929 C2945 1.429 . S
C2929 H2951 0.950 . S
C2930 H2926 0.949 . S
C2930 C2938 1.574 1_556 S
C2930 C2946 1.368 . S
H2931 C2939 0.950 . S
H2932 C2937 0.950 . S
H2933 C2938 0.949 . S
H2934 C2940 0.950 . S
H2935 C2941 0.950 . S
H2936 C2942 0.949 . S
C2937 H2932 0.950 . S
C2937 C2939 1.327 . S
C2937 C2943 1.429 . S
C2938 C2930 1.574 1_554 S
C2938 H2933 0.949 . S
C2938 C2944 1.368 . S
C2939 C2923 1.349 . S
C2939 H2931 0.950 . S
C2939 C2937 1.327 . S
C2940 C2928 1.349 . S
C2940 H2934 0.950 . S
C2940 C2941 1.327 . S
C2941 H2935 0.950 . S
C2941 C2940 1.327 . S
C2941 C2945 1.429 . S
C2942 C2925 1.574 1_556 S
C2942 H2936 0.949 . S
C2942 C2946 1.368 . S
C2943 C2924 1.429 . S
C2943 C2937 1.429 . S
C2943 C2944 1.523 . S
C2944 C2925 1.368 . S
C2944 C2938 1.368 . S
C2944 C2943 1.523 . S
C2945 C2929 1.429 . S
C2945 C2941 1.429 . S
C2945 C2946 1.523 . S
C2946 C2930 1.368 . S
C2946 C2942 1.368 . S
C2946 C2945 1.523 . S
H2947 C2922 0.950 . S
H2948 C2924 0.950 . S
H2949 C2925 0.949 . S
H2950 C2927 0.950 . S
H2951 C2929 0.950 . S
C2952 C2953 1.349 . S
C2952 C2954 1.327 . S
C2952 H2977 0.950 . S
C2953 C2952 1.349 . S
C2953 C2969 1.349 . S
C2954 C2952 1.327 . S
C2954 C2973 1.429 . S
C2954 H2978 0.950 . S
C2955 C2972 1.574 1_655 S
C2955 C2974 1.368 . S
C2955 H2979 0.949 . S
H2956 C2960 0.949 . S
C2957 C2958 1.349 . S
C2957 C2959 1.327 . S
C2957 H2980 0.950 . S
C2958 C2957 1.349 . S
C2958 C2970 1.349 . S
C2959 C2957 1.327 . S
C2959 C2975 1.429 . S
C2959 H2981 0.950 . S
C2960 H2956 0.949 . S
C2960 C2968 1.574 1_455 S
C2960 C2976 1.368 . S
H2961 C2969 0.950 . S
H2962 C2967 0.950 . S
H2963 C2968 0.949 . S
H2964 C2970 0.950 . S
H2965 C2971 0.950 . S
H2966 C2972 0.949 . S
C2967 H2962 0.950 . S
C2967 C2969 1.327 . S
C2967 C2973 1.429 . S
C2968 C2960 1.574 1_655 S
C2968 H2963 0.949 . S
C2968 C2974 1.368 . S
C2969 C2953 1.349 . S
C2969 H2961 0.950 . S
C2969 C2967 1.327 . S
C2970 C2958 1.349 . S
C2970 H2964 0.950 . S
C2970 C2971 1.327 . S
C2971 H2965 0.950 . S
C2971 C2970 1.327 . S
C2971 C2975 1.429 . S
C2972 C2955 1.574 1_455 S
C2972 H2966 0.949 . S
C2972 C2976 1.368 . S
C2973 C2954 1.429 . S
C2973 C2967 1.429 . S
C2973 C2974 1.523 . S
C2974 C2955 1.368 . S
C2974 C2968 1.368 . S
C2974 C2973 1.523 . S
C2975 C2959 1.429 . S
C2975 C2971 1.429 . S
C2975 C2976 1.523 . S
C2976 C2960 1.368 . S
C2976 C2972 1.368 . S
C2976 C2975 1.523 . S
H2977 C2952 0.950 . S
H2978 C2954 0.950 . S
H2979 C2955 0.949 . S
H2980 C2957 0.950 . S
H2981 C2959 0.950 . S
C2982 C2983 1.349 . S
C2982 C2984 1.327 . S
C2982 H3007 0.950 . S
C2983 C2982 1.349 . S
C2983 C2999 1.349 . S
C2984 C2982 1.327 . S
C2984 C3003 1.429 . S
C2984 H3008 0.950 . S
C2985 C3002 1.574 1_455 S
C2985 C3004 1.368 . S
C2985 H3009 0.949 . S
H2986 C2990 0.949 . S
C2987 C2988 1.349 . S
C2987 C2989 1.327 . S
C2987 H3010 0.950 . S
C2988 C2987 1.349 . S
C2988 C3000 1.349 . S
C2989 C2987 1.327 . S
C2989 C3005 1.429 . S
C2989 H3011 0.950 . S
C2990 H2986 0.949 . S
C2990 C2998 1.574 1_655 S
C2990 C3006 1.368 . S
H2991 C2999 0.950 . S
H2992 C2997 0.950 . S
H2993 C2998 0.949 . S
H2994 C3000 0.950 . S
H2995 C3001 0.950 . S
H2996 C3002 0.949 . S
C2997 H2992 0.950 . S
C2997 C2999 1.327 . S
C2997 C3003 1.429 . S
C2998 C2990 1.574 1_455 S
C2998 H2993 0.949 . S
C2998 C3004 1.368 . S
C2999 C2983 1.349 . S
C2999 H2991 0.950 . S
C2999 C2997 1.327 . S
C3000 C2988 1.349 . S
C3000 H2994 0.950 . S
C3000 C3001 1.327 . S
C3001 H2995 0.950 . S
C3001 C3000 1.327 . S
C3001 C3005 1.429 . S
C3002 C2985 1.574 1_655 S
C3002 H2996 0.949 . S
C3002 C3006 1.368 . S
C3003 C2984 1.429 . S
C3003 C2997 1.429 . S
C3003 C3004 1.523 . S
C3004 C2985 1.368 . S
C3004 C2998 1.368 . S
C3004 C3003 1.523 . S
C3005 C2989 1.429 . S
C3005 C3001 1.429 . S
C3005 C3006 1.523 . S
C3006 C2990 1.368 . S
C3006 C3002 1.368 . S
C3006 C3005 1.523 . S
H3007 C2982 0.950 . S
H3008 C2984 0.950 . S
H3009 C2985 0.949 . S
H3010 C2987 0.950 . S
H3011 C2989 0.950 . S
C3012 C3013 1.349 . S
C3012 C3014 1.327 . S
C3012 H3037 0.950 . S
C3013 C3012 1.349 . S
C3013 C3029 1.349 . S
C3014 C3012 1.327 . S
C3014 C3033 1.429 . S
C3014 H3038 0.950 . S
C3015 C3032 1.574 1_545 S
C3015 C3034 1.368 . S
C3015 H3039 0.949 . S
H3016 C3020 0.949 . S
C3017 C3018 1.349 . S
C3017 C3019 1.327 . S
C3017 H3040 0.950 . S
C3018 C3017 1.349 . S
C3018 C3030 1.349 . S
C3019 C3017 1.327 . S
C3019 C3035 1.429 . S
C3019 H3041 0.950 . S
C3020 H3016 0.949 . S
C3020 C3028 1.574 1_565 S
C3020 C3036 1.368 . S
H3021 C3029 0.950 . S
H3022 C3027 0.950 . S
H3023 C3028 0.949 . S
H3024 C3030 0.950 . S
H3025 C3031 0.950 . S
H3026 C3032 0.949 . S
C3027 H3022 0.950 . S
C3027 C3029 1.327 . S
C3027 C3033 1.429 . S
C3028 C3020 1.574 1_545 S
C3028 H3023 0.949 . S
C3028 C3034 1.368 . S
C3029 C3013 1.349 . S
C3029 H3021 0.950 . S
C3029 C3027 1.327 . S
C3030 C3018 1.349 . S
C3030 H3024 0.950 . S
C3030 C3031 1.327 . S
C3031 H3025 0.950 . S
C3031 C3030 1.327 . S
C3031 C3035 1.429 . S
C3032 C3015 1.574 1_565 S
C3032 H3026 0.949 . S
C3032 C3036 1.368 . S
C3033 C3014 1.429 . S
C3033 C3027 1.429 . S
C3033 C3034 1.523 . S
C3034 C3015 1.368 . S
C3034 C3028 1.368 . S
C3034 C3033 1.523 . S
C3035 C3019 1.429 . S
C3035 C3031 1.429 . S
C3035 C3036 1.523 . S
C3036 C3020 1.368 . S
C3036 C3032 1.368 . S
C3036 C3035 1.523 . S
H3037 C3012 0.950 . S
H3038 C3014 0.950 . S
H3039 C3015 0.949 . S
H3040 C3017 0.950 . S
H3041 C3019 0.950 . S
C3042 C3043 1.349 . S
C3042 C3044 1.327 . S
C3042 H3067 0.950 . S
C3043 C3042 1.349 . S
C3043 C3059 1.349 . S
C3044 C3042 1.327 . S
C3044 C3063 1.429 . S
C3044 H3068 0.950 . S
C3045 C3062 1.574 1_565 S
C3045 C3064 1.368 . S
C3045 H3069 0.949 . S
H3046 C3050 0.949 . S
C3047 C3048 1.349 . S
C3047 C3049 1.327 . S
C3047 H3070 0.950 . S
C3048 C3047 1.349 . S
C3048 C3060 1.349 . S
C3049 C3047 1.327 . S
C3049 C3065 1.429 . S
C3049 H3071 0.950 . S
C3050 H3046 0.949 . S
C3050 C3058 1.574 1_545 S
C3050 C3066 1.368 . S
H3051 C3059 0.950 . S
H3052 C3057 0.950 . S
H3053 C3058 0.949 . S
H3054 C3060 0.950 . S
H3055 C3061 0.950 . S
H3056 C3062 0.949 . S
C3057 H3052 0.950 . S
C3057 C3059 1.327 . S
C3057 C3063 1.429 . S
C3058 C3050 1.574 1_565 S
C3058 H3053 0.949 . S
C3058 C3064 1.368 . S
C3059 C3043 1.349 . S
C3059 H3051 0.950 . S
C3059 C3057 1.327 . S
C3060 C3048 1.349 . S
C3060 H3054 0.950 . S
C3060 C3061 1.327 . S
C3061 H3055 0.950 . S
C3061 C3060 1.327 . S
C3061 C3065 1.429 . S
C3062 C3045 1.574 1_545 S
C3062 H3056 0.949 . S
C3062 C3066 1.368 . S
C3063 C3044 1.429 . S
C3063 C3057 1.429 . S
C3063 C3064 1.523 . S
C3064 C3045 1.368 . S
C3064 C3058 1.368 . S
C3064 C3063 1.523 . S
C3065 C3049 1.429 . S
C3065 C3061 1.429 . S
C3065 C3066 1.523 . S
C3066 C3050 1.368 . S
C3066 C3062 1.368 . S
C3066 C3065 1.523 . S
H3067 C3042 0.950 . S
H3068 C3044 0.950 . S
H3069 C3045 0.949 . S
H3070 C3047 0.950 . S
H3071 C3049 0.950 . S
C3072 C3073 1.349 . S
C3072 C3074 1.327 . S
C3072 H3097 0.950 . S
C3073 C3072 1.349 . S
C3073 C3089 1.349 . S
C3074 C3072 1.327 . S
C3074 C3093 1.429 . S
C3074 H3098 0.950 . S
C3075 C3092 1.574 . S
C3075 C3094 1.368 . S
C3075 H3099 0.949 . S
H3076 C3080 0.949 . S
C3077 C3078 1.349 . S
C3077 C3079 1.327 . S
C3077 H3100 0.950 . S
C3078 C3077 1.349 . S
C3078 C3090 1.349 . S
C3079 C3077 1.327 . S
C3079 C3095 1.429 . S
C3079 H3101 0.950 . S
C3080 H3076 0.949 . S
C3080 C3088 1.574 . S
C3080 C3096 1.368 . S
H3081 C3089 0.950 . S
H3082 C3087 0.950 . S
H3083 C3088 0.949 . S
H3084 C3090 0.950 . S
H3085 C3091 0.950 . S
H3086 C3092 0.949 . S
C3087 H3082 0.950 . S
C3087 C3089 1.327 . S
C3087 C3093 1.429 . S
C3088 C3080 1.574 . S
C3088 H3083 0.949 . S
C3088 C3094 1.368 . S
C3089 C3073 1.349 . S
C3089 H3081 0.950 . S
C3089 C3087 1.327 . S
C3090 C3078 1.349 . S
C3090 H3084 0.950 . S
C3090 C3091 1.327 . S
C3091 H3085 0.950 . S
C3091 C3090 1.327 . S
C3091 C3095 1.429 . S
C3092 C3075 1.574 . S
C3092 H3086 0.949 . S
C3092 C3096 1.368 . S
C3093 C3074 1.429 . S
C3093 C3087 1.429 . S
C3093 C3094 1.523 . S
C3094 C3075 1.368 . S
C3094 C3088 1.368 . S
C3094 C3093 1.523 . S
C3095 C3079 1.429 . S
C3095 C3091 1.429 . S
C3095 C3096 1.523 . S
C3096 C3080 1.368 . S
C3096 C3092 1.368 . S
C3096 C3095 1.523 . S
H3097 C3072 0.950 . S
H3098 C3074 0.950 . S
H3099 C3075 0.949 . S
H3100 C3077 0.950 . S
H3101 C3079 0.950 . S
C3102 C3103 1.349 . S
C3102 C3104 1.327 . S
C3102 H3127 0.950 . S
C3103 C3102 1.349 . S
C3103 C3119 1.349 . S
C3104 C3102 1.327 . S
C3104 C3123 1.429 . S
C3104 H3128 0.950 . S
C3105 C3122 1.574 . S
C3105 C3124 1.368 . S
C3105 H3129 0.949 . S
H3106 C3110 0.949 . S
C3107 C3108 1.349 . S
C3107 C3109 1.327 . S
C3107 H3130 0.950 . S
C3108 C3107 1.349 . S
C3108 C3120 1.349 . S
C3109 C3107 1.327 . S
C3109 C3125 1.429 . S
C3109 H3131 0.950 . S
C3110 H3106 0.949 . S
C3110 C3118 1.574 . S
C3110 C3126 1.368 . S
H3111 C3119 0.950 . S
H3112 C3117 0.950 . S
H3113 C3118 0.949 . S
H3114 C3120 0.950 . S
H3115 C3121 0.950 . S
H3116 C3122 0.949 . S
C3117 H3112 0.950 . S
C3117 C3119 1.327 . S
C3117 C3123 1.429 . S
C3118 C3110 1.574 . S
C3118 H3113 0.949 . S
C3118 C3124 1.368 . S
C3119 C3103 1.349 . S
C3119 H3111 0.950 . S
C3119 C3117 1.327 . S
C3120 C3108 1.349 . S
C3120 H3114 0.950 . S
C3120 C3121 1.327 . S
C3121 H3115 0.950 . S
C3121 C3120 1.327 . S
C3121 C3125 1.429 . S
C3122 C3105 1.574 . S
C3122 H3116 0.949 . S
C3122 C3126 1.368 . S
C3123 C3104 1.429 . S
C3123 C3117 1.429 . S
C3123 C3124 1.523 . S
C3124 C3105 1.368 . S
C3124 C3118 1.368 . S
C3124 C3123 1.523 . S
C3125 C3109 1.429 . S
C3125 C3121 1.429 . S
C3125 C3126 1.523 . S
C3126 C3110 1.368 . S
C3126 C3122 1.368 . S
C3126 C3125 1.523 . S
H3127 C3102 0.950 . S
H3128 C3104 0.950 . S
H3129 C3105 0.949 . S
H3130 C3107 0.950 . S
H3131 C3109 0.950 . S
C3132 C3133 1.349 . S
C3132 C3134 1.327 . S
C3132 H3157 0.950 . S
C3133 C3132 1.349 . S
C3133 C3149 1.349 . S
C3134 C3132 1.327 . S
C3134 C3153 1.429 . S
C3134 H3158 0.950 . S
C3135 C3152 1.574 . S
C3135 C3154 1.368 . S
C3135 H3159 0.949 . S
H3136 C3140 0.949 . S
C3137 C3138 1.349 . S
C3137 C3139 1.327 . S
C3137 H3160 0.950 . S
C3138 C3137 1.349 . S
C3138 C3150 1.349 . S
C3139 C3137 1.327 . S
C3139 C3155 1.429 . S
C3139 H3161 0.950 . S
C3140 H3136 0.949 . S
C3140 C3148 1.574 . S
C3140 C3156 1.368 . S
H3141 C3149 0.950 . S
H3142 C3147 0.950 . S
H3143 C3148 0.949 . S
H3144 C3150 0.950 . S
H3145 C3151 0.950 . S
H3146 C3152 0.949 . S
C3147 H3142 0.950 . S
C3147 C3149 1.327 . S
C3147 C3153 1.429 . S
C3148 C3140 1.574 . S
C3148 H3143 0.949 . S
C3148 C3154 1.368 . S
C3149 C3133 1.349 . S
C3149 H3141 0.950 . S
C3149 C3147 1.327 . S
C3150 C3138 1.349 . S
C3150 H3144 0.950 . S
C3150 C3151 1.327 . S
C3151 H3145 0.950 . S
C3151 C3150 1.327 . S
C3151 C3155 1.429 . S
C3152 C3135 1.574 . S
C3152 H3146 0.949 . S
C3152 C3156 1.368 . S
C3153 C3134 1.429 . S
C3153 C3147 1.429 . S
C3153 C3154 1.523 . S
C3154 C3135 1.368 . S
C3154 C3148 1.368 . S
C3154 C3153 1.523 . S
C3155 C3139 1.429 . S
C3155 C3151 1.429 . S
C3155 C3156 1.523 . S
C3156 C3140 1.368 . S
C3156 C3152 1.368 . S
C3156 C3155 1.523 . S
H3157 C3132 0.950 . S
H3158 C3134 0.950 . S
H3159 C3135 0.949 . S
H3160 C3137 0.950 . S
H3161 C3139 0.950 . S
C3162 C3163 1.349 . S
C3162 C3164 1.327 . S
C3162 H3187 0.950 . S
C3163 C3162 1.349 . S
C3163 C3179 1.349 . S
C3164 C3162 1.327 . S
C3164 C3183 1.429 . S
C3164 H3188 0.950 . S
C3165 C3182 1.574 . S
C3165 C3184 1.368 . S
C3165 H3189 0.949 . S
H3166 C3170 0.949 . S
C3167 C3168 1.349 . S
C3167 C3169 1.327 . S
C3167 H3190 0.950 . S
C3168 C3167 1.349 . S
C3168 C3180 1.349 . S
C3169 C3167 1.327 . S
C3169 C3185 1.429 . S
C3169 H3191 0.950 . S
C3170 H3166 0.949 . S
C3170 C3178 1.574 . S
C3170 C3186 1.368 . S
H3171 C3179 0.950 . S
H3172 C3177 0.950 . S
H3173 C3178 0.949 . S
H3174 C3180 0.950 . S
H3175 C3181 0.950 . S
H3176 C3182 0.949 . S
C3177 H3172 0.950 . S
C3177 C3179 1.327 . S
C3177 C3183 1.429 . S
C3178 C3170 1.574 . S
C3178 H3173 0.949 . S
C3178 C3184 1.368 . S
C3179 C3163 1.349 . S
C3179 H3171 0.950 . S
C3179 C3177 1.327 . S
C3180 C3168 1.349 . S
C3180 H3174 0.950 . S
C3180 C3181 1.327 . S
C3181 H3175 0.950 . S
C3181 C3180 1.327 . S
C3181 C3185 1.429 . S
C3182 C3165 1.574 . S
C3182 H3176 0.949 . S
C3182 C3186 1.368 . S
C3183 C3164 1.429 . S
C3183 C3177 1.429 . S
C3183 C3184 1.523 . S
C3184 C3165 1.368 . S
C3184 C3178 1.368 . S
C3184 C3183 1.523 . S
C3185 C3169 1.429 . S
C3185 C3181 1.429 . S
C3185 C3186 1.523 . S
C3186 C3170 1.368 . S
C3186 C3182 1.368 . S
C3186 C3185 1.523 . S
H3187 C3162 0.950 . S
H3188 C3164 0.950 . S
H3189 C3165 0.949 . S
H3190 C3167 0.950 . S
H3191 C3169 0.950 . S
C3192 C3193 1.349 . S
C3192 C3194 1.327 . S
C3192 H3217 0.950 . S
C3193 C3192 1.349 . S
C3193 C3209 1.349 . S
C3194 C3192 1.327 . S
C3194 C3213 1.429 . S
C3194 H3218 0.950 . S
C3195 C3212 1.574 . S
C3195 C3214 1.368 . S
C3195 H3219 0.949 . S
H3196 C3200 0.949 . S
C3197 C3198 1.349 . S
C3197 C3199 1.327 . S
C3197 H3220 0.950 . S
C3198 C3197 1.349 . S
C3198 C3210 1.349 . S
C3199 C3197 1.327 . S
C3199 C3215 1.429 . S
C3199 H3221 0.950 . S
C3200 H3196 0.949 . S
C3200 C3208 1.574 . S
C3200 C3216 1.368 . S
H3201 C3209 0.950 . S
H3202 C3207 0.950 . S
H3203 C3208 0.949 . S
H3204 C3210 0.950 . S
H3205 C3211 0.950 . S
H3206 C3212 0.949 . S
C3207 H3202 0.950 . S
C3207 C3209 1.327 . S
C3207 C3213 1.429 . S
C3208 C3200 1.574 . S
C3208 H3203 0.949 . S
C3208 C3214 1.368 . S
C3209 C3193 1.349 . S
C3209 H3201 0.950 . S
C3209 C3207 1.327 . S
C3210 C3198 1.349 . S
C3210 H3204 0.950 . S
C3210 C3211 1.327 . S
C3211 H3205 0.950 . S
C3211 C3210 1.327 . S
C3211 C3215 1.429 . S
C3212 C3195 1.574 . S
C3212 H3206 0.949 . S
C3212 C3216 1.368 . S
C3213 C3194 1.429 . S
C3213 C3207 1.429 . S
C3213 C3214 1.523 . S
C3214 C3195 1.368 . S
C3214 C3208 1.368 . S
C3214 C3213 1.523 . S
C3215 C3199 1.429 . S
C3215 C3211 1.429 . S
C3215 C3216 1.523 . S
C3216 C3200 1.368 . S
C3216 C3212 1.368 . S
C3216 C3215 1.523 . S
H3217 C3192 0.950 . S
H3218 C3194 0.950 . S
H3219 C3195 0.949 . S
H3220 C3197 0.950 . S
H3221 C3199 0.950 . S
C3222 C3223 1.349 . S
C3222 C3224 1.327 . S
C3222 H3247 0.950 . S
C3223 C3222 1.349 . S
C3223 C3239 1.349 . S
C3224 C3222 1.327 . S
C3224 C3243 1.429 . S
C3224 H3248 0.950 . S
C3225 C3242 1.574 . S
C3225 C3244 1.368 . S
C3225 H3249 0.949 . S
H3226 C3230 0.949 . S
C3227 C3228 1.349 . S
C3227 C3229 1.327 . S
C3227 H3250 0.950 . S
C3228 C3227 1.349 . S
C3228 C3240 1.349 . S
C3229 C3227 1.327 . S
C3229 C3245 1.429 . S
C3229 H3251 0.950 . S
C3230 H3226 0.949 . S
C3230 C3238 1.574 . S
C3230 C3246 1.368 . S
H3231 C3239 0.950 . S
H3232 C3237 0.950 . S
H3233 C3238 0.949 . S
H3234 C3240 0.950 . S
H3235 C3241 0.950 . S
H3236 C3242 0.949 . S
C3237 H3232 0.950 . S
C3237 C3239 1.327 . S
C3237 C3243 1.429 . S
C3238 C3230 1.574 . S
C3238 H3233 0.949 . S
C3238 C3244 1.368 . S
C3239 C3223 1.349 . S
C3239 H3231 0.950 . S
C3239 C3237 1.327 . S
C3240 C3228 1.349 . S
C3240 H3234 0.950 . S
C3240 C3241 1.327 . S
C3241 H3235 0.950 . S
C3241 C3240 1.327 . S
C3241 C3245 1.429 . S
C3242 C3225 1.574 . S
C3242 H3236 0.949 . S
C3242 C3246 1.368 . S
C3243 C3224 1.429 . S
C3243 C3237 1.429 . S
C3243 C3244 1.523 . S
C3244 C3225 1.368 . S
C3244 C3238 1.368 . S
C3244 C3243 1.523 . S
C3245 C3229 1.429 . S
C3245 C3241 1.429 . S
C3245 C3246 1.523 . S
C3246 C3230 1.368 . S
C3246 C3242 1.368 . S
C3246 C3245 1.523 . S
H3247 C3222 0.950 . S
H3248 C3224 0.950 . S
H3249 C3225 0.949 . S
H3250 C3227 0.950 . S
H3251 C3229 0.950 . S
C3252 C3253 1.349 . S
C3252 C3254 1.327 . S
C3252 H3277 0.950 . S
C3253 C3252 1.349 . S
C3253 C3269 1.349 . S
C3254 C3252 1.327 . S
C3254 C3273 1.429 . S
C3254 H3278 0.950 . S
C3255 C3272 1.574 . S
C3255 C3274 1.368 . S
C3255 H3279 0.949 . S
H3256 C3260 0.949 . S
C3257 C3258 1.349 . S
C3257 C3259 1.327 . S
C3257 H3280 0.950 . S
C3258 C3257 1.349 . S
C3258 C3270 1.349 . S
C3259 C3257 1.327 . S
C3259 C3275 1.429 . S
C3259 H3281 0.950 . S
C3260 H3256 0.949 . S
C3260 C3268 1.574 . S
C3260 C3276 1.368 . S
H3261 C3269 0.950 . S
H3262 C3267 0.950 . S
H3263 C3268 0.949 . S
H3264 C3270 0.950 . S
H3265 C3271 0.950 . S
H3266 C3272 0.949 . S
C3267 H3262 0.950 . S
C3267 C3269 1.327 . S
C3267 C3273 1.429 . S
C3268 C3260 1.574 . S
C3268 H3263 0.949 . S
C3268 C3274 1.368 . S
C3269 C3253 1.349 . S
C3269 H3261 0.950 . S
C3269 C3267 1.327 . S
C3270 C3258 1.349 . S
C3270 H3264 0.950 . S
C3270 C3271 1.327 . S
C3271 H3265 0.950 . S
C3271 C3270 1.327 . S
C3271 C3275 1.429 . S
C3272 C3255 1.574 . S
C3272 H3266 0.949 . S
C3272 C3276 1.368 . S
C3273 C3254 1.429 . S
C3273 C3267 1.429 . S
C3273 C3274 1.523 . S
C3274 C3255 1.368 . S
C3274 C3268 1.368 . S
C3274 C3273 1.523 . S
C3275 C3259 1.429 . S
C3275 C3271 1.429 . S
C3275 C3276 1.523 . S
C3276 C3260 1.368 . S
C3276 C3272 1.368 . S
C3276 C3275 1.523 . S
H3277 C3252 0.950 . S
H3278 C3254 0.950 . S
H3279 C3255 0.949 . S
H3280 C3257 0.950 . S
H3281 C3259 0.950 . S
C3282 C3283 1.349 . S
C3282 C3284 1.327 . S
C3282 H3307 0.950 . S
C3283 C3282 1.349 . S
C3283 C3299 1.349 . S
C3284 C3282 1.327 . S
C3284 C3303 1.429 . S
C3284 H3308 0.950 . S
C3285 C3302 1.574 . S
C3285 C3304 1.368 . S
C3285 H3309 0.949 . S
H3286 C3290 0.949 . S
C3287 C3288 1.349 . S
C3287 C3289 1.327 . S
C3287 H3310 0.950 . S
C3288 C3287 1.349 . S
C3288 C3300 1.349 . S
C3289 C3287 1.327 . S
C3289 C3305 1.429 . S
C3289 H3311 0.950 . S
C3290 H3286 0.949 . S
C3290 C3298 1.574 . S
C3290 C3306 1.368 . S
H3291 C3299 0.950 . S
H3292 C3297 0.950 . S
H3293 C3298 0.949 . S
H3294 C3300 0.950 . S
H3295 C3301 0.950 . S
H3296 C3302 0.949 . S
C3297 H3292 0.950 . S
C3297 C3299 1.327 . S
C3297 C3303 1.429 . S
C3298 C3290 1.574 . S
C3298 H3293 0.949 . S
C3298 C3304 1.368 . S
C3299 C3283 1.349 . S
C3299 H3291 0.950 . S
C3299 C3297 1.327 . S
C3300 C3288 1.349 . S
C3300 H3294 0.950 . S
C3300 C3301 1.327 . S
C3301 H3295 0.950 . S
C3301 C3300 1.327 . S
C3301 C3305 1.429 . S
C3302 C3285 1.574 . S
C3302 H3296 0.949 . S
C3302 C3306 1.368 . S
C3303 C3284 1.429 . S
C3303 C3297 1.429 . S
C3303 C3304 1.523 . S
C3304 C3285 1.368 . S
C3304 C3298 1.368 . S
C3304 C3303 1.523 . S
C3305 C3289 1.429 . S
C3305 C3301 1.429 . S
C3305 C3306 1.523 . S
C3306 C3290 1.368 . S
C3306 C3302 1.368 . S
C3306 C3305 1.523 . S
H3307 C3282 0.950 . S
H3308 C3284 0.950 . S
H3309 C3285 0.949 . S
H3310 C3287 0.950 . S
H3311 C3289 0.950 . S
C3312 C3313 1.349 . S
C3312 C3314 1.327 . S
C3312 H3337 0.950 . S
C3313 C3312 1.349 . S
C3313 C3329 1.349 . S
C3314 C3312 1.327 . S
C3314 C3333 1.429 . S
C3314 H3338 0.950 . S
C3315 C3332 1.574 . S
C3315 C3334 1.368 . S
C3315 H3339 0.949 . S
H3316 C3320 0.949 . S
C3317 C3318 1.349 . S
C3317 C3319 1.327 . S
C3317 H3340 0.950 . S
C3318 C3317 1.349 . S
C3318 C3330 1.349 . S
C3319 C3317 1.327 . S
C3319 C3335 1.429 . S
C3319 H3341 0.950 . S
C3320 H3316 0.949 . S
C3320 C3328 1.574 . S
C3320 C3336 1.368 . S
H3321 C3329 0.950 . S
H3322 C3327 0.950 . S
H3323 C3328 0.949 . S
H3324 C3330 0.950 . S
H3325 C3331 0.950 . S
H3326 C3332 0.949 . S
C3327 H3322 0.950 . S
C3327 C3329 1.327 . S
C3327 C3333 1.429 . S
C3328 C3320 1.574 . S
C3328 H3323 0.949 . S
C3328 C3334 1.368 . S
C3329 C3313 1.349 . S
C3329 H3321 0.950 . S
C3329 C3327 1.327 . S
C3330 C3318 1.349 . S
C3330 H3324 0.950 . S
C3330 C3331 1.327 . S
C3331 H3325 0.950 . S
C3331 C3330 1.327 . S
C3331 C3335 1.429 . S
C3332 C3315 1.574 . S
C3332 H3326 0.949 . S
C3332 C3336 1.368 . S
C3333 C3314 1.429 . S
C3333 C3327 1.429 . S
C3333 C3334 1.523 . S
C3334 C3315 1.368 . S
C3334 C3328 1.368 . S
C3334 C3333 1.523 . S
C3335 C3319 1.429 . S
C3335 C3331 1.429 . S
C3335 C3336 1.523 . S
C3336 C3320 1.368 . S
C3336 C3332 1.368 . S
C3336 C3335 1.523 . S
H3337 C3312 0.950 . S
H3338 C3314 0.950 . S
H3339 C3315 0.949 . S
H3340 C3317 0.950 . S
H3341 C3319 0.950 . S
C3342 C3343 1.349 . S
C3342 C3344 1.327 . S
C3342 H3367 0.950 . S
C3343 C3342 1.349 . S
C3343 C3359 1.349 . S
C3344 C3342 1.327 . S
C3344 C3363 1.429 . S
C3344 H3368 0.950 . S
C3345 C3362 1.574 . S
C3345 C3364 1.368 . S
C3345 H3369 0.949 . S
H3346 C3350 0.949 . S
C3347 C3348 1.349 . S
C3347 C3349 1.327 . S
C3347 H3370 0.950 . S
C3348 C3347 1.349 . S
C3348 C3360 1.349 . S
C3349 C3347 1.327 . S
C3349 C3365 1.429 . S
C3349 H3371 0.950 . S
C3350 H3346 0.949 . S
C3350 C3358 1.574 . S
C3350 C3366 1.368 . S
H3351 C3359 0.950 . S
H3352 C3357 0.950 . S
H3353 C3358 0.949 . S
H3354 C3360 0.950 . S
H3355 C3361 0.950 . S
H3356 C3362 0.949 . S
C3357 H3352 0.950 . S
C3357 C3359 1.327 . S
C3357 C3363 1.429 . S
C3358 C3350 1.574 . S
C3358 H3353 0.949 . S
C3358 C3364 1.368 . S
C3359 C3343 1.349 . S
C3359 H3351 0.950 . S
C3359 C3357 1.327 . S
C3360 C3348 1.349 . S
C3360 H3354 0.950 . S
C3360 C3361 1.327 . S
C3361 H3355 0.950 . S
C3361 C3360 1.327 . S
C3361 C3365 1.429 . S
C3362 C3345 1.574 . S
C3362 H3356 0.949 . S
C3362 C3366 1.368 . S
C3363 C3344 1.429 . S
C3363 C3357 1.429 . S
C3363 C3364 1.523 . S
C3364 C3345 1.368 . S
C3364 C3358 1.368 . S
C3364 C3363 1.523 . S
C3365 C3349 1.429 . S
C3365 C3361 1.429 . S
C3365 C3366 1.523 . S
C3366 C3350 1.368 . S
C3366 C3362 1.368 . S
C3366 C3365 1.523 . S
H3367 C3342 0.950 . S
H3368 C3344 0.950 . S
H3369 C3345 0.949 . S
H3370 C3347 0.950 . S
H3371 C3349 0.950 . S
C3372 C3373 1.349 . S
C3372 C3374 1.327 . S
C3372 H3397 0.950 . S
C3373 C3372 1.349 . S
C3373 C3389 1.349 . S
C3374 C3372 1.327 . S
C3374 C3393 1.429 . S
C3374 H3398 0.950 . S
C3375 C3392 1.574 . S
C3375 C3394 1.368 . S
C3375 H3399 0.949 . S
H3376 C3380 0.949 . S
C3377 C3378 1.349 . S
C3377 C3379 1.327 . S
C3377 H3400 0.950 . S
C3378 C3377 1.349 . S
C3378 C3390 1.349 . S
C3379 C3377 1.327 . S
C3379 C3395 1.429 . S
C3379 H3401 0.950 . S
C3380 H3376 0.949 . S
C3380 C3388 1.574 . S
C3380 C3396 1.368 . S
H3381 C3389 0.950 . S
H3382 C3387 0.950 . S
H3383 C3388 0.949 . S
H3384 C3390 0.950 . S
H3385 C3391 0.950 . S
H3386 C3392 0.949 . S
C3387 H3382 0.950 . S
C3387 C3389 1.327 . S
C3387 C3393 1.429 . S
C3388 C3380 1.574 . S
C3388 H3383 0.949 . S
C3388 C3394 1.368 . S
C3389 C3373 1.349 . S
C3389 H3381 0.950 . S
C3389 C3387 1.327 . S
C3390 C3378 1.349 . S
C3390 H3384 0.950 . S
C3390 C3391 1.327 . S
C3391 H3385 0.950 . S
C3391 C3390 1.327 . S
C3391 C3395 1.429 . S
C3392 C3375 1.574 . S
C3392 H3386 0.949 . S
C3392 C3396 1.368 . S
C3393 C3374 1.429 . S
C3393 C3387 1.429 . S
C3393 C3394 1.523 . S
C3394 C3375 1.368 . S
C3394 C3388 1.368 . S
C3394 C3393 1.523 . S
C3395 C3379 1.429 . S
C3395 C3391 1.429 . S
C3395 C3396 1.523 . S
C3396 C3380 1.368 . S
C3396 C3392 1.368 . S
C3396 C3395 1.523 . S
H3397 C3372 0.950 . S
H3398 C3374 0.950 . S
H3399 C3375 0.949 . S
H3400 C3377 0.950 . S
H3401 C3379 0.950 . S
C3402 C3403 1.349 . S
C3402 C3404 1.327 . S
C3402 H3427 0.950 . S
C3403 C3402 1.349 . S
C3403 C3419 1.349 . S
C3404 C3402 1.327 . S
C3404 C3423 1.429 . S
C3404 H3428 0.950 . S
C3405 C3422 1.574 . S
C3405 C3424 1.368 . S
C3405 H3429 0.949 . S
H3406 C3410 0.949 . S
C3407 C3408 1.349 . S
C3407 C3409 1.327 . S
C3407 H3430 0.950 . S
C3408 C3407 1.349 . S
C3408 C3420 1.349 . S
C3409 C3407 1.327 . S
C3409 C3425 1.429 . S
C3409 H3431 0.950 . S
C3410 H3406 0.949 . S
C3410 C3418 1.574 . S
C3410 C3426 1.368 . S
H3411 C3419 0.950 . S
H3412 C3417 0.950 . S
H3413 C3418 0.949 . S
H3414 C3420 0.950 . S
H3415 C3421 0.950 . S
H3416 C3422 0.949 . S
C3417 H3412 0.950 . S
C3417 C3419 1.327 . S
C3417 C3423 1.429 . S
C3418 C3410 1.574 . S
C3418 H3413 0.949 . S
C3418 C3424 1.368 . S
C3419 C3403 1.349 . S
C3419 H3411 0.950 . S
C3419 C3417 1.327 . S
C3420 C3408 1.349 . S
C3420 H3414 0.950 . S
C3420 C3421 1.327 . S
C3421 H3415 0.950 . S
C3421 C3420 1.327 . S
C3421 C3425 1.429 . S
C3422 C3405 1.574 . S
C3422 H3416 0.949 . S
C3422 C3426 1.368 . S
C3423 C3404 1.429 . S
C3423 C3417 1.429 . S
C3423 C3424 1.523 . S
C3424 C3405 1.368 . S
C3424 C3418 1.368 . S
C3424 C3423 1.523 . S
C3425 C3409 1.429 . S
C3425 C3421 1.429 . S
C3425 C3426 1.523 . S
C3426 C3410 1.368 . S
C3426 C3422 1.368 . S
C3426 C3425 1.523 . S
H3427 C3402 0.950 . S
H3428 C3404 0.950 . S
H3429 C3405 0.949 . S
H3430 C3407 0.950 . S
H3431 C3409 0.950 . S
C3432 C3433 1.349 . S
C3432 C3434 1.327 . S
C3432 H3457 0.950 . S
C3433 C3432 1.349 . S
C3433 C3449 1.349 . S
C3434 C3432 1.327 . S
C3434 C3453 1.429 . S
C3434 H3458 0.950 . S
C3435 C3452 1.574 1_565 S
C3435 C3454 1.368 . S
C3435 H3459 0.949 . S
H3436 C3440 0.949 . S
C3437 C3438 1.349 . S
C3437 C3439 1.327 . S
C3437 H3460 0.950 . S
C3438 C3437 1.349 . S
C3438 C3450 1.349 . S
C3439 C3437 1.327 . S
C3439 C3455 1.429 . S
C3439 H3461 0.950 . S
C3440 H3436 0.949 . S
C3440 C3448 1.574 1_545 S
C3440 C3456 1.368 . S
H3441 C3449 0.950 . S
H3442 C3447 0.950 . S
H3443 C3448 0.949 . S
H3444 C3450 0.950 . S
H3445 C3451 0.950 . S
H3446 C3452 0.949 . S
C3447 H3442 0.950 . S
C3447 C3449 1.327 . S
C3447 C3453 1.429 . S
C3448 C3440 1.574 1_565 S
C3448 H3443 0.949 . S
C3448 C3454 1.368 . S
C3449 C3433 1.349 . S
C3449 H3441 0.950 . S
C3449 C3447 1.327 . S
C3450 C3438 1.349 . S
C3450 H3444 0.950 . S
C3450 C3451 1.327 . S
C3451 H3445 0.950 . S
C3451 C3450 1.327 . S
C3451 C3455 1.429 . S
C3452 C3435 1.574 1_545 S
C3452 H3446 0.949 . S
C3452 C3456 1.368 . S
C3453 C3434 1.429 . S
C3453 C3447 1.429 . S
C3453 C3454 1.523 . S
C3454 C3435 1.368 . S
C3454 C3448 1.368 . S
C3454 C3453 1.523 . S
C3455 C3439 1.429 . S
C3455 C3451 1.429 . S
C3455 C3456 1.523 . S
C3456 C3440 1.368 . S
C3456 C3452 1.368 . S
C3456 C3455 1.523 . S
H3457 C3432 0.950 . S
H3458 C3434 0.950 . S
H3459 C3435 0.949 . S
H3460 C3437 0.950 . S
H3461 C3439 0.950 . S
C3462 C3463 1.349 . S
C3462 C3464 1.327 . S
C3462 H3487 0.950 . S
C3463 C3462 1.349 . S
C3463 C3479 1.349 . S
C3464 C3462 1.327 . S
C3464 C3483 1.429 . S
C3464 H3488 0.950 . S
C3465 C3482 1.631 . S
C3465 C3484 1.310 1_455 S
C3465 H3489 0.954 . S
H3466 C3470 0.954 . S
C3467 C3468 1.349 . S
C3467 C3469 1.327 . S
C3467 H3490 0.950 . S
C3468 C3467 1.349 . S
C3468 C3480 1.349 . S
C3469 C3467 1.327 . S
C3469 C3485 1.429 . S
C3469 H3491 0.950 . S
C3470 H3466 0.954 . S
C3470 C3478 1.631 . S
C3470 C3486 1.310 1_655 S
H3471 C3479 0.950 . S
H3472 C3477 0.950 . S
H3473 C3478 0.949 . S
H3474 C3480 0.950 . S
H3475 C3481 0.950 . S
H3476 C3482 0.949 . S
C3477 H3472 0.950 . S
C3477 C3479 1.327 . S
C3477 C3483 1.429 . S
C3478 C3470 1.631 . S
C3478 H3473 0.949 . S
C3478 C3484 1.368 . S
C3479 C3463 1.349 . S
C3479 H3471 0.950 . S
C3479 C3477 1.327 . S
C3480 C3468 1.349 . S
C3480 H3474 0.950 . S
C3480 C3481 1.327 . S
C3481 H3475 0.950 . S
C3481 C3480 1.327 . S
C3481 C3485 1.429 . S
C3482 C3465 1.631 . S
C3482 H3476 0.949 . S
C3482 C3486 1.368 . S
C3483 C3464 1.429 . S
C3483 C3477 1.429 . S
C3483 C3484 1.523 . S
C3484 C3465 1.310 1_655 S
C3484 C3478 1.368 . S
C3484 C3483 1.523 . S
C3485 C3469 1.429 . S
C3485 C3481 1.429 . S
C3485 C3486 1.523 . S
C3486 C3470 1.310 1_455 S
C3486 C3482 1.368 . S
C3486 C3485 1.523 . S
H3487 C3462 0.950 . S
H3488 C3464 0.950 . S
H3489 C3465 0.954 . S
H3490 C3467 0.950 . S
H3491 C3469 0.950 . S
C3492 C3493 1.349 . S
C3492 C3494 1.327 . S
C3492 H3517 0.950 . S
C3493 C3492 1.349 . S
C3493 C3509 1.349 . S
C3494 C3492 1.327 . S
C3494 C3513 1.429 . S
C3494 H3518 0.950 . S
C3495 C3512 1.574 . S
C3495 C3514 1.368 1_545 S
C3495 H3519 0.949 . S
H3496 C3500 0.949 . S
C3497 C3498 1.349 . S
C3497 C3499 1.327 . S
C3497 H3520 0.950 . S
C3498 C3497 1.349 . S
C3498 C3510 1.349 . S
C3499 C3497 1.327 . S
C3499 C3515 1.429 . S
C3499 H3521 0.950 . S
C3500 H3496 0.949 . S
C3500 C3508 1.574 . S
C3500 C3516 1.368 1_565 S
H3501 C3509 0.950 . S
H3502 C3507 0.950 . S
H3503 C3508 0.949 . S
H3504 C3510 0.950 . S
H3505 C3511 0.950 . S
H3506 C3512 0.949 . S
C3507 H3502 0.950 . S
C3507 C3509 1.327 . S
C3507 C3513 1.429 . S
C3508 C3500 1.574 . S
C3508 H3503 0.949 . S
C3508 C3514 1.368 . S
C3509 C3493 1.349 . S
C3509 H3501 0.950 . S
C3509 C3507 1.327 . S
C3510 C3498 1.349 . S
C3510 H3504 0.950 . S
C3510 C3511 1.327 . S
C3511 H3505 0.950 . S
C3511 C3510 1.327 . S
C3511 C3515 1.429 . S
C3512 C3495 1.574 . S
C3512 H3506 0.949 . S
C3512 C3516 1.368 . S
C3513 C3494 1.429 . S
C3513 C3507 1.429 . S
C3513 C3514 1.523 . S
C3514 C3495 1.368 1_565 S
C3514 C3508 1.368 . S
C3514 C3513 1.523 . S
C3515 C3499 1.429 . S
C3515 C3511 1.429 . S
C3515 C3516 1.523 . S
C3516 C3500 1.368 1_545 S
C3516 C3512 1.368 . S
C3516 C3515 1.523 . S
H3517 C3492 0.950 . S
H3518 C3494 0.950 . S
H3519 C3495 0.949 . S
H3520 C3497 0.950 . S
H3521 C3499 0.950 . S
C3522 C3523 1.349 . S
C3522 C3524 1.327 . S
C3522 H3547 0.950 . S
C3523 C3522 1.349 . S
C3523 C3539 1.349 . S
C3524 C3522 1.327 . S
C3524 C3543 1.429 . S
C3524 H3548 0.950 . S
C3525 C3542 1.574 1_655 S
C3525 C3544 1.368 . S
C3525 H3549 0.949 . S
H3526 C3530 0.949 . S
C3527 C3528 1.349 . S
C3527 C3529 1.327 . S
C3527 H3550 0.950 . S
C3528 C3527 1.349 . S
C3528 C3540 1.349 . S
C3529 C3527 1.327 . S
C3529 C3545 1.429 . S
C3529 H3551 0.950 . S
C3530 H3526 0.949 . S
C3530 C3538 1.574 1_455 S
C3530 C3546 1.368 . S
H3531 C3539 0.950 . S
H3532 C3537 0.950 . S
H3533 C3538 0.949 . S
H3534 C3540 0.950 . S
H3535 C3541 0.950 . S
H3536 C3542 0.949 . S
C3537 H3532 0.950 . S
C3537 C3539 1.327 . S
C3537 C3543 1.429 . S
C3538 C3530 1.574 1_655 S
C3538 H3533 0.949 . S
C3538 C3544 1.368 . S
C3539 C3523 1.349 . S
C3539 H3531 0.950 . S
C3539 C3537 1.327 . S
C3540 C3528 1.349 . S
C3540 H3534 0.950 . S
C3540 C3541 1.327 . S
C3541 H3535 0.950 . S
C3541 C3540 1.327 . S
C3541 C3545 1.429 . S
C3542 C3525 1.574 1_455 S
C3542 H3536 0.949 . S
C3542 C3546 1.368 . S
C3543 C3524 1.429 . S
C3543 C3537 1.429 . S
C3543 C3544 1.523 . S
C3544 C3525 1.368 . S
C3544 C3538 1.368 . S
C3544 C3543 1.523 . S
C3545 C3529 1.429 . S
C3545 C3541 1.429 . S
C3545 C3546 1.523 . S
C3546 C3530 1.368 . S
C3546 C3542 1.368 . S
C3546 C3545 1.523 . S
H3547 C3522 0.950 . S
H3548 C3524 0.950 . S
H3549 C3525 0.949 . S
H3550 C3527 0.950 . S
H3551 C3529 0.950 . S
C3552 C3553 1.349 . S
C3552 C3554 1.327 . S
C3552 H3577 0.950 . S
C3553 C3552 1.349 . S
C3553 C3569 1.349 . S
C3554 C3552 1.327 . S
C3554 C3573 1.429 . S
C3554 H3578 0.950 . S
C3555 C3572 1.630 . S
C3555 C3574 1.311 1_545 S
C3555 H3579 0.954 . S
H3556 C3560 0.954 . S
C3557 C3558 1.349 . S
C3557 C3559 1.327 . S
C3557 H3580 0.950 . S
C3558 C3557 1.349 . S
C3558 C3570 1.349 . S
C3559 C3557 1.327 . S
C3559 C3575 1.429 . S
C3559 H3581 0.950 . S
C3560 H3556 0.954 . S
C3560 C3568 1.630 . S
C3560 C3576 1.311 1_565 S
H3561 C3569 0.950 . S
H3562 C3567 0.950 . S
H3563 C3568 0.949 . S
H3564 C3570 0.950 . S
H3565 C3571 0.950 . S
H3566 C3572 0.949 . S
C3567 H3562 0.950 . S
C3567 C3569 1.327 . S
C3567 C3573 1.429 . S
C3568 C3560 1.630 . S
C3568 H3563 0.949 . S
C3568 C3574 1.368 . S
C3569 C3553 1.349 . S
C3569 H3561 0.950 . S
C3569 C3567 1.327 . S
C3570 C3558 1.349 . S
C3570 H3564 0.950 . S
C3570 C3571 1.327 . S
C3571 H3565 0.950 . S
C3571 C3570 1.327 . S
C3571 C3575 1.429 . S
C3572 C3555 1.630 . S
C3572 H3566 0.949 . S
C3572 C3576 1.368 . S
C3573 C3554 1.429 . S
C3573 C3567 1.429 . S
C3573 C3574 1.523 . S
C3574 C3555 1.311 1_565 S
C3574 C3568 1.368 . S
C3574 C3573 1.523 . S
C3575 C3559 1.429 . S
C3575 C3571 1.429 . S
C3575 C3576 1.523 . S
C3576 C3560 1.311 1_545 S
C3576 C3572 1.368 . S
C3576 C3575 1.523 . S
H3577 C3552 0.950 . S
H3578 C3554 0.950 . S
H3579 C3555 0.954 . S
H3580 C3557 0.950 . S
H3581 C3559 0.950 . S
C3582 C3583 1.349 . S
C3582 C3584 1.327 . S
C3582 H3607 0.950 . S
C3583 C3582 1.349 . S
C3583 C3599 1.349 . S
C3584 C3582 1.327 . S
C3584 C3603 1.429 . S
C3584 H3608 0.950 . S
C3585 C3602 1.594 . S
C3585 C3604 1.368 . S
C3585 H3609 0.949 . S
H3586 C3590 0.949 . S
C3587 C3588 1.349 . S
C3587 C3589 1.327 . S
C3587 H3610 0.950 . S
C3588 C3587 1.349 . S
C3588 C3600 1.349 . S
C3589 C3587 1.327 . S
C3589 C3605 1.429 . S
C3589 H3611 0.950 . S
C3590 H3586 0.949 . S
C3590 C3598 1.594 . S
C3590 C3606 1.368 . S
H3591 C3599 0.950 . S
H3592 C3597 0.950 . S
H3593 C3598 0.949 . S
H3594 C3600 0.950 . S
H3595 C3601 0.950 . S
H3596 C3602 0.949 . S
C3597 H3592 0.950 . S
C3597 C3599 1.327 . S
C3597 C3603 1.429 . S
C3598 C3590 1.594 . S
C3598 H3593 0.949 . S
C3598 C3604 1.349 1_655 S
C3599 C3583 1.349 . S
C3599 H3591 0.950 . S
C3599 C3597 1.327 . S
C3600 C3588 1.349 . S
C3600 H3594 0.950 . S
C3600 C3601 1.327 . S
C3601 H3595 0.950 . S
C3601 C3600 1.327 . S
C3601 C3605 1.429 . S
C3602 C3585 1.594 . S
C3602 H3596 0.949 . S
C3602 C3606 1.349 1_455 S
C3603 C3584 1.429 . S
C3603 C3597 1.429 . S
C3603 C3604 1.523 . S
C3604 C3585 1.368 . S
C3604 C3598 1.349 1_455 S
C3604 C3603 1.523 . S
C3605 C3589 1.429 . S
C3605 C3601 1.429 . S
C3605 C3606 1.523 . S
C3606 C3590 1.368 . S
C3606 C3602 1.349 1_655 S
C3606 C3605 1.523 . S
H3607 C3582 0.950 . S
H3608 C3584 0.950 . S
H3609 C3585 0.949 . S
H3610 C3587 0.950 . S
H3611 C3589 0.950 . S
C3612 C3613 1.349 . S
C3612 C3614 1.327 . S
C3612 H3637 0.950 . S
C3613 C3612 1.349 . S
C3613 C3629 1.349 . S
C3614 C3612 1.327 . S
C3614 C3633 1.429 . S
C3614 H3638 0.950 . S
C3615 C3632 1.574 . S
C3615 C3634 1.368 1_565 S
C3615 H3639 0.949 . S
H3616 C3620 0.949 . S
C3617 C3618 1.349 . S
C3617 C3619 1.327 . S
C3617 H3640 0.950 . S
C3618 C3617 1.349 . S
C3618 C3630 1.349 . S
C3619 C3617 1.327 . S
C3619 C3635 1.429 . S
C3619 H3641 0.950 . S
C3620 H3616 0.949 . S
C3620 C3628 1.574 . S
C3620 C3636 1.368 1_545 S
H3621 C3629 0.950 . S
H3622 C3627 0.950 . S
H3623 C3628 0.949 . S
H3624 C3630 0.950 . S
H3625 C3631 0.950 . S
H3626 C3632 0.949 . S
C3627 H3622 0.950 . S
C3627 C3629 1.327 . S
C3627 C3633 1.429 . S
C3628 C3620 1.574 . S
C3628 H3623 0.949 . S
C3628 C3634 1.368 . S
C3629 C3613 1.349 . S
C3629 H3621 0.950 . S
C3629 C3627 1.327 . S
C3630 C3618 1.349 . S
C3630 H3624 0.950 . S
C3630 C3631 1.327 . S
C3631 H3625 0.950 . S
C3631 C3630 1.327 . S
C3631 C3635 1.429 . S
C3632 C3615 1.574 . S
C3632 H3626 0.949 . S
C3632 C3636 1.368 . S
C3633 C3614 1.429 . S
C3633 C3627 1.429 . S
C3633 C3634 1.523 . S
C3634 C3615 1.368 1_545 S
C3634 C3628 1.368 . S
C3634 C3633 1.523 . S
C3635 C3619 1.429 . S
C3635 C3631 1.429 . S
C3635 C3636 1.523 . S
C3636 C3620 1.368 1_565 S
C3636 C3632 1.368 . S
C3636 C3635 1.523 . S
H3637 C3612 0.950 . S
H3638 C3614 0.950 . S
H3639 C3615 0.949 . S
H3640 C3617 0.950 . S
H3641 C3619 0.950 . S
C3642 C3643 1.349 . S
C3642 C3644 1.327 . S
C3642 H3667 0.950 . S
C3643 C3642 1.349 . S
C3643 C3659 1.349 . S
C3644 C3642 1.327 . S
C3644 C3663 1.429 . S
C3644 H3668 0.950 . S
C3645 C3662 1.514 1_455 S
C3645 C3664 1.422 . S
C3645 H3669 0.958 . S
H3646 C3650 0.958 . S
C3647 C3648 1.349 . S
C3647 C3649 1.327 . S
C3647 H3670 0.950 . S
C3648 C3647 1.349 . S
C3648 C3660 1.349 . S
C3649 C3647 1.327 . S
C3649 C3665 1.429 . S
C3649 H3671 0.950 . S
C3650 H3646 0.958 . S
C3650 C3658 1.514 1_655 S
C3650 C3666 1.422 . S
H3651 C3659 0.950 . S
H3652 C3657 0.950 . S
H3653 C3658 0.949 . S
H3654 C3660 0.950 . S
H3655 C3661 0.950 . S
H3656 C3662 0.949 . S
C3657 H3652 0.950 . S
C3657 C3659 1.327 . S
C3657 C3663 1.429 . S
C3658 C3650 1.514 1_455 S
C3658 H3653 0.949 . S
C3658 C3664 1.368 . S
C3659 C3643 1.349 . S
C3659 H3651 0.950 . S
C3659 C3657 1.327 . S
C3660 C3648 1.349 . S
C3660 H3654 0.950 . S
C3660 C3661 1.327 . S
C3661 H3655 0.950 . S
C3661 C3660 1.327 . S
C3661 C3665 1.429 . S
C3662 C3645 1.514 1_655 S
C3662 H3656 0.949 . S
C3662 C3666 1.368 . S
C3663 C3644 1.429 . S
C3663 C3657 1.429 . S
C3663 C3664 1.523 . S
C3664 C3645 1.422 . S
C3664 C3658 1.368 . S
C3664 C3663 1.523 . S
C3665 C3649 1.429 . S
C3665 C3661 1.429 . S
C3665 C3666 1.523 . S
C3666 C3650 1.422 . S
C3666 C3662 1.368 . S
C3666 C3665 1.523 . S
H3667 C3642 0.950 . S
H3668 C3644 0.950 . S
H3669 C3645 0.958 . S
H3670 C3647 0.950 . S
H3671 C3649 0.950 . S
C3672 C3673 1.349 . S
C3672 C3674 1.327 . S
C3672 H3697 0.950 . S
C3673 C3672 1.349 . S
C3673 C3689 1.349 . S
C3674 C3672 1.327 . S
C3674 C3693 1.429 . S
C3674 H3698 0.950 . S
C3675 C3692 1.631 . S
C3675 C3694 1.368 . S
C3675 H3699 0.949 . S
H3676 C3680 0.949 . S
C3677 C3678 1.349 . S
C3677 C3679 1.327 . S
C3677 H3700 0.950 . S
C3678 C3677 1.349 . S
C3678 C3690 1.349 . S
C3679 C3677 1.327 . S
C3679 C3695 1.429 . S
C3679 H3701 0.950 . S
C3680 H3676 0.949 . S
C3680 C3688 1.631 . S
C3680 C3696 1.368 . S
H3681 C3689 0.950 . S
H3682 C3687 0.950 . S
H3683 C3688 0.954 . S
H3684 C3690 0.950 . S
H3685 C3691 0.950 . S
H3686 C3692 0.954 . S
C3687 H3682 0.950 . S
C3687 C3689 1.327 . S
C3687 C3693 1.429 . S
C3688 C3680 1.631 . S
C3688 H3683 0.954 . S
C3688 C3694 1.311 1_554 S
C3689 C3673 1.349 . S
C3689 H3681 0.950 . S
C3689 C3687 1.327 . S
C3690 C3678 1.349 . S
C3690 H3684 0.950 . S
C3690 C3691 1.327 . S
C3691 H3685 0.950 . S
C3691 C3690 1.327 . S
C3691 C3695 1.429 . S
C3692 C3675 1.631 . S
C3692 H3686 0.954 . S
C3692 C3696 1.311 1_556 S
C3693 C3674 1.429 . S
C3693 C3687 1.429 . S
C3693 C3694 1.523 . S
C3694 C3675 1.368 . S
C3694 C3688 1.311 1_556 S
C3694 C3693 1.523 . S
C3695 C3679 1.429 . S
C3695 C3691 1.429 . S
C3695 C3696 1.523 . S
C3696 C3680 1.368 . S
C3696 C3692 1.311 1_554 S
C3696 C3695 1.523 . S
H3697 C3672 0.950 . S
H3698 C3674 0.950 . S
H3699 C3675 0.949 . S
H3700 C3677 0.950 . S
H3701 C3679 0.950 . S
C3702 C3703 1.349 . S
C3702 C3704 1.327 . S
C3702 H3727 0.950 . S
C3703 C3702 1.349 . S
C3703 C3719 1.349 . S
C3704 C3702 1.327 . S
C3704 C3723 1.429 . S
C3704 H3728 0.950 . S
C3705 C3722 1.574 1_556 S
C3705 C3724 1.368 . S
C3705 H3729 0.949 . S
H3706 C3710 0.949 . S
C3707 C3708 1.349 . S
C3707 C3709 1.327 . S
C3707 H3730 0.950 . S
C3708 C3707 1.349 . S
C3708 C3720 1.349 . S
C3709 C3707 1.327 . S
C3709 C3725 1.429 . S
C3709 H3731 0.950 . S
C3710 H3706 0.949 . S
C3710 C3718 1.574 1_554 S
C3710 C3726 1.368 . S
H3711 C3719 0.950 . S
H3712 C3717 0.950 . S
H3713 C3718 0.949 . S
H3714 C3720 0.950 . S
H3715 C3721 0.950 . S
H3716 C3722 0.949 . S
C3717 H3712 0.950 . S
C3717 C3719 1.327 . S
C3717 C3723 1.429 . S
C3718 C3710 1.574 1_556 S
C3718 H3713 0.949 . S
C3718 C3724 1.368 . S
C3719 C3703 1.349 . S
C3719 H3711 0.950 . S
C3719 C3717 1.327 . S
C3720 C3708 1.349 . S
C3720 H3714 0.950 . S
C3720 C3721 1.327 . S
C3721 H3715 0.950 . S
C3721 C3720 1.327 . S
C3721 C3725 1.429 . S
C3722 C3705 1.574 1_554 S
C3722 H3716 0.949 . S
C3722 C3726 1.368 . S
C3723 C3704 1.429 . S
C3723 C3717 1.429 . S
C3723 C3724 1.523 . S
C3724 C3705 1.368 . S
C3724 C3718 1.368 . S
C3724 C3723 1.523 . S
C3725 C3709 1.429 . S
C3725 C3721 1.429 . S
C3725 C3726 1.523 . S
C3726 C3710 1.368 . S
C3726 C3722 1.368 . S
C3726 C3725 1.523 . S
H3727 C3702 0.950 . S
H3728 C3704 0.950 . S
H3729 C3705 0.949 . S
H3730 C3707 0.950 . S
H3731 C3709 0.950 . S
C3732 C3733 1.349 . S
C3732 C3734 1.327 . S
C3732 H3757 0.950 . S
C3733 C3732 1.349 . S
C3733 C3749 1.349 . S
C3734 C3732 1.327 . S
C3734 C3753 1.429 . S
C3734 H3758 0.950 . S
C3735 C3752 1.574 1_554 S
C3735 C3754 1.368 . S
C3735 H3759 0.949 . S
H3736 C3740 0.949 . S
C3737 C3738 1.349 . S
C3737 C3739 1.327 . S
C3737 H3760 0.950 . S
C3738 C3737 1.349 . S
C3738 C3750 1.349 . S
C3739 C3737 1.327 . S
C3739 C3755 1.429 . S
C3739 H3761 0.950 . S
C3740 H3736 0.949 . S
C3740 C3748 1.574 1_556 S
C3740 C3756 1.368 . S
H3741 C3749 0.950 . S
H3742 C3747 0.950 . S
H3743 C3748 0.949 . S
H3744 C3750 0.950 . S
H3745 C3751 0.950 . S
H3746 C3752 0.949 . S
C3747 H3742 0.950 . S
C3747 C3749 1.327 . S
C3747 C3753 1.429 . S
C3748 C3740 1.574 1_554 S
C3748 H3743 0.949 . S
C3748 C3754 1.368 . S
C3749 C3733 1.349 . S
C3749 H3741 0.950 . S
C3749 C3747 1.327 . S
C3750 C3738 1.349 . S
C3750 H3744 0.950 . S
C3750 C3751 1.327 . S
C3751 H3745 0.950 . S
C3751 C3750 1.327 . S
C3751 C3755 1.429 . S
C3752 C3735 1.574 1_556 S
C3752 H3746 0.949 . S
C3752 C3756 1.368 . S
C3753 C3734 1.429 . S
C3753 C3747 1.429 . S
C3753 C3754 1.523 . S
C3754 C3735 1.368 . S
C3754 C3748 1.368 . S
C3754 C3753 1.523 . S
C3755 C3739 1.429 . S
C3755 C3751 1.429 . S
C3755 C3756 1.523 . S
C3756 C3740 1.368 . S
C3756 C3752 1.368 . S
C3756 C3755 1.523 . S
H3757 C3732 0.950 . S
H3758 C3734 0.950 . S
H3759 C3735 0.949 . S
H3760 C3737 0.950 . S
H3761 C3739 0.950 . S
C3762 C3763 1.349 . S
C3762 C3764 1.327 . S
C3762 H3787 0.950 . S
C3763 C3762 1.349 . S
C3763 C3779 1.349 . S
C3764 C3762 1.327 . S
C3764 C3783 1.429 . S
C3764 H3788 0.950 . S
C3765 C3782 1.615 . S
C3765 C3784 1.327 1_556 S
C3765 H3789 0.949 . S
H3766 C3770 0.949 . S
C3767 C3768 1.349 . S
C3767 C3769 1.327 . S
C3767 H3790 0.950 . S
C3768 C3767 1.349 . S
C3768 C3780 1.349 . S
C3769 C3767 1.327 . S
C3769 C3785 1.429 . S
C3769 H3791 0.950 . S
C3770 H3766 0.949 . S
C3770 C3778 1.615 . S
C3770 C3786 1.327 1_554 S
H3771 C3779 0.950 . S
H3772 C3777 0.950 . S
H3773 C3778 0.949 . S
H3774 C3780 0.950 . S
H3775 C3781 0.950 . S
H3776 C3782 0.949 . S
C3777 H3772 0.950 . S
C3777 C3779 1.327 . S
C3777 C3783 1.429 . S
C3778 C3770 1.615 . S
C3778 H3773 0.949 . S
C3778 C3784 1.368 . S
C3779 C3763 1.349 . S
C3779 H3771 0.950 . S
C3779 C3777 1.327 . S
C3780 C3768 1.349 . S
C3780 H3774 0.950 . S
C3780 C3781 1.327 . S
C3781 H3775 0.950 . S
C3781 C3780 1.327 . S
C3781 C3785 1.429 . S
C3782 C3765 1.615 . S
C3782 H3776 0.949 . S
C3782 C3786 1.368 . S
C3783 C3764 1.429 . S
C3783 C3777 1.429 . S
C3783 C3784 1.523 . S
C3784 C3765 1.327 1_554 S
C3784 C3778 1.368 . S
C3784 C3783 1.523 . S
C3785 C3769 1.429 . S
C3785 C3781 1.429 . S
C3785 C3786 1.523 . S
C3786 C3770 1.327 1_556 S
C3786 C3782 1.368 . S
C3786 C3785 1.523 . S
H3787 C3762 0.950 . S
H3788 C3764 0.950 . S
H3789 C3765 0.949 . S
H3790 C3767 0.950 . S
H3791 C3769 0.950 . S
C3792 C3793 1.349 . S
C3792 C3794 1.327 . S
C3792 H3817 0.950 . S
C3793 C3792 1.349 . S
C3793 C3809 1.349 . S
C3794 C3792 1.327 . S
C3794 C3813 1.429 . S
C3794 H3818 0.950 . S
C3795 C3812 1.574 . S
C3795 C3814 1.368 . S
C3795 H3819 0.949 . S
H3796 C3800 0.949 . S
C3797 C3798 1.349 . S
C3797 C3799 1.327 . S
C3797 H3820 0.950 . S
C3798 C3797 1.349 . S
C3798 C3810 1.349 . S
C3799 C3797 1.327 . S
C3799 C3815 1.429 . S
C3799 H3821 0.950 . S
C3800 H3796 0.949 . S
C3800 C3808 1.574 . S
C3800 C3816 1.368 . S
H3801 C3809 0.950 . S
H3802 C3807 0.950 . S
H3803 C3808 0.949 . S
H3804 C3810 0.950 . S
H3805 C3811 0.950 . S
H3806 C3812 0.949 . S
C3807 H3802 0.950 . S
C3807 C3809 1.327 . S
C3807 C3813 1.429 . S
C3808 C3800 1.574 . S
C3808 H3803 0.949 . S
C3808 C3814 1.368 . S
C3809 C3793 1.349 . S
C3809 H3801 0.950 . S
C3809 C3807 1.327 . S
C3810 C3798 1.349 . S
C3810 H3804 0.950 . S
C3810 C3811 1.327 . S
C3811 H3805 0.950 . S
C3811 C3810 1.327 . S
C3811 C3815 1.429 . S
C3812 C3795 1.574 . S
C3812 H3806 0.949 . S
C3812 C3816 1.368 . S
C3813 C3794 1.429 . S
C3813 C3807 1.429 . S
C3813 C3814 1.523 . S
C3814 C3795 1.368 . S
C3814 C3808 1.368 . S
C3814 C3813 1.523 . S
C3815 C3799 1.429 . S
C3815 C3811 1.429 . S
C3815 C3816 1.523 . S
C3816 C3800 1.368 . S
C3816 C3812 1.368 . S
C3816 C3815 1.523 . S
H3817 C3792 0.950 . S
H3818 C3794 0.950 . S
H3819 C3795 0.949 . S
H3820 C3797 0.950 . S
H3821 C3799 0.950 . S
C3822 C3823 1.349 . S
C3822 C3824 1.327 . S
C3822 H3847 0.953 1_554 S
C3823 C3822 1.349 . S
C3823 C3839 1.349 . S
C3824 C3822 1.327 . S
C3824 C3843 1.429 . S
C3824 H3848 0.950 . S
C3825 C3842 1.574 . S
C3825 C3844 1.368 . S
C3825 H3849 0.949 . S
H3826 C3830 0.949 . S
C3827 C3828 1.349 . S
C3827 C3829 1.327 . S
C3827 H3850 0.950 . S
C3828 C3827 1.349 . S
C3828 C3840 1.349 . S
C3829 C3827 1.327 . S
C3829 C3845 1.429 . S
C3829 H3851 0.950 . S
C3830 H3826 0.949 . S
C3830 C3838 1.574 . S
C3830 C3846 1.368 . S
H3831 C3839 0.950 . S
H3832 C3837 0.950 . S
H3833 C3838 0.949 . S
H3834 C3840 0.950 . S
H3835 C3841 0.950 . S
H3836 C3842 0.949 . S
C3837 H3832 0.950 . S
C3837 C3839 1.327 . S
C3837 C3843 1.429 . S
C3838 C3830 1.574 . S
C3838 H3833 0.949 . S
C3838 C3844 1.368 . S
C3839 C3823 1.349 . S
C3839 H3831 0.950 . S
C3839 C3837 1.327 . S
C3840 C3828 1.349 . S
C3840 H3834 0.950 . S
C3840 C3841 1.327 . S
C3841 H3835 0.950 . S
C3841 C3840 1.327 . S
C3841 C3845 1.429 . S
C3842 C3825 1.574 . S
C3842 H3836 0.949 . S
C3842 C3846 1.368 . S
C3843 C3824 1.429 . S
C3843 C3837 1.429 . S
C3843 C3844 1.523 . S
C3844 C3825 1.368 . S
C3844 C3838 1.368 . S
C3844 C3843 1.523 . S
C3845 C3829 1.429 . S
C3845 C3841 1.429 . S
C3845 C3846 1.523 . S
C3846 C3830 1.368 . S
C3846 C3842 1.368 . S
C3846 C3845 1.523 . S
H3847 C3822 0.953 1_556 S
H3848 C3824 0.950 . S
H3849 C3825 0.949 . S
H3850 C3827 0.950 . S
H3851 C3829 0.950 . S
C3852 C3853 1.349 . S
C3852 C3854 1.327 . S
C3852 H3877 0.950 . S
C3853 C3852 1.349 . S
C3853 C3869 1.349 . S
C3854 C3852 1.327 . S
C3854 C3873 1.429 . S
C3854 H3878 0.950 . S
C3855 C3872 1.574 . S
C3855 C3874 1.368 . S
C3855 H3879 0.949 . S
H3856 C3860 0.949 . S
C3857 C3858 1.349 . S
C3857 C3859 1.327 . S
C3857 H3880 0.950 . S
C3858 C3857 1.349 . S
C3858 C3870 1.349 . S
C3859 C3857 1.327 . S
C3859 C3875 1.429 . S
C3859 H3881 0.950 . S
C3860 H3856 0.949 . S
C3860 C3868 1.574 . S
C3860 C3876 1.368 . S
H3861 C3869 0.950 . S
H3862 C3867 0.950 . S
H3863 C3868 0.949 . S
H3864 C3870 0.950 . S
H3865 C3871 0.950 . S
H3866 C3872 0.949 . S
C3867 H3862 0.950 . S
C3867 C3869 1.327 . S
C3867 C3873 1.429 . S
C3868 C3860 1.574 . S
C3868 H3863 0.949 . S
C3868 C3874 1.368 . S
C3869 C3853 1.349 . S
C3869 H3861 0.950 . S
C3869 C3867 1.327 . S
C3870 C3858 1.349 . S
C3870 H3864 0.950 . S
C3870 C3871 1.327 . S
C3871 H3865 0.950 . S
C3871 C3870 1.327 . S
C3871 C3875 1.429 . S
C3872 C3855 1.574 . S
C3872 H3866 0.949 . S
C3872 C3876 1.368 . S
C3873 C3854 1.429 . S
C3873 C3867 1.429 . S
C3873 C3874 1.523 . S
C3874 C3855 1.368 . S
C3874 C3868 1.368 . S
C3874 C3873 1.523 . S
C3875 C3859 1.429 . S
C3875 C3871 1.429 . S
C3875 C3876 1.523 . S
C3876 C3860 1.368 . S
C3876 C3872 1.368 . S
C3876 C3875 1.523 . S
H3877 C3852 0.950 . S
H3878 C3854 0.950 . S
H3879 C3855 0.949 . S
H3880 C3857 0.950 . S
H3881 C3859 0.950 . S
C3882 C3883 1.349 . S
C3882 C3884 1.327 . S
C3882 H3907 0.950 . S
C3883 C3882 1.349 . S
C3883 C3899 1.349 . S
C3884 C3882 1.327 . S
C3884 C3903 1.429 . S
C3884 H3908 0.950 . S
C3885 C3902 1.574 . S
C3885 C3904 1.368 . S
C3885 H3909 0.949 . S
H3886 C3890 0.949 . S
C3887 C3888 1.349 . S
C3887 C3889 1.327 . S
C3887 H3910 0.950 . S
C3888 C3887 1.349 . S
C3888 C3900 1.349 . S
C3889 C3887 1.327 . S
C3889 C3905 1.429 . S
C3889 H3911 0.950 . S
C3890 H3886 0.949 . S
C3890 C3898 1.574 . S
C3890 C3906 1.368 . S
H3891 C3899 0.950 . S
H3892 C3897 0.950 . S
H3893 C3898 0.949 . S
H3894 C3900 0.950 . S
H3895 C3901 0.950 . S
H3896 C3902 0.949 . S
C3897 H3892 0.950 . S
C3897 C3899 1.327 . S
C3897 C3903 1.429 . S
C3898 C3890 1.574 . S
C3898 H3893 0.949 . S
C3898 C3904 1.368 . S
C3899 C3883 1.349 . S
C3899 H3891 0.950 . S
C3899 C3897 1.327 . S
C3900 C3888 1.349 . S
C3900 H3894 0.950 . S
C3900 C3901 1.327 . S
C3901 H3895 0.950 . S
C3901 C3900 1.327 . S
C3901 C3905 1.429 . S
C3902 C3885 1.574 . S
C3902 H3896 0.949 . S
C3902 C3906 1.368 . S
C3903 C3884 1.429 . S
C3903 C3897 1.429 . S
C3903 C3904 1.523 . S
C3904 C3885 1.368 . S
C3904 C3898 1.368 . S
C3904 C3903 1.523 . S
C3905 C3889 1.429 . S
C3905 C3901 1.429 . S
C3905 C3906 1.523 . S
C3906 C3890 1.368 . S
C3906 C3902 1.368 . S
C3906 C3905 1.523 . S
H3907 C3882 0.950 . S
H3908 C3884 0.950 . S
H3909 C3885 0.949 . S
H3910 C3887 0.950 . S
H3911 C3889 0.950 . S
C3912 C3913 1.349 . S
C3912 C3914 1.327 . S
C3912 H3937 0.950 . S
C3913 C3912 1.349 . S
C3913 C3929 1.349 . S
C3914 C3912 1.327 . S
C3914 C3933 1.429 . S
C3914 H3938 0.950 . S
C3915 C3932 1.574 . S
C3915 C3934 1.368 . S
C3915 H3939 0.949 . S
H3916 C3920 0.949 . S
C3917 C3918 1.349 . S
C3917 C3919 1.327 . S
C3917 H3940 0.950 . S
C3918 C3917 1.349 . S
C3918 C3930 1.349 . S
C3919 C3917 1.327 . S
C3919 C3935 1.429 . S
C3919 H3941 0.950 . S
C3920 H3916 0.949 . S
C3920 C3928 1.574 . S
C3920 C3936 1.368 . S
H3921 C3929 0.950 . S
H3922 C3927 0.950 . S
H3923 C3928 0.949 . S
H3924 C3930 0.950 . S
H3925 C3931 0.950 . S
H3926 C3932 0.949 . S
C3927 H3922 0.950 . S
C3927 C3929 1.327 . S
C3927 C3933 1.429 . S
C3928 C3920 1.574 . S
C3928 H3923 0.949 . S
C3928 C3934 1.368 . S
C3929 C3913 1.349 . S
C3929 H3921 0.950 . S
C3929 C3927 1.327 . S
C3930 C3918 1.349 . S
C3930 H3924 0.950 . S
C3930 C3931 1.327 . S
C3931 H3925 0.950 . S
C3931 C3930 1.327 . S
C3931 C3935 1.429 . S
C3932 C3915 1.574 . S
C3932 H3926 0.949 . S
C3932 C3936 1.368 . S
C3933 C3914 1.429 . S
C3933 C3927 1.429 . S
C3933 C3934 1.523 . S
C3934 C3915 1.368 . S
C3934 C3928 1.368 . S
C3934 C3933 1.523 . S
C3935 C3919 1.429 . S
C3935 C3931 1.429 . S
C3935 C3936 1.523 . S
C3936 C3920 1.368 . S
C3936 C3932 1.368 . S
C3936 C3935 1.523 . S
H3937 C3912 0.950 . S
H3938 C3914 0.950 . S
H3939 C3915 0.949 . S
H3940 C3917 0.950 . S
H3941 C3919 0.950 . S
C3942 C3943 1.349 . S
C3942 C3944 1.327 . S
C3942 H3967 0.950 . S
C3943 C3942 1.349 . S
C3943 C3959 1.349 . S
C3944 C3942 1.327 . S
C3944 C3963 1.429 . S
C3944 H3968 0.950 . S
C3945 C3962 1.574 . S
C3945 C3964 1.368 . S
C3945 H3969 0.949 . S
H3946 C3950 0.949 . S
C3947 C3948 1.349 . S
C3947 C3949 1.327 . S
C3947 H3970 0.950 . S
C3948 C3947 1.349 . S
C3948 C3960 1.349 . S
C3949 C3947 1.327 . S
C3949 C3965 1.429 . S
C3949 H3971 0.950 . S
C3950 H3946 0.949 . S
C3950 C3958 1.574 . S
C3950 C3966 1.368 . S
H3951 C3959 0.950 . S
H3952 C3957 0.950 . S
H3953 C3958 0.949 . S
H3954 C3960 0.950 . S
H3955 C3961 0.950 . S
H3956 C3962 0.949 . S
C3957 H3952 0.950 . S
C3957 C3959 1.327 . S
C3957 C3963 1.429 . S
C3958 C3950 1.574 . S
C3958 H3953 0.949 . S
C3958 C3964 1.368 . S
C3959 C3943 1.349 . S
C3959 H3951 0.950 . S
C3959 C3957 1.327 . S
C3960 C3948 1.349 . S
C3960 H3954 0.950 . S
C3960 C3961 1.327 . S
C3961 H3955 0.950 . S
C3961 C3960 1.327 . S
C3961 C3965 1.429 . S
C3962 C3945 1.574 . S
C3962 H3956 0.949 . S
C3962 C3966 1.368 . S
C3963 C3944 1.429 . S
C3963 C3957 1.429 . S
C3963 C3964 1.523 . S
C3964 C3945 1.368 . S
C3964 C3958 1.368 . S
C3964 C3963 1.523 . S
C3965 C3949 1.429 . S
C3965 C3961 1.429 . S
C3965 C3966 1.523 . S
C3966 C3950 1.368 . S
C3966 C3962 1.368 . S
C3966 C3965 1.523 . S
H3967 C3942 0.950 . S
H3968 C3944 0.950 . S
H3969 C3945 0.949 . S
H3970 C3947 0.950 . S
H3971 C3949 0.950 . S
C3972 C3973 1.349 . S
C3972 C3974 1.327 . S
C3972 H3997 0.950 . S
C3973 C3972 1.349 . S
C3973 C3989 1.349 . S
C3974 C3972 1.327 . S
C3974 C3993 1.429 . S
C3974 H3998 0.950 . S
C3975 C3992 1.574 . S
C3975 C3994 1.368 . S
C3975 H3999 0.949 . S
H3976 C3980 0.949 . S
C3977 C3978 1.349 . S
C3977 C3979 1.327 . S
C3977 H4000 0.950 . S
C3978 C3977 1.349 . S
C3978 C3990 1.349 . S
C3979 C3977 1.327 . S
C3979 C3995 1.429 . S
C3979 H4001 0.950 . S
C3980 H3976 0.949 . S
C3980 C3988 1.574 . S
C3980 C3996 1.368 . S
H3981 C3989 0.953 1_554 S
H3982 C3987 0.950 . S
H3983 C3988 0.949 . S
H3984 C3990 0.950 . S
H3985 C3991 0.950 . S
H3986 C3992 0.949 . S
C3987 H3982 0.950 . S
C3987 C3989 1.327 . S
C3987 C3993 1.429 . S
C3988 C3980 1.574 . S
C3988 H3983 0.949 . S
C3988 C3994 1.368 . S
C3989 C3973 1.349 . S
C3989 H3981 0.953 1_556 S
C3989 C3987 1.327 . S
C3990 C3978 1.349 . S
C3990 H3984 0.950 . S
C3990 C3991 1.327 . S
C3991 H3985 0.950 . S
C3991 C3990 1.327 . S
C3991 C3995 1.429 . S
C3992 C3975 1.574 . S
C3992 H3986 0.949 . S
C3992 C3996 1.368 . S
C3993 C3974 1.429 . S
C3993 C3987 1.429 . S
C3993 C3994 1.523 . S
C3994 C3975 1.368 . S
C3994 C3988 1.368 . S
C3994 C3993 1.523 . S
C3995 C3979 1.429 . S
C3995 C3991 1.429 . S
C3995 C3996 1.523 . S
C3996 C3980 1.368 . S
C3996 C3992 1.368 . S
C3996 C3995 1.523 . S
H3997 C3972 0.950 . S
H3998 C3974 0.950 . S
H3999 C3975 0.949 . S
H4000 C3977 0.950 . S
H4001 C3979 0.950 . S
C4002 C4003 1.349 . S
C4002 C4004 1.327 . S
C4002 H4027 0.950 . S
C4003 C4002 1.349 . S
C4003 C4019 1.349 . S
C4004 C4002 1.327 . S
C4004 C4023 1.429 . S
C4004 H4028 0.950 . S
C4005 C4022 1.574 . S
C4005 C4024 1.368 . S
C4005 H4029 0.949 . S
H4006 C4010 0.949 . S
C4007 C4008 1.349 . S
C4007 C4009 1.327 . S
C4007 H4030 0.950 . S
C4008 C4007 1.349 . S
C4008 C4020 1.349 . S
C4009 C4007 1.327 . S
C4009 C4025 1.429 . S
C4009 H4031 0.950 . S
C4010 H4006 0.949 . S
C4010 C4018 1.574 . S
C4010 C4026 1.368 . S
H4011 C4019 0.950 . S
H4012 C4017 0.950 . S
H4013 C4018 0.949 . S
H4014 C4020 0.950 1_554 S
H4015 C4021 0.950 . S
H4016 C4022 0.949 . S
C4017 H4012 0.950 . S
C4017 C4019 1.327 . S
C4017 C4023 1.429 . S
C4018 C4010 1.574 . S
C4018 H4013 0.949 . S
C4018 C4024 1.368 . S
C4019 C4003 1.349 . S
C4019 H4011 0.950 . S
C4019 C4017 1.327 . S
C4020 C4008 1.349 . S
C4020 H4014 0.950 1_556 S
C4020 C4021 1.327 . S
C4021 H4015 0.950 . S
C4021 C4020 1.327 . S
C4021 C4025 1.429 . S
C4022 C4005 1.574 . S
C4022 H4016 0.949 . S
C4022 C4026 1.368 . S
C4023 C4004 1.429 . S
C4023 C4017 1.429 . S
C4023 C4024 1.523 . S
C4024 C4005 1.368 . S
C4024 C4018 1.368 . S
C4024 C4023 1.523 . S
C4025 C4009 1.429 . S
C4025 C4021 1.429 . S
C4025 C4026 1.523 . S
C4026 C4010 1.368 . S
C4026 C4022 1.368 . S
C4026 C4025 1.523 . S
H4027 C4002 0.950 . S
H4028 C4004 0.950 . S
H4029 C4005 0.949 . S
H4030 C4007 0.950 . S
H4031 C4009 0.950 . S
C4032 C4033 1.349 . S
C4032 C4034 1.327 . S
C4032 H4057 0.943 1_455 S
C4033 C4032 1.349 . S
C4033 C4049 1.349 . S
C4034 C4032 1.327 . S
C4034 C4053 1.429 . S
C4034 H4058 0.950 . S
C4035 C4052 1.574 . S
C4035 C4054 1.368 . S
C4035 H4059 0.949 . S
H4036 C4040 0.949 . S
C4037 C4038 1.349 . S
C4037 C4039 1.327 . S
C4037 H4060 0.950 . S
C4038 C4037 1.349 . S
C4038 C4050 1.349 . S
C4039 C4037 1.327 . S
C4039 C4055 1.429 . S
C4039 H4061 0.950 . S
C4040 H4036 0.949 . S
C4040 C4048 1.574 . S
C4040 C4056 1.368 . S
H4041 C4049 0.950 . S
H4042 C4047 0.950 . S
H4043 C4048 0.949 . S
H4044 C4050 0.950 . S
H4045 C4051 0.950 . S
H4046 C4052 0.949 . S
C4047 H4042 0.950 . S
C4047 C4049 1.327 . S
C4047 C4053 1.429 . S
C4048 C4040 1.574 . S
C4048 H4043 0.949 . S
C4048 C4054 1.368 . S
C4049 C4033 1.349 . S
C4049 H4041 0.950 . S
C4049 C4047 1.327 . S
C4050 C4038 1.349 . S
C4050 H4044 0.950 . S
C4050 C4051 1.327 . S
C4051 H4045 0.950 . S
C4051 C4050 1.327 . S
C4051 C4055 1.429 . S
C4052 C4035 1.574 . S
C4052 H4046 0.949 . S
C4052 C4056 1.368 . S
C4053 C4034 1.429 . S
C4053 C4047 1.429 . S
C4053 C4054 1.523 . S
C4054 C4035 1.368 . S
C4054 C4048 1.368 . S
C4054 C4053 1.523 . S
C4055 C4039 1.429 . S
C4055 C4051 1.429 . S
C4055 C4056 1.523 . S
C4056 C4040 1.368 . S
C4056 C4052 1.368 . S
C4056 C4055 1.523 . S
H4057 C4032 0.943 1_655 S
H4058 C4034 0.950 . S
H4059 C4035 0.949 . S
H4060 C4037 0.950 . S
H4061 C4039 0.950 . S
C4062 C4063 1.349 . S
C4062 C4064 1.327 . S
C4062 H4087 0.950 . S
C4063 C4062 1.349 . S
C4063 C4079 1.349 . S
C4064 C4062 1.327 . S
C4064 C4083 1.429 . S
C4064 H4088 0.950 . S
C4065 C4082 1.574 . S
C4065 C4084 1.368 . S
C4065 H4089 0.949 . S
H4066 C4070 0.949 . S
C4067 C4068 1.349 . S
C4067 C4069 1.327 . S
C4067 H4090 0.950 . S
C4068 C4067 1.349 . S
C4068 C4080 1.349 . S
C4069 C4067 1.327 . S
C4069 C4085 1.429 . S
C4069 H4091 0.950 . S
C4070 H4066 0.949 . S
C4070 C4078 1.574 . S
C4070 C4086 1.368 . S
H4071 C4079 0.950 . S
H4072 C4077 0.950 . S
H4073 C4078 0.949 . S
H4074 C4080 0.950 . S
H4075 C4081 0.950 . S
H4076 C4082 0.949 . S
C4077 H4072 0.950 . S
C4077 C4079 1.327 . S
C4077 C4083 1.429 . S
C4078 C4070 1.574 . S
C4078 H4073 0.949 . S
C4078 C4084 1.368 . S
C4079 C4063 1.349 . S
C4079 H4071 0.950 . S
C4079 C4077 1.327 . S
C4080 C4068 1.349 . S
C4080 H4074 0.950 . S
C4080 C4081 1.327 . S
C4081 H4075 0.950 . S
C4081 C4080 1.327 . S
C4081 C4085 1.429 . S
C4082 C4065 1.574 . S
C4082 H4076 0.949 . S
C4082 C4086 1.368 . S
C4083 C4064 1.429 . S
C4083 C4077 1.429 . S
C4083 C4084 1.523 . S
C4084 C4065 1.368 . S
C4084 C4078 1.368 . S
C4084 C4083 1.523 . S
C4085 C4069 1.429 . S
C4085 C4081 1.429 . S
C4085 C4086 1.523 . S
C4086 C4070 1.368 . S
C4086 C4082 1.368 . S
C4086 C4085 1.523 . S
H4087 C4062 0.950 . S
H4088 C4064 0.950 . S
H4089 C4065 0.949 . S
H4090 C4067 0.950 . S
H4091 C4069 0.950 . S
C4092 C4093 1.349 . S
C4092 C4094 1.327 . S
C4092 H4117 0.950 . S
C4093 C4092 1.349 . S
C4093 C4109 1.349 . S
C4094 C4092 1.327 . S
C4094 C4113 1.429 . S
C4094 H4118 0.950 . S
C4095 C4112 1.574 . S
C4095 C4114 1.368 . S
C4095 H4119 0.949 . S
H4096 C4100 0.949 . S
C4097 C4098 1.349 . S
C4097 C4099 1.327 . S
C4097 H4120 0.950 1_655 S
C4098 C4097 1.349 . S
C4098 C4110 1.349 . S
C4099 C4097 1.327 . S
C4099 C4115 1.429 . S
C4099 H4121 0.950 . S
C4100 H4096 0.949 . S
C4100 C4108 1.574 . S
C4100 C4116 1.368 . S
H4101 C4109 0.950 . S
H4102 C4107 0.950 . S
H4103 C4108 0.949 . S
H4104 C4110 0.950 . S
H4105 C4111 0.950 . S
H4106 C4112 0.949 . S
C4107 H4102 0.950 . S
C4107 C4109 1.327 . S
C4107 C4113 1.429 . S
C4108 C4100 1.574 . S
C4108 H4103 0.949 . S
C4108 C4114 1.368 . S
C4109 C4093 1.349 . S
C4109 H4101 0.950 . S
C4109 C4107 1.327 . S
C4110 C4098 1.349 . S
C4110 H4104 0.950 . S
C4110 C4111 1.327 . S
C4111 H4105 0.950 . S
C4111 C4110 1.327 . S
C4111 C4115 1.429 . S
C4112 C4095 1.574 . S
C4112 H4106 0.949 . S
C4112 C4116 1.368 . S
C4113 C4094 1.429 . S
C4113 C4107 1.429 . S
C4113 C4114 1.523 . S
C4114 C4095 1.368 . S
C4114 C4108 1.368 . S
C4114 C4113 1.523 . S
C4115 C4099 1.429 . S
C4115 C4111 1.429 . S
C4115 C4116 1.523 . S
C4116 C4100 1.368 . S
C4116 C4112 1.368 . S
C4116 C4115 1.523 . S
H4117 C4092 0.950 . S
H4118 C4094 0.950 . S
H4119 C4095 0.949 . S
H4120 C4097 0.950 1_455 S
H4121 C4099 0.950 . S
C4122 C4123 1.349 . S
C4122 C4124 1.327 . S
C4122 H4147 0.950 . S
C4123 C4122 1.349 . S
C4123 C4139 1.349 . S
C4124 C4122 1.327 . S
C4124 C4143 1.429 . S
C4124 H4148 0.950 . S
C4125 C4142 1.574 . S
C4125 C4144 1.368 . S
C4125 H4149 0.949 . S
H4126 C4130 0.949 . S
C4127 C4128 1.349 . S
C4127 C4129 1.327 . S
C4127 H4150 0.950 . S
C4128 C4127 1.349 . S
C4128 C4140 1.349 . S
C4129 C4127 1.327 . S
C4129 C4145 1.429 . S
C4129 H4151 0.950 . S
C4130 H4126 0.949 . S
C4130 C4138 1.574 . S
C4130 C4146 1.368 . S
H4131 C4139 0.954 . S
H4132 C4137 0.950 . S
H4133 C4138 0.949 . S
H4134 C4140 0.950 . S
H4135 C4141 0.950 . S
H4136 C4142 0.949 . S
C4137 H4132 0.950 . S
C4137 C4139 1.327 . S
C4137 C4143 1.429 . S
C4138 C4130 1.574 . S
C4138 H4133 0.949 . S
C4138 C4144 1.368 . S
C4139 C4123 1.349 . S
C4139 H4131 0.954 . S
C4139 C4137 1.327 . S
C4140 C4128 1.349 . S
C4140 H4134 0.950 . S
C4140 C4141 1.327 . S
C4141 H4135 0.950 . S
C4141 C4140 1.327 . S
C4141 C4145 1.429 . S
C4142 C4125 1.574 . S
C4142 H4136 0.949 . S
C4142 C4146 1.368 . S
C4143 C4124 1.429 . S
C4143 C4137 1.429 . S
C4143 C4144 1.523 . S
C4144 C4125 1.368 . S
C4144 C4138 1.368 . S
C4144 C4143 1.523 . S
C4145 C4129 1.429 . S
C4145 C4141 1.429 . S
C4145 C4146 1.523 . S
C4146 C4130 1.368 . S
C4146 C4142 1.368 . S
C4146 C4145 1.523 . S
H4147 C4122 0.950 . S
H4148 C4124 0.950 . S
H4149 C4125 0.949 . S
H4150 C4127 0.950 . S
H4151 C4129 0.950 . S
C4152 C4153 1.349 . S
C4152 C4154 1.327 . S
C4152 H4177 0.950 . S
C4153 C4152 1.349 . S
C4153 C4169 1.349 . S
C4154 C4152 1.327 . S
C4154 C4173 1.429 . S
C4154 H4178 0.950 . S
C4155 C4172 1.574 . S
C4155 C4174 1.368 . S
C4155 H4179 0.949 . S
H4156 C4160 0.949 . S
C4157 C4158 1.349 . S
C4157 C4159 1.327 . S
C4157 H4180 0.950 . S
C4158 C4157 1.349 . S
C4158 C4170 1.349 . S
C4159 C4157 1.327 . S
C4159 C4175 1.429 . S
C4159 H4181 0.950 . S
C4160 H4156 0.949 . S
C4160 C4168 1.574 . S
C4160 C4176 1.368 . S
H4161 C4169 0.950 . S
H4162 C4167 0.950 . S
H4163 C4168 0.949 . S
H4164 C4170 0.950 . S
H4165 C4171 0.950 . S
H4166 C4172 0.949 . S
C4167 H4162 0.950 . S
C4167 C4169 1.327 . S
C4167 C4173 1.429 . S
C4168 C4160 1.574 . S
C4168 H4163 0.949 . S
C4168 C4174 1.368 . S
C4169 C4153 1.349 . S
C4169 H4161 0.950 . S
C4169 C4167 1.327 . S
C4170 C4158 1.349 . S
C4170 H4164 0.950 . S
C4170 C4171 1.327 . S
C4171 H4165 0.950 . S
C4171 C4170 1.327 . S
C4171 C4175 1.429 . S
C4172 C4155 1.574 . S
C4172 H4166 0.949 . S
C4172 C4176 1.368 . S
C4173 C4154 1.429 . S
C4173 C4167 1.429 . S
C4173 C4174 1.523 . S
C4174 C4155 1.368 . S
C4174 C4168 1.368 . S
C4174 C4173 1.523 . S
C4175 C4159 1.429 . S
C4175 C4171 1.429 . S
C4175 C4176 1.523 . S
C4176 C4160 1.368 . S
C4176 C4172 1.368 . S
C4176 C4175 1.523 . S
H4177 C4152 0.950 . S
H4178 C4154 0.950 . S
H4179 C4155 0.949 . S
H4180 C4157 0.950 . S
H4181 C4159 0.950 . S
C4182 C4183 1.349 . S
C4182 C4184 1.327 . S
C4182 H4207 0.950 . S
C4183 C4182 1.349 . S
C4183 C4199 1.349 . S
C4184 C4182 1.327 . S
C4184 C4203 1.429 . S
C4184 H4208 0.950 . S
C4185 C4202 1.574 . S
C4185 C4204 1.368 . S
C4185 H4209 0.949 . S
H4186 C4190 0.949 . S
C4187 C4188 1.349 . S
C4187 C4189 1.327 . S
C4187 H4210 0.950 . S
C4188 C4187 1.349 . S
C4188 C4200 1.349 . S
C4189 C4187 1.327 . S
C4189 C4205 1.429 . S
C4189 H4211 0.950 . S
C4190 H4186 0.949 . S
C4190 C4198 1.574 . S
C4190 C4206 1.368 . S
H4191 C4199 0.950 . S
H4192 C4197 0.950 . S
H4193 C4198 0.949 . S
H4194 C4200 0.950 . S
H4195 C4201 0.950 . S
H4196 C4202 0.949 . S
C4197 H4192 0.950 . S
C4197 C4199 1.327 . S
C4197 C4203 1.429 . S
C4198 C4190 1.574 . S
C4198 H4193 0.949 . S
C4198 C4204 1.368 . S
C4199 C4183 1.349 . S
C4199 H4191 0.950 . S
C4199 C4197 1.327 . S
C4200 C4188 1.349 . S
C4200 H4194 0.950 . S
C4200 C4201 1.327 . S
C4201 H4195 0.950 . S
C4201 C4200 1.327 . S
C4201 C4205 1.429 . S
C4202 C4185 1.574 . S
C4202 H4196 0.949 . S
C4202 C4206 1.368 . S
C4203 C4184 1.429 . S
C4203 C4197 1.429 . S
C4203 C4204 1.523 . S
C4204 C4185 1.368 . S
C4204 C4198 1.368 . S
C4204 C4203 1.523 . S
C4205 C4189 1.429 . S
C4205 C4201 1.429 . S
C4205 C4206 1.523 . S
C4206 C4190 1.368 . S
C4206 C4202 1.368 . S
C4206 C4205 1.523 . S
H4207 C4182 0.950 . S
H4208 C4184 0.950 . S
H4209 C4185 0.949 . S
H4210 C4187 0.950 . S
H4211 C4189 0.950 . S
C4212 C4213 1.349 . S
C4212 C4214 1.327 . S
C4212 H4237 0.950 . S
C4213 C4212 1.349 . S
C4213 C4229 1.349 . S
C4214 C4212 1.327 . S
C4214 C4233 1.429 . S
C4214 H4238 0.950 . S
C4215 C4232 1.574 . S
C4215 C4234 1.368 . S
C4215 H4239 0.949 . S
H4216 C4220 0.949 . S
C4217 C4218 1.349 . S
C4217 C4219 1.327 . S
C4217 H4240 0.950 . S
C4218 C4217 1.349 . S
C4218 C4230 1.349 . S
C4219 C4217 1.327 . S
C4219 C4235 1.429 . S
C4219 H4241 0.950 . S
C4220 H4216 0.949 . S
C4220 C4228 1.574 . S
C4220 C4236 1.368 . S
H4221 C4229 0.950 . S
H4222 C4227 0.950 . S
H4223 C4228 0.949 . S
H4224 C4230 0.950 . S
H4225 C4231 0.950 . S
H4226 C4232 0.949 . S
C4227 H4222 0.950 . S
C4227 C4229 1.327 . S
C4227 C4233 1.429 . S
C4228 C4220 1.574 . S
C4228 H4223 0.949 . S
C4228 C4234 1.368 . S
C4229 C4213 1.349 . S
C4229 H4221 0.950 . S
C4229 C4227 1.327 . S
C4230 C4218 1.349 . S
C4230 H4224 0.950 . S
C4230 C4231 1.327 . S
C4231 H4225 0.950 . S
C4231 C4230 1.327 . S
C4231 C4235 1.429 . S
C4232 C4215 1.574 . S
C4232 H4226 0.949 . S
C4232 C4236 1.368 . S
C4233 C4214 1.429 . S
C4233 C4227 1.429 . S
C4233 C4234 1.523 . S
C4234 C4215 1.368 . S
C4234 C4228 1.368 . S
C4234 C4233 1.523 . S
C4235 C4219 1.429 . S
C4235 C4231 1.429 . S
C4235 C4236 1.523 . S
C4236 C4220 1.368 . S
C4236 C4232 1.368 . S
C4236 C4235 1.523 . S
H4237 C4212 0.950 . S
H4238 C4214 0.950 . S
H4239 C4215 0.949 . S
H4240 C4217 0.950 . S
H4241 C4219 0.950 . S
C4242 C4243 1.349 . S
C4242 C4244 1.327 . S
C4242 H4267 0.950 . S
C4243 C4242 1.349 . S
C4243 C4259 1.349 . S
C4244 C4242 1.327 . S
C4244 C4263 1.429 . S
C4244 H4268 0.950 . S
C4245 C4262 1.574 . S
C4245 C4264 1.368 . S
C4245 H4269 0.949 . S
H4246 C4250 0.949 . S
C4247 C4248 1.349 . S
C4247 C4249 1.327 . S
C4247 H4270 0.950 . S
C4248 C4247 1.349 . S
C4248 C4260 1.349 . S
C4249 C4247 1.327 . S
C4249 C4265 1.429 . S
C4249 H4271 0.950 . S
C4250 H4246 0.949 . S
C4250 C4258 1.574 . S
C4250 C4266 1.368 . S
H4251 C4259 0.992 . S
H4252 C4257 0.950 . S
H4253 C4258 0.949 . S
H4254 C4260 0.950 . S
H4255 C4261 0.950 . S
H4256 C4262 0.949 . S
C4257 H4252 0.950 . S
C4257 C4259 1.327 . S
C4257 C4263 1.429 . S
C4258 C4250 1.574 . S
C4258 H4253 0.949 . S
C4258 C4264 1.368 . S
C4259 C4243 1.349 . S
C4259 H4251 0.992 . S
C4259 C4257 1.327 . S
C4260 C4248 1.349 . S
C4260 H4254 0.950 . S
C4260 C4261 1.327 . S
C4261 H4255 0.950 . S
C4261 C4260 1.327 . S
C4261 C4265 1.429 . S
C4262 C4245 1.574 . S
C4262 H4256 0.949 . S
C4262 C4266 1.368 . S
C4263 C4244 1.429 . S
C4263 C4257 1.429 . S
C4263 C4264 1.523 . S
C4264 C4245 1.368 . S
C4264 C4258 1.368 . S
C4264 C4263 1.523 . S
C4265 C4249 1.429 . S
C4265 C4261 1.429 . S
C4265 C4266 1.523 . S
C4266 C4250 1.368 . S
C4266 C4262 1.368 . S
C4266 C4265 1.523 . S
H4267 C4242 0.950 . S
H4268 C4244 0.950 . S
H4269 C4245 0.949 . S
H4270 C4247 0.950 . S
H4271 C4249 0.950 . S
C4272 C4273 1.349 . S
C4272 C4274 1.327 . S
C4272 H4297 0.950 . S
C4273 C4272 1.349 . S
C4273 C4289 1.349 . S
C4274 C4272 1.327 . S
C4274 C4293 1.429 . S
C4274 H4298 0.950 . S
C4275 C4292 1.574 . S
C4275 C4294 1.368 . S
C4275 H4299 0.949 . S
H4276 C4280 0.949 . S
C4277 C4278 1.349 . S
C4277 C4279 1.327 . S
C4277 H4300 0.950 . S
C4278 C4277 1.349 . S
C4278 C4290 1.349 . S
C4279 C4277 1.327 . S
C4279 C4295 1.429 . S
C4279 H4301 0.950 . S
C4280 H4276 0.949 . S
C4280 C4288 1.574 . S
C4280 C4296 1.368 . S
H4281 C4289 1.000 . S
H4282 C4287 0.950 . S
H4283 C4288 0.949 . S
H4284 C4290 0.950 . S
H4285 C4291 0.950 . S
H4286 C4292 0.949 . S
C4287 H4282 0.950 . S
C4287 C4289 1.327 . S
C4287 C4293 1.429 . S
C4288 C4280 1.574 . S
C4288 H4283 0.949 . S
C4288 C4294 1.368 . S
C4289 C4273 1.349 . S
C4289 H4281 1.000 . S
C4289 C4287 1.327 . S
C4290 C4278 1.349 . S
C4290 H4284 0.950 . S
C4290 C4291 1.327 . S
C4291 H4285 0.950 . S
C4291 C4290 1.327 . S
C4291 C4295 1.429 . S
C4292 C4275 1.574 . S
C4292 H4286 0.949 . S
C4292 C4296 1.368 . S
C4293 C4274 1.429 . S
C4293 C4287 1.429 . S
C4293 C4294 1.523 . S
C4294 C4275 1.368 . S
C4294 C4288 1.368 . S
C4294 C4293 1.523 . S
C4295 C4279 1.429 . S
C4295 C4291 1.429 . S
C4295 C4296 1.523 . S
C4296 C4280 1.368 . S
C4296 C4292 1.368 . S
C4296 C4295 1.523 . S
H4297 C4272 0.950 . S
H4298 C4274 0.950 . S
H4299 C4275 0.949 . S
H4300 C4277 0.950 . S
H4301 C4279 0.950 . S
C4302 C4303 1.349 . S
C4302 C4304 1.327 . S
C4302 H4327 0.950 . S
C4303 C4302 1.349 . S
C4303 C4319 1.349 . S
C4304 C4302 1.327 . S
C4304 C4323 1.429 . S
C4304 H4328 0.950 . S
C4305 C4322 1.574 . S
C4305 C4324 1.368 . S
C4305 H4329 0.949 . S
H4306 C4310 0.949 . S
C4307 C4308 1.349 . S
C4307 C4309 1.327 . S
C4307 H4330 0.950 . S
C4308 C4307 1.349 . S
C4308 C4320 1.349 . S
C4309 C4307 1.327 . S
C4309 C4325 1.429 . S
C4309 H4331 0.950 . S
C4310 H4306 0.949 . S
C4310 C4318 1.574 . S
C4310 C4326 1.368 . S
H4311 C4319 0.950 . S
H4312 C4317 0.950 . S
H4313 C4318 0.949 . S
H4314 C4320 0.950 1_545 S
H4315 C4321 0.950 . S
H4316 C4322 0.949 . S
C4317 H4312 0.950 . S
C4317 C4319 1.327 . S
C4317 C4323 1.429 . S
C4318 C4310 1.574 . S
C4318 H4313 0.949 . S
C4318 C4324 1.368 . S
C4319 C4303 1.349 . S
C4319 H4311 0.950 . S
C4319 C4317 1.327 . S
C4320 C4308 1.349 . S
C4320 H4314 0.950 1_565 S
C4320 C4321 1.327 . S
C4321 H4315 0.950 . S
C4321 C4320 1.327 . S
C4321 C4325 1.429 . S
C4322 C4305 1.574 . S
C4322 H4316 0.949 . S
C4322 C4326 1.368 . S
C4323 C4304 1.429 . S
C4323 C4317 1.429 . S
C4323 C4324 1.523 . S
C4324 C4305 1.368 . S
C4324 C4318 1.368 . S
C4324 C4323 1.523 . S
C4325 C4309 1.429 . S
C4325 C4321 1.429 . S
C4325 C4326 1.523 . S
C4326 C4310 1.368 . S
C4326 C4322 1.368 . S
C4326 C4325 1.523 . S
H4327 C4302 0.950 . S
H4328 C4304 0.950 . S
H4329 C4305 0.949 . S
H4330 C4307 0.950 . S
H4331 C4309 0.950 . S
C4332 C4333 1.349 . S
C4332 C4334 1.327 . S
C4332 H4357 0.884 1_455 S
C4333 C4332 1.349 . S
C4333 C4349 1.349 . S
C4334 C4332 1.327 . S
C4334 C4353 1.429 . S
C4334 H4358 0.950 . S
C4335 C4352 1.574 . S
C4335 C4354 1.368 . S
C4335 H4359 0.949 . S
H4336 C4340 0.949 . S
C4337 C4338 1.349 . S
C4337 C4339 1.327 . S
C4337 H4360 0.950 . S
C4338 C4337 1.349 . S
C4338 C4350 1.349 . S
C4339 C4337 1.327 . S
C4339 C4355 1.429 . S
C4339 H4361 0.950 . S
C4340 H4336 0.949 . S
C4340 C4348 1.574 . S
C4340 C4356 1.368 . S
H4341 C4349 0.950 . S
H4342 C4347 0.950 . S
H4343 C4348 0.949 . S
H4344 C4350 0.950 . S
H4345 C4351 0.950 . S
H4346 C4352 0.949 . S
C4347 H4342 0.950 . S
C4347 C4349 1.327 . S
C4347 C4353 1.429 . S
C4348 C4340 1.574 . S
C4348 H4343 0.949 . S
C4348 C4354 1.368 . S
C4349 C4333 1.349 . S
C4349 H4341 0.950 . S
C4349 C4347 1.327 . S
C4350 C4338 1.349 . S
C4350 H4344 0.950 . S
C4350 C4351 1.327 . S
C4351 H4345 0.950 . S
C4351 C4350 1.327 . S
C4351 C4355 1.429 . S
C4352 C4335 1.574 . S
C4352 H4346 0.949 . S
C4352 C4356 1.368 . S
C4353 C4334 1.429 . S
C4353 C4347 1.429 . S
C4353 C4354 1.523 . S
C4354 C4335 1.368 . S
C4354 C4348 1.368 . S
C4354 C4353 1.523 . S
C4355 C4339 1.429 . S
C4355 C4351 1.429 . S
C4355 C4356 1.523 . S
C4356 C4340 1.368 . S
C4356 C4352 1.368 . S
C4356 C4355 1.523 . S
H4357 C4332 0.884 1_655 S
H4358 C4334 0.950 . S
H4359 C4335 0.949 . S
H4360 C4337 0.950 . S
H4361 C4339 0.950 . S
C4362 C4363 1.349 . S
C4362 C4364 1.327 . S
C4362 H4387 0.950 . S
C4363 C4362 1.349 . S
C4363 C4379 1.349 . S
C4364 C4362 1.327 . S
C4364 C4383 1.429 . S
C4364 H4388 0.950 . S
C4365 C4382 1.574 . S
C4365 C4384 1.368 . S
C4365 H4389 0.949 . S
H4366 C4370 0.949 . S
C4367 C4368 1.349 . S
C4367 C4369 1.327 . S
C4367 H4390 0.950 . S
C4368 C4367 1.349 . S
C4368 C4380 1.349 . S
C4369 C4367 1.327 . S
C4369 C4385 1.429 . S
C4369 H4391 0.950 . S
C4370 H4366 0.949 . S
C4370 C4378 1.574 . S
C4370 C4386 1.368 . S
H4371 C4379 0.950 . S
H4372 C4377 0.950 . S
H4373 C4378 0.949 . S
H4374 C4380 0.950 . S
H4375 C4381 0.950 . S
H4376 C4382 0.949 . S
C4377 H4372 0.950 . S
C4377 C4379 1.327 . S
C4377 C4383 1.429 . S
C4378 C4370 1.574 . S
C4378 H4373 0.949 . S
C4378 C4384 1.368 . S
C4379 C4363 1.349 . S
C4379 H4371 0.950 . S
C4379 C4377 1.327 . S
C4380 C4368 1.349 . S
C4380 H4374 0.950 . S
C4380 C4381 1.327 . S
C4381 H4375 0.950 . S
C4381 C4380 1.327 . S
C4381 C4385 1.429 . S
C4382 C4365 1.574 . S
C4382 H4376 0.949 . S
C4382 C4386 1.368 . S
C4383 C4364 1.429 . S
C4383 C4377 1.429 . S
C4383 C4384 1.523 . S
C4384 C4365 1.368 . S
C4384 C4378 1.368 . S
C4384 C4383 1.523 . S
C4385 C4369 1.429 . S
C4385 C4381 1.429 . S
C4385 C4386 1.523 . S
C4386 C4370 1.368 . S
C4386 C4382 1.368 . S
C4386 C4385 1.523 . S
H4387 C4362 0.950 . S
H4388 C4364 0.950 . S
H4389 C4365 0.949 . S
H4390 C4367 0.950 . S
H4391 C4369 0.950 . S
C4392 C4393 1.349 . S
C4392 C4394 1.327 . S
C4392 H4417 0.950 . S
C4393 C4392 1.349 . S
C4393 C4409 1.349 . S
C4394 C4392 1.327 . S
C4394 C4413 1.429 . S
C4394 H4418 0.950 . S
C4395 C4412 1.574 . S
C4395 C4414 1.368 . S
C4395 H4419 0.949 . S
H4396 C4400 0.949 . S
C4397 C4398 1.349 . S
C4397 C4399 1.327 . S
C4397 H4420 0.950 . S
C4398 C4397 1.349 . S
C4398 C4410 1.349 . S
C4399 C4397 1.327 . S
C4399 C4415 1.429 . S
C4399 H4421 0.950 . S
C4400 H4396 0.949 . S
C4400 C4408 1.574 . S
C4400 C4416 1.368 . S
H4401 C4409 0.950 . S
H4402 C4407 0.950 . S
H4403 C4408 0.949 . S
H4404 C4410 0.950 . S
H4405 C4411 0.950 . S
H4406 C4412 0.949 . S
C4407 H4402 0.950 . S
C4407 C4409 1.327 . S
C4407 C4413 1.429 . S
C4408 C4400 1.574 . S
C4408 H4403 0.949 . S
C4408 C4414 1.368 . S
C4409 C4393 1.349 . S
C4409 H4401 0.950 . S
C4409 C4407 1.327 . S
C4410 C4398 1.349 . S
C4410 H4404 0.950 . S
C4410 C4411 1.327 . S
C4411 H4405 0.950 . S
C4411 C4410 1.327 . S
C4411 C4415 1.429 . S
C4412 C4395 1.574 . S
C4412 H4406 0.949 . S
C4412 C4416 1.368 . S
C4413 C4394 1.429 . S
C4413 C4407 1.429 . S
C4413 C4414 1.523 . S
C4414 C4395 1.368 . S
C4414 C4408 1.368 . S
C4414 C4413 1.523 . S
C4415 C4399 1.429 . S
C4415 C4411 1.429 . S
C4415 C4416 1.523 . S
C4416 C4400 1.368 . S
C4416 C4412 1.368 . S
C4416 C4415 1.523 . S
H4417 C4392 0.950 . S
H4418 C4394 0.950 . S
H4419 C4395 0.949 . S
H4420 C4397 0.950 . S
H4421 C4399 0.950 . S
C4422 C4423 1.349 . S
C4422 C4424 1.327 . S
C4422 H4447 0.950 . S
C4423 C4422 1.349 . S
C4423 C4439 1.349 . S
C4424 C4422 1.327 . S
C4424 C4443 1.429 . S
C4424 H4448 0.950 . S
C4425 C4442 1.574 . S
C4425 C4444 1.368 . S
C4425 H4449 0.949 . S
H4426 C4430 0.949 . S
C4427 C4428 1.349 . S
C4427 C4429 1.327 . S
C4427 H4450 0.950 . S
C4428 C4427 1.349 . S
C4428 C4440 1.349 . S
C4429 C4427 1.327 . S
C4429 C4445 1.429 . S
C4429 H4451 0.950 . S
C4430 H4426 0.949 . S
C4430 C4438 1.574 . S
C4430 C4446 1.368 . S
H4431 C4439 0.950 . S
H4432 C4437 0.950 . S
H4433 C4438 0.949 . S
H4434 C4440 0.950 . S
H4435 C4441 0.950 . S
H4436 C4442 0.949 . S
C4437 H4432 0.950 . S
C4437 C4439 1.327 . S
C4437 C4443 1.429 . S
C4438 C4430 1.574 . S
C4438 H4433 0.949 . S
C4438 C4444 1.368 . S
C4439 C4423 1.349 . S
C4439 H4431 0.950 . S
C4439 C4437 1.327 . S
C4440 C4428 1.349 . S
C4440 H4434 0.950 . S
C4440 C4441 1.327 . S
C4441 H4435 0.950 . S
C4441 C4440 1.327 . S
C4441 C4445 1.429 . S
C4442 C4425 1.574 . S
C4442 H4436 0.949 . S
C4442 C4446 1.368 . S
C4443 C4424 1.429 . S
C4443 C4437 1.429 . S
C4443 C4444 1.523 . S
C4444 C4425 1.368 . S
C4444 C4438 1.368 . S
C4444 C4443 1.523 . S
C4445 C4429 1.429 . S
C4445 C4441 1.429 . S
C4445 C4446 1.523 . S
C4446 C4430 1.368 . S
C4446 C4442 1.368 . S
C4446 C4445 1.523 . S
H4447 C4422 0.950 . S
H4448 C4424 0.950 . S
H4449 C4425 0.949 . S
H4450 C4427 0.950 . S
H4451 C4429 0.950 . S
C4452 C4453 1.349 . S
C4452 C4454 1.327 . S
C4452 H4477 0.950 . S
C4453 C4452 1.349 . S
C4453 C4469 1.349 . S
C4454 C4452 1.327 . S
C4454 C4473 1.429 . S
C4454 H4478 0.950 . S
C4455 C4472 1.574 . S
C4455 C4474 1.368 . S
C4455 H4479 0.949 . S
H4456 C4460 0.949 . S
C4457 C4458 1.349 . S
C4457 C4459 1.327 . S
C4457 H4480 0.960 . S
C4458 C4457 1.349 . S
C4458 C4470 1.349 . S
C4459 C4457 1.327 . S
C4459 C4475 1.429 . S
C4459 H4481 0.950 . S
C4460 H4456 0.949 . S
C4460 C4468 1.574 . S
C4460 C4476 1.368 . S
H4461 C4469 0.950 . S
H4462 C4467 0.950 . S
H4463 C4468 0.949 . S
H4464 C4470 0.950 . S
H4465 C4471 0.950 . S
H4466 C4472 0.949 . S
C4467 H4462 0.950 . S
C4467 C4469 1.327 . S
C4467 C4473 1.429 . S
C4468 C4460 1.574 . S
C4468 H4463 0.949 . S
C4468 C4474 1.368 . S
C4469 C4453 1.349 . S
C4469 H4461 0.950 . S
C4469 C4467 1.327 . S
C4470 C4458 1.349 . S
C4470 H4464 0.950 . S
C4470 C4471 1.327 . S
C4471 H4465 0.950 . S
C4471 C4470 1.327 . S
C4471 C4475 1.429 . S
C4472 C4455 1.574 . S
C4472 H4466 0.949 . S
C4472 C4476 1.368 . S
C4473 C4454 1.429 . S
C4473 C4467 1.429 . S
C4473 C4474 1.523 . S
C4474 C4455 1.368 . S
C4474 C4468 1.368 . S
C4474 C4473 1.523 . S
C4475 C4459 1.429 . S
C4475 C4471 1.429 . S
C4475 C4476 1.523 . S
C4476 C4460 1.368 . S
C4476 C4472 1.368 . S
C4476 C4475 1.523 . S
H4477 C4452 0.950 . S
H4478 C4454 0.950 . S
H4479 C4455 0.949 . S
H4480 C4457 0.960 . S
H4481 C4459 0.950 . S
C4482 C4483 1.349 . S
C4482 C4484 1.327 . S
C4482 H4507 0.950 . S
C4483 C4482 1.349 . S
C4483 C4499 1.349 . S
C4484 C4482 1.327 . S
C4484 C4503 1.429 . S
C4484 H4508 0.950 . S
C4485 C4502 1.574 . S
C4485 C4504 1.368 . S
C4485 H4509 0.949 . S
H4486 C4490 0.949 . S
C4487 C4488 1.349 . S
C4487 C4489 1.327 . S
C4487 H4510 0.950 . S
C4488 C4487 1.349 . S
C4488 C4500 1.349 . S
C4489 C4487 1.327 . S
C4489 C4505 1.429 . S
C4489 H4511 0.950 . S
C4490 H4486 0.949 . S
C4490 C4498 1.574 . S
C4490 C4506 1.368 . S
H4491 C4499 0.950 . S
H4492 C4497 0.950 . S
H4493 C4498 0.949 . S
H4494 C4500 0.950 . S
H4495 C4501 0.950 . S
H4496 C4502 0.949 . S
C4497 H4492 0.950 . S
C4497 C4499 1.327 . S
C4497 C4503 1.429 . S
C4498 C4490 1.574 . S
C4498 H4493 0.949 . S
C4498 C4504 1.368 . S
C4499 C4483 1.349 . S
C4499 H4491 0.950 . S
C4499 C4497 1.327 . S
C4500 C4488 1.349 . S
C4500 H4494 0.950 . S
C4500 C4501 1.327 . S
C4501 H4495 0.950 . S
C4501 C4500 1.327 . S
C4501 C4505 1.429 . S
C4502 C4485 1.574 . S
C4502 H4496 0.949 . S
C4502 C4506 1.368 . S
C4503 C4484 1.429 . S
C4503 C4497 1.429 . S
C4503 C4504 1.523 . S
C4504 C4485 1.368 . S
C4504 C4498 1.368 . S
C4504 C4503 1.523 . S
C4505 C4489 1.429 . S
C4505 C4501 1.429 . S
C4505 C4506 1.523 . S
C4506 C4490 1.368 . S
C4506 C4502 1.368 . S
C4506 C4505 1.523 . S
H4507 C4482 0.950 . S
H4508 C4484 0.950 . S
H4509 C4485 0.949 . S
H4510 C4487 0.950 . S
H4511 C4489 0.950 . S
C4512 C4513 1.349 . S
C4512 C4514 1.327 . S
C4512 H4537 0.950 . S
C4513 C4512 1.349 . S
C4513 C4529 1.349 . S
C4514 C4512 1.327 . S
C4514 C4533 1.429 . S
C4514 H4538 0.950 . S
C4515 C4532 1.574 . S
C4515 C4534 1.368 . S
C4515 H4539 0.949 . S
H4516 C4520 0.949 . S
C4517 C4518 1.349 . S
C4517 C4519 1.327 . S
C4517 H4540 0.950 . S
C4518 C4517 1.349 . S
C4518 C4530 1.349 . S
C4519 C4517 1.327 . S
C4519 C4535 1.429 . S
C4519 H4541 0.950 . S
C4520 H4516 0.949 . S
C4520 C4528 1.574 . S
C4520 C4536 1.368 . S
H4521 C4529 0.950 . S
H4522 C4527 0.950 . S
H4523 C4528 0.949 . S
H4524 C4530 0.950 . S
H4525 C4531 0.950 . S
H4526 C4532 0.949 . S
C4527 H4522 0.950 . S
C4527 C4529 1.327 . S
C4527 C4533 1.429 . S
C4528 C4520 1.574 . S
C4528 H4523 0.949 . S
C4528 C4534 1.368 . S
C4529 C4513 1.349 . S
C4529 H4521 0.950 . S
C4529 C4527 1.327 . S
C4530 C4518 1.349 . S
C4530 H4524 0.950 . S
C4530 C4531 1.327 . S
C4531 H4525 0.950 . S
C4531 C4530 1.327 . S
C4531 C4535 1.429 . S
C4532 C4515 1.574 . S
C4532 H4526 0.949 . S
C4532 C4536 1.368 . S
C4533 C4514 1.429 . S
C4533 C4527 1.429 . S
C4533 C4534 1.523 . S
C4534 C4515 1.368 . S
C4534 C4528 1.368 . S
C4534 C4533 1.523 . S
C4535 C4519 1.429 . S
C4535 C4531 1.429 . S
C4535 C4536 1.523 . S
C4536 C4520 1.368 . S
C4536 C4532 1.368 . S
C4536 C4535 1.523 . S
H4537 C4512 0.950 . S
H4538 C4514 0.950 . S
H4539 C4515 0.949 . S
H4540 C4517 0.950 . S
H4541 C4519 0.950 . S
C4542 C4543 1.349 . S
C4542 C4544 1.327 . S
C4542 H4567 0.950 . S
C4543 C4542 1.349 . S
C4543 C4559 1.349 . S
C4544 C4542 1.327 . S
C4544 C4563 1.429 . S
C4544 H4568 0.950 . S
C4545 C4562 1.574 . S
C4545 C4564 1.368 . S
C4545 H4569 0.949 . S
H4546 C4550 0.949 . S
C4547 C4548 1.349 . S
C4547 C4549 1.327 . S
C4547 H4570 0.950 . S
C4548 C4547 1.349 . S
C4548 C4560 1.349 . S
C4549 C4547 1.327 . S
C4549 C4565 1.429 . S
C4549 H4571 0.950 . S
C4550 H4546 0.949 . S
C4550 C4558 1.574 . S
C4550 C4566 1.368 . S
H4551 C4559 0.950 . S
H4552 C4557 0.950 . S
H4553 C4558 0.949 . S
H4554 C4560 0.950 . S
H4555 C4561 0.950 . S
H4556 C4562 0.949 . S
C4557 H4552 0.950 . S
C4557 C4559 1.327 . S
C4557 C4563 1.429 . S
C4558 C4550 1.574 . S
C4558 H4553 0.949 . S
C4558 C4564 1.368 . S
C4559 C4543 1.349 . S
C4559 H4551 0.950 . S
C4559 C4557 1.327 . S
C4560 C4548 1.349 . S
C4560 H4554 0.950 . S
C4560 C4561 1.327 . S
C4561 H4555 0.950 . S
C4561 C4560 1.327 . S
C4561 C4565 1.429 . S
C4562 C4545 1.574 . S
C4562 H4556 0.949 . S
C4562 C4566 1.368 . S
C4563 C4544 1.429 . S
C4563 C4557 1.429 . S
C4563 C4564 1.523 . S
C4564 C4545 1.368 . S
C4564 C4558 1.368 . S
C4564 C4563 1.523 . S
C4565 C4549 1.429 . S
C4565 C4561 1.429 . S
C4565 C4566 1.523 . S
C4566 C4550 1.368 . S
C4566 C4562 1.368 . S
C4566 C4565 1.523 . S
H4567 C4542 0.950 . S
H4568 C4544 0.950 . S
H4569 C4545 0.949 . S
H4570 C4547 0.950 . S
H4571 C4549 0.950 . S
C4572 C4573 1.349 . S
C4572 C4574 1.327 . S
C4572 H4597 0.950 . S
C4573 C4572 1.349 . S
C4573 C4589 1.349 . S
C4574 C4572 1.327 . S
C4574 C4593 1.429 . S
C4574 H4598 0.950 . S
C4575 C4592 1.574 . S
C4575 C4594 1.368 . S
C4575 H4599 0.949 . S
H4576 C4580 0.949 . S
C4577 C4578 1.349 . S
C4577 C4579 1.327 . S
C4577 H4600 0.950 . S
C4578 C4577 1.349 . S
C4578 C4590 1.349 . S
C4579 C4577 1.327 . S
C4579 C4595 1.429 . S
C4579 H4601 0.950 . S
C4580 H4576 0.949 . S
C4580 C4588 1.574 . S
C4580 C4596 1.368 . S
H4581 C4589 0.950 . S
H4582 C4587 0.950 . S
H4583 C4588 0.949 . S
H4584 C4590 0.950 . S
H4585 C4591 0.950 . S
H4586 C4592 0.949 . S
C4587 H4582 0.950 . S
C4587 C4589 1.327 . S
C4587 C4593 1.429 . S
C4588 C4580 1.574 . S
C4588 H4583 0.949 . S
C4588 C4594 1.368 . S
C4589 C4573 1.349 . S
C4589 H4581 0.950 . S
C4589 C4587 1.327 . S
C4590 C4578 1.349 . S
C4590 H4584 0.950 . S
C4590 C4591 1.327 . S
C4591 H4585 0.950 . S
C4591 C4590 1.327 . S
C4591 C4595 1.429 . S
C4592 C4575 1.574 . S
C4592 H4586 0.949 . S
C4592 C4596 1.368 . S
C4593 C4574 1.429 . S
C4593 C4587 1.429 . S
C4593 C4594 1.523 . S
C4594 C4575 1.368 . S
C4594 C4588 1.368 . S
C4594 C4593 1.523 . S
C4595 C4579 1.429 . S
C4595 C4591 1.429 . S
C4595 C4596 1.523 . S
C4596 C4580 1.368 . S
C4596 C4592 1.368 . S
C4596 C4595 1.523 . S
H4597 C4572 0.950 . S
H4598 C4574 0.950 . S
H4599 C4575 0.949 . S
H4600 C4577 0.950 . S
H4601 C4579 0.950 . S
C4602 C4603 1.349 . S
C4602 C4604 1.327 . S
C4602 H4627 0.950 . S
C4603 C4602 1.349 . S
C4603 C4619 1.349 . S
C4604 C4602 1.327 . S
C4604 C4623 1.429 . S
C4604 H4628 0.950 . S
C4605 C4622 1.574 . S
C4605 C4624 1.368 . S
C4605 H4629 0.949 . S
H4606 C4610 0.949 . S
C4607 C4608 1.349 . S
C4607 C4609 1.327 . S
C4607 H4630 0.950 . S
C4608 C4607 1.349 . S
C4608 C4620 1.349 . S
C4609 C4607 1.327 . S
C4609 C4625 1.429 . S
C4609 H4631 0.950 . S
C4610 H4606 0.949 . S
C4610 C4618 1.574 . S
C4610 C4626 1.368 . S
H4611 C4619 0.950 . S
H4612 C4617 0.950 . S
H4613 C4618 0.949 . S
H4614 C4620 0.950 . S
H4615 C4621 0.950 . S
H4616 C4622 0.949 . S
C4617 H4612 0.950 . S
C4617 C4619 1.327 . S
C4617 C4623 1.429 . S
C4618 C4610 1.574 . S
C4618 H4613 0.949 . S
C4618 C4624 1.368 . S
C4619 C4603 1.349 . S
C4619 H4611 0.950 . S
C4619 C4617 1.327 . S
C4620 C4608 1.349 . S
C4620 H4614 0.950 . S
C4620 C4621 1.327 . S
C4621 H4615 0.950 . S
C4621 C4620 1.327 . S
C4621 C4625 1.429 . S
C4622 C4605 1.574 . S
C4622 H4616 0.949 . S
C4622 C4626 1.368 . S
C4623 C4604 1.429 . S
C4623 C4617 1.429 . S
C4623 C4624 1.523 . S
C4624 C4605 1.368 . S
C4624 C4618 1.368 . S
C4624 C4623 1.523 . S
C4625 C4609 1.429 . S
C4625 C4621 1.429 . S
C4625 C4626 1.523 . S
C4626 C4610 1.368 . S
C4626 C4622 1.368 . S
C4626 C4625 1.523 . S
H4627 C4602 0.950 . S
H4628 C4604 0.950 . S
H4629 C4605 0.949 . S
H4630 C4607 0.950 . S
H4631 C4609 0.950 . S
C4632 C4633 1.349 . S
C4632 C4634 1.327 . S
C4632 H4657 0.950 . S
C4633 C4632 1.349 . S
C4633 C4649 1.349 . S
C4634 C4632 1.327 . S
C4634 C4653 1.429 . S
C4634 H4658 0.950 . S
C4635 C4652 1.574 . S
C4635 C4654 1.368 . S
C4635 H4659 0.949 . S
H4636 C4640 0.949 . S
C4637 C4638 1.349 . S
C4637 C4639 1.327 . S
C4637 H4660 0.950 . S
C4638 C4637 1.349 . S
C4638 C4650 1.349 . S
C4639 C4637 1.327 . S
C4639 C4655 1.429 . S
C4639 H4661 0.950 . S
C4640 H4636 0.949 . S
C4640 C4648 1.574 . S
C4640 C4656 1.368 . S
H4641 C4649 0.950 . S
H4642 C4647 0.950 . S
H4643 C4648 0.949 . S
H4644 C4650 0.950 . S
H4645 C4651 0.950 . S
H4646 C4652 0.949 . S
C4647 H4642 0.950 . S
C4647 C4649 1.327 . S
C4647 C4653 1.429 . S
C4648 C4640 1.574 . S
C4648 H4643 0.949 . S
C4648 C4654 1.368 . S
C4649 C4633 1.349 . S
C4649 H4641 0.950 . S
C4649 C4647 1.327 . S
C4650 C4638 1.349 . S
C4650 H4644 0.950 . S
C4650 C4651 1.327 . S
C4651 H4645 0.950 . S
C4651 C4650 1.327 . S
C4651 C4655 1.429 . S
C4652 C4635 1.574 . S
C4652 H4646 0.949 . S
C4652 C4656 1.368 . S
C4653 C4634 1.429 . S
C4653 C4647 1.429 . S
C4653 C4654 1.523 . S
C4654 C4635 1.368 . S
C4654 C4648 1.368 . S
C4654 C4653 1.523 . S
C4655 C4639 1.429 . S
C4655 C4651 1.429 . S
C4655 C4656 1.523 . S
C4656 C4640 1.368 . S
C4656 C4652 1.368 . S
C4656 C4655 1.523 . S
H4657 C4632 0.950 . S
H4658 C4634 0.950 . S
H4659 C4635 0.949 . S
H4660 C4637 0.950 . S
H4661 C4639 0.950 . S
C4662 C4663 1.349 . S
C4662 C4664 1.327 . S
C4662 H4687 0.950 . S
C4663 C4662 1.349 . S
C4663 C4679 1.349 . S
C4664 C4662 1.327 . S
C4664 C4683 1.429 . S
C4664 H4688 0.950 . S
C4665 C4682 1.574 . S
C4665 C4684 1.368 . S
C4665 H4689 0.949 . S
H4666 C4670 0.949 . S
C4667 C4668 1.349 . S
C4667 C4669 1.327 . S
C4667 H4690 0.950 . S
C4668 C4667 1.349 . S
C4668 C4680 1.349 . S
C4669 C4667 1.327 . S
C4669 C4685 1.429 . S
C4669 H4691 0.950 . S
C4670 H4666 0.949 . S
C4670 C4678 1.574 . S
C4670 C4686 1.368 . S
H4671 C4679 0.950 . S
H4672 C4677 0.950 . S
H4673 C4678 0.949 . S
H4674 C4680 0.950 . S
H4675 C4681 0.950 . S
H4676 C4682 0.949 . S
C4677 H4672 0.950 . S
C4677 C4679 1.327 . S
C4677 C4683 1.429 . S
C4678 C4670 1.574 . S
C4678 H4673 0.949 . S
C4678 C4684 1.368 . S
C4679 C4663 1.349 . S
C4679 H4671 0.950 . S
C4679 C4677 1.327 . S
C4680 C4668 1.349 . S
C4680 H4674 0.950 . S
C4680 C4681 1.327 . S
C4681 H4675 0.950 . S
C4681 C4680 1.327 . S
C4681 C4685 1.429 . S
C4682 C4665 1.574 . S
C4682 H4676 0.949 . S
C4682 C4686 1.368 . S
C4683 C4664 1.429 . S
C4683 C4677 1.429 . S
C4683 C4684 1.523 . S
C4684 C4665 1.368 . S
C4684 C4678 1.368 . S
C4684 C4683 1.523 . S
C4685 C4669 1.429 . S
C4685 C4681 1.429 . S
C4685 C4686 1.523 . S
C4686 C4670 1.368 . S
C4686 C4682 1.368 . S
C4686 C4685 1.523 . S
H4687 C4662 0.950 . S
H4688 C4664 0.950 . S
H4689 C4665 0.949 . S
H4690 C4667 0.950 . S
H4691 C4669 0.950 . S
C4692 C4693 1.349 . S
C4692 C4694 1.327 . S
C4692 H4717 0.950 . S
C4693 C4692 1.349 . S
C4693 C4709 1.349 . S
C4694 C4692 1.327 . S
C4694 C4713 1.429 . S
C4694 H4718 0.950 . S
C4695 C4712 1.574 . S
C4695 C4714 1.368 . S
C4695 H4719 0.949 . S
H4696 C4700 0.949 . S
C4697 C4698 1.349 . S
C4697 C4699 1.327 . S
C4697 H4720 0.950 . S
C4698 C4697 1.349 . S
C4698 C4710 1.349 . S
C4699 C4697 1.327 . S
C4699 C4715 1.429 . S
C4699 H4721 0.950 . S
C4700 H4696 0.949 . S
C4700 C4708 1.574 . S
C4700 C4716 1.368 . S
H4701 C4709 0.950 . S
H4702 C4707 0.950 . S
H4703 C4708 0.949 . S
H4704 C4710 0.950 . S
H4705 C4711 0.950 . S
H4706 C4712 0.949 . S
C4707 H4702 0.950 . S
C4707 C4709 1.327 . S
C4707 C4713 1.429 . S
C4708 C4700 1.574 . S
C4708 H4703 0.949 . S
C4708 C4714 1.368 . S
C4709 C4693 1.349 . S
C4709 H4701 0.950 . S
C4709 C4707 1.327 . S
C4710 C4698 1.349 . S
C4710 H4704 0.950 . S
C4710 C4711 1.327 . S
C4711 H4705 0.950 . S
C4711 C4710 1.327 . S
C4711 C4715 1.429 . S
C4712 C4695 1.574 . S
C4712 H4706 0.949 . S
C4712 C4716 1.368 . S
C4713 C4694 1.429 . S
C4713 C4707 1.429 . S
C4713 C4714 1.523 . S
C4714 C4695 1.368 . S
C4714 C4708 1.368 . S
C4714 C4713 1.523 . S
C4715 C4699 1.429 . S
C4715 C4711 1.429 . S
C4715 C4716 1.523 . S
C4716 C4700 1.368 . S
C4716 C4712 1.368 . S
C4716 C4715 1.523 . S
H4717 C4692 0.950 . S
H4718 C4694 0.950 . S
H4719 C4695 0.949 . S
H4720 C4697 0.950 . S
H4721 C4699 0.950 . S
C4722 C4723 1.349 . S
C4722 C4724 1.327 . S
C4722 H4747 0.950 . S
C4723 C4722 1.349 . S
C4723 C4739 1.349 . S
C4724 C4722 1.327 . S
C4724 C4743 1.429 . S
C4724 H4748 0.950 . S
C4725 C4742 1.574 . S
C4725 C4744 1.368 . S
C4725 H4749 0.949 . S
H4726 C4730 0.949 . S
C4727 C4728 1.349 . S
C4727 C4729 1.327 . S
C4727 H4750 0.950 . S
C4728 C4727 1.349 . S
C4728 C4740 1.349 . S
C4729 C4727 1.327 . S
C4729 C4745 1.429 . S
C4729 H4751 0.950 . S
C4730 H4726 0.949 . S
C4730 C4738 1.574 . S
C4730 C4746 1.368 . S
H4731 C4739 0.950 . S
H4732 C4737 0.950 . S
H4733 C4738 0.949 . S
H4734 C4740 0.950 . S
H4735 C4741 0.950 . S
H4736 C4742 0.949 . S
C4737 H4732 0.950 . S
C4737 C4739 1.327 . S
C4737 C4743 1.429 . S
C4738 C4730 1.574 . S
C4738 H4733 0.949 . S
C4738 C4744 1.368 . S
C4739 C4723 1.349 . S
C4739 H4731 0.950 . S
C4739 C4737 1.327 . S
C4740 C4728 1.349 . S
C4740 H4734 0.950 . S
C4740 C4741 1.327 . S
C4741 H4735 0.950 . S
C4741 C4740 1.327 . S
C4741 C4745 1.429 . S
C4742 C4725 1.574 . S
C4742 H4736 0.949 . S
C4742 C4746 1.368 . S
C4743 C4724 1.429 . S
C4743 C4737 1.429 . S
C4743 C4744 1.523 . S
C4744 C4725 1.368 . S
C4744 C4738 1.368 . S
C4744 C4743 1.523 . S
C4745 C4729 1.429 . S
C4745 C4741 1.429 . S
C4745 C4746 1.523 . S
C4746 C4730 1.368 . S
C4746 C4742 1.368 . S
C4746 C4745 1.523 . S
H4747 C4722 0.950 . S
H4748 C4724 0.950 . S
H4749 C4725 0.949 . S
H4750 C4727 0.950 . S
H4751 C4729 0.950 . S
C4752 C4753 1.349 . S
C4752 C4754 1.327 . S
C4752 H4777 0.950 . S
C4753 C4752 1.349 . S
C4753 C4769 1.349 . S
C4754 C4752 1.327 . S
C4754 C4773 1.429 . S
C4754 H4778 0.950 . S
C4755 C4772 1.574 . S
C4755 C4774 1.368 . S
C4755 H4779 0.949 . S
H4756 C4760 0.949 . S
C4757 C4758 1.349 . S
C4757 C4759 1.327 . S
C4757 H4780 0.950 . S
C4758 C4757 1.349 . S
C4758 C4770 1.349 . S
C4759 C4757 1.327 . S
C4759 C4775 1.429 . S
C4759 H4781 0.950 . S
C4760 H4756 0.949 . S
C4760 C4768 1.574 . S
C4760 C4776 1.368 . S
H4761 C4769 0.950 . S
H4762 C4767 0.950 . S
H4763 C4768 0.949 . S
H4764 C4770 0.950 . S
H4765 C4771 0.950 . S
H4766 C4772 0.949 . S
C4767 H4762 0.950 . S
C4767 C4769 1.327 . S
C4767 C4773 1.429 . S
C4768 C4760 1.574 . S
C4768 H4763 0.949 . S
C4768 C4774 1.368 . S
C4769 C4753 1.349 . S
C4769 H4761 0.950 . S
C4769 C4767 1.327 . S
C4770 C4758 1.349 . S
C4770 H4764 0.950 . S
C4770 C4771 1.327 . S
C4771 H4765 0.950 . S
C4771 C4770 1.327 . S
C4771 C4775 1.429 . S
C4772 C4755 1.574 . S
C4772 H4766 0.949 . S
C4772 C4776 1.368 . S
C4773 C4754 1.429 . S
C4773 C4767 1.429 . S
C4773 C4774 1.523 . S
C4774 C4755 1.368 . S
C4774 C4768 1.368 . S
C4774 C4773 1.523 . S
C4775 C4759 1.429 . S
C4775 C4771 1.429 . S
C4775 C4776 1.523 . S
C4776 C4760 1.368 . S
C4776 C4772 1.368 . S
C4776 C4775 1.523 . S
H4777 C4752 0.950 . S
H4778 C4754 0.950 . S
H4779 C4755 0.949 . S
H4780 C4757 0.950 . S
H4781 C4759 0.950 . S
C4782 C4783 1.349 . S
C4782 C4784 1.327 . S
C4782 H4807 0.950 . S
C4783 C4782 1.349 . S
C4783 C4799 1.349 . S
C4784 C4782 1.327 . S
C4784 C4803 1.429 . S
C4784 H4808 0.950 . S
C4785 C4802 1.574 . S
C4785 C4804 1.368 . S
C4785 H4809 0.949 . S
H4786 C4790 0.949 . S
C4787 C4788 1.349 . S
C4787 C4789 1.327 . S
C4787 H4810 0.950 . S
C4788 C4787 1.349 . S
C4788 C4800 1.349 . S
C4789 C4787 1.327 . S
C4789 C4805 1.429 . S
C4789 H4811 0.950 . S
C4790 H4786 0.949 . S
C4790 C4798 1.574 . S
C4790 C4806 1.368 . S
H4791 C4799 0.950 . S
H4792 C4797 0.950 . S
H4793 C4798 0.949 . S
H4794 C4800 0.950 . S
H4795 C4801 0.950 . S
H4796 C4802 0.949 . S
C4797 H4792 0.950 . S
C4797 C4799 1.327 . S
C4797 C4803 1.429 . S
C4798 C4790 1.574 . S
C4798 H4793 0.949 . S
C4798 C4804 1.368 . S
C4799 C4783 1.349 . S
C4799 H4791 0.950 . S
C4799 C4797 1.327 . S
C4800 C4788 1.349 . S
C4800 H4794 0.950 . S
C4800 C4801 1.327 . S
C4801 H4795 0.950 . S
C4801 C4800 1.327 . S
C4801 C4805 1.429 . S
C4802 C4785 1.574 . S
C4802 H4796 0.949 . S
C4802 C4806 1.368 . S
C4803 C4784 1.429 . S
C4803 C4797 1.429 . S
C4803 C4804 1.523 . S
C4804 C4785 1.368 . S
C4804 C4798 1.368 . S
C4804 C4803 1.523 . S
C4805 C4789 1.429 . S
C4805 C4801 1.429 . S
C4805 C4806 1.523 . S
C4806 C4790 1.368 . S
C4806 C4802 1.368 . S
C4806 C4805 1.523 . S
H4807 C4782 0.950 . S
H4808 C4784 0.950 . S
H4809 C4785 0.949 . S
H4810 C4787 0.950 . S
H4811 C4789 0.950 . S
C4812 C4813 1.349 . S
C4812 C4814 1.327 . S
C4812 H4837 0.950 . S
C4813 C4812 1.349 . S
C4813 C4829 1.349 . S
C4814 C4812 1.327 . S
C4814 C4833 1.429 . S
C4814 H4838 0.950 . S
C4815 C4832 1.574 . S
C4815 C4834 1.368 . S
C4815 H4839 0.949 . S
H4816 C4820 0.949 . S
C4817 C4818 1.349 . S
C4817 C4819 1.327 . S
C4817 H4840 0.950 . S
C4818 C4817 1.349 . S
C4818 C4830 1.349 . S
C4819 C4817 1.327 . S
C4819 C4835 1.429 . S
C4819 H4841 0.950 . S
C4820 H4816 0.949 . S
C4820 C4828 1.574 . S
C4820 C4836 1.368 . S
H4821 C4829 0.950 . S
H4822 C4827 0.950 . S
H4823 C4828 0.949 . S
H4824 C4830 0.950 . S
H4825 C4831 0.950 . S
H4826 C4832 0.949 . S
C4827 H4822 0.950 . S
C4827 C4829 1.327 . S
C4827 C4833 1.429 . S
C4828 C4820 1.574 . S
C4828 H4823 0.949 . S
C4828 C4834 1.368 . S
C4829 C4813 1.349 . S
C4829 H4821 0.950 . S
C4829 C4827 1.327 . S
C4830 C4818 1.349 . S
C4830 H4824 0.950 . S
C4830 C4831 1.327 . S
C4831 H4825 0.950 . S
C4831 C4830 1.327 . S
C4831 C4835 1.429 . S
C4832 C4815 1.574 . S
C4832 H4826 0.949 . S
C4832 C4836 1.368 . S
C4833 C4814 1.429 . S
C4833 C4827 1.429 . S
C4833 C4834 1.523 . S
C4834 C4815 1.368 . S
C4834 C4828 1.368 . S
C4834 C4833 1.523 . S
C4835 C4819 1.429 . S
C4835 C4831 1.429 . S
C4835 C4836 1.523 . S
C4836 C4820 1.368 . S
C4836 C4832 1.368 . S
C4836 C4835 1.523 . S
H4837 C4812 0.950 . S
H4838 C4814 0.950 . S
H4839 C4815 0.949 . S
H4840 C4817 0.950 . S
H4841 C4819 0.950 . S
C4842 C4843 1.349 . S
C4842 C4844 1.327 . S
C4842 H4867 0.950 . S
C4843 C4842 1.349 . S
C4843 C4859 1.349 . S
C4844 C4842 1.327 . S
C4844 C4863 1.429 . S
C4844 H4868 0.950 . S
C4845 C4862 1.574 . S
C4845 C4864 1.368 . S
C4845 H4869 0.949 . S
H4846 C4850 0.949 . S
C4847 C4848 1.349 . S
C4847 C4849 1.327 . S
C4847 H4870 0.950 . S
C4848 C4847 1.349 . S
C4848 C4860 1.349 . S
C4849 C4847 1.327 . S
C4849 C4865 1.429 . S
C4849 H4871 0.950 . S
C4850 H4846 0.949 . S
C4850 C4858 1.574 . S
C4850 C4866 1.368 . S
H4851 C4859 0.950 . S
H4852 C4857 0.950 . S
H4853 C4858 0.949 . S
H4854 C4860 0.950 . S
H4855 C4861 0.950 . S
H4856 C4862 0.949 . S
C4857 H4852 0.950 . S
C4857 C4859 1.327 . S
C4857 C4863 1.429 . S
C4858 C4850 1.574 . S
C4858 H4853 0.949 . S
C4858 C4864 1.368 . S
C4859 C4843 1.349 . S
C4859 H4851 0.950 . S
C4859 C4857 1.327 . S
C4860 C4848 1.349 . S
C4860 H4854 0.950 . S
C4860 C4861 1.327 . S
C4861 H4855 0.950 . S
C4861 C4860 1.327 . S
C4861 C4865 1.429 . S
C4862 C4845 1.574 . S
C4862 H4856 0.949 . S
C4862 C4866 1.368 . S
C4863 C4844 1.429 . S
C4863 C4857 1.429 . S
C4863 C4864 1.523 . S
C4864 C4845 1.368 . S
C4864 C4858 1.368 . S
C4864 C4863 1.523 . S
C4865 C4849 1.429 . S
C4865 C4861 1.429 . S
C4865 C4866 1.523 . S
C4866 C4850 1.368 . S
C4866 C4862 1.368 . S
C4866 C4865 1.523 . S
H4867 C4842 0.950 . S
H4868 C4844 0.950 . S
H4869 C4845 0.949 . S
H4870 C4847 0.950 . S
H4871 C4849 0.950 . S
C4872 C4873 1.349 . S
C4872 C4874 1.327 . S
C4872 H4897 0.950 . S
C4873 C4872 1.349 . S
C4873 C4889 1.349 . S
C4874 C4872 1.327 . S
C4874 C4893 1.429 . S
C4874 H4898 0.950 . S
C4875 C4892 1.574 . S
C4875 C4894 1.368 . S
C4875 H4899 0.949 . S
H4876 C4880 0.949 . S
C4877 C4878 1.349 . S
C4877 C4879 1.327 . S
C4877 H4900 0.950 . S
C4878 C4877 1.349 . S
C4878 C4890 1.349 . S
C4879 C4877 1.327 . S
C4879 C4895 1.429 . S
C4879 H4901 0.950 . S
C4880 H4876 0.949 . S
C4880 C4888 1.574 . S
C4880 C4896 1.368 . S
H4881 C4889 0.950 . S
H4882 C4887 0.950 . S
H4883 C4888 0.949 . S
H4884 C4890 0.950 . S
H4885 C4891 0.950 . S
H4886 C4892 0.949 . S
C4887 H4882 0.950 . S
C4887 C4889 1.327 . S
C4887 C4893 1.429 . S
C4888 C4880 1.574 . S
C4888 H4883 0.949 . S
C4888 C4894 1.368 . S
C4889 C4873 1.349 . S
C4889 H4881 0.950 . S
C4889 C4887 1.327 . S
C4890 C4878 1.349 . S
C4890 H4884 0.950 . S
C4890 C4891 1.327 . S
C4891 H4885 0.950 . S
C4891 C4890 1.327 . S
C4891 C4895 1.429 . S
C4892 C4875 1.574 . S
C4892 H4886 0.949 . S
C4892 C4896 1.368 . S
C4893 C4874 1.429 . S
C4893 C4887 1.429 . S
C4893 C4894 1.523 . S
C4894 C4875 1.368 . S
C4894 C4888 1.368 . S
C4894 C4893 1.523 . S
C4895 C4879 1.429 . S
C4895 C4891 1.429 . S
C4895 C4896 1.523 . S
C4896 C4880 1.368 . S
C4896 C4892 1.368 . S
C4896 C4895 1.523 . S
H4897 C4872 0.950 . S
H4898 C4874 0.950 . S
H4899 C4875 0.949 . S
H4900 C4877 0.950 . S
H4901 C4879 0.950 . S
C4902 C4903 1.349 . S
C4902 C4904 1.327 . S
C4902 H4927 0.950 . S
C4903 C4902 1.349 . S
C4903 C4919 1.349 . S
C4904 C4902 1.327 . S
C4904 C4923 1.429 . S
C4904 H4928 0.950 . S
C4905 C4922 1.574 . S
C4905 C4924 1.368 . S
C4905 H4929 0.949 . S
H4906 C4910 0.949 . S
C4907 C4908 1.349 . S
C4907 C4909 1.327 . S
C4907 H4930 0.950 . S
C4908 C4907 1.349 . S
C4908 C4920 1.349 . S
C4909 C4907 1.327 . S
C4909 C4925 1.429 . S
C4909 H4931 0.950 . S
C4910 H4906 0.949 . S
C4910 C4918 1.574 . S
C4910 C4926 1.368 . S
H4911 C4919 0.950 . S
H4912 C4917 0.950 . S
H4913 C4918 0.949 . S
H4914 C4920 0.950 . S
H4915 C4921 0.950 . S
H4916 C4922 0.949 . S
C4917 H4912 0.950 . S
C4917 C4919 1.327 . S
C4917 C4923 1.429 . S
C4918 C4910 1.574 . S
C4918 H4913 0.949 . S
C4918 C4924 1.368 . S
C4919 C4903 1.349 . S
C4919 H4911 0.950 . S
C4919 C4917 1.327 . S
C4920 C4908 1.349 . S
C4920 H4914 0.950 . S
C4920 C4921 1.327 . S
C4921 H4915 0.950 . S
C4921 C4920 1.327 . S
C4921 C4925 1.429 . S
C4922 C4905 1.574 . S
C4922 H4916 0.949 . S
C4922 C4926 1.368 . S
C4923 C4904 1.429 . S
C4923 C4917 1.429 . S
C4923 C4924 1.523 . S
C4924 C4905 1.368 . S
C4924 C4918 1.368 . S
C4924 C4923 1.523 . S
C4925 C4909 1.429 . S
C4925 C4921 1.429 . S
C4925 C4926 1.523 . S
C4926 C4910 1.368 . S
C4926 C4922 1.368 . S
C4926 C4925 1.523 . S
H4927 C4902 0.950 . S
H4928 C4904 0.950 . S
H4929 C4905 0.949 . S
H4930 C4907 0.950 . S
H4931 C4909 0.950 . S
C4932 C4933 1.349 . S
C4932 C4934 1.327 . S
C4932 H4957 0.950 . S
C4933 C4932 1.349 . S
C4933 C4949 1.349 . S
C4934 C4932 1.327 . S
C4934 C4953 1.429 . S
C4934 H4958 0.950 . S
C4935 C4952 1.574 . S
C4935 C4954 1.368 . S
C4935 H4959 0.949 . S
H4936 C4940 0.949 . S
C4937 C4938 1.349 . S
C4937 C4939 1.327 . S
C4937 H4960 0.950 . S
C4938 C4937 1.349 . S
C4938 C4950 1.349 . S
C4939 C4937 1.327 . S
C4939 C4955 1.429 . S
C4939 H4961 0.950 . S
C4940 H4936 0.949 . S
C4940 C4948 1.574 . S
C4940 C4956 1.368 . S
H4941 C4949 0.950 . S
H4942 C4947 0.950 . S
H4943 C4948 0.949 . S
H4944 C4950 0.950 . S
H4945 C4951 0.950 . S
H4946 C4952 0.949 . S
C4947 H4942 0.950 . S
C4947 C4949 1.327 . S
C4947 C4953 1.429 . S
C4948 C4940 1.574 . S
C4948 H4943 0.949 . S
C4948 C4954 1.368 . S
C4949 C4933 1.349 . S
C4949 H4941 0.950 . S
C4949 C4947 1.327 . S
C4950 C4938 1.349 . S
C4950 H4944 0.950 . S
C4950 C4951 1.327 . S
C4951 H4945 0.950 . S
C4951 C4950 1.327 . S
C4951 C4955 1.429 . S
C4952 C4935 1.574 . S
C4952 H4946 0.949 . S
C4952 C4956 1.368 . S
C4953 C4934 1.429 . S
C4953 C4947 1.429 . S
C4953 C4954 1.523 . S
C4954 C4935 1.368 . S
C4954 C4948 1.368 . S
C4954 C4953 1.523 . S
C4955 C4939 1.429 . S
C4955 C4951 1.429 . S
C4955 C4956 1.523 . S
C4956 C4940 1.368 . S
C4956 C4952 1.368 . S
C4956 C4955 1.523 . S
H4957 C4932 0.950 . S
H4958 C4934 0.950 . S
H4959 C4935 0.949 . S
H4960 C4937 0.950 . S
H4961 C4939 0.950 . S
C4962 C4963 1.349 . S
C4962 C4964 1.327 . S
C4962 H4987 0.950 . S
C4963 C4962 1.349 . S
C4963 C4979 1.349 . S
C4964 C4962 1.327 . S
C4964 C4983 1.429 . S
C4964 H4988 0.950 . S
C4965 C4982 1.574 . S
C4965 C4984 1.368 . S
C4965 H4989 0.949 . S
H4966 C4970 0.949 . S
C4967 C4968 1.349 . S
C4967 C4969 1.327 . S
C4967 H4990 0.950 . S
C4968 C4967 1.349 . S
C4968 C4980 1.349 . S
C4969 C4967 1.327 . S
C4969 C4985 1.429 . S
C4969 H4991 0.950 . S
C4970 H4966 0.949 . S
C4970 C4978 1.574 . S
C4970 C4986 1.368 . S
H4971 C4979 0.950 . S
H4972 C4977 0.950 . S
H4973 C4978 0.949 . S
H4974 C4980 0.950 . S
H4975 C4981 0.950 . S
H4976 C4982 0.949 . S
C4977 H4972 0.950 . S
C4977 C4979 1.327 . S
C4977 C4983 1.429 . S
C4978 C4970 1.574 . S
C4978 H4973 0.949 . S
C4978 C4984 1.368 . S
C4979 C4963 1.349 . S
C4979 H4971 0.950 . S
C4979 C4977 1.327 . S
C4980 C4968 1.349 . S
C4980 H4974 0.950 . S
C4980 C4981 1.327 . S
C4981 H4975 0.950 . S
C4981 C4980 1.327 . S
C4981 C4985 1.429 . S
C4982 C4965 1.574 . S
C4982 H4976 0.949 . S
C4982 C4986 1.368 . S
C4983 C4964 1.429 . S
C4983 C4977 1.429 . S
C4983 C4984 1.523 . S
C4984 C4965 1.368 . S
C4984 C4978 1.368 . S
C4984 C4983 1.523 . S
C4985 C4969 1.429 . S
C4985 C4981 1.429 . S
C4985 C4986 1.523 . S
C4986 C4970 1.368 . S
C4986 C4982 1.368 . S
C4986 C4985 1.523 . S
H4987 C4962 0.950 . S
H4988 C4964 0.950 . S
H4989 C4965 0.949 . S
H4990 C4967 0.950 . S
H4991 C4969 0.950 . S
C4992 C4993 1.349 . S
C4992 C4994 1.327 . S
C4992 H5017 0.950 . S
C4993 C4992 1.349 . S
C4993 C5009 1.349 . S
C4994 C4992 1.327 . S
C4994 C5013 1.429 . S
C4994 H5018 0.950 . S
C4995 C5012 1.574 . S
C4995 C5014 1.368 . S
C4995 H5019 0.949 . S
H4996 C5000 0.949 . S
C4997 C4998 1.349 . S
C4997 C4999 1.327 . S
C4997 H5020 0.950 . S
C4998 C4997 1.349 . S
C4998 C5010 1.349 . S
C4999 C4997 1.327 . S
C4999 C5015 1.429 . S
C4999 H5021 0.950 . S
C5000 H4996 0.949 . S
C5000 C5008 1.574 . S
C5000 C5016 1.368 . S
H5001 C5009 0.950 . S
H5002 C5007 0.950 . S
H5003 C5008 0.949 . S
H5004 C5010 0.950 . S
H5005 C5011 0.950 . S
H5006 C5012 0.949 . S
C5007 H5002 0.950 . S
C5007 C5009 1.327 . S
C5007 C5013 1.429 . S
C5008 C5000 1.574 . S
C5008 H5003 0.949 . S
C5008 C5014 1.368 . S
C5009 C4993 1.349 . S
C5009 H5001 0.950 . S
C5009 C5007 1.327 . S
C5010 C4998 1.349 . S
C5010 H5004 0.950 . S
C5010 C5011 1.327 . S
C5011 H5005 0.950 . S
C5011 C5010 1.327 . S
C5011 C5015 1.429 . S
C5012 C4995 1.574 . S
C5012 H5006 0.949 . S
C5012 C5016 1.368 . S
C5013 C4994 1.429 . S
C5013 C5007 1.429 . S
C5013 C5014 1.523 . S
C5014 C4995 1.368 . S
C5014 C5008 1.368 . S
C5014 C5013 1.523 . S
C5015 C4999 1.429 . S
C5015 C5011 1.429 . S
C5015 C5016 1.523 . S
C5016 C5000 1.368 . S
C5016 C5012 1.368 . S
C5016 C5015 1.523 . S
H5017 C4992 0.950 . S
H5018 C4994 0.950 . S
H5019 C4995 0.949 . S
H5020 C4997 0.950 . S
H5021 C4999 0.950 . S
C5022 C5023 1.349 . S
C5022 C5024 1.327 . S
C5022 H5047 0.950 . S
C5023 C5022 1.349 . S
C5023 C5039 1.349 . S
C5024 C5022 1.327 . S
C5024 C5043 1.429 . S
C5024 H5048 0.950 . S
C5025 C5042 1.574 . S
C5025 C5044 1.368 . S
C5025 H5049 0.949 . S
H5026 C5030 0.949 . S
C5027 C5028 1.349 . S
C5027 C5029 1.327 . S
C5027 H5050 0.950 . S
C5028 C5027 1.349 . S
C5028 C5040 1.349 . S
C5029 C5027 1.327 . S
C5029 C5045 1.429 . S
C5029 H5051 0.950 . S
C5030 H5026 0.949 . S
C5030 C5038 1.574 . S
C5030 C5046 1.368 . S
H5031 C5039 0.950 . S
H5032 C5037 0.950 . S
H5033 C5038 0.949 . S
H5034 C5040 0.950 . S
H5035 C5041 0.950 . S
H5036 C5042 0.949 . S
C5037 H5032 0.950 . S
C5037 C5039 1.327 . S
C5037 C5043 1.429 . S
C5038 C5030 1.574 . S
C5038 H5033 0.949 . S
C5038 C5044 1.368 . S
C5039 C5023 1.349 . S
C5039 H5031 0.950 . S
C5039 C5037 1.327 . S
C5040 C5028 1.349 . S
C5040 H5034 0.950 . S
C5040 C5041 1.327 . S
C5041 H5035 0.950 . S
C5041 C5040 1.327 . S
C5041 C5045 1.429 . S
C5042 C5025 1.574 . S
C5042 H5036 0.949 . S
C5042 C5046 1.368 . S
C5043 C5024 1.429 . S
C5043 C5037 1.429 . S
C5043 C5044 1.523 . S
C5044 C5025 1.368 . S
C5044 C5038 1.368 . S
C5044 C5043 1.523 . S
C5045 C5029 1.429 . S
C5045 C5041 1.429 . S
C5045 C5046 1.523 . S
C5046 C5030 1.368 . S
C5046 C5042 1.368 . S
C5046 C5045 1.523 . S
H5047 C5022 0.950 . S
H5048 C5024 0.950 . S
H5049 C5025 0.949 . S
H5050 C5027 0.950 . S
H5051 C5029 0.950 . S
C5052 C5053 1.349 . S
C5052 C5054 1.327 . S
C5052 H5077 0.950 . S
C5053 C5052 1.349 . S
C5053 C5069 1.349 . S
C5054 C5052 1.327 . S
C5054 C5073 1.429 . S
C5054 H5078 0.950 . S
C5055 C5072 1.574 . S
C5055 C5074 1.368 . S
C5055 H5079 0.949 . S
H5056 C5060 0.949 . S
C5057 C5058 1.349 . S
C5057 C5059 1.327 . S
C5057 H5080 0.950 . S
C5058 C5057 1.349 . S
C5058 C5070 1.349 . S
C5059 C5057 1.327 . S
C5059 C5075 1.429 . S
C5059 H5081 0.950 . S
C5060 H5056 0.949 . S
C5060 C5068 1.574 . S
C5060 C5076 1.368 . S
H5061 C5069 0.950 . S
H5062 C5067 0.950 . S
H5063 C5068 0.949 . S
H5064 C5070 0.950 . S
H5065 C5071 0.950 . S
H5066 C5072 0.949 . S
C5067 H5062 0.950 . S
C5067 C5069 1.327 . S
C5067 C5073 1.429 . S
C5068 C5060 1.574 . S
C5068 H5063 0.949 . S
C5068 C5074 1.368 . S
C5069 C5053 1.349 . S
C5069 H5061 0.950 . S
C5069 C5067 1.327 . S
C5070 C5058 1.349 . S
C5070 H5064 0.950 . S
C5070 C5071 1.327 . S
C5071 H5065 0.950 . S
C5071 C5070 1.327 . S
C5071 C5075 1.429 . S
C5072 C5055 1.574 . S
C5072 H5066 0.949 . S
C5072 C5076 1.368 . S
C5073 C5054 1.429 . S
C5073 C5067 1.429 . S
C5073 C5074 1.523 . S
C5074 C5055 1.368 . S
C5074 C5068 1.368 . S
C5074 C5073 1.523 . S
C5075 C5059 1.429 . S
C5075 C5071 1.429 . S
C5075 C5076 1.523 . S
C5076 C5060 1.368 . S
C5076 C5072 1.368 . S
C5076 C5075 1.523 . S
H5077 C5052 0.950 . S
H5078 C5054 0.950 . S
H5079 C5055 0.949 . S
H5080 C5057 0.950 . S
H5081 C5059 0.950 . S
C5082 C5083 1.349 . S
C5082 C5084 1.327 . S
C5082 H5107 0.950 . S
C5083 C5082 1.349 . S
C5083 C5099 1.349 . S
C5084 C5082 1.327 . S
C5084 C5103 1.429 . S
C5084 H5108 0.950 . S
C5085 C5102 1.574 . S
C5085 C5104 1.368 . S
C5085 H5109 0.949 . S
H5086 C5090 0.949 . S
C5087 C5088 1.349 . S
C5087 C5089 1.327 . S
C5087 H5110 0.950 . S
C5088 C5087 1.349 . S
C5088 C5100 1.349 . S
C5089 C5087 1.327 . S
C5089 C5105 1.429 . S
C5089 H5111 0.950 . S
C5090 H5086 0.949 . S
C5090 C5098 1.574 . S
C5090 C5106 1.368 . S
H5091 C5099 0.950 . S
H5092 C5097 0.950 . S
H5093 C5098 0.949 . S
H5094 C5100 0.950 . S
H5095 C5101 0.950 . S
H5096 C5102 0.949 . S
C5097 H5092 0.950 . S
C5097 C5099 1.327 . S
C5097 C5103 1.429 . S
C5098 C5090 1.574 . S
C5098 H5093 0.949 . S
C5098 C5104 1.368 . S
C5099 C5083 1.349 . S
C5099 H5091 0.950 . S
C5099 C5097 1.327 . S
C5100 C5088 1.349 . S
C5100 H5094 0.950 . S
C5100 C5101 1.327 . S
C5101 H5095 0.950 . S
C5101 C5100 1.327 . S
C5101 C5105 1.429 . S
C5102 C5085 1.574 . S
C5102 H5096 0.949 . S
C5102 C5106 1.368 . S
C5103 C5084 1.429 . S
C5103 C5097 1.429 . S
C5103 C5104 1.523 . S
C5104 C5085 1.368 . S
C5104 C5098 1.368 . S
C5104 C5103 1.523 . S
C5105 C5089 1.429 . S
C5105 C5101 1.429 . S
C5105 C5106 1.523 . S
C5106 C5090 1.368 . S
C5106 C5102 1.368 . S
C5106 C5105 1.523 . S
H5107 C5082 0.950 . S
H5108 C5084 0.950 . S
H5109 C5085 0.949 . S
H5110 C5087 0.950 . S
H5111 C5089 0.950 . S
C5112 C5113 1.349 . S
C5112 C5114 1.327 . S
C5112 H5137 0.950 . S
C5113 C5112 1.349 . S
C5113 C5129 1.349 . S
C5114 C5112 1.327 . S
C5114 C5133 1.429 . S
C5114 H5138 0.950 . S
C5115 C5132 1.574 . S
C5115 C5134 1.368 . S
C5115 H5139 0.949 . S
H5116 C5120 0.949 . S
C5117 C5118 1.349 . S
C5117 C5119 1.327 . S
C5117 H5140 0.950 . S
C5118 C5117 1.349 . S
C5118 C5130 1.349 . S
C5119 C5117 1.327 . S
C5119 C5135 1.429 . S
C5119 H5141 0.950 . S
C5120 H5116 0.949 . S
C5120 C5128 1.574 . S
C5120 C5136 1.368 . S
H5121 C5129 0.950 . S
H5122 C5127 0.950 . S
H5123 C5128 0.949 . S
H5124 C5130 0.950 . S
H5125 C5131 0.950 . S
H5126 C5132 0.949 . S
C5127 H5122 0.950 . S
C5127 C5129 1.327 . S
C5127 C5133 1.429 . S
C5128 C5120 1.574 . S
C5128 H5123 0.949 . S
C5128 C5134 1.368 . S
C5129 C5113 1.349 . S
C5129 H5121 0.950 . S
C5129 C5127 1.327 . S
C5130 C5118 1.349 . S
C5130 H5124 0.950 . S
C5130 C5131 1.327 . S
C5131 H5125 0.950 . S
C5131 C5130 1.327 . S
C5131 C5135 1.429 . S
C5132 C5115 1.574 . S
C5132 H5126 0.949 . S
C5132 C5136 1.368 . S
C5133 C5114 1.429 . S
C5133 C5127 1.429 . S
C5133 C5134 1.523 . S
C5134 C5115 1.368 . S
C5134 C5128 1.368 . S
C5134 C5133 1.523 . S
C5135 C5119 1.429 . S
C5135 C5131 1.429 . S
C5135 C5136 1.523 . S
C5136 C5120 1.368 . S
C5136 C5132 1.368 . S
C5136 C5135 1.523 . S
H5137 C5112 0.950 . S
H5138 C5114 0.950 . S
H5139 C5115 0.949 . S
H5140 C5117 0.950 . S
H5141 C5119 0.950 . S
C5142 C5143 1.349 . S
C5142 C5144 1.327 . S
C5142 H5167 0.950 . S
C5143 C5142 1.349 . S
C5143 C5159 1.349 . S
C5144 C5142 1.327 . S
C5144 C5163 1.429 . S
C5144 H5168 0.950 . S
C5145 C5162 1.574 . S
C5145 C5164 1.368 . S
C5145 H5169 0.949 . S
H5146 C5150 0.949 . S
C5147 C5148 1.349 . S
C5147 C5149 1.327 . S
C5147 H5170 0.950 . S
C5148 C5147 1.349 . S
C5148 C5160 1.349 . S
C5149 C5147 1.327 . S
C5149 C5165 1.429 . S
C5149 H5171 0.950 . S
C5150 H5146 0.949 . S
C5150 C5158 1.574 . S
C5150 C5166 1.368 . S
H5151 C5159 0.950 . S
H5152 C5157 0.950 . S
H5153 C5158 0.949 . S
H5154 C5160 0.950 . S
H5155 C5161 0.950 . S
H5156 C5162 0.949 . S
C5157 H5152 0.950 . S
C5157 C5159 1.327 . S
C5157 C5163 1.429 . S
C5158 C5150 1.574 . S
C5158 H5153 0.949 . S
C5158 C5164 1.368 . S
C5159 C5143 1.349 . S
C5159 H5151 0.950 . S
C5159 C5157 1.327 . S
C5160 C5148 1.349 . S
C5160 H5154 0.950 . S
C5160 C5161 1.327 . S
C5161 H5155 0.950 . S
C5161 C5160 1.327 . S
C5161 C5165 1.429 . S
C5162 C5145 1.574 . S
C5162 H5156 0.949 . S
C5162 C5166 1.368 . S
C5163 C5144 1.429 . S
C5163 C5157 1.429 . S
C5163 C5164 1.523 . S
C5164 C5145 1.368 . S
C5164 C5158 1.368 . S
C5164 C5163 1.523 . S
C5165 C5149 1.429 . S
C5165 C5161 1.429 . S
C5165 C5166 1.523 . S
C5166 C5150 1.368 . S
C5166 C5162 1.368 . S
C5166 C5165 1.523 . S
H5167 C5142 0.950 . S
H5168 C5144 0.950 . S
H5169 C5145 0.949 . S
H5170 C5147 0.950 . S
H5171 C5149 0.950 . S
C5172 C5173 1.349 . S
C5172 C5174 1.327 . S
C5172 H5197 0.950 . S
C5173 C5172 1.349 . S
C5173 C5189 1.349 . S
C5174 C5172 1.327 . S
C5174 C5193 1.429 . S
C5174 H5198 0.950 . S
C5175 C5192 1.574 . S
C5175 C5194 1.368 . S
C5175 H5199 0.949 . S
H5176 C5180 0.949 . S
C5177 C5178 1.349 . S
C5177 C5179 1.327 . S
C5177 H5200 0.950 . S
C5178 C5177 1.349 . S
C5178 C5190 1.349 . S
C5179 C5177 1.327 . S
C5179 C5195 1.429 . S
C5179 H5201 0.950 . S
C5180 H5176 0.949 . S
C5180 C5188 1.574 . S
C5180 C5196 1.368 . S
H5181 C5189 0.950 . S
H5182 C5187 0.950 . S
H5183 C5188 0.949 . S
H5184 C5190 0.950 . S
H5185 C5191 0.950 . S
H5186 C5192 0.949 . S
C5187 H5182 0.950 . S
C5187 C5189 1.327 . S
C5187 C5193 1.429 . S
C5188 C5180 1.574 . S
C5188 H5183 0.949 . S
C5188 C5194 1.368 . S
C5189 C5173 1.349 . S
C5189 H5181 0.950 . S
C5189 C5187 1.327 . S
C5190 C5178 1.349 . S
C5190 H5184 0.950 . S
C5190 C5191 1.327 . S
C5191 H5185 0.950 . S
C5191 C5190 1.327 . S
C5191 C5195 1.429 . S
C5192 C5175 1.574 . S
C5192 H5186 0.949 . S
C5192 C5196 1.368 . S
C5193 C5174 1.429 . S
C5193 C5187 1.429 . S
C5193 C5194 1.523 . S
C5194 C5175 1.368 . S
C5194 C5188 1.368 . S
C5194 C5193 1.523 . S
C5195 C5179 1.429 . S
C5195 C5191 1.429 . S
C5195 C5196 1.523 . S
C5196 C5180 1.368 . S
C5196 C5192 1.368 . S
C5196 C5195 1.523 . S
H5197 C5172 0.950 . S
H5198 C5174 0.950 . S
H5199 C5175 0.949 . S
H5200 C5177 0.950 . S
H5201 C5179 0.950 . S
C5202 C5203 1.349 . S
C5202 C5204 1.327 . S
C5202 H5227 0.950 . S
C5203 C5202 1.349 . S
C5203 C5219 1.349 . S
C5204 C5202 1.327 . S
C5204 C5223 1.429 . S
C5204 H5228 0.950 . S
C5205 C5222 1.574 . S
C5205 C5224 1.368 . S
C5205 H5229 0.949 . S
H5206 C5210 0.949 . S
C5207 C5208 1.349 . S
C5207 C5209 1.327 . S
C5207 H5230 0.950 . S
C5208 C5207 1.349 . S
C5208 C5220 1.349 . S
C5209 C5207 1.327 . S
C5209 C5225 1.429 . S
C5209 H5231 0.950 . S
C5210 H5206 0.949 . S
C5210 C5218 1.574 . S
C5210 C5226 1.368 . S
H5211 C5219 0.950 . S
H5212 C5217 0.950 . S
H5213 C5218 0.949 . S
H5214 C5220 0.950 . S
H5215 C5221 0.950 . S
H5216 C5222 0.949 . S
C5217 H5212 0.950 . S
C5217 C5219 1.327 . S
C5217 C5223 1.429 . S
C5218 C5210 1.574 . S
C5218 H5213 0.949 . S
C5218 C5224 1.368 . S
C5219 C5203 1.349 . S
C5219 H5211 0.950 . S
C5219 C5217 1.327 . S
C5220 C5208 1.349 . S
C5220 H5214 0.950 . S
C5220 C5221 1.327 . S
C5221 H5215 0.950 . S
C5221 C5220 1.327 . S
C5221 C5225 1.429 . S
C5222 C5205 1.574 . S
C5222 H5216 0.949 . S
C5222 C5226 1.368 . S
C5223 C5204 1.429 . S
C5223 C5217 1.429 . S
C5223 C5224 1.523 . S
C5224 C5205 1.368 . S
C5224 C5218 1.368 . S
C5224 C5223 1.523 . S
C5225 C5209 1.429 . S
C5225 C5221 1.429 . S
C5225 C5226 1.523 . S
C5226 C5210 1.368 . S
C5226 C5222 1.368 . S
C5226 C5225 1.523 . S
H5227 C5202 0.950 . S
H5228 C5204 0.950 . S
H5229 C5205 0.949 . S
H5230 C5207 0.950 . S
H5231 C5209 0.950 . S
C1633 C1087 0.561 . S
C1638 C33 0.561 . S
C1663 C67 0.561 . S
C1668 C985 0.561 . S
C1693 C101 0.561 . S
C1698 C1019 0.561 . S
C1723 C1053 0.561 . S
C1728 C135 0.561 . S
C1753 C883 0.561 . S
C1758 C169 0.561 . S
C1783 C917 0.561 . S
C1788 C203 0.561 . S
C1813 C237 0.561 . S
C1818 C951 0.561 . S
C1843 C271 0.561 . S
C1848 C849 0.561 . S
C1873 C305 0.561 . S
C1878 C1529 0.561 . S
C1903 C339 0.561 . S
C1908 C1427 0.561 . S
C1933 C373 0.561 . S
C1938 C1461 0.561 . S
C1963 C407 0.561 . S
C1968 C1495 0.561 . S
C1993 C1631 0.561 . S
C1998 C441 0.561 . S
C2023 C475 0.561 . S
C2028 C1563 0.561 . S
C2053 C509 0.561 . S
C2058 C1597 0.561 . S
C2083 C1393 0.561 . S
C2088 C543 0.561 . S
C2113 C577 0.561 . S
C2118 C1359 0.561 . S
C2143 C1155 0.561 . S
C2148 C611 0.561 . S
C2173 C1189 0.561 . S
C2178 C645 0.561 . S
C2203 C1223 0.561 . S
C2208 C679 0.561 . S
C2233 C713 0.561 . S
C2238 C1121 0.561 . S
C2263 C747 0.561 . S
C2268 C1291 0.561 . S
C2293 C1325 0.561 . S
C2298 C781 0.561 . S
C2323 C815 0.561 . S
C2328 C1257 0.561 . S
C2353 C70 1.714 . S
C2358 C2 1.714 . S
C2383 C36 1.714 . S
C2388 C104 1.714 . S
C2413 C206 1.714 . S
C2418 C138 1.714 . S
C2443 C240 1.714 . S
C2448 C172 1.714 . S
C2473 C274 1.714 . S
C2478 C410 1.714 . S
C2503 C444 1.714 . S
C2508 C308 1.714 . S
C2533 C478 1.714 . S
C2538 C342 1.714 . S
C2563 C512 1.714 . S
C2568 C376 1.714 . S
C2593 C648 1.714 . S
C2598 C546 1.714 . S
C2623 C580 1.714 . S
C2628 C716 1.714 . S
C2653 C614 1.714 . S
C2658 C750 1.714 . S
C2683 C682 1.714 . S
C2688 C784 1.714 . S
C2713 C886 1.714 . S
C2718 C818 1.714 . S
C2743 C920 1.714 . S
C2748 C852 1.714 . S
C2773 C1022 1.714 . S
C2778 C954 1.714 . S
C2803 C1056 1.714 . S
C2808 C988 1.714 . S
C2833 C1090 1.714 . S
C2838 C1226 1.714 . S
C2863 C1124 1.714 . S
C2868 C1260 1.714 . S
C2893 C1294 1.714 . S
C2898 C1158 1.714 . S
C2923 C1328 1.714 . S
C2928 C1192 1.714 . S
C2953 C1362 1.714 . S
C2958 C1464 1.714 . S
C2983 C1532 1.714 . S
C2988 C1396 1.714 . S
C3013 C1566 1.714 . S
C3018 C1430 1.714 . S
C3043 C1600 1.714 . S
C3048 C1498 1.714 . S
C3073 C753 1.016 . S
C3078 C5 1.016 . S
C3103 C39 1.016 . S
C3108 C549 1.016 . S
C3133 C73 1.016 . S
C3138 C787 1.016 . S
C3163 C107 1.016 . S
C3168 C719 1.016 . S
C3193 C141 1.016 . S
C3198 C617 1.016 . S
C3223 C651 1.016 . S
C3228 C175 1.016 . S
C3253 C209 1.016 . S
C3258 C685 1.016 . S
C3283 C243 1.016 . S
C3288 C583 1.016 . S
C3313 C277 1.016 . S
C3318 C447 1.016 . S
C3343 C481 1.016 . S
C3348 C311 1.016 . S
C3373 C515 1.016 . S
C3378 C345 1.016 . S
C3403 C413 1.016 . S
C3408 C379 1.016 . S
C3433 C821 1.016 . S
C3438 C1569 1.016 . S
C3463 C1365 1.016 . S
C3468 C855 1.016 . S
C3493 C1603 1.016 . S
C3498 C889 1.016 . S
C3523 C923 1.016 . S
C3528 C1535 1.016 . S
C3553 C1433 1.016 . S
C3558 C957 1.016 . S
C3583 C1467 1.016 . S
C3588 C991 1.016 . S
C3613 C1501 1.016 . S
C3618 C1025 1.016 . S
C3643 C1059 1.016 . S
C3648 C1399 1.016 . S
C3673 C1093 1.016 . S
C3678 C1263 1.016 . S
C3703 C1127 1.016 . S
C3708 C1297 1.016 . S
C3733 C1331 1.016 . S
C3738 C1161 1.016 . S
C3763 C1229 1.016 . S
C3768 C1195 1.016 . S
C3793 C20 1.743 . S
C3798 C621 1.789 1_554 S
C3823 C655 1.789 1_554 S
C3828 C54 1.743 . S
C3853 C88 1.743 . S
C3858 C689 1.789 1_554 S
C3883 C587 1.789 1_554 S
C3888 C122 1.743 . S
C3913 C156 1.743 . S
C3918 C757 1.789 1_556 S
C3943 C553 1.789 1_556 S
C3948 C190 1.743 . S
C3973 C791 1.789 1_556 S
C3978 C224 1.743 . S
C4003 C258 1.743 . S
C4008 C723 1.789 1_556 S
C4033 C315 1.789 1_455 S
C4038 C292 1.743 . S
C4063 C326 1.743 . S
C4068 C349 1.789 1_545 S
C4093 C360 1.743 . S
C4098 C383 1.789 1_655 S
C4123 C281 1.789 1_565 S
C4128 C394 1.743 . S
C4153 C428 1.743 . S
C4158 C519 1.789 1_455 S
C4183 C462 1.743 . S
C4188 C417 1.789 1_545 S
C4213 C496 1.743 . S
C4218 C451 1.789 1_655 S
C4243 C485 1.789 1_565 S
C4248 C530 1.743 . S
C4273 C111 1.789 1_545 S
C4278 C564 1.743 . S
C4303 C598 1.743 . S
C4308 C179 1.789 1_565 S
C4333 C213 1.789 1_455 S
C4338 C632 1.743 . S
C4363 C247 1.789 1_545 S
C4368 C666 1.743 . S
C4393 C700 1.743 . S
C4398 C145 1.789 1_655 S
C4423 C43 1.789 1_565 S
C4428 C734 1.743 . S
C4453 C768 1.743 . S
C4458 C77 1.789 1_455 S
C4483 C9 1.789 1_655 S
C4488 C802 1.743 . S
C4513 C836 1.743 . S
C4518 C1437 1.789 . S
C4543 C1471 1.789 . S
C4548 C870 1.743 . S
C4573 C904 1.743 . S
C4578 C1505 1.789 . S
C4603 C1403 1.789 . S
C4608 C938 1.743 . S
C4633 C972 1.743 . S
C4638 C1573 1.789 . S
C4663 C1006 1.743 . S
C4668 C1369 1.789 . S
C4693 C1040 1.743 . S
C4698 C1607 1.789 . S
C4723 C1539 1.789 . S
C4728 C1074 1.743 . S
C4753 C1108 1.743 . S
C4758 C1131 1.789 . S
C4783 C1165 1.789 . S
C4788 C1142 1.743 . S
C4813 C1199 1.789 . S
C4818 C1176 1.743 . S
C4843 C1210 1.743 . S
C4848 C1097 1.789 . S
C4873 C1244 1.743 . S
C4878 C1335 1.789 . S
C4903 C1278 1.743 . S
C4908 C1233 1.789 . S
C4933 C1312 1.743 . S
C4938 C1267 1.789 . S
C4963 C1346 1.743 . S
C4968 C1301 1.789 . S
C4993 C1380 1.743 . S
C4998 C927 1.789 . S
C5023 C995 1.789 . S
C5028 C1414 1.743 . S
C5053 C1029 1.789 . S
C5058 C1448 1.743 . S
C5083 C1063 1.789 . S
C5088 C1482 1.743 . S
C5113 C961 1.789 . S
C5118 C1516 1.743 . S
C5143 C859 1.789 . S
C5148 C1550 1.743 . S
C5173 C893 1.789 . S
C5178 C1584 1.743 . S
C5203 C825 1.789 . S
C5208 C1618 1.743 . S
