# Generated by pormake.
# Topology uon, (4)-cn, num edge types: 1
# Building blocks:
#     Node 0, Type 0, BuildingBlock: NAWXER_clean_sbu_0, # of connection points: 4
#     Node 1, Type 0, BuildingBlock: NAWXER_clean_sbu_0, # of connection points: 4
#     Node 2, Type 0, BuildingBlock: NAWXER_clean_sbu_0, # of connection points: 4
#     Node 3, Type 0, BuildingBlock: NAWXER_clean_sbu_0, # of connection points: 4
#     Node 4, Type 0, BuildingBlock: NAWXER_clean_sbu_0, # of connection points: 4
#     Node 5, Type 0, BuildingBlock: NAWXER_clean_sbu_0, # of connection points: 4
#     Edge 6, Type (0, 0), BuildingBlock: ZUJKAS_clean_linker_0, # of connection points: 2
#     Edge 7, Type (0, 0), BuildingBlock: ZUJKAS_clean_linker_0, # of connection points: 2
#     Edge 8, Type (0, 0), BuildingBlock: ZUJKAS_clean_linker_0, # of connection points: 2
#     Edge 9, Type (0, 0), BuildingBlock: ZUJKAS_clean_linker_0, # of connection points: 2
#     Edge 10, Type (0, 0), BuildingBlock: ZUJKAS_clean_linker_0, # of connection points: 2
#     Edge 11, Type (0, 0), BuildingBlock: ZUJKAS_clean_linker_0, # of connection points: 2
#     Edge 12, Type (0, 0), BuildingBlock: ZUJKAS_clean_linker_0, # of connection points: 2
#     Edge 13, Type (0, 0), BuildingBlock: ZUJKAS_clean_linker_0, # of connection points: 2
#     Edge 14, Type (0, 0), BuildingBlock: ZUJKAS_clean_linker_0, # of connection points: 2
#     Edge 15, Type (0, 0), BuildingBlock: ZUJKAS_clean_linker_0, # of connection points: 2
#     Edge 16, Type (0, 0), BuildingBlock: ZUJKAS_clean_linker_0, # of connection points: 2
#     Edge 17, Type (0, 0), BuildingBlock: ZUJKAS_clean_linker_0, # of connection points: 2
# Relax obj value: 0.135
# Max RMSD: 0.134
# Mean RMSD: 0.134
data_MOF--net-uon--node1-NAWXER_clean_sbu_0--edge1-ZUJKAS_clean_linker_0
_symmetry_space_group_name_H-M    P1
_symmetry_Int_Tables_number       1
_symmetry_cell_setting            triclinic
loop_
_symmetry_equiv_pos_as_xyz
'x, y, z'
_cell_length_a     44.770344
_cell_length_b     44.884874
_cell_length_c     28.350001
_cell_angle_alpha  90.317375
_cell_angle_beta   89.827517
_cell_angle_gamma 120.05067
loop_
_atom_site_label
_atom_site_type_symbol
_atom_site_fract_x
_atom_site_fract_y
_atom_site_fract_z
_atom_type_partial_charge
C0 C 0.18923 0.38098 0.12871 0.0
C1 C 0.27585 0.47888 0.03809 0.0
O2 O 0.22107 0.39983 0.1386 0.0
Zn3 Zn 0.23437 0.42824 0.08236 0.0
O4 O 0.17781 0.38496 0.08922 0.0
Zn5 Zn 0.19666 0.41802 0.02904 0.0
O6 O 0.19213 0.38767 0.97681 0.0
O7 O 0.23351 0.39584 0.0262 0.0
O8 O 0.24632 0.46273 0.01781 0.0
O9 O 0.28072 0.46757 0.07665 0.0
O10 O 0.20415 0.45279 0.09166 0.0
O11 O 0.16789 0.43921 0.03194 0.0
C12 C 0.21658 0.38246 0.98811 0.0
C13 C 0.1799 0.45494 0.07091 0.0
C14 C 0.78811 0.163 0.39824 0.0
C15 C 0.81028 0.26715 0.31482 0.0
O16 O 0.80525 0.19041 0.42303 0.0
Zn17 Zn 0.82661 0.2448 0.41517 0.0
O18 O 0.78041 0.16543 0.35586 0.0
Zn19 Zn 0.80084 0.21499 0.35423 0.0
O20 O 0.85528 0.23416 0.35546 0.0
O21 O 0.87608 0.26347 0.42146 0.0
O22 O 0.79552 0.2366 0.29846 0.0
O23 O 0.82283 0.27305 0.35668 0.0
O24 O 0.80124 0.25436 0.4631 0.0
O25 O 0.76914 0.22342 0.40316 0.0
C26 C 0.88104 0.25228 0.38265 0.0
C27 C 0.77202 0.23871 0.44263 0.0
C28 C 0.61666 0.84983 0.66135 0.0
C29 C 0.53006 0.7531 0.75318 0.0
O30 O 0.60811 0.82066 0.64215 0.0
Zn31 Zn 0.57354 0.76695 0.65705 0.0
O32 O 0.60332 0.85062 0.70063 0.0
Zn33 Zn 0.57364 0.80165 0.70779 0.0
O34 O 0.60921 0.78349 0.72158 0.0
O35 O 0.60352 0.74801 0.66357 0.0
O36 O 0.54333 0.78504 0.76203 0.0
O37 O 0.53899 0.74346 0.71563 0.0
O38 O 0.54289 0.75286 0.60332 0.0
O39 O 0.53819 0.78978 0.64996 0.0
C40 C 0.61762 0.76283 0.70216 0.0
C41 C 0.52918 0.77111 0.6125 0.0
C42 C 0.78584 0.62581 0.98028 0.0
C43 C 0.80647 0.54359 0.06571 0.0
O44 O 0.80397 0.61615 0.95653 0.0
Zn45 Zn 0.82478 0.5826 0.96567 0.0
O46 O 0.77631 0.61467 0.02192 0.0
Zn47 Zn 0.79714 0.58602 0.02496 0.0
O48 O 0.85163 0.62166 0.02595 0.0
O49 O 0.87423 0.61344 0.96142 0.0
O50 O 0.79064 0.55867 0.08078 0.0
O51 O 0.82012 0.55069 0.02451 0.0
O52 O 0.8007 0.54762 0.91725 0.0
O53 O 0.76684 0.54678 0.97461 0.0
C54 C 0.87809 0.62947 1.00007 0.0
C55 C 0.77082 0.53452 0.93572 0.0
C56 C 0.27412 0.79872 0.34427 0.0
C57 C 0.18501 0.80884 0.25839 0.0
O58 O 0.27748 0.81393 0.30525 0.0
Zn59 Zn 0.23099 0.80689 0.30216 0.0
O60 O 0.24514 0.78535 0.36603 0.0
Zn61 Zn 0.19488 0.77914 0.35687 0.0
O62 O 0.16669 0.72908 0.35422 0.0
O63 O 0.20049 0.7523 0.29219 0.0
O64 O 0.17439 0.79332 0.29801 0.0
O65 O 0.21668 0.82207 0.24728 0.0
O66 O 0.23033 0.8383 0.35891 0.0
O67 O 0.19097 0.80435 0.41013 0.0
C68 C 0.17717 0.72579 0.31378 0.0
C69 C 0.21424 0.83435 0.39797 0.0
C70 C 0.46022 0.24288 0.76393 0.0
C71 C 0.37259 0.14057 0.68078 0.0
O72 O 0.45126 0.24966 0.72432 0.0
Zn73 Zn 0.41619 0.22277 0.66752 0.0
O74 O 0.44518 0.21203 0.77877 0.0
Zn75 Zn 0.41467 0.19174 0.72493 0.0
O76 O 0.45246 0.20115 0.6715 0.0
O77 O 0.449 0.23369 0.61622 0.0
O78 O 0.38494 0.14236 0.72166 0.0
O79 O 0.38187 0.16839 0.6577 0.0
O80 O 0.3868 0.24297 0.66848 0.0
O81 O 0.37994 0.21155 0.73152 0.0
C82 C 0.46337 0.21763 0.63264 0.0
C83 C 0.37214 0.23098 0.70784 0.0
H84 H 0.17938 0.33675 0.9171 0.0
H85 H 0.19802 0.30459 0.86619 0.0
H86 H 0.29711 0.35377 0.93549 0.0
H87 H 0.27824 0.38447 0.98742 0.0
H88 H 0.24714 0.32318 0.80301 0.0
H89 H 0.27419 0.25651 0.94481 0.0
H90 H 0.25183 0.2799 0.95583 0.0
H91 H 0.29836 0.30207 0.95438 0.0
C92 C 0.205 0.34036 0.9217 0.0
C93 C 0.22711 0.36274 0.95681 0.0
C94 C 0.21566 0.32204 0.89255 0.0
C95 C 0.24871 0.326 0.89774 0.0
C96 C 0.27107 0.34917 0.93185 0.0
H97 H 0.37185 0.29105 0.69453 0.0
H98 H 0.33784 0.31119 0.73743 0.0
C99 C 0.26027 0.36693 0.96141 0.0
C100 C 0.26049 0.30684 0.86696 0.0
H101 H 0.30206 0.26064 0.87042 0.0
C102 C 0.2587 0.30906 0.81772 0.0
C103 C 0.27481 0.2876 0.88589 0.0
C104 C 0.27453 0.28105 0.93812 0.0
C105 C 0.27222 0.29395 0.78709 0.0
C106 C 0.28919 0.27725 0.8062 0.0
C107 C 0.2896 0.27382 0.85541 0.0
C108 C 0.30758 0.26391 0.77645 0.0
C109 C 0.26773 0.29583 0.73468 0.0
C110 C 0.30264 0.23083 0.78442 0.0
C111 C 0.32292 0.21975 0.76103 0.0
C112 C 0.34816 0.24122 0.72842 0.0
C113 C 0.35222 0.27374 0.71893 0.0
C114 C 0.33253 0.28518 0.74326 0.0
H115 H 0.24412 0.29714 0.72684 0.0
H116 H 0.29008 0.31959 0.72062 0.0
H117 H 0.266 0.27326 0.71584 0.0
H118 H 0.28365 0.21384 0.80976 0.0
H119 H 0.3192 0.19454 0.76902 0.0
H120 H 0.94244 0.28917 0.4307 0.0
H121 H 1.00054 0.3061 0.40196 0.0
H122 H 0.9573 0.25304 0.27069 0.0
H123 H 0.89948 0.23541 0.29931 0.0
H124 H 0.00865 0.24198 0.30265 0.0
H125 H 0.05172 0.38179 0.30596 0.0
H126 H 0.0372 0.35995 0.36138 0.0
H127 H 0.00714 0.34909 0.31361 0.0
C128 C 0.94532 0.28094 0.39584 0.0
C129 C 0.91627 0.26115 0.36721 0.0
C130 C 0.97856 0.29079 0.37936 0.0
C131 C 0.98335 0.28133 0.33383 0.0
C132 C 0.95431 0.26072 0.30589 0.0
H133 H 0.12468 0.32696 0.11348 0.0
H134 H 0.07832 0.29933 0.17121 0.0
C135 C 0.92119 0.25074 0.32233 0.0
C136 C 0.01838 0.2936 0.31399 0.0
H137 H 0.0907 0.36598 0.2761 0.0
C138 C 0.02678 0.26913 0.29739 0.0
C139 C 0.04212 0.32904 0.30717 0.0
C140 C 0.03414 0.35656 0.32257 0.0
C141 C 0.05765 0.27906 0.27279 0.0
C142 C 0.08062 0.31436 0.26427 0.0
C143 C 0.0731 0.33892 0.2829 0.0
C144 C 0.11029 0.32632 0.23139 0.0
C145 C 0.06508 0.25166 0.25523 0.0
C146 C 0.14394 0.35023 0.24607 0.0
C147 C 0.17069 0.36597 0.213 0.0
C148 C 0.16399 0.35852 0.16463 0.0
C149 C 0.1307 0.33317 0.15048 0.0
C150 C 0.10416 0.31723 0.18351 0.0
H151 H 0.05132 0.22783 0.27657 0.0
H152 H 0.05605 0.24499 0.21823 0.0
H153 H 0.09318 0.26085 0.25606 0.0
H154 H 0.14915 0.3578 0.28282 0.0
H155 H 0.19595 0.38566 0.22495 0.0
H156 H 0.8053 0.1498 0.48476 0.0
H157 H 0.77995 0.09473 0.52555 0.0
H158 H 0.71652 0.04397 0.40417 0.0
H159 H 0.74166 0.09922 0.36293 0.0
H160 H 0.67986 0.02995 0.48968 0.0
H161 H 0.79237 0.01063 0.5071 0.0
H162 H 0.80057 0.05226 0.52636 0.0
H163 H 0.79121 0.04027 0.46528 0.0
C164 C 0.78633 0.12689 0.46634 0.0
C165 C 0.77547 0.12895 0.42054 0.0
C166 C 0.77202 0.09537 0.48969 0.0
C167 C 0.74663 0.06521 0.46773 0.0
C168 C 0.73625 0.06696 0.42162 0.0
H169 H 0.65143 0.85696 0.57888 0.0
H170 H 0.68394 0.90915 0.532 0.0
C171 C 0.7507 0.09852 0.39807 0.0
C172 C 0.72908 0.03251 0.49445 0.0
H173 H 0.74331 0.97516 0.555 0.0
C174 C 0.69366 0.01781 0.50365 0.0
C175 C 0.74712 0.01665 0.51243 0.0
C176 C 0.78486 0.03053 0.50199 0.0
C177 C 0.67596 0.98814 0.53136 0.0
C178 C 0.69427 0.97302 0.55081 0.0
C179 C 0.72948 0.98713 0.54056 0.0
C180 C 0.67698 0.94215 0.5812 0.0
C181 C 0.63774 0.97306 0.5394 0.0
C182 C 0.66317 0.94367 0.62507 0.0
C183 C 0.64465 0.91391 0.6521 0.0
C184 C 0.6396 0.88208 0.63567 0.0
C185 C 0.65469 0.881 0.59252 0.0
C186 C 0.6733 0.91079 0.56565 0.0
H187 H 0.62617 0.98298 0.51369 0.0
H188 H 0.62404 0.94454 0.53677 0.0
H189 H 0.63344 0.98004 0.57539 0.0
H190 H 0.6662 0.96779 0.638 0.0
H191 H 0.63348 0.9157 0.68519 0.0
H192 H 0.81949 0.67457 0.91325 0.0
H193 H 0.79753 0.7061 0.86877 0.0
H194 H 0.70229 0.65481 0.9476 0.0
H195 H 0.72517 0.62503 0.99411 0.0
H196 H 0.74845 0.68322 0.81071 0.0
H197 H 0.71529 0.74808 0.94981 0.0
H198 H 0.74023 0.72758 0.96208 0.0
H199 H 0.69371 0.70275 0.96062 0.0
C200 C 0.79419 0.67072 0.92179 0.0
C201 C 0.77412 0.64761 0.95734 0.0
C202 C 0.78159 0.68864 0.89624 0.0
C203 C 0.74834 0.6833 0.90505 0.0
C204 C 0.72842 0.6604 0.94102 0.0
H205 H 0.61993 0.70343 0.69586 0.0
H206 H 0.65416 0.68651 0.74374 0.0
C207 C 0.74142 0.64318 0.96746 0.0
C208 C 0.73354 0.69936 0.87402 0.0
H209 H 0.68688 0.74057 0.87492 0.0
C210 C 0.73546 0.69623 0.82488 0.0
C211 C 0.71708 0.71698 0.89207 0.0
C212 C 0.71683 0.72438 0.94402 0.0
C213 C 0.72058 0.7092 0.79351 0.0
C214 C 0.70175 0.72434 0.81169 0.0
C215 C 0.70079 0.7285 0.86077 0.0
C216 C 0.68216 0.73528 0.78076 0.0
C217 C 0.72578 0.70691 0.74127 0.0
C218 C 0.68559 0.76799 0.78633 0.0
C219 C 0.66522 0.77731 0.75992 0.0
C220 C 0.64139 0.75431 0.72686 0.0
C221 C 0.63854 0.72193 0.72044 0.0
C222 C 0.6583 0.71231 0.74766 0.0
H223 H 0.75029 0.70708 0.73414 0.0
H224 H 0.70442 0.6823 0.72729 0.0
H225 H 0.72628 0.72853 0.72177 0.0
H226 H 0.70369 0.78618 0.81167 0.0
H227 H 0.66788 0.80241 0.76569 0.0
H228 H 0.94032 0.6557 0.95377 0.0
H229 H 0.99769 0.69689 0.98458 0.0
H230 H 0.95177 0.70324 0.11544 0.0
H231 H 0.89463 0.66309 0.0847 0.0
H232 H 1.00285 0.76633 0.08691 0.0
H233 H 0.04825 0.67146 0.07984 0.0
H234 H 0.03456 0.67978 0.02445 0.0
H235 H 1.00366 0.65915 0.07099 0.0
C236 C 0.94246 0.66606 0.98899 0.0
C237 C 0.91286 0.65585 0.01687 0.0
C238 C 0.97528 0.68945 0.00665 0.0
C239 C 0.97911 0.70271 0.05266 0.0
C240 C 0.94951 0.69334 0.07989 0.0
H241 H 0.11963 0.79565 0.27558 0.0
H242 H 0.07285 0.77691 0.21849 0.0
C243 C 0.9168 0.67024 0.06223 0.0
C244 C 0.01373 0.72538 0.07367 0.0
H245 H 0.08655 0.72604 0.11098 0.0
C246 C 0.02132 0.75767 0.09169 0.0
C247 C 0.03788 0.71412 0.07992 0.0
C248 C 0.03071 0.67915 0.06318 0.0
C249 C 0.05186 0.77848 0.11697 0.0
C250 C 0.07533 0.76663 0.12462 0.0
C251 C 0.06856 0.73513 0.10479 0.0
C252 C 0.10495 0.7843 0.15749 0.0
C253 C 0.05847 0.81267 0.1361 0.0
C254 C 0.13876 0.7954 0.14211 0.0
C255 C 0.16573 0.80642 0.17477 0.0
C256 C 0.15912 0.80582 0.22341 0.0
C257 C 0.12559 0.7965 0.23837 0.0
C258 C 0.0988 0.78589 0.20573 0.0
H259 H 0.04399 0.82254 0.11599 0.0
H260 H 0.0498 0.80946 0.17338 0.0
H261 H 0.08641 0.83212 0.13503 0.0
H262 H 0.14398 0.79411 0.10504 0.0
H263 H 0.19118 0.8131 0.16215 0.0
H264 H 0.35401 0.07622 0.71402 0.0
H265 H 0.32111 0.02113 0.6724 0.0
H266 H 0.3068 0.07311 0.55473 0.0
H267 H 0.3394 0.12818 0.59597 0.0
H268 H 0.24626 0.00866 0.58076 0.0
H269 H 0.36421 0.9983 0.55723 0.0
H270 H 0.35422 0.00442 0.61672 0.0
H271 H 0.3661 0.03803 0.57422 0.0
C272 C 0.34352 0.07591 0.67953 0.0
C273 C 0.34963 0.10671 0.65818 0.0
C274 C 0.32484 0.04441 0.65573 0.0
C275 C 0.31192 0.04312 0.61024 0.0
C276 C 0.31663 0.07355 0.58976 0.0
H277 H 0.26353 0.90106 0.38167 0.0
H278 H 0.28419 0.95006 0.43537 0.0
C279 C 0.33537 0.10504 0.61339 0.0
C280 C 0.29524 0.01055 0.58267 0.0
H281 H 0.31236 0.95329 0.52634 0.0
C282 C 0.26056 0.99633 0.56914 0.0
C283 C 0.31413 0.99481 0.56714 0.0
C284 C 0.3518 0.00969 0.57915 0.0
C285 C 0.24435 0.96686 0.54019 0.0
C286 C 0.2633 0.95121 0.52462 0.0
C287 C 0.29785 0.96526 0.53856 0.0
C288 C 0.24863 0.92148 0.49151 0.0
C289 C 0.20745 0.95331 0.52518 0.0
C290 C 0.22151 0.88909 0.50511 0.0
C291 C 0.20953 0.86082 0.47435 0.0
C292 C 0.22459 0.86449 0.42952 0.0
C293 C 0.25128 0.8972 0.41585 0.0
C294 C 0.26322 0.9253 0.44655 0.0
H295 H 0.19845 0.97179 0.53326 0.0
H296 H 0.2045 0.94763 0.48675 0.0
H297 H 0.19051 0.92895 0.54407 0.0
H298 H 0.21019 0.88548 0.53991 0.0
H299 H 0.18905 0.83598 0.4861 0.0
H300 H 0.16034 0.71275 0.22192 0.0
H301 H 0.14542 0.66021 0.17797 0.0
H302 H 0.14924 0.61143 0.30684 0.0
H303 H 0.16255 0.66376 0.35134 0.0
H304 H 0.18772 0.63728 0.16842 0.0
H305 H 0.06752 0.53241 0.24559 0.0
H306 H 0.08221 0.57724 0.25734 0.0
H307 H 0.09978 0.5551 0.28975 0.0
C308 C 0.15705 0.69044 0.24101 0.0
C309 C 0.16262 0.69216 0.2899 0.0
C310 C 0.14853 0.66044 0.21589 0.0
C311 C 0.14602 0.63169 0.23897 0.0
C312 C 0.15016 0.63289 0.2883 0.0
H313 H 0.18342 0.47153 0.16347 0.0
H314 H 0.16851 0.51151 0.20047 0.0
C315 C 0.15796 0.66282 0.31372 0.0
C316 C 0.14379 0.60271 0.21053 0.0
H317 H 0.1022 0.51504 0.2005 0.0
C318 C 0.16851 0.61061 0.17486 0.0
C319 C 0.11884 0.56784 0.2189 0.0
C320 C 0.09038 0.55766 0.25466 0.0
C321 C 0.16982 0.58472 0.1487 0.0
C322 C 0.14576 0.54991 0.15832 0.0
C323 C 0.12048 0.54184 0.1931 0.0
C324 C 0.14939 0.52193 0.13639 0.0
C325 C 0.19798 0.59465 0.11242 0.0
C326 C 0.14271 0.5139 0.08819 0.0
C327 C 0.15113 0.49081 0.06677 0.0
C328 C 0.16672 0.47592 0.09329 0.0
C329 C 0.17185 0.48294 0.14194 0.0
C330 C 0.16312 0.50558 0.16328 0.0
H331 H 0.21672 0.62275 0.11255 0.0
H332 H 0.21218 0.58069 0.11896 0.0
H333 H 0.18629 0.58722 0.07676 0.0
H334 H 0.13208 0.52634 0.06694 0.0
H335 H 0.14686 0.48582 0.02927 0.0
H336 H 0.49981 0.18763 0.66231 0.0
H337 H 0.55268 0.19356 0.6293 0.0
H338 H 0.54988 0.25722 0.518 0.0
H339 H 0.4969 0.25208 0.55167 0.0
H340 H 0.56503 0.17472 0.5445 0.0
H341 H 0.64749 0.31596 0.56912 0.0
H342 H 0.60555 0.29146 0.59625 0.0
H343 H 0.60912 0.30316 0.5351 0.0
C344 C 0.51026 0.2029 0.63073 0.0
C345 C 0.4941 0.21952 0.60974 0.0
C346 C 0.54059 0.20627 0.61193 0.0
C347 C 0.5556 0.2263 0.57167 0.0
C348 C 0.53917 0.24228 0.54976 0.0
H349 H 0.70933 0.21415 0.40095 0.0
H350 H 0.65796 0.21231 0.43289 0.0
C351 C 0.50873 0.23904 0.56876 0.0
C352 C 0.58807 0.22961 0.55266 0.0
H353 H 0.67242 0.28756 0.5279 0.0
C354 C 0.58849 0.19941 0.54087 0.0
C355 C 0.61885 0.26179 0.54879 0.0
C356 C 0.62049 0.29495 0.56337 0.0
C357 C 0.61869 0.20047 0.52491 0.0
C358 C 0.64917 0.23269 0.51949 0.0
C359 C 0.64895 0.26292 0.53181 0.0
C360 C 0.6812 0.23539 0.49991 0.0
C361 C 0.61777 0.16696 0.51479 0.0
C362 C 0.71184 0.2501 0.52642 0.0
C363 C 0.74163 0.25148 0.50804 0.0
C364 C 0.74118 0.23821 0.46281 0.0
C365 C 0.71057 0.22421 0.43615 0.0
C366 C 0.68104 0.22302 0.45439 0.0
H367 H 0.59611 0.14508 0.53348 0.0
H368 H 0.61404 0.16145 0.47638 0.0
H369 H 0.6423 0.16833 0.52535 0.0
H370 H 0.71254 0.26001 0.56157 0.0
H371 H 0.76481 0.26258 0.52934 0.0
H372 H 0.50932 0.68481 0.75494 0.0
H373 H 0.46815 0.64104 0.80838 0.0
H374 H 0.45275 0.71757 0.87925 0.0
H375 H 0.495 0.76201 0.82658 0.0
H376 H 0.45688 0.67388 0.94167 0.0
H377 H 0.36519 0.59874 0.79908 0.0
H378 H 0.40734 0.6046 0.78886 0.0
H379 H 0.40131 0.64138 0.78976 0.0
C380 C 0.49714 0.6924 0.78178 0.0
C381 C 0.50512 0.72685 0.78612 0.0
C382 C 0.47349 0.66727 0.81223 0.0
C383 C 0.45673 0.67583 0.84713 0.0
C384 C 0.46519 0.71034 0.85235 0.0
H385 H 0.26802 0.52113 0.97779 0.0
H386 H 0.31273 0.57099 0.93622 0.0
C387 C 0.48925 0.73567 0.82216 0.0
C388 C 0.43019 0.64859 0.87769 0.0
H389 H 0.35532 0.57128 0.8736 0.0
C390 C 0.43451 0.65153 0.92689 0.0
C391 C 0.40075 0.61967 0.85842 0.0
C392 C 0.39313 0.61603 0.80618 0.0
C393 C 0.41049 0.62603 0.95727 0.0
C394 C 0.38184 0.59641 0.9378 0.0
C395 C 0.37741 0.59379 0.88862 0.0
C396 C 0.35534 0.56813 0.96728 0.0
C397 C 0.4157 0.63149 0.00983 0.0
C398 C 0.36429 0.55005 0.99932 0.0
C399 C 0.3386 0.52168 0.02389 0.0
C400 C 0.30356 0.51048 0.01592 0.0
C401 C 0.29478 0.52894 0.98441 0.0
C402 C 0.32035 0.5575 0.96061 0.0
H403 H 0.43236 0.65917 0.01885 0.0
H404 H 0.39068 0.62153 0.02852 0.0
H405 H 0.42861 0.61757 0.02304 0.0
H406 H 0.39102 0.55717 0.00428 0.0
H407 H 0.34608 0.50777 0.0477 0.0
H408 H 0.77883 0.51914 0.15345 0.0
H409 H 0.78046 0.47309 0.19766 0.0
H410 H 0.83852 0.46087 0.08515 0.0
H411 H 0.83756 0.50684 0.04132 0.0
H412 H 0.75509 0.40452 0.17062 0.0
H413 H 0.89625 0.47044 0.20117 0.0
H414 H 0.87455 0.49307 0.18235 0.0
H415 H 0.88503 0.46956 0.14026 0.0
C416 C 0.79223 0.50686 0.13838 0.0
C417 C 0.80824 0.51685 0.09399 0.0
C418 C 0.79304 0.48051 0.16359 0.0
C419 C 0.81004 0.46393 0.14494 0.0
C420 C 0.8259 0.4738 0.10065 0.0
H421 H 0.78464 0.26516 0.22603 0.0
H422 H 0.78426 0.31259 0.18402 0.0
C423 C 0.82517 0.50005 0.07555 0.0
C424 C 0.8105 0.43559 0.17089 0.0
H425 H 0.86475 0.41014 0.21598 0.0
C426 C 0.77902 0.40577 0.18085 0.0
C427 C 0.84177 0.43745 0.18448 0.0
C428 C 0.87631 0.46947 0.17696 0.0
C429 C 0.778 0.37746 0.20334 0.0
C430 C 0.80934 0.37886 0.21536 0.0
C431 C 0.84077 0.40893 0.20612 0.0
C432 C 0.81016 0.35009 0.23961 0.0
C433 C 0.74339 0.34659 0.21476 0.0
C434 C 0.82587 0.35573 0.28397 0.0
C435 C 0.82649 0.32892 0.30771 0.0
C436 C 0.81143 0.29578 0.28757 0.0
C437 C 0.79635 0.29031 0.24259 0.0
C438 C 0.79584 0.31731 0.21873 0.0
H439 H 0.7224 0.35296 0.21404 0.0
H440 H 0.73726 0.3261 0.18816 0.0
H441 H 0.74374 0.33618 0.25007 0.0
H442 H 0.83724 0.38086 0.30063 0.0
H443 H 0.83838 0.33414 0.34225 0.0
H444 H 0.33927 0.82166 0.3082 0.0
H445 H 0.38588 0.81544 0.34361 0.0
H446 H 0.32063 0.76353 0.4628 0.0
H447 H 0.27416 0.76913 0.42782 0.0
H448 H 0.41901 0.8398 0.4293 0.0
H449 H 0.35409 0.69773 0.42447 0.0
H450 H 0.33895 0.7216 0.39081 0.0
H451 H 0.32779 0.71253 0.4522 0.0
C452 C 0.33485 0.80879 0.34184 0.0
C453 C 0.30289 0.79573 0.365 0.0
C454 C 0.36147 0.80523 0.36198 0.0
C455 C 0.35646 0.78836 0.40536 0.0
C456 C 0.32479 0.7758 0.42872 0.0
H457 H 0.49328 0.80493 0.62477 0.0
H458 H 0.45393 0.8092 0.56964 0.0
C459 C 0.29829 0.77929 0.40874 0.0
C460 C 0.38454 0.78496 0.42773 0.0
H461 H 0.40133 0.72627 0.47919 0.0
C462 C 0.41538 0.81496 0.43958 0.0
C463 C 0.38009 0.75252 0.44041 0.0
C464 C 0.34858 0.71926 0.42586 0.0
C465 C 0.44105 0.81347 0.4661 0.0
C466 C 0.43539 0.78117 0.48193 0.0
C467 C 0.40543 0.75107 0.46773 0.0
C468 C 0.45932 0.77822 0.51521 0.0
C469 C 0.47386 0.84657 0.47726 0.0
C470 C 0.47445 0.75824 0.50374 0.0
C471 C 0.49677 0.75538 0.53555 0.0
C472 C 0.5042 0.77235 0.57949 0.0
C473 C 0.48838 0.79172 0.59114 0.0
C474 C 0.46607 0.79446 0.55946 0.0
H475 H 0.47902 0.86675 0.45077 0.0
H476 H 0.47123 0.85628 0.5122 0.0
H477 H 0.4964 0.84257 0.47852 0.0
H478 H 0.46929 0.74517 0.46997 0.0
H479 H 0.50849 0.74025 0.52548 0.0
H480 H 0.50411 0.23753 0.82618 0.0
H481 H 0.55871 0.28471 0.85678 0.0
H482 H 0.53845 0.35836 0.78822 0.0
H483 H 0.48466 0.31152 0.75658 0.0
H484 H 0.6022 0.37032 0.76858 0.0
H485 H 0.57925 0.35344 0.96172 0.0
H486 H 0.57389 0.3159 0.93127 0.0
H487 H 0.54498 0.33181 0.91922 0.0
C488 C 0.51101 0.26383 0.81853 0.0
C489 C 0.49012 0.27084 0.78903 0.0
C490 C 0.54222 0.29077 0.83602 0.0
C491 C 0.55264 0.32513 0.82498 0.0
C492 C 0.53106 0.33209 0.79703 0.0
H493 H 0.70347 0.51338 0.95254 0.0
H494 H 0.6528 0.46181 0.92327 0.0
C495 C 0.50023 0.30528 0.77915 0.0
C496 C 0.58668 0.35398 0.8402 0.0
H497 H 0.63496 0.39582 0.93703 0.0
C498 C 0.60942 0.37588 0.80543 0.0
C499 C 0.59602 0.36123 0.88826 0.0
C500 C 0.57218 0.33958 0.92735 0.0
C501 C 0.64081 0.40529 0.81739 0.0
C502 C 0.65017 0.41253 0.86545 0.0
C503 C 0.62783 0.39014 0.90016 0.0
C504 C 0.68158 0.44453 0.88095 0.0
C505 C 0.6629 0.42904 0.77854 0.0
C506 C 0.71479 0.45233 0.86643 0.0
C507 C 0.74402 0.48229 0.88269 0.0
C508 C 0.74046 0.50453 0.91435 0.0
C509 C 0.70716 0.49673 0.92834 0.0
C510 C 0.67811 0.46716 0.91175 0.0
H511 H 0.64823 0.42425 0.74514 0.0
H512 H 0.67351 0.45641 0.78886 0.0
H513 H 0.68486 0.42474 0.77157 0.0
H514 H 0.71816 0.43493 0.84336 0.0
H515 H 0.76936 0.48745 0.87172 0.0
loop_
_geom_bond_atom_site_label_1
_geom_bond_atom_site_label_2
_geom_bond_distance
_geom_bond_site_symmetry_2
_ccdc_geom_bond_type
C0 O2 1.247 . S
C0 O4 1.258 . S
C1 O8 1.247 . S
C1 O9 1.258 1_556 S
O2 C0 1.247 . S
O2 Zn3 2.028 . S
Zn3 O2 2.028 . S
Zn3 O7 2.035 . S
Zn3 O9 2.035 . S
Zn3 O10 2.028 . S
O4 C0 1.258 . S
O4 Zn5 2.035 1_554 S
Zn5 O4 2.035 1_556 S
Zn5 O6 2.028 . S
Zn5 O8 2.028 . S
Zn5 O11 2.035 1_556 S
O6 Zn5 2.028 . S
O6 C12 1.247 . S
O7 Zn3 2.035 . S
O7 C12 1.258 1_554 S
O8 C1 1.247 . S
O8 Zn5 2.028 . S
O9 C1 1.258 1_554 S
O9 Zn3 2.035 . S
O10 Zn3 2.028 . S
O10 C13 1.247 . S
O11 Zn5 2.035 1_554 S
O11 C13 1.258 . S
C12 O6 1.247 . S
C12 O7 1.258 1_556 S
C13 O10 1.247 . S
C13 O11 1.258 . S
C14 O16 1.247 . S
C14 O18 1.258 . S
C15 O22 1.247 . S
C15 O23 1.258 . S
O16 C14 1.247 . S
O16 Zn17 2.028 . S
Zn17 O16 2.028 . S
Zn17 O21 2.035 . S
Zn17 O23 2.035 . S
Zn17 O24 2.028 . S
O18 C14 1.258 . S
O18 Zn19 2.035 . S
Zn19 O18 2.035 . S
Zn19 O20 2.028 . S
Zn19 O22 2.028 . S
Zn19 O25 2.035 . S
O20 Zn19 2.028 . S
O20 C26 1.247 . S
O21 Zn17 2.035 . S
O21 C26 1.258 . S
O22 C15 1.247 . S
O22 Zn19 2.028 . S
O23 C15 1.258 . S
O23 Zn17 2.035 . S
O24 Zn17 2.028 . S
O24 C27 1.247 . S
O25 Zn19 2.035 . S
O25 C27 1.258 . S
C26 O20 1.247 . S
C26 O21 1.258 . S
C27 O24 1.247 . S
C27 O25 1.258 . S
C28 O30 1.247 . S
C28 O32 1.258 . S
C29 O36 1.247 . S
C29 O37 1.258 . S
O30 C28 1.247 . S
O30 Zn31 2.028 . S
Zn31 O30 2.028 . S
Zn31 O35 2.035 . S
Zn31 O37 2.035 . S
Zn31 O38 2.028 . S
O32 C28 1.258 . S
O32 Zn33 2.035 . S
Zn33 O32 2.035 . S
Zn33 O34 2.028 . S
Zn33 O36 2.028 . S
Zn33 O39 2.035 . S
O34 Zn33 2.028 . S
O34 C40 1.247 . S
O35 Zn31 2.035 . S
O35 C40 1.258 . S
O36 C29 1.247 . S
O36 Zn33 2.028 . S
O37 C29 1.258 . S
O37 Zn31 2.035 . S
O38 Zn31 2.028 . S
O38 C41 1.247 . S
O39 Zn33 2.035 . S
O39 C41 1.258 . S
C40 O34 1.247 . S
C40 O35 1.258 . S
C41 O38 1.247 . S
C41 O39 1.258 . S
C42 O44 1.247 . S
C42 O46 1.258 1_556 S
C43 O50 1.247 . S
C43 O51 1.258 . S
O44 C42 1.247 . S
O44 Zn45 2.028 . S
Zn45 O44 2.028 . S
Zn45 O49 2.035 1_556 S
Zn45 O51 2.035 1_556 S
Zn45 O52 2.028 . S
O46 C42 1.258 1_554 S
O46 Zn47 2.035 . S
Zn47 O46 2.035 . S
Zn47 O48 2.028 . S
Zn47 O50 2.028 . S
Zn47 O53 2.035 . S
O48 Zn47 2.028 . S
O48 C54 1.247 . S
O49 Zn45 2.035 1_554 S
O49 C54 1.258 . S
O50 C43 1.247 . S
O50 Zn47 2.028 . S
O51 C43 1.258 . S
O51 Zn45 2.035 1_554 S
O52 Zn45 2.028 . S
O52 C55 1.247 . S
O53 Zn47 2.035 . S
O53 C55 1.258 1_554 S
C54 O48 1.247 . S
C54 O49 1.258 . S
C55 O52 1.247 . S
C55 O53 1.258 1_556 S
C56 O58 1.247 . S
C56 O60 1.258 . S
C57 O64 1.247 . S
C57 O65 1.258 . S
O58 C56 1.247 . S
O58 Zn59 2.028 . S
Zn59 O58 2.028 . S
Zn59 O63 2.035 . S
Zn59 O65 2.035 . S
Zn59 O66 2.028 . S
O60 C56 1.258 . S
O60 Zn61 2.035 . S
Zn61 O60 2.035 . S
Zn61 O62 2.028 . S
Zn61 O64 2.028 . S
Zn61 O67 2.035 . S
O62 Zn61 2.028 . S
O62 C68 1.247 . S
O63 Zn59 2.035 . S
O63 C68 1.258 . S
O64 C57 1.247 . S
O64 Zn61 2.028 . S
O65 C57 1.258 . S
O65 Zn59 2.035 . S
O66 Zn59 2.028 . S
O66 C69 1.247 . S
O67 Zn61 2.035 . S
O67 C69 1.258 . S
C68 O62 1.247 . S
C68 O63 1.258 . S
C69 O66 1.247 . S
C69 O67 1.258 . S
C70 O72 1.247 . S
C70 O74 1.258 . S
C71 O78 1.247 . S
C71 O79 1.258 . S
O72 C70 1.247 . S
O72 Zn73 2.028 . S
Zn73 O72 2.028 . S
Zn73 O77 2.035 . S
Zn73 O79 2.035 . S
Zn73 O80 2.028 . S
O74 C70 1.258 . S
O74 Zn75 2.035 . S
Zn75 O74 2.035 . S
Zn75 O76 2.028 . S
Zn75 O78 2.028 . S
Zn75 O81 2.035 . S
O76 Zn75 2.028 . S
O76 C82 1.247 . S
O77 Zn73 2.035 . S
O77 C82 1.258 . S
O78 C71 1.247 . S
O78 Zn75 2.028 . S
O79 C71 1.258 . S
O79 Zn73 2.035 . S
O80 Zn73 2.028 . S
O80 C83 1.247 . S
O81 Zn75 2.035 . S
O81 C83 1.258 . S
C82 O76 1.247 . S
C82 O77 1.258 . S
C83 O80 1.247 . S
C83 O81 1.258 . S
H84 C92 0.929 . S
H85 C94 0.930 . S
H86 C96 0.930 . S
H87 C99 0.929 . S
H88 C102 0.930 . S
H89 C104 0.960 . S
H90 C104 0.960 . S
H91 C104 0.960 . S
C92 H84 0.929 . S
C92 C93 1.377 . S
C92 C94 1.384 . S
C93 C92 1.377 . S
C93 C99 1.390 . S
C94 H85 0.930 . S
C94 C92 1.384 . S
C94 C95 1.372 . S
C95 C94 1.372 . S
C95 C96 1.400 . S
C95 C100 1.490 . S
C96 H86 0.930 . S
C96 C95 1.400 . S
C96 C99 1.386 . S
H97 C113 0.930 . S
H98 C114 0.931 . S
C99 H87 0.929 . S
C99 C93 1.390 . S
C99 C96 1.386 . S
C100 C95 1.490 . S
C100 C102 1.395 . S
C100 C103 1.403 . S
H101 C107 0.930 . S
C102 H88 0.930 . S
C102 C100 1.395 . S
C102 C105 1.403 . S
C103 C100 1.403 . S
C103 C104 1.524 . S
C103 C107 1.400 . S
C104 H89 0.960 . S
C104 H90 0.960 . S
C104 H91 0.960 . S
C104 C103 1.524 . S
C105 C102 1.403 . S
C105 C106 1.392 . S
C105 C109 1.495 . S
C106 C105 1.392 . S
C106 C107 1.385 . S
C106 C108 1.478 . S
C107 H101 0.930 . S
C107 C103 1.400 . S
C107 C106 1.385 . S
C108 C106 1.478 . S
C108 C110 1.381 . S
C108 C114 1.383 . S
C109 C105 1.495 . S
C109 H115 0.959 . S
C109 H116 0.961 . S
C109 H117 0.960 . S
C110 C108 1.381 . S
C110 C111 1.394 . S
C110 H118 0.930 . S
C111 C110 1.394 . S
C111 C112 1.383 . S
C111 H119 0.929 . S
C112 C111 1.383 . S
C112 C113 1.377 . S
C113 H97 0.930 . S
C113 C112 1.377 . S
C113 C114 1.379 . S
C114 H98 0.931 . S
C114 C108 1.383 . S
C114 C113 1.379 . S
H115 C109 0.959 . S
H116 C109 0.961 . S
H117 C109 0.960 . S
H118 C110 0.930 . S
H119 C111 0.929 . S
H120 C128 0.929 . S
H121 C130 0.930 . S
H122 C132 0.930 . S
H123 C135 0.929 . S
H124 C138 0.930 . S
H125 C140 0.960 . S
H126 C140 0.960 . S
H127 C140 0.960 . S
C128 H120 0.929 . S
C128 C129 1.377 . S
C128 C130 1.384 . S
C129 C128 1.377 . S
C129 C135 1.390 . S
C130 H121 0.930 . S
C130 C128 1.384 . S
C130 C131 1.372 . S
C131 C130 1.372 . S
C131 C132 1.400 . S
C131 C136 1.490 . S
C132 H122 0.930 . S
C132 C131 1.400 . S
C132 C135 1.386 . S
H133 C149 0.930 . S
H134 C150 0.931 . S
C135 H123 0.929 . S
C135 C129 1.390 . S
C135 C132 1.386 . S
C136 C131 1.490 . S
C136 C138 1.395 . S
C136 C139 1.403 . S
H137 C143 0.930 . S
C138 H124 0.930 . S
C138 C136 1.395 . S
C138 C141 1.403 1_655 S
C139 C136 1.403 . S
C139 C140 1.524 . S
C139 C143 1.400 1_655 S
C140 H125 0.960 . S
C140 H126 0.960 . S
C140 H127 0.960 . S
C140 C139 1.524 . S
C141 C138 1.403 1_455 S
C141 C142 1.392 . S
C141 C145 1.495 . S
C142 C141 1.392 . S
C142 C143 1.385 . S
C142 C144 1.478 . S
C143 H137 0.930 . S
C143 C139 1.400 1_455 S
C143 C142 1.385 . S
C144 C142 1.478 . S
C144 C146 1.381 . S
C144 C150 1.383 . S
C145 C141 1.495 . S
C145 H151 0.959 . S
C145 H152 0.961 . S
C145 H153 0.960 . S
C146 C144 1.381 . S
C146 C147 1.394 . S
C146 H154 0.930 . S
C147 C146 1.394 . S
C147 C148 1.383 . S
C147 H155 0.929 . S
C148 C147 1.383 . S
C148 C149 1.377 . S
C149 H133 0.930 . S
C149 C148 1.377 . S
C149 C150 1.379 . S
C150 H134 0.931 . S
C150 C144 1.383 . S
C150 C149 1.379 . S
H151 C145 0.959 . S
H152 C145 0.961 . S
H153 C145 0.960 . S
H154 C146 0.930 . S
H155 C147 0.929 . S
H156 C164 0.929 . S
H157 C166 0.930 . S
H158 C168 0.930 . S
H159 C171 0.929 . S
H160 C174 0.930 . S
H161 C176 0.960 . S
H162 C176 0.960 1_545 S
H163 C176 0.960 1_545 S
C164 H156 0.929 . S
C164 C165 1.377 . S
C164 C166 1.384 . S
C165 C164 1.377 . S
C165 C171 1.390 . S
C166 H157 0.930 . S
C166 C164 1.384 . S
C166 C167 1.372 . S
C167 C166 1.372 . S
C167 C168 1.400 . S
C167 C172 1.490 . S
C168 H158 0.930 . S
C168 C167 1.400 . S
C168 C171 1.386 . S
H169 C185 0.930 . S
H170 C186 0.931 . S
C171 H159 0.929 . S
C171 C165 1.390 . S
C171 C168 1.386 . S
C172 C167 1.490 . S
C172 C174 1.395 . S
C172 C175 1.432 . S
H173 C179 0.930 . S
C174 H160 0.930 . S
C174 C172 1.395 . S
C174 C177 1.403 . S
C175 C172 1.432 . S
C175 C176 1.516 1_545 S
C175 C179 1.378 1_545 S
C176 H161 0.960 . S
C176 H162 0.960 1_565 S
C176 H163 0.960 1_565 S
C176 C175 1.516 1_565 S
C177 C174 1.403 . S
C177 C178 1.392 1_545 S
C177 C181 1.495 . S
C178 C177 1.392 1_565 S
C178 C179 1.385 . S
C178 C180 1.478 . S
C179 H173 0.930 . S
C179 C175 1.378 1_565 S
C179 C178 1.385 . S
C180 C178 1.478 . S
C180 C182 1.381 . S
C180 C186 1.383 . S
C181 C177 1.495 . S
C181 H187 0.959 . S
C181 H188 0.961 1_545 S
C181 H189 0.960 1_545 S
C182 C180 1.381 . S
C182 C183 1.394 . S
C182 H190 0.930 . S
C183 C182 1.394 . S
C183 C184 1.383 . S
C183 H191 0.929 . S
C184 C183 1.383 . S
C184 C185 1.377 . S
C185 H169 0.930 . S
C185 C184 1.377 . S
C185 C186 1.379 . S
C186 H170 0.931 . S
C186 C180 1.383 . S
C186 C185 1.379 . S
H187 C181 0.959 . S
H188 C181 0.961 1_565 S
H189 C181 0.960 1_565 S
H190 C182 0.930 . S
H191 C183 0.929 . S
H192 C200 0.929 . S
H193 C202 0.930 . S
H194 C204 0.930 . S
H195 C207 0.929 . S
H196 C210 0.930 . S
H197 C212 0.960 . S
H198 C212 0.960 . S
H199 C212 0.960 . S
C200 H192 0.929 . S
C200 C201 1.377 . S
C200 C202 1.384 . S
C201 C200 1.377 . S
C201 C207 1.390 . S
C202 H193 0.930 . S
C202 C200 1.384 . S
C202 C203 1.372 . S
C203 C202 1.372 . S
C203 C204 1.400 . S
C203 C208 1.490 . S
C204 H194 0.930 . S
C204 C203 1.400 . S
C204 C207 1.386 . S
H205 C221 0.930 . S
H206 C222 0.931 . S
C207 H195 0.929 . S
C207 C201 1.390 . S
C207 C204 1.386 . S
C208 C203 1.490 . S
C208 C210 1.395 . S
C208 C211 1.403 . S
H209 C215 0.930 . S
C210 H196 0.930 . S
C210 C208 1.395 . S
C210 C213 1.403 . S
C211 C208 1.403 . S
C211 C212 1.524 . S
C211 C215 1.400 . S
C212 H197 0.960 . S
C212 H198 0.960 . S
C212 H199 0.960 . S
C212 C211 1.524 . S
C213 C210 1.403 . S
C213 C214 1.392 . S
C213 C217 1.495 . S
C214 C213 1.392 . S
C214 C215 1.385 . S
C214 C216 1.478 . S
C215 H209 0.930 . S
C215 C211 1.400 . S
C215 C214 1.385 . S
C216 C214 1.478 . S
C216 C218 1.381 . S
C216 C222 1.383 . S
C217 C213 1.495 . S
C217 H223 0.959 . S
C217 H224 0.961 . S
C217 H225 0.960 . S
C218 C216 1.381 . S
C218 C219 1.394 . S
C218 H226 0.930 . S
C219 C218 1.394 . S
C219 C220 1.383 . S
C219 H227 0.929 . S
C220 C219 1.383 . S
C220 C221 1.377 . S
C221 H205 0.930 . S
C221 C220 1.377 . S
C221 C222 1.379 . S
C222 H206 0.931 . S
C222 C216 1.383 . S
C222 C221 1.379 . S
H223 C217 0.959 . S
H224 C217 0.961 . S
H225 C217 0.960 . S
H226 C218 0.930 . S
H227 C219 0.929 . S
H228 C236 0.929 . S
H229 C238 0.930 . S
H230 C240 0.930 . S
H231 C243 0.929 . S
H232 C246 0.930 . S
H233 C248 0.960 1_455 S
H234 C248 0.960 . S
H235 C248 0.960 . S
C236 H228 0.929 . S
C236 C237 1.377 . S
C236 C238 1.384 . S
C237 C236 1.377 . S
C237 C243 1.390 . S
C238 H229 0.930 . S
C238 C236 1.384 . S
C238 C239 1.372 . S
C239 C238 1.372 . S
C239 C240 1.400 . S
C239 C244 1.490 . S
C240 H230 0.930 . S
C240 C239 1.400 . S
C240 C243 1.386 . S
H241 C257 0.930 . S
H242 C258 0.931 . S
C243 H231 0.929 . S
C243 C237 1.390 . S
C243 C240 1.386 . S
C244 C239 1.490 . S
C244 C246 1.395 . S
C244 C247 1.403 . S
H245 C251 0.930 . S
C246 H232 0.930 . S
C246 C244 1.395 . S
C246 C249 1.403 1_655 S
C247 C244 1.403 . S
C247 C248 1.524 . S
C247 C251 1.400 1_655 S
C248 H233 0.960 1_655 S
C248 H234 0.960 . S
C248 H235 0.960 . S
C248 C247 1.524 . S
C249 C246 1.403 1_455 S
C249 C250 1.392 . S
C249 C253 1.495 . S
C250 C249 1.392 . S
C250 C251 1.385 . S
C250 C252 1.478 . S
C251 H245 0.930 . S
C251 C247 1.400 1_455 S
C251 C250 1.385 . S
C252 C250 1.478 . S
C252 C254 1.381 . S
C252 C258 1.383 . S
C253 C249 1.495 . S
C253 H259 0.959 1_455 S
C253 H260 0.961 . S
C253 H261 0.960 . S
C254 C252 1.381 . S
C254 C255 1.394 . S
C254 H262 0.930 . S
C255 C254 1.394 . S
C255 C256 1.383 . S
C255 H263 0.929 . S
C256 C255 1.383 . S
C256 C257 1.377 . S
C257 H241 0.930 . S
C257 C256 1.377 . S
C257 C258 1.379 . S
C258 H242 0.931 . S
C258 C252 1.383 . S
C258 C257 1.379 . S
H259 C253 0.959 1_655 S
H260 C253 0.961 . S
H261 C253 0.960 . S
H262 C254 0.930 . S
H263 C255 0.929 . S
H264 C272 0.929 . S
H265 C274 0.930 . S
H266 C276 0.930 . S
H267 C279 0.929 . S
H268 C282 0.930 1_545 S
H269 C284 0.960 . S
H270 C284 0.960 . S
H271 C284 0.960 . S
C272 H264 0.929 . S
C272 C273 1.377 . S
C272 C274 1.384 . S
C273 C272 1.377 . S
C273 C279 1.390 . S
C274 H265 0.930 . S
C274 C272 1.384 . S
C274 C275 1.372 . S
C275 C274 1.372 . S
C275 C276 1.400 . S
C275 C280 1.490 . S
C276 H266 0.930 . S
C276 C275 1.400 . S
C276 C279 1.386 . S
H277 C293 0.930 . S
H278 C294 0.931 . S
C279 H267 0.929 . S
C279 C273 1.390 . S
C279 C276 1.386 . S
C280 C275 1.490 . S
C280 C282 1.396 1_545 S
C280 C283 1.403 . S
H281 C287 0.930 . S
C282 H268 0.930 1_565 S
C282 C280 1.396 1_565 S
C282 C285 1.402 . S
C283 C280 1.403 . S
C283 C284 1.524 . S
C283 C287 1.400 1_545 S
C284 H269 0.960 . S
C284 H270 0.960 . S
C284 H271 0.960 . S
C284 C283 1.524 . S
C285 C282 1.402 . S
C285 C286 1.392 . S
C285 C289 1.495 . S
C286 C285 1.392 . S
C286 C287 1.385 . S
C286 C288 1.478 . S
C287 H281 0.930 . S
C287 C283 1.400 1_565 S
C287 C286 1.385 . S
C288 C286 1.478 . S
C288 C290 1.381 . S
C288 C294 1.383 . S
C289 C285 1.495 . S
C289 H295 0.959 . S
C289 H296 0.961 . S
C289 H297 0.960 . S
C290 C288 1.381 . S
C290 C291 1.394 . S
C290 H298 0.930 . S
C291 C290 1.394 . S
C291 C292 1.383 . S
C291 H299 0.929 . S
C292 C291 1.383 . S
C292 C293 1.377 . S
C293 H277 0.930 . S
C293 C292 1.377 . S
C293 C294 1.379 . S
C294 H278 0.931 . S
C294 C288 1.383 . S
C294 C293 1.379 . S
H295 C289 0.959 . S
H296 C289 0.961 . S
H297 C289 0.960 . S
H298 C290 0.930 . S
H299 C291 0.929 . S
H300 C308 0.929 . S
H301 C310 0.930 . S
H302 C312 0.930 . S
H303 C315 0.929 . S
H304 C318 0.930 . S
H305 C320 0.960 . S
H306 C320 0.960 . S
H307 C320 0.960 . S
C308 H300 0.929 . S
C308 C309 1.377 . S
C308 C310 1.384 . S
C309 C308 1.377 . S
C309 C315 1.390 . S
C310 H301 0.930 . S
C310 C308 1.384 . S
C310 C311 1.372 . S
C311 C310 1.372 . S
C311 C312 1.400 . S
C311 C316 1.490 . S
C312 H302 0.930 . S
C312 C311 1.400 . S
C312 C315 1.386 . S
H313 C329 0.930 . S
H314 C330 0.931 . S
C315 H303 0.929 . S
C315 C309 1.390 . S
C315 C312 1.386 . S
C316 C311 1.490 . S
C316 C318 1.395 . S
C316 C319 1.403 . S
H317 C323 0.930 . S
C318 H304 0.930 . S
C318 C316 1.395 . S
C318 C321 1.403 . S
C319 C316 1.403 . S
C319 C320 1.524 . S
C319 C323 1.400 . S
C320 H305 0.960 . S
C320 H306 0.960 . S
C320 H307 0.960 . S
C320 C319 1.524 . S
C321 C318 1.403 . S
C321 C322 1.392 . S
C321 C325 1.495 . S
C322 C321 1.392 . S
C322 C323 1.385 . S
C322 C324 1.478 . S
C323 H317 0.930 . S
C323 C319 1.400 . S
C323 C322 1.385 . S
C324 C322 1.478 . S
C324 C326 1.381 . S
C324 C330 1.383 . S
C325 C321 1.495 . S
C325 H331 0.959 . S
C325 H332 0.961 . S
C325 H333 0.960 . S
C326 C324 1.381 . S
C326 C327 1.394 . S
C326 H334 0.930 . S
C327 C326 1.394 . S
C327 C328 1.383 . S
C327 H335 0.929 . S
C328 C327 1.383 . S
C328 C329 1.377 . S
C329 H313 0.930 . S
C329 C328 1.377 . S
C329 C330 1.379 . S
C330 H314 0.931 . S
C330 C324 1.383 . S
C330 C329 1.379 . S
H331 C325 0.959 . S
H332 C325 0.961 . S
H333 C325 0.960 . S
H334 C326 0.930 . S
H335 C327 0.929 . S
H336 C344 0.929 . S
H337 C346 0.930 . S
H338 C348 0.930 . S
H339 C351 0.929 . S
H340 C354 0.930 . S
H341 C356 0.960 . S
H342 C356 0.960 . S
H343 C356 0.960 . S
C344 H336 0.929 . S
C344 C345 1.377 . S
C344 C346 1.384 . S
C345 C344 1.377 . S
C345 C351 1.390 . S
C346 H337 0.930 . S
C346 C344 1.384 . S
C346 C347 1.372 . S
C347 C346 1.372 . S
C347 C348 1.400 . S
C347 C352 1.490 . S
C348 H338 0.930 . S
C348 C347 1.400 . S
C348 C351 1.386 . S
H349 C365 0.930 . S
H350 C366 0.931 . S
C351 H339 0.929 . S
C351 C345 1.390 . S
C351 C348 1.386 . S
C352 C347 1.490 . S
C352 C354 1.395 . S
C352 C355 1.403 . S
H353 C359 0.930 . S
C354 H340 0.930 . S
C354 C352 1.395 . S
C354 C357 1.403 . S
C355 C352 1.403 . S
C355 C356 1.524 . S
C355 C359 1.400 . S
C356 H341 0.960 . S
C356 H342 0.960 . S
C356 H343 0.960 . S
C356 C355 1.524 . S
C357 C354 1.403 . S
C357 C358 1.392 . S
C357 C361 1.495 . S
C358 C357 1.392 . S
C358 C359 1.385 . S
C358 C360 1.478 . S
C359 H353 0.930 . S
C359 C355 1.400 . S
C359 C358 1.385 . S
C360 C358 1.478 . S
C360 C362 1.381 . S
C360 C366 1.383 . S
C361 C357 1.495 . S
C361 H367 0.959 . S
C361 H368 0.961 . S
C361 H369 0.960 . S
C362 C360 1.381 . S
C362 C363 1.394 . S
C362 H370 0.930 . S
C363 C362 1.394 . S
C363 C364 1.383 . S
C363 H371 0.929 . S
C364 C363 1.383 . S
C364 C365 1.377 . S
C365 H349 0.930 . S
C365 C364 1.377 . S
C365 C366 1.379 . S
C366 H350 0.931 . S
C366 C360 1.383 . S
C366 C365 1.379 . S
H367 C361 0.959 . S
H368 C361 0.961 . S
H369 C361 0.960 . S
H370 C362 0.930 . S
H371 C363 0.929 . S
H372 C380 0.929 . S
H373 C382 0.930 . S
H374 C384 0.930 . S
H375 C387 0.929 . S
H376 C390 0.930 . S
H377 C392 0.960 . S
H378 C392 0.960 . S
H379 C392 0.960 . S
C380 H372 0.929 . S
C380 C381 1.377 . S
C380 C382 1.384 . S
C381 C380 1.377 . S
C381 C387 1.390 . S
C382 H373 0.930 . S
C382 C380 1.384 . S
C382 C383 1.372 . S
C383 C382 1.372 . S
C383 C384 1.400 . S
C383 C388 1.490 . S
C384 H374 0.930 . S
C384 C383 1.400 . S
C384 C387 1.386 . S
H385 C401 0.930 . S
H386 C402 0.931 . S
C387 H375 0.929 . S
C387 C381 1.390 . S
C387 C384 1.386 . S
C388 C383 1.490 . S
C388 C390 1.395 . S
C388 C391 1.403 . S
H389 C395 0.930 . S
C390 H376 0.930 . S
C390 C388 1.395 . S
C390 C393 1.403 . S
C391 C388 1.403 . S
C391 C392 1.524 . S
C391 C395 1.400 . S
C392 H377 0.960 . S
C392 H378 0.960 . S
C392 H379 0.960 . S
C392 C391 1.524 . S
C393 C390 1.403 . S
C393 C394 1.392 . S
C393 C397 1.495 . S
C394 C393 1.392 . S
C394 C395 1.385 . S
C394 C396 1.478 . S
C395 H389 0.930 . S
C395 C391 1.400 . S
C395 C394 1.385 . S
C396 C394 1.478 . S
C396 C398 1.381 . S
C396 C402 1.383 . S
C397 C393 1.495 . S
C397 H403 0.959 . S
C397 H404 0.961 . S
C397 H405 0.960 . S
C398 C396 1.381 . S
C398 C399 1.394 . S
C398 H406 0.930 . S
C399 C398 1.394 . S
C399 C400 1.383 . S
C399 H407 0.929 . S
C400 C399 1.383 . S
C400 C401 1.377 . S
C401 H385 0.930 . S
C401 C400 1.377 . S
C401 C402 1.379 . S
C402 H386 0.931 . S
C402 C396 1.383 . S
C402 C401 1.379 . S
H403 C397 0.959 . S
H404 C397 0.961 . S
H405 C397 0.960 . S
H406 C398 0.930 . S
H407 C399 0.929 . S
H408 C416 0.929 . S
H409 C418 0.930 . S
H410 C420 0.930 . S
H411 C423 0.929 . S
H412 C426 0.930 . S
H413 C428 0.960 . S
H414 C428 0.960 . S
H415 C428 0.960 . S
C416 H408 0.929 . S
C416 C417 1.377 . S
C416 C418 1.384 . S
C417 C416 1.377 . S
C417 C423 1.390 . S
C418 H409 0.930 . S
C418 C416 1.384 . S
C418 C419 1.372 . S
C419 C418 1.372 . S
C419 C420 1.400 . S
C419 C424 1.490 . S
C420 H410 0.930 . S
C420 C419 1.400 . S
C420 C423 1.386 . S
H421 C437 0.930 . S
H422 C438 0.931 . S
C423 H411 0.929 . S
C423 C417 1.390 . S
C423 C420 1.386 . S
C424 C419 1.490 . S
C424 C426 1.395 . S
C424 C427 1.403 . S
H425 C431 0.930 . S
C426 H412 0.930 . S
C426 C424 1.395 . S
C426 C429 1.403 . S
C427 C424 1.403 . S
C427 C428 1.524 . S
C427 C431 1.400 . S
C428 H413 0.960 . S
C428 H414 0.960 . S
C428 H415 0.960 . S
C428 C427 1.524 . S
C429 C426 1.403 . S
C429 C430 1.392 . S
C429 C433 1.495 . S
C430 C429 1.392 . S
C430 C431 1.385 . S
C430 C432 1.478 . S
C431 H425 0.930 . S
C431 C427 1.400 . S
C431 C430 1.385 . S
C432 C430 1.478 . S
C432 C434 1.381 . S
C432 C438 1.383 . S
C433 C429 1.495 . S
C433 H439 0.959 . S
C433 H440 0.961 . S
C433 H441 0.960 . S
C434 C432 1.381 . S
C434 C435 1.394 . S
C434 H442 0.930 . S
C435 C434 1.394 . S
C435 C436 1.383 . S
C435 H443 0.929 . S
C436 C435 1.383 . S
C436 C437 1.377 . S
C437 H421 0.930 . S
C437 C436 1.377 . S
C437 C438 1.379 . S
C438 H422 0.931 . S
C438 C432 1.383 . S
C438 C437 1.379 . S
H439 C433 0.959 . S
H440 C433 0.961 . S
H441 C433 0.960 . S
H442 C434 0.930 . S
H443 C435 0.929 . S
H444 C452 0.929 . S
H445 C454 0.930 . S
H446 C456 0.930 . S
H447 C459 0.929 . S
H448 C462 0.930 . S
H449 C464 0.960 . S
H450 C464 0.960 . S
H451 C464 0.960 . S
C452 H444 0.929 . S
C452 C453 1.377 . S
C452 C454 1.384 . S
C453 C452 1.377 . S
C453 C459 1.390 . S
C454 H445 0.930 . S
C454 C452 1.384 . S
C454 C455 1.372 . S
C455 C454 1.372 . S
C455 C456 1.400 . S
C455 C460 1.490 . S
C456 H446 0.930 . S
C456 C455 1.400 . S
C456 C459 1.386 . S
H457 C473 0.930 . S
H458 C474 0.931 . S
C459 H447 0.929 . S
C459 C453 1.390 . S
C459 C456 1.386 . S
C460 C455 1.490 . S
C460 C462 1.395 . S
C460 C463 1.403 . S
H461 C467 0.930 . S
C462 H448 0.930 . S
C462 C460 1.395 . S
C462 C465 1.403 . S
C463 C460 1.403 . S
C463 C464 1.524 . S
C463 C467 1.400 . S
C464 H449 0.960 . S
C464 H450 0.960 . S
C464 H451 0.960 . S
C464 C463 1.524 . S
C465 C462 1.403 . S
C465 C466 1.392 . S
C465 C469 1.495 . S
C466 C465 1.392 . S
C466 C467 1.385 . S
C466 C468 1.478 . S
C467 H461 0.930 . S
C467 C463 1.400 . S
C467 C466 1.385 . S
C468 C466 1.478 . S
C468 C470 1.381 . S
C468 C474 1.383 . S
C469 C465 1.495 . S
C469 H475 0.959 . S
C469 H476 0.961 . S
C469 H477 0.960 . S
C470 C468 1.381 . S
C470 C471 1.394 . S
C470 H478 0.930 . S
C471 C470 1.394 . S
C471 C472 1.383 . S
C471 H479 0.929 . S
C472 C471 1.383 . S
C472 C473 1.377 . S
C473 H457 0.930 . S
C473 C472 1.377 . S
C473 C474 1.379 . S
C474 H458 0.931 . S
C474 C468 1.383 . S
C474 C473 1.379 . S
H475 C469 0.959 . S
H476 C469 0.961 . S
H477 C469 0.960 . S
H478 C470 0.930 . S
H479 C471 0.929 . S
H480 C488 0.929 . S
H481 C490 0.930 . S
H482 C492 0.930 . S
H483 C495 0.929 . S
H484 C498 0.930 . S
H485 C500 0.960 . S
H486 C500 0.960 . S
H487 C500 0.960 . S
C488 H480 0.929 . S
C488 C489 1.377 . S
C488 C490 1.384 . S
C489 C488 1.377 . S
C489 C495 1.390 . S
C490 H481 0.930 . S
C490 C488 1.384 . S
C490 C491 1.372 . S
C491 C490 1.372 . S
C491 C492 1.400 . S
C491 C496 1.490 . S
C492 H482 0.930 . S
C492 C491 1.400 . S
C492 C495 1.386 . S
H493 C509 0.930 . S
H494 C510 0.931 . S
C495 H483 0.929 . S
C495 C489 1.390 . S
C495 C492 1.386 . S
C496 C491 1.490 . S
C496 C498 1.395 . S
C496 C499 1.403 . S
H497 C503 0.930 . S
C498 H484 0.930 . S
C498 C496 1.395 . S
C498 C501 1.403 . S
C499 C496 1.403 . S
C499 C500 1.524 . S
C499 C503 1.400 . S
C500 H485 0.960 . S
C500 H486 0.960 . S
C500 H487 0.960 . S
C500 C499 1.524 . S
C501 C498 1.403 . S
C501 C502 1.392 . S
C501 C505 1.495 . S
C502 C501 1.392 . S
C502 C503 1.385 . S
C502 C504 1.478 . S
C503 H497 0.930 . S
C503 C499 1.400 . S
C503 C502 1.385 . S
C504 C502 1.478 . S
C504 C506 1.381 . S
C504 C510 1.383 . S
C505 C501 1.495 . S
C505 H511 0.959 . S
C505 H512 0.961 . S
C505 H513 0.960 . S
C506 C504 1.381 . S
C506 C507 1.394 . S
C506 H514 0.930 . S
C507 C506 1.394 . S
C507 C508 1.383 . S
C507 H515 0.929 . S
C508 C507 1.383 . S
C508 C509 1.377 . S
C509 H493 0.930 . S
C509 C508 1.377 . S
C509 C510 1.379 . S
C510 H494 0.931 . S
C510 C504 1.383 . S
C510 C509 1.379 . S
H511 C505 0.959 . S
H512 C505 0.961 . S
H513 C505 0.960 . S
H514 C506 0.930 . S
H515 C507 0.929 . S
C93 C12 1.356 . S
C112 C83 1.355 . S
C129 C26 1.353 . S
C148 C0 1.364 . S
C165 C14 1.358 . S
C184 C28 1.345 . S
C201 C42 1.357 . S
C220 C40 1.351 . S
C237 C54 1.355 . S
C256 C57 1.361 . S
C273 C71 1.353 . S
C292 C69 1.355 . S
C309 C68 1.478 . S
C328 C13 1.459 . S
C345 C82 1.473 . S
C364 C27 1.481 . S
C381 C29 1.476 . S
C400 C1 1.472 . S
C417 C43 1.475 . S
C436 C15 1.463 . S
C453 C56 1.473 . S
C472 C41 1.483 . S
C489 C70 1.473 . S
C508 C55 1.475 . S
