# Generated by pormake.
# Topology wjy, (5)-cn, num edge types: 1
# Building blocks:
#     Node 0, Type 0, BuildingBlock: XOMCOT_clean_sbu_0, # of connection points: 5
#     Node 1, Type 0, BuildingBlock: XOMCOT_clean_sbu_0, # of connection points: 5
#     Node 2, Type 0, BuildingBlock: XOMCOT_clean_sbu_0, # of connection points: 5
#     Node 3, Type 0, BuildingBlock: XOMCOT_clean_sbu_0, # of connection points: 5
#     Node 4, Type 0, BuildingBlock: XOMCOT_clean_sbu_0, # of connection points: 5
#     Node 5, Type 0, BuildingBlock: XOMCOT_clean_sbu_0, # of connection points: 5
#     Node 6, Type 0, BuildingBlock: XOMCOT_clean_sbu_0, # of connection points: 5
#     Node 7, Type 0, BuildingBlock: XOMCOT_clean_sbu_0, # of connection points: 5
#     Node 8, Type 0, BuildingBlock: XOMCOT_clean_sbu_0, # of connection points: 5
#     Node 9, Type 0, BuildingBlock: XOMCOT_clean_sbu_0, # of connection points: 5
#     Node 10, Type 0, BuildingBlock: XOMCOT_clean_sbu_0, # of connection points: 5
#     Node 11, Type 0, BuildingBlock: XOMCOT_clean_sbu_0, # of connection points: 5
#     Edge 12, Type (0, 0), None
#     Edge 13, Type (0, 0), None
#     Edge 14, Type (0, 0), None
#     Edge 15, Type (0, 0), None
#     Edge 16, Type (0, 0), None
#     Edge 17, Type (0, 0), None
#     Edge 18, Type (0, 0), None
#     Edge 19, Type (0, 0), None
#     Edge 20, Type (0, 0), None
#     Edge 21, Type (0, 0), None
#     Edge 22, Type (0, 0), None
#     Edge 23, Type (0, 0), None
#     Edge 24, Type (0, 0), None
#     Edge 25, Type (0, 0), None
#     Edge 26, Type (0, 0), None
#     Edge 27, Type (0, 0), None
#     Edge 28, Type (0, 0), None
#     Edge 29, Type (0, 0), None
#     Edge 30, Type (0, 0), None
#     Edge 31, Type (0, 0), None
#     Edge 32, Type (0, 0), None
#     Edge 33, Type (0, 0), None
#     Edge 34, Type (0, 0), None
#     Edge 35, Type (0, 0), None
#     Edge 36, Type (0, 0), None
#     Edge 37, Type (0, 0), None
#     Edge 38, Type (0, 0), None
#     Edge 39, Type (0, 0), None
#     Edge 40, Type (0, 0), None
#     Edge 41, Type (0, 0), None
# Relax obj value: 0.074
# Max RMSD: 0.172
# Mean RMSD: 0.172
data_MOF--net-wjy--node1-XOMCOT_clean_sbu_0--edge1-none
_symmetry_space_group_name_H-M    P1
_symmetry_Int_Tables_number       1
_symmetry_cell_setting            triclinic
loop_
_symmetry_equiv_pos_as_xyz
'x, y, z'
_cell_length_a     37.6014
_cell_length_b     37.603452
_cell_length_c     9.496843
_cell_angle_alpha  89.999807
_cell_angle_beta   90.004091
_cell_angle_gamma 120.00272
loop_
_atom_site_label
_atom_site_type_symbol
_atom_site_fract_x
_atom_site_fract_y
_atom_site_fract_z
_atom_type_partial_charge
Co0 Co 0.47934 0.09458 0.09777 0.0
C1 C 0.46661 0.08343 0.78883 0.0
C2 C 0.52857 0.12955 0.8354 0.0
C3 C 0.524 0.12557 0.69119 0.0
N4 N 0.49265 0.10287 0.89741 0.0
N5 N 0.48541 0.09596 0.66391 0.0
H6 H 0.43441 0.06097 0.79865 0.0
H7 H 0.55586 0.15159 0.88982 0.0
C8 C 0.56322 0.15099 0.24331 0.0
O9 O 0.54807 0.1686 0.32369 0.0
N10 N 0.46374 0.08483 0.29592 0.0
C11 C 0.42686 0.07555 0.35094 0.0
C12 C 0.42908 0.07579 0.4957 0.0
C13 C 0.48685 0.08763 0.40864 0.0
N14 N 0.4671 0.08415 0.53025 0.0
C15 C 0.43875 0.14311 0.11518 0.0
C16 C 0.50831 0.21766 0.06455 0.0
C17 C 0.47178 0.21757 0.09573 0.0
C18 C 0.43633 0.17922 0.11876 0.0
C19 C 0.50965 0.18142 0.06818 0.0
N20 N 0.47557 0.14466 0.09764 0.0
H21 H 0.41088 0.114 0.12526 0.0
H22 H 0.53858 0.18352 0.04581 0.0
H23 H 0.40002 0.06947 0.29117 0.0
H24 H 0.51735 0.09199 0.40401 0.0
O25 O 0.42293 0.05235 0.04702 0.0
O26 O 0.47534 0.04222 0.08556 0.0
O27 O 0.54069 0.12465 0.14941 0.0
C28 C 0.43751 0.02724 0.04689 0.0
H29 H 0.54615 0.14435 0.61231 0.0
H30 H 0.40551 0.0722 0.56919 0.0
H31 H 0.53619 0.24551 0.03634 0.0
H32 H 0.40694 0.17676 0.14021 0.0
Co33 Co 0.39104 0.47588 0.2647 0.0
C34 C 0.38932 0.4631 0.95579 0.0
C35 C 0.40566 0.5252 1.00239 0.0
C36 C 0.4051 0.52064 0.85818 0.0
N37 N 0.39609 0.48919 0.06436 0.0
N38 N 0.3958 0.48195 0.83088 0.0
H39 H 0.37933 0.43085 0.96563 0.0
H40 H 0.41111 0.55254 0.05687 0.0
C41 C 0.41848 0.55976 0.41013 0.0
O42 O 0.38568 0.5446 0.49038 0.0
N43 N 0.38519 0.46028 0.46286 0.0
C44 C 0.35763 0.42339 0.51791 0.0
C45 C 0.35961 0.42562 0.66267 0.0
C46 C 0.4055 0.48341 0.57555 0.0
N47 N 0.38924 0.46365 0.69718 0.0
C48 C 0.30192 0.43539 0.28256 0.0
C49 C 0.29702 0.50494 0.23072 0.0
C50 C 0.26056 0.46849 0.26247 0.0
C51 C 0.26342 0.43304 0.2861 0.0
C52 C 0.33458 0.50622 0.23441 0.0
N53 N 0.33721 0.47215 0.26449 0.0
H54 H 0.3031 0.4075 0.29309 0.0
H55 H 0.36144 0.5351 0.21161 0.0
H56 H 0.33691 0.39653 0.45816 0.0
H57 H 0.43162 0.51391 0.57088 0.0
O58 O 0.37683 0.41947 0.21393 0.0
O59 O 0.43938 0.47185 0.25254 0.0
O60 O 0.42232 0.53721 0.31638 0.0
C61 C 0.41652 0.43404 0.21376 0.0
H62 H 0.40874 0.54288 0.77928 0.0
H63 H 0.33967 0.40203 0.73616 0.0
H64 H 0.29709 0.53281 0.20204 0.0
H65 H 0.23647 0.4037 0.30799 0.0
Co66 Co 0.92155 0.38799 0.43108 0.0
C67 C 0.93272 0.38643 0.12216 0.0
C68 C 0.88656 0.40221 0.16868 0.0
C69 C 0.89054 0.40162 0.02448 0.0
N70 N 0.91326 0.39301 0.23072 0.0
N71 N 0.92018 0.39268 0.99722 0.0
H72 H 0.9552 0.37672 0.13198 0.0
H73 H 0.86451 0.40744 0.22308 0.0
C74 C 0.86514 0.41545 0.5766 0.0
O75 O 0.84752 0.38268 0.65698 0.0
N76 N 0.93131 0.38215 0.62925 0.0
C77 C 0.94059 0.35455 0.68427 0.0
C78 C 0.94035 0.35653 0.82903 0.0
C79 C 0.92851 0.40246 0.74196 0.0
N80 N 0.93199 0.38618 0.86357 0.0
C81 C 0.87302 0.29886 0.44849 0.0
C82 C 0.79847 0.29385 0.39787 0.0
C83 C 0.79856 0.25741 0.42906 0.0
C84 C 0.83692 0.26033 0.45208 0.0
C85 C 0.8347 0.33144 0.4015 0.0
N86 N 0.87148 0.33413 0.43095 0.0
H87 H 0.90214 0.3001 0.45857 0.0
H88 H 0.83261 0.35827 0.37914 0.0
H89 H 0.94667 0.33379 0.62451 0.0
H90 H 0.92414 0.42859 0.73732 0.0
O91 O 0.9638 0.37383 0.38037 0.0
O92 O 0.97391 0.43636 0.41889 0.0
O93 O 0.89147 0.41925 0.4827 0.0
C94 C 0.98891 0.41352 0.38026 0.0
H95 H 0.87175 0.40497 0.94558 0.0
H96 H 0.94394 0.33655 0.90253 0.0
H97 H 0.77062 0.29388 0.36967 0.0
H98 H 0.83938 0.2334 0.47354 0.0
Co99 Co 0.54018 0.91833 0.59783 0.0
C100 C 0.55294 0.92943 0.28892 0.0
C101 C 0.4909 0.88351 0.33546 0.0
C102 C 0.49546 0.88751 0.19126 0.0
N103 N 0.52687 0.91006 0.39748 0.0
N104 N 0.53411 0.91699 0.16399 0.0
H105 H 0.58516 0.95178 0.29876 0.0
H106 H 0.46358 0.86156 0.3899 0.0
C107 C 0.45629 0.86192 0.74328 0.0
O108 O 0.47144 0.84428 0.8236 0.0
N109 N 0.55578 0.92807 0.796 0.0
C110 C 0.59266 0.93737 0.85105 0.0
C111 C 0.59044 0.93714 0.99581 0.0
C112 C 0.53266 0.92527 0.90869 0.0
N113 N 0.55242 0.92876 0.03032 0.0
C114 C 0.58069 0.86972 0.61554 0.0
C115 C 0.51112 0.79524 0.56414 0.0
C116 C 0.5476 0.79526 0.59571 0.0
C117 C 0.58306 0.83358 0.61912 0.0
C118 C 0.50983 0.8315 0.56782 0.0
N119 N 0.54391 0.86823 0.59766 0.0
H120 H 0.60858 0.8988 0.6259 0.0
H121 H 0.48093 0.82947 0.54519 0.0
H122 H 0.61951 0.94348 0.79131 0.0
H123 H 0.50216 0.92091 0.90402 0.0
O124 O 0.5966 0.96054 0.5471 0.0
O125 O 0.54421 0.9707 0.58566 0.0
O126 O 0.47884 0.88828 0.64947 0.0
C127 C 0.58203 0.98566 0.54695 0.0
H128 H 0.47326 0.86882 0.11236 0.0
H129 H 0.61402 0.94076 0.06932 0.0
H130 H 0.48325 0.76743 0.53562 0.0
H131 H 0.61241 0.83599 0.64087 0.0
Co132 Co 0.62813 0.53677 0.76444 0.0
C133 C 0.62968 0.54949 0.45551 0.0
C134 C 0.61391 0.48756 0.50204 0.0
C135 C 0.6145 0.49213 0.35783 0.0
N136 N 0.62311 0.52346 0.56407 0.0
N137 N 0.62343 0.5307 0.33057 0.0
H138 H 0.63939 0.58168 0.46533 0.0
H139 H 0.60868 0.46027 0.55644 0.0
C140 C 0.60067 0.4529 0.90999 0.0
O141 O 0.63344 0.46807 0.9904 0.0
N142 N 0.63399 0.55236 0.9626 0.0
C143 C 0.66161 0.58923 0.01764 0.0
C144 C 0.65962 0.58702 0.1624 0.0
C145 C 0.61366 0.52926 0.0753 0.0
N146 N 0.62995 0.54901 0.19692 0.0
C147 C 0.71727 0.57737 0.78175 0.0
C148 C 0.72226 0.50781 0.73124 0.0
C149 C 0.75871 0.54435 0.76236 0.0
C150 C 0.7558 0.5798 0.78532 0.0
C151 C 0.68468 0.50647 0.73488 0.0
N152 N 0.682 0.54055 0.76429 0.0
H153 H 0.71603 0.60524 0.79179 0.0
H154 H 0.65784 0.47753 0.71257 0.0
H155 H 0.68238 0.61607 0.95789 0.0
H156 H 0.58752 0.49877 0.07065 0.0
O157 O 0.6423 0.59317 0.71374 0.0
O158 O 0.57977 0.54076 0.75227 0.0
O159 O 0.59687 0.47542 0.81607 0.0
C160 C 0.60261 0.57859 0.71364 0.0
H161 H 0.61116 0.46999 0.27895 0.0
H162 H 0.67961 0.61058 0.2359 0.0
H163 H 0.72222 0.47993 0.70307 0.0
H164 H 0.78274 0.60919 0.80672 0.0
Co165 Co 0.09779 0.62507 0.93127 0.0
C166 C 0.08671 0.62676 0.62236 0.0
C167 C 0.13254 0.61052 0.66896 0.0
C168 C 0.12853 0.61107 0.52475 0.0
N169 N 0.10605 0.62002 0.73094 0.0
N170 N 0.09911 0.62032 0.49744 0.0
H171 H 0.06441 0.6367 0.63219 0.0
H172 H 0.15447 0.60511 0.72343 0.0
C173 C 0.15422 0.59763 0.07676 0.0
O174 O 0.17185 0.63042 0.15706 0.0
N175 N 0.08806 0.63093 0.12944 0.0
C176 C 0.07876 0.65852 0.18449 0.0
C177 C 0.07899 0.65652 0.32925 0.0
C178 C 0.09085 0.61061 0.24212 0.0
N179 N 0.08736 0.62688 0.36375 0.0
C180 C 0.1464 0.71419 0.94895 0.0
C181 C 0.22088 0.71911 0.89746 0.0
C182 C 0.22086 0.75557 0.92902 0.0
C183 C 0.18254 0.7527 0.95248 0.0
C184 C 0.18461 0.68155 0.90115 0.0
N185 N 0.14789 0.6789 0.93107 0.0
H186 H 0.11732 0.71299 0.95935 0.0
H187 H 0.18664 0.65469 0.87847 0.0
H188 H 0.07265 0.67925 0.12475 0.0
H189 H 0.0952 0.58447 0.23744 0.0
O190 O 0.05558 0.63927 0.88051 0.0
O191 O 0.04542 0.57673 0.91911 0.0
O192 O 0.12785 0.5938 0.98295 0.0
C193 C 0.03046 0.59958 0.88035 0.0
H194 H 0.14718 0.60749 0.44586 0.0
H195 H 0.07537 0.67648 0.40275 0.0
H196 H 0.24869 0.71905 0.86891 0.0
H197 H 0.18014 0.77965 0.97422 0.0
Co198 Co 0.92176 0.53709 0.76755 0.0
C199 C 0.93272 0.5499 0.07645 0.0
C200 C 0.8873 0.48769 0.02979 0.0
C201 C 0.89132 0.49223 0.174 0.0
N202 N 0.91352 0.52378 0.96787 0.0
N203 N 0.92049 0.531 0.20135 0.0
H204 H 0.95482 0.5822 0.0666 0.0
H205 H 0.86553 0.4603 0.97524 0.0
C206 C 0.8652 0.45323 0.62226 0.0
O207 O 0.84757 0.4684 0.54205 0.0
N208 N 0.9315 0.55268 0.5694 0.0
C209 C 0.94091 0.58959 0.51432 0.0
C210 C 0.94067 0.58735 0.36956 0.0
C211 C 0.92864 0.52953 0.45674 0.0
N212 N 0.93218 0.54929 0.33509 0.0
C213 C 0.87309 0.57754 0.74923 0.0
C214 C 0.79871 0.50802 0.80227 0.0
C215 C 0.79865 0.54442 0.76994 0.0
C216 C 0.83692 0.57985 0.74572 0.0
C217 C 0.83499 0.50677 0.79853 0.0
N218 N 0.87166 0.54082 0.76783 0.0
H219 H 0.90214 0.60543 0.73826 0.0
H220 H 0.83303 0.47794 0.82177 0.0
H221 H 0.94714 0.61648 0.57405 0.0
H222 H 0.92422 0.49901 0.46146 0.0
O223 O 0.96398 0.5935 0.81836 0.0
O224 O 0.97412 0.5411 0.7797 0.0
O225 O 0.89166 0.47576 0.71583 0.0
C226 C 0.98909 0.57891 0.81858 0.0
H227 H 0.87286 0.4699 0.25289 0.0
H228 H 0.94439 0.61097 0.29605 0.0
H229 H 0.77094 0.48018 0.83143 0.0
H230 H 0.83927 0.60915 0.72338 0.0
Co231 Co 0.39127 0.91852 0.93429 0.0
C232 C 0.38951 0.92954 0.2432 0.0
C233 C 0.40597 0.88388 0.19659 0.0
C234 C 0.40543 0.88789 0.3408 0.0
N235 N 0.39632 0.91026 0.13463 0.0
N236 N 0.39604 0.91721 0.36811 0.0
H237 H 0.37947 0.95176 0.23335 0.0
H238 H 0.41146 0.86202 0.14209 0.0
C239 C 0.41858 0.86197 0.78894 0.0
O240 O 0.38578 0.84436 0.70866 0.0
N241 N 0.38542 0.92826 0.73613 0.0
C242 C 0.35789 0.93764 0.68106 0.0
C243 C 0.35988 0.9374 0.5363 0.0
C244 C 0.40571 0.92541 0.62346 0.0
N245 N 0.38947 0.92894 0.50182 0.0
C246 C 0.30214 0.86991 0.91627 0.0
C247 C 0.2972 0.79547 0.96854 0.0
C248 C 0.26075 0.79547 0.93659 0.0
C249 C 0.26363 0.83378 0.91274 0.0
C250 C 0.33476 0.83173 0.96485 0.0
N251 N 0.33742 0.86844 0.93453 0.0
H252 H 0.30334 0.89899 0.90558 0.0
H253 H 0.36162 0.82972 0.98782 0.0
H254 H 0.3372 0.94382 0.74079 0.0
H255 H 0.43181 0.921 0.62817 0.0
O256 O 0.37711 0.96076 0.98505 0.0
O257 O 0.43964 0.97087 0.94645 0.0
O258 O 0.42248 0.8884 0.8826 0.0
C259 C 0.4168 0.98585 0.98525 0.0
H260 H 0.40914 0.86933 0.41969 0.0
H261 H 0.33997 0.94108 0.46279 0.0
H262 H 0.29725 0.76767 0.99739 0.0
H263 H 0.23669 0.83616 0.89069 0.0
Co264 Co 0.47903 0.38787 0.10092 0.0
C265 C 0.46621 0.386 0.40981 0.0
C266 C 0.52844 0.40281 0.36318 0.0
C267 C 0.52389 0.40229 0.50739 0.0
N268 N 0.49234 0.39293 0.30124 0.0
N269 N 0.48512 0.39267 0.53471 0.0
H270 H 0.43391 0.37579 0.39994 0.0
H271 H 0.55582 0.40843 0.30863 0.0
C272 C 0.56289 0.41518 0.95565 0.0
O273 O 0.54772 0.38237 0.87544 0.0
N274 N 0.46343 0.38201 0.90275 0.0
C275 C 0.42652 0.3545 0.84767 0.0
C276 C 0.42876 0.3565 0.70291 0.0
C277 C 0.48658 0.4023 0.7901 0.0
N278 N 0.46682 0.38607 0.66844 0.0
C279 C 0.43858 0.29874 0.0826 0.0
C280 C 0.50811 0.29389 0.13563 0.0
C281 C 0.47171 0.25743 0.10331 0.0
C282 C 0.43627 0.26027 0.07909 0.0
C283 C 0.50936 0.33143 0.1319 0.0
N284 N 0.4753 0.33405 0.1012 0.0
H285 H 0.41069 0.29991 0.07163 0.0
H286 H 0.53819 0.3583 0.15515 0.0
H287 H 0.39963 0.33384 0.90738 0.0
H288 H 0.5171 0.4284 0.79483 0.0
O289 O 0.42262 0.37366 0.1517 0.0
O290 O 0.47501 0.43621 0.11306 0.0
O291 O 0.54036 0.4191 0.04922 0.0
C292 C 0.4372 0.41335 0.15193 0.0
H293 H 0.54623 0.40618 0.58629 0.0
H294 H 0.40515 0.3366 0.62938 0.0
H295 H 0.53595 0.29397 0.16479 0.0
H296 H 0.40697 0.23331 0.05675 0.0
Co297 Co 0.09765 0.47602 0.26781 0.0
C298 C 0.08659 0.46325 0.57671 0.0
C299 C 0.13237 0.52533 0.53012 0.0
C300 C 0.12837 0.52078 0.67433 0.0
N301 N 0.10592 0.48933 0.46814 0.0
N302 N 0.09897 0.4821 0.70163 0.0
H303 H 0.06431 0.431 0.56687 0.0
H304 H 0.15428 0.55266 0.47564 0.0
C305 C 0.15419 0.55987 0.12243 0.0
O306 O 0.17179 0.54469 0.04211 0.0
N307 N 0.08791 0.46042 0.06964 0.0
C308 C 0.07855 0.42353 1.01458 0.0
C309 C 0.07879 0.42576 0.86983 0.0
C310 C 0.09074 0.48356 0.95696 0.0
N311 N 0.08723 0.4638 0.83533 0.0
C312 C 0.14622 0.43546 0.24998 0.0
C313 C 0.22071 0.50498 0.30184 0.0
C314 C 0.22067 0.4685 0.27007 0.0
C315 C 0.18235 0.43307 0.24643 0.0
C316 C 0.18445 0.50629 0.29816 0.0
N317 N 0.14772 0.47224 0.26805 0.0
H318 H 0.11713 0.40758 0.23943 0.0
H319 H 0.18649 0.53517 0.32099 0.0
H320 H 0.07239 0.39666 0.07432 0.0
H321 H 0.09515 0.51407 0.96166 0.0
O322 O 0.0554 0.41961 0.31854 0.0
O323 O 0.0453 0.47203 0.27995 0.0
O324 O 0.12777 0.53735 0.21613 0.0
C325 C 0.03031 0.43422 0.3187 0.0
H326 H 0.14699 0.54302 0.75323 0.0
H327 H 0.07512 0.40216 0.79631 0.0
H328 H 0.24852 0.53283 0.33053 0.0
H329 H 0.17994 0.40373 0.22453 0.0
Co330 Co 0.62824 0.09436 0.43428 0.0
C331 C 0.63008 0.0834 0.74317 0.0
C332 C 0.61333 0.12885 0.69653 0.0
C333 C 0.61385 0.12482 0.84074 0.0
N334 N 0.62317 0.10261 0.63459 0.0
N335 N 0.62343 0.09564 0.86807 0.0
H336 H 0.64025 0.06128 0.73332 0.0
H337 H 0.60773 0.15063 0.64198 0.0
C338 C 0.60094 0.15092 0.28898 0.0
O339 O 0.63375 0.16855 0.20878 0.0
N340 N 0.6341 0.08463 0.23612 0.0
C341 C 0.6616 0.07523 0.18105 0.0
C342 C 0.65961 0.07547 0.03629 0.0
C343 C 0.6138 0.08749 0.12346 0.0
N344 N 0.63003 0.08395 1.00181 0.0
C345 C 0.71737 0.14304 0.41604 0.0
C346 C 0.72223 0.21742 0.46897 0.0
C347 C 0.75869 0.21748 0.43668 0.0
C348 C 0.75585 0.1792 0.41252 0.0
C349 C 0.68469 0.18113 0.46525 0.0
N350 N 0.68207 0.14446 0.43459 0.0
H351 H 0.7162 0.11398 0.40511 0.0
H352 H 0.65782 0.1831 0.48845 0.0
H353 H 0.68228 0.06902 0.24078 0.0
H354 H 0.5877 0.0919 0.12817 0.0
O355 O 0.64242 0.05214 0.48506 0.0
O356 O 0.57988 0.042 0.44638 0.0
O357 O 0.59701 0.12447 0.38256 0.0
C358 C 0.60273 0.02704 0.48524 0.0
H359 H 0.61 0.14329 0.91963 0.0
H360 H 0.6795 0.07176 0.96278 0.0
H361 H 0.72216 0.24519 0.49809 0.0
H362 H 0.78281 0.17686 0.39022 0.0
Co363 Co 0.54011 0.62483 0.6012 0.0
C364 C 0.55288 0.62653 0.91011 0.0
C365 C 0.4908 0.61028 0.8635 0.0
C366 C 0.49536 0.61084 1.00771 0.0
N367 N 0.5268 0.6198 0.80153 0.0
N368 N 0.53403 0.62009 0.03502 0.0
H369 H 0.58512 0.63647 0.90028 0.0
H370 H 0.46347 0.60487 0.80902 0.0
C371 C 0.45624 0.59749 0.4558 0.0
O372 O 0.47141 0.63028 0.37548 0.0
N373 N 0.5557 0.63068 0.40304 0.0
C374 C 0.5926 0.65822 0.348 0.0
C375 C 0.59038 0.65623 0.20324 0.0
C376 C 0.53256 0.61039 0.29035 0.0
N377 N 0.55233 0.62664 0.16872 0.0
C378 C 0.58066 0.71397 0.58329 0.0
C379 C 0.51113 0.71892 0.63516 0.0
C380 C 0.5476 0.75536 0.60335 0.0
C381 C 0.58304 0.75248 0.57971 0.0
C382 C 0.50983 0.68135 0.63149 0.0
N383 N 0.54388 0.67869 0.6014 0.0
H384 H 0.60854 0.71276 0.57275 0.0
H385 H 0.48094 0.65451 0.6543 0.0
H386 H 0.61947 0.67892 0.40775 0.0
H387 H 0.50205 0.58429 0.29502 0.0
O388 O 0.59651 0.63899 0.65195 0.0
O389 O 0.54409 0.57647 0.61336 0.0
O390 O 0.47877 0.59361 0.54951 0.0
C391 C 0.58191 0.5993 0.6521 0.0
H392 H 0.47313 0.60724 0.08659 0.0
H393 H 0.61398 0.67616 0.12974 0.0
H394 H 0.48328 0.71886 0.66388 0.0
H395 H 0.61238 0.77941 0.55778 0.0
loop_
_geom_bond_atom_site_label_1
_geom_bond_atom_site_label_2
_geom_bond_distance
_geom_bond_site_symmetry_2
_ccdc_geom_bond_type
Co0 N4 2.148 1_554 S
Co0 N10 2.128 . S
Co0 N20 2.194 . S
Co0 O25 2.351 . S
Co0 O26 2.155 . S
Co0 O27 2.096 . S
C1 N4 1.301 . S
C1 N5 1.328 . S
C1 H6 0.930 . S
C2 C3 1.333 . S
C2 N4 1.317 . S
C2 H7 0.930 . S
C3 C2 1.333 . S
C3 N5 1.350 . S
C3 H29 0.931 . S
N4 Co0 2.148 1_556 S
N4 C1 1.301 . S
N4 C2 1.317 . S
N5 C1 1.328 . S
N5 C3 1.350 . S
H6 C1 0.930 . S
H7 C2 0.930 . S
C8 O9 1.224 . S
C8 O27 1.247 . S
O9 C8 1.224 . S
N10 Co0 2.128 . S
N10 C11 1.355 . S
N10 C13 1.311 . S
C11 N10 1.355 . S
C11 C12 1.363 . S
C11 H23 0.929 . S
C12 C11 1.363 . S
C12 N14 1.375 . S
C12 H30 0.931 . S
C13 N10 1.311 . S
C13 N14 1.347 . S
C13 H24 0.929 . S
N14 C12 1.375 . S
N14 C13 1.347 . S
C15 C18 1.365 . S
C15 N20 1.328 . S
C15 H21 0.929 . S
C16 C17 1.362 . S
C16 C19 1.378 . S
C16 H31 0.929 . S
C17 C16 1.362 . S
C17 C18 1.366 . S
C18 C15 1.365 . S
C18 C17 1.366 . S
C18 H32 0.930 . S
C19 C16 1.378 . S
C19 N20 1.315 . S
C19 H22 0.930 . S
N20 Co0 2.194 . S
N20 C15 1.328 . S
N20 C19 1.315 . S
H21 C15 0.929 . S
H22 C19 0.930 . S
H23 C11 0.929 . S
H24 C13 0.929 . S
O25 Co0 2.351 . S
O25 C28 1.244 . S
O26 Co0 2.155 . S
O26 C28 1.240 . S
O27 Co0 2.096 . S
O27 C8 1.247 . S
C28 O25 1.244 . S
C28 O26 1.240 . S
H29 C3 0.931 . S
H30 C12 0.931 . S
H31 C16 0.929 . S
H32 C18 0.930 . S
Co33 N37 2.148 . S
Co33 N43 2.128 . S
Co33 N53 2.194 . S
Co33 O58 2.351 . S
Co33 O59 2.155 . S
Co33 O60 2.096 . S
C34 N37 1.301 1_556 S
C34 N38 1.328 . S
C34 H39 0.930 . S
C35 C36 1.333 1_554 S
C35 N37 1.317 . S
C35 H40 0.930 . S
C36 C35 1.333 1_556 S
C36 N38 1.350 . S
C36 H62 0.931 . S
N37 Co33 2.148 . S
N37 C34 1.301 1_554 S
N37 C35 1.317 . S
N38 C34 1.328 . S
N38 C36 1.350 . S
H39 C34 0.930 . S
H40 C35 0.930 . S
C41 O42 1.224 . S
C41 O60 1.247 . S
O42 C41 1.224 . S
N43 Co33 2.128 . S
N43 C44 1.355 . S
N43 C46 1.311 . S
C44 N43 1.355 . S
C44 C45 1.363 . S
C44 H56 0.929 . S
C45 C44 1.363 . S
C45 N47 1.375 . S
C45 H63 0.931 . S
C46 N43 1.311 . S
C46 N47 1.347 . S
C46 H57 0.929 . S
N47 C45 1.375 . S
N47 C46 1.347 . S
C48 C51 1.365 . S
C48 N53 1.328 . S
C48 H54 0.929 . S
C49 C50 1.362 . S
C49 C52 1.378 . S
C49 H64 0.929 . S
C50 C49 1.362 . S
C50 C51 1.366 . S
C51 C48 1.365 . S
C51 C50 1.366 . S
C51 H65 0.930 . S
C52 C49 1.378 . S
C52 N53 1.315 . S
C52 H55 0.930 . S
N53 Co33 2.194 . S
N53 C48 1.328 . S
N53 C52 1.315 . S
H54 C48 0.929 . S
H55 C52 0.930 . S
H56 C44 0.929 . S
H57 C46 0.929 . S
O58 Co33 2.351 . S
O58 C61 1.244 . S
O59 Co33 2.155 . S
O59 C61 1.240 . S
O60 Co33 2.096 . S
O60 C41 1.247 . S
C61 O58 1.244 . S
C61 O59 1.240 . S
H62 C36 0.931 . S
H63 C45 0.931 . S
H64 C49 0.929 . S
H65 C51 0.930 . S
Co66 N70 2.148 . S
Co66 N76 2.128 . S
Co66 N86 2.194 . S
Co66 O91 2.351 . S
Co66 O92 2.155 . S
Co66 O93 2.096 . S
C67 N70 1.301 . S
C67 N71 1.328 . S
C67 H72 0.930 . S
C68 C69 1.333 . S
C68 N70 1.317 . S
C68 H73 0.930 . S
C69 C68 1.333 . S
C69 N71 1.350 . S
C69 H95 0.931 . S
N70 Co66 2.148 . S
N70 C67 1.301 . S
N70 C68 1.317 . S
N71 C67 1.328 . S
N71 C69 1.350 . S
H72 C67 0.930 . S
H73 C68 0.930 . S
C74 O75 1.224 . S
C74 O93 1.247 . S
O75 C74 1.224 . S
N76 Co66 2.128 . S
N76 C77 1.355 . S
N76 C79 1.311 . S
C77 N76 1.355 . S
C77 C78 1.363 . S
C77 H89 0.929 . S
C78 C77 1.363 . S
C78 N80 1.375 . S
C78 H96 0.931 . S
C79 N76 1.311 . S
C79 N80 1.347 . S
C79 H90 0.929 . S
N80 C78 1.375 . S
N80 C79 1.347 . S
C81 C84 1.365 . S
C81 N86 1.328 . S
C81 H87 0.929 . S
C82 C83 1.362 . S
C82 C85 1.378 . S
C82 H97 0.929 . S
C83 C82 1.362 . S
C83 C84 1.366 . S
C84 C81 1.365 . S
C84 C83 1.366 . S
C84 H98 0.930 . S
C85 C82 1.378 . S
C85 N86 1.315 . S
C85 H88 0.930 . S
N86 Co66 2.194 . S
N86 C81 1.328 . S
N86 C85 1.315 . S
H87 C81 0.929 . S
H88 C85 0.930 . S
H89 C77 0.929 . S
H90 C79 0.929 . S
O91 Co66 2.351 . S
O91 C94 1.244 . S
O92 Co66 2.155 . S
O92 C94 1.240 . S
O93 Co66 2.096 . S
O93 C74 1.247 . S
C94 O91 1.244 . S
C94 O92 1.240 . S
H95 C69 0.931 . S
H96 C78 0.931 . S
H97 C82 0.929 . S
H98 C84 0.930 . S
Co99 N103 2.148 . S
Co99 N109 2.128 . S
Co99 N119 2.194 . S
Co99 O124 2.351 . S
Co99 O125 2.155 . S
Co99 O126 2.096 . S
C100 N103 1.301 . S
C100 N104 1.328 . S
C100 H105 0.930 . S
C101 C102 1.333 . S
C101 N103 1.317 . S
C101 H106 0.930 . S
C102 C101 1.333 . S
C102 N104 1.350 . S
C102 H128 0.931 . S
N103 Co99 2.148 . S
N103 C100 1.301 . S
N103 C101 1.317 . S
N104 C100 1.328 . S
N104 C102 1.350 . S
H105 C100 0.930 . S
H106 C101 0.930 . S
C107 O108 1.224 . S
C107 O126 1.247 . S
O108 C107 1.224 . S
N109 Co99 2.128 . S
N109 C110 1.355 . S
N109 C112 1.311 . S
C110 N109 1.355 . S
C110 C111 1.363 1_556 S
C110 H122 0.929 . S
C111 C110 1.363 1_554 S
C111 N113 1.375 . S
C111 H129 0.931 . S
C112 N109 1.311 . S
C112 N113 1.347 1_556 S
C112 H123 0.929 . S
N113 C111 1.375 . S
N113 C112 1.347 1_554 S
C114 C117 1.365 . S
C114 N119 1.328 . S
C114 H120 0.929 . S
C115 C116 1.362 . S
C115 C118 1.378 . S
C115 H130 0.929 . S
C116 C115 1.362 . S
C116 C117 1.366 . S
C117 C114 1.365 . S
C117 C116 1.366 . S
C117 H131 0.930 . S
C118 C115 1.378 . S
C118 N119 1.315 . S
C118 H121 0.930 . S
N119 Co99 2.194 . S
N119 C114 1.328 . S
N119 C118 1.315 . S
H120 C114 0.929 . S
H121 C118 0.930 . S
H122 C110 0.929 . S
H123 C112 0.929 . S
O124 Co99 2.351 . S
O124 C127 1.244 . S
O125 Co99 2.155 . S
O125 C127 1.240 . S
O126 Co99 2.096 . S
O126 C107 1.247 . S
C127 O124 1.244 . S
C127 O125 1.240 . S
H128 C102 0.931 . S
H129 C111 0.931 . S
H130 C115 0.929 . S
H131 C117 0.930 . S
Co132 N136 2.148 . S
Co132 N142 2.128 . S
Co132 N152 2.194 . S
Co132 O157 2.351 . S
Co132 O158 2.155 . S
Co132 O159 2.096 . S
C133 N136 1.301 . S
C133 N137 1.328 . S
C133 H138 0.930 . S
C134 C135 1.333 . S
C134 N136 1.317 . S
C134 H139 0.930 . S
C135 C134 1.333 . S
C135 N137 1.350 . S
C135 H161 0.931 . S
N136 Co132 2.148 . S
N136 C133 1.301 . S
N136 C134 1.317 . S
N137 C133 1.328 . S
N137 C135 1.350 . S
H138 C133 0.930 . S
H139 C134 0.930 . S
C140 O141 1.224 . S
C140 O159 1.247 . S
O141 C140 1.224 . S
N142 Co132 2.128 . S
N142 C143 1.355 1_556 S
N142 C145 1.311 1_556 S
C143 N142 1.355 1_554 S
C143 C144 1.363 . S
C143 H155 0.929 1_554 S
C144 C143 1.363 . S
C144 N146 1.375 . S
C144 H162 0.931 . S
C145 N142 1.311 1_554 S
C145 N146 1.347 . S
C145 H156 0.929 . S
N146 C144 1.375 . S
N146 C145 1.347 . S
C147 C150 1.365 . S
C147 N152 1.328 . S
C147 H153 0.929 . S
C148 C149 1.362 . S
C148 C151 1.378 . S
C148 H163 0.929 . S
C149 C148 1.362 . S
C149 C150 1.366 . S
C150 C147 1.365 . S
C150 C149 1.366 . S
C150 H164 0.930 . S
C151 C148 1.378 . S
C151 N152 1.315 . S
C151 H154 0.930 . S
N152 Co132 2.194 . S
N152 C147 1.328 . S
N152 C151 1.315 . S
H153 C147 0.929 . S
H154 C151 0.930 . S
H155 C143 0.929 1_556 S
H156 C145 0.929 . S
O157 Co132 2.351 . S
O157 C160 1.244 . S
O158 Co132 2.155 . S
O158 C160 1.240 . S
O159 Co132 2.096 . S
O159 C140 1.247 . S
C160 O157 1.244 . S
C160 O158 1.240 . S
H161 C135 0.931 . S
H162 C144 0.931 . S
H163 C148 0.929 . S
H164 C150 0.930 . S
Co165 N169 2.148 . S
Co165 N175 2.128 1_556 S
Co165 N185 2.194 . S
Co165 O190 2.351 . S
Co165 O191 2.155 . S
Co165 O192 2.096 1_556 S
C166 N169 1.301 . S
C166 N170 1.328 . S
C166 H171 0.930 . S
C167 C168 1.333 . S
C167 N169 1.317 . S
C167 H172 0.930 . S
C168 C167 1.333 . S
C168 N170 1.350 . S
C168 H194 0.931 . S
N169 Co165 2.148 . S
N169 C166 1.301 . S
N169 C167 1.317 . S
N170 C166 1.328 . S
N170 C168 1.350 . S
H171 C166 0.930 . S
H172 C167 0.930 . S
C173 O174 1.224 . S
C173 O192 1.247 . S
O174 C173 1.224 . S
N175 Co165 2.128 1_554 S
N175 C176 1.355 . S
N175 C178 1.311 . S
C176 N175 1.355 . S
C176 C177 1.363 . S
C176 H188 0.929 . S
C177 C176 1.363 . S
C177 N179 1.375 . S
C177 H195 0.931 . S
C178 N175 1.311 . S
C178 N179 1.347 . S
C178 H189 0.929 . S
N179 C177 1.375 . S
N179 C178 1.347 . S
C180 C183 1.365 . S
C180 N185 1.328 . S
C180 H186 0.929 . S
C181 C182 1.362 . S
C181 C184 1.378 . S
C181 H196 0.929 . S
C182 C181 1.362 . S
C182 C183 1.366 . S
C183 C180 1.365 . S
C183 C182 1.366 . S
C183 H197 0.930 . S
C184 C181 1.378 . S
C184 N185 1.315 . S
C184 H187 0.930 . S
N185 Co165 2.194 . S
N185 C180 1.328 . S
N185 C184 1.315 . S
H186 C180 0.929 . S
H187 C184 0.930 . S
H188 C176 0.929 . S
H189 C178 0.929 . S
O190 Co165 2.351 . S
O190 C193 1.244 . S
O191 Co165 2.155 . S
O191 C193 1.240 . S
O192 Co165 2.096 1_554 S
O192 C173 1.247 . S
C193 O190 1.244 . S
C193 O191 1.240 . S
H194 C168 0.931 . S
H195 C177 0.931 . S
H196 C181 0.929 . S
H197 C183 0.930 . S
Co198 N202 2.148 . S
Co198 N208 2.128 . S
Co198 N218 2.194 . S
Co198 O223 2.351 . S
Co198 O224 2.155 . S
Co198 O225 2.096 . S
C199 N202 1.301 1_554 S
C199 N203 1.328 . S
C199 H204 0.930 . S
C200 C201 1.333 1_556 S
C200 N202 1.317 . S
C200 H205 0.930 . S
C201 C200 1.333 1_554 S
C201 N203 1.350 . S
C201 H227 0.931 . S
N202 Co198 2.148 . S
N202 C199 1.301 1_556 S
N202 C200 1.317 . S
N203 C199 1.328 . S
N203 C201 1.350 . S
H204 C199 0.930 . S
H205 C200 0.930 . S
C206 O207 1.224 . S
C206 O225 1.247 . S
O207 C206 1.224 . S
N208 Co198 2.128 . S
N208 C209 1.355 . S
N208 C211 1.311 . S
C209 N208 1.355 . S
C209 C210 1.363 . S
C209 H221 0.929 . S
C210 C209 1.363 . S
C210 N212 1.375 . S
C210 H228 0.931 . S
C211 N208 1.311 . S
C211 N212 1.347 . S
C211 H222 0.929 . S
N212 C210 1.375 . S
N212 C211 1.347 . S
C213 C216 1.365 . S
C213 N218 1.328 . S
C213 H219 0.929 . S
C214 C215 1.362 . S
C214 C217 1.378 . S
C214 H229 0.929 . S
C215 C214 1.362 . S
C215 C216 1.366 . S
C216 C213 1.365 . S
C216 C215 1.366 . S
C216 H230 0.930 . S
C217 C214 1.378 . S
C217 N218 1.315 . S
C217 H220 0.930 . S
N218 Co198 2.194 . S
N218 C213 1.328 . S
N218 C217 1.315 . S
H219 C213 0.929 . S
H220 C217 0.930 . S
H221 C209 0.929 . S
H222 C211 0.929 . S
O223 Co198 2.351 . S
O223 C226 1.244 . S
O224 Co198 2.155 . S
O224 C226 1.240 . S
O225 Co198 2.096 . S
O225 C206 1.247 . S
C226 O223 1.244 . S
C226 O224 1.240 . S
H227 C201 0.931 . S
H228 C210 0.931 . S
H229 C214 0.929 . S
H230 C216 0.930 . S
Co231 N235 2.148 1_556 S
Co231 N241 2.128 . S
Co231 N251 2.194 . S
Co231 O256 2.351 . S
Co231 O257 2.155 . S
Co231 O258 2.096 . S
C232 N235 1.301 . S
C232 N236 1.328 . S
C232 H237 0.930 . S
C233 C234 1.333 . S
C233 N235 1.317 . S
C233 H238 0.930 . S
C234 C233 1.333 . S
C234 N236 1.350 . S
C234 H260 0.931 . S
N235 Co231 2.148 1_554 S
N235 C232 1.301 . S
N235 C233 1.317 . S
N236 C232 1.328 . S
N236 C234 1.350 . S
H237 C232 0.930 . S
H238 C233 0.930 . S
C239 O240 1.224 . S
C239 O258 1.247 . S
O240 C239 1.224 . S
N241 Co231 2.128 . S
N241 C242 1.355 . S
N241 C244 1.311 . S
C242 N241 1.355 . S
C242 C243 1.363 . S
C242 H254 0.929 . S
C243 C242 1.363 . S
C243 N245 1.375 . S
C243 H261 0.931 . S
C244 N241 1.311 . S
C244 N245 1.347 . S
C244 H255 0.929 . S
N245 C243 1.375 . S
N245 C244 1.347 . S
C246 C249 1.365 . S
C246 N251 1.328 . S
C246 H252 0.929 . S
C247 C248 1.362 . S
C247 C250 1.378 . S
C247 H262 0.929 . S
C248 C247 1.362 . S
C248 C249 1.366 . S
C249 C246 1.365 . S
C249 C248 1.366 . S
C249 H263 0.930 . S
C250 C247 1.378 . S
C250 N251 1.315 . S
C250 H253 0.930 . S
N251 Co231 2.194 . S
N251 C246 1.328 . S
N251 C250 1.315 . S
H252 C246 0.929 . S
H253 C250 0.930 . S
H254 C242 0.929 . S
H255 C244 0.929 . S
O256 Co231 2.351 . S
O256 C259 1.244 . S
O257 Co231 2.155 . S
O257 C259 1.240 . S
O258 Co231 2.096 . S
O258 C239 1.247 . S
C259 O256 1.244 . S
C259 O257 1.240 . S
H260 C234 0.931 . S
H261 C243 0.931 . S
H262 C247 0.929 . S
H263 C249 0.930 . S
Co264 N268 2.148 . S
Co264 N274 2.128 1_554 S
Co264 N284 2.194 . S
Co264 O289 2.351 . S
Co264 O290 2.155 . S
Co264 O291 2.096 1_554 S
C265 N268 1.301 . S
C265 N269 1.328 . S
C265 H270 0.930 . S
C266 C267 1.333 . S
C266 N268 1.317 . S
C266 H271 0.930 . S
C267 C266 1.333 . S
C267 N269 1.350 . S
C267 H293 0.931 . S
N268 Co264 2.148 . S
N268 C265 1.301 . S
N268 C266 1.317 . S
N269 C265 1.328 . S
N269 C267 1.350 . S
H270 C265 0.930 . S
H271 C266 0.930 . S
C272 O273 1.224 . S
C272 O291 1.247 . S
O273 C272 1.224 . S
N274 Co264 2.128 1_556 S
N274 C275 1.355 . S
N274 C277 1.311 . S
C275 N274 1.355 . S
C275 C276 1.363 . S
C275 H287 0.929 . S
C276 C275 1.363 . S
C276 N278 1.375 . S
C276 H294 0.931 . S
C277 N274 1.311 . S
C277 N278 1.347 . S
C277 H288 0.929 . S
N278 C276 1.375 . S
N278 C277 1.347 . S
C279 C282 1.365 . S
C279 N284 1.328 . S
C279 H285 0.929 . S
C280 C281 1.362 . S
C280 C283 1.378 . S
C280 H295 0.929 . S
C281 C280 1.362 . S
C281 C282 1.366 . S
C282 C279 1.365 . S
C282 C281 1.366 . S
C282 H296 0.930 . S
C283 C280 1.378 . S
C283 N284 1.315 . S
C283 H286 0.930 . S
N284 Co264 2.194 . S
N284 C279 1.328 . S
N284 C283 1.315 . S
H285 C279 0.929 . S
H286 C283 0.930 . S
H287 C275 0.929 . S
H288 C277 0.929 . S
O289 Co264 2.351 . S
O289 C292 1.244 . S
O290 Co264 2.155 . S
O290 C292 1.240 . S
O291 Co264 2.096 1_556 S
O291 C272 1.247 . S
C292 O289 1.244 . S
C292 O290 1.240 . S
H293 C267 0.931 . S
H294 C276 0.931 . S
H295 C280 0.929 . S
H296 C282 0.930 . S
Co297 N301 2.148 . S
Co297 N307 2.128 . S
Co297 N317 2.194 . S
Co297 O322 2.351 . S
Co297 O323 2.155 . S
Co297 O324 2.096 . S
C298 N301 1.301 . S
C298 N302 1.328 . S
C298 H303 0.930 . S
C299 C300 1.333 . S
C299 N301 1.317 . S
C299 H304 0.930 . S
C300 C299 1.333 . S
C300 N302 1.350 . S
C300 H326 0.931 . S
N301 Co297 2.148 . S
N301 C298 1.301 . S
N301 C299 1.317 . S
N302 C298 1.328 . S
N302 C300 1.350 . S
H303 C298 0.930 . S
H304 C299 0.930 . S
C305 O306 1.224 . S
C305 O324 1.247 . S
O306 C305 1.224 . S
N307 Co297 2.128 . S
N307 C308 1.355 1_554 S
N307 C310 1.311 1_554 S
C308 N307 1.355 1_556 S
C308 C309 1.363 . S
C308 H320 0.929 1_556 S
C309 C308 1.363 . S
C309 N311 1.375 . S
C309 H327 0.931 . S
C310 N307 1.311 1_556 S
C310 N311 1.347 . S
C310 H321 0.929 . S
N311 C309 1.375 . S
N311 C310 1.347 . S
C312 C315 1.365 . S
C312 N317 1.328 . S
C312 H318 0.929 . S
C313 C314 1.362 . S
C313 C316 1.378 . S
C313 H328 0.929 . S
C314 C313 1.362 . S
C314 C315 1.366 . S
C315 C312 1.365 . S
C315 C314 1.366 . S
C315 H329 0.930 . S
C316 C313 1.378 . S
C316 N317 1.315 . S
C316 H319 0.930 . S
N317 Co297 2.194 . S
N317 C312 1.328 . S
N317 C316 1.315 . S
H318 C312 0.929 . S
H319 C316 0.930 . S
H320 C308 0.929 1_554 S
H321 C310 0.929 . S
O322 Co297 2.351 . S
O322 C325 1.244 . S
O323 Co297 2.155 . S
O323 C325 1.240 . S
O324 Co297 2.096 . S
O324 C305 1.247 . S
C325 O322 1.244 . S
C325 O323 1.240 . S
H326 C300 0.931 . S
H327 C309 0.931 . S
H328 C313 0.929 . S
H329 C315 0.930 . S
Co330 N334 2.148 . S
Co330 N340 2.128 . S
Co330 N350 2.194 . S
Co330 O355 2.351 . S
Co330 O356 2.155 . S
Co330 O357 2.096 . S
C331 N334 1.301 . S
C331 N335 1.328 . S
C331 H336 0.930 . S
C332 C333 1.333 . S
C332 N334 1.317 . S
C332 H337 0.930 . S
C333 C332 1.333 . S
C333 N335 1.350 . S
C333 H359 0.931 . S
N334 Co330 2.148 . S
N334 C331 1.301 . S
N334 C332 1.317 . S
N335 C331 1.328 . S
N335 C333 1.350 . S
H336 C331 0.930 . S
H337 C332 0.930 . S
C338 O339 1.224 . S
C338 O357 1.247 . S
O339 C338 1.224 . S
N340 Co330 2.128 . S
N340 C341 1.355 . S
N340 C343 1.311 . S
C341 N340 1.355 . S
C341 C342 1.363 1_554 S
C341 H353 0.929 . S
C342 C341 1.363 1_556 S
C342 N344 1.375 . S
C342 H360 0.931 . S
C343 N340 1.311 . S
C343 N344 1.347 1_554 S
C343 H354 0.929 . S
N344 C342 1.375 . S
N344 C343 1.347 1_556 S
C345 C348 1.365 . S
C345 N350 1.328 . S
C345 H351 0.929 . S
C346 C347 1.362 . S
C346 C349 1.378 . S
C346 H361 0.929 . S
C347 C346 1.362 . S
C347 C348 1.366 . S
C348 C345 1.365 . S
C348 C347 1.366 . S
C348 H362 0.930 . S
C349 C346 1.378 . S
C349 N350 1.315 . S
C349 H352 0.930 . S
N350 Co330 2.194 . S
N350 C345 1.328 . S
N350 C349 1.315 . S
H351 C345 0.929 . S
H352 C349 0.930 . S
H353 C341 0.929 . S
H354 C343 0.929 . S
O355 Co330 2.351 . S
O355 C358 1.244 . S
O356 Co330 2.155 . S
O356 C358 1.240 . S
O357 Co330 2.096 . S
O357 C338 1.247 . S
C358 O355 1.244 . S
C358 O356 1.240 . S
H359 C333 0.931 . S
H360 C342 0.931 . S
H361 C346 0.929 . S
H362 C348 0.930 . S
Co363 N367 2.148 . S
Co363 N373 2.128 . S
Co363 N383 2.194 . S
Co363 O388 2.351 . S
Co363 O389 2.155 . S
Co363 O390 2.096 . S
C364 N367 1.301 . S
C364 N368 1.328 . S
C364 H369 0.930 . S
C365 C366 1.333 . S
C365 N367 1.317 . S
C365 H370 0.930 . S
C366 C365 1.333 . S
C366 N368 1.350 . S
C366 H392 0.931 . S
N367 Co363 2.148 . S
N367 C364 1.301 . S
N367 C365 1.317 . S
N368 C364 1.328 . S
N368 C366 1.350 . S
H369 C364 0.930 . S
H370 C365 0.930 . S
C371 O372 1.224 . S
C371 O390 1.247 . S
O372 C371 1.224 . S
N373 Co363 2.128 . S
N373 C374 1.355 . S
N373 C376 1.311 . S
C374 N373 1.355 . S
C374 C375 1.363 . S
C374 H386 0.929 . S
C375 C374 1.363 . S
C375 N377 1.375 . S
C375 H393 0.931 . S
C376 N373 1.311 . S
C376 N377 1.347 . S
C376 H387 0.929 . S
N377 C375 1.375 . S
N377 C376 1.347 . S
C378 C381 1.365 . S
C378 N383 1.328 . S
C378 H384 0.929 . S
C379 C380 1.362 . S
C379 C382 1.378 . S
C379 H394 0.929 . S
C380 C379 1.362 . S
C380 C381 1.366 . S
C381 C378 1.365 . S
C381 C380 1.366 . S
C381 H395 0.930 . S
C382 C379 1.378 . S
C382 N383 1.315 . S
C382 H385 0.930 . S
N383 Co363 2.194 . S
N383 C378 1.328 . S
N383 C382 1.315 . S
H384 C378 0.929 . S
H385 C382 0.930 . S
H386 C374 0.929 . S
H387 C376 0.929 . S
O388 Co363 2.351 . S
O388 C391 1.244 . S
O389 Co363 2.155 . S
O389 C391 1.240 . S
O390 Co363 2.096 . S
O390 C371 1.247 . S
C391 O388 1.244 . S
C391 O389 1.240 . S
H392 C366 0.931 . S
H393 C375 0.931 . S
H394 C379 0.929 . S
H395 C381 0.930 . S
C281 C17 1.395 . S
C314 C50 1.395 . S
C347 C83 1.395 . S
C380 C116 1.395 . S
C149 C215 1.395 . S
C248 C182 1.395 . S
N5 N14 1.943 . S
N47 N38 1.943 . S
N80 N71 1.943 1_556 S
N113 N104 1.943 . S
N146 N137 1.943 . S
N179 N170 1.943 . S
N203 N212 1.943 . S
N245 N236 1.943 . S
N269 N278 1.943 . S
N302 N311 1.943 . S
N335 N344 1.943 . S
N377 N368 1.943 1_554 S
C8 C338 1.593 . S
C41 C371 1.592 . S
C74 C206 1.593 . S
C239 C107 1.593 . S
C272 C140 1.593 . S
C305 C173 1.593 . S
C28 C259 1.321 1_544 S
C292 C61 1.321 . S
C325 C94 1.321 1_455 S
C127 C358 1.321 1_565 S
C391 C160 1.321 . S
C193 C226 1.321 1_455 S
