# Generated by pormake.
# Topology ukp, (4)-cn, num edge types: 1
# Building blocks:
#     Node 0, Type 0, BuildingBlock: CEKHIL_clean_sbu_0, # of connection points: 4
#     Node 1, Type 0, BuildingBlock: CEKHIL_clean_sbu_0, # of connection points: 4
#     Node 2, Type 0, BuildingBlock: CEKHIL_clean_sbu_0, # of connection points: 4
#     Node 3, Type 0, BuildingBlock: CEKHIL_clean_sbu_0, # of connection points: 4
#     Node 4, Type 0, BuildingBlock: CEKHIL_clean_sbu_0, # of connection points: 4
#     Node 5, Type 0, BuildingBlock: CEKHIL_clean_sbu_0, # of connection points: 4
#     Node 6, Type 0, BuildingBlock: CEKHIL_clean_sbu_0, # of connection points: 4
#     Node 7, Type 0, BuildingBlock: CEKHIL_clean_sbu_0, # of connection points: 4
#     Node 8, Type 0, BuildingBlock: CEKHIL_clean_sbu_0, # of connection points: 4
#     Node 9, Type 0, BuildingBlock: CEKHIL_clean_sbu_0, # of connection points: 4
#     Node 10, Type 0, BuildingBlock: CEKHIL_clean_sbu_0, # of connection points: 4
#     Node 11, Type 0, BuildingBlock: CEKHIL_clean_sbu_0, # of connection points: 4
#     Node 12, Type 0, BuildingBlock: CEKHIL_clean_sbu_0, # of connection points: 4
#     Node 13, Type 0, BuildingBlock: CEKHIL_clean_sbu_0, # of connection points: 4
#     Node 14, Type 0, BuildingBlock: CEKHIL_clean_sbu_0, # of connection points: 4
#     Node 15, Type 0, BuildingBlock: CEKHIL_clean_sbu_0, # of connection points: 4
#     Node 16, Type 0, BuildingBlock: CEKHIL_clean_sbu_0, # of connection points: 4
#     Node 17, Type 0, BuildingBlock: CEKHIL_clean_sbu_0, # of connection points: 4
#     Node 18, Type 0, BuildingBlock: CEKHIL_clean_sbu_0, # of connection points: 4
#     Node 19, Type 0, BuildingBlock: CEKHIL_clean_sbu_0, # of connection points: 4
#     Node 20, Type 0, BuildingBlock: CEKHIL_clean_sbu_0, # of connection points: 4
#     Node 21, Type 0, BuildingBlock: CEKHIL_clean_sbu_0, # of connection points: 4
#     Node 22, Type 0, BuildingBlock: CEKHIL_clean_sbu_0, # of connection points: 4
#     Node 23, Type 0, BuildingBlock: CEKHIL_clean_sbu_0, # of connection points: 4
#     Node 24, Type 0, BuildingBlock: CEKHIL_clean_sbu_0, # of connection points: 4
#     Node 25, Type 0, BuildingBlock: CEKHIL_clean_sbu_0, # of connection points: 4
#     Node 26, Type 0, BuildingBlock: CEKHIL_clean_sbu_0, # of connection points: 4
#     Node 27, Type 0, BuildingBlock: CEKHIL_clean_sbu_0, # of connection points: 4
#     Node 28, Type 0, BuildingBlock: CEKHIL_clean_sbu_0, # of connection points: 4
#     Node 29, Type 0, BuildingBlock: CEKHIL_clean_sbu_0, # of connection points: 4
#     Node 30, Type 0, BuildingBlock: CEKHIL_clean_sbu_0, # of connection points: 4
#     Node 31, Type 0, BuildingBlock: CEKHIL_clean_sbu_0, # of connection points: 4
#     Node 32, Type 0, BuildingBlock: CEKHIL_clean_sbu_0, # of connection points: 4
#     Node 33, Type 0, BuildingBlock: CEKHIL_clean_sbu_0, # of connection points: 4
#     Node 34, Type 0, BuildingBlock: CEKHIL_clean_sbu_0, # of connection points: 4
#     Node 35, Type 0, BuildingBlock: CEKHIL_clean_sbu_0, # of connection points: 4
#     Node 36, Type 0, BuildingBlock: CEKHIL_clean_sbu_0, # of connection points: 4
#     Node 37, Type 0, BuildingBlock: CEKHIL_clean_sbu_0, # of connection points: 4
#     Node 38, Type 0, BuildingBlock: CEKHIL_clean_sbu_0, # of connection points: 4
#     Node 39, Type 0, BuildingBlock: CEKHIL_clean_sbu_0, # of connection points: 4
#     Node 40, Type 0, BuildingBlock: CEKHIL_clean_sbu_0, # of connection points: 4
#     Node 41, Type 0, BuildingBlock: CEKHIL_clean_sbu_0, # of connection points: 4
#     Node 42, Type 0, BuildingBlock: CEKHIL_clean_sbu_0, # of connection points: 4
#     Node 43, Type 0, BuildingBlock: CEKHIL_clean_sbu_0, # of connection points: 4
#     Node 44, Type 0, BuildingBlock: CEKHIL_clean_sbu_0, # of connection points: 4
#     Node 45, Type 0, BuildingBlock: CEKHIL_clean_sbu_0, # of connection points: 4
#     Node 46, Type 0, BuildingBlock: CEKHIL_clean_sbu_0, # of connection points: 4
#     Node 47, Type 0, BuildingBlock: CEKHIL_clean_sbu_0, # of connection points: 4
#     Edge 48, Type (0, 0), BuildingBlock: MIFKUJ_clean_linker_0, # of connection points: 2
#     Edge 49, Type (0, 0), BuildingBlock: MIFKUJ_clean_linker_0, # of connection points: 2
#     Edge 50, Type (0, 0), BuildingBlock: MIFKUJ_clean_linker_0, # of connection points: 2
#     Edge 51, Type (0, 0), BuildingBlock: MIFKUJ_clean_linker_0, # of connection points: 2
#     Edge 52, Type (0, 0), BuildingBlock: MIFKUJ_clean_linker_0, # of connection points: 2
#     Edge 53, Type (0, 0), BuildingBlock: MIFKUJ_clean_linker_0, # of connection points: 2
#     Edge 54, Type (0, 0), BuildingBlock: MIFKUJ_clean_linker_0, # of connection points: 2
#     Edge 55, Type (0, 0), BuildingBlock: MIFKUJ_clean_linker_0, # of connection points: 2
#     Edge 56, Type (0, 0), BuildingBlock: MIFKUJ_clean_linker_0, # of connection points: 2
#     Edge 57, Type (0, 0), BuildingBlock: MIFKUJ_clean_linker_0, # of connection points: 2
#     Edge 58, Type (0, 0), BuildingBlock: MIFKUJ_clean_linker_0, # of connection points: 2
#     Edge 59, Type (0, 0), BuildingBlock: MIFKUJ_clean_linker_0, # of connection points: 2
#     Edge 60, Type (0, 0), BuildingBlock: MIFKUJ_clean_linker_0, # of connection points: 2
#     Edge 61, Type (0, 0), BuildingBlock: MIFKUJ_clean_linker_0, # of connection points: 2
#     Edge 62, Type (0, 0), BuildingBlock: MIFKUJ_clean_linker_0, # of connection points: 2
#     Edge 63, Type (0, 0), BuildingBlock: MIFKUJ_clean_linker_0, # of connection points: 2
#     Edge 64, Type (0, 0), BuildingBlock: MIFKUJ_clean_linker_0, # of connection points: 2
#     Edge 65, Type (0, 0), BuildingBlock: MIFKUJ_clean_linker_0, # of connection points: 2
#     Edge 66, Type (0, 0), BuildingBlock: MIFKUJ_clean_linker_0, # of connection points: 2
#     Edge 67, Type (0, 0), BuildingBlock: MIFKUJ_clean_linker_0, # of connection points: 2
#     Edge 68, Type (0, 0), BuildingBlock: MIFKUJ_clean_linker_0, # of connection points: 2
#     Edge 69, Type (0, 0), BuildingBlock: MIFKUJ_clean_linker_0, # of connection points: 2
#     Edge 70, Type (0, 0), BuildingBlock: MIFKUJ_clean_linker_0, # of connection points: 2
#     Edge 71, Type (0, 0), BuildingBlock: MIFKUJ_clean_linker_0, # of connection points: 2
#     Edge 72, Type (0, 0), BuildingBlock: MIFKUJ_clean_linker_0, # of connection points: 2
#     Edge 73, Type (0, 0), BuildingBlock: MIFKUJ_clean_linker_0, # of connection points: 2
#     Edge 74, Type (0, 0), BuildingBlock: MIFKUJ_clean_linker_0, # of connection points: 2
#     Edge 75, Type (0, 0), BuildingBlock: MIFKUJ_clean_linker_0, # of connection points: 2
#     Edge 76, Type (0, 0), BuildingBlock: MIFKUJ_clean_linker_0, # of connection points: 2
#     Edge 77, Type (0, 0), BuildingBlock: MIFKUJ_clean_linker_0, # of connection points: 2
#     Edge 78, Type (0, 0), BuildingBlock: MIFKUJ_clean_linker_0, # of connection points: 2
#     Edge 79, Type (0, 0), BuildingBlock: MIFKUJ_clean_linker_0, # of connection points: 2
#     Edge 80, Type (0, 0), BuildingBlock: MIFKUJ_clean_linker_0, # of connection points: 2
#     Edge 81, Type (0, 0), BuildingBlock: MIFKUJ_clean_linker_0, # of connection points: 2
#     Edge 82, Type (0, 0), BuildingBlock: MIFKUJ_clean_linker_0, # of connection points: 2
#     Edge 83, Type (0, 0), BuildingBlock: MIFKUJ_clean_linker_0, # of connection points: 2
#     Edge 84, Type (0, 0), BuildingBlock: MIFKUJ_clean_linker_0, # of connection points: 2
#     Edge 85, Type (0, 0), BuildingBlock: MIFKUJ_clean_linker_0, # of connection points: 2
#     Edge 86, Type (0, 0), BuildingBlock: MIFKUJ_clean_linker_0, # of connection points: 2
#     Edge 87, Type (0, 0), BuildingBlock: MIFKUJ_clean_linker_0, # of connection points: 2
#     Edge 88, Type (0, 0), BuildingBlock: MIFKUJ_clean_linker_0, # of connection points: 2
#     Edge 89, Type (0, 0), BuildingBlock: MIFKUJ_clean_linker_0, # of connection points: 2
#     Edge 90, Type (0, 0), BuildingBlock: MIFKUJ_clean_linker_0, # of connection points: 2
#     Edge 91, Type (0, 0), BuildingBlock: MIFKUJ_clean_linker_0, # of connection points: 2
#     Edge 92, Type (0, 0), BuildingBlock: MIFKUJ_clean_linker_0, # of connection points: 2
#     Edge 93, Type (0, 0), BuildingBlock: MIFKUJ_clean_linker_0, # of connection points: 2
#     Edge 94, Type (0, 0), BuildingBlock: MIFKUJ_clean_linker_0, # of connection points: 2
#     Edge 95, Type (0, 0), BuildingBlock: MIFKUJ_clean_linker_0, # of connection points: 2
#     Edge 96, Type (0, 0), BuildingBlock: MIFKUJ_clean_linker_0, # of connection points: 2
#     Edge 97, Type (0, 0), BuildingBlock: MIFKUJ_clean_linker_0, # of connection points: 2
#     Edge 98, Type (0, 0), BuildingBlock: MIFKUJ_clean_linker_0, # of connection points: 2
#     Edge 99, Type (0, 0), BuildingBlock: MIFKUJ_clean_linker_0, # of connection points: 2
#     Edge 100, Type (0, 0), BuildingBlock: MIFKUJ_clean_linker_0, # of connection points: 2
#     Edge 101, Type (0, 0), BuildingBlock: MIFKUJ_clean_linker_0, # of connection points: 2
#     Edge 102, Type (0, 0), BuildingBlock: MIFKUJ_clean_linker_0, # of connection points: 2
#     Edge 103, Type (0, 0), BuildingBlock: MIFKUJ_clean_linker_0, # of connection points: 2
#     Edge 104, Type (0, 0), BuildingBlock: MIFKUJ_clean_linker_0, # of connection points: 2
#     Edge 105, Type (0, 0), BuildingBlock: MIFKUJ_clean_linker_0, # of connection points: 2
#     Edge 106, Type (0, 0), BuildingBlock: MIFKUJ_clean_linker_0, # of connection points: 2
#     Edge 107, Type (0, 0), BuildingBlock: MIFKUJ_clean_linker_0, # of connection points: 2
#     Edge 108, Type (0, 0), BuildingBlock: MIFKUJ_clean_linker_0, # of connection points: 2
#     Edge 109, Type (0, 0), BuildingBlock: MIFKUJ_clean_linker_0, # of connection points: 2
#     Edge 110, Type (0, 0), BuildingBlock: MIFKUJ_clean_linker_0, # of connection points: 2
#     Edge 111, Type (0, 0), BuildingBlock: MIFKUJ_clean_linker_0, # of connection points: 2
#     Edge 112, Type (0, 0), BuildingBlock: MIFKUJ_clean_linker_0, # of connection points: 2
#     Edge 113, Type (0, 0), BuildingBlock: MIFKUJ_clean_linker_0, # of connection points: 2
#     Edge 114, Type (0, 0), BuildingBlock: MIFKUJ_clean_linker_0, # of connection points: 2
#     Edge 115, Type (0, 0), BuildingBlock: MIFKUJ_clean_linker_0, # of connection points: 2
#     Edge 116, Type (0, 0), BuildingBlock: MIFKUJ_clean_linker_0, # of connection points: 2
#     Edge 117, Type (0, 0), BuildingBlock: MIFKUJ_clean_linker_0, # of connection points: 2
#     Edge 118, Type (0, 0), BuildingBlock: MIFKUJ_clean_linker_0, # of connection points: 2
#     Edge 119, Type (0, 0), BuildingBlock: MIFKUJ_clean_linker_0, # of connection points: 2
#     Edge 120, Type (0, 0), BuildingBlock: MIFKUJ_clean_linker_0, # of connection points: 2
#     Edge 121, Type (0, 0), BuildingBlock: MIFKUJ_clean_linker_0, # of connection points: 2
#     Edge 122, Type (0, 0), BuildingBlock: MIFKUJ_clean_linker_0, # of connection points: 2
#     Edge 123, Type (0, 0), BuildingBlock: MIFKUJ_clean_linker_0, # of connection points: 2
#     Edge 124, Type (0, 0), BuildingBlock: MIFKUJ_clean_linker_0, # of connection points: 2
#     Edge 125, Type (0, 0), BuildingBlock: MIFKUJ_clean_linker_0, # of connection points: 2
#     Edge 126, Type (0, 0), BuildingBlock: MIFKUJ_clean_linker_0, # of connection points: 2
#     Edge 127, Type (0, 0), BuildingBlock: MIFKUJ_clean_linker_0, # of connection points: 2
#     Edge 128, Type (0, 0), BuildingBlock: MIFKUJ_clean_linker_0, # of connection points: 2
#     Edge 129, Type (0, 0), BuildingBlock: MIFKUJ_clean_linker_0, # of connection points: 2
#     Edge 130, Type (0, 0), BuildingBlock: MIFKUJ_clean_linker_0, # of connection points: 2
#     Edge 131, Type (0, 0), BuildingBlock: MIFKUJ_clean_linker_0, # of connection points: 2
#     Edge 132, Type (0, 0), BuildingBlock: MIFKUJ_clean_linker_0, # of connection points: 2
#     Edge 133, Type (0, 0), BuildingBlock: MIFKUJ_clean_linker_0, # of connection points: 2
#     Edge 134, Type (0, 0), BuildingBlock: MIFKUJ_clean_linker_0, # of connection points: 2
#     Edge 135, Type (0, 0), BuildingBlock: MIFKUJ_clean_linker_0, # of connection points: 2
#     Edge 136, Type (0, 0), BuildingBlock: MIFKUJ_clean_linker_0, # of connection points: 2
#     Edge 137, Type (0, 0), BuildingBlock: MIFKUJ_clean_linker_0, # of connection points: 2
#     Edge 138, Type (0, 0), BuildingBlock: MIFKUJ_clean_linker_0, # of connection points: 2
#     Edge 139, Type (0, 0), BuildingBlock: MIFKUJ_clean_linker_0, # of connection points: 2
#     Edge 140, Type (0, 0), BuildingBlock: MIFKUJ_clean_linker_0, # of connection points: 2
#     Edge 141, Type (0, 0), BuildingBlock: MIFKUJ_clean_linker_0, # of connection points: 2
#     Edge 142, Type (0, 0), BuildingBlock: MIFKUJ_clean_linker_0, # of connection points: 2
#     Edge 143, Type (0, 0), BuildingBlock: MIFKUJ_clean_linker_0, # of connection points: 2
# Relax obj value: 0.217
# Max RMSD: 0.304
# Mean RMSD: 0.304
data_MOF--net-ukp--node1-CEKHIL_clean_sbu_0--edge1-MIFKUJ_clean_linker_0
_symmetry_space_group_name_H-M    P1
_symmetry_Int_Tables_number       1
_symmetry_cell_setting            triclinic
loop_
_symmetry_equiv_pos_as_xyz
'x, y, z'
_cell_length_a     78.972545
_cell_length_b     78.97815
_cell_length_c     78.971568
_cell_angle_alpha  90.013337
_cell_angle_beta   90.009279
_cell_angle_gamma 90.010048
loop_
_atom_site_label
_atom_site_type_symbol
_atom_site_fract_x
_atom_site_fract_y
_atom_site_fract_z
_atom_type_partial_charge
Co0 Co 0.18732 0.26275 0.37845 0.0
O1 O 0.18 0.25588 0.4004 0.0
O2 O 0.16286 0.26403 0.37962 0.0
C3 C 0.20531 0.24125 0.37364 0.0
O4 O 0.19084 0.27025 0.35402 0.0
Co5 Co 0.22498 0.27307 0.374 0.0
O6 O 0.21899 0.27125 0.34967 0.0
C7 C 0.20163 0.2966 0.39078 0.0
C8 C 0.16471 0.2586 0.39508 0.0
C9 C 0.2038 0.27162 0.3442 0.0
O10 O 0.18932 0.28676 0.38673 0.0
O11 O 0.21717 0.29287 0.38801 0.0
O12 O 0.18918 0.23929 0.37119 0.0
O13 O 0.20964 0.25525 0.38099 0.0
Co14 Co 0.98374 0.94238 0.63342 0.0
O15 O 0.99257 0.93403 0.65427 0.0
O16 O 0.98356 0.9179 0.63299 0.0
C17 C 0.00408 0.96143 0.6281 0.0
O18 O 0.97442 0.94699 0.60986 0.0
Co19 Co 0.97141 0.97945 0.63208 0.0
O20 O 0.97208 0.97525 0.60732 0.0
C21 C 0.94993 0.95406 0.64855 0.0
C22 C 0.9901 0.91903 0.64808 0.0
C23 C 0.97203 0.96042 0.60093 0.0
O24 O 0.96039 0.94267 0.64355 0.0
O25 O 0.95242 0.96991 0.6462 0.0
O26 O 0.00631 0.94557 0.62446 0.0
O27 O 0.99066 0.96492 0.63692 0.0
Co28 Co 0.30953 0.73405 0.88051 0.0
O29 O 0.31425 0.74595 0.90104 0.0
O30 O 0.33368 0.73435 0.88423 0.0
C31 C 0.29141 0.75267 0.86915 0.0
O32 O 0.30904 0.72155 0.85802 0.0
Co33 Co 0.27292 0.72063 0.87506 0.0
O34 O 0.28176 0.71521 0.85222 0.0
C35 C 0.29568 0.70194 0.89761 0.0
C36 C 0.33005 0.74292 0.89781 0.0
C37 C 0.29739 0.71575 0.84822 0.0
O38 O 0.30768 0.71209 0.89338 0.0
O39 O 0.28036 0.70386 0.89266 0.0
O40 O 0.30762 0.75519 0.86813 0.0
O41 O 0.28676 0.7405 0.87911 0.0
Co42 Co 0.51274 0.05551 0.13164 0.0
O43 O 0.50352 0.0599 0.15354 0.0
O44 O 0.51035 0.07969 0.13473 0.0
C45 C 0.49428 0.0353 0.12388 0.0
O46 O 0.52213 0.05512 0.10761 0.0
Co47 Co 0.52848 0.02006 0.12525 0.0
O48 O 0.52706 0.02773 0.10135 0.0
C49 C 0.54744 0.04496 0.14531 0.0
C50 C 0.50417 0.07579 0.14951 0.0
C51 C 0.52568 0.04323 0.09701 0.0
O52 O 0.53629 0.05616 0.1414 0.0
O53 O 0.546 0.02931 0.14131 0.0
O54 O 0.49028 0.05117 0.12259 0.0
O55 O 0.50826 0.03221 0.13189 0.0
Co56 Co 0.18465 0.75187 0.12447 0.0
O57 O 0.17952 0.76278 0.10356 0.0
O58 O 0.16034 0.75243 0.12144 0.0
C59 C 0.20347 0.77111 0.13376 0.0
O60 O 0.18574 0.74018 0.14742 0.0
Co61 Co 0.22116 0.7387 0.13061 0.0
O62 O 0.21332 0.73915 0.15448 0.0
C63 C 0.19772 0.71846 0.10974 0.0
C64 C 0.16377 0.76017 0.1073 0.0
C65 C 0.19769 0.73791 0.15827 0.0
O66 O 0.18595 0.72937 0.11253 0.0
O67 O 0.21289 0.72014 0.11525 0.0
O68 O 0.18735 0.77366 0.13574 0.0
O69 O 0.2075 0.75813 0.12461 0.0
Co70 Co 0.51403 0.93419 0.37939 0.0
O71 O 0.50362 0.92788 0.35851 0.0
O72 O 0.51329 0.90974 0.37777 0.0
C73 C 0.49467 0.9535 0.38731 0.0
O74 O 0.52518 0.93671 0.40249 0.0
Co75 Co 0.52739 0.97111 0.38252 0.0
O76 O 0.52867 0.96472 0.40683 0.0
C77 C 0.54685 0.94635 0.36282 0.0
C78 C 0.50586 0.91236 0.36329 0.0
C79 C 0.52885 0.94943 0.41203 0.0
O80 O 0.53685 0.93464 0.36807 0.0
O81 O 0.54446 0.9621 0.36584 0.0
O82 O 0.49196 0.9375 0.38985 0.0
O83 O 0.50782 0.95703 0.37819 0.0
Co84 Co 0.3149 0.25244 0.63178 0.0
O85 O 0.32115 0.24017 0.61196 0.0
O86 O 0.33926 0.25342 0.62902 0.0
C87 C 0.29735 0.23266 0.64222 0.0
O88 O 0.31257 0.26576 0.65374 0.0
Co89 Co 0.27745 0.26348 0.63599 0.0
O90 O 0.28476 0.26633 0.65987 0.0
C91 C 0.29984 0.28334 0.61376 0.0
C92 C 0.33662 0.24414 0.61566 0.0
C93 C 0.3002 0.26863 0.66397 0.0
O94 O 0.31228 0.27378 0.61809 0.0
O95 O 0.28461 0.28084 0.61877 0.0
O96 O 0.31357 0.23147 0.64465 0.0
O97 O 0.29257 0.2446 0.63208 0.0
Co98 Co 0.98505 0.065 0.86781 0.0
O99 O 0.9945 0.07562 0.84832 0.0
O100 O 0.98335 0.08929 0.87031 0.0
C101 C 0.00615 0.04649 0.87275 0.0
O102 O 0.97468 0.05789 0.89026 0.0
Co103 Co 0.9751 0.02705 0.86508 0.0
O104 O 0.97246 0.02948 0.88993 0.0
C105 C 0.95329 0.05259 0.84926 0.0
C106 C 0.99077 0.08984 0.85561 0.0
C107 C 0.97154 0.04368 0.89758 0.0
O108 O 0.96226 0.06421 0.85632 0.0
O109 O 0.95708 0.03684 0.85005 0.0
O110 O 0.00744 0.06211 0.87769 0.0
O111 O 0.99335 0.04329 0.863 0.0
Co112 Co 0.36885 0.17905 0.25665 0.0
O113 O 0.38998 0.17128 0.24794 0.0
O114 O 0.36924 0.15456 0.25713 0.0
C115 C 0.36351 0.19791 0.23603 0.0
O116 O 0.34527 0.18301 0.26613 0.0
Co117 Co 0.36595 0.21665 0.268 0.0
O118 O 0.34139 0.21116 0.26826 0.0
C119 C 0.3836 0.19221 0.28984 0.0
C120 C 0.38429 0.15614 0.25062 0.0
C121 C 0.33582 0.196 0.26884 0.0
O122 O 0.37872 0.18012 0.28009 0.0
O123 O 0.38113 0.20789 0.28651 0.0
O124 O 0.36001 0.182 0.23379 0.0
O125 O 0.37176 0.20146 0.24971 0.0
Co126 Co 0.06315 0.12342 0.50996 0.0
O127 O 0.06362 0.14458 0.49827 0.0
O128 O 0.08635 0.13098 0.50783 0.0
C129 C 0.04551 0.10997 0.49214 0.0
O130 O 0.06701 0.10126 0.52252 0.0
Co131 Co 0.02897 0.11139 0.52535 0.0
O132 O 0.04132 0.08949 0.5263 0.0
C133 C 0.04938 0.13672 0.54367 0.0
C134 C 0.07992 0.14398 0.49999 0.0
C135 C 0.05744 0.08875 0.52665 0.0
O136 O 0.0609 0.1355 0.53224 0.0
O137 O 0.03515 0.12897 0.54278 0.0
O138 O 0.06154 0.11107 0.48868 0.0
O139 O 0.04046 0.11871 0.50504 0.0
Co140 Co 0.12452 0.81859 0.75718 0.0
O141 O 0.10298 0.82459 0.74814 0.0
O142 O 0.12207 0.84296 0.7578 0.0
C143 C 0.13223 0.80053 0.73669 0.0
O144 O 0.14823 0.81645 0.76691 0.0
Co145 Co 0.12997 0.78141 0.76861 0.0
O146 O 0.15408 0.78853 0.76686 0.0
C147 C 0.11034 0.80432 0.7903 0.0
C148 C 0.10731 0.84014 0.75101 0.0
C149 C 0.15866 0.80398 0.76789 0.0
O150 O 0.11432 0.81661 0.78042 0.0
O151 O 0.11416 0.78886 0.78722 0.0
O152 O 0.13411 0.81672 0.7346 0.0
O153 O 0.12371 0.79604 0.74996 0.0
Co154 Co 0.44198 0.86853 0.01159 0.0
O155 O 0.43813 0.84546 0.00534 0.0
O156 O 0.41792 0.86426 0.01073 0.0
C157 C 0.46131 0.87459 0.99159 0.0
O158 O 0.44139 0.89345 0.01798 0.0
Co159 Co 0.47745 0.87928 0.02458 0.0
O160 O 0.46845 0.90217 0.01922 0.0
C161 C 0.45428 0.86137 0.04764 0.0
C162 C 0.42211 0.84895 0.0063 0.0
C163 C 0.4526 0.90523 0.01874 0.0
O164 O 0.44269 0.86196 0.03621 0.0
O165 O 0.46945 0.86656 0.04517 0.0
O166 O 0.44527 0.87495 0.98801 0.0
O167 O 0.4651 0.86858 0.00635 0.0
Co168 Co 0.38158 0.80465 0.24177 0.0
O169 O 0.40272 0.80978 0.25231 0.0
O170 O 0.38361 0.82892 0.24451 0.0
C171 C 0.37352 0.78395 0.25951 0.0
O172 O 0.35822 0.80344 0.23085 0.0
Co173 Co 0.37802 0.76908 0.22527 0.0
O174 O 0.35429 0.77654 0.22204 0.0
C175 C 0.39744 0.79532 0.20757 0.0
C176 C 0.39819 0.82552 0.25141 0.0
C177 C 0.34906 0.79166 0.22425 0.0
O178 O 0.39264 0.80602 0.21885 0.0
O179 O 0.39414 0.77947 0.2085 0.0
O180 O 0.37138 0.79972 0.26358 0.0
O181 O 0.38249 0.78131 0.24604 0.0
Co182 Co 0.44084 0.13064 0.48675 0.0
O183 O 0.43398 0.1526 0.49414 0.0
O184 O 0.41644 0.13127 0.48872 0.0
C185 C 0.46155 0.12641 0.50582 0.0
O186 O 0.44395 0.10615 0.47932 0.0
Co187 Co 0.47714 0.12705 0.47188 0.0
O188 O 0.47184 0.10262 0.47446 0.0
C189 C 0.45051 0.14245 0.45117 0.0
C190 C 0.41862 0.14683 0.49374 0.0
C191 C 0.45691 0.09672 0.47627 0.0
O192 O 0.43956 0.13825 0.46245 0.0
O193 O 0.46649 0.14055 0.45314 0.0
O194 O 0.44585 0.12388 0.50993 0.0
O195 O 0.46387 0.13372 0.49134 0.0
Co196 Co 0.11935 0.18861 0.73931 0.0
O197 O 0.09713 0.18303 0.74692 0.0
O198 O 0.11755 0.16432 0.74182 0.0
C199 C 0.1245 0.20944 0.75802 0.0
O200 O 0.14388 0.19026 0.73179 0.0
Co201 Co 0.12506 0.22439 0.72386 0.0
O202 O 0.14921 0.21776 0.72643 0.0
C203 C 0.10716 0.19855 0.70411 0.0
C204 C 0.10218 0.16742 0.74688 0.0
C205 C 0.15413 0.2025 0.72849 0.0
O206 O 0.1115 0.18732 0.71506 0.0
O207 O 0.10979 0.21443 0.70605 0.0
O208 O 0.12643 0.19372 0.76237 0.0
O209 O 0.11742 0.21184 0.74344 0.0
Co210 Co 0.05737 0.87295 0.98321 0.0
O211 O 0.0661 0.85163 0.99053 0.0
O212 O 0.0818 0.87348 0.98223 0.0
C213 C 0.03892 0.87662 0.0046 0.0
O214 O 0.05258 0.89686 0.97509 0.0
Co215 Co 0.01962 0.87528 0.97255 0.0
O216 O 0.02442 0.89998 0.97209 0.0
C217 C 0.04414 0.85947 0.94949 0.0
C218 C 0.08099 0.85807 0.98798 0.0
C219 C 0.03942 0.90597 0.97207 0.0
O220 O 0.05617 0.86437 0.95929 0.0
O221 O 0.02844 0.86115 0.95317 0.0
O222 O 0.0548 0.88033 0.00657 0.0
O223 O 0.03509 0.86908 0.99054 0.0
Co224 Co 0.25855 0.37216 0.17908 0.0
O225 O 0.24571 0.39254 0.17783 0.0
O226 O 0.25535 0.37826 0.15554 0.0
C227 C 0.24192 0.3595 0.19845 0.0
O228 O 0.27148 0.35011 0.17599 0.0
Co229 Co 0.27583 0.363 0.21326 0.0
O230 O 0.27691 0.34039 0.20227 0.0
C231 C 0.29145 0.38869 0.19125 0.0
C232 C 0.24679 0.391 0.16154 0.0
C233 C 0.27612 0.33839 0.18628 0.0
O234 O 0.28039 0.3854 0.17974 0.0
O235 O 0.29107 0.38207 0.20606 0.0
O236 O 0.2378 0.35913 0.18253 0.0
O237 O 0.25481 0.36886 0.20218 0.0
Co238 Co 0.75863 0.12275 0.79615 0.0
O239 O 0.75022 0.10049 0.80079 0.0
O240 O 0.75703 0.11959 0.82033 0.0
C241 C 0.73955 0.12998 0.77631 0.0
O242 O 0.76727 0.14704 0.79583 0.0
Co243 Co 0.77326 0.13046 0.76049 0.0
O244 O 0.77196 0.15418 0.76865 0.0
C245 C 0.7938 0.11106 0.78473 0.0
C246 C 0.75131 0.10458 0.81666 0.0
C247 C 0.77075 0.15803 0.78429 0.0
O248 O 0.78253 0.11381 0.79616 0.0
O249 O 0.79194 0.11554 0.76925 0.0
O250 O 0.73578 0.1311 0.79227 0.0
O251 O 0.75373 0.12247 0.77296 0.0
Co252 Co 0.1331 0.52161 0.06685 0.0
O253 O 0.15603 0.51651 0.07247 0.0
O254 O 0.13605 0.52302 0.09114 0.0
C255 C 0.12885 0.49964 0.04932 0.0
O256 O 0.10785 0.52702 0.06518 0.0
Co257 Co 0.12439 0.53106 0.02979 0.0
O258 O 0.10134 0.52474 0.03751 0.0
C259 C 0.14032 0.55657 0.05175 0.0
C260 C 0.15167 0.51868 0.08814 0.0
C261 C 0.09706 0.52551 0.05304 0.0
O262 O 0.13932 0.54615 0.06421 0.0
O263 O 0.13571 0.55285 0.03666 0.0
O264 O 0.12759 0.49766 0.06558 0.0
O265 O 0.13464 0.51417 0.04438 0.0
Co266 Co 0.74119 0.87896 0.30798 0.0
O267 O 0.74794 0.89995 0.31781 0.0
O268 O 0.74015 0.87711 0.33236 0.0
C269 C 0.76245 0.87614 0.28927 0.0
O270 O 0.73386 0.85512 0.30168 0.0
Co271 Co 0.73028 0.87932 0.27021 0.0
O272 O 0.73121 0.85441 0.27331 0.0
C273 C 0.70696 0.89256 0.29578 0.0
C274 C 0.74539 0.89273 0.33233 0.0
C275 C 0.73156 0.84707 0.28769 0.0
O276 O 0.71704 0.88703 0.3073 0.0
O277 O 0.71054 0.89213 0.27998 0.0
O278 O 0.76466 0.87216 0.30506 0.0
O279 O 0.74846 0.88405 0.28598 0.0
Co280 Co 0.873 0.98179 0.0607 0.0
O281 O 0.85148 0.99286 0.06005 0.0
O282 O 0.86467 0.98495 0.08353 0.0
C283 C 0.88622 0.999 0.04226 0.0
O284 O 0.89573 0.97066 0.06588 0.0
Co285 Co 0.88637 0.9647 0.02785 0.0
O286 O 0.908 0.96632 0.04051 0.0
C287 C 0.86096 0.94691 0.04845 0.0
C288 C 0.85169 0.99226 0.07645 0.0
C289 C 0.90869 0.9672 0.05662 0.0
O290 O 0.86168 0.95894 0.05943 0.0
O291 O 0.86915 0.94721 0.03445 0.0
O292 O 0.88456 0.00348 0.05799 0.0
O293 O 0.87813 0.98544 0.0379 0.0
Co294 Co 0.2382 0.62405 0.68456 0.0
O295 O 0.25012 0.6033 0.68141 0.0
O296 O 0.23893 0.61857 0.66065 0.0
C297 C 0.25695 0.63573 0.70241 0.0
O298 O 0.22575 0.6466 0.6835 0.0
Co299 Co 0.22453 0.63266 0.72038 0.0
O300 O 0.22317 0.65567 0.71045 0.0
C301 C 0.20533 0.60908 0.69882 0.0
C302 C 0.24753 0.6053 0.66533 0.0
C303 C 0.22252 0.65814 0.69453 0.0
O304 O 0.21618 0.61138 0.68691 0.0
O305 O 0.2067 0.61584 0.7135 0.0
O306 O 0.25947 0.63641 0.68618 0.0
O307 O 0.24433 0.62649 0.70729 0.0
Co308 Co 0.12381 0.48736 0.44031 0.0
O309 O 0.14414 0.49639 0.43093 0.0
O310 O 0.12282 0.48576 0.41588 0.0
C311 C 0.11845 0.50852 0.45853 0.0
O312 O 0.10077 0.47735 0.44608 0.0
Co313 Co 0.1238 0.47716 0.47823 0.0
O314 O 0.099 0.47557 0.47447 0.0
C315 C 0.14079 0.45515 0.45355 0.0
C316 C 0.13774 0.49274 0.41627 0.0
C317 C 0.09235 0.47458 0.45978 0.0
O318 O 0.13473 0.46442 0.44165 0.0
O319 O 0.13899 0.45873 0.46928 0.0
O320 O 0.11428 0.50991 0.4427 0.0
O321 O 0.1276 0.49543 0.46229 0.0
Co322 Co 0.37187 0.50721 0.9358 0.0
O323 O 0.34966 0.49761 0.93445 0.0
O324 O 0.36498 0.50609 0.91239 0.0
C325 C 0.38318 0.48817 0.95365 0.0
O326 O 0.39535 0.51726 0.93252 0.0
Co327 Co 0.38435 0.5214 0.97028 0.0
O328 O 0.40656 0.521 0.9585 0.0
C329 C 0.36034 0.54142 0.95004 0.0
C330 C 0.35104 0.49952 0.9182 0.0
C331 C 0.40785 0.52046 0.94243 0.0
O332 O 0.36166 0.53048 0.93805 0.0
O333 O 0.36753 0.53962 0.96447 0.0
O334 O 0.38215 0.48487 0.93757 0.0
O335 O 0.37547 0.50175 0.9586 0.0
Co336 Co 0.68687 0.75923 0.8817 0.0
O337 O 0.68475 0.75087 0.90431 0.0
O338 O 0.66317 0.75692 0.88732 0.0
C339 C 0.70658 0.74072 0.87281 0.0
O340 O 0.68452 0.76767 0.85748 0.0
Co341 Co 0.72113 0.77469 0.87024 0.0
O342 O 0.71098 0.77099 0.84748 0.0
C343 C 0.69825 0.79492 0.89162 0.0
C344 C 0.66852 0.75143 0.90191 0.0
C345 C 0.69502 0.76995 0.84524 0.0
O346 O 0.687 0.78321 0.89041 0.0
O347 O 0.71321 0.7935 0.8855 0.0
O348 O 0.6907 0.73645 0.87303 0.0
O349 O 0.71011 0.75507 0.87987 0.0
Co350 Co 0.48641 0.43424 0.12743 0.0
O351 O 0.49291 0.4308 0.15047 0.0
O352 O 0.4857 0.4103 0.13259 0.0
C353 C 0.50781 0.45175 0.1206 0.0
O354 O 0.47928 0.43343 0.10266 0.0
Co355 Co 0.47581 0.47021 0.11592 0.0
O356 O 0.47942 0.46027 0.09308 0.0
C357 C 0.45166 0.44942 0.13531 0.0
C358 C 0.49079 0.41478 0.14763 0.0
C359 C 0.47878 0.44435 0.09058 0.0
O360 O 0.46215 0.43699 0.1346 0.0
O361 O 0.4551 0.46423 0.12963 0.0
O362 O 0.51002 0.43547 0.12049 0.0
O363 O 0.49342 0.45689 0.12656 0.0
Co364 Co 0.81437 0.24112 0.37603 0.0
O365 O 0.81454 0.24785 0.39921 0.0
O366 O 0.83753 0.2443 0.38345 0.0
C367 C 0.79416 0.25924 0.36771 0.0
O368 O 0.81854 0.23461 0.3514 0.0
Co369 Co 0.78177 0.22509 0.361 0.0
O370 O 0.79272 0.23235 0.33958 0.0
C371 C 0.80458 0.20415 0.38188 0.0
C372 C 0.83088 0.2484 0.39798 0.0
C373 C 0.80874 0.23382 0.3384 0.0
O374 O 0.81494 0.21665 0.3831 0.0
O375 O 0.79032 0.20507 0.37419 0.0
O376 O 0.80976 0.26429 0.36885 0.0
O377 O 0.79112 0.24413 0.37322 0.0
Co378 Co 0.01163 0.56183 0.62929 0.0
O379 O 0.00295 0.56195 0.65192 0.0
O380 O 0.01071 0.58483 0.63752 0.0
C381 C 0.99207 0.54446 0.61803 0.0
O382 O 0.02078 0.56629 0.60554 0.0
Co383 Co 0.02521 0.5282 0.61409 0.0
O384 O 0.02187 0.54091 0.59268 0.0
C385 C 0.04671 0.54751 0.63767 0.0
C386 C 0.00461 0.57828 0.65136 0.0
C387 C 0.02217 0.55702 0.59221 0.0
O388 O 0.03535 0.55916 0.63831 0.0
O389 O 0.04484 0.53372 0.62933 0.0
O390 O 0.98877 0.56043 0.62006 0.0
O391 O 0.0061 0.53926 0.62469 0.0
Co392 Co 0.70358 0.24638 0.6089 0.0
O393 O 0.69982 0.25268 0.58577 0.0
O394 O 0.67956 0.24694 0.60438 0.0
C395 C 0.72245 0.26675 0.61531 0.0
O396 O 0.70293 0.23989 0.63382 0.0
Co397 Co 0.7393 0.23384 0.61963 0.0
O398 O 0.72988 0.23723 0.6427 0.0
C399 C 0.71636 0.21044 0.60192 0.0
C400 C 0.68378 0.25168 0.58917 0.0
C401 C 0.71401 0.23794 0.64563 0.0
O402 O 0.70463 0.22173 0.60246 0.0
O403 O 0.73157 0.21317 0.60686 0.0
O404 O 0.70635 0.27002 0.61526 0.0
O405 O 0.72663 0.25208 0.60933 0.0
Co406 Co 0.00881 0.43261 0.88718 0.0
O407 O 0.99458 0.42415 0.86967 0.0
O408 O 0.01045 0.4081 0.88653 0.0
C409 C 0.98941 0.45042 0.89799 0.0
O410 O 0.02448 0.43737 0.90709 0.0
Co411 Co 0.01869 0.47052 0.88619 0.0
O412 O 0.02921 0.4655 0.90836 0.0
C413 C 0.03632 0.44673 0.86372 0.0
C414 C -0.00041 0.40922 0.87417 0.0
C415 C 0.03093 0.45056 0.91418 0.0
O416 O 0.0282 0.43448 0.8707 0.0
O417 O 0.03368 0.46231 0.86735 0.0
O418 O 0.98949 0.43456 0.90231 0.0
O419 O -3e-05 0.45462 0.88618 0.0
Co420 Co 0.81023 0.75567 0.12365 0.0
O421 O 0.81378 0.74596 0.1018 0.0
O422 O 0.83426 0.75529 0.11859 0.0
C423 C 0.79216 0.73577 0.13306 0.0
O424 O 0.81083 0.76601 0.14735 0.0
Co425 Co 0.77439 0.7685 0.13304 0.0
O426 O 0.78379 0.76671 0.15622 0.0
C427 C 0.7965 0.79013 0.11226 0.0
C428 C 0.82983 0.74827 0.10433 0.0
C429 C 0.79963 0.76782 0.15909 0.0
O430 O 0.80816 0.77881 0.11315 0.0
O431 O 0.78184 0.7884 0.11897 0.0
O432 O 0.80838 0.73327 0.13373 0.0
O433 O 0.7874 0.74929 0.12509 0.0
Co434 Co 0.48932 0.56741 0.37243 0.0
O435 O 0.49593 0.57722 0.3514 0.0
O436 O 0.48786 0.5918 0.37413 0.0
C437 C 0.51105 0.54918 0.37485 0.0
O438 O 0.48204 0.56112 0.39634 0.0
Co439 Co 0.47946 0.52942 0.37314 0.0
O440 O 0.48244 0.53268 0.39787 0.0
C441 C 0.45498 0.55427 0.36005 0.0
C442 C 0.49312 0.59173 0.35852 0.0
C443 C 0.48147 0.54721 0.40484 0.0
O444 O 0.46523 0.5662 0.36425 0.0
O445 O 0.45859 0.53854 0.36168 0.0
O446 O 0.51286 0.56493 0.37918 0.0
O447 O 0.49697 0.54555 0.36725 0.0
Co448 Co 0.87844 0.69177 0.76173 0.0
O449 O 0.90115 0.68767 0.75436 0.0
O450 O 0.88294 0.66772 0.76227 0.0
C451 C 0.87109 0.70963 0.74079 0.0
O452 O 0.85387 0.6915 0.76971 0.0
Co453 Co 0.86805 0.72786 0.77308 0.0
O454 O 0.84502 0.71856 0.76927 0.0
C455 C 0.88777 0.70648 0.7964 0.0
C456 C 0.89795 0.67176 0.75678 0.0
C457 C 0.84206 0.70272 0.77013 0.0
O458 O 0.88676 0.69424 0.7857 0.0
O459 O 0.88177 0.72127 0.79355 0.0
O460 O 0.87063 0.69337 0.73839 0.0
O461 O 0.87778 0.71449 0.75495 0.0
Co462 Co 0.55827 0.61971 0.01318 0.0
O463 O 0.56234 0.64126 0.00298 0.0
O464 O 0.58222 0.62468 0.01408 0.0
C465 C 0.54145 0.60912 0.99286 0.0
O466 O 0.5584 0.59647 0.02442 0.0
Co467 Co 0.52161 0.61127 0.02456 0.0
O468 O 0.53121 0.58817 0.0263 0.0
C469 C 0.54226 0.63383 0.04562 0.0
C470 C 0.57817 0.63874 0.0065 0.0
C471 C 0.54703 0.58518 0.02747 0.0
O472 O 0.55483 0.63118 0.03565 0.0
O473 O 0.52747 0.6277 0.04312 0.0
O474 O 0.5578 0.60876 0.99114 0.0
O475 O 0.53587 0.61774 0.00565 0.0
Co476 Co 0.61804 0.31048 0.26124 0.0
O477 O 0.5991 0.31904 0.24899 0.0
O478 O 0.61808 0.33499 0.2624 0.0
C479 C 0.62664 0.2921 0.24139 0.0
O480 O 0.63963 0.30575 0.27438 0.0
Co481 Co 0.61786 0.27283 0.27213 0.0
O482 O 0.64172 0.27758 0.27834 0.0
C483 C 0.59818 0.29738 0.29198 0.0
C484 C 0.60456 0.33397 0.25303 0.0
C485 C 0.64775 0.29252 0.27933 0.0
O486 O 0.60415 0.30931 0.28264 0.0
O487 O 0.60113 0.28169 0.28916 0.0
O488 O 0.63086 0.30794 0.24043 0.0
O489 O 0.61585 0.28822 0.2531 0.0
Co490 Co 0.9301 0.37593 0.51489 0.0
O491 O 0.92218 0.3541 0.50831 0.0
O492 O 0.90561 0.37573 0.51546 0.0
C493 C 0.94889 0.37978 0.49392 0.0
O494 O 0.93432 0.40039 0.52188 0.0
Co495 Co 0.96761 0.37928 0.52616 0.0
O496 O 0.96259 0.40374 0.52326 0.0
C497 C 0.94299 0.364 0.54942 0.0
C498 C 0.90706 0.36009 0.51049 0.0
C499 C 0.9476 0.40978 0.52311 0.0
O500 O 0.93109 0.36822 0.53916 0.0
O501 O 0.95872 0.36605 0.54603 0.0
O502 O 0.93291 0.38264 0.49137 0.0
O503 O 0.95252 0.37241 0.5081 0.0
Co504 Co 0.87428 0.31801 0.74697 0.0
O505 O 0.89635 0.32205 0.75598 0.0
O506 O 0.87818 0.34217 0.74844 0.0
C507 C 0.86613 0.29868 0.76622 0.0
O508 O 0.85035 0.31814 0.73743 0.0
Co509 Co 0.86585 0.28216 0.73309 0.0
O510 O 0.84235 0.29094 0.73464 0.0
C511 C 0.88565 0.30579 0.71199 0.0
C512 C 0.89286 0.33803 0.75469 0.0
C513 C 0.83903 0.30674 0.73461 0.0
O514 O 0.88381 0.31735 0.72333 0.0
O515 O 0.88038 0.29057 0.71392 0.0
O516 O 0.86508 0.31472 0.76962 0.0
O517 O 0.87391 0.29493 0.75231 0.0
Co518 Co 0.94094 0.62221 0.98148 0.0
O519 O 0.94362 0.64112 0.99648 0.0
O520 O 0.91912 0.63216 0.98607 0.0
C521 C 0.95753 0.60383 0.99572 0.0
O522 O 0.93333 0.60279 0.96638 0.0
Co523 Co 0.97259 0.60937 0.96191 0.0
O524 O 0.95659 0.59178 0.95401 0.0
C525 C 0.95462 0.6393 0.94927 0.0
C526 C 0.9273 0.64281 0.99563 0.0
C527 C 0.94067 0.59195 0.95671 0.0
O528 O 0.94359 0.63746 0.96111 0.0
O529 O 0.96786 0.63005 0.948 0.0
O530 O 0.94201 0.60645 0.00047 0.0
O531 O 0.96309 0.61391 0.98405 0.0
Co532 Co 0.61711 0.693 0.23352 0.0
O533 O 0.59574 0.69246 0.2447 0.0
O534 O 0.60996 0.66971 0.23628 0.0
C535 C 0.62968 0.71157 0.25097 0.0
O536 O 0.63985 0.68927 0.22186 0.0
Co537 Co 0.62784 0.72726 0.2171 0.0
O538 O 0.64925 0.71486 0.21315 0.0
C539 C 0.60313 0.70568 0.19962 0.0
C540 C 0.59663 0.67612 0.24359 0.0
C541 C 0.65112 0.69894 0.2151 0.0
O542 O 0.60528 0.69423 0.21099 0.0
O543 O 0.61013 0.72028 0.20026 0.0
O544 O 0.62883 0.69567 0.25505 0.0
O545 O 0.62112 0.71592 0.23772 0.0
Co546 Co 0.55876 0.3768 0.48407 0.0
O547 O 0.56419 0.35687 0.49659 0.0
O548 O 0.58303 0.37305 0.48341 0.0
C549 C 0.54138 0.38794 0.5037 0.0
O550 O 0.5574 0.39883 0.47077 0.0
Co551 Co 0.52167 0.38217 0.47257 0.0
O552 O 0.5298 0.40574 0.46943 0.0
C553 C 0.54352 0.35939 0.45281 0.0
C554 C 0.57986 0.35998 0.49294 0.0
C555 C 0.54542 0.40941 0.46756 0.0
O556 O 0.55596 0.36324 0.4626 0.0
O557 O 0.5284 0.36474 0.45525 0.0
O558 O 0.55765 0.38986 0.50496 0.0
O559 O 0.53632 0.3779 0.49177 0.0
Co560 Co 0.75724 0.87474 0.69442 0.0
O561 O 0.74766 0.89682 0.6921 0.0
O562 O 0.75576 0.88049 0.67065 0.0
C563 C 0.738 0.8648 0.71288 0.0
O564 O 0.76731 0.85104 0.69245 0.0
Co565 Co 0.77148 0.86413 0.7294 0.0
O566 O 0.7704 0.84127 0.71903 0.0
C567 C 0.79165 0.88676 0.70769 0.0
C568 C 0.74911 0.89462 0.67592 0.0
C569 C 0.7703 0.83901 0.70304 0.0
O570 O 0.78052 0.88498 0.69594 0.0
O571 O 0.78998 0.88027 0.72247 0.0
O572 O 0.73484 0.86483 0.69676 0.0
O573 O 0.75178 0.87246 0.71742 0.0
Co574 Co 0.25555 0.61874 0.30927 0.0
O575 O 0.24768 0.59604 0.31217 0.0
O576 O 0.25239 0.61429 0.33309 0.0
C577 C 0.23745 0.62617 0.28862 0.0
O578 O 0.26331 0.6433 0.31069 0.0
Co579 Co 0.27182 0.62911 0.27507 0.0
O580 O 0.26659 0.6521 0.28382 0.0
C581 C 0.29218 0.61007 0.29991 0.0
C582 C 0.24734 0.59936 0.32824 0.0
C583 C 0.26524 0.6551 0.29963 0.0
O584 O 0.27974 0.61074 0.31041 0.0
O585 O 0.29129 0.61583 0.28477 0.0
O586 O 0.23273 0.62651 0.30435 0.0
O587 O 0.25208 0.61936 0.28579 0.0
Co588 Co 0.63346 0.01624 0.56839 0.0
O589 O 0.6519 0.00509 0.57923 0.0
O590 O 0.63113 0.01851 0.59271 0.0
C591 C 0.62662 0.99543 0.5503 0.0
O592 O 0.61217 0.02859 0.56085 0.0
Co593 Co 0.63758 0.02528 0.53043 0.0
O594 O 0.61296 0.02995 0.53238 0.0
C595 C 0.65464 0.04627 0.5558 0.0
C596 C 0.64504 0.0097 0.59339 0.0
C597 C 0.60526 0.03191 0.54645 0.0
O598 O 0.64694 0.03787 0.56741 0.0
O599 O 0.65381 0.0424 0.54008 0.0
O600 O 0.62133 0.99504 0.56584 0.0
O601 O 0.63768 0.00704 0.54686 0.0
Co602 Co 0.22763 0.38597 0.80394 0.0
O603 O 0.23423 0.40884 0.80842 0.0
O604 O 0.22733 0.38994 0.82805 0.0
C605 C 0.24862 0.37985 0.78571 0.0
O606 O 0.22072 0.36108 0.8039 0.0
Co607 Co 0.21619 0.3755 0.76793 0.0
O608 O 0.22078 0.35249 0.77678 0.0
C609 C 0.19206 0.39307 0.79025 0.0
C610 C 0.23247 0.40515 0.82433 0.0
C611 C 0.22031 0.34933 0.79259 0.0
O612 O 0.20329 0.39326 0.80203 0.0
O613 O 0.19471 0.38698 0.77546 0.0
O614 O 0.2512 0.37925 0.80193 0.0
O615 O 0.23411 0.38596 0.78107 0.0
Co616 Co 0.36277 0.47683 0.55329 0.0
O617 O 0.34083 0.48713 0.55334 0.0
O618 O 0.35539 0.48019 0.57635 0.0
C619 C 0.37493 0.49408 0.53425 0.0
O620 O 0.38602 0.46664 0.55781 0.0
Co621 Co 0.37492 0.45952 0.52006 0.0
O622 O 0.3965 0.45772 0.53275 0.0
C623 C 0.35079 0.44164 0.54197 0.0
C624 C 0.34188 0.48692 0.56973 0.0
C625 C 0.39794 0.46048 0.54858 0.0
O626 O 0.35218 0.45362 0.55292 0.0
O627 O 0.35784 0.44217 0.52738 0.0
O628 O 0.37353 0.49872 0.54995 0.0
O629 O 0.36695 0.48035 0.53021 0.0
Co630 Co 0.73936 0.12359 0.19145 0.0
O631 O 0.75075 0.10223 0.19065 0.0
O632 O 0.74062 0.11581 0.16826 0.0
C633 C 0.75783 0.13679 0.20861 0.0
O634 O 0.72733 0.1461 0.18777 0.0
Co635 Co 0.72473 0.13593 0.22573 0.0
O636 O 0.72465 0.15795 0.21356 0.0
C637 C 0.70559 0.11088 0.20588 0.0
C638 C 0.74857 0.10272 0.17439 0.0
C639 C 0.7241 0.15881 0.19745 0.0
O640 O 0.71691 0.11191 0.19423 0.0
O641 O 0.70676 0.1187 0.22005 0.0
O642 O 0.76091 0.13549 0.19251 0.0
O643 O 0.74488 0.12832 0.21402 0.0
Co644 Co 0.62841 0.99227 0.93792 0.0
O645 O 0.65051 0.00151 0.93475 0.0
O646 O 0.6333 0.99372 0.91393 0.0
C647 C 0.61934 0.01134 0.95703 0.0
O648 O 0.60454 0.98253 0.93701 0.0
Co649 Co 0.61957 0.97784 0.97341 0.0
O650 O 0.59625 0.97992 0.96418 0.0
C651 C 0.64039 0.95746 0.95024 0.0
C652 C 0.64781 1e-05 0.91864 0.0
C653 C 0.59309 0.98006 0.94835 0.0
O654 O 0.63821 0.96876 0.93874 0.0
O655 O 0.63498 0.95914 0.96544 0.0
O656 O 0.61886 0.01481 0.94097 0.0
O657 O 0.6272 0.99752 0.96099 0.0
Co658 Co 0.87452 0.00836 0.43597 0.0
O659 O 0.85154 0.00136 0.43325 0.0
O660 O 0.86992 0.00499 0.41222 0.0
C661 C 0.88128 0.99038 0.45694 0.0
O662 O 0.89943 0.01499 0.43442 0.0
Co663 Co 0.88553 0.02489 0.46993 0.0
O664 O 0.90829 0.01875 0.46127 0.0
C665 C 0.86649 0.04514 0.44508 0.0
C666 C 0.85482 0.00064 0.41718 0.0
C667 C 0.91122 0.0166 0.44556 0.0
O668 O 0.86729 0.03277 0.43451 0.0
O669 O 0.87218 0.04425 0.46024 0.0
O670 O 0.88134 0.98529 0.44131 0.0
O671 O 0.8751 0.00535 0.45944 0.0
H672 H 0.07627 0.17768 0.50392 0.0
H673 H 0.08958 0.19988 0.48693 0.0
H674 H 0.1187 0.16194 0.46038 0.0
H675 H 0.10623 0.13988 0.47831 0.0
H676 H 0.13675 0.18801 0.4625 0.0
H677 H 0.07976 0.17896 0.44482 0.0
H678 H 0.04884 0.17626 0.44827 0.0
H679 H 0.0459 0.22798 0.4648 0.0
H680 H 0.07684 0.23092 0.46166 0.0
H681 H 0.13526 0.24332 0.38555 0.0
H682 H 0.11715 0.22653 0.40444 0.0
H683 H 0.14429 0.24598 0.44768 0.0
H684 H 0.16256 0.26237 0.42892 0.0
H685 H 0.09717 0.22827 0.43473 0.0
H686 H 0.16096 0.21209 0.46722 0.0
H687 H 0.1914 0.21265 0.46011 0.0
H688 H 0.17949 0.20638 0.40742 0.0
H689 H 0.14905 0.20543 0.41426 0.0
C690 C 0.08589 0.17422 0.49477 0.0
C691 C 0.09034 0.15722 0.49234 0.0
C692 C 0.09331 0.18684 0.48492 0.0
C693 C 0.10469 0.18253 0.47195 0.0
C694 C 0.10986 0.16557 0.47021 0.0
C695 C 0.10282 0.15299 0.48047 0.0
C696 C 0.11064 0.19557 0.45981 0.0
C697 C 0.12804 0.19677 0.45649 0.0
C698 C 0.09928 0.20675 0.45147 0.0
C699 C 0.08063 0.20511 0.45312 0.0
C700 C 0.07252 0.18973 0.44926 0.0
C701 C 0.05499 0.18816 0.45116 0.0
C702 C 0.04541 0.20193 0.45678 0.0
C703 C 0.05334 0.21732 0.46046 0.0
C704 C 0.07087 0.21895 0.4586 0.0
C705 C 0.1368 0.24456 0.39912 0.0
C706 C 0.1504 0.25381 0.40586 0.0
C707 C 0.12649 0.23498 0.40988 0.0
C708 C 0.12973 0.23476 0.42736 0.0
C709 C 0.14181 0.24583 0.43418 0.0
C710 C 0.15221 0.25517 0.42348 0.0
C711 C 0.12316 0.22086 0.43799 0.0
C712 C 0.10574 0.21947 0.44088 0.0
C713 C 0.13438 0.209 0.44537 0.0
C714 C 0.15273 0.20887 0.44126 0.0
C715 C 0.16486 0.21071 0.45414 0.0
C716 C 0.18211 0.2111 0.45015 0.0
C717 C 0.18737 0.20961 0.43332 0.0
C718 C 0.1754 0.20759 0.42045 0.0
C719 C 0.15816 0.20712 0.42438 0.0
H720 H 0.20072 0.20998 0.43025 0.0
H721 H 0.03185 0.20068 0.45827 0.0
H722 H 0.11321 0.86028 0.72427 0.0
H723 H 0.09128 0.87396 0.70738 0.0
H724 H 0.05451 0.86322 0.74645 0.0
H725 H 0.07638 0.84855 0.76279 0.0
H726 H 0.0435 0.85134 0.7189 0.0
H727 H 0.06662 0.90519 0.73359 0.0
H728 H 0.08852 0.92708 0.73764 0.0
H729 H 0.1002 0.92563 0.68456 0.0
H730 H 0.07853 0.90357 0.68022 0.0
H731 H 0.98319 0.91042 0.68036 0.0
H732 H 0.00181 0.89361 0.69859 0.0
H733 H 0.03194 0.87992 0.65517 0.0
H734 H 0.01289 0.89619 0.63678 0.0
H735 H 0.04555 0.90374 0.68444 0.0
H736 H 0.0212 0.84942 0.67085 0.0
H737 H 0.99794 0.82881 0.66792 0.0
H738 H 0.98692 0.8333 0.72097 0.0
H739 H 0.00997 0.85415 0.72417 0.0
C740 C 0.10061 0.86159 0.72954 0.0
C741 C 0.09639 0.85365 0.74481 0.0
C742 C 0.08803 0.86936 0.71988 0.0
C743 C 0.07118 0.86962 0.72561 0.0
C744 C 0.06738 0.86307 0.74171 0.0
C745 C 0.07988 0.85492 0.75115 0.0
C746 C 0.0573 0.87445 0.71392 0.0
C747 C 0.04385 0.86298 0.71162 0.0
C748 C 0.05792 0.88938 0.70403 0.0
C749 C 0.07104 0.9026 0.70661 0.0
C750 C 0.07395 0.90943 0.7228 0.0
C751 C 0.08631 0.9219 0.72515 0.0
C752 C 0.09577 0.92771 0.71138 0.0
C753 C 0.09288 0.9211 0.69522 0.0
C754 C 0.08054 0.90863 0.69281 0.0
C755 C 0.99323 0.90302 0.67463 0.0
C756 C 0.99667 0.90442 0.65727 0.0
C757 C 0.00386 0.89351 0.68502 0.0
C758 C 0.01821 0.88569 0.67815 0.0
C759 C 0.0208 0.88582 0.66058 0.0
C760 C 0.00989 0.89498 0.65011 0.0
C761 C 0.03201 0.88066 0.68957 0.0
C762 C 0.04536 0.89215 0.69182 0.0
C763 C 0.03112 0.86596 0.69961 0.0
C764 C 0.01719 0.85351 0.6977 0.0
C765 C 0.01369 0.84618 0.68185 0.0
C766 C 0.00058 0.8344 0.68015 0.0
C767 C 0.99092 0.82979 0.69424 0.0
C768 C 0.99439 0.83691 0.71007 0.0
C769 C 0.00749 0.84869 0.71183 0.0
H770 H 0.98079 0.82066 0.6929 0.0
H771 H 0.10533 0.93736 0.71322 0.0
H772 H 0.39179 0.85494 0.99107 0.0
H773 H 0.37497 0.83418 0.97523 0.0
H774 H 0.40754 0.79411 0.9929 0.0
H775 H 0.42475 0.81483 0.00826 0.0
H776 H 0.40214 0.80706 0.95254 0.0
H777 H 0.3659 0.76565 0.99758 0.0
H778 H 0.35117 0.76682 0.02514 0.0
H779 H 0.33665 0.81832 0.01547 0.0
H780 H 0.35107 0.81733 0.98778 0.0
H781 H 0.34301 0.72997 0.9268 0.0
H782 H 0.36026 0.74536 0.94768 0.0
H783 H 0.36144 0.78873 0.91437 0.0
H784 H 0.34486 0.77311 0.89343 0.0
H785 H 0.35134 0.77208 0.96441 0.0
H786 H 0.39461 0.81348 0.92104 0.0
H787 H 0.41078 0.81072 0.89448 0.0
H788 H 0.41372 0.75689 0.9015 0.0
H789 H 0.39776 0.75934 0.92823 0.0
C790 C 0.39498 0.84164 0.99205 0.0
C791 C 0.40958 0.83642 0.00073 0.0
C792 C 0.38537 0.82982 0.98304 0.0
C793 C 0.39 0.81268 0.9831 0.0
C794 C 0.40374 0.80729 0.99291 0.0
C795 C 0.41354 0.81911 0.00161 0.0
C796 C 0.38267 0.80101 0.9706 0.0
C797 C 0.39091 0.79951 0.95497 0.0
C798 C 0.36854 0.79076 0.97423 0.0
C799 C 0.35982 0.79151 0.99079 0.0
C800 C 0.35958 0.77722 0.00138 0.0
C801 C 0.35127 0.77784 0.017 0.0
C802 C 0.34307 0.79267 0.0221 0.0
C803 C 0.34311 0.80688 0.01156 0.0
C804 C 0.3514 0.80631 0.99593 0.0
C805 C 0.34757 0.74257 0.92382 0.0
C806 C 0.34308 0.75037 0.90854 0.0
C807 C 0.35722 0.75139 0.93574 0.0
C808 C 0.36226 0.76815 0.93254 0.0
C809 C 0.35809 0.77569 0.91697 0.0
C810 C 0.34864 0.76681 0.90502 0.0
C811 C 0.37052 0.77836 0.94593 0.0
C812 C 0.3626 0.77952 0.96184 0.0
C813 C 0.38514 0.78819 0.94261 0.0
C814 C 0.39485 0.78659 0.92658 0.0
C815 C 0.39876 0.80106 0.91696 0.0
C816 C 0.40788 0.79955 0.90187 0.0
C817 C 0.41323 0.78364 0.89628 0.0
C818 C 0.40951 0.7692 0.90581 0.0
C819 C 0.4004 0.77064 0.92092 0.0
H820 H 0.42029 0.78249 0.88459 0.0
H821 H 0.33663 0.79313 0.03419 0.0
H822 H 0.37864 0.13777 0.22258 0.0
H823 H 0.4003 0.12219 0.20702 0.0
H824 H 0.4345 0.12743 0.24942 0.0
H825 H 0.41302 0.14394 0.26452 0.0
H826 H 0.44888 0.1392 0.22337 0.0
H827 H 0.41955 0.08748 0.23368 0.0
H828 H 0.39535 0.0678 0.23508 0.0
H829 H 0.38808 0.07243 0.18139 0.0
H830 H 0.4121 0.09232 0.1797 0.0
H831 H 0.50662 0.07749 0.18355 0.0
H832 H 0.48711 0.09238 0.20252 0.0
H833 H 0.46274 0.1154 0.15943 0.0
H834 H 0.48272 0.10102 0.1404 0.0
H835 H 0.44442 0.08885 0.18615 0.0
H836 H 0.47362 0.1424 0.17744 0.0
H837 H 0.49881 0.16085 0.17717 0.0
H838 H 0.50729 0.15051 0.22988 0.0
H839 H 0.48228 0.13178 0.23038 0.0
C840 C 0.39052 0.13486 0.22883 0.0
C841 C 0.39423 0.14175 0.24473 0.0
C842 C 0.40293 0.12598 0.21993 0.0
C843 C 0.41909 0.12362 0.22702 0.0
C844 C 0.42217 0.12918 0.24365 0.0
C845 C 0.40988 0.13839 0.25237 0.0
C846 C 0.43334 0.11781 0.21626 0.0
C847 C 0.44796 0.12798 0.2155 0.0
C848 C 0.43206 0.10344 0.20562 0.0
C849 C 0.41756 0.09151 0.20659 0.0
C850 C 0.41271 0.08441 0.22219 0.0
C851 C 0.39904 0.07319 0.22303 0.0
C852 C 0.39016 0.0689 0.20834 0.0
C853 C 0.39496 0.07578 0.19277 0.0
C854 C 0.40862 0.08701 0.19186 0.0
C855 C 0.49756 0.08631 0.17822 0.0
C856 C 0.49613 0.08825 0.16062 0.0
C857 C 0.48643 0.09472 0.18902 0.0
C858 C 0.47355 0.10486 0.18229 0.0
C859 C 0.47275 0.10768 0.16477 0.0
C860 C 0.48419 0.0996 0.15396 0.0
C861 C 0.4596 0.1103 0.19334 0.0
C862 C 0.44517 0.09999 0.19416 0.0
C863 C 0.46113 0.12436 0.2042 0.0
C864 C 0.47623 0.13549 0.20388 0.0
C865 C 0.48099 0.14387 0.18891 0.0
C866 C 0.4952 0.15443 0.18873 0.0
C867 C 0.50469 0.15679 0.20348 0.0
C868 C 0.49996 0.14863 0.21845 0.0
C869 C 0.48576 0.13805 0.21869 0.0
H870 H 0.51567 0.16499 0.20333 0.0
H871 H 0.37959 0.06021 0.20902 0.0
H872 H 0.15536 0.74828 0.07648 0.0
H873 H 0.14127 0.7646 0.05421 0.0
H874 H 0.131 0.80456 0.09009 0.0
H875 H 0.14442 0.78781 0.11251 0.0
H876 H 0.10697 0.80404 0.06716 0.0
H877 H 0.16712 0.80471 0.06668 0.0
H878 H 0.19588 0.79258 0.06674 0.0
H879 H 0.18638 0.76908 0.01863 0.0
H880 H 0.15742 0.78084 0.01842 0.0
H881 H 0.10626 0.87024 0.00763 0.0
H882 H 0.12399 0.85281 0.02622 0.0
H883 H 0.10649 0.80779 0.00078 0.0
H884 H 0.08825 0.82508 0.98267 0.0
H885 H 0.14597 0.81281 0.01851 0.0
H886 H 0.08183 0.80908 0.02592 0.0
H887 H 0.05506 0.82524 0.02604 0.0
H888 H 0.07584 0.85982 0.06251 0.0
H889 H 0.10282 0.84396 0.06238 0.0
C890 C 0.14935 0.76019 0.0797 0.0
C891 C 0.15072 0.76683 0.09608 0.0
C892 C 0.14153 0.76959 0.06698 0.0
C893 C 0.13559 0.78601 0.0704 0.0
C894 C 0.1356 0.79197 0.08716 0.0
C895 C 0.14314 0.78239 0.09997 0.0
C896 C 0.13121 0.79756 0.05632 0.0
C897 C 0.11556 0.80595 0.05662 0.0
C898 C 0.14257 0.80044 0.04266 0.0
C899 C 0.16005 0.79352 0.04261 0.0
C900 C 0.17112 0.79686 0.05616 0.0
C901 C 0.18746 0.79006 0.05622 0.0
C902 C 0.19294 0.78004 0.04272 0.0
C903 C 0.1821 0.77683 0.0291 0.0
C904 C 0.16573 0.78356 0.02899 0.0
C905 C 0.1069 0.85671 0.00545 0.0
C906 C 0.09592 0.84888 0.99389 0.0
C907 C 0.117 0.8468 0.01606 0.0
C908 C 0.1164 0.82909 0.01483 0.0
C909 C 0.10714 0.82146 0.00177 0.0
C910 C 0.09673 0.83131 0.99148 0.0
C911 C 0.12169 0.81867 0.0293 0.0
C912 C 0.13748 0.8107 0.0291 0.0
C913 C 0.11074 0.81652 0.04327 0.0
C914 C 0.09426 0.82539 0.04413 0.0
C915 C 0.08064 0.82011 0.03398 0.0
C916 C 0.06546 0.82924 0.03401 0.0
C917 C 0.06375 0.84356 0.04427 0.0
C918 C 0.07718 0.84873 0.05458 0.0
C919 C 0.09241 0.83968 0.05454 0.0
H920 H 0.05201 0.85063 0.04424 0.0
H921 H 0.2056 0.77478 0.04279 0.0
H922 H 0.47971 0.89214 0.37177 0.0
H923 H 0.46173 0.87676 0.35181 0.0
H924 H 0.49743 0.88723 0.31169 0.0
H925 H 0.51475 0.90357 0.33153 0.0
H926 H 0.46868 0.89647 0.30174 0.0
H927 H 0.48829 0.84553 0.32799 0.0
H928 H 0.49478 0.82578 0.35129 0.0
H929 H 0.44229 0.82477 0.36544 0.0
H930 H 0.43551 0.84468 0.34235 0.0
H931 H 0.43205 0.82845 0.24856 0.0
H932 H 0.45073 0.8451 0.2669 0.0
H933 H 0.40717 0.86688 0.29158 0.0
H934 H 0.38837 0.85073 0.27269 0.0
H935 H 0.43867 0.84181 0.30901 0.0
H936 H 0.42072 0.89489 0.28203 0.0
H937 H 0.41586 0.91295 0.25703 0.0
H938 H 0.46797 0.90736 0.24254 0.0
H939 H 0.47305 0.88903 0.26734 0.0
C940 C 0.48398 0.89052 0.35883 0.0
C941 C 0.49861 0.89874 0.35311 0.0
C942 C 0.4737 0.88177 0.3474 0.0
C943 C 0.4782 0.8808 0.33019 0.0
C944 C 0.49362 0.8879 0.32485 0.0
C945 C 0.50362 0.89703 0.33619 0.0
C946 C 0.46602 0.87422 0.31747 0.0
C947 C 0.46232 0.88439 0.30331 0.0
C948 C 0.45737 0.85865 0.31959 0.0
C949 C 0.46142 0.84674 0.33354 0.0
C950 C 0.47815 0.84121 0.33616 0.0
C951 C 0.48187 0.82996 0.34931 0.0
C952 C 0.46896 0.82406 0.35987 0.0
C953 C 0.45228 0.82937 0.35727 0.0
C954 C 0.44849 0.84062 0.34414 0.0
C955 C 0.42651 0.8373 0.25746 0.0
C956 C 0.40888 0.83848 0.25924 0.0
C957 C 0.43714 0.84673 0.26792 0.0
C958 C 0.43025 0.85715 0.28048 0.0
C959 C 0.41263 0.85902 0.28175 0.0
C960 C 0.40195 0.8499 0.27096 0.0
C961 C 0.44152 0.86408 0.29359 0.0
C962 C 0.44507 0.85391 0.30769 0.0
C963 C 0.45024 0.87945 0.2913 0.0
C964 C 0.44719 0.89039 0.27638 0.0
C965 C 0.43107 0.89732 0.27339 0.0
C966 C 0.4283 0.90766 0.25929 0.0
C967 C 0.44158 0.91124 0.24816 0.0
C968 C 0.45768 0.90454 0.25114 0.0
C969 C 0.46051 0.89418 0.26522 0.0
H970 H 0.43941 0.91926 0.23726 0.0
H971 H 0.47187 0.81535 0.37004 0.0
H972 H 0.34907 0.21278 0.61813 0.0
H973 H 0.36417 0.19756 0.5959 0.0
H974 H 0.36856 0.24387 0.56715 0.0
H975 H 0.35295 0.25902 0.58941 0.0
H976 H 0.35454 0.22021 0.54867 0.0
H977 H 0.40405 0.22279 0.58275 0.0
H978 H 0.42158 0.22042 0.60847 0.0
H979 H 0.41125 0.16711 0.61094 0.0
H980 H 0.39346 0.16918 0.58536 0.0
H981 H 0.41401 0.18058 0.49058 0.0
H982 H 0.39772 0.19847 0.50995 0.0
H983 H 0.37767 0.1539 0.53428 0.0
H984 H 0.39354 0.13591 0.51452 0.0
H985 H 0.40024 0.17751 0.55411 0.0
H986 H 0.35019 0.17596 0.51957 0.0
H987 H 0.33375 0.17911 0.49322 0.0
H988 H 0.347 0.23179 0.49093 0.0
H989 H 0.36374 0.2289 0.51715 0.0
C990 C 0.35396 0.2198 0.6074 0.0
C991 C 0.35026 0.23703 0.60549 0.0
C992 C 0.36254 0.21112 0.59467 0.0
C993 C 0.36756 0.21959 0.57987 0.0
C994 C 0.36482 0.23712 0.57849 0.0
C995 C 0.35614 0.2458 0.59124 0.0
C996 C 0.37363 0.20967 0.56516 0.0
C997 C 0.36478 0.21112 0.54977 0.0
C998 C 0.38667 0.19749 0.56673 0.0
C999 C 0.3973 0.19618 0.58219 0.0
C1000 C 0.40539 0.21059 0.58885 0.0
C1001 C 0.41541 0.20929 0.60339 0.0
C1002 C 0.4175 0.19363 0.61135 0.0
C1003 C 0.40961 0.17923 0.60477 0.0
C1004 C 0.39958 0.18046 0.59023 0.0
C1005 C 0.40551 0.17464 0.49957 0.0
C1006 C 0.40498 0.15695 0.50117 0.0
C1007 C 0.39627 0.18484 0.51061 0.0
C1008 C 0.38668 0.17744 0.52355 0.0
C1009 C 0.38501 0.15976 0.52428 0.0
C1010 C 0.39395 0.14954 0.51295 0.0
C1011 C 0.38103 0.18798 0.53785 0.0
C1012 C 0.39005 0.18667 0.55309 0.0
C1013 C 0.36835 0.20041 0.53606 0.0
C1014 C 0.35839 0.20216 0.52022 0.0
C1015 C 0.34977 0.18817 0.51334 0.0
C1016 C 0.34035 0.18992 0.49846 0.0
C1017 C 0.33938 0.20562 0.49037 0.0
C1018 C 0.34779 0.21962 0.49719 0.0
C1019 C 0.35723 0.21794 0.51207 0.0
H1020 H 0.33207 0.20696 0.47886 0.0
H1021 H 0.42526 0.19265 0.62261 0.0
H1022 H 0.06938 0.16086 0.74002 0.0
H1023 H 0.04936 0.14784 0.7597 0.0
H1024 H 0.09072 0.13429 0.79277 0.0
H1025 H 0.11084 0.14646 0.77253 0.0
H1026 H 0.06595 0.11248 0.79673 0.0
H1027 H 0.07083 0.17224 0.79714 0.0
H1028 H 0.07172 0.20095 0.78495 0.0
H1029 H 0.01989 0.19618 0.76922 0.0
H1030 H 0.01878 0.16728 0.78105 0.0
H1031 H 0.01455 0.11067 0.86837 0.0
H1032 H 0.03326 0.12819 0.85089 0.0
H1033 H 0.00015 0.12086 0.80809 0.0
H1034 H 0.98181 0.10284 0.82537 0.0
H1035 H 0.02239 0.15523 0.81224 0.0
H1036 H 0.02285 0.09145 0.80822 0.0
H1037 H 0.023 0.06432 0.82373 0.0
H1038 H 0.06743 0.07988 0.85098 0.0
H1039 H 0.06736 0.10721 0.83575 0.0
C1040 C 0.07419 0.15434 0.75109 0.0
C1041 C 0.09152 0.15461 0.75489 0.0
C1042 C 0.06278 0.14712 0.76242 0.0
C1043 C 0.06853 0.14075 0.77799 0.0
C1044 C 0.08602 0.13933 0.78092 0.0
C1045 C 0.0975 0.14616 0.76932 0.0
C1046 C 0.05633 0.13758 0.79185 0.0
C1047 C 0.05658 0.12192 0.80019 0.0
C1048 C 0.04429 0.15003 0.79672 0.0
C1049 C 0.04476 0.16754 0.78987 0.0
C1050 C 0.05964 0.17728 0.791 0.0
C1051 C 0.06019 0.19358 0.78415 0.0
C1052 C 0.04588 0.20038 0.77629 0.0
C1053 C 0.03097 0.19089 0.7753 0.0
C1054 C 0.03037 0.17455 0.78209 0.0
C1055 C 0.01079 0.11366 0.85552 0.0
C1056 C 0.99685 0.10556 0.8481 0.0
C1057 C 0.02149 0.12359 0.84555 0.0
C1058 C 0.01806 0.12563 0.82825 0.0
C1059 C 0.00286 0.11947 0.82147 0.0
C1060 C 0.9924 0.10923 0.83132 0.0
C1061 C 0.03183 0.13009 0.81655 0.0
C1062 C 0.03189 0.14595 0.80874 0.0
C1063 C 0.04447 0.11807 0.81252 0.0
C1064 C 0.04506 0.10133 0.82093 0.0
C1065 C 0.03264 0.08906 0.81752 0.0
C1066 C 0.03269 0.07367 0.82627 0.0
C1067 C 0.0452 0.07039 0.83836 0.0
C1068 C 0.05774 0.08245 0.84163 0.0
C1069 C 0.05771 0.09787 0.83293 0.0
H1070 H 0.04517 0.0585 0.84518 0.0
H1071 H 0.04633 0.213 0.77098 0.0
H1072 H 0.25982 0.41152 0.13698 0.0
H1073 H 0.24525 0.43592 0.12408 0.0
H1074 H 0.19913 0.4219 0.14981 0.0
H1075 H 0.21368 0.39792 0.16287 0.0
H1076 H 0.19407 0.43349 0.11629 0.0
H1077 H 0.22312 0.44903 0.16838 0.0
H1078 H 0.24854 0.45095 0.18642 0.0
H1079 H 0.2732 0.48158 0.14888 0.0
H1080 H 0.24795 0.47966 0.13051 0.0
H1081 H 0.14384 0.50331 0.11791 0.0
H1082 H 0.16298 0.48429 0.13313 0.0
H1083 H 0.20494 0.50233 0.10321 0.0
H1084 H 0.18585 0.5212 0.08786 0.0
H1085 H 0.21389 0.48944 0.13725 0.0
H1086 H 0.18518 0.47441 0.08523 0.0
H1087 H 0.1599 0.4728 0.06697 0.0
H1088 H 0.13531 0.4408 0.1034 0.0
H1089 H 0.16034 0.44257 0.12208 0.0
C1090 C 0.24646 0.41345 0.13939 0.0
C1091 C 0.23774 0.403 0.15078 0.0
C1092 C 0.23821 0.42737 0.13216 0.0
C1093 C 0.22119 0.43071 0.13616 0.0
C1094 C 0.21225 0.41949 0.14659 0.0
C1095 C 0.22053 0.40585 0.15401 0.0
C1096 C 0.21294 0.44663 0.13096 0.0
C1097 C 0.19837 0.4457 0.1209 0.0
C1098 C 0.21873 0.46254 0.13685 0.0
C1099 C 0.23373 0.46407 0.14802 0.0
C1100 C 0.234 0.4561 0.16394 0.0
C1101 C 0.24836 0.4572 0.17423 0.0
C1102 C 0.26249 0.46636 0.16879 0.0
C1103 C 0.26225 0.47449 0.15307 0.0
C1104 C 0.24791 0.47341 0.14272 0.0
C1105 C 0.15729 0.50389 0.11524 0.0
C1106 C 0.16339 0.51339 0.10154 0.0
C1107 C 0.1682 0.49299 0.12389 0.0
C1108 C 0.18524 0.4917 0.11895 0.0
C1109 C 0.19181 0.50312 0.1071 0.0
C1110 C 0.18088 0.51385 0.09832 0.0
C1111 C 0.19486 0.4762 0.12287 0.0
C1112 C 0.20967 0.47722 0.13258 0.0
C1113 C 0.1894 0.46033 0.11655 0.0
C1114 C 0.17455 0.45878 0.10513 0.0
C1115 C 0.17434 0.46714 0.08941 0.0
C1116 C 0.16006 0.4662 0.07898 0.0
C1117 C 0.14599 0.45674 0.08404 0.0
C1118 C 0.14621 0.44815 0.09951 0.0
C1119 C 0.16043 0.44912 0.11003 0.0
H1120 H 0.13494 0.45605 0.07595 0.0
H1121 H 0.27359 0.46719 0.17677 0.0
H1122 H 0.73076 0.11208 0.84308 0.0
H1123 H 0.71573 0.09186 0.86104 0.0
H1124 H 0.74313 0.05071 0.83756 0.0
H1125 H 0.75709 0.07092 0.81869 0.0
H1126 H 0.71284 0.04242 0.83812 0.0
H1127 H 0.74917 0.06524 0.88116 0.0
H1128 H 0.76274 0.08752 0.89835 0.0
H1129 H 0.71403 0.10405 0.91593 0.0
H1130 H 0.70015 0.082 0.8987 0.0
H1131 H 0.68148 0.00254 0.92402 0.0
H1132 H 0.70224 0.01704 0.9064 0.0
H1133 H 0.66365 0.0268 0.86892 0.0
H1134 H 0.64286 0.01172 0.88639 0.0
H1135 H 0.70183 0.04884 0.89957 0.0
H1136 H 0.68187 0.03331 0.83039 0.0
H1137 H 0.6707 0.00922 0.81393 0.0
H1138 H 0.69152 0.97445 0.85016 0.0
H1139 H 0.70302 0.9983 0.8667 0.0
C1140 C 0.73379 0.09874 0.84208 0.0
C1141 C 0.74503 0.09295 0.82964 0.0
C1142 C 0.72526 0.08717 0.85237 0.0
C1143 C 0.72838 0.06969 0.85081 0.0
C1144 C 0.74039 0.06408 0.83895 0.0
C1145 C 0.74846 0.07559 0.82828 0.0
C1146 C 0.71819 0.0572 0.8605 0.0
C1147 C 0.71057 0.04377 0.8516 0.0
C1148 C 0.71528 0.0588 0.87811 0.0
C1149 C 0.72362 0.07204 0.88854 0.0
C1150 C 0.74135 0.07369 0.88861 0.0
C1151 C 0.7491 0.08627 0.89838 0.0
C1152 C 0.73925 0.09721 0.9082 0.0
C1153 C 0.72164 0.09557 0.90831 0.0
C1154 C 0.71383 0.08302 0.89857 0.0
C1155 C 0.6775 0.00747 0.91185 0.0
C1156 C 0.66058 0.00616 0.90657 0.0
C1157 C 0.68936 0.01579 0.90183 0.0
C1158 C 0.68449 0.02311 0.88641 0.0
C1159 C 0.66774 0.02109 0.88069 0.0
C1160 C 0.65587 0.0125 0.89066 0.0
C1161 C 0.69657 0.03411 0.87719 0.0
C1162 C 0.70435 0.04737 0.88614 0.0
C1163 C 0.70001 0.03206 0.85976 0.0
C1164 C 0.69315 0.01762 0.84987 0.0
C1165 C 0.6841 0.02052 0.83482 0.0
C1166 C 0.67771 0.00691 0.82547 0.0
C1167 C 0.68035 0.99032 0.83102 0.0
C1168 C 0.68942 0.9873 0.84591 0.0
C1169 C 0.69586 0.00087 0.85529 0.0
H1170 H 0.67539 0.97979 0.82377 0.0
H1171 H 0.74527 0.10694 0.91574 0.0
H1172 H 0.76688 0.88166 0.35656 0.0
H1173 H 0.78336 0.90024 0.37521 0.0
H1174 H 0.75205 0.94256 0.36081 0.0
H1175 H 0.73608 0.92421 0.3416 0.0
H1176 H 0.79364 0.93509 0.35113 0.0
H1177 H 0.75774 0.96163 0.40746 0.0
H1178 H 0.73635 0.953 0.42855 0.0
H1179 H 0.75414 0.90169 0.42597 0.0
H1180 H 0.77578 0.91008 0.40509 0.0
H1181 H 0.82116 0.00672 0.41599 0.0
H1182 H 0.7998 0.98912 0.40205 0.0
H1183 H 0.83958 0.95797 0.38099 0.0
H1184 H 0.8608 0.97638 0.39384 0.0
H1185 H 0.79283 0.95916 0.40909 0.0
H1186 H 0.827 0.93445 0.34857 0.0
H1187 H 0.84615 0.94495 0.32626 0.0
H1188 H 0.82889 0.99576 0.33496 0.0
H1189 H 0.80948 0.98554 0.35718 0.0
C1190 C 0.763 0.89473 0.35809 0.0
C1191 C 0.75031 0.90163 0.34777 0.0
C1192 C 0.77241 0.90531 0.36869 0.0
C1193 C 0.76877 0.92267 0.36939 0.0
C1194 C 0.75483 0.92913 0.36055 0.0
C1195 C 0.74574 0.91868 0.34963 0.0
C1196 C 0.78164 0.93458 0.37559 0.0
C1197 C 0.79372 0.94022 0.36389 0.0
C1198 C 0.78108 0.94165 0.39193 0.0
C1199 C 0.76818 0.93644 0.4045 0.0
C1200 C 0.75707 0.94851 0.4114 0.0
C1201 C 0.74492 0.94367 0.42333 0.0
C1202 C 0.74383 0.92679 0.42853 0.0
C1203 C 0.75493 0.91474 0.42185 0.0
C1204 C 0.7671 0.91952 0.40992 0.0
C1205 C 0.82524 0.9965 0.40779 0.0
C1206 C 0.84249 0.99291 0.40575 0.0
C1207 C 0.81308 0.98635 0.4 0.0
C1208 C 0.81802 0.97216 0.39047 0.0
C1209 C 0.83537 0.96904 0.38789 0.0
C1210 C 0.84753 0.97956 0.39523 0.0
C1211 C 0.80513 0.95982 0.38463 0.0
C1212 C 0.79293 0.95411 0.39632 0.0
C1213 C 0.80533 0.95294 0.36807 0.0
C1214 C 0.81691 0.95923 0.35467 0.0
C1215 C 0.82725 0.94785 0.34569 0.0
C1216 C 0.83816 0.95376 0.33306 0.0
C1217 C 0.83878 0.97102 0.32923 0.0
C1218 C 0.82845 0.9824 0.33799 0.0
C1219 C 0.81751 0.97657 0.35062 0.0
H1220 H 0.84724 0.97556 0.31945 0.0
H1221 H 0.73443 0.92307 0.43778 0.0
H1222 H 0.84738 0.9926 0.11095 0.0
H1223 H 0.82639 0.00905 0.12696 0.0
H1224 H 0.80508 0.02752 0.0802 0.0
H1225 H 0.82573 0.01112 0.06418 0.0
H1226 H 0.81425 0.05301 0.10345 0.0
H1227 H 0.78295 0.0008 0.1015 0.0
H1228 H 0.77871 0.97016 0.1057 0.0
H1229 H 0.78698 0.97606 0.15911 0.0
H1230 H 0.79153 0.00672 0.1552 0.0
H1231 H 0.74783 0.10053 0.13973 0.0
H1232 H 0.76207 0.07934 0.12207 0.0
H1233 H 0.77972 0.0537 0.16699 0.0
H1234 H 0.76532 0.07449 0.1846 0.0
H1235 H 0.77111 0.0312 0.14358 0.0
H1236 H 0.80491 0.08167 0.14628 0.0
H1237 H 0.81085 0.11218 0.14335 0.0
H1238 H 0.80005 0.10944 0.09012 0.0
H1239 H 0.7938 0.07893 0.09279 0.0
C1240 C 0.83806 -2e-05 0.10411 0.0
C1241 C 0.83825 0.00065 0.08633 0.0
C1242 C 0.82608 0.00932 0.11325 0.0
C1243 C 0.81425 0.01947 0.1047 0.0
C1244 C 0.81415 0.01976 0.08698 0.0
C1245 C 0.82595 0.01035 0.07787 0.0
C1246 C 0.80271 0.03074 0.11415 0.0
C1247 C 0.80461 0.04826 0.11202 0.0
C1248 C 0.79053 0.02446 0.12563 0.0
C1249 C 0.78775 0.00604 0.12803 0.0
C1250 C 0.78402 0.99555 0.11412 0.0
C1251 C 0.78153 0.97818 0.11645 0.0
C1252 C 0.78262 0.97116 0.13265 0.0
C1253 C 0.78616 0.98151 0.14657 0.0
C1254 C 0.78868 0.99889 0.1443 0.0
C1255 C 0.75457 0.09025 0.1458 0.0
C1256 C 0.75563 0.08928 0.16353 0.0
C1257 C 0.76272 0.07818 0.13573 0.0
C1258 C 0.77216 0.0651 0.14325 0.0
C1259 C 0.77253 0.06369 0.16092 0.0
C1260 C 0.76436 0.07566 0.17097 0.0
C1261 C 0.78261 0.05351 0.13286 0.0
C1262 C 0.7806 0.03596 0.13487 0.0
C1263 C 0.79492 0.05974 0.12143 0.0
C1264 C 0.79868 0.07807 0.11977 0.0
C1265 C 0.80366 0.0876 0.13398 0.0
C1266 C 0.80711 0.10489 0.13236 0.0
C1267 C 0.80577 0.11275 0.11657 0.0
C1268 C 0.80103 0.10333 0.10235 0.0
C1269 C 0.79754 0.08605 0.10391 0.0
H1270 H 0.80846 0.12614 0.11534 0.0
H1271 H 0.78069 0.95771 0.13444 0.0
H1272 H 0.27307 0.58351 0.67143 0.0
H1273 H 0.28585 0.56331 0.65203 0.0
H1274 H 0.25146 0.57891 0.61259 0.0
H1275 H 0.23862 0.59972 0.63207 0.0
H1276 H 0.25736 0.53978 0.62108 0.0
H1277 H 0.28419 0.59118 0.60341 0.0
H1278 H 0.29825 0.61874 0.60757 0.0
H1279 H 0.33879 0.59435 0.63436 0.0
H1280 H 0.32482 0.56666 0.6306 0.0
H1281 H 0.31009 0.49594 0.5601 0.0
H1282 H 0.29078 0.51495 0.57507 0.0
H1283 H 0.32552 0.51716 0.61717 0.0
H1284 H 0.34488 0.49801 0.60231 0.0
H1285 H 0.31697 0.54887 0.60335 0.0
H1286 H 0.28958 0.4981 0.62274 0.0
H1287 H 0.27553 0.47039 0.61965 0.0
H1288 H 0.2361 0.49334 0.59007 0.0
H1289 H 0.25006 0.52117 0.59279 0.0
C1290 C 0.26814 0.58268 0.65866 0.0
C1291 C 0.25484 0.59317 0.65323 0.0
C1292 C 0.27547 0.57114 0.64761 0.0
C1293 C 0.26956 0.5697 0.63098 0.0
C1294 C 0.25612 0.57993 0.62546 0.0
C1295 C 0.24889 0.59179 0.63651 0.0
C1296 C 0.27798 0.55755 0.61964 0.0
C1297 C 0.27023 0.54185 0.61673 0.0
C1298 C 0.29489 0.56024 0.61453 0.0
C1299 C 0.30337 0.57686 0.61685 0.0
C1300 C 0.29601 0.59171 0.61034 0.0
C1301 C 0.30399 0.60736 0.61259 0.0
C1302 C 0.31938 0.6083 0.62126 0.0
C1303 C 0.32685 0.5936 0.62766 0.0
C1304 C 0.31892 0.57792 0.62545 0.0
C1305 C 0.31344 0.50019 0.57271 0.0
C1306 C 0.32902 0.49563 0.58002 0.0
C1307 C 0.30239 0.511 0.58123 0.0
C1308 C 0.30682 0.51749 0.59713 0.0
C1309 C 0.32196 0.51227 0.60485 0.0
C1310 C 0.33294 0.50128 0.59641 0.0
C1311 C 0.29648 0.53092 0.60499 0.0
C1312 C 0.30397 0.54685 0.60731 0.0
C1313 C 0.27934 0.5284 0.60951 0.0
C1314 C 0.27098 0.51168 0.60778 0.0
C1315 C 0.27801 0.49721 0.61541 0.0
C1316 C 0.27004 0.48149 0.61377 0.0
C1317 C 0.25497 0.48009 0.60461 0.0
C1318 C 0.2478 0.49443 0.59712 0.0
C1319 C 0.25573 0.51018 0.59872 0.0
H1320 H 0.24881 0.46791 0.60337 0.0
H1321 H 0.32554 0.62043 0.62298 0.0
H1322 H 0.22388 0.60622 0.35219 0.0
H1323 H 0.20522 0.58568 0.36579 0.0
H1324 H 0.2343 0.5448 0.34392 0.0
H1325 H 0.2521 0.56548 0.32926 0.0
H1326 H 0.20398 0.53851 0.33822 0.0
H1327 H 0.23278 0.55513 0.38887 0.0
H1328 H 0.24432 0.57457 0.41043 0.0
H1329 H 0.19432 0.59323 0.42081 0.0
H1330 H 0.1825 0.57405 0.39916 0.0
H1331 H 0.16913 0.48311 0.40714 0.0
H1332 H 0.18783 0.49879 0.388 0.0
H1333 H 0.14617 0.5311 0.37382 0.0
H1334 H 0.12725 0.51492 0.39243 0.0
H1335 H 0.18221 0.54064 0.39705 0.0
H1336 H 0.15483 0.52314 0.34383 0.0
H1337 H 0.14513 0.50142 0.32359 0.0
H1338 H 0.19564 0.48158 0.32029 0.0
H1339 H 0.20557 0.50304 0.34074 0.0
C1340 C 0.22654 0.59284 0.35075 0.0
C1341 C 0.23939 0.58732 0.33984 0.0
C1342 C 0.21589 0.58107 0.35852 0.0
C1343 C 0.21836 0.56361 0.35598 0.0
C1344 C 0.23202 0.55817 0.34597 0.0
C1345 C 0.2423 0.56994 0.33776 0.0
C1346 C 0.2059 0.55112 0.36247 0.0
C1347 C 0.19943 0.53891 0.35118 0.0
C1348 C 0.19969 0.55168 0.37928 0.0
C1349 C 0.20678 0.56326 0.39228 0.0
C1350 C 0.22426 0.56347 0.39566 0.0
C1351 C 0.23085 0.57442 0.40791 0.0
C1352 C 0.22007 0.58515 0.41695 0.0
C1353 C 0.20266 0.58492 0.41378 0.0
C1354 C 0.19601 0.574 0.40154 0.0
C1355 C 0.16382 0.49295 0.39919 0.0
C1356 C 0.14684 0.49781 0.40101 0.0
C1357 C 0.17447 0.5019 0.38834 0.0
C1358 C 0.16829 0.51598 0.3795 0.0
C1359 C 0.15102 0.52003 0.38032 0.0
C1360 C 0.14024 0.51079 0.39087 0.0
C1361 C 0.18045 0.52837 0.37279 0.0
C1362 C 0.18686 0.54043 0.38411 0.0
C1363 C 0.18686 0.52744 0.3562 0.0
C1364 C 0.18087 0.51451 0.34401 0.0
C1365 C 0.16381 0.51399 0.33898 0.0
C1366 C 0.15828 0.50177 0.32742 0.0
C1367 C 0.16975 0.49008 0.32071 0.0
C1368 C 0.18677 0.49061 0.32553 0.0
C1369 C 0.19235 0.5028 0.33709 0.0
H1370 H 0.16545 0.48064 0.31175 0.0
H1371 H 0.2252 0.59362 0.42643 0.0
H1372 H 0.31774 0.50703 0.92043 0.0
H1373 H 0.29458 0.49402 0.90444 0.0
H1374 H 0.33093 0.46429 0.87633 0.0
H1375 H 0.35406 0.47843 0.89137 0.0
H1376 H 0.30743 0.47064 0.85663 0.0
H1377 H 0.30825 0.44941 0.91337 0.0
H1378 H 0.30798 0.45125 0.94455 0.0
H1379 H 0.25885 0.4745 0.94301 0.0
H1380 H 0.25893 0.47297 0.91179 0.0
H1381 H 0.24447 0.39785 0.85586 0.0
H1382 H 0.26152 0.41674 0.87357 0.0
H1383 H 0.25067 0.45827 0.83977 0.0
H1384 H 0.23414 0.43933 0.82175 0.0
H1385 H 0.26079 0.44587 0.89074 0.0
H1386 H 0.2871 0.47779 0.82982 0.0
H1387 H 0.29035 0.47103 0.79946 0.0
H1388 H 0.29062 0.4179 0.81102 0.0
H1389 H 0.28767 0.42435 0.84143 0.0
C1390 C 0.32069 0.49799 0.91053 0.0
C1391 C 0.33752 0.49362 0.90703 0.0
C1392 C 0.3075 0.49042 0.90155 0.0
C1393 C 0.31095 0.47774 0.88955 0.0
C1394 C 0.3279 0.47398 0.88555 0.0
C1395 C 0.34111 0.48203 0.89411 0.0
C1396 C 0.29699 0.46787 0.88171 0.0
C1397 C 0.29722 0.46532 0.86413 0.0
C1398 C 0.28384 0.46047 0.89148 0.0
C1399 C 0.28367 0.46122 0.91025 0.0
C1400 C 0.29743 0.45498 0.91968 0.0
C1401 C 0.29731 0.45597 0.93736 0.0
C1402 C 0.28342 0.46302 0.94575 0.0
C1403 C 0.2696 0.46905 0.93649 0.0
C1404 C 0.26967 0.46812 0.91881 0.0
C1405 C 0.2453 0.41112 0.85252 0.0
C1406 C 0.23832 0.41711 0.83731 0.0
C1407 C 0.25503 0.4219 0.86264 0.0
C1408 C 0.2577 0.43877 0.85769 0.0
C1409 C 0.24906 0.44519 0.84357 0.0
C1410 C 0.2396 0.43438 0.83332 0.0
C1411 C 0.27124 0.44889 0.86577 0.0
C1412 C 0.27094 0.4514 0.88332 0.0
C1413 C 0.28482 0.45553 0.85612 0.0
C1414 C 0.28695 0.45157 0.83786 0.0
C1415 C 0.28792 0.46467 0.82587 0.0
C1416 C 0.28971 0.46089 0.80866 0.0
C1417 C 0.29062 0.44404 0.80331 0.0
C1418 C 0.28985 0.43094 0.81517 0.0
C1419 C 0.28811 0.43466 0.83239 0.0
H1420 H 0.29198 0.44115 0.78999 0.0
H1421 H 0.28336 0.46379 0.95943 0.0
H1422 H 0.57846 0.67214 0.01357 0.0
H1423 H 0.59534 0.69384 -0.00074 0.0
H1424 H 0.62154 0.6548 0.9713 0.0
H1425 H 0.60547 0.63311 0.98657 0.0
H1426 H 0.64196 0.67912 0.97542 0.0
H1427 H 0.58465 0.6755 0.95603 0.0
H1428 H 0.55355 0.67554 0.95887 0.0
H1429 H 0.55502 0.72669 0.97727 0.0
H1430 H 0.58618 0.72687 0.97475 0.0
H1431 H 0.63762 0.73674 0.89714 0.0
H1432 H 0.62201 0.71981 0.91794 0.0
H1433 H 0.65785 0.73424 0.95661 0.0
H1434 H 0.67382 0.75054 0.93575 0.0
H1435 H 0.60636 0.72254 0.94713 0.0
H1436 H 0.66846 0.7005 0.9799 0.0
H1437 H 0.69873 0.69718 0.97285 0.0
H1438 H 0.68614 0.69159 0.92024 0.0
H1439 H 0.65581 0.69462 0.92702 0.0
C1440 C 0.58826 0.66828 0.00478 0.0
C1441 C 0.59078 0.65112 0.00106 0.0
C1442 C 0.59775 0.68063 0.99649 0.0
C1443 C 0.60928 0.67598 0.98377 0.0
C1444 C 0.61264 0.65872 0.98097 0.0
C1445 C 0.60352 0.64633 0.9897 0.0
C1446 C 0.6167 0.68897 0.97241 0.0
C1447 C 0.63418 0.68867 0.96935 0.0
C1448 C 0.60648 0.70114 0.96402 0.0
C1449 C 0.58774 0.70114 0.96535 0.0
C1450 C 0.57834 0.68673 0.96076 0.0
C1451 C 0.56071 0.68671 0.96231 0.0
C1452 C 0.55232 0.70109 0.96828 0.0
C1453 C 0.56154 0.71555 0.97267 0.0
C1454 C 0.57919 0.71562 0.97117 0.0
C1455 C 0.6419 0.73658 0.91017 0.0
C1456 C 0.65703 0.74465 0.91485 0.0
C1457 C 0.633 0.72692 0.92203 0.0
C1458 C 0.63905 0.72542 0.9387 0.0
C1459 C 0.65323 0.73487 0.94371 0.0
C1460 C 0.66229 0.74422 0.93182 0.0
C1461 C 0.6316 0.71278 0.95035 0.0
C1462 C 0.61414 0.71311 0.9534 0.0
C1463 C 0.64169 0.70013 0.9581 0.0
C1464 C 0.6599 0.69798 0.95396 0.0
C1465 C 0.67216 0.69849 0.96685 0.0
C1466 C 0.68932 0.69667 0.9629 0.0
C1467 C 0.69436 0.69423 0.9461 0.0
C1468 C 0.68224 0.69353 0.93324 0.0
C1469 C 0.66506 0.69531 0.93713 0.0
H1470 H 0.70765 0.69285 0.94307 0.0
H1471 H 0.53867 0.70105 0.96949 0.0
H1472 H 0.58099 0.35392 0.26806 0.0
H1473 H 0.55999 0.37098 0.25272 0.0
H1474 H 0.58716 0.36223 0.20608 0.0
H1475 H 0.60822 0.34566 0.22148 0.0
H1476 H 0.57159 0.39182 0.20459 0.0
H1477 H 0.55719 0.33442 0.21947 0.0
H1478 H 0.55321 0.31082 0.23953 0.0
H1479 H 0.51472 0.33909 0.26554 0.0
H1480 H 0.51864 0.36296 0.24572 0.0
H1481 H 0.50929 0.38635 0.14243 0.0
H1482 H 0.52694 0.37251 0.1639 0.0
H1483 H 0.50308 0.40231 0.20293 0.0
H1484 H 0.48585 0.41659 0.18146 0.0
H1485 H 0.51553 0.36372 0.20998 0.0
H1486 H 0.53147 0.42167 0.19235 0.0
H1487 H 0.53576 0.44264 0.1696 0.0
H1488 H 0.57228 0.40996 0.14604 0.0
H1489 H 0.5679 0.38864 0.1685 0.0
C1490 C 0.58287 0.35646 0.25471 0.0
C1491 C 0.59615 0.34873 0.24586 0.0
C1492 C 0.57082 0.366 0.24592 0.0
C1493 C 0.57182 0.36749 0.2282 0.0
C1494 C 0.58611 0.36121 0.21973 0.0
C1495 C 0.59816 0.35181 0.22851 0.0
C1496 C 0.55704 0.37311 0.21814 0.0
C1497 C 0.55934 0.38573 0.20586 0.0
C1498 C 0.54107 0.365 0.21962 0.0
C1499 C 0.53832 0.35052 0.23124 0.0
C1500 C 0.54792 0.33561 0.2295 0.0
C1501 C 0.54568 0.3222 0.24083 0.0
C1502 C 0.53375 0.32347 0.25383 0.0
C1503 C 0.52397 0.33813 0.25548 0.0
C1504 C 0.52619 0.3516 0.2442 0.0
C1505 C 0.50727 0.38934 0.15567 0.0
C1506 C 0.49638 0.40254 0.16039 0.0
C1507 C 0.51737 0.38149 0.16788 0.0
C1508 C 0.51633 0.38656 0.18489 0.0
C1509 C 0.50396 0.39825 0.18985 0.0
C1510 C 0.49417 0.40638 0.17761 0.0
C1511 C 0.53019 0.38239 0.19664 0.0
C1512 C 0.5277 0.37001 0.20905 0.0
C1513 C 0.5461 0.39045 0.19509 0.0
C1514 C 0.54924 0.40352 0.18199 0.0
C1515 C 0.54033 0.41892 0.18226 0.0
C1516 C 0.54277 0.43087 0.16942 0.0
C1517 C 0.55425 0.42762 0.15635 0.0
C1518 C 0.56337 0.41245 0.15615 0.0
C1519 C 0.56091 0.40043 0.16893 0.0
H1520 H 0.55611 0.43686 0.14641 0.0
H1521 H 0.53205 0.31308 0.2626 0.0
H1522 H 0.89908 0.32892 0.52193 0.0
H1523 H 0.88248 0.308 0.50622 0.0
H1524 H 0.86782 0.34664 0.47045 0.0
H1525 H 0.88365 0.36772 0.48675 0.0
H1526 H 0.84452 0.32272 0.47118 0.0
H1527 H 0.905 0.32507 0.46555 0.0
H1528 H 0.93431 0.32501 0.47634 0.0
H1529 H 0.92729 0.27476 0.49589 0.0
H1530 H 0.89782 0.27464 0.48543 0.0
H1531 H 0.86186 0.26392 0.39687 0.0
H1532 H 0.87423 0.28135 0.41948 0.0
H1533 H 0.83449 0.26553 0.45345 0.0
H1534 H 0.82205 0.24835 0.43102 0.0
H1535 H 0.88515 0.27821 0.45304 0.0
H1536 H 0.81757 0.30122 0.47042 0.0
H1537 H 0.78957 0.30373 0.45673 0.0
H1538 H 0.81341 0.30748 0.40801 0.0
H1539 H 0.84151 0.30528 0.42142 0.0
C1540 C 0.89155 0.33305 0.51122 0.0
C1541 C 0.89257 0.34978 0.50542 0.0
C1542 C 0.88223 0.3211 0.50217 0.0
C1543 C 0.87448 0.32568 0.48684 0.0
C1544 C 0.87385 0.34283 0.48216 0.0
C1545 C 0.88281 0.35488 0.49151 0.0
C1546 C 0.86958 0.31248 0.47447 0.0
C1547 C 0.85333 0.3129 0.46736 0.0
C1548 C 0.88134 0.30005 0.46896 0.0
C1549 C 0.89919 0.2999 0.47483 0.0
C1550 C 0.9097 0.31403 0.47219 0.0
C1551 C 0.92633 0.31404 0.47826 0.0
C1552 C 0.93265 0.2999 0.48681 0.0
C1553 C 0.92237 0.28571 0.48927 0.0
C1554 C 0.90571 0.28566 0.48327 0.0
C1555 C 0.85612 0.26377 0.40933 0.0
C1556 C 0.84087 0.25509 0.41217 0.0
C1557 C 0.86316 0.27372 0.42219 0.0
C1558 C 0.85499 0.27498 0.43794 0.0
C1559 C 0.84076 0.26493 0.44126 0.0
C1560 C 0.8337 0.25513 0.42845 0.0
C1561 C 0.85997 0.28819 0.45019 0.0
C1562 C 0.87627 0.28787 0.4571 0.0
C1563 C 0.84848 0.30109 0.45504 0.0
C1564 C 0.83162 0.30289 0.44693 0.0
C1565 C 0.81682 0.30267 0.4568 0.0
C1566 C 0.80094 0.30403 0.44908 0.0
C1567 C 0.79971 0.30571 0.43151 0.0
C1568 C 0.81437 0.30612 0.42161 0.0
C1569 C 0.83027 0.3048 0.42927 0.0
H1570 H 0.78741 0.30672 0.42556 0.0
H1571 H 0.94552 0.29994 0.49152 0.0
H1572 H 0.89304 0.64254 0.73939 0.0
H1573 H 0.91502 0.62499 0.72649 0.0
H1574 H 0.95348 0.65466 0.75175 0.0
H1575 H 0.93146 0.67293 0.76355 0.0
H1576 H 0.96176 0.653 0.72181 0.0
H1577 H 0.94506 0.61033 0.76047 0.0
H1578 H 0.92579 0.59157 0.77634 0.0
H1579 H 0.90923 0.56874 0.72985 0.0
H1580 H 0.92822 0.58751 0.71367 0.0
H1581 H 0.00452 0.56994 0.68463 0.0
H1582 H 0.99108 0.58544 0.7078 0.0
H1583 H 0.97643 0.6248 0.67274 0.0
H1584 H 0.99082 0.60979 0.64984 0.0
H1585 H 0.96046 0.59097 0.71242 0.0
H1586 H 0.9684 0.66134 0.69108 0.0
H1587 H 0.99017 0.67954 0.67804 0.0
H1588 H 0.02918 0.64607 0.69573 0.0
H1589 H 0.00768 0.62778 0.70907 0.0
C1590 C 0.90618 0.64497 0.74248 0.0
C1591 C 0.91067 0.65901 0.75235 0.0
C1592 C 0.91877 0.63491 0.73519 0.0
C1593 C 0.936 0.6384 0.73818 0.0
C1594 C 0.94033 0.65176 0.7491 0.0
C1595 C 0.92778 0.66213 0.75593 0.0
C1596 C 0.94939 0.62953 0.72839 0.0
C1597 C 0.96158 0.63939 0.71996 0.0
C1598 C 0.94949 0.61175 0.72618 0.0
C1599 C 0.93801 0.60041 0.73585 0.0
C1600 C 0.93722 0.60139 0.75361 0.0
C1601 C 0.92636 0.59074 0.76267 0.0
C1602 C 0.91627 0.57899 0.75411 0.0
C1603 C 0.91705 0.57784 0.73647 0.0
C1604 C 0.92788 0.58847 0.72735 0.0
C1605 C 0.99878 0.58212 0.68202 0.0
C1606 C 0.99869 0.58875 0.66553 0.0
C1607 C 0.99104 0.59093 0.69522 0.0
C1608 C 0.98276 0.60635 0.6921 0.0
C1609 C 0.98308 0.61317 0.67564 0.0
C1610 C 0.99123 0.60456 0.66251 0.0
C1611 C 0.97255 0.6145 0.70562 0.0
C1612 C 0.96088 0.60452 0.71462 0.0
C1613 C 0.97335 0.6321 0.70885 0.0
C1614 C 0.98639 0.64313 0.70099 0.0
C1615 C 0.98163 0.65791 0.69227 0.0
C1616 C 0.99392 0.66823 0.68481 0.0
C1617 C 0.01104 0.66394 0.68602 0.0
C1618 C 0.01591 0.64934 0.69475 0.0
C1619 C 0.00367 0.63898 0.70225 0.0
H1620 H 0.02054 0.67194 0.68023 0.0
H1621 H 0.90787 0.57076 0.76114 0.0
H1622 H 0.58063 0.3491 0.52503 0.0
H1623 H 0.60094 0.32983 0.53807 0.0
H1624 H 0.62896 0.32737 0.49125 0.0
H1625 H 0.60872 0.34735 0.47816 0.0
H1626 H 0.61725 0.29409 0.50909 0.0
H1627 H 0.64959 0.34446 0.51677 0.0
H1628 H 0.65482 0.37431 0.52422 0.0
H1629 H 0.63933 0.36455 0.57541 0.0
H1630 H 0.63373 0.33468 0.5682 0.0
H1631 H 0.68694 0.253 0.55492 0.0
H1632 H 0.66926 0.26935 0.53536 0.0
H1633 H 0.63545 0.28189 0.57634 0.0
H1634 H 0.65281 0.26519 0.5959 0.0
H1635 H 0.6533 0.31009 0.55801 0.0
H1636 H 0.61858 0.26079 0.54982 0.0
H1637 H 0.61272 0.23098 0.54271 0.0
H1638 H 0.63254 0.23872 0.49267 0.0
H1639 H 0.63877 0.26856 0.49959 0.0
C1640 C 0.59124 0.34461 0.51757 0.0
C1641 C 0.5932 0.34962 0.50065 0.0
C1642 C 0.6028 0.33365 0.52502 0.0
C1643 C 0.61635 0.32722 0.51558 0.0
C1644 C 0.61853 0.33229 0.49867 0.0
C1645 C 0.6071 0.3437 0.49128 0.0
C1646 C 0.62761 0.31471 0.52363 0.0
C1647 C 0.62553 0.29756 0.51949 0.0
C1648 C 0.63793 0.31934 0.53749 0.0
C1649 C 0.64108 0.33735 0.54189 0.0
C1650 C 0.6471 0.34871 0.52957 0.0
C1651 C 0.65018 0.36563 0.53376 0.0
C1652 C 0.64737 0.37134 0.55027 0.0
C1653 C 0.64148 0.36012 0.56262 0.0
C1654 C 0.63837 0.34319 0.55849 0.0
C1655 C 0.67544 0.25882 0.55963 0.0
C1656 C 0.67125 0.25796 0.57691 0.0
C1657 C 0.66539 0.26812 0.54846 0.0
C1658 C 0.6512 0.27686 0.5545 0.0
C1659 C 0.6464 0.27517 0.57152 0.0
C1660 C 0.65625 0.26558 0.58263 0.0
C1661 C 0.64273 0.28946 0.54365 0.0
C1662 C 0.64532 0.30662 0.54737 0.0
C1663 C 0.63291 0.28481 0.52944 0.0
C1664 C 0.62939 0.26684 0.52531 0.0
C1665 C 0.62191 0.25608 0.53738 0.0
C1666 C 0.61846 0.23919 0.53336 0.0
C1667 C 0.62232 0.23294 0.51727 0.0
C1668 C 0.6296 0.24357 0.50515 0.0
C1669 C 0.63309 0.26048 0.50911 0.0
H1670 H 0.61962 0.21986 0.51418 0.0
H1671 H 0.64978 0.38444 0.5535 0.0
H1672 H 0.92638 0.3412 0.74873 0.0
H1673 H 0.94686 0.35441 0.76786 0.0
H1674 H 0.90577 0.37374 0.79832 0.0
H1675 H 0.88533 0.36145 0.77851 0.0
H1676 H 0.93154 0.39388 0.80146 0.0
H1677 H 0.92345 0.33387 0.80532 0.0
H1678 H 0.92237 0.30462 0.79443 0.0
H1679 H 0.97512 0.30721 0.78149 0.0
H1680 H 0.97645 0.33659 0.79208 0.0
H1681 H 0.96923 0.39534 0.88007 0.0
H1682 H 0.95225 0.38094 0.85854 0.0
H1683 H 0.99607 0.37771 0.82612 0.0
H1684 H 0.01308 0.3922 0.84772 0.0
H1685 H 0.97008 0.34941 0.82376 0.0
H1686 H 0.97646 0.411 0.82206 0.0
H1687 H 0.97561 0.43901 0.83586 0.0
H1688 H 0.92309 0.43175 0.84794 0.0
H1689 H 0.92374 0.40354 0.83449 0.0
C1690 C 0.9218 0.34897 0.75908 0.0
C1691 C 0.9044 0.35036 0.76228 0.0
C1692 C 0.93346 0.35632 0.77011 0.0
C1693 C 0.92783 0.36447 0.78488 0.0
C1694 C 0.91041 0.36736 0.7871 0.0
C1695 C 0.89873 0.36042 0.77575 0.0
C1696 C 0.9398 0.36798 0.79893 0.0
C1697 C 0.93989 0.38412 0.80633 0.0
C1698 C 0.95068 0.35523 0.80543 0.0
C1699 C 0.95001 0.33747 0.79934 0.0
C1700 C 0.9348 0.32822 0.80009 0.0
C1701 C 0.93414 0.31163 0.79396 0.0
C1702 C 0.94866 0.30407 0.78724 0.0
C1703 C 0.96388 0.31308 0.78668 0.0
C1704 C 0.9646 0.3297 0.79275 0.0
C1705 C 0.97542 0.39063 0.86877 0.0
C1706 C 0.99241 0.39458 0.86552 0.0
C1707 C 0.96571 0.38257 0.85644 0.0
C1708 C 0.9729 0.37857 0.84071 0.0
C1709 C 0.99036 0.3807 0.83823 0.0
C1710 C 9e-05 0.38883 0.85059 0.0
C1711 C 0.96178 0.37522 0.8261 0.0
C1712 C 0.96182 0.35915 0.81869 0.0
C1713 C 0.95073 0.38789 0.81986 0.0
C1714 C 0.95019 0.40511 0.82739 0.0
C1715 C 0.96476 0.41534 0.82774 0.0
C1716 C 0.96431 0.43125 0.8355 0.0
C1717 C 0.94931 0.43715 0.8428 0.0
C1718 C 0.93471 0.42717 0.84229 0.0
C1719 C 0.9351 0.41122 0.83459 0.0
H1720 H 0.94899 0.44946 0.84883 0.0
H1721 H 0.94812 0.29123 0.78249 0.0
H1722 H 0.86427 0.74432 0.10791 0.0
H1723 H 0.88329 0.72939 0.08826 0.0
H1724 H 0.84196 0.72301 0.05312 0.0
H1725 H 0.82308 0.73779 0.07243 0.0
H1726 H 0.85742 0.69275 0.06329 0.0
H1727 H 0.87267 0.7485 0.04295 0.0
H1728 H 0.88352 0.77763 0.04594 0.0
H1729 H 0.93105 0.75839 0.06402 0.0
H1730 H 0.92039 0.72914 0.06136 0.0
H1731 H 0.89416 0.65251 0.9934 0.0
H1732 H 0.87949 0.6733 0.01106 0.0
H1733 H 0.92587 0.68313 0.03827 0.0
H1734 H 0.94071 0.66279 0.02032 0.0
H1735 H 0.90942 0.71176 0.03364 0.0
H1736 H 0.89539 0.65678 0.05457 0.0
H1737 H 0.88534 0.62725 0.05313 0.0
H1738 H 0.83653 0.64436 0.03636 0.0
H1739 H 0.84637 0.674 0.03748 0.0
C1740 C 0.85939 0.74004 0.09583 0.0
C1741 C 0.84216 0.74199 0.09179 0.0
C1742 C 0.87023 0.73155 0.08464 0.0
C1743 C 0.86393 0.72501 0.06934 0.0
C1744 C 0.847 0.72787 0.06492 0.0
C1745 C 0.83624 0.73631 0.076 0.0
C1746 C 0.87426 0.71369 0.05863 0.0
C1747 C 0.86869 0.69695 0.05664 0.0
C1748 C 0.88927 0.71906 0.05053 0.0
C1749 C 0.89566 0.73664 0.05215 0.0
C1750 C 0.88537 0.75048 0.04773 0.0
C1751 C 0.8915 0.76701 0.04933 0.0
C1752 C 0.90794 0.76986 0.05522 0.0
C1753 C 0.91831 0.75617 0.05948 0.0
C1754 C 0.91223 0.73961 0.05792 0.0
C1755 C 0.90124 0.65919 0.00307 0.0
C1756 C 0.91852 0.65593 0.00559 0.0
C1757 C 0.89285 0.67103 0.01318 0.0
C1758 C 0.90153 0.67954 0.02619 0.0
C1759 C 0.91892 0.67669 0.02834 0.0
C1760 C 0.92735 0.66501 0.01811 0.0
C1761 C 0.89233 0.6909 0.03795 0.0
C1762 C 0.89816 0.70755 0.04028 0.0
C1763 C 0.87764 0.68541 0.04662 0.0
C1764 C 0.87167 0.6676 0.04595 0.0
C1765 C 0.88255 0.65424 0.05045 0.0
C1766 C 0.87689 0.63748 0.04971 0.0
C1767 C 0.86032 0.63393 0.04462 0.0
C1768 C 0.84937 0.64713 0.04029 0.0
C1769 C 0.85498 0.66391 0.04098 0.0
H1770 H 0.85595 0.62095 0.04406 0.0
H1771 H 0.91267 0.78267 0.05644 0.0
H1772 H 0.47969 0.60299 0.32925 0.0
H1773 H 0.49458 0.62097 0.30889 0.0
H1774 H 0.53331 0.63096 0.34616 0.0
H1775 H 0.51788 0.61373 0.36678 0.0
H1776 H 0.53184 0.65635 0.32451 0.0
H1777 H 0.53562 0.59596 0.32124 0.0
H1778 H 0.52401 0.56702 0.31954 0.0
H1779 H 0.50133 0.57862 0.2715 0.0
H1780 H 0.51259 0.60775 0.27306 0.0
H1781 H 0.59949 0.64405 0.25649 0.0
H1782 H 0.57906 0.6302 0.27548 0.0
H1783 H 0.54383 0.67116 0.26746 0.0
H1784 H 0.56411 0.68506 0.24882 0.0
H1785 H 0.54509 0.61962 0.27514 0.0
H1786 H 0.53161 0.6851 0.30582 0.0
H1787 H 0.54627 0.71246 0.30952 0.0
H1788 H 0.59443 0.68743 0.30631 0.0
H1789 H 0.58007 0.65993 0.30287 0.0
C1790 C 0.49088 0.60984 0.33331 0.0
C1791 C 0.49774 0.60711 0.34944 0.0
C1792 C 0.49947 0.61992 0.32166 0.0
C1793 C 0.51534 0.62675 0.32586 0.0
C1794 C 0.52115 0.62567 0.34263 0.0
C1795 C 0.5123 0.61592 0.35443 0.0
C1796 C 0.52698 0.63243 0.31234 0.0
C1797 C 0.53461 0.64839 0.31367 0.0
C1798 C 0.53119 0.6217 0.29854 0.0
C1799 C 0.52483 0.60406 0.29732 0.0
C1800 C 0.52812 0.59235 0.31034 0.0
C1801 C 0.52159 0.57592 0.30941 0.0
C1802 C 0.51192 0.57099 0.29543 0.0
C1803 C 0.50881 0.58247 0.28232 0.0
C1804 C 0.51527 0.59893 0.28322 0.0
C1805 C 0.58718 0.64979 0.25843 0.0
C1806 C 0.58342 0.66572 0.2515 0.0
C1807 C 0.57557 0.64191 0.26926 0.0
C1808 C 0.56016 0.64991 0.2731 0.0
C1809 C 0.55581 0.66499 0.26486 0.0
C1810 C 0.56739 0.67289 0.25423 0.0
C1811 C 0.54941 0.64373 0.28707 0.0
C1812 C 0.54212 0.62763 0.2859 0.0
C1813 C 0.54604 0.65404 0.30135 0.0
C1814 C 0.55475 0.67049 0.30393 0.0
C1815 C 0.54532 0.68544 0.30601 0.0
C1816 C 0.55358 0.70097 0.30804 0.0
C1817 C 0.57127 0.70169 0.3081 0.0
C1818 C 0.58074 0.68687 0.30621 0.0
C1819 C 0.57254 0.67131 0.30421 0.0
H1820 H 0.57763 0.71373 0.30963 0.0
H1821 H 0.50685 0.55828 0.29475 0.0
H1822 H 0.72473 0.88906 0.65261 0.0
H1823 H 0.70649 0.91065 0.64004 0.0
H1824 H 0.73834 0.94982 0.66118 0.0
H1825 H 0.75575 0.92812 0.67481 0.0
H1826 H 0.70861 0.95715 0.66858 0.0
H1827 H 0.73405 0.94064 0.61621 0.0
H1828 H 0.74371 0.92132 0.59365 0.0
H1829 H 0.69253 0.90491 0.58538 0.0
H1830 H 0.68259 0.92397 0.60803 0.0
H1831 H 0.67452 0.0192 0.60775 0.0
H1832 H 0.69171 0.00102 0.62612 0.0
H1833 H 0.64991 0.9662 0.63068 0.0
H1834 H 0.63252 0.98468 0.6128 0.0
H1835 H 0.68377 0.95731 0.61095 0.0
H1836 H 0.65938 0.97595 0.66395 0.0
H1837 H 0.65133 0.99732 0.68525 0.0
H1838 H 0.70335 0.01235 0.69025 0.0
H1839 H 0.71168 0.99123 0.66878 0.0
C1840 C 0.7281 0.90229 0.65403 0.0
C1841 C 0.74164 0.90706 0.66444 0.0
C1842 C 0.71768 0.91465 0.64687 0.0
C1843 C 0.72103 0.93195 0.64957 0.0
C1844 C 0.73538 0.9366 0.65901 0.0
C1845 C 0.74545 0.92425 0.66661 0.0
C1846 C 0.70877 0.94508 0.644 0.0
C1847 C 0.70342 0.95728 0.65586 0.0
C1848 C 0.70165 0.94516 0.62754 0.0
C1849 C 0.7076 0.93362 0.61394 0.0
C1850 C 0.72488 0.93281 0.60967 0.0
C1851 C 0.73039 0.92192 0.59685 0.0
C1852 C 0.71875 0.91186 0.58812 0.0
C1853 C 0.70154 0.91269 0.59217 0.0
C1854 C 0.69596 0.92355 0.60498 0.0
C1855 C 0.66873 0.00821 0.61357 0.0
C1856 C 0.65222 0.00336 0.60917 0.0
C1857 C 0.67855 0.9978 0.62393 0.0
C1858 C 0.67202 0.98232 0.62964 0.0
C1859 C 0.65504 0.97821 0.62649 0.0
C1860 C 0.6451 0.98881 0.61642 0.0
C1861 C 0.6838 0.96912 0.6355 0.0
C1862 C 0.68906 0.95702 0.62363 0.0
C1863 C 0.69112 0.96941 0.65175 0.0
C1864 C 0.68612 0.98214 0.66461 0.0
C1865 C 0.66908 0.98395 0.66944 0.0
C1866 C 0.66447 0.99598 0.68159 0.0
C1867 C 0.67681 0.00622 0.68906 0.0
C1868 C 0.6938 0.00443 0.68443 0.0
C1869 C 0.69847 0.99242 0.67229 0.0
H1870 H 0.67323 0.01552 0.69846 0.0
H1871 H 0.72305 0.90344 0.5782 0.0
H1872 H 0.24856 0.35808 0.23217 0.0
H1873 H 0.23465 0.34054 0.25342 0.0
H1874 H 0.20154 0.31996 0.21513 0.0
H1875 H 0.21558 0.33747 0.19364 0.0
H1876 H 0.20213 0.33936 0.26427 0.0
H1877 H 0.19441 0.27761 0.22724 0.0
H1878 H 0.20659 0.26275 0.20257 0.0
H1879 H 0.25426 0.28746 0.21098 0.0
H1880 H 0.24241 0.30239 0.23567 0.0
H1881 H 0.17506 0.28297 0.32811 0.0
H1882 H 0.1733 0.29407 0.29915 0.0
H1883 H 0.22528 0.27968 0.29048 0.0
H1884 H 0.22712 0.26856 0.31908 0.0
H1885 H 0.20673 0.27675 0.26162 0.0
H1886 H 0.21608 0.31805 0.30733 0.0
H1887 H 0.20756 0.33288 0.33349 0.0
H1888 H 0.16173 0.34951 0.30939 0.0
H1889 H 0.16992 0.33457 0.28316 0.0
C1890 C 0.23828 0.34988 0.22826 0.0
C1891 C 0.23316 0.34913 0.21126 0.0
C1892 C 0.23028 0.33993 0.24043 0.0
C1893 C 0.21704 0.32899 0.23585 0.0
C1894 C 0.21176 0.3283 0.2189 0.0
C1895 C 0.21978 0.33829 0.20667 0.0
C1896 C 0.2094 0.31798 0.24895 0.0
C1897 C 0.2028 0.32565 0.26355 0.0
C1898 C 0.2102 0.30011 0.24798 0.0
C1899 C 0.21746 0.29126 0.23313 0.0
C1900 C 0.20749 0.27987 0.22378 0.0
C1901 C 0.21434 0.27144 0.20979 0.0
C1902 C 0.23118 0.27423 0.20514 0.0
C1903 C 0.24121 0.28541 0.2145 0.0
C1904 C 0.23442 0.29387 0.22847 0.0
C1905 C 0.18596 0.28177 0.31986 0.0
C1906 C 0.20135 0.27525 0.326 0.0
C1907 C 0.18492 0.2881 0.30333 0.0
C1908 C 0.19924 0.2879 0.29278 0.0
C1909 C 0.21408 0.27999 0.29841 0.0
C1910 C 0.21517 0.27381 0.31487 0.0
C1911 C 0.20002 0.29817 0.27712 0.0
C1912 C 0.2053 0.29041 0.26203 0.0
C1913 C 0.19835 0.316 0.27772 0.0
C1914 C 0.19349 0.32505 0.29341 0.0
C1915 C 0.20414 0.32479 0.30767 0.0
C1916 C 0.19938 0.33321 0.32249 0.0
C1917 C 0.18408 0.34209 0.32312 0.0
C1918 C 0.17355 0.34259 0.3089 0.0
C1919 C 0.17824 0.33415 0.29406 0.0
H1920 H 0.18042 0.34861 0.3346 0.0
H1921 H 0.23649 0.2677 0.19432 0.0
H1922 H 0.89769 0.96003 0.45398 0.0
H1923 H 0.91753 0.94746 0.47436 0.0
H1924 H 0.9078 0.98843 0.50909 0.0
H1925 H 0.88772 0.00084 0.48913 0.0
H1926 H 0.94579 0.97803 0.49519 0.0
H1927 H 0.89136 0.95992 0.52304 0.0
H1928 H 0.86477 0.94355 0.52169 0.0
H1929 H 0.89276 0.89868 0.50901 0.0
H1930 H 0.91949 0.9149 0.51009 0.0
H1931 H 0.96595 0.98593 0.57856 0.0
H1932 H 0.95642 0.98363 0.54957 0.0
H1933 H 0.96019 0.92917 0.55226 0.0
H1934 H 0.96933 0.93134 0.58185 0.0
H1935 H 0.93112 0.93693 0.54035 0.0
H1936 H 0.98573 0.95322 0.52496 0.0
H1937 H 0.01301 0.96835 0.52476 0.0
H1938 H 0.98776 0.01433 0.51064 0.0
H1939 H 0.96028 -0.00026 0.5113 0.0
C1940 C 0.89956 0.96618 0.4661 0.0
C1941 C 0.89126 0.98149 0.46995 0.0
C1942 C 0.91091 0.95902 0.47764 0.0
C1943 C 0.91412 0.96715 0.49304 0.0
C1944 C 0.90545 0.98207 0.49715 0.0
C1945 C 0.89396 0.9891 0.48578 0.0
C1946 C 0.92708 0.96082 0.5048 0.0
C1947 C 0.9428 0.969 0.50509 0.0
C1948 C 0.92336 0.94831 0.51693 0.0
C1949 C 0.90734 0.93863 0.51644 0.0
C1950 C 0.8918 0.94661 0.51982 0.0
C1951 C 0.87672 0.93735 0.51914 0.0
C1952 C 0.87707 0.9201 0.51521 0.0
C1953 C 0.89251 0.91205 0.51201 0.0
C1954 C 0.90762 0.92126 0.51266 0.0
C1955 C 0.96501 0.97342 0.57302 0.0
C1956 C 0.9682 0.9588 0.58265 0.0
C1957 C 0.95975 0.97213 0.55626 0.0
C1958 C 0.95782 0.95623 0.54858 0.0
C1959 C 0.96167 0.94158 0.5579 0.0
C1960 C 0.96686 0.94285 0.57481 0.0
C1961 C 0.94959 0.95521 0.53173 0.0
C1962 C 0.9347 0.94556 0.53028 0.0
C1963 C 0.95429 0.96623 0.51835 0.0
C1964 C 0.97084 0.9753 0.51821 0.0
C1965 C 0.98593 0.96661 0.52199 0.0
C1966 C 0.00146 0.97512 0.52181 0.0
C1967 C 0.00212 0.99232 0.51774 0.0
C1968 C 0.98724 0.00105 0.51386 0.0
C1969 C 0.97167 0.99264 0.51412 0.0
H1970 H 0.01415 0.99889 0.51757 0.0
H1971 H 0.86538 0.91295 0.51469 0.0
H1972 H 0.31445 0.73172 0.82275 0.0
H1973 H 0.31707 0.72171 0.79326 0.0
H1974 H 0.29287 0.67475 0.80727 0.0
H1975 H 0.28993 0.68482 0.83633 0.0
H1976 H 0.32034 0.67082 0.78431 0.0
H1977 H 0.26956 0.70634 0.79401 0.0
H1978 H 0.25608 0.73362 0.80109 0.0
H1979 H 0.28238 0.75757 0.75998 0.0
H1980 H 0.29623 0.73046 0.75284 0.0
H1981 H 0.25926 0.63148 0.73639 0.0
H1982 H 0.27544 0.64858 0.75646 0.0
H1983 H 0.29297 0.68039 0.71568 0.0
H1984 H 0.27697 0.66305 0.69536 0.0
H1985 H 0.27884 0.69776 0.74555 0.0
H1986 H 0.32185 0.65899 0.73085 0.0
H1987 H 0.33427 0.63121 0.72392 0.0
H1988 H 0.32248 0.61317 0.77383 0.0
H1989 H 0.30975 0.64075 0.781 0.0
C1990 C 0.31015 0.71911 0.8195 0.0
C1991 C 0.302 0.70895 0.83161 0.0
C1992 C 0.31159 0.71345 0.80274 0.0
C1993 C 0.30514 0.69752 0.79816 0.0
C1994 C 0.29801 0.68703 0.81059 0.0
C1995 C 0.29628 0.69278 0.82714 0.0
C1996 C 0.30383 0.69212 0.78033 0.0
C1997 C 0.3115 0.67681 0.77567 0.0
C1998 C 0.29268 0.70029 0.76891 0.0
C1999 C 0.28418 0.71648 0.77311 0.0
C2000 C 0.2726 0.71746 0.7866 0.0
C2001 C 0.26487 0.73288 0.7906 0.0
C2002 C 0.26849 0.74735 0.78108 0.0
C2003 C 0.27969 0.74638 0.76742 0.0
C2004 C 0.28749 0.731 0.7634 0.0
C2005 C 0.26664 0.64204 0.73168 0.0
C2006 C 0.26696 0.64591 0.71436 0.0
C2007 C 0.27591 0.65175 0.74312 0.0
C2008 C 0.2855 0.66559 0.73746 0.0
C2009 C 0.28573 0.66966 0.7202 0.0
C2010 C 0.27664 0.65974 0.70866 0.0
C2011 C 0.29463 0.67597 0.75003 0.0
C2012 C 0.28836 0.69216 0.75372 0.0
C2013 C 0.30705 0.66861 0.76058 0.0
C2014 C 0.31481 0.65197 0.75645 0.0
C2015 C 0.32181 0.64908 0.74033 0.0
C2016 C 0.32892 0.63336 0.73636 0.0
C2017 C 0.32916 0.62044 0.74843 0.0
C2018 C 0.32231 0.62321 0.7645 0.0
C2019 C 0.31517 0.6389 0.76854 0.0
H2020 H 0.33466 0.60827 0.74533 0.0
H2021 H 0.26258 0.7593 0.78426 0.0
H2022 H 0.59785 0.03768 0.95074 0.0
H2023 H 0.57971 0.05248 0.97108 0.0
H2024 H 0.59988 0.02167 0.01143 0.0
H2025 H 0.61805 0.0069 0.99123 0.0
H2026 H 0.55476 0.03952 0.99051 0.0
H2027 H 0.60246 0.04377 0.047 0.0
H2028 H 0.63288 0.04934 0.05128 0.0
H2029 H 0.63489 0.07634 0.00414 0.0
H2030 H 0.60443 0.07117 -0.00032 0.0
H2031 H 0.52372 0.02236 0.06983 0.0
H2032 H 0.53593 0.02687 0.04202 0.0
H2033 H 0.54919 0.07805 0.05588 0.0
H2034 H 0.53711 0.07346 0.08415 0.0
H2035 H 0.576 0.06181 0.04529 0.0
H2036 H 0.52232 0.071 0.02161 0.0
H2037 H 0.49174 0.06692 0.01694 0.0
H2038 H 0.50102 0.01697 0.99759 0.0
H2039 H 0.53167 0.02071 0.00218 0.0
C2040 C 0.59857 0.03421 0.96399 0.0
C2041 C 0.60939 0.02114 0.96943 0.0
C2042 C 0.58816 0.04266 0.97556 0.0
C2043 C 0.58857 0.0383 0.99276 0.0
C2044 C 0.59958 0.02544 0.99824 0.0
C2045 C 0.6099 0.01695 0.98669 0.0
C2046 C 0.57685 0.04632 0.00501 0.0
C2047 C 0.55935 0.04464 0.00241 0.0
C2048 C 0.58284 0.05362 0.02022 0.0
C2049 C 0.60114 0.05702 0.02298 0.0
C2050 C 0.60935 0.05101 0.0376 0.0
C2051 C 0.62662 0.05407 0.04005 0.0
C2052 C 0.63582 0.06317 0.02798 0.0
C2053 C 0.62776 0.06926 0.01346 0.0
C2054 C 0.6105 0.06625 0.01096 0.0
C2055 C 0.52892 0.03472 0.06688 0.0
C2056 C 0.52974 0.04746 0.07926 0.0
C2057 C 0.53572 0.03736 0.05085 0.0
C2058 C 0.54344 0.05284 0.04679 0.0
C2059 C 0.54325 0.06603 0.05874 0.0
C2060 C 0.53632 0.0634 0.07485 0.0
C2061 C 0.55395 0.0539 0.03126 0.0
C2062 C 0.57129 0.05727 0.03321 0.0
C2063 C 0.54776 0.04846 0.01535 0.0
C2064 C 0.52934 0.04615 0.01225 0.0
C2065 C 0.51785 0.05912 0.01639 0.0
C2066 C 0.5005 0.05688 0.01374 0.0
C2067 C 0.49444 0.04169 0.007 0.0
C2068 C 0.50574 0.02875 0.00279 0.0
C2069 C 0.52312 0.03095 0.00534 0.0
H2070 H 0.48098 0.03994 0.00504 0.0
H2071 H 0.64919 0.06551 0.02989 0.0
H2072 H 0.17567 0.7126 0.16603 0.0
H2073 H 0.17684 0.69517 0.19164 0.0
H2074 H 0.21241 0.73026 0.21385 0.0
H2075 H 0.21174 0.74727 0.18804 0.0
H2076 H 0.22596 0.70049 0.21085 0.0
H2077 H 0.17349 0.72153 0.23233 0.0
H2078 H 0.14319 0.72898 0.23172 0.0
H2079 H 0.13026 0.67696 0.22266 0.0
H2080 H 0.16051 0.66922 0.22297 0.0
H2081 H 0.21404 0.65081 0.29409 0.0
H2082 H 0.20275 0.6708 0.27345 0.0
H2083 H 0.22924 0.64454 0.23349 0.0
H2084 H 0.2413 0.62499 0.2543 0.0
H2085 H 0.18381 0.67082 0.24667 0.0
H2086 H 0.24317 0.67094 0.20469 0.0
H2087 H 0.27392 0.66563 0.20652 0.0
H2088 H 0.27356 0.67964 0.259 0.0
H2089 H 0.2427 0.68509 0.25746 0.0
C2090 C 0.18315 0.71693 0.17669 0.0
C2091 C 0.19377 0.73109 0.1751 0.0
C2092 C 0.18382 0.70697 0.19132 0.0
C2093 C 0.19489 0.71131 0.20457 0.0
C2094 C 0.20393 0.72659 0.2037 0.0
C2095 C 0.2035 0.73633 0.189 0.0
C2096 C 0.19955 0.69862 0.21756 0.0
C2097 C 0.2167 0.69412 0.21876 0.0
C2098 C 0.18751 0.6902 0.22779 0.0
C2099 C 0.1693 0.69482 0.22752 0.0
C2100 C 0.1642 0.7117 0.23005 0.0
C2101 C 0.14703 0.71597 0.22979 0.0
C2102 C 0.13481 0.70346 0.22711 0.0
C2103 C 0.13974 0.68664 0.22471 0.0
C2104 C 0.1569 0.6823 0.22495 0.0
C2105 C 0.2173 0.64916 0.28087 0.0
C2106 C 0.22869 0.63647 0.27578 0.0
C2107 C 0.2108 0.66059 0.26908 0.0
C2108 C 0.21541 0.6594 0.25197 0.0
C2109 C 0.22586 0.64598 0.2467 0.0
C2110 C 0.23266 0.63476 0.25855 0.0
C2111 C 0.2102 0.67284 0.23994 0.0
C2112 C 0.193 0.67733 0.23881 0.0
C2113 C 0.22221 0.68155 0.2299 0.0
C2114 C 0.24066 0.67822 0.23102 0.0
C2115 C 0.24965 0.67288 0.21663 0.0
C2116 C 0.26706 0.66983 0.21762 0.0
C2117 C 0.27563 0.67221 0.23292 0.0
C2118 C 0.26682 0.67769 0.24724 0.0
C2119 C 0.24939 0.68072 0.24632 0.0
H2120 H 0.28912 0.66987 0.23366 0.0
H2121 H 0.12151 0.70679 0.22692 0.0
H2122 H 0.63882 0.97337 0.52662 0.0
H2123 H 0.62219 0.9576 0.50557 0.0
H2124 H 0.57677 0.98279 0.52292 0.0
H2125 H 0.5931 0.99696 0.54489 0.0
H2126 H 0.56803 0.95399 0.51627 0.0
H2127 H 0.6019 0.99396 0.48492 0.0
H2128 H 0.62821 0.00765 0.4751 0.0
H2129 H 0.64562 0.96028 0.45487 0.0
H2130 H 0.61947 0.94627 0.46474 0.0
H2131 H 0.52379 0.96919 0.43955 0.0
H2132 H 0.53993 0.96858 0.46595 0.0
H2133 H 0.56561 0.92336 0.44942 0.0
H2134 H 0.54922 0.92371 0.42296 0.0
H2135 H 0.58601 0.95432 0.45614 0.0
H2136 H 0.54467 0.91853 0.483 0.0
H2137 H 0.5158 0.90997 0.49128 0.0
H2138 H 0.50924 0.95688 0.51798 0.0
H2139 H 0.53798 0.96581 0.50971 0.0
C2140 C 0.62527 0.97539 0.52585 0.0
C2141 C 0.61718 0.98644 0.53711 0.0
C2142 C 0.61577 0.96648 0.5138 0.0
C2143 C 0.59819 0.96918 0.51235 0.0
C2144 C 0.59024 0.98031 0.52374 0.0
C2145 C 0.59959 0.98859 0.53618 0.0
C2146 C 0.58794 0.96091 0.49884 0.0
C2147 C 0.572 0.95416 0.50312 0.0
C2148 C 0.59313 0.96068 0.48165 0.0
C2149 C 0.60887 0.96904 0.47577 0.0
C2150 C 0.6114 0.98645 0.47848 0.0
C2151 C 0.62627 0.99427 0.4729 0.0
C2152 C 0.63861 0.98483 0.46443 0.0
C2153 C 0.63608 0.96756 0.46148 0.0
C2154 C 0.62124 0.95968 0.46706 0.0
C2155 C 0.53244 0.95878 0.44181 0.0
C2156 C 0.53534 0.94653 0.42926 0.0
C2157 C 0.54156 0.9584 0.4569 0.0
C2158 C 0.55384 0.9459 0.4596 0.0
C2159 C 0.55605 0.93302 0.44756 0.0
C2160 C 0.54666 0.9332 0.43253 0.0
C2161 C 0.56602 0.94819 0.47359 0.0
C2162 C 0.58232 0.95381 0.46937 0.0
C2163 C 0.56081 0.94821 0.49067 0.0
C2164 C 0.5435 0.94283 0.49571 0.0
C2165 C 0.53704 0.92706 0.49056 0.0
C2166 C 0.52071 0.92212 0.49529 0.0
C2167 C 0.51071 0.93284 0.50519 0.0
C2168 C 0.51702 0.94854 0.51037 0.0
C2169 C 0.53334 0.95354 0.50569 0.0
H2170 H 0.49806 0.92901 0.50881 0.0
H2171 H 0.65011 0.9909 0.46011 0.0
H2172 H 0.2806 0.26697 0.69209 0.0
H2173 H 0.28148 0.28603 0.71626 0.0
H2174 H 0.32787 0.308 0.69751 0.0
H2175 H 0.3269 0.28898 0.67295 0.0
H2176 H 0.301 0.29633 0.74211 0.0
H2177 H 0.32286 0.35097 0.70097 0.0
H2178 H 0.32657 0.35829 0.67078 0.0
H2179 H 0.28475 0.32611 0.65758 0.0
H2180 H 0.28069 0.31881 0.6877 0.0
H2181 H 0.28031 0.36794 0.79237 0.0
H2182 H 0.29802 0.35041 0.77399 0.0
H2183 H 0.26066 0.35439 0.7343 0.0
H2184 H 0.24321 0.37238 0.75239 0.0
H2185 H 0.29128 0.35473 0.72106 0.0
H2186 H 0.26163 0.3209 0.76372 0.0
H2187 H 0.25493 0.31224 0.79301 0.0
H2188 H 0.30734 0.30105 0.80203 0.0
H2189 H 0.3144 0.30985 0.77288 0.0
C2190 C 0.29124 0.27556 0.69331 0.0
C2191 C 0.30346 0.2768 0.68045 0.0
C2192 C 0.29181 0.28636 0.70723 0.0
C2193 C 0.30455 0.29866 0.7085 0.0
C2194 C 0.31781 0.29872 0.69663 0.0
C2195 C 0.31727 0.28782 0.68264 0.0
C2196 C 0.30204 0.31287 0.72048 0.0
C2197 C 0.29926 0.30919 0.73763 0.0
C2198 C 0.29958 0.32962 0.71457 0.0
C2199 C 0.30162 0.33422 0.69651 0.0
C2200 C 0.31444 0.34552 0.69161 0.0
C2201 C 0.3166 0.34966 0.67452 0.0
C2202 C 0.30594 0.34262 0.66227 0.0
C2203 C 0.29302 0.33152 0.66708 0.0
C2204 C 0.29078 0.32739 0.68414 0.0
C2205 C 0.27602 0.3653 0.77961 0.0
C2206 C 0.26026 0.37131 0.77387 0.0
C2207 C 0.28614 0.35526 0.76915 0.0
C2208 C 0.28052 0.35082 0.75289 0.0
C2209 C 0.26524 0.35763 0.74682 0.0
C2210 C 0.25523 0.36785 0.75719 0.0
C2211 C 0.28966 0.33806 0.7426 0.0
C2212 C 0.29369 0.34205 0.72576 0.0
C2213 C 0.29288 0.3215 0.74872 0.0
C2214 C 0.28857 0.31624 0.76622 0.0
C2215 C 0.27173 0.31671 0.772 0.0
C2216 C 0.26787 0.31176 0.78855 0.0
C2217 C 0.28069 0.30616 0.79937 0.0
C2218 C 0.29742 0.30544 0.79365 0.0
C2219 C 0.30137 0.31041 0.77712 0.0
H2220 H 0.27766 0.30232 0.81217 0.0
H2221 H 0.30766 0.3458 0.64904 0.0
H2222 H 0.89758 0.98776 0.01174 0.0
H2223 H 0.91844 0.0011 0.99331 0.0
H2224 H 0.92314 0.04278 0.02828 0.0
H2225 H 0.90247 0.02919 0.04718 0.0
H2226 H 0.91682 0.05143 0.99266 0.0
H2227 H 0.95617 0.02069 0.02637 0.0
H2228 H 0.96928 0.99673 0.04153 0.0
H2229 H 0.97192 0.96844 0.99519 0.0
H2230 H 0.95865 0.99208 0.97979 0.0
H2231 H 0.97034 0.07033 0.92017 0.0
H2232 H 0.96177 0.06917 0.95006 0.0
H2233 H 0.95214 0.0156 0.94505 0.0
H2234 H 0.96099 0.01649 0.91578 0.0
H2235 H 0.96856 0.02161 0.9733 0.0
H2236 H 0.92021 0.04764 0.9429 0.0
H2237 H 0.90723 0.07081 0.92641 0.0
H2238 H 0.92074 0.10637 0.96529 0.0
H2239 H 0.93393 0.08341 0.98191 0.0
C2240 C 0.90309 -0.0003 0.0156 0.0
C2241 C 0.89841 0.00742 0.0309 0.0
C2242 C 0.91509 0.00725 0.00512 0.0
C2243 C 0.92246 0.02277 0.0096 0.0
C2244 C 0.91769 0.03069 0.02475 0.0
C2245 C 0.90587 0.02296 0.03545 0.0
C2246 C 0.93419 0.03098 0.9976 0.0
C2247 C 0.92841 0.04522 0.98868 0.0
C2248 C 0.94927 0.02285 0.99249 0.0
C2249 C 0.95641 0.00822 0.00191 0.0
C2250 C 0.95936 0.00929 0.01944 0.0
C2251 C 0.96689 0.99578 0.02807 0.0
C2252 C 0.9715 0.98112 0.0193 0.0
C2253 C 0.9684 0.97983 0.00195 0.0
C2254 C 0.96091 0.9933 0.99326 0.0
C2255 C 0.96641 0.05832 0.9255 0.0
C2256 C 0.96634 0.0435 0.91556 0.0
C2257 C 0.96152 0.0577 0.94256 0.0
C2258 C 0.95633 0.0423 0.94978 0.0
C2259 C 0.95628 0.02759 0.93983 0.0
C2260 C 0.96126 0.02816 0.92299 0.0
C2261 C 0.95032 0.04099 0.96749 0.0
C2262 C 0.9573 0.02819 0.97762 0.0
C2263 C 0.93617 0.05018 0.97349 0.0
C2264 C 0.92822 0.06389 0.96351 0.0
C2265 C 0.92049 0.06043 0.94786 0.0
C2266 C 0.91308 0.07351 0.93851 0.0
C2267 C 0.91321 0.09006 0.94477 0.0
C2268 C 0.92069 0.09356 0.96043 0.0
C2269 C 0.92813 0.08052 0.96982 0.0
H2270 H 0.90747 0.10017 0.93752 0.0
H2271 H 0.97755 0.97076 0.02591 0.0
H2272 H 0.30974 0.21847 0.26762 0.0
H2273 H 0.28371 0.21733 0.28412 0.0
H2274 H 0.29637 0.16694 0.30098 0.0
H2275 H 0.32262 0.16801 0.28449 0.0
H2276 H 0.25519 0.19755 0.28908 0.0
H2277 H 0.2902 0.16772 0.34422 0.0
H2278 H 0.31943 0.16164 0.35356 0.0
H2279 H 0.33723 0.20601 0.32767 0.0
H2280 H 0.30808 0.21246 0.31841 0.0
H2281 H 0.19909 0.21104 0.35811 0.0
H2282 H 0.2186 0.19476 0.34039 0.0
H2283 H 0.25858 0.23016 0.35205 0.0
H2284 H 0.23935 0.24608 0.37022 0.0
H2285 H 0.27101 0.19926 0.34989 0.0
H2286 H 0.23121 0.23375 0.31646 0.0
H2287 H 0.20262 0.24143 0.30629 0.0
H2288 H 0.19518 0.19087 0.2879 0.0
H2289 H 0.22356 0.18278 0.29817 0.0
C2290 C 0.30678 0.20695 0.27446 0.0
C2291 C 0.31838 0.19348 0.27507 0.0
C2292 C 0.29183 0.20627 0.28379 0.0
C2293 C 0.28829 0.19217 0.29398 0.0
C2294 C 0.29898 0.17799 0.29328 0.0
C2295 C 0.31395 0.17862 0.28384 0.0
C2296 C 0.27516 0.19376 0.30723 0.0
C2297 C 0.25851 0.19759 0.30241 0.0
C2298 C 0.27956 0.19389 0.3246 0.0
C2299 C 0.29704 0.19043 0.33047 0.0
C2300 C 0.30036 0.1762 0.34059 0.0
C2301 C 0.3169 0.17269 0.34587 0.0
C2302 C 0.33019 0.1834 0.34116 0.0
C2303 C 0.32694 0.1977 0.33126 0.0
C2304 C 0.31042 0.20129 0.32601 0.0
C2305 C 0.21214 0.21515 0.35715 0.0
C2306 C 0.21766 0.22999 0.36531 0.0
C2307 C 0.22324 0.20586 0.34697 0.0
C2308 C 0.23993 0.21145 0.3446 0.0
C2309 C 0.24572 0.22564 0.35364 0.0
C2310 C 0.23471 0.23479 0.36398 0.0
C2311 C 0.2511 0.20359 0.33173 0.0
C2312 C 0.26743 0.1986 0.33664 0.0
C2313 C 0.24643 0.20262 0.31442 0.0
C2314 C 0.22941 0.20761 0.30826 0.0
C2315 C 0.22343 0.22425 0.31035 0.0
C2316 C 0.20729 0.22868 0.30456 0.0
C2317 C 0.19712 0.21666 0.2965 0.0
C2318 C 0.20306 0.20016 0.29418 0.0
C2319 C 0.21916 0.19564 0.29999 0.0
H2320 H 0.18464 0.22014 0.29202 0.0
H2321 H 0.34299 0.18063 0.3452 0.0
H2322 H 0.02049 0.95891 0.59828 0.0
H2323 H 0.03741 0.98029 0.58408 0.0
H2324 H 0.02952 0.01451 0.62603 0.0
H2325 H 0.01145 0.99326 0.63982 0.0
H2326 H 0.0256 0.03095 0.59946 0.0
H2327 H 0.06993 0.99425 0.61626 0.0
H2328 H 0.0851 0.96728 0.62037 0.0
H2329 H 0.08725 0.95994 0.56654 0.0
H2330 H 0.07188 0.98673 0.5621 0.0
H2331 H 0.0743 0.08975 0.55622 0.0
H2332 H 0.07447 0.06668 0.5769 0.0
H2333 H 0.05593 0.03231 0.53872 0.0
H2334 H 0.05508 0.05556 0.51821 0.0
H2335 H 0.07844 0.0179 0.56799 0.0
H2336 H 0.02822 0.05171 0.5535 0.0
H2337 H 0.01336 0.0789 0.54976 0.0
H2338 H 0.0232 0.09163 0.60169 0.0
H2339 H 0.03874 0.06475 0.6055 0.0
C2340 C 0.02249 0.97094 0.60456 0.0
C2341 C 0.01477 0.97445 0.62018 0.0
C2342 C 0.03236 0.98312 0.59651 0.0
C2343 C 0.03526 0.9989 0.60417 0.0
C2344 C 0.02762 0.00239 0.61991 0.0
C2345 C 0.0173 0.9903 0.62778 0.0
C2346 C 0.04492 0.01216 0.59491 0.0
C2347 C 0.03742 0.02817 0.59305 0.0
C2348 C 0.06029 0.00861 0.58627 0.0
C2349 C 0.06968 0.99251 0.58886 0.0
C2350 C 0.07355 0.98685 0.6053 0.0
C2351 C 0.0822 0.97159 0.60769 0.0
C2352 C 0.08713 0.9619 0.59373 0.0
C2353 C 0.08344 0.96746 0.57735 0.0
C2354 C 0.07479 0.98271 0.57488 0.0
C2355 C 0.07121 0.07706 0.55202 0.0
C2356 C 0.06465 0.07431 0.53573 0.0
C2357 C 0.07127 0.06392 0.56384 0.0
C2358 C 0.06506 0.0479 0.55932 0.0
C2359 C 0.06086 0.04459 0.54237 0.0
C2360 C 0.06036 0.05784 0.53067 0.0
C2361 C 0.05889 0.03625 0.57254 0.0
C2362 C 0.06694 0.02066 0.57498 0.0
C2363 C 0.04416 0.04019 0.58194 0.0
C2364 C 0.03492 0.05639 0.57966 0.0
C2365 C 0.02748 0.06044 0.56402 0.0
C2366 C 0.01893 0.07579 0.56189 0.0
C2367 C 0.01747 0.08706 0.57545 0.0
C2368 C 0.02449 0.08295 0.59116 0.0
C2369 C 0.03322 0.06769 0.59329 0.0
H2370 H 0.01081 0.09892 0.5738 0.0
H2371 H 0.09381 0.95008 0.59561 0.0
H2372 H 0.18661 0.79259 0.75167 0.0
H2373 H 0.21484 0.78989 0.76422 0.0
H2374 H 0.19795 0.81801 0.80796 0.0
H2375 H 0.17011 0.82164 0.79489 0.0
H2376 H 0.23145 0.82076 0.80494 0.0
H2377 H 0.18998 0.77459 0.80491 0.0
H2378 H 0.17071 0.75509 0.78987 0.0
H2379 H 0.21255 0.73531 0.76139 0.0
H2380 H 0.23202 0.75485 0.77609 0.0
H2381 H 0.25704 0.74919 0.86734 0.0
H2382 H 0.23796 0.76211 0.84662 0.0
H2383 H 0.28031 0.7876 0.82332 0.0
H2384 H 0.29936 0.77505 0.84417 0.0
H2385 H 0.23708 0.75868 0.81314 0.0
H2386 H 0.26604 0.82535 0.80657 0.0
H2387 H 0.28261 0.84582 0.82342 0.0
H2388 H 0.26221 0.82499 0.86931 0.0
H2389 H 0.24537 0.80455 0.85273 0.0
C2390 C 0.18927 0.79888 0.76358 0.0
C2391 C 0.17632 0.80713 0.7725 0.0
C2392 C 0.20532 0.79729 0.77077 0.0
C2393 C 0.20826 0.80322 0.78728 0.0
C2394 C 0.19591 0.81322 0.79526 0.0
C2395 C 0.18 0.81527 0.78782 0.0
C2396 C 0.22229 0.79617 0.79752 0.0
C2397 C 0.23289 0.80719 0.80655 0.0
C2398 C 0.22392 0.77845 0.79989 0.0
C2399 C 0.21243 0.76617 0.79157 0.0
C2400 C 0.19506 0.76603 0.79547 0.0
C2401 C 0.18411 0.75501 0.78697 0.0
C2402 C 0.19042 0.74397 0.77467 0.0
C2403 C 0.20771 0.74386 0.77091 0.0
C2404 C 0.21871 0.75488 0.77935 0.0
C2405 C 0.26224 0.75768 0.85791 0.0
C2406 C 0.27965 0.76118 0.85743 0.0
C2407 C 0.25137 0.76497 0.84603 0.0
C2408 C 0.25773 0.77587 0.83349 0.0
C2409 C 0.27511 0.77942 0.83302 0.0
C2410 C 0.28597 0.77221 0.84495 0.0
C2411 C 0.24612 0.78327 0.82079 0.0
C2412 C 0.23597 0.77224 0.81127 0.0
C2413 C 0.24469 0.80098 0.8183 0.0
C2414 C 0.25462 0.8133 0.82841 0.0
C2415 C 0.26507 0.82517 0.82026 0.0
C2416 C 0.27451 0.83676 0.82975 0.0
C2417 C 0.27351 0.83666 0.84742 0.0
C2418 C 0.26303 0.82501 0.85563 0.0
C2419 C 0.25356 0.8134 0.84619 0.0
H2420 H 0.28083 0.84564 0.85475 0.0
H2421 H 0.18192 0.73549 0.76805 0.0
H2422 H 0.50406 0.00282 0.11678 0.0
H2423 H 0.49043 0.9832 0.09708 0.0
H2424 H 0.44969 0.01884 0.08957 0.0
H2425 H 0.46358 0.03873 0.10874 0.0
H2426 H 0.46205 0.96683 0.09534 0.0
H2427 H 0.43623 0.01718 0.04885 0.0
H2428 H 0.44258 0.04631 0.03948 0.0
H2429 H 0.49488 0.03944 0.05257 0.0
H2430 H 0.48888 0.01023 0.06193 0.0
H2431 H 0.42509 0.91571 0.03687 0.0
H2432 H 0.42353 0.94255 0.05223 0.0
H2433 H 0.46734 0.96064 0.02507 0.0
H2434 H 0.46836 0.93422 0.00918 0.0
H2435 H 0.44939 0.98689 0.03709 0.0
H2436 H 0.47353 0.93444 0.05819 0.0
H2437 H 0.47143 0.90389 0.0644 0.0
H2438 H 0.43075 0.91352 0.09917 0.0
H2439 H 0.43247 0.94414 0.09295 0.0
C2440 C 0.49213 0.00639 0.11105 0.0
C2441 C 0.485 0.02238 0.1141 0.0
C2442 C 0.48432 0.99517 0.09982 0.0
C2443 C 0.46919 -0.00031 0.0916 0.0
C2444 C 0.46155 0.01525 0.09545 0.0
C2445 C 0.46946 0.02655 0.10649 0.0
C2446 C 0.46183 0.98836 0.07855 0.0
C2447 C 0.4591 0.97131 0.08269 0.0
C2448 C 0.45821 0.99409 0.06192 0.0
C2449 C 0.46203 0.01161 0.05631 0.0
C2450 C 0.44908 0.02189 0.04972 0.0
C2451 C 0.45263 0.03841 0.04443 0.0
C2452 C 0.46911 0.04474 0.04556 0.0
C2453 C 0.48211 0.03454 0.05186 0.0
C2454 C 0.47864 0.01802 0.05718 0.0
C2455 C 0.43379 0.92577 0.03352 0.0
C2456 C 0.44734 0.92273 0.02242 0.0
C2457 C 0.43294 0.94108 0.04236 0.0
C2458 C 0.44575 0.95326 0.04027 0.0
C2459 C 0.4575 0.9513 0.02711 0.0
C2460 C 0.45822 0.93612 0.01817 0.0
C2461 C 0.4496 0.96549 0.05395 0.0
C2462 C 0.45182 0.98263 0.04993 0.0
C2463 C 0.45347 0.95974 0.0705 0.0
C2464 C 0.45303 0.94152 0.07502 0.0
C2465 C 0.46416 0.93003 0.06718 0.0
C2466 C 0.46301 0.91271 0.07066 0.0
C2467 C 0.45092 0.90676 0.08212 0.0
C2468 C 0.44007 0.91815 0.09025 0.0
C2469 C 0.44113 0.93548 0.08677 0.0
H2470 H 0.44999 0.89333 0.08474 0.0
H2471 H 0.4718 0.05755 0.0415 0.0
H2472 H 0.32535 0.81411 0.23668 0.0
H2473 H 0.29696 0.81974 0.22474 0.0
H2474 H 0.30708 0.78441 0.18434 0.0
H2475 H 0.33483 0.77845 0.19626 0.0
H2476 H 0.29354 0.81939 0.17526 0.0
H2477 H 0.2854 0.76836 0.21151 0.0
H2478 H 0.28482 0.7538 0.23916 0.0
H2479 H 0.25138 0.7919 0.25881 0.0
H2480 H 0.25185 0.80672 0.23126 0.0
H2481 H 0.23763 0.77041 0.12984 0.0
H2482 H 0.25889 0.78364 0.14793 0.0
H2483 H 0.21945 0.80593 0.17845 0.0
H2484 H 0.19799 0.7927 0.16028 0.0
H2485 H 0.24329 0.78893 0.19746 0.0
H2486 H 0.24348 0.83222 0.15653 0.0
H2487 H 0.24302 0.84488 0.12801 0.0
H2488 H 0.29114 0.8222 0.11684 0.0
H2489 H 0.29179 0.80917 0.14518 0.0
C2490 C 0.32144 0.80765 0.22523 0.0
C2491 C 0.33219 0.7958 0.21741 0.0
C2492 C 0.3053 0.81084 0.21848 0.0
C2493 C 0.30008 0.80253 0.20365 0.0
C2494 C 0.31096 0.79098 0.19576 0.0
C2495 C 0.32676 0.78752 0.20264 0.0
C2496 C 0.28322 0.80519 0.19608 0.0
C2497 C 0.28241 0.81302 0.18017 0.0
C2498 C 0.26866 0.79732 0.2028 0.0
C2499 C 0.26884 0.78874 0.21946 0.0
C2500 C 0.27807 0.77372 0.22179 0.0
C2501 C 0.27767 0.76536 0.23739 0.0
C2502 C 0.26802 0.77189 0.25071 0.0
C2503 C 0.25882 0.78684 0.24847 0.0
C2504 C 0.25914 0.79521 0.23288 0.0
C2505 C 0.23347 0.77834 0.14024 0.0
C2506 C 0.21619 0.78053 0.14365 0.0
C2507 C 0.24562 0.78598 0.15051 0.0
C2508 C 0.24073 0.79593 0.16442 0.0
C2509 C 0.22346 0.79841 0.16771 0.0
C2510 C 0.21126 0.79088 0.1573 0.0
C2511 C 0.25387 0.80233 0.17615 0.0
C2512 C 0.25403 0.79614 0.19281 0.0
C2513 C 0.26784 0.81177 0.1701 0.0
C2514 C 0.26767 0.8197 0.15303 0.0
C2515 C 0.25393 0.82986 0.14797 0.0
C2516 C 0.25364 0.83711 0.13183 0.0
C2517 C 0.26705 0.83435 0.12062 0.0
C2518 C 0.28078 0.82435 0.12555 0.0
C2519 C 0.28113 0.81706 0.14168 0.0
H2520 H 0.26679 0.83997 0.10812 0.0
H2521 H 0.26774 0.76541 0.26279 0.0
H2522 H 0.50354 0.98637 0.39348 0.0
H2523 H 0.48913 0.00632 0.41232 0.0
H2524 H 0.44915 0.97009 0.42051 0.0
H2525 H 0.46391 0.94968 0.40235 0.0
H2526 H 0.44792 0.01501 0.41021 0.0
H2527 H 0.45749 0.96742 0.45007 0.0
H2528 H 0.47562 0.9449 0.46187 0.0
H2529 H 0.51347 0.98176 0.47466 0.0
H2530 H 0.49594 0.00436 0.46219 0.0
H2531 H 0.42754 0.07952 0.46868 0.0
H2532 H 0.42549 0.05037 0.45813 0.0
H2533 H 0.4792 0.04388 0.46602 0.0
H2534 H 0.48118 0.07242 0.47707 0.0
H2535 H 0.46458 0.01516 0.4708 0.0
H2536 H 0.46153 0.05982 0.42771 0.0
H2537 H 0.44816 0.08455 0.41407 0.0
H2538 H 0.40241 0.05607 0.40672 0.0
H2539 H 0.41549 0.03123 0.42051 0.0
C2540 C 0.49167 0.98266 0.39923 0.0
C2541 C 0.48497 0.9664 0.39666 0.0
C2542 C 0.48348 0.99404 0.40999 0.0
C2543 C 0.46833 0.98945 0.41804 0.0
C2544 C 0.46105 0.97364 0.4147 0.0
C2545 C 0.46944 0.96209 0.40426 0.0
C2546 C 0.4605 0.00132 0.43012 0.0
C2547 C 0.45105 0.01483 0.4236 0.0
C2548 C 0.46496 0.00114 0.44744 0.0
C2549 C 0.47555 0.98751 0.45482 0.0
C2550 C 0.46985 0.97066 0.45503 0.0
C2551 C 0.48001 0.95788 0.46188 0.0
C2552 C 0.49578 0.96187 0.46885 0.0
C2553 C 0.50135 0.97865 0.4691 0.0
C2554 C 0.49134 0.99143 0.46206 0.0
C2555 C 0.43878 0.07167 0.46861 0.0
C2556 C 0.4546 0.0784 0.47326 0.0
C2557 C 0.43761 0.05506 0.46251 0.0
C2558 C 0.45227 0.04508 0.46087 0.0
C2559 C 0.46772 0.05132 0.46704 0.0
C2560 C 0.46887 0.06776 0.47321 0.0
C2561 C 0.45242 0.02922 0.45082 0.0
C2562 C 0.46061 0.015 0.45764 0.0
C2563 C 0.44719 0.02893 0.43365 0.0
C2564 C 0.43938 0.04379 0.42531 0.0
C2565 C 0.44859 0.05889 0.42326 0.0
C2566 C 0.44107 0.07291 0.4155 0.0
C2567 C 0.42442 0.0719 0.40958 0.0
C2568 C 0.41528 0.05685 0.41136 0.0
C2569 C 0.42273 0.0428 0.41914 0.0
H2570 H 0.41863 0.08277 0.40358 0.0
H2571 H 0.50366 0.95197 0.47406 0.0
H2572 H 0.16906 0.17172 0.72222 0.0
H2573 H 0.19825 0.16683 0.71285 0.0
H2574 H 0.20897 0.2201 0.71875 0.0
H2575 H 0.18018 0.22501 0.72822 0.0
H2576 H 0.21022 0.17957 0.6845 0.0
H2577 H 0.24706 0.22876 0.72578 0.0
H2578 H 0.24955 0.23647 0.75595 0.0
H2579 H 0.23387 0.18643 0.77029 0.0
H2580 H 0.23106 0.17849 0.74023 0.0
H2581 H 0.26296 0.23314 0.64003 0.0
H2582 H 0.24282 0.21812 0.65797 0.0
H2583 H 0.28407 0.19418 0.68464 0.0
H2584 H 0.30437 0.20935 0.66677 0.0
H2585 H 0.26202 0.20771 0.70624 0.0
H2586 H 0.25853 0.16983 0.66053 0.0
H2587 H 0.25668 0.16057 0.63078 0.0
H2588 H 0.20775 0.18383 0.62626 0.0
H2589 H 0.2094 0.19346 0.65591 0.0
C2590 C 0.17779 0.18229 0.72194 0.0
C2591 C 0.17225 0.1988 0.72569 0.0
C2592 C 0.19445 0.17947 0.7166 0.0
C2593 C 0.20583 0.19306 0.71519 0.0
C2594 C 0.20056 0.20933 0.72001 0.0
C2595 C 0.18397 0.21217 0.72521 0.0
C2596 C 0.22214 0.19118 0.70614 0.0
C2597 C 0.22168 0.18538 0.68935 0.0
C2598 C 0.23726 0.19824 0.71263 0.0
C2599 C 0.23886 0.20303 0.73074 0.0
C2600 C 0.24419 0.21939 0.73537 0.0
C2601 C 0.24556 0.22383 0.75245 0.0
C2602 C 0.24181 0.21197 0.76503 0.0
C2603 C 0.23665 0.19565 0.76054 0.0
C2604 C 0.23507 0.1912 0.74348 0.0
C2605 C 0.26775 0.22451 0.64955 0.0
C2606 C 0.28521 0.22245 0.65204 0.0
C2607 C 0.25623 0.21584 0.65973 0.0
C2608 C 0.26196 0.20487 0.6725 0.0
C2609 C 0.27941 0.20251 0.67479 0.0
C2610 C 0.29096 0.21118 0.66457 0.0
C2611 C 0.24959 0.19723 0.68431 0.0
C2612 C 0.25081 0.20128 0.70157 0.0
C2613 C 0.2353 0.18825 0.67833 0.0
C2614 C 0.23411 0.18238 0.66048 0.0
C2615 C 0.24741 0.17304 0.65318 0.0
C2616 C 0.24639 0.16772 0.63633 0.0
C2617 C 0.23211 0.17161 0.62664 0.0
C2618 C 0.2188 0.1808 0.63379 0.0
C2619 C 0.21975 0.18617 0.65064 0.0
H2620 H 0.23135 0.16748 0.61359 0.0
H2621 H 0.2429 0.21542 0.77825 0.0
H2622 H 0.01558 0.93089 0.97049 0.0
H2623 H 0.01773 0.95767 0.95534 0.0
H2624 H 0.07045 0.94787 0.945 0.0
H2625 H 0.0684 0.92086 0.96009 0.0
H2626 H 0.03711 0.98683 0.95632 0.0
H2627 H 0.07674 0.95794 0.90489 0.0
H2628 H 0.08506 0.92985 0.8939 0.0
H2629 H 0.03623 0.90991 0.90716 0.0
H2630 H 0.02766 0.9379 0.91818 0.0
H2631 H 0.03365 0.05047 0.89322 0.0
H2632 H 0.04724 0.02884 0.91071 0.0
H2633 H 0.01463 0.9908 0.88889 0.0
H2634 H 0.00139 0.01225 0.87101 0.0
H2635 H 0.04511 0.97784 0.89462 0.0
H2636 H 0.0045 0.01238 0.92722 0.0
H2637 H 0.99394 0.03895 0.93978 0.0
H2638 H 0.04151 0.04657 0.96483 0.0
H2639 H 0.05241 0.02001 0.95245 0.0
C2640 C 0.02774 0.93456 0.96532 0.0
C2641 C 0.04174 0.92362 0.96625 0.0
C2642 C 0.02897 0.94993 0.95674 0.0
C2643 C 0.04418 0.9546 0.94885 0.0
C2644 C 0.05856 0.94437 0.95088 0.0
C2645 C 0.05736 0.92898 0.95956 0.0
C2646 C 0.04412 0.96904 0.93692 0.0
C2647 C 0.03919 0.985 0.94286 0.0
C2648 C 0.04678 0.9666 0.91938 0.0
C2649 C 0.05162 0.94992 0.91238 0.0
C2650 C 0.06778 0.94756 0.90536 0.0
C2651 C 0.07254 0.93166 0.89917 0.0
C2652 C 0.06119 0.9181 0.89985 0.0
C2653 C 0.04502 0.92041 0.90667 0.0
C2654 C 0.04021 0.93627 0.9129 0.0
C2655 C 0.02961 0.03743 0.89191 0.0
C2656 C 0.01625 0.03308 0.88096 0.0
C2657 C 0.03735 0.0251 0.90197 0.0
C2658 C 0.0317 0.00827 0.90139 0.0
C2659 C 0.01916 0.00373 0.8896 0.0
C2660 C 0.01155 0.01601 0.87942 0.0
C2661 C 0.0376 0.99561 0.91395 0.0
C2662 C 0.04363 0.97994 0.90812 0.0
C2663 C 0.03581 0.9983 0.93161 0.0
C2664 C 0.02933 0.01436 0.93876 0.0
C2665 C 0.01274 0.0198 0.9353 0.0
C2666 C 0.00668 0.03482 0.94241 0.0
C2667 C 0.01704 0.04449 0.953 0.0
C2668 C 0.0335 0.03911 0.95658 0.0
C2669 C 0.03963 0.02406 0.94956 0.0
H2670 H 0.01228 0.05612 0.95848 0.0
H2671 H 0.06491 0.9058 0.89508 0.0
H2672 H 0.25994 0.3084 0.18793 0.0
H2673 H 0.27401 0.28071 0.1877 0.0
H2674 H 0.32038 0.30448 0.17141 0.0
H2675 H 0.30619 0.33206 0.17125 0.0
H2676 H 0.31767 0.26911 0.16198 0.0
H2677 H 0.31185 0.30678 0.21059 0.0
H2678 H 0.29569 0.32372 0.23124 0.0
H2679 H 0.26897 0.27917 0.24727 0.0
H2680 H 0.28462 0.26206 0.22632 0.0
H2681 H 0.36789 0.23196 0.23879 0.0
H2682 H 0.35321 0.25406 0.22295 0.0
H2683 H 0.32786 0.21606 0.19297 0.0
H2684 H 0.34265 0.1938 0.20872 0.0
H2685 H 0.31921 0.25724 0.22369 0.0
H2686 H 0.31756 0.23569 0.15394 0.0
H2687 H 0.33503 0.21935 0.13383 0.0
H2688 H 0.37986 0.23257 0.16161 0.0
H2689 H 0.36271 0.24917 0.18173 0.0
C2690 C 0.27287 0.30749 0.18344 0.0
C2691 C 0.2821 0.32216 0.1797 0.0
C2692 C 0.28088 0.29174 0.18333 0.0
C2693 C 0.2983 0.29069 0.17995 0.0
C2694 C 0.30694 0.30506 0.17406 0.0
C2695 C 0.29885 0.3208 0.17398 0.0
C2696 C 0.30814 0.27621 0.18652 0.0
C2697 C 0.31791 0.26635 0.17543 0.0
C2698 C 0.30866 0.27288 0.20414 0.0
C2699 C 0.2992 0.2832 0.21669 0.0
C2700 C 0.30237 0.30064 0.21836 0.0
C2701 C 0.29331 0.31027 0.23013 0.0
C2702 C 0.28126 0.30254 0.24051 0.0
C2703 C 0.27829 0.28515 0.2392 0.0
C2704 C 0.28719 0.27549 0.22732 0.0
C2705 C 0.3594 0.2283 0.22866 0.0
C2706 C 0.35627 0.21118 0.2251 0.0
C2707 C 0.35103 0.24093 0.21962 0.0
C2708 C 0.33945 0.23667 0.20683 0.0
C2709 C 0.33687 0.21959 0.2027 0.0
C2710 C 0.34526 0.20692 0.21175 0.0
C2711 C 0.32884 0.25006 0.19921 0.0
C2712 C 0.31885 0.25976 0.21019 0.0
C2713 C 0.32831 0.25326 0.18158 0.0
C2714 C 0.33881 0.24351 0.16944 0.0
C2715 C 0.33115 0.23515 0.15572 0.0
C2716 C 0.341 0.22584 0.14432 0.0
C2717 C 0.35853 0.22487 0.14648 0.0
C2718 C 0.36627 0.23327 0.16 0.0
C2719 C 0.35649 0.2426 0.17142 0.0
H2720 H 0.36613 0.21765 0.13765 0.0
H2721 H 0.27425 0.31002 0.24961 0.0
H2722 H 0.77807 0.17029 0.81605 0.0
H2723 H 0.78991 0.19816 0.82294 0.0
H2724 H 0.78546 0.21289 0.77051 0.0
H2725 H 0.77354 0.18545 0.76362 0.0
H2726 H 0.81926 0.20907 0.81127 0.0
H2727 H 0.78146 0.25211 0.76458 0.0
H2728 H 0.75171 0.25676 0.75628 0.0
H2729 H 0.73504 0.23807 0.80452 0.0
H2730 H 0.76465 0.23308 0.81303 0.0
H2731 H 0.86697 0.26443 0.76265 0.0
H2732 H 0.84814 0.24376 0.77582 0.0
H2733 H 0.82385 0.28365 0.80417 0.0
H2734 H 0.84272 0.30446 0.79101 0.0
H2735 H 0.80111 0.26428 0.78742 0.0
H2736 H 0.84555 0.25486 0.82582 0.0
H2737 H 0.87492 0.25055 0.83548 0.0
H2738 H 0.87743 0.20379 0.80785 0.0
H2739 H 0.84817 0.20794 0.79779 0.0
C2740 C 0.77921 0.17964 0.8061 0.0
C2741 C 0.77508 0.17557 0.78925 0.0
C2742 C 0.78599 0.19555 0.81006 0.0
C2743 C 0.78848 0.20766 0.79728 0.0
C2744 C 0.78339 0.20391 0.78067 0.0
C2745 C 0.77676 0.18808 0.7767 0.0
C2746 C 0.79858 0.22317 0.8004 0.0
C2747 C 0.8152 0.22125 0.80639 0.0
C2748 C 0.79314 0.23918 0.79451 0.0
C2749 C 0.77529 0.24222 0.78944 0.0
C2750 C 0.77145 0.24904 0.77344 0.0
C2751 C 0.7546 0.25164 0.76866 0.0
C2752 C 0.74148 0.24763 0.77983 0.0
C2753 C 0.74519 0.24102 0.79581 0.0
C2754 C 0.762 0.23823 0.80059 0.0
C2755 C 0.85783 0.26876 0.77191 0.0
C2756 C 0.85627 0.28603 0.77576 0.0
C2757 C 0.84713 0.25694 0.7795 0.0
C2758 C 0.83468 0.26218 0.79107 0.0
C2759 C 0.83342 0.27937 0.79533 0.0
C2760 C 0.84423 0.2912 0.78783 0.0
C2761 C 0.82205 0.24979 0.79723 0.0
C2762 C 0.80499 0.2523 0.79292 0.0
C2763 C 0.82703 0.23443 0.80495 0.0
C2764 C 0.84464 0.23174 0.81102 0.0
C2765 C 0.85239 0.2437 0.82172 0.0
C2766 C 0.86902 0.24128 0.82727 0.0
C2767 C 0.87804 0.22691 0.82228 0.0
C2768 C 0.87043 0.21491 0.81173 0.0
C2769 C 0.8538 0.21727 0.80612 0.0
H2770 H 0.89091 0.22506 0.82658 0.0
H2771 H 0.72845 0.24966 0.77611 0.0
H2772 H 0.98942 0.5941 0.98654 0.0
H2773 H 0.00722 0.57278 9e-05 0.0
H2774 H 0.96692 0.56113 0.0351 0.0
H2775 H 0.94909 0.5826 0.02165 0.0
H2776 H 0.9944 0.5653 0.05197 0.0
H2777 H 0.982 0.52533 0.00822 0.0
H2778 H 0.97664 0.51441 0.97941 0.0
H2779 H 0.02438 0.53433 0.96271 0.0
H2780 H 0.03026 0.54482 0.9916 0.0
H2781 H 0.07326 0.50188 0.04624 0.0
H2782 H 0.04291 0.5072 0.04298 0.0
H2783 H 0.05018 0.55815 0.06161 0.0
H2784 H 0.08018 0.55231 0.06592 0.0
H2785 H 0.03215 0.5259 0.02097 0.0
H2786 H 0.01562 0.57875 0.07115 0.0
H2787 H 0.01837 0.58311 0.10193 0.0
H2788 H 0.02293 0.52947 0.10944 0.0
H2789 H 0.01996 0.52473 0.07874 0.0
C2790 C 0.98429 0.58687 0.997 0.0
C2791 C 0.96793 0.59014 0.00312 0.0
C2792 C 0.99439 0.57452 0.00463 0.0
C2793 C 0.98835 0.56513 0.0185 0.0
C2794 C 0.97185 0.56814 0.02439 0.0
C2795 C 0.9617 0.58044 0.0167 0.0
C2796 C 2e-05 0.55374 0.02789 0.0
C2797 C 0.00256 0.5565 0.04529 0.0
C2798 C 0.0101 0.54163 0.01946 0.0
C2799 C 0.00641 0.5361 0.00194 0.0
C2800 C 0.99126 0.52752 0.99834 0.0
C2801 C 0.98819 0.5213 0.98205 0.0
C2802 C 3e-05 0.52393 0.96918 0.0
C2803 C 0.01514 0.53245 0.97266 0.0
C2804 C 0.01842 0.5384 0.98902 0.0
C2805 C 0.0681 0.51388 0.05047 0.0
C2806 C 0.07886 0.52668 0.05644 0.0
C2807 C 0.05081 0.51699 0.04846 0.0
C2808 C 0.04413 0.53314 0.0519 0.0
C2809 C 0.05477 0.54547 0.05918 0.0
C2810 C 0.07199 0.54217 0.06163 0.0
C2811 C 0.02732 0.53815 0.04497 0.0
C2812 C 0.0238 0.53426 0.02796 0.0
C2813 C 0.0159 0.54859 0.05405 0.0
C2814 C 0.01764 0.55139 0.07258 0.0
C2815 C 0.0171 0.56786 0.07936 0.0
C2816 C 0.01873 0.5704 0.09681 0.0
C2817 C 0.02086 0.55658 0.10763 0.0
C2818 C 0.02134 0.54017 0.10104 0.0
C2819 C 0.01971 0.53755 0.0836 0.0
H2820 H 0.02211 0.55858 0.12113 0.0
H2821 H 0.99757 0.51919 0.95655 0.0
H2822 H 0.63961 0.74287 0.2405 0.0
H2823 H 0.66137 0.76081 0.25324 0.0
H2824 H 0.66802 0.72467 0.29358 0.0
H2825 H 0.64645 0.70634 0.28071 0.0
H2826 H 0.66445 0.76574 0.29975 0.0
H2827 H 0.69584 0.72013 0.27144 0.0
H2828 H 0.6991 0.70185 0.2463 0.0
H2829 H 0.70751 0.74562 0.2152 0.0
H2830 H 0.7039 0.76418 0.24004 0.0
H2831 H 0.72795 0.82631 0.31551 0.0
H2832 H 0.71656 0.79745 0.31566 0.0
H2833 H 0.71426 0.7982 0.26103 0.0
H2834 H 0.72636 0.82627 0.26073 0.0
H2835 H 0.71948 0.76822 0.26951 0.0
H2836 H 0.68053 0.81197 0.28815 0.0
H2837 H 0.67037 0.83482 0.30687 0.0
H2838 H 0.67068 0.80065 0.34916 0.0
H2839 H 0.68111 0.77765 0.3307 0.0
C2840 C 0.64557 0.73879 0.25215 0.0
C2841 C 0.64146 0.72317 0.25955 0.0
C2842 C 0.65796 0.74904 0.2594 0.0
C2843 C 0.66626 0.74392 0.27422 0.0
C2844 C 0.6617 0.72872 0.2821 0.0
C2845 C 0.64945 0.71831 0.27472 0.0
C2846 C 0.68026 0.75429 0.28079 0.0
C2847 C 0.67674 0.76601 0.2936 0.0
C2848 C 0.69596 0.75483 0.27224 0.0
C2849 C 0.69949 0.74355 0.25761 0.0
C2850 C 0.69836 0.72585 0.25924 0.0
C2851 C 0.70023 0.71545 0.24503 0.0
C2852 C 0.70339 0.7226 0.22916 0.0
C2853 C 0.705 0.74012 0.2275 0.0
C2854 C 0.70306 0.75058 0.24164 0.0
C2855 C 0.72537 0.82013 0.30354 0.0
C2856 C 0.72759 0.82879 0.28812 0.0
C2857 C 0.71884 0.80366 0.30365 0.0
C2858 C 0.7141 0.79582 0.28839 0.0
C2859 C 0.7177 0.80394 0.27301 0.0
C2860 C 0.72447 0.82017 0.27287 0.0
C2861 C 0.70348 0.78032 0.28806 0.0
C2862 C 0.7076 0.76755 0.27637 0.0
C2863 C 0.68791 0.77938 0.29697 0.0
C2864 C 0.68184 0.79319 0.30813 0.0
C2865 C 0.67856 0.80938 0.30147 0.0
C2866 C 0.67274 0.82235 0.31203 0.0
C2867 C 0.66991 0.8192 0.32921 0.0
C2868 C 0.67292 0.80308 0.33586 0.0
C2869 C 0.67881 0.79008 0.32537 0.0
H2870 H 0.66535 0.82924 0.33734 0.0
H2871 H 0.70449 0.71461 0.21811 0.0
H2872 H 0.00535 0.88251 0.999 0.0
H2873 H 0.9854 0.89616 0.01825 0.0
H2874 H 0.02348 0.89674 0.0575 0.0
H2875 H 0.04377 0.88396 0.03788 0.0
H2876 H 0.97057 0.89075 0.04618 0.0
H2877 H 0.01915 0.93185 0.08165 0.0
H2878 H 0.04782 0.94371 0.07772 0.0
H2879 H 0.04074 0.94362 0.0238 0.0
H2880 H 0.01199 0.93194 0.02743 0.0
H2881 H 0.91353 0.9451 0.08284 0.0
H2882 H 0.93943 0.92842 0.08699 0.0
H2883 H 0.96548 0.96028 0.0511 0.0
H2884 H 0.93991 0.97693 0.04716 0.0
H2885 H 0.98792 0.94629 0.06992 0.0
H2886 H 0.9383 0.92703 0.0378 0.0
H2887 H 0.90814 0.91905 0.03579 0.0
H2888 H 0.91567 0.88033 0.07322 0.0
H2889 H 0.94585 0.88828 0.07559 0.0
C2890 C 0.0094 0.8854 0.01178 0.0
C2891 C 0.02614 0.88245 0.01688 0.0
C2892 C 0.99797 0.89314 0.02283 0.0
C2893 C 0.00299 0.89778 0.03929 0.0
C2894 C 0.0194 0.89369 0.04477 0.0
C2895 C 0.03096 0.88633 0.03357 0.0
C2896 C 0.99137 0.90801 0.05002 0.0
C2897 C 0.97447 0.90275 0.05163 0.0
C2898 C 0.99634 0.92373 0.05714 0.0
C2899 C 0.01357 0.93079 0.05482 0.0
C2900 C 0.02374 0.93437 0.06897 0.0
C2901 C 0.03998 0.94107 0.06679 0.0
C2902 C 0.04613 0.94434 0.05052 0.0
C2903 C 0.03601 0.941 0.03639 0.0
C2904 C 0.01974 0.93434 0.0385 0.0
C2905 C 0.92507 0.94904 0.07657 0.0
C2906 C 0.92475 0.96198 0.06439 0.0
C2907 C 0.93983 0.93945 0.07884 0.0
C2908 C 0.95418 0.94269 0.06878 0.0
C2909 C 0.95451 0.95733 0.05874 0.0
C2910 C 0.93987 0.96684 0.05646 0.0
C2911 C 0.96703 0.92938 0.06532 0.0
C2912 C 0.98421 0.93394 0.06515 0.0
C2913 C 0.96218 0.91342 0.05868 0.0
C2914 C 0.94421 0.90834 0.057 0.0
C2915 C 0.93349 0.91683 0.0456 0.0
C2916 C 0.9164 0.91234 0.04442 0.0
C2917 C 0.90998 0.89921 0.0544 0.0
C2918 C 0.92065 0.89051 0.06553 0.0
C2919 C 0.93774 0.89501 0.06682 0.0
H2920 H 0.89675 0.89576 0.05349 0.0
H2921 H 0.05871 0.94951 0.04886 0.0
H2922 H 0.24006 0.68729 0.68973 0.0
H2923 H 0.22777 0.71587 0.68903 0.0
H2924 H 0.17762 0.69399 0.68879 0.0
H2925 H 0.18995 0.66566 0.68867 0.0
H2926 H 0.17664 0.72209 0.67229 0.0
H2927 H 0.20151 0.70372 0.72588 0.0
H2928 H 0.22492 0.69512 0.7447 0.0
H2929 H 0.25027 0.74227 0.73524 0.0
H2930 H 0.22717 0.751 0.71605 0.0
H2931 H 0.12645 0.76678 0.73261 0.0
H2932 H 0.14476 0.74626 0.71812 0.0
H2933 H 0.17968 0.78621 0.70528 0.0
H2934 H 0.16121 0.80687 0.71924 0.0
H2935 H 0.19252 0.75433 0.72386 0.0
H2936 H 0.16369 0.77413 0.6743 0.0
H2937 H 0.13863 0.78219 0.65753 0.0
H2938 H 0.11911 0.73163 0.66185 0.0
H2939 H 0.14395 0.72333 0.67888 0.0
C2940 C 0.22645 0.68873 0.68874 0.0
C2941 C 0.21585 0.67449 0.68907 0.0
C2942 C 0.21943 0.70499 0.68854 0.0
C2943 C 0.20177 0.70707 0.68929 0.0
C2944 C 0.19128 0.69274 0.68823 0.0
C2945 C 0.19829 0.67655 0.68812 0.0
C2946 C 0.19401 0.7237 0.69331 0.0
C2947 C 0.1802 0.72917 0.68352 0.0
C2948 C 0.19884 0.73319 0.70781 0.0
C2949 C 0.21276 0.72788 0.71929 0.0
C2950 C 0.21217 0.71217 0.72767 0.0
C2951 C 0.22538 0.70728 0.7384 0.0
C2952 C 0.23913 0.7181 0.74108 0.0
C2953 C 0.23967 0.73386 0.73306 0.0
C2954 C 0.22654 0.73877 0.72223 0.0
C2955 C 0.13789 0.77119 0.72645 0.0
C2956 C 0.14238 0.78837 0.7269 0.0
C2957 C 0.1483 0.75952 0.71822 0.0
C2958 C 0.16346 0.76483 0.71063 0.0
C2959 C 0.16795 0.78197 0.71099 0.0
C2960 C 0.15736 0.79371 0.71888 0.0
C2961 C 0.17495 0.75218 0.70315 0.0
C2962 C 0.18937 0.7475 0.71235 0.0
C2963 C 0.17054 0.74326 0.68832 0.0
C2964 C 0.15563 0.74815 0.67798 0.0
C2965 C 0.15399 0.76477 0.6718 0.0
C2966 C 0.13984 0.76937 0.66222 0.0
C2967 C 0.12727 0.75744 0.65865 0.0
C2968 C 0.12885 0.74086 0.66463 0.0
C2969 C 0.14298 0.7362 0.67423 0.0
H2970 H 0.11632 0.76103 0.65123 0.0
H2971 H 0.2493 0.71432 0.74946 0.0
H2972 H 0.94385 0.40367 0.46956 0.0
H2973 H 0.96531 0.42156 0.45625 0.0
H2974 H 0.00459 0.39365 0.48195 0.0
H2975 H 0.98317 0.37582 0.49552 0.0
H2976 H 0.9871 0.44175 0.4753 0.0
H2977 H 0.03936 0.39354 0.45601 0.0
H2978 H 0.04126 0.36481 0.44393 0.0
H2979 H 0.99247 0.371 0.42075 0.0
H2980 H 0.99037 0.39985 0.43248 0.0
H2981 H 0.07016 0.46976 0.48579 0.0
H2982 H 0.04245 0.45653 0.48462 0.0
H2983 H 0.04611 0.45306 0.43021 0.0
H2984 H 0.07427 0.46602 0.43128 0.0
H2985 H 0.03796 0.42351 0.44328 0.0
H2986 H 0.01711 0.47961 0.44976 0.0
H2987 H 0.01495 0.50825 0.462 0.0
H2988 H -0.00018 0.48706 0.50972 0.0
H2989 H 0.00224 0.4583 0.49792 0.0
C2990 C 0.95707 0.40109 0.4721 0.0
C2991 C 0.96187 0.38842 0.48366 0.0
C2992 C 0.96929 0.41136 0.46452 0.0
C2993 C 0.98648 0.40889 0.46812 0.0
C2994 C 0.99136 0.39563 0.4789 0.0
C2995 C 0.97914 0.38549 0.48667 0.0
C2996 C -0.00075 0.4212 0.46217 0.0
C2997 C 0.99816 0.43789 0.46812 0.0
C2998 C 0.01341 0.41613 0.45251 0.0
C2999 C 0.01468 0.39885 0.44522 0.0
C3000 C 0.02908 0.38882 0.44825 0.0
C3001 C 0.03018 0.3725 0.44148 0.0
C3002 C 0.01698 0.36607 0.43161 0.0
C3003 C 0.00266 0.37597 0.42845 0.0
C3004 C 0.0015 0.3923 0.43518 0.0
C3005 C 0.06504 0.46643 0.47351 0.0
C3006 C 0.07456 0.46879 0.45864 0.0
C3007 C 0.04907 0.45899 0.47286 0.0
C3008 C 0.04212 0.45394 0.45731 0.0
C3009 C 0.05123 0.45691 0.44234 0.0
C3010 C 0.06731 0.46435 0.44298 0.0
C3011 C 0.02624 0.44394 0.45711 0.0
C3012 C 0.02674 0.42761 0.45007 0.0
C3013 C 0.0115 0.44938 0.46577 0.0
C3014 C 0.00994 0.46674 0.47293 0.0
C3015 C 0.01345 0.48104 0.4629 0.0
C3016 C 0.01218 0.49731 0.46978 0.0
C3017 C 0.00731 0.49948 0.48665 0.0
C3018 C 0.00364 0.48538 0.49667 0.0
C3019 C 0.00494 0.46908 0.48988 0.0
H3020 H 0.00634 0.51208 0.49194 0.0
H3021 H 0.01785 0.35343 0.42639 0.0
H3022 H 0.41662 0.55141 0.93138 0.0
H3023 H 0.44546 0.56221 0.92967 0.0
H3024 H 0.46483 0.51149 0.93639 0.0
H3025 H 0.43578 0.5009 0.93898 0.0
H3026 H 0.47541 0.52909 0.96011 0.0
H3027 H 0.47741 0.53797 0.90172 0.0
H3028 H 0.4682 0.54606 0.87303 0.0
H3029 H 0.4646 0.59805 0.88852 0.0
H3030 H 0.47353 0.59027 0.91738 0.0
H3031 H 0.54975 0.59339 0.9633 0.0
H3032 H 0.53212 0.57406 0.94657 0.0
H3033 H 0.491 0.58118 0.98178 0.0
H3034 H 0.50839 0.60071 0.99837 0.0
H3035 H 0.49967 0.57915 0.93101 0.0
H3036 H 0.47545 0.54161 0.98982 0.0
H3037 H 0.48619 0.53001 0.01672 0.0
H3038 H 0.53699 0.53141 0.99743 0.0
H3039 H 0.52655 0.54285 0.9703 0.0
C3040 C 0.42707 0.54252 0.93167 0.0
C3041 C 0.42417 0.52541 0.93527 0.0
C3042 C 0.4436 0.54865 0.93059 0.0
C3043 C 0.45743 0.53769 0.93294 0.0
C3044 C 0.4544 0.52021 0.93459 0.0
C3045 C 0.43784 0.51413 0.936 0.0
C3046 C 0.4741 0.5449 0.93785 0.0
C3047 C 0.48085 0.53983 0.9535 0.0
C3048 C 0.4816 0.55866 0.92913 0.0
C3049 C 0.47613 0.5635 0.91178 0.0
C3050 C 0.47454 0.55112 0.89906 0.0
C3051 C 0.46939 0.55566 0.88275 0.0
C3052 C 0.46581 0.57256 0.87895 0.0
C3053 C 0.4674 0.58496 0.89147 0.0
C3054 C 0.47255 0.5805 0.90781 0.0
C3055 C 0.5369 0.59093 0.96739 0.0
C3056 C 0.53043 0.5985 0.98217 0.0
C3057 C 0.52688 0.57991 0.95781 0.0
C3058 C 0.51039 0.57609 0.96308 0.0
C3059 C 0.5038 0.58388 0.97764 0.0
C3060 C 0.5137 0.59508 0.98706 0.0
C3061 C 0.49986 0.5639 0.95358 0.0
C3062 C 0.49439 0.56809 0.93721 0.0
C3063 C 0.49369 0.54909 0.96143 0.0
C3064 C 0.5002 0.54314 0.97803 0.0
C3065 C 0.48892 0.53947 0.99131 0.0
C3066 C 0.49495 0.5329 0.00658 0.0
C3067 C 0.51223 0.52987 0.0087 0.0
C3068 C 0.52359 0.53371 0.99571 0.0
C3069 C 0.51763 0.54031 0.9804 0.0
H3070 H 0.51679 0.52443 0.02039 0.0
H3071 H 0.46182 0.57604 0.86631 0.0
H3072 H 0.66695 0.78832 0.83688 0.0
H3073 H 0.66216 0.80237 0.80964 0.0
H3074 H 0.70481 0.77544 0.78849 0.0
H3075 H 0.70892 0.76089 0.81528 0.0
H3076 H 0.68368 0.82382 0.79986 0.0
H3077 H 0.70768 0.77628 0.74758 0.0
H3078 H 0.70183 0.74701 0.73854 0.0
H3079 H 0.65321 0.74889 0.76277 0.0
H3080 H 0.65862 0.77828 0.77175 0.0
H3081 H 0.74375 0.85877 0.74643 0.0
H3082 H 0.72634 0.84199 0.76571 0.0
H3083 H 0.69017 0.83316 0.72569 0.0
H3084 H 0.70777 0.84961 0.70623 0.0
H3085 H 0.69619 0.80484 0.74134 0.0
H3086 H 0.68013 0.85942 0.75878 0.0
H3087 H 0.68349 0.88928 0.76724 0.0
H3088 H 0.71104 0.87396 0.81153 0.0
H3089 H 0.70812 0.84403 0.8032 0.0
C3090 C 0.67474 0.78484 0.82614 0.0
C3091 C 0.68864 0.77395 0.8282 0.0
C3092 C 0.67207 0.79293 0.81061 0.0
C3093 C 0.68324 0.79017 0.79701 0.0
C3094 C 0.69587 0.77775 0.79862 0.0
C3095 C 0.69843 0.76961 0.81405 0.0
C3096 C 0.68431 0.80247 0.78283 0.0
C3097 C 0.68609 0.81967 0.78699 0.0
C3098 C 0.68696 0.79723 0.76589 0.0
C3099 C 0.68359 0.77954 0.76039 0.0
C3100 C 0.69568 0.77053 0.75088 0.0
C3101 C 0.69245 0.75388 0.74579 0.0
C3102 C 0.67717 0.74609 0.75009 0.0
C3103 C 0.66506 0.75493 0.75948 0.0
C3104 C 0.66822 0.77158 0.7646 0.0
C3105 C 0.73203 0.85338 0.74179 0.0
C3106 C 0.72712 0.8555 0.72486 0.0
C3107 C 0.72202 0.84387 0.75283 0.0
C3108 C 0.7068 0.83652 0.7472 0.0
C3109 C 0.70182 0.83876 0.73031 0.0
C3110 C 0.71188 0.84817 0.71924 0.0
C3111 C 0.69672 0.82577 0.75882 0.0
C3112 C 0.69326 0.80898 0.7541 0.0
C3113 C 0.69213 0.83143 0.77517 0.0
C3114 C 0.69393 0.84945 0.78031 0.0
C3115 C 0.687 0.86242 0.77027 0.0
C3116 C 0.68882 0.87936 0.77505 0.0
C3117 C 0.69748 0.88352 0.78991 0.0
C3118 C 0.70433 0.87073 0.80003 0.0
C3119 C 0.70257 0.85376 0.79529 0.0
H3120 H 0.69888 0.89664 0.79359 0.0
H3121 H 0.6747 0.7332 0.74614 0.0
H3122 H 0.49718 0.44655 0.06151 0.0
H3123 H 0.48557 0.44562 0.03271 0.0
H3124 H 0.43676 0.43168 0.05313 0.0
H3125 H 0.44881 0.43112 0.08154 0.0
H3126 H 0.43757 0.42067 0.02319 0.0
H3127 H 0.45272 0.47559 0.04851 0.0
H3128 H 0.47324 0.49611 0.06018 0.0
H3129 H 0.50147 0.49459 0.01374 0.0
H3130 H 0.48125 0.47397 0.0019 0.0
H3131 H 0.38367 0.48827 0.9881 0.0
H3132 H 0.40389 0.47382 0.0067 0.0
H3133 H 0.42932 0.45296 0.96314 0.0
H3134 H 0.40882 0.46692 0.94445 0.0
H3135 H 0.44463 0.47812 0.99876 0.0
H3136 H 0.42595 0.4235 0.97335 0.0
H3137 H 0.40309 0.40463 0.96345 0.0
H3138 H 0.379 0.40794 0.01209 0.0
H3139 H 0.40163 0.42703 0.02216 0.0
C3140 C 0.48421 0.44249 0.05964 0.0
C3141 C 0.47382 0.43889 0.07357 0.0
C3142 C 0.4775 0.44216 0.04325 0.0
C3143 C 0.46009 0.43928 0.04077 0.0
C3144 C 0.45019 0.43408 0.05462 0.0
C3145 C 0.45706 0.43375 0.07089 0.0
C3146 C 0.45151 0.44414 0.0247 0.0
C3147 C 0.43933 0.43315 0.01775 0.0
C3148 C 0.45372 0.46043 0.0174 0.0
C3149 C 0.46562 0.47312 0.02441 0.0
C3150 C 0.46334 0.47964 0.04082 0.0
C3151 C 0.47494 0.49126 0.04747 0.0
C3152 C 0.48872 0.4966 0.03774 0.0
C3153 C 0.49087 0.4904 0.02131 0.0
C3154 C 0.47934 0.47876 0.01461 0.0
C3155 C 0.39341 0.4804 0.98251 0.0
C3156 C 0.39463 0.47862 0.96488 0.0
C3157 C 0.40491 0.47216 0.99311 0.0
C3158 C 0.41789 0.46218 0.98624 0.0
C3159 C 0.41916 0.46034 0.96865 0.0
C3160 C 0.40747 0.46834 0.95803 0.0
C3161 C 0.43068 0.45477 0.99766 0.0
C3162 C 0.44344 0.4654 0.00383 0.0
C3163 C 0.42884 0.43834 0.00437 0.0
C3164 C 0.41533 0.42682 0.99841 0.0
C3165 C 0.41567 0.42034 0.98185 0.0
C3166 C 0.40279 0.40957 0.97623 0.0
C3167 C 0.38956 0.40513 0.98711 0.0
C3168 C 0.38923 0.41141 0.00366 0.0
C3169 C 0.40208 0.4222 0.00933 0.0
H3170 H 0.3796 0.39679 0.98274 0.0
H3171 H 0.49771 0.50558 0.0429 0.0
H3172 H 0.8056 0.25364 0.31051 0.0
H3173 H 0.80529 0.24256 0.28155 0.0
H3174 H 0.82464 0.19484 0.29986 0.0
H3175 H 0.82618 0.20638 0.32843 0.0
H3176 H 0.83063 0.19674 0.26742 0.0
H3177 H 0.78018 0.20676 0.30379 0.0
H3178 H 0.76117 0.22596 0.31956 0.0
H3179 H 0.75291 0.2552 0.27448 0.0
H3180 H 0.77184 0.23615 0.25847 0.0
H3181 H 0.7529 0.1433 0.24216 0.0
H3182 H 0.76753 0.16425 0.25963 0.0
H3183 H 0.79804 0.17896 0.21677 0.0
H3184 H 0.7836 0.15785 0.19926 0.0
H3185 H 0.76878 0.19809 0.25633 0.0
H3186 H 0.83715 0.19208 0.23271 0.0
H3187 H 0.8559 0.17114 0.21905 0.0
H3188 H 0.82747 0.13061 0.24153 0.0
H3189 H 0.80869 0.15131 0.25548 0.0
C3190 C 0.81085 0.2412 0.30807 0.0
C3191 C 0.81581 0.23076 0.32156 0.0
C3192 C 0.81048 0.23478 0.29159 0.0
C3193 C 0.81417 0.21761 0.28869 0.0
C3194 C 0.82151 0.20805 0.30178 0.0
C3195 C 0.82245 0.21467 0.31815 0.0
C3196 C 0.80691 0.20855 0.2739 0.0
C3197 C 0.81717 0.19726 0.26475 0.0
C3198 C 0.78927 0.20904 0.2705 0.0
C3199 C 0.77747 0.22013 0.27999 0.0
C3200 C 0.77425 0.21726 0.29726 0.0
C3201 C 0.7635 0.22812 0.30623 0.0
C3202 C 0.75583 0.24179 0.29803 0.0
C3203 C 0.75882 0.24459 0.28081 0.0
C3204 C 0.76953 0.23376 0.27177 0.0
C3205 C 0.76279 0.15091 0.23648 0.0
C3206 C 0.76714 0.14891 0.21937 0.0
C3207 C 0.77108 0.16294 0.24644 0.0
C3208 C 0.78389 0.17314 0.23949 0.0
C3209 C 0.78831 0.17112 0.22241 0.0
C3210 C 0.78003 0.15906 0.21244 0.0
C3211 C 0.79242 0.18591 0.25027 0.0
C3212 C 0.78233 0.19791 0.2586 0.0
C3213 C 0.81012 0.18582 0.25309 0.0
C3214 C 0.82141 0.17324 0.24494 0.0
C3215 C 0.83493 0.1787 0.23475 0.0
C3216 C 0.84556 0.16687 0.22696 0.0
C3217 C 0.84283 0.14955 0.22936 0.0
C3218 C 0.82952 0.14403 0.23962 0.0
C3219 C 0.81887 0.1558 0.24745 0.0
H3220 H 0.85107 0.14042 0.22331 0.0
H3221 H 0.74756 0.25021 0.305 0.0
H3222 H 0.00748 0.55296 0.56155 0.0
H3223 H 0.02308 0.55351 0.53481 0.0
H3224 H 0.06579 0.57613 0.56021 0.0
H3225 H 0.0499 0.57634 0.58678 0.0
H3226 H 0.06629 0.58243 0.52536 0.0
H3227 H 0.05963 0.53445 0.56398 0.0
H3228 H 0.04259 0.51384 0.58014 0.0
H3229 H 0.01962 0.49629 0.53409 0.0
H3230 H 0.03632 0.51698 0.51768 0.0
H3231 H 0.12151 0.50615 0.4929 0.0
H3232 H 0.10545 0.52194 0.51416 0.0
H3233 H 0.08157 0.55116 0.47466 0.0
H3234 H 0.0977 0.53557 0.45337 0.0
H3235 H 0.07156 0.52052 0.5158 0.0
H3236 H 0.06871 0.58971 0.49223 0.0
H3237 H 0.08657 0.61012 0.47673 0.0
H3238 H 0.13131 0.58436 0.49378 0.0
H3239 H 0.11374 0.56394 0.50957 0.0
C3240 C 0.01976 0.55907 0.56113 0.0
C3241 C 0.02761 0.56448 0.57613 0.0
C3242 C 0.02869 0.55929 0.5459 0.0
C3243 C 0.04574 0.56432 0.54571 0.0
C3244 C 0.05268 0.57208 0.56013 0.0
C3245 C 0.04358 0.57224 0.57531 0.0
C3246 C 0.05722 0.55772 0.53244 0.0
C3247 C 0.06738 0.56893 0.52312 0.0
C3248 C 0.05888 0.54004 0.52981 0.0
C3249 C 0.04906 0.5274 0.53965 0.0
C3250 C 0.05086 0.52626 0.55732 0.0
C3251 C 0.04125 0.51458 0.56652 0.0
C3252 C 0.02992 0.50387 0.55816 0.0
C3253 C 0.02831 0.50468 0.54056 0.0
C3254 C 0.03785 0.51637 0.5313 0.0
C3255 C 0.11309 0.51615 0.48877 0.0
C3256 C 0.11072 0.51951 0.47149 0.0
C3257 C 0.10392 0.52516 0.50092 0.0
C3258 C 0.09233 0.53771 0.49597 0.0
C3259 C 0.09058 0.54166 0.47876 0.0
C3260 C 0.09974 0.53266 0.46661 0.0
C3261 C 0.08072 0.54519 0.50863 0.0
C3262 C 0.07046 0.53406 0.51786 0.0
C3263 C 0.07915 0.56287 0.5112 0.0
C3264 C 0.08988 0.5752 0.50194 0.0
C3265 C 0.08236 0.58844 0.49273 0.0
C3266 C 0.09244 0.6 0.48388 0.0
C3267 C 0.11006 0.5985 0.48423 0.0
C3268 C 0.11765 0.58546 0.49347 0.0
C3269 C 0.10764 0.57387 0.50234 0.0
H3270 H 0.11784 0.60746 0.47736 0.0
H3271 H 0.02244 0.49488 0.56531 0.0
H3272 H 0.73222 0.24018 0.6748 0.0
H3273 H 0.72673 0.22454 0.70075 0.0
H3274 H 0.67774 0.2097 0.68166 0.0
H3275 H 0.68322 0.22529 0.65545 0.0
H3276 H 0.70408 0.21904 0.72666 0.0
H3277 H 0.6765 0.1664 0.68611 0.0
H3278 H 0.67354 0.15834 0.65602 0.0
H3279 H 0.72042 0.18333 0.64444 0.0
H3280 H 0.72378 0.19125 0.6745 0.0
H3281 H 0.70969 0.14687 0.78047 0.0
H3282 H 0.69626 0.16636 0.76049 0.0
H3283 H 0.73507 0.15523 0.72366 0.0
H3284 H 0.74816 0.13534 0.7433 0.0
H3285 H 0.70566 0.1589 0.7084 0.0
H3286 H 0.73734 0.18997 0.7523 0.0
H3287 H 0.74254 0.19793 0.78212 0.0
H3288 H 0.69164 0.21639 0.78642 0.0
H3289 H 0.68605 0.20844 0.75671 0.0
C3290 C 0.72004 0.23406 0.67632 0.0
C3291 C 0.70836 0.23352 0.6629 0.0
C3292 C 0.71685 0.22523 0.69125 0.0
C3293 C 0.70202 0.21562 0.69292 0.0
C3294 C 0.68937 0.21689 0.68049 0.0
C3295 C 0.69252 0.22582 0.66552 0.0
C3296 C 0.70173 0.20185 0.70562 0.0
C3297 C 0.70406 0.20586 0.72276 0.0
C3298 C 0.70189 0.18466 0.70048 0.0
C3299 C 0.70025 0.17959 0.68247 0.0
C3300 C 0.68619 0.1701 0.67713 0.0
C3301 C 0.68445 0.16556 0.6601 0.0
C3302 C 0.69675 0.17037 0.64832 0.0
C3303 C 0.71088 0.17964 0.65357 0.0
C3304 C 0.71272 0.18415 0.6706 0.0
C3305 C 0.71518 0.14836 0.76799 0.0
C3306 C 0.73012 0.13976 0.76351 0.0
C3307 C 0.70752 0.15956 0.75663 0.0
C3308 C 0.71485 0.16251 0.74071 0.0
C3309 C 0.72921 0.15318 0.7359 0.0
C3310 C 0.73674 0.14186 0.74716 0.0
C3311 C 0.70851 0.17608 0.72941 0.0
C3312 C 0.70501 0.17201 0.71248 0.0
C3313 C 0.7076 0.19321 0.73471 0.0
C3314 C 0.71121 0.19842 0.75238 0.0
C3315 C 0.72725 0.19568 0.75963 0.0
C3316 C 0.73027 0.20018 0.77649 0.0
C3317 C 0.7174 0.20751 0.78616 0.0
C3318 C 0.70156 0.21061 0.77894 0.0
C3319 C 0.69846 0.20614 0.76209 0.0
H3320 H 0.71972 0.21082 0.79926 0.0
H3321 H 0.69536 0.16688 0.63514 0.0
H3322 H 0.02473 0.43139 0.94244 0.0
H3323 H 0.04156 0.43115 0.96877 0.0
H3324 H 0.07794 0.46475 0.94571 0.0
H3325 H 0.06103 0.46546 0.91985 0.0
H3326 H 0.09231 0.43701 0.9653 0.0
H3327 H 0.04985 0.48196 0.96716 0.0
H3328 H 0.02073 0.49311 0.96712 0.0
H3329 H 0.00883 0.463 0.0108 0.0
H3330 H 0.03785 0.45132 0.01081 0.0
H3331 H 0.13227 0.49839 0.01504 0.0
H3332 H 0.11617 0.48077 0.99528 0.0
H3333 H 0.09073 0.45667 0.03717 0.0
H3334 H 0.10702 0.47404 0.05704 0.0
H3335 H 0.06888 0.47078 0.01282 0.0
H3336 H 0.11457 0.43241 0.01499 0.0
H3337 H 0.14436 0.42311 0.01517 0.0
H3338 H 0.1508 0.44181 0.96453 0.0
H3339 H 0.12112 0.45146 0.96413 0.0
C3340 C 0.03646 0.43849 0.94301 0.0
C3341 C 0.04161 0.44854 0.92928 0.0
C3342 C 0.04601 0.43835 0.95798 0.0
C3343 C 0.06096 0.44791 0.95909 0.0
C3344 C 0.06649 0.45721 0.94503 0.0
C3345 C 0.05679 0.4577 0.93034 0.0
C3346 C 0.07031 0.44972 0.97517 0.0
C3347 C 0.0872 0.44423 0.9758 0.0
C3348 C 0.06341 0.45877 0.98899 0.0
C3349 C 0.0459 0.46551 0.98878 0.0
C3350 C 0.04095 0.47751 0.97659 0.0
C3351 C 0.02448 0.48399 0.97662 0.0
C3352 C 0.01291 0.47876 0.98894 0.0
C3353 C 0.01779 0.467 0.00124 0.0
C3354 C 0.03423 0.46041 0.0012 0.0
C3355 C 0.1235 0.48909 0.02003 0.0
C3356 C 0.12085 0.4876 0.03753 0.0
C3357 C 0.11437 0.479 0.00877 0.0
C3358 C 0.10235 0.46738 0.01481 0.0
C3359 C 0.10002 0.4655 0.0323 0.0
C3360 C 0.10936 0.47542 0.0436 0.0
C3361 C 0.0911 0.45864 0.00268 0.0
C3362 C 0.07386 0.46291 0.00272 0.0
C3363 C 0.09771 0.44854 0.98947 0.0
C3364 C 0.1156 0.44273 0.98956 0.0
C3365 C 0.12236 0.43465 0.00393 0.0
C3366 C 0.13923 0.4293 0.00407 0.0
C3367 C 0.14947 0.43188 0.98988 0.0
C3368 C 0.14285 0.43981 0.97551 0.0
C3369 C 0.12599 0.4452 0.97531 0.0
H3370 H 0.16253 0.42773 0.99001 0.0
H3371 H 0.00018 0.48383 0.98897 0.0
H3372 H 0.75581 0.87361 0.25534 0.0
H3373 H 0.76977 0.85471 0.23528 0.0
H3374 H 0.80717 0.84201 0.27306 0.0
H3375 H 0.79273 0.86024 0.29345 0.0
H3376 H 0.79831 0.85076 0.2205 0.0
H3377 H 0.81778 0.80084 0.26989 0.0
H3378 H 0.80955 0.7909 0.29837 0.0
H3379 H 0.75868 0.80807 0.28995 0.0
H3380 H 0.76658 0.8181 0.26143 0.0
H3381 H 0.82764 0.78653 0.16778 0.0
H3382 H 0.83034 0.80399 0.19331 0.0
H3383 H 0.78489 0.78131 0.21352 0.0
H3384 H 0.78248 0.76363 0.18848 0.0
H3385 H 0.80375 0.79083 0.23856 0.0
H3386 H 0.78468 0.81524 0.18552 0.0
H3387 H 0.78761 0.8243 0.15577 0.0
H3388 H 0.82843 0.85741 0.16981 0.0
H3389 H 0.82617 0.84805 0.19937 0.0
C3390 C 0.76713 0.86697 0.25931 0.0
C3391 C 0.77293 0.86807 0.27607 0.0
C3392 C 0.77515 0.85619 0.24782 0.0
C3393 C 0.78927 0.84657 0.2528 0.0
C3394 C 0.79601 0.84891 0.26907 0.0
C3395 C 0.78781 0.85944 0.28066 0.0
C3396 C 0.79607 0.83332 0.24133 0.0
C3397 C 0.7997 0.83769 0.22452 0.0
C3398 C 0.79774 0.81621 0.24649 0.0
C3399 C 0.79285 0.8104 0.26364 0.0
C3400 C 0.80485 0.80251 0.27415 0.0
C3401 C 0.80024 0.79688 0.29029 0.0
C3402 C 0.78361 0.79895 0.29599 0.0
C3403 C 0.77156 0.80661 0.28555 0.0
C3404 C 0.77611 0.8123 0.26942 0.0
C3405 C 0.81867 0.78477 0.178 0.0
C3406 C 0.80459 0.77406 0.17599 0.0
C3407 C 0.82015 0.79483 0.19254 0.0
C3408 C 0.80749 0.79437 0.20506 0.0
C3409 C 0.79471 0.78208 0.20397 0.0
C3410 C 0.79329 0.77201 0.18958 0.0
C3411 C 0.80561 0.80821 0.21763 0.0
C3412 C 0.80289 0.80398 0.23468 0.0
C3413 C 0.804 0.82534 0.21252 0.0
C3414 C 0.80548 0.83071 0.1946 0.0
C3415 C 0.79444 0.82427 0.18218 0.0
C3416 C 0.79601 0.82944 0.16531 0.0
C3417 C 0.80832 0.84132 0.1608 0.0
C3418 C 0.81905 0.84806 0.17316 0.0
C3419 C 0.81768 0.84277 0.18998 0.0
H3420 H 0.80947 0.84538 0.14775 0.0
H3421 H 0.78005 0.79455 0.30847 0.0
H3422 H 0.38065 0.48711 0.50088 0.0
H3423 H 0.40127 0.50071 0.48214 0.0
H3424 H 0.41631 0.53412 0.52267 0.0
H3425 H 0.39578 0.52059 0.54147 0.0
H3426 H 0.40448 0.53294 0.47129 0.0
H3427 H 0.4605 0.53958 0.51861 0.0
H3428 H 0.47194 0.52525 0.54392 0.0
H3429 H 0.44746 0.479 0.52908 0.0
H3430 H 0.43622 0.49293 0.50357 0.0
H3431 H 0.46549 0.57254 0.42238 0.0
H3432 H 0.4507 0.56919 0.4494 0.0
H3433 H 0.47199 0.51918 0.45488 0.0
H3434 H 0.48703 0.52257 0.42822 0.0
H3435 H 0.46577 0.53235 0.48527 0.0
H3436 H 0.43646 0.52484 0.43204 0.0
H3437 H 0.42609 0.53395 0.40402 0.0
H3438 H 0.39741 0.57384 0.42735 0.0
H3439 H 0.40793 0.56516 0.45548 0.0
C3440 C 0.38828 0.49742 0.50575 0.0
C3441 C 0.38663 0.50278 0.52261 0.0
C3442 C 0.40001 0.50519 0.49505 0.0
C3443 C 0.41036 0.51834 0.50108 0.0
C3444 C 0.40854 0.5239 0.51784 0.0
C3445 C 0.39677 0.51619 0.52852 0.0
C3446 C 0.42323 0.526 0.48984 0.0
C3447 C 0.41785 0.53301 0.47445 0.0
C3448 C 0.4407 0.52585 0.49389 0.0
C3449 C 0.44729 0.5174 0.50932 0.0
C3450 C 0.45757 0.52635 0.52076 0.0
C3451 C 0.46406 0.51828 0.53513 0.0
C3452 C 0.4604 0.50123 0.53815 0.0
C3453 C 0.45027 0.49221 0.52679 0.0
C3454 C 0.44381 0.5002 0.51239 0.0
C3455 C 0.46755 0.56112 0.42968 0.0
C3456 C 0.47698 0.5476 0.42297 0.0
C3457 C 0.45906 0.55921 0.4451 0.0
C3458 C 0.45986 0.54374 0.45386 0.0
C3459 C 0.47104 0.53115 0.44824 0.0
C3460 C 0.47953 0.53306 0.43291 0.0
C3461 C 0.447 0.53927 0.46674 0.0
C3462 C 0.45234 0.5328 0.4824 0.0
C3463 C 0.42952 0.5393 0.4627 0.0
C3464 C 0.42314 0.5445 0.44582 0.0
C3465 C 0.42805 0.53564 0.43117 0.0
C3466 C 0.42215 0.54072 0.41527 0.0
C3467 C 0.41114 0.55449 0.41389 0.0
C3468 C 0.406 0.56321 0.42842 0.0
C3469 C 0.41194 0.55824 0.44434 0.0
H3470 H 0.40655 0.55835 0.40157 0.0
H3471 H 0.46549 0.49501 0.54924 0.0
H3472 H 0.7409 0.74335 0.87377 0.0
H3473 H 0.76119 0.73123 0.85378 0.0
H3474 H 0.72035 0.70662 0.82706 0.0
H3475 H 0.70008 0.71814 0.84748 0.0
H3476 H 0.74751 0.68675 0.82712 0.0
H3477 H 0.73677 0.74556 0.81287 0.0
H3478 H 0.7351 0.77639 0.81828 0.0
H3479 H 0.78734 0.77697 0.83309 0.0
H3480 H 0.78937 0.74625 0.82776 0.0
H3481 H 0.81319 0.71479 0.75621 0.0
H3482 H 0.78526 0.71441 0.76948 0.0
H3483 H 0.80406 0.68051 0.808 0.0
H3484 H 0.83186 0.68039 0.79432 0.0
H3485 H 0.78455 0.72887 0.79891 0.0
H3486 H 0.77056 0.66373 0.83063 0.0
H3487 H 0.77181 0.63337 0.82346 0.0
H3488 H 0.76764 0.64535 0.7706 0.0
H3489 H 0.76611 0.67577 0.77744 0.0
C3490 C 0.7363 0.73514 0.86379 0.0
C3491 C 0.71894 0.73178 0.86208 0.0
C3492 C 0.74787 0.72829 0.85232 0.0
C3493 C 0.74222 0.71836 0.83867 0.0
C3494 C 0.72497 0.7143 0.83744 0.0
C3495 C 0.71341 0.72091 0.8491 0.0
C3496 C 0.75419 0.71314 0.82517 0.0
C3497 C 0.75561 0.69592 0.82088 0.0
C3498 C 0.76446 0.72515 0.81675 0.0
C3499 C 0.76317 0.74361 0.82005 0.0
C3500 C 0.74785 0.75227 0.81738 0.0
C3501 C 0.74684 0.7697 0.8204 0.0
C3502 C 0.76105 0.77857 0.8261 0.0
C3503 C 0.77633 0.77007 0.8287 0.0
C3504 C 0.77744 0.75268 0.82564 0.0
C3505 C 0.8111 0.70664 0.76704 0.0
C3506 C 0.82462 0.69778 0.7744 0.0
C3507 C 0.79517 0.70644 0.77464 0.0
C3508 C 0.79263 0.69766 0.78989 0.0
C3509 C 0.80565 0.68728 0.79618 0.0
C3510 C 0.82156 0.68723 0.78837 0.0
C3511 C 0.77818 0.70238 0.80093 0.0
C3512 C 0.77634 0.71961 0.80489 0.0
C3513 C 0.7675 0.69036 0.80881 0.0
C3514 C 0.76837 0.67207 0.80456 0.0
C3515 C 0.76984 0.6599 0.81747 0.0
C3516 C 0.77062 0.64267 0.81347 0.0
C3517 C 0.76986 0.63744 0.79658 0.0
C3518 C 0.7683 0.64942 0.78367 0.0
C3519 C 0.76752 0.66667 0.7876 0.0
H3520 H 0.77045 0.6241 0.79351 0.0
H3521 H 0.76022 0.79205 0.82844 0.0
H3522 H 0.53694 0.44338 0.10398 0.0
H3523 H 0.55592 0.4624 0.08849 0.0
H3524 H 0.52526 0.50506 0.1035 0.0
H3525 H 0.50633 0.48618 0.11899 0.0
H3526 H 0.54758 0.48121 0.06186 0.0
H3527 H 0.54805 0.53961 0.10801 0.0
H3528 H 0.55101 0.54466 0.13866 0.0
H3529 H 0.57622 0.49685 0.14443 0.0
H3530 H 0.57368 0.4916 0.11377 0.0
H3531 H 0.52723 0.55725 0.02938 0.0
H3532 H 0.53319 0.531 0.04405 0.0
H3533 H 0.58385 0.54806 0.05499 0.0
H3534 H 0.57783 0.57501 0.04053 0.0
H3535 H 0.56716 0.537 0.08311 0.0
H3536 H 0.57991 0.51393 0.03055 0.0
H3537 H 0.57802 0.50855 -0.00012 0.0
H3538 H 0.52982 0.48446 0.00671 0.0
H3539 H 0.53106 0.49017 0.03735 0.0
C3540 C 0.5344 0.45685 0.10417 0.0
C3541 C 0.5201 0.46332 0.11261 0.0
C3542 C 0.54527 0.46768 0.09534 0.0
C3543 C 0.54213 0.48515 0.09501 0.0
C3544 C 0.52814 0.49165 0.10388 0.0
C3545 C 0.51723 0.48084 0.11261 0.0
C3546 C 0.55211 0.49654 0.08394 0.0
C3547 C 0.55217 0.4933 0.06647 0.0
C3548 C 0.55886 0.51195 0.09008 0.0
C3549 C 0.56065 0.51521 0.10854 0.0
C3550 C 0.55437 0.53023 0.11576 0.0
C3551 C 0.55594 0.53311 0.13316 0.0
C3552 C 0.56379 0.52108 0.14348 0.0
C3553 C 0.57011 0.50615 0.13642 0.0
C3554 C 0.56859 0.5032 0.11904 0.0
C3555 C 0.5398 0.55539 0.03454 0.0
C3556 C 0.55203 0.56829 0.03384 0.0
C3557 C 0.54324 0.54023 0.04274 0.0
C3558 C 0.55906 0.53741 0.05025 0.0
C3559 C 0.57162 0.54994 0.04907 0.0
C3560 C 0.56817 0.56527 0.04079 0.0
C3561 C 0.56108 0.52222 0.06102 0.0
C3562 C 0.56326 0.52467 0.07848 0.0
C3563 C 0.55664 0.50598 0.05486 0.0
C3564 C 0.55564 0.50245 0.03636 0.0
C3565 C 0.56883 0.5076 0.02553 0.0
C3566 C 0.56785 0.50452 0.00813 0.0
C3567 C 0.55379 0.49619 0.00136 0.0
C3568 C 0.54067 0.49094 0.01199 0.0
C3569 C 0.54152 0.49408 0.0294 0.0
H3570 H 0.55306 0.4938 0.98789 0.0
H3571 H 0.56497 0.52333 0.15695 0.0
H3572 H 0.6719 0.31647 0.2723 0.0
H3573 H 0.70013 0.31903 0.2854 0.0
H3574 H 0.68908 0.27618 0.31737 0.0
H3575 H 0.66133 0.27322 0.30412 0.0
H3576 H 0.70305 0.30947 0.33317 0.0
H3577 H 0.71026 0.26566 0.28886 0.0
H3578 H 0.70995 0.2563 0.25906 0.0
H3579 H 0.74524 0.2956 0.24612 0.0
H3580 H 0.7455 0.30536 0.27584 0.0
H3581 H 0.76024 0.25473 0.36901 0.0
H3582 H 0.73865 0.26943 0.35254 0.0
H3583 H 0.77717 0.30002 0.32879 0.0
H3584 H 0.799 0.28541 0.34553 0.0
H3585 H 0.75356 0.2838 0.30596 0.0
H3586 H 0.75304 0.32069 0.35281 0.0
H3587 H 0.75379 0.32892 0.38291 0.0
H3588 H 0.70659 0.3033 0.39138 0.0
H3589 H 0.70568 0.29466 0.3614 0.0
C3590 C 0.67555 0.30765 0.28215 0.0
C3591 C 0.66452 0.29461 0.2872 0.0
C3592 C 0.6916 0.30912 0.28956 0.0
C3593 C 0.69653 0.2978 0.30231 0.0
C3594 C 0.6854 0.28502 0.30754 0.0
C3595 C 0.66962 0.28331 0.29992 0.0
C3596 C 0.71333 0.29876 0.31032 0.0
C3597 C 0.71421 0.30409 0.32722 0.0
C3598 C 0.7279 0.29224 0.30228 0.0
C3599 C 0.72763 0.28645 0.28446 0.0
C3600 C 0.71774 0.27246 0.27961 0.0
C3601 C 0.71762 0.26705 0.26275 0.0
C3602 C 0.72749 0.27541 0.25068 0.0
C3603 C 0.73754 0.28918 0.25547 0.0
C3604 C 0.73766 0.29467 0.2723 0.0
C3605 C 0.76411 0.26472 0.36044 0.0
C3606 C 0.78123 0.26901 0.35858 0.0
C3607 C 0.75178 0.27314 0.35109 0.0
C3608 C 0.75636 0.2859 0.33962 0.0
C3609 C 0.77345 0.29028 0.33771 0.0
C3610 C 0.78583 0.282 0.34729 0.0
C3611 C 0.74304 0.29371 0.32912 0.0
C3612 C 0.74273 0.28996 0.31176 0.0
C3613 C 0.72898 0.30174 0.33675 0.0
C3614 C 0.72931 0.307 0.35481 0.0
C3615 C 0.74286 0.31672 0.3611 0.0
C3616 C 0.74331 0.32147 0.37815 0.0
C3617 C 0.73025 0.31663 0.38905 0.0
C3618 C 0.71669 0.30705 0.38291 0.0
C3619 C 0.71619 0.30226 0.36588 0.0
H3620 H 0.73062 0.32031 0.40225 0.0
H3621 H 0.72742 0.27118 0.23765 0.0
H3622 H 0.00083 0.51395 0.6045 0.0
H3623 H 0.98513 0.49744 0.58362 0.0
H3624 H 0.94452 0.53387 0.58488 0.0
H3625 H 0.96058 0.55104 0.60528 0.0
H3626 H 0.94299 0.48958 0.59033 0.0
H3627 H 0.95007 0.53855 0.55396 0.0
H3628 H 0.96598 0.56224 0.54131 0.0
H3629 H 0.00277 0.5274 0.52165 0.0
H3630 H 0.98734 0.50353 0.53465 0.0
H3631 H 0.91884 0.42747 0.53171 0.0
H3632 H 0.91765 0.45661 0.54229 0.0
H3633 H 0.97105 0.46244 0.53215 0.0
H3634 H 0.97219 0.43383 0.52107 0.0
H3635 H 0.95636 0.49184 0.52899 0.0
H3636 H 0.95544 0.4457 0.57073 0.0
H3637 H 0.94267 0.42047 0.58405 0.0
H3638 H 0.89722 0.44854 0.59422 0.0
H3639 H 0.90969 0.47388 0.58077 0.0
C3640 C 0.98861 0.51854 0.60031 0.0
C3641 C 0.98198 0.53385 0.60643 0.0
C3642 C 0.9797 0.50912 0.58835 0.0
C3643 C 0.96386 0.51464 0.58258 0.0
C3644 C 0.95689 0.52963 0.589 0.0
C3645 C 0.96601 0.53931 0.60071 0.0
C3646 C 0.9546 0.50401 0.57037 0.0
C3647 C 0.94532 0.49035 0.57681 0.0
C3648 C 0.95804 0.50494 0.55286 0.0
C3649 C 0.96765 0.51928 0.54546 0.0
C3650 C 0.96172 0.53596 0.54721 0.0
C3651 C 0.97062 0.54942 0.53993 0.0
C3652 C 0.98539 0.54632 0.53071 0.0
C3653 C 0.99136 0.52977 0.52884 0.0
C3654 C 0.98255 0.51628 0.53618 0.0
C3655 C 0.9302 0.43515 0.53129 0.0
C3656 C 0.94573 0.42817 0.52607 0.0
C3657 C 0.9295 0.45178 0.53737 0.0
C3658 C 0.94436 0.46153 0.53847 0.0
C3659 C 0.95943 0.45514 0.53159 0.0
C3660 C 0.96011 0.43866 0.52542 0.0
C3661 C 0.9452 0.47704 0.54902 0.0
C3662 C 0.95314 0.49149 0.54234 0.0
C3663 C 0.94082 0.47671 0.56642 0.0
C3664 C 0.93338 0.46157 0.57459 0.0
C3665 C 0.94269 0.44644 0.57575 0.0
C3666 C 0.93551 0.43214 0.58331 0.0
C3667 C 0.91912 0.43289 0.58993 0.0
C3668 C 0.90989 0.44797 0.58905 0.0
C3669 C 0.917 0.4623 0.58145 0.0
H3670 H 0.91358 0.4218 0.59578 0.0
H3671 H 0.9922 0.55674 0.52499 0.0
H3672 H 0.80967 0.28889 0.73637 0.0
H3673 H 0.78593 0.2917 0.71693 0.0
H3674 H 0.8068 0.33848 0.69796 0.0
H3675 H 0.83084 0.3356 0.71731 0.0
H3676 H 0.76111 0.31216 0.7049 0.0
H3677 H 0.8084 0.33398 0.6549 0.0
H3678 H 0.83934 0.33645 0.65091 0.0
H3679 H 0.84721 0.29343 0.68321 0.0
H3680 H 0.81633 0.29055 0.68712 0.0
H3681 H 0.71653 0.29813 0.62841 0.0
H3682 H 0.73428 0.31371 0.64844 0.0
H3683 H 0.77239 0.27471 0.64491 0.0
H3684 H 0.75502 0.25946 0.62441 0.0
H3685 H 0.78712 0.30417 0.64822 0.0
H3686 H 0.74043 0.27488 0.67589 0.0
H3687 H 0.71027 0.26883 0.68154 0.0
H3688 H 0.70222 0.32064 0.69581 0.0
H3689 H 0.73225 0.32708 0.69001 0.0
C3690 C 0.80888 0.30012 0.72852 0.0
C3691 C 0.82232 0.31177 0.72797 0.0
C3692 C 0.79524 0.30177 0.71747 0.0
C3693 C 0.79488 0.31505 0.70568 0.0
C3694 C 0.80702 0.328 0.70681 0.0
C3695 C 0.82072 0.32637 0.71792 0.0
C3696 C 0.78417 0.31313 0.69042 0.0
C3697 C 0.76669 0.31079 0.69241 0.0
C3698 C 0.79156 0.31097 0.67421 0.0
C3699 C 0.8101 0.31221 0.67146 0.0
C3700 C 0.81675 0.32501 0.66107 0.0
C3701 C 0.83426 0.32648 0.65882 0.0
C3702 C 0.84523 0.31514 0.66685 0.0
C3703 C 0.8387 0.30222 0.67703 0.0
C3704 C 0.8212 0.30066 0.67924 0.0
C3705 C 0.72885 0.29306 0.63165 0.0
C3706 C 0.73429 0.27743 0.62507 0.0
C3707 C 0.73894 0.30194 0.64315 0.0
C3708 C 0.75448 0.29519 0.64848 0.0
C3709 C 0.7604 0.28015 0.64105 0.0
C3710 C 0.75043 0.27138 0.62937 0.0
C3711 C 0.76403 0.30286 0.66272 0.0
C3712 C 0.78134 0.3062 0.66053 0.0
C3713 C 0.75655 0.30544 0.67885 0.0
C3714 C 0.73852 0.30151 0.68231 0.0
C3715 C 0.73219 0.28501 0.68011 0.0
C3716 C 0.71514 0.2815 0.68335 0.0
C3717 C 0.70435 0.29434 0.68898 0.0
C3718 C 0.71059 0.31071 0.69141 0.0
C3719 C 0.72761 0.31431 0.68814 0.0
H3720 H 0.69116 0.29158 0.69149 0.0
H3721 H 0.85879 0.31634 0.66516 0.0
H3722 H 0.91595 0.57236 0.9711 0.0
H3723 H 0.90821 0.54389 0.96128 0.0
H3724 H 0.93608 0.55246 0.91505 0.0
H3725 H 0.94358 0.58065 0.9247 0.0
H3726 H 0.91242 0.52752 0.91072 0.0
H3727 H 0.95664 0.54442 0.9533 0.0
H3728 H 0.96299 0.55663 0.98137 0.0
H3729 H 0.93179 0.51892 0.00507 0.0
H3730 H 0.92483 0.50685 0.97705 0.0
H3731 H 0.98312 0.48262 0.88749 0.0
H3732 H 0.96185 0.50216 0.8985 0.0
H3733 H 0.94627 0.46493 0.9353 0.0
H3734 H 0.96758 0.4452 0.92428 0.0
H3735 H 0.95145 0.49662 0.94912 0.0
H3736 H 0.91942 0.47309 0.90485 0.0
H3737 H 0.91407 0.46202 0.87616 0.0
H3738 H 0.92256 0.51145 0.85521 0.0
H3739 H 0.92831 0.52277 0.88372 0.0
C3740 C 0.9196 0.56843 0.95848 0.0
C3741 C 0.93076 0.57835 0.94881 0.0
C3742 C 0.91517 0.55218 0.95287 0.0
C3743 C 0.92204 0.54588 0.93768 0.0
C3744 C 0.93078 0.55695 0.92689 0.0
C3745 C 0.93522 0.57303 0.93248 0.0
C3746 C 0.92473 0.52752 0.93503 0.0
C3747 C 0.92063 0.52052 0.91921 0.0
C3748 C 0.93511 0.5182 0.94633 0.0
C3749 C 0.94005 0.52489 0.96314 0.0
C3750 C 0.95109 0.5388 0.96451 0.0
C3751 C 0.95468 0.54577 0.98038 0.0
C3752 C 0.94769 0.53862 0.99498 0.0
C3753 C 0.93712 0.52448 0.99374 0.0
C3754 C 0.93328 0.51763 0.97787 0.0
C3755 C 0.97517 0.47858 0.89791 0.0
C3756 C 0.97699 0.46241 0.90503 0.0
C3757 C 0.96291 0.48968 0.90408 0.0
C3758 C 0.95228 0.48483 0.91748 0.0
C3759 C 0.95423 0.46879 0.92482 0.0
C3760 C 0.96642 0.4576 0.91855 0.0
C3761 C 0.94 0.49718 0.92435 0.0
C3762 C 0.94243 0.503 0.94093 0.0
C3763 C 0.92815 0.50538 0.91371 0.0
C3764 C 0.92429 0.49879 0.89649 0.0
C3765 C 0.92021 0.4816 0.89413 0.0
C3766 C 0.91711 0.47528 0.87789 0.0
C3767 C 0.91796 0.48603 0.86387 0.0
C3768 C 0.92187 0.50314 0.86608 0.0
C3769 C 0.92502 0.50953 0.8823 0.0
H3770 H 0.91559 0.4811 0.8513 0.0
H3771 H 0.95055 0.54393 0.00727 0.0
H3772 H 0.66136 0.70305 0.18318 0.0
H3773 H 0.6889 0.69646 0.17135 0.0
H3774 H 0.70349 0.6723 0.21819 0.0
H3775 H 0.67544 0.67912 0.23022 0.0
H3776 H 0.72577 0.69618 0.20905 0.0
H3777 H 0.70397 0.64857 0.18117 0.0
H3778 H 0.68303 0.63129 0.16576 0.0
H3779 H 0.68599 0.66503 0.12325 0.0
H3780 H 0.70677 0.68265 0.13844 0.0
H3781 H 0.79957 0.70907 0.15375 0.0
H3782 H 0.77961 0.69135 0.16961 0.0
H3783 H 0.73788 0.71976 0.14884 0.0
H3784 H 0.75769 0.7375 0.13293 0.0
H3785 H 0.73613 0.68047 0.14913 0.0
H3786 H 0.73677 0.73157 0.19386 0.0
H3787 H 0.75549 0.7518 0.2087 0.0
H3788 H 0.79191 0.71228 0.21705 0.0
H3789 H 0.77333 0.69186 0.20229 0.0
C3790 C 0.67025 0.69587 0.19078 0.0
C3791 C 0.66638 0.69154 0.20754 0.0
C3792 C 0.68597 0.69195 0.18397 0.0
C3793 C 0.69823 0.6836 0.19375 0.0
C3794 C 0.69412 0.67851 0.21033 0.0
C3795 C 0.67816 0.68234 0.21716 0.0
C3796 C 0.71583 0.68304 0.18724 0.0
C3797 C 0.72819 0.69221 0.19614 0.0
C3798 C 0.71924 0.67769 0.17046 0.0
C3799 C 0.70704 0.66691 0.16097 0.0
C3800 C 0.70016 0.65233 0.16854 0.0
C3801 C 0.6883 0.64247 0.15984 0.0
C3802 C 0.68321 0.64704 0.14353 0.0
C3803 C 0.69 0.66146 0.13586 0.0
C3804 C 0.70188 0.67136 0.1445 0.0
C3805 C 0.78613 0.71147 0.15248 0.0
C3806 C 0.78016 0.72469 0.14212 0.0
C3807 C 0.77479 0.70135 0.16156 0.0
C3808 C 0.75734 0.70431 0.16037 0.0
C3809 C 0.75134 0.71728 0.14983 0.0
C3810 C 0.76265 0.72743 0.1408 0.0
C3811 C 0.74512 0.69457 0.17061 0.0
C3812 C 0.7339 0.68361 0.16231 0.0
C3813 C 0.74268 0.69825 0.18791 0.0
C3814 C 0.75378 0.7103 0.19695 0.0
C3815 C 0.74877 0.72724 0.1989 0.0
C3816 C 0.75934 0.73872 0.20728 0.0
C3817 C 0.7749 0.73333 0.21379 0.0
C3818 C 0.77988 0.71644 0.21198 0.0
C3819 C 0.76935 0.70492 0.20361 0.0
H3820 H 0.78308 0.74225 0.22023 0.0
H3821 H 0.67398 0.63943 0.13684 0.0
H3822 H 0.54023 0.55401 0.3926 0.0
H3823 H 0.55686 0.53255 0.40745 0.0
H3824 H 0.52433 0.49351 0.38732 0.0
H3825 H 0.50788 0.51485 0.37221 0.0
H3826 H 0.54529 0.51395 0.43198 0.0
H3827 H 0.54352 0.45653 0.38495 0.0
H3828 H 0.54736 0.45156 0.35437 0.0
H3829 H 0.57669 0.49716 0.35033 0.0
H3830 H 0.57326 0.50229 0.38093 0.0
H3831 H 0.52503 0.43699 0.46663 0.0
H3832 H 0.52976 0.46346 0.45183 0.0
H3833 H 0.57972 0.4467 0.43736 0.0
H3834 H 0.57493 0.4198 0.45222 0.0
H3835 H 0.56248 0.45748 0.41056 0.0
H3836 H 0.57555 0.48071 0.46363 0.0
H3837 H 0.57314 0.48627 0.49424 0.0
H3838 H 0.525 0.51027 0.48642 0.0
H3839 H 0.52692 0.50457 0.4558 0.0
C3840 C 0.53686 0.5408 0.39103 0.0
C3841 C 0.52264 0.53609 0.3814 0.0
C3842 C 0.54638 0.52857 0.39953 0.0
C3843 C 0.5419 0.51143 0.39847 0.0
C3844 C 0.52824 0.50664 0.38811 0.0
C3845 C 0.51875 0.51885 0.37956 0.0
C3846 C 0.5499 0.49877 0.40978 0.0
C3847 C 0.54931 0.50168 0.42731 0.0
C3848 C 0.55575 0.48299 0.40366 0.0
C3849 C 0.55808 0.47982 0.38527 0.0
C3850 C 0.55091 0.46543 0.37758 0.0
C3851 C 0.55298 0.4626 0.36023 0.0
C3852 C 0.56224 0.47404 0.35041 0.0
C3853 C 0.56948 0.48832 0.35794 0.0
C3854 C 0.56745 0.49121 0.37529 0.0
C3855 C 0.53714 0.43899 0.46056 0.0
C3856 C 0.54953 0.42623 0.46048 0.0
C3857 C 0.53991 0.45423 0.45221 0.0
C3858 C 0.55517 0.45715 0.4436 0.0
C3859 C 0.56789 0.44472 0.444 0.0
C3860 C 0.56515 0.4294 0.45252 0.0
C3861 C 0.55666 0.47233 0.4327 0.0
C3862 C 0.55901 0.46991 0.41524 0.0
C3863 C 0.55269 0.48866 0.43889 0.0
C3864 C 0.55141 0.4922 0.45735 0.0
C3865 C 0.56439 0.48709 0.46843 0.0
C3866 C 0.56311 0.49027 0.4858 0.0
C3867 C 0.54894 0.49864 0.49226 0.0
C3868 C 0.53601 0.50385 0.48137 0.0
C3869 C 0.5372 0.50065 0.464 0.0
H3870 H 0.54798 0.50109 0.50571 0.0
H3871 H 0.56382 0.47184 0.33698 0.0
H3872 H 0.7873 0.83166 0.67367 0.0
H3873 H 0.80297 0.8055 0.66773 0.0
H3874 H 0.78237 0.78303 0.7131 0.0
H3875 H 0.76664 0.80879 0.71885 0.0
H3876 H 0.82741 0.79587 0.68705 0.0
H3877 H 0.78311 0.74211 0.71392 0.0
H3878 H 0.75358 0.73269 0.71035 0.0
H3879 H 0.75095 0.75808 0.66236 0.0
H3880 H 0.78054 0.76745 0.66549 0.0
H3881 H 0.86637 0.74356 0.74499 0.0
H3882 H 0.84925 0.76241 0.72757 0.0
H3883 H 0.83868 0.72134 0.69309 0.0
H3884 H 0.85549 0.70224 0.7108 0.0
H3885 H 0.81071 0.73677 0.70013 0.0
H3886 H 0.86344 0.75516 0.68025 0.0
H3887 H 0.89336 0.76398 0.68136 0.0
H3888 H 0.87963 0.80806 0.71008 0.0
H3889 H 0.84966 0.79939 0.70938 0.0
C3890 C 0.78562 0.82087 0.68197 0.0
C3891 C 0.77596 0.8223 0.69685 0.0
C3892 C 0.79463 0.80596 0.6786 0.0
C3893 C 0.7939 0.79226 0.68995 0.0
C3894 C 0.783 0.79324 0.70397 0.0
C3895 C 0.77411 0.80808 0.70736 0.0
C3896 C 0.80657 0.77839 0.6893 0.0
C3897 C 0.82378 0.78287 0.68958 0.0
C3898 C 0.80193 0.76128 0.69195 0.0
C3899 C 0.78411 0.75552 0.68997 0.0
C3900 C 0.77631 0.74558 0.70253 0.0
C3901 C 0.75953 0.74028 0.7006 0.0
C3902 C 0.75039 0.74479 0.68614 0.0
C3903 C 0.75802 0.75462 0.67357 0.0
C3904 C 0.7748 0.75995 0.67543 0.0
C3905 C 0.8606 0.73858 0.73359 0.0
C3906 C 0.86224 0.72143 0.7293 0.0
C3907 C 0.8509 0.74941 0.72355 0.0
C3908 C 0.84285 0.74337 0.70886 0.0
C3909 C 0.84482 0.7263 0.70431 0.0
C3910 C 0.85445 0.71542 0.71444 0.0
C3911 C 0.83129 0.75466 0.69925 0.0
C3912 C 0.81437 0.74964 0.69703 0.0
C3913 C 0.83624 0.77118 0.69439 0.0
C3914 C 0.85426 0.77659 0.69477 0.0
C3915 C 0.8668 0.7667 0.68688 0.0
C3916 C 0.88378 0.77168 0.68743 0.0
C3917 C 0.88839 0.78657 0.69578 0.0
C3918 C 0.87603 0.79654 0.70358 0.0
C3919 C 0.85903 0.79161 0.70308 0.0
H3920 H 0.90155 0.7904 0.69621 0.0
H3921 H 0.7374 0.74068 0.68468 0.0
H3922 H 0.25577 0.6844 0.28462 0.0
H3923 H 0.27279 0.71014 0.28489 0.0
H3924 H 0.30086 0.69101 0.3277 0.0
H3925 H 0.28443 0.66476 0.32671 0.0
H3926 H 0.28613 0.73575 0.30121 0.0
H3927 H 0.34194 0.69185 0.31811 0.0
H3928 H 0.348 0.66119 0.31943 0.0
H3929 H 0.31136 0.65198 0.2803 0.0
H3930 H 0.30534 0.68258 0.27855 0.0
H3931 H 0.35852 0.78616 0.29029 0.0
H3932 H 0.33923 0.76582 0.3033 0.0
H3933 H 0.34709 0.73155 0.26146 0.0
H3934 H 0.36683 0.75171 0.2486 0.0
H3935 H 0.34415 0.71431 0.28984 0.0
H3936 H 0.31435 0.75852 0.26225 0.0
H3937 H 0.30661 0.78798 0.25559 0.0
H3938 H 0.28807 0.79487 0.30622 0.0
H3939 H 0.29626 0.76559 0.31339 0.0
C3940 C 0.26521 0.68597 0.29441 0.0
C3941 C 0.26936 0.67241 0.3051 0.0
C3942 C 0.27484 0.70075 0.29469 0.0
C3943 C 0.28856 0.70216 0.30587 0.0
C3944 C 0.29061 0.68993 0.31866 0.0
C3945 C 0.28111 0.67498 0.31818 0.0
C3946 C 0.30252 0.71396 0.3016 0.0
C3947 C 0.2989 0.73117 0.29904 0.0
C3948 C 0.31898 0.70779 0.29792 0.0
C3949 C 0.32308 0.68946 0.29835 0.0
C3950 C 0.33529 0.68328 0.30972 0.0
C3951 C 0.33869 0.66592 0.31054 0.0
C3952 C 0.33003 0.65464 0.3 0.0
C3953 C 0.31805 0.66072 0.28848 0.0
C3954 C 0.31466 0.67806 0.28755 0.0
C3955 C 0.35635 0.77416 0.284 0.0
C3956 C 0.36399 0.77057 0.26833 0.0
C3957 C 0.3453 0.76259 0.29143 0.0
C3958 C 0.34146 0.74735 0.28318 0.0
C3959 C 0.34984 0.74329 0.26801 0.0
C3960 C 0.36109 0.75481 0.26065 0.0
C3961 C 0.32788 0.73619 0.28975 0.0
C3962 C 0.33154 0.71905 0.29251 0.0
C3963 C 0.31126 0.7423 0.29276 0.0
C3964 C 0.30617 0.7599 0.28845 0.0
C3965 C 0.30885 0.76637 0.27205 0.0
C3966 C 0.30442 0.78306 0.26819 0.0
C3967 C 0.29692 0.79332 0.28049 0.0
C3968 C 0.29391 0.78692 0.29671 0.0
C3969 C 0.29851 0.77029 0.30071 0.0
H3970 H 0.29337 0.80619 0.27743 0.0
H3971 H 0.33262 0.6412 0.30073 0.0
H3972 H 0.45943 0.1097 0.53598 0.0
H3973 H 0.48084 0.09107 0.54858 0.0
H3974 H 0.51554 0.10377 0.50843 0.0
H3975 H 0.4945 0.12278 0.49603 0.0
H3976 H 0.50406 0.06499 0.51721 0.0
H3977 H 0.52735 0.11975 0.53857 0.0
H3978 H 0.52411 0.14574 0.5556 0.0
H3979 H 0.5121 0.11586 0.59941 0.0
H3980 H 0.51506 0.0897 0.58254 0.0
H3981 H 0.5874 0.04153 0.51858 0.0
H3982 H 0.55935 0.05379 0.51743 0.0
H3983 H 0.55473 0.04919 0.57169 0.0
H3984 H 0.58333 0.03716 0.57305 0.0
H3985 H 0.54514 0.07918 0.56259 0.0
H3986 H 0.53029 0.02497 0.54491 0.0
H3987 H 0.53153 0.99758 0.53001 0.0
H3988 H 0.52369 0.02271 0.48247 0.0
H3989 H 0.52284 0.05032 0.49698 0.0
C3990 C 0.47175 0.10879 0.53003 0.0
C3991 C 0.47525 0.11756 0.5149 0.0
C3992 C 0.48389 0.09811 0.53721 0.0
C3993 C 0.49959 0.096 0.52928 0.0
C3994 C 0.50338 0.10525 0.51462 0.0
C3995 C 0.49139 0.11613 0.50759 0.0
C3996 C 0.51187 0.08349 0.53558 0.0
C3997 C 0.51313 0.06797 0.52709 0.0
C3998 C 0.52283 0.0871 0.54919 0.0
C3999 C 0.5212 0.10282 0.55927 0.0
C4000 C 0.52385 0.11874 0.55179 0.0
C4001 C 0.52211 0.1335 0.56142 0.0
C4002 C 0.51784 0.13246 0.57856 0.0
C4003 C 0.51537 0.11665 0.58612 0.0
C4004 C 0.51708 0.10186 0.57654 0.0
C4005 C 0.58046 0.04295 0.53032 0.0
C4006 C 0.58771 0.03845 0.54594 0.0
C4007 C 0.56427 0.04983 0.5296 0.0
C4008 C 0.55478 0.05214 0.54443 0.0
C4009 C 0.5618 0.04741 0.56007 0.0
C4010 C 0.57814 0.04057 0.56082 0.0
C4011 C 0.53824 0.06095 0.54339 0.0
C4012 C 0.53596 0.07579 0.55295 0.0
C4013 C 0.52603 0.05642 0.53103 0.0
C4014 C 0.52659 0.03981 0.52209 0.0
C4015 C 0.52899 0.02471 0.53126 0.0
C4016 C 0.52962 0.00913 0.52287 0.0
C4017 C 0.52773 0.00842 0.50531 0.0
C4018 C 0.52518 0.02329 0.49608 0.0
C4019 C 0.52461 0.03892 0.50439 0.0
H4020 H 0.52824 0.99634 0.49885 0.0
H4021 H 0.51649 0.14389 0.58599 0.0
H4022 H 0.22713 0.32073 0.77476 0.0
H4023 H 0.21309 0.29351 0.77805 0.0
H4024 H 0.19031 0.31072 0.82462 0.0
H4025 H 0.20432 0.33821 0.82133 0.0
H4026 H 0.20692 0.26698 0.7996 0.0
H4027 H 0.14671 0.30166 0.81954 0.0
H4028 H 0.13504 0.33046 0.82141 0.0
H4029 H 0.16665 0.34635 0.78011 0.0
H4030 H 0.17804 0.31737 0.77758 0.0
H4031 H 0.13983 0.20731 0.78889 0.0
H4032 H 0.15704 0.22897 0.80284 0.0
H4033 H 0.14619 0.26371 0.76208 0.0
H4034 H 0.12851 0.24237 0.74844 0.0
H4035 H 0.14599 0.27983 0.79109 0.0
H4036 H 0.18348 0.23842 0.76378 0.0
H4037 H 0.19427 0.20929 0.76002 0.0
H4038 H 0.20825 0.20737 0.81249 0.0
H4039 H 0.19746 0.23641 0.81662 0.0
C4040 C 0.21958 0.31855 0.78601 0.0
C4041 C 0.21643 0.33173 0.79754 0.0
C4042 C 0.21167 0.30291 0.78795 0.0
C4043 C 0.20034 0.30027 0.80136 0.0
C4044 C 0.19887 0.31263 0.81408 0.0
C4045 C 0.20689 0.32832 0.81218 0.0
C4046 C 0.1878 0.28643 0.7998 0.0
C4047 C 0.19354 0.2697 0.79805 0.0
C4048 C 0.17038 0.29003 0.79755 0.0
C4049 C 0.16346 0.30745 0.79863 0.0
C4050 C 0.15115 0.3113 0.81085 0.0
C4051 C 0.14456 0.32767 0.812 0.0
C4052 C 0.15022 0.34035 0.80103 0.0
C4053 C 0.16234 0.33657 0.78869 0.0
C4054 C 0.16882 0.32015 0.78735 0.0
C4055 C 0.14092 0.21967 0.78305 0.0
C4056 C 0.13299 0.22311 0.76747 0.0
C4057 C 0.15083 0.23198 0.79099 0.0
C4058 C 0.15318 0.24783 0.78333 0.0
C4059 C 0.14459 0.25154 0.7682 0.0
C4060 C 0.13452 0.23932 0.76037 0.0
C4061 C 0.16513 0.26043 0.79046 0.0
C4062 C 0.15926 0.27695 0.79318 0.0
C4063 C 0.18245 0.25666 0.79327 0.0
C4064 C 0.18948 0.23948 0.79056 0.0
C4065 C 0.18882 0.23176 0.77452 0.0
C4066 C 0.19492 0.21528 0.77232 0.0
C4067 C 0.20178 0.20646 0.78603 0.0
C4068 C 0.20283 0.21419 0.80191 0.0
C4069 C 0.19676 0.23066 0.80418 0.0
H4070 H 0.2063 0.19364 0.78436 0.0
H4071 H 0.14517 0.35305 0.80203 0.0
H4072 H 0.40932 0.42872 0.55157 0.0
H4073 H 0.4385 0.42015 0.5562 0.0
H4074 H 0.45221 0.47201 0.56681 0.0
H4075 H 0.42268 0.48065 0.56181 0.0
H4076 H 0.46974 0.4606 0.54138 0.0
H4077 H 0.46196 0.44031 0.59611 0.0
H4078 H 0.44816 0.42656 0.62047 0.0
H4079 H 0.45054 0.37853 0.59511 0.0
H4080 H 0.46412 0.392 0.57048 0.0
H4081 H 0.54797 0.41598 0.52276 0.0
H4082 H 0.52797 0.43193 0.54042 0.0
H4083 H 0.48833 0.39675 0.52726 0.0
H4084 H 0.5081 0.381 0.5093 0.0
H4085 H 0.49118 0.40599 0.56372 0.0
H4086 H 0.48757 0.43086 0.50639 0.0
H4087 H 0.49957 0.44522 0.48141 0.0
H4088 H 0.51848 0.48515 0.51313 0.0
H4089 H 0.50641 0.47104 0.5383 0.0
C4090 C 0.41844 0.43816 0.5556 0.0
C4091 C 0.4139 0.45527 0.55642 0.0
C4092 C 0.43513 0.43326 0.55837 0.0
C4093 C 0.44762 0.44542 0.56194 0.0
C4094 C 0.44278 0.46242 0.56414 0.0
C4095 C 0.42595 0.46734 0.5614 0.0
C4096 C 0.46565 0.44065 0.5596 0.0
C4097 C 0.47472 0.44901 0.54679 0.0
C4098 C 0.47225 0.42553 0.5666 0.0
C4099 C 0.46411 0.41721 0.5814 0.0
C4100 C 0.45947 0.42683 0.59567 0.0
C4101 C 0.45168 0.41908 0.60954 0.0
C4102 C 0.44848 0.40168 0.60934 0.0
C4103 C 0.45307 0.392 0.59527 0.0
C4104 C 0.46086 0.39969 0.58135 0.0
C4105 C 0.535 0.41162 0.52372 0.0
C4106 C 0.52952 0.39728 0.51466 0.0
C4107 C 0.52365 0.42071 0.53382 0.0
C4108 C 0.50677 0.4154 0.53521 0.0
C4109 C 0.50138 0.40091 0.52644 0.0
C4110 C 0.51262 0.39201 0.51611 0.0
C4111 C 0.49427 0.4254 0.54487 0.0
C4112 C 0.48646 0.41799 0.55899 0.0
C4113 C 0.48884 0.44145 0.53921 0.0
C4114 C 0.49639 0.44976 0.52421 0.0
C4115 C 0.49446 0.4426 0.50804 0.0
C4116 C 0.50123 0.45072 0.49385 0.0
C4117 C 0.50999 0.46598 0.49569 0.0
C4118 C 0.51182 0.47326 0.51172 0.0
C4119 C 0.50497 0.46524 0.52595 0.0
H4120 H 0.51525 0.47221 0.48467 0.0
H4121 H 0.44244 0.39571 0.6201 0.0
H4122 H 0.61266 0.26454 0.22606 0.0
H4123 H 0.62729 0.24339 0.20863 0.0
H4124 H 0.6747 0.26938 0.21719 0.0
H4125 H 0.65982 0.29115 0.23331 0.0
H4126 H 0.67583 0.25822 0.18763 0.0
H4127 H 0.65955 0.23275 0.24084 0.0
H4128 H 0.63983 0.2234 0.26317 0.0
H4129 H 0.61364 0.192 0.22729 0.0
H4130 H 0.63309 0.20137 0.20468 0.0
H4131 H 0.73281 0.19108 0.20493 0.0
H4132 H 0.7148 0.21592 0.20099 0.0
H4133 H 0.67993 0.18602 0.17144 0.0
H4134 H 0.69828 0.1612 0.17491 0.0
H4135 H 0.66835 0.19808 0.20394 0.0
H4136 H 0.69277 0.21961 0.15323 0.0
H4137 H 0.71587 0.22837 0.13416 0.0
H4138 H 0.73111 0.26662 0.16967 0.0
H4139 H 0.70826 0.25795 0.18908 0.0
C4140 C 0.62618 0.26569 0.22405 0.0
C4141 C 0.63521 0.27929 0.23103 0.0
C4142 C 0.63456 0.25363 0.21416 0.0
C4143 C 0.65221 0.25455 0.21182 0.0
C4144 C 0.6611 0.26836 0.21867 0.0
C4145 C 0.65263 0.28073 0.228 0.0
C4146 C 0.6617 0.24076 0.20318 0.0
C4147 C 0.67421 0.24507 0.19124 0.0
C4148 C 0.65935 0.2235 0.20749 0.0
C4149 C 0.64759 0.21795 0.22103 0.0
C4150 C 0.64949 0.22396 0.23769 0.0
C4151 C 0.63838 0.21865 0.2504 0.0
C4152 C 0.62544 0.20717 0.24664 0.0
C4153 C 0.62363 0.20095 0.23017 0.0
C4154 C 0.63468 0.20626 0.2174 0.0
C4155 C 0.72175 0.19006 0.19686 0.0
C4156 C 0.71684 0.17432 0.19026 0.0
C4157 C 0.71149 0.20424 0.19458 0.0
C4158 C 0.69603 0.20275 0.18597 0.0
C4159 C 0.6919 0.18741 0.17799 0.0
C4160 C 0.7024 0.17328 0.17994 0.0
C4161 C 0.68285 0.21567 0.18901 0.0
C4162 C 0.66963 0.21118 0.19996 0.0
C4163 C 0.68503 0.23277 0.18431 0.0
C4164 C 0.6988 0.23807 0.17265 0.0
C4165 C 0.70112 0.22981 0.15704 0.0
C4166 C 0.71416 0.23478 0.14615 0.0
C4167 C 0.72496 0.24804 0.15071 0.0
C4168 C 0.72272 0.25637 0.16615 0.0
C4169 C 0.7097 0.25145 0.17709 0.0
H4170 H 0.73505 0.25186 0.14226 0.0
H4171 H 0.61686 0.20306 0.2565 0.0
H4172 H 0.49564 0.87165 0.99229 0.0
H4173 H 0.51627 0.89019 0.97849 0.0
H4174 H 0.47556 0.9182 0.95516 0.0
H4175 H 0.45496 0.89917 0.96824 0.0
H4176 H 0.50163 0.91734 0.93431 0.0
H4177 H 0.49431 0.93182 0.99393 0.0
H4178 H 0.49424 0.92623 0.02481 0.0
H4179 H 0.54585 0.90952 0.02212 0.0
H4180 H 0.54624 0.9151 0.99137 0.0
H4181 H 0.56343 0.99158 0.96085 0.0
H4182 H 0.53682 0.97585 0.96098 0.0
H4183 H 0.55809 0.93949 0.92618 0.0
H4184 H 0.58461 0.95559 0.92564 0.0
H4185 H 0.5403 0.94553 0.97497 0.0
H4186 H 0.52437 0.91486 0.91012 0.0
H4187 H 0.52386 0.92258 0.87986 0.0
H4188 H 0.51737 0.97493 0.89304 0.0
H4189 H 0.5176 0.96751 0.92336 0.0
C4190 C 0.49115 0.88155 0.98393 0.0
C4191 C 0.47374 0.88408 0.98144 0.0
C4192 C 0.50291 0.89219 0.97613 0.0
C4193 C 0.49743 0.90587 0.96614 0.0
C4194 C 0.48008 0.90779 0.96285 0.0
C4195 C 0.46832 0.89691 0.97036 0.0
C4196 C 0.5096 0.91896 0.96037 0.0
C4197 C 0.51012 0.92352 0.94316 0.0
C4198 C 0.5205 0.92722 0.97195 0.0
C4199 C 0.52022 0.92371 0.99039 0.0
C4200 C 0.50556 0.92685 -3e-05 0.0
C4201 C 0.50548 0.92372 0.01741 0.0
C4202 C 0.51997 0.91742 0.02536 0.0
C4203 C 0.53462 0.91435 0.01593 0.0
C4204 C 0.5348 0.91755 0.99852 0.0
C4205 C 0.5621 0.98071 0.95257 0.0
C4206 C 0.57601 0.97465 0.94336 0.0
C4207 C 0.54693 0.97171 0.95268 0.0
C4208 C 0.54558 0.95636 0.94382 0.0
C4209 C 0.55881 0.95135 0.93303 0.0
C4210 C 0.57396 0.96056 0.93271 0.0
C4211 C 0.53236 0.94405 0.94889 0.0
C4212 C 0.53177 0.93948 0.96604 0.0
C4213 C 0.52138 0.93602 0.93725 0.0
C4214 C 0.52119 0.94063 0.91904 0.0
C4215 C 0.52279 0.92802 0.90657 0.0
C4216 C 0.52255 0.93234 0.8894 0.0
C4217 C 0.52064 0.94924 0.88454 0.0
C4218 C 0.51893 0.96185 0.89683 0.0
C4219 C 0.51915 0.95759 0.91401 0.0
H4220 H 0.52045 0.95256 0.87124 0.0
H4221 H 0.51986 0.91499 0.03885 0.0
H4222 H 0.01158 0.10556 0.4964 0.0
H4223 H 0.99364 0.08403 0.48333 0.0
H4224 H 0.03662 0.06465 0.45573 0.0
H4225 H 0.0546 0.08647 0.46847 0.0
H4226 H 0.00924 0.06523 0.43594 0.0
H4227 H 0.02228 0.04285 0.49065 0.0
H4228 H 0.02526 0.04242 0.52175 0.0
H4229 H 0.9723 0.05331 0.52728 0.0
H4230 H 0.96898 0.05382 0.49624 0.0
H4231 H 0.93736 0.99663 0.4548 0.0
H4232 H 0.96704 0.00539 0.45539 0.0
H4233 H 0.95404 0.0505 0.42731 0.0
H4234 H 0.92465 0.04113 0.42589 0.0
H4235 H 0.97316 0.03032 0.47362 0.0
H4236 H 0.98723 0.07252 0.41404 0.0
H4237 H 0.98514 0.07034 0.38298 0.0
H4238 H 0.98619 0.0161 0.38639 0.0
H4239 H 0.98854 0.01792 0.41746 0.0
C4240 C 0.01719 0.09678 0.48748 0.0
C4241 C 0.03448 0.09763 0.48351 0.0
C4242 C 0.00696 0.08442 0.4801 0.0
C4243 C 0.01389 0.07252 0.46882 0.0
C4244 C 0.03106 0.07364 0.46446 0.0
C4245 C 0.04129 0.0861 0.47177 0.0
C4246 C 0.00306 0.05894 0.46174 0.0
C4247 C 0.0014 0.05745 0.4441 0.0
C4248 C 0.99337 0.04836 0.47242 0.0
C4249 C 0.99541 0.04842 0.49111 0.0
C4250 C 0.0113 0.04528 0.4985 0.0
C4251 C 0.01304 0.045 0.51612 0.0
C4252 C 0.99898 0.04788 0.52647 0.0
C4253 C 0.98317 0.05109 0.51924 0.0
C4254 C 0.98134 0.05131 0.50164 0.0
C4255 C 0.94113 0.00788 0.4479 0.0
C4256 C 0.9289 0.01825 0.44028 0.0
C4257 C 0.95804 0.01296 0.44832 0.0
C4258 C 0.96282 0.02873 0.44161 0.0
C4259 C 0.95084 0.03816 0.43238 0.0
C4260 C 0.93398 0.03284 0.43158 0.0
C4261 C 0.97855 0.03709 0.44767 0.0
C4262 C 0.9812 0.03768 0.46526 0.0
C4263 C 0.98928 0.04656 0.43688 0.0
C4264 C 0.98799 0.04537 0.41814 0.0
C4265 C 0.98713 0.06012 0.40818 0.0
C4266 C 0.98587 0.05894 0.39056 0.0
C4267 C 0.9855 0.04309 0.38272 0.0
C4268 C 0.98642 0.02837 0.39249 0.0
C4269 C 0.98769 0.02947 0.41011 0.0
H4270 H 0.98452 0.04221 0.36908 0.0
H4271 H 0.00028 0.04752 0.5401 0.0
H4272 H 0.15678 0.43213 0.47425 0.0
H4273 H 0.1707 0.40574 0.46584 0.0
H4274 H 0.15846 0.41584 0.41358 0.0
H4275 H 0.14496 0.44227 0.42172 0.0
H4276 H 0.1581 0.37835 0.45131 0.0
H4277 H 0.18763 0.3999 0.38753 0.0
H4278 H 0.19984 0.42573 0.37493 0.0
H4279 H 0.21343 0.44379 0.42438 0.0
H4280 H 0.20152 0.41797 0.43727 0.0
H4281 H 0.17023 0.31023 0.39581 0.0
H4282 H 0.16316 0.3373 0.40868 0.0
H4283 H 0.21617 0.34751 0.41698 0.0
H4284 H 0.22348 0.32044 0.40373 0.0
H4285 H 0.20044 0.3749 0.405 0.0
H4286 H 0.19056 0.3356 0.44988 0.0
H4287 H 0.17893 0.30974 0.46297 0.0
H4288 H 0.12837 0.32728 0.45341 0.0
H4289 H 0.13969 0.35313 0.44004 0.0
C4290 C 0.15718 0.42881 0.46095 0.0
C4291 C 0.14976 0.43939 0.44868 0.0
C4292 C 0.16512 0.4137 0.45617 0.0
C4293 C 0.16582 0.40891 0.43906 0.0
C4294 C 0.15841 0.41943 0.42682 0.0
C4295 C 0.15059 0.43454 0.43154 0.0
C4296 C 0.1736 0.39258 0.43395 0.0
C4297 C 0.16747 0.37761 0.44128 0.0
C4298 C 0.186 0.39161 0.42103 0.0
C4299 C 0.19358 0.40702 0.41337 0.0
C4300 C 0.19333 0.40932 0.39571 0.0
C4301 C 0.20017 0.42398 0.38852 0.0
C4302 C 0.20737 0.43641 0.39885 0.0
C4303 C 0.2078 0.43418 0.4164 0.0
C4304 C 0.201 0.41954 0.42365 0.0
C4305 C 0.18044 0.31815 0.40039 0.0
C4306 C 0.19746 0.31307 0.39879 0.0
C4307 C 0.17635 0.33363 0.40783 0.0
C4308 C 0.18911 0.34431 0.41405 0.0
C4309 C 0.20612 0.33941 0.41233 0.0
C4310 C 0.21026 0.32392 0.40478 0.0
C4311 C 0.18459 0.3607 0.42204 0.0
C4312 C 0.19128 0.37567 0.41521 0.0
C4313 C 0.17286 0.36168 0.43557 0.0
C4314 C 0.16599 0.34627 0.44388 0.0
C4315 C 0.17696 0.3339 0.4505 0.0
C4316 C 0.17043 0.31925 0.45797 0.0
C4317 C 0.15292 0.31686 0.459 0.0
C4318 C 0.14192 0.32915 0.4526 0.0
C4319 C 0.14839 0.34382 0.4451 0.0
H4320 H 0.14789 0.3055 0.46477 0.0
H4321 H 0.21262 0.44777 0.39326 0.0
H4322 H 0.9221 0.973 0.65766 0.0
H4323 H 0.8954 0.96268 0.66962 0.0
H4324 H 0.91523 0.9118 0.6702 0.0
H4325 H 0.94175 0.92187 0.65816 0.0
H4326 H 0.88466 0.91213 0.65672 0.0
H4327 H 0.91083 0.93428 0.70669 0.0
H4328 H 0.92485 0.95587 0.72437 0.0
H4329 H 0.88111 0.98792 0.72042 0.0
H4330 H 0.8669 0.9666 0.70252 0.0
H4331 H 0.82035 0.89019 0.72711 0.0
H4332 H 0.84731 0.90296 0.71874 0.0
H4333 H 0.82582 0.91702 0.67056 0.0
H4334 H 0.79894 0.9042 0.67866 0.0
H4335 H 0.85777 0.93444 0.70895 0.0
H4336 H 0.85512 0.90986 0.63993 0.0
H4337 H 0.84251 0.88627 0.62376 0.0
H4338 H 0.84197 0.85548 0.66856 0.0
H4339 H 0.85479 0.87878 0.68493 0.0
C4340 C 0.92083 0.95964 0.66047 0.0
C4341 C 0.93408 0.94828 0.65685 0.0
C4342 C 0.90557 0.95376 0.66734 0.0
C4343 C 0.90333 0.93646 0.67083 0.0
C4344 C 0.91664 0.92518 0.66753 0.0
C4345 C 0.93183 0.93101 0.66066 0.0
C4346 C 0.88695 0.92989 0.67732 0.0
C4347 C 0.87878 0.91706 0.66812 0.0
C4348 C 0.87939 0.9361 0.69234 0.0
C4349 C 0.88787 0.94892 0.70313 0.0
C4350 C 0.90425 0.94599 0.70948 0.0
C4351 C 0.91222 0.95817 0.71956 0.0
C4352 C 0.90389 0.97327 0.72348 0.0
C4353 C 0.88755 0.97622 0.71736 0.0
C4354 C 0.87953 0.96409 0.70725 0.0
C4355 C 0.82128 0.89615 0.7148 0.0
C4356 C 0.80749 0.89597 0.7035 0.0
C4357 C 0.8367 0.90348 0.71006 0.0
C4358 C 0.83863 0.91072 0.69394 0.0
C4359 C 0.82468 0.91126 0.68296 0.0
C4360 C 0.8093 0.90393 0.68765 0.0
C4361 C 0.85543 0.91688 0.68821 0.0
C4362 C 0.86364 0.92961 0.69752 0.0
C4363 C 0.86325 0.91033 0.67347 0.0
C4364 C 0.85574 0.89614 0.66368 0.0
C4365 C 0.85236 0.89803 0.64631 0.0
C4366 C 0.84518 0.88471 0.63711 0.0
C4367 C 0.84139 0.86941 0.64514 0.0
C4368 C 0.84485 0.86736 0.66237 0.0
C4369 C 0.85206 0.88063 0.67162 0.0
H4370 H 0.83581 0.85912 0.638 0.0
H4371 H 0.91008 0.98268 0.73129 0.0
H4372 H 0.32659 0.69349 0.91082 0.0
H4373 H 0.33521 0.66616 0.92227 0.0
H4374 H 0.28406 0.6477 0.91741 0.0
H4375 H 0.2752 0.67507 0.90596 0.0
H4376 H 0.30006 0.6358 0.9466 0.0
H4377 H 0.31047 0.63939 0.8868 0.0
H4378 H 0.32175 0.6524 0.86076 0.0
H4379 H 0.37233 0.64832 0.8803 0.0
H4380 H 0.36131 0.63553 0.90659 0.0
H4381 H 0.3427 0.5497 0.92137 0.0
H4382 H 0.32905 0.57656 0.91468 0.0
H4383 H 0.34291 0.59606 0.96378 0.0
H4384 H 0.3565 0.56915 0.97071 0.0
H4385 H 0.34363 0.60674 0.91186 0.0
H4386 H 0.31314 0.62546 0.97598 0.0
H4387 H 0.30013 0.61163 0.00078 0.0
H4388 H 0.28658 0.5688 0.97014 0.0
H4389 H 0.29929 0.58247 0.94512 0.0
C4390 C 0.31706 0.68375 0.91242 0.0
C4391 C 0.30022 0.68644 0.9072 0.0
C4392 C 0.32204 0.66812 0.91897 0.0
C4393 C 0.31033 0.65484 0.92041 0.0
C4394 C 0.2933 0.65779 0.91634 0.0
C4395 C 0.28828 0.67345 0.90976 0.0
C4396 C 0.31619 0.63755 0.9247 0.0
C4397 C 0.30961 0.62943 0.93906 0.0
C4398 C 0.32837 0.62912 0.9146 0.0
C4399 C 0.33505 0.63665 0.89873 0.0
C4400 C 0.32398 0.64138 0.8856 0.0
C4401 C 0.33033 0.6487 0.87079 0.0
C4402 C 0.34774 0.65122 0.86889 0.0
C4403 C 0.35884 0.64638 0.88179 0.0
C4404 C 0.35256 0.63909 0.89665 0.0
C4405 C 0.34273 0.55961 0.93085 0.0
C4406 C 0.3508 0.55724 0.94657 0.0
C4407 C 0.33493 0.57499 0.92697 0.0
C4408 C 0.33492 0.58831 0.93872 0.0
C4409 C 0.34258 0.58589 0.95458 0.0
C4410 C 0.3504 0.57049 0.9585 0.0
C4411 C 0.32775 0.60501 0.93398 0.0
C4412 C 0.3341 0.61306 0.91947 0.0
C4413 C 0.31516 0.61319 0.94379 0.0
C4414 C 0.30733 0.60493 0.95872 0.0
C4415 C 0.30733 0.61312 0.97452 0.0
C4416 C 0.30002 0.6053 0.98862 0.0
C4417 C 0.29259 0.58932 0.98705 0.0
C4418 C 0.2924 0.58114 0.97136 0.0
C4419 C 0.29968 0.58891 0.95722 0.0
H4420 H 0.28694 0.58328 0.99798 0.0
H4421 H 0.35263 0.65689 0.85741 0.0
H4422 H 0.69592 0.09804 0.1753 0.0
H4423 H 0.66891 0.08547 0.16775 0.0
H4424 H 0.65248 0.08905 0.21975 0.0
H4425 H 0.67944 0.10235 0.22736 0.0
H4426 H 0.65263 0.0588 0.1745 0.0
H4427 H 0.60985 0.09619 0.22113 0.0
H4428 H 0.60947 0.12366 0.23605 0.0
H4429 H 0.64179 0.14512 0.19796 0.0
H4430 H 0.64219 0.11786 0.18272 0.0
H4431 H 0.57019 0.02587 0.16335 0.0
H4432 H 0.59645 0.03548 0.17671 0.0
H4433 H 0.5864 0.08648 0.15985 0.0
H4434 H 0.55988 0.07713 0.14718 0.0
H4435 H 0.59925 0.08843 0.18922 0.0
H4436 H 0.6144 0.05897 0.13863 0.0
H4437 H 0.61519 0.03514 0.11847 0.0
H4438 H 0.6391 0.00386 0.15597 0.0
H4439 H 0.63827 0.02748 0.17644 0.0
C4440 C 0.68668 0.09605 0.18524 0.0
C4441 C 0.68986 0.10135 0.20195 0.0
C4442 C 0.67118 0.08879 0.18087 0.0
C4443 C 0.65851 0.08649 0.19311 0.0
C4444 C 0.66191 0.09101 0.20999 0.0
C4445 C 0.67739 0.09852 0.21435 0.0
C4446 C 0.64164 0.0799 0.18788 0.0
C4447 C 0.64096 0.06523 0.17784 0.0
C4448 C 0.62639 0.08847 0.19184 0.0
C4449 C 0.62623 0.10491 0.20093 0.0
C4450 C 0.61686 0.10678 0.21594 0.0
C4451 C 0.61664 0.12231 0.22444 0.0
C4452 C 0.62566 0.1361 0.21799 0.0
C4453 C 0.63488 0.13441 0.20299 0.0
C4454 C 0.63512 0.11891 0.19442 0.0
C4455 C 0.57353 0.03915 0.1626 0.0
C4456 C 0.56299 0.05071 0.15411 0.0
C4457 C 0.58858 0.04463 0.17019 0.0
C4458 C 0.59359 0.06168 0.16907 0.0
C4459 C 0.58284 0.07328 0.16095 0.0
C4460 C 0.56768 0.06788 0.15364 0.0
C4461 C 0.61027 0.06741 0.17574 0.0
C4462 C 0.61091 0.08187 0.18609 0.0
C4463 C 0.62557 0.05915 0.17136 0.0
C4464 C 0.62609 0.04491 0.15912 0.0
C4465 C 0.61971 0.04697 0.14262 0.0
C4466 C 0.62019 0.03351 0.13113 0.0
C4467 C 0.62714 0.01798 0.13595 0.0
C4468 C 0.63368 0.01589 0.15226 0.0
C4469 C 0.63322 0.02931 0.16381 0.0
H4470 H 0.62751 0.00757 0.12704 0.0
H4471 H 0.62547 0.14812 0.22459 0.0
H4472 H 0.17193 0.71371 0.08714 0.0
H4473 H 0.16286 0.68708 0.07423 0.0
H4474 H 0.20338 0.66084 0.09988 0.0
H4475 H 0.21297 0.68755 0.11213 0.0
H4476 H 0.20033 0.64779 0.07069 0.0
H4477 H 0.16081 0.6613 0.11447 0.0
H4478 H 0.1401 0.6786 0.13018 0.0
H4479 H 0.10752 0.67961 0.08665 0.0
H4480 H 0.12816 0.66249 0.0706 0.0
H4481 H 0.16204 0.5658 0.07688 0.0
H4482 H 0.17236 0.59425 0.08353 0.0
H4483 H 0.14366 0.61459 0.04179 0.0
H4484 H 0.13354 0.58603 0.03475 0.0
H4485 H 0.14011 0.63091 0.07678 0.0
H4486 H 0.18125 0.61401 0.03455 0.0
H4487 H 0.20215 0.59434 0.02226 0.0
H4488 H 0.23197 0.59724 0.06764 0.0
H4489 H 0.2111 0.61674 0.0803 0.0
C4490 C 0.17901 0.70228 0.08987 0.0
C4491 C 0.19312 0.70271 0.10071 0.0
C4492 C 0.17374 0.68704 0.08257 0.0
C4493 C 0.18218 0.67183 0.08636 0.0
C4494 C 0.19662 0.67236 0.09674 0.0
C4495 C 0.20211 0.68766 0.10376 0.0
C4496 C 0.17575 0.65532 0.07994 0.0
C4497 C 0.18717 0.64412 0.07214 0.0
C4498 C 0.15854 0.65045 0.08168 0.0
C4499 C 0.14613 0.6608 0.09127 0.0
C4500 C 0.1493 0.66534 0.1082 0.0
C4501 C 0.13756 0.67509 0.11717 0.0
C4502 C 0.12253 0.68025 0.10939 0.0
C4503 C 0.11919 0.67563 0.09264 0.0
C4504 C 0.1309 0.6659 0.0836 0.0
C4505 C 0.15798 0.57631 0.06905 0.0
C4506 C 0.14699 0.5737 0.05528 0.0
C4507 C 0.16391 0.59252 0.07285 0.0
C4508 C 0.15876 0.60643 0.06312 0.0
C4509 C 0.14777 0.60394 0.0494 0.0
C4510 C 0.14208 0.58765 0.04536 0.0
C4511 C 0.16468 0.6236 0.06763 0.0
C4512 C 0.15318 0.63481 0.07516 0.0
C4513 C 0.18188 0.62827 0.0661 0.0
C4514 C 0.19455 0.61673 0.05841 0.0
C4515 C 0.1922 0.61035 0.04195 0.0
C4516 C 0.20405 0.59925 0.03491 0.0
C4517 C 0.21836 0.59451 0.04418 0.0
C4518 C 0.22087 0.60091 0.06048 0.0
C4519 C 0.20905 0.61201 0.06759 0.0
H4520 H 0.22752 0.58591 0.03871 0.0
H4521 H 0.11346 0.68779 0.11636 0.0
H4522 H 0.69072 0.8862 0.32554 0.0
H4523 H 0.66277 0.89599 0.33438 0.0
H4524 H 0.65725 0.92332 0.28746 0.0
H4525 H 0.68523 0.91331 0.27828 0.0
H4526 H 0.64915 0.94152 0.32067 0.0
H4527 H 0.63656 0.89043 0.28844 0.0
H4528 H 0.64076 0.86021 0.28176 0.0
H4529 H 0.62725 0.84678 0.33267 0.0
H4530 H 0.62316 0.87694 0.33972 0.0
H4531 H 0.56366 0.96305 0.33749 0.0
H4532 H 0.5899 0.95432 0.32343 0.0
H4533 H 0.59196 0.90979 0.35513 0.0
H4534 H 0.56524 0.91789 0.36824 0.0
H4535 H 0.60178 0.90072 0.32689 0.0
H4536 H 0.61684 0.94793 0.36162 0.0
H4537 H 0.61545 0.97707 0.37276 0.0
H4538 H 0.6273 0.99675 0.32347 0.0
H4539 H 0.62855 0.96771 0.312 0.0
C4540 C 0.68363 0.89435 0.31709 0.0
C4541 C 0.6902 0.89899 0.30119 0.0
C4542 C 0.66765 0.89988 0.32216 0.0
C4543 C 0.658 0.9103 0.31154 0.0
C4544 C 0.66457 0.91525 0.2958 0.0
C4545 C 0.6805 0.90949 0.29057 0.0
C4546 C 0.64096 0.91583 0.31696 0.0
C4547 C 0.63863 0.93274 0.32175 0.0
C4548 C 0.62759 0.90413 0.319 0.0
C4549 C 0.62964 0.88596 0.31463 0.0
C4550 C 0.63457 0.88104 0.29824 0.0
C4551 C 0.63691 0.86392 0.29438 0.0
C4552 C 0.63428 0.85159 0.30678 0.0
C4553 C 0.62926 0.85634 0.32307 0.0
C4554 C 0.6269 0.87345 0.32699 0.0
C4555 C 0.56971 0.95135 0.34133 0.0
C4556 C 0.56245 0.94115 0.35394 0.0
C4557 C 0.58477 0.94642 0.33339 0.0
C4558 C 0.59319 0.93153 0.33841 0.0
C4559 C 0.58578 0.92129 0.35092 0.0
C4560 C 0.5705 0.92595 0.35847 0.0
C4561 C 0.60977 0.92658 0.33084 0.0
C4562 C 0.61211 0.90969 0.32567 0.0
C4563 C 0.62337 0.93819 0.32908 0.0
C4564 C 0.62259 0.95567 0.33591 0.0
C4565 C 0.61902 0.95848 0.35313 0.0
C4566 C 0.61828 0.97498 0.35951 0.0
C4567 C 0.62123 0.98876 0.34882 0.0
C4568 C 0.62498 0.98607 0.33173 0.0
C4569 C 0.62571 0.96959 0.32529 0.0
H4570 H 0.62065 0.00152 0.35378 0.0
H4571 H 0.6361 0.83834 0.30378 0.0
H4572 H 0.33594 0.43463 0.57252 0.0
H4573 H 0.32544 0.40734 0.58244 0.0
H4574 H 0.33547 0.3854 0.53347 0.0
H4575 H 0.34598 0.41269 0.52331 0.0
H4576 H 0.3057 0.37341 0.5475 0.0
H4577 H 0.36387 0.38061 0.56329 0.0
H4578 H 0.38827 0.39538 0.576 0.0
H4579 H 0.36425 0.39368 0.62475 0.0
H4580 H 0.33957 0.37913 0.61226 0.0
H4581 H 0.32986 0.29178 0.59866 0.0
H4582 H 0.3369 0.31799 0.58395 0.0
H4583 H 0.28578 0.33587 0.59102 0.0
H4584 H 0.27852 0.30958 0.60562 0.0
H4585 H 0.33698 0.34915 0.59632 0.0
H4586 H 0.27558 0.3626 0.55836 0.0
H4587 H 0.25283 0.34674 0.54396 0.0
H4588 H 0.28645 0.30465 0.5366 0.0
H4589 H 0.30945 0.32035 0.55074 0.0
C4590 C 0.33569 0.42411 0.56372 0.0
C4591 C 0.34202 0.42585 0.54715 0.0
C4592 C 0.32971 0.4085 0.56946 0.0
C4593 C 0.32994 0.39432 0.55877 0.0
C4594 C 0.33525 0.3962 0.54193 0.0
C4595 C 0.34129 0.41182 0.53617 0.0
C4596 C 0.32579 0.37732 0.56552 0.0
C4597 C 0.31248 0.36809 0.5582 0.0
C4598 C 0.33493 0.37026 0.57922 0.0
C4599 C 0.34979 0.37893 0.5868 0.0
C4600 C 0.36373 0.38351 0.57669 0.0
C4601 C 0.37762 0.39182 0.58386 0.0
C4602 C 0.37779 0.3955 0.60117 0.0
C4603 C 0.36409 0.39084 0.61134 0.0
C4604 C 0.35014 0.38255 0.60422 0.0
C4605 C 0.32002 0.30118 0.59695 0.0
C4606 C 0.30361 0.29855 0.60339 0.0
C4607 C 0.3241 0.31619 0.58856 0.0
C4608 C 0.31187 0.32888 0.58635 0.0
C4609 C 0.29537 0.32617 0.59239 0.0
C4610 C 0.29125 0.31112 0.60077 0.0
C4611 C 0.31665 0.34527 0.57851 0.0
C4612 C 0.33012 0.35443 0.58565 0.0
C4613 C 0.30787 0.35208 0.56444 0.0
C4614 C 0.29417 0.3426 0.55577 0.0
C4615 C 0.27813 0.34999 0.55361 0.0
C4616 C 0.26519 0.34102 0.5455 0.0
C4617 C 0.26818 0.32468 0.53942 0.0
C4618 C 0.28413 0.31729 0.54138 0.0
C4619 C 0.29711 0.3262 0.54946 0.0
H4620 H 0.25814 0.31776 0.53315 0.0
H4621 H 0.38856 0.40193 0.6067 0.0
H4622 H 0.93114 0.03237 0.83166 0.0
H4623 H 0.90456 0.04072 0.8182 0.0
H4624 H 0.91276 0.0924 0.83387 0.0
H4625 H 0.93947 0.0843 0.84702 0.0
H4626 H 0.8766 0.05335 0.83156 0.0
H4627 H 0.89553 0.11939 0.80571 0.0
H4628 H 0.92089 0.1339 0.79467 0.0
H4629 H 0.94165 0.0862 0.77887 0.0
H4630 H 0.91631 0.07143 0.7896 0.0
H4631 H 0.80472 0.10433 0.81692 0.0
H4632 H 0.83195 0.09275 0.82562 0.0
H4633 H 0.84684 0.08791 0.77329 0.0
H4634 H 0.81973 0.09994 0.76442 0.0
H4635 H 0.87178 0.10104 0.79096 0.0
H4636 H 0.83542 0.05297 0.79746 0.0
H4637 H 0.8102 0.0375 0.80745 0.0
H4638 H 0.82463 0.04673 0.85906 0.0
H4639 H 0.84982 0.06246 0.84938 0.0
C4640 C 0.92738 0.04555 0.83213 0.0
C4641 C 0.9375 0.05766 0.84042 0.0
C4642 C 0.91214 0.05028 0.82447 0.0
C4643 C 0.90673 0.0672 0.82489 0.0
C4644 C 0.91681 0.07932 0.83311 0.0
C4645 C 0.93208 0.07463 0.84069 0.0
C4646 C 0.89027 0.07212 0.81725 0.0
C4647 C 0.87555 0.06372 0.82262 0.0
C4648 C 0.88892 0.08551 0.8054 0.0
C4649 C 0.90407 0.0943 0.79859 0.0
C4650 C 0.90546 0.11201 0.79979 0.0
C4651 C 0.91984 0.12028 0.79361 0.0
C4652 C 0.93289 0.11097 0.78612 0.0
C4653 C 0.93156 0.09339 0.78473 0.0
C4654 C 0.91719 0.08506 0.79088 0.0
C4655 C 0.8137 0.1007 0.80721 0.0
C4656 C 0.80998 0.10305 0.78994 0.0
C4657 C 0.82927 0.09401 0.81223 0.0
C4658 C 0.84138 0.08926 0.80011 0.0
C4659 C 0.83769 0.09147 0.78287 0.0
C4660 C 0.82215 0.09831 0.77782 0.0
C4661 C 0.85807 0.08246 0.8055 0.0
C4662 C 0.87283 0.09056 0.79977 0.0
C4663 C 0.85949 0.06863 0.81682 0.0
C4664 C 0.84445 0.05899 0.82268 0.0
C4665 C 0.83316 0.05179 0.81094 0.0
C4666 C 0.81888 0.04296 0.81655 0.0
C4667 C 0.8158 0.04116 0.83388 0.0
C4668 C 0.82703 0.04814 0.84564 0.0
C4669 C 0.84132 0.05699 0.8401 0.0
H4670 H 0.80472 0.03434 0.83819 0.0
H4671 H 0.94403 0.1174 0.78136 0.0
H4672 H 0.46659 0.16361 0.42892 0.0
H4673 H 0.45619 0.17319 0.4012 0.0
H4674 H 0.41031 0.1445 0.40838 0.0
H4675 H 0.42031 0.13531 0.43624 0.0
H4676 H 0.43231 0.14067 0.37497 0.0
H4677 H 0.40216 0.17948 0.4126 0.0
H4678 H 0.40114 0.20069 0.4355 0.0
H4679 H 0.43439 0.23315 0.40726 0.0
H4680 H 0.43581 0.21197 0.38431 0.0
H4681 H 0.37833 0.16378 0.30844 0.0
H4682 H 0.39089 0.15636 0.33562 0.0
H4683 H 0.42014 0.20255 0.33486 0.0
H4684 H 0.40682 0.21048 0.30798 0.0
H4685 H 0.40908 0.19817 0.36487 0.0
H4686 H 0.43753 0.16185 0.32598 0.0
H4687 H 0.44019 0.14102 0.30286 0.0
H4688 H 0.41331 0.10423 0.33252 0.0
H4689 H 0.41024 0.12492 0.35571 0.0
C4690 C 0.45424 0.15945 0.42462 0.0
C4691 C 0.44421 0.14879 0.43475 0.0
C4692 C 0.44835 0.16492 0.40884 0.0
C4693 C 0.43253 0.1595 0.40286 0.0
C4694 C 0.42255 0.14879 0.41287 0.0
C4695 C 0.42824 0.14365 0.42878 0.0
C4696 C 0.42641 0.16483 0.38604 0.0
C4697 C 0.42709 0.15317 0.3727 0.0
C4698 C 0.42019 0.18131 0.38313 0.0
C4699 C 0.41928 0.19406 0.39686 0.0
C4700 C 0.40941 0.19105 0.41137 0.0
C4701 C 0.40872 0.20309 0.42433 0.0
C4702 C 0.41774 0.21824 0.42287 0.0
C4703 C 0.42744 0.2214 0.4084 0.0
C4704 C 0.42818 0.20939 0.39541 0.0
C4705 C 0.38752 0.17231 0.31401 0.0
C4706 C 0.39173 0.18764 0.30603 0.0
C4707 C 0.39477 0.16802 0.32953 0.0
C4708 C 0.4068 0.17868 0.33715 0.0
C4709 C 0.41095 0.19407 0.32922 0.0
C4710 C 0.40338 0.19857 0.31385 0.0
C4711 C 0.41467 0.17391 0.35356 0.0
C4712 C 0.4144 0.18568 0.36692 0.0
C4713 C 0.42155 0.15756 0.3564 0.0
C4714 C 0.42354 0.145 0.34254 0.0
C4715 C 0.4321 0.14935 0.32753 0.0
C4716 C 0.43368 0.13756 0.31442 0.0
C4717 C 0.4269 0.12133 0.31621 0.0
C4718 C 0.41855 0.11682 0.33114 0.0
C4719 C 0.4169 0.12857 0.34429 0.0
H4720 H 0.42813 0.11222 0.30603 0.0
H4721 H 0.41719 0.22754 0.43291 0.0
H4722 H 0.08063 0.14698 0.55419 0.0
H4723 H 0.08832 0.15887 0.58164 0.0
H4724 H 0.03578 0.15971 0.5963 0.0
H4725 H 0.02785 0.14736 0.56888 0.0
H4726 H 0.06255 0.19165 0.6028 0.0
H4727 H 0.0497 0.13089 0.61195 0.0
H4728 H 0.05352 0.10098 0.60381 0.0
H4729 H 0.10726 0.10573 0.61022 0.0
H4730 H 0.10382 0.13577 0.61811 0.0
H4731 H 0.07771 0.20882 0.68943 0.0
H4732 H 0.06574 0.19904 0.66252 0.0
H4733 H 0.10917 0.16654 0.6552 0.0
H4734 H 0.12023 0.17523 0.68277 0.0
H4735 H 0.0852 0.15049 0.64452 0.0
H4736 H 0.10206 0.20742 0.63413 0.0
H4737 H 0.10376 0.23829 0.63848 0.0
H4738 H 0.05014 0.24263 0.63051 0.0
H4739 H 0.0481 0.21173 0.62632 0.0
C4740 C 0.07062 0.14992 0.56309 0.0
C4741 C 0.05359 0.14614 0.55934 0.0
C4742 C 0.07508 0.1567 0.57878 0.0
C4743 C 0.06261 0.16006 0.59091 0.0
C4744 C 0.04553 0.15717 0.587 0.0
C4745 C 0.04105 0.1501 0.57137 0.0
C4746 C 0.06769 0.16546 0.60806 0.0
C4747 C 0.06721 0.1827 0.61213 0.0
C4748 C 0.07455 0.1538 0.61973 0.0
C4749 C 0.07651 0.13561 0.61546 0.0
C4750 C 0.06234 0.1256 0.61149 0.0
C4751 C 0.06443 0.10862 0.60694 0.0
C4752 C 0.0806 0.10147 0.60644 0.0
C4753 C 0.09473 0.11128 0.61058 0.0
C4754 C 0.09272 0.12828 0.61511 0.0
C4755 C 0.08456 0.19951 0.68204 0.0
C4756 C 0.09983 0.19274 0.68803 0.0
C4757 C 0.07783 0.19403 0.66659 0.0
C4758 C 0.08669 0.18229 0.6565 0.0
C4759 C 0.10199 0.17554 0.66265 0.0
C4760 C 0.10836 0.18054 0.67837 0.0
C4761 C 0.08008 0.17693 0.63963 0.0
C4762 C 0.08036 0.15961 0.63546 0.0
C4763 C 0.07374 0.18867 0.62757 0.0
C4764 C 0.0749 0.20724 0.63011 0.0
C4765 C 0.09061 0.21494 0.63343 0.0
C4766 C 0.09164 0.23245 0.63584 0.0
C4767 C 0.07706 0.24241 0.63482 0.0
C4768 C 0.06142 0.23489 0.63133 0.0
C4769 C 0.06032 0.21738 0.62892 0.0
H4770 H 0.07788 0.25596 0.63669 0.0
H4771 H 0.08217 0.08832 0.60289 0.0
H4772 H 0.02717 0.83582 0.93048 0.0
H4773 H 0.0357 0.82432 0.90278 0.0
H4774 H 0.07989 0.85637 0.90307 0.0
H4775 H 0.07183 0.86746 0.93082 0.0
H4776 H 0.05548 0.85544 0.8715 0.0
H4777 H 0.09024 0.82231 0.91097 0.0
H4778 H 0.09371 0.80318 0.9354 0.0
H4779 H 0.06176 0.7663 0.91138 0.0
H4780 H 0.05789 0.78537 0.88691 0.0
H4781 H 0.11217 0.83386 0.80774 0.0
H4782 H 0.09819 0.84122 0.83415 0.0
H4783 H 0.07418 0.79212 0.83532 0.0
H4784 H 0.089 0.78432 0.80913 0.0
H4785 H 0.08364 0.79959 0.86548 0.0
H4786 H 0.0524 0.82991 0.82398 0.0
H4787 H 0.04793 0.84855 0.79934 0.0
H4788 H 0.07041 0.89007 0.82631 0.0
H4789 H 0.07528 0.87163 0.85102 0.0
C4790 C 0.03871 0.84035 0.92462 0.0
C4791 C 0.04889 0.85244 0.93282 0.0
C4792 C 0.04355 0.83378 0.90887 0.0
C4793 C 0.05841 0.83953 0.901 0.0
C4794 C 0.0684 0.85179 0.90902 0.0
C4795 C 0.06381 0.85803 0.92488 0.0
C4796 C 0.06369 0.8329 0.88434 0.0
C4797 C 0.06167 0.84326 0.8701 0.0
C4798 C 0.07122 0.81679 0.88257 0.0
C4799 C 0.07357 0.80536 0.89725 0.0
C4800 C 0.08379 0.81021 0.91099 0.0
C4801 C 0.08587 0.79936 0.92482 0.0
C4802 C 0.07791 0.78356 0.92497 0.0
C4803 C 0.06788 0.77857 0.91127 0.0
C4804 C 0.06574 0.78939 0.89742 0.0
C4805 C 0.10385 0.82463 0.81356 0.0
C4806 C 0.10155 0.80856 0.80627 0.0
C4807 C 0.09576 0.8289 0.82864 0.0
C4808 C 0.08471 0.81742 0.83654 0.0
C4809 C 0.08253 0.80125 0.82941 0.0
C4810 C 0.09097 0.79681 0.81445 0.0
C4811 C 0.07588 0.82232 0.85245 0.0
C4812 C 0.07718 0.81165 0.86663 0.0
C4813 C 0.06743 0.83809 0.8541 0.0
C4814 C 0.06429 0.84933 0.83934 0.0
C4815 C 0.05647 0.843 0.82463 0.0
C4816 C 0.05387 0.85353 0.81065 0.0
C4817 C 0.0589 0.87048 0.81125 0.0
C4818 C 0.06651 0.87694 0.82586 0.0
C4819 C 0.06918 0.86645 0.83987 0.0
H4820 H 0.05689 0.87861 0.8004 0.0
H4821 H 0.07954 0.77517 0.93568 0.0
H4822 H 0.42251 0.85761 0.06066 0.0
H4823 H 0.41456 0.84717 0.08856 0.0
H4824 H 0.46725 0.83943 0.10082 0.0
H4825 H 0.47536 0.8505 0.07306 0.0
H4826 H 0.4173 0.81838 0.1025 0.0
H4827 H 0.47382 0.84254 0.1426 0.0
H4828 H 0.49347 0.86682 0.14374 0.0
H4829 H 0.45687 0.89798 0.11841 0.0
H4830 H 0.43703 0.87388 0.11701 0.0
H4831 H 0.41179 0.77732 0.18145 0.0
H4832 H 0.42356 0.78856 0.15512 0.0
H4833 H 0.41389 0.83948 0.1724 0.0
H4834 H 0.40261 0.82844 0.19888 0.0
H4835 H 0.44244 0.83914 0.1562 0.0
H4836 H 0.38653 0.81892 0.14524 0.0
H4837 H 0.36309 0.79829 0.14479 0.0
H4838 H 0.39219 0.76551 0.11261 0.0
H4839 H 0.4159 0.78587 0.11305 0.0
C4840 C 0.43244 0.8537 0.06928 0.0
C4841 C 0.44958 0.85483 0.06459 0.0
C4842 C 0.42786 0.84772 0.08525 0.0
C4843 C 0.44028 0.84259 0.09689 0.0
C4844 C 0.45743 0.84361 0.09222 0.0
C4845 C 0.46205 0.84984 0.07629 0.0
C4846 C 0.43515 0.83576 0.11368 0.0
C4847 C 0.42286 0.82292 0.11422 0.0
C4848 C 0.44211 0.84185 0.12905 0.0
C4849 C 0.45403 0.85635 0.12956 0.0
C4850 C 0.46999 0.85456 0.13724 0.0
C4851 C 0.48116 0.86828 0.13789 0.0
C4852 C 0.47645 0.8839 0.13103 0.0
C4853 C 0.46055 0.88583 0.12353 0.0
C4854 C 0.44936 0.87213 0.12276 0.0
C4855 C 0.41234 0.79092 0.17974 0.0
C4856 C 0.40609 0.80195 0.19225 0.0
C4857 C 0.41902 0.79733 0.16464 0.0
C4858 C 0.41934 0.81487 0.16164 0.0
C4859 C 0.41377 0.8259 0.17439 0.0
C4860 C 0.40725 0.81953 0.18954 0.0
C4861 C 0.42468 0.82174 0.14496 0.0
C4862 C 0.43701 0.83454 0.14444 0.0
C4863 C 0.41727 0.81611 0.12963 0.0
C4864 C 0.40306 0.80383 0.12934 0.0
C4865 C 0.38798 0.80725 0.13818 0.0
C4866 C 0.37464 0.79562 0.13791 0.0
C4867 C 0.37617 0.78057 0.12872 0.0
C4868 C 0.39103 0.77716 0.11975 0.0
C4869 C 0.40443 0.78874 0.12 0.0
H4870 H 0.36583 0.77159 0.12852 0.0
H4871 H 0.4851 0.89452 0.1316 0.0
H4872 H 0.42725 0.47245 0.14477 0.0
H4873 H 0.39919 0.4664 0.15663 0.0
H4874 H 0.4093 0.41283 0.15312 0.0
H4875 H 0.43733 0.41871 0.14188 0.0
H4876 H 0.37221 0.45074 0.14507 0.0
H4877 H 0.39166 0.39129 0.18415 0.0
H4878 H 0.41649 0.38086 0.19997 0.0
H4879 H 0.43331 0.43195 0.20787 0.0
H4880 H 0.40846 0.44271 0.19232 0.0
H4881 H 0.30327 0.39614 0.15963 0.0
H4882 H 0.32934 0.41088 0.15229 0.0
H4883 H 0.33874 0.4209 0.2052 0.0
H4884 H 0.31299 0.40544 0.21268 0.0
H4885 H 0.36583 0.40988 0.19235 0.0
H4886 H 0.32771 0.4531 0.17558 0.0
H4887 H 0.30273 0.46543 0.16151 0.0
H4888 H 0.32267 0.45121 0.11298 0.0
H4889 H 0.3477 0.43861 0.12676 0.0
C4890 C 0.42352 0.45939 0.14663 0.0
C4891 C 0.43464 0.44608 0.14254 0.0
C4892 C 0.40746 0.45595 0.15336 0.0
C4893 C 0.40223 0.43917 0.15605 0.0
C4894 C 0.41318 0.4259 0.1516 0.0
C4895 C 0.42923 0.4293 0.1451 0.0
C4896 C 0.38531 0.4353 0.16334 0.0
C4897 C 0.37079 0.44192 0.15549 0.0
C4898 C 0.38343 0.42415 0.17726 0.0
C4899 C 0.39823 0.41779 0.18697 0.0
C4900 C 0.40059 0.4003 0.18936 0.0
C4901 C 0.41469 0.39433 0.19826 0.0
C4902 C 0.42649 0.40573 0.20489 0.0
C4903 C 0.42418 0.42313 0.20269 0.0
C4904 C 0.4101 0.42917 0.19383 0.0
C4905 C 0.31073 0.40171 0.16971 0.0
C4906 C 0.30607 0.39956 0.18676 0.0
C4907 C 0.32563 0.41025 0.16548 0.0
C4908 C 0.33599 0.41722 0.17816 0.0
C4909 C 0.33102 0.41562 0.19517 0.0
C4910 C 0.31626 0.40681 0.19944 0.0
C4911 C 0.35264 0.42489 0.17374 0.0
C4912 C 0.36716 0.41894 0.18211 0.0
C4913 C 0.35446 0.43701 0.16064 0.0
C4914 C 0.33956 0.44482 0.15223 0.0
C4915 C 0.32674 0.45252 0.16191 0.0
C4916 C 0.31256 0.45956 0.15398 0.0
C4917 C 0.31109 0.45906 0.13636 0.0
C4918 C 0.32383 0.45158 0.12663 0.0
C4919 C 0.33803 0.44452 0.13449 0.0
H4920 H 0.30008 0.46449 0.13026 0.0
H4921 H 0.43741 0.40108 0.21174 0.0
H4922 H 0.86001 0.91665 0.03139 0.0
H4923 H 0.8466 0.89033 0.04055 0.0
H4924 H 0.82659 0.9157 0.08457 0.0
H4925 H 0.84006 0.94203 0.07566 0.0
H4926 H 0.84304 0.88713 0.0928 0.0
H4927 H 0.8007 0.90331 0.05219 0.0
H4928 H 0.7903 0.91208 0.02409 0.0
H4929 H 0.80941 0.86607 0.00232 0.0
H4930 H 0.82014 0.85712 0.03027 0.0
H4931 H 0.78705 0.82193 0.12174 0.0
H4932 H 0.79662 0.84884 0.10949 0.0
H4933 H 0.82487 0.82161 0.07152 0.0
H4934 H 0.81589 0.79466 0.08412 0.0
H4935 H 0.80412 0.85072 0.05956 0.0
H4936 H 0.8454 0.83401 0.10028 0.0
H4937 H 0.85782 0.82596 0.12769 0.0
H4938 H 0.84326 0.87394 0.14868 0.0
H4939 H 0.82971 0.88183 0.12177 0.0
C4940 C 0.85252 0.91674 0.04288 0.0
C4941 C 0.85119 0.93148 0.05282 0.0
C4942 C 0.84483 0.90166 0.04807 0.0
C4943 C 0.83554 0.90107 0.06321 0.0
C4944 C 0.83372 0.91588 0.07286 0.0
C4945 C 0.84142 0.93094 0.06771 0.0
C4946 C 0.82881 0.88478 0.0697 0.0
C4947 C 0.83424 0.87932 0.0857 0.0
C4948 C 0.8179 0.87432 0.06008 0.0
C4949 C 0.81136 0.87962 0.0433 0.0
C4950 C 0.8028 0.89512 0.04139 0.0
C4951 C 0.79683 0.90011 0.02549 0.0
C4952 C 0.79923 0.88966 0.01142 0.0
C4953 C 0.80757 0.87416 0.01323 0.0
C4954 C 0.81359 0.86911 0.0291 0.0
C4955 C 0.79513 0.82171 0.11066 0.0
C4956 C 0.80072 0.80626 0.10382 0.0
C4957 C 0.80063 0.83705 0.10374 0.0
C4958 C 0.81146 0.83715 0.08965 0.0
C4959 C 0.8165 0.82175 0.08239 0.0
C4960 C 0.81139 0.80641 0.08959 0.0
C4961 C 0.81804 0.85333 0.08287 0.0
C4962 C 0.81272 0.85865 0.06677 0.0
C4963 C 0.82912 0.8637 0.0924 0.0
C4964 C 0.83616 0.85837 0.10903 0.0
C4965 C 0.84432 0.84264 0.11087 0.0
C4966 C 0.85161 0.8381 0.12635 0.0
C4967 C 0.85119 0.84935 0.13999 0.0
C4968 C 0.8434 0.86513 0.1382 0.0
C4969 C 0.83578 0.86958 0.12287 0.0
H4970 H 0.85699 0.84589 0.15192 0.0
H4971 H 0.7946 0.89355 0.99912 0.0
H4972 H 0.17443 0.61096 0.71423 0.0
H4973 H 0.14816 0.59736 0.70536 0.0
H4974 H 0.17505 0.57101 0.66573 0.0
H4975 H 0.20126 0.58521 0.67409 0.0
H4976 H 0.1482 0.58356 0.65309 0.0
H4977 H 0.15868 0.55072 0.70271 0.0
H4978 H 0.1652 0.54543 0.73278 0.0
H4979 H 0.11978 0.57143 0.74751 0.0
H4980 H 0.11309 0.57707 0.71753 0.0
H4981 H 0.07725 0.53239 0.63139 0.0
H4982 H 0.10479 0.53984 0.64351 0.0
H4983 H 0.08089 0.57726 0.67526 0.0
H4984 H 0.0533 0.57007 0.6631 0.0
H4985 H 0.10659 0.55682 0.69182 0.0
H4986 H 0.09777 0.59083 0.64155 0.0
H4987 H 0.09138 0.595 0.61128 0.0
H4988 H 0.13457 0.56489 0.59772 0.0
H4989 H 0.14106 0.56031 0.62795 0.0
C4990 C 0.17481 0.60205 0.70381 0.0
C4991 C 0.18993 0.59916 0.69487 0.0
C4992 C 0.15977 0.59421 0.69877 0.0
C4993 C 0.15959 0.58296 0.68497 0.0
C4994 C 0.17482 0.57965 0.67639 0.0
C4995 C 0.18981 0.58773 0.68121 0.0
C4996 C 0.14338 0.57561 0.67879 0.0
C4997 C 0.1393 0.57741 0.66156 0.0
C4998 C 0.13151 0.56786 0.68981 0.0
C4999 C 0.13546 0.56443 0.70787 0.0
C5000 C 0.15014 0.55541 0.71236 0.0
C5001 C 0.15386 0.55233 0.7294 0.0
C5002 C 0.14293 0.55812 0.74205 0.0
C5003 C 0.12824 0.56697 0.7377 0.0
C5004 C 0.12447 0.57008 0.72068 0.0
C5005 C 0.0778 0.54204 0.64112 0.0
C5006 C 0.06309 0.55071 0.64622 0.0
C5007 C 0.09355 0.5463 0.64799 0.0
C5008 C 0.09483 0.55915 0.66019 0.0
C5009 C 0.08012 0.5673 0.66586 0.0
C5010 C 0.06439 0.56322 0.65884 0.0
C5011 C 0.11162 0.56483 0.66629 0.0
C5012 C 0.11569 0.56278 0.68344 0.0
C5013 C 0.12358 0.57217 0.65519 0.0
C5014 C 0.11978 0.57505 0.63701 0.0
C5015 C 0.10581 0.58496 0.63212 0.0
C5016 C 0.10219 0.58743 0.61497 0.0
C5017 C 0.11253 0.58017 0.60258 0.0
C5018 C 0.12655 0.57047 0.60733 0.0
C5019 C 0.13021 0.56795 0.62447 0.0
H5020 H 0.1097 0.58208 0.58931 0.0
H5021 H 0.14584 0.55573 0.75523 0.0
H5022 H 0.64586 0.94575 0.9182 0.0
H5023 H 0.65677 0.91824 0.90969 0.0
H5024 H 0.6648 0.90507 0.96212 0.0
H5025 H 0.65319 0.93245 0.9708 0.0
H5026 H 0.68455 0.90246 0.91143 0.0
H5027 H 0.65888 0.86308 0.96811 0.0
H5028 H 0.63503 0.86363 0.9883 0.0
H5029 H 0.60545 0.89255 0.95302 0.0
H5030 H 0.62903 0.89198 0.93255 0.0
H5031 H 0.71895 0.82034 0.90317 0.0
H5032 H 0.71045 0.84778 0.91473 0.0
H5033 H 0.65788 0.83399 0.90888 0.0
H5034 H 0.66626 0.80638 0.89799 0.0
H5035 H 0.66072 0.85006 0.93656 0.0
H5036 H 0.67907 0.86038 0.88009 0.0
H5037 H 0.6983 0.85986 0.85549 0.0
H5038 H 0.73491 0.88904 0.88316 0.0
H5039 H 0.71596 0.88957 0.90801 0.0
C5040 C 0.65003 0.93708 0.92797 0.0
C5041 C 0.64853 0.94129 0.94522 0.0
C5042 C 0.65632 0.92132 0.92305 0.0
C5043 C 0.66142 0.90943 0.93524 0.0
C5044 C 0.66061 0.91386 0.95247 0.0
C5045 C 0.65405 0.92956 0.95742 0.0
C5046 C 0.66711 0.89231 0.92981 0.0
C5047 C 0.67939 0.89101 0.91701 0.0
C5048 C 0.66007 0.87731 0.93669 0.0
C5049 C 0.6458 0.87767 0.9489 0.0
C5050 C 0.64727 0.86953 0.96466 0.0
C5051 C 0.6338 0.86984 0.97615 0.0
C5052 C 0.61876 0.87818 0.97197 0.0
C5053 C 0.61713 0.88616 0.95627 0.0
C5054 C 0.63055 0.88587 0.94473 0.0
C5055 C 0.70558 0.82311 0.90447 0.0
C5056 C 0.69329 0.81117 0.89959 0.0
C5057 C 0.70073 0.83884 0.911 0.0
C5058 C 0.68351 0.8431 0.91243 0.0
C5059 C 0.67125 0.83104 0.90795 0.0
C5060 C 0.67607 0.81523 0.90167 0.0
C5061 C 0.67819 0.86022 0.91823 0.0
C5062 C 0.666 0.86151 0.93111 0.0
C5063 C 0.6847 0.87521 0.91083 0.0
C5064 C 0.69619 0.87484 0.89597 0.0
C5065 C 0.69128 0.86656 0.88098 0.0
C5066 C 0.70212 0.86629 0.86698 0.0
C5067 C 0.71784 0.87437 0.86778 0.0
C5068 C 0.72274 0.88276 0.88257 0.0
C5069 C 0.71196 0.88306 0.89661 0.0
H5070 H 0.7262 0.87415 0.85693 0.0
H5071 H 0.60835 0.87841 0.98088 0.0
H5072 H 0.8265 0.19872 0.408 0.0
H5073 H 0.83601 0.17157 0.41931 0.0
H5074 H 0.80447 0.14537 0.38314 0.0
H5075 H 0.79432 0.17253 0.37231 0.0
H5076 H 0.80276 0.1296 0.41135 0.0
H5077 H 0.8487 0.15029 0.37801 0.0
H5078 H 0.87022 0.17073 0.3683 0.0
H5079 H 0.89312 0.1705 0.41762 0.0
H5080 H 0.87159 0.15022 0.42769 0.0
H5081 H 0.847 0.05061 0.41694 0.0
H5082 H 0.83558 0.07755 0.40682 0.0
H5083 H 0.85785 0.10323 0.44957 0.0
H5084 H 0.86928 0.07636 0.45987 0.0
H5085 H 0.86431 0.11874 0.41776 0.0
H5086 H 0.81709 0.09663 0.44997 0.0
H5087 H 0.7959 0.07495 0.45749 0.0
H5088 H 0.776 0.07642 0.4069 0.0
H5089 H 0.79723 0.09795 0.39902 0.0
C5090 C 0.82154 0.18716 0.40252 0.0
C5091 C 0.80973 0.18774 0.38923 0.0
C5092 C 0.82706 0.17164 0.40892 0.0
C5093 C 0.82126 0.15639 0.40183 0.0
C5094 C 0.80917 0.15695 0.38879 0.0
C5095 C 0.80338 0.17248 0.38261 0.0
C5096 C 0.82784 0.13987 0.40796 0.0
C5097 C 0.81623 0.12719 0.41253 0.0
C5098 C 0.84543 0.13669 0.40967 0.0
C5099 C 0.85843 0.14886 0.40365 0.0
C5100 C 0.85825 0.15469 0.38682 0.0
C5101 C 0.87046 0.16623 0.38125 0.0
C5102 C 0.883 0.17194 0.39235 0.0
C5103 C 0.88339 0.16608 0.40904 0.0
C5104 C 0.87119 0.15455 0.41469 0.0
C5105 C 0.84944 0.06197 0.42424 0.0
C5106 C 0.85905 0.06132 0.43923 0.0
C5107 C 0.84285 0.07733 0.41846 0.0
C5108 C 0.84583 0.09232 0.4275 0.0
C5109 C 0.85542 0.09176 0.44244 0.0
C5110 C 0.86186 0.07638 0.44833 0.0
C5111 C 0.83923 0.10867 0.4212 0.0
C5112 C 0.85086 0.12126 0.41657 0.0
C5113 C 0.8217 0.11161 0.41908 0.0
C5114 C 0.80885 0.09878 0.42387 0.0
C5115 C 0.80828 0.09223 0.44041 0.0
C5116 C 0.79625 0.07999 0.44475 0.0
C5117 C 0.78464 0.07428 0.43267 0.0
C5118 C 0.78501 0.08084 0.41624 0.0
C5119 C 0.79703 0.09308 0.41184 0.0
H5120 H 0.77534 0.0648 0.43605 0.0
H5121 H 0.89245 0.18088 0.38801 0.0
H5122 H 0.73655 0.18641 0.58709 0.0
H5123 H 0.72846 0.15747 0.57889 0.0
H5124 H 0.67786 0.16631 0.59728 0.0
H5125 H 0.6856 0.1953 0.60498 0.0
H5126 H 0.70276 0.13268 0.60742 0.0
H5127 H 0.6712 0.16605 0.56435 0.0
H5128 H 0.6705 0.18805 0.54218 0.0
H5129 H 0.71034 0.16258 0.51532 0.0
H5130 H 0.71141 0.14057 0.53751 0.0
H5131 H 0.64981 0.06505 0.58428 0.0
H5132 H 0.663 0.09184 0.59177 0.0
H5133 H 0.69374 0.08949 0.54664 0.0
H5134 H 0.67985 0.06294 0.5386 0.0
H5135 H 0.68248 0.11948 0.54941 0.0
H5136 H 0.70972 0.08265 0.58868 0.0
H5137 H 0.71178 0.06059 0.61068 0.0
H5138 H 0.68311 0.09163 0.6449 0.0
H5139 H 0.68065 0.11377 0.62303 0.0
C5140 C 0.72368 0.18219 0.58926 0.0
C5141 C 0.71165 0.19316 0.59648 0.0
C5142 C 0.71911 0.1657 0.58462 0.0
C5143 C 0.70258 0.15988 0.58746 0.0
C5144 C 0.69065 0.17068 0.59491 0.0
C5145 C 0.69507 0.18724 0.59919 0.0
C5146 C 0.69762 0.14253 0.58258 0.0
C5147 C 0.69823 0.12969 0.59479 0.0
C5148 C 0.69225 0.13871 0.56599 0.0
C5149 C 0.69155 0.15184 0.55266 0.0
C5150 C 0.67993 0.16526 0.55381 0.0
C5151 C 0.67943 0.1777 0.54122 0.0
C5152 C 0.69041 0.17675 0.52738 0.0
C5153 C 0.70187 0.16333 0.52607 0.0
C5154 C 0.70243 0.15087 0.53864 0.0
C5155 C 0.65953 0.07011 0.57602 0.0
C5156 C 0.66383 0.06182 0.56086 0.0
C5157 C 0.66715 0.08543 0.58039 0.0
C5158 C 0.67966 0.09261 0.56997 0.0
C5159 C 0.68417 0.08422 0.55493 0.0
C5160 C 0.67626 0.06902 0.55036 0.0
C5161 C 0.68723 0.10932 0.57436 0.0
C5162 C 0.68717 0.12217 0.56204 0.0
C5163 C 0.69329 0.11305 0.59087 0.0
C5164 C 0.6949 0.09983 0.60415 0.0
C5165 C 0.70377 0.08473 0.60086 0.0
C5166 C 0.70501 0.07222 0.61332 0.0
C5167 C 0.69756 0.07469 0.62917 0.0
C5168 C 0.68888 0.08972 0.63261 0.0
C5169 C 0.68757 0.10227 0.6202 0.0
H5170 H 0.69852 0.06498 0.63879 0.0
H5171 H 0.69 0.18639 0.51764 0.0
H5172 H 0.06375 0.46614 0.85542 0.0
H5173 H 0.08859 0.45754 0.83923 0.0
H5174 H 0.06529 0.40916 0.82897 0.0
H5175 H 0.04066 0.41746 0.84577 0.0
H5176 H 0.09544 0.40416 0.83945 0.0
H5177 H 0.07203 0.44078 0.79746 0.0
H5178 H 0.05983 0.46712 0.78599 0.0
H5179 H 0.10544 0.494 0.79843 0.0
H5180 H 0.11783 0.46786 0.81019 0.0
H5181 H 0.16142 0.38015 0.78091 0.0
H5182 H 0.13334 0.38969 0.79037 0.0
H5183 H 0.15654 0.43059 0.81813 0.0
H5184 H 0.18463 0.42072 0.8093 0.0
H5185 H 0.12565 0.43857 0.79647 0.0
H5186 H 0.14804 0.40141 0.83956 0.0
H5187 H 0.15942 0.37489 0.85135 0.0
H5188 H 0.11409 0.34865 0.83674 0.0
H5189 H 0.10277 0.37485 0.82414 0.0
C5190 C 0.06377 0.45378 0.84946 0.0
C5191 C 0.05025 0.44246 0.85193 0.0
C5192 C 0.07798 0.4489 0.84012 0.0
C5193 C 0.07881 0.43274 0.83271 0.0
C5194 C 0.065 0.42168 0.83459 0.0
C5195 C 0.0509 0.42645 0.84417 0.0
C5196 C 0.0946 0.42685 0.82429 0.0
C5197 C 0.10181 0.41154 0.82976 0.0
C5198 C 0.1032 0.43663 0.81195 0.0
C5199 C 0.09581 0.45237 0.80482 0.0
C5200 C 0.07942 0.45233 0.79786 0.0
C5201 C 0.07247 0.46722 0.79129 0.0
C5202 C 0.08184 0.48223 0.79151 0.0
C5203 C 0.09819 0.48237 0.79827 0.0
C5204 C 0.10519 0.46751 0.80487 0.0
C5205 C 0.16047 0.39129 0.78885 0.0
C5206 C 0.17512 0.39974 0.79438 0.0
C5207 C 0.14448 0.39668 0.79427 0.0
C5208 C 0.14295 0.41083 0.80491 0.0
C5209 C 0.15752 0.41968 0.80987 0.0
C5210 C 0.17351 0.41402 0.80487 0.0
C5211 C 0.12625 0.41596 0.81163 0.0
C5212 C 0.11901 0.43113 0.80592 0.0
C5213 C 0.11752 0.40598 0.82364 0.0
C5214 C 0.1247 0.39005 0.83057 0.0
C5215 C 0.14067 0.38991 0.83846 0.0
C5216 C 0.1471 0.37493 0.84535 0.0
C5217 C 0.13754 0.36006 0.8447 0.0
C5218 C 0.12155 0.36014 0.83712 0.0
C5219 C 0.11516 0.37503 0.83002 0.0
H5220 H 0.14249 0.34849 0.85013 0.0
H5221 H 0.07644 0.49375 0.78642 0.0
H5222 H 0.32184 0.60632 0.28213 0.0
H5223 H 0.34895 0.59573 0.29264 0.0
H5224 H 0.32679 0.58732 0.34183 0.0
H5225 H 0.29966 0.59791 0.33152 0.0
H5226 H 0.35718 0.60336 0.34407 0.0
H5227 H 0.33428 0.5543 0.31655 0.0
H5228 H 0.32168 0.53831 0.29288 0.0
H5229 H 0.36564 0.54816 0.26244 0.0
H5230 H 0.37841 0.56442 0.28588 0.0
H5231 H 0.42691 0.53417 0.35606 0.0
H5232 H 0.39875 0.54277 0.34641 0.0
H5233 H 0.41673 0.59385 0.33922 0.0
H5234 H 0.44475 0.58549 0.34913 0.0
H5235 H 0.38737 0.55518 0.31733 0.0
H5236 H 0.38506 0.62182 0.34761 0.0
H5237 H 0.39676 0.6371 0.37221 0.0
H5238 H 0.40165 0.5903 0.39935 0.0
H5239 H 0.38974 0.57471 0.37502 0.0
C5240 C 0.32266 0.60211 0.29515 0.0
C5241 C 0.30849 0.60292 0.30594 0.0
C5242 C 0.33818 0.59604 0.30113 0.0
C5243 C 0.33985 0.59065 0.31799 0.0
C5244 C 0.32577 0.59143 0.32878 0.0
C5245 C 0.31024 0.59743 0.32281 0.0
C5246 C 0.35634 0.58442 0.32447 0.0
C5247 C 0.36379 0.59282 0.33824 0.0
C5248 C 0.36484 0.57055 0.31699 0.0
C5249 C 0.35723 0.5607 0.30292 0.0
C5250 C 0.34121 0.55316 0.30477 0.0
C5251 C 0.33404 0.54403 0.2914 0.0
C5252 C 0.34284 0.54225 0.27615 0.0
C5253 C 0.35884 0.54957 0.27426 0.0
C5254 C 0.36605 0.55873 0.28758 0.0
C5255 C 0.42489 0.54722 0.35237 0.0
C5256 C 0.43808 0.55914 0.35346 0.0
C5257 C 0.40879 0.55212 0.34686 0.0
C5258 C 0.40556 0.569 0.34232 0.0
C5259 C 0.41881 0.58083 0.34299 0.0
C5260 C 0.43486 0.57599 0.34861 0.0
C5261 C 0.38836 0.57426 0.33681 0.0
C5262 C 0.38077 0.56571 0.3232 0.0
C5263 C 0.37965 0.58789 0.34458 0.0
C5264 C 0.38665 0.59709 0.35941 0.0
C5265 C 0.38856 0.61478 0.35885 0.0
C5266 C 0.39524 0.62349 0.37275 0.0
C5267 C 0.39999 0.61465 0.38731 0.0
C5268 C 0.39802 0.59709 0.38803 0.0
C5269 C 0.39132 0.58831 0.37419 0.0
H5270 H 0.40518 0.62141 0.39805 0.0
H5271 H 0.33727 0.53518 0.26582 0.0
H5272 H 0.93255 0.66614 0.9495 0.0
H5273 H 0.92286 0.68254 0.92507 0.0
H5274 H 0.95724 0.65487 0.89284 0.0
H5275 H 0.96751 0.63908 0.91722 0.0
H5276 H 0.95555 0.68511 0.8817 0.0
H5277 H 0.91397 0.64385 0.89832 0.0
H5278 H 0.89418 0.62962 0.91785 0.0
H5279 H 0.86639 0.67596 0.9239 0.0
H5280 H 0.88616 0.69053 0.90456 0.0
H5281 H 0.91069 0.6817 0.80368 0.0
H5282 H 0.92339 0.67509 0.83112 0.0
H5283 H 0.89596 0.71637 0.854 0.0
H5284 H 0.88333 0.72329 0.82646 0.0
H5285 H 0.89365 0.68331 0.87106 0.0
H5286 H 0.9351 0.72257 0.84961 0.0
H5287 H 0.95472 0.73372 0.82803 0.0
H5288 H 0.98261 0.68706 0.82885 0.0
H5289 H 0.96301 0.67554 0.85026 0.0
C5290 C 0.93829 0.66381 0.93726 0.0
C5291 C 0.95071 0.6512 0.93529 0.0
C5292 C 0.93265 0.67311 0.92327 0.0
C5293 C 0.93898 0.66965 0.90699 0.0
C5294 C 0.95209 0.65777 0.90522 0.0
C5295 C 0.95796 0.64872 0.91922 0.0
C5296 C 0.9313 0.67745 0.89164 0.0
C5297 C 0.94202 0.68465 0.8794 0.0
C5298 C 0.9136 0.67706 0.88861 0.0
C5299 C 0.90166 0.66832 0.90017 0.0
C5300 C 0.9037 0.65103 0.90391 0.0
C5301 C 0.89249 0.6429 0.91493 0.0
C5302 C 0.87907 0.6519 0.92216 0.0
C5303 C 0.87681 0.66902 0.91833 0.0
C5304 C 0.88801 0.67722 0.90734 0.0
C5305 C 0.90741 0.68945 0.81452 0.0
C5306 C 0.896 0.70303 0.8129 0.0
C5307 C 0.91473 0.68569 0.83016 0.0
C5308 C 0.91065 0.69529 0.84453 0.0
C5309 C 0.89928 0.70886 0.84302 0.0
C5310 C 0.89215 0.71282 0.82728 0.0
C5311 C 0.91793 0.6907 0.86119 0.0
C5312 C 0.90714 0.68404 0.87359 0.0
C5313 C 0.93557 0.69116 0.86417 0.0
C5314 C 0.94752 0.69816 0.85146 0.0
C5315 C 0.94535 0.71465 0.8451 0.0
C5316 C 0.95648 0.72104 0.83292 0.0
C5317 C 0.96989 0.7111 0.82705 0.0
C5318 C 0.97222 0.69475 0.8334 0.0
C5319 C 0.96112 0.68829 0.84558 0.0
H5320 H 0.97848 0.71607 0.81761 0.0
H5321 H 0.8704 0.64558 0.93068 0.0
H5322 H 0.52647 0.63126 0.07632 0.0
H5323 H 0.5344 0.64546 0.10268 0.0
H5324 H 0.57309 0.67342 0.07602 0.0
H5325 H 0.56572 0.65867 0.04987 0.0
H5326 H 0.58602 0.66153 0.10296 0.0
H5327 H 0.53466 0.69178 0.09143 0.0
H5328 H 0.50431 0.69517 0.08492 0.0
H5329 H 0.49125 0.66976 0.13117 0.0
H5330 H 0.52154 0.66602 0.13786 0.0
H5331 H 0.60515 0.71984 0.16815 0.0
H5332 H 0.59202 0.70945 0.14209 0.0
H5333 H 0.56589 0.67079 0.17039 0.0
H5334 H 0.57918 0.68088 0.19655 0.0
H5335 H 0.54615 0.68862 0.14327 0.0
H5336 H 0.59829 0.65805 0.15374 0.0
H5337 H 0.62879 0.65606 0.16013 0.0
H5338 H 0.64037 0.68398 0.11495 0.0
H5339 H 0.60989 0.68638 0.10843 0.0
C5340 C 0.53649 0.64063 0.07607 0.0
C5341 C 0.54551 0.64384 0.06108 0.0
C5342 C 0.54098 0.64879 0.09113 0.0
C5343 C 0.55427 0.66065 0.09136 0.0
C5344 C 0.56286 0.66428 0.07622 0.0
C5345 C 0.55861 0.65588 0.06126 0.0
C5346 C 0.55998 0.66851 0.10748 0.0
C5347 C 0.57728 0.66769 0.11158 0.0
C5348 C 0.54859 0.67622 0.11903 0.0
C5349 C 0.53037 0.67848 0.11506 0.0
C5350 C 0.52532 0.6868 0.10015 0.0
C5351 C 0.50813 0.68881 0.09644 0.0
C5352 C 0.49586 0.68265 0.1076 0.0
C5353 C 0.50077 0.67451 0.12253 0.0
C5354 C 0.51794 0.67246 0.12629 0.0
C5355 C 0.59635 0.70934 0.16891 0.0
C5356 C 0.59327 0.7011 0.18439 0.0
C5357 C 0.58891 0.70341 0.15401 0.0
C5358 C 0.57811 0.68933 0.15439 0.0
C5359 C 0.5742 0.68169 0.16992 0.0
C5360 C 0.58185 0.68743 0.1848 0.0
C5361 C 0.57205 0.68173 0.13842 0.0
C5362 C 0.55477 0.68253 0.13447 0.0
C5363 C 0.58345 0.67416 0.1269 0.0
C5364 C 0.60179 0.67257 0.1307 0.0
C5365 C 0.60733 0.66391 0.14525 0.0
C5366 C 0.62462 0.66268 0.14888 0.0
C5367 C 0.63651 0.66994 0.13798 0.0
C5368 C 0.63114 0.67839 0.1234 0.0
C5369 C 0.61386 0.67968 0.11972 0.0
H5370 H 0.64988 0.66899 0.14083 0.0
H5371 H 0.48256 0.68422 0.10471 0.0
H5372 H 0.58286 0.27635 0.31507 0.0
H5373 H 0.57 0.28423 0.3421 0.0
H5374 H 0.57991 0.33689 0.33156 0.0
H5375 H 0.59235 0.32923 0.30441 0.0
H5376 H 0.58411 0.29847 0.36852 0.0
H5377 H 0.55164 0.36204 0.35082 0.0
H5378 H 0.53738 0.37491 0.3262 0.0
H5379 H 0.52381 0.32556 0.30785 0.0
H5380 H 0.53773 0.3124 0.3325 0.0
H5381 H 0.57452 0.35162 0.43949 0.0
H5382 H 0.58062 0.33843 0.41232 0.0
H5383 H 0.52717 0.3315 0.40342 0.0
H5384 H 0.52088 0.34527 0.43045 0.0
H5385 H 0.5411 0.34359 0.37622 0.0
H5386 H 0.55442 0.29758 0.41318 0.0
H5387 H 0.56792 0.2836 0.43762 0.0
H5388 H 0.61707 0.29498 0.41736 0.0
H5389 H 0.60387 0.30922 0.3929 0.0
C5390 C 0.58206 0.28964 0.31836 0.0
C5391 C 0.58868 0.30214 0.30751 0.0
C5392 C 0.57476 0.29411 0.33387 0.0
C5393 C 0.57388 0.31116 0.33886 0.0
C5394 C 0.58015 0.32368 0.3279 0.0
C5395 C 0.58734 0.31924 0.31235 0.0
C5396 C 0.56729 0.31583 0.35587 0.0
C5397 C 0.57461 0.30825 0.37019 0.0
C5398 C 0.55471 0.3284 0.3581 0.0
C5399 C 0.54584 0.33623 0.34347 0.0
C5400 C 0.5455 0.35393 0.3416 0.0
C5401 C 0.5375 0.36128 0.32762 0.0
C5402 C 0.52973 0.35106 0.31544 0.0
C5403 C 0.52987 0.33347 0.31727 0.0
C5404 C 0.53782 0.32605 0.33124 0.0
C5405 C 0.56402 0.3471 0.43191 0.0
C5406 C 0.54718 0.34952 0.43722 0.0
C5407 C 0.56756 0.33948 0.41634 0.0
C5408 C 0.55438 0.33377 0.40584 0.0
C5409 C 0.53756 0.33581 0.41128 0.0
C5410 C 0.53399 0.34362 0.42679 0.0
C5411 C 0.55818 0.32648 0.38888 0.0
C5412 C 0.55041 0.33363 0.37456 0.0
C5413 C 0.57015 0.3133 0.38665 0.0
C5414 C 0.57814 0.30455 0.40125 0.0
C5415 C 0.56811 0.29718 0.41398 0.0
C5416 C 0.57571 0.2892 0.42783 0.0
C5417 C 0.59334 0.28842 0.42906 0.0
C5418 C 0.60341 0.29559 0.4164 0.0
C5419 C 0.59588 0.30359 0.40252 0.0
H5420 H 0.5992 0.28226 0.4398 0.0
H5421 H 0.52359 0.35677 0.3046 0.0
H5422 H 0.89498 0.28496 0.68578 0.0
H5423 H 0.90655 0.29324 0.6583 0.0
H5424 H 0.90451 0.34576 0.67318 0.0
H5425 H 0.89343 0.33763 0.70078 0.0
H5426 H 0.89377 0.31133 0.63366 0.0
H5427 H 0.93543 0.36808 0.65446 0.0
H5428 H 0.95218 0.37714 0.67923 0.0
H5429 H 0.95936 0.32523 0.6937 0.0
H5430 H 0.94285 0.31585 0.6689 0.0
H5431 H 0.91169 0.36414 0.56412 0.0
H5432 H 0.90361 0.35276 0.59162 0.0
H5433 H 0.95492 0.33591 0.5999 0.0
H5434 H 0.96327 0.34777 0.57252 0.0
H5435 H 0.94317 0.34968 0.62758 0.0
H5436 H 0.92255 0.30809 0.58868 0.0
H5437 H 0.9069 0.29776 0.5637 0.0
H5438 H 0.86029 0.31585 0.58506 0.0
H5439 H 0.8757 0.32653 0.61006 0.0
C5440 C 0.89716 0.29827 0.68329 0.0
C5441 C 0.8934 0.31061 0.69559 0.0
C5442 C 0.90371 0.30298 0.66753 0.0
C5443 C 0.90661 0.3201 0.66373 0.0
C5444 C 0.90275 0.33244 0.67593 0.0
C5445 C 0.89636 0.32775 0.69173 0.0
C5446 C 0.91325 0.32513 0.64687 0.0
C5447 C 0.90462 0.31965 0.63233 0.0
C5448 C 0.92756 0.3358 0.6451 0.0
C5449 C 0.93778 0.34128 0.65989 0.0
C5450 C 0.94066 0.3586 0.66288 0.0
C5451 C 0.9501 0.36378 0.67694 0.0
C5452 C 0.95679 0.35177 0.68806 0.0
C5453 C 0.95412 0.33453 0.68511 0.0
C5454 C 0.94471 0.32927 0.67106 0.0
C5455 C 0.92128 0.35796 0.57173 0.0
C5456 C 0.93813 0.3568 0.56606 0.0
C5457 C 0.91661 0.35139 0.58745 0.0
C5458 C 0.92859 0.34322 0.59772 0.0
C5459 C 0.94545 0.34213 0.59217 0.0
C5460 C 0.95019 0.34888 0.5765 0.0
C5461 C 0.92354 0.33609 0.61438 0.0
C5462 C 0.93242 0.34123 0.62889 0.0
C5463 C 0.90965 0.32486 0.6161 0.0
C5464 C 0.90031 0.31822 0.60119 0.0
C5465 C 0.90898 0.30995 0.58801 0.0
C5466 C 0.90015 0.30403 0.57385 0.0
C5467 C 0.88262 0.30618 0.57278 0.0
C5468 C 0.87387 0.31421 0.5859 0.0
C5469 C 0.88265 0.32018 0.60008 0.0
H5470 H 0.87581 0.3016 0.5618 0.0
H5471 H 0.96407 0.35581 0.69895 0.0
loop_
_geom_bond_atom_site_label_1
_geom_bond_atom_site_label_2
_geom_bond_distance
_geom_bond_site_symmetry_2
_ccdc_geom_bond_type
Co0 O1 2.216 . S
Co0 O2 2.091 . S
Co0 O4 2.004 . S
Co0 O10 2.021 . S
Co0 O12 2.137 . S
Co0 O13 2.244 . S
O1 Co0 2.216 . S
O1 C8 1.247 . S
O2 Co0 2.091 . S
O2 C8 1.261 . S
C3 O12 1.247 . S
C3 O13 1.272 . S
O4 Co0 2.004 . S
O4 C9 1.259 . S
Co5 O6 2.061 . S
Co5 O11 2.052 . S
Co5 O13 2.135 . S
O6 Co5 2.061 . S
O6 C9 1.235 . S
C7 O10 1.238 . S
C7 O11 1.241 . S
C8 O1 1.247 . S
C8 O2 1.261 . S
C9 O4 1.259 . S
C9 O6 1.235 . S
O10 Co0 2.021 . S
O10 C7 1.238 . S
O11 Co5 2.052 . S
O11 C7 1.241 . S
O12 Co0 2.137 . S
O12 C3 1.247 . S
O13 Co0 2.244 . S
O13 C3 1.272 . S
O13 Co5 2.135 . S
Co14 O15 2.219 . S
Co14 O16 2.091 1_655 S
Co14 O18 2.004 . S
Co14 O24 2.021 . S
Co14 O26 2.137 1_655 S
Co14 O27 2.244 . S
O15 Co14 2.219 . S
O15 C22 1.243 1_655 S
O16 Co14 2.091 1_455 S
O16 C22 1.261 . S
C17 O26 1.247 1_655 S
C17 O27 1.272 . S
O18 Co14 2.004 . S
O18 C23 1.259 . S
Co19 O20 2.061 . S
Co19 O25 2.052 . S
Co19 O27 2.135 . S
O20 Co19 2.061 . S
O20 C23 1.235 . S
C21 O24 1.238 . S
C21 O25 1.241 . S
C22 O15 1.243 1_455 S
C22 O16 1.261 . S
C23 O18 1.259 . S
C23 O20 1.235 . S
O24 Co14 2.021 . S
O24 C21 1.238 . S
O25 Co19 2.052 . S
O25 C21 1.241 . S
O26 Co14 2.137 1_455 S
O26 C17 1.247 1_455 S
O27 Co14 2.244 . S
O27 C17 1.272 . S
O27 Co19 2.135 . S
Co28 O29 2.216 . S
Co28 O30 2.091 . S
Co28 O32 2.004 . S
Co28 O38 2.021 . S
Co28 O40 2.137 . S
Co28 O41 2.244 . S
O29 Co28 2.216 . S
O29 C36 1.247 . S
O30 Co28 2.091 . S
O30 C36 1.261 . S
C31 O40 1.247 . S
C31 O41 1.272 . S
O32 Co28 2.004 . S
O32 C37 1.259 . S
Co33 O34 2.061 . S
Co33 O39 2.052 . S
Co33 O41 2.135 . S
O34 Co33 2.061 . S
O34 C37 1.235 . S
C35 O38 1.238 . S
C35 O39 1.241 . S
C36 O29 1.247 . S
C36 O30 1.261 . S
C37 O32 1.259 . S
C37 O34 1.235 . S
O38 Co28 2.021 . S
O38 C35 1.238 . S
O39 Co33 2.052 . S
O39 C35 1.241 . S
O40 Co28 2.137 . S
O40 C31 1.247 . S
O41 Co28 2.244 . S
O41 C31 1.272 . S
O41 Co33 2.135 . S
Co42 O43 2.216 . S
Co42 O44 2.091 . S
Co42 O46 2.004 . S
Co42 O52 2.021 . S
Co42 O54 2.137 . S
Co42 O55 2.244 . S
O43 Co42 2.216 . S
O43 C50 1.247 . S
O44 Co42 2.091 . S
O44 C50 1.261 . S
C45 O54 1.247 . S
C45 O55 1.272 . S
O46 Co42 2.004 . S
O46 C51 1.259 . S
Co47 O48 2.061 . S
Co47 O53 2.052 . S
Co47 O55 2.135 . S
O48 Co47 2.061 . S
O48 C51 1.235 . S
C49 O52 1.238 . S
C49 O53 1.241 . S
C50 O43 1.247 . S
C50 O44 1.261 . S
C51 O46 1.259 . S
C51 O48 1.235 . S
O52 Co42 2.021 . S
O52 C49 1.238 . S
O53 Co47 2.052 . S
O53 C49 1.241 . S
O54 Co42 2.137 . S
O54 C45 1.247 . S
O55 Co42 2.244 . S
O55 C45 1.272 . S
O55 Co47 2.135 . S
Co56 O57 2.216 . S
Co56 O58 2.091 . S
Co56 O60 2.004 . S
Co56 O66 2.021 . S
Co56 O68 2.137 . S
Co56 O69 2.244 . S
O57 Co56 2.216 . S
O57 C64 1.247 . S
O58 Co56 2.091 . S
O58 C64 1.261 . S
C59 O68 1.247 . S
C59 O69 1.272 . S
O60 Co56 2.004 . S
O60 C65 1.259 . S
Co61 O62 2.061 . S
Co61 O67 2.052 . S
Co61 O69 2.135 . S
O62 Co61 2.061 . S
O62 C65 1.235 . S
C63 O66 1.238 . S
C63 O67 1.241 . S
C64 O57 1.247 . S
C64 O58 1.261 . S
C65 O60 1.259 . S
C65 O62 1.235 . S
O66 Co56 2.021 . S
O66 C63 1.238 . S
O67 Co61 2.052 . S
O67 C63 1.241 . S
O68 Co56 2.137 . S
O68 C59 1.247 . S
O69 Co56 2.244 . S
O69 C59 1.272 . S
O69 Co61 2.135 . S
Co70 O71 2.216 . S
Co70 O72 2.091 . S
Co70 O74 2.004 . S
Co70 O80 2.021 . S
Co70 O82 2.137 . S
Co70 O83 2.244 . S
O71 Co70 2.216 . S
O71 C78 1.247 . S
O72 Co70 2.091 . S
O72 C78 1.261 . S
C73 O82 1.247 . S
C73 O83 1.272 . S
O74 Co70 2.004 . S
O74 C79 1.259 . S
Co75 O76 2.061 . S
Co75 O81 2.052 . S
Co75 O83 2.135 . S
O76 Co75 2.061 . S
O76 C79 1.235 . S
C77 O80 1.238 . S
C77 O81 1.241 . S
C78 O71 1.247 . S
C78 O72 1.261 . S
C79 O74 1.259 . S
C79 O76 1.235 . S
O80 Co70 2.021 . S
O80 C77 1.238 . S
O81 Co75 2.052 . S
O81 C77 1.241 . S
O82 Co70 2.137 . S
O82 C73 1.247 . S
O83 Co70 2.244 . S
O83 C73 1.272 . S
O83 Co75 2.135 . S
Co84 O85 2.216 . S
Co84 O86 2.091 . S
Co84 O88 2.004 . S
Co84 O94 2.021 . S
Co84 O96 2.137 . S
Co84 O97 2.244 . S
O85 Co84 2.216 . S
O85 C92 1.247 . S
O86 Co84 2.091 . S
O86 C92 1.261 . S
C87 O96 1.247 . S
C87 O97 1.272 . S
O88 Co84 2.004 . S
O88 C93 1.259 . S
Co89 O90 2.061 . S
Co89 O95 2.052 . S
Co89 O97 2.135 . S
O90 Co89 2.061 . S
O90 C93 1.235 . S
C91 O94 1.238 . S
C91 O95 1.241 . S
C92 O85 1.247 . S
C92 O86 1.261 . S
C93 O88 1.259 . S
C93 O90 1.235 . S
O94 Co84 2.021 . S
O94 C91 1.238 . S
O95 Co89 2.052 . S
O95 C91 1.241 . S
O96 Co84 2.137 . S
O96 C87 1.247 . S
O97 Co84 2.244 . S
O97 C87 1.272 . S
O97 Co89 2.135 . S
Co98 O99 2.219 . S
Co98 O100 2.091 1_655 S
Co98 O102 2.004 . S
Co98 O108 2.021 . S
Co98 O110 2.137 1_655 S
Co98 O111 2.244 . S
O99 Co98 2.219 . S
O99 C106 1.244 1_655 S
O100 Co98 2.091 1_455 S
O100 C106 1.261 . S
C101 O110 1.247 1_655 S
C101 O111 1.272 . S
O102 Co98 2.004 . S
O102 C107 1.259 . S
Co103 O104 2.061 . S
Co103 O109 2.052 . S
Co103 O111 2.135 . S
O104 Co103 2.061 . S
O104 C107 1.235 . S
C105 O108 1.238 . S
C105 O109 1.241 . S
C106 O99 1.244 1_455 S
C106 O100 1.261 . S
C107 O102 1.259 . S
C107 O104 1.235 . S
O108 Co98 2.021 . S
O108 C105 1.238 . S
O109 Co103 2.052 . S
O109 C105 1.241 . S
O110 Co98 2.137 1_455 S
O110 C101 1.247 1_455 S
O111 Co98 2.244 . S
O111 C101 1.272 . S
O111 Co103 2.135 . S
Co112 O113 2.216 . S
Co112 O114 2.091 . S
Co112 O116 2.004 . S
Co112 O122 2.021 . S
Co112 O124 2.137 . S
Co112 O125 2.244 . S
O113 Co112 2.216 . S
O113 C120 1.247 . S
O114 Co112 2.091 . S
O114 C120 1.261 . S
C115 O124 1.247 . S
C115 O125 1.272 . S
O116 Co112 2.004 . S
O116 C121 1.259 . S
Co117 O118 2.061 . S
Co117 O123 2.052 . S
Co117 O125 2.135 . S
O118 Co117 2.061 . S
O118 C121 1.235 . S
C119 O122 1.238 . S
C119 O123 1.241 . S
C120 O113 1.247 . S
C120 O114 1.261 . S
C121 O116 1.259 . S
C121 O118 1.235 . S
O122 Co112 2.021 . S
O122 C119 1.238 . S
O123 Co117 2.052 . S
O123 C119 1.241 . S
O124 Co112 2.137 . S
O124 C115 1.247 . S
O125 Co112 2.244 . S
O125 C115 1.272 . S
O125 Co117 2.135 . S
Co126 O127 2.216 . S
Co126 O128 2.091 . S
Co126 O130 2.004 . S
Co126 O136 2.021 . S
Co126 O138 2.137 . S
Co126 O139 2.244 . S
O127 Co126 2.216 . S
O127 C134 1.247 . S
O128 Co126 2.091 . S
O128 C134 1.261 . S
C129 O138 1.247 . S
C129 O139 1.272 . S
O130 Co126 2.004 . S
O130 C135 1.259 . S
Co131 O132 2.061 . S
Co131 O137 2.052 . S
Co131 O139 2.135 . S
O132 Co131 2.061 . S
O132 C135 1.235 . S
C133 O136 1.238 . S
C133 O137 1.241 . S
C134 O127 1.247 . S
C134 O128 1.261 . S
C135 O130 1.259 . S
C135 O132 1.235 . S
O136 Co126 2.021 . S
O136 C133 1.238 . S
O137 Co131 2.052 . S
O137 C133 1.241 . S
O138 Co126 2.137 . S
O138 C129 1.247 . S
O139 Co126 2.244 . S
O139 C129 1.272 . S
O139 Co131 2.135 . S
Co140 O141 2.216 . S
Co140 O142 2.091 . S
Co140 O144 2.004 . S
Co140 O150 2.021 . S
Co140 O152 2.137 . S
Co140 O153 2.244 . S
O141 Co140 2.216 . S
O141 C148 1.247 . S
O142 Co140 2.091 . S
O142 C148 1.261 . S
C143 O152 1.247 . S
C143 O153 1.272 . S
O144 Co140 2.004 . S
O144 C149 1.259 . S
Co145 O146 2.061 . S
Co145 O151 2.052 . S
Co145 O153 2.135 . S
O146 Co145 2.061 . S
O146 C149 1.235 . S
C147 O150 1.238 . S
C147 O151 1.241 . S
C148 O141 1.247 . S
C148 O142 1.261 . S
C149 O144 1.259 . S
C149 O146 1.235 . S
O150 Co140 2.021 . S
O150 C147 1.238 . S
O151 Co145 2.052 . S
O151 C147 1.241 . S
O152 Co140 2.137 . S
O152 C143 1.247 . S
O153 Co140 2.244 . S
O153 C143 1.272 . S
O153 Co145 2.135 . S
Co154 O155 2.236 . S
Co154 O156 2.091 1_554 S
Co154 O158 2.004 . S
Co154 O164 2.021 . S
Co154 O166 2.137 1_554 S
Co154 O167 2.244 . S
O155 Co154 2.236 . S
O155 C162 1.228 1_554 S
O156 Co154 2.091 1_556 S
O156 C162 1.261 . S
C157 O166 1.247 1_554 S
C157 O167 1.272 . S
O158 Co154 2.004 . S
O158 C163 1.259 . S
Co159 O160 2.061 . S
Co159 O165 2.052 . S
Co159 O167 2.135 . S
O160 Co159 2.061 . S
O160 C163 1.235 . S
C161 O164 1.238 . S
C161 O165 1.241 . S
C162 O155 1.228 1_556 S
C162 O156 1.261 . S
C163 O158 1.259 . S
C163 O160 1.235 . S
O164 Co154 2.021 . S
O164 C161 1.238 . S
O165 Co159 2.052 . S
O165 C161 1.241 . S
O166 Co154 2.137 1_556 S
O166 C157 1.247 1_556 S
O167 Co154 2.244 . S
O167 C157 1.272 . S
O167 Co159 2.135 . S
Co168 O169 2.216 . S
Co168 O170 2.091 . S
Co168 O172 2.004 . S
Co168 O178 2.021 . S
Co168 O180 2.137 . S
Co168 O181 2.244 . S
O169 Co168 2.216 . S
O169 C176 1.247 . S
O170 Co168 2.091 . S
O170 C176 1.261 . S
C171 O180 1.247 . S
C171 O181 1.272 . S
O172 Co168 2.004 . S
O172 C177 1.259 . S
Co173 O174 2.061 . S
Co173 O179 2.052 . S
Co173 O181 2.135 . S
O174 Co173 2.061 . S
O174 C177 1.235 . S
C175 O178 1.238 . S
C175 O179 1.241 . S
C176 O169 1.247 . S
C176 O170 1.261 . S
C177 O172 1.259 . S
C177 O174 1.235 . S
O178 Co168 2.021 . S
O178 C175 1.238 . S
O179 Co173 2.052 . S
O179 C175 1.241 . S
O180 Co168 2.137 . S
O180 C171 1.247 . S
O181 Co168 2.244 . S
O181 C171 1.272 . S
O181 Co173 2.135 . S
Co182 O183 2.216 . S
Co182 O184 2.091 . S
Co182 O186 2.004 . S
Co182 O192 2.021 . S
Co182 O194 2.137 . S
Co182 O195 2.244 . S
O183 Co182 2.216 . S
O183 C190 1.247 . S
O184 Co182 2.091 . S
O184 C190 1.261 . S
C185 O194 1.247 . S
C185 O195 1.272 . S
O186 Co182 2.004 . S
O186 C191 1.259 . S
Co187 O188 2.061 . S
Co187 O193 2.052 . S
Co187 O195 2.135 . S
O188 Co187 2.061 . S
O188 C191 1.235 . S
C189 O192 1.238 . S
C189 O193 1.241 . S
C190 O183 1.247 . S
C190 O184 1.261 . S
C191 O186 1.259 . S
C191 O188 1.235 . S
O192 Co182 2.021 . S
O192 C189 1.238 . S
O193 Co187 2.052 . S
O193 C189 1.241 . S
O194 Co182 2.137 . S
O194 C185 1.247 . S
O195 Co182 2.244 . S
O195 C185 1.272 . S
O195 Co187 2.135 . S
Co196 O197 2.216 . S
Co196 O198 2.091 . S
Co196 O200 2.004 . S
Co196 O206 2.021 . S
Co196 O208 2.137 . S
Co196 O209 2.244 . S
O197 Co196 2.216 . S
O197 C204 1.247 . S
O198 Co196 2.091 . S
O198 C204 1.261 . S
C199 O208 1.247 . S
C199 O209 1.272 . S
O200 Co196 2.004 . S
O200 C205 1.259 . S
Co201 O202 2.061 . S
Co201 O207 2.052 . S
Co201 O209 2.135 . S
O202 Co201 2.061 . S
O202 C205 1.235 . S
C203 O206 1.238 . S
C203 O207 1.241 . S
C204 O197 1.247 . S
C204 O198 1.261 . S
C205 O200 1.259 . S
C205 O202 1.235 . S
O206 Co196 2.021 . S
O206 C203 1.238 . S
O207 Co201 2.052 . S
O207 C203 1.241 . S
O208 Co196 2.137 . S
O208 C199 1.247 . S
O209 Co196 2.244 . S
O209 C199 1.272 . S
O209 Co201 2.135 . S
Co210 O211 2.219 . S
Co210 O212 2.091 1_556 S
Co210 O214 2.004 . S
Co210 O220 2.021 . S
Co210 O222 2.137 1_556 S
Co210 O223 2.244 . S
O211 Co210 2.219 . S
O211 C218 1.244 1_556 S
O212 Co210 2.091 1_554 S
O212 C218 1.261 . S
C213 O222 1.247 1_556 S
C213 O223 1.272 . S
O214 Co210 2.004 . S
O214 C219 1.259 . S
Co215 O216 2.061 . S
Co215 O221 2.052 . S
Co215 O223 2.135 . S
O216 Co215 2.061 . S
O216 C219 1.235 . S
C217 O220 1.238 . S
C217 O221 1.241 . S
C218 O211 1.244 1_554 S
C218 O212 1.261 . S
C219 O214 1.259 . S
C219 O216 1.235 . S
O220 Co210 2.021 . S
O220 C217 1.238 . S
O221 Co215 2.052 . S
O221 C217 1.241 . S
O222 Co210 2.137 1_554 S
O222 C213 1.247 1_554 S
O223 Co210 2.244 . S
O223 C213 1.272 . S
O223 Co215 2.135 . S
Co224 O225 2.216 . S
Co224 O226 2.091 . S
Co224 O228 2.004 . S
Co224 O234 2.021 . S
Co224 O236 2.137 . S
Co224 O237 2.244 . S
O225 Co224 2.216 . S
O225 C232 1.247 . S
O226 Co224 2.091 . S
O226 C232 1.261 . S
C227 O236 1.247 . S
C227 O237 1.272 . S
O228 Co224 2.004 . S
O228 C233 1.259 . S
Co229 O230 2.061 . S
Co229 O235 2.052 . S
Co229 O237 2.135 . S
O230 Co229 2.061 . S
O230 C233 1.235 . S
C231 O234 1.238 . S
C231 O235 1.241 . S
C232 O225 1.247 . S
C232 O226 1.261 . S
C233 O228 1.259 . S
C233 O230 1.235 . S
O234 Co224 2.021 . S
O234 C231 1.238 . S
O235 Co229 2.052 . S
O235 C231 1.241 . S
O236 Co224 2.137 . S
O236 C227 1.247 . S
O237 Co224 2.244 . S
O237 C227 1.272 . S
O237 Co229 2.135 . S
Co238 O239 2.216 . S
Co238 O240 2.091 . S
Co238 O242 2.004 . S
Co238 O248 2.021 . S
Co238 O250 2.137 . S
Co238 O251 2.244 . S
O239 Co238 2.216 . S
O239 C246 1.247 . S
O240 Co238 2.091 . S
O240 C246 1.261 . S
C241 O250 1.247 . S
C241 O251 1.272 . S
O242 Co238 2.004 . S
O242 C247 1.259 . S
Co243 O244 2.061 . S
Co243 O249 2.052 . S
Co243 O251 2.135 . S
O244 Co243 2.061 . S
O244 C247 1.235 . S
C245 O248 1.238 . S
C245 O249 1.241 . S
C246 O239 1.247 . S
C246 O240 1.261 . S
C247 O242 1.259 . S
C247 O244 1.235 . S
O248 Co238 2.021 . S
O248 C245 1.238 . S
O249 Co243 2.052 . S
O249 C245 1.241 . S
O250 Co238 2.137 . S
O250 C241 1.247 . S
O251 Co238 2.244 . S
O251 C241 1.272 . S
O251 Co243 2.135 . S
Co252 O253 2.216 . S
Co252 O254 2.091 . S
Co252 O256 2.004 . S
Co252 O262 2.021 . S
Co252 O264 2.137 . S
Co252 O265 2.244 . S
O253 Co252 2.216 . S
O253 C260 1.247 . S
O254 Co252 2.091 . S
O254 C260 1.261 . S
C255 O264 1.247 . S
C255 O265 1.272 . S
O256 Co252 2.004 . S
O256 C261 1.259 . S
Co257 O258 2.061 . S
Co257 O263 2.052 . S
Co257 O265 2.135 . S
O258 Co257 2.061 . S
O258 C261 1.235 . S
C259 O262 1.238 . S
C259 O263 1.241 . S
C260 O253 1.247 . S
C260 O254 1.261 . S
C261 O256 1.259 . S
C261 O258 1.235 . S
O262 Co252 2.021 . S
O262 C259 1.238 . S
O263 Co257 2.052 . S
O263 C259 1.241 . S
O264 Co252 2.137 . S
O264 C255 1.247 . S
O265 Co252 2.244 . S
O265 C255 1.272 . S
O265 Co257 2.135 . S
Co266 O267 2.216 . S
Co266 O268 2.091 . S
Co266 O270 2.004 . S
Co266 O276 2.021 . S
Co266 O278 2.137 . S
Co266 O279 2.244 . S
O267 Co266 2.216 . S
O267 C274 1.247 . S
O268 Co266 2.091 . S
O268 C274 1.261 . S
C269 O278 1.247 . S
C269 O279 1.272 . S
O270 Co266 2.004 . S
O270 C275 1.259 . S
Co271 O272 2.061 . S
Co271 O277 2.052 . S
Co271 O279 2.135 . S
O272 Co271 2.061 . S
O272 C275 1.235 . S
C273 O276 1.238 . S
C273 O277 1.241 . S
C274 O267 1.247 . S
C274 O268 1.261 . S
C275 O270 1.259 . S
C275 O272 1.235 . S
O276 Co266 2.021 . S
O276 C273 1.238 . S
O277 Co271 2.052 . S
O277 C273 1.241 . S
O278 Co266 2.137 . S
O278 C269 1.247 . S
O279 Co266 2.244 . S
O279 C269 1.272 . S
O279 Co271 2.135 . S
Co280 O281 2.219 . S
Co280 O282 2.091 1_565 S
Co280 O284 2.004 . S
Co280 O290 2.021 . S
Co280 O292 2.137 1_565 S
Co280 O293 2.244 . S
O281 Co280 2.219 . S
O281 C288 1.244 1_565 S
O282 Co280 2.091 1_545 S
O282 C288 1.261 . S
C283 O292 1.247 1_565 S
C283 O293 1.272 . S
O284 Co280 2.004 . S
O284 C289 1.259 . S
Co285 O286 2.061 . S
Co285 O291 2.052 . S
Co285 O293 2.135 . S
O286 Co285 2.061 . S
O286 C289 1.235 . S
C287 O290 1.238 . S
C287 O291 1.241 . S
C288 O281 1.244 1_545 S
C288 O282 1.261 . S
C289 O284 1.259 . S
C289 O286 1.235 . S
O290 Co280 2.021 . S
O290 C287 1.238 . S
O291 Co285 2.052 . S
O291 C287 1.241 . S
O292 Co280 2.137 1_545 S
O292 C283 1.247 1_545 S
O293 Co280 2.244 . S
O293 C283 1.272 . S
O293 Co285 2.135 . S
Co294 O295 2.216 . S
Co294 O296 2.091 . S
Co294 O298 2.004 . S
Co294 O304 2.021 . S
Co294 O306 2.137 . S
Co294 O307 2.244 . S
O295 Co294 2.216 . S
O295 C302 1.247 . S
O296 Co294 2.091 . S
O296 C302 1.261 . S
C297 O306 1.247 . S
C297 O307 1.272 . S
O298 Co294 2.004 . S
O298 C303 1.259 . S
Co299 O300 2.061 . S
Co299 O305 2.052 . S
Co299 O307 2.135 . S
O300 Co299 2.061 . S
O300 C303 1.235 . S
C301 O304 1.238 . S
C301 O305 1.241 . S
C302 O295 1.247 . S
C302 O296 1.261 . S
C303 O298 1.259 . S
C303 O300 1.235 . S
O304 Co294 2.021 . S
O304 C301 1.238 . S
O305 Co299 2.052 . S
O305 C301 1.241 . S
O306 Co294 2.137 . S
O306 C297 1.247 . S
O307 Co294 2.244 . S
O307 C297 1.272 . S
O307 Co299 2.135 . S
Co308 O309 2.216 . S
Co308 O310 2.091 . S
Co308 O312 2.004 . S
Co308 O318 2.021 . S
Co308 O320 2.137 . S
Co308 O321 2.244 . S
O309 Co308 2.216 . S
O309 C316 1.247 . S
O310 Co308 2.091 . S
O310 C316 1.261 . S
C311 O320 1.247 . S
C311 O321 1.272 . S
O312 Co308 2.004 . S
O312 C317 1.259 . S
Co313 O314 2.061 . S
Co313 O319 2.052 . S
Co313 O321 2.135 . S
O314 Co313 2.061 . S
O314 C317 1.235 . S
C315 O318 1.238 . S
C315 O319 1.241 . S
C316 O309 1.247 . S
C316 O310 1.261 . S
C317 O312 1.259 . S
C317 O314 1.235 . S
O318 Co308 2.021 . S
O318 C315 1.238 . S
O319 Co313 2.052 . S
O319 C315 1.241 . S
O320 Co308 2.137 . S
O320 C311 1.247 . S
O321 Co308 2.244 . S
O321 C311 1.272 . S
O321 Co313 2.135 . S
Co322 O323 2.216 . S
Co322 O324 2.091 . S
Co322 O326 2.004 . S
Co322 O332 2.021 . S
Co322 O334 2.137 . S
Co322 O335 2.244 . S
O323 Co322 2.216 . S
O323 C330 1.247 . S
O324 Co322 2.091 . S
O324 C330 1.261 . S
C325 O334 1.247 . S
C325 O335 1.272 . S
O326 Co322 2.004 . S
O326 C331 1.259 . S
Co327 O328 2.061 . S
Co327 O333 2.052 . S
Co327 O335 2.135 . S
O328 Co327 2.061 . S
O328 C331 1.235 . S
C329 O332 1.238 . S
C329 O333 1.241 . S
C330 O323 1.247 . S
C330 O324 1.261 . S
C331 O326 1.259 . S
C331 O328 1.235 . S
O332 Co322 2.021 . S
O332 C329 1.238 . S
O333 Co327 2.052 . S
O333 C329 1.241 . S
O334 Co322 2.137 . S
O334 C325 1.247 . S
O335 Co322 2.244 . S
O335 C325 1.272 . S
O335 Co327 2.135 . S
Co336 O337 2.216 . S
Co336 O338 2.091 . S
Co336 O340 2.004 . S
Co336 O346 2.021 . S
Co336 O348 2.137 . S
Co336 O349 2.244 . S
O337 Co336 2.216 . S
O337 C344 1.247 . S
O338 Co336 2.091 . S
O338 C344 1.261 . S
C339 O348 1.247 . S
C339 O349 1.272 . S
O340 Co336 2.004 . S
O340 C345 1.259 . S
Co341 O342 2.061 . S
Co341 O347 2.052 . S
Co341 O349 2.135 . S
O342 Co341 2.061 . S
O342 C345 1.235 . S
C343 O346 1.238 . S
C343 O347 1.241 . S
C344 O337 1.247 . S
C344 O338 1.261 . S
C345 O340 1.259 . S
C345 O342 1.235 . S
O346 Co336 2.021 . S
O346 C343 1.238 . S
O347 Co341 2.052 . S
O347 C343 1.241 . S
O348 Co336 2.137 . S
O348 C339 1.247 . S
O349 Co336 2.244 . S
O349 C339 1.272 . S
O349 Co341 2.135 . S
Co350 O351 2.216 . S
Co350 O352 2.091 . S
Co350 O354 2.004 . S
Co350 O360 2.021 . S
Co350 O362 2.137 . S
Co350 O363 2.244 . S
O351 Co350 2.216 . S
O351 C358 1.247 . S
O352 Co350 2.091 . S
O352 C358 1.261 . S
C353 O362 1.247 . S
C353 O363 1.272 . S
O354 Co350 2.004 . S
O354 C359 1.259 . S
Co355 O356 2.061 . S
Co355 O361 2.052 . S
Co355 O363 2.135 . S
O356 Co355 2.061 . S
O356 C359 1.235 . S
C357 O360 1.238 . S
C357 O361 1.241 . S
C358 O351 1.247 . S
C358 O352 1.261 . S
C359 O354 1.259 . S
C359 O356 1.235 . S
O360 Co350 2.021 . S
O360 C357 1.238 . S
O361 Co355 2.052 . S
O361 C357 1.241 . S
O362 Co350 2.137 . S
O362 C353 1.247 . S
O363 Co350 2.244 . S
O363 C353 1.272 . S
O363 Co355 2.135 . S
Co364 O365 2.216 . S
Co364 O366 2.091 . S
Co364 O368 2.004 . S
Co364 O374 2.021 . S
Co364 O376 2.137 . S
Co364 O377 2.244 . S
O365 Co364 2.216 . S
O365 C372 1.247 . S
O366 Co364 2.091 . S
O366 C372 1.261 . S
C367 O376 1.247 . S
C367 O377 1.272 . S
O368 Co364 2.004 . S
O368 C373 1.259 . S
Co369 O370 2.061 . S
Co369 O375 2.052 . S
Co369 O377 2.135 . S
O370 Co369 2.061 . S
O370 C373 1.235 . S
C371 O374 1.238 . S
C371 O375 1.241 . S
C372 O365 1.247 . S
C372 O366 1.261 . S
C373 O368 1.259 . S
C373 O370 1.235 . S
O374 Co364 2.021 . S
O374 C371 1.238 . S
O375 Co369 2.052 . S
O375 C371 1.241 . S
O376 Co364 2.137 . S
O376 C367 1.247 . S
O377 Co364 2.244 . S
O377 C367 1.272 . S
O377 Co369 2.135 . S
Co378 O379 2.236 . S
Co378 O380 2.091 1_455 S
Co378 O382 2.004 . S
Co378 O388 2.021 . S
Co378 O390 2.137 1_455 S
Co378 O391 2.244 . S
O379 Co378 2.236 . S
O379 C386 1.228 1_455 S
O380 Co378 2.091 1_655 S
O380 C386 1.261 . S
C381 O390 1.247 1_455 S
C381 O391 1.272 . S
O382 Co378 2.004 . S
O382 C387 1.259 . S
Co383 O384 2.061 . S
Co383 O389 2.052 . S
Co383 O391 2.135 . S
O384 Co383 2.061 . S
O384 C387 1.235 . S
C385 O388 1.238 . S
C385 O389 1.241 . S
C386 O379 1.228 1_655 S
C386 O380 1.261 . S
C387 O382 1.259 . S
C387 O384 1.235 . S
O388 Co378 2.021 . S
O388 C385 1.238 . S
O389 Co383 2.052 . S
O389 C385 1.241 . S
O390 Co378 2.137 1_655 S
O390 C381 1.247 1_655 S
O391 Co378 2.244 . S
O391 C381 1.272 . S
O391 Co383 2.135 . S
Co392 O393 2.216 . S
Co392 O394 2.091 . S
Co392 O396 2.004 . S
Co392 O402 2.021 . S
Co392 O404 2.137 . S
Co392 O405 2.244 . S
O393 Co392 2.216 . S
O393 C400 1.247 . S
O394 Co392 2.091 . S
O394 C400 1.261 . S
C395 O404 1.247 . S
C395 O405 1.272 . S
O396 Co392 2.004 . S
O396 C401 1.259 . S
Co397 O398 2.061 . S
Co397 O403 2.052 . S
Co397 O405 2.135 . S
O398 Co397 2.061 . S
O398 C401 1.235 . S
C399 O402 1.238 . S
C399 O403 1.241 . S
C400 O393 1.247 . S
C400 O394 1.261 . S
C401 O396 1.259 . S
C401 O398 1.235 . S
O402 Co392 2.021 . S
O402 C399 1.238 . S
O403 Co397 2.052 . S
O403 C399 1.241 . S
O404 Co392 2.137 . S
O404 C395 1.247 . S
O405 Co392 2.244 . S
O405 C395 1.272 . S
O405 Co397 2.135 . S
Co406 O407 2.236 . S
Co406 O408 2.091 1_455 S
Co406 O410 2.004 . S
Co406 O416 2.021 . S
Co406 O418 2.137 1_455 S
Co406 O419 2.244 . S
O407 Co406 2.236 . S
O407 C414 1.228 1_455 S
O408 Co406 2.091 1_655 S
O408 C414 1.261 . S
C409 O418 1.247 1_455 S
C409 O419 1.272 . S
O410 Co406 2.004 . S
O410 C415 1.259 . S
Co411 O412 2.061 . S
Co411 O417 2.052 . S
Co411 O419 2.135 . S
O412 Co411 2.061 . S
O412 C415 1.235 . S
C413 O416 1.238 . S
C413 O417 1.241 . S
C414 O407 1.228 1_655 S
C414 O408 1.261 . S
C415 O410 1.259 . S
C415 O412 1.235 . S
O416 Co406 2.021 . S
O416 C413 1.238 . S
O417 Co411 2.052 . S
O417 C413 1.241 . S
O418 Co406 2.137 1_655 S
O418 C409 1.247 1_655 S
O419 Co406 2.244 . S
O419 C409 1.272 . S
O419 Co411 2.135 . S
Co420 O421 2.216 . S
Co420 O422 2.091 . S
Co420 O424 2.004 . S
Co420 O430 2.021 . S
Co420 O432 2.137 . S
Co420 O433 2.244 . S
O421 Co420 2.216 . S
O421 C428 1.247 . S
O422 Co420 2.091 . S
O422 C428 1.261 . S
C423 O432 1.247 . S
C423 O433 1.272 . S
O424 Co420 2.004 . S
O424 C429 1.259 . S
Co425 O426 2.061 . S
Co425 O431 2.052 . S
Co425 O433 2.135 . S
O426 Co425 2.061 . S
O426 C429 1.235 . S
C427 O430 1.238 . S
C427 O431 1.241 . S
C428 O421 1.247 . S
C428 O422 1.261 . S
C429 O424 1.259 . S
C429 O426 1.235 . S
O430 Co420 2.021 . S
O430 C427 1.238 . S
O431 Co425 2.052 . S
O431 C427 1.241 . S
O432 Co420 2.137 . S
O432 C423 1.247 . S
O433 Co420 2.244 . S
O433 C423 1.272 . S
O433 Co425 2.135 . S
Co434 O435 2.216 . S
Co434 O436 2.091 . S
Co434 O438 2.004 . S
Co434 O444 2.021 . S
Co434 O446 2.137 . S
Co434 O447 2.244 . S
O435 Co434 2.216 . S
O435 C442 1.247 . S
O436 Co434 2.091 . S
O436 C442 1.261 . S
C437 O446 1.247 . S
C437 O447 1.272 . S
O438 Co434 2.004 . S
O438 C443 1.259 . S
Co439 O440 2.061 . S
Co439 O445 2.052 . S
Co439 O447 2.135 . S
O440 Co439 2.061 . S
O440 C443 1.235 . S
C441 O444 1.238 . S
C441 O445 1.241 . S
C442 O435 1.247 . S
C442 O436 1.261 . S
C443 O438 1.259 . S
C443 O440 1.235 . S
O444 Co434 2.021 . S
O444 C441 1.238 . S
O445 Co439 2.052 . S
O445 C441 1.241 . S
O446 Co434 2.137 . S
O446 C437 1.247 . S
O447 Co434 2.244 . S
O447 C437 1.272 . S
O447 Co439 2.135 . S
Co448 O449 2.216 . S
Co448 O450 2.091 . S
Co448 O452 2.004 . S
Co448 O458 2.021 . S
Co448 O460 2.137 . S
Co448 O461 2.244 . S
O449 Co448 2.216 . S
O449 C456 1.247 . S
O450 Co448 2.091 . S
O450 C456 1.261 . S
C451 O460 1.247 . S
C451 O461 1.272 . S
O452 Co448 2.004 . S
O452 C457 1.259 . S
Co453 O454 2.061 . S
Co453 O459 2.052 . S
Co453 O461 2.135 . S
O454 Co453 2.061 . S
O454 C457 1.235 . S
C455 O458 1.238 . S
C455 O459 1.241 . S
C456 O449 1.247 . S
C456 O450 1.261 . S
C457 O452 1.259 . S
C457 O454 1.235 . S
O458 Co448 2.021 . S
O458 C455 1.238 . S
O459 Co453 2.052 . S
O459 C455 1.241 . S
O460 Co448 2.137 . S
O460 C451 1.247 . S
O461 Co448 2.244 . S
O461 C451 1.272 . S
O461 Co453 2.135 . S
Co462 O463 2.236 . S
Co462 O464 2.091 1_554 S
Co462 O466 2.004 . S
Co462 O472 2.021 . S
Co462 O474 2.137 1_554 S
Co462 O475 2.244 . S
O463 Co462 2.236 . S
O463 C470 1.228 1_554 S
O464 Co462 2.091 1_556 S
O464 C470 1.261 . S
C465 O474 1.247 1_554 S
C465 O475 1.272 . S
O466 Co462 2.004 . S
O466 C471 1.259 . S
Co467 O468 2.061 . S
Co467 O473 2.052 . S
Co467 O475 2.135 . S
O468 Co467 2.061 . S
O468 C471 1.235 . S
C469 O472 1.238 . S
C469 O473 1.241 . S
C470 O463 1.228 1_556 S
C470 O464 1.261 . S
C471 O466 1.259 . S
C471 O468 1.235 . S
O472 Co462 2.021 . S
O472 C469 1.238 . S
O473 Co467 2.052 . S
O473 C469 1.241 . S
O474 Co462 2.137 1_556 S
O474 C465 1.247 1_556 S
O475 Co462 2.244 . S
O475 C465 1.272 . S
O475 Co467 2.135 . S
Co476 O477 2.216 . S
Co476 O478 2.091 . S
Co476 O480 2.004 . S
Co476 O486 2.021 . S
Co476 O488 2.137 . S
Co476 O489 2.244 . S
O477 Co476 2.216 . S
O477 C484 1.247 . S
O478 Co476 2.091 . S
O478 C484 1.261 . S
C479 O488 1.247 . S
C479 O489 1.272 . S
O480 Co476 2.004 . S
O480 C485 1.259 . S
Co481 O482 2.061 . S
Co481 O487 2.052 . S
Co481 O489 2.135 . S
O482 Co481 2.061 . S
O482 C485 1.235 . S
C483 O486 1.238 . S
C483 O487 1.241 . S
C484 O477 1.247 . S
C484 O478 1.261 . S
C485 O480 1.259 . S
C485 O482 1.235 . S
O486 Co476 2.021 . S
O486 C483 1.238 . S
O487 Co481 2.052 . S
O487 C483 1.241 . S
O488 Co476 2.137 . S
O488 C479 1.247 . S
O489 Co476 2.244 . S
O489 C479 1.272 . S
O489 Co481 2.135 . S
Co490 O491 2.216 . S
Co490 O492 2.091 . S
Co490 O494 2.004 . S
Co490 O500 2.021 . S
Co490 O502 2.137 . S
Co490 O503 2.244 . S
O491 Co490 2.216 . S
O491 C498 1.247 . S
O492 Co490 2.091 . S
O492 C498 1.261 . S
C493 O502 1.247 . S
C493 O503 1.272 . S
O494 Co490 2.004 . S
O494 C499 1.259 . S
Co495 O496 2.061 . S
Co495 O501 2.052 . S
Co495 O503 2.135 . S
O496 Co495 2.061 . S
O496 C499 1.235 . S
C497 O500 1.238 . S
C497 O501 1.241 . S
C498 O491 1.247 . S
C498 O492 1.261 . S
C499 O494 1.259 . S
C499 O496 1.235 . S
O500 Co490 2.021 . S
O500 C497 1.238 . S
O501 Co495 2.052 . S
O501 C497 1.241 . S
O502 Co490 2.137 . S
O502 C493 1.247 . S
O503 Co490 2.244 . S
O503 C493 1.272 . S
O503 Co495 2.135 . S
Co504 O505 2.216 . S
Co504 O506 2.091 . S
Co504 O508 2.004 . S
Co504 O514 2.021 . S
Co504 O516 2.137 . S
Co504 O517 2.244 . S
O505 Co504 2.216 . S
O505 C512 1.247 . S
O506 Co504 2.091 . S
O506 C512 1.261 . S
C507 O516 1.247 . S
C507 O517 1.272 . S
O508 Co504 2.004 . S
O508 C513 1.259 . S
Co509 O510 2.061 . S
Co509 O515 2.052 . S
Co509 O517 2.135 . S
O510 Co509 2.061 . S
O510 C513 1.235 . S
C511 O514 1.238 . S
C511 O515 1.241 . S
C512 O505 1.247 . S
C512 O506 1.261 . S
C513 O508 1.259 . S
C513 O510 1.235 . S
O514 Co504 2.021 . S
O514 C511 1.238 . S
O515 Co509 2.052 . S
O515 C511 1.241 . S
O516 Co504 2.137 . S
O516 C507 1.247 . S
O517 Co504 2.244 . S
O517 C507 1.272 . S
O517 Co509 2.135 . S
Co518 O519 2.219 . S
Co518 O520 2.091 1_556 S
Co518 O522 2.004 . S
Co518 O528 2.021 . S
Co518 O530 2.137 1_556 S
Co518 O531 2.244 . S
O519 Co518 2.219 . S
O519 C526 1.243 1_556 S
O520 Co518 2.091 1_554 S
O520 C526 1.261 . S
C521 O530 1.247 1_556 S
C521 O531 1.272 . S
O522 Co518 2.004 . S
O522 C527 1.259 . S
Co523 O524 2.061 . S
Co523 O529 2.052 . S
Co523 O531 2.135 . S
O524 Co523 2.061 . S
O524 C527 1.235 . S
C525 O528 1.238 . S
C525 O529 1.241 . S
C526 O519 1.243 1_554 S
C526 O520 1.261 . S
C527 O522 1.259 . S
C527 O524 1.235 . S
O528 Co518 2.021 . S
O528 C525 1.238 . S
O529 Co523 2.052 . S
O529 C525 1.241 . S
O530 Co518 2.137 1_554 S
O530 C521 1.247 1_554 S
O531 Co518 2.244 . S
O531 C521 1.272 . S
O531 Co523 2.135 . S
Co532 O533 2.216 . S
Co532 O534 2.091 . S
Co532 O536 2.004 . S
Co532 O542 2.021 . S
Co532 O544 2.137 . S
Co532 O545 2.244 . S
O533 Co532 2.216 . S
O533 C540 1.247 . S
O534 Co532 2.091 . S
O534 C540 1.261 . S
C535 O544 1.247 . S
C535 O545 1.272 . S
O536 Co532 2.004 . S
O536 C541 1.259 . S
Co537 O538 2.061 . S
Co537 O543 2.052 . S
Co537 O545 2.135 . S
O538 Co537 2.061 . S
O538 C541 1.235 . S
C539 O542 1.238 . S
C539 O543 1.241 . S
C540 O533 1.247 . S
C540 O534 1.261 . S
C541 O536 1.259 . S
C541 O538 1.235 . S
O542 Co532 2.021 . S
O542 C539 1.238 . S
O543 Co537 2.052 . S
O543 C539 1.241 . S
O544 Co532 2.137 . S
O544 C535 1.247 . S
O545 Co532 2.244 . S
O545 C535 1.272 . S
O545 Co537 2.135 . S
Co546 O547 2.216 . S
Co546 O548 2.091 . S
Co546 O550 2.004 . S
Co546 O556 2.021 . S
Co546 O558 2.137 . S
Co546 O559 2.244 . S
O547 Co546 2.216 . S
O547 C554 1.247 . S
O548 Co546 2.091 . S
O548 C554 1.261 . S
C549 O558 1.247 . S
C549 O559 1.272 . S
O550 Co546 2.004 . S
O550 C555 1.259 . S
Co551 O552 2.061 . S
Co551 O557 2.052 . S
Co551 O559 2.135 . S
O552 Co551 2.061 . S
O552 C555 1.235 . S
C553 O556 1.238 . S
C553 O557 1.241 . S
C554 O547 1.247 . S
C554 O548 1.261 . S
C555 O550 1.259 . S
C555 O552 1.235 . S
O556 Co546 2.021 . S
O556 C553 1.238 . S
O557 Co551 2.052 . S
O557 C553 1.241 . S
O558 Co546 2.137 . S
O558 C549 1.247 . S
O559 Co546 2.244 . S
O559 C549 1.272 . S
O559 Co551 2.135 . S
Co560 O561 2.216 . S
Co560 O562 2.091 . S
Co560 O564 2.004 . S
Co560 O570 2.021 . S
Co560 O572 2.137 . S
Co560 O573 2.244 . S
O561 Co560 2.216 . S
O561 C568 1.247 . S
O562 Co560 2.091 . S
O562 C568 1.261 . S
C563 O572 1.247 . S
C563 O573 1.272 . S
O564 Co560 2.004 . S
O564 C569 1.259 . S
Co565 O566 2.061 . S
Co565 O571 2.052 . S
Co565 O573 2.135 . S
O566 Co565 2.061 . S
O566 C569 1.235 . S
C567 O570 1.238 . S
C567 O571 1.241 . S
C568 O561 1.247 . S
C568 O562 1.261 . S
C569 O564 1.259 . S
C569 O566 1.235 . S
O570 Co560 2.021 . S
O570 C567 1.238 . S
O571 Co565 2.052 . S
O571 C567 1.241 . S
O572 Co560 2.137 . S
O572 C563 1.247 . S
O573 Co560 2.244 . S
O573 C563 1.272 . S
O573 Co565 2.135 . S
Co574 O575 2.216 . S
Co574 O576 2.091 . S
Co574 O578 2.004 . S
Co574 O584 2.021 . S
Co574 O586 2.137 . S
Co574 O587 2.244 . S
O575 Co574 2.216 . S
O575 C582 1.247 . S
O576 Co574 2.091 . S
O576 C582 1.261 . S
C577 O586 1.247 . S
C577 O587 1.272 . S
O578 Co574 2.004 . S
O578 C583 1.259 . S
Co579 O580 2.061 . S
Co579 O585 2.052 . S
Co579 O587 2.135 . S
O580 Co579 2.061 . S
O580 C583 1.235 . S
C581 O584 1.238 . S
C581 O585 1.241 . S
C582 O575 1.247 . S
C582 O576 1.261 . S
C583 O578 1.259 . S
C583 O580 1.235 . S
O584 Co574 2.021 . S
O584 C581 1.238 . S
O585 Co579 2.052 . S
O585 C581 1.241 . S
O586 Co574 2.137 . S
O586 C577 1.247 . S
O587 Co574 2.244 . S
O587 C577 1.272 . S
O587 Co579 2.135 . S
Co588 O589 2.236 . S
Co588 O590 2.091 1_545 S
Co588 O592 2.004 . S
Co588 O598 2.021 . S
Co588 O600 2.137 1_545 S
Co588 O601 2.244 . S
O589 Co588 2.236 . S
O589 C596 1.228 1_545 S
O590 Co588 2.091 1_565 S
O590 C596 1.261 . S
C591 O600 1.247 1_545 S
C591 O601 1.272 . S
O592 Co588 2.004 . S
O592 C597 1.259 . S
Co593 O594 2.061 . S
Co593 O599 2.052 . S
Co593 O601 2.135 . S
O594 Co593 2.061 . S
O594 C597 1.235 . S
C595 O598 1.238 . S
C595 O599 1.241 . S
C596 O589 1.228 1_565 S
C596 O590 1.261 . S
C597 O592 1.259 . S
C597 O594 1.235 . S
O598 Co588 2.021 . S
O598 C595 1.238 . S
O599 Co593 2.052 . S
O599 C595 1.241 . S
O600 Co588 2.137 1_565 S
O600 C591 1.247 1_565 S
O601 Co588 2.244 . S
O601 C591 1.272 . S
O601 Co593 2.135 . S
Co602 O603 2.216 . S
Co602 O604 2.091 . S
Co602 O606 2.004 . S
Co602 O612 2.021 . S
Co602 O614 2.137 . S
Co602 O615 2.244 . S
O603 Co602 2.216 . S
O603 C610 1.247 . S
O604 Co602 2.091 . S
O604 C610 1.261 . S
C605 O614 1.247 . S
C605 O615 1.272 . S
O606 Co602 2.004 . S
O606 C611 1.259 . S
Co607 O608 2.061 . S
Co607 O613 2.052 . S
Co607 O615 2.135 . S
O608 Co607 2.061 . S
O608 C611 1.235 . S
C609 O612 1.238 . S
C609 O613 1.241 . S
C610 O603 1.247 . S
C610 O604 1.261 . S
C611 O606 1.259 . S
C611 O608 1.235 . S
O612 Co602 2.021 . S
O612 C609 1.238 . S
O613 Co607 2.052 . S
O613 C609 1.241 . S
O614 Co602 2.137 . S
O614 C605 1.247 . S
O615 Co602 2.244 . S
O615 C605 1.272 . S
O615 Co607 2.135 . S
Co616 O617 2.216 . S
Co616 O618 2.091 . S
Co616 O620 2.004 . S
Co616 O626 2.021 . S
Co616 O628 2.137 . S
Co616 O629 2.244 . S
O617 Co616 2.216 . S
O617 C624 1.247 . S
O618 Co616 2.091 . S
O618 C624 1.261 . S
C619 O628 1.247 . S
C619 O629 1.272 . S
O620 Co616 2.004 . S
O620 C625 1.259 . S
Co621 O622 2.061 . S
Co621 O627 2.052 . S
Co621 O629 2.135 . S
O622 Co621 2.061 . S
O622 C625 1.235 . S
C623 O626 1.238 . S
C623 O627 1.241 . S
C624 O617 1.247 . S
C624 O618 1.261 . S
C625 O620 1.259 . S
C625 O622 1.235 . S
O626 Co616 2.021 . S
O626 C623 1.238 . S
O627 Co621 2.052 . S
O627 C623 1.241 . S
O628 Co616 2.137 . S
O628 C619 1.247 . S
O629 Co616 2.244 . S
O629 C619 1.272 . S
O629 Co621 2.135 . S
Co630 O631 2.216 . S
Co630 O632 2.091 . S
Co630 O634 2.004 . S
Co630 O640 2.021 . S
Co630 O642 2.137 . S
Co630 O643 2.244 . S
O631 Co630 2.216 . S
O631 C638 1.247 . S
O632 Co630 2.091 . S
O632 C638 1.261 . S
C633 O642 1.247 . S
C633 O643 1.272 . S
O634 Co630 2.004 . S
O634 C639 1.259 . S
Co635 O636 2.061 . S
Co635 O641 2.052 . S
Co635 O643 2.135 . S
O636 Co635 2.061 . S
O636 C639 1.235 . S
C637 O640 1.238 . S
C637 O641 1.241 . S
C638 O631 1.247 . S
C638 O632 1.261 . S
C639 O634 1.259 . S
C639 O636 1.235 . S
O640 Co630 2.021 . S
O640 C637 1.238 . S
O641 Co635 2.052 . S
O641 C637 1.241 . S
O642 Co630 2.137 . S
O642 C633 1.247 . S
O643 Co630 2.244 . S
O643 C633 1.272 . S
O643 Co635 2.135 . S
Co644 O645 2.219 . S
Co644 O646 2.091 1_565 S
Co644 O648 2.004 . S
Co644 O654 2.021 . S
Co644 O656 2.137 1_565 S
Co644 O657 2.244 . S
O645 Co644 2.219 . S
O645 C652 1.243 1_565 S
O646 Co644 2.091 1_545 S
O646 C652 1.261 . S
C647 O656 1.247 1_565 S
C647 O657 1.272 . S
O648 Co644 2.004 . S
O648 C653 1.259 . S
Co649 O650 2.061 . S
Co649 O655 2.052 . S
Co649 O657 2.135 . S
O650 Co649 2.061 . S
O650 C653 1.235 . S
C651 O654 1.238 . S
C651 O655 1.241 . S
C652 O645 1.243 1_545 S
C652 O646 1.261 . S
C653 O648 1.259 . S
C653 O650 1.235 . S
O654 Co644 2.021 . S
O654 C651 1.238 . S
O655 Co649 2.052 . S
O655 C651 1.241 . S
O656 Co644 2.137 1_545 S
O656 C647 1.247 1_545 S
O657 Co644 2.244 . S
O657 C647 1.272 . S
O657 Co649 2.135 . S
Co658 O659 2.236 . S
Co658 O660 2.091 1_545 S
Co658 O662 2.004 . S
Co658 O668 2.021 . S
Co658 O670 2.137 1_545 S
Co658 O671 2.244 . S
O659 Co658 2.236 . S
O659 C666 1.228 1_545 S
O660 Co658 2.091 1_565 S
O660 C666 1.261 . S
C661 O670 1.247 1_545 S
C661 O671 1.272 . S
O662 Co658 2.004 . S
O662 C667 1.259 . S
Co663 O664 2.061 . S
Co663 O669 2.052 . S
Co663 O671 2.135 . S
O664 Co663 2.061 . S
O664 C667 1.235 . S
C665 O668 1.238 . S
C665 O669 1.241 . S
C666 O659 1.228 1_565 S
C666 O660 1.261 . S
C667 O662 1.259 . S
C667 O664 1.235 . S
O668 Co658 2.021 . S
O668 C665 1.238 . S
O669 Co663 2.052 . S
O669 C665 1.241 . S
O670 Co658 2.137 1_565 S
O670 C661 1.247 1_565 S
O671 Co658 2.244 . S
O671 C661 1.272 . S
O671 Co663 2.135 . S
H672 C690 0.951 . S
H673 C692 0.951 . S
H674 C694 0.950 . S
H675 C695 0.950 . S
H676 C697 0.950 . S
H677 C700 0.950 . S
H678 C701 0.950 . S
H679 C703 0.950 . S
H680 C704 0.950 . S
H681 C705 0.951 . S
H682 C707 0.951 . S
H683 C709 0.950 . S
H684 C710 0.950 . S
H685 C712 0.950 . S
H686 C715 0.950 . S
H687 C716 0.950 . S
H688 C718 0.950 . S
H689 C719 0.950 . S
C690 H672 0.951 . S
C690 C691 1.366 . S
C690 C692 1.388 . S
C691 C690 1.366 . S
C691 C695 1.385 . S
C692 H673 0.951 . S
C692 C690 1.388 . S
C692 C693 1.366 . S
C693 C692 1.366 . S
C693 C694 1.414 . S
C693 C696 1.499 . S
C694 H674 0.950 . S
C694 C693 1.414 . S
C694 C695 1.374 . S
C695 H675 0.950 . S
C695 C691 1.385 . S
C695 C694 1.374 . S
C696 C693 1.499 . S
C696 C697 1.373 . S
C696 C698 1.389 . S
C697 H676 0.950 . S
C697 C696 1.373 . S
C697 C713 1.377 . S
C698 C696 1.389 . S
C698 C699 1.524 . S
C698 C712 1.377 . S
C699 C698 1.524 . S
C699 C700 1.397 . S
C699 C704 1.363 . S
C700 H677 0.950 . S
C700 C699 1.397 . S
C700 C701 1.334 . S
C701 H678 0.950 . S
C701 C700 1.334 . S
C701 C702 1.287 . S
C702 C701 1.287 . S
C702 C703 1.524 . S
C702 H721 0.913 . S
C703 H679 0.950 . S
C703 C702 1.524 . S
C703 C704 1.415 . S
C704 H680 0.950 . S
C704 C699 1.363 . S
C704 C703 1.415 . S
C705 H681 0.951 . S
C705 C706 1.366 . S
C705 C707 1.388 . S
C706 C705 1.366 . S
C706 C710 1.385 . S
C707 H682 0.951 . S
C707 C705 1.388 . S
C707 C708 1.366 . S
C708 C707 1.366 . S
C708 C709 1.414 . S
C708 C711 1.499 . S
C709 H683 0.950 . S
C709 C708 1.414 . S
C709 C710 1.374 . S
C710 H684 0.950 . S
C710 C706 1.385 . S
C710 C709 1.374 . S
C711 C708 1.499 . S
C711 C712 1.373 . S
C711 C713 1.389 . S
C712 H685 0.950 . S
C712 C698 1.377 . S
C712 C711 1.373 . S
C713 C697 1.377 . S
C713 C711 1.389 . S
C713 C714 1.524 . S
C714 C713 1.524 . S
C714 C715 1.397 . S
C714 C719 1.363 . S
C715 H686 0.950 . S
C715 C714 1.397 . S
C715 C716 1.334 . S
C716 H687 0.950 . S
C716 C715 1.334 . S
C716 C717 1.287 . S
C717 C716 1.287 . S
C717 C718 1.524 . S
C717 H720 0.999 . S
C718 H688 0.950 . S
C718 C717 1.524 . S
C718 C719 1.415 . S
C719 H689 0.950 . S
C719 C714 1.363 . S
C719 C718 1.415 . S
H720 C717 0.999 . S
H721 C702 0.913 . S
H722 C740 0.951 . S
H723 C742 0.951 . S
H724 C744 0.950 . S
H725 C745 0.950 . S
H726 C747 0.950 . S
H727 C750 0.950 . S
H728 C751 0.950 . S
H729 C753 0.950 . S
H730 C754 0.950 . S
H731 C755 0.951 . S
H732 C757 0.951 . S
H733 C759 0.950 . S
H734 C760 0.950 . S
H735 C762 0.950 . S
H736 C765 0.950 . S
H737 C766 0.950 . S
H738 C768 0.950 . S
H739 C769 0.950 . S
C740 H722 0.951 . S
C740 C741 1.366 . S
C740 C742 1.388 . S
C741 C740 1.366 . S
C741 C745 1.385 . S
C742 H723 0.951 . S
C742 C740 1.388 . S
C742 C743 1.366 . S
C743 C742 1.366 . S
C743 C744 1.414 . S
C743 C746 1.499 . S
C744 H724 0.950 . S
C744 C743 1.414 . S
C744 C745 1.374 . S
C745 H725 0.950 . S
C745 C741 1.385 . S
C745 C744 1.374 . S
C746 C743 1.499 . S
C746 C747 1.373 . S
C746 C748 1.389 . S
C747 H726 0.950 . S
C747 C746 1.373 . S
C747 C763 1.377 . S
C748 C746 1.389 . S
C748 C749 1.524 . S
C748 C762 1.377 . S
C749 C748 1.524 . S
C749 C750 1.397 . S
C749 C754 1.363 . S
C750 H727 0.950 . S
C750 C749 1.397 . S
C750 C751 1.334 . S
C751 H728 0.950 . S
C751 C750 1.334 . S
C751 C752 1.287 . S
C752 C751 1.287 . S
C752 C753 1.524 . S
C752 H771 0.913 . S
C753 H729 0.950 . S
C753 C752 1.524 . S
C753 C754 1.415 . S
C754 H730 0.950 . S
C754 C749 1.363 . S
C754 C753 1.415 . S
C755 H731 0.951 . S
C755 C756 1.366 . S
C755 C757 1.388 . S
C756 C755 1.366 . S
C756 C760 1.385 . S
C757 H732 0.951 . S
C757 C755 1.388 . S
C757 C758 1.366 . S
C758 C757 1.366 . S
C758 C759 1.414 . S
C758 C761 1.499 . S
C759 H733 0.950 . S
C759 C758 1.414 . S
C759 C760 1.374 . S
C760 H734 0.950 . S
C760 C756 1.385 . S
C760 C759 1.374 . S
C761 C758 1.499 . S
C761 C762 1.373 . S
C761 C763 1.389 . S
C762 H735 0.950 . S
C762 C748 1.377 . S
C762 C761 1.373 . S
C763 C747 1.377 . S
C763 C761 1.389 . S
C763 C764 1.524 . S
C764 C763 1.524 . S
C764 C765 1.397 . S
C764 C769 1.363 . S
C765 H736 0.950 . S
C765 C764 1.397 . S
C765 C766 1.334 . S
C766 H737 0.950 . S
C766 C765 1.334 . S
C766 C767 1.287 . S
C767 C766 1.287 . S
C767 C768 1.524 . S
C767 H770 0.999 1_455 S
C768 H738 0.950 . S
C768 C767 1.524 . S
C768 C769 1.415 . S
C769 H739 0.950 . S
C769 C764 1.363 . S
C769 C768 1.415 . S
H770 C767 0.999 1_655 S
H771 C752 0.913 . S
H772 C790 0.951 . S
H773 C792 0.951 . S
H774 C794 0.950 . S
H775 C795 0.950 . S
H776 C797 0.950 . S
H777 C800 0.950 . S
H778 C801 0.920 1_554 S
H779 C803 0.950 . S
H780 C804 0.950 . S
H781 C805 0.951 . S
H782 C807 0.951 . S
H783 C809 0.950 . S
H784 C810 0.950 . S
H785 C812 0.950 . S
H786 C815 0.950 . S
H787 C816 0.950 . S
H788 C818 0.950 . S
H789 C819 0.950 . S
C790 H772 0.951 . S
C790 C791 1.366 . S
C790 C792 1.388 . S
C791 C790 1.366 . S
C791 C795 1.385 . S
C792 H773 0.951 . S
C792 C790 1.388 . S
C792 C793 1.366 . S
C793 C792 1.366 . S
C793 C794 1.414 . S
C793 C796 1.499 . S
C794 H774 0.950 . S
C794 C793 1.414 . S
C794 C795 1.374 . S
C795 H775 0.950 . S
C795 C791 1.385 . S
C795 C794 1.374 . S
C796 C793 1.499 . S
C796 C797 1.373 . S
C796 C798 1.389 . S
C797 H776 0.950 . S
C797 C796 1.373 . S
C797 C813 1.377 . S
C798 C796 1.389 . S
C798 C799 1.524 . S
C798 C812 1.377 . S
C799 C798 1.524 . S
C799 C800 1.397 . S
C799 C804 1.363 . S
C800 H777 0.950 . S
C800 C799 1.397 . S
C800 C801 1.334 . S
C801 H778 0.920 1_556 S
C801 C800 1.334 . S
C801 C802 1.287 . S
C802 C801 1.287 . S
C802 C803 1.524 . S
C802 H821 0.913 . S
C803 H779 0.950 . S
C803 C802 1.524 . S
C803 C804 1.415 . S
C804 H780 0.950 . S
C804 C799 1.363 . S
C804 C803 1.415 . S
C805 H781 0.951 . S
C805 C806 1.366 . S
C805 C807 1.388 . S
C806 C805 1.366 . S
C806 C810 1.385 . S
C807 H782 0.951 . S
C807 C805 1.388 . S
C807 C808 1.366 . S
C808 C807 1.366 . S
C808 C809 1.414 . S
C808 C811 1.499 . S
C809 H783 0.950 . S
C809 C808 1.414 . S
C809 C810 1.374 . S
C810 H784 0.950 . S
C810 C806 1.385 . S
C810 C809 1.374 . S
C811 C808 1.499 . S
C811 C812 1.373 . S
C811 C813 1.389 . S
C812 H785 0.950 . S
C812 C798 1.377 . S
C812 C811 1.373 . S
C813 C797 1.377 . S
C813 C811 1.389 . S
C813 C814 1.524 . S
C814 C813 1.524 . S
C814 C815 1.397 . S
C814 C819 1.363 . S
C815 H786 0.950 . S
C815 C814 1.397 . S
C815 C816 1.334 . S
C816 H787 0.950 . S
C816 C815 1.334 . S
C816 C817 1.287 . S
C817 C816 1.287 . S
C817 C818 1.524 . S
C817 H820 0.999 . S
C818 H788 0.950 . S
C818 C817 1.524 . S
C818 C819 1.415 . S
C819 H789 0.950 . S
C819 C814 1.363 . S
C819 C818 1.415 . S
H820 C817 0.999 . S
H821 C802 0.913 . S
H822 C840 0.951 . S
H823 C842 0.951 . S
H824 C844 0.950 . S
H825 C845 0.950 . S
H826 C847 0.950 . S
H827 C850 0.950 . S
H828 C851 0.950 . S
H829 C853 0.950 . S
H830 C854 0.950 . S
H831 C855 0.951 . S
H832 C857 0.951 . S
H833 C859 0.950 . S
H834 C860 0.950 . S
H835 C862 0.950 . S
H836 C865 0.950 . S
H837 C866 0.950 . S
H838 C868 0.950 . S
H839 C869 0.950 . S
C840 H822 0.951 . S
C840 C841 1.366 . S
C840 C842 1.388 . S
C841 C840 1.366 . S
C841 C845 1.385 . S
C842 H823 0.951 . S
C842 C840 1.388 . S
C842 C843 1.366 . S
C843 C842 1.366 . S
C843 C844 1.414 . S
C843 C846 1.499 . S
C844 H824 0.950 . S
C844 C843 1.414 . S
C844 C845 1.374 . S
C845 H825 0.950 . S
C845 C841 1.385 . S
C845 C844 1.374 . S
C846 C843 1.499 . S
C846 C847 1.373 . S
C846 C848 1.389 . S
C847 H826 0.950 . S
C847 C846 1.373 . S
C847 C863 1.377 . S
C848 C846 1.389 . S
C848 C849 1.524 . S
C848 C862 1.377 . S
C849 C848 1.524 . S
C849 C850 1.397 . S
C849 C854 1.363 . S
C850 H827 0.950 . S
C850 C849 1.397 . S
C850 C851 1.334 . S
C851 H828 0.950 . S
C851 C850 1.334 . S
C851 C852 1.287 . S
C852 C851 1.287 . S
C852 C853 1.524 . S
C852 H871 0.913 . S
C853 H829 0.950 . S
C853 C852 1.524 . S
C853 C854 1.415 . S
C854 H830 0.950 . S
C854 C849 1.363 . S
C854 C853 1.415 . S
C855 H831 0.951 . S
C855 C856 1.366 . S
C855 C857 1.388 . S
C856 C855 1.366 . S
C856 C860 1.385 . S
C857 H832 0.951 . S
C857 C855 1.388 . S
C857 C858 1.366 . S
C858 C857 1.366 . S
C858 C859 1.414 . S
C858 C861 1.499 . S
C859 H833 0.950 . S
C859 C858 1.414 . S
C859 C860 1.374 . S
C860 H834 0.950 . S
C860 C856 1.385 . S
C860 C859 1.374 . S
C861 C858 1.499 . S
C861 C862 1.373 . S
C861 C863 1.389 . S
C862 H835 0.950 . S
C862 C848 1.377 . S
C862 C861 1.373 . S
C863 C847 1.377 . S
C863 C861 1.389 . S
C863 C864 1.524 . S
C864 C863 1.524 . S
C864 C865 1.397 . S
C864 C869 1.363 . S
C865 H836 0.950 . S
C865 C864 1.397 . S
C865 C866 1.334 . S
C866 H837 0.950 . S
C866 C865 1.334 . S
C866 C867 1.287 . S
C867 C866 1.287 . S
C867 C868 1.524 . S
C867 H870 0.999 . S
C868 H838 0.950 . S
C868 C867 1.524 . S
C868 C869 1.415 . S
C869 H839 0.950 . S
C869 C864 1.363 . S
C869 C868 1.415 . S
H870 C867 0.999 . S
H871 C852 0.913 . S
H872 C890 0.951 . S
H873 C892 0.951 . S
H874 C894 0.950 . S
H875 C895 0.950 . S
H876 C897 0.950 . S
H877 C900 0.950 . S
H878 C901 0.950 . S
H879 C903 0.950 . S
H880 C904 0.950 . S
H881 C905 0.951 . S
H882 C907 0.951 . S
H883 C909 0.950 . S
H884 C910 0.950 . S
H885 C912 0.950 . S
H886 C915 0.950 . S
H887 C916 0.950 . S
H888 C918 0.950 . S
H889 C919 0.950 . S
C890 H872 0.951 . S
C890 C891 1.366 . S
C890 C892 1.388 . S
C891 C890 1.366 . S
C891 C895 1.385 . S
C892 H873 0.951 . S
C892 C890 1.388 . S
C892 C893 1.366 . S
C893 C892 1.366 . S
C893 C894 1.414 . S
C893 C896 1.499 . S
C894 H874 0.950 . S
C894 C893 1.414 . S
C894 C895 1.374 . S
C895 H875 0.950 . S
C895 C891 1.385 . S
C895 C894 1.374 . S
C896 C893 1.499 . S
C896 C897 1.373 . S
C896 C898 1.389 . S
C897 H876 0.950 . S
C897 C896 1.373 . S
C897 C913 1.377 . S
C898 C896 1.389 . S
C898 C899 1.524 . S
C898 C912 1.377 . S
C899 C898 1.524 . S
C899 C900 1.397 . S
C899 C904 1.363 . S
C900 H877 0.950 . S
C900 C899 1.397 . S
C900 C901 1.334 . S
C901 H878 0.950 . S
C901 C900 1.334 . S
C901 C902 1.287 . S
C902 C901 1.287 . S
C902 C903 1.524 . S
C902 H921 0.913 . S
C903 H879 0.950 . S
C903 C902 1.524 . S
C903 C904 1.415 . S
C904 H880 0.950 . S
C904 C899 1.363 . S
C904 C903 1.415 . S
C905 H881 0.951 . S
C905 C906 1.366 . S
C905 C907 1.388 . S
C906 C905 1.366 . S
C906 C910 1.385 . S
C907 H882 0.951 . S
C907 C905 1.388 . S
C907 C908 1.366 . S
C908 C907 1.366 . S
C908 C909 1.414 . S
C908 C911 1.499 . S
C909 H883 0.950 . S
C909 C908 1.414 . S
C909 C910 1.374 . S
C910 H884 0.950 . S
C910 C906 1.385 . S
C910 C909 1.374 . S
C911 C908 1.499 . S
C911 C912 1.373 . S
C911 C913 1.389 . S
C912 H885 0.950 . S
C912 C898 1.377 . S
C912 C911 1.373 . S
C913 C897 1.377 . S
C913 C911 1.389 . S
C913 C914 1.524 . S
C914 C913 1.524 . S
C914 C915 1.397 . S
C914 C919 1.363 . S
C915 H886 0.950 . S
C915 C914 1.397 . S
C915 C916 1.334 . S
C916 H887 0.950 . S
C916 C915 1.334 . S
C916 C917 1.287 . S
C917 C916 1.287 . S
C917 C918 1.524 . S
C917 H920 0.999 . S
C918 H888 0.950 . S
C918 C917 1.524 . S
C918 C919 1.415 . S
C919 H889 0.950 . S
C919 C914 1.363 . S
C919 C918 1.415 . S
H920 C917 0.999 . S
H921 C902 0.913 . S
H922 C940 0.951 . S
H923 C942 0.951 . S
H924 C944 0.950 . S
H925 C945 0.950 . S
H926 C947 0.950 . S
H927 C950 0.950 . S
H928 C951 0.950 . S
H929 C953 0.950 . S
H930 C954 0.950 . S
H931 C955 0.951 . S
H932 C957 0.951 . S
H933 C959 0.950 . S
H934 C960 0.950 . S
H935 C962 0.950 . S
H936 C965 0.950 . S
H937 C966 0.950 . S
H938 C968 0.950 . S
H939 C969 0.950 . S
C940 H922 0.951 . S
C940 C941 1.366 . S
C940 C942 1.388 . S
C941 C940 1.366 . S
C941 C945 1.385 . S
C942 H923 0.951 . S
C942 C940 1.388 . S
C942 C943 1.366 . S
C943 C942 1.366 . S
C943 C944 1.414 . S
C943 C946 1.499 . S
C944 H924 0.950 . S
C944 C943 1.414 . S
C944 C945 1.374 . S
C945 H925 0.950 . S
C945 C941 1.385 . S
C945 C944 1.374 . S
C946 C943 1.499 . S
C946 C947 1.373 . S
C946 C948 1.389 . S
C947 H926 0.950 . S
C947 C946 1.373 . S
C947 C963 1.377 . S
C948 C946 1.389 . S
C948 C949 1.524 . S
C948 C962 1.377 . S
C949 C948 1.524 . S
C949 C950 1.397 . S
C949 C954 1.363 . S
C950 H927 0.950 . S
C950 C949 1.397 . S
C950 C951 1.334 . S
C951 H928 0.950 . S
C951 C950 1.334 . S
C951 C952 1.287 . S
C952 C951 1.287 . S
C952 C953 1.524 . S
C952 H971 0.913 . S
C953 H929 0.950 . S
C953 C952 1.524 . S
C953 C954 1.415 . S
C954 H930 0.950 . S
C954 C949 1.363 . S
C954 C953 1.415 . S
C955 H931 0.951 . S
C955 C956 1.366 . S
C955 C957 1.388 . S
C956 C955 1.366 . S
C956 C960 1.385 . S
C957 H932 0.951 . S
C957 C955 1.388 . S
C957 C958 1.366 . S
C958 C957 1.366 . S
C958 C959 1.414 . S
C958 C961 1.499 . S
C959 H933 0.950 . S
C959 C958 1.414 . S
C959 C960 1.374 . S
C960 H934 0.950 . S
C960 C956 1.385 . S
C960 C959 1.374 . S
C961 C958 1.499 . S
C961 C962 1.373 . S
C961 C963 1.389 . S
C962 H935 0.950 . S
C962 C948 1.377 . S
C962 C961 1.373 . S
C963 C947 1.377 . S
C963 C961 1.389 . S
C963 C964 1.524 . S
C964 C963 1.524 . S
C964 C965 1.397 . S
C964 C969 1.363 . S
C965 H936 0.950 . S
C965 C964 1.397 . S
C965 C966 1.334 . S
C966 H937 0.950 . S
C966 C965 1.334 . S
C966 C967 1.287 . S
C967 C966 1.287 . S
C967 C968 1.524 . S
C967 H970 0.999 . S
C968 H938 0.950 . S
C968 C967 1.524 . S
C968 C969 1.415 . S
C969 H939 0.950 . S
C969 C964 1.363 . S
C969 C968 1.415 . S
H970 C967 0.999 . S
H971 C952 0.913 . S
H972 C990 0.951 . S
H973 C992 0.951 . S
H974 C994 0.950 . S
H975 C995 0.950 . S
H976 C997 0.950 . S
H977 C1000 0.950 . S
H978 C1001 0.950 . S
H979 C1003 0.950 . S
H980 C1004 0.950 . S
H981 C1005 0.951 . S
H982 C1007 0.951 . S
H983 C1009 0.950 . S
H984 C1010 0.950 . S
H985 C1012 0.950 . S
H986 C1015 0.950 . S
H987 C1016 0.950 . S
H988 C1018 0.950 . S
H989 C1019 0.950 . S
C990 H972 0.951 . S
C990 C991 1.366 . S
C990 C992 1.388 . S
C991 C990 1.366 . S
C991 C995 1.385 . S
C992 H973 0.951 . S
C992 C990 1.388 . S
C992 C993 1.366 . S
C993 C992 1.366 . S
C993 C994 1.414 . S
C993 C996 1.499 . S
C994 H974 0.950 . S
C994 C993 1.414 . S
C994 C995 1.374 . S
C995 H975 0.950 . S
C995 C991 1.385 . S
C995 C994 1.374 . S
C996 C993 1.499 . S
C996 C997 1.373 . S
C996 C998 1.389 . S
C997 H976 0.950 . S
C997 C996 1.373 . S
C997 C1013 1.377 . S
C998 C996 1.389 . S
C998 C999 1.524 . S
C998 C1012 1.377 . S
C999 C998 1.524 . S
C999 C1000 1.397 . S
C999 C1004 1.363 . S
C1000 H977 0.950 . S
C1000 C999 1.397 . S
C1000 C1001 1.334 . S
C1001 H978 0.950 . S
C1001 C1000 1.334 . S
C1001 C1002 1.287 . S
C1002 C1001 1.287 . S
C1002 C1003 1.524 . S
C1002 H1021 0.913 . S
C1003 H979 0.950 . S
C1003 C1002 1.524 . S
C1003 C1004 1.415 . S
C1004 H980 0.950 . S
C1004 C999 1.363 . S
C1004 C1003 1.415 . S
C1005 H981 0.951 . S
C1005 C1006 1.366 . S
C1005 C1007 1.388 . S
C1006 C1005 1.366 . S
C1006 C1010 1.385 . S
C1007 H982 0.951 . S
C1007 C1005 1.388 . S
C1007 C1008 1.366 . S
C1008 C1007 1.366 . S
C1008 C1009 1.414 . S
C1008 C1011 1.499 . S
C1009 H983 0.950 . S
C1009 C1008 1.414 . S
C1009 C1010 1.374 . S
C1010 H984 0.950 . S
C1010 C1006 1.385 . S
C1010 C1009 1.374 . S
C1011 C1008 1.499 . S
C1011 C1012 1.373 . S
C1011 C1013 1.389 . S
C1012 H985 0.950 . S
C1012 C998 1.377 . S
C1012 C1011 1.373 . S
C1013 C997 1.377 . S
C1013 C1011 1.389 . S
C1013 C1014 1.524 . S
C1014 C1013 1.524 . S
C1014 C1015 1.397 . S
C1014 C1019 1.363 . S
C1015 H986 0.950 . S
C1015 C1014 1.397 . S
C1015 C1016 1.334 . S
C1016 H987 0.950 . S
C1016 C1015 1.334 . S
C1016 C1017 1.287 . S
C1017 C1016 1.287 . S
C1017 C1018 1.524 . S
C1017 H1020 0.999 . S
C1018 H988 0.950 . S
C1018 C1017 1.524 . S
C1018 C1019 1.415 . S
C1019 H989 0.950 . S
C1019 C1014 1.363 . S
C1019 C1018 1.415 . S
H1020 C1017 0.999 . S
H1021 C1002 0.913 . S
H1022 C1040 0.951 . S
H1023 C1042 0.951 . S
H1024 C1044 0.950 . S
H1025 C1045 0.950 . S
H1026 C1047 0.950 . S
H1027 C1050 0.950 . S
H1028 C1051 0.950 . S
H1029 C1053 0.950 . S
H1030 C1054 0.950 . S
H1031 C1055 0.951 . S
H1032 C1057 0.951 . S
H1033 C1059 0.950 . S
H1034 C1060 0.950 . S
H1035 C1062 0.950 . S
H1036 C1065 0.950 . S
H1037 C1066 0.950 . S
H1038 C1068 0.950 . S
H1039 C1069 0.950 . S
C1040 H1022 0.951 . S
C1040 C1041 1.366 . S
C1040 C1042 1.388 . S
C1041 C1040 1.366 . S
C1041 C1045 1.385 . S
C1042 H1023 0.951 . S
C1042 C1040 1.388 . S
C1042 C1043 1.366 . S
C1043 C1042 1.366 . S
C1043 C1044 1.414 . S
C1043 C1046 1.499 . S
C1044 H1024 0.950 . S
C1044 C1043 1.414 . S
C1044 C1045 1.374 . S
C1045 H1025 0.950 . S
C1045 C1041 1.385 . S
C1045 C1044 1.374 . S
C1046 C1043 1.499 . S
C1046 C1047 1.373 . S
C1046 C1048 1.389 . S
C1047 H1026 0.950 . S
C1047 C1046 1.373 . S
C1047 C1063 1.377 . S
C1048 C1046 1.389 . S
C1048 C1049 1.524 . S
C1048 C1062 1.377 . S
C1049 C1048 1.524 . S
C1049 C1050 1.397 . S
C1049 C1054 1.363 . S
C1050 H1027 0.950 . S
C1050 C1049 1.397 . S
C1050 C1051 1.334 . S
C1051 H1028 0.950 . S
C1051 C1050 1.334 . S
C1051 C1052 1.287 . S
C1052 C1051 1.287 . S
C1052 C1053 1.524 . S
C1052 H1071 0.913 . S
C1053 H1029 0.950 . S
C1053 C1052 1.524 . S
C1053 C1054 1.415 . S
C1054 H1030 0.950 . S
C1054 C1049 1.363 . S
C1054 C1053 1.415 . S
C1055 H1031 0.951 . S
C1055 C1056 1.366 . S
C1055 C1057 1.388 . S
C1056 C1055 1.366 . S
C1056 C1060 1.385 . S
C1057 H1032 0.951 . S
C1057 C1055 1.388 . S
C1057 C1058 1.366 . S
C1058 C1057 1.366 . S
C1058 C1059 1.414 . S
C1058 C1061 1.499 . S
C1059 H1033 0.950 . S
C1059 C1058 1.414 . S
C1059 C1060 1.374 . S
C1060 H1034 0.950 . S
C1060 C1056 1.385 . S
C1060 C1059 1.374 . S
C1061 C1058 1.499 . S
C1061 C1062 1.373 . S
C1061 C1063 1.389 . S
C1062 H1035 0.950 . S
C1062 C1048 1.377 . S
C1062 C1061 1.373 . S
C1063 C1047 1.377 . S
C1063 C1061 1.389 . S
C1063 C1064 1.524 . S
C1064 C1063 1.524 . S
C1064 C1065 1.397 . S
C1064 C1069 1.363 . S
C1065 H1036 0.950 . S
C1065 C1064 1.397 . S
C1065 C1066 1.334 . S
C1066 H1037 0.950 . S
C1066 C1065 1.334 . S
C1066 C1067 1.287 . S
C1067 C1066 1.287 . S
C1067 C1068 1.524 . S
C1067 H1070 0.999 . S
C1068 H1038 0.950 . S
C1068 C1067 1.524 . S
C1068 C1069 1.415 . S
C1069 H1039 0.950 . S
C1069 C1064 1.363 . S
C1069 C1068 1.415 . S
H1070 C1067 0.999 . S
H1071 C1052 0.913 . S
H1072 C1090 0.951 . S
H1073 C1092 0.951 . S
H1074 C1094 0.950 . S
H1075 C1095 0.950 . S
H1076 C1097 0.950 . S
H1077 C1100 0.950 . S
H1078 C1101 0.950 . S
H1079 C1103 0.950 . S
H1080 C1104 0.950 . S
H1081 C1105 0.951 . S
H1082 C1107 0.951 . S
H1083 C1109 0.950 . S
H1084 C1110 0.950 . S
H1085 C1112 0.950 . S
H1086 C1115 0.950 . S
H1087 C1116 0.950 . S
H1088 C1118 0.950 . S
H1089 C1119 0.950 . S
C1090 H1072 0.951 . S
C1090 C1091 1.366 . S
C1090 C1092 1.388 . S
C1091 C1090 1.366 . S
C1091 C1095 1.385 . S
C1092 H1073 0.951 . S
C1092 C1090 1.388 . S
C1092 C1093 1.366 . S
C1093 C1092 1.366 . S
C1093 C1094 1.414 . S
C1093 C1096 1.499 . S
C1094 H1074 0.950 . S
C1094 C1093 1.414 . S
C1094 C1095 1.374 . S
C1095 H1075 0.950 . S
C1095 C1091 1.385 . S
C1095 C1094 1.374 . S
C1096 C1093 1.499 . S
C1096 C1097 1.373 . S
C1096 C1098 1.389 . S
C1097 H1076 0.950 . S
C1097 C1096 1.373 . S
C1097 C1113 1.377 . S
C1098 C1096 1.389 . S
C1098 C1099 1.524 . S
C1098 C1112 1.377 . S
C1099 C1098 1.524 . S
C1099 C1100 1.397 . S
C1099 C1104 1.363 . S
C1100 H1077 0.950 . S
C1100 C1099 1.397 . S
C1100 C1101 1.334 . S
C1101 H1078 0.950 . S
C1101 C1100 1.334 . S
C1101 C1102 1.287 . S
C1102 C1101 1.287 . S
C1102 C1103 1.524 . S
C1102 H1121 0.913 . S
C1103 H1079 0.950 . S
C1103 C1102 1.524 . S
C1103 C1104 1.415 . S
C1104 H1080 0.950 . S
C1104 C1099 1.363 . S
C1104 C1103 1.415 . S
C1105 H1081 0.951 . S
C1105 C1106 1.366 . S
C1105 C1107 1.388 . S
C1106 C1105 1.366 . S
C1106 C1110 1.385 . S
C1107 H1082 0.951 . S
C1107 C1105 1.388 . S
C1107 C1108 1.366 . S
C1108 C1107 1.366 . S
C1108 C1109 1.414 . S
C1108 C1111 1.499 . S
C1109 H1083 0.950 . S
C1109 C1108 1.414 . S
C1109 C1110 1.374 . S
C1110 H1084 0.950 . S
C1110 C1106 1.385 . S
C1110 C1109 1.374 . S
C1111 C1108 1.499 . S
C1111 C1112 1.373 . S
C1111 C1113 1.389 . S
C1112 H1085 0.950 . S
C1112 C1098 1.377 . S
C1112 C1111 1.373 . S
C1113 C1097 1.377 . S
C1113 C1111 1.389 . S
C1113 C1114 1.524 . S
C1114 C1113 1.524 . S
C1114 C1115 1.397 . S
C1114 C1119 1.363 . S
C1115 H1086 0.950 . S
C1115 C1114 1.397 . S
C1115 C1116 1.334 . S
C1116 H1087 0.950 . S
C1116 C1115 1.334 . S
C1116 C1117 1.287 . S
C1117 C1116 1.287 . S
C1117 C1118 1.524 . S
C1117 H1120 0.999 . S
C1118 H1088 0.950 . S
C1118 C1117 1.524 . S
C1118 C1119 1.415 . S
C1119 H1089 0.950 . S
C1119 C1114 1.363 . S
C1119 C1118 1.415 . S
H1120 C1117 0.999 . S
H1121 C1102 0.913 . S
H1122 C1140 0.951 . S
H1123 C1142 0.951 . S
H1124 C1144 0.950 . S
H1125 C1145 0.950 . S
H1126 C1147 0.950 . S
H1127 C1150 0.950 . S
H1128 C1151 0.950 . S
H1129 C1153 0.950 . S
H1130 C1154 0.950 . S
H1131 C1155 0.951 . S
H1132 C1157 0.951 . S
H1133 C1159 0.950 . S
H1134 C1160 0.950 . S
H1135 C1162 0.950 . S
H1136 C1165 0.950 . S
H1137 C1166 0.950 . S
H1138 C1168 0.950 . S
H1139 C1169 0.950 . S
C1140 H1122 0.951 . S
C1140 C1141 1.366 . S
C1140 C1142 1.388 . S
C1141 C1140 1.366 . S
C1141 C1145 1.385 . S
C1142 H1123 0.951 . S
C1142 C1140 1.388 . S
C1142 C1143 1.366 . S
C1143 C1142 1.366 . S
C1143 C1144 1.414 . S
C1143 C1146 1.499 . S
C1144 H1124 0.950 . S
C1144 C1143 1.414 . S
C1144 C1145 1.374 . S
C1145 H1125 0.950 . S
C1145 C1141 1.385 . S
C1145 C1144 1.374 . S
C1146 C1143 1.499 . S
C1146 C1147 1.373 . S
C1146 C1148 1.389 . S
C1147 H1126 0.950 . S
C1147 C1146 1.373 . S
C1147 C1163 1.377 . S
C1148 C1146 1.389 . S
C1148 C1149 1.524 . S
C1148 C1162 1.377 . S
C1149 C1148 1.524 . S
C1149 C1150 1.397 . S
C1149 C1154 1.363 . S
C1150 H1127 0.950 . S
C1150 C1149 1.397 . S
C1150 C1151 1.334 . S
C1151 H1128 0.950 . S
C1151 C1150 1.334 . S
C1151 C1152 1.287 . S
C1152 C1151 1.287 . S
C1152 C1153 1.524 . S
C1152 H1171 0.913 . S
C1153 H1129 0.950 . S
C1153 C1152 1.524 . S
C1153 C1154 1.415 . S
C1154 H1130 0.950 . S
C1154 C1149 1.363 . S
C1154 C1153 1.415 . S
C1155 H1131 0.951 . S
C1155 C1156 1.366 . S
C1155 C1157 1.388 . S
C1156 C1155 1.366 . S
C1156 C1160 1.385 . S
C1157 H1132 0.951 . S
C1157 C1155 1.388 . S
C1157 C1158 1.366 . S
C1158 C1157 1.366 . S
C1158 C1159 1.414 . S
C1158 C1161 1.499 . S
C1159 H1133 0.950 . S
C1159 C1158 1.414 . S
C1159 C1160 1.374 . S
C1160 H1134 0.950 . S
C1160 C1156 1.385 . S
C1160 C1159 1.374 . S
C1161 C1158 1.499 . S
C1161 C1162 1.373 . S
C1161 C1163 1.389 . S
C1162 H1135 0.950 . S
C1162 C1148 1.377 . S
C1162 C1161 1.373 . S
C1163 C1147 1.377 . S
C1163 C1161 1.389 . S
C1163 C1164 1.524 . S
C1164 C1163 1.524 . S
C1164 C1165 1.397 . S
C1164 C1169 1.363 . S
C1165 H1136 0.950 . S
C1165 C1164 1.397 . S
C1165 C1166 1.334 . S
C1166 H1137 0.950 . S
C1166 C1165 1.334 . S
C1166 C1167 1.287 . S
C1167 C1166 1.287 . S
C1167 C1168 1.524 . S
C1167 H1170 0.999 . S
C1168 H1138 0.950 . S
C1168 C1167 1.524 . S
C1168 C1169 1.415 . S
C1169 H1139 0.950 . S
C1169 C1164 1.363 . S
C1169 C1168 1.415 . S
H1170 C1167 0.999 . S
H1171 C1152 0.913 . S
H1172 C1190 0.951 . S
H1173 C1192 0.951 . S
H1174 C1194 0.950 . S
H1175 C1195 0.950 . S
H1176 C1197 0.950 . S
H1177 C1200 0.950 . S
H1178 C1201 0.950 . S
H1179 C1203 0.950 . S
H1180 C1204 0.950 . S
H1181 C1205 0.951 . S
H1182 C1207 0.951 . S
H1183 C1209 0.950 . S
H1184 C1210 0.950 . S
H1185 C1212 0.950 . S
H1186 C1215 0.950 . S
H1187 C1216 0.950 . S
H1188 C1218 0.950 . S
H1189 C1219 0.950 . S
C1190 H1172 0.951 . S
C1190 C1191 1.366 . S
C1190 C1192 1.388 . S
C1191 C1190 1.366 . S
C1191 C1195 1.385 . S
C1192 H1173 0.951 . S
C1192 C1190 1.388 . S
C1192 C1193 1.366 . S
C1193 C1192 1.366 . S
C1193 C1194 1.414 . S
C1193 C1196 1.499 . S
C1194 H1174 0.950 . S
C1194 C1193 1.414 . S
C1194 C1195 1.374 . S
C1195 H1175 0.950 . S
C1195 C1191 1.385 . S
C1195 C1194 1.374 . S
C1196 C1193 1.499 . S
C1196 C1197 1.373 . S
C1196 C1198 1.389 . S
C1197 H1176 0.950 . S
C1197 C1196 1.373 . S
C1197 C1213 1.377 . S
C1198 C1196 1.389 . S
C1198 C1199 1.524 . S
C1198 C1212 1.377 . S
C1199 C1198 1.524 . S
C1199 C1200 1.397 . S
C1199 C1204 1.363 . S
C1200 H1177 0.950 . S
C1200 C1199 1.397 . S
C1200 C1201 1.334 . S
C1201 H1178 0.950 . S
C1201 C1200 1.334 . S
C1201 C1202 1.287 . S
C1202 C1201 1.287 . S
C1202 C1203 1.524 . S
C1202 H1221 0.913 . S
C1203 H1179 0.950 . S
C1203 C1202 1.524 . S
C1203 C1204 1.415 . S
C1204 H1180 0.950 . S
C1204 C1199 1.363 . S
C1204 C1203 1.415 . S
C1205 H1181 0.951 . S
C1205 C1206 1.366 . S
C1205 C1207 1.388 . S
C1206 C1205 1.366 . S
C1206 C1210 1.385 . S
C1207 H1182 0.951 . S
C1207 C1205 1.388 . S
C1207 C1208 1.366 . S
C1208 C1207 1.366 . S
C1208 C1209 1.414 . S
C1208 C1211 1.499 . S
C1209 H1183 0.950 . S
C1209 C1208 1.414 . S
C1209 C1210 1.374 . S
C1210 H1184 0.950 . S
C1210 C1206 1.385 . S
C1210 C1209 1.374 . S
C1211 C1208 1.499 . S
C1211 C1212 1.373 . S
C1211 C1213 1.389 . S
C1212 H1185 0.950 . S
C1212 C1198 1.377 . S
C1212 C1211 1.373 . S
C1213 C1197 1.377 . S
C1213 C1211 1.389 . S
C1213 C1214 1.524 . S
C1214 C1213 1.524 . S
C1214 C1215 1.397 . S
C1214 C1219 1.363 . S
C1215 H1186 0.950 . S
C1215 C1214 1.397 . S
C1215 C1216 1.334 . S
C1216 H1187 0.950 . S
C1216 C1215 1.334 . S
C1216 C1217 1.287 . S
C1217 C1216 1.287 . S
C1217 C1218 1.524 . S
C1217 H1220 0.999 . S
C1218 H1188 0.950 . S
C1218 C1217 1.524 . S
C1218 C1219 1.415 . S
C1219 H1189 0.950 . S
C1219 C1214 1.363 . S
C1219 C1218 1.415 . S
H1220 C1217 0.999 . S
H1221 C1202 0.913 . S
H1222 C1240 0.951 . S
H1223 C1242 0.951 . S
H1224 C1244 0.950 . S
H1225 C1245 0.950 . S
H1226 C1247 0.950 . S
H1227 C1250 0.950 . S
H1228 C1251 0.950 . S
H1229 C1253 0.950 . S
H1230 C1254 0.950 . S
H1231 C1255 0.951 . S
H1232 C1257 0.951 . S
H1233 C1259 0.950 . S
H1234 C1260 0.950 . S
H1235 C1262 0.950 . S
H1236 C1265 0.950 . S
H1237 C1266 0.950 . S
H1238 C1268 0.950 . S
H1239 C1269 0.950 . S
C1240 H1222 0.951 . S
C1240 C1241 1.366 . S
C1240 C1242 1.388 . S
C1241 C1240 1.366 . S
C1241 C1245 1.385 . S
C1242 H1223 0.951 . S
C1242 C1240 1.388 . S
C1242 C1243 1.366 . S
C1243 C1242 1.366 . S
C1243 C1244 1.414 . S
C1243 C1246 1.499 . S
C1244 H1224 0.950 . S
C1244 C1243 1.414 . S
C1244 C1245 1.374 . S
C1245 H1225 0.950 . S
C1245 C1241 1.385 . S
C1245 C1244 1.374 . S
C1246 C1243 1.499 . S
C1246 C1247 1.373 . S
C1246 C1248 1.389 . S
C1247 H1226 0.950 . S
C1247 C1246 1.373 . S
C1247 C1263 1.377 . S
C1248 C1246 1.389 . S
C1248 C1249 1.524 . S
C1248 C1262 1.377 . S
C1249 C1248 1.524 . S
C1249 C1250 1.397 . S
C1249 C1254 1.363 . S
C1250 H1227 0.950 . S
C1250 C1249 1.397 . S
C1250 C1251 1.334 . S
C1251 H1228 0.950 . S
C1251 C1250 1.334 . S
C1251 C1252 1.287 . S
C1252 C1251 1.287 . S
C1252 C1253 1.524 . S
C1252 H1271 0.913 1_545 S
C1253 H1229 0.950 . S
C1253 C1252 1.524 . S
C1253 C1254 1.415 . S
C1254 H1230 0.950 . S
C1254 C1249 1.363 . S
C1254 C1253 1.415 . S
C1255 H1231 0.951 . S
C1255 C1256 1.366 . S
C1255 C1257 1.388 . S
C1256 C1255 1.366 . S
C1256 C1260 1.385 . S
C1257 H1232 0.951 . S
C1257 C1255 1.388 . S
C1257 C1258 1.366 . S
C1258 C1257 1.366 . S
C1258 C1259 1.414 . S
C1258 C1261 1.499 . S
C1259 H1233 0.950 . S
C1259 C1258 1.414 . S
C1259 C1260 1.374 . S
C1260 H1234 0.950 . S
C1260 C1256 1.385 . S
C1260 C1259 1.374 . S
C1261 C1258 1.499 . S
C1261 C1262 1.373 . S
C1261 C1263 1.389 . S
C1262 H1235 0.950 . S
C1262 C1248 1.377 . S
C1262 C1261 1.373 . S
C1263 C1247 1.377 . S
C1263 C1261 1.389 . S
C1263 C1264 1.524 . S
C1264 C1263 1.524 . S
C1264 C1265 1.397 . S
C1264 C1269 1.363 . S
C1265 H1236 0.950 . S
C1265 C1264 1.397 . S
C1265 C1266 1.334 . S
C1266 H1237 0.950 . S
C1266 C1265 1.334 . S
C1266 C1267 1.287 . S
C1267 C1266 1.287 . S
C1267 C1268 1.524 . S
C1267 H1270 0.999 . S
C1268 H1238 0.950 . S
C1268 C1267 1.524 . S
C1268 C1269 1.415 . S
C1269 H1239 0.950 . S
C1269 C1264 1.363 . S
C1269 C1268 1.415 . S
H1270 C1267 0.999 . S
H1271 C1252 0.913 1_565 S
H1272 C1290 0.951 . S
H1273 C1292 0.951 . S
H1274 C1294 0.950 . S
H1275 C1295 0.950 . S
H1276 C1297 0.950 . S
H1277 C1300 0.950 . S
H1278 C1301 0.950 . S
H1279 C1303 0.950 . S
H1280 C1304 0.950 . S
H1281 C1305 0.951 . S
H1282 C1307 0.951 . S
H1283 C1309 0.950 . S
H1284 C1310 0.950 . S
H1285 C1312 0.950 . S
H1286 C1315 0.950 . S
H1287 C1316 0.950 . S
H1288 C1318 0.950 . S
H1289 C1319 0.950 . S
C1290 H1272 0.951 . S
C1290 C1291 1.366 . S
C1290 C1292 1.388 . S
C1291 C1290 1.366 . S
C1291 C1295 1.385 . S
C1292 H1273 0.951 . S
C1292 C1290 1.388 . S
C1292 C1293 1.366 . S
C1293 C1292 1.366 . S
C1293 C1294 1.414 . S
C1293 C1296 1.499 . S
C1294 H1274 0.950 . S
C1294 C1293 1.414 . S
C1294 C1295 1.374 . S
C1295 H1275 0.950 . S
C1295 C1291 1.385 . S
C1295 C1294 1.374 . S
C1296 C1293 1.499 . S
C1296 C1297 1.373 . S
C1296 C1298 1.389 . S
C1297 H1276 0.950 . S
C1297 C1296 1.373 . S
C1297 C1313 1.377 . S
C1298 C1296 1.389 . S
C1298 C1299 1.524 . S
C1298 C1312 1.377 . S
C1299 C1298 1.524 . S
C1299 C1300 1.397 . S
C1299 C1304 1.363 . S
C1300 H1277 0.950 . S
C1300 C1299 1.397 . S
C1300 C1301 1.334 . S
C1301 H1278 0.950 . S
C1301 C1300 1.334 . S
C1301 C1302 1.287 . S
C1302 C1301 1.287 . S
C1302 C1303 1.524 . S
C1302 H1321 0.913 . S
C1303 H1279 0.950 . S
C1303 C1302 1.524 . S
C1303 C1304 1.415 . S
C1304 H1280 0.950 . S
C1304 C1299 1.363 . S
C1304 C1303 1.415 . S
C1305 H1281 0.951 . S
C1305 C1306 1.366 . S
C1305 C1307 1.388 . S
C1306 C1305 1.366 . S
C1306 C1310 1.385 . S
C1307 H1282 0.951 . S
C1307 C1305 1.388 . S
C1307 C1308 1.366 . S
C1308 C1307 1.366 . S
C1308 C1309 1.414 . S
C1308 C1311 1.499 . S
C1309 H1283 0.950 . S
C1309 C1308 1.414 . S
C1309 C1310 1.374 . S
C1310 H1284 0.950 . S
C1310 C1306 1.385 . S
C1310 C1309 1.374 . S
C1311 C1308 1.499 . S
C1311 C1312 1.373 . S
C1311 C1313 1.389 . S
C1312 H1285 0.950 . S
C1312 C1298 1.377 . S
C1312 C1311 1.373 . S
C1313 C1297 1.377 . S
C1313 C1311 1.389 . S
C1313 C1314 1.524 . S
C1314 C1313 1.524 . S
C1314 C1315 1.397 . S
C1314 C1319 1.363 . S
C1315 H1286 0.950 . S
C1315 C1314 1.397 . S
C1315 C1316 1.334 . S
C1316 H1287 0.950 . S
C1316 C1315 1.334 . S
C1316 C1317 1.287 . S
C1317 C1316 1.287 . S
C1317 C1318 1.524 . S
C1317 H1320 0.999 . S
C1318 H1288 0.950 . S
C1318 C1317 1.524 . S
C1318 C1319 1.415 . S
C1319 H1289 0.950 . S
C1319 C1314 1.363 . S
C1319 C1318 1.415 . S
H1320 C1317 0.999 . S
H1321 C1302 0.913 . S
H1322 C1340 0.951 . S
H1323 C1342 0.951 . S
H1324 C1344 0.950 . S
H1325 C1345 0.950 . S
H1326 C1347 0.950 . S
H1327 C1350 0.950 . S
H1328 C1351 0.950 . S
H1329 C1353 0.950 . S
H1330 C1354 0.950 . S
H1331 C1355 0.951 . S
H1332 C1357 0.951 . S
H1333 C1359 0.950 . S
H1334 C1360 0.950 . S
H1335 C1362 0.950 . S
H1336 C1365 0.950 . S
H1337 C1366 0.950 . S
H1338 C1368 0.950 . S
H1339 C1369 0.950 . S
C1340 H1322 0.951 . S
C1340 C1341 1.366 . S
C1340 C1342 1.388 . S
C1341 C1340 1.366 . S
C1341 C1345 1.385 . S
C1342 H1323 0.951 . S
C1342 C1340 1.388 . S
C1342 C1343 1.366 . S
C1343 C1342 1.366 . S
C1343 C1344 1.414 . S
C1343 C1346 1.499 . S
C1344 H1324 0.950 . S
C1344 C1343 1.414 . S
C1344 C1345 1.374 . S
C1345 H1325 0.950 . S
C1345 C1341 1.385 . S
C1345 C1344 1.374 . S
C1346 C1343 1.499 . S
C1346 C1347 1.373 . S
C1346 C1348 1.389 . S
C1347 H1326 0.950 . S
C1347 C1346 1.373 . S
C1347 C1363 1.377 . S
C1348 C1346 1.389 . S
C1348 C1349 1.524 . S
C1348 C1362 1.377 . S
C1349 C1348 1.524 . S
C1349 C1350 1.397 . S
C1349 C1354 1.363 . S
C1350 H1327 0.950 . S
C1350 C1349 1.397 . S
C1350 C1351 1.334 . S
C1351 H1328 0.950 . S
C1351 C1350 1.334 . S
C1351 C1352 1.287 . S
C1352 C1351 1.287 . S
C1352 C1353 1.524 . S
C1352 H1371 0.913 . S
C1353 H1329 0.950 . S
C1353 C1352 1.524 . S
C1353 C1354 1.415 . S
C1354 H1330 0.950 . S
C1354 C1349 1.363 . S
C1354 C1353 1.415 . S
C1355 H1331 0.951 . S
C1355 C1356 1.366 . S
C1355 C1357 1.388 . S
C1356 C1355 1.366 . S
C1356 C1360 1.385 . S
C1357 H1332 0.951 . S
C1357 C1355 1.388 . S
C1357 C1358 1.366 . S
C1358 C1357 1.366 . S
C1358 C1359 1.414 . S
C1358 C1361 1.499 . S
C1359 H1333 0.950 . S
C1359 C1358 1.414 . S
C1359 C1360 1.374 . S
C1360 H1334 0.950 . S
C1360 C1356 1.385 . S
C1360 C1359 1.374 . S
C1361 C1358 1.499 . S
C1361 C1362 1.373 . S
C1361 C1363 1.389 . S
C1362 H1335 0.950 . S
C1362 C1348 1.377 . S
C1362 C1361 1.373 . S
C1363 C1347 1.377 . S
C1363 C1361 1.389 . S
C1363 C1364 1.524 . S
C1364 C1363 1.524 . S
C1364 C1365 1.397 . S
C1364 C1369 1.363 . S
C1365 H1336 0.950 . S
C1365 C1364 1.397 . S
C1365 C1366 1.334 . S
C1366 H1337 0.950 . S
C1366 C1365 1.334 . S
C1366 C1367 1.287 . S
C1367 C1366 1.287 . S
C1367 C1368 1.524 . S
C1367 H1370 0.999 . S
C1368 H1338 0.950 . S
C1368 C1367 1.524 . S
C1368 C1369 1.415 . S
C1369 H1339 0.950 . S
C1369 C1364 1.363 . S
C1369 C1368 1.415 . S
H1370 C1367 0.999 . S
H1371 C1352 0.913 . S
H1372 C1390 0.951 . S
H1373 C1392 0.951 . S
H1374 C1394 0.950 . S
H1375 C1395 0.950 . S
H1376 C1397 0.950 . S
H1377 C1400 0.950 . S
H1378 C1401 0.950 . S
H1379 C1403 0.950 . S
H1380 C1404 0.950 . S
H1381 C1405 0.951 . S
H1382 C1407 0.951 . S
H1383 C1409 0.950 . S
H1384 C1410 0.950 . S
H1385 C1412 0.950 . S
H1386 C1415 0.950 . S
H1387 C1416 0.950 . S
H1388 C1418 0.950 . S
H1389 C1419 0.950 . S
C1390 H1372 0.951 . S
C1390 C1391 1.366 . S
C1390 C1392 1.388 . S
C1391 C1390 1.366 . S
C1391 C1395 1.385 . S
C1392 H1373 0.951 . S
C1392 C1390 1.388 . S
C1392 C1393 1.366 . S
C1393 C1392 1.366 . S
C1393 C1394 1.414 . S
C1393 C1396 1.499 . S
C1394 H1374 0.950 . S
C1394 C1393 1.414 . S
C1394 C1395 1.374 . S
C1395 H1375 0.950 . S
C1395 C1391 1.385 . S
C1395 C1394 1.374 . S
C1396 C1393 1.499 . S
C1396 C1397 1.373 . S
C1396 C1398 1.389 . S
C1397 H1376 0.950 . S
C1397 C1396 1.373 . S
C1397 C1413 1.377 . S
C1398 C1396 1.389 . S
C1398 C1399 1.524 . S
C1398 C1412 1.377 . S
C1399 C1398 1.524 . S
C1399 C1400 1.397 . S
C1399 C1404 1.363 . S
C1400 H1377 0.950 . S
C1400 C1399 1.397 . S
C1400 C1401 1.334 . S
C1401 H1378 0.950 . S
C1401 C1400 1.334 . S
C1401 C1402 1.287 . S
C1402 C1401 1.287 . S
C1402 C1403 1.524 . S
C1402 H1421 0.913 . S
C1403 H1379 0.950 . S
C1403 C1402 1.524 . S
C1403 C1404 1.415 . S
C1404 H1380 0.950 . S
C1404 C1399 1.363 . S
C1404 C1403 1.415 . S
C1405 H1381 0.951 . S
C1405 C1406 1.366 . S
C1405 C1407 1.388 . S
C1406 C1405 1.366 . S
C1406 C1410 1.385 . S
C1407 H1382 0.951 . S
C1407 C1405 1.388 . S
C1407 C1408 1.366 . S
C1408 C1407 1.366 . S
C1408 C1409 1.414 . S
C1408 C1411 1.499 . S
C1409 H1383 0.950 . S
C1409 C1408 1.414 . S
C1409 C1410 1.374 . S
C1410 H1384 0.950 . S
C1410 C1406 1.385 . S
C1410 C1409 1.374 . S
C1411 C1408 1.499 . S
C1411 C1412 1.373 . S
C1411 C1413 1.389 . S
C1412 H1385 0.950 . S
C1412 C1398 1.377 . S
C1412 C1411 1.373 . S
C1413 C1397 1.377 . S
C1413 C1411 1.389 . S
C1413 C1414 1.524 . S
C1414 C1413 1.524 . S
C1414 C1415 1.397 . S
C1414 C1419 1.363 . S
C1415 H1386 0.950 . S
C1415 C1414 1.397 . S
C1415 C1416 1.334 . S
C1416 H1387 0.950 . S
C1416 C1415 1.334 . S
C1416 C1417 1.287 . S
C1417 C1416 1.287 . S
C1417 C1418 1.524 . S
C1417 H1420 0.999 . S
C1418 H1388 0.950 . S
C1418 C1417 1.524 . S
C1418 C1419 1.415 . S
C1419 H1389 0.950 . S
C1419 C1414 1.363 . S
C1419 C1418 1.415 . S
H1420 C1417 0.999 . S
H1421 C1402 0.913 . S
H1422 C1440 0.951 . S
H1423 C1442 0.951 . S
H1424 C1444 0.950 . S
H1425 C1445 0.950 . S
H1426 C1447 0.950 . S
H1427 C1450 0.950 . S
H1428 C1451 0.950 . S
H1429 C1453 0.950 . S
H1430 C1454 0.950 . S
H1431 C1455 0.951 . S
H1432 C1457 0.951 . S
H1433 C1459 0.950 . S
H1434 C1460 0.950 . S
H1435 C1462 0.950 . S
H1436 C1465 0.950 . S
H1437 C1466 0.950 . S
H1438 C1468 0.950 . S
H1439 C1469 0.950 . S
C1440 H1422 0.951 . S
C1440 C1441 1.366 . S
C1440 C1442 1.388 . S
C1441 C1440 1.366 . S
C1441 C1445 1.385 . S
C1442 H1423 0.951 . S
C1442 C1440 1.388 . S
C1442 C1443 1.366 . S
C1443 C1442 1.366 . S
C1443 C1444 1.414 . S
C1443 C1446 1.499 . S
C1444 H1424 0.950 . S
C1444 C1443 1.414 . S
C1444 C1445 1.374 . S
C1445 H1425 0.950 . S
C1445 C1441 1.385 . S
C1445 C1444 1.374 . S
C1446 C1443 1.499 . S
C1446 C1447 1.373 . S
C1446 C1448 1.389 . S
C1447 H1426 0.950 . S
C1447 C1446 1.373 . S
C1447 C1463 1.377 . S
C1448 C1446 1.389 . S
C1448 C1449 1.524 . S
C1448 C1462 1.377 . S
C1449 C1448 1.524 . S
C1449 C1450 1.397 . S
C1449 C1454 1.363 . S
C1450 H1427 0.950 . S
C1450 C1449 1.397 . S
C1450 C1451 1.334 . S
C1451 H1428 0.950 . S
C1451 C1450 1.334 . S
C1451 C1452 1.287 . S
C1452 C1451 1.287 . S
C1452 C1453 1.524 . S
C1452 H1471 0.913 . S
C1453 H1429 0.950 . S
C1453 C1452 1.524 . S
C1453 C1454 1.415 . S
C1454 H1430 0.950 . S
C1454 C1449 1.363 . S
C1454 C1453 1.415 . S
C1455 H1431 0.951 . S
C1455 C1456 1.366 . S
C1455 C1457 1.388 . S
C1456 C1455 1.366 . S
C1456 C1460 1.385 . S
C1457 H1432 0.951 . S
C1457 C1455 1.388 . S
C1457 C1458 1.366 . S
C1458 C1457 1.366 . S
C1458 C1459 1.414 . S
C1458 C1461 1.499 . S
C1459 H1433 0.950 . S
C1459 C1458 1.414 . S
C1459 C1460 1.374 . S
C1460 H1434 0.950 . S
C1460 C1456 1.385 . S
C1460 C1459 1.374 . S
C1461 C1458 1.499 . S
C1461 C1462 1.373 . S
C1461 C1463 1.389 . S
C1462 H1435 0.950 . S
C1462 C1448 1.377 . S
C1462 C1461 1.373 . S
C1463 C1447 1.377 . S
C1463 C1461 1.389 . S
C1463 C1464 1.524 . S
C1464 C1463 1.524 . S
C1464 C1465 1.397 . S
C1464 C1469 1.363 . S
C1465 H1436 0.950 . S
C1465 C1464 1.397 . S
C1465 C1466 1.334 . S
C1466 H1437 0.950 . S
C1466 C1465 1.334 . S
C1466 C1467 1.287 . S
C1467 C1466 1.287 . S
C1467 C1468 1.524 . S
C1467 H1470 0.999 . S
C1468 H1438 0.950 . S
C1468 C1467 1.524 . S
C1468 C1469 1.415 . S
C1469 H1439 0.950 . S
C1469 C1464 1.363 . S
C1469 C1468 1.415 . S
H1470 C1467 0.999 . S
H1471 C1452 0.913 . S
H1472 C1490 0.951 . S
H1473 C1492 0.951 . S
H1474 C1494 0.950 . S
H1475 C1495 0.950 . S
H1476 C1497 0.950 . S
H1477 C1500 0.950 . S
H1478 C1501 0.950 . S
H1479 C1503 0.950 . S
H1480 C1504 0.950 . S
H1481 C1505 0.951 . S
H1482 C1507 0.951 . S
H1483 C1509 0.950 . S
H1484 C1510 0.950 . S
H1485 C1512 0.950 . S
H1486 C1515 0.950 . S
H1487 C1516 0.950 . S
H1488 C1518 0.950 . S
H1489 C1519 0.950 . S
C1490 H1472 0.951 . S
C1490 C1491 1.366 . S
C1490 C1492 1.388 . S
C1491 C1490 1.366 . S
C1491 C1495 1.385 . S
C1492 H1473 0.951 . S
C1492 C1490 1.388 . S
C1492 C1493 1.366 . S
C1493 C1492 1.366 . S
C1493 C1494 1.414 . S
C1493 C1496 1.499 . S
C1494 H1474 0.950 . S
C1494 C1493 1.414 . S
C1494 C1495 1.374 . S
C1495 H1475 0.950 . S
C1495 C1491 1.385 . S
C1495 C1494 1.374 . S
C1496 C1493 1.499 . S
C1496 C1497 1.373 . S
C1496 C1498 1.389 . S
C1497 H1476 0.950 . S
C1497 C1496 1.373 . S
C1497 C1513 1.377 . S
C1498 C1496 1.389 . S
C1498 C1499 1.524 . S
C1498 C1512 1.377 . S
C1499 C1498 1.524 . S
C1499 C1500 1.397 . S
C1499 C1504 1.363 . S
C1500 H1477 0.950 . S
C1500 C1499 1.397 . S
C1500 C1501 1.334 . S
C1501 H1478 0.950 . S
C1501 C1500 1.334 . S
C1501 C1502 1.287 . S
C1502 C1501 1.287 . S
C1502 C1503 1.524 . S
C1502 H1521 0.913 . S
C1503 H1479 0.950 . S
C1503 C1502 1.524 . S
C1503 C1504 1.415 . S
C1504 H1480 0.950 . S
C1504 C1499 1.363 . S
C1504 C1503 1.415 . S
C1505 H1481 0.951 . S
C1505 C1506 1.366 . S
C1505 C1507 1.388 . S
C1506 C1505 1.366 . S
C1506 C1510 1.385 . S
C1507 H1482 0.951 . S
C1507 C1505 1.388 . S
C1507 C1508 1.366 . S
C1508 C1507 1.366 . S
C1508 C1509 1.414 . S
C1508 C1511 1.499 . S
C1509 H1483 0.950 . S
C1509 C1508 1.414 . S
C1509 C1510 1.374 . S
C1510 H1484 0.950 . S
C1510 C1506 1.385 . S
C1510 C1509 1.374 . S
C1511 C1508 1.499 . S
C1511 C1512 1.373 . S
C1511 C1513 1.389 . S
C1512 H1485 0.950 . S
C1512 C1498 1.377 . S
C1512 C1511 1.373 . S
C1513 C1497 1.377 . S
C1513 C1511 1.389 . S
C1513 C1514 1.524 . S
C1514 C1513 1.524 . S
C1514 C1515 1.397 . S
C1514 C1519 1.363 . S
C1515 H1486 0.950 . S
C1515 C1514 1.397 . S
C1515 C1516 1.334 . S
C1516 H1487 0.950 . S
C1516 C1515 1.334 . S
C1516 C1517 1.287 . S
C1517 C1516 1.287 . S
C1517 C1518 1.524 . S
C1517 H1520 0.999 . S
C1518 H1488 0.950 . S
C1518 C1517 1.524 . S
C1518 C1519 1.415 . S
C1519 H1489 0.950 . S
C1519 C1514 1.363 . S
C1519 C1518 1.415 . S
H1520 C1517 0.999 . S
H1521 C1502 0.913 . S
H1522 C1540 0.951 . S
H1523 C1542 0.951 . S
H1524 C1544 0.950 . S
H1525 C1545 0.950 . S
H1526 C1547 0.950 . S
H1527 C1550 0.950 . S
H1528 C1551 0.950 . S
H1529 C1553 0.950 . S
H1530 C1554 0.950 . S
H1531 C1555 0.951 . S
H1532 C1557 0.951 . S
H1533 C1559 0.950 . S
H1534 C1560 0.950 . S
H1535 C1562 0.950 . S
H1536 C1565 0.950 . S
H1537 C1566 0.950 . S
H1538 C1568 0.950 . S
H1539 C1569 0.950 . S
C1540 H1522 0.951 . S
C1540 C1541 1.366 . S
C1540 C1542 1.388 . S
C1541 C1540 1.366 . S
C1541 C1545 1.385 . S
C1542 H1523 0.951 . S
C1542 C1540 1.388 . S
C1542 C1543 1.366 . S
C1543 C1542 1.366 . S
C1543 C1544 1.414 . S
C1543 C1546 1.499 . S
C1544 H1524 0.950 . S
C1544 C1543 1.414 . S
C1544 C1545 1.374 . S
C1545 H1525 0.950 . S
C1545 C1541 1.385 . S
C1545 C1544 1.374 . S
C1546 C1543 1.499 . S
C1546 C1547 1.373 . S
C1546 C1548 1.389 . S
C1547 H1526 0.950 . S
C1547 C1546 1.373 . S
C1547 C1563 1.377 . S
C1548 C1546 1.389 . S
C1548 C1549 1.524 . S
C1548 C1562 1.377 . S
C1549 C1548 1.524 . S
C1549 C1550 1.397 . S
C1549 C1554 1.363 . S
C1550 H1527 0.950 . S
C1550 C1549 1.397 . S
C1550 C1551 1.334 . S
C1551 H1528 0.950 . S
C1551 C1550 1.334 . S
C1551 C1552 1.287 . S
C1552 C1551 1.287 . S
C1552 C1553 1.524 . S
C1552 H1571 0.913 . S
C1553 H1529 0.950 . S
C1553 C1552 1.524 . S
C1553 C1554 1.415 . S
C1554 H1530 0.950 . S
C1554 C1549 1.363 . S
C1554 C1553 1.415 . S
C1555 H1531 0.951 . S
C1555 C1556 1.366 . S
C1555 C1557 1.388 . S
C1556 C1555 1.366 . S
C1556 C1560 1.385 . S
C1557 H1532 0.951 . S
C1557 C1555 1.388 . S
C1557 C1558 1.366 . S
C1558 C1557 1.366 . S
C1558 C1559 1.414 . S
C1558 C1561 1.499 . S
C1559 H1533 0.950 . S
C1559 C1558 1.414 . S
C1559 C1560 1.374 . S
C1560 H1534 0.950 . S
C1560 C1556 1.385 . S
C1560 C1559 1.374 . S
C1561 C1558 1.499 . S
C1561 C1562 1.373 . S
C1561 C1563 1.389 . S
C1562 H1535 0.950 . S
C1562 C1548 1.377 . S
C1562 C1561 1.373 . S
C1563 C1547 1.377 . S
C1563 C1561 1.389 . S
C1563 C1564 1.524 . S
C1564 C1563 1.524 . S
C1564 C1565 1.397 . S
C1564 C1569 1.363 . S
C1565 H1536 0.950 . S
C1565 C1564 1.397 . S
C1565 C1566 1.334 . S
C1566 H1537 0.950 . S
C1566 C1565 1.334 . S
C1566 C1567 1.287 . S
C1567 C1566 1.287 . S
C1567 C1568 1.524 . S
C1567 H1570 0.999 . S
C1568 H1538 0.950 . S
C1568 C1567 1.524 . S
C1568 C1569 1.415 . S
C1569 H1539 0.950 . S
C1569 C1564 1.363 . S
C1569 C1568 1.415 . S
H1570 C1567 0.999 . S
H1571 C1552 0.913 . S
H1572 C1590 0.951 . S
H1573 C1592 0.951 . S
H1574 C1594 0.950 . S
H1575 C1595 0.950 . S
H1576 C1597 0.950 . S
H1577 C1600 0.950 . S
H1578 C1601 0.950 . S
H1579 C1603 0.950 . S
H1580 C1604 0.950 . S
H1581 C1605 0.951 . S
H1582 C1607 0.951 . S
H1583 C1609 0.950 . S
H1584 C1610 0.950 . S
H1585 C1612 0.950 . S
H1586 C1615 0.950 . S
H1587 C1616 0.950 . S
H1588 C1618 0.950 . S
H1589 C1619 0.950 . S
C1590 H1572 0.951 . S
C1590 C1591 1.366 . S
C1590 C1592 1.388 . S
C1591 C1590 1.366 . S
C1591 C1595 1.385 . S
C1592 H1573 0.951 . S
C1592 C1590 1.388 . S
C1592 C1593 1.366 . S
C1593 C1592 1.366 . S
C1593 C1594 1.414 . S
C1593 C1596 1.499 . S
C1594 H1574 0.950 . S
C1594 C1593 1.414 . S
C1594 C1595 1.374 . S
C1595 H1575 0.950 . S
C1595 C1591 1.385 . S
C1595 C1594 1.374 . S
C1596 C1593 1.499 . S
C1596 C1597 1.373 . S
C1596 C1598 1.389 . S
C1597 H1576 0.950 . S
C1597 C1596 1.373 . S
C1597 C1613 1.377 . S
C1598 C1596 1.389 . S
C1598 C1599 1.524 . S
C1598 C1612 1.377 . S
C1599 C1598 1.524 . S
C1599 C1600 1.397 . S
C1599 C1604 1.363 . S
C1600 H1577 0.950 . S
C1600 C1599 1.397 . S
C1600 C1601 1.334 . S
C1601 H1578 0.950 . S
C1601 C1600 1.334 . S
C1601 C1602 1.287 . S
C1602 C1601 1.287 . S
C1602 C1603 1.524 . S
C1602 H1621 0.913 . S
C1603 H1579 0.950 . S
C1603 C1602 1.524 . S
C1603 C1604 1.415 . S
C1604 H1580 0.950 . S
C1604 C1599 1.363 . S
C1604 C1603 1.415 . S
C1605 H1581 0.951 . S
C1605 C1606 1.366 . S
C1605 C1607 1.388 . S
C1606 C1605 1.366 . S
C1606 C1610 1.385 . S
C1607 H1582 0.951 . S
C1607 C1605 1.388 . S
C1607 C1608 1.366 . S
C1608 C1607 1.366 . S
C1608 C1609 1.414 . S
C1608 C1611 1.499 . S
C1609 H1583 0.950 . S
C1609 C1608 1.414 . S
C1609 C1610 1.374 . S
C1610 H1584 0.950 . S
C1610 C1606 1.385 . S
C1610 C1609 1.374 . S
C1611 C1608 1.499 . S
C1611 C1612 1.373 . S
C1611 C1613 1.389 . S
C1612 H1585 0.950 . S
C1612 C1598 1.377 . S
C1612 C1611 1.373 . S
C1613 C1597 1.377 . S
C1613 C1611 1.389 . S
C1613 C1614 1.524 . S
C1614 C1613 1.524 . S
C1614 C1615 1.397 . S
C1614 C1619 1.363 . S
C1615 H1586 0.950 . S
C1615 C1614 1.397 . S
C1615 C1616 1.334 . S
C1616 H1587 0.950 . S
C1616 C1615 1.334 . S
C1616 C1617 1.287 . S
C1617 C1616 1.287 . S
C1617 C1618 1.524 . S
C1617 H1620 0.999 . S
C1618 H1588 0.950 . S
C1618 C1617 1.524 . S
C1618 C1619 1.415 . S
C1619 H1589 0.950 . S
C1619 C1614 1.363 . S
C1619 C1618 1.415 . S
H1620 C1617 0.999 . S
H1621 C1602 0.913 . S
H1622 C1640 0.951 . S
H1623 C1642 0.951 . S
H1624 C1644 0.950 . S
H1625 C1645 0.950 . S
H1626 C1647 0.950 . S
H1627 C1650 0.950 . S
H1628 C1651 0.950 . S
H1629 C1653 0.950 . S
H1630 C1654 0.950 . S
H1631 C1655 0.951 . S
H1632 C1657 0.951 . S
H1633 C1659 0.950 . S
H1634 C1660 0.950 . S
H1635 C1662 0.950 . S
H1636 C1665 0.950 . S
H1637 C1666 0.950 . S
H1638 C1668 0.950 . S
H1639 C1669 0.950 . S
C1640 H1622 0.951 . S
C1640 C1641 1.366 . S
C1640 C1642 1.388 . S
C1641 C1640 1.366 . S
C1641 C1645 1.385 . S
C1642 H1623 0.951 . S
C1642 C1640 1.388 . S
C1642 C1643 1.366 . S
C1643 C1642 1.366 . S
C1643 C1644 1.414 . S
C1643 C1646 1.499 . S
C1644 H1624 0.950 . S
C1644 C1643 1.414 . S
C1644 C1645 1.374 . S
C1645 H1625 0.950 . S
C1645 C1641 1.385 . S
C1645 C1644 1.374 . S
C1646 C1643 1.499 . S
C1646 C1647 1.373 . S
C1646 C1648 1.389 . S
C1647 H1626 0.950 . S
C1647 C1646 1.373 . S
C1647 C1663 1.377 . S
C1648 C1646 1.389 . S
C1648 C1649 1.524 . S
C1648 C1662 1.377 . S
C1649 C1648 1.524 . S
C1649 C1650 1.397 . S
C1649 C1654 1.363 . S
C1650 H1627 0.950 . S
C1650 C1649 1.397 . S
C1650 C1651 1.334 . S
C1651 H1628 0.950 . S
C1651 C1650 1.334 . S
C1651 C1652 1.287 . S
C1652 C1651 1.287 . S
C1652 C1653 1.524 . S
C1652 H1671 0.913 . S
C1653 H1629 0.950 . S
C1653 C1652 1.524 . S
C1653 C1654 1.415 . S
C1654 H1630 0.950 . S
C1654 C1649 1.363 . S
C1654 C1653 1.415 . S
C1655 H1631 0.951 . S
C1655 C1656 1.366 . S
C1655 C1657 1.388 . S
C1656 C1655 1.366 . S
C1656 C1660 1.385 . S
C1657 H1632 0.951 . S
C1657 C1655 1.388 . S
C1657 C1658 1.366 . S
C1658 C1657 1.366 . S
C1658 C1659 1.414 . S
C1658 C1661 1.499 . S
C1659 H1633 0.950 . S
C1659 C1658 1.414 . S
C1659 C1660 1.374 . S
C1660 H1634 0.950 . S
C1660 C1656 1.385 . S
C1660 C1659 1.374 . S
C1661 C1658 1.499 . S
C1661 C1662 1.373 . S
C1661 C1663 1.389 . S
C1662 H1635 0.950 . S
C1662 C1648 1.377 . S
C1662 C1661 1.373 . S
C1663 C1647 1.377 . S
C1663 C1661 1.389 . S
C1663 C1664 1.524 . S
C1664 C1663 1.524 . S
C1664 C1665 1.397 . S
C1664 C1669 1.363 . S
C1665 H1636 0.950 . S
C1665 C1664 1.397 . S
C1665 C1666 1.334 . S
C1666 H1637 0.950 . S
C1666 C1665 1.334 . S
C1666 C1667 1.287 . S
C1667 C1666 1.287 . S
C1667 C1668 1.524 . S
C1667 H1670 0.999 . S
C1668 H1638 0.950 . S
C1668 C1667 1.524 . S
C1668 C1669 1.415 . S
C1669 H1639 0.950 . S
C1669 C1664 1.363 . S
C1669 C1668 1.415 . S
H1670 C1667 0.999 . S
H1671 C1652 0.913 . S
H1672 C1690 0.951 . S
H1673 C1692 0.951 . S
H1674 C1694 0.950 . S
H1675 C1695 0.950 . S
H1676 C1697 0.950 . S
H1677 C1700 0.950 . S
H1678 C1701 0.950 . S
H1679 C1703 0.950 . S
H1680 C1704 0.950 . S
H1681 C1705 0.951 . S
H1682 C1707 0.951 . S
H1683 C1709 0.950 . S
H1684 C1710 0.950 . S
H1685 C1712 0.950 . S
H1686 C1715 0.950 . S
H1687 C1716 0.950 . S
H1688 C1718 0.950 . S
H1689 C1719 0.950 . S
C1690 H1672 0.951 . S
C1690 C1691 1.366 . S
C1690 C1692 1.388 . S
C1691 C1690 1.366 . S
C1691 C1695 1.385 . S
C1692 H1673 0.951 . S
C1692 C1690 1.388 . S
C1692 C1693 1.366 . S
C1693 C1692 1.366 . S
C1693 C1694 1.414 . S
C1693 C1696 1.499 . S
C1694 H1674 0.950 . S
C1694 C1693 1.414 . S
C1694 C1695 1.374 . S
C1695 H1675 0.950 . S
C1695 C1691 1.385 . S
C1695 C1694 1.374 . S
C1696 C1693 1.499 . S
C1696 C1697 1.373 . S
C1696 C1698 1.389 . S
C1697 H1676 0.950 . S
C1697 C1696 1.373 . S
C1697 C1713 1.377 . S
C1698 C1696 1.389 . S
C1698 C1699 1.524 . S
C1698 C1712 1.377 . S
C1699 C1698 1.524 . S
C1699 C1700 1.397 . S
C1699 C1704 1.363 . S
C1700 H1677 0.950 . S
C1700 C1699 1.397 . S
C1700 C1701 1.334 . S
C1701 H1678 0.950 . S
C1701 C1700 1.334 . S
C1701 C1702 1.287 . S
C1702 C1701 1.287 . S
C1702 C1703 1.524 . S
C1702 H1721 0.913 . S
C1703 H1679 0.950 . S
C1703 C1702 1.524 . S
C1703 C1704 1.415 . S
C1704 H1680 0.950 . S
C1704 C1699 1.363 . S
C1704 C1703 1.415 . S
C1705 H1681 0.951 . S
C1705 C1706 1.366 . S
C1705 C1707 1.388 . S
C1706 C1705 1.366 . S
C1706 C1710 1.385 . S
C1707 H1682 0.951 . S
C1707 C1705 1.388 . S
C1707 C1708 1.366 . S
C1708 C1707 1.366 . S
C1708 C1709 1.414 . S
C1708 C1711 1.499 . S
C1709 H1683 0.950 . S
C1709 C1708 1.414 . S
C1709 C1710 1.374 . S
C1710 H1684 0.950 . S
C1710 C1706 1.385 . S
C1710 C1709 1.374 . S
C1711 C1708 1.499 . S
C1711 C1712 1.373 . S
C1711 C1713 1.389 . S
C1712 H1685 0.950 . S
C1712 C1698 1.377 . S
C1712 C1711 1.373 . S
C1713 C1697 1.377 . S
C1713 C1711 1.389 . S
C1713 C1714 1.524 . S
C1714 C1713 1.524 . S
C1714 C1715 1.397 . S
C1714 C1719 1.363 . S
C1715 H1686 0.950 . S
C1715 C1714 1.397 . S
C1715 C1716 1.334 . S
C1716 H1687 0.950 . S
C1716 C1715 1.334 . S
C1716 C1717 1.287 . S
C1717 C1716 1.287 . S
C1717 C1718 1.524 . S
C1717 H1720 0.999 . S
C1718 H1688 0.950 . S
C1718 C1717 1.524 . S
C1718 C1719 1.415 . S
C1719 H1689 0.950 . S
C1719 C1714 1.363 . S
C1719 C1718 1.415 . S
H1720 C1717 0.999 . S
H1721 C1702 0.913 . S
H1722 C1740 0.951 . S
H1723 C1742 0.951 . S
H1724 C1744 0.950 . S
H1725 C1745 0.950 . S
H1726 C1747 0.950 . S
H1727 C1750 0.950 . S
H1728 C1751 0.950 . S
H1729 C1753 0.950 . S
H1730 C1754 0.950 . S
H1731 C1755 0.951 . S
H1732 C1757 0.951 . S
H1733 C1759 0.950 . S
H1734 C1760 0.950 . S
H1735 C1762 0.950 . S
H1736 C1765 0.950 . S
H1737 C1766 0.950 . S
H1738 C1768 0.950 . S
H1739 C1769 0.950 . S
C1740 H1722 0.951 . S
C1740 C1741 1.366 . S
C1740 C1742 1.388 . S
C1741 C1740 1.366 . S
C1741 C1745 1.385 . S
C1742 H1723 0.951 . S
C1742 C1740 1.388 . S
C1742 C1743 1.366 . S
C1743 C1742 1.366 . S
C1743 C1744 1.414 . S
C1743 C1746 1.499 . S
C1744 H1724 0.950 . S
C1744 C1743 1.414 . S
C1744 C1745 1.374 . S
C1745 H1725 0.950 . S
C1745 C1741 1.385 . S
C1745 C1744 1.374 . S
C1746 C1743 1.499 . S
C1746 C1747 1.373 . S
C1746 C1748 1.389 . S
C1747 H1726 0.950 . S
C1747 C1746 1.373 . S
C1747 C1763 1.377 . S
C1748 C1746 1.389 . S
C1748 C1749 1.524 . S
C1748 C1762 1.377 . S
C1749 C1748 1.524 . S
C1749 C1750 1.397 . S
C1749 C1754 1.363 . S
C1750 H1727 0.950 . S
C1750 C1749 1.397 . S
C1750 C1751 1.334 . S
C1751 H1728 0.950 . S
C1751 C1750 1.334 . S
C1751 C1752 1.287 . S
C1752 C1751 1.287 . S
C1752 C1753 1.524 . S
C1752 H1771 0.913 . S
C1753 H1729 0.950 . S
C1753 C1752 1.524 . S
C1753 C1754 1.415 . S
C1754 H1730 0.950 . S
C1754 C1749 1.363 . S
C1754 C1753 1.415 . S
C1755 H1731 0.951 . S
C1755 C1756 1.366 . S
C1755 C1757 1.388 . S
C1756 C1755 1.366 . S
C1756 C1760 1.385 . S
C1757 H1732 0.951 . S
C1757 C1755 1.388 . S
C1757 C1758 1.366 . S
C1758 C1757 1.366 . S
C1758 C1759 1.414 . S
C1758 C1761 1.499 . S
C1759 H1733 0.950 . S
C1759 C1758 1.414 . S
C1759 C1760 1.374 . S
C1760 H1734 0.950 . S
C1760 C1756 1.385 . S
C1760 C1759 1.374 . S
C1761 C1758 1.499 . S
C1761 C1762 1.373 . S
C1761 C1763 1.389 . S
C1762 H1735 0.950 . S
C1762 C1748 1.377 . S
C1762 C1761 1.373 . S
C1763 C1747 1.377 . S
C1763 C1761 1.389 . S
C1763 C1764 1.524 . S
C1764 C1763 1.524 . S
C1764 C1765 1.397 . S
C1764 C1769 1.363 . S
C1765 H1736 0.950 . S
C1765 C1764 1.397 . S
C1765 C1766 1.334 . S
C1766 H1737 0.950 . S
C1766 C1765 1.334 . S
C1766 C1767 1.287 . S
C1767 C1766 1.287 . S
C1767 C1768 1.524 . S
C1767 H1770 0.999 . S
C1768 H1738 0.950 . S
C1768 C1767 1.524 . S
C1768 C1769 1.415 . S
C1769 H1739 0.950 . S
C1769 C1764 1.363 . S
C1769 C1768 1.415 . S
H1770 C1767 0.999 . S
H1771 C1752 0.913 . S
H1772 C1790 0.951 . S
H1773 C1792 0.951 . S
H1774 C1794 0.950 . S
H1775 C1795 0.950 . S
H1776 C1797 0.950 . S
H1777 C1800 0.950 . S
H1778 C1801 0.950 . S
H1779 C1803 0.950 . S
H1780 C1804 0.950 . S
H1781 C1805 0.951 . S
H1782 C1807 0.951 . S
H1783 C1809 0.950 . S
H1784 C1810 0.950 . S
H1785 C1812 0.950 . S
H1786 C1815 0.950 . S
H1787 C1816 0.950 . S
H1788 C1818 0.950 . S
H1789 C1819 0.950 . S
C1790 H1772 0.951 . S
C1790 C1791 1.366 . S
C1790 C1792 1.388 . S
C1791 C1790 1.366 . S
C1791 C1795 1.385 . S
C1792 H1773 0.951 . S
C1792 C1790 1.388 . S
C1792 C1793 1.366 . S
C1793 C1792 1.366 . S
C1793 C1794 1.414 . S
C1793 C1796 1.499 . S
C1794 H1774 0.950 . S
C1794 C1793 1.414 . S
C1794 C1795 1.374 . S
C1795 H1775 0.950 . S
C1795 C1791 1.385 . S
C1795 C1794 1.374 . S
C1796 C1793 1.499 . S
C1796 C1797 1.373 . S
C1796 C1798 1.389 . S
C1797 H1776 0.950 . S
C1797 C1796 1.373 . S
C1797 C1813 1.377 . S
C1798 C1796 1.389 . S
C1798 C1799 1.524 . S
C1798 C1812 1.377 . S
C1799 C1798 1.524 . S
C1799 C1800 1.397 . S
C1799 C1804 1.363 . S
C1800 H1777 0.950 . S
C1800 C1799 1.397 . S
C1800 C1801 1.334 . S
C1801 H1778 0.950 . S
C1801 C1800 1.334 . S
C1801 C1802 1.287 . S
C1802 C1801 1.287 . S
C1802 C1803 1.524 . S
C1802 H1821 0.913 . S
C1803 H1779 0.950 . S
C1803 C1802 1.524 . S
C1803 C1804 1.415 . S
C1804 H1780 0.950 . S
C1804 C1799 1.363 . S
C1804 C1803 1.415 . S
C1805 H1781 0.951 . S
C1805 C1806 1.366 . S
C1805 C1807 1.388 . S
C1806 C1805 1.366 . S
C1806 C1810 1.385 . S
C1807 H1782 0.951 . S
C1807 C1805 1.388 . S
C1807 C1808 1.366 . S
C1808 C1807 1.366 . S
C1808 C1809 1.414 . S
C1808 C1811 1.499 . S
C1809 H1783 0.950 . S
C1809 C1808 1.414 . S
C1809 C1810 1.374 . S
C1810 H1784 0.950 . S
C1810 C1806 1.385 . S
C1810 C1809 1.374 . S
C1811 C1808 1.499 . S
C1811 C1812 1.373 . S
C1811 C1813 1.389 . S
C1812 H1785 0.950 . S
C1812 C1798 1.377 . S
C1812 C1811 1.373 . S
C1813 C1797 1.377 . S
C1813 C1811 1.389 . S
C1813 C1814 1.524 . S
C1814 C1813 1.524 . S
C1814 C1815 1.397 . S
C1814 C1819 1.363 . S
C1815 H1786 0.950 . S
C1815 C1814 1.397 . S
C1815 C1816 1.334 . S
C1816 H1787 0.950 . S
C1816 C1815 1.334 . S
C1816 C1817 1.287 . S
C1817 C1816 1.287 . S
C1817 C1818 1.524 . S
C1817 H1820 0.999 . S
C1818 H1788 0.950 . S
C1818 C1817 1.524 . S
C1818 C1819 1.415 . S
C1819 H1789 0.950 . S
C1819 C1814 1.363 . S
C1819 C1818 1.415 . S
H1820 C1817 0.999 . S
H1821 C1802 0.913 . S
H1822 C1840 0.951 . S
H1823 C1842 0.951 . S
H1824 C1844 0.950 . S
H1825 C1845 0.950 . S
H1826 C1847 0.950 . S
H1827 C1850 0.950 . S
H1828 C1851 0.950 . S
H1829 C1853 0.950 . S
H1830 C1854 0.950 . S
H1831 C1855 0.951 . S
H1832 C1857 0.951 . S
H1833 C1859 0.950 . S
H1834 C1860 0.950 . S
H1835 C1862 0.950 . S
H1836 C1865 0.950 . S
H1837 C1866 0.950 . S
H1838 C1868 0.950 . S
H1839 C1869 0.950 . S
C1840 H1822 0.951 . S
C1840 C1841 1.366 . S
C1840 C1842 1.388 . S
C1841 C1840 1.366 . S
C1841 C1845 1.385 . S
C1842 H1823 0.951 . S
C1842 C1840 1.388 . S
C1842 C1843 1.366 . S
C1843 C1842 1.366 . S
C1843 C1844 1.414 . S
C1843 C1846 1.499 . S
C1844 H1824 0.950 . S
C1844 C1843 1.414 . S
C1844 C1845 1.374 . S
C1845 H1825 0.950 . S
C1845 C1841 1.385 . S
C1845 C1844 1.374 . S
C1846 C1843 1.499 . S
C1846 C1847 1.373 . S
C1846 C1848 1.389 . S
C1847 H1826 0.950 . S
C1847 C1846 1.373 . S
C1847 C1863 1.377 . S
C1848 C1846 1.389 . S
C1848 C1849 1.524 . S
C1848 C1862 1.377 . S
C1849 C1848 1.524 . S
C1849 C1850 1.397 . S
C1849 C1854 1.363 . S
C1850 H1827 0.950 . S
C1850 C1849 1.397 . S
C1850 C1851 1.334 . S
C1851 H1828 0.950 . S
C1851 C1850 1.334 . S
C1851 C1852 1.287 . S
C1852 C1851 1.287 . S
C1852 C1853 1.524 . S
C1852 H1871 0.913 . S
C1853 H1829 0.950 . S
C1853 C1852 1.524 . S
C1853 C1854 1.415 . S
C1854 H1830 0.950 . S
C1854 C1849 1.363 . S
C1854 C1853 1.415 . S
C1855 H1831 0.951 . S
C1855 C1856 1.366 . S
C1855 C1857 1.388 . S
C1856 C1855 1.366 . S
C1856 C1860 1.385 . S
C1857 H1832 0.951 . S
C1857 C1855 1.388 . S
C1857 C1858 1.366 . S
C1858 C1857 1.366 . S
C1858 C1859 1.414 . S
C1858 C1861 1.499 . S
C1859 H1833 0.950 . S
C1859 C1858 1.414 . S
C1859 C1860 1.374 . S
C1860 H1834 0.950 . S
C1860 C1856 1.385 . S
C1860 C1859 1.374 . S
C1861 C1858 1.499 . S
C1861 C1862 1.373 . S
C1861 C1863 1.389 . S
C1862 H1835 0.950 . S
C1862 C1848 1.377 . S
C1862 C1861 1.373 . S
C1863 C1847 1.377 . S
C1863 C1861 1.389 . S
C1863 C1864 1.524 . S
C1864 C1863 1.524 . S
C1864 C1865 1.397 . S
C1864 C1869 1.363 . S
C1865 H1836 0.950 . S
C1865 C1864 1.397 . S
C1865 C1866 1.334 . S
C1866 H1837 0.950 . S
C1866 C1865 1.334 . S
C1866 C1867 1.287 . S
C1867 C1866 1.287 . S
C1867 C1868 1.524 . S
C1867 H1870 0.999 1_565 S
C1868 H1838 0.950 . S
C1868 C1867 1.524 . S
C1868 C1869 1.415 . S
C1869 H1839 0.950 . S
C1869 C1864 1.363 . S
C1869 C1868 1.415 . S
H1870 C1867 0.999 1_545 S
H1871 C1852 0.913 . S
H1872 C1890 0.951 . S
H1873 C1892 0.951 . S
H1874 C1894 0.950 . S
H1875 C1895 0.950 . S
H1876 C1897 0.950 . S
H1877 C1900 0.950 . S
H1878 C1901 0.950 . S
H1879 C1903 0.950 . S
H1880 C1904 0.950 . S
H1881 C1905 0.951 . S
H1882 C1907 0.951 . S
H1883 C1909 0.950 . S
H1884 C1910 0.950 . S
H1885 C1912 0.950 . S
H1886 C1915 0.950 . S
H1887 C1916 0.950 . S
H1888 C1918 0.950 . S
H1889 C1919 0.950 . S
C1890 H1872 0.951 . S
C1890 C1891 1.366 . S
C1890 C1892 1.388 . S
C1891 C1890 1.366 . S
C1891 C1895 1.385 . S
C1892 H1873 0.951 . S
C1892 C1890 1.388 . S
C1892 C1893 1.366 . S
C1893 C1892 1.366 . S
C1893 C1894 1.414 . S
C1893 C1896 1.499 . S
C1894 H1874 0.950 . S
C1894 C1893 1.414 . S
C1894 C1895 1.374 . S
C1895 H1875 0.950 . S
C1895 C1891 1.385 . S
C1895 C1894 1.374 . S
C1896 C1893 1.499 . S
C1896 C1897 1.373 . S
C1896 C1898 1.389 . S
C1897 H1876 0.950 . S
C1897 C1896 1.373 . S
C1897 C1913 1.377 . S
C1898 C1896 1.389 . S
C1898 C1899 1.524 . S
C1898 C1912 1.377 . S
C1899 C1898 1.524 . S
C1899 C1900 1.397 . S
C1899 C1904 1.363 . S
C1900 H1877 0.950 . S
C1900 C1899 1.397 . S
C1900 C1901 1.334 . S
C1901 H1878 0.950 . S
C1901 C1900 1.334 . S
C1901 C1902 1.287 . S
C1902 C1901 1.287 . S
C1902 C1903 1.524 . S
C1902 H1921 0.913 . S
C1903 H1879 0.950 . S
C1903 C1902 1.524 . S
C1903 C1904 1.415 . S
C1904 H1880 0.950 . S
C1904 C1899 1.363 . S
C1904 C1903 1.415 . S
C1905 H1881 0.951 . S
C1905 C1906 1.366 . S
C1905 C1907 1.388 . S
C1906 C1905 1.366 . S
C1906 C1910 1.385 . S
C1907 H1882 0.951 . S
C1907 C1905 1.388 . S
C1907 C1908 1.366 . S
C1908 C1907 1.366 . S
C1908 C1909 1.414 . S
C1908 C1911 1.499 . S
C1909 H1883 0.950 . S
C1909 C1908 1.414 . S
C1909 C1910 1.374 . S
C1910 H1884 0.950 . S
C1910 C1906 1.385 . S
C1910 C1909 1.374 . S
C1911 C1908 1.499 . S
C1911 C1912 1.373 . S
C1911 C1913 1.389 . S
C1912 H1885 0.950 . S
C1912 C1898 1.377 . S
C1912 C1911 1.373 . S
C1913 C1897 1.377 . S
C1913 C1911 1.389 . S
C1913 C1914 1.524 . S
C1914 C1913 1.524 . S
C1914 C1915 1.397 . S
C1914 C1919 1.363 . S
C1915 H1886 0.950 . S
C1915 C1914 1.397 . S
C1915 C1916 1.334 . S
C1916 H1887 0.950 . S
C1916 C1915 1.334 . S
C1916 C1917 1.287 . S
C1917 C1916 1.287 . S
C1917 C1918 1.524 . S
C1917 H1920 0.999 . S
C1918 H1888 0.950 . S
C1918 C1917 1.524 . S
C1918 C1919 1.415 . S
C1919 H1889 0.950 . S
C1919 C1914 1.363 . S
C1919 C1918 1.415 . S
H1920 C1917 0.999 . S
H1921 C1902 0.913 . S
H1922 C1940 0.951 . S
H1923 C1942 0.951 . S
H1924 C1944 0.950 1_545 S
H1925 C1945 0.950 . S
H1926 C1947 0.950 . S
H1927 C1950 0.950 . S
H1928 C1951 0.950 . S
H1929 C1953 0.950 . S
H1930 C1954 0.950 . S
H1931 C1955 0.951 . S
H1932 C1957 0.951 . S
H1933 C1959 0.950 . S
H1934 C1960 0.950 . S
H1935 C1962 0.950 . S
H1936 C1965 0.950 . S
H1937 C1966 0.950 1_455 S
H1938 C1968 0.950 1_545 S
H1939 C1969 0.950 . S
C1940 H1922 0.951 . S
C1940 C1941 1.366 . S
C1940 C1942 1.388 . S
C1941 C1940 1.366 . S
C1941 C1945 1.385 1_565 S
C1942 H1923 0.951 . S
C1942 C1940 1.388 . S
C1942 C1943 1.366 . S
C1943 C1942 1.366 . S
C1943 C1944 1.414 . S
C1943 C1946 1.499 . S
C1944 H1924 0.950 1_565 S
C1944 C1943 1.414 . S
C1944 C1945 1.374 1_565 S
C1945 H1925 0.950 . S
C1945 C1941 1.385 1_545 S
C1945 C1944 1.374 1_545 S
C1946 C1943 1.499 . S
C1946 C1947 1.373 . S
C1946 C1948 1.389 . S
C1947 H1926 0.950 . S
C1947 C1946 1.373 . S
C1947 C1963 1.377 . S
C1948 C1946 1.389 . S
C1948 C1949 1.524 . S
C1948 C1962 1.377 . S
C1949 C1948 1.524 . S
C1949 C1950 1.397 . S
C1949 C1954 1.363 . S
C1950 H1927 0.950 . S
C1950 C1949 1.397 . S
C1950 C1951 1.334 . S
C1951 H1928 0.950 . S
C1951 C1950 1.334 . S
C1951 C1952 1.287 . S
C1952 C1951 1.287 . S
C1952 C1953 1.524 . S
C1952 H1971 0.913 . S
C1953 H1929 0.950 . S
C1953 C1952 1.524 . S
C1953 C1954 1.415 . S
C1954 H1930 0.950 . S
C1954 C1949 1.363 . S
C1954 C1953 1.415 . S
C1955 H1931 0.951 . S
C1955 C1956 1.366 . S
C1955 C1957 1.388 . S
C1956 C1955 1.366 . S
C1956 C1960 1.385 . S
C1957 H1932 0.951 . S
C1957 C1955 1.388 . S
C1957 C1958 1.366 . S
C1958 C1957 1.366 . S
C1958 C1959 1.414 . S
C1958 C1961 1.499 . S
C1959 H1933 0.950 . S
C1959 C1958 1.414 . S
C1959 C1960 1.374 . S
C1960 H1934 0.950 . S
C1960 C1956 1.385 . S
C1960 C1959 1.374 . S
C1961 C1958 1.499 . S
C1961 C1962 1.373 . S
C1961 C1963 1.389 . S
C1962 H1935 0.950 . S
C1962 C1948 1.377 . S
C1962 C1961 1.373 . S
C1963 C1947 1.377 . S
C1963 C1961 1.389 . S
C1963 C1964 1.524 . S
C1964 C1963 1.524 . S
C1964 C1965 1.397 . S
C1964 C1969 1.363 . S
C1965 H1936 0.950 . S
C1965 C1964 1.397 . S
C1965 C1966 1.334 . S
C1966 H1937 0.950 1_655 S
C1966 C1965 1.334 . S
C1966 C1967 1.286 1_655 S
C1967 C1966 1.286 1_455 S
C1967 C1968 1.523 1_455 S
C1967 H1970 1.001 . S
C1968 H1938 0.950 1_565 S
C1968 C1967 1.523 1_655 S
C1968 C1969 1.415 . S
C1969 H1939 0.950 . S
C1969 C1964 1.363 . S
C1969 C1968 1.415 . S
H1970 C1967 1.001 . S
H1971 C1952 0.913 . S
H1972 C1990 0.951 . S
H1973 C1992 0.951 . S
H1974 C1994 0.950 . S
H1975 C1995 0.950 . S
H1976 C1997 0.950 . S
H1977 C2000 0.950 . S
H1978 C2001 0.950 . S
H1979 C2003 0.950 . S
H1980 C2004 0.950 . S
H1981 C2005 0.951 . S
H1982 C2007 0.951 . S
H1983 C2009 0.950 . S
H1984 C2010 0.950 . S
H1985 C2012 0.950 . S
H1986 C2015 0.950 . S
H1987 C2016 0.950 . S
H1988 C2018 0.950 . S
H1989 C2019 0.950 . S
C1990 H1972 0.951 . S
C1990 C1991 1.366 . S
C1990 C1992 1.388 . S
C1991 C1990 1.366 . S
C1991 C1995 1.385 . S
C1992 H1973 0.951 . S
C1992 C1990 1.388 . S
C1992 C1993 1.366 . S
C1993 C1992 1.366 . S
C1993 C1994 1.414 . S
C1993 C1996 1.499 . S
C1994 H1974 0.950 . S
C1994 C1993 1.414 . S
C1994 C1995 1.374 . S
C1995 H1975 0.950 . S
C1995 C1991 1.385 . S
C1995 C1994 1.374 . S
C1996 C1993 1.499 . S
C1996 C1997 1.373 . S
C1996 C1998 1.389 . S
C1997 H1976 0.950 . S
C1997 C1996 1.373 . S
C1997 C2013 1.377 . S
C1998 C1996 1.389 . S
C1998 C1999 1.524 . S
C1998 C2012 1.377 . S
C1999 C1998 1.524 . S
C1999 C2000 1.397 . S
C1999 C2004 1.363 . S
C2000 H1977 0.950 . S
C2000 C1999 1.397 . S
C2000 C2001 1.334 . S
C2001 H1978 0.950 . S
C2001 C2000 1.334 . S
C2001 C2002 1.287 . S
C2002 C2001 1.287 . S
C2002 C2003 1.524 . S
C2002 H2021 0.913 . S
C2003 H1979 0.950 . S
C2003 C2002 1.524 . S
C2003 C2004 1.415 . S
C2004 H1980 0.950 . S
C2004 C1999 1.363 . S
C2004 C2003 1.415 . S
C2005 H1981 0.951 . S
C2005 C2006 1.366 . S
C2005 C2007 1.388 . S
C2006 C2005 1.366 . S
C2006 C2010 1.385 . S
C2007 H1982 0.951 . S
C2007 C2005 1.388 . S
C2007 C2008 1.366 . S
C2008 C2007 1.366 . S
C2008 C2009 1.414 . S
C2008 C2011 1.499 . S
C2009 H1983 0.950 . S
C2009 C2008 1.414 . S
C2009 C2010 1.374 . S
C2010 H1984 0.950 . S
C2010 C2006 1.385 . S
C2010 C2009 1.374 . S
C2011 C2008 1.499 . S
C2011 C2012 1.373 . S
C2011 C2013 1.389 . S
C2012 H1985 0.950 . S
C2012 C1998 1.377 . S
C2012 C2011 1.373 . S
C2013 C1997 1.377 . S
C2013 C2011 1.389 . S
C2013 C2014 1.524 . S
C2014 C2013 1.524 . S
C2014 C2015 1.397 . S
C2014 C2019 1.363 . S
C2015 H1986 0.950 . S
C2015 C2014 1.397 . S
C2015 C2016 1.334 . S
C2016 H1987 0.950 . S
C2016 C2015 1.334 . S
C2016 C2017 1.287 . S
C2017 C2016 1.287 . S
C2017 C2018 1.524 . S
C2017 H2020 0.999 . S
C2018 H1988 0.950 . S
C2018 C2017 1.524 . S
C2018 C2019 1.415 . S
C2019 H1989 0.950 . S
C2019 C2014 1.363 . S
C2019 C2018 1.415 . S
H2020 C2017 0.999 . S
H2021 C2002 0.913 . S
H2022 C2040 0.951 . S
H2023 C2042 0.951 . S
H2024 C2044 0.950 . S
H2025 C2045 0.950 . S
H2026 C2047 0.950 . S
H2027 C2050 0.950 . S
H2028 C2051 0.950 1_565 S
H2029 C2053 0.950 . S
H2030 C2054 0.950 . S
H2031 C2055 0.951 . S
H2032 C2057 0.951 . S
H2033 C2059 0.950 . S
H2034 C2060 0.950 . S
H2035 C2062 0.950 . S
H2036 C2065 0.950 1_554 S
H2037 C2066 0.950 . S
H2038 C2068 0.950 . S
H2039 C2069 0.950 . S
C2040 H2022 0.951 . S
C2040 C2041 1.366 . S
C2040 C2042 1.388 . S
C2041 C2040 1.366 . S
C2041 C2045 1.385 1_545 S
C2042 H2023 0.951 . S
C2042 C2040 1.388 . S
C2042 C2043 1.366 . S
C2043 C2042 1.366 . S
C2043 C2044 1.414 . S
C2043 C2046 1.499 . S
C2044 H2024 0.950 . S
C2044 C2043 1.414 . S
C2044 C2045 1.374 1_545 S
C2045 H2025 0.950 . S
C2045 C2041 1.385 1_565 S
C2045 C2044 1.374 1_565 S
C2046 C2043 1.499 . S
C2046 C2047 1.373 . S
C2046 C2048 1.389 1_556 S
C2047 H2026 0.950 . S
C2047 C2046 1.373 . S
C2047 C2063 1.377 1_556 S
C2048 C2046 1.389 1_554 S
C2048 C2049 1.524 . S
C2048 C2062 1.377 . S
C2049 C2048 1.524 . S
C2049 C2050 1.397 . S
C2049 C2054 1.363 . S
C2050 H2027 0.950 . S
C2050 C2049 1.397 . S
C2050 C2051 1.334 . S
C2051 H2028 0.950 1_545 S
C2051 C2050 1.334 . S
C2051 C2052 1.287 . S
C2052 C2051 1.287 . S
C2052 C2053 1.524 . S
C2052 H2071 0.913 . S
C2053 H2029 0.950 . S
C2053 C2052 1.524 . S
C2053 C2054 1.415 . S
C2054 H2030 0.950 . S
C2054 C2049 1.363 . S
C2054 C2053 1.415 . S
C2055 H2031 0.951 . S
C2055 C2056 1.366 . S
C2055 C2057 1.388 . S
C2056 C2055 1.366 . S
C2056 C2060 1.385 . S
C2057 H2032 0.951 . S
C2057 C2055 1.388 . S
C2057 C2058 1.366 . S
C2058 C2057 1.366 . S
C2058 C2059 1.414 . S
C2058 C2061 1.499 . S
C2059 H2033 0.950 . S
C2059 C2058 1.414 . S
C2059 C2060 1.374 . S
C2060 H2034 0.950 . S
C2060 C2056 1.385 . S
C2060 C2059 1.374 . S
C2061 C2058 1.499 . S
C2061 C2062 1.373 . S
C2061 C2063 1.389 . S
C2062 H2035 0.950 . S
C2062 C2048 1.377 . S
C2062 C2061 1.373 . S
C2063 C2047 1.377 1_554 S
C2063 C2061 1.389 . S
C2063 C2064 1.524 1_554 S
C2064 C2063 1.524 1_556 S
C2064 C2065 1.397 . S
C2064 C2069 1.363 . S
C2065 H2036 0.950 1_556 S
C2065 C2064 1.397 . S
C2065 C2066 1.334 . S
C2066 H2037 0.950 . S
C2066 C2065 1.334 . S
C2066 C2067 1.287 . S
C2067 C2066 1.287 . S
C2067 C2068 1.524 . S
C2067 H2070 0.999 . S
C2068 H2038 0.950 . S
C2068 C2067 1.524 . S
C2068 C2069 1.415 . S
C2069 H2039 0.950 . S
C2069 C2064 1.363 . S
C2069 C2068 1.415 . S
H2070 C2067 0.999 . S
H2071 C2052 0.913 . S
H2072 C2090 0.951 . S
H2073 C2092 0.951 . S
H2074 C2094 0.950 . S
H2075 C2095 0.950 . S
H2076 C2097 0.950 . S
H2077 C2100 0.950 . S
H2078 C2101 0.950 . S
H2079 C2103 0.950 . S
H2080 C2104 0.950 . S
H2081 C2105 0.951 . S
H2082 C2107 0.951 . S
H2083 C2109 0.950 . S
H2084 C2110 0.950 . S
H2085 C2112 0.950 . S
H2086 C2115 0.950 . S
H2087 C2116 0.950 . S
H2088 C2118 0.950 . S
H2089 C2119 0.950 . S
C2090 H2072 0.951 . S
C2090 C2091 1.366 . S
C2090 C2092 1.388 . S
C2091 C2090 1.366 . S
C2091 C2095 1.385 . S
C2092 H2073 0.951 . S
C2092 C2090 1.388 . S
C2092 C2093 1.366 . S
C2093 C2092 1.366 . S
C2093 C2094 1.414 . S
C2093 C2096 1.499 . S
C2094 H2074 0.950 . S
C2094 C2093 1.414 . S
C2094 C2095 1.374 . S
C2095 H2075 0.950 . S
C2095 C2091 1.385 . S
C2095 C2094 1.374 . S
C2096 C2093 1.499 . S
C2096 C2097 1.373 . S
C2096 C2098 1.389 . S
C2097 H2076 0.950 . S
C2097 C2096 1.373 . S
C2097 C2113 1.377 . S
C2098 C2096 1.389 . S
C2098 C2099 1.524 . S
C2098 C2112 1.377 . S
C2099 C2098 1.524 . S
C2099 C2100 1.397 . S
C2099 C2104 1.363 . S
C2100 H2077 0.950 . S
C2100 C2099 1.397 . S
C2100 C2101 1.334 . S
C2101 H2078 0.950 . S
C2101 C2100 1.334 . S
C2101 C2102 1.287 . S
C2102 C2101 1.287 . S
C2102 C2103 1.524 . S
C2102 H2121 0.913 . S
C2103 H2079 0.950 . S
C2103 C2102 1.524 . S
C2103 C2104 1.415 . S
C2104 H2080 0.950 . S
C2104 C2099 1.363 . S
C2104 C2103 1.415 . S
C2105 H2081 0.951 . S
C2105 C2106 1.366 . S
C2105 C2107 1.388 . S
C2106 C2105 1.366 . S
C2106 C2110 1.385 . S
C2107 H2082 0.951 . S
C2107 C2105 1.388 . S
C2107 C2108 1.366 . S
C2108 C2107 1.366 . S
C2108 C2109 1.414 . S
C2108 C2111 1.499 . S
C2109 H2083 0.950 . S
C2109 C2108 1.414 . S
C2109 C2110 1.374 . S
C2110 H2084 0.950 . S
C2110 C2106 1.385 . S
C2110 C2109 1.374 . S
C2111 C2108 1.499 . S
C2111 C2112 1.373 . S
C2111 C2113 1.389 . S
C2112 H2085 0.950 . S
C2112 C2098 1.377 . S
C2112 C2111 1.373 . S
C2113 C2097 1.377 . S
C2113 C2111 1.389 . S
C2113 C2114 1.524 . S
C2114 C2113 1.524 . S
C2114 C2115 1.397 . S
C2114 C2119 1.363 . S
C2115 H2086 0.950 . S
C2115 C2114 1.397 . S
C2115 C2116 1.334 . S
C2116 H2087 0.950 . S
C2116 C2115 1.334 . S
C2116 C2117 1.287 . S
C2117 C2116 1.287 . S
C2117 C2118 1.524 . S
C2117 H2120 0.999 . S
C2118 H2088 0.950 . S
C2118 C2117 1.524 . S
C2118 C2119 1.415 . S
C2119 H2089 0.950 . S
C2119 C2114 1.363 . S
C2119 C2118 1.415 . S
H2120 C2117 0.999 . S
H2121 C2102 0.913 . S
H2122 C2140 0.951 . S
H2123 C2142 0.951 . S
H2124 C2144 0.950 . S
H2125 C2145 0.950 . S
H2126 C2147 0.950 . S
H2127 C2150 0.950 . S
H2128 C2151 0.915 1_545 S
H2129 C2153 0.950 . S
H2130 C2154 0.950 . S
H2131 C2155 0.951 . S
H2132 C2157 0.951 . S
H2133 C2159 0.950 . S
H2134 C2160 0.950 . S
H2135 C2162 0.950 . S
H2136 C2165 0.950 . S
H2137 C2166 0.950 . S
H2138 C2168 0.950 . S
H2139 C2169 0.950 . S
C2140 H2122 0.951 . S
C2140 C2141 1.366 . S
C2140 C2142 1.388 . S
C2141 C2140 1.366 . S
C2141 C2145 1.385 1_565 S
C2142 H2123 0.951 . S
C2142 C2140 1.388 . S
C2142 C2143 1.366 . S
C2143 C2142 1.366 . S
C2143 C2144 1.414 . S
C2143 C2146 1.499 . S
C2144 H2124 0.950 . S
C2144 C2143 1.414 . S
C2144 C2145 1.374 1_565 S
C2145 H2125 0.950 . S
C2145 C2141 1.385 1_545 S
C2145 C2144 1.374 1_545 S
C2146 C2143 1.499 . S
C2146 C2147 1.373 . S
C2146 C2148 1.389 . S
C2147 H2126 0.950 . S
C2147 C2146 1.373 . S
C2147 C2163 1.377 . S
C2148 C2146 1.389 . S
C2148 C2149 1.524 . S
C2148 C2162 1.377 . S
C2149 C2148 1.524 . S
C2149 C2150 1.397 . S
C2149 C2154 1.363 . S
C2150 H2127 0.950 . S
C2150 C2149 1.397 . S
C2150 C2151 1.351 . S
C2151 H2128 0.915 1_565 S
C2151 C2150 1.351 . S
C2151 C2152 1.306 . S
C2152 C2151 1.306 . S
C2152 C2153 1.524 . S
C2152 H2171 0.913 . S
C2153 H2129 0.950 . S
C2153 C2152 1.524 . S
C2153 C2154 1.415 . S
C2154 H2130 0.950 . S
C2154 C2149 1.363 . S
C2154 C2153 1.415 . S
C2155 H2131 0.951 . S
C2155 C2156 1.366 . S
C2155 C2157 1.388 . S
C2156 C2155 1.366 . S
C2156 C2160 1.385 . S
C2157 H2132 0.951 . S
C2157 C2155 1.388 . S
C2157 C2158 1.366 . S
C2158 C2157 1.366 . S
C2158 C2159 1.414 . S
C2158 C2161 1.499 . S
C2159 H2133 0.950 . S
C2159 C2158 1.414 . S
C2159 C2160 1.374 . S
C2160 H2134 0.950 . S
C2160 C2156 1.385 . S
C2160 C2159 1.374 . S
C2161 C2158 1.499 . S
C2161 C2162 1.373 . S
C2161 C2163 1.389 . S
C2162 H2135 0.950 . S
C2162 C2148 1.377 . S
C2162 C2161 1.373 . S
C2163 C2147 1.377 . S
C2163 C2161 1.389 . S
C2163 C2164 1.524 . S
C2164 C2163 1.524 . S
C2164 C2165 1.397 . S
C2164 C2169 1.363 . S
C2165 H2136 0.950 . S
C2165 C2164 1.397 . S
C2165 C2166 1.334 . S
C2166 H2137 0.950 . S
C2166 C2165 1.334 . S
C2166 C2167 1.287 . S
C2167 C2166 1.287 . S
C2167 C2168 1.524 . S
C2167 H2170 0.999 . S
C2168 H2138 0.950 . S
C2168 C2167 1.524 . S
C2168 C2169 1.415 . S
C2169 H2139 0.950 . S
C2169 C2164 1.363 . S
C2169 C2168 1.415 . S
H2170 C2167 0.999 . S
H2171 C2152 0.913 . S
H2172 C2190 0.951 . S
H2173 C2192 0.951 . S
H2174 C2194 0.950 . S
H2175 C2195 0.950 . S
H2176 C2197 0.950 . S
H2177 C2200 0.950 . S
H2178 C2201 0.950 . S
H2179 C2203 0.950 . S
H2180 C2204 0.950 . S
H2181 C2205 0.951 . S
H2182 C2207 0.951 . S
H2183 C2209 0.950 . S
H2184 C2210 0.950 . S
H2185 C2212 0.950 . S
H2186 C2215 0.950 . S
H2187 C2216 0.950 . S
H2188 C2218 0.950 . S
H2189 C2219 0.950 . S
C2190 H2172 0.951 . S
C2190 C2191 1.366 . S
C2190 C2192 1.388 . S
C2191 C2190 1.366 . S
C2191 C2195 1.385 . S
C2192 H2173 0.951 . S
C2192 C2190 1.388 . S
C2192 C2193 1.366 . S
C2193 C2192 1.366 . S
C2193 C2194 1.414 . S
C2193 C2196 1.499 . S
C2194 H2174 0.950 . S
C2194 C2193 1.414 . S
C2194 C2195 1.374 . S
C2195 H2175 0.950 . S
C2195 C2191 1.385 . S
C2195 C2194 1.374 . S
C2196 C2193 1.499 . S
C2196 C2197 1.373 . S
C2196 C2198 1.389 . S
C2197 H2176 0.950 . S
C2197 C2196 1.373 . S
C2197 C2213 1.377 . S
C2198 C2196 1.389 . S
C2198 C2199 1.524 . S
C2198 C2212 1.377 . S
C2199 C2198 1.524 . S
C2199 C2200 1.397 . S
C2199 C2204 1.363 . S
C2200 H2177 0.950 . S
C2200 C2199 1.397 . S
C2200 C2201 1.334 . S
C2201 H2178 0.950 . S
C2201 C2200 1.334 . S
C2201 C2202 1.287 . S
C2202 C2201 1.287 . S
C2202 C2203 1.524 . S
C2202 H2221 0.913 . S
C2203 H2179 0.950 . S
C2203 C2202 1.524 . S
C2203 C2204 1.415 . S
C2204 H2180 0.950 . S
C2204 C2199 1.363 . S
C2204 C2203 1.415 . S
C2205 H2181 0.951 . S
C2205 C2206 1.366 . S
C2205 C2207 1.388 . S
C2206 C2205 1.366 . S
C2206 C2210 1.385 . S
C2207 H2182 0.951 . S
C2207 C2205 1.388 . S
C2207 C2208 1.366 . S
C2208 C2207 1.366 . S
C2208 C2209 1.414 . S
C2208 C2211 1.499 . S
C2209 H2183 0.950 . S
C2209 C2208 1.414 . S
C2209 C2210 1.374 . S
C2210 H2184 0.950 . S
C2210 C2206 1.385 . S
C2210 C2209 1.374 . S
C2211 C2208 1.499 . S
C2211 C2212 1.373 . S
C2211 C2213 1.389 . S
C2212 H2185 0.950 . S
C2212 C2198 1.377 . S
C2212 C2211 1.373 . S
C2213 C2197 1.377 . S
C2213 C2211 1.389 . S
C2213 C2214 1.524 . S
C2214 C2213 1.524 . S
C2214 C2215 1.397 . S
C2214 C2219 1.363 . S
C2215 H2186 0.950 . S
C2215 C2214 1.397 . S
C2215 C2216 1.334 . S
C2216 H2187 0.950 . S
C2216 C2215 1.334 . S
C2216 C2217 1.287 . S
C2217 C2216 1.287 . S
C2217 C2218 1.524 . S
C2217 H2220 0.999 . S
C2218 H2188 0.950 . S
C2218 C2217 1.524 . S
C2218 C2219 1.415 . S
C2219 H2189 0.950 . S
C2219 C2214 1.363 . S
C2219 C2218 1.415 . S
H2220 C2217 0.999 . S
H2221 C2202 0.913 . S
H2222 C2240 0.951 . S
H2223 C2242 0.951 . S
H2224 C2244 0.950 . S
H2225 C2245 0.950 . S
H2226 C2247 0.950 . S
H2227 C2250 0.952 . S
H2228 C2251 0.950 . S
H2229 C2253 0.950 . S
H2230 C2254 0.926 1_545 S
H2231 C2255 0.951 . S
H2232 C2257 0.951 . S
H2233 C2259 0.950 . S
H2234 C2260 0.950 . S
H2235 C2262 0.950 . S
H2236 C2265 0.950 . S
H2237 C2266 0.950 . S
H2238 C2268 0.950 . S
H2239 C2269 0.950 . S
C2240 H2222 0.951 . S
C2240 C2241 1.366 1_565 S
C2240 C2242 1.388 1_565 S
C2241 C2240 1.366 1_545 S
C2241 C2245 1.385 . S
C2242 H2223 0.951 . S
C2242 C2240 1.388 1_545 S
C2242 C2243 1.366 . S
C2243 C2242 1.366 . S
C2243 C2244 1.414 . S
C2243 C2246 1.499 . S
C2244 H2224 0.950 . S
C2244 C2243 1.414 . S
C2244 C2245 1.374 . S
C2245 H2225 0.950 . S
C2245 C2241 1.385 . S
C2245 C2244 1.374 . S
C2246 C2243 1.499 . S
C2246 C2247 1.373 . S
C2246 C2248 1.389 1_554 S
C2247 H2226 0.950 . S
C2247 C2246 1.373 . S
C2247 C2263 1.377 1_554 S
C2248 C2246 1.389 1_556 S
C2248 C2249 1.524 . S
C2248 C2262 1.377 . S
C2249 C2248 1.524 . S
C2249 C2250 1.398 1_556 S
C2249 C2254 1.363 1_545 S
C2250 H2227 0.952 . S
C2250 C2249 1.398 1_554 S
C2250 C2251 1.330 1_545 S
C2251 H2228 0.950 . S
C2251 C2250 1.330 1_565 S
C2251 C2252 1.287 1_554 S
C2252 C2251 1.287 1_556 S
C2252 C2253 1.524 . S
C2252 H2271 0.913 . S
C2253 H2229 0.950 . S
C2253 C2252 1.524 . S
C2253 C2254 1.415 . S
C2254 H2230 0.926 1_565 S
C2254 C2249 1.363 1_565 S
C2254 C2253 1.415 . S
C2255 H2231 0.951 . S
C2255 C2256 1.366 . S
C2255 C2257 1.388 . S
C2256 C2255 1.366 . S
C2256 C2260 1.385 . S
C2257 H2232 0.951 . S
C2257 C2255 1.388 . S
C2257 C2258 1.366 . S
C2258 C2257 1.366 . S
C2258 C2259 1.414 . S
C2258 C2261 1.499 . S
C2259 H2233 0.950 . S
C2259 C2258 1.414 . S
C2259 C2260 1.374 . S
C2260 H2234 0.950 . S
C2260 C2256 1.385 . S
C2260 C2259 1.374 . S
C2261 C2258 1.499 . S
C2261 C2262 1.373 . S
C2261 C2263 1.389 . S
C2262 H2235 0.950 . S
C2262 C2248 1.377 . S
C2262 C2261 1.373 . S
C2263 C2247 1.377 1_556 S
C2263 C2261 1.389 . S
C2263 C2264 1.524 . S
C2264 C2263 1.524 . S
C2264 C2265 1.397 . S
C2264 C2269 1.363 1_556 S
C2265 H2236 0.950 . S
C2265 C2264 1.397 . S
C2265 C2266 1.334 . S
C2266 H2237 0.950 . S
C2266 C2265 1.334 . S
C2266 C2267 1.287 . S
C2267 C2266 1.287 . S
C2267 C2268 1.524 1_556 S
C2267 H2270 0.999 . S
C2268 H2238 0.950 . S
C2268 C2267 1.524 1_554 S
C2268 C2269 1.415 . S
C2269 H2239 0.950 . S
C2269 C2264 1.363 1_554 S
C2269 C2268 1.415 . S
H2270 C2267 0.999 . S
H2271 C2252 0.913 . S
H2272 C2290 0.951 . S
H2273 C2292 0.951 . S
H2274 C2294 0.950 . S
H2275 C2295 0.950 . S
H2276 C2297 0.950 . S
H2277 C2300 0.950 . S
H2278 C2301 0.950 . S
H2279 C2303 0.950 . S
H2280 C2304 0.950 . S
H2281 C2305 0.951 . S
H2282 C2307 0.951 . S
H2283 C2309 0.950 . S
H2284 C2310 0.950 . S
H2285 C2312 0.950 . S
H2286 C2315 0.950 . S
H2287 C2316 0.950 . S
H2288 C2318 0.950 . S
H2289 C2319 0.950 . S
C2290 H2272 0.951 . S
C2290 C2291 1.366 . S
C2290 C2292 1.388 . S
C2291 C2290 1.366 . S
C2291 C2295 1.385 . S
C2292 H2273 0.951 . S
C2292 C2290 1.388 . S
C2292 C2293 1.366 . S
C2293 C2292 1.366 . S
C2293 C2294 1.414 . S
C2293 C2296 1.499 . S
C2294 H2274 0.950 . S
C2294 C2293 1.414 . S
C2294 C2295 1.374 . S
C2295 H2275 0.950 . S
C2295 C2291 1.385 . S
C2295 C2294 1.374 . S
C2296 C2293 1.499 . S
C2296 C2297 1.373 . S
C2296 C2298 1.389 . S
C2297 H2276 0.950 . S
C2297 C2296 1.373 . S
C2297 C2313 1.377 . S
C2298 C2296 1.389 . S
C2298 C2299 1.524 . S
C2298 C2312 1.377 . S
C2299 C2298 1.524 . S
C2299 C2300 1.397 . S
C2299 C2304 1.363 . S
C2300 H2277 0.950 . S
C2300 C2299 1.397 . S
C2300 C2301 1.334 . S
C2301 H2278 0.950 . S
C2301 C2300 1.334 . S
C2301 C2302 1.287 . S
C2302 C2301 1.287 . S
C2302 C2303 1.524 . S
C2302 H2321 0.913 . S
C2303 H2279 0.950 . S
C2303 C2302 1.524 . S
C2303 C2304 1.415 . S
C2304 H2280 0.950 . S
C2304 C2299 1.363 . S
C2304 C2303 1.415 . S
C2305 H2281 0.951 . S
C2305 C2306 1.366 . S
C2305 C2307 1.388 . S
C2306 C2305 1.366 . S
C2306 C2310 1.385 . S
C2307 H2282 0.951 . S
C2307 C2305 1.388 . S
C2307 C2308 1.366 . S
C2308 C2307 1.366 . S
C2308 C2309 1.414 . S
C2308 C2311 1.499 . S
C2309 H2283 0.950 . S
C2309 C2308 1.414 . S
C2309 C2310 1.374 . S
C2310 H2284 0.950 . S
C2310 C2306 1.385 . S
C2310 C2309 1.374 . S
C2311 C2308 1.499 . S
C2311 C2312 1.373 . S
C2311 C2313 1.389 . S
C2312 H2285 0.950 . S
C2312 C2298 1.377 . S
C2312 C2311 1.373 . S
C2313 C2297 1.377 . S
C2313 C2311 1.389 . S
C2313 C2314 1.524 . S
C2314 C2313 1.524 . S
C2314 C2315 1.397 . S
C2314 C2319 1.363 . S
C2315 H2286 0.950 . S
C2315 C2314 1.397 . S
C2315 C2316 1.334 . S
C2316 H2287 0.950 . S
C2316 C2315 1.334 . S
C2316 C2317 1.287 . S
C2317 C2316 1.287 . S
C2317 C2318 1.524 . S
C2317 H2320 0.999 . S
C2318 H2288 0.950 . S
C2318 C2317 1.524 . S
C2318 C2319 1.415 . S
C2319 H2289 0.950 . S
C2319 C2314 1.363 . S
C2319 C2318 1.415 . S
H2320 C2317 0.999 . S
H2321 C2302 0.913 . S
H2322 C2340 0.951 . S
H2323 C2342 0.951 . S
H2324 C2344 0.950 . S
H2325 C2345 0.950 . S
H2326 C2347 0.950 . S
H2327 C2350 0.950 . S
H2328 C2351 0.950 . S
H2329 C2353 0.950 . S
H2330 C2354 0.950 . S
H2331 C2355 0.951 . S
H2332 C2357 0.951 . S
H2333 C2359 0.950 . S
H2334 C2360 0.950 . S
H2335 C2362 0.950 . S
H2336 C2365 0.950 . S
H2337 C2366 0.950 . S
H2338 C2368 0.950 . S
H2339 C2369 0.950 . S
C2340 H2322 0.951 . S
C2340 C2341 1.366 1_655 S
C2340 C2342 1.388 1_655 S
C2341 C2340 1.366 1_455 S
C2341 C2345 1.385 . S
C2342 H2323 0.951 . S
C2342 C2340 1.388 1_455 S
C2342 C2343 1.366 . S
C2343 C2342 1.366 . S
C2343 C2344 1.414 . S
C2343 C2346 1.499 . S
C2344 H2324 0.950 . S
C2344 C2343 1.414 . S
C2344 C2345 1.374 . S
C2345 H2325 0.950 . S
C2345 C2341 1.385 . S
C2345 C2344 1.374 . S
C2346 C2343 1.499 . S
C2346 C2347 1.373 1_565 S
C2346 C2348 1.389 . S
C2347 H2326 0.950 . S
C2347 C2346 1.373 1_545 S
C2347 C2363 1.377 . S
C2348 C2346 1.389 . S
C2348 C2349 1.524 . S
C2348 C2362 1.377 1_565 S
C2349 C2348 1.524 . S
C2349 C2350 1.397 . S
C2349 C2354 1.363 . S
C2350 H2327 0.950 . S
C2350 C2349 1.397 . S
C2350 C2351 1.334 . S
C2351 H2328 0.950 . S
C2351 C2350 1.334 . S
C2351 C2352 1.287 . S
C2352 C2351 1.287 . S
C2352 C2353 1.524 . S
C2352 H2371 0.913 . S
C2353 H2329 0.950 . S
C2353 C2352 1.524 . S
C2353 C2354 1.415 . S
C2354 H2330 0.950 . S
C2354 C2349 1.363 . S
C2354 C2353 1.415 . S
C2355 H2331 0.951 . S
C2355 C2356 1.366 . S
C2355 C2357 1.388 . S
C2356 C2355 1.366 . S
C2356 C2360 1.385 . S
C2357 H2332 0.951 . S
C2357 C2355 1.388 . S
C2357 C2358 1.366 . S
C2358 C2357 1.366 . S
C2358 C2359 1.414 . S
C2358 C2361 1.499 . S
C2359 H2333 0.950 . S
C2359 C2358 1.414 . S
C2359 C2360 1.374 . S
C2360 H2334 0.950 . S
C2360 C2356 1.385 . S
C2360 C2359 1.374 . S
C2361 C2358 1.499 . S
C2361 C2362 1.373 . S
C2361 C2363 1.389 . S
C2362 H2335 0.950 . S
C2362 C2348 1.377 1_545 S
C2362 C2361 1.373 . S
C2363 C2347 1.377 . S
C2363 C2361 1.389 . S
C2363 C2364 1.524 . S
C2364 C2363 1.524 . S
C2364 C2365 1.397 . S
C2364 C2369 1.363 . S
C2365 H2336 0.950 . S
C2365 C2364 1.397 . S
C2365 C2366 1.334 . S
C2366 H2337 0.950 . S
C2366 C2365 1.334 . S
C2366 C2367 1.287 . S
C2367 C2366 1.287 . S
C2367 C2368 1.524 . S
C2367 H2370 0.999 . S
C2368 H2338 0.950 . S
C2368 C2367 1.524 . S
C2368 C2369 1.415 . S
C2369 H2339 0.950 . S
C2369 C2364 1.363 . S
C2369 C2368 1.415 . S
H2370 C2367 0.999 . S
H2371 C2352 0.913 . S
H2372 C2390 0.951 . S
H2373 C2392 0.951 . S
H2374 C2394 0.950 . S
H2375 C2395 0.950 . S
H2376 C2397 0.950 . S
H2377 C2400 0.950 . S
H2378 C2401 0.950 . S
H2379 C2403 0.950 . S
H2380 C2404 0.950 . S
H2381 C2405 0.951 . S
H2382 C2407 0.951 . S
H2383 C2409 0.950 . S
H2384 C2410 0.950 . S
H2385 C2412 0.950 . S
H2386 C2415 0.950 . S
H2387 C2416 0.950 . S
H2388 C2418 0.950 . S
H2389 C2419 0.950 . S
C2390 H2372 0.951 . S
C2390 C2391 1.366 . S
C2390 C2392 1.388 . S
C2391 C2390 1.366 . S
C2391 C2395 1.385 . S
C2392 H2373 0.951 . S
C2392 C2390 1.388 . S
C2392 C2393 1.366 . S
C2393 C2392 1.366 . S
C2393 C2394 1.414 . S
C2393 C2396 1.499 . S
C2394 H2374 0.950 . S
C2394 C2393 1.414 . S
C2394 C2395 1.374 . S
C2395 H2375 0.950 . S
C2395 C2391 1.385 . S
C2395 C2394 1.374 . S
C2396 C2393 1.499 . S
C2396 C2397 1.373 . S
C2396 C2398 1.389 . S
C2397 H2376 0.950 . S
C2397 C2396 1.373 . S
C2397 C2413 1.377 . S
C2398 C2396 1.389 . S
C2398 C2399 1.524 . S
C2398 C2412 1.377 . S
C2399 C2398 1.524 . S
C2399 C2400 1.397 . S
C2399 C2404 1.363 . S
C2400 H2377 0.950 . S
C2400 C2399 1.397 . S
C2400 C2401 1.334 . S
C2401 H2378 0.950 . S
C2401 C2400 1.334 . S
C2401 C2402 1.287 . S
C2402 C2401 1.287 . S
C2402 C2403 1.524 . S
C2402 H2421 0.913 . S
C2403 H2379 0.950 . S
C2403 C2402 1.524 . S
C2403 C2404 1.415 . S
C2404 H2380 0.950 . S
C2404 C2399 1.363 . S
C2404 C2403 1.415 . S
C2405 H2381 0.951 . S
C2405 C2406 1.366 . S
C2405 C2407 1.388 . S
C2406 C2405 1.366 . S
C2406 C2410 1.385 . S
C2407 H2382 0.951 . S
C2407 C2405 1.388 . S
C2407 C2408 1.366 . S
C2408 C2407 1.366 . S
C2408 C2409 1.414 . S
C2408 C2411 1.499 . S
C2409 H2383 0.950 . S
C2409 C2408 1.414 . S
C2409 C2410 1.374 . S
C2410 H2384 0.950 . S
C2410 C2406 1.385 . S
C2410 C2409 1.374 . S
C2411 C2408 1.499 . S
C2411 C2412 1.373 . S
C2411 C2413 1.389 . S
C2412 H2385 0.950 . S
C2412 C2398 1.377 . S
C2412 C2411 1.373 . S
C2413 C2397 1.377 . S
C2413 C2411 1.389 . S
C2413 C2414 1.524 . S
C2414 C2413 1.524 . S
C2414 C2415 1.397 . S
C2414 C2419 1.363 . S
C2415 H2386 0.950 . S
C2415 C2414 1.397 . S
C2415 C2416 1.334 . S
C2416 H2387 0.950 . S
C2416 C2415 1.334 . S
C2416 C2417 1.287 . S
C2417 C2416 1.287 . S
C2417 C2418 1.524 . S
C2417 H2420 0.999 . S
C2418 H2388 0.950 . S
C2418 C2417 1.524 . S
C2418 C2419 1.415 . S
C2419 H2389 0.950 . S
C2419 C2414 1.363 . S
C2419 C2418 1.415 . S
H2420 C2417 0.999 . S
H2421 C2402 0.913 . S
H2422 C2440 0.951 . S
H2423 C2442 0.951 . S
H2424 C2444 0.950 . S
H2425 C2445 0.950 . S
H2426 C2447 0.950 . S
H2427 C2450 0.950 . S
H2428 C2451 0.950 . S
H2429 C2453 0.950 . S
H2430 C2454 0.950 . S
H2431 C2455 0.951 . S
H2432 C2457 0.951 . S
H2433 C2459 0.950 . S
H2434 C2460 0.950 . S
H2435 C2462 0.950 . S
H2436 C2465 0.950 . S
H2437 C2466 0.950 . S
H2438 C2468 0.950 . S
H2439 C2469 0.950 . S
C2440 H2422 0.951 . S
C2440 C2441 1.366 . S
C2440 C2442 1.388 . S
C2441 C2440 1.366 . S
C2441 C2445 1.385 . S
C2442 H2423 0.951 . S
C2442 C2440 1.388 . S
C2442 C2443 1.366 . S
C2443 C2442 1.366 . S
C2443 C2444 1.414 . S
C2443 C2446 1.499 . S
C2444 H2424 0.950 . S
C2444 C2443 1.414 . S
C2444 C2445 1.374 . S
C2445 H2425 0.950 . S
C2445 C2441 1.385 . S
C2445 C2444 1.374 . S
C2446 C2443 1.499 . S
C2446 C2447 1.373 1_545 S
C2446 C2448 1.389 . S
C2447 H2426 0.950 . S
C2447 C2446 1.373 1_565 S
C2447 C2463 1.377 . S
C2448 C2446 1.389 . S
C2448 C2449 1.524 . S
C2448 C2462 1.377 1_545 S
C2449 C2448 1.524 . S
C2449 C2450 1.397 . S
C2449 C2454 1.363 . S
C2450 H2427 0.950 . S
C2450 C2449 1.397 . S
C2450 C2451 1.334 . S
C2451 H2428 0.950 . S
C2451 C2450 1.334 . S
C2451 C2452 1.287 . S
C2452 C2451 1.287 . S
C2452 C2453 1.524 . S
C2452 H2471 0.913 . S
C2453 H2429 0.950 . S
C2453 C2452 1.524 . S
C2453 C2454 1.415 . S
C2454 H2430 0.950 . S
C2454 C2449 1.363 . S
C2454 C2453 1.415 . S
C2455 H2431 0.951 . S
C2455 C2456 1.366 . S
C2455 C2457 1.388 . S
C2456 C2455 1.366 . S
C2456 C2460 1.385 . S
C2457 H2432 0.951 . S
C2457 C2455 1.388 . S
C2457 C2458 1.366 . S
C2458 C2457 1.366 . S
C2458 C2459 1.414 . S
C2458 C2461 1.499 . S
C2459 H2433 0.950 . S
C2459 C2458 1.414 . S
C2459 C2460 1.374 . S
C2460 H2434 0.950 . S
C2460 C2456 1.385 . S
C2460 C2459 1.374 . S
C2461 C2458 1.499 . S
C2461 C2462 1.373 . S
C2461 C2463 1.389 . S
C2462 H2435 0.950 . S
C2462 C2448 1.377 1_565 S
C2462 C2461 1.373 . S
C2463 C2447 1.377 . S
C2463 C2461 1.389 . S
C2463 C2464 1.524 . S
C2464 C2463 1.524 . S
C2464 C2465 1.397 . S
C2464 C2469 1.363 . S
C2465 H2436 0.950 . S
C2465 C2464 1.397 . S
C2465 C2466 1.334 . S
C2466 H2437 0.950 . S
C2466 C2465 1.334 . S
C2466 C2467 1.287 . S
C2467 C2466 1.287 . S
C2467 C2468 1.524 . S
C2467 H2470 0.999 . S
C2468 H2438 0.950 . S
C2468 C2467 1.524 . S
C2468 C2469 1.415 . S
C2469 H2439 0.950 . S
C2469 C2464 1.363 . S
C2469 C2468 1.415 . S
H2470 C2467 0.999 . S
H2471 C2452 0.913 . S
H2472 C2490 0.951 . S
H2473 C2492 0.951 . S
H2474 C2494 0.950 . S
H2475 C2495 0.950 . S
H2476 C2497 0.950 . S
H2477 C2500 0.950 . S
H2478 C2501 0.950 . S
H2479 C2503 0.950 . S
H2480 C2504 0.950 . S
H2481 C2505 0.951 . S
H2482 C2507 0.951 . S
H2483 C2509 0.950 . S
H2484 C2510 0.950 . S
H2485 C2512 0.950 . S
H2486 C2515 0.950 . S
H2487 C2516 0.950 . S
H2488 C2518 0.950 . S
H2489 C2519 0.950 . S
C2490 H2472 0.951 . S
C2490 C2491 1.366 . S
C2490 C2492 1.388 . S
C2491 C2490 1.366 . S
C2491 C2495 1.385 . S
C2492 H2473 0.951 . S
C2492 C2490 1.388 . S
C2492 C2493 1.366 . S
C2493 C2492 1.366 . S
C2493 C2494 1.414 . S
C2493 C2496 1.499 . S
C2494 H2474 0.950 . S
C2494 C2493 1.414 . S
C2494 C2495 1.374 . S
C2495 H2475 0.950 . S
C2495 C2491 1.385 . S
C2495 C2494 1.374 . S
C2496 C2493 1.499 . S
C2496 C2497 1.373 . S
C2496 C2498 1.389 . S
C2497 H2476 0.950 . S
C2497 C2496 1.373 . S
C2497 C2513 1.377 . S
C2498 C2496 1.389 . S
C2498 C2499 1.524 . S
C2498 C2512 1.377 . S
C2499 C2498 1.524 . S
C2499 C2500 1.397 . S
C2499 C2504 1.363 . S
C2500 H2477 0.950 . S
C2500 C2499 1.397 . S
C2500 C2501 1.334 . S
C2501 H2478 0.950 . S
C2501 C2500 1.334 . S
C2501 C2502 1.287 . S
C2502 C2501 1.287 . S
C2502 C2503 1.524 . S
C2502 H2521 0.913 . S
C2503 H2479 0.950 . S
C2503 C2502 1.524 . S
C2503 C2504 1.415 . S
C2504 H2480 0.950 . S
C2504 C2499 1.363 . S
C2504 C2503 1.415 . S
C2505 H2481 0.951 . S
C2505 C2506 1.366 . S
C2505 C2507 1.388 . S
C2506 C2505 1.366 . S
C2506 C2510 1.385 . S
C2507 H2482 0.951 . S
C2507 C2505 1.388 . S
C2507 C2508 1.366 . S
C2508 C2507 1.366 . S
C2508 C2509 1.414 . S
C2508 C2511 1.499 . S
C2509 H2483 0.950 . S
C2509 C2508 1.414 . S
C2509 C2510 1.374 . S
C2510 H2484 0.950 . S
C2510 C2506 1.385 . S
C2510 C2509 1.374 . S
C2511 C2508 1.499 . S
C2511 C2512 1.373 . S
C2511 C2513 1.389 . S
C2512 H2485 0.950 . S
C2512 C2498 1.377 . S
C2512 C2511 1.373 . S
C2513 C2497 1.377 . S
C2513 C2511 1.389 . S
C2513 C2514 1.524 . S
C2514 C2513 1.524 . S
C2514 C2515 1.397 . S
C2514 C2519 1.363 . S
C2515 H2486 0.950 . S
C2515 C2514 1.397 . S
C2515 C2516 1.334 . S
C2516 H2487 0.950 . S
C2516 C2515 1.334 . S
C2516 C2517 1.287 . S
C2517 C2516 1.287 . S
C2517 C2518 1.524 . S
C2517 H2520 0.999 . S
C2518 H2488 0.950 . S
C2518 C2517 1.524 . S
C2518 C2519 1.415 . S
C2519 H2489 0.950 . S
C2519 C2514 1.363 . S
C2519 C2518 1.415 . S
H2520 C2517 0.999 . S
H2521 C2502 0.913 . S
H2522 C2540 0.951 . S
H2523 C2542 0.951 . S
H2524 C2544 0.950 . S
H2525 C2545 0.950 . S
H2526 C2547 0.950 . S
H2527 C2550 0.950 . S
H2528 C2551 0.950 . S
H2529 C2553 0.950 . S
H2530 C2554 0.950 1_545 S
H2531 C2555 0.951 . S
H2532 C2557 0.951 . S
H2533 C2559 0.950 . S
H2534 C2560 0.950 . S
H2535 C2562 0.950 . S
H2536 C2565 0.950 . S
H2537 C2566 0.950 . S
H2538 C2568 0.950 . S
H2539 C2569 0.950 . S
C2540 H2522 0.951 . S
C2540 C2541 1.366 . S
C2540 C2542 1.388 . S
C2541 C2540 1.366 . S
C2541 C2545 1.385 . S
C2542 H2523 0.951 . S
C2542 C2540 1.388 . S
C2542 C2543 1.366 . S
C2543 C2542 1.366 . S
C2543 C2544 1.414 . S
C2543 C2546 1.499 . S
C2544 H2524 0.950 . S
C2544 C2543 1.414 . S
C2544 C2545 1.374 . S
C2545 H2525 0.950 . S
C2545 C2541 1.385 . S
C2545 C2544 1.374 . S
C2546 C2543 1.499 . S
C2546 C2547 1.373 1_565 S
C2546 C2548 1.389 . S
C2547 H2526 0.950 . S
C2547 C2546 1.373 1_545 S
C2547 C2563 1.377 . S
C2548 C2546 1.389 . S
C2548 C2549 1.524 . S
C2548 C2562 1.377 1_565 S
C2549 C2548 1.524 . S
C2549 C2550 1.397 . S
C2549 C2554 1.363 . S
C2550 H2527 0.950 . S
C2550 C2549 1.397 . S
C2550 C2551 1.334 . S
C2551 H2528 0.950 . S
C2551 C2550 1.334 . S
C2551 C2552 1.287 . S
C2552 C2551 1.287 . S
C2552 C2553 1.524 . S
C2552 H2571 0.913 . S
C2553 H2529 0.950 . S
C2553 C2552 1.524 . S
C2553 C2554 1.415 . S
C2554 H2530 0.950 1_565 S
C2554 C2549 1.363 . S
C2554 C2553 1.415 . S
C2555 H2531 0.951 . S
C2555 C2556 1.366 . S
C2555 C2557 1.388 . S
C2556 C2555 1.366 . S
C2556 C2560 1.385 . S
C2557 H2532 0.951 . S
C2557 C2555 1.388 . S
C2557 C2558 1.366 . S
C2558 C2557 1.366 . S
C2558 C2559 1.414 . S
C2558 C2561 1.499 . S
C2559 H2533 0.950 . S
C2559 C2558 1.414 . S
C2559 C2560 1.374 . S
C2560 H2534 0.950 . S
C2560 C2556 1.385 . S
C2560 C2559 1.374 . S
C2561 C2558 1.499 . S
C2561 C2562 1.373 . S
C2561 C2563 1.389 . S
C2562 H2535 0.950 . S
C2562 C2548 1.377 1_545 S
C2562 C2561 1.373 . S
C2563 C2547 1.377 . S
C2563 C2561 1.389 . S
C2563 C2564 1.524 . S
C2564 C2563 1.524 . S
C2564 C2565 1.397 . S
C2564 C2569 1.363 . S
C2565 H2536 0.950 . S
C2565 C2564 1.397 . S
C2565 C2566 1.334 . S
C2566 H2537 0.950 . S
C2566 C2565 1.334 . S
C2566 C2567 1.287 . S
C2567 C2566 1.287 . S
C2567 C2568 1.524 . S
C2567 H2570 0.999 . S
C2568 H2538 0.950 . S
C2568 C2567 1.524 . S
C2568 C2569 1.415 . S
C2569 H2539 0.950 . S
C2569 C2564 1.363 . S
C2569 C2568 1.415 . S
H2570 C2567 0.999 . S
H2571 C2552 0.913 . S
H2572 C2590 0.951 . S
H2573 C2592 0.951 . S
H2574 C2594 0.950 . S
H2575 C2595 0.950 . S
H2576 C2597 0.950 . S
H2577 C2600 0.950 . S
H2578 C2601 0.950 . S
H2579 C2603 0.950 . S
H2580 C2604 0.950 . S
H2581 C2605 0.951 . S
H2582 C2607 0.951 . S
H2583 C2609 0.950 . S
H2584 C2610 0.950 . S
H2585 C2612 0.950 . S
H2586 C2615 0.950 . S
H2587 C2616 0.950 . S
H2588 C2618 0.950 . S
H2589 C2619 0.950 . S
C2590 H2572 0.951 . S
C2590 C2591 1.366 . S
C2590 C2592 1.388 . S
C2591 C2590 1.366 . S
C2591 C2595 1.385 . S
C2592 H2573 0.951 . S
C2592 C2590 1.388 . S
C2592 C2593 1.366 . S
C2593 C2592 1.366 . S
C2593 C2594 1.414 . S
C2593 C2596 1.499 . S
C2594 H2574 0.950 . S
C2594 C2593 1.414 . S
C2594 C2595 1.374 . S
C2595 H2575 0.950 . S
C2595 C2591 1.385 . S
C2595 C2594 1.374 . S
C2596 C2593 1.499 . S
C2596 C2597 1.373 . S
C2596 C2598 1.389 . S
C2597 H2576 0.950 . S
C2597 C2596 1.373 . S
C2597 C2613 1.377 . S
C2598 C2596 1.389 . S
C2598 C2599 1.524 . S
C2598 C2612 1.377 . S
C2599 C2598 1.524 . S
C2599 C2600 1.397 . S
C2599 C2604 1.363 . S
C2600 H2577 0.950 . S
C2600 C2599 1.397 . S
C2600 C2601 1.334 . S
C2601 H2578 0.950 . S
C2601 C2600 1.334 . S
C2601 C2602 1.287 . S
C2602 C2601 1.287 . S
C2602 C2603 1.524 . S
C2602 H2621 0.913 . S
C2603 H2579 0.950 . S
C2603 C2602 1.524 . S
C2603 C2604 1.415 . S
C2604 H2580 0.950 . S
C2604 C2599 1.363 . S
C2604 C2603 1.415 . S
C2605 H2581 0.951 . S
C2605 C2606 1.366 . S
C2605 C2607 1.388 . S
C2606 C2605 1.366 . S
C2606 C2610 1.385 . S
C2607 H2582 0.951 . S
C2607 C2605 1.388 . S
C2607 C2608 1.366 . S
C2608 C2607 1.366 . S
C2608 C2609 1.414 . S
C2608 C2611 1.499 . S
C2609 H2583 0.950 . S
C2609 C2608 1.414 . S
C2609 C2610 1.374 . S
C2610 H2584 0.950 . S
C2610 C2606 1.385 . S
C2610 C2609 1.374 . S
C2611 C2608 1.499 . S
C2611 C2612 1.373 . S
C2611 C2613 1.389 . S
C2612 H2585 0.950 . S
C2612 C2598 1.377 . S
C2612 C2611 1.373 . S
C2613 C2597 1.377 . S
C2613 C2611 1.389 . S
C2613 C2614 1.524 . S
C2614 C2613 1.524 . S
C2614 C2615 1.397 . S
C2614 C2619 1.363 . S
C2615 H2586 0.950 . S
C2615 C2614 1.397 . S
C2615 C2616 1.334 . S
C2616 H2587 0.950 . S
C2616 C2615 1.334 . S
C2616 C2617 1.287 . S
C2617 C2616 1.287 . S
C2617 C2618 1.524 . S
C2617 H2620 0.999 . S
C2618 H2588 0.950 . S
C2618 C2617 1.524 . S
C2618 C2619 1.415 . S
C2619 H2589 0.950 . S
C2619 C2614 1.363 . S
C2619 C2618 1.415 . S
H2620 C2617 0.999 . S
H2621 C2602 0.913 . S
H2622 C2640 0.951 . S
H2623 C2642 0.951 . S
H2624 C2644 0.950 . S
H2625 C2645 0.950 . S
H2626 C2647 0.950 . S
H2627 C2650 0.950 . S
H2628 C2651 0.950 . S
H2629 C2653 0.950 . S
H2630 C2654 0.950 . S
H2631 C2655 0.951 . S
H2632 C2657 0.951 . S
H2633 C2659 0.950 . S
H2634 C2660 0.950 1_655 S
H2635 C2662 0.950 . S
H2636 C2665 0.950 1_655 S
H2637 C2666 0.950 . S
H2638 C2668 0.950 . S
H2639 C2669 0.950 . S
C2640 H2622 0.951 . S
C2640 C2641 1.366 . S
C2640 C2642 1.388 . S
C2641 C2640 1.366 . S
C2641 C2645 1.385 . S
C2642 H2623 0.951 . S
C2642 C2640 1.388 . S
C2642 C2643 1.366 . S
C2643 C2642 1.366 . S
C2643 C2644 1.414 . S
C2643 C2646 1.499 . S
C2644 H2624 0.950 . S
C2644 C2643 1.414 . S
C2644 C2645 1.374 . S
C2645 H2625 0.950 . S
C2645 C2641 1.385 . S
C2645 C2644 1.374 . S
C2646 C2643 1.499 . S
C2646 C2647 1.373 . S
C2646 C2648 1.389 . S
C2647 H2626 0.950 . S
C2647 C2646 1.373 . S
C2647 C2663 1.377 1_565 S
C2648 C2646 1.389 . S
C2648 C2649 1.524 . S
C2648 C2662 1.377 . S
C2649 C2648 1.524 . S
C2649 C2650 1.397 . S
C2649 C2654 1.363 . S
C2650 H2627 0.950 . S
C2650 C2649 1.397 . S
C2650 C2651 1.334 . S
C2651 H2628 0.950 . S
C2651 C2650 1.334 . S
C2651 C2652 1.287 . S
C2652 C2651 1.287 . S
C2652 C2653 1.524 . S
C2652 H2671 0.913 . S
C2653 H2629 0.950 . S
C2653 C2652 1.524 . S
C2653 C2654 1.415 . S
C2654 H2630 0.950 . S
C2654 C2649 1.363 . S
C2654 C2653 1.415 . S
C2655 H2631 0.951 . S
C2655 C2656 1.366 . S
C2655 C2657 1.388 . S
C2656 C2655 1.366 . S
C2656 C2660 1.385 . S
C2657 H2632 0.951 . S
C2657 C2655 1.388 . S
C2657 C2658 1.366 . S
C2658 C2657 1.366 . S
C2658 C2659 1.414 . S
C2658 C2661 1.499 . S
C2659 H2633 0.950 . S
C2659 C2658 1.414 . S
C2659 C2660 1.374 . S
C2660 H2634 0.950 1_455 S
C2660 C2656 1.385 . S
C2660 C2659 1.374 . S
C2661 C2658 1.499 . S
C2661 C2662 1.373 1_545 S
C2661 C2663 1.389 . S
C2662 H2635 0.950 . S
C2662 C2648 1.377 . S
C2662 C2661 1.373 1_565 S
C2663 C2647 1.377 1_545 S
C2663 C2661 1.389 . S
C2663 C2664 1.524 . S
C2664 C2663 1.524 . S
C2664 C2665 1.397 . S
C2664 C2669 1.363 . S
C2665 H2636 0.950 1_455 S
C2665 C2664 1.397 . S
C2665 C2666 1.334 1_455 S
C2666 H2637 0.950 . S
C2666 C2665 1.334 1_655 S
C2666 C2667 1.287 . S
C2667 C2666 1.287 . S
C2667 C2668 1.524 1_655 S
C2667 H2670 0.999 . S
C2668 H2638 0.950 . S
C2668 C2667 1.524 1_455 S
C2668 C2669 1.415 . S
C2669 H2639 0.950 . S
C2669 C2664 1.363 . S
C2669 C2668 1.415 . S
H2670 C2667 0.999 . S
H2671 C2652 0.913 . S
H2672 C2690 0.951 . S
H2673 C2692 0.951 . S
H2674 C2694 0.950 . S
H2675 C2695 0.950 . S
H2676 C2697 0.950 . S
H2677 C2700 0.950 . S
H2678 C2701 0.950 . S
H2679 C2703 0.950 . S
H2680 C2704 0.950 . S
H2681 C2705 0.951 . S
H2682 C2707 0.951 . S
H2683 C2709 0.950 . S
H2684 C2710 0.950 . S
H2685 C2712 0.950 . S
H2686 C2715 0.950 . S
H2687 C2716 0.950 . S
H2688 C2718 0.950 . S
H2689 C2719 0.950 . S
C2690 H2672 0.951 . S
C2690 C2691 1.366 . S
C2690 C2692 1.388 . S
C2691 C2690 1.366 . S
C2691 C2695 1.385 . S
C2692 H2673 0.951 . S
C2692 C2690 1.388 . S
C2692 C2693 1.366 . S
C2693 C2692 1.366 . S
C2693 C2694 1.414 . S
C2693 C2696 1.499 . S
C2694 H2674 0.950 . S
C2694 C2693 1.414 . S
C2694 C2695 1.374 . S
C2695 H2675 0.950 . S
C2695 C2691 1.385 . S
C2695 C2694 1.374 . S
C2696 C2693 1.499 . S
C2696 C2697 1.373 . S
C2696 C2698 1.389 . S
C2697 H2676 0.950 . S
C2697 C2696 1.373 . S
C2697 C2713 1.377 . S
C2698 C2696 1.389 . S
C2698 C2699 1.524 . S
C2698 C2712 1.377 . S
C2699 C2698 1.524 . S
C2699 C2700 1.397 . S
C2699 C2704 1.363 . S
C2700 H2677 0.950 . S
C2700 C2699 1.397 . S
C2700 C2701 1.334 . S
C2701 H2678 0.950 . S
C2701 C2700 1.334 . S
C2701 C2702 1.287 . S
C2702 C2701 1.287 . S
C2702 C2703 1.524 . S
C2702 H2721 0.913 . S
C2703 H2679 0.950 . S
C2703 C2702 1.524 . S
C2703 C2704 1.415 . S
C2704 H2680 0.950 . S
C2704 C2699 1.363 . S
C2704 C2703 1.415 . S
C2705 H2681 0.951 . S
C2705 C2706 1.366 . S
C2705 C2707 1.388 . S
C2706 C2705 1.366 . S
C2706 C2710 1.385 . S
C2707 H2682 0.951 . S
C2707 C2705 1.388 . S
C2707 C2708 1.366 . S
C2708 C2707 1.366 . S
C2708 C2709 1.414 . S
C2708 C2711 1.499 . S
C2709 H2683 0.950 . S
C2709 C2708 1.414 . S
C2709 C2710 1.374 . S
C2710 H2684 0.950 . S
C2710 C2706 1.385 . S
C2710 C2709 1.374 . S
C2711 C2708 1.499 . S
C2711 C2712 1.373 . S
C2711 C2713 1.389 . S
C2712 H2685 0.950 . S
C2712 C2698 1.377 . S
C2712 C2711 1.373 . S
C2713 C2697 1.377 . S
C2713 C2711 1.389 . S
C2713 C2714 1.524 . S
C2714 C2713 1.524 . S
C2714 C2715 1.397 . S
C2714 C2719 1.363 . S
C2715 H2686 0.950 . S
C2715 C2714 1.397 . S
C2715 C2716 1.334 . S
C2716 H2687 0.950 . S
C2716 C2715 1.334 . S
C2716 C2717 1.287 . S
C2717 C2716 1.287 . S
C2717 C2718 1.524 . S
C2717 H2720 0.999 . S
C2718 H2688 0.950 . S
C2718 C2717 1.524 . S
C2718 C2719 1.415 . S
C2719 H2689 0.950 . S
C2719 C2714 1.363 . S
C2719 C2718 1.415 . S
H2720 C2717 0.999 . S
H2721 C2702 0.913 . S
H2722 C2740 0.951 . S
H2723 C2742 0.951 . S
H2724 C2744 0.950 . S
H2725 C2745 0.950 . S
H2726 C2747 0.950 . S
H2727 C2750 0.950 . S
H2728 C2751 0.950 . S
H2729 C2753 0.950 . S
H2730 C2754 0.950 . S
H2731 C2755 0.951 . S
H2732 C2757 0.951 . S
H2733 C2759 0.950 . S
H2734 C2760 0.950 . S
H2735 C2762 0.950 . S
H2736 C2765 0.950 . S
H2737 C2766 0.950 . S
H2738 C2768 0.950 . S
H2739 C2769 0.950 . S
C2740 H2722 0.951 . S
C2740 C2741 1.366 . S
C2740 C2742 1.388 . S
C2741 C2740 1.366 . S
C2741 C2745 1.385 . S
C2742 H2723 0.951 . S
C2742 C2740 1.388 . S
C2742 C2743 1.366 . S
C2743 C2742 1.366 . S
C2743 C2744 1.414 . S
C2743 C2746 1.499 . S
C2744 H2724 0.950 . S
C2744 C2743 1.414 . S
C2744 C2745 1.374 . S
C2745 H2725 0.950 . S
C2745 C2741 1.385 . S
C2745 C2744 1.374 . S
C2746 C2743 1.499 . S
C2746 C2747 1.373 . S
C2746 C2748 1.389 . S
C2747 H2726 0.950 . S
C2747 C2746 1.373 . S
C2747 C2763 1.377 . S
C2748 C2746 1.389 . S
C2748 C2749 1.524 . S
C2748 C2762 1.377 . S
C2749 C2748 1.524 . S
C2749 C2750 1.397 . S
C2749 C2754 1.363 . S
C2750 H2727 0.950 . S
C2750 C2749 1.397 . S
C2750 C2751 1.334 . S
C2751 H2728 0.950 . S
C2751 C2750 1.334 . S
C2751 C2752 1.287 . S
C2752 C2751 1.287 . S
C2752 C2753 1.524 . S
C2752 H2771 0.913 . S
C2753 H2729 0.950 . S
C2753 C2752 1.524 . S
C2753 C2754 1.415 . S
C2754 H2730 0.950 . S
C2754 C2749 1.363 . S
C2754 C2753 1.415 . S
C2755 H2731 0.951 . S
C2755 C2756 1.366 . S
C2755 C2757 1.388 . S
C2756 C2755 1.366 . S
C2756 C2760 1.385 . S
C2757 H2732 0.951 . S
C2757 C2755 1.388 . S
C2757 C2758 1.366 . S
C2758 C2757 1.366 . S
C2758 C2759 1.414 . S
C2758 C2761 1.499 . S
C2759 H2733 0.950 . S
C2759 C2758 1.414 . S
C2759 C2760 1.374 . S
C2760 H2734 0.950 . S
C2760 C2756 1.385 . S
C2760 C2759 1.374 . S
C2761 C2758 1.499 . S
C2761 C2762 1.373 . S
C2761 C2763 1.389 . S
C2762 H2735 0.950 . S
C2762 C2748 1.377 . S
C2762 C2761 1.373 . S
C2763 C2747 1.377 . S
C2763 C2761 1.389 . S
C2763 C2764 1.524 . S
C2764 C2763 1.524 . S
C2764 C2765 1.397 . S
C2764 C2769 1.363 . S
C2765 H2736 0.950 . S
C2765 C2764 1.397 . S
C2765 C2766 1.334 . S
C2766 H2737 0.950 . S
C2766 C2765 1.334 . S
C2766 C2767 1.287 . S
C2767 C2766 1.287 . S
C2767 C2768 1.524 . S
C2767 H2770 0.999 . S
C2768 H2738 0.950 . S
C2768 C2767 1.524 . S
C2768 C2769 1.415 . S
C2769 H2739 0.950 . S
C2769 C2764 1.363 . S
C2769 C2768 1.415 . S
H2770 C2767 0.999 . S
H2771 C2752 0.913 . S
H2772 C2790 0.951 . S
H2773 C2792 0.951 . S
H2774 C2794 0.950 . S
H2775 C2795 0.950 . S
H2776 C2797 0.950 . S
H2777 C2800 0.911 1_554 S
H2778 C2801 0.950 . S
H2779 C2803 0.950 . S
H2780 C2804 0.950 1_554 S
H2781 C2805 0.951 . S
H2782 C2807 0.951 . S
H2783 C2809 0.950 . S
H2784 C2810 0.950 . S
H2785 C2812 0.950 . S
H2786 C2815 0.950 . S
H2787 C2816 0.950 . S
H2788 C2818 0.950 . S
H2789 C2819 0.950 . S
C2790 H2772 0.951 . S
C2790 C2791 1.366 1_556 S
C2790 C2792 1.388 1_556 S
C2791 C2790 1.366 1_554 S
C2791 C2795 1.385 . S
C2792 H2773 0.951 . S
C2792 C2790 1.388 1_554 S
C2792 C2793 1.366 . S
C2793 C2792 1.366 . S
C2793 C2794 1.414 . S
C2793 C2796 1.499 . S
C2794 H2774 0.950 . S
C2794 C2793 1.414 . S
C2794 C2795 1.374 . S
C2795 H2775 0.950 . S
C2795 C2791 1.385 . S
C2795 C2794 1.374 . S
C2796 C2793 1.499 . S
C2796 C2797 1.373 . S
C2796 C2798 1.389 1_655 S
C2797 H2776 0.950 . S
C2797 C2796 1.373 . S
C2797 C2813 1.377 1_655 S
C2798 C2796 1.389 1_455 S
C2798 C2799 1.524 . S
C2798 C2812 1.377 . S
C2799 C2798 1.524 . S
C2799 C2800 1.373 1_454 S
C2799 C2804 1.363 1_554 S
C2800 H2777 0.911 1_556 S
C2800 C2799 1.373 1_656 S
C2800 C2801 1.399 . S
C2801 H2778 0.950 . S
C2801 C2800 1.399 . S
C2801 C2802 1.287 1_655 S
C2802 C2801 1.287 1_455 S
C2802 C2803 1.524 . S
C2802 H2821 0.913 . S
C2803 H2779 0.950 . S
C2803 C2802 1.524 . S
C2803 C2804 1.415 . S
C2804 H2780 0.950 1_556 S
C2804 C2799 1.363 1_556 S
C2804 C2803 1.415 . S
C2805 H2781 0.951 . S
C2805 C2806 1.366 . S
C2805 C2807 1.388 . S
C2806 C2805 1.366 . S
C2806 C2810 1.385 . S
C2807 H2782 0.951 . S
C2807 C2805 1.388 . S
C2807 C2808 1.366 . S
C2808 C2807 1.366 . S
C2808 C2809 1.414 . S
C2808 C2811 1.499 . S
C2809 H2783 0.950 . S
C2809 C2808 1.414 . S
C2809 C2810 1.374 . S
C2810 H2784 0.950 . S
C2810 C2806 1.385 . S
C2810 C2809 1.374 . S
C2811 C2808 1.499 . S
C2811 C2812 1.373 . S
C2811 C2813 1.389 . S
C2812 H2785 0.950 . S
C2812 C2798 1.377 . S
C2812 C2811 1.373 . S
C2813 C2797 1.377 1_455 S
C2813 C2811 1.389 . S
C2813 C2814 1.524 . S
C2814 C2813 1.524 . S
C2814 C2815 1.397 . S
C2814 C2819 1.363 1_455 S
C2815 H2786 0.950 . S
C2815 C2814 1.397 . S
C2815 C2816 1.334 . S
C2816 H2787 0.950 . S
C2816 C2815 1.334 . S
C2816 C2817 1.287 . S
C2817 C2816 1.287 . S
C2817 C2818 1.524 1_455 S
C2817 H2820 0.999 . S
C2818 H2788 0.950 . S
C2818 C2817 1.524 1_655 S
C2818 C2819 1.415 . S
C2819 H2789 0.950 . S
C2819 C2814 1.363 1_655 S
C2819 C2818 1.415 . S
H2820 C2817 0.999 . S
H2821 C2802 0.913 . S
H2822 C2840 0.951 . S
H2823 C2842 0.951 . S
H2824 C2844 0.950 . S
H2825 C2845 0.950 . S
H2826 C2847 0.950 . S
H2827 C2850 0.950 . S
H2828 C2851 0.950 . S
H2829 C2853 0.950 . S
H2830 C2854 0.950 . S
H2831 C2855 0.951 . S
H2832 C2857 0.951 . S
H2833 C2859 0.950 . S
H2834 C2860 0.950 . S
H2835 C2862 0.950 . S
H2836 C2865 0.950 . S
H2837 C2866 0.950 . S
H2838 C2868 0.950 . S
H2839 C2869 0.950 . S
C2840 H2822 0.951 . S
C2840 C2841 1.366 . S
C2840 C2842 1.388 . S
C2841 C2840 1.366 . S
C2841 C2845 1.385 . S
C2842 H2823 0.951 . S
C2842 C2840 1.388 . S
C2842 C2843 1.366 . S
C2843 C2842 1.366 . S
C2843 C2844 1.414 . S
C2843 C2846 1.499 . S
C2844 H2824 0.950 . S
C2844 C2843 1.414 . S
C2844 C2845 1.374 . S
C2845 H2825 0.950 . S
C2845 C2841 1.385 . S
C2845 C2844 1.374 . S
C2846 C2843 1.499 . S
C2846 C2847 1.373 . S
C2846 C2848 1.389 . S
C2847 H2826 0.950 . S
C2847 C2846 1.373 . S
C2847 C2863 1.377 . S
C2848 C2846 1.389 . S
C2848 C2849 1.524 . S
C2848 C2862 1.377 . S
C2849 C2848 1.524 . S
C2849 C2850 1.397 . S
C2849 C2854 1.363 . S
C2850 H2827 0.950 . S
C2850 C2849 1.397 . S
C2850 C2851 1.334 . S
C2851 H2828 0.950 . S
C2851 C2850 1.334 . S
C2851 C2852 1.287 . S
C2852 C2851 1.287 . S
C2852 C2853 1.524 . S
C2852 H2871 0.913 . S
C2853 H2829 0.950 . S
C2853 C2852 1.524 . S
C2853 C2854 1.415 . S
C2854 H2830 0.950 . S
C2854 C2849 1.363 . S
C2854 C2853 1.415 . S
C2855 H2831 0.951 . S
C2855 C2856 1.366 . S
C2855 C2857 1.388 . S
C2856 C2855 1.366 . S
C2856 C2860 1.385 . S
C2857 H2832 0.951 . S
C2857 C2855 1.388 . S
C2857 C2858 1.366 . S
C2858 C2857 1.366 . S
C2858 C2859 1.414 . S
C2858 C2861 1.499 . S
C2859 H2833 0.950 . S
C2859 C2858 1.414 . S
C2859 C2860 1.374 . S
C2860 H2834 0.950 . S
C2860 C2856 1.385 . S
C2860 C2859 1.374 . S
C2861 C2858 1.499 . S
C2861 C2862 1.373 . S
C2861 C2863 1.389 . S
C2862 H2835 0.950 . S
C2862 C2848 1.377 . S
C2862 C2861 1.373 . S
C2863 C2847 1.377 . S
C2863 C2861 1.389 . S
C2863 C2864 1.524 . S
C2864 C2863 1.524 . S
C2864 C2865 1.397 . S
C2864 C2869 1.363 . S
C2865 H2836 0.950 . S
C2865 C2864 1.397 . S
C2865 C2866 1.334 . S
C2866 H2837 0.950 . S
C2866 C2865 1.334 . S
C2866 C2867 1.287 . S
C2867 C2866 1.287 . S
C2867 C2868 1.524 . S
C2867 H2870 0.999 . S
C2868 H2838 0.950 . S
C2868 C2867 1.524 . S
C2868 C2869 1.415 . S
C2869 H2839 0.950 . S
C2869 C2864 1.363 . S
C2869 C2868 1.415 . S
H2870 C2867 0.999 . S
H2871 C2852 0.913 . S
H2872 C2890 0.951 . S
H2873 C2892 0.951 1_556 S
H2874 C2894 0.950 . S
H2875 C2895 0.950 . S
H2876 C2897 0.944 1_455 S
H2877 C2900 0.950 . S
H2878 C2901 0.950 . S
H2879 C2903 0.950 . S
H2880 C2904 0.981 . S
H2881 C2905 0.951 . S
H2882 C2907 0.951 . S
H2883 C2909 0.950 . S
H2884 C2910 0.950 . S
H2885 C2912 0.950 . S
H2886 C2915 0.950 . S
H2887 C2916 0.950 . S
H2888 C2918 0.950 . S
H2889 C2919 0.953 1_455 S
C2890 H2872 0.951 . S
C2890 C2891 1.366 1_556 S
C2890 C2892 1.388 1_556 S
C2891 C2890 1.366 1_554 S
C2891 C2895 1.385 . S
C2892 H2873 0.951 1_554 S
C2892 C2890 1.388 1_554 S
C2892 C2893 1.366 . S
C2893 C2892 1.366 . S
C2893 C2894 1.414 . S
C2893 C2896 1.499 . S
C2894 H2874 0.950 . S
C2894 C2893 1.414 . S
C2894 C2895 1.374 . S
C2895 H2875 0.950 . S
C2895 C2891 1.385 . S
C2895 C2894 1.374 . S
C2896 C2893 1.499 . S
C2896 C2897 1.366 1_455 S
C2896 C2898 1.389 . S
C2897 H2876 0.944 1_655 S
C2897 C2896 1.366 1_655 S
C2897 C2913 1.390 . S
C2898 C2896 1.389 . S
C2898 C2899 1.524 . S
C2898 C2912 1.377 1_455 S
C2899 C2898 1.524 . S
C2899 C2900 1.397 . S
C2899 C2904 1.346 1_455 S
C2900 H2877 0.950 . S
C2900 C2899 1.397 . S
C2900 C2901 1.334 . S
C2901 H2878 0.950 . S
C2901 C2900 1.334 . S
C2901 C2902 1.287 1_554 S
C2902 C2901 1.287 1_556 S
C2902 C2903 1.524 . S
C2902 H2921 0.913 . S
C2903 H2879 0.950 . S
C2903 C2902 1.524 . S
C2903 C2904 1.402 1_456 S
C2904 H2880 0.981 . S
C2904 C2899 1.346 1_655 S
C2904 C2903 1.402 1_654 S
C2905 H2881 0.951 . S
C2905 C2906 1.366 . S
C2905 C2907 1.388 . S
C2906 C2905 1.366 . S
C2906 C2910 1.385 . S
C2907 H2882 0.951 . S
C2907 C2905 1.388 . S
C2907 C2908 1.366 . S
C2908 C2907 1.366 . S
C2908 C2909 1.414 . S
C2908 C2911 1.499 . S
C2909 H2883 0.950 . S
C2909 C2908 1.414 . S
C2909 C2910 1.374 . S
C2910 H2884 0.950 . S
C2910 C2906 1.385 . S
C2910 C2909 1.374 . S
C2911 C2908 1.499 . S
C2911 C2912 1.373 . S
C2911 C2913 1.389 . S
C2912 H2885 0.950 . S
C2912 C2898 1.377 1_655 S
C2912 C2911 1.373 . S
C2913 C2897 1.390 . S
C2913 C2911 1.389 . S
C2913 C2914 1.524 . S
C2914 C2913 1.524 . S
C2914 C2915 1.397 . S
C2914 C2919 1.363 . S
C2915 H2886 0.950 . S
C2915 C2914 1.397 . S
C2915 C2916 1.334 . S
C2916 H2887 0.950 . S
C2916 C2915 1.334 . S
C2916 C2917 1.287 . S
C2917 C2916 1.287 . S
C2917 C2918 1.524 . S
C2917 H2920 0.999 . S
C2918 H2888 0.950 . S
C2918 C2917 1.524 . S
C2918 C2919 1.415 . S
C2919 H2889 0.953 1_655 S
C2919 C2914 1.363 . S
C2919 C2918 1.415 . S
H2920 C2917 0.999 . S
H2921 C2902 0.913 . S
H2922 C2940 0.951 . S
H2923 C2942 0.951 . S
H2924 C2944 0.950 . S
H2925 C2945 0.950 . S
H2926 C2947 0.950 . S
H2927 C2950 0.950 . S
H2928 C2951 0.950 . S
H2929 C2953 0.950 . S
H2930 C2954 0.950 . S
H2931 C2955 0.951 . S
H2932 C2957 0.951 . S
H2933 C2959 0.950 . S
H2934 C2960 0.950 . S
H2935 C2962 0.950 . S
H2936 C2965 0.950 . S
H2937 C2966 0.950 . S
H2938 C2968 0.950 . S
H2939 C2969 0.950 . S
C2940 H2922 0.951 . S
C2940 C2941 1.366 . S
C2940 C2942 1.388 . S
C2941 C2940 1.366 . S
C2941 C2945 1.385 . S
C2942 H2923 0.951 . S
C2942 C2940 1.388 . S
C2942 C2943 1.366 . S
C2943 C2942 1.366 . S
C2943 C2944 1.414 . S
C2943 C2946 1.499 . S
C2944 H2924 0.950 . S
C2944 C2943 1.414 . S
C2944 C2945 1.374 . S
C2945 H2925 0.950 . S
C2945 C2941 1.385 . S
C2945 C2944 1.374 . S
C2946 C2943 1.499 . S
C2946 C2947 1.373 . S
C2946 C2948 1.389 . S
C2947 H2926 0.950 . S
C2947 C2946 1.373 . S
C2947 C2963 1.377 . S
C2948 C2946 1.389 . S
C2948 C2949 1.524 . S
C2948 C2962 1.377 . S
C2949 C2948 1.524 . S
C2949 C2950 1.397 . S
C2949 C2954 1.363 . S
C2950 H2927 0.950 . S
C2950 C2949 1.397 . S
C2950 C2951 1.334 . S
C2951 H2928 0.950 . S
C2951 C2950 1.334 . S
C2951 C2952 1.287 . S
C2952 C2951 1.287 . S
C2952 C2953 1.524 . S
C2952 H2971 0.913 . S
C2953 H2929 0.950 . S
C2953 C2952 1.524 . S
C2953 C2954 1.415 . S
C2954 H2930 0.950 . S
C2954 C2949 1.363 . S
C2954 C2953 1.415 . S
C2955 H2931 0.951 . S
C2955 C2956 1.366 . S
C2955 C2957 1.388 . S
C2956 C2955 1.366 . S
C2956 C2960 1.385 . S
C2957 H2932 0.951 . S
C2957 C2955 1.388 . S
C2957 C2958 1.366 . S
C2958 C2957 1.366 . S
C2958 C2959 1.414 . S
C2958 C2961 1.499 . S
C2959 H2933 0.950 . S
C2959 C2958 1.414 . S
C2959 C2960 1.374 . S
C2960 H2934 0.950 . S
C2960 C2956 1.385 . S
C2960 C2959 1.374 . S
C2961 C2958 1.499 . S
C2961 C2962 1.373 . S
C2961 C2963 1.389 . S
C2962 H2935 0.950 . S
C2962 C2948 1.377 . S
C2962 C2961 1.373 . S
C2963 C2947 1.377 . S
C2963 C2961 1.389 . S
C2963 C2964 1.524 . S
C2964 C2963 1.524 . S
C2964 C2965 1.397 . S
C2964 C2969 1.363 . S
C2965 H2936 0.950 . S
C2965 C2964 1.397 . S
C2965 C2966 1.334 . S
C2966 H2937 0.950 . S
C2966 C2965 1.334 . S
C2966 C2967 1.287 . S
C2967 C2966 1.287 . S
C2967 C2968 1.524 . S
C2967 H2970 0.999 . S
C2968 H2938 0.950 . S
C2968 C2967 1.524 . S
C2968 C2969 1.415 . S
C2969 H2939 0.950 . S
C2969 C2964 1.363 . S
C2969 C2968 1.415 . S
H2970 C2967 0.999 . S
H2971 C2952 0.913 . S
H2972 C2990 0.951 . S
H2973 C2992 0.951 . S
H2974 C2994 0.950 . S
H2975 C2995 0.950 . S
H2976 C2997 0.932 1_655 S
H2977 C3000 0.937 1_455 S
H2978 C3001 0.950 . S
H2979 C3003 0.950 . S
H2980 C3004 0.950 . S
H2981 C3005 0.951 . S
H2982 C3007 0.951 . S
H2983 C3009 0.950 . S
H2984 C3010 0.950 . S
H2985 C3012 0.950 . S
H2986 C3015 0.950 . S
H2987 C3016 0.950 . S
H2988 C3018 0.950 . S
H2989 C3019 0.950 . S
C2990 H2972 0.951 . S
C2990 C2991 1.366 . S
C2990 C2992 1.388 . S
C2991 C2990 1.366 . S
C2991 C2995 1.385 . S
C2992 H2973 0.951 . S
C2992 C2990 1.388 . S
C2992 C2993 1.366 . S
C2993 C2992 1.366 . S
C2993 C2994 1.414 . S
C2993 C2996 1.499 . S
C2994 H2974 0.950 . S
C2994 C2993 1.414 . S
C2994 C2995 1.374 . S
C2995 H2975 0.950 . S
C2995 C2991 1.385 . S
C2995 C2994 1.374 . S
C2996 C2993 1.499 . S
C2996 C2997 1.353 1_655 S
C2996 C2998 1.389 1_655 S
C2997 H2976 0.932 1_455 S
C2997 C2996 1.353 1_455 S
C2997 C3013 1.419 . S
C2998 C2996 1.389 1_455 S
C2998 C2999 1.524 1_455 S
C2998 C3012 1.377 . S
C2999 C2998 1.524 1_655 S
C2999 C3000 1.404 . S
C2999 C3004 1.363 . S
C3000 H2977 0.937 1_655 S
C3000 C2999 1.404 . S
C3000 C3001 1.342 . S
C3001 H2978 0.950 . S
C3001 C3000 1.342 . S
C3001 C3002 1.287 . S
C3002 C3001 1.287 . S
C3002 C3003 1.524 . S
C3002 H3021 0.913 . S
C3003 H2979 0.950 . S
C3003 C3002 1.524 . S
C3003 C3004 1.415 . S
C3004 H2980 0.950 . S
C3004 C2999 1.363 . S
C3004 C3003 1.415 . S
C3005 H2981 0.951 . S
C3005 C3006 1.366 . S
C3005 C3007 1.388 . S
C3006 C3005 1.366 . S
C3006 C3010 1.385 . S
C3007 H2982 0.951 . S
C3007 C3005 1.388 . S
C3007 C3008 1.366 . S
C3008 C3007 1.366 . S
C3008 C3009 1.414 . S
C3008 C3011 1.499 . S
C3009 H2983 0.950 . S
C3009 C3008 1.414 . S
C3009 C3010 1.374 . S
C3010 H2984 0.950 . S
C3010 C3006 1.385 . S
C3010 C3009 1.374 . S
C3011 C3008 1.499 . S
C3011 C3012 1.373 . S
C3011 C3013 1.389 . S
C3012 H2985 0.950 . S
C3012 C2998 1.377 . S
C3012 C3011 1.373 . S
C3013 C2997 1.419 . S
C3013 C3011 1.389 . S
C3013 C3014 1.524 . S
C3014 C3013 1.524 . S
C3014 C3015 1.397 . S
C3014 C3019 1.363 . S
C3015 H2986 0.950 . S
C3015 C3014 1.397 . S
C3015 C3016 1.334 . S
C3016 H2987 0.950 . S
C3016 C3015 1.334 . S
C3016 C3017 1.287 . S
C3017 C3016 1.287 . S
C3017 C3018 1.524 . S
C3017 H3020 0.999 . S
C3018 H2988 0.950 . S
C3018 C3017 1.524 . S
C3018 C3019 1.415 . S
C3019 H2989 0.950 . S
C3019 C3014 1.363 . S
C3019 C3018 1.415 . S
H3020 C3017 0.999 . S
H3021 C3002 0.913 . S
H3022 C3040 0.951 . S
H3023 C3042 0.951 . S
H3024 C3044 0.950 . S
H3025 C3045 0.950 . S
H3026 C3047 0.950 . S
H3027 C3050 0.950 . S
H3028 C3051 0.950 . S
H3029 C3053 0.950 . S
H3030 C3054 0.950 . S
H3031 C3055 0.951 1_554 S
H3032 C3057 0.951 . S
H3033 C3059 0.950 . S
H3034 C3060 0.950 . S
H3035 C3062 0.950 . S
H3036 C3065 0.950 . S
H3037 C3066 0.950 . S
H3038 C3068 0.950 . S
H3039 C3069 0.951 1_556 S
C3040 H3022 0.951 . S
C3040 C3041 1.366 . S
C3040 C3042 1.388 . S
C3041 C3040 1.366 . S
C3041 C3045 1.385 . S
C3042 H3023 0.951 . S
C3042 C3040 1.388 . S
C3042 C3043 1.366 . S
C3043 C3042 1.366 . S
C3043 C3044 1.414 . S
C3043 C3046 1.499 . S
C3044 H3024 0.950 . S
C3044 C3043 1.414 . S
C3044 C3045 1.374 . S
C3045 H3025 0.950 . S
C3045 C3041 1.385 . S
C3045 C3044 1.374 . S
C3046 C3043 1.499 . S
C3046 C3047 1.373 . S
C3046 C3048 1.389 . S
C3047 H3026 0.950 . S
C3047 C3046 1.373 . S
C3047 C3063 1.377 . S
C3048 C3046 1.389 . S
C3048 C3049 1.524 . S
C3048 C3062 1.377 . S
C3049 C3048 1.524 . S
C3049 C3050 1.397 . S
C3049 C3054 1.363 . S
C3050 H3027 0.950 . S
C3050 C3049 1.397 . S
C3050 C3051 1.334 . S
C3051 H3028 0.950 . S
C3051 C3050 1.334 . S
C3051 C3052 1.287 . S
C3052 C3051 1.287 . S
C3052 C3053 1.524 . S
C3052 H3071 0.913 . S
C3053 H3029 0.950 . S
C3053 C3052 1.524 . S
C3053 C3054 1.415 . S
C3054 H3030 0.950 . S
C3054 C3049 1.363 . S
C3054 C3053 1.415 . S
C3055 H3031 0.951 1_556 S
C3055 C3056 1.366 . S
C3055 C3057 1.388 . S
C3056 C3055 1.366 . S
C3056 C3060 1.385 . S
C3057 H3032 0.951 . S
C3057 C3055 1.388 . S
C3057 C3058 1.366 . S
C3058 C3057 1.366 . S
C3058 C3059 1.414 . S
C3058 C3061 1.499 . S
C3059 H3033 0.950 . S
C3059 C3058 1.414 . S
C3059 C3060 1.374 . S
C3060 H3034 0.950 . S
C3060 C3056 1.385 . S
C3060 C3059 1.374 . S
C3061 C3058 1.499 . S
C3061 C3062 1.373 . S
C3061 C3063 1.389 . S
C3062 H3035 0.950 . S
C3062 C3048 1.377 . S
C3062 C3061 1.373 . S
C3063 C3047 1.377 . S
C3063 C3061 1.389 . S
C3063 C3064 1.524 . S
C3064 C3063 1.524 . S
C3064 C3065 1.397 1_556 S
C3064 C3069 1.363 1_556 S
C3065 H3036 0.950 . S
C3065 C3064 1.397 1_554 S
C3065 C3066 1.334 . S
C3066 H3037 0.950 . S
C3066 C3065 1.334 . S
C3066 C3067 1.287 . S
C3067 C3066 1.287 . S
C3067 C3068 1.524 . S
C3067 H3070 0.999 . S
C3068 H3038 0.950 . S
C3068 C3067 1.524 . S
C3068 C3069 1.413 . S
C3069 H3039 0.951 1_554 S
C3069 C3064 1.363 1_554 S
C3069 C3068 1.413 . S
H3070 C3067 0.999 . S
H3071 C3052 0.913 . S
H3072 C3090 0.951 . S
H3073 C3092 0.951 . S
H3074 C3094 0.950 . S
H3075 C3095 0.950 . S
H3076 C3097 0.950 . S
H3077 C3100 0.950 . S
H3078 C3101 0.950 . S
H3079 C3103 0.950 . S
H3080 C3104 0.950 . S
H3081 C3105 0.951 . S
H3082 C3107 0.951 . S
H3083 C3109 0.950 . S
H3084 C3110 0.950 . S
H3085 C3112 0.950 . S
H3086 C3115 0.950 . S
H3087 C3116 0.950 . S
H3088 C3118 0.950 . S
H3089 C3119 0.950 . S
C3090 H3072 0.951 . S
C3090 C3091 1.366 . S
C3090 C3092 1.388 . S
C3091 C3090 1.366 . S
C3091 C3095 1.385 . S
C3092 H3073 0.951 . S
C3092 C3090 1.388 . S
C3092 C3093 1.366 . S
C3093 C3092 1.366 . S
C3093 C3094 1.414 . S
C3093 C3096 1.499 . S
C3094 H3074 0.950 . S
C3094 C3093 1.414 . S
C3094 C3095 1.374 . S
C3095 H3075 0.950 . S
C3095 C3091 1.385 . S
C3095 C3094 1.374 . S
C3096 C3093 1.499 . S
C3096 C3097 1.373 . S
C3096 C3098 1.389 . S
C3097 H3076 0.950 . S
C3097 C3096 1.373 . S
C3097 C3113 1.377 . S
C3098 C3096 1.389 . S
C3098 C3099 1.524 . S
C3098 C3112 1.377 . S
C3099 C3098 1.524 . S
C3099 C3100 1.397 . S
C3099 C3104 1.363 . S
C3100 H3077 0.950 . S
C3100 C3099 1.397 . S
C3100 C3101 1.334 . S
C3101 H3078 0.950 . S
C3101 C3100 1.334 . S
C3101 C3102 1.287 . S
C3102 C3101 1.287 . S
C3102 C3103 1.524 . S
C3102 H3121 0.913 . S
C3103 H3079 0.950 . S
C3103 C3102 1.524 . S
C3103 C3104 1.415 . S
C3104 H3080 0.950 . S
C3104 C3099 1.363 . S
C3104 C3103 1.415 . S
C3105 H3081 0.951 . S
C3105 C3106 1.366 . S
C3105 C3107 1.388 . S
C3106 C3105 1.366 . S
C3106 C3110 1.385 . S
C3107 H3082 0.951 . S
C3107 C3105 1.388 . S
C3107 C3108 1.366 . S
C3108 C3107 1.366 . S
C3108 C3109 1.414 . S
C3108 C3111 1.499 . S
C3109 H3083 0.950 . S
C3109 C3108 1.414 . S
C3109 C3110 1.374 . S
C3110 H3084 0.950 . S
C3110 C3106 1.385 . S
C3110 C3109 1.374 . S
C3111 C3108 1.499 . S
C3111 C3112 1.373 . S
C3111 C3113 1.389 . S
C3112 H3085 0.950 . S
C3112 C3098 1.377 . S
C3112 C3111 1.373 . S
C3113 C3097 1.377 . S
C3113 C3111 1.389 . S
C3113 C3114 1.524 . S
C3114 C3113 1.524 . S
C3114 C3115 1.397 . S
C3114 C3119 1.363 . S
C3115 H3086 0.950 . S
C3115 C3114 1.397 . S
C3115 C3116 1.334 . S
C3116 H3087 0.950 . S
C3116 C3115 1.334 . S
C3116 C3117 1.287 . S
C3117 C3116 1.287 . S
C3117 C3118 1.524 . S
C3117 H3120 0.999 . S
C3118 H3088 0.950 . S
C3118 C3117 1.524 . S
C3118 C3119 1.415 . S
C3119 H3089 0.950 . S
C3119 C3114 1.363 . S
C3119 C3118 1.415 . S
H3120 C3117 0.999 . S
H3121 C3102 0.913 . S
H3122 C3140 0.951 . S
H3123 C3142 0.951 . S
H3124 C3144 0.950 . S
H3125 C3145 0.950 . S
H3126 C3147 0.950 . S
H3127 C3150 0.950 . S
H3128 C3151 0.950 . S
H3129 C3153 0.950 . S
H3130 C3154 0.950 1_556 S
H3131 C3155 0.951 . S
H3132 C3157 0.951 . S
H3133 C3159 0.950 . S
H3134 C3160 0.950 . S
H3135 C3162 0.950 1_556 S
H3136 C3165 0.950 . S
H3137 C3166 0.950 . S
H3138 C3168 0.950 1_554 S
H3139 C3169 0.950 . S
C3140 H3122 0.951 . S
C3140 C3141 1.366 . S
C3140 C3142 1.388 . S
C3141 C3140 1.366 . S
C3141 C3145 1.385 . S
C3142 H3123 0.951 . S
C3142 C3140 1.388 . S
C3142 C3143 1.366 . S
C3143 C3142 1.366 . S
C3143 C3144 1.414 . S
C3143 C3146 1.499 . S
C3144 H3124 0.950 . S
C3144 C3143 1.414 . S
C3144 C3145 1.374 . S
C3145 H3125 0.950 . S
C3145 C3141 1.385 . S
C3145 C3144 1.374 . S
C3146 C3143 1.499 . S
C3146 C3147 1.373 . S
C3146 C3148 1.389 . S
C3147 H3126 0.950 . S
C3147 C3146 1.373 . S
C3147 C3163 1.384 . S
C3148 C3146 1.389 . S
C3148 C3149 1.524 . S
C3148 C3162 1.377 . S
C3149 C3148 1.524 . S
C3149 C3150 1.397 . S
C3149 C3154 1.363 . S
C3150 H3127 0.950 . S
C3150 C3149 1.397 . S
C3150 C3151 1.334 . S
C3151 H3128 0.950 . S
C3151 C3150 1.334 . S
C3151 C3152 1.287 . S
C3152 C3151 1.287 . S
C3152 C3153 1.524 . S
C3152 H3171 0.913 . S
C3153 H3129 0.950 . S
C3153 C3152 1.524 . S
C3153 C3154 1.415 . S
C3154 H3130 0.950 1_554 S
C3154 C3149 1.363 . S
C3154 C3153 1.415 . S
C3155 H3131 0.951 . S
C3155 C3156 1.366 . S
C3155 C3157 1.388 . S
C3156 C3155 1.366 . S
C3156 C3160 1.385 . S
C3157 H3132 0.951 . S
C3157 C3155 1.388 . S
C3157 C3158 1.366 . S
C3158 C3157 1.366 . S
C3158 C3159 1.414 . S
C3158 C3161 1.499 . S
C3159 H3133 0.950 . S
C3159 C3158 1.414 . S
C3159 C3160 1.374 . S
C3160 H3134 0.950 . S
C3160 C3156 1.385 . S
C3160 C3159 1.374 . S
C3161 C3158 1.499 . S
C3161 C3162 1.373 1_556 S
C3161 C3163 1.386 1_556 S
C3162 H3135 0.950 1_554 S
C3162 C3148 1.377 . S
C3162 C3161 1.373 1_554 S
C3163 C3147 1.384 . S
C3163 C3161 1.386 1_554 S
C3163 C3164 1.521 1_554 S
C3164 C3163 1.521 1_556 S
C3164 C3165 1.397 . S
C3164 C3169 1.363 1_556 S
C3165 H3136 0.950 . S
C3165 C3164 1.397 . S
C3165 C3166 1.334 . S
C3166 H3137 0.950 . S
C3166 C3165 1.334 . S
C3166 C3167 1.287 . S
C3167 C3166 1.287 . S
C3167 C3168 1.524 . S
C3167 H3170 0.999 . S
C3168 H3138 0.950 1_556 S
C3168 C3167 1.524 . S
C3168 C3169 1.415 1_556 S
C3169 H3139 0.950 . S
C3169 C3164 1.363 1_554 S
C3169 C3168 1.415 1_554 S
H3170 C3167 0.999 . S
H3171 C3152 0.913 . S
H3172 C3190 0.951 . S
H3173 C3192 0.951 . S
H3174 C3194 0.950 . S
H3175 C3195 0.950 . S
H3176 C3197 0.950 . S
H3177 C3200 0.950 . S
H3178 C3201 0.950 . S
H3179 C3203 0.950 . S
H3180 C3204 0.950 . S
H3181 C3205 0.951 . S
H3182 C3207 0.951 . S
H3183 C3209 0.950 . S
H3184 C3210 0.950 . S
H3185 C3212 0.950 . S
H3186 C3215 0.950 . S
H3187 C3216 0.950 . S
H3188 C3218 0.950 . S
H3189 C3219 0.950 . S
C3190 H3172 0.951 . S
C3190 C3191 1.366 . S
C3190 C3192 1.388 . S
C3191 C3190 1.366 . S
C3191 C3195 1.385 . S
C3192 H3173 0.951 . S
C3192 C3190 1.388 . S
C3192 C3193 1.366 . S
C3193 C3192 1.366 . S
C3193 C3194 1.414 . S
C3193 C3196 1.499 . S
C3194 H3174 0.950 . S
C3194 C3193 1.414 . S
C3194 C3195 1.374 . S
C3195 H3175 0.950 . S
C3195 C3191 1.385 . S
C3195 C3194 1.374 . S
C3196 C3193 1.499 . S
C3196 C3197 1.373 . S
C3196 C3198 1.389 . S
C3197 H3176 0.950 . S
C3197 C3196 1.373 . S
C3197 C3213 1.377 . S
C3198 C3196 1.389 . S
C3198 C3199 1.524 . S
C3198 C3212 1.377 . S
C3199 C3198 1.524 . S
C3199 C3200 1.397 . S
C3199 C3204 1.363 . S
C3200 H3177 0.950 . S
C3200 C3199 1.397 . S
C3200 C3201 1.334 . S
C3201 H3178 0.950 . S
C3201 C3200 1.334 . S
C3201 C3202 1.287 . S
C3202 C3201 1.287 . S
C3202 C3203 1.524 . S
C3202 H3221 0.913 . S
C3203 H3179 0.950 . S
C3203 C3202 1.524 . S
C3203 C3204 1.415 . S
C3204 H3180 0.950 . S
C3204 C3199 1.363 . S
C3204 C3203 1.415 . S
C3205 H3181 0.951 . S
C3205 C3206 1.366 . S
C3205 C3207 1.388 . S
C3206 C3205 1.366 . S
C3206 C3210 1.385 . S
C3207 H3182 0.951 . S
C3207 C3205 1.388 . S
C3207 C3208 1.366 . S
C3208 C3207 1.366 . S
C3208 C3209 1.414 . S
C3208 C3211 1.499 . S
C3209 H3183 0.950 . S
C3209 C3208 1.414 . S
C3209 C3210 1.374 . S
C3210 H3184 0.950 . S
C3210 C3206 1.385 . S
C3210 C3209 1.374 . S
C3211 C3208 1.499 . S
C3211 C3212 1.373 . S
C3211 C3213 1.389 . S
C3212 H3185 0.950 . S
C3212 C3198 1.377 . S
C3212 C3211 1.373 . S
C3213 C3197 1.377 . S
C3213 C3211 1.389 . S
C3213 C3214 1.524 . S
C3214 C3213 1.524 . S
C3214 C3215 1.397 . S
C3214 C3219 1.363 . S
C3215 H3186 0.950 . S
C3215 C3214 1.397 . S
C3215 C3216 1.334 . S
C3216 H3187 0.950 . S
C3216 C3215 1.334 . S
C3216 C3217 1.287 . S
C3217 C3216 1.287 . S
C3217 C3218 1.524 . S
C3217 H3220 0.999 . S
C3218 H3188 0.950 . S
C3218 C3217 1.524 . S
C3218 C3219 1.415 . S
C3219 H3189 0.950 . S
C3219 C3214 1.363 . S
C3219 C3218 1.415 . S
H3220 C3217 0.999 . S
H3221 C3202 0.913 . S
H3222 C3240 0.951 . S
H3223 C3242 0.951 . S
H3224 C3244 0.950 . S
H3225 C3245 0.950 . S
H3226 C3247 0.950 . S
H3227 C3250 0.950 . S
H3228 C3251 0.950 . S
H3229 C3253 0.950 . S
H3230 C3254 0.950 . S
H3231 C3255 0.951 . S
H3232 C3257 0.951 . S
H3233 C3259 0.950 . S
H3234 C3260 0.950 . S
H3235 C3262 0.950 . S
H3236 C3265 0.950 . S
H3237 C3266 0.950 . S
H3238 C3268 0.950 . S
H3239 C3269 0.950 . S
C3240 H3222 0.951 . S
C3240 C3241 1.366 . S
C3240 C3242 1.388 . S
C3241 C3240 1.366 . S
C3241 C3245 1.385 . S
C3242 H3223 0.951 . S
C3242 C3240 1.388 . S
C3242 C3243 1.366 . S
C3243 C3242 1.366 . S
C3243 C3244 1.414 . S
C3243 C3246 1.499 . S
C3244 H3224 0.950 . S
C3244 C3243 1.414 . S
C3244 C3245 1.374 . S
C3245 H3225 0.950 . S
C3245 C3241 1.385 . S
C3245 C3244 1.374 . S
C3246 C3243 1.499 . S
C3246 C3247 1.373 . S
C3246 C3248 1.389 . S
C3247 H3226 0.950 . S
C3247 C3246 1.373 . S
C3247 C3263 1.377 . S
C3248 C3246 1.389 . S
C3248 C3249 1.524 . S
C3248 C3262 1.377 . S
C3249 C3248 1.524 . S
C3249 C3250 1.397 . S
C3249 C3254 1.363 . S
C3250 H3227 0.950 . S
C3250 C3249 1.397 . S
C3250 C3251 1.334 . S
C3251 H3228 0.950 . S
C3251 C3250 1.334 . S
C3251 C3252 1.287 . S
C3252 C3251 1.287 . S
C3252 C3253 1.524 . S
C3252 H3271 0.913 . S
C3253 H3229 0.950 . S
C3253 C3252 1.524 . S
C3253 C3254 1.415 . S
C3254 H3230 0.950 . S
C3254 C3249 1.363 . S
C3254 C3253 1.415 . S
C3255 H3231 0.951 . S
C3255 C3256 1.366 . S
C3255 C3257 1.388 . S
C3256 C3255 1.366 . S
C3256 C3260 1.385 . S
C3257 H3232 0.951 . S
C3257 C3255 1.388 . S
C3257 C3258 1.366 . S
C3258 C3257 1.366 . S
C3258 C3259 1.414 . S
C3258 C3261 1.499 . S
C3259 H3233 0.950 . S
C3259 C3258 1.414 . S
C3259 C3260 1.374 . S
C3260 H3234 0.950 . S
C3260 C3256 1.385 . S
C3260 C3259 1.374 . S
C3261 C3258 1.499 . S
C3261 C3262 1.373 . S
C3261 C3263 1.389 . S
C3262 H3235 0.950 . S
C3262 C3248 1.377 . S
C3262 C3261 1.373 . S
C3263 C3247 1.377 . S
C3263 C3261 1.389 . S
C3263 C3264 1.524 . S
C3264 C3263 1.524 . S
C3264 C3265 1.397 . S
C3264 C3269 1.363 . S
C3265 H3236 0.950 . S
C3265 C3264 1.397 . S
C3265 C3266 1.334 . S
C3266 H3237 0.950 . S
C3266 C3265 1.334 . S
C3266 C3267 1.287 . S
C3267 C3266 1.287 . S
C3267 C3268 1.524 . S
C3267 H3270 0.999 . S
C3268 H3238 0.950 . S
C3268 C3267 1.524 . S
C3268 C3269 1.415 . S
C3269 H3239 0.950 . S
C3269 C3264 1.363 . S
C3269 C3268 1.415 . S
H3270 C3267 0.999 . S
H3271 C3252 0.913 . S
H3272 C3290 0.951 . S
H3273 C3292 0.951 . S
H3274 C3294 0.950 . S
H3275 C3295 0.950 . S
H3276 C3297 0.950 . S
H3277 C3300 0.950 . S
H3278 C3301 0.950 . S
H3279 C3303 0.950 . S
H3280 C3304 0.950 . S
H3281 C3305 0.951 . S
H3282 C3307 0.951 . S
H3283 C3309 0.950 . S
H3284 C3310 0.950 . S
H3285 C3312 0.950 . S
H3286 C3315 0.950 . S
H3287 C3316 0.950 . S
H3288 C3318 0.950 . S
H3289 C3319 0.950 . S
C3290 H3272 0.951 . S
C3290 C3291 1.366 . S
C3290 C3292 1.388 . S
C3291 C3290 1.366 . S
C3291 C3295 1.385 . S
C3292 H3273 0.951 . S
C3292 C3290 1.388 . S
C3292 C3293 1.366 . S
C3293 C3292 1.366 . S
C3293 C3294 1.414 . S
C3293 C3296 1.499 . S
C3294 H3274 0.950 . S
C3294 C3293 1.414 . S
C3294 C3295 1.374 . S
C3295 H3275 0.950 . S
C3295 C3291 1.385 . S
C3295 C3294 1.374 . S
C3296 C3293 1.499 . S
C3296 C3297 1.373 . S
C3296 C3298 1.389 . S
C3297 H3276 0.950 . S
C3297 C3296 1.373 . S
C3297 C3313 1.377 . S
C3298 C3296 1.389 . S
C3298 C3299 1.524 . S
C3298 C3312 1.377 . S
C3299 C3298 1.524 . S
C3299 C3300 1.397 . S
C3299 C3304 1.363 . S
C3300 H3277 0.950 . S
C3300 C3299 1.397 . S
C3300 C3301 1.334 . S
C3301 H3278 0.950 . S
C3301 C3300 1.334 . S
C3301 C3302 1.287 . S
C3302 C3301 1.287 . S
C3302 C3303 1.524 . S
C3302 H3321 0.913 . S
C3303 H3279 0.950 . S
C3303 C3302 1.524 . S
C3303 C3304 1.415 . S
C3304 H3280 0.950 . S
C3304 C3299 1.363 . S
C3304 C3303 1.415 . S
C3305 H3281 0.951 . S
C3305 C3306 1.366 . S
C3305 C3307 1.388 . S
C3306 C3305 1.366 . S
C3306 C3310 1.385 . S
C3307 H3282 0.951 . S
C3307 C3305 1.388 . S
C3307 C3308 1.366 . S
C3308 C3307 1.366 . S
C3308 C3309 1.414 . S
C3308 C3311 1.499 . S
C3309 H3283 0.950 . S
C3309 C3308 1.414 . S
C3309 C3310 1.374 . S
C3310 H3284 0.950 . S
C3310 C3306 1.385 . S
C3310 C3309 1.374 . S
C3311 C3308 1.499 . S
C3311 C3312 1.373 . S
C3311 C3313 1.389 . S
C3312 H3285 0.950 . S
C3312 C3298 1.377 . S
C3312 C3311 1.373 . S
C3313 C3297 1.377 . S
C3313 C3311 1.389 . S
C3313 C3314 1.524 . S
C3314 C3313 1.524 . S
C3314 C3315 1.397 . S
C3314 C3319 1.363 . S
C3315 H3286 0.950 . S
C3315 C3314 1.397 . S
C3315 C3316 1.334 . S
C3316 H3287 0.950 . S
C3316 C3315 1.334 . S
C3316 C3317 1.287 . S
C3317 C3316 1.287 . S
C3317 C3318 1.524 . S
C3317 H3320 0.999 . S
C3318 H3288 0.950 . S
C3318 C3317 1.524 . S
C3318 C3319 1.415 . S
C3319 H3289 0.950 . S
C3319 C3314 1.363 . S
C3319 C3318 1.415 . S
H3320 C3317 0.999 . S
H3321 C3302 0.913 . S
H3322 C3340 0.951 . S
H3323 C3342 0.951 . S
H3324 C3344 0.950 . S
H3325 C3345 0.950 . S
H3326 C3347 0.950 . S
H3327 C3350 0.950 . S
H3328 C3351 0.950 1_655 S
H3329 C3353 0.950 1_655 S
H3330 C3354 0.950 . S
H3331 C3355 0.951 . S
H3332 C3357 0.951 . S
H3333 C3359 0.950 . S
H3334 C3360 0.950 . S
H3335 C3362 0.950 . S
H3336 C3365 0.950 . S
H3337 C3366 0.950 . S
H3338 C3368 0.950 . S
H3339 C3369 0.950 . S
C3340 H3322 0.951 . S
C3340 C3341 1.366 . S
C3340 C3342 1.388 . S
C3341 C3340 1.366 . S
C3341 C3345 1.385 . S
C3342 H3323 0.951 . S
C3342 C3340 1.388 . S
C3342 C3343 1.366 . S
C3343 C3342 1.366 . S
C3343 C3344 1.414 . S
C3343 C3346 1.499 . S
C3344 H3324 0.950 . S
C3344 C3343 1.414 . S
C3344 C3345 1.374 . S
C3345 H3325 0.950 . S
C3345 C3341 1.385 . S
C3345 C3344 1.374 . S
C3346 C3343 1.499 . S
C3346 C3347 1.373 . S
C3346 C3348 1.389 . S
C3347 H3326 0.950 . S
C3347 C3346 1.373 . S
C3347 C3363 1.377 . S
C3348 C3346 1.389 . S
C3348 C3349 1.524 . S
C3348 C3362 1.377 1_556 S
C3349 C3348 1.524 . S
C3349 C3350 1.397 . S
C3349 C3354 1.363 1_556 S
C3350 H3327 0.950 . S
C3350 C3349 1.397 . S
C3350 C3351 1.334 . S
C3351 H3328 0.950 1_455 S
C3351 C3350 1.334 . S
C3351 C3352 1.287 1_455 S
C3352 C3351 1.287 1_655 S
C3352 C3353 1.524 1_656 S
C3352 H3371 0.913 . S
C3353 H3329 0.950 1_455 S
C3353 C3352 1.524 1_454 S
C3353 C3354 1.415 . S
C3354 H3330 0.950 . S
C3354 C3349 1.363 1_554 S
C3354 C3353 1.415 . S
C3355 H3331 0.951 . S
C3355 C3356 1.366 . S
C3355 C3357 1.388 . S
C3356 C3355 1.366 . S
C3356 C3360 1.385 . S
C3357 H3332 0.951 . S
C3357 C3355 1.388 . S
C3357 C3358 1.366 . S
C3358 C3357 1.366 . S
C3358 C3359 1.414 . S
C3358 C3361 1.499 . S
C3359 H3333 0.950 . S
C3359 C3358 1.414 . S
C3359 C3360 1.374 . S
C3360 H3334 0.950 . S
C3360 C3356 1.385 . S
C3360 C3359 1.374 . S
C3361 C3358 1.499 . S
C3361 C3362 1.373 . S
C3361 C3363 1.389 1_554 S
C3362 H3335 0.950 . S
C3362 C3348 1.377 1_554 S
C3362 C3361 1.373 . S
C3363 C3347 1.377 . S
C3363 C3361 1.389 1_556 S
C3363 C3364 1.524 . S
C3364 C3363 1.524 . S
C3364 C3365 1.397 1_556 S
C3364 C3369 1.363 . S
C3365 H3336 0.950 . S
C3365 C3364 1.397 1_554 S
C3365 C3366 1.334 . S
C3366 H3337 0.950 . S
C3366 C3365 1.334 . S
C3366 C3367 1.287 1_554 S
C3367 C3366 1.287 1_556 S
C3367 C3368 1.524 . S
C3367 H3370 0.999 . S
C3368 H3338 0.950 . S
C3368 C3367 1.524 . S
C3368 C3369 1.415 . S
C3369 H3339 0.950 . S
C3369 C3364 1.363 . S
C3369 C3368 1.415 . S
H3370 C3367 0.999 . S
H3371 C3352 0.913 . S
H3372 C3390 0.951 . S
H3373 C3392 0.951 . S
H3374 C3394 0.950 . S
H3375 C3395 0.950 . S
H3376 C3397 0.950 . S
H3377 C3400 0.950 . S
H3378 C3401 0.950 . S
H3379 C3403 0.950 . S
H3380 C3404 0.950 . S
H3381 C3405 0.951 . S
H3382 C3407 0.951 . S
H3383 C3409 0.950 . S
H3384 C3410 0.950 . S
H3385 C3412 0.950 . S
H3386 C3415 0.950 . S
H3387 C3416 0.950 . S
H3388 C3418 0.950 . S
H3389 C3419 0.950 . S
C3390 H3372 0.951 . S
C3390 C3391 1.366 . S
C3390 C3392 1.388 . S
C3391 C3390 1.366 . S
C3391 C3395 1.385 . S
C3392 H3373 0.951 . S
C3392 C3390 1.388 . S
C3392 C3393 1.366 . S
C3393 C3392 1.366 . S
C3393 C3394 1.414 . S
C3393 C3396 1.499 . S
C3394 H3374 0.950 . S
C3394 C3393 1.414 . S
C3394 C3395 1.374 . S
C3395 H3375 0.950 . S
C3395 C3391 1.385 . S
C3395 C3394 1.374 . S
C3396 C3393 1.499 . S
C3396 C3397 1.373 . S
C3396 C3398 1.389 . S
C3397 H3376 0.950 . S
C3397 C3396 1.373 . S
C3397 C3413 1.377 . S
C3398 C3396 1.389 . S
C3398 C3399 1.524 . S
C3398 C3412 1.377 . S
C3399 C3398 1.524 . S
C3399 C3400 1.397 . S
C3399 C3404 1.363 . S
C3400 H3377 0.950 . S
C3400 C3399 1.397 . S
C3400 C3401 1.334 . S
C3401 H3378 0.950 . S
C3401 C3400 1.334 . S
C3401 C3402 1.287 . S
C3402 C3401 1.287 . S
C3402 C3403 1.524 . S
C3402 H3421 0.913 . S
C3403 H3379 0.950 . S
C3403 C3402 1.524 . S
C3403 C3404 1.415 . S
C3404 H3380 0.950 . S
C3404 C3399 1.363 . S
C3404 C3403 1.415 . S
C3405 H3381 0.951 . S
C3405 C3406 1.366 . S
C3405 C3407 1.388 . S
C3406 C3405 1.366 . S
C3406 C3410 1.385 . S
C3407 H3382 0.951 . S
C3407 C3405 1.388 . S
C3407 C3408 1.366 . S
C3408 C3407 1.366 . S
C3408 C3409 1.414 . S
C3408 C3411 1.499 . S
C3409 H3383 0.950 . S
C3409 C3408 1.414 . S
C3409 C3410 1.374 . S
C3410 H3384 0.950 . S
C3410 C3406 1.385 . S
C3410 C3409 1.374 . S
C3411 C3408 1.499 . S
C3411 C3412 1.373 . S
C3411 C3413 1.389 . S
C3412 H3385 0.950 . S
C3412 C3398 1.377 . S
C3412 C3411 1.373 . S
C3413 C3397 1.377 . S
C3413 C3411 1.389 . S
C3413 C3414 1.524 . S
C3414 C3413 1.524 . S
C3414 C3415 1.397 . S
C3414 C3419 1.363 . S
C3415 H3386 0.950 . S
C3415 C3414 1.397 . S
C3415 C3416 1.334 . S
C3416 H3387 0.950 . S
C3416 C3415 1.334 . S
C3416 C3417 1.287 . S
C3417 C3416 1.287 . S
C3417 C3418 1.524 . S
C3417 H3420 0.999 . S
C3418 H3388 0.950 . S
C3418 C3417 1.524 . S
C3418 C3419 1.415 . S
C3419 H3389 0.950 . S
C3419 C3414 1.363 . S
C3419 C3418 1.415 . S
H3420 C3417 0.999 . S
H3421 C3402 0.913 . S
H3422 C3440 0.951 . S
H3423 C3442 0.951 . S
H3424 C3444 0.950 . S
H3425 C3445 0.950 . S
H3426 C3447 0.950 . S
H3427 C3450 0.950 . S
H3428 C3451 0.950 . S
H3429 C3453 0.950 . S
H3430 C3454 0.950 . S
H3431 C3455 0.951 . S
H3432 C3457 0.951 . S
H3433 C3459 0.950 . S
H3434 C3460 0.950 . S
H3435 C3462 0.950 . S
H3436 C3465 0.950 . S
H3437 C3466 0.950 . S
H3438 C3468 0.950 . S
H3439 C3469 0.950 . S
C3440 H3422 0.951 . S
C3440 C3441 1.366 . S
C3440 C3442 1.388 . S
C3441 C3440 1.366 . S
C3441 C3445 1.385 . S
C3442 H3423 0.951 . S
C3442 C3440 1.388 . S
C3442 C3443 1.366 . S
C3443 C3442 1.366 . S
C3443 C3444 1.414 . S
C3443 C3446 1.499 . S
C3444 H3424 0.950 . S
C3444 C3443 1.414 . S
C3444 C3445 1.374 . S
C3445 H3425 0.950 . S
C3445 C3441 1.385 . S
C3445 C3444 1.374 . S
C3446 C3443 1.499 . S
C3446 C3447 1.373 . S
C3446 C3448 1.389 . S
C3447 H3426 0.950 . S
C3447 C3446 1.373 . S
C3447 C3463 1.377 . S
C3448 C3446 1.389 . S
C3448 C3449 1.524 . S
C3448 C3462 1.377 . S
C3449 C3448 1.524 . S
C3449 C3450 1.397 . S
C3449 C3454 1.363 . S
C3450 H3427 0.950 . S
C3450 C3449 1.397 . S
C3450 C3451 1.334 . S
C3451 H3428 0.950 . S
C3451 C3450 1.334 . S
C3451 C3452 1.287 . S
C3452 C3451 1.287 . S
C3452 C3453 1.524 . S
C3452 H3471 0.913 . S
C3453 H3429 0.950 . S
C3453 C3452 1.524 . S
C3453 C3454 1.415 . S
C3454 H3430 0.950 . S
C3454 C3449 1.363 . S
C3454 C3453 1.415 . S
C3455 H3431 0.951 . S
C3455 C3456 1.366 . S
C3455 C3457 1.388 . S
C3456 C3455 1.366 . S
C3456 C3460 1.385 . S
C3457 H3432 0.951 . S
C3457 C3455 1.388 . S
C3457 C3458 1.366 . S
C3458 C3457 1.366 . S
C3458 C3459 1.414 . S
C3458 C3461 1.499 . S
C3459 H3433 0.950 . S
C3459 C3458 1.414 . S
C3459 C3460 1.374 . S
C3460 H3434 0.950 . S
C3460 C3456 1.385 . S
C3460 C3459 1.374 . S
C3461 C3458 1.499 . S
C3461 C3462 1.373 . S
C3461 C3463 1.389 . S
C3462 H3435 0.950 . S
C3462 C3448 1.377 . S
C3462 C3461 1.373 . S
C3463 C3447 1.377 . S
C3463 C3461 1.389 . S
C3463 C3464 1.524 . S
C3464 C3463 1.524 . S
C3464 C3465 1.397 . S
C3464 C3469 1.363 . S
C3465 H3436 0.950 . S
C3465 C3464 1.397 . S
C3465 C3466 1.334 . S
C3466 H3437 0.950 . S
C3466 C3465 1.334 . S
C3466 C3467 1.287 . S
C3467 C3466 1.287 . S
C3467 C3468 1.524 . S
C3467 H3470 0.999 . S
C3468 H3438 0.950 . S
C3468 C3467 1.524 . S
C3468 C3469 1.415 . S
C3469 H3439 0.950 . S
C3469 C3464 1.363 . S
C3469 C3468 1.415 . S
H3470 C3467 0.999 . S
H3471 C3452 0.913 . S
H3472 C3490 0.951 . S
H3473 C3492 0.951 . S
H3474 C3494 0.950 . S
H3475 C3495 0.950 . S
H3476 C3497 0.950 . S
H3477 C3500 0.950 . S
H3478 C3501 0.950 . S
H3479 C3503 0.950 . S
H3480 C3504 0.950 . S
H3481 C3505 0.951 . S
H3482 C3507 0.951 . S
H3483 C3509 0.950 . S
H3484 C3510 0.950 . S
H3485 C3512 0.950 . S
H3486 C3515 0.950 . S
H3487 C3516 0.950 . S
H3488 C3518 0.950 . S
H3489 C3519 0.950 . S
C3490 H3472 0.951 . S
C3490 C3491 1.366 . S
C3490 C3492 1.388 . S
C3491 C3490 1.366 . S
C3491 C3495 1.385 . S
C3492 H3473 0.951 . S
C3492 C3490 1.388 . S
C3492 C3493 1.366 . S
C3493 C3492 1.366 . S
C3493 C3494 1.414 . S
C3493 C3496 1.499 . S
C3494 H3474 0.950 . S
C3494 C3493 1.414 . S
C3494 C3495 1.374 . S
C3495 H3475 0.950 . S
C3495 C3491 1.385 . S
C3495 C3494 1.374 . S
C3496 C3493 1.499 . S
C3496 C3497 1.373 . S
C3496 C3498 1.389 . S
C3497 H3476 0.950 . S
C3497 C3496 1.373 . S
C3497 C3513 1.377 . S
C3498 C3496 1.389 . S
C3498 C3499 1.524 . S
C3498 C3512 1.377 . S
C3499 C3498 1.524 . S
C3499 C3500 1.397 . S
C3499 C3504 1.363 . S
C3500 H3477 0.950 . S
C3500 C3499 1.397 . S
C3500 C3501 1.334 . S
C3501 H3478 0.950 . S
C3501 C3500 1.334 . S
C3501 C3502 1.287 . S
C3502 C3501 1.287 . S
C3502 C3503 1.524 . S
C3502 H3521 0.913 . S
C3503 H3479 0.950 . S
C3503 C3502 1.524 . S
C3503 C3504 1.415 . S
C3504 H3480 0.950 . S
C3504 C3499 1.363 . S
C3504 C3503 1.415 . S
C3505 H3481 0.951 . S
C3505 C3506 1.366 . S
C3505 C3507 1.388 . S
C3506 C3505 1.366 . S
C3506 C3510 1.385 . S
C3507 H3482 0.951 . S
C3507 C3505 1.388 . S
C3507 C3508 1.366 . S
C3508 C3507 1.366 . S
C3508 C3509 1.414 . S
C3508 C3511 1.499 . S
C3509 H3483 0.950 . S
C3509 C3508 1.414 . S
C3509 C3510 1.374 . S
C3510 H3484 0.950 . S
C3510 C3506 1.385 . S
C3510 C3509 1.374 . S
C3511 C3508 1.499 . S
C3511 C3512 1.373 . S
C3511 C3513 1.389 . S
C3512 H3485 0.950 . S
C3512 C3498 1.377 . S
C3512 C3511 1.373 . S
C3513 C3497 1.377 . S
C3513 C3511 1.389 . S
C3513 C3514 1.524 . S
C3514 C3513 1.524 . S
C3514 C3515 1.397 . S
C3514 C3519 1.363 . S
C3515 H3486 0.950 . S
C3515 C3514 1.397 . S
C3515 C3516 1.334 . S
C3516 H3487 0.950 . S
C3516 C3515 1.334 . S
C3516 C3517 1.287 . S
C3517 C3516 1.287 . S
C3517 C3518 1.524 . S
C3517 H3520 0.999 . S
C3518 H3488 0.950 . S
C3518 C3517 1.524 . S
C3518 C3519 1.415 . S
C3519 H3489 0.950 . S
C3519 C3514 1.363 . S
C3519 C3518 1.415 . S
H3520 C3517 0.999 . S
H3521 C3502 0.913 . S
H3522 C3540 0.951 . S
H3523 C3542 0.951 . S
H3524 C3544 0.950 . S
H3525 C3545 0.950 . S
H3526 C3547 0.950 . S
H3527 C3550 0.950 . S
H3528 C3551 0.950 . S
H3529 C3553 0.950 . S
H3530 C3554 0.950 . S
H3531 C3555 0.951 . S
H3532 C3557 0.951 . S
H3533 C3559 0.950 . S
H3534 C3560 0.950 . S
H3535 C3562 0.950 . S
H3536 C3565 0.950 . S
H3537 C3566 0.950 1_556 S
H3538 C3568 0.950 1_556 S
H3539 C3569 0.950 . S
C3540 H3522 0.951 . S
C3540 C3541 1.366 . S
C3540 C3542 1.388 . S
C3541 C3540 1.366 . S
C3541 C3545 1.385 . S
C3542 H3523 0.951 . S
C3542 C3540 1.388 . S
C3542 C3543 1.366 . S
C3543 C3542 1.366 . S
C3543 C3544 1.414 . S
C3543 C3546 1.499 . S
C3544 H3524 0.950 . S
C3544 C3543 1.414 . S
C3544 C3545 1.374 . S
C3545 H3525 0.950 . S
C3545 C3541 1.385 . S
C3545 C3544 1.374 . S
C3546 C3543 1.499 . S
C3546 C3547 1.373 . S
C3546 C3548 1.389 . S
C3547 H3526 0.950 . S
C3547 C3546 1.373 . S
C3547 C3563 1.377 . S
C3548 C3546 1.389 . S
C3548 C3549 1.524 . S
C3548 C3562 1.377 . S
C3549 C3548 1.524 . S
C3549 C3550 1.397 . S
C3549 C3554 1.363 . S
C3550 H3527 0.950 . S
C3550 C3549 1.397 . S
C3550 C3551 1.334 . S
C3551 H3528 0.950 . S
C3551 C3550 1.334 . S
C3551 C3552 1.287 . S
C3552 C3551 1.287 . S
C3552 C3553 1.524 . S
C3552 H3571 0.913 . S
C3553 H3529 0.950 . S
C3553 C3552 1.524 . S
C3553 C3554 1.415 . S
C3554 H3530 0.950 . S
C3554 C3549 1.363 . S
C3554 C3553 1.415 . S
C3555 H3531 0.951 . S
C3555 C3556 1.366 . S
C3555 C3557 1.388 . S
C3556 C3555 1.366 . S
C3556 C3560 1.385 . S
C3557 H3532 0.951 . S
C3557 C3555 1.388 . S
C3557 C3558 1.366 . S
C3558 C3557 1.366 . S
C3558 C3559 1.414 . S
C3558 C3561 1.499 . S
C3559 H3533 0.950 . S
C3559 C3558 1.414 . S
C3559 C3560 1.374 . S
C3560 H3534 0.950 . S
C3560 C3556 1.385 . S
C3560 C3559 1.374 . S
C3561 C3558 1.499 . S
C3561 C3562 1.373 . S
C3561 C3563 1.389 . S
C3562 H3535 0.950 . S
C3562 C3548 1.377 . S
C3562 C3561 1.373 . S
C3563 C3547 1.377 . S
C3563 C3561 1.389 . S
C3563 C3564 1.524 . S
C3564 C3563 1.524 . S
C3564 C3565 1.397 . S
C3564 C3569 1.363 . S
C3565 H3536 0.950 . S
C3565 C3564 1.397 . S
C3565 C3566 1.334 . S
C3566 H3537 0.950 1_554 S
C3566 C3565 1.334 . S
C3566 C3567 1.287 1_554 S
C3567 C3566 1.287 1_556 S
C3567 C3568 1.524 1_556 S
C3567 H3570 0.999 . S
C3568 H3538 0.950 1_554 S
C3568 C3567 1.524 1_554 S
C3568 C3569 1.415 . S
C3569 H3539 0.950 . S
C3569 C3564 1.363 . S
C3569 C3568 1.415 . S
H3570 C3567 0.999 . S
H3571 C3552 0.913 . S
H3572 C3590 0.951 . S
H3573 C3592 0.951 . S
H3574 C3594 0.950 . S
H3575 C3595 0.950 . S
H3576 C3597 0.950 . S
H3577 C3600 0.950 . S
H3578 C3601 0.950 . S
H3579 C3603 0.950 . S
H3580 C3604 0.950 . S
H3581 C3605 0.951 . S
H3582 C3607 0.951 . S
H3583 C3609 0.950 . S
H3584 C3610 0.950 . S
H3585 C3612 0.950 . S
H3586 C3615 0.950 . S
H3587 C3616 0.950 . S
H3588 C3618 0.950 . S
H3589 C3619 0.950 . S
C3590 H3572 0.951 . S
C3590 C3591 1.366 . S
C3590 C3592 1.388 . S
C3591 C3590 1.366 . S
C3591 C3595 1.385 . S
C3592 H3573 0.951 . S
C3592 C3590 1.388 . S
C3592 C3593 1.366 . S
C3593 C3592 1.366 . S
C3593 C3594 1.414 . S
C3593 C3596 1.499 . S
C3594 H3574 0.950 . S
C3594 C3593 1.414 . S
C3594 C3595 1.374 . S
C3595 H3575 0.950 . S
C3595 C3591 1.385 . S
C3595 C3594 1.374 . S
C3596 C3593 1.499 . S
C3596 C3597 1.373 . S
C3596 C3598 1.389 . S
C3597 H3576 0.950 . S
C3597 C3596 1.373 . S
C3597 C3613 1.377 . S
C3598 C3596 1.389 . S
C3598 C3599 1.524 . S
C3598 C3612 1.377 . S
C3599 C3598 1.524 . S
C3599 C3600 1.397 . S
C3599 C3604 1.363 . S
C3600 H3577 0.950 . S
C3600 C3599 1.397 . S
C3600 C3601 1.334 . S
C3601 H3578 0.950 . S
C3601 C3600 1.334 . S
C3601 C3602 1.287 . S
C3602 C3601 1.287 . S
C3602 C3603 1.524 . S
C3602 H3621 0.913 . S
C3603 H3579 0.950 . S
C3603 C3602 1.524 . S
C3603 C3604 1.415 . S
C3604 H3580 0.950 . S
C3604 C3599 1.363 . S
C3604 C3603 1.415 . S
C3605 H3581 0.951 . S
C3605 C3606 1.366 . S
C3605 C3607 1.388 . S
C3606 C3605 1.366 . S
C3606 C3610 1.385 . S
C3607 H3582 0.951 . S
C3607 C3605 1.388 . S
C3607 C3608 1.366 . S
C3608 C3607 1.366 . S
C3608 C3609 1.414 . S
C3608 C3611 1.499 . S
C3609 H3583 0.950 . S
C3609 C3608 1.414 . S
C3609 C3610 1.374 . S
C3610 H3584 0.950 . S
C3610 C3606 1.385 . S
C3610 C3609 1.374 . S
C3611 C3608 1.499 . S
C3611 C3612 1.373 . S
C3611 C3613 1.389 . S
C3612 H3585 0.950 . S
C3612 C3598 1.377 . S
C3612 C3611 1.373 . S
C3613 C3597 1.377 . S
C3613 C3611 1.389 . S
C3613 C3614 1.524 . S
C3614 C3613 1.524 . S
C3614 C3615 1.397 . S
C3614 C3619 1.363 . S
C3615 H3586 0.950 . S
C3615 C3614 1.397 . S
C3615 C3616 1.334 . S
C3616 H3587 0.950 . S
C3616 C3615 1.334 . S
C3616 C3617 1.287 . S
C3617 C3616 1.287 . S
C3617 C3618 1.524 . S
C3617 H3620 0.999 . S
C3618 H3588 0.950 . S
C3618 C3617 1.524 . S
C3618 C3619 1.415 . S
C3619 H3589 0.950 . S
C3619 C3614 1.363 . S
C3619 C3618 1.415 . S
H3620 C3617 0.999 . S
H3621 C3602 0.913 . S
H3622 C3640 0.951 . S
H3623 C3642 0.959 . S
H3624 C3644 0.950 . S
H3625 C3645 0.950 . S
H3626 C3647 0.950 . S
H3627 C3650 0.950 . S
H3628 C3651 0.950 . S
H3629 C3653 0.950 . S
H3630 C3654 0.950 . S
H3631 C3655 0.951 . S
H3632 C3657 0.951 . S
H3633 C3659 0.950 . S
H3634 C3660 0.950 . S
H3635 C3662 0.950 . S
H3636 C3665 0.950 . S
H3637 C3666 0.950 . S
H3638 C3668 0.950 . S
H3639 C3669 0.950 . S
C3640 H3622 0.951 . S
C3640 C3641 1.366 1_455 S
C3640 C3642 1.388 1_455 S
C3641 C3640 1.366 1_655 S
C3641 C3645 1.385 . S
C3642 H3623 0.959 . S
C3642 C3640 1.388 1_655 S
C3642 C3643 1.366 . S
C3643 C3642 1.366 . S
C3643 C3644 1.414 . S
C3643 C3646 1.499 . S
C3644 H3624 0.950 . S
C3644 C3643 1.414 . S
C3644 C3645 1.374 . S
C3645 H3625 0.950 . S
C3645 C3641 1.385 . S
C3645 C3644 1.374 . S
C3646 C3643 1.499 . S
C3646 C3647 1.373 . S
C3646 C3648 1.389 . S
C3647 H3626 0.950 . S
C3647 C3646 1.373 . S
C3647 C3663 1.377 . S
C3648 C3646 1.389 . S
C3648 C3649 1.524 . S
C3648 C3662 1.377 . S
C3649 C3648 1.524 . S
C3649 C3650 1.397 . S
C3649 C3654 1.363 . S
C3650 H3627 0.950 . S
C3650 C3649 1.397 . S
C3650 C3651 1.334 . S
C3651 H3628 0.950 . S
C3651 C3650 1.334 . S
C3651 C3652 1.287 . S
C3652 C3651 1.287 . S
C3652 C3653 1.524 . S
C3652 H3671 0.913 . S
C3653 H3629 0.950 . S
C3653 C3652 1.524 . S
C3653 C3654 1.415 . S
C3654 H3630 0.950 . S
C3654 C3649 1.363 . S
C3654 C3653 1.415 . S
C3655 H3631 0.951 . S
C3655 C3656 1.366 . S
C3655 C3657 1.388 . S
C3656 C3655 1.366 . S
C3656 C3660 1.385 . S
C3657 H3632 0.951 . S
C3657 C3655 1.388 . S
C3657 C3658 1.366 . S
C3658 C3657 1.366 . S
C3658 C3659 1.414 . S
C3658 C3661 1.499 . S
C3659 H3633 0.950 . S
C3659 C3658 1.414 . S
C3659 C3660 1.374 . S
C3660 H3634 0.950 . S
C3660 C3656 1.385 . S
C3660 C3659 1.374 . S
C3661 C3658 1.499 . S
C3661 C3662 1.373 . S
C3661 C3663 1.389 . S
C3662 H3635 0.950 . S
C3662 C3648 1.377 . S
C3662 C3661 1.373 . S
C3663 C3647 1.377 . S
C3663 C3661 1.389 . S
C3663 C3664 1.524 . S
C3664 C3663 1.524 . S
C3664 C3665 1.397 . S
C3664 C3669 1.363 . S
C3665 H3636 0.950 . S
C3665 C3664 1.397 . S
C3665 C3666 1.334 . S
C3666 H3637 0.950 . S
C3666 C3665 1.334 . S
C3666 C3667 1.287 . S
C3667 C3666 1.287 . S
C3667 C3668 1.524 . S
C3667 H3670 0.999 . S
C3668 H3638 0.950 . S
C3668 C3667 1.524 . S
C3668 C3669 1.415 . S
C3669 H3639 0.950 . S
C3669 C3664 1.363 . S
C3669 C3668 1.415 . S
H3670 C3667 0.999 . S
H3671 C3652 0.913 . S
H3672 C3690 0.951 . S
H3673 C3692 0.951 . S
H3674 C3694 0.950 . S
H3675 C3695 0.950 . S
H3676 C3697 0.950 . S
H3677 C3700 0.950 . S
H3678 C3701 0.950 . S
H3679 C3703 0.950 . S
H3680 C3704 0.950 . S
H3681 C3705 0.951 . S
H3682 C3707 0.951 . S
H3683 C3709 0.950 . S
H3684 C3710 0.950 . S
H3685 C3712 0.950 . S
H3686 C3715 0.950 . S
H3687 C3716 0.950 . S
H3688 C3718 0.950 . S
H3689 C3719 0.950 . S
C3690 H3672 0.951 . S
C3690 C3691 1.366 . S
C3690 C3692 1.388 . S
C3691 C3690 1.366 . S
C3691 C3695 1.385 . S
C3692 H3673 0.951 . S
C3692 C3690 1.388 . S
C3692 C3693 1.366 . S
C3693 C3692 1.366 . S
C3693 C3694 1.414 . S
C3693 C3696 1.499 . S
C3694 H3674 0.950 . S
C3694 C3693 1.414 . S
C3694 C3695 1.374 . S
C3695 H3675 0.950 . S
C3695 C3691 1.385 . S
C3695 C3694 1.374 . S
C3696 C3693 1.499 . S
C3696 C3697 1.373 . S
C3696 C3698 1.389 . S
C3697 H3676 0.950 . S
C3697 C3696 1.373 . S
C3697 C3713 1.377 . S
C3698 C3696 1.389 . S
C3698 C3699 1.524 . S
C3698 C3712 1.377 . S
C3699 C3698 1.524 . S
C3699 C3700 1.397 . S
C3699 C3704 1.363 . S
C3700 H3677 0.950 . S
C3700 C3699 1.397 . S
C3700 C3701 1.334 . S
C3701 H3678 0.950 . S
C3701 C3700 1.334 . S
C3701 C3702 1.287 . S
C3702 C3701 1.287 . S
C3702 C3703 1.524 . S
C3702 H3721 0.913 . S
C3703 H3679 0.950 . S
C3703 C3702 1.524 . S
C3703 C3704 1.415 . S
C3704 H3680 0.950 . S
C3704 C3699 1.363 . S
C3704 C3703 1.415 . S
C3705 H3681 0.951 . S
C3705 C3706 1.366 . S
C3705 C3707 1.388 . S
C3706 C3705 1.366 . S
C3706 C3710 1.385 . S
C3707 H3682 0.951 . S
C3707 C3705 1.388 . S
C3707 C3708 1.366 . S
C3708 C3707 1.366 . S
C3708 C3709 1.414 . S
C3708 C3711 1.499 . S
C3709 H3683 0.950 . S
C3709 C3708 1.414 . S
C3709 C3710 1.374 . S
C3710 H3684 0.950 . S
C3710 C3706 1.385 . S
C3710 C3709 1.374 . S
C3711 C3708 1.499 . S
C3711 C3712 1.373 . S
C3711 C3713 1.389 . S
C3712 H3685 0.950 . S
C3712 C3698 1.377 . S
C3712 C3711 1.373 . S
C3713 C3697 1.377 . S
C3713 C3711 1.389 . S
C3713 C3714 1.524 . S
C3714 C3713 1.524 . S
C3714 C3715 1.397 . S
C3714 C3719 1.363 . S
C3715 H3686 0.950 . S
C3715 C3714 1.397 . S
C3715 C3716 1.334 . S
C3716 H3687 0.950 . S
C3716 C3715 1.334 . S
C3716 C3717 1.287 . S
C3717 C3716 1.287 . S
C3717 C3718 1.524 . S
C3717 H3720 0.999 . S
C3718 H3688 0.950 . S
C3718 C3717 1.524 . S
C3718 C3719 1.415 . S
C3719 H3689 0.950 . S
C3719 C3714 1.363 . S
C3719 C3718 1.415 . S
H3720 C3717 0.999 . S
H3721 C3702 0.913 . S
H3722 C3740 0.951 . S
H3723 C3742 0.951 . S
H3724 C3744 0.950 . S
H3725 C3745 0.950 . S
H3726 C3747 0.950 . S
H3727 C3750 0.950 . S
H3728 C3751 0.950 . S
H3729 C3753 0.930 1_554 S
H3730 C3754 0.950 . S
H3731 C3755 0.951 1_455 S
H3732 C3757 0.951 . S
H3733 C3759 0.950 . S
H3734 C3760 0.950 . S
H3735 C3762 0.950 . S
H3736 C3765 0.950 . S
H3737 C3766 0.950 . S
H3738 C3768 0.950 . S
H3739 C3769 0.950 . S
C3740 H3722 0.951 . S
C3740 C3741 1.366 . S
C3740 C3742 1.388 . S
C3741 C3740 1.366 . S
C3741 C3745 1.385 . S
C3742 H3723 0.951 . S
C3742 C3740 1.388 . S
C3742 C3743 1.366 . S
C3743 C3742 1.366 . S
C3743 C3744 1.414 . S
C3743 C3746 1.499 . S
C3744 H3724 0.950 . S
C3744 C3743 1.414 . S
C3744 C3745 1.374 . S
C3745 H3725 0.950 . S
C3745 C3741 1.385 . S
C3745 C3744 1.374 . S
C3746 C3743 1.499 . S
C3746 C3747 1.373 . S
C3746 C3748 1.389 . S
C3747 H3726 0.950 . S
C3747 C3746 1.373 . S
C3747 C3763 1.377 . S
C3748 C3746 1.389 . S
C3748 C3749 1.524 . S
C3748 C3762 1.377 . S
C3749 C3748 1.524 . S
C3749 C3750 1.397 . S
C3749 C3754 1.363 . S
C3750 H3727 0.950 . S
C3750 C3749 1.397 . S
C3750 C3751 1.334 . S
C3751 H3728 0.950 . S
C3751 C3750 1.334 . S
C3751 C3752 1.287 1_556 S
C3752 C3751 1.287 1_554 S
C3752 C3753 1.519 1_554 S
C3752 H3771 0.913 . S
C3753 H3729 0.930 1_556 S
C3753 C3752 1.519 1_556 S
C3753 C3754 1.443 . S
C3754 H3730 0.950 . S
C3754 C3749 1.363 . S
C3754 C3753 1.443 . S
C3755 H3731 0.951 1_655 S
C3755 C3756 1.366 . S
C3755 C3757 1.388 . S
C3756 C3755 1.366 . S
C3756 C3760 1.385 . S
C3757 H3732 0.951 . S
C3757 C3755 1.388 . S
C3757 C3758 1.366 . S
C3758 C3757 1.366 . S
C3758 C3759 1.414 . S
C3758 C3761 1.499 . S
C3759 H3733 0.950 . S
C3759 C3758 1.414 . S
C3759 C3760 1.374 . S
C3760 H3734 0.950 . S
C3760 C3756 1.385 . S
C3760 C3759 1.374 . S
C3761 C3758 1.499 . S
C3761 C3762 1.373 . S
C3761 C3763 1.389 . S
C3762 H3735 0.950 . S
C3762 C3748 1.377 . S
C3762 C3761 1.373 . S
C3763 C3747 1.377 . S
C3763 C3761 1.389 . S
C3763 C3764 1.524 . S
C3764 C3763 1.524 . S
C3764 C3765 1.397 . S
C3764 C3769 1.363 . S
C3765 H3736 0.950 . S
C3765 C3764 1.397 . S
C3765 C3766 1.334 . S
C3766 H3737 0.950 . S
C3766 C3765 1.334 . S
C3766 C3767 1.287 . S
C3767 C3766 1.287 . S
C3767 C3768 1.524 . S
C3767 H3770 0.999 . S
C3768 H3738 0.950 . S
C3768 C3767 1.524 . S
C3768 C3769 1.415 . S
C3769 H3739 0.950 . S
C3769 C3764 1.363 . S
C3769 C3768 1.415 . S
H3770 C3767 0.999 . S
H3771 C3752 0.913 . S
H3772 C3790 0.951 . S
H3773 C3792 0.951 . S
H3774 C3794 0.950 . S
H3775 C3795 0.950 . S
H3776 C3797 0.950 . S
H3777 C3800 0.950 . S
H3778 C3801 0.950 . S
H3779 C3803 0.950 . S
H3780 C3804 0.950 . S
H3781 C3805 0.951 . S
H3782 C3807 0.951 . S
H3783 C3809 0.950 . S
H3784 C3810 0.950 . S
H3785 C3812 0.950 . S
H3786 C3815 0.950 . S
H3787 C3816 0.950 . S
H3788 C3818 0.950 . S
H3789 C3819 0.950 . S
C3790 H3772 0.951 . S
C3790 C3791 1.366 . S
C3790 C3792 1.388 . S
C3791 C3790 1.366 . S
C3791 C3795 1.385 . S
C3792 H3773 0.951 . S
C3792 C3790 1.388 . S
C3792 C3793 1.366 . S
C3793 C3792 1.366 . S
C3793 C3794 1.414 . S
C3793 C3796 1.499 . S
C3794 H3774 0.950 . S
C3794 C3793 1.414 . S
C3794 C3795 1.374 . S
C3795 H3775 0.950 . S
C3795 C3791 1.385 . S
C3795 C3794 1.374 . S
C3796 C3793 1.499 . S
C3796 C3797 1.373 . S
C3796 C3798 1.389 . S
C3797 H3776 0.950 . S
C3797 C3796 1.373 . S
C3797 C3813 1.377 . S
C3798 C3796 1.389 . S
C3798 C3799 1.524 . S
C3798 C3812 1.377 . S
C3799 C3798 1.524 . S
C3799 C3800 1.397 . S
C3799 C3804 1.363 . S
C3800 H3777 0.950 . S
C3800 C3799 1.397 . S
C3800 C3801 1.334 . S
C3801 H3778 0.950 . S
C3801 C3800 1.334 . S
C3801 C3802 1.287 . S
C3802 C3801 1.287 . S
C3802 C3803 1.524 . S
C3802 H3821 0.913 . S
C3803 H3779 0.950 . S
C3803 C3802 1.524 . S
C3803 C3804 1.415 . S
C3804 H3780 0.950 . S
C3804 C3799 1.363 . S
C3804 C3803 1.415 . S
C3805 H3781 0.951 . S
C3805 C3806 1.366 . S
C3805 C3807 1.388 . S
C3806 C3805 1.366 . S
C3806 C3810 1.385 . S
C3807 H3782 0.951 . S
C3807 C3805 1.388 . S
C3807 C3808 1.366 . S
C3808 C3807 1.366 . S
C3808 C3809 1.414 . S
C3808 C3811 1.499 . S
C3809 H3783 0.950 . S
C3809 C3808 1.414 . S
C3809 C3810 1.374 . S
C3810 H3784 0.950 . S
C3810 C3806 1.385 . S
C3810 C3809 1.374 . S
C3811 C3808 1.499 . S
C3811 C3812 1.373 . S
C3811 C3813 1.389 . S
C3812 H3785 0.950 . S
C3812 C3798 1.377 . S
C3812 C3811 1.373 . S
C3813 C3797 1.377 . S
C3813 C3811 1.389 . S
C3813 C3814 1.524 . S
C3814 C3813 1.524 . S
C3814 C3815 1.397 . S
C3814 C3819 1.363 . S
C3815 H3786 0.950 . S
C3815 C3814 1.397 . S
C3815 C3816 1.334 . S
C3816 H3787 0.950 . S
C3816 C3815 1.334 . S
C3816 C3817 1.287 . S
C3817 C3816 1.287 . S
C3817 C3818 1.524 . S
C3817 H3820 0.999 . S
C3818 H3788 0.950 . S
C3818 C3817 1.524 . S
C3818 C3819 1.415 . S
C3819 H3789 0.950 . S
C3819 C3814 1.363 . S
C3819 C3818 1.415 . S
H3820 C3817 0.999 . S
H3821 C3802 0.913 . S
H3822 C3840 0.951 . S
H3823 C3842 0.951 . S
H3824 C3844 0.950 . S
H3825 C3845 0.950 . S
H3826 C3847 0.950 . S
H3827 C3850 0.950 . S
H3828 C3851 0.950 . S
H3829 C3853 0.950 . S
H3830 C3854 0.950 . S
H3831 C3855 0.951 . S
H3832 C3857 0.951 . S
H3833 C3859 0.950 . S
H3834 C3860 0.950 . S
H3835 C3862 0.950 . S
H3836 C3865 0.950 . S
H3837 C3866 0.950 . S
H3838 C3868 0.950 . S
H3839 C3869 0.950 . S
C3840 H3822 0.951 . S
C3840 C3841 1.366 . S
C3840 C3842 1.388 . S
C3841 C3840 1.366 . S
C3841 C3845 1.385 . S
C3842 H3823 0.951 . S
C3842 C3840 1.388 . S
C3842 C3843 1.366 . S
C3843 C3842 1.366 . S
C3843 C3844 1.414 . S
C3843 C3846 1.499 . S
C3844 H3824 0.950 . S
C3844 C3843 1.414 . S
C3844 C3845 1.374 . S
C3845 H3825 0.950 . S
C3845 C3841 1.385 . S
C3845 C3844 1.374 . S
C3846 C3843 1.499 . S
C3846 C3847 1.373 . S
C3846 C3848 1.389 . S
C3847 H3826 0.950 . S
C3847 C3846 1.373 . S
C3847 C3863 1.377 . S
C3848 C3846 1.389 . S
C3848 C3849 1.524 . S
C3848 C3862 1.377 . S
C3849 C3848 1.524 . S
C3849 C3850 1.397 . S
C3849 C3854 1.363 . S
C3850 H3827 0.950 . S
C3850 C3849 1.397 . S
C3850 C3851 1.334 . S
C3851 H3828 0.950 . S
C3851 C3850 1.334 . S
C3851 C3852 1.287 . S
C3852 C3851 1.287 . S
C3852 C3853 1.524 . S
C3852 H3871 0.913 . S
C3853 H3829 0.950 . S
C3853 C3852 1.524 . S
C3853 C3854 1.415 . S
C3854 H3830 0.950 . S
C3854 C3849 1.363 . S
C3854 C3853 1.415 . S
C3855 H3831 0.951 . S
C3855 C3856 1.366 . S
C3855 C3857 1.388 . S
C3856 C3855 1.366 . S
C3856 C3860 1.385 . S
C3857 H3832 0.951 . S
C3857 C3855 1.388 . S
C3857 C3858 1.366 . S
C3858 C3857 1.366 . S
C3858 C3859 1.414 . S
C3858 C3861 1.499 . S
C3859 H3833 0.950 . S
C3859 C3858 1.414 . S
C3859 C3860 1.374 . S
C3860 H3834 0.950 . S
C3860 C3856 1.385 . S
C3860 C3859 1.374 . S
C3861 C3858 1.499 . S
C3861 C3862 1.373 . S
C3861 C3863 1.389 . S
C3862 H3835 0.950 . S
C3862 C3848 1.377 . S
C3862 C3861 1.373 . S
C3863 C3847 1.377 . S
C3863 C3861 1.389 . S
C3863 C3864 1.524 . S
C3864 C3863 1.524 . S
C3864 C3865 1.397 . S
C3864 C3869 1.363 . S
C3865 H3836 0.950 . S
C3865 C3864 1.397 . S
C3865 C3866 1.334 . S
C3866 H3837 0.950 . S
C3866 C3865 1.334 . S
C3866 C3867 1.287 . S
C3867 C3866 1.287 . S
C3867 C3868 1.524 . S
C3867 H3870 0.999 . S
C3868 H3838 0.950 . S
C3868 C3867 1.524 . S
C3868 C3869 1.415 . S
C3869 H3839 0.950 . S
C3869 C3864 1.363 . S
C3869 C3868 1.415 . S
H3870 C3867 0.999 . S
H3871 C3852 0.913 . S
H3872 C3890 0.951 . S
H3873 C3892 0.951 . S
H3874 C3894 0.950 . S
H3875 C3895 0.950 . S
H3876 C3897 0.950 . S
H3877 C3900 0.950 . S
H3878 C3901 0.950 . S
H3879 C3903 0.950 . S
H3880 C3904 0.950 . S
H3881 C3905 0.951 . S
H3882 C3907 0.951 . S
H3883 C3909 0.950 . S
H3884 C3910 0.950 . S
H3885 C3912 0.950 . S
H3886 C3915 0.950 . S
H3887 C3916 0.950 . S
H3888 C3918 0.950 . S
H3889 C3919 0.950 . S
C3890 H3872 0.951 . S
C3890 C3891 1.366 . S
C3890 C3892 1.388 . S
C3891 C3890 1.366 . S
C3891 C3895 1.385 . S
C3892 H3873 0.951 . S
C3892 C3890 1.388 . S
C3892 C3893 1.366 . S
C3893 C3892 1.366 . S
C3893 C3894 1.414 . S
C3893 C3896 1.499 . S
C3894 H3874 0.950 . S
C3894 C3893 1.414 . S
C3894 C3895 1.374 . S
C3895 H3875 0.950 . S
C3895 C3891 1.385 . S
C3895 C3894 1.374 . S
C3896 C3893 1.499 . S
C3896 C3897 1.373 . S
C3896 C3898 1.389 . S
C3897 H3876 0.950 . S
C3897 C3896 1.373 . S
C3897 C3913 1.377 . S
C3898 C3896 1.389 . S
C3898 C3899 1.524 . S
C3898 C3912 1.377 . S
C3899 C3898 1.524 . S
C3899 C3900 1.397 . S
C3899 C3904 1.363 . S
C3900 H3877 0.950 . S
C3900 C3899 1.397 . S
C3900 C3901 1.334 . S
C3901 H3878 0.950 . S
C3901 C3900 1.334 . S
C3901 C3902 1.287 . S
C3902 C3901 1.287 . S
C3902 C3903 1.524 . S
C3902 H3921 0.913 . S
C3903 H3879 0.950 . S
C3903 C3902 1.524 . S
C3903 C3904 1.415 . S
C3904 H3880 0.950 . S
C3904 C3899 1.363 . S
C3904 C3903 1.415 . S
C3905 H3881 0.951 . S
C3905 C3906 1.366 . S
C3905 C3907 1.388 . S
C3906 C3905 1.366 . S
C3906 C3910 1.385 . S
C3907 H3882 0.951 . S
C3907 C3905 1.388 . S
C3907 C3908 1.366 . S
C3908 C3907 1.366 . S
C3908 C3909 1.414 . S
C3908 C3911 1.499 . S
C3909 H3883 0.950 . S
C3909 C3908 1.414 . S
C3909 C3910 1.374 . S
C3910 H3884 0.950 . S
C3910 C3906 1.385 . S
C3910 C3909 1.374 . S
C3911 C3908 1.499 . S
C3911 C3912 1.373 . S
C3911 C3913 1.389 . S
C3912 H3885 0.950 . S
C3912 C3898 1.377 . S
C3912 C3911 1.373 . S
C3913 C3897 1.377 . S
C3913 C3911 1.389 . S
C3913 C3914 1.524 . S
C3914 C3913 1.524 . S
C3914 C3915 1.397 . S
C3914 C3919 1.363 . S
C3915 H3886 0.950 . S
C3915 C3914 1.397 . S
C3915 C3916 1.334 . S
C3916 H3887 0.950 . S
C3916 C3915 1.334 . S
C3916 C3917 1.287 . S
C3917 C3916 1.287 . S
C3917 C3918 1.524 . S
C3917 H3920 0.999 . S
C3918 H3888 0.950 . S
C3918 C3917 1.524 . S
C3918 C3919 1.415 . S
C3919 H3889 0.950 . S
C3919 C3914 1.363 . S
C3919 C3918 1.415 . S
H3920 C3917 0.999 . S
H3921 C3902 0.913 . S
H3922 C3940 0.951 . S
H3923 C3942 0.951 . S
H3924 C3944 0.950 . S
H3925 C3945 0.950 . S
H3926 C3947 0.950 . S
H3927 C3950 0.950 . S
H3928 C3951 0.950 . S
H3929 C3953 0.950 . S
H3930 C3954 0.950 . S
H3931 C3955 0.951 . S
H3932 C3957 0.951 . S
H3933 C3959 0.950 . S
H3934 C3960 0.950 . S
H3935 C3962 0.950 . S
H3936 C3965 0.950 . S
H3937 C3966 0.950 . S
H3938 C3968 0.950 . S
H3939 C3969 0.950 . S
C3940 H3922 0.951 . S
C3940 C3941 1.366 . S
C3940 C3942 1.388 . S
C3941 C3940 1.366 . S
C3941 C3945 1.385 . S
C3942 H3923 0.951 . S
C3942 C3940 1.388 . S
C3942 C3943 1.366 . S
C3943 C3942 1.366 . S
C3943 C3944 1.414 . S
C3943 C3946 1.499 . S
C3944 H3924 0.950 . S
C3944 C3943 1.414 . S
C3944 C3945 1.374 . S
C3945 H3925 0.950 . S
C3945 C3941 1.385 . S
C3945 C3944 1.374 . S
C3946 C3943 1.499 . S
C3946 C3947 1.373 . S
C3946 C3948 1.389 . S
C3947 H3926 0.950 . S
C3947 C3946 1.373 . S
C3947 C3963 1.377 . S
C3948 C3946 1.389 . S
C3948 C3949 1.524 . S
C3948 C3962 1.377 . S
C3949 C3948 1.524 . S
C3949 C3950 1.397 . S
C3949 C3954 1.363 . S
C3950 H3927 0.950 . S
C3950 C3949 1.397 . S
C3950 C3951 1.334 . S
C3951 H3928 0.950 . S
C3951 C3950 1.334 . S
C3951 C3952 1.287 . S
C3952 C3951 1.287 . S
C3952 C3953 1.524 . S
C3952 H3971 0.913 . S
C3953 H3929 0.950 . S
C3953 C3952 1.524 . S
C3953 C3954 1.415 . S
C3954 H3930 0.950 . S
C3954 C3949 1.363 . S
C3954 C3953 1.415 . S
C3955 H3931 0.951 . S
C3955 C3956 1.366 . S
C3955 C3957 1.388 . S
C3956 C3955 1.366 . S
C3956 C3960 1.385 . S
C3957 H3932 0.951 . S
C3957 C3955 1.388 . S
C3957 C3958 1.366 . S
C3958 C3957 1.366 . S
C3958 C3959 1.414 . S
C3958 C3961 1.499 . S
C3959 H3933 0.950 . S
C3959 C3958 1.414 . S
C3959 C3960 1.374 . S
C3960 H3934 0.950 . S
C3960 C3956 1.385 . S
C3960 C3959 1.374 . S
C3961 C3958 1.499 . S
C3961 C3962 1.373 . S
C3961 C3963 1.389 . S
C3962 H3935 0.950 . S
C3962 C3948 1.377 . S
C3962 C3961 1.373 . S
C3963 C3947 1.377 . S
C3963 C3961 1.389 . S
C3963 C3964 1.524 . S
C3964 C3963 1.524 . S
C3964 C3965 1.397 . S
C3964 C3969 1.363 . S
C3965 H3936 0.950 . S
C3965 C3964 1.397 . S
C3965 C3966 1.334 . S
C3966 H3937 0.950 . S
C3966 C3965 1.334 . S
C3966 C3967 1.287 . S
C3967 C3966 1.287 . S
C3967 C3968 1.524 . S
C3967 H3970 0.999 . S
C3968 H3938 0.950 . S
C3968 C3967 1.524 . S
C3968 C3969 1.415 . S
C3969 H3939 0.950 . S
C3969 C3964 1.363 . S
C3969 C3968 1.415 . S
H3970 C3967 0.999 . S
H3971 C3952 0.913 . S
H3972 C3990 0.951 . S
H3973 C3992 0.951 . S
H3974 C3994 0.950 . S
H3975 C3995 0.950 . S
H3976 C3997 0.950 . S
H3977 C4000 0.950 . S
H3978 C4001 0.950 . S
H3979 C4003 0.950 . S
H3980 C4004 0.950 . S
H3981 C4005 0.951 . S
H3982 C4007 0.951 . S
H3983 C4009 0.950 . S
H3984 C4010 0.950 . S
H3985 C4012 0.950 . S
H3986 C4015 0.950 . S
H3987 C4016 0.909 1_565 S
H3988 C4018 0.950 . S
H3989 C4019 0.950 . S
C3990 H3972 0.951 . S
C3990 C3991 1.366 . S
C3990 C3992 1.388 . S
C3991 C3990 1.366 . S
C3991 C3995 1.385 . S
C3992 H3973 0.951 . S
C3992 C3990 1.388 . S
C3992 C3993 1.366 . S
C3993 C3992 1.366 . S
C3993 C3994 1.414 . S
C3993 C3996 1.499 . S
C3994 H3974 0.950 . S
C3994 C3993 1.414 . S
C3994 C3995 1.374 . S
C3995 H3975 0.950 . S
C3995 C3991 1.385 . S
C3995 C3994 1.374 . S
C3996 C3993 1.499 . S
C3996 C3997 1.373 . S
C3996 C3998 1.389 . S
C3997 H3976 0.950 . S
C3997 C3996 1.373 . S
C3997 C4013 1.377 . S
C3998 C3996 1.389 . S
C3998 C3999 1.524 . S
C3998 C4012 1.377 . S
C3999 C3998 1.524 . S
C3999 C4000 1.397 . S
C3999 C4004 1.363 . S
C4000 H3977 0.950 . S
C4000 C3999 1.397 . S
C4000 C4001 1.334 . S
C4001 H3978 0.950 . S
C4001 C4000 1.334 . S
C4001 C4002 1.287 . S
C4002 C4001 1.287 . S
C4002 C4003 1.524 . S
C4002 H4021 0.913 . S
C4003 H3979 0.950 . S
C4003 C4002 1.524 . S
C4003 C4004 1.415 . S
C4004 H3980 0.950 . S
C4004 C3999 1.363 . S
C4004 C4003 1.415 . S
C4005 H3981 0.951 . S
C4005 C4006 1.366 . S
C4005 C4007 1.388 . S
C4006 C4005 1.366 . S
C4006 C4010 1.385 . S
C4007 H3982 0.951 . S
C4007 C4005 1.388 . S
C4007 C4008 1.366 . S
C4008 C4007 1.366 . S
C4008 C4009 1.414 . S
C4008 C4011 1.499 . S
C4009 H3983 0.950 . S
C4009 C4008 1.414 . S
C4009 C4010 1.374 . S
C4010 H3984 0.950 . S
C4010 C4006 1.385 . S
C4010 C4009 1.374 . S
C4011 C4008 1.499 . S
C4011 C4012 1.373 . S
C4011 C4013 1.389 . S
C4012 H3985 0.950 . S
C4012 C3998 1.377 . S
C4012 C4011 1.373 . S
C4013 C3997 1.377 . S
C4013 C4011 1.389 . S
C4013 C4014 1.524 . S
C4014 C4013 1.524 . S
C4014 C4015 1.397 . S
C4014 C4019 1.363 . S
C4015 H3986 0.950 . S
C4015 C4014 1.397 . S
C4015 C4016 1.334 . S
C4016 H3987 0.909 1_545 S
C4016 C4015 1.334 . S
C4016 C4017 1.287 . S
C4017 C4016 1.287 . S
C4017 C4018 1.524 . S
C4017 H4020 0.999 . S
C4018 H3988 0.950 . S
C4018 C4017 1.524 . S
C4018 C4019 1.415 . S
C4019 H3989 0.950 . S
C4019 C4014 1.363 . S
C4019 C4018 1.415 . S
H4020 C4017 0.999 . S
H4021 C4002 0.913 . S
H4022 C4040 0.951 . S
H4023 C4042 0.951 . S
H4024 C4044 0.950 . S
H4025 C4045 0.950 . S
H4026 C4047 0.950 . S
H4027 C4050 0.950 . S
H4028 C4051 0.950 . S
H4029 C4053 0.950 . S
H4030 C4054 0.950 . S
H4031 C4055 0.951 . S
H4032 C4057 0.951 . S
H4033 C4059 0.950 . S
H4034 C4060 0.950 . S
H4035 C4062 0.950 . S
H4036 C4065 0.950 . S
H4037 C4066 0.950 . S
H4038 C4068 0.950 . S
H4039 C4069 0.950 . S
C4040 H4022 0.951 . S
C4040 C4041 1.366 . S
C4040 C4042 1.388 . S
C4041 C4040 1.366 . S
C4041 C4045 1.385 . S
C4042 H4023 0.951 . S
C4042 C4040 1.388 . S
C4042 C4043 1.366 . S
C4043 C4042 1.366 . S
C4043 C4044 1.414 . S
C4043 C4046 1.499 . S
C4044 H4024 0.950 . S
C4044 C4043 1.414 . S
C4044 C4045 1.374 . S
C4045 H4025 0.950 . S
C4045 C4041 1.385 . S
C4045 C4044 1.374 . S
C4046 C4043 1.499 . S
C4046 C4047 1.373 . S
C4046 C4048 1.389 . S
C4047 H4026 0.950 . S
C4047 C4046 1.373 . S
C4047 C4063 1.377 . S
C4048 C4046 1.389 . S
C4048 C4049 1.524 . S
C4048 C4062 1.377 . S
C4049 C4048 1.524 . S
C4049 C4050 1.397 . S
C4049 C4054 1.363 . S
C4050 H4027 0.950 . S
C4050 C4049 1.397 . S
C4050 C4051 1.334 . S
C4051 H4028 0.950 . S
C4051 C4050 1.334 . S
C4051 C4052 1.287 . S
C4052 C4051 1.287 . S
C4052 C4053 1.524 . S
C4052 H4071 0.913 . S
C4053 H4029 0.950 . S
C4053 C4052 1.524 . S
C4053 C4054 1.415 . S
C4054 H4030 0.950 . S
C4054 C4049 1.363 . S
C4054 C4053 1.415 . S
C4055 H4031 0.951 . S
C4055 C4056 1.366 . S
C4055 C4057 1.388 . S
C4056 C4055 1.366 . S
C4056 C4060 1.385 . S
C4057 H4032 0.951 . S
C4057 C4055 1.388 . S
C4057 C4058 1.366 . S
C4058 C4057 1.366 . S
C4058 C4059 1.414 . S
C4058 C4061 1.499 . S
C4059 H4033 0.950 . S
C4059 C4058 1.414 . S
C4059 C4060 1.374 . S
C4060 H4034 0.950 . S
C4060 C4056 1.385 . S
C4060 C4059 1.374 . S
C4061 C4058 1.499 . S
C4061 C4062 1.373 . S
C4061 C4063 1.389 . S
C4062 H4035 0.950 . S
C4062 C4048 1.377 . S
C4062 C4061 1.373 . S
C4063 C4047 1.377 . S
C4063 C4061 1.389 . S
C4063 C4064 1.524 . S
C4064 C4063 1.524 . S
C4064 C4065 1.397 . S
C4064 C4069 1.363 . S
C4065 H4036 0.950 . S
C4065 C4064 1.397 . S
C4065 C4066 1.334 . S
C4066 H4037 0.950 . S
C4066 C4065 1.334 . S
C4066 C4067 1.287 . S
C4067 C4066 1.287 . S
C4067 C4068 1.524 . S
C4067 H4070 0.999 . S
C4068 H4038 0.950 . S
C4068 C4067 1.524 . S
C4068 C4069 1.415 . S
C4069 H4039 0.950 . S
C4069 C4064 1.363 . S
C4069 C4068 1.415 . S
H4070 C4067 0.999 . S
H4071 C4052 0.913 . S
H4072 C4090 0.951 . S
H4073 C4092 0.951 . S
H4074 C4094 0.950 . S
H4075 C4095 0.950 . S
H4076 C4097 0.950 . S
H4077 C4100 0.950 . S
H4078 C4101 0.950 . S
H4079 C4103 0.950 . S
H4080 C4104 0.950 . S
H4081 C4105 0.951 . S
H4082 C4107 0.951 . S
H4083 C4109 0.950 . S
H4084 C4110 0.950 . S
H4085 C4112 0.950 . S
H4086 C4115 0.950 . S
H4087 C4116 0.950 . S
H4088 C4118 0.950 . S
H4089 C4119 0.950 . S
C4090 H4072 0.951 . S
C4090 C4091 1.366 . S
C4090 C4092 1.388 . S
C4091 C4090 1.366 . S
C4091 C4095 1.385 . S
C4092 H4073 0.951 . S
C4092 C4090 1.388 . S
C4092 C4093 1.366 . S
C4093 C4092 1.366 . S
C4093 C4094 1.414 . S
C4093 C4096 1.499 . S
C4094 H4074 0.950 . S
C4094 C4093 1.414 . S
C4094 C4095 1.374 . S
C4095 H4075 0.950 . S
C4095 C4091 1.385 . S
C4095 C4094 1.374 . S
C4096 C4093 1.499 . S
C4096 C4097 1.373 . S
C4096 C4098 1.389 . S
C4097 H4076 0.950 . S
C4097 C4096 1.373 . S
C4097 C4113 1.377 . S
C4098 C4096 1.389 . S
C4098 C4099 1.524 . S
C4098 C4112 1.377 . S
C4099 C4098 1.524 . S
C4099 C4100 1.397 . S
C4099 C4104 1.363 . S
C4100 H4077 0.950 . S
C4100 C4099 1.397 . S
C4100 C4101 1.334 . S
C4101 H4078 0.950 . S
C4101 C4100 1.334 . S
C4101 C4102 1.287 . S
C4102 C4101 1.287 . S
C4102 C4103 1.524 . S
C4102 H4121 0.913 . S
C4103 H4079 0.950 . S
C4103 C4102 1.524 . S
C4103 C4104 1.415 . S
C4104 H4080 0.950 . S
C4104 C4099 1.363 . S
C4104 C4103 1.415 . S
C4105 H4081 0.951 . S
C4105 C4106 1.366 . S
C4105 C4107 1.388 . S
C4106 C4105 1.366 . S
C4106 C4110 1.385 . S
C4107 H4082 0.951 . S
C4107 C4105 1.388 . S
C4107 C4108 1.366 . S
C4108 C4107 1.366 . S
C4108 C4109 1.414 . S
C4108 C4111 1.499 . S
C4109 H4083 0.950 . S
C4109 C4108 1.414 . S
C4109 C4110 1.374 . S
C4110 H4084 0.950 . S
C4110 C4106 1.385 . S
C4110 C4109 1.374 . S
C4111 C4108 1.499 . S
C4111 C4112 1.373 . S
C4111 C4113 1.389 . S
C4112 H4085 0.950 . S
C4112 C4098 1.377 . S
C4112 C4111 1.373 . S
C4113 C4097 1.377 . S
C4113 C4111 1.389 . S
C4113 C4114 1.524 . S
C4114 C4113 1.524 . S
C4114 C4115 1.397 . S
C4114 C4119 1.363 . S
C4115 H4086 0.950 . S
C4115 C4114 1.397 . S
C4115 C4116 1.334 . S
C4116 H4087 0.950 . S
C4116 C4115 1.334 . S
C4116 C4117 1.287 . S
C4117 C4116 1.287 . S
C4117 C4118 1.524 . S
C4117 H4120 0.999 . S
C4118 H4088 0.950 . S
C4118 C4117 1.524 . S
C4118 C4119 1.415 . S
C4119 H4089 0.950 . S
C4119 C4114 1.363 . S
C4119 C4118 1.415 . S
H4120 C4117 0.999 . S
H4121 C4102 0.913 . S
H4122 C4140 0.951 . S
H4123 C4142 0.951 . S
H4124 C4144 0.950 . S
H4125 C4145 0.950 . S
H4126 C4147 0.950 . S
H4127 C4150 0.950 . S
H4128 C4151 0.950 . S
H4129 C4153 0.950 . S
H4130 C4154 0.950 . S
H4131 C4155 0.951 . S
H4132 C4157 0.951 . S
H4133 C4159 0.950 . S
H4134 C4160 0.950 . S
H4135 C4162 0.950 . S
H4136 C4165 0.950 . S
H4137 C4166 0.950 . S
H4138 C4168 0.950 . S
H4139 C4169 0.950 . S
C4140 H4122 0.951 . S
C4140 C4141 1.366 . S
C4140 C4142 1.388 . S
C4141 C4140 1.366 . S
C4141 C4145 1.385 . S
C4142 H4123 0.951 . S
C4142 C4140 1.388 . S
C4142 C4143 1.366 . S
C4143 C4142 1.366 . S
C4143 C4144 1.414 . S
C4143 C4146 1.499 . S
C4144 H4124 0.950 . S
C4144 C4143 1.414 . S
C4144 C4145 1.374 . S
C4145 H4125 0.950 . S
C4145 C4141 1.385 . S
C4145 C4144 1.374 . S
C4146 C4143 1.499 . S
C4146 C4147 1.373 . S
C4146 C4148 1.389 . S
C4147 H4126 0.950 . S
C4147 C4146 1.373 . S
C4147 C4163 1.377 . S
C4148 C4146 1.389 . S
C4148 C4149 1.524 . S
C4148 C4162 1.377 . S
C4149 C4148 1.524 . S
C4149 C4150 1.397 . S
C4149 C4154 1.363 . S
C4150 H4127 0.950 . S
C4150 C4149 1.397 . S
C4150 C4151 1.334 . S
C4151 H4128 0.950 . S
C4151 C4150 1.334 . S
C4151 C4152 1.287 . S
C4152 C4151 1.287 . S
C4152 C4153 1.524 . S
C4152 H4171 0.913 . S
C4153 H4129 0.950 . S
C4153 C4152 1.524 . S
C4153 C4154 1.415 . S
C4154 H4130 0.950 . S
C4154 C4149 1.363 . S
C4154 C4153 1.415 . S
C4155 H4131 0.951 . S
C4155 C4156 1.366 . S
C4155 C4157 1.388 . S
C4156 C4155 1.366 . S
C4156 C4160 1.385 . S
C4157 H4132 0.951 . S
C4157 C4155 1.388 . S
C4157 C4158 1.366 . S
C4158 C4157 1.366 . S
C4158 C4159 1.414 . S
C4158 C4161 1.499 . S
C4159 H4133 0.950 . S
C4159 C4158 1.414 . S
C4159 C4160 1.374 . S
C4160 H4134 0.950 . S
C4160 C4156 1.385 . S
C4160 C4159 1.374 . S
C4161 C4158 1.499 . S
C4161 C4162 1.373 . S
C4161 C4163 1.389 . S
C4162 H4135 0.950 . S
C4162 C4148 1.377 . S
C4162 C4161 1.373 . S
C4163 C4147 1.377 . S
C4163 C4161 1.389 . S
C4163 C4164 1.524 . S
C4164 C4163 1.524 . S
C4164 C4165 1.397 . S
C4164 C4169 1.363 . S
C4165 H4136 0.950 . S
C4165 C4164 1.397 . S
C4165 C4166 1.334 . S
C4166 H4137 0.950 . S
C4166 C4165 1.334 . S
C4166 C4167 1.287 . S
C4167 C4166 1.287 . S
C4167 C4168 1.524 . S
C4167 H4170 0.999 . S
C4168 H4138 0.950 . S
C4168 C4167 1.524 . S
C4168 C4169 1.415 . S
C4169 H4139 0.950 . S
C4169 C4164 1.363 . S
C4169 C4168 1.415 . S
H4170 C4167 0.999 . S
H4171 C4152 0.913 . S
H4172 C4190 0.951 . S
H4173 C4192 0.951 . S
H4174 C4194 0.950 . S
H4175 C4195 0.950 . S
H4176 C4197 0.950 . S
H4177 C4200 0.950 . S
H4178 C4201 0.950 . S
H4179 C4203 0.950 . S
H4180 C4204 0.950 . S
H4181 C4205 0.951 . S
H4182 C4207 0.951 . S
H4183 C4209 0.950 . S
H4184 C4210 0.950 . S
H4185 C4212 0.950 . S
H4186 C4215 0.950 . S
H4187 C4216 0.950 . S
H4188 C4218 0.950 . S
H4189 C4219 0.950 . S
C4190 H4172 0.951 . S
C4190 C4191 1.366 . S
C4190 C4192 1.388 . S
C4191 C4190 1.366 . S
C4191 C4195 1.385 . S
C4192 H4173 0.951 . S
C4192 C4190 1.388 . S
C4192 C4193 1.366 . S
C4193 C4192 1.366 . S
C4193 C4194 1.414 . S
C4193 C4196 1.499 . S
C4194 H4174 0.950 . S
C4194 C4193 1.414 . S
C4194 C4195 1.374 . S
C4195 H4175 0.950 . S
C4195 C4191 1.385 . S
C4195 C4194 1.374 . S
C4196 C4193 1.499 . S
C4196 C4197 1.373 . S
C4196 C4198 1.389 . S
C4197 H4176 0.950 . S
C4197 C4196 1.373 . S
C4197 C4213 1.377 . S
C4198 C4196 1.389 . S
C4198 C4199 1.524 . S
C4198 C4212 1.377 . S
C4199 C4198 1.524 . S
C4199 C4200 1.397 1_556 S
C4199 C4204 1.363 . S
C4200 H4177 0.950 . S
C4200 C4199 1.397 1_554 S
C4200 C4201 1.334 . S
C4201 H4178 0.950 . S
C4201 C4200 1.334 . S
C4201 C4202 1.287 . S
C4202 C4201 1.287 . S
C4202 C4203 1.524 . S
C4202 H4221 0.913 . S
C4203 H4179 0.950 . S
C4203 C4202 1.524 . S
C4203 C4204 1.415 1_554 S
C4204 H4180 0.950 . S
C4204 C4199 1.363 . S
C4204 C4203 1.415 1_556 S
C4205 H4181 0.951 . S
C4205 C4206 1.366 . S
C4205 C4207 1.388 . S
C4206 C4205 1.366 . S
C4206 C4210 1.385 . S
C4207 H4182 0.951 . S
C4207 C4205 1.388 . S
C4207 C4208 1.366 . S
C4208 C4207 1.366 . S
C4208 C4209 1.414 . S
C4208 C4211 1.499 . S
C4209 H4183 0.950 . S
C4209 C4208 1.414 . S
C4209 C4210 1.374 . S
C4210 H4184 0.950 . S
C4210 C4206 1.385 . S
C4210 C4209 1.374 . S
C4211 C4208 1.499 . S
C4211 C4212 1.373 . S
C4211 C4213 1.389 . S
C4212 H4185 0.950 . S
C4212 C4198 1.377 . S
C4212 C4211 1.373 . S
C4213 C4197 1.377 . S
C4213 C4211 1.389 . S
C4213 C4214 1.524 . S
C4214 C4213 1.524 . S
C4214 C4215 1.397 . S
C4214 C4219 1.363 . S
C4215 H4186 0.950 . S
C4215 C4214 1.397 . S
C4215 C4216 1.334 . S
C4216 H4187 0.950 . S
C4216 C4215 1.334 . S
C4216 C4217 1.287 . S
C4217 C4216 1.287 . S
C4217 C4218 1.524 . S
C4217 H4220 0.999 . S
C4218 H4188 0.950 . S
C4218 C4217 1.524 . S
C4218 C4219 1.415 . S
C4219 H4189 0.950 . S
C4219 C4214 1.363 . S
C4219 C4218 1.415 . S
H4220 C4217 0.999 . S
H4221 C4202 0.913 . S
H4222 C4240 0.951 . S
H4223 C4242 0.951 . S
H4224 C4244 0.950 . S
H4225 C4245 0.950 . S
H4226 C4247 0.950 . S
H4227 C4250 0.950 . S
H4228 C4251 0.926 1_455 S
H4229 C4253 0.950 . S
H4230 C4254 0.950 . S
H4231 C4255 0.951 . S
H4232 C4257 0.951 . S
H4233 C4259 0.950 . S
H4234 C4260 0.950 . S
H4235 C4262 0.950 . S
H4236 C4265 0.950 . S
H4237 C4266 0.950 . S
H4238 C4268 0.950 . S
H4239 C4269 0.950 . S
C4240 H4222 0.951 . S
C4240 C4241 1.366 . S
C4240 C4242 1.388 . S
C4241 C4240 1.366 . S
C4241 C4245 1.385 . S
C4242 H4223 0.951 . S
C4242 C4240 1.388 . S
C4242 C4243 1.366 . S
C4243 C4242 1.366 . S
C4243 C4244 1.414 . S
C4243 C4246 1.499 . S
C4244 H4224 0.950 . S
C4244 C4243 1.414 . S
C4244 C4245 1.374 . S
C4245 H4225 0.950 . S
C4245 C4241 1.385 . S
C4245 C4244 1.374 . S
C4246 C4243 1.499 . S
C4246 C4247 1.373 . S
C4246 C4248 1.389 1_455 S
C4247 H4226 0.950 . S
C4247 C4246 1.373 . S
C4247 C4263 1.377 1_455 S
C4248 C4246 1.389 1_655 S
C4248 C4249 1.524 . S
C4248 C4262 1.377 . S
C4249 C4248 1.524 . S
C4249 C4250 1.397 1_655 S
C4249 C4254 1.363 . S
C4250 H4227 0.950 . S
C4250 C4249 1.397 1_455 S
C4250 C4251 1.331 1_455 S
C4251 H4228 0.926 1_655 S
C4251 C4250 1.331 1_655 S
C4251 C4252 1.315 . S
C4252 C4251 1.315 . S
C4252 C4253 1.524 . S
C4252 H4271 0.913 . S
C4253 H4229 0.950 . S
C4253 C4252 1.524 . S
C4253 C4254 1.415 . S
C4254 H4230 0.950 . S
C4254 C4249 1.363 . S
C4254 C4253 1.415 . S
C4255 H4231 0.951 . S
C4255 C4256 1.366 . S
C4255 C4257 1.388 . S
C4256 C4255 1.366 . S
C4256 C4260 1.385 . S
C4257 H4232 0.951 . S
C4257 C4255 1.388 . S
C4257 C4258 1.366 . S
C4258 C4257 1.366 . S
C4258 C4259 1.414 . S
C4258 C4261 1.499 . S
C4259 H4233 0.950 . S
C4259 C4258 1.414 . S
C4259 C4260 1.374 . S
C4260 H4234 0.950 . S
C4260 C4256 1.385 . S
C4260 C4259 1.374 . S
C4261 C4258 1.499 . S
C4261 C4262 1.373 . S
C4261 C4263 1.389 . S
C4262 H4235 0.950 . S
C4262 C4248 1.377 . S
C4262 C4261 1.373 . S
C4263 C4247 1.377 1_655 S
C4263 C4261 1.389 . S
C4263 C4264 1.524 . S
C4264 C4263 1.524 . S
C4264 C4265 1.397 . S
C4264 C4269 1.363 1_655 S
C4265 H4236 0.950 . S
C4265 C4264 1.397 . S
C4265 C4266 1.334 . S
C4266 H4237 0.950 . S
C4266 C4265 1.334 . S
C4266 C4267 1.287 1_655 S
C4267 C4266 1.287 1_455 S
C4267 C4268 1.524 . S
C4267 H4270 0.999 . S
C4268 H4238 0.950 . S
C4268 C4267 1.524 . S
C4268 C4269 1.415 . S
C4269 H4239 0.950 . S
C4269 C4264 1.363 1_455 S
C4269 C4268 1.415 . S
H4270 C4267 0.999 . S
H4271 C4252 0.913 . S
H4272 C4290 0.951 . S
H4273 C4292 0.951 . S
H4274 C4294 0.950 . S
H4275 C4295 0.950 . S
H4276 C4297 0.950 . S
H4277 C4300 0.950 . S
H4278 C4301 0.950 . S
H4279 C4303 0.950 . S
H4280 C4304 0.950 . S
H4281 C4305 0.951 . S
H4282 C4307 0.951 . S
H4283 C4309 0.950 . S
H4284 C4310 0.950 . S
H4285 C4312 0.950 . S
H4286 C4315 0.950 . S
H4287 C4316 0.950 . S
H4288 C4318 0.950 . S
H4289 C4319 0.950 . S
C4290 H4272 0.951 . S
C4290 C4291 1.366 . S
C4290 C4292 1.388 . S
C4291 C4290 1.366 . S
C4291 C4295 1.385 . S
C4292 H4273 0.951 . S
C4292 C4290 1.388 . S
C4292 C4293 1.366 . S
C4293 C4292 1.366 . S
C4293 C4294 1.414 . S
C4293 C4296 1.499 . S
C4294 H4274 0.950 . S
C4294 C4293 1.414 . S
C4294 C4295 1.374 . S
C4295 H4275 0.950 . S
C4295 C4291 1.385 . S
C4295 C4294 1.374 . S
C4296 C4293 1.499 . S
C4296 C4297 1.373 . S
C4296 C4298 1.389 . S
C4297 H4276 0.950 . S
C4297 C4296 1.373 . S
C4297 C4313 1.377 . S
C4298 C4296 1.389 . S
C4298 C4299 1.524 . S
C4298 C4312 1.377 . S
C4299 C4298 1.524 . S
C4299 C4300 1.397 . S
C4299 C4304 1.363 . S
C4300 H4277 0.950 . S
C4300 C4299 1.397 . S
C4300 C4301 1.334 . S
C4301 H4278 0.950 . S
C4301 C4300 1.334 . S
C4301 C4302 1.287 . S
C4302 C4301 1.287 . S
C4302 C4303 1.524 . S
C4302 H4321 0.913 . S
C4303 H4279 0.950 . S
C4303 C4302 1.524 . S
C4303 C4304 1.415 . S
C4304 H4280 0.950 . S
C4304 C4299 1.363 . S
C4304 C4303 1.415 . S
C4305 H4281 0.951 . S
C4305 C4306 1.366 . S
C4305 C4307 1.388 . S
C4306 C4305 1.366 . S
C4306 C4310 1.385 . S
C4307 H4282 0.951 . S
C4307 C4305 1.388 . S
C4307 C4308 1.366 . S
C4308 C4307 1.366 . S
C4308 C4309 1.414 . S
C4308 C4311 1.499 . S
C4309 H4283 0.950 . S
C4309 C4308 1.414 . S
C4309 C4310 1.374 . S
C4310 H4284 0.950 . S
C4310 C4306 1.385 . S
C4310 C4309 1.374 . S
C4311 C4308 1.499 . S
C4311 C4312 1.373 . S
C4311 C4313 1.389 . S
C4312 H4285 0.950 . S
C4312 C4298 1.377 . S
C4312 C4311 1.373 . S
C4313 C4297 1.377 . S
C4313 C4311 1.389 . S
C4313 C4314 1.524 . S
C4314 C4313 1.524 . S
C4314 C4315 1.397 . S
C4314 C4319 1.363 . S
C4315 H4286 0.950 . S
C4315 C4314 1.397 . S
C4315 C4316 1.334 . S
C4316 H4287 0.950 . S
C4316 C4315 1.334 . S
C4316 C4317 1.287 . S
C4317 C4316 1.287 . S
C4317 C4318 1.524 . S
C4317 H4320 0.999 . S
C4318 H4288 0.950 . S
C4318 C4317 1.524 . S
C4318 C4319 1.415 . S
C4319 H4289 0.950 . S
C4319 C4314 1.363 . S
C4319 C4318 1.415 . S
H4320 C4317 0.999 . S
H4321 C4302 0.913 . S
H4322 C4340 0.951 . S
H4323 C4342 0.951 . S
H4324 C4344 0.950 . S
H4325 C4345 0.950 . S
H4326 C4347 0.950 . S
H4327 C4350 0.950 . S
H4328 C4351 0.950 . S
H4329 C4353 0.950 . S
H4330 C4354 0.950 . S
H4331 C4355 0.951 . S
H4332 C4357 0.951 . S
H4333 C4359 0.950 . S
H4334 C4360 0.950 . S
H4335 C4362 0.950 . S
H4336 C4365 0.950 . S
H4337 C4366 0.950 . S
H4338 C4368 0.950 . S
H4339 C4369 0.950 . S
C4340 H4322 0.951 . S
C4340 C4341 1.366 . S
C4340 C4342 1.388 . S
C4341 C4340 1.366 . S
C4341 C4345 1.385 . S
C4342 H4323 0.951 . S
C4342 C4340 1.388 . S
C4342 C4343 1.366 . S
C4343 C4342 1.366 . S
C4343 C4344 1.414 . S
C4343 C4346 1.499 . S
C4344 H4324 0.950 . S
C4344 C4343 1.414 . S
C4344 C4345 1.374 . S
C4345 H4325 0.950 . S
C4345 C4341 1.385 . S
C4345 C4344 1.374 . S
C4346 C4343 1.499 . S
C4346 C4347 1.373 . S
C4346 C4348 1.389 . S
C4347 H4326 0.950 . S
C4347 C4346 1.373 . S
C4347 C4363 1.377 . S
C4348 C4346 1.389 . S
C4348 C4349 1.524 . S
C4348 C4362 1.377 . S
C4349 C4348 1.524 . S
C4349 C4350 1.397 . S
C4349 C4354 1.363 . S
C4350 H4327 0.950 . S
C4350 C4349 1.397 . S
C4350 C4351 1.334 . S
C4351 H4328 0.950 . S
C4351 C4350 1.334 . S
C4351 C4352 1.287 . S
C4352 C4351 1.287 . S
C4352 C4353 1.524 . S
C4352 H4371 0.913 . S
C4353 H4329 0.950 . S
C4353 C4352 1.524 . S
C4353 C4354 1.415 . S
C4354 H4330 0.950 . S
C4354 C4349 1.363 . S
C4354 C4353 1.415 . S
C4355 H4331 0.951 . S
C4355 C4356 1.366 . S
C4355 C4357 1.388 . S
C4356 C4355 1.366 . S
C4356 C4360 1.385 . S
C4357 H4332 0.951 . S
C4357 C4355 1.388 . S
C4357 C4358 1.366 . S
C4358 C4357 1.366 . S
C4358 C4359 1.414 . S
C4358 C4361 1.499 . S
C4359 H4333 0.950 . S
C4359 C4358 1.414 . S
C4359 C4360 1.374 . S
C4360 H4334 0.950 . S
C4360 C4356 1.385 . S
C4360 C4359 1.374 . S
C4361 C4358 1.499 . S
C4361 C4362 1.373 . S
C4361 C4363 1.389 . S
C4362 H4335 0.950 . S
C4362 C4348 1.377 . S
C4362 C4361 1.373 . S
C4363 C4347 1.377 . S
C4363 C4361 1.389 . S
C4363 C4364 1.524 . S
C4364 C4363 1.524 . S
C4364 C4365 1.397 . S
C4364 C4369 1.363 . S
C4365 H4336 0.950 . S
C4365 C4364 1.397 . S
C4365 C4366 1.334 . S
C4366 H4337 0.950 . S
C4366 C4365 1.334 . S
C4366 C4367 1.287 . S
C4367 C4366 1.287 . S
C4367 C4368 1.524 . S
C4367 H4370 0.999 . S
C4368 H4338 0.950 . S
C4368 C4367 1.524 . S
C4368 C4369 1.415 . S
C4369 H4339 0.950 . S
C4369 C4364 1.363 . S
C4369 C4368 1.415 . S
H4370 C4367 0.999 . S
H4371 C4352 0.913 . S
H4372 C4390 0.951 . S
H4373 C4392 0.951 . S
H4374 C4394 0.950 . S
H4375 C4395 0.950 . S
H4376 C4397 0.950 . S
H4377 C4400 0.950 . S
H4378 C4401 0.950 . S
H4379 C4403 0.950 . S
H4380 C4404 0.950 . S
H4381 C4405 0.951 . S
H4382 C4407 0.951 . S
H4383 C4409 0.950 . S
H4384 C4410 0.950 . S
H4385 C4412 0.950 . S
H4386 C4415 0.950 . S
H4387 C4416 0.950 . S
H4388 C4418 0.950 . S
H4389 C4419 0.950 . S
C4390 H4372 0.951 . S
C4390 C4391 1.366 . S
C4390 C4392 1.388 . S
C4391 C4390 1.366 . S
C4391 C4395 1.385 . S
C4392 H4373 0.951 . S
C4392 C4390 1.388 . S
C4392 C4393 1.366 . S
C4393 C4392 1.366 . S
C4393 C4394 1.414 . S
C4393 C4396 1.499 . S
C4394 H4374 0.950 . S
C4394 C4393 1.414 . S
C4394 C4395 1.374 . S
C4395 H4375 0.950 . S
C4395 C4391 1.385 . S
C4395 C4394 1.374 . S
C4396 C4393 1.499 . S
C4396 C4397 1.373 . S
C4396 C4398 1.389 . S
C4397 H4376 0.950 . S
C4397 C4396 1.373 . S
C4397 C4413 1.377 . S
C4398 C4396 1.389 . S
C4398 C4399 1.524 . S
C4398 C4412 1.377 . S
C4399 C4398 1.524 . S
C4399 C4400 1.397 . S
C4399 C4404 1.363 . S
C4400 H4377 0.950 . S
C4400 C4399 1.397 . S
C4400 C4401 1.334 . S
C4401 H4378 0.950 . S
C4401 C4400 1.334 . S
C4401 C4402 1.287 . S
C4402 C4401 1.287 . S
C4402 C4403 1.524 . S
C4402 H4421 0.913 . S
C4403 H4379 0.950 . S
C4403 C4402 1.524 . S
C4403 C4404 1.415 . S
C4404 H4380 0.950 . S
C4404 C4399 1.363 . S
C4404 C4403 1.415 . S
C4405 H4381 0.951 . S
C4405 C4406 1.366 . S
C4405 C4407 1.388 . S
C4406 C4405 1.366 . S
C4406 C4410 1.385 . S
C4407 H4382 0.951 . S
C4407 C4405 1.388 . S
C4407 C4408 1.366 . S
C4408 C4407 1.366 . S
C4408 C4409 1.414 . S
C4408 C4411 1.499 . S
C4409 H4383 0.950 . S
C4409 C4408 1.414 . S
C4409 C4410 1.374 . S
C4410 H4384 0.950 . S
C4410 C4406 1.385 . S
C4410 C4409 1.374 . S
C4411 C4408 1.499 . S
C4411 C4412 1.373 . S
C4411 C4413 1.389 . S
C4412 H4385 0.950 . S
C4412 C4398 1.377 . S
C4412 C4411 1.373 . S
C4413 C4397 1.377 . S
C4413 C4411 1.389 . S
C4413 C4414 1.524 . S
C4414 C4413 1.524 . S
C4414 C4415 1.397 . S
C4414 C4419 1.363 . S
C4415 H4386 0.950 . S
C4415 C4414 1.397 . S
C4415 C4416 1.334 . S
C4416 H4387 0.950 . S
C4416 C4415 1.334 . S
C4416 C4417 1.287 . S
C4417 C4416 1.287 . S
C4417 C4418 1.524 . S
C4417 H4420 0.999 . S
C4418 H4388 0.950 . S
C4418 C4417 1.524 . S
C4418 C4419 1.415 . S
C4419 H4389 0.950 . S
C4419 C4414 1.363 . S
C4419 C4418 1.415 . S
H4420 C4417 0.999 . S
H4421 C4402 0.913 . S
H4422 C4440 0.951 . S
H4423 C4442 0.951 . S
H4424 C4444 0.950 . S
H4425 C4445 0.950 . S
H4426 C4447 0.950 . S
H4427 C4450 0.950 . S
H4428 C4451 0.950 . S
H4429 C4453 0.950 . S
H4430 C4454 0.950 . S
H4431 C4455 0.951 . S
H4432 C4457 0.951 . S
H4433 C4459 0.950 . S
H4434 C4460 0.950 . S
H4435 C4462 0.950 . S
H4436 C4465 0.950 . S
H4437 C4466 0.950 . S
H4438 C4468 0.950 . S
H4439 C4469 0.950 . S
C4440 H4422 0.951 . S
C4440 C4441 1.366 . S
C4440 C4442 1.388 . S
C4441 C4440 1.366 . S
C4441 C4445 1.385 . S
C4442 H4423 0.951 . S
C4442 C4440 1.388 . S
C4442 C4443 1.366 . S
C4443 C4442 1.366 . S
C4443 C4444 1.414 . S
C4443 C4446 1.499 . S
C4444 H4424 0.950 . S
C4444 C4443 1.414 . S
C4444 C4445 1.374 . S
C4445 H4425 0.950 . S
C4445 C4441 1.385 . S
C4445 C4444 1.374 . S
C4446 C4443 1.499 . S
C4446 C4447 1.373 . S
C4446 C4448 1.389 . S
C4447 H4426 0.950 . S
C4447 C4446 1.373 . S
C4447 C4463 1.377 . S
C4448 C4446 1.389 . S
C4448 C4449 1.524 . S
C4448 C4462 1.377 . S
C4449 C4448 1.524 . S
C4449 C4450 1.397 . S
C4449 C4454 1.363 . S
C4450 H4427 0.950 . S
C4450 C4449 1.397 . S
C4450 C4451 1.334 . S
C4451 H4428 0.950 . S
C4451 C4450 1.334 . S
C4451 C4452 1.287 . S
C4452 C4451 1.287 . S
C4452 C4453 1.524 . S
C4452 H4471 0.913 . S
C4453 H4429 0.950 . S
C4453 C4452 1.524 . S
C4453 C4454 1.415 . S
C4454 H4430 0.950 . S
C4454 C4449 1.363 . S
C4454 C4453 1.415 . S
C4455 H4431 0.951 . S
C4455 C4456 1.366 . S
C4455 C4457 1.388 . S
C4456 C4455 1.366 . S
C4456 C4460 1.385 . S
C4457 H4432 0.951 . S
C4457 C4455 1.388 . S
C4457 C4458 1.366 . S
C4458 C4457 1.366 . S
C4458 C4459 1.414 . S
C4458 C4461 1.499 . S
C4459 H4433 0.950 . S
C4459 C4458 1.414 . S
C4459 C4460 1.374 . S
C4460 H4434 0.950 . S
C4460 C4456 1.385 . S
C4460 C4459 1.374 . S
C4461 C4458 1.499 . S
C4461 C4462 1.373 . S
C4461 C4463 1.389 . S
C4462 H4435 0.950 . S
C4462 C4448 1.377 . S
C4462 C4461 1.373 . S
C4463 C4447 1.377 . S
C4463 C4461 1.389 . S
C4463 C4464 1.524 . S
C4464 C4463 1.524 . S
C4464 C4465 1.397 . S
C4464 C4469 1.363 . S
C4465 H4436 0.950 . S
C4465 C4464 1.397 . S
C4465 C4466 1.334 . S
C4466 H4437 0.950 . S
C4466 C4465 1.334 . S
C4466 C4467 1.287 . S
C4467 C4466 1.287 . S
C4467 C4468 1.524 . S
C4467 H4470 0.999 . S
C4468 H4438 0.950 . S
C4468 C4467 1.524 . S
C4468 C4469 1.415 . S
C4469 H4439 0.950 . S
C4469 C4464 1.363 . S
C4469 C4468 1.415 . S
H4470 C4467 0.999 . S
H4471 C4452 0.913 . S
H4472 C4490 0.951 . S
H4473 C4492 0.951 . S
H4474 C4494 0.950 . S
H4475 C4495 0.950 . S
H4476 C4497 0.950 . S
H4477 C4500 0.950 . S
H4478 C4501 0.950 . S
H4479 C4503 0.950 . S
H4480 C4504 0.950 . S
H4481 C4505 0.951 . S
H4482 C4507 0.951 . S
H4483 C4509 0.950 . S
H4484 C4510 0.950 . S
H4485 C4512 0.950 . S
H4486 C4515 0.950 . S
H4487 C4516 0.950 . S
H4488 C4518 0.950 . S
H4489 C4519 0.950 . S
C4490 H4472 0.951 . S
C4490 C4491 1.366 . S
C4490 C4492 1.388 . S
C4491 C4490 1.366 . S
C4491 C4495 1.385 . S
C4492 H4473 0.951 . S
C4492 C4490 1.388 . S
C4492 C4493 1.366 . S
C4493 C4492 1.366 . S
C4493 C4494 1.414 . S
C4493 C4496 1.499 . S
C4494 H4474 0.950 . S
C4494 C4493 1.414 . S
C4494 C4495 1.374 . S
C4495 H4475 0.950 . S
C4495 C4491 1.385 . S
C4495 C4494 1.374 . S
C4496 C4493 1.499 . S
C4496 C4497 1.373 . S
C4496 C4498 1.389 . S
C4497 H4476 0.950 . S
C4497 C4496 1.373 . S
C4497 C4513 1.377 . S
C4498 C4496 1.389 . S
C4498 C4499 1.524 . S
C4498 C4512 1.377 . S
C4499 C4498 1.524 . S
C4499 C4500 1.397 . S
C4499 C4504 1.363 . S
C4500 H4477 0.950 . S
C4500 C4499 1.397 . S
C4500 C4501 1.334 . S
C4501 H4478 0.950 . S
C4501 C4500 1.334 . S
C4501 C4502 1.287 . S
C4502 C4501 1.287 . S
C4502 C4503 1.524 . S
C4502 H4521 0.913 . S
C4503 H4479 0.950 . S
C4503 C4502 1.524 . S
C4503 C4504 1.415 . S
C4504 H4480 0.950 . S
C4504 C4499 1.363 . S
C4504 C4503 1.415 . S
C4505 H4481 0.951 . S
C4505 C4506 1.366 . S
C4505 C4507 1.388 . S
C4506 C4505 1.366 . S
C4506 C4510 1.385 . S
C4507 H4482 0.951 . S
C4507 C4505 1.388 . S
C4507 C4508 1.366 . S
C4508 C4507 1.366 . S
C4508 C4509 1.414 . S
C4508 C4511 1.499 . S
C4509 H4483 0.950 . S
C4509 C4508 1.414 . S
C4509 C4510 1.374 . S
C4510 H4484 0.950 . S
C4510 C4506 1.385 . S
C4510 C4509 1.374 . S
C4511 C4508 1.499 . S
C4511 C4512 1.373 . S
C4511 C4513 1.389 . S
C4512 H4485 0.950 . S
C4512 C4498 1.377 . S
C4512 C4511 1.373 . S
C4513 C4497 1.377 . S
C4513 C4511 1.389 . S
C4513 C4514 1.524 . S
C4514 C4513 1.524 . S
C4514 C4515 1.397 . S
C4514 C4519 1.363 . S
C4515 H4486 0.950 . S
C4515 C4514 1.397 . S
C4515 C4516 1.334 . S
C4516 H4487 0.950 . S
C4516 C4515 1.334 . S
C4516 C4517 1.287 . S
C4517 C4516 1.287 . S
C4517 C4518 1.524 . S
C4517 H4520 0.999 . S
C4518 H4488 0.950 . S
C4518 C4517 1.524 . S
C4518 C4519 1.415 . S
C4519 H4489 0.950 . S
C4519 C4514 1.363 . S
C4519 C4518 1.415 . S
H4520 C4517 0.999 . S
H4521 C4502 0.913 . S
H4522 C4540 0.951 . S
H4523 C4542 0.951 . S
H4524 C4544 0.950 . S
H4525 C4545 0.950 . S
H4526 C4547 0.950 . S
H4527 C4550 0.950 . S
H4528 C4551 0.950 . S
H4529 C4553 0.950 . S
H4530 C4554 0.950 . S
H4531 C4555 0.951 . S
H4532 C4557 0.951 . S
H4533 C4559 0.950 . S
H4534 C4560 0.950 . S
H4535 C4562 0.950 . S
H4536 C4565 0.950 . S
H4537 C4566 0.950 . S
H4538 C4568 0.950 . S
H4539 C4569 0.950 . S
C4540 H4522 0.951 . S
C4540 C4541 1.366 . S
C4540 C4542 1.388 . S
C4541 C4540 1.366 . S
C4541 C4545 1.385 . S
C4542 H4523 0.951 . S
C4542 C4540 1.388 . S
C4542 C4543 1.366 . S
C4543 C4542 1.366 . S
C4543 C4544 1.414 . S
C4543 C4546 1.499 . S
C4544 H4524 0.950 . S
C4544 C4543 1.414 . S
C4544 C4545 1.374 . S
C4545 H4525 0.950 . S
C4545 C4541 1.385 . S
C4545 C4544 1.374 . S
C4546 C4543 1.499 . S
C4546 C4547 1.373 . S
C4546 C4548 1.389 . S
C4547 H4526 0.950 . S
C4547 C4546 1.373 . S
C4547 C4563 1.377 . S
C4548 C4546 1.389 . S
C4548 C4549 1.524 . S
C4548 C4562 1.377 . S
C4549 C4548 1.524 . S
C4549 C4550 1.397 . S
C4549 C4554 1.363 . S
C4550 H4527 0.950 . S
C4550 C4549 1.397 . S
C4550 C4551 1.334 . S
C4551 H4528 0.950 . S
C4551 C4550 1.334 . S
C4551 C4552 1.287 . S
C4552 C4551 1.287 . S
C4552 C4553 1.524 . S
C4552 H4571 0.913 . S
C4553 H4529 0.950 . S
C4553 C4552 1.524 . S
C4553 C4554 1.415 . S
C4554 H4530 0.950 . S
C4554 C4549 1.363 . S
C4554 C4553 1.415 . S
C4555 H4531 0.951 . S
C4555 C4556 1.366 . S
C4555 C4557 1.388 . S
C4556 C4555 1.366 . S
C4556 C4560 1.385 . S
C4557 H4532 0.951 . S
C4557 C4555 1.388 . S
C4557 C4558 1.366 . S
C4558 C4557 1.366 . S
C4558 C4559 1.414 . S
C4558 C4561 1.499 . S
C4559 H4533 0.950 . S
C4559 C4558 1.414 . S
C4559 C4560 1.374 . S
C4560 H4534 0.950 . S
C4560 C4556 1.385 . S
C4560 C4559 1.374 . S
C4561 C4558 1.499 . S
C4561 C4562 1.373 . S
C4561 C4563 1.389 . S
C4562 H4535 0.950 . S
C4562 C4548 1.377 . S
C4562 C4561 1.373 . S
C4563 C4547 1.377 . S
C4563 C4561 1.389 . S
C4563 C4564 1.524 . S
C4564 C4563 1.524 . S
C4564 C4565 1.397 . S
C4564 C4569 1.363 . S
C4565 H4536 0.950 . S
C4565 C4564 1.397 . S
C4565 C4566 1.334 . S
C4566 H4537 0.950 . S
C4566 C4565 1.334 . S
C4566 C4567 1.287 . S
C4567 C4566 1.287 . S
C4567 C4568 1.524 . S
C4567 H4570 0.999 . S
C4568 H4538 0.950 . S
C4568 C4567 1.524 . S
C4568 C4569 1.415 . S
C4569 H4539 0.950 . S
C4569 C4564 1.363 . S
C4569 C4568 1.415 . S
H4570 C4567 0.999 . S
H4571 C4552 0.913 . S
H4572 C4590 0.951 . S
H4573 C4592 0.951 . S
H4574 C4594 0.950 . S
H4575 C4595 0.950 . S
H4576 C4597 0.950 . S
H4577 C4600 0.950 . S
H4578 C4601 0.950 . S
H4579 C4603 0.950 . S
H4580 C4604 0.950 . S
H4581 C4605 0.951 . S
H4582 C4607 0.951 . S
H4583 C4609 0.950 . S
H4584 C4610 0.950 . S
H4585 C4612 0.950 . S
H4586 C4615 0.950 . S
H4587 C4616 0.950 . S
H4588 C4618 0.950 . S
H4589 C4619 0.950 . S
C4590 H4572 0.951 . S
C4590 C4591 1.366 . S
C4590 C4592 1.388 . S
C4591 C4590 1.366 . S
C4591 C4595 1.385 . S
C4592 H4573 0.951 . S
C4592 C4590 1.388 . S
C4592 C4593 1.366 . S
C4593 C4592 1.366 . S
C4593 C4594 1.414 . S
C4593 C4596 1.499 . S
C4594 H4574 0.950 . S
C4594 C4593 1.414 . S
C4594 C4595 1.374 . S
C4595 H4575 0.950 . S
C4595 C4591 1.385 . S
C4595 C4594 1.374 . S
C4596 C4593 1.499 . S
C4596 C4597 1.373 . S
C4596 C4598 1.389 . S
C4597 H4576 0.950 . S
C4597 C4596 1.373 . S
C4597 C4613 1.377 . S
C4598 C4596 1.389 . S
C4598 C4599 1.524 . S
C4598 C4612 1.377 . S
C4599 C4598 1.524 . S
C4599 C4600 1.397 . S
C4599 C4604 1.363 . S
C4600 H4577 0.950 . S
C4600 C4599 1.397 . S
C4600 C4601 1.334 . S
C4601 H4578 0.950 . S
C4601 C4600 1.334 . S
C4601 C4602 1.287 . S
C4602 C4601 1.287 . S
C4602 C4603 1.524 . S
C4602 H4621 0.913 . S
C4603 H4579 0.950 . S
C4603 C4602 1.524 . S
C4603 C4604 1.415 . S
C4604 H4580 0.950 . S
C4604 C4599 1.363 . S
C4604 C4603 1.415 . S
C4605 H4581 0.951 . S
C4605 C4606 1.366 . S
C4605 C4607 1.388 . S
C4606 C4605 1.366 . S
C4606 C4610 1.385 . S
C4607 H4582 0.951 . S
C4607 C4605 1.388 . S
C4607 C4608 1.366 . S
C4608 C4607 1.366 . S
C4608 C4609 1.414 . S
C4608 C4611 1.499 . S
C4609 H4583 0.950 . S
C4609 C4608 1.414 . S
C4609 C4610 1.374 . S
C4610 H4584 0.950 . S
C4610 C4606 1.385 . S
C4610 C4609 1.374 . S
C4611 C4608 1.499 . S
C4611 C4612 1.373 . S
C4611 C4613 1.389 . S
C4612 H4585 0.950 . S
C4612 C4598 1.377 . S
C4612 C4611 1.373 . S
C4613 C4597 1.377 . S
C4613 C4611 1.389 . S
C4613 C4614 1.524 . S
C4614 C4613 1.524 . S
C4614 C4615 1.397 . S
C4614 C4619 1.363 . S
C4615 H4586 0.950 . S
C4615 C4614 1.397 . S
C4615 C4616 1.334 . S
C4616 H4587 0.950 . S
C4616 C4615 1.334 . S
C4616 C4617 1.287 . S
C4617 C4616 1.287 . S
C4617 C4618 1.524 . S
C4617 H4620 0.999 . S
C4618 H4588 0.950 . S
C4618 C4617 1.524 . S
C4618 C4619 1.415 . S
C4619 H4589 0.950 . S
C4619 C4614 1.363 . S
C4619 C4618 1.415 . S
H4620 C4617 0.999 . S
H4621 C4602 0.913 . S
H4622 C4640 0.951 . S
H4623 C4642 0.951 . S
H4624 C4644 0.950 . S
H4625 C4645 0.950 . S
H4626 C4647 0.950 . S
H4627 C4650 0.950 . S
H4628 C4651 0.950 . S
H4629 C4653 0.950 . S
H4630 C4654 0.950 . S
H4631 C4655 0.951 . S
H4632 C4657 0.951 . S
H4633 C4659 0.950 . S
H4634 C4660 0.950 . S
H4635 C4662 0.950 . S
H4636 C4665 0.950 . S
H4637 C4666 0.950 . S
H4638 C4668 0.950 . S
H4639 C4669 0.950 . S
C4640 H4622 0.951 . S
C4640 C4641 1.366 . S
C4640 C4642 1.388 . S
C4641 C4640 1.366 . S
C4641 C4645 1.385 . S
C4642 H4623 0.951 . S
C4642 C4640 1.388 . S
C4642 C4643 1.366 . S
C4643 C4642 1.366 . S
C4643 C4644 1.414 . S
C4643 C4646 1.499 . S
C4644 H4624 0.950 . S
C4644 C4643 1.414 . S
C4644 C4645 1.374 . S
C4645 H4625 0.950 . S
C4645 C4641 1.385 . S
C4645 C4644 1.374 . S
C4646 C4643 1.499 . S
C4646 C4647 1.373 . S
C4646 C4648 1.389 . S
C4647 H4626 0.950 . S
C4647 C4646 1.373 . S
C4647 C4663 1.377 . S
C4648 C4646 1.389 . S
C4648 C4649 1.524 . S
C4648 C4662 1.377 . S
C4649 C4648 1.524 . S
C4649 C4650 1.397 . S
C4649 C4654 1.363 . S
C4650 H4627 0.950 . S
C4650 C4649 1.397 . S
C4650 C4651 1.334 . S
C4651 H4628 0.950 . S
C4651 C4650 1.334 . S
C4651 C4652 1.287 . S
C4652 C4651 1.287 . S
C4652 C4653 1.524 . S
C4652 H4671 0.913 . S
C4653 H4629 0.950 . S
C4653 C4652 1.524 . S
C4653 C4654 1.415 . S
C4654 H4630 0.950 . S
C4654 C4649 1.363 . S
C4654 C4653 1.415 . S
C4655 H4631 0.951 . S
C4655 C4656 1.366 . S
C4655 C4657 1.388 . S
C4656 C4655 1.366 . S
C4656 C4660 1.385 . S
C4657 H4632 0.951 . S
C4657 C4655 1.388 . S
C4657 C4658 1.366 . S
C4658 C4657 1.366 . S
C4658 C4659 1.414 . S
C4658 C4661 1.499 . S
C4659 H4633 0.950 . S
C4659 C4658 1.414 . S
C4659 C4660 1.374 . S
C4660 H4634 0.950 . S
C4660 C4656 1.385 . S
C4660 C4659 1.374 . S
C4661 C4658 1.499 . S
C4661 C4662 1.373 . S
C4661 C4663 1.389 . S
C4662 H4635 0.950 . S
C4662 C4648 1.377 . S
C4662 C4661 1.373 . S
C4663 C4647 1.377 . S
C4663 C4661 1.389 . S
C4663 C4664 1.524 . S
C4664 C4663 1.524 . S
C4664 C4665 1.397 . S
C4664 C4669 1.363 . S
C4665 H4636 0.950 . S
C4665 C4664 1.397 . S
C4665 C4666 1.334 . S
C4666 H4637 0.950 . S
C4666 C4665 1.334 . S
C4666 C4667 1.287 . S
C4667 C4666 1.287 . S
C4667 C4668 1.524 . S
C4667 H4670 0.999 . S
C4668 H4638 0.950 . S
C4668 C4667 1.524 . S
C4668 C4669 1.415 . S
C4669 H4639 0.950 . S
C4669 C4664 1.363 . S
C4669 C4668 1.415 . S
H4670 C4667 0.999 . S
H4671 C4652 0.913 . S
H4672 C4690 0.951 . S
H4673 C4692 0.951 . S
H4674 C4694 0.950 . S
H4675 C4695 0.950 . S
H4676 C4697 0.950 . S
H4677 C4700 0.950 . S
H4678 C4701 0.950 . S
H4679 C4703 0.950 . S
H4680 C4704 0.950 . S
H4681 C4705 0.951 . S
H4682 C4707 0.951 . S
H4683 C4709 0.950 . S
H4684 C4710 0.950 . S
H4685 C4712 0.950 . S
H4686 C4715 0.950 . S
H4687 C4716 0.950 . S
H4688 C4718 0.950 . S
H4689 C4719 0.950 . S
C4690 H4672 0.951 . S
C4690 C4691 1.366 . S
C4690 C4692 1.388 . S
C4691 C4690 1.366 . S
C4691 C4695 1.385 . S
C4692 H4673 0.951 . S
C4692 C4690 1.388 . S
C4692 C4693 1.366 . S
C4693 C4692 1.366 . S
C4693 C4694 1.414 . S
C4693 C4696 1.499 . S
C4694 H4674 0.950 . S
C4694 C4693 1.414 . S
C4694 C4695 1.374 . S
C4695 H4675 0.950 . S
C4695 C4691 1.385 . S
C4695 C4694 1.374 . S
C4696 C4693 1.499 . S
C4696 C4697 1.373 . S
C4696 C4698 1.389 . S
C4697 H4676 0.950 . S
C4697 C4696 1.373 . S
C4697 C4713 1.377 . S
C4698 C4696 1.389 . S
C4698 C4699 1.524 . S
C4698 C4712 1.377 . S
C4699 C4698 1.524 . S
C4699 C4700 1.397 . S
C4699 C4704 1.363 . S
C4700 H4677 0.950 . S
C4700 C4699 1.397 . S
C4700 C4701 1.334 . S
C4701 H4678 0.950 . S
C4701 C4700 1.334 . S
C4701 C4702 1.287 . S
C4702 C4701 1.287 . S
C4702 C4703 1.524 . S
C4702 H4721 0.913 . S
C4703 H4679 0.950 . S
C4703 C4702 1.524 . S
C4703 C4704 1.415 . S
C4704 H4680 0.950 . S
C4704 C4699 1.363 . S
C4704 C4703 1.415 . S
C4705 H4681 0.951 . S
C4705 C4706 1.366 . S
C4705 C4707 1.388 . S
C4706 C4705 1.366 . S
C4706 C4710 1.385 . S
C4707 H4682 0.951 . S
C4707 C4705 1.388 . S
C4707 C4708 1.366 . S
C4708 C4707 1.366 . S
C4708 C4709 1.414 . S
C4708 C4711 1.499 . S
C4709 H4683 0.950 . S
C4709 C4708 1.414 . S
C4709 C4710 1.374 . S
C4710 H4684 0.950 . S
C4710 C4706 1.385 . S
C4710 C4709 1.374 . S
C4711 C4708 1.499 . S
C4711 C4712 1.373 . S
C4711 C4713 1.389 . S
C4712 H4685 0.950 . S
C4712 C4698 1.377 . S
C4712 C4711 1.373 . S
C4713 C4697 1.377 . S
C4713 C4711 1.389 . S
C4713 C4714 1.524 . S
C4714 C4713 1.524 . S
C4714 C4715 1.397 . S
C4714 C4719 1.363 . S
C4715 H4686 0.950 . S
C4715 C4714 1.397 . S
C4715 C4716 1.334 . S
C4716 H4687 0.950 . S
C4716 C4715 1.334 . S
C4716 C4717 1.287 . S
C4717 C4716 1.287 . S
C4717 C4718 1.524 . S
C4717 H4720 0.999 . S
C4718 H4688 0.950 . S
C4718 C4717 1.524 . S
C4718 C4719 1.415 . S
C4719 H4689 0.950 . S
C4719 C4714 1.363 . S
C4719 C4718 1.415 . S
H4720 C4717 0.999 . S
H4721 C4702 0.913 . S
H4722 C4740 0.951 . S
H4723 C4742 0.951 . S
H4724 C4744 0.950 . S
H4725 C4745 0.950 . S
H4726 C4747 0.950 . S
H4727 C4750 0.950 . S
H4728 C4751 0.950 . S
H4729 C4753 0.950 . S
H4730 C4754 0.950 . S
H4731 C4755 0.951 . S
H4732 C4757 0.951 . S
H4733 C4759 0.950 . S
H4734 C4760 0.950 . S
H4735 C4762 0.950 . S
H4736 C4765 0.950 . S
H4737 C4766 0.950 . S
H4738 C4768 0.950 . S
H4739 C4769 0.950 . S
C4740 H4722 0.951 . S
C4740 C4741 1.366 . S
C4740 C4742 1.388 . S
C4741 C4740 1.366 . S
C4741 C4745 1.385 . S
C4742 H4723 0.951 . S
C4742 C4740 1.388 . S
C4742 C4743 1.366 . S
C4743 C4742 1.366 . S
C4743 C4744 1.414 . S
C4743 C4746 1.499 . S
C4744 H4724 0.950 . S
C4744 C4743 1.414 . S
C4744 C4745 1.374 . S
C4745 H4725 0.950 . S
C4745 C4741 1.385 . S
C4745 C4744 1.374 . S
C4746 C4743 1.499 . S
C4746 C4747 1.373 . S
C4746 C4748 1.389 . S
C4747 H4726 0.950 . S
C4747 C4746 1.373 . S
C4747 C4763 1.377 . S
C4748 C4746 1.389 . S
C4748 C4749 1.524 . S
C4748 C4762 1.377 . S
C4749 C4748 1.524 . S
C4749 C4750 1.397 . S
C4749 C4754 1.363 . S
C4750 H4727 0.950 . S
C4750 C4749 1.397 . S
C4750 C4751 1.334 . S
C4751 H4728 0.950 . S
C4751 C4750 1.334 . S
C4751 C4752 1.287 . S
C4752 C4751 1.287 . S
C4752 C4753 1.524 . S
C4752 H4771 0.913 . S
C4753 H4729 0.950 . S
C4753 C4752 1.524 . S
C4753 C4754 1.415 . S
C4754 H4730 0.950 . S
C4754 C4749 1.363 . S
C4754 C4753 1.415 . S
C4755 H4731 0.951 . S
C4755 C4756 1.366 . S
C4755 C4757 1.388 . S
C4756 C4755 1.366 . S
C4756 C4760 1.385 . S
C4757 H4732 0.951 . S
C4757 C4755 1.388 . S
C4757 C4758 1.366 . S
C4758 C4757 1.366 . S
C4758 C4759 1.414 . S
C4758 C4761 1.499 . S
C4759 H4733 0.950 . S
C4759 C4758 1.414 . S
C4759 C4760 1.374 . S
C4760 H4734 0.950 . S
C4760 C4756 1.385 . S
C4760 C4759 1.374 . S
C4761 C4758 1.499 . S
C4761 C4762 1.373 . S
C4761 C4763 1.389 . S
C4762 H4735 0.950 . S
C4762 C4748 1.377 . S
C4762 C4761 1.373 . S
C4763 C4747 1.377 . S
C4763 C4761 1.389 . S
C4763 C4764 1.524 . S
C4764 C4763 1.524 . S
C4764 C4765 1.397 . S
C4764 C4769 1.363 . S
C4765 H4736 0.950 . S
C4765 C4764 1.397 . S
C4765 C4766 1.334 . S
C4766 H4737 0.950 . S
C4766 C4765 1.334 . S
C4766 C4767 1.287 . S
C4767 C4766 1.287 . S
C4767 C4768 1.524 . S
C4767 H4770 0.999 . S
C4768 H4738 0.950 . S
C4768 C4767 1.524 . S
C4768 C4769 1.415 . S
C4769 H4739 0.950 . S
C4769 C4764 1.363 . S
C4769 C4768 1.415 . S
H4770 C4767 0.999 . S
H4771 C4752 0.913 . S
H4772 C4790 0.951 . S
H4773 C4792 0.951 . S
H4774 C4794 0.950 . S
H4775 C4795 0.950 . S
H4776 C4797 0.950 . S
H4777 C4800 0.950 . S
H4778 C4801 0.950 . S
H4779 C4803 0.950 . S
H4780 C4804 0.950 . S
H4781 C4805 0.951 . S
H4782 C4807 0.951 . S
H4783 C4809 0.950 . S
H4784 C4810 0.950 . S
H4785 C4812 0.950 . S
H4786 C4815 0.950 . S
H4787 C4816 0.950 . S
H4788 C4818 0.950 . S
H4789 C4819 0.950 . S
C4790 H4772 0.951 . S
C4790 C4791 1.366 . S
C4790 C4792 1.388 . S
C4791 C4790 1.366 . S
C4791 C4795 1.385 . S
C4792 H4773 0.951 . S
C4792 C4790 1.388 . S
C4792 C4793 1.366 . S
C4793 C4792 1.366 . S
C4793 C4794 1.414 . S
C4793 C4796 1.499 . S
C4794 H4774 0.950 . S
C4794 C4793 1.414 . S
C4794 C4795 1.374 . S
C4795 H4775 0.950 . S
C4795 C4791 1.385 . S
C4795 C4794 1.374 . S
C4796 C4793 1.499 . S
C4796 C4797 1.373 . S
C4796 C4798 1.389 . S
C4797 H4776 0.950 . S
C4797 C4796 1.373 . S
C4797 C4813 1.377 . S
C4798 C4796 1.389 . S
C4798 C4799 1.524 . S
C4798 C4812 1.377 . S
C4799 C4798 1.524 . S
C4799 C4800 1.397 . S
C4799 C4804 1.363 . S
C4800 H4777 0.950 . S
C4800 C4799 1.397 . S
C4800 C4801 1.334 . S
C4801 H4778 0.950 . S
C4801 C4800 1.334 . S
C4801 C4802 1.287 . S
C4802 C4801 1.287 . S
C4802 C4803 1.524 . S
C4802 H4821 0.913 . S
C4803 H4779 0.950 . S
C4803 C4802 1.524 . S
C4803 C4804 1.415 . S
C4804 H4780 0.950 . S
C4804 C4799 1.363 . S
C4804 C4803 1.415 . S
C4805 H4781 0.951 . S
C4805 C4806 1.366 . S
C4805 C4807 1.388 . S
C4806 C4805 1.366 . S
C4806 C4810 1.385 . S
C4807 H4782 0.951 . S
C4807 C4805 1.388 . S
C4807 C4808 1.366 . S
C4808 C4807 1.366 . S
C4808 C4809 1.414 . S
C4808 C4811 1.499 . S
C4809 H4783 0.950 . S
C4809 C4808 1.414 . S
C4809 C4810 1.374 . S
C4810 H4784 0.950 . S
C4810 C4806 1.385 . S
C4810 C4809 1.374 . S
C4811 C4808 1.499 . S
C4811 C4812 1.373 . S
C4811 C4813 1.389 . S
C4812 H4785 0.950 . S
C4812 C4798 1.377 . S
C4812 C4811 1.373 . S
C4813 C4797 1.377 . S
C4813 C4811 1.389 . S
C4813 C4814 1.524 . S
C4814 C4813 1.524 . S
C4814 C4815 1.397 . S
C4814 C4819 1.363 . S
C4815 H4786 0.950 . S
C4815 C4814 1.397 . S
C4815 C4816 1.334 . S
C4816 H4787 0.950 . S
C4816 C4815 1.334 . S
C4816 C4817 1.287 . S
C4817 C4816 1.287 . S
C4817 C4818 1.524 . S
C4817 H4820 0.999 . S
C4818 H4788 0.950 . S
C4818 C4817 1.524 . S
C4818 C4819 1.415 . S
C4819 H4789 0.950 . S
C4819 C4814 1.363 . S
C4819 C4818 1.415 . S
H4820 C4817 0.999 . S
H4821 C4802 0.913 . S
H4822 C4840 0.951 . S
H4823 C4842 0.951 . S
H4824 C4844 0.950 . S
H4825 C4845 0.950 . S
H4826 C4847 0.950 . S
H4827 C4850 0.950 . S
H4828 C4851 0.950 . S
H4829 C4853 0.950 . S
H4830 C4854 0.950 . S
H4831 C4855 0.951 . S
H4832 C4857 0.951 . S
H4833 C4859 0.950 . S
H4834 C4860 0.950 . S
H4835 C4862 0.950 . S
H4836 C4865 0.950 . S
H4837 C4866 0.950 . S
H4838 C4868 0.950 . S
H4839 C4869 0.950 . S
C4840 H4822 0.951 . S
C4840 C4841 1.366 . S
C4840 C4842 1.388 . S
C4841 C4840 1.366 . S
C4841 C4845 1.385 . S
C4842 H4823 0.951 . S
C4842 C4840 1.388 . S
C4842 C4843 1.366 . S
C4843 C4842 1.366 . S
C4843 C4844 1.414 . S
C4843 C4846 1.499 . S
C4844 H4824 0.950 . S
C4844 C4843 1.414 . S
C4844 C4845 1.374 . S
C4845 H4825 0.950 . S
C4845 C4841 1.385 . S
C4845 C4844 1.374 . S
C4846 C4843 1.499 . S
C4846 C4847 1.373 . S
C4846 C4848 1.389 . S
C4847 H4826 0.950 . S
C4847 C4846 1.373 . S
C4847 C4863 1.377 . S
C4848 C4846 1.389 . S
C4848 C4849 1.524 . S
C4848 C4862 1.377 . S
C4849 C4848 1.524 . S
C4849 C4850 1.397 . S
C4849 C4854 1.363 . S
C4850 H4827 0.950 . S
C4850 C4849 1.397 . S
C4850 C4851 1.334 . S
C4851 H4828 0.950 . S
C4851 C4850 1.334 . S
C4851 C4852 1.287 . S
C4852 C4851 1.287 . S
C4852 C4853 1.524 . S
C4852 H4871 0.913 . S
C4853 H4829 0.950 . S
C4853 C4852 1.524 . S
C4853 C4854 1.415 . S
C4854 H4830 0.950 . S
C4854 C4849 1.363 . S
C4854 C4853 1.415 . S
C4855 H4831 0.951 . S
C4855 C4856 1.366 . S
C4855 C4857 1.388 . S
C4856 C4855 1.366 . S
C4856 C4860 1.385 . S
C4857 H4832 0.951 . S
C4857 C4855 1.388 . S
C4857 C4858 1.366 . S
C4858 C4857 1.366 . S
C4858 C4859 1.414 . S
C4858 C4861 1.499 . S
C4859 H4833 0.950 . S
C4859 C4858 1.414 . S
C4859 C4860 1.374 . S
C4860 H4834 0.950 . S
C4860 C4856 1.385 . S
C4860 C4859 1.374 . S
C4861 C4858 1.499 . S
C4861 C4862 1.373 . S
C4861 C4863 1.389 . S
C4862 H4835 0.950 . S
C4862 C4848 1.377 . S
C4862 C4861 1.373 . S
C4863 C4847 1.377 . S
C4863 C4861 1.389 . S
C4863 C4864 1.524 . S
C4864 C4863 1.524 . S
C4864 C4865 1.397 . S
C4864 C4869 1.363 . S
C4865 H4836 0.950 . S
C4865 C4864 1.397 . S
C4865 C4866 1.334 . S
C4866 H4837 0.950 . S
C4866 C4865 1.334 . S
C4866 C4867 1.287 . S
C4867 C4866 1.287 . S
C4867 C4868 1.524 . S
C4867 H4870 0.999 . S
C4868 H4838 0.950 . S
C4868 C4867 1.524 . S
C4868 C4869 1.415 . S
C4869 H4839 0.950 . S
C4869 C4864 1.363 . S
C4869 C4868 1.415 . S
H4870 C4867 0.999 . S
H4871 C4852 0.913 . S
H4872 C4890 0.951 . S
H4873 C4892 0.951 . S
H4874 C4894 0.950 . S
H4875 C4895 0.950 . S
H4876 C4897 0.950 . S
H4877 C4900 0.950 . S
H4878 C4901 0.950 . S
H4879 C4903 0.950 . S
H4880 C4904 0.950 . S
H4881 C4905 0.951 . S
H4882 C4907 0.951 . S
H4883 C4909 0.950 . S
H4884 C4910 0.950 . S
H4885 C4912 0.950 . S
H4886 C4915 0.950 . S
H4887 C4916 0.950 . S
H4888 C4918 0.950 . S
H4889 C4919 0.950 . S
C4890 H4872 0.951 . S
C4890 C4891 1.366 . S
C4890 C4892 1.388 . S
C4891 C4890 1.366 . S
C4891 C4895 1.385 . S
C4892 H4873 0.951 . S
C4892 C4890 1.388 . S
C4892 C4893 1.366 . S
C4893 C4892 1.366 . S
C4893 C4894 1.414 . S
C4893 C4896 1.499 . S
C4894 H4874 0.950 . S
C4894 C4893 1.414 . S
C4894 C4895 1.374 . S
C4895 H4875 0.950 . S
C4895 C4891 1.385 . S
C4895 C4894 1.374 . S
C4896 C4893 1.499 . S
C4896 C4897 1.373 . S
C4896 C4898 1.389 . S
C4897 H4876 0.950 . S
C4897 C4896 1.373 . S
C4897 C4913 1.377 . S
C4898 C4896 1.389 . S
C4898 C4899 1.524 . S
C4898 C4912 1.377 . S
C4899 C4898 1.524 . S
C4899 C4900 1.397 . S
C4899 C4904 1.363 . S
C4900 H4877 0.950 . S
C4900 C4899 1.397 . S
C4900 C4901 1.334 . S
C4901 H4878 0.950 . S
C4901 C4900 1.334 . S
C4901 C4902 1.287 . S
C4902 C4901 1.287 . S
C4902 C4903 1.524 . S
C4902 H4921 0.913 . S
C4903 H4879 0.950 . S
C4903 C4902 1.524 . S
C4903 C4904 1.415 . S
C4904 H4880 0.950 . S
C4904 C4899 1.363 . S
C4904 C4903 1.415 . S
C4905 H4881 0.951 . S
C4905 C4906 1.366 . S
C4905 C4907 1.388 . S
C4906 C4905 1.366 . S
C4906 C4910 1.385 . S
C4907 H4882 0.951 . S
C4907 C4905 1.388 . S
C4907 C4908 1.366 . S
C4908 C4907 1.366 . S
C4908 C4909 1.414 . S
C4908 C4911 1.499 . S
C4909 H4883 0.950 . S
C4909 C4908 1.414 . S
C4909 C4910 1.374 . S
C4910 H4884 0.950 . S
C4910 C4906 1.385 . S
C4910 C4909 1.374 . S
C4911 C4908 1.499 . S
C4911 C4912 1.373 . S
C4911 C4913 1.389 . S
C4912 H4885 0.950 . S
C4912 C4898 1.377 . S
C4912 C4911 1.373 . S
C4913 C4897 1.377 . S
C4913 C4911 1.389 . S
C4913 C4914 1.524 . S
C4914 C4913 1.524 . S
C4914 C4915 1.397 . S
C4914 C4919 1.363 . S
C4915 H4886 0.950 . S
C4915 C4914 1.397 . S
C4915 C4916 1.334 . S
C4916 H4887 0.950 . S
C4916 C4915 1.334 . S
C4916 C4917 1.287 . S
C4917 C4916 1.287 . S
C4917 C4918 1.524 . S
C4917 H4920 0.999 . S
C4918 H4888 0.950 . S
C4918 C4917 1.524 . S
C4918 C4919 1.415 . S
C4919 H4889 0.950 . S
C4919 C4914 1.363 . S
C4919 C4918 1.415 . S
H4920 C4917 0.999 . S
H4921 C4902 0.913 . S
H4922 C4940 0.951 . S
H4923 C4942 0.951 . S
H4924 C4944 0.950 . S
H4925 C4945 0.950 . S
H4926 C4947 0.950 . S
H4927 C4950 0.950 . S
H4928 C4951 0.950 . S
H4929 C4953 0.950 . S
H4930 C4954 0.950 . S
H4931 C4955 0.951 . S
H4932 C4957 0.951 . S
H4933 C4959 0.950 . S
H4934 C4960 0.950 . S
H4935 C4962 0.950 . S
H4936 C4965 0.950 . S
H4937 C4966 0.950 . S
H4938 C4968 0.950 . S
H4939 C4969 0.950 . S
C4940 H4922 0.951 . S
C4940 C4941 1.366 . S
C4940 C4942 1.388 . S
C4941 C4940 1.366 . S
C4941 C4945 1.385 . S
C4942 H4923 0.951 . S
C4942 C4940 1.388 . S
C4942 C4943 1.366 . S
C4943 C4942 1.366 . S
C4943 C4944 1.414 . S
C4943 C4946 1.499 . S
C4944 H4924 0.950 . S
C4944 C4943 1.414 . S
C4944 C4945 1.374 . S
C4945 H4925 0.950 . S
C4945 C4941 1.385 . S
C4945 C4944 1.374 . S
C4946 C4943 1.499 . S
C4946 C4947 1.373 . S
C4946 C4948 1.389 . S
C4947 H4926 0.950 . S
C4947 C4946 1.373 . S
C4947 C4963 1.377 . S
C4948 C4946 1.389 . S
C4948 C4949 1.524 . S
C4948 C4962 1.377 . S
C4949 C4948 1.524 . S
C4949 C4950 1.397 . S
C4949 C4954 1.363 . S
C4950 H4927 0.950 . S
C4950 C4949 1.397 . S
C4950 C4951 1.334 . S
C4951 H4928 0.950 . S
C4951 C4950 1.334 . S
C4951 C4952 1.287 . S
C4952 C4951 1.287 . S
C4952 C4953 1.524 . S
C4952 H4971 0.913 . S
C4953 H4929 0.950 . S
C4953 C4952 1.524 . S
C4953 C4954 1.415 . S
C4954 H4930 0.950 . S
C4954 C4949 1.363 . S
C4954 C4953 1.415 . S
C4955 H4931 0.951 . S
C4955 C4956 1.366 . S
C4955 C4957 1.388 . S
C4956 C4955 1.366 . S
C4956 C4960 1.385 . S
C4957 H4932 0.951 . S
C4957 C4955 1.388 . S
C4957 C4958 1.366 . S
C4958 C4957 1.366 . S
C4958 C4959 1.414 . S
C4958 C4961 1.499 . S
C4959 H4933 0.950 . S
C4959 C4958 1.414 . S
C4959 C4960 1.374 . S
C4960 H4934 0.950 . S
C4960 C4956 1.385 . S
C4960 C4959 1.374 . S
C4961 C4958 1.499 . S
C4961 C4962 1.373 . S
C4961 C4963 1.389 . S
C4962 H4935 0.950 . S
C4962 C4948 1.377 . S
C4962 C4961 1.373 . S
C4963 C4947 1.377 . S
C4963 C4961 1.389 . S
C4963 C4964 1.524 . S
C4964 C4963 1.524 . S
C4964 C4965 1.397 . S
C4964 C4969 1.363 . S
C4965 H4936 0.950 . S
C4965 C4964 1.397 . S
C4965 C4966 1.334 . S
C4966 H4937 0.950 . S
C4966 C4965 1.334 . S
C4966 C4967 1.287 . S
C4967 C4966 1.287 . S
C4967 C4968 1.524 . S
C4967 H4970 0.999 . S
C4968 H4938 0.950 . S
C4968 C4967 1.524 . S
C4968 C4969 1.415 . S
C4969 H4939 0.950 . S
C4969 C4964 1.363 . S
C4969 C4968 1.415 . S
H4970 C4967 0.999 . S
H4971 C4952 0.913 . S
H4972 C4990 0.951 . S
H4973 C4992 0.951 . S
H4974 C4994 0.950 . S
H4975 C4995 0.950 . S
H4976 C4997 0.950 . S
H4977 C5000 0.950 . S
H4978 C5001 0.950 . S
H4979 C5003 0.950 . S
H4980 C5004 0.950 . S
H4981 C5005 0.951 . S
H4982 C5007 0.951 . S
H4983 C5009 0.950 . S
H4984 C5010 0.950 . S
H4985 C5012 0.950 . S
H4986 C5015 0.950 . S
H4987 C5016 0.950 . S
H4988 C5018 0.950 . S
H4989 C5019 0.950 . S
C4990 H4972 0.951 . S
C4990 C4991 1.366 . S
C4990 C4992 1.388 . S
C4991 C4990 1.366 . S
C4991 C4995 1.385 . S
C4992 H4973 0.951 . S
C4992 C4990 1.388 . S
C4992 C4993 1.366 . S
C4993 C4992 1.366 . S
C4993 C4994 1.414 . S
C4993 C4996 1.499 . S
C4994 H4974 0.950 . S
C4994 C4993 1.414 . S
C4994 C4995 1.374 . S
C4995 H4975 0.950 . S
C4995 C4991 1.385 . S
C4995 C4994 1.374 . S
C4996 C4993 1.499 . S
C4996 C4997 1.373 . S
C4996 C4998 1.389 . S
C4997 H4976 0.950 . S
C4997 C4996 1.373 . S
C4997 C5013 1.377 . S
C4998 C4996 1.389 . S
C4998 C4999 1.524 . S
C4998 C5012 1.377 . S
C4999 C4998 1.524 . S
C4999 C5000 1.397 . S
C4999 C5004 1.363 . S
C5000 H4977 0.950 . S
C5000 C4999 1.397 . S
C5000 C5001 1.334 . S
C5001 H4978 0.950 . S
C5001 C5000 1.334 . S
C5001 C5002 1.287 . S
C5002 C5001 1.287 . S
C5002 C5003 1.524 . S
C5002 H5021 0.913 . S
C5003 H4979 0.950 . S
C5003 C5002 1.524 . S
C5003 C5004 1.415 . S
C5004 H4980 0.950 . S
C5004 C4999 1.363 . S
C5004 C5003 1.415 . S
C5005 H4981 0.951 . S
C5005 C5006 1.366 . S
C5005 C5007 1.388 . S
C5006 C5005 1.366 . S
C5006 C5010 1.385 . S
C5007 H4982 0.951 . S
C5007 C5005 1.388 . S
C5007 C5008 1.366 . S
C5008 C5007 1.366 . S
C5008 C5009 1.414 . S
C5008 C5011 1.499 . S
C5009 H4983 0.950 . S
C5009 C5008 1.414 . S
C5009 C5010 1.374 . S
C5010 H4984 0.950 . S
C5010 C5006 1.385 . S
C5010 C5009 1.374 . S
C5011 C5008 1.499 . S
C5011 C5012 1.373 . S
C5011 C5013 1.389 . S
C5012 H4985 0.950 . S
C5012 C4998 1.377 . S
C5012 C5011 1.373 . S
C5013 C4997 1.377 . S
C5013 C5011 1.389 . S
C5013 C5014 1.524 . S
C5014 C5013 1.524 . S
C5014 C5015 1.397 . S
C5014 C5019 1.363 . S
C5015 H4986 0.950 . S
C5015 C5014 1.397 . S
C5015 C5016 1.334 . S
C5016 H4987 0.950 . S
C5016 C5015 1.334 . S
C5016 C5017 1.287 . S
C5017 C5016 1.287 . S
C5017 C5018 1.524 . S
C5017 H5020 0.999 . S
C5018 H4988 0.950 . S
C5018 C5017 1.524 . S
C5018 C5019 1.415 . S
C5019 H4989 0.950 . S
C5019 C5014 1.363 . S
C5019 C5018 1.415 . S
H5020 C5017 0.999 . S
H5021 C5002 0.913 . S
H5022 C5040 0.951 . S
H5023 C5042 0.951 . S
H5024 C5044 0.950 . S
H5025 C5045 0.950 . S
H5026 C5047 0.950 . S
H5027 C5050 0.950 . S
H5028 C5051 0.950 . S
H5029 C5053 0.950 . S
H5030 C5054 0.950 . S
H5031 C5055 0.951 . S
H5032 C5057 0.951 . S
H5033 C5059 0.950 . S
H5034 C5060 0.950 . S
H5035 C5062 0.950 . S
H5036 C5065 0.950 . S
H5037 C5066 0.950 . S
H5038 C5068 0.950 . S
H5039 C5069 0.950 . S
C5040 H5022 0.951 . S
C5040 C5041 1.366 . S
C5040 C5042 1.388 . S
C5041 C5040 1.366 . S
C5041 C5045 1.385 . S
C5042 H5023 0.951 . S
C5042 C5040 1.388 . S
C5042 C5043 1.366 . S
C5043 C5042 1.366 . S
C5043 C5044 1.414 . S
C5043 C5046 1.499 . S
C5044 H5024 0.950 . S
C5044 C5043 1.414 . S
C5044 C5045 1.374 . S
C5045 H5025 0.950 . S
C5045 C5041 1.385 . S
C5045 C5044 1.374 . S
C5046 C5043 1.499 . S
C5046 C5047 1.373 . S
C5046 C5048 1.389 . S
C5047 H5026 0.950 . S
C5047 C5046 1.373 . S
C5047 C5063 1.377 . S
C5048 C5046 1.389 . S
C5048 C5049 1.524 . S
C5048 C5062 1.377 . S
C5049 C5048 1.524 . S
C5049 C5050 1.397 . S
C5049 C5054 1.363 . S
C5050 H5027 0.950 . S
C5050 C5049 1.397 . S
C5050 C5051 1.334 . S
C5051 H5028 0.950 . S
C5051 C5050 1.334 . S
C5051 C5052 1.287 . S
C5052 C5051 1.287 . S
C5052 C5053 1.524 . S
C5052 H5071 0.913 . S
C5053 H5029 0.950 . S
C5053 C5052 1.524 . S
C5053 C5054 1.415 . S
C5054 H5030 0.950 . S
C5054 C5049 1.363 . S
C5054 C5053 1.415 . S
C5055 H5031 0.951 . S
C5055 C5056 1.366 . S
C5055 C5057 1.388 . S
C5056 C5055 1.366 . S
C5056 C5060 1.385 . S
C5057 H5032 0.951 . S
C5057 C5055 1.388 . S
C5057 C5058 1.366 . S
C5058 C5057 1.366 . S
C5058 C5059 1.414 . S
C5058 C5061 1.499 . S
C5059 H5033 0.950 . S
C5059 C5058 1.414 . S
C5059 C5060 1.374 . S
C5060 H5034 0.950 . S
C5060 C5056 1.385 . S
C5060 C5059 1.374 . S
C5061 C5058 1.499 . S
C5061 C5062 1.373 . S
C5061 C5063 1.389 . S
C5062 H5035 0.950 . S
C5062 C5048 1.377 . S
C5062 C5061 1.373 . S
C5063 C5047 1.377 . S
C5063 C5061 1.389 . S
C5063 C5064 1.524 . S
C5064 C5063 1.524 . S
C5064 C5065 1.397 . S
C5064 C5069 1.363 . S
C5065 H5036 0.950 . S
C5065 C5064 1.397 . S
C5065 C5066 1.334 . S
C5066 H5037 0.950 . S
C5066 C5065 1.334 . S
C5066 C5067 1.287 . S
C5067 C5066 1.287 . S
C5067 C5068 1.524 . S
C5067 H5070 0.999 . S
C5068 H5038 0.950 . S
C5068 C5067 1.524 . S
C5068 C5069 1.415 . S
C5069 H5039 0.950 . S
C5069 C5064 1.363 . S
C5069 C5068 1.415 . S
H5070 C5067 0.999 . S
H5071 C5052 0.913 . S
H5072 C5090 0.951 . S
H5073 C5092 0.951 . S
H5074 C5094 0.950 . S
H5075 C5095 0.950 . S
H5076 C5097 0.950 . S
H5077 C5100 0.950 . S
H5078 C5101 0.950 . S
H5079 C5103 0.950 . S
H5080 C5104 0.950 . S
H5081 C5105 0.951 . S
H5082 C5107 0.951 . S
H5083 C5109 0.950 . S
H5084 C5110 0.950 . S
H5085 C5112 0.950 . S
H5086 C5115 0.950 . S
H5087 C5116 0.950 . S
H5088 C5118 0.950 . S
H5089 C5119 0.950 . S
C5090 H5072 0.951 . S
C5090 C5091 1.366 . S
C5090 C5092 1.388 . S
C5091 C5090 1.366 . S
C5091 C5095 1.385 . S
C5092 H5073 0.951 . S
C5092 C5090 1.388 . S
C5092 C5093 1.366 . S
C5093 C5092 1.366 . S
C5093 C5094 1.414 . S
C5093 C5096 1.499 . S
C5094 H5074 0.950 . S
C5094 C5093 1.414 . S
C5094 C5095 1.374 . S
C5095 H5075 0.950 . S
C5095 C5091 1.385 . S
C5095 C5094 1.374 . S
C5096 C5093 1.499 . S
C5096 C5097 1.373 . S
C5096 C5098 1.389 . S
C5097 H5076 0.950 . S
C5097 C5096 1.373 . S
C5097 C5113 1.377 . S
C5098 C5096 1.389 . S
C5098 C5099 1.524 . S
C5098 C5112 1.377 . S
C5099 C5098 1.524 . S
C5099 C5100 1.397 . S
C5099 C5104 1.363 . S
C5100 H5077 0.950 . S
C5100 C5099 1.397 . S
C5100 C5101 1.334 . S
C5101 H5078 0.950 . S
C5101 C5100 1.334 . S
C5101 C5102 1.287 . S
C5102 C5101 1.287 . S
C5102 C5103 1.524 . S
C5102 H5121 0.913 . S
C5103 H5079 0.950 . S
C5103 C5102 1.524 . S
C5103 C5104 1.415 . S
C5104 H5080 0.950 . S
C5104 C5099 1.363 . S
C5104 C5103 1.415 . S
C5105 H5081 0.951 . S
C5105 C5106 1.366 . S
C5105 C5107 1.388 . S
C5106 C5105 1.366 . S
C5106 C5110 1.385 . S
C5107 H5082 0.951 . S
C5107 C5105 1.388 . S
C5107 C5108 1.366 . S
C5108 C5107 1.366 . S
C5108 C5109 1.414 . S
C5108 C5111 1.499 . S
C5109 H5083 0.950 . S
C5109 C5108 1.414 . S
C5109 C5110 1.374 . S
C5110 H5084 0.950 . S
C5110 C5106 1.385 . S
C5110 C5109 1.374 . S
C5111 C5108 1.499 . S
C5111 C5112 1.373 . S
C5111 C5113 1.389 . S
C5112 H5085 0.950 . S
C5112 C5098 1.377 . S
C5112 C5111 1.373 . S
C5113 C5097 1.377 . S
C5113 C5111 1.389 . S
C5113 C5114 1.524 . S
C5114 C5113 1.524 . S
C5114 C5115 1.397 . S
C5114 C5119 1.363 . S
C5115 H5086 0.950 . S
C5115 C5114 1.397 . S
C5115 C5116 1.334 . S
C5116 H5087 0.950 . S
C5116 C5115 1.334 . S
C5116 C5117 1.287 . S
C5117 C5116 1.287 . S
C5117 C5118 1.524 . S
C5117 H5120 0.999 . S
C5118 H5088 0.950 . S
C5118 C5117 1.524 . S
C5118 C5119 1.415 . S
C5119 H5089 0.950 . S
C5119 C5114 1.363 . S
C5119 C5118 1.415 . S
H5120 C5117 0.999 . S
H5121 C5102 0.913 . S
H5122 C5140 0.951 . S
H5123 C5142 0.951 . S
H5124 C5144 0.950 . S
H5125 C5145 0.950 . S
H5126 C5147 0.950 . S
H5127 C5150 0.950 . S
H5128 C5151 0.950 . S
H5129 C5153 0.950 . S
H5130 C5154 0.950 . S
H5131 C5155 0.951 . S
H5132 C5157 0.951 . S
H5133 C5159 0.950 . S
H5134 C5160 0.950 . S
H5135 C5162 0.950 . S
H5136 C5165 0.950 . S
H5137 C5166 0.950 . S
H5138 C5168 0.950 . S
H5139 C5169 0.950 . S
C5140 H5122 0.951 . S
C5140 C5141 1.366 . S
C5140 C5142 1.388 . S
C5141 C5140 1.366 . S
C5141 C5145 1.385 . S
C5142 H5123 0.951 . S
C5142 C5140 1.388 . S
C5142 C5143 1.366 . S
C5143 C5142 1.366 . S
C5143 C5144 1.414 . S
C5143 C5146 1.499 . S
C5144 H5124 0.950 . S
C5144 C5143 1.414 . S
C5144 C5145 1.374 . S
C5145 H5125 0.950 . S
C5145 C5141 1.385 . S
C5145 C5144 1.374 . S
C5146 C5143 1.499 . S
C5146 C5147 1.373 . S
C5146 C5148 1.389 . S
C5147 H5126 0.950 . S
C5147 C5146 1.373 . S
C5147 C5163 1.377 . S
C5148 C5146 1.389 . S
C5148 C5149 1.524 . S
C5148 C5162 1.377 . S
C5149 C5148 1.524 . S
C5149 C5150 1.397 . S
C5149 C5154 1.363 . S
C5150 H5127 0.950 . S
C5150 C5149 1.397 . S
C5150 C5151 1.334 . S
C5151 H5128 0.950 . S
C5151 C5150 1.334 . S
C5151 C5152 1.287 . S
C5152 C5151 1.287 . S
C5152 C5153 1.524 . S
C5152 H5171 0.913 . S
C5153 H5129 0.950 . S
C5153 C5152 1.524 . S
C5153 C5154 1.415 . S
C5154 H5130 0.950 . S
C5154 C5149 1.363 . S
C5154 C5153 1.415 . S
C5155 H5131 0.951 . S
C5155 C5156 1.366 . S
C5155 C5157 1.388 . S
C5156 C5155 1.366 . S
C5156 C5160 1.385 . S
C5157 H5132 0.951 . S
C5157 C5155 1.388 . S
C5157 C5158 1.366 . S
C5158 C5157 1.366 . S
C5158 C5159 1.414 . S
C5158 C5161 1.499 . S
C5159 H5133 0.950 . S
C5159 C5158 1.414 . S
C5159 C5160 1.374 . S
C5160 H5134 0.950 . S
C5160 C5156 1.385 . S
C5160 C5159 1.374 . S
C5161 C5158 1.499 . S
C5161 C5162 1.373 . S
C5161 C5163 1.389 . S
C5162 H5135 0.950 . S
C5162 C5148 1.377 . S
C5162 C5161 1.373 . S
C5163 C5147 1.377 . S
C5163 C5161 1.389 . S
C5163 C5164 1.524 . S
C5164 C5163 1.524 . S
C5164 C5165 1.397 . S
C5164 C5169 1.363 . S
C5165 H5136 0.950 . S
C5165 C5164 1.397 . S
C5165 C5166 1.334 . S
C5166 H5137 0.950 . S
C5166 C5165 1.334 . S
C5166 C5167 1.287 . S
C5167 C5166 1.287 . S
C5167 C5168 1.524 . S
C5167 H5170 0.999 . S
C5168 H5138 0.950 . S
C5168 C5167 1.524 . S
C5168 C5169 1.415 . S
C5169 H5139 0.950 . S
C5169 C5164 1.363 . S
C5169 C5168 1.415 . S
H5170 C5167 0.999 . S
H5171 C5152 0.913 . S
H5172 C5190 0.951 . S
H5173 C5192 0.951 . S
H5174 C5194 0.950 . S
H5175 C5195 0.950 . S
H5176 C5197 0.950 . S
H5177 C5200 0.950 . S
H5178 C5201 0.950 . S
H5179 C5203 0.950 . S
H5180 C5204 0.950 . S
H5181 C5205 0.951 . S
H5182 C5207 0.951 . S
H5183 C5209 0.950 . S
H5184 C5210 0.950 . S
H5185 C5212 0.950 . S
H5186 C5215 0.950 . S
H5187 C5216 0.950 . S
H5188 C5218 0.950 . S
H5189 C5219 0.950 . S
C5190 H5172 0.951 . S
C5190 C5191 1.366 . S
C5190 C5192 1.388 . S
C5191 C5190 1.366 . S
C5191 C5195 1.385 . S
C5192 H5173 0.951 . S
C5192 C5190 1.388 . S
C5192 C5193 1.366 . S
C5193 C5192 1.366 . S
C5193 C5194 1.414 . S
C5193 C5196 1.499 . S
C5194 H5174 0.950 . S
C5194 C5193 1.414 . S
C5194 C5195 1.374 . S
C5195 H5175 0.950 . S
C5195 C5191 1.385 . S
C5195 C5194 1.374 . S
C5196 C5193 1.499 . S
C5196 C5197 1.373 . S
C5196 C5198 1.389 . S
C5197 H5176 0.950 . S
C5197 C5196 1.373 . S
C5197 C5213 1.377 . S
C5198 C5196 1.389 . S
C5198 C5199 1.524 . S
C5198 C5212 1.377 . S
C5199 C5198 1.524 . S
C5199 C5200 1.397 . S
C5199 C5204 1.363 . S
C5200 H5177 0.950 . S
C5200 C5199 1.397 . S
C5200 C5201 1.334 . S
C5201 H5178 0.950 . S
C5201 C5200 1.334 . S
C5201 C5202 1.287 . S
C5202 C5201 1.287 . S
C5202 C5203 1.524 . S
C5202 H5221 0.913 . S
C5203 H5179 0.950 . S
C5203 C5202 1.524 . S
C5203 C5204 1.415 . S
C5204 H5180 0.950 . S
C5204 C5199 1.363 . S
C5204 C5203 1.415 . S
C5205 H5181 0.951 . S
C5205 C5206 1.366 . S
C5205 C5207 1.388 . S
C5206 C5205 1.366 . S
C5206 C5210 1.385 . S
C5207 H5182 0.951 . S
C5207 C5205 1.388 . S
C5207 C5208 1.366 . S
C5208 C5207 1.366 . S
C5208 C5209 1.414 . S
C5208 C5211 1.499 . S
C5209 H5183 0.950 . S
C5209 C5208 1.414 . S
C5209 C5210 1.374 . S
C5210 H5184 0.950 . S
C5210 C5206 1.385 . S
C5210 C5209 1.374 . S
C5211 C5208 1.499 . S
C5211 C5212 1.373 . S
C5211 C5213 1.389 . S
C5212 H5185 0.950 . S
C5212 C5198 1.377 . S
C5212 C5211 1.373 . S
C5213 C5197 1.377 . S
C5213 C5211 1.389 . S
C5213 C5214 1.524 . S
C5214 C5213 1.524 . S
C5214 C5215 1.397 . S
C5214 C5219 1.363 . S
C5215 H5186 0.950 . S
C5215 C5214 1.397 . S
C5215 C5216 1.334 . S
C5216 H5187 0.950 . S
C5216 C5215 1.334 . S
C5216 C5217 1.287 . S
C5217 C5216 1.287 . S
C5217 C5218 1.524 . S
C5217 H5220 0.999 . S
C5218 H5188 0.950 . S
C5218 C5217 1.524 . S
C5218 C5219 1.415 . S
C5219 H5189 0.950 . S
C5219 C5214 1.363 . S
C5219 C5218 1.415 . S
H5220 C5217 0.999 . S
H5221 C5202 0.913 . S
H5222 C5240 0.951 . S
H5223 C5242 0.951 . S
H5224 C5244 0.950 . S
H5225 C5245 0.950 . S
H5226 C5247 0.950 . S
H5227 C5250 0.950 . S
H5228 C5251 0.950 . S
H5229 C5253 0.950 . S
H5230 C5254 0.950 . S
H5231 C5255 0.951 . S
H5232 C5257 0.951 . S
H5233 C5259 0.950 . S
H5234 C5260 0.950 . S
H5235 C5262 0.950 . S
H5236 C5265 0.950 . S
H5237 C5266 0.950 . S
H5238 C5268 0.950 . S
H5239 C5269 0.950 . S
C5240 H5222 0.951 . S
C5240 C5241 1.366 . S
C5240 C5242 1.388 . S
C5241 C5240 1.366 . S
C5241 C5245 1.385 . S
C5242 H5223 0.951 . S
C5242 C5240 1.388 . S
C5242 C5243 1.366 . S
C5243 C5242 1.366 . S
C5243 C5244 1.414 . S
C5243 C5246 1.499 . S
C5244 H5224 0.950 . S
C5244 C5243 1.414 . S
C5244 C5245 1.374 . S
C5245 H5225 0.950 . S
C5245 C5241 1.385 . S
C5245 C5244 1.374 . S
C5246 C5243 1.499 . S
C5246 C5247 1.373 . S
C5246 C5248 1.389 . S
C5247 H5226 0.950 . S
C5247 C5246 1.373 . S
C5247 C5263 1.377 . S
C5248 C5246 1.389 . S
C5248 C5249 1.524 . S
C5248 C5262 1.377 . S
C5249 C5248 1.524 . S
C5249 C5250 1.397 . S
C5249 C5254 1.363 . S
C5250 H5227 0.950 . S
C5250 C5249 1.397 . S
C5250 C5251 1.334 . S
C5251 H5228 0.950 . S
C5251 C5250 1.334 . S
C5251 C5252 1.287 . S
C5252 C5251 1.287 . S
C5252 C5253 1.524 . S
C5252 H5271 0.913 . S
C5253 H5229 0.950 . S
C5253 C5252 1.524 . S
C5253 C5254 1.415 . S
C5254 H5230 0.950 . S
C5254 C5249 1.363 . S
C5254 C5253 1.415 . S
C5255 H5231 0.951 . S
C5255 C5256 1.366 . S
C5255 C5257 1.388 . S
C5256 C5255 1.366 . S
C5256 C5260 1.385 . S
C5257 H5232 0.951 . S
C5257 C5255 1.388 . S
C5257 C5258 1.366 . S
C5258 C5257 1.366 . S
C5258 C5259 1.414 . S
C5258 C5261 1.499 . S
C5259 H5233 0.950 . S
C5259 C5258 1.414 . S
C5259 C5260 1.374 . S
C5260 H5234 0.950 . S
C5260 C5256 1.385 . S
C5260 C5259 1.374 . S
C5261 C5258 1.499 . S
C5261 C5262 1.373 . S
C5261 C5263 1.389 . S
C5262 H5235 0.950 . S
C5262 C5248 1.377 . S
C5262 C5261 1.373 . S
C5263 C5247 1.377 . S
C5263 C5261 1.389 . S
C5263 C5264 1.524 . S
C5264 C5263 1.524 . S
C5264 C5265 1.397 . S
C5264 C5269 1.363 . S
C5265 H5236 0.950 . S
C5265 C5264 1.397 . S
C5265 C5266 1.334 . S
C5266 H5237 0.950 . S
C5266 C5265 1.334 . S
C5266 C5267 1.287 . S
C5267 C5266 1.287 . S
C5267 C5268 1.524 . S
C5267 H5270 0.999 . S
C5268 H5238 0.950 . S
C5268 C5267 1.524 . S
C5268 C5269 1.415 . S
C5269 H5239 0.950 . S
C5269 C5264 1.363 . S
C5269 C5268 1.415 . S
H5270 C5267 0.999 . S
H5271 C5252 0.913 . S
H5272 C5290 0.951 . S
H5273 C5292 0.951 . S
H5274 C5294 0.950 . S
H5275 C5295 0.950 . S
H5276 C5297 0.950 . S
H5277 C5300 0.950 . S
H5278 C5301 0.950 . S
H5279 C5303 0.950 . S
H5280 C5304 0.950 . S
H5281 C5305 0.951 . S
H5282 C5307 0.951 . S
H5283 C5309 0.950 . S
H5284 C5310 0.950 . S
H5285 C5312 0.950 . S
H5286 C5315 0.950 . S
H5287 C5316 0.950 . S
H5288 C5318 0.950 . S
H5289 C5319 0.950 . S
C5290 H5272 0.951 . S
C5290 C5291 1.366 . S
C5290 C5292 1.388 . S
C5291 C5290 1.366 . S
C5291 C5295 1.385 . S
C5292 H5273 0.951 . S
C5292 C5290 1.388 . S
C5292 C5293 1.366 . S
C5293 C5292 1.366 . S
C5293 C5294 1.414 . S
C5293 C5296 1.499 . S
C5294 H5274 0.950 . S
C5294 C5293 1.414 . S
C5294 C5295 1.374 . S
C5295 H5275 0.950 . S
C5295 C5291 1.385 . S
C5295 C5294 1.374 . S
C5296 C5293 1.499 . S
C5296 C5297 1.373 . S
C5296 C5298 1.389 . S
C5297 H5276 0.950 . S
C5297 C5296 1.373 . S
C5297 C5313 1.377 . S
C5298 C5296 1.389 . S
C5298 C5299 1.524 . S
C5298 C5312 1.377 . S
C5299 C5298 1.524 . S
C5299 C5300 1.397 . S
C5299 C5304 1.363 . S
C5300 H5277 0.950 . S
C5300 C5299 1.397 . S
C5300 C5301 1.334 . S
C5301 H5278 0.950 . S
C5301 C5300 1.334 . S
C5301 C5302 1.287 . S
C5302 C5301 1.287 . S
C5302 C5303 1.524 . S
C5302 H5321 0.913 . S
C5303 H5279 0.950 . S
C5303 C5302 1.524 . S
C5303 C5304 1.415 . S
C5304 H5280 0.950 . S
C5304 C5299 1.363 . S
C5304 C5303 1.415 . S
C5305 H5281 0.951 . S
C5305 C5306 1.366 . S
C5305 C5307 1.388 . S
C5306 C5305 1.366 . S
C5306 C5310 1.385 . S
C5307 H5282 0.951 . S
C5307 C5305 1.388 . S
C5307 C5308 1.366 . S
C5308 C5307 1.366 . S
C5308 C5309 1.414 . S
C5308 C5311 1.499 . S
C5309 H5283 0.950 . S
C5309 C5308 1.414 . S
C5309 C5310 1.374 . S
C5310 H5284 0.950 . S
C5310 C5306 1.385 . S
C5310 C5309 1.374 . S
C5311 C5308 1.499 . S
C5311 C5312 1.373 . S
C5311 C5313 1.389 . S
C5312 H5285 0.950 . S
C5312 C5298 1.377 . S
C5312 C5311 1.373 . S
C5313 C5297 1.377 . S
C5313 C5311 1.389 . S
C5313 C5314 1.524 . S
C5314 C5313 1.524 . S
C5314 C5315 1.397 . S
C5314 C5319 1.363 . S
C5315 H5286 0.950 . S
C5315 C5314 1.397 . S
C5315 C5316 1.334 . S
C5316 H5287 0.950 . S
C5316 C5315 1.334 . S
C5316 C5317 1.287 . S
C5317 C5316 1.287 . S
C5317 C5318 1.524 . S
C5317 H5320 0.999 . S
C5318 H5288 0.950 . S
C5318 C5317 1.524 . S
C5318 C5319 1.415 . S
C5319 H5289 0.950 . S
C5319 C5314 1.363 . S
C5319 C5318 1.415 . S
H5320 C5317 0.999 . S
H5321 C5302 0.913 . S
H5322 C5340 0.951 . S
H5323 C5342 0.951 . S
H5324 C5344 0.950 . S
H5325 C5345 0.950 . S
H5326 C5347 0.950 . S
H5327 C5350 0.950 . S
H5328 C5351 0.950 . S
H5329 C5353 0.950 . S
H5330 C5354 0.950 . S
H5331 C5355 0.951 . S
H5332 C5357 0.951 . S
H5333 C5359 0.950 . S
H5334 C5360 0.950 . S
H5335 C5362 0.950 . S
H5336 C5365 0.950 . S
H5337 C5366 0.950 . S
H5338 C5368 0.950 . S
H5339 C5369 0.950 . S
C5340 H5322 0.951 . S
C5340 C5341 1.366 . S
C5340 C5342 1.388 . S
C5341 C5340 1.366 . S
C5341 C5345 1.385 . S
C5342 H5323 0.951 . S
C5342 C5340 1.388 . S
C5342 C5343 1.366 . S
C5343 C5342 1.366 . S
C5343 C5344 1.414 . S
C5343 C5346 1.499 . S
C5344 H5324 0.950 . S
C5344 C5343 1.414 . S
C5344 C5345 1.374 . S
C5345 H5325 0.950 . S
C5345 C5341 1.385 . S
C5345 C5344 1.374 . S
C5346 C5343 1.499 . S
C5346 C5347 1.373 . S
C5346 C5348 1.389 . S
C5347 H5326 0.950 . S
C5347 C5346 1.373 . S
C5347 C5363 1.377 . S
C5348 C5346 1.389 . S
C5348 C5349 1.524 . S
C5348 C5362 1.377 . S
C5349 C5348 1.524 . S
C5349 C5350 1.397 . S
C5349 C5354 1.363 . S
C5350 H5327 0.950 . S
C5350 C5349 1.397 . S
C5350 C5351 1.334 . S
C5351 H5328 0.950 . S
C5351 C5350 1.334 . S
C5351 C5352 1.287 . S
C5352 C5351 1.287 . S
C5352 C5353 1.524 . S
C5352 H5371 0.913 . S
C5353 H5329 0.950 . S
C5353 C5352 1.524 . S
C5353 C5354 1.415 . S
C5354 H5330 0.950 . S
C5354 C5349 1.363 . S
C5354 C5353 1.415 . S
C5355 H5331 0.951 . S
C5355 C5356 1.366 . S
C5355 C5357 1.388 . S
C5356 C5355 1.366 . S
C5356 C5360 1.385 . S
C5357 H5332 0.951 . S
C5357 C5355 1.388 . S
C5357 C5358 1.366 . S
C5358 C5357 1.366 . S
C5358 C5359 1.414 . S
C5358 C5361 1.499 . S
C5359 H5333 0.950 . S
C5359 C5358 1.414 . S
C5359 C5360 1.374 . S
C5360 H5334 0.950 . S
C5360 C5356 1.385 . S
C5360 C5359 1.374 . S
C5361 C5358 1.499 . S
C5361 C5362 1.373 . S
C5361 C5363 1.389 . S
C5362 H5335 0.950 . S
C5362 C5348 1.377 . S
C5362 C5361 1.373 . S
C5363 C5347 1.377 . S
C5363 C5361 1.389 . S
C5363 C5364 1.524 . S
C5364 C5363 1.524 . S
C5364 C5365 1.397 . S
C5364 C5369 1.363 . S
C5365 H5336 0.950 . S
C5365 C5364 1.397 . S
C5365 C5366 1.334 . S
C5366 H5337 0.950 . S
C5366 C5365 1.334 . S
C5366 C5367 1.287 . S
C5367 C5366 1.287 . S
C5367 C5368 1.524 . S
C5367 H5370 0.999 . S
C5368 H5338 0.950 . S
C5368 C5367 1.524 . S
C5368 C5369 1.415 . S
C5369 H5339 0.950 . S
C5369 C5364 1.363 . S
C5369 C5368 1.415 . S
H5370 C5367 0.999 . S
H5371 C5352 0.913 . S
H5372 C5390 0.951 . S
H5373 C5392 0.951 . S
H5374 C5394 0.950 . S
H5375 C5395 0.950 . S
H5376 C5397 0.950 . S
H5377 C5400 0.950 . S
H5378 C5401 0.950 . S
H5379 C5403 0.950 . S
H5380 C5404 0.950 . S
H5381 C5405 0.951 . S
H5382 C5407 0.951 . S
H5383 C5409 0.950 . S
H5384 C5410 0.950 . S
H5385 C5412 0.950 . S
H5386 C5415 0.950 . S
H5387 C5416 0.950 . S
H5388 C5418 0.950 . S
H5389 C5419 0.950 . S
C5390 H5372 0.951 . S
C5390 C5391 1.366 . S
C5390 C5392 1.388 . S
C5391 C5390 1.366 . S
C5391 C5395 1.385 . S
C5392 H5373 0.951 . S
C5392 C5390 1.388 . S
C5392 C5393 1.366 . S
C5393 C5392 1.366 . S
C5393 C5394 1.414 . S
C5393 C5396 1.499 . S
C5394 H5374 0.950 . S
C5394 C5393 1.414 . S
C5394 C5395 1.374 . S
C5395 H5375 0.950 . S
C5395 C5391 1.385 . S
C5395 C5394 1.374 . S
C5396 C5393 1.499 . S
C5396 C5397 1.373 . S
C5396 C5398 1.389 . S
C5397 H5376 0.950 . S
C5397 C5396 1.373 . S
C5397 C5413 1.377 . S
C5398 C5396 1.389 . S
C5398 C5399 1.524 . S
C5398 C5412 1.377 . S
C5399 C5398 1.524 . S
C5399 C5400 1.397 . S
C5399 C5404 1.363 . S
C5400 H5377 0.950 . S
C5400 C5399 1.397 . S
C5400 C5401 1.334 . S
C5401 H5378 0.950 . S
C5401 C5400 1.334 . S
C5401 C5402 1.287 . S
C5402 C5401 1.287 . S
C5402 C5403 1.524 . S
C5402 H5421 0.913 . S
C5403 H5379 0.950 . S
C5403 C5402 1.524 . S
C5403 C5404 1.415 . S
C5404 H5380 0.950 . S
C5404 C5399 1.363 . S
C5404 C5403 1.415 . S
C5405 H5381 0.951 . S
C5405 C5406 1.366 . S
C5405 C5407 1.388 . S
C5406 C5405 1.366 . S
C5406 C5410 1.385 . S
C5407 H5382 0.951 . S
C5407 C5405 1.388 . S
C5407 C5408 1.366 . S
C5408 C5407 1.366 . S
C5408 C5409 1.414 . S
C5408 C5411 1.499 . S
C5409 H5383 0.950 . S
C5409 C5408 1.414 . S
C5409 C5410 1.374 . S
C5410 H5384 0.950 . S
C5410 C5406 1.385 . S
C5410 C5409 1.374 . S
C5411 C5408 1.499 . S
C5411 C5412 1.373 . S
C5411 C5413 1.389 . S
C5412 H5385 0.950 . S
C5412 C5398 1.377 . S
C5412 C5411 1.373 . S
C5413 C5397 1.377 . S
C5413 C5411 1.389 . S
C5413 C5414 1.524 . S
C5414 C5413 1.524 . S
C5414 C5415 1.397 . S
C5414 C5419 1.363 . S
C5415 H5386 0.950 . S
C5415 C5414 1.397 . S
C5415 C5416 1.334 . S
C5416 H5387 0.950 . S
C5416 C5415 1.334 . S
C5416 C5417 1.287 . S
C5417 C5416 1.287 . S
C5417 C5418 1.524 . S
C5417 H5420 0.999 . S
C5418 H5388 0.950 . S
C5418 C5417 1.524 . S
C5418 C5419 1.415 . S
C5419 H5389 0.950 . S
C5419 C5414 1.363 . S
C5419 C5418 1.415 . S
H5420 C5417 0.999 . S
H5421 C5402 0.913 . S
H5422 C5440 0.951 . S
H5423 C5442 0.951 . S
H5424 C5444 0.950 . S
H5425 C5445 0.950 . S
H5426 C5447 0.950 . S
H5427 C5450 0.950 . S
H5428 C5451 0.950 . S
H5429 C5453 0.950 . S
H5430 C5454 0.950 . S
H5431 C5455 0.951 . S
H5432 C5457 0.951 . S
H5433 C5459 0.950 . S
H5434 C5460 0.950 . S
H5435 C5462 0.950 . S
H5436 C5465 0.950 . S
H5437 C5466 0.950 . S
H5438 C5468 0.950 . S
H5439 C5469 0.950 . S
C5440 H5422 0.951 . S
C5440 C5441 1.366 . S
C5440 C5442 1.388 . S
C5441 C5440 1.366 . S
C5441 C5445 1.385 . S
C5442 H5423 0.951 . S
C5442 C5440 1.388 . S
C5442 C5443 1.366 . S
C5443 C5442 1.366 . S
C5443 C5444 1.414 . S
C5443 C5446 1.499 . S
C5444 H5424 0.950 . S
C5444 C5443 1.414 . S
C5444 C5445 1.374 . S
C5445 H5425 0.950 . S
C5445 C5441 1.385 . S
C5445 C5444 1.374 . S
C5446 C5443 1.499 . S
C5446 C5447 1.373 . S
C5446 C5448 1.389 . S
C5447 H5426 0.950 . S
C5447 C5446 1.373 . S
C5447 C5463 1.377 . S
C5448 C5446 1.389 . S
C5448 C5449 1.524 . S
C5448 C5462 1.377 . S
C5449 C5448 1.524 . S
C5449 C5450 1.397 . S
C5449 C5454 1.363 . S
C5450 H5427 0.950 . S
C5450 C5449 1.397 . S
C5450 C5451 1.334 . S
C5451 H5428 0.950 . S
C5451 C5450 1.334 . S
C5451 C5452 1.287 . S
C5452 C5451 1.287 . S
C5452 C5453 1.524 . S
C5452 H5471 0.913 . S
C5453 H5429 0.950 . S
C5453 C5452 1.524 . S
C5453 C5454 1.415 . S
C5454 H5430 0.950 . S
C5454 C5449 1.363 . S
C5454 C5453 1.415 . S
C5455 H5431 0.951 . S
C5455 C5456 1.366 . S
C5455 C5457 1.388 . S
C5456 C5455 1.366 . S
C5456 C5460 1.385 . S
C5457 H5432 0.951 . S
C5457 C5455 1.388 . S
C5457 C5458 1.366 . S
C5458 C5457 1.366 . S
C5458 C5459 1.414 . S
C5458 C5461 1.499 . S
C5459 H5433 0.950 . S
C5459 C5458 1.414 . S
C5459 C5460 1.374 . S
C5460 H5434 0.950 . S
C5460 C5456 1.385 . S
C5460 C5459 1.374 . S
C5461 C5458 1.499 . S
C5461 C5462 1.373 . S
C5461 C5463 1.389 . S
C5462 H5435 0.950 . S
C5462 C5448 1.377 . S
C5462 C5461 1.373 . S
C5463 C5447 1.377 . S
C5463 C5461 1.389 . S
C5463 C5464 1.524 . S
C5464 C5463 1.524 . S
C5464 C5465 1.397 . S
C5464 C5469 1.363 . S
C5465 H5436 0.950 . S
C5465 C5464 1.397 . S
C5465 C5466 1.334 . S
C5466 H5437 0.950 . S
C5466 C5465 1.334 . S
C5466 C5467 1.287 . S
C5467 C5466 1.287 . S
C5467 C5468 1.524 . S
C5467 H5470 0.999 . S
C5468 H5438 0.950 . S
C5468 C5467 1.524 . S
C5468 C5469 1.415 . S
C5469 H5439 0.950 . S
C5469 C5464 1.363 . S
C5469 C5468 1.415 . S
H5470 C5467 0.999 . S
H5471 C5452 0.913 . S
C691 C134 1.722 . S
C706 C8 1.722 . S
C741 C148 1.722 . S
C756 C22 1.722 . S
C791 C162 1.721 . S
C806 C36 1.721 . S
C841 C120 1.722 . S
C856 C50 1.722 . S
C891 C64 1.723 . S
C906 C218 1.723 . S
C941 C78 1.721 . S
C956 C176 1.721 . S
C991 C92 1.722 . S
C1006 C190 1.722 . S
C1041 C204 1.723 . S
C1056 C106 1.723 . S
C1091 C232 1.722 . S
C1106 C260 1.722 . S
C1141 C246 1.722 . S
C1156 C652 1.722 . S
C1191 C274 1.721 . S
C1206 C666 1.721 . S
C1241 C288 1.722 . S
C1256 C638 1.722 . S
C1291 C302 1.722 . S
C1306 C624 1.722 . S
C1341 C582 1.721 . S
C1356 C316 1.721 . S
C1391 C330 1.722 . S
C1406 C610 1.722 . S
C1441 C470 1.723 . S
C1456 C344 1.723 . S
C1491 C484 1.722 . S
C1506 C358 1.722 . S
C1541 C498 1.722 . S
C1556 C372 1.722 . S
C1591 C456 1.722 . S
C1606 C386 1.722 . S
C1641 C554 1.722 . S
C1656 C400 1.722 . S
C1691 C512 1.722 . S
C1706 C414 1.722 . S
C1741 C428 1.722 . S
C1756 C526 1.722 . S
C1791 C442 1.722 . S
C1806 C540 1.722 . S
C1841 C568 1.722 . S
C1856 C596 1.722 . S
C1891 C227 0.751 . S
C1906 C9 0.751 . S
C1941 C661 0.749 1_565 S
C1956 C23 0.750 . S
C1991 C37 0.750 . S
C2006 C297 0.749 . S
C2041 C647 0.749 1_545 S
C2056 C51 0.749 . S
C2091 C65 0.749 . S
C2106 C577 0.750 . S
C2141 C591 0.749 1_565 S
C2156 C79 0.749 . S
C2191 C93 0.752 . S
C2206 C605 0.751 . S
C2241 C283 0.751 1_545 S
C2256 C107 0.749 . S
C2291 C121 0.751 . S
C2306 C3 0.751 . S
C2341 C17 0.751 1_455 S
C2356 C135 0.752 . S
C2391 C149 0.752 . S
C2406 C31 0.751 . S
C2441 C45 0.751 . S
C2456 C163 0.752 . S
C2491 C177 0.751 . S
C2506 C59 0.750 . S
C2541 C73 0.752 . S
C2556 C191 0.751 . S
C2591 C205 0.750 . S
C2606 C87 0.749 . S
C2641 C219 0.750 . S
C2656 C101 0.751 1_455 S
C2691 C233 0.752 . S
C2706 C115 0.750 . S
C2741 C247 0.751 . S
C2756 C507 0.750 . S
C2791 C521 0.751 1_554 S
C2806 C261 0.749 . S
C2841 C535 0.751 . S
C2856 C275 0.749 . S
C2891 C213 0.751 1_554 S
C2906 C289 0.750 . S
C2941 C303 0.752 . S
C2956 C143 0.750 . S
C2991 C493 0.750 . S
C3006 C317 0.750 . S
C3041 C331 0.748 . S
C3056 C465 0.750 1_556 S
C3091 C345 0.749 . S
C3106 C563 0.749 . S
C3141 C359 0.752 . S
C3156 C325 0.750 . S
C3191 C373 0.751 . S
C3206 C633 0.750 . S
C3241 C387 0.752 . S
C3256 C311 0.751 . S
C3291 C401 0.752 . S
C3306 C241 0.751 . S
C3341 C415 0.751 . S
C3356 C255 0.749 . S
C3391 C269 0.751 . S
C3406 C429 0.750 . S
C3441 C619 0.751 . S
C3456 C443 0.752 . S
C3491 C339 0.750 . S
C3506 C457 0.749 . S
C3541 C353 0.749 . S
C3556 C471 0.749 . S
C3591 C485 0.751 . S
C3606 C367 0.750 . S
C3641 C381 0.751 1_655 S
C3656 C499 0.751 . S
C3691 C513 0.752 . S
C3706 C395 0.751 . S
C3741 C527 0.751 . S
C3756 C409 0.750 1_655 S
C3791 C541 0.750 . S
C3806 C423 0.751 . S
C3841 C437 0.749 . S
C3856 C555 0.749 . S
C3891 C569 0.748 . S
C3906 C451 0.749 . S
C3941 C583 0.752 . S
C3956 C171 0.752 . S
C3991 C185 0.750 . S
C4006 C597 0.751 . S
C4041 C611 0.751 . S
C4056 C199 0.752 . S
C4091 C625 0.749 . S
C4106 C549 0.750 . S
C4141 C479 0.749 . S
C4156 C639 0.749 . S
C4191 C157 0.750 1_556 S
C4206 C653 0.748 . S
C4241 C129 0.750 . S
C4256 C667 0.749 . S
C4291 C315 1.208 . S
C4306 C7 1.208 . S
C4341 C21 1.209 . S
C4356 C567 1.209 . S
C4391 C35 1.209 . S
C4406 C329 1.209 . S
C4441 C637 1.210 . S
C4456 C49 1.210 . S
C4491 C63 1.209 . S
C4506 C259 1.209 . S
C4541 C273 1.209 . S
C4556 C77 1.209 . S
C4591 C623 1.209 . S
C4606 C91 1.209 . S
C4641 C105 1.208 . S
C4656 C245 1.208 . S
C4691 C189 1.208 . S
C4706 C119 1.208 . S
C4741 C133 1.209 . S
C4756 C203 1.209 . S
C4791 C217 1.208 . S
C4806 C147 1.208 . S
C4841 C161 1.210 . S
C4856 C175 1.210 . S
C4891 C357 1.208 . S
C4906 C231 1.208 . S
C4941 C287 1.209 . S
C4956 C427 1.209 . S
C4991 C301 1.209 . S
C5006 C385 1.209 . S
C5041 C651 1.210 . S
C5056 C343 1.210 . S
C5091 C371 1.208 . S
C5106 C665 1.208 . S
C5141 C399 1.208 . S
C5156 C595 1.208 . S
C5191 C413 1.209 . S
C5206 C609 1.209 . S
C5241 C581 1.209 . S
C5256 C441 1.209 . S
C5291 C525 1.209 . S
C5306 C455 1.209 . S
C5341 C469 1.209 . S
C5356 C539 1.209 . S
C5391 C483 1.208 . S
C5406 C553 1.208 . S
C5441 C511 1.208 . S
C5456 C497 1.208 . S
