# Generated by pormake.
# Topology zft, (5)-cn, num edge types: 1
# Building blocks:
#     Node 0, Type 0, BuildingBlock: XOMCOT_clean_sbu_0, # of connection points: 5
#     Node 1, Type 0, BuildingBlock: XOMCOT_clean_sbu_0, # of connection points: 5
#     Node 2, Type 0, BuildingBlock: XOMCOT_clean_sbu_0, # of connection points: 5
#     Node 3, Type 0, BuildingBlock: XOMCOT_clean_sbu_0, # of connection points: 5
#     Node 4, Type 0, BuildingBlock: XOMCOT_clean_sbu_0, # of connection points: 5
#     Node 5, Type 0, BuildingBlock: XOMCOT_clean_sbu_0, # of connection points: 5
#     Node 6, Type 0, BuildingBlock: XOMCOT_clean_sbu_0, # of connection points: 5
#     Node 7, Type 0, BuildingBlock: XOMCOT_clean_sbu_0, # of connection points: 5
#     Edge 8, Type (0, 0), BuildingBlock: TEMPAE_clean_linker_10, # of connection points: 2
#     Edge 9, Type (0, 0), BuildingBlock: TEMPAE_clean_linker_10, # of connection points: 2
#     Edge 10, Type (0, 0), BuildingBlock: TEMPAE_clean_linker_10, # of connection points: 2
#     Edge 11, Type (0, 0), BuildingBlock: TEMPAE_clean_linker_10, # of connection points: 2
#     Edge 12, Type (0, 0), BuildingBlock: TEMPAE_clean_linker_10, # of connection points: 2
#     Edge 13, Type (0, 0), BuildingBlock: TEMPAE_clean_linker_10, # of connection points: 2
#     Edge 14, Type (0, 0), BuildingBlock: TEMPAE_clean_linker_10, # of connection points: 2
#     Edge 15, Type (0, 0), BuildingBlock: TEMPAE_clean_linker_10, # of connection points: 2
#     Edge 16, Type (0, 0), BuildingBlock: TEMPAE_clean_linker_10, # of connection points: 2
#     Edge 17, Type (0, 0), BuildingBlock: TEMPAE_clean_linker_10, # of connection points: 2
#     Edge 18, Type (0, 0), BuildingBlock: TEMPAE_clean_linker_10, # of connection points: 2
#     Edge 19, Type (0, 0), BuildingBlock: TEMPAE_clean_linker_10, # of connection points: 2
#     Edge 20, Type (0, 0), BuildingBlock: TEMPAE_clean_linker_10, # of connection points: 2
#     Edge 21, Type (0, 0), BuildingBlock: TEMPAE_clean_linker_10, # of connection points: 2
#     Edge 22, Type (0, 0), BuildingBlock: TEMPAE_clean_linker_10, # of connection points: 2
#     Edge 23, Type (0, 0), BuildingBlock: TEMPAE_clean_linker_10, # of connection points: 2
#     Edge 24, Type (0, 0), BuildingBlock: TEMPAE_clean_linker_10, # of connection points: 2
#     Edge 25, Type (0, 0), BuildingBlock: TEMPAE_clean_linker_10, # of connection points: 2
#     Edge 26, Type (0, 0), BuildingBlock: TEMPAE_clean_linker_10, # of connection points: 2
#     Edge 27, Type (0, 0), BuildingBlock: TEMPAE_clean_linker_10, # of connection points: 2
# Relax obj value: 0.078
# Max RMSD: 0.164
# Mean RMSD: 0.164
data_MOF--net-zft--node1-XOMCOT_clean_sbu_0--edge1-TEMPAE_clean_linker_10
_symmetry_space_group_name_H-M    P1
_symmetry_Int_Tables_number       1
_symmetry_cell_setting            triclinic
loop_
_symmetry_equiv_pos_as_xyz
'x, y, z'
_cell_length_a     28.413199
_cell_length_b     28.431455
_cell_length_c     52.512622
_cell_angle_alpha  89.955144
_cell_angle_beta   89.914419
_cell_angle_gamma 90.103448
loop_
_atom_site_label
_atom_site_type_symbol
_atom_site_fract_x
_atom_site_fract_y
_atom_site_fract_z
_atom_type_partial_charge
Co0 Co 0.14428 0.27971 0.16591 0.0
C1 C 0.20005 0.35267 0.1401 0.0
C2 C 0.23707 0.28697 0.14021 0.0
C3 C 0.26629 0.32132 0.13025 0.0
N4 N 0.19555 0.30682 0.14637 0.0
N5 N 0.24301 0.36263 0.13055 0.0
H6 H 0.17312 0.37879 0.14351 0.0
H7 H 0.2465 0.25079 0.14395 0.0
C8 C 0.14071 0.18098 0.1455 0.0
O9 O 0.09565 0.18698 0.14092 0.0
N10 N 0.09305 0.25355 0.18663 0.0
C11 C 0.05862 0.27871 0.198 0.0
C12 C 0.03213 0.24976 0.21316 0.0
C13 C 0.088 0.20956 0.19638 0.0
N14 N 0.05047 0.20619 0.21221 0.0
C15 C 0.06378 0.313 0.13831 0.0
C16 C 0.08977 0.27882 0.09113 0.0
C17 C 0.04765 0.30422 0.09334 0.0
C18 C 0.03493 0.32133 0.11738 0.0
C19 C 0.11765 0.27111 0.11272 0.0
N20 N 0.10367 0.28668 0.13619 0.0
H21 H 0.05457 0.32941 0.15599 0.0
H22 H 0.15082 0.25302 0.1105 0.0
H23 H 0.05382 0.31625 0.19659 0.0
H24 H 0.11221 0.18099 0.19303 0.0
O25 O 0.13382 0.3405 0.181 0.0
O26 O 0.18162 0.28604 0.19659 0.0
O27 O 0.16487 0.21425 0.15545 0.0
C28 C 0.16394 0.32821 0.19835 0.0
H29 H 0.30278 0.31687 0.12483 0.0
H30 H 1.00162 0.26026 0.22412 0.0
H31 H 0.10175 0.26609 0.07281 0.0
H32 H 1.00301 0.34149 0.12008 0.0
Co33 Co 0.25192 0.64505 0.41699 0.0
C34 C 0.17745 0.70311 0.39403 0.0
C35 C 0.24407 0.73864 0.3923 0.0
C36 C 0.20983 0.76818 0.38273 0.0
N37 N 0.22364 0.6978 0.39932 0.0
N38 N 0.16797 0.74585 0.3841 0.0
H39 H 0.15099 0.67663 0.39792 0.0
H40 H 0.28088 0.74717 0.39476 0.0
C41 C 0.34997 0.64407 0.39499 0.0
O42 O 0.34429 0.59939 0.38932 0.0
N43 N 0.27932 0.59192 0.43563 0.0
C44 C 0.2551 0.55468 0.44496 0.0
C45 C 0.28541 0.52459 0.45694 0.0
C46 C 0.32406 0.58507 0.4439 0.0
N47 N 0.32873 0.54349 0.45613 0.0
C48 C 0.21549 0.56783 0.38776 0.0
C49 C 0.25262 0.59461 0.34133 0.0
C50 C 0.22732 0.55227 0.34294 0.0
C51 C 0.20819 0.53943 0.36654 0.0
C52 C 0.25923 0.62199 0.36321 0.0
N53 N 0.243 0.6071 0.3864 0.0
H54 H 0.19772 0.55858 0.40507 0.0
H55 H 0.27755 0.65517 0.36147 0.0
H56 H 0.21747 0.54992 0.44421 0.0
H57 H 0.35268 0.60967 0.4413 0.0
O58 O 0.19236 0.63269 0.43335 0.0
O59 O 0.24792 0.67995 0.44853 0.0
O60 O 0.31675 0.66689 0.40585 0.0
C61 C 0.20623 0.66137 0.45108 0.0
H62 H 0.21495 0.8041 0.37645 0.0
H63 H 0.27621 0.49172 0.46613 0.0
H64 H 0.26651 0.6069 0.3233 0.0
H65 H 0.18763 0.50757 0.36874 0.0
Co66 Co 0.88348 0.7581 0.66712 0.0
C67 C 0.82672 0.68947 0.63975 0.0
C68 C 0.78643 0.75163 0.64743 0.0
C69 C 0.75676 0.71751 0.63772 0.0
N70 N 0.83015 0.7337 0.64872 0.0
N71 N 0.78224 0.67834 0.63307 0.0
H72 H 0.85553 0.66464 0.64024 0.0
H73 H 0.77626 0.78579 0.6546 0.0
C74 C 0.89326 0.8575 0.64827 0.0
O75 O 0.93859 0.8502 0.64524 0.0
N76 N 0.93704 0.7816 0.6864 0.0
C77 C 0.97577 0.75721 0.69315 0.0
C78 C 1.00332 0.78466 0.70859 0.0
C79 C 0.94085 0.82307 0.69891 0.0
N80 N 0.98148 0.82615 0.71215 0.0
C81 C 0.9546 0.71188 0.63755 0.0
C82 C 0.9439 0.76367 0.59348 0.0
C83 C 0.98064 0.73073 0.59479 0.0
C84 C 0.9843 0.70337 0.61694 0.0
C85 C 0.91407 0.77009 0.61443 0.0
N86 N 0.92218 0.74718 0.6369 0.0
H87 H 0.95717 0.68902 0.65381 0.0
H88 H 0.88467 0.79377 0.61249 0.0
H89 H 0.98326 0.72125 0.68825 0.0
H90 H 0.91411 0.85009 0.69879 0.0
O91 O 0.89044 0.69742 0.68317 0.0
O92 O 0.84738 0.75615 0.69844 0.0
O93 O 0.8665 0.82434 0.65627 0.0
C94 C 0.86237 0.71313 0.70071 0.0
H95 H 0.71906 0.72066 0.63542 0.0
H96 H 0.03712 0.77485 0.71642 0.0
H97 H 0.93831 0.78481 0.57661 0.0
H98 H 1.00959 0.67506 0.61837 0.0
Co99 Co 0.77652 0.38602 0.91494 0.0
C100 C 0.84969 0.32268 0.89394 0.0
C101 C 0.78442 0.28621 0.89887 0.0
C102 C 0.8181 0.25424 0.89129 0.0
N103 N 0.80381 0.32963 0.89975 0.0
N104 N 0.85912 0.27737 0.88844 0.0
H105 H 0.8767 0.34923 0.8954 0.0
H106 H 0.74911 0.27751 0.90494 0.0
C107 C 0.69478 0.34698 0.88558 0.0
O108 O 0.72289 0.34209 0.86585 0.0
N109 N 0.75056 0.44167 0.93056 0.0
C110 C 0.77095 0.48445 0.93015 0.0
C111 C 0.74066 0.51633 0.94093 0.0
C112 C 0.70828 0.44781 0.94189 0.0
N113 N 0.70129 0.49337 0.94821 0.0
C114 C 0.82594 0.43177 0.87406 0.0
C115 C 0.74817 0.47197 0.85133 0.0
C116 C 0.79293 0.48219 0.84137 0.0
C117 C 0.8321 0.4617 0.85324 0.0
C118 C 0.74372 0.4427 0.8726 0.0
N119 N 0.78216 0.42142 0.88318 0.0
H120 H 0.85684 0.41936 0.88369 0.0
H121 H 0.7093 0.43861 0.88103 0.0
H122 H 0.80508 0.49208 0.92197 0.0
H123 H 0.6827 0.42004 0.94473 0.0
O124 O 0.83702 0.40077 0.9296 0.0
O125 O 0.78233 0.35655 0.94801 0.0
O126 O 0.71067 0.36393 0.90642 0.0
C127 C 0.82443 0.37472 0.94881 0.0
H128 H 0.81363 0.21652 0.88977 0.0
H129 H 0.74704 0.55364 0.94322 0.0
H130 H 0.71667 0.48701 0.84314 0.0
H131 H 0.86761 0.47013 0.84728 0.0
Co132 Co 0.64818 0.25794 0.58223 0.0
C133 C 0.71141 0.18512 0.60366 0.0
C134 C 0.74794 0.25028 0.59853 0.0
C135 C 0.7798 0.21683 0.60651 0.0
N136 N 0.70453 0.23084 0.59754 0.0
N137 N 0.75663 0.1759 0.6095 0.0
H138 H 0.68488 0.15808 0.60226 0.0
H139 H 0.75669 0.28549 0.59235 0.0
C140 C 0.68686 0.3399 0.61161 0.0
O141 O 0.6922 0.31185 0.6313 0.0
N142 N 0.59258 0.28378 0.56651 0.0
C143 C 0.54965 0.26367 0.56704 0.0
C144 C 0.51793 0.29398 0.55616 0.0
C145 C 0.58669 0.32587 0.55499 0.0
N146 N 0.54115 0.33305 0.54867 0.0
C147 C 0.60204 0.2085 0.62298 0.0
C148 C 0.56252 0.28625 0.64608 0.0
C149 C 0.55228 0.2415 0.656 0.0
C150 C 0.57234 0.20234 0.6439 0.0
C151 C 0.59147 0.2907 0.62467 0.0
N152 N 0.61257 0.25228 0.61395 0.0
H153 H 0.61419 0.17763 0.61321 0.0
H154 H 0.59552 0.32512 0.61627 0.0
H155 H 0.54181 0.22975 0.57538 0.0
H156 H 0.61464 0.3512 0.55202 0.0
O157 O 0.63366 0.19742 0.56756 0.0
O158 O 0.67791 0.25211 0.54921 0.0
O159 O 0.66997 0.32386 0.59078 0.0
C160 C 0.65978 0.21002 0.54837 0.0
H161 H 0.81749 0.22139 0.60826 0.0
H162 H 0.48054 0.28786 0.55394 0.0
H163 H 0.54778 0.31776 0.65441 0.0
H164 H 0.56379 0.16684 0.64978 0.0
Co165 Co 0.27568 0.14783 0.82945 0.0
C166 C 0.3462 0.20221 0.85728 0.0
C167 C 0.28329 0.24262 0.85192 0.0
C168 C 0.3177 0.27153 0.86193 0.0
N169 N 0.30145 0.19928 0.84897 0.0
N170 N 0.35737 0.24604 0.86509 0.0
H171 H 0.37119 0.17369 0.85561 0.0
H172 H 0.24861 0.25322 0.84571 0.0
C173 C 0.17845 0.14023 0.85177 0.0
O174 O 0.18616 0.09535 0.85607 0.0
N175 N 0.2506 0.0965 0.80867 0.0
C176 C 0.27644 0.06416 0.79602 0.0
C177 C 0.24746 0.03727 0.78112 0.0
C178 C 0.20613 0.08991 0.80002 0.0
N179 N 0.20321 0.05338 0.78363 0.0
C180 C 0.31109 0.06647 0.85574 0.0
C181 C 0.27866 0.09062 0.90358 0.0
C182 C 0.30292 0.04803 0.90052 0.0
C183 C 0.31946 0.03639 0.87619 0.0
C184 C 0.27084 0.11966 0.88248 0.0
N185 N 0.28531 0.10651 0.85868 0.0
H186 H 0.32654 0.05782 0.8377 0.0
H187 H 0.25305 0.15283 0.88529 0.0
H188 H 0.31429 0.06105 0.79653 0.0
H189 H 0.17672 0.11244 0.80448 0.0
O190 O 0.33637 0.14058 0.81348 0.0
O191 O 0.27876 0.18627 0.79908 0.0
O192 O 0.21013 0.1656 0.84113 0.0
C193 C 0.32149 0.17044 0.79659 0.0
H194 H 0.31433 0.30886 0.86547 0.0
H195 H 0.25829 1.00805 0.7693 0.0
H196 H 0.26654 0.10186 0.92216 0.0
H197 H 0.33883 1.00421 0.87285 0.0
Co198 Co 0.38733 0.78031 0.08025 0.0
C199 C 0.32792 0.85348 0.10317 0.0
C200 C 0.29189 0.78707 0.10312 0.0
C201 C 0.26177 0.82108 0.11248 0.0
N202 N 0.33336 0.80757 0.09732 0.0
N203 N 0.28447 0.86281 0.11221 0.0
H204 H 0.35485 0.8799 0.10025 0.0
H205 H 0.28338 0.75049 0.09988 0.0
C206 C 0.38892 0.68177 0.10144 0.0
O207 O 0.43346 0.68786 0.10733 0.0
N208 N 0.44174 0.75401 0.06229 0.0
C209 C 0.47978 0.77846 0.05417 0.0
C210 C 0.5104 0.74867 0.04215 0.0
C211 C 0.44873 0.70983 0.05325 0.0
N212 N 0.49107 0.70554 0.04172 0.0
C213 C 0.46169 0.81856 0.11079 0.0
C214 C 0.4351 0.77841 0.15649 0.0
C215 C 0.4765 0.80539 0.15555 0.0
C216 C 0.48918 0.82605 0.13231 0.0
C217 C 0.40859 0.77169 0.13429 0.0
N218 N 0.42359 0.78936 0.11143 0.0
H219 H 0.47064 0.83753 0.09381 0.0
H220 H 0.37598 0.75221 0.13553 0.0
H221 H 0.48466 0.81596 0.05563 0.0
H222 H 0.42365 0.68136 0.05484 0.0
O223 O 0.39929 0.84041 0.06451 0.0
O224 O 0.3543 0.78438 0.04807 0.0
O225 O 0.36585 0.715 0.09076 0.0
C226 C 0.37177 0.82667 0.04622 0.0
H227 H 0.22531 0.81597 0.11782 0.0
H228 H 0.54387 0.75819 0.03369 0.0
H229 H 0.42288 0.76331 0.17424 0.0
H230 H 0.52027 0.84793 0.13062 0.0
Co231 Co 0.75176 0.88931 0.33107 0.0
C232 C 0.67897 0.8339 0.35726 0.0
C233 C 0.74454 0.79662 0.35667 0.0
C234 C 0.71018 0.76739 0.36659 0.0
N235 N 0.72479 0.83831 0.35082 0.0
N236 N 0.66894 0.79083 0.36658 0.0
H237 H 0.65289 0.86094 0.35403 0.0
H238 H 0.7806 0.78704 0.35264 0.0
C239 C 0.85086 0.89233 0.35111 0.0
O240 O 0.84531 0.93744 0.35565 0.0
N241 N 0.77788 0.94021 0.31013 0.0
C242 C 0.75272 0.97458 0.29874 0.0
C243 C 0.78169 1.00087 0.28348 0.0
C244 C 0.82185 0.94507 0.3003 0.0
N245 N 0.82526 0.98245 0.2844 0.0
C246 C 0.71937 0.97023 0.35863 0.0
C247 C 0.75385 0.9444 0.40575 0.0
C248 C 0.72868 0.98666 0.40354 0.0
C249 C 0.71144 0.99929 0.37953 0.0
C250 C 0.76117 0.91631 0.38419 0.0
N251 N 0.74543 0.93018 0.36075 0.0
H252 H 0.70287 0.97942 0.34098 0.0
H253 H 0.77907 0.88306 0.38642 0.0
H254 H 0.71518 0.97951 0.30024 0.0
H255 H 0.85039 0.92083 0.30364 0.0
O256 O 0.69071 0.89991 0.31629 0.0
O257 O 0.74474 0.85178 0.3005 0.0
O258 O 0.81727 0.86845 0.34128 0.0
C259 C 0.70257 0.86956 0.29896 0.0
H260 H 0.71451 0.73076 0.37171 0.0
H261 H 0.77121 0.03133 0.27251 0.0
H262 H 0.76667 0.93249 0.42406 0.0
H263 H 0.69147 0.03131 0.37683 0.0
C264 C 0.19871 0.3457 0.24109 0.0
C265 C 0.17787 0.36153 0.21852 0.0
C266 C 0.20963 0.37735 0.26078 0.0
C267 C 0.20011 0.42592 0.25754 0.0
C268 C 0.18081 0.44219 0.23434 0.0
C269 C 0.16958 0.40976 0.2152 0.0
C270 C 0.22992 0.35866 0.28532 0.0
C271 C 0.17089 0.49374 0.22995 0.0
C272 C 0.1766 0.49917 0.31651 0.0
C273 C 0.22001 0.52174 0.32027 0.0
C274 C 0.16985 0.46785 0.29624 0.0
C275 C 0.2072 0.45926 0.27902 0.0
C276 C 0.25077 0.48273 0.28227 0.0
C277 C 0.25673 0.5136 0.30292 0.0
C278 C 0.12276 0.44366 0.29338 0.0
C279 C 0.29121 0.47483 0.2641 0.0
H280 H 0.20525 0.30845 0.24366 0.0
H281 H 0.15414 0.42223 0.19758 0.0
H282 H 0.26281 0.37773 0.29014 0.0
H283 H 0.20466 0.36474 0.30112 0.0
H284 H 0.23768 0.32042 0.2843 0.0
H285 H 0.1594 0.50103 0.21013 0.0
H286 H 0.14287 0.50566 0.24318 0.0
H287 H 0.20276 0.51503 0.23401 0.0
H288 H 0.14769 0.506 0.32946 0.0
H289 H 0.2905 0.53055 0.3058 0.0
H290 H 0.12749 0.40493 0.29384 0.0
H291 H 0.10703 0.45267 0.27469 0.0
H292 H 0.09756 0.45368 0.30863 0.0
H293 H 0.30185 0.43732 0.26453 0.0
H294 H 0.32232 0.49686 0.26881 0.0
H295 H 0.28009 0.48288 0.24432 0.0
C296 C 0.06146 0.71124 0.57843 0.0
C297 C 1.01462 0.72406 0.57335 0.0
C298 C 0.09344 0.70224 0.55869 0.0
C299 C 0.07893 0.70776 0.53312 0.0
C300 C 0.03243 0.72251 0.52774 0.0
C301 C 1.00064 0.72982 0.54788 0.0
C302 C 0.14248 0.68572 0.56521 0.0
C303 C 1.01601 0.72984 0.50069 0.0
C304 C 0.1757 0.71813 0.48329 0.0
C305 C 0.17509 0.67306 0.47257 0.0
C306 C 0.14388 0.73033 0.50268 0.0
C307 C 0.11192 0.6961 0.51204 0.0
C308 C 0.11196 0.65023 0.50155 0.0
C309 C 0.14305 0.63952 0.48163 0.0
C310 C 0.1439 0.77998 0.51286 0.0
C311 C 0.07944 0.61234 0.5115 0.0
H312 H 0.07332 0.70799 0.59795 0.0
H313 H 0.9646 0.73913 0.54354 0.0
H314 H 0.1489 0.65073 0.55653 0.0
H315 H 0.16902 0.71028 0.55721 0.0
H316 H 0.14816 0.68295 0.58608 0.0
H317 H 0.98023 0.74543 0.4998 0.0
H318 H 0.04083 0.75327 0.49036 0.0
H319 H 1.01547 0.69571 0.49048 0.0
H320 H 0.2001 0.74422 0.47598 0.0
H321 H 0.14276 0.60459 0.47334 0.0
H322 H 0.15187 0.77982 0.53353 0.0
H323 H 0.10845 0.79572 0.51054 0.0
H324 H 0.17006 0.80273 0.50303 0.0
H325 H 0.08509 0.60738 0.53224 0.0
H326 H 0.08493 0.57808 0.50178 0.0
H327 H 0.04227 0.62306 0.50885 0.0
C328 C 0.769 0.55455 0.81675 0.0
C329 C 0.79924 0.51584 0.81974 0.0
C330 C 0.77572 0.58729 0.79703 0.0
C331 C 0.81446 0.58217 0.78032 0.0
C332 C 0.84503 0.54327 0.7831 0.0
C333 C 0.83659 0.51024 0.80244 0.0
C334 C 0.74164 0.62766 0.79425 0.0
C335 C 0.88725 0.53697 0.76592 0.0
C336 C 0.81933 0.64285 0.71592 0.0
C337 C 0.84685 0.68235 0.72145 0.0
C338 C 0.80681 0.61087 0.73514 0.0
C339 C 0.82378 0.61793 0.76022 0.0
C340 C 0.85146 0.65817 0.76581 0.0
C341 C 0.86213 0.69038 0.74634 0.0
C342 C 0.77612 0.56923 0.72852 0.0
C343 C 0.87133 0.66623 0.7921 0.0
H344 H 0.7405 0.56005 0.83013 0.0
H345 H 0.8596 0.48006 0.80404 0.0
H346 H 0.76001 0.66142 0.79793 0.0
H347 H 0.72799 0.62909 0.77447 0.0
H348 H 0.71137 0.62472 0.80757 0.0
H349 H 0.90828 0.50544 0.771 0.0
H350 H 0.87573 0.53359 0.74584 0.0
H351 H 0.91034 0.56843 0.76707 0.0
H352 H 0.80772 0.63697 0.69651 0.0
H353 H 0.88394 0.72084 0.75032 0.0
H354 H 0.74581 0.56709 0.74183 0.0
H355 H 0.79648 0.53622 0.7306 0.0
H356 H 0.76253 0.57117 0.70871 0.0
H357 H 0.84256 0.66714 0.80638 0.0
H358 H 0.89163 0.69958 0.79338 0.0
H359 H 0.89486 0.63663 0.79731 0.0
C360 C 0.90592 0.37306 0.9664 0.0
C361 C 0.85775 0.36384 0.96958 0.0
C362 C 0.93842 0.36192 0.98556 0.0
C363 C 0.92228 0.34162 0.0086 0.0
C364 C 0.87369 0.33201 0.01186 0.0
C365 C 0.84201 0.34297 0.99222 0.0
C366 C 0.98999 0.3721 0.98119 0.0
C367 C 0.8551 0.3107 0.03623 0.0
C368 C 1.00878 0.27941 0.05246 0.0
C369 C 0.01747 0.31418 0.07082 0.0
C370 C 0.97833 0.28796 0.03188 0.0
C371 C 0.95593 0.33226 0.0297 0.0
C372 C 0.96526 0.36774 0.04789 0.0
C373 C 0.99606 0.35837 0.0681 0.0
C374 C 0.96956 0.24941 0.0127 0.0
C375 C 0.94225 0.41549 0.04619 0.0
H376 H 0.91838 0.38858 0.94876 0.0
H377 H 0.80483 0.33563 0.99471 0.0
H378 H 1.00264 0.39803 0.99541 0.0
H379 H 1.01092 0.33956 0.98382 0.0
H380 H 0.997 0.38621 0.96182 0.0
H381 H 0.81651 0.30443 0.03555 0.0
H382 H 0.87298 0.27678 0.04008 0.0
H383 H 0.86288 0.33441 0.05247 0.0
H384 H 0.0249 0.24509 0.05449 0.0
H385 H 1.00337 0.38583 0.08184 0.0
H386 H 0.97757 0.26223 0.99321 0.0
H387 H 0.93185 0.23923 0.01303 0.0
H388 H 0.99113 0.21763 0.01652 0.0
H389 H 0.95113 0.43238 0.02775 0.0
H390 H 0.95336 0.43929 0.06185 0.0
H391 H 0.90341 0.41157 0.04691 0.0
C392 C 0.69154 0.19251 0.50491 0.0
C393 C 0.67063 0.17676 0.52755 0.0
C394 C 0.7023 0.1609 0.48519 0.0
C395 C 0.69245 0.11236 0.48837 0.0
C396 C 0.67212 0.09622 0.5114 0.0
C397 C 0.66118 0.12865 0.53064 0.0
C398 C 0.72364 0.17951 0.46083 0.0
C399 C 0.66166 0.04471 0.51567 0.0
C400 C 0.67501 0.03876 0.42884 0.0
C401 C 0.71906 0.01704 0.42605 0.0
C402 C 0.66594 0.06966 0.44905 0.0
C403 C 0.70158 0.07878 0.46718 0.0
C404 C 0.74575 0.05611 0.46492 0.0
C405 C 0.75401 0.02557 0.44434 0.0
C406 C 0.61831 0.09296 0.45083 0.0
C407 C 0.78446 0.06465 0.48403 0.0
H408 H 0.69904 0.22964 0.50249 0.0
H409 H 0.6456 0.11617 0.54826 0.0
H410 H 0.75745 0.16146 0.45688 0.0
H411 H 0.6998 0.17196 0.44462 0.0
H412 H 0.73013 0.21802 0.46159 0.0
H413 H 0.6476 0.03766 0.53506 0.0
H414 H 0.63555 0.03231 0.50148 0.0
H415 H 0.69408 0.02362 0.51293 0.0
H416 H 0.64741 0.03159 0.41515 0.0
H417 H 0.78822 1.00922 0.44225 0.0
H418 H 0.62248 0.13176 0.45019 0.0
H419 H 0.60137 0.08409 0.46927 0.0
H420 H 0.5944 0.08211 0.43517 0.0
H421 H 0.79477 0.1023 0.48376 0.0
H422 H 0.81617 0.04301 0.48011 0.0
H423 H 0.77171 0.05657 0.50354 0.0
C424 C 0.34449 0.17205 0.75103 0.0
C425 C 0.35263 0.18633 0.77608 0.0
C426 C 0.37685 0.18308 0.73168 0.0
C427 C 0.4174 0.21009 0.73759 0.0
C428 C 0.42463 0.22602 0.76285 0.0
C429 C 0.39246 0.21316 0.78193 0.0
C430 C 0.36856 0.16433 0.70517 0.0
C431 C 0.46663 0.25596 0.76981 0.0
C432 C 0.52456 0.19743 0.69487 0.0
C433 C 0.51903 0.2352 0.67786 0.0
C434 C 0.49174 0.18888 0.71433 0.0
C435 C 0.45323 0.21979 0.71756 0.0
C436 C 0.44832 0.25904 0.70121 0.0
C437 C 0.48075 0.26583 0.68133 0.0
C438 C 0.49776 0.14609 0.73109 0.0
C439 C 0.40841 0.29352 0.7045 0.0
H440 H 0.31377 0.15075 0.74681 0.0
H441 H 0.39842 0.22397 0.80148 0.0
H442 H 0.36776 0.19366 0.69125 0.0
H443 H 0.39801 0.14084 0.69963 0.0
H444 H 0.33506 0.14431 0.7037 0.0
H445 H 0.46481 0.26884 0.78976 0.0
H446 H 0.49944 0.23531 0.76751 0.0
H447 H 0.46915 0.2867 0.75684 0.0
H448 H 0.55446 0.17413 0.69294 0.0
H449 H 0.47529 0.29468 0.6682 0.0
H450 H 0.4661 0.12332 0.72974 0.0
H451 H 0.50128 0.15691 0.75128 0.0
H452 H 0.52913 0.12498 0.72576 0.0
H453 H 0.37438 0.27582 0.70057 0.0
H454 H 0.41179 0.32434 0.69161 0.0
H455 H 0.40715 0.30626 0.72447 0.0
C456 C 0.33774 0.8419 0.00302 0.0
C457 C 0.35972 0.85874 0.02507 0.0
C458 C 0.32679 0.87246 0.98283 0.0
C459 C 0.33761 0.92098 0.98496 0.0
C460 C 0.35891 0.93823 0.00744 0.0
C461 C 0.36995 0.90686 0.02714 0.0
C462 C 0.30437 0.85276 0.95907 0.0
C463 C 0.37044 0.98978 0.0106 0.0
C464 C 0.3552 0.9929 0.92477 0.0
C465 C 0.31188 0.0162 0.92251 0.0
C466 C 0.36377 0.9615 0.94483 0.0
C467 C 0.32838 0.95352 0.96333 0.0
C468 C 0.28478 0.97729 0.96141 0.0
C469 C 0.27699 1.00824 0.94098 0.0
C470 C 0.41079 0.93693 0.94626 0.0
C471 C 0.24636 0.96994 0.98091 0.0
H472 H 0.3297 0.80474 0.00138 0.0
H473 H 0.38642 0.92019 0.0443 0.0
H474 H 0.27086 0.87129 0.95507 0.0
H475 H 0.32792 0.8587 0.94249 0.0
H476 H 0.29706 0.81447 0.96068 0.0
H477 H 0.38511 0.9978 0.02971 0.0
H478 H 0.39644 1.00074 0.99596 0.0
H479 H 0.33838 1.01133 0.00771 0.0
H480 H 0.38274 0.99949 0.91091 0.0
H481 H 0.24325 0.02566 0.93924 0.0
H482 H 0.40555 0.89825 0.9465 0.0
H483 H 0.42894 0.94656 0.96421 0.0
H484 H 0.43411 0.94609 0.92999 0.0
H485 H 0.23602 0.93231 0.98147 0.0
H486 H 0.2146 0.99137 0.9768 0.0
H487 H 0.25948 0.97927 0.00015 0.0
C488 C 0.62038 0.86214 0.28323 0.0
C489 C 0.66867 0.8553 0.27915 0.0
C490 C 0.58733 0.85063 0.26444 0.0
C491 C 0.60305 0.83261 0.24081 0.0
C492 C 0.65173 0.82454 0.23681 0.0
C493 C 0.68401 0.83561 0.25617 0.0
C494 C 0.53571 0.85884 0.26967 0.0
C495 C 0.66985 0.80579 0.21177 0.0
C496 C 0.51578 0.77561 0.19531 0.0
C497 C 0.50634 0.81279 0.17848 0.0
C498 C 0.54671 0.7816 0.21593 0.0
C499 C 0.56897 0.82566 0.21966 0.0
C500 C 0.55882 0.86353 0.20307 0.0
C501 C 0.52739 0.85675 0.18286 0.0
C502 C 0.5562 0.74061 0.23347 0.0
C503 C 0.58168 0.91114 0.20643 0.0
H504 H 0.60834 0.87664 0.30119 0.0
H505 H 0.72132 0.83021 0.25303 0.0
H506 H 0.52209 0.88636 0.25665 0.0
H507 H 0.51532 0.82625 0.26595 0.0
H508 H 0.5291 0.87012 0.2896 0.0
H509 H 0.70834 0.79904 0.21219 0.0
H510 H 0.65144 0.77263 0.20679 0.0
H511 H 0.66238 0.83151 0.19639 0.0
H512 H 0.49995 0.74146 0.19197 0.0
H513 H 0.51949 0.886 0.17034 0.0
H514 H 0.54914 0.75078 0.25351 0.0
H515 H 0.59385 0.73056 0.23225 0.0
H516 H 0.53435 0.70939 0.22873 0.0
H517 H 0.573 0.92555 0.22549 0.0
H518 H 0.57027 0.93682 0.19174 0.0
H519 H 0.62053 0.90762 0.20541 0.0
C520 C 0.23255 0.91478 0.13732 0.0
C521 C 0.26483 0.90856 0.11742 0.0
C522 C 0.21293 0.95921 0.1424 0.0
C523 C 0.22514 0.99815 0.12683 0.0
C524 C 0.25747 0.99189 0.10655 0.0
C525 C 0.2772 0.94731 0.10225 0.0
C526 C 0.17921 0.96453 0.16445 0.0
C527 C 0.27072 0.03211 0.08915 0.0
C528 C 0.1402 0.10161 0.12476 0.0
C529 C 0.16281 0.13461 0.14041 0.0
C530 C 0.16028 0.05731 0.12001 0.0
C531 C 0.20367 0.04529 0.13153 0.0
C532 C 0.22658 0.07838 0.14744 0.0
C533 C 0.2061 0.12275 0.15151 0.0
C534 C 0.1351 0.02342 0.10256 0.0
C535 C 0.27254 0.06673 0.16036 0.0
H536 H 0.22319 0.88492 0.14913 0.0
H537 H 0.30153 0.94246 0.08656 0.0
H538 H 0.19231 0.99188 0.17774 0.0
H539 H 0.14439 0.97636 0.15742 0.0
H540 H 0.17437 0.93116 0.17517 0.0
H541 H 0.296 0.0213 0.07409 0.0
H542 H 0.23872 0.0464 0.07988 0.0
H543 H 0.2867 0.06107 0.10035 0.0
H544 H 0.10688 0.11053 0.11599 0.0
H545 H 0.22369 0.14791 0.16375 0.0
H546 H 0.12618 0.99071 0.11305 0.0
H547 H 0.15851 1.0134 0.08654 0.0
H548 H 0.10218 0.0385 0.09464 0.0
H549 H 0.26817 0.03494 0.17241 0.0
H550 H 0.28551 0.09602 0.17248 0.0
H551 H 0.29978 0.05856 0.14589 0.0
C552 C 0.61545 0.73872 0.39075 0.0
C553 C 0.62276 0.77145 0.37118 0.0
C554 C 0.57076 0.7188 0.39499 0.0
C555 C 0.53269 0.73124 0.37892 0.0
C556 C 0.54002 0.76412 0.35902 0.0
C557 C 0.58483 0.78405 0.35552 0.0
C558 C 0.56429 0.68438 0.41662 0.0
C559 C 0.50074 0.77768 0.34113 0.0
C560 C 0.42983 0.64557 0.37465 0.0
C561 C 0.39611 0.66713 0.39029 0.0
C562 C 0.47415 0.6663 0.37056 0.0
C563 C 0.48539 0.70935 0.38269 0.0
C564 C 0.45147 0.73137 0.39845 0.0
C565 C 0.40715 0.7102 0.40191 0.0
C566 C 0.50902 0.64205 0.35328 0.0
C567 C 0.46221 0.77704 0.41192 0.0
H568 H 0.64471 0.72911 0.40289 0.0
H569 H 0.59054 0.80864 0.34005 0.0
H570 H 0.53606 0.69681 0.42958 0.0
H571 H 0.55309 0.64972 0.40905 0.0
H572 H 0.59704 0.67949 0.42784 0.0
H573 H 0.51231 0.80354 0.32653 0.0
H574 H 0.48712 0.74594 0.33129 0.0
H575 H 0.47105 0.79303 0.35204 0.0
H576 H 0.42155 0.61244 0.36548 0.0
H577 H 0.38143 0.72704 0.41412 0.0
H578 H 0.5412 0.63289 0.36412 0.0
H579 H 0.51982 0.66614 0.33769 0.0
H580 H 0.49442 0.60941 0.34474 0.0
H581 H 0.49322 0.7725 0.42449 0.0
H582 H 0.43212 0.78956 0.42361 0.0
H583 H 0.47129 0.80466 0.3978 0.0
C584 C 0.81017 0.12516 0.63402 0.0
C585 C 0.77678 0.1305 0.61467 0.0
C586 C 0.82916 0.08077 0.63973 0.0
C587 C 0.8153 0.04107 0.62522 0.0
C588 C 0.78227 0.04659 0.60526 0.0
C589 C 0.76298 0.09115 0.60044 0.0
C590 C 0.86354 0.07623 0.66148 0.0
C591 C 0.76746 1.0055 0.5889 0.0
C592 C 0.89676 0.93492 0.62564 0.0
C593 C 0.87308 0.90417 0.64218 0.0
C594 C 0.87805 0.9793 0.61968 0.0
C595 C 0.83519 0.99374 0.63101 0.0
C596 C 0.81134 0.96296 0.64791 0.0
C597 C 0.83029 0.91834 0.65306 0.0
C598 C 0.90401 1.0106 0.60112 0.0
C599 C 0.76605 0.97738 0.66077 0.0
H600 H 0.82052 0.15565 0.64506 0.0
H601 H 0.73765 0.09551 0.58521 0.0
H602 H 0.84987 0.05072 0.67571 0.0
H603 H 0.89759 0.06235 0.65442 0.0
H604 H 0.87006 0.11035 0.67116 0.0
H605 H 0.74279 0.01608 0.57353 0.0
H606 H 0.79887 0.98901 0.58008 0.0
H607 H 0.75013 0.97831 0.60083 0.0
H608 H 0.92968 0.92402 0.61703 0.0
H609 H 0.81201 0.89485 0.66601 0.0
H610 H 0.91435 0.04389 0.6106 0.0
H611 H 0.88058 0.01997 0.58501 0.0
H612 H 0.93616 0.99361 0.59338 0.0
H613 H 0.7717 1.01016 0.67182 0.0
H614 H 0.7524 0.94978 0.67384 0.0
H615 H 0.73878 0.98499 0.64626 0.0
C616 C 0.43784 0.23231 0.88114 0.0
C617 C 0.40407 0.26297 0.87097 0.0
C618 C 0.48469 0.24669 0.88461 0.0
C619 C 0.4982 0.293 0.87785 0.0
C620 C 0.46402 0.32465 0.86836 0.0
C621 C 0.41741 0.30926 0.86501 0.0
C622 C 0.52001 0.21189 0.89486 0.0
C623 C 0.47701 0.37435 0.86097 0.0
C624 C 0.61361 0.34052 0.90416 0.0
C625 C 0.64439 0.33359 0.88356 0.0
C626 C 0.56589 0.32785 0.90252 0.0
C627 C 0.54846 0.30765 0.87977 0.0
C628 C 0.57925 0.30078 0.85887 0.0
C629 C 0.62679 0.31384 0.86101 0.0
C630 C 0.53414 0.33592 0.92518 0.0
C631 C 0.56201 0.27936 0.83426 0.0
H632 H 0.4277 0.19674 0.88614 0.0
H633 H 0.39186 0.33306 0.85684 0.0
H634 H 0.54754 0.20515 0.88031 0.0
H635 H 0.53787 0.22661 0.91186 0.0
H636 H 0.50348 0.17782 0.90017 0.0
H637 H 0.44579 0.39548 0.85545 0.0
H638 H 0.49506 0.3922 0.87701 0.0
H639 H 0.50196 0.37371 0.84471 0.0
H640 H 0.62677 0.35587 0.92164 0.0
H641 H 0.6502 0.30838 0.84497 0.0
H642 H 0.51935 0.30191 0.93182 0.0
H643 H 0.50406 0.35852 0.91964 0.0
H644 H 0.55292 0.35284 0.94131 0.0
H645 H 0.54773 0.24363 0.8379 0.0
H646 H 0.59032 0.2767 0.81972 0.0
H647 H 0.53293 0.3008 0.82631 0.0
C648 C 0.72059 0.40796 0.63586 0.0
C649 C 0.69912 0.39053 0.61374 0.0
C650 C 0.73251 0.45575 0.63812 0.0
C651 C 0.72257 0.48699 0.61781 0.0
C652 C 0.70051 0.46974 0.59552 0.0
C653 C 0.68917 0.42174 0.59373 0.0
C654 C 0.75612 0.47275 0.66218 0.0
C655 C 0.68907 0.50198 0.57353 0.0
C656 C 0.71996 0.61733 0.63419 0.0
C657 C 0.76529 0.6318 0.62691 0.0
C658 C 0.70507 0.5706 0.63071 0.0
C659 C 0.73628 0.53748 0.61976 0.0
C660 C 0.78148 0.55221 0.61163 0.0
C661 C 0.79533 0.59914 0.61523 0.0
C662 C 0.65652 0.55631 0.63954 0.0
C663 C 0.8158 0.51806 0.59982 0.0
H664 H 0.72841 0.3842 0.65143 0.0
H665 H 0.67239 0.40871 0.5766 0.0
H666 H 0.79111 0.48793 0.65756 0.0
H667 H 0.73491 0.50108 0.67106 0.0
H668 H 0.76093 0.44411 0.67634 0.0
H669 H 0.67071 0.48332 0.55783 0.0
H670 H 0.66647 0.53131 0.58016 0.0
H671 H 0.72191 0.51778 0.56588 0.0
H672 H 0.69667 0.64204 0.6435 0.0
H673 H 0.83011 0.61019 0.6092 0.0
H674 H 0.65946 0.53108 0.65558 0.0
H675 H 0.63738 0.53817 0.62397 0.0
H676 H 0.6353 0.58689 0.64595 0.0
H677 H 0.8248 0.49023 0.61381 0.0
H678 H 0.84886 0.53552 0.59355 0.0
H679 H 0.79954 0.50045 0.58316 0.0
C680 C 0.10153 0.13809 0.87507 0.0
C681 C 0.13187 0.16077 0.85789 0.0
C682 C 0.05704 0.15684 0.88084 0.0
C683 C 0.04212 0.19878 0.86875 0.0
C684 C 0.07257 0.22174 0.85132 0.0
C685 C 0.11724 0.20272 0.8463 0.0
C686 C 0.02603 0.1318 0.89991 0.0
C687 C 0.05771 0.2661 0.83772 0.0
C688 C 0.91047 0.2226 0.86505 0.0
C689 C 0.90472 0.25713 0.88378 0.0
C690 C 0.95505 0.20349 0.85984 0.0
C691 C 0.99455 0.2185 0.87417 0.0
C692 C 0.98862 0.25267 0.89353 0.0
C693 C 0.94386 0.27195 0.8979 0.0
C694 C 0.96 0.16777 0.83875 0.0
C695 C 0.0295 0.2688 0.90969 0.0
H696 H 0.11273 0.10583 0.88423 0.0
H697 H 0.14038 0.2203 0.83289 0.0
H698 H 0.01633 0.15617 0.91555 0.0
H699 H 0.99286 0.12042 0.89064 0.0
H700 H 0.04342 0.10043 0.90827 0.0
H701 H 0.08526 0.27935 0.82449 0.0
H702 H 0.02507 0.25944 0.82671 0.0
H703 H 0.04965 0.29405 0.85178 0.0
H704 H 0.88016 0.21142 0.8541 0.0
H705 H 0.93922 0.29812 0.91268 0.0
H706 H 0.97434 0.1344 0.84644 0.0
H707 H 0.98532 0.18081 0.82425 0.0
H708 H 0.92593 0.16017 0.82923 0.0
H709 H 0.04627 0.23811 0.91903 0.0
H710 H 0.01859 0.29423 0.92463 0.0
H711 H 0.05659 0.28571 0.8975 0.0
C712 C 0.32266 0.6245 0.09482 0.0
C713 C 0.36613 0.63544 0.10604 0.0
C714 C 0.3016 0.58015 0.09835 0.0
C715 C 0.32418 0.54607 0.11374 0.0
C716 C 0.36772 0.55716 0.12541 0.0
C717 C 0.38829 0.60153 0.12129 0.0
C718 C 0.25539 0.56959 0.08537 0.0
C719 C 0.39262 0.52212 0.14228 0.0
C720 C 0.25037 0.44664 0.14164 0.0
C721 C 0.26236 0.40875 0.12581 0.0
C722 C 0.27021 0.49142 0.13797 0.0
C723 C 0.30232 0.49879 0.11768 0.0
C724 C 0.31409 0.46077 0.10143 0.0
C725 C 0.29434 0.41609 0.10586 0.0
C726 C 0.25739 0.53063 0.15607 0.0
C727 C 0.34764 0.46728 0.07938 0.0
H728 H 0.30534 0.65037 0.08293 0.0
H729 H 0.42175 0.60969 0.13015 0.0
H730 H 0.25937 0.53861 0.07272 0.0
H731 H 0.22825 0.56057 0.09978 0.0
H732 H 0.24253 0.59972 0.07386 0.0
H733 H 0.42571 0.53653 0.15041 0.0
H734 H 0.36917 0.51131 0.15816 0.0
H735 H 0.40119 0.48999 0.13125 0.0
H736 H 0.22634 0.4409 0.15739 0.0
H737 H 0.30346 0.38688 0.09358 0.0
H738 H 0.24167 0.56036 0.14539 0.0
H739 H 0.28955 0.54414 0.16555 0.0
H740 H 0.23205 0.51904 0.17096 0.0
H741 H 0.33472 0.4956 0.06664 0.0
H742 H 0.35198 0.4346 0.06804 0.0
H743 H 0.38265 0.47837 0.08653 0.0
C744 C 0.93094 0.89266 0.3711 0.0
C745 C 0.89703 0.86975 0.35615 0.0
C746 C 0.97503 0.87206 0.37581 0.0
C747 C 0.98587 0.82774 0.36501 0.0
C748 C 0.95184 0.80448 0.34984 0.0
C749 C 0.90775 0.82556 0.34576 0.0
C750 C 1.00999 0.89772 0.39242 0.0
C751 C 0.96219 0.75748 0.33771 0.0
C752 C 0.11568 0.79631 0.35838 0.0
C753 C 0.12218 0.76543 0.37888 0.0
C754 C 0.07136 0.81623 0.35338 0.0
C755 C 0.03281 0.80576 0.36961 0.0
C756 C 0.03931 0.77477 0.39044 0.0
C757 C 0.08377 0.75468 0.39468 0.0
C758 C 0.06577 0.84851 0.33075 0.0
C759 C 0.99949 0.76339 0.40852 0.0
H760 H 0.92293 0.92668 0.37931 0.0
H761 H 0.88188 0.80768 0.33409 0.0
H762 H 0.02016 0.8752 0.40876 0.0
H763 H 0.04249 0.90535 0.38143 0.0
H764 H 0.99576 0.93138 0.39988 0.0
H765 H 0.93222 0.74423 0.32619 0.0
H766 H 0.99361 0.76045 0.32523 0.0
H767 H 0.97044 0.73112 0.35263 0.0
H768 H 0.14525 0.8044 0.34608 0.0
H769 H 0.08886 0.73144 0.4108 0.0
H770 H 0.05485 0.88398 0.33722 0.0
H771 H 0.03765 0.83503 0.31804 0.0
H772 H 0.09881 0.85198 0.31956 0.0
H773 H 0.98603 0.79622 0.4173 0.0
H774 H 1.01044 0.739 0.42395 0.0
H775 H 0.96987 0.74715 0.39794 0.0
C776 C 0.9114 0.99659 0.2825 0.0
C777 C 0.86644 1.00116 0.27173 0.0
C778 C 0.95009 0.02172 0.27256 0.0
C779 C 0.94335 0.05262 0.25169 0.0
C780 C 0.89889 0.05436 0.23959 0.0
C781 C 0.86128 0.02829 0.24959 0.0
C782 C 0.99729 0.01745 0.28545 0.0
C783 C 0.8899 0.08664 0.21725 0.0
C784 C 1.00465 0.17031 0.24706 0.0
C785 C 0.03159 0.16509 0.22483 0.0
C786 C 0.97831 0.13288 0.25702 0.0
C787 C 0.97956 0.08853 0.2448 0.0
C788 C 1.01027 0.08169 0.22382 0.0
C789 C 0.0357 0.12021 0.21393 0.0
C790 C 0.94627 0.14197 0.27947 0.0
C791 C 1.01402 0.03459 0.21079 0.0
H792 H 0.9159 0.97546 0.2995 0.0
H793 H 0.82711 0.03075 0.24059 0.0
H794 H 0.02628 0.01794 0.27126 0.0
H795 H 1.00252 0.04776 0.29843 0.0
H796 H 0.99976 0.98465 0.29689 0.0
H797 H 0.85441 0.0813 0.20887 0.0
H798 H 0.89286 0.12379 0.22353 0.0
H799 H 0.91662 0.08097 0.20216 0.0
H800 H 1.00255 0.20442 0.25614 0.0
H801 H 0.05668 0.11568 0.19687 0.0
H802 H 0.95179 0.11509 0.29447 0.0
H803 H 0.90901 0.13941 0.27327 0.0
H804 H 0.952 0.17731 0.28794 0.0
H805 H 1.01335 1.0055 0.2249 0.0
H806 H 0.04673 0.03192 0.19927 0.0
H807 H 0.98354 0.02975 0.19788 0.0
C808 C 0.47542 0.38845 0.54456 0.0
C809 C 0.52026 0.3737 0.5369 0.0
C810 C 0.45118 0.42343 0.53117 0.0
C811 C 0.47206 0.44394 0.5093 0.0
C812 C 0.51869 0.43148 0.50246 0.0
C813 C 0.54241 0.39654 0.51647 0.0
C814 C 0.40186 0.43608 0.53945 0.0
C815 C 0.54227 0.45257 0.47936 0.0
C816 C 0.37801 0.47371 0.46125 0.0
C817 C 0.3705 0.52156 0.46592 0.0
C818 C 0.41361 0.44894 0.47383 0.0
C819 C 0.44213 0.4725 0.49188 0.0
C820 C 0.43681 0.52168 0.49541 0.0
C821 C 0.40104 0.54581 0.48222 0.0
C822 C 0.41836 0.39676 0.46908 0.0
C823 C 0.46656 0.54813 0.51438 0.0
H824 H 0.45872 0.37147 0.56071 0.0
H825 H 0.57713 0.38519 0.51056 0.0
H826 H 0.39763 0.47482 0.54026 0.0
H827 H 0.37621 0.42242 0.52535 0.0
H828 H 0.39292 0.42113 0.55841 0.0
H829 H 0.5808 0.44598 0.47928 0.0
H830 H 0.52699 0.43679 0.4619 0.0
H831 H 0.53608 0.49105 0.47844 0.0
H832 H 0.35465 0.45528 0.44835 0.0
H833 H 0.39506 0.58285 0.4858 0.0
H834 H 0.40617 0.37706 0.48612 0.0
H835 H 0.45574 0.38734 0.46578 0.0
H836 H 0.39733 0.38497 0.45244 0.0
H837 H 0.45415 0.53993 0.53394 0.0
H838 H 0.46438 0.58678 0.5115 0.0
H839 H 0.50393 0.53716 0.51309 0.0
C840 C 0.99148 0.91207 0.71741 0.0
C841 C 1.00033 0.866 0.72572 0.0
C842 C 0.01641 0.9504 0.7277 0.0
C843 C 0.05113 0.94221 0.74652 0.0
C844 C 0.05736 0.89624 0.75633 0.0
C845 C 0.03173 0.85884 0.7459 0.0
C846 C 1.00785 0.99901 0.71717 0.0
C847 C 0.09371 0.88583 0.77653 0.0
C848 C 0.16562 1.00954 0.74876 0.0
C849 C 0.16181 0.03337 0.77202 0.0
C850 C 0.12838 0.9824 0.73932 0.0
C851 C 0.0859 0.97934 0.75336 0.0
C852 C 0.08026 1.00669 0.77569 0.0
C853 C 0.11845 0.03331 0.78485 0.0
C854 C 0.13593 0.95417 0.71529 0.0
C855 C 0.03514 1.00538 0.79086 0.0
H856 H 0.96715 0.91789 0.70186 0.0
H857 H 0.03771 0.82349 0.75287 0.0
H858 H 1.00835 0.02566 0.73259 0.0
H859 H 0.03628 1.00815 0.70353 0.0
H860 H 0.97366 1.00119 0.70699 0.0
H861 H 0.09128 0.84911 0.78366 0.0
H862 H 0.12948 0.89138 0.76853 0.0
H863 H 0.0896 0.91015 0.79287 0.0
H864 H 0.19857 1.0106 0.73838 0.0
H865 H 0.11517 0.05181 0.8028 0.0
H866 H 0.1063 0.95953 0.70189 0.0
H867 H 0.13707 0.91615 0.72007 0.0
H868 H 0.16926 0.96371 0.70546 0.0
H869 H 1.00407 1.00544 0.77809 0.0
H870 H 0.03252 0.03569 0.80413 0.0
H871 H 0.03386 0.97253 0.80225 0.0
C872 C 0.64656 0.55965 0.95242 0.0
C873 C 0.66063 0.51453 0.9599 0.0
C874 C 0.61166 0.58411 0.96581 0.0
C875 C 0.59051 0.56312 0.98746 0.0
C876 C 0.60227 0.51624 0.99409 0.0
C877 C 0.63716 0.49233 0.98011 0.0
C878 C 0.59981 0.63371 0.95776 0.0
C879 C 0.58046 0.49252 0.01695 0.0
C880 C 0.56083 0.65626 0.0361 0.0
C881 C 0.51305 0.66424 0.03135 0.0
C882 C 0.58553 0.62087 0.02329 0.0
C883 C 0.56198 0.59305 0.00492 0.0
C884 C 0.51288 0.59892 0.00121 0.0
C885 C 0.48883 0.63445 0.01464 0.0
C886 C 0.63761 0.61549 0.02822 0.0
C887 C 0.48647 0.56996 0.98187 0.0
H888 H 0.664 0.57641 0.93644 0.0
H889 H 0.64799 0.4574 0.98588 0.0
H890 H 0.56112 0.63847 0.9568 0.0
H891 H 0.61358 0.65889 0.97207 0.0
H892 H 0.6152 0.6428 0.93892 0.0
H893 H 0.58663 0.45395 0.01686 0.0
H894 H 0.59607 0.50733 0.03457 0.0
H895 H 0.54202 0.49913 0.01771 0.0
H896 H 0.57925 0.67897 0.04934 0.0
H897 H 0.45185 0.64076 0.01099 0.0
H898 H 0.65771 0.62773 0.01132 0.0
H899 H 0.64657 0.57798 0.03137 0.0
H900 H 0.64937 0.6361 0.04502 0.0
H901 H 0.49537 0.58258 0.96245 0.0
H902 H 0.44775 0.57264 0.98448 0.0
H903 H 0.49686 0.53242 0.98302 0.0
loop_
_geom_bond_atom_site_label_1
_geom_bond_atom_site_label_2
_geom_bond_distance
_geom_bond_site_symmetry_2
_ccdc_geom_bond_type
Co0 N4 2.148 . S
Co0 N10 2.128 . S
Co0 N20 2.194 . S
Co0 O25 2.351 . S
Co0 O26 2.155 . S
Co0 O27 2.096 . S
C1 N4 1.301 . S
C1 N5 1.328 . S
C1 H6 0.930 . S
C2 C3 1.333 . S
C2 N4 1.317 . S
C2 H7 0.930 . S
C3 C2 1.333 . S
C3 N5 1.350 . S
C3 H29 0.931 . S
N4 Co0 2.148 . S
N4 C1 1.301 . S
N4 C2 1.317 . S
N5 C1 1.328 . S
N5 C3 1.350 . S
H6 C1 0.930 . S
H7 C2 0.930 . S
C8 O9 1.224 . S
C8 O27 1.247 . S
O9 C8 1.224 . S
N10 Co0 2.128 . S
N10 C11 1.355 . S
N10 C13 1.311 . S
C11 N10 1.355 . S
C11 C12 1.363 1_455 S
C11 H23 0.929 . S
C12 C11 1.363 1_655 S
C12 N14 1.375 1_655 S
C12 H30 0.931 . S
C13 N10 1.311 . S
C13 N14 1.347 . S
C13 H24 0.929 . S
N14 C12 1.375 1_455 S
N14 C13 1.347 . S
C15 C18 1.365 . S
C15 N20 1.328 . S
C15 H21 0.929 . S
C16 C17 1.362 1_455 S
C16 C19 1.378 . S
C16 H31 0.929 . S
C17 C16 1.362 1_655 S
C17 C18 1.366 1_655 S
C18 C15 1.365 . S
C18 C17 1.366 1_455 S
C18 H32 0.930 1_455 S
C19 C16 1.378 . S
C19 N20 1.315 . S
C19 H22 0.930 . S
N20 Co0 2.194 . S
N20 C15 1.328 . S
N20 C19 1.315 . S
H21 C15 0.929 . S
H22 C19 0.930 . S
H23 C11 0.929 . S
H24 C13 0.929 . S
O25 Co0 2.351 . S
O25 C28 1.244 . S
O26 Co0 2.155 . S
O26 C28 1.240 . S
O27 Co0 2.096 . S
O27 C8 1.247 . S
C28 O25 1.244 . S
C28 O26 1.240 . S
H29 C3 0.931 . S
H30 C12 0.931 . S
H31 C16 0.929 . S
H32 C18 0.930 1_655 S
Co33 N37 2.148 . S
Co33 N43 2.128 . S
Co33 N53 2.194 . S
Co33 O58 2.351 . S
Co33 O59 2.155 . S
Co33 O60 2.096 . S
C34 N37 1.301 . S
C34 N38 1.328 . S
C34 H39 0.930 . S
C35 C36 1.333 . S
C35 N37 1.317 . S
C35 H40 0.930 . S
C36 C35 1.333 . S
C36 N38 1.350 . S
C36 H62 0.931 . S
N37 Co33 2.148 . S
N37 C34 1.301 . S
N37 C35 1.317 . S
N38 C34 1.328 . S
N38 C36 1.350 . S
H39 C34 0.930 . S
H40 C35 0.930 . S
C41 O42 1.224 . S
C41 O60 1.247 . S
O42 C41 1.224 . S
N43 Co33 2.128 . S
N43 C44 1.355 . S
N43 C46 1.311 . S
C44 N43 1.355 . S
C44 C45 1.363 . S
C44 H56 0.929 . S
C45 C44 1.363 . S
C45 N47 1.375 . S
C45 H63 0.931 . S
C46 N43 1.311 . S
C46 N47 1.347 . S
C46 H57 0.929 . S
N47 C45 1.375 . S
N47 C46 1.347 . S
C48 C51 1.365 . S
C48 N53 1.328 . S
C48 H54 0.929 . S
C49 C50 1.362 . S
C49 C52 1.378 . S
C49 H64 0.929 . S
C50 C49 1.362 . S
C50 C51 1.366 . S
C51 C48 1.365 . S
C51 C50 1.366 . S
C51 H65 0.930 . S
C52 C49 1.378 . S
C52 N53 1.315 . S
C52 H55 0.930 . S
N53 Co33 2.194 . S
N53 C48 1.328 . S
N53 C52 1.315 . S
H54 C48 0.929 . S
H55 C52 0.930 . S
H56 C44 0.929 . S
H57 C46 0.929 . S
O58 Co33 2.351 . S
O58 C61 1.244 . S
O59 Co33 2.155 . S
O59 C61 1.240 . S
O60 Co33 2.096 . S
O60 C41 1.247 . S
C61 O58 1.244 . S
C61 O59 1.240 . S
H62 C36 0.931 . S
H63 C45 0.931 . S
H64 C49 0.929 . S
H65 C51 0.930 . S
Co66 N70 2.148 . S
Co66 N76 2.128 . S
Co66 N86 2.194 . S
Co66 O91 2.351 . S
Co66 O92 2.155 . S
Co66 O93 2.096 . S
C67 N70 1.301 . S
C67 N71 1.328 . S
C67 H72 0.930 . S
C68 C69 1.333 . S
C68 N70 1.317 . S
C68 H73 0.930 . S
C69 C68 1.333 . S
C69 N71 1.350 . S
C69 H95 0.931 . S
N70 Co66 2.148 . S
N70 C67 1.301 . S
N70 C68 1.317 . S
N71 C67 1.328 . S
N71 C69 1.350 . S
H72 C67 0.930 . S
H73 C68 0.930 . S
C74 O75 1.224 . S
C74 O93 1.247 . S
O75 C74 1.224 . S
N76 Co66 2.128 . S
N76 C77 1.355 . S
N76 C79 1.311 . S
C77 N76 1.355 . S
C77 C78 1.363 1_655 S
C77 H89 0.929 . S
C78 C77 1.363 1_455 S
C78 N80 1.375 1_455 S
C78 H96 0.931 . S
C79 N76 1.311 . S
C79 N80 1.347 . S
C79 H90 0.929 . S
N80 C78 1.375 1_655 S
N80 C79 1.347 . S
C81 C84 1.365 . S
C81 N86 1.328 . S
C81 H87 0.929 . S
C82 C83 1.362 1_655 S
C82 C85 1.378 . S
C82 H97 0.929 . S
C83 C82 1.362 1_455 S
C83 C84 1.366 1_455 S
C84 C81 1.365 . S
C84 C83 1.366 1_655 S
C84 H98 0.930 1_655 S
C85 C82 1.378 . S
C85 N86 1.315 . S
C85 H88 0.930 . S
N86 Co66 2.194 . S
N86 C81 1.328 . S
N86 C85 1.315 . S
H87 C81 0.929 . S
H88 C85 0.930 . S
H89 C77 0.929 . S
H90 C79 0.929 . S
O91 Co66 2.351 . S
O91 C94 1.244 . S
O92 Co66 2.155 . S
O92 C94 1.240 . S
O93 Co66 2.096 . S
O93 C74 1.247 . S
C94 O91 1.244 . S
C94 O92 1.240 . S
H95 C69 0.931 . S
H96 C78 0.931 . S
H97 C82 0.929 . S
H98 C84 0.930 1_455 S
Co99 N103 2.148 . S
Co99 N109 2.128 . S
Co99 N119 2.194 . S
Co99 O124 2.351 . S
Co99 O125 2.155 . S
Co99 O126 2.096 . S
C100 N103 1.301 . S
C100 N104 1.328 . S
C100 H105 0.930 . S
C101 C102 1.333 . S
C101 N103 1.317 . S
C101 H106 0.930 . S
C102 C101 1.333 . S
C102 N104 1.350 . S
C102 H128 0.931 . S
N103 Co99 2.148 . S
N103 C100 1.301 . S
N103 C101 1.317 . S
N104 C100 1.328 . S
N104 C102 1.350 . S
H105 C100 0.930 . S
H106 C101 0.930 . S
C107 O108 1.224 . S
C107 O126 1.247 . S
O108 C107 1.224 . S
N109 Co99 2.128 . S
N109 C110 1.355 . S
N109 C112 1.311 . S
C110 N109 1.355 . S
C110 C111 1.363 . S
C110 H122 0.929 . S
C111 C110 1.363 . S
C111 N113 1.375 . S
C111 H129 0.931 . S
C112 N109 1.311 . S
C112 N113 1.347 . S
C112 H123 0.929 . S
N113 C111 1.375 . S
N113 C112 1.347 . S
C114 C117 1.365 . S
C114 N119 1.328 . S
C114 H120 0.929 . S
C115 C116 1.362 . S
C115 C118 1.378 . S
C115 H130 0.929 . S
C116 C115 1.362 . S
C116 C117 1.366 . S
C117 C114 1.365 . S
C117 C116 1.366 . S
C117 H131 0.930 . S
C118 C115 1.378 . S
C118 N119 1.315 . S
C118 H121 0.930 . S
N119 Co99 2.194 . S
N119 C114 1.328 . S
N119 C118 1.315 . S
H120 C114 0.929 . S
H121 C118 0.930 . S
H122 C110 0.929 . S
H123 C112 0.929 . S
O124 Co99 2.351 . S
O124 C127 1.244 . S
O125 Co99 2.155 . S
O125 C127 1.240 . S
O126 Co99 2.096 . S
O126 C107 1.247 . S
C127 O124 1.244 . S
C127 O125 1.240 . S
H128 C102 0.931 . S
H129 C111 0.931 . S
H130 C115 0.929 . S
H131 C117 0.930 . S
Co132 N136 2.148 . S
Co132 N142 2.128 . S
Co132 N152 2.194 . S
Co132 O157 2.351 . S
Co132 O158 2.155 . S
Co132 O159 2.096 . S
C133 N136 1.301 . S
C133 N137 1.328 . S
C133 H138 0.930 . S
C134 C135 1.333 . S
C134 N136 1.317 . S
C134 H139 0.930 . S
C135 C134 1.333 . S
C135 N137 1.350 . S
C135 H161 0.931 . S
N136 Co132 2.148 . S
N136 C133 1.301 . S
N136 C134 1.317 . S
N137 C133 1.328 . S
N137 C135 1.350 . S
H138 C133 0.930 . S
H139 C134 0.930 . S
C140 O141 1.224 . S
C140 O159 1.247 . S
O141 C140 1.224 . S
N142 Co132 2.128 . S
N142 C143 1.355 . S
N142 C145 1.311 . S
C143 N142 1.355 . S
C143 C144 1.363 . S
C143 H155 0.929 . S
C144 C143 1.363 . S
C144 N146 1.375 . S
C144 H162 0.931 . S
C145 N142 1.311 . S
C145 N146 1.347 . S
C145 H156 0.929 . S
N146 C144 1.375 . S
N146 C145 1.347 . S
C147 C150 1.365 . S
C147 N152 1.328 . S
C147 H153 0.929 . S
C148 C149 1.362 . S
C148 C151 1.378 . S
C148 H163 0.929 . S
C149 C148 1.362 . S
C149 C150 1.366 . S
C150 C147 1.365 . S
C150 C149 1.366 . S
C150 H164 0.930 . S
C151 C148 1.378 . S
C151 N152 1.315 . S
C151 H154 0.930 . S
N152 Co132 2.194 . S
N152 C147 1.328 . S
N152 C151 1.315 . S
H153 C147 0.929 . S
H154 C151 0.930 . S
H155 C143 0.929 . S
H156 C145 0.929 . S
O157 Co132 2.351 . S
O157 C160 1.244 . S
O158 Co132 2.155 . S
O158 C160 1.240 . S
O159 Co132 2.096 . S
O159 C140 1.247 . S
C160 O157 1.244 . S
C160 O158 1.240 . S
H161 C135 0.931 . S
H162 C144 0.931 . S
H163 C148 0.929 . S
H164 C150 0.930 . S
Co165 N169 2.148 . S
Co165 N175 2.128 . S
Co165 N185 2.194 . S
Co165 O190 2.351 . S
Co165 O191 2.155 . S
Co165 O192 2.096 . S
C166 N169 1.301 . S
C166 N170 1.328 . S
C166 H171 0.930 . S
C167 C168 1.333 . S
C167 N169 1.317 . S
C167 H172 0.930 . S
C168 C167 1.333 . S
C168 N170 1.350 . S
C168 H194 0.931 . S
N169 Co165 2.148 . S
N169 C166 1.301 . S
N169 C167 1.317 . S
N170 C166 1.328 . S
N170 C168 1.350 . S
H171 C166 0.930 . S
H172 C167 0.930 . S
C173 O174 1.224 . S
C173 O192 1.247 . S
O174 C173 1.224 . S
N175 Co165 2.128 . S
N175 C176 1.355 . S
N175 C178 1.311 . S
C176 N175 1.355 . S
C176 C177 1.363 1_545 S
C176 H188 0.929 . S
C177 C176 1.363 1_565 S
C177 N179 1.375 1_565 S
C177 H195 0.931 . S
C178 N175 1.311 . S
C178 N179 1.347 . S
C178 H189 0.929 . S
N179 C177 1.375 1_545 S
N179 C178 1.347 . S
C180 C183 1.365 . S
C180 N185 1.328 . S
C180 H186 0.929 . S
C181 C182 1.362 1_545 S
C181 C184 1.378 . S
C181 H196 0.929 . S
C182 C181 1.362 1_565 S
C182 C183 1.366 1_565 S
C183 C180 1.365 . S
C183 C182 1.366 1_545 S
C183 H197 0.930 1_545 S
C184 C181 1.378 . S
C184 N185 1.315 . S
C184 H187 0.930 . S
N185 Co165 2.194 . S
N185 C180 1.328 . S
N185 C184 1.315 . S
H186 C180 0.929 . S
H187 C184 0.930 . S
H188 C176 0.929 . S
H189 C178 0.929 . S
O190 Co165 2.351 . S
O190 C193 1.244 . S
O191 Co165 2.155 . S
O191 C193 1.240 . S
O192 Co165 2.096 . S
O192 C173 1.247 . S
C193 O190 1.244 . S
C193 O191 1.240 . S
H194 C168 0.931 . S
H195 C177 0.931 . S
H196 C181 0.929 . S
H197 C183 0.930 1_565 S
Co198 N202 2.148 . S
Co198 N208 2.128 . S
Co198 N218 2.194 . S
Co198 O223 2.351 . S
Co198 O224 2.155 . S
Co198 O225 2.096 . S
C199 N202 1.301 . S
C199 N203 1.328 . S
C199 H204 0.930 . S
C200 C201 1.333 . S
C200 N202 1.317 . S
C200 H205 0.930 . S
C201 C200 1.333 . S
C201 N203 1.350 . S
C201 H227 0.931 . S
N202 Co198 2.148 . S
N202 C199 1.301 . S
N202 C200 1.317 . S
N203 C199 1.328 . S
N203 C201 1.350 . S
H204 C199 0.930 . S
H205 C200 0.930 . S
C206 O207 1.224 . S
C206 O225 1.247 . S
O207 C206 1.224 . S
N208 Co198 2.128 . S
N208 C209 1.355 . S
N208 C211 1.311 . S
C209 N208 1.355 . S
C209 C210 1.363 . S
C209 H221 0.929 . S
C210 C209 1.363 . S
C210 N212 1.375 . S
C210 H228 0.931 . S
C211 N208 1.311 . S
C211 N212 1.347 . S
C211 H222 0.929 . S
N212 C210 1.375 . S
N212 C211 1.347 . S
C213 C216 1.365 . S
C213 N218 1.328 . S
C213 H219 0.929 . S
C214 C215 1.362 . S
C214 C217 1.378 . S
C214 H229 0.929 . S
C215 C214 1.362 . S
C215 C216 1.366 . S
C216 C213 1.365 . S
C216 C215 1.366 . S
C216 H230 0.930 . S
C217 C214 1.378 . S
C217 N218 1.315 . S
C217 H220 0.930 . S
N218 Co198 2.194 . S
N218 C213 1.328 . S
N218 C217 1.315 . S
H219 C213 0.929 . S
H220 C217 0.930 . S
H221 C209 0.929 . S
H222 C211 0.929 . S
O223 Co198 2.351 . S
O223 C226 1.244 . S
O224 Co198 2.155 . S
O224 C226 1.240 . S
O225 Co198 2.096 . S
O225 C206 1.247 . S
C226 O223 1.244 . S
C226 O224 1.240 . S
H227 C201 0.931 . S
H228 C210 0.931 . S
H229 C214 0.929 . S
H230 C216 0.930 . S
Co231 N235 2.148 . S
Co231 N241 2.128 . S
Co231 N251 2.194 . S
Co231 O256 2.351 . S
Co231 O257 2.155 . S
Co231 O258 2.096 . S
C232 N235 1.301 . S
C232 N236 1.328 . S
C232 H237 0.930 . S
C233 C234 1.333 . S
C233 N235 1.317 . S
C233 H238 0.930 . S
C234 C233 1.333 . S
C234 N236 1.350 . S
C234 H260 0.931 . S
N235 Co231 2.148 . S
N235 C232 1.301 . S
N235 C233 1.317 . S
N236 C232 1.328 . S
N236 C234 1.350 . S
H237 C232 0.930 . S
H238 C233 0.930 . S
C239 O240 1.224 . S
C239 O258 1.247 . S
O240 C239 1.224 . S
N241 Co231 2.128 . S
N241 C242 1.355 . S
N241 C244 1.311 . S
C242 N241 1.355 . S
C242 C243 1.363 1_565 S
C242 H254 0.929 . S
C243 C242 1.363 1_545 S
C243 N245 1.375 1_545 S
C243 H261 0.931 . S
C244 N241 1.311 . S
C244 N245 1.347 . S
C244 H255 0.929 . S
N245 C243 1.375 1_565 S
N245 C244 1.347 . S
C246 C249 1.365 . S
C246 N251 1.328 . S
C246 H252 0.929 . S
C247 C248 1.362 1_565 S
C247 C250 1.378 . S
C247 H262 0.929 . S
C248 C247 1.362 1_545 S
C248 C249 1.366 1_545 S
C249 C246 1.365 . S
C249 C248 1.366 1_565 S
C249 H263 0.930 1_565 S
C250 C247 1.378 . S
C250 N251 1.315 . S
C250 H253 0.930 . S
N251 Co231 2.194 . S
N251 C246 1.328 . S
N251 C250 1.315 . S
H252 C246 0.929 . S
H253 C250 0.930 . S
H254 C242 0.929 . S
H255 C244 0.929 . S
O256 Co231 2.351 . S
O256 C259 1.244 . S
O257 Co231 2.155 . S
O257 C259 1.240 . S
O258 Co231 2.096 . S
O258 C239 1.247 . S
C259 O256 1.244 . S
C259 O257 1.240 . S
H260 C234 0.931 . S
H261 C243 0.931 . S
H262 C247 0.929 . S
H263 C249 0.930 1_545 S
C264 C265 1.391 . S
C264 C266 1.394 . S
C264 H280 0.931 . S
C265 C264 1.391 . S
C265 C269 1.376 . S
C266 C264 1.394 . S
C266 C267 1.369 . S
C266 C270 1.531 . S
C267 C266 1.369 . S
C267 C268 1.410 . S
C267 C275 1.503 . S
C268 C267 1.410 . S
C268 C269 1.392 . S
C268 C271 1.511 . S
C269 C265 1.376 . S
C269 C268 1.392 . S
C269 H281 0.929 . S
C270 C266 1.531 . S
C270 H282 0.960 . S
C270 H283 0.962 . S
C270 H284 0.960 . S
C271 C268 1.511 . S
C271 H285 0.961 . S
C271 H286 0.961 . S
C271 H287 0.961 . S
C272 C273 1.370 . S
C272 C274 1.363 . S
C272 H288 0.931 . S
C273 C272 1.370 . S
C273 C277 1.408 . S
C274 C272 1.363 . S
C274 C275 1.370 . S
C274 C278 1.524 . S
C275 C267 1.503 . S
C275 C274 1.370 . S
C275 C276 1.403 . S
C276 C275 1.403 . S
C276 C277 1.404 . S
C276 C279 1.539 . S
C277 C273 1.408 . S
C277 C276 1.404 . S
C277 H289 0.930 . S
C278 C274 1.524 . S
C278 H290 0.956 . S
C278 H291 0.961 . S
C278 H292 0.961 . S
C279 C276 1.539 . S
C279 H293 0.958 . S
C279 H294 0.961 . S
C279 H295 0.960 . S
H280 C264 0.931 . S
H281 C269 0.929 . S
H282 C270 0.960 . S
H283 C270 0.962 . S
H284 C270 0.960 . S
H285 C271 0.961 . S
H286 C271 0.961 . S
H287 C271 0.961 . S
H288 C272 0.931 . S
H289 C277 0.930 . S
H290 C278 0.956 . S
H291 C278 0.961 . S
H292 C278 0.961 . S
H293 C279 0.958 . S
H294 C279 0.961 . S
H295 C279 0.960 . S
C296 C297 1.391 . S
C296 C298 1.394 . S
C296 H312 0.931 . S
C297 C296 1.391 . S
C297 C301 1.376 . S
C298 C296 1.394 . S
C298 C299 1.369 . S
C298 C302 1.531 . S
C299 C298 1.369 . S
C299 C300 1.410 . S
C299 C307 1.503 . S
C300 C299 1.410 . S
C300 C301 1.392 . S
C300 C303 1.511 . S
C301 C297 1.376 . S
C301 C300 1.392 . S
C301 H313 0.929 1_455 S
C302 C298 1.531 . S
C302 H314 0.960 . S
C302 H315 0.962 . S
C302 H316 0.960 . S
C303 C300 1.511 . S
C303 H317 0.961 . S
C303 H318 0.961 . S
C303 H319 0.961 1_455 S
C304 C305 1.370 . S
C304 C306 1.363 . S
C304 H320 0.931 . S
C305 C304 1.370 . S
C305 C309 1.408 . S
C306 C304 1.363 . S
C306 C307 1.370 . S
C306 C310 1.524 . S
C307 C299 1.503 . S
C307 C306 1.370 . S
C307 C308 1.403 . S
C308 C307 1.403 . S
C308 C309 1.404 . S
C308 C311 1.539 . S
C309 C305 1.408 . S
C309 C308 1.404 . S
C309 H321 0.930 . S
C310 C306 1.524 . S
C310 H322 0.956 . S
C310 H323 0.961 . S
C310 H324 0.961 . S
C311 C308 1.539 . S
C311 H325 0.958 . S
C311 H326 0.961 . S
C311 H327 0.960 . S
H312 C296 0.931 . S
H313 C301 0.929 1_655 S
H314 C302 0.960 . S
H315 C302 0.962 . S
H316 C302 0.960 . S
H317 C303 0.961 . S
H318 C303 0.961 . S
H319 C303 0.961 1_655 S
H320 C304 0.931 . S
H321 C309 0.930 . S
H322 C310 0.956 . S
H323 C310 0.961 . S
H324 C310 0.961 . S
H325 C311 0.958 . S
H326 C311 0.961 . S
H327 C311 0.960 . S
C328 C329 1.391 . S
C328 C330 1.394 . S
C328 H344 0.931 . S
C329 C328 1.391 . S
C329 C333 1.376 . S
C330 C328 1.394 . S
C330 C331 1.369 . S
C330 C334 1.531 . S
C331 C330 1.369 . S
C331 C332 1.410 . S
C331 C339 1.503 . S
C332 C331 1.410 . S
C332 C333 1.392 . S
C332 C335 1.511 . S
C333 C329 1.376 . S
C333 C332 1.392 . S
C333 H345 0.929 . S
C334 C330 1.531 . S
C334 H346 0.960 . S
C334 H347 0.962 . S
C334 H348 0.960 . S
C335 C332 1.511 . S
C335 H349 0.961 . S
C335 H350 0.961 . S
C335 H351 0.961 . S
C336 C337 1.370 . S
C336 C338 1.363 . S
C336 H352 0.931 . S
C337 C336 1.370 . S
C337 C341 1.408 . S
C338 C336 1.363 . S
C338 C339 1.370 . S
C338 C342 1.524 . S
C339 C331 1.503 . S
C339 C338 1.370 . S
C339 C340 1.403 . S
C340 C339 1.403 . S
C340 C341 1.404 . S
C340 C343 1.539 . S
C341 C337 1.408 . S
C341 C340 1.404 . S
C341 H353 0.930 . S
C342 C338 1.524 . S
C342 H354 0.956 . S
C342 H355 0.961 . S
C342 H356 0.961 . S
C343 C340 1.539 . S
C343 H357 0.958 . S
C343 H358 0.961 . S
C343 H359 0.960 . S
H344 C328 0.931 . S
H345 C333 0.929 . S
H346 C334 0.960 . S
H347 C334 0.962 . S
H348 C334 0.960 . S
H349 C335 0.961 . S
H350 C335 0.961 . S
H351 C335 0.961 . S
H352 C336 0.931 . S
H353 C341 0.930 . S
H354 C342 0.956 . S
H355 C342 0.961 . S
H356 C342 0.961 . S
H357 C343 0.958 . S
H358 C343 0.961 . S
H359 C343 0.960 . S
C360 C361 1.391 . S
C360 C362 1.394 . S
C360 H376 0.931 . S
C361 C360 1.391 . S
C361 C365 1.376 . S
C362 C360 1.394 . S
C362 C363 1.369 1_556 S
C362 C366 1.531 . S
C363 C362 1.369 1_554 S
C363 C364 1.410 . S
C363 C371 1.503 . S
C364 C363 1.410 . S
C364 C365 1.392 1_554 S
C364 C367 1.511 . S
C365 C361 1.376 . S
C365 C364 1.392 1_556 S
C365 H377 0.929 . S
C366 C362 1.531 . S
C366 H378 0.960 1_556 S
C366 H379 0.962 . S
C366 H380 0.960 . S
C367 C364 1.511 . S
C367 H381 0.961 . S
C367 H382 0.961 . S
C367 H383 0.961 . S
C368 C369 1.370 . S
C368 C370 1.363 . S
C368 H384 0.931 . S
C369 C368 1.370 . S
C369 C373 1.408 . S
C370 C368 1.363 . S
C370 C371 1.370 . S
C370 C374 1.524 . S
C371 C363 1.503 . S
C371 C370 1.370 . S
C371 C372 1.403 . S
C372 C371 1.403 . S
C372 C373 1.404 . S
C372 C375 1.539 . S
C373 C369 1.408 . S
C373 C372 1.404 . S
C373 H385 0.930 . S
C374 C370 1.524 . S
C374 H386 0.956 . S
C374 H387 0.961 . S
C374 H388 0.961 . S
C375 C372 1.539 . S
C375 H389 0.958 . S
C375 H390 0.961 . S
C375 H391 0.960 . S
H376 C360 0.931 . S
H377 C365 0.929 . S
H378 C366 0.960 1_554 S
H379 C366 0.962 . S
H380 C366 0.960 . S
H381 C367 0.961 . S
H382 C367 0.961 . S
H383 C367 0.961 . S
H384 C368 0.931 . S
H385 C373 0.930 . S
H386 C374 0.956 . S
H387 C374 0.961 . S
H388 C374 0.961 . S
H389 C375 0.958 . S
H390 C375 0.961 . S
H391 C375 0.960 . S
C392 C393 1.391 . S
C392 C394 1.394 . S
C392 H408 0.931 . S
C393 C392 1.391 . S
C393 C397 1.376 . S
C394 C392 1.394 . S
C394 C395 1.369 . S
C394 C398 1.531 . S
C395 C394 1.369 . S
C395 C396 1.410 . S
C395 C403 1.503 . S
C396 C395 1.410 . S
C396 C397 1.392 . S
C396 C399 1.511 . S
C397 C393 1.376 . S
C397 C396 1.392 . S
C397 H409 0.929 . S
C398 C394 1.531 . S
C398 H410 0.960 . S
C398 H411 0.962 . S
C398 H412 0.960 . S
C399 C396 1.511 . S
C399 H413 0.961 . S
C399 H414 0.961 . S
C399 H415 0.961 . S
C400 C401 1.370 . S
C400 C402 1.363 . S
C400 H416 0.931 1_545 S
C401 C400 1.370 . S
C401 C405 1.408 . S
C402 C400 1.363 . S
C402 C403 1.370 . S
C402 C406 1.524 . S
C403 C395 1.503 . S
C403 C402 1.370 . S
C403 C404 1.403 . S
C404 C403 1.403 . S
C404 C405 1.404 . S
C404 C407 1.539 . S
C405 C401 1.408 . S
C405 C404 1.404 . S
C405 H417 0.930 . S
C406 C402 1.524 . S
C406 H418 0.956 . S
C406 H419 0.961 . S
C406 H420 0.961 1_545 S
C407 C404 1.539 . S
C407 H421 0.958 . S
C407 H422 0.961 . S
C407 H423 0.960 . S
H408 C392 0.931 . S
H409 C397 0.929 . S
H410 C398 0.960 . S
H411 C398 0.962 . S
H412 C398 0.960 . S
H413 C399 0.961 . S
H414 C399 0.961 . S
H415 C399 0.961 . S
H416 C400 0.931 1_565 S
H417 C405 0.930 . S
H418 C406 0.956 . S
H419 C406 0.961 . S
H420 C406 0.961 1_565 S
H421 C407 0.958 . S
H422 C407 0.961 . S
H423 C407 0.960 . S
C424 C425 1.391 . S
C424 C426 1.394 . S
C424 H440 0.931 . S
C425 C424 1.391 . S
C425 C429 1.376 . S
C426 C424 1.394 . S
C426 C427 1.369 . S
C426 C430 1.531 . S
C427 C426 1.369 . S
C427 C428 1.410 . S
C427 C435 1.503 . S
C428 C427 1.410 . S
C428 C429 1.392 . S
C428 C431 1.511 . S
C429 C425 1.376 . S
C429 C428 1.392 . S
C429 H441 0.929 . S
C430 C426 1.531 . S
C430 H442 0.960 . S
C430 H443 0.962 . S
C430 H444 0.960 . S
C431 C428 1.511 . S
C431 H445 0.961 . S
C431 H446 0.961 . S
C431 H447 0.961 . S
C432 C433 1.370 . S
C432 C434 1.363 . S
C432 H448 0.931 . S
C433 C432 1.370 . S
C433 C437 1.408 . S
C434 C432 1.363 . S
C434 C435 1.370 . S
C434 C438 1.524 . S
C435 C427 1.503 . S
C435 C434 1.370 . S
C435 C436 1.403 . S
C436 C435 1.403 . S
C436 C437 1.404 . S
C436 C439 1.539 . S
C437 C433 1.408 . S
C437 C436 1.404 . S
C437 H449 0.930 . S
C438 C434 1.524 . S
C438 H450 0.956 . S
C438 H451 0.961 . S
C438 H452 0.961 . S
C439 C436 1.539 . S
C439 H453 0.958 . S
C439 H454 0.961 . S
C439 H455 0.960 . S
H440 C424 0.931 . S
H441 C429 0.929 . S
H442 C430 0.960 . S
H443 C430 0.962 . S
H444 C430 0.960 . S
H445 C431 0.961 . S
H446 C431 0.961 . S
H447 C431 0.961 . S
H448 C432 0.931 . S
H449 C437 0.930 . S
H450 C438 0.956 . S
H451 C438 0.961 . S
H452 C438 0.961 . S
H453 C439 0.958 . S
H454 C439 0.961 . S
H455 C439 0.960 . S
C456 C457 1.391 . S
C456 C458 1.394 1_554 S
C456 H472 0.931 . S
C457 C456 1.391 . S
C457 C461 1.376 . S
C458 C456 1.394 1_556 S
C458 C459 1.369 . S
C458 C462 1.531 . S
C459 C458 1.369 . S
C459 C460 1.410 1_556 S
C459 C467 1.503 . S
C460 C459 1.410 1_554 S
C460 C461 1.392 . S
C460 C463 1.511 . S
C461 C457 1.376 . S
C461 C460 1.392 . S
C461 H473 0.929 . S
C462 C458 1.531 . S
C462 H474 0.960 . S
C462 H475 0.962 . S
C462 H476 0.960 . S
C463 C460 1.511 . S
C463 H477 0.961 . S
C463 H478 0.961 1_554 S
C463 H479 0.961 . S
C464 C465 1.370 . S
C464 C466 1.363 . S
C464 H480 0.931 1_565 S
C465 C464 1.370 . S
C465 C469 1.408 . S
C466 C464 1.363 . S
C466 C467 1.370 . S
C466 C470 1.524 . S
C467 C459 1.503 . S
C467 C466 1.370 . S
C467 C468 1.403 . S
C468 C467 1.403 . S
C468 C469 1.404 . S
C468 C471 1.539 . S
C469 C465 1.408 . S
C469 C468 1.404 . S
C469 H481 0.930 . S
C470 C466 1.524 . S
C470 H482 0.956 . S
C470 H483 0.961 . S
C470 H484 0.952 1_565 S
C471 C468 1.539 . S
C471 H485 0.958 . S
C471 H486 0.961 . S
C471 H487 0.960 . S
H472 C456 0.931 . S
H473 C461 0.929 . S
H474 C462 0.960 . S
H475 C462 0.962 . S
H476 C462 0.960 . S
H477 C463 0.961 . S
H478 C463 0.961 1_556 S
H479 C463 0.961 . S
H480 C464 0.931 1_545 S
H481 C469 0.930 . S
H482 C470 0.956 . S
H483 C470 0.961 . S
H484 C470 0.952 1_545 S
H485 C471 0.958 . S
H486 C471 0.961 . S
H487 C471 0.960 . S
C488 C489 1.391 . S
C488 C490 1.394 . S
C488 H504 0.931 . S
C489 C488 1.391 . S
C489 C493 1.376 . S
C490 C488 1.394 . S
C490 C491 1.369 . S
C490 C494 1.531 . S
C491 C490 1.369 . S
C491 C492 1.410 . S
C491 C499 1.503 . S
C492 C491 1.410 . S
C492 C493 1.392 . S
C492 C495 1.511 . S
C493 C489 1.376 . S
C493 C492 1.392 . S
C493 H505 0.929 . S
C494 C490 1.531 . S
C494 H506 0.960 . S
C494 H507 0.962 . S
C494 H508 0.960 . S
C495 C492 1.511 . S
C495 H509 0.961 . S
C495 H510 0.961 . S
C495 H511 0.961 . S
C496 C497 1.370 . S
C496 C498 1.363 . S
C496 H512 0.931 . S
C497 C496 1.370 . S
C497 C501 1.408 . S
C498 C496 1.363 . S
C498 C499 1.370 . S
C498 C502 1.524 . S
C499 C491 1.503 . S
C499 C498 1.370 . S
C499 C500 1.403 . S
C500 C499 1.403 . S
C500 C501 1.404 . S
C500 C503 1.539 . S
C501 C497 1.408 . S
C501 C500 1.404 . S
C501 H513 0.930 . S
C502 C498 1.524 . S
C502 H514 0.956 . S
C502 H515 0.961 . S
C502 H516 0.961 . S
C503 C500 1.539 . S
C503 H517 0.958 . S
C503 H518 0.961 . S
C503 H519 0.960 . S
H504 C488 0.931 . S
H505 C493 0.929 . S
H506 C494 0.960 . S
H507 C494 0.962 . S
H508 C494 0.960 . S
H509 C495 0.961 . S
H510 C495 0.961 . S
H511 C495 0.961 . S
H512 C496 0.931 . S
H513 C501 0.930 . S
H514 C502 0.956 . S
H515 C502 0.961 . S
H516 C502 0.961 . S
H517 C503 0.958 . S
H518 C503 0.961 . S
H519 C503 0.960 . S
C520 C521 1.391 . S
C520 C522 1.394 . S
C520 H536 0.931 . S
C521 C520 1.391 . S
C521 C525 1.376 . S
C522 C520 1.394 . S
C522 C523 1.369 1_565 S
C522 C526 1.531 . S
C523 C522 1.369 1_545 S
C523 C524 1.410 1_545 S
C523 C531 1.503 . S
C524 C523 1.410 1_565 S
C524 C525 1.393 . S
C524 C527 1.511 1_565 S
C525 C521 1.376 . S
C525 C524 1.393 . S
C525 H537 0.929 . S
C526 C522 1.531 . S
C526 H538 0.972 . S
C526 H539 0.962 . S
C526 H540 0.960 . S
C527 C524 1.511 1_545 S
C527 H541 0.961 . S
C527 H542 0.961 . S
C527 H543 0.961 . S
C528 C529 1.370 . S
C528 C530 1.363 . S
C528 H544 0.931 . S
C529 C528 1.370 . S
C529 C533 1.408 . S
C530 C528 1.363 . S
C530 C531 1.370 . S
C530 C534 1.524 . S
C531 C523 1.503 . S
C531 C530 1.370 . S
C531 C532 1.403 . S
C532 C531 1.403 . S
C532 C533 1.404 . S
C532 C535 1.539 . S
C533 C529 1.408 . S
C533 C532 1.404 . S
C533 H545 0.930 . S
C534 C530 1.524 . S
C534 H546 0.956 . S
C534 H547 0.961 . S
C534 H548 0.961 . S
C535 C532 1.539 . S
C535 H549 0.958 . S
C535 H550 0.961 . S
C535 H551 0.960 . S
H536 C520 0.931 . S
H537 C525 0.929 . S
H538 C526 0.972 . S
H539 C526 0.962 . S
H540 C526 0.960 . S
H541 C527 0.961 . S
H542 C527 0.961 . S
H543 C527 0.961 . S
H544 C528 0.931 . S
H545 C533 0.930 . S
H546 C534 0.956 . S
H547 C534 0.961 . S
H548 C534 0.961 . S
H549 C535 0.958 . S
H550 C535 0.961 . S
H551 C535 0.960 . S
C552 C553 1.391 . S
C552 C554 1.394 . S
C552 H568 0.931 . S
C553 C552 1.391 . S
C553 C557 1.376 . S
C554 C552 1.394 . S
C554 C555 1.369 . S
C554 C558 1.531 . S
C555 C554 1.369 . S
C555 C556 1.410 . S
C555 C563 1.503 . S
C556 C555 1.410 . S
C556 C557 1.392 . S
C556 C559 1.511 . S
C557 C553 1.376 . S
C557 C556 1.392 . S
C557 H569 0.929 . S
C558 C554 1.531 . S
C558 H570 0.960 . S
C558 H571 0.962 . S
C558 H572 0.960 . S
C559 C556 1.511 . S
C559 H573 0.961 . S
C559 H574 0.961 . S
C559 H575 0.961 . S
C560 C561 1.370 . S
C560 C562 1.363 . S
C560 H576 0.931 . S
C561 C560 1.370 . S
C561 C565 1.408 . S
C562 C560 1.363 . S
C562 C563 1.370 . S
C562 C566 1.524 . S
C563 C555 1.503 . S
C563 C562 1.370 . S
C563 C564 1.403 . S
C564 C563 1.403 . S
C564 C565 1.404 . S
C564 C567 1.539 . S
C565 C561 1.408 . S
C565 C564 1.404 . S
C565 H577 0.930 . S
C566 C562 1.524 . S
C566 H578 0.956 . S
C566 H579 0.961 . S
C566 H580 0.961 . S
C567 C564 1.539 . S
C567 H581 0.958 . S
C567 H582 0.961 . S
C567 H583 0.960 . S
H568 C552 0.931 . S
H569 C557 0.929 . S
H570 C558 0.960 . S
H571 C558 0.962 . S
H572 C558 0.960 . S
H573 C559 0.961 . S
H574 C559 0.961 . S
H575 C559 0.961 . S
H576 C560 0.931 . S
H577 C565 0.930 . S
H578 C566 0.956 . S
H579 C566 0.961 . S
H580 C566 0.961 . S
H581 C567 0.958 . S
H582 C567 0.961 . S
H583 C567 0.960 . S
C584 C585 1.391 . S
C584 C586 1.394 . S
C584 H600 0.931 . S
C585 C584 1.391 . S
C585 C589 1.376 . S
C586 C584 1.394 . S
C586 C587 1.369 1_545 S
C586 C590 1.531 . S
C587 C586 1.369 1_565 S
C587 C588 1.410 . S
C587 C595 1.503 . S
C588 C587 1.410 . S
C588 C589 1.392 1_565 S
C588 C591 1.511 . S
C589 C585 1.376 . S
C589 C588 1.392 1_545 S
C589 H601 0.929 . S
C590 C586 1.531 . S
C590 H602 0.960 . S
C590 H603 0.962 . S
C590 H604 0.960 . S
C591 C588 1.511 . S
C591 H605 0.961 . S
C591 H606 0.961 . S
C591 H607 0.961 . S
C592 C593 1.370 . S
C592 C594 1.363 . S
C592 H608 0.931 . S
C593 C592 1.370 . S
C593 C597 1.408 . S
C594 C592 1.363 . S
C594 C595 1.370 . S
C594 C598 1.524 . S
C595 C587 1.503 . S
C595 C594 1.370 . S
C595 C596 1.403 . S
C596 C595 1.403 . S
C596 C597 1.404 . S
C596 C599 1.539 . S
C597 C593 1.408 . S
C597 C596 1.404 . S
C597 H609 0.930 . S
C598 C594 1.524 . S
C598 H610 0.956 . S
C598 H611 0.961 . S
C598 H612 0.961 . S
C599 C596 1.539 . S
C599 H613 0.958 . S
C599 H614 0.961 . S
C599 H615 0.960 . S
H600 C584 0.931 . S
H601 C589 0.929 . S
H602 C590 0.960 . S
H603 C590 0.962 . S
H604 C590 0.960 . S
H605 C591 0.961 . S
H606 C591 0.961 . S
H607 C591 0.961 . S
H608 C592 0.931 . S
H609 C597 0.930 . S
H610 C598 0.956 . S
H611 C598 0.961 . S
H612 C598 0.961 . S
H613 C599 0.958 . S
H614 C599 0.961 . S
H615 C599 0.960 . S
C616 C617 1.391 . S
C616 C618 1.394 . S
C616 H632 0.931 . S
C617 C616 1.391 . S
C617 C621 1.376 . S
C618 C616 1.394 . S
C618 C619 1.369 . S
C618 C622 1.531 . S
C619 C618 1.369 . S
C619 C620 1.410 . S
C619 C627 1.503 . S
C620 C619 1.410 . S
C620 C621 1.392 . S
C620 C623 1.511 . S
C621 C617 1.376 . S
C621 C620 1.392 . S
C621 H633 0.929 . S
C622 C618 1.531 . S
C622 H634 0.960 . S
C622 H635 0.962 . S
C622 H636 0.960 . S
C623 C620 1.511 . S
C623 H637 0.961 . S
C623 H638 0.961 . S
C623 H639 0.961 . S
C624 C625 1.370 . S
C624 C626 1.363 . S
C624 H640 0.931 . S
C625 C624 1.370 . S
C625 C629 1.408 . S
C626 C624 1.363 . S
C626 C627 1.370 . S
C626 C630 1.524 . S
C627 C619 1.503 . S
C627 C626 1.370 . S
C627 C628 1.403 . S
C628 C627 1.403 . S
C628 C629 1.404 . S
C628 C631 1.539 . S
C629 C625 1.408 . S
C629 C628 1.404 . S
C629 H641 0.930 . S
C630 C626 1.524 . S
C630 H642 0.956 . S
C630 H643 0.961 . S
C630 H644 0.961 . S
C631 C628 1.539 . S
C631 H645 0.958 . S
C631 H646 0.961 . S
C631 H647 0.960 . S
H632 C616 0.931 . S
H633 C621 0.929 . S
H634 C622 0.960 . S
H635 C622 0.962 . S
H636 C622 0.960 . S
H637 C623 0.961 . S
H638 C623 0.961 . S
H639 C623 0.961 . S
H640 C624 0.931 . S
H641 C629 0.930 . S
H642 C630 0.956 . S
H643 C630 0.961 . S
H644 C630 0.961 . S
H645 C631 0.958 . S
H646 C631 0.961 . S
H647 C631 0.960 . S
C648 C649 1.391 . S
C648 C650 1.394 . S
C648 H664 0.931 . S
C649 C648 1.391 . S
C649 C653 1.376 . S
C650 C648 1.394 . S
C650 C651 1.369 . S
C650 C654 1.531 . S
C651 C650 1.369 . S
C651 C652 1.410 . S
C651 C659 1.503 . S
C652 C651 1.410 . S
C652 C653 1.392 . S
C652 C655 1.511 . S
C653 C649 1.376 . S
C653 C652 1.392 . S
C653 H665 0.929 . S
C654 C650 1.531 . S
C654 H666 0.960 . S
C654 H667 0.962 . S
C654 H668 0.960 . S
C655 C652 1.511 . S
C655 H669 0.961 . S
C655 H670 0.961 . S
C655 H671 0.961 . S
C656 C657 1.370 . S
C656 C658 1.363 . S
C656 H672 0.931 . S
C657 C656 1.370 . S
C657 C661 1.408 . S
C658 C656 1.363 . S
C658 C659 1.370 . S
C658 C662 1.524 . S
C659 C651 1.503 . S
C659 C658 1.370 . S
C659 C660 1.403 . S
C660 C659 1.403 . S
C660 C661 1.404 . S
C660 C663 1.539 . S
C661 C657 1.408 . S
C661 C660 1.404 . S
C661 H673 0.930 . S
C662 C658 1.524 . S
C662 H674 0.956 . S
C662 H675 0.961 . S
C662 H676 0.961 . S
C663 C660 1.539 . S
C663 H677 0.958 . S
C663 H678 0.961 . S
C663 H679 0.960 . S
H664 C648 0.931 . S
H665 C653 0.929 . S
H666 C654 0.960 . S
H667 C654 0.962 . S
H668 C654 0.960 . S
H669 C655 0.961 . S
H670 C655 0.961 . S
H671 C655 0.961 . S
H672 C656 0.931 . S
H673 C661 0.930 . S
H674 C662 0.956 . S
H675 C662 0.961 . S
H676 C662 0.961 . S
H677 C663 0.958 . S
H678 C663 0.961 . S
H679 C663 0.960 . S
C680 C681 1.391 . S
C680 C682 1.394 . S
C680 H696 0.931 . S
C681 C680 1.391 . S
C681 C685 1.376 . S
C682 C680 1.394 . S
C682 C683 1.369 . S
C682 C686 1.531 . S
C683 C682 1.369 . S
C683 C684 1.410 . S
C683 C691 1.503 . S
C684 C683 1.410 . S
C684 C685 1.392 . S
C684 C687 1.511 . S
C685 C681 1.376 . S
C685 C684 1.392 . S
C685 H697 0.929 . S
C686 C682 1.531 . S
C686 H698 0.960 1_455 S
C686 H699 0.962 . S
C686 H700 0.960 . S
C687 C684 1.511 . S
C687 H701 0.961 . S
C687 H702 0.961 . S
C687 H703 0.961 . S
C688 C689 1.370 . S
C688 C690 1.363 . S
C688 H704 0.931 . S
C689 C688 1.370 . S
C689 C693 1.408 . S
C690 C688 1.363 . S
C690 C691 1.370 1_655 S
C690 C694 1.524 1_655 S
C691 C683 1.503 . S
C691 C690 1.370 1_455 S
C691 C692 1.403 1_455 S
C692 C691 1.403 1_655 S
C692 C693 1.404 . S
C692 C695 1.539 1_655 S
C693 C689 1.408 . S
C693 C692 1.404 . S
C693 H705 0.930 . S
C694 C690 1.524 1_455 S
C694 H706 0.956 . S
C694 H707 0.961 . S
C694 H708 0.961 1_455 S
C695 C692 1.539 1_455 S
C695 H709 0.954 1_455 S
C695 H710 0.961 1_455 S
C695 H711 0.960 . S
H696 C680 0.931 . S
H697 C685 0.929 . S
H698 C686 0.960 1_655 S
H699 C686 0.962 . S
H700 C686 0.960 . S
H701 C687 0.961 . S
H702 C687 0.961 . S
H703 C687 0.961 . S
H704 C688 0.931 . S
H705 C693 0.930 . S
H706 C694 0.956 . S
H707 C694 0.961 . S
H708 C694 0.961 1_655 S
H709 C695 0.954 1_655 S
H710 C695 0.961 1_655 S
H711 C695 0.960 . S
C712 C713 1.391 . S
C712 C714 1.394 . S
C712 H728 0.931 . S
C713 C712 1.391 . S
C713 C717 1.376 . S
C714 C712 1.394 . S
C714 C715 1.369 . S
C714 C718 1.531 . S
C715 C714 1.369 . S
C715 C716 1.410 . S
C715 C723 1.503 . S
C716 C715 1.410 . S
C716 C717 1.392 . S
C716 C719 1.511 . S
C717 C713 1.376 . S
C717 C716 1.392 . S
C717 H729 0.929 . S
C718 C714 1.531 . S
C718 H730 0.960 . S
C718 H731 0.962 . S
C718 H732 0.960 . S
C719 C716 1.511 . S
C719 H733 0.961 . S
C719 H734 0.961 . S
C719 H735 0.961 . S
C720 C721 1.370 . S
C720 C722 1.363 . S
C720 H736 0.931 . S
C721 C720 1.370 . S
C721 C725 1.408 . S
C722 C720 1.363 . S
C722 C723 1.370 . S
C722 C726 1.524 . S
C723 C715 1.503 . S
C723 C722 1.370 . S
C723 C724 1.403 . S
C724 C723 1.403 . S
C724 C725 1.404 . S
C724 C727 1.539 . S
C725 C721 1.408 . S
C725 C724 1.404 . S
C725 H737 0.930 . S
C726 C722 1.524 . S
C726 H738 0.956 . S
C726 H739 0.961 . S
C726 H740 0.961 . S
C727 C724 1.539 . S
C727 H741 0.958 . S
C727 H742 0.961 . S
C727 H743 0.960 . S
H728 C712 0.931 . S
H729 C717 0.929 . S
H730 C718 0.960 . S
H731 C718 0.962 . S
H732 C718 0.960 . S
H733 C719 0.961 . S
H734 C719 0.961 . S
H735 C719 0.961 . S
H736 C720 0.931 . S
H737 C725 0.930 . S
H738 C726 0.956 . S
H739 C726 0.961 . S
H740 C726 0.961 . S
H741 C727 0.958 . S
H742 C727 0.961 . S
H743 C727 0.960 . S
C744 C745 1.391 . S
C744 C746 1.394 . S
C744 H760 0.931 . S
C745 C744 1.391 . S
C745 C749 1.376 . S
C746 C744 1.394 . S
C746 C747 1.369 . S
C746 C750 1.531 . S
C747 C746 1.369 . S
C747 C748 1.410 . S
C747 C755 1.503 . S
C748 C747 1.410 . S
C748 C749 1.392 . S
C748 C751 1.511 . S
C749 C745 1.376 . S
C749 C748 1.392 . S
C749 H761 0.929 . S
C750 C746 1.531 . S
C750 H762 0.960 1_655 S
C750 H763 0.962 . S
C750 H764 0.960 . S
C751 C748 1.511 . S
C751 H765 0.961 . S
C751 H766 0.961 . S
C751 H767 0.961 . S
C752 C753 1.370 . S
C752 C754 1.363 . S
C752 H768 0.931 . S
C753 C752 1.370 . S
C753 C757 1.408 . S
C754 C752 1.363 . S
C754 C755 1.370 1_455 S
C754 C758 1.524 1_455 S
C755 C747 1.503 . S
C755 C754 1.370 1_655 S
C755 C756 1.403 1_655 S
C756 C755 1.403 1_455 S
C756 C757 1.404 . S
C756 C759 1.539 1_455 S
C757 C753 1.408 . S
C757 C756 1.404 . S
C757 H769 0.930 . S
C758 C754 1.524 1_655 S
C758 H770 0.956 . S
C758 H771 0.961 . S
C758 H772 0.961 1_655 S
C759 C756 1.539 1_655 S
C759 H773 0.958 . S
C759 H774 0.955 1_655 S
C759 H775 0.960 . S
H760 C744 0.931 . S
H761 C749 0.929 . S
H762 C750 0.960 1_455 S
H763 C750 0.962 . S
H764 C750 0.960 . S
H765 C751 0.961 . S
H766 C751 0.961 . S
H767 C751 0.961 . S
H768 C752 0.931 . S
H769 C757 0.930 . S
H770 C758 0.956 . S
H771 C758 0.961 . S
H772 C758 0.961 1_455 S
H773 C759 0.958 . S
H774 C759 0.955 1_455 S
H775 C759 0.960 . S
C776 C777 1.391 1_565 S
C776 C778 1.394 1_565 S
C776 H792 0.931 . S
C777 C776 1.391 1_545 S
C777 C781 1.376 . S
C778 C776 1.394 1_545 S
C778 C779 1.369 . S
C778 C782 1.531 1_545 S
C779 C778 1.369 . S
C779 C780 1.410 . S
C779 C787 1.503 . S
C780 C779 1.410 . S
C780 C781 1.392 . S
C780 C783 1.511 . S
C781 C777 1.376 . S
C781 C780 1.392 . S
C781 H793 0.929 . S
C782 C778 1.531 1_565 S
C782 H794 0.960 1_565 S
C782 H795 0.962 . S
C782 H796 0.960 . S
C783 C780 1.511 . S
C783 H797 0.961 . S
C783 H798 0.961 . S
C783 H799 0.961 . S
C784 C785 1.370 1_455 S
C784 C786 1.363 1_455 S
C784 H800 0.931 . S
C785 C784 1.370 1_655 S
C785 C789 1.408 . S
C786 C784 1.363 1_655 S
C786 C787 1.370 . S
C786 C790 1.524 . S
C787 C779 1.503 . S
C787 C786 1.370 . S
C787 C788 1.403 . S
C788 C787 1.403 . S
C788 C789 1.404 . S
C788 C791 1.539 . S
C789 C785 1.408 . S
C789 C788 1.404 . S
C789 H801 0.930 . S
C790 C786 1.524 . S
C790 H802 0.956 . S
C790 H803 0.961 . S
C790 H804 0.961 1_655 S
C791 C788 1.539 . S
C791 H805 0.958 . S
C791 H806 0.961 . S
C791 H807 0.960 . S
H792 C776 0.931 . S
H793 C781 0.929 . S
H794 C782 0.960 1_545 S
H795 C782 0.962 . S
H796 C782 0.960 . S
H797 C783 0.961 . S
H798 C783 0.961 . S
H799 C783 0.961 . S
H800 C784 0.931 . S
H801 C789 0.930 . S
H802 C790 0.956 . S
H803 C790 0.961 . S
H804 C790 0.961 1_455 S
H805 C791 0.958 . S
H806 C791 0.961 . S
H807 C791 0.960 . S
C808 C809 1.391 . S
C808 C810 1.394 . S
C808 H824 0.931 . S
C809 C808 1.391 . S
C809 C813 1.376 . S
C810 C808 1.394 . S
C810 C811 1.369 . S
C810 C814 1.531 . S
C811 C810 1.369 . S
C811 C812 1.410 . S
C811 C819 1.503 . S
C812 C811 1.410 . S
C812 C813 1.392 . S
C812 C815 1.511 . S
C813 C809 1.376 . S
C813 C812 1.392 . S
C813 H825 0.929 . S
C814 C810 1.531 . S
C814 H826 0.960 . S
C814 H827 0.962 . S
C814 H828 0.960 . S
C815 C812 1.511 . S
C815 H829 0.961 . S
C815 H830 0.961 . S
C815 H831 0.961 . S
C816 C817 1.370 . S
C816 C818 1.363 . S
C816 H832 0.931 . S
C817 C816 1.370 . S
C817 C821 1.408 . S
C818 C816 1.363 . S
C818 C819 1.370 . S
C818 C822 1.524 . S
C819 C811 1.503 . S
C819 C818 1.370 . S
C819 C820 1.403 . S
C820 C819 1.403 . S
C820 C821 1.404 . S
C820 C823 1.539 . S
C821 C817 1.408 . S
C821 C820 1.404 . S
C821 H833 0.930 . S
C822 C818 1.524 . S
C822 H834 0.956 . S
C822 H835 0.961 . S
C822 H836 0.961 . S
C823 C820 1.539 . S
C823 H837 0.958 . S
C823 H838 0.961 . S
C823 H839 0.960 . S
H824 C808 0.931 . S
H825 C813 0.929 . S
H826 C814 0.960 . S
H827 C814 0.962 . S
H828 C814 0.960 . S
H829 C815 0.961 . S
H830 C815 0.961 . S
H831 C815 0.961 . S
H832 C816 0.931 . S
H833 C821 0.930 . S
H834 C822 0.956 . S
H835 C822 0.961 . S
H836 C822 0.961 . S
H837 C823 0.958 . S
H838 C823 0.961 . S
H839 C823 0.960 . S
C840 C841 1.391 . S
C840 C842 1.394 . S
C840 H856 0.931 . S
C841 C840 1.391 . S
C841 C845 1.376 1_455 S
C842 C840 1.394 . S
C842 C843 1.369 . S
C842 C846 1.531 . S
C843 C842 1.369 . S
C843 C844 1.410 . S
C843 C851 1.503 . S
C844 C843 1.410 . S
C844 C845 1.392 1_455 S
C844 C847 1.511 . S
C845 C841 1.376 1_655 S
C845 C844 1.392 1_655 S
C845 H857 0.929 . S
C846 C842 1.531 . S
C846 H858 0.960 . S
C846 H859 0.962 . S
C846 H860 0.960 . S
C847 C844 1.511 . S
C847 H861 0.961 1_455 S
C847 H862 0.961 . S
C847 H863 0.961 1_455 S
C848 C849 1.370 . S
C848 C850 1.363 . S
C848 H864 0.931 . S
C849 C848 1.370 . S
C849 C853 1.408 1_565 S
C850 C848 1.363 . S
C850 C851 1.370 . S
C850 C854 1.524 . S
C851 C843 1.503 . S
C851 C850 1.370 . S
C851 C852 1.403 . S
C852 C851 1.403 . S
C852 C853 1.404 1_565 S
C852 C855 1.539 1_565 S
C853 C849 1.408 1_545 S
C853 C852 1.404 1_545 S
C853 H865 0.930 . S
C854 C850 1.524 . S
C854 H866 0.956 . S
C854 H867 0.961 . S
C854 H868 0.961 . S
C855 C852 1.539 1_545 S
C855 H869 0.958 . S
C855 H870 0.961 . S
C855 H871 0.960 1_545 S
H856 C840 0.931 . S
H857 C845 0.929 . S
H858 C846 0.960 . S
H859 C846 0.962 . S
H860 C846 0.960 . S
H861 C847 0.961 1_655 S
H862 C847 0.961 . S
H863 C847 0.961 1_655 S
H864 C848 0.931 . S
H865 C853 0.930 . S
H866 C854 0.956 . S
H867 C854 0.961 . S
H868 C854 0.961 . S
H869 C855 0.958 . S
H870 C855 0.961 . S
H871 C855 0.960 1_565 S
C872 C873 1.391 . S
C872 C874 1.394 . S
C872 H888 0.931 . S
C873 C872 1.391 . S
C873 C877 1.376 . S
C874 C872 1.394 . S
C874 C875 1.369 . S
C874 C878 1.531 . S
C875 C874 1.369 . S
C875 C876 1.410 . S
C875 C883 1.503 1_556 S
C876 C875 1.410 . S
C876 C877 1.392 . S
C876 C879 1.511 1_556 S
C877 C873 1.376 . S
C877 C876 1.392 . S
C877 H889 0.929 . S
C878 C874 1.531 . S
C878 H890 0.960 . S
C878 H891 0.962 . S
C878 H892 0.960 . S
C879 C876 1.511 1_554 S
C879 H893 0.961 . S
C879 H894 0.961 . S
C879 H895 0.964 . S
C880 C881 1.370 . S
C880 C882 1.363 . S
C880 H896 0.931 . S
C881 C880 1.370 . S
C881 C885 1.408 . S
C882 C880 1.363 . S
C882 C883 1.370 . S
C882 C886 1.524 . S
C883 C875 1.503 1_554 S
C883 C882 1.370 . S
C883 C884 1.403 . S
C884 C883 1.403 . S
C884 C885 1.404 . S
C884 C887 1.539 1_554 S
C885 C881 1.408 . S
C885 C884 1.404 . S
C885 H897 0.930 . S
C886 C882 1.524 . S
C886 H898 0.956 . S
C886 H899 0.961 . S
C886 H900 0.961 . S
C887 C884 1.539 1_556 S
C887 H901 0.958 . S
C887 H902 0.961 . S
C887 H903 0.960 . S
H888 C872 0.931 . S
H889 C877 0.929 . S
H890 C878 0.960 . S
H891 C878 0.962 . S
H892 C878 0.960 . S
H893 C879 0.961 . S
H894 C879 0.961 . S
H895 C879 0.964 . S
H896 C880 0.931 . S
H897 C885 0.930 . S
H898 C886 0.956 . S
H899 C886 0.961 . S
H900 C886 0.961 . S
H901 C887 0.958 . S
H902 C887 0.961 . S
H903 C887 0.960 . S
C265 C28 1.123 . S
C273 C50 1.135 . S
C297 C83 1.111 . S
C305 C61 1.146 . S
C329 C116 1.149 . S
C337 C94 1.137 . S
C361 C127 1.148 . S
C369 C17 1.132 . S
C393 C160 1.120 . S
C401 C248 1.141 . S
C425 C193 1.120 . S
C433 C149 1.140 . S
C457 C226 1.120 . S
C465 C182 1.140 . S
C489 C259 1.146 . S
C497 C215 1.133 . S
C521 N203 1.784 . S
C529 C8 1.779 . S
C553 N236 1.785 . S
C561 C41 1.779 . S
C585 N137 1.785 . S
C593 C74 1.780 . S
C617 N170 1.776 . S
C625 C107 1.773 . S
C649 C140 1.781 . S
C657 N71 1.788 . S
C681 C173 1.768 . S
C689 N104 1.784 . S
C713 C206 1.781 . S
C721 N5 1.788 . S
C745 C239 1.768 . S
C753 N38 1.784 . S
C777 N245 1.436 1_545 S
C785 N14 1.471 1_655 S
C809 N146 1.501 . S
C817 N47 1.478 . S
C841 N80 1.498 1_455 S
C849 N179 1.482 1_565 S
C873 N113 1.499 . S
C881 N212 1.472 . S
