# Generated by pormake.
# Topology wkq, (6)-cn, num edge types: 1
# Building blocks:
#     Node 0, Type 0, BuildingBlock: IZENUY_clean_sbu_0, # of connection points: 6
#     Node 1, Type 0, BuildingBlock: IZENUY_clean_sbu_0, # of connection points: 6
#     Node 2, Type 0, BuildingBlock: IZENUY_clean_sbu_0, # of connection points: 6
#     Node 3, Type 0, BuildingBlock: IZENUY_clean_sbu_0, # of connection points: 6
#     Node 4, Type 0, BuildingBlock: IZENUY_clean_sbu_0, # of connection points: 6
#     Node 5, Type 0, BuildingBlock: IZENUY_clean_sbu_0, # of connection points: 6
#     Node 6, Type 0, BuildingBlock: IZENUY_clean_sbu_0, # of connection points: 6
#     Node 7, Type 0, BuildingBlock: IZENUY_clean_sbu_0, # of connection points: 6
#     Node 8, Type 0, BuildingBlock: IZENUY_clean_sbu_0, # of connection points: 6
#     Node 9, Type 0, BuildingBlock: IZENUY_clean_sbu_0, # of connection points: 6
#     Node 10, Type 0, BuildingBlock: IZENUY_clean_sbu_0, # of connection points: 6
#     Node 11, Type 0, BuildingBlock: IZENUY_clean_sbu_0, # of connection points: 6
#     Edge 12, Type (0, 0), None
#     Edge 13, Type (0, 0), None
#     Edge 14, Type (0, 0), None
#     Edge 15, Type (0, 0), None
#     Edge 16, Type (0, 0), None
#     Edge 17, Type (0, 0), None
#     Edge 18, Type (0, 0), None
#     Edge 19, Type (0, 0), None
#     Edge 20, Type (0, 0), None
#     Edge 21, Type (0, 0), None
#     Edge 22, Type (0, 0), None
#     Edge 23, Type (0, 0), None
#     Edge 24, Type (0, 0), None
#     Edge 25, Type (0, 0), None
#     Edge 26, Type (0, 0), None
#     Edge 27, Type (0, 0), None
#     Edge 28, Type (0, 0), None
#     Edge 29, Type (0, 0), None
#     Edge 30, Type (0, 0), None
#     Edge 31, Type (0, 0), None
#     Edge 32, Type (0, 0), None
#     Edge 33, Type (0, 0), None
#     Edge 34, Type (0, 0), None
#     Edge 35, Type (0, 0), None
#     Edge 36, Type (0, 0), None
#     Edge 37, Type (0, 0), None
#     Edge 38, Type (0, 0), None
#     Edge 39, Type (0, 0), None
#     Edge 40, Type (0, 0), None
#     Edge 41, Type (0, 0), None
#     Edge 42, Type (0, 0), None
#     Edge 43, Type (0, 0), None
#     Edge 44, Type (0, 0), None
#     Edge 45, Type (0, 0), None
#     Edge 46, Type (0, 0), None
#     Edge 47, Type (0, 0), None
# Relax obj value: 0.405
# Max RMSD: 0.287
# Mean RMSD: 0.287
data_MOF--net-wkq--node1-IZENUY_clean_sbu_0--edge1-none
_symmetry_space_group_name_H-M    P1
_symmetry_Int_Tables_number       1
_symmetry_cell_setting            triclinic
loop_
_symmetry_equiv_pos_as_xyz
'x, y, z'
_cell_length_a     16.339
_cell_length_b     16.339407
_cell_length_c     18.348045
_cell_angle_alpha  90.000436
_cell_angle_beta   89.999432
_cell_angle_gamma 119.9978
loop_
_atom_site_label
_atom_site_type_symbol
_atom_site_fract_x
_atom_site_fract_y
_atom_site_fract_z
_atom_type_partial_charge
Fe0 Fe 0.35219 0.40451 0.05682 0.0
Fe1 Fe 0.44416 0.61766 0.03794 0.0
O2 O 0.35993 0.49988 0.00936 0.0
Fe3 Fe 0.28704 0.48535 0.93356 0.0
O4 O 0.17552 0.38391 -0.02777 0.0
O5 O 0.22652 0.34617 0.07068 0.0
O6 O 0.35866 0.45974 0.14514 0.0
C7 C 0.35506 0.53234 0.16445 0.0
C8 C 0.34188 0.34704 0.90923 0.0
O9 O 0.37667 0.60082 0.12142 0.0
C10 C 0.48354 0.6323 0.89531 0.0
O11 O 0.47847 0.45869 0.04474 0.0
O12 O 0.52132 0.59325 0.09233 0.0
O13 O 0.32364 0.4086 0.88294 0.0
O14 O 0.34016 0.33432 -0.02283 0.0
C15 C 0.30049 0.64073 0.00252 0.0
O16 O 0.51566 0.6359 -0.04142 0.0
O17 O 0.39265 0.58595 0.8826 0.0
C18 C 0.5336 0.52467 0.08565 0.0
O19 O 0.38211 0.66295 -0.01358 0.0
O20 O 0.24174 0.55769 -0.01628 0.0
C21 C 0.15941 0.34143 0.03352 0.0
Fe22 Fe 0.87509 0.25032 0.10023 0.0
Fe23 Fe 1.02107 0.31545 0.22349 0.0
O24 O 0.93345 0.3232 0.17603 0.0
Fe25 Fe 0.8999 0.40744 0.2046 0.0
O26 O 0.79255 0.34538 0.15308 0.0
O27 O 0.75746 0.20502 0.15038 0.0
O28 O 0.86501 0.13879 0.13889 0.0
C29 C 0.89137 0.12268 0.20019 0.0
C30 C 0.92463 0.44681 0.06198 0.0
O31 O 0.95374 0.18979 0.23735 0.0
C32 C 1.08232 0.49687 0.25232 0.0
O33 O 0.98844 0.28692 0.04961 0.0
O34 O 1.07923 0.30342 0.14383 0.0
O35 O 0.95315 0.47893 0.12524 0.0
O36 O 0.88009 0.35593 0.04926 0.0
C37 C 0.89611 0.31833 0.33112 0.0
O38 O 1.09318 0.44173 0.21141 0.0
O39 O 1.00146 0.48459 0.25899 0.0
C40 C 1.06825 0.30516 0.0759 0.0
O41 O 0.97231 0.32193 0.31181 0.0
O42 O 0.84924 0.33994 0.28809 0.0
C43 C 0.73316 0.26376 0.16918 0.0
Fe44 Fe 0.779 0.98435 0.39016 0.0
Fe45 Fe 0.56585 0.86319 0.37127 0.0
O46 O 0.68363 0.89673 0.34269 0.0
Fe47 Fe 0.69816 0.83837 0.26689 0.0
O48 O 0.7996 0.82828 0.30555 0.0
O49 O 0.83734 0.91702 0.40401 0.0
O50 O 0.72377 0.93559 0.47847 0.0
C51 C 0.65116 0.85939 0.49778 0.0
C52 C 0.83647 1.03152 0.24256 0.0
O53 O 0.58269 0.81253 0.45475 0.0
C54 C 0.5512 0.88792 0.22865 0.0
O55 O 0.72483 1.05646 0.37807 0.0
O56 O 0.59026 0.96475 0.42566 0.0
O57 O 0.7749 0.95171 0.21627 0.0
O58 O 0.8492 1.04251 0.3105 0.0
C59 C 0.54278 0.69645 0.33585 0.0
O60 O 0.54761 0.91645 0.29191 0.0
O61 O 0.59755 0.84338 0.21593 0.0
C62 C 0.65884 1.04561 0.41899 0.0
O63 O 0.52055 0.75585 0.31975 0.0
O64 O 0.62582 0.72074 0.31705 0.0
C65 C 0.84208 0.85465 0.36685 0.0
Fe66 Fe 0.86803 0.74227 0.55682 0.0
Fe67 Fe 0.77606 0.52913 0.53794 0.0
O68 O 0.86029 0.6469 0.50936 0.0
Fe69 Fe 0.93318 0.66143 0.43356 0.0
O70 O 1.0447 0.76287 0.47223 0.0
O71 O 0.9937 0.80061 0.57068 0.0
O72 O 0.86156 0.68704 0.64514 0.0
C73 C 0.86516 0.61444 0.66445 0.0
C74 C 0.87834 0.79974 0.40923 0.0
O75 O 0.84355 0.54596 0.62142 0.0
C76 C 0.73668 0.51448 0.39531 0.0
O77 O 0.74175 0.6881 0.54474 0.0
O78 O 0.69889 0.55353 0.59233 0.0
O79 O 0.89658 0.73817 0.38294 0.0
O80 O 0.88006 0.81246 0.47717 0.0
C81 C 0.91973 0.50605 0.50252 0.0
O82 O 0.70456 0.51088 0.45858 0.0
O83 O 0.82757 0.56082 0.3826 0.0
C84 C 0.68662 0.62211 0.58565 0.0
O85 O 0.83811 0.48383 0.48641 0.0
O86 O 0.97848 0.58909 0.48372 0.0
C87 C 1.06081 0.80535 0.53352 0.0
Fe88 Fe 0.19915 0.83133 0.72349 0.0
Fe89 Fe 0.32032 0.73935 0.7046 0.0
O90 O 0.28677 0.82358 0.67603 0.0
Fe91 Fe 0.34513 0.89647 0.60023 0.0
O92 O 0.35521 1.00799 0.63889 0.0
O93 O 0.26647 0.95699 0.73735 0.0
O94 O 0.24791 0.82485 0.81181 0.0
C95 C 0.3241 0.82845 0.83112 0.0
C96 C 0.15197 0.84162 0.5759 0.0
O97 O 0.37098 0.80684 0.78809 0.0
C98 C 0.29559 0.69997 0.56198 0.0
O99 O 0.12704 0.70505 0.71141 0.0
O100 O 0.21876 0.66219 0.75899 0.0
O101 O 0.23178 0.85986 0.54961 0.0
O102 O 0.14098 0.84336 0.64383 0.0
C103 C 0.48706 0.88302 0.66918 0.0
O104 O 0.26706 0.66785 0.62524 0.0
O105 O 0.34013 0.79086 0.54926 0.0
C106 C 0.1379 0.64991 0.75232 0.0
O107 O 0.42767 0.8014 0.65308 0.0
O108 O 0.46276 0.94176 0.65038 0.0
C109 C 0.32884 1.0241 0.70019 0.0
Fe110 Fe 0.44121 0.16243 0.89016 0.0
Fe111 Fe 0.65437 0.28359 0.87127 0.0
O112 O 0.53658 0.25005 0.8427 0.0
Fe113 Fe 0.52205 0.30841 0.76689 0.0
O114 O 0.42062 0.31851 0.80556 0.0
O115 O 0.38287 0.22975 0.90401 0.0
O116 O 0.49645 0.2112 -0.02153 0.0
C117 C 0.56905 0.28739 -0.00222 0.0
C118 C 0.38374 0.11526 0.74256 0.0
O119 O 0.63753 0.33425 -0.04525 0.0
C120 C 0.66901 0.25886 0.72865 0.0
O121 O 0.49539 0.09033 0.87807 0.0
O122 O 0.62996 0.18203 0.92566 0.0
O123 O 0.44531 0.19507 0.71628 0.0
O124 O 0.37102 0.10427 0.8105 0.0
C125 C 0.67744 0.45034 0.83585 0.0
O126 O 0.67261 0.23033 0.79191 0.0
O127 O 0.62266 0.30341 0.71593 0.0
C128 C 0.56138 0.10118 0.91899 0.0
O129 O 0.69966 0.39094 0.81975 0.0
O130 O 0.5944 0.42605 0.81705 0.0
C131 C 0.37813 0.29212 0.86685 0.0
Fe132 Fe 0.69825 0.89628 0.8028 0.0
Fe133 Fe 0.77917 0.83122 0.67954 0.0
O134 O 0.68373 0.82334 0.727 0.0
Fe135 Fe 0.56598 0.73896 0.69846 0.0
O136 O 0.52065 0.80116 0.74971 0.0
O137 O 0.62603 0.94166 0.75261 0.0
O138 O 0.79982 1.00777 0.76418 0.0
C139 C 0.842 1.02388 0.70274 0.0
C140 C 0.55124 0.69992 0.84114 0.0
O141 O 0.83707 0.95678 0.66547 0.0
C142 C 0.65922 0.64959 0.65114 0.0
O143 O 0.77482 0.85952 0.85344 0.0
O144 O 0.84957 0.84378 0.7592 0.0
O145 O 0.54776 0.66768 0.77795 0.0
O146 O 0.59751 0.79082 0.85375 0.0
C147 C 0.65115 0.82771 0.57182 0.0
O148 O 0.72537 0.70499 0.69183 0.0
O149 O 0.59054 0.66171 0.64435 0.0
C150 C 0.83661 0.84162 0.82714 0.0
O151 O 0.72381 0.82428 0.5912 0.0
O152 O 0.58269 0.80617 0.61484 0.0
C153 C 0.54313 0.88286 0.73355 0.0
Fe154 Fe 1.02134 0.74245 0.84621 0.0
Fe155 Fe 0.90042 0.52926 0.86513 0.0
O156 O 0.93378 0.64701 0.89367 0.0
Fe157 Fe 0.87535 0.66153 -0.03054 0.0
O158 O 0.86543 0.76309 0.93084 0.0
O159 O 0.95369 0.80036 0.83214 0.0
O160 O 0.97292 0.68709 0.75787 0.0
C161 C 0.89683 0.61443 0.73849 0.0
C162 C 1.06838 0.7999 -0.0062 0.0
O163 O 0.84992 0.54597 0.78151 0.0
C164 C 0.92472 0.51452 0.00781 0.0
O165 O 1.09377 0.68865 0.8585 0.0
O166 O 1.00223 0.55383 0.81101 0.0
O167 O 0.98869 0.73811 0.02011 0.0
O168 O 1.07918 0.81285 0.92587 0.0
C169 C 0.73366 0.5064 0.90022 0.0
O170 O 0.95348 0.51105 0.94462 0.0
O171 O 0.88009 0.56079 0.02042 0.0
C172 C 1.08302 0.6225 0.8178 0.0
O173 O 0.79289 0.48393 0.91637 0.0
O174 O 0.75776 0.58931 0.91927 0.0
C175 C 0.89151 0.80529 0.86942 0.0
Fe176 Fe 0.44454 0.8637 0.0318 0.0
Fe177 Fe 0.28721 0.83865 0.13613 0.0
O178 O 0.36015 0.89707 0.06034 0.0
Fe179 Fe 0.35227 0.98463 0.01288 0.0
O180 O 0.35921 0.93621 0.92453 0.0
O181 O 0.37733 0.81321 0.94818 0.0
O182 O 0.38234 0.75618 0.08304 0.0
C183 C 0.30065 0.69695 0.06689 0.0
C184 C 0.5339 1.0463 -0.01552 0.0
O185 O 0.24184 0.72106 0.08594 0.0
C186 C 0.34187 1.03167 0.16047 0.0
O187 O 0.51582 0.91676 0.11128 0.0
O188 O 0.39268 0.84338 0.18709 0.0
O189 O 0.4785 1.05706 0.02516 0.0
O190 O 0.52178 0.96551 -0.02232 0.0
C191 C 0.15961 0.8548 0.03608 0.0
O192 O 0.32397 0.95199 0.18678 0.0
O193 O 0.3397 1.04247 0.09254 0.0
C194 C 0.48358 0.88801 0.17447 0.0
O195 O 0.17572 0.82873 0.09751 0.0
O196 O 0.2267 0.91697 -0.0012 0.0
C197 C 0.35579 0.86012 0.90515 0.0
Fe198 Fe 0.44105 0.31557 0.17954 0.0
Fe199 Fe 0.65423 0.40782 0.19846 0.0
O200 O 0.53649 0.32344 0.227 0.0
Fe201 Fe 0.52197 0.2505 0.3028 0.0
O202 O 0.4204 0.13901 0.26417 0.0
O203 O 0.38313 0.19 0.16547 0.0
O204 O 0.4964 0.3225 0.0912 0.0
C205 C 0.56907 0.31908 0.07182 0.0
C206 C 0.3836 0.30516 0.32714 0.0
O207 O 0.63752 0.34061 0.11484 0.0
C208 C 0.66897 0.44686 0.34114 0.0
O209 O 0.49485 0.44179 0.19183 0.0
O210 O 0.62967 0.48507 0.14435 0.0
O211 O 0.44539 0.28726 0.35344 0.0
O212 O 0.37065 0.30301 0.2592 0.0
C213 C 0.67709 0.26392 0.23355 0.0
O214 O 0.67245 0.4791 0.27795 0.0
O215 O 0.6227 0.35596 0.35375 0.0
C216 C 0.561 0.49719 0.15114 0.0
O217 O 0.69956 0.34562 0.24971 0.0
O218 O 0.59419 0.20512 0.25261 0.0
C219 C 0.3782 0.1229 0.20275 0.0
Fe220 Fe 0.19888 0.40434 0.34621 0.0
Fe221 Fe 0.3198 0.61752 0.36513 0.0
O222 O 0.28644 0.49978 0.39367 0.0
Fe223 Fe 0.34487 0.48526 0.46946 0.0
O224 O 0.35479 0.38369 0.43084 0.0
O225 O 0.26653 0.34642 0.33214 0.0
O226 O 0.2473 0.45969 0.25787 0.0
C227 C 0.32338 0.53235 0.23849 0.0
C228 C 0.15184 0.34689 0.4938 0.0
O229 O 0.37029 0.60081 0.28151 0.0
C230 C 0.2955 0.63226 0.50781 0.0
O231 O 0.12644 0.45813 0.3585 0.0
O232 O 0.21799 0.59296 0.31101 0.0
O233 O 0.23153 0.40868 0.52011 0.0
O234 O 0.14104 0.33394 0.42587 0.0
C235 C 0.48655 0.64038 0.40022 0.0
O236 O 0.26673 0.63574 0.44462 0.0
O237 O 0.34013 0.58599 0.52042 0.0
C238 C 0.1372 0.52428 0.3178 0.0
O239 O 0.42732 0.66285 0.41637 0.0
O240 O 0.46245 0.55748 0.41927 0.0
C241 C 0.3287 0.34149 0.36942 0.0
Fe242 Fe 0.77568 0.28308 0.5318 0.0
Fe243 Fe 0.93301 0.30814 0.63613 0.0
O244 O 0.86006 0.24972 0.56034 0.0
Fe245 Fe 0.86795 0.16216 0.51288 0.0
O246 O 0.86101 0.21058 0.42453 0.0
O247 O 0.84288 0.33357 0.44818 0.0
O248 O 0.83787 0.39061 0.58304 0.0
C249 C 0.91957 0.44983 0.56689 0.0
C250 C 0.68632 0.10048 0.48448 0.0
O251 O 0.97838 0.42573 0.58594 0.0
C252 C 0.87835 0.11512 0.66047 0.0
O253 O 0.7044 0.23002 0.61129 0.0
O254 O 0.82753 0.30341 0.68709 0.0
O255 O 0.74172 0.08973 0.52516 0.0
O256 O 0.69843 0.18127 0.47768 0.0
C257 C 1.06061 0.29198 0.53608 0.0
O258 O 0.89625 0.1948 0.68678 0.0
O259 O 0.88052 0.10432 0.59253 0.0
C260 C 0.73663 0.25878 0.67448 0.0
O261 O 1.0445 0.31805 0.59751 0.0
O262 O 0.99352 0.22981 0.4988 0.0
C263 C 0.86443 0.28666 0.40515 0.0
loop_
_geom_bond_atom_site_label_1
_geom_bond_atom_site_label_2
_geom_bond_distance
_geom_bond_site_symmetry_2
_ccdc_geom_bond_type
Fe0 O2 1.918 . S
Fe0 O5 1.997 . S
Fe0 O6 2.002 . S
Fe0 O11 1.976 . S
Fe0 O14 1.996 1_554 S
Fe1 O2 1.918 . S
Fe1 O9 1.997 . S
Fe1 O12 1.996 . S
Fe1 O16 1.976 . S
Fe1 O19 2.002 . S
O2 Fe0 1.918 . S
O2 Fe1 1.918 . S
O2 Fe3 1.918 1_554 S
Fe3 O2 1.918 1_556 S
Fe3 O4 2.002 . S
Fe3 O13 1.976 . S
Fe3 O17 1.996 . S
Fe3 O20 1.997 . S
O4 Fe3 2.002 . S
O4 C21 1.295 1_556 S
O5 Fe0 1.997 . S
O5 C21 1.235 . S
O6 Fe0 2.002 . S
O6 C7 1.295 . S
C7 O6 1.295 . S
C7 O9 1.235 . S
C8 O13 1.287 . S
C8 O14 1.255 . S
O9 Fe1 1.997 . S
O9 C7 1.235 . S
C10 O16 1.287 1_556 S
C10 O17 1.255 . S
O11 Fe0 1.976 . S
O11 C18 1.287 . S
O12 Fe1 1.996 . S
O12 C18 1.255 . S
O13 Fe3 1.976 . S
O13 C8 1.287 . S
O14 Fe0 1.996 1_556 S
O14 C8 1.255 . S
C15 O19 1.295 . S
C15 O20 1.235 1_554 S
O16 Fe1 1.976 . S
O16 C10 1.287 1_554 S
O17 Fe3 1.996 . S
O17 C10 1.255 . S
C18 O11 1.287 . S
C18 O12 1.255 . S
O19 Fe1 2.002 . S
O19 C15 1.295 . S
O20 Fe3 1.997 . S
O20 C15 1.235 1_556 S
C21 O4 1.295 1_554 S
C21 O5 1.235 . S
Fe22 O24 1.918 . S
Fe22 O27 1.997 . S
Fe22 O28 2.002 . S
Fe22 O33 1.976 . S
Fe22 O36 1.996 . S
Fe23 O24 1.918 . S
Fe23 O31 1.997 . S
Fe23 O34 1.996 . S
Fe23 O38 1.976 . S
Fe23 O41 2.002 . S
O24 Fe22 1.918 . S
O24 Fe23 1.918 . S
O24 Fe25 1.918 . S
Fe25 O24 1.918 . S
Fe25 O26 2.002 . S
Fe25 O35 1.976 . S
Fe25 O39 1.996 . S
Fe25 O42 1.997 . S
O26 Fe25 2.002 . S
O26 C43 1.295 . S
O27 Fe22 1.997 . S
O27 C43 1.235 . S
O28 Fe22 2.002 . S
O28 C29 1.295 . S
C29 O28 1.295 . S
C29 O31 1.235 . S
C30 O35 1.287 . S
C30 O36 1.255 . S
O31 Fe23 1.997 . S
O31 C29 1.235 . S
C32 O38 1.287 . S
C32 O39 1.255 . S
O33 Fe22 1.976 . S
O33 C40 1.287 . S
O34 Fe23 1.996 . S
O34 C40 1.255 . S
O35 Fe25 1.976 . S
O35 C30 1.287 . S
O36 Fe22 1.996 . S
O36 C30 1.255 . S
C37 O41 1.295 . S
C37 O42 1.235 . S
O38 Fe23 1.976 . S
O38 C32 1.287 . S
O39 Fe25 1.996 . S
O39 C32 1.255 . S
C40 O33 1.287 . S
C40 O34 1.255 . S
O41 Fe23 2.002 . S
O41 C37 1.295 . S
O42 Fe25 1.997 . S
O42 C37 1.235 . S
C43 O26 1.295 . S
C43 O27 1.235 . S
Fe44 O46 1.918 . S
Fe44 O49 1.997 . S
Fe44 O50 2.002 . S
Fe44 O55 1.976 . S
Fe44 O58 1.996 . S
Fe45 O46 1.918 . S
Fe45 O53 1.997 . S
Fe45 O56 1.996 . S
Fe45 O60 1.976 . S
Fe45 O63 2.002 . S
O46 Fe44 1.918 . S
O46 Fe45 1.918 . S
O46 Fe47 1.918 . S
Fe47 O46 1.918 . S
Fe47 O48 2.002 . S
Fe47 O57 1.976 . S
Fe47 O61 1.996 . S
Fe47 O64 1.997 . S
O48 Fe47 2.002 . S
O48 C65 1.295 . S
O49 Fe44 1.997 . S
O49 C65 1.235 . S
O50 Fe44 2.002 . S
O50 C51 1.295 . S
C51 O50 1.295 . S
C51 O53 1.235 . S
C52 O57 1.287 . S
C52 O58 1.255 . S
O53 Fe45 1.997 . S
O53 C51 1.235 . S
C54 O60 1.287 . S
C54 O61 1.255 . S
O55 Fe44 1.976 . S
O55 C62 1.287 . S
O56 Fe45 1.996 . S
O56 C62 1.255 . S
O57 Fe47 1.976 . S
O57 C52 1.287 . S
O58 Fe44 1.996 . S
O58 C52 1.255 . S
C59 O63 1.295 . S
C59 O64 1.235 . S
O60 Fe45 1.976 . S
O60 C54 1.287 . S
O61 Fe47 1.996 . S
O61 C54 1.255 . S
C62 O55 1.287 . S
C62 O56 1.255 . S
O63 Fe45 2.002 . S
O63 C59 1.295 . S
O64 Fe47 1.997 . S
O64 C59 1.235 . S
C65 O48 1.295 . S
C65 O49 1.235 . S
Fe66 O68 1.918 . S
Fe66 O71 1.997 . S
Fe66 O72 2.002 . S
Fe66 O77 1.976 . S
Fe66 O80 1.996 . S
Fe67 O68 1.918 . S
Fe67 O75 1.997 . S
Fe67 O78 1.996 . S
Fe67 O82 1.976 . S
Fe67 O85 2.002 . S
O68 Fe66 1.918 . S
O68 Fe67 1.918 . S
O68 Fe69 1.918 . S
Fe69 O68 1.918 . S
Fe69 O70 2.002 . S
Fe69 O79 1.976 . S
Fe69 O83 1.996 . S
Fe69 O86 1.997 . S
O70 Fe69 2.002 . S
O70 C87 1.295 . S
O71 Fe66 1.997 . S
O71 C87 1.235 . S
O72 Fe66 2.002 . S
O72 C73 1.295 . S
C73 O72 1.295 . S
C73 O75 1.235 . S
C74 O79 1.287 . S
C74 O80 1.255 . S
O75 Fe67 1.997 . S
O75 C73 1.235 . S
C76 O82 1.287 . S
C76 O83 1.255 . S
O77 Fe66 1.976 . S
O77 C84 1.287 . S
O78 Fe67 1.996 . S
O78 C84 1.255 . S
O79 Fe69 1.976 . S
O79 C74 1.287 . S
O80 Fe66 1.996 . S
O80 C74 1.255 . S
C81 O85 1.295 . S
C81 O86 1.235 . S
O82 Fe67 1.976 . S
O82 C76 1.287 . S
O83 Fe69 1.996 . S
O83 C76 1.255 . S
C84 O77 1.287 . S
C84 O78 1.255 . S
O85 Fe67 2.002 . S
O85 C81 1.295 . S
O86 Fe69 1.997 . S
O86 C81 1.235 . S
C87 O70 1.295 . S
C87 O71 1.235 . S
Fe88 O90 1.918 . S
Fe88 O93 1.997 . S
Fe88 O94 2.002 . S
Fe88 O99 1.976 . S
Fe88 O102 1.996 . S
Fe89 O90 1.918 . S
Fe89 O97 1.997 . S
Fe89 O100 1.996 . S
Fe89 O104 1.976 . S
Fe89 O107 2.002 . S
O90 Fe88 1.918 . S
O90 Fe89 1.918 . S
O90 Fe91 1.918 . S
Fe91 O90 1.918 . S
Fe91 O92 2.002 . S
Fe91 O101 1.976 . S
Fe91 O105 1.996 . S
Fe91 O108 1.997 . S
O92 Fe91 2.002 . S
O92 C109 1.295 . S
O93 Fe88 1.997 . S
O93 C109 1.235 . S
O94 Fe88 2.002 . S
O94 C95 1.295 . S
C95 O94 1.295 . S
C95 O97 1.235 . S
C96 O101 1.287 . S
C96 O102 1.255 . S
O97 Fe89 1.997 . S
O97 C95 1.235 . S
C98 O104 1.287 . S
C98 O105 1.255 . S
O99 Fe88 1.976 . S
O99 C106 1.287 . S
O100 Fe89 1.996 . S
O100 C106 1.255 . S
O101 Fe91 1.976 . S
O101 C96 1.287 . S
O102 Fe88 1.996 . S
O102 C96 1.255 . S
C103 O107 1.295 . S
C103 O108 1.235 . S
O104 Fe89 1.976 . S
O104 C98 1.287 . S
O105 Fe91 1.996 . S
O105 C98 1.255 . S
C106 O99 1.287 . S
C106 O100 1.255 . S
O107 Fe89 2.002 . S
O107 C103 1.295 . S
O108 Fe91 1.997 . S
O108 C103 1.235 . S
C109 O92 1.295 . S
C109 O93 1.235 . S
Fe110 O112 1.918 . S
Fe110 O115 1.997 . S
Fe110 O116 2.002 1_556 S
Fe110 O121 1.976 . S
Fe110 O124 1.996 . S
Fe111 O112 1.918 . S
Fe111 O119 1.997 1_556 S
Fe111 O122 1.996 . S
Fe111 O126 1.976 . S
Fe111 O129 2.002 . S
O112 Fe110 1.918 . S
O112 Fe111 1.918 . S
O112 Fe113 1.918 . S
Fe113 O112 1.918 . S
Fe113 O114 2.002 . S
Fe113 O123 1.976 . S
Fe113 O127 1.996 . S
Fe113 O130 1.997 . S
O114 Fe113 2.002 . S
O114 C131 1.295 . S
O115 Fe110 1.997 . S
O115 C131 1.235 . S
O116 Fe110 2.002 1_554 S
O116 C117 1.295 . S
C117 O116 1.295 . S
C117 O119 1.235 . S
C118 O123 1.287 . S
C118 O124 1.255 . S
O119 Fe111 1.997 1_554 S
O119 C117 1.235 . S
C120 O126 1.287 . S
C120 O127 1.255 . S
O121 Fe110 1.976 . S
O121 C128 1.287 . S
O122 Fe111 1.996 . S
O122 C128 1.255 . S
O123 Fe113 1.976 . S
O123 C118 1.287 . S
O124 Fe110 1.996 . S
O124 C118 1.255 . S
C125 O129 1.295 . S
C125 O130 1.235 . S
O126 Fe111 1.976 . S
O126 C120 1.287 . S
O127 Fe113 1.996 . S
O127 C120 1.255 . S
C128 O121 1.287 . S
C128 O122 1.255 . S
O129 Fe111 2.002 . S
O129 C125 1.295 . S
O130 Fe113 1.997 . S
O130 C125 1.235 . S
C131 O114 1.295 . S
C131 O115 1.235 . S
Fe132 O134 1.918 . S
Fe132 O137 1.997 . S
Fe132 O138 2.002 . S
Fe132 O143 1.976 . S
Fe132 O146 1.996 . S
Fe133 O134 1.918 . S
Fe133 O141 1.997 . S
Fe133 O144 1.996 . S
Fe133 O148 1.976 . S
Fe133 O151 2.002 . S
O134 Fe132 1.918 . S
O134 Fe133 1.918 . S
O134 Fe135 1.918 . S
Fe135 O134 1.918 . S
Fe135 O136 2.002 . S
Fe135 O145 1.976 . S
Fe135 O149 1.996 . S
Fe135 O152 1.997 . S
O136 Fe135 2.002 . S
O136 C153 1.295 . S
O137 Fe132 1.997 . S
O137 C153 1.235 . S
O138 Fe132 2.002 . S
O138 C139 1.295 . S
C139 O138 1.295 . S
C139 O141 1.235 . S
C140 O145 1.287 . S
C140 O146 1.255 . S
O141 Fe133 1.997 . S
O141 C139 1.235 . S
C142 O148 1.287 . S
C142 O149 1.255 . S
O143 Fe132 1.976 . S
O143 C150 1.287 . S
O144 Fe133 1.996 . S
O144 C150 1.255 . S
O145 Fe135 1.976 . S
O145 C140 1.287 . S
O146 Fe132 1.996 . S
O146 C140 1.255 . S
C147 O151 1.295 . S
C147 O152 1.235 . S
O148 Fe133 1.976 . S
O148 C142 1.287 . S
O149 Fe135 1.996 . S
O149 C142 1.255 . S
C150 O143 1.287 . S
C150 O144 1.255 . S
O151 Fe133 2.002 . S
O151 C147 1.295 . S
O152 Fe135 1.997 . S
O152 C147 1.235 . S
C153 O136 1.295 . S
C153 O137 1.235 . S
Fe154 O156 1.918 . S
Fe154 O159 1.997 . S
Fe154 O160 2.002 . S
Fe154 O165 1.976 . S
Fe154 O168 1.996 1_556 S
Fe155 O156 1.918 . S
Fe155 O163 1.997 . S
Fe155 O166 1.996 . S
Fe155 O170 1.976 . S
Fe155 O173 2.002 . S
O156 Fe154 1.918 . S
O156 Fe155 1.918 . S
O156 Fe157 1.918 1_556 S
Fe157 O156 1.918 1_554 S
Fe157 O158 2.002 . S
Fe157 O167 1.976 . S
Fe157 O171 1.996 . S
Fe157 O174 1.997 . S
O158 Fe157 2.002 . S
O158 C175 1.295 1_554 S
O159 Fe154 1.997 . S
O159 C175 1.235 . S
O160 Fe154 2.002 . S
O160 C161 1.295 . S
C161 O160 1.295 . S
C161 O163 1.235 . S
C162 O167 1.287 . S
C162 O168 1.255 . S
O163 Fe155 1.997 . S
O163 C161 1.235 . S
C164 O170 1.287 1_554 S
C164 O171 1.255 . S
O165 Fe154 1.976 . S
O165 C172 1.287 . S
O166 Fe155 1.996 . S
O166 C172 1.255 . S
O167 Fe157 1.976 . S
O167 C162 1.287 . S
O168 Fe154 1.996 1_554 S
O168 C162 1.255 . S
C169 O173 1.295 . S
C169 O174 1.235 1_556 S
O170 Fe155 1.976 . S
O170 C164 1.287 1_556 S
O171 Fe157 1.996 . S
O171 C164 1.255 . S
C172 O165 1.287 . S
C172 O166 1.255 . S
O173 Fe155 2.002 . S
O173 C169 1.295 . S
O174 Fe157 1.997 . S
O174 C169 1.235 1_554 S
C175 O158 1.295 1_556 S
C175 O159 1.235 . S
Fe176 O178 1.918 . S
Fe176 O181 1.997 1_554 S
Fe176 O182 2.002 . S
Fe176 O187 1.976 . S
Fe176 O190 1.996 . S
Fe177 O178 1.918 . S
Fe177 O185 1.997 . S
Fe177 O188 1.996 . S
Fe177 O192 1.976 . S
Fe177 O195 2.002 . S
O178 Fe176 1.918 . S
O178 Fe177 1.918 . S
O178 Fe179 1.918 . S
Fe179 O178 1.918 . S
Fe179 O180 2.002 1_554 S
Fe179 O189 1.976 . S
Fe179 O193 1.996 . S
Fe179 O196 1.997 . S
O180 Fe179 2.002 1_556 S
O180 C197 1.295 . S
O181 Fe176 1.997 1_556 S
O181 C197 1.235 . S
O182 Fe176 2.002 . S
O182 C183 1.295 . S
C183 O182 1.295 . S
C183 O185 1.235 . S
C184 O189 1.287 . S
C184 O190 1.255 . S
O185 Fe177 1.997 . S
O185 C183 1.235 . S
C186 O192 1.287 . S
C186 O193 1.255 . S
O187 Fe176 1.976 . S
O187 C194 1.287 . S
O188 Fe177 1.996 . S
O188 C194 1.255 . S
O189 Fe179 1.976 . S
O189 C184 1.287 . S
O190 Fe176 1.996 . S
O190 C184 1.255 . S
C191 O195 1.295 . S
C191 O196 1.235 . S
O192 Fe177 1.976 . S
O192 C186 1.287 . S
O193 Fe179 1.996 . S
O193 C186 1.255 . S
C194 O187 1.287 . S
C194 O188 1.255 . S
O195 Fe177 2.002 . S
O195 C191 1.295 . S
O196 Fe179 1.997 . S
O196 C191 1.235 . S
C197 O180 1.295 . S
C197 O181 1.235 . S
Fe198 O200 1.918 . S
Fe198 O203 1.997 . S
Fe198 O204 2.002 . S
Fe198 O209 1.976 . S
Fe198 O212 1.996 . S
Fe199 O200 1.918 . S
Fe199 O207 1.997 . S
Fe199 O210 1.996 . S
Fe199 O214 1.976 . S
Fe199 O217 2.002 . S
O200 Fe198 1.918 . S
O200 Fe199 1.918 . S
O200 Fe201 1.918 . S
Fe201 O200 1.918 . S
Fe201 O202 2.002 . S
Fe201 O211 1.976 . S
Fe201 O215 1.996 . S
Fe201 O218 1.997 . S
O202 Fe201 2.002 . S
O202 C219 1.295 . S
O203 Fe198 1.997 . S
O203 C219 1.235 . S
O204 Fe198 2.002 . S
O204 C205 1.295 . S
C205 O204 1.295 . S
C205 O207 1.235 . S
C206 O211 1.287 . S
C206 O212 1.255 . S
O207 Fe199 1.997 . S
O207 C205 1.235 . S
C208 O214 1.287 . S
C208 O215 1.255 . S
O209 Fe198 1.976 . S
O209 C216 1.287 . S
O210 Fe199 1.996 . S
O210 C216 1.255 . S
O211 Fe201 1.976 . S
O211 C206 1.287 . S
O212 Fe198 1.996 . S
O212 C206 1.255 . S
C213 O217 1.295 . S
C213 O218 1.235 . S
O214 Fe199 1.976 . S
O214 C208 1.287 . S
O215 Fe201 1.996 . S
O215 C208 1.255 . S
C216 O209 1.287 . S
C216 O210 1.255 . S
O217 Fe199 2.002 . S
O217 C213 1.295 . S
O218 Fe201 1.997 . S
O218 C213 1.235 . S
C219 O202 1.295 . S
C219 O203 1.235 . S
Fe220 O222 1.918 . S
Fe220 O225 1.997 . S
Fe220 O226 2.002 . S
Fe220 O231 1.976 . S
Fe220 O234 1.996 . S
Fe221 O222 1.918 . S
Fe221 O229 1.997 . S
Fe221 O232 1.996 . S
Fe221 O236 1.976 . S
Fe221 O239 2.002 . S
O222 Fe220 1.918 . S
O222 Fe221 1.918 . S
O222 Fe223 1.918 . S
Fe223 O222 1.918 . S
Fe223 O224 2.002 . S
Fe223 O233 1.976 . S
Fe223 O237 1.996 . S
Fe223 O240 1.997 . S
O224 Fe223 2.002 . S
O224 C241 1.295 . S
O225 Fe220 1.997 . S
O225 C241 1.235 . S
O226 Fe220 2.002 . S
O226 C227 1.295 . S
C227 O226 1.295 . S
C227 O229 1.235 . S
C228 O233 1.287 . S
C228 O234 1.255 . S
O229 Fe221 1.997 . S
O229 C227 1.235 . S
C230 O236 1.287 . S
C230 O237 1.255 . S
O231 Fe220 1.976 . S
O231 C238 1.287 . S
O232 Fe221 1.996 . S
O232 C238 1.255 . S
O233 Fe223 1.976 . S
O233 C228 1.287 . S
O234 Fe220 1.996 . S
O234 C228 1.255 . S
C235 O239 1.295 . S
C235 O240 1.235 . S
O236 Fe221 1.976 . S
O236 C230 1.287 . S
O237 Fe223 1.996 . S
O237 C230 1.255 . S
C238 O231 1.287 . S
C238 O232 1.255 . S
O239 Fe221 2.002 . S
O239 C235 1.295 . S
O240 Fe223 1.997 . S
O240 C235 1.235 . S
C241 O224 1.295 . S
C241 O225 1.235 . S
Fe242 O244 1.918 . S
Fe242 O247 1.997 . S
Fe242 O248 2.002 . S
Fe242 O253 1.976 . S
Fe242 O256 1.996 . S
Fe243 O244 1.918 . S
Fe243 O251 1.997 . S
Fe243 O254 1.996 . S
Fe243 O258 1.976 . S
Fe243 O261 2.002 . S
O244 Fe242 1.918 . S
O244 Fe243 1.918 . S
O244 Fe245 1.918 . S
Fe245 O244 1.918 . S
Fe245 O246 2.002 . S
Fe245 O255 1.976 . S
Fe245 O259 1.996 . S
Fe245 O262 1.997 . S
O246 Fe245 2.002 . S
O246 C263 1.295 . S
O247 Fe242 1.997 . S
O247 C263 1.235 . S
O248 Fe242 2.002 . S
O248 C249 1.295 . S
C249 O248 1.295 . S
C249 O251 1.235 . S
C250 O255 1.287 . S
C250 O256 1.255 . S
O251 Fe243 1.997 . S
O251 C249 1.235 . S
C252 O258 1.287 . S
C252 O259 1.255 . S
O253 Fe242 1.976 . S
O253 C260 1.287 . S
O254 Fe243 1.996 . S
O254 C260 1.255 . S
O255 Fe245 1.976 . S
O255 C250 1.287 . S
O256 Fe242 1.996 . S
O256 C250 1.255 . S
C257 O261 1.295 . S
C257 O262 1.235 . S
O258 Fe243 1.976 . S
O258 C252 1.287 . S
O259 Fe245 1.996 . S
O259 C252 1.255 . S
C260 O253 1.287 . S
C260 O254 1.255 . S
O261 Fe243 2.002 . S
O261 C257 1.295 . S
O262 Fe245 1.997 . S
O262 C257 1.235 . S
C263 O246 1.295 . S
C263 O247 1.235 . S
C15 C183 2.102 . S
C213 C43 2.102 . S
C235 C59 2.102 . S
C81 C249 2.102 . S
C153 C103 2.102 . S
C169 C125 2.102 . S
C18 C216 1.175 . S
C32 C238 1.175 1_655 S
C250 C62 1.174 1_545 S
C142 C84 1.174 . S
C106 C172 1.175 1_455 S
C128 C184 1.175 1_546 S
C140 C10 1.443 . S
C164 C30 1.442 . S
C194 C54 1.443 . S
C76 C208 1.442 . S
C98 C230 1.443 . S
C120 C260 1.443 . S
C8 C131 2.331 . S
C40 C21 2.331 1_655 S
C52 C29 2.331 1_565 S
C65 C74 2.331 . S
C96 C87 2.331 1_455 S
C118 C109 2.331 1_545 S
C175 C150 2.331 . S
C191 C162 2.331 1_455 S
C219 C186 2.331 1_545 S
C206 C241 2.331 . S
C228 C257 2.331 1_455 S
C252 C139 2.331 1_545 S
C227 C7 0.669 . S
C263 C37 0.669 . S
C147 C51 0.669 . S
C161 C73 0.669 . S
C95 C197 0.669 . S
C117 C205 0.669 . S
