# Generated by pormake.
# Topology uoa, (4)-cn, num edge types: 1
# Building blocks:
#     Node 0, Type 0, BuildingBlock: MUDLON_clean_sbu_0, # of connection points: 4
#     Node 1, Type 0, BuildingBlock: MUDLON_clean_sbu_0, # of connection points: 4
#     Node 2, Type 0, BuildingBlock: MUDLON_clean_sbu_0, # of connection points: 4
#     Node 3, Type 0, BuildingBlock: MUDLON_clean_sbu_0, # of connection points: 4
#     Node 4, Type 0, BuildingBlock: MUDLON_clean_sbu_0, # of connection points: 4
#     Node 5, Type 0, BuildingBlock: MUDLON_clean_sbu_0, # of connection points: 4
#     Node 6, Type 0, BuildingBlock: MUDLON_clean_sbu_0, # of connection points: 4
#     Node 7, Type 0, BuildingBlock: MUDLON_clean_sbu_0, # of connection points: 4
#     Node 8, Type 0, BuildingBlock: MUDLON_clean_sbu_0, # of connection points: 4
#     Node 9, Type 0, BuildingBlock: MUDLON_clean_sbu_0, # of connection points: 4
#     Node 10, Type 0, BuildingBlock: MUDLON_clean_sbu_0, # of connection points: 4
#     Node 11, Type 0, BuildingBlock: MUDLON_clean_sbu_0, # of connection points: 4
#     Node 12, Type 0, BuildingBlock: MUDLON_clean_sbu_0, # of connection points: 4
#     Node 13, Type 0, BuildingBlock: MUDLON_clean_sbu_0, # of connection points: 4
#     Node 14, Type 0, BuildingBlock: MUDLON_clean_sbu_0, # of connection points: 4
#     Node 15, Type 0, BuildingBlock: MUDLON_clean_sbu_0, # of connection points: 4
#     Node 16, Type 0, BuildingBlock: MUDLON_clean_sbu_0, # of connection points: 4
#     Node 17, Type 0, BuildingBlock: MUDLON_clean_sbu_0, # of connection points: 4
#     Node 18, Type 0, BuildingBlock: MUDLON_clean_sbu_0, # of connection points: 4
#     Node 19, Type 0, BuildingBlock: MUDLON_clean_sbu_0, # of connection points: 4
#     Node 20, Type 0, BuildingBlock: MUDLON_clean_sbu_0, # of connection points: 4
#     Node 21, Type 0, BuildingBlock: MUDLON_clean_sbu_0, # of connection points: 4
#     Node 22, Type 0, BuildingBlock: MUDLON_clean_sbu_0, # of connection points: 4
#     Node 23, Type 0, BuildingBlock: MUDLON_clean_sbu_0, # of connection points: 4
#     Node 24, Type 0, BuildingBlock: MUDLON_clean_sbu_0, # of connection points: 4
#     Node 25, Type 0, BuildingBlock: MUDLON_clean_sbu_0, # of connection points: 4
#     Node 26, Type 0, BuildingBlock: MUDLON_clean_sbu_0, # of connection points: 4
#     Node 27, Type 0, BuildingBlock: MUDLON_clean_sbu_0, # of connection points: 4
#     Node 28, Type 0, BuildingBlock: MUDLON_clean_sbu_0, # of connection points: 4
#     Node 29, Type 0, BuildingBlock: MUDLON_clean_sbu_0, # of connection points: 4
#     Node 30, Type 0, BuildingBlock: MUDLON_clean_sbu_0, # of connection points: 4
#     Node 31, Type 0, BuildingBlock: MUDLON_clean_sbu_0, # of connection points: 4
#     Edge 32, Type (0, 0), BuildingBlock: XIVTED_clean_linker_0, # of connection points: 2
#     Edge 33, Type (0, 0), BuildingBlock: XIVTED_clean_linker_0, # of connection points: 2
#     Edge 34, Type (0, 0), BuildingBlock: XIVTED_clean_linker_0, # of connection points: 2
#     Edge 35, Type (0, 0), BuildingBlock: XIVTED_clean_linker_0, # of connection points: 2
#     Edge 36, Type (0, 0), BuildingBlock: XIVTED_clean_linker_0, # of connection points: 2
#     Edge 37, Type (0, 0), BuildingBlock: XIVTED_clean_linker_0, # of connection points: 2
#     Edge 38, Type (0, 0), BuildingBlock: XIVTED_clean_linker_0, # of connection points: 2
#     Edge 39, Type (0, 0), BuildingBlock: XIVTED_clean_linker_0, # of connection points: 2
#     Edge 40, Type (0, 0), BuildingBlock: XIVTED_clean_linker_0, # of connection points: 2
#     Edge 41, Type (0, 0), BuildingBlock: XIVTED_clean_linker_0, # of connection points: 2
#     Edge 42, Type (0, 0), BuildingBlock: XIVTED_clean_linker_0, # of connection points: 2
#     Edge 43, Type (0, 0), BuildingBlock: XIVTED_clean_linker_0, # of connection points: 2
#     Edge 44, Type (0, 0), BuildingBlock: XIVTED_clean_linker_0, # of connection points: 2
#     Edge 45, Type (0, 0), BuildingBlock: XIVTED_clean_linker_0, # of connection points: 2
#     Edge 46, Type (0, 0), BuildingBlock: XIVTED_clean_linker_0, # of connection points: 2
#     Edge 47, Type (0, 0), BuildingBlock: XIVTED_clean_linker_0, # of connection points: 2
#     Edge 48, Type (0, 0), BuildingBlock: XIVTED_clean_linker_0, # of connection points: 2
#     Edge 49, Type (0, 0), BuildingBlock: XIVTED_clean_linker_0, # of connection points: 2
#     Edge 50, Type (0, 0), BuildingBlock: XIVTED_clean_linker_0, # of connection points: 2
#     Edge 51, Type (0, 0), BuildingBlock: XIVTED_clean_linker_0, # of connection points: 2
#     Edge 52, Type (0, 0), BuildingBlock: XIVTED_clean_linker_0, # of connection points: 2
#     Edge 53, Type (0, 0), BuildingBlock: XIVTED_clean_linker_0, # of connection points: 2
#     Edge 54, Type (0, 0), BuildingBlock: XIVTED_clean_linker_0, # of connection points: 2
#     Edge 55, Type (0, 0), BuildingBlock: XIVTED_clean_linker_0, # of connection points: 2
#     Edge 56, Type (0, 0), BuildingBlock: XIVTED_clean_linker_0, # of connection points: 2
#     Edge 57, Type (0, 0), BuildingBlock: XIVTED_clean_linker_0, # of connection points: 2
#     Edge 58, Type (0, 0), BuildingBlock: XIVTED_clean_linker_0, # of connection points: 2
#     Edge 59, Type (0, 0), BuildingBlock: XIVTED_clean_linker_0, # of connection points: 2
#     Edge 60, Type (0, 0), BuildingBlock: XIVTED_clean_linker_0, # of connection points: 2
#     Edge 61, Type (0, 0), BuildingBlock: XIVTED_clean_linker_0, # of connection points: 2
#     Edge 62, Type (0, 0), BuildingBlock: XIVTED_clean_linker_0, # of connection points: 2
#     Edge 63, Type (0, 0), BuildingBlock: XIVTED_clean_linker_0, # of connection points: 2
#     Edge 64, Type (0, 0), BuildingBlock: XIVTED_clean_linker_0, # of connection points: 2
#     Edge 65, Type (0, 0), BuildingBlock: XIVTED_clean_linker_0, # of connection points: 2
#     Edge 66, Type (0, 0), BuildingBlock: XIVTED_clean_linker_0, # of connection points: 2
#     Edge 67, Type (0, 0), BuildingBlock: XIVTED_clean_linker_0, # of connection points: 2
#     Edge 68, Type (0, 0), BuildingBlock: XIVTED_clean_linker_0, # of connection points: 2
#     Edge 69, Type (0, 0), BuildingBlock: XIVTED_clean_linker_0, # of connection points: 2
#     Edge 70, Type (0, 0), BuildingBlock: XIVTED_clean_linker_0, # of connection points: 2
#     Edge 71, Type (0, 0), BuildingBlock: XIVTED_clean_linker_0, # of connection points: 2
#     Edge 72, Type (0, 0), BuildingBlock: XIVTED_clean_linker_0, # of connection points: 2
#     Edge 73, Type (0, 0), BuildingBlock: XIVTED_clean_linker_0, # of connection points: 2
#     Edge 74, Type (0, 0), BuildingBlock: XIVTED_clean_linker_0, # of connection points: 2
#     Edge 75, Type (0, 0), BuildingBlock: XIVTED_clean_linker_0, # of connection points: 2
#     Edge 76, Type (0, 0), BuildingBlock: XIVTED_clean_linker_0, # of connection points: 2
#     Edge 77, Type (0, 0), BuildingBlock: XIVTED_clean_linker_0, # of connection points: 2
#     Edge 78, Type (0, 0), BuildingBlock: XIVTED_clean_linker_0, # of connection points: 2
#     Edge 79, Type (0, 0), BuildingBlock: XIVTED_clean_linker_0, # of connection points: 2
#     Edge 80, Type (0, 0), BuildingBlock: XIVTED_clean_linker_0, # of connection points: 2
#     Edge 81, Type (0, 0), BuildingBlock: XIVTED_clean_linker_0, # of connection points: 2
#     Edge 82, Type (0, 0), BuildingBlock: XIVTED_clean_linker_0, # of connection points: 2
#     Edge 83, Type (0, 0), BuildingBlock: XIVTED_clean_linker_0, # of connection points: 2
#     Edge 84, Type (0, 0), BuildingBlock: XIVTED_clean_linker_0, # of connection points: 2
#     Edge 85, Type (0, 0), BuildingBlock: XIVTED_clean_linker_0, # of connection points: 2
#     Edge 86, Type (0, 0), BuildingBlock: XIVTED_clean_linker_0, # of connection points: 2
#     Edge 87, Type (0, 0), BuildingBlock: XIVTED_clean_linker_0, # of connection points: 2
#     Edge 88, Type (0, 0), BuildingBlock: XIVTED_clean_linker_0, # of connection points: 2
#     Edge 89, Type (0, 0), BuildingBlock: XIVTED_clean_linker_0, # of connection points: 2
#     Edge 90, Type (0, 0), BuildingBlock: XIVTED_clean_linker_0, # of connection points: 2
#     Edge 91, Type (0, 0), BuildingBlock: XIVTED_clean_linker_0, # of connection points: 2
#     Edge 92, Type (0, 0), BuildingBlock: XIVTED_clean_linker_0, # of connection points: 2
#     Edge 93, Type (0, 0), BuildingBlock: XIVTED_clean_linker_0, # of connection points: 2
#     Edge 94, Type (0, 0), BuildingBlock: XIVTED_clean_linker_0, # of connection points: 2
#     Edge 95, Type (0, 0), BuildingBlock: XIVTED_clean_linker_0, # of connection points: 2
# Relax obj value: 0.110
# Max RMSD: 0.249
# Mean RMSD: 0.249
data_MOF--net-uoa--node1-MUDLON_clean_sbu_0--edge1-XIVTED_clean_linker_0
_symmetry_space_group_name_H-M    P1
_symmetry_Int_Tables_number       1
_symmetry_cell_setting            triclinic
loop_
_symmetry_equiv_pos_as_xyz
'x, y, z'
_cell_length_a     79.364798
_cell_length_b     79.599614
_cell_length_c     29.762406
_cell_angle_alpha  90.040013
_cell_angle_beta   89.996756
_cell_angle_gamma 89.979919
loop_
_atom_site_label
_atom_site_type_symbol
_atom_site_fract_x
_atom_site_fract_y
_atom_site_fract_z
_atom_type_partial_charge
Mg0 Mg 0.03145 0.08674 0.06596 0.0
C1 C 0.01628 0.05482 0.03901 0.0
O2 O 0.00389 0.06573 0.03656 0.0
C3 C 0.06355 0.09776 0.11151 0.0
O4 O 0.05554 0.09121 0.14593 0.0
C5 C 0.02858 0.0979 0.97141 0.0
O6 O 0.04454 0.09366 0.97485 0.0
O7 O 0.01946 0.09753 1.00661 0.0
O8 O 0.03068 0.05993 0.05196 0.0
O9 O 0.01876 0.09037 0.13039 0.0
C10 C 0.01442 0.1044 0.14736 0.0
O11 O 0.01622 0.1182 0.12367 0.0
O12 O 0.05679 0.09698 0.0728 0.0
Mg13 Mg 0.1611 0.77545 0.31654 0.0
C14 C 0.15605 0.76962 0.41291 0.0
O15 O 0.16079 0.7854 0.41037 0.0
C16 C 0.14365 0.77001 0.22383 0.0
O17 O 0.13613 0.78443 0.23138 0.0
C18 C 0.14796 0.81321 0.30663 0.0
O19 O 0.15308 0.81368 0.26469 0.0
O20 O 0.15018 0.80004 0.33002 0.0
O21 O 0.15495 0.76112 0.37675 0.0
O22 O 0.18838 0.77506 0.31077 0.0
C23 C 0.19415 0.76032 0.30454 0.0
O24 O 0.18352 0.74767 0.30422 0.0
O25 O 0.15295 0.76362 0.25416 0.0
Mg26 Mg 0.47506 0.90365 0.56824 0.0
C27 C 0.49237 0.93489 0.54275 0.0
O28 O 0.504 0.92337 0.53658 0.0
C29 C 0.43988 0.88799 0.56539 0.0
O30 O 0.44464 0.88337 0.52497 0.0
C31 C 0.47418 0.89951 0.47014 0.0
O32 O 0.46346 0.91175 0.47806 0.0
O33 O 0.48142 0.89251 0.50342 0.0
O34 O 0.47805 0.93041 0.5577 0.0
O35 O 0.49124 0.89689 0.62466 0.0
C36 C 0.48586 0.88656 0.65399 0.0
O37 O 0.47158 0.87869 0.6466 0.0
O38 O 0.44962 0.89713 0.58886 0.0
Mg39 Mg 0.34754 0.22904 0.79704 0.0
C40 C 0.36562 0.23835 0.88376 0.0
O41 O 0.37421 0.22475 0.87383 0.0
C42 C 0.36243 0.2329 0.70319 0.0
O43 O 0.36863 0.21797 0.71222 0.0
C44 C 0.3563 0.19388 0.83222 0.0
O45 O 0.34453 0.19719 0.862 0.0
O46 O 0.35929 0.20448 0.80127 0.0
O47 O 0.35442 0.24355 0.85646 0.0
O48 O 0.32022 0.22831 0.79444 0.0
C49 C 0.31349 0.24256 0.787 0.0
O50 O 0.32332 0.25576 0.78332 0.0
O51 O 0.35438 0.24077 0.73361 0.0
Mg52 Mg 0.027 0.90501 0.43746 0.0
C53 C 0.01004 0.93785 0.45236 0.0
O54 O 0.99714 0.92766 0.44784 0.0
C55 C 0.06212 0.88979 0.43897 0.0
O56 O 0.058 0.88704 0.48107 0.0
C57 C 0.00853 0.89269 0.52373 0.0
O58 O 0.99466 0.89601 0.50137 0.0
O59 O 0.02269 0.89416 0.50406 0.0
O60 O 0.02485 0.93193 0.44805 0.0
O61 O 0.01039 0.8986 0.38161 0.0
C62 C 0.01198 0.88493 0.35977 0.0
O63 O 0.02205 0.87321 0.37539 0.0
O64 O 0.05193 0.89779 0.41392 0.0
Mg65 Mg 0.34659 0.77381 0.70782 0.0
C66 C 0.36409 0.76468 0.62126 0.0
O67 O 0.37052 0.77966 0.62821 0.0
C68 C 0.3501 0.77382 0.80615 0.0
O69 O 0.3377 0.78439 0.79853 0.0
C70 C 0.36246 0.80869 0.7137 0.0
O71 O 0.36782 0.80304 0.75261 0.0
O72 O 0.35277 0.79956 0.69005 0.0
O73 O 0.35445 0.75836 0.65098 0.0
O74 O 0.31965 0.77041 0.7155 0.0
C75 C 0.31484 0.75596 0.72837 0.0
O76 O 0.32622 0.74422 0.73494 0.0
O77 O 0.35735 0.76698 0.77267 0.0
Mg78 Mg 0.47374 0.09 0.9378 0.0
C79 C 0.48758 0.0575 0.96279 0.0
O80 O 0.50024 0.06806 0.96626 0.0
C81 C 0.45052 0.11602 0.90757 0.0
O82 O 0.46561 0.12221 0.90009 0.0
C83 C 0.47446 0.09798 0.03357 0.0
O84 O 0.45981 0.09064 0.02729 0.0
O85 O 0.48388 0.10046 0.99962 0.0
O86 O 0.47337 0.06311 0.9498 0.0
O87 O 0.48863 0.09421 0.87719 0.0
C88 C 0.48051 0.0921 0.84072 0.0
O89 O 0.46463 0.0875 0.84293 0.0
O90 O 0.44932 0.1016 0.92564 0.0
Mg91 Mg 0.15831 0.21744 0.21858 0.0
C92 C 0.1408 0.2278 0.13107 0.0
O93 O 0.13079 0.21522 0.14113 0.0
C94 C 0.15004 0.21735 0.31422 0.0
O95 O 0.15924 0.2038 0.30822 0.0
C96 C 0.15176 0.18389 0.1711 0.0
O97 O 0.15971 0.19128 0.13782 0.0
O98 O 0.15039 0.1915 0.20852 0.0
O99 O 0.15237 0.23197 0.15853 0.0
O100 O 0.18499 0.22088 0.23241 0.0
C101 C 0.19539 0.22575 0.20265 0.0
O102 O 0.1904 0.22692 0.16069 0.0
O103 O 0.14646 0.2263 0.28011 0.0
Mg104 Mg 0.97636 0.90196 0.94394 0.0
C105 C 0.99809 0.89911 0.85781 0.0
O106 O 0.00654 0.91162 0.87574 0.0
C107 C 0.98056 0.88278 0.03332 0.0
O108 O 0.96657 0.87527 0.021 0.0
C109 C 0.94207 0.89515 0.90607 0.0
O110 O 0.9499 0.90087 0.87032 0.0
O111 O 0.94985 0.89503 0.94344 0.0
O112 O 0.9862 0.89235 0.88007 0.0
O113 O 0.98012 0.92903 0.94764 0.0
C114 C 0.99435 0.93378 0.96283 0.0
O115 O 0.00561 0.92231 0.97317 0.0
O116 O 0.98772 0.89291 1.0063 0.0
Mg117 Mg 0.83991 0.21827 0.71731 0.0
C118 C 0.80252 0.22511 0.70493 0.0
O119 O 0.8074 0.22853 0.66376 0.0
C120 C 0.84968 0.18439 0.67464 0.0
O121 O 0.83949 0.18918 0.64228 0.0
C122 C 0.85006 0.22013 0.81199 0.0
O123 O 0.84397 0.20486 0.80779 0.0
O124 O 0.85095 0.22937 0.77716 0.0
O125 O 0.81315 0.21916 0.73265 0.0
O126 O 0.8443 0.23249 0.65587 0.0
C127 C 0.85595 0.22866 0.62831 0.0
O128 O 0.86667 0.21672 0.63891 0.0
O129 O 0.85102 0.19346 0.70968 0.0
Mg130 Mg 0.53035 0.08644 0.43286 0.0
C131 C 0.52226 0.10279 0.34389 0.0
O132 O 0.53742 0.10887 0.35073 0.0
C133 C 0.52913 0.09217 0.53117 0.0
O134 O 0.54314 0.08357 0.52616 0.0
C135 C 0.56095 0.10814 0.44038 0.0
O136 O 0.55082 0.11557 0.46906 0.0
O137 O 0.55608 0.09472 0.42122 0.0
O138 O 0.51559 0.09357 0.37399 0.0
O139 O 0.52821 0.0595 0.44121 0.0
C140 C 0.51372 0.05468 0.45415 0.0
O141 O 0.50178 0.06597 0.45905 0.0
O142 O 0.5208 0.09625 0.49629 0.0
Mg143 Mg 0.65479 0.77303 0.206 0.0
C144 C 0.68708 0.75604 0.22738 0.0
O145 O 0.67607 0.74395 0.23379 0.0
C146 C 0.63689 0.80692 0.21074 0.0
O147 O 0.63064 0.80041 0.2477 0.0
C148 C 0.65091 0.77332 0.30414 0.0
O149 O 0.66259 0.78463 0.29612 0.0
O150 O 0.64419 0.76582 0.27088 0.0
O151 O 0.68183 0.77033 0.21427 0.0
O152 O 0.6475 0.75765 0.14833 0.0
C153 C 0.63762 0.76382 0.11894 0.0
O154 O 0.63058 0.77847 0.12676 0.0
O155 O 0.64786 0.79868 0.1887 0.0
Mg156 Mg 0.97504 0.09056 0.56211 0.0
C157 C 0.98084 0.09185 0.66031 0.0
O158 O 0.96564 0.08544 0.65668 0.0
C159 C 0.97857 0.10788 0.47099 0.0
O160 O 0.96316 0.11279 0.48026 0.0
C161 C 0.94952 0.11488 0.59353 0.0
O162 O 0.9638 0.12153 0.60703 0.0
O163 O 0.94994 0.10128 0.57109 0.0
O164 O 0.98885 0.09545 0.62449 0.0
O165 O 0.97504 0.06354 0.55232 0.0
C166 C 0.98969 0.05743 0.54634 0.0
O167 O 0.00272 0.06758 0.54874 0.0
O168 O 0.98682 0.09972 0.50047 0.0
Mg169 Mg 0.65206 0.22764 0.31372 0.0
C170 C 0.6852 0.24252 0.29762 0.0
O171 O 0.67482 0.25535 0.29533 0.0
C172 C 0.64329 0.18849 0.31215 0.0
O173 O 0.65266 0.18614 0.27631 0.0
C174 C 0.63706 0.22951 0.21943 0.0
O175 O 0.6348 0.21334 0.22574 0.0
O176 O 0.64265 0.23844 0.25159 0.0
O177 O 0.67921 0.22806 0.3064 0.0
O178 O 0.64581 0.24216 0.37349 0.0
C179 C 0.6471 0.2337 0.40962 0.0
O180 O 0.65241 0.21809 0.40715 0.0
O181 O 0.64167 0.20309 0.32885 0.0
Mg182 Mg 0.52465 0.90476 0.06817 0.0
C183 C 0.51327 0.8874 0.15302 0.0
O184 O 0.52751 0.87941 0.14587 0.0
C185 C 0.52592 0.90068 0.9699 0.0
O186 O 0.53709 0.91247 0.97815 0.0
C187 C 0.55905 0.88743 0.06675 0.0
O188 O 0.55387 0.88232 0.02713 0.0
O189 O 0.54989 0.8975 0.08921 0.0
O190 O 0.50815 0.89793 0.12386 0.0
O191 O 0.52221 0.9317 0.05896 0.0
C192 C 0.508 0.93675 0.04447 0.0
O193 O 0.49605 0.92564 0.03742 0.0
O194 O 0.51824 0.89401 1.00294 0.0
Mg195 Mg 0.83901 0.78136 0.81506 0.0
C196 C 0.80681 0.76502 0.79547 0.0
O197 O 0.81795 0.75284 0.79284 0.0
C198 C 0.84796 0.81479 0.85989 0.0
O199 O 0.8399 0.80811 0.89405 0.0
C200 C 0.84803 0.78047 0.71867 0.0
O201 O 0.84187 0.79568 0.72374 0.0
O202 O 0.8493 0.77107 0.7531 0.0
O203 O 0.81191 0.77971 0.80556 0.0
O204 O 0.84492 0.76691 0.87533 0.0
C205 C 0.85701 0.7706 0.90165 0.0
O206 O 0.86749 0.78265 0.89039 0.0
O207 O 0.84861 0.80681 0.82289 0.0
Mg208 Mg 0.52411 0.59362 0.55395 0.0
C209 C 0.50837 0.56079 0.5404 0.0
O210 O 0.49564 0.57132 0.54269 0.0
C211 C 0.55688 0.60365 0.59727 0.0
O212 O 0.54943 0.59634 0.63148 0.0
C213 C 0.51933 0.61283 0.46588 0.0
O214 O 0.53385 0.61946 0.47748 0.0
O215 O 0.51191 0.60297 0.4931 0.0
O216 O 0.52324 0.56654 0.54497 0.0
O217 O 0.51162 0.59845 0.61804 0.0
C218 C 0.51129 0.61257 0.63809 0.0
O219 O 0.51724 0.62593 0.61762 0.0
O220 O 0.54953 0.60368 0.55929 0.0
Mg221 Mg 0.65507 0.27971 0.8107 0.0
C222 C 0.65787 0.26703 0.90471 0.0
O223 O 0.6725 0.27439 0.89888 0.0
C224 C 0.64143 0.28097 0.71822 0.0
O225 O 0.64732 0.29627 0.72352 0.0
C226 C 0.6471 0.31289 0.8573 0.0
O227 O 0.65154 0.30423 0.8929 0.0
O228 O 0.6486 0.3062 0.81866 0.0
O229 O 0.64762 0.26645 0.8719 0.0
O230 O 0.68102 0.27375 0.79266 0.0
C231 C 0.69498 0.2788 0.80863 0.0
O232 O 0.69517 0.28999 0.84108 0.0
O233 O 0.64178 0.27095 0.75151 0.0
Mg234 Mg 0.97133 0.40786 0.07666 0.0
C235 C 0.98769 0.43974 0.06022 0.0
O236 O 0.99991 0.4286 0.06146 0.0
C237 C 0.94688 0.38269 0.10283 0.0
O238 O 0.96169 0.3755 0.10744 0.0
C239 C 0.97295 0.39803 0.98073 0.0
O240 O 0.95719 0.40287 0.98483 0.0
O241 O 0.9822 0.39766 0.01561 0.0
O242 O 0.97267 0.43477 0.06701 0.0
O243 O 0.98549 0.40212 0.13737 0.0
C244 C 0.97738 0.40452 0.1737 0.0
O245 O 0.96189 0.41028 0.17135 0.0
O246 O 0.94629 0.39756 0.08733 0.0
Mg247 Mg 0.84305 0.72521 0.31386 0.0
C248 C 0.85057 0.73086 0.40994 0.0
O249 O 0.84906 0.71447 0.40701 0.0
C250 C 0.8471 0.72706 0.21657 0.0
O251 O 0.83869 0.71311 0.2239 0.0
C252 C 0.87124 0.70181 0.31308 0.0
O253 O 0.8773 0.7159 0.29678 0.0
O254 O 0.85561 0.70109 0.32221 0.0
O255 O 0.8489 0.73961 0.3744 0.0
O256 O 0.81581 0.72455 0.3071 0.0
C257 C 0.80976 0.7389 0.29735 0.0
O258 O 0.82013 0.75172 0.29427 0.0
O259 O 0.85161 0.73583 0.25028 0.0
Mg260 Mg 0.52443 0.40829 0.94638 0.0
C261 C 0.51231 0.44381 0.93901 0.0
O262 O 0.5007 0.43584 0.91586 0.0
C263 C 0.55703 0.3977 0.90215 0.0
O264 O 0.54927 0.40403 0.86703 0.0
C265 C 0.50417 0.40785 0.03182 0.0
O266 O 0.50005 0.42256 0.01526 0.0
O267 O 0.51331 0.39808 0.00822 0.0
O268 O 0.52467 0.43548 0.95471 0.0
O269 O 0.5118 0.40318 0.88264 0.0
C270 C 0.50952 0.38881 0.86491 0.0
O271 O 0.51345 0.37523 0.88765 0.0
O272 O 0.54983 0.39832 0.94031 0.0
Mg273 Mg 0.84123 0.27473 0.21643 0.0
C274 C 0.85236 0.26901 0.1213 0.0
O275 O 0.85343 0.28541 0.1244 0.0
C276 C 0.84404 0.27188 0.31341 0.0
O277 O 0.83527 0.28562 0.3062 0.0
C278 C 0.84889 0.31232 0.1938 0.0
O279 O 0.8343 0.31257 0.17293 0.0
O280 O 0.85355 0.29906 0.21409 0.0
O281 O 0.84797 0.26064 0.15585 0.0
O282 O 0.81398 0.27527 0.2213 0.0
C283 C 0.80769 0.26082 0.22851 0.0
O284 O 0.81788 0.24781 0.23023 0.0
O285 O 0.84921 0.26354 0.2796 0.0
Mg286 Mg 0.98108 0.59603 0.45606 0.0
C287 C 0.99506 0.56286 0.47022 0.0
O288 O 0.00804 0.57303 0.46686 0.0
C289 C 0.95973 0.62381 0.43151 0.0
O290 O 0.97533 0.6293 0.42986 0.0
C291 C 0.98562 0.61453 0.54529 0.0
O292 O 0.97087 0.62089 0.53471 0.0
O293 O 0.99312 0.60502 0.5173 0.0
O294 O 0.98034 0.56898 0.46556 0.0
O295 O 0.99493 0.6005 0.39389 0.0
C296 C 0.98596 0.59821 0.35894 0.0
O297 O 0.97032 0.59313 0.36407 0.0
O298 O 0.95717 0.60887 0.44506 0.0
Mg299 Mg 0.65355 0.7221 0.70646 0.0
C300 C 0.63555 0.73378 0.62068 0.0
O301 O 0.6251 0.72158 0.63096 0.0
C302 C 0.64715 0.72154 0.80333 0.0
O303 O 0.65597 0.70786 0.79555 0.0
C304 C 0.64554 0.68926 0.65756 0.0
O305 O 0.65354 0.69671 0.62446 0.0
O306 O 0.64454 0.6966 0.69544 0.0
O307 O 0.64751 0.7373 0.64758 0.0
O308 O 0.68064 0.724 0.71571 0.0
C309 C 0.68566 0.73866 0.72639 0.0
O310 O 0.67445 0.75075 0.72981 0.0
O311 O 0.64319 0.73082 0.77015 0.0
Mg312 Mg 0.47223 0.40646 0.45105 0.0
C313 C 0.48354 0.39034 0.36131 0.0
O314 O 0.47541 0.37707 0.37607 0.0
C315 C 0.47701 0.38749 0.53926 0.0
O316 O 0.46173 0.3822 0.52992 0.0
C317 C 0.43908 0.3973 0.40742 0.0
O318 O 0.44598 0.40575 0.37429 0.0
O319 O 0.44691 0.39619 0.44459 0.0
O320 O 0.48498 0.40314 0.38668 0.0
O321 O 0.47275 0.43337 0.46316 0.0
C322 C 0.48757 0.4391 0.46885 0.0
O323 O 0.50034 0.42864 0.46605 0.0
O324 O 0.4848 0.39643 0.51052 0.0
Mg325 Mg 0.34822 0.72341 0.20933 0.0
C326 C 0.31598 0.73967 0.23047 0.0
O327 O 0.32692 0.75204 0.23214 0.0
C328 C 0.35578 0.69091 0.1588 0.0
O329 O 0.3474 0.69858 0.12671 0.0
C330 C 0.35571 0.72278 0.30569 0.0
O331 O 0.34703 0.70897 0.29871 0.0
O332 O 0.35915 0.7321 0.27219 0.0
O333 O 0.32122 0.72503 0.22043 0.0
O334 O 0.35371 0.73888 0.15075 0.0
C335 C 0.3656 0.73558 0.12344 0.0
O336 O 0.3762 0.72341 0.13299 0.0
O337 O 0.35722 0.69802 0.1969 0.0
Mg338 Mg 0.03138 0.58998 0.95224 0.0
C339 C 0.01734 0.60948 0.87085 0.0
O340 O 0.02239 0.62285 0.89298 0.0
C341 C 0.03094 0.60259 0.04566 0.0
O342 O 0.04678 0.59828 0.04001 0.0
C343 C 0.06407 0.5981 0.90568 0.0
O344 O 0.05548 0.59236 0.8712 0.0
O345 O 0.05737 0.59781 0.94446 0.0
O346 O 0.01868 0.59508 0.88898 0.0
O347 O 0.02862 0.56336 0.96503 0.0
C348 C 0.01361 0.55885 0.97391 0.0
O349 O 0.00163 0.57025 0.97328 0.0
O350 O 0.02097 0.60163 0.01223 0.0
Mg351 Mg 0.15556 0.2707 0.71665 0.0
C352 C 0.18936 0.25709 0.7328 0.0
O353 O 0.17943 0.24398 0.73704 0.0
C354 C 0.14706 0.30575 0.67832 0.0
O355 O 0.15888 0.30233 0.64878 0.0
C356 C 0.1515 0.26896 0.81409 0.0
O357 O 0.16038 0.28264 0.80707 0.0
O358 O 0.14676 0.2604 0.78023 0.0
O359 O 0.1828 0.27121 0.72299 0.0
O360 O 0.14962 0.25567 0.65735 0.0
C361 C 0.13899 0.26072 0.62829 0.0
O362 O 0.1303 0.27443 0.63634 0.0
O363 O 0.14405 0.29532 0.70965 0.0
Mg364 Mg 0.47673 0.59553 0.05299 0.0
C365 C 0.49032 0.61359 0.13753 0.0
O366 O 0.48549 0.62728 0.11653 0.0
C367 C 0.48209 0.61537 0.96618 0.0
O368 O 0.46776 0.62234 0.97808 0.0
C369 C 0.44406 0.60522 0.09667 0.0
O370 O 0.4514 0.59719 0.12991 0.0
O371 O 0.45148 0.60592 0.05885 0.0
O372 O 0.48908 0.59947 0.11774 0.0
O373 O 0.47694 0.56862 0.04109 0.0
C374 C 0.49134 0.56176 0.04523 0.0
O375 O 0.50407 0.57104 0.05868 0.0
O376 O 0.48923 0.60515 0.99298 0.0
Mg377 Mg 0.16054 0.7179 0.81557 0.0
C378 C 0.19278 0.73423 0.79566 0.0
O379 O 0.18174 0.74647 0.79219 0.0
C380 C 0.15219 0.68404 0.85693 0.0
O381 O 0.15951 0.69092 0.89195 0.0
C382 C 0.15038 0.71946 0.72 0.0
O383 O 0.15507 0.70372 0.72454 0.0
O384 O 0.15033 0.72889 0.75455 0.0
O385 O 0.18759 0.71967 0.80646 0.0
O386 O 0.15371 0.73081 0.87773 0.0
C387 C 0.16436 0.72963 0.90955 0.0
O388 O 0.17869 0.72189 0.90179 0.0
O389 O 0.15154 0.69218 0.82024 0.0
Mg390 Mg 0.02915 0.40977 0.57627 0.0
C391 C 0.023 0.40678 0.67376 0.0
O392 O 0.03872 0.41191 0.67168 0.0
C393 C 0.02704 0.39872 0.48133 0.0
O394 O 0.04306 0.40264 0.48509 0.0
C395 C 0.05266 0.38362 0.60336 0.0
O396 O 0.0376 0.37735 0.61088 0.0
O397 O 0.05376 0.3982 0.58616 0.0
O398 O 0.01487 0.40478 0.6373 0.0
O399 O 0.02885 0.43673 0.56516 0.0
C400 C 0.01409 0.4425 0.55874 0.0
O401 O 0.00126 0.4321 0.56115 0.0
O402 O 0.01773 0.39952 0.51606 0.0
Mg403 Mg 0.3449 0.27883 0.29136 0.0
C404 C 0.30518 0.27941 0.289 0.0
O405 O 0.30572 0.29133 0.31952 0.0
C406 C 0.35174 0.31117 0.34228 0.0
O407 O 0.34652 0.30186 0.3759 0.0
C408 C 0.35538 0.28093 0.19765 0.0
O409 O 0.34623 0.29446 0.20446 0.0
O410 O 0.35822 0.27123 0.2308 0.0
O411 O 0.31881 0.27325 0.27376 0.0
O412 O 0.3521 0.26532 0.35256 0.0
C413 C 0.34075 0.26414 0.3826 0.0
O414 O 0.32552 0.26949 0.37315 0.0
O415 O 0.35111 0.30521 0.30263 0.0
H416 H 0.01329 0.10094 0.68275 0.0
H417 H 0.99508 0.09941 0.94821 0.0
H418 H 0.96477 0.08989 0.7412 0.0
H419 H 0.04505 0.10184 0.89138 0.0
H420 H 0.98331 0.09992 0.87218 0.0
H421 H 0.02475 0.10494 0.75861 0.0
C422 C 0.00503 0.09943 0.71145 0.0
C423 C 0.98808 0.09494 0.70555 0.0
C424 C 0.99685 0.10048 0.87637 0.0
C425 C 0.00106 0.09959 0.79238 0.0
C426 C 0.00357 0.1003 0.91982 0.0
C427 C 0.02109 0.10047 0.92625 0.0
C428 C 0.0077 0.10092 0.83902 0.0
C429 C 0.03147 0.10156 0.88808 0.0
C430 C 0.01158 0.1017 0.75474 0.0
C431 C 0.97796 0.09319 0.74403 0.0
N432 N 0.02464 0.10165 0.84617 0.0
N433 N 0.9846 0.09549 0.78567 0.0
H434 H 0.18173 0.72287 0.98624 0.0
H435 H 0.12688 0.78085 0.14811 0.0
H436 H 0.13778 0.74932 0.93829 0.0
H437 H 0.16127 0.74258 0.19464 0.0
H438 H 0.13071 0.77057 0.071 0.0
H439 H 0.17499 0.73155 0.06247 0.0
C440 C 0.17066 0.73058 0.99168 0.0
C441 C 0.16033 0.7354 0.95568 0.0
C442 C 0.13725 0.76434 0.09824 0.0
C443 C 0.15249 0.74542 0.04349 0.0
C444 C 0.13505 0.77017 0.14228 0.0
C445 C 0.14385 0.76265 0.178 0.0
C446 C 0.14846 0.75104 0.08989 0.0
C447 C 0.15427 0.74885 0.16832 0.0
C448 C 0.16676 0.73545 0.03539 0.0
C449 C 0.1461 0.74532 0.96505 0.0
N450 N 0.15641 0.74364 0.12526 0.0
N451 N 0.14263 0.7501 0.00809 0.0
H452 H 0.48474 0.90363 0.1821 0.0
H453 H 0.49807 0.87715 0.4393 0.0
H454 H 0.52301 0.86874 0.22587 0.0
H455 H 0.45965 0.91152 0.39358 0.0
H456 H 0.50581 0.87178 0.36082 0.0
H457 H 0.47362 0.9044 0.25861 0.0
C458 C 0.49069 0.89597 0.20764 0.0
C459 C 0.50494 0.88622 0.19752 0.0
C460 C 0.49559 0.8804 0.36801 0.0
C461 C 0.49236 0.88718 0.28553 0.0
C462 C 0.49117 0.88345 0.41281 0.0
C463 C 0.47828 0.89491 0.42311 0.0
C464 C 0.48709 0.88887 0.33329 0.0
C465 C 0.46976 0.90269 0.38736 0.0
C466 C 0.48436 0.89644 0.25142 0.0
C467 C 0.51207 0.87652 0.23209 0.0
N468 N 0.47437 0.89961 0.34419 0.0
N469 N 0.50582 0.87737 0.27459 0.0
H470 H 0.32137 0.26879 0.45682 0.0
H471 H 0.3798 0.22076 0.63009 0.0
H472 H 0.36952 0.24884 0.41537 0.0
H473 H 0.34387 0.25883 0.66891 0.0
H474 H 0.37577 0.22875 0.55114 0.0
H475 H 0.32836 0.26243 0.53447 0.0
C476 C 0.33341 0.26295 0.46396 0.0
C477 C 0.34487 0.25931 0.42939 0.0
C478 C 0.36895 0.23545 0.57709 0.0
C479 C 0.35297 0.252 0.51881 0.0
C480 C 0.37124 0.23092 0.62212 0.0
C481 C 0.36208 0.23907 0.65622 0.0
C482 C 0.35721 0.24799 0.56614 0.0
C483 C 0.35118 0.25217 0.64389 0.0
C484 C 0.33744 0.25945 0.50847 0.0
C485 C 0.36032 0.25184 0.44099 0.0
N486 N 0.3489 0.25605 0.5999 0.0
N487 N 0.3639 0.24831 0.4848 0.0
H488 H 0.9769 0.88164 0.80185 0.0
H489 H 0.03476 0.89345 0.58368 0.0
H490 H 0.0251 0.90671 0.80408 0.0
H491 H 0.98095 0.88601 0.57671 0.0
H492 H 0.03309 0.89245 0.66568 0.0
H493 H 0.98003 0.87739 0.72071 0.0
C494 C 0.98827 0.88603 0.78546 0.0
C495 C 1.00074 0.89463 0.80986 0.0
C496 C 0.02168 0.89088 0.64617 0.0
C497 C 0.00436 0.88975 0.71696 0.0
C498 C 0.02261 0.89136 0.59929 0.0
C499 C 0.00794 0.88993 0.57311 0.0
C500 C 0.00599 0.88876 0.66722 0.0
C501 C 0.99257 0.88728 0.59545 0.0
C502 C 0.98998 0.88368 0.73909 0.0
C503 C 0.01513 0.9001 0.78665 0.0
N504 N 0.99199 0.88682 0.64118 0.0
N505 N 0.01654 0.8976 0.74155 0.0
H506 H 0.37355 0.75084 0.83614 0.0
H507 H 0.34654 0.76201 0.09366 0.0
H508 H 0.3372 0.78717 0.88322 0.0
H509 H 0.38491 0.72713 0.05027 0.0
H510 H 0.34459 0.7727 0.01706 0.0
H511 H 0.37939 0.74311 0.91439 0.0
C512 C 0.36689 0.75727 0.86286 0.0
C513 C 0.35477 0.76959 0.85303 0.0
C514 C 0.35355 0.7628 0.02428 0.0
C515 C 0.36137 0.7608 0.94253 0.0
C516 C 0.35469 0.75671 0.06813 0.0
C517 C 0.36583 0.74357 0.07845 0.0
C518 C 0.36352 0.75565 0.99023 0.0
C519 C 0.37612 0.73725 0.04389 0.0
C520 C 0.37023 0.75286 0.90753 0.0
C521 C 0.34656 0.77752 0.88906 0.0
N522 N 0.3746 0.74324 1.00124 0.0
N523 N 0.34993 0.77293 0.93205 0.0
H524 H 0.4575 0.09261 0.11205 0.0
H525 H 0.53486 0.1187 0.26964 0.0
H526 H 0.50479 0.11133 0.06087 0.0
H527 H 0.49103 0.09186 0.31678 0.0
H528 H 0.52243 0.11985 0.19463 0.0
H529 H 0.46805 0.09604 0.18841 0.0
C530 C 0.47007 0.09758 0.11682 0.0
C531 C 0.48033 0.10156 0.07986 0.0
C532 C 0.51548 0.11381 0.22144 0.0
C533 C 0.49251 0.10549 0.16758 0.0
C534 C 0.52254 0.11319 0.26439 0.0
C535 C 0.51403 0.10505 0.29959 0.0
C536 C 0.49976 0.10631 0.21356 0.0
C537 C 0.49809 0.09818 0.29067 0.0
C538 C 0.4761 0.0995 0.16053 0.0
C539 C 0.49648 0.10803 0.0883 0.0
N540 N 0.49152 0.0989 0.2485 0.0
N541 N 0.50211 0.10971 0.13128 0.0
H542 H 0.15383 0.23131 0.60091 0.0
H543 H 0.13257 0.24555 0.34118 0.0
H544 H 0.12216 0.27167 0.55343 0.0
H545 H 0.15747 0.20137 0.39284 0.0
H546 H 0.12769 0.25498 0.41855 0.0
H547 H 0.15439 0.21969 0.52494 0.0
C548 C 0.14686 0.23765 0.57462 0.0
C549 C 0.13801 0.25254 0.58359 0.0
C550 C 0.13409 0.24315 0.41288 0.0
C551 C 0.13874 0.23939 0.49622 0.0
C552 C 0.13687 0.23776 0.36871 0.0
C553 C 0.14554 0.2227 0.36043 0.0
C554 C 0.14012 0.23346 0.44898 0.0
C555 C 0.15081 0.21312 0.39749 0.0
C556 C 0.14719 0.23101 0.53117 0.0
C557 C 0.12918 0.26017 0.54811 0.0
N558 N 0.14814 0.21872 0.44001 0.0
N559 N 0.1299 0.25361 0.50593 0.0
H560 H 0.00632 0.85647 0.30972 0.0
H561 H 0.9998 0.90552 0.07909 0.0
H562 H 0.00326 0.91054 0.30325 0.0
H563 H 0.97383 0.85831 0.09603 0.0
H564 H 0.00639 0.90559 0.15937 0.0
H565 H 0.99866 0.85508 0.22968 0.0
C566 C 0.00387 0.86802 0.29164 0.0
C567 C 0.00537 0.88364 0.31328 0.0
C568 C 0.99933 0.89518 0.14541 0.0
C569 C 0.99717 0.88213 0.22176 0.0
C570 C 0.99569 0.89503 0.09953 0.0
C571 C 0.98624 0.88188 0.08077 0.0
C572 C 0.9938 0.88192 0.17273 0.0
C573 C 0.98112 0.86871 0.10914 0.0
C574 C 0.99953 0.8672 0.24606 0.0
C575 C 0.00212 0.89822 0.28813 0.0
N576 N 0.98505 0.86901 0.15373 0.0
N577 N 0.99842 0.89711 0.24362 0.0
H578 H 0.84921 0.23553 0.09939 0.0
H579 H 0.85949 0.25222 0.8353 0.0
H580 H 0.86105 0.28391 0.04205 0.0
H581 H 0.8488 0.2035 0.89222 0.0
H582 H 0.86244 0.26357 0.91129 0.0
H583 H 0.85122 0.22304 0.02432 0.0
C584 C 0.85237 0.2435 0.07114 0.0
C585 C 0.85485 0.26081 0.07705 0.0
C586 C 0.85959 0.25036 0.90715 0.0
C587 C 0.85708 0.24665 0.99101 0.0
C588 C 0.85794 0.24387 0.86372 0.0
C589 C 0.85376 0.22691 0.85732 0.0
C590 C 0.85699 0.23985 0.94448 0.0
C591 C 0.85192 0.21668 0.89549 0.0
C592 C 0.8535 0.23638 0.02826 0.0
C593 C 0.85894 0.27052 0.03916 0.0
N594 N 0.85342 0.22333 0.93736 0.0
N595 N 0.85981 0.26334 0.99782 0.0
H596 H 0.51425 0.09452 0.8201 0.0
H597 H 0.49755 0.10299 0.55522 0.0
H598 H 0.46479 0.09558 0.75994 0.0
H599 H 0.54559 0.08864 0.61131 0.0
H600 H 0.48615 0.10532 0.6314 0.0
H601 H 0.52671 0.0971 0.74487 0.0
C602 C 0.50603 0.09542 0.79117 0.0
C603 C 0.48847 0.09466 0.79626 0.0
C604 C 0.49923 0.10178 0.62701 0.0
C605 C 0.50258 0.09774 0.71039 0.0
C606 C 0.50576 0.10053 0.58353 0.0
C607 C 0.52251 0.09547 0.57685 0.0
C608 C 0.50954 0.09807 0.6641 0.0
C609 C 0.53256 0.09243 0.61486 0.0
C610 C 0.51313 0.09685 0.74829 0.0
C611 C 0.47839 0.09591 0.7576 0.0
N612 N 0.52591 0.09371 0.65683 0.0
N613 N 0.48558 0.09736 0.71639 0.0
H614 H 0.61584 0.72496 0.54859 0.0
H615 H 0.66297 0.78787 0.3806 0.0
H616 H 0.65443 0.76005 0.58903 0.0
H617 H 0.62896 0.74909 0.33531 0.0
H618 H 0.65731 0.77987 0.45804 0.0
H619 H 0.61775 0.73574 0.47174 0.0
C620 C 0.62456 0.73508 0.54151 0.0
C621 C 0.63506 0.74154 0.57538 0.0
C622 C 0.651 0.77312 0.43127 0.0
C623 C 0.63737 0.75386 0.48732 0.0
C624 C 0.65423 0.7777 0.38689 0.0
C625 C 0.64653 0.76906 0.35123 0.0
C626 C 0.63999 0.75977 0.44041 0.0
C627 C 0.63523 0.75605 0.3617 0.0
C628 C 0.62569 0.74117 0.49753 0.0
C629 C 0.64614 0.75461 0.56406 0.0
N630 N 0.63237 0.75174 0.40535 0.0
N631 N 0.64706 0.76026 0.52104 0.0
H632 H 0.96724 0.12837 0.40331 0.0
H633 H 0.01845 0.08051 0.21245 0.0
H634 H 0.00451 0.0904 0.43215 0.0
H635 H 0.99831 0.13025 0.19127 0.0
H636 H 0.01071 0.08246 0.29173 0.0
H637 H 0.97621 0.12821 0.32442 0.0
C638 C 0.97741 0.12013 0.39318 0.0
C639 C 0.98513 0.10938 0.42446 0.0
C640 C 0.00799 0.09296 0.26976 0.0
C641 C 0.99518 0.1089 0.33412 0.0
C642 C 0.01228 0.09181 0.22437 0.0
C643 C 0.00899 0.10524 0.19505 0.0
C644 C 1.00008 0.10752 0.28604 0.0
C645 C 0.0011 0.11961 0.21265 0.0
C646 C 0.98251 0.12005 0.34816 0.0
C647 C 0.99824 0.09895 0.40935 0.0
N648 N 0.99681 0.12034 0.25695 0.0
N649 N 0.00271 0.09883 0.36523 0.0
H650 H 0.6476 0.2605 0.19167 0.0
H651 H 0.63244 0.24526 0.92932 0.0
H652 H 0.62533 0.21459 0.14214 0.0
H653 H 0.67174 0.27668 0.98398 0.0
H654 H 0.62467 0.23699 1.00639 0.0
H655 H 0.65072 0.27024 0.11446 0.0
C656 C 0.64311 0.25256 0.16464 0.0
C657 C 0.63637 0.2366 0.17344 0.0
C658 C 0.63497 0.24571 1.00124 0.0
C659 C 0.64 0.2477 0.08483 0.0
C660 C 0.63939 0.25042 0.95744 0.0
C661 C 0.65285 0.26156 0.95026 0.0
C662 C 0.64382 0.25251 0.03786 0.0
C663 C 0.66141 0.26792 0.98784 0.0
C664 C 0.645 0.2581 0.12053 0.0
C665 C 0.63074 0.22691 0.13688 0.0
N666 N 0.65671 0.26338 0.02991 0.0
N667 N 0.63277 0.23257 0.09405 0.0
H668 H 0.47595 0.86781 0.72652 0.0
H669 H 0.54124 0.91203 0.89367 0.0
H670 H 0.51404 0.90312 0.68418 0.0
H671 H 0.5014 0.87915 0.93843 0.0
H672 H 0.53335 0.90636 0.81605 0.0
H673 H 0.48711 0.86913 0.80295 0.0
C674 C 0.4868 0.87569 0.7331 0.0
C675 C 0.49398 0.88549 0.69882 0.0
C676 C 0.52638 0.90028 0.84275 0.0
C677 C 0.50674 0.88714 0.78656 0.0
C678 C 0.53087 0.90352 0.88722 0.0
C679 C 0.52188 0.89616 0.92277 0.0
C680 C 0.51273 0.88962 0.83347 0.0
C681 C 0.50864 0.88516 0.91215 0.0
C682 C 0.49313 0.87647 0.77687 0.0
C683 C 0.50804 0.89541 0.70949 0.0
N684 N 0.50439 0.88231 0.86846 0.0
N685 N 0.51386 0.89608 0.75244 0.0
H686 H 0.84698 0.79768 0.63917 0.0
H687 H 0.85778 0.71513 0.48897 0.0
H688 H 0.85685 0.7484 0.69363 0.0
H689 H 0.84904 0.76438 0.43305 0.0
H690 H 0.85967 0.72757 0.56357 0.0
H691 H 0.84993 0.78624 0.56343 0.0
C692 C 0.84992 0.78447 0.63527 0.0
C693 C 0.85155 0.77396 0.67293 0.0
C694 C 0.85745 0.7357 0.53504 0.0
C695 C 0.85485 0.76076 0.58602 0.0
C696 C 0.85635 0.72861 0.49231 0.0
C697 C 0.8531 0.73871 0.45462 0.0
C698 C 0.85519 0.75308 0.54044 0.0
C699 C 0.8515 0.75611 0.46113 0.0
C700 C 0.85159 0.77795 0.59192 0.0
C701 C 0.85543 0.75697 0.66566 0.0
N702 N 0.85243 0.76272 0.50328 0.0
N703 N 0.85682 0.75088 0.62309 0.0
H704 H 0.50094 0.64084 0.18672 0.0
H705 H 0.49659 0.59289 0.42179 0.0
H706 H 0.49012 0.5879 0.19842 0.0
H707 H 0.52854 0.63616 0.40253 0.0
H708 H 0.48943 0.59358 0.34187 0.0
H709 H 0.50714 0.64169 0.26763 0.0
C710 C 0.49993 0.6294 0.20622 0.0
C711 C 0.4951 0.61426 0.1857 0.0
C712 C 0.49792 0.60298 0.35524 0.0
C713 C 0.50177 0.61525 0.27819 0.0
C714 C 0.50191 0.6027 0.40094 0.0
C715 C 0.51324 0.61447 0.41893 0.0
C716 C 0.50508 0.61527 0.32731 0.0
C717 C 0.51981 0.62681 0.39007 0.0
C718 C 0.50346 0.62991 0.25231 0.0
C719 C 0.49394 0.59982 0.21266 0.0
N720 N 0.51563 0.62691 0.34568 0.0
N721 N 0.49711 0.60071 0.2575 0.0
H722 H 0.64238 0.21682 0.48797 0.0
H723 H 0.63983 0.29904 0.64009 0.0
H724 H 0.64215 0.26691 0.43253 0.0
H725 H 0.63451 0.24867 0.69187 0.0
H726 H 0.63812 0.28791 0.56371 0.0
H727 H 0.63728 0.22852 0.56223 0.0
C728 C 0.6412 0.23032 0.49139 0.0
C729 C 0.64289 0.24092 0.45401 0.0
C730 C 0.63711 0.27932 0.59177 0.0
C731 C 0.63707 0.25447 0.53941 0.0
C732 C 0.63805 0.28566 0.63546 0.0
C733 C 0.63753 0.27474 0.67251 0.0
C734 C 0.63574 0.26192 0.58504 0.0
C735 C 0.6351 0.25755 0.66439 0.0
C736 C 0.63821 0.23699 0.5339 0.0
C737 C 0.64102 0.25829 0.46048 0.0
N738 N 0.63451 0.25166 0.62155 0.0
N739 N 0.63839 0.26455 0.50251 0.0
H740 H 0.98977 0.40006 0.69307 0.0
H741 H 0.00619 0.39366 0.95835 0.0
H742 H 0.03863 0.40527 0.75524 0.0
H743 H 0.95657 0.39739 0.8998 0.0
H744 H 0.01833 0.39359 0.88289 0.0
H745 H 0.97743 0.39519 0.76748 0.0
C746 C 0.99791 0.40011 0.72229 0.0
C747 C 0.01524 0.40322 0.71796 0.0
C748 C 0.00477 0.39429 0.88654 0.0
C749 C 0.00125 0.39756 0.803 0.0
C750 C 0.99782 0.39424 0.92965 0.0
C751 C 0.98034 0.39568 0.93546 0.0
C752 C 0.99417 0.39576 0.84892 0.0
C753 C 0.97013 0.39639 0.89694 0.0
C754 C 0.99086 0.39733 0.76473 0.0
C755 C 0.02519 0.40308 0.75696 0.0
N756 N 0.97719 0.39653 0.85533 0.0
N757 N 0.01805 0.40034 0.79777 0.0
H758 H 0.83689 0.71173 0.13933 0.0
H759 H 0.87622 0.78049 0.97363 0.0
H760 H 0.8646 0.75489 0.18682 0.0
H761 H 0.83955 0.74339 0.93333 0.0
H762 H 0.87531 0.76928 0.05023 0.0
H763 H 0.84094 0.72125 0.0624 0.0
C764 C 0.84391 0.7232 0.13364 0.0
C765 C 0.85033 0.73258 0.16976 0.0
C766 C 0.86755 0.76355 0.02453 0.0
C767 C 0.85503 0.74357 0.08119 0.0
C768 C 0.86812 0.76987 0.98071 0.0
C769 C 0.85789 0.76291 0.94696 0.0
C770 C 0.85678 0.75008 0.03461 0.0
C771 C 0.8476 0.74921 0.95823 0.0
C772 C 0.84618 0.72864 0.08956 0.0
C773 C 0.85936 0.74731 0.16005 0.0
N774 N 0.84729 0.74328 1.00105 0.0
N775 N 0.86142 0.75238 0.11666 0.0
H776 H 0.49151 0.42931 0.0945 0.0
H777 H 0.48529 0.36514 0.2979 0.0
H778 H 0.50837 0.37807 0.0786 0.0
H779 H 0.49246 0.41853 0.31476 0.0
H780 H 0.49043 0.36843 0.21685 0.0
H781 H 0.48752 0.42431 0.17439 0.0
C782 C 0.49424 0.41692 0.10766 0.0
C783 C 0.50034 0.4041 0.07962 0.0
C784 C 0.49101 0.37935 0.23852 0.0
C785 C 0.49578 0.39832 0.17171 0.0
C786 C 0.48809 0.3775 0.28472 0.0
C787 C 0.48842 0.39158 0.31326 0.0
C788 C 0.49391 0.39542 0.22075 0.0
C789 C 0.4921 0.4073 0.29424 0.0
C790 C 0.49207 0.41413 0.15347 0.0
C791 C 0.50368 0.38832 0.09897 0.0
N792 N 0.4945 0.4088 0.24925 0.0
N793 N 0.5013 0.38584 0.1439 0.0
H794 H 0.83261 0.28632 0.39064 0.0
H795 H 0.87493 0.2191 0.5556 0.0
H796 H 0.86248 0.24463 0.34289 0.0
H797 H 0.83725 0.25507 0.59683 0.0
H798 H 0.87324 0.23011 0.47893 0.0
H799 H 0.83685 0.27676 0.46744 0.0
C800 C 0.84013 0.27516 0.39626 0.0
C801 C 0.84714 0.26622 0.36011 0.0
C802 C 0.86542 0.23563 0.50484 0.0
C803 C 0.85207 0.25518 0.4485 0.0
C804 C 0.86643 0.22943 0.54869 0.0
C805 C 0.85618 0.23615 0.58275 0.0
C806 C 0.85416 0.24874 0.49501 0.0
C807 C 0.84535 0.24946 0.57169 0.0
C808 C 0.84252 0.26969 0.44025 0.0
C809 C 0.85678 0.25187 0.36969 0.0
N810 N 0.84461 0.25528 0.52883 0.0
N811 N 0.85895 0.24677 0.41301 0.0
H812 H 0.01678 0.58445 0.80826 0.0
H813 H 0.97641 0.63729 0.61015 0.0
H814 H 0.00678 0.63742 0.82427 0.0
H815 H 0.0088 0.59456 0.58725 0.0
H816 H 0.98444 0.63691 0.68984 0.0
H817 H 0.01023 0.58686 0.72842 0.0
C818 C 0.01305 0.59658 0.79509 0.0
C819 C 0.01229 0.61076 0.82306 0.0
C820 C 0.9899 0.62776 0.66716 0.0
C821 C 0.00478 0.61357 0.73148 0.0
C822 C 0.98534 0.62796 0.62175 0.0
C823 C 0.99193 0.61592 0.59199 0.0
C824 C 1.00081 0.61521 0.68301 0.0
C825 C 0.00344 0.60411 0.60887 0.0
C826 C 0.00946 0.59796 0.7494 0.0
C827 C 0.00753 0.62618 0.80389 0.0
N828 N 0.00733 0.60391 0.65332 0.0
N829 N 0.00384 0.62717 0.75926 0.0
H830 H 0.6205 0.77585 0.04583 0.0
H831 H 0.65485 0.70442 0.88009 0.0
H832 H 0.65132 0.73415 0.08877 0.0
H833 H 0.63068 0.74983 0.83391 0.0
H834 H 0.65037 0.71337 0.95749 0.0
H835 H 0.62076 0.76465 0.96942 0.0
C836 C 0.62717 0.76423 0.03938 0.0
C837 C 0.63601 0.756 0.07386 0.0
C838 C 0.64596 0.72135 0.9305 0.0
C839 C 0.6364 0.74314 0.98612 0.0
C840 C 0.64849 0.71625 0.88616 0.0
C841 C 0.64324 0.72645 0.85029 0.0
C842 C 0.63808 0.73679 0.93931 0.0
C843 C 0.635 0.74159 0.86045 0.0
C844 C 0.62735 0.75788 0.99561 0.0
C845 C 0.64439 0.74097 0.06331 0.0
N846 N 0.63275 0.74635 0.90402 0.0
N847 N 0.64445 0.73509 0.02037 0.0
H848 H 0.49655 0.3616 0.81953 0.0
H849 H 0.50225 0.40559 0.57909 0.0
H850 H 0.5114 0.41328 0.80086 0.0
H851 H 0.46675 0.36573 0.60537 0.0
H852 H 0.51048 0.40516 0.65826 0.0
H853 H 0.48961 0.35993 0.73908 0.0
C854 C 0.49831 0.37258 0.7986 0.0
C855 C 0.50446 0.38763 0.81703 0.0
C856 C 0.50098 0.39642 0.64658 0.0
C857 C 0.49696 0.38567 0.72512 0.0
C858 C 0.49637 0.39655 0.6013 0.0
C859 C 0.48373 0.38571 0.58554 0.0
C860 C 0.4931 0.38522 0.67632 0.0
C861 C 0.47649 0.37435 0.61611 0.0
C862 C 0.49436 0.37162 0.75279 0.0
C863 C 0.50654 0.40147 0.78827 0.0
N864 N 0.48128 0.37439 0.66007 0.0
N865 N 0.50293 0.40011 0.74379 0.0
H866 H 0.37211 0.75133 0.33432 0.0
H867 H 0.35195 0.73407 0.59349 0.0
H868 H 0.34881 0.70591 0.38338 0.0
H869 H 0.38022 0.77699 0.54693 0.0
H870 H 0.35224 0.72275 0.51714 0.0
H871 H 0.37667 0.76029 0.41215 0.0
C872 C 0.36808 0.74318 0.36139 0.0
C873 C 0.35995 0.7279 0.35224 0.0
C874 C 0.35852 0.73457 0.52369 0.0
C875 C 0.36503 0.73811 0.44138 0.0
C876 C 0.35839 0.74103 0.56736 0.0
C877 C 0.36596 0.75657 0.57666 0.0
C878 C 0.36617 0.74377 0.48891 0.0
C879 C 0.37415 0.765 0.54136 0.0
C880 C 0.37069 0.7483 0.40584 0.0
C881 C 0.35504 0.71784 0.38873 0.0
N882 N 0.37389 0.75858 0.49902 0.0
N883 N 0.35753 0.72317 0.43157 0.0
H884 H 0.04913 0.60657 0.12301 0.0
H885 H 0.9682 0.59881 0.28066 0.0
H886 H 0.99804 0.60542 0.07333 0.0
H887 H 0.01864 0.60466 0.33259 0.0
H888 H 0.97895 0.60271 0.20482 0.0
H889 H 0.0383 0.60774 0.19978 0.0
C890 C 0.03562 0.60677 0.12818 0.0
C891 C 0.02447 0.60575 0.0916 0.0
C892 C 0.9877 0.60324 0.23272 0.0
C893 C 0.012 0.60692 0.17961 0.0
C894 C 0.98158 0.60094 0.27616 0.0
C895 C 0.99257 0.60126 0.31312 0.0
C896 C 0.00501 0.60576 0.22586 0.0
C897 C 0.00973 0.60425 0.30508 0.0
C898 C 0.02945 0.60742 0.1721 0.0
C899 C 0.00711 0.60614 0.10043 0.0
N900 N 0.01545 0.60625 0.26226 0.0
N901 N 0.00142 0.60652 0.14352 0.0
H902 H 0.13333 0.24147 0.84293 0.0
H903 H 0.15785 0.2555 0.10099 0.0
H904 H 0.16172 0.28397 0.89182 0.0
H905 H 0.12276 0.2174 0.05748 0.0
H906 H 0.15899 0.26623 0.02426 0.0
H907 H 0.12897 0.23238 0.92086 0.0
C908 C 0.13857 0.24892 0.86997 0.0
C909 C 0.14796 0.26347 0.86074 0.0
C910 C 0.15092 0.2556 0.03149 0.0
C911 C 0.14309 0.25313 0.94986 0.0
C912 C 0.15025 0.24948 0.07539 0.0
C913 C 0.14022 0.2355 0.08575 0.0
C914 C 0.14163 0.24761 0.99743 0.0
C915 C 0.13065 0.22822 0.05109 0.0
C916 C 0.13606 0.24375 0.91444 0.0
C917 C 0.15444 0.27265 0.89718 0.0
N918 N 0.1317 0.23427 0.00841 0.0
N919 N 0.15196 0.26728 0.93996 0.0
H920 H 0.50918 0.58666 0.69797 0.0
H921 H 0.47392 0.63943 0.90377 0.0
H922 H 0.50274 0.64037 0.68816 0.0
H923 H 0.50341 0.59433 0.92081 0.0
H924 H 0.4812 0.63945 0.82354 0.0
H925 H 0.50321 0.58832 0.77839 0.0
C926 C 0.50635 0.5988 0.71261 0.0
C927 C 0.50644 0.6134 0.6862 0.0
C928 C 0.48619 0.62967 0.84504 0.0
C929 C 0.49958 0.61536 0.77844 0.0
C930 C 0.48207 0.62965 0.89079 0.0
C931 C 0.48807 0.61687 0.91911 0.0
C932 C 0.49605 0.6166 0.82734 0.0
C933 C 0.49855 0.60448 0.90038 0.0
C934 C 0.50309 0.59974 0.75862 0.0
C935 C 0.50282 0.6288 0.70725 0.0
N936 N 0.50202 0.60453 0.85563 0.0
N937 N 0.49942 0.62937 0.75212 0.0
H938 H 0.15286 0.78598 0.49282 0.0
H939 H 0.14869 0.70242 0.64025 0.0
H940 H 0.15113 0.73631 0.43472 0.0
H941 H 0.14603 0.75246 0.69582 0.0
H942 H 0.14766 0.71438 0.56474 0.0
H943 H 0.14867 0.77379 0.56694 0.0
C944 C 0.15154 0.77248 0.4956 0.0
C945 C 0.15249 0.76214 0.45745 0.0
C946 C 0.14714 0.72274 0.59342 0.0
C947 C 0.14772 0.74804 0.5427 0.0
C948 C 0.1477 0.71592 0.63662 0.0
C949 C 0.14759 0.72646 0.67451 0.0
C950 C 0.14656 0.74024 0.58797 0.0
C951 C 0.14621 0.74385 0.66766 0.0
C952 C 0.1491 0.76553 0.53805 0.0
C953 C 0.15053 0.74475 0.46322 0.0
N954 N 0.14592 0.75019 0.62525 0.0
N955 N 0.14838 0.73822 0.50513 0.0
H956 H 0.01042 0.3971 0.19367 0.0
H957 H 0.99368 0.39509 0.45928 0.0
H958 H 0.96162 0.404 0.25503 0.0
H959 H 0.04343 0.39618 0.40066 0.0
H960 H 0.98159 0.39408 0.38386 0.0
H961 H 0.02261 0.39283 0.26855 0.0
C962 C 0.00226 0.39762 0.22281 0.0
C963 C 0.98501 0.40107 0.21811 0.0
C964 C 0.99516 0.39441 0.38749 0.0
C965 C 0.99881 0.39613 0.30368 0.0
C966 C 0.00208 0.39491 0.4306 0.0
C967 C 0.0196 0.39589 0.43634 0.0
C968 C 0.00582 0.39486 0.34979 0.0
C969 C 0.02985 0.39558 0.39784 0.0
C970 C 0.00922 0.3952 0.26551 0.0
C971 C 0.97502 0.40155 0.25703 0.0
N972 N 0.02281 0.39522 0.35621 0.0
N973 N 0.98206 0.39916 0.29809 0.0
H974 H 0.34992 0.2988 0.12085 0.0
H975 H 0.38348 0.2267 0.95615 0.0
H976 H 0.37183 0.25244 0.16829 0.0
H977 H 0.35161 0.26775 0.91411 0.0
H978 H 0.38368 0.23822 0.03239 0.0
H979 H 0.35497 0.28983 0.04375 0.0
C980 C 0.35595 0.28678 0.11513 0.0
C981 C 0.3603 0.27627 0.15122 0.0
C982 C 0.37677 0.24476 1.00638 0.0
C983 C 0.36607 0.2659 0.0626 0.0
C984 C 0.37669 0.23825 0.96276 0.0
C985 C 0.3674 0.24621 0.92868 0.0
C986 C 0.36759 0.25941 0.01596 0.0
C987 C 0.35885 0.26112 0.93933 0.0
C988 C 0.35879 0.28165 0.07098 0.0
C989 C 0.36818 0.2609 0.14154 0.0
N990 N 0.35909 0.26719 0.98204 0.0
N991 N 0.37072 0.25611 0.09811 0.0
H992 H 0.98721 0.04102 1.00679 0.0
H993 H 0.02385 0.94753 0.99262 0.0
H994 H 0.03838 0.02815 0.04195 0.0
H995 H 0.97338 0.96102 0.95227 0.0
H996 H 0.02956 0.97696 0.0097 0.0
H997 H 0.9821 0.01186 0.98603 0.0
C998 C 0.99741 0.03206 0.01018 0.0
C999 C 0.01326 0.03707 0.02629 0.0
C1000 C 0.01725 0.97351 0.99697 0.0
C1001 C 0.00744 0.00351 1.00242 0.0
C1002 C 0.01396 0.95669 0.98716 0.0
C1003 C 0.99807 0.95176 0.97107 0.0
C1004 C 0.00455 0.98557 0.99082 0.0
C1005 C 0.9858 0.96422 0.96462 0.0
C1006 C 0.99446 0.01538 0.99822 0.0
C1007 C 0.02596 0.02486 0.02977 0.0
N1008 N 0.98928 0.98053 0.97468 0.0
N1009 N 0.02276 0.00864 0.01802 0.0
H1010 H 0.20954 0.73023 0.28878 0.0
H1011 H 0.30116 0.76971 0.25103 0.0
H1012 H 0.22001 0.78331 0.29911 0.0
H1013 H 0.2899 0.717 0.23479 0.0
H1014 H 0.27171 0.77488 0.27009 0.0
H1015 H 0.23906 0.72515 0.27096 0.0
C1016 C 0.21805 0.74084 0.28745 0.0
C1017 C 0.21225 0.75725 0.29543 0.0
C1018 C 0.27566 0.76219 0.26234 0.0
C1019 C 0.2462 0.75147 0.27483 0.0
C1020 C 0.29249 0.7592 0.25141 0.0
C1021 C 0.29804 0.74287 0.24125 0.0
C1022 C 0.26422 0.74875 0.26325 0.0
C1023 C 0.2862 0.72978 0.24232 0.0
C1024 C 0.23494 0.73791 0.27717 0.0
C1025 C 0.22392 0.77046 0.29322 0.0
N1026 N 0.26986 0.73301 0.25317 0.0
N1027 N 0.24034 0.76729 0.28306 0.0
H1028 H 0.48425 0.04103 0.48413 0.0
H1029 H 0.52171 0.94821 0.51052 0.0
H1030 H 0.5356 0.02791 0.45136 0.0
H1031 H 0.47082 0.96185 0.54661 0.0
H1032 H 0.527 0.97723 0.48823 0.0
H1033 H 0.47905 0.01199 0.50602 0.0
C1034 C 0.49444 0.03203 0.48138 0.0
C1035 C 0.5104 0.03693 0.46586 0.0
C1036 C 0.51468 0.9739 0.50107 0.0
C1037 C 0.50451 0.00359 0.49112 0.0
C1038 C 0.51165 0.95732 0.51388 0.0
C1039 C 0.49578 0.95258 0.53049 0.0
C1040 C 0.50176 0.98586 0.50479 0.0
C1041 C 0.48324 0.96493 0.53404 0.0
C1042 C 0.49145 0.01543 0.494 0.0
C1043 C 0.5231 0.0247 0.4631 0.0
N1044 N 0.4865 0.981 0.52123 0.0
N1045 N 0.51988 0.00859 0.47566 0.0
H1046 H 0.28909 0.21804 0.78988 0.0
H1047 H 0.2138 0.28154 0.7299 0.0
H1048 H 0.29591 0.27129 0.76921 0.0
H1049 H 0.20675 0.22849 0.7534 0.0
H1050 H 0.24398 0.27802 0.74394 0.0
H1051 H 0.25884 0.22159 0.77681 0.0
C1052 C 0.28423 0.23048 0.78273 0.0
C1053 C 0.29507 0.24438 0.78062 0.0
C1054 C 0.23582 0.26715 0.74601 0.0
C1055 C 0.26048 0.24854 0.76546 0.0
C1056 C 0.21859 0.26916 0.73793 0.0
C1057 C 0.20771 0.2553 0.74045 0.0
C1058 C 0.24224 0.25116 0.75666 0.0
C1059 C 0.21464 0.23954 0.75107 0.0
C1060 C 0.26696 0.2325 0.77521 0.0
C1061 C 0.28806 0.2602 0.77117 0.0
N1062 N 0.23143 0.23791 0.75877 0.0
N1063 N 0.27124 0.26183 0.76388 0.0
H1064 H 0.03372 0.96237 0.46738 0.0
H1065 H 0.96574 0.03295 0.53266 0.0
H1066 H 0.97999 0.95387 0.46654 0.0
H1067 H 0.0195 0.0412 0.5319 0.0
H1068 H 0.97061 0.00383 0.50931 0.0
H1069 H 0.02868 0.99134 0.49109 0.0
C1070 C 0.02086 0.9666 0.472 0.0
C1071 C 0.00727 0.95565 0.46493 0.0
C1072 C 0.98133 0.01202 0.51434 0.0
C1073 C 0.00139 0.98882 0.49235 0.0
C1074 C 0.97856 0.02864 0.52778 0.0
C1075 C 0.99222 0.03956 0.53421 0.0
C1076 C 0.99789 0.00629 0.50729 0.0
C1077 C 0.00856 0.03327 0.52731 0.0
C1078 C 0.01798 0.98315 0.48565 0.0
C1079 C 0.99087 0.96185 0.47156 0.0
N1080 N 0.01093 0.0171 0.51418 0.0
N1081 N 0.9884 0.97799 0.48494 0.0
H1082 H 0.20724 0.76381 0.76987 0.0
H1083 H 0.30066 0.7263 0.75526 0.0
H1084 H 0.21934 0.71208 0.79919 0.0
H1085 H 0.288 0.77758 0.72216 0.0
H1086 H 0.27103 0.72083 0.77166 0.0
H1087 H 0.23681 0.76905 0.75285 0.0
C1088 C 0.21612 0.75353 0.77281 0.0
C1089 C 0.21078 0.73747 0.78601 0.0
C1090 C 0.27472 0.73327 0.76075 0.0
C1091 C 0.24476 0.74341 0.76643 0.0
C1092 C 0.29165 0.73642 0.75134 0.0
C1093 C 0.29684 0.75244 0.73731 0.0
C1094 C 0.26285 0.74624 0.7562 0.0
C1095 C 0.28458 0.76504 0.73285 0.0
C1096 C 0.23303 0.75655 0.76301 0.0
C1097 C 0.22289 0.72466 0.78916 0.0
N1098 N 0.26817 0.76167 0.74233 0.0
N1099 N 0.23932 0.72792 0.77944 0.0
H1100 H 0.53016 0.96309 0.05148 0.0
H1101 H 0.46452 0.03168 0.95974 0.0
H1102 H 0.47901 0.95132 0.01353 0.0
H1103 H 0.51629 0.04257 0.99346 0.0
H1104 H 0.46927 0.00228 0.98064 0.0
H1105 H 0.52499 0.99247 0.03209 0.0
C1106 C 0.51783 0.96668 0.03919 0.0
C1107 C 0.50502 0.9547 0.03409 0.0
C1108 C 0.47958 0.01112 0.98343 0.0
C1109 C 0.499 0.98834 0.01168 0.0
C1110 C 0.47687 0.0279 0.97148 0.0
C1111 C 0.49002 0.03962 0.97477 0.0
C1112 C 0.49554 0.00604 0.99884 0.0
C1113 C 0.50577 0.03401 0.99028 0.0
C1114 C 0.51489 0.98347 0.02805 0.0
C1115 C 0.48928 0.9601 0.01797 0.0
N1116 N 0.50807 0.01766 1.00171 0.0
N1117 N 0.48672 0.97651 1.0073 0.0
H1118 H 0.20613 0.2342 0.28714 0.0
H1119 H 0.29872 0.26117 0.21316 0.0
H1120 H 0.22259 0.23272 0.14896 0.0
H1121 H 0.27472 0.28051 0.33258 0.0
H1122 H 0.27226 0.24751 0.19209 0.0
H1123 H 0.23278 0.24756 0.30783 0.0
C1124 C 0.21542 0.23651 0.2612 0.0
C1125 C 0.21211 0.23234 0.21618 0.0
C1126 C 0.27277 0.2548 0.22278 0.0
C1127 C 0.24262 0.24766 0.23975 0.0
C1128 C 0.28786 0.2626 0.23488 0.0
C1129 C 0.28892 0.27203 0.27468 0.0
C1130 C 0.2587 0.25618 0.25106 0.0
C1131 C 0.27444 0.27346 0.30148 0.0
C1132 C 0.23056 0.24426 0.27302 0.0
C1133 C 0.22459 0.23575 0.18402 0.0
N1134 N 0.25996 0.26549 0.28939 0.0
N1135 N 0.23931 0.24317 0.19644 0.0
H1136 H 0.79228 0.2301 0.79182 0.0
H1137 H 0.70018 0.26244 0.72916 0.0
H1138 H 0.77499 0.23402 0.65472 0.0
H1139 H 0.72566 0.27721 0.85102 0.0
H1140 H 0.72588 0.24828 0.70408 0.0
H1141 H 0.76601 0.24315 0.81715 0.0
C1142 C 0.78287 0.23347 0.76706 0.0
C1143 C 0.78586 0.23099 0.72101 0.0
C1144 C 0.72586 0.25467 0.73622 0.0
C1145 C 0.75582 0.24597 0.74989 0.0
C1146 C 0.7112 0.26274 0.75061 0.0
C1147 C 0.71079 0.27106 0.79222 0.0
C1148 C 0.74014 0.25463 0.76398 0.0
C1149 C 0.72546 0.27105 0.81858 0.0
C1150 C 0.76796 0.24106 0.78156 0.0
C1151 C 0.77324 0.23574 0.6905 0.0
N1152 N 0.73951 0.26284 0.80417 0.0
N1153 N 0.75876 0.24299 0.70548 0.0
H1154 H 0.70224 0.72681 0.25409 0.0
H1155 H 0.7939 0.76799 0.27396 0.0
H1156 H 0.71315 0.77861 0.22263 0.0
H1157 H 0.78422 0.71544 0.29871 0.0
H1158 H 0.76423 0.77205 0.25652 0.0
H1159 H 0.73199 0.72235 0.27148 0.0
C1160 C 0.71089 0.73725 0.25074 0.0
C1161 C 0.70517 0.75313 0.23687 0.0
C1162 C 0.76855 0.75962 0.26576 0.0
C1163 C 0.73928 0.74809 0.25692 0.0
C1164 C 0.78553 0.75728 0.27584 0.0
C1165 C 0.7916 0.74133 0.28785 0.0
C1166 C 0.75744 0.74593 0.26771 0.0
C1167 C 0.7801 0.72795 0.28964 0.0
C1168 C 0.72789 0.73468 0.2607 0.0
C1169 C 0.71698 0.76616 0.23315 0.0
N1170 N 0.76356 0.73055 0.27966 0.0
N1171 N 0.73345 0.76336 0.24319 0.0
H1172 H 0.71031 0.21876 0.29549 0.0
H1173 H 0.78278 0.28484 0.23149 0.0
H1174 H 0.70146 0.27189 0.27827 0.0
H1175 H 0.79111 0.2315 0.24561 0.0
H1176 H 0.75291 0.28044 0.24861 0.0
H1177 H 0.74008 0.22327 0.27795 0.0
C1178 C 0.71462 0.23138 0.28815 0.0
C1179 C 0.70336 0.24496 0.28835 0.0
C1180 C 0.76129 0.2697 0.24787 0.0
C1181 C 0.73741 0.25022 0.26809 0.0
C1182 C 0.77833 0.27221 0.23802 0.0
C1183 C 0.78947 0.25853 0.23713 0.0
C1184 C 0.75536 0.2534 0.25693 0.0
C1185 C 0.783 0.24244 0.24594 0.0
C1186 C 0.73162 0.23395 0.27805 0.0
C1187 C 0.70967 0.26103 0.2785 0.0
N1188 N 0.76641 0.24033 0.25552 0.0
N1189 N 0.72625 0.26321 0.26876 0.0
H1190 H 0.7125 0.71678 0.72496 0.0
H1191 H 0.78004 0.787 0.79617 0.0
H1192 H 0.69982 0.76872 0.74951 0.0
H1193 H 0.79261 0.73496 0.77266 0.0
H1194 H 0.75055 0.78059 0.77903 0.0
H1195 H 0.74199 0.72322 0.74191 0.0
C1196 C 0.71591 0.72953 0.73383 0.0
C1197 C 0.70365 0.74221 0.7358 0.0
C1198 C 0.75977 0.77057 0.77766 0.0
C1199 C 0.73737 0.74969 0.75534 0.0
C1200 C 0.77661 0.77423 0.78748 0.0
C1201 C 0.78883 0.76151 0.78588 0.0
C1202 C 0.75512 0.75407 0.76613 0.0
C1203 C 0.78365 0.74519 0.77435 0.0
C1204 C 0.73274 0.73321 0.74356 0.0
C1205 C 0.70881 0.75852 0.74755 0.0
N1206 N 0.76722 0.74195 0.76492 0.0
N1207 N 0.72525 0.76178 0.75687 0.0
H1208 H 0.478 0.54524 0.52892 0.0
H1209 H 0.51787 0.45453 0.48241 0.0
H1210 H 0.53146 0.53525 0.53051 0.0
H1211 H 0.46442 0.46457 0.4794 0.0
H1212 H 0.52302 0.48394 0.50057 0.0
H1213 H 0.47279 0.51575 0.51175 0.0
C1214 C 0.48867 0.53684 0.52576 0.0
C1215 C 0.50522 0.54277 0.53115 0.0
C1216 C 0.51016 0.47974 0.49593 0.0
C1217 C 0.49929 0.50886 0.51132 0.0
C1218 C 0.50718 0.46292 0.48551 0.0
C1219 C 0.49066 0.45704 0.47932 0.0
C1220 C 0.49653 0.49086 0.50027 0.0
C1221 C 0.47736 0.46854 0.48383 0.0
C1222 C 0.48567 0.51997 0.51589 0.0
C1223 C 0.51851 0.53125 0.52665 0.0
N1224 N 0.48059 0.4849 0.49405 0.0
N1225 N 0.51525 0.51486 0.51695 0.0
H1226 H 0.01852 0.45349 0.04339 0.0
H1227 H 0.98275 0.5456 0.99385 0.0
H1228 H 0.96572 0.46627 0.05116 0.0
H1229 H 0.03527 0.53212 0.98229 0.0
H1230 H 0.97628 0.51678 0.01571 0.0
H1231 H 0.02485 0.48237 0.02241 0.0
C1232 C 0.00823 0.46239 0.04082 0.0
C1233 C 0.99154 0.45743 0.04903 0.0
C1234 C 0.98921 0.52011 0.00836 0.0
C1235 C 0.99875 0.49062 0.02479 0.0
C1236 C 0.99294 0.53658 0.99582 0.0
C1237 C 0.0096 0.5413 0.98619 0.0
C1238 C 0.00224 0.50824 0.01139 0.0
C1239 C 0.02225 0.52905 0.98935 0.0
C1240 C 0.01188 0.4789 0.02874 0.0
C1241 C 0.97876 0.46954 0.04515 0.0
N1242 N 0.01831 0.51309 1.00172 0.0
N1243 N 0.98264 0.48558 0.03325 0.0
H1244 H 0.48544 0.46396 0.91876 0.0
H1245 H 0.51991 0.54312 0.05661 0.0
H1246 H 0.53293 0.46412 0.98951 0.0
H1247 H 0.46957 0.54022 1.00226 0.0
H1248 H 0.52535 0.51466 0.02976 0.0
H1249 H 0.48011 0.49249 0.9453 0.0
C1250 C 0.49482 0.47003 0.93961 0.0
C1251 C 0.50966 0.46159 0.95195 0.0
C1252 C 0.51309 0.52021 0.02383 0.0
C1253 C 0.50355 0.4943 0.98273 0.0
C1254 C 0.50995 0.53647 0.0392 0.0
C1255 C 0.49425 0.54409 0.03166 0.0
C1256 C 0.50048 0.51148 1.00041 0.0
C1257 C 0.48184 0.53484 0.00893 0.0
C1258 C 0.49171 0.48631 0.95495 0.0
C1259 C 0.52132 0.47012 0.97914 0.0
N1260 N 0.48525 0.51904 0.99393 0.0
N1261 N 0.518 0.48599 0.99365 0.0
H1262 H 0.98392 0.45815 0.54456 0.0
H1263 H 0.02511 0.54683 0.48209 0.0
H1264 H 0.0375 0.46748 0.54512 0.0
H1265 H 0.97144 0.5381 0.48488 0.0
H1266 H 0.02981 0.51773 0.50393 0.0
H1267 H 0.97911 0.48723 0.52228 0.0
C1268 C 0.9947 0.46632 0.54012 0.0
C1269 C 0.01117 0.46033 0.54674 0.0
C1270 C 0.017 0.52213 0.49973 0.0
C1271 C 0.00569 0.49374 0.52097 0.0
C1272 C 0.01428 0.53878 0.48715 0.0
C1273 C 0.99782 0.54496 0.48165 0.0
C1274 C 0.00318 0.51148 0.50694 0.0
C1275 C 0.98433 0.53389 0.4887 0.0
C1276 C 0.99192 0.48295 0.52733 0.0
C1277 C 0.0246 0.47154 0.54046 0.0
N1278 N 0.98731 0.51769 0.50105 0.0
N1279 N 0.02157 0.48769 0.52786 0.0
H1280 H 0.08331 0.11361 0.04861 0.0
H1281 H 0.13582 0.16406 0.23311 0.0
H1282 H 0.0793 0.10461 0.19123 0.0
H1283 H 0.14498 0.16845 0.09065 0.0
H1284 H 0.11653 0.14082 0.21827 0.0
H1285 H 0.10721 0.13229 0.06283 0.0
C1286 C 0.08755 0.11541 0.08287 0.0
C1287 C 0.07916 0.10763 0.1188 0.0
C1288 C 0.12289 0.14673 0.19025 0.0
C1289 C 0.10646 0.12911 0.13535 0.0
C1290 C 0.13393 0.16001 0.19872 0.0
C1291 C 0.14195 0.16832 0.16306 0.0
C1292 C 0.11966 0.1418 0.14572 0.0
C1293 C 0.13906 0.16245 0.1192 0.0
C1294 C 0.10121 0.12609 0.09097 0.0
C1295 C 0.08528 0.1104 0.16247 0.0
N1296 N 0.128 0.14969 0.11173 0.0
N1297 N 0.09842 0.12103 0.16952 0.0
H1298 H 0.1418 0.81897 0.39531 0.0
H1299 H 0.07279 0.88994 0.35106 0.0
H1300 H 0.13187 0.83935 0.2636 0.0
H1301 H 0.08602 0.8711 0.4824 0.0
H1302 H 0.096 0.87367 0.31874 0.0
H1303 H 0.12323 0.84001 0.42794 0.0
C1304 C 0.1358 0.82798 0.37321 0.0
C1305 C 0.13827 0.82727 0.32654 0.0
C1306 C 0.09394 0.87325 0.35468 0.0
C1307 C 0.11675 0.85143 0.36386 0.0
C1308 C 0.08069 0.88256 0.37321 0.0
C1309 C 0.07733 0.88177 0.41953 0.0
C1310 C 0.10385 0.86303 0.38263 0.0
C1311 C 0.08802 0.87201 0.44651 0.0
C1312 C 0.12519 0.84003 0.39193 0.0
C1313 C 0.13029 0.83941 0.29972 0.0
N1314 N 0.10067 0.86293 0.42762 0.0
N1315 N 0.11971 0.85088 0.31872 0.0
H1316 H 0.38233 0.83213 0.75535 0.0
H1317 H 0.41517 0.86944 0.52458 0.0
H1318 H 0.35993 0.8201 0.62712 0.0
H1319 H 0.43046 0.8887 0.65394 0.0
H1320 H 0.39303 0.8532 0.56148 0.0
H1321 H 0.39816 0.85477 0.7195 0.0
C1322 C 0.38055 0.8344 0.71979 0.0
C1323 C 0.36995 0.82406 0.69412 0.0
C1324 C 0.40106 0.86117 0.58175 0.0
C1325 C 0.3882 0.84982 0.65271 0.0
C1326 C 0.41373 0.87044 0.56067 0.0
C1327 C 0.42483 0.88028 0.58624 0.0
C1328 C 0.39963 0.86156 0.6288 0.0
C1329 C 0.42227 0.88119 0.63288 0.0
C1330 C 0.3896 0.84734 0.69931 0.0
C1331 C 0.36805 0.82767 0.64821 0.0
N1332 N 0.41011 0.87174 0.65272 0.0
N1333 N 0.37729 0.84008 0.62885 0.0
H1334 H 0.44935 0.14094 0.84559 0.0
H1335 H 0.35584 0.16985 0.89871 0.0
H1336 H 0.41763 0.1129 0.93631 0.0
H1337 H 0.3836 0.18544 0.78113 0.0
H1338 H 0.37773 0.14888 0.91423 0.0
H1339 H 0.42513 0.15769 0.82332 0.0
C1340 C 0.43724 0.13829 0.86084 0.0
C1341 C 0.43552 0.12558 0.8931 0.0
C1342 C 0.37887 0.15676 0.88474 0.0
C1343 C 0.40762 0.14484 0.86777 0.0
C1344 C 0.36639 0.16873 0.87582 0.0
C1345 C 0.36796 0.17957 0.83882 0.0
C1346 C 0.39307 0.15578 0.8567 0.0
C1347 C 0.38189 0.17749 0.81027 0.0
C1348 C 0.42337 0.14781 0.84788 0.0
C1349 C 0.41948 0.1226 0.91134 0.0
N1350 N 0.39397 0.16601 0.82013 0.0
N1351 N 0.40614 0.13232 0.89879 0.0
H1352 H 0.8638 0.83362 0.79558 0.0
H1353 H 0.92259 0.88074 0.97199 0.0
H1354 H 0.85671 0.83014 0.93906 0.0
H1355 H 0.92388 0.89013 0.82918 0.0
H1356 H 0.89717 0.86381 0.96139 0.0
H1357 H 0.88443 0.85591 0.80758 0.0
C1358 C 0.86643 0.83768 0.82961 0.0
C1359 C 0.85861 0.82989 0.86638 0.0
C1360 C 0.9029 0.86974 0.93245 0.0
C1361 C 0.88242 0.85531 0.88045 0.0
C1362 C 0.91742 0.87943 0.93849 0.0
C1363 C 0.9255 0.88674 0.90137 0.0
C1364 C 0.89649 0.86723 0.88894 0.0
C1365 C 0.91818 0.88464 0.85877 0.0
C1366 C 0.87823 0.85043 0.83646 0.0
C1367 C 0.86245 0.83575 0.9097 0.0
N1368 N 0.90422 0.87494 0.85368 0.0
N1369 N 0.87425 0.84796 0.91557 0.0
H1370 H 0.91808 0.11107 0.55532 0.0
H1371 H 0.87463 0.1737 0.73112 0.0
H1372 H 0.94431 0.13672 0.66223 0.0
H1373 H 0.85321 0.1641 0.60022 0.0
H1374 H 0.8977 0.15462 0.71335 0.0
H1375 H 0.89194 0.12555 0.5777 0.0
C1376 C 0.91831 0.11964 0.58358 0.0
C1377 C 0.9334 0.12283 0.6067 0.0
C1378 C 0.88787 0.15657 0.68865 0.0
C1379 C 0.90368 0.1391 0.63276 0.0
C1380 C 0.87462 0.1674 0.69884 0.0
C1381 C 0.86204 0.17071 0.66688 0.0
C1382 C 0.88858 0.14886 0.64626 0.0
C1383 C 0.8627 0.16204 0.62574 0.0
C1384 C 0.90344 0.12789 0.59625 0.0
C1385 C 0.93302 0.13403 0.6431 0.0
N1386 N 0.87585 0.1516 0.61642 0.0
N1387 N 0.91843 0.14171 0.65501 0.0
H1388 H 0.63112 0.18759 0.3973 0.0
H1389 H 0.5801 0.10208 0.365 0.0
H1390 H 0.63499 0.15742 0.27718 0.0
H1391 H 0.57687 0.13422 0.48154 0.0
H1392 H 0.60298 0.11971 0.33591 0.0
H1393 H 0.61412 0.16586 0.43191 0.0
C1394 C 0.62843 0.17632 0.37817 0.0
C1395 C 0.63429 0.17443 0.33398 0.0
C1396 C 0.5974 0.12275 0.36811 0.0
C1397 C 0.61458 0.14937 0.37359 0.0
C1398 C 0.5844 0.11266 0.38485 0.0
C1399 C 0.57645 0.11682 0.42555 0.0
C1400 C 0.60246 0.13703 0.39237 0.0
C1401 C 0.58249 0.13066 0.44978 0.0
C1402 C 0.61872 0.16386 0.39808 0.0
C1403 C 0.63063 0.15941 0.31123 0.0
N1404 N 0.59501 0.14031 0.43266 0.0
N1405 N 0.6208 0.14751 0.33112 0.0
H1406 H 0.56848 0.88853 0.1553 0.0
H1407 H 0.64059 0.81918 0.12527 0.0
H1408 H 0.58315 0.86774 0.02712 0.0
H1409 H 0.61537 0.82923 0.25098 0.0
H1410 H 0.6244 0.84181 0.0903 0.0
H1411 H 0.59039 0.87174 0.1916 0.0
C1412 C 0.57649 0.88066 0.13465 0.0
C1413 C 0.57384 0.87939 0.0881 0.0
C1414 C 0.62257 0.83919 0.12567 0.0
C1415 C 0.59892 0.86014 0.12955 0.0
C1416 C 0.63187 0.82633 0.14575 0.0
C1417 C 0.62919 0.82217 0.19105 0.0
C1418 C 0.61062 0.84805 0.15111 0.0
C1419 C 0.61771 0.83188 0.21586 0.0
C1420 C 0.58894 0.87102 0.15546 0.0
C1421 C 0.58462 0.86897 0.06313 0.0
N1422 N 0.60876 0.84429 0.19549 0.0
N1423 N 0.59661 0.85966 0.0842 0.0
H1424 H 0.57584 0.62044 0.53446 0.0
H1425 H 0.62973 0.66915 0.71916 0.0
H1426 H 0.57347 0.60948 0.67635 0.0
H1427 H 0.63816 0.67451 0.57661 0.0
H1428 H 0.6103 0.64607 0.70389 0.0
H1429 H 0.59977 0.63908 0.5486 0.0
C1430 C 0.58045 0.62181 0.56852 0.0
C1431 C 0.57252 0.61348 0.60431 0.0
C1432 C 0.61653 0.65216 0.67593 0.0
C1433 C 0.59984 0.63491 0.62079 0.0
C1434 C 0.62765 0.66535 0.68465 0.0
C1435 C 0.63551 0.67388 0.64911 0.0
C1436 C 0.61307 0.64754 0.6313 0.0
C1437 C 0.63237 0.66833 0.60508 0.0
C1438 C 0.59413 0.63245 0.57657 0.0
C1439 C 0.5791 0.6157 0.64772 0.0
N1440 N 0.62124 0.65565 0.59739 0.0
N1441 N 0.59225 0.62632 0.65477 0.0
H1442 H 0.57686 0.38356 0.96746 0.0
H1443 H 0.63325 0.33286 0.79171 0.0
H1444 H 0.57366 0.39041 0.82384 0.0
H1445 H 0.63881 0.32892 0.93562 0.0
H1446 H 0.61366 0.35621 0.80267 0.0
H1447 H 0.60155 0.36571 0.95655 0.0
C1448 C 0.58144 0.38145 0.93364 0.0
C1449 C 0.57305 0.38837 0.89649 0.0
C1450 C 0.61933 0.35038 0.83184 0.0
C1451 C 0.6013 0.3678 0.88369 0.0
C1452 C 0.63057 0.33706 0.82559 0.0
C1453 C 0.63754 0.32875 0.86282 0.0
C1454 C 0.61495 0.35537 0.87562 0.0
C1455 C 0.63364 0.33482 0.90591 0.0
C1456 C 0.59556 0.37125 0.92742 0.0
C1457 C 0.57964 0.38526 0.85347 0.0
N1458 N 0.62245 0.3476 0.91113 0.0
N1459 N 0.59326 0.37507 0.84823 0.0
H1460 H 0.84729 0.33932 0.13588 0.0
H1461 H 0.94564 0.35545 0.15734 0.0
H1462 H 0.87925 0.31597 0.23526 0.0
H1463 H 0.91346 0.39002 0.0858 0.0
H1464 H 0.9209 0.34067 0.18428 0.0
H1465 H 0.87051 0.35841 0.11656 0.0
C1466 C 0.85905 0.33839 0.15416 0.0
C1467 C 0.8614 0.32586 0.1868 0.0
C1468 C 0.91916 0.35154 0.16289 0.0
C1469 C 0.88795 0.34742 0.16447 0.0
C1470 C 0.93333 0.35994 0.14718 0.0
C1471 C 0.93163 0.37394 0.11901 0.0
C1472 C 0.90305 0.35697 0.14998 0.0
C1473 C 0.91531 0.37925 0.10741 0.0
C1474 C 0.87229 0.34925 0.14301 0.0
C1475 C 0.8769 0.32525 0.20942 0.0
N1476 N 0.9016 0.37064 0.12263 0.0
N1477 N 0.8896 0.3357 0.19746 0.0
H1478 H 0.9629 0.6539 0.38969 0.0
H1479 H 0.86486 0.67315 0.36269 0.0
H1480 H 0.92528 0.61818 0.43269 0.0
H1481 H 0.90457 0.69959 0.2933 0.0
H1482 H 0.88588 0.65298 0.39076 0.0
H1483 H 0.94089 0.67135 0.35814 0.0
C1484 C 0.94996 0.64972 0.39269 0.0
C1485 C 0.94596 0.63453 0.41399 0.0
C1486 C 0.88989 0.66312 0.36901 0.0
C1487 C 0.92046 0.65461 0.37741 0.0
C1488 C 0.87792 0.67459 0.35288 0.0
C1489 C 0.88299 0.68818 0.32591 0.0
C1490 C 0.90698 0.66538 0.35826 0.0
C1491 C 0.90006 0.68945 0.31433 0.0
C1492 C 0.93735 0.65969 0.37434 0.0
C1493 C 0.92892 0.62981 0.41656 0.0
N1494 N 0.9114 0.67832 0.33083 0.0
N1495 N 0.91673 0.63988 0.3986 0.0
H1496 H 0.36579 0.33309 0.28157 0.0
H1497 H 0.42062 0.37935 0.46881 0.0
H1498 H 0.3593 0.32507 0.42397 0.0
H1499 H 0.42205 0.39269 0.3283 0.0
H1500 H 0.39672 0.36086 0.45355 0.0
H1501 H 0.38477 0.35648 0.29818 0.0
C1502 C 0.36815 0.33638 0.31632 0.0
C1503 C 0.36106 0.32696 0.35141 0.0
C1504 C 0.40214 0.36797 0.42612 0.0
C1505 C 0.38297 0.35361 0.37067 0.0
C1506 C 0.41581 0.37853 0.43482 0.0
C1507 C 0.42346 0.3875 0.39973 0.0
C1508 C 0.39615 0.3662 0.38191 0.0
C1509 C 0.41661 0.38597 0.35639 0.0
C1510 C 0.37902 0.34974 0.3258 0.0
C1511 C 0.36455 0.33187 0.39579 0.0
N1512 N 0.40348 0.37539 0.34863 0.0
N1513 N 0.37541 0.34471 0.40413 0.0
H1514 H 0.36208 0.67659 0.07668 0.0
H1515 H 0.4273 0.6095 0.17619 0.0
H1516 H 0.37227 0.67041 0.21818 0.0
H1517 H 0.42533 0.62335 0.03606 0.0
H1518 H 0.40344 0.62807 0.1909 0.0
H1519 H 0.38144 0.65344 0.06042 0.0
C1520 C 0.36819 0.67022 0.1044 0.0
C1521 C 0.36565 0.67556 0.14887 0.0
C1522 C 0.40814 0.62694 0.15686 0.0
C1523 C 0.38786 0.64909 0.13041 0.0
C1524 C 0.42175 0.6163 0.14837 0.0
C1525 C 0.42845 0.61498 0.10486 0.0
C1526 C 0.4011 0.63632 0.1216 0.0
C1527 C 0.42066 0.62407 0.07018 0.0
C1528 C 0.3793 0.65705 0.09504 0.0
C1529 C 0.37394 0.66682 0.18337 0.0
N1530 N 0.40746 0.63444 0.07935 0.0
N1531 N 0.38474 0.6541 0.1734 0.0
H1532 H 0.08559 0.61074 0.96927 0.0
H1533 H 0.13587 0.66599 0.79161 0.0
H1534 H 0.07914 0.60611 0.82576 0.0
H1535 H 0.14667 0.66598 0.93378 0.0
H1536 H 0.11708 0.64205 0.80261 0.0
H1537 H 0.10993 0.62886 0.95646 0.0
C1538 C 0.08941 0.61336 0.93505 0.0
C1539 C 0.08018 0.60706 0.89853 0.0
C1540 C 0.12372 0.64715 0.83133 0.0
C1541 C 0.10795 0.62795 0.88361 0.0
C1542 C 0.13446 0.66083 0.82506 0.0
C1543 C 0.14269 0.66815 0.86192 0.0
C1544 C 0.12107 0.64082 0.87482 0.0
C1545 C 0.14048 0.66084 0.90443 0.0
C1546 C 0.10333 0.62372 0.92775 0.0
C1547 C 0.0858 0.61078 0.85494 0.0
N1548 N 0.12971 0.64773 0.9098 0.0
N1549 N 0.09919 0.62116 0.8487 0.0
H1550 H 0.05398 0.35853 0.6647 0.0
H1551 H 0.14733 0.32939 0.61067 0.0
H1552 H 0.08551 0.38678 0.57399 0.0
H1553 H 0.11994 0.31457 0.72957 0.0
H1554 H 0.1254 0.35034 0.59482 0.0
H1555 H 0.07824 0.34175 0.6864 0.0
C1556 C 0.06605 0.36121 0.64931 0.0
C1557 C 0.06771 0.374 0.61726 0.0
C1558 C 0.12436 0.34262 0.62465 0.0
C1559 C 0.09567 0.3547 0.64196 0.0
C1560 C 0.13685 0.33067 0.63375 0.0
C1561 C 0.13539 0.32005 0.67126 0.0
C1562 C 0.11026 0.34379 0.653 0.0
C1563 C 0.12156 0.32233 0.70004 0.0
C1564 C 0.07995 0.35167 0.66195 0.0
C1565 C 0.08372 0.37701 0.59882 0.0
N1566 N 0.10947 0.33378 0.69 0.0
N1567 N 0.0971 0.36728 0.61107 0.0
loop_
_geom_bond_atom_site_label_1
_geom_bond_atom_site_label_2
_geom_bond_distance
_geom_bond_site_symmetry_2
_ccdc_geom_bond_type
Mg0 O7 2.141 1_554 S
Mg0 O8 2.048 . S
Mg0 O9 2.048 . S
Mg0 O12 2.141 . S
C1 O2 1.313 . S
C1 O8 1.195 1_655 S
O2 C1 1.313 . S
C3 O4 1.245 . S
C3 O12 1.289 . S
O4 C3 1.245 . S
C5 O6 1.245 1_455 S
C5 O7 1.289 . S
O6 C5 1.245 1_655 S
O7 Mg0 2.141 1_556 S
O7 C5 1.289 . S
O8 Mg0 2.048 . S
O8 C1 1.195 1_455 S
O9 Mg0 2.048 . S
O9 C10 1.195 . S
C10 O9 1.195 . S
C10 O11 1.313 1_455 S
O11 C10 1.313 1_655 S
O12 Mg0 2.141 . S
O12 C3 1.289 . S
Mg13 O20 2.141 . S
Mg13 O21 2.048 . S
Mg13 O22 2.048 . S
Mg13 O25 2.141 . S
C14 O15 1.313 . S
C14 O21 1.195 . S
O15 C14 1.313 . S
C16 O17 1.245 . S
C16 O25 1.289 . S
O17 C16 1.245 . S
C18 O19 1.245 . S
C18 O20 1.289 . S
O19 C18 1.245 . S
O20 Mg13 2.141 . S
O20 C18 1.289 . S
O21 Mg13 2.048 . S
O21 C14 1.195 . S
O22 Mg13 2.048 . S
O22 C23 1.195 . S
C23 O22 1.195 . S
C23 O24 1.313 . S
O24 C23 1.313 . S
O25 Mg13 2.141 . S
O25 C16 1.289 . S
Mg26 O33 2.141 . S
Mg26 O34 2.048 . S
Mg26 O35 2.048 . S
Mg26 O38 2.141 . S
C27 O28 1.313 . S
C27 O34 1.195 . S
O28 C27 1.313 . S
C29 O30 1.245 . S
C29 O38 1.289 . S
O30 C29 1.245 . S
C31 O32 1.245 . S
C31 O33 1.289 . S
O32 C31 1.245 . S
O33 Mg26 2.141 . S
O33 C31 1.289 . S
O34 Mg26 2.048 . S
O34 C27 1.195 . S
O35 Mg26 2.048 . S
O35 C36 1.195 . S
C36 O35 1.195 . S
C36 O37 1.313 . S
O37 C36 1.313 . S
O38 Mg26 2.141 . S
O38 C29 1.289 . S
Mg39 O46 2.141 . S
Mg39 O47 2.048 . S
Mg39 O48 2.048 . S
Mg39 O51 2.141 . S
C40 O41 1.313 . S
C40 O47 1.195 . S
O41 C40 1.313 . S
C42 O43 1.245 . S
C42 O51 1.289 . S
O43 C42 1.245 . S
C44 O45 1.245 . S
C44 O46 1.289 . S
O45 C44 1.245 . S
O46 Mg39 2.141 . S
O46 C44 1.289 . S
O47 Mg39 2.048 . S
O47 C40 1.195 . S
O48 Mg39 2.048 . S
O48 C49 1.195 . S
C49 O48 1.195 . S
C49 O50 1.313 . S
O50 C49 1.313 . S
O51 Mg39 2.141 . S
O51 C42 1.289 . S
Mg52 O59 2.141 . S
Mg52 O60 2.048 . S
Mg52 O61 2.048 . S
Mg52 O64 2.141 . S
C53 O54 1.313 . S
C53 O60 1.195 1_655 S
O54 C53 1.313 . S
C55 O56 1.245 . S
C55 O64 1.289 . S
O56 C55 1.245 . S
C57 O58 1.245 1_455 S
C57 O59 1.289 . S
O58 C57 1.245 1_655 S
O59 Mg52 2.141 . S
O59 C57 1.289 . S
O60 Mg52 2.048 . S
O60 C53 1.195 1_455 S
O61 Mg52 2.048 . S
O61 C62 1.195 . S
C62 O61 1.195 . S
C62 O63 1.313 1_455 S
O63 C62 1.313 1_655 S
O64 Mg52 2.141 . S
O64 C55 1.289 . S
Mg65 O72 2.141 . S
Mg65 O73 2.048 . S
Mg65 O74 2.048 . S
Mg65 O77 2.141 . S
C66 O67 1.313 . S
C66 O73 1.195 . S
O67 C66 1.313 . S
C68 O69 1.245 . S
C68 O77 1.289 . S
O69 C68 1.245 . S
C70 O71 1.245 . S
C70 O72 1.289 . S
O71 C70 1.245 . S
O72 Mg65 2.141 . S
O72 C70 1.289 . S
O73 Mg65 2.048 . S
O73 C66 1.195 . S
O74 Mg65 2.048 . S
O74 C75 1.195 . S
C75 O74 1.195 . S
C75 O76 1.313 . S
O76 C75 1.313 . S
O77 Mg65 2.141 . S
O77 C68 1.289 . S
Mg78 O85 2.141 1_556 S
Mg78 O86 2.048 . S
Mg78 O87 2.048 . S
Mg78 O90 2.141 . S
C79 O80 1.313 . S
C79 O86 1.195 . S
O80 C79 1.313 . S
C81 O82 1.245 . S
C81 O90 1.289 . S
O82 C81 1.245 . S
C83 O84 1.245 . S
C83 O85 1.289 . S
O84 C83 1.245 . S
O85 Mg78 2.141 1_554 S
O85 C83 1.289 . S
O86 Mg78 2.048 . S
O86 C79 1.195 . S
O87 Mg78 2.048 . S
O87 C88 1.195 . S
C88 O87 1.195 . S
C88 O89 1.313 . S
O89 C88 1.313 . S
O90 Mg78 2.141 . S
O90 C81 1.289 . S
Mg91 O98 2.141 . S
Mg91 O99 2.048 . S
Mg91 O100 2.048 . S
Mg91 O103 2.141 . S
C92 O93 1.313 . S
C92 O99 1.195 . S
O93 C92 1.313 . S
C94 O95 1.245 . S
C94 O103 1.289 . S
O95 C94 1.245 . S
C96 O97 1.245 . S
C96 O98 1.289 . S
O97 C96 1.245 . S
O98 Mg91 2.141 . S
O98 C96 1.289 . S
O99 Mg91 2.048 . S
O99 C92 1.195 . S
O100 Mg91 2.048 . S
O100 C101 1.195 . S
C101 O100 1.195 . S
C101 O102 1.313 . S
O102 C101 1.313 . S
O103 Mg91 2.141 . S
O103 C94 1.289 . S
Mg104 O111 2.141 . S
Mg104 O112 2.048 . S
Mg104 O113 2.048 . S
Mg104 O116 2.141 1_556 S
C105 O106 1.313 1_655 S
C105 O112 1.195 . S
O106 C105 1.313 1_455 S
C107 O108 1.245 1_655 S
C107 O116 1.289 . S
O108 C107 1.245 1_455 S
C109 O110 1.245 . S
C109 O111 1.289 . S
O110 C109 1.245 . S
O111 Mg104 2.141 . S
O111 C109 1.289 . S
O112 Mg104 2.048 . S
O112 C105 1.195 . S
O113 Mg104 2.048 . S
O113 C114 1.195 1_655 S
C114 O113 1.195 1_455 S
C114 O115 1.313 . S
O115 C114 1.313 . S
O116 Mg104 2.141 1_554 S
O116 C107 1.289 . S
Mg117 O124 2.141 . S
Mg117 O125 2.048 . S
Mg117 O126 2.048 . S
Mg117 O129 2.141 . S
C118 O119 1.313 . S
C118 O125 1.195 . S
O119 C118 1.313 . S
C120 O121 1.245 . S
C120 O129 1.289 . S
O121 C120 1.245 . S
C122 O123 1.245 . S
C122 O124 1.289 . S
O123 C122 1.245 . S
O124 Mg117 2.141 . S
O124 C122 1.289 . S
O125 Mg117 2.048 . S
O125 C118 1.195 . S
O126 Mg117 2.048 . S
O126 C127 1.195 . S
C127 O126 1.195 . S
C127 O128 1.313 . S
O128 C127 1.313 . S
O129 Mg117 2.141 . S
O129 C120 1.289 . S
Mg130 O137 2.141 . S
Mg130 O138 2.048 . S
Mg130 O139 2.048 . S
Mg130 O142 2.141 . S
C131 O132 1.313 . S
C131 O138 1.195 . S
O132 C131 1.313 . S
C133 O134 1.245 . S
C133 O142 1.289 . S
O134 C133 1.245 . S
C135 O136 1.245 . S
C135 O137 1.289 . S
O136 C135 1.245 . S
O137 Mg130 2.141 . S
O137 C135 1.289 . S
O138 Mg130 2.048 . S
O138 C131 1.195 . S
O139 Mg130 2.048 . S
O139 C140 1.195 . S
C140 O139 1.195 . S
C140 O141 1.313 . S
O141 C140 1.313 . S
O142 Mg130 2.141 . S
O142 C133 1.289 . S
Mg143 O150 2.141 . S
Mg143 O151 2.048 . S
Mg143 O152 2.048 . S
Mg143 O155 2.141 . S
C144 O145 1.313 . S
C144 O151 1.195 . S
O145 C144 1.313 . S
C146 O147 1.245 . S
C146 O155 1.289 . S
O147 C146 1.245 . S
C148 O149 1.245 . S
C148 O150 1.289 . S
O149 C148 1.245 . S
O150 Mg143 2.141 . S
O150 C148 1.289 . S
O151 Mg143 2.048 . S
O151 C144 1.195 . S
O152 Mg143 2.048 . S
O152 C153 1.195 . S
C153 O152 1.195 . S
C153 O154 1.313 . S
O154 C153 1.313 . S
O155 Mg143 2.141 . S
O155 C146 1.289 . S
Mg156 O163 2.141 . S
Mg156 O164 2.048 . S
Mg156 O165 2.048 . S
Mg156 O168 2.141 . S
C157 O158 1.313 1_655 S
C157 O164 1.195 . S
O158 C157 1.313 1_455 S
C159 O160 1.245 1_655 S
C159 O168 1.289 . S
O160 C159 1.245 1_455 S
C161 O162 1.245 . S
C161 O163 1.289 . S
O162 C161 1.245 . S
O163 Mg156 2.141 . S
O163 C161 1.289 . S
O164 Mg156 2.048 . S
O164 C157 1.195 . S
O165 Mg156 2.048 . S
O165 C166 1.195 1_655 S
C166 O165 1.195 1_455 S
C166 O167 1.313 . S
O167 C166 1.313 . S
O168 Mg156 2.141 . S
O168 C159 1.289 . S
Mg169 O176 2.141 . S
Mg169 O177 2.048 . S
Mg169 O178 2.048 . S
Mg169 O181 2.141 . S
C170 O171 1.313 . S
C170 O177 1.195 . S
O171 C170 1.313 . S
C172 O173 1.245 . S
C172 O181 1.289 . S
O173 C172 1.245 . S
C174 O175 1.245 . S
C174 O176 1.289 . S
O175 C174 1.245 . S
O176 Mg169 2.141 . S
O176 C174 1.289 . S
O177 Mg169 2.048 . S
O177 C170 1.195 . S
O178 Mg169 2.048 . S
O178 C179 1.195 . S
C179 O178 1.195 . S
C179 O180 1.313 . S
O180 C179 1.313 . S
O181 Mg169 2.141 . S
O181 C172 1.289 . S
Mg182 O189 2.141 . S
Mg182 O190 2.048 . S
Mg182 O191 2.048 . S
Mg182 O194 2.141 1_554 S
C183 O184 1.313 . S
C183 O190 1.195 . S
O184 C183 1.313 . S
C185 O186 1.245 . S
C185 O194 1.289 . S
O186 C185 1.245 . S
C187 O188 1.245 . S
C187 O189 1.289 . S
O188 C187 1.245 . S
O189 Mg182 2.141 . S
O189 C187 1.289 . S
O190 Mg182 2.048 . S
O190 C183 1.195 . S
O191 Mg182 2.048 . S
O191 C192 1.195 . S
C192 O191 1.195 . S
C192 O193 1.313 . S
O193 C192 1.313 . S
O194 Mg182 2.141 1_556 S
O194 C185 1.289 . S
Mg195 O202 2.141 . S
Mg195 O203 2.048 . S
Mg195 O204 2.048 . S
Mg195 O207 2.141 . S
C196 O197 1.313 . S
C196 O203 1.195 . S
O197 C196 1.313 . S
C198 O199 1.245 . S
C198 O207 1.289 . S
O199 C198 1.245 . S
C200 O201 1.245 . S
C200 O202 1.289 . S
O201 C200 1.245 . S
O202 Mg195 2.141 . S
O202 C200 1.289 . S
O203 Mg195 2.048 . S
O203 C196 1.195 . S
O204 Mg195 2.048 . S
O204 C205 1.195 . S
C205 O204 1.195 . S
C205 O206 1.313 . S
O206 C205 1.313 . S
O207 Mg195 2.141 . S
O207 C198 1.289 . S
Mg208 O215 2.141 . S
Mg208 O216 2.048 . S
Mg208 O217 2.048 . S
Mg208 O220 2.141 . S
C209 O210 1.313 . S
C209 O216 1.195 . S
O210 C209 1.313 . S
C211 O212 1.245 . S
C211 O220 1.289 . S
O212 C211 1.245 . S
C213 O214 1.245 . S
C213 O215 1.289 . S
O214 C213 1.245 . S
O215 Mg208 2.141 . S
O215 C213 1.289 . S
O216 Mg208 2.048 . S
O216 C209 1.195 . S
O217 Mg208 2.048 . S
O217 C218 1.195 . S
C218 O217 1.195 . S
C218 O219 1.313 . S
O219 C218 1.313 . S
O220 Mg208 2.141 . S
O220 C211 1.289 . S
Mg221 O228 2.141 . S
Mg221 O229 2.048 . S
Mg221 O230 2.048 . S
Mg221 O233 2.141 . S
C222 O223 1.313 . S
C222 O229 1.195 . S
O223 C222 1.313 . S
C224 O225 1.245 . S
C224 O233 1.289 . S
O225 C224 1.245 . S
C226 O227 1.245 . S
C226 O228 1.289 . S
O227 C226 1.245 . S
O228 Mg221 2.141 . S
O228 C226 1.289 . S
O229 Mg221 2.048 . S
O229 C222 1.195 . S
O230 Mg221 2.048 . S
O230 C231 1.195 . S
C231 O230 1.195 . S
C231 O232 1.313 . S
O232 C231 1.313 . S
O233 Mg221 2.141 . S
O233 C224 1.289 . S
Mg234 O241 2.141 1_554 S
Mg234 O242 2.048 . S
Mg234 O243 2.048 . S
Mg234 O246 2.141 . S
C235 O236 1.313 . S
C235 O242 1.195 1_455 S
O236 C235 1.313 . S
C237 O238 1.245 . S
C237 O246 1.289 . S
O238 C237 1.245 . S
C239 O240 1.245 1_655 S
C239 O241 1.289 . S
O240 C239 1.245 1_455 S
O241 Mg234 2.141 1_556 S
O241 C239 1.289 . S
O242 Mg234 2.048 . S
O242 C235 1.195 1_655 S
O243 Mg234 2.048 . S
O243 C244 1.195 . S
C244 O243 1.195 . S
C244 O245 1.313 1_655 S
O245 C244 1.313 1_455 S
O246 Mg234 2.141 . S
O246 C237 1.289 . S
Mg247 O254 2.141 . S
Mg247 O255 2.048 . S
Mg247 O256 2.048 . S
Mg247 O259 2.141 . S
C248 O249 1.313 . S
C248 O255 1.195 . S
O249 C248 1.313 . S
C250 O251 1.245 . S
C250 O259 1.289 . S
O251 C250 1.245 . S
C252 O253 1.245 . S
C252 O254 1.289 . S
O253 C252 1.245 . S
O254 Mg247 2.141 . S
O254 C252 1.289 . S
O255 Mg247 2.048 . S
O255 C248 1.195 . S
O256 Mg247 2.048 . S
O256 C257 1.195 . S
C257 O256 1.195 . S
C257 O258 1.313 . S
O258 C257 1.313 . S
O259 Mg247 2.141 . S
O259 C250 1.289 . S
Mg260 O267 2.141 1_556 S
Mg260 O268 2.048 . S
Mg260 O269 2.048 . S
Mg260 O272 2.141 . S
C261 O262 1.313 . S
C261 O268 1.195 . S
O262 C261 1.313 . S
C263 O264 1.245 . S
C263 O272 1.289 . S
O264 C263 1.245 . S
C265 O266 1.245 . S
C265 O267 1.289 . S
O266 C265 1.245 . S
O267 Mg260 2.141 1_554 S
O267 C265 1.289 . S
O268 Mg260 2.048 . S
O268 C261 1.195 . S
O269 Mg260 2.048 . S
O269 C270 1.195 . S
C270 O269 1.195 . S
C270 O271 1.313 . S
O271 C270 1.313 . S
O272 Mg260 2.141 . S
O272 C263 1.289 . S
Mg273 O280 2.141 . S
Mg273 O281 2.048 . S
Mg273 O282 2.048 . S
Mg273 O285 2.141 . S
C274 O275 1.313 . S
C274 O281 1.195 . S
O275 C274 1.313 . S
C276 O277 1.245 . S
C276 O285 1.289 . S
O277 C276 1.245 . S
C278 O279 1.245 . S
C278 O280 1.289 . S
O279 C278 1.245 . S
O280 Mg273 2.141 . S
O280 C278 1.289 . S
O281 Mg273 2.048 . S
O281 C274 1.195 . S
O282 Mg273 2.048 . S
O282 C283 1.195 . S
C283 O282 1.195 . S
C283 O284 1.313 . S
O284 C283 1.313 . S
O285 Mg273 2.141 . S
O285 C276 1.289 . S
Mg286 O293 2.141 . S
Mg286 O294 2.048 . S
Mg286 O295 2.048 . S
Mg286 O298 2.141 . S
C287 O288 1.313 . S
C287 O294 1.195 1_455 S
O288 C287 1.313 . S
C289 O290 1.245 . S
C289 O298 1.289 . S
O290 C289 1.245 . S
C291 O292 1.245 1_655 S
C291 O293 1.289 . S
O292 C291 1.245 1_455 S
O293 Mg286 2.141 . S
O293 C291 1.289 . S
O294 Mg286 2.048 . S
O294 C287 1.195 1_655 S
O295 Mg286 2.048 . S
O295 C296 1.195 . S
C296 O295 1.195 . S
C296 O297 1.313 1_655 S
O297 C296 1.313 1_455 S
O298 Mg286 2.141 . S
O298 C289 1.289 . S
Mg299 O306 2.141 . S
Mg299 O307 2.048 . S
Mg299 O308 2.048 . S
Mg299 O311 2.141 . S
C300 O301 1.313 . S
C300 O307 1.195 . S
O301 C300 1.313 . S
C302 O303 1.245 . S
C302 O311 1.289 . S
O303 C302 1.245 . S
C304 O305 1.245 . S
C304 O306 1.289 . S
O305 C304 1.245 . S
O306 Mg299 2.141 . S
O306 C304 1.289 . S
O307 Mg299 2.048 . S
O307 C300 1.195 . S
O308 Mg299 2.048 . S
O308 C309 1.195 . S
C309 O308 1.195 . S
C309 O310 1.313 . S
O310 C309 1.313 . S
O311 Mg299 2.141 . S
O311 C302 1.289 . S
Mg312 O319 2.141 . S
Mg312 O320 2.048 . S
Mg312 O321 2.048 . S
Mg312 O324 2.141 . S
C313 O314 1.313 . S
C313 O320 1.195 . S
O314 C313 1.313 . S
C315 O316 1.245 . S
C315 O324 1.289 . S
O316 C315 1.245 . S
C317 O318 1.245 . S
C317 O319 1.289 . S
O318 C317 1.245 . S
O319 Mg312 2.141 . S
O319 C317 1.289 . S
O320 Mg312 2.048 . S
O320 C313 1.195 . S
O321 Mg312 2.048 . S
O321 C322 1.195 . S
C322 O321 1.195 . S
C322 O323 1.313 . S
O323 C322 1.313 . S
O324 Mg312 2.141 . S
O324 C315 1.289 . S
Mg325 O332 2.141 . S
Mg325 O333 2.048 . S
Mg325 O334 2.048 . S
Mg325 O337 2.141 . S
C326 O327 1.313 . S
C326 O333 1.195 . S
O327 C326 1.313 . S
C328 O329 1.245 . S
C328 O337 1.289 . S
O329 C328 1.245 . S
C330 O331 1.245 . S
C330 O332 1.289 . S
O331 C330 1.245 . S
O332 Mg325 2.141 . S
O332 C330 1.289 . S
O333 Mg325 2.048 . S
O333 C326 1.195 . S
O334 Mg325 2.048 . S
O334 C335 1.195 . S
C335 O334 1.195 . S
C335 O336 1.313 . S
O336 C335 1.313 . S
O337 Mg325 2.141 . S
O337 C328 1.289 . S
Mg338 O345 2.141 . S
Mg338 O346 2.048 . S
Mg338 O347 2.048 . S
Mg338 O350 2.141 1_556 S
C339 O340 1.313 1_455 S
C339 O346 1.195 . S
O340 C339 1.313 1_655 S
C341 O342 1.245 1_455 S
C341 O350 1.289 . S
O342 C341 1.245 1_655 S
C343 O344 1.245 . S
C343 O345 1.289 . S
O344 C343 1.245 . S
O345 Mg338 2.141 . S
O345 C343 1.289 . S
O346 Mg338 2.048 . S
O346 C339 1.195 . S
O347 Mg338 2.048 . S
O347 C348 1.195 1_455 S
C348 O347 1.195 1_655 S
C348 O349 1.313 . S
O349 C348 1.313 . S
O350 Mg338 2.141 1_554 S
O350 C341 1.289 . S
Mg351 O358 2.141 . S
Mg351 O359 2.048 . S
Mg351 O360 2.048 . S
Mg351 O363 2.141 . S
C352 O353 1.313 . S
C352 O359 1.195 . S
O353 C352 1.313 . S
C354 O355 1.245 . S
C354 O363 1.289 . S
O355 C354 1.245 . S
C356 O357 1.245 . S
C356 O358 1.289 . S
O357 C356 1.245 . S
O358 Mg351 2.141 . S
O358 C356 1.289 . S
O359 Mg351 2.048 . S
O359 C352 1.195 . S
O360 Mg351 2.048 . S
O360 C361 1.195 . S
C361 O360 1.195 . S
C361 O362 1.313 . S
O362 C361 1.313 . S
O363 Mg351 2.141 . S
O363 C354 1.289 . S
Mg364 O371 2.141 . S
Mg364 O372 2.048 . S
Mg364 O373 2.048 . S
Mg364 O376 2.141 1_554 S
C365 O366 1.313 . S
C365 O372 1.195 . S
O366 C365 1.313 . S
C367 O368 1.245 . S
C367 O376 1.289 . S
O368 C367 1.245 . S
C369 O370 1.245 . S
C369 O371 1.289 . S
O370 C369 1.245 . S
O371 Mg364 2.141 . S
O371 C369 1.289 . S
O372 Mg364 2.048 . S
O372 C365 1.195 . S
O373 Mg364 2.048 . S
O373 C374 1.195 . S
C374 O373 1.195 . S
C374 O375 1.313 . S
O375 C374 1.313 . S
O376 Mg364 2.141 1_556 S
O376 C367 1.289 . S
Mg377 O384 2.141 . S
Mg377 O385 2.048 . S
Mg377 O386 2.048 . S
Mg377 O389 2.141 . S
C378 O379 1.313 . S
C378 O385 1.195 . S
O379 C378 1.313 . S
C380 O381 1.245 . S
C380 O389 1.289 . S
O381 C380 1.245 . S
C382 O383 1.245 . S
C382 O384 1.289 . S
O383 C382 1.245 . S
O384 Mg377 2.141 . S
O384 C382 1.289 . S
O385 Mg377 2.048 . S
O385 C378 1.195 . S
O386 Mg377 2.048 . S
O386 C387 1.195 . S
C387 O386 1.195 . S
C387 O388 1.313 . S
O388 C387 1.313 . S
O389 Mg377 2.141 . S
O389 C380 1.289 . S
Mg390 O397 2.141 . S
Mg390 O398 2.048 . S
Mg390 O399 2.048 . S
Mg390 O402 2.141 . S
C391 O392 1.313 1_455 S
C391 O398 1.195 . S
O392 C391 1.313 1_655 S
C393 O394 1.245 1_455 S
C393 O402 1.289 . S
O394 C393 1.245 1_655 S
C395 O396 1.245 . S
C395 O397 1.289 . S
O396 C395 1.245 . S
O397 Mg390 2.141 . S
O397 C395 1.289 . S
O398 Mg390 2.048 . S
O398 C391 1.195 . S
O399 Mg390 2.048 . S
O399 C400 1.195 1_455 S
C400 O399 1.195 1_655 S
C400 O401 1.313 . S
O401 C400 1.313 . S
O402 Mg390 2.141 . S
O402 C393 1.289 . S
Mg403 O410 2.141 . S
Mg403 O411 2.048 . S
Mg403 O412 2.048 . S
Mg403 O415 2.141 . S
C404 O405 1.313 . S
C404 O411 1.195 . S
O405 C404 1.313 . S
C406 O407 1.245 . S
C406 O415 1.289 . S
O407 C406 1.245 . S
C408 O409 1.245 . S
C408 O410 1.289 . S
O409 C408 1.245 . S
O410 Mg403 2.141 . S
O410 C408 1.289 . S
O411 Mg403 2.048 . S
O411 C404 1.195 . S
O412 Mg403 2.048 . S
O412 C413 1.195 . S
C413 O412 1.195 . S
C413 O414 1.313 . S
O414 C413 1.313 . S
O415 Mg403 2.141 . S
O415 C406 1.289 . S
H416 C422 0.930 . S
H417 C426 0.930 . S
H418 C431 0.929 . S
H419 C429 0.916 1_655 S
H420 C424 0.929 . S
H421 C430 0.929 . S
C422 H416 0.930 . S
C422 C423 1.367 . S
C422 C430 1.378 . S
C423 C422 1.367 . S
C423 C431 1.433 1_655 S
C424 H420 0.929 . S
C424 C426 1.378 . S
C424 C428 1.350 . S
C425 C428 1.460 1_655 S
C425 C430 1.356 . S
C425 N433 1.424 1_655 S
C426 H417 0.930 . S
C426 C424 1.378 . S
C426 C427 1.367 . S
C427 C426 1.367 . S
C427 C429 1.433 . S
C428 C424 1.350 . S
C428 C425 1.460 1_455 S
C428 N432 1.427 1_455 S
C429 H419 0.916 1_455 S
C429 C427 1.433 . S
C429 N432 1.384 1_455 S
C430 H421 0.929 . S
C430 C422 1.378 . S
C430 C425 1.356 . S
C431 H418 0.929 . S
C431 C423 1.433 1_455 S
C431 N433 1.384 . S
N432 C428 1.427 1_655 S
N432 C429 1.384 1_655 S
N433 C425 1.424 1_455 S
N433 C431 1.384 . S
H434 C440 0.930 . S
H435 C444 0.930 . S
H436 C449 0.929 . S
H437 C447 0.929 . S
H438 C442 0.929 . S
H439 C448 0.929 . S
C440 H434 0.930 . S
C440 C441 1.367 . S
C440 C448 1.378 1_556 S
C441 C440 1.367 . S
C441 C449 1.433 . S
C442 H438 0.929 . S
C442 C444 1.378 . S
C442 C446 1.350 . S
C443 C446 1.463 . S
C443 C448 1.350 . S
C443 N451 1.427 . S
C444 H435 0.930 . S
C444 C442 1.378 . S
C444 C445 1.367 . S
C445 C444 1.367 . S
C445 C447 1.433 . S
C446 C442 1.350 . S
C446 C443 1.463 . S
C446 N450 1.427 . S
C447 H437 0.929 . S
C447 C445 1.433 . S
C447 N450 1.384 . S
C448 H439 0.929 . S
C448 C440 1.378 1_554 S
C448 C443 1.350 . S
C449 H436 0.929 . S
C449 C441 1.433 . S
C449 N451 1.384 1_556 S
N450 C446 1.427 . S
N450 C447 1.384 . S
N451 C443 1.427 . S
N451 C449 1.384 1_554 S
H452 C458 0.930 . S
H453 C462 0.930 . S
H454 C467 0.929 . S
H455 C465 0.929 . S
H456 C460 0.929 . S
H457 C466 0.929 . S
C458 H452 0.930 . S
C458 C459 1.367 . S
C458 C466 1.378 . S
C459 C458 1.367 . S
C459 C467 1.433 . S
C460 H456 0.929 . S
C460 C462 1.378 . S
C460 C464 1.350 . S
C461 C464 1.463 . S
C461 C466 1.350 . S
C461 N469 1.427 . S
C462 H453 0.930 . S
C462 C460 1.378 . S
C462 C463 1.367 . S
C463 C462 1.367 . S
C463 C465 1.433 . S
C464 C460 1.350 . S
C464 C461 1.463 . S
C464 N468 1.427 . S
C465 H455 0.929 . S
C465 C463 1.433 . S
C465 N468 1.384 . S
C466 H457 0.929 . S
C466 C458 1.378 . S
C466 C461 1.350 . S
C467 H454 0.929 . S
C467 C459 1.433 . S
C467 N469 1.384 . S
N468 C464 1.427 . S
N468 C465 1.384 . S
N469 C461 1.427 . S
N469 C467 1.384 . S
H470 C476 0.930 . S
H471 C480 0.930 . S
H472 C485 0.929 . S
H473 C483 0.929 . S
H474 C478 0.929 . S
H475 C484 0.929 . S
C476 H470 0.930 . S
C476 C477 1.367 . S
C476 C484 1.378 . S
C477 C476 1.367 . S
C477 C485 1.433 . S
C478 H474 0.929 . S
C478 C480 1.378 . S
C478 C482 1.350 . S
C479 C482 1.463 . S
C479 C484 1.350 . S
C479 N487 1.427 . S
C480 H471 0.930 . S
C480 C478 1.378 . S
C480 C481 1.367 . S
C481 C480 1.367 . S
C481 C483 1.433 . S
C482 C478 1.350 . S
C482 C479 1.463 . S
C482 N486 1.427 . S
C483 H473 0.929 . S
C483 C481 1.433 . S
C483 N486 1.384 . S
C484 H475 0.929 . S
C484 C476 1.378 . S
C484 C479 1.350 . S
C485 H472 0.929 . S
C485 C477 1.433 . S
C485 N487 1.384 . S
N486 C482 1.427 . S
N486 C483 1.384 . S
N487 C479 1.427 . S
N487 C485 1.384 . S
H488 C494 0.930 . S
H489 C498 0.930 . S
H490 C503 0.929 . S
H491 C501 0.929 . S
H492 C496 0.929 . S
H493 C502 0.929 . S
C494 H488 0.930 . S
C494 C495 1.367 . S
C494 C502 1.378 . S
C495 C494 1.367 . S
C495 C503 1.433 1_655 S
C496 H492 0.929 . S
C496 C498 1.378 . S
C496 C500 1.350 . S
C497 C500 1.457 1_655 S
C497 C502 1.367 . S
C497 N505 1.415 1_655 S
C498 H489 0.930 . S
C498 C496 1.378 . S
C498 C499 1.367 . S
C499 C498 1.367 . S
C499 C501 1.433 1_455 S
C500 C496 1.350 . S
C500 C497 1.457 1_455 S
C500 N504 1.427 1_455 S
C501 H491 0.929 . S
C501 C499 1.433 1_655 S
C501 N504 1.384 . S
C502 H493 0.929 . S
C502 C494 1.378 . S
C502 C497 1.367 . S
C503 H490 0.929 . S
C503 C495 1.433 1_455 S
C503 N505 1.384 . S
N504 C500 1.427 1_655 S
N504 C501 1.384 . S
N505 C497 1.415 1_455 S
N505 C503 1.384 . S
H506 C512 0.930 . S
H507 C516 0.930 . S
H508 C521 0.929 . S
H509 C519 0.929 . S
H510 C514 0.929 . S
H511 C520 0.929 . S
C512 H506 0.930 . S
C512 C513 1.367 . S
C512 C520 1.378 . S
C513 C512 1.367 . S
C513 C521 1.433 . S
C514 H510 0.929 . S
C514 C516 1.378 1_556 S
C514 C518 1.350 . S
C515 C518 1.463 . S
C515 C520 1.350 . S
C515 N523 1.427 . S
C516 H507 0.930 . S
C516 C514 1.378 1_554 S
C516 C517 1.367 . S
C517 C516 1.367 . S
C517 C519 1.433 . S
C518 C514 1.350 . S
C518 C515 1.463 . S
C518 N522 1.427 . S
C519 H509 0.929 . S
C519 C517 1.433 . S
C519 N522 1.384 1_554 S
C520 H511 0.929 . S
C520 C512 1.378 . S
C520 C515 1.350 . S
C521 H508 0.929 . S
C521 C513 1.433 . S
C521 N523 1.384 . S
N522 C518 1.427 . S
N522 C519 1.384 1_556 S
N523 C515 1.427 . S
N523 C521 1.384 . S
H524 C530 0.930 . S
H525 C534 0.930 . S
H526 C539 0.929 . S
H527 C537 0.929 . S
H528 C532 0.929 . S
H529 C538 0.929 . S
C530 H524 0.930 . S
C530 C531 1.367 . S
C530 C538 1.378 . S
C531 C530 1.367 . S
C531 C539 1.433 . S
C532 H528 0.929 . S
C532 C534 1.378 . S
C532 C536 1.350 . S
C533 C536 1.463 . S
C533 C538 1.350 . S
C533 N541 1.427 . S
C534 H525 0.930 . S
C534 C532 1.378 . S
C534 C535 1.367 . S
C535 C534 1.367 . S
C535 C537 1.433 . S
C536 C532 1.350 . S
C536 C533 1.463 . S
C536 N540 1.427 . S
C537 H527 0.929 . S
C537 C535 1.433 . S
C537 N540 1.384 . S
C538 H529 0.929 . S
C538 C530 1.378 . S
C538 C533 1.350 . S
C539 H526 0.929 . S
C539 C531 1.433 . S
C539 N541 1.384 . S
N540 C536 1.427 . S
N540 C537 1.384 . S
N541 C533 1.427 . S
N541 C539 1.384 . S
H542 C548 0.930 . S
H543 C552 0.930 . S
H544 C557 0.929 . S
H545 C555 0.929 . S
H546 C550 0.929 . S
H547 C556 0.929 . S
C548 H542 0.930 . S
C548 C549 1.367 . S
C548 C556 1.378 . S
C549 C548 1.367 . S
C549 C557 1.433 . S
C550 H546 0.929 . S
C550 C552 1.378 . S
C550 C554 1.350 . S
C551 C554 1.463 . S
C551 C556 1.350 . S
C551 N559 1.427 . S
C552 H543 0.930 . S
C552 C550 1.378 . S
C552 C553 1.367 . S
C553 C552 1.367 . S
C553 C555 1.433 . S
C554 C550 1.350 . S
C554 C551 1.463 . S
C554 N558 1.427 . S
C555 H545 0.929 . S
C555 C553 1.433 . S
C555 N558 1.384 . S
C556 H547 0.929 . S
C556 C548 1.378 . S
C556 C551 1.350 . S
C557 H544 0.929 . S
C557 C549 1.433 . S
C557 N559 1.384 . S
N558 C554 1.427 . S
N558 C555 1.384 . S
N559 C551 1.427 . S
N559 C557 1.384 . S
H560 C566 0.930 . S
H561 C570 0.930 . S
H562 C575 0.929 . S
H563 C573 0.929 . S
H564 C568 0.928 . S
H565 C574 0.929 . S
C566 H560 0.930 . S
C566 C567 1.367 . S
C566 C574 1.378 1_455 S
C567 C566 1.367 . S
C567 C575 1.433 . S
C568 H564 0.928 . S
C568 C570 1.378 . S
C568 C572 1.350 . S
C569 C572 1.463 . S
C569 C574 1.350 . S
C569 N577 1.427 1_655 S
C570 H561 0.930 . S
C570 C568 1.378 . S
C570 C571 1.367 . S
C571 C570 1.367 . S
C571 C573 1.433 . S
C572 C568 1.350 . S
C572 C569 1.463 . S
C572 N576 1.427 . S
C573 H563 0.929 . S
C573 C571 1.433 . S
C573 N576 1.384 . S
C574 H565 0.929 . S
C574 C566 1.378 1_655 S
C574 C569 1.350 . S
C575 H562 0.929 . S
C575 C567 1.433 . S
C575 N577 1.384 . S
N576 C572 1.427 . S
N576 C573 1.384 . S
N577 C569 1.427 1_455 S
N577 C575 1.384 . S
H578 C584 0.930 . S
H579 C588 0.930 . S
H580 C593 0.929 . S
H581 C591 0.929 . S
H582 C586 0.929 . S
H583 C592 0.929 . S
C584 H578 0.930 . S
C584 C585 1.367 . S
C584 C592 1.378 1_554 S
C585 C584 1.367 . S
C585 C593 1.433 . S
C586 H582 0.929 . S
C586 C588 1.378 . S
C586 C590 1.350 . S
C587 C590 1.463 . S
C587 C592 1.350 . S
C587 N595 1.427 . S
C588 H579 0.930 . S
C588 C586 1.378 . S
C588 C589 1.367 . S
C589 C588 1.367 . S
C589 C591 1.433 . S
C590 C586 1.350 . S
C590 C587 1.463 . S
C590 N594 1.427 . S
C591 H581 0.929 . S
C591 C589 1.433 . S
C591 N594 1.384 . S
C592 H583 0.929 . S
C592 C584 1.378 1_556 S
C592 C587 1.350 . S
C593 H580 0.929 . S
C593 C585 1.433 . S
C593 N595 1.384 1_554 S
N594 C590 1.427 . S
N594 C591 1.384 . S
N595 C587 1.427 . S
N595 C593 1.384 1_556 S
H596 C602 0.930 . S
H597 C606 0.930 . S
H598 C611 0.929 . S
H599 C609 0.929 . S
H600 C604 0.929 . S
H601 C610 0.929 . S
C602 H596 0.930 . S
C602 C603 1.367 . S
C602 C610 1.378 . S
C603 C602 1.367 . S
C603 C611 1.433 . S
C604 H600 0.929 . S
C604 C606 1.378 . S
C604 C608 1.350 . S
C605 C608 1.463 . S
C605 C610 1.350 . S
C605 N613 1.427 . S
C606 H597 0.930 . S
C606 C604 1.378 . S
C606 C607 1.367 . S
C607 C606 1.367 . S
C607 C609 1.433 . S
C608 C604 1.350 . S
C608 C605 1.463 . S
C608 N612 1.427 . S
C609 H599 0.929 . S
C609 C607 1.433 . S
C609 N612 1.384 . S
C610 H601 0.929 . S
C610 C602 1.378 . S
C610 C605 1.350 . S
C611 H598 0.929 . S
C611 C603 1.433 . S
C611 N613 1.384 . S
N612 C608 1.427 . S
N612 C609 1.384 . S
N613 C605 1.427 . S
N613 C611 1.384 . S
H614 C620 0.930 . S
H615 C624 0.930 . S
H616 C629 0.929 . S
H617 C627 0.929 . S
H618 C622 0.929 . S
H619 C628 0.929 . S
C620 H614 0.930 . S
C620 C621 1.367 . S
C620 C628 1.378 . S
C621 C620 1.367 . S
C621 C629 1.433 . S
C622 H618 0.929 . S
C622 C624 1.378 . S
C622 C626 1.350 . S
C623 C626 1.463 . S
C623 C628 1.350 . S
C623 N631 1.427 . S
C624 H615 0.930 . S
C624 C622 1.378 . S
C624 C625 1.367 . S
C625 C624 1.367 . S
C625 C627 1.433 . S
C626 C622 1.350 . S
C626 C623 1.463 . S
C626 N630 1.427 . S
C627 H617 0.929 . S
C627 C625 1.433 . S
C627 N630 1.384 . S
C628 H619 0.929 . S
C628 C620 1.378 . S
C628 C623 1.350 . S
C629 H616 0.929 . S
C629 C621 1.433 . S
C629 N631 1.384 . S
N630 C626 1.427 . S
N630 C627 1.384 . S
N631 C623 1.427 . S
N631 C629 1.384 . S
H632 C638 0.930 . S
H633 C642 0.930 . S
H634 C647 0.929 . S
H635 C645 0.929 . S
H636 C640 0.929 . S
H637 C646 0.929 . S
C638 H632 0.930 . S
C638 C639 1.367 . S
C638 C646 1.378 . S
C639 C638 1.367 . S
C639 C647 1.433 . S
C640 H636 0.929 . S
C640 C642 1.378 . S
C640 C644 1.349 . S
C641 C644 1.463 1_655 S
C641 C646 1.350 . S
C641 N649 1.427 . S
C642 H633 0.930 . S
C642 C640 1.378 . S
C642 C643 1.367 . S
C643 C642 1.367 . S
C643 C645 1.433 . S
C644 C640 1.349 . S
C644 C641 1.463 1_455 S
C644 N648 1.427 1_455 S
C645 H635 0.929 . S
C645 C643 1.433 . S
C645 N648 1.380 1_455 S
C646 H637 0.929 . S
C646 C638 1.378 . S
C646 C641 1.350 . S
C647 H634 0.929 . S
C647 C639 1.433 . S
C647 N649 1.384 . S
N648 C644 1.427 1_655 S
N648 C645 1.380 1_655 S
N649 C641 1.427 . S
N649 C647 1.384 . S
H650 C656 0.930 . S
H651 C660 0.930 . S
H652 C665 0.929 . S
H653 C663 0.929 . S
H654 C658 0.929 . S
H655 C664 0.929 . S
C656 H650 0.930 . S
C656 C657 1.367 . S
C656 C664 1.378 . S
C657 C656 1.367 . S
C657 C665 1.433 . S
C658 H654 0.929 . S
C658 C660 1.378 1_554 S
C658 C662 1.350 . S
C659 C662 1.463 . S
C659 C664 1.350 . S
C659 N667 1.427 . S
C660 H651 0.930 . S
C660 C658 1.378 1_556 S
C660 C661 1.367 . S
C661 C660 1.367 . S
C661 C663 1.433 . S
C662 C658 1.350 . S
C662 C659 1.463 . S
C662 N666 1.427 . S
C663 H653 0.929 . S
C663 C661 1.433 . S
C663 N666 1.384 1_556 S
C664 H655 0.929 . S
C664 C656 1.378 . S
C664 C659 1.350 . S
C665 H652 0.929 . S
C665 C657 1.433 . S
C665 N667 1.384 . S
N666 C662 1.427 . S
N666 C663 1.384 1_554 S
N667 C659 1.427 . S
N667 C665 1.384 . S
H668 C674 0.930 . S
H669 C678 0.930 . S
H670 C683 0.929 . S
H671 C681 0.929 . S
H672 C676 0.929 . S
H673 C682 0.929 . S
C674 H668 0.930 . S
C674 C675 1.367 . S
C674 C682 1.378 . S
C675 C674 1.367 . S
C675 C683 1.433 . S
C676 H672 0.929 . S
C676 C678 1.378 . S
C676 C680 1.350 . S
C677 C680 1.463 . S
C677 C682 1.350 . S
C677 N685 1.427 . S
C678 H669 0.930 . S
C678 C676 1.378 . S
C678 C679 1.367 . S
C679 C678 1.367 . S
C679 C681 1.433 . S
C680 C676 1.350 . S
C680 C677 1.463 . S
C680 N684 1.427 . S
C681 H671 0.929 . S
C681 C679 1.433 . S
C681 N684 1.384 . S
C682 H673 0.929 . S
C682 C674 1.378 . S
C682 C677 1.350 . S
C683 H670 0.929 . S
C683 C675 1.433 . S
C683 N685 1.384 . S
N684 C680 1.427 . S
N684 C681 1.384 . S
N685 C677 1.427 . S
N685 C683 1.384 . S
H686 C692 0.930 . S
H687 C696 0.930 . S
H688 C701 0.929 . S
H689 C699 0.929 . S
H690 C694 0.929 . S
H691 C700 0.929 . S
C692 H686 0.930 . S
C692 C693 1.367 . S
C692 C700 1.378 . S
C693 C692 1.367 . S
C693 C701 1.433 . S
C694 H690 0.929 . S
C694 C696 1.378 . S
C694 C698 1.350 . S
C695 C698 1.463 . S
C695 C700 1.350 . S
C695 N703 1.427 . S
C696 H687 0.930 . S
C696 C694 1.378 . S
C696 C697 1.367 . S
C697 C696 1.367 . S
C697 C699 1.433 . S
C698 C694 1.350 . S
C698 C695 1.463 . S
C698 N702 1.427 . S
C699 H689 0.929 . S
C699 C697 1.433 . S
C699 N702 1.384 . S
C700 H691 0.929 . S
C700 C692 1.378 . S
C700 C695 1.350 . S
C701 H688 0.929 . S
C701 C693 1.433 . S
C701 N703 1.384 . S
N702 C698 1.427 . S
N702 C699 1.384 . S
N703 C695 1.427 . S
N703 C701 1.384 . S
H704 C710 0.930 . S
H705 C714 0.930 . S
H706 C719 0.929 . S
H707 C717 0.929 . S
H708 C712 0.929 . S
H709 C718 0.929 . S
C710 H704 0.930 . S
C710 C711 1.367 . S
C710 C718 1.378 . S
C711 C710 1.367 . S
C711 C719 1.433 . S
C712 H708 0.929 . S
C712 C714 1.378 . S
C712 C716 1.350 . S
C713 C716 1.463 . S
C713 C718 1.350 . S
C713 N721 1.427 . S
C714 H705 0.930 . S
C714 C712 1.378 . S
C714 C715 1.367 . S
C715 C714 1.367 . S
C715 C717 1.433 . S
C716 C712 1.350 . S
C716 C713 1.463 . S
C716 N720 1.427 . S
C717 H707 0.929 . S
C717 C715 1.433 . S
C717 N720 1.384 . S
C718 H709 0.929 . S
C718 C710 1.378 . S
C718 C713 1.350 . S
C719 H706 0.929 . S
C719 C711 1.433 . S
C719 N721 1.384 . S
N720 C716 1.427 . S
N720 C717 1.384 . S
N721 C713 1.427 . S
N721 C719 1.384 . S
H722 C728 0.930 . S
H723 C732 0.930 . S
H724 C737 0.929 . S
H725 C735 0.929 . S
H726 C730 0.929 . S
H727 C736 0.929 . S
C728 H722 0.930 . S
C728 C729 1.367 . S
C728 C736 1.378 . S
C729 C728 1.367 . S
C729 C737 1.433 . S
C730 H726 0.929 . S
C730 C732 1.378 . S
C730 C734 1.350 . S
C731 C734 1.463 . S
C731 C736 1.350 . S
C731 N739 1.427 . S
C732 H723 0.930 . S
C732 C730 1.378 . S
C732 C733 1.367 . S
C733 C732 1.367 . S
C733 C735 1.433 . S
C734 C730 1.350 . S
C734 C731 1.463 . S
C734 N738 1.427 . S
C735 H725 0.929 . S
C735 C733 1.433 . S
C735 N738 1.384 . S
C736 H727 0.929 . S
C736 C728 1.378 . S
C736 C731 1.350 . S
C737 H724 0.929 . S
C737 C729 1.433 . S
C737 N739 1.384 . S
N738 C734 1.427 . S
N738 C735 1.384 . S
N739 C731 1.427 . S
N739 C737 1.384 . S
H740 C746 0.930 . S
H741 C750 0.930 . S
H742 C755 0.929 . S
H743 C753 0.929 . S
H744 C748 0.929 . S
H745 C754 0.929 . S
C746 H740 0.930 . S
C746 C747 1.367 . S
C746 C754 1.378 . S
C747 C746 1.367 . S
C747 C755 1.433 . S
C748 H744 0.929 . S
C748 C750 1.378 . S
C748 C752 1.350 . S
C749 C752 1.463 1_455 S
C749 C754 1.350 . S
C749 N757 1.427 1_455 S
C750 H741 0.930 . S
C750 C748 1.378 . S
C750 C751 1.367 . S
C751 C750 1.367 . S
C751 C753 1.433 . S
C752 C748 1.350 . S
C752 C749 1.463 1_655 S
C752 N756 1.427 . S
C753 H743 0.929 . S
C753 C751 1.433 . S
C753 N756 1.384 . S
C754 H745 0.929 . S
C754 C746 1.378 . S
C754 C749 1.350 . S
C755 H742 0.929 . S
C755 C747 1.433 . S
C755 N757 1.384 1_455 S
N756 C752 1.427 . S
N756 C753 1.384 . S
N757 C749 1.427 1_655 S
N757 C755 1.384 1_655 S
H758 C764 0.930 . S
H759 C768 0.930 . S
H760 C773 0.929 . S
H761 C771 0.929 . S
H762 C766 0.929 . S
H763 C772 0.929 . S
C764 H758 0.930 . S
C764 C765 1.367 . S
C764 C772 1.378 . S
C765 C764 1.367 . S
C765 C773 1.433 . S
C766 H762 0.929 . S
C766 C768 1.378 1_554 S
C766 C770 1.350 . S
C767 C770 1.463 . S
C767 C772 1.350 . S
C767 N775 1.427 . S
C768 H759 0.930 . S
C768 C766 1.378 1_556 S
C768 C769 1.367 . S
C769 C768 1.367 . S
C769 C771 1.433 . S
C770 C766 1.350 . S
C770 C767 1.463 . S
C770 N774 1.427 . S
C771 H761 0.929 . S
C771 C769 1.433 . S
C771 N774 1.384 1_556 S
C772 H763 0.929 . S
C772 C764 1.378 . S
C772 C767 1.350 . S
C773 H760 0.929 . S
C773 C765 1.433 . S
C773 N775 1.384 . S
N774 C770 1.427 . S
N774 C771 1.384 1_554 S
N775 C767 1.427 . S
N775 C773 1.384 . S
H776 C782 0.930 . S
H777 C786 0.930 . S
H778 C791 0.929 . S
H779 C789 0.929 . S
H780 C784 0.929 . S
H781 C790 0.929 . S
C782 H776 0.930 . S
C782 C783 1.367 . S
C782 C790 1.378 . S
C783 C782 1.367 . S
C783 C791 1.433 . S
C784 H780 0.929 . S
C784 C786 1.378 . S
C784 C788 1.350 . S
C785 C788 1.463 . S
C785 C790 1.350 . S
C785 N793 1.427 . S
C786 H777 0.930 . S
C786 C784 1.378 . S
C786 C787 1.367 . S
C787 C786 1.367 . S
C787 C789 1.433 . S
C788 C784 1.350 . S
C788 C785 1.463 . S
C788 N792 1.427 . S
C789 H779 0.929 . S
C789 C787 1.433 . S
C789 N792 1.384 . S
C790 H781 0.929 . S
C790 C782 1.378 . S
C790 C785 1.350 . S
C791 H778 0.929 . S
C791 C783 1.433 . S
C791 N793 1.384 . S
N792 C788 1.427 . S
N792 C789 1.384 . S
N793 C785 1.427 . S
N793 C791 1.384 . S
H794 C800 0.930 . S
H795 C804 0.930 . S
H796 C809 0.929 . S
H797 C807 0.929 . S
H798 C802 0.929 . S
H799 C808 0.929 . S
C800 H794 0.930 . S
C800 C801 1.367 . S
C800 C808 1.378 . S
C801 C800 1.367 . S
C801 C809 1.433 . S
C802 H798 0.929 . S
C802 C804 1.378 . S
C802 C806 1.350 . S
C803 C806 1.463 . S
C803 C808 1.350 . S
C803 N811 1.427 . S
C804 H795 0.930 . S
C804 C802 1.378 . S
C804 C805 1.367 . S
C805 C804 1.367 . S
C805 C807 1.433 . S
C806 C802 1.350 . S
C806 C803 1.463 . S
C806 N810 1.427 . S
C807 H797 0.929 . S
C807 C805 1.433 . S
C807 N810 1.384 . S
C808 H799 0.929 . S
C808 C800 1.378 . S
C808 C803 1.350 . S
C809 H796 0.929 . S
C809 C801 1.433 . S
C809 N811 1.384 . S
N810 C806 1.427 . S
N810 C807 1.384 . S
N811 C803 1.427 . S
N811 C809 1.384 . S
H812 C818 0.930 . S
H813 C822 0.930 . S
H814 C827 0.923 1_655 S
H815 C825 0.929 . S
H816 C820 0.929 . S
H817 C826 0.929 . S
C818 H812 0.930 . S
C818 C819 1.367 . S
C818 C826 1.378 . S
C819 C818 1.367 . S
C819 C827 1.450 . S
C820 H816 0.929 . S
C820 C822 1.378 . S
C820 C824 1.350 . S
C821 C824 1.461 1_455 S
C821 C826 1.352 . S
C821 N829 1.426 1_455 S
C822 H813 0.930 . S
C822 C820 1.378 . S
C822 C823 1.367 . S
C823 C822 1.367 . S
C823 C825 1.433 . S
C824 C820 1.350 . S
C824 C821 1.461 1_655 S
C824 N828 1.442 . S
C825 H815 0.929 . S
C825 C823 1.433 . S
C825 N828 1.400 . S
C826 H817 0.929 . S
C826 C818 1.378 . S
C826 C821 1.352 . S
C827 H814 0.923 1_455 S
C827 C819 1.450 . S
C827 N829 1.375 1_455 S
N828 C824 1.442 . S
N828 C825 1.400 . S
N829 C821 1.426 1_655 S
N829 C827 1.375 1_655 S
H830 C836 0.930 . S
H831 C840 0.930 . S
H832 C845 0.929 . S
H833 C843 0.929 . S
H834 C838 0.929 . S
H835 C844 0.929 . S
C836 H830 0.930 . S
C836 C837 1.367 . S
C836 C844 1.378 1_554 S
C837 C836 1.367 . S
C837 C845 1.433 . S
C838 H834 0.929 . S
C838 C840 1.378 . S
C838 C842 1.350 . S
C839 C842 1.463 . S
C839 C844 1.350 . S
C839 N847 1.427 . S
C840 H831 0.930 . S
C840 C838 1.378 . S
C840 C841 1.367 . S
C841 C840 1.367 . S
C841 C843 1.433 . S
C842 C838 1.350 . S
C842 C839 1.463 . S
C842 N846 1.427 . S
C843 H833 0.929 . S
C843 C841 1.433 . S
C843 N846 1.384 . S
C844 H835 0.929 . S
C844 C836 1.378 1_556 S
C844 C839 1.350 . S
C845 H832 0.929 . S
C845 C837 1.433 . S
C845 N847 1.384 1_554 S
N846 C842 1.427 . S
N846 C843 1.384 . S
N847 C839 1.427 . S
N847 C845 1.384 1_556 S
H848 C854 0.930 . S
H849 C858 0.930 . S
H850 C863 0.929 . S
H851 C861 0.929 . S
H852 C856 0.929 . S
H853 C862 0.929 . S
C854 H848 0.930 . S
C854 C855 1.367 . S
C854 C862 1.378 . S
C855 C854 1.367 . S
C855 C863 1.433 . S
C856 H852 0.929 . S
C856 C858 1.378 . S
C856 C860 1.350 . S
C857 C860 1.463 . S
C857 C862 1.350 . S
C857 N865 1.427 . S
C858 H849 0.930 . S
C858 C856 1.378 . S
C858 C859 1.367 . S
C859 C858 1.367 . S
C859 C861 1.433 . S
C860 C856 1.350 . S
C860 C857 1.463 . S
C860 N864 1.427 . S
C861 H851 0.929 . S
C861 C859 1.433 . S
C861 N864 1.384 . S
C862 H853 0.929 . S
C862 C854 1.378 . S
C862 C857 1.350 . S
C863 H850 0.929 . S
C863 C855 1.433 . S
C863 N865 1.384 . S
N864 C860 1.427 . S
N864 C861 1.384 . S
N865 C857 1.427 . S
N865 C863 1.384 . S
H866 C872 0.930 . S
H867 C876 0.930 . S
H868 C881 0.929 . S
H869 C879 0.929 . S
H870 C874 0.929 . S
H871 C880 0.929 . S
C872 H866 0.930 . S
C872 C873 1.367 . S
C872 C880 1.378 . S
C873 C872 1.367 . S
C873 C881 1.433 . S
C874 H870 0.929 . S
C874 C876 1.378 . S
C874 C878 1.350 . S
C875 C878 1.463 . S
C875 C880 1.350 . S
C875 N883 1.427 . S
C876 H867 0.930 . S
C876 C874 1.378 . S
C876 C877 1.367 . S
C877 C876 1.367 . S
C877 C879 1.433 . S
C878 C874 1.350 . S
C878 C875 1.463 . S
C878 N882 1.427 . S
C879 H869 0.929 . S
C879 C877 1.433 . S
C879 N882 1.384 . S
C880 H871 0.929 . S
C880 C872 1.378 . S
C880 C875 1.350 . S
C881 H868 0.929 . S
C881 C873 1.433 . S
C881 N883 1.384 . S
N882 C878 1.427 . S
N882 C879 1.384 . S
N883 C875 1.427 . S
N883 C881 1.384 . S
H884 C890 0.961 . S
H885 C894 0.930 . S
H886 C899 0.929 . S
H887 C897 0.929 . S
H888 C892 0.929 . S
H889 C898 0.929 . S
C890 H884 0.961 . S
C890 C891 1.324 1_655 S
C890 C898 1.393 . S
C891 C890 1.324 1_455 S
C891 C899 1.433 . S
C892 H888 0.929 . S
C892 C894 1.378 . S
C892 C896 1.363 . S
C893 C896 1.468 . S
C893 C898 1.350 1_455 S
C893 N901 1.427 . S
C894 H885 0.930 . S
C894 C892 1.378 . S
C894 C895 1.367 1_455 S
C895 C894 1.367 1_655 S
C895 C897 1.433 . S
C896 C892 1.363 . S
C896 C893 1.468 . S
C896 N900 1.409 1_455 S
C897 H887 0.929 . S
C897 C895 1.433 . S
C897 N900 1.384 . S
C898 H889 0.929 . S
C898 C890 1.393 . S
C898 C893 1.350 1_655 S
C899 H886 0.929 . S
C899 C891 1.433 . S
C899 N901 1.384 . S
N900 C896 1.409 1_655 S
N900 C897 1.384 . S
N901 C893 1.427 . S
N901 C899 1.384 . S
H902 C908 0.930 . S
H903 C912 0.930 . S
H904 C917 0.929 . S
H905 C915 0.929 . S
H906 C910 0.929 . S
H907 C916 0.929 . S
C908 H902 0.930 . S
C908 C909 1.367 . S
C908 C916 1.378 . S
C909 C908 1.367 . S
C909 C917 1.433 . S
C910 H906 0.929 . S
C910 C912 1.378 1_556 S
C910 C914 1.350 . S
C911 C914 1.463 . S
C911 C916 1.350 . S
C911 N919 1.427 . S
C912 H903 0.930 . S
C912 C910 1.378 1_554 S
C912 C913 1.367 . S
C913 C912 1.367 . S
C913 C915 1.433 . S
C914 C910 1.350 . S
C914 C911 1.463 . S
C914 N918 1.427 . S
C915 H905 0.929 . S
C915 C913 1.433 . S
C915 N918 1.384 1_554 S
C916 H907 0.929 . S
C916 C908 1.378 . S
C916 C911 1.350 . S
C917 H904 0.929 . S
C917 C909 1.433 . S
C917 N919 1.384 . S
N918 C914 1.427 . S
N918 C915 1.384 1_556 S
N919 C911 1.427 . S
N919 C917 1.384 . S
H920 C926 0.930 . S
H921 C930 0.930 . S
H922 C935 0.929 . S
H923 C933 0.929 . S
H924 C928 0.929 . S
H925 C934 0.929 . S
C926 H920 0.930 . S
C926 C927 1.367 . S
C926 C934 1.378 . S
C927 C926 1.367 . S
C927 C935 1.433 . S
C928 H924 0.929 . S
C928 C930 1.378 . S
C928 C932 1.350 . S
C929 C932 1.463 . S
C929 C934 1.350 . S
C929 N937 1.427 . S
C930 H921 0.930 . S
C930 C928 1.378 . S
C930 C931 1.367 . S
C931 C930 1.367 . S
C931 C933 1.433 . S
C932 C928 1.350 . S
C932 C929 1.463 . S
C932 N936 1.427 . S
C933 H923 0.929 . S
C933 C931 1.433 . S
C933 N936 1.384 . S
C934 H925 0.929 . S
C934 C926 1.378 . S
C934 C929 1.350 . S
C935 H922 0.929 . S
C935 C927 1.433 . S
C935 N937 1.384 . S
N936 C932 1.427 . S
N936 C933 1.384 . S
N937 C929 1.427 . S
N937 C935 1.384 . S
H938 C944 0.930 . S
H939 C948 0.930 . S
H940 C953 0.929 . S
H941 C951 0.929 . S
H942 C946 0.929 . S
H943 C952 0.929 . S
C944 H938 0.930 . S
C944 C945 1.367 . S
C944 C952 1.378 . S
C945 C944 1.367 . S
C945 C953 1.433 . S
C946 H942 0.929 . S
C946 C948 1.378 . S
C946 C950 1.350 . S
C947 C950 1.463 . S
C947 C952 1.350 . S
C947 N955 1.427 . S
C948 H939 0.930 . S
C948 C946 1.378 . S
C948 C949 1.367 . S
C949 C948 1.367 . S
C949 C951 1.433 . S
C950 C946 1.350 . S
C950 C947 1.463 . S
C950 N954 1.427 . S
C951 H941 0.929 . S
C951 C949 1.433 . S
C951 N954 1.384 . S
C952 H943 0.929 . S
C952 C944 1.378 . S
C952 C947 1.350 . S
C953 H940 0.929 . S
C953 C945 1.433 . S
C953 N955 1.384 . S
N954 C950 1.427 . S
N954 C951 1.384 . S
N955 C947 1.427 . S
N955 C953 1.384 . S
H956 C962 0.930 . S
H957 C966 0.930 . S
H958 C971 0.929 . S
H959 C969 0.961 . S
H960 C964 0.929 . S
H961 C970 0.929 . S
C962 H956 0.930 . S
C962 C963 1.367 . S
C962 C970 1.378 . S
C963 C962 1.367 . S
C963 C971 1.433 1_655 S
C964 H960 0.929 . S
C964 C966 1.378 . S
C964 C968 1.350 . S
C965 C968 1.457 1_655 S
C965 C970 1.365 . S
C965 N973 1.417 1_655 S
C966 H957 0.930 . S
C966 C964 1.378 . S
C966 C967 1.367 . S
C967 C966 1.367 . S
C967 C969 1.388 1_455 S
C968 C964 1.350 . S
C968 C965 1.457 1_455 S
C968 N972 1.427 1_455 S
C969 H959 0.961 . S
C969 C967 1.388 1_655 S
C969 N972 1.399 . S
C970 H961 0.929 . S
C970 C962 1.378 . S
C970 C965 1.365 . S
C971 H958 0.929 . S
C971 C963 1.433 1_455 S
C971 N973 1.384 . S
N972 C968 1.427 1_655 S
N972 C969 1.399 . S
N973 C965 1.417 1_455 S
N973 C971 1.384 . S
H974 C980 0.930 . S
H975 C984 0.930 . S
H976 C989 0.929 . S
H977 C987 0.929 . S
H978 C982 0.929 . S
H979 C988 0.929 . S
C980 H974 0.930 . S
C980 C981 1.367 . S
C980 C988 1.378 . S
C981 C980 1.367 . S
C981 C989 1.433 . S
C982 H978 0.929 . S
C982 C984 1.378 1_554 S
C982 C986 1.350 . S
C983 C986 1.463 . S
C983 C988 1.350 . S
C983 N991 1.427 . S
C984 H975 0.930 . S
C984 C982 1.378 1_556 S
C984 C985 1.367 . S
C985 C984 1.367 . S
C985 C987 1.433 . S
C986 C982 1.350 . S
C986 C983 1.463 . S
C986 N990 1.427 . S
C987 H977 0.929 . S
C987 C985 1.433 . S
C987 N990 1.384 1_556 S
C988 H979 0.929 . S
C988 C980 1.378 . S
C988 C983 1.350 . S
C989 H976 0.929 . S
C989 C981 1.433 . S
C989 N991 1.384 . S
N990 C986 1.427 . S
N990 C987 1.384 1_554 S
N991 C983 1.427 . S
N991 C989 1.384 . S
H992 C998 0.930 . S
H993 C1002 0.930 . S
H994 C1007 0.929 . S
H995 C1005 0.929 . S
H996 C1000 0.929 . S
H997 C1006 0.929 . S
C998 H992 0.930 . S
C998 C999 1.367 . S
C998 C1006 1.378 . S
C999 C998 1.367 . S
C999 C1007 1.433 1_654 S
C1000 H996 0.929 . S
C1000 C1002 1.378 . S
C1000 C1004 1.350 . S
C1001 C1004 1.463 1_644 S
C1001 C1006 1.350 . S
C1001 N1009 1.427 1_654 S
C1002 H993 0.930 . S
C1002 C1000 1.378 . S
C1002 C1003 1.367 . S
C1003 C1002 1.367 . S
C1003 C1005 1.433 1_456 S
C1004 C1000 1.350 . S
C1004 C1001 1.463 1_466 S
C1004 N1008 1.427 1_456 S
C1005 H995 0.929 . S
C1005 C1003 1.433 1_654 S
C1005 N1008 1.384 . S
C1006 H997 0.929 . S
C1006 C998 1.378 . S
C1006 C1001 1.350 . S
C1007 H994 0.929 . S
C1007 C999 1.433 1_456 S
C1007 N1009 1.384 . S
N1008 C1004 1.427 1_654 S
N1008 C1005 1.384 . S
N1009 C1001 1.427 1_456 S
N1009 C1007 1.384 . S
H1010 C1016 0.930 . S
H1011 C1020 0.930 . S
H1012 C1025 0.929 . S
H1013 C1023 0.929 . S
H1014 C1018 0.929 . S
H1015 C1024 0.929 . S
C1016 H1010 0.930 . S
C1016 C1017 1.367 . S
C1016 C1024 1.378 . S
C1017 C1016 1.367 . S
C1017 C1025 1.433 . S
C1018 H1014 0.929 . S
C1018 C1020 1.378 . S
C1018 C1022 1.350 . S
C1019 C1022 1.463 . S
C1019 C1024 1.350 . S
C1019 N1027 1.427 . S
C1020 H1011 0.930 . S
C1020 C1018 1.378 . S
C1020 C1021 1.367 . S
C1021 C1020 1.367 . S
C1021 C1023 1.433 . S
C1022 C1018 1.350 . S
C1022 C1019 1.463 . S
C1022 N1026 1.427 . S
C1023 H1013 0.929 . S
C1023 C1021 1.433 . S
C1023 N1026 1.384 . S
C1024 H1015 0.929 . S
C1024 C1016 1.378 . S
C1024 C1019 1.350 . S
C1025 H1012 0.929 . S
C1025 C1017 1.433 . S
C1025 N1027 1.384 . S
N1026 C1022 1.427 . S
N1026 C1023 1.384 . S
N1027 C1019 1.427 . S
N1027 C1025 1.384 . S
H1028 C1034 0.930 . S
H1029 C1038 0.930 . S
H1030 C1043 0.929 . S
H1031 C1041 0.929 . S
H1032 C1036 0.929 . S
H1033 C1042 0.929 . S
C1034 H1028 0.930 . S
C1034 C1035 1.367 . S
C1034 C1042 1.378 . S
C1035 C1034 1.367 . S
C1035 C1043 1.433 . S
C1036 H1032 0.929 . S
C1036 C1038 1.378 . S
C1036 C1040 1.350 . S
C1037 C1040 1.463 1_545 S
C1037 C1042 1.350 . S
C1037 N1045 1.427 . S
C1038 H1029 0.930 . S
C1038 C1036 1.378 . S
C1038 C1039 1.367 . S
C1039 C1038 1.367 . S
C1039 C1041 1.433 . S
C1040 C1036 1.350 . S
C1040 C1037 1.463 1_565 S
C1040 N1044 1.427 . S
C1041 H1031 0.929 . S
C1041 C1039 1.433 . S
C1041 N1044 1.384 . S
C1042 H1033 0.929 . S
C1042 C1034 1.378 . S
C1042 C1037 1.350 . S
C1043 H1030 0.929 . S
C1043 C1035 1.433 . S
C1043 N1045 1.384 . S
N1044 C1040 1.427 . S
N1044 C1041 1.384 . S
N1045 C1037 1.427 . S
N1045 C1043 1.384 . S
H1046 C1052 0.930 . S
H1047 C1056 0.930 . S
H1048 C1061 0.929 . S
H1049 C1059 0.929 . S
H1050 C1054 0.929 . S
H1051 C1060 0.929 . S
C1052 H1046 0.930 . S
C1052 C1053 1.367 . S
C1052 C1060 1.378 . S
C1053 C1052 1.367 . S
C1053 C1061 1.433 . S
C1054 H1050 0.929 . S
C1054 C1056 1.378 . S
C1054 C1058 1.350 . S
C1055 C1058 1.463 . S
C1055 C1060 1.350 . S
C1055 N1063 1.427 . S
C1056 H1047 0.930 . S
C1056 C1054 1.378 . S
C1056 C1057 1.367 . S
C1057 C1056 1.367 . S
C1057 C1059 1.433 . S
C1058 C1054 1.350 . S
C1058 C1055 1.463 . S
C1058 N1062 1.427 . S
C1059 H1049 0.929 . S
C1059 C1057 1.433 . S
C1059 N1062 1.384 . S
C1060 H1051 0.929 . S
C1060 C1052 1.378 . S
C1060 C1055 1.350 . S
C1061 H1048 0.929 . S
C1061 C1053 1.433 . S
C1061 N1063 1.384 . S
N1062 C1058 1.427 . S
N1062 C1059 1.384 . S
N1063 C1055 1.427 . S
N1063 C1061 1.384 . S
H1064 C1070 0.930 . S
H1065 C1074 0.930 . S
H1066 C1079 0.929 . S
H1067 C1077 0.929 . S
H1068 C1072 0.929 . S
H1069 C1078 0.929 . S
C1070 H1064 0.930 . S
C1070 C1071 1.367 1_455 S
C1070 C1078 1.378 . S
C1071 C1070 1.367 1_655 S
C1071 C1079 1.433 . S
C1072 H1068 0.929 . S
C1072 C1074 1.378 . S
C1072 C1076 1.318 1_655 S
C1073 C1076 1.459 1_665 S
C1073 C1078 1.318 1_655 S
C1073 N1081 1.464 . S
C1074 H1065 0.930 . S
C1074 C1072 1.378 . S
C1074 C1075 1.367 1_655 S
C1075 C1074 1.367 1_455 S
C1075 C1077 1.433 . S
C1076 C1072 1.318 1_455 S
C1076 C1073 1.459 1_445 S
C1076 N1080 1.464 . S
C1077 H1067 0.929 . S
C1077 C1075 1.433 . S
C1077 N1080 1.384 . S
C1078 H1069 0.929 . S
C1078 C1070 1.378 . S
C1078 C1073 1.318 1_455 S
C1079 H1066 0.929 . S
C1079 C1071 1.433 . S
C1079 N1081 1.384 . S
N1080 C1076 1.464 . S
N1080 C1077 1.384 . S
N1081 C1073 1.464 . S
N1081 C1079 1.384 . S
H1082 C1088 0.930 . S
H1083 C1092 0.930 . S
H1084 C1097 0.929 . S
H1085 C1095 0.929 . S
H1086 C1090 0.929 . S
H1087 C1096 0.929 . S
C1088 H1082 0.930 . S
C1088 C1089 1.367 . S
C1088 C1096 1.378 . S
C1089 C1088 1.367 . S
C1089 C1097 1.433 . S
C1090 H1086 0.929 . S
C1090 C1092 1.378 . S
C1090 C1094 1.350 . S
C1091 C1094 1.463 . S
C1091 C1096 1.350 . S
C1091 N1099 1.427 . S
C1092 H1083 0.930 . S
C1092 C1090 1.378 . S
C1092 C1093 1.367 . S
C1093 C1092 1.367 . S
C1093 C1095 1.433 . S
C1094 C1090 1.350 . S
C1094 C1091 1.463 . S
C1094 N1098 1.427 . S
C1095 H1085 0.929 . S
C1095 C1093 1.433 . S
C1095 N1098 1.384 . S
C1096 H1087 0.929 . S
C1096 C1088 1.378 . S
C1096 C1091 1.350 . S
C1097 H1084 0.929 . S
C1097 C1089 1.433 . S
C1097 N1099 1.384 . S
N1098 C1094 1.427 . S
N1098 C1095 1.384 . S
N1099 C1091 1.427 . S
N1099 C1097 1.384 . S
H1100 C1106 0.930 . S
H1101 C1110 0.930 . S
H1102 C1115 0.929 . S
H1103 C1113 0.929 . S
H1104 C1108 0.929 . S
H1105 C1114 0.929 . S
C1106 H1100 0.930 . S
C1106 C1107 1.367 . S
C1106 C1114 1.378 . S
C1107 C1106 1.367 . S
C1107 C1115 1.433 1_554 S
C1108 H1104 0.929 . S
C1108 C1110 1.378 . S
C1108 C1112 1.350 . S
C1109 C1112 1.463 1_564 S
C1109 C1114 1.350 . S
C1109 N1117 1.427 1_554 S
C1110 H1101 0.930 . S
C1110 C1108 1.378 . S
C1110 C1111 1.367 . S
C1111 C1110 1.367 . S
C1111 C1113 1.433 1_556 S
C1112 C1108 1.350 . S
C1112 C1109 1.463 1_546 S
C1112 N1116 1.427 1_556 S
C1113 H1103 0.929 . S
C1113 C1111 1.433 1_554 S
C1113 N1116 1.384 . S
C1114 H1105 0.929 . S
C1114 C1106 1.378 . S
C1114 C1109 1.350 . S
C1115 H1102 0.929 . S
C1115 C1107 1.433 1_556 S
C1115 N1117 1.384 . S
N1116 C1112 1.427 1_554 S
N1116 C1113 1.384 . S
N1117 C1109 1.427 1_556 S
N1117 C1115 1.384 . S
H1118 C1124 0.930 . S
H1119 C1128 0.930 . S
H1120 C1133 0.929 . S
H1121 C1131 0.929 . S
H1122 C1126 0.929 . S
H1123 C1132 0.929 . S
C1124 H1118 0.930 . S
C1124 C1125 1.367 . S
C1124 C1132 1.378 . S
C1125 C1124 1.367 . S
C1125 C1133 1.433 . S
C1126 H1122 0.929 . S
C1126 C1128 1.378 . S
C1126 C1130 1.350 . S
C1127 C1130 1.463 . S
C1127 C1132 1.350 . S
C1127 N1135 1.427 . S
C1128 H1119 0.930 . S
C1128 C1126 1.378 . S
C1128 C1129 1.367 . S
C1129 C1128 1.367 . S
C1129 C1131 1.433 . S
C1130 C1126 1.350 . S
C1130 C1127 1.463 . S
C1130 N1134 1.427 . S
C1131 H1121 0.929 . S
C1131 C1129 1.433 . S
C1131 N1134 1.384 . S
C1132 H1123 0.929 . S
C1132 C1124 1.378 . S
C1132 C1127 1.350 . S
C1133 H1120 0.929 . S
C1133 C1125 1.433 . S
C1133 N1135 1.384 . S
N1134 C1130 1.427 . S
N1134 C1131 1.384 . S
N1135 C1127 1.427 . S
N1135 C1133 1.384 . S
H1136 C1142 0.930 . S
H1137 C1146 0.930 . S
H1138 C1151 0.929 . S
H1139 C1149 0.929 . S
H1140 C1144 0.929 . S
H1141 C1150 0.929 . S
C1142 H1136 0.930 . S
C1142 C1143 1.367 . S
C1142 C1150 1.378 . S
C1143 C1142 1.367 . S
C1143 C1151 1.433 . S
C1144 H1140 0.929 . S
C1144 C1146 1.378 . S
C1144 C1148 1.350 . S
C1145 C1148 1.463 . S
C1145 C1150 1.350 . S
C1145 N1153 1.427 . S
C1146 H1137 0.930 . S
C1146 C1144 1.378 . S
C1146 C1147 1.367 . S
C1147 C1146 1.367 . S
C1147 C1149 1.433 . S
C1148 C1144 1.350 . S
C1148 C1145 1.463 . S
C1148 N1152 1.427 . S
C1149 H1139 0.929 . S
C1149 C1147 1.433 . S
C1149 N1152 1.384 . S
C1150 H1141 0.929 . S
C1150 C1142 1.378 . S
C1150 C1145 1.350 . S
C1151 H1138 0.929 . S
C1151 C1143 1.433 . S
C1151 N1153 1.384 . S
N1152 C1148 1.427 . S
N1152 C1149 1.384 . S
N1153 C1145 1.427 . S
N1153 C1151 1.384 . S
H1154 C1160 0.930 . S
H1155 C1164 0.930 . S
H1156 C1169 0.929 . S
H1157 C1167 0.929 . S
H1158 C1162 0.929 . S
H1159 C1168 0.929 . S
C1160 H1154 0.930 . S
C1160 C1161 1.367 . S
C1160 C1168 1.378 . S
C1161 C1160 1.367 . S
C1161 C1169 1.433 . S
C1162 H1158 0.929 . S
C1162 C1164 1.378 . S
C1162 C1166 1.350 . S
C1163 C1166 1.463 . S
C1163 C1168 1.350 . S
C1163 N1171 1.427 . S
C1164 H1155 0.930 . S
C1164 C1162 1.378 . S
C1164 C1165 1.367 . S
C1165 C1164 1.367 . S
C1165 C1167 1.433 . S
C1166 C1162 1.350 . S
C1166 C1163 1.463 . S
C1166 N1170 1.427 . S
C1167 H1157 0.929 . S
C1167 C1165 1.433 . S
C1167 N1170 1.384 . S
C1168 H1159 0.929 . S
C1168 C1160 1.378 . S
C1168 C1163 1.350 . S
C1169 H1156 0.929 . S
C1169 C1161 1.433 . S
C1169 N1171 1.384 . S
N1170 C1166 1.427 . S
N1170 C1167 1.384 . S
N1171 C1163 1.427 . S
N1171 C1169 1.384 . S
H1172 C1178 0.930 . S
H1173 C1182 0.930 . S
H1174 C1187 0.929 . S
H1175 C1185 0.929 . S
H1176 C1180 0.929 . S
H1177 C1186 0.929 . S
C1178 H1172 0.930 . S
C1178 C1179 1.367 . S
C1178 C1186 1.378 . S
C1179 C1178 1.367 . S
C1179 C1187 1.433 . S
C1180 H1176 0.929 . S
C1180 C1182 1.378 . S
C1180 C1184 1.350 . S
C1181 C1184 1.463 . S
C1181 C1186 1.350 . S
C1181 N1189 1.427 . S
C1182 H1173 0.930 . S
C1182 C1180 1.378 . S
C1182 C1183 1.367 . S
C1183 C1182 1.367 . S
C1183 C1185 1.433 . S
C1184 C1180 1.350 . S
C1184 C1181 1.463 . S
C1184 N1188 1.427 . S
C1185 H1175 0.929 . S
C1185 C1183 1.433 . S
C1185 N1188 1.384 . S
C1186 H1177 0.929 . S
C1186 C1178 1.378 . S
C1186 C1181 1.350 . S
C1187 H1174 0.929 . S
C1187 C1179 1.433 . S
C1187 N1189 1.384 . S
N1188 C1184 1.427 . S
N1188 C1185 1.384 . S
N1189 C1181 1.427 . S
N1189 C1187 1.384 . S
H1190 C1196 0.930 . S
H1191 C1200 0.930 . S
H1192 C1205 0.929 . S
H1193 C1203 0.929 . S
H1194 C1198 0.929 . S
H1195 C1204 0.929 . S
C1196 H1190 0.930 . S
C1196 C1197 1.367 . S
C1196 C1204 1.378 . S
C1197 C1196 1.367 . S
C1197 C1205 1.433 . S
C1198 H1194 0.929 . S
C1198 C1200 1.378 . S
C1198 C1202 1.350 . S
C1199 C1202 1.463 . S
C1199 C1204 1.350 . S
C1199 N1207 1.427 . S
C1200 H1191 0.930 . S
C1200 C1198 1.378 . S
C1200 C1201 1.367 . S
C1201 C1200 1.367 . S
C1201 C1203 1.433 . S
C1202 C1198 1.350 . S
C1202 C1199 1.463 . S
C1202 N1206 1.427 . S
C1203 H1193 0.929 . S
C1203 C1201 1.433 . S
C1203 N1206 1.384 . S
C1204 H1195 0.929 . S
C1204 C1196 1.378 . S
C1204 C1199 1.350 . S
C1205 H1192 0.929 . S
C1205 C1197 1.433 . S
C1205 N1207 1.384 . S
N1206 C1202 1.427 . S
N1206 C1203 1.384 . S
N1207 C1199 1.427 . S
N1207 C1205 1.384 . S
H1208 C1214 0.930 . S
H1209 C1218 0.930 . S
H1210 C1223 0.929 . S
H1211 C1221 0.929 . S
H1212 C1216 0.929 . S
H1213 C1222 0.929 . S
C1214 H1208 0.930 . S
C1214 C1215 1.367 . S
C1214 C1222 1.378 . S
C1215 C1214 1.367 . S
C1215 C1223 1.433 . S
C1216 H1212 0.929 . S
C1216 C1218 1.378 . S
C1216 C1220 1.350 . S
C1217 C1220 1.463 . S
C1217 C1222 1.350 . S
C1217 N1225 1.427 . S
C1218 H1209 0.930 . S
C1218 C1216 1.378 . S
C1218 C1219 1.367 . S
C1219 C1218 1.367 . S
C1219 C1221 1.433 . S
C1220 C1216 1.350 . S
C1220 C1217 1.463 . S
C1220 N1224 1.427 . S
C1221 H1211 0.929 . S
C1221 C1219 1.433 . S
C1221 N1224 1.384 . S
C1222 H1213 0.929 . S
C1222 C1214 1.378 . S
C1222 C1217 1.350 . S
C1223 H1210 0.929 . S
C1223 C1215 1.433 . S
C1223 N1225 1.384 . S
N1224 C1220 1.427 . S
N1224 C1221 1.384 . S
N1225 C1217 1.427 . S
N1225 C1223 1.384 . S
H1226 C1232 0.936 . S
H1227 C1236 0.936 . S
H1228 C1241 0.929 . S
H1229 C1239 0.929 . S
H1230 C1234 0.929 . S
H1231 C1240 0.929 . S
C1232 H1226 0.936 . S
C1232 C1233 1.367 . S
C1232 C1240 1.378 1_554 S
C1233 C1232 1.367 . S
C1233 C1241 1.433 1_455 S
C1234 H1230 0.929 . S
C1234 C1236 1.378 1_554 S
C1234 C1238 1.350 1_554 S
C1235 C1238 1.463 1_454 S
C1235 C1240 1.350 1_554 S
C1235 N1243 1.427 1_455 S
C1236 H1227 0.936 . S
C1236 C1234 1.378 1_556 S
C1236 C1237 1.367 . S
C1237 C1236 1.367 . S
C1237 C1239 1.433 1_655 S
C1238 C1234 1.350 1_556 S
C1238 C1235 1.463 1_656 S
C1238 N1242 1.427 1_655 S
C1239 H1229 0.929 . S
C1239 C1237 1.433 1_455 S
C1239 N1242 1.384 . S
C1240 H1231 0.929 . S
C1240 C1232 1.378 1_556 S
C1240 C1235 1.350 1_556 S
C1241 H1228 0.929 . S
C1241 C1233 1.433 1_655 S
C1241 N1243 1.384 . S
N1242 C1238 1.427 1_455 S
N1242 C1239 1.384 . S
N1243 C1235 1.427 1_655 S
N1243 C1241 1.384 . S
H1244 C1250 0.930 . S
H1245 C1254 0.930 . S
H1246 C1259 0.929 . S
H1247 C1257 0.929 . S
H1248 C1252 0.929 . S
H1249 C1258 0.929 . S
C1250 H1244 0.930 . S
C1250 C1251 1.367 . S
C1250 C1258 1.378 . S
C1251 C1250 1.367 . S
C1251 C1259 1.433 . S
C1252 H1248 0.929 . S
C1252 C1254 1.378 . S
C1252 C1256 1.350 . S
C1253 C1256 1.463 1_556 S
C1253 C1258 1.350 . S
C1253 N1261 1.427 1_556 S
C1254 H1245 0.930 . S
C1254 C1252 1.378 . S
C1254 C1255 1.367 . S
C1255 C1254 1.367 . S
C1255 C1257 1.433 . S
C1256 C1252 1.350 . S
C1256 C1253 1.463 1_554 S
C1256 N1260 1.427 1_554 S
C1257 H1247 0.929 . S
C1257 C1255 1.433 . S
C1257 N1260 1.384 1_554 S
C1258 H1249 0.929 . S
C1258 C1250 1.378 . S
C1258 C1253 1.350 . S
C1259 H1246 0.929 . S
C1259 C1251 1.433 . S
C1259 N1261 1.384 1_556 S
N1260 C1256 1.427 1_556 S
N1260 C1257 1.384 1_556 S
N1261 C1253 1.427 1_554 S
N1261 C1259 1.384 1_554 S
H1262 C1268 0.930 . S
H1263 C1272 0.930 . S
H1264 C1277 0.929 . S
H1265 C1275 0.929 . S
H1266 C1270 0.929 . S
H1267 C1276 0.929 . S
C1268 H1262 0.930 . S
C1268 C1269 1.367 . S
C1268 C1276 1.378 . S
C1269 C1268 1.367 . S
C1269 C1277 1.433 1_655 S
C1270 H1266 0.929 . S
C1270 C1272 1.378 . S
C1270 C1274 1.350 . S
C1271 C1274 1.463 1_655 S
C1271 C1276 1.350 . S
C1271 N1279 1.427 1_655 S
C1272 H1263 0.930 . S
C1272 C1270 1.378 . S
C1272 C1273 1.367 . S
C1273 C1272 1.367 . S
C1273 C1275 1.433 1_455 S
C1274 C1270 1.350 . S
C1274 C1271 1.463 1_455 S
C1274 N1278 1.427 1_455 S
C1275 H1265 0.929 . S
C1275 C1273 1.433 1_655 S
C1275 N1278 1.384 . S
C1276 H1267 0.929 . S
C1276 C1268 1.378 . S
C1276 C1271 1.350 . S
C1277 H1264 0.929 . S
C1277 C1269 1.433 1_455 S
C1277 N1279 1.384 . S
N1278 C1274 1.427 1_655 S
N1278 C1275 1.384 . S
N1279 C1271 1.427 1_455 S
N1279 C1277 1.384 . S
H1280 C1286 0.930 . S
H1281 C1290 0.930 . S
H1282 C1295 0.929 . S
H1283 C1293 0.929 . S
H1284 C1288 0.929 . S
H1285 C1294 0.929 . S
C1286 H1280 0.930 . S
C1286 C1287 1.367 . S
C1286 C1294 1.378 . S
C1287 C1286 1.367 . S
C1287 C1295 1.433 . S
C1288 H1284 0.929 . S
C1288 C1290 1.378 . S
C1288 C1292 1.350 . S
C1289 C1292 1.463 . S
C1289 C1294 1.350 . S
C1289 N1297 1.427 . S
C1290 H1281 0.930 . S
C1290 C1288 1.378 . S
C1290 C1291 1.367 . S
C1291 C1290 1.367 . S
C1291 C1293 1.433 . S
C1292 C1288 1.350 . S
C1292 C1289 1.463 . S
C1292 N1296 1.427 . S
C1293 H1283 0.929 . S
C1293 C1291 1.433 . S
C1293 N1296 1.384 . S
C1294 H1285 0.929 . S
C1294 C1286 1.378 . S
C1294 C1289 1.350 . S
C1295 H1282 0.929 . S
C1295 C1287 1.433 . S
C1295 N1297 1.384 . S
N1296 C1292 1.427 . S
N1296 C1293 1.384 . S
N1297 C1289 1.427 . S
N1297 C1295 1.384 . S
H1298 C1304 0.930 . S
H1299 C1308 0.930 . S
H1300 C1313 0.929 . S
H1301 C1311 0.929 . S
H1302 C1306 0.929 . S
H1303 C1312 0.929 . S
C1304 H1298 0.930 . S
C1304 C1305 1.367 . S
C1304 C1312 1.378 . S
C1305 C1304 1.367 . S
C1305 C1313 1.433 . S
C1306 H1302 0.929 . S
C1306 C1308 1.378 . S
C1306 C1310 1.350 . S
C1307 C1310 1.463 . S
C1307 C1312 1.350 . S
C1307 N1315 1.427 . S
C1308 H1299 0.930 . S
C1308 C1306 1.378 . S
C1308 C1309 1.367 . S
C1309 C1308 1.367 . S
C1309 C1311 1.433 . S
C1310 C1306 1.350 . S
C1310 C1307 1.463 . S
C1310 N1314 1.427 . S
C1311 H1301 0.929 . S
C1311 C1309 1.433 . S
C1311 N1314 1.384 . S
C1312 H1303 0.929 . S
C1312 C1304 1.378 . S
C1312 C1307 1.350 . S
C1313 H1300 0.929 . S
C1313 C1305 1.433 . S
C1313 N1315 1.384 . S
N1314 C1310 1.427 . S
N1314 C1311 1.384 . S
N1315 C1307 1.427 . S
N1315 C1313 1.384 . S
H1316 C1322 0.930 . S
H1317 C1326 0.930 . S
H1318 C1331 0.929 . S
H1319 C1329 0.929 . S
H1320 C1324 0.929 . S
H1321 C1330 0.929 . S
C1322 H1316 0.930 . S
C1322 C1323 1.367 . S
C1322 C1330 1.378 . S
C1323 C1322 1.367 . S
C1323 C1331 1.433 . S
C1324 H1320 0.929 . S
C1324 C1326 1.378 . S
C1324 C1328 1.350 . S
C1325 C1328 1.463 . S
C1325 C1330 1.350 . S
C1325 N1333 1.427 . S
C1326 H1317 0.930 . S
C1326 C1324 1.378 . S
C1326 C1327 1.367 . S
C1327 C1326 1.367 . S
C1327 C1329 1.433 . S
C1328 C1324 1.350 . S
C1328 C1325 1.463 . S
C1328 N1332 1.427 . S
C1329 H1319 0.929 . S
C1329 C1327 1.433 . S
C1329 N1332 1.384 . S
C1330 H1321 0.929 . S
C1330 C1322 1.378 . S
C1330 C1325 1.350 . S
C1331 H1318 0.929 . S
C1331 C1323 1.433 . S
C1331 N1333 1.384 . S
N1332 C1328 1.427 . S
N1332 C1329 1.384 . S
N1333 C1325 1.427 . S
N1333 C1331 1.384 . S
H1334 C1340 0.930 . S
H1335 C1344 0.930 . S
H1336 C1349 0.929 . S
H1337 C1347 0.929 . S
H1338 C1342 0.929 . S
H1339 C1348 0.929 . S
C1340 H1334 0.930 . S
C1340 C1341 1.367 . S
C1340 C1348 1.378 . S
C1341 C1340 1.367 . S
C1341 C1349 1.433 . S
C1342 H1338 0.929 . S
C1342 C1344 1.378 . S
C1342 C1346 1.350 . S
C1343 C1346 1.463 . S
C1343 C1348 1.350 . S
C1343 N1351 1.427 . S
C1344 H1335 0.930 . S
C1344 C1342 1.378 . S
C1344 C1345 1.367 . S
C1345 C1344 1.367 . S
C1345 C1347 1.433 . S
C1346 C1342 1.350 . S
C1346 C1343 1.463 . S
C1346 N1350 1.427 . S
C1347 H1337 0.929 . S
C1347 C1345 1.433 . S
C1347 N1350 1.384 . S
C1348 H1339 0.929 . S
C1348 C1340 1.378 . S
C1348 C1343 1.350 . S
C1349 H1336 0.929 . S
C1349 C1341 1.433 . S
C1349 N1351 1.384 . S
N1350 C1346 1.427 . S
N1350 C1347 1.384 . S
N1351 C1343 1.427 . S
N1351 C1349 1.384 . S
H1352 C1358 0.930 . S
H1353 C1362 0.930 . S
H1354 C1367 0.929 . S
H1355 C1365 0.929 . S
H1356 C1360 0.929 . S
H1357 C1366 0.929 . S
C1358 H1352 0.930 . S
C1358 C1359 1.367 . S
C1358 C1366 1.378 . S
C1359 C1358 1.367 . S
C1359 C1367 1.433 . S
C1360 H1356 0.929 . S
C1360 C1362 1.378 . S
C1360 C1364 1.350 . S
C1361 C1364 1.463 . S
C1361 C1366 1.350 . S
C1361 N1369 1.427 . S
C1362 H1353 0.930 . S
C1362 C1360 1.378 . S
C1362 C1363 1.367 . S
C1363 C1362 1.367 . S
C1363 C1365 1.433 . S
C1364 C1360 1.350 . S
C1364 C1361 1.463 . S
C1364 N1368 1.427 . S
C1365 H1355 0.929 . S
C1365 C1363 1.433 . S
C1365 N1368 1.384 . S
C1366 H1357 0.929 . S
C1366 C1358 1.378 . S
C1366 C1361 1.350 . S
C1367 H1354 0.929 . S
C1367 C1359 1.433 . S
C1367 N1369 1.384 . S
N1368 C1364 1.427 . S
N1368 C1365 1.384 . S
N1369 C1361 1.427 . S
N1369 C1367 1.384 . S
H1370 C1376 0.930 . S
H1371 C1380 0.930 . S
H1372 C1385 0.929 . S
H1373 C1383 0.929 . S
H1374 C1378 0.929 . S
H1375 C1384 0.929 . S
C1376 H1370 0.930 . S
C1376 C1377 1.367 . S
C1376 C1384 1.378 . S
C1377 C1376 1.367 . S
C1377 C1385 1.433 . S
C1378 H1374 0.929 . S
C1378 C1380 1.378 . S
C1378 C1382 1.350 . S
C1379 C1382 1.463 . S
C1379 C1384 1.350 . S
C1379 N1387 1.427 . S
C1380 H1371 0.930 . S
C1380 C1378 1.378 . S
C1380 C1381 1.367 . S
C1381 C1380 1.367 . S
C1381 C1383 1.433 . S
C1382 C1378 1.350 . S
C1382 C1379 1.463 . S
C1382 N1386 1.427 . S
C1383 H1373 0.929 . S
C1383 C1381 1.433 . S
C1383 N1386 1.384 . S
C1384 H1375 0.929 . S
C1384 C1376 1.378 . S
C1384 C1379 1.350 . S
C1385 H1372 0.929 . S
C1385 C1377 1.433 . S
C1385 N1387 1.384 . S
N1386 C1382 1.427 . S
N1386 C1383 1.384 . S
N1387 C1379 1.427 . S
N1387 C1385 1.384 . S
H1388 C1394 0.930 . S
H1389 C1398 0.930 . S
H1390 C1403 0.929 . S
H1391 C1401 0.929 . S
H1392 C1396 0.929 . S
H1393 C1402 0.929 . S
C1394 H1388 0.930 . S
C1394 C1395 1.367 . S
C1394 C1402 1.378 . S
C1395 C1394 1.367 . S
C1395 C1403 1.433 . S
C1396 H1392 0.929 . S
C1396 C1398 1.378 . S
C1396 C1400 1.350 . S
C1397 C1400 1.463 . S
C1397 C1402 1.350 . S
C1397 N1405 1.427 . S
C1398 H1389 0.930 . S
C1398 C1396 1.378 . S
C1398 C1399 1.367 . S
C1399 C1398 1.367 . S
C1399 C1401 1.433 . S
C1400 C1396 1.350 . S
C1400 C1397 1.463 . S
C1400 N1404 1.427 . S
C1401 H1391 0.929 . S
C1401 C1399 1.433 . S
C1401 N1404 1.384 . S
C1402 H1393 0.929 . S
C1402 C1394 1.378 . S
C1402 C1397 1.350 . S
C1403 H1390 0.929 . S
C1403 C1395 1.433 . S
C1403 N1405 1.384 . S
N1404 C1400 1.427 . S
N1404 C1401 1.384 . S
N1405 C1397 1.427 . S
N1405 C1403 1.384 . S
H1406 C1412 0.930 . S
H1407 C1416 0.930 . S
H1408 C1421 0.929 . S
H1409 C1419 0.929 . S
H1410 C1414 0.929 . S
H1411 C1420 0.929 . S
C1412 H1406 0.930 . S
C1412 C1413 1.367 . S
C1412 C1420 1.378 . S
C1413 C1412 1.367 . S
C1413 C1421 1.433 . S
C1414 H1410 0.929 . S
C1414 C1416 1.378 . S
C1414 C1418 1.350 . S
C1415 C1418 1.463 . S
C1415 C1420 1.350 . S
C1415 N1423 1.427 . S
C1416 H1407 0.930 . S
C1416 C1414 1.378 . S
C1416 C1417 1.367 . S
C1417 C1416 1.367 . S
C1417 C1419 1.433 . S
C1418 C1414 1.350 . S
C1418 C1415 1.463 . S
C1418 N1422 1.427 . S
C1419 H1409 0.929 . S
C1419 C1417 1.433 . S
C1419 N1422 1.384 . S
C1420 H1411 0.929 . S
C1420 C1412 1.378 . S
C1420 C1415 1.350 . S
C1421 H1408 0.929 . S
C1421 C1413 1.433 . S
C1421 N1423 1.384 . S
N1422 C1418 1.427 . S
N1422 C1419 1.384 . S
N1423 C1415 1.427 . S
N1423 C1421 1.384 . S
H1424 C1430 0.930 . S
H1425 C1434 0.930 . S
H1426 C1439 0.929 . S
H1427 C1437 0.929 . S
H1428 C1432 0.929 . S
H1429 C1438 0.929 . S
C1430 H1424 0.930 . S
C1430 C1431 1.367 . S
C1430 C1438 1.378 . S
C1431 C1430 1.367 . S
C1431 C1439 1.433 . S
C1432 H1428 0.929 . S
C1432 C1434 1.378 . S
C1432 C1436 1.350 . S
C1433 C1436 1.463 . S
C1433 C1438 1.350 . S
C1433 N1441 1.427 . S
C1434 H1425 0.930 . S
C1434 C1432 1.378 . S
C1434 C1435 1.367 . S
C1435 C1434 1.367 . S
C1435 C1437 1.433 . S
C1436 C1432 1.350 . S
C1436 C1433 1.463 . S
C1436 N1440 1.427 . S
C1437 H1427 0.929 . S
C1437 C1435 1.433 . S
C1437 N1440 1.384 . S
C1438 H1429 0.929 . S
C1438 C1430 1.378 . S
C1438 C1433 1.350 . S
C1439 H1426 0.929 . S
C1439 C1431 1.433 . S
C1439 N1441 1.384 . S
N1440 C1436 1.427 . S
N1440 C1437 1.384 . S
N1441 C1433 1.427 . S
N1441 C1439 1.384 . S
H1442 C1448 0.930 . S
H1443 C1452 0.930 . S
H1444 C1457 0.929 . S
H1445 C1455 0.929 . S
H1446 C1450 0.929 . S
H1447 C1456 0.929 . S
C1448 H1442 0.930 . S
C1448 C1449 1.367 . S
C1448 C1456 1.378 . S
C1449 C1448 1.367 . S
C1449 C1457 1.433 . S
C1450 H1446 0.929 . S
C1450 C1452 1.378 . S
C1450 C1454 1.350 . S
C1451 C1454 1.463 . S
C1451 C1456 1.350 . S
C1451 N1459 1.427 . S
C1452 H1443 0.930 . S
C1452 C1450 1.378 . S
C1452 C1453 1.367 . S
C1453 C1452 1.367 . S
C1453 C1455 1.433 . S
C1454 C1450 1.350 . S
C1454 C1451 1.463 . S
C1454 N1458 1.427 . S
C1455 H1445 0.929 . S
C1455 C1453 1.433 . S
C1455 N1458 1.384 . S
C1456 H1447 0.929 . S
C1456 C1448 1.378 . S
C1456 C1451 1.350 . S
C1457 H1444 0.929 . S
C1457 C1449 1.433 . S
C1457 N1459 1.384 . S
N1458 C1454 1.427 . S
N1458 C1455 1.384 . S
N1459 C1451 1.427 . S
N1459 C1457 1.384 . S
H1460 C1466 0.930 . S
H1461 C1470 0.930 . S
H1462 C1475 0.929 . S
H1463 C1473 0.929 . S
H1464 C1468 0.929 . S
H1465 C1474 0.929 . S
C1466 H1460 0.930 . S
C1466 C1467 1.367 . S
C1466 C1474 1.378 . S
C1467 C1466 1.367 . S
C1467 C1475 1.433 . S
C1468 H1464 0.929 . S
C1468 C1470 1.378 . S
C1468 C1472 1.350 . S
C1469 C1472 1.463 . S
C1469 C1474 1.350 . S
C1469 N1477 1.427 . S
C1470 H1461 0.930 . S
C1470 C1468 1.378 . S
C1470 C1471 1.367 . S
C1471 C1470 1.367 . S
C1471 C1473 1.433 . S
C1472 C1468 1.350 . S
C1472 C1469 1.463 . S
C1472 N1476 1.427 . S
C1473 H1463 0.929 . S
C1473 C1471 1.433 . S
C1473 N1476 1.384 . S
C1474 H1465 0.929 . S
C1474 C1466 1.378 . S
C1474 C1469 1.350 . S
C1475 H1462 0.929 . S
C1475 C1467 1.433 . S
C1475 N1477 1.384 . S
N1476 C1472 1.427 . S
N1476 C1473 1.384 . S
N1477 C1469 1.427 . S
N1477 C1475 1.384 . S
H1478 C1484 0.930 . S
H1479 C1488 0.930 . S
H1480 C1493 0.929 . S
H1481 C1491 0.929 . S
H1482 C1486 0.929 . S
H1483 C1492 0.929 . S
C1484 H1478 0.930 . S
C1484 C1485 1.367 . S
C1484 C1492 1.378 . S
C1485 C1484 1.367 . S
C1485 C1493 1.433 . S
C1486 H1482 0.929 . S
C1486 C1488 1.378 . S
C1486 C1490 1.350 . S
C1487 C1490 1.463 . S
C1487 C1492 1.350 . S
C1487 N1495 1.427 . S
C1488 H1479 0.930 . S
C1488 C1486 1.378 . S
C1488 C1489 1.367 . S
C1489 C1488 1.367 . S
C1489 C1491 1.433 . S
C1490 C1486 1.350 . S
C1490 C1487 1.463 . S
C1490 N1494 1.427 . S
C1491 H1481 0.929 . S
C1491 C1489 1.433 . S
C1491 N1494 1.384 . S
C1492 H1483 0.929 . S
C1492 C1484 1.378 . S
C1492 C1487 1.350 . S
C1493 H1480 0.929 . S
C1493 C1485 1.433 . S
C1493 N1495 1.384 . S
N1494 C1490 1.427 . S
N1494 C1491 1.384 . S
N1495 C1487 1.427 . S
N1495 C1493 1.384 . S
H1496 C1502 0.930 . S
H1497 C1506 0.930 . S
H1498 C1511 0.929 . S
H1499 C1509 0.929 . S
H1500 C1504 0.929 . S
H1501 C1510 0.929 . S
C1502 H1496 0.930 . S
C1502 C1503 1.367 . S
C1502 C1510 1.378 . S
C1503 C1502 1.367 . S
C1503 C1511 1.433 . S
C1504 H1500 0.929 . S
C1504 C1506 1.378 . S
C1504 C1508 1.350 . S
C1505 C1508 1.463 . S
C1505 C1510 1.350 . S
C1505 N1513 1.427 . S
C1506 H1497 0.930 . S
C1506 C1504 1.378 . S
C1506 C1507 1.367 . S
C1507 C1506 1.367 . S
C1507 C1509 1.433 . S
C1508 C1504 1.350 . S
C1508 C1505 1.463 . S
C1508 N1512 1.427 . S
C1509 H1499 0.929 . S
C1509 C1507 1.433 . S
C1509 N1512 1.384 . S
C1510 H1501 0.929 . S
C1510 C1502 1.378 . S
C1510 C1505 1.350 . S
C1511 H1498 0.929 . S
C1511 C1503 1.433 . S
C1511 N1513 1.384 . S
N1512 C1508 1.427 . S
N1512 C1509 1.384 . S
N1513 C1505 1.427 . S
N1513 C1511 1.384 . S
H1514 C1520 0.930 . S
H1515 C1524 0.930 . S
H1516 C1529 0.929 . S
H1517 C1527 0.929 . S
H1518 C1522 0.929 . S
H1519 C1528 0.929 . S
C1520 H1514 0.930 . S
C1520 C1521 1.367 . S
C1520 C1528 1.378 . S
C1521 C1520 1.367 . S
C1521 C1529 1.433 . S
C1522 H1518 0.929 . S
C1522 C1524 1.378 . S
C1522 C1526 1.350 . S
C1523 C1526 1.463 . S
C1523 C1528 1.350 . S
C1523 N1531 1.427 . S
C1524 H1515 0.930 . S
C1524 C1522 1.378 . S
C1524 C1525 1.367 . S
C1525 C1524 1.367 . S
C1525 C1527 1.433 . S
C1526 C1522 1.350 . S
C1526 C1523 1.463 . S
C1526 N1530 1.427 . S
C1527 H1517 0.929 . S
C1527 C1525 1.433 . S
C1527 N1530 1.384 . S
C1528 H1519 0.929 . S
C1528 C1520 1.378 . S
C1528 C1523 1.350 . S
C1529 H1516 0.929 . S
C1529 C1521 1.433 . S
C1529 N1531 1.384 . S
N1530 C1526 1.427 . S
N1530 C1527 1.384 . S
N1531 C1523 1.427 . S
N1531 C1529 1.384 . S
H1532 C1538 0.930 . S
H1533 C1542 0.930 . S
H1534 C1547 0.929 . S
H1535 C1545 0.929 . S
H1536 C1540 0.929 . S
H1537 C1546 0.929 . S
C1538 H1532 0.930 . S
C1538 C1539 1.367 . S
C1538 C1546 1.378 . S
C1539 C1538 1.367 . S
C1539 C1547 1.433 . S
C1540 H1536 0.929 . S
C1540 C1542 1.378 . S
C1540 C1544 1.350 . S
C1541 C1544 1.463 . S
C1541 C1546 1.350 . S
C1541 N1549 1.427 . S
C1542 H1533 0.930 . S
C1542 C1540 1.378 . S
C1542 C1543 1.367 . S
C1543 C1542 1.367 . S
C1543 C1545 1.433 . S
C1544 C1540 1.350 . S
C1544 C1541 1.463 . S
C1544 N1548 1.427 . S
C1545 H1535 0.929 . S
C1545 C1543 1.433 . S
C1545 N1548 1.384 . S
C1546 H1537 0.929 . S
C1546 C1538 1.378 . S
C1546 C1541 1.350 . S
C1547 H1534 0.929 . S
C1547 C1539 1.433 . S
C1547 N1549 1.384 . S
N1548 C1544 1.427 . S
N1548 C1545 1.384 . S
N1549 C1541 1.427 . S
N1549 C1547 1.384 . S
H1550 C1556 0.930 . S
H1551 C1560 0.930 . S
H1552 C1565 0.929 . S
H1553 C1563 0.929 . S
H1554 C1558 0.929 . S
H1555 C1564 0.929 . S
C1556 H1550 0.930 . S
C1556 C1557 1.367 . S
C1556 C1564 1.378 . S
C1557 C1556 1.367 . S
C1557 C1565 1.433 . S
C1558 H1554 0.929 . S
C1558 C1560 1.378 . S
C1558 C1562 1.350 . S
C1559 C1562 1.463 . S
C1559 C1564 1.350 . S
C1559 N1567 1.427 . S
C1560 H1551 0.930 . S
C1560 C1558 1.378 . S
C1560 C1561 1.367 . S
C1561 C1560 1.367 . S
C1561 C1563 1.433 . S
C1562 C1558 1.350 . S
C1562 C1559 1.463 . S
C1562 N1566 1.427 . S
C1563 H1553 0.929 . S
C1563 C1561 1.433 . S
C1563 N1566 1.384 . S
C1564 H1555 0.929 . S
C1564 C1556 1.378 . S
C1564 C1559 1.350 . S
C1565 H1552 0.929 . S
C1565 C1557 1.433 . S
C1565 N1567 1.384 . S
N1566 C1562 1.427 . S
N1566 C1563 1.384 . S
N1567 C1559 1.427 . S
N1567 C1565 1.384 . S
C423 C157 1.328 . S
C427 C5 1.324 . S
C441 C387 1.360 . S
C445 C16 1.350 . S
C459 C183 1.334 . S
C463 C31 1.325 . S
C477 C413 1.361 . S
C481 C42 1.352 . S
C495 C105 1.331 . S
C499 C57 1.327 . S
C513 C68 1.351 . S
C517 C335 1.359 . S
C531 C83 1.316 . S
C535 C131 1.322 . S
C549 C361 1.358 . S
C553 C94 1.347 . S
C567 C62 1.324 . S
C571 C107 1.319 . S
C585 C274 1.359 . S
C589 C122 1.350 . S
C603 C88 1.326 . S
C607 C133 1.323 . S
C621 C300 1.360 . S
C625 C148 1.349 . S
C639 C159 1.323 . S
C643 C10 1.333 . S
C657 C174 1.346 . S
C661 C222 1.358 . S
C675 C36 1.324 . S
C679 C185 1.315 . S
C693 C200 1.347 . S
C697 C248 1.359 . S
C711 C365 1.324 . S
C715 C213 1.320 . S
C729 C179 1.361 . S
C733 C224 1.353 . S
C747 C391 1.326 . S
C751 C239 1.322 . S
C765 C250 1.352 . S
C769 C205 1.361 . S
C783 C265 1.316 . S
C787 C313 1.322 . S
C801 C276 1.349 . S
C805 C127 1.360 . S
C819 C339 1.334 . S
C823 C291 1.325 . S
C837 C153 1.361 . S
C841 C302 1.352 . S
C855 C270 1.324 . S
C859 C315 1.319 . S
C873 C330 1.352 . S
C877 C66 1.360 . S
C891 C341 1.316 . S
C895 C296 1.326 . S
C909 C356 1.347 . S
C913 C92 1.358 . S
C927 C218 1.332 . S
C931 C367 1.323 . S
C945 C14 1.359 . S
C949 C382 1.347 . S
C963 C244 1.335 . S
C967 C393 1.327 . S
C981 C408 1.349 . S
C985 C40 1.360 . S
C999 C1 2.036 . S
C1003 C114 2.036 . S
C1017 C23 1.947 . S
C1021 C326 1.947 . S
C1035 C140 2.034 . S
C1039 C27 2.034 . S
C1053 C49 1.942 . S
C1057 C352 1.942 . S
C1071 C53 2.030 . S
C1075 C166 2.030 . S
C1089 C378 1.939 . S
C1093 C75 1.939 . S
C1107 C192 2.032 . S
C1111 C79 2.032 . S
C1125 C101 1.947 . S
C1129 C404 1.947 . S
C1143 C118 1.947 . S
C1147 C231 1.947 . S
C1161 C144 1.934 . S
C1165 C257 1.934 . S
C1179 C170 1.933 . S
C1183 C283 1.933 . S
C1197 C309 1.945 . S
C1201 C196 1.945 . S
C1215 C209 2.036 . S
C1219 C322 2.036 . S
C1233 C235 2.037 . S
C1237 C348 2.037 . S
C1251 C261 2.037 . S
C1255 C374 2.037 . S
C1269 C400 2.034 . S
C1273 C287 2.034 . S
C1287 C3 1.921 . S
C1291 C96 1.860 . S
C1305 C18 1.858 . S
C1309 C55 1.920 . S
C1323 C70 1.855 . S
C1327 C29 1.924 . S
C1341 C81 1.923 . S
C1345 C44 1.848 . S
C1359 C198 1.858 . S
C1363 C109 1.921 . S
C1377 C161 1.923 . S
C1381 C120 1.857 . S
C1395 C172 1.858 . S
C1399 C135 1.920 . S
C1413 C187 1.921 . S
C1417 C146 1.858 . S
C1431 C211 1.921 . S
C1435 C304 1.861 . S
C1449 C263 1.923 . S
C1453 C226 1.856 . S
C1467 C278 1.849 . S
C1471 C237 1.924 . S
C1485 C289 1.921 . S
C1489 C252 1.852 . S
C1503 C406 1.858 . S
C1507 C317 1.923 . S
C1521 C328 1.848 . S
C1525 C369 1.923 . S
C1539 C343 1.923 . S
C1543 C380 1.858 . S
C1557 C395 1.924 . S
C1561 C354 1.851 . S
