# Generated by pormake.
# Topology acs-h, (5)-cn, num edge types: 1
# Building blocks:
#     Node 0, Type 0, BuildingBlock: XOMCOT_clean_sbu_0, # of connection points: 5
#     Node 1, Type 0, BuildingBlock: XOMCOT_clean_sbu_0, # of connection points: 5
#     Node 2, Type 0, BuildingBlock: XOMCOT_clean_sbu_0, # of connection points: 5
#     Node 3, Type 0, BuildingBlock: XOMCOT_clean_sbu_0, # of connection points: 5
#     Node 4, Type 0, BuildingBlock: XOMCOT_clean_sbu_0, # of connection points: 5
#     Node 5, Type 0, BuildingBlock: XOMCOT_clean_sbu_0, # of connection points: 5
#     Node 6, Type 0, BuildingBlock: XOMCOT_clean_sbu_0, # of connection points: 5
#     Node 7, Type 0, BuildingBlock: XOMCOT_clean_sbu_0, # of connection points: 5
#     Node 8, Type 0, BuildingBlock: XOMCOT_clean_sbu_0, # of connection points: 5
#     Node 9, Type 0, BuildingBlock: XOMCOT_clean_sbu_0, # of connection points: 5
#     Node 10, Type 0, BuildingBlock: XOMCOT_clean_sbu_0, # of connection points: 5
#     Node 11, Type 0, BuildingBlock: XOMCOT_clean_sbu_0, # of connection points: 5
#     Edge 12, Type (0, 0), BuildingBlock: ZUJKAS_clean_linker_0, # of connection points: 2
#     Edge 13, Type (0, 0), BuildingBlock: ZUJKAS_clean_linker_0, # of connection points: 2
#     Edge 14, Type (0, 0), BuildingBlock: ZUJKAS_clean_linker_0, # of connection points: 2
#     Edge 15, Type (0, 0), BuildingBlock: ZUJKAS_clean_linker_0, # of connection points: 2
#     Edge 16, Type (0, 0), BuildingBlock: ZUJKAS_clean_linker_0, # of connection points: 2
#     Edge 17, Type (0, 0), BuildingBlock: ZUJKAS_clean_linker_0, # of connection points: 2
#     Edge 18, Type (0, 0), BuildingBlock: ZUJKAS_clean_linker_0, # of connection points: 2
#     Edge 19, Type (0, 0), BuildingBlock: ZUJKAS_clean_linker_0, # of connection points: 2
#     Edge 20, Type (0, 0), BuildingBlock: ZUJKAS_clean_linker_0, # of connection points: 2
#     Edge 21, Type (0, 0), BuildingBlock: ZUJKAS_clean_linker_0, # of connection points: 2
#     Edge 22, Type (0, 0), BuildingBlock: ZUJKAS_clean_linker_0, # of connection points: 2
#     Edge 23, Type (0, 0), BuildingBlock: ZUJKAS_clean_linker_0, # of connection points: 2
#     Edge 24, Type (0, 0), BuildingBlock: ZUJKAS_clean_linker_0, # of connection points: 2
#     Edge 25, Type (0, 0), BuildingBlock: ZUJKAS_clean_linker_0, # of connection points: 2
#     Edge 26, Type (0, 0), BuildingBlock: ZUJKAS_clean_linker_0, # of connection points: 2
#     Edge 27, Type (0, 0), BuildingBlock: ZUJKAS_clean_linker_0, # of connection points: 2
#     Edge 28, Type (0, 0), BuildingBlock: ZUJKAS_clean_linker_0, # of connection points: 2
#     Edge 29, Type (0, 0), BuildingBlock: ZUJKAS_clean_linker_0, # of connection points: 2
#     Edge 30, Type (0, 0), BuildingBlock: ZUJKAS_clean_linker_0, # of connection points: 2
#     Edge 31, Type (0, 0), BuildingBlock: ZUJKAS_clean_linker_0, # of connection points: 2
#     Edge 32, Type (0, 0), BuildingBlock: ZUJKAS_clean_linker_0, # of connection points: 2
#     Edge 33, Type (0, 0), BuildingBlock: ZUJKAS_clean_linker_0, # of connection points: 2
#     Edge 34, Type (0, 0), BuildingBlock: ZUJKAS_clean_linker_0, # of connection points: 2
#     Edge 35, Type (0, 0), BuildingBlock: ZUJKAS_clean_linker_0, # of connection points: 2
#     Edge 36, Type (0, 0), BuildingBlock: ZUJKAS_clean_linker_0, # of connection points: 2
#     Edge 37, Type (0, 0), BuildingBlock: ZUJKAS_clean_linker_0, # of connection points: 2
#     Edge 38, Type (0, 0), BuildingBlock: ZUJKAS_clean_linker_0, # of connection points: 2
#     Edge 39, Type (0, 0), BuildingBlock: ZUJKAS_clean_linker_0, # of connection points: 2
#     Edge 40, Type (0, 0), BuildingBlock: ZUJKAS_clean_linker_0, # of connection points: 2
#     Edge 41, Type (0, 0), BuildingBlock: ZUJKAS_clean_linker_0, # of connection points: 2
# Relax obj value: 0.870
# Max RMSD: 0.272
# Mean RMSD: 0.272
data_MOF--net-acs-h--node1-XOMCOT_clean_sbu_0--edge1-ZUJKAS_clean_linker_0
_symmetry_space_group_name_H-M    P1
_symmetry_Int_Tables_number       1
_symmetry_cell_setting            triclinic
loop_
_symmetry_equiv_pos_as_xyz
'x, y, z'
_cell_length_a     59.45063
_cell_length_b     59.433409
_cell_length_c     50.762448
_cell_angle_alpha  90.033633
_cell_angle_beta   89.967048
_cell_angle_gamma 120.00437
loop_
_atom_site_label
_atom_site_type_symbol
_atom_site_fract_x
_atom_site_fract_y
_atom_site_fract_z
_atom_type_partial_charge
Co0 Co 0.48526 0.161 0.07991 0.0
C1 C 0.53793 0.1856 0.05405 0.0
C2 C 0.52171 0.14485 0.06138 0.0
C3 C 0.54545 0.15392 0.04971 0.0
N4 N 0.51653 0.16446 0.06365 0.0
N5 N 0.55564 0.17947 0.04514 0.0
H6 H 0.54094 0.2051 0.05406 0.0
H7 H 0.50952 0.1253 0.06852 0.0
C8 C 0.48688 0.14257 0.13582 0.0
O9 O 0.46301 0.1368 0.14131 0.0
N10 N 0.45396 0.15721 0.09598 0.0
C11 C 0.4292 0.14077 0.08869 0.0
C12 C 0.41286 0.14532 0.10417 0.0
C13 C 0.45235 0.17209 0.11516 0.0
N14 N 0.42746 0.16498 0.1208 0.0
C15 C 0.46473 0.12322 0.03928 0.0
C16 C 0.45258 0.08075 0.07085 0.0
C17 C 0.45505 0.07878 0.04357 0.0
C18 C 0.4592 0.09978 0.02762 0.0
C19 C 0.45788 0.10451 0.0817 0.0
N20 N 0.46605 0.12586 0.06602 0.0
H21 H 0.47064 0.13995 0.0268 0.0
H22 H 0.45736 0.106 0.10274 0.0
H23 H 0.42326 0.12669 0.07296 0.0
H24 H 0.46907 0.1873 0.12529 0.0
O25 O 0.48055 0.17972 0.05111 0.0
O26 O 0.50292 0.19751 0.08764 0.0
O27 O 0.49631 0.14998 0.11276 0.0
C28 C 0.49446 0.20057 0.06507 0.0
H29 H 0.55517 0.1429 0.04625 0.0
H30 H 0.39187 0.1352 0.10295 0.0
H31 H 0.44896 0.06494 0.08398 0.0
H32 H 0.46035 0.09883 0.00639 0.0
Co33 Co 0.86294 0.33458 0.09026 0.0
C34 C 0.84016 0.36527 0.06743 0.0
C35 C 0.88148 0.38791 0.07177 0.0
C36 C 0.87269 0.40386 0.06276 0.0
N37 N 0.86122 0.36349 0.07432 0.0
N38 N 0.84672 0.38967 0.06015 0.0
H39 H 0.82035 0.34947 0.06873 0.0
H40 H 0.90124 0.39433 0.07755 0.0
C41 C 0.87837 0.35322 0.14725 0.0
O42 O 0.88159 0.3338 0.15434 0.0
N43 N 0.86487 0.30596 0.10607 0.0
C44 C 0.88049 0.29654 0.09912 0.0
C45 C 0.87538 0.27593 0.11531 0.0
C46 C 0.84975 0.29028 0.12553 0.0
N47 N 0.85623 0.27224 0.13208 0.0
C48 C 0.90259 0.35196 0.05127 0.0
C49 C 0.94326 0.37956 0.08583 0.0
C50 C 0.94688 0.38592 0.05895 0.0
C51 C 0.92689 0.37012 0.04137 0.0
C52 C 0.91879 0.36086 0.09482 0.0
N53 N 0.89837 0.3494 0.07777 0.0
H54 H 0.88649 0.3422 0.03777 0.0
H55 H 0.9159 0.35745 0.11568 0.0
H56 H 0.89481 0.30414 0.08355 0.0
H57 H 0.83486 0.29263 0.13525 0.0
O58 O 0.84414 0.31217 0.06074 0.0
O59 O 0.82644 0.31705 0.09725 0.0
O60 O 0.87379 0.3562 0.12334 0.0
C61 C 0.82325 0.30607 0.07437 0.0
H62 H 0.88431 0.4247 0.06024 0.0
H63 H 0.88559 0.26512 0.11532 0.0
H64 H 0.95817 0.39071 0.10023 0.0
H65 H 0.92915 0.37355 0.02034 0.0
Co66 Co 0.67355 0.53 0.10486 0.0
C67 C 0.63277 0.47962 0.079 0.0
C68 C 0.64075 0.47631 0.11955 0.0
C69 C 0.62213 0.45235 0.11096 0.0
N70 N 0.64712 0.49372 0.09988 0.0
N71 N 0.61702 0.45441 0.08554 0.0
H72 H 0.63371 0.48703 0.05945 0.0
H73 H 0.64931 0.48081 0.13901 0.0
C74 C 0.63144 0.51892 0.14283 0.0
O75 O 0.61553 0.51069 0.12258 0.0
N76 N 0.70021 0.56531 0.11134 0.0
C77 C 0.71628 0.58324 0.09386 0.0
C78 C 0.73556 0.604 0.10765 0.0
C79 C 0.70958 0.57534 0.13525 0.0
N80 N 0.73106 0.59893 0.13361 0.0
C81 C 0.64913 0.53721 0.05942 0.0
C82 C 0.62874 0.56392 0.08528 0.0
C83 C 0.61946 0.55385 0.0601 0.0
C84 C 0.63119 0.54187 0.04645 0.0
C85 C 0.64675 0.55878 0.0974 0.0
N86 N 0.65421 0.54294 0.08548 0.0
H87 H 0.658 0.5279 0.04887 0.0
H88 H 0.65328 0.56602 0.11709 0.0
H89 H 0.71495 0.58073 0.07271 0.0
H90 H 0.70209 0.5647 0.15347 0.0
O91 O 0.69355 0.52739 0.07625 0.0
O92 O 0.69616 0.51816 0.11811 0.0
O93 O 0.65594 0.52921 0.13921 0.0
C94 C 0.70361 0.51909 0.09384 0.0
H95 H 0.61355 0.43457 0.12234 0.0
H96 H 0.75218 0.62091 0.09931 0.0
H97 H 0.62119 0.57448 0.096 0.0
H98 H 0.62535 0.53456 0.02661 0.0
Co99 Co 0.86132 0.53488 0.384 0.0
C100 C 0.83679 0.47784 0.39234 0.0
C101 C 0.87833 0.49677 0.39009 0.0
C102 C 0.86858 0.47035 0.39166 0.0
N103 N 0.8584 0.50146 0.39064 0.0
N104 N 0.84242 0.45845 0.39291 0.0
H105 H 0.81728 0.4747 0.39248 0.0
H106 H 0.89849 0.51151 0.3876 0.0
C107 C 0.86021 0.52328 0.33086 0.0
O108 O 0.88494 0.53932 0.33566 0.0
N109 N 0.86452 0.56833 0.37698 0.0
C110 C 0.86469 0.58503 0.39506 0.0
C111 C 0.86294 0.60455 0.38223 0.0
C112 C 0.86287 0.57796 0.3535 0.0
N113 N 0.86178 0.59999 0.3561 0.0
C114 C 0.8796 0.53871 0.43652 0.0
C115 C 0.93114 0.5698 0.42223 0.0
C116 C 0.92515 0.55591 0.44602 0.0
C117 C 0.89903 0.54162 0.45389 0.0
C118 C 0.91109 0.5661 0.40533 0.0
N119 N 0.88595 0.54959 0.4121 0.0
H120 H 0.85958 0.52525 0.44146 0.0
H121 H 0.91565 0.57429 0.38572 0.0
H122 H 0.86468 0.58245 0.41616 0.0
H123 H 0.86049 0.56815 0.33495 0.0
O124 O 0.83045 0.52617 0.40629 0.0
O125 O 0.82653 0.51766 0.36529 0.0
O126 O 0.84363 0.52007 0.34897 0.0
C127 C 0.81504 0.51739 0.38694 0.0
H128 H 0.87985 0.46064 0.39065 0.0
H129 H 0.86148 0.62019 0.39145 0.0
H130 H 0.95106 0.58146 0.41564 0.0
H131 H 0.89339 0.53039 0.47191 0.0
Co132 Co 0.47392 0.31104 0.39455 0.0
C133 C 0.52691 0.34496 0.41907 0.0
C134 C 0.5216 0.30856 0.40575 0.0
C135 C 0.54676 0.32348 0.41393 0.0
N136 N 0.50877 0.32189 0.40871 0.0
N137 N 0.55024 0.34653 0.42205 0.0
H138 H 0.5236 0.36061 0.42421 0.0
H139 H 0.5142 0.28979 0.39662 0.0
C140 C 0.50354 0.3634 0.36753 0.0
O141 O 0.50807 0.37526 0.39029 0.0
N142 N 0.44023 0.29963 0.37935 0.0
C143 C 0.41674 0.2872 0.39103 0.0
C144 C 0.39799 0.27641 0.3716 0.0
C145 C 0.43557 0.29647 0.35334 0.0
N146 N 0.41 0.28227 0.34793 0.0
C147 C 0.47604 0.3358 0.444 0.0
C148 C 0.46026 0.36887 0.42375 0.0
C149 C 0.47214 0.37422 0.44858 0.0
C150 C 0.47852 0.3564 0.45943 0.0
C151 C 0.45854 0.34833 0.40895 0.0
N152 N 0.46897 0.33394 0.41819 0.0
H153 H 0.48218 0.32284 0.45193 0.0
H154 H 0.45161 0.34602 0.3889 0.0
H155 H 0.41361 0.28446 0.41206 0.0
H156 H 0.45078 0.30198 0.33882 0.0
O157 O 0.45937 0.2804 0.41658 0.0
O158 O 0.47433 0.28311 0.3759 0.0
O159 O 0.49035 0.33858 0.366 0.0
C160 C 0.46387 0.26912 0.3969 0.0
H161 H 0.56184 0.31844 0.41195 0.0
H162 H 0.37736 0.26381 0.3747 0.0
H163 H 0.45471 0.38187 0.41468 0.0
H164 H 0.48685 0.35931 0.47896 0.0
Co165 Co 0.66361 0.13553 0.39612 0.0
C166 C 0.61822 0.14226 0.4081 0.0
C167 C 0.60935 0.10262 0.4106 0.0
C168 C 0.58691 0.10334 0.41496 0.0
N169 N 0.62898 0.127 0.40643 0.0
N170 N 0.5925 0.12825 0.41329 0.0
H171 H 0.62857 0.16292 0.40432 0.0
H172 H 0.61111 0.08539 0.40977 0.0
C173 C 0.64233 0.12816 0.34504 0.0
O174 O 0.63611 0.1045 0.35224 0.0
N175 N 0.6976 0.14296 0.38541 0.0
C176 C 0.71941 0.15337 0.40001 0.0
C177 C 0.73979 0.15731 0.38395 0.0
C178 C 0.70474 0.1404 0.36099 0.0
N179 N 0.73049 0.14929 0.35939 0.0
C180 C 0.65963 0.12134 0.45011 0.0
C181 C 0.65133 0.07233 0.4381 0.0
C182 C 0.64116 0.07604 0.46164 0.0
C183 C 0.64761 0.10148 0.46859 0.0
C184 C 0.66291 0.09266 0.42002 0.0
N185 N 0.66483 0.11595 0.42552 0.0
H186 H 0.66106 0.13986 0.45419 0.0
H187 H 0.66712 0.08881 0.40033 0.0
H188 H 0.72053 0.15853 0.42059 0.0
H189 H 0.69144 0.13274 0.34458 0.0
O190 O 0.67944 0.16956 0.41524 0.0
O191 O 0.669 0.16674 0.37493 0.0
O192 O 0.65674 0.14713 0.36069 0.0
C193 C 0.67954 0.18188 0.39487 0.0
H194 H 0.56788 0.08674 0.41859 0.0
H195 H 0.76003 0.16661 0.38963 0.0
H196 H 0.64748 0.05319 0.43228 0.0
H197 H 0.64031 0.10545 0.48649 0.0
Co198 Co 0.51971 0.824 0.91404 0.0
C199 C 0.46299 0.79357 0.92048 0.0
C200 C 0.48118 0.8012 0.95828 0.0
C201 C 0.45466 0.78677 0.96173 0.0
N202 N 0.48641 0.80649 0.93238 0.0
N203 N 0.44329 0.7823 0.93788 0.0
H204 H 0.46035 0.79209 0.89935 0.0
H205 H 0.49529 0.80631 0.97375 0.0
C206 C 0.48755 0.84237 0.88671 0.0
O207 O 0.4822 0.84781 0.91019 0.0
N208 N 0.55216 0.84005 0.89528 0.0
C209 C 0.57625 0.85461 0.90514 0.0
C210 C 0.59393 0.85861 0.8855 0.0
C211 C 0.55535 0.83537 0.87003 0.0
N212 N 0.58069 0.84641 0.86347 0.0
C213 C 0.53175 0.85803 0.9588 0.0
C214 C 0.5377 0.9002 0.93024 0.0
C215 C 0.53399 0.89974 0.95758 0.0
C216 C 0.53292 0.87914 0.97208 0.0
C217 C 0.53654 0.87867 0.91789 0.0
N218 N 0.53043 0.85678 0.932 0.0
H219 H 0.53108 0.84238 0.97005 0.0
H220 H 0.53838 0.87879 0.8967 0.0
H221 H 0.58064 0.86088 0.92543 0.0
H222 H 0.53938 0.82263 0.85733 0.0
O223 O 0.53315 0.80864 0.93844 0.0
O224 O 0.51234 0.79064 0.90117 0.0
O225 O 0.50311 0.83344 0.88436 0.0
C226 C 0.52336 0.78875 0.92256 0.0
H227 H 0.44457 0.78029 0.98036 0.0
H228 H 0.61485 0.86897 0.88755 0.0
H229 H 0.53945 0.91602 0.91819 0.0
H230 H 0.5318 0.8788 0.99338 0.0
Co231 Co 0.12478 0.66607 0.89686 0.0
C232 C 0.13252 0.62394 0.91893 0.0
C233 C 0.09924 0.60991 0.89369 0.0
C234 C 0.10147 0.5891 0.90185 0.0
N235 N 0.11869 0.63169 0.90431 0.0
N236 N 0.12247 0.59789 0.91765 0.0
H237 H 0.14986 0.63704 0.92974 0.0
H238 H 0.08485 0.6093 0.88025 0.0
C239 C 0.12631 0.65372 0.84144 0.0
O240 O 0.10174 0.64732 0.84257 0.0
N241 N 0.12972 0.70008 0.88858 0.0
C242 C 0.11339 0.70892 0.89466 0.0
C243 C 0.12118 0.73193 0.88157 0.0
C244 C 0.14713 0.71786 0.87179 0.0
N245 N 0.14236 0.73745 0.86716 0.0
C246 C 0.11296 0.67364 0.94984 0.0
C247 C 0.06346 0.631 0.94681 0.0
C248 C 0.0756 0.63882 0.97153 0.0
C249 C 0.09963 0.66193 0.97303 0.0
C250 C 0.0774 0.64345 0.92418 0.0
N251 N 0.10263 0.6626 0.92608 0.0
H252 H 0.13249 0.6899 0.9512 0.0
H253 H 0.06931 0.63545 0.90507 0.0
H254 H 0.09611 0.69877 0.90661 0.0
H255 H 0.16193 0.71574 0.8616 0.0
O256 O 0.15728 0.68228 0.91875 0.0
O257 O 0.15849 0.67486 0.8783 0.0
O258 O 0.14096 0.66458 0.86171 0.0
C259 C 0.17158 0.68385 0.89968 0.0
H260 H 0.08937 0.56923 0.89536 0.0
H261 H 0.11138 0.74314 0.88179 0.0
H262 H 0.04483 0.61346 0.94454 0.0
H263 H 0.10923 0.66924 0.99178 0.0
Co264 Co 0.30652 0.47877 0.90008 0.0
C265 C 0.3391 0.52605 0.93412 0.0
C266 C 0.3172 0.53232 0.90457 0.0
C267 C 0.33301 0.55553 0.91693 0.0
N268 N 0.32106 0.51367 0.91509 0.0
N269 N 0.34707 0.55165 0.93531 0.0
H270 H 0.34811 0.51749 0.94544 0.0
H271 H 0.30509 0.52978 0.88768 0.0
C272 C 0.35399 0.51299 0.86916 0.0
O273 O 0.36602 0.52124 0.89178 0.0
N274 N 0.29163 0.44475 0.88468 0.0
C275 C 0.28022 0.42166 0.89719 0.0
C276 C 0.26868 0.40222 0.87856 0.0
C277 C 0.28723 0.43922 0.85888 0.0
N278 N 0.27332 0.41341 0.85457 0.0
C279 C 0.33065 0.47027 0.94518 0.0
C280 C 0.36879 0.46727 0.91695 0.0
C281 C 0.37176 0.47119 0.94426 0.0
C282 C 0.35139 0.47079 0.95866 0.0
C283 C 0.34795 0.46721 0.9044 0.0
N284 N 0.3311 0.47188 0.91837 0.0
H285 H 0.31586 0.47167 0.95626 0.0
H286 H 0.34629 0.46497 0.88325 0.0
H287 H 0.27928 0.41922 0.91835 0.0
H288 H 0.29247 0.45381 0.84372 0.0
O289 O 0.27909 0.46612 0.92621 0.0
O290 O 0.27777 0.48155 0.88677 0.0
O291 O 0.33036 0.49446 0.86853 0.0
C292 C 0.26664 0.4724 0.90936 0.0
H293 H 0.33553 0.57418 0.91117 0.0
H294 H 0.25696 0.38159 0.88237 0.0
H295 H 0.38318 0.46572 0.90521 0.0
H296 H 0.35239 0.47302 0.97986 0.0
Co297 Co 0.13626 0.46896 0.61253 0.0
C298 C 0.1559 0.52572 0.61078 0.0
C299 C 0.1143 0.50335 0.61187 0.0
C300 C 0.12174 0.52932 0.61299 0.0
N301 N 0.13573 0.50114 0.61028 0.0
N302 N 0.14791 0.5433 0.61249 0.0
H303 H 0.17605 0.5308 0.61047 0.0
H304 H 0.09466 0.48718 0.61307 0.0
C305 C 0.14063 0.47968 0.66723 0.0
O306 O 0.11554 0.46356 0.66485 0.0
N307 N 0.13632 0.43668 0.61517 0.0
C308 C 0.13857 0.42306 0.59513 0.0
C309 C 0.14249 0.40384 0.60545 0.0
C310 C 0.13852 0.42547 0.63728 0.0
N311 N 0.14248 0.40547 0.63196 0.0
C312 C 0.1159 0.46656 0.56118 0.0
C313 C 0.06516 0.43313 0.57666 0.0
C314 C 0.06984 0.44766 0.55345 0.0
C315 C 0.0956 0.46322 0.54491 0.0
C316 C 0.08607 0.43709 0.59238 0.0
N317 N 0.11076 0.45471 0.58514 0.0
H318 H 0.13552 0.4809 0.55584 0.0
H319 H 0.08249 0.42816 0.61164 0.0
H320 H 0.1389 0.42776 0.5745 0.0
H321 H 0.13937 0.43306 0.65683 0.0
O322 O 0.16701 0.48253 0.58839 0.0
O323 O 0.17165 0.48679 0.62985 0.0
O324 O 0.15539 0.48249 0.64736 0.0
C325 C 0.18297 0.49042 0.60733 0.0
H326 H 0.10892 0.53723 0.61511 0.0
H327 H 0.14639 0.3906 0.59435 0.0
H328 H 0.04556 0.42063 0.58376 0.0
H329 H 0.1002 0.47502 0.52732 0.0
Co330 Co 0.53189 0.66213 0.59424 0.0
C331 C 0.47601 0.62856 0.58214 0.0
C332 C 0.49754 0.60905 0.57523 0.0
C333 C 0.47149 0.59147 0.57189 0.0
N334 N 0.50034 0.63233 0.58162 0.0
N335 N 0.458 0.60378 0.57652 0.0
H336 H 0.47133 0.6433 0.58753 0.0
H337 H 0.51321 0.60479 0.57449 0.0
C338 C 0.51283 0.63817 0.64283 0.0
O339 O 0.52563 0.62712 0.63362 0.0
N340 N 0.56335 0.69159 0.60711 0.0
C341 C 0.57994 0.71267 0.59311 0.0
C342 C 0.59592 0.73202 0.61038 0.0
C343 C 0.56964 0.69819 0.63253 0.0
N344 N 0.58916 0.72298 0.63522 0.0
C345 C 0.54242 0.65984 0.53958 0.0
C346 C 0.57168 0.63647 0.55037 0.0
C347 C 0.56078 0.63359 0.52518 0.0
C348 C 0.54771 0.64723 0.51935 0.0
C349 C 0.56612 0.64944 0.5699 0.0
N350 N 0.55027 0.65922 0.56464 0.0
H351 H 0.52959 0.66742 0.53572 0.0
H352 H 0.57175 0.64885 0.59003 0.0
H353 H 0.57908 0.71455 0.57199 0.0
H354 H 0.55903 0.68562 0.64878 0.0
O355 O 0.52233 0.68649 0.57713 0.0
O356 O 0.51167 0.67401 0.61671 0.0
O357 O 0.51357 0.65702 0.62948 0.0
C358 C 0.51158 0.68849 0.59786 0.0
H359 H 0.4631 0.57092 0.56798 0.0
H360 H 0.60987 0.75183 0.60504 0.0
H361 H 0.58174 0.62624 0.55597 0.0
H362 H 0.53943 0.64598 0.50004 0.0
Co363 Co 0.33822 0.86692 0.61594 0.0
C364 C 0.37303 0.84481 0.60908 0.0
C365 C 0.39385 0.8863 0.61329 0.0
C366 C 0.41157 0.87789 0.61133 0.0
N367 N 0.36976 0.86557 0.61181 0.0
N368 N 0.39841 0.85179 0.60881 0.0
H369 H 0.35731 0.82502 0.60745 0.0
H370 H 0.39818 0.90611 0.61613 0.0
C371 C 0.34986 0.86992 0.67026 0.0
O372 O 0.36093 0.89455 0.66356 0.0
N373 N 0.30714 0.86895 0.6205 0.0
C374 C 0.28902 0.86452 0.60217 0.0
C375 C 0.26789 0.86361 0.61453 0.0
C376 C 0.29714 0.87109 0.64349 0.0
N377 N 0.27309 0.86768 0.64054 0.0
C378 C 0.35372 0.88103 0.56275 0.0
C379 C 0.37261 0.93322 0.57288 0.0
C380 C 0.38296 0.92605 0.55173 0.0
C381 C 0.37176 0.89954 0.54553 0.0
C382 C 0.35491 0.91409 0.58981 0.0
N383 N 0.34733 0.8887 0.58547 0.0
H384 H 0.34783 0.86082 0.55974 0.0
H385 H 0.34978 0.91974 0.60811 0.0
H386 H 0.29044 0.86071 0.58158 0.0
H387 H 0.30629 0.87292 0.66235 0.0
O388 O 0.31744 0.83332 0.5965 0.0
O389 O 0.32193 0.83427 0.63806 0.0
O390 O 0.33573 0.85262 0.65298 0.0
C391 C 0.31137 0.82009 0.61754 0.0
H392 H 0.43246 0.89 0.61255 0.0
H393 H 0.24965 0.85892 0.6053 0.0
H394 H 0.38021 0.95345 0.57796 0.0
H395 H 0.37908 0.89301 0.52949 0.0
H396 H 0.64793 0.17382 0.3252 0.0
H397 H 0.62388 0.1786 0.28841 0.0
H398 H 0.58374 0.09569 0.276 0.0
H399 H 0.60808 0.09087 0.31186 0.0
H400 H 0.598 0.12074 0.2304 0.0
H401 H 0.54896 0.16119 0.29132 0.0
H402 H 0.58378 0.17993 0.29225 0.0
H403 H 0.5673 0.14757 0.30559 0.0
C404 C 0.63416 0.15667 0.31444 0.0
C405 C 0.62985 0.13196 0.32155 0.0
C406 C 0.62024 0.15939 0.29359 0.0
C407 C 0.60158 0.13742 0.27979 0.0
C408 C 0.59791 0.11291 0.28641 0.0
H409 H 0.47261 0.12084 0.18506 0.0
H410 H 0.50089 0.11966 0.21947 0.0
C411 C 0.6119 0.1102 0.30698 0.0
C412 C 0.58562 0.13953 0.25846 0.0
H413 H 0.54098 0.15825 0.24542 0.0
C414 C 0.58558 0.129 0.23367 0.0
C415 C 0.56905 0.14988 0.26288 0.0
C416 C 0.567 0.16006 0.2895 0.0
C417 C 0.56938 0.12838 0.21325 0.0
C418 C 0.55333 0.13938 0.21742 0.0
C419 C 0.55341 0.14998 0.24218 0.0
C420 C 0.53616 0.13985 0.19642 0.0
C421 C 0.56905 0.11517 0.18772 0.0
C422 C 0.54657 0.15172 0.17209 0.0
C423 C 0.53043 0.15206 0.1523 0.0
C424 C 0.50356 0.14098 0.15657 0.0
C425 C 0.49319 0.12943 0.18109 0.0
C426 C 0.50935 0.12883 0.2008 0.0
H427 H 0.57601 0.10112 0.19052 0.0
H428 H 0.54923 0.10467 0.17913 0.0
H429 H 0.58219 0.13002 0.17336 0.0
H430 H 0.56726 0.16099 0.16847 0.0
H431 H 0.53916 0.16146 0.1338 0.0
H432 H 0.87497 0.34705 0.20096 0.0
H433 H 0.86644 0.3727 0.23311 0.0
H434 H 0.86986 0.42389 0.17109 0.0
H435 H 0.87806 0.39838 0.13891 0.0
H436 H 0.89446 0.4245 0.24683 0.0
H437 H 0.79943 0.40159 0.20468 0.0
H438 H 0.8157 0.38388 0.19584 0.0
H439 H 0.82507 0.41472 0.18072 0.0
C440 C 0.87421 0.36395 0.19423 0.0
C441 C 0.87701 0.37055 0.16735 0.0
C442 C 0.86916 0.37847 0.21258 0.0
C443 C 0.86676 0.39972 0.20433 0.0
C444 C 0.87082 0.40707 0.17775 0.0
H445 H 0.88517 0.53249 0.28422 0.0
H446 H 0.88263 0.49982 0.25325 0.0
C447 C 0.87578 0.39259 0.15942 0.0
C448 C 0.86056 0.41469 0.22346 0.0
H449 H 0.81892 0.43764 0.23481 0.0
C450 C 0.87776 0.42707 0.24441 0.0
C451 C 0.83852 0.41772 0.2205 0.0
C452 C 0.81847 0.40355 0.19938 0.0
C453 C 0.87424 0.44349 0.26165 0.0
C454 C 0.85315 0.4478 0.25765 0.0
C455 C 0.83522 0.43447 0.23756 0.0
C456 C 0.85076 0.46748 0.27325 0.0
C457 C 0.89343 0.45665 0.28373 0.0
C458 C 0.83265 0.46012 0.29383 0.0
C459 C 0.83389 0.47885 0.31148 0.0
C460 C 0.85336 0.50502 0.30869 0.0
C461 C 0.87 0.51245 0.28679 0.0
C462 C 0.86866 0.49383 0.26918 0.0
H463 H 0.90528 0.44728 0.2875 0.0
H464 H 0.90678 0.47727 0.27841 0.0
H465 H 0.88324 0.45634 0.30219 0.0
H466 H 0.8187 0.43981 0.2972 0.0
H467 H 0.82105 0.47257 0.3284 0.0
H468 H 0.58385 0.50844 0.15998 0.0
H469 H 0.56202 0.48571 0.20045 0.0
H470 H 0.63132 0.48518 0.22472 0.0
H471 H 0.65355 0.50893 0.18493 0.0
H472 H 0.5509 0.43852 0.21186 0.0
H473 H 0.61088 0.50253 0.29298 0.0
H474 H 0.61466 0.5137 0.25937 0.0
H475 H 0.62997 0.49578 0.27044 0.0
C476 C 0.59466 0.5042 0.17439 0.0
C477 C 0.62039 0.5105 0.16939 0.0
C478 C 0.58214 0.49109 0.19742 0.0
C479 C 0.59503 0.4838 0.21572 0.0
C480 C 0.62113 0.49112 0.21128 0.0
H481 H 0.51645 0.35012 0.32052 0.0
H482 H 0.53805 0.37895 0.28297 0.0
C483 C 0.63383 0.50468 0.18846 0.0
C484 C 0.58037 0.4663 0.2379 0.0
H485 H 0.5817 0.45803 0.30423 0.0
C486 C 0.55749 0.44294 0.23212 0.0
C487 C 0.58886 0.47209 0.26433 0.0
C488 C 0.61229 0.49752 0.27218 0.0
C489 C 0.54297 0.42512 0.25196 0.0
C490 C 0.55208 0.43039 0.27822 0.0
C491 C 0.57484 0.45385 0.28404 0.0
C492 C 0.53801 0.41231 0.3002 0.0
C493 C 0.51777 0.40117 0.24459 0.0
C494 C 0.53121 0.42154 0.32249 0.0
C495 C 0.51948 0.40535 0.34405 0.0
C496 C 0.51403 0.37946 0.34369 0.0
C497 C 0.52018 0.36992 0.32115 0.0
C498 C 0.53241 0.38634 0.29967 0.0
H499 H 0.5098 0.40397 0.22587 0.0
H500 H 0.52129 0.38468 0.24171 0.0
H501 H 0.50292 0.39584 0.26027 0.0
H502 H 0.53526 0.44145 0.32334 0.0
H503 H 0.51482 0.41319 0.36113 0.0
H504 H 0.4911 0.83035 0.83518 0.0
H505 H 0.46527 0.83081 0.79775 0.0
H506 H 0.42556 0.85774 0.8487 0.0
H507 H 0.45094 0.85714 0.8861 0.0
H508 H 0.39213 0.81603 0.81525 0.0
H509 H 0.4741 0.89662 0.76081 0.0
H510 H 0.47836 0.86971 0.76968 0.0
H511 H 0.47657 0.88985 0.79501 0.0
C512 C 0.47699 0.83654 0.83836 0.0
C513 C 0.47321 0.84388 0.8636 0.0
C514 C 0.46227 0.83679 0.81697 0.0
C515 C 0.44364 0.84447 0.82047 0.0
C516 C 0.43983 0.85174 0.84561 0.0
H517 H 0.37413 0.9011 0.71218 0.0
H518 H 0.39452 0.892 0.74918 0.0
C519 C 0.45449 0.85152 0.86694 0.0
C520 C 0.42813 0.84523 0.79806 0.0
H521 H 0.43282 0.87754 0.74096 0.0
C522 C 0.40098 0.82933 0.79888 0.0
C523 C 0.43979 0.86276 0.7769 0.0
C524 C 0.46878 0.88089 0.77549 0.0
C525 C 0.38512 0.83077 0.77922 0.0
C526 C 0.39681 0.84843 0.75819 0.0
C527 C 0.42397 0.86399 0.75715 0.0
C528 C 0.38137 0.85227 0.73769 0.0
C529 C 0.35602 0.81408 0.78149 0.0
C530 C 0.36657 0.83266 0.71937 0.0
C531 C 0.35471 0.83777 0.69818 0.0
C532 C 0.35774 0.86265 0.69495 0.0
C533 C 0.37151 0.88178 0.71407 0.0
C534 C 0.38324 0.87664 0.7352 0.0
H535 H 0.34995 0.80498 0.80125 0.0
H536 H 0.3465 0.82575 0.77759 0.0
H537 H 0.34892 0.79837 0.76654 0.0
H538 H 0.36516 0.81382 0.72079 0.0
H539 H 0.34443 0.82271 0.68362 0.0
H540 H 0.18358 0.52842 0.66694 0.0
H541 H 0.19209 0.56415 0.69688 0.0
H542 H 0.12601 0.51182 0.744 0.0
H543 H 0.11747 0.47613 0.71434 0.0
H544 H 0.15724 0.58126 0.70399 0.0
H545 H 0.17953 0.55328 0.80006 0.0
H546 H 0.18137 0.53881 0.76942 0.0
H547 H 0.15064 0.52719 0.7858 0.0
C548 C 0.17143 0.52433 0.68421 0.0
C549 C 0.14984 0.49943 0.68834 0.0
C550 C 0.17622 0.54482 0.70119 0.0
C551 C 0.15981 0.54063 0.7228 0.0
C552 C 0.13924 0.51544 0.72778 0.0
H553 H 0.09974 0.62663 0.79756 0.0
H554 H 0.11254 0.60363 0.76651 0.0
C555 C 0.13432 0.49504 0.71075 0.0
C556 C 0.16198 0.56275 0.73837 0.0
H557 H 0.16219 0.58241 0.80154 0.0
C558 C 0.15885 0.58184 0.7253 0.0
C559 C 0.16441 0.56372 0.7661 0.0
C560 C 0.16945 0.54479 0.78113 0.0
C561 C 0.15646 0.6009 0.73937 0.0
C562 C 0.15681 0.60056 0.76722 0.0
C563 C 0.16157 0.58248 0.78018 0.0
C564 C 0.15066 0.61756 0.78348 0.0
C565 C 0.1532 0.62093 0.72428 0.0
C566 C 0.16783 0.63317 0.80328 0.0
C567 C 0.16047 0.64617 0.82119 0.0
C568 C 0.13572 0.64375 0.81978 0.0
C569 C 0.119 0.62905 0.79917 0.0
C570 C 0.12636 0.61599 0.78127 0.0
H571 H 0.16179 0.62397 0.70424 0.0
H572 H 0.13217 0.61404 0.72198 0.0
H573 H 0.16235 0.63985 0.7348 0.0
H574 H 0.18661 0.63456 0.80546 0.0
H575 H 0.17378 0.65707 0.83686 0.0
H576 H 0.5006 0.59293 0.66721 0.0
H577 H 0.47107 0.5723 0.70385 0.0
H578 H 0.45656 0.63647 0.70797 0.0
H579 H 0.48574 0.65704 0.67027 0.0
H580 H 0.47514 0.58879 0.75261 0.0
H581 H 0.38334 0.57506 0.70944 0.0
H582 H 0.412 0.58419 0.68987 0.0
H583 H 0.40947 0.60815 0.70926 0.0
C584 C 0.49116 0.60276 0.67581 0.0
C585 C 0.49558 0.6267 0.66587 0.0
C586 C 0.47419 0.59085 0.69676 0.0
C587 C 0.46131 0.60262 0.70849 0.0
C588 C 0.46581 0.62671 0.69884 0.0
H589 H 0.39722 0.56035 0.8652 0.0
H590 H 0.42171 0.5821 0.82576 0.0
C591 C 0.48268 0.63858 0.67751 0.0
C592 C 0.44426 0.58991 0.73155 0.0
H593 H 0.38231 0.56465 0.75484 0.0
C594 C 0.45483 0.5835 0.75304 0.0
C595 C 0.41765 0.5826 0.73193 0.0
C596 C 0.40482 0.5876 0.7088 0.0
C597 C 0.43964 0.57007 0.77488 0.0
C598 C 0.41329 0.56363 0.77576 0.0
C599 C 0.40257 0.56981 0.75421 0.0
C600 C 0.39692 0.55098 0.79921 0.0
C601 C 0.45191 0.56241 0.79654 0.0
C602 C 0.37408 0.52669 0.79726 0.0
C603 C 0.35969 0.51425 0.8199 0.0
C604 C 0.3681 0.52591 0.84476 0.0
C605 C 0.39051 0.55057 0.84642 0.0
C606 C 0.40459 0.56306 0.82388 0.0
H607 H 0.46905 0.56146 0.78927 0.0
H608 H 0.45865 0.57718 0.81245 0.0
H609 H 0.43783 0.54324 0.80508 0.0
H610 H 0.36773 0.51713 0.77834 0.0
H611 H 0.34239 0.49535 0.81803 0.0
H612 H 0.42826 0.02676 0.05669 0.0
H613 H 0.43875 0.99343 0.04303 0.0
H614 H 0.49943 0.04909 0.99254 0.0
H615 H 0.48954 0.08237 0.00621 0.0
H616 H 0.46871 -0.00065 0.96959 0.0
H617 H 0.50562 0.99509 0.06919 0.0
H618 H 0.47296 0.98939 0.06765 0.0
H619 H 0.49967 0.02087 0.0595 0.0
C620 C 0.44367 0.0318 0.0425 0.0
C621 C 0.45799 0.05724 0.03253 0.0
C622 C 0.44966 0.01279 0.03479 0.0
C623 C 0.47011 0.01899 0.0171 0.0
C624 C 0.48357 0.04395 0.00621 0.0
H625 H 0.55593 0.95211 0.94777 0.0
H626 H 0.5403 0.98086 0.96338 0.0
C627 C 0.47767 0.0629 0.0139 0.0
C628 C 0.47849 8e-05 0.01052 0.0
H629 H 0.50828 0.9686 0.03622 0.0
C630 C 0.47723 0.99249 0.98415 0.0
C631 C 0.48969 0.99133 0.02961 0.0
C632 C 0.49232 -0.00033 0.05806 0.0
C633 C 0.48699 0.9764 0.9763 0.0
C634 C 0.49871 0.96811 0.99528 0.0
C635 C 0.49946 0.97522 0.02175 0.0
C636 C 0.50995 0.95174 0.98795 0.0
C637 C 0.48451 0.96823 0.9478 0.0
C638 C 0.49881 0.92632 0.99758 0.0
C639 C 0.50766 0.90988 0.98874 0.0
C640 C 0.52795 0.91865 0.97019 0.0
C641 C 0.54003 0.94465 0.96173 0.0
C642 C 0.53111 0.96107 0.97058 0.0
H643 H 0.46978 0.97109 0.93722 0.0
H644 H 0.50348 0.98011 0.9378 0.0
H645 H 0.47911 0.94749 0.94615 0.0
H646 H 0.48252 0.91884 0.01108 0.0
H647 H 0.49764 0.8899 0.99539 0.0
H648 H 0.99756 0.41314 0.07702 0.0
H649 H 0.02817 0.45966 0.07044 0.0
H650 H 0.97507 0.46383 0.01564 0.0
H651 H 0.94417 0.41821 0.02263 0.0
H652 H 0.04171 0.49178 0.00855 0.0
H653 H 0.99445 0.51359 0.09178 0.0
H654 H 0.99879 0.48558 0.09195 0.0
H655 H 0.97473 0.48598 0.07102 0.0
C656 C 0.99258 0.42386 0.06325 0.0
C657 C 0.96828 0.4118 0.05045 0.0
C658 C 0.01011 0.45036 0.0595 0.0
C659 C 0.0036 0.46497 0.04276 0.0
C660 C 0.98032 0.45271 0.02862 0.0
H661 H 0.0255 0.60495 0.98738 0.0
H662 H 0.01162 0.5646 0.01171 0.0
C663 C 0.96279 0.42644 0.03245 0.0
C664 C 0.01965 0.49344 0.04125 0.0
H665 H 0.02026 0.54817 0.06267 0.0
C666 C 0.03772 0.50434 0.02079 0.0
C667 C 0.01392 0.50943 0.05717 0.0
C668 C 0.99449 0.49822 0.07934 0.0
C669 C 0.04922 0.53086 0.01479 0.0
C670 C 0.04253 0.54671 0.02995 0.0
C671 C 0.02542 0.53596 0.05127 0.0
C672 C 0.05061 0.57351 0.02169 0.0
C673 C 0.06701 0.54131 0.99118 0.0
C674 C 0.07693 0.59251 0.02092 0.0
C675 C 0.08493 0.61543 0.00685 0.0
C676 C 0.06665 0.61973 0.99345 0.0
C677 C 0.04006 0.60201 0.99706 0.0
C678 C 0.03211 0.579 0.01102 0.0
H679 H 0.06692 0.52559 0.97923 0.0
H680 H 0.06126 0.5527 0.97831 0.0
H681 H 0.0872 0.55446 0.99793 0.0
H682 H 0.09143 0.58874 0.02944 0.0
H683 H 0.10559 0.62849 0.00446 0.0
H684 H 0.38117 0.45789 0.99337 0.0
H685 H 0.42338 0.47527 0.0153 0.0
H686 H 0.46171 0.51918 0.94554 0.0
H687 H 0.4199 0.50299 0.92399 0.0
H688 H 0.46669 0.47203 0.0012 0.0
H689 H 0.49001 0.57476 0.0025 0.0
H690 H 0.45785 0.54818 0.99544 0.0
H691 H 0.48238 0.56064 0.97019 0.0
C692 C 0.39859 0.4713 0.98275 0.0
C693 C 0.39712 0.47899 0.95691 0.0
C694 C 0.42265 0.48115 0.99527 0.0
C695 C 0.44554 0.49894 0.9822 0.0
C696 C 0.44421 0.50595 0.95617 0.0
H697 H 0.60894 0.56158 0.00924 0.0
H698 H 0.56628 0.55036 0.99126 0.0
C699 C 0.42026 0.49625 0.94371 0.0
C700 C 0.471 0.50988 0.99546 0.0
H701 H 0.52503 0.56709 0.01222 0.0
C702 C 0.47933 0.49278 0.00386 0.0
C703 C 0.4874 0.537 0.99892 0.0
C704 C 0.47888 0.5562 0.99153 0.0
C705 C 0.504 0.50213 0.01496 0.0
C706 C 0.52058 0.5292 0.01777 0.0
C707 C 0.51219 0.54634 0.00979 0.0
C708 C 0.54678 0.53979 0.02898 0.0
C709 C 0.51249 0.48311 0.02319 0.0
C710 C 0.54984 0.53835 0.05614 0.0
C711 C 0.57403 0.54469 0.06644 0.0
C712 C 0.59555 0.5525 0.04967 0.0
C713 C 0.59268 0.5554 0.02259 0.0
C714 C 0.56842 0.54912 0.01232 0.0
H715 H 0.4984 0.4629 0.01709 0.0
H716 H 0.53176 0.48875 0.01453 0.0
H717 H 0.51453 0.48355 0.04495 0.0
H718 H 0.53323 0.53115 0.0692 0.0
H719 H 0.57546 0.54186 0.08731 0.0
H720 H 0.03257 0.45307 0.57905 0.0
H721 H 0.00613 0.46998 0.56098 0.0
H722 H 0.03479 0.46946 0.48307 0.0
H723 H 0.06126 0.45206 0.501 0.0
H724 H 0.04384 0.51848 0.50058 0.0
H725 H 0.94078 0.44232 0.51514 0.0
H726 H 0.96091 0.44909 0.54377 0.0
H727 H 0.96698 0.43521 0.51507 0.0
C728 C 0.03245 0.4554 0.5579 0.0
C729 C 0.04909 0.45123 0.54145 0.0
C730 C 0.01737 0.46523 0.54763 0.0
C731 C 0.01851 0.47092 0.52073 0.0
C732 C 0.03371 0.46517 0.50393 0.0
H733 H 0.96258 0.54891 0.42299 0.0
H734 H 0.98795 0.53193 0.44332 0.0
C735 C 0.04879 0.45525 0.51418 0.0
C736 C 0.00656 0.4859 0.5109 0.0
H737 H 0.94888 0.48466 0.50443 0.0
C738 C 0.02306 0.51105 0.50124 0.0
C739 C 0.97954 0.47626 0.51226 0.0
C740 C 0.96095 0.44916 0.52191 0.0
C741 C 0.01321 0.52692 0.49292 0.0
C742 C 0.98615 0.51718 0.49397 0.0
C743 C 0.96967 0.49213 0.50389 0.0
C744 C 0.97423 0.5317 0.48284 0.0
C745 C 0.03186 0.55404 0.48333 0.0
C746 C 0.95847 0.53773 0.49845 0.0
C747 C 0.944 0.54776 0.48688 0.0
C748 C 0.94485 0.55159 0.45946 0.0
C749 C 0.96183 0.54684 0.44421 0.0
C750 C 0.97631 0.53696 0.45579 0.0
H751 H 0.05178 0.56119 0.49108 0.0
H752 H 0.03284 0.55391 0.46151 0.0
H753 H 0.02532 0.56785 0.48923 0.0
H754 H 0.95664 0.53375 0.51941 0.0
H755 H 0.93126 0.55137 0.4992 0.0
H756 H 0.51985 0.40587 0.46969 0.0
H757 H 0.53892 0.45177 0.48083 0.0
H758 H 0.46594 0.4479 0.46417 0.0
H759 H 0.44663 0.4018 0.45297 0.0
H760 H 0.5085 0.48745 0.4369 0.0
H761 H 0.52991 0.48951 0.54375 0.0
H762 H 0.54201 0.47313 0.52345 0.0
H763 H 0.50758 0.45997 0.52674 0.0
C764 C 0.50756 0.41452 0.4693 0.0
C765 C 0.48167 0.40017 0.46058 0.0
C766 C 0.51856 0.44082 0.47553 0.0
C767 C 0.50381 0.45318 0.4734 0.0
C768 C 0.47764 0.43867 0.46588 0.0
H769 H 0.518 0.59995 0.49695 0.0
H770 H 0.50838 0.5582 0.47925 0.0
C771 C 0.46662 0.41237 0.45957 0.0
C772 C 0.51616 0.48161 0.47707 0.0
H773 H 0.54613 0.53004 0.52243 0.0
C774 C 0.51676 0.4968 0.4556 0.0
C775 C 0.52723 0.49373 0.50135 0.0
C776 C 0.52653 0.47828 0.52523 0.0
C777 C 0.52781 0.52381 0.45788 0.0
C778 C 0.53823 0.53583 0.48236 0.0
C779 C 0.53832 0.52075 0.50361 0.0
C780 C 0.54638 0.56338 0.48742 0.0
C781 C 0.52815 0.53923 0.43415 0.0
C782 C 0.57129 0.58058 0.49715 0.0
C783 C 0.57706 0.60483 0.50712 0.0
C784 C 0.55782 0.61204 0.50791 0.0
C785 C 0.53353 0.59545 0.49627 0.0
C786 C 0.52788 0.57137 0.48619 0.0
H787 H 0.52733 0.52903 0.41551 0.0
H788 H 0.51087 0.54174 0.43476 0.0
H789 H 0.54581 0.55879 0.43393 0.0
H790 H 0.58583 0.57471 0.49826 0.0
H791 H 0.59604 0.61725 0.51564 0.0
H792 H 0.62816 0.06913 0.51438 0.0
H793 H 0.58464 0.04043 0.53211 0.0
H794 H 0.55924 0.00458 0.45586 0.0
H795 H 0.60195 0.03318 0.43791 0.0
H796 H 0.5436 0.04475 0.50977 0.0
H797 H 0.52245 0.94274 0.50597 0.0
H798 H 0.55516 0.97014 0.50585 0.0
H799 H 0.53623 0.96053 0.47609 0.0
C800 C 0.61353 0.05459 0.5016 0.0
C801 C 0.61862 0.05373 0.47464 0.0
C802 C 0.58871 0.0382 0.51177 0.0
C803 C 0.56878 0.02042 0.49527 0.0
C804 C 0.57444 0.01783 0.46905 0.0
H805 H 0.40035 0.92967 0.50067 0.0
H806 H 0.44558 0.95451 0.48567 0.0
C807 C 0.59911 0.03425 0.45884 0.0
C808 C 0.54138 0.00779 0.50386 0.0
H809 H 0.48587 0.94906 0.50938 0.0
C810 C 0.53102 0.02381 0.51003 0.0
C811 C 0.525 0.98053 0.50363 0.0
C812 C 0.53529 0.96245 0.49775 0.0
C813 C 0.50455 0.0133 0.51559 0.0
C814 C 0.48815 0.98604 0.51536 0.0
C815 C 0.4985 0.96999 0.50927 0.0
C816 C 0.46053 0.97368 0.52308 0.0
C817 C 0.49425 0.03145 0.52111 0.0
C818 C 0.45404 0.97673 0.54882 0.0
C819 C 0.42841 0.9626 0.55744 0.0
C820 C 0.40866 0.945 0.54048 0.0
C821 C 0.41507 0.94295 0.51424 0.0
C822 C 0.44086 0.95709 0.50565 0.0
H823 H 0.50737 0.05124 0.51323 0.0
H824 H 0.47464 0.02396 0.51243 0.0
H825 H 0.49272 0.03313 0.54273 0.0
H826 H 0.46901 0.98902 0.56272 0.0
H827 H 0.42448 0.96423 0.57797 0.0
H828 H 0.42744 0.30378 0.30025 0.0
H829 H 0.41814 0.28059 0.25852 0.0
H830 H 0.35952 0.21075 0.29647 0.0
H831 H 0.36961 0.23376 0.33864 0.0
H832 H 0.39472 0.20296 0.27323 0.0
H833 H 0.36475 0.25259 0.20163 0.0
H834 H 0.39392 0.27577 0.21801 0.0
H835 H 0.3644 0.2575 0.23671 0.0
C836 C 0.41209 0.28366 0.29954 0.0
C837 C 0.39951 0.27052 0.32276 0.0
C838 C 0.40655 0.27046 0.27558 0.0
C839 C 0.38797 0.24393 0.27424 0.0
C840 C 0.37384 0.23126 0.29701 0.0
H841 H 0.38206 0.13966 0.14768 0.0
H842 H 0.3678 0.15689 0.18382 0.0
C843 C 0.3795 0.24448 0.32109 0.0
C844 C 0.38678 0.22881 0.25047 0.0
H845 H 0.38661 0.23053 0.18321 0.0
C846 C 0.39223 0.20853 0.25358 0.0
C847 C 0.38366 0.23613 0.2248 0.0
C848 C 0.37609 0.25652 0.22014 0.0
C849 C 0.39629 0.19654 0.23175 0.0
C850 C 0.39471 0.20496 0.20616 0.0
C851 C 0.38801 0.22431 0.20293 0.0
C852 C 0.40191 0.19515 0.18275 0.0
C853 C 0.40366 0.17593 0.23617 0.0
C854 C 0.42555 0.21117 0.16995 0.0
C855 C 0.43377 0.2014 0.14934 0.0
C856 C 0.41837 0.17548 0.14107 0.0
C857 C 0.39427 0.15975 0.15344 0.0
C858 C 0.38614 0.1695 0.17415 0.0
H859 H 0.40708 0.17382 0.2573 0.0
H860 H 0.38781 0.15695 0.22894 0.0
H861 H 0.42149 0.18064 0.22488 0.0
H862 H 0.43796 0.23104 0.17637 0.0
H863 H 0.45222 0.2141 0.13996 0.0
H864 H 0.71757 0.15594 0.31007 0.0
H865 H 0.74425 0.16697 0.27087 0.0
H866 H 0.80436 0.16344 0.31508 0.0
H867 H 0.77744 0.15226 0.35489 0.0
H868 H 0.82303 0.20797 0.28921 0.0
H869 H 0.76474 0.12941 0.21923 0.0
H870 H 0.74476 0.1409 0.23344 0.0
H871 H 0.75826 0.12599 0.25422 0.0
C872 C 0.73607 0.15666 0.31145 0.0
C873 C 0.74532 0.15313 0.33568 0.0
C874 C 0.75133 0.16288 0.28887 0.0
C875 C 0.77608 0.16546 0.28986 0.0
C876 C 0.78518 0.16125 0.31383 0.0
H877 H 0.85486 0.22608 0.13745 0.0
H878 H 0.8403 0.19763 0.17626 0.0
C879 C 0.76988 0.15506 0.33656 0.0
C880 C 0.79341 0.17614 0.2667 0.0
H881 H 0.79189 0.17279 0.1996 0.0
C882 C 0.81662 0.19987 0.26967 0.0
C883 C 0.78546 0.16537 0.24123 0.0
C884 C 0.76207 0.13884 0.23693 0.0
C885 C 0.83057 0.21436 0.24768 0.0
C886 C 0.8207 0.2051 0.22218 0.0
C887 C 0.79909 0.18016 0.2192 0.0
C888 C 0.83039 0.2223 0.1989 0.0
C889 C 0.85508 0.24003 0.25199 0.0
C890 C 0.8291 0.24522 0.19866 0.0
C891 C 0.83738 0.26142 0.1767 0.0
C892 C 0.8469 0.25492 0.15434 0.0
C893 C 0.84787 0.23174 0.15447 0.0
C894 C 0.83953 0.21546 0.17655 0.0
H895 H 0.86485 0.23985 0.27058 0.0
H896 H 0.86892 0.24481 0.23539 0.0
H897 H 0.85008 0.25564 0.25368 0.0
H898 H 0.8215 0.25054 0.21546 0.0
H899 H 0.83668 0.27925 0.17749 0.0
H900 H 0.83194 0.62249 0.36025 0.0
H901 H 0.81402 0.6354 0.32365 0.0
H902 H 0.8581 0.61758 0.26856 0.0
H903 H 0.87633 0.60492 0.30507 0.0
H904 H 0.85105 0.66559 0.25771 0.0
H905 H 0.762 0.56996 0.27615 0.0
H906 H 0.77658 0.59156 0.30369 0.0
H907 H 0.79349 0.57721 0.28815 0.0
C908 C 0.83849 0.62215 0.34044 0.0
C909 C 0.85528 0.61236 0.33546 0.0
C910 C 0.82818 0.62947 0.31957 0.0
C911 C 0.83466 0.62726 0.29349 0.0
C912 C 0.85295 0.61945 0.28859 0.0
H913 H 0.78298 0.61902 0.13547 0.0
H914 H 0.80962 0.63213 0.17539 0.0
C915 C 0.86315 0.61203 0.30941 0.0
C916 C 0.81956 0.62907 0.27134 0.0
H917 H 0.76168 0.59373 0.23976 0.0
C918 C 0.83138 0.65011 0.25385 0.0
C919 C 0.79397 0.60879 0.26648 0.0
C920 C 0.78066 0.58547 0.28444 0.0
C921 C 0.8182 0.65125 0.23132 0.0
C922 C 0.7929 0.63046 0.22595 0.0
C923 C 0.78099 0.60978 0.24391 0.0
C924 C 0.77879 0.62836 0.2011 0.0
C925 C 0.83151 0.67469 0.2136 0.0
C926 C 0.7527 0.62219 0.20208 0.0
C927 C 0.73741 0.61413 0.1794 0.0
C928 C 0.74799 0.61247 0.15527 0.0
C929 C 0.77455 0.62056 0.15381 0.0
C930 C 0.78978 0.62817 0.17663 0.0
H931 H 0.84569 0.69215 0.22478 0.0
H932 H 0.8424 0.67096 0.19809 0.0
H933 H 0.81729 0.67893 0.20394 0.0
H934 H 0.74377 0.62213 0.22071 0.0
H935 H 0.71695 0.60797 0.18088 0.0
H936 H 0.62578 0.84585 0.85686 0.0
H937 H 0.63997 0.83336 0.81697 0.0
H938 H 0.57229 0.82387 0.77585 0.0
H939 H 0.55852 0.83718 0.81525 0.0
H940 H 0.61323 0.78632 0.79451 0.0
H941 H 0.62762 0.86035 0.72059 0.0
H942 H 0.62595 0.86539 0.75547 0.0
H943 H 0.59665 0.84783 0.73635 0.0
C944 C 0.61433 0.84188 0.83911 0.0
C945 C 0.59091 0.84237 0.83928 0.0
C946 C 0.62242 0.83461 0.81636 0.0
C947 C 0.60737 0.82797 0.79332 0.0
C948 C 0.58455 0.82946 0.79318 0.0
H949 H 0.56146 0.71276 0.68065 0.0
H950 H 0.57265 0.74004 0.7194 0.0
C951 C 0.57648 0.83671 0.81586 0.0
C952 C 0.61352 0.81638 0.77051 0.0
H953 H 0.61607 0.81761 0.70333 0.0
C954 C 0.61449 0.79352 0.77462 0.0
C955 C 0.61564 0.82597 0.74458 0.0
C956 C 0.6167 0.8514 0.73902 0.0
C957 C 0.6154 0.77892 0.75337 0.0
C958 C 0.61489 0.78718 0.72738 0.0
C959 C 0.61609 0.8111 0.72329 0.0
C960 C 0.60982 0.76984 0.70448 0.0
C961 C 0.61597 0.75428 0.75894 0.0
C962 C 0.62694 0.7776 0.68299 0.0
C963 C 0.62064 0.76181 0.66058 0.0
C964 C 0.59697 0.73814 0.65918 0.0
C965 C 0.58012 0.73041 0.68102 0.0
C966 C 0.58647 0.74608 0.70333 0.0
H967 H 0.62513 0.7553 0.77831 0.0
H968 H 0.59576 0.73769 0.75962 0.0
H969 H 0.62671 0.75036 0.74339 0.0
H970 H 0.64499 0.79599 0.68344 0.0
H971 H 0.63413 0.76831 0.64424 0.0
H972 H 0.19245 0.76059 0.85171 0.0
H973 H 0.21173 0.78928 0.81376 0.0
H974 H 0.13933 0.78741 0.79938 0.0
H975 H 0.11994 0.75871 0.83732 0.0
H976 H 0.19141 0.77268 0.76346 0.0
H977 H 0.19422 0.86493 0.78957 0.0
H978 H 0.19129 0.84153 0.81403 0.0
H979 H 0.16363 0.83567 0.79465 0.0
C980 C 0.18078 0.7666 0.84068 0.0
C981 C 0.15466 0.75726 0.84737 0.0
C982 C 0.19182 0.78307 0.81912 0.0
C983 C 0.17698 0.79055 0.80389 0.0
C984 C 0.15124 0.78225 0.81118 0.0
H985 H 0.22107 0.83417 0.64043 0.0
H986 H 0.1934 0.81782 0.67946 0.0
C987 C 0.14019 0.76582 0.83286 0.0
C988 C 0.18759 0.80438 0.77874 0.0
H989 H 0.20581 0.86103 0.74577 0.0
C990 C 0.19448 0.79196 0.75954 0.0
C991 C 0.1915 0.8295 0.7738 0.0
C992 C 0.18498 0.84387 0.79413 0.0
C993 C 0.20566 0.80412 0.73564 0.0
C994 C 0.20952 0.82922 0.73056 0.0
C995 C 0.2024 0.84162 0.74963 0.0
C996 C 0.22333 0.84355 0.70658 0.0
C997 C 0.21415 0.79037 0.71643 0.0
C998 C 0.24865 0.86464 0.7088 0.0
C999 C 0.2644 0.87419 0.68652 0.0
C1000 C 0.2551 0.86272 0.66173 0.0
C1001 C 0.22885 0.84341 0.65922 0.0
C1002 C 0.21305 0.83392 0.68153 0.0
H1003 H 0.2143 0.77346 0.72555 0.0
H1004 H 0.20052 0.78318 0.69951 0.0
H1005 H 0.23389 0.80388 0.70871 0.0
H1006 H 0.25686 0.87244 0.72798 0.0
H1007 H 0.28439 0.88946 0.68893 0.0
H1008 H 0.12646 0.39309 0.68223 0.0
H1009 H 0.14839 0.38249 0.71677 0.0
H1010 H 0.20039 0.38035 0.65896 0.0
H1011 H 0.17864 0.39108 0.62432 0.0
H1012 H 0.17474 0.34005 0.71507 0.0
H1013 H 0.23384 0.44828 0.71892 0.0
H1014 H 0.19948 0.43296 0.71243 0.0
H1015 H 0.22062 0.43131 0.68831 0.0
C1016 C 0.14208 0.38962 0.67681 0.0
C1017 C 0.15107 0.39324 0.6507 0.0
C1018 C 0.15442 0.38337 0.69647 0.0
C1019 C 0.17592 0.38067 0.69028 0.0
C1020 C 0.18361 0.3821 0.66395 0.0
H1021 H 0.29651 0.42515 0.80718 0.0
H1022 H 0.27479 0.41164 0.76438 0.0
C1023 C 0.17117 0.38824 0.64422 0.0
C1024 C 0.1931 0.38163 0.71167 0.0
H1025 H 0.24077 0.42508 0.752 0.0
C1026 C 0.18945 0.35855 0.72305 0.0
C1027 C 0.21233 0.40583 0.72169 0.0
C1028 C 0.21703 0.43112 0.70979 0.0
C1029 C 0.20428 0.35916 0.74491 0.0
C1030 C 0.2227 0.38346 0.75577 0.0
C1031 C 0.22679 0.40644 0.74366 0.0
C1032 C 0.23668 0.38606 0.78078 0.0
C1033 C 0.20004 0.33385 0.75614 0.0
C1034 C 0.22272 0.37535 0.80417 0.0
C1035 C 0.23525 0.38276 0.82856 0.0
C1036 C 0.26177 0.40141 0.82991 0.0
C1037 C 0.27602 0.41083 0.80651 0.0
C1038 C 0.26363 0.40308 0.78214 0.0
H1039 H 0.19299 0.31848 0.74078 0.0
H1040 H 0.21814 0.33603 0.7649 0.0
H1041 H 0.18498 0.32721 0.77175 0.0
H1042 H 0.20185 0.36275 0.80374 0.0
H1043 H 0.22383 0.37552 0.84638 0.0
H1044 H 0.51638 0.24499 0.09355 0.0
H1045 H 0.53213 0.28909 0.07784 0.0
H1046 H 0.50554 0.26019 0.99941 0.0
H1047 H 0.48939 0.21543 0.01512 0.0
H1048 H 0.56988 0.30938 0.02758 0.0
H1049 H 0.47941 0.31533 0.02587 0.0
H1050 H 0.48189 0.29393 0.04941 0.0
H1051 H 0.48014 0.28674 0.01492 0.0
C1052 C 0.51364 0.24788 0.07299 0.0
C1053 C 0.50179 0.22679 0.05552 0.0
C1054 C 0.52263 0.27308 0.06407 0.0
C1055 C 0.52002 0.27777 0.03752 0.0
C1056 C 0.50762 0.25682 0.02 0.0
H1057 H 0.62257 0.44663 0.03369 0.0
H1058 H 0.59638 0.40587 0.00925 0.0
C1059 C 0.49842 0.23137 0.029 0.0
C1060 C 0.53179 0.305 0.02875 0.0
H1061 H 0.51927 0.35497 0.03067 0.0
C1062 C 0.55893 0.3195 0.02718 0.0
C1063 C 0.51724 0.31781 0.02817 0.0
C1064 C 0.48801 0.30277 0.02956 0.0
C1065 C 0.57214 0.34672 0.02829 0.0
C1066 C 0.55762 0.35963 0.03056 0.0
C1067 C 0.53037 0.34508 0.02893 0.0
C1068 C 0.56969 0.38634 0.04144 0.0
C1069 C 0.60142 0.36111 0.03007 0.0
C1070 C 0.56226 0.38946 0.06679 0.0
C1071 C 0.57687 0.4126 0.08047 0.0
C1072 C 0.59931 0.43313 0.06918 0.0
C1073 C 0.60544 0.431 0.04288 0.0
C1074 C 0.59063 0.40769 0.02902 0.0
H1075 H 0.60943 0.34776 0.03037 0.0
H1076 H 0.60977 0.37417 0.01283 0.0
H1077 H 0.60796 0.37321 0.04818 0.0
H1078 H 0.54613 0.37336 0.07677 0.0
H1079 H 0.57138 0.41399 0.10049 0.0
H1080 H 0.80768 0.29575 0.0227 0.0
H1081 H 0.76257 0.27397 0.00648 0.0
H1082 H 0.73462 0.25878 0.08657 0.0
H1083 H 0.77916 0.28028 0.10275 0.0
H1084 H 0.70877 0.21566 0.04943 0.0
H1085 H 0.7151 0.30815 0.01656 0.0
H1086 H 0.73947 0.30073 0.00547 0.0
H1087 H 0.73806 0.30776 0.03957 0.0
C1088 C 0.79184 0.28728 0.03673 0.0
C1089 C 0.79682 0.28971 0.06395 0.0
C1090 C 0.76619 0.27511 0.02748 0.0
C1091 C 0.7454 0.26513 0.04539 0.0
C1092 C 0.75044 0.26649 0.07247 0.0
H1093 H 0.58989 0.22607 0.06599 0.0
H1094 H 0.63711 0.24887 0.0594 0.0
C1095 C 0.77588 0.27875 0.08167 0.0
C1096 C 0.71818 0.25383 0.03659 0.0
H1097 H 0.67367 0.27075 0.01698 0.0
C1098 C 0.70108 0.2275 0.04177 0.0
C1099 C 0.70837 0.26959 0.02705 0.0
C1100 C 0.72605 0.29818 0.02187 0.0
C1101 C 0.6742 0.21663 0.03873 0.0
C1102 C 0.66424 0.2325 0.02975 0.0
C1103 C 0.68143 0.25866 0.02364 0.0
C1104 C 0.63593 0.22262 0.02912 0.0
C1105 C 0.65663 0.18866 0.04671 0.0
C1106 C 0.61966 0.2013 0.01323 0.0
C1107 C 0.59284 0.18822 0.01718 0.0
C1108 C 0.58188 0.19652 0.03673 0.0
C1109 C 0.59792 0.21943 0.05073 0.0
C1110 C 0.62485 0.23236 0.04701 0.0
H1111 H 0.66715 0.18083 0.05811 0.0
H1112 H 0.64016 0.18663 0.05881 0.0
H1113 H 0.64855 0.17655 0.02878 0.0
H1114 H 0.62782 0.19381 0.99897 0.0
H1115 H 0.58073 0.17073 0.00599 0.0
H1116 H 0.85623 0.43023 0.02896 0.0
H1117 H 0.83138 0.4529 0.02759 0.0
H1118 H 0.77434 0.39565 0.07992 0.0
H1119 H 0.79908 0.3729 0.08138 0.0
H1120 H 0.75339 0.41319 0.03871 0.0
H1121 H 0.83378 0.49399 0.09454 0.0
H1122 H 0.84287 0.48538 0.06401 0.0
H1123 H 0.83124 0.46261 0.09081 0.0
C1124 C 0.8382 0.42231 0.03987 0.0
C1125 C 0.82978 0.40004 0.05558 0.0
C1126 C 0.82406 0.43525 0.03906 0.0
C1127 C 0.80137 0.4262 0.05408 0.0
C1128 C 0.7919 0.40295 0.06827 0.0
H1129 H 0.72761 0.50144 0.12661 0.0
H1130 H 0.75217 0.48016 0.11429 0.0
C1131 C 0.80599 0.38992 0.06901 0.0
C1132 C 0.7888 0.44212 0.05698 0.0
H1133 H 0.79793 0.49878 0.08375 0.0
C1134 C 0.76313 0.43201 0.04833 0.0
C1135 C 0.80158 0.4665 0.06986 0.0
C1136 C 0.82881 0.47776 0.08057 0.0
C1137 C 0.74975 0.44559 0.05247 0.0
C1138 C 0.76256 0.46996 0.06535 0.0
C1139 C 0.78832 0.48019 0.07368 0.0
C1140 C 0.74891 0.48418 0.07231 0.0
C1141 C 0.72174 0.43336 0.04396 0.0
C1142 C 0.73958 0.49407 0.05275 0.0
C1143 C 0.72557 0.50632 0.05973 0.0
C1144 C 0.72077 0.50886 0.08639 0.0
C1145 C 0.73096 0.49973 0.10591 0.0
C1146 C 0.74496 0.48756 0.09892 0.0
H1147 H 0.71338 0.41253 0.03875 0.0
H1148 H 0.70975 0.43501 0.05981 0.0
H1149 H 0.72043 0.44374 0.02638 0.0
H1150 H 0.74285 0.49202 0.03211 0.0
H1151 H 0.71797 0.5132 0.04427 0.0
H1152 H 0.77646 0.47949 0.35726 0.0
H1153 H 0.72973 0.45758 0.36625 0.0
H1154 H 0.74379 0.50913 0.43198 0.0
H1155 H 0.79049 0.53002 0.42386 0.0
H1156 H 0.71375 0.4626 0.44704 0.0
H1157 H 0.67417 0.47458 0.35327 0.0
H1158 H 0.69354 0.45975 0.34738 0.0
H1159 H 0.70849 0.49232 0.36044 0.0
C1160 C 0.76942 0.48636 0.3733 0.0
C1161 C 0.78689 0.50633 0.3899 0.0
C1162 C 0.74274 0.474 0.37833 0.0
C1163 C 0.73313 0.48197 0.39956 0.0
C1164 C 0.75068 0.50264 0.41549 0.0
H1165 H 0.5636 0.39677 0.41268 0.0
H1166 H 0.60761 0.43414 0.41235 0.0
C1167 C 0.77732 0.51457 0.41083 0.0
C1168 C 0.70519 0.46719 0.40674 0.0
H1169 H 0.64416 0.43868 0.38081 0.0
C1170 C 0.69853 0.4578 0.43264 0.0
C1171 C 0.6852 0.4614 0.38827 0.0
C1172 C 0.69074 0.47283 0.3609 0.0
C1173 C 0.6726 0.44157 0.44011 0.0
C1174 C 0.65283 0.43371 0.42093 0.0
C1175 C 0.65932 0.44437 0.39548 0.0
C1176 C 0.62585 0.41256 0.42589 0.0
C1177 C 0.66677 0.43287 0.46844 0.0
C1178 C 0.62135 0.3882 0.43444 0.0
C1179 C 0.59621 0.36697 0.43516 0.0
C1180 C 0.57504 0.36944 0.42672 0.0
C1181 C 0.57938 0.39417 0.41954 0.0
C1182 C 0.60459 0.41554 0.4191 0.0
H1183 H 0.68116 0.44796 0.48189 0.0
H1184 H 0.64702 0.42853 0.47434 0.0
H1185 H 0.6682 0.41509 0.4711 0.0
H1186 H 0.63739 0.38519 0.43921 0.0
H1187 H 0.59349 0.34829 0.4411 0.0
H1188 H 0.54137 0.10167 0.4004 0.0
H1189 H 0.51153 0.11871 0.39878 0.0
H1190 H 0.57252 0.19305 0.42626 0.0
H1191 H 0.60248 0.17614 0.42806 0.0
H1192 H 0.49516 0.14268 0.43736 0.0
H1193 H 0.55004 0.20872 0.35487 0.0
H1194 H 0.55478 0.18228 0.36497 0.0
H1195 H 0.56973 0.2123 0.38312 0.0
C1196 C 0.54835 0.12152 0.4065 0.0
C1197 C 0.5744 0.13765 0.41412 0.0
C1198 C 0.53127 0.13122 0.4055 0.0
C1199 C 0.53997 0.1572 0.41203 0.0
C1200 C 0.56561 0.17305 0.42068 0.0
H1201 H 0.46773 0.24699 0.4423 0.0
H1202 H 0.48027 0.21379 0.44557 0.0
C1203 C 0.58271 0.1634 0.42162 0.0
C1204 C 0.52271 0.1682 0.40853 0.0
H1205 H 0.51827 0.21572 0.37564 0.0
C1206 C 0.49999 0.1585 0.42371 0.0
C1207 C 0.52879 0.18836 0.39026 0.0
C1208 C 0.55201 0.19839 0.37217 0.0
C1209 C 0.4837 0.16928 0.42186 0.0
C1210 C 0.49065 0.1905 0.40468 0.0
C1211 C 0.51289 0.19946 0.38884 0.0
C1212 C 0.47651 0.20516 0.4038 0.0
C1213 C 0.45931 0.15782 0.43828 0.0
C1214 C 0.46943 0.21085 0.37937 0.0
C1215 C 0.4628 0.23024 0.37742 0.0
C1216 C 0.46283 0.24399 0.39991 0.0
C1217 C 0.46728 0.23647 0.42469 0.0
C1218 C 0.47439 0.21738 0.42659 0.0
H1219 H 0.45209 0.13699 0.44264 0.0
H1220 H 0.46364 0.1683 0.45736 0.0
H1221 H 0.44366 0.15959 0.42827 0.0
H1222 H 0.47086 0.20162 0.36154 0.0
H1223 H 0.45939 0.23567 0.35809 0.0
H1224 H 0.85087 0.42006 0.41003 0.0
H1225 H 0.82056 0.37325 0.40839 0.0
H1226 H 0.76236 0.38702 0.37372 0.0
H1227 H 0.79261 0.4338 0.37489 0.0
H1228 H 0.74379 0.35059 0.41567 0.0
H1229 H 0.79796 0.32762 0.34147 0.0
H1230 H 0.81713 0.34594 0.36922 0.0
H1231 H 0.80418 0.36024 0.34711 0.0
C1232 C 0.83173 0.41317 0.40183 0.0
C1233 C 0.82429 0.43081 0.39257 0.0
C1234 C 0.81441 0.38639 0.40091 0.0
C1235 C 0.78933 0.37665 0.39062 0.0
C1236 C 0.78165 0.39414 0.38171 0.0
H1237 H 0.68677 0.21248 0.35186 0.0
H1238 H 0.7111 0.26014 0.34994 0.0
C1239 C 0.79897 0.42093 0.38256 0.0
C1240 C 0.77102 0.34823 0.38945 0.0
H1241 H 0.76333 0.29172 0.36364 0.0
C1242 C 0.74795 0.33771 0.40416 0.0
C1243 C 0.77629 0.33152 0.3741 0.0
C1244 C 0.8001 0.34186 0.35686 0.0
C1245 C 0.73044 0.31081 0.40464 0.0
C1246 C 0.7363 0.294 0.39022 0.0
C1247 C 0.75894 0.30461 0.37482 0.0
C1248 C 0.7198 0.26529 0.39164 0.0
C1249 C 0.70579 0.30063 0.42052 0.0
C1250 C 0.71654 0.25239 0.41571 0.0
C1251 C 0.70271 0.22526 0.41683 0.0
C1252 C 0.69194 0.21049 0.39389 0.0
C1253 C 0.69474 0.22339 0.36987 0.0
C1254 C 0.70868 0.25058 0.36874 0.0
H1255 H 0.70064 0.31596 0.42407 0.0
H1256 H 0.68927 0.28398 0.41044 0.0
H1257 H 0.7086 0.29384 0.43995 0.0
H1258 H 0.72537 0.2633 0.43352 0.0
H1259 H 0.70101 0.21586 0.43559 0.0
H1260 H 0.38951 0.54919 0.9519 0.0
H1261 H 0.43063 0.5854 0.96686 0.0
H1262 H 0.39857 0.63628 0.96116 0.0
H1263 H 0.357 0.59993 0.94796 0.0
H1264 H 0.46053 0.62367 0.93818 0.0
H1265 H 0.44158 0.66681 0.02432 0.0
H1266 H 0.41847 0.63431 0.01355 0.0
H1267 H 0.41746 0.66209 0.0005 0.0
C1268 C 0.39076 0.5678 0.95487 0.0
C1269 C 0.36985 0.57165 0.94845 0.0
C1270 C 0.41447 0.58859 0.96332 0.0
C1271 C 0.41777 0.61361 0.96547 0.0
C1272 C 0.39648 0.61712 0.96045 0.0
H1273 H 0.50409 0.74497 0.893 0.0
H1274 H 0.48823 0.70124 0.90903 0.0
C1275 C 0.37274 0.59634 0.95237 0.0
C1276 C 0.44404 0.63676 0.96834 0.0
H1277 H 0.47207 0.69885 0.99103 0.0
C1278 C 0.46344 0.63986 0.95045 0.0
C1279 C 0.4487 0.6577 0.98504 0.0
C1280 C 0.43047 0.65483 0.00713 0.0
C1281 C 0.48544 0.66427 0.9462 0.0
C1282 C 0.48752 0.68616 0.95946 0.0
C1283 C 0.47018 0.6823 0.9801 0.0
C1284 C 0.50324 0.71282 0.94867 0.0
C1285 C 0.50535 0.66656 0.92634 0.0
C1286 C 0.51743 0.73423 0.96537 0.0
C1287 C 0.52615 0.7595 0.95625 0.0
C1288 C 0.52069 0.76363 0.93034 0.0
C1289 C 0.50855 0.74242 0.91309 0.0
C1290 C 0.49973 0.71728 0.92221 0.0
H1291 H 0.50848 0.64968 0.92798 0.0
H1292 H 0.49802 0.66624 0.90616 0.0
H1293 H 0.52426 0.68472 0.929 0.0
H1294 H 0.52029 0.7313 0.98589 0.0
H1295 H 0.53549 0.77552 0.97 0.0
H1296 H 0.20641 0.69143 0.86061 0.0
H1297 H 0.25286 0.70657 0.86559 0.0
H1298 H 0.24669 0.71444 0.94933 0.0
H1299 H 0.20024 0.69892 0.94457 0.0
H1300 H 0.28919 0.75931 0.92099 0.0
H1301 H 0.28474 0.66472 0.90293 0.0
H1302 H 0.2681 0.67435 0.87988 0.0
H1303 H 0.25673 0.66681 0.9132 0.0
C1304 C 0.2149 0.6961 0.88008 0.0
C1305 C 0.19968 0.69371 0.90223 0.0
C1306 C 0.2414 0.70477 0.88289 0.0
C1307 C 0.25302 0.7113 0.90787 0.0
C1308 C 0.23797 0.70934 0.92993 0.0
H1309 H 0.40345 0.74468 0.96607 0.0
H1310 H 0.35691 0.7268 0.95786 0.0
C1311 C 0.21149 0.70053 0.92716 0.0
C1312 C 0.28105 0.72075 0.91106 0.0
H1313 H 0.32636 0.70149 0.90922 0.0
C1314 C 0.29738 0.74674 0.91835 0.0
C1315 C 0.29146 0.70413 0.90782 0.0
C1316 C 0.27443 0.67588 0.90069 0.0
C1317 C 0.32403 0.75666 0.92235 0.0
C1318 C 0.33454 0.74013 0.91883 0.0
C1319 C 0.31818 0.71407 0.91174 0.0
C1320 C 0.3625 0.74967 0.92279 0.0
C1321 C 0.34074 0.78462 0.9307 0.0
C1322 C 0.38088 0.76803 0.90549 0.0
C1323 C 0.40736 0.77824 0.91012 0.0
C1324 C 0.41596 0.77028 0.93217 0.0
C1325 C 0.39743 0.75137 0.9491 0.0
C1326 C 0.37089 0.74105 0.94436 0.0
H1327 H 0.32892 0.79326 0.93743 0.0
H1328 H 0.3541 0.78627 0.94684 0.0
H1329 H 0.35277 0.79618 0.91375 0.0
H1330 H 0.37471 0.77476 0.88863 0.0
H1331 H 0.4211 0.793 0.89687 0.0
H1332 H 0.1732 0.61577 0.93004 0.0
H1333 H 0.19354 0.58947 0.93728 0.0
H1334 H 0.11877 0.5197 0.93215 0.0
H1335 H 0.09798 0.54589 0.92645 0.0
H1336 H 0.15155 0.51448 0.96717 0.0
H1337 H 0.20023 0.55446 0.87134 0.0
H1338 H 0.20763 0.57897 0.89584 0.0
H1339 H 0.1749 0.55978 0.88384 0.0
C1340 C 0.16089 0.59491 0.93124 0.0
C1341 C 0.13396 0.58295 0.92686 0.0
C1342 C 0.17263 0.57986 0.93515 0.0
C1343 C 0.15775 0.55264 0.93435 0.0
C1344 C 0.13066 0.54069 0.93242 0.0
H1345 H 0.22702 0.46497 0.87744 0.0
H1346 H 0.19541 0.47894 0.88608 0.0
C1347 C 0.11885 0.55571 0.92885 0.0
C1348 C 0.17055 0.53679 0.93247 0.0
H1349 H 0.2126 0.52788 0.89429 0.0
C1350 C 0.16487 0.5173 0.95123 0.0
C1351 C 0.18736 0.54007 0.91125 0.0
C1352 C 0.19272 0.55925 0.88927 0.0
C1353 C 0.17605 0.50132 0.94961 0.0
C1354 C 0.19369 0.50537 0.92897 0.0
C1355 C 0.19905 0.5247 0.91012 0.0
C1356 C 0.20759 0.49055 0.92642 0.0
C1357 C 0.16849 0.48005 0.9697 0.0
C1358 C 0.22393 0.49102 0.94666 0.0
C1359 C 0.24153 0.48234 0.94191 0.0
C1360 C 0.24343 0.47374 0.91668 0.0
C1361 C 0.22585 0.47151 0.89706 0.0
C1362 C 0.20788 0.47958 0.90197 0.0
H1363 H 0.14909 0.47398 0.97833 0.0
H1364 H 0.16814 0.46276 0.96093 0.0
H1365 H 0.18285 0.48736 0.98599 0.0
H1366 H 0.22453 0.4999 0.96547 0.0
H1367 H 0.25521 0.48462 0.95722 0.0
H1368 H 0.43154 0.6206 0.60662 0.0
H1369 H 0.38462 0.60093 0.61057 0.0
H1370 H 0.37392 0.5407 0.55609 0.0
H1371 H 0.42115 0.56061 0.55153 0.0
H1372 H 0.34742 0.59029 0.56908 0.0
H1373 H 0.3309 0.50178 0.62296 0.0
H1374 H 0.36253 0.53058 0.6205 0.0
H1375 H 0.34927 0.50898 0.59289 0.0
C1376 C 0.41935 0.60341 0.59511 0.0
C1377 C 0.4302 0.59228 0.57858 0.0
C1378 C 0.39248 0.59209 0.59758 0.0
C1379 C 0.37588 0.5693 0.5838 0.0
C1380 C 0.38649 0.55813 0.56716 0.0
H1381 H 0.20969 0.50147 0.56117 0.0
H1382 H 0.25667 0.52105 0.55529 0.0
C1383 C 0.41344 0.5695 0.5646 0.0
C1384 C 0.34746 0.55744 0.58686 0.0
H1385 H 0.2937 0.50431 0.61147 0.0
C1386 C 0.33562 0.57146 0.57827 0.0
C1387 C 0.3323 0.53305 0.59919 0.0
C1388 C 0.34431 0.51771 0.60964 0.0
C1389 C 0.30886 0.56161 0.58149 0.0
C1390 C 0.29363 0.53703 0.59342 0.0
C1391 C 0.30549 0.5231 0.60221 0.0
C1392 C 0.26529 0.52548 0.597 0.0
C1393 C 0.29715 0.57774 0.57254 0.0
C1394 C 0.25464 0.52123 0.62242 0.0
C1395 C 0.22782 0.51007 0.62584 0.0
C1396 C 0.2113 0.50281 0.60386 0.0
C1397 C 0.22202 0.507 0.57844 0.0
C1398 C 0.24881 0.51824 0.57505 0.0
H1399 H 0.31222 0.59835 0.56917 0.0
H1400 H 0.2866 0.56974 0.55375 0.0
H1401 H 0.28302 0.57706 0.58729 0.0
H1402 H 0.2671 0.52663 0.63959 0.0
H1403 H 0.22002 0.50698 0.64564 0.0
H1404 H 0.44602 0.86366 0.59074 0.0
H1405 H 0.46451 0.83501 0.58935 0.0
H1406 H 0.39394 0.77284 0.62253 0.0
H1407 H 0.37542 0.80137 0.62434 0.0
H1408 H 0.4719 0.80842 0.6323 0.0
H1409 H 0.40625 0.74066 0.55557 0.0
H1410 H 0.40982 0.7723 0.56116 0.0
H1411 H 0.39023 0.74584 0.58299 0.0
C1412 C 0.43447 0.84394 0.59785 0.0
C1413 C 0.40918 0.8348 0.60752 0.0
C1414 C 0.44502 0.82758 0.59695 0.0
C1415 C 0.43045 0.80176 0.60554 0.0
C1416 C 0.40529 0.79257 0.61533 0.0
H1417 H 0.48839 0.69608 0.64071 0.0
H1418 H 0.46835 0.72347 0.64336 0.0
C1419 C 0.39472 0.80892 0.61627 0.0
C1420 C 0.4418 0.78459 0.60471 0.0
H1421 H 0.43483 0.72933 0.57645 0.0
C1422 C 0.46383 0.79111 0.62011 0.0
C1423 C 0.43128 0.76218 0.58861 0.0
C1424 C 0.40822 0.75485 0.57095 0.0
C1425 C 0.47555 0.77566 0.61998 0.0
C1426 C 0.46477 0.75302 0.60423 0.0
C1427 C 0.44286 0.7466 0.58868 0.0
C1428 C 0.47656 0.73627 0.60281 0.0
C1429 C 0.49967 0.78392 0.63626 0.0
C1430 C 0.48734 0.73411 0.57903 0.0
C1431 C 0.49872 0.71853 0.57747 0.0
C1432 C 0.49933 0.70471 0.59964 0.0
C1433 C 0.48825 0.70662 0.62337 0.0
C1434 C 0.47692 0.72231 0.62494 0.0
H1435 H 0.50845 0.8044 0.64299 0.0
H1436 H 0.49458 0.77131 0.65393 0.0
H1437 H 0.51441 0.78175 0.62484 0.0
H1438 H 0.48715 0.74469 0.56173 0.0
H1439 H 0.50707 0.71735 0.55891 0.0
H1440 H 0.28767 0.78762 0.57616 0.0
H1441 H 0.25943 0.74039 0.57731 0.0
H1442 H 0.26947 0.74098 0.66151 0.0
H1443 H 0.29749 0.78835 0.66053 0.0
H1444 H 0.27096 0.70303 0.59458 0.0
H1445 H 0.19031 0.7 0.65277 0.0
H1446 H 0.21538 0.72942 0.63768 0.0
H1447 H 0.22176 0.71785 0.66787 0.0
C1448 C 0.2838 0.77768 0.59492 0.0
C1449 C 0.29466 0.7916 0.61827 0.0
C1450 C 0.26769 0.75073 0.59555 0.0
C1451 C 0.26207 0.73724 0.61953 0.0
C1452 C 0.27314 0.75108 0.64287 0.0
H1453 H 0.19591 0.56987 0.63425 0.0
H1454 H 0.22379 0.61703 0.63683 0.0
C1455 C 0.28925 0.77808 0.64226 0.0
C1456 C 0.24508 0.70863 0.61987 0.0
H1457 H 0.18755 0.65957 0.64353 0.0
C1458 C 0.25273 0.69351 0.60528 0.0
C1459 C 0.22119 0.69633 0.63364 0.0
C1460 C 0.21148 0.71169 0.6487 0.0
C1461 C 0.23718 0.66637 0.60418 0.0
C1462 C 0.21354 0.65403 0.61837 0.0
C1463 C 0.2058 0.66913 0.63285 0.0
C1464 C 0.19628 0.62547 0.61782 0.0
C1465 C 0.2459 0.65119 0.58736 0.0
C1466 C 0.17129 0.61462 0.60697 0.0
C1467 C 0.15531 0.58765 0.60544 0.0
C1468 C 0.16405 0.57108 0.61477 0.0
C1469 C 0.18886 0.58207 0.62627 0.0
C1470 C 0.20479 0.60901 0.62784 0.0
H1471 H 0.26113 0.66385 0.57302 0.0
H1472 H 0.25411 0.64199 0.60022 0.0
H1473 H 0.22928 0.63555 0.57637 0.0
H1474 H 0.16435 0.62702 0.59921 0.0
H1475 H 0.13637 0.57978 0.59641 0.0
loop_
_geom_bond_atom_site_label_1
_geom_bond_atom_site_label_2
_geom_bond_distance
_geom_bond_site_symmetry_2
_ccdc_geom_bond_type
Co0 N4 2.148 . S
Co0 N10 2.128 . S
Co0 N20 2.194 . S
Co0 O25 2.351 . S
Co0 O26 2.155 . S
Co0 O27 2.096 . S
C1 N4 1.301 . S
C1 N5 1.328 . S
C1 H6 0.930 . S
C2 C3 1.333 . S
C2 N4 1.317 . S
C2 H7 0.930 . S
C3 C2 1.333 . S
C3 N5 1.350 . S
C3 H29 0.931 . S
N4 Co0 2.148 . S
N4 C1 1.301 . S
N4 C2 1.317 . S
N5 C1 1.328 . S
N5 C3 1.350 . S
H6 C1 0.930 . S
H7 C2 0.930 . S
C8 O9 1.224 . S
C8 O27 1.247 . S
O9 C8 1.224 . S
N10 Co0 2.128 . S
N10 C11 1.355 . S
N10 C13 1.311 . S
C11 N10 1.355 . S
C11 C12 1.363 . S
C11 H23 0.929 . S
C12 C11 1.363 . S
C12 N14 1.375 . S
C12 H30 0.931 . S
C13 N10 1.311 . S
C13 N14 1.347 . S
C13 H24 0.929 . S
N14 C12 1.375 . S
N14 C13 1.347 . S
C15 C18 1.365 . S
C15 N20 1.328 . S
C15 H21 0.929 . S
C16 C17 1.362 . S
C16 C19 1.378 . S
C16 H31 0.929 . S
C17 C16 1.362 . S
C17 C18 1.366 . S
C18 C15 1.365 . S
C18 C17 1.366 . S
C18 H32 0.930 . S
C19 C16 1.378 . S
C19 N20 1.315 . S
C19 H22 0.930 . S
N20 Co0 2.194 . S
N20 C15 1.328 . S
N20 C19 1.315 . S
H21 C15 0.929 . S
H22 C19 0.930 . S
H23 C11 0.929 . S
H24 C13 0.929 . S
O25 Co0 2.351 . S
O25 C28 1.244 . S
O26 Co0 2.155 . S
O26 C28 1.240 . S
O27 Co0 2.096 . S
O27 C8 1.247 . S
C28 O25 1.244 . S
C28 O26 1.240 . S
H29 C3 0.931 . S
H30 C12 0.931 . S
H31 C16 0.929 . S
H32 C18 0.930 . S
Co33 N37 2.148 . S
Co33 N43 2.128 . S
Co33 N53 2.194 . S
Co33 O58 2.351 . S
Co33 O59 2.155 . S
Co33 O60 2.096 . S
C34 N37 1.301 . S
C34 N38 1.328 . S
C34 H39 0.930 . S
C35 C36 1.333 . S
C35 N37 1.317 . S
C35 H40 0.930 . S
C36 C35 1.333 . S
C36 N38 1.350 . S
C36 H62 0.931 . S
N37 Co33 2.148 . S
N37 C34 1.301 . S
N37 C35 1.317 . S
N38 C34 1.328 . S
N38 C36 1.350 . S
H39 C34 0.930 . S
H40 C35 0.930 . S
C41 O42 1.224 . S
C41 O60 1.247 . S
O42 C41 1.224 . S
N43 Co33 2.128 . S
N43 C44 1.355 . S
N43 C46 1.311 . S
C44 N43 1.355 . S
C44 C45 1.363 . S
C44 H56 0.929 . S
C45 C44 1.363 . S
C45 N47 1.375 . S
C45 H63 0.931 . S
C46 N43 1.311 . S
C46 N47 1.347 . S
C46 H57 0.929 . S
N47 C45 1.375 . S
N47 C46 1.347 . S
C48 C51 1.365 . S
C48 N53 1.328 . S
C48 H54 0.929 . S
C49 C50 1.362 . S
C49 C52 1.378 . S
C49 H64 0.929 . S
C50 C49 1.362 . S
C50 C51 1.366 . S
C51 C48 1.365 . S
C51 C50 1.366 . S
C51 H65 0.930 . S
C52 C49 1.378 . S
C52 N53 1.315 . S
C52 H55 0.930 . S
N53 Co33 2.194 . S
N53 C48 1.328 . S
N53 C52 1.315 . S
H54 C48 0.929 . S
H55 C52 0.930 . S
H56 C44 0.929 . S
H57 C46 0.929 . S
O58 Co33 2.351 . S
O58 C61 1.244 . S
O59 Co33 2.155 . S
O59 C61 1.240 . S
O60 Co33 2.096 . S
O60 C41 1.247 . S
C61 O58 1.244 . S
C61 O59 1.240 . S
H62 C36 0.931 . S
H63 C45 0.931 . S
H64 C49 0.929 . S
H65 C51 0.930 . S
Co66 N70 2.148 . S
Co66 N76 2.128 . S
Co66 N86 2.194 . S
Co66 O91 2.351 . S
Co66 O92 2.155 . S
Co66 O93 2.096 . S
C67 N70 1.301 . S
C67 N71 1.328 . S
C67 H72 0.930 . S
C68 C69 1.333 . S
C68 N70 1.317 . S
C68 H73 0.930 . S
C69 C68 1.333 . S
C69 N71 1.350 . S
C69 H95 0.931 . S
N70 Co66 2.148 . S
N70 C67 1.301 . S
N70 C68 1.317 . S
N71 C67 1.328 . S
N71 C69 1.350 . S
H72 C67 0.930 . S
H73 C68 0.930 . S
C74 O75 1.224 . S
C74 O93 1.247 . S
O75 C74 1.224 . S
N76 Co66 2.128 . S
N76 C77 1.355 . S
N76 C79 1.311 . S
C77 N76 1.355 . S
C77 C78 1.363 . S
C77 H89 0.929 . S
C78 C77 1.363 . S
C78 N80 1.375 . S
C78 H96 0.931 . S
C79 N76 1.311 . S
C79 N80 1.347 . S
C79 H90 0.929 . S
N80 C78 1.375 . S
N80 C79 1.347 . S
C81 C84 1.365 . S
C81 N86 1.328 . S
C81 H87 0.929 . S
C82 C83 1.362 . S
C82 C85 1.378 . S
C82 H97 0.929 . S
C83 C82 1.362 . S
C83 C84 1.366 . S
C84 C81 1.365 . S
C84 C83 1.366 . S
C84 H98 0.930 . S
C85 C82 1.378 . S
C85 N86 1.315 . S
C85 H88 0.930 . S
N86 Co66 2.194 . S
N86 C81 1.328 . S
N86 C85 1.315 . S
H87 C81 0.929 . S
H88 C85 0.930 . S
H89 C77 0.929 . S
H90 C79 0.929 . S
O91 Co66 2.351 . S
O91 C94 1.244 . S
O92 Co66 2.155 . S
O92 C94 1.240 . S
O93 Co66 2.096 . S
O93 C74 1.247 . S
C94 O91 1.244 . S
C94 O92 1.240 . S
H95 C69 0.931 . S
H96 C78 0.931 . S
H97 C82 0.929 . S
H98 C84 0.930 . S
Co99 N103 2.148 . S
Co99 N109 2.128 . S
Co99 N119 2.194 . S
Co99 O124 2.351 . S
Co99 O125 2.155 . S
Co99 O126 2.096 . S
C100 N103 1.301 . S
C100 N104 1.328 . S
C100 H105 0.930 . S
C101 C102 1.333 . S
C101 N103 1.317 . S
C101 H106 0.930 . S
C102 C101 1.333 . S
C102 N104 1.350 . S
C102 H128 0.931 . S
N103 Co99 2.148 . S
N103 C100 1.301 . S
N103 C101 1.317 . S
N104 C100 1.328 . S
N104 C102 1.350 . S
H105 C100 0.930 . S
H106 C101 0.930 . S
C107 O108 1.224 . S
C107 O126 1.247 . S
O108 C107 1.224 . S
N109 Co99 2.128 . S
N109 C110 1.355 . S
N109 C112 1.311 . S
C110 N109 1.355 . S
C110 C111 1.363 . S
C110 H122 0.929 . S
C111 C110 1.363 . S
C111 N113 1.375 . S
C111 H129 0.931 . S
C112 N109 1.311 . S
C112 N113 1.347 . S
C112 H123 0.929 . S
N113 C111 1.375 . S
N113 C112 1.347 . S
C114 C117 1.365 . S
C114 N119 1.328 . S
C114 H120 0.929 . S
C115 C116 1.362 . S
C115 C118 1.378 . S
C115 H130 0.929 . S
C116 C115 1.362 . S
C116 C117 1.366 . S
C117 C114 1.365 . S
C117 C116 1.366 . S
C117 H131 0.930 . S
C118 C115 1.378 . S
C118 N119 1.315 . S
C118 H121 0.930 . S
N119 Co99 2.194 . S
N119 C114 1.328 . S
N119 C118 1.315 . S
H120 C114 0.929 . S
H121 C118 0.930 . S
H122 C110 0.929 . S
H123 C112 0.929 . S
O124 Co99 2.351 . S
O124 C127 1.244 . S
O125 Co99 2.155 . S
O125 C127 1.240 . S
O126 Co99 2.096 . S
O126 C107 1.247 . S
C127 O124 1.244 . S
C127 O125 1.240 . S
H128 C102 0.931 . S
H129 C111 0.931 . S
H130 C115 0.929 . S
H131 C117 0.930 . S
Co132 N136 2.148 . S
Co132 N142 2.128 . S
Co132 N152 2.194 . S
Co132 O157 2.351 . S
Co132 O158 2.155 . S
Co132 O159 2.096 . S
C133 N136 1.301 . S
C133 N137 1.328 . S
C133 H138 0.930 . S
C134 C135 1.333 . S
C134 N136 1.317 . S
C134 H139 0.930 . S
C135 C134 1.333 . S
C135 N137 1.350 . S
C135 H161 0.931 . S
N136 Co132 2.148 . S
N136 C133 1.301 . S
N136 C134 1.317 . S
N137 C133 1.328 . S
N137 C135 1.350 . S
H138 C133 0.930 . S
H139 C134 0.930 . S
C140 O141 1.224 . S
C140 O159 1.247 . S
O141 C140 1.224 . S
N142 Co132 2.128 . S
N142 C143 1.355 . S
N142 C145 1.311 . S
C143 N142 1.355 . S
C143 C144 1.363 . S
C143 H155 0.929 . S
C144 C143 1.363 . S
C144 N146 1.375 . S
C144 H162 0.931 . S
C145 N142 1.311 . S
C145 N146 1.347 . S
C145 H156 0.929 . S
N146 C144 1.375 . S
N146 C145 1.347 . S
C147 C150 1.365 . S
C147 N152 1.328 . S
C147 H153 0.929 . S
C148 C149 1.362 . S
C148 C151 1.378 . S
C148 H163 0.929 . S
C149 C148 1.362 . S
C149 C150 1.366 . S
C150 C147 1.365 . S
C150 C149 1.366 . S
C150 H164 0.930 . S
C151 C148 1.378 . S
C151 N152 1.315 . S
C151 H154 0.930 . S
N152 Co132 2.194 . S
N152 C147 1.328 . S
N152 C151 1.315 . S
H153 C147 0.929 . S
H154 C151 0.930 . S
H155 C143 0.929 . S
H156 C145 0.929 . S
O157 Co132 2.351 . S
O157 C160 1.244 . S
O158 Co132 2.155 . S
O158 C160 1.240 . S
O159 Co132 2.096 . S
O159 C140 1.247 . S
C160 O157 1.244 . S
C160 O158 1.240 . S
H161 C135 0.931 . S
H162 C144 0.931 . S
H163 C148 0.929 . S
H164 C150 0.930 . S
Co165 N169 2.148 . S
Co165 N175 2.128 . S
Co165 N185 2.194 . S
Co165 O190 2.351 . S
Co165 O191 2.155 . S
Co165 O192 2.096 . S
C166 N169 1.301 . S
C166 N170 1.328 . S
C166 H171 0.930 . S
C167 C168 1.333 . S
C167 N169 1.317 . S
C167 H172 0.930 . S
C168 C167 1.333 . S
C168 N170 1.350 . S
C168 H194 0.931 . S
N169 Co165 2.148 . S
N169 C166 1.301 . S
N169 C167 1.317 . S
N170 C166 1.328 . S
N170 C168 1.350 . S
H171 C166 0.930 . S
H172 C167 0.930 . S
C173 O174 1.224 . S
C173 O192 1.247 . S
O174 C173 1.224 . S
N175 Co165 2.128 . S
N175 C176 1.355 . S
N175 C178 1.311 . S
C176 N175 1.355 . S
C176 C177 1.363 . S
C176 H188 0.929 . S
C177 C176 1.363 . S
C177 N179 1.375 . S
C177 H195 0.931 . S
C178 N175 1.311 . S
C178 N179 1.347 . S
C178 H189 0.929 . S
N179 C177 1.375 . S
N179 C178 1.347 . S
C180 C183 1.365 . S
C180 N185 1.328 . S
C180 H186 0.929 . S
C181 C182 1.362 . S
C181 C184 1.378 . S
C181 H196 0.929 . S
C182 C181 1.362 . S
C182 C183 1.366 . S
C183 C180 1.365 . S
C183 C182 1.366 . S
C183 H197 0.930 . S
C184 C181 1.378 . S
C184 N185 1.315 . S
C184 H187 0.930 . S
N185 Co165 2.194 . S
N185 C180 1.328 . S
N185 C184 1.315 . S
H186 C180 0.929 . S
H187 C184 0.930 . S
H188 C176 0.929 . S
H189 C178 0.929 . S
O190 Co165 2.351 . S
O190 C193 1.244 . S
O191 Co165 2.155 . S
O191 C193 1.240 . S
O192 Co165 2.096 . S
O192 C173 1.247 . S
C193 O190 1.244 . S
C193 O191 1.240 . S
H194 C168 0.931 . S
H195 C177 0.931 . S
H196 C181 0.929 . S
H197 C183 0.930 . S
Co198 N202 2.148 . S
Co198 N208 2.128 . S
Co198 N218 2.194 . S
Co198 O223 2.351 . S
Co198 O224 2.155 . S
Co198 O225 2.096 . S
C199 N202 1.301 . S
C199 N203 1.328 . S
C199 H204 0.930 . S
C200 C201 1.333 . S
C200 N202 1.317 . S
C200 H205 0.930 . S
C201 C200 1.333 . S
C201 N203 1.350 . S
C201 H227 0.931 . S
N202 Co198 2.148 . S
N202 C199 1.301 . S
N202 C200 1.317 . S
N203 C199 1.328 . S
N203 C201 1.350 . S
H204 C199 0.930 . S
H205 C200 0.930 . S
C206 O207 1.224 . S
C206 O225 1.247 . S
O207 C206 1.224 . S
N208 Co198 2.128 . S
N208 C209 1.355 . S
N208 C211 1.311 . S
C209 N208 1.355 . S
C209 C210 1.363 . S
C209 H221 0.929 . S
C210 C209 1.363 . S
C210 N212 1.375 . S
C210 H228 0.931 . S
C211 N208 1.311 . S
C211 N212 1.347 . S
C211 H222 0.929 . S
N212 C210 1.375 . S
N212 C211 1.347 . S
C213 C216 1.365 . S
C213 N218 1.328 . S
C213 H219 0.929 . S
C214 C215 1.362 . S
C214 C217 1.378 . S
C214 H229 0.929 . S
C215 C214 1.362 . S
C215 C216 1.366 . S
C216 C213 1.365 . S
C216 C215 1.366 . S
C216 H230 0.930 . S
C217 C214 1.378 . S
C217 N218 1.315 . S
C217 H220 0.930 . S
N218 Co198 2.194 . S
N218 C213 1.328 . S
N218 C217 1.315 . S
H219 C213 0.929 . S
H220 C217 0.930 . S
H221 C209 0.929 . S
H222 C211 0.929 . S
O223 Co198 2.351 . S
O223 C226 1.244 . S
O224 Co198 2.155 . S
O224 C226 1.240 . S
O225 Co198 2.096 . S
O225 C206 1.247 . S
C226 O223 1.244 . S
C226 O224 1.240 . S
H227 C201 0.931 . S
H228 C210 0.931 . S
H229 C214 0.929 . S
H230 C216 0.930 . S
Co231 N235 2.148 . S
Co231 N241 2.128 . S
Co231 N251 2.194 . S
Co231 O256 2.351 . S
Co231 O257 2.155 . S
Co231 O258 2.096 . S
C232 N235 1.301 . S
C232 N236 1.328 . S
C232 H237 0.930 . S
C233 C234 1.333 . S
C233 N235 1.317 . S
C233 H238 0.930 . S
C234 C233 1.333 . S
C234 N236 1.350 . S
C234 H260 0.931 . S
N235 Co231 2.148 . S
N235 C232 1.301 . S
N235 C233 1.317 . S
N236 C232 1.328 . S
N236 C234 1.350 . S
H237 C232 0.930 . S
H238 C233 0.930 . S
C239 O240 1.224 . S
C239 O258 1.247 . S
O240 C239 1.224 . S
N241 Co231 2.128 . S
N241 C242 1.355 . S
N241 C244 1.311 . S
C242 N241 1.355 . S
C242 C243 1.363 . S
C242 H254 0.929 . S
C243 C242 1.363 . S
C243 N245 1.375 . S
C243 H261 0.931 . S
C244 N241 1.311 . S
C244 N245 1.347 . S
C244 H255 0.929 . S
N245 C243 1.375 . S
N245 C244 1.347 . S
C246 C249 1.365 . S
C246 N251 1.328 . S
C246 H252 0.929 . S
C247 C248 1.362 . S
C247 C250 1.378 . S
C247 H262 0.929 . S
C248 C247 1.362 . S
C248 C249 1.366 . S
C249 C246 1.365 . S
C249 C248 1.366 . S
C249 H263 0.930 . S
C250 C247 1.378 . S
C250 N251 1.315 . S
C250 H253 0.930 . S
N251 Co231 2.194 . S
N251 C246 1.328 . S
N251 C250 1.315 . S
H252 C246 0.929 . S
H253 C250 0.930 . S
H254 C242 0.929 . S
H255 C244 0.929 . S
O256 Co231 2.351 . S
O256 C259 1.244 . S
O257 Co231 2.155 . S
O257 C259 1.240 . S
O258 Co231 2.096 . S
O258 C239 1.247 . S
C259 O256 1.244 . S
C259 O257 1.240 . S
H260 C234 0.931 . S
H261 C243 0.931 . S
H262 C247 0.929 . S
H263 C249 0.930 . S
Co264 N268 2.148 . S
Co264 N274 2.128 . S
Co264 N284 2.194 . S
Co264 O289 2.351 . S
Co264 O290 2.155 . S
Co264 O291 2.096 . S
C265 N268 1.301 . S
C265 N269 1.328 . S
C265 H270 0.930 . S
C266 C267 1.333 . S
C266 N268 1.317 . S
C266 H271 0.930 . S
C267 C266 1.333 . S
C267 N269 1.350 . S
C267 H293 0.931 . S
N268 Co264 2.148 . S
N268 C265 1.301 . S
N268 C266 1.317 . S
N269 C265 1.328 . S
N269 C267 1.350 . S
H270 C265 0.930 . S
H271 C266 0.930 . S
C272 O273 1.224 . S
C272 O291 1.247 . S
O273 C272 1.224 . S
N274 Co264 2.128 . S
N274 C275 1.355 . S
N274 C277 1.311 . S
C275 N274 1.355 . S
C275 C276 1.363 . S
C275 H287 0.929 . S
C276 C275 1.363 . S
C276 N278 1.375 . S
C276 H294 0.931 . S
C277 N274 1.311 . S
C277 N278 1.347 . S
C277 H288 0.929 . S
N278 C276 1.375 . S
N278 C277 1.347 . S
C279 C282 1.365 . S
C279 N284 1.328 . S
C279 H285 0.929 . S
C280 C281 1.362 . S
C280 C283 1.378 . S
C280 H295 0.929 . S
C281 C280 1.362 . S
C281 C282 1.366 . S
C282 C279 1.365 . S
C282 C281 1.366 . S
C282 H296 0.930 . S
C283 C280 1.378 . S
C283 N284 1.315 . S
C283 H286 0.930 . S
N284 Co264 2.194 . S
N284 C279 1.328 . S
N284 C283 1.315 . S
H285 C279 0.929 . S
H286 C283 0.930 . S
H287 C275 0.929 . S
H288 C277 0.929 . S
O289 Co264 2.351 . S
O289 C292 1.244 . S
O290 Co264 2.155 . S
O290 C292 1.240 . S
O291 Co264 2.096 . S
O291 C272 1.247 . S
C292 O289 1.244 . S
C292 O290 1.240 . S
H293 C267 0.931 . S
H294 C276 0.931 . S
H295 C280 0.929 . S
H296 C282 0.930 . S
Co297 N301 2.148 . S
Co297 N307 2.128 . S
Co297 N317 2.194 . S
Co297 O322 2.351 . S
Co297 O323 2.155 . S
Co297 O324 2.096 . S
C298 N301 1.301 . S
C298 N302 1.328 . S
C298 H303 0.930 . S
C299 C300 1.333 . S
C299 N301 1.317 . S
C299 H304 0.930 . S
C300 C299 1.333 . S
C300 N302 1.350 . S
C300 H326 0.931 . S
N301 Co297 2.148 . S
N301 C298 1.301 . S
N301 C299 1.317 . S
N302 C298 1.328 . S
N302 C300 1.350 . S
H303 C298 0.930 . S
H304 C299 0.930 . S
C305 O306 1.224 . S
C305 O324 1.247 . S
O306 C305 1.224 . S
N307 Co297 2.128 . S
N307 C308 1.355 . S
N307 C310 1.311 . S
C308 N307 1.355 . S
C308 C309 1.363 . S
C308 H320 0.929 . S
C309 C308 1.363 . S
C309 N311 1.375 . S
C309 H327 0.931 . S
C310 N307 1.311 . S
C310 N311 1.347 . S
C310 H321 0.929 . S
N311 C309 1.375 . S
N311 C310 1.347 . S
C312 C315 1.365 . S
C312 N317 1.328 . S
C312 H318 0.929 . S
C313 C314 1.362 . S
C313 C316 1.378 . S
C313 H328 0.929 . S
C314 C313 1.362 . S
C314 C315 1.366 . S
C315 C312 1.365 . S
C315 C314 1.366 . S
C315 H329 0.930 . S
C316 C313 1.378 . S
C316 N317 1.315 . S
C316 H319 0.930 . S
N317 Co297 2.194 . S
N317 C312 1.328 . S
N317 C316 1.315 . S
H318 C312 0.929 . S
H319 C316 0.930 . S
H320 C308 0.929 . S
H321 C310 0.929 . S
O322 Co297 2.351 . S
O322 C325 1.244 . S
O323 Co297 2.155 . S
O323 C325 1.240 . S
O324 Co297 2.096 . S
O324 C305 1.247 . S
C325 O322 1.244 . S
C325 O323 1.240 . S
H326 C300 0.931 . S
H327 C309 0.931 . S
H328 C313 0.929 . S
H329 C315 0.930 . S
Co330 N334 2.148 . S
Co330 N340 2.128 . S
Co330 N350 2.194 . S
Co330 O355 2.351 . S
Co330 O356 2.155 . S
Co330 O357 2.096 . S
C331 N334 1.301 . S
C331 N335 1.328 . S
C331 H336 0.930 . S
C332 C333 1.333 . S
C332 N334 1.317 . S
C332 H337 0.930 . S
C333 C332 1.333 . S
C333 N335 1.350 . S
C333 H359 0.931 . S
N334 Co330 2.148 . S
N334 C331 1.301 . S
N334 C332 1.317 . S
N335 C331 1.328 . S
N335 C333 1.350 . S
H336 C331 0.930 . S
H337 C332 0.930 . S
C338 O339 1.224 . S
C338 O357 1.247 . S
O339 C338 1.224 . S
N340 Co330 2.128 . S
N340 C341 1.355 . S
N340 C343 1.311 . S
C341 N340 1.355 . S
C341 C342 1.363 . S
C341 H353 0.929 . S
C342 C341 1.363 . S
C342 N344 1.375 . S
C342 H360 0.931 . S
C343 N340 1.311 . S
C343 N344 1.347 . S
C343 H354 0.929 . S
N344 C342 1.375 . S
N344 C343 1.347 . S
C345 C348 1.365 . S
C345 N350 1.328 . S
C345 H351 0.929 . S
C346 C347 1.362 . S
C346 C349 1.378 . S
C346 H361 0.929 . S
C347 C346 1.362 . S
C347 C348 1.366 . S
C348 C345 1.365 . S
C348 C347 1.366 . S
C348 H362 0.930 . S
C349 C346 1.378 . S
C349 N350 1.315 . S
C349 H352 0.930 . S
N350 Co330 2.194 . S
N350 C345 1.328 . S
N350 C349 1.315 . S
H351 C345 0.929 . S
H352 C349 0.930 . S
H353 C341 0.929 . S
H354 C343 0.929 . S
O355 Co330 2.351 . S
O355 C358 1.244 . S
O356 Co330 2.155 . S
O356 C358 1.240 . S
O357 Co330 2.096 . S
O357 C338 1.247 . S
C358 O355 1.244 . S
C358 O356 1.240 . S
H359 C333 0.931 . S
H360 C342 0.931 . S
H361 C346 0.929 . S
H362 C348 0.930 . S
Co363 N367 2.148 . S
Co363 N373 2.128 . S
Co363 N383 2.194 . S
Co363 O388 2.351 . S
Co363 O389 2.155 . S
Co363 O390 2.096 . S
C364 N367 1.301 . S
C364 N368 1.328 . S
C364 H369 0.930 . S
C365 C366 1.333 . S
C365 N367 1.317 . S
C365 H370 0.930 . S
C366 C365 1.333 . S
C366 N368 1.350 . S
C366 H392 0.931 . S
N367 Co363 2.148 . S
N367 C364 1.301 . S
N367 C365 1.317 . S
N368 C364 1.328 . S
N368 C366 1.350 . S
H369 C364 0.930 . S
H370 C365 0.930 . S
C371 O372 1.224 . S
C371 O390 1.247 . S
O372 C371 1.224 . S
N373 Co363 2.128 . S
N373 C374 1.355 . S
N373 C376 1.311 . S
C374 N373 1.355 . S
C374 C375 1.363 . S
C374 H386 0.929 . S
C375 C374 1.363 . S
C375 N377 1.375 . S
C375 H393 0.931 . S
C376 N373 1.311 . S
C376 N377 1.347 . S
C376 H387 0.929 . S
N377 C375 1.375 . S
N377 C376 1.347 . S
C378 C381 1.365 . S
C378 N383 1.328 . S
C378 H384 0.929 . S
C379 C380 1.362 . S
C379 C382 1.378 . S
C379 H394 0.929 . S
C380 C379 1.362 . S
C380 C381 1.366 . S
C381 C378 1.365 . S
C381 C380 1.366 . S
C381 H395 0.930 . S
C382 C379 1.378 . S
C382 N383 1.315 . S
C382 H385 0.930 . S
N383 Co363 2.194 . S
N383 C378 1.328 . S
N383 C382 1.315 . S
H384 C378 0.929 . S
H385 C382 0.930 . S
H386 C374 0.929 . S
H387 C376 0.929 . S
O388 Co363 2.351 . S
O388 C391 1.244 . S
O389 Co363 2.155 . S
O389 C391 1.240 . S
O390 Co363 2.096 . S
O390 C371 1.247 . S
C391 O388 1.244 . S
C391 O389 1.240 . S
H392 C366 0.931 . S
H393 C375 0.931 . S
H394 C379 0.929 . S
H395 C381 0.930 . S
H396 C404 0.929 . S
H397 C406 0.930 . S
H398 C408 0.930 . S
H399 C411 0.929 . S
H400 C414 0.930 . S
H401 C416 0.960 . S
H402 C416 0.960 . S
H403 C416 0.960 . S
C404 H396 0.929 . S
C404 C405 1.377 . S
C404 C406 1.384 . S
C405 C404 1.377 . S
C405 C411 1.390 . S
C406 H397 0.930 . S
C406 C404 1.384 . S
C406 C407 1.372 . S
C407 C406 1.372 . S
C407 C408 1.400 . S
C407 C412 1.490 . S
C408 H398 0.930 . S
C408 C407 1.400 . S
C408 C411 1.386 . S
H409 C425 0.930 . S
H410 C426 0.931 . S
C411 H399 0.929 . S
C411 C405 1.390 . S
C411 C408 1.386 . S
C412 C407 1.490 . S
C412 C414 1.395 . S
C412 C415 1.403 . S
H413 C419 0.930 . S
C414 H400 0.930 . S
C414 C412 1.395 . S
C414 C417 1.403 . S
C415 C412 1.403 . S
C415 C416 1.524 . S
C415 C419 1.400 . S
C416 H401 0.960 . S
C416 H402 0.960 . S
C416 H403 0.960 . S
C416 C415 1.524 . S
C417 C414 1.403 . S
C417 C418 1.392 . S
C417 C421 1.495 . S
C418 C417 1.392 . S
C418 C419 1.385 . S
C418 C420 1.478 . S
C419 H413 0.930 . S
C419 C415 1.400 . S
C419 C418 1.385 . S
C420 C418 1.478 . S
C420 C422 1.381 . S
C420 C426 1.383 . S
C421 C417 1.495 . S
C421 H427 0.959 . S
C421 H428 0.961 . S
C421 H429 0.960 . S
C422 C420 1.381 . S
C422 C423 1.394 . S
C422 H430 0.930 . S
C423 C422 1.394 . S
C423 C424 1.383 . S
C423 H431 0.929 . S
C424 C423 1.383 . S
C424 C425 1.377 . S
C425 H409 0.930 . S
C425 C424 1.377 . S
C425 C426 1.379 . S
C426 H410 0.931 . S
C426 C420 1.383 . S
C426 C425 1.379 . S
H427 C421 0.959 . S
H428 C421 0.961 . S
H429 C421 0.960 . S
H430 C422 0.930 . S
H431 C423 0.929 . S
H432 C440 0.929 . S
H433 C442 0.930 . S
H434 C444 0.930 . S
H435 C447 0.929 . S
H436 C450 0.930 . S
H437 C452 0.960 . S
H438 C452 0.960 . S
H439 C452 0.960 . S
C440 H432 0.929 . S
C440 C441 1.377 . S
C440 C442 1.384 . S
C441 C440 1.377 . S
C441 C447 1.390 . S
C442 H433 0.930 . S
C442 C440 1.384 . S
C442 C443 1.372 . S
C443 C442 1.372 . S
C443 C444 1.400 . S
C443 C448 1.490 . S
C444 H434 0.930 . S
C444 C443 1.400 . S
C444 C447 1.386 . S
H445 C461 0.930 . S
H446 C462 0.931 . S
C447 H435 0.929 . S
C447 C441 1.390 . S
C447 C444 1.386 . S
C448 C443 1.490 . S
C448 C450 1.395 . S
C448 C451 1.403 . S
H449 C455 0.930 . S
C450 H436 0.930 . S
C450 C448 1.395 . S
C450 C453 1.403 . S
C451 C448 1.403 . S
C451 C452 1.524 . S
C451 C455 1.400 . S
C452 H437 0.960 . S
C452 H438 0.960 . S
C452 H439 0.960 . S
C452 C451 1.524 . S
C453 C450 1.403 . S
C453 C454 1.392 . S
C453 C457 1.495 . S
C454 C453 1.392 . S
C454 C455 1.385 . S
C454 C456 1.478 . S
C455 H449 0.930 . S
C455 C451 1.400 . S
C455 C454 1.385 . S
C456 C454 1.478 . S
C456 C458 1.381 . S
C456 C462 1.383 . S
C457 C453 1.495 . S
C457 H463 0.959 . S
C457 H464 0.961 . S
C457 H465 0.960 . S
C458 C456 1.381 . S
C458 C459 1.394 . S
C458 H466 0.930 . S
C459 C458 1.394 . S
C459 C460 1.383 . S
C459 H467 0.929 . S
C460 C459 1.383 . S
C460 C461 1.377 . S
C461 H445 0.930 . S
C461 C460 1.377 . S
C461 C462 1.379 . S
C462 H446 0.931 . S
C462 C456 1.383 . S
C462 C461 1.379 . S
H463 C457 0.959 . S
H464 C457 0.961 . S
H465 C457 0.960 . S
H466 C458 0.930 . S
H467 C459 0.929 . S
H468 C476 0.929 . S
H469 C478 0.930 . S
H470 C480 0.930 . S
H471 C483 0.929 . S
H472 C486 0.930 . S
H473 C488 0.960 . S
H474 C488 0.960 . S
H475 C488 0.960 . S
C476 H468 0.929 . S
C476 C477 1.377 . S
C476 C478 1.384 . S
C477 C476 1.377 . S
C477 C483 1.390 . S
C478 H469 0.930 . S
C478 C476 1.384 . S
C478 C479 1.372 . S
C479 C478 1.372 . S
C479 C480 1.400 . S
C479 C484 1.490 . S
C480 H470 0.930 . S
C480 C479 1.400 . S
C480 C483 1.386 . S
H481 C497 0.930 . S
H482 C498 0.931 . S
C483 H471 0.929 . S
C483 C477 1.390 . S
C483 C480 1.386 . S
C484 C479 1.490 . S
C484 C486 1.395 . S
C484 C487 1.403 . S
H485 C491 0.930 . S
C486 H472 0.930 . S
C486 C484 1.395 . S
C486 C489 1.403 . S
C487 C484 1.403 . S
C487 C488 1.524 . S
C487 C491 1.400 . S
C488 H473 0.960 . S
C488 H474 0.960 . S
C488 H475 0.960 . S
C488 C487 1.524 . S
C489 C486 1.403 . S
C489 C490 1.392 . S
C489 C493 1.495 . S
C490 C489 1.392 . S
C490 C491 1.385 . S
C490 C492 1.478 . S
C491 H485 0.930 . S
C491 C487 1.400 . S
C491 C490 1.385 . S
C492 C490 1.478 . S
C492 C494 1.381 . S
C492 C498 1.383 . S
C493 C489 1.495 . S
C493 H499 0.959 . S
C493 H500 0.961 . S
C493 H501 0.960 . S
C494 C492 1.381 . S
C494 C495 1.394 . S
C494 H502 0.930 . S
C495 C494 1.394 . S
C495 C496 1.383 . S
C495 H503 0.929 . S
C496 C495 1.383 . S
C496 C497 1.377 . S
C497 H481 0.930 . S
C497 C496 1.377 . S
C497 C498 1.379 . S
C498 H482 0.931 . S
C498 C492 1.383 . S
C498 C497 1.379 . S
H499 C493 0.959 . S
H500 C493 0.961 . S
H501 C493 0.960 . S
H502 C494 0.930 . S
H503 C495 0.929 . S
H504 C512 0.929 . S
H505 C514 0.930 . S
H506 C516 0.930 . S
H507 C519 0.929 . S
H508 C522 0.930 . S
H509 C524 0.960 . S
H510 C524 0.960 . S
H511 C524 0.960 . S
C512 H504 0.929 . S
C512 C513 1.377 . S
C512 C514 1.384 . S
C513 C512 1.377 . S
C513 C519 1.390 . S
C514 H505 0.930 . S
C514 C512 1.384 . S
C514 C515 1.372 . S
C515 C514 1.372 . S
C515 C516 1.400 . S
C515 C520 1.490 . S
C516 H506 0.930 . S
C516 C515 1.400 . S
C516 C519 1.386 . S
H517 C533 0.930 . S
H518 C534 0.931 . S
C519 H507 0.929 . S
C519 C513 1.390 . S
C519 C516 1.386 . S
C520 C515 1.490 . S
C520 C522 1.395 . S
C520 C523 1.403 . S
H521 C527 0.930 . S
C522 H508 0.930 . S
C522 C520 1.395 . S
C522 C525 1.403 . S
C523 C520 1.403 . S
C523 C524 1.524 . S
C523 C527 1.400 . S
C524 H509 0.960 . S
C524 H510 0.960 . S
C524 H511 0.960 . S
C524 C523 1.524 . S
C525 C522 1.403 . S
C525 C526 1.392 . S
C525 C529 1.495 . S
C526 C525 1.392 . S
C526 C527 1.385 . S
C526 C528 1.478 . S
C527 H521 0.930 . S
C527 C523 1.400 . S
C527 C526 1.385 . S
C528 C526 1.478 . S
C528 C530 1.381 . S
C528 C534 1.383 . S
C529 C525 1.495 . S
C529 H535 0.959 . S
C529 H536 0.961 . S
C529 H537 0.960 . S
C530 C528 1.381 . S
C530 C531 1.394 . S
C530 H538 0.930 . S
C531 C530 1.394 . S
C531 C532 1.383 . S
C531 H539 0.929 . S
C532 C531 1.383 . S
C532 C533 1.377 . S
C533 H517 0.930 . S
C533 C532 1.377 . S
C533 C534 1.379 . S
C534 H518 0.931 . S
C534 C528 1.383 . S
C534 C533 1.379 . S
H535 C529 0.959 . S
H536 C529 0.961 . S
H537 C529 0.960 . S
H538 C530 0.930 . S
H539 C531 0.929 . S
H540 C548 0.929 . S
H541 C550 0.930 . S
H542 C552 0.930 . S
H543 C555 0.929 . S
H544 C558 0.930 . S
H545 C560 0.960 . S
H546 C560 0.960 . S
H547 C560 0.960 . S
C548 H540 0.929 . S
C548 C549 1.377 . S
C548 C550 1.384 . S
C549 C548 1.377 . S
C549 C555 1.390 . S
C550 H541 0.930 . S
C550 C548 1.384 . S
C550 C551 1.372 . S
C551 C550 1.372 . S
C551 C552 1.400 . S
C551 C556 1.490 . S
C552 H542 0.930 . S
C552 C551 1.400 . S
C552 C555 1.386 . S
H553 C569 0.930 . S
H554 C570 0.931 . S
C555 H543 0.929 . S
C555 C549 1.390 . S
C555 C552 1.386 . S
C556 C551 1.490 . S
C556 C558 1.395 . S
C556 C559 1.403 . S
H557 C563 0.930 . S
C558 H544 0.930 . S
C558 C556 1.395 . S
C558 C561 1.403 . S
C559 C556 1.403 . S
C559 C560 1.524 . S
C559 C563 1.400 . S
C560 H545 0.960 . S
C560 H546 0.960 . S
C560 H547 0.960 . S
C560 C559 1.524 . S
C561 C558 1.403 . S
C561 C562 1.392 . S
C561 C565 1.495 . S
C562 C561 1.392 . S
C562 C563 1.385 . S
C562 C564 1.478 . S
C563 H557 0.930 . S
C563 C559 1.400 . S
C563 C562 1.385 . S
C564 C562 1.478 . S
C564 C566 1.381 . S
C564 C570 1.383 . S
C565 C561 1.495 . S
C565 H571 0.959 . S
C565 H572 0.961 . S
C565 H573 0.960 . S
C566 C564 1.381 . S
C566 C567 1.394 . S
C566 H574 0.930 . S
C567 C566 1.394 . S
C567 C568 1.383 . S
C567 H575 0.929 . S
C568 C567 1.383 . S
C568 C569 1.377 . S
C569 H553 0.930 . S
C569 C568 1.377 . S
C569 C570 1.379 . S
C570 H554 0.931 . S
C570 C564 1.383 . S
C570 C569 1.379 . S
H571 C565 0.959 . S
H572 C565 0.961 . S
H573 C565 0.960 . S
H574 C566 0.930 . S
H575 C567 0.929 . S
H576 C584 0.929 . S
H577 C586 0.930 . S
H578 C588 0.930 . S
H579 C591 0.929 . S
H580 C594 0.930 . S
H581 C596 0.960 . S
H582 C596 0.960 . S
H583 C596 0.960 . S
C584 H576 0.929 . S
C584 C585 1.377 . S
C584 C586 1.384 . S
C585 C584 1.377 . S
C585 C591 1.390 . S
C586 H577 0.930 . S
C586 C584 1.384 . S
C586 C587 1.372 . S
C587 C586 1.372 . S
C587 C588 1.400 . S
C587 C592 1.490 . S
C588 H578 0.930 . S
C588 C587 1.400 . S
C588 C591 1.386 . S
H589 C605 0.930 . S
H590 C606 0.931 . S
C591 H579 0.929 . S
C591 C585 1.390 . S
C591 C588 1.386 . S
C592 C587 1.490 . S
C592 C594 1.395 . S
C592 C595 1.403 . S
H593 C599 0.930 . S
C594 H580 0.930 . S
C594 C592 1.395 . S
C594 C597 1.403 . S
C595 C592 1.403 . S
C595 C596 1.524 . S
C595 C599 1.400 . S
C596 H581 0.960 . S
C596 H582 0.960 . S
C596 H583 0.960 . S
C596 C595 1.524 . S
C597 C594 1.403 . S
C597 C598 1.392 . S
C597 C601 1.495 . S
C598 C597 1.392 . S
C598 C599 1.385 . S
C598 C600 1.478 . S
C599 H593 0.930 . S
C599 C595 1.400 . S
C599 C598 1.385 . S
C600 C598 1.478 . S
C600 C602 1.381 . S
C600 C606 1.383 . S
C601 C597 1.495 . S
C601 H607 0.959 . S
C601 H608 0.961 . S
C601 H609 0.960 . S
C602 C600 1.381 . S
C602 C603 1.394 . S
C602 H610 0.930 . S
C603 C602 1.394 . S
C603 C604 1.383 . S
C603 H611 0.929 . S
C604 C603 1.383 . S
C604 C605 1.377 . S
C605 H589 0.930 . S
C605 C604 1.377 . S
C605 C606 1.379 . S
C606 H590 0.931 . S
C606 C600 1.383 . S
C606 C605 1.379 . S
H607 C601 0.959 . S
H608 C601 0.961 . S
H609 C601 0.960 . S
H610 C602 0.930 . S
H611 C603 0.929 . S
H612 C620 0.929 . S
H613 C622 0.930 1_556 S
H614 C624 0.930 . S
H615 C627 0.929 . S
H616 C630 0.930 . S
H617 C632 0.920 1_565 S
H618 C632 0.960 . S
H619 C632 0.960 . S
C620 H612 0.929 . S
C620 C621 1.377 . S
C620 C622 1.384 . S
C621 C620 1.377 . S
C621 C627 1.390 . S
C622 H613 0.930 1_554 S
C622 C620 1.384 . S
C622 C623 1.372 . S
C623 C622 1.372 . S
C623 C624 1.400 . S
C623 C628 1.490 . S
C624 H614 0.930 . S
C624 C623 1.400 . S
C624 C627 1.386 . S
H625 C641 0.930 . S
H626 C642 0.931 . S
C627 H615 0.929 . S
C627 C621 1.390 . S
C627 C624 1.386 . S
C628 C623 1.490 . S
C628 C630 1.395 1_554 S
C628 C631 1.403 . S
H629 C635 0.930 . S
C630 H616 0.930 . S
C630 C628 1.395 1_556 S
C630 C633 1.403 1_545 S
C631 C628 1.403 . S
C631 C632 1.524 . S
C631 C635 1.400 1_545 S
C632 H617 0.920 1_545 S
C632 H618 0.960 . S
C632 H619 0.960 . S
C632 C631 1.524 . S
C633 C630 1.403 1_565 S
C633 C634 1.392 . S
C633 C637 1.495 . S
C634 C633 1.392 . S
C634 C635 1.385 1_556 S
C634 C636 1.478 . S
C635 H629 0.930 . S
C635 C631 1.400 1_565 S
C635 C634 1.385 1_554 S
C636 C634 1.478 . S
C636 C638 1.381 . S
C636 C642 1.383 . S
C637 C633 1.495 . S
C637 H643 0.959 . S
C637 H644 0.961 . S
C637 H645 0.960 . S
C638 C636 1.381 . S
C638 C639 1.394 . S
C638 H646 0.930 . S
C639 C638 1.394 . S
C639 C640 1.383 . S
C639 H647 0.929 . S
C640 C639 1.383 . S
C640 C641 1.377 . S
C641 H625 0.930 . S
C641 C640 1.377 . S
C641 C642 1.379 . S
C642 H626 0.931 . S
C642 C636 1.383 . S
C642 C641 1.379 . S
H643 C637 0.959 . S
H644 C637 0.961 . S
H645 C637 0.960 . S
H646 C638 0.930 . S
H647 C639 0.929 . S
H648 C656 0.929 . S
H649 C658 0.930 . S
H650 C660 0.930 . S
H651 C663 0.929 1_556 S
H652 C666 0.932 . S
H653 C668 0.960 . S
H654 C668 0.960 . S
H655 C668 0.960 . S
C656 H648 0.929 . S
C656 C657 1.377 . S
C656 C658 1.384 . S
C657 C656 1.377 . S
C657 C663 1.390 . S
C658 H649 0.930 . S
C658 C656 1.384 . S
C658 C659 1.372 . S
C659 C658 1.372 . S
C659 C660 1.400 1_554 S
C659 C664 1.490 . S
C660 H650 0.930 . S
C660 C659 1.400 1_556 S
C660 C663 1.386 1_556 S
H661 C677 0.930 . S
H662 C678 0.931 . S
C663 H651 0.929 1_554 S
C663 C657 1.390 . S
C663 C660 1.386 1_554 S
C664 C659 1.490 . S
C664 C666 1.386 1_654 S
C664 C667 1.403 . S
H665 C671 0.930 . S
C666 H652 0.932 . S
C666 C664 1.386 1_456 S
C666 C669 1.412 . S
C667 C664 1.403 . S
C667 C668 1.524 . S
C667 C671 1.400 . S
C668 H653 0.960 . S
C668 H654 0.960 . S
C668 H655 0.960 . S
C668 C667 1.524 . S
C669 C666 1.412 . S
C669 C670 1.392 . S
C669 C673 1.495 . S
C670 C669 1.392 . S
C670 C671 1.385 1_456 S
C670 C672 1.478 . S
C671 H665 0.930 . S
C671 C667 1.400 . S
C671 C670 1.385 1_654 S
C672 C670 1.478 . S
C672 C674 1.381 1_556 S
C672 C678 1.383 . S
C673 C669 1.495 . S
C673 H679 0.959 . S
C673 H680 0.961 . S
C673 H681 0.960 . S
C674 C672 1.381 1_554 S
C674 C675 1.396 . S
C674 H682 0.930 . S
C675 C674 1.396 . S
C675 C676 1.376 1_554 S
C675 H683 0.935 . S
C676 C675 1.376 1_556 S
C676 C677 1.377 . S
C677 H661 0.930 . S
C677 C676 1.377 . S
C677 C678 1.379 . S
C678 H662 0.931 . S
C678 C672 1.383 . S
C678 C677 1.379 . S
H679 C673 0.959 . S
H680 C673 0.961 . S
H681 C673 0.960 . S
H682 C674 0.930 . S
H683 C675 0.935 . S
H684 C692 0.929 . S
H685 C694 0.930 . S
H686 C696 0.930 . S
H687 C699 0.929 . S
H688 C702 0.934 . S
H689 C704 0.961 . S
H690 C704 0.960 1_554 S
H691 C704 0.960 . S
C692 H684 0.929 . S
C692 C693 1.377 1_554 S
C692 C694 1.384 . S
C693 C692 1.377 1_556 S
C693 C699 1.390 . S
C694 H685 0.930 . S
C694 C692 1.384 . S
C694 C695 1.372 1_554 S
C695 C694 1.372 1_556 S
C695 C696 1.400 . S
C695 C700 1.490 . S
C696 H686 0.930 . S
C696 C695 1.400 . S
C696 C699 1.386 . S
H697 C713 0.930 . S
H698 C714 0.931 . S
C699 H687 0.929 . S
C699 C693 1.390 . S
C699 C696 1.386 . S
C700 C695 1.490 . S
C700 C702 1.399 . S
C700 C703 1.403 . S
H701 C707 0.930 . S
C702 H688 0.934 . S
C702 C700 1.399 . S
C702 C705 1.397 1_556 S
C703 C700 1.403 . S
C703 C704 1.524 . S
C703 C707 1.400 1_556 S
C704 H689 0.961 . S
C704 H690 0.960 1_556 S
C704 H691 0.960 . S
C704 C703 1.524 . S
C705 C702 1.397 1_554 S
C705 C706 1.392 . S
C705 C709 1.495 . S
C706 C705 1.392 . S
C706 C707 1.385 . S
C706 C708 1.478 . S
C707 H701 0.930 . S
C707 C703 1.400 1_554 S
C707 C706 1.385 . S
C708 C706 1.478 . S
C708 C710 1.381 . S
C708 C714 1.383 1_554 S
C709 C705 1.495 . S
C709 H715 0.959 . S
C709 H716 0.961 1_554 S
C709 H717 0.960 . S
C710 C708 1.381 . S
C710 C711 1.394 . S
C710 H718 0.930 . S
C711 C710 1.394 . S
C711 C712 1.383 . S
C711 H719 0.929 . S
C712 C711 1.383 . S
C712 C713 1.377 1_554 S
C713 H697 0.930 . S
C713 C712 1.377 1_556 S
C713 C714 1.379 . S
C714 H698 0.931 . S
C714 C708 1.383 1_556 S
C714 C713 1.379 . S
H715 C709 0.959 . S
H716 C709 0.961 1_556 S
H717 C709 0.960 . S
H718 C710 0.930 . S
H719 C711 0.929 . S
H720 C728 0.929 . S
H721 C730 0.930 . S
H722 C732 0.930 . S
H723 C735 0.929 . S
H724 C738 0.930 . S
H725 C740 0.960 . S
H726 C740 0.960 . S
H727 C740 0.960 . S
C728 H720 0.929 . S
C728 C729 1.377 . S
C728 C730 1.384 . S
C729 C728 1.377 . S
C729 C735 1.390 . S
C730 H721 0.930 . S
C730 C728 1.384 . S
C730 C731 1.372 . S
C731 C730 1.372 . S
C731 C732 1.400 . S
C731 C736 1.490 . S
C732 H722 0.930 . S
C732 C731 1.400 . S
C732 C735 1.386 . S
H733 C749 0.930 . S
H734 C750 0.931 . S
C735 H723 0.929 . S
C735 C729 1.390 . S
C735 C732 1.386 . S
C736 C731 1.490 . S
C736 C738 1.395 . S
C736 C739 1.403 1_455 S
H737 C743 0.930 . S
C738 H724 0.930 . S
C738 C736 1.395 . S
C738 C741 1.403 . S
C739 C736 1.403 1_655 S
C739 C740 1.524 . S
C739 C743 1.400 . S
C740 H725 0.960 . S
C740 H726 0.960 . S
C740 H727 0.960 . S
C740 C739 1.524 . S
C741 C738 1.403 . S
C741 C742 1.392 1_455 S
C741 C745 1.495 . S
C742 C741 1.392 1_655 S
C742 C743 1.385 . S
C742 C744 1.478 . S
C743 H737 0.930 . S
C743 C739 1.400 . S
C743 C742 1.385 . S
C744 C742 1.478 . S
C744 C746 1.381 . S
C744 C750 1.383 . S
C745 C741 1.495 . S
C745 H751 0.959 . S
C745 H752 0.961 . S
C745 H753 0.960 . S
C746 C744 1.381 . S
C746 C747 1.394 . S
C746 H754 0.930 . S
C747 C746 1.394 . S
C747 C748 1.383 . S
C747 H755 0.929 . S
C748 C747 1.383 . S
C748 C749 1.377 . S
C749 H733 0.930 . S
C749 C748 1.377 . S
C749 C750 1.379 . S
C750 H734 0.931 . S
C750 C744 1.383 . S
C750 C749 1.379 . S
H751 C745 0.959 . S
H752 C745 0.961 . S
H753 C745 0.960 . S
H754 C746 0.930 . S
H755 C747 0.929 . S
H756 C764 0.929 . S
H757 C766 0.930 . S
H758 C768 0.930 . S
H759 C771 0.929 . S
H760 C774 0.930 . S
H761 C776 0.960 . S
H762 C776 0.960 . S
H763 C776 0.960 . S
C764 H756 0.929 . S
C764 C765 1.377 . S
C764 C766 1.384 . S
C765 C764 1.377 . S
C765 C771 1.390 . S
C766 H757 0.930 . S
C766 C764 1.384 . S
C766 C767 1.372 . S
C767 C766 1.372 . S
C767 C768 1.400 . S
C767 C772 1.490 . S
C768 H758 0.930 . S
C768 C767 1.400 . S
C768 C771 1.386 . S
H769 C785 0.930 . S
H770 C786 0.931 . S
C771 H759 0.929 . S
C771 C765 1.390 . S
C771 C768 1.386 . S
C772 C767 1.490 . S
C772 C774 1.395 . S
C772 C775 1.403 . S
H773 C779 0.930 . S
C774 H760 0.930 . S
C774 C772 1.395 . S
C774 C777 1.403 . S
C775 C772 1.403 . S
C775 C776 1.524 . S
C775 C779 1.400 . S
C776 H761 0.960 . S
C776 H762 0.960 . S
C776 H763 0.960 . S
C776 C775 1.524 . S
C777 C774 1.403 . S
C777 C778 1.392 . S
C777 C781 1.495 . S
C778 C777 1.392 . S
C778 C779 1.385 . S
C778 C780 1.478 . S
C779 H773 0.930 . S
C779 C775 1.400 . S
C779 C778 1.385 . S
C780 C778 1.478 . S
C780 C782 1.381 . S
C780 C786 1.383 . S
C781 C777 1.495 . S
C781 H787 0.959 . S
C781 H788 0.961 . S
C781 H789 0.960 . S
C782 C780 1.381 . S
C782 C783 1.394 . S
C782 H790 0.930 . S
C783 C782 1.394 . S
C783 C784 1.383 . S
C783 H791 0.929 . S
C784 C783 1.383 . S
C784 C785 1.377 . S
C785 H769 0.930 . S
C785 C784 1.377 . S
C785 C786 1.379 . S
C786 H770 0.931 . S
C786 C780 1.383 . S
C786 C785 1.379 . S
H787 C781 0.959 . S
H788 C781 0.961 . S
H789 C781 0.960 . S
H790 C782 0.930 . S
H791 C783 0.929 . S
H792 C800 0.929 . S
H793 C802 0.930 . S
H794 C804 0.930 . S
H795 C807 0.929 . S
H796 C810 0.930 . S
H797 C812 0.960 . S
H798 C812 0.960 . S
H799 C812 0.960 . S
C800 H792 0.929 . S
C800 C801 1.377 . S
C800 C802 1.384 . S
C801 C800 1.377 . S
C801 C807 1.390 . S
C802 H793 0.930 . S
C802 C800 1.384 . S
C802 C803 1.372 . S
C803 C802 1.372 . S
C803 C804 1.400 . S
C803 C808 1.490 . S
C804 H794 0.930 . S
C804 C803 1.400 . S
C804 C807 1.386 . S
H805 C821 0.930 . S
H806 C822 0.931 . S
C807 H795 0.929 . S
C807 C801 1.390 . S
C807 C804 1.386 . S
C808 C803 1.490 . S
C808 C810 1.395 . S
C808 C811 1.403 1_545 S
H809 C815 0.930 . S
C810 H796 0.930 . S
C810 C808 1.395 . S
C810 C813 1.403 . S
C811 C808 1.403 1_565 S
C811 C812 1.524 . S
C811 C815 1.400 . S
C812 H797 0.960 . S
C812 H798 0.960 . S
C812 H799 0.960 . S
C812 C811 1.524 . S
C813 C810 1.403 . S
C813 C814 1.392 1_545 S
C813 C817 1.495 . S
C814 C813 1.392 1_565 S
C814 C815 1.385 . S
C814 C816 1.478 . S
C815 H809 0.930 . S
C815 C811 1.400 . S
C815 C814 1.385 . S
C816 C814 1.478 . S
C816 C818 1.381 . S
C816 C822 1.383 . S
C817 C813 1.495 . S
C817 H823 0.959 . S
C817 H824 0.961 . S
C817 H825 0.960 . S
C818 C816 1.381 . S
C818 C819 1.394 . S
C818 H826 0.930 . S
C819 C818 1.394 . S
C819 C820 1.383 . S
C819 H827 0.929 . S
C820 C819 1.383 . S
C820 C821 1.377 . S
C821 H805 0.930 . S
C821 C820 1.377 . S
C821 C822 1.379 . S
C822 H806 0.931 . S
C822 C816 1.383 . S
C822 C821 1.379 . S
H823 C817 0.959 . S
H824 C817 0.961 . S
H825 C817 0.960 . S
H826 C818 0.930 . S
H827 C819 0.929 . S
H828 C836 0.929 . S
H829 C838 0.930 . S
H830 C840 0.930 . S
H831 C843 0.929 . S
H832 C846 0.930 . S
H833 C848 0.960 . S
H834 C848 0.960 . S
H835 C848 0.960 . S
C836 H828 0.929 . S
C836 C837 1.377 . S
C836 C838 1.384 . S
C837 C836 1.377 . S
C837 C843 1.390 . S
C838 H829 0.930 . S
C838 C836 1.384 . S
C838 C839 1.372 . S
C839 C838 1.372 . S
C839 C840 1.400 . S
C839 C844 1.490 . S
C840 H830 0.930 . S
C840 C839 1.400 . S
C840 C843 1.386 . S
H841 C857 0.930 . S
H842 C858 0.931 . S
C843 H831 0.929 . S
C843 C837 1.390 . S
C843 C840 1.386 . S
C844 C839 1.490 . S
C844 C846 1.395 . S
C844 C847 1.403 . S
H845 C851 0.930 . S
C846 H832 0.930 . S
C846 C844 1.395 . S
C846 C849 1.403 . S
C847 C844 1.403 . S
C847 C848 1.524 . S
C847 C851 1.400 . S
C848 H833 0.960 . S
C848 H834 0.960 . S
C848 H835 0.960 . S
C848 C847 1.524 . S
C849 C846 1.403 . S
C849 C850 1.392 . S
C849 C853 1.495 . S
C850 C849 1.392 . S
C850 C851 1.385 . S
C850 C852 1.478 . S
C851 H845 0.930 . S
C851 C847 1.400 . S
C851 C850 1.385 . S
C852 C850 1.478 . S
C852 C854 1.381 . S
C852 C858 1.383 . S
C853 C849 1.495 . S
C853 H859 0.959 . S
C853 H860 0.961 . S
C853 H861 0.960 . S
C854 C852 1.381 . S
C854 C855 1.394 . S
C854 H862 0.930 . S
C855 C854 1.394 . S
C855 C856 1.383 . S
C855 H863 0.929 . S
C856 C855 1.383 . S
C856 C857 1.377 . S
C857 H841 0.930 . S
C857 C856 1.377 . S
C857 C858 1.379 . S
C858 H842 0.931 . S
C858 C852 1.383 . S
C858 C857 1.379 . S
H859 C853 0.959 . S
H860 C853 0.961 . S
H861 C853 0.960 . S
H862 C854 0.930 . S
H863 C855 0.929 . S
H864 C872 0.929 . S
H865 C874 0.930 . S
H866 C876 0.930 . S
H867 C879 0.929 . S
H868 C882 0.930 . S
H869 C884 0.960 . S
H870 C884 0.960 . S
H871 C884 0.960 . S
C872 H864 0.929 . S
C872 C873 1.377 . S
C872 C874 1.384 . S
C873 C872 1.377 . S
C873 C879 1.390 . S
C874 H865 0.930 . S
C874 C872 1.384 . S
C874 C875 1.372 . S
C875 C874 1.372 . S
C875 C876 1.400 . S
C875 C880 1.490 . S
C876 H866 0.930 . S
C876 C875 1.400 . S
C876 C879 1.386 . S
H877 C893 0.930 . S
H878 C894 0.931 . S
C879 H867 0.929 . S
C879 C873 1.390 . S
C879 C876 1.386 . S
C880 C875 1.490 . S
C880 C882 1.395 . S
C880 C883 1.403 . S
H881 C887 0.930 . S
C882 H868 0.930 . S
C882 C880 1.395 . S
C882 C885 1.403 . S
C883 C880 1.403 . S
C883 C884 1.524 . S
C883 C887 1.400 . S
C884 H869 0.960 . S
C884 H870 0.960 . S
C884 H871 0.960 . S
C884 C883 1.524 . S
C885 C882 1.403 . S
C885 C886 1.392 . S
C885 C889 1.495 . S
C886 C885 1.392 . S
C886 C887 1.385 . S
C886 C888 1.478 . S
C887 H881 0.930 . S
C887 C883 1.400 . S
C887 C886 1.385 . S
C888 C886 1.478 . S
C888 C890 1.381 . S
C888 C894 1.383 . S
C889 C885 1.495 . S
C889 H895 0.959 . S
C889 H896 0.961 . S
C889 H897 0.960 . S
C890 C888 1.381 . S
C890 C891 1.394 . S
C890 H898 0.930 . S
C891 C890 1.394 . S
C891 C892 1.383 . S
C891 H899 0.929 . S
C892 C891 1.383 . S
C892 C893 1.377 . S
C893 H877 0.930 . S
C893 C892 1.377 . S
C893 C894 1.379 . S
C894 H878 0.931 . S
C894 C888 1.383 . S
C894 C893 1.379 . S
H895 C889 0.959 . S
H896 C889 0.961 . S
H897 C889 0.960 . S
H898 C890 0.930 . S
H899 C891 0.929 . S
H900 C908 0.929 . S
H901 C910 0.930 . S
H902 C912 0.930 . S
H903 C915 0.929 . S
H904 C918 0.930 . S
H905 C920 0.960 . S
H906 C920 0.960 . S
H907 C920 0.960 . S
C908 H900 0.929 . S
C908 C909 1.377 . S
C908 C910 1.384 . S
C909 C908 1.377 . S
C909 C915 1.390 . S
C910 H901 0.930 . S
C910 C908 1.384 . S
C910 C911 1.372 . S
C911 C910 1.372 . S
C911 C912 1.400 . S
C911 C916 1.490 . S
C912 H902 0.930 . S
C912 C911 1.400 . S
C912 C915 1.386 . S
H913 C929 0.930 . S
H914 C930 0.931 . S
C915 H903 0.929 . S
C915 C909 1.390 . S
C915 C912 1.386 . S
C916 C911 1.490 . S
C916 C918 1.395 . S
C916 C919 1.403 . S
H917 C923 0.930 . S
C918 H904 0.930 . S
C918 C916 1.395 . S
C918 C921 1.403 . S
C919 C916 1.403 . S
C919 C920 1.524 . S
C919 C923 1.400 . S
C920 H905 0.960 . S
C920 H906 0.960 . S
C920 H907 0.960 . S
C920 C919 1.524 . S
C921 C918 1.403 . S
C921 C922 1.392 . S
C921 C925 1.495 . S
C922 C921 1.392 . S
C922 C923 1.385 . S
C922 C924 1.478 . S
C923 H917 0.930 . S
C923 C919 1.400 . S
C923 C922 1.385 . S
C924 C922 1.478 . S
C924 C926 1.381 . S
C924 C930 1.383 . S
C925 C921 1.495 . S
C925 H931 0.959 . S
C925 H932 0.961 . S
C925 H933 0.960 . S
C926 C924 1.381 . S
C926 C927 1.394 . S
C926 H934 0.930 . S
C927 C926 1.394 . S
C927 C928 1.383 . S
C927 H935 0.929 . S
C928 C927 1.383 . S
C928 C929 1.377 . S
C929 H913 0.930 . S
C929 C928 1.377 . S
C929 C930 1.379 . S
C930 H914 0.931 . S
C930 C924 1.383 . S
C930 C929 1.379 . S
H931 C925 0.959 . S
H932 C925 0.961 . S
H933 C925 0.960 . S
H934 C926 0.930 . S
H935 C927 0.929 . S
H936 C944 0.929 . S
H937 C946 0.930 . S
H938 C948 0.930 . S
H939 C951 0.929 . S
H940 C954 0.930 . S
H941 C956 0.960 . S
H942 C956 0.960 . S
H943 C956 0.960 . S
C944 H936 0.929 . S
C944 C945 1.377 . S
C944 C946 1.384 . S
C945 C944 1.377 . S
C945 C951 1.390 . S
C946 H937 0.930 . S
C946 C944 1.384 . S
C946 C947 1.372 . S
C947 C946 1.372 . S
C947 C948 1.400 . S
C947 C952 1.490 . S
C948 H938 0.930 . S
C948 C947 1.400 . S
C948 C951 1.386 . S
H949 C965 0.930 . S
H950 C966 0.931 . S
C951 H939 0.929 . S
C951 C945 1.390 . S
C951 C948 1.386 . S
C952 C947 1.490 . S
C952 C954 1.395 . S
C952 C955 1.403 . S
H953 C959 0.930 . S
C954 H940 0.930 . S
C954 C952 1.395 . S
C954 C957 1.403 . S
C955 C952 1.403 . S
C955 C956 1.524 . S
C955 C959 1.400 . S
C956 H941 0.960 . S
C956 H942 0.960 . S
C956 H943 0.960 . S
C956 C955 1.524 . S
C957 C954 1.403 . S
C957 C958 1.392 . S
C957 C961 1.495 . S
C958 C957 1.392 . S
C958 C959 1.385 . S
C958 C960 1.478 . S
C959 H953 0.930 . S
C959 C955 1.400 . S
C959 C958 1.385 . S
C960 C958 1.478 . S
C960 C962 1.381 . S
C960 C966 1.383 . S
C961 C957 1.495 . S
C961 H967 0.959 . S
C961 H968 0.961 . S
C961 H969 0.960 . S
C962 C960 1.381 . S
C962 C963 1.394 . S
C962 H970 0.930 . S
C963 C962 1.394 . S
C963 C964 1.383 . S
C963 H971 0.929 . S
C964 C963 1.383 . S
C964 C965 1.377 . S
C965 H949 0.930 . S
C965 C964 1.377 . S
C965 C966 1.379 . S
C966 H950 0.931 . S
C966 C960 1.383 . S
C966 C965 1.379 . S
H967 C961 0.959 . S
H968 C961 0.961 . S
H969 C961 0.960 . S
H970 C962 0.930 . S
H971 C963 0.929 . S
H972 C980 0.929 . S
H973 C982 0.930 . S
H974 C984 0.930 . S
H975 C987 0.929 . S
H976 C990 0.930 . S
H977 C992 0.960 . S
H978 C992 0.960 . S
H979 C992 0.960 . S
C980 H972 0.929 . S
C980 C981 1.377 . S
C980 C982 1.384 . S
C981 C980 1.377 . S
C981 C987 1.390 . S
C982 H973 0.930 . S
C982 C980 1.384 . S
C982 C983 1.372 . S
C983 C982 1.372 . S
C983 C984 1.400 . S
C983 C988 1.490 . S
C984 H974 0.930 . S
C984 C983 1.400 . S
C984 C987 1.386 . S
H985 C1001 0.930 . S
H986 C1002 0.931 . S
C987 H975 0.929 . S
C987 C981 1.390 . S
C987 C984 1.386 . S
C988 C983 1.490 . S
C988 C990 1.395 . S
C988 C991 1.403 . S
H989 C995 0.930 . S
C990 H976 0.930 . S
C990 C988 1.395 . S
C990 C993 1.403 . S
C991 C988 1.403 . S
C991 C992 1.524 . S
C991 C995 1.400 . S
C992 H977 0.960 . S
C992 H978 0.960 . S
C992 H979 0.960 . S
C992 C991 1.524 . S
C993 C990 1.403 . S
C993 C994 1.392 . S
C993 C997 1.495 . S
C994 C993 1.392 . S
C994 C995 1.385 . S
C994 C996 1.478 . S
C995 H989 0.930 . S
C995 C991 1.400 . S
C995 C994 1.385 . S
C996 C994 1.478 . S
C996 C998 1.381 . S
C996 C1002 1.383 . S
C997 C993 1.495 . S
C997 H1003 0.959 . S
C997 H1004 0.961 . S
C997 H1005 0.960 . S
C998 C996 1.381 . S
C998 C999 1.394 . S
C998 H1006 0.930 . S
C999 C998 1.394 . S
C999 C1000 1.383 . S
C999 H1007 0.929 . S
C1000 C999 1.383 . S
C1000 C1001 1.377 . S
C1001 H985 0.930 . S
C1001 C1000 1.377 . S
C1001 C1002 1.379 . S
C1002 H986 0.931 . S
C1002 C996 1.383 . S
C1002 C1001 1.379 . S
H1003 C997 0.959 . S
H1004 C997 0.961 . S
H1005 C997 0.960 . S
H1006 C998 0.930 . S
H1007 C999 0.929 . S
H1008 C1016 0.929 . S
H1009 C1018 0.930 . S
H1010 C1020 0.930 . S
H1011 C1023 0.929 . S
H1012 C1026 0.930 . S
H1013 C1028 0.960 . S
H1014 C1028 0.960 . S
H1015 C1028 0.960 . S
C1016 H1008 0.929 . S
C1016 C1017 1.377 . S
C1016 C1018 1.384 . S
C1017 C1016 1.377 . S
C1017 C1023 1.390 . S
C1018 H1009 0.930 . S
C1018 C1016 1.384 . S
C1018 C1019 1.372 . S
C1019 C1018 1.372 . S
C1019 C1020 1.400 . S
C1019 C1024 1.490 . S
C1020 H1010 0.930 . S
C1020 C1019 1.400 . S
C1020 C1023 1.386 . S
H1021 C1037 0.930 . S
H1022 C1038 0.931 . S
C1023 H1011 0.929 . S
C1023 C1017 1.390 . S
C1023 C1020 1.386 . S
C1024 C1019 1.490 . S
C1024 C1026 1.395 . S
C1024 C1027 1.403 . S
H1025 C1031 0.930 . S
C1026 H1012 0.930 . S
C1026 C1024 1.395 . S
C1026 C1029 1.403 . S
C1027 C1024 1.403 . S
C1027 C1028 1.524 . S
C1027 C1031 1.400 . S
C1028 H1013 0.960 . S
C1028 H1014 0.960 . S
C1028 H1015 0.960 . S
C1028 C1027 1.524 . S
C1029 C1026 1.403 . S
C1029 C1030 1.392 . S
C1029 C1033 1.495 . S
C1030 C1029 1.392 . S
C1030 C1031 1.385 . S
C1030 C1032 1.478 . S
C1031 H1025 0.930 . S
C1031 C1027 1.400 . S
C1031 C1030 1.385 . S
C1032 C1030 1.478 . S
C1032 C1034 1.381 . S
C1032 C1038 1.383 . S
C1033 C1029 1.495 . S
C1033 H1039 0.959 . S
C1033 H1040 0.961 . S
C1033 H1041 0.960 . S
C1034 C1032 1.381 . S
C1034 C1035 1.394 . S
C1034 H1042 0.930 . S
C1035 C1034 1.394 . S
C1035 C1036 1.383 . S
C1035 H1043 0.929 . S
C1036 C1035 1.383 . S
C1036 C1037 1.377 . S
C1037 H1021 0.930 . S
C1037 C1036 1.377 . S
C1037 C1038 1.379 . S
C1038 H1022 0.931 . S
C1038 C1032 1.383 . S
C1038 C1037 1.379 . S
H1039 C1033 0.959 . S
H1040 C1033 0.961 . S
H1041 C1033 0.960 . S
H1042 C1034 0.930 . S
H1043 C1035 0.929 . S
H1044 C1052 0.929 . S
H1045 C1054 0.930 . S
H1046 C1056 0.930 . S
H1047 C1059 0.929 . S
H1048 C1062 0.930 . S
H1049 C1064 0.993 . S
H1050 C1064 0.954 1_554 S
H1051 C1064 0.971 . S
C1052 H1044 0.929 . S
C1052 C1053 1.377 . S
C1052 C1054 1.384 . S
C1053 C1052 1.377 . S
C1053 C1059 1.390 . S
C1054 H1045 0.930 . S
C1054 C1052 1.384 . S
C1054 C1055 1.372 . S
C1055 C1054 1.372 . S
C1055 C1056 1.400 . S
C1055 C1060 1.490 . S
C1056 H1046 0.930 . S
C1056 C1055 1.400 . S
C1056 C1059 1.386 . S
H1057 C1073 0.930 . S
H1058 C1074 0.931 . S
C1059 H1047 0.929 . S
C1059 C1053 1.390 . S
C1059 C1056 1.386 . S
C1060 C1055 1.490 . S
C1060 C1062 1.395 . S
C1060 C1063 1.403 . S
H1061 C1067 0.930 . S
C1062 H1048 0.930 . S
C1062 C1060 1.395 . S
C1062 C1065 1.403 . S
C1063 C1060 1.403 . S
C1063 C1064 1.488 1_554 S
C1063 C1067 1.400 . S
C1064 H1049 0.993 . S
C1064 H1050 0.954 1_556 S
C1064 H1051 0.971 . S
C1064 C1063 1.488 1_556 S
C1065 C1062 1.403 . S
C1065 C1066 1.392 . S
C1065 C1069 1.495 . S
C1066 C1065 1.392 . S
C1066 C1067 1.385 . S
C1066 C1068 1.478 . S
C1067 H1061 0.930 . S
C1067 C1063 1.400 . S
C1067 C1066 1.385 . S
C1068 C1066 1.478 . S
C1068 C1070 1.381 . S
C1068 C1074 1.383 . S
C1069 C1065 1.495 . S
C1069 H1075 0.959 . S
C1069 H1076 0.961 . S
C1069 H1077 0.960 . S
C1070 C1068 1.381 . S
C1070 C1071 1.394 . S
C1070 H1078 0.930 . S
C1071 C1070 1.394 . S
C1071 C1072 1.383 . S
C1071 H1079 0.929 . S
C1072 C1071 1.383 . S
C1072 C1073 1.377 . S
C1073 H1057 0.930 . S
C1073 C1072 1.377 . S
C1073 C1074 1.379 . S
C1074 H1058 0.931 . S
C1074 C1068 1.383 . S
C1074 C1073 1.379 . S
H1075 C1069 0.959 . S
H1076 C1069 0.961 . S
H1077 C1069 0.960 . S
H1078 C1070 0.930 . S
H1079 C1071 0.929 . S
H1080 C1088 0.929 . S
H1081 C1090 0.930 . S
H1082 C1092 0.930 . S
H1083 C1095 0.929 . S
H1084 C1098 0.930 . S
H1085 C1100 0.960 . S
H1086 C1100 0.960 . S
H1087 C1100 0.960 . S
C1088 H1080 0.929 . S
C1088 C1089 1.377 . S
C1088 C1090 1.384 . S
C1089 C1088 1.377 . S
C1089 C1095 1.390 . S
C1090 H1081 0.930 . S
C1090 C1088 1.384 . S
C1090 C1091 1.372 . S
C1091 C1090 1.372 . S
C1091 C1092 1.400 . S
C1091 C1096 1.490 . S
C1092 H1082 0.930 . S
C1092 C1091 1.400 . S
C1092 C1095 1.386 . S
H1093 C1109 0.930 . S
H1094 C1110 0.931 . S
C1095 H1083 0.929 . S
C1095 C1089 1.390 . S
C1095 C1092 1.386 . S
C1096 C1091 1.490 . S
C1096 C1098 1.395 . S
C1096 C1099 1.403 . S
H1097 C1103 0.930 . S
C1098 H1084 0.930 . S
C1098 C1096 1.395 . S
C1098 C1101 1.403 . S
C1099 C1096 1.403 . S
C1099 C1100 1.524 . S
C1099 C1103 1.400 . S
C1100 H1085 0.960 . S
C1100 H1086 0.960 . S
C1100 H1087 0.960 . S
C1100 C1099 1.524 . S
C1101 C1098 1.403 . S
C1101 C1102 1.392 . S
C1101 C1105 1.495 . S
C1102 C1101 1.392 . S
C1102 C1103 1.385 . S
C1102 C1104 1.478 . S
C1103 H1097 0.930 . S
C1103 C1099 1.400 . S
C1103 C1102 1.385 . S
C1104 C1102 1.478 . S
C1104 C1106 1.381 . S
C1104 C1110 1.383 . S
C1105 C1101 1.495 . S
C1105 H1111 0.959 . S
C1105 H1112 0.961 . S
C1105 H1113 0.960 . S
C1106 C1104 1.381 . S
C1106 C1107 1.394 . S
C1106 H1114 0.930 . S
C1107 C1106 1.394 . S
C1107 C1108 1.383 . S
C1107 H1115 0.929 . S
C1108 C1107 1.383 . S
C1108 C1109 1.377 . S
C1109 H1093 0.930 . S
C1109 C1108 1.377 . S
C1109 C1110 1.379 . S
C1110 H1094 0.931 . S
C1110 C1104 1.383 . S
C1110 C1109 1.379 . S
H1111 C1105 0.959 . S
H1112 C1105 0.961 . S
H1113 C1105 0.960 . S
H1114 C1106 0.930 . S
H1115 C1107 0.929 . S
H1116 C1124 0.929 1_556 S
H1117 C1126 0.918 1_556 S
H1118 C1128 0.930 . S
H1119 C1131 0.929 . S
H1120 C1134 0.930 . S
H1121 C1136 0.960 . S
H1122 C1136 0.960 . S
H1123 C1136 0.960 . S
C1124 H1116 0.929 1_554 S
C1124 C1125 1.377 . S
C1124 C1126 1.384 . S
C1125 C1124 1.377 . S
C1125 C1131 1.390 . S
C1126 H1117 0.918 1_554 S
C1126 C1124 1.384 . S
C1126 C1127 1.372 . S
C1127 C1126 1.372 . S
C1127 C1128 1.400 . S
C1127 C1132 1.490 . S
C1128 H1118 0.930 . S
C1128 C1127 1.400 . S
C1128 C1131 1.386 . S
H1129 C1145 0.930 . S
H1130 C1146 0.931 . S
C1131 H1119 0.929 . S
C1131 C1125 1.390 . S
C1131 C1128 1.386 . S
C1132 C1127 1.490 . S
C1132 C1134 1.395 . S
C1132 C1135 1.403 . S
H1133 C1139 0.930 . S
C1134 H1120 0.930 . S
C1134 C1132 1.395 . S
C1134 C1137 1.403 . S
C1135 C1132 1.403 . S
C1135 C1136 1.524 . S
C1135 C1139 1.400 . S
C1136 H1121 0.960 . S
C1136 H1122 0.960 . S
C1136 H1123 0.960 . S
C1136 C1135 1.524 . S
C1137 C1134 1.403 . S
C1137 C1138 1.392 . S
C1137 C1141 1.495 . S
C1138 C1137 1.392 . S
C1138 C1139 1.385 . S
C1138 C1140 1.478 . S
C1139 H1133 0.930 . S
C1139 C1135 1.400 . S
C1139 C1138 1.385 . S
C1140 C1138 1.478 . S
C1140 C1142 1.381 . S
C1140 C1146 1.383 . S
C1141 C1137 1.495 . S
C1141 H1147 0.959 1_554 S
C1141 H1148 0.961 . S
C1141 H1149 0.960 1_554 S
C1142 C1140 1.381 . S
C1142 C1143 1.394 . S
C1142 H1150 0.930 . S
C1143 C1142 1.394 . S
C1143 C1144 1.383 . S
C1143 H1151 0.929 . S
C1144 C1143 1.383 . S
C1144 C1145 1.377 . S
C1145 H1129 0.930 . S
C1145 C1144 1.377 . S
C1145 C1146 1.379 . S
C1146 H1130 0.931 . S
C1146 C1140 1.383 . S
C1146 C1145 1.379 . S
H1147 C1141 0.959 1_556 S
H1148 C1141 0.961 . S
H1149 C1141 0.960 1_556 S
H1150 C1142 0.930 . S
H1151 C1143 0.929 . S
H1152 C1160 0.929 . S
H1153 C1162 0.930 . S
H1154 C1164 0.930 . S
H1155 C1167 0.929 . S
H1156 C1170 0.930 . S
H1157 C1172 0.960 . S
H1158 C1172 0.960 . S
H1159 C1172 0.960 . S
C1160 H1152 0.929 . S
C1160 C1161 1.377 . S
C1160 C1162 1.384 . S
C1161 C1160 1.377 . S
C1161 C1167 1.390 . S
C1162 H1153 0.930 . S
C1162 C1160 1.384 . S
C1162 C1163 1.372 . S
C1163 C1162 1.372 . S
C1163 C1164 1.400 . S
C1163 C1168 1.490 . S
C1164 H1154 0.930 . S
C1164 C1163 1.400 . S
C1164 C1167 1.386 . S
H1165 C1181 0.930 . S
H1166 C1182 0.931 . S
C1167 H1155 0.929 . S
C1167 C1161 1.390 . S
C1167 C1164 1.386 . S
C1168 C1163 1.490 . S
C1168 C1170 1.395 . S
C1168 C1171 1.403 . S
H1169 C1175 0.930 . S
C1170 H1156 0.930 . S
C1170 C1168 1.395 . S
C1170 C1173 1.403 . S
C1171 C1168 1.403 . S
C1171 C1172 1.524 . S
C1171 C1175 1.400 . S
C1172 H1157 0.960 . S
C1172 H1158 0.960 . S
C1172 H1159 0.960 . S
C1172 C1171 1.524 . S
C1173 C1170 1.403 . S
C1173 C1174 1.392 . S
C1173 C1177 1.495 . S
C1174 C1173 1.392 . S
C1174 C1175 1.385 . S
C1174 C1176 1.478 . S
C1175 H1169 0.930 . S
C1175 C1171 1.400 . S
C1175 C1174 1.385 . S
C1176 C1174 1.478 . S
C1176 C1178 1.381 . S
C1176 C1182 1.383 . S
C1177 C1173 1.495 . S
C1177 H1183 0.959 . S
C1177 H1184 0.961 . S
C1177 H1185 0.960 . S
C1178 C1176 1.381 . S
C1178 C1179 1.394 . S
C1178 H1186 0.930 . S
C1179 C1178 1.394 . S
C1179 C1180 1.383 . S
C1179 H1187 0.929 . S
C1180 C1179 1.383 . S
C1180 C1181 1.377 . S
C1181 H1165 0.930 . S
C1181 C1180 1.377 . S
C1181 C1182 1.379 . S
C1182 H1166 0.931 . S
C1182 C1176 1.383 . S
C1182 C1181 1.379 . S
H1183 C1177 0.959 . S
H1184 C1177 0.961 . S
H1185 C1177 0.960 . S
H1186 C1178 0.930 . S
H1187 C1179 0.929 . S
H1188 C1196 0.929 . S
H1189 C1198 0.930 . S
H1190 C1200 0.930 . S
H1191 C1203 0.929 . S
H1192 C1206 0.930 . S
H1193 C1208 0.960 . S
H1194 C1208 0.960 . S
H1195 C1208 0.960 . S
C1196 H1188 0.929 . S
C1196 C1197 1.377 . S
C1196 C1198 1.384 . S
C1197 C1196 1.377 . S
C1197 C1203 1.390 . S
C1198 H1189 0.930 . S
C1198 C1196 1.384 . S
C1198 C1199 1.372 . S
C1199 C1198 1.372 . S
C1199 C1200 1.400 . S
C1199 C1204 1.490 . S
C1200 H1190 0.930 . S
C1200 C1199 1.400 . S
C1200 C1203 1.386 . S
H1201 C1217 0.930 . S
H1202 C1218 0.931 . S
C1203 H1191 0.929 . S
C1203 C1197 1.390 . S
C1203 C1200 1.386 . S
C1204 C1199 1.490 . S
C1204 C1206 1.395 . S
C1204 C1207 1.403 . S
H1205 C1211 0.930 . S
C1206 H1192 0.930 . S
C1206 C1204 1.395 . S
C1206 C1209 1.403 . S
C1207 C1204 1.403 . S
C1207 C1208 1.524 . S
C1207 C1211 1.400 . S
C1208 H1193 0.960 . S
C1208 H1194 0.960 . S
C1208 H1195 0.960 . S
C1208 C1207 1.524 . S
C1209 C1206 1.403 . S
C1209 C1210 1.392 . S
C1209 C1213 1.495 . S
C1210 C1209 1.392 . S
C1210 C1211 1.385 . S
C1210 C1212 1.478 . S
C1211 H1205 0.930 . S
C1211 C1207 1.400 . S
C1211 C1210 1.385 . S
C1212 C1210 1.478 . S
C1212 C1214 1.381 . S
C1212 C1218 1.383 . S
C1213 C1209 1.495 . S
C1213 H1219 0.959 . S
C1213 H1220 0.961 . S
C1213 H1221 0.960 . S
C1214 C1212 1.381 . S
C1214 C1215 1.394 . S
C1214 H1222 0.930 . S
C1215 C1214 1.394 . S
C1215 C1216 1.383 . S
C1215 H1223 0.929 . S
C1216 C1215 1.383 . S
C1216 C1217 1.377 . S
C1217 H1201 0.930 . S
C1217 C1216 1.377 . S
C1217 C1218 1.379 . S
C1218 H1202 0.931 . S
C1218 C1212 1.383 . S
C1218 C1217 1.379 . S
H1219 C1213 0.959 . S
H1220 C1213 0.961 . S
H1221 C1213 0.960 . S
H1222 C1214 0.930 . S
H1223 C1215 0.929 . S
H1224 C1232 0.929 . S
H1225 C1234 0.930 . S
H1226 C1236 0.930 . S
H1227 C1239 0.929 . S
H1228 C1242 0.930 . S
H1229 C1244 0.960 . S
H1230 C1244 0.960 . S
H1231 C1244 0.960 . S
C1232 H1224 0.929 . S
C1232 C1233 1.377 . S
C1232 C1234 1.384 . S
C1233 C1232 1.377 . S
C1233 C1239 1.390 . S
C1234 H1225 0.930 . S
C1234 C1232 1.384 . S
C1234 C1235 1.372 . S
C1235 C1234 1.372 . S
C1235 C1236 1.400 . S
C1235 C1240 1.490 . S
C1236 H1226 0.930 . S
C1236 C1235 1.400 . S
C1236 C1239 1.386 . S
H1237 C1253 0.930 . S
H1238 C1254 0.931 . S
C1239 H1227 0.929 . S
C1239 C1233 1.390 . S
C1239 C1236 1.386 . S
C1240 C1235 1.490 . S
C1240 C1242 1.395 . S
C1240 C1243 1.403 . S
H1241 C1247 0.930 . S
C1242 H1228 0.930 . S
C1242 C1240 1.395 . S
C1242 C1245 1.403 . S
C1243 C1240 1.403 . S
C1243 C1244 1.524 . S
C1243 C1247 1.400 . S
C1244 H1229 0.960 . S
C1244 H1230 0.960 . S
C1244 H1231 0.960 . S
C1244 C1243 1.524 . S
C1245 C1242 1.403 . S
C1245 C1246 1.392 . S
C1245 C1249 1.495 . S
C1246 C1245 1.392 . S
C1246 C1247 1.385 . S
C1246 C1248 1.478 . S
C1247 H1241 0.930 . S
C1247 C1243 1.400 . S
C1247 C1246 1.385 . S
C1248 C1246 1.478 . S
C1248 C1250 1.381 . S
C1248 C1254 1.383 . S
C1249 C1245 1.495 . S
C1249 H1255 0.959 . S
C1249 H1256 0.961 . S
C1249 H1257 0.960 . S
C1250 C1248 1.381 . S
C1250 C1251 1.394 . S
C1250 H1258 0.930 . S
C1251 C1250 1.394 . S
C1251 C1252 1.383 . S
C1251 H1259 0.929 . S
C1252 C1251 1.383 . S
C1252 C1253 1.377 . S
C1253 H1237 0.930 . S
C1253 C1252 1.377 . S
C1253 C1254 1.379 . S
C1254 H1238 0.931 . S
C1254 C1248 1.383 . S
C1254 C1253 1.379 . S
H1255 C1249 0.959 . S
H1256 C1249 0.961 . S
H1257 C1249 0.960 . S
H1258 C1250 0.930 . S
H1259 C1251 0.929 . S
H1260 C1268 0.929 . S
H1261 C1270 0.930 . S
H1262 C1272 0.930 . S
H1263 C1275 0.929 . S
H1264 C1278 0.930 . S
H1265 C1280 0.948 1_554 S
H1266 C1280 0.960 1_554 S
H1267 C1280 0.960 . S
C1268 H1260 0.929 . S
C1268 C1269 1.377 . S
C1268 C1270 1.384 . S
C1269 C1268 1.377 . S
C1269 C1275 1.390 . S
C1270 H1261 0.930 . S
C1270 C1268 1.384 . S
C1270 C1271 1.372 . S
C1271 C1270 1.372 . S
C1271 C1272 1.400 . S
C1271 C1276 1.490 . S
C1272 H1262 0.930 . S
C1272 C1271 1.400 . S
C1272 C1275 1.386 . S
H1273 C1289 0.930 . S
H1274 C1290 0.931 . S
C1275 H1263 0.929 . S
C1275 C1269 1.390 . S
C1275 C1272 1.386 . S
C1276 C1271 1.490 . S
C1276 C1278 1.395 . S
C1276 C1279 1.403 . S
H1277 C1283 0.930 . S
C1278 H1264 0.930 . S
C1278 C1276 1.395 . S
C1278 C1281 1.403 . S
C1279 C1276 1.403 . S
C1279 C1280 1.524 . S
C1279 C1283 1.400 . S
C1280 H1265 0.948 1_556 S
C1280 H1266 0.960 1_556 S
C1280 H1267 0.960 . S
C1280 C1279 1.524 . S
C1281 C1278 1.403 . S
C1281 C1282 1.392 . S
C1281 C1285 1.495 . S
C1282 C1281 1.392 . S
C1282 C1283 1.385 . S
C1282 C1284 1.478 . S
C1283 H1277 0.930 . S
C1283 C1279 1.400 . S
C1283 C1282 1.385 . S
C1284 C1282 1.478 . S
C1284 C1286 1.381 . S
C1284 C1290 1.383 . S
C1285 C1281 1.495 . S
C1285 H1291 0.959 . S
C1285 H1292 0.961 . S
C1285 H1293 0.960 . S
C1286 C1284 1.381 . S
C1286 C1287 1.394 . S
C1286 H1294 0.930 . S
C1287 C1286 1.394 . S
C1287 C1288 1.383 . S
C1287 H1295 0.929 . S
C1288 C1287 1.383 . S
C1288 C1289 1.377 . S
C1289 H1273 0.930 . S
C1289 C1288 1.377 . S
C1289 C1290 1.379 . S
C1290 H1274 0.931 . S
C1290 C1284 1.383 . S
C1290 C1289 1.379 . S
H1291 C1285 0.959 . S
H1292 C1285 0.961 . S
H1293 C1285 0.960 . S
H1294 C1286 0.930 . S
H1295 C1287 0.929 . S
H1296 C1304 0.929 . S
H1297 C1306 0.930 . S
H1298 C1308 0.930 . S
H1299 C1311 0.929 . S
H1300 C1314 0.930 . S
H1301 C1316 0.960 . S
H1302 C1316 0.960 . S
H1303 C1316 0.960 . S
C1304 H1296 0.929 . S
C1304 C1305 1.377 . S
C1304 C1306 1.384 . S
C1305 C1304 1.377 . S
C1305 C1311 1.390 . S
C1306 H1297 0.930 . S
C1306 C1304 1.384 . S
C1306 C1307 1.372 . S
C1307 C1306 1.372 . S
C1307 C1308 1.400 . S
C1307 C1312 1.490 . S
C1308 H1298 0.930 . S
C1308 C1307 1.400 . S
C1308 C1311 1.386 . S
H1309 C1325 0.930 1_554 S
H1310 C1326 0.910 1_554 S
C1311 H1299 0.929 . S
C1311 C1305 1.390 . S
C1311 C1308 1.386 . S
C1312 C1307 1.490 . S
C1312 C1314 1.395 . S
C1312 C1315 1.403 . S
H1313 C1319 0.930 . S
C1314 H1300 0.930 . S
C1314 C1312 1.395 . S
C1314 C1317 1.403 . S
C1315 C1312 1.403 . S
C1315 C1316 1.524 . S
C1315 C1319 1.400 . S
C1316 H1301 0.960 . S
C1316 H1302 0.960 . S
C1316 H1303 0.960 . S
C1316 C1315 1.524 . S
C1317 C1314 1.403 . S
C1317 C1318 1.392 . S
C1317 C1321 1.495 . S
C1318 C1317 1.392 . S
C1318 C1319 1.385 . S
C1318 C1320 1.478 . S
C1319 H1313 0.930 . S
C1319 C1315 1.400 . S
C1319 C1318 1.385 . S
C1320 C1318 1.478 . S
C1320 C1322 1.381 . S
C1320 C1326 1.383 . S
C1321 C1317 1.495 . S
C1321 H1327 0.959 . S
C1321 H1328 0.961 . S
C1321 H1329 0.960 . S
C1322 C1320 1.381 . S
C1322 C1323 1.394 . S
C1322 H1330 0.930 . S
C1323 C1322 1.394 . S
C1323 C1324 1.383 . S
C1323 H1331 0.929 . S
C1324 C1323 1.383 . S
C1324 C1325 1.377 . S
C1325 H1309 0.930 1_556 S
C1325 C1324 1.377 . S
C1325 C1326 1.379 . S
C1326 H1310 0.910 1_556 S
C1326 C1320 1.383 . S
C1326 C1325 1.379 . S
H1327 C1321 0.959 . S
H1328 C1321 0.961 . S
H1329 C1321 0.960 . S
H1330 C1322 0.930 . S
H1331 C1323 0.929 . S
H1332 C1340 0.929 . S
H1333 C1342 0.930 . S
H1334 C1344 0.930 . S
H1335 C1347 0.929 . S
H1336 C1350 0.912 1_554 S
H1337 C1352 0.960 . S
H1338 C1352 0.960 . S
H1339 C1352 0.960 . S
C1340 H1332 0.929 . S
C1340 C1341 1.377 . S
C1340 C1342 1.384 . S
C1341 C1340 1.377 . S
C1341 C1347 1.390 . S
C1342 H1333 0.930 . S
C1342 C1340 1.384 . S
C1342 C1343 1.372 . S
C1343 C1342 1.372 . S
C1343 C1344 1.400 . S
C1343 C1348 1.490 . S
C1344 H1334 0.930 . S
C1344 C1343 1.400 . S
C1344 C1347 1.386 . S
H1345 C1361 0.930 . S
H1346 C1362 0.931 . S
C1347 H1335 0.929 . S
C1347 C1341 1.390 . S
C1347 C1344 1.386 . S
C1348 C1343 1.490 . S
C1348 C1350 1.395 . S
C1348 C1351 1.403 . S
H1349 C1355 0.930 . S
C1350 H1336 0.912 1_556 S
C1350 C1348 1.395 . S
C1350 C1353 1.403 . S
C1351 C1348 1.403 . S
C1351 C1352 1.524 . S
C1351 C1355 1.400 . S
C1352 H1337 0.960 . S
C1352 H1338 0.960 . S
C1352 H1339 0.960 . S
C1352 C1351 1.524 . S
C1353 C1350 1.403 . S
C1353 C1354 1.392 . S
C1353 C1357 1.495 1_556 S
C1354 C1353 1.392 . S
C1354 C1355 1.385 . S
C1354 C1356 1.478 . S
C1355 H1349 0.930 . S
C1355 C1351 1.400 . S
C1355 C1354 1.385 . S
C1356 C1354 1.478 . S
C1356 C1358 1.381 . S
C1356 C1362 1.383 . S
C1357 C1353 1.495 1_554 S
C1357 H1363 0.959 . S
C1357 H1364 0.961 . S
C1357 H1365 0.960 . S
C1358 C1356 1.381 . S
C1358 C1359 1.394 . S
C1358 H1366 0.930 . S
C1359 C1358 1.394 . S
C1359 C1360 1.383 . S
C1359 H1367 0.929 . S
C1360 C1359 1.383 . S
C1360 C1361 1.377 . S
C1361 H1345 0.930 . S
C1361 C1360 1.377 . S
C1361 C1362 1.379 . S
C1362 H1346 0.931 . S
C1362 C1356 1.383 . S
C1362 C1361 1.379 . S
H1363 C1357 0.959 . S
H1364 C1357 0.961 . S
H1365 C1357 0.960 . S
H1366 C1358 0.930 . S
H1367 C1359 0.929 . S
H1368 C1376 0.929 . S
H1369 C1378 0.930 . S
H1370 C1380 0.930 . S
H1371 C1383 0.929 . S
H1372 C1386 0.930 . S
H1373 C1388 0.960 . S
H1374 C1388 0.960 . S
H1375 C1388 0.960 . S
C1376 H1368 0.929 . S
C1376 C1377 1.377 . S
C1376 C1378 1.384 . S
C1377 C1376 1.377 . S
C1377 C1383 1.390 . S
C1378 H1369 0.930 . S
C1378 C1376 1.384 . S
C1378 C1379 1.372 . S
C1379 C1378 1.372 . S
C1379 C1380 1.400 . S
C1379 C1384 1.490 . S
C1380 H1370 0.930 . S
C1380 C1379 1.400 . S
C1380 C1383 1.386 . S
H1381 C1397 0.930 . S
H1382 C1398 0.931 . S
C1383 H1371 0.929 . S
C1383 C1377 1.390 . S
C1383 C1380 1.386 . S
C1384 C1379 1.490 . S
C1384 C1386 1.395 . S
C1384 C1387 1.403 . S
H1385 C1391 0.930 . S
C1386 H1372 0.930 . S
C1386 C1384 1.395 . S
C1386 C1389 1.403 . S
C1387 C1384 1.403 . S
C1387 C1388 1.524 . S
C1387 C1391 1.400 . S
C1388 H1373 0.960 . S
C1388 H1374 0.960 . S
C1388 H1375 0.960 . S
C1388 C1387 1.524 . S
C1389 C1386 1.403 . S
C1389 C1390 1.392 . S
C1389 C1393 1.495 . S
C1390 C1389 1.392 . S
C1390 C1391 1.385 . S
C1390 C1392 1.478 . S
C1391 H1385 0.930 . S
C1391 C1387 1.400 . S
C1391 C1390 1.385 . S
C1392 C1390 1.478 . S
C1392 C1394 1.381 . S
C1392 C1398 1.383 . S
C1393 C1389 1.495 . S
C1393 H1399 0.959 . S
C1393 H1400 0.961 . S
C1393 H1401 0.960 . S
C1394 C1392 1.381 . S
C1394 C1395 1.394 . S
C1394 H1402 0.930 . S
C1395 C1394 1.394 . S
C1395 C1396 1.383 . S
C1395 H1403 0.929 . S
C1396 C1395 1.383 . S
C1396 C1397 1.377 . S
C1397 H1381 0.930 . S
C1397 C1396 1.377 . S
C1397 C1398 1.379 . S
C1398 H1382 0.931 . S
C1398 C1392 1.383 . S
C1398 C1397 1.379 . S
H1399 C1393 0.959 . S
H1400 C1393 0.961 . S
H1401 C1393 0.960 . S
H1402 C1394 0.930 . S
H1403 C1395 0.929 . S
H1404 C1412 0.929 . S
H1405 C1414 0.930 . S
H1406 C1416 0.930 . S
H1407 C1419 0.929 . S
H1408 C1422 0.930 . S
H1409 C1424 0.960 . S
H1410 C1424 0.960 . S
H1411 C1424 0.960 . S
C1412 H1404 0.929 . S
C1412 C1413 1.377 . S
C1412 C1414 1.384 . S
C1413 C1412 1.377 . S
C1413 C1419 1.390 . S
C1414 H1405 0.930 . S
C1414 C1412 1.384 . S
C1414 C1415 1.372 . S
C1415 C1414 1.372 . S
C1415 C1416 1.400 . S
C1415 C1420 1.490 . S
C1416 H1406 0.930 . S
C1416 C1415 1.400 . S
C1416 C1419 1.386 . S
H1417 C1433 0.930 . S
H1418 C1434 0.931 . S
C1419 H1407 0.929 . S
C1419 C1413 1.390 . S
C1419 C1416 1.386 . S
C1420 C1415 1.490 . S
C1420 C1422 1.395 . S
C1420 C1423 1.403 . S
H1421 C1427 0.930 . S
C1422 H1408 0.930 . S
C1422 C1420 1.395 . S
C1422 C1425 1.403 . S
C1423 C1420 1.403 . S
C1423 C1424 1.524 . S
C1423 C1427 1.400 . S
C1424 H1409 0.960 . S
C1424 H1410 0.960 . S
C1424 H1411 0.960 . S
C1424 C1423 1.524 . S
C1425 C1422 1.403 . S
C1425 C1426 1.392 . S
C1425 C1429 1.495 . S
C1426 C1425 1.392 . S
C1426 C1427 1.385 . S
C1426 C1428 1.478 . S
C1427 H1421 0.930 . S
C1427 C1423 1.400 . S
C1427 C1426 1.385 . S
C1428 C1426 1.478 . S
C1428 C1430 1.381 . S
C1428 C1434 1.383 . S
C1429 C1425 1.495 . S
C1429 H1435 0.959 . S
C1429 H1436 0.961 . S
C1429 H1437 0.960 . S
C1430 C1428 1.381 . S
C1430 C1431 1.394 . S
C1430 H1438 0.930 . S
C1431 C1430 1.394 . S
C1431 C1432 1.383 . S
C1431 H1439 0.929 . S
C1432 C1431 1.383 . S
C1432 C1433 1.377 . S
C1433 H1417 0.930 . S
C1433 C1432 1.377 . S
C1433 C1434 1.379 . S
C1434 H1418 0.931 . S
C1434 C1428 1.383 . S
C1434 C1433 1.379 . S
H1435 C1429 0.959 . S
H1436 C1429 0.961 . S
H1437 C1429 0.960 . S
H1438 C1430 0.930 . S
H1439 C1431 0.929 . S
H1440 C1448 0.929 . S
H1441 C1450 0.930 . S
H1442 C1452 0.930 . S
H1443 C1455 0.929 . S
H1444 C1458 0.930 . S
H1445 C1460 0.960 . S
H1446 C1460 0.960 . S
H1447 C1460 0.960 . S
C1448 H1440 0.929 . S
C1448 C1449 1.377 . S
C1448 C1450 1.384 . S
C1449 C1448 1.377 . S
C1449 C1455 1.390 . S
C1450 H1441 0.930 . S
C1450 C1448 1.384 . S
C1450 C1451 1.372 . S
C1451 C1450 1.372 . S
C1451 C1452 1.400 . S
C1451 C1456 1.490 . S
C1452 H1442 0.930 . S
C1452 C1451 1.400 . S
C1452 C1455 1.386 . S
H1453 C1469 0.930 . S
H1454 C1470 0.931 . S
C1455 H1443 0.929 . S
C1455 C1449 1.390 . S
C1455 C1452 1.386 . S
C1456 C1451 1.490 . S
C1456 C1458 1.395 . S
C1456 C1459 1.403 . S
H1457 C1463 0.930 . S
C1458 H1444 0.930 . S
C1458 C1456 1.395 . S
C1458 C1461 1.403 . S
C1459 C1456 1.403 . S
C1459 C1460 1.524 . S
C1459 C1463 1.400 . S
C1460 H1445 0.960 . S
C1460 H1446 0.960 . S
C1460 H1447 0.960 . S
C1460 C1459 1.524 . S
C1461 C1458 1.403 . S
C1461 C1462 1.392 . S
C1461 C1465 1.495 . S
C1462 C1461 1.392 . S
C1462 C1463 1.385 . S
C1462 C1464 1.478 . S
C1463 H1457 0.930 . S
C1463 C1459 1.400 . S
C1463 C1462 1.385 . S
C1464 C1462 1.478 . S
C1464 C1466 1.381 . S
C1464 C1470 1.383 . S
C1465 C1461 1.495 . S
C1465 H1471 0.959 . S
C1465 H1472 0.961 . S
C1465 H1473 0.960 . S
C1466 C1464 1.381 . S
C1466 C1467 1.394 . S
C1466 H1474 0.930 . S
C1467 C1466 1.394 . S
C1467 C1468 1.383 . S
C1467 H1475 0.929 . S
C1468 C1467 1.383 . S
C1468 C1469 1.377 . S
C1469 H1453 0.930 . S
C1469 C1468 1.377 . S
C1469 C1470 1.379 . S
C1470 H1454 0.931 . S
C1470 C1464 1.383 . S
C1470 C1469 1.379 . S
H1471 C1465 0.959 . S
H1472 C1465 0.961 . S
H1473 C1465 0.960 . S
H1474 C1466 0.930 . S
H1475 C1467 0.929 . S
C405 C173 1.414 . S
C424 C8 1.402 . S
C441 C41 1.416 . S
C460 C107 1.414 . S
C477 C74 1.416 . S
C496 C140 1.422 . S
C513 C206 1.415 . S
C532 C371 1.422 . S
C549 C305 1.415 . S
C568 C239 1.422 . S
C585 C338 1.412 . S
C604 C272 1.414 . S
C621 C17 1.930 . S
C640 C215 1.908 . S
C657 C50 1.920 . S
C676 C248 1.886 . S
C693 C281 1.926 . S
C712 C83 1.892 . S
C729 C314 1.923 . S
C748 C116 1.946 . S
C765 C149 1.923 . S
C784 C347 1.948 . S
C801 C182 1.932 . S
C820 C380 1.946 . S
C837 N146 1.628 . S
C856 N14 1.604 . S
C873 N179 1.620 . S
C892 N47 1.641 . S
C909 N113 1.618 . S
C928 N80 1.647 . S
C945 N212 1.630 . S
C964 N344 1.643 . S
C981 N245 1.620 . S
C1000 N377 1.589 . S
C1017 N311 1.624 . S
C1036 N278 1.642 . S
C1053 C28 0.424 . S
C1072 N71 0.774 . S
C1089 C61 0.422 . S
C1108 N5 0.822 . S
C1125 N38 0.847 . S
C1144 C94 0.435 . S
C1161 C127 0.392 . S
C1180 N137 0.918 . S
C1197 N170 0.827 . S
C1216 C160 0.485 . S
C1233 N104 0.849 . S
C1252 C193 0.422 . S
C1269 N269 0.858 . S
C1288 C226 0.419 . S
C1305 C259 0.392 . S
C1324 N203 0.826 . S
C1341 N236 0.836 . S
C1360 C292 0.487 . S
C1377 N335 0.826 . S
C1396 C325 0.412 . S
C1413 N368 0.855 . S
C1432 C358 0.490 . S
C1449 C391 0.423 . S
C1468 N302 0.914 . S
