# Generated by pormake.
# Topology sow, (4)-cn, num edge types: 1
# Building blocks:
#     Node 0, Type 0, BuildingBlock: ICAMEG_clean_sbu_1, # of connection points: 4
#     Node 1, Type 0, BuildingBlock: ICAMEG_clean_sbu_1, # of connection points: 4
#     Node 2, Type 0, BuildingBlock: ICAMEG_clean_sbu_1, # of connection points: 4
#     Node 3, Type 0, BuildingBlock: ICAMEG_clean_sbu_1, # of connection points: 4
#     Node 4, Type 0, BuildingBlock: ICAMEG_clean_sbu_1, # of connection points: 4
#     Node 5, Type 0, BuildingBlock: ICAMEG_clean_sbu_1, # of connection points: 4
#     Node 6, Type 0, BuildingBlock: ICAMEG_clean_sbu_1, # of connection points: 4
#     Node 7, Type 0, BuildingBlock: ICAMEG_clean_sbu_1, # of connection points: 4
#     Edge 8, Type (0, 0), BuildingBlock: XUDNAN_clean_linker_2, # of connection points: 2
#     Edge 9, Type (0, 0), BuildingBlock: XUDNAN_clean_linker_2, # of connection points: 2
#     Edge 10, Type (0, 0), BuildingBlock: XUDNAN_clean_linker_2, # of connection points: 2
#     Edge 11, Type (0, 0), BuildingBlock: XUDNAN_clean_linker_2, # of connection points: 2
#     Edge 12, Type (0, 0), BuildingBlock: XUDNAN_clean_linker_2, # of connection points: 2
#     Edge 13, Type (0, 0), BuildingBlock: XUDNAN_clean_linker_2, # of connection points: 2
#     Edge 14, Type (0, 0), BuildingBlock: XUDNAN_clean_linker_2, # of connection points: 2
#     Edge 15, Type (0, 0), BuildingBlock: XUDNAN_clean_linker_2, # of connection points: 2
#     Edge 16, Type (0, 0), BuildingBlock: XUDNAN_clean_linker_2, # of connection points: 2
#     Edge 17, Type (0, 0), BuildingBlock: XUDNAN_clean_linker_2, # of connection points: 2
#     Edge 18, Type (0, 0), BuildingBlock: XUDNAN_clean_linker_2, # of connection points: 2
#     Edge 19, Type (0, 0), BuildingBlock: XUDNAN_clean_linker_2, # of connection points: 2
#     Edge 20, Type (0, 0), BuildingBlock: XUDNAN_clean_linker_2, # of connection points: 2
#     Edge 21, Type (0, 0), BuildingBlock: XUDNAN_clean_linker_2, # of connection points: 2
#     Edge 22, Type (0, 0), BuildingBlock: XUDNAN_clean_linker_2, # of connection points: 2
#     Edge 23, Type (0, 0), BuildingBlock: XUDNAN_clean_linker_2, # of connection points: 2
# Relax obj value: 0.052
# Max RMSD: 0.148
# Mean RMSD: 0.148
data_MOF--net-sow--node1-ICAMEG_clean_sbu_1--edge1-XUDNAN_clean_linker_2
_symmetry_space_group_name_H-M    P1
_symmetry_Int_Tables_number       1
_symmetry_cell_setting            triclinic
loop_
_symmetry_equiv_pos_as_xyz
'x, y, z'
_cell_length_a     42.601302
_cell_length_b     18.840035
_cell_length_c     26.444286
_cell_angle_alpha  89.994051
_cell_angle_beta   90.072519
_cell_angle_gamma 90.107757
loop_
_atom_site_label
_atom_site_type_symbol
_atom_site_fract_x
_atom_site_fract_y
_atom_site_fract_z
_atom_type_partial_charge
Co0 Co 0.13002 0.23801 0.0717 0.0
Co1 Co 0.14313 0.14669 0.18279 0.0
O2 O 0.15799 0.19848 0.1233 0.0
C3 C 0.17504 0.15539 0.00849 0.0
O4 O 0.16883 0.09873 0.03567 0.0
C5 C 0.18103 0.26182 0.2286 0.0
O6 O 0.1653 0.30599 0.19976 0.0
O7 O 0.11263 0.22279 0.19923 0.0
O8 O 0.09797 0.26406 0.12332 0.0
H9 H 0.0614 0.04762 0.30047 0.0
H10 H 0.19633 0.28588 0.07666 0.0
O11 O 0.1615 0.21398 0.01816 0.0
H12 H 0.1331 0.50216 0.10081 0.0
H13 H 0.10601 0.37494 0.91274 0.0
H14 H 0.06152 0.23173 0.05141 0.0
H15 H 0.10739 0.38624 0.08741 0.0
H16 H 0.14023 0.32698 0.97976 0.0
O17 O 0.17574 0.1953 0.22567 0.0
H18 H 0.08046 0.1095 0.22422 0.0
H19 H 0.17492 0.07607 0.26995 0.0
H20 H 0.02645 0.2789 0.98532 0.0
H21 H 0.22299 0.40086 0.08931 0.0
H22 H 0.04865 0.35113 0.91533 0.0
H23 H 0.19131 0.50999 0.10167 0.0
O24 O 0.1085 0.14442 0.06307 0.0
H25 H 0.24879 0.04773 0.13767 0.0
H26 H 0.13857 0.98928 0.17615 0.0
H27 H 0.17602 0.89264 0.15892 0.0
H28 H 0.23161 0.92144 0.14043 0.0
H29 H 0.21058 0.14262 0.15552 0.0
H30 H 0.15687 0.01408 0.34681 0.0
H31 H 0.09972 0.99943 0.36242 0.0
O32 O 0.11009 0.0976 0.14139 0.0
C33 C 0.0945 0.25915 0.17102 0.0
C34 C 0.08636 0.05342 0.29398 0.0
C35 C 0.13994 0.03471 0.32004 0.0
N36 N 0.12877 0.09592 0.24239 0.0
C37 C 0.0973 0.08823 0.25079 0.0
C38 C 0.15001 0.06997 0.27648 0.0
C39 C 0.10787 0.02648 0.32877 0.0
C40 C 0.18238 0.33324 0.08153 0.0
N41 N 0.15034 0.32939 0.081 0.0
C42 C 0.19761 0.39815 0.08889 0.0
C43 C 0.17982 0.45935 0.09588 0.0
C44 C 0.14715 0.45498 0.09544 0.0
C45 C 0.13273 0.38915 0.08797 0.0
C46 C 0.09604 0.34364 0.94308 0.0
C47 C 0.07136 0.26338 0.02123 0.0
C48 C 0.11531 0.31622 0.9811 0.0
N49 N 0.10287 0.2769 0.01966 0.0
C50 C 0.05138 0.28983 0.98384 0.0
C51 C 0.06386 0.33028 0.94456 0.0
C52 C 0.09972 0.09873 0.09598 0.0
C53 C 0.22468 0.03434 0.14616 0.0
C54 C 0.16268 0.00229 0.16746 0.0
C55 C 0.18379 0.94735 0.15789 0.0
C56 C 0.21501 0.96362 0.14739 0.0
N57 N 0.17247 0.07142 0.16712 0.0
C58 C 0.20295 0.08788 0.15625 0.0
Co59 Co 0.37457 0.26452 0.57208 0.0
Co60 Co 0.35938 0.35664 0.68185 0.0
O61 O 0.34561 0.30427 0.62202 0.0
C62 C 0.32976 0.34552 0.50779 0.0
O63 O 0.3355 0.40179 0.53565 0.0
C64 C 0.32049 0.24246 0.72608 0.0
O65 O 0.33649 0.19835 0.69766 0.0
O66 O 0.38897 0.27986 0.70051 0.0
O67 O 0.40619 0.24052 0.62532 0.0
H68 H 0.43891 0.45789 0.80279 0.0
H69 H 0.30846 0.2148 0.57443 0.0
O70 O 0.34363 0.28717 0.51717 0.0
H71 H 0.37249 0.00094 0.6038 0.0
H72 H 0.40134 0.1262 0.41506 0.0
H73 H 0.44347 0.27055 0.55516 0.0
H74 H 0.39776 0.11734 0.59035 0.0
H75 H 0.36598 0.17485 0.48012 0.0
O76 O 0.32575 0.30903 0.72321 0.0
H77 H 0.42128 0.39373 0.72651 0.0
H78 H 0.32602 0.42878 0.76661 0.0
H79 H 0.47965 0.22257 0.49114 0.0
H80 H 0.28225 0.09931 0.58704 0.0
H81 H 0.45863 0.14984 0.42039 0.0
H82 H 0.31433 0.99139 0.60205 0.0
O83 O 0.39567 0.35826 0.56358 0.0
H84 H 0.25534 0.45799 0.62958 0.0
H85 H 0.36496 0.51373 0.67441 0.0
H86 H 0.3285 0.6112 0.65432 0.0
H87 H 0.27322 0.58384 0.63259 0.0
H88 H 0.29255 0.36219 0.65058 0.0
H89 H 0.34262 0.49283 0.84351 0.0
H90 H 0.39945 0.50794 0.86192 0.0
O91 O 0.39359 0.40452 0.64203 0.0
C92 C 0.40792 0.24445 0.67331 0.0
C93 C 0.41408 0.45186 0.79509 0.0
C94 C 0.36005 0.47136 0.818 0.0
N95 N 0.37266 0.40798 0.74188 0.0
C96 C 0.40396 0.41575 0.75188 0.0
C97 C 0.35079 0.43489 0.77445 0.0
C98 C 0.39193 0.47986 0.82829 0.0
C99 C 0.3226 0.16797 0.58042 0.0
N100 N 0.35461 0.17277 0.58136 0.0
C101 C 0.30762 0.10277 0.58776 0.0
C102 C 0.32563 0.04225 0.59625 0.0
C103 C 0.35826 0.04759 0.59727 0.0
C104 C 0.37243 0.11367 0.58976 0.0
C105 C 0.41078 0.1578 0.44571 0.0
C106 C 0.43412 0.23871 0.52466 0.0
C107 C 0.39086 0.18565 0.4826 0.0
N108 N 0.40264 0.22537 0.52153 0.0
C109 C 0.45474 0.21181 0.48843 0.0
C110 C 0.44293 0.17106 0.44873 0.0
C111 C 0.40441 0.40338 0.59689 0.0
C112 C 0.27931 0.47078 0.63954 0.0
C113 C 0.34098 0.50128 0.66439 0.0
C114 C 0.32043 0.55671 0.6532 0.0
C115 C 0.28937 0.54123 0.6409 0.0
N116 N 0.33079 0.43245 0.66396 0.0
C117 C 0.30047 0.41672 0.65138 0.0
Co118 Co 0.63096 0.25557 0.95689 0.0
Co119 Co 0.65325 0.35419 0.85273 0.0
O120 O 0.66253 0.29666 0.91222 0.0
C121 C 0.67046 0.34148 0.02581 0.0
O122 O 0.66722 0.39477 0.99424 0.0
C123 C 0.6906 0.23655 0.81066 0.0
O124 O 0.67244 0.19304 0.83616 0.0
O125 O 0.62141 0.28437 0.82822 0.0
O126 O 0.60444 0.22823 0.8981 0.0
H127 H 0.58353 0.47471 0.72562 0.0
H128 H 0.69764 0.21259 0.96717 0.0
O129 O 0.65706 0.28234 0.01682 0.0
H130 H 0.63997 0.99213 0.92806 0.0
H131 H 0.59502 0.1161 0.10864 0.0
H132 H 0.56134 0.256 0.96065 0.0
H133 H 0.61186 0.10597 0.93586 0.0
H134 H 0.63417 0.16731 0.05037 0.0
O135 O 0.68669 0.30338 0.81411 0.0
H136 H 0.59515 0.40381 0.80175 0.0
H137 H 0.69302 0.42626 0.77546 0.0
H138 H 0.52143 0.20555 0.01779 0.0
H139 H 0.72663 0.0998 0.96023 0.0
H140 H 0.53819 0.13495 0.09241 0.0
H141 H 0.69777 0.98857 0.94041 0.0
O142 O 0.60766 0.3473 0.96125 0.0
H143 H 0.75667 0.42925 0.92717 0.0
H144 H 0.65329 0.51122 0.86704 0.0
H145 H 0.6905 0.59764 0.90359 0.0
H146 H 0.74232 0.55645 0.93495 0.0
H147 H 0.7186 0.34449 0.8908 0.0
H148 H 0.68245 0.49709 0.69886 0.0
H149 H 0.62737 0.52194 0.67359 0.0
O150 O 0.61943 0.40545 0.88946 0.0
C151 C 0.60302 0.2412 0.85084 0.0
C152 C 0.60763 0.46451 0.73635 0.0
C153 C 0.66315 0.47701 0.7213 0.0
N154 N 0.64473 0.41135 0.79325 0.0
C155 C 0.61436 0.42454 0.7795 0.0
C156 C 0.66899 0.43676 0.76466 0.0
C157 C 0.63224 0.49092 0.70714 0.0
C158 C 0.68487 0.16431 0.95899 0.0
N159 N 0.65306 0.16582 0.95224 0.0
C160 C 0.70143 0.10065 0.95491 0.0
C161 C 0.68523 0.03827 0.94373 0.0
C162 C 0.6528 0.04025 0.93677 0.0
C163 C 0.63702 0.10489 0.94112 0.0
C164 C 0.58742 0.14666 0.07621 0.0
C165 C 0.56883 0.22507 0.9929 0.0
C166 C 0.60948 0.1759 0.04315 0.0
N167 N 0.60004 0.21428 1.002 0.0
C168 C 0.54612 0.19675 0.02518 0.0
C169 C 0.55554 0.15723 0.06707 0.0
C170 C 0.60397 0.39884 0.93042 0.0
C171 C 0.73407 0.44772 0.91388 0.0
C172 C 0.67593 0.49304 0.88012 0.0
C173 C 0.69691 0.54222 0.90073 0.0
C174 C 0.72605 0.51915 0.91809 0.0
N175 N 0.68376 0.42289 0.87683 0.0
C176 C 0.7125 0.40006 0.89301 0.0
Co177 Co 0.8739 0.24537 0.45702 0.0
Co178 Co 0.84791 0.14695 0.35506 0.0
O179 O 0.84086 0.20607 0.41428 0.0
C180 C 0.83491 0.16263 0.5279 0.0
O181 O 0.83812 0.10854 0.49704 0.0
C182 C 0.81158 0.26637 0.31315 0.0
O183 O 0.83099 0.30876 0.33724 0.0
O184 O 0.87966 0.21475 0.32814 0.0
O185 O 0.90012 0.26875 0.39684 0.0
H186 H 0.91274 0.01833 0.22555 0.0
H187 H 0.80819 0.29437 0.46977 0.0
O188 O 0.8482 0.22165 0.51801 0.0
H189 H 0.86869 0.50847 0.42454 0.0
H190 H 0.91402 0.38633 0.60543 0.0
H191 H 0.9435 0.23827 0.45942 0.0
H192 H 0.89503 0.3925 0.43282 0.0
H193 H 0.87335 0.3364 0.54917 0.0
O194 O 0.81413 0.19929 0.31785 0.0
H195 H 0.90403 0.09245 0.30114 0.0
H196 H 0.80533 0.07648 0.28095 0.0
H197 H 0.98494 0.28748 0.51435 0.0
H198 H 0.78099 0.40937 0.4624 0.0
H199 H 0.97029 0.36219 0.58802 0.0
H200 H 0.81127 0.51741 0.4395 0.0
O201 O 0.89578 0.15218 0.46139 0.0
H202 H 0.74514 0.07916 0.43465 0.0
H203 H 0.84654 0.99022 0.37127 0.0
H204 H 0.80881 0.90643 0.40946 0.0
H205 H 0.7579 0.95108 0.44215 0.0
H206 H 0.78367 0.16118 0.39657 0.0
H207 H 0.81298 0.003 0.2048 0.0
H208 H 0.867 0.97305 0.17682 0.0
O209 O 0.88228 0.09434 0.39019 0.0
C210 C 0.89953 0.25575 0.3495 0.0
C211 C 0.88909 0.03074 0.23748 0.0
C212 C 0.8331 0.02214 0.22582 0.0
N213 N 0.85421 0.08824 0.29569 0.0
C214 C 0.88401 0.0725 0.28034 0.0
C215 C 0.82892 0.06395 0.26889 0.0
C216 C 0.86342 0.0054 0.21013 0.0
C217 C 0.82159 0.34126 0.46027 0.0
N218 N 0.8532 0.3368 0.45207 0.0
C219 C 0.80603 0.40618 0.45595 0.0
C220 C 0.82303 0.46677 0.44303 0.0
C221 C 0.85525 0.46178 0.4346 0.0
C222 C 0.87002 0.39595 0.43924 0.0
C223 C 0.92071 0.35406 0.57336 0.0
C224 C 0.93696 0.27122 0.49107 0.0
C225 C 0.89778 0.32558 0.54142 0.0
N226 N 0.90607 0.28511 0.50069 0.0
C227 C 0.96052 0.2987 0.5222 0.0
C228 C 0.95228 0.34051 0.56357 0.0
C229 C 0.89862 0.10058 0.43044 0.0
C230 C 0.7673 0.05916 0.42068 0.0
C231 C 0.82434 0.00991 0.3851 0.0
C232 C 0.80306 0.96222 0.40663 0.0
C233 C 0.77444 0.98725 0.42479 0.0
N234 N 0.81727 0.08047 0.38163 0.0
C235 C 0.78913 0.10527 0.39887 0.0
Co236 Co 0.86543 0.87568 0.88558 0.0
Co237 Co 0.87653 0.7161 0.94716 0.0
O238 O 0.84982 0.78943 0.91793 0.0
C239 C 0.82529 0.80938 0.80689 0.0
O240 O 0.83994 0.74961 0.81638 0.0
C241 C 0.83259 0.75101 0.03151 0.0
O242 O 0.83794 0.81868 0.02317 0.0
O243 O 0.90068 0.78835 0.98655 0.0
O244 O 0.89897 0.88668 0.93829 0.0
H245 H 0.97899 0.60768 1.00083 0.0
H246 H 0.7976 0.86309 0.90943 0.0
O247 O 0.83248 0.86547 0.83142 0.0
H248 H 0.83479 0.07168 0.00505 0.0
H249 H 0.85268 0.10838 0.79428 0.0
H250 H 0.92837 0.93596 0.86338 0.0
H251 H 0.87123 0.00368 0.95125 0.0
H252 H 0.83419 0.99979 0.83715 0.0
O253 O 0.84613 0.70406 0.00457 0.0
H254 H 0.94509 0.69911 0.96253 0.0
H255 H 0.86406 0.57636 0.99639 0.0
H256 H 0.9479 0.04404 0.82128 0.0
H257 H 0.76027 0.93009 0.96229 0.0
H258 H 0.90992 0.13118 0.78627 0.0
H259 H 0.77884 0.0351 0.01065 0.0
O260 O 0.89558 0.82109 0.84344 0.0
H261 H 0.77903 0.60617 0.87399 0.0
H262 H 0.89446 0.59323 0.88215 0.0
H263 H 0.86538 0.50794 0.82894 0.0
H264 H 0.80719 0.5142 0.8246 0.0
H265 H 0.80896 0.68921 0.92776 0.0
H266 H 0.89707 0.48388 0.03544 0.0
H267 H 0.95499 0.49913 0.03766 0.0
O268 O 0.90743 0.72546 0.89056 0.0
C269 C 0.90989 0.85109 0.97549 0.0
C270 C 0.95379 0.60033 0.99996 0.0
C271 C 0.90781 0.53089 0.01946 0.0
N272 N 0.90265 0.64288 0.97693 0.0
C273 C 0.93448 0.65183 0.97821 0.0
C274 C 0.88923 0.58353 0.99741 0.0
C275 C 0.94031 0.53947 0.02067 0.0
C276 C 0.80579 0.90911 0.93001 0.0
N277 N 0.8365 0.92972 0.92702 0.0
C278 C 0.78458 0.94665 0.96005 0.0
C279 C 0.79502 0.00553 0.98722 0.0
C280 C 0.82641 0.02605 0.98412 0.0
C281 C 0.84695 0.98723 0.9537 0.0
C282 C 0.86946 0.07089 0.80944 0.0
C283 C 0.9117 0.97382 0.8486 0.0
C284 C 0.85913 0.00923 0.83365 0.0
N285 N 0.88019 0.96175 0.853 0.0
C286 C 0.9229 0.03486 0.82465 0.0
C287 C 0.90158 0.08366 0.80498 0.0
C288 C 0.91188 0.76576 0.85242 0.0
C289 C 0.80432 0.60226 0.87616 0.0
C290 C 0.86916 0.59595 0.88072 0.0
C291 C 0.8528 0.5475 0.85055 0.0
C292 C 0.82016 0.55096 0.84818 0.0
N293 N 0.85344 0.64601 0.90816 0.0
C294 C 0.82141 0.64921 0.90646 0.0
Co295 Co 0.6394 0.61673 0.38595 0.0
Co296 Co 0.62912 0.7787 0.44503 0.0
O297 O 0.6553 0.70359 0.41711 0.0
C298 C 0.67876 0.68233 0.30616 0.0
O299 O 0.66436 0.74226 0.31607 0.0
C300 C 0.67199 0.74242 0.53072 0.0
O301 O 0.66653 0.67488 0.52206 0.0
O302 O 0.60375 0.70842 0.4842 0.0
O303 O 0.60658 0.60671 0.43971 0.0
H304 H 0.52734 0.89374 0.49441 0.0
H305 H 0.70752 0.63023 0.40776 0.0
O306 O 0.67166 0.62625 0.33078 0.0
H307 H 0.67172 0.42377 0.50692 0.0
H308 H 0.65159 0.38225 0.29687 0.0
H309 H 0.57634 0.55505 0.36638 0.0
H310 H 0.63458 0.49017 0.45317 0.0
H311 H 0.67032 0.49213 0.33783 0.0
O312 O 0.65892 0.78973 0.50343 0.0
H313 H 0.56063 0.79977 0.45803 0.0
H314 H 0.6426 0.91843 0.49361 0.0
H315 H 0.55657 0.44567 0.32624 0.0
H316 H 0.74554 0.56478 0.46051 0.0
H317 H 0.59433 0.35833 0.29105 0.0
H318 H 0.72766 0.4609 0.51069 0.0
O319 O 0.60854 0.67009 0.34402 0.0
H320 H 0.72886 0.88252 0.3757 0.0
H321 H 0.61348 0.90166 0.37839 0.0
H322 H 0.64431 0.98472 0.326 0.0
H323 H 0.70247 0.97536 0.32444 0.0
H324 H 0.69718 0.80148 0.42824 0.0
H325 H 0.61022 0.01341 0.53078 0.0
H326 H 0.55213 0.0015 0.53115 0.0
O327 O 0.59881 0.77033 0.38743 0.0
C328 C 0.5952 0.6445 0.47538 0.0
C329 C 0.55262 0.89964 0.49434 0.0
C330 C 0.59913 0.96676 0.51482 0.0
N331 N 0.60351 0.85382 0.4734 0.0
C332 C 0.57158 0.8467 0.47367 0.0
C333 C 0.61735 0.91272 0.49384 0.0
C334 C 0.56655 0.96006 0.51499 0.0
C335 C 0.69963 0.58465 0.42911 0.0
N336 N 0.66892 0.56378 0.42715 0.0
C337 C 0.72124 0.548 0.45908 0.0
C338 C 0.71118 0.48976 0.48727 0.0
C339 C 0.6798 0.46892 0.48519 0.0
C340 C 0.65886 0.50683 0.45479 0.0
C341 C 0.63491 0.41984 0.31211 0.0
C342 C 0.59291 0.51716 0.35146 0.0
C343 C 0.64537 0.48223 0.33523 0.0
N344 N 0.62444 0.52983 0.35469 0.0
C345 C 0.58158 0.45536 0.32864 0.0
C346 C 0.60278 0.40644 0.30887 0.0
C347 C 0.5934 0.72763 0.35097 0.0
C348 C 0.70358 0.88766 0.3765 0.0
C349 C 0.63876 0.89749 0.37804 0.0
C350 C 0.65611 0.9447 0.34836 0.0
C351 C 0.68874 0.93949 0.34754 0.0
N352 N 0.6535 0.84689 0.40643 0.0
C353 C 0.6855 0.8419 0.40618 0.0
Co354 Co 0.36013 0.62608 0.09424 0.0
Co355 Co 0.37582 0.78708 0.03663 0.0
O356 O 0.34707 0.71424 0.06151 0.0
C357 C 0.31737 0.69232 0.16892 0.0
O358 O 0.3324 0.75226 0.16123 0.0
C359 C 0.33733 0.75062 0.94634 0.0
O360 O 0.34207 0.68335 0.9568 0.0
O361 O 0.40208 0.71513 1.00136 0.0
O362 O 0.39535 0.61426 0.04541 0.0
H363 H 0.4815 0.89505 1.0012 0.0
H364 H 0.29364 0.6437 0.06309 0.0
O365 O 0.3253 0.63659 0.14477 0.0
H366 H 0.33215 0.43689 0.96731 0.0
H367 H 0.34054 0.39141 0.17983 0.0
H368 H 0.42118 0.56063 0.12169 0.0
H369 H 0.36689 0.49966 0.02726 0.0
H370 H 0.32531 0.50266 0.13723 0.0
O371 O 0.34932 0.79869 0.97432 0.0
H372 H 0.44505 0.80376 0.03335 0.0
H373 H 0.36702 0.92649 0.98513 0.0
H374 H 0.43749 0.44993 0.16374 0.0
H375 H 0.25799 0.58192 0.00401 0.0
H376 H 0.397 0.36435 0.1932 0.0
H377 H 0.27726 0.47795 0.95547 0.0
O378 O 0.38941 0.67767 0.14036 0.0
H379 H 0.27507 0.90617 0.0857 0.0
H380 H 0.39006 0.9076 0.10599 0.0
H381 H 0.35823 0.99527 0.15233 0.0
H382 H 0.30032 0.99483 0.14249 0.0
H383 H 0.30768 0.818 0.04163 0.0
H384 H 0.40262 0.01885 0.95208 0.0
H385 H 0.46031 0.00354 0.9602 0.0
O386 O 0.40285 0.77705 0.09817 0.0
C387 C 0.40917 0.65091 0.01153 0.0
C388 C 0.4564 0.90244 0.99757 0.0
C389 C 0.41214 0.97187 0.96994 0.0
N390 N 0.40395 0.86001 0.01142 0.0
C391 C 0.43565 0.85102 0.01583 0.0
C392 C 0.39209 0.91932 0.98861 0.0
C393 C 0.4445 0.96326 0.97452 0.0
C394 C 0.30208 0.59796 0.04255 0.0
N395 N 0.33225 0.57507 0.04885 0.0
C396 C 0.28183 0.56341 0.00897 0.0
C397 C 0.29267 0.50511 0.9817 0.0
C398 C 0.32347 0.48208 0.98831 0.0
C399 C 0.34305 0.51794 0.02223 0.0
C400 C 0.3584 0.42826 0.16717 0.0
C401 C 0.40343 0.52365 0.13425 0.0
C402 C 0.34991 0.49144 0.14316 0.0
N403 N 0.37234 0.53811 0.12694 0.0
C404 C 0.41281 0.46104 0.1581 0.0
C405 C 0.39008 0.41309 0.17464 0.0
C406 C 0.4057 0.73422 0.13532 0.0
C407 C 0.30025 0.90662 0.09076 0.0
C408 C 0.36483 0.9066 0.10197 0.0
C409 C 0.34694 0.95662 0.12806 0.0
C410 C 0.31442 0.95642 0.12242 0.0
N411 N 0.35073 0.85759 0.07131 0.0
C412 C 0.31887 0.85711 0.06555 0.0
Co413 Co 0.14345 0.87389 0.5919 0.0
Co414 Co 0.12689 0.71208 0.5358 0.0
O415 O 0.156 0.78484 0.55989 0.0
C416 C 0.18606 0.8074 0.66712 0.0
O417 O 0.17106 0.74747 0.65926 0.0
C418 C 0.16472 0.7483 0.44518 0.0
O419 O 0.16021 0.81552 0.45601 0.0
O420 O 0.1004 0.78391 0.50079 0.0
O421 O 0.10824 0.88608 0.54281 0.0
H422 H 0.02074 0.60467 0.50287 0.0
H423 H 0.20982 0.85397 0.56108 0.0
O424 O 0.17824 0.86312 0.64277 0.0
H425 H 0.1724 0.06051 0.46369 0.0
H426 H 0.16443 0.10926 0.67567 0.0
H427 H 0.0828 0.94149 0.61873 0.0
H428 H 0.13736 0.99956 0.524 0.0
H429 H 0.17899 0.99691 0.63403 0.0
O430 O 0.15276 0.7001 0.47303 0.0
H431 H 0.05762 0.6958 0.53411 0.0
H432 H 0.135 0.57244 0.48435 0.0
H433 H 0.06715 0.05334 0.6598 0.0
H434 H 0.24577 0.91386 0.50161 0.0
H435 H 0.10814 0.1382 0.68865 0.0
H436 H 0.22705 0.01773 0.45228 0.0
O437 O 0.11394 0.82373 0.63827 0.0
H438 H 0.22773 0.59109 0.58246 0.0
H439 H 0.11303 0.59244 0.60598 0.0
H440 H 0.14502 0.5043 0.65167 0.0
H441 H 0.20279 0.50327 0.64019 0.0
H442 H 0.19501 0.68002 0.53925 0.0
H443 H 0.09895 0.48023 0.4522 0.0
H444 H 0.04137 0.49594 0.46154 0.0
O445 O 0.1006 0.72264 0.5979 0.0
C446 C 0.09388 0.84876 0.50982 0.0
C447 C 0.04578 0.5971 0.49871 0.0
C448 C 0.08967 0.52732 0.47021 0.0
N449 N 0.09842 0.63922 0.51137 0.0
C450 C 0.06678 0.64843 0.51646 0.0
C451 C 0.10997 0.57978 0.48838 0.0
C452 C 0.05737 0.53615 0.47548 0.0
C453 C 0.20163 0.89964 0.54018 0.0
N454 N 0.1716 0.92348 0.54624 0.0
C455 C 0.22204 0.93314 0.50639 0.0
C456 C 0.21151 0.99136 0.47866 0.0
C457 C 0.18084 0.01537 0.48504 0.0
C458 C 0.16109 0.98054 0.51917 0.0
C459 C 0.14635 0.07273 0.66328 0.0
C460 C 0.10075 0.97813 0.63105 0.0
C461 C 0.15446 0.00893 0.63982 0.0
N462 N 0.13175 0.96266 0.62391 0.0
C463 C 0.09176 0.04141 0.65434 0.0
C464 C 0.11477 0.08895 0.67053 0.0
C465 C 0.09794 0.76659 0.63438 0.0
C466 C 0.20263 0.59134 0.5883 0.0
C467 C 0.13821 0.5929 0.60129 0.0
C468 C 0.15619 0.54259 0.62701 0.0
C469 C 0.18862 0.54199 0.62046 0.0
N470 N 0.15216 0.64148 0.57015 0.0
C471 C 0.18394 0.64125 0.56354 0.0
H472 H 0.28376 0.31855 0.79198 0.0
H473 H 0.30707 0.10311 0.74758 0.0
H474 H 0.27268 0.0567 0.81514 0.0
H475 H 0.28222 0.28824 0.92492 0.0
H476 H 0.24952 0.34661 0.93634 0.0
H477 H 0.27536 0.36288 0.88374 0.0
H478 H 0.22796 0.36036 0.82227 0.0
H479 H 0.20192 0.34456 0.8747 0.0
H480 H 0.20219 0.28433 0.82174 0.0
H481 H 0.23705 0.0339 0.89048 0.0
H482 H 0.2008 0.03716 0.96362 0.0
H483 H 0.2004 0.2674 0.95674 0.0
C484 C 0.2815 0.26158 0.79613 0.0
C485 C 0.2982 0.21454 0.7644 0.0
C486 C 0.29454 0.14032 0.77131 0.0
C487 C 0.27509 0.11338 0.80969 0.0
C488 C 0.25932 0.16128 0.84075 0.0
C489 C 0.26214 0.23381 0.83407 0.0
C490 C 0.24273 0.27406 0.87246 0.0
C491 C 0.26371 0.32067 0.90636 0.0
C492 C 0.21718 0.31843 0.84622 0.0
C493 C 0.22861 0.21287 0.90188 0.0
C494 C 0.23855 0.1482 0.88328 0.0
C495 C 0.22897 0.08428 0.90514 0.0
C496 C 0.20845 0.08662 0.94675 0.0
C497 C 0.19757 0.15241 0.96579 0.0
C498 C 0.20802 0.21613 0.94294 0.0
H499 H 0.2184 0.18495 0.29318 0.0
H500 H 0.19442 0.40097 0.25107 0.0
H501 H 0.22974 0.44643 0.31787 0.0
H502 H 0.222 0.21333 0.42645 0.0
H503 H 0.25486 0.15474 0.43612 0.0
H504 H 0.22815 0.13933 0.38443 0.0
H505 H 0.27455 0.14271 0.32122 0.0
H506 H 0.30145 0.15784 0.37273 0.0
H507 H 0.30029 0.21878 0.32022 0.0
H508 H 0.26641 0.46815 0.3921 0.0
H509 H 0.30359 0.46401 0.46409 0.0
H510 H 0.30423 0.23389 0.45552 0.0
C511 C 0.22065 0.24187 0.29773 0.0
C512 C 0.20352 0.28935 0.26683 0.0
C513 C 0.20725 0.36345 0.27418 0.0
C514 C 0.22724 0.38983 0.31213 0.0
C515 C 0.24347 0.3415 0.34228 0.0
C516 C 0.24056 0.26908 0.33522 0.0
C517 C 0.26061 0.2283 0.37257 0.0
C518 C 0.24018 0.18117 0.40691 0.0
C519 C 0.28571 0.18433 0.34503 0.0
C520 C 0.2752 0.28907 0.40188 0.0
C521 C 0.26493 0.35398 0.3841 0.0
C522 C 0.27477 0.4176 0.40609 0.0
C523 C 0.29583 0.41474 0.44704 0.0
C524 C 0.30702 0.34875 0.46529 0.0
C525 C 0.29639 0.2853 0.44225 0.0
H526 H 0.7656 0.19444 0.26207 0.0
H527 H 0.80743 0.40347 0.27861 0.0
H528 H 0.77405 0.44792 0.20909 0.0
H529 H 0.76212 0.19417 0.13008 0.0
H530 H 0.72513 0.14793 0.12615 0.0
H531 H 0.7504 0.13433 0.17983 0.0
H532 H 0.70531 0.17059 0.24027 0.0
H533 H 0.67979 0.1839 0.18674 0.0
H534 H 0.68597 0.25475 0.23149 0.0
H535 H 0.73865 0.46678 0.13261 0.0
H536 H 0.7031 0.45902 0.05876 0.0
H537 H 0.68451 0.23793 0.09447 0.0
C538 C 0.76737 0.24996 0.2518 0.0
C539 C 0.7891 0.29551 0.27588 0.0
C540 C 0.79079 0.36766 0.26097 0.0
C541 C 0.77189 0.39346 0.2215 0.0
C542 C 0.75114 0.3467 0.19787 0.0
C543 C 0.74859 0.27662 0.21286 0.0
C544 C 0.72554 0.23625 0.18015 0.0
C545 C 0.74178 0.17456 0.15242 0.0
C546 C 0.69749 0.20984 0.21154 0.0
C547 C 0.71586 0.29419 0.14381 0.0
C548 C 0.73076 0.35763 0.15455 0.0
C549 C 0.72646 0.41769 0.12446 0.0
C550 C 0.70629 0.41273 0.08249 0.0
C551 C 0.6908 0.34808 0.071 0.0
C552 C 0.69568 0.28841 0.10241 0.0
H553 H 0.73268 0.3128 0.75467 0.0
H554 H 0.70064 0.09764 0.7834 0.0
H555 H 0.73609 0.05361 0.71649 0.0
H556 H 0.73636 0.29896 0.62272 0.0
H557 H 0.77101 0.3532 0.6162 0.0
H558 H 0.74498 0.36673 0.66885 0.0
H559 H 0.79125 0.34857 0.73128 0.0
H560 H 0.8175 0.33534 0.67878 0.0
H561 H 0.81445 0.26881 0.72753 0.0
H562 H 0.77221 0.03481 0.64125 0.0
H563 H 0.80747 0.04253 0.56718 0.0
H564 H 0.81592 0.26998 0.59008 0.0
C565 C 0.73339 0.25622 0.74751 0.0
C566 C 0.71386 0.20865 0.77428 0.0
C567 C 0.71546 0.13508 0.76349 0.0
C568 C 0.73553 0.10956 0.72554 0.0
C569 C 0.75401 0.15821 0.69917 0.0
C570 C 0.75329 0.22994 0.71006 0.0
C571 C 0.77448 0.27176 0.67518 0.0
C572 C 0.75557 0.32582 0.64389 0.0
C573 C 0.801 0.30825 0.70498 0.0
C574 C 0.78696 0.21251 0.64238 0.0
C575 C 0.77495 0.14734 0.65669 0.0
C576 C 0.78209 0.08542 0.63022 0.0
C577 C 0.80206 0.09036 0.58812 0.0
C578 C 0.81468 0.15672 0.57309 0.0
C579 C 0.80703 0.21828 0.60092 0.0
H580 H 0.79583 0.83432 0.09412 0.0
H581 H 0.8198 0.61508 0.0612 0.0
H582 H 0.78389 0.57493 0.12819 0.0
H583 H 0.78939 0.81373 0.23014 0.0
H584 H 0.75645 0.87312 0.23573 0.0
H585 H 0.78452 0.88523 0.18555 0.0
H586 H 0.73966 0.87901 0.11952 0.0
H587 H 0.71149 0.86661 0.16951 0.0
H588 H 0.7139 0.80297 0.11877 0.0
H589 H 0.74578 0.55771 0.1986 0.0
H590 H 0.70646 0.5639 0.26663 0.0
H591 H 0.70583 0.79385 0.25421 0.0
C592 C 0.79361 0.7779 0.1011 0.0
C593 C 0.81082 0.72797 0.07229 0.0
C594 C 0.80701 0.65455 0.08259 0.0
C595 C 0.78665 0.63107 0.1207 0.0
C596 C 0.7701 0.6815 0.14833 0.0
C597 C 0.77323 0.75336 0.13907 0.0
C598 C 0.75221 0.79611 0.17401 0.0
C599 C 0.77182 0.84492 0.20841 0.0
C600 C 0.72787 0.83867 0.14363 0.0
C601 C 0.73676 0.73692 0.20409 0.0
C602 C 0.74761 0.67134 0.18876 0.0
C603 C 0.73706 0.60864 0.21091 0.0
C604 C 0.71471 0.61279 0.24965 0.0
C605 C 0.7029 0.67929 0.26578 0.0
C606 C 0.71423 0.74214 0.24261 0.0
H607 H 0.70871 0.6585 0.59319 0.0
H608 H 0.68401 0.87789 0.56207 0.0
H609 H 0.71948 0.91744 0.62993 0.0
H610 H 0.71476 0.67659 0.72965 0.0
H611 H 0.748 0.61802 0.73507 0.0
H612 H 0.72009 0.60591 0.68455 0.0
H613 H 0.7649 0.61448 0.61883 0.0
H614 H 0.79298 0.62657 0.66909 0.0
H615 H 0.79034 0.69108 0.61893 0.0
H616 H 0.75731 0.93422 0.70065 0.0
H617 H 0.79683 0.92776 0.76858 0.0
H618 H 0.79846 0.69803 0.75425 0.0
C619 C 0.71065 0.71481 0.60081 0.0
C620 C 0.69339 0.76497 0.5722 0.0
C621 C 0.69685 0.83825 0.58328 0.0
C622 C 0.71694 0.86138 0.62191 0.0
C623 C 0.73357 0.81076 0.6493 0.0
C624 C 0.73077 0.73902 0.63931 0.0
C625 C 0.75195 0.6961 0.674 0.0
C626 C 0.73254 0.64622 0.70783 0.0
C627 C 0.7765 0.65463 0.64337 0.0
C628 C 0.76712 0.75509 0.70471 0.0
C629 C 0.75597 0.82069 0.68994 0.0
C630 C 0.76628 0.88327 0.71259 0.0
C631 C 0.78873 0.87895 0.75124 0.0
C632 C 0.80089 0.81245 0.76679 0.0
C633 C 0.78976 0.74973 0.74315 0.0
H634 H 0.30205 0.66442 0.88349 0.0
H635 H 0.32725 0.88474 0.91063 0.0
H636 H 0.29325 0.9216 0.84007 0.0
H637 H 0.29767 0.6769 0.74518 0.0
H638 H 0.26436 0.61812 0.74081 0.0
H639 H 0.29215 0.60807 0.79171 0.0
H640 H 0.24699 0.61921 0.85679 0.0
H641 H 0.21915 0.62945 0.80604 0.0
H642 H 0.22174 0.69587 0.85494 0.0
H643 H 0.25584 0.93578 0.76839 0.0
H644 H 0.21573 0.92678 0.70157 0.0
H645 H 0.2134 0.69777 0.7207 0.0
C646 C 0.30067 0.72033 0.87425 0.0
C647 C 0.31749 0.77161 0.90263 0.0
C648 C 0.31471 0.84434 0.88957 0.0
C649 C 0.29549 0.86589 0.84939 0.0
C650 C 0.27915 0.8142 0.82241 0.0
C651 C 0.28147 0.74291 0.83417 0.0
C652 C 0.26036 0.69867 0.80017 0.0
C653 C 0.2798 0.64743 0.76755 0.0
C654 C 0.23559 0.65845 0.83136 0.0
C655 C 0.24548 0.75647 0.76812 0.0
C656 C 0.25697 0.82256 0.78132 0.0
C657 C 0.2467 0.88432 0.7576 0.0
C658 C 0.22388 0.87859 0.7196 0.0
C659 C 0.21127 0.81162 0.70583 0.0
C660 C 0.22247 0.74977 0.73036 0.0
H661 H 0.29054 0.80171 0.22319 0.0
H662 H 0.28658 0.5733 0.20119 0.0
H663 H 0.24584 0.5643 0.26681 0.0
H664 H 0.28139 0.80018 0.35679 0.0
H665 H 0.25691 0.87804 0.35924 0.0
H666 H 0.28486 0.86768 0.30877 0.0
H667 H 0.2404 0.88276 0.24292 0.0
H668 H 0.2122 0.89309 0.29308 0.0
H669 H 0.20646 0.82562 0.24563 0.0
H670 H 0.20788 0.57822 0.33753 0.0
H671 H 0.1737 0.61472 0.40783 0.0
H672 H 0.20097 0.83457 0.38415 0.0
C673 C 0.28097 0.74986 0.23196 0.0
C674 C 0.29188 0.68817 0.207 0.0
C675 C 0.27866 0.62137 0.21961 0.0
C676 C 0.25546 0.61564 0.25689 0.0
C677 C 0.24546 0.67723 0.28105 0.0
C678 C 0.25758 0.74318 0.26899 0.0
C679 C 0.24296 0.80073 0.30151 0.0
C680 C 0.26803 0.83888 0.33347 0.0
C681 C 0.2244 0.85366 0.26884 0.0
C682 C 0.22124 0.75648 0.33434 0.0
C683 C 0.22303 0.68544 0.32167 0.0
C684 C 0.20605 0.63376 0.34754 0.0
C685 C 0.18673 0.65509 0.38756 0.0
C686 C 0.18449 0.72758 0.4015 0.0
C687 C 0.20191 0.77886 0.37418 0.0
H688 H 0.0765 0.25671 0.2706 0.0
H689 H 0.04646 0.32689 0.12175 0.0
H690 H 0.99381 0.35162 0.15531 0.0
H691 H 0.01201 0.1639 0.29969 0.0
H692 H 0.00993 0.1866 0.36581 0.0
H693 H 0.04703 0.18878 0.33372 0.0
H694 H 0.05523 0.31997 0.35976 0.0
H695 H 0.01827 0.31814 0.3929 0.0
H696 H 0.02542 0.38466 0.34526 0.0
H697 H 0.9422 0.34146 0.19916 0.0
H698 H 0.89691 0.31067 0.25378 0.0
H699 H 0.96089 0.25576 0.37497 0.0
C700 C 0.05925 0.27981 0.24543 0.0
C701 C 0.06566 0.28937 0.19347 0.0
C702 C 0.04221 0.31888 0.16171 0.0
C703 C 0.01217 0.33332 0.18043 0.0
C704 C 0.00613 0.31961 0.23122 0.0
C705 C 0.02923 0.29518 0.26363 0.0
C706 C 0.01597 0.27813 0.31529 0.0
C707 C 0.02155 0.19973 0.32939 0.0
C708 C 0.02953 0.32824 0.35568 0.0
C709 C 0.98157 0.29305 0.30594 0.0
C710 C 0.97632 0.31734 0.25735 0.0
C711 C 0.94603 0.32509 0.23791 0.0
C712 C 0.9205 0.30723 0.26892 0.0
C713 C 0.92558 0.28297 0.31881 0.0
C714 C 0.95642 0.27714 0.33768 0.0
H715 H 0.46813 0.27109 0.64861 0.0
H716 H 0.40986 0.1579 0.75581 0.0
H717 H 0.45729 0.12343 0.80422 0.0
H718 H 0.54081 0.15746 0.65749 0.0
H719 H 0.566 0.23439 0.65516 0.0
H720 H 0.52889 0.23481 0.62226 0.0
H721 H 0.5129 0.34914 0.67004 0.0
H722 H 0.54975 0.34908 0.70306 0.0
H723 H 0.51354 0.34976 0.73822 0.0
H724 H 0.50912 0.11533 0.84638 0.0
H725 H 0.55988 0.14476 0.88521 0.0
H726 H 0.5843 0.27142 0.75362 0.0
C727 C 0.46567 0.23644 0.68109 0.0
C728 C 0.43576 0.21501 0.698 0.0
C729 C 0.43284 0.17322 0.74204 0.0
C730 C 0.4596 0.15326 0.76944 0.0
C731 C 0.48888 0.17661 0.75252 0.0
C732 C 0.49204 0.21787 0.70954 0.0
C733 C 0.52512 0.24661 0.70437 0.0
C734 C 0.54115 0.21649 0.65701 0.0
C735 C 0.52531 0.32845 0.70394 0.0
C736 C 0.53978 0.21736 0.75219 0.0
C737 C 0.51874 0.1754 0.77855 0.0
C738 C 0.52595 0.1472 0.82578 0.0
C739 C 0.55492 0.16445 0.84756 0.0
C740 C 0.57617 0.2107 0.82257 0.0
C741 C 0.56884 0.23525 0.77345 0.0
H742 H 0.05659 0.86194 0.67392 0.0
H743 H 0.08219 0.63943 0.67701 0.0
H744 H 0.03706 0.61433 0.73314 0.0
H745 H 0.02763 0.87678 0.80275 0.0
H746 H 0.99564 0.93421 0.78516 0.0
H747 H 0.03143 0.935 0.74897 0.0
H748 H 0.99962 0.90863 0.66753 0.0
H749 H 0.96377 0.90691 0.70355 0.0
H750 H 0.97447 0.83163 0.66524 0.0
H751 H 0.98929 0.61428 0.7894 0.0
H752 H 0.94144 0.63804 0.83911 0.0
H753 H 0.9444 0.85871 0.79205 0.0
C754 C 0.05308 0.80826 0.68727 0.0
C755 C 0.07311 0.75271 0.6719 0.0
C756 C 0.06719 0.68269 0.68877 0.0
C757 C 0.04164 0.66802 0.72057 0.0
C758 C 0.02195 0.72381 0.73427 0.0
C759 C 0.02727 0.79249 0.71794 0.0
C760 C 1.00154 0.84209 0.73552 0.0
C761 C 0.01487 0.90045 0.77017 0.0
C762 C 0.98381 0.87418 0.69026 0.0
C763 C 0.98105 0.79066 0.76466 0.0
C764 C 0.99339 0.72288 0.76392 0.0
C765 C 0.97926 0.66701 0.7899 0.0
C766 C 0.95203 0.681 0.81794 0.0
C767 C 0.93891 0.75005 0.81912 0.0
C768 C 0.95351 0.80516 0.79144 0.0
H769 H 0.44184 0.63685 0.18553 0.0
H770 H 0.4284 0.8633 0.16576 0.0
H771 H 0.47491 0.8866 0.21919 0.0
H772 H 0.47147 0.64038 0.31488 0.0
H773 H 0.49992 0.5716 0.30332 0.0
H774 H 0.46383 0.57334 0.26777 0.0
H775 H 0.49559 0.57396 0.18429 0.0
H776 H 0.53178 0.57305 0.21955 0.0
H777 H 0.52459 0.64219 0.17388 0.0
H778 H 0.52309 0.8849 0.27469 0.0
H779 H 0.57032 0.85838 0.32557 0.0
H780 H 0.55516 0.6331 0.30158 0.0
C781 C 0.44828 0.69133 0.1932 0.0
C782 C 0.43122 0.74833 0.17198 0.0
C783 C 0.44096 0.81888 0.18193 0.0
C784 C 0.46737 0.8326 0.21218 0.0
C785 C 0.48411 0.77514 0.23148 0.0
C786 C 0.47503 0.70588 0.22222 0.0
C787 C 0.49822 0.65364 0.24463 0.0
C788 C 0.48241 0.60701 0.28505 0.0
C789 C 0.51344 0.60805 0.20311 0.0
C790 C 0.52172 0.7044 0.26806 0.0
C791 C 0.51295 0.7742 0.2606 0.0
C792 C 0.53031 0.83045 0.28045 0.0
C793 C 0.55713 0.81491 0.30923 0.0
C794 C 0.56667 0.74376 0.31709 0.0
C795 C 0.54883 0.68803 0.2956 0.0
H796 H 0.05891 0.10414 0.01483 0.0
H797 H 0.08131 0.98051 0.14871 0.0
H798 H 0.03492 0.9052 0.13342 0.0
H799 H 0.97654 0.10542 0.03375 0.0
H800 H 0.96666 0.09836 0.96763 0.0
H801 H 0.00301 0.13961 0.98648 0.0
H802 H 0.03412 0.0519 0.93024 0.0
H803 H 0.99782 0.01099 0.91072 0.0
H804 H 0.02846 0.95772 0.93835 0.0
H805 H 0.9851 0.84453 0.10481 0.0
H806 H 0.93671 0.80136 0.06332 0.0
H807 H 0.94527 0.96856 0.95102 0.0
C808 C 0.05442 0.06055 0.04051 0.0
C809 C 0.07405 0.04826 0.08286 0.0
C810 C 0.06687 0.99105 0.11584 0.0
C811 C 0.04045 0.94797 0.10759 0.0
C812 C 0.02119 0.96277 0.06634 0.0
C813 C 0.0279 0.01745 0.03318 0.0
C814 C 0.00277 0.02358 0.99273 0.0
C815 C 0.98627 0.09604 0.99533 0.0
C816 C 0.01662 0.01023 0.93989 0.0
C817 C 0.98089 0.96394 0.00845 0.0
C818 C 0.99199 0.92928 0.05083 0.0
C819 C 0.97614 0.8714 0.07163 0.0
C820 C 0.94856 0.84741 0.04789 0.0
C821 C 0.93689 0.88158 0.00397 0.0
C822 C 0.95321 0.94137 0.98472 0.0
H823 H 0.5602 0.52563 0.45367 0.0
H824 H 0.56857 0.69748 0.56233 0.0
H825 H 0.52035 0.65541 0.60483 0.0
H826 H 0.4779 0.53619 0.43956 0.0
H827 H 0.47206 0.44182 0.43323 0.0
H828 H 0.50867 0.48136 0.414 0.0
H829 H 0.53916 0.39653 0.47351 0.0
H830 H 0.50266 0.35604 0.49232 0.0
H831 H 0.52873 0.39213 0.53952 0.0
H832 H 0.47037 0.59526 0.63452 0.0
H833 H 0.42333 0.52158 0.64957 0.0
H834 H 0.44599 0.39484 0.51743 0.0
C835 C 0.55228 0.55404 0.48683 0.0
C836 C 0.56845 0.61483 0.50472 0.0
C837 C 0.55681 0.65062 0.54796 0.0
C838 C 0.52935 0.62721 0.5723 0.0
C839 C 0.5136 0.5683 0.55274 0.0
C840 C 0.52471 0.53213 0.51103 0.0
C841 C 0.50278 0.4722 0.49613 0.0
C842 C 0.48957 0.48361 0.44256 0.0
C843 C 0.51933 0.39996 0.50066 0.0
C844 C 0.47748 0.48037 0.5359 0.0
C845 C 0.48427 0.53569 0.56846 0.0
C846 C 0.46478 0.55202 0.60911 0.0
C847 C 0.438 0.50995 0.61721 0.0
C848 C 0.43066 0.45253 0.58452 0.0
C849 C 0.45058 0.43862 0.5429 0.0
H850 H 0.43809 0.52516 0.03507 0.0
H851 H 0.44513 0.70753 0.93508 0.0
H852 H 0.49646 0.66406 0.90493 0.0
H853 H 0.51747 0.52586 0.07299 0.0
H854 H 0.52093 0.43061 0.07612 0.0
H855 H 0.48346 0.47218 0.08661 0.0
H856 H 0.45857 0.3962 0.01535 0.0
H857 H 0.49581 0.35346 0.00513 0.0
H858 H 0.47601 0.39651 0.95326 0.0
H859 H 0.54796 0.60322 0.8884 0.0
H860 H 0.59437 0.52592 0.88256 0.0
H861 H 0.55459 0.3869 0.99698 0.0
C862 C 0.45006 0.55567 0.00626 0.0
C863 C 0.43741 0.6199 0.98745 0.0
C864 C 0.45417 0.65805 0.94996 0.0
C865 C 0.48344 0.63398 0.93278 0.0
C866 C 0.49568 0.57195 0.95366 0.0
C867 C 0.47941 0.53305 0.9893 0.0
C868 C 0.4982 0.46962 0.00718 0.0
C869 C 0.50544 0.47493 0.06409 0.0
C870 C 0.48113 0.39982 0.99445 0.0
C871 C 0.52762 0.47867 0.9758 0.0
C872 C 0.52568 0.53801 0.9452 0.0
C873 C 0.54974 0.55665 0.91218 0.0
C874 C 0.5761 0.51244 0.90933 0.0
C875 C 0.57831 0.45031 0.93948 0.0
C876 C 0.5539 0.43427 0.97382 0.0
H877 H 0.06572 0.97605 0.53143 0.0
H878 H 0.05737 0.79092 0.43435 0.0
H879 H 0.00611 0.83465 0.40388 0.0
H880 H 0.98723 0.97819 0.5706 0.0
H881 H 0.98392 0.07354 0.57213 0.0
H882 H 0.02146 0.03215 0.58225 0.0
H883 H 0.04545 0.10555 0.50888 0.0
H884 H 0.0081 0.14801 0.49888 0.0
H885 H 0.02723 0.10301 0.44732 0.0
H886 H 0.95442 0.89606 0.38719 0.0
H887 H 0.90774 0.97314 0.38237 0.0
H888 H 0.94901 0.11331 0.49478 0.0
C889 C 0.05351 0.94506 0.5031 0.0
C890 C 0.06575 0.87993 0.4853 0.0
C891 C 0.04865 0.84111 0.44846 0.0
C892 C 0.01942 0.86537 0.43106 0.0
C893 C 0.00756 0.92834 0.45099 0.0
C894 C 0.0242 0.9679 0.48591 0.0
C895 C 0.0057 0.03197 0.50324 0.0
C896 C 0.9992 0.02872 0.56044 0.0
C897 C 0.02262 0.10123 0.4887 0.0
C898 C 0.97588 0.02203 0.47289 0.0
C899 C 0.97747 0.96225 0.44273 0.0
C900 C 0.95293 0.94299 0.41065 0.0
C901 C 0.92642 0.98698 0.4084 0.0
C902 C 0.92451 0.04925 0.43839 0.0
C903 C 0.94945 0.0659 0.47168 0.0
loop_
_geom_bond_atom_site_label_1
_geom_bond_atom_site_label_2
_geom_bond_distance
_geom_bond_site_symmetry_2
_ccdc_geom_bond_type
Co0 O2 2.143 . S
Co0 O8 2.074 . S
Co0 O11 2.093 1_554 S
Co0 O24 2.097 . S
Co0 N41 2.151 . S
Co0 N49 2.214 . S
Co1 O2 2.160 . S
Co1 O7 2.058 . S
Co1 O17 2.057 . S
Co1 O32 2.037 . S
Co1 N36 2.145 . S
Co1 N57 2.257 . S
O2 Co0 2.143 . S
O2 Co1 2.160 . S
C3 O4 1.278 1_556 S
C3 O11 1.224 . S
O4 C3 1.278 1_554 S
C5 O6 1.245 . S
C5 O17 1.232 . S
O6 C5 1.245 . S
O7 Co1 2.058 . S
O7 C33 1.269 . S
O8 Co0 2.074 . S
O8 C33 1.257 . S
H9 C34 0.930 1_565 S
H10 C40 0.930 . S
O11 Co0 2.093 1_556 S
O11 C3 1.224 . S
H12 C44 0.929 . S
H13 C46 0.930 . S
H14 C47 0.930 . S
H15 C45 0.929 . S
H16 C48 0.928 . S
O17 Co1 2.057 . S
O17 C5 1.232 . S
H18 C37 0.929 . S
H19 C38 0.929 . S
H20 C50 0.946 . S
H21 C42 0.929 . S
H22 C51 0.930 . S
H23 C43 0.931 . S
O24 Co0 2.097 . S
O24 C52 1.214 . S
H25 C53 0.929 . S
H26 C54 0.929 . S
H27 C55 0.930 . S
H28 C56 0.930 . S
H29 C58 0.930 . S
H30 C35 0.930 . S
H31 C39 0.930 . S
O32 Co1 2.037 . S
O32 C52 1.234 . S
C33 O7 1.269 . S
C33 O8 1.257 . S
C34 H9 0.930 1_545 S
C34 C37 1.388 . S
C34 C39 1.418 1_545 S
C35 H30 0.930 . S
C35 C38 1.404 . S
C35 C39 1.353 1_545 S
N36 Co1 2.145 . S
N36 C37 1.397 . S
N36 C38 1.334 . S
C37 H18 0.929 . S
C37 C34 1.388 . S
C37 N36 1.397 . S
C38 H19 0.929 . S
C38 C35 1.404 . S
C38 N36 1.334 . S
C39 H31 0.930 . S
C39 C34 1.418 1_565 S
C39 C35 1.353 1_565 S
C40 H10 0.930 . S
C40 N41 1.330 . S
C40 C42 1.446 . S
N41 Co0 2.151 . S
N41 C40 1.330 . S
N41 C45 1.418 . S
C42 H21 0.929 . S
C42 C40 1.446 . S
C42 C43 1.332 . S
C43 H23 0.931 . S
C43 C42 1.332 . S
C43 C44 1.267 . S
C44 H12 0.929 . S
C44 C43 1.267 . S
C44 C45 1.251 . S
C45 H15 0.929 . S
C45 N41 1.418 . S
C45 C44 1.251 . S
C46 H13 0.930 . S
C46 C48 1.406 . S
C46 C51 1.261 . S
C47 H14 0.930 . S
C47 N49 1.325 . S
C47 C50 1.357 1_554 S
C48 H16 0.928 . S
C48 C46 1.406 . S
C48 N49 1.261 1_556 S
N49 Co0 2.214 . S
N49 C47 1.325 . S
N49 C48 1.261 1_554 S
C50 H20 0.946 . S
C50 C47 1.357 1_556 S
C50 C51 1.312 . S
C51 H22 0.930 . S
C51 C46 1.261 . S
C51 C50 1.312 . S
C52 O24 1.214 . S
C52 O32 1.234 . S
C53 H25 0.929 . S
C53 C56 1.390 1_545 S
C53 C58 1.391 . S
C54 H26 0.929 . S
C54 C55 1.390 1_545 S
C54 N57 1.391 . S
C55 H27 0.930 . S
C55 C54 1.390 1_565 S
C55 C56 1.392 . S
C56 H28 0.930 . S
C56 C53 1.390 1_565 S
C56 C55 1.392 . S
N57 Co1 2.257 . S
N57 C54 1.391 . S
N57 C58 1.388 . S
C58 H29 0.930 . S
C58 C53 1.391 . S
C58 N57 1.388 . S
Co59 O61 2.143 . S
Co59 O67 2.074 . S
Co59 O70 2.093 . S
Co59 O83 2.097 . S
Co59 N100 2.151 . S
Co59 N108 2.214 . S
Co60 O61 2.160 . S
Co60 O66 2.058 . S
Co60 O76 2.057 . S
Co60 O91 2.037 . S
Co60 N95 2.145 . S
Co60 N116 2.257 . S
O61 Co59 2.143 . S
O61 Co60 2.160 . S
C62 O63 1.278 . S
C62 O70 1.224 . S
O63 C62 1.278 . S
C64 O65 1.245 . S
C64 O76 1.232 . S
O65 C64 1.245 . S
O66 Co60 2.058 . S
O66 C92 1.269 . S
O67 Co59 2.074 . S
O67 C92 1.257 . S
H68 C93 0.930 . S
H69 C99 0.930 . S
O70 Co59 2.093 . S
O70 C62 1.224 . S
H71 C103 0.929 . S
H72 C105 0.930 . S
H73 C106 0.930 . S
H74 C104 0.929 . S
H75 C107 0.928 . S
O76 Co60 2.057 . S
O76 C64 1.232 . S
H77 C96 0.929 . S
H78 C97 0.929 . S
H79 C109 0.931 . S
H80 C101 0.929 . S
H81 C110 0.930 . S
H82 C102 0.931 . S
O83 Co59 2.097 . S
O83 C111 1.214 . S
H84 C112 0.929 . S
H85 C113 0.929 . S
H86 C114 0.930 . S
H87 C115 0.929 . S
H88 C117 0.930 . S
H89 C94 0.930 . S
H90 C98 0.930 . S
O91 Co60 2.037 . S
O91 C111 1.234 . S
C92 O66 1.269 . S
C92 O67 1.257 . S
C93 H68 0.930 . S
C93 C96 1.388 . S
C93 C98 1.418 . S
C94 H89 0.930 . S
C94 C97 1.404 . S
C94 C98 1.353 . S
N95 Co60 2.145 . S
N95 C96 1.397 . S
N95 C97 1.334 . S
C96 H77 0.929 . S
C96 C93 1.388 . S
C96 N95 1.397 . S
C97 H78 0.929 . S
C97 C94 1.404 . S
C97 N95 1.334 . S
C98 H90 0.930 . S
C98 C93 1.418 . S
C98 C94 1.353 . S
C99 H69 0.930 . S
C99 N100 1.330 . S
C99 C101 1.446 1_545 S
N100 Co59 2.151 . S
N100 C99 1.330 . S
N100 C104 1.418 . S
C101 H80 0.929 . S
C101 C99 1.446 1_565 S
C101 C102 1.332 . S
C102 H82 0.931 . S
C102 C101 1.332 . S
C102 C103 1.267 . S
C103 H71 0.929 . S
C103 C102 1.267 . S
C103 C104 1.251 1_565 S
C104 H74 0.929 . S
C104 N100 1.418 . S
C104 C103 1.251 1_545 S
C105 H72 0.930 . S
C105 C107 1.406 . S
C105 C110 1.261 . S
C106 H73 0.930 . S
C106 N108 1.325 . S
C106 C109 1.357 . S
C107 H75 0.928 . S
C107 C105 1.406 . S
C107 N108 1.261 . S
N108 Co59 2.214 . S
N108 C106 1.325 . S
N108 C107 1.261 . S
C109 H79 0.931 . S
C109 C106 1.357 . S
C109 C110 1.312 . S
C110 H81 0.930 . S
C110 C105 1.261 . S
C110 C109 1.312 . S
C111 O83 1.214 . S
C111 O91 1.234 . S
C112 H84 0.929 . S
C112 C115 1.391 . S
C112 C117 1.391 . S
C113 H85 0.929 . S
C113 C114 1.390 . S
C113 N116 1.391 . S
C114 H86 0.930 . S
C114 C113 1.390 . S
C114 C115 1.392 . S
C115 H87 0.929 . S
C115 C112 1.391 . S
C115 C114 1.392 . S
N116 Co60 2.257 . S
N116 C113 1.391 . S
N116 C117 1.388 . S
C117 H88 0.930 . S
C117 C112 1.391 . S
C117 N116 1.388 . S
Co118 O120 2.143 . S
Co118 O126 2.074 . S
Co118 O129 2.093 1_556 S
Co118 O142 2.097 . S
Co118 N159 2.151 . S
Co118 N167 2.214 . S
Co119 O120 2.160 . S
Co119 O125 2.058 . S
Co119 O135 2.057 . S
Co119 O150 2.037 . S
Co119 N154 2.145 . S
Co119 N175 2.257 . S
O120 Co118 2.143 . S
O120 Co119 2.160 . S
C121 O122 1.278 1_554 S
C121 O129 1.224 . S
O122 C121 1.278 1_556 S
C123 O124 1.245 . S
C123 O135 1.232 . S
O124 C123 1.245 . S
O125 Co119 2.058 . S
O125 C151 1.269 . S
O126 Co118 2.074 . S
O126 C151 1.257 . S
H127 C152 0.930 . S
H128 C158 0.930 . S
O129 Co118 2.093 1_554 S
O129 C121 1.224 . S
H130 C162 0.929 . S
H131 C164 0.930 . S
H132 C165 0.930 . S
H133 C163 0.929 . S
H134 C166 0.928 . S
O135 Co119 2.057 . S
O135 C123 1.232 . S
H136 C155 0.929 . S
H137 C156 0.929 . S
H138 C168 0.931 . S
H139 C160 0.929 . S
H140 C169 0.930 . S
H141 C161 0.931 . S
O142 Co118 2.097 . S
O142 C170 1.214 . S
H143 C171 0.929 . S
H144 C172 0.929 . S
H145 C173 0.930 . S
H146 C174 0.929 . S
H147 C176 0.930 . S
H148 C153 0.930 . S
H149 C157 0.930 . S
O150 Co119 2.037 . S
O150 C170 1.234 . S
C151 O125 1.269 . S
C151 O126 1.257 . S
C152 H127 0.930 . S
C152 C155 1.388 . S
C152 C157 1.418 . S
C153 H148 0.930 . S
C153 C156 1.404 . S
C153 C157 1.353 . S
N154 Co119 2.145 . S
N154 C155 1.397 . S
N154 C156 1.334 . S
C155 H136 0.929 . S
C155 C152 1.388 . S
C155 N154 1.397 . S
C156 H137 0.929 . S
C156 C153 1.404 . S
C156 N154 1.334 . S
C157 H149 0.930 . S
C157 C152 1.418 . S
C157 C153 1.353 . S
C158 H128 0.930 . S
C158 N159 1.330 . S
C158 C160 1.446 1_545 S
N159 Co118 2.151 . S
N159 C158 1.330 . S
N159 C163 1.418 . S
C160 H139 0.929 . S
C160 C158 1.446 1_565 S
C160 C161 1.332 . S
C161 H141 0.931 . S
C161 C160 1.332 . S
C161 C162 1.267 . S
C162 H130 0.929 . S
C162 C161 1.267 . S
C162 C163 1.251 1_565 S
C163 H133 0.929 . S
C163 N159 1.418 . S
C163 C162 1.251 1_545 S
C164 H131 0.930 . S
C164 C166 1.406 . S
C164 C169 1.261 . S
C165 H132 0.930 . S
C165 N167 1.325 . S
C165 C168 1.357 1_556 S
C166 H134 0.928 . S
C166 C164 1.406 . S
C166 N167 1.261 1_554 S
N167 Co118 2.214 . S
N167 C165 1.325 . S
N167 C166 1.261 1_556 S
C168 H138 0.931 . S
C168 C165 1.357 1_554 S
C168 C169 1.312 . S
C169 H140 0.930 . S
C169 C164 1.261 . S
C169 C168 1.312 . S
C170 O142 1.214 . S
C170 O150 1.234 . S
C171 H143 0.929 . S
C171 C174 1.391 . S
C171 C176 1.391 . S
C172 H144 0.929 . S
C172 C173 1.390 . S
C172 N175 1.391 . S
C173 H145 0.930 . S
C173 C172 1.390 . S
C173 C174 1.392 . S
C174 H146 0.929 . S
C174 C171 1.391 . S
C174 C173 1.392 . S
N175 Co119 2.257 . S
N175 C172 1.391 . S
N175 C176 1.388 . S
C176 H147 0.930 . S
C176 C171 1.391 . S
C176 N175 1.388 . S
Co177 O179 2.143 . S
Co177 O185 2.074 . S
Co177 O188 2.093 . S
Co177 O201 2.097 . S
Co177 N218 2.151 . S
Co177 N226 2.214 . S
Co178 O179 2.160 . S
Co178 O184 2.058 . S
Co178 O194 2.057 . S
Co178 O209 2.037 . S
Co178 N213 2.145 . S
Co178 N234 2.257 . S
O179 Co177 2.143 . S
O179 Co178 2.160 . S
C180 O181 1.278 . S
C180 O188 1.224 . S
O181 C180 1.278 . S
C182 O183 1.245 . S
C182 O194 1.232 . S
O183 C182 1.245 . S
O184 Co178 2.058 . S
O184 C210 1.269 . S
O185 Co177 2.074 . S
O185 C210 1.257 . S
H186 C211 0.930 1_565 S
H187 C217 0.930 . S
O188 Co177 2.093 . S
O188 C180 1.224 . S
H189 C221 0.929 . S
H190 C223 0.930 . S
H191 C224 0.930 . S
H192 C222 0.929 . S
H193 C225 0.928 . S
O194 Co178 2.057 . S
O194 C182 1.232 . S
H195 C214 0.929 . S
H196 C215 0.929 . S
H197 C227 0.946 . S
H198 C219 0.929 . S
H199 C228 0.930 . S
H200 C220 0.931 . S
O201 Co177 2.097 . S
O201 C229 1.214 . S
H202 C230 0.929 . S
H203 C231 0.929 . S
H204 C232 0.930 . S
H205 C233 0.930 . S
H206 C235 0.930 . S
H207 C212 0.930 . S
H208 C216 0.930 . S
O209 Co178 2.037 . S
O209 C229 1.234 . S
C210 O184 1.269 . S
C210 O185 1.257 . S
C211 H186 0.930 1_545 S
C211 C214 1.388 . S
C211 C216 1.418 1_545 S
C212 H207 0.930 . S
C212 C215 1.404 . S
C212 C216 1.353 1_545 S
N213 Co178 2.145 . S
N213 C214 1.397 . S
N213 C215 1.334 . S
C214 H195 0.929 . S
C214 C211 1.388 . S
C214 N213 1.397 . S
C215 H196 0.929 . S
C215 C212 1.404 . S
C215 N213 1.334 . S
C216 H208 0.930 . S
C216 C211 1.418 1_565 S
C216 C212 1.353 1_565 S
C217 H187 0.930 . S
C217 N218 1.330 . S
C217 C219 1.446 . S
N218 Co177 2.151 . S
N218 C217 1.330 . S
N218 C222 1.418 . S
C219 H198 0.929 . S
C219 C217 1.446 . S
C219 C220 1.332 . S
C220 H200 0.931 . S
C220 C219 1.332 . S
C220 C221 1.267 . S
C221 H189 0.929 . S
C221 C220 1.267 . S
C221 C222 1.251 . S
C222 H192 0.929 . S
C222 N218 1.418 . S
C222 C221 1.251 . S
C223 H190 0.930 . S
C223 C225 1.406 . S
C223 C228 1.261 . S
C224 H191 0.930 . S
C224 N226 1.325 . S
C224 C227 1.357 . S
C225 H193 0.928 . S
C225 C223 1.406 . S
C225 N226 1.261 . S
N226 Co177 2.214 . S
N226 C224 1.325 . S
N226 C225 1.261 . S
C227 H197 0.946 . S
C227 C224 1.357 . S
C227 C228 1.312 . S
C228 H199 0.930 . S
C228 C223 1.261 . S
C228 C227 1.312 . S
C229 O201 1.214 . S
C229 O209 1.234 . S
C230 H202 0.929 . S
C230 C233 1.390 1_545 S
C230 C235 1.391 . S
C231 H203 0.929 . S
C231 C232 1.390 1_545 S
C231 N234 1.391 . S
C232 H204 0.930 . S
C232 C231 1.390 1_565 S
C232 C233 1.392 . S
C233 H205 0.930 . S
C233 C230 1.390 1_565 S
C233 C232 1.392 . S
N234 Co178 2.257 . S
N234 C231 1.391 . S
N234 C235 1.388 . S
C235 H206 0.930 . S
C235 C230 1.391 . S
C235 N234 1.388 . S
Co236 O238 2.143 . S
Co236 O244 2.074 . S
Co236 O247 2.093 . S
Co236 O260 2.097 . S
Co236 N277 2.151 . S
Co236 N285 2.214 . S
Co237 O238 2.160 . S
Co237 O243 2.058 . S
Co237 O253 2.057 . S
Co237 O268 2.037 . S
Co237 N272 2.145 . S
Co237 N293 2.257 . S
O238 Co236 2.143 . S
O238 Co237 2.160 . S
C239 O240 1.278 . S
C239 O247 1.224 . S
O240 C239 1.278 . S
C241 O242 1.244 1_554 S
C241 O253 1.232 1_554 S
O242 C241 1.244 1_556 S
O243 Co237 2.058 . S
O243 C269 1.269 . S
O244 Co236 2.074 . S
O244 C269 1.257 . S
H245 C270 0.930 . S
H246 C276 0.930 . S
O247 Co236 2.093 . S
O247 C239 1.224 . S
H248 C280 0.929 . S
H249 C282 0.930 1_545 S
H250 C283 0.930 . S
H251 C281 0.929 . S
H252 C284 0.928 . S
O253 Co237 2.057 . S
O253 C241 1.232 1_556 S
H254 C273 0.929 . S
H255 C274 0.929 . S
H256 C286 0.931 . S
H257 C278 0.929 . S
H258 C287 0.930 1_545 S
H259 C279 0.931 . S
O260 Co236 2.097 . S
O260 C288 1.214 . S
H261 C289 0.929 . S
H262 C290 0.929 . S
H263 C291 0.930 . S
H264 C292 0.929 . S
H265 C294 0.930 . S
H266 C271 0.930 . S
H267 C275 0.930 . S
O268 Co237 2.037 . S
O268 C288 1.234 . S
C269 O243 1.269 . S
C269 O244 1.257 . S
C270 H245 0.930 . S
C270 C273 1.388 1_554 S
C270 C275 1.418 . S
C271 H266 0.930 . S
C271 C274 1.404 . S
C271 C275 1.353 . S
N272 Co237 2.145 . S
N272 C273 1.397 . S
N272 C274 1.334 1_556 S
C273 H254 0.929 . S
C273 C270 1.388 1_556 S
C273 N272 1.397 . S
C274 H255 0.929 . S
C274 C271 1.404 . S
C274 N272 1.334 1_554 S
C275 H267 0.930 . S
C275 C270 1.418 . S
C275 C271 1.353 . S
C276 H246 0.930 . S
C276 N277 1.330 . S
C276 C278 1.446 . S
N277 Co236 2.151 . S
N277 C276 1.330 . S
N277 C281 1.418 . S
C278 H257 0.929 . S
C278 C276 1.446 . S
C278 C279 1.332 1_565 S
C279 H259 0.931 . S
C279 C278 1.332 1_545 S
C279 C280 1.267 . S
C280 H248 0.929 . S
C280 C279 1.267 . S
C280 C281 1.251 1_545 S
C281 H251 0.929 . S
C281 N277 1.418 . S
C281 C280 1.251 1_565 S
C282 H249 0.930 1_565 S
C282 C284 1.406 . S
C282 C287 1.261 . S
C283 H250 0.930 . S
C283 N285 1.325 . S
C283 C286 1.357 . S
C284 H252 0.928 . S
C284 C282 1.406 . S
C284 N285 1.261 . S
N285 Co236 2.214 . S
N285 C283 1.325 . S
N285 C284 1.261 . S
C286 H256 0.931 . S
C286 C283 1.357 . S
C286 C287 1.312 . S
C287 H258 0.930 1_565 S
C287 C282 1.261 . S
C287 C286 1.312 . S
C288 O260 1.214 . S
C288 O268 1.234 . S
C289 H261 0.929 . S
C289 C292 1.391 . S
C289 C294 1.391 . S
C290 H262 0.929 . S
C290 C291 1.390 . S
C290 N293 1.391 . S
C291 H263 0.930 . S
C291 C290 1.390 . S
C291 C292 1.392 . S
C292 H264 0.929 . S
C292 C289 1.391 . S
C292 C291 1.392 . S
N293 Co237 2.257 . S
N293 C290 1.391 . S
N293 C294 1.388 . S
C294 H265 0.930 . S
C294 C289 1.391 . S
C294 N293 1.388 . S
Co295 O297 2.143 . S
Co295 O303 2.074 . S
Co295 O306 2.093 . S
Co295 O319 2.097 . S
Co295 N336 2.151 . S
Co295 N344 2.214 . S
Co296 O297 2.160 . S
Co296 O302 2.058 . S
Co296 O312 2.057 . S
Co296 O327 2.037 . S
Co296 N331 2.145 . S
Co296 N352 2.257 . S
O297 Co295 2.143 . S
O297 Co296 2.160 . S
C298 O299 1.278 . S
C298 O306 1.224 . S
O299 C298 1.278 . S
C300 O301 1.245 . S
C300 O312 1.232 . S
O301 C300 1.245 . S
O302 Co296 2.058 . S
O302 C328 1.269 . S
O303 Co295 2.074 . S
O303 C328 1.257 . S
H304 C329 0.930 . S
H305 C335 0.930 . S
O306 Co295 2.093 . S
O306 C298 1.224 . S
H307 C339 0.929 . S
H308 C341 0.930 . S
H309 C342 0.930 . S
H310 C340 0.929 . S
H311 C343 0.928 . S
O312 Co296 2.057 . S
O312 C300 1.232 . S
H313 C332 0.929 . S
H314 C333 0.929 . S
H315 C345 0.931 . S
H316 C337 0.929 . S
H317 C346 0.930 . S
H318 C338 0.931 . S
O319 Co295 2.097 . S
O319 C347 1.214 . S
H320 C348 0.929 . S
H321 C349 0.929 . S
H322 C350 0.930 . S
H323 C351 0.929 . S
H324 C353 0.930 . S
H325 C330 0.930 . S
H326 C334 0.930 . S
O327 Co296 2.037 . S
O327 C347 1.234 . S
C328 O302 1.269 . S
C328 O303 1.257 . S
C329 H304 0.930 . S
C329 C332 1.388 . S
C329 C334 1.418 . S
C330 H325 0.930 . S
C330 C333 1.404 . S
C330 C334 1.353 . S
N331 Co296 2.145 . S
N331 C332 1.397 . S
N331 C333 1.334 . S
C332 H313 0.929 . S
C332 C329 1.388 . S
C332 N331 1.397 . S
C333 H314 0.929 . S
C333 C330 1.404 . S
C333 N331 1.334 . S
C334 H326 0.930 . S
C334 C329 1.418 . S
C334 C330 1.353 . S
C335 H305 0.930 . S
C335 N336 1.330 . S
C335 C337 1.446 . S
N336 Co295 2.151 . S
N336 C335 1.330 . S
N336 C340 1.418 . S
C337 H316 0.929 . S
C337 C335 1.446 . S
C337 C338 1.332 . S
C338 H318 0.931 . S
C338 C337 1.332 . S
C338 C339 1.267 . S
C339 H307 0.929 . S
C339 C338 1.267 . S
C339 C340 1.251 . S
C340 H310 0.929 . S
C340 N336 1.418 . S
C340 C339 1.251 . S
C341 H308 0.930 . S
C341 C343 1.406 . S
C341 C346 1.261 . S
C342 H309 0.930 . S
C342 N344 1.325 . S
C342 C345 1.357 . S
C343 H311 0.928 . S
C343 C341 1.406 . S
C343 N344 1.261 . S
N344 Co295 2.214 . S
N344 C342 1.325 . S
N344 C343 1.261 . S
C345 H315 0.931 . S
C345 C342 1.357 . S
C345 C346 1.312 . S
C346 H317 0.930 . S
C346 C341 1.261 . S
C346 C345 1.312 . S
C347 O319 1.214 . S
C347 O327 1.234 . S
C348 H320 0.929 . S
C348 C351 1.391 1_565 S
C348 C353 1.391 . S
C349 H321 0.929 . S
C349 C350 1.390 1_565 S
C349 N352 1.391 . S
C350 H322 0.930 . S
C350 C349 1.390 1_545 S
C350 C351 1.392 . S
C351 H323 0.929 . S
C351 C348 1.391 1_545 S
C351 C350 1.392 . S
N352 Co296 2.257 . S
N352 C349 1.391 . S
N352 C353 1.388 . S
C353 H324 0.930 . S
C353 C348 1.391 . S
C353 N352 1.388 . S
Co354 O356 2.143 . S
Co354 O362 2.074 . S
Co354 O365 2.093 . S
Co354 O378 2.097 . S
Co354 N395 2.151 . S
Co354 N403 2.214 . S
Co355 O356 2.160 . S
Co355 O361 2.058 . S
Co355 O371 2.057 . S
Co355 O386 2.037 . S
Co355 N390 2.145 . S
Co355 N411 2.257 . S
O356 Co354 2.143 . S
O356 Co355 2.160 . S
C357 O358 1.278 . S
C357 O365 1.224 . S
O358 C357 1.278 . S
C359 O360 1.244 1_556 S
C359 O371 1.232 1_556 S
O360 C359 1.244 1_554 S
O361 Co355 2.058 . S
O361 C387 1.269 . S
O362 Co354 2.074 . S
O362 C387 1.257 . S
H363 C388 0.930 . S
H364 C394 0.930 . S
O365 Co354 2.093 . S
O365 C357 1.224 . S
H366 C398 0.929 . S
H367 C400 0.930 . S
H368 C401 0.930 . S
H369 C399 0.929 . S
H370 C402 0.928 . S
O371 Co355 2.057 . S
O371 C359 1.232 1_554 S
H372 C391 0.929 . S
H373 C392 0.929 . S
H374 C404 0.931 . S
H375 C396 0.929 . S
H376 C405 0.930 . S
H377 C397 0.931 . S
O378 Co354 2.097 . S
O378 C406 1.214 . S
H379 C407 0.929 . S
H380 C408 0.929 . S
H381 C409 0.930 . S
H382 C410 0.929 . S
H383 C412 0.930 . S
H384 C389 0.930 . S
H385 C393 0.930 . S
O386 Co355 2.037 . S
O386 C406 1.234 . S
C387 O361 1.269 . S
C387 O362 1.257 . S
C388 H363 0.930 . S
C388 C391 1.388 1_556 S
C388 C393 1.418 . S
C389 H384 0.930 . S
C389 C392 1.404 . S
C389 C393 1.353 . S
N390 Co355 2.145 . S
N390 C391 1.397 . S
N390 C392 1.334 1_554 S
C391 H372 0.929 . S
C391 C388 1.388 1_554 S
C391 N390 1.397 . S
C392 H373 0.929 . S
C392 C389 1.404 . S
C392 N390 1.334 1_556 S
C393 H385 0.930 . S
C393 C388 1.418 . S
C393 C389 1.353 . S
C394 H364 0.930 . S
C394 N395 1.330 . S
C394 C396 1.446 . S
N395 Co354 2.151 . S
N395 C394 1.330 . S
N395 C399 1.418 . S
C396 H375 0.929 . S
C396 C394 1.446 . S
C396 C397 1.332 . S
C397 H377 0.931 . S
C397 C396 1.332 . S
C397 C398 1.267 . S
C398 H366 0.929 . S
C398 C397 1.267 . S
C398 C399 1.251 . S
C399 H369 0.929 . S
C399 N395 1.418 . S
C399 C398 1.251 . S
C400 H367 0.930 . S
C400 C402 1.406 . S
C400 C405 1.261 . S
C401 H368 0.930 . S
C401 N403 1.325 . S
C401 C404 1.357 . S
C402 H370 0.928 . S
C402 C400 1.406 . S
C402 N403 1.261 . S
N403 Co354 2.214 . S
N403 C401 1.325 . S
N403 C402 1.261 . S
C404 H374 0.931 . S
C404 C401 1.357 . S
C404 C405 1.312 . S
C405 H376 0.930 . S
C405 C400 1.261 . S
C405 C404 1.312 . S
C406 O378 1.214 . S
C406 O386 1.234 . S
C407 H379 0.929 . S
C407 C410 1.391 1_565 S
C407 C412 1.391 . S
C408 H380 0.929 . S
C408 C409 1.390 1_565 S
C408 N411 1.391 . S
C409 H381 0.930 . S
C409 C408 1.390 1_545 S
C409 C410 1.392 . S
C410 H382 0.929 . S
C410 C407 1.391 1_545 S
C410 C409 1.392 . S
N411 Co355 2.257 . S
N411 C408 1.391 . S
N411 C412 1.388 . S
C412 H383 0.930 . S
C412 C407 1.391 . S
C412 N411 1.388 . S
Co413 O415 2.143 . S
Co413 O421 2.074 . S
Co413 O424 2.093 . S
Co413 O437 2.097 . S
Co413 N454 2.151 . S
Co413 N462 2.214 . S
Co414 O415 2.160 . S
Co414 O420 2.058 . S
Co414 O430 2.057 . S
Co414 O445 2.037 . S
Co414 N449 2.145 . S
Co414 N470 2.257 . S
O415 Co413 2.143 . S
O415 Co414 2.160 . S
C416 O417 1.278 . S
C416 O424 1.224 . S
O417 C416 1.278 . S
C418 O419 1.245 . S
C418 O430 1.232 . S
O419 C418 1.245 . S
O420 Co414 2.058 . S
O420 C446 1.269 . S
O421 Co413 2.074 . S
O421 C446 1.257 . S
H422 C447 0.930 . S
H423 C453 0.930 . S
O424 Co413 2.093 . S
O424 C416 1.224 . S
H425 C457 0.929 . S
H426 C459 0.930 1_545 S
H427 C460 0.930 . S
H428 C458 0.929 . S
H429 C461 0.928 . S
O430 Co414 2.057 . S
O430 C418 1.232 . S
H431 C450 0.929 . S
H432 C451 0.929 . S
H433 C463 0.931 . S
H434 C455 0.929 . S
H435 C464 0.930 1_545 S
H436 C456 0.931 . S
O437 Co413 2.097 . S
O437 C465 1.214 . S
H438 C466 0.929 . S
H439 C467 0.929 . S
H440 C468 0.930 . S
H441 C469 0.929 . S
H442 C471 0.930 . S
H443 C448 0.930 . S
H444 C452 0.930 . S
O445 Co414 2.037 . S
O445 C465 1.234 . S
C446 O420 1.269 . S
C446 O421 1.257 . S
C447 H422 0.930 . S
C447 C450 1.388 . S
C447 C452 1.418 . S
C448 H443 0.930 . S
C448 C451 1.404 . S
C448 C452 1.353 . S
N449 Co414 2.145 . S
N449 C450 1.397 . S
N449 C451 1.334 . S
C450 H431 0.929 . S
C450 C447 1.388 . S
C450 N449 1.397 . S
C451 H432 0.929 . S
C451 C448 1.404 . S
C451 N449 1.334 . S
C452 H444 0.930 . S
C452 C447 1.418 . S
C452 C448 1.353 . S
C453 H423 0.930 . S
C453 N454 1.330 . S
C453 C455 1.446 . S
N454 Co413 2.151 . S
N454 C453 1.330 . S
N454 C458 1.418 . S
C455 H434 0.929 . S
C455 C453 1.446 . S
C455 C456 1.332 1_565 S
C456 H436 0.931 . S
C456 C455 1.332 1_545 S
C456 C457 1.267 . S
C457 H425 0.929 . S
C457 C456 1.267 . S
C457 C458 1.251 1_545 S
C458 H428 0.929 . S
C458 N454 1.418 . S
C458 C457 1.251 1_565 S
C459 H426 0.930 1_565 S
C459 C461 1.406 . S
C459 C464 1.261 . S
C460 H427 0.930 . S
C460 N462 1.325 . S
C460 C463 1.357 . S
C461 H429 0.928 . S
C461 C459 1.406 . S
C461 N462 1.261 . S
N462 Co413 2.214 . S
N462 C460 1.325 . S
N462 C461 1.261 . S
C463 H433 0.931 . S
C463 C460 1.357 . S
C463 C464 1.312 . S
C464 H435 0.930 1_565 S
C464 C459 1.261 . S
C464 C463 1.312 . S
C465 O437 1.214 . S
C465 O445 1.234 . S
C466 H438 0.929 . S
C466 C469 1.391 . S
C466 C471 1.391 . S
C467 H439 0.929 . S
C467 C468 1.390 . S
C467 N470 1.391 . S
C468 H440 0.930 . S
C468 C467 1.390 . S
C468 C469 1.392 . S
C469 H441 0.929 . S
C469 C466 1.391 . S
C469 C468 1.392 . S
N470 Co414 2.257 . S
N470 C467 1.391 . S
N470 C471 1.388 . S
C471 H442 0.930 . S
C471 C466 1.391 . S
C471 N470 1.388 . S
H472 C484 0.930 . S
H473 C486 0.930 . S
H474 C487 0.930 . S
H475 C491 0.959 . S
H476 C491 0.959 . S
H477 C491 0.961 . S
H478 C492 0.960 . S
H479 C492 0.961 . S
H480 C492 0.959 . S
H481 C495 0.929 . S
H482 C496 0.931 . S
H483 C498 0.930 . S
C484 H472 0.930 . S
C484 C485 1.399 . S
C484 C489 1.399 . S
C485 C484 1.399 . S
C485 C486 1.376 . S
C486 H473 0.930 . S
C486 C485 1.376 . S
C486 C487 1.388 . S
C487 H474 0.930 . S
C487 C486 1.388 . S
C487 C488 1.390 . S
C488 C487 1.390 . S
C488 C489 1.394 . S
C488 C494 1.465 . S
C489 C484 1.399 . S
C489 C488 1.394 . S
C489 C490 1.516 . S
C490 C489 1.516 . S
C490 C491 1.502 . S
C490 C492 1.561 . S
C490 C493 1.526 . S
C491 H475 0.959 . S
C491 H476 0.959 . S
C491 H477 0.961 . S
C491 C490 1.502 . S
C492 H478 0.960 . S
C492 H479 0.961 . S
C492 H480 0.959 . S
C492 C490 1.561 . S
C493 C490 1.526 . S
C493 C494 1.396 . S
C493 C498 1.390 . S
C494 C488 1.465 . S
C494 C493 1.396 . S
C494 C495 1.399 . S
C495 H481 0.929 . S
C495 C494 1.399 . S
C495 C496 1.385 . S
C496 H482 0.931 . S
C496 C495 1.385 . S
C496 C497 1.389 . S
C497 C496 1.389 . S
C497 C498 1.387 . S
C498 H483 0.930 . S
C498 C493 1.390 . S
C498 C497 1.387 . S
H499 C511 0.930 . S
H500 C513 0.930 . S
H501 C514 0.930 . S
H502 C518 0.959 . S
H503 C518 0.959 . S
H504 C518 0.961 . S
H505 C519 0.960 . S
H506 C519 0.961 . S
H507 C519 0.959 . S
H508 C522 0.929 . S
H509 C523 0.931 . S
H510 C525 0.930 . S
C511 H499 0.930 . S
C511 C512 1.399 . S
C511 C516 1.399 . S
C512 C511 1.399 . S
C512 C513 1.376 . S
C513 H500 0.930 . S
C513 C512 1.376 . S
C513 C514 1.388 . S
C514 H501 0.930 . S
C514 C513 1.388 . S
C514 C515 1.390 . S
C515 C514 1.390 . S
C515 C516 1.394 . S
C515 C521 1.465 . S
C516 C511 1.399 . S
C516 C515 1.394 . S
C516 C517 1.516 . S
C517 C516 1.516 . S
C517 C518 1.502 . S
C517 C519 1.561 . S
C517 C520 1.526 . S
C518 H502 0.959 . S
C518 H503 0.959 . S
C518 H504 0.961 . S
C518 C517 1.502 . S
C519 H505 0.960 . S
C519 H506 0.961 . S
C519 H507 0.959 . S
C519 C517 1.561 . S
C520 C517 1.526 . S
C520 C521 1.396 . S
C520 C525 1.390 . S
C521 C515 1.465 . S
C521 C520 1.396 . S
C521 C522 1.399 . S
C522 H508 0.929 . S
C522 C521 1.399 . S
C522 C523 1.385 . S
C523 H509 0.931 . S
C523 C522 1.385 . S
C523 C524 1.389 . S
C524 C523 1.389 . S
C524 C525 1.387 . S
C525 H510 0.930 . S
C525 C520 1.390 . S
C525 C524 1.387 . S
H526 C538 0.930 . S
H527 C540 0.930 . S
H528 C541 0.930 . S
H529 C545 0.959 . S
H530 C545 0.959 . S
H531 C545 0.961 . S
H532 C546 0.960 . S
H533 C546 0.961 . S
H534 C546 0.959 . S
H535 C549 0.929 . S
H536 C550 0.931 . S
H537 C552 0.930 . S
C538 H526 0.930 . S
C538 C539 1.399 . S
C538 C543 1.399 . S
C539 C538 1.399 . S
C539 C540 1.376 . S
C540 H527 0.930 . S
C540 C539 1.376 . S
C540 C541 1.388 . S
C541 H528 0.930 . S
C541 C540 1.388 . S
C541 C542 1.390 . S
C542 C541 1.390 . S
C542 C543 1.394 . S
C542 C548 1.465 . S
C543 C538 1.399 . S
C543 C542 1.394 . S
C543 C544 1.516 . S
C544 C543 1.516 . S
C544 C545 1.502 . S
C544 C546 1.561 . S
C544 C547 1.526 . S
C545 H529 0.959 . S
C545 H530 0.959 . S
C545 H531 0.961 . S
C545 C544 1.502 . S
C546 H532 0.960 . S
C546 H533 0.961 . S
C546 H534 0.959 . S
C546 C544 1.561 . S
C547 C544 1.526 . S
C547 C548 1.396 . S
C547 C552 1.390 . S
C548 C542 1.465 . S
C548 C547 1.396 . S
C548 C549 1.399 . S
C549 H535 0.929 . S
C549 C548 1.399 . S
C549 C550 1.385 . S
C550 H536 0.931 . S
C550 C549 1.385 . S
C550 C551 1.389 . S
C551 C550 1.389 . S
C551 C552 1.387 . S
C552 H537 0.930 . S
C552 C547 1.390 . S
C552 C551 1.387 . S
H553 C565 0.930 . S
H554 C567 0.930 . S
H555 C568 0.930 . S
H556 C572 0.959 . S
H557 C572 0.959 . S
H558 C572 0.961 . S
H559 C573 0.960 . S
H560 C573 0.961 . S
H561 C573 0.959 . S
H562 C576 0.929 . S
H563 C577 0.931 . S
H564 C579 0.930 . S
C565 H553 0.930 . S
C565 C566 1.399 . S
C565 C570 1.399 . S
C566 C565 1.399 . S
C566 C567 1.376 . S
C567 H554 0.930 . S
C567 C566 1.376 . S
C567 C568 1.388 . S
C568 H555 0.930 . S
C568 C567 1.388 . S
C568 C569 1.390 . S
C569 C568 1.390 . S
C569 C570 1.394 . S
C569 C575 1.465 . S
C570 C565 1.399 . S
C570 C569 1.394 . S
C570 C571 1.516 . S
C571 C570 1.516 . S
C571 C572 1.502 . S
C571 C573 1.561 . S
C571 C574 1.526 . S
C572 H556 0.959 . S
C572 H557 0.959 . S
C572 H558 0.961 . S
C572 C571 1.502 . S
C573 H559 0.960 . S
C573 H560 0.961 . S
C573 H561 0.959 . S
C573 C571 1.561 . S
C574 C571 1.526 . S
C574 C575 1.396 . S
C574 C579 1.390 . S
C575 C569 1.465 . S
C575 C574 1.396 . S
C575 C576 1.399 . S
C576 H562 0.929 . S
C576 C575 1.399 . S
C576 C577 1.385 . S
C577 H563 0.931 . S
C577 C576 1.385 . S
C577 C578 1.389 . S
C578 C577 1.389 . S
C578 C579 1.387 . S
C579 H564 0.930 . S
C579 C574 1.390 . S
C579 C578 1.387 . S
H580 C592 0.930 . S
H581 C594 0.930 . S
H582 C595 0.930 . S
H583 C599 0.959 . S
H584 C599 0.959 . S
H585 C599 0.961 . S
H586 C600 0.960 . S
H587 C600 0.961 . S
H588 C600 0.959 . S
H589 C603 0.929 . S
H590 C604 0.931 . S
H591 C606 0.930 . S
C592 H580 0.930 . S
C592 C593 1.399 . S
C592 C597 1.399 . S
C593 C592 1.399 . S
C593 C594 1.376 . S
C594 H581 0.930 . S
C594 C593 1.376 . S
C594 C595 1.388 . S
C595 H582 0.930 . S
C595 C594 1.388 . S
C595 C596 1.390 . S
C596 C595 1.390 . S
C596 C597 1.394 . S
C596 C602 1.465 . S
C597 C592 1.399 . S
C597 C596 1.394 . S
C597 C598 1.516 . S
C598 C597 1.516 . S
C598 C599 1.502 . S
C598 C600 1.561 . S
C598 C601 1.526 . S
C599 H583 0.959 . S
C599 H584 0.959 . S
C599 H585 0.961 . S
C599 C598 1.502 . S
C600 H586 0.960 . S
C600 H587 0.961 . S
C600 H588 0.959 . S
C600 C598 1.561 . S
C601 C598 1.526 . S
C601 C602 1.396 . S
C601 C606 1.390 . S
C602 C596 1.465 . S
C602 C601 1.396 . S
C602 C603 1.399 . S
C603 H589 0.929 . S
C603 C602 1.399 . S
C603 C604 1.385 . S
C604 H590 0.931 . S
C604 C603 1.385 . S
C604 C605 1.389 . S
C605 C604 1.389 . S
C605 C606 1.387 . S
C606 H591 0.930 . S
C606 C601 1.390 . S
C606 C605 1.387 . S
H607 C619 0.930 . S
H608 C621 0.930 . S
H609 C622 0.930 . S
H610 C626 0.959 . S
H611 C626 0.959 . S
H612 C626 0.961 . S
H613 C627 0.960 . S
H614 C627 0.961 . S
H615 C627 0.959 . S
H616 C630 0.929 . S
H617 C631 0.931 . S
H618 C633 0.930 . S
C619 H607 0.930 . S
C619 C620 1.399 . S
C619 C624 1.399 . S
C620 C619 1.399 . S
C620 C621 1.376 . S
C621 H608 0.930 . S
C621 C620 1.376 . S
C621 C622 1.388 . S
C622 H609 0.930 . S
C622 C621 1.388 . S
C622 C623 1.390 . S
C623 C622 1.390 . S
C623 C624 1.394 . S
C623 C629 1.465 . S
C624 C619 1.399 . S
C624 C623 1.394 . S
C624 C625 1.516 . S
C625 C624 1.516 . S
C625 C626 1.502 . S
C625 C627 1.561 . S
C625 C628 1.526 . S
C626 H610 0.959 . S
C626 H611 0.959 . S
C626 H612 0.961 . S
C626 C625 1.502 . S
C627 H613 0.960 . S
C627 H614 0.961 . S
C627 H615 0.959 . S
C627 C625 1.561 . S
C628 C625 1.526 . S
C628 C629 1.396 . S
C628 C633 1.390 . S
C629 C623 1.465 . S
C629 C628 1.396 . S
C629 C630 1.399 . S
C630 H616 0.929 . S
C630 C629 1.399 . S
C630 C631 1.385 . S
C631 H617 0.931 . S
C631 C630 1.385 . S
C631 C632 1.389 . S
C632 C631 1.389 . S
C632 C633 1.387 . S
C633 H618 0.930 . S
C633 C628 1.390 . S
C633 C632 1.387 . S
H634 C646 0.930 . S
H635 C648 0.930 . S
H636 C649 0.930 . S
H637 C653 0.959 . S
H638 C653 0.959 . S
H639 C653 0.961 . S
H640 C654 0.960 . S
H641 C654 0.961 . S
H642 C654 0.959 . S
H643 C657 0.929 . S
H644 C658 0.931 . S
H645 C660 0.930 . S
C646 H634 0.930 . S
C646 C647 1.399 . S
C646 C651 1.399 . S
C647 C646 1.399 . S
C647 C648 1.376 . S
C648 H635 0.930 . S
C648 C647 1.376 . S
C648 C649 1.388 . S
C649 H636 0.930 . S
C649 C648 1.388 . S
C649 C650 1.390 . S
C650 C649 1.390 . S
C650 C651 1.394 . S
C650 C656 1.465 . S
C651 C646 1.399 . S
C651 C650 1.394 . S
C651 C652 1.516 . S
C652 C651 1.516 . S
C652 C653 1.502 . S
C652 C654 1.561 . S
C652 C655 1.526 . S
C653 H637 0.959 . S
C653 H638 0.959 . S
C653 H639 0.961 . S
C653 C652 1.502 . S
C654 H640 0.960 . S
C654 H641 0.961 . S
C654 H642 0.959 . S
C654 C652 1.561 . S
C655 C652 1.526 . S
C655 C656 1.396 . S
C655 C660 1.390 . S
C656 C650 1.465 . S
C656 C655 1.396 . S
C656 C657 1.399 . S
C657 H643 0.929 . S
C657 C656 1.399 . S
C657 C658 1.385 . S
C658 H644 0.931 . S
C658 C657 1.385 . S
C658 C659 1.389 . S
C659 C658 1.389 . S
C659 C660 1.387 . S
C660 H645 0.930 . S
C660 C655 1.390 . S
C660 C659 1.387 . S
H661 C673 0.930 . S
H662 C675 0.930 . S
H663 C676 0.930 . S
H664 C680 0.959 . S
H665 C680 0.959 . S
H666 C680 0.961 . S
H667 C681 0.960 . S
H668 C681 0.961 . S
H669 C681 0.959 . S
H670 C684 0.929 . S
H671 C685 0.931 . S
H672 C687 0.930 . S
C673 H661 0.930 . S
C673 C674 1.399 . S
C673 C678 1.399 . S
C674 C673 1.399 . S
C674 C675 1.376 . S
C675 H662 0.930 . S
C675 C674 1.376 . S
C675 C676 1.388 . S
C676 H663 0.930 . S
C676 C675 1.388 . S
C676 C677 1.390 . S
C677 C676 1.390 . S
C677 C678 1.394 . S
C677 C683 1.465 . S
C678 C673 1.399 . S
C678 C677 1.394 . S
C678 C679 1.516 . S
C679 C678 1.516 . S
C679 C680 1.502 . S
C679 C681 1.561 . S
C679 C682 1.526 . S
C680 H664 0.959 . S
C680 H665 0.959 . S
C680 H666 0.961 . S
C680 C679 1.502 . S
C681 H667 0.960 . S
C681 H668 0.961 . S
C681 H669 0.959 . S
C681 C679 1.561 . S
C682 C679 1.526 . S
C682 C683 1.396 . S
C682 C687 1.390 . S
C683 C677 1.465 . S
C683 C682 1.396 . S
C683 C684 1.399 . S
C684 H670 0.929 . S
C684 C683 1.399 . S
C684 C685 1.385 . S
C685 H671 0.931 . S
C685 C684 1.385 . S
C685 C686 1.389 . S
C686 C685 1.389 . S
C686 C687 1.387 . S
C687 H672 0.930 . S
C687 C682 1.390 . S
C687 C686 1.387 . S
H688 C700 0.930 . S
H689 C702 0.930 . S
H690 C703 0.930 1_655 S
H691 C707 0.959 . S
H692 C707 0.959 . S
H693 C707 0.961 . S
H694 C708 0.960 . S
H695 C708 0.961 . S
H696 C708 0.959 1_655 S
H697 C711 0.929 . S
H698 C712 0.931 . S
H699 C714 0.930 . S
C700 H688 0.930 . S
C700 C701 1.399 . S
C700 C705 1.399 . S
C701 C700 1.399 . S
C701 C702 1.376 . S
C702 H689 0.930 . S
C702 C701 1.376 . S
C702 C703 1.388 . S
C703 H690 0.930 1_455 S
C703 C702 1.388 . S
C703 C704 1.390 . S
C704 C703 1.390 . S
C704 C705 1.394 . S
C704 C710 1.465 1_455 S
C705 C700 1.399 . S
C705 C704 1.394 . S
C705 C706 1.516 . S
C706 C705 1.516 . S
C706 C707 1.502 . S
C706 C708 1.561 . S
C706 C709 1.526 1_455 S
C707 H691 0.959 . S
C707 H692 0.959 . S
C707 H693 0.961 . S
C707 C706 1.502 . S
C708 H694 0.960 . S
C708 H695 0.961 . S
C708 H696 0.959 1_455 S
C708 C706 1.561 . S
C709 C706 1.526 1_655 S
C709 C710 1.396 . S
C709 C714 1.390 . S
C710 C704 1.465 1_655 S
C710 C709 1.396 . S
C710 C711 1.399 . S
C711 H697 0.929 . S
C711 C710 1.399 . S
C711 C712 1.385 . S
C712 H698 0.931 . S
C712 C711 1.385 . S
C712 C713 1.389 . S
C713 C712 1.389 . S
C713 C714 1.387 . S
C714 H699 0.930 . S
C714 C709 1.390 . S
C714 C713 1.387 . S
H715 C727 0.930 . S
H716 C729 0.930 . S
H717 C730 0.930 . S
H718 C734 0.959 . S
H719 C734 0.959 . S
H720 C734 0.961 . S
H721 C735 0.960 . S
H722 C735 0.961 . S
H723 C735 0.959 . S
H724 C738 0.929 . S
H725 C739 0.931 . S
H726 C741 0.930 . S
C727 H715 0.930 . S
C727 C728 1.399 . S
C727 C732 1.399 . S
C728 C727 1.399 . S
C728 C729 1.376 . S
C729 H716 0.930 . S
C729 C728 1.376 . S
C729 C730 1.388 . S
C730 H717 0.930 . S
C730 C729 1.388 . S
C730 C731 1.390 . S
C731 C730 1.390 . S
C731 C732 1.394 . S
C731 C737 1.465 . S
C732 C727 1.399 . S
C732 C731 1.394 . S
C732 C733 1.516 . S
C733 C732 1.516 . S
C733 C734 1.502 . S
C733 C735 1.561 . S
C733 C736 1.526 . S
C734 H718 0.959 . S
C734 H719 0.959 . S
C734 H720 0.961 . S
C734 C733 1.502 . S
C735 H721 0.960 . S
C735 H722 0.961 . S
C735 H723 0.959 . S
C735 C733 1.561 . S
C736 C733 1.526 . S
C736 C737 1.396 . S
C736 C741 1.390 . S
C737 C731 1.465 . S
C737 C736 1.396 . S
C737 C738 1.399 . S
C738 H724 0.929 . S
C738 C737 1.399 . S
C738 C739 1.385 . S
C739 H725 0.931 . S
C739 C738 1.385 . S
C739 C740 1.389 . S
C740 C739 1.389 . S
C740 C741 1.387 . S
C741 H726 0.930 . S
C741 C736 1.390 . S
C741 C740 1.387 . S
H742 C754 0.930 . S
H743 C756 0.930 . S
H744 C757 0.930 . S
H745 C761 0.959 . S
H746 C761 0.959 . S
H747 C761 0.961 . S
H748 C762 0.960 . S
H749 C762 0.961 1_655 S
H750 C762 0.959 . S
H751 C765 0.929 . S
H752 C766 0.931 . S
H753 C768 0.930 . S
C754 H742 0.930 . S
C754 C755 1.399 . S
C754 C759 1.399 . S
C755 C754 1.399 . S
C755 C756 1.376 . S
C756 H743 0.930 . S
C756 C755 1.376 . S
C756 C757 1.388 . S
C757 H744 0.930 . S
C757 C756 1.388 . S
C757 C758 1.390 . S
C758 C757 1.390 . S
C758 C759 1.394 . S
C758 C764 1.465 1_455 S
C759 C754 1.399 . S
C759 C758 1.394 . S
C759 C760 1.516 1_455 S
C760 C759 1.516 1_655 S
C760 C761 1.502 . S
C760 C762 1.561 1_655 S
C760 C763 1.526 . S
C761 H745 0.959 . S
C761 H746 0.959 . S
C761 H747 0.961 . S
C761 C760 1.502 . S
C762 H748 0.960 . S
C762 H749 0.961 1_455 S
C762 H750 0.959 . S
C762 C760 1.561 1_455 S
C763 C760 1.526 . S
C763 C764 1.396 . S
C763 C768 1.390 . S
C764 C758 1.465 1_655 S
C764 C763 1.396 . S
C764 C765 1.399 . S
C765 H751 0.929 . S
C765 C764 1.399 . S
C765 C766 1.385 . S
C766 H752 0.931 . S
C766 C765 1.385 . S
C766 C767 1.389 . S
C767 C766 1.389 . S
C767 C768 1.387 . S
C768 H753 0.930 . S
C768 C763 1.390 . S
C768 C767 1.387 . S
H769 C781 0.930 . S
H770 C783 0.930 . S
H771 C784 0.930 . S
H772 C788 0.959 . S
H773 C788 0.959 . S
H774 C788 0.961 . S
H775 C789 0.960 . S
H776 C789 0.961 . S
H777 C789 0.959 . S
H778 C792 0.929 . S
H779 C793 0.931 . S
H780 C795 0.930 . S
C781 H769 0.930 . S
C781 C782 1.399 . S
C781 C786 1.399 . S
C782 C781 1.399 . S
C782 C783 1.376 . S
C783 H770 0.930 . S
C783 C782 1.376 . S
C783 C784 1.388 . S
C784 H771 0.930 . S
C784 C783 1.388 . S
C784 C785 1.390 . S
C785 C784 1.390 . S
C785 C786 1.394 . S
C785 C791 1.465 . S
C786 C781 1.399 . S
C786 C785 1.394 . S
C786 C787 1.516 . S
C787 C786 1.516 . S
C787 C788 1.502 . S
C787 C789 1.561 . S
C787 C790 1.526 . S
C788 H772 0.959 . S
C788 H773 0.959 . S
C788 H774 0.961 . S
C788 C787 1.502 . S
C789 H775 0.960 . S
C789 H776 0.961 . S
C789 H777 0.959 . S
C789 C787 1.561 . S
C790 C787 1.526 . S
C790 C791 1.396 . S
C790 C795 1.390 . S
C791 C785 1.465 . S
C791 C790 1.396 . S
C791 C792 1.399 . S
C792 H778 0.929 . S
C792 C791 1.399 . S
C792 C793 1.385 . S
C793 H779 0.931 . S
C793 C792 1.385 . S
C793 C794 1.389 . S
C794 C793 1.389 . S
C794 C795 1.387 . S
C795 H780 0.930 . S
C795 C790 1.390 . S
C795 C794 1.387 . S
H796 C808 0.930 . S
H797 C810 0.930 . S
H798 C811 0.930 . S
H799 C815 0.959 1_655 S
H800 C815 0.959 . S
H801 C815 0.961 . S
H802 C816 0.960 . S
H803 C816 0.961 . S
H804 C816 0.959 . S
H805 C819 0.929 . S
H806 C820 0.931 . S
H807 C822 0.930 . S
C808 H796 0.930 . S
C808 C809 1.399 1_556 S
C808 C813 1.399 . S
C809 C808 1.399 1_554 S
C809 C810 1.376 . S
C810 H797 0.930 . S
C810 C809 1.376 . S
C810 C811 1.388 . S
C811 H798 0.930 . S
C811 C810 1.388 . S
C811 C812 1.390 . S
C812 C811 1.390 . S
C812 C813 1.394 1_554 S
C812 C818 1.465 1_445 S
C813 C808 1.399 . S
C813 C812 1.394 1_556 S
C813 C814 1.516 1_545 S
C814 C813 1.516 1_565 S
C814 C815 1.502 1_565 S
C814 C816 1.561 . S
C814 C817 1.526 1_455 S
C815 H799 0.959 1_455 S
C815 H800 0.959 . S
C815 H801 0.961 . S
C815 C814 1.502 1_545 S
C816 H802 0.960 . S
C816 H803 0.961 . S
C816 H804 0.959 . S
C816 C814 1.561 . S
C817 C814 1.526 1_655 S
C817 C818 1.396 1_556 S
C817 C822 1.390 . S
C818 C812 1.465 1_665 S
C818 C817 1.396 1_554 S
C818 C819 1.399 . S
C819 H805 0.929 . S
C819 C818 1.399 . S
C819 C820 1.385 . S
C820 H806 0.931 . S
C820 C819 1.385 . S
C820 C821 1.389 1_554 S
C821 C820 1.389 1_556 S
C821 C822 1.387 . S
C822 H807 0.930 . S
C822 C817 1.390 . S
C822 C821 1.387 . S
H823 C835 0.930 . S
H824 C837 0.930 . S
H825 C838 0.930 . S
H826 C842 0.959 . S
H827 C842 0.959 . S
H828 C842 0.961 . S
H829 C843 0.960 . S
H830 C843 0.961 . S
H831 C843 0.959 . S
H832 C846 0.929 . S
H833 C847 0.931 . S
H834 C849 0.930 . S
C835 H823 0.930 . S
C835 C836 1.399 . S
C835 C840 1.399 . S
C836 C835 1.399 . S
C836 C837 1.376 . S
C837 H824 0.930 . S
C837 C836 1.376 . S
C837 C838 1.388 . S
C838 H825 0.930 . S
C838 C837 1.388 . S
C838 C839 1.390 . S
C839 C838 1.390 . S
C839 C840 1.394 . S
C839 C845 1.465 . S
C840 C835 1.399 . S
C840 C839 1.394 . S
C840 C841 1.516 . S
C841 C840 1.516 . S
C841 C842 1.502 . S
C841 C843 1.561 . S
C841 C844 1.526 . S
C842 H826 0.959 . S
C842 H827 0.959 . S
C842 H828 0.961 . S
C842 C841 1.502 . S
C843 H829 0.960 . S
C843 H830 0.961 . S
C843 H831 0.959 . S
C843 C841 1.561 . S
C844 C841 1.526 . S
C844 C845 1.396 . S
C844 C849 1.390 . S
C845 C839 1.465 . S
C845 C844 1.396 . S
C845 C846 1.399 . S
C846 H832 0.929 . S
C846 C845 1.399 . S
C846 C847 1.385 . S
C847 H833 0.931 . S
C847 C846 1.385 . S
C847 C848 1.389 . S
C848 C847 1.389 . S
C848 C849 1.387 . S
C849 H834 0.930 . S
C849 C844 1.390 . S
C849 C848 1.387 . S
H850 C862 0.930 . S
H851 C864 0.930 . S
H852 C865 0.930 . S
H853 C869 0.959 . S
H854 C869 0.959 . S
H855 C869 0.961 . S
H856 C870 0.960 . S
H857 C870 0.961 . S
H858 C870 0.959 . S
H859 C873 0.929 . S
H860 C874 0.931 . S
H861 C876 0.930 . S
C862 H850 0.930 . S
C862 C863 1.399 . S
C862 C867 1.399 . S
C863 C862 1.399 . S
C863 C864 1.376 1_554 S
C864 H851 0.930 . S
C864 C863 1.376 1_556 S
C864 C865 1.388 . S
C865 H852 0.930 . S
C865 C864 1.388 . S
C865 C866 1.390 . S
C866 C865 1.390 . S
C866 C867 1.394 1_556 S
C866 C872 1.465 . S
C867 C862 1.399 . S
C867 C866 1.394 1_554 S
C867 C868 1.516 . S
C868 C867 1.516 . S
C868 C869 1.502 . S
C868 C870 1.561 . S
C868 C871 1.526 . S
C869 H853 0.959 . S
C869 H854 0.959 . S
C869 H855 0.961 . S
C869 C868 1.502 . S
C870 H856 0.960 . S
C870 H857 0.961 . S
C870 H858 0.959 . S
C870 C868 1.561 . S
C871 C868 1.526 . S
C871 C872 1.396 1_554 S
C871 C876 1.390 . S
C872 C866 1.465 . S
C872 C871 1.396 1_556 S
C872 C873 1.399 . S
C873 H859 0.929 . S
C873 C872 1.399 . S
C873 C874 1.385 . S
C874 H860 0.931 . S
C874 C873 1.385 . S
C874 C875 1.389 . S
C875 C874 1.389 . S
C875 C876 1.387 1_556 S
C876 H861 0.930 . S
C876 C871 1.390 . S
C876 C875 1.387 1_554 S
H877 C889 0.930 . S
H878 C891 0.930 . S
H879 C892 0.930 . S
H880 C896 0.959 1_565 S
H881 C896 0.959 . S
H882 C896 0.961 1_565 S
H883 C897 0.960 . S
H884 C897 0.961 1_655 S
H885 C897 0.959 . S
H886 C900 0.929 . S
H887 C901 0.931 . S
H888 C903 0.930 . S
C889 H877 0.930 . S
C889 C890 1.399 . S
C889 C894 1.399 . S
C890 C889 1.399 . S
C890 C891 1.376 . S
C891 H878 0.930 . S
C891 C890 1.376 . S
C891 C892 1.388 . S
C892 H879 0.930 . S
C892 C891 1.388 . S
C892 C893 1.390 . S
C893 C892 1.390 . S
C893 C894 1.394 . S
C893 C899 1.465 1_465 S
C894 C889 1.399 . S
C894 C893 1.394 . S
C894 C895 1.516 1_465 S
C895 C894 1.516 1_645 S
C895 C896 1.502 . S
C895 C897 1.561 1_655 S
C895 C898 1.526 . S
C896 H880 0.959 1_545 S
C896 H881 0.959 . S
C896 H882 0.961 1_545 S
C896 C895 1.502 . S
C897 H883 0.960 . S
C897 H884 0.961 1_455 S
C897 H885 0.959 . S
C897 C895 1.561 1_455 S
C898 C895 1.526 . S
C898 C899 1.396 . S
C898 C903 1.390 . S
C899 C893 1.465 1_645 S
C899 C898 1.396 . S
C899 C900 1.399 . S
C900 H886 0.929 . S
C900 C899 1.399 . S
C900 C901 1.385 . S
C901 H887 0.931 . S
C901 C900 1.385 . S
C901 C902 1.389 . S
C902 C901 1.389 . S
C902 C903 1.387 . S
C903 H888 0.930 . S
C903 C898 1.390 . S
C903 C902 1.387 . S
C485 C64 1.630 . S
C497 C3 1.557 . S
C512 C5 1.629 . S
C524 C62 1.558 . S
C539 C182 1.630 . S
C551 C121 1.556 . S
C566 C123 1.628 . S
C578 C180 1.559 . S
C593 C241 1.619 . S
C605 C298 1.598 . S
C620 C300 1.623 . S
C632 C239 1.605 . S
C647 C359 1.623 . S
C659 C416 1.605 . S
C674 C357 1.608 . S
C686 C418 1.623 . S
C701 C33 0.738 . S
C713 C210 0.701 . S
C728 C92 0.768 . S
C740 C151 0.794 . S
C755 C465 0.699 . S
C767 C288 0.716 . S
C782 C406 0.792 . S
C794 C347 0.776 . S
C809 C52 1.522 . S
C821 C269 1.533 . S
C836 C328 1.538 . S
C848 C111 1.518 . S
C863 C387 1.537 . S
C875 C170 1.519 . S
C890 C446 1.535 . S
C902 C229 1.521 . S
