# Generated by pormake.
# Topology qtz-e, (6)-cn, num edge types: 1
# Building blocks:
#     Node 0, Type 0, BuildingBlock: KUMBOL_clean_sbu_0, # of connection points: 6
#     Node 1, Type 0, BuildingBlock: KUMBOL_clean_sbu_0, # of connection points: 6
#     Node 2, Type 0, BuildingBlock: KUMBOL_clean_sbu_0, # of connection points: 6
#     Node 3, Type 0, BuildingBlock: KUMBOL_clean_sbu_0, # of connection points: 6
#     Node 4, Type 0, BuildingBlock: KUMBOL_clean_sbu_0, # of connection points: 6
#     Node 5, Type 0, BuildingBlock: KUMBOL_clean_sbu_0, # of connection points: 6
#     Edge 6, Type (0, 0), BuildingBlock: OJICUG_clean_linker_0, # of connection points: 2
#     Edge 7, Type (0, 0), BuildingBlock: OJICUG_clean_linker_0, # of connection points: 2
#     Edge 8, Type (0, 0), BuildingBlock: OJICUG_clean_linker_0, # of connection points: 2
#     Edge 9, Type (0, 0), BuildingBlock: OJICUG_clean_linker_0, # of connection points: 2
#     Edge 10, Type (0, 0), BuildingBlock: OJICUG_clean_linker_0, # of connection points: 2
#     Edge 11, Type (0, 0), BuildingBlock: OJICUG_clean_linker_0, # of connection points: 2
#     Edge 12, Type (0, 0), BuildingBlock: OJICUG_clean_linker_0, # of connection points: 2
#     Edge 13, Type (0, 0), BuildingBlock: OJICUG_clean_linker_0, # of connection points: 2
#     Edge 14, Type (0, 0), BuildingBlock: OJICUG_clean_linker_0, # of connection points: 2
#     Edge 15, Type (0, 0), BuildingBlock: OJICUG_clean_linker_0, # of connection points: 2
#     Edge 16, Type (0, 0), BuildingBlock: OJICUG_clean_linker_0, # of connection points: 2
#     Edge 17, Type (0, 0), BuildingBlock: OJICUG_clean_linker_0, # of connection points: 2
#     Edge 18, Type (0, 0), BuildingBlock: OJICUG_clean_linker_0, # of connection points: 2
#     Edge 19, Type (0, 0), BuildingBlock: OJICUG_clean_linker_0, # of connection points: 2
#     Edge 20, Type (0, 0), BuildingBlock: OJICUG_clean_linker_0, # of connection points: 2
#     Edge 21, Type (0, 0), BuildingBlock: OJICUG_clean_linker_0, # of connection points: 2
#     Edge 22, Type (0, 0), BuildingBlock: OJICUG_clean_linker_0, # of connection points: 2
#     Edge 23, Type (0, 0), BuildingBlock: OJICUG_clean_linker_0, # of connection points: 2
# Relax obj value: 0.064
# Max RMSD: 0.155
# Mean RMSD: 0.154
data_MOF--net-qtz-e--node1-KUMBOL_clean_sbu_0--edge1-OJICUG_clean_linker_0
_symmetry_space_group_name_H-M    P1
_symmetry_Int_Tables_number       1
_symmetry_cell_setting            triclinic
loop_
_symmetry_equiv_pos_as_xyz
'x, y, z'
_cell_length_a     22.06035
_cell_length_b     22.108215
_cell_length_c     36.998563
_cell_angle_alpha  89.828629
_cell_angle_beta   89.924452
_cell_angle_gamma 119.75253
loop_
_atom_site_label
_atom_site_type_symbol
_atom_site_fract_x
_atom_site_fract_y
_atom_site_fract_z
_atom_type_partial_charge
Gd0 Gd 0.18892 0.3657 1.00342 0.0
Gd1 Gd 0.27773 0.53032 0.05507 0.0
C2 C 0.45887 0.74435 0.02453 0.0
C3 C 0.55708 0.74511 0.05464 0.0
C4 C 0.44073 0.64386 0.05966 0.0
C5 C 0.41442 0.67634 0.03771 0.0
C6 C 0.51257 0.67775 0.06804 0.0
C7 C 0.53026 0.77842 0.03304 0.0
C8 C 0.43015 0.77641 1.0034 0.0
C9 C 0.3586 0.74124 0.99643 0.0
N10 N 0.34534 0.64172 0.02944 0.0
C11 C 0.31666 0.67394 1.01011 0.0
H12 H 0.26117 0.64779 1.00527 0.0
C13 C 0.42113 0.54365 0.09247 0.0
N14 N 0.39648 0.57801 0.07163 0.0
C15 C 0.49192 0.57523 0.10138 0.0
C16 C 0.53784 0.64258 0.08921 0.0
H17 H 0.38738 0.49091 0.10142 0.0
H18 H 0.56518 0.83056 0.02305 0.0
H19 H 0.27756 0.31001 0.05538 0.0
H20 H 0.46255 0.8286 0.9928 0.0
H21 H 0.33562 0.766 0.98066 0.0
H22 H 0.61237 0.77186 0.06077 0.0
H23 H 0.03754 0.31958 0.96285 0.0
H24 H 0.13068 0.12742 0.11261 0.0
H25 H 0.25278 0.21657 0.0989 0.0
H26 H 0.91011 0.08195 0.06496 0.0
H27 H 0.51116 0.54725 0.11737 0.0
H28 H 0.59275 0.66663 0.09595 0.0
H29 H 1.00278 0.07809 0.10016 0.0
H30 H 0.91289 0.23013 0.96897 0.0
N31 N 0.1705 0.27555 0.04424 0.0
C32 C 0.14123 0.16845 0.09329 0.0
C33 C 0.21017 0.21856 0.08555 0.0
C34 C 0.08678 0.17107 0.0754 0.0
C35 C 0.10341 0.22573 0.05056 0.0
C36 C 0.22398 0.27167 0.06066 0.0
N37 N 0.07014 0.28002 1.00658 0.0
C38 C 0.05147 0.22819 0.03113 0.0
C39 C 0.95124 0.22919 0.98682 0.0
C40 C 0.93068 0.17739 1.01326 0.0
C41 C 0.02173 0.27973 0.98348 0.0
C42 C 0.98116 0.17571 0.03545 0.0
H43 H 0.8761 0.13806 1.01571 0.0
O44 O 0.16506 0.32947 0.94784 0.0
O45 O 0.25068 0.47886 1.0021 0.0
O46 O 0.18123 0.52319 0.03034 0.0
O47 O 0.1103 0.40622 1.01295 0.0
O48 O 0.18902 0.43226 0.95725 0.0
O49 O 0.24637 0.32173 0.97598 0.0
O50 O 0.26781 0.54467 0.11189 0.0
O51 O 0.19811 0.41599 0.05698 0.0
O52 O 0.30676 0.40548 1.01635 0.0
O53 O 0.35727 0.5255 1.01992 0.0
O54 O 0.2681 0.45366 0.09849 0.0
O55 O 0.24111 0.60061 0.07216 0.0
C56 C 0.23484 0.49057 0.97114 0.0
C57 C 0.96388 0.12243 0.06101 0.0
C58 C 0.01663 0.12017 0.08101 0.0
C59 C 0.21208 0.31031 0.94569 0.0
C60 C 0.19168 0.24409 0.92615 0.0
C61 C 0.13442 0.18197 0.9384 0.0
C62 C 0.2273 0.24302 0.89421 0.0
C63 C 0.20572 0.17998 0.87483 0.0
C64 C 0.11234 0.12015 0.91938 0.0
C65 C 0.14717 0.11907 0.88801 0.0
C66 C 0.12056 0.47043 1.01986 0.0
C67 C 0.21307 0.3994 0.08705 0.0
C68 C 0.25422 0.59494 0.10603 0.0
C69 C 0.29889 0.65908 0.126 0.0
C70 C 0.33777 0.72402 0.10881 0.0
C71 C 0.30443 0.6539 0.16333 0.0
C72 C 0.34564 0.71316 0.18413 0.0
C73 C 0.38169 0.78286 0.12901 0.0
C74 C 0.38532 0.77781 0.16649 0.0
C75 C 0.36266 0.46956 1.0149 0.0
H76 H 0.10623 0.18148 0.96251 0.0
H77 H 0.27195 0.29087 0.88481 0.0
H78 H 0.06754 0.0726 0.92892 0.0
H79 H 0.12752 0.07011 0.87385 0.0
H80 H 0.33438 0.72963 0.08 0.0
H81 H 0.27503 0.60337 0.17632 0.0
H82 H 0.41155 0.83287 0.1157 0.0
H83 H 0.41661 0.82508 0.18165 0.0
Gd84 Gd 0.83067 0.18242 0.34041 0.0
Gd85 Gd 0.76173 0.2718 0.39702 0.0
C86 C 0.71318 0.44102 0.36183 0.0
C87 C 0.80936 0.54509 0.38806 0.0
C88 C 0.80158 0.43231 0.39668 0.0
C89 C 0.74126 0.40094 0.37609 0.0
C90 C 0.83652 0.50482 0.40269 0.0
C91 C 0.74774 0.51324 0.36777 0.0
C92 C 0.65071 0.40716 0.34239 0.0
C93 C 0.61705 0.33495 0.33828 0.0
N94 N 0.70932 0.33108 0.37053 0.0
C95 C 0.64676 0.29745 0.35308 0.0
H96 H 0.61975 0.24153 0.35037 0.0
C97 C 0.88648 0.4209 0.43042 0.0
N98 N 0.82712 0.39199 0.40998 0.0
C99 C 0.92295 0.49261 0.43698 0.0
C100 C 0.89799 0.53479 0.42303 0.0
H101 H 0.90716 0.38943 0.44103 0.0
H102 H 0.72708 0.54489 0.35691 0.0
H103 H 0.97858 0.26308 0.3895 0.0
H104 H 0.62747 0.43609 0.331 0.0
H105 H 0.56804 0.30807 0.32389 0.0
H106 H 0.83552 0.60087 0.39236 0.0
H107 H 0.72377 0.0374 0.29631 0.0
H108 H 0.01367 0.10842 0.4391 0.0
H109 H 0.04811 0.23215 0.42932 0.0
H110 H 0.83466 0.89504 0.38798 0.0
H111 H 0.97057 0.51535 0.45266 0.0
H112 H 0.9266 0.59037 0.42804 0.0
H113 H 0.93314 0.98246 0.42383 0.0
H114 H 0.68715 0.91189 0.29769 0.0
N115 N 0.90399 0.15793 0.37686 0.0
C116 C 0.9828 0.1217 0.42147 0.0
C117 C 1.00249 0.19156 0.41592 0.0
C118 C 0.92455 0.06994 0.40339 0.0
C119 C 0.88612 0.09013 0.38084 0.0
C120 C 0.96276 0.20889 0.39314 0.0
N121 N 0.79815 0.06375 0.33835 0.0
C122 C 0.83112 0.04128 0.36089 0.0
C123 C 0.72761 0.94767 0.31572 0.0
C124 C 0.7591 0.92322 0.33998 0.0
C125 C 0.74857 0.01866 0.31493 0.0
C126 C 0.8124 0.97038 0.36258 0.0
H127 H 0.74298 0.86826 0.3405 0.0
O128 O 0.83911 0.16694 0.28274 0.0
O129 O 0.77993 0.24599 0.34204 0.0
O130 O 0.67077 0.17103 0.37826 0.0
O131 O 0.71635 0.10201 0.35606 0.0
O132 O 0.74931 0.17359 0.30082 0.0
O133 O 0.92921 0.244 0.31101 0.0
O134 O 0.74883 0.27257 0.45487 0.0
O135 O 0.79801 0.19347 0.39602 0.0
O136 O 0.91038 0.29785 0.35453 0.0
O137 O 0.84302 0.35058 0.36068 0.0
O138 O 0.83754 0.26594 0.43615 0.0
O139 O 0.65804 0.2322 0.41942 0.0
C140 C 0.74034 0.22176 0.31508 0.0
C141 C 0.84857 0.94934 0.38604 0.0
C142 C 0.90461 0.99909 0.40644 0.0
C143 C 0.90459 0.21454 0.2799 0.0
C144 C 0.94995 0.19815 0.25665 0.0
C145 C 0.95582 0.13926 0.26453 0.0
C146 C 0.98689 0.2404 0.22621 0.0
C147 C 0.03009 0.22397 0.20445 0.0
C148 C 0.99716 0.1223 0.24297 0.0
C149 C 0.03392 0.16405 0.21343 0.0
C150 C 0.66312 0.11093 0.36682 0.0
C151 C 0.83429 0.20971 0.42442 0.0
C152 C 0.68245 0.25225 0.45202 0.0
C153 C 0.65987 0.29535 0.47142 0.0
C154 C 0.63094 0.33095 0.45331 0.0
C155 C 0.66917 0.30206 0.50888 0.0
C156 C 0.64751 0.34194 0.52873 0.0
C157 C 0.61176 0.37288 0.47255 0.0
C158 C 0.61932 0.37801 0.51 0.0
C159 C 0.90299 0.35428 0.35359 0.0
H160 H 0.92816 0.10619 0.2874 0.0
H161 H 0.98321 0.28639 0.22001 0.0
H162 H 1.00107 0.07653 0.24932 0.0
H163 H 0.06578 0.14939 0.19745 0.0
H164 H 0.62262 0.32624 0.42448 0.0
H165 H 0.69217 0.2749 0.52256 0.0
H166 H 0.58919 0.4 0.45851 0.0
H167 H 0.60001 0.40775 0.52424 0.0
Gd168 Gd 0.64685 0.82201 0.67285 0.0
Gd169 Gd 0.47881 0.75806 0.72189 0.0
C170 C 0.281 0.73951 0.67223 0.0
C171 C 0.28094 0.84193 0.69589 0.0
C172 C 0.37333 0.81763 0.71253 0.0
C173 C 0.34373 0.75878 0.69081 0.0
C174 C 0.34172 0.85932 0.71564 0.0
C175 C 0.25063 0.78218 0.67427 0.0
C176 C 0.24943 0.67671 0.65313 0.0
C177 C 0.2787 0.6334 0.65431 0.0
N178 N 0.3737 0.71788 0.68992 0.0
C179 C 0.34045 0.65436 0.67354 0.0
H180 H 0.36186 0.61988 0.67519 0.0
C181 C 0.46243 0.88972 0.75344 0.0
N182 N 0.43321 0.83385 0.73066 0.0
C183 C 0.43257 0.93225 0.75756 0.0
C184 C 0.37213 0.91715 0.73853 0.0
H185 H 0.50951 0.90287 0.76808 0.0
H186 H 0.20286 0.76863 0.65985 0.0
H187 H 0.7102 0.96682 0.72435 0.0
H188 H 0.20129 0.66012 0.63844 0.0
H189 H 0.25356 0.58371 0.64059 0.0
H190 H 0.25647 0.87386 0.69742 0.0
H191 H 0.68238 0.70882 0.63328 0.0
H192 H 0.89234 0.99399 0.77898 0.0
H193 H 0.80619 0.03211 0.7667 0.0
H194 H 0.92624 0.81198 0.73047 0.0
H195 H 0.45653 0.97701 0.77523 0.0
H196 H 0.34948 0.95047 0.74171 0.0
H197 H 0.93656 0.91124 0.76547 0.0
H198 H 0.76772 0.66737 0.63817 0.0
N199 N 0.74004 0.89083 0.71249 0.0
C200 C 0.85015 0.96495 0.76017 0.0
C201 C 0.80173 0.98669 0.75324 0.0
C202 C 0.84433 0.90683 0.74214 0.0
C203 C 0.78821 0.87075 0.71804 0.0
C204 C 0.74717 0.94929 0.72897 0.0
N205 N 0.72897 0.78375 0.67501 0.0
C206 C 0.78237 0.81516 0.69864 0.0
C207 C 0.77238 0.70888 0.65545 0.0
C208 C 0.82642 0.73918 0.68063 0.0
C209 C 0.7243 0.73248 0.65272 0.0
C210 C 0.83246 0.79364 0.70235 0.0
H211 H 0.86377 0.72102 0.68265 0.0
O212 O 0.68225 0.83258 0.61693 0.0
O213 O 0.53343 0.7731 0.66981 0.0
O214 O 0.48561 0.66364 0.7045 0.0
O215 O 0.60389 0.70567 0.68919 0.0
O216 O 0.58179 0.74843 0.62876 0.0
O217 O 0.68682 0.92102 0.64372 0.0
O218 O 0.4645 0.74239 0.77955 0.0
O219 O 0.59176 0.78735 0.72573 0.0
O220 O 0.61488 0.90591 0.68491 0.0
O221 O 0.49482 0.84284 0.68349 0.0
O222 O 0.55624 0.82686 0.7648 0.0
O223 O 0.39472 0.66013 0.7433 0.0
C224 C 0.52306 0.7394 0.64083 0.0
C225 C 0.88744 0.82796 0.72703 0.0
C226 C 0.89332 0.88447 0.74694 0.0
C227 C 0.69836 0.8976 0.61368 0.0
C228 C 0.76296 0.94449 0.59296 0.0
C229 C 0.82682 0.95097 0.60359 0.0
C230 C 0.76107 0.98208 0.56201 0.0
C231 C 0.82307 0.02653 0.54233 0.0
C232 C 0.88763 0.99357 0.58407 0.0
C233 C 0.88592 0.0309 0.5539 0.0
C234 C 0.53902 0.65375 0.69702 0.0
C235 C 0.60903 0.82078 0.75499 0.0
C236 C 0.40681 0.68316 0.77648 0.0
C237 C 0.34868 0.67964 0.79754 0.0
C238 C 0.30145 0.69736 0.78232 0.0
C239 C 0.34635 0.66732 0.83467 0.0
C240 C 0.29882 0.67483 0.85705 0.0
C241 C 0.2563 0.70808 0.80429 0.0
C242 C 0.25566 0.69806 0.84154 0.0
C243 C 0.55317 0.90198 0.67968 0.0
H244 H 0.82955 0.92273 0.62695 0.0
H245 H 0.71198 0.97778 0.55377 0.0
H246 H 0.93663 0.99789 0.59244 0.0
H247 H 0.93424 0.06341 0.53947 0.0
H248 H 0.29973 0.70357 0.75368 0.0
H249 H 0.38086 0.65022 0.84567 0.0
H250 H 0.22133 0.72366 0.79236 0.0
H251 H 0.21975 0.7063 0.85794 0.0
Gd252 Gd 0.82474 0.64137 1.00407 0.0
Gd253 Gd 0.75875 0.49815 0.06988 0.0
C254 C 0.58661 0.27143 0.05719 0.0
C255 C 0.49699 0.2642 0.09807 0.0
C256 C 0.60594 0.37356 0.09063 0.0
C257 C 0.62885 0.34262 0.06576 0.0
C258 C 0.53966 0.33465 0.10703 0.0
C259 C 0.52046 0.23264 0.07325 0.0
C260 C 0.61253 0.24096 0.03316 0.0
C261 C 0.67963 0.28082 1.01901 0.0
N262 N 0.69293 0.38159 0.05051 0.0
C263 C 0.71963 0.35098 0.02849 0.0
H264 H 0.77135 0.38074 1.01742 0.0
C265 C 0.62769 0.47418 0.12332 0.0
N266 N 0.64803 0.44214 0.09833 0.0
C267 C 0.56235 0.43774 0.14009 0.0
C268 C 0.51805 0.36775 0.13186 0.0
H269 H 0.66092 0.52831 0.12993 0.0
H270 H 0.48725 0.17803 0.06686 0.0
H271 H 0.72504 0.68801 0.05417 0.0
H272 H 0.58167 0.18654 0.02585 0.0
H273 H 0.70071 0.25755 1.00085 0.0
H274 H 0.44587 0.23358 0.11032 0.0
H275 H 0.98019 0.69655 0.96432 0.0
H276 H 0.85833 0.88654 0.10094 0.0
H277 H 0.74057 0.78526 0.09179 0.0
H278 H 0.08457 0.94838 0.05467 0.0
H279 H 0.5462 0.46373 0.15939 0.0
H280 H 0.46742 0.3397 0.14491 0.0
H281 H 0.98658 0.94627 0.08754 0.0
H282 H 0.10041 0.79538 0.96836 0.0
N283 N 0.83321 0.73261 0.04094 0.0
C284 C 0.8519 0.84385 0.084 0.0
C285 C 0.78539 0.78687 0.07885 0.0
C286 C 0.90926 0.84538 0.06697 0.0
C287 C 0.89808 0.78845 0.04515 0.0
C288 C 0.77688 0.73154 0.05714 0.0
N289 N 0.94024 0.73502 1.00522 0.0
C290 C 0.95329 0.78943 0.02693 0.0
C291 C 0.05972 0.7941 0.98528 0.0
C292 C 0.07476 0.84886 1.00888 0.0
C293 C 0.99162 0.7379 0.98334 0.0
C294 C 0.02109 0.84764 0.02962 0.0
H295 H 0.12748 0.8926 1.01016 0.0
O296 O 0.85098 0.67535 0.94782 0.0
O297 O 0.75904 0.52969 1.01331 0.0
O298 O 0.84669 0.4983 0.03895 0.0
O299 O 0.90733 0.6052 1.00844 0.0
O300 O 0.81264 0.55804 0.96464 0.0
O301 O 0.76258 0.67499 0.97265 0.0
O302 O 0.77845 0.48796 0.12633 0.0
O303 O 0.83687 0.61169 0.06114 0.0
O304 O 0.7058 0.59816 1.01474 0.0
O305 O 0.66266 0.49837 0.05097 0.0
O306 O 0.77779 0.58528 0.10743 0.0
O307 O 0.81767 0.44763 0.08432 0.0
C308 C 0.76796 0.50628 0.98399 0.0
C309 C 0.0328 0.90348 0.05209 0.0
C310 C 0.97699 0.90234 0.07074 0.0
C311 C 0.79949 0.68776 0.94317 0.0
C312 C 0.8133 0.75066 0.92151 0.0
C313 C 0.87039 0.81556 0.93034 0.0
C314 C 0.7698 0.74649 0.89188 0.0
C315 C 0.78325 0.80724 0.87189 0.0
C316 C 0.88451 0.87495 0.9105 0.0
C317 C 0.84161 0.87099 0.88178 0.0
C318 C 0.90159 0.54543 1.02078 0.0
C319 C 0.82907 0.6358 0.09086 0.0
C320 C 0.80217 0.44587 0.11846 0.0
C321 C 0.76485 0.37627 0.13509 0.0
C322 C 0.75293 0.31662 0.11579 0.0
C323 C 0.73767 0.36883 0.17003 0.0
C324 C 0.70117 0.30297 0.18638 0.0
C325 C 0.71277 0.25066 0.13088 0.0
C326 C 0.68733 0.24364 0.16601 0.0
C327 C 0.65327 0.54287 0.03127 0.0
H328 H 0.90426 0.82031 0.95264 0.0
H329 H 0.72512 0.69673 0.88498 0.0
H330 H 0.92902 0.9247 0.91756 0.0
H331 H 0.85433 0.91835 0.86711 0.0
H332 H 0.77416 0.32059 0.08896 0.0
H333 H 0.74706 0.41478 0.18497 0.0
H334 H 0.70334 0.20497 0.11576 0.0
H335 H 0.66071 0.19193 0.17777 0.0
Gd336 Gd 0.20313 0.81228 0.34404 0.0
Gd337 Gd 0.28057 0.73236 0.4015 0.0
C338 C 0.50189 0.76199 0.39949 0.0
C339 C 0.49179 0.67821 0.35421 0.0
C340 C 0.39091 0.68955 0.37036 0.0
C341 C 0.43071 0.74097 0.39462 0.0
C342 C 0.42048 0.65623 0.35041 0.0
C343 C 0.53253 0.7312 0.37867 0.0
C344 C 0.53974 0.81244 0.42556 0.0
C345 C 0.50594 0.83898 0.44669 0.0
N346 N 0.39912 0.7692 0.41423 0.0
C347 C 0.43512 0.81603 0.44099 0.0
H348 H 0.40991 0.83701 0.45766 0.0
C349 C 0.27938 0.61376 0.34677 0.0
N350 N 0.3224 0.67 0.36744 0.0
C351 C 0.30605 0.57888 0.32648 0.0
C352 C 0.37714 0.6008 0.32792 0.0
H353 H 0.22477 0.59697 0.34445 0.0
H354 H 0.58725 0.74702 0.38179 0.0
H355 H 0.06473 0.71881 0.39739 0.0
H356 H 0.59457 0.8302 0.43005 0.0
H357 H 0.53438 0.8771 0.46739 0.0
H358 H 0.51559 0.65372 0.33887 0.0
H359 H 0.30763 0.9657 0.3053 0.0
H360 H 1.00457 0.85617 0.44643 0.0
H361 H 0.98566 0.73718 0.43713 0.0
H362 H 0.17032 0.08003 0.39813 0.0
H363 H 0.27175 0.53551 0.3095 0.0
H364 H 0.39774 0.57381 0.31213 0.0
H365 H 0.07469 0.98436 0.43226 0.0
H366 H 0.33341 0.08792 0.30939 0.0
N367 N 0.12748 0.82606 0.38375 0.0
C368 C 0.03915 0.8483 0.42869 0.0
C369 C 0.0283 0.78108 0.42349 0.0
C370 C 0.09433 0.90452 0.41075 0.0
C371 C 0.13768 0.89134 0.38792 0.0
C372 C 0.07324 0.77085 0.40082 0.0
N373 N 0.23034 0.92937 0.34664 0.0
C374 C 0.1914 0.94492 0.36899 0.0
C375 C 0.29366 0.04832 0.32654 0.0
C376 C 0.25611 0.06575 0.3507 0.0
C377 C 0.2792 0.97926 0.32442 0.0
C378 C 0.20345 0.01359 0.37194 0.0
H379 H 0.26707 0.11919 0.35216 0.0
O380 O 0.19994 0.83284 0.2865 0.0
O381 O 0.24891 0.74291 0.34593 0.0
O382 O 0.3705 0.82867 0.3788 0.0
O383 O 0.31969 0.89376 0.357 0.0
O384 O 0.28675 0.8218 0.30686 0.0
O385 O 0.10449 0.76405 0.31384 0.0
O386 O 0.22112 0.62814 0.42338 0.0
O387 O 0.21891 0.78896 0.40078 0.0
O388 O 0.12381 0.69451 0.34804 0.0
O389 O 0.17671 0.64769 0.38401 0.0
O390 O 0.29789 0.81908 0.43871 0.0
O391 O 0.27457 0.71484 0.45965 0.0
C392 C 0.29062 0.76945 0.31954 0.0
C393 C 0.16165 0.02755 0.39531 0.0
C394 C 0.10713 0.97307 0.41468 0.0
C395 C 0.13295 0.79239 0.28296 0.0
C396 C 0.09552 0.81743 0.25887 0.0
C397 C 0.10001 0.88171 0.26594 0.0
C398 C 0.05702 0.77863 0.22802 0.0
C399 C 0.02278 0.80409 0.20496 0.0
C400 C 0.06772 0.9075 0.24314 0.0
C401 C 0.02972 0.86942 0.21313 0.0
C402 C 0.37499 0.88701 0.36659 0.0
C403 C 0.25209 0.83261 0.42587 0.0
C404 C 0.24179 0.64741 0.45627 0.0
C405 C 0.27298 0.61068 0.47484 0.0
C406 C 0.28972 0.56571 0.45605 0.0
C407 C 0.29217 0.62604 0.5111 0.0
C408 C 0.33367 0.60241 0.52795 0.0
C409 C 0.32714 0.53845 0.47314 0.0
C410 C 0.3502 0.55756 0.50854 0.0
C411 C 0.12451 0.64095 0.36419 0.0
H412 H 0.12903 0.91233 0.28904 0.0
H413 H 0.05272 0.72857 0.22245 0.0
H414 H 0.07201 0.95749 0.24883 0.0
H415 H 1.00545 0.89137 0.19615 0.0
H416 H 0.27558 0.55291 0.42795 0.0
H417 H 0.27731 0.65935 0.52545 0.0
H418 H 0.34088 0.50471 0.45841 0.0
H419 H 0.38354 0.5394 0.51982 0.0
Gd420 Gd 0.38451 0.19639 0.67122 0.0
Gd421 Gd 0.51423 0.25598 0.74266 0.0
C422 C 0.74295 0.31871 0.72583 0.0
C423 C 0.75316 0.232 0.76166 0.0
C424 C 0.6423 0.23088 0.75885 0.0
C425 C 0.67168 0.28792 0.73549 0.0
C426 C 0.68329 0.20327 0.77261 0.0
C427 C 0.78288 0.28951 0.73834 0.0
C428 C 0.77283 0.37948 0.70489 0.0
C429 C 0.73285 0.40991 0.69548 0.0
N430 N 0.63214 0.31591 0.72404 0.0
C431 C 0.66282 0.37808 0.70603 0.0
H432 H 0.63355 0.40299 0.69877 0.0
C433 C 0.54575 0.15176 0.79447 0.0
N434 N 0.57408 0.20316 0.76871 0.0
C435 C 0.58434 0.12272 0.80858 0.0
C436 C 0.65308 0.14792 0.79727 0.0
H437 H 0.49322 0.13223 0.80416 0.0
H438 H 0.8374 0.31216 0.73085 0.0
H439 H 0.32968 0.03465 0.70438 0.0
H440 H 0.82727 0.40457 0.69688 0.0
H441 H 0.75598 0.45812 0.68021 0.0
H442 H 0.78508 0.21093 0.77165 0.0
H443 H 0.33183 0.30488 0.63922 0.0
H444 H 0.12615 0.95704 0.74977 0.0
H445 H 0.22836 0.94303 0.73708 0.0
H446 H 0.06834 0.13292 0.71902 0.0
H447 H 0.56109 0.08107 0.82833 0.0
H448 H 0.68283 0.12526 0.80832 0.0
H449 H 0.06711 0.0286 0.74333 0.0
H450 H 0.23143 0.32432 0.64558 0.0
N451 N 0.28681 0.10197 0.69941 0.0
C452 C 0.17068 0.99779 0.73546 0.0
C453 C 0.22821 0.98958 0.72816 0.0
C454 C 0.17082 0.058 0.72368 0.0
C455 C 0.23037 0.10973 0.70541 0.0
C456 C 0.28574 0.04195 0.70959 0.0
N457 N 0.28871 0.21594 0.67382 0.0
C458 C 0.23147 0.16873 0.69229 0.0
C459 C 0.23098 0.2807 0.65919 0.0
C460 C 0.17336 0.23482 0.67995 0.0
C461 C 0.28794 0.26974 0.65588 0.0
C462 C 0.17248 0.17721 0.69627 0.0
H463 H 0.1291 0.24316 0.68233 0.0
O464 O 0.35464 0.20083 0.61539 0.0
O465 O 0.49746 0.24434 0.68287 0.0
O466 O 0.51768 0.35204 0.71975 0.0
O467 O 0.41422 0.31039 0.6864 0.0
O468 O 0.46812 0.28555 0.64017 0.0
O469 O 0.36379 0.11298 0.6331 0.0
O470 O 0.47429 0.29458 0.78525 0.0
O471 O 0.4014 0.21503 0.73047 0.0
O472 O 0.43265 0.12364 0.67548 0.0
O473 O 0.51337 0.16056 0.72261 0.0
O474 O 0.42354 0.16297 0.76933 0.0
O475 O 0.58161 0.31921 0.7864 0.0
C476 C 0.52051 0.28953 0.65784 0.0
C477 C 0.11388 0.127 0.71539 0.0
C478 C 0.11311 0.06754 0.72916 0.0
C479 C 0.34727 0.1405 0.60642 0.0
C480 C 0.2845 0.09255 0.58481 0.0
C481 C 0.21891 0.08338 0.59429 0.0
C482 C 0.28949 0.05524 0.55469 0.0
C483 C 0.22917 0.00892 0.53452 0.0
C484 C 0.15975 0.03889 0.57436 0.0
C485 C 0.16466 1.00217 0.54488 0.0
C486 C 0.47049 0.36192 0.70275 0.0
C487 C 0.37384 0.16975 0.75524 0.0
C488 C 0.5297 0.3154 0.80482 0.0
C489 C 0.51986 0.28498 0.84125 0.0
C490 C 0.45769 0.22491 0.85154 0.0
C491 C 0.575 0.31469 0.86563 0.0
C492 C 0.56822 0.28575 0.90016 0.0
C493 C 0.45126 0.19482 0.88554 0.0
C494 C 0.5063 0.22531 0.91 0.0
C495 C 0.48033 0.1185 0.69558 0.0
H496 H 0.21339 0.11082 0.61712 0.0
H497 H 0.33983 0.06126 0.54751 0.0
H498 H 0.10951 0.03268 0.58186 0.0
H499 H 0.11757 0.96852 0.52998 0.0
H500 H 0.41411 0.2011 0.8335 0.0
H501 H 0.62226 0.36225 0.85818 0.0
H502 H 0.40308 0.14865 0.89316 0.0
H503 H 0.49992 0.20322 0.93685 0.0
C504 C 0.25889 0.67888 0.27485 0.0
C505 C 0.31177 0.7325 0.29489 0.0
H506 H 0.22776 0.63135 0.22354 0.0
C507 C 0.38021 0.7675 0.28148 0.0
H508 H 0.20542 0.65246 0.28459 0.0
C509 C 0.39375 0.75542 0.2462 0.0
C510 C 0.33845 0.70921 0.22401 0.0
H511 H 0.4214 0.80967 0.29668 0.0
H512 H 0.44592 0.78689 0.23534 0.0
C513 C 0.272 0.66732 0.23958 0.0
C514 C 0.61618 0.38003 0.62292 0.0
C515 C 0.58513 0.31277 0.63776 0.0
H516 H 0.66561 0.44391 0.57683 0.0
C517 C 0.59554 0.26191 0.62115 0.0
H518 H 0.60841 0.41998 0.63541 0.0
C519 C 0.62412 0.27401 0.58645 0.0
C520 C 0.64445 0.33797 0.56882 0.0
H521 H 0.57138 0.2095 0.6321 0.0
H522 H 0.62168 0.23023 0.57216 0.0
C523 C 0.64724 0.39306 0.58893 0.0
C524 C 0.32546 0.59926 0.94276 0.0
C525 C 0.25584 0.5566 0.95323 0.0
H526 H 0.39526 0.67645 0.90549 0.0
C527 C 0.20334 0.56553 0.93728 0.0
H528 H 0.36657 0.59242 0.95458 0.0
C529 C 0.21885 0.61097 0.90833 0.0
C530 C 0.2874 0.64816 0.89477 0.0
H531 H 0.14908 0.53192 0.94464 0.0
H532 H 0.17553 0.61033 0.89431 0.0
C533 C 0.34142 0.64634 0.91425 0.0
C534 C 0.75462 0.32432 0.28246 0.0
C535 C 0.71045 0.25591 0.294 0.0
H536 H 0.78622 0.39408 0.23806 0.0
C537 C 0.64868 0.21358 0.27512 0.0
H538 H 0.80248 0.35787 0.29671 0.0
C539 C 0.63812 0.23472 0.24138 0.0
C540 C 0.69081 0.29701 0.22606 0.0
H541 H 0.6134 0.1608 0.28418 0.0
H542 H 0.5939 0.19822 0.22545 0.0
C543 C 0.74501 0.34493 0.24843 0.0
C544 C 0.43061 0.7335 0.60187 0.0
C545 C 0.45856 0.6987 0.62114 0.0
H546 H 0.37119 0.73174 0.55651 0.0
C547 C 0.4372 0.62909 0.61329 0.0
H548 H 0.4484 0.78804 0.60696 0.0
C549 C 0.38984 0.59497 0.5856 0.0
C550 C 0.36726 0.63166 0.56341 0.0
H551 H 0.45999 0.6022 0.6273 0.0
H552 H 0.37493 0.54129 0.58018 0.0
C553 C 0.38592 0.7006 0.57293 0.0
C554 C 0.64786 0.40629 0.97698 0.0
C555 C 0.71887 0.43942 0.96777 0.0
H556 H 0.54437 0.32813 0.9637 0.0
C557 C 0.74108 0.41311 0.93942 0.0
H558 H 0.62878 0.4255 0.99811 0.0
C559 C 0.69214 0.35697 0.9192 0.0
C560 C 0.62071 0.32696 0.92728 0.0
H561 H 0.79569 0.43822 0.93175 0.0
H562 H 0.7094 0.34022 0.89578 0.0
C563 C 0.59928 0.34969 0.95737 0.0
C564 C 0.49021 0.54889 1.00216 0.0
C565 C 0.43579 0.48267 1.01325 0.0
H566 H 0.60073 0.62052 0.99948 0.0
C567 C 0.45383 0.43552 0.0281 0.0
H568 H 0.47822 0.58678 0.99056 0.0
C569 C 0.52423 0.45534 0.03343 0.0
C570 C 0.57879 0.52281 0.02407 0.0
H571 H 0.4137 0.38461 0.03724 0.0
H572 H 0.53552 0.4174 0.04532 0.0
C573 C 0.56069 0.56869 1.00746 0.0
C574 C 1.00472 0.55069 0.34183 0.0
C575 C 0.06847 0.56744 0.35806 0.0
H576 H 0.90255 0.46947 0.32714 0.0
C577 C 0.07943 0.5121 0.36902 0.0
H578 H 0.99434 0.59142 0.33299 0.0
C579 C 0.02781 0.44247 0.36491 0.0
C580 C 0.96312 0.42594 0.35037 0.0
H581 H 0.12769 0.52202 0.38162 0.0
H582 H 0.03723 0.40185 0.37505 0.0
C583 C 0.95246 0.48071 0.33826 0.0
C584 C 0.56736 0.07611 0.6999 0.0
C585 C 0.5033 0.06687 0.68642 0.0
H586 H 0.63466 0.03276 0.70793 0.0
C587 C 0.46275 0.00807 0.66511 0.0
H588 H 0.60172 0.12187 0.71508 0.0
C589 C 0.48289 0.95741 0.6602 0.0
C590 C 0.54415 0.96431 0.67634 0.0
H591 H 0.41384 0.99936 0.65377 0.0
H592 H 0.44818 0.9106 0.64543 0.0
C593 C 0.5875 0.02565 0.69505 0.0
C594 C 0.45289 0.52477 0.69154 0.0
C595 C 0.52249 0.57936 0.69615 0.0
H596 H 0.38188 0.41419 0.68908 0.0
C597 C 0.57438 0.56141 0.7016 0.0
H598 H 0.41114 0.53634 0.68728 0.0
C599 C 0.55701 0.49118 0.70355 0.0
C600 C 0.4875 0.43639 0.69904 0.0
H601 H 0.62819 0.60156 0.70557 0.0
H602 H 0.59867 0.4803 0.709 0.0
C603 C 0.43581 0.45438 0.69245 0.0
C604 C 0.99288 0.43685 1.01648 0.0
C605 C 0.0635 0.48792 1.01472 0.0
H606 H 0.88731 0.4148 1.01958 0.0
C607 C 0.08007 0.55834 1.01079 0.0
H608 H 0.97785 0.38243 1.01949 0.0
C609 C 0.02787 0.57733 1.01042 0.0
C610 C 0.95744 0.52655 1.01445 0.0
H611 H 0.13392 0.59951 1.0089 0.0
H612 H 0.043 0.63196 1.00882 0.0
C613 C 0.94082 0.45591 1.0166 0.0
C614 C 0.50301 0.93094 0.3583 0.0
C615 C 0.4477 0.94549 0.36225 0.0
H616 H 0.61372 0.97072 0.35678 0.0
C617 C 0.46398 0.01496 0.36523 0.0
H618 H 0.4924 0.87785 0.35537 0.0
C619 C 0.53391 0.06823 0.36607 0.0
C620 C 0.5894 0.05348 0.36362 0.0
H621 H 0.42294 0.02795 0.36838 0.0
H622 H 0.5442 0.12111 0.3693 0.0
C623 C 0.57288 0.98417 0.35892 0.0
C624 C 0.28804 0.11213 0.80585 0.0
C625 C 0.31904 0.16667 0.7805 0.0
H626 H 0.23124 0.07444 0.85538 0.0
C627 C 0.30864 0.22425 0.78497 0.0
H628 H 0.2959 0.06763 0.80366 0.0
C629 C 0.27191 0.22887 0.81521 0.0
C630 C 0.24366 0.1756 0.8416 0.0
H631 H 0.33232 0.26767 0.76622 0.0
H632 H 0.26638 0.2746 0.8181 0.0
C633 C 0.25123 0.11652 0.83582 0.0
C634 C 0.04768 0.28906 0.14425 0.0
C635 C 0.07497 0.26935 0.17366 0.0
H636 H 0.0687 0.34337 0.093 0.0
C637 C 0.14636 0.28943 0.17253 0.0
H638 H 0.99285 0.27382 0.14385 0.0
C639 C 0.18936 0.32887 0.14368 0.0
C640 C 0.16263 0.34863 0.11427 0.0
H641 H 0.16949 0.27531 0.19445 0.0
H642 H 0.24436 0.34472 0.14456 0.0
C643 C 0.09091 0.32793 0.11481 0.0
C644 C 0.77744 0.04499 0.48192 0.0
C645 C 0.82511 0.07135 0.5109 0.0
H646 H 0.74409 0.06679 0.43103 0.0
C647 C 0.87801 0.14182 0.50918 0.0
H648 H 0.73651 0.99094 0.48199 0.0
C649 C 0.88232 0.18487 0.4802 0.0
C650 C 0.83472 0.15911 0.45142 0.0
H651 H 0.91558 0.16442 0.53086 0.0
H652 H 0.9225 0.23926 0.48066 0.0
C653 C 0.78247 0.08823 0.45241 0.0
C654 C 0.67626 0.86303 0.81303 0.0
C655 C 0.65742 0.81844 0.78303 0.0
H656 H 0.72919 0.89409 0.86393 0.0
C657 C 0.67875 0.7678 0.78281 0.0
H658 H 0.66017 0.90197 0.81451 0.0
C659 C 0.71767 0.76223 0.81184 0.0
C660 C 0.73689 0.80755 0.84174 0.0
H661 H 0.66433 0.73168 0.76051 0.0
H662 H 0.73368 0.72324 0.81061 0.0
C663 C 0.71566 0.85815 0.84158 0.0
C664 C 0.9109 0.75907 0.16941 0.0
C665 C 0.9764 0.76327 0.17358 0.0
H666 H 0.81488 0.71716 0.14002 0.0
C667 C 0.99658 0.73091 0.14697 0.0
H668 H 0.89277 0.78254 0.18921 0.0
C669 C 0.95188 0.69467 0.11761 0.0
C670 C 0.88558 0.68923 0.11439 0.0
H671 H 0.04672 0.73335 0.14893 0.0
H672 H 0.96763 0.66788 0.09858 0.0
C673 C 0.86631 0.72227 0.14074 0.0
C674 C 0.17849 0.89545 0.4995 0.0
C675 C 0.23137 0.96571 0.50345 0.0
H676 H 0.14303 0.7985 0.47161 0.0
C677 C 0.28539 0.99328 0.47753 0.0
H678 H 0.13651 0.87154 0.51908 0.0
C679 C 0.28753 0.95135 0.44944 0.0
C680 C 0.23561 0.88078 0.44619 0.0
H681 H 0.32677 0.04699 0.4793 0.0
H682 H 0.33199 0.9732 0.43125 0.0
C683 C 0.18121 0.85353 0.47171 0.0
loop_
_geom_bond_atom_site_label_1
_geom_bond_atom_site_label_2
_geom_bond_distance
_geom_bond_site_symmetry_2
_ccdc_geom_bond_type
Gd0 N31 2.661 1_556 S
Gd0 N37 2.601 . S
Gd0 O44 2.545 . S
Gd0 O45 2.606 . S
Gd0 O47 2.429 . S
Gd0 O48 2.545 . S
Gd0 O49 2.412 . S
Gd0 O51 2.362 1_556 S
Gd0 O52 2.324 1_556 S
Gd0 C59 2.828 . S
Gd1 N10 2.661 . S
Gd1 N14 2.601 . S
Gd1 O45 2.362 1_554 S
Gd1 O46 2.324 . S
Gd1 O50 2.545 . S
Gd1 O51 2.606 . S
Gd1 O53 2.429 . S
Gd1 O54 2.545 . S
Gd1 O55 2.412 . S
Gd1 C68 2.828 . S
C2 C5 1.417 1_556 S
C2 C7 1.431 . S
C2 C8 1.412 . S
C3 C6 1.437 . S
C3 C7 1.317 1_554 S
C3 H22 0.929 . S
C4 C5 1.426 . S
C4 C6 1.413 . S
C4 N14 1.359 . S
C5 C2 1.417 1_554 S
C5 C4 1.426 . S
C5 N10 1.350 . S
C6 C3 1.437 . S
C6 C4 1.413 . S
C6 C16 1.391 . S
C7 C2 1.431 . S
C7 C3 1.317 1_556 S
C7 H18 0.930 . S
C8 C2 1.412 . S
C8 C9 1.355 . S
C8 H20 0.930 . S
C9 C8 1.355 . S
C9 C11 1.402 . S
C9 H21 0.930 . S
N10 Gd1 2.661 . S
N10 C5 1.350 . S
N10 C11 1.307 1_554 S
C11 C9 1.402 . S
C11 N10 1.307 1_556 S
C11 H12 0.930 . S
H12 C11 0.930 . S
C13 N14 1.334 . S
C13 C15 1.394 . S
C13 H17 0.930 . S
N14 Gd1 2.601 . S
N14 C4 1.359 . S
N14 C13 1.334 . S
C15 C13 1.394 . S
C15 C16 1.359 . S
C15 H27 0.930 . S
C16 C6 1.391 . S
C16 C15 1.359 . S
C16 H28 0.929 . S
H17 C13 0.930 . S
H18 C7 0.930 . S
H19 C36 0.930 . S
H20 C8 0.930 . S
H21 C9 0.930 . S
H22 C3 0.929 . S
H23 C41 0.930 1_455 S
H24 C32 0.930 . S
H25 C33 0.930 . S
H26 C57 0.929 . S
H27 C15 0.930 . S
H28 C16 0.929 . S
H29 C58 0.930 . S
H30 C39 0.930 . S
N31 Gd0 2.661 1_554 S
N31 C35 1.350 . S
N31 C36 1.307 . S
C32 H24 0.930 . S
C32 C33 1.355 . S
C32 C34 1.412 . S
C33 H25 0.930 . S
C33 C32 1.355 . S
C33 C36 1.402 . S
C34 C32 1.412 . S
C34 C35 1.417 . S
C34 C58 1.431 1_455 S
C35 N31 1.350 . S
C35 C34 1.417 . S
C35 C38 1.426 . S
C36 H19 0.930 . S
C36 N31 1.307 . S
C36 C33 1.402 . S
N37 Gd0 2.601 . S
N37 C38 1.359 1_556 S
N37 C41 1.334 1_455 S
C38 C35 1.426 . S
C38 N37 1.359 1_554 S
C38 C42 1.413 1_455 S
C39 H30 0.930 . S
C39 C40 1.359 . S
C39 C41 1.394 . S
C40 C39 1.359 . S
C40 C42 1.391 1_556 S
C40 H43 0.929 . S
C41 H23 0.930 1_655 S
C41 N37 1.334 1_655 S
C41 C39 1.394 . S
C42 C38 1.413 1_655 S
C42 C40 1.391 1_554 S
C42 C57 1.437 . S
H43 C40 0.929 . S
O44 Gd0 2.545 . S
O44 C59 1.258 . S
O45 Gd0 2.606 . S
O45 Gd1 2.362 1_556 S
O45 C56 1.284 . S
O46 Gd1 2.324 . S
O46 C66 1.254 . S
O47 Gd0 2.429 . S
O47 C66 1.268 1_556 S
O48 Gd0 2.545 . S
O48 C56 1.250 . S
O49 Gd0 2.412 . S
O49 C59 1.252 . S
O50 Gd1 2.545 . S
O50 C68 1.258 . S
O51 Gd0 2.362 1_554 S
O51 Gd1 2.606 . S
O51 C67 1.284 . S
O52 Gd0 2.324 1_554 S
O52 C75 1.254 . S
O53 Gd1 2.429 . S
O53 C75 1.268 . S
O54 Gd1 2.545 . S
O54 C67 1.250 . S
O55 Gd1 2.412 . S
O55 C68 1.252 . S
C56 O45 1.284 . S
C56 O48 1.250 . S
C57 H26 0.929 . S
C57 C42 1.437 . S
C57 C58 1.317 . S
C58 H29 0.930 . S
C58 C34 1.431 1_655 S
C58 C57 1.317 . S
C59 Gd0 2.828 . S
C59 O44 1.258 . S
C59 O49 1.252 . S
C59 C60 1.497 . S
C60 C59 1.497 . S
C60 C61 1.395 . S
C60 C62 1.380 . S
C61 C60 1.395 . S
C61 C64 1.398 . S
C61 H76 0.930 . S
C62 C60 1.380 . S
C62 C63 1.391 . S
C62 H77 0.930 . S
C63 C62 1.391 . S
C63 C65 1.387 . S
C64 C61 1.398 . S
C64 C65 1.380 . S
C64 H78 0.930 . S
C65 C63 1.387 . S
C65 C64 1.380 . S
C65 H79 0.930 . S
C66 O46 1.254 . S
C66 O47 1.268 1_554 S
C67 O51 1.284 . S
C67 O54 1.250 . S
C68 Gd1 2.828 . S
C68 O50 1.258 . S
C68 O55 1.252 . S
C68 C69 1.497 . S
C69 C68 1.497 . S
C69 C70 1.395 . S
C69 C71 1.380 . S
C70 C69 1.395 . S
C70 C73 1.398 . S
C70 H80 0.930 . S
C71 C69 1.380 . S
C71 C72 1.391 . S
C71 H81 0.930 . S
C72 C71 1.391 . S
C72 C74 1.387 . S
C73 C70 1.398 . S
C73 C74 1.380 . S
C73 H82 0.930 . S
C74 C72 1.387 . S
C74 C73 1.380 . S
C74 H83 0.930 . S
C75 O52 1.254 . S
C75 O53 1.268 . S
H76 C61 0.930 . S
H77 C62 0.930 . S
H78 C64 0.930 . S
H79 C65 0.930 . S
H80 C70 0.930 . S
H81 C71 0.930 . S
H82 C73 0.930 . S
H83 C74 0.930 . S
Gd84 N115 2.661 . S
Gd84 N121 2.601 . S
Gd84 O128 2.545 . S
Gd84 O129 2.606 . S
Gd84 O131 2.429 . S
Gd84 O132 2.545 . S
Gd84 O133 2.412 . S
Gd84 O135 2.362 . S
Gd84 O136 2.324 . S
Gd84 C143 2.828 . S
Gd85 N94 2.661 . S
Gd85 N98 2.601 . S
Gd85 O129 2.362 . S
Gd85 O130 2.324 . S
Gd85 O134 2.545 . S
Gd85 O135 2.606 . S
Gd85 O137 2.429 . S
Gd85 O138 2.545 . S
Gd85 O139 2.412 . S
Gd85 C152 2.828 . S
C86 C89 1.417 . S
C86 C91 1.431 . S
C86 C92 1.412 . S
C87 C90 1.437 . S
C87 C91 1.317 . S
C87 H106 0.929 . S
C88 C89 1.426 . S
C88 C90 1.413 . S
C88 N98 1.359 . S
C89 C86 1.417 . S
C89 C88 1.426 . S
C89 N94 1.350 . S
C90 C87 1.437 . S
C90 C88 1.413 . S
C90 C100 1.391 . S
C91 C86 1.431 . S
C91 C87 1.317 . S
C91 H102 0.930 . S
C92 C86 1.412 . S
C92 C93 1.355 . S
C92 H104 0.930 . S
C93 C92 1.355 . S
C93 C95 1.402 . S
C93 H105 0.930 . S
N94 Gd85 2.661 . S
N94 C89 1.350 . S
N94 C95 1.307 . S
C95 C93 1.402 . S
C95 N94 1.307 . S
C95 H96 0.930 . S
H96 C95 0.930 . S
C97 N98 1.334 . S
C97 C99 1.394 . S
C97 H101 0.930 . S
N98 Gd85 2.601 . S
N98 C88 1.359 . S
N98 C97 1.334 . S
C99 C97 1.394 . S
C99 C100 1.359 . S
C99 H111 0.930 . S
C100 C90 1.391 . S
C100 C99 1.359 . S
C100 H112 0.929 . S
H101 C97 0.930 . S
H102 C91 0.930 . S
H103 C120 0.930 . S
H104 C92 0.930 . S
H105 C93 0.930 . S
H106 C87 0.929 . S
H107 C125 0.930 1_545 S
H108 C116 0.930 1_455 S
H109 C117 0.930 . S
H110 C141 0.929 . S
H111 C99 0.930 . S
H112 C100 0.929 . S
H113 C142 0.930 . S
H114 C123 0.930 . S
N115 Gd84 2.661 . S
N115 C119 1.350 . S
N115 C120 1.307 . S
C116 H108 0.930 1_655 S
C116 C117 1.355 1_655 S
C116 C118 1.412 . S
C117 H109 0.930 . S
C117 C116 1.355 1_455 S
C117 C120 1.402 1_455 S
C118 C116 1.412 . S
C118 C119 1.417 . S
C118 C142 1.431 1_545 S
C119 N115 1.350 . S
C119 C118 1.417 . S
C119 C122 1.426 . S
C120 H103 0.930 . S
C120 N115 1.307 . S
C120 C117 1.402 1_655 S
N121 Gd84 2.601 . S
N121 C122 1.359 . S
N121 C125 1.334 1_545 S
C122 C119 1.426 . S
C122 N121 1.359 . S
C122 C126 1.413 1_545 S
C123 H114 0.930 . S
C123 C124 1.359 . S
C123 C125 1.394 . S
C124 C123 1.359 . S
C124 C126 1.391 . S
C124 H127 0.929 . S
C125 H107 0.930 1_565 S
C125 N121 1.334 1_565 S
C125 C123 1.394 . S
C126 C122 1.413 1_565 S
C126 C124 1.391 . S
C126 C141 1.437 . S
H127 C124 0.929 . S
O128 Gd84 2.545 . S
O128 C143 1.258 . S
O129 Gd84 2.606 . S
O129 Gd85 2.362 . S
O129 C140 1.284 . S
O130 Gd85 2.324 . S
O130 C150 1.254 . S
O131 Gd84 2.429 . S
O131 C150 1.268 . S
O132 Gd84 2.545 . S
O132 C140 1.250 . S
O133 Gd84 2.412 . S
O133 C143 1.252 . S
O134 Gd85 2.545 . S
O134 C152 1.258 . S
O135 Gd84 2.362 . S
O135 Gd85 2.606 . S
O135 C151 1.284 . S
O136 Gd84 2.324 . S
O136 C159 1.254 . S
O137 Gd85 2.429 . S
O137 C159 1.268 . S
O138 Gd85 2.545 . S
O138 C151 1.250 . S
O139 Gd85 2.412 . S
O139 C152 1.252 . S
C140 O129 1.284 . S
C140 O132 1.250 . S
C141 H110 0.929 . S
C141 C126 1.437 . S
C141 C142 1.317 . S
C142 H113 0.930 . S
C142 C118 1.431 1_565 S
C142 C141 1.317 . S
C143 Gd84 2.828 . S
C143 O128 1.258 . S
C143 O133 1.252 . S
C143 C144 1.497 . S
C144 C143 1.497 . S
C144 C145 1.395 . S
C144 C146 1.380 . S
C145 C144 1.395 . S
C145 C148 1.398 . S
C145 H160 0.930 . S
C146 C144 1.380 . S
C146 C147 1.391 1_655 S
C146 H161 0.930 1_655 S
C147 C146 1.391 1_455 S
C147 C149 1.387 . S
C148 C145 1.398 . S
C148 C149 1.380 1_655 S
C148 H162 0.930 . S
C149 C147 1.387 . S
C149 C148 1.380 1_455 S
C149 H163 0.930 . S
C150 O130 1.254 . S
C150 O131 1.268 . S
C151 O135 1.284 . S
C151 O138 1.250 . S
C152 Gd85 2.828 . S
C152 O134 1.258 . S
C152 O139 1.252 . S
C152 C153 1.497 . S
C153 C152 1.497 . S
C153 C154 1.395 . S
C153 C155 1.380 . S
C154 C153 1.395 . S
C154 C157 1.398 . S
C154 H164 0.930 . S
C155 C153 1.380 . S
C155 C156 1.391 . S
C155 H165 0.930 . S
C156 C155 1.391 . S
C156 C158 1.387 . S
C157 C154 1.398 . S
C157 C158 1.380 . S
C157 H166 0.930 . S
C158 C156 1.387 . S
C158 C157 1.380 . S
C158 H167 0.930 . S
C159 O136 1.254 . S
C159 O137 1.268 . S
H160 C145 0.930 . S
H161 C146 0.930 1_455 S
H162 C148 0.930 . S
H163 C149 0.930 . S
H164 C154 0.930 . S
H165 C155 0.930 . S
H166 C157 0.930 . S
H167 C158 0.930 . S
Gd168 N199 2.661 . S
Gd168 N205 2.601 . S
Gd168 O212 2.545 . S
Gd168 O213 2.606 . S
Gd168 O215 2.429 . S
Gd168 O216 2.545 . S
Gd168 O217 2.412 . S
Gd168 O219 2.362 . S
Gd168 O220 2.324 . S
Gd168 C227 2.828 . S
Gd169 N178 2.661 . S
Gd169 N182 2.601 . S
Gd169 O213 2.362 . S
Gd169 O214 2.324 . S
Gd169 O218 2.545 . S
Gd169 O219 2.606 . S
Gd169 O221 2.429 . S
Gd169 O222 2.545 . S
Gd169 O223 2.412 . S
Gd169 C236 2.828 . S
C170 C173 1.417 . S
C170 C175 1.431 . S
C170 C176 1.412 . S
C171 C174 1.437 . S
C171 C175 1.317 . S
C171 H190 0.929 . S
C172 C173 1.426 . S
C172 C174 1.413 . S
C172 N182 1.359 . S
C173 C170 1.417 . S
C173 C172 1.426 . S
C173 N178 1.350 . S
C174 C171 1.437 . S
C174 C172 1.413 . S
C174 C184 1.391 . S
C175 C170 1.431 . S
C175 C171 1.317 . S
C175 H186 0.930 . S
C176 C170 1.412 . S
C176 C177 1.355 . S
C176 H188 0.930 . S
C177 C176 1.355 . S
C177 C179 1.402 . S
C177 H189 0.930 . S
N178 Gd169 2.661 . S
N178 C173 1.350 . S
N178 C179 1.307 . S
C179 C177 1.402 . S
C179 N178 1.307 . S
C179 H180 0.930 . S
H180 C179 0.930 . S
C181 N182 1.334 . S
C181 C183 1.394 . S
C181 H185 0.930 . S
N182 Gd169 2.601 . S
N182 C172 1.359 . S
N182 C181 1.334 . S
C183 C181 1.394 . S
C183 C184 1.359 . S
C183 H195 0.930 . S
C184 C174 1.391 . S
C184 C183 1.359 . S
C184 H196 0.929 . S
H185 C181 0.930 . S
H186 C175 0.930 . S
H187 C204 0.930 . S
H188 C176 0.930 . S
H189 C177 0.930 . S
H190 C171 0.929 . S
H191 C209 0.930 . S
H192 C200 0.930 1_545 S
H193 C201 0.930 . S
H194 C225 0.929 . S
H195 C183 0.930 . S
H196 C184 0.929 . S
H197 C226 0.930 . S
H198 C207 0.930 . S
N199 Gd168 2.661 . S
N199 C203 1.350 . S
N199 C204 1.307 . S
C200 H192 0.930 1_565 S
C200 C201 1.355 1_565 S
C200 C202 1.412 . S
C201 H193 0.930 . S
C201 C200 1.355 1_545 S
C201 C204 1.402 1_545 S
C202 C200 1.412 . S
C202 C203 1.417 . S
C202 C226 1.431 . S
C203 N199 1.350 . S
C203 C202 1.417 . S
C203 C206 1.426 . S
C204 H187 0.930 . S
C204 N199 1.307 . S
C204 C201 1.402 1_565 S
N205 Gd168 2.601 . S
N205 C206 1.359 . S
N205 C209 1.334 . S
C206 C203 1.426 . S
C206 N205 1.359 . S
C206 C210 1.413 . S
C207 H198 0.930 . S
C207 C208 1.359 . S
C207 C209 1.394 . S
C208 C207 1.359 . S
C208 C210 1.391 . S
C208 H211 0.929 . S
C209 H191 0.930 . S
C209 N205 1.334 . S
C209 C207 1.394 . S
C210 C206 1.413 . S
C210 C208 1.391 . S
C210 C225 1.437 . S
H211 C208 0.929 . S
O212 Gd168 2.545 . S
O212 C227 1.258 . S
O213 Gd168 2.606 . S
O213 Gd169 2.362 . S
O213 C224 1.284 . S
O214 Gd169 2.324 . S
O214 C234 1.254 . S
O215 Gd168 2.429 . S
O215 C234 1.268 . S
O216 Gd168 2.545 . S
O216 C224 1.250 . S
O217 Gd168 2.412 . S
O217 C227 1.252 . S
O218 Gd169 2.545 . S
O218 C236 1.258 . S
O219 Gd168 2.362 . S
O219 Gd169 2.606 . S
O219 C235 1.284 . S
O220 Gd168 2.324 . S
O220 C243 1.254 . S
O221 Gd169 2.429 . S
O221 C243 1.268 . S
O222 Gd169 2.545 . S
O222 C235 1.250 . S
O223 Gd169 2.412 . S
O223 C236 1.252 . S
C224 O213 1.284 . S
C224 O216 1.250 . S
C225 H194 0.929 . S
C225 C210 1.437 . S
C225 C226 1.317 . S
C226 H197 0.930 . S
C226 C202 1.431 . S
C226 C225 1.317 . S
C227 Gd168 2.828 . S
C227 O212 1.258 . S
C227 O217 1.252 . S
C227 C228 1.497 . S
C228 C227 1.497 . S
C228 C229 1.395 . S
C228 C230 1.380 . S
C229 C228 1.395 . S
C229 C232 1.398 . S
C229 H244 0.930 . S
C230 C228 1.380 . S
C230 C231 1.391 1_565 S
C230 H245 0.930 1_565 S
C231 C230 1.391 1_545 S
C231 C233 1.387 . S
C232 C229 1.398 . S
C232 C233 1.380 1_565 S
C232 H246 0.930 . S
C233 C231 1.387 . S
C233 C232 1.380 1_545 S
C233 H247 0.930 . S
C234 O214 1.254 . S
C234 O215 1.268 . S
C235 O219 1.284 . S
C235 O222 1.250 . S
C236 Gd169 2.828 . S
C236 O218 1.258 . S
C236 O223 1.252 . S
C236 C237 1.497 . S
C237 C236 1.497 . S
C237 C238 1.395 . S
C237 C239 1.380 . S
C238 C237 1.395 . S
C238 C241 1.398 . S
C238 H248 0.930 . S
C239 C237 1.380 . S
C239 C240 1.391 . S
C239 H249 0.930 . S
C240 C239 1.391 . S
C240 C242 1.387 . S
C241 C238 1.398 . S
C241 C242 1.380 . S
C241 H250 0.930 . S
C242 C240 1.387 . S
C242 C241 1.380 . S
C242 H251 0.930 . S
C243 O220 1.254 . S
C243 O221 1.268 . S
H244 C229 0.930 . S
H245 C230 0.930 1_545 S
H246 C232 0.930 . S
H247 C233 0.930 . S
H248 C238 0.930 . S
H249 C239 0.930 . S
H250 C241 0.930 . S
H251 C242 0.930 . S
Gd252 N283 2.661 1_556 S
Gd252 N289 2.601 . S
Gd252 O296 2.545 . S
Gd252 O297 2.606 . S
Gd252 O299 2.429 . S
Gd252 O300 2.545 . S
Gd252 O301 2.412 . S
Gd252 O303 2.362 1_556 S
Gd252 O304 2.324 1_556 S
Gd252 C311 2.828 . S
Gd253 N262 2.661 . S
Gd253 N266 2.601 . S
Gd253 O297 2.362 1_554 S
Gd253 O298 2.324 . S
Gd253 O302 2.545 . S
Gd253 O303 2.606 . S
Gd253 O305 2.429 . S
Gd253 O306 2.545 . S
Gd253 O307 2.412 . S
Gd253 C320 2.828 . S
C254 C257 1.417 1_556 S
C254 C259 1.431 . S
C254 C260 1.412 . S
C255 C258 1.437 . S
C255 C259 1.317 1_554 S
C255 H274 0.929 . S
C256 C257 1.426 . S
C256 C258 1.413 . S
C256 N266 1.359 . S
C257 C254 1.417 1_554 S
C257 C256 1.426 . S
C257 N262 1.350 . S
C258 C255 1.437 . S
C258 C256 1.413 . S
C258 C268 1.391 . S
C259 C254 1.431 . S
C259 C255 1.317 1_556 S
C259 H270 0.930 . S
C260 C254 1.412 . S
C260 C261 1.355 . S
C260 H272 0.930 . S
C261 C260 1.355 . S
C261 C263 1.402 . S
C261 H273 0.930 . S
N262 Gd253 2.661 . S
N262 C257 1.350 . S
N262 C263 1.307 1_554 S
C263 C261 1.402 . S
C263 N262 1.307 1_556 S
C263 H264 0.930 . S
H264 C263 0.930 . S
C265 N266 1.334 . S
C265 C267 1.394 . S
C265 H269 0.930 . S
N266 Gd253 2.601 . S
N266 C256 1.359 . S
N266 C265 1.334 . S
C267 C265 1.394 . S
C267 C268 1.359 . S
C267 H279 0.930 . S
C268 C258 1.391 . S
C268 C267 1.359 . S
C268 H280 0.929 . S
H269 C265 0.930 . S
H270 C259 0.930 . S
H271 C288 0.930 . S
H272 C260 0.930 . S
H273 C261 0.930 . S
H274 C255 0.929 . S
H275 C293 0.930 1_655 S
H276 C284 0.930 . S
H277 C285 0.930 . S
H278 C309 0.929 . S
H279 C267 0.930 . S
H280 C268 0.929 . S
H281 C310 0.930 . S
H282 C291 0.930 . S
N283 Gd252 2.661 1_554 S
N283 C287 1.350 . S
N283 C288 1.307 . S
C284 H276 0.930 . S
C284 C285 1.355 . S
C284 C286 1.412 . S
C285 H277 0.930 . S
C285 C284 1.355 . S
C285 C288 1.402 . S
C286 C284 1.412 . S
C286 C287 1.417 . S
C286 C310 1.431 1_655 S
C287 N283 1.350 . S
C287 C286 1.417 . S
C287 C290 1.426 . S
C288 H271 0.930 . S
C288 N283 1.307 . S
C288 C285 1.402 . S
N289 Gd252 2.601 . S
N289 C290 1.359 1_556 S
N289 C293 1.334 1_655 S
C290 C287 1.426 . S
C290 N289 1.359 1_554 S
C290 C294 1.413 1_655 S
C291 H282 0.930 . S
C291 C292 1.359 . S
C291 C293 1.394 . S
C292 C291 1.359 . S
C292 C294 1.391 1_556 S
C292 H295 0.929 . S
C293 H275 0.930 1_455 S
C293 N289 1.334 1_455 S
C293 C291 1.394 . S
C294 C290 1.413 1_455 S
C294 C292 1.391 1_554 S
C294 C309 1.437 . S
H295 C292 0.929 . S
O296 Gd252 2.545 . S
O296 C311 1.258 . S
O297 Gd252 2.606 . S
O297 Gd253 2.362 1_556 S
O297 C308 1.284 . S
O298 Gd253 2.324 . S
O298 C318 1.254 . S
O299 Gd252 2.429 . S
O299 C318 1.268 1_556 S
O300 Gd252 2.545 . S
O300 C308 1.250 . S
O301 Gd252 2.412 . S
O301 C311 1.252 . S
O302 Gd253 2.545 . S
O302 C320 1.258 . S
O303 Gd252 2.362 1_554 S
O303 Gd253 2.606 . S
O303 C319 1.284 . S
O304 Gd252 2.324 1_554 S
O304 C327 1.254 . S
O305 Gd253 2.429 . S
O305 C327 1.268 . S
O306 Gd253 2.545 . S
O306 C319 1.250 . S
O307 Gd253 2.412 . S
O307 C320 1.252 . S
C308 O297 1.284 . S
C308 O300 1.250 . S
C309 H278 0.929 . S
C309 C294 1.437 . S
C309 C310 1.317 . S
C310 H281 0.930 . S
C310 C286 1.431 1_455 S
C310 C309 1.317 . S
C311 Gd252 2.828 . S
C311 O296 1.258 . S
C311 O301 1.252 . S
C311 C312 1.497 . S
C312 C311 1.497 . S
C312 C313 1.395 . S
C312 C314 1.380 . S
C313 C312 1.395 . S
C313 C316 1.398 . S
C313 H328 0.930 . S
C314 C312 1.380 . S
C314 C315 1.391 . S
C314 H329 0.930 . S
C315 C314 1.391 . S
C315 C317 1.387 . S
C316 C313 1.398 . S
C316 C317 1.380 . S
C316 H330 0.930 . S
C317 C315 1.387 . S
C317 C316 1.380 . S
C317 H331 0.930 . S
C318 O298 1.254 . S
C318 O299 1.268 1_554 S
C319 O303 1.284 . S
C319 O306 1.250 . S
C320 Gd253 2.828 . S
C320 O302 1.258 . S
C320 O307 1.252 . S
C320 C321 1.497 . S
C321 C320 1.497 . S
C321 C322 1.395 . S
C321 C323 1.380 . S
C322 C321 1.395 . S
C322 C325 1.398 . S
C322 H332 0.930 . S
C323 C321 1.380 . S
C323 C324 1.391 . S
C323 H333 0.930 . S
C324 C323 1.391 . S
C324 C326 1.387 . S
C325 C322 1.398 . S
C325 C326 1.380 . S
C325 H334 0.930 . S
C326 C324 1.387 . S
C326 C325 1.380 . S
C326 H335 0.930 . S
C327 O304 1.254 . S
C327 O305 1.268 . S
H328 C313 0.930 . S
H329 C314 0.930 . S
H330 C316 0.930 . S
H331 C317 0.930 . S
H332 C322 0.930 . S
H333 C323 0.930 . S
H334 C325 0.930 . S
H335 C326 0.930 . S
Gd336 N367 2.661 . S
Gd336 N373 2.601 . S
Gd336 O380 2.545 . S
Gd336 O381 2.606 . S
Gd336 O383 2.429 . S
Gd336 O384 2.545 . S
Gd336 O385 2.412 . S
Gd336 O387 2.362 . S
Gd336 O388 2.324 . S
Gd336 C395 2.828 . S
Gd337 N346 2.661 . S
Gd337 N350 2.601 . S
Gd337 O381 2.362 . S
Gd337 O382 2.324 . S
Gd337 O386 2.545 . S
Gd337 O387 2.606 . S
Gd337 O389 2.429 . S
Gd337 O390 2.545 . S
Gd337 O391 2.412 . S
Gd337 C404 2.828 . S
C338 C341 1.417 . S
C338 C343 1.431 . S
C338 C344 1.412 . S
C339 C342 1.437 . S
C339 C343 1.317 . S
C339 H358 0.929 . S
C340 C341 1.426 . S
C340 C342 1.413 . S
C340 N350 1.359 . S
C341 C338 1.417 . S
C341 C340 1.426 . S
C341 N346 1.350 . S
C342 C339 1.437 . S
C342 C340 1.413 . S
C342 C352 1.391 . S
C343 C338 1.431 . S
C343 C339 1.317 . S
C343 H354 0.930 . S
C344 C338 1.412 . S
C344 C345 1.355 . S
C344 H356 0.930 . S
C345 C344 1.355 . S
C345 C347 1.402 . S
C345 H357 0.930 . S
N346 Gd337 2.661 . S
N346 C341 1.350 . S
N346 C347 1.307 . S
C347 C345 1.402 . S
C347 N346 1.307 . S
C347 H348 0.930 . S
H348 C347 0.930 . S
C349 N350 1.334 . S
C349 C351 1.394 . S
C349 H353 0.930 . S
N350 Gd337 2.601 . S
N350 C340 1.359 . S
N350 C349 1.334 . S
C351 C349 1.394 . S
C351 C352 1.359 . S
C351 H363 0.930 . S
C352 C342 1.391 . S
C352 C351 1.359 . S
C352 H364 0.929 . S
H353 C349 0.930 . S
H354 C343 0.930 . S
H355 C372 0.930 . S
H356 C344 0.930 . S
H357 C345 0.930 . S
H358 C339 0.929 . S
H359 C377 0.930 1_565 S
H360 C368 0.930 1_655 S
H361 C369 0.930 . S
H362 C393 0.929 . S
H363 C351 0.930 . S
H364 C352 0.929 . S
H365 C394 0.930 . S
H366 C375 0.930 . S
N367 Gd336 2.661 . S
N367 C371 1.350 . S
N367 C372 1.307 . S
C368 H360 0.930 1_455 S
C368 C369 1.355 1_455 S
C368 C370 1.412 . S
C369 H361 0.930 . S
C369 C368 1.355 1_655 S
C369 C372 1.402 1_655 S
C370 C368 1.412 . S
C370 C371 1.417 . S
C370 C394 1.431 1_565 S
C371 N367 1.350 . S
C371 C370 1.417 . S
C371 C374 1.426 . S
C372 H355 0.930 . S
C372 N367 1.307 . S
C372 C369 1.402 1_455 S
N373 Gd336 2.601 . S
N373 C374 1.359 . S
N373 C377 1.334 1_565 S
C374 C371 1.426 . S
C374 N373 1.359 . S
C374 C378 1.413 1_565 S
C375 H366 0.930 . S
C375 C376 1.359 . S
C375 C377 1.394 . S
C376 C375 1.359 . S
C376 C378 1.391 . S
C376 H379 0.929 . S
C377 H359 0.930 1_545 S
C377 N373 1.334 1_545 S
C377 C375 1.394 . S
C378 C374 1.413 1_545 S
C378 C376 1.391 . S
C378 C393 1.437 . S
H379 C376 0.929 . S
O380 Gd336 2.545 . S
O380 C395 1.258 . S
O381 Gd336 2.606 . S
O381 Gd337 2.362 . S
O381 C392 1.284 . S
O382 Gd337 2.324 . S
O382 C402 1.254 . S
O383 Gd336 2.429 . S
O383 C402 1.268 . S
O384 Gd336 2.545 . S
O384 C392 1.250 . S
O385 Gd336 2.412 . S
O385 C395 1.252 . S
O386 Gd337 2.545 . S
O386 C404 1.258 . S
O387 Gd336 2.362 . S
O387 Gd337 2.606 . S
O387 C403 1.284 . S
O388 Gd336 2.324 . S
O388 C411 1.254 . S
O389 Gd337 2.429 . S
O389 C411 1.268 . S
O390 Gd337 2.545 . S
O390 C403 1.250 . S
O391 Gd337 2.412 . S
O391 C404 1.252 . S
C392 O381 1.284 . S
C392 O384 1.250 . S
C393 H362 0.929 . S
C393 C378 1.437 . S
C393 C394 1.317 . S
C394 H365 0.930 . S
C394 C370 1.431 1_545 S
C394 C393 1.317 . S
C395 Gd336 2.828 . S
C395 O380 1.258 . S
C395 O385 1.252 . S
C395 C396 1.497 . S
C396 C395 1.497 . S
C396 C397 1.395 . S
C396 C398 1.380 . S
C397 C396 1.395 . S
C397 C400 1.398 . S
C397 H412 0.930 . S
C398 C396 1.380 . S
C398 C399 1.391 1_455 S
C398 H413 0.930 1_455 S
C399 C398 1.391 1_655 S
C399 C401 1.387 . S
C400 C397 1.398 . S
C400 C401 1.380 1_455 S
C400 H414 0.930 . S
C401 C399 1.387 . S
C401 C400 1.380 1_655 S
C401 H415 0.930 . S
C402 O382 1.254 . S
C402 O383 1.268 . S
C403 O387 1.284 . S
C403 O390 1.250 . S
C404 Gd337 2.828 . S
C404 O386 1.258 . S
C404 O391 1.252 . S
C404 C405 1.497 . S
C405 C404 1.497 . S
C405 C406 1.395 . S
C405 C407 1.380 . S
C406 C405 1.395 . S
C406 C409 1.398 . S
C406 H416 0.930 . S
C407 C405 1.380 . S
C407 C408 1.391 . S
C407 H417 0.930 . S
C408 C407 1.391 . S
C408 C410 1.387 . S
C409 C406 1.398 . S
C409 C410 1.380 . S
C409 H418 0.930 . S
C410 C408 1.387 . S
C410 C409 1.380 . S
C410 H419 0.930 . S
C411 O388 1.254 . S
C411 O389 1.268 . S
H412 C397 0.930 . S
H413 C398 0.930 1_655 S
H414 C400 0.930 . S
H415 C401 0.930 . S
H416 C406 0.930 . S
H417 C407 0.930 . S
H418 C409 0.930 . S
H419 C410 0.930 . S
Gd420 N451 2.661 . S
Gd420 N457 2.601 . S
Gd420 O464 2.545 . S
Gd420 O465 2.606 . S
Gd420 O467 2.429 . S
Gd420 O468 2.545 . S
Gd420 O469 2.412 . S
Gd420 O471 2.362 . S
Gd420 O472 2.324 . S
Gd420 C479 2.828 . S
Gd421 N430 2.661 . S
Gd421 N434 2.601 . S
Gd421 O465 2.362 . S
Gd421 O466 2.324 . S
Gd421 O470 2.545 . S
Gd421 O471 2.606 . S
Gd421 O473 2.429 . S
Gd421 O474 2.545 . S
Gd421 O475 2.412 . S
Gd421 C488 2.828 . S
C422 C425 1.417 . S
C422 C427 1.431 . S
C422 C428 1.412 . S
C423 C426 1.437 . S
C423 C427 1.317 . S
C423 H442 0.929 . S
C424 C425 1.426 . S
C424 C426 1.413 . S
C424 N434 1.359 . S
C425 C422 1.417 . S
C425 C424 1.426 . S
C425 N430 1.350 . S
C426 C423 1.437 . S
C426 C424 1.413 . S
C426 C436 1.391 . S
C427 C422 1.431 . S
C427 C423 1.317 . S
C427 H438 0.930 . S
C428 C422 1.412 . S
C428 C429 1.355 . S
C428 H440 0.930 . S
C429 C428 1.355 . S
C429 C431 1.402 . S
C429 H441 0.930 . S
N430 Gd421 2.661 . S
N430 C425 1.350 . S
N430 C431 1.307 . S
C431 C429 1.402 . S
C431 N430 1.307 . S
C431 H432 0.930 . S
H432 C431 0.930 . S
C433 N434 1.334 . S
C433 C435 1.394 . S
C433 H437 0.930 . S
N434 Gd421 2.601 . S
N434 C424 1.359 . S
N434 C433 1.334 . S
C435 C433 1.394 . S
C435 C436 1.359 . S
C435 H447 0.930 . S
C436 C426 1.391 . S
C436 C435 1.359 . S
C436 H448 0.929 . S
H437 C433 0.930 . S
H438 C427 0.930 . S
H439 C456 0.930 . S
H440 C428 0.930 . S
H441 C429 0.930 . S
H442 C423 0.929 . S
H443 C461 0.930 . S
H444 C452 0.930 1_565 S
H445 C453 0.930 . S
H446 C477 0.929 . S
H447 C435 0.930 . S
H448 C436 0.929 . S
H449 C478 0.930 . S
H450 C459 0.930 . S
N451 Gd420 2.661 . S
N451 C455 1.350 . S
N451 C456 1.307 . S
C452 H444 0.930 1_545 S
C452 C453 1.355 1_545 S
C452 C454 1.412 . S
C453 H445 0.930 . S
C453 C452 1.355 1_565 S
C453 C456 1.402 1_565 S
C454 C452 1.412 . S
C454 C455 1.417 . S
C454 C478 1.431 . S
C455 N451 1.350 . S
C455 C454 1.417 . S
C455 C458 1.426 . S
C456 H439 0.930 . S
C456 N451 1.307 . S
C456 C453 1.402 1_545 S
N457 Gd420 2.601 . S
N457 C458 1.359 . S
N457 C461 1.334 . S
C458 C455 1.426 . S
C458 N457 1.359 . S
C458 C462 1.413 . S
C459 H450 0.930 . S
C459 C460 1.359 . S
C459 C461 1.394 . S
C460 C459 1.359 . S
C460 C462 1.391 . S
C460 H463 0.929 . S
C461 H443 0.930 . S
C461 N457 1.334 . S
C461 C459 1.394 . S
C462 C458 1.413 . S
C462 C460 1.391 . S
C462 C477 1.437 . S
H463 C460 0.929 . S
O464 Gd420 2.545 . S
O464 C479 1.258 . S
O465 Gd420 2.606 . S
O465 Gd421 2.362 . S
O465 C476 1.284 . S
O466 Gd421 2.324 . S
O466 C486 1.254 . S
O467 Gd420 2.429 . S
O467 C486 1.268 . S
O468 Gd420 2.545 . S
O468 C476 1.250 . S
O469 Gd420 2.412 . S
O469 C479 1.252 . S
O470 Gd421 2.545 . S
O470 C488 1.258 . S
O471 Gd420 2.362 . S
O471 Gd421 2.606 . S
O471 C487 1.284 . S
O472 Gd420 2.324 . S
O472 C495 1.254 . S
O473 Gd421 2.429 . S
O473 C495 1.268 . S
O474 Gd421 2.545 . S
O474 C487 1.250 . S
O475 Gd421 2.412 . S
O475 C488 1.252 . S
C476 O465 1.284 . S
C476 O468 1.250 . S
C477 H446 0.929 . S
C477 C462 1.437 . S
C477 C478 1.317 . S
C478 H449 0.930 . S
C478 C454 1.431 . S
C478 C477 1.317 . S
C479 Gd420 2.828 . S
C479 O464 1.258 . S
C479 O469 1.252 . S
C479 C480 1.497 . S
C480 C479 1.497 . S
C480 C481 1.395 . S
C480 C482 1.380 . S
C481 C480 1.395 . S
C481 C484 1.398 . S
C481 H496 0.930 . S
C482 C480 1.380 . S
C482 C483 1.391 1_545 S
C482 H497 0.930 1_545 S
C483 C482 1.391 1_565 S
C483 C485 1.387 . S
C484 C481 1.398 . S
C484 C485 1.380 1_545 S
C484 H498 0.930 . S
C485 C483 1.387 . S
C485 C484 1.380 1_565 S
C485 H499 0.930 . S
C486 O466 1.254 . S
C486 O467 1.268 . S
C487 O471 1.284 . S
C487 O474 1.250 . S
C488 Gd421 2.828 . S
C488 O470 1.258 . S
C488 O475 1.252 . S
C488 C489 1.497 . S
C489 C488 1.497 . S
C489 C490 1.395 . S
C489 C491 1.380 . S
C490 C489 1.395 . S
C490 C493 1.398 . S
C490 H500 0.930 . S
C491 C489 1.380 . S
C491 C492 1.391 . S
C491 H501 0.930 . S
C492 C491 1.391 . S
C492 C494 1.387 . S
C493 C490 1.398 . S
C493 C494 1.380 . S
C493 H502 0.930 . S
C494 C492 1.387 . S
C494 C493 1.380 . S
C494 H503 0.930 . S
C495 O472 1.254 . S
C495 O473 1.268 . S
H496 C481 0.930 . S
H497 C482 0.930 1_565 S
H498 C484 0.930 . S
H499 C485 0.930 . S
H500 C490 0.930 . S
H501 C491 0.930 . S
H502 C493 0.930 . S
H503 C494 0.930 . S
C504 C505 1.387 . S
C504 H508 0.950 . S
C504 C513 1.390 . S
C505 C504 1.387 . S
C505 C507 1.387 . S
H506 C513 0.950 . S
C507 C505 1.387 . S
C507 C509 1.390 . S
C507 H511 0.950 . S
H508 C504 0.950 . S
C509 C507 1.390 . S
C509 C510 1.387 . S
C509 H512 0.950 . S
C510 C509 1.387 . S
C510 C513 1.387 . S
H511 C507 0.950 . S
H512 C509 0.950 . S
C513 C504 1.390 . S
C513 H506 0.950 . S
C513 C510 1.387 . S
C514 C515 1.387 . S
C514 H518 0.950 . S
C514 C523 1.390 . S
C515 C514 1.387 . S
C515 C517 1.387 . S
H516 C523 0.950 . S
C517 C515 1.387 . S
C517 C519 1.390 . S
C517 H521 0.950 . S
H518 C514 0.950 . S
C519 C517 1.390 . S
C519 C520 1.387 . S
C519 H522 0.950 . S
C520 C519 1.387 . S
C520 C523 1.387 . S
H521 C517 0.950 . S
H522 C519 0.950 . S
C523 C514 1.390 . S
C523 H516 0.950 . S
C523 C520 1.387 . S
C524 C525 1.387 . S
C524 H528 0.950 . S
C524 C533 1.390 . S
C525 C524 1.387 . S
C525 C527 1.387 . S
H526 C533 0.950 . S
C527 C525 1.387 . S
C527 C529 1.390 . S
C527 H531 0.950 . S
H528 C524 0.950 . S
C529 C527 1.390 . S
C529 C530 1.387 . S
C529 H532 0.950 . S
C530 C529 1.387 . S
C530 C533 1.387 . S
H531 C527 0.950 . S
H532 C529 0.950 . S
C533 C524 1.390 . S
C533 H526 0.950 . S
C533 C530 1.387 . S
C534 C535 1.387 . S
C534 H538 0.950 . S
C534 C543 1.390 . S
C535 C534 1.387 . S
C535 C537 1.387 . S
H536 C543 0.950 . S
C537 C535 1.387 . S
C537 C539 1.390 . S
C537 H541 0.950 . S
H538 C534 0.950 . S
C539 C537 1.390 . S
C539 C540 1.387 . S
C539 H542 0.950 . S
C540 C539 1.387 . S
C540 C543 1.387 . S
H541 C537 0.950 . S
H542 C539 0.950 . S
C543 C534 1.390 . S
C543 H536 0.950 . S
C543 C540 1.387 . S
C544 C545 1.387 . S
C544 H548 0.950 . S
C544 C553 1.390 . S
C545 C544 1.387 . S
C545 C547 1.387 . S
H546 C553 0.950 . S
C547 C545 1.387 . S
C547 C549 1.390 . S
C547 H551 0.950 . S
H548 C544 0.950 . S
C549 C547 1.390 . S
C549 C550 1.387 . S
C549 H552 0.950 . S
C550 C549 1.387 . S
C550 C553 1.387 . S
H551 C547 0.950 . S
H552 C549 0.950 . S
C553 C544 1.390 . S
C553 H546 0.950 . S
C553 C550 1.387 . S
C554 C555 1.387 . S
C554 H558 0.950 . S
C554 C563 1.390 . S
C555 C554 1.387 . S
C555 C557 1.387 . S
H556 C563 0.950 . S
C557 C555 1.387 . S
C557 C559 1.390 . S
C557 H561 0.950 . S
H558 C554 0.950 . S
C559 C557 1.390 . S
C559 C560 1.387 . S
C559 H562 0.950 . S
C560 C559 1.387 . S
C560 C563 1.387 . S
H561 C557 0.950 . S
H562 C559 0.950 . S
C563 C554 1.390 . S
C563 H556 0.950 . S
C563 C560 1.387 . S
C564 C565 1.387 1_556 S
C564 H568 0.950 . S
C564 C573 1.390 . S
C565 C564 1.387 1_554 S
C565 C567 1.387 . S
H566 C573 0.950 . S
C567 C565 1.387 . S
C567 C569 1.390 . S
C567 H571 0.950 . S
H568 C564 0.950 . S
C569 C567 1.390 . S
C569 C570 1.387 . S
C569 H572 0.950 . S
C570 C569 1.387 . S
C570 C573 1.387 1_554 S
H571 C567 0.950 . S
H572 C569 0.950 . S
C573 C564 1.390 . S
C573 H566 0.950 . S
C573 C570 1.387 1_556 S
C574 C575 1.387 . S
C574 H578 0.950 . S
C574 C583 1.390 1_455 S
C575 C574 1.387 . S
C575 C577 1.387 . S
H576 C583 0.950 . S
C577 C575 1.387 . S
C577 C579 1.390 1_455 S
C577 H581 0.950 . S
H578 C574 0.950 . S
C579 C577 1.390 1_655 S
C579 C580 1.387 . S
C579 H582 0.950 . S
C580 C579 1.387 . S
C580 C583 1.387 . S
H581 C577 0.950 . S
H582 C579 0.950 . S
C583 C574 1.390 1_655 S
C583 H576 0.950 . S
C583 C580 1.387 . S
C584 C585 1.387 . S
C584 H588 0.950 . S
C584 C593 1.390 1_545 S
C585 C584 1.387 . S
C585 C587 1.387 . S
H586 C593 0.950 . S
C587 C585 1.387 . S
C587 C589 1.390 1_545 S
C587 H591 0.950 . S
H588 C584 0.950 . S
C589 C587 1.390 1_565 S
C589 C590 1.387 . S
C589 H592 0.950 . S
C590 C589 1.387 . S
C590 C593 1.387 . S
H591 C587 0.950 . S
H592 C589 0.950 . S
C593 C584 1.390 1_565 S
C593 H586 0.950 . S
C593 C590 1.387 . S
C594 C595 1.387 . S
C594 H598 0.950 . S
C594 C603 1.390 . S
C595 C594 1.387 . S
C595 C597 1.387 . S
H596 C603 0.950 . S
C597 C595 1.387 . S
C597 C599 1.390 . S
C597 H601 0.950 . S
H598 C594 0.950 . S
C599 C597 1.390 . S
C599 C600 1.387 . S
C599 H602 0.950 . S
C600 C599 1.387 . S
C600 C603 1.387 . S
H601 C597 0.950 . S
H602 C599 0.950 . S
C603 C594 1.390 . S
C603 H596 0.950 . S
C603 C600 1.387 . S
C604 C605 1.387 1_556 S
C604 H608 0.950 . S
C604 C613 1.390 1_455 S
C605 C604 1.387 1_554 S
C605 C607 1.387 . S
H606 C613 0.950 . S
C607 C605 1.387 . S
C607 C609 1.390 1_455 S
C607 H611 0.950 . S
H608 C604 0.950 . S
C609 C607 1.390 1_655 S
C609 C610 1.387 . S
C609 H612 0.950 . S
C610 C609 1.387 . S
C610 C613 1.387 1_554 S
H611 C607 0.950 . S
H612 C609 0.950 . S
C613 C604 1.390 1_655 S
C613 H606 0.950 . S
C613 C610 1.387 1_556 S
C614 C615 1.387 . S
C614 H618 0.950 . S
C614 C623 1.390 1_565 S
C615 C614 1.387 . S
C615 C617 1.387 . S
H616 C623 0.950 . S
C617 C615 1.387 . S
C617 C619 1.390 1_565 S
C617 H621 0.950 . S
H618 C614 0.950 . S
C619 C617 1.390 1_545 S
C619 C620 1.387 . S
C619 H622 0.950 . S
C620 C619 1.387 . S
C620 C623 1.387 . S
H621 C617 0.950 . S
H622 C619 0.950 . S
C623 C614 1.390 1_545 S
C623 H616 0.950 . S
C623 C620 1.387 . S
C624 C625 1.387 . S
C624 H628 0.950 . S
C624 C633 1.390 . S
C625 C624 1.387 . S
C625 C627 1.387 . S
H626 C633 0.950 . S
C627 C625 1.387 . S
C627 C629 1.390 . S
C627 H631 0.950 . S
H628 C624 0.950 . S
C629 C627 1.390 . S
C629 C630 1.387 . S
C629 H632 0.950 . S
C630 C629 1.387 . S
C630 C633 1.387 . S
H631 C627 0.950 . S
H632 C629 0.950 . S
C633 C624 1.390 . S
C633 H626 0.950 . S
C633 C630 1.387 . S
C634 C635 1.387 . S
C634 H638 0.950 1_455 S
C634 C643 1.390 . S
C635 C634 1.387 . S
C635 C637 1.387 . S
H636 C643 0.950 . S
C637 C635 1.387 . S
C637 C639 1.390 . S
C637 H641 0.950 . S
H638 C634 0.950 1_655 S
C639 C637 1.390 . S
C639 C640 1.387 . S
C639 H642 0.950 . S
C640 C639 1.387 . S
C640 C643 1.387 . S
H641 C637 0.950 . S
H642 C639 0.950 . S
C643 C634 1.390 . S
C643 H636 0.950 . S
C643 C640 1.387 . S
C644 C645 1.387 . S
C644 H648 0.950 . S
C644 C653 1.390 . S
C645 C644 1.387 . S
C645 C647 1.387 . S
H646 C653 0.950 . S
C647 C645 1.387 . S
C647 C649 1.390 . S
C647 H651 0.950 . S
H648 C644 0.950 . S
C649 C647 1.390 . S
C649 C650 1.387 . S
C649 H652 0.950 . S
C650 C649 1.387 . S
C650 C653 1.387 . S
H651 C647 0.950 . S
H652 C649 0.950 . S
C653 C644 1.390 . S
C653 H646 0.950 . S
C653 C650 1.387 . S
C654 C655 1.387 . S
C654 H658 0.950 . S
C654 C663 1.390 . S
C655 C654 1.387 . S
C655 C657 1.387 . S
H656 C663 0.950 . S
C657 C655 1.387 . S
C657 C659 1.390 . S
C657 H661 0.950 . S
H658 C654 0.950 . S
C659 C657 1.390 . S
C659 C660 1.387 . S
C659 H662 0.950 . S
C660 C659 1.387 . S
C660 C663 1.387 . S
H661 C657 0.950 . S
H662 C659 0.950 . S
C663 C654 1.390 . S
C663 H656 0.950 . S
C663 C660 1.387 . S
C664 C665 1.387 . S
C664 H668 0.950 . S
C664 C673 1.390 . S
C665 C664 1.387 . S
C665 C667 1.387 . S
H666 C673 0.950 . S
C667 C665 1.387 . S
C667 C669 1.390 . S
C667 H671 0.950 . S
H668 C664 0.950 . S
C669 C667 1.390 . S
C669 C670 1.387 . S
C669 H672 0.950 . S
C670 C669 1.387 . S
C670 C673 1.387 . S
H671 C667 0.950 . S
H672 C669 0.950 . S
C673 C664 1.390 . S
C673 H666 0.950 . S
C673 C670 1.387 . S
C674 C675 1.387 . S
C674 H678 0.950 . S
C674 C683 1.390 . S
C675 C674 1.387 . S
C675 C677 1.387 . S
H676 C683 0.950 . S
C677 C675 1.387 . S
C677 C679 1.390 . S
C677 H681 0.950 1_565 S
H678 C674 0.950 . S
C679 C677 1.390 . S
C679 C680 1.387 . S
C679 H682 0.950 . S
C680 C679 1.387 . S
C680 C683 1.387 . S
H681 C677 0.950 1_545 S
H682 C679 0.950 . S
C683 C674 1.390 . S
C683 H676 0.950 . S
C683 C680 1.387 . S
C505 C392 1.189 . S
C510 C72 1.055 . S
C515 C476 1.186 . S
C520 C156 1.058 . S
C525 C56 1.186 . S
C530 C240 1.058 . S
C535 C140 1.189 . S
C540 C324 1.055 . S
C545 C224 1.189 . S
C550 C408 1.055 . S
C555 C308 1.190 . S
C560 C492 1.057 . S
C565 C75 2.027 . S
C570 C327 2.027 . S
C575 C411 2.027 . S
C580 C159 2.027 . S
C585 C495 2.024 . S
C590 C243 2.024 . S
C595 C234 1.940 . S
C600 C486 1.940 . S
C605 C66 1.938 . S
C610 C318 1.938 . S
C615 C402 1.938 . S
C620 C150 1.938 . S
C625 C487 1.292 . S
C630 C63 1.287 . S
C635 C147 1.282 . S
C640 C67 1.287 . S
C645 C231 1.281 . S
C650 C151 1.287 . S
C655 C235 1.292 . S
C660 C315 1.287 . S
C665 C399 1.286 . S
C670 C319 1.292 . S
C675 C483 1.285 . S
C680 C403 1.290 . S
