# Generated by pormake.
# Topology vcc, (6)-cn, num edge types: 1
# Building blocks:
#     Node 0, Type 0, BuildingBlock: JUFBIX_clean_sbu_0, # of connection points: 6
#     Node 1, Type 0, BuildingBlock: JUFBIX_clean_sbu_0, # of connection points: 6
#     Node 2, Type 0, BuildingBlock: JUFBIX_clean_sbu_0, # of connection points: 6
#     Node 3, Type 0, BuildingBlock: JUFBIX_clean_sbu_0, # of connection points: 6
#     Node 4, Type 0, BuildingBlock: JUFBIX_clean_sbu_0, # of connection points: 6
#     Node 5, Type 0, BuildingBlock: JUFBIX_clean_sbu_0, # of connection points: 6
#     Node 6, Type 0, BuildingBlock: JUFBIX_clean_sbu_0, # of connection points: 6
#     Node 7, Type 0, BuildingBlock: JUFBIX_clean_sbu_0, # of connection points: 6
#     Node 8, Type 0, BuildingBlock: JUFBIX_clean_sbu_0, # of connection points: 6
#     Node 9, Type 0, BuildingBlock: JUFBIX_clean_sbu_0, # of connection points: 6
#     Node 10, Type 0, BuildingBlock: JUFBIX_clean_sbu_0, # of connection points: 6
#     Node 11, Type 0, BuildingBlock: JUFBIX_clean_sbu_0, # of connection points: 6
#     Node 12, Type 0, BuildingBlock: JUFBIX_clean_sbu_0, # of connection points: 6
#     Node 13, Type 0, BuildingBlock: JUFBIX_clean_sbu_0, # of connection points: 6
#     Node 14, Type 0, BuildingBlock: JUFBIX_clean_sbu_0, # of connection points: 6
#     Node 15, Type 0, BuildingBlock: JUFBIX_clean_sbu_0, # of connection points: 6
#     Node 16, Type 0, BuildingBlock: JUFBIX_clean_sbu_0, # of connection points: 6
#     Node 17, Type 0, BuildingBlock: JUFBIX_clean_sbu_0, # of connection points: 6
#     Node 18, Type 0, BuildingBlock: JUFBIX_clean_sbu_0, # of connection points: 6
#     Node 19, Type 0, BuildingBlock: JUFBIX_clean_sbu_0, # of connection points: 6
#     Node 20, Type 0, BuildingBlock: JUFBIX_clean_sbu_0, # of connection points: 6
#     Node 21, Type 0, BuildingBlock: JUFBIX_clean_sbu_0, # of connection points: 6
#     Node 22, Type 0, BuildingBlock: JUFBIX_clean_sbu_0, # of connection points: 6
#     Node 23, Type 0, BuildingBlock: JUFBIX_clean_sbu_0, # of connection points: 6
#     Node 24, Type 0, BuildingBlock: JUFBIX_clean_sbu_0, # of connection points: 6
#     Node 25, Type 0, BuildingBlock: JUFBIX_clean_sbu_0, # of connection points: 6
#     Node 26, Type 0, BuildingBlock: JUFBIX_clean_sbu_0, # of connection points: 6
#     Node 27, Type 0, BuildingBlock: JUFBIX_clean_sbu_0, # of connection points: 6
#     Node 28, Type 0, BuildingBlock: JUFBIX_clean_sbu_0, # of connection points: 6
#     Node 29, Type 0, BuildingBlock: JUFBIX_clean_sbu_0, # of connection points: 6
#     Node 30, Type 0, BuildingBlock: JUFBIX_clean_sbu_0, # of connection points: 6
#     Node 31, Type 0, BuildingBlock: JUFBIX_clean_sbu_0, # of connection points: 6
#     Edge 32, Type (0, 0), BuildingBlock: XIVTED_clean_linker_0, # of connection points: 2
#     Edge 33, Type (0, 0), BuildingBlock: XIVTED_clean_linker_0, # of connection points: 2
#     Edge 34, Type (0, 0), BuildingBlock: XIVTED_clean_linker_0, # of connection points: 2
#     Edge 35, Type (0, 0), BuildingBlock: XIVTED_clean_linker_0, # of connection points: 2
#     Edge 36, Type (0, 0), BuildingBlock: XIVTED_clean_linker_0, # of connection points: 2
#     Edge 37, Type (0, 0), BuildingBlock: XIVTED_clean_linker_0, # of connection points: 2
#     Edge 38, Type (0, 0), BuildingBlock: XIVTED_clean_linker_0, # of connection points: 2
#     Edge 39, Type (0, 0), BuildingBlock: XIVTED_clean_linker_0, # of connection points: 2
#     Edge 40, Type (0, 0), BuildingBlock: XIVTED_clean_linker_0, # of connection points: 2
#     Edge 41, Type (0, 0), BuildingBlock: XIVTED_clean_linker_0, # of connection points: 2
#     Edge 42, Type (0, 0), BuildingBlock: XIVTED_clean_linker_0, # of connection points: 2
#     Edge 43, Type (0, 0), BuildingBlock: XIVTED_clean_linker_0, # of connection points: 2
#     Edge 44, Type (0, 0), BuildingBlock: XIVTED_clean_linker_0, # of connection points: 2
#     Edge 45, Type (0, 0), BuildingBlock: XIVTED_clean_linker_0, # of connection points: 2
#     Edge 46, Type (0, 0), BuildingBlock: XIVTED_clean_linker_0, # of connection points: 2
#     Edge 47, Type (0, 0), BuildingBlock: XIVTED_clean_linker_0, # of connection points: 2
#     Edge 48, Type (0, 0), BuildingBlock: XIVTED_clean_linker_0, # of connection points: 2
#     Edge 49, Type (0, 0), BuildingBlock: XIVTED_clean_linker_0, # of connection points: 2
#     Edge 50, Type (0, 0), BuildingBlock: XIVTED_clean_linker_0, # of connection points: 2
#     Edge 51, Type (0, 0), BuildingBlock: XIVTED_clean_linker_0, # of connection points: 2
#     Edge 52, Type (0, 0), BuildingBlock: XIVTED_clean_linker_0, # of connection points: 2
#     Edge 53, Type (0, 0), BuildingBlock: XIVTED_clean_linker_0, # of connection points: 2
#     Edge 54, Type (0, 0), BuildingBlock: XIVTED_clean_linker_0, # of connection points: 2
#     Edge 55, Type (0, 0), BuildingBlock: XIVTED_clean_linker_0, # of connection points: 2
#     Edge 56, Type (0, 0), BuildingBlock: XIVTED_clean_linker_0, # of connection points: 2
#     Edge 57, Type (0, 0), BuildingBlock: XIVTED_clean_linker_0, # of connection points: 2
#     Edge 58, Type (0, 0), BuildingBlock: XIVTED_clean_linker_0, # of connection points: 2
#     Edge 59, Type (0, 0), BuildingBlock: XIVTED_clean_linker_0, # of connection points: 2
#     Edge 60, Type (0, 0), BuildingBlock: XIVTED_clean_linker_0, # of connection points: 2
#     Edge 61, Type (0, 0), BuildingBlock: XIVTED_clean_linker_0, # of connection points: 2
#     Edge 62, Type (0, 0), BuildingBlock: XIVTED_clean_linker_0, # of connection points: 2
#     Edge 63, Type (0, 0), BuildingBlock: XIVTED_clean_linker_0, # of connection points: 2
#     Edge 64, Type (0, 0), BuildingBlock: XIVTED_clean_linker_0, # of connection points: 2
#     Edge 65, Type (0, 0), BuildingBlock: XIVTED_clean_linker_0, # of connection points: 2
#     Edge 66, Type (0, 0), BuildingBlock: XIVTED_clean_linker_0, # of connection points: 2
#     Edge 67, Type (0, 0), BuildingBlock: XIVTED_clean_linker_0, # of connection points: 2
#     Edge 68, Type (0, 0), BuildingBlock: XIVTED_clean_linker_0, # of connection points: 2
#     Edge 69, Type (0, 0), BuildingBlock: XIVTED_clean_linker_0, # of connection points: 2
#     Edge 70, Type (0, 0), BuildingBlock: XIVTED_clean_linker_0, # of connection points: 2
#     Edge 71, Type (0, 0), BuildingBlock: XIVTED_clean_linker_0, # of connection points: 2
#     Edge 72, Type (0, 0), BuildingBlock: XIVTED_clean_linker_0, # of connection points: 2
#     Edge 73, Type (0, 0), BuildingBlock: XIVTED_clean_linker_0, # of connection points: 2
#     Edge 74, Type (0, 0), BuildingBlock: XIVTED_clean_linker_0, # of connection points: 2
#     Edge 75, Type (0, 0), BuildingBlock: XIVTED_clean_linker_0, # of connection points: 2
#     Edge 76, Type (0, 0), BuildingBlock: XIVTED_clean_linker_0, # of connection points: 2
#     Edge 77, Type (0, 0), BuildingBlock: XIVTED_clean_linker_0, # of connection points: 2
#     Edge 78, Type (0, 0), BuildingBlock: XIVTED_clean_linker_0, # of connection points: 2
#     Edge 79, Type (0, 0), BuildingBlock: XIVTED_clean_linker_0, # of connection points: 2
#     Edge 80, Type (0, 0), BuildingBlock: XIVTED_clean_linker_0, # of connection points: 2
#     Edge 81, Type (0, 0), BuildingBlock: XIVTED_clean_linker_0, # of connection points: 2
#     Edge 82, Type (0, 0), BuildingBlock: XIVTED_clean_linker_0, # of connection points: 2
#     Edge 83, Type (0, 0), BuildingBlock: XIVTED_clean_linker_0, # of connection points: 2
#     Edge 84, Type (0, 0), BuildingBlock: XIVTED_clean_linker_0, # of connection points: 2
#     Edge 85, Type (0, 0), BuildingBlock: XIVTED_clean_linker_0, # of connection points: 2
#     Edge 86, Type (0, 0), BuildingBlock: XIVTED_clean_linker_0, # of connection points: 2
#     Edge 87, Type (0, 0), BuildingBlock: XIVTED_clean_linker_0, # of connection points: 2
#     Edge 88, Type (0, 0), BuildingBlock: XIVTED_clean_linker_0, # of connection points: 2
#     Edge 89, Type (0, 0), BuildingBlock: XIVTED_clean_linker_0, # of connection points: 2
#     Edge 90, Type (0, 0), BuildingBlock: XIVTED_clean_linker_0, # of connection points: 2
#     Edge 91, Type (0, 0), BuildingBlock: XIVTED_clean_linker_0, # of connection points: 2
#     Edge 92, Type (0, 0), BuildingBlock: XIVTED_clean_linker_0, # of connection points: 2
#     Edge 93, Type (0, 0), BuildingBlock: XIVTED_clean_linker_0, # of connection points: 2
#     Edge 94, Type (0, 0), BuildingBlock: XIVTED_clean_linker_0, # of connection points: 2
#     Edge 95, Type (0, 0), BuildingBlock: XIVTED_clean_linker_0, # of connection points: 2
#     Edge 96, Type (0, 0), BuildingBlock: XIVTED_clean_linker_0, # of connection points: 2
#     Edge 97, Type (0, 0), BuildingBlock: XIVTED_clean_linker_0, # of connection points: 2
#     Edge 98, Type (0, 0), BuildingBlock: XIVTED_clean_linker_0, # of connection points: 2
#     Edge 99, Type (0, 0), BuildingBlock: XIVTED_clean_linker_0, # of connection points: 2
#     Edge 100, Type (0, 0), BuildingBlock: XIVTED_clean_linker_0, # of connection points: 2
#     Edge 101, Type (0, 0), BuildingBlock: XIVTED_clean_linker_0, # of connection points: 2
#     Edge 102, Type (0, 0), BuildingBlock: XIVTED_clean_linker_0, # of connection points: 2
#     Edge 103, Type (0, 0), BuildingBlock: XIVTED_clean_linker_0, # of connection points: 2
#     Edge 104, Type (0, 0), BuildingBlock: XIVTED_clean_linker_0, # of connection points: 2
#     Edge 105, Type (0, 0), BuildingBlock: XIVTED_clean_linker_0, # of connection points: 2
#     Edge 106, Type (0, 0), BuildingBlock: XIVTED_clean_linker_0, # of connection points: 2
#     Edge 107, Type (0, 0), BuildingBlock: XIVTED_clean_linker_0, # of connection points: 2
#     Edge 108, Type (0, 0), BuildingBlock: XIVTED_clean_linker_0, # of connection points: 2
#     Edge 109, Type (0, 0), BuildingBlock: XIVTED_clean_linker_0, # of connection points: 2
#     Edge 110, Type (0, 0), BuildingBlock: XIVTED_clean_linker_0, # of connection points: 2
#     Edge 111, Type (0, 0), BuildingBlock: XIVTED_clean_linker_0, # of connection points: 2
#     Edge 112, Type (0, 0), BuildingBlock: XIVTED_clean_linker_0, # of connection points: 2
#     Edge 113, Type (0, 0), BuildingBlock: XIVTED_clean_linker_0, # of connection points: 2
#     Edge 114, Type (0, 0), BuildingBlock: XIVTED_clean_linker_0, # of connection points: 2
#     Edge 115, Type (0, 0), BuildingBlock: XIVTED_clean_linker_0, # of connection points: 2
#     Edge 116, Type (0, 0), BuildingBlock: XIVTED_clean_linker_0, # of connection points: 2
#     Edge 117, Type (0, 0), BuildingBlock: XIVTED_clean_linker_0, # of connection points: 2
#     Edge 118, Type (0, 0), BuildingBlock: XIVTED_clean_linker_0, # of connection points: 2
#     Edge 119, Type (0, 0), BuildingBlock: XIVTED_clean_linker_0, # of connection points: 2
#     Edge 120, Type (0, 0), BuildingBlock: XIVTED_clean_linker_0, # of connection points: 2
#     Edge 121, Type (0, 0), BuildingBlock: XIVTED_clean_linker_0, # of connection points: 2
#     Edge 122, Type (0, 0), BuildingBlock: XIVTED_clean_linker_0, # of connection points: 2
#     Edge 123, Type (0, 0), BuildingBlock: XIVTED_clean_linker_0, # of connection points: 2
#     Edge 124, Type (0, 0), BuildingBlock: XIVTED_clean_linker_0, # of connection points: 2
#     Edge 125, Type (0, 0), BuildingBlock: XIVTED_clean_linker_0, # of connection points: 2
#     Edge 126, Type (0, 0), BuildingBlock: XIVTED_clean_linker_0, # of connection points: 2
#     Edge 127, Type (0, 0), BuildingBlock: XIVTED_clean_linker_0, # of connection points: 2
# Relax obj value: 0.312
# Max RMSD: 0.182
# Mean RMSD: 0.182
data_MOF--net-vcc--node1-JUFBIX_clean_sbu_0--edge1-XIVTED_clean_linker_0
_symmetry_space_group_name_H-M    P1
_symmetry_Int_Tables_number       1
_symmetry_cell_setting            triclinic
loop_
_symmetry_equiv_pos_as_xyz
'x, y, z'
_cell_length_a     63.603621
_cell_length_b     55.632509
_cell_length_c     35.079466
_cell_angle_alpha  90.120087
_cell_angle_beta   90.008878
_cell_angle_gamma 89.975221
loop_
_atom_site_label
_atom_site_type_symbol
_atom_site_fract_x
_atom_site_fract_y
_atom_site_fract_z
_atom_type_partial_charge
Co0 Co 0.34998 0.02765 0.1448 0.0
C1 C 0.34945 0.97817 0.13376 0.0
Co2 Co 0.32112 1.01574 0.11716 0.0
C3 C 0.38098 0.05702 0.18526 0.0
C4 C 0.39398 0.02846 0.15158 0.0
N5 N 0.37557 0.03767 0.16401 0.0
N6 N 0.40201 0.06037 0.18545 0.0
C7 C 0.41018 0.04233 0.16464 0.0
H8 H 0.36979 0.069 0.19872 0.0
H9 H 0.39551 1.01322 0.13259 0.0
C10 C 0.32344 0.06557 0.12963 0.0
N11 N 0.29603 1.00519 0.09658 0.0
C12 C 0.29265 0.99293 0.06387 0.0
C13 C 0.27687 1.00742 0.11273 0.0
N14 N 0.27223 0.98709 0.05954 0.0
C15 C 0.26226 0.9962 0.09015 0.0
C16 C 0.31749 1.01902 0.19817 0.0
O17 O 0.34177 0.05954 0.13982 0.0
O18 O 0.31075 0.04923 0.1183 0.0
O19 O 0.30941 1.01138 0.16734 0.0
O20 O 0.33638 0.02714 0.19652 0.0
O21 O 0.332 0.98252 0.11705 0.0
H22 H 0.27359 1.01695 0.13895 0.0
H23 H 0.30484 0.9885 1.04349 0.0
O24 O 0.35884 0.99542 0.15007 0.0
O25 O 0.36261 0.02852 0.09315 0.0
O26 O 0.33265 1.02026 0.06617 0.0
C27 C 0.3521 0.02509 0.06261 0.0
H28 H 0.42676 0.03944 0.15927 0.0
H29 H 0.24544 0.9958 0.09484 0.0
Co30 Co 0.92113 0.27201 0.14519 0.0
C31 C 0.92299 0.32107 0.13198 0.0
Co32 Co 0.94989 0.28204 0.11634 0.0
C33 C 0.88907 0.24297 0.18254 0.0
C34 C 0.87727 0.27472 0.15537 0.0
N35 N 0.89529 0.26344 0.16512 0.0
N36 N 0.86795 0.24098 0.18284 0.0
C37 C 0.86049 0.26096 0.16619 0.0
H38 H 0.8997 0.22911 0.19242 0.0
H39 H 0.87633 0.29112 0.13896 0.0
C40 C 0.94636 0.2327 0.13145 0.0
N41 N 0.97514 0.2912 0.09515 0.0
C42 C 0.97877 0.30352 0.06268 0.0
C43 C 0.99426 0.28807 0.11105 0.0
N44 N 0.99934 0.3086 0.05837 0.0
C45 C 1.00913 0.29887 0.08862 0.0
C46 C 0.9538 0.28078 0.1973 0.0
O47 O 0.9281 0.23965 0.1405 0.0
O48 O 0.95966 0.24837 0.12017 0.0
O49 O 0.96165 0.28794 0.16604 0.0
O50 O 0.93499 0.27244 0.19638 0.0
O51 O 0.93953 0.3155 0.11325 0.0
H52 H 0.99726 0.27846 0.13727 0.0
H53 H 0.96662 0.30879 1.04274 0.0
O54 O 0.91374 0.3047 0.15049 0.0
O55 O 0.90805 0.27125 0.09373 0.0
O56 O 0.93845 0.27603 0.0662 0.0
C57 C 0.91876 0.27268 0.063 0.0
H58 H 0.84404 0.26499 0.1614 0.0
H59 H 0.02596 0.29885 0.09336 0.0
Co60 Co 0.34688 0.2716 0.21741 0.0
C61 C 0.34385 0.3206 0.23095 0.0
Co62 Co 0.31821 0.28072 0.24732 0.0
C63 C 0.37954 0.24368 0.17898 0.0
C64 C 0.39045 0.27624 0.20511 0.0
N65 N 0.37275 0.26398 0.19639 0.0
N66 N 0.40073 0.24278 0.17763 0.0
C67 C 0.40759 0.26329 0.19362 0.0
H68 H 0.36935 0.22918 0.16991 0.0
H69 H 0.391 0.2928 0.22128 0.0
C70 C 0.32287 0.23147 0.23181 0.0
N71 N 0.2931 0.28886 0.26959 0.0
C72 C 0.28949 0.30342 0.29972 0.0
C73 C 0.2739 0.28277 0.25638 0.0
N74 N 0.26879 0.30692 0.30511 0.0
C75 C 0.2589 0.29398 0.27814 0.0
C76 C 0.31333 0.27938 0.16671 0.0
O77 O 0.34083 0.23897 0.22202 0.0
O78 O 0.30935 0.24673 0.24372 0.0
O79 O 0.30561 0.28619 0.19833 0.0
O80 O 0.33236 0.27166 0.16683 0.0
O81 O 0.32768 0.31453 0.25024 0.0
H82 H 0.27102 0.27127 0.23203 0.0
H83 H 0.30172 0.3117 0.31672 0.0
O84 O 0.35332 0.30454 0.21207 0.0
O85 O 0.36055 0.27124 0.26845 0.0
O86 O 0.33027 0.27521 0.29675 0.0
C87 C 0.35003 0.27244 0.29944 0.0
H88 H 0.42392 0.26821 0.19758 0.0
H89 H 0.24202 0.2927 0.27466 0.0
Co90 Co 0.92303 0.02545 0.21793 0.0
C91 C 0.92712 0.97669 0.23165 0.0
Co92 Co 0.95148 1.0175 0.24988 0.0
C93 C 0.89123 0.05292 0.17686 0.0
C94 C 0.88038 1.01898 0.19793 0.0
N95 N 0.89796 0.0323 0.19326 0.0
N96 N 0.87019 0.05295 0.17223 0.0
C97 C 0.86337 0.0316 0.18504 0.0
H98 H 0.90119 0.06827 0.17113 0.0
H99 H 0.87961 1.00194 0.21261 0.0
C100 C 0.94588 0.06645 0.23435 0.0
N101 N 0.97552 1.01034 0.27693 0.0
C102 C 0.99089 0.99451 0.26814 0.0
C103 C 0.98078 1.01912 0.31153 0.0
N104 N 1.00518 0.99281 0.2963 0.0
C105 C 0.99895 1.00825 0.32359 0.0
C106 C 0.95891 1.01884 0.17042 0.0
O107 O 0.92843 0.05829 0.22285 0.0
O108 O 0.95944 0.05174 0.24767 0.0
O109 O 0.96649 1.01283 0.20261 0.0
O110 O 0.93949 0.02525 0.16935 0.0
O111 O 0.94293 0.98332 0.25153 0.0
H112 H 0.972 0.0326 0.32707 0.0
H113 H 0.99152 0.98427 0.24189 0.0
O114 O 0.91746 0.99238 0.21243 0.0
O115 O 0.90722 0.02592 0.26694 0.0
O116 O 0.9368 1.02246 0.29739 0.0
C117 C 0.91699 0.02492 0.29869 0.0
H118 H 0.84708 0.02598 0.18633 0.0
H119 H 1.00733 1.01187 0.34987 0.0
Co120 Co 0.70324 0.03309 0.99703 0.0
C121 C 0.69747 0.98359 0.9808 0.0
Co122 Co 0.67433 0.02444 0.96724 0.0
C123 C 0.73585 0.05926 1.03818 0.0
C124 C 0.74722 0.02992 1.00422 0.0
N125 N 0.72936 0.04044 1.01677 0.0
N126 N 0.75701 0.06106 1.03839 0.0
C127 C 0.76417 0.04255 1.01741 0.0
H128 H 0.72537 0.07209 1.05156 0.0
H129 H 0.74791 1.01488 0.98469 0.0
C130 C 0.67806 0.07351 0.9812 0.0
N131 N 0.64809 1.01757 0.94724 0.0
C132 C 0.64085 0.99733 0.9303 0.0
C133 C 0.63065 0.03002 0.95698 0.0
N134 N 0.61967 0.9966 0.93031 0.0
C135 C 0.61321 1.01718 0.94663 0.0
C136 C 0.67194 0.02541 1.04988 0.0
O137 O 0.69434 0.06727 1.00015 0.0
O138 O 0.66837 0.05756 0.96249 0.0
O139 O 0.66137 0.02419 1.01889 0.0
O140 O 0.69176 0.02809 1.0472 0.0
O141 O 0.6797 0.99163 0.97111 0.0
H142 H 0.63051 0.04654 0.97327 0.0
H143 H 0.65077 0.98269 0.92076 0.0
O144 O 0.71118 0.9985 0.99309 0.0
O145 O 0.71524 0.03821 0.94767 0.0
O146 O 0.6883 0.02438 0.91611 0.0
C147 C 0.70741 0.0318 0.91602 0.0
H148 H 0.78055 0.03864 1.01169 0.0
H149 H 0.597 1.02219 0.95172 0.0
Co150 Co 0.06902 0.76796 1.00038 0.0
C151 C 0.07094 0.8176 0.98685 0.0
Co152 Co 0.09679 0.77931 0.96867 0.0
C153 C 0.03141 0.74199 1.0219 0.0
C154 C 0.04233 0.76581 0.06574 0.0
N155 N 0.04657 0.75825 1.02997 0.0
N156 N 0.01828 0.73887 1.05159 0.0
C157 C 0.02504 0.7538 0.07915 0.0
H158 H 0.02997 0.73266 0.99492 0.0
H159 H 0.05103 0.77945 0.08102 0.0
C160 C 0.09714 0.73023 0.98089 0.0
N161 N 0.11914 0.7895 0.93945 0.0
C162 C 0.13524 0.80393 0.94983 0.0
C163 C 0.12203 0.78536 0.9019 0.0
N164 N 0.14775 0.8092 0.92006 0.0
C165 C 0.13955 0.79755 0.88988 0.0
C166 C 0.10449 0.77856 1.04805 0.0
O167 O 0.08005 0.73461 0.99897 0.0
O168 O 0.10595 0.74737 0.96328 0.0
O169 O 0.11394 0.78186 1.0163 0.0
O170 O 0.08506 0.77339 1.04659 0.0
O171 O 0.08857 0.81121 0.97368 0.0
H172 H 0.1121 0.77415 0.88427 0.0
H173 H 0.13764 0.81071 0.97844 0.0
O174 O 0.05875 0.80157 1.00074 0.0
O175 O 0.05258 0.76264 0.95504 0.0
O176 O 0.07861 0.77684 0.92171 0.0
C177 C 0.05959 0.76927 0.92286 0.0
H178 H 0.01746 0.75652 0.10646 0.0
H179 H 0.14618 0.7973 0.86145 0.0
Co180 Co 0.70432 0.76523 0.8663 0.0
C181 C 0.69764 0.81473 0.88188 0.0
Co182 Co 0.67474 0.77359 0.89424 0.0
C183 C 0.73849 0.73879 0.83007 0.0
C184 C 0.74836 0.76978 0.86172 0.0
N185 N 0.73106 0.75825 0.8489 0.0
N186 N 0.75967 0.73763 0.8317 0.0
C187 C 0.76589 0.75719 0.8512 0.0
H188 H 0.72864 0.72507 0.81739 0.0
H189 H 0.74829 0.78552 0.87986 0.0
C190 C 0.67941 0.72444 0.88106 0.0
N191 N 0.64803 0.78007 0.91214 0.0
C192 C 0.6404 0.79945 0.93089 0.0
C193 C 0.63085 0.76809 0.89981 0.0
N194 N 0.61921 0.80017 0.9296 0.0
C195 C 0.61317 0.7804 0.91045 0.0
C196 C 0.67425 0.77234 0.81128 0.0
O197 O 0.696 0.73089 0.86321 0.0
O198 O 0.669 0.74034 0.89863 0.0
O199 O 0.66308 0.77368 0.84157 0.0
O200 O 0.69401 0.7697 0.81524 0.0
O201 O 0.6798 0.80652 0.89082 0.0
H202 H 0.63115 0.75219 0.88202 0.0
H203 H 0.6501 0.8135 0.94305 0.0
O204 O 0.71164 0.79996 0.87027 0.0
O205 O 0.71518 0.76063 0.91638 0.0
O206 O 0.68748 0.77385 0.9464 0.0
C207 C 0.70668 0.76678 0.94755 0.0
H208 H 0.78201 0.76185 0.85782 0.0
H209 H 0.59708 0.77547 0.90407 0.0
Co210 Co 0.067 0.03294 0.86547 0.0
C211 C 0.07416 0.98378 0.8841 0.0
Co212 Co 0.0963 0.02536 0.89491 0.0
C213 C 0.03342 0.05761 0.82454 0.0
C214 C 0.02344 0.02631 0.8551 0.0
N215 N 0.04079 0.03861 0.8445 0.0
N216 N 0.01221 0.05771 0.82329 0.0
C217 C 1.00594 0.03796 0.8421 0.0
H218 H 0.04322 0.0718 0.81322 0.0
H219 H 0.02331 1.01074 0.87347 0.0
C220 C 0.09145 0.07415 0.87888 0.0
N221 N 0.12172 1.02018 0.91819 0.0
C222 C 0.13719 1.00486 0.90795 0.0
C223 C 0.12953 0.03283 0.94783 0.0
N224 N 0.15438 1.00785 0.92974 0.0
C225 C 0.14972 0.02534 0.95486 0.0
C226 C 0.09912 0.02493 0.81255 0.0
O227 O 0.0748 0.06748 0.86136 0.0
O228 O 0.10181 0.05852 0.89697 0.0
O229 O 0.10994 1.02389 0.84343 0.0
O230 O 0.07929 0.02762 0.81573 0.0
O231 O 0.09174 0.99238 0.8938 0.0
H232 H 0.12124 0.04701 0.9627 0.0
H233 H 0.1361 0.99229 0.88443 0.0
O234 O 0.06035 0.99809 0.87055 0.0
O235 O 0.05408 0.03831 0.91428 0.0
O236 O 0.08169 0.02653 0.94564 0.0
C237 C 0.06232 0.03286 0.946 0.0
H238 H 0.98978 0.03263 0.84679 0.0
H239 H 0.16025 0.0322 0.97657 0.0
Co240 Co 0.34552 0.52412 0.64712 0.0
C241 C 0.34191 0.4754 0.63252 0.0
Co242 Co 0.31697 0.51598 0.61572 0.0
C243 C 0.38556 0.54596 0.66192 0.0
C244 C 0.37499 0.52402 0.70835 0.0
N245 N 0.36988 0.53115 0.6728 0.0
N246 N 0.39997 0.54859 0.68962 0.0
C247 C 0.39348 0.53488 0.71887 0.0
H248 H 0.38607 0.55522 0.63482 0.0
H249 H 0.36568 0.51204 0.72575 0.0
C250 C 0.32278 0.5652 0.63279 0.0
N251 N 0.29166 0.50903 0.59229 0.0
C252 C 0.28559 0.48937 0.5724 0.0
C253 C 0.27361 0.52071 0.60072 0.0
N254 N 0.26449 0.48828 0.56917 0.0
C255 C 0.25694 0.508 0.58657 0.0
C256 C 0.31031 0.51664 0.69527 0.0
O257 O 0.34019 0.5569 0.64395 0.0
O258 O 0.30929 0.55057 0.61906 0.0
O259 O 0.30281 0.51075 0.66315 0.0
O260 O 0.3295 0.52344 0.69616 0.0
O261 O 0.32572 0.48184 0.61347 0.0
H262 H 0.2724 0.53653 0.61853 0.0
H263 H 0.29617 0.47541 0.56267 0.0
O264 O 0.35181 0.49118 0.65133 0.0
O265 O 0.36052 0.52506 0.59725 0.0
O266 O 0.33051 0.52109 0.5673 0.0
C267 C 0.35038 0.52386 0.56566 0.0
H268 H 0.4016 0.53292 0.74582 0.0
H269 H 0.24046 0.51246 0.58972 0.0
Co270 Co 0.92197 0.77031 0.64618 0.0
C271 C 0.92387 0.81966 0.63349 0.0
Co272 Co 0.95087 0.78065 0.61721 0.0
C273 C 0.89156 0.74209 0.68925 0.0
C274 C 0.87827 0.77158 0.65824 0.0
N275 N 0.8968 0.76167 0.66852 0.0
N276 N 0.87052 0.73929 0.69115 0.0
C277 C 0.86215 0.75791 0.67208 0.0
H278 H 0.90281 0.72934 0.70051 0.0
H279 H 0.87653 0.78684 0.6395 0.0
C280 C 0.94707 0.73097 0.63151 0.0
N281 N 0.97525 0.78891 0.59239 0.0
C282 C 0.98966 0.80591 0.60103 0.0
C283 C 0.98222 0.77857 0.55994 0.0
N284 N 1.00505 0.80667 0.57474 0.0
C285 C 1.00051 0.78955 0.54894 0.0
C286 C 0.95644 0.77893 0.69698 0.0
O287 O 0.92916 0.73797 0.64247 0.0
O288 O 0.95998 0.74659 0.61873 0.0
O289 O 0.9646 0.78517 0.66541 0.0
O290 O 0.93716 0.77187 0.69651 0.0
O291 O 0.9412 0.8146 0.61675 0.0
H292 H 0.97454 0.76388 0.54528 0.0
H293 H 0.98887 0.81746 0.62586 0.0
O294 O 0.91416 0.80286 0.65021 0.0
O295 O 0.9077 0.76856 0.5958 0.0
O296 O 0.93747 0.77605 0.56801 0.0
C297 C 0.91798 0.77156 0.56496 0.0
H298 H 0.84552 0.76106 0.66781 0.0
H299 H 1.01002 0.78509 0.52432 0.0
Co300 Co 0.3478 0.77231 0.71861 0.0
C301 C 0.34587 0.82124 0.73292 0.0
Co302 Co 0.31985 0.7817 0.75051 0.0
C303 C 0.37441 0.74793 0.6646 0.0
C304 C 0.39127 0.77259 0.70049 0.0
N305 N 0.37182 0.76424 0.69277 0.0
N306 N 0.39476 0.74575 0.65493 0.0
C307 C 0.40545 0.76116 0.67723 0.0
H308 H 0.36177 0.73748 0.65219 0.0
H309 H 0.39492 0.7858 0.72217 0.0
C310 C 0.32371 0.73238 0.73411 0.0
N311 N 0.2957 0.78971 0.77616 0.0
C312 C 0.29291 0.80472 0.80605 0.0
C313 C 0.27625 0.78212 0.76662 0.0
N314 N 0.27243 0.80682 0.815 0.0
C315 C 0.26189 0.7927 0.79046 0.0
C316 C 0.31246 0.78108 0.67112 0.0
O317 O 0.34139 0.73973 0.72263 0.0
O318 O 0.31072 0.7477 0.74761 0.0
O319 O 0.30525 0.78753 0.70329 0.0
O320 O 0.33149 0.77357 0.67006 0.0
O321 O 0.32971 0.81547 0.75257 0.0
H322 H 0.27273 0.76995 0.74339 0.0
H323 H 0.30552 0.81413 0.82048 0.0
O324 O 0.355 0.805 0.71379 0.0
O325 O 0.36341 0.7708 0.76795 0.0
O326 O 0.33383 0.77585 0.79834 0.0
C327 C 0.35358 0.77239 0.79969 0.0
H328 H 0.42232 0.76371 0.67686 0.0
H329 H 0.245 0.79032 0.78989 0.0
Co330 Co 0.92415 0.52729 0.71928 0.0
C331 C 0.92479 0.47776 0.73108 0.0
Co332 Co 0.95279 0.51566 0.74766 0.0
C333 C 0.89287 0.55601 0.67804 0.0
C334 C 0.88023 0.52719 0.71138 0.0
N335 N 0.89854 0.5368 0.6993 0.0
N336 N 0.87178 0.55886 0.67749 0.0
C337 C 0.86385 0.54066 0.69809 0.0
H338 H 0.90391 0.56832 0.665 0.0
H339 H 0.87887 0.51206 0.73049 0.0
C340 C 0.95019 0.56555 0.73416 0.0
N341 N 0.97772 0.50562 0.76891 0.0
C342 C 0.9808 0.49165 0.79985 0.0
C343 C 0.99707 0.50928 0.75425 0.0
N344 N 1.00123 0.48606 0.8043 0.0
C345 C 0.01154 0.49715 0.77587 0.0
C346 C 0.95711 0.51819 0.66705 0.0
O347 O 0.93195 0.55929 0.7239 0.0
O348 O 0.96296 0.54937 0.74586 0.0
O349 O 0.96486 0.5107 0.69818 0.0
O350 O 0.93824 0.52646 0.66797 0.0
O351 O 0.94205 0.48224 0.74837 0.0
H352 H 1.00044 0.51995 0.72926 0.0
H353 H 0.96833 0.48542 0.81838 0.0
O354 O 0.91563 0.49492 0.71424 0.0
O355 O 0.91119 0.52852 0.77073 0.0
O356 O 0.94113 0.5207 0.79809 0.0
C357 C 0.92167 0.52549 0.8014 0.0
H358 H 0.84731 0.53746 0.70336 0.0
H359 H 0.02841 0.49693 0.7717 0.0
Co360 Co 0.70362 0.53014 0.4994 0.0
C361 C 0.69816 0.4806 0.48333 0.0
Co362 Co 0.6748 0.52107 0.46931 0.0
C363 C 0.7358 0.55731 0.54063 0.0
C364 C 0.7471 0.52536 0.51319 0.0
N365 N 0.72926 0.53742 0.52176 0.0
N366 N 0.75695 0.55807 0.54317 0.0
C367 C 0.76406 0.53798 0.52629 0.0
H368 H 0.72549 0.57161 0.55009 0.0
H369 H 0.748 0.50928 0.49594 0.0
C370 C 0.67798 0.57011 0.48302 0.0
N371 N 0.6503 0.51371 0.44443 0.0
C372 C 0.63499 0.49837 0.45522 0.0
C373 C 0.6447 0.52131 0.40937 0.0
N374 N 0.62036 0.49587 0.42787 0.0
C375 C 0.6263 0.51022 0.39902 0.0
C376 C 0.67072 0.52183 0.55084 0.0
O377 O 0.6946 0.56425 0.50137 0.0
O378 O 0.66811 0.55387 0.46515 0.0
O379 O 0.66032 0.52005 0.51961 0.0
O380 O 0.69052 0.52519 0.54852 0.0
O381 O 0.68051 0.48837 0.47252 0.0
H382 H 0.65361 0.53381 0.3922 0.0
H383 H 0.63489 0.48872 0.48199 0.0
O384 O 0.71151 0.49563 0.49638 0.0
O385 O 0.71725 0.53512 0.45124 0.0
O386 O 0.69023 0.52184 0.41972 0.0
C387 C 0.70937 0.52887 0.41958 0.0
H388 H 0.78045 0.53318 0.52275 0.0
H389 H 0.61785 0.5125 0.37247 0.0
Co390 Co 0.06668 0.26805 0.49945 0.0
C391 C 0.0699 0.31742 0.48467 0.0
Co392 Co 0.09434 0.27775 0.46687 0.0
C393 C 0.02932 0.24225 0.51983 0.0
C394 C 0.03804 0.26813 0.5624 0.0
N395 N 0.04378 0.25924 0.52812 0.0
N396 N 0.01505 0.24008 0.54782 0.0
C397 C 0.02035 0.25628 0.57464 0.0
H398 H 0.02919 0.23172 0.49385 0.0
H399 H 0.04608 0.28244 0.57736 0.0
C400 C 0.09317 0.22887 0.47969 0.0
N401 N 0.11708 0.28676 0.43797 0.0
C402 C 0.13301 0.3016 0.44762 0.0
C403 C 0.12033 0.28129 0.40095 0.0
N404 N 0.14573 0.30592 0.41779 0.0
C405 C 0.1379 0.29317 0.38842 0.0
C406 C 0.10191 0.27731 0.54681 0.0
O407 O 0.07707 0.23442 0.49976 0.0
O408 O 0.10208 0.24526 0.46063 0.0
O409 O 0.11152 0.27918 0.51483 0.0
O410 O 0.08222 0.27371 0.54572 0.0
O411 O 0.08744 0.31015 0.47224 0.0
H412 H 0.11049 0.26954 0.38403 0.0
H413 H 0.13501 0.30949 0.47562 0.0
O414 O 0.05706 0.30197 0.49832 0.0
O415 O 0.05052 0.26244 0.45394 0.0
O416 O 0.07627 0.2765 0.41989 0.0
C417 C 0.05727 0.26899 0.42158 0.0
H418 H 0.01166 0.2597 0.60063 0.0
H419 H 0.1447 0.29218 0.36016 0.0
Co420 Co 0.70368 0.26481 0.3627 0.0
C421 C 0.69882 0.31438 0.37898 0.0
Co422 Co 0.67527 0.2742 0.39346 0.0
C423 C 0.73454 0.23767 0.3188 0.0
C424 C 0.74716 0.26807 0.34869 0.0
N425 N 0.72888 0.25716 0.3395 0.0
N426 N 0.75563 0.2359 0.31583 0.0
C427 C 0.76356 0.25507 0.33421 0.0
H428 H 0.72362 0.22433 0.30816 0.0
H429 H 0.74866 0.2836 0.36706 0.0
C430 C 0.67787 0.22516 0.37966 0.0
N431 N 0.65107 0.28183 0.41927 0.0
C432 C 0.63548 0.29694 0.40889 0.0
C433 C 0.64607 0.27454 0.45478 0.0
N434 N 0.62127 0.2996 0.43694 0.0
C435 C 0.62777 0.28558 0.4658 0.0
C436 C 0.67052 0.27362 0.31201 0.0
O437 O 0.69424 0.2309 0.36053 0.0
O438 O 0.6684 0.24143 0.39814 0.0
O439 O 0.66024 0.27525 0.34342 0.0
O440 O 0.69032 0.27024 0.3141 0.0
O441 O 0.68111 0.30678 0.38977 0.0
H442 H 0.6553 0.26223 0.47177 0.0
H443 H 0.63486 0.30628 0.38187 0.0
O444 O 0.71208 0.29921 0.36596 0.0
O445 O 0.71768 0.25925 0.41027 0.0
O446 O 0.69137 0.27348 0.44263 0.0
C447 C 0.71035 0.26588 0.44213 0.0
H448 H 0.78012 0.25908 0.33754 0.0
H449 H 0.61974 0.28345 0.49281 0.0
Co450 Co 0.06946 0.53396 0.36875 0.0
C451 C 0.07303 0.48454 0.38431 0.0
Co452 Co 0.09801 0.52416 0.39805 0.0
C453 C 0.0414 0.55626 0.3151 0.0
C454 C 0.02515 0.53986 0.36185 0.0
N455 N 0.04448 0.54313 0.34692 0.0
N456 N 0.02096 0.56172 0.31025 0.0
C457 C 0.01067 0.55137 0.33943 0.0
H458 H 0.05385 0.56186 0.29605 0.0
H459 H 0.02179 0.5298 0.38749 0.0
C460 C 0.09613 0.57327 0.38488 0.0
N461 N 0.12369 0.51576 0.41877 0.0
C462 C 0.1299 0.49548 0.43679 0.0
C463 C 0.14171 0.52719 0.40957 0.0
N464 N 0.15104 0.49375 0.43804 0.0
C465 C 0.15848 0.51375 0.42137 0.0
C466 C 0.10094 0.52476 0.31582 0.0
O467 O 0.07984 0.56752 0.36558 0.0
O468 O 0.10523 0.557 0.40384 0.0
O469 O 0.11158 0.52357 0.3467 0.0
O470 O 0.08121 0.52781 0.3189 0.0
O471 O 0.09127 0.49168 0.39314 0.0
H472 H 0.14269 0.54353 0.39302 0.0
H473 H 0.11928 0.48158 0.44651 0.0
O474 O 0.05969 0.50013 0.37274 0.0
O475 O 0.05719 0.54004 0.41796 0.0
O476 O 0.08355 0.52436 0.44889 0.0
C477 C 0.0647 0.53266 0.44934 0.0
H478 H 0.99379 0.55143 0.34342 0.0
H479 H 0.17493 0.51805 0.41733 0.0
Co480 Co 0.84564 0.02816 0.64354 0.0
C481 C 0.84517 0.9785 0.63204 0.0
Co482 Co 0.81655 1.01597 0.61718 0.0
C483 C 0.87757 0.05693 0.68258 0.0
C484 C 0.8898 0.02937 0.64598 0.0
N485 N 0.8717 0.03805 0.6607 0.0
N486 N 0.89854 0.06056 0.68092 0.0
C487 C 0.90624 0.04316 0.65826 0.0
H488 H 0.86669 0.06839 0.69791 0.0
H489 H 0.89089 1.01455 0.62608 0.0
C490 C 0.81908 0.06615 0.63025 0.0
N491 N 0.79064 1.00577 0.60022 0.0
C492 C 0.78528 0.98759 0.57656 0.0
C493 C 0.77235 1.01332 0.61566 0.0
N494 N 0.76442 0.98321 0.57772 0.0
C495 C 0.75626 0.99946 0.602 0.0
C496 C 0.81447 1.019 0.69822 0.0
O497 O 0.83751 0.06014 0.63965 0.0
O498 O 0.80637 0.04976 0.61916 0.0
O499 O 0.80621 1.01155 0.66759 0.0
O500 O 0.83323 0.02747 0.69622 0.0
O501 O 0.82739 0.98264 0.61631 0.0
H502 H 0.77088 0.02748 0.63667 0.0
H503 H 0.79643 0.97733 0.55982 0.0
O504 O 0.85466 0.99588 0.64781 0.0
O505 O 0.85682 0.02918 0.59085 0.0
O506 O 0.8265 1.02025 0.56543 0.0
C507 C 0.84583 0.02546 0.56091 0.0
H508 H 0.92267 0.04061 0.65123 0.0
H509 H 0.73975 1.00137 0.60886 0.0
Co510 Co 0.42274 0.27149 0.64429 0.0
C511 C 0.42484 0.3206 0.6314 0.0
Co512 Co 0.45138 0.28135 0.61505 0.0
C513 C 0.39065 0.24295 0.68266 0.0
C514 C 0.37897 0.27458 0.655 0.0
N515 N 0.39695 0.26317 0.66462 0.0
N516 N 0.36951 0.24122 0.6835 0.0
C517 C 0.36215 0.26116 0.66655 0.0
H518 H 0.40123 0.22909 0.69273 0.0
H519 H 0.37808 0.29089 0.63834 0.0
C520 C 0.44762 0.23193 0.63017 0.0
N521 N 0.47653 0.29024 0.59347 0.0
C522 C 0.48004 0.30387 0.5623 0.0
C523 C 0.49575 0.2858 0.60817 0.0
N524 N 0.50065 0.30847 0.55775 0.0
C525 C 0.5106 0.29711 0.58633 0.0
C526 C 0.45574 0.27995 0.69575 0.0
O527 O 0.42944 0.23903 0.63944 0.0
O528 O 0.46094 0.24752 0.61864 0.0
O529 O 0.46346 0.28708 0.66438 0.0
O530 O 0.43689 0.27173 0.69518 0.0
O531 O 0.44122 0.31495 0.61228 0.0
H532 H 0.49875 0.2752 0.6334 0.0
H533 H 0.46778 0.3106 0.54376 0.0
O534 O 0.41559 0.30425 0.64992 0.0
O535 O 0.40943 0.27095 0.59301 0.0
O536 O 0.43977 0.27559 0.56523 0.0
C537 C 0.42007 0.27243 0.5622 0.0
H538 H 0.34571 0.26544 0.66219 0.0
H539 H 0.52747 0.29671 0.59059 0.0
Co540 Co 0.84637 0.26912 0.71783 0.0
C541 C 0.84724 0.3183 0.73051 0.0
Co542 Co 0.81789 0.28139 0.74618 0.0
C543 C 0.87377 0.24287 0.66679 0.0
C544 C 0.89034 0.26273 0.70984 0.0
N545 N 0.8709 0.2583 0.69613 0.0
N546 N 0.89421 0.23715 0.66257 0.0
C547 C 0.90468 0.24966 0.68936 0.0
H548 H 0.86117 0.23558 0.64954 0.0
H549 H 0.89386 0.27453 0.73354 0.0
C550 C 0.81905 0.23162 0.73205 0.0
N551 N 0.79332 0.29228 0.76808 0.0
C552 C 0.79054 0.30544 0.80011 0.0
C553 C 0.77389 0.28964 0.75316 0.0
N554 N 0.77022 0.31151 0.80494 0.0
C555 C 0.7597 0.30157 0.77565 0.0
C556 C 0.81353 0.27968 0.66591 0.0
O557 O 0.83736 0.23744 0.72159 0.0
O558 O 0.80673 0.2481 0.7443 0.0
O559 O 0.80569 0.28691 0.6971 0.0
O560 O 0.83223 0.27113 0.66688 0.0
O561 O 0.82962 0.31432 0.74693 0.0
H562 H 0.77023 0.27962 0.72756 0.0
H563 H 0.80309 0.31057 0.81931 0.0
O564 O 0.8563 0.30094 0.71379 0.0
O565 O 0.85952 0.26687 0.76902 0.0
O566 O 0.82974 0.27588 0.7962 0.0
C567 C 0.84906 0.27042 0.7996 0.0
H568 H 0.92157 0.24962 0.69328 0.0
H569 H 0.74283 0.30227 0.77161 0.0
Co570 Co 0.4264 0.02428 0.71663 0.0
C571 C 0.4296 0.97547 0.73082 0.0
Co572 Co 0.45492 1.01576 0.74771 0.0
C573 C 0.39763 0.04811 0.6659 0.0
C574 C 0.38239 1.02342 0.70386 0.0
N575 N 0.40146 0.03164 0.69324 0.0
N576 N 0.37689 0.0507 0.65978 0.0
C577 C 0.36722 0.03524 0.6834 0.0
H578 H 0.40968 0.05872 0.65208 0.0
H579 H 0.37969 1.01026 0.72598 0.0
C580 C 0.4496 0.06504 0.73146 0.0
N581 N 0.48045 1.0083 0.76959 0.0
C582 C 0.48627 0.98949 0.79152 0.0
C583 C 0.49864 1.01871 0.75869 0.0
N584 N 0.50739 0.98759 0.79365 0.0
C585 C 0.51517 1.00604 0.77339 0.0
C586 C 0.46062 1.01659 0.66728 0.0
O587 O 0.43209 0.05703 0.72028 0.0
O588 O 0.46302 0.05019 0.74477 0.0
O589 O 0.46824 1.01062 0.69926 0.0
O590 O 0.44143 1.02354 0.6667 0.0
O591 O 0.44588 0.98171 0.7498 0.0
H592 H 0.49991 0.03374 0.73933 0.0
H593 H 0.47539 0.97677 0.80395 0.0
O594 O 0.41985 0.99138 0.71212 0.0
O595 O 0.41221 0.02532 0.76736 0.0
O596 O 0.44216 1.02082 0.79706 0.0
C597 C 0.42233 1.02388 0.79887 0.0
H598 H 0.35037 0.03298 0.68594 0.0
H599 H 0.53169 1.00992 0.76925 0.0
Co600 Co 0.20373 0.03514 0.49926 0.0
C601 C 0.19954 0.98581 0.48356 0.0
Co602 Co 0.17582 0.02597 0.46688 0.0
C603 C 0.24161 0.06009 0.52005 0.0
C604 C 0.23236 0.03406 0.56185 0.0
N605 N 0.227 0.04314 0.52756 0.0
N606 N 0.25551 0.06216 0.54872 0.0
C607 C 0.24987 0.04584 0.575 0.0
H608 H 0.24197 0.0708 0.49433 0.0
H609 H 0.22407 1.0198 0.57639 0.0
C610 C 0.17812 0.07501 0.48067 0.0
N611 N 0.1522 1.01832 0.4393 0.0
C612 C 0.14965 1.00207 0.411 0.0
C613 C 0.13304 0.02819 0.44462 0.0
N614 N 0.12963 1.00162 0.39867 0.0
C615 C 0.11912 1.01792 0.41961 0.0
C616 C 0.16876 0.02626 0.54742 0.0
O617 O 0.19422 0.0691 0.50041 0.0
O618 O 0.16891 0.0588 0.46168 0.0
O619 O 0.15908 0.02449 0.51552 0.0
O620 O 0.18845 0.02983 0.54607 0.0
O621 O 0.18205 0.99335 0.47128 0.0
H622 H 0.12941 0.04184 0.46562 0.0
H623 H 0.16207 0.99069 0.40003 0.0
O624 O 0.21255 1.00102 0.49745 0.0
O625 O 0.2196 0.04028 0.45302 0.0
O626 O 0.19323 0.02711 0.41915 0.0
C627 C 0.21249 0.03398 0.42064 0.0
H628 H 0.25821 0.04231 0.60132 0.0
H629 H 0.1025 1.02185 0.41715 0.0
Co630 Co 0.56959 0.76494 0.49999 0.0
C631 C 0.57548 0.81372 0.48277 0.0
Co632 Co 0.59793 0.77221 0.46749 0.0
C633 C 0.53085 0.74168 0.51978 0.0
C634 C 0.54004 0.76818 0.56105 0.0
N635 N 0.54567 0.75838 0.52735 0.0
N636 N 0.51651 0.74045 0.54784 0.0
C637 C 0.52213 0.75705 0.57382 0.0
H638 H 0.53074 0.73039 0.4946 0.0
H639 H 0.54849 0.78237 0.57555 0.0
C640 C 0.59349 0.72365 0.48283 0.0
N641 N 0.6231 0.77843 0.44197 0.0
C642 C 0.63111 0.79975 0.43025 0.0
C643 C 0.63966 0.76317 0.44115 0.0
N644 N 0.65191 0.79826 0.42336 0.0
C645 C 0.65726 0.77526 0.42972 0.0
C646 C 0.60417 0.77252 0.54817 0.0
O647 O 0.57794 0.73066 0.50301 0.0
O648 O 0.60301 0.73901 0.46284 0.0
O649 O 0.61398 0.77291 0.51638 0.0
O650 O 0.58433 0.77049 0.54695 0.0
O651 O 0.59286 0.80517 0.47165 0.0
H652 H 0.63962 0.74481 0.45111 0.0
H653 H 0.62239 0.81644 0.42955 0.0
O654 O 0.56179 0.79931 0.49646 0.0
O655 O 0.55443 0.75955 0.45335 0.0
O656 O 0.58115 0.77171 0.41918 0.0
C657 C 0.56177 0.76521 0.42086 0.0
H658 H 0.5136 0.76111 0.59977 0.0
H659 H 0.67302 0.76798 0.4278 0.0
Co660 Co 0.20476 0.76874 0.36727 0.0
C661 C 0.19958 0.81824 0.38348 0.0
Co662 Co 0.17551 0.77792 0.39586 0.0
C663 C 0.2374 0.74195 0.32691 0.0
C664 C 0.24877 0.7715 0.36036 0.0
N665 N 0.23091 0.76093 0.34798 0.0
N666 N 0.25857 0.74014 0.32668 0.0
C667 C 0.26571 0.7588 0.34735 0.0
H668 H 0.22691 0.72908 0.3137 0.0
H669 H 0.24948 0.7867 0.37957 0.0
C670 C 0.17851 0.72885 0.38216 0.0
N671 N 0.14995 0.78582 0.41691 0.0
C672 C 0.14579 0.80055 0.44662 0.0
C673 C 0.13099 0.77974 0.40261 0.0
N674 N 0.125 0.80421 0.45065 0.0
C675 C 0.11561 0.79115 0.42323 0.0
C676 C 0.17386 0.77735 0.31299 0.0
O677 O 0.19544 0.73469 0.36472 0.0
O678 O 0.16835 0.74512 0.39945 0.0
O679 O 0.16291 0.77925 0.34355 0.0
O680 O 0.19353 0.77368 0.31669 0.0
O681 O 0.18172 0.8105 0.3932 0.0
H682 H 0.12851 0.76809 0.37829 0.0
H683 H 0.15772 0.809 0.46411 0.0
O684 O 0.21306 0.80317 0.37088 0.0
O685 O 0.21663 0.7637 0.41678 0.0
O686 O 0.18918 0.77688 0.44731 0.0
C687 C 0.20833 0.76975 0.44818 0.0
H688 H 0.28209 0.76284 0.35289 0.0
H689 H 0.0988 0.7899 0.41869 0.0
Co690 Co 0.56896 0.03072 0.36516 0.0
C691 C 0.57595 0.9814 0.38096 0.0
Co692 Co 0.59833 1.02276 0.39418 0.0
C693 C 0.53481 0.05673 0.32789 0.0
C694 C 0.52508 0.02516 0.35801 0.0
N695 N 0.54235 0.03725 0.34645 0.0
N696 N 0.51359 0.05731 0.32845 0.0
C697 C 0.50747 0.03739 0.34699 0.0
H698 H 0.54455 0.07088 0.3163 0.0
H699 H 0.52516 1.00929 0.37574 0.0
C700 C 0.59335 0.07171 0.38068 0.0
N701 N 0.62485 1.01668 0.4134 0.0
C702 C 0.63249 0.99696 0.43109 0.0
C703 C 0.64201 0.02946 0.40335 0.0
N704 N 0.65369 0.99683 0.43142 0.0
C705 C 0.6597 1.01735 0.41443 0.0
C706 C 0.6 1.02392 0.31145 0.0
O707 O 0.57698 0.06511 0.36229 0.0
O708 O 0.60362 0.05597 0.39874 0.0
O709 O 0.61077 1.02274 0.34221 0.0
O710 O 0.58014 0.02624 0.31454 0.0
O711 O 0.59363 0.98978 0.39049 0.0
H712 H 0.64179 0.04582 0.38675 0.0
H713 H 0.62283 0.9823 0.44127 0.0
O714 O 0.56197 0.99598 0.36887 0.0
O715 O 0.55732 0.03528 0.41492 0.0
O716 O 0.58493 1.02251 0.4457 0.0
C717 C 0.56563 0.02928 0.44634 0.0
H718 H 0.49136 0.03231 0.35279 0.0
H719 H 0.67579 1.02295 0.40969 0.0
Co720 Co 0.8467 0.52466 0.14618 0.0
C721 C 0.84153 0.47655 0.12817 0.0
Co722 Co 0.81807 0.51853 0.11411 0.0
C723 C 0.88649 0.54555 0.1634 0.0
C724 C 0.87878 0.51687 0.20177 0.0
N725 N 0.87121 0.52973 0.17224 0.0
N726 N 0.90337 0.54274 0.18591 0.0
C727 C 0.89873 0.52478 0.21009 0.0
H728 H 0.8856 0.55822 0.14007 0.0
H729 H 0.87059 0.50219 0.21545 0.0
C730 C 0.82486 0.56688 0.13476 0.0
N731 N 0.79354 0.51351 0.08806 0.0
C732 C 0.77892 0.49645 0.09465 0.0
C733 C 0.78507 0.52803 0.06142 0.0
N734 N 0.7616 0.50007 0.07354 0.0
C735 C 0.76528 0.51985 1.0526 0.0
C736 C 0.81107 0.51725 0.1935 0.0
O737 O 0.84203 0.55776 0.14572 0.0
O738 O 0.81122 0.55306 0.11945 0.0
O739 O 0.80315 0.51294 0.16097 0.0
O740 O 0.8306 0.5228 0.19475 0.0
O741 O 0.82551 0.48408 0.1097 0.0
H742 H 0.79247 0.54407 1.05036 0.0
H743 H 0.78051 0.48243 0.11581 0.0
O744 O 0.85202 0.49146 0.14759 0.0
O745 O 0.86222 0.52668 0.09703 0.0
O746 O 0.83242 0.52423 0.06654 0.0
C747 C 0.8523 0.52642 0.06529 0.0
H748 H 0.90916 0.51775 0.23176 0.0
H749 H 0.75421 0.52805 1.03312 0.0
Co750 Co 0.4249 0.76922 0.14502 0.0
C751 C 0.42684 0.81876 0.13354 0.0
Co752 Co 0.45434 0.78028 0.11865 0.0
C753 C 0.39217 0.74148 0.18342 0.0
C754 C 0.38072 0.76982 0.14767 0.0
N755 N 0.39856 0.76037 0.16218 0.0
N756 N 0.37112 0.73861 0.18158 0.0
C757 C 0.3639 0.75649 0.15947 0.0
H758 H 0.40272 0.72942 0.19824 0.0
H759 H 0.38006 0.78475 0.12803 0.0
C760 C 0.45033 0.73031 0.13173 0.0
N761 N 0.48053 0.78934 0.10159 0.0
C762 C 0.4865 0.80715 0.07785 0.0
C763 C 0.49859 0.78077 0.11654 0.0
N764 N 0.50755 0.81027 0.07829 0.0
C765 C 0.51516 0.7936 0.10237 0.0
C766 C 0.4563 0.77747 0.19985 0.0
O767 O 0.43211 0.73701 0.14127 0.0
O768 O 0.46347 0.74617 0.12055 0.0
O769 O 0.46486 0.78438 0.16918 0.0
O770 O 0.4373 0.76975 0.19778 0.0
O771 O 0.44451 0.81401 0.11783 0.0
H772 H 0.4996 0.76656 0.13745 0.0
H773 H 0.47566 0.81802 0.06146 0.0
O774 O 0.41687 0.80173 0.14915 0.0
O775 O 0.41367 0.76837 0.09229 0.0
O776 O 0.44418 0.77625 0.06682 0.0
C777 C 0.42472 0.77162 0.06232 0.0
H778 H 0.34756 0.75961 0.15231 0.0
H779 H 0.53161 0.79065 0.10877 0.0
Co780 Co 0.84463 0.77381 0.21903 0.0
C781 C 0.84276 0.82311 0.23186 0.0
Co782 Co 0.8162 0.78427 0.24903 0.0
C783 C 0.87335 0.74964 0.16786 0.0
C784 C 0.88876 0.77309 0.20768 0.0
N785 N 0.86962 0.76543 0.19639 0.0
N786 N 0.89409 0.74706 0.16154 0.0
C787 C 0.90386 0.76173 0.18633 0.0
H788 H 0.86121 0.73986 0.15276 0.0
H789 H 0.89156 0.78587 0.2304 0.0
C790 C 0.82016 0.73451 0.23422 0.0
N791 N 0.7907 0.79299 0.26994 0.0
C792 C 0.78529 0.81187 0.29222 0.0
C793 C 0.77228 0.78358 0.25796 0.0
N794 N 0.76425 0.81479 0.29347 0.0
C795 C 0.75606 0.79693 0.27231 0.0
C796 C 0.81104 0.78242 0.16866 0.0
O797 O 0.83807 0.7414 0.2233 0.0
O798 O 0.80713 0.75018 0.24653 0.0
O799 O 0.80355 0.78943 0.20022 0.0
O800 O 0.82992 0.77441 0.16868 0.0
O801 O 0.82618 0.81789 0.25071 0.0
H802 H 0.77072 0.76872 0.23824 0.0
H803 H 0.79647 0.82385 0.30568 0.0
O804 O 0.85209 0.80647 0.21393 0.0
O805 O 0.85834 0.77284 0.2703 0.0
O806 O 0.82826 0.7792 0.29872 0.0
C807 C 0.8479 0.7751 0.30137 0.0
H808 H 0.92072 0.76397 0.18874 0.0
H809 H 0.73946 0.79385 0.26749 0.0
Co810 Co 0.42347 0.52448 0.21943 0.0
C811 C 0.42653 0.47541 0.23243 0.0
Co812 Co 0.45201 0.51524 0.24967 0.0
C813 C 0.39048 0.55237 0.18151 0.0
C814 C 0.38003 0.51925 0.20617 0.0
N815 N 0.39757 0.53201 0.19824 0.0
N816 N 0.36928 0.55277 0.17975 0.0
C817 C 0.36273 0.53191 0.19484 0.0
H818 H 0.40045 0.56725 0.17324 0.0
H819 H 0.37966 0.50251 0.22177 0.0
C820 C 0.44748 0.56452 0.23447 0.0
N821 N 0.47701 0.50694 0.27216 0.0
C822 C 0.48026 0.49292 0.30297 0.0
C823 C 0.49636 0.51197 0.25858 0.0
N824 N 0.50085 0.48866 0.30839 0.0
C825 C 0.51106 0.50063 0.28077 0.0
C826 C 0.45723 0.51677 0.1689 0.0
O827 O 0.42949 0.55712 0.2245 0.0
O828 O 0.46091 0.5492 0.24644 0.0
O829 O 0.46478 0.50981 0.20055 0.0
O830 O 0.43821 0.52457 0.16893 0.0
O831 O 0.44254 0.48145 0.25219 0.0
H832 H 0.49954 0.52288 0.23375 0.0
H833 H 0.46783 0.48557 0.3205 0.0
O834 O 0.41717 0.4915 0.21354 0.0
O835 O 0.40961 0.52469 0.27046 0.0
O836 O 0.43973 0.52073 0.29924 0.0
C837 C 0.41995 0.52348 0.30167 0.0
H838 H 0.34648 0.52655 0.19838 0.0
H839 H 0.52797 0.50129 0.27728 0.0
Co840 Co 0.20251 0.53229 0.99898 0.0
C841 C 0.19807 0.48232 0.98312 0.0
Co842 Co 0.17361 0.52196 0.97001 0.0
C843 C 0.23415 0.55918 1.04231 0.0
C844 C 0.24622 0.52953 1.00987 0.0
N845 N 0.2281 0.54021 1.02073 0.0
N846 N 0.2553 0.56081 1.04426 0.0
C847 C 0.26287 0.54212 1.02422 0.0
H848 H 0.22341 0.57217 1.05456 0.0
H849 H 0.24738 0.51435 0.99068 0.0
C850 C 0.17552 0.57124 0.98409 0.0
N851 N 0.14907 0.51399 0.94565 0.0
C852 C 0.13413 0.49816 0.95638 0.0
C853 C 0.14291 0.52212 0.91121 0.0
N854 N 0.11914 0.49596 0.92959 0.0
C855 C 0.1245 0.51094 0.90119 0.0
C856 C 0.1702 0.52288 1.05143 0.0
O857 O 0.19297 0.56629 1.00053 0.0
O858 O 0.16585 0.55446 0.96713 0.0
O859 O 0.15963 0.52012 1.02059 0.0
O860 O 0.18982 0.5273 1.04844 0.0
O861 O 0.18023 0.48955 0.97241 0.0
H862 H 0.15138 0.53515 0.89432 0.0
H863 H 0.13447 0.4881 0.98275 0.0
O864 O 0.21107 0.49779 0.99618 0.0
O865 O 0.21563 0.53741 0.95088 0.0
O866 O 0.18871 0.52354 0.91977 0.0
C867 C 0.20774 0.531 0.91938 0.0
H868 H 0.27936 0.53808 1.0199 0.0
H869 H 0.11565 0.51357 0.87516 0.0
Co870 Co 0.56632 0.26634 0.9981 0.0
C871 C 0.57152 0.31583 0.98073 0.0
Co872 Co 0.5948 0.27513 0.96715 0.0
C873 C 0.53492 0.23961 1.04133 0.0
C874 C 0.52289 0.27061 1.0124 0.0
N875 N 0.54097 0.25915 1.02123 0.0
N876 N 0.5138 0.23839 1.0443 0.0
C877 C 0.50624 0.25793 1.02652 0.0
H878 H 0.54556 0.22583 1.05144 0.0
H879 H 0.52165 0.2863 0.99441 0.0
C880 C 0.59197 0.22622 0.98177 0.0
N881 N 0.61917 0.2823 0.94157 0.0
C882 C 0.63499 0.29693 0.95255 0.0
C883 C 0.62429 0.27496 0.90609 0.0
N884 N 0.64951 0.2992 0.92497 0.0
C885 C 0.64294 0.28548 0.89572 0.0
C886 C 0.59942 0.27501 1.04878 0.0
O887 O 0.5756 0.23225 1.00075 0.0
O888 O 0.60148 0.24228 0.96301 0.0
O889 O 0.60971 0.27637 1.01736 0.0
O890 O 0.5796 0.27194 1.0467 0.0
O891 O 0.58916 0.30784 0.97019 0.0
H892 H 0.61496 0.26294 0.88872 0.0
H893 H 0.6356 0.30618 0.97971 0.0
O894 O 0.5582 0.30093 0.99428 0.0
O895 O 0.55236 0.26058 0.95055 0.0
O896 O 0.57878 0.27414 0.91784 0.0
C897 C 0.55972 0.26679 0.91853 0.0
H898 H 0.48976 0.26233 1.02319 0.0
H899 H 0.65115 0.2832 0.86891 0.0
Co900 Co 0.20428 0.26576 0.86285 0.0
C901 C 0.19848 0.31524 0.88075 0.0
Co902 Co 0.17548 0.27445 0.89301 0.0
C903 C 0.23656 0.2394 0.82125 0.0
C904 C 0.24792 0.27044 0.85113 0.0
N905 N 0.23006 0.25892 0.84107 0.0
N906 N 0.25772 0.2382 0.81966 0.0
C907 C 0.26488 0.25777 0.83803 0.0
H908 H 0.22616 0.2256 0.81038 0.0
H909 H 0.24875 0.28612 0.8693 0.0
C910 C 0.17888 0.22545 0.87749 0.0
N911 N 0.15052 0.28076 0.91717 0.0
C912 C 0.13494 0.29579 0.90648 0.0
C913 C 0.1434 0.26973 0.94885 0.0
N914 N 0.11841 0.2943 0.9302 0.0
C915 C 0.12355 0.27801 0.95686 0.0
C916 C 0.172 0.27466 0.81093 0.0
O917 O 0.19546 0.23154 0.85926 0.0
O918 O 0.1691 0.24147 0.89589 0.0
O919 O 0.16138 0.27598 0.84201 0.0
O920 O 0.19176 0.27134 0.81366 0.0
O921 O 0.18081 0.30723 0.89108 0.0
H922 H 0.15192 0.25615 0.96457 0.0
H923 H 0.13551 0.30715 0.88148 0.0
O924 O 0.21197 0.30041 0.86742 0.0
O925 O 0.21749 0.26008 0.91106 0.0
O926 O 0.19064 0.27324 0.94321 0.0
C927 C 0.20977 0.26605 0.94296 0.0
H928 H 0.28127 0.26224 0.8424 0.0
H929 H 0.11353 0.27239 0.98015 0.0
Co930 Co 0.56752 0.53206 0.8658 0.0
C931 C 0.56894 0.48242 0.87975 0.0
Co932 Co 0.59553 0.52034 0.89563 0.0
C933 C 0.54068 0.55633 0.81159 0.0
C934 C 0.5236 0.53949 0.85699 0.0
N935 N 0.54318 0.54271 0.8431 0.0
N936 N 0.52036 0.56214 0.80612 0.0
C937 C 0.50956 0.55153 0.8344 0.0
H938 H 0.55343 0.56203 0.79328 0.0
H939 H 0.51976 0.52906 0.88203 0.0
C940 C 0.59608 0.56953 0.88362 0.0
N941 N 0.61993 0.50974 0.91813 0.0
C942 C 0.62252 0.49487 0.94816 0.0
C943 C 0.63948 0.51368 0.90462 0.0
N944 N 0.64288 0.48897 0.95304 0.0
C945 C 0.65359 0.50085 0.92592 0.0
C946 C 0.59928 0.52161 0.81352 0.0
O947 O 0.5793 0.56503 0.86477 0.0
O948 O 0.60475 0.55247 0.90163 0.0
O949 O 0.60951 0.51888 0.84461 0.0
O950 O 0.57977 0.52623 0.81621 0.0
O951 O 0.58718 0.48842 0.8904 0.0
H952 H 0.64328 0.5251 0.88069 0.0
H953 H 0.60979 0.48824 0.96569 0.0
O954 O 0.55647 0.49876 0.86771 0.0
O955 O 0.55469 0.53792 0.91475 0.0
O956 O 0.58054 0.52154 0.94595 0.0
C957 C 0.5619 0.5303 0.94621 0.0
H958 H 0.49264 0.55194 0.83774 0.0
H959 H 0.67052 0.50081 0.9226 0.0
H960 H 0.44422 0.86406 0.12032 0.0
H961 H 0.33293 0.93306 0.11682 0.0
H962 H 0.38515 0.82851 0.14178 0.0
H963 H 0.39098 0.96862 0.14625 0.0
H964 H 0.35211 0.89452 0.1148 0.0
H965 H 0.4253 0.90286 0.11868 0.0
C966 C 0.42736 0.86434 0.12455 0.0
C967 C 0.41639 0.84289 0.13156 0.0
C968 C 0.36059 0.91083 0.12165 0.0
C969 C 0.39455 0.88711 0.1289 0.0
C970 C 0.34963 0.93283 0.12278 0.0
C971 C 0.36021 0.95421 0.13209 0.0
C972 C 0.3824 0.91022 0.12898 0.0
C973 C 0.382 0.95268 0.13933 0.0
C974 C 0.41655 0.88647 0.12368 0.0
C975 C 0.39442 0.84448 0.13668 0.0
N976 N 0.39232 0.93124 0.13744 0.0
N977 N 0.3843 0.86602 0.13505 0.0
H978 H 0.84896 0.44725 0.18808 0.0
H979 H 0.92275 0.3549 0.07373 0.0
H980 H 0.85426 0.4499 0.06584 0.0
H981 H 0.89915 0.34203 0.18703 0.0
H982 H 0.901 0.39171 0.07065 0.0
H983 H 0.86943 0.41003 0.18843 0.0
C984 C 0.85396 0.43956 0.16114 0.0
C985 C 0.84934 0.45134 0.12682 0.0
C986 C 0.90074 0.38086 0.09623 0.0
C987 C 0.87393 0.40911 0.12702 0.0
C988 C 0.91337 0.36003 0.09819 0.0
C989 C 0.91296 0.34538 0.13083 0.0
C990 C 0.88783 0.38725 0.12731 0.0
C991 C 0.9001 0.35273 0.16133 0.0
C992 C 0.86588 0.41842 0.16135 0.0
C993 C 0.85691 0.441 0.09284 0.0
N994 N 0.8882 0.37301 0.15886 0.0
N995 N 0.869 0.42062 0.09379 0.0
H996 H 0.41127 0.45077 0.17174 0.0
H997 H 0.34761 0.35234 0.29166 0.0
H998 H 0.41889 0.44505 0.29338 0.0
H999 H 0.36309 0.34399 0.1728 0.0
H1000 H 0.36925 0.38926 0.29348 0.0
H1001 H 0.39016 0.41406 0.17206 0.0
C1002 C 0.40883 0.44147 0.1985 0.0
C1003 C 0.41726 0.45078 0.23245 0.0
C1004 C 0.36771 0.37942 0.26697 0.0
C1005 C 0.39213 0.40899 0.23333 0.0
C1006 C 0.3551 0.35857 0.26578 0.0
C1007 C 0.35329 0.34517 0.23188 0.0
C1008 C 0.37829 0.38712 0.23389 0.0
C1009 C 0.36386 0.35379 0.19947 0.0
C1010 C 0.39661 0.42058 0.19872 0.0
C1011 C 0.41313 0.43821 0.26642 0.0
N1012 N 0.37574 0.37411 0.20125 0.0
N1013 N 0.40067 0.41811 0.26609 0.0
H1014 H 0.86052 0.84594 0.17178 0.0
H1015 H 0.9212 0.9465 0.29341 0.0
H1016 H 0.84911 0.85471 0.29202 0.0
H1017 H 0.91057 0.95158 0.17243 0.0
H1018 H 0.89927 0.9098 0.29474 0.0
H1019 H 0.8823 0.88211 0.1725 0.0
C1020 C 0.8623 0.85578 0.19828 0.0
C1021 C 0.85261 0.84746 0.23172 0.0
C1022 C 0.90197 0.91884 0.26788 0.0
C1023 C 0.87846 0.8887 0.23314 0.0
C1024 C 0.91478 0.93954 0.267 0.0
C1025 C 0.91803 0.95196 0.23262 0.0
C1026 C 0.89261 0.91031 0.23403 0.0
C1027 C 0.90872 0.94249 0.19949 0.0
C1028 C 0.87489 0.87638 0.19874 0.0
C1029 C 0.85587 0.86075 0.2654 0.0
N1030 N 0.8966 0.92235 0.201 0.0
N1031 N 0.8687 0.88055 0.26536 0.0
H1032 H 0.66387 0.09921 0.92094 0.0
H1033 H 0.59694 0.19487 1.04276 0.0
H1034 H 0.66893 0.10271 1.04321 0.0
H1035 H 0.61076 0.20262 0.92322 0.0
H1036 H 0.61952 0.15863 1.04425 0.0
H1037 H 0.64185 0.13521 0.92186 0.0
C1038 C 0.66074 0.10794 0.94801 0.0
C1039 C 0.66874 0.09818 0.98193 0.0
C1040 C 0.6174 0.16816 1.01765 0.0
C1041 C 0.64245 0.13918 0.98348 0.0
C1042 C 0.60423 0.18862 1.01666 0.0
C1043 C 0.60166 0.20169 0.98266 0.0
C1044 C 0.62787 0.16054 0.9843 0.0
C1045 C 0.61206 0.19307 0.94999 0.0
C1046 C 0.64795 0.12842 0.94857 0.0
C1047 C 0.6636 0.10996 1.01627 0.0
N1048 N 0.62454 0.17319 0.95161 0.0
N1049 N 0.65062 0.12967 1.01623 0.0
H1050 H 0.13836 0.72143 0.96441 0.0
H1051 H 0.13347 0.57919 0.98354 0.0
H1052 H 0.08236 0.68498 1.00253 0.0
H1053 H 0.19214 0.61768 0.99156 0.0
H1054 H 0.11446 0.61724 0.98522 0.0
H1055 H 0.1578 0.6837 0.9685 0.0
C1056 C 0.13002 0.70546 0.97345 0.0
C1057 C 0.10846 0.70656 0.98284 0.0
C1058 C 0.13146 0.61747 0.98679 0.0
C1059 C 0.13104 0.66282 0.98749 0.0
C1060 C 0.14244 0.59569 0.98564 0.0
C1061 C 0.16459 0.59507 0.98714 0.0
C1062 C 0.14254 0.6392 0.9887 0.0
C1063 C 0.17514 0.61717 0.99031 0.0
C1064 C 0.14129 0.68389 0.97604 0.0
C1065 C 0.09884 0.68512 0.99482 0.0
N1066 N 0.16405 0.63832 0.99048 0.0
N1067 N 0.11011 0.66416 0.99642 0.0
H1068 H 0.67282 0.69424 0.81934 0.0
H1069 H 0.6174 0.59065 0.94199 0.0
H1070 H 0.66426 0.69884 0.94089 0.0
H1071 H 0.6004 0.60243 0.82463 0.0
H1072 H 0.63898 0.62703 0.94051 0.0
H1073 H 0.65152 0.65702 0.8188 0.0
C1074 C 0.66701 0.68706 0.84601 0.0
C1075 C 0.67069 0.69948 0.88034 0.0
C1076 C 0.63044 0.62184 0.91509 0.0
C1077 C 0.64603 0.65715 0.87987 0.0
C1078 C 0.61799 0.60108 0.91596 0.0
C1079 C 0.60673 0.59356 0.88357 0.0
C1080 C 0.63229 0.63513 0.88124 0.0
C1081 C 0.60844 0.60775 0.8505 0.0
C1082 C 0.65456 0.66605 0.84561 0.0
C1083 C 0.66211 0.68973 0.91386 0.0
N1084 N 0.62114 0.62767 0.85004 0.0
N1085 N 0.65038 0.66923 0.91281 0.0
H1086 H 0.16478 0.19994 0.93782 0.0
H1087 H 0.09768 0.10391 0.81637 0.0
H1088 H 0.1693 0.19631 0.81551 0.0
H1089 H 0.10807 0.09955 0.93746 0.0
H1090 H 0.12062 0.13983 0.8143 0.0
H1091 H 0.14212 0.16455 0.93723 0.0
C1092 C 0.16142 0.19127 0.91081 0.0
C1093 C 0.16944 0.20085 0.87678 0.0
C1094 C 0.11761 0.13117 0.84137 0.0
C1095 C 0.14238 0.16051 0.87559 0.0
C1096 C 0.1042 0.11093 0.84265 0.0
C1097 C 0.10056 0.09891 0.87729 0.0
C1098 C 0.12733 0.13956 0.87501 0.0
C1099 C 0.11012 0.10837 0.91021 0.0
C1100 C 0.14823 0.17115 0.91042 0.0
C1101 C 0.16397 0.18918 0.84252 0.0
N1102 N 0.12292 0.12795 0.90825 0.0
N1103 N 0.15064 0.16978 0.84274 0.0
H1104 H 0.42181 0.35331 0.57192 0.0
H1105 H 0.35531 0.44922 0.69287 0.0
H1106 H 0.4041 0.34278 0.68926 0.0
H1107 H 0.35066 0.44623 0.5705 0.0
H1108 H 0.3763 0.41238 0.69195 0.0
H1109 H 0.39994 0.39009 0.5706 0.0
C1110 C 0.41375 0.359 0.5976 0.0
C1111 C 0.41502 0.34502 0.63089 0.0
C1112 C 0.3705 0.4195 0.66524 0.0
C1113 C 0.38976 0.38685 0.62945 0.0
C1114 C 0.35833 0.44046 0.66579 0.0
C1115 C 0.35077 0.45057 0.63181 0.0
C1116 C 0.37583 0.40868 0.6303 0.0
C1117 C 0.3557 0.43873 0.59745 0.0
C1118 C 0.40102 0.37978 0.59667 0.0
C1119 C 0.40375 0.353 0.66303 0.0
N1120 N 0.36811 0.41858 0.5975 0.0
N1121 N 0.39177 0.37327 0.66154 0.0
H1122 H 0.82871 0.93284 0.61863 0.0
H1123 H 0.94062 0.86483 0.61595 0.0
H1124 H 0.88713 0.96973 0.64036 0.0
H1125 H 0.88247 0.82962 0.64556 0.0
H1126 H 0.9214 0.90346 0.61358 0.0
H1127 H 0.84823 0.89449 0.61697 0.0
C1128 C 0.84557 0.93294 0.62291 0.0
C1129 C 0.85615 0.95464 0.63004 0.0
C1130 C 0.91293 0.88717 0.62051 0.0
C1131 C 0.87873 0.91084 0.62736 0.0
C1132 C 0.92391 0.86513 0.62183 0.0
C1133 C 0.91331 0.84379 0.63129 0.0
C1134 C 0.89109 0.88784 0.62775 0.0
C1135 C 0.89151 0.84545 0.63847 0.0
C1136 C 0.85673 0.91105 0.62201 0.0
C1137 C 0.87815 0.95353 0.6352 0.0
N1138 N 0.88121 0.86686 0.63634 0.0
N1139 N 0.88864 0.93217 0.63358 0.0
H1140 H 0.41504 0.94973 0.67068 0.0
H1141 H 0.34996 0.85352 0.793 0.0
H1142 H 0.42143 0.9461 0.79273 0.0
H1143 H 0.3655 0.84387 0.67441 0.0
H1144 H 0.37195 0.8902 0.79402 0.0
H1145 H 0.39378 0.91314 0.67191 0.0
C1146 C 0.41233 0.9409 0.69774 0.0
C1147 C 0.42046 0.95076 0.73153 0.0
C1148 C 0.37036 0.88011 0.76774 0.0
C1149 C 0.39511 0.90912 0.73344 0.0
C1150 C 0.35755 0.85939 0.767 0.0
C1151 C 0.35564 0.84569 0.73343 0.0
C1152 C 0.38107 0.88738 0.73452 0.0
C1153 C 0.36634 0.85389 0.70087 0.0
C1154 C 0.4 0.92007 0.69848 0.0
C1155 C 0.41594 0.9388 0.76589 0.0
N1156 N 0.37842 0.87408 0.7022 0.0
N1157 N 0.40338 0.91877 0.76604 0.0
H1158 H 0.88936 0.32619 0.72354 0.0
H1159 H 0.88343 0.46866 0.71681 0.0
H1160 H 0.8313 0.36434 0.74306 0.0
H1161 H 0.94058 0.43223 0.7491 0.0
H1162 H 0.86459 0.43061 0.71948 0.0
H1163 H 0.90849 0.36426 0.72621 0.0
C1164 C 0.88055 0.3426 0.72827 0.0
C1165 C 0.85853 0.34192 0.7328 0.0
C1166 C 0.88122 0.43086 0.72609 0.0
C1167 C 0.88065 0.38595 0.73558 0.0
C1168 C 0.89215 0.45265 0.72439 0.0
C1169 C 0.91382 0.45388 0.73262 0.0
C1170 C 0.89195 0.40966 0.73533 0.0
C1171 C 0.92397 0.43229 0.74246 0.0
C1172 C 0.8916 0.36435 0.73003 0.0
C1173 C 0.84819 0.36388 0.73932 0.0
N1174 N 0.91301 0.41107 0.74313 0.0
N1175 N 0.85929 0.38497 0.74005 0.0
H1176 H 0.67464 0.60255 0.54307 0.0
H1177 H 0.60561 0.69651 0.42257 0.0
H1178 H 0.65804 0.59277 0.42499 0.0
H1179 H 0.60373 0.69558 0.54524 0.0
H1180 H 0.62726 0.66023 0.42326 0.0
H1181 H 0.65238 0.63903 0.54479 0.0
C1182 C 0.66679 0.60839 0.5173 0.0
C1183 C 0.66846 0.59469 0.48368 0.0
C1184 C 0.62192 0.66764 0.45013 0.0
C1185 C 0.64265 0.63609 0.48561 0.0
C1186 C 0.60934 0.68827 0.44971 0.0
C1187 C 0.60236 0.69882 0.48383 0.0
C1188 C 0.62823 0.65755 0.48502 0.0
C1189 C 0.60825 0.68768 0.51822 0.0
C1190 C 0.65381 0.62899 0.51845 0.0
C1191 C 0.65741 0.60281 0.45146 0.0
N1192 N 0.62101 0.66781 0.51799 0.0
N1193 N 0.64512 0.62283 0.45321 0.0
H1194 H 0.17335 0.10679 0.54121 0.0
H1195 H 0.11001 0.20485 0.41946 0.0
H1196 H 0.15922 0.09829 0.42184 0.0
H1197 H 0.10065 0.19828 0.54057 0.0
H1198 H 0.13164 0.16848 0.42035 0.0
H1199 H 0.15131 0.14344 0.54229 0.0
C1200 C 0.16609 0.11293 0.51506 0.0
C1201 C 0.16842 0.09955 0.48124 0.0
C1202 C 0.12471 0.17476 0.44675 0.0
C1203 C 0.14293 0.14127 0.48238 0.0
C1204 C 0.11221 0.19548 0.44621 0.0
C1205 C 0.1031 0.20447 0.47984 0.0
C1206 C 0.12883 0.16301 0.4814 0.0
C1207 C 0.10693 0.19173 0.51381 0.0
C1208 C 0.15324 0.13364 0.51582 0.0
C1209 C 0.15808 0.10808 0.44848 0.0
N1210 N 0.11967 0.17184 0.51382 0.0
N1211 N 0.14598 0.12828 0.44984 0.0
H1212 H 0.66204 0.20101 0.44014 0.0
H1213 H 0.59861 0.10218 0.31895 0.0
H1214 H 0.67012 0.19458 0.31867 0.0
H1215 H 0.61032 0.09668 0.43954 0.0
H1216 H 0.62069 0.13877 0.31724 0.0
H1217 H 0.64015 0.16495 0.43962 0.0
C1218 C 0.65955 0.19167 0.41337 0.0
C1219 C 0.66834 0.20063 0.37954 0.0
C1220 C 0.61818 0.12968 0.34411 0.0
C1221 C 0.64229 0.15951 0.3784 0.0
C1222 C 0.60528 0.10904 0.34521 0.0
C1223 C 0.60228 0.09653 0.37959 0.0
C1224 C 0.62793 0.13803 0.37772 0.0
C1225 C 0.61194 0.10586 0.4125 0.0
C1226 C 0.64687 0.17114 0.41303 0.0
C1227 C 0.66411 0.188 0.34556 0.0
N1228 N 0.62418 0.12591 0.41076 0.0
N1229 N 0.65122 0.16825 0.34577 0.0
H1230 H 0.17432 0.69684 0.32175 0.0
H1231 H 0.1135 0.59734 0.44446 0.0
H1232 H 0.16017 0.70529 0.44109 0.0
H1233 H 0.10265 0.60404 0.32377 0.0
H1234 H 0.1346 0.63407 0.44302 0.0
H1235 H 0.15298 0.65963 0.32097 0.0
C1236 C 0.16721 0.69057 0.34795 0.0
C1237 C 0.16932 0.70408 0.38169 0.0
C1238 C 0.12747 0.62773 0.41683 0.0
C1239 C 0.14466 0.66174 0.38091 0.0
C1240 C 0.11527 0.60679 0.41768 0.0
C1241 C 0.10588 0.59775 0.38435 0.0
C1242 C 0.131 0.63966 0.38214 0.0
C1243 C 0.10916 0.61062 0.35032 0.0
C1244 C 0.15476 0.66955 0.34736 0.0
C1245 C 0.15919 0.69539 0.41453 0.0
N1246 N 0.12161 0.63075 0.34999 0.0
N1247 N 0.14749 0.67489 0.41335 0.0
H1248 H 0.32427 0.04118 0.26944 0.0
H1249 H 0.2062 1.01468 0.34785 0.0
H1250 H 0.27786 1.0002 0.2078 0.0
H1251 H 0.25355 0.05009 0.41549 0.0
H1252 H 0.23193 1.01064 0.29573 0.0
H1253 H 0.29899 0.04538 0.32262 0.0
C1254 C 0.30896 0.03282 0.26705 0.0
C1255 C 0.30354 1.02019 0.23355 0.0
C1256 C 0.23672 1.01941 0.3219 0.0
C1257 C 0.27397 0.02537 0.29478 0.0
C1258 C 0.22188 1.02186 0.35178 0.0
C1259 C 0.22738 0.0329 0.38658 0.0
C1260 C 0.25749 0.02807 0.32624 0.0
C1261 C 0.24828 0.04151 0.38947 0.0
C1262 C 0.29438 0.03537 0.29749 0.0
C1263 C 0.28309 1.01012 0.23261 0.0
N1264 N 0.26236 0.03895 0.36008 0.0
N1265 N 0.26928 1.01298 0.26225 0.0
H1266 H 0.0168 0.25131 0.41722 0.0
H1267 H 0.99293 0.30088 0.2056 0.0
H1268 H 0.06269 0.28833 0.34868 0.0
H1269 H 0.94783 0.25934 0.2692 0.0
H1270 H 0.01773 0.29746 0.25836 0.0
H1271 H 0.99142 0.25451 0.36487 0.0
C1272 C 0.02171 0.26 0.39109 0.0
C1273 C 0.04226 0.26944 0.38781 0.0
C1274 C 1.00242 0.28914 0.26109 0.0
C1275 C 0.01258 0.27347 0.32692 0.0
C1276 C 0.98803 0.29116 0.23078 0.0
C1277 C 0.96789 0.28049 0.23239 0.0
C1278 C 0.99702 0.2763 0.29413 0.0
C1279 C 0.96293 0.2681 0.26631 0.0
C1280 C 1.00703 0.26187 0.36107 0.0
C1281 C 0.04726 0.28058 0.35289 0.0
N1282 N 0.9773 0.26634 0.29553 0.0
N1283 N 0.03263 0.28232 0.32419 0.0
H1284 H 0.24969 0.24759 0.94897 0.0
H1285 H 0.27361 0.29827 0.16002 0.0
H1286 H 0.2038 0.28607 1.01581 0.0
H1287 H 0.31916 0.25844 0.09439 0.0
H1288 H 0.24847 0.29443 0.10775 0.0
H1289 H 0.27486 0.25122 1.00131 0.0
C1290 C 0.2447 0.25666 0.97479 0.0
C1291 C 0.22422 0.2664 0.97751 0.0
C1292 C 0.26395 0.28659 0.10449 0.0
C1293 C 0.25376 0.27093 1.03852 0.0
C1294 C 0.27853 0.28885 0.13449 0.0
C1295 C 0.29891 0.2788 0.13211 0.0
C1296 C 0.2694 0.27407 0.07109 0.0
C1297 C 0.30388 0.26673 0.09786 0.0
C1298 C 0.25929 0.25879 1.00481 0.0
C1299 C 0.21916 0.27803 1.01207 0.0
N1300 N 0.28932 0.26469 0.06902 0.0
N1301 N 0.23374 0.28001 1.04089 0.0
H1302 H 0.95124 0.03569 0.09656 0.0
H1303 H 0.07066 1.01593 1.01992 0.0
H1304 H 1.0006 1.00529 0.1655 0.0
H1305 H 0.02105 0.04712 0.95246 0.0
H1306 H 0.04569 1.0121 0.07352 0.0
H1307 H 0.97646 0.03963 1.0436 0.0
C1308 C 0.96726 0.02963 0.10064 0.0
C1309 C 0.97349 1.01999 0.13601 0.0
C1310 C 0.04029 1.0199 1.04702 0.0
C1311 C 1.00296 0.02475 0.07482 0.0
C1312 C 0.05467 1.02223 1.01633 0.0
C1313 C 0.04827 0.03203 0.98116 0.0
C1314 C 0.01914 0.02734 1.04293 0.0
C1315 C 0.02704 0.03953 0.9787 0.0
C1316 C 0.98179 0.032 0.07027 0.0
C1317 C 0.99477 1.01275 0.13906 0.0
N1318 N 0.01345 0.03701 1.00872 0.0
N1319 N 1.00854 1.01528 0.10925 0.0
H1320 H 0.70267 1.00888 0.84516 0.0
H1321 H 0.81921 0.04391 0.76771 0.0
H1322 H 0.74625 0.05278 0.90859 0.0
H1323 H 0.77677 0.99624 0.7087 0.0
H1324 H 0.79297 0.04771 0.81939 0.0
H1325 H 0.72915 1.00521 0.79402 0.0
C1326 C 0.71759 1.01805 0.84824 0.0
C1327 C 0.72191 0.0313 0.88158 0.0
C1328 C 0.78948 0.03629 0.7952 0.0
C1329 C 0.75281 0.02684 0.82283 0.0
C1330 C 0.80463 0.03394 0.76573 0.0
C1331 C 0.80054 1.01959 0.73343 0.0
C1332 C 0.76988 0.02432 0.7926 0.0
C1333 C 0.78094 1.00751 0.73272 0.0
C1334 C 0.73288 1.01578 0.81906 0.0
C1335 C 0.74191 0.0424 0.88367 0.0
N1336 N 0.76654 1.01021 0.76137 0.0
N1337 N 0.75642 0.03991 0.8551 0.0
H1338 H 0.06674 0.78628 0.8491 0.0
H1339 H 0.94844 0.76119 0.77062 0.0
H1340 H 0.01825 0.75402 0.91781 0.0
H1341 H 0.99722 0.79486 0.70426 0.0
H1342 H 0.97325 0.75838 0.82466 0.0
H1343 H 0.04159 0.78901 0.79588 0.0
C1344 C 0.05091 0.77957 0.85308 0.0
C1345 C 0.04493 0.76977 0.88847 0.0
C1346 C 0.9785 0.76648 0.7983 0.0
C1347 C 0.0155 0.7731 0.82687 0.0
C1348 C 0.96421 0.76821 0.76733 0.0
C1349 C 0.97042 0.77841 0.73231 0.0
C1350 C 0.99938 0.77493 0.79467 0.0
C1351 C 0.99138 0.78689 0.73032 0.0
C1352 C 0.03642 0.78124 0.82255 0.0
C1353 C 0.02389 0.76164 0.89135 0.0
N1354 N 1.00488 0.78493 0.76059 0.0
N1355 N 1.01013 0.76349 0.86135 0.0
H1356 H 0.74484 0.74498 0.95702 0.0
H1357 H 0.77211 0.80322 0.16141 0.0
H1358 H 0.70143 0.79052 1.01795 0.0
H1359 H 0.8157 0.75928 0.09802 0.0
H1360 H 0.7464 0.79885 0.11007 0.0
H1361 H 0.77016 0.74937 1.00872 0.0
C1362 C 0.74041 0.75575 0.98149 0.0
C1363 C 0.72061 0.76728 0.98268 0.0
C1364 C 0.76159 0.79025 0.10711 0.0
C1365 C 0.75037 0.77268 1.04296 0.0
C1366 C 0.77649 0.79281 0.13651 0.0
C1367 C 0.79647 0.78175 0.13442 0.0
C1368 C 0.76633 0.77634 0.07476 0.0
C1369 C 0.80077 0.7684 0.10114 0.0
C1370 C 0.7551 0.75833 1.01113 0.0
C1371 C 0.71623 0.78102 1.01554 0.0
N1372 N 0.7859 0.76603 0.07295 0.0
N1373 N 0.73093 0.78339 1.04408 0.0
H1374 H 0.24769 0.54897 0.91265 0.0
H1375 H 0.26976 0.4999 0.7002 0.0
H1376 H 0.20106 0.51095 0.84681 0.0
H1377 H 0.31676 0.53558 0.76838 0.0
H1378 H 0.2447 0.50384 0.75269 0.0
H1379 H 0.27249 0.54493 0.85997 0.0
C1380 C 0.24246 0.53993 0.88697 0.0
C1381 C 0.22191 0.53042 0.88461 0.0
C1382 C 0.26049 0.51073 0.75641 0.0
C1383 C 0.25098 0.52545 0.8232 0.0
C1384 C 0.27499 0.50842 0.72632 0.0
C1385 C 0.29573 0.51729 0.72946 0.0
C1386 C 0.26642 0.52217 0.7905 0.0
C1387 C 0.30116 0.52825 0.76435 0.0
C1388 C 0.25684 0.53754 0.85676 0.0
C1389 C 0.21651 0.5188 0.85022 0.0
N1390 N 0.28667 0.53042 0.7932 0.0
N1391 N 0.23088 0.51663 0.82114 0.0
H1392 H 0.20078 0.78886 0.52119 0.0
H1393 H 0.31917 0.7629 0.59783 0.0
H1394 H 0.24852 0.75248 0.45561 0.0
H1395 H 0.27153 0.79724 0.66629 0.0
H1396 H 0.29361 0.75964 0.54532 0.0
H1397 H 0.22598 0.79216 0.57461 0.0
C1398 C 0.21638 0.78131 0.51801 0.0
C1399 C 0.22223 0.77023 0.48343 0.0
C1400 C 0.28874 0.768 0.57178 0.0
C1401 C 0.25159 0.77432 0.54482 0.0
C1402 C 0.30347 0.76999 0.60185 0.0
C1403 C 0.2978 0.78052 0.63692 0.0
C1404 C 0.26795 0.77654 0.57635 0.0
C1405 C 0.2769 0.78907 0.64001 0.0
C1406 C 0.23089 0.78333 0.54856 0.0
C1407 C 0.24298 0.76113 0.4814 0.0
N1408 N 0.26291 0.78689 0.61048 0.0
N1409 N 0.25671 0.76341 0.51121 0.0
H1410 H 0.06952 0.5094 0.51983 0.0
H1411 H 0.95217 0.54187 0.59681 0.0
H1412 H 0.02555 0.55315 0.45731 0.0
H1413 H 0.99603 0.49739 0.6583 0.0
H1414 H 0.97844 0.54599 0.54535 0.0
H1415 H 0.04316 0.50533 0.57108 0.0
C1416 C 0.05453 0.51844 0.51693 0.0
C1417 C 0.05011 0.5318 0.48379 0.0
C1418 C 0.98228 0.5352 0.57004 0.0
C1419 C 0.01928 0.52684 0.54278 0.0
C1420 C 0.9671 0.53268 0.59944 0.0
C1421 C 0.97153 0.5191 0.63236 0.0
C1422 C 1.00225 0.52415 0.57319 0.0
C1423 C 0.99157 0.50802 0.63378 0.0
C1424 C 0.03931 0.51595 0.54622 0.0
C1425 C 0.03 0.54271 0.48203 0.0
N1426 N 1.00597 0.51081 0.60509 0.0
N1427 N 0.01555 0.53997 0.51066 0.0
H1428 H 0.81971 0.53166 0.26815 0.0
H1429 H 0.70067 0.51267 0.34565 0.0
H1430 H 0.7693 0.50443 0.19821 0.0
H1431 H 0.75079 0.5425 0.41359 0.0
H1432 H 0.72533 0.5092 0.29162 0.0
H1433 H 0.79495 0.53485 0.32192 0.0
C1434 C 0.80355 0.52611 0.26405 0.0
C1435 C 0.79684 0.51764 0.2282 0.0
C1436 C 0.73091 0.5166 0.31833 0.0
C1437 C 0.76799 0.52152 0.29021 0.0
C1438 C 0.71673 0.51869 0.34926 0.0
C1439 C 0.72339 0.52804 0.38461 0.0
C1440 C 0.75211 0.52379 0.32243 0.0
C1441 C 0.74466 0.53528 0.38715 0.0
C1442 C 0.7893 0.52807 0.29485 0.0
C1443 C 0.77544 0.51101 0.22506 0.0
N1444 N 0.75808 0.53297 0.35687 0.0
N1445 N 0.76195 0.51309 0.25531 0.0
H1446 H 0.75013 0.24692 0.4483 0.0
H1447 H 0.77479 0.30068 0.6571 0.0
H1448 H 0.7048 0.28694 0.51411 0.0
H1449 H 0.81915 0.25707 0.59489 0.0
H1450 H 0.74982 0.29677 0.60462 0.0
H1451 H 0.77539 0.25075 0.50056 0.0
C1452 C 0.7453 0.25637 0.47387 0.0
C1453 C 0.72495 0.26648 0.47638 0.0
C1454 C 0.76501 0.28812 0.60214 0.0
C1455 C 0.75454 0.27126 0.53716 0.0
C1456 C 0.7795 0.29042 0.63224 0.0
C1457 C 0.79947 0.27931 0.6309 0.0
C1458 C 0.77016 0.27451 0.56967 0.0
C1459 C 0.80419 0.26621 0.5975 0.0
C1460 C 0.75992 0.25862 0.50382 0.0
C1461 C 0.72006 0.27862 0.51057 0.0
N1462 N 0.78973 0.26416 0.56851 0.0
N1463 N 0.73466 0.28071 0.53928 0.0
H1464 H 0.51979 0.24821 0.91302 0.0
H1465 H 0.49491 0.30002 0.7034 0.0
H1466 H 0.56525 0.28705 0.84605 0.0
H1467 H 0.45021 0.25811 0.76733 0.0
H1468 H 0.52008 0.29623 0.75556 0.0
H1469 H 0.49441 0.25181 0.86097 0.0
C1470 C 0.52463 0.25735 0.88724 0.0
C1471 C 0.54505 0.2672 0.88435 0.0
C1472 C 0.50477 0.28792 0.75848 0.0
C1473 C 0.5153 0.27171 0.82377 0.0
C1474 C 0.49018 0.29015 0.72855 0.0
C1475 C 0.47004 0.27949 0.73047 0.0
C1476 C 0.49958 0.27483 0.79137 0.0
C1477 C 0.46529 0.26688 0.76424 0.0
C1478 C 0.50993 0.25947 0.85739 0.0
C1479 C 0.54993 0.27894 0.84989 0.0
N1480 N 0.47987 0.26489 0.79306 0.0
N1481 N 0.53525 0.28091 0.82128 0.0
H1482 H 0.45396 0.03527 0.5942 0.0
H1483 H 0.57275 1.00967 0.51906 0.0
H1484 H 0.5013 1.00012 0.66213 0.0
H1485 H 0.52545 0.04655 0.45333 0.0
H1486 H 0.54719 1.006 0.57179 0.0
H1487 H 0.47974 0.03885 0.54203 0.0
C1488 C 0.46962 0.02805 0.59814 0.0
C1489 C 0.47517 1.01723 0.63297 0.0
C1490 C 0.54246 1.01501 0.54585 0.0
C1491 C 0.50524 1.0216 0.57293 0.0
C1492 C 0.55718 1.01726 0.51572 0.0
C1493 C 0.55155 0.02857 0.4813 0.0
C1494 C 0.52178 0.02405 0.54184 0.0
C1495 C 0.53081 0.0377 0.47901 0.0
C1496 C 0.48448 0.03024 0.5683 0.0
C1497 C 0.49602 1.00854 0.63603 0.0
N1498 N 0.51688 0.03521 0.50842 0.0
N1499 N 0.51011 1.01092 0.60678 0.0
H1500 H 0.44961 0.75557 0.27137 0.0
H1501 H 0.56771 0.78405 0.3478 0.0
H1502 H 0.49542 0.7971 0.20936 0.0
H1503 H 0.52101 0.74843 0.41645 0.0
H1504 H 0.54167 0.78747 0.29609 0.0
H1505 H 0.47511 0.75196 0.32438 0.0
C1506 C 0.4648 0.7642 0.26891 0.0
C1507 C 0.47003 0.77679 0.2354 0.0
C1508 C 0.53711 0.77879 0.32242 0.0
C1509 C 0.49979 0.77228 0.29619 0.0
C1510 C 0.55213 0.7767 0.35201 0.0
C1511 C 0.54686 0.76582 0.38694 0.0
C1512 C 0.51644 0.76991 0.32725 0.0
C1513 C 0.52607 0.75694 0.39028 0.0
C1514 C 0.47951 0.76199 0.29919 0.0
C1515 C 0.49034 0.78722 0.23425 0.0
N1516 N 0.51182 0.75916 0.36118 0.0
N1517 N 0.50425 0.78466 0.26369 0.0
H1518 H 0.49665 0.49698 0.1618 0.0
H1519 H 0.52267 0.5507 0.95353 0.0
H1520 H 0.45207 0.53866 0.09716 0.0
H1521 H 0.56677 0.508 1.01757 0.0
H1522 H 0.49724 0.54695 1.00546 0.0
H1523 H 0.522 0.50073 0.10981 0.0
C1524 C 0.49198 0.50679 0.13654 0.0
C1525 C 0.47179 0.51737 0.13438 0.0
C1526 C 0.51247 0.53847 1.00844 0.0
C1527 C 0.5016 0.52203 0.07367 0.0
C1528 C 0.52722 0.54067 0.97864 0.0
C1529 C 0.54729 0.5298 0.98066 0.0
C1530 C 0.51742 0.52517 1.04128 0.0
C1531 C 0.55176 0.51696 1.01437 0.0
C1532 C 0.50668 0.50899 0.1067 0.0
C1533 C 0.46717 0.52994 0.10048 0.0
N1534 N 0.53706 0.51499 1.04299 0.0
N1535 N 0.48186 0.53194 0.07182 0.0
H1536 H 0.39426 0.03071 1.04461 0.0
H1537 H 0.37949 0.02514 0.81539 0.0
H1538 H 0.33392 1.02115 0.99081 0.0
H1539 H 0.4399 0.02506 0.87102 0.0
H1540 H 0.36241 0.02588 0.87842 0.0
H1541 H 0.41088 0.03091 0.98141 0.0
C1542 C 0.38441 0.02875 1.01961 0.0
C1543 C 0.3625 0.02594 1.02364 0.0
C1544 C 0.37941 0.02575 0.87689 0.0
C1545 C 0.38172 0.02619 0.95004 0.0
C1546 C 0.38923 0.02539 0.84071 0.0
C1547 C 0.41133 0.02506 0.8373 0.0
C1548 C 0.39162 0.02596 0.91049 0.0
C1549 C 0.42289 0.0253 0.87169 0.0
C1550 C 0.39399 0.02881 0.98329 0.0
C1551 C 0.35081 1.0234 0.9896 0.0
N1552 N 0.41299 0.02577 0.9064 0.0
N1553 N 0.36048 1.02362 0.95461 0.0
H1554 H 0.93778 0.27181 0.99219 0.0
H1555 H 0.83016 0.27375 0.87031 0.0
H1556 H 0.87635 0.27037 1.04396 0.0
H1557 H 0.89123 0.26496 0.81891 0.0
H1558 H 0.8467 0.27352 0.93346 0.0
H1559 H 0.92121 0.27034 0.92906 0.0
C1560 C 0.92079 0.27112 0.99046 0.0
C1561 C 0.90857 0.27117 1.02401 0.0
C1562 C 0.85653 0.27155 0.90846 0.0
C1563 C 0.88925 0.26966 0.95071 0.0
C1564 C 0.84706 0.27166 0.87213 0.0
C1565 C 0.85919 0.26928 0.83867 0.0
C1566 C 0.8785 0.26925 0.91201 0.0
C1567 C 0.8811 0.26674 0.84353 0.0
C1568 C 0.9113 0.27028 0.95415 0.0
C1569 C 0.88655 0.27031 1.01928 0.0
N1570 N 0.88996 0.2669 0.8792 0.0
N1571 N 0.8777 0.26969 0.98362 0.0
H1572 H 0.33123 0.27248 0.37025 0.0
H1573 H 0.43902 0.27325 0.49146 0.0
H1574 H 0.39255 0.27018 0.31807 0.0
H1575 H 0.37767 0.26935 0.54327 0.0
H1576 H 0.42246 0.27257 0.42837 0.0
H1577 H 0.34787 0.27178 0.43321 0.0
C1578 C 0.34822 0.27176 0.37186 0.0
C1579 C 0.36038 0.27135 0.33825 0.0
C1580 C 0.41257 0.27179 0.45345 0.0
C1581 C 0.37979 0.27068 0.4114 0.0
C1582 C 0.42205 0.27217 0.48974 0.0
C1583 C 0.40985 0.2713 0.52328 0.0
C1584 C 0.39054 0.27067 0.45003 0.0
C1585 C 0.38786 0.26999 0.51858 0.0
C1586 C 0.35775 0.27137 0.40808 0.0
C1587 C 0.3824 0.27047 0.34282 0.0
N1588 N 0.379 0.26978 0.48293 0.0
N1589 N 0.39131 0.27023 0.37844 0.0
H1590 H 0.93475 0.02755 0.37003 0.0
H1591 H 0.82668 1.02068 0.49016 0.0
H1592 H 0.874 0.0247 0.31574 0.0
H1593 H 0.88756 0.03214 0.541 0.0
H1594 H 0.84318 1.02124 0.42672 0.0
H1595 H 0.9175 0.02834 0.43225 0.0
C1596 C 0.91773 0.02713 0.371 0.0
C1597 C 0.90596 0.02609 0.33697 0.0
C1598 C 0.85294 1.0237 0.45171 0.0
C1599 C 0.88577 0.02684 0.40954 0.0
C1600 C 0.8435 1.02339 0.48815 0.0
C1601 C 0.85561 0.02642 0.52153 0.0
C1602 C 0.87483 0.02689 0.44807 0.0
C1603 C 0.87742 0.02979 0.51649 0.0
C1604 C 0.90784 0.0276 0.40686 0.0
C1605 C 0.88387 0.02558 0.34084 0.0
N1606 N 0.88621 0.02985 0.48084 0.0
N1607 N 0.87458 0.02587 0.3762 0.0
H1608 H 0.69028 0.02581 0.12133 0.0
H1609 H 0.58144 0.0245 0.24007 0.0
H1610 H 0.62937 1.02287 0.06769 0.0
H1611 H 0.64249 1.02217 0.29327 0.0
H1612 H 0.5985 0.02436 0.17731 0.0
H1613 H 0.67314 0.02495 0.18393 0.0
C1614 C 0.67329 0.02493 0.12254 0.0
C1615 C 0.66139 0.02437 0.08861 0.0
C1616 C 0.60822 1.02383 0.20264 0.0
C1617 C 0.64139 1.0235 0.16134 0.0
C1618 C 0.59845 1.0239 0.23873 0.0
C1619 C 0.61041 1.0233 0.27258 0.0
C1620 C 0.63031 1.02327 0.19973 0.0
C1621 C 0.63247 1.02259 0.26835 0.0
C1622 C 0.66346 0.02445 0.15855 0.0
C1623 C 0.63934 1.02328 0.09269 0.0
N1624 N 0.64159 1.02265 0.23293 0.0
N1625 N 0.63015 1.02294 0.12807 0.0
H1626 H 0.08626 0.77738 0.11906 0.0
H1627 H 0.19344 0.77701 0.2424 0.0
H1628 H 0.14739 0.78251 0.06672 0.0
H1629 H 0.13163 0.78064 0.29236 0.0
H1630 H 0.17743 0.77826 0.17867 0.0
H1631 H 0.10284 0.77786 0.18183 0.0
C1632 C 0.10323 0.77869 0.12053 0.0
C1633 C 0.11527 0.77994 0.08677 0.0
C1634 C 0.16732 0.77886 0.20348 0.0
C1635 C 0.13473 0.78031 0.16028 0.0
C1636 C 0.17648 0.77813 0.24018 0.0
C1637 C 0.16401 0.77875 0.2735 0.0
C1638 C 0.14532 0.78005 0.19934 0.0
C1639 C 0.14207 0.78017 0.268 0.0
C1640 C 0.11273 0.77896 0.15679 0.0
C1641 C 0.13728 0.78159 0.09149 0.0
N1642 N 0.13355 0.78068 0.23203 0.0
N1643 N 0.14621 0.78161 0.12725 0.0
H1644 H 0.69376 0.77068 0.74071 0.0
H1645 H 0.58609 0.77462 0.61917 0.0
H1646 H 0.63215 0.77589 0.79122 0.0
H1647 H 0.64715 0.77275 0.5659 0.0
H1648 H 0.60297 0.77512 0.68166 0.0
H1649 H 0.67752 0.77139 0.67715 0.0
C1650 C 0.67681 0.77203 0.73862 0.0
C1651 C 0.66442 0.77325 0.77195 0.0
C1652 C 0.61278 0.77466 0.65645 0.0
C1653 C 0.64553 0.774 0.69825 0.0
C1654 C 0.60311 0.77438 0.62041 0.0
C1655 C 0.61507 0.77367 0.58657 0.0
C1656 C 0.63482 0.77413 0.65951 0.0
C1657 C 0.63713 0.77337 0.59082 0.0
C1658 C 0.66753 0.77243 0.70208 0.0
C1659 C 0.64249 0.77494 0.76676 0.0
N1660 N 0.64622 0.77354 0.62638 0.0
N1661 N 0.63386 0.77522 0.73096 0.0
H1662 H 0.0798 0.02506 0.74181 0.0
H1663 H 0.18708 0.02609 0.61848 0.0
H1664 H 0.14157 1.02268 0.79211 0.0
H1665 H 0.12579 1.02339 0.56625 0.0
H1666 H 0.17056 0.02505 0.68134 0.0
H1667 H 0.0959 0.02463 0.67822 0.0
C1668 C 0.09677 0.02437 0.73971 0.0
C1669 C 0.10918 1.02386 0.77313 0.0
C1670 C 0.16062 0.02462 0.65629 0.0
C1671 C 0.12801 1.02351 0.69897 0.0
C1672 C 0.17009 0.02522 0.61998 0.0
C1673 C 0.15799 0.02481 0.58619 0.0
C1674 C 0.1386 1.02372 0.65985 0.0
C1675 C 0.13596 1.02368 0.59098 0.0
C1676 C 0.10599 0.02414 0.70306 0.0
C1677 C 0.13117 1.02303 0.7677 0.0
N1678 N 0.12708 1.02326 0.62679 0.0
N1679 N 0.13975 1.02295 0.73173 0.0
H1680 H 0.39317 0.52617 0.54862 0.0
H1681 H 0.37737 0.52627 0.31928 0.0
H1682 H 0.33253 0.52373 0.4939 0.0
H1683 H 0.43816 0.5229 0.3733 0.0
H1684 H 0.36083 0.52696 0.38268 0.0
H1685 H 0.40992 0.5266 0.48529 0.0
C1686 C 0.38332 0.52581 0.52345 0.0
C1687 C 0.36126 0.52492 0.52718 0.0
C1688 C 0.3778 0.52611 0.38075 0.0
C1689 C 0.38056 0.52541 0.45369 0.0
C1690 C 0.38731 0.52576 0.34434 0.0
C1691 C 0.40933 0.52455 0.34038 0.0
C1692 C 0.39026 0.52533 0.41403 0.0
C1693 C 0.42117 0.52386 0.37446 0.0
C1694 C 0.39294 0.52602 0.4871 0.0
C1695 C 0.34953 0.52443 0.49297 0.0
N1696 N 0.41158 0.52427 0.40944 0.0
N1697 N 0.35923 0.52469 0.4581 0.0
H1698 H 0.93681 0.77333 0.49412 0.0
H1699 H 0.82912 0.77541 0.37234 0.0
H1700 H 0.8755 0.76827 0.54576 0.0
H1701 H 0.8904 0.77136 0.32032 0.0
H1702 H 0.84568 0.77372 0.43538 0.0
H1703 H 0.92026 0.77346 0.431 0.0
C1704 C 0.91984 0.77216 0.49237 0.0
C1705 C 0.90768 0.77073 0.52593 0.0
C1706 C 0.85557 0.77314 0.41028 0.0
C1707 C 0.88833 0.77108 0.45249 0.0
C1708 C 0.84608 0.77412 0.37398 0.0
C1709 C 0.85823 0.77351 0.34032 0.0
C1710 C 0.87759 0.77169 0.41371 0.0
C1711 C 0.88022 0.77184 0.34504 0.0
C1712 C 0.91036 0.77224 0.45603 0.0
C1713 C 0.88568 0.76931 0.5211 0.0
N1714 N 0.88909 0.77109 0.38072 0.0
N1715 N 0.87682 0.76962 0.48539 0.0
H1716 H 0.33572 0.77105 0.87111 0.0
H1717 H 0.44394 0.7752 0.99143 0.0
H1718 H 0.39654 0.77094 0.81695 0.0
H1719 H 0.38281 0.76626 1.0424 0.0
H1720 H 0.42742 0.77461 0.92798 0.0
H1721 H 0.35293 0.77022 0.93342 0.0
C1722 C 0.35274 0.77078 0.87212 0.0
C1723 C 0.36454 0.77101 0.83808 0.0
C1724 C 0.4176 0.77271 0.953 0.0
C1725 C 0.38469 0.77024 0.91078 0.0
C1726 C 0.42706 0.77305 0.98946 0.0
C1727 C 0.41489 0.77072 1.0229 0.0
C1728 C 0.39564 0.7702 0.94937 0.0
C1729 C 0.39301 0.76805 1.01787 0.0
C1730 C 0.36261 0.7703 0.90804 0.0
C1731 C 0.38664 0.77068 0.84203 0.0
N1732 N 0.38421 0.76795 0.9822 0.0
N1733 N 0.39591 0.77042 0.87744 0.0
H1734 H 0.87962 0.53205 0.81969 0.0
H1735 H 0.89522 0.52607 1.04872 0.0
H1736 H 0.94005 0.52169 0.87282 0.0
H1737 H 0.83472 0.52934 0.9936 0.0
H1738 H 0.91214 0.52643 0.98549 0.0
H1739 H 0.8633 0.53303 0.88314 0.0
C1740 C 0.88954 0.53007 0.84459 0.0
C1741 C 0.91138 0.5268 0.84035 0.0
C1742 C 0.89515 0.52714 0.98721 0.0
C1743 C 0.89254 0.52793 0.91413 0.0
C1744 C 0.88544 0.527 1.02349 0.0
C1745 C 0.86337 0.52768 1.02704 0.0
C1746 C 0.88284 0.52809 0.95375 0.0
C1747 C 0.85172 0.52877 0.99279 0.0
C1748 C 0.88015 0.53059 0.88104 0.0
C1749 C 0.9232 0.52428 0.87423 0.0
N1750 N 0.86151 0.52895 0.95803 0.0
N1751 N 0.91371 0.52491 0.90932 0.0
H1752 H 0.58083 0.52363 0.74229 0.0
H1753 H 0.68915 0.52177 0.62218 0.0
H1754 H 0.64177 0.51711 0.79496 0.0
H1755 H 0.62805 0.51944 0.56918 0.0
H1756 H 0.67224 0.52093 0.68497 0.0
H1757 H 0.59768 0.52295 0.67942 0.0
C1758 C 0.59778 0.52197 0.74083 0.0
C1759 C 0.60975 0.52035 0.77462 0.0
C1760 C 0.66246 0.52054 0.65971 0.0
C1761 C 0.62945 0.51977 0.70144 0.0
C1762 C 0.67215 0.52102 0.62354 0.0
C1763 C 0.66016 0.52065 0.58967 0.0
C1764 C 0.6404 0.51983 0.6628 0.0
C1765 C 0.63811 0.51971 0.59406 0.0
C1766 C 0.60743 0.52159 0.70462 0.0
C1767 C 0.63173 0.51831 0.77013 0.0
N1768 N 0.62905 0.51942 0.62961 0.0
N1769 N 0.64076 0.51817 0.73456 0.0
H1770 H 0.19112 0.27429 0.74019 0.0
H1771 H 0.08372 0.27783 0.61783 0.0
H1772 H 0.12957 0.27848 0.79107 0.0
H1773 H 0.14495 0.27907 0.56526 0.0
H1774 H 0.10035 0.27793 0.68056 0.0
H1775 H 0.17492 0.27582 0.67679 0.0
C1776 C 0.17417 0.2756 0.73825 0.0
C1777 C 0.16184 0.27627 0.77174 0.0
C1778 C 0.11025 0.27825 0.65547 0.0
C1779 C 0.14291 0.27793 0.69785 0.0
C1780 C 0.10072 0.2782 0.61924 0.0
C1781 C 0.11278 0.27847 0.58543 0.0
C1782 C 0.13228 0.27843 0.65887 0.0
C1783 C 0.13483 0.27893 0.59005 0.0
C1784 C 0.1649 0.27647 0.70171 0.0
C1785 C 0.13989 0.27794 0.76656 0.0
N1786 N 0.14377 0.27881 0.62579 0.0
N1787 N 0.13124 0.27864 0.73068 0.0
H1788 H 0.58094 0.27504 0.11996 0.0
H1789 H 0.689 0.27312 0.24082 0.0
H1790 H 0.64216 0.27717 0.06745 0.0
H1791 H 0.62785 0.277 0.29335 0.0
H1792 H 0.67228 0.27423 0.17793 0.0
H1793 H 0.59768 0.27543 0.18286 0.0
C1794 C 0.59794 0.27567 0.12144 0.0
C1795 C 0.61 0.27611 0.08765 0.0
C1796 C 0.66245 0.2749 0.2031 0.0
C1797 C 0.62958 0.2764 0.16101 0.0
C1798 C 0.67202 0.27426 0.23935 0.0
C1799 C 0.65997 0.27499 0.27315 0.0
C1800 C 0.64042 0.27615 0.19979 0.0
C1801 C 0.63796 0.27644 0.26856 0.0
C1802 C 0.60753 0.27588 0.1577 0.0
C1803 C 0.63204 0.27687 0.09225 0.0
N1804 N 0.629 0.2769 0.2329 0.0
N1805 N 0.64101 0.27691 0.12791 0.0
H1806 H 0.18919 0.52495 0.12218 0.0
H1807 H 0.08184 0.52422 0.24508 0.0
H1808 H 0.12782 0.51879 0.071 0.0
H1809 H 0.1434 0.52236 0.29631 0.0
H1810 H 0.0982 0.52295 0.1818 0.0
H1811 H 0.17281 0.52469 0.18542 0.0
C1812 C 0.17224 0.52346 0.12405 0.0
C1813 C 0.16001 0.52184 0.09056 0.0
C1814 C 0.10819 0.52275 0.20679 0.0
C1815 C 0.14086 0.52172 0.16419 0.0
C1816 C 0.09882 0.52347 0.24321 0.0
C1817 C 0.11112 0.52334 0.27671 0.0
C1818 C 0.13023 0.52204 0.20309 0.0
C1819 C 0.13312 0.52243 0.27172 0.0
C1820 C 0.16286 0.52332 0.16047 0.0
C1821 C 0.13805 0.52 0.09558 0.0
N1822 N 0.14187 0.5219 0.23594 0.0
N1823 N 0.12928 0.52008 0.13137 0.0
H1824 H 0.35029 0.19468 0.2363 0.0
H1825 H 0.286 0.08487 0.15721 0.0
H1826 H 0.28555 0.20956 0.20843 0.0
H1827 H 0.34822 0.10425 0.11952 0.0
H1828 H 0.28216 0.12558 0.1854 0.0
H1829 H 0.34674 0.1549 0.20821 0.0
C1830 C 0.33511 0.18936 0.22508 0.0
C1831 C 0.31823 0.20561 0.22465 0.0
C1832 C 0.29638 0.12096 0.17008 0.0
C1833 C 0.31417 0.15981 0.19157 0.0
C1834 C 0.29849 0.09789 0.1536 0.0
C1835 C 0.31748 0.09114 0.1359 0.0
C1836 C 0.31353 0.13694 0.16931 0.0
C1837 C 0.33335 0.10857 0.13294 0.0
C1838 C 0.33317 0.16668 0.20867 0.0
C1839 C 0.29892 0.19754 0.20964 0.0
N1840 N 0.33116 0.13033 0.15 0.0
N1841 N 0.29742 0.17518 0.19327 0.0
H1842 H 0.91747 0.10237 0.23646 0.0
H1843 H 0.98354 0.2121 0.15805 0.0
H1844 H 0.98316 0.0895 0.21395 0.0
H1845 H 0.92002 0.19503 0.12475 0.0
H1846 H 0.98662 0.17153 0.18677 0.0
H1847 H 0.92077 0.14222 0.20888 0.0
C1848 C 0.93278 0.10815 0.22651 0.0
C1849 C 0.95004 0.09244 0.2275 0.0
C1850 C 0.97223 0.17664 0.17242 0.0
C1851 C 0.95383 0.13833 0.19478 0.0
C1852 C 0.97054 0.19963 0.15563 0.0
C1853 C 0.95147 0.20701 0.13892 0.0
C1854 C 0.95459 0.16134 0.17293 0.0
C1855 C 0.93498 0.19026 0.13741 0.0
C1856 C 0.93459 0.13087 0.21032 0.0
C1857 C 0.96949 0.10109 0.21406 0.0
N1858 N 0.93682 0.16855 0.15464 0.0
N1859 N 0.97087 0.12346 0.19785 0.0
H1860 H 0.66907 0.85045 0.87773 0.0
H1861 H 0.735 0.96024 0.96146 0.0
H1862 H 0.73429 0.83836 0.90523 0.0
H1863 H 0.6689 0.94775 0.98019 0.0
H1864 H 0.73793 0.91911 0.93436 0.0
H1865 H 0.67161 0.89074 0.90399 0.0
C1866 C 0.68413 0.85645 0.88865 0.0
C1867 C 0.70146 0.84083 0.88924 0.0
C1868 C 0.72292 0.92538 0.94504 0.0
C1869 C 0.70439 0.88741 0.92057 0.0
C1870 C 0.72128 0.94872 0.96088 0.0
C1871 C 0.70164 0.95757 0.97315 0.0
C1872 C 0.70474 0.91112 0.94101 0.0
C1873 C 0.68434 0.94192 0.97097 0.0
C1874 C 0.68551 0.87948 0.90408 0.0
C1875 C 0.72056 0.84983 0.90386 0.0
N1876 N 0.68626 0.91983 0.95488 0.0
N1877 N 0.72151 0.87252 0.91928 0.0
H1878 H 0.03487 0.83769 0.95564 0.0
H1879 H 0.10325 0.94877 0.89214 0.0
H1880 H 0.09536 0.85574 1.00285 0.0
H1881 H 0.03626 0.96007 0.89943 0.0
H1882 H 0.09896 0.90956 0.92124 0.0
H1883 H 0.03266 0.87866 0.92826 0.0
C1884 C 0.04723 0.85053 0.96163 0.0
C1885 C 0.06526 0.84334 0.98193 0.0
C1886 C 0.08511 0.92045 0.91631 0.0
C1887 C 0.0633 0.88951 0.94925 0.0
C1888 C 0.0875 0.94285 0.89927 0.0
C1889 C 0.07012 0.95799 0.89344 0.0
C1890 C 0.06512 0.9126 0.92768 0.0
C1891 C 0.0501 0.949 0.90319 0.0
C1892 C 0.0461 0.87376 0.94553 0.0
C1893 C 0.08113 0.86049 0.98766 0.0
N1894 N 0.04812 0.92687 0.92008 0.0
N1895 N 0.07994 0.88245 0.97096 0.0
H1896 H 0.35017 0.69521 0.74414 0.0
H1897 H 0.28507 0.58862 0.65014 0.0
H1898 H 0.2871 0.7109 0.70682 0.0
H1899 H 0.35155 0.60074 0.63568 0.0
H1900 H 0.28194 0.62939 0.6785 0.0
H1901 H 0.34714 0.65503 0.71726 0.0
C1902 C 0.33541 0.68995 0.73114 0.0
C1903 C 0.31887 0.70649 0.72787 0.0
C1904 C 0.29708 0.62312 0.66845 0.0
C1905 C 0.31547 0.66031 0.69569 0.0
C1906 C 0.29884 0.60001 0.65188 0.0
C1907 C 0.31864 0.59116 0.64054 0.0
C1908 C 0.3153 0.63707 0.67416 0.0
C1909 C 0.336 0.60659 0.64419 0.0
C1910 C 0.33378 0.66706 0.71531 0.0
C1911 C 0.30014 0.69861 0.71039 0.0
N1912 N 0.33396 0.62844 0.66104 0.0
N1913 N 0.29898 0.67608 0.69453 0.0
H1914 H 0.92047 0.69339 0.62746 0.0
H1915 H 0.98706 0.58517 0.70478 0.0
H1916 H 0.98506 0.71009 0.65383 0.0
H1917 H 0.92529 0.60401 0.74557 0.0
H1918 H 0.99008 0.62579 0.67622 0.0
H1919 H 0.92506 0.6538 0.65557 0.0
C1920 C 0.93585 0.6885 0.63829 0.0
C1921 C 0.95237 0.70522 0.6383 0.0
C1922 C 0.97615 0.62109 0.69231 0.0
C1923 C 0.95763 0.65963 0.67143 0.0
C1924 C 0.97452 0.59807 0.70902 0.0
C1925 C 0.9559 0.59118 0.72776 0.0
C1926 C 0.95887 0.63689 0.69387 0.0
C1927 C 0.93992 0.60845 0.73142 0.0
C1928 C 0.93838 0.66594 0.65473 0.0
C1929 C 0.97195 0.6977 0.6529 0.0
N1930 N 0.94161 0.63016 0.71412 0.0
N1931 N 0.97403 0.67545 0.6693 0.0
H1932 H 0.73641 0.33615 0.40125 0.0
H1933 H 0.67074 0.44393 0.48888 0.0
H1934 H 0.67131 0.35118 0.37663 0.0
H1935 H 0.73518 0.45857 0.45883 0.0
H1936 H 0.67394 0.40409 0.46085 0.0
H1937 H 0.73955 0.37673 0.43021 0.0
C1938 C 0.72301 0.34818 0.4008 0.0
C1939 C 0.70354 0.34021 0.38647 0.0
C1940 C 0.68753 0.41582 0.46073 0.0
C1941 C 0.70681 0.38589 0.42078 0.0
C1942 C 0.6858 0.43852 0.47719 0.0
C1943 C 0.70269 0.45471 0.47624 0.0
C1944 C 0.70633 0.40888 0.44291 0.0
C1945 C 0.72182 0.44658 0.46051 0.0
C1946 C 0.72476 0.37118 0.41772 0.0
C1947 C 0.6866 0.35641 0.38743 0.0
N1948 N 0.72311 0.42423 0.44406 0.0
N1949 N 0.68855 0.37812 0.40474 0.0
H1950 H 0.09626 0.35431 0.49758 0.0
H1951 H 0.0346 0.46308 0.4034 0.0
H1952 H 0.03375 0.33953 0.45648 0.0
H1953 H 0.1004 0.44745 0.38684 0.0
H1954 H 0.03018 0.42256 0.43188 0.0
H1955 H 0.09398 0.3947 0.47131 0.0
C1956 C 0.08174 0.35984 0.48401 0.0
C1957 C 0.06515 0.34346 0.47949 0.0
C1958 C 0.04545 0.42802 0.42136 0.0
C1959 C 0.06264 0.38991 0.44803 0.0
C1960 C 0.04795 0.45101 0.40475 0.0
C1961 C 0.06794 0.45883 0.39269 0.0
C1962 C 0.06314 0.41313 0.42651 0.0
C1963 C 0.08472 0.44248 0.39588 0.0
C1964 C 0.08055 0.38285 0.46853 0.0
C1965 C 0.04679 0.35168 0.46113 0.0
N1966 N 0.082 0.4208 0.41285 0.0
N1967 N 0.04607 0.37432 0.44565 0.0
H1968 H 0.8436 0.10484 0.61842 0.0
H1969 H 0.78111 0.2127 0.70558 0.0
H1970 H 0.78202 0.08563 0.65961 0.0
H1971 H 0.84366 0.19263 0.74053 0.0
H1972 H 0.77667 0.17208 0.67725 0.0
H1973 H 0.83945 0.1447 0.64626 0.0
C1974 C 0.82888 0.10925 0.63234 0.0
C1975 C 0.81315 0.09177 0.6366 0.0
C1976 C 0.7911 0.17653 0.69204 0.0
C1977 C 0.80846 0.13764 0.66934 0.0
C1978 C 0.79357 0.19956 0.70857 0.0
C1979 C 0.81281 0.20611 0.72555 0.0
C1980 C 0.80814 0.16037 0.69201 0.0
C1981 C 0.8286 0.1885 0.72768 0.0
C1982 C 0.82662 0.13197 0.64857 0.0
C1983 C 0.79445 0.09863 0.65526 0.0
N1984 N 0.82607 0.1668 0.71055 0.0
N1985 N 0.79267 0.12103 0.67143 0.0
H1986 H 0.48552 0.21085 0.65264 0.0
H1987 H 0.42168 0.10116 0.73797 0.0
H1988 H 0.42067 0.19455 0.62777 0.0
H1989 H 0.48629 0.08794 0.7073 0.0
H1990 H 0.42424 0.14126 0.71099 0.0
H1991 H 0.48934 0.17021 0.68089 0.0
C1992 C 0.47232 0.19857 0.65204 0.0
C1993 C 0.45271 0.2062 0.63781 0.0
C1994 C 0.43801 0.12979 0.71052 0.0
C1995 C 0.45676 0.16041 0.67128 0.0
C1996 C 0.43664 0.10693 0.72637 0.0
C1997 C 0.45377 0.09106 0.72495 0.0
C1998 C 0.45668 0.13723 0.69283 0.0
C1999 C 0.47275 0.09967 0.70936 0.0
C2000 C 0.47446 0.17552 0.66853 0.0
C2001 C 0.43605 0.18964 0.63853 0.0
N2002 N 0.47368 0.12218 0.69349 0.0
N2003 N 0.43837 0.16789 0.65541 0.0
H2004 H 0.23738 0.84071 0.4034 0.0
H2005 H 0.17253 0.94908 0.49273 0.0
H2006 H 0.1715 0.85457 0.38432 0.0
H2007 H 0.23628 0.96358 0.45818 0.0
H2008 H 0.17546 0.90874 0.46643 0.0
H2009 H 0.24073 0.88149 0.43167 0.0
C2010 C 0.22381 0.85247 0.40413 0.0
C2011 C 0.20409 0.84411 0.39148 0.0
C2012 C 0.18899 0.92054 0.46499 0.0
C2013 C 0.20766 0.89006 0.42499 0.0
C2014 C 0.18741 0.94353 0.48048 0.0
C2015 C 0.20418 0.95981 0.4778 0.0
C2016 C 0.20749 0.91339 0.44632 0.0
C2017 C 0.22305 0.95152 0.46129 0.0
C2018 C 0.22569 0.87559 0.42063 0.0
C2019 C 0.18698 0.86003 0.39385 0.0
N2020 N 0.22417 0.92889 0.44575 0.0
N2021 N 0.1891 0.88187 0.41068 0.0
H2022 H 0.53812 0.83749 0.46443 0.0
H2023 H 0.60456 0.94569 0.37742 0.0
H2024 H 0.60453 0.84903 0.48091 0.0
H2025 H 0.53931 0.95805 0.40434 0.0
H2026 H 0.60201 0.9057 0.40459 0.0
H2027 H 0.53545 0.87831 0.4365 0.0
C2028 C 0.55197 0.84876 0.46321 0.0
C2029 C 0.5716 0.83973 0.47505 0.0
C2030 C 0.58811 0.91696 0.40435 0.0
C2031 C 0.5688 0.8858 0.44194 0.0
C2032 C 0.5895 0.93979 0.38837 0.0
C2033 C 0.57215 0.95538 0.38854 0.0
C2034 C 0.56921 0.90924 0.42099 0.0
C2035 C 0.55304 0.94656 0.40327 0.0
C2036 C 0.55048 0.87192 0.44687 0.0
C2037 C 0.58909 0.85504 0.47204 0.0
N2038 N 0.55209 0.92408 0.41925 0.0
N2039 N 0.58731 0.87696 0.45548 0.0
H2040 H 0.78692 0.59222 0.13988 0.0
H2041 H 0.84435 0.69724 0.25533 0.0
H2042 H 0.85396 0.60025 0.15397 0.0
H2043 H 0.78606 0.71322 0.19821 0.0
H2044 H 0.84303 0.65646 0.23016 0.0
H2045 H 0.78213 0.63275 0.16825 0.0
C2046 C 0.80059 0.60256 0.1482 0.0
C2047 C 0.82088 0.59263 0.14463 0.0
C2048 C 0.83028 0.66866 0.22353 0.0
C2049 C 0.81545 0.63835 0.17814 0.0
C2050 C 0.83087 0.69187 0.23842 0.0
C2051 C 0.81522 0.70861 0.22919 0.0
C2052 C 0.81399 0.66187 0.19872 0.0
C2053 C 0.79827 0.70072 0.20655 0.0
C2054 C 0.79783 0.62556 0.16467 0.0
C2055 C 0.83799 0.60684 0.15635 0.0
N2056 N 0.79819 0.67792 0.19163 0.0
N2057 N 0.83485 0.62862 0.17282 0.0
H2058 H 0.42016 0.60154 0.23711 0.0
H2059 H 0.48721 0.70993 0.15986 0.0
H2060 H 0.48524 0.58607 0.21275 0.0
H2061 H 0.42458 0.69241 0.12195 0.0
H2062 H 0.49 0.66924 0.18826 0.0
H2063 H 0.42439 0.64117 0.2091 0.0
C2064 C 0.43555 0.60669 0.22665 0.0
C2065 C 0.45233 0.59031 0.22721 0.0
C2066 C 0.4759 0.67426 0.17289 0.0
C2067 C 0.45719 0.63596 0.19418 0.0
C2068 C 0.47439 0.69731 0.15629 0.0
C2069 C 0.45562 0.70459 0.13843 0.0
C2070 C 0.45838 0.65882 0.17207 0.0
C2071 C 0.43932 0.68768 0.13549 0.0
C2072 C 0.43788 0.62929 0.21027 0.0
C2073 C 0.47192 0.59819 0.21317 0.0
N2074 N 0.44094 0.66592 0.15263 0.0
N2075 N 0.47381 0.62047 0.19683 0.0
H2076 H 0.23571 0.46097 0.95976 0.0
H2077 H 0.17046 0.35145 0.87687 0.0
H2078 H 0.17117 0.44505 0.98738 0.0
H2079 H 0.23549 0.338 0.90422 0.0
H2080 H 0.17345 0.39138 0.9045 0.0
H2081 H 0.23908 0.42015 0.93165 0.0
C2082 C 0.2225 0.44871 0.96106 0.0
C2083 C 0.2031 0.45649 0.97601 0.0
C2084 C 0.18721 0.37989 0.90417 0.0
C2085 C 0.20661 0.41049 0.94267 0.0
C2086 C 0.18558 0.35711 0.88796 0.0
C2087 C 0.20272 0.34121 0.88822 0.0
C2088 C 0.20615 0.38727 0.92103 0.0
C2089 C 0.22192 0.34973 0.9031 0.0
C2090 C 0.22437 0.42556 0.94463 0.0
C2091 C 0.18639 0.43998 0.9761 0.0
N2092 N 0.22311 0.37219 0.91928 0.0
N2093 N 0.18845 0.41813 0.95926 0.0
H2094 H 0.53292 0.33903 0.96885 0.0
H2095 H 0.59192 0.44391 0.85942 0.0
H2096 H 0.59987 0.35141 0.97066 0.0
H2097 H 0.53403 0.46275 0.91577 0.0
H2098 H 0.58947 0.40354 0.88584 0.0
H2099 H 0.52816 0.37952 0.94038 0.0
C2100 C 0.54652 0.35036 0.96419 0.0
C2101 C 0.56686 0.34162 0.97209 0.0
C2102 C 0.57702 0.41628 0.89189 0.0
C2103 C 0.56156 0.38725 0.93832 0.0
C2104 C 0.57825 0.43927 0.87633 0.0
C2105 C 0.56309 0.45674 0.88505 0.0
C2106 C 0.56051 0.41039 0.91671 0.0
C2107 C 0.54588 0.44971 0.90777 0.0
C2108 C 0.54379 0.37332 0.94762 0.0
C2109 C 0.5839 0.35707 0.96483 0.0
N2110 N 0.54514 0.42709 0.92326 0.0
N2111 N 0.58088 0.37872 0.94798 0.0
H2112 H 0.27879 1.00033 0.98656 0.0
H2113 H 0.1616 0.96177 0.94834 0.0
H2114 H 0.24179 0.95357 0.05745 0.0
H2115 H 0.19137 0.02628 0.90817 0.0
H2116 H 0.19636 0.94526 0.96448 0.0
H2117 H 0.25297 0.99539 0.93522 0.0
C2118 C 0.2657 0.98818 0.99062 0.0
C2119 C 0.26195 0.97782 1.02632 0.0
C2120 C 0.19535 0.96263 0.95071 0.0
C2121 C 0.23246 0.97232 0.96848 0.0
C2122 C 0.17561 0.97193 0.94146 0.0
C2123 C 0.17395 0.99539 0.92756 0.0
C2124 C 0.21329 0.9771 0.94606 0.0
C2125 C 0.19229 1.00817 0.91928 0.0
C2126 C 0.25093 0.98545 0.96149 0.0
C2127 C 0.24482 0.96224 1.03041 0.0
N2128 N 0.21127 0.99904 0.9293 0.0
N2129 N 0.2304 0.96036 1.00209 0.0
H2130 H 0.11031 0.33922 0.95378 0.0
H2131 H 0.99385 0.29634 0.98462 0.0
H2132 H 0.08215 0.27645 0.9037 0.0
H2133 H 0.02895 0.34298 0.05907 0.0
H2134 H 0.01993 0.30327 0.93424 0.0
H2135 H 0.07513 0.35435 0.97003 0.0
C2136 C 0.09656 0.32923 0.9448 0.0
C2137 C 0.09879 0.3066 0.9279 0.0
C2138 C 0.02149 0.31273 0.96111 0.0
C2139 C 0.05894 0.32315 0.94693 0.0
C2140 C 1.00659 0.30887 0.98968 0.0
C2141 C 1.00974 0.3187 1.026 0.0
C2142 C 0.03949 0.32645 0.96933 0.0
C2143 C 0.02639 0.33475 1.03147 0.0
C2144 C 0.07657 0.33772 0.95414 0.0
C2145 C 0.08078 0.29396 0.917 0.0
N2146 N 0.04094 0.33778 1.00367 0.0
N2147 N 0.06153 0.30216 0.92741 0.0
H2148 H 0.24611 0.34692 0.29524 0.0
H2149 H 0.17862 0.30149 0.4658 0.0
H2150 H 0.26734 0.29674 0.37991 0.0
H2151 H 0.15634 0.34016 0.36772 0.0
H2152 H 0.21456 0.31497 0.45169 0.0
H2153 H 0.21849 0.36055 0.33874 0.0
C2154 C 0.24537 0.33954 0.32376 0.0
C2155 C 0.25855 0.32055 0.33415 0.0
C2156 C 0.20171 0.32125 0.43406 0.0
C2157 C 0.2266 0.33488 0.38306 0.0
C2158 C 0.18128 0.31363 0.4422 0.0
C2159 C 0.16487 0.31934 0.41719 0.0
C2160 C 0.20549 0.33455 0.4007 0.0
C2161 C 0.16884 0.33506 0.38702 0.0
C2162 C 0.2296 0.34714 0.3485 0.0
C2163 C 0.2572 0.31134 0.37112 0.0
N2164 N 0.18884 0.34178 0.37916 0.0
N2165 N 0.24099 0.31807 0.394 0.0
H2166 H 0.03604 0.99518 0.24385 0.0
H2167 H 0.11158 0.95886 0.41048 0.0
H2168 H 0.0185 0.96201 0.34981 0.0
H2169 H 0.12504 1.01144 0.32437 0.0
H2170 H 0.08339 0.94258 0.37037 0.0
H2171 H 0.07286 0.98398 0.25575 0.0
C2172 C 0.03991 0.9846 0.26877 0.0
C2173 C 0.02459 0.97984 0.29638 0.0
C2174 C 0.09308 0.95701 0.35943 0.0
C2175 C 0.06619 0.96723 0.31031 0.0
C2176 C 0.10921 0.9661 0.38217 0.0
C2177 C 0.12027 0.98651 0.37052 0.0
C2178 C 0.08782 0.96892 0.32544 0.0
C2179 C 0.11664 0.99568 0.33404 0.0
C2180 C 0.06083 0.9783 0.27564 0.0
C2181 C 0.03013 0.96625 0.32832 0.0
N2182 N 0.10029 0.98722 0.31305 0.0
N2183 N 0.05058 0.96078 0.33482 0.0
H2184 H 0.83722 0.07203 0.2092 0.0
H2185 H 0.78968 0.08523 1.00868 0.0
H2186 H 0.87252 0.07605 0.10488 0.0
H2187 H 0.75444 0.07497 0.112 0.0
H2188 H 0.81895 0.10131 1.04591 0.0
H2189 H 0.80778 0.09237 0.17821 0.0
C2190 C 0.83894 0.07806 0.18002 0.0
C2191 C 0.85687 0.07188 0.159 0.0
C2192 C 0.80459 0.09634 0.0605 0.0
C2193 C 0.82321 0.09416 0.12299 0.0
C2194 C 0.78792 0.08722 1.03924 0.0
C2195 C 0.77008 0.07813 0.05767 0.0
C2196 C 0.80355 0.09558 0.10046 0.0
C2197 C 0.76819 0.08144 0.09702 0.0
C2198 C 0.82217 0.08959 0.16229 0.0
C2199 C 0.8587 0.08024 0.12163 0.0
N2200 N 0.78505 0.0892 0.11737 0.0
N2201 N 0.84175 0.09033 0.10432 0.0
H2202 H 0.98593 0.74208 1.00221 0.0
H2203 H 0.91576 0.70692 0.17612 0.0
H2204 H 1.00663 0.70695 0.10467 0.0
H2205 H 0.89699 0.7546 0.08612 0.0
H2206 H 0.94357 0.6908 0.13516 0.0
H2207 H 0.94951 0.73102 1.01748 0.0
C2208 C 0.98281 0.7311 1.02703 0.0
C2209 C 0.99897 0.72574 1.05276 0.0
C2210 C 0.93295 0.70419 0.12372 0.0
C2211 C 0.95777 0.71342 0.07069 0.0
C2212 C 0.91706 0.7132 0.14702 0.0
C2213 C 0.90446 0.73214 0.13428 0.0
C2214 C 0.93662 0.71492 0.08808 0.0
C2215 C 0.90661 0.74 0.09666 0.0
C2216 C 0.96209 0.72491 1.03588 0.0
C2217 C 0.99437 0.71165 0.08462 0.0
N2218 N 0.92286 0.73182 0.07508 0.0
N2219 N 0.97411 0.70636 0.09313 0.0
H2220 H 0.8387 0.71387 0.66088 0.0
H2221 H 0.79371 0.71789 0.86486 0.0
H2222 H 0.87483 0.72352 0.7634 0.0
H2223 H 0.75733 0.71783 0.76141 0.0
H2224 H 0.8232 0.70002 0.83036 0.0
H2225 H 0.81067 0.69517 0.69806 0.0
C2226 C 0.84097 0.71119 0.69117 0.0
C2227 C 0.8586 0.72086 0.70956 0.0
C2228 C 0.80858 0.70316 0.81534 0.0
C2229 C 0.82654 0.70041 0.75231 0.0
C2230 C 0.79179 0.71337 0.83501 0.0
C2231 C 0.77351 0.72008 0.81541 0.0
C2232 C 0.80716 0.70032 0.77566 0.0
C2233 C 0.77142 0.71334 0.77719 0.0
C2234 C 0.825 0.70058 0.71241 0.0
C2235 C 0.86119 0.71664 0.74852 0.0
N2236 N 0.78834 0.70448 0.75815 0.0
N2237 N 0.84497 0.70739 0.76896 0.0
H2238 H 0.92879 0.0888 0.65162 0.0
H2239 H 0.01582 0.07727 0.75325 0.0
H2240 H 0.89739 0.07049 0.75613 0.0
H2241 H 0.97699 0.0765 0.85361 0.0
H2242 H 0.98687 0.0946 0.71735 0.0
H2243 H 0.958 0.10545 0.68809 0.0
C2244 C 0.92793 0.08891 0.68245 0.0
C2245 C 0.91116 0.07763 0.70112 0.0
C2246 C 0.98464 0.09161 0.74748 0.0
C2247 C 0.94502 0.09493 0.74312 0.0
C2248 C 1.00136 0.08171 0.76796 0.0
C2249 C 0.99839 0.07479 0.80584 0.0
C2250 C 0.96486 0.09433 0.76528 0.0
C2251 C 0.97951 0.08095 0.82394 0.0
C2252 C 0.94476 0.09805 0.70337 0.0
C2253 C 0.91031 0.07868 0.74086 0.0
N2254 N 0.96327 0.08983 0.80329 0.0
N2255 N 0.92736 0.08647 0.76064 0.0
H2256 H 0.2345 0.46195 0.60306 0.0
H2257 H 0.14697 0.4727 0.50687 0.0
H2258 H 0.26505 0.47441 0.49567 0.0
H2259 H 0.18436 0.47261 0.40478 0.0
H2260 H 0.17545 0.45292 0.54068 0.0
H2261 H 0.20464 0.44429 0.56981 0.0
C2262 C 0.23505 0.46021 0.57232 0.0
C2263 C 0.25176 0.47018 0.55176 0.0
C2264 C 0.17748 0.45634 0.51063 0.0
C2265 C 0.2171 0.45192 0.51313 0.0
C2266 C 0.16098 0.46757 0.49132 0.0
C2267 C 0.16382 0.47501 0.45365 0.0
C2268 C 0.19693 0.45296 0.49192 0.0
C2269 C 0.18203 0.46781 0.43437 0.0
C2270 C 0.21783 0.45052 0.55314 0.0
C2271 C 0.25216 0.46722 0.51227 0.0
N2272 N 0.19814 0.45775 0.45395 0.0
N2273 N 0.23474 0.45902 0.49406 0.0
H2274 H 0.09923 0.84145 0.43819 0.0
H2275 H 0.03921 0.80096 0.61874 0.0
H2276 H 0.12595 0.79766 0.52665 0.0
H2277 H 0.01334 0.8432 0.52769 0.0
H2278 H 0.07467 0.81341 0.59965 0.0
H2279 H 0.0729 0.8563 0.48318 0.0
C2280 C 0.09985 0.83563 0.46762 0.0
C2281 C 0.11432 0.81812 0.47891 0.0
C2282 C 0.06124 0.8208 0.58473 0.0
C2283 C 0.08384 0.83389 0.52998 0.0
C2284 C 0.04106 0.81386 0.5959 0.0
C2285 C 0.02365 0.82096 0.57432 0.0
C2286 C 0.06376 0.83452 0.55139 0.0
C2287 C 0.02659 0.83734 0.54468 0.0
C2288 C 0.08484 0.84397 0.4933 0.0
C2289 C 0.11478 0.81105 0.51713 0.0
N2290 N 0.04633 0.84317 0.53347 0.0
N2291 N 0.09929 0.81841 0.54117 0.0
H2292 H 0.25262 0.84885 0.80632 0.0
H2293 H 0.17952 0.80401 0.97044 0.0
H2294 H 0.26922 0.79519 0.88893 0.0
H2295 H 0.16053 0.84259 0.86994 0.0
H2296 H 0.21604 0.81639 0.95903 0.0
H2297 H 0.22437 0.86283 0.84827 0.0
C2298 C 0.25086 0.84085 0.83426 0.0
C2299 C 0.26286 0.8208 0.84435 0.0
C2300 C 0.20377 0.82287 0.94025 0.0
C2301 C 0.23022 0.83562 0.89139 0.0
C2302 C 0.183 0.81587 0.94682 0.0
C2303 C 0.16734 0.82185 0.92041 0.0
C2304 C 0.20866 0.83588 0.9071 0.0
C2305 C 0.17242 0.83721 0.8903 0.0
C2306 C 0.23469 0.84862 0.85805 0.0
C2307 C 0.26006 0.81069 0.88044 0.0
N2308 N 0.19274 0.84336 0.88402 0.0
N2309 N 0.24357 0.81775 0.90235 0.0
H2310 H 0.08455 0.50242 0.97236 0.0
H2311 H 0.02664 0.44776 0.79898 0.0
H2312 H 0.11203 0.45718 0.88633 0.0
H2313 H 0.9988 0.49703 0.87896 0.0
H2314 H 0.05267 0.43641 0.8469 0.0
H2315 H 0.04965 0.48671 0.95575 0.0
C2316 C 0.0832 0.48834 0.95114 0.0
C2317 C 0.10081 0.48121 0.9301 0.0
C2318 C 0.04051 0.44916 0.8546 0.0
C2319 C 0.06138 0.46374 0.9102 0.0
C2320 C 0.02565 0.4555 0.82729 0.0
C2321 C 0.01106 0.47363 0.83512 0.0
C2322 C 0.04123 0.46191 0.88923 0.0
C2323 C 1.01011 0.48314 0.87202 0.0
C2324 C 0.06336 0.47946 0.94147 0.0
C2325 C 0.09858 0.46316 0.9027 0.0
N2326 N 0.0255 0.47776 0.89748 0.0
N2327 N 0.07913 0.45537 0.89293 0.0
H2328 H 0.78687 0.58325 0.50693 0.0
H2329 H 0.87519 0.57252 0.60404 0.0
H2330 H 0.75772 0.57294 0.61619 0.0
H2331 H 0.83955 0.58422 0.70656 0.0
H2332 H 0.84634 0.58903 0.5669 0.0
H2333 H 0.81739 0.60118 0.53821 0.0
C2334 C 0.78676 0.58553 0.53761 0.0
C2335 C 0.77019 0.57619 0.55932 0.0
C2336 C 0.84491 0.5891 0.59758 0.0
C2337 C 0.8055 0.59482 0.59559 0.0
C2338 C 0.86158 0.57968 0.61877 0.0
C2339 C 0.85932 0.57643 0.65803 0.0
C2340 C 0.82588 0.59501 0.61613 0.0
C2341 C 0.84149 0.58592 0.67603 0.0
C2342 C 0.80432 0.59534 0.55559 0.0
C2343 C 0.77041 0.57972 0.59871 0.0
N2344 N 0.82519 0.59417 0.65487 0.0
N2345 N 0.78813 0.58814 0.61577 0.0
H2346 H 1.00708 0.20193 0.59188 0.0
H2347 H 0.89169 0.24354 0.58664 0.0
H2348 H 0.98065 0.24707 0.50492 0.0
H2349 H 0.91959 0.19934 0.67337 0.0
H2350 H 0.91907 0.23059 0.54189 0.0
H2351 H 0.97199 0.18632 0.60598 0.0
C2352 C 0.99382 0.20788 0.57498 0.0
C2353 C 0.99638 0.22592 0.54779 0.0
C2354 C 0.91877 0.22292 0.57024 0.0
C2355 C 0.95626 0.2094 0.56478 0.0
C2356 C 0.90305 0.23018 0.59557 0.0
C2357 C 0.90394 0.22287 0.63366 0.0
C2358 C 0.93545 0.20861 0.58368 0.0
C2359 C 0.91883 0.20565 0.64424 0.0
C2360 C 0.9738 0.1991 0.58297 0.0
C2361 C 0.97899 0.23324 0.52636 0.0
N2362 N 0.93436 0.19952 0.61965 0.0
N2363 N 0.95947 0.22548 0.53607 0.0
H2364 H 0.75099 0.21974 0.24383 0.0
H2365 H 0.8379 0.2167 0.14507 0.0
H2366 H 0.78867 0.212 0.34478 0.0
H2367 H 0.8687 0.22253 0.25375 0.0
H2368 H 0.80853 0.19611 0.17532 0.0
H2369 H 0.77939 0.20276 0.20611 0.0
C2370 C 0.76502 0.21342 0.25814 0.0
C2371 C 0.76798 0.21797 0.29694 0.0
C2372 C 0.82165 0.20157 0.19285 0.0
C2373 C 0.80102 0.19917 0.25432 0.0
C2374 C 0.83857 0.213 0.17535 0.0
C2375 C 0.85519 0.22194 0.19739 0.0
C2376 C 0.8211 0.20018 0.23286 0.0
C2377 C 0.85585 0.21629 0.23611 0.0
C2378 C 0.78149 0.20381 0.23661 0.0
C2379 C 0.78624 0.20938 0.31452 0.0
N2380 N 0.83868 0.20641 0.25291 0.0
N2381 N 0.80233 0.20098 0.29295 0.0
H2382 H 0.91045 0.58886 0.20458 0.0
H2383 H 0.02788 0.55079 0.23646 0.0
H2384 H 0.94029 0.5245 0.16342 0.0
H2385 H 0.9912 0.59602 0.31062 0.0
H2386 H 1.00203 0.55718 0.18561 0.0
H2387 H 0.94529 0.6061 0.21819 0.0
C2388 C 0.92446 0.57884 0.19712 0.0
C2389 C 0.92288 0.55522 0.18379 0.0
C2390 C 1.00012 0.56655 0.21248 0.0
C2391 C 0.96226 0.5744 0.19903 0.0
C2392 C 0.01488 0.56299 0.24134 0.0
C2393 C 0.01111 0.57235 0.27777 0.0
C2394 C 0.98164 0.57944 0.22059 0.0
C2395 C 0.99417 0.58805 0.28296 0.0
C2396 C 0.94423 0.58859 0.20475 0.0
C2397 C 0.94118 0.54267 0.17438 0.0
N2398 N 0.9797 0.59069 0.25491 0.0
N2399 N 0.96021 0.55226 0.18281 0.0
H2400 H 0.73321 0.95413 0.60115 0.0
H2401 H 0.64871 0.9711 0.49609 0.0
H2402 H 0.7676 0.97641 0.50181 0.0
H2403 H 0.69019 0.98158 0.40065 0.0
H2404 H 0.67666 0.95026 0.52964 0.0
H2405 H 0.70479 0.93989 0.56051 0.0
C2406 C 0.73488 0.9554 0.57049 0.0
C2407 C 0.75224 0.96721 0.55463 0.0
C2408 C 0.67978 0.95639 0.50102 0.0
C2409 C 0.7193 0.95268 0.50793 0.0
C2410 C 0.66362 0.96829 0.48183 0.0
C2411 C 0.66757 0.97889 0.44645 0.0
C2412 C 0.70002 0.95541 0.48457 0.0
C2413 C 0.68692 0.97448 0.42873 0.0
C2414 C 0.71851 0.94762 0.54717 0.0
C2415 C 0.75417 0.96786 0.515 0.0
N2416 N 0.70259 0.96358 0.44832 0.0
N2417 N 0.73755 0.96143 0.49296 0.0
H2418 H 0.52528 0.34732 0.56353 0.0
H2419 H 0.58722 0.29352 0.39241 0.0
H2420 H 0.49999 0.29638 0.48345 0.0
H2421 H 0.61278 0.3368 0.48287 0.0
H2422 H 0.55189 0.3085 0.40802 0.0
H2423 H 0.55223 0.35845 0.51716 0.0
C2424 C 0.52503 0.33919 0.53545 0.0
C2425 C 0.51087 0.3207 0.52719 0.0
C2426 C 0.5653 0.31545 0.42355 0.0
C2427 C 0.54208 0.33218 0.47497 0.0
C2428 C 0.58538 0.307 0.41449 0.0
C2429 C 0.60255 0.31375 0.43699 0.0
C2430 C 0.56265 0.33052 0.45545 0.0
C2431 C 0.59967 0.33105 0.46541 0.0
C2432 C 0.54042 0.34538 0.50905 0.0
C2433 C 0.51092 0.3106 0.49066 0.0
N2434 N 0.58001 0.33853 0.47436 0.0
N2435 N 0.52679 0.31591 0.46615 0.0
H2436 H 0.74642 0.35122 0.80375 0.0
H2437 H 0.68357 0.29132 0.96869 0.0
H2438 H 0.77097 0.29652 0.87782 0.0
H2439 H 0.65845 0.33728 0.88148 0.0
H2440 H 0.71903 0.30649 0.95457 0.0
H2441 H 0.7194 0.36059 0.85104 0.0
C2442 C 0.74654 0.3419 0.83083 0.0
C2443 C 0.76048 0.32286 0.83695 0.0
C2444 C 0.70569 0.31395 0.93948 0.0
C2445 C 0.72917 0.33236 0.89005 0.0
C2446 C 0.68555 0.30536 0.94766 0.0
C2447 C 0.66845 0.31293 0.92565 0.0
C2448 C 0.70848 0.32999 0.90895 0.0
C2449 C 0.67149 0.33094 0.89855 0.0
C2450 C 0.73109 0.34707 0.85771 0.0
C2451 C 0.76024 0.3112 0.87224 0.0
N2452 N 0.69121 0.33859 0.89045 0.0
N2453 N 0.74431 0.31558 0.89712 0.0
H2454 H 0.50175 0.97276 0.86616 0.0
H2455 H 0.58767 0.9763 0.96863 0.0
H2456 H 0.54157 0.96414 0.76804 0.0
H2457 H 0.62069 0.97465 0.86173 0.0
H2458 H 0.55828 0.95528 0.93942 0.0
H2459 H 0.52966 0.95712 0.90634 0.0
C2460 C 0.51621 0.96665 0.85303 0.0
C2461 C 0.51985 0.97058 0.81426 0.0
C2462 C 0.57186 0.95916 0.92203 0.0
C2463 C 0.55238 0.95352 0.85979 0.0
C2464 C 0.58877 0.97095 0.93899 0.0
C2465 C 0.60608 0.9779 0.91698 0.0
C2466 C 0.57206 0.95531 0.88238 0.0
C2467 C 0.60729 0.97002 0.87925 0.0
C2468 C 0.53241 0.95788 0.87601 0.0
C2469 C 0.53861 0.96212 0.79825 0.0
N2470 N 0.59017 0.95976 0.86275 0.0
N2471 N 0.55441 0.95459 0.82121 0.0
H2472 H 0.26452 0.0971 0.5987 0.0
H2473 H 0.37847 0.05084 0.58313 0.0
H2474 H 0.28913 0.05795 0.50284 0.0
H2475 H 0.35124 0.08666 0.67995 0.0
H2476 H 0.35146 0.06886 0.5421 0.0
H2477 H 0.30012 0.10988 0.61527 0.0
C2478 C 0.2775 0.09201 0.58039 0.0
C2479 C 0.27425 0.07621 0.54997 0.0
C2480 C 0.35183 0.07356 0.57206 0.0
C2481 C 0.31492 0.08934 0.56968 0.0
C2482 C 0.36727 0.06337 0.59529 0.0
C2483 C 0.36652 0.06701 0.63471 0.0
C2484 C 0.33556 0.08709 0.58886 0.0
C2485 C 0.35189 0.08323 0.64958 0.0
C2486 C 0.29781 0.09914 0.58983 0.0
C2487 C 0.2913 0.06999 0.52679 0.0
N2488 N 0.33666 0.09231 0.62677 0.0
N2489 N 0.3111 0.07593 0.53784 0.0
H2490 H 0.41476 0.70445 0.66916 0.0
H2491 H 0.48504 0.74012 0.49651 0.0
H2492 H 0.3969 0.75276 0.57941 0.0
H2493 H 0.50547 0.70953 0.60273 0.0
H2494 H 0.44901 0.7267 0.51015 0.0
H2495 H 0.44222 0.68767 0.62803 0.0
C2496 C 0.41608 0.71065 0.64001 0.0
C2497 C 0.40403 0.7301 0.62747 0.0
C2498 C 0.46153 0.72205 0.52974 0.0
C2499 C 0.43573 0.71211 0.58121 0.0
C2500 C 0.482 0.72964 0.5219 0.0
C2501 C 0.49782 0.72628 0.5491 0.0
C2502 C 0.45714 0.71118 0.56501 0.0
C2503 C 0.49339 0.71274 0.5816 0.0
C2504 C 0.43177 0.70126 0.61663 0.0
C2505 C 0.40618 0.73784 0.58981 0.0
N2506 N 0.47334 0.70603 0.58905 0.0
N2507 N 0.42225 0.72929 0.56819 0.0
H2508 H 0.34007 0.71213 0.15066 0.0
H2509 H 0.25403 0.72349 0.25481 0.0
H2510 H 0.37222 0.72674 0.25603 0.0
H2511 H 0.29309 0.7184 0.35459 0.0
H2512 H 0.28232 0.70657 0.21673 0.0
H2513 H 0.31074 0.69504 0.18625 0.0
C2514 C 0.34104 0.71115 0.18145 0.0
C2515 C 0.35809 0.7215 0.20074 0.0
C2516 C 0.2847 0.70813 0.24711 0.0
C2517 C 0.32415 0.70367 0.24182 0.0
C2518 C 0.26835 0.71781 0.26885 0.0
C2519 C 0.27164 0.72303 0.30739 0.0
C2520 C 0.30443 0.70391 0.26431 0.0
C2521 C 0.29034 0.7153 0.32453 0.0
C2522 C 0.32417 0.70174 0.20187 0.0
C2523 C 0.35908 0.71931 0.24034 0.0
N2524 N 0.30626 0.7067 0.30272 0.0
N2525 N 0.342 0.71127 0.25973 0.0
H2526 H 0.47929 0.0762 0.36198 0.0
H2527 H 0.43431 0.08605 0.15753 0.0
H2528 H 0.51588 0.07791 0.25886 0.0
H2529 H 0.39794 0.07389 0.25905 0.0
H2530 H 0.46271 0.10263 0.19639 0.0
H2531 H 0.44984 0.09456 0.32809 0.0
C2532 C 0.48125 0.08117 0.33236 0.0
C2533 C 0.49962 0.07487 0.31264 0.0
C2534 C 0.44827 0.09713 0.21021 0.0
C2535 C 0.46602 0.09523 0.27355 0.0
C2536 C 0.43207 0.08776 0.18803 0.0
C2537 C 0.41421 0.07795 0.20548 0.0
C2538 C 0.44669 0.09606 0.25007 0.0
C2539 C 0.41171 0.08091 0.24479 0.0
C2540 C 0.46449 0.09165 0.31304 0.0
C2541 C 0.50175 0.08213 0.27471 0.0
N2542 N 0.42812 0.08902 0.26603 0.0
N2543 N 0.48486 0.0913 0.25597 0.0
H2544 H 0.63697 0.49668 1.02808 0.0
H2545 H 0.7541 0.45553 1.04713 0.0
H2546 H 0.67103 0.45316 0.9476 0.0
H2547 H 0.72531 0.51611 0.10268 0.0
H2548 H 0.71898 0.43923 1.03321 0.0
H2549 H 0.66333 0.48718 0.0768 0.0
C2550 C 0.64947 0.48415 1.02133 0.0
C2551 C 0.65238 0.47618 0.98385 0.0
C2552 C 0.72034 0.45561 1.04975 0.0
C2553 C 0.68256 0.46571 1.03849 0.0
C2554 C 0.74029 0.46482 0.05761 0.0
C2555 C 0.74221 0.48726 0.07523 0.0
C2556 C 0.70246 0.46921 0.05941 0.0
C2557 C 0.72415 0.49889 0.08843 0.0
C2558 C 0.66456 0.47885 1.04895 0.0
C2559 C 0.66871 0.46002 0.97619 0.0
N2560 N 0.70492 0.48996 0.07962 0.0
N2561 N 0.68357 0.45576 1.00304 0.0
H2562 H 0.58626 0.82097 0.89457 0.0
H2563 H 0.50161 0.8211 1.00403 0.0
H2564 H 0.62044 0.81922 1.00032 0.0
H2565 H 0.54248 0.83418 0.0996 0.0
H2566 H 0.5291 0.83457 0.96124 0.0
H2567 H 0.55702 0.84073 0.92673 0.0
C2568 C 0.58761 0.8252 0.92462 0.0
C2569 C 0.60528 0.81778 0.94534 0.0
C2570 C 0.53212 0.83542 0.9915 0.0
C2571 C 0.57151 0.83886 0.98305 0.0
C2572 C 0.51619 0.82776 1.01599 0.0
C2573 C 0.52019 0.82571 1.05504 0.0
C2574 C 0.55218 0.84077 1.00649 0.0
C2575 C 0.53918 0.83474 0.06934 0.0
C2576 C 0.57082 0.83622 0.9432 0.0
C2577 C 0.6068 0.82426 0.98371 0.0
N2578 N 0.5547 0.84127 1.04501 0.0
N2579 N 0.58982 0.83383 1.00166 0.0
H2580 H 0.64727 0.8333 0.37053 0.0
H2581 H 0.73222 0.84149 0.26716 0.0
H2582 H 0.68926 0.80653 0.45672 0.0
H2583 H 0.76811 0.82611 0.36801 0.0
H2584 H 0.70337 0.85558 0.30631 0.0
H2585 H 0.67609 0.85694 0.34377 0.0
C2586 C 0.66253 0.83289 0.38421 0.0
C2587 C 0.66635 0.8172 0.41453 0.0
C2588 C 0.71763 0.85001 0.32047 0.0
C2589 C 0.69963 0.84299 0.3834 0.0
C2590 C 0.73421 0.84205 0.29781 0.0
C2591 C 0.75206 0.83184 0.31464 0.0
C2592 C 0.71883 0.84698 0.36022 0.0
C2593 C 0.75429 0.83337 0.35417 0.0
C2594 C 0.67915 0.84612 0.36871 0.0
C2595 C 0.68608 0.81769 0.43214 0.0
N2596 N 0.73753 0.83999 0.37578 0.0
N2597 N 0.70212 0.82988 0.4158 0.0
H2598 H 0.52498 0.44945 0.30166 0.0
H2599 H 0.58664 0.50153 0.47326 0.0
H2600 H 0.49982 0.49964 0.38305 0.0
H2601 H 0.61202 0.4584 0.38245 0.0
H2602 H 0.55135 0.48626 0.45831 0.0
H2603 H 0.55147 0.43714 0.34818 0.0
C2604 C 0.52466 0.45716 0.33003 0.0
C2605 C 0.51071 0.4758 0.33866 0.0
C2606 C 0.56471 0.47938 0.44258 0.0
C2607 C 0.54142 0.46303 0.39107 0.0
C2608 C 0.58478 0.48801 0.45126 0.0
C2609 C 0.60185 0.48142 0.4284 0.0
C2610 C 0.56199 0.46437 0.41063 0.0
C2611 C 0.59896 0.46404 0.40013 0.0
C2612 C 0.53977 0.45029 0.35653 0.0
C2613 C 0.51062 0.48535 0.37556 0.0
N2614 N 0.5793 0.45643 0.39149 0.0
N2615 N 0.52627 0.47942 0.40018 0.0
H2616 H 0.33614 0.57188 0.21634 0.0
H2617 H 0.28756 0.58593 1.01527 0.0
H2618 H 0.37096 0.57487 0.11137 0.0
H2619 H 0.2528 0.57339 0.11845 0.0
H2620 H 0.31704 0.60112 1.05293 0.0
H2621 H 0.30637 0.59138 0.18504 0.0
C2622 C 0.33768 0.57748 0.18692 0.0
C2623 C 0.35562 0.57126 0.1659 0.0
C2624 C 0.30273 0.59588 0.06743 0.0
C2625 C 0.32159 0.59275 0.12963 0.0
C2626 C 0.28591 0.58734 1.04592 0.0
C2627 C 0.26812 0.57789 0.06408 0.0
C2628 C 0.30185 0.5943 0.10732 0.0
C2629 C 0.26645 0.58026 0.10363 0.0
C2630 C 0.32072 0.58854 0.16903 0.0
C2631 C 0.35718 0.57911 0.1282 0.0
N2632 N 0.28343 0.58755 0.12415 0.0
N2633 N 0.34008 0.58884 0.11082 0.0
H2634 H 0.43347 0.22232 0.21346 0.0
H2635 H 0.48165 0.21439 1.01252 0.0
H2636 H 0.39863 0.22168 0.10839 0.0
H2637 H 0.51648 0.22264 0.11678 0.0
H2638 H 0.45235 0.19725 1.04835 0.0
H2639 H 0.46297 0.20282 0.18125 0.0
C2640 C 0.43186 0.21724 0.18379 0.0
C2641 C 0.41405 0.22418 0.16303 0.0
C2642 C 0.46664 0.20197 0.06341 0.0
C2643 C 0.44778 0.20277 0.12574 0.0
C2644 C 0.48335 0.21165 1.04292 0.0
C2645 C 0.50107 0.22046 0.06212 0.0
C2646 C 0.46753 0.2019 0.10339 0.0
C2647 C 0.50284 0.21634 0.10126 0.0
C2648 C 0.44866 0.20616 0.16537 0.0
C2649 C 0.41235 0.21692 0.125 0.0
N2650 N 0.48594 0.20803 0.12092 0.0
N2651 N 0.42934 0.20726 0.10714 0.0
H2652 H 0.33684 0.21934 0.64944 0.0
H2653 H 0.29064 0.21574 0.85176 0.0
H2654 H 0.37262 0.22141 0.75343 0.0
H2655 H 0.25482 0.22067 0.74808 0.0
H2656 H 0.31977 0.19792 0.81618 0.0
H2657 H 0.30794 0.19997 0.68337 0.0
C2658 C 0.3388 0.21488 0.67927 0.0
C2659 C 0.35666 0.2226 0.6992 0.0
C2660 C 0.30532 0.2021 0.80125 0.0
C2661 C 0.32361 0.20136 0.7384 0.0
C2662 C 0.28873 0.21221 0.82158 0.0
C2663 C 0.27077 0.2203 0.80236 0.0
C2664 C 0.30407 0.20086 0.76134 0.0
C2665 C 0.26867 0.21502 0.76359 0.0
C2666 C 0.32234 0.20387 0.69866 0.0
C2667 C 0.35883 0.21608 0.73744 0.0
N2668 N 0.28546 0.20631 0.74398 0.0
N2669 N 0.34215 0.2065 0.75623 0.0
H2670 H 0.4971 0.60223 0.80838 0.0
H2671 H 0.43348 0.54287 0.64362 0.0
H2672 H 0.52116 0.54788 0.73282 0.0
H2673 H 0.40878 0.58582 0.73529 0.0
H2674 H 0.46875 0.55909 0.65655 0.0
H2675 H 0.46984 0.6119 0.76174 0.0
C2676 C 0.4971 0.5931 0.78108 0.0
C2677 C 0.51091 0.574 0.7744 0.0
C2678 C 0.45549 0.56567 0.67291 0.0
C2679 C 0.47933 0.58382 0.7221 0.0
C2680 C 0.43547 0.55647 0.66546 0.0
C2681 C 0.41862 0.56282 0.68906 0.0
C2682 C 0.45841 0.58116 0.70421 0.0
C2683 C 0.42166 0.58035 0.71706 0.0
C2684 C 0.48151 0.59844 0.75458 0.0
C2685 C 0.51051 0.56259 0.73884 0.0
N2686 N 0.44128 0.58864 0.72434 0.0
N2687 N 0.49443 0.5671 0.71436 0.0
loop_
_geom_bond_atom_site_label_1
_geom_bond_atom_site_label_2
_geom_bond_distance
_geom_bond_site_symmetry_2
_ccdc_geom_bond_type
Co0 N5 2.056 1_545 S
Co0 O17 2.021 . S
Co0 O20 2.062 . S
Co0 O24 2.117 1_545 S
Co0 O25 2.020 . S
C1 O21 1.259 . S
C1 O24 1.258 . S
Co2 N11 2.057 1_565 S
Co2 O18 2.117 1_565 S
Co2 O19 2.020 . S
Co2 O21 2.021 . S
Co2 O26 2.062 1_565 S
C3 N5 1.313 1_545 S
C3 N6 1.347 . S
C3 H8 0.931 . S
C4 N5 1.380 . S
C4 C7 1.350 . S
C4 H9 0.930 . S
N5 Co0 2.056 1_565 S
N5 C3 1.313 1_565 S
N5 C4 1.380 . S
N6 C3 1.347 . S
N6 C7 1.373 1_545 S
C7 C4 1.350 . S
C7 N6 1.373 1_565 S
C7 H28 0.931 . S
H8 C3 0.931 . S
H9 C4 0.930 . S
C10 O17 1.259 . S
C10 O18 1.258 . S
N11 Co2 2.057 1_545 S
N11 C12 1.316 1_545 S
N11 C13 1.375 . S
C12 N11 1.316 1_565 S
C12 N14 1.340 1_564 S
C12 H23 0.931 . S
C13 N11 1.375 . S
C13 C15 1.350 . S
C13 H22 0.930 . S
N14 C12 1.340 1_546 S
N14 C15 1.387 1_556 S
C15 C13 1.350 . S
C15 N14 1.387 1_554 S
C15 H29 0.931 . S
C16 O19 1.262 . S
C16 O20 1.247 1_565 S
O17 Co0 2.021 . S
O17 C10 1.259 . S
O18 Co2 2.117 1_545 S
O18 C10 1.258 . S
O19 Co2 2.020 . S
O19 C16 1.262 . S
O20 Co0 2.062 . S
O20 C16 1.247 1_545 S
O21 C1 1.259 . S
O21 Co2 2.021 . S
H22 C13 0.930 . S
H23 C12 0.931 . S
O24 Co0 2.117 1_565 S
O24 C1 1.258 . S
O25 Co0 2.020 . S
O25 C27 1.256 . S
O26 Co2 2.062 1_545 S
O26 C27 1.255 . S
C27 O25 1.256 . S
C27 O26 1.255 . S
H28 C7 0.931 . S
H29 C15 0.931 . S
Co30 N35 2.057 . S
Co30 O47 2.021 . S
Co30 O50 2.062 . S
Co30 O54 2.117 . S
Co30 O55 2.020 . S
C31 O51 1.259 . S
C31 O54 1.258 . S
Co32 N41 2.057 . S
Co32 O48 2.117 . S
Co32 O49 2.020 . S
Co32 O51 2.021 . S
Co32 O56 2.062 . S
C33 N35 1.316 . S
C33 N36 1.347 . S
C33 H38 0.931 . S
C34 N35 1.375 . S
C34 C37 1.350 . S
C34 H39 0.930 . S
N35 Co30 2.057 . S
N35 C33 1.316 . S
N35 C34 1.375 . S
N36 C33 1.347 . S
N36 C37 1.373 . S
C37 C34 1.350 . S
C37 N36 1.373 . S
C37 H58 0.931 . S
H38 C33 0.931 . S
H39 C34 0.930 . S
C40 O47 1.259 . S
C40 O48 1.258 . S
N41 Co32 2.057 . S
N41 C42 1.316 . S
N41 C43 1.375 . S
C42 N41 1.316 . S
C42 N44 1.347 1_554 S
C42 H53 0.931 . S
C43 N41 1.375 . S
C43 C45 1.350 . S
C43 H52 0.930 . S
N44 C42 1.347 1_556 S
N44 C45 1.373 1_556 S
C45 C43 1.350 . S
C45 N44 1.373 1_554 S
C45 H59 0.938 . S
C46 O49 1.256 . S
C46 O50 1.255 . S
O47 Co30 2.021 . S
O47 C40 1.259 . S
O48 Co32 2.117 . S
O48 C40 1.258 . S
O49 Co32 2.020 . S
O49 C46 1.256 . S
O50 Co30 2.062 . S
O50 C46 1.255 . S
O51 C31 1.259 . S
O51 Co32 2.021 . S
H52 C43 0.930 . S
H53 C42 0.931 . S
O54 Co30 2.117 . S
O54 C31 1.258 . S
O55 Co30 2.020 . S
O55 C57 1.256 . S
O56 Co32 2.062 . S
O56 C57 1.255 . S
C57 O55 1.256 . S
C57 O56 1.255 . S
H58 C37 0.931 . S
H59 C45 0.938 . S
Co60 N65 2.057 . S
Co60 O77 2.021 . S
Co60 O80 2.062 . S
Co60 O84 2.117 . S
Co60 O85 2.020 . S
C61 O81 1.259 . S
C61 O84 1.258 . S
Co62 N71 2.057 . S
Co62 O78 2.117 . S
Co62 O79 2.020 . S
Co62 O81 2.021 . S
Co62 O86 2.062 . S
C63 N65 1.316 . S
C63 N66 1.347 . S
C63 H68 0.931 . S
C64 N65 1.375 . S
C64 C67 1.350 . S
C64 H69 0.930 . S
N65 Co60 2.057 . S
N65 C63 1.316 . S
N65 C64 1.375 . S
N66 C63 1.347 . S
N66 C67 1.373 . S
C67 C64 1.350 . S
C67 N66 1.373 . S
C67 H88 0.931 . S
H68 C63 0.931 . S
H69 C64 0.930 . S
C70 O77 1.259 . S
C70 O78 1.258 . S
N71 Co62 2.057 . S
N71 C72 1.316 . S
N71 C73 1.375 . S
C72 N71 1.316 . S
C72 N74 1.347 . S
C72 H83 0.931 . S
C73 N71 1.375 . S
C73 C75 1.350 . S
C73 H82 0.930 . S
N74 C72 1.347 . S
N74 C75 1.373 . S
C75 C73 1.350 . S
C75 N74 1.373 . S
C75 H89 0.931 . S
C76 O79 1.256 . S
C76 O80 1.255 . S
O77 Co60 2.021 . S
O77 C70 1.259 . S
O78 Co62 2.117 . S
O78 C70 1.258 . S
O79 Co62 2.020 . S
O79 C76 1.256 . S
O80 Co60 2.062 . S
O80 C76 1.255 . S
O81 C61 1.259 . S
O81 Co62 2.021 . S
H82 C73 0.930 . S
H83 C72 0.931 . S
O84 Co60 2.117 . S
O84 C61 1.258 . S
O85 Co60 2.020 . S
O85 C87 1.256 . S
O86 Co62 2.062 . S
O86 C87 1.255 . S
C87 O85 1.256 . S
C87 O86 1.255 . S
H88 C67 0.931 . S
H89 C75 0.931 . S
Co90 N95 2.056 1_545 S
Co90 O107 2.021 . S
Co90 O110 2.062 . S
Co90 O114 2.117 1_545 S
Co90 O115 2.020 . S
C91 O111 1.259 . S
C91 O114 1.258 . S
Co92 N101 2.057 1_565 S
Co92 O108 2.117 1_565 S
Co92 O109 2.020 . S
Co92 O111 2.021 . S
Co92 O116 2.062 1_565 S
C93 N95 1.313 1_545 S
C93 N96 1.347 . S
C93 H98 0.931 . S
C94 N95 1.379 . S
C94 C97 1.350 . S
C94 H99 0.930 . S
N95 Co90 2.056 1_565 S
N95 C93 1.313 1_565 S
N95 C94 1.379 . S
N96 C93 1.347 . S
N96 C97 1.373 1_545 S
C97 C94 1.350 . S
C97 N96 1.373 1_565 S
C97 H118 0.931 . S
H98 C93 0.931 . S
H99 C94 0.930 . S
C100 O107 1.259 . S
C100 O108 1.258 . S
N101 Co92 2.057 1_545 S
N101 C102 1.316 1_545 S
N101 C103 1.375 . S
C102 N101 1.316 1_565 S
C102 N104 1.340 1_565 S
C102 H113 0.931 . S
C103 N101 1.375 . S
C103 C105 1.350 . S
C103 H112 0.930 . S
N104 C102 1.340 1_545 S
N104 C105 1.387 . S
C105 C103 1.350 . S
C105 N104 1.387 . S
C105 H119 0.938 . S
C106 O109 1.262 . S
C106 O110 1.247 1_565 S
O107 Co90 2.021 . S
O107 C100 1.259 . S
O108 Co92 2.117 1_545 S
O108 C100 1.258 . S
O109 Co92 2.020 . S
O109 C106 1.262 . S
O110 Co90 2.062 . S
O110 C106 1.247 1_545 S
O111 C91 1.259 . S
O111 Co92 2.021 . S
H112 C103 0.930 . S
H113 C102 0.931 . S
O114 Co90 2.117 1_565 S
O114 C91 1.258 . S
O115 Co90 2.020 . S
O115 C117 1.256 . S
O116 Co92 2.062 1_545 S
O116 C117 1.255 . S
C117 O115 1.256 . S
C117 O116 1.255 . S
H118 C97 0.931 . S
H119 C105 0.938 . S
Co120 N125 2.057 1_545 S
Co120 O137 2.021 . S
Co120 O140 2.062 1_545 S
Co120 O144 2.117 1_545 S
Co120 O145 2.020 . S
C121 O141 1.259 . S
C121 O144 1.258 . S
Co122 N131 2.056 1_565 S
Co122 O138 2.117 1_565 S
Co122 O139 2.020 . S
Co122 O141 2.021 . S
Co122 O146 2.062 . S
C123 N125 1.316 1_545 S
C123 N126 1.340 1_546 S
C123 H128 0.931 . S
C124 N125 1.375 . S
C124 C127 1.350 . S
C124 H129 0.930 . S
N125 Co120 2.057 1_565 S
N125 C123 1.316 1_565 S
N125 C124 1.375 . S
N126 C123 1.340 1_564 S
N126 C127 1.387 1_554 S
C127 C124 1.350 . S
C127 N126 1.387 1_556 S
C127 H148 0.931 . S
H128 C123 0.931 . S
H129 C124 0.930 . S
C130 O137 1.259 . S
C130 O138 1.258 . S
N131 Co122 2.056 1_545 S
N131 C132 1.313 1_545 S
N131 C133 1.380 . S
C132 N131 1.313 1_565 S
C132 N134 1.347 . S
C132 H143 0.931 . S
C133 N131 1.380 . S
C133 C135 1.350 . S
C133 H142 0.930 . S
N134 C132 1.347 . S
N134 C135 1.373 1_565 S
C135 C133 1.350 . S
C135 N134 1.373 1_545 S
C135 H149 0.931 . S
C136 O139 1.256 . S
C136 O140 1.255 . S
O137 Co120 2.021 . S
O137 C130 1.259 . S
O138 Co122 2.117 1_545 S
O138 C130 1.258 . S
O139 Co122 2.020 . S
O139 C136 1.256 . S
O140 Co120 2.062 1_565 S
O140 C136 1.255 . S
O141 C121 1.259 . S
O141 Co122 2.021 . S
H142 C133 0.930 . S
H143 C132 0.931 . S
O144 Co120 2.117 1_565 S
O144 C121 1.258 . S
O145 Co120 2.020 . S
O145 C147 1.262 . S
O146 Co122 2.062 . S
O146 C147 1.247 1_565 S
C147 O145 1.262 . S
C147 O146 1.247 1_545 S
H148 C127 0.931 . S
H149 C135 0.931 . S
Co150 N155 2.057 . S
Co150 O167 2.021 . S
Co150 O170 2.062 . S
Co150 O174 2.117 . S
Co150 O175 2.020 . S
C151 O171 1.259 . S
C151 O174 1.258 . S
Co152 N161 2.057 . S
Co152 O168 2.117 . S
Co152 O169 2.020 . S
Co152 O171 2.021 . S
Co152 O176 2.062 . S
C153 N155 1.316 . S
C153 N156 1.347 1_556 S
C153 H158 0.931 . S
C154 N155 1.375 . S
C154 C157 1.350 . S
C154 H159 0.930 . S
N155 Co150 2.057 . S
N155 C153 1.316 . S
N155 C154 1.375 . S
N156 C153 1.347 1_554 S
N156 C157 1.373 1_554 S
C157 C154 1.350 . S
C157 N156 1.373 1_556 S
C157 H178 0.938 . S
H158 C153 0.931 . S
H159 C154 0.930 . S
C160 O167 1.259 . S
C160 O168 1.258 . S
N161 Co152 2.057 . S
N161 C162 1.316 . S
N161 C163 1.375 . S
C162 N161 1.316 . S
C162 N164 1.347 . S
C162 H173 0.931 . S
C163 N161 1.375 . S
C163 C165 1.350 . S
C163 H172 0.930 . S
N164 C162 1.347 . S
N164 C165 1.373 . S
C165 C163 1.350 . S
C165 N164 1.373 . S
C165 H179 0.931 . S
C166 O169 1.256 . S
C166 O170 1.255 . S
O167 Co150 2.021 . S
O167 C160 1.259 . S
O168 Co152 2.117 . S
O168 C160 1.258 . S
O169 Co152 2.020 . S
O169 C166 1.256 . S
O170 Co150 2.062 . S
O170 C166 1.255 . S
O171 C151 1.259 . S
O171 Co152 2.021 . S
H172 C163 0.930 . S
H173 C162 0.931 . S
O174 Co150 2.117 . S
O174 C151 1.258 . S
O175 Co150 2.020 . S
O175 C177 1.256 . S
O176 Co152 2.062 . S
O176 C177 1.255 . S
C177 O175 1.256 . S
C177 O176 1.255 . S
H178 C157 0.938 . S
H179 C165 0.931 . S
Co180 N185 2.057 . S
Co180 O197 2.021 . S
Co180 O200 2.062 . S
Co180 O204 2.117 . S
Co180 O205 2.020 . S
C181 O201 1.259 . S
C181 O204 1.258 . S
Co182 N191 2.057 . S
Co182 O198 2.117 . S
Co182 O199 2.020 . S
Co182 O201 2.021 . S
Co182 O206 2.062 . S
C183 N185 1.316 . S
C183 N186 1.347 . S
C183 H188 0.931 . S
C184 N185 1.375 . S
C184 C187 1.350 . S
C184 H189 0.930 . S
N185 Co180 2.057 . S
N185 C183 1.316 . S
N185 C184 1.375 . S
N186 C183 1.347 . S
N186 C187 1.373 . S
C187 C184 1.350 . S
C187 N186 1.373 . S
C187 H208 0.931 . S
H188 C183 0.931 . S
H189 C184 0.930 . S
C190 O197 1.259 . S
C190 O198 1.258 . S
N191 Co182 2.057 . S
N191 C192 1.316 . S
N191 C193 1.375 . S
C192 N191 1.316 . S
C192 N194 1.347 . S
C192 H203 0.931 . S
C193 N191 1.375 . S
C193 C195 1.350 . S
C193 H202 0.930 . S
N194 C192 1.347 . S
N194 C195 1.373 . S
C195 C193 1.350 . S
C195 N194 1.373 . S
C195 H209 0.931 . S
C196 O199 1.256 . S
C196 O200 1.255 . S
O197 Co180 2.021 . S
O197 C190 1.259 . S
O198 Co182 2.117 . S
O198 C190 1.258 . S
O199 Co182 2.020 . S
O199 C196 1.256 . S
O200 Co180 2.062 . S
O200 C196 1.255 . S
O201 C181 1.259 . S
O201 Co182 2.021 . S
H202 C193 0.930 . S
H203 C192 0.931 . S
O204 Co180 2.117 . S
O204 C181 1.258 . S
O205 Co180 2.020 . S
O205 C207 1.256 . S
O206 Co182 2.062 . S
O206 C207 1.255 . S
C207 O205 1.256 . S
C207 O206 1.255 . S
H208 C187 0.931 . S
H209 C195 0.931 . S
Co210 N215 2.057 1_545 S
Co210 O227 2.021 . S
Co210 O230 2.062 1_545 S
Co210 O234 2.117 1_545 S
Co210 O235 2.020 . S
C211 O231 1.259 . S
C211 O234 1.258 . S
Co212 N221 2.056 1_565 S
Co212 O228 2.117 1_565 S
Co212 O229 2.020 . S
Co212 O231 2.021 . S
Co212 O236 2.062 . S
C213 N215 1.316 1_545 S
C213 N216 1.340 1_545 S
C213 H218 0.931 . S
C214 N215 1.375 . S
C214 C217 1.350 . S
C214 H219 0.930 . S
N215 Co210 2.057 1_565 S
N215 C213 1.316 1_565 S
N215 C214 1.375 . S
N216 C213 1.340 1_565 S
N216 C217 1.387 . S
C217 C214 1.350 . S
C217 N216 1.387 . S
C217 H238 0.938 . S
H218 C213 0.931 . S
H219 C214 0.930 . S
C220 O227 1.259 . S
C220 O228 1.258 . S
N221 Co212 2.056 1_545 S
N221 C222 1.313 1_545 S
N221 C223 1.379 . S
C222 N221 1.313 1_565 S
C222 N224 1.347 . S
C222 H233 0.931 . S
C223 N221 1.379 . S
C223 C225 1.350 . S
C223 H232 0.930 . S
N224 C222 1.347 . S
N224 C225 1.373 1_565 S
C225 C223 1.350 . S
C225 N224 1.373 1_545 S
C225 H239 0.931 . S
C226 O229 1.256 . S
C226 O230 1.255 . S
O227 Co210 2.021 . S
O227 C220 1.259 . S
O228 Co212 2.117 1_545 S
O228 C220 1.258 . S
O229 Co212 2.020 . S
O229 C226 1.256 . S
O230 Co210 2.062 1_565 S
O230 C226 1.255 . S
O231 C211 1.259 . S
O231 Co212 2.021 . S
H232 C223 0.930 . S
H233 C222 0.931 . S
O234 Co210 2.117 1_565 S
O234 C211 1.258 . S
O235 Co210 2.020 . S
O235 C237 1.262 . S
O236 Co212 2.062 . S
O236 C237 1.247 1_565 S
C237 O235 1.262 . S
C237 O236 1.247 1_545 S
H238 C217 0.938 . S
H239 C225 0.931 . S
Co240 N245 2.057 . S
Co240 O257 2.021 . S
Co240 O260 2.062 . S
Co240 O264 2.117 . S
Co240 O265 2.020 . S
C241 O261 1.259 . S
C241 O264 1.258 . S
Co242 N251 2.057 . S
Co242 O258 2.117 . S
Co242 O259 2.020 . S
Co242 O261 2.021 . S
Co242 O266 2.062 . S
C243 N245 1.316 . S
C243 N246 1.347 . S
C243 H248 0.931 . S
C244 N245 1.375 . S
C244 C247 1.350 . S
C244 H249 0.930 . S
N245 Co240 2.057 . S
N245 C243 1.316 . S
N245 C244 1.375 . S
N246 C243 1.347 . S
N246 C247 1.373 . S
C247 C244 1.350 . S
C247 N246 1.373 . S
C247 H268 0.931 . S
H248 C243 0.931 . S
H249 C244 0.930 . S
C250 O257 1.259 . S
C250 O258 1.258 . S
N251 Co242 2.057 . S
N251 C252 1.316 . S
N251 C253 1.375 . S
C252 N251 1.316 . S
C252 N254 1.347 . S
C252 H263 0.931 . S
C253 N251 1.375 . S
C253 C255 1.350 . S
C253 H262 0.930 . S
N254 C252 1.347 . S
N254 C255 1.373 . S
C255 C253 1.350 . S
C255 N254 1.373 . S
C255 H269 0.931 . S
C256 O259 1.256 . S
C256 O260 1.255 . S
O257 Co240 2.021 . S
O257 C250 1.259 . S
O258 Co242 2.117 . S
O258 C250 1.258 . S
O259 Co242 2.020 . S
O259 C256 1.256 . S
O260 Co240 2.062 . S
O260 C256 1.255 . S
O261 C241 1.259 . S
O261 Co242 2.021 . S
H262 C253 0.930 . S
H263 C252 0.931 . S
O264 Co240 2.117 . S
O264 C241 1.258 . S
O265 Co240 2.020 . S
O265 C267 1.256 . S
O266 Co242 2.062 . S
O266 C267 1.255 . S
C267 O265 1.256 . S
C267 O266 1.255 . S
H268 C247 0.931 . S
H269 C255 0.931 . S
Co270 N275 2.057 . S
Co270 O287 2.021 . S
Co270 O290 2.062 . S
Co270 O294 2.117 . S
Co270 O295 2.020 . S
C271 O291 1.259 . S
C271 O294 1.258 . S
Co272 N281 2.057 . S
Co272 O288 2.117 . S
Co272 O289 2.020 . S
Co272 O291 2.021 . S
Co272 O296 2.062 . S
C273 N275 1.316 . S
C273 N276 1.347 . S
C273 H278 0.931 . S
C274 N275 1.375 . S
C274 C277 1.350 . S
C274 H279 0.930 . S
N275 Co270 2.057 . S
N275 C273 1.316 . S
N275 C274 1.375 . S
N276 C273 1.347 . S
N276 C277 1.373 . S
C277 C274 1.350 . S
C277 N276 1.373 . S
C277 H298 0.931 . S
H278 C273 0.931 . S
H279 C274 0.930 . S
C280 O287 1.259 . S
C280 O288 1.258 . S
N281 Co272 2.057 . S
N281 C282 1.316 . S
N281 C283 1.375 . S
C282 N281 1.316 . S
C282 N284 1.347 . S
C282 H293 0.931 . S
C283 N281 1.375 . S
C283 C285 1.350 . S
C283 H292 0.930 . S
N284 C282 1.347 . S
N284 C285 1.373 . S
C285 C283 1.350 . S
C285 N284 1.373 . S
C285 H299 0.938 . S
C286 O289 1.256 . S
C286 O290 1.255 . S
O287 Co270 2.021 . S
O287 C280 1.259 . S
O288 Co272 2.117 . S
O288 C280 1.258 . S
O289 Co272 2.020 . S
O289 C286 1.256 . S
O290 Co270 2.062 . S
O290 C286 1.255 . S
O291 C271 1.259 . S
O291 Co272 2.021 . S
H292 C283 0.930 . S
H293 C282 0.931 . S
O294 Co270 2.117 . S
O294 C271 1.258 . S
O295 Co270 2.020 . S
O295 C297 1.256 . S
O296 Co272 2.062 . S
O296 C297 1.255 . S
C297 O295 1.256 . S
C297 O296 1.255 . S
H298 C277 0.931 . S
H299 C285 0.938 . S
Co300 N305 2.057 . S
Co300 O317 2.021 . S
Co300 O320 2.062 . S
Co300 O324 2.117 . S
Co300 O325 2.020 . S
C301 O321 1.259 . S
C301 O324 1.258 . S
Co302 N311 2.057 . S
Co302 O318 2.117 . S
Co302 O319 2.020 . S
Co302 O321 2.021 . S
Co302 O326 2.062 . S
C303 N305 1.316 . S
C303 N306 1.347 . S
C303 H308 0.931 . S
C304 N305 1.375 . S
C304 C307 1.350 . S
C304 H309 0.930 . S
N305 Co300 2.057 . S
N305 C303 1.316 . S
N305 C304 1.375 . S
N306 C303 1.347 . S
N306 C307 1.373 . S
C307 C304 1.350 . S
C307 N306 1.373 . S
C307 H328 0.931 . S
H308 C303 0.931 . S
H309 C304 0.930 . S
C310 O317 1.259 . S
C310 O318 1.258 . S
N311 Co302 2.057 . S
N311 C312 1.316 . S
N311 C313 1.375 . S
C312 N311 1.316 . S
C312 N314 1.347 . S
C312 H323 0.931 . S
C313 N311 1.375 . S
C313 C315 1.350 . S
C313 H322 0.930 . S
N314 C312 1.347 . S
N314 C315 1.373 . S
C315 C313 1.350 . S
C315 N314 1.373 . S
C315 H329 0.931 . S
C316 O319 1.256 . S
C316 O320 1.255 . S
O317 Co300 2.021 . S
O317 C310 1.259 . S
O318 Co302 2.117 . S
O318 C310 1.258 . S
O319 Co302 2.020 . S
O319 C316 1.256 . S
O320 Co300 2.062 . S
O320 C316 1.255 . S
O321 C301 1.259 . S
O321 Co302 2.021 . S
H322 C313 0.930 . S
H323 C312 0.931 . S
O324 Co300 2.117 . S
O324 C301 1.258 . S
O325 Co300 2.020 . S
O325 C327 1.256 . S
O326 Co302 2.062 . S
O326 C327 1.255 . S
C327 O325 1.256 . S
C327 O326 1.255 . S
H328 C307 0.931 . S
H329 C315 0.931 . S
Co330 N335 2.057 . S
Co330 O347 2.021 . S
Co330 O350 2.062 . S
Co330 O354 2.117 . S
Co330 O355 2.020 . S
C331 O351 1.259 . S
C331 O354 1.258 . S
Co332 N341 2.057 . S
Co332 O348 2.117 . S
Co332 O349 2.020 . S
Co332 O351 2.021 . S
Co332 O356 2.062 . S
C333 N335 1.316 . S
C333 N336 1.347 . S
C333 H338 0.931 . S
C334 N335 1.375 . S
C334 C337 1.350 . S
C334 H339 0.930 . S
N335 Co330 2.057 . S
N335 C333 1.316 . S
N335 C334 1.375 . S
N336 C333 1.347 . S
N336 C337 1.373 . S
C337 C334 1.350 . S
C337 N336 1.373 . S
C337 H358 0.931 . S
H338 C333 0.931 . S
H339 C334 0.930 . S
C340 O347 1.259 . S
C340 O348 1.258 . S
N341 Co332 2.057 . S
N341 C342 1.316 . S
N341 C343 1.375 . S
C342 N341 1.316 . S
C342 N344 1.347 . S
C342 H353 0.931 . S
C343 N341 1.375 . S
C343 C345 1.350 . S
C343 H352 0.930 . S
N344 C342 1.347 . S
N344 C345 1.373 . S
C345 C343 1.350 . S
C345 N344 1.373 . S
C345 H359 0.938 . S
C346 O349 1.256 . S
C346 O350 1.255 . S
O347 Co330 2.021 . S
O347 C340 1.259 . S
O348 Co332 2.117 . S
O348 C340 1.258 . S
O349 Co332 2.020 . S
O349 C346 1.256 . S
O350 Co330 2.062 . S
O350 C346 1.255 . S
O351 C331 1.259 . S
O351 Co332 2.021 . S
H352 C343 0.930 . S
H353 C342 0.931 . S
O354 Co330 2.117 . S
O354 C331 1.258 . S
O355 Co330 2.020 . S
O355 C357 1.256 . S
O356 Co332 2.062 . S
O356 C357 1.255 . S
C357 O355 1.256 . S
C357 O356 1.255 . S
H358 C337 0.931 . S
H359 C345 0.938 . S
Co360 N365 2.057 . S
Co360 O377 2.021 . S
Co360 O380 2.062 . S
Co360 O384 2.117 . S
Co360 O385 2.020 . S
C361 O381 1.259 . S
C361 O384 1.258 . S
Co362 N371 2.057 . S
Co362 O378 2.117 . S
Co362 O379 2.020 . S
Co362 O381 2.021 . S
Co362 O386 2.062 . S
C363 N365 1.316 . S
C363 N366 1.347 . S
C363 H368 0.931 . S
C364 N365 1.375 . S
C364 C367 1.350 . S
C364 H369 0.930 . S
N365 Co360 2.057 . S
N365 C363 1.316 . S
N365 C364 1.375 . S
N366 C363 1.347 . S
N366 C367 1.373 . S
C367 C364 1.350 . S
C367 N366 1.373 . S
C367 H388 0.931 . S
H368 C363 0.931 . S
H369 C364 0.930 . S
C370 O377 1.259 . S
C370 O378 1.258 . S
N371 Co362 2.057 . S
N371 C372 1.316 . S
N371 C373 1.375 . S
C372 N371 1.316 . S
C372 N374 1.347 . S
C372 H383 0.931 . S
C373 N371 1.375 . S
C373 C375 1.350 . S
C373 H382 0.930 . S
N374 C372 1.347 . S
N374 C375 1.373 . S
C375 C373 1.350 . S
C375 N374 1.373 . S
C375 H389 0.931 . S
C376 O379 1.256 . S
C376 O380 1.255 . S
O377 Co360 2.021 . S
O377 C370 1.259 . S
O378 Co362 2.117 . S
O378 C370 1.258 . S
O379 Co362 2.020 . S
O379 C376 1.256 . S
O380 Co360 2.062 . S
O380 C376 1.255 . S
O381 C361 1.259 . S
O381 Co362 2.021 . S
H382 C373 0.930 . S
H383 C372 0.931 . S
O384 Co360 2.117 . S
O384 C361 1.258 . S
O385 Co360 2.020 . S
O385 C387 1.256 . S
O386 Co362 2.062 . S
O386 C387 1.255 . S
C387 O385 1.256 . S
C387 O386 1.255 . S
H388 C367 0.931 . S
H389 C375 0.931 . S
Co390 N395 2.057 . S
Co390 O407 2.021 . S
Co390 O410 2.062 . S
Co390 O414 2.117 . S
Co390 O415 2.020 . S
C391 O411 1.259 . S
C391 O414 1.258 . S
Co392 N401 2.057 . S
Co392 O408 2.117 . S
Co392 O409 2.020 . S
Co392 O411 2.021 . S
Co392 O416 2.062 . S
C393 N395 1.316 . S
C393 N396 1.347 . S
C393 H398 0.931 . S
C394 N395 1.375 . S
C394 C397 1.350 . S
C394 H399 0.930 . S
N395 Co390 2.057 . S
N395 C393 1.316 . S
N395 C394 1.375 . S
N396 C393 1.347 . S
N396 C397 1.373 . S
C397 C394 1.350 . S
C397 N396 1.373 . S
C397 H418 0.938 . S
H398 C393 0.931 . S
H399 C394 0.930 . S
C400 O407 1.259 . S
C400 O408 1.258 . S
N401 Co392 2.057 . S
N401 C402 1.316 . S
N401 C403 1.375 . S
C402 N401 1.316 . S
C402 N404 1.347 . S
C402 H413 0.931 . S
C403 N401 1.375 . S
C403 C405 1.350 . S
C403 H412 0.930 . S
N404 C402 1.347 . S
N404 C405 1.373 . S
C405 C403 1.350 . S
C405 N404 1.373 . S
C405 H419 0.931 . S
C406 O409 1.256 . S
C406 O410 1.255 . S
O407 Co390 2.021 . S
O407 C400 1.259 . S
O408 Co392 2.117 . S
O408 C400 1.258 . S
O409 Co392 2.020 . S
O409 C406 1.256 . S
O410 Co390 2.062 . S
O410 C406 1.255 . S
O411 C391 1.259 . S
O411 Co392 2.021 . S
H412 C403 0.930 . S
H413 C402 0.931 . S
O414 Co390 2.117 . S
O414 C391 1.258 . S
O415 Co390 2.020 . S
O415 C417 1.256 . S
O416 Co392 2.062 . S
O416 C417 1.255 . S
C417 O415 1.256 . S
C417 O416 1.255 . S
H418 C397 0.938 . S
H419 C405 0.931 . S
Co420 N425 2.057 . S
Co420 O437 2.021 . S
Co420 O440 2.062 . S
Co420 O444 2.117 . S
Co420 O445 2.020 . S
C421 O441 1.259 . S
C421 O444 1.258 . S
Co422 N431 2.057 . S
Co422 O438 2.117 . S
Co422 O439 2.020 . S
Co422 O441 2.021 . S
Co422 O446 2.062 . S
C423 N425 1.316 . S
C423 N426 1.347 . S
C423 H428 0.931 . S
C424 N425 1.375 . S
C424 C427 1.350 . S
C424 H429 0.930 . S
N425 Co420 2.057 . S
N425 C423 1.316 . S
N425 C424 1.375 . S
N426 C423 1.347 . S
N426 C427 1.373 . S
C427 C424 1.350 . S
C427 N426 1.373 . S
C427 H448 0.931 . S
H428 C423 0.931 . S
H429 C424 0.930 . S
C430 O437 1.259 . S
C430 O438 1.258 . S
N431 Co422 2.057 . S
N431 C432 1.316 . S
N431 C433 1.375 . S
C432 N431 1.316 . S
C432 N434 1.347 . S
C432 H443 0.931 . S
C433 N431 1.375 . S
C433 C435 1.350 . S
C433 H442 0.930 . S
N434 C432 1.347 . S
N434 C435 1.373 . S
C435 C433 1.350 . S
C435 N434 1.373 . S
C435 H449 0.931 . S
C436 O439 1.256 . S
C436 O440 1.255 . S
O437 Co420 2.021 . S
O437 C430 1.259 . S
O438 Co422 2.117 . S
O438 C430 1.258 . S
O439 Co422 2.020 . S
O439 C436 1.256 . S
O440 Co420 2.062 . S
O440 C436 1.255 . S
O441 C421 1.259 . S
O441 Co422 2.021 . S
H442 C433 0.930 . S
H443 C432 0.931 . S
O444 Co420 2.117 . S
O444 C421 1.258 . S
O445 Co420 2.020 . S
O445 C447 1.256 . S
O446 Co422 2.062 . S
O446 C447 1.255 . S
C447 O445 1.256 . S
C447 O446 1.255 . S
H448 C427 0.931 . S
H449 C435 0.931 . S
Co450 N455 2.057 . S
Co450 O467 2.021 . S
Co450 O470 2.062 . S
Co450 O474 2.117 . S
Co450 O475 2.020 . S
C451 O471 1.259 . S
C451 O474 1.258 . S
Co452 N461 2.057 . S
Co452 O468 2.117 . S
Co452 O469 2.020 . S
Co452 O471 2.021 . S
Co452 O476 2.062 . S
C453 N455 1.316 . S
C453 N456 1.347 . S
C453 H458 0.931 . S
C454 N455 1.375 . S
C454 C457 1.350 . S
C454 H459 0.930 . S
N455 Co450 2.057 . S
N455 C453 1.316 . S
N455 C454 1.375 . S
N456 C453 1.347 . S
N456 C457 1.373 . S
C457 C454 1.350 . S
C457 N456 1.373 . S
C457 H478 0.938 . S
H458 C453 0.931 . S
H459 C454 0.930 . S
C460 O467 1.259 . S
C460 O468 1.258 . S
N461 Co452 2.057 . S
N461 C462 1.316 . S
N461 C463 1.375 . S
C462 N461 1.316 . S
C462 N464 1.347 . S
C462 H473 0.931 . S
C463 N461 1.375 . S
C463 C465 1.350 . S
C463 H472 0.930 . S
N464 C462 1.347 . S
N464 C465 1.373 . S
C465 C463 1.350 . S
C465 N464 1.373 . S
C465 H479 0.931 . S
C466 O469 1.256 . S
C466 O470 1.255 . S
O467 Co450 2.021 . S
O467 C460 1.259 . S
O468 Co452 2.117 . S
O468 C460 1.258 . S
O469 Co452 2.020 . S
O469 C466 1.256 . S
O470 Co450 2.062 . S
O470 C466 1.255 . S
O471 C451 1.259 . S
O471 Co452 2.021 . S
H472 C463 0.930 . S
H473 C462 0.931 . S
O474 Co450 2.117 . S
O474 C451 1.258 . S
O475 Co450 2.020 . S
O475 C477 1.256 . S
O476 Co452 2.062 . S
O476 C477 1.255 . S
C477 O475 1.256 . S
C477 O476 1.255 . S
H478 C457 0.938 . S
H479 C465 0.931 . S
Co480 N485 2.056 1_545 S
Co480 O497 2.021 . S
Co480 O500 2.062 . S
Co480 O504 2.117 1_545 S
Co480 O505 2.020 . S
C481 O501 1.259 . S
C481 O504 1.258 . S
Co482 N491 2.057 1_565 S
Co482 O498 2.117 1_565 S
Co482 O499 2.020 . S
Co482 O501 2.021 . S
Co482 O506 2.062 1_565 S
C483 N485 1.313 1_545 S
C483 N486 1.347 . S
C483 H488 0.931 . S
C484 N485 1.380 . S
C484 C487 1.350 . S
C484 H489 0.930 . S
N485 Co480 2.056 1_565 S
N485 C483 1.313 1_565 S
N485 C484 1.380 . S
N486 C483 1.347 . S
N486 C487 1.373 1_545 S
C487 C484 1.350 . S
C487 N486 1.373 1_565 S
C487 H508 0.931 . S
H488 C483 0.931 . S
H489 C484 0.930 . S
C490 O497 1.259 . S
C490 O498 1.258 . S
N491 Co482 2.057 1_545 S
N491 C492 1.316 1_545 S
N491 C493 1.375 . S
C492 N491 1.316 1_565 S
C492 N494 1.340 1_565 S
C492 H503 0.931 . S
C493 N491 1.375 . S
C493 C495 1.350 . S
C493 H502 0.930 . S
N494 C492 1.340 1_545 S
N494 C495 1.387 . S
C495 C493 1.350 . S
C495 N494 1.387 . S
C495 H509 0.931 . S
C496 O499 1.262 . S
C496 O500 1.247 1_565 S
O497 Co480 2.021 . S
O497 C490 1.259 . S
O498 Co482 2.117 1_545 S
O498 C490 1.258 . S
O499 Co482 2.020 . S
O499 C496 1.262 . S
O500 Co480 2.062 . S
O500 C496 1.247 1_545 S
O501 C481 1.259 . S
O501 Co482 2.021 . S
H502 C493 0.930 . S
H503 C492 0.931 . S
O504 Co480 2.117 1_565 S
O504 C481 1.258 . S
O505 Co480 2.020 . S
O505 C507 1.256 . S
O506 Co482 2.062 1_545 S
O506 C507 1.255 . S
C507 O505 1.256 . S
C507 O506 1.255 . S
H508 C487 0.931 . S
H509 C495 0.931 . S
Co510 N515 2.057 . S
Co510 O527 2.021 . S
Co510 O530 2.062 . S
Co510 O534 2.117 . S
Co510 O535 2.020 . S
C511 O531 1.259 . S
C511 O534 1.258 . S
Co512 N521 2.057 . S
Co512 O528 2.117 . S
Co512 O529 2.020 . S
Co512 O531 2.021 . S
Co512 O536 2.062 . S
C513 N515 1.316 . S
C513 N516 1.347 . S
C513 H518 0.931 . S
C514 N515 1.375 . S
C514 C517 1.350 . S
C514 H519 0.930 . S
N515 Co510 2.057 . S
N515 C513 1.316 . S
N515 C514 1.375 . S
N516 C513 1.347 . S
N516 C517 1.373 . S
C517 C514 1.350 . S
C517 N516 1.373 . S
C517 H538 0.931 . S
H518 C513 0.931 . S
H519 C514 0.930 . S
C520 O527 1.259 . S
C520 O528 1.258 . S
N521 Co512 2.057 . S
N521 C522 1.316 . S
N521 C523 1.375 . S
C522 N521 1.316 . S
C522 N524 1.347 . S
C522 H533 0.931 . S
C523 N521 1.375 . S
C523 C525 1.350 . S
C523 H532 0.930 . S
N524 C522 1.347 . S
N524 C525 1.373 . S
C525 C523 1.350 . S
C525 N524 1.373 . S
C525 H539 0.931 . S
C526 O529 1.256 . S
C526 O530 1.255 . S
O527 Co510 2.021 . S
O527 C520 1.259 . S
O528 Co512 2.117 . S
O528 C520 1.258 . S
O529 Co512 2.020 . S
O529 C526 1.256 . S
O530 Co510 2.062 . S
O530 C526 1.255 . S
O531 C511 1.259 . S
O531 Co512 2.021 . S
H532 C523 0.930 . S
H533 C522 0.931 . S
O534 Co510 2.117 . S
O534 C511 1.258 . S
O535 Co510 2.020 . S
O535 C537 1.256 . S
O536 Co512 2.062 . S
O536 C537 1.255 . S
C537 O535 1.256 . S
C537 O536 1.255 . S
H538 C517 0.931 . S
H539 C525 0.931 . S
Co540 N545 2.057 . S
Co540 O557 2.021 . S
Co540 O560 2.062 . S
Co540 O564 2.117 . S
Co540 O565 2.020 . S
C541 O561 1.259 . S
C541 O564 1.258 . S
Co542 N551 2.057 . S
Co542 O558 2.117 . S
Co542 O559 2.020 . S
Co542 O561 2.021 . S
Co542 O566 2.062 . S
C543 N545 1.316 . S
C543 N546 1.347 . S
C543 H548 0.931 . S
C544 N545 1.375 . S
C544 C547 1.350 . S
C544 H549 0.930 . S
N545 Co540 2.057 . S
N545 C543 1.316 . S
N545 C544 1.375 . S
N546 C543 1.347 . S
N546 C547 1.373 . S
C547 C544 1.350 . S
C547 N546 1.373 . S
C547 H568 0.931 . S
H548 C543 0.931 . S
H549 C544 0.930 . S
C550 O557 1.259 . S
C550 O558 1.258 . S
N551 Co542 2.057 . S
N551 C552 1.316 . S
N551 C553 1.375 . S
C552 N551 1.316 . S
C552 N554 1.347 . S
C552 H563 0.931 . S
C553 N551 1.375 . S
C553 C555 1.350 . S
C553 H562 0.930 . S
N554 C552 1.347 . S
N554 C555 1.373 . S
C555 C553 1.350 . S
C555 N554 1.373 . S
C555 H569 0.931 . S
C556 O559 1.256 . S
C556 O560 1.255 . S
O557 Co540 2.021 . S
O557 C550 1.259 . S
O558 Co542 2.117 . S
O558 C550 1.258 . S
O559 Co542 2.020 . S
O559 C556 1.256 . S
O560 Co540 2.062 . S
O560 C556 1.255 . S
O561 C541 1.259 . S
O561 Co542 2.021 . S
H562 C553 0.930 . S
H563 C552 0.931 . S
O564 Co540 2.117 . S
O564 C541 1.258 . S
O565 Co540 2.020 . S
O565 C567 1.256 . S
O566 Co542 2.062 . S
O566 C567 1.255 . S
C567 O565 1.256 . S
C567 O566 1.255 . S
H568 C547 0.931 . S
H569 C555 0.931 . S
Co570 N575 2.056 1_545 S
Co570 O587 2.021 . S
Co570 O590 2.062 . S
Co570 O594 2.117 1_545 S
Co570 O595 2.020 . S
C571 O591 1.259 . S
C571 O594 1.258 . S
Co572 N581 2.057 1_565 S
Co572 O588 2.117 1_565 S
Co572 O589 2.020 . S
Co572 O591 2.021 . S
Co572 O596 2.062 1_565 S
C573 N575 1.313 1_545 S
C573 N576 1.347 . S
C573 H578 0.931 . S
C574 N575 1.380 . S
C574 C577 1.350 . S
C574 H579 0.930 . S
N575 Co570 2.056 1_565 S
N575 C573 1.313 1_565 S
N575 C574 1.380 . S
N576 C573 1.347 . S
N576 C577 1.373 1_545 S
C577 C574 1.350 . S
C577 N576 1.373 1_565 S
C577 H598 0.931 . S
H578 C573 0.931 . S
H579 C574 0.930 . S
C580 O587 1.259 . S
C580 O588 1.258 . S
N581 Co572 2.057 1_545 S
N581 C582 1.316 1_545 S
N581 C583 1.375 . S
C582 N581 1.316 1_565 S
C582 N584 1.340 1_565 S
C582 H593 0.931 . S
C583 N581 1.375 . S
C583 C585 1.350 . S
C583 H592 0.930 . S
N584 C582 1.340 1_545 S
N584 C585 1.387 . S
C585 C583 1.350 . S
C585 N584 1.387 . S
C585 H599 0.931 . S
C586 O589 1.262 . S
C586 O590 1.247 1_565 S
O587 Co570 2.021 . S
O587 C580 1.259 . S
O588 Co572 2.117 1_545 S
O588 C580 1.258 . S
O589 Co572 2.020 . S
O589 C586 1.262 . S
O590 Co570 2.062 . S
O590 C586 1.247 1_545 S
O591 C571 1.259 . S
O591 Co572 2.021 . S
H592 C583 0.930 . S
H593 C582 0.931 . S
O594 Co570 2.117 1_565 S
O594 C571 1.258 . S
O595 Co570 2.020 . S
O595 C597 1.256 . S
O596 Co572 2.062 1_545 S
O596 C597 1.255 . S
C597 O595 1.256 . S
C597 O596 1.255 . S
H598 C577 0.931 . S
H599 C585 0.931 . S
Co600 N605 2.057 1_545 S
Co600 O617 2.021 . S
Co600 O620 2.062 1_545 S
Co600 O624 2.117 1_545 S
Co600 O625 2.020 . S
C601 O621 1.259 . S
C601 O624 1.258 . S
Co602 N611 2.056 1_565 S
Co602 O618 2.117 1_565 S
Co602 O619 2.020 . S
Co602 O621 2.021 . S
Co602 O626 2.062 . S
C603 N605 1.316 1_545 S
C603 N606 1.340 1_545 S
C603 H608 0.931 . S
C604 N605 1.375 . S
C604 C607 1.350 . S
C604 H609 0.930 . S
N605 Co600 2.057 1_565 S
N605 C603 1.316 1_565 S
N605 C604 1.375 . S
N606 C603 1.340 1_565 S
N606 C607 1.387 . S
C607 C604 1.350 . S
C607 N606 1.387 . S
C607 H628 0.931 . S
H608 C603 0.931 . S
H609 C604 0.930 . S
C610 O617 1.259 . S
C610 O618 1.258 . S
N611 Co602 2.056 1_545 S
N611 C612 1.313 1_545 S
N611 C613 1.380 . S
C612 N611 1.313 1_565 S
C612 N614 1.347 . S
C612 H623 0.931 . S
C613 N611 1.380 . S
C613 C615 1.350 . S
C613 H622 0.930 . S
N614 C612 1.347 . S
N614 C615 1.373 1_565 S
C615 C613 1.350 . S
C615 N614 1.373 1_545 S
C615 H629 0.931 . S
C616 O619 1.256 . S
C616 O620 1.255 . S
O617 Co600 2.021 . S
O617 C610 1.259 . S
O618 Co602 2.117 1_545 S
O618 C610 1.258 . S
O619 Co602 2.020 . S
O619 C616 1.256 . S
O620 Co600 2.062 1_565 S
O620 C616 1.255 . S
O621 C601 1.259 . S
O621 Co602 2.021 . S
H622 C613 0.930 . S
H623 C612 0.931 . S
O624 Co600 2.117 1_565 S
O624 C601 1.258 . S
O625 Co600 2.020 . S
O625 C627 1.262 . S
O626 Co602 2.062 . S
O626 C627 1.247 1_565 S
C627 O625 1.262 . S
C627 O626 1.247 1_545 S
H628 C607 0.931 . S
H629 C615 0.931 . S
Co630 N635 2.057 . S
Co630 O647 2.021 . S
Co630 O650 2.062 . S
Co630 O654 2.117 . S
Co630 O655 2.020 . S
C631 O651 1.259 . S
C631 O654 1.258 . S
Co632 N641 2.057 . S
Co632 O648 2.117 . S
Co632 O649 2.020 . S
Co632 O651 2.021 . S
Co632 O656 2.062 . S
C633 N635 1.316 . S
C633 N636 1.347 . S
C633 H638 0.931 . S
C634 N635 1.375 . S
C634 C637 1.350 . S
C634 H639 0.930 . S
N635 Co630 2.057 . S
N635 C633 1.316 . S
N635 C634 1.375 . S
N636 C633 1.347 . S
N636 C637 1.373 . S
C637 C634 1.350 . S
C637 N636 1.373 . S
C637 H658 0.931 . S
H638 C633 0.931 . S
H639 C634 0.930 . S
C640 O647 1.259 . S
C640 O648 1.258 . S
N641 Co632 2.057 . S
N641 C642 1.316 . S
N641 C643 1.375 . S
C642 N641 1.316 . S
C642 N644 1.347 . S
C642 H653 0.931 . S
C643 N641 1.375 . S
C643 C645 1.350 . S
C643 H652 0.930 . S
N644 C642 1.347 . S
N644 C645 1.373 . S
C645 C643 1.350 . S
C645 N644 1.373 . S
C645 H659 0.931 . S
C646 O649 1.256 . S
C646 O650 1.255 . S
O647 Co630 2.021 . S
O647 C640 1.259 . S
O648 Co632 2.117 . S
O648 C640 1.258 . S
O649 Co632 2.020 . S
O649 C646 1.256 . S
O650 Co630 2.062 . S
O650 C646 1.255 . S
O651 C631 1.259 . S
O651 Co632 2.021 . S
H652 C643 0.930 . S
H653 C642 0.931 . S
O654 Co630 2.117 . S
O654 C631 1.258 . S
O655 Co630 2.020 . S
O655 C657 1.256 . S
O656 Co632 2.062 . S
O656 C657 1.255 . S
C657 O655 1.256 . S
C657 O656 1.255 . S
H658 C637 0.931 . S
H659 C645 0.931 . S
Co660 N665 2.057 . S
Co660 O677 2.021 . S
Co660 O680 2.062 . S
Co660 O684 2.117 . S
Co660 O685 2.020 . S
C661 O681 1.259 . S
C661 O684 1.258 . S
Co662 N671 2.057 . S
Co662 O678 2.117 . S
Co662 O679 2.020 . S
Co662 O681 2.021 . S
Co662 O686 2.062 . S
C663 N665 1.316 . S
C663 N666 1.347 . S
C663 H668 0.931 . S
C664 N665 1.375 . S
C664 C667 1.350 . S
C664 H669 0.930 . S
N665 Co660 2.057 . S
N665 C663 1.316 . S
N665 C664 1.375 . S
N666 C663 1.347 . S
N666 C667 1.373 . S
C667 C664 1.350 . S
C667 N666 1.373 . S
C667 H688 0.931 . S
H668 C663 0.931 . S
H669 C664 0.930 . S
C670 O677 1.259 . S
C670 O678 1.258 . S
N671 Co662 2.057 . S
N671 C672 1.316 . S
N671 C673 1.375 . S
C672 N671 1.316 . S
C672 N674 1.347 . S
C672 H683 0.931 . S
C673 N671 1.375 . S
C673 C675 1.350 . S
C673 H682 0.930 . S
N674 C672 1.347 . S
N674 C675 1.373 . S
C675 C673 1.350 . S
C675 N674 1.373 . S
C675 H689 0.931 . S
C676 O679 1.256 . S
C676 O680 1.255 . S
O677 Co660 2.021 . S
O677 C670 1.259 . S
O678 Co662 2.117 . S
O678 C670 1.258 . S
O679 Co662 2.020 . S
O679 C676 1.256 . S
O680 Co660 2.062 . S
O680 C676 1.255 . S
O681 C661 1.259 . S
O681 Co662 2.021 . S
H682 C673 0.930 . S
H683 C672 0.931 . S
O684 Co660 2.117 . S
O684 C661 1.258 . S
O685 Co660 2.020 . S
O685 C687 1.256 . S
O686 Co662 2.062 . S
O686 C687 1.255 . S
C687 O685 1.256 . S
C687 O686 1.255 . S
H688 C667 0.931 . S
H689 C675 0.931 . S
Co690 N695 2.057 1_545 S
Co690 O707 2.021 . S
Co690 O710 2.062 1_545 S
Co690 O714 2.117 1_545 S
Co690 O715 2.020 . S
C691 O711 1.259 . S
C691 O714 1.258 . S
Co692 N701 2.056 1_565 S
Co692 O708 2.117 1_565 S
Co692 O709 2.020 . S
Co692 O711 2.021 . S
Co692 O716 2.062 . S
C693 N695 1.316 1_545 S
C693 N696 1.340 1_545 S
C693 H698 0.931 . S
C694 N695 1.375 . S
C694 C697 1.350 . S
C694 H699 0.930 . S
N695 Co690 2.057 1_565 S
N695 C693 1.316 1_565 S
N695 C694 1.375 . S
N696 C693 1.340 1_565 S
N696 C697 1.387 . S
C697 C694 1.350 . S
C697 N696 1.387 . S
C697 H718 0.931 . S
H698 C693 0.931 . S
H699 C694 0.930 . S
C700 O707 1.259 . S
C700 O708 1.258 . S
N701 Co692 2.056 1_545 S
N701 C702 1.313 1_545 S
N701 C703 1.380 . S
C702 N701 1.313 1_565 S
C702 N704 1.347 . S
C702 H713 0.931 . S
C703 N701 1.380 . S
C703 C705 1.350 . S
C703 H712 0.930 . S
N704 C702 1.347 . S
N704 C705 1.373 1_565 S
C705 C703 1.350 . S
C705 N704 1.373 1_545 S
C705 H719 0.931 . S
C706 O709 1.256 . S
C706 O710 1.255 . S
O707 Co690 2.021 . S
O707 C700 1.259 . S
O708 Co692 2.117 1_545 S
O708 C700 1.258 . S
O709 Co692 2.020 . S
O709 C706 1.256 . S
O710 Co690 2.062 1_565 S
O710 C706 1.255 . S
O711 C691 1.259 . S
O711 Co692 2.021 . S
H712 C703 0.930 . S
H713 C702 0.931 . S
O714 Co690 2.117 1_565 S
O714 C691 1.258 . S
O715 Co690 2.020 . S
O715 C717 1.262 . S
O716 Co692 2.062 . S
O716 C717 1.247 1_565 S
C717 O715 1.262 . S
C717 O716 1.247 1_545 S
H718 C697 0.931 . S
H719 C705 0.931 . S
Co720 N725 2.057 . S
Co720 O737 2.021 . S
Co720 O740 2.062 . S
Co720 O744 2.117 . S
Co720 O745 2.020 . S
C721 O741 1.259 . S
C721 O744 1.258 . S
Co722 N731 2.057 . S
Co722 O738 2.117 . S
Co722 O739 2.020 . S
Co722 O741 2.021 . S
Co722 O746 2.062 . S
C723 N725 1.316 . S
C723 N726 1.347 . S
C723 H728 0.931 . S
C724 N725 1.375 . S
C724 C727 1.350 . S
C724 H729 0.930 . S
N725 Co720 2.057 . S
N725 C723 1.316 . S
N725 C724 1.375 . S
N726 C723 1.347 . S
N726 C727 1.373 . S
C727 C724 1.350 . S
C727 N726 1.373 . S
C727 H748 0.931 . S
H728 C723 0.931 . S
H729 C724 0.930 . S
C730 O737 1.259 . S
C730 O738 1.258 . S
N731 Co722 2.057 . S
N731 C732 1.316 . S
N731 C733 1.375 . S
C732 N731 1.316 . S
C732 N734 1.347 1_554 S
C732 H743 0.931 . S
C733 N731 1.375 . S
C733 C735 1.350 . S
C733 H742 0.930 . S
N734 C732 1.347 1_556 S
N734 C735 1.373 1_556 S
C735 C733 1.350 . S
C735 N734 1.373 1_554 S
C735 H749 0.931 . S
C736 O739 1.256 . S
C736 O740 1.255 . S
O737 Co720 2.021 . S
O737 C730 1.259 . S
O738 Co722 2.117 . S
O738 C730 1.258 . S
O739 Co722 2.020 . S
O739 C736 1.256 . S
O740 Co720 2.062 . S
O740 C736 1.255 . S
O741 C721 1.259 . S
O741 Co722 2.021 . S
H742 C733 0.930 . S
H743 C732 0.931 . S
O744 Co720 2.117 . S
O744 C721 1.258 . S
O745 Co720 2.020 . S
O745 C747 1.256 . S
O746 Co722 2.062 . S
O746 C747 1.255 . S
C747 O745 1.256 . S
C747 O746 1.255 . S
H748 C727 0.931 . S
H749 C735 0.931 . S
Co750 N755 2.057 . S
Co750 O767 2.021 . S
Co750 O770 2.062 . S
Co750 O774 2.117 . S
Co750 O775 2.020 . S
C751 O771 1.259 . S
C751 O774 1.258 . S
Co752 N761 2.057 . S
Co752 O768 2.117 . S
Co752 O769 2.020 . S
Co752 O771 2.021 . S
Co752 O776 2.062 . S
C753 N755 1.316 . S
C753 N756 1.347 . S
C753 H758 0.931 . S
C754 N755 1.375 . S
C754 C757 1.350 . S
C754 H759 0.930 . S
N755 Co750 2.057 . S
N755 C753 1.316 . S
N755 C754 1.375 . S
N756 C753 1.347 . S
N756 C757 1.373 . S
C757 C754 1.350 . S
C757 N756 1.373 . S
C757 H778 0.931 . S
H758 C753 0.931 . S
H759 C754 0.930 . S
C760 O767 1.259 . S
C760 O768 1.258 . S
N761 Co752 2.057 . S
N761 C762 1.316 . S
N761 C763 1.375 . S
C762 N761 1.316 . S
C762 N764 1.347 1_554 S
C762 H773 0.931 . S
C763 N761 1.375 . S
C763 C765 1.350 . S
C763 H772 0.930 . S
N764 C762 1.347 1_556 S
N764 C765 1.373 1_556 S
C765 C763 1.350 . S
C765 N764 1.373 1_554 S
C765 H779 0.931 . S
C766 O769 1.256 . S
C766 O770 1.255 . S
O767 Co750 2.021 . S
O767 C760 1.259 . S
O768 Co752 2.117 . S
O768 C760 1.258 . S
O769 Co752 2.020 . S
O769 C766 1.256 . S
O770 Co750 2.062 . S
O770 C766 1.255 . S
O771 C751 1.259 . S
O771 Co752 2.021 . S
H772 C763 0.930 . S
H773 C762 0.931 . S
O774 Co750 2.117 . S
O774 C751 1.258 . S
O775 Co750 2.020 . S
O775 C777 1.256 . S
O776 Co752 2.062 . S
O776 C777 1.255 . S
C777 O775 1.256 . S
C777 O776 1.255 . S
H778 C757 0.931 . S
H779 C765 0.931 . S
Co780 N785 2.057 . S
Co780 O797 2.021 . S
Co780 O800 2.062 . S
Co780 O804 2.117 . S
Co780 O805 2.020 . S
C781 O801 1.259 . S
C781 O804 1.258 . S
Co782 N791 2.057 . S
Co782 O798 2.117 . S
Co782 O799 2.020 . S
Co782 O801 2.021 . S
Co782 O806 2.062 . S
C783 N785 1.316 . S
C783 N786 1.347 . S
C783 H788 0.931 . S
C784 N785 1.375 . S
C784 C787 1.350 . S
C784 H789 0.930 . S
N785 Co780 2.057 . S
N785 C783 1.316 . S
N785 C784 1.375 . S
N786 C783 1.347 . S
N786 C787 1.373 . S
C787 C784 1.350 . S
C787 N786 1.373 . S
C787 H808 0.931 . S
H788 C783 0.931 . S
H789 C784 0.930 . S
C790 O797 1.259 . S
C790 O798 1.258 . S
N791 Co782 2.057 . S
N791 C792 1.316 . S
N791 C793 1.375 . S
C792 N791 1.316 . S
C792 N794 1.347 . S
C792 H803 0.931 . S
C793 N791 1.375 . S
C793 C795 1.350 . S
C793 H802 0.930 . S
N794 C792 1.347 . S
N794 C795 1.373 . S
C795 C793 1.350 . S
C795 N794 1.373 . S
C795 H809 0.931 . S
C796 O799 1.256 . S
C796 O800 1.255 . S
O797 Co780 2.021 . S
O797 C790 1.259 . S
O798 Co782 2.117 . S
O798 C790 1.258 . S
O799 Co782 2.020 . S
O799 C796 1.256 . S
O800 Co780 2.062 . S
O800 C796 1.255 . S
O801 C781 1.259 . S
O801 Co782 2.021 . S
H802 C793 0.930 . S
H803 C792 0.931 . S
O804 Co780 2.117 . S
O804 C781 1.258 . S
O805 Co780 2.020 . S
O805 C807 1.256 . S
O806 Co782 2.062 . S
O806 C807 1.255 . S
C807 O805 1.256 . S
C807 O806 1.255 . S
H808 C787 0.931 . S
H809 C795 0.931 . S
Co810 N815 2.057 . S
Co810 O827 2.021 . S
Co810 O830 2.062 . S
Co810 O834 2.117 . S
Co810 O835 2.020 . S
C811 O831 1.259 . S
C811 O834 1.258 . S
Co812 N821 2.057 . S
Co812 O828 2.117 . S
Co812 O829 2.020 . S
Co812 O831 2.021 . S
Co812 O836 2.062 . S
C813 N815 1.316 . S
C813 N816 1.347 . S
C813 H818 0.931 . S
C814 N815 1.375 . S
C814 C817 1.350 . S
C814 H819 0.930 . S
N815 Co810 2.057 . S
N815 C813 1.316 . S
N815 C814 1.375 . S
N816 C813 1.347 . S
N816 C817 1.373 . S
C817 C814 1.350 . S
C817 N816 1.373 . S
C817 H838 0.931 . S
H818 C813 0.931 . S
H819 C814 0.930 . S
C820 O827 1.259 . S
C820 O828 1.258 . S
N821 Co812 2.057 . S
N821 C822 1.316 . S
N821 C823 1.375 . S
C822 N821 1.316 . S
C822 N824 1.347 . S
C822 H833 0.931 . S
C823 N821 1.375 . S
C823 C825 1.350 . S
C823 H832 0.930 . S
N824 C822 1.347 . S
N824 C825 1.373 . S
C825 C823 1.350 . S
C825 N824 1.373 . S
C825 H839 0.931 . S
C826 O829 1.256 . S
C826 O830 1.255 . S
O827 Co810 2.021 . S
O827 C820 1.259 . S
O828 Co812 2.117 . S
O828 C820 1.258 . S
O829 Co812 2.020 . S
O829 C826 1.256 . S
O830 Co810 2.062 . S
O830 C826 1.255 . S
O831 C811 1.259 . S
O831 Co812 2.021 . S
H832 C823 0.930 . S
H833 C822 0.931 . S
O834 Co810 2.117 . S
O834 C811 1.258 . S
O835 Co810 2.020 . S
O835 C837 1.256 . S
O836 Co812 2.062 . S
O836 C837 1.255 . S
C837 O835 1.256 . S
C837 O836 1.255 . S
H838 C817 0.931 . S
H839 C825 0.931 . S
Co840 N845 2.057 . S
Co840 O857 2.021 . S
Co840 O860 2.062 . S
Co840 O864 2.117 . S
Co840 O865 2.020 . S
C841 O861 1.259 . S
C841 O864 1.258 . S
Co842 N851 2.057 . S
Co842 O858 2.117 . S
Co842 O859 2.020 . S
Co842 O861 2.021 . S
Co842 O866 2.062 . S
C843 N845 1.316 . S
C843 N846 1.347 1_556 S
C843 H848 0.931 . S
C844 N845 1.375 . S
C844 C847 1.350 . S
C844 H849 0.930 . S
N845 Co840 2.057 . S
N845 C843 1.316 . S
N845 C844 1.375 . S
N846 C843 1.347 1_554 S
N846 C847 1.373 1_554 S
C847 C844 1.350 . S
C847 N846 1.373 1_556 S
C847 H868 0.931 . S
H848 C843 0.931 . S
H849 C844 0.930 . S
C850 O857 1.259 . S
C850 O858 1.258 . S
N851 Co842 2.057 . S
N851 C852 1.316 . S
N851 C853 1.375 . S
C852 N851 1.316 . S
C852 N854 1.347 . S
C852 H863 0.931 . S
C853 N851 1.375 . S
C853 C855 1.350 . S
C853 H862 0.930 . S
N854 C852 1.347 . S
N854 C855 1.373 . S
C855 C853 1.350 . S
C855 N854 1.373 . S
C855 H869 0.931 . S
C856 O859 1.256 . S
C856 O860 1.255 . S
O857 Co840 2.021 . S
O857 C850 1.259 . S
O858 Co842 2.117 . S
O858 C850 1.258 . S
O859 Co842 2.020 . S
O859 C856 1.256 . S
O860 Co840 2.062 . S
O860 C856 1.255 . S
O861 C841 1.259 . S
O861 Co842 2.021 . S
H862 C853 0.930 . S
H863 C852 0.931 . S
O864 Co840 2.117 . S
O864 C841 1.258 . S
O865 Co840 2.020 . S
O865 C867 1.256 . S
O866 Co842 2.062 . S
O866 C867 1.255 . S
C867 O865 1.256 . S
C867 O866 1.255 . S
H868 C847 0.931 . S
H869 C855 0.931 . S
Co870 N875 2.057 . S
Co870 O887 2.021 . S
Co870 O890 2.062 . S
Co870 O894 2.117 . S
Co870 O895 2.020 . S
C871 O891 1.259 . S
C871 O894 1.258 . S
Co872 N881 2.057 . S
Co872 O888 2.117 . S
Co872 O889 2.020 . S
Co872 O891 2.021 . S
Co872 O896 2.062 . S
C873 N875 1.316 . S
C873 N876 1.347 1_556 S
C873 H878 0.931 . S
C874 N875 1.375 . S
C874 C877 1.350 . S
C874 H879 0.930 . S
N875 Co870 2.057 . S
N875 C873 1.316 . S
N875 C874 1.375 . S
N876 C873 1.347 1_554 S
N876 C877 1.373 1_554 S
C877 C874 1.350 . S
C877 N876 1.373 1_556 S
C877 H898 0.931 . S
H878 C873 0.931 . S
H879 C874 0.930 . S
C880 O887 1.259 . S
C880 O888 1.258 . S
N881 Co872 2.057 . S
N881 C882 1.316 . S
N881 C883 1.375 . S
C882 N881 1.316 . S
C882 N884 1.347 . S
C882 H893 0.931 . S
C883 N881 1.375 . S
C883 C885 1.350 . S
C883 H892 0.930 . S
N884 C882 1.347 . S
N884 C885 1.373 . S
C885 C883 1.350 . S
C885 N884 1.373 . S
C885 H899 0.931 . S
C886 O889 1.256 . S
C886 O890 1.255 . S
O887 Co870 2.021 . S
O887 C880 1.259 . S
O888 Co872 2.117 . S
O888 C880 1.258 . S
O889 Co872 2.020 . S
O889 C886 1.256 . S
O890 Co870 2.062 . S
O890 C886 1.255 . S
O891 C871 1.259 . S
O891 Co872 2.021 . S
H892 C883 0.930 . S
H893 C882 0.931 . S
O894 Co870 2.117 . S
O894 C871 1.258 . S
O895 Co870 2.020 . S
O895 C897 1.256 . S
O896 Co872 2.062 . S
O896 C897 1.255 . S
C897 O895 1.256 . S
C897 O896 1.255 . S
H898 C877 0.931 . S
H899 C885 0.931 . S
Co900 N905 2.057 . S
Co900 O917 2.021 . S
Co900 O920 2.062 . S
Co900 O924 2.117 . S
Co900 O925 2.020 . S
C901 O921 1.259 . S
C901 O924 1.258 . S
Co902 N911 2.057 . S
Co902 O918 2.117 . S
Co902 O919 2.020 . S
Co902 O921 2.021 . S
Co902 O926 2.062 . S
C903 N905 1.316 . S
C903 N906 1.347 . S
C903 H908 0.931 . S
C904 N905 1.375 . S
C904 C907 1.350 . S
C904 H909 0.930 . S
N905 Co900 2.057 . S
N905 C903 1.316 . S
N905 C904 1.375 . S
N906 C903 1.347 . S
N906 C907 1.373 . S
C907 C904 1.350 . S
C907 N906 1.373 . S
C907 H928 0.931 . S
H908 C903 0.931 . S
H909 C904 0.930 . S
C910 O917 1.259 . S
C910 O918 1.258 . S
N911 Co902 2.057 . S
N911 C912 1.316 . S
N911 C913 1.375 . S
C912 N911 1.316 . S
C912 N914 1.347 . S
C912 H923 0.931 . S
C913 N911 1.375 . S
C913 C915 1.350 . S
C913 H922 0.930 . S
N914 C912 1.347 . S
N914 C915 1.373 . S
C915 C913 1.350 . S
C915 N914 1.373 . S
C915 H929 0.931 . S
C916 O919 1.256 . S
C916 O920 1.255 . S
O917 Co900 2.021 . S
O917 C910 1.259 . S
O918 Co902 2.117 . S
O918 C910 1.258 . S
O919 Co902 2.020 . S
O919 C916 1.256 . S
O920 Co900 2.062 . S
O920 C916 1.255 . S
O921 C901 1.259 . S
O921 Co902 2.021 . S
H922 C913 0.930 . S
H923 C912 0.931 . S
O924 Co900 2.117 . S
O924 C901 1.258 . S
O925 Co900 2.020 . S
O925 C927 1.256 . S
O926 Co902 2.062 . S
O926 C927 1.255 . S
C927 O925 1.256 . S
C927 O926 1.255 . S
H928 C907 0.931 . S
H929 C915 0.931 . S
Co930 N935 2.057 . S
Co930 O947 2.021 . S
Co930 O950 2.062 . S
Co930 O954 2.117 . S
Co930 O955 2.020 . S
C931 O951 1.259 . S
C931 O954 1.258 . S
Co932 N941 2.057 . S
Co932 O948 2.117 . S
Co932 O949 2.020 . S
Co932 O951 2.021 . S
Co932 O956 2.062 . S
C933 N935 1.316 . S
C933 N936 1.347 . S
C933 H938 0.931 . S
C934 N935 1.375 . S
C934 C937 1.350 . S
C934 H939 0.930 . S
N935 Co930 2.057 . S
N935 C933 1.316 . S
N935 C934 1.375 . S
N936 C933 1.347 . S
N936 C937 1.373 . S
C937 C934 1.350 . S
C937 N936 1.373 . S
C937 H958 0.931 . S
H938 C933 0.931 . S
H939 C934 0.930 . S
C940 O947 1.259 . S
C940 O948 1.258 . S
N941 Co932 2.057 . S
N941 C942 1.316 . S
N941 C943 1.375 . S
C942 N941 1.316 . S
C942 N944 1.347 . S
C942 H953 0.931 . S
C943 N941 1.375 . S
C943 C945 1.350 . S
C943 H952 0.930 . S
N944 C942 1.347 . S
N944 C945 1.373 . S
C945 C943 1.350 . S
C945 N944 1.373 . S
C945 H959 0.931 . S
C946 O949 1.256 . S
C946 O950 1.255 . S
O947 Co930 2.021 . S
O947 C940 1.259 . S
O948 Co932 2.117 . S
O948 C940 1.258 . S
O949 Co932 2.020 . S
O949 C946 1.256 . S
O950 Co930 2.062 . S
O950 C946 1.255 . S
O951 C931 1.259 . S
O951 Co932 2.021 . S
H952 C943 0.930 . S
H953 C942 0.931 . S
O954 Co930 2.117 . S
O954 C931 1.258 . S
O955 Co930 2.020 . S
O955 C957 1.256 . S
O956 Co932 2.062 . S
O956 C957 1.255 . S
C957 O955 1.256 . S
C957 O956 1.255 . S
H958 C937 0.931 . S
H959 C945 0.931 . S
H960 C966 0.930 . S
H961 C970 0.930 . S
H962 C975 0.929 . S
H963 C973 0.929 . S
H964 C968 0.929 . S
H965 C974 0.929 . S
C966 H960 0.930 . S
C966 C967 1.367 . S
C966 C974 1.378 . S
C967 C966 1.367 . S
C967 C975 1.433 . S
C968 H964 0.929 . S
C968 C970 1.378 . S
C968 C972 1.350 . S
C969 C972 1.463 . S
C969 C974 1.350 . S
C969 N977 1.427 . S
C970 H961 0.930 . S
C970 C968 1.378 . S
C970 C971 1.367 . S
C971 C970 1.367 . S
C971 C973 1.433 . S
C972 C968 1.350 . S
C972 C969 1.463 . S
C972 N976 1.427 . S
C973 H963 0.929 . S
C973 C971 1.433 . S
C973 N976 1.384 . S
C974 H965 0.929 . S
C974 C966 1.378 . S
C974 C969 1.350 . S
C975 H962 0.929 . S
C975 C967 1.433 . S
C975 N977 1.384 . S
N976 C972 1.427 . S
N976 C973 1.384 . S
N977 C969 1.427 . S
N977 C975 1.384 . S
H978 C984 0.930 . S
H979 C988 0.930 . S
H980 C993 0.929 . S
H981 C991 0.929 . S
H982 C986 0.929 . S
H983 C992 0.929 . S
C984 H978 0.930 . S
C984 C985 1.367 . S
C984 C992 1.378 . S
C985 C984 1.367 . S
C985 C993 1.433 . S
C986 H982 0.929 . S
C986 C988 1.378 . S
C986 C990 1.350 . S
C987 C990 1.463 . S
C987 C992 1.350 . S
C987 N995 1.427 . S
C988 H979 0.930 . S
C988 C986 1.378 . S
C988 C989 1.367 . S
C989 C988 1.367 . S
C989 C991 1.433 . S
C990 C986 1.350 . S
C990 C987 1.463 . S
C990 N994 1.427 . S
C991 H981 0.929 . S
C991 C989 1.433 . S
C991 N994 1.384 . S
C992 H983 0.929 . S
C992 C984 1.378 . S
C992 C987 1.350 . S
C993 H980 0.929 . S
C993 C985 1.433 . S
C993 N995 1.384 . S
N994 C990 1.427 . S
N994 C991 1.384 . S
N995 C987 1.427 . S
N995 C993 1.384 . S
H996 C1002 0.930 . S
H997 C1006 0.930 . S
H998 C1011 0.929 . S
H999 C1009 0.929 . S
H1000 C1004 0.929 . S
H1001 C1010 0.929 . S
C1002 H996 0.930 . S
C1002 C1003 1.367 . S
C1002 C1010 1.378 . S
C1003 C1002 1.367 . S
C1003 C1011 1.433 . S
C1004 H1000 0.929 . S
C1004 C1006 1.378 . S
C1004 C1008 1.350 . S
C1005 C1008 1.463 . S
C1005 C1010 1.350 . S
C1005 N1013 1.427 . S
C1006 H997 0.930 . S
C1006 C1004 1.378 . S
C1006 C1007 1.367 . S
C1007 C1006 1.367 . S
C1007 C1009 1.433 . S
C1008 C1004 1.350 . S
C1008 C1005 1.463 . S
C1008 N1012 1.427 . S
C1009 H999 0.929 . S
C1009 C1007 1.433 . S
C1009 N1012 1.384 . S
C1010 H1001 0.929 . S
C1010 C1002 1.378 . S
C1010 C1005 1.350 . S
C1011 H998 0.929 . S
C1011 C1003 1.433 . S
C1011 N1013 1.384 . S
N1012 C1008 1.427 . S
N1012 C1009 1.384 . S
N1013 C1005 1.427 . S
N1013 C1011 1.384 . S
H1014 C1020 0.930 . S
H1015 C1024 0.930 . S
H1016 C1029 0.929 . S
H1017 C1027 0.929 . S
H1018 C1022 0.929 . S
H1019 C1028 0.929 . S
C1020 H1014 0.930 . S
C1020 C1021 1.367 . S
C1020 C1028 1.378 . S
C1021 C1020 1.367 . S
C1021 C1029 1.433 . S
C1022 H1018 0.929 . S
C1022 C1024 1.378 . S
C1022 C1026 1.350 . S
C1023 C1026 1.463 . S
C1023 C1028 1.350 . S
C1023 N1031 1.427 . S
C1024 H1015 0.930 . S
C1024 C1022 1.378 . S
C1024 C1025 1.367 . S
C1025 C1024 1.367 . S
C1025 C1027 1.433 . S
C1026 C1022 1.350 . S
C1026 C1023 1.463 . S
C1026 N1030 1.427 . S
C1027 H1017 0.929 . S
C1027 C1025 1.433 . S
C1027 N1030 1.384 . S
C1028 H1019 0.929 . S
C1028 C1020 1.378 . S
C1028 C1023 1.350 . S
C1029 H1016 0.929 . S
C1029 C1021 1.433 . S
C1029 N1031 1.384 . S
N1030 C1026 1.427 . S
N1030 C1027 1.384 . S
N1031 C1023 1.427 . S
N1031 C1029 1.384 . S
H1032 C1038 0.930 . S
H1033 C1042 0.930 . S
H1034 C1047 0.929 . S
H1035 C1045 0.929 . S
H1036 C1040 0.929 . S
H1037 C1046 0.929 . S
C1038 H1032 0.930 . S
C1038 C1039 1.367 . S
C1038 C1046 1.378 . S
C1039 C1038 1.367 . S
C1039 C1047 1.433 . S
C1040 H1036 0.929 . S
C1040 C1042 1.378 . S
C1040 C1044 1.350 . S
C1041 C1044 1.463 . S
C1041 C1046 1.350 . S
C1041 N1049 1.427 . S
C1042 H1033 0.930 . S
C1042 C1040 1.378 . S
C1042 C1043 1.367 . S
C1043 C1042 1.367 . S
C1043 C1045 1.433 . S
C1044 C1040 1.350 . S
C1044 C1041 1.463 . S
C1044 N1048 1.427 . S
C1045 H1035 0.929 . S
C1045 C1043 1.433 . S
C1045 N1048 1.384 . S
C1046 H1037 0.929 . S
C1046 C1038 1.378 . S
C1046 C1041 1.350 . S
C1047 H1034 0.929 . S
C1047 C1039 1.433 . S
C1047 N1049 1.384 . S
N1048 C1044 1.427 . S
N1048 C1045 1.384 . S
N1049 C1041 1.427 . S
N1049 C1047 1.384 . S
H1050 C1056 0.930 . S
H1051 C1060 0.930 . S
H1052 C1065 0.929 . S
H1053 C1063 0.929 . S
H1054 C1058 0.929 . S
H1055 C1064 0.929 . S
C1056 H1050 0.930 . S
C1056 C1057 1.367 . S
C1056 C1064 1.378 . S
C1057 C1056 1.367 . S
C1057 C1065 1.433 . S
C1058 H1054 0.929 . S
C1058 C1060 1.378 . S
C1058 C1062 1.350 . S
C1059 C1062 1.463 . S
C1059 C1064 1.350 . S
C1059 N1067 1.427 . S
C1060 H1051 0.930 . S
C1060 C1058 1.378 . S
C1060 C1061 1.367 . S
C1061 C1060 1.367 . S
C1061 C1063 1.433 . S
C1062 C1058 1.350 . S
C1062 C1059 1.463 . S
C1062 N1066 1.427 . S
C1063 H1053 0.929 . S
C1063 C1061 1.433 . S
C1063 N1066 1.384 . S
C1064 H1055 0.929 . S
C1064 C1056 1.378 . S
C1064 C1059 1.350 . S
C1065 H1052 0.929 . S
C1065 C1057 1.433 . S
C1065 N1067 1.384 . S
N1066 C1062 1.427 . S
N1066 C1063 1.384 . S
N1067 C1059 1.427 . S
N1067 C1065 1.384 . S
H1068 C1074 0.930 . S
H1069 C1078 0.930 . S
H1070 C1083 0.929 . S
H1071 C1081 0.929 . S
H1072 C1076 0.929 . S
H1073 C1082 0.929 . S
C1074 H1068 0.930 . S
C1074 C1075 1.367 . S
C1074 C1082 1.378 . S
C1075 C1074 1.367 . S
C1075 C1083 1.433 . S
C1076 H1072 0.929 . S
C1076 C1078 1.378 . S
C1076 C1080 1.350 . S
C1077 C1080 1.463 . S
C1077 C1082 1.350 . S
C1077 N1085 1.427 . S
C1078 H1069 0.930 . S
C1078 C1076 1.378 . S
C1078 C1079 1.367 . S
C1079 C1078 1.367 . S
C1079 C1081 1.433 . S
C1080 C1076 1.350 . S
C1080 C1077 1.463 . S
C1080 N1084 1.427 . S
C1081 H1071 0.929 . S
C1081 C1079 1.433 . S
C1081 N1084 1.384 . S
C1082 H1073 0.929 . S
C1082 C1074 1.378 . S
C1082 C1077 1.350 . S
C1083 H1070 0.929 . S
C1083 C1075 1.433 . S
C1083 N1085 1.384 . S
N1084 C1080 1.427 . S
N1084 C1081 1.384 . S
N1085 C1077 1.427 . S
N1085 C1083 1.384 . S
H1086 C1092 0.930 . S
H1087 C1096 0.930 . S
H1088 C1101 0.929 . S
H1089 C1099 0.929 . S
H1090 C1094 0.929 . S
H1091 C1100 0.929 . S
C1092 H1086 0.930 . S
C1092 C1093 1.367 . S
C1092 C1100 1.378 . S
C1093 C1092 1.367 . S
C1093 C1101 1.433 . S
C1094 H1090 0.929 . S
C1094 C1096 1.378 . S
C1094 C1098 1.350 . S
C1095 C1098 1.463 . S
C1095 C1100 1.350 . S
C1095 N1103 1.427 . S
C1096 H1087 0.930 . S
C1096 C1094 1.378 . S
C1096 C1097 1.367 . S
C1097 C1096 1.367 . S
C1097 C1099 1.433 . S
C1098 C1094 1.350 . S
C1098 C1095 1.463 . S
C1098 N1102 1.427 . S
C1099 H1089 0.929 . S
C1099 C1097 1.433 . S
C1099 N1102 1.384 . S
C1100 H1091 0.929 . S
C1100 C1092 1.378 . S
C1100 C1095 1.350 . S
C1101 H1088 0.929 . S
C1101 C1093 1.433 . S
C1101 N1103 1.384 . S
N1102 C1098 1.427 . S
N1102 C1099 1.384 . S
N1103 C1095 1.427 . S
N1103 C1101 1.384 . S
H1104 C1110 0.930 . S
H1105 C1114 0.930 . S
H1106 C1119 0.929 . S
H1107 C1117 0.929 . S
H1108 C1112 0.929 . S
H1109 C1118 0.929 . S
C1110 H1104 0.930 . S
C1110 C1111 1.367 . S
C1110 C1118 1.378 . S
C1111 C1110 1.367 . S
C1111 C1119 1.433 . S
C1112 H1108 0.929 . S
C1112 C1114 1.378 . S
C1112 C1116 1.350 . S
C1113 C1116 1.463 . S
C1113 C1118 1.350 . S
C1113 N1121 1.427 . S
C1114 H1105 0.930 . S
C1114 C1112 1.378 . S
C1114 C1115 1.367 . S
C1115 C1114 1.367 . S
C1115 C1117 1.433 . S
C1116 C1112 1.350 . S
C1116 C1113 1.463 . S
C1116 N1120 1.427 . S
C1117 H1107 0.929 . S
C1117 C1115 1.433 . S
C1117 N1120 1.384 . S
C1118 H1109 0.929 . S
C1118 C1110 1.378 . S
C1118 C1113 1.350 . S
C1119 H1106 0.929 . S
C1119 C1111 1.433 . S
C1119 N1121 1.384 . S
N1120 C1116 1.427 . S
N1120 C1117 1.384 . S
N1121 C1113 1.427 . S
N1121 C1119 1.384 . S
H1122 C1128 0.930 . S
H1123 C1132 0.930 . S
H1124 C1137 0.929 . S
H1125 C1135 0.929 . S
H1126 C1130 0.929 . S
H1127 C1136 0.929 . S
C1128 H1122 0.930 . S
C1128 C1129 1.367 . S
C1128 C1136 1.378 . S
C1129 C1128 1.367 . S
C1129 C1137 1.433 . S
C1130 H1126 0.929 . S
C1130 C1132 1.378 . S
C1130 C1134 1.350 . S
C1131 C1134 1.463 . S
C1131 C1136 1.350 . S
C1131 N1139 1.427 . S
C1132 H1123 0.930 . S
C1132 C1130 1.378 . S
C1132 C1133 1.367 . S
C1133 C1132 1.367 . S
C1133 C1135 1.433 . S
C1134 C1130 1.350 . S
C1134 C1131 1.463 . S
C1134 N1138 1.427 . S
C1135 H1125 0.929 . S
C1135 C1133 1.433 . S
C1135 N1138 1.384 . S
C1136 H1127 0.929 . S
C1136 C1128 1.378 . S
C1136 C1131 1.350 . S
C1137 H1124 0.929 . S
C1137 C1129 1.433 . S
C1137 N1139 1.384 . S
N1138 C1134 1.427 . S
N1138 C1135 1.384 . S
N1139 C1131 1.427 . S
N1139 C1137 1.384 . S
H1140 C1146 0.930 . S
H1141 C1150 0.930 . S
H1142 C1155 0.929 . S
H1143 C1153 0.929 . S
H1144 C1148 0.929 . S
H1145 C1154 0.929 . S
C1146 H1140 0.930 . S
C1146 C1147 1.367 . S
C1146 C1154 1.378 . S
C1147 C1146 1.367 . S
C1147 C1155 1.433 . S
C1148 H1144 0.929 . S
C1148 C1150 1.378 . S
C1148 C1152 1.350 . S
C1149 C1152 1.463 . S
C1149 C1154 1.350 . S
C1149 N1157 1.427 . S
C1150 H1141 0.930 . S
C1150 C1148 1.378 . S
C1150 C1151 1.367 . S
C1151 C1150 1.367 . S
C1151 C1153 1.433 . S
C1152 C1148 1.350 . S
C1152 C1149 1.463 . S
C1152 N1156 1.427 . S
C1153 H1143 0.929 . S
C1153 C1151 1.433 . S
C1153 N1156 1.384 . S
C1154 H1145 0.929 . S
C1154 C1146 1.378 . S
C1154 C1149 1.350 . S
C1155 H1142 0.929 . S
C1155 C1147 1.433 . S
C1155 N1157 1.384 . S
N1156 C1152 1.427 . S
N1156 C1153 1.384 . S
N1157 C1149 1.427 . S
N1157 C1155 1.384 . S
H1158 C1164 0.930 . S
H1159 C1168 0.930 . S
H1160 C1173 0.929 . S
H1161 C1171 0.929 . S
H1162 C1166 0.929 . S
H1163 C1172 0.929 . S
C1164 H1158 0.930 . S
C1164 C1165 1.367 . S
C1164 C1172 1.378 . S
C1165 C1164 1.367 . S
C1165 C1173 1.433 . S
C1166 H1162 0.929 . S
C1166 C1168 1.378 . S
C1166 C1170 1.350 . S
C1167 C1170 1.463 . S
C1167 C1172 1.350 . S
C1167 N1175 1.427 . S
C1168 H1159 0.930 . S
C1168 C1166 1.378 . S
C1168 C1169 1.367 . S
C1169 C1168 1.367 . S
C1169 C1171 1.433 . S
C1170 C1166 1.350 . S
C1170 C1167 1.463 . S
C1170 N1174 1.427 . S
C1171 H1161 0.929 . S
C1171 C1169 1.433 . S
C1171 N1174 1.384 . S
C1172 H1163 0.929 . S
C1172 C1164 1.378 . S
C1172 C1167 1.350 . S
C1173 H1160 0.929 . S
C1173 C1165 1.433 . S
C1173 N1175 1.384 . S
N1174 C1170 1.427 . S
N1174 C1171 1.384 . S
N1175 C1167 1.427 . S
N1175 C1173 1.384 . S
H1176 C1182 0.930 . S
H1177 C1186 0.930 . S
H1178 C1191 0.929 . S
H1179 C1189 0.929 . S
H1180 C1184 0.929 . S
H1181 C1190 0.929 . S
C1182 H1176 0.930 . S
C1182 C1183 1.367 . S
C1182 C1190 1.378 . S
C1183 C1182 1.367 . S
C1183 C1191 1.433 . S
C1184 H1180 0.929 . S
C1184 C1186 1.378 . S
C1184 C1188 1.350 . S
C1185 C1188 1.463 . S
C1185 C1190 1.350 . S
C1185 N1193 1.427 . S
C1186 H1177 0.930 . S
C1186 C1184 1.378 . S
C1186 C1187 1.367 . S
C1187 C1186 1.367 . S
C1187 C1189 1.433 . S
C1188 C1184 1.350 . S
C1188 C1185 1.463 . S
C1188 N1192 1.427 . S
C1189 H1179 0.929 . S
C1189 C1187 1.433 . S
C1189 N1192 1.384 . S
C1190 H1181 0.929 . S
C1190 C1182 1.378 . S
C1190 C1185 1.350 . S
C1191 H1178 0.929 . S
C1191 C1183 1.433 . S
C1191 N1193 1.384 . S
N1192 C1188 1.427 . S
N1192 C1189 1.384 . S
N1193 C1185 1.427 . S
N1193 C1191 1.384 . S
H1194 C1200 0.930 . S
H1195 C1204 0.930 . S
H1196 C1209 0.929 . S
H1197 C1207 0.929 . S
H1198 C1202 0.929 . S
H1199 C1208 0.929 . S
C1200 H1194 0.930 . S
C1200 C1201 1.367 . S
C1200 C1208 1.378 . S
C1201 C1200 1.367 . S
C1201 C1209 1.433 . S
C1202 H1198 0.929 . S
C1202 C1204 1.378 . S
C1202 C1206 1.350 . S
C1203 C1206 1.463 . S
C1203 C1208 1.350 . S
C1203 N1211 1.427 . S
C1204 H1195 0.930 . S
C1204 C1202 1.378 . S
C1204 C1205 1.367 . S
C1205 C1204 1.367 . S
C1205 C1207 1.433 . S
C1206 C1202 1.350 . S
C1206 C1203 1.463 . S
C1206 N1210 1.427 . S
C1207 H1197 0.929 . S
C1207 C1205 1.433 . S
C1207 N1210 1.384 . S
C1208 H1199 0.929 . S
C1208 C1200 1.378 . S
C1208 C1203 1.350 . S
C1209 H1196 0.929 . S
C1209 C1201 1.433 . S
C1209 N1211 1.384 . S
N1210 C1206 1.427 . S
N1210 C1207 1.384 . S
N1211 C1203 1.427 . S
N1211 C1209 1.384 . S
H1212 C1218 0.930 . S
H1213 C1222 0.930 . S
H1214 C1227 0.929 . S
H1215 C1225 0.929 . S
H1216 C1220 0.929 . S
H1217 C1226 0.929 . S
C1218 H1212 0.930 . S
C1218 C1219 1.367 . S
C1218 C1226 1.378 . S
C1219 C1218 1.367 . S
C1219 C1227 1.433 . S
C1220 H1216 0.929 . S
C1220 C1222 1.378 . S
C1220 C1224 1.350 . S
C1221 C1224 1.463 . S
C1221 C1226 1.350 . S
C1221 N1229 1.427 . S
C1222 H1213 0.930 . S
C1222 C1220 1.378 . S
C1222 C1223 1.367 . S
C1223 C1222 1.367 . S
C1223 C1225 1.433 . S
C1224 C1220 1.350 . S
C1224 C1221 1.463 . S
C1224 N1228 1.427 . S
C1225 H1215 0.929 . S
C1225 C1223 1.433 . S
C1225 N1228 1.384 . S
C1226 H1217 0.929 . S
C1226 C1218 1.378 . S
C1226 C1221 1.350 . S
C1227 H1214 0.929 . S
C1227 C1219 1.433 . S
C1227 N1229 1.384 . S
N1228 C1224 1.427 . S
N1228 C1225 1.384 . S
N1229 C1221 1.427 . S
N1229 C1227 1.384 . S
H1230 C1236 0.930 . S
H1231 C1240 0.930 . S
H1232 C1245 0.929 . S
H1233 C1243 0.929 . S
H1234 C1238 0.929 . S
H1235 C1244 0.929 . S
C1236 H1230 0.930 . S
C1236 C1237 1.367 . S
C1236 C1244 1.378 . S
C1237 C1236 1.367 . S
C1237 C1245 1.433 . S
C1238 H1234 0.929 . S
C1238 C1240 1.378 . S
C1238 C1242 1.350 . S
C1239 C1242 1.463 . S
C1239 C1244 1.350 . S
C1239 N1247 1.427 . S
C1240 H1231 0.930 . S
C1240 C1238 1.378 . S
C1240 C1241 1.367 . S
C1241 C1240 1.367 . S
C1241 C1243 1.433 . S
C1242 C1238 1.350 . S
C1242 C1239 1.463 . S
C1242 N1246 1.427 . S
C1243 H1233 0.929 . S
C1243 C1241 1.433 . S
C1243 N1246 1.384 . S
C1244 H1235 0.929 . S
C1244 C1236 1.378 . S
C1244 C1239 1.350 . S
C1245 H1232 0.929 . S
C1245 C1237 1.433 . S
C1245 N1247 1.384 . S
N1246 C1242 1.427 . S
N1246 C1243 1.384 . S
N1247 C1239 1.427 . S
N1247 C1245 1.384 . S
H1248 C1254 0.930 . S
H1249 C1258 0.930 . S
H1250 C1263 0.929 . S
H1251 C1261 0.929 . S
H1252 C1256 0.929 . S
H1253 C1262 0.929 . S
C1254 H1248 0.930 . S
C1254 C1255 1.367 . S
C1254 C1262 1.378 . S
C1255 C1254 1.367 . S
C1255 C1263 1.433 1_565 S
C1256 H1252 0.929 . S
C1256 C1258 1.378 . S
C1256 C1260 1.388 . S
C1257 C1260 1.459 1_565 S
C1257 C1262 1.388 . S
C1257 N1265 1.390 1_565 S
C1258 H1249 0.930 . S
C1258 C1256 1.378 . S
C1258 C1259 1.367 . S
C1259 C1258 1.367 . S
C1259 C1261 1.433 1_545 S
C1260 C1256 1.388 . S
C1260 C1257 1.459 1_545 S
C1260 N1264 1.390 1_545 S
C1261 H1251 0.929 . S
C1261 C1259 1.433 1_565 S
C1261 N1264 1.384 . S
C1262 H1253 0.929 . S
C1262 C1254 1.378 . S
C1262 C1257 1.388 . S
C1263 H1250 0.929 . S
C1263 C1255 1.433 1_545 S
C1263 N1265 1.384 . S
N1264 C1260 1.390 1_565 S
N1264 C1261 1.384 . S
N1265 C1257 1.390 1_545 S
N1265 C1263 1.384 . S
H1266 C1272 0.930 . S
H1267 C1276 0.930 . S
H1268 C1281 0.929 . S
H1269 C1279 0.929 . S
H1270 C1274 0.929 . S
H1271 C1280 0.929 . S
C1272 H1266 0.930 . S
C1272 C1273 1.367 . S
C1272 C1280 1.378 . S
C1273 C1272 1.367 . S
C1273 C1281 1.433 . S
C1274 H1270 0.929 . S
C1274 C1276 1.378 . S
C1274 C1278 1.350 . S
C1275 C1278 1.463 1_455 S
C1275 C1280 1.350 . S
C1275 N1283 1.427 . S
C1276 H1267 0.930 . S
C1276 C1274 1.378 . S
C1276 C1277 1.367 . S
C1277 C1276 1.367 . S
C1277 C1279 1.433 . S
C1278 C1274 1.350 . S
C1278 C1275 1.463 1_655 S
C1278 N1282 1.427 . S
C1279 H1269 0.929 . S
C1279 C1277 1.433 . S
C1279 N1282 1.384 . S
C1280 H1271 0.929 . S
C1280 C1272 1.378 . S
C1280 C1275 1.350 . S
C1281 H1268 0.929 . S
C1281 C1273 1.433 . S
C1281 N1283 1.384 . S
N1282 C1278 1.427 . S
N1282 C1279 1.384 . S
N1283 C1275 1.427 . S
N1283 C1281 1.384 . S
H1284 C1290 0.930 . S
H1285 C1294 0.930 . S
H1286 C1299 0.929 . S
H1287 C1297 0.929 . S
H1288 C1292 0.929 . S
H1289 C1298 0.929 . S
C1290 H1284 0.930 . S
C1290 C1291 1.367 . S
C1290 C1298 1.378 . S
C1291 C1290 1.367 . S
C1291 C1299 1.433 . S
C1292 H1288 0.929 . S
C1292 C1294 1.378 . S
C1292 C1296 1.350 . S
C1293 C1296 1.463 1_556 S
C1293 C1298 1.350 . S
C1293 N1301 1.427 . S
C1294 H1285 0.930 . S
C1294 C1292 1.378 . S
C1294 C1295 1.367 . S
C1295 C1294 1.367 . S
C1295 C1297 1.433 . S
C1296 C1292 1.350 . S
C1296 C1293 1.463 1_554 S
C1296 N1300 1.427 . S
C1297 H1287 0.929 . S
C1297 C1295 1.433 . S
C1297 N1300 1.384 . S
C1298 H1289 0.929 . S
C1298 C1290 1.378 . S
C1298 C1293 1.350 . S
C1299 H1286 0.929 . S
C1299 C1291 1.433 . S
C1299 N1301 1.384 . S
N1300 C1296 1.427 . S
N1300 C1297 1.384 . S
N1301 C1293 1.427 . S
N1301 C1299 1.384 . S
H1302 C1308 0.930 . S
H1303 C1312 0.930 . S
H1304 C1317 0.929 . S
H1305 C1315 0.929 . S
H1306 C1310 0.929 1_554 S
H1307 C1316 0.929 1_556 S
C1308 H1302 0.930 . S
C1308 C1309 1.367 . S
C1308 C1316 1.378 . S
C1309 C1308 1.367 . S
C1309 C1317 1.433 1_565 S
C1310 H1306 0.929 1_556 S
C1310 C1312 1.378 . S
C1310 C1314 1.380 . S
C1311 C1314 1.459 1_664 S
C1311 C1316 1.380 . S
C1311 N1319 1.398 1_565 S
C1312 H1303 0.930 . S
C1312 C1310 1.378 . S
C1312 C1313 1.367 . S
C1313 C1312 1.367 . S
C1313 C1315 1.433 1_545 S
C1314 C1310 1.380 . S
C1314 C1311 1.459 1_446 S
C1314 N1318 1.398 1_545 S
C1315 H1305 0.929 . S
C1315 C1313 1.433 1_565 S
C1315 N1318 1.384 . S
C1316 H1307 0.929 1_554 S
C1316 C1308 1.378 . S
C1316 C1311 1.380 . S
C1317 H1304 0.929 . S
C1317 C1309 1.433 1_545 S
C1317 N1319 1.384 . S
N1318 C1314 1.398 1_565 S
N1318 C1315 1.384 . S
N1319 C1311 1.398 1_545 S
N1319 C1317 1.384 . S
H1320 C1326 0.930 . S
H1321 C1330 0.930 . S
H1322 C1335 0.929 . S
H1323 C1333 0.929 . S
H1324 C1328 0.929 . S
H1325 C1334 0.929 . S
C1326 H1320 0.930 . S
C1326 C1327 1.367 1_565 S
C1326 C1334 1.378 . S
C1327 C1326 1.367 1_545 S
C1327 C1335 1.433 . S
C1328 H1324 0.929 . S
C1328 C1330 1.378 . S
C1328 C1332 1.351 . S
C1329 C1332 1.462 1_565 S
C1329 C1334 1.351 . S
C1329 N1337 1.426 1_565 S
C1330 H1321 0.930 . S
C1330 C1328 1.378 . S
C1330 C1331 1.367 1_545 S
C1331 C1330 1.367 1_565 S
C1331 C1333 1.433 . S
C1332 C1328 1.351 . S
C1332 C1329 1.462 1_545 S
C1332 N1336 1.426 1_545 S
C1333 H1323 0.929 . S
C1333 C1331 1.433 . S
C1333 N1336 1.384 . S
C1334 H1325 0.929 . S
C1334 C1326 1.378 . S
C1334 C1329 1.351 . S
C1335 H1322 0.929 . S
C1335 C1327 1.433 . S
C1335 N1337 1.384 . S
N1336 C1332 1.426 1_565 S
N1336 C1333 1.384 . S
N1337 C1329 1.426 1_545 S
N1337 C1335 1.384 . S
H1338 C1344 0.930 . S
H1339 C1348 0.930 . S
H1340 C1353 0.929 . S
H1341 C1351 0.929 . S
H1342 C1346 0.929 . S
H1343 C1352 0.929 . S
C1344 H1338 0.930 . S
C1344 C1345 1.367 . S
C1344 C1352 1.378 . S
C1345 C1344 1.367 . S
C1345 C1353 1.433 . S
C1346 H1342 0.929 . S
C1346 C1348 1.378 . S
C1346 C1350 1.350 . S
C1347 C1350 1.463 1_455 S
C1347 C1352 1.350 . S
C1347 N1355 1.427 . S
C1348 H1339 0.930 . S
C1348 C1346 1.378 . S
C1348 C1349 1.367 . S
C1349 C1348 1.367 . S
C1349 C1351 1.433 . S
C1350 C1346 1.350 . S
C1350 C1347 1.463 1_655 S
C1350 N1354 1.427 . S
C1351 H1341 0.929 . S
C1351 C1349 1.433 . S
C1351 N1354 1.384 . S
C1352 H1343 0.929 . S
C1352 C1344 1.378 . S
C1352 C1347 1.350 . S
C1353 H1340 0.929 . S
C1353 C1345 1.433 . S
C1353 N1355 1.384 . S
N1354 C1350 1.427 . S
N1354 C1351 1.384 . S
N1355 C1347 1.427 . S
N1355 C1353 1.384 . S
H1356 C1362 0.930 . S
H1357 C1366 0.930 . S
H1358 C1371 0.929 . S
H1359 C1369 0.929 . S
H1360 C1364 0.929 . S
H1361 C1370 0.929 . S
C1362 H1356 0.930 . S
C1362 C1363 1.367 . S
C1362 C1370 1.378 . S
C1363 C1362 1.367 . S
C1363 C1371 1.433 . S
C1364 H1360 0.929 . S
C1364 C1366 1.378 . S
C1364 C1368 1.350 . S
C1365 C1368 1.463 1_556 S
C1365 C1370 1.350 . S
C1365 N1373 1.427 . S
C1366 H1357 0.930 . S
C1366 C1364 1.378 . S
C1366 C1367 1.367 . S
C1367 C1366 1.367 . S
C1367 C1369 1.433 . S
C1368 C1364 1.350 . S
C1368 C1365 1.463 1_554 S
C1368 N1372 1.427 . S
C1369 H1359 0.929 . S
C1369 C1367 1.433 . S
C1369 N1372 1.384 . S
C1370 H1361 0.929 . S
C1370 C1362 1.378 . S
C1370 C1365 1.350 . S
C1371 H1358 0.929 . S
C1371 C1363 1.433 . S
C1371 N1373 1.384 . S
N1372 C1368 1.427 . S
N1372 C1369 1.384 . S
N1373 C1365 1.427 . S
N1373 C1371 1.384 . S
H1374 C1380 0.930 . S
H1375 C1384 0.930 . S
H1376 C1389 0.929 . S
H1377 C1387 0.929 . S
H1378 C1382 0.929 . S
H1379 C1388 0.929 . S
C1380 H1374 0.930 . S
C1380 C1381 1.367 . S
C1380 C1388 1.378 . S
C1381 C1380 1.367 . S
C1381 C1389 1.433 . S
C1382 H1378 0.929 . S
C1382 C1384 1.378 . S
C1382 C1386 1.350 . S
C1383 C1386 1.463 . S
C1383 C1388 1.350 . S
C1383 N1391 1.427 . S
C1384 H1375 0.930 . S
C1384 C1382 1.378 . S
C1384 C1385 1.367 . S
C1385 C1384 1.367 . S
C1385 C1387 1.433 . S
C1386 C1382 1.350 . S
C1386 C1383 1.463 . S
C1386 N1390 1.427 . S
C1387 H1377 0.929 . S
C1387 C1385 1.433 . S
C1387 N1390 1.384 . S
C1388 H1379 0.929 . S
C1388 C1380 1.378 . S
C1388 C1383 1.350 . S
C1389 H1376 0.929 . S
C1389 C1381 1.433 . S
C1389 N1391 1.384 . S
N1390 C1386 1.427 . S
N1390 C1387 1.384 . S
N1391 C1383 1.427 . S
N1391 C1389 1.384 . S
H1392 C1398 0.930 . S
H1393 C1402 0.930 . S
H1394 C1407 0.929 . S
H1395 C1405 0.929 . S
H1396 C1400 0.929 . S
H1397 C1406 0.929 . S
C1398 H1392 0.930 . S
C1398 C1399 1.367 . S
C1398 C1406 1.378 . S
C1399 C1398 1.367 . S
C1399 C1407 1.433 . S
C1400 H1396 0.929 . S
C1400 C1402 1.378 . S
C1400 C1404 1.350 . S
C1401 C1404 1.463 . S
C1401 C1406 1.350 . S
C1401 N1409 1.427 . S
C1402 H1393 0.930 . S
C1402 C1400 1.378 . S
C1402 C1403 1.367 . S
C1403 C1402 1.367 . S
C1403 C1405 1.433 . S
C1404 C1400 1.350 . S
C1404 C1401 1.463 . S
C1404 N1408 1.427 . S
C1405 H1395 0.929 . S
C1405 C1403 1.433 . S
C1405 N1408 1.384 . S
C1406 H1397 0.929 . S
C1406 C1398 1.378 . S
C1406 C1401 1.350 . S
C1407 H1394 0.929 . S
C1407 C1399 1.433 . S
C1407 N1409 1.384 . S
N1408 C1404 1.427 . S
N1408 C1405 1.384 . S
N1409 C1401 1.427 . S
N1409 C1407 1.384 . S
H1410 C1416 0.930 . S
H1411 C1420 0.930 . S
H1412 C1425 0.929 . S
H1413 C1423 0.929 . S
H1414 C1418 0.929 . S
H1415 C1424 0.929 . S
C1416 H1410 0.930 . S
C1416 C1417 1.367 . S
C1416 C1424 1.378 . S
C1417 C1416 1.367 . S
C1417 C1425 1.433 . S
C1418 H1414 0.929 . S
C1418 C1420 1.378 . S
C1418 C1422 1.350 . S
C1419 C1422 1.463 1_455 S
C1419 C1424 1.350 . S
C1419 N1427 1.427 . S
C1420 H1411 0.930 . S
C1420 C1418 1.378 . S
C1420 C1421 1.367 . S
C1421 C1420 1.367 . S
C1421 C1423 1.433 . S
C1422 C1418 1.350 . S
C1422 C1419 1.463 1_655 S
C1422 N1426 1.427 . S
C1423 H1413 0.929 . S
C1423 C1421 1.433 . S
C1423 N1426 1.384 . S
C1424 H1415 0.929 . S
C1424 C1416 1.378 . S
C1424 C1419 1.350 . S
C1425 H1412 0.929 . S
C1425 C1417 1.433 . S
C1425 N1427 1.384 . S
N1426 C1422 1.427 . S
N1426 C1423 1.384 . S
N1427 C1419 1.427 . S
N1427 C1425 1.384 . S
H1428 C1434 0.930 . S
H1429 C1438 0.930 . S
H1430 C1443 0.929 . S
H1431 C1441 0.929 . S
H1432 C1436 0.929 . S
H1433 C1442 0.929 . S
C1434 H1428 0.930 . S
C1434 C1435 1.367 . S
C1434 C1442 1.378 . S
C1435 C1434 1.367 . S
C1435 C1443 1.433 . S
C1436 H1432 0.929 . S
C1436 C1438 1.378 . S
C1436 C1440 1.350 . S
C1437 C1440 1.463 . S
C1437 C1442 1.350 . S
C1437 N1445 1.427 . S
C1438 H1429 0.930 . S
C1438 C1436 1.378 . S
C1438 C1439 1.367 . S
C1439 C1438 1.367 . S
C1439 C1441 1.433 . S
C1440 C1436 1.350 . S
C1440 C1437 1.463 . S
C1440 N1444 1.427 . S
C1441 H1431 0.929 . S
C1441 C1439 1.433 . S
C1441 N1444 1.384 . S
C1442 H1433 0.929 . S
C1442 C1434 1.378 . S
C1442 C1437 1.350 . S
C1443 H1430 0.929 . S
C1443 C1435 1.433 . S
C1443 N1445 1.384 . S
N1444 C1440 1.427 . S
N1444 C1441 1.384 . S
N1445 C1437 1.427 . S
N1445 C1443 1.384 . S
H1446 C1452 0.930 . S
H1447 C1456 0.930 . S
H1448 C1461 0.929 . S
H1449 C1459 0.929 . S
H1450 C1454 0.929 . S
H1451 C1460 0.929 . S
C1452 H1446 0.930 . S
C1452 C1453 1.367 . S
C1452 C1460 1.378 . S
C1453 C1452 1.367 . S
C1453 C1461 1.433 . S
C1454 H1450 0.929 . S
C1454 C1456 1.378 . S
C1454 C1458 1.350 . S
C1455 C1458 1.463 . S
C1455 C1460 1.350 . S
C1455 N1463 1.427 . S
C1456 H1447 0.930 . S
C1456 C1454 1.378 . S
C1456 C1457 1.367 . S
C1457 C1456 1.367 . S
C1457 C1459 1.433 . S
C1458 C1454 1.350 . S
C1458 C1455 1.463 . S
C1458 N1462 1.427 . S
C1459 H1449 0.929 . S
C1459 C1457 1.433 . S
C1459 N1462 1.384 . S
C1460 H1451 0.929 . S
C1460 C1452 1.378 . S
C1460 C1455 1.350 . S
C1461 H1448 0.929 . S
C1461 C1453 1.433 . S
C1461 N1463 1.384 . S
N1462 C1458 1.427 . S
N1462 C1459 1.384 . S
N1463 C1455 1.427 . S
N1463 C1461 1.384 . S
H1464 C1470 0.930 . S
H1465 C1474 0.930 . S
H1466 C1479 0.929 . S
H1467 C1477 0.929 . S
H1468 C1472 0.929 . S
H1469 C1478 0.929 . S
C1470 H1464 0.930 . S
C1470 C1471 1.367 . S
C1470 C1478 1.378 . S
C1471 C1470 1.367 . S
C1471 C1479 1.433 . S
C1472 H1468 0.929 . S
C1472 C1474 1.378 . S
C1472 C1476 1.350 . S
C1473 C1476 1.463 . S
C1473 C1478 1.350 . S
C1473 N1481 1.427 . S
C1474 H1465 0.930 . S
C1474 C1472 1.378 . S
C1474 C1475 1.367 . S
C1475 C1474 1.367 . S
C1475 C1477 1.433 . S
C1476 C1472 1.350 . S
C1476 C1473 1.463 . S
C1476 N1480 1.427 . S
C1477 H1467 0.929 . S
C1477 C1475 1.433 . S
C1477 N1480 1.384 . S
C1478 H1469 0.929 . S
C1478 C1470 1.378 . S
C1478 C1473 1.350 . S
C1479 H1466 0.929 . S
C1479 C1471 1.433 . S
C1479 N1481 1.384 . S
N1480 C1476 1.427 . S
N1480 C1477 1.384 . S
N1481 C1473 1.427 . S
N1481 C1479 1.384 . S
H1482 C1488 0.930 . S
H1483 C1492 0.930 . S
H1484 C1497 0.929 . S
H1485 C1495 0.929 . S
H1486 C1490 0.929 . S
H1487 C1496 0.929 . S
C1488 H1482 0.930 . S
C1488 C1489 1.367 . S
C1488 C1496 1.378 . S
C1489 C1488 1.367 . S
C1489 C1497 1.433 1_565 S
C1490 H1486 0.929 . S
C1490 C1492 1.378 . S
C1490 C1494 1.385 . S
C1491 C1494 1.459 1_565 S
C1491 C1496 1.385 . S
C1491 N1499 1.394 1_565 S
C1492 H1483 0.930 . S
C1492 C1490 1.378 . S
C1492 C1493 1.367 . S
C1493 C1492 1.367 . S
C1493 C1495 1.433 1_545 S
C1494 C1490 1.385 . S
C1494 C1491 1.459 1_545 S
C1494 N1498 1.394 1_545 S
C1495 H1485 0.929 . S
C1495 C1493 1.433 1_565 S
C1495 N1498 1.384 . S
C1496 H1487 0.929 . S
C1496 C1488 1.378 . S
C1496 C1491 1.385 . S
C1497 H1484 0.929 . S
C1497 C1489 1.433 1_545 S
C1497 N1499 1.384 . S
N1498 C1494 1.394 1_565 S
N1498 C1495 1.384 . S
N1499 C1491 1.394 1_545 S
N1499 C1497 1.384 . S
H1500 C1506 0.930 . S
H1501 C1510 0.930 . S
H1502 C1515 0.929 . S
H1503 C1513 0.929 . S
H1504 C1508 0.929 . S
H1505 C1514 0.929 . S
C1506 H1500 0.930 . S
C1506 C1507 1.367 . S
C1506 C1514 1.378 . S
C1507 C1506 1.367 . S
C1507 C1515 1.433 . S
C1508 H1504 0.929 . S
C1508 C1510 1.378 . S
C1508 C1512 1.350 . S
C1509 C1512 1.463 . S
C1509 C1514 1.350 . S
C1509 N1517 1.427 . S
C1510 H1501 0.930 . S
C1510 C1508 1.378 . S
C1510 C1511 1.367 . S
C1511 C1510 1.367 . S
C1511 C1513 1.433 . S
C1512 C1508 1.350 . S
C1512 C1509 1.463 . S
C1512 N1516 1.427 . S
C1513 H1503 0.929 . S
C1513 C1511 1.433 . S
C1513 N1516 1.384 . S
C1514 H1505 0.929 . S
C1514 C1506 1.378 . S
C1514 C1509 1.350 . S
C1515 H1502 0.929 . S
C1515 C1507 1.433 . S
C1515 N1517 1.384 . S
N1516 C1512 1.427 . S
N1516 C1513 1.384 . S
N1517 C1509 1.427 . S
N1517 C1515 1.384 . S
H1518 C1524 0.930 . S
H1519 C1528 0.930 . S
H1520 C1533 0.929 . S
H1521 C1531 0.929 . S
H1522 C1526 0.929 . S
H1523 C1532 0.929 . S
C1524 H1518 0.930 . S
C1524 C1525 1.367 . S
C1524 C1532 1.378 . S
C1525 C1524 1.367 . S
C1525 C1533 1.433 . S
C1526 H1522 0.929 . S
C1526 C1528 1.378 . S
C1526 C1530 1.350 . S
C1527 C1530 1.463 1_554 S
C1527 C1532 1.350 . S
C1527 N1535 1.427 . S
C1528 H1519 0.930 . S
C1528 C1526 1.378 . S
C1528 C1529 1.367 . S
C1529 C1528 1.367 . S
C1529 C1531 1.433 . S
C1530 C1526 1.350 . S
C1530 C1527 1.463 1_556 S
C1530 N1534 1.427 . S
C1531 H1521 0.929 . S
C1531 C1529 1.433 . S
C1531 N1534 1.384 . S
C1532 H1523 0.929 . S
C1532 C1524 1.378 . S
C1532 C1527 1.350 . S
C1533 H1520 0.929 . S
C1533 C1525 1.433 . S
C1533 N1535 1.384 . S
N1534 C1530 1.427 . S
N1534 C1531 1.384 . S
N1535 C1527 1.427 . S
N1535 C1533 1.384 . S
H1536 C1542 0.930 . S
H1537 C1546 0.930 . S
H1538 C1551 0.929 . S
H1539 C1549 0.929 . S
H1540 C1544 0.929 . S
H1541 C1550 0.929 . S
C1542 H1536 0.930 . S
C1542 C1543 1.367 . S
C1542 C1550 1.378 . S
C1543 C1542 1.367 . S
C1543 C1551 1.433 1_545 S
C1544 H1540 0.929 . S
C1544 C1546 1.378 . S
C1544 C1548 1.350 1_565 S
C1545 C1548 1.463 . S
C1545 C1550 1.350 . S
C1545 N1553 1.427 1_545 S
C1546 H1537 0.930 . S
C1546 C1544 1.378 . S
C1546 C1547 1.367 1_565 S
C1547 C1546 1.367 1_545 S
C1547 C1549 1.433 . S
C1548 C1544 1.350 1_545 S
C1548 C1545 1.463 . S
C1548 N1552 1.427 . S
C1549 H1539 0.929 . S
C1549 C1547 1.433 . S
C1549 N1552 1.384 . S
C1550 H1541 0.929 . S
C1550 C1542 1.378 . S
C1550 C1545 1.350 . S
C1551 H1538 0.929 . S
C1551 C1543 1.433 1_565 S
C1551 N1553 1.384 . S
N1552 C1548 1.427 . S
N1552 C1549 1.384 . S
N1553 C1545 1.427 1_565 S
N1553 C1551 1.384 . S
H1554 C1560 0.930 . S
H1555 C1564 0.930 . S
H1556 C1569 0.929 . S
H1557 C1567 0.929 . S
H1558 C1562 0.929 . S
H1559 C1568 0.929 . S
C1560 H1554 0.930 . S
C1560 C1561 1.367 . S
C1560 C1568 1.378 . S
C1561 C1560 1.367 . S
C1561 C1569 1.433 . S
C1562 H1558 0.929 . S
C1562 C1564 1.378 . S
C1562 C1566 1.350 . S
C1563 C1566 1.463 . S
C1563 C1568 1.350 . S
C1563 N1571 1.427 . S
C1564 H1555 0.930 . S
C1564 C1562 1.378 . S
C1564 C1565 1.367 . S
C1565 C1564 1.367 . S
C1565 C1567 1.433 . S
C1566 C1562 1.350 . S
C1566 C1563 1.463 . S
C1566 N1570 1.427 . S
C1567 H1557 0.929 . S
C1567 C1565 1.433 . S
C1567 N1570 1.384 . S
C1568 H1559 0.929 . S
C1568 C1560 1.378 . S
C1568 C1563 1.350 . S
C1569 H1556 0.929 . S
C1569 C1561 1.433 . S
C1569 N1571 1.384 . S
N1570 C1566 1.427 . S
N1570 C1567 1.384 . S
N1571 C1563 1.427 . S
N1571 C1569 1.384 . S
H1572 C1578 0.930 . S
H1573 C1582 0.930 . S
H1574 C1587 0.929 . S
H1575 C1585 0.929 . S
H1576 C1580 0.929 . S
H1577 C1586 0.929 . S
C1578 H1572 0.930 . S
C1578 C1579 1.367 . S
C1578 C1586 1.378 . S
C1579 C1578 1.367 . S
C1579 C1587 1.433 . S
C1580 H1576 0.929 . S
C1580 C1582 1.378 . S
C1580 C1584 1.350 . S
C1581 C1584 1.463 . S
C1581 C1586 1.350 . S
C1581 N1589 1.427 . S
C1582 H1573 0.930 . S
C1582 C1580 1.378 . S
C1582 C1583 1.367 . S
C1583 C1582 1.367 . S
C1583 C1585 1.433 . S
C1584 C1580 1.350 . S
C1584 C1581 1.463 . S
C1584 N1588 1.427 . S
C1585 H1575 0.929 . S
C1585 C1583 1.433 . S
C1585 N1588 1.384 . S
C1586 H1577 0.929 . S
C1586 C1578 1.378 . S
C1586 C1581 1.350 . S
C1587 H1574 0.929 . S
C1587 C1579 1.433 . S
C1587 N1589 1.384 . S
N1588 C1584 1.427 . S
N1588 C1585 1.384 . S
N1589 C1581 1.427 . S
N1589 C1587 1.384 . S
H1590 C1596 0.930 . S
H1591 C1600 0.930 . S
H1592 C1605 0.929 . S
H1593 C1603 0.929 . S
H1594 C1598 0.929 . S
H1595 C1604 0.929 . S
C1596 H1590 0.930 . S
C1596 C1597 1.367 . S
C1596 C1604 1.378 . S
C1597 C1596 1.367 . S
C1597 C1605 1.433 1_545 S
C1598 H1594 0.929 . S
C1598 C1600 1.378 . S
C1598 C1602 1.350 1_565 S
C1599 C1602 1.463 . S
C1599 C1604 1.350 . S
C1599 N1607 1.427 1_545 S
C1600 H1591 0.930 . S
C1600 C1598 1.378 . S
C1600 C1601 1.367 1_565 S
C1601 C1600 1.367 1_545 S
C1601 C1603 1.433 . S
C1602 C1598 1.350 1_545 S
C1602 C1599 1.463 . S
C1602 N1606 1.427 . S
C1603 H1593 0.929 . S
C1603 C1601 1.433 . S
C1603 N1606 1.384 . S
C1604 H1595 0.929 . S
C1604 C1596 1.378 . S
C1604 C1599 1.350 . S
C1605 H1592 0.929 . S
C1605 C1597 1.433 1_565 S
C1605 N1607 1.384 . S
N1606 C1602 1.427 . S
N1606 C1603 1.384 . S
N1607 C1599 1.427 1_565 S
N1607 C1605 1.384 . S
H1608 C1614 0.930 . S
H1609 C1618 0.926 1_545 S
H1610 C1623 0.926 1_545 S
H1611 C1621 0.929 . S
H1612 C1616 0.924 1_545 S
H1613 C1622 0.929 . S
C1614 H1608 0.930 . S
C1614 C1615 1.367 . S
C1614 C1622 1.378 . S
C1615 C1614 1.367 . S
C1615 C1623 1.436 . S
C1616 H1612 0.924 1_565 S
C1616 C1618 1.378 . S
C1616 C1620 1.355 . S
C1617 C1620 1.463 . S
C1617 C1622 1.350 . S
C1617 N1625 1.432 . S
C1618 H1609 0.926 1_565 S
C1618 C1616 1.378 . S
C1618 C1619 1.372 . S
C1619 C1618 1.372 . S
C1619 C1621 1.433 . S
C1620 C1616 1.355 . S
C1620 C1617 1.463 . S
C1620 N1624 1.427 . S
C1621 H1611 0.929 . S
C1621 C1619 1.433 . S
C1621 N1624 1.384 . S
C1622 H1613 0.929 . S
C1622 C1614 1.378 . S
C1622 C1617 1.350 . S
C1623 H1610 0.926 1_565 S
C1623 C1615 1.436 . S
C1623 N1625 1.384 . S
N1624 C1620 1.427 . S
N1624 C1621 1.384 . S
N1625 C1617 1.432 . S
N1625 C1623 1.384 . S
H1626 C1632 0.930 . S
H1627 C1636 0.930 . S
H1628 C1641 0.929 . S
H1629 C1639 0.929 . S
H1630 C1634 0.929 . S
H1631 C1640 0.929 . S
C1632 H1626 0.930 . S
C1632 C1633 1.367 . S
C1632 C1640 1.378 . S
C1633 C1632 1.367 . S
C1633 C1641 1.433 . S
C1634 H1630 0.929 . S
C1634 C1636 1.378 . S
C1634 C1638 1.350 . S
C1635 C1638 1.463 . S
C1635 C1640 1.350 . S
C1635 N1643 1.427 . S
C1636 H1627 0.930 . S
C1636 C1634 1.378 . S
C1636 C1637 1.367 . S
C1637 C1636 1.367 . S
C1637 C1639 1.433 . S
C1638 C1634 1.350 . S
C1638 C1635 1.463 . S
C1638 N1642 1.427 . S
C1639 H1629 0.929 . S
C1639 C1637 1.433 . S
C1639 N1642 1.384 . S
C1640 H1631 0.929 . S
C1640 C1632 1.378 . S
C1640 C1635 1.350 . S
C1641 H1628 0.929 . S
C1641 C1633 1.433 . S
C1641 N1643 1.384 . S
N1642 C1638 1.427 . S
N1642 C1639 1.384 . S
N1643 C1635 1.427 . S
N1643 C1641 1.384 . S
H1644 C1650 0.930 . S
H1645 C1654 0.930 . S
H1646 C1659 0.929 . S
H1647 C1657 0.929 . S
H1648 C1652 0.929 . S
H1649 C1658 0.929 . S
C1650 H1644 0.930 . S
C1650 C1651 1.367 . S
C1650 C1658 1.378 . S
C1651 C1650 1.367 . S
C1651 C1659 1.433 . S
C1652 H1648 0.929 . S
C1652 C1654 1.378 . S
C1652 C1656 1.350 . S
C1653 C1656 1.463 . S
C1653 C1658 1.350 . S
C1653 N1661 1.427 . S
C1654 H1645 0.930 . S
C1654 C1652 1.378 . S
C1654 C1655 1.367 . S
C1655 C1654 1.367 . S
C1655 C1657 1.433 . S
C1656 C1652 1.350 . S
C1656 C1653 1.463 . S
C1656 N1660 1.427 . S
C1657 H1647 0.929 . S
C1657 C1655 1.433 . S
C1657 N1660 1.384 . S
C1658 H1649 0.929 . S
C1658 C1650 1.378 . S
C1658 C1653 1.350 . S
C1659 H1646 0.929 . S
C1659 C1651 1.433 . S
C1659 N1661 1.384 . S
N1660 C1656 1.427 . S
N1660 C1657 1.384 . S
N1661 C1653 1.427 . S
N1661 C1659 1.384 . S
H1662 C1668 0.930 . S
H1663 C1672 0.930 . S
H1664 C1677 0.929 . S
H1665 C1675 0.929 . S
H1666 C1670 0.929 . S
H1667 C1676 0.929 . S
C1668 H1662 0.930 . S
C1668 C1669 1.367 . S
C1668 C1676 1.378 . S
C1669 C1668 1.367 . S
C1669 C1677 1.433 1_565 S
C1670 H1666 0.929 . S
C1670 C1672 1.378 . S
C1670 C1674 1.350 1_545 S
C1671 C1674 1.463 . S
C1671 C1676 1.350 . S
C1671 N1679 1.427 1_565 S
C1672 H1663 0.930 . S
C1672 C1670 1.378 . S
C1672 C1673 1.367 1_545 S
C1673 C1672 1.367 1_565 S
C1673 C1675 1.433 . S
C1674 C1670 1.350 1_565 S
C1674 C1671 1.463 . S
C1674 N1678 1.427 . S
C1675 H1665 0.929 . S
C1675 C1673 1.433 . S
C1675 N1678 1.384 . S
C1676 H1667 0.929 . S
C1676 C1668 1.378 . S
C1676 C1671 1.350 . S
C1677 H1664 0.929 . S
C1677 C1669 1.433 1_545 S
C1677 N1679 1.384 . S
N1678 C1674 1.427 . S
N1678 C1675 1.384 . S
N1679 C1671 1.427 1_545 S
N1679 C1677 1.384 . S
H1680 C1686 0.930 . S
H1681 C1690 0.930 . S
H1682 C1695 0.929 . S
H1683 C1693 0.929 . S
H1684 C1688 0.929 . S
H1685 C1694 0.929 . S
C1686 H1680 0.930 . S
C1686 C1687 1.367 . S
C1686 C1694 1.378 . S
C1687 C1686 1.367 . S
C1687 C1695 1.433 . S
C1688 H1684 0.929 . S
C1688 C1690 1.378 . S
C1688 C1692 1.350 . S
C1689 C1692 1.463 . S
C1689 C1694 1.350 . S
C1689 N1697 1.427 . S
C1690 H1681 0.930 . S
C1690 C1688 1.378 . S
C1690 C1691 1.367 . S
C1691 C1690 1.367 . S
C1691 C1693 1.433 . S
C1692 C1688 1.350 . S
C1692 C1689 1.463 . S
C1692 N1696 1.427 . S
C1693 H1683 0.929 . S
C1693 C1691 1.433 . S
C1693 N1696 1.384 . S
C1694 H1685 0.929 . S
C1694 C1686 1.378 . S
C1694 C1689 1.350 . S
C1695 H1682 0.929 . S
C1695 C1687 1.433 . S
C1695 N1697 1.384 . S
N1696 C1692 1.427 . S
N1696 C1693 1.384 . S
N1697 C1689 1.427 . S
N1697 C1695 1.384 . S
H1698 C1704 0.930 . S
H1699 C1708 0.930 . S
H1700 C1713 0.929 . S
H1701 C1711 0.929 . S
H1702 C1706 0.929 . S
H1703 C1712 0.929 . S
C1704 H1698 0.930 . S
C1704 C1705 1.367 . S
C1704 C1712 1.378 . S
C1705 C1704 1.367 . S
C1705 C1713 1.433 . S
C1706 H1702 0.929 . S
C1706 C1708 1.378 . S
C1706 C1710 1.350 . S
C1707 C1710 1.463 . S
C1707 C1712 1.350 . S
C1707 N1715 1.427 . S
C1708 H1699 0.930 . S
C1708 C1706 1.378 . S
C1708 C1709 1.367 . S
C1709 C1708 1.367 . S
C1709 C1711 1.433 . S
C1710 C1706 1.350 . S
C1710 C1707 1.463 . S
C1710 N1714 1.427 . S
C1711 H1701 0.929 . S
C1711 C1709 1.433 . S
C1711 N1714 1.384 . S
C1712 H1703 0.929 . S
C1712 C1704 1.378 . S
C1712 C1707 1.350 . S
C1713 H1700 0.929 . S
C1713 C1705 1.433 . S
C1713 N1715 1.384 . S
N1714 C1710 1.427 . S
N1714 C1711 1.384 . S
N1715 C1707 1.427 . S
N1715 C1713 1.384 . S
H1716 C1722 0.930 . S
H1717 C1726 0.930 . S
H1718 C1731 0.929 . S
H1719 C1729 0.929 . S
H1720 C1724 0.929 . S
H1721 C1730 0.929 . S
C1722 H1716 0.930 . S
C1722 C1723 1.367 . S
C1722 C1730 1.378 . S
C1723 C1722 1.367 . S
C1723 C1731 1.433 . S
C1724 H1720 0.929 . S
C1724 C1726 1.378 . S
C1724 C1728 1.350 . S
C1725 C1728 1.463 . S
C1725 C1730 1.350 . S
C1725 N1733 1.427 . S
C1726 H1717 0.930 . S
C1726 C1724 1.378 . S
C1726 C1727 1.367 . S
C1727 C1726 1.367 . S
C1727 C1729 1.433 . S
C1728 C1724 1.350 . S
C1728 C1725 1.463 . S
C1728 N1732 1.427 . S
C1729 H1719 0.929 . S
C1729 C1727 1.433 . S
C1729 N1732 1.384 . S
C1730 H1721 0.929 . S
C1730 C1722 1.378 . S
C1730 C1725 1.350 . S
C1731 H1718 0.929 . S
C1731 C1723 1.433 . S
C1731 N1733 1.384 . S
N1732 C1728 1.427 . S
N1732 C1729 1.384 . S
N1733 C1725 1.427 . S
N1733 C1731 1.384 . S
H1734 C1740 0.930 . S
H1735 C1744 0.930 . S
H1736 C1749 0.929 . S
H1737 C1747 0.929 . S
H1738 C1742 0.929 . S
H1739 C1748 0.929 . S
C1740 H1734 0.930 . S
C1740 C1741 1.367 . S
C1740 C1748 1.378 . S
C1741 C1740 1.367 . S
C1741 C1749 1.433 . S
C1742 H1738 0.929 . S
C1742 C1744 1.378 . S
C1742 C1746 1.350 . S
C1743 C1746 1.463 . S
C1743 C1748 1.350 . S
C1743 N1751 1.427 . S
C1744 H1735 0.930 . S
C1744 C1742 1.378 . S
C1744 C1745 1.367 . S
C1745 C1744 1.367 . S
C1745 C1747 1.433 . S
C1746 C1742 1.350 . S
C1746 C1743 1.463 . S
C1746 N1750 1.427 . S
C1747 H1737 0.929 . S
C1747 C1745 1.433 . S
C1747 N1750 1.384 . S
C1748 H1739 0.929 . S
C1748 C1740 1.378 . S
C1748 C1743 1.350 . S
C1749 H1736 0.929 . S
C1749 C1741 1.433 . S
C1749 N1751 1.384 . S
N1750 C1746 1.427 . S
N1750 C1747 1.384 . S
N1751 C1743 1.427 . S
N1751 C1749 1.384 . S
H1752 C1758 0.930 . S
H1753 C1762 0.930 . S
H1754 C1767 0.929 . S
H1755 C1765 0.929 . S
H1756 C1760 0.929 . S
H1757 C1766 0.929 . S
C1758 H1752 0.930 . S
C1758 C1759 1.367 . S
C1758 C1766 1.378 . S
C1759 C1758 1.367 . S
C1759 C1767 1.433 . S
C1760 H1756 0.929 . S
C1760 C1762 1.378 . S
C1760 C1764 1.350 . S
C1761 C1764 1.463 . S
C1761 C1766 1.350 . S
C1761 N1769 1.427 . S
C1762 H1753 0.930 . S
C1762 C1760 1.378 . S
C1762 C1763 1.367 . S
C1763 C1762 1.367 . S
C1763 C1765 1.433 . S
C1764 C1760 1.350 . S
C1764 C1761 1.463 . S
C1764 N1768 1.427 . S
C1765 H1755 0.929 . S
C1765 C1763 1.433 . S
C1765 N1768 1.384 . S
C1766 H1757 0.929 . S
C1766 C1758 1.378 . S
C1766 C1761 1.350 . S
C1767 H1754 0.929 . S
C1767 C1759 1.433 . S
C1767 N1769 1.384 . S
N1768 C1764 1.427 . S
N1768 C1765 1.384 . S
N1769 C1761 1.427 . S
N1769 C1767 1.384 . S
H1770 C1776 0.930 . S
H1771 C1780 0.930 . S
H1772 C1785 0.929 . S
H1773 C1783 0.929 . S
H1774 C1778 0.929 . S
H1775 C1784 0.929 . S
C1776 H1770 0.930 . S
C1776 C1777 1.367 . S
C1776 C1784 1.378 . S
C1777 C1776 1.367 . S
C1777 C1785 1.433 . S
C1778 H1774 0.929 . S
C1778 C1780 1.378 . S
C1778 C1782 1.350 . S
C1779 C1782 1.463 . S
C1779 C1784 1.350 . S
C1779 N1787 1.427 . S
C1780 H1771 0.930 . S
C1780 C1778 1.378 . S
C1780 C1781 1.367 . S
C1781 C1780 1.367 . S
C1781 C1783 1.433 . S
C1782 C1778 1.350 . S
C1782 C1779 1.463 . S
C1782 N1786 1.427 . S
C1783 H1773 0.929 . S
C1783 C1781 1.433 . S
C1783 N1786 1.384 . S
C1784 H1775 0.929 . S
C1784 C1776 1.378 . S
C1784 C1779 1.350 . S
C1785 H1772 0.929 . S
C1785 C1777 1.433 . S
C1785 N1787 1.384 . S
N1786 C1782 1.427 . S
N1786 C1783 1.384 . S
N1787 C1779 1.427 . S
N1787 C1785 1.384 . S
H1788 C1794 0.930 . S
H1789 C1798 0.930 . S
H1790 C1803 0.929 . S
H1791 C1801 0.929 . S
H1792 C1796 0.929 . S
H1793 C1802 0.929 . S
C1794 H1788 0.930 . S
C1794 C1795 1.367 . S
C1794 C1802 1.378 . S
C1795 C1794 1.367 . S
C1795 C1803 1.433 . S
C1796 H1792 0.929 . S
C1796 C1798 1.378 . S
C1796 C1800 1.350 . S
C1797 C1800 1.463 . S
C1797 C1802 1.350 . S
C1797 N1805 1.427 . S
C1798 H1789 0.930 . S
C1798 C1796 1.378 . S
C1798 C1799 1.367 . S
C1799 C1798 1.367 . S
C1799 C1801 1.433 . S
C1800 C1796 1.350 . S
C1800 C1797 1.463 . S
C1800 N1804 1.427 . S
C1801 H1791 0.929 . S
C1801 C1799 1.433 . S
C1801 N1804 1.384 . S
C1802 H1793 0.929 . S
C1802 C1794 1.378 . S
C1802 C1797 1.350 . S
C1803 H1790 0.929 . S
C1803 C1795 1.433 . S
C1803 N1805 1.384 . S
N1804 C1800 1.427 . S
N1804 C1801 1.384 . S
N1805 C1797 1.427 . S
N1805 C1803 1.384 . S
H1806 C1812 0.930 . S
H1807 C1816 0.930 . S
H1808 C1821 0.929 . S
H1809 C1819 0.929 . S
H1810 C1814 0.929 . S
H1811 C1820 0.929 . S
C1812 H1806 0.930 . S
C1812 C1813 1.367 . S
C1812 C1820 1.378 . S
C1813 C1812 1.367 . S
C1813 C1821 1.433 . S
C1814 H1810 0.929 . S
C1814 C1816 1.378 . S
C1814 C1818 1.350 . S
C1815 C1818 1.463 . S
C1815 C1820 1.350 . S
C1815 N1823 1.427 . S
C1816 H1807 0.930 . S
C1816 C1814 1.378 . S
C1816 C1817 1.367 . S
C1817 C1816 1.367 . S
C1817 C1819 1.433 . S
C1818 C1814 1.350 . S
C1818 C1815 1.463 . S
C1818 N1822 1.427 . S
C1819 H1809 0.929 . S
C1819 C1817 1.433 . S
C1819 N1822 1.384 . S
C1820 H1811 0.929 . S
C1820 C1812 1.378 . S
C1820 C1815 1.350 . S
C1821 H1808 0.929 . S
C1821 C1813 1.433 . S
C1821 N1823 1.384 . S
N1822 C1818 1.427 . S
N1822 C1819 1.384 . S
N1823 C1815 1.427 . S
N1823 C1821 1.384 . S
H1824 C1830 0.930 . S
H1825 C1834 0.930 . S
H1826 C1839 0.929 . S
H1827 C1837 0.929 . S
H1828 C1832 0.929 . S
H1829 C1838 0.929 . S
C1830 H1824 0.930 . S
C1830 C1831 1.367 . S
C1830 C1838 1.378 . S
C1831 C1830 1.367 . S
C1831 C1839 1.433 . S
C1832 H1828 0.929 . S
C1832 C1834 1.378 . S
C1832 C1836 1.350 . S
C1833 C1836 1.463 . S
C1833 C1838 1.350 . S
C1833 N1841 1.427 . S
C1834 H1825 0.930 . S
C1834 C1832 1.378 . S
C1834 C1835 1.367 . S
C1835 C1834 1.367 . S
C1835 C1837 1.433 . S
C1836 C1832 1.350 . S
C1836 C1833 1.463 . S
C1836 N1840 1.427 . S
C1837 H1827 0.929 . S
C1837 C1835 1.433 . S
C1837 N1840 1.384 . S
C1838 H1829 0.929 . S
C1838 C1830 1.378 . S
C1838 C1833 1.350 . S
C1839 H1826 0.929 . S
C1839 C1831 1.433 . S
C1839 N1841 1.384 . S
N1840 C1836 1.427 . S
N1840 C1837 1.384 . S
N1841 C1833 1.427 . S
N1841 C1839 1.384 . S
H1842 C1848 0.930 . S
H1843 C1852 0.930 . S
H1844 C1857 0.929 . S
H1845 C1855 0.929 . S
H1846 C1850 0.929 . S
H1847 C1856 0.929 . S
C1848 H1842 0.930 . S
C1848 C1849 1.367 . S
C1848 C1856 1.378 . S
C1849 C1848 1.367 . S
C1849 C1857 1.433 . S
C1850 H1846 0.929 . S
C1850 C1852 1.378 . S
C1850 C1854 1.350 . S
C1851 C1854 1.463 . S
C1851 C1856 1.350 . S
C1851 N1859 1.427 . S
C1852 H1843 0.930 . S
C1852 C1850 1.378 . S
C1852 C1853 1.367 . S
C1853 C1852 1.367 . S
C1853 C1855 1.433 . S
C1854 C1850 1.350 . S
C1854 C1851 1.463 . S
C1854 N1858 1.427 . S
C1855 H1845 0.929 . S
C1855 C1853 1.433 . S
C1855 N1858 1.384 . S
C1856 H1847 0.929 . S
C1856 C1848 1.378 . S
C1856 C1851 1.350 . S
C1857 H1844 0.929 . S
C1857 C1849 1.433 . S
C1857 N1859 1.384 . S
N1858 C1854 1.427 . S
N1858 C1855 1.384 . S
N1859 C1851 1.427 . S
N1859 C1857 1.384 . S
H1860 C1866 0.930 . S
H1861 C1870 0.930 . S
H1862 C1875 0.929 . S
H1863 C1873 0.929 . S
H1864 C1868 0.929 . S
H1865 C1874 0.929 . S
C1866 H1860 0.930 . S
C1866 C1867 1.367 . S
C1866 C1874 1.378 . S
C1867 C1866 1.367 . S
C1867 C1875 1.433 . S
C1868 H1864 0.929 . S
C1868 C1870 1.378 . S
C1868 C1872 1.350 . S
C1869 C1872 1.463 . S
C1869 C1874 1.350 . S
C1869 N1877 1.427 . S
C1870 H1861 0.930 . S
C1870 C1868 1.378 . S
C1870 C1871 1.367 . S
C1871 C1870 1.367 . S
C1871 C1873 1.433 . S
C1872 C1868 1.350 . S
C1872 C1869 1.463 . S
C1872 N1876 1.427 . S
C1873 H1863 0.929 . S
C1873 C1871 1.433 . S
C1873 N1876 1.384 . S
C1874 H1865 0.929 . S
C1874 C1866 1.378 . S
C1874 C1869 1.350 . S
C1875 H1862 0.929 . S
C1875 C1867 1.433 . S
C1875 N1877 1.384 . S
N1876 C1872 1.427 . S
N1876 C1873 1.384 . S
N1877 C1869 1.427 . S
N1877 C1875 1.384 . S
H1878 C1884 0.930 . S
H1879 C1888 0.930 . S
H1880 C1893 0.929 . S
H1881 C1891 0.929 . S
H1882 C1886 0.929 . S
H1883 C1892 0.929 . S
C1884 H1878 0.930 . S
C1884 C1885 1.367 . S
C1884 C1892 1.378 . S
C1885 C1884 1.367 . S
C1885 C1893 1.433 . S
C1886 H1882 0.929 . S
C1886 C1888 1.378 . S
C1886 C1890 1.350 . S
C1887 C1890 1.463 . S
C1887 C1892 1.350 . S
C1887 N1895 1.427 . S
C1888 H1879 0.930 . S
C1888 C1886 1.378 . S
C1888 C1889 1.367 . S
C1889 C1888 1.367 . S
C1889 C1891 1.433 . S
C1890 C1886 1.350 . S
C1890 C1887 1.463 . S
C1890 N1894 1.427 . S
C1891 H1881 0.929 . S
C1891 C1889 1.433 . S
C1891 N1894 1.384 . S
C1892 H1883 0.929 . S
C1892 C1884 1.378 . S
C1892 C1887 1.350 . S
C1893 H1880 0.929 . S
C1893 C1885 1.433 . S
C1893 N1895 1.384 . S
N1894 C1890 1.427 . S
N1894 C1891 1.384 . S
N1895 C1887 1.427 . S
N1895 C1893 1.384 . S
H1896 C1902 0.930 . S
H1897 C1906 0.930 . S
H1898 C1911 0.929 . S
H1899 C1909 0.929 . S
H1900 C1904 0.929 . S
H1901 C1910 0.929 . S
C1902 H1896 0.930 . S
C1902 C1903 1.367 . S
C1902 C1910 1.378 . S
C1903 C1902 1.367 . S
C1903 C1911 1.433 . S
C1904 H1900 0.929 . S
C1904 C1906 1.378 . S
C1904 C1908 1.350 . S
C1905 C1908 1.463 . S
C1905 C1910 1.350 . S
C1905 N1913 1.427 . S
C1906 H1897 0.930 . S
C1906 C1904 1.378 . S
C1906 C1907 1.367 . S
C1907 C1906 1.367 . S
C1907 C1909 1.433 . S
C1908 C1904 1.350 . S
C1908 C1905 1.463 . S
C1908 N1912 1.427 . S
C1909 H1899 0.929 . S
C1909 C1907 1.433 . S
C1909 N1912 1.384 . S
C1910 H1901 0.929 . S
C1910 C1902 1.378 . S
C1910 C1905 1.350 . S
C1911 H1898 0.929 . S
C1911 C1903 1.433 . S
C1911 N1913 1.384 . S
N1912 C1908 1.427 . S
N1912 C1909 1.384 . S
N1913 C1905 1.427 . S
N1913 C1911 1.384 . S
H1914 C1920 0.930 . S
H1915 C1924 0.930 . S
H1916 C1929 0.929 . S
H1917 C1927 0.929 . S
H1918 C1922 0.929 . S
H1919 C1928 0.929 . S
C1920 H1914 0.930 . S
C1920 C1921 1.367 . S
C1920 C1928 1.378 . S
C1921 C1920 1.367 . S
C1921 C1929 1.433 . S
C1922 H1918 0.929 . S
C1922 C1924 1.378 . S
C1922 C1926 1.350 . S
C1923 C1926 1.463 . S
C1923 C1928 1.350 . S
C1923 N1931 1.427 . S
C1924 H1915 0.930 . S
C1924 C1922 1.378 . S
C1924 C1925 1.367 . S
C1925 C1924 1.367 . S
C1925 C1927 1.433 . S
C1926 C1922 1.350 . S
C1926 C1923 1.463 . S
C1926 N1930 1.427 . S
C1927 H1917 0.929 . S
C1927 C1925 1.433 . S
C1927 N1930 1.384 . S
C1928 H1919 0.929 . S
C1928 C1920 1.378 . S
C1928 C1923 1.350 . S
C1929 H1916 0.929 . S
C1929 C1921 1.433 . S
C1929 N1931 1.384 . S
N1930 C1926 1.427 . S
N1930 C1927 1.384 . S
N1931 C1923 1.427 . S
N1931 C1929 1.384 . S
H1932 C1938 0.930 . S
H1933 C1942 0.930 . S
H1934 C1947 0.929 . S
H1935 C1945 0.929 . S
H1936 C1940 0.929 . S
H1937 C1946 0.929 . S
C1938 H1932 0.930 . S
C1938 C1939 1.367 . S
C1938 C1946 1.378 . S
C1939 C1938 1.367 . S
C1939 C1947 1.433 . S
C1940 H1936 0.929 . S
C1940 C1942 1.378 . S
C1940 C1944 1.350 . S
C1941 C1944 1.463 . S
C1941 C1946 1.350 . S
C1941 N1949 1.427 . S
C1942 H1933 0.930 . S
C1942 C1940 1.378 . S
C1942 C1943 1.367 . S
C1943 C1942 1.367 . S
C1943 C1945 1.433 . S
C1944 C1940 1.350 . S
C1944 C1941 1.463 . S
C1944 N1948 1.427 . S
C1945 H1935 0.929 . S
C1945 C1943 1.433 . S
C1945 N1948 1.384 . S
C1946 H1937 0.929 . S
C1946 C1938 1.378 . S
C1946 C1941 1.350 . S
C1947 H1934 0.929 . S
C1947 C1939 1.433 . S
C1947 N1949 1.384 . S
N1948 C1944 1.427 . S
N1948 C1945 1.384 . S
N1949 C1941 1.427 . S
N1949 C1947 1.384 . S
H1950 C1956 0.930 . S
H1951 C1960 0.930 . S
H1952 C1965 0.929 . S
H1953 C1963 0.929 . S
H1954 C1958 0.929 . S
H1955 C1964 0.929 . S
C1956 H1950 0.930 . S
C1956 C1957 1.367 . S
C1956 C1964 1.378 . S
C1957 C1956 1.367 . S
C1957 C1965 1.433 . S
C1958 H1954 0.929 . S
C1958 C1960 1.378 . S
C1958 C1962 1.350 . S
C1959 C1962 1.463 . S
C1959 C1964 1.350 . S
C1959 N1967 1.427 . S
C1960 H1951 0.930 . S
C1960 C1958 1.378 . S
C1960 C1961 1.367 . S
C1961 C1960 1.367 . S
C1961 C1963 1.433 . S
C1962 C1958 1.350 . S
C1962 C1959 1.463 . S
C1962 N1966 1.427 . S
C1963 H1953 0.929 . S
C1963 C1961 1.433 . S
C1963 N1966 1.384 . S
C1964 H1955 0.929 . S
C1964 C1956 1.378 . S
C1964 C1959 1.350 . S
C1965 H1952 0.929 . S
C1965 C1957 1.433 . S
C1965 N1967 1.384 . S
N1966 C1962 1.427 . S
N1966 C1963 1.384 . S
N1967 C1959 1.427 . S
N1967 C1965 1.384 . S
H1968 C1974 0.930 . S
H1969 C1978 0.930 . S
H1970 C1983 0.929 . S
H1971 C1981 0.929 . S
H1972 C1976 0.929 . S
H1973 C1982 0.929 . S
C1974 H1968 0.930 . S
C1974 C1975 1.367 . S
C1974 C1982 1.378 . S
C1975 C1974 1.367 . S
C1975 C1983 1.433 . S
C1976 H1972 0.929 . S
C1976 C1978 1.378 . S
C1976 C1980 1.350 . S
C1977 C1980 1.463 . S
C1977 C1982 1.350 . S
C1977 N1985 1.427 . S
C1978 H1969 0.930 . S
C1978 C1976 1.378 . S
C1978 C1979 1.367 . S
C1979 C1978 1.367 . S
C1979 C1981 1.433 . S
C1980 C1976 1.350 . S
C1980 C1977 1.463 . S
C1980 N1984 1.427 . S
C1981 H1971 0.929 . S
C1981 C1979 1.433 . S
C1981 N1984 1.384 . S
C1982 H1973 0.929 . S
C1982 C1974 1.378 . S
C1982 C1977 1.350 . S
C1983 H1970 0.929 . S
C1983 C1975 1.433 . S
C1983 N1985 1.384 . S
N1984 C1980 1.427 . S
N1984 C1981 1.384 . S
N1985 C1977 1.427 . S
N1985 C1983 1.384 . S
H1986 C1992 0.930 . S
H1987 C1996 0.930 . S
H1988 C2001 0.929 . S
H1989 C1999 0.929 . S
H1990 C1994 0.929 . S
H1991 C2000 0.929 . S
C1992 H1986 0.930 . S
C1992 C1993 1.367 . S
C1992 C2000 1.378 . S
C1993 C1992 1.367 . S
C1993 C2001 1.433 . S
C1994 H1990 0.929 . S
C1994 C1996 1.378 . S
C1994 C1998 1.350 . S
C1995 C1998 1.463 . S
C1995 C2000 1.350 . S
C1995 N2003 1.427 . S
C1996 H1987 0.930 . S
C1996 C1994 1.378 . S
C1996 C1997 1.367 . S
C1997 C1996 1.367 . S
C1997 C1999 1.433 . S
C1998 C1994 1.350 . S
C1998 C1995 1.463 . S
C1998 N2002 1.427 . S
C1999 H1989 0.929 . S
C1999 C1997 1.433 . S
C1999 N2002 1.384 . S
C2000 H1991 0.929 . S
C2000 C1992 1.378 . S
C2000 C1995 1.350 . S
C2001 H1988 0.929 . S
C2001 C1993 1.433 . S
C2001 N2003 1.384 . S
N2002 C1998 1.427 . S
N2002 C1999 1.384 . S
N2003 C1995 1.427 . S
N2003 C2001 1.384 . S
H2004 C2010 0.930 . S
H2005 C2014 0.930 . S
H2006 C2019 0.929 . S
H2007 C2017 0.929 . S
H2008 C2012 0.929 . S
H2009 C2018 0.929 . S
C2010 H2004 0.930 . S
C2010 C2011 1.367 . S
C2010 C2018 1.378 . S
C2011 C2010 1.367 . S
C2011 C2019 1.433 . S
C2012 H2008 0.929 . S
C2012 C2014 1.378 . S
C2012 C2016 1.350 . S
C2013 C2016 1.463 . S
C2013 C2018 1.350 . S
C2013 N2021 1.427 . S
C2014 H2005 0.930 . S
C2014 C2012 1.378 . S
C2014 C2015 1.367 . S
C2015 C2014 1.367 . S
C2015 C2017 1.433 . S
C2016 C2012 1.350 . S
C2016 C2013 1.463 . S
C2016 N2020 1.427 . S
C2017 H2007 0.929 . S
C2017 C2015 1.433 . S
C2017 N2020 1.384 . S
C2018 H2009 0.929 . S
C2018 C2010 1.378 . S
C2018 C2013 1.350 . S
C2019 H2006 0.929 . S
C2019 C2011 1.433 . S
C2019 N2021 1.384 . S
N2020 C2016 1.427 . S
N2020 C2017 1.384 . S
N2021 C2013 1.427 . S
N2021 C2019 1.384 . S
H2022 C2028 0.930 . S
H2023 C2032 0.930 . S
H2024 C2037 0.929 . S
H2025 C2035 0.929 . S
H2026 C2030 0.929 . S
H2027 C2036 0.929 . S
C2028 H2022 0.930 . S
C2028 C2029 1.367 . S
C2028 C2036 1.378 . S
C2029 C2028 1.367 . S
C2029 C2037 1.433 . S
C2030 H2026 0.929 . S
C2030 C2032 1.378 . S
C2030 C2034 1.350 . S
C2031 C2034 1.463 . S
C2031 C2036 1.350 . S
C2031 N2039 1.427 . S
C2032 H2023 0.930 . S
C2032 C2030 1.378 . S
C2032 C2033 1.367 . S
C2033 C2032 1.367 . S
C2033 C2035 1.433 . S
C2034 C2030 1.350 . S
C2034 C2031 1.463 . S
C2034 N2038 1.427 . S
C2035 H2025 0.929 . S
C2035 C2033 1.433 . S
C2035 N2038 1.384 . S
C2036 H2027 0.929 . S
C2036 C2028 1.378 . S
C2036 C2031 1.350 . S
C2037 H2024 0.929 . S
C2037 C2029 1.433 . S
C2037 N2039 1.384 . S
N2038 C2034 1.427 . S
N2038 C2035 1.384 . S
N2039 C2031 1.427 . S
N2039 C2037 1.384 . S
H2040 C2046 0.930 . S
H2041 C2050 0.930 . S
H2042 C2055 0.929 . S
H2043 C2053 0.929 . S
H2044 C2048 0.929 . S
H2045 C2054 0.929 . S
C2046 H2040 0.930 . S
C2046 C2047 1.367 . S
C2046 C2054 1.378 . S
C2047 C2046 1.367 . S
C2047 C2055 1.433 . S
C2048 H2044 0.929 . S
C2048 C2050 1.378 . S
C2048 C2052 1.350 . S
C2049 C2052 1.463 . S
C2049 C2054 1.350 . S
C2049 N2057 1.427 . S
C2050 H2041 0.930 . S
C2050 C2048 1.378 . S
C2050 C2051 1.367 . S
C2051 C2050 1.367 . S
C2051 C2053 1.433 . S
C2052 C2048 1.350 . S
C2052 C2049 1.463 . S
C2052 N2056 1.427 . S
C2053 H2043 0.929 . S
C2053 C2051 1.433 . S
C2053 N2056 1.384 . S
C2054 H2045 0.929 . S
C2054 C2046 1.378 . S
C2054 C2049 1.350 . S
C2055 H2042 0.929 . S
C2055 C2047 1.433 . S
C2055 N2057 1.384 . S
N2056 C2052 1.427 . S
N2056 C2053 1.384 . S
N2057 C2049 1.427 . S
N2057 C2055 1.384 . S
H2058 C2064 0.930 . S
H2059 C2068 0.930 . S
H2060 C2073 0.929 . S
H2061 C2071 0.929 . S
H2062 C2066 0.929 . S
H2063 C2072 0.929 . S
C2064 H2058 0.930 . S
C2064 C2065 1.367 . S
C2064 C2072 1.378 . S
C2065 C2064 1.367 . S
C2065 C2073 1.433 . S
C2066 H2062 0.929 . S
C2066 C2068 1.378 . S
C2066 C2070 1.350 . S
C2067 C2070 1.463 . S
C2067 C2072 1.350 . S
C2067 N2075 1.427 . S
C2068 H2059 0.930 . S
C2068 C2066 1.378 . S
C2068 C2069 1.367 . S
C2069 C2068 1.367 . S
C2069 C2071 1.433 . S
C2070 C2066 1.350 . S
C2070 C2067 1.463 . S
C2070 N2074 1.427 . S
C2071 H2061 0.929 . S
C2071 C2069 1.433 . S
C2071 N2074 1.384 . S
C2072 H2063 0.929 . S
C2072 C2064 1.378 . S
C2072 C2067 1.350 . S
C2073 H2060 0.929 . S
C2073 C2065 1.433 . S
C2073 N2075 1.384 . S
N2074 C2070 1.427 . S
N2074 C2071 1.384 . S
N2075 C2067 1.427 . S
N2075 C2073 1.384 . S
H2076 C2082 0.930 . S
H2077 C2086 0.930 . S
H2078 C2091 0.929 . S
H2079 C2089 0.929 . S
H2080 C2084 0.929 . S
H2081 C2090 0.929 . S
C2082 H2076 0.930 . S
C2082 C2083 1.367 . S
C2082 C2090 1.378 . S
C2083 C2082 1.367 . S
C2083 C2091 1.433 . S
C2084 H2080 0.929 . S
C2084 C2086 1.378 . S
C2084 C2088 1.350 . S
C2085 C2088 1.463 . S
C2085 C2090 1.350 . S
C2085 N2093 1.427 . S
C2086 H2077 0.930 . S
C2086 C2084 1.378 . S
C2086 C2087 1.367 . S
C2087 C2086 1.367 . S
C2087 C2089 1.433 . S
C2088 C2084 1.350 . S
C2088 C2085 1.463 . S
C2088 N2092 1.427 . S
C2089 H2079 0.929 . S
C2089 C2087 1.433 . S
C2089 N2092 1.384 . S
C2090 H2081 0.929 . S
C2090 C2082 1.378 . S
C2090 C2085 1.350 . S
C2091 H2078 0.929 . S
C2091 C2083 1.433 . S
C2091 N2093 1.384 . S
N2092 C2088 1.427 . S
N2092 C2089 1.384 . S
N2093 C2085 1.427 . S
N2093 C2091 1.384 . S
H2094 C2100 0.930 . S
H2095 C2104 0.930 . S
H2096 C2109 0.929 . S
H2097 C2107 0.929 . S
H2098 C2102 0.929 . S
H2099 C2108 0.929 . S
C2100 H2094 0.930 . S
C2100 C2101 1.367 . S
C2100 C2108 1.378 . S
C2101 C2100 1.367 . S
C2101 C2109 1.433 . S
C2102 H2098 0.929 . S
C2102 C2104 1.378 . S
C2102 C2106 1.350 . S
C2103 C2106 1.463 . S
C2103 C2108 1.350 . S
C2103 N2111 1.427 . S
C2104 H2095 0.930 . S
C2104 C2102 1.378 . S
C2104 C2105 1.367 . S
C2105 C2104 1.367 . S
C2105 C2107 1.433 . S
C2106 C2102 1.350 . S
C2106 C2103 1.463 . S
C2106 N2110 1.427 . S
C2107 H2097 0.929 . S
C2107 C2105 1.433 . S
C2107 N2110 1.384 . S
C2108 H2099 0.929 . S
C2108 C2100 1.378 . S
C2108 C2103 1.350 . S
C2109 H2096 0.929 . S
C2109 C2101 1.433 . S
C2109 N2111 1.384 . S
N2110 C2106 1.427 . S
N2110 C2107 1.384 . S
N2111 C2103 1.427 . S
N2111 C2109 1.384 . S
H2112 C2118 0.930 . S
H2113 C2122 0.930 . S
H2114 C2127 0.929 1_554 S
H2115 C2125 0.929 . S
H2116 C2120 0.929 . S
H2117 C2126 0.929 . S
C2118 H2112 0.930 . S
C2118 C2119 1.367 1_545 S
C2118 C2126 1.378 . S
C2119 C2118 1.367 1_565 S
C2119 C2127 1.433 . S
C2120 H2116 0.929 . S
C2120 C2122 1.378 . S
C2120 C2124 1.350 . S
C2121 C2124 1.463 . S
C2121 C2126 1.350 1_565 S
C2121 N2129 1.427 . S
C2122 H2113 0.930 . S
C2122 C2120 1.378 . S
C2122 C2123 1.367 . S
C2123 C2122 1.367 . S
C2123 C2125 1.433 1_565 S
C2124 C2120 1.350 . S
C2124 C2121 1.463 . S
C2124 N2128 1.427 1_565 S
C2125 H2115 0.929 . S
C2125 C2123 1.433 1_545 S
C2125 N2128 1.384 . S
C2126 H2117 0.929 . S
C2126 C2118 1.378 . S
C2126 C2121 1.350 1_545 S
C2127 H2114 0.929 1_556 S
C2127 C2119 1.433 . S
C2127 N2129 1.384 . S
N2128 C2124 1.427 1_545 S
N2128 C2125 1.384 . S
N2129 C2121 1.427 . S
N2129 C2127 1.384 . S
H2130 C2136 0.930 . S
H2131 C2140 0.929 1_655 S
H2132 C2145 0.929 . S
H2133 C2143 0.929 1_554 S
H2134 C2138 0.929 . S
H2135 C2144 0.929 . S
C2136 H2130 0.930 . S
C2136 C2137 1.367 . S
C2136 C2144 1.378 . S
C2137 C2136 1.367 . S
C2137 C2145 1.433 . S
C2138 H2134 0.929 . S
C2138 C2140 1.380 . S
C2138 C2142 1.350 . S
C2139 C2142 1.463 . S
C2139 C2144 1.350 . S
C2139 N2147 1.427 . S
C2140 H2131 0.929 1_455 S
C2140 C2138 1.380 . S
C2140 C2141 1.366 1_455 S
C2141 C2140 1.366 1_655 S
C2141 C2143 1.433 1_655 S
C2142 C2138 1.350 . S
C2142 C2139 1.463 . S
C2142 N2146 1.427 . S
C2143 H2133 0.929 1_556 S
C2143 C2141 1.433 1_455 S
C2143 N2146 1.384 . S
C2144 H2135 0.929 . S
C2144 C2136 1.378 . S
C2144 C2139 1.350 . S
C2145 H2132 0.929 . S
C2145 C2137 1.433 . S
C2145 N2147 1.384 . S
N2146 C2142 1.427 . S
N2146 C2143 1.384 . S
N2147 C2139 1.427 . S
N2147 C2145 1.384 . S
H2148 C2154 0.930 . S
H2149 C2158 0.930 . S
H2150 C2163 0.929 . S
H2151 C2161 0.929 . S
H2152 C2156 0.929 . S
H2153 C2162 0.929 . S
C2154 H2148 0.930 . S
C2154 C2155 1.367 . S
C2154 C2162 1.378 . S
C2155 C2154 1.367 . S
C2155 C2163 1.433 . S
C2156 H2152 0.929 . S
C2156 C2158 1.378 . S
C2156 C2160 1.350 . S
C2157 C2160 1.463 . S
C2157 C2162 1.350 . S
C2157 N2165 1.427 . S
C2158 H2149 0.930 . S
C2158 C2156 1.378 . S
C2158 C2159 1.367 . S
C2159 C2158 1.367 . S
C2159 C2161 1.433 . S
C2160 C2156 1.350 . S
C2160 C2157 1.463 . S
C2160 N2164 1.427 . S
C2161 H2151 0.929 . S
C2161 C2159 1.433 . S
C2161 N2164 1.384 . S
C2162 H2153 0.929 . S
C2162 C2154 1.378 . S
C2162 C2157 1.350 . S
C2163 H2150 0.929 . S
C2163 C2155 1.433 . S
C2163 N2165 1.384 . S
N2164 C2160 1.427 . S
N2164 C2161 1.384 . S
N2165 C2157 1.427 . S
N2165 C2163 1.384 . S
H2166 C2172 0.930 . S
H2167 C2176 0.930 . S
H2168 C2181 0.929 . S
H2169 C2179 0.929 . S
H2170 C2174 0.929 . S
H2171 C2180 0.929 . S
C2172 H2166 0.930 . S
C2172 C2173 1.367 1_445 S
C2172 C2180 1.378 . S
C2173 C2172 1.367 1_665 S
C2173 C2181 1.433 . S
C2174 H2170 0.929 . S
C2174 C2176 1.378 . S
C2174 C2178 1.350 . S
C2175 C2178 1.463 . S
C2175 C2180 1.350 1_565 S
C2175 N2183 1.427 . S
C2176 H2167 0.930 . S
C2176 C2174 1.378 . S
C2176 C2177 1.367 . S
C2177 C2176 1.367 . S
C2177 C2179 1.433 1_565 S
C2178 C2174 1.350 . S
C2178 C2175 1.463 . S
C2178 N2182 1.427 1_565 S
C2179 H2169 0.929 . S
C2179 C2177 1.433 1_545 S
C2179 N2182 1.384 . S
C2180 H2171 0.929 . S
C2180 C2172 1.378 . S
C2180 C2175 1.350 1_545 S
C2181 H2168 0.929 . S
C2181 C2173 1.433 . S
C2181 N2183 1.384 1_655 S
N2182 C2178 1.427 1_545 S
N2182 C2179 1.384 . S
N2183 C2175 1.427 . S
N2183 C2181 1.384 1_455 S
H2184 C2190 0.930 . S
H2185 C2194 0.930 . S
H2186 C2199 0.929 . S
H2187 C2197 0.929 1_565 S
H2188 C2192 0.929 1_556 S
H2189 C2198 0.929 . S
C2190 H2184 0.930 . S
C2190 C2191 1.367 . S
C2190 C2198 1.378 . S
C2191 C2190 1.367 . S
C2191 C2199 1.433 . S
C2192 H2188 0.929 1_554 S
C2192 C2194 1.378 1_554 S
C2192 C2196 1.350 . S
C2193 C2196 1.463 . S
C2193 C2198 1.350 . S
C2193 N2201 1.427 . S
C2194 H2185 0.930 . S
C2194 C2192 1.378 1_556 S
C2194 C2195 1.367 1_556 S
C2195 C2194 1.367 1_554 S
C2195 C2197 1.433 . S
C2196 C2192 1.350 . S
C2196 C2193 1.463 . S
C2196 N2200 1.427 . S
C2197 H2187 0.929 1_545 S
C2197 C2195 1.433 . S
C2197 N2200 1.384 . S
C2198 H2189 0.929 . S
C2198 C2190 1.378 . S
C2198 C2193 1.350 . S
C2199 H2186 0.929 . S
C2199 C2191 1.433 . S
C2199 N2201 1.384 . S
N2200 C2196 1.427 . S
N2200 C2197 1.384 . S
N2201 C2193 1.427 . S
N2201 C2199 1.384 . S
H2202 C2208 0.930 1_556 S
H2203 C2212 0.930 . S
H2204 C2217 0.929 . S
H2205 C2215 0.929 . S
H2206 C2210 0.929 . S
H2207 C2216 0.929 . S
C2208 H2202 0.930 1_554 S
C2208 C2209 1.367 1_655 S
C2208 C2216 1.378 . S
C2209 C2208 1.367 1_455 S
C2209 C2217 1.433 . S
C2210 H2206 0.929 . S
C2210 C2212 1.378 . S
C2210 C2214 1.350 . S
C2211 C2214 1.463 . S
C2211 C2216 1.350 . S
C2211 N2219 1.427 . S
C2212 H2203 0.930 . S
C2212 C2210 1.378 . S
C2212 C2213 1.367 . S
C2213 C2212 1.367 . S
C2213 C2215 1.433 . S
C2214 C2210 1.350 . S
C2214 C2211 1.463 . S
C2214 N2218 1.427 . S
C2215 H2205 0.929 . S
C2215 C2213 1.433 . S
C2215 N2218 1.384 . S
C2216 H2207 0.929 . S
C2216 C2208 1.378 . S
C2216 C2211 1.350 . S
C2217 H2204 0.929 . S
C2217 C2209 1.433 . S
C2217 N2219 1.384 1_455 S
N2218 C2214 1.427 . S
N2218 C2215 1.384 . S
N2219 C2211 1.427 . S
N2219 C2217 1.384 1_655 S
H2220 C2226 0.930 . S
H2221 C2230 0.930 . S
H2222 C2235 0.929 . S
H2223 C2233 0.929 . S
H2224 C2228 0.929 . S
H2225 C2234 0.929 . S
C2226 H2220 0.930 . S
C2226 C2227 1.367 . S
C2226 C2234 1.378 . S
C2227 C2226 1.367 . S
C2227 C2235 1.433 . S
C2228 H2224 0.929 . S
C2228 C2230 1.378 . S
C2228 C2232 1.350 . S
C2229 C2232 1.463 . S
C2229 C2234 1.350 . S
C2229 N2237 1.427 . S
C2230 H2221 0.930 . S
C2230 C2228 1.378 . S
C2230 C2231 1.367 . S
C2231 C2230 1.367 . S
C2231 C2233 1.433 . S
C2232 C2228 1.350 . S
C2232 C2229 1.463 . S
C2232 N2236 1.427 . S
C2233 H2223 0.929 . S
C2233 C2231 1.433 . S
C2233 N2236 1.384 . S
C2234 H2225 0.929 . S
C2234 C2226 1.378 . S
C2234 C2229 1.350 . S
C2235 H2222 0.929 . S
C2235 C2227 1.433 . S
C2235 N2237 1.384 . S
N2236 C2232 1.427 . S
N2236 C2233 1.384 . S
N2237 C2229 1.427 . S
N2237 C2235 1.384 . S
H2238 C2244 0.930 . S
H2239 C2248 0.930 1_455 S
H2240 C2253 0.929 . S
H2241 C2251 0.929 1_455 S
H2242 C2246 0.929 . S
H2243 C2252 0.929 . S
C2244 H2238 0.930 . S
C2244 C2245 1.367 . S
C2244 C2252 1.378 . S
C2245 C2244 1.367 . S
C2245 C2253 1.433 1_545 S
C2246 H2242 0.929 . S
C2246 C2248 1.378 . S
C2246 C2250 1.350 1_565 S
C2247 C2250 1.463 . S
C2247 C2252 1.350 . S
C2247 N2255 1.427 1_545 S
C2248 H2239 0.930 1_655 S
C2248 C2246 1.378 . S
C2248 C2249 1.367 1_665 S
C2249 C2248 1.367 1_445 S
C2249 C2251 1.433 1_455 S
C2250 C2246 1.350 1_545 S
C2250 C2247 1.463 . S
C2250 N2254 1.427 . S
C2251 H2241 0.929 1_655 S
C2251 C2249 1.433 1_655 S
C2251 N2254 1.384 . S
C2252 H2243 0.929 . S
C2252 C2244 1.378 . S
C2252 C2247 1.350 . S
C2253 H2240 0.929 . S
C2253 C2245 1.433 1_565 S
C2253 N2255 1.384 . S
N2254 C2250 1.427 . S
N2254 C2251 1.384 . S
N2255 C2247 1.427 1_565 S
N2255 C2253 1.384 . S
H2256 C2262 0.930 . S
H2257 C2266 0.930 . S
H2258 C2271 0.929 . S
H2259 C2269 0.929 . S
H2260 C2264 0.929 . S
H2261 C2270 0.929 . S
C2262 H2256 0.930 . S
C2262 C2263 1.367 . S
C2262 C2270 1.378 . S
C2263 C2262 1.367 . S
C2263 C2271 1.433 . S
C2264 H2260 0.929 . S
C2264 C2266 1.378 . S
C2264 C2268 1.350 . S
C2265 C2268 1.463 . S
C2265 C2270 1.350 . S
C2265 N2273 1.427 . S
C2266 H2257 0.930 . S
C2266 C2264 1.378 . S
C2266 C2267 1.367 . S
C2267 C2266 1.367 . S
C2267 C2269 1.433 . S
C2268 C2264 1.350 . S
C2268 C2265 1.463 . S
C2268 N2272 1.427 . S
C2269 H2259 0.929 . S
C2269 C2267 1.433 . S
C2269 N2272 1.384 . S
C2270 H2261 0.929 . S
C2270 C2262 1.378 . S
C2270 C2265 1.350 . S
C2271 H2258 0.929 . S
C2271 C2263 1.433 . S
C2271 N2273 1.384 . S
N2272 C2268 1.427 . S
N2272 C2269 1.384 . S
N2273 C2265 1.427 . S
N2273 C2271 1.384 . S
H2274 C2280 0.930 . S
H2275 C2284 0.930 . S
H2276 C2289 0.929 . S
H2277 C2287 0.929 . S
H2278 C2282 0.929 . S
H2279 C2288 0.929 . S
C2280 H2274 0.930 . S
C2280 C2281 1.367 . S
C2280 C2288 1.378 . S
C2281 C2280 1.367 . S
C2281 C2289 1.433 . S
C2282 H2278 0.929 . S
C2282 C2284 1.378 . S
C2282 C2286 1.350 . S
C2283 C2286 1.463 . S
C2283 C2288 1.350 . S
C2283 N2291 1.427 . S
C2284 H2275 0.930 . S
C2284 C2282 1.378 . S
C2284 C2285 1.367 1_455 S
C2285 C2284 1.367 1_655 S
C2285 C2287 1.433 . S
C2286 C2282 1.350 . S
C2286 C2283 1.463 . S
C2286 N2290 1.427 . S
C2287 H2277 0.929 . S
C2287 C2285 1.433 . S
C2287 N2290 1.384 1_655 S
C2288 H2279 0.929 . S
C2288 C2280 1.378 . S
C2288 C2283 1.350 . S
C2289 H2276 0.929 . S
C2289 C2281 1.433 . S
C2289 N2291 1.384 . S
N2290 C2286 1.427 . S
N2290 C2287 1.384 1_455 S
N2291 C2283 1.427 . S
N2291 C2289 1.384 . S
H2292 C2298 0.930 . S
H2293 C2302 0.930 . S
H2294 C2307 0.929 . S
H2295 C2305 0.929 . S
H2296 C2300 0.929 . S
H2297 C2306 0.929 . S
C2298 H2292 0.930 . S
C2298 C2299 1.367 . S
C2298 C2306 1.378 . S
C2299 C2298 1.367 . S
C2299 C2307 1.433 . S
C2300 H2296 0.929 . S
C2300 C2302 1.378 . S
C2300 C2304 1.350 . S
C2301 C2304 1.463 . S
C2301 C2306 1.350 . S
C2301 N2309 1.427 . S
C2302 H2293 0.930 . S
C2302 C2300 1.378 . S
C2302 C2303 1.367 . S
C2303 C2302 1.367 . S
C2303 C2305 1.433 . S
C2304 C2300 1.350 . S
C2304 C2301 1.463 . S
C2304 N2308 1.427 . S
C2305 H2295 0.929 . S
C2305 C2303 1.433 . S
C2305 N2308 1.384 . S
C2306 H2297 0.929 . S
C2306 C2298 1.378 . S
C2306 C2301 1.350 . S
C2307 H2294 0.929 . S
C2307 C2299 1.433 . S
C2307 N2309 1.384 . S
N2308 C2304 1.427 . S
N2308 C2305 1.384 . S
N2309 C2301 1.427 . S
N2309 C2307 1.384 . S
H2310 C2316 0.930 . S
H2311 C2320 0.930 . S
H2312 C2325 0.929 . S
H2313 C2323 0.929 . S
H2314 C2318 0.929 . S
H2315 C2324 0.929 . S
C2316 H2310 0.930 . S
C2316 C2317 1.367 . S
C2316 C2324 1.378 . S
C2317 C2316 1.367 . S
C2317 C2325 1.433 . S
C2318 H2314 0.929 . S
C2318 C2320 1.378 . S
C2318 C2322 1.350 . S
C2319 C2322 1.463 . S
C2319 C2324 1.350 . S
C2319 N2327 1.427 . S
C2320 H2311 0.930 . S
C2320 C2318 1.378 . S
C2320 C2321 1.367 1_455 S
C2321 C2320 1.367 1_655 S
C2321 C2323 1.433 . S
C2322 C2318 1.350 . S
C2322 C2319 1.463 . S
C2322 N2326 1.427 . S
C2323 H2313 0.929 . S
C2323 C2321 1.433 . S
C2323 N2326 1.384 1_655 S
C2324 H2315 0.929 . S
C2324 C2316 1.378 . S
C2324 C2319 1.350 . S
C2325 H2312 0.929 . S
C2325 C2317 1.433 . S
C2325 N2327 1.384 . S
N2326 C2322 1.427 . S
N2326 C2323 1.384 1_455 S
N2327 C2319 1.427 . S
N2327 C2325 1.384 . S
H2328 C2334 0.930 . S
H2329 C2338 0.930 . S
H2330 C2343 0.929 . S
H2331 C2341 0.929 . S
H2332 C2336 0.929 . S
H2333 C2342 0.929 . S
C2334 H2328 0.930 . S
C2334 C2335 1.367 . S
C2334 C2342 1.378 . S
C2335 C2334 1.367 . S
C2335 C2343 1.433 . S
C2336 H2332 0.929 . S
C2336 C2338 1.378 . S
C2336 C2340 1.350 . S
C2337 C2340 1.463 . S
C2337 C2342 1.350 . S
C2337 N2345 1.427 . S
C2338 H2329 0.930 . S
C2338 C2336 1.378 . S
C2338 C2339 1.367 . S
C2339 C2338 1.367 . S
C2339 C2341 1.433 . S
C2340 C2336 1.350 . S
C2340 C2337 1.463 . S
C2340 N2344 1.427 . S
C2341 H2331 0.929 . S
C2341 C2339 1.433 . S
C2341 N2344 1.384 . S
C2342 H2333 0.929 . S
C2342 C2334 1.378 . S
C2342 C2337 1.350 . S
C2343 H2330 0.929 . S
C2343 C2335 1.433 . S
C2343 N2345 1.384 . S
N2344 C2340 1.427 . S
N2344 C2341 1.384 . S
N2345 C2337 1.427 . S
N2345 C2343 1.384 . S
H2346 C2352 0.930 . S
H2347 C2356 0.930 . S
H2348 C2361 0.929 . S
H2349 C2359 0.929 . S
H2350 C2354 0.929 . S
H2351 C2360 0.929 . S
C2352 H2346 0.930 . S
C2352 C2353 1.367 . S
C2352 C2360 1.378 1_455 S
C2353 C2352 1.367 . S
C2353 C2361 1.433 1_455 S
C2354 H2350 0.929 . S
C2354 C2356 1.378 . S
C2354 C2358 1.350 . S
C2355 C2358 1.463 . S
C2355 C2360 1.350 . S
C2355 N2363 1.427 . S
C2356 H2347 0.930 . S
C2356 C2354 1.378 . S
C2356 C2357 1.367 . S
C2357 C2356 1.367 . S
C2357 C2359 1.433 . S
C2358 C2354 1.350 . S
C2358 C2355 1.463 . S
C2358 N2362 1.427 . S
C2359 H2349 0.929 . S
C2359 C2357 1.433 . S
C2359 N2362 1.384 . S
C2360 H2351 0.929 . S
C2360 C2352 1.378 1_655 S
C2360 C2355 1.350 . S
C2361 H2348 0.929 . S
C2361 C2353 1.433 1_655 S
C2361 N2363 1.384 . S
N2362 C2358 1.427 . S
N2362 C2359 1.384 . S
N2363 C2355 1.427 . S
N2363 C2361 1.384 . S
H2364 C2370 0.930 . S
H2365 C2374 0.930 . S
H2366 C2379 0.929 . S
H2367 C2377 0.929 . S
H2368 C2372 0.929 . S
H2369 C2378 0.929 . S
C2370 H2364 0.930 . S
C2370 C2371 1.367 . S
C2370 C2378 1.378 . S
C2371 C2370 1.367 . S
C2371 C2379 1.433 . S
C2372 H2368 0.929 . S
C2372 C2374 1.378 . S
C2372 C2376 1.350 . S
C2373 C2376 1.463 . S
C2373 C2378 1.350 . S
C2373 N2381 1.427 . S
C2374 H2365 0.930 . S
C2374 C2372 1.378 . S
C2374 C2375 1.367 . S
C2375 C2374 1.367 . S
C2375 C2377 1.433 . S
C2376 C2372 1.350 . S
C2376 C2373 1.463 . S
C2376 N2380 1.427 . S
C2377 H2367 0.929 . S
C2377 C2375 1.433 . S
C2377 N2380 1.384 . S
C2378 H2369 0.929 . S
C2378 C2370 1.378 . S
C2378 C2373 1.350 . S
C2379 H2366 0.929 . S
C2379 C2371 1.433 . S
C2379 N2381 1.384 . S
N2380 C2376 1.427 . S
N2380 C2377 1.384 . S
N2381 C2373 1.427 . S
N2381 C2379 1.384 . S
H2382 C2388 0.930 . S
H2383 C2392 0.942 . S
H2384 C2397 0.929 . S
H2385 C2395 0.929 . S
H2386 C2390 0.929 . S
H2387 C2396 0.929 . S
C2388 H2382 0.930 . S
C2388 C2389 1.367 . S
C2388 C2396 1.378 . S
C2389 C2388 1.367 . S
C2389 C2397 1.433 . S
C2390 H2386 0.929 . S
C2390 C2392 1.362 1_655 S
C2390 C2394 1.350 . S
C2391 C2394 1.463 . S
C2391 C2396 1.350 . S
C2391 N2399 1.427 . S
C2392 H2383 0.942 . S
C2392 C2390 1.362 1_455 S
C2392 C2393 1.371 . S
C2393 C2392 1.371 . S
C2393 C2395 1.433 1_455 S
C2394 C2390 1.350 . S
C2394 C2391 1.463 . S
C2394 N2398 1.427 . S
C2395 H2385 0.929 . S
C2395 C2393 1.433 1_655 S
C2395 N2398 1.384 . S
C2396 H2387 0.929 . S
C2396 C2388 1.378 . S
C2396 C2391 1.350 . S
C2397 H2384 0.929 . S
C2397 C2389 1.433 . S
C2397 N2399 1.384 . S
N2398 C2394 1.427 . S
N2398 C2395 1.384 . S
N2399 C2391 1.427 . S
N2399 C2397 1.384 . S
H2400 C2406 0.930 . S
H2401 C2410 0.930 . S
H2402 C2415 0.929 . S
H2403 C2413 0.929 . S
H2404 C2408 0.929 . S
H2405 C2414 0.929 . S
C2406 H2400 0.930 . S
C2406 C2407 1.367 . S
C2406 C2414 1.378 . S
C2407 C2406 1.367 . S
C2407 C2415 1.433 1_565 S
C2408 H2404 0.929 . S
C2408 C2410 1.378 . S
C2408 C2412 1.350 1_545 S
C2409 C2412 1.463 . S
C2409 C2414 1.350 . S
C2409 N2417 1.427 1_565 S
C2410 H2401 0.930 . S
C2410 C2408 1.378 . S
C2410 C2411 1.367 1_545 S
C2411 C2410 1.367 1_565 S
C2411 C2413 1.433 . S
C2412 C2408 1.350 1_565 S
C2412 C2409 1.463 . S
C2412 N2416 1.427 . S
C2413 H2403 0.929 . S
C2413 C2411 1.433 . S
C2413 N2416 1.384 . S
C2414 H2405 0.929 . S
C2414 C2406 1.378 . S
C2414 C2409 1.350 . S
C2415 H2402 0.929 . S
C2415 C2407 1.433 1_545 S
C2415 N2417 1.384 . S
N2416 C2412 1.427 . S
N2416 C2413 1.384 . S
N2417 C2409 1.427 1_545 S
N2417 C2415 1.384 . S
H2418 C2424 0.930 . S
H2419 C2428 0.930 . S
H2420 C2433 0.929 . S
H2421 C2431 0.929 . S
H2422 C2426 0.929 . S
H2423 C2432 0.929 . S
C2424 H2418 0.930 . S
C2424 C2425 1.367 . S
C2424 C2432 1.378 . S
C2425 C2424 1.367 . S
C2425 C2433 1.433 . S
C2426 H2422 0.929 . S
C2426 C2428 1.378 . S
C2426 C2430 1.350 . S
C2427 C2430 1.463 . S
C2427 C2432 1.350 . S
C2427 N2435 1.427 . S
C2428 H2419 0.930 . S
C2428 C2426 1.378 . S
C2428 C2429 1.367 . S
C2429 C2428 1.367 . S
C2429 C2431 1.433 . S
C2430 C2426 1.350 . S
C2430 C2427 1.463 . S
C2430 N2434 1.427 . S
C2431 H2421 0.929 . S
C2431 C2429 1.433 . S
C2431 N2434 1.384 . S
C2432 H2423 0.929 . S
C2432 C2424 1.378 . S
C2432 C2427 1.350 . S
C2433 H2420 0.929 . S
C2433 C2425 1.433 . S
C2433 N2435 1.384 . S
N2434 C2430 1.427 . S
N2434 C2431 1.384 . S
N2435 C2427 1.427 . S
N2435 C2433 1.384 . S
H2436 C2442 0.930 . S
H2437 C2446 0.930 . S
H2438 C2451 0.929 . S
H2439 C2449 0.929 . S
H2440 C2444 0.929 . S
H2441 C2450 0.929 . S
C2442 H2436 0.930 . S
C2442 C2443 1.367 . S
C2442 C2450 1.378 . S
C2443 C2442 1.367 . S
C2443 C2451 1.433 . S
C2444 H2440 0.929 . S
C2444 C2446 1.378 . S
C2444 C2448 1.350 . S
C2445 C2448 1.463 . S
C2445 C2450 1.350 . S
C2445 N2453 1.427 . S
C2446 H2437 0.930 . S
C2446 C2444 1.378 . S
C2446 C2447 1.367 . S
C2447 C2446 1.367 . S
C2447 C2449 1.433 . S
C2448 C2444 1.350 . S
C2448 C2445 1.463 . S
C2448 N2452 1.427 . S
C2449 H2439 0.929 . S
C2449 C2447 1.433 . S
C2449 N2452 1.384 . S
C2450 H2441 0.929 . S
C2450 C2442 1.378 . S
C2450 C2445 1.350 . S
C2451 H2438 0.929 . S
C2451 C2443 1.433 . S
C2451 N2453 1.384 . S
N2452 C2448 1.427 . S
N2452 C2449 1.384 . S
N2453 C2445 1.427 . S
N2453 C2451 1.384 . S
H2454 C2460 0.930 . S
H2455 C2464 0.930 . S
H2456 C2469 0.929 . S
H2457 C2467 0.929 . S
H2458 C2462 0.929 . S
H2459 C2468 0.929 . S
C2460 H2454 0.930 . S
C2460 C2461 1.367 1_545 S
C2460 C2468 1.378 . S
C2461 C2460 1.367 1_565 S
C2461 C2469 1.433 . S
C2462 H2458 0.929 . S
C2462 C2464 1.378 . S
C2462 C2466 1.350 . S
C2463 C2466 1.463 . S
C2463 C2468 1.350 1_565 S
C2463 N2471 1.427 . S
C2464 H2455 0.930 . S
C2464 C2462 1.378 . S
C2464 C2465 1.367 . S
C2465 C2464 1.367 . S
C2465 C2467 1.433 1_565 S
C2466 C2462 1.350 . S
C2466 C2463 1.463 . S
C2466 N2470 1.427 1_565 S
C2467 H2457 0.929 . S
C2467 C2465 1.433 1_545 S
C2467 N2470 1.384 . S
C2468 H2459 0.929 . S
C2468 C2460 1.378 . S
C2468 C2463 1.350 1_545 S
C2469 H2456 0.929 . S
C2469 C2461 1.433 . S
C2469 N2471 1.384 . S
N2470 C2466 1.427 1_545 S
N2470 C2467 1.384 . S
N2471 C2463 1.427 . S
N2471 C2469 1.384 . S
H2472 C2478 0.930 . S
H2473 C2482 0.930 . S
H2474 C2487 0.929 . S
H2475 C2485 0.929 . S
H2476 C2480 0.929 . S
H2477 C2486 0.929 . S
C2478 H2472 0.930 . S
C2478 C2479 1.367 . S
C2478 C2486 1.378 . S
C2479 C2478 1.367 . S
C2479 C2487 1.433 1_545 S
C2480 H2476 0.929 . S
C2480 C2482 1.378 . S
C2480 C2484 1.350 1_565 S
C2481 C2484 1.463 . S
C2481 C2486 1.350 . S
C2481 N2489 1.427 1_545 S
C2482 H2473 0.930 . S
C2482 C2480 1.378 . S
C2482 C2483 1.367 1_565 S
C2483 C2482 1.367 1_545 S
C2483 C2485 1.433 . S
C2484 C2480 1.350 1_545 S
C2484 C2481 1.463 . S
C2484 N2488 1.427 . S
C2485 H2475 0.929 . S
C2485 C2483 1.433 . S
C2485 N2488 1.384 . S
C2486 H2477 0.929 . S
C2486 C2478 1.378 . S
C2486 C2481 1.350 . S
C2487 H2474 0.929 . S
C2487 C2479 1.433 1_565 S
C2487 N2489 1.384 . S
N2488 C2484 1.427 . S
N2488 C2485 1.384 . S
N2489 C2481 1.427 1_565 S
N2489 C2487 1.384 . S
H2490 C2496 0.930 . S
H2491 C2500 0.930 . S
H2492 C2505 0.929 . S
H2493 C2503 0.929 . S
H2494 C2498 0.929 . S
H2495 C2504 0.929 . S
C2496 H2490 0.930 . S
C2496 C2497 1.367 . S
C2496 C2504 1.378 . S
C2497 C2496 1.367 . S
C2497 C2505 1.433 . S
C2498 H2494 0.929 . S
C2498 C2500 1.378 . S
C2498 C2502 1.350 . S
C2499 C2502 1.463 . S
C2499 C2504 1.350 . S
C2499 N2507 1.427 . S
C2500 H2491 0.930 . S
C2500 C2498 1.378 . S
C2500 C2501 1.367 . S
C2501 C2500 1.367 . S
C2501 C2503 1.433 . S
C2502 C2498 1.350 . S
C2502 C2499 1.463 . S
C2502 N2506 1.427 . S
C2503 H2493 0.929 . S
C2503 C2501 1.433 . S
C2503 N2506 1.384 . S
C2504 H2495 0.929 . S
C2504 C2496 1.378 . S
C2504 C2499 1.350 . S
C2505 H2492 0.929 . S
C2505 C2497 1.433 . S
C2505 N2507 1.384 . S
N2506 C2502 1.427 . S
N2506 C2503 1.384 . S
N2507 C2499 1.427 . S
N2507 C2505 1.384 . S
H2508 C2514 0.930 . S
H2509 C2518 0.930 . S
H2510 C2523 0.929 . S
H2511 C2521 0.929 . S
H2512 C2516 0.929 . S
H2513 C2522 0.929 . S
C2514 H2508 0.930 . S
C2514 C2515 1.367 . S
C2514 C2522 1.378 . S
C2515 C2514 1.367 . S
C2515 C2523 1.433 . S
C2516 H2512 0.929 . S
C2516 C2518 1.378 . S
C2516 C2520 1.350 . S
C2517 C2520 1.463 . S
C2517 C2522 1.350 . S
C2517 N2525 1.427 . S
C2518 H2509 0.930 . S
C2518 C2516 1.378 . S
C2518 C2519 1.367 . S
C2519 C2518 1.367 . S
C2519 C2521 1.433 . S
C2520 C2516 1.350 . S
C2520 C2517 1.463 . S
C2520 N2524 1.427 . S
C2521 H2511 0.929 . S
C2521 C2519 1.433 . S
C2521 N2524 1.384 . S
C2522 H2513 0.929 . S
C2522 C2514 1.378 . S
C2522 C2517 1.350 . S
C2523 H2510 0.929 . S
C2523 C2515 1.433 . S
C2523 N2525 1.384 . S
N2524 C2520 1.427 . S
N2524 C2521 1.384 . S
N2525 C2517 1.427 . S
N2525 C2523 1.384 . S
H2526 C2532 0.930 1_565 S
H2527 C2536 0.930 . S
H2528 C2541 0.929 . S
H2529 C2539 0.929 . S
H2530 C2534 0.929 . S
H2531 C2540 0.929 . S
C2532 H2526 0.930 1_545 S
C2532 C2533 1.367 . S
C2532 C2540 1.378 . S
C2533 C2532 1.367 . S
C2533 C2541 1.433 . S
C2534 H2530 0.929 . S
C2534 C2536 1.378 . S
C2534 C2538 1.350 . S
C2535 C2538 1.463 . S
C2535 C2540 1.350 . S
C2535 N2543 1.427 . S
C2536 H2527 0.930 . S
C2536 C2534 1.378 . S
C2536 C2537 1.367 . S
C2537 C2536 1.367 . S
C2537 C2539 1.433 . S
C2538 C2534 1.350 . S
C2538 C2535 1.463 . S
C2538 N2542 1.427 . S
C2539 H2529 0.929 . S
C2539 C2537 1.433 . S
C2539 N2542 1.384 . S
C2540 H2531 0.929 . S
C2540 C2532 1.378 . S
C2540 C2535 1.350 . S
C2541 H2528 0.929 . S
C2541 C2533 1.433 . S
C2541 N2543 1.384 . S
N2542 C2538 1.427 . S
N2542 C2539 1.384 . S
N2543 C2535 1.427 . S
N2543 C2541 1.384 . S
H2544 C2550 0.930 . S
H2545 C2554 0.930 . S
H2546 C2559 0.929 . S
H2547 C2557 0.929 . S
H2548 C2552 0.929 . S
H2549 C2558 0.929 . S
C2550 H2544 0.930 . S
C2550 C2551 1.367 . S
C2550 C2558 1.378 . S
C2551 C2550 1.367 . S
C2551 C2559 1.433 . S
C2552 H2548 0.929 . S
C2552 C2554 1.378 . S
C2552 C2556 1.350 . S
C2553 C2556 1.463 . S
C2553 C2558 1.350 . S
C2553 N2561 1.427 . S
C2554 H2545 0.930 . S
C2554 C2552 1.378 . S
C2554 C2555 1.367 . S
C2555 C2554 1.367 . S
C2555 C2557 1.433 1_556 S
C2556 C2552 1.350 . S
C2556 C2553 1.463 . S
C2556 N2560 1.427 . S
C2557 H2547 0.929 . S
C2557 C2555 1.433 1_554 S
C2557 N2560 1.384 1_554 S
C2558 H2549 0.929 . S
C2558 C2550 1.378 . S
C2558 C2553 1.350 . S
C2559 H2546 0.929 . S
C2559 C2551 1.433 . S
C2559 N2561 1.384 . S
N2560 C2556 1.427 . S
N2560 C2557 1.384 1_556 S
N2561 C2553 1.427 . S
N2561 C2559 1.384 . S
H2562 C2568 0.930 . S
H2563 C2572 0.930 . S
H2564 C2577 0.929 . S
H2565 C2575 0.929 . S
H2566 C2570 0.929 . S
H2567 C2576 0.929 . S
C2568 H2562 0.930 . S
C2568 C2569 1.367 . S
C2568 C2576 1.378 . S
C2569 C2568 1.367 . S
C2569 C2577 1.433 . S
C2570 H2566 0.929 . S
C2570 C2572 1.378 . S
C2570 C2574 1.350 . S
C2571 C2574 1.463 . S
C2571 C2576 1.350 . S
C2571 N2579 1.427 . S
C2572 H2563 0.930 . S
C2572 C2570 1.378 . S
C2572 C2573 1.367 . S
C2573 C2572 1.367 . S
C2573 C2575 1.433 . S
C2574 C2570 1.350 . S
C2574 C2571 1.463 . S
C2574 N2578 1.427 . S
C2575 H2565 0.929 . S
C2575 C2573 1.433 . S
C2575 N2578 1.384 . S
C2576 H2567 0.929 . S
C2576 C2568 1.378 . S
C2576 C2571 1.350 . S
C2577 H2564 0.929 . S
C2577 C2569 1.433 . S
C2577 N2579 1.384 . S
N2578 C2574 1.427 . S
N2578 C2575 1.384 . S
N2579 C2571 1.427 . S
N2579 C2577 1.384 . S
H2580 C2586 0.930 . S
H2581 C2590 0.930 . S
H2582 C2595 0.929 . S
H2583 C2593 0.929 . S
H2584 C2588 0.929 . S
H2585 C2594 0.929 . S
C2586 H2580 0.930 . S
C2586 C2587 1.367 . S
C2586 C2594 1.378 . S
C2587 C2586 1.367 . S
C2587 C2595 1.433 . S
C2588 H2584 0.929 . S
C2588 C2590 1.378 . S
C2588 C2592 1.350 . S
C2589 C2592 1.463 . S
C2589 C2594 1.350 . S
C2589 N2597 1.427 . S
C2590 H2581 0.930 . S
C2590 C2588 1.378 . S
C2590 C2591 1.367 . S
C2591 C2590 1.367 . S
C2591 C2593 1.433 . S
C2592 C2588 1.350 . S
C2592 C2589 1.463 . S
C2592 N2596 1.427 . S
C2593 H2583 0.929 . S
C2593 C2591 1.433 . S
C2593 N2596 1.384 . S
C2594 H2585 0.929 . S
C2594 C2586 1.378 . S
C2594 C2589 1.350 . S
C2595 H2582 0.929 . S
C2595 C2587 1.433 . S
C2595 N2597 1.384 . S
N2596 C2592 1.427 . S
N2596 C2593 1.384 . S
N2597 C2589 1.427 . S
N2597 C2595 1.384 . S
H2598 C2604 0.930 . S
H2599 C2608 0.930 . S
H2600 C2613 0.929 . S
H2601 C2611 0.929 . S
H2602 C2606 0.929 . S
H2603 C2612 0.929 . S
C2604 H2598 0.930 . S
C2604 C2605 1.367 . S
C2604 C2612 1.378 . S
C2605 C2604 1.367 . S
C2605 C2613 1.433 . S
C2606 H2602 0.929 . S
C2606 C2608 1.378 . S
C2606 C2610 1.350 . S
C2607 C2610 1.463 . S
C2607 C2612 1.350 . S
C2607 N2615 1.427 . S
C2608 H2599 0.930 . S
C2608 C2606 1.378 . S
C2608 C2609 1.367 . S
C2609 C2608 1.367 . S
C2609 C2611 1.433 . S
C2610 C2606 1.350 . S
C2610 C2607 1.463 . S
C2610 N2614 1.427 . S
C2611 H2601 0.929 . S
C2611 C2609 1.433 . S
C2611 N2614 1.384 . S
C2612 H2603 0.929 . S
C2612 C2604 1.378 . S
C2612 C2607 1.350 . S
C2613 H2600 0.929 . S
C2613 C2605 1.433 . S
C2613 N2615 1.384 . S
N2614 C2610 1.427 . S
N2614 C2611 1.384 . S
N2615 C2607 1.427 . S
N2615 C2613 1.384 . S
H2616 C2622 0.930 . S
H2617 C2626 0.930 . S
H2618 C2631 0.929 . S
H2619 C2629 0.929 . S
H2620 C2624 0.929 1_556 S
H2621 C2630 0.929 . S
C2622 H2616 0.930 . S
C2622 C2623 1.367 . S
C2622 C2630 1.378 . S
C2623 C2622 1.367 . S
C2623 C2631 1.433 . S
C2624 H2620 0.929 1_554 S
C2624 C2626 1.378 1_554 S
C2624 C2628 1.350 . S
C2625 C2628 1.463 . S
C2625 C2630 1.350 . S
C2625 N2633 1.427 . S
C2626 H2617 0.930 . S
C2626 C2624 1.378 1_556 S
C2626 C2627 1.367 1_556 S
C2627 C2626 1.367 1_554 S
C2627 C2629 1.433 . S
C2628 C2624 1.350 . S
C2628 C2625 1.463 . S
C2628 N2632 1.427 . S
C2629 H2619 0.929 . S
C2629 C2627 1.433 . S
C2629 N2632 1.384 . S
C2630 H2621 0.929 . S
C2630 C2622 1.378 . S
C2630 C2625 1.350 . S
C2631 H2618 0.929 . S
C2631 C2623 1.433 . S
C2631 N2633 1.384 . S
N2632 C2628 1.427 . S
N2632 C2629 1.384 . S
N2633 C2625 1.427 . S
N2633 C2631 1.384 . S
H2634 C2640 0.930 . S
H2635 C2644 0.930 . S
H2636 C2649 0.929 . S
H2637 C2647 0.929 . S
H2638 C2642 0.924 1_556 S
H2639 C2648 0.929 . S
C2640 H2634 0.930 . S
C2640 C2641 1.367 . S
C2640 C2648 1.378 . S
C2641 C2640 1.367 . S
C2641 C2649 1.433 . S
C2642 H2638 0.924 1_554 S
C2642 C2644 1.378 1_554 S
C2642 C2646 1.350 . S
C2643 C2646 1.463 . S
C2643 C2648 1.350 . S
C2643 N2651 1.427 . S
C2644 H2635 0.930 . S
C2644 C2642 1.378 1_556 S
C2644 C2645 1.367 1_556 S
C2645 C2644 1.367 1_554 S
C2645 C2647 1.433 . S
C2646 C2642 1.350 . S
C2646 C2643 1.463 . S
C2646 N2650 1.427 . S
C2647 H2637 0.929 . S
C2647 C2645 1.433 . S
C2647 N2650 1.384 . S
C2648 H2639 0.929 . S
C2648 C2640 1.378 . S
C2648 C2643 1.350 . S
C2649 H2636 0.929 . S
C2649 C2641 1.433 . S
C2649 N2651 1.384 . S
N2650 C2646 1.427 . S
N2650 C2647 1.384 . S
N2651 C2643 1.427 . S
N2651 C2649 1.384 . S
H2652 C2658 0.930 . S
H2653 C2662 0.930 . S
H2654 C2667 0.929 . S
H2655 C2665 0.929 . S
H2656 C2660 0.929 . S
H2657 C2666 0.929 . S
C2658 H2652 0.930 . S
C2658 C2659 1.367 . S
C2658 C2666 1.378 . S
C2659 C2658 1.367 . S
C2659 C2667 1.433 . S
C2660 H2656 0.929 . S
C2660 C2662 1.378 . S
C2660 C2664 1.350 . S
C2661 C2664 1.463 . S
C2661 C2666 1.350 . S
C2661 N2669 1.427 . S
C2662 H2653 0.930 . S
C2662 C2660 1.378 . S
C2662 C2663 1.367 . S
C2663 C2662 1.367 . S
C2663 C2665 1.433 . S
C2664 C2660 1.350 . S
C2664 C2661 1.463 . S
C2664 N2668 1.427 . S
C2665 H2655 0.929 . S
C2665 C2663 1.433 . S
C2665 N2668 1.384 . S
C2666 H2657 0.929 . S
C2666 C2658 1.378 . S
C2666 C2661 1.350 . S
C2667 H2654 0.929 . S
C2667 C2659 1.433 . S
C2667 N2669 1.384 . S
N2668 C2664 1.427 . S
N2668 C2665 1.384 . S
N2669 C2661 1.427 . S
N2669 C2667 1.384 . S
H2670 C2676 0.930 . S
H2671 C2680 0.930 . S
H2672 C2685 0.929 . S
H2673 C2683 0.929 . S
H2674 C2678 0.929 . S
H2675 C2684 0.929 . S
C2676 H2670 0.930 . S
C2676 C2677 1.367 . S
C2676 C2684 1.378 . S
C2677 C2676 1.367 . S
C2677 C2685 1.433 . S
C2678 H2674 0.929 . S
C2678 C2680 1.378 . S
C2678 C2682 1.350 . S
C2679 C2682 1.463 . S
C2679 C2684 1.350 . S
C2679 N2687 1.427 . S
C2680 H2671 0.930 . S
C2680 C2678 1.378 . S
C2680 C2681 1.367 . S
C2681 C2680 1.367 . S
C2681 C2683 1.433 . S
C2682 C2678 1.350 . S
C2682 C2679 1.463 . S
C2682 N2686 1.427 . S
C2683 H2673 0.929 . S
C2683 C2681 1.433 . S
C2683 N2686 1.384 . S
C2684 H2675 0.929 . S
C2684 C2676 1.378 . S
C2684 C2679 1.350 . S
C2685 H2672 0.929 . S
C2685 C2677 1.433 . S
C2685 N2687 1.384 . S
N2686 C2682 1.427 . S
N2686 C2683 1.384 . S
N2687 C2679 1.427 . S
N2687 C2685 1.384 . S
C967 C751 2.075 . S
C971 C1 2.077 . S
C985 C721 2.075 . S
C989 C31 2.076 . S
C1003 C811 2.075 . S
C1007 C61 2.076 . S
C1021 C781 2.074 . S
C1025 C91 2.075 . S
C1039 C130 2.072 . S
C1043 C880 2.074 . S
C1057 C160 2.071 . S
C1061 C850 2.071 . S
C1075 C190 2.076 . S
C1079 C940 2.074 . S
C1093 C910 2.072 . S
C1097 C220 2.074 . S
C1111 C511 2.076 . S
C1115 C241 2.075 . S
C1129 C481 2.076 . S
C1133 C271 2.077 . S
C1147 C571 2.073 . S
C1151 C301 2.075 . S
C1165 C541 2.071 . S
C1169 C331 2.072 . S
C1183 C370 2.076 . S
C1187 C640 2.074 . S
C1201 C610 2.077 . S
C1205 C400 2.075 . S
C1219 C430 2.071 . S
C1223 C700 2.073 . S
C1237 C670 2.076 . S
C1241 C460 2.074 . S
C1255 C16 2.714 . S
C1259 C627 2.714 . S
C1273 C417 2.711 . S
C1277 C46 2.711 . S
C1291 C927 2.711 . S
C1295 C76 2.711 . S
C1309 C106 2.714 . S
C1313 C237 2.714 . S
C1327 C147 2.712 . S
C1331 C496 2.712 . S
C1345 C177 2.712 . S
C1349 C286 2.712 . S
C1363 C207 2.707 . S
C1367 C796 2.707 . S
C1381 C867 2.710 . S
C1385 C256 2.710 . S
C1399 C687 2.710 . S
C1403 C316 2.710 . S
C1417 C477 2.710 . S
C1421 C346 2.710 . S
C1435 C736 2.711 . S
C1439 C387 2.711 . S
C1453 C447 2.711 . S
C1457 C556 2.711 . S
C1471 C897 2.710 . S
C1475 C526 2.710 . S
C1489 C586 2.714 . S
C1493 C717 2.714 . S
C1507 C766 2.713 . S
C1511 C657 2.713 . S
C1525 C826 2.708 . S
C1529 C957 2.708 . S
C1543 C27 2.331 1_556 S
C1547 C597 2.329 . S
C1561 C57 2.329 1_556 S
C1565 C567 2.328 . S
C1579 C87 2.329 . S
C1583 C537 2.328 . S
C1597 C117 2.329 . S
C1601 C507 2.328 . S
C1615 C136 2.328 1_554 S
C1619 C706 2.328 . S
C1633 C166 2.329 1_554 S
C1637 C676 2.328 . S
C1651 C196 2.328 . S
C1655 C646 2.328 . S
C1669 C226 2.330 . S
C1673 C616 2.328 . S
C1687 C267 2.330 . S
C1691 C837 2.328 . S
C1705 C297 2.327 . S
C1709 C807 2.329 . S
C1723 C327 2.328 . S
C1727 C777 2.329 1_556 S
C1741 C357 2.331 . S
C1745 C747 2.331 1_556 S
C1759 C946 2.328 . S
C1763 C376 2.330 . S
C1777 C916 2.329 . S
C1781 C406 2.327 . S
C1795 C886 2.329 1_554 S
C1799 C436 2.328 . S
C1813 C856 2.328 1_554 S
C1817 C466 2.328 . S
C1831 C70 1.417 . S
C1835 C10 1.420 . S
C1849 C100 1.417 . S
C1853 C40 1.423 . S
C1867 C181 1.424 . S
C1871 C121 1.428 . S
C1885 C151 1.422 . S
C1889 C211 1.417 . S
C1903 C310 1.417 . S
C1907 C250 1.420 . S
C1921 C280 1.417 . S
C1925 C340 1.420 . S
C1939 C421 1.420 . S
C1943 C361 1.417 . S
C1957 C391 1.424 . S
C1961 C451 1.428 . S
C1975 C490 1.417 . S
C1979 C550 1.421 . S
C1993 C520 1.428 . S
C1997 C580 1.424 . S
C2011 C661 1.422 . S
C2015 C601 1.417 . S
C2029 C631 1.420 . S
C2033 C691 1.417 . S
C2047 C730 1.427 . S
C2051 C790 1.420 . S
C2065 C820 1.417 . S
C2069 C760 1.422 . S
C2083 C841 1.428 . S
C2087 C901 1.423 . S
C2101 C871 1.422 . S
C2105 C931 1.417 . S
C2119 N14 0.584 1_565 S
C2123 N224 0.621 . S
C2137 N914 0.620 . S
C2141 N44 0.590 . S
C2155 N74 0.597 . S
C2159 N404 0.580 . S
C2173 N104 0.565 1_565 S
C2177 N614 0.596 . S
C2191 N96 0.583 . S
C2195 N126 0.572 1_545 S
C2209 N156 0.572 . S
C2213 N786 0.602 . S
C2227 N276 0.579 . S
C2231 N186 0.587 . S
C2245 N486 0.617 . S
C2249 N216 0.575 1_545 S
C2263 N254 0.607 . S
C2267 N464 0.588 . S
C2281 N674 0.592 . S
C2285 N284 0.573 . S
C2299 N314 0.586 . S
C2303 N164 0.580 . S
C2317 N854 0.586 . S
C2321 N344 0.576 . S
C2335 N366 0.601 . S
C2339 N336 0.582 . S
C2353 N396 0.611 . S
C2357 N546 0.605 . S
C2371 N426 0.577 . S
C2375 N36 0.613 . S
C2389 N726 0.621 . S
C2393 N456 0.591 . S
C2407 N494 0.593 1_565 S
C2411 N704 0.582 . S
C2425 N524 0.597 . S
C2429 N434 0.580 . S
C2443 N554 0.594 . S
C2447 N884 0.579 . S
C2461 N584 0.576 1_565 S
C2465 N134 0.618 . S
C2479 N606 0.604 1_545 S
C2483 N576 0.605 . S
C2497 N306 0.609 . S
C2501 N636 0.574 . S
C2515 N756 0.612 . S
C2519 N666 0.577 . S
C2533 N696 0.568 1_545 S
C2537 N6 0.588 . S
C2551 N944 0.607 . S
C2555 N734 0.611 . S
C2569 N194 0.611 . S
C2573 N764 0.576 . S
C2587 N644 0.588 . S
C2591 N794 0.607 . S
C2605 N824 0.587 . S
C2609 N374 0.579 . S
C2623 N816 0.579 . S
C2627 N846 0.586 . S
C2641 N66 0.579 . S
C2645 N876 0.587 . S
C2659 N516 0.579 . S
C2663 N906 0.588 . S
C2677 N936 0.587 . S
C2681 N246 0.579 . S
