# Generated by pormake.
# Topology dft, (4)-cn, num edge types: 1
# Building blocks:
#     Node 0, Type 0, BuildingBlock: GALJAG_clean_sbu_0, # of connection points: 4
#     Node 1, Type 0, BuildingBlock: GALJAG_clean_sbu_0, # of connection points: 4
#     Node 2, Type 0, BuildingBlock: GALJAG_clean_sbu_0, # of connection points: 4
#     Node 3, Type 0, BuildingBlock: GALJAG_clean_sbu_0, # of connection points: 4
#     Node 4, Type 0, BuildingBlock: GALJAG_clean_sbu_0, # of connection points: 4
#     Node 5, Type 0, BuildingBlock: GALJAG_clean_sbu_0, # of connection points: 4
#     Node 6, Type 0, BuildingBlock: GALJAG_clean_sbu_0, # of connection points: 4
#     Node 7, Type 0, BuildingBlock: GALJAG_clean_sbu_0, # of connection points: 4
#     Edge 8, Type (0, 0), BuildingBlock: UVAHIK_clean_linker_0, # of connection points: 2
#     Edge 9, Type (0, 0), BuildingBlock: UVAHIK_clean_linker_0, # of connection points: 2
#     Edge 10, Type (0, 0), BuildingBlock: UVAHIK_clean_linker_0, # of connection points: 2
#     Edge 11, Type (0, 0), BuildingBlock: UVAHIK_clean_linker_0, # of connection points: 2
#     Edge 12, Type (0, 0), BuildingBlock: UVAHIK_clean_linker_0, # of connection points: 2
#     Edge 13, Type (0, 0), BuildingBlock: UVAHIK_clean_linker_0, # of connection points: 2
#     Edge 14, Type (0, 0), BuildingBlock: UVAHIK_clean_linker_0, # of connection points: 2
#     Edge 15, Type (0, 0), BuildingBlock: UVAHIK_clean_linker_0, # of connection points: 2
#     Edge 16, Type (0, 0), BuildingBlock: UVAHIK_clean_linker_0, # of connection points: 2
#     Edge 17, Type (0, 0), BuildingBlock: UVAHIK_clean_linker_0, # of connection points: 2
#     Edge 18, Type (0, 0), BuildingBlock: UVAHIK_clean_linker_0, # of connection points: 2
#     Edge 19, Type (0, 0), BuildingBlock: UVAHIK_clean_linker_0, # of connection points: 2
#     Edge 20, Type (0, 0), BuildingBlock: UVAHIK_clean_linker_0, # of connection points: 2
#     Edge 21, Type (0, 0), BuildingBlock: UVAHIK_clean_linker_0, # of connection points: 2
#     Edge 22, Type (0, 0), BuildingBlock: UVAHIK_clean_linker_0, # of connection points: 2
#     Edge 23, Type (0, 0), BuildingBlock: UVAHIK_clean_linker_0, # of connection points: 2
# Relax obj value: 0.096
# Max RMSD: 0.146
# Mean RMSD: 0.146
data_MOF--net-dft--node1-GALJAG_clean_sbu_0--edge1-UVAHIK_clean_linker_0
_symmetry_space_group_name_H-M    P1
_symmetry_Int_Tables_number       1
_symmetry_cell_setting            triclinic
loop_
_symmetry_equiv_pos_as_xyz
'x, y, z'
_cell_length_a     43.43848
_cell_length_b     43.413706
_cell_length_c     58.2169
_cell_angle_alpha  89.924215
_cell_angle_beta   89.984349
_cell_angle_gamma 89.942321
loop_
_atom_site_label
_atom_site_type_symbol
_atom_site_fract_x
_atom_site_fract_y
_atom_site_fract_z
_atom_type_partial_charge
In0 In 0.31161 0.03076 0.1561 0.0
O1 O 0.35708 0.05679 0.15335 0.0
O2 O 0.35572 0.01659 0.1742 0.0
C3 C 0.28032 0.07291 0.18099 0.0
C4 C 0.31129 0.03121 0.10973 0.0
C5 C 0.28327 0.97816 0.16853 0.0
O6 O 0.30362 0.05899 0.1887 0.0
O7 O 0.27304 0.06578 0.16073 0.0
O8 O 0.31213 0.98115 0.16889 0.0
O9 O 0.26874 0.0016 0.16168 0.0
C10 C 0.37157 0.03845 0.16626 0.0
O11 O 0.31602 0.00709 0.12126 0.0
O12 O 0.30686 0.05509 0.12156 0.0
In13 In 0.03463 0.31423 0.67025 0.0
O14 O 0.00654 0.35811 0.6649 0.0
O15 O 0.04304 0.35925 0.68914 0.0
C16 C 0.99367 0.27482 0.68902 0.0
C17 C 0.03794 0.30972 0.62415 0.0
C18 C 0.0893 0.29862 0.6887 0.0
O19 O 0.98873 0.30339 0.68767 0.0
O20 O 0.01892 0.26615 0.68054 0.0
O21 O 0.08463 0.29895 0.66733 0.0
O22 O 0.06641 0.30629 0.70076 0.0
C23 C 0.02175 0.37376 0.67917 0.0
O24 O 0.0542 0.32819 0.6356 0.0
O25 O 0.01973 0.29349 0.63594 0.0
In26 In 0.76257 0.05011 0.17163 0.0
O27 O 0.7173 0.02589 0.17983 0.0
O28 O 0.71537 0.07235 0.16841 0.0
C29 C 0.79904 0.00759 0.1918 0.0
C30 C 0.76808 0.04509 0.1257 0.0
C31 C 0.78291 0.10075 0.19358 0.0
O32 O 0.77168 0.01238 0.19812 0.0
O33 O 0.80789 0.02404 0.17521 0.0
O34 O 0.79212 0.09315 0.17386 0.0
O35 O 0.76339 0.08275 0.20234 0.0
C36 C 0.70075 0.04888 0.17498 0.0
O37 O 0.7704 0.07037 0.13616 0.0
O38 O 0.76292 0.0221 0.13842 0.0
In39 In 0.02187 0.7633 0.66138 0.0
O40 O 0.00835 0.77918 0.62558 0.0
O41 O 0.05154 0.75676 0.62933 0.0
C42 C 0.9699 0.78111 0.6829 0.0
C43 C 0.01879 0.70193 0.66801 0.0
C44 C 0.06493 0.80078 0.67953 0.0
O45 O 0.97309 0.78272 0.66142 0.0
O46 O 0.99293 0.77063 0.69352 0.0
O47 O 0.06642 0.77183 0.68095 0.0
O48 O 0.04186 0.81088 0.66872 0.0
C49 C 0.03251 0.76952 0.616 0.0
O50 O 0.03802 0.71877 0.67822 0.0
O51 O 0.00133 0.71599 0.65424 0.0
In52 In 0.31094 0.04505 0.817 0.0
O53 O 0.30192 0.06495 0.85239 0.0
O54 O 0.31312 0.01733 0.85031 0.0
C55 C 0.29114 0.09718 0.7967 0.0
C56 C 0.37268 0.04226 0.81396 0.0
C57 C 0.27436 0.00361 0.79582 0.0
O58 O 0.28083 0.08788 0.81572 0.0
O59 O 0.31135 0.08008 0.78781 0.0
O60 O 0.29989 0.01203 0.78769 0.0
O61 O 0.26739 0.01584 0.81475 0.0
C62 C 0.30656 0.04001 0.86297 0.0
O63 O 0.35572 0.01945 0.80955 0.0
O64 O 0.35848 0.06635 0.81976 0.0
In65 In 0.04052 0.30835 0.33232 0.0
O66 O 0.06304 0.35468 0.32487 0.0
O67 O 0.01511 0.35422 0.33214 0.0
C68 C 0.08397 0.27316 0.31198 0.0
C69 C 0.0483 0.30084 0.37797 0.0
C70 C 0.98816 0.2908 0.31141 0.0
O71 O 0.08029 0.30128 0.30731 0.0
O72 O 0.0659 0.26279 0.32706 0.0
O73 O 0.9905 0.29297 0.33294 0.0
O74 O 0.01226 0.29751 0.30039 0.0
C75 C 0.03854 0.36999 0.32718 0.0
O76 O 0.02899 0.2856 0.36654 0.0
O77 O 0.06411 0.31951 0.36632 0.0
In78 In 0.76349 0.02262 0.83395 0.0
O79 O 0.77008 0.00101 0.86923 0.0
O80 O 0.77152 0.04983 0.86691 0.0
C81 C 0.77758 0.97032 0.81144 0.0
C82 C 0.70196 0.02729 0.82916 0.0
C83 C 0.80093 0.06499 0.81477 0.0
O84 O 0.78954 0.97736 0.83046 0.0
O85 O 0.7584 0.9896 0.80382 0.0
O86 O 0.77361 0.07101 0.8206 0.0
O87 O 0.8095 0.03782 0.819 0.0
C88 C 0.77306 0.0263 0.8796 0.0
O89 O 0.72055 0.03992 0.81544 0.0
O90 O 0.7144 0.0125 0.84532 0.0
In91 In 0.04916 0.76157 0.32434 0.0
O92 O 0.07497 0.76284 0.35847 0.0
O93 O 0.02662 0.76994 0.35911 0.0
C94 C 0.09662 0.78046 0.29822 0.0
C95 C 0.04373 0.69993 0.32138 0.0
C96 C 0.00603 0.79874 0.30586 0.0
O97 O 0.09284 0.78945 0.31863 0.0
O98 O 0.07653 0.76186 0.29105 0.0
O99 O 0.00751 0.77035 0.30136 0.0
O100 O 0.02607 0.80824 0.31983 0.0
C101 C 0.0513 0.76797 0.3704 0.0
O102 O 0.02063 0.71744 0.32296 0.0
O103 O 0.06934 0.71353 0.32131 0.0
C104 C 0.31637 0.00432 0.07197 0.0
C105 C 0.31081 0.03146 0.08441 0.0
C106 C 0.31576 0.0046 0.04798 0.0
C107 C 0.32223 0.05708 -0.00166 0.0
H108 H 0.28277 0.99053 0.96514 0.0
C109 C 0.29882 0.06424 0.90136 0.0
C110 C 0.30544 0.03794 0.88824 0.0
C111 C 0.29905 0.0628 0.92529 0.0
C112 C 0.29414 0.00911 0.97418 0.0
H113 H 0.30012 0.08012 0.08159 0.0
H114 H 0.29873 0.08056 0.03974 0.0
H115 H 0.2843 0.98929 0.00705 0.0
H116 H 0.31703 0.98939 0.88979 0.0
H117 H 0.31758 0.9869 0.93173 0.0
H118 H 0.332 0.07695 0.96552 0.0
C119 C 0.30399 0.05915 0.04847 0.0
C120 C 0.29504 0.0084 -0.00184 0.0
C121 C 0.30462 0.05887 0.07244 0.0
C122 C 0.3118 0.01002 0.8995 0.0
C123 C 0.31198 0.00856 0.92348 0.0
C124 C 0.32129 0.05781 0.97439 0.0
C125 C 0.30958 0.03203 0.03597 0.0
C126 C 0.309 0.03245 0.0105 0.0
C127 C 0.30589 0.03503 0.93662 0.0
C128 C 0.30713 0.03391 0.96205 0.0
H129 H 0.32127 0.98287 0.08077 0.0
H130 H 0.32053 0.98341 0.03884 0.0
H131 H 0.33364 0.07567 0.00733 0.0
H132 H 0.29371 0.08605 0.89314 0.0
H133 H 0.29378 0.08346 0.93495 0.0
C134 C 0.06147 0.32568 0.58692 0.0
C135 C 0.04036 0.30725 0.59896 0.0
C136 C 0.06386 0.32357 0.56308 0.0
C137 C 0.0465 0.27283 0.51399 0.0
H138 H 0.05337 0.34845 0.47883 0.0
C139 C 0.03144 0.27841 0.41544 0.0
C140 C 0.0508 0.29842 0.40316 0.0
C141 C 0.03205 0.2779 0.43941 0.0
C142 C 0.05191 0.3271 0.48841 0.0
H143 H 0.0053 0.27205 0.59558 0.0
H144 H 0.00922 0.26858 0.55379 0.0
H145 H 0.05024 0.35083 0.52053 0.0
H146 H 0.08669 0.33285 0.40623 0.0
H147 H 0.08797 0.33177 0.44812 0.0
H148 H 0.0479 0.24916 0.48176 0.0
C149 C 0.02418 0.2844 0.56284 0.0
C150 C 0.05008 0.32846 0.51231 0.0
C151 C 0.02179 0.28652 0.58672 0.0
C152 C 0.07141 0.31727 0.41526 0.0
C153 C 0.072 0.31679 0.43923 0.0
C154 C 0.04832 0.27147 0.49005 0.0
C155 C 0.04517 0.303 0.55076 0.0
C156 C 0.04732 0.30136 0.52537 0.0
C157 C 0.052 0.29744 0.45157 0.0
C158 C 0.05101 0.29861 0.47701 0.0
H159 H 0.07621 0.34176 0.59592 0.0
H160 H 0.08056 0.33789 0.55431 0.0
H161 H 0.04481 0.25153 0.52361 0.0
H162 H 0.01529 0.26364 0.40654 0.0
H163 H 0.01616 0.26295 0.44843 0.0
C164 C 0.77544 0.00137 0.91824 0.0
C165 C 0.77657 0.02819 0.90475 0.0
C166 C 0.77687 0.00324 0.94215 0.0
C167 C 0.76237 0.05749 0.98947 0.0
H168 H 0.80669 -0.0028 0.02595 0.0
C169 C 0.77582 0.06949 0.08733 0.0
C170 C 0.771 0.04283 0.10052 0.0
C171 C 0.77806 0.06765 0.06346 0.0
C172 C 0.79401 0.01404 0.01597 0.0
H173 H 0.781 0.07791 0.90559 0.0
H174 H 0.78397 0.08118 0.94737 0.0
H175 H 0.80864 0.99438 0.98408 0.0
H176 H 0.76507 0.99328 0.09919 0.0
H177 H 0.76882 0.99007 0.05736 0.0
H178 H 0.74767 0.07712 0.02131 0.0
C179 C 0.78142 0.05874 0.93949 0.0
C180 C 0.79512 0.01244 0.99202 0.0
C181 C 0.77991 0.05686 0.91558 0.0
C182 C 0.76879 0.01421 0.08943 0.0
C183 C 0.77112 0.01236 0.06552 0.0
C184 C 0.76133 0.05914 0.01338 0.0
C185 C 0.77953 0.03198 0.95306 0.0
C186 C 0.77924 0.03411 0.9785 0.0
C187 C 0.77558 0.0391 0.05229 0.0
C188 C 0.77707 0.0374 0.02689 0.0
H189 H 0.77281 0.97894 0.91035 0.0
H190 H 0.775 0.98223 0.9521 0.0
H191 H 0.74939 0.07419 0.97957 0.0
H192 H 0.77775 0.09186 0.09542 0.0
H193 H 0.78191 0.0886 0.05375 0.0
C194 C 0.07946 0.76467 0.40778 0.0
C195 C 0.05226 0.77099 0.39561 0.0
C196 C 0.08001 0.76667 0.43174 0.0
C197 C 0.03963 0.8013 0.48087 0.0
H198 H 0.07384 0.73304 0.51553 0.0
C199 C 0.01422 0.784 0.57685 0.0
C200 C 0.03761 0.77232 0.59104 0.0
C201 C 0.01844 0.78577 0.55313 0.0
C202 C 0.06468 0.75255 0.50615 0.0
H203 H 0.00446 0.7848 0.39882 0.0
H204 H 0.00546 0.78843 0.44062 0.0
H205 H 0.07706 0.7329 0.47371 0.0
H206 H 0.08399 0.75387 0.59167 0.0
H207 H 0.09164 0.75747 0.55018 0.0
H208 H 0.02717 0.82099 0.51321 0.0
C209 C 0.02637 0.78205 0.43167 0.0
C210 C 0.06648 0.75242 0.48219 0.0
C211 C 0.02576 0.77979 0.40776 0.0
C212 C 0.06551 0.76285 0.58111 0.0
C213 C 0.06981 0.76477 0.55735 0.0
C214 C 0.03802 0.80155 0.50482 0.0
C215 C 0.05344 0.77533 0.4439 0.0
C216 C 0.05355 0.77656 0.46932 0.0
C217 C 0.04624 0.77607 0.54307 0.0
C218 C 0.05008 0.77694 0.51773 0.0
H219 H 0.10024 0.75785 0.39883 0.0
H220 H 0.10123 0.76158 0.44075 0.0
H221 H 0.0299 0.82044 0.47137 0.0
H222 H 0.9924 0.79135 0.58402 0.0
H223 H -0.0004 0.79409 0.54264 0.0
C224 C 0.42156 0.06635 0.16197 0.0
C225 C 0.40481 0.04138 0.17085 0.0
C226 C 0.45339 0.06797 0.1651 0.0
C227 C 0.52014 0.01827 0.17425 0.0
H228 H 0.56213 0.09437 0.18934 0.0
C229 C 0.6517 0.02291 0.18626 0.0
C230 C 0.66691 0.04841 0.17672 0.0
C231 C 0.6196 0.02242 0.18763 0.0
C232 C 0.55076 0.073 0.1849 0.0
H233 H 0.40796 -0.00101 0.19048 0.0
H234 H 0.46359 0.00182 0.19588 0.0
H235 H 0.50597 0.09325 0.18813 0.0
H236 H 0.66065 0.09341 0.1612 0.0
H237 H 0.60466 0.09227 0.16306 0.0
H238 H 0.56474 -0.00187 0.17042 0.0
C239 C 0.45214 0.01998 0.18638 0.0
C240 C 0.51863 0.07237 0.18428 0.0
C241 C 0.42031 0.01846 0.18337 0.0
C242 C 0.64951 0.07348 0.16871 0.0
C243 C 0.61743 0.07291 0.16994 0.0
C244 C 0.55224 0.01893 0.17473 0.0
C245 C 0.46904 0.04456 0.17703 0.0
C246 C 0.50303 0.04504 0.1788 0.0
C247 C 0.60209 0.04734 0.17935 0.0
C248 C 0.56794 0.04636 0.1799 0.0
H249 H 0.41017 0.08434 0.15226 0.0
H250 H 0.46589 0.08704 0.15754 0.0
H251 H 0.50872 -0.00302 0.16965 0.0
H252 H 0.66458 0.00335 0.1927 0.0
H253 H 0.60853 0.00256 0.19528 0.0
C254 C -0.00483 0.42303 0.66919 0.0
C255 C 0.01668 0.40698 0.68266 0.0
C256 C 0.99279 0.45504 0.67078 0.0
C257 C 0.03991 0.52181 0.68594 0.0
H258 H 0.96292 0.56665 0.6812 0.0
C259 C 0.03586 0.65419 0.68827 0.0
C260 C 0.01675 0.66848 0.67198 0.0
C261 C 0.03417 0.62246 0.69189 0.0
C262 C 0.9846 0.55441 0.68239 0.0
H263 H 0.05145 0.41148 0.70917 0.0
H264 H 0.04706 0.46733 0.71212 0.0
H265 H 0.96226 0.5105 0.68407 0.0
H266 H 0.98067 0.66098 0.64688 0.0
H267 H 0.97806 0.60543 0.65292 0.0
H268 H 0.06234 0.56549 0.68381 0.0
C269 C 0.03242 0.45527 0.70005 0.0
C270 C 0.98421 0.52231 0.68406 0.0
C271 C 0.03482 0.4233 0.69845 0.0
C272 C -0.00432 0.65054 0.65955 0.0
C273 C 0.99402 0.61878 0.66314 0.0
C274 C 0.04031 0.55384 0.68425 0.0
C275 C 0.01188 0.47154 0.68587 0.0
C276 C 0.01189 0.50567 0.68566 0.0
C277 C 0.01338 0.60438 0.67925 0.0
C278 C 0.01268 0.57048 0.68225 0.0
H279 H 0.98089 0.41101 0.65687 0.0
H280 H 0.97693 0.46695 0.65948 0.0
H281 H 0.06166 0.50963 0.68672 0.0
H282 H 0.05217 0.66751 0.69821 0.0
H283 H 0.0491 0.61208 0.70464 0.0
C284 C 0.64874 0.01591 0.84277 0.0
C285 C 0.66832 0.0291 0.8263 0.0
C286 C 0.61688 0.01713 0.83995 0.0
C287 C 0.5518 0.00704 0.82334 0.0
H288 H 0.51329 0.082 0.80115 0.0
C289 C 0.42151 0.01401 0.80545 0.0
C290 C 0.40653 0.04081 0.81299 0.0
C291 C 0.45363 0.01244 0.80528 0.0
C292 C 0.52369 0.06094 0.80746 0.0
H293 H 0.67009 0.05384 0.79395 0.0
H294 H 0.61436 0.0556 0.78882 0.0
H295 H 0.56908 0.0797 0.80506 0.0
H296 H 0.41322 0.08708 0.82607 0.0
H297 H 0.46918 0.08416 0.8262 0.0
H298 H 0.50637 0.98866 0.82654 0.0
C299 C 0.6236 0.04471 0.80409 0.0
C300 C 0.55568 0.05951 0.80945 0.0
C301 C 0.6555 0.04359 0.80697 0.0
C302 C 0.42418 0.06614 0.82009 0.0
C303 C 0.45624 0.06454 0.82002 0.0
C304 C 0.51982 0.00851 0.82142 0.0
C305 C 0.60395 0.03143 0.82053 0.0
C306 C 0.57007 0.03262 0.8176 0.0
C307 C 0.47134 0.03761 0.81274 0.0
C308 C 0.50539 0.03556 0.81364 0.0
H309 H 0.65802 0.0047 0.8579 0.0
H310 H 0.60237 0.00715 0.85313 0.0
H311 H 0.56221 0.98584 0.82936 0.0
H312 H 0.40844 0.99419 0.79977 0.0
H313 H 0.46458 0.99153 0.79927 0.0
C314 C 0.06441 0.42047 0.32024 0.0
C315 C 0.03739 0.40372 0.32453 0.0
C316 C 0.06339 0.45249 0.31818 0.0
C317 C 0.01627 0.51963 0.33416 0.0
H318 H 0.06704 0.56171 0.28921 0.0
C319 C 0.01244 0.65159 0.32137 0.0
C320 C 0.04122 0.66615 0.31988 0.0
C321 C 0.01037 0.6195 0.32042 0.0
C322 C 0.05286 0.55026 0.30192 0.0
H323 H 0.98805 0.40714 0.32965 0.0
H324 H 0.98621 0.46307 0.32578 0.0
H325 H 0.06632 0.50555 0.29023 0.0
H326 H 0.09034 0.65874 0.31598 0.0
H327 H 0.08674 0.6028 0.31444 0.0
H328 H 0.00301 0.56439 0.34596 0.0
C329 C 0.00824 0.45152 0.32435 0.0
C330 C 0.05249 0.51813 0.30253 0.0
C331 C 0.00928 0.41951 0.32646 0.0
C332 C 0.06783 0.64813 0.31716 0.0
C333 C 0.06575 0.61612 0.31612 0.0
C334 C 0.01659 0.55177 0.33351 0.0
C335 C 0.03532 0.46838 0.3203 0.0
C336 C 0.03446 0.50247 0.31883 0.0
C337 C 0.03703 0.60145 0.31784 0.0
C338 C 0.03517 0.5674 0.31756 0.0
H339 H 0.08642 0.40889 0.31873 0.0
H340 H 0.08472 0.46485 0.31539 0.0
H341 H 0.00245 0.50826 0.34713 0.0
H342 H 0.99155 0.66495 0.32342 0.0
H343 H 0.9879 0.6088 0.3216 0.0
C344 C 0.12736 0.26681 0.28421 0.0
C345 C 0.10681 0.25372 0.30008 0.0
C346 C 0.14808 0.24826 0.27217 0.0
C347 C 0.1844 0.17091 0.27216 0.0
H348 H 0.19653 0.18822 0.20743 0.0
C349 C 0.27188 0.10324 0.21697 0.0
C350 C 0.26237 0.0951 0.19474 0.0
C351 C 0.25433 0.12363 0.23016 0.0
C352 C 0.19326 0.18295 0.22545 0.0
H353 H 0.09202 0.21108 0.31602 0.0
H354 H 0.1278 0.17858 0.29469 0.0
H355 H 0.16299 0.22128 0.23005 0.0
H356 H 0.22715 0.10187 0.16884 0.0
H357 H 0.19629 0.13698 0.19192 0.0
H358 H 0.21382 0.1319 0.26733 0.0
C359 C 0.12831 0.20322 0.29181 0.0
C360 C 0.17434 0.20216 0.23851 0.0
C361 C 0.10768 0.22181 0.30394 0.0
C362 C 0.23513 0.10785 0.18588 0.0
C363 C 0.21754 0.12812 0.19908 0.0
C364 C 0.20325 0.15163 0.25907 0.0
C365 C 0.14859 0.2162 0.27564 0.0
C366 C 0.16955 0.19629 0.26199 0.0
C367 C 0.22688 0.1362 0.22139 0.0
C368 C 0.20775 0.15731 0.23552 0.0
H369 H 0.12731 0.29139 0.28097 0.0
H370 H 0.16372 0.25907 0.26012 0.0
H371 H 0.18148 0.16594 0.29026 0.0
H372 H 0.29285 0.09381 0.22421 0.0
H373 H 0.26239 0.12969 0.24716 0.0
C374 C 0.98062 0.22236 0.70361 0.0
C375 C 0.97237 0.25337 0.70058 0.0
C376 C 0.96132 0.20232 0.71562 0.0
C377 C 0.89826 0.20189 0.75816 0.0
H378 H 0.88874 0.11718 0.73835 0.0
C379 C 0.8105 0.11764 0.79882 0.0
C380 C 0.82085 0.08748 0.80293 0.0
C381 C 0.82879 0.1384 0.78655 0.0
C382 C 0.89142 0.1407 0.74421 0.0
H383 H 0.93721 0.28767 0.7073 0.0
H384 H 0.90313 0.25251 0.72792 0.0
H385 H 0.92023 0.15238 0.71572 0.0
H386 H 0.85861 0.05548 0.79781 0.0
H387 H 0.89057 0.09175 0.77645 0.0
H388 H 0.86924 0.19013 0.78659 0.0
C389 C 0.92479 0.24379 0.72139 0.0
C390 C 0.90945 0.16087 0.73126 0.0
C391 C 0.94419 0.26387 0.70944 0.0
C392 C 0.85 0.07858 0.79486 0.0
C393 C 0.86821 0.09927 0.78251 0.0
C394 C 0.8801 0.18173 0.77106 0.0
C395 C 0.93325 0.21283 0.72477 0.0
C396 C 0.91324 0.19166 0.73814 0.0
C397 C 0.85769 0.12931 0.77806 0.0
C398 C 0.87664 0.15088 0.76428 0.0
H399 H 0.00229 0.21365 0.69707 0.0
H400 H 0.96875 0.17875 0.71818 0.0
H401 H 0.90108 0.22532 0.76415 0.0
H402 H 0.7881 0.12511 0.80482 0.0
H403 H 0.82 0.16134 0.78324 0.0
C404 C 0.96218 0.80822 0.2789 0.0
C405 C 0.98327 0.8195 0.29511 0.0
C406 C 0.94144 0.82816 0.26812 0.0
C407 C 0.93051 0.91014 0.2538 0.0
H408 H 0.84602 0.88567 0.24252 0.0
C409 C 0.84974 0.98086 0.19562 0.0
C410 C 0.81936 0.98506 0.20325 0.0
C411 C 0.86929 0.96019 0.20683 0.0
C412 C 0.86949 0.89292 0.24569 0.0
H413 H -0.00111 0.86033 0.31307 0.0
H414 H 0.96249 0.89507 0.29444 0.0
H415 H 0.88061 0.85074 0.2629 0.0
H416 H 0.7855 0.9708 0.22847 0.0
H417 H 0.81974 0.93485 0.2482 0.0
H418 H 0.9193 0.9525 0.23698 0.0
C419 C 0.96225 0.87092 0.2898 0.0
C420 C 0.88938 0.87278 0.25714 0.0
C421 C 0.98296 0.85099 0.30057 0.0
C422 C 0.80879 0.96797 0.22217 0.0
C423 C 0.82836 0.94728 0.23339 0.0
C424 C 0.91064 0.93024 0.24234 0.0
C425 C 0.94141 0.85978 0.27332 0.0
C426 C 0.92012 0.88118 0.26132 0.0
C427 C 0.85888 0.94328 0.22591 0.0
C428 C 0.87992 0.92185 0.23813 0.0
H429 H 0.96195 0.78404 0.27432 0.0
H430 H 0.9259 0.81892 0.25532 0.0
H431 H 0.95414 0.91717 0.25653 0.0
H432 H 0.85849 0.99366 0.18103 0.0
H433 H 0.89254 0.95731 0.20044 0.0
C434 C 0.1113 0.80878 0.70416 0.0
C435 C 0.08784 0.82119 0.69036 0.0
C436 C 0.13227 0.82812 0.71518 0.0
C437 C 0.16558 0.9059 0.71332 0.0
H438 H 0.1846 0.89042 0.77742 0.0
C439 C 0.2614 0.97105 0.76181 0.0
C440 C 0.25394 0.98173 0.78388 0.0
C441 C 0.24163 0.95103 0.75022 0.0
C442 C 0.17941 0.89509 0.75955 0.0
H443 H 0.06812 0.86346 0.67698 0.0
H444 H 0.10486 0.89728 0.69622 0.0
H445 H 0.14896 0.85649 0.7572 0.0
H446 H 0.22014 0.97969 0.81125 0.0
H447 H 0.18562 0.94462 0.79103 0.0
H448 H 0.19577 0.94472 0.71575 0.0
C449 C 0.1071 0.8726 0.69842 0.0
C450 C 0.15926 0.87551 0.74792 0.0
C451 C 0.08601 0.85327 0.6875 0.0
C452 C 0.2265 0.97178 0.79426 0.0
C453 C 0.20682 0.95161 0.78274 0.0
C454 C 0.1859 0.92537 0.72491 0.0
C455 C 0.1303 0.86023 0.71252 0.0
C456 C 0.15207 0.88077 0.72471 0.0
C457 C 0.21412 0.94115 0.76055 0.0
C458 C 0.19294 0.92022 0.74816 0.0
H459 H 0.11329 0.78413 0.70665 0.0
H460 H 0.15013 0.81793 0.72573 0.0
H461 H 0.16063 0.91038 0.69539 0.0
H462 H 0.28242 0.97834 0.75339 0.0
H463 H 0.248 0.94308 0.73324 0.0
C464 C 0.77595 0.93809 0.77595 0.0
C465 C 0.78705 0.9429 0.79832 0.0
C466 C 0.78774 0.9142 0.76252 0.0
C467 C 0.83544 0.84326 0.76416 0.0
H468 H 0.8648 0.87216 0.70505 0.0
C469 C 0.94079 0.79216 0.71889 0.0
C470 C 0.94199 0.79197 0.6948 0.0
C471 C 0.91554 0.80489 0.73025 0.0
C472 C 0.85619 0.86335 0.72123 0.0
H473 H 0.81772 0.92552 0.8247 0.0
H474 H 0.83847 0.88399 0.80124 0.0
H475 H 0.83077 0.90459 0.72762 0.0
H476 H 0.91709 0.80336 0.66365 0.0
H477 H 0.87272 0.82535 0.68352 0.0
H478 H 0.86183 0.80241 0.75805 0.0
C479 C 0.82055 0.89847 0.79409 0.0
C480 C 0.83666 0.88198 0.73419 0.0
C481 C 0.80886 0.92241 0.80747 0.0
C482 C 0.91688 0.80348 0.68226 0.0
C483 C 0.89153 0.81613 0.69362 0.0
C484 C 0.85492 0.82454 0.75114 0.0
C485 C 0.81071 0.89463 0.77128 0.0
C486 C 0.82685 0.87254 0.75609 0.0
C487 C 0.8909 0.81758 0.71775 0.0
C488 C 0.86627 0.83482 0.72985 0.0
H489 H 0.75898 0.95344 0.76852 0.0
H490 H 0.77951 0.91155 0.74507 0.0
H491 H 0.82784 0.83523 0.78085 0.0
H492 H 0.95982 0.78338 0.729 0.0
H493 H 0.91601 0.80602 0.74883 0.0
C494 C 0.23536 0.9489 0.17733 0.0
C495 C 0.26762 0.95018 0.17681 0.0
C496 C 0.22042 0.92374 0.18721 0.0
C497 C 0.23291 0.86481 0.23108 0.0
H498 H 0.15334 0.83613 0.2099 0.0
C499 C 0.14173 0.81484 0.29157 0.0
C500 C 0.12161 0.79207 0.28345 0.0
C501 C 0.1636 0.8279 0.27697 0.0
C502 C 0.1758 0.84338 0.21589 0.0
H503 H 0.30963 0.92556 0.18515 0.0
H504 H 0.28346 0.88136 0.2023 0.0
H505 H 0.18395 0.86974 0.18542 0.0
H506 H 0.1095 0.76393 0.25406 0.0
H507 H 0.14798 0.78655 0.22856 0.0
H508 H 0.22459 0.83874 0.26166 0.0
C509 C 0.26974 0.90002 0.19535 0.0
C510 C 0.19316 0.86294 0.20196 0.0
C511 C 0.2847 0.92524 0.18547 0.0
C512 C 0.12459 0.78164 0.26072 0.0
C513 C 0.14652 0.79465 0.24611 0.0
C514 C 0.21558 0.84517 0.24498 0.0
C515 C 0.23744 0.89929 0.19673 0.0
C516 C 0.22145 0.87464 0.20971 0.0
C517 C 0.16585 0.81837 0.25395 0.0
C518 C 0.18641 0.83503 0.23784 0.0
H519 H 0.22161 0.96779 0.17077 0.0
H520 H 0.19553 0.92413 0.18828 0.0
H521 H 0.25455 0.87352 0.23762 0.0
H522 H 0.13996 0.8233 0.30902 0.0
H523 H 0.17782 0.84641 0.28347 0.0
C524 C 0.14321 0.27932 0.68469 0.0
C525 C 0.11852 0.28804 0.69884 0.0
C526 C 0.16956 0.26598 0.69419 0.0
C527 C 0.20938 0.24931 0.74952 0.0
H528 H 0.23222 0.17337 0.71892 0.0
C529 C 0.25784 0.14398 0.79649 0.0
C530 C 0.27966 0.12533 0.78542 0.0
C531 C 0.24521 0.16939 0.78523 0.0
C532 C 0.2267 0.19483 0.72746 0.0
H533 H 0.10261 0.2913 0.73405 0.0
H534 H 0.1482 0.26746 0.7506 0.0
H535 H 0.19729 0.20901 0.70005 0.0
H536 H 0.30647 0.11929 0.75431 0.0
H537 H 0.2842 0.16373 0.73453 0.0
H538 H 0.23771 0.23415 0.77745 0.0
C539 C 0.14754 0.27127 0.73222 0.0
C540 C 0.20667 0.21532 0.71662 0.0
C541 C 0.12127 0.2847 0.72273 0.0
C542 C 0.28951 0.13319 0.76319 0.0
C543 C 0.27677 0.15856 0.75187 0.0
C544 C 0.22936 0.22873 0.7604 0.0
C545 C 0.17164 0.26103 0.71801 0.0
C546 C 0.19702 0.24232 0.72783 0.0
C547 C 0.25409 0.17658 0.76264 0.0
C548 C 0.23744 0.20084 0.74975 0.0
H549 H 0.1418 0.28192 0.66621 0.0
H550 H 0.18794 0.25875 0.68283 0.0
H551 H 0.20281 0.27021 0.75841 0.0
H552 H 0.24993 0.13852 0.81367 0.0
H553 H 0.22749 0.18258 0.79387 0.0
C554 C 0.95885 0.27661 0.27613 0.0
C555 C 0.95984 0.28 0.30008 0.0
C556 C 0.93298 0.26392 0.26556 0.0
C557 C 0.8709 0.21011 0.27812 0.0
H558 H 0.84264 0.23361 0.21739 0.0
C559 C 0.78574 0.13439 0.22834 0.0
C560 C 0.79517 0.12778 0.2058 0.0
C561 C 0.79944 0.15843 0.24054 0.0
C562 C 0.85025 0.22683 0.23438 0.0
H563 H 0.93405 0.2743 0.33171 0.0
H564 H 0.88875 0.2522 0.31321 0.0
H565 H 0.87877 0.26675 0.2379 0.0
H566 H 0.82519 0.14188 0.17795 0.0
H567 H 0.84941 0.18343 0.1993 0.0
H568 H 0.8435 0.16962 0.27431 0.0
C569 C 0.90812 0.259 0.30264 0.0
C570 C 0.87091 0.24577 0.2461 0.0
C571 C 0.934 0.2717 0.31321 0.0
C572 C 0.81754 0.1464 0.19534 0.0
C573 C 0.83122 0.1704 0.20751 0.0
C574 C 0.85029 0.19118 0.26642 0.0
C575 C 0.9076 0.2544 0.27875 0.0
C576 C 0.88212 0.23714 0.26781 0.0
C577 C 0.82279 0.17627 0.2304 0.0
C578 C 0.84045 0.19888 0.24415 0.0
H579 H 0.97842 0.2829 0.26558 0.0
H580 H 0.93346 0.26033 0.24715 0.0
H581 H 0.87937 0.20261 0.29471 0.0
H582 H 0.76835 0.12052 0.23676 0.0
H583 H 0.79223 0.16264 0.25807 0.0
loop_
_geom_bond_atom_site_label_1
_geom_bond_atom_site_label_2
_geom_bond_distance
_geom_bond_site_symmetry_2
_ccdc_geom_bond_type
In0 O1 2.294 . S
In0 O2 2.326 . S
In0 O6 2.266 . S
In0 O7 2.326 . S
In0 O8 2.266 1_545 S
In0 O9 2.326 . S
In0 O11 2.294 . S
In0 O12 2.326 . S
O1 In0 2.294 . S
O1 C10 1.240 . S
O2 In0 2.326 . S
O2 C10 1.252 . S
C3 O6 1.252 . S
C3 O7 1.260 . S
C4 O11 1.240 . S
C4 O12 1.252 . S
C5 O8 1.252 . S
C5 O9 1.260 1_565 S
O6 In0 2.266 . S
O6 C3 1.252 . S
O7 In0 2.326 . S
O7 C3 1.260 . S
O8 In0 2.266 1_565 S
O8 C5 1.252 . S
O9 In0 2.326 . S
O9 C5 1.260 1_545 S
C10 O1 1.240 . S
C10 O2 1.252 . S
O11 In0 2.294 . S
O11 C4 1.240 . S
O12 In0 2.326 . S
O12 C4 1.252 . S
In13 O14 2.294 . S
In13 O15 2.326 . S
In13 O19 2.266 . S
In13 O20 2.326 . S
In13 O21 2.266 . S
In13 O22 2.326 . S
In13 O24 2.294 . S
In13 O25 2.326 . S
O14 In13 2.294 . S
O14 C23 1.240 . S
O15 In13 2.326 . S
O15 C23 1.252 . S
C16 O19 1.252 . S
C16 O20 1.260 . S
C17 O24 1.240 . S
C17 O25 1.252 . S
C18 O21 1.252 . S
C18 O22 1.260 . S
O19 In13 2.266 . S
O19 C16 1.252 . S
O20 In13 2.326 . S
O20 C16 1.260 . S
O21 In13 2.266 . S
O21 C18 1.252 . S
O22 In13 2.326 . S
O22 C18 1.260 . S
C23 O14 1.240 . S
C23 O15 1.252 . S
O24 In13 2.294 . S
O24 C17 1.240 . S
O25 In13 2.326 . S
O25 C17 1.252 . S
In26 O27 2.294 . S
In26 O28 2.326 . S
In26 O32 2.266 . S
In26 O33 2.326 . S
In26 O34 2.266 . S
In26 O35 2.326 . S
In26 O37 2.294 . S
In26 O38 2.326 . S
O27 In26 2.294 . S
O27 C36 1.240 . S
O28 In26 2.326 . S
O28 C36 1.252 . S
C29 O32 1.252 . S
C29 O33 1.260 . S
C30 O37 1.240 . S
C30 O38 1.252 . S
C31 O34 1.252 . S
C31 O35 1.260 . S
O32 In26 2.266 . S
O32 C29 1.252 . S
O33 In26 2.326 . S
O33 C29 1.260 . S
O34 In26 2.266 . S
O34 C31 1.252 . S
O35 In26 2.326 . S
O35 C31 1.260 . S
C36 O27 1.240 . S
C36 O28 1.252 . S
O37 In26 2.294 . S
O37 C30 1.240 . S
O38 In26 2.326 . S
O38 C30 1.252 . S
In39 O40 2.294 . S
In39 O41 2.326 . S
In39 O45 2.266 1_455 S
In39 O46 2.326 . S
In39 O47 2.266 . S
In39 O48 2.326 . S
In39 O50 2.294 . S
In39 O51 2.326 . S
O40 In39 2.294 . S
O40 C49 1.240 . S
O41 In39 2.326 . S
O41 C49 1.252 . S
C42 O45 1.252 . S
C42 O46 1.260 1_655 S
C43 O50 1.240 . S
C43 O51 1.252 . S
C44 O47 1.252 . S
C44 O48 1.260 . S
O45 In39 2.266 1_655 S
O45 C42 1.252 . S
O46 In39 2.326 . S
O46 C42 1.260 1_455 S
O47 In39 2.266 . S
O47 C44 1.252 . S
O48 In39 2.326 . S
O48 C44 1.260 . S
C49 O40 1.240 . S
C49 O41 1.252 . S
O50 In39 2.294 . S
O50 C43 1.240 . S
O51 In39 2.326 . S
O51 C43 1.252 . S
In52 O53 2.294 . S
In52 O54 2.326 . S
In52 O58 2.266 . S
In52 O59 2.326 . S
In52 O60 2.266 . S
In52 O61 2.326 . S
In52 O63 2.294 . S
In52 O64 2.326 . S
O53 In52 2.294 . S
O53 C62 1.240 . S
O54 In52 2.326 . S
O54 C62 1.252 . S
C55 O58 1.252 . S
C55 O59 1.260 . S
C56 O63 1.240 . S
C56 O64 1.252 . S
C57 O60 1.252 . S
C57 O61 1.260 . S
O58 In52 2.266 . S
O58 C55 1.252 . S
O59 In52 2.326 . S
O59 C55 1.260 . S
O60 In52 2.266 . S
O60 C57 1.252 . S
O61 In52 2.326 . S
O61 C57 1.260 . S
C62 O53 1.240 . S
C62 O54 1.252 . S
O63 In52 2.294 . S
O63 C56 1.240 . S
O64 In52 2.326 . S
O64 C56 1.252 . S
In65 O66 2.294 . S
In65 O67 2.326 . S
In65 O71 2.266 . S
In65 O72 2.326 . S
In65 O73 2.266 1_455 S
In65 O74 2.326 . S
In65 O76 2.294 . S
In65 O77 2.326 . S
O66 In65 2.294 . S
O66 C75 1.240 . S
O67 In65 2.326 . S
O67 C75 1.252 . S
C68 O71 1.252 . S
C68 O72 1.260 . S
C69 O76 1.240 . S
C69 O77 1.252 . S
C70 O73 1.252 . S
C70 O74 1.260 1_655 S
O71 In65 2.266 . S
O71 C68 1.252 . S
O72 In65 2.326 . S
O72 C68 1.260 . S
O73 In65 2.266 1_655 S
O73 C70 1.252 . S
O74 In65 2.326 . S
O74 C70 1.260 1_455 S
C75 O66 1.240 . S
C75 O67 1.252 . S
O76 In65 2.294 . S
O76 C69 1.240 . S
O77 In65 2.326 . S
O77 C69 1.252 . S
In78 O79 2.294 . S
In78 O80 2.326 . S
In78 O84 2.266 1_545 S
In78 O85 2.326 . S
In78 O86 2.266 . S
In78 O87 2.326 . S
In78 O89 2.294 . S
In78 O90 2.326 . S
O79 In78 2.294 . S
O79 C88 1.240 . S
O80 In78 2.326 . S
O80 C88 1.252 . S
C81 O84 1.252 . S
C81 O85 1.260 1_565 S
C82 O89 1.240 . S
C82 O90 1.252 . S
C83 O86 1.252 . S
C83 O87 1.260 . S
O84 In78 2.266 1_565 S
O84 C81 1.252 . S
O85 In78 2.326 . S
O85 C81 1.260 1_545 S
O86 In78 2.266 . S
O86 C83 1.252 . S
O87 In78 2.326 . S
O87 C83 1.260 . S
C88 O79 1.240 . S
C88 O80 1.252 . S
O89 In78 2.294 . S
O89 C82 1.240 . S
O90 In78 2.326 . S
O90 C82 1.252 . S
In91 O92 2.294 . S
In91 O93 2.326 . S
In91 O97 2.266 . S
In91 O98 2.326 . S
In91 O99 2.266 . S
In91 O100 2.326 . S
In91 O102 2.294 . S
In91 O103 2.326 . S
O92 In91 2.294 . S
O92 C101 1.240 . S
O93 In91 2.326 . S
O93 C101 1.252 . S
C94 O97 1.252 . S
C94 O98 1.260 . S
C95 O102 1.240 . S
C95 O103 1.252 . S
C96 O99 1.252 . S
C96 O100 1.260 . S
O97 In91 2.266 . S
O97 C94 1.252 . S
O98 In91 2.326 . S
O98 C94 1.260 . S
O99 In91 2.266 . S
O99 C96 1.252 . S
O100 In91 2.326 . S
O100 C96 1.260 . S
C101 O92 1.240 . S
C101 O93 1.252 . S
O102 In91 2.294 . S
O102 C95 1.240 . S
O103 In91 2.326 . S
O103 C95 1.252 . S
C104 C105 1.349 . S
C104 C106 1.327 . S
C104 H129 0.950 . S
C105 C104 1.349 . S
C105 C121 1.349 . S
C106 C104 1.327 . S
C106 C125 1.429 . S
C106 H130 0.950 . S
C107 C124 1.574 1_554 S
C107 C126 1.368 . S
C107 H131 0.949 . S
H108 C112 0.949 . S
C109 C110 1.349 . S
C109 C111 1.327 . S
C109 H132 0.950 . S
C110 C109 1.349 . S
C110 C122 1.349 . S
C111 C109 1.327 . S
C111 C127 1.429 . S
C111 H133 0.950 . S
C112 H108 0.949 . S
C112 C120 1.574 1_556 S
C112 C128 1.368 . S
H113 C121 0.950 . S
H114 C119 0.950 . S
H115 C120 0.949 . S
H116 C122 0.950 . S
H117 C123 0.950 . S
H118 C124 0.949 . S
C119 H114 0.950 . S
C119 C121 1.327 . S
C119 C125 1.429 . S
C120 C112 1.574 1_554 S
C120 H115 0.949 . S
C120 C126 1.368 . S
C121 C105 1.349 . S
C121 H113 0.950 . S
C121 C119 1.327 . S
C122 C110 1.349 . S
C122 H116 0.950 . S
C122 C123 1.327 . S
C123 H117 0.950 . S
C123 C122 1.327 . S
C123 C127 1.429 . S
C124 C107 1.574 1_556 S
C124 H118 0.949 . S
C124 C128 1.368 . S
C125 C106 1.429 . S
C125 C119 1.429 . S
C125 C126 1.523 . S
C126 C107 1.368 . S
C126 C120 1.368 . S
C126 C125 1.523 . S
C127 C111 1.429 . S
C127 C123 1.429 . S
C127 C128 1.523 . S
C128 C112 1.368 . S
C128 C124 1.368 . S
C128 C127 1.523 . S
H129 C104 0.950 . S
H130 C106 0.950 . S
H131 C107 0.949 . S
H132 C109 0.950 . S
H133 C111 0.950 . S
C134 C135 1.349 . S
C134 C136 1.327 . S
C134 H159 0.950 . S
C135 C134 1.349 . S
C135 C151 1.349 . S
C136 C134 1.327 . S
C136 C155 1.429 . S
C136 H160 0.950 . S
C137 C154 1.574 . S
C137 C156 1.368 . S
C137 H161 0.949 . S
H138 C142 0.949 . S
C139 C140 1.349 . S
C139 C141 1.327 . S
C139 H162 0.950 . S
C140 C139 1.349 . S
C140 C152 1.349 . S
C141 C139 1.327 . S
C141 C157 1.429 . S
C141 H163 0.950 . S
C142 H138 0.949 . S
C142 C150 1.574 . S
C142 C158 1.368 . S
H143 C151 0.950 . S
H144 C149 0.950 . S
H145 C150 0.949 . S
H146 C152 0.950 . S
H147 C153 0.950 . S
H148 C154 0.949 . S
C149 H144 0.950 . S
C149 C151 1.327 . S
C149 C155 1.429 . S
C150 C142 1.574 . S
C150 H145 0.949 . S
C150 C156 1.368 . S
C151 C135 1.349 . S
C151 H143 0.950 . S
C151 C149 1.327 . S
C152 C140 1.349 . S
C152 H146 0.950 . S
C152 C153 1.327 . S
C153 H147 0.950 . S
C153 C152 1.327 . S
C153 C157 1.429 . S
C154 C137 1.574 . S
C154 H148 0.949 . S
C154 C158 1.368 . S
C155 C136 1.429 . S
C155 C149 1.429 . S
C155 C156 1.523 . S
C156 C137 1.368 . S
C156 C150 1.368 . S
C156 C155 1.523 . S
C157 C141 1.429 . S
C157 C153 1.429 . S
C157 C158 1.523 . S
C158 C142 1.368 . S
C158 C154 1.368 . S
C158 C157 1.523 . S
H159 C134 0.950 . S
H160 C136 0.950 . S
H161 C137 0.949 . S
H162 C139 0.950 . S
H163 C141 0.950 . S
C164 C165 1.349 . S
C164 C166 1.327 . S
C164 H189 0.950 . S
C165 C164 1.349 . S
C165 C181 1.349 . S
C166 C164 1.327 . S
C166 C185 1.429 . S
C166 H190 0.950 . S
C167 C184 1.574 1_556 S
C167 C186 1.368 . S
C167 H191 0.949 . S
H168 C172 0.949 . S
C169 C170 1.349 . S
C169 C171 1.327 . S
C169 H192 0.950 . S
C170 C169 1.349 . S
C170 C182 1.349 . S
C171 C169 1.327 . S
C171 C187 1.429 . S
C171 H193 0.950 . S
C172 H168 0.949 . S
C172 C180 1.574 1_554 S
C172 C188 1.368 . S
H173 C181 0.950 . S
H174 C179 0.950 . S
H175 C180 0.949 . S
H176 C182 0.950 . S
H177 C183 0.950 . S
H178 C184 0.949 . S
C179 H174 0.950 . S
C179 C181 1.327 . S
C179 C185 1.429 . S
C180 C172 1.574 1_556 S
C180 H175 0.949 . S
C180 C186 1.368 . S
C181 C165 1.349 . S
C181 H173 0.950 . S
C181 C179 1.327 . S
C182 C170 1.349 . S
C182 H176 0.950 . S
C182 C183 1.327 . S
C183 H177 0.950 . S
C183 C182 1.327 . S
C183 C187 1.429 . S
C184 C167 1.574 1_554 S
C184 H178 0.949 . S
C184 C188 1.368 . S
C185 C166 1.429 . S
C185 C179 1.429 . S
C185 C186 1.523 . S
C186 C167 1.368 . S
C186 C180 1.368 . S
C186 C185 1.523 . S
C187 C171 1.429 . S
C187 C183 1.429 . S
C187 C188 1.523 . S
C188 C172 1.368 . S
C188 C184 1.368 . S
C188 C187 1.523 . S
H189 C164 0.950 . S
H190 C166 0.950 . S
H191 C167 0.949 . S
H192 C169 0.950 . S
H193 C171 0.950 . S
C194 C195 1.349 . S
C194 C196 1.327 . S
C194 H219 0.950 . S
C195 C194 1.349 . S
C195 C211 1.349 . S
C196 C194 1.327 . S
C196 C215 1.429 . S
C196 H220 0.950 . S
C197 C214 1.574 . S
C197 C216 1.368 . S
C197 H221 0.949 . S
H198 C202 0.949 . S
C199 C200 1.349 . S
C199 C201 1.327 . S
C199 H222 0.950 . S
C200 C199 1.349 . S
C200 C212 1.349 . S
C201 C199 1.327 . S
C201 C217 1.429 . S
C201 H223 0.950 . S
C202 H198 0.949 . S
C202 C210 1.574 . S
C202 C218 1.368 . S
H203 C211 0.950 . S
H204 C209 0.950 . S
H205 C210 0.949 . S
H206 C212 0.950 . S
H207 C213 0.950 . S
H208 C214 0.949 . S
C209 H204 0.950 . S
C209 C211 1.327 . S
C209 C215 1.429 . S
C210 C202 1.574 . S
C210 H205 0.949 . S
C210 C216 1.368 . S
C211 C195 1.349 . S
C211 H203 0.950 . S
C211 C209 1.327 . S
C212 C200 1.349 . S
C212 H206 0.950 . S
C212 C213 1.327 . S
C213 H207 0.950 . S
C213 C212 1.327 . S
C213 C217 1.429 . S
C214 C197 1.574 . S
C214 H208 0.949 . S
C214 C218 1.368 . S
C215 C196 1.429 . S
C215 C209 1.429 . S
C215 C216 1.523 . S
C216 C197 1.368 . S
C216 C210 1.368 . S
C216 C215 1.523 . S
C217 C201 1.429 . S
C217 C213 1.429 . S
C217 C218 1.523 . S
C218 C202 1.368 . S
C218 C214 1.368 . S
C218 C217 1.523 . S
H219 C194 0.950 . S
H220 C196 0.950 . S
H221 C197 0.949 . S
H222 C199 0.950 . S
H223 C201 0.950 . S
C224 C225 1.349 . S
C224 C226 1.327 . S
C224 H249 0.950 . S
C225 C224 1.349 . S
C225 C241 1.349 . S
C226 C224 1.327 . S
C226 C245 1.429 . S
C226 H250 0.950 . S
C227 C244 1.574 . S
C227 C246 1.368 . S
C227 H251 0.949 . S
H228 C232 0.949 . S
C229 C230 1.349 . S
C229 C231 1.327 . S
C229 H252 0.950 . S
C230 C229 1.349 . S
C230 C242 1.349 . S
C231 C229 1.327 . S
C231 C247 1.429 . S
C231 H253 0.950 . S
C232 H228 0.949 . S
C232 C240 1.574 . S
C232 C248 1.368 . S
H233 C241 0.950 1_565 S
H234 C239 0.950 . S
H235 C240 0.949 . S
H236 C242 0.950 . S
H237 C243 0.950 . S
H238 C244 0.949 . S
C239 H234 0.950 . S
C239 C241 1.327 . S
C239 C245 1.429 . S
C240 C232 1.574 . S
C240 H235 0.949 . S
C240 C246 1.368 . S
C241 C225 1.349 . S
C241 H233 0.950 1_545 S
C241 C239 1.327 . S
C242 C230 1.349 . S
C242 H236 0.950 . S
C242 C243 1.327 . S
C243 H237 0.950 . S
C243 C242 1.327 . S
C243 C247 1.429 . S
C244 C227 1.574 . S
C244 H238 0.949 . S
C244 C248 1.368 . S
C245 C226 1.429 . S
C245 C239 1.429 . S
C245 C246 1.523 . S
C246 C227 1.368 . S
C246 C240 1.368 . S
C246 C245 1.523 . S
C247 C231 1.429 . S
C247 C243 1.429 . S
C247 C248 1.523 . S
C248 C232 1.368 . S
C248 C244 1.368 . S
C248 C247 1.523 . S
H249 C224 0.950 . S
H250 C226 0.950 . S
H251 C227 0.949 . S
H252 C229 0.950 . S
H253 C231 0.950 . S
C254 C255 1.349 . S
C254 C256 1.327 . S
C254 H279 0.950 . S
C255 C254 1.349 . S
C255 C271 1.349 . S
C256 C254 1.327 . S
C256 C275 1.429 . S
C256 H280 0.950 . S
C257 C274 1.574 . S
C257 C276 1.368 . S
C257 H281 0.949 . S
H258 C262 0.949 . S
C259 C260 1.349 . S
C259 C261 1.327 . S
C259 H282 0.950 . S
C260 C259 1.349 . S
C260 C272 1.349 . S
C261 C259 1.327 . S
C261 C277 1.429 . S
C261 H283 0.950 . S
C262 H258 0.949 . S
C262 C270 1.574 . S
C262 C278 1.368 . S
H263 C271 0.950 . S
H264 C269 0.950 . S
H265 C270 0.949 . S
H266 C272 0.950 1_655 S
H267 C273 0.950 . S
H268 C274 0.949 . S
C269 H264 0.950 . S
C269 C271 1.327 . S
C269 C275 1.429 . S
C270 C262 1.574 . S
C270 H265 0.949 . S
C270 C276 1.368 . S
C271 C255 1.349 . S
C271 H263 0.950 . S
C271 C269 1.327 . S
C272 C260 1.349 . S
C272 H266 0.950 1_455 S
C272 C273 1.327 . S
C273 H267 0.950 . S
C273 C272 1.327 . S
C273 C277 1.429 . S
C274 C257 1.574 . S
C274 H268 0.949 . S
C274 C278 1.368 . S
C275 C256 1.429 . S
C275 C269 1.429 . S
C275 C276 1.523 . S
C276 C257 1.368 . S
C276 C270 1.368 . S
C276 C275 1.523 . S
C277 C261 1.429 . S
C277 C273 1.429 . S
C277 C278 1.523 . S
C278 C262 1.368 . S
C278 C274 1.368 . S
C278 C277 1.523 . S
H279 C254 0.950 . S
H280 C256 0.950 . S
H281 C257 0.949 . S
H282 C259 0.950 . S
H283 C261 0.950 . S
C284 C285 1.349 . S
C284 C286 1.327 . S
C284 H309 0.950 . S
C285 C284 1.349 . S
C285 C301 1.349 . S
C286 C284 1.327 . S
C286 C305 1.429 . S
C286 H310 0.950 . S
C287 C304 1.574 . S
C287 C306 1.368 . S
C287 H311 0.949 . S
H288 C292 0.949 . S
C289 C290 1.349 . S
C289 C291 1.327 . S
C289 H312 0.950 . S
C290 C289 1.349 . S
C290 C302 1.349 . S
C291 C289 1.327 . S
C291 C307 1.429 . S
C291 H313 0.950 . S
C292 H288 0.949 . S
C292 C300 1.574 . S
C292 C308 1.368 . S
H293 C301 0.950 1_565 S
H294 C299 0.950 . S
H295 C300 0.949 . S
H296 C302 0.950 . S
H297 C303 0.950 . S
H298 C304 0.949 . S
C299 H294 0.950 . S
C299 C301 1.327 . S
C299 C305 1.429 . S
C300 C292 1.574 . S
C300 H295 0.949 . S
C300 C306 1.368 . S
C301 C285 1.349 . S
C301 H293 0.950 1_545 S
C301 C299 1.327 . S
C302 C290 1.349 . S
C302 H296 0.950 . S
C302 C303 1.327 . S
C303 H297 0.950 . S
C303 C302 1.327 . S
C303 C307 1.429 . S
C304 C287 1.574 . S
C304 H298 0.949 . S
C304 C308 1.368 . S
C305 C286 1.429 . S
C305 C299 1.429 . S
C305 C306 1.523 . S
C306 C287 1.368 . S
C306 C300 1.368 . S
C306 C305 1.523 . S
C307 C291 1.429 . S
C307 C303 1.429 . S
C307 C308 1.523 . S
C308 C292 1.368 . S
C308 C304 1.368 . S
C308 C307 1.523 . S
H309 C284 0.950 . S
H310 C286 0.950 . S
H311 C287 0.949 . S
H312 C289 0.950 . S
H313 C291 0.950 . S
C314 C315 1.349 . S
C314 C316 1.327 . S
C314 H339 0.950 . S
C315 C314 1.349 . S
C315 C331 1.349 . S
C316 C314 1.327 . S
C316 C335 1.429 . S
C316 H340 0.950 . S
C317 C334 1.574 . S
C317 C336 1.368 . S
C317 H341 0.949 . S
H318 C322 0.949 . S
C319 C320 1.349 . S
C319 C321 1.327 . S
C319 H342 0.950 . S
C320 C319 1.349 . S
C320 C332 1.349 . S
C321 C319 1.327 . S
C321 C337 1.429 . S
C321 H343 0.950 . S
C322 H318 0.949 . S
C322 C330 1.574 . S
C322 C338 1.368 . S
H323 C331 0.950 1_655 S
H324 C329 0.950 . S
H325 C330 0.949 . S
H326 C332 0.950 . S
H327 C333 0.950 . S
H328 C334 0.949 . S
C329 H324 0.950 . S
C329 C331 1.327 . S
C329 C335 1.429 . S
C330 C322 1.574 . S
C330 H325 0.949 . S
C330 C336 1.368 . S
C331 C315 1.349 . S
C331 H323 0.950 1_455 S
C331 C329 1.327 . S
C332 C320 1.349 . S
C332 H326 0.950 . S
C332 C333 1.327 . S
C333 H327 0.950 . S
C333 C332 1.327 . S
C333 C337 1.429 . S
C334 C317 1.574 . S
C334 H328 0.949 . S
C334 C338 1.368 . S
C335 C316 1.429 . S
C335 C329 1.429 . S
C335 C336 1.523 . S
C336 C317 1.368 . S
C336 C330 1.368 . S
C336 C335 1.523 . S
C337 C321 1.429 . S
C337 C333 1.429 . S
C337 C338 1.523 . S
C338 C322 1.368 . S
C338 C334 1.368 . S
C338 C337 1.523 . S
H339 C314 0.950 . S
H340 C316 0.950 . S
H341 C317 0.949 . S
H342 C319 0.950 . S
H343 C321 0.950 . S
C344 C345 1.349 . S
C344 C346 1.327 . S
C344 H369 0.950 . S
C345 C344 1.349 . S
C345 C361 1.349 . S
C346 C344 1.327 . S
C346 C365 1.429 . S
C346 H370 0.950 . S
C347 C364 1.574 . S
C347 C366 1.368 . S
C347 H371 0.949 . S
H348 C352 0.949 . S
C349 C350 1.349 . S
C349 C351 1.327 . S
C349 H372 0.950 . S
C350 C349 1.349 . S
C350 C362 1.349 . S
C351 C349 1.327 . S
C351 C367 1.429 . S
C351 H373 0.950 . S
C352 H348 0.949 . S
C352 C360 1.574 . S
C352 C368 1.368 . S
H353 C361 0.950 . S
H354 C359 0.950 . S
H355 C360 0.949 . S
H356 C362 0.950 . S
H357 C363 0.950 . S
H358 C364 0.949 . S
C359 H354 0.950 . S
C359 C361 1.327 . S
C359 C365 1.429 . S
C360 C352 1.574 . S
C360 H355 0.949 . S
C360 C366 1.368 . S
C361 C345 1.349 . S
C361 H353 0.950 . S
C361 C359 1.327 . S
C362 C350 1.349 . S
C362 H356 0.950 . S
C362 C363 1.327 . S
C363 H357 0.950 . S
C363 C362 1.327 . S
C363 C367 1.429 . S
C364 C347 1.574 . S
C364 H358 0.949 . S
C364 C368 1.368 . S
C365 C346 1.429 . S
C365 C359 1.429 . S
C365 C366 1.523 . S
C366 C347 1.368 . S
C366 C360 1.368 . S
C366 C365 1.523 . S
C367 C351 1.429 . S
C367 C363 1.429 . S
C367 C368 1.523 . S
C368 C352 1.368 . S
C368 C364 1.368 . S
C368 C367 1.523 . S
H369 C344 0.950 . S
H370 C346 0.950 . S
H371 C347 0.949 . S
H372 C349 0.950 . S
H373 C351 0.950 . S
C374 C375 1.349 . S
C374 C376 1.327 . S
C374 H399 0.950 . S
C375 C374 1.349 . S
C375 C391 1.349 . S
C376 C374 1.327 . S
C376 C395 1.429 . S
C376 H400 0.950 . S
C377 C394 1.574 . S
C377 C396 1.368 . S
C377 H401 0.949 . S
H378 C382 0.949 . S
C379 C380 1.349 . S
C379 C381 1.327 . S
C379 H402 0.950 . S
C380 C379 1.349 . S
C380 C392 1.349 . S
C381 C379 1.327 . S
C381 C397 1.429 . S
C381 H403 0.950 . S
C382 H378 0.949 . S
C382 C390 1.574 . S
C382 C398 1.368 . S
H383 C391 0.950 . S
H384 C389 0.950 . S
H385 C390 0.949 . S
H386 C392 0.950 . S
H387 C393 0.950 . S
H388 C394 0.949 . S
C389 H384 0.950 . S
C389 C391 1.327 . S
C389 C395 1.429 . S
C390 C382 1.574 . S
C390 H385 0.949 . S
C390 C396 1.368 . S
C391 C375 1.349 . S
C391 H383 0.950 . S
C391 C389 1.327 . S
C392 C380 1.349 . S
C392 H386 0.950 . S
C392 C393 1.327 . S
C393 H387 0.950 . S
C393 C392 1.327 . S
C393 C397 1.429 . S
C394 C377 1.574 . S
C394 H388 0.949 . S
C394 C398 1.368 . S
C395 C376 1.429 . S
C395 C389 1.429 . S
C395 C396 1.523 . S
C396 C377 1.368 . S
C396 C390 1.368 . S
C396 C395 1.523 . S
C397 C381 1.429 . S
C397 C393 1.429 . S
C397 C398 1.523 . S
C398 C382 1.368 . S
C398 C394 1.368 . S
C398 C397 1.523 . S
H399 C374 0.950 . S
H400 C376 0.950 . S
H401 C377 0.949 . S
H402 C379 0.950 . S
H403 C381 0.950 . S
C404 C405 1.349 . S
C404 C406 1.327 . S
C404 H429 0.950 . S
C405 C404 1.349 . S
C405 C421 1.349 . S
C406 C404 1.327 . S
C406 C425 1.429 . S
C406 H430 0.950 . S
C407 C424 1.574 . S
C407 C426 1.368 . S
C407 H431 0.949 . S
H408 C412 0.949 . S
C409 C410 1.349 . S
C409 C411 1.327 . S
C409 H432 0.951 1_565 S
C410 C409 1.349 . S
C410 C422 1.349 . S
C411 C409 1.327 . S
C411 C427 1.429 . S
C411 H433 0.950 . S
C412 H408 0.949 . S
C412 C420 1.574 . S
C412 C428 1.368 . S
H413 C421 0.948 1_455 S
H414 C419 0.950 . S
H415 C420 0.949 . S
H416 C422 0.950 . S
H417 C423 0.950 . S
H418 C424 0.949 . S
C419 H414 0.950 . S
C419 C421 1.328 . S
C419 C425 1.429 . S
C420 C412 1.574 . S
C420 H415 0.949 . S
C420 C426 1.368 . S
C421 C405 1.349 . S
C421 H413 0.948 1_655 S
C421 C419 1.328 . S
C422 C410 1.349 . S
C422 H416 0.950 . S
C422 C423 1.327 . S
C423 H417 0.950 . S
C423 C422 1.327 . S
C423 C427 1.429 . S
C424 C407 1.574 . S
C424 H418 0.949 . S
C424 C428 1.368 . S
C425 C406 1.429 . S
C425 C419 1.429 . S
C425 C426 1.523 . S
C426 C407 1.368 . S
C426 C420 1.368 . S
C426 C425 1.523 . S
C427 C411 1.429 . S
C427 C423 1.429 . S
C427 C428 1.523 . S
C428 C412 1.368 . S
C428 C424 1.368 . S
C428 C427 1.523 . S
H429 C404 0.950 . S
H430 C406 0.950 . S
H431 C407 0.949 . S
H432 C409 0.951 1_545 S
H433 C411 0.950 . S
C434 C435 1.349 . S
C434 C436 1.327 . S
C434 H459 0.950 . S
C435 C434 1.349 . S
C435 C451 1.349 . S
C436 C434 1.327 . S
C436 C455 1.429 . S
C436 H460 0.950 . S
C437 C454 1.574 . S
C437 C456 1.368 . S
C437 H461 0.949 . S
H438 C442 0.949 . S
C439 C440 1.349 . S
C439 C441 1.327 . S
C439 H462 0.950 1_565 S
C440 C439 1.349 . S
C440 C452 1.349 . S
C441 C439 1.327 . S
C441 C457 1.429 . S
C441 H463 0.950 . S
C442 H438 0.949 . S
C442 C450 1.574 . S
C442 C458 1.368 . S
H443 C451 0.950 . S
H444 C449 0.950 . S
H445 C450 0.949 . S
H446 C452 0.950 . S
H447 C453 0.950 . S
H448 C454 0.949 . S
C449 H444 0.950 . S
C449 C451 1.327 . S
C449 C455 1.429 . S
C450 C442 1.574 . S
C450 H445 0.949 . S
C450 C456 1.368 . S
C451 C435 1.349 . S
C451 H443 0.950 . S
C451 C449 1.327 . S
C452 C440 1.349 . S
C452 H446 0.950 . S
C452 C453 1.327 . S
C453 H447 0.950 . S
C453 C452 1.327 . S
C453 C457 1.429 . S
C454 C437 1.574 . S
C454 H448 0.949 . S
C454 C458 1.368 . S
C455 C436 1.429 . S
C455 C449 1.429 . S
C455 C456 1.523 . S
C456 C437 1.368 . S
C456 C450 1.368 . S
C456 C455 1.523 . S
C457 C441 1.429 . S
C457 C453 1.429 . S
C457 C458 1.523 . S
C458 C442 1.368 . S
C458 C454 1.368 . S
C458 C457 1.523 . S
H459 C434 0.950 . S
H460 C436 0.950 . S
H461 C437 0.949 . S
H462 C439 0.950 1_545 S
H463 C441 0.950 . S
C464 C465 1.349 . S
C464 C466 1.327 . S
C464 H489 0.950 1_565 S
C465 C464 1.349 . S
C465 C481 1.349 . S
C466 C464 1.327 . S
C466 C485 1.429 . S
C466 H490 0.950 . S
C467 C484 1.574 . S
C467 C486 1.368 . S
C467 H491 0.949 . S
H468 C472 0.949 . S
C469 C470 1.349 . S
C469 C471 1.327 . S
C469 H492 0.950 . S
C470 C469 1.349 . S
C470 C482 1.349 . S
C471 C469 1.327 . S
C471 C487 1.429 . S
C471 H493 0.950 . S
C472 H468 0.949 . S
C472 C480 1.574 . S
C472 C488 1.368 . S
H473 C481 0.950 . S
H474 C479 0.950 . S
H475 C480 0.949 . S
H476 C482 0.950 . S
H477 C483 0.950 . S
H478 C484 0.949 . S
C479 H474 0.950 . S
C479 C481 1.327 . S
C479 C485 1.429 . S
C480 C472 1.574 . S
C480 H475 0.949 . S
C480 C486 1.368 . S
C481 C465 1.349 . S
C481 H473 0.950 . S
C481 C479 1.327 . S
C482 C470 1.349 . S
C482 H476 0.950 . S
C482 C483 1.327 . S
C483 H477 0.950 . S
C483 C482 1.327 . S
C483 C487 1.429 . S
C484 C467 1.574 . S
C484 H478 0.949 . S
C484 C488 1.368 . S
C485 C466 1.429 . S
C485 C479 1.429 . S
C485 C486 1.523 . S
C486 C467 1.368 . S
C486 C480 1.368 . S
C486 C485 1.523 . S
C487 C471 1.429 . S
C487 C483 1.429 . S
C487 C488 1.523 . S
C488 C472 1.368 . S
C488 C484 1.368 . S
C488 C487 1.523 . S
H489 C464 0.950 1_545 S
H490 C466 0.950 . S
H491 C467 0.949 . S
H492 C469 0.950 . S
H493 C471 0.950 . S
C494 C495 1.349 . S
C494 C496 1.327 . S
C494 H519 0.970 . S
C495 C494 1.349 . S
C495 C511 1.349 . S
C496 C494 1.327 . S
C496 C515 1.429 . S
C496 H520 0.950 . S
C497 C514 1.574 . S
C497 C516 1.368 . S
C497 H521 0.949 . S
H498 C502 0.949 . S
C499 C500 1.349 . S
C499 C501 1.327 . S
C499 H522 0.950 . S
C500 C499 1.349 . S
C500 C512 1.349 . S
C501 C499 1.327 . S
C501 C517 1.429 . S
C501 H523 0.950 . S
C502 H498 0.949 . S
C502 C510 1.574 . S
C502 C518 1.368 . S
H503 C511 0.950 . S
H504 C509 0.950 . S
H505 C510 0.949 . S
H506 C512 0.950 . S
H507 C513 0.950 . S
H508 C514 0.949 . S
C509 H504 0.950 . S
C509 C511 1.327 . S
C509 C515 1.429 . S
C510 C502 1.574 . S
C510 H505 0.949 . S
C510 C516 1.368 . S
C511 C495 1.349 . S
C511 H503 0.950 . S
C511 C509 1.327 . S
C512 C500 1.349 . S
C512 H506 0.950 . S
C512 C513 1.327 . S
C513 H507 0.950 . S
C513 C512 1.327 . S
C513 C517 1.429 . S
C514 C497 1.574 . S
C514 H508 0.949 . S
C514 C518 1.368 . S
C515 C496 1.429 . S
C515 C509 1.429 . S
C515 C516 1.523 . S
C516 C497 1.368 . S
C516 C510 1.368 . S
C516 C515 1.523 . S
C517 C501 1.429 . S
C517 C513 1.429 . S
C517 C518 1.523 . S
C518 C502 1.368 . S
C518 C514 1.368 . S
C518 C517 1.523 . S
H519 C494 0.970 . S
H520 C496 0.950 . S
H521 C497 0.949 . S
H522 C499 0.950 . S
H523 C501 0.950 . S
C524 C525 1.349 . S
C524 C526 1.327 . S
C524 H549 0.950 . S
C525 C524 1.349 . S
C525 C541 1.349 . S
C526 C524 1.327 . S
C526 C545 1.429 . S
C526 H550 0.950 . S
C527 C544 1.574 . S
C527 C546 1.368 . S
C527 H551 0.949 . S
H528 C532 0.949 . S
C529 C530 1.349 . S
C529 C531 1.327 . S
C529 H552 0.950 . S
C530 C529 1.349 . S
C530 C542 1.349 . S
C531 C529 1.327 . S
C531 C547 1.429 . S
C531 H553 0.950 . S
C532 H528 0.949 . S
C532 C540 1.574 . S
C532 C548 1.368 . S
H533 C541 0.950 . S
H534 C539 0.950 . S
H535 C540 0.949 . S
H536 C542 0.950 . S
H537 C543 0.950 . S
H538 C544 0.949 . S
C539 H534 0.950 . S
C539 C541 1.327 . S
C539 C545 1.429 . S
C540 C532 1.574 . S
C540 H535 0.949 . S
C540 C546 1.368 . S
C541 C525 1.349 . S
C541 H533 0.950 . S
C541 C539 1.327 . S
C542 C530 1.349 . S
C542 H536 0.950 . S
C542 C543 1.327 . S
C543 H537 0.950 . S
C543 C542 1.327 . S
C543 C547 1.429 . S
C544 C527 1.574 . S
C544 H538 0.949 . S
C544 C548 1.368 . S
C545 C526 1.429 . S
C545 C539 1.429 . S
C545 C546 1.523 . S
C546 C527 1.368 . S
C546 C540 1.368 . S
C546 C545 1.523 . S
C547 C531 1.429 . S
C547 C543 1.429 . S
C547 C548 1.523 . S
C548 C532 1.368 . S
C548 C544 1.368 . S
C548 C547 1.523 . S
H549 C524 0.950 . S
H550 C526 0.950 . S
H551 C527 0.949 . S
H552 C529 0.950 . S
H553 C531 0.950 . S
C554 C555 1.349 . S
C554 C556 1.327 . S
C554 H579 0.950 . S
C555 C554 1.349 . S
C555 C571 1.349 . S
C556 C554 1.327 . S
C556 C575 1.429 . S
C556 H580 0.950 . S
C557 C574 1.574 . S
C557 C576 1.368 . S
C557 H581 0.949 . S
H558 C562 0.949 . S
C559 C560 1.349 . S
C559 C561 1.327 . S
C559 H582 0.950 . S
C560 C559 1.349 . S
C560 C572 1.349 . S
C561 C559 1.327 . S
C561 C577 1.429 . S
C561 H583 0.950 . S
C562 H558 0.949 . S
C562 C570 1.574 . S
C562 C578 1.368 . S
H563 C571 0.950 . S
H564 C569 0.950 . S
H565 C570 0.949 . S
H566 C572 0.950 . S
H567 C573 0.950 . S
H568 C574 0.949 . S
C569 H564 0.950 . S
C569 C571 1.327 . S
C569 C575 1.429 . S
C570 C562 1.574 . S
C570 H565 0.949 . S
C570 C576 1.368 . S
C571 C555 1.349 . S
C571 H563 0.950 . S
C571 C569 1.327 . S
C572 C560 1.349 . S
C572 H566 0.950 . S
C572 C573 1.327 . S
C573 H567 0.950 . S
C573 C572 1.327 . S
C573 C577 1.429 . S
C574 C557 1.574 . S
C574 H568 0.949 . S
C574 C578 1.368 . S
C575 C556 1.429 . S
C575 C569 1.429 . S
C575 C576 1.523 . S
C576 C557 1.368 . S
C576 C570 1.368 . S
C576 C575 1.523 . S
C577 C561 1.429 . S
C577 C573 1.429 . S
C577 C578 1.523 . S
C578 C562 1.368 . S
C578 C574 1.368 . S
C578 C577 1.523 . S
H579 C554 0.950 . S
H580 C556 0.950 . S
H581 C557 0.949 . S
H582 C559 0.950 . S
H583 C561 0.950 . S
C105 C4 1.636 . S
C110 C62 1.636 . S
C135 C17 1.636 . S
C140 C69 1.636 . S
C165 C88 1.636 . S
C170 C30 1.636 . S
C195 C101 1.636 . S
C200 C49 1.636 . S
C225 C10 1.359 . S
C230 C36 1.359 . S
C255 C23 1.359 . S
C260 C43 1.359 . S
C285 C82 1.359 . S
C290 C56 1.359 . S
C315 C75 1.359 . S
C320 C95 1.359 . S
C345 C68 1.681 . S
C350 C3 1.681 . S
C375 C16 1.681 1_655 S
C380 C83 1.681 . S
C405 C96 1.681 1_655 S
C410 C29 1.681 1_565 S
C435 C44 1.681 . S
C440 C57 1.681 1_565 S
C465 C81 1.087 . S
C470 C42 1.087 . S
C495 C5 1.087 . S
C500 C94 1.087 . S
C525 C18 1.087 . S
C530 C55 1.087 . S
C555 C70 1.087 . S
C560 C31 1.087 . S
