# Generated by pormake.
# Topology qtz-x, (6)-cn, num edge types: 1
# Building blocks:
#     Node 0, Type 0, BuildingBlock: HISSIN_clean_sbu_0, # of connection points: 6
#     Node 1, Type 0, BuildingBlock: HISSIN_clean_sbu_0, # of connection points: 6
#     Node 2, Type 0, BuildingBlock: HISSIN_clean_sbu_0, # of connection points: 6
#     Edge 3, Type (0, 0), BuildingBlock: ZUJKAS_clean_linker_0, # of connection points: 2
#     Edge 4, Type (0, 0), BuildingBlock: ZUJKAS_clean_linker_0, # of connection points: 2
#     Edge 5, Type (0, 0), BuildingBlock: ZUJKAS_clean_linker_0, # of connection points: 2
#     Edge 6, Type (0, 0), BuildingBlock: ZUJKAS_clean_linker_0, # of connection points: 2
#     Edge 7, Type (0, 0), BuildingBlock: ZUJKAS_clean_linker_0, # of connection points: 2
#     Edge 8, Type (0, 0), BuildingBlock: ZUJKAS_clean_linker_0, # of connection points: 2
#     Edge 9, Type (0, 0), BuildingBlock: ZUJKAS_clean_linker_0, # of connection points: 2
#     Edge 10, Type (0, 0), BuildingBlock: ZUJKAS_clean_linker_0, # of connection points: 2
#     Edge 11, Type (0, 0), BuildingBlock: ZUJKAS_clean_linker_0, # of connection points: 2
# Relax obj value: 0.186
# Max RMSD: 0.239
# Mean RMSD: 0.226
data_MOF--net-qtz-x--node1-HISSIN_clean_sbu_0--edge1-ZUJKAS_clean_linker_0
_symmetry_space_group_name_H-M    P1
_symmetry_Int_Tables_number       1
_symmetry_cell_setting            triclinic
loop_
_symmetry_equiv_pos_as_xyz
'x, y, z'
_cell_length_a     19.692784
_cell_length_b     19.693948
_cell_length_c     65.608626
_cell_angle_alpha  72.359319
_cell_angle_beta   110.51203
_cell_angle_gamma 120.54277
loop_
_atom_site_label
_atom_site_type_symbol
_atom_site_fract_x
_atom_site_fract_y
_atom_site_fract_z
_atom_type_partial_charge
Eu0 Eu 0.96718 0.54191 0.19706 0.0
Eu1 Eu 0.14767 0.64296 0.18565 0.0
C2 C 0.06166 0.45565 0.19449 0.0
C3 C 0.81743 0.43141 0.2328 0.0
C4 C 0.87205 0.41067 0.25072 0.0
C5 C 0.73513 0.40137 0.25763 0.0
C6 C 0.8579 0.38466 0.27182 0.0
C7 C 0.74909 0.42695 0.23643 0.0
C8 C 0.78914 0.37936 0.27553 0.0
C9 C 0.83265 0.45878 0.21052 0.0
O10 O 0.05748 0.59819 0.15458 0.0
O11 O 0.94 0.58066 0.16005 0.0
C12 C 0.98289 0.59003 0.14695 0.0
O13 O 0.01678 0.66932 0.20097 0.0
O14 O 0.24565 0.64069 0.17806 0.0
O15 O 0.25498 0.75368 0.17931 0.0
O16 O 0.09255 0.72758 0.17541 0.0
C17 C 0.05417 0.73168 0.18743 0.0
O18 O 0.05911 0.54344 0.22954 0.0
O19 O 0.17262 0.6548 0.22088 0.0
O20 O 0.12863 0.51796 0.20118 0.0
O21 O 0.8622 0.53549 0.2037 0.0
O22 O 0.86886 0.42715 0.20596 0.0
O23 O 0.99228 0.45897 0.18703 0.0
C24 C 0.30743 0.7495 0.15265 0.0
C25 C 0.25031 0.75797 0.13327 0.0
C26 C 0.40193 0.78673 0.13087 0.0
C27 C 0.26875 0.78028 0.11278 0.0
C28 C 0.3835 0.76475 0.15135 0.0
C29 C 0.34442 0.79385 0.1113 0.0
C30 C 0.28557 0.71809 0.17398 0.0
C31 C 0.13189 0.60177 0.23543 0.0
H32 H 0.92583 0.41448 0.24844 0.0
H33 H 0.68145 0.39758 0.25997 0.0
H34 H 0.90137 0.36948 0.2853 0.0
H35 H 0.70646 0.44308 0.22287 0.0
H36 H 0.19085 0.74569 0.13397 0.0
H37 H 0.46021 0.79535 0.13036 0.0
H38 H 0.22339 0.7861 0.0981 0.0
H39 H 0.42786 0.75746 0.16614 0.0
Eu40 Eu 0.77307 0.12341 0.54977 0.0
Eu41 Eu 0.66641 0.93904 0.5386 0.0
C42 C 0.58171 0.03506 0.54114 0.0
C43 C 0.86773 0.30003 0.57931 0.0
C44 C 0.80675 0.26449 0.59088 0.0
C45 C 0.95261 0.39617 0.60469 0.0
C46 C 0.81843 0.29496 0.60914 0.0
C47 C 0.9406 0.36604 0.58629 0.0
C48 C 0.89165 0.36087 0.61631 0.0
C49 C 0.85748 0.26601 0.56074 0.0
O50 O 0.70299 0.01677 0.50738 0.0
O51 O 0.72784 0.1381 0.51272 0.0
C52 C 0.71412 0.09061 0.4998 0.0
O53 O 0.85328 0.09272 0.54084 0.0
O54 O 0.55286 0.8293 0.5341 0.0
O55 O 0.65969 0.83995 0.5283 0.0
O56 O 0.79559 0.9601 0.55439 0.0
C57 C 0.85742 0.02491 0.54838 0.0
O58 O 0.77643 0.04443 0.58284 0.0
O59 O 0.66877 0.92371 0.57433 0.0
O60 O 0.58188 -0.00508 0.52846 0.0
O61 O 0.8867 0.21503 0.56574 0.0
O62 O 0.78592 0.24224 0.54708 0.0
O63 O 0.64872 0.07576 0.55475 0.0
C64 C 0.53555 0.77563 0.50402 0.0
C65 C 0.51661 0.83029 0.48657 0.0
C66 C 0.47891 0.68175 0.47867 0.0
C67 C 0.47919 0.81089 0.46531 0.0
C68 C 0.51607 0.70112 0.49999 0.0
C69 C 0.46062 0.7367 0.46107 0.0
C70 C 0.58134 0.79905 0.5259 0.0
C71 C 0.72312 -0.02853 0.58877 0.0
H72 H 0.7505 0.21262 0.58595 0.0
H73 H 0.0094 0.44731 0.60976 0.0
H74 H 0.77087 0.26585 0.61796 0.0
H75 H 0.9885 0.39377 0.57764 0.0
H76 H 0.53241 0.88869 0.48931 0.0
H77 H 0.46475 0.62392 0.47595 0.0
H78 H 0.46705 0.85496 0.45207 0.0
H79 H 0.53092 0.65853 0.51325 0.0
Eu80 Eu 0.69064 0.76464 0.86261 0.0
Eu81 Eu 0.79358 0.66897 0.86664 0.0
C82 C 0.60647 0.58033 0.86345 0.0
C83 C 0.59298 0.85514 0.8792 0.0
C84 C 0.64143 0.85232 0.90072 0.0
C85 C 0.50758 0.88045 0.89205 0.0
C86 C 0.62257 0.86266 0.91785 0.0
C87 C 0.52665 0.87027 0.8749 0.0
C88 C 0.55459 0.87549 0.91378 0.0
C89 C 0.6064 0.83406 0.86181 0.0
O90 O 0.73255 0.68737 0.83067 0.0
O91 O 0.71584 0.7963 0.82901 0.0
C92 C 0.72092 0.74979 0.8194 0.0
O93 O 0.82162 0.84075 0.87674 0.0
O94 O 0.79338 0.56274 0.86287 0.0
O95 O 0.90778 0.66427 0.87291 0.0
O96 O 0.87056 0.80021 0.85843 0.0
C97 C 0.87944 0.85319 0.86856 0.0
O98 O 0.70892 0.70535 0.8981 0.0
O99 O 0.81732 0.68357 0.90166 0.0
O100 O 0.67521 0.57974 0.87529 0.0
O101 O 0.67969 0.87323 0.85861 0.0
O102 O 0.57617 0.75765 0.86214 0.0
O103 O 0.605 0.64619 0.85141 0.0
C104 C 0.89901 0.5948 0.84778 0.0
C105 C 0.89245 0.64615 0.82779 0.0
C106 C 0.93903 0.52974 0.83133 0.0
C107 C 0.90737 0.63828 0.80955 0.0
C108 C 0.92359 0.53741 0.84957 0.0
C109 C 0.92928 0.57895 0.81099 0.0
C110 C 0.87201 0.5961 0.8658 0.0
C111 C 0.76929 0.68863 0.91034 0.0
H112 H 0.69227 0.83954 0.90438 0.0
H113 H 0.4553 0.89096 0.88837 0.0
H114 H 0.65927 0.85731 0.93443 0.0
H115 H 0.4883 0.87199 0.85841 0.0
H116 H 0.87331 0.69074 0.82611 0.0
H117 H 0.95509 0.48303 0.83287 0.0
H118 H 0.90028 0.67766 0.7942 0.0
H119 H 0.9282 0.49686 0.86483 0.0
H120 H 0.13514 0.87702 0.16398 0.0
H121 H 0.14399 0.00506 0.16458 0.0
H122 H 0.98666 0.88791 0.20945 0.0
H123 H 0.97806 0.76019 0.20919 0.0
H124 H 0.02029 0.05139 0.15356 0.0
H125 H 0.18674 0.06678 0.24123 0.0
H126 H 0.17736 -0.00135 0.22602 0.0
H127 H 0.095 -0.02457 0.23707 0.0
C128 C 0.10231 0.87848 0.17394 0.0
C129 C 0.05645 0.80853 0.18669 0.0
C130 C 0.10749 0.95163 0.17427 0.0
C131 C 0.06725 0.95593 0.18739 0.0
C132 C 0.01964 0.88598 0.19961 0.0
H133 H 0.93461 0.31498 0.18247 0.0
H134 H 0.94054 0.19674 0.18017 0.0
C135 C 0.01449 0.81298 0.19933 0.0
C136 C 0.0742 0.03335 0.18826 0.0
H137 H 0.13025 0.15837 0.22383 0.0
C138 C 0.04492 0.07525 0.16886 0.0
C139 C 0.10761 0.06476 0.2082 0.0
C140 C 0.14424 0.02454 0.22928 0.0
C141 C 0.04545 0.14656 0.16903 0.0
C142 C 0.07485 0.17566 0.18921 0.0
C143 C 0.10685 0.13527 0.20844 0.0
C144 C 0.07154 0.24714 0.1908 0.0
C145 C 0.0148 0.19019 0.14762 0.0
C146 C 0.1431 0.31354 0.19826 0.0
C147 C 0.13994 0.38103 0.1998 0.0
C148 C 0.06502 0.38297 0.19398 0.0
C149 C 0.99334 0.31563 0.18694 0.0
C150 C 0.9966 0.24821 0.18545 0.0
H151 H 0.01638 0.17312 0.13319 0.0
H152 H 0.95087 0.17467 0.14621 0.0
H153 H 0.05129 0.25583 0.14696 0.0
H154 H 0.20147 0.31345 0.20264 0.0
H155 H 0.19625 0.43191 0.20529 0.0
H156 H 0.42872 0.94875 0.51736 0.0
H157 H 0.30126 0.93967 0.5184 0.0
H158 H 0.43318 0.10415 0.56531 0.0
H159 H 0.56054 0.113 0.56463 0.0
H160 H 0.29728 -0.03312 0.57711 0.0
H161 H 0.22184 0.11217 0.49104 0.0
H162 H 0.2411 0.02932 0.49398 0.0
H163 H 0.32176 0.1188 0.50447 0.0
C164 C 0.43067 -0.01658 0.52778 0.0
C165 C 0.50479 0.03182 0.54085 0.0
C166 C 0.35784 -0.02172 0.52831 0.0
C167 C 0.3581 0.02181 0.54178 0.0
C168 C 0.43188 0.07017 0.5548 0.0
H169 H 0.9992 0.14884 0.53964 0.0
H170 H 0.11866 0.14252 0.53876 0.0
C171 C 0.50459 0.07529 0.55432 0.0
C172 C 0.28156 0.01647 0.54267 0.0
H173 H 0.12519 0.06096 0.512 0.0
C174 C 0.25936 -0.01286 0.56289 0.0
C175 C 0.23289 0.04357 0.52408 0.0
C176 C 0.25565 0.07839 0.50218 0.0
C177 C 0.18986 -0.01516 0.56508 0.0
C178 C 0.14096 0.01156 0.54646 0.0
C179 C 0.16277 0.04017 0.5262 0.0
C180 C 0.06905 0.01422 0.54784 0.0
C181 C 0.17075 0.95618 0.58742 0.0
C182 C 1.00167 0.94403 0.55329 0.0
C183 C 0.93324 0.94741 0.55393 0.0
C184 C 0.93099 0.02103 0.54892 0.0
C185 C 0.99888 0.09116 0.54357 0.0
C186 C 0.06718 0.08771 0.54302 0.0
H187 H 0.2237 0.95479 0.60085 0.0
H188 H 0.15142 -0.005 0.59076 0.0
H189 H 0.12014 0.89476 0.58781 0.0
H190 H 1.00149 0.88659 0.5567 0.0
H191 H 0.88169 0.89227 0.55795 0.0
H192 H 0.91583 -0.02118 0.88676 0.0
H193 H 0.03693 0.10778 0.88709 0.0
H194 H 0.13186 0.02769 0.85402 0.0
H195 H 0.01106 0.899 0.85337 0.0
H196 H 0.20403 0.14189 0.90501 0.0
H197 H 0.12972 0.23595 0.81454 0.0
H198 H 0.05578 0.15485 0.82902 0.0
H199 H 0.12778 0.13941 0.82247 0.0
C200 C 0.96254 -0.01141 0.87959 0.0
C201 C 0.95374 0.92922 0.86983 0.0
C202 C 0.03147 0.06208 0.87983 0.0
C203 C 0.092 0.07699 0.87025 0.0
C204 C 0.08463 0.01723 0.8611 0.0
H205 H 0.58636 0.42955 0.88224 0.0
H206 H 0.45838 0.30974 0.88494 0.0
C207 C 0.01582 0.94383 0.86083 0.0
C208 C 0.16306 0.15533 0.86964 0.0
H209 H 0.26439 0.3123 0.83418 0.0
C210 C 0.21715 0.17974 0.88958 0.0
C211 C 0.17849 0.2046 0.84944 0.0
C212 C 0.11951 0.18289 0.82764 0.0
C213 C 0.28871 0.2515 0.88981 0.0
C214 C 0.30648 0.29845 0.86955 0.0
C215 C 0.25071 0.27541 0.84965 0.0
C216 C 0.38352 0.37086 0.86849 0.0
C217 C 0.34445 0.2763 0.91168 0.0
C218 C 0.383 0.44389 0.85773 0.0
C219 C 0.45567 0.51199 0.85583 0.0
C220 C 0.5298 0.50785 0.8647 0.0
C221 C 0.53007 0.43445 0.87536 0.0
C222 C 0.45725 0.36623 0.8771 0.0
H223 H 0.31139 0.24738 0.92502 0.0
H224 H 0.39311 0.25775 0.91615 0.0
H225 H 0.3734 0.34204 0.91086 0.0
H226 H 0.32635 0.44812 0.85084 0.0
H227 H 0.4537 0.5679 0.84762 0.0
H228 H 0.40188 0.80248 0.92054 0.0
H229 H 0.36253 0.79891 0.95246 0.0
H230 H 0.61231 0.94846 0.98137 0.0
H231 H 0.65209 0.95365 0.94928 0.0
H232 H 0.42456 0.73948 0.99649 0.0
H233 H 0.48552 0.05391 0.98762 0.0
H234 H 0.47324 0.01131 0.96499 0.0
H235 H 0.56701 0.04097 0.98571 0.0
C236 C 0.44823 0.83609 0.93345 0.0
C237 C 0.53011 0.87859 0.93235 0.0
C238 C 0.42569 0.83357 0.95173 0.0
C239 C 0.48438 0.87407 0.96914 0.0
C240 C 0.56592 0.91781 0.96794 0.0
H241 H 0.48807 0.89765 0.0991 0.0
H242 H 0.51943 0.91721 0.06421 0.0
C243 C 0.58862 0.9201 0.9497 0.0
C244 C 0.46108 0.86572 0.98923 0.0
H245 H 0.4557 -0.02967 1.02122 0.0
C246 C 0.43076 0.78977 1.00185 0.0
C247 C 0.46988 0.93163 0.99619 0.0
C248 C 0.50006 0.01406 0.98287 0.0
C249 C 0.41048 0.77809 1.02153 0.0
C250 C 0.41894 0.84394 1.02848 0.0
C251 C 0.44905 0.91995 1.01581 0.0
C252 C 0.3983 0.83512 0.04911 0.0
C253 C 0.3825 0.69574 0.035 0.0
C254 C 0.31932 0.78392 0.052 0.0
C255 C 0.30143 0.77175 0.07201 0.0
C256 C 0.36203 0.81134 0.08947 0.0
C257 C 0.44035 0.86506 0.08617 0.0
C258 C 0.45824 0.87683 0.06618 0.0
H259 H 0.39996 0.6576 1.03053 0.0
H260 H 0.40831 0.69884 0.05289 0.0
H261 H 0.31532 0.66633 1.0319 0.0
H262 H 0.27172 0.75235 0.03888 0.0
H263 H 0.24065 0.72952 0.07397 0.0
H264 H 0.72085 0.23473 0.47631 0.0
H265 H 0.72291 0.28496 0.43739 0.0
H266 H 0.7124 0.06783 0.43113 0.0
H267 H 0.70778 0.01633 0.46963 0.0
H268 H 0.83228 0.31645 0.41628 0.0
H269 H 0.53652 0.08397 0.37882 0.0
H270 H 0.5648 0.09407 0.40743 0.0
H271 H 0.6001 0.04178 0.39864 0.0
C272 C 0.71818 0.19735 0.46659 0.0
C273 C 0.71374 0.12129 0.47612 0.0
C274 C 0.71942 0.22618 0.44434 0.0
C275 C 0.71621 0.17962 0.43116 0.0
C276 C 0.71248 0.10402 0.44071 0.0
H277 H 0.80177 0.25128 0.3047 0.0
H278 H 0.78151 0.20605 0.34218 0.0
C279 C 0.71052 0.07489 0.46286 0.0
C280 C 0.72076 0.21134 0.40775 0.0
H281 H 0.62925 0.16629 0.35544 0.0
C282 C 0.78726 0.28411 0.40296 0.0
C283 C 0.66195 0.16924 0.39029 0.0
C284 C 0.58644 0.09339 0.39401 0.0
C285 C 0.79793 0.31443 0.38137 0.0
C286 C 0.74054 0.27105 0.36412 0.0
C287 C 0.67332 0.19915 0.36877 0.0
C288 C 0.75092 0.29815 0.34125 0.0
C289 C 0.87174 0.39143 0.37716 0.0
C290 C 0.73947 0.3644 0.32826 0.0
C291 C 0.7507 0.39025 0.30679 0.0
C292 C 0.77415 0.35056 0.29802 0.0
C293 C 0.7847 0.2837 0.31107 0.0
C294 C 0.77276 0.25753 0.33243 0.0
H295 H 0.91572 0.41268 0.39268 0.0
H296 H 0.90289 0.38365 0.36745 0.0
H297 H 0.85252 0.43823 0.36734 0.0
H298 H 0.72213 0.3962 0.33477 0.0
H299 H 0.74262 0.4422 0.2972 0.0
H300 H 0.73364 0.66946 0.79447 0.0
H301 H 0.7318 0.70356 0.75537 0.0
H302 H 0.69651 0.90729 0.75051 0.0
H303 H 0.69751 0.87328 0.78973 0.0
H304 H 0.5954 0.81855 0.71582 0.0
H305 H 0.91687 0.88825 0.72851 0.0
H306 H 0.85679 0.79099 0.74169 0.0
H307 H 0.87603 0.87837 0.75054 0.0
C308 C 0.72524 0.72149 0.78515 0.0
C309 C 0.71604 0.76883 0.79535 0.0
C310 C 0.7247 0.74113 0.76277 0.0
C311 C 0.71534 0.80869 0.75008 0.0
C312 C 0.70425 0.85509 0.76003 0.0
H313 H 0.82283 0.055 0.6231 0.0
H314 H 0.81856 0.01295 0.66182 0.0
C315 C 0.70488 0.83556 0.78247 0.0
C316 C 0.71715 0.83092 0.72644 0.0
H317 H 0.83747 0.88516 0.69172 0.0
C318 C 0.6483 0.83317 0.71053 0.0
C319 C 0.78653 0.85069 0.71959 0.0
C320 C 0.86358 0.85275 0.73595 0.0
C321 C 0.64666 0.85393 0.68794 0.0
C322 C 0.71541 0.87202 0.68106 0.0
C323 C 0.78452 0.87048 0.69699 0.0
C324 C 0.71816 0.89588 0.65747 0.0
C325 C 0.572 0.85803 0.67165 0.0
C326 C 0.66393 0.84351 0.64213 0.0
C327 C 0.66613 0.86734 0.61987 0.0
C328 C 0.72297 0.94395 0.61252 0.0
C329 C 0.77822 -0.00445 0.62807 0.0
C330 C 0.77592 -0.02834 0.65028 0.0
H331 H 0.53278 0.86085 0.67978 0.0
H332 H 0.58894 0.9109 0.65863 0.0
H333 H 0.53584 0.80381 0.66361 0.0
H334 H 0.61983 0.78416 0.64738 0.0
H335 H 0.62286 0.82592 0.60841 0.0
H336 H 0.6841 0.69468 0.93455 0.0
H337 H 0.71102 0.67738 0.97467 0.0
H338 H 0.91338 0.63597 0.98149 0.0
H339 H 0.88749 0.65349 0.94145 0.0
H340 H 0.7189 0.54372 1.00734 0.0
H341 H 0.01115 0.81952 1.01705 0.0
H342 H 0.93836 0.80139 0.99085 0.0
H343 H 1.00455 0.75455 1.00149 0.0
C344 C 0.73432 0.68176 0.94454 0.0
C345 C 0.78389 0.67588 0.93469 0.0
C346 C 0.74948 0.6718 0.96749 0.0
C347 C 0.81479 0.65643 0.98104 0.0
C348 C 0.86344 0.64911 0.97131 0.0
H349 H 0.04676 0.58621 0.11686 0.0
H350 H 0.99798 0.60025 0.07703 0.0
C351 C 0.84831 0.65886 0.94839 0.0
C352 C 0.83266 0.64834 1.00535 0.0
H353 H 0.98062 0.72891 0.04975 0.0
C354 C 0.77574 0.58451 1.01666 0.0
C355 C 0.90663 0.70198 1.01742 0.0
C356 C 0.96847 0.77369 1.00611 0.0
C357 C 0.7925 0.57082 0.03983 0.0
C358 C 0.86754 0.62331 0.05191 0.0
C359 C 0.92324 0.68848 0.0405 0.0
C360 C 0.8924 0.60954 0.07638 0.0
C361 C 0.73128 0.49858 0.05118 0.0
C362 C 0.84886 0.60937 0.08943 0.0
C363 C 0.87651 0.60078 0.11248 0.0
C364 C 0.94861 0.59307 0.12279 0.0
C365 C 0.99112 0.59221 0.10959 0.0
C366 C 0.96336 0.60033 0.08672 0.0
H367 H 0.6853 0.45506 0.03983 0.0
H368 H 0.76179 0.46804 0.06548 0.0
H369 H 0.699 0.5178 0.05737 0.0
H370 H 0.79471 0.61787 0.0818 0.0
H371 H 0.84269 0.6023 0.12213 0.0
H372 H 0.28834 0.69798 0.25492 0.0
H373 H 0.34534 0.71541 0.29366 0.0
H374 H 0.113 0.54391 0.30798 0.0
H375 H 0.05609 0.52457 0.26944 0.0
H376 H 0.30353 0.77003 0.31776 0.0
H377 H 0.26151 0.46299 0.35582 0.0
H378 H 0.25041 0.49665 0.32656 0.0
H379 H 0.1688 0.46605 0.33894 0.0
C380 C 0.24955 0.66325 0.26635 0.0
C381 C 0.16776 0.60943 0.25909 0.0
C382 C 0.28223 0.67339 0.28849 0.0
C383 C 0.23385 0.63011 0.30382 0.0
C384 C 0.15214 0.57642 0.29661 0.0
H385 H 0.3375 0.76384 0.43013 0.0
H386 H 0.28268 0.73792 0.39206 0.0
C387 C 0.11957 0.56569 0.27451 0.0
C388 C 0.26799 0.64398 0.3271 0.0
H389 H 0.29624 0.55013 0.38025 0.0
C390 C 0.30232 0.722 0.33142 0.0
C391 C 0.2673 0.58147 0.34491 0.0
C392 C 0.23578 0.49725 0.34136 0.0
C393 C 0.33488 0.73906 0.35306 0.0
C394 C 0.33121 0.67603 0.37089 0.0
C395 C 0.2981 0.59823 0.36657 0.0
C396 C 0.36267 0.68977 0.39415 0.0
C397 C 0.37428 0.82471 0.35655 0.0
C398 C 0.42386 0.66878 0.40821 0.0
C399 C 0.45476 0.68284 0.43003 0.0
C400 C 0.42498 0.71816 0.43821 0.0
C401 C 0.36257 0.73771 0.42421 0.0
C402 C 0.33136 0.72316 0.40243 0.0
H403 H 0.39253 0.8671 0.3416 0.0
H404 H 0.33034 0.8357 0.36034 0.0
H405 H 0.4288 0.83772 0.37054 0.0
H406 H 0.44872 0.64271 0.40218 0.0
H407 H 0.50334 0.66783 0.44033 0.0
H408 H 0.82796 0.57508 0.77 0.0
H409 H 0.83495 0.54552 0.73745 0.0
H410 H 0.05373 0.5224 0.774 0.0
H411 H 0.04641 0.55091 0.80683 0.0
H412 H 0.9492 0.62028 0.71373 0.0
H413 H 0.91291 0.31307 0.75033 0.0
H414 H 0.8964 0.37017 0.76338 0.0
H415 H 0.99793 0.38939 0.76538 0.0
C416 C 0.87801 0.56441 0.77107 0.0
C417 C 0.93653 0.56504 0.79101 0.0
C418 C 0.88175 0.54724 0.75247 0.0
C419 C 0.94404 0.53039 0.75338 0.0
C420 C 1.00395 0.5332 0.77308 0.0
H421 H 0.02592 0.40127 0.65066 0.0
H422 H 0.04525 0.44806 0.68387 0.0
C423 C 0.99987 0.54974 0.79179 0.0
C424 C 0.94532 0.50955 0.73365 0.0
H425 H 0.93451 0.3606 0.71436 0.0
C426 C 0.94621 0.56358 0.7139 0.0
C427 C 0.94132 0.43545 0.73389 0.0
C428 C 0.93633 0.37329 0.75431 0.0
C429 C 0.94257 0.54528 0.69435 0.0
C430 C 0.93758 0.47097 0.69457 0.0
C431 C 0.9386 0.41765 0.71436 0.0
C432 C 0.92735 0.44583 0.67418 0.0
C433 C 0.94384 0.60533 0.67356 0.0
C434 C 0.8545 0.42882 0.65789 0.0
C435 C 0.84316 0.40183 0.63901 0.0
C436 C 0.90465 0.39169 0.63607 0.0
C437 C 0.97788 0.40943 0.65237 0.0
C438 C 0.98888 0.43576 0.67136 0.0
H439 H 0.96515 0.66572 0.67707 0.0
H440 H 0.98371 0.60906 0.66436 0.0
H441 H 0.88151 0.58604 0.66278 0.0
H442 H 0.806 0.43542 0.65993 0.0
H443 H 0.78634 0.3891 0.62666 0.0
loop_
_geom_bond_atom_site_label_1
_geom_bond_atom_site_label_2
_geom_bond_distance
_geom_bond_site_symmetry_2
_ccdc_geom_bond_type
Eu0 C9 2.828 . S
Eu0 O11 2.392 . S
Eu0 O13 2.418 . S
Eu0 O18 2.373 1_655 S
Eu0 O21 2.488 . S
Eu0 O22 2.471 . S
Eu0 O23 2.349 . S
Eu1 O10 2.373 1_455 S
Eu1 O14 2.488 . S
Eu1 O15 2.471 . S
Eu1 O16 2.349 . S
Eu1 O19 2.392 . S
Eu1 O20 2.418 . S
Eu1 C30 2.828 . S
C2 O20 1.244 . S
C2 O23 1.265 1_455 S
C3 C4 1.379 . S
C3 C7 1.373 . S
C3 C9 1.505 . S
C4 C3 1.379 . S
C4 C6 1.369 . S
C4 H32 0.930 . S
C5 C7 1.383 . S
C5 C8 1.382 . S
C5 H33 0.930 . S
C6 C4 1.369 . S
C6 C8 1.392 . S
C6 H34 0.930 . S
C7 C3 1.373 . S
C7 C5 1.383 . S
C7 H35 0.931 . S
C8 C5 1.382 . S
C8 C6 1.392 . S
C9 Eu0 2.828 . S
C9 C3 1.505 . S
C9 O21 1.249 . S
C9 O22 1.244 . S
O10 Eu1 2.373 1_655 S
O10 C12 1.258 . S
O11 Eu0 2.392 . S
O11 C12 1.242 . S
C12 O10 1.258 . S
C12 O11 1.242 . S
O13 Eu0 2.418 . S
O13 C17 1.244 . S
O14 Eu1 2.488 . S
O14 C30 1.249 . S
O15 Eu1 2.471 . S
O15 C30 1.244 . S
O16 Eu1 2.349 . S
O16 C17 1.265 1_455 S
C17 O13 1.244 . S
C17 O16 1.265 1_655 S
O18 Eu0 2.373 1_455 S
O18 C31 1.258 . S
O19 Eu1 2.392 . S
O19 C31 1.242 . S
O20 Eu1 2.418 . S
O20 C2 1.244 . S
O21 Eu0 2.488 . S
O21 C9 1.249 . S
O22 Eu0 2.471 . S
O22 C9 1.244 . S
O23 Eu0 2.349 . S
O23 C2 1.265 1_655 S
C24 C25 1.379 . S
C24 C28 1.373 . S
C24 C30 1.505 . S
C25 C24 1.379 . S
C25 C27 1.369 . S
C25 H36 0.930 . S
C26 C28 1.383 . S
C26 C29 1.382 . S
C26 H37 0.930 . S
C27 C25 1.369 . S
C27 C29 1.392 . S
C27 H38 0.930 . S
C28 C24 1.373 . S
C28 C26 1.383 . S
C28 H39 0.931 . S
C29 C26 1.382 . S
C29 C27 1.392 . S
C30 Eu1 2.828 . S
C30 O14 1.249 . S
C30 O15 1.244 . S
C30 C24 1.505 . S
C31 O18 1.258 . S
C31 O19 1.242 . S
H32 C4 0.930 . S
H33 C5 0.930 . S
H34 C6 0.930 . S
H35 C7 0.931 . S
H36 C25 0.930 . S
H37 C26 0.930 . S
H38 C27 0.930 . S
H39 C28 0.931 . S
Eu40 C49 2.828 . S
Eu40 O51 2.392 . S
Eu40 O53 2.418 . S
Eu40 O58 2.373 . S
Eu40 O61 2.488 . S
Eu40 O62 2.471 . S
Eu40 O63 2.349 . S
Eu41 O50 2.373 1_565 S
Eu41 O54 2.488 . S
Eu41 O55 2.471 . S
Eu41 O56 2.349 . S
Eu41 O59 2.392 . S
Eu41 O60 2.418 . S
Eu41 C70 2.828 . S
C42 O60 1.244 . S
C42 O63 1.265 1_565 S
C43 C44 1.379 . S
C43 C47 1.373 . S
C43 C49 1.505 . S
C44 C43 1.379 . S
C44 C46 1.369 . S
C44 H72 0.930 . S
C45 C47 1.383 . S
C45 C48 1.382 . S
C45 H73 0.930 . S
C46 C44 1.369 . S
C46 C48 1.392 . S
C46 H74 0.930 . S
C47 C43 1.373 . S
C47 C45 1.383 . S
C47 H75 0.931 . S
C48 C45 1.382 . S
C48 C46 1.392 . S
C49 Eu40 2.828 . S
C49 C43 1.505 . S
C49 O61 1.249 . S
C49 O62 1.244 . S
O50 Eu41 2.373 1_545 S
O50 C52 1.258 . S
O51 Eu40 2.392 . S
O51 C52 1.242 . S
C52 O50 1.258 . S
C52 O51 1.242 . S
O53 Eu40 2.418 . S
O53 C57 1.244 . S
O54 Eu41 2.488 . S
O54 C70 1.249 . S
O55 Eu41 2.471 . S
O55 C70 1.244 . S
O56 Eu41 2.349 . S
O56 C57 1.265 1_565 S
C57 O53 1.244 . S
C57 O56 1.265 1_545 S
O58 Eu40 2.373 . S
O58 C71 1.258 1_545 S
O59 Eu41 2.392 . S
O59 C71 1.242 . S
O60 Eu41 2.418 . S
O60 C42 1.244 . S
O61 Eu40 2.488 . S
O61 C49 1.249 . S
O62 Eu40 2.471 . S
O62 C49 1.244 . S
O63 Eu40 2.349 . S
O63 C42 1.265 1_545 S
C64 C65 1.379 . S
C64 C68 1.373 . S
C64 C70 1.505 . S
C65 C64 1.379 . S
C65 C67 1.369 . S
C65 H76 0.930 . S
C66 C68 1.383 . S
C66 C69 1.382 . S
C66 H77 0.930 . S
C67 C65 1.369 . S
C67 C69 1.392 . S
C67 H78 0.930 . S
C68 C64 1.373 . S
C68 C66 1.383 . S
C68 H79 0.931 . S
C69 C66 1.382 . S
C69 C67 1.392 . S
C70 Eu41 2.828 . S
C70 O54 1.249 . S
C70 O55 1.244 . S
C70 C64 1.505 . S
C71 O58 1.258 1_565 S
C71 O59 1.242 . S
H72 C44 0.930 . S
H73 C45 0.930 . S
H74 C46 0.930 . S
H75 C47 0.931 . S
H76 C65 0.930 . S
H77 C66 0.930 . S
H78 C67 0.930 . S
H79 C68 0.931 . S
Eu80 C89 2.828 . S
Eu80 O91 2.392 . S
Eu80 O93 2.418 . S
Eu80 O98 2.373 . S
Eu80 O101 2.488 . S
Eu80 O102 2.471 . S
Eu80 O103 2.349 . S
Eu81 O90 2.373 . S
Eu81 O94 2.488 . S
Eu81 O95 2.471 . S
Eu81 O96 2.349 . S
Eu81 O99 2.392 . S
Eu81 O100 2.418 . S
Eu81 C110 2.828 . S
C82 O100 1.244 . S
C82 O103 1.265 . S
C83 C84 1.379 . S
C83 C87 1.373 . S
C83 C89 1.505 . S
C84 C83 1.379 . S
C84 C86 1.369 . S
C84 H112 0.930 . S
C85 C87 1.383 1_545 S
C85 C88 1.382 1_545 S
C85 H113 0.930 . S
C86 C84 1.369 . S
C86 C88 1.392 . S
C86 H114 0.930 . S
C87 C83 1.373 . S
C87 C85 1.383 1_565 S
C87 H115 0.931 1_565 S
C88 C85 1.382 1_565 S
C88 C86 1.392 . S
C89 Eu80 2.828 . S
C89 C83 1.505 . S
C89 O101 1.249 . S
C89 O102 1.244 . S
O90 Eu81 2.373 . S
O90 C92 1.258 . S
O91 Eu80 2.392 . S
O91 C92 1.242 . S
C92 O90 1.258 . S
C92 O91 1.242 . S
O93 Eu80 2.418 . S
O93 C97 1.244 . S
O94 Eu81 2.488 . S
O94 C110 1.249 . S
O95 Eu81 2.471 . S
O95 C110 1.244 . S
O96 Eu81 2.349 . S
O96 C97 1.265 . S
C97 O93 1.244 . S
C97 O96 1.265 . S
O98 Eu80 2.373 . S
O98 C111 1.258 . S
O99 Eu81 2.392 . S
O99 C111 1.242 . S
O100 Eu81 2.418 . S
O100 C82 1.244 . S
O101 Eu80 2.488 . S
O101 C89 1.249 . S
O102 Eu80 2.471 . S
O102 C89 1.244 . S
O103 Eu80 2.349 . S
O103 C82 1.265 . S
C104 C105 1.379 . S
C104 C108 1.373 . S
C104 C110 1.505 . S
C105 C104 1.379 . S
C105 C107 1.369 . S
C105 H116 0.930 . S
C106 C108 1.383 . S
C106 C109 1.382 . S
C106 H117 0.930 . S
C107 C105 1.369 . S
C107 C109 1.392 . S
C107 H118 0.930 1_655 S
C108 C104 1.373 . S
C108 C106 1.383 . S
C108 H119 0.931 . S
C109 C106 1.382 . S
C109 C107 1.392 . S
C110 Eu81 2.828 . S
C110 O94 1.249 . S
C110 O95 1.244 . S
C110 C104 1.505 . S
C111 O98 1.258 . S
C111 O99 1.242 . S
H112 C84 0.930 . S
H113 C85 0.930 . S
H114 C86 0.930 . S
H115 C87 0.931 1_545 S
H116 C105 0.930 . S
H117 C106 0.930 . S
H118 C107 0.930 1_455 S
H119 C108 0.931 . S
H120 C128 0.929 . S
H121 C130 0.930 1_545 S
H122 C132 0.930 . S
H123 C135 0.929 . S
H124 C138 0.930 . S
H125 C140 0.960 1_545 S
H126 C140 0.960 . S
H127 C140 0.960 . S
C128 H120 0.929 . S
C128 C129 1.377 . S
C128 C130 1.384 . S
C129 C128 1.377 . S
C129 C135 1.390 1_455 S
C130 H121 0.930 1_565 S
C130 C128 1.384 . S
C130 C131 1.372 . S
C131 C130 1.372 . S
C131 C132 1.400 1_455 S
C131 C136 1.490 1_565 S
C132 H122 0.930 . S
C132 C131 1.400 1_655 S
C132 C135 1.386 . S
H133 C149 0.930 . S
H134 C150 0.931 . S
C135 H123 0.929 . S
C135 C129 1.390 1_655 S
C135 C132 1.386 . S
C136 C131 1.490 1_545 S
C136 C138 1.395 . S
C136 C139 1.403 1_455 S
H137 C143 0.930 . S
C138 H124 0.930 . S
C138 C136 1.395 . S
C138 C141 1.403 . S
C139 C136 1.403 1_655 S
C139 C140 1.524 1_545 S
C139 C143 1.400 . S
C140 H125 0.960 1_565 S
C140 H126 0.960 . S
C140 H127 0.960 . S
C140 C139 1.524 1_565 S
C141 C138 1.403 . S
C141 C142 1.392 . S
C141 C145 1.495 . S
C142 C141 1.392 . S
C142 C143 1.385 1_455 S
C142 C144 1.478 . S
C143 H137 0.930 . S
C143 C139 1.400 . S
C143 C142 1.385 1_655 S
C144 C142 1.478 . S
C144 C146 1.381 . S
C144 C150 1.383 1_455 S
C145 C141 1.495 . S
C145 H151 0.959 . S
C145 H152 0.961 . S
C145 H153 0.960 . S
C146 C144 1.381 . S
C146 C147 1.394 . S
C146 H154 0.930 . S
C147 C146 1.394 . S
C147 C148 1.383 1_455 S
C147 H155 0.929 . S
C148 C147 1.383 1_655 S
C148 C149 1.377 . S
C149 H133 0.930 . S
C149 C148 1.377 . S
C149 C150 1.379 . S
C150 H134 0.931 . S
C150 C144 1.383 1_655 S
C150 C149 1.379 . S
H151 C145 0.959 . S
H152 C145 0.961 . S
H153 C145 0.960 . S
H154 C146 0.930 . S
H155 C147 0.929 . S
H156 C164 0.929 . S
H157 C166 0.930 . S
H158 C168 0.930 . S
H159 C171 0.929 . S
H160 C174 0.930 . S
H161 C176 0.960 . S
H162 C176 0.960 . S
H163 C176 0.960 . S
C164 H156 0.929 . S
C164 C165 1.377 1_565 S
C164 C166 1.384 . S
C165 C164 1.377 1_545 S
C165 C171 1.390 . S
C166 H157 0.930 . S
C166 C164 1.384 . S
C166 C167 1.372 1_565 S
C167 C166 1.372 1_545 S
C167 C168 1.400 . S
C167 C172 1.492 1_545 S
C168 H158 0.930 . S
C168 C167 1.400 . S
C168 C171 1.386 . S
H169 C185 0.930 . S
H170 C186 0.931 . S
C171 H159 0.929 . S
C171 C165 1.390 . S
C171 C168 1.386 . S
C172 C167 1.492 1_565 S
C172 C174 1.395 . S
C172 C175 1.400 1_565 S
H173 C179 0.930 . S
C174 H160 0.930 . S
C174 C172 1.395 . S
C174 C177 1.403 . S
C175 C172 1.400 1_545 S
C175 C176 1.524 . S
C175 C179 1.400 . S
C176 H161 0.960 . S
C176 H162 0.960 . S
C176 H163 0.960 . S
C176 C175 1.524 . S
C177 C174 1.403 . S
C177 C178 1.392 . S
C177 C181 1.495 . S
C178 C177 1.392 . S
C178 C179 1.385 1_565 S
C178 C180 1.478 . S
C179 H173 0.930 . S
C179 C175 1.400 . S
C179 C178 1.385 1_545 S
C180 C178 1.478 . S
C180 C182 1.381 1_455 S
C180 C186 1.383 1_565 S
C181 C177 1.495 . S
C181 H187 0.959 . S
C181 H188 0.961 . S
C181 H189 0.960 . S
C182 C180 1.381 1_655 S
C182 C183 1.394 . S
C182 H190 0.930 . S
C183 C182 1.394 . S
C183 C184 1.383 . S
C183 H191 0.929 . S
C184 C183 1.383 . S
C184 C185 1.377 1_565 S
C185 H169 0.930 . S
C185 C184 1.377 1_545 S
C185 C186 1.379 1_655 S
C186 H170 0.931 . S
C186 C180 1.383 1_545 S
C186 C185 1.379 1_455 S
H187 C181 0.959 . S
H188 C181 0.961 . S
H189 C181 0.960 . S
H190 C182 0.930 . S
H191 C183 0.929 . S
H192 C200 0.929 . S
H193 C202 0.930 . S
H194 C204 0.930 . S
H195 C207 0.929 1_565 S
H196 C210 0.930 . S
H197 C212 0.960 . S
H198 C212 0.960 . S
H199 C212 0.960 . S
C200 H192 0.929 . S
C200 C201 1.377 . S
C200 C202 1.384 1_655 S
C201 C200 1.377 . S
C201 C207 1.390 1_655 S
C202 H193 0.930 . S
C202 C200 1.384 1_455 S
C202 C203 1.372 . S
C203 C202 1.372 . S
C203 C204 1.400 . S
C203 C208 1.490 . S
C204 H194 0.930 . S
C204 C203 1.400 . S
C204 C207 1.386 . S
H205 C221 0.930 . S
H206 C222 0.931 . S
C207 H195 0.929 1_545 S
C207 C201 1.390 1_455 S
C207 C204 1.386 . S
C208 C203 1.490 . S
C208 C210 1.395 . S
C208 C211 1.403 . S
H209 C215 0.930 . S
C210 H196 0.930 . S
C210 C208 1.395 . S
C210 C213 1.403 . S
C211 C208 1.403 . S
C211 C212 1.524 . S
C211 C215 1.400 . S
C212 H197 0.960 . S
C212 H198 0.960 . S
C212 H199 0.960 . S
C212 C211 1.524 . S
C213 C210 1.403 . S
C213 C214 1.392 . S
C213 C217 1.495 . S
C214 C213 1.392 . S
C214 C215 1.385 . S
C214 C216 1.478 . S
C215 H209 0.930 . S
C215 C211 1.400 . S
C215 C214 1.385 . S
C216 C214 1.478 . S
C216 C218 1.381 . S
C216 C222 1.383 . S
C217 C213 1.495 . S
C217 H223 0.959 . S
C217 H224 0.961 . S
C217 H225 0.960 . S
C218 C216 1.381 . S
C218 C219 1.394 . S
C218 H226 0.930 . S
C219 C218 1.394 . S
C219 C220 1.383 . S
C219 H227 0.929 . S
C220 C219 1.383 . S
C220 C221 1.377 . S
C221 H205 0.930 . S
C221 C220 1.377 . S
C221 C222 1.379 . S
C222 H206 0.931 . S
C222 C216 1.383 . S
C222 C221 1.379 . S
H223 C217 0.959 . S
H224 C217 0.961 . S
H225 C217 0.960 . S
H226 C218 0.930 . S
H227 C219 0.929 . S
H228 C236 0.929 . S
H229 C238 0.930 . S
H230 C240 0.930 . S
H231 C243 0.929 . S
H232 C246 0.930 . S
H233 C248 0.960 . S
H234 C248 0.960 . S
H235 C248 0.960 . S
C236 H228 0.929 . S
C236 C237 1.377 . S
C236 C238 1.384 . S
C237 C236 1.377 . S
C237 C243 1.390 . S
C238 H229 0.930 . S
C238 C236 1.384 . S
C238 C239 1.372 . S
C239 C238 1.372 . S
C239 C240 1.400 . S
C239 C244 1.490 . S
C240 H230 0.930 . S
C240 C239 1.400 . S
C240 C243 1.386 . S
H241 C257 0.930 . S
H242 C258 0.931 . S
C243 H231 0.929 . S
C243 C237 1.390 . S
C243 C240 1.386 . S
C244 C239 1.490 . S
C244 C246 1.395 . S
C244 C247 1.403 . S
H245 C251 0.930 1_554 S
C246 H232 0.930 . S
C246 C244 1.395 . S
C246 C249 1.403 . S
C247 C244 1.403 . S
C247 C248 1.524 1_565 S
C247 C251 1.400 . S
C248 H233 0.960 . S
C248 H234 0.960 . S
C248 H235 0.960 . S
C248 C247 1.524 1_545 S
C249 C246 1.403 . S
C249 C250 1.392 . S
C249 C253 1.495 . S
C250 C249 1.392 . S
C250 C251 1.385 . S
C250 C252 1.478 1_556 S
C251 H245 0.930 1_556 S
C251 C247 1.400 . S
C251 C250 1.385 . S
C252 C250 1.478 1_554 S
C252 C254 1.381 . S
C252 C258 1.383 . S
C253 C249 1.495 . S
C253 H259 0.959 . S
C253 H260 0.961 . S
C253 H261 0.960 . S
C254 C252 1.381 . S
C254 C255 1.394 . S
C254 H262 0.930 1_554 S
C255 C254 1.394 . S
C255 C256 1.383 . S
C255 H263 0.929 . S
C256 C255 1.383 . S
C256 C257 1.377 . S
C257 H241 0.930 . S
C257 C256 1.377 . S
C257 C258 1.379 . S
C258 H242 0.931 . S
C258 C252 1.383 . S
C258 C257 1.379 . S
H259 C253 0.959 . S
H260 C253 0.961 . S
H261 C253 0.960 . S
H262 C254 0.930 1_556 S
H263 C255 0.929 . S
H264 C272 0.929 . S
H265 C274 0.930 . S
H266 C276 0.930 . S
H267 C279 0.929 . S
H268 C282 0.930 . S
H269 C284 0.960 . S
H270 C284 0.960 . S
H271 C284 0.960 . S
C272 H264 0.929 . S
C272 C273 1.377 . S
C272 C274 1.384 . S
C273 C272 1.377 . S
C273 C279 1.390 . S
C274 H265 0.930 . S
C274 C272 1.384 . S
C274 C275 1.372 . S
C275 C274 1.372 . S
C275 C276 1.400 . S
C275 C280 1.490 . S
C276 H266 0.930 . S
C276 C275 1.400 . S
C276 C279 1.386 . S
H277 C293 0.930 . S
H278 C294 0.931 . S
C279 H267 0.929 . S
C279 C273 1.390 . S
C279 C276 1.386 . S
C280 C275 1.490 . S
C280 C282 1.395 . S
C280 C283 1.403 . S
H281 C287 0.930 . S
C282 H268 0.930 . S
C282 C280 1.395 . S
C282 C285 1.403 . S
C283 C280 1.403 . S
C283 C284 1.524 . S
C283 C287 1.400 . S
C284 H269 0.960 . S
C284 H270 0.960 . S
C284 H271 0.960 . S
C284 C283 1.524 . S
C285 C282 1.403 . S
C285 C286 1.392 . S
C285 C289 1.495 . S
C286 C285 1.392 . S
C286 C287 1.385 . S
C286 C288 1.478 . S
C287 H281 0.930 . S
C287 C283 1.400 . S
C287 C286 1.385 . S
C288 C286 1.478 . S
C288 C290 1.381 . S
C288 C294 1.383 . S
C289 C285 1.495 . S
C289 H295 0.959 . S
C289 H296 0.961 . S
C289 H297 0.960 . S
C290 C288 1.381 . S
C290 C291 1.394 . S
C290 H298 0.930 . S
C291 C290 1.394 . S
C291 C292 1.383 . S
C291 H299 0.929 . S
C292 C291 1.383 . S
C292 C293 1.377 . S
C293 H277 0.930 . S
C293 C292 1.377 . S
C293 C294 1.379 . S
C294 H278 0.931 . S
C294 C288 1.383 . S
C294 C293 1.379 . S
H295 C289 0.959 . S
H296 C289 0.961 . S
H297 C289 0.960 . S
H298 C290 0.930 . S
H299 C291 0.929 . S
H300 C308 0.929 . S
H301 C310 0.930 . S
H302 C312 0.930 . S
H303 C315 0.929 . S
H304 C318 0.930 . S
H305 C320 0.960 . S
H306 C320 0.960 . S
H307 C320 0.960 . S
C308 H300 0.929 . S
C308 C309 1.377 . S
C308 C310 1.384 . S
C309 C308 1.377 . S
C309 C315 1.390 . S
C310 H301 0.930 . S
C310 C308 1.384 . S
C310 C311 1.372 . S
C311 C310 1.372 . S
C311 C312 1.400 . S
C311 C316 1.490 . S
C312 H302 0.930 . S
C312 C311 1.400 . S
C312 C315 1.386 . S
H313 C329 0.930 1_545 S
H314 C330 0.931 1_545 S
C315 H303 0.929 . S
C315 C309 1.390 . S
C315 C312 1.386 . S
C316 C311 1.490 . S
C316 C318 1.395 . S
C316 C319 1.403 . S
H317 C323 0.930 . S
C318 H304 0.930 . S
C318 C316 1.395 . S
C318 C321 1.403 . S
C319 C316 1.403 . S
C319 C320 1.524 . S
C319 C323 1.400 . S
C320 H305 0.960 . S
C320 H306 0.960 . S
C320 H307 0.960 . S
C320 C319 1.524 . S
C321 C318 1.403 . S
C321 C322 1.392 . S
C321 C325 1.495 . S
C322 C321 1.392 . S
C322 C323 1.385 . S
C322 C324 1.478 . S
C323 H317 0.930 . S
C323 C319 1.400 . S
C323 C322 1.385 . S
C324 C322 1.478 . S
C324 C326 1.381 . S
C324 C330 1.383 . S
C325 C321 1.495 . S
C325 H331 0.959 . S
C325 H332 0.961 . S
C325 H333 0.960 . S
C326 C324 1.381 . S
C326 C327 1.394 . S
C326 H334 0.930 . S
C327 C326 1.394 . S
C327 C328 1.383 . S
C327 H335 0.929 . S
C328 C327 1.383 . S
C328 C329 1.377 . S
C329 H313 0.930 1_565 S
C329 C328 1.377 . S
C329 C330 1.379 . S
C330 H314 0.931 1_565 S
C330 C324 1.383 . S
C330 C329 1.379 . S
H331 C325 0.959 . S
H332 C325 0.961 . S
H333 C325 0.960 . S
H334 C326 0.930 . S
H335 C327 0.929 . S
H336 C344 0.929 . S
H337 C346 0.930 . S
H338 C348 0.930 . S
H339 C351 0.929 . S
H340 C354 0.930 . S
H341 C356 0.960 1_455 S
H342 C356 0.960 . S
H343 C356 0.960 1_455 S
C344 H336 0.929 . S
C344 C345 1.377 . S
C344 C346 1.384 . S
C345 C344 1.377 . S
C345 C351 1.390 . S
C346 H337 0.930 . S
C346 C344 1.384 . S
C346 C347 1.372 . S
C347 C346 1.372 . S
C347 C348 1.400 . S
C347 C352 1.490 . S
C348 H338 0.930 . S
C348 C347 1.400 . S
C348 C351 1.386 . S
H349 C365 0.930 . S
H350 C366 0.931 . S
C351 H339 0.929 . S
C351 C345 1.390 . S
C351 C348 1.386 . S
C352 C347 1.490 . S
C352 C354 1.395 . S
C352 C355 1.403 . S
H353 C359 0.930 . S
C354 H340 0.930 . S
C354 C352 1.395 . S
C354 C357 1.403 1_556 S
C355 C352 1.403 . S
C355 C356 1.524 . S
C355 C359 1.400 1_556 S
C356 H341 0.960 1_655 S
C356 H342 0.960 . S
C356 H343 0.960 1_655 S
C356 C355 1.524 . S
C357 C354 1.403 1_554 S
C357 C358 1.392 . S
C357 C361 1.495 . S
C358 C357 1.392 . S
C358 C359 1.385 . S
C358 C360 1.478 . S
C359 H353 0.930 . S
C359 C355 1.400 1_554 S
C359 C358 1.385 . S
C360 C358 1.478 . S
C360 C362 1.381 . S
C360 C366 1.383 . S
C361 C357 1.495 . S
C361 H367 0.959 1_554 S
C361 H368 0.961 . S
C361 H369 0.960 . S
C362 C360 1.381 . S
C362 C363 1.394 . S
C362 H370 0.930 . S
C363 C362 1.394 . S
C363 C364 1.383 . S
C363 H371 0.929 . S
C364 C363 1.383 . S
C364 C365 1.377 . S
C365 H349 0.930 . S
C365 C364 1.377 . S
C365 C366 1.379 . S
C366 H350 0.931 . S
C366 C360 1.383 . S
C366 C365 1.379 . S
H367 C361 0.959 1_556 S
H368 C361 0.961 . S
H369 C361 0.960 . S
H370 C362 0.930 . S
H371 C363 0.929 . S
H372 C380 0.929 . S
H373 C382 0.930 . S
H374 C384 0.930 . S
H375 C387 0.929 . S
H376 C390 0.930 . S
H377 C392 0.960 . S
H378 C392 0.960 . S
H379 C392 0.960 . S
C380 H372 0.929 . S
C380 C381 1.377 . S
C380 C382 1.384 . S
C381 C380 1.377 . S
C381 C387 1.390 . S
C382 H373 0.930 . S
C382 C380 1.384 . S
C382 C383 1.372 . S
C383 C382 1.372 . S
C383 C384 1.400 . S
C383 C388 1.490 . S
C384 H374 0.930 . S
C384 C383 1.400 . S
C384 C387 1.386 . S
H385 C401 0.930 . S
H386 C402 0.931 . S
C387 H375 0.929 . S
C387 C381 1.390 . S
C387 C384 1.386 . S
C388 C383 1.490 . S
C388 C390 1.395 . S
C388 C391 1.403 . S
H389 C395 0.930 . S
C390 H376 0.930 . S
C390 C388 1.395 . S
C390 C393 1.403 . S
C391 C388 1.403 . S
C391 C392 1.524 . S
C391 C395 1.400 . S
C392 H377 0.960 . S
C392 H378 0.960 . S
C392 H379 0.960 . S
C392 C391 1.524 . S
C393 C390 1.403 . S
C393 C394 1.392 . S
C393 C397 1.495 . S
C394 C393 1.392 . S
C394 C395 1.385 . S
C394 C396 1.478 . S
C395 H389 0.930 . S
C395 C391 1.400 . S
C395 C394 1.385 . S
C396 C394 1.478 . S
C396 C398 1.381 . S
C396 C402 1.383 . S
C397 C393 1.495 . S
C397 H403 0.959 . S
C397 H404 0.961 . S
C397 H405 0.960 . S
C398 C396 1.381 . S
C398 C399 1.394 . S
C398 H406 0.930 . S
C399 C398 1.394 . S
C399 C400 1.383 . S
C399 H407 0.929 . S
C400 C399 1.383 . S
C400 C401 1.377 . S
C401 H385 0.930 . S
C401 C400 1.377 . S
C401 C402 1.379 . S
C402 H386 0.931 . S
C402 C396 1.383 . S
C402 C401 1.379 . S
H403 C397 0.959 . S
H404 C397 0.961 . S
H405 C397 0.960 . S
H406 C398 0.930 . S
H407 C399 0.929 . S
H408 C416 0.929 . S
H409 C418 0.930 . S
H410 C420 0.930 . S
H411 C423 0.929 . S
H412 C426 0.930 . S
H413 C428 0.960 . S
H414 C428 0.960 . S
H415 C428 0.960 . S
C416 H408 0.929 . S
C416 C417 1.377 . S
C416 C418 1.384 . S
C417 C416 1.377 . S
C417 C423 1.390 1_655 S
C418 H409 0.930 . S
C418 C416 1.384 . S
C418 C419 1.372 . S
C419 C418 1.372 . S
C419 C420 1.400 1_655 S
C419 C424 1.490 . S
C420 H410 0.930 . S
C420 C419 1.400 1_455 S
C420 C423 1.386 . S
H421 C437 0.930 . S
H422 C438 0.931 . S
C423 H411 0.929 . S
C423 C417 1.390 1_455 S
C423 C420 1.386 . S
C424 C419 1.490 . S
C424 C426 1.395 . S
C424 C427 1.403 . S
H425 C431 0.930 . S
C426 H412 0.930 . S
C426 C424 1.395 . S
C426 C429 1.403 . S
C427 C424 1.403 . S
C427 C428 1.524 . S
C427 C431 1.400 . S
C428 H413 0.960 . S
C428 H414 0.960 . S
C428 H415 0.960 . S
C428 C427 1.524 . S
C429 C426 1.403 . S
C429 C430 1.392 . S
C429 C433 1.495 . S
C430 C429 1.392 . S
C430 C431 1.385 . S
C430 C432 1.478 . S
C431 H425 0.930 . S
C431 C427 1.400 . S
C431 C430 1.385 . S
C432 C430 1.478 . S
C432 C434 1.381 . S
C432 C438 1.383 . S
C433 C429 1.495 . S
C433 H439 0.959 . S
C433 H440 0.961 . S
C433 H441 0.960 . S
C434 C432 1.381 . S
C434 C435 1.394 . S
C434 H442 0.930 . S
C435 C434 1.394 . S
C435 C436 1.383 . S
C435 H443 0.929 . S
C436 C435 1.383 . S
C436 C437 1.377 . S
C437 H421 0.930 . S
C437 C436 1.377 . S
C437 C438 1.379 . S
C438 H422 0.931 . S
C438 C432 1.383 . S
C438 C437 1.379 . S
H439 C433 0.959 . S
H440 C433 0.961 . S
H441 C433 0.960 . S
H442 C434 0.930 . S
H443 C435 0.929 . S
C129 C17 1.342 1_455 S
C148 C2 1.310 1_655 S
C165 C42 1.412 1_545 S
C184 C57 1.422 1_565 S
C201 C97 1.203 1_545 S
C220 C82 1.214 . S
C237 C88 0.900 . S
C256 C29 0.873 . S
C273 C52 1.713 . S
C292 C8 1.689 . S
C309 C92 2.218 . S
C328 C71 2.204 . S
C345 C111 2.167 . S
C364 C12 2.147 . S
C381 C31 1.603 . S
C400 C69 1.556 . S
C417 C109 0.909 . S
C436 C48 0.910 . S
