# Generated by pormake.
# Topology yfw, (5)-cn, num edge types: 1
# Building blocks:
#     Node 0, Type 0, BuildingBlock: XOMCOT_clean_sbu_1, # of connection points: 5
#     Node 1, Type 0, BuildingBlock: XOMCOT_clean_sbu_1, # of connection points: 5
#     Node 2, Type 0, BuildingBlock: XOMCOT_clean_sbu_1, # of connection points: 5
#     Node 3, Type 0, BuildingBlock: XOMCOT_clean_sbu_1, # of connection points: 5
#     Node 4, Type 0, BuildingBlock: XOMCOT_clean_sbu_1, # of connection points: 5
#     Node 5, Type 0, BuildingBlock: XOMCOT_clean_sbu_1, # of connection points: 5
#     Node 6, Type 0, BuildingBlock: XOMCOT_clean_sbu_1, # of connection points: 5
#     Node 7, Type 0, BuildingBlock: XOMCOT_clean_sbu_1, # of connection points: 5
#     Node 8, Type 0, BuildingBlock: XOMCOT_clean_sbu_1, # of connection points: 5
#     Node 9, Type 0, BuildingBlock: XOMCOT_clean_sbu_1, # of connection points: 5
#     Node 10, Type 0, BuildingBlock: XOMCOT_clean_sbu_1, # of connection points: 5
#     Node 11, Type 0, BuildingBlock: XOMCOT_clean_sbu_1, # of connection points: 5
#     Node 12, Type 0, BuildingBlock: XOMCOT_clean_sbu_1, # of connection points: 5
#     Node 13, Type 0, BuildingBlock: XOMCOT_clean_sbu_1, # of connection points: 5
#     Node 14, Type 0, BuildingBlock: XOMCOT_clean_sbu_1, # of connection points: 5
#     Node 15, Type 0, BuildingBlock: XOMCOT_clean_sbu_1, # of connection points: 5
#     Edge 16, Type (0, 0), BuildingBlock: XUDNAN_clean_linker_2, # of connection points: 2
#     Edge 17, Type (0, 0), BuildingBlock: XUDNAN_clean_linker_2, # of connection points: 2
#     Edge 18, Type (0, 0), BuildingBlock: XUDNAN_clean_linker_2, # of connection points: 2
#     Edge 19, Type (0, 0), BuildingBlock: XUDNAN_clean_linker_2, # of connection points: 2
#     Edge 20, Type (0, 0), BuildingBlock: XUDNAN_clean_linker_2, # of connection points: 2
#     Edge 21, Type (0, 0), BuildingBlock: XUDNAN_clean_linker_2, # of connection points: 2
#     Edge 22, Type (0, 0), BuildingBlock: XUDNAN_clean_linker_2, # of connection points: 2
#     Edge 23, Type (0, 0), BuildingBlock: XUDNAN_clean_linker_2, # of connection points: 2
#     Edge 24, Type (0, 0), BuildingBlock: XUDNAN_clean_linker_2, # of connection points: 2
#     Edge 25, Type (0, 0), BuildingBlock: XUDNAN_clean_linker_2, # of connection points: 2
#     Edge 26, Type (0, 0), BuildingBlock: XUDNAN_clean_linker_2, # of connection points: 2
#     Edge 27, Type (0, 0), BuildingBlock: XUDNAN_clean_linker_2, # of connection points: 2
#     Edge 28, Type (0, 0), BuildingBlock: XUDNAN_clean_linker_2, # of connection points: 2
#     Edge 29, Type (0, 0), BuildingBlock: XUDNAN_clean_linker_2, # of connection points: 2
#     Edge 30, Type (0, 0), BuildingBlock: XUDNAN_clean_linker_2, # of connection points: 2
#     Edge 31, Type (0, 0), BuildingBlock: XUDNAN_clean_linker_2, # of connection points: 2
#     Edge 32, Type (0, 0), BuildingBlock: XUDNAN_clean_linker_2, # of connection points: 2
#     Edge 33, Type (0, 0), BuildingBlock: XUDNAN_clean_linker_2, # of connection points: 2
#     Edge 34, Type (0, 0), BuildingBlock: XUDNAN_clean_linker_2, # of connection points: 2
#     Edge 35, Type (0, 0), BuildingBlock: XUDNAN_clean_linker_2, # of connection points: 2
#     Edge 36, Type (0, 0), BuildingBlock: XUDNAN_clean_linker_2, # of connection points: 2
#     Edge 37, Type (0, 0), BuildingBlock: XUDNAN_clean_linker_2, # of connection points: 2
#     Edge 38, Type (0, 0), BuildingBlock: XUDNAN_clean_linker_2, # of connection points: 2
#     Edge 39, Type (0, 0), BuildingBlock: XUDNAN_clean_linker_2, # of connection points: 2
#     Edge 40, Type (0, 0), BuildingBlock: XUDNAN_clean_linker_2, # of connection points: 2
#     Edge 41, Type (0, 0), BuildingBlock: XUDNAN_clean_linker_2, # of connection points: 2
#     Edge 42, Type (0, 0), BuildingBlock: XUDNAN_clean_linker_2, # of connection points: 2
#     Edge 43, Type (0, 0), BuildingBlock: XUDNAN_clean_linker_2, # of connection points: 2
#     Edge 44, Type (0, 0), BuildingBlock: XUDNAN_clean_linker_2, # of connection points: 2
#     Edge 45, Type (0, 0), BuildingBlock: XUDNAN_clean_linker_2, # of connection points: 2
#     Edge 46, Type (0, 0), BuildingBlock: XUDNAN_clean_linker_2, # of connection points: 2
#     Edge 47, Type (0, 0), BuildingBlock: XUDNAN_clean_linker_2, # of connection points: 2
#     Edge 48, Type (0, 0), BuildingBlock: XUDNAN_clean_linker_2, # of connection points: 2
#     Edge 49, Type (0, 0), BuildingBlock: XUDNAN_clean_linker_2, # of connection points: 2
#     Edge 50, Type (0, 0), BuildingBlock: XUDNAN_clean_linker_2, # of connection points: 2
#     Edge 51, Type (0, 0), BuildingBlock: XUDNAN_clean_linker_2, # of connection points: 2
#     Edge 52, Type (0, 0), BuildingBlock: XUDNAN_clean_linker_2, # of connection points: 2
#     Edge 53, Type (0, 0), BuildingBlock: XUDNAN_clean_linker_2, # of connection points: 2
#     Edge 54, Type (0, 0), BuildingBlock: XUDNAN_clean_linker_2, # of connection points: 2
#     Edge 55, Type (0, 0), BuildingBlock: XUDNAN_clean_linker_2, # of connection points: 2
# Relax obj value: 0.116
# Max RMSD: 0.159
# Mean RMSD: 0.159
data_MOF--net-yfw--node1-XOMCOT_clean_sbu_1--edge1-XUDNAN_clean_linker_2
_symmetry_space_group_name_H-M    P1
_symmetry_Int_Tables_number       1
_symmetry_cell_setting            triclinic
loop_
_symmetry_equiv_pos_as_xyz
'x, y, z'
_cell_length_a     57.055206
_cell_length_b     57.095857
_cell_length_c     25.106664
_cell_angle_alpha  89.982836
_cell_angle_beta   89.9139
_cell_angle_gamma 89.909225
loop_
_atom_site_label
_atom_site_type_symbol
_atom_site_fract_x
_atom_site_fract_y
_atom_site_fract_z
_atom_type_partial_charge
C0 C 0.09804 0.08958 0.95761 0.0
C1 C 0.0757 0.08046 0.95859 0.0
N2 N 0.07564 0.0621 0.99214 0.0
N3 N 0.11197 0.07674 0.98975 0.0
C4 C 0.09773 0.06017 0.01049 0.0
H5 H 0.10394 0.10422 0.9338 0.0
Co6 Co 0.14432 0.08018 0.99598 0.0
C7 C 0.15257 0.0581 0.10407 0.0
O8 O 0.16374 0.07649 0.12211 0.0
N9 N 0.17767 0.08372 1.00146 0.0
C10 C 0.21331 0.09523 0.02666 0.0
C11 C 0.18985 0.09642 0.03751 0.0
C12 C 0.19458 0.07523 0.96857 0.0
N13 N 0.21646 0.08201 0.98288 0.0
O14 O 0.14804 0.05481 0.94597 0.0
H15 H 0.18241 0.10672 0.06935 0.0
H16 H 0.19089 0.06481 0.93379 0.0
O17 O 0.14458 0.05798 0.05639 0.0
C18 C 0.14607 0.0635 0.89927 0.0
O19 O 0.14498 0.08642 0.89484 0.0
N20 N 0.13928 0.10652 0.03888 0.0
C21 C 0.13288 0.14961 0.08892 0.0
C22 C 0.1236 0.12906 0.11136 0.0
C23 C 0.12668 0.1076 0.08511 0.0
C24 C 0.14663 0.12654 0.01456 0.0
C25 C 0.14407 0.14818 0.03933 0.0
H26 H 0.11888 0.09198 0.1017 0.0
H27 H 0.15501 0.12557 0.97594 0.0
H28 H 0.10351 0.04628 0.0367 0.0
H29 H 0.06074 0.08662 0.9361 0.0
H30 H 0.22684 0.10389 0.04935 0.0
H31 H 0.11425 0.12953 0.14892 0.0
H32 H 0.15061 0.16371 0.0195 0.0
C33 C 0.92485 0.59302 0.16484 0.0
C34 C 0.93496 0.57109 0.16127 0.0
N35 N 0.94676 0.56705 0.20673 0.0
N36 N 0.93047 0.60267 0.21216 0.0
C37 C 0.94389 0.58641 0.23661 0.0
H38 H 0.91473 0.60172 0.13425 0.0
Co39 Co 0.92497 0.63344 0.2337 0.0
C40 C 0.92804 0.62198 0.3526 0.0
O41 O 0.90526 0.6213 0.35909 0.0
N42 N 0.92036 0.66501 0.25532 0.0
C43 C 0.90999 0.69636 0.30261 0.0
C44 C 0.91083 0.67243 0.30169 0.0
C45 C 0.92496 0.6851 0.22847 0.0
N46 N 0.91891 0.70439 0.25657 0.0
O47 O 0.95611 0.64048 0.21048 0.0
H48 H 0.90372 0.66141 0.33231 0.0
H49 H 0.93246 0.68574 0.189 0.0
O50 O 0.93688 0.62645 0.30666 0.0
C51 C 0.95584 0.64541 0.16093 0.0
O52 O 0.93552 0.64764 0.13693 0.0
N53 N 0.89325 0.62597 0.24985 0.0
C54 C 0.84569 0.61755 0.26838 0.0
C55 C 0.86257 0.60054 0.28086 0.0
C56 C 0.88621 0.60484 0.26996 0.0
C57 C 0.87676 0.64156 0.23242 0.0
C58 C 0.85299 0.63798 0.24241 0.0
H59 H 0.89893 0.59158 0.28036 0.0
H60 H 0.88193 0.65713 0.21098 0.0
H61 H 0.95235 0.58897 0.27467 0.0
H62 H 0.93392 0.55915 0.12787 0.0
H63 H 0.90244 0.707 0.33394 0.0
H64 H 0.8576 0.58409 0.29915 0.0
H65 H 0.84056 0.65139 0.23086 0.0
C66 C 0.41982 0.41589 0.48401 0.0
C67 C 0.43964 0.42924 0.47608 0.0
N68 N 0.43363 0.45194 0.4813 0.0
N69 N 0.4016 0.4302 0.49493 0.0
C70 C 0.41057 0.45201 0.49292 0.0
H71 H 0.41864 0.39704 0.48076 0.0
Co72 Co 0.37021 0.42276 0.5047 0.0
C73 C 0.35858 0.46286 0.57614 0.0
O74 O 0.34699 0.47391 0.53859 0.0
N75 N 0.33841 0.41566 0.51492 0.0
C76 C 0.30466 0.40519 0.55268 0.0
C77 C 0.32833 0.40809 0.56056 0.0
C78 C 0.32042 0.41763 0.48021 0.0
N79 N 0.2998 0.41135 0.50224 0.0
O80 O 0.36212 0.44717 0.45465 0.0
H81 H 0.33756 0.40515 0.59757 0.0
H82 H 0.32222 0.42359 0.43955 0.0
O83 O 0.3686 0.44339 0.566 0.0
C84 C 0.36509 0.43895 0.40783 0.0
O85 O 0.37103 0.41677 0.40333 0.0
N86 N 0.37888 0.3977 0.54876 0.0
C87 C 0.39321 0.35773 0.60405 0.0
C88 C 0.39924 0.38021 0.62225 0.0
C89 C 0.39196 0.4 0.59394 0.0
C90 C 0.37322 0.37609 0.52985 0.0
C91 C 0.37996 0.35588 0.55716 0.0
H92 H 0.39747 0.41709 0.60743 0.0
H93 H 0.3634 0.37455 0.49319 0.0
H94 H 0.40023 0.4677 0.49882 0.0
H95 H 0.45686 0.42284 0.46518 0.0
H96 H 0.29189 0.39971 0.58208 0.0
H97 H 0.40993 0.38253 0.65745 0.0
H98 H 0.37462 0.33901 0.54176 0.0
C99 C 0.59803 0.90744 0.69234 0.0
C100 C 0.59264 0.93075 0.68571 0.0
N101 N 0.57348 0.93559 0.71514 0.0
N102 N 0.58258 0.89777 0.72657 0.0
C103 C 0.56761 0.91527 0.73917 0.0
H104 H 0.61236 0.89808 0.67369 0.0
Co105 Co 0.5822 0.86655 0.74844 0.0
C106 C 0.5746 0.87791 0.86596 0.0
O107 O 0.59646 0.87289 0.87739 0.0
N108 N 0.58119 0.83468 0.76879 0.0
C109 C 0.5815 0.80123 0.81408 0.0
C110 C 0.58154 0.82508 0.81797 0.0
C111 C 0.58078 0.81595 0.73557 0.0
N112 N 0.58099 0.79532 0.76224 0.0
O113 O 0.55191 0.86325 0.71525 0.0
H114 H 0.58234 0.83427 0.85507 0.0
H115 H 0.5807 0.81751 0.69264 0.0
O116 O 0.56704 0.87566 0.81797 0.0
C117 C 0.55397 0.86209 0.66459 0.0
O118 O 0.57518 0.86198 0.64408 0.0
N119 N 0.61345 0.86975 0.77506 0.0
C120 C 0.66076 0.87401 0.80328 0.0
C121 C 0.64492 0.89231 0.813 0.0
C122 C 0.62153 0.89005 0.7976 0.0
C123 C 0.62904 0.85238 0.76257 0.0
C124 C 0.65261 0.85398 0.77705 0.0
H125 H 0.60971 0.90447 0.80537 0.0
H126 H 0.62349 0.83724 0.74027 0.0
H127 H 0.55278 0.91319 0.76566 0.0
H128 H 0.60181 0.94309 0.66045 0.0
H129 H 0.58265 0.78922 0.84732 0.0
H130 H 0.6506 0.90841 0.83172 0.0
H131 H 0.66432 0.83959 0.76783 0.0
C132 C 0.91935 0.08381 0.46249 0.0
C133 C 0.94043 0.0718 0.4613 0.0
N134 N 0.93722 0.05059 0.48393 0.0
N135 N 0.90305 0.0703 0.48624 0.0
C136 C 0.91447 0.05035 0.49883 0.0
H137 H 0.91593 0.10089 0.4455 0.0
Co138 Co 0.87068 0.07442 0.49356 0.0
C139 C 0.86791 0.05997 0.61012 0.0
O140 O 0.85914 0.07994 0.62692 0.0
N141 N 0.83765 0.07743 0.49951 0.0
C142 C 0.80002 0.07239 0.5209 0.0
C143 C 0.82275 0.06771 0.5352 0.0
C144 C 0.82324 0.08707 0.46265 0.0
N145 N 0.80031 0.08463 0.47521 0.0
O146 O 0.86611 0.0461 0.45486 0.0
H147 H 0.82751 0.05673 0.56826 0.0
H148 H 0.82946 0.09493 0.42606 0.0
O149 O 0.87206 0.05684 0.56051 0.0
C150 C 0.86801 0.04897 0.40468 0.0
O151 O 0.87167 0.07022 0.38637 0.0
N152 N 0.87567 0.10356 0.52738 0.0
C153 C 0.88533 0.14927 0.56112 0.0
C154 C 0.89641 0.12999 0.5852 0.0
C155 C 0.89163 0.10727 0.5671 0.0
C156 C 0.86544 0.1222 0.50269 0.0
C157 C 0.86954 0.14502 0.51963 0.0
H158 H 0.9013 0.09274 0.58383 0.0
H159 H 0.8548 0.11969 0.4679 0.0
H160 H 0.90589 0.03558 0.51732 0.0
H161 H 0.95651 0.07785 0.44305 0.0
H162 H 0.7845 0.06691 0.54232 0.0
H163 H 0.90931 0.13246 0.61628 0.0
H164 H 0.86065 0.15924 0.49947 0.0
C165 C 0.91097 0.41862 0.74918 0.0
C166 C 0.92188 0.44015 0.74433 0.0
N167 N 0.94505 0.43697 0.75156 0.0
N168 N 0.92726 0.40215 0.7602 0.0
C169 C 0.94773 0.41393 0.76148 0.0
H170 H 0.89258 0.41504 0.74275 0.0
Co171 Co 0.92532 0.36942 0.763 0.0
C172 C 0.94545 0.36351 0.87243 0.0
O173 O 0.92644 0.3528 0.88913 0.0
N174 N 0.92451 0.33621 0.76361 0.0
C175 C 0.93253 0.29833 0.77554 0.0
C176 C 0.93628 0.32057 0.7941 0.0
C177 C 0.91464 0.32282 0.72519 0.0
N178 N 0.91892 0.29972 0.73208 0.0
O179 O 0.95062 0.36767 0.71255 0.0
H180 H 0.94843 0.3246 0.82544 0.0
H181 H 0.90487 0.32999 0.69206 0.0
O182 O 0.9472 0.36988 0.82362 0.0
C183 C 0.94204 0.3714 0.66641 0.0
O184 O 0.91928 0.3746 0.66254 0.0
N185 N 0.89855 0.37153 0.80805 0.0
C186 C 0.85594 0.37595 0.86246 0.0
C187 C 0.87532 0.3896 0.877 0.0
C188 C 0.89647 0.38722 0.84905 0.0
C189 C 0.87942 0.35902 0.79222 0.0
C190 C 0.85822 0.36053 0.81954 0.0
H191 H 0.91111 0.39822 0.8599 0.0
H192 H 0.88005 0.34845 0.75683 0.0
H193 H 0.96456 0.4055 0.76706 0.0
H194 H 0.91366 0.45651 0.73302 0.0
H195 H 0.94049 0.28247 0.79084 0.0
H196 H 0.87408 0.40211 0.9093 0.0
H197 H 0.84337 0.35045 0.80555 0.0
C198 C 0.58126 0.42123 0.92097 0.0
C199 C 0.55822 0.42848 0.92363 0.0
N200 N 0.55643 0.44425 0.96319 0.0
N201 N 0.59385 0.43275 0.95807 0.0
C202 C 0.57813 0.44656 0.98335 0.0
H203 H 0.58853 0.40899 0.89253 0.0
Co204 Co 0.62633 0.43213 0.96489 0.0
C205 C 0.63527 0.45597 0.06778 0.0
O206 O 0.64975 0.43902 0.08104 0.0
N207 N 0.65948 0.43235 0.97009 0.0
C208 C 0.69508 0.44825 0.97371 0.0
C209 C 0.6715 0.45258 0.97563 0.0
C210 C 0.67645 0.41597 0.96309 0.0
N211 N 0.69831 0.42519 0.96547 0.0
O212 O 0.62828 0.45637 0.91217 0.0
H213 H 0.66359 0.46972 0.9796 0.0
H214 H 0.67308 0.39788 0.95369 0.0
O215 O 0.62481 0.45537 0.02268 0.0
C216 C 0.62952 0.44723 0.86592 0.0
O217 O 0.63123 0.42433 0.86234 0.0
N218 N 0.62321 0.40671 0.01234 0.0
C219 C 0.61121 0.3651 0.06424 0.0
C220 C 0.60401 0.38676 0.0847 0.0
C221 C 0.60996 0.40737 0.05783 0.0
C222 C 0.62946 0.38565 0.99099 0.0
C223 C 0.62431 0.36468 0.01708 0.0
H224 H 0.60257 0.42362 0.07203 0.0
H225 H 0.63699 0.38495 0.95158 0.0
H226 H 0.58249 0.45895 0.01433 0.0
H227 H 0.544 0.42299 0.89802 0.0
H228 H 0.70871 0.46129 0.97739 0.0
H229 H 0.59324 0.38771 0.12022 0.0
H230 H 0.62924 0.34822 0.99876 0.0
C231 C 0.57941 0.09253 0.17668 0.0
C232 C 0.56873 0.07099 0.17912 0.0
N233 N 0.55372 0.07113 0.22049 0.0
N234 N 0.57095 0.10628 0.2159 0.0
C235 C 0.55543 0.09266 0.24237 0.0
H236 H 0.5923 0.09796 0.1476 0.0
Co237 Co 0.57927 0.13755 0.22393 0.0
C238 C 0.55759 0.15146 0.32903 0.0
O239 O 0.5761 0.16352 0.34331 0.0
N240 N 0.58823 0.16982 0.23101 0.0
C241 C 0.60879 0.20205 0.24981 0.0
C242 C 0.60643 0.17859 0.25945 0.0
C243 C 0.57959 0.18888 0.20517 0.0
N244 N 0.592 0.2085 0.21551 0.0
O245 O 0.55484 0.14572 0.17379 0.0
H246 H 0.61767 0.16882 0.28589 0.0
H247 H 0.56508 0.18843 0.17759 0.0
O248 O 0.55733 0.14076 0.28418 0.0
C249 C 0.56412 0.14563 0.12741 0.0
O250 O 0.587 0.1433 0.12431 0.0
N251 N 0.60459 0.12804 0.26595 0.0
C252 C 0.64851 0.11969 0.31035 0.0
C253 C 0.62807 0.11707 0.34124 0.0
C254 C 0.60603 0.12101 0.31786 0.0
C255 C 0.62403 0.12811 0.23445 0.0
C256 C 0.64613 0.12426 0.25584 0.0
H257 H 0.59042 0.11889 0.34169 0.0
H258 H 0.62241 0.13253 0.19275 0.0
H259 H 0.54503 0.0985 0.27591 0.0
H260 H 0.57173 0.05636 0.15255 0.0
H261 H 0.62201 0.21351 0.26641 0.0
H262 H 0.62916 0.11285 0.38322 0.0
H263 H 0.66132 0.12549 0.23005 0.0
C264 C 0.57907 0.60162 0.4424 0.0
C265 C 0.5561 0.59466 0.43855 0.0
N266 N 0.55486 0.57153 0.4496 0.0
N267 N 0.59228 0.5831 0.45662 0.0
C268 C 0.57719 0.56502 0.46022 0.0
H269 H 0.5858 0.61905 0.43533 0.0
Co270 Co 0.62463 0.58291 0.46445 0.0
C271 C 0.63037 0.55939 0.56882 0.0
O272 O 0.64342 0.57713 0.58401 0.0
N273 N 0.65752 0.58236 0.46854 0.0
C274 C 0.69431 0.56933 0.47168 0.0
C275 C 0.67178 0.5656 0.48867 0.0
C276 C 0.67181 0.59529 0.43717 0.0
N277 N 0.69433 0.58796 0.43894 0.0
O278 O 0.62657 0.55931 0.41031 0.0
H279 H 0.66619 0.55013 0.50978 0.0
H280 H 0.66547 0.60888 0.41082 0.0
O281 O 0.62214 0.55887 0.52125 0.0
C282 C 0.62445 0.56828 0.36407 0.0
O283 O 0.62221 0.59114 0.3602 0.0
N284 N 0.62195 0.6076 0.51544 0.0
C285 C 0.61301 0.646 0.58227 0.0
C286 C 0.60017 0.62519 0.58717 0.0
C287 C 0.60487 0.60635 0.55366 0.0
C288 C 0.63425 0.62792 0.5091 0.0
C289 C 0.63035 0.64716 0.5426 0.0
H290 H 0.59415 0.59086 0.55759 0.0
H291 H 0.64666 0.62976 0.47708 0.0
H292 H 0.58272 0.54734 0.46921 0.0
H293 H 0.54153 0.60595 0.42852 0.0
H294 H 0.70911 0.55789 0.47902 0.0
H295 H 0.58599 0.62355 0.6156 0.0
H296 H 0.64069 0.66284 0.53692 0.0
C297 C 0.43188 0.08312 0.68322 0.0
C298 C 0.44547 0.06325 0.68178 0.0
N299 N 0.46561 0.06766 0.7078 0.0
N300 N 0.44327 0.09994 0.71048 0.0
C301 C 0.4639 0.09009 0.72455 0.0
H302 H 0.41478 0.08523 0.66532 0.0
Co303 Co 0.43131 0.12968 0.72307 0.0
C304 C 0.45179 0.14374 0.8285 0.0
O305 O 0.43171 0.1526 0.8442 0.0
N306 N 0.41869 0.16033 0.73513 0.0
C307 C 0.39686 0.18997 0.76548 0.0
C308 C 0.39957 0.16618 0.76451 0.0
C309 C 0.42698 0.18132 0.71792 0.0
N310 N 0.41405 0.19947 0.7362 0.0
O311 O 0.45385 0.14195 0.67283 0.0
H312 H 0.38851 0.15426 0.78637 0.0
H313 H 0.44249 0.18346 0.69361 0.0
O314 O 0.4535 0.13413 0.7825 0.0
C315 C 0.44464 0.14072 0.62659 0.0
O316 O 0.42251 0.13447 0.62359 0.0
N317 N 0.40811 0.11596 0.76586 0.0
C318 C 0.36901 0.09483 0.8117 0.0
C319 C 0.39027 0.09599 0.83964 0.0
C320 C 0.40996 0.10605 0.81522 0.0
C321 C 0.38786 0.11392 0.7375 0.0
C322 C 0.36808 0.10355 0.7597 0.0
H323 H 0.42654 0.10551 0.83576 0.0
H324 H 0.38702 0.12086 0.69746 0.0
H325 H 0.47734 0.09909 0.74693 0.0
H326 H 0.44107 0.04696 0.66213 0.0
H327 H 0.3833 0.19963 0.78625 0.0
H328 H 0.39171 0.08883 0.87946 0.0
H329 H 0.35202 0.10287 0.73679 0.0
C330 C 0.92757 0.92051 0.95968 0.0
C331 C 0.94901 0.93153 0.96086 0.0
N332 N 0.94722 0.95022 0.99322 0.0
N333 N 0.91239 0.93238 0.99083 0.0
C334 C 0.92489 0.95043 0.01081 0.0
H335 H 0.92305 0.90529 0.93621 0.0
Co336 Co 0.88038 0.92662 0.99465 0.0
C337 C 0.86757 0.93848 0.10432 0.0
O338 O 0.85631 0.9184 0.10432 0.0
N339 N 0.84745 0.92176 0.99497 0.0
C340 C 0.80953 0.93119 0.99828 0.0
C341 C 0.83162 0.93732 0.01409 0.0
C342 C 0.83436 0.90718 0.96449 0.0
N343 N 0.81119 0.9122 0.96688 0.0
O344 O 0.87525 0.95318 0.94926 0.0
H345 H 0.83583 0.95338 0.03465 0.0
H346 H 0.84174 0.89435 0.9377 0.0
O347 O 0.87784 0.94547 0.06153 0.0
C348 C 0.87626 0.94482 0.90217 0.0
O349 O 0.87911 0.92207 0.89701 0.0
N350 N 0.88678 0.89906 0.03542 0.0
C351 C 0.8984 0.8586 0.09306 0.0
C352 C 0.9082 0.88034 0.10615 0.0
C353 C 0.90233 0.90019 0.07682 0.0
C354 C 0.87842 0.87777 0.01973 0.0
C355 C 0.88355 0.85744 0.04861 0.0
H356 H 0.91034 0.91663 0.08779 0.0
H357 H 0.86814 0.87615 0.98419 0.0
H358 H 0.91756 0.96407 0.03574 0.0
H359 H 0.96462 0.92644 0.93914 0.0
H360 H 0.79371 0.94115 1.00575 0.0
H361 H 0.92057 0.88209 0.13856 0.0
H362 H 0.87581 0.84104 0.03618 0.0
C363 C 0.08702 0.41524 0.22204 0.0
C364 C 0.07695 0.43715 0.21728 0.0
N365 N 0.05621 0.43681 0.24294 0.0
N366 N 0.07256 0.40129 0.25032 0.0
C367 C 0.05395 0.41493 0.26231 0.0
H368 H 0.10345 0.40962 0.2047 0.0
Co369 Co 0.07556 0.36917 0.26156 0.0
C370 C 0.05494 0.36452 0.36993 0.0
O371 O 0.07381 0.35328 0.3858 0.0
N372 N 0.07772 0.33626 0.26996 0.0
C373 C 0.06797 0.29886 0.2832 0.0
C374 C 0.06223 0.32172 0.29397 0.0
C375 C 0.09185 0.32155 0.24227 0.0
N376 N 0.08667 0.29876 0.25061 0.0
O377 O 0.05093 0.36436 0.21117 0.0
H378 H 0.0466 0.32705 0.31492 0.0
H379 H 0.10457 0.32742 0.21325 0.0
O380 O 0.05318 0.37114 0.3213 0.0
C381 C 0.0601 0.3645 0.16482 0.0
O382 O 0.08304 0.36591 0.16121 0.0
N383 N 0.10146 0.37489 0.30754 0.0
C384 C 0.14237 0.38852 0.3601 0.0
C385 C 0.12103 0.39954 0.3714 0.0
C386 C 0.10075 0.39246 0.34471 0.0
C387 C 0.12236 0.36445 0.29565 0.0
C388 C 0.14287 0.37054 0.32242 0.0
H389 H 0.08463 0.40185 0.35234 0.0
H390 H 0.12381 0.3524 0.26308 0.0
H391 H 0.03846 0.40872 0.28278 0.0
H392 H 0.08417 0.45207 0.19636 0.0
H393 H 0.05856 0.28355 0.29691 0.0
H394 H 0.12016 0.4139 0.39954 0.0
H395 H 0.15927 0.36227 0.31132 0.0
C396 C 0.40566 0.58429 0.9675 0.0
C397 C 0.42756 0.57414 0.96491 0.0
N398 N 0.4272 0.55453 0.99468 0.0
N399 N 0.39166 0.57097 0.99842 0.0
C400 C 0.4053 0.55297 0.01442 0.0
H401 H 0.39996 0.59981 0.94643 0.0
Co402 Co 0.35952 0.5745 1.00592 0.0
C403 C 0.35614 0.55579 0.11893 0.0
O404 O 0.34905 0.57592 0.13857 0.0
N405 N 0.3267 0.57766 0.01043 0.0
C406 C 0.28852 0.57684 0.02924 0.0
C407 C 0.31063 0.5717 0.04771 0.0
C408 C 0.31375 0.58584 0.96939 0.0
N409 N 0.29057 0.58568 0.97985 0.0
O410 O 0.35537 0.54789 0.95978 0.0
H411 H 0.31414 0.56334 0.08521 0.0
H412 H 0.32127 0.59212 0.93253 0.0
O413 O 0.35993 0.55367 0.0688 0.0
C414 C 0.35657 0.55293 0.91031 0.0
O415 O 0.35984 0.5749 0.89661 0.0
N416 N 0.36427 0.60194 0.0475 0.0
C417 C 0.37222 0.6447 0.09906 0.0
C418 C 0.38559 0.62485 0.11182 0.0
C419 C 0.38151 0.60369 0.08516 0.0
C420 C 0.35205 0.62148 0.03286 0.0
C421 C 0.35541 0.64282 0.05869 0.0
H422 H 0.39217 0.58864 0.09507 0.0
H423 H 0.34001 0.62093 0.9999 0.0
H424 H 0.39903 0.53824 0.0375 0.0
H425 H 0.44243 0.58035 0.94212 0.0
H426 H 0.27216 0.57347 0.04976 0.0
H427 H 0.39899 0.6256 0.14227 0.0
H428 H 0.34537 0.65793 0.04597 0.0
C429 C 0.42408 0.91231 0.21158 0.0
C430 C 0.43218 0.93498 0.21214 0.0
N431 N 0.45032 0.93612 0.24628 0.0
N432 N 0.4371 0.89927 0.2451 0.0
C433 C 0.45296 0.91425 0.26583 0.0
H434 H 0.41036 0.90546 0.18634 0.0
Co435 Co 0.43578 0.86695 0.24859 0.0
C436 C 0.44559 0.85469 0.36052 0.0
O437 O 0.4277 0.84027 0.35743 0.0
N438 N 0.43517 0.83367 0.24992 0.0
C439 C 0.44901 0.79717 0.25578 0.0
C440 C 0.45402 0.82049 0.26306 0.0
C441 C 0.41907 0.81776 0.23378 0.0
N442 N 0.42696 0.79548 0.23736 0.0
O443 O 0.46542 0.86578 0.21255 0.0
H444 H 0.47062 0.82746 0.27638 0.0
H445 H 0.40223 0.82211 0.21733 0.0
O446 O 0.45129 0.86701 0.3197 0.0
C447 C 0.46308 0.86369 0.1622 0.0
O448 O 0.44196 0.86027 0.14292 0.0
N449 N 0.40549 0.86959 0.27886 0.0
C450 C 0.3588 0.87903 0.30733 0.0
C451 C 0.37746 0.88595 0.34027 0.0
C452 C 0.40063 0.88144 0.32492 0.0
C453 C 0.38772 0.86427 0.24482 0.0
C454 C 0.36435 0.86792 0.259 0.0
H455 H 0.41458 0.88863 0.34884 0.0
H456 H 0.39171 0.85822 0.20508 0.0
H457 H 0.46716 0.90895 0.29173 0.0
H458 H 0.42581 0.94934 0.18796 0.0
H459 H 0.46076 0.78264 0.26322 0.0
H460 H 0.37437 0.89578 0.37647 0.0
H461 H 0.35086 0.86252 0.23139 0.0
C462 C 0.09298 0.9107 0.47144 0.0
C463 C 0.06975 0.917 0.47027 0.0
N464 N 0.06775 0.93913 0.48852 0.0
N465 N 0.10564 0.92865 0.49083 0.0
C466 C 0.08986 0.94586 0.50038 0.0
H467 H 0.10029 0.89416 0.45852 0.0
Co468 Co 0.13822 0.92839 0.49644 0.0
C469 C 0.14321 0.94918 0.60523 0.0
O470 O 0.15459 0.93041 0.62116 0.0
N471 N 0.17139 0.92838 0.49866 0.0
C472 C 0.20937 0.93585 0.51108 0.0
C473 C 0.187 0.94035 0.52872 0.0
C474 C 0.18487 0.91777 0.4613 0.0
N475 N 0.20796 0.92167 0.46856 0.0
O476 O 0.13963 0.95346 0.44528 0.0
H477 H 0.18285 0.95286 0.55936 0.0
H478 H 0.17778 0.90752 0.42887 0.0
O479 O 0.13643 0.9508 0.55661 0.0
C480 C 0.13714 0.94501 0.39855 0.0
O481 O 0.13475 0.92222 0.39368 0.0
N482 N 0.13622 0.90196 0.54291 0.0
C483 C 0.12952 0.85989 0.5983 0.0
C484 C 0.11596 0.87967 0.61029 0.0
C485 C 0.1195 0.9005 0.58204 0.0
C486 C 0.1491 0.88259 0.53011 0.0
C487 C 0.14639 0.8616 0.55796 0.0
H488 H 0.10839 0.91536 0.59083 0.0
H489 H 0.16084 0.88277 0.49658 0.0
H490 H 0.0945 0.96295 0.51567 0.0
H491 H 0.05551 0.90625 0.45583 0.0
H492 H 0.22536 0.94349 0.5264 0.0
H493 H 0.10254 0.87898 0.64083 0.0
H494 H 0.15669 0.84649 0.54624 0.0
C495 C 0.0885 0.58923 0.71995 0.0
C496 C 0.08199 0.56615 0.71834 0.0
N497 N 0.05884 0.56466 0.72896 0.0
N498 N 0.06976 0.6025 0.73266 0.0
C499 C 0.05193 0.58702 0.73792 0.0
H500 H 0.10575 0.59585 0.71071 0.0
Co501 Co 0.06844 0.63524 0.73343 0.0
C502 C 0.05155 0.64849 0.84092 0.0
O503 O 0.06535 0.66688 0.83977 0.0
N504 N 0.06648 0.66851 0.7319 0.0
C505 C 0.05047 0.70422 0.73094 0.0
C506 C 0.04624 0.68067 0.73723 0.0
C507 C 0.08265 0.68525 0.72127 0.0
N508 N 0.07346 0.70709 0.72093 0.0
O509 O 0.03985 0.63373 0.69428 0.0
H510 H 0.02934 0.67286 0.74527 0.0
H511 H 0.10071 0.68176 0.71197 0.0
O512 O 0.05112 0.63425 0.80148 0.0
C513 C 0.04224 0.63499 0.64391 0.0
O514 O 0.06329 0.63841 0.62411 0.0
N515 N 0.09772 0.63583 0.76845 0.0
C516 C 0.14386 0.62905 0.80322 0.0
C517 C 0.12478 0.62345 0.83623 0.0
C518 C 0.10188 0.62668 0.8179 0.0
C519 C 0.11606 0.64082 0.73553 0.0
C520 C 0.13916 0.63828 0.75255 0.0
H521 H 0.08775 0.6201 0.84215 0.0
H522 H 0.11273 0.64554 0.69452 0.0
H523 H 0.03401 0.59228 0.74558 0.0
H524 H 0.09353 0.55169 0.70896 0.0
H525 H 0.03759 0.71809 0.73368 0.0
H526 H 0.1274 0.61529 0.87469 0.0
H527 H 0.15317 0.64274 0.72526 0.0
H528 H 0.9744 0.97223 0.9208 0.0
H529 H 0.95984 0.96677 0.08955 0.0
H530 H 0.99161 0.99526 0.10849 0.0
H531 H 0.03661 0.97807 0.92822 0.0
H532 H 0.03849 0.99945 0.87556 0.0
H533 H 0.01501 0.97841 0.87589 0.0
H534 H 0.98456 0.01211 0.87234 0.0
H535 H 0.00795 0.03326 0.8719 0.0
H536 H 0.9854 0.03484 0.92212 0.0
H537 H 0.02697 0.02212 0.10845 0.0
H538 H 0.06007 0.04904 0.08902 0.0
H539 H 0.04867 0.03984 0.91999 0.0
C540 C 0.97803 0.97707 0.96165 0.0
C541 C 0.96505 0.96727 1.00395 0.0
C542 C 0.96978 0.97419 0.0569 0.0
C543 C 0.98776 0.99024 0.06788 0.0
C544 C 1.00041 0.99952 0.02523 0.0
C545 C 0.99548 0.9935 0.9731 0.0
C546 C 0.011 0.00665 0.93436 0.0
C547 C 0.02618 0.98963 0.90159 0.0
C548 C 0.99635 0.02267 0.89805 0.0
C549 C 0.02572 0.02075 0.9728 0.0
C550 C 0.01958 0.01617 0.02509 0.0
C551 C 0.03167 0.02613 0.06768 0.0
C552 C 0.0504 0.04127 0.05644 0.0
C553 C 0.05646 0.04663 1.00321 0.0
C554 C 0.04393 0.03629 0.96098 0.0
H555 H 0.97715 0.54334 0.14312 0.0
H556 H 0.94786 0.54577 0.30229 0.0
H557 H 0.97272 0.51219 0.32875 0.0
H558 H 0.98327 0.48004 0.13327 0.0
H559 H 0.01088 0.48145 0.09843 0.0
H560 H 0.98986 0.50481 0.09131 0.0
H561 H 0.02121 0.53477 0.12147 0.0
H562 H 0.04229 0.51149 0.12897 0.0
H563 H 0.03591 0.5306 0.18428 0.0
H564 H 1.00019 0.47827 0.3375 0.0
H565 H 0.03022 0.44717 0.32946 0.0
H566 H 0.04372 0.46807 0.16635 0.0
C567 C 0.97581 0.5365 0.18323 0.0
C568 C 0.9605 0.54686 0.22069 0.0
C569 C 0.95952 0.53794 0.27323 0.0
C570 C 0.9735 0.51891 0.28848 0.0
C571 C 0.98861 0.5092 0.25084 0.0
C572 C 0.99001 0.51774 0.19939 0.0
C573 C 0.00851 0.50474 0.16753 0.0
C574 C 0.99746 0.492 0.11982 0.0
C575 C 0.02814 0.5214 0.14952 0.0
C576 C 0.01721 0.48753 0.20908 0.0
C577 C 0.00531 0.49028 0.25666 0.0
C578 C 0.00972 0.47601 0.30055 0.0
C579 C 0.02672 0.45841 0.29564 0.0
C580 C 0.03932 0.45542 0.24752 0.0
C581 C 0.03457 0.47028 0.20383 0.0
H582 H 0.55041 0.52705 0.48957 0.0
H583 H 0.51184 0.58225 0.4083 0.0
H584 H 0.47666 0.55765 0.40882 0.0
H585 H 0.52415 0.47935 0.41727 0.0
H586 H 0.52372 0.46005 0.47409 0.0
H587 H 0.54596 0.48228 0.46872 0.0
H588 H 0.5339 0.49869 0.56098 0.0
H589 H 0.51158 0.47655 0.56665 0.0
H590 H 0.50384 0.50706 0.57261 0.0
H591 H 0.44528 0.52741 0.41911 0.0
H592 H 0.42045 0.49274 0.43545 0.0
H593 H 0.47968 0.45657 0.50584 0.0
C594 C 0.53476 0.53407 0.47137 0.0
C595 C 0.53419 0.55688 0.44919 0.0
C596 C 0.51295 0.56513 0.42642 0.0
C597 C 0.49277 0.55119 0.4262 0.0
C598 C 0.49403 0.52891 0.44844 0.0
C599 C 0.5145 0.52031 0.47027 0.0
C600 C 0.51125 0.49559 0.4909 0.0
C601 C 0.52722 0.4783 0.46094 0.0
C602 C 0.51538 0.49442 0.55137 0.0
C603 C 0.4857 0.49168 0.47734 0.0
C604 C 0.47607 0.51119 0.45316 0.0
C605 C 0.45263 0.51201 0.43792 0.0
C606 C 0.43863 0.49232 0.44764 0.0
C607 C 0.44818 0.47206 0.47196 0.0
C608 C 0.47204 0.47177 0.48674 0.0
H609 H 0.5266 0.94275 0.72263 0.0
H610 H 0.59345 0.97852 0.7152 0.0
H611 H 0.57302 0.01677 0.71819 0.0
H612 H 0.49647 0.9816 0.63716 0.0
H613 H 0.46906 0.98013 0.67276 0.0
H614 H 0.48902 0.95572 0.67465 0.0
H615 H 0.4893 0.95732 0.77782 0.0
H616 H 0.46927 0.98174 0.77626 0.0
H617 H 0.4968 0.98431 0.81086 0.0
H618 H 0.5451 0.05109 0.71935 0.0
H619 H 0.51179 0.07876 0.71318 0.0
H620 H 0.46328 0.0204 0.71756 0.0
C621 C 0.53691 0.95865 0.72259 0.0
C622 C 0.56159 0.95776 0.71902 0.0
C623 C 0.57451 0.97891 0.7177 0.0
C624 C 0.56308 1.00066 0.7197 0.0
C625 C 0.53869 1.00095 0.7227 0.0
C626 C 0.52575 0.98049 0.72388 0.0
C627 C 0.4997 0.9856 0.72377 0.0
C628 C 0.48788 0.97515 0.67413 0.0
C629 C 0.48809 0.97672 0.77525 0.0
C630 C 0.50001 0.01209 0.72169 0.0
C631 C 0.52264 0.02065 0.72183 0.0
C632 C 0.52729 0.0446 0.71944 0.0
C633 C 0.50829 0.06019 0.71618 0.0
C634 C 0.48498 0.05173 0.71471 0.0
C635 C 0.48091 0.02737 0.71804 0.0
H636 H 0.06234 0.98676 0.48241 0.0
H637 H 0.02432 0.92174 0.50552 0.0
H638 H 0.98715 0.94357 0.50795 0.0
H639 H 0.02497 0.02248 0.56972 0.0
H640 H 0.0267 0.048 0.52761 0.0
H641 H 0.05067 0.02742 0.5294 0.0
H642 H 0.04802 0.02258 0.42703 0.0
H643 H 0.02395 0.04301 0.42495 0.0
H644 H 0.02056 0.01407 0.39736 0.0
H645 H 0.95415 0.97152 0.50336 0.0
H646 H 0.92677 0.0043 0.49563 0.0
H647 H 0.98531 0.05247 0.47923 0.0
C648 C 0.04623 0.97718 0.48875 0.0
C649 C 0.0463 0.95243 0.49333 0.0
C650 C 0.02475 0.94057 0.50094 0.0
C651 C 0.00352 0.95284 0.50272 0.0
C652 C 0.00402 0.97708 0.49711 0.0
C653 C 0.02474 0.98922 0.49065 0.0
C654 C 0.02007 0.01531 0.48466 0.0
C655 C 0.03126 0.02911 0.53059 0.0
C656 C 0.02866 0.02426 0.43026 0.0
C657 C 0.99347 0.01579 0.48821 0.0
C658 C 0.98471 0.99349 0.49546 0.0
C659 C 0.96079 0.98914 0.49849 0.0
C660 C 0.94531 0.00807 0.4944 0.0
C661 C 0.95367 0.0313 0.48768 0.0
C662 C 0.97821 0.03506 0.48436 0.0
H663 H 0.94681 0.48299 0.78071 0.0
H664 H 0.98537 0.42808 0.69945 0.0
H665 H 0.01813 0.45529 0.68368 0.0
H666 H 0.96642 0.53137 0.69648 0.0
H667 H 0.96889 0.55184 0.75082 0.0
H668 H 0.94782 0.5284 0.7542 0.0
H669 H 0.9658 0.51459 0.84356 0.0
H670 H 0.98692 0.53796 0.8404 0.0
H671 H 0.99669 0.50806 0.8469 0.0
H672 H 0.0465 0.48771 0.6766 0.0
H673 H 0.07 0.52342 0.68041 0.0
H674 H 0.01461 0.55803 0.77007 0.0
C675 C 0.96211 0.47689 0.75925 0.0
C676 C 0.96366 0.45342 0.74149 0.0
C677 C 0.984 0.44588 0.71399 0.0
C678 C 1.00262 0.46124 0.70457 0.0
C679 C 1.00073 0.48413 0.72311 0.0
C680 C 0.9811 0.49202 0.75001 0.0
C681 C 0.98416 0.51737 0.7671 0.0
C682 C 0.96573 0.53318 0.74056 0.0
C683 C 0.98335 0.51962 0.82812 0.0
C684 C 0.00857 0.52237 0.74563 0.0
C685 C 0.01761 0.50293 0.72015 0.0
C686 C 0.0397 0.50303 0.69679 0.0
C687 C 0.05306 0.52351 0.69966 0.0
C688 C 0.04451 0.54376 0.72622 0.0
C689 C 0.02179 0.54306 0.7493 0.0
H690 H 0.52896 0.46947 0.89703 0.0
H691 H 0.5396 0.45069 0.06221 0.0
H692 H 0.50639 0.47631 0.08862 0.0
H693 H 0.51741 0.52972 0.9224 0.0
H694 H 0.4959 0.53281 0.87034 0.0
H695 H 0.51892 0.51138 0.86405 0.0
H696 H 0.48804 0.47865 0.85093 0.0
H697 H 0.46491 0.50002 0.85681 0.0
H698 H 0.46526 0.47479 0.89998 0.0
H699 H 0.47186 0.50369 0.09629 0.0
H700 H 0.44044 0.53339 0.08574 0.0
H701 H 0.45482 0.53701 0.91656 0.0
C702 C 0.52389 0.4705 0.93853 0.0
C703 C 0.53632 0.45792 0.97772 0.0
C704 C 0.52994 0.46012 0.03191 0.0
C705 C 0.51118 0.47456 0.04709 0.0
C706 C 0.49935 0.48696 1.00754 0.0
C707 C 0.50559 0.48528 0.95442 0.0
C708 C 0.49114 0.50171 0.92029 0.0
C709 C 0.50678 0.51999 0.89266 0.0
C710 C 0.47646 0.48797 0.87961 0.0
C711 C 0.47578 0.51289 0.96246 0.0
C712 C 0.48054 0.50388 0.01242 0.0
C713 C 0.4681 0.51099 0.05745 0.0
C714 C 0.45034 0.52778 0.05118 0.0
C715 C 0.44557 0.53755 1.00058 0.0
C716 C 0.4585 0.53004 0.95578 0.0
H717 H 0.46744 0.96472 0.17009 0.0
H718 H 0.46812 0.95144 0.33983 0.0
H719 H 0.49405 0.98589 0.35309 0.0
H720 H 0.52806 0.98079 0.16068 0.0
H721 H 0.52313 0.0026 0.10999 0.0
H722 H 0.5039 0.97772 0.11503 0.0
H723 H 0.46815 0.00558 0.12327 0.0
H724 H 0.48728 0.03056 0.11841 0.0
H725 H 0.46785 0.02763 0.17467 0.0
H726 H 0.51884 0.02308 0.34686 0.0
H727 H 0.54386 0.0568 0.32092 0.0
H728 H 0.5288 0.04332 0.15478 0.0
C729 C 0.47291 0.96925 0.21005 0.0
C730 C 0.46562 0.95578 0.25414 0.0
C731 C 0.47355 0.96173 0.30575 0.0
C732 C 0.48814 0.98125 0.31354 0.0
C733 C 0.49492 0.99431 0.2691 0.0
C734 C 0.48781 0.9883 0.21828 0.0
C735 C 0.49844 0.00432 0.1768 0.0
C736 C 0.51433 0.99053 0.13837 0.0
C737 C 0.47929 0.01782 0.14652 0.0
C738 C 0.51255 0.02043 0.21211 0.0
C739 C 0.51008 0.01465 0.2653 0.0
C740 C 0.52103 0.02761 0.30529 0.0
C741 C 0.53508 0.04674 0.29035 0.0
C742 C 0.53834 0.05239 0.23596 0.0
C743 C 0.52682 0.0391 0.19659 0.0
H744 H 0.15224 0.99081 0.38458 0.0
H745 H 0.12014 0.93228 0.30204 0.0
H746 H 0.11986 0.95493 0.21878 0.0
H747 H 0.12119 0.03708 0.31256 0.0
H748 H 0.14629 0.05618 0.31015 0.0
H749 H 0.14296 0.03582 0.36446 0.0
H750 H 0.18393 0.01841 0.34369 0.0
H751 H 0.18733 0.03865 0.28919 0.0
H752 H 0.19011 0.00761 0.27766 0.0
H753 H 0.12376 0.9833 0.1434 0.0
H754 H 0.13196 0.01581 0.0811 0.0
H755 H 0.16223 0.05579 0.21105 0.0
C756 C 0.14493 0.98292 0.3491 0.0
C757 C 0.1362 0.95977 0.34997 0.0
C758 C 0.12703 0.94995 0.30248 0.0
C759 C 0.12672 0.96269 0.25485 0.0
C760 C 0.13573 0.98529 0.255 0.0
C761 C 0.14467 0.99538 0.30077 0.0
C762 C 0.15396 0.01973 0.28925 0.0
C763 C 0.14028 0.0383 0.32099 0.0
C764 C 0.1804 0.02117 0.30062 0.0
C765 C 0.14895 0.02159 0.23001 0.0
C766 C 0.13831 1.00157 0.21113 0.0
C767 C 0.13206 0.99912 0.1577 0.0
C768 C 0.1368 0.01767 0.12257 0.0
C769 C 0.14777 0.03836 0.14096 0.0
C770 C 0.15389 0.04021 0.1955 0.0
H771 H 0.04084 0.6421 0.53595 0.0
H772 H 0.99829 0.61938 0.66984 0.0
H773 H 0.96533 0.61171 0.60857 0.0
H774 H 0.99473 0.67172 0.46566 0.0
H775 H 0.00515 0.6632 0.40068 0.0
H776 H 0.02553 0.66639 0.4549 0.0
H777 H 0.04008 0.6239 0.4396 0.0
H778 H 0.0196 0.62051 0.38558 0.0
H779 H 0.01928 0.60016 0.44048 0.0
H780 H 0.93723 0.60652 0.53347 0.0
H781 H 0.91454 0.60648 0.45036 0.0
H782 H 0.97502 0.63306 0.36428 0.0
C783 C 0.02459 0.6355 0.55244 0.0
C784 C 0.02212 0.63131 0.60774 0.0
C785 C 1.00054 0.62281 0.62771 0.0
C786 C 0.98178 0.61828 0.59317 0.0
C787 C 0.98487 0.62243 0.53887 0.0
C788 C 0.00565 0.63101 0.51859 0.0
C789 C 0.00414 0.63457 0.45877 0.0
C790 C 0.00758 0.66051 0.44416 0.0
C791 C 0.02183 0.61885 0.42939 0.0
C792 C 0.97918 0.62675 0.44858 0.0
C793 C 0.9685 0.61966 0.49538 0.0
C794 C 0.94539 0.61204 0.49661 0.0
C795 C 0.93265 0.6121 0.44904 0.0
C796 C 0.94295 0.61983 0.40066 0.0
C797 C 0.96669 0.6269 0.40043 0.0
H798 H 0.34955 0.50784 0.60986 0.0
H799 H 0.36806 0.43863 0.66773 0.0
H800 H 0.36782 0.45348 0.76008 0.0
H801 H 0.38564 0.53948 0.70187 0.0
H802 H 0.36512 0.56327 0.70962 0.0
H803 H 0.36591 0.54688 0.6484 0.0
H804 H 0.32163 0.53777 0.65832 0.0
H805 H 0.32074 0.55403 0.71978 0.0
H806 H 0.31112 0.52398 0.71837 0.0
H807 H 0.3652 0.47611 0.84721 0.0
H808 H 0.36344 0.50535 0.92018 0.0
H809 H 0.34798 0.5597 0.8046 0.0
C810 C 0.35347 0.49579 0.64196 0.0
C811 C 0.35882 0.47206 0.63145 0.0
C812 C 0.36408 0.45693 0.67465 0.0
C813 C 0.36384 0.46516 0.72736 0.0
C814 C 0.35847 0.48865 0.73638 0.0
C815 C 0.35359 0.50378 0.6948 0.0
C816 C 0.34927 0.52841 0.71499 0.0
C817 C 0.36758 0.54552 0.69238 0.0
C818 C 0.3242 0.53652 0.7021 0.0
C819 C 0.35253 0.52478 0.77432 0.0
C820 C 0.35758 0.5017 0.78607 0.0
C821 C 0.36128 0.49425 0.83842 0.0
C822 C 0.36015 0.51093 0.87964 0.0
C823 C 0.35563 0.53478 0.86813 0.0
C824 C 0.35156 0.54161 0.81475 0.0
H825 H 0.46475 0.85363 0.05553 0.0
H826 H 0.50585 0.88345 0.184 0.0
H827 H 0.53716 0.89343 0.11962 0.0
H828 H 0.51331 0.82777 0.98497 0.0
H829 H 0.50119 0.83364 0.92006 0.0
H830 H 0.48199 0.82937 0.9762 0.0
H831 H 0.46255 0.86955 0.95723 0.0
H832 H 0.48197 0.87411 0.90153 0.0
H833 H 0.48049 0.89549 0.95425 0.0
H834 H 0.56372 0.90028 0.04175 0.0
H835 H 0.58604 0.89963 0.95775 0.0
H836 H 0.52812 0.86493 0.87883 0.0
C837 C 0.48037 0.8622 0.07022 0.0
C838 C 0.48286 0.86778 0.12492 0.0
C839 C 0.50362 0.87887 0.14246 0.0
C840 C 0.52139 0.88478 0.10608 0.0
C841 C 0.51817 0.87939 0.05234 0.0
C842 C 0.49833 0.86806 0.03452 0.0
C843 C 0.49964 0.86344 0.97497 0.0
C844 C 0.499 0.83699 0.96339 0.0
C845 C 0.47999 0.87643 0.94526 0.0
C846 C 0.52344 0.8738 0.96202 0.0
C847 C 0.53365 0.88314 1.00727 0.0
C848 C 0.55588 0.89307 1.00613 0.0
C849 C 0.56838 0.89268 0.95812 0.0
C850 C 0.55876 0.88239 0.91166 0.0
C851 C 0.53572 0.87336 0.91335 0.0
H852 H 0.86372 0.0602 0.71986 0.0
H853 H 0.87864 0.01472 0.58516 0.0
H854 H 0.88236 0.98118 0.64593 0.0
H855 H 0.90433 0.03197 0.81169 0.0
H856 H 0.88541 0.03534 0.86873 0.0
H857 H 0.88411 0.05622 0.81498 0.0
H858 H 0.83961 0.04852 0.80498 0.0
H859 H 0.84079 0.02756 0.85855 0.0
H860 H 0.82941 0.01901 0.79451 0.0
H861 H 0.88318 0.95253 0.71867 0.0
H862 H 0.883 0.92974 0.80115 0.0
H863 H 0.86846 0.9929 0.89218 0.0
C864 C 0.86783 0.04319 0.70321 0.0
C865 C 0.87085 0.04013 0.64758 0.0
C866 C 0.87631 0.01759 0.62747 0.0
C867 C 0.87841 0.99838 0.66169 0.0
C868 C 0.87517 1.00194 0.71604 0.0
C869 C 0.87017 0.02373 0.73698 0.0
C870 C 0.86766 0.02248 0.79725 0.0
C871 C 0.8865 0.03739 0.82478 0.0
C872 C 0.84289 0.02983 0.81484 0.0
C873 C 0.8718 0.99652 0.80663 0.0
C874 C 0.87604 0.98516 0.75895 0.0
C875 C 0.88001 0.9612 0.75633 0.0
C876 C 0.87981 0.94841 0.80368 0.0
C877 C 0.87575 0.95948 0.85344 0.0
C878 C 0.87167 0.98394 0.85487 0.0
H879 H 0.94594 0.35601 0.98034 0.0
H880 H 0.99032 0.37684 0.84787 0.0
H881 H 0.02411 0.37945 0.90892 0.0
H882 H 0.97279 0.39409 0.07864 0.0
H883 H 0.96993 0.37312 0.13192 0.0
H884 H 0.94912 0.37321 0.07801 0.0
H885 H 0.95815 0.32945 0.05975 0.0
H886 H 0.97905 0.32925 0.11342 0.0
H887 H 0.98797 0.32044 0.04749 0.0
H888 H 0.0532 0.37805 0.9827 0.0
H889 H 0.07578 0.37514 0.06562 0.0
H890 H 0.01251 0.35642 0.1521 0.0
C891 C 0.96275 0.36119 0.96412 0.0
C892 C 0.96552 0.36611 0.9092 0.0
C893 C 0.98777 0.37298 0.88972 0.0
C894 C 0.00707 0.37447 0.92408 0.0
C895 C 0.00376 0.36925 0.97782 0.0
C896 C 0.98215 0.36296 0.99792 0.0
C897 C 0.98338 0.35834 0.05741 0.0
C898 C 0.96789 0.37573 0.08831 0.0
C899 C 0.97675 0.33285 0.07025 0.0
C900 C 0.00917 0.36279 0.06755 0.0
C901 C 0.02054 0.36897 0.02093 0.0
C902 C 0.04447 0.37338 0.0195 0.0
C903 C 0.05715 0.37157 0.06695 0.0
C904 C 0.04592 0.36555 0.11552 0.0
C905 C 0.02155 0.36114 0.11571 0.0
H906 H 0.64048 0.52307 0.34794 0.0
H907 H 0.60525 0.58104 0.26965 0.0
H908 H 0.60319 0.55825 0.18663 0.0
H909 H 0.67595 0.50704 0.23578 0.0
H910 H 0.67429 0.47598 0.24798 0.0
H911 H 0.6719 0.49625 0.30266 0.0
H912 H 0.63206 0.47794 0.32944 0.0
H913 H 0.63435 0.45758 0.27487 0.0
H914 H 0.6089 0.47614 0.28085 0.0
H915 H 0.60497 0.52957 0.11175 0.0
H916 H 0.61219 0.4972 0.04856 0.0
H917 H 0.6477 0.45824 0.1733 0.0
C918 C 0.63215 0.53082 0.31341 0.0
C919 C 0.62296 0.5538 0.31533 0.0
C920 C 0.61249 0.56349 0.26913 0.0
C921 C 0.61114 0.55066 0.22175 0.0
C922 C 0.62052 0.52817 0.22089 0.0
C923 C 0.63094 0.51832 0.26531 0.0
C924 C 0.64051 0.49415 0.25268 0.0
C925 C 0.66725 0.49332 0.26022 0.0
C926 C 0.62822 0.47534 0.28647 0.0
C927 C 0.63389 0.49209 0.19434 0.0
C928 C 0.62218 0.51183 0.177 0.0
C929 C 0.61417 0.51401 0.12478 0.0
C930 C 0.61834 0.49553 0.08918 0.0
C931 C 0.63061 0.47524 0.10582 0.0
C932 C 0.63841 0.47358 0.1592 0.0
H933 H 0.55727 0.15919 0.43737 0.0
H934 H 0.51264 0.13856 0.30562 0.0
H935 H 0.47904 0.13543 0.36738 0.0
H936 H 0.53185 0.11948 0.53297 0.0
H937 H 0.53448 0.13941 0.58829 0.0
H938 H 0.55489 0.14106 0.5336 0.0
H939 H 0.54444 0.18483 0.52031 0.0
H940 H 0.52392 0.18329 0.57484 0.0
H941 H 0.51428 0.19319 0.51029 0.0
H942 H 0.45035 0.13521 0.44201 0.0
H943 H 0.4285 0.13424 0.52608 0.0
H944 H 0.49167 0.15292 0.61265 0.0
C945 C 0.54038 0.15415 0.42146 0.0
C946 C 0.53752 0.14933 0.36643 0.0
C947 C 0.51524 0.1424 0.34745 0.0
C948 C 0.49605 0.14065 0.38223 0.0
C949 C 0.49944 0.14562 0.43607 0.0
C950 C 0.52107 0.15196 0.45585 0.0
C951 C 0.52006 0.15529 0.51596 0.0
C952 C 0.53628 0.13776 0.54437 0.0
C953 C 0.52603 0.18066 0.53123 0.0
C954 C 0.49443 0.14988 0.52684 0.0
C955 C 0.48292 0.14461 0.47991 0.0
C956 C 0.4592 0.1392 0.47901 0.0
C957 C 0.44692 0.13875 0.52727 0.0
C958 C 0.4583 0.14344 0.57638 0.0
C959 C 0.48242 0.14927 0.57595 0.0
H960 H 0.63805 0.49443 0.85053 0.0
H961 H 0.61498 0.4314 0.76962 0.0
H962 H 0.61062 0.45356 0.68608 0.0
H963 H 0.6004 0.53553 0.77924 0.0
H964 H 0.62252 0.55798 0.77569 0.0
H965 H 0.62246 0.53753 0.83037 0.0
H966 H 0.66533 0.5259 0.80846 0.0
H967 H 0.66553 0.54632 0.75382 0.0
H968 H 0.67257 0.51596 0.74229 0.0
H969 H 0.60908 0.48237 0.61051 0.0
H970 H 0.61318 0.51542 0.54733 0.0
H971 H 0.63879 0.55923 0.67596 0.0
C972 C 0.63189 0.4854 0.81531 0.0
C973 C 0.62681 0.46121 0.81665 0.0
C974 C 0.61909 0.44991 0.76955 0.0
C975 C 0.61642 0.46237 0.72187 0.0
C976 C 0.62171 0.48613 0.72163 0.0
C977 C 0.62945 0.49753 0.76695 0.0
C978 C 0.63514 0.52291 0.75498 0.0
C979 C 0.61917 0.53946 0.78697 0.0
C980 C 0.66119 0.52806 0.7655 0.0
C981 C 0.62956 0.52385 0.69596 0.0
C982 C 0.62155 0.50255 0.67761 0.0
C983 C 0.61536 0.49916 0.62438 0.0
C984 C 0.6177 0.51802 0.58879 0.0
C985 C 0.62644 0.53984 0.60655 0.0
C986 C 0.6322 0.54273 0.66099 0.0
H987 H 0.51594 0.15184 0.11299 0.0
H988 H 0.58117 0.14022 0.02731 0.0
H989 H 0.55969 0.13853 0.94302 0.0
H990 H 0.48029 0.11387 0.03289 0.0
H991 H 0.4549 0.13269 0.03346 0.0
H992 H 0.47524 0.13336 0.08824 0.0
H993 H 0.48074 0.17802 0.07522 0.0
H994 H 0.46034 0.1775 0.02053 0.0
H995 H 0.4894 0.18909 0.01089 0.0
H996 H 0.53153 0.13603 0.86775 0.0
H997 H 0.49807 0.13589 0.80536 0.0
H998 H 0.45086 0.15085 0.9369 0.0
C999 C 0.52567 0.14911 0.07645 0.0
C1000 C 0.55031 0.14615 0.07718 0.0
C1001 C 0.56234 0.14259 0.02827 0.0
C1002 C 0.55029 0.14153 0.97987 0.0
C1003 C 0.52611 0.14427 0.98043 0.0
C1004 C 0.51387 0.14823 0.02719 0.0
C1005 C 0.48784 0.15078 0.01589 0.0
C1006 C 0.47374 0.13153 0.04431 0.0
C1007 C 0.47907 0.17531 0.03156 0.0
C1008 C 0.48751 0.14745 0.95579 0.0
C1009 C 0.5098 0.14355 0.9363 0.0
C1010 C 0.51398 0.13928 0.88239 0.0
C1011 C 0.49487 0.13916 0.84724 0.0
C1012 C 0.47187 0.14353 0.86601 0.0
C1013 C 0.46826 0.14771 0.92112 0.0
H1014 H 0.87495 0.05001 0.2967 0.0
H1015 H 0.86035 0.00266 0.42801 0.0
H1016 H 0.86021 0.96934 0.36516 0.0
H1017 H 0.83879 0.02175 0.20008 0.0
H1018 H 0.85871 0.02667 0.14543 0.0
H1019 H 0.85809 0.04672 0.20076 0.0
H1020 H 0.90261 0.04039 0.21508 0.0
H1021 H 0.90337 0.02023 0.15989 0.0
H1022 H 0.91376 0.01112 0.22443 0.0
H1023 H 0.86062 0.94162 0.28864 0.0
H1024 H 0.86126 0.92071 0.20321 0.0
H1025 H 0.87642 0.98575 0.12039 0.0
C1026 C 0.87171 0.03264 0.31235 0.0
C1027 C 0.86757 0.02892 0.36735 0.0
C1028 C 0.8635 0.00592 0.38611 0.0
C1029 C 0.86345 0.9869 0.35073 0.0
C1030 C 0.86762 0.9912 0.29684 0.0
C1031 C 0.87171 0.01347 0.27766 0.0
C1032 C 0.87549 0.0133 0.21777 0.0
C1033 C 0.85664 0.02798 0.18935 0.0
C1034 C 0.90028 0.02176 0.20347 0.0
C1035 C 0.87261 0.98743 0.2061 0.0
C1036 C 0.86814 0.97508 0.25244 0.0
C1037 C 0.86418 0.95108 0.25216 0.0
C1038 C 0.86451 0.9394 0.20326 0.0
C1039 C 0.86882 0.95162 0.15502 0.0
C1040 C 0.87325 0.97594 0.15661 0.0
H1041 H 0.05375 0.35365 0.47655 0.0
H1042 H 0.0122 0.38463 0.34985 0.0
H1043 H 0.97964 0.39076 0.41317 0.0
H1044 H 0.00712 0.32299 0.54029 0.0
H1045 H 0.01758 0.3282 0.60694 0.0
H1046 H 0.03801 0.32691 0.55227 0.0
H1047 H 0.05362 0.36807 0.57709 0.0
H1048 H 0.03324 0.36948 0.6319 0.0
H1049 H 0.03341 0.39227 0.58221 0.0
H1050 H 0.95126 0.39213 0.48838 0.0
H1051 H 0.92855 0.38936 0.57127 0.0
H1052 H 0.98838 0.35804 0.65113 0.0
C1053 C 0.03784 0.36181 0.46207 0.0
C1054 C 0.03553 0.36863 0.40807 0.0
C1055 C 0.01441 0.37926 0.39091 0.0
C1056 C 0.99582 0.38283 0.42661 0.0
C1057 C 0.99866 0.37578 0.47939 0.0
C1058 C 0.01913 0.36558 0.49723 0.0
C1059 C 0.01745 0.35933 0.55593 0.0
C1060 C 0.0202 0.33278 0.56433 0.0
C1061 C 0.0355 0.37312 0.58871 0.0
C1062 C 0.99267 0.36736 0.56815 0.0
C1063 C 0.98225 0.37682 0.52331 0.0
C1064 C 0.95926 0.38488 0.5238 0.0
C1065 C 0.94649 0.38314 0.57121 0.0
C1066 C 0.95666 0.37346 0.61783 0.0
C1067 C 0.98018 0.36565 0.6163 0.0
H1068 H 0.35381 0.55503 0.22848 0.0
H1069 H 0.36335 0.50999 0.09071 0.0
H1070 H 0.36576 0.47562 0.15007 0.0
H1071 H 0.39412 0.52386 0.31463 0.0
H1072 H 0.37666 0.52814 0.37371 0.0
H1073 H 0.37556 0.54931 0.32055 0.0
H1074 H 0.33048 0.54445 0.3153 0.0
H1075 H 0.33146 0.52318 0.36827 0.0
H1076 H 0.31823 0.51569 0.3054 0.0
H1077 H 0.36642 0.44625 0.22317 0.0
H1078 H 0.36744 0.42337 0.30586 0.0
H1079 H 0.35829 0.48706 0.39831 0.0
C1080 C 0.35639 0.53794 0.21073 0.0
C1081 C 0.35825 0.53521 0.15475 0.0
C1082 C 0.36183 0.51255 0.13331 0.0
C1083 C 0.36318 0.49291 0.16674 0.0
C1084 C 0.36108 0.4962 0.22158 0.0
C1085 C 0.35796 0.51813 0.24359 0.0
C1086 C 0.35664 0.51675 0.30401 0.0
C1087 C 0.37696 0.53032 0.32973 0.0
C1088 C 0.33278 0.52554 0.32443 0.0
C1089 C 0.35933 0.49057 0.31248 0.0
C1090 C 0.3618 0.47914 0.26422 0.0
C1091 C 0.36457 0.455 0.26118 0.0
C1092 C 0.3651 0.44216 0.30861 0.0
C1093 C 0.36295 0.45337 0.35883 0.0
C1094 C 0.35986 0.47796 0.36064 0.0
H1095 H 0.49113 0.86884 0.38026 0.0
H1096 H 0.42738 0.84574 0.4585 0.0
H1097 H 0.44727 0.84724 0.5455 0.0
H1098 H 0.52968 0.8347 0.45917 0.0
H1099 H 0.55268 0.85627 0.46146 0.0
H1100 H 0.53288 0.85556 0.40574 0.0
H1101 H 0.52202 0.89906 0.42217 0.0
H1102 H 0.54187 0.89991 0.47791 0.0
H1103 H 0.51156 0.90796 0.48688 0.0
H1104 H 0.47456 0.85 0.62465 0.0
H1105 H 0.50779 0.85207 0.68811 0.0
H1106 H 0.554 0.87157 0.55806 0.0
C1107 C 0.4813 0.86449 0.41583 0.0
C1108 C 0.45766 0.85729 0.41253 0.0
C1109 C 0.44552 0.85127 0.45995 0.0
C1110 C 0.45664 0.85215 0.50969 0.0
C1111 C 0.48003 0.85894 0.51165 0.0
C1112 C 0.49227 0.86493 0.46597 0.0
C1113 C 0.51767 0.87019 0.4788 0.0
C1114 C 0.53419 0.85316 0.44956 0.0
C1115 C 0.52363 0.8958 0.46566 0.0
C1116 C 0.51782 0.86591 0.53847 0.0
C1117 C 0.49589 0.85976 0.55688 0.0
C1118 C 0.49183 0.85484 0.61067 0.0
C1119 C 0.51077 0.85607 0.64648 0.0
C1120 C 0.5335 0.86182 0.62814 0.0
C1121 C 0.53687 0.86695 0.57342 0.0
H1122 H 0.15352 0.94985 0.71197 0.0
H1123 H 0.12645 0.99334 0.58404 0.0
H1124 H 0.12361 0.02673 0.64639 0.0
H1125 H 0.11706 0.97449 0.81729 0.0
H1126 H 0.13984 0.97258 0.86676 0.0
H1127 H 0.13908 0.95191 0.81257 0.0
H1128 H 0.18163 0.96311 0.78706 0.0
H1129 H 0.18249 0.98387 0.84099 0.0
H1130 H 0.18866 0.99334 0.77393 0.0
H1131 H 0.12564 0.05567 0.72073 0.0
H1132 H 0.13051 0.07831 0.80304 0.0
H1133 H 0.15543 0.01605 0.88484 0.0
C1134 C 0.14686 0.96635 0.697 0.0
C1135 C 0.14028 0.96899 0.64289 0.0
C1136 C 0.1316 0.99088 0.62517 0.0
C1137 C 0.12994 0.00994 0.66032 0.0
C1138 C 0.13686 0.00678 0.71314 0.0
C1139 C 0.14497 0.9855 0.7316 0.0
C1140 C 0.15145 0.98687 0.79022 0.0
C1141 C 0.13593 0.97049 0.82368 0.0
C1142 C 0.17761 0.98148 0.79851 0.0
C1143 C 0.146 0.01237 0.80175 0.0
C1144 C 0.13764 0.02346 0.75656 0.0
C1145 C 0.13202 0.04714 0.75639 0.0
C1146 C 0.13497 0.05987 0.8035 0.0
C1147 C 0.14338 0.04899 0.85061 0.0
C1148 C 0.14885 0.02483 0.84966 0.0
H1149 H 0.97394 0.67853 0.09549 0.0
H1150 H 0.98258 0.60661 0.1464 0.0
H1151 H 0.00911 0.59927 0.0699 0.0
H1152 H 0.97126 0.66893 0.96172 0.0
H1153 H 0.98798 0.6941 0.94094 0.0
H1154 H 0.97231 0.6947 1.00315 0.0
H1155 H 0.01048 0.70447 0.05414 0.0
H1156 H 0.02622 0.70463 0.99187 0.0
H1157 H 0.03592 0.68608 0.04563 0.0
H1158 H 0.02868 0.59838 0.97864 0.0
H1159 H 0.04665 0.606 0.89021 0.0
H1160 H 0.02808 0.67937 0.90379 0.0
C1161 C 0.98234 0.66158 0.09176 0.0
C1162 C 0.97679 0.64326 0.12722 0.0
C1163 C 0.98729 0.62101 0.1204 0.0
C1164 C 1.00211 0.61664 0.07672 0.0
C1165 C 0.00655 0.63488 0.04107 0.0
C1166 C 0.9976 0.65714 0.04923 0.0
C1167 C 0.00446 0.67355 1.00446 0.0
C1168 C 0.9827 0.68339 0.97591 0.0
C1169 C 0.02021 0.69335 0.02527 0.0
C1170 C 0.01797 0.65692 0.96889 0.0
C1171 C 0.01877 0.63461 0.99024 0.0
C1172 C 0.02866 0.61591 0.96222 0.0
C1173 C 0.03857 0.62031 0.91187 0.0
C1174 C 0.03883 0.64327 0.89068 0.0
C1175 C 0.02833 0.66171 0.91955 0.0
H1176 H 0.06686 0.25631 0.22991 0.0
H1177 H 0.13184 0.29538 0.21771 0.0
H1178 H 0.15115 0.26081 0.17786 0.0
H1179 H 0.09293 0.20054 0.26469 0.0
H1180 H 0.07227 0.18378 0.22617 0.0
H1181 H 0.06363 0.21149 0.25442 0.0
H1182 H 0.05148 0.22635 0.16089 0.0
H1183 H 0.05999 0.19867 0.1324 0.0
H1184 H 0.07246 0.22547 0.10715 0.0
H1185 H 0.16321 0.22225 0.13872 0.0
H1186 H 0.16698 0.18269 0.10006 0.0
H1187 H 0.09413 0.16863 0.13816 0.0
C1188 C 0.08522 0.25757 0.21949 0.0
C1189 C 0.09786 0.2786 0.22708 0.0
C1190 C 0.12174 0.27957 0.21177 0.0
C1191 C 0.1329 0.25997 0.18949 0.0
C1192 C 0.11992 0.23953 0.18277 0.0
C1193 C 0.0966 0.2382 0.19716 0.0
C1194 C 0.08646 0.21432 0.18448 0.0
C1195 C 0.07835 0.20179 0.23548 0.0
C1196 C 0.06642 0.21633 0.14381 0.0
C1197 C 0.10774 0.20244 0.16049 0.0
C1198 C 0.12686 0.21728 0.16007 0.0
C1199 C 0.14837 0.21047 0.13886 0.0
C1200 C 0.15031 0.18802 0.11682 0.0
C1201 C 0.13084 0.17261 0.11602 0.0
C1202 C 0.10938 0.17989 0.13881 0.0
H1203 H 0.82859 0.60009 0.36222 0.0
H1204 H 0.80643 0.62822 0.20973 0.0
H1205 H 0.76504 0.62503 0.238 0.0
H1206 H 0.78193 0.55799 0.37586 0.0
H1207 H 0.77941 0.56203 0.44684 0.0
H1208 H 0.80715 0.56664 0.41425 0.0
H1209 H 0.809 0.60856 0.45365 0.0
H1210 H 0.78116 0.60415 0.486 0.0
H1211 H 0.78518 0.62865 0.44165 0.0
H1212 H 0.72598 0.61876 0.28342 0.0
H1213 H 0.69239 0.60832 0.34078 0.0
H1214 H 0.74045 0.58461 0.46333 0.0
C1215 C 0.81505 0.60528 0.33444 0.0
C1216 C 0.82075 0.6144 0.28375 0.0
C1217 C 0.80248 0.62141 0.24899 0.0
C1218 C 0.77893 0.61961 0.26462 0.0
C1219 C 0.77396 0.61078 0.31512 0.0
C1220 C 0.79151 0.60364 0.34938 0.0
C1221 C 0.78155 0.59473 0.40144 0.0
C1222 C 0.78788 0.56881 0.41008 0.0
C1223 C 0.78971 0.60994 0.44845 0.0
C1224 C 0.75563 0.59785 0.39103 0.0
C1225 C 0.75157 0.60722 0.34116 0.0
C1226 C 0.72895 0.61148 0.32264 0.0
C1227 C 0.70996 0.60566 0.35571 0.0
C1228 C 0.71376 0.59565 0.40666 0.0
C1229 C 0.73696 0.59201 0.42446 0.0
H1230 H 0.40677 0.31478 0.56367 0.0
H1231 H 0.3954 0.35196 0.71245 0.0
H1232 H 0.4052 0.31614 0.76231 0.0
H1233 H 0.37928 0.26293 0.60334 0.0
H1234 H 0.39905 0.24361 0.56845 0.0
H1235 H 0.39437 0.27292 0.54443 0.0
H1236 H 0.43906 0.28069 0.54864 0.0
H1237 H 0.44387 0.25138 0.57304 0.0
H1238 H 0.45452 0.27612 0.61037 0.0
H1239 H 0.41158 0.27573 0.796 0.0
H1240 H 0.41327 0.23298 0.81106 0.0
H1241 H 0.42031 0.22137 0.64146 0.0
C1242 C 0.40648 0.31549 0.60675 0.0
C1243 C 0.40042 0.33637 0.63402 0.0
C1244 C 0.40042 0.33643 0.69048 0.0
C1245 C 0.4059 0.31611 0.71924 0.0
C1246 C 0.41147 0.29582 0.69109 0.0
C1247 C 0.41183 0.29532 0.63611 0.0
C1248 C 0.41653 0.27076 0.61559 0.0
C1249 C 0.39609 0.26205 0.58093 0.0
C1250 C 0.43989 0.26968 0.58511 0.0
C1251 C 0.41799 0.25739 0.66765 0.0
C1252 C 0.41532 0.27229 0.71069 0.0
C1253 C 0.41411 0.26395 0.76273 0.0
C1254 C 0.41505 0.23972 0.77094 0.0
C1255 C 0.41724 0.22411 0.72747 0.0
C1256 C 0.41931 0.23307 0.67531 0.0
H1257 H 0.6776 0.89107 0.89759 0.0
H1258 H 0.70013 0.86153 0.74673 0.0
H1259 H 0.74151 0.86566 0.77442 0.0
H1260 H 0.72198 0.93412 0.90708 0.0
H1261 H 0.72522 0.93143 0.97822 0.0
H1262 H 0.69755 0.92482 0.94745 0.0
H1263 H 0.69819 0.88348 0.9902 0.0
H1264 H 0.72593 0.88995 0.02104 0.0
H1265 H 0.72303 0.86453 0.97901 0.0
H1266 H 0.78065 0.87517 0.81735 0.0
H1267 H 0.81387 0.88957 0.87115 0.0
H1268 H 0.76522 0.91198 0.99407 0.0
C1269 C 0.69122 0.88548 0.87032 0.0
C1270 C 0.68564 0.87597 0.82001 0.0
C1271 C 0.704 0.86862 0.78574 0.0
C1272 C 0.72754 0.87096 0.80104 0.0
C1273 C 0.73242 0.88053 0.85088 0.0
C1274 C 0.71474 0.88759 0.88501 0.0
C1275 C 0.72453 0.8979 0.93577 0.0
C1276 C 0.71687 0.92359 0.94249 0.0
C1277 C 0.7175 0.88307 0.98437 0.0
C1278 C 0.7505 0.89597 0.92449 0.0
C1279 C 0.75478 0.88578 0.87554 0.0
C1280 C 0.7775 0.88296 0.856 0.0
C1281 C 0.7963 0.89107 0.88702 0.0
C1282 C 0.79222 0.90195 0.93695 0.0
C1283 C 0.76898 0.90398 0.95593 0.0
H1284 H 0.91122 0.25476 0.76191 0.0
H1285 H 0.91235 0.30106 0.62492 0.0
H1286 H 0.90386 0.26742 0.56605 0.0
H1287 H 0.93949 0.20617 0.69994 0.0
H1288 H 0.92193 0.18439 0.73321 0.0
H1289 H 0.92725 0.2122 0.76476 0.0
H1290 H 0.88252 0.21904 0.77423 0.0
H1291 H 0.87706 0.19116 0.7431 0.0
H1292 H 0.86415 0.21741 0.716 0.0
H1293 H 0.89737 0.22847 0.52204 0.0
H1294 H 0.89059 0.18748 0.49597 0.0
H1295 H 0.89268 0.16659 0.66227 0.0
C1296 C 0.90967 0.25782 0.71952 0.0
C1297 C 0.91247 0.28053 0.69795 0.0
C1298 C 0.91 0.28388 0.64236 0.0
C1299 C 0.90536 0.26486 0.60862 0.0
C1300 C 0.90309 0.24266 0.6312 0.0
C1301 C 0.90494 0.23909 0.68542 0.0
C1302 C 0.90173 0.2135 0.69965 0.0
C1303 C 0.92393 0.20348 0.72593 0.0
C1304 C 0.88007 0.21009 0.73535 0.0
C1305 C 0.89796 0.20315 0.64483 0.0
C1306 C 0.89889 0.22027 0.60594 0.0
C1307 C 0.89631 0.21497 0.5522 0.0
C1308 C 0.89233 0.19161 0.53787 0.0
C1309 C 0.89075 0.17377 0.57711 0.0
C1310 C 0.89387 0.17972 0.63127 0.0
H1311 H 0.83234 0.41678 0.88158 0.0
H1312 H 0.82701 0.34147 0.8996 0.0
H1313 H 0.78641 0.34591 0.93305 0.0
H1314 H 0.7963 0.43306 0.99805 0.0
H1315 H 0.78308 0.45745 0.96372 0.0
H1316 H 0.81245 0.44837 0.94705 0.0
H1317 H 0.80016 0.44382 0.84823 0.0
H1318 H 0.77076 0.4527 0.86463 0.0
H1319 H 0.77581 0.42511 0.83164 0.0
H1320 H 0.7454 0.3586 0.95893 0.0
H1321 H 0.70757 0.37844 0.97534 0.0
H1322 H 0.73979 0.44513 0.93601 0.0
C1323 C 0.82283 0.40131 0.89401 0.0
C1324 C 0.83282 0.37881 0.88866 0.0
C1325 C 0.81962 0.35887 0.90368 0.0
C1326 C 0.79661 0.36123 0.92277 0.0
C1327 C 0.78704 0.38364 0.9264 0.0
C1328 C 0.79978 0.40333 0.91257 0.0
C1329 C 0.78496 0.42526 0.91652 0.0
C1330 C 0.79478 0.44202 0.95887 0.0
C1331 C 0.7828 0.43742 0.86201 0.0
C1332 C 0.76183 0.41482 0.93402 0.0
C1333 C 0.76338 0.39084 0.93999 0.0
C1334 C 0.74401 0.37741 0.9546 0.0
C1335 C 0.72252 0.38883 0.96342 0.0
C1336 C 0.72049 0.41344 0.95717 0.0
C1337 C 0.74058 0.42642 0.94227 0.0
H1338 H 0.62707 0.23635 0.18143 0.0
H1339 H 0.55156 0.23194 0.19571 0.0
H1340 H 0.54793 0.27233 0.15966 0.0
H1341 H 0.6335 0.29622 0.21816 0.0
H1342 H 0.65645 0.30202 0.17056 0.0
H1343 H 0.65284 0.27297 0.1972 0.0
H1344 H 0.64918 0.25625 0.1016 0.0
H1345 H 0.65295 0.28523 0.07463 0.0
H1346 H 0.62751 0.26824 0.05702 0.0
H1347 H 0.55325 0.31419 0.12664 0.0
H1348 H 0.56651 0.35228 0.09018 0.0
H1349 H 0.63847 0.32789 0.09353 0.0
C1350 C 0.60978 0.24394 0.177 0.0
C1351 C 0.58956 0.23127 0.19171 0.0
C1352 C 0.56719 0.24147 0.18448 0.0
C1353 C 0.56503 0.26437 0.16437 0.0
C1354 C 0.58542 0.27655 0.151 0.0
C1355 C 0.60734 0.2665 0.15628 0.0
C1356 C 0.62651 0.28289 0.13778 0.0
C1357 C 0.64331 0.28888 0.18367 0.0
C1358 C 0.63982 0.27253 0.08991 0.0
C1359 C 0.61204 0.30392 0.12169 0.0
C1360 C 0.58839 0.30006 0.1301 0.0
C1361 C 0.5717 0.3173 0.11956 0.0
C1362 C 0.57938 0.33889 0.09923 0.0
C1363 C 0.60347 0.3429 0.08911 0.0
C1364 C 0.61994 0.32517 0.10064 0.0
H1365 H 0.66669 0.08761 0.38193 0.0
H1366 H 0.68426 0.15008 0.29188 0.0
H1367 H 0.72493 0.14779 0.32421 0.0
H1368 H 0.70383 0.10081 0.4969 0.0
H1369 H 0.71215 0.07067 0.50691 0.0
H1370 H 0.68408 0.07763 0.47814 0.0
H1371 H 0.69398 0.05167 0.39648 0.0
H1372 H 0.72214 0.04478 0.4248 0.0
H1373 H 0.72037 0.0573 0.35902 0.0
H1374 H 0.76404 0.13805 0.36289 0.0
H1375 H 0.7987 0.12247 0.40988 0.0
H1376 H 0.75614 0.06636 0.47502 0.0
C1377 C 0.67904 0.10096 0.3697 0.0
C1378 C 0.67236 0.11889 0.33398 0.0
C1379 C 0.68909 0.13595 0.31852 0.0
C1380 C 0.71222 0.13488 0.33682 0.0
C1381 C 0.71841 0.1167 0.37089 0.0
C1382 C 0.70233 0.10014 0.3876 0.0
C1383 C 0.7138 0.08224 0.42382 0.0
C1384 C 0.70281 0.08289 0.47976 0.0
C1385 C 0.71249 0.05754 0.39956 0.0
C1386 C 0.73878 0.09129 0.42445 0.0
C1387 C 0.74105 0.11116 0.3936 0.0
C1388 C 0.76249 0.12251 0.38734 0.0
C1389 C 0.78214 0.11343 0.41383 0.0
C1390 C 0.78023 0.09322 0.44625 0.0
C1391 C 0.75819 0.08202 0.45121 0.0
H1392 H 0.59576 0.78114 0.66315 0.0
H1393 H 0.56834 0.75553 0.81388 0.0
H1394 H 0.57458 0.71513 0.78438 0.0
H1395 H 0.56844 0.73454 0.58259 0.0
H1396 H 0.5928 0.7329 0.53695 0.0
H1397 H 0.5859 0.76019 0.56946 0.0
H1398 H 0.62836 0.76227 0.60558 0.0
H1399 H 0.63528 0.73482 0.57388 0.0
H1400 H 0.63973 0.73828 0.6445 0.0
H1401 H 0.5869 0.67785 0.74326 0.0
H1402 H 0.59928 0.64493 0.687 0.0
H1403 H 0.61481 0.69346 0.55815 0.0
C1404 C 0.59071 0.76708 0.68964 0.0
C1405 C 0.58207 0.77174 0.74152 0.0
C1406 C 0.57569 0.75265 0.77472 0.0
C1407 C 0.57902 0.72952 0.75822 0.0
C1408 C 0.58831 0.72559 0.70785 0.0
C1409 C 0.59358 0.74371 0.67344 0.0
C1410 C 0.60295 0.73432 0.62097 0.0
C1411 C 0.58654 0.74088 0.57476 0.0
C1412 C 0.62807 0.74294 0.61065 0.0
C1413 C 0.60246 0.70817 0.63196 0.0
C1414 C 0.59413 0.70365 0.68254 0.0
C1415 C 0.59295 0.68106 0.70305 0.0
C1416 C 0.59992 0.66243 0.67051 0.0
C1417 C 0.60759 0.66635 0.61747 0.0
C1418 C 0.60911 0.68969 0.59838 0.0
H1419 H 0.34853 0.10903 0.90435 0.0
H1420 H 0.3403 0.06068 0.77278 0.0
H1421 H 0.30127 0.04923 0.8072 0.0
H1422 H 0.31616 0.07439 1.00638 0.0
H1423 H 0.30314 0.10031 0.03487 0.0
H1424 H 0.33172 0.10184 1.00443 0.0
H1425 H 0.31705 0.13505 0.94239 0.0
H1426 H 0.28844 0.1335 0.97228 0.0
H1427 H 0.29165 0.13014 0.90126 0.0
H1428 H 0.26167 0.04581 0.85178 0.0
H1429 H 0.22482 0.05099 0.90149 0.0
H1430 H 0.25875 0.10333 1.00073 0.0
C1431 C 0.3388 0.09546 0.88392 0.0
C1432 C 0.34745 0.08542 0.83651 0.0
C1433 C 0.33395 0.06836 0.80954 0.0
C1434 C 0.31183 0.06175 0.82881 0.0
C1435 C 0.30345 0.07246 0.87496 0.0
C1436 C 0.31656 0.08892 0.90223 0.0
C1437 C 0.3027 0.09949 0.9477 0.0
C1438 C 0.31411 0.09365 1.00154 0.0
C1439 C 0.29979 0.12611 0.94043 0.0
C1440 C 0.27961 0.08681 0.94104 0.0
C1441 C 0.28044 0.07106 0.89943 0.0
C1442 C 0.26087 0.05801 0.88471 0.0
C1443 C 0.23987 0.06125 0.91311 0.0
C1444 C 0.23843 0.07768 0.95543 0.0
C1445 C 0.25885 0.09038 0.96943 0.0
H1446 H 0.90341 0.81252 0.05999 0.0
H1447 H 0.90476 0.85659 0.20116 0.0
H1448 H 0.91391 0.82218 0.25608 0.0
H1449 H 0.87379 0.76488 0.12271 0.0
H1450 H 0.8894 0.74251 0.08643 0.0
H1451 H 0.88506 0.77094 0.05702 0.0
H1452 H 0.9299 0.77492 0.04318 0.0
H1453 H 0.93439 0.74655 0.07301 0.0
H1454 H 0.94926 0.77183 0.09944 0.0
H1455 H 0.92154 0.78338 0.29656 0.0
H1456 H 0.92432 0.74176 0.32137 0.0
H1457 H 0.91563 0.72198 0.1557 0.0
C1458 C 0.90555 0.815 0.10244 0.0
C1459 C 0.90369 0.8375 0.1259 0.0
C1460 C 0.90674 0.83978 0.18173 0.0
C1461 C 0.91183 0.82028 0.21346 0.0
C1462 C 0.91364 0.7985 0.18903 0.0
C1463 C 0.9104 0.79564 0.13494 0.0
C1464 C 0.91187 0.76999 0.11944 0.0
C1465 C 0.88865 0.76159 0.09497 0.0
C1466 C 0.93259 0.76557 0.08152 0.0
C1467 C 0.91612 0.75892 0.17348 0.0
C1468 C 0.91737 0.77578 0.21284 0.0
C1469 C 0.92057 0.77 0.26614 0.0
C1470 C 0.922 0.7463 0.27986 0.0
C1471 C 0.92002 0.7286 0.24058 0.0
C1472 C 0.91749 0.73508 0.18652 0.0
H1473 H 0.2663 0.378 0.50536 0.0
H1474 H 0.28215 0.44721 0.44494 0.0
H1475 H 0.24226 0.44995 0.40631 0.0
H1476 H 0.2341 0.35945 0.38965 0.0
H1477 H 0.21335 0.34225 0.42708 0.0
H1478 H 0.24257 0.34649 0.45224 0.0
H1479 H 0.22539 0.3631 0.54012 0.0
H1480 H 0.1961 0.35908 0.51502 0.0
H1481 H 0.20538 0.38755 0.53763 0.0
H1482 H 0.20028 0.4454 0.37694 0.0
H1483 H 0.16103 0.43193 0.34808 0.0
H1484 H 0.17377 0.36439 0.42135 0.0
C1485 C 0.2612 0.39372 0.48416 0.0
C1486 C 0.27701 0.41251 0.47826 0.0
C1487 C 0.27014 0.43269 0.44956 0.0
C1488 C 0.24755 0.43442 0.42792 0.0
C1489 C 0.23226 0.41562 0.43468 0.0
C1490 C 0.23893 0.39547 0.46126 0.0
C1491 C 0.21972 0.3772 0.45999 0.0
C1492 C 0.22793 0.35504 0.43047 0.0
C1493 C 0.21114 0.3714 0.51656 0.0
C1494 C 0.20116 0.39023 0.4287 0.0
C1495 C 0.20857 0.41251 0.41529 0.0
C1496 C 0.19432 0.42797 0.38702 0.0
C1497 C 0.17207 0.42026 0.37111 0.0
C1498 C 0.16455 0.39723 0.38279 0.0
C1499 C 0.17921 0.38211 0.41217 0.0
H1500 H 0.44611 0.75447 0.20233 0.0
H1501 H 0.37988 0.7886 0.23776 0.0
H1502 H 0.35873 0.75304 0.20956 0.0
H1503 H 0.42721 0.72466 0.08606 0.0
H1504 H 0.44405 0.69853 0.09891 0.0
H1505 H 0.45402 0.72634 0.1238 0.0
H1506 H 0.45522 0.70943 0.21955 0.0
H1507 H 0.44522 0.68154 0.19494 0.0
H1508 H 0.42926 0.69618 0.24727 0.0
H1509 H 0.34474 0.71428 0.17499 0.0
H1510 H 0.33882 0.67515 0.13544 0.0
H1511 H 0.41415 0.66602 0.12311 0.0
C1512 C 0.42719 0.75438 0.20493 0.0
C1513 C 0.41468 0.77441 0.22228 0.0
C1514 C 0.38986 0.77364 0.22403 0.0
C1515 C 0.37769 0.75344 0.20845 0.0
C1516 C 0.39057 0.7341 0.19131 0.0
C1517 C 0.41476 0.73438 0.18949 0.0
C1518 C 0.42437 0.71148 0.16791 0.0
C1519 C 0.43822 0.7155 0.1161 0.0
C1520 C 0.4394 0.69892 0.20994 0.0
C1521 C 0.40177 0.69835 0.15751 0.0
C1522 C 0.38249 0.7117 0.17146 0.0
C1523 C 0.3597 0.70364 0.1641 0.0
C1524 C 0.35652 0.68144 0.1414 0.0
C1525 C 0.37601 0.66752 0.12623 0.0
C1526 C 0.39892 0.67608 0.13502 0.0
H1527 H 0.25113 0.90841 0.50161 0.0
H1528 H 0.2082 0.91797 0.36104 0.0
H1529 H 0.24199 0.90721 0.30398 0.0
H1530 H 0.30408 0.93145 0.44924 0.0
H1531 H 0.32284 0.91037 0.4815 0.0
H1532 H 0.29515 0.91815 0.51116 0.0
H1533 H 0.28288 0.87447 0.51227 0.0
H1534 H 0.31061 0.86653 0.48292 0.0
H1535 H 0.28366 0.85784 0.45126 0.0
H1536 H 0.28132 0.89861 0.26268 0.0
H1537 H 0.32216 0.88959 0.23948 0.0
H1538 H 0.33875 0.88212 0.40767 0.0
C1539 C 0.24889 0.90812 0.4588 0.0
C1540 C 0.22714 0.91405 0.43555 0.0
C1541 C 0.22469 0.91328 0.3795 0.0
C1542 C 0.24379 0.90732 0.34688 0.0
C1543 C 0.26509 0.9018 0.37108 0.0
C1544 C 0.26765 0.90181 0.42579 0.0
C1545 C 0.29235 0.89502 0.44178 0.0
C1546 C 0.3043 0.91494 0.47274 0.0
C1547 C 0.29236 0.8721 0.47395 0.0
C1548 C 0.30343 0.89164 0.38746 0.0
C1549 C 0.28744 0.89575 0.34726 0.0
C1550 C 0.29387 0.89485 0.29382 0.0
C1551 C 0.3172 0.88946 0.28108 0.0
C1552 C 0.33393 0.88464 0.32154 0.0
C1553 C 0.32669 0.88575 0.37549 0.0
H1554 H 0.08749 0.83779 0.61467 0.0
H1555 H 0.16223 0.83033 0.64088 0.0
H1556 H 0.15571 0.79102 0.67956 0.0
H1557 H 0.06793 0.80656 0.73456 0.0
H1558 H 0.04363 0.79294 0.70085 0.0
H1559 H 0.05402 0.8212 0.67935 0.0
H1560 H 0.0598 0.80507 0.58376 0.0
H1561 H 0.04953 0.77678 0.60498 0.0
H1562 H 0.07782 0.77949 0.57358 0.0
H1563 H 0.14121 0.75198 0.71186 0.0
H1564 H 0.12003 0.71569 0.73395 0.0
H1565 H 0.05478 0.74798 0.68342 0.0
C1566 C 0.1024 0.82806 0.62962 0.0
C1567 C 0.12536 0.83714 0.62528 0.0
C1568 C 0.14452 0.82365 0.64392 0.0
C1569 C 0.14097 0.80138 0.66607 0.0
C1570 C 0.11815 0.79279 0.66908 0.0
C1571 C 0.09918 0.80569 0.65135 0.0
C1572 C 0.07663 0.79186 0.65628 0.0
C1573 C 0.05955 0.80386 0.69508 0.0
C1574 C 0.06529 0.78808 0.60138 0.0
C1575 C 0.0859 0.76908 0.67908 0.0
C1576 C 0.10986 0.77006 0.68654 0.0
C1577 C 0.12243 0.75101 0.70617 0.0
C1578 C 0.11023 0.73036 0.71821 0.0
C1579 C 0.08568 0.72876 0.7102 0.0
C1580 C 0.07345 0.74858 0.69069 0.0
H1581 H 0.24848 0.60432 1.00754 0.0
H1582 H 0.29023 0.58194 0.87227 0.0
H1583 H 0.25772 0.59223 0.81175 0.0
H1584 H 0.19379 0.58258 0.96131 0.0
H1585 H 0.17683 0.60687 0.98636 0.0
H1586 H 0.20373 0.59862 0.01883 0.0
H1587 H 0.21957 0.64082 1.00693 0.0
H1588 H 0.19269 0.64922 0.97448 0.0
H1589 H 0.22038 0.65366 0.94134 0.0
H1590 H 0.2199 0.60243 0.76694 0.0
H1591 H 0.17994 0.61317 0.73993 0.0
H1592 H 0.16324 0.63107 0.90396 0.0
C1593 C 0.25074 0.60161 0.96518 0.0
C1594 C 0.27187 0.59236 0.94454 0.0
C1595 C 0.27431 0.58927 0.88883 0.0
C1596 C 0.25591 0.59496 0.85421 0.0
C1597 C 0.23528 0.60393 0.87591 0.0
C1598 C 0.23264 0.60741 0.93004 0.0
C1599 C 0.20858 0.61712 0.9431 0.0
C1600 C 0.19493 0.60029 0.97955 0.0
C1601 C 0.21042 0.64167 0.96792 0.0
C1602 C 0.19796 0.61816 0.88791 0.0
C1603 C 0.21366 0.61048 0.84979 0.0
C1604 C 0.20757 0.60888 0.79629 0.0
C1605 C 0.1848 0.61525 0.7813 0.0
C1606 C 0.16834 0.62337 0.81957 0.0
C1607 C 0.17523 0.62491 0.87358 0.0
loop_
_geom_bond_atom_site_label_1
_geom_bond_atom_site_label_2
_geom_bond_distance
_geom_bond_site_symmetry_2
_ccdc_geom_bond_type
C0 C1 1.351 . S
C0 N3 1.368 . S
C0 H5 0.931 . S
C1 C0 1.351 . S
C1 N2 1.373 1_556 S
C1 H29 0.930 . S
N2 C1 1.373 1_554 S
N2 C4 1.340 . S
N3 C0 1.368 . S
N3 C4 1.321 1_556 S
N3 Co6 2.135 . S
C4 N2 1.340 . S
C4 N3 1.321 1_554 S
C4 H28 0.930 . S
H5 C0 0.931 . S
Co6 N3 2.135 . S
Co6 N9 2.121 . S
Co6 O14 2.055 . S
Co6 O17 2.039 1_556 S
Co6 N20 2.140 1_556 S
C7 O8 1.227 . S
C7 O17 1.265 . S
O8 C7 1.227 . S
N9 Co6 2.121 . S
N9 C11 1.375 1_556 S
N9 C12 1.313 . S
C10 C11 1.338 . S
C10 N13 1.377 1_554 S
C10 H30 0.930 . S
C11 N9 1.375 1_554 S
C11 C10 1.338 . S
C11 H15 0.931 . S
C12 N9 1.313 . S
C12 N13 1.344 . S
C12 H16 0.930 . S
N13 C10 1.377 1_556 S
N13 C12 1.344 . S
O14 Co6 2.055 . S
O14 C18 1.253 . S
H15 C11 0.931 . S
H16 C12 0.930 . S
O17 Co6 2.039 1_554 S
O17 C7 1.265 . S
C18 O14 1.253 . S
C18 O19 1.227 . S
O19 C18 1.227 . S
N20 Co6 2.140 1_554 S
N20 C23 1.346 . S
N20 C24 1.345 1_554 S
C21 C22 1.387 . S
C21 C25 1.391 1_554 S
C22 C21 1.387 . S
C22 C23 1.369 . S
C22 H31 0.929 . S
C23 N20 1.346 . S
C23 C22 1.369 . S
C23 H26 0.928 . S
C24 N20 1.345 1_556 S
C24 C25 1.371 . S
C24 H27 0.931 . S
C25 C21 1.391 1_556 S
C25 C24 1.371 . S
C25 H32 0.930 . S
H26 C23 0.928 . S
H27 C24 0.931 . S
H28 C4 0.930 . S
H29 C1 0.930 . S
H30 C10 0.930 . S
H31 C22 0.929 . S
H32 C25 0.930 . S
C33 C34 1.351 . S
C33 N36 1.368 . S
C33 H38 0.931 . S
C34 C33 1.351 . S
C34 N35 1.373 . S
C34 H62 0.930 . S
N35 C34 1.373 . S
N35 C37 1.340 . S
N36 C33 1.368 . S
N36 C37 1.321 . S
N36 Co39 2.135 . S
C37 N35 1.340 . S
C37 N36 1.321 . S
C37 H61 0.930 . S
H38 C33 0.931 . S
Co39 N36 2.135 . S
Co39 N42 2.121 . S
Co39 O47 2.055 . S
Co39 O50 2.039 . S
Co39 N53 2.140 . S
C40 O41 1.227 . S
C40 O50 1.265 . S
O41 C40 1.227 . S
N42 Co39 2.121 . S
N42 C44 1.375 . S
N42 C45 1.313 . S
C43 C44 1.338 . S
C43 N46 1.377 . S
C43 H63 0.930 . S
C44 N42 1.375 . S
C44 C43 1.338 . S
C44 H48 0.931 . S
C45 N42 1.313 . S
C45 N46 1.344 . S
C45 H49 0.930 . S
N46 C43 1.377 . S
N46 C45 1.344 . S
O47 Co39 2.055 . S
O47 C51 1.253 . S
H48 C44 0.931 . S
H49 C45 0.930 . S
O50 Co39 2.039 . S
O50 C40 1.265 . S
C51 O47 1.253 . S
C51 O52 1.227 . S
O52 C51 1.227 . S
N53 Co39 2.140 . S
N53 C56 1.346 . S
N53 C57 1.345 . S
C54 C55 1.387 . S
C54 C58 1.391 . S
C55 C54 1.387 . S
C55 C56 1.369 . S
C55 H64 0.929 . S
C56 N53 1.346 . S
C56 C55 1.369 . S
C56 H59 0.928 . S
C57 N53 1.345 . S
C57 C58 1.371 . S
C57 H60 0.931 . S
C58 C54 1.391 . S
C58 C57 1.371 . S
C58 H65 0.930 . S
H59 C56 0.928 . S
H60 C57 0.931 . S
H61 C37 0.930 . S
H62 C34 0.930 . S
H63 C43 0.930 . S
H64 C55 0.929 . S
H65 C58 0.930 . S
C66 C67 1.351 . S
C66 N69 1.368 . S
C66 H71 0.931 . S
C67 C66 1.351 . S
C67 N68 1.373 . S
C67 H95 0.930 . S
N68 C67 1.373 . S
N68 C70 1.340 . S
N69 C66 1.368 . S
N69 C70 1.321 . S
N69 Co72 2.135 . S
C70 N68 1.340 . S
C70 N69 1.321 . S
C70 H94 0.930 . S
H71 C66 0.931 . S
Co72 N69 2.135 . S
Co72 N75 2.121 . S
Co72 O80 2.055 . S
Co72 O83 2.039 . S
Co72 N86 2.140 . S
C73 O74 1.227 . S
C73 O83 1.265 . S
O74 C73 1.227 . S
N75 Co72 2.121 . S
N75 C77 1.375 . S
N75 C78 1.313 . S
C76 C77 1.338 . S
C76 N79 1.377 . S
C76 H96 0.930 . S
C77 N75 1.375 . S
C77 C76 1.338 . S
C77 H81 0.931 . S
C78 N75 1.313 . S
C78 N79 1.344 . S
C78 H82 0.930 . S
N79 C76 1.377 . S
N79 C78 1.344 . S
O80 Co72 2.055 . S
O80 C84 1.253 . S
H81 C77 0.931 . S
H82 C78 0.930 . S
O83 Co72 2.039 . S
O83 C73 1.265 . S
C84 O80 1.253 . S
C84 O85 1.227 . S
O85 C84 1.227 . S
N86 Co72 2.140 . S
N86 C89 1.346 . S
N86 C90 1.345 . S
C87 C88 1.387 . S
C87 C91 1.391 . S
C88 C87 1.387 . S
C88 C89 1.369 . S
C88 H97 0.929 . S
C89 N86 1.346 . S
C89 C88 1.369 . S
C89 H92 0.928 . S
C90 N86 1.345 . S
C90 C91 1.371 . S
C90 H93 0.931 . S
C91 C87 1.391 . S
C91 C90 1.371 . S
C91 H98 0.930 . S
H92 C89 0.928 . S
H93 C90 0.931 . S
H94 C70 0.930 . S
H95 C67 0.930 . S
H96 C76 0.930 . S
H97 C88 0.929 . S
H98 C91 0.930 . S
C99 C100 1.351 . S
C99 N102 1.368 . S
C99 H104 0.931 . S
C100 C99 1.351 . S
C100 N101 1.373 . S
C100 H128 0.930 . S
N101 C100 1.373 . S
N101 C103 1.340 . S
N102 C99 1.368 . S
N102 C103 1.321 . S
N102 Co105 2.135 . S
C103 N101 1.340 . S
C103 N102 1.321 . S
C103 H127 0.930 . S
H104 C99 0.931 . S
Co105 N102 2.135 . S
Co105 N108 2.121 . S
Co105 O113 2.055 . S
Co105 O116 2.039 . S
Co105 N119 2.140 . S
C106 O107 1.227 . S
C106 O116 1.265 . S
O107 C106 1.227 . S
N108 Co105 2.121 . S
N108 C110 1.375 . S
N108 C111 1.313 . S
C109 C110 1.338 . S
C109 N112 1.377 . S
C109 H129 0.930 . S
C110 N108 1.375 . S
C110 C109 1.338 . S
C110 H114 0.931 . S
C111 N108 1.313 . S
C111 N112 1.344 . S
C111 H115 0.930 . S
N112 C109 1.377 . S
N112 C111 1.344 . S
O113 Co105 2.055 . S
O113 C117 1.253 . S
H114 C110 0.931 . S
H115 C111 0.930 . S
O116 Co105 2.039 . S
O116 C106 1.265 . S
C117 O113 1.253 . S
C117 O118 1.227 . S
O118 C117 1.227 . S
N119 Co105 2.140 . S
N119 C122 1.346 . S
N119 C123 1.345 . S
C120 C121 1.387 . S
C120 C124 1.391 . S
C121 C120 1.387 . S
C121 C122 1.369 . S
C121 H130 0.929 . S
C122 N119 1.346 . S
C122 C121 1.369 . S
C122 H125 0.928 . S
C123 N119 1.345 . S
C123 C124 1.371 . S
C123 H126 0.931 . S
C124 C120 1.391 . S
C124 C123 1.371 . S
C124 H131 0.930 . S
H125 C122 0.928 . S
H126 C123 0.931 . S
H127 C103 0.930 . S
H128 C100 0.930 . S
H129 C109 0.930 . S
H130 C121 0.929 . S
H131 C124 0.930 . S
C132 C133 1.351 . S
C132 N135 1.368 . S
C132 H137 0.931 . S
C133 C132 1.351 . S
C133 N134 1.373 . S
C133 H161 0.930 . S
N134 C133 1.373 . S
N134 C136 1.340 . S
N135 C132 1.368 . S
N135 C136 1.321 . S
N135 Co138 2.135 . S
C136 N134 1.340 . S
C136 N135 1.321 . S
C136 H160 0.930 . S
H137 C132 0.931 . S
Co138 N135 2.135 . S
Co138 N141 2.121 . S
Co138 O146 2.055 . S
Co138 O149 2.039 . S
Co138 N152 2.140 . S
C139 O140 1.227 . S
C139 O149 1.265 . S
O140 C139 1.227 . S
N141 Co138 2.121 . S
N141 C143 1.375 . S
N141 C144 1.313 . S
C142 C143 1.338 . S
C142 N145 1.377 . S
C142 H162 0.930 . S
C143 N141 1.375 . S
C143 C142 1.338 . S
C143 H147 0.931 . S
C144 N141 1.313 . S
C144 N145 1.344 . S
C144 H148 0.930 . S
N145 C142 1.377 . S
N145 C144 1.344 . S
O146 Co138 2.055 . S
O146 C150 1.253 . S
H147 C143 0.931 . S
H148 C144 0.930 . S
O149 Co138 2.039 . S
O149 C139 1.265 . S
C150 O146 1.253 . S
C150 O151 1.227 . S
O151 C150 1.227 . S
N152 Co138 2.140 . S
N152 C155 1.346 . S
N152 C156 1.345 . S
C153 C154 1.387 . S
C153 C157 1.391 . S
C154 C153 1.387 . S
C154 C155 1.369 . S
C154 H163 0.929 . S
C155 N152 1.346 . S
C155 C154 1.369 . S
C155 H158 0.928 . S
C156 N152 1.345 . S
C156 C157 1.371 . S
C156 H159 0.931 . S
C157 C153 1.391 . S
C157 C156 1.371 . S
C157 H164 0.930 . S
H158 C155 0.928 . S
H159 C156 0.931 . S
H160 C136 0.930 . S
H161 C133 0.930 . S
H162 C142 0.930 . S
H163 C154 0.929 . S
H164 C157 0.930 . S
C165 C166 1.351 . S
C165 N168 1.368 . S
C165 H170 0.931 . S
C166 C165 1.351 . S
C166 N167 1.373 . S
C166 H194 0.930 . S
N167 C166 1.373 . S
N167 C169 1.340 . S
N168 C165 1.368 . S
N168 C169 1.321 . S
N168 Co171 2.135 . S
C169 N167 1.340 . S
C169 N168 1.321 . S
C169 H193 0.930 . S
H170 C165 0.931 . S
Co171 N168 2.135 . S
Co171 N174 2.121 . S
Co171 O179 2.055 . S
Co171 O182 2.039 . S
Co171 N185 2.140 . S
C172 O173 1.227 . S
C172 O182 1.265 . S
O173 C172 1.227 . S
N174 Co171 2.121 . S
N174 C176 1.375 . S
N174 C177 1.313 . S
C175 C176 1.338 . S
C175 N178 1.377 . S
C175 H195 0.930 . S
C176 N174 1.375 . S
C176 C175 1.338 . S
C176 H180 0.931 . S
C177 N174 1.313 . S
C177 N178 1.344 . S
C177 H181 0.930 . S
N178 C175 1.377 . S
N178 C177 1.344 . S
O179 Co171 2.055 . S
O179 C183 1.253 . S
H180 C176 0.931 . S
H181 C177 0.930 . S
O182 Co171 2.039 . S
O182 C172 1.265 . S
C183 O179 1.253 . S
C183 O184 1.227 . S
O184 C183 1.227 . S
N185 Co171 2.140 . S
N185 C188 1.346 . S
N185 C189 1.345 . S
C186 C187 1.387 . S
C186 C190 1.391 . S
C187 C186 1.387 . S
C187 C188 1.369 . S
C187 H196 0.929 . S
C188 N185 1.346 . S
C188 C187 1.369 . S
C188 H191 0.928 . S
C189 N185 1.345 . S
C189 C190 1.371 . S
C189 H192 0.931 . S
C190 C186 1.391 . S
C190 C189 1.371 . S
C190 H197 0.930 . S
H191 C188 0.928 . S
H192 C189 0.931 . S
H193 C169 0.930 . S
H194 C166 0.930 . S
H195 C175 0.930 . S
H196 C187 0.929 . S
H197 C190 0.930 . S
C198 C199 1.351 . S
C198 N201 1.368 . S
C198 H203 0.931 . S
C199 C198 1.351 . S
C199 N200 1.373 1_556 S
C199 H227 0.930 . S
N200 C199 1.373 1_554 S
N200 C202 1.340 . S
N201 C198 1.368 . S
N201 C202 1.321 1_556 S
N201 Co204 2.135 . S
C202 N200 1.340 . S
C202 N201 1.321 1_554 S
C202 H226 0.930 . S
H203 C198 0.931 . S
Co204 N201 2.135 . S
Co204 N207 2.121 . S
Co204 O212 2.055 . S
Co204 O215 2.039 1_556 S
Co204 N218 2.140 1_556 S
C205 O206 1.227 . S
C205 O215 1.265 . S
O206 C205 1.227 . S
N207 Co204 2.121 . S
N207 C209 1.375 1_556 S
N207 C210 1.313 . S
C208 C209 1.338 . S
C208 N211 1.377 1_554 S
C208 H228 0.930 . S
C209 N207 1.375 1_554 S
C209 C208 1.338 . S
C209 H213 0.931 . S
C210 N207 1.313 . S
C210 N211 1.344 . S
C210 H214 0.930 . S
N211 C208 1.377 1_556 S
N211 C210 1.344 . S
O212 Co204 2.055 . S
O212 C216 1.253 . S
H213 C209 0.931 . S
H214 C210 0.930 . S
O215 Co204 2.039 1_554 S
O215 C205 1.265 . S
C216 O212 1.253 . S
C216 O217 1.227 . S
O217 C216 1.227 . S
N218 Co204 2.140 1_554 S
N218 C221 1.346 . S
N218 C222 1.345 1_554 S
C219 C220 1.387 . S
C219 C223 1.391 1_554 S
C220 C219 1.387 . S
C220 C221 1.369 . S
C220 H229 0.929 . S
C221 N218 1.346 . S
C221 C220 1.369 . S
C221 H224 0.928 . S
C222 N218 1.345 1_556 S
C222 C223 1.371 . S
C222 H225 0.931 . S
C223 C219 1.391 1_556 S
C223 C222 1.371 . S
C223 H230 0.930 . S
H224 C221 0.928 . S
H225 C222 0.931 . S
H226 C202 0.930 . S
H227 C199 0.930 . S
H228 C208 0.930 . S
H229 C220 0.929 . S
H230 C223 0.930 . S
C231 C232 1.351 . S
C231 N234 1.368 . S
C231 H236 0.931 . S
C232 C231 1.351 . S
C232 N233 1.373 . S
C232 H260 0.930 . S
N233 C232 1.373 . S
N233 C235 1.340 . S
N234 C231 1.368 . S
N234 C235 1.321 . S
N234 Co237 2.135 . S
C235 N233 1.340 . S
C235 N234 1.321 . S
C235 H259 0.930 . S
H236 C231 0.931 . S
Co237 N234 2.135 . S
Co237 N240 2.121 . S
Co237 O245 2.055 . S
Co237 O248 2.039 . S
Co237 N251 2.140 . S
C238 O239 1.227 . S
C238 O248 1.265 . S
O239 C238 1.227 . S
N240 Co237 2.121 . S
N240 C242 1.375 . S
N240 C243 1.313 . S
C241 C242 1.338 . S
C241 N244 1.377 . S
C241 H261 0.930 . S
C242 N240 1.375 . S
C242 C241 1.338 . S
C242 H246 0.931 . S
C243 N240 1.313 . S
C243 N244 1.344 . S
C243 H247 0.930 . S
N244 C241 1.377 . S
N244 C243 1.344 . S
O245 Co237 2.055 . S
O245 C249 1.253 . S
H246 C242 0.931 . S
H247 C243 0.930 . S
O248 Co237 2.039 . S
O248 C238 1.265 . S
C249 O245 1.253 . S
C249 O250 1.227 . S
O250 C249 1.227 . S
N251 Co237 2.140 . S
N251 C254 1.346 . S
N251 C255 1.345 . S
C252 C253 1.387 . S
C252 C256 1.391 . S
C253 C252 1.387 . S
C253 C254 1.369 . S
C253 H262 0.929 . S
C254 N251 1.346 . S
C254 C253 1.369 . S
C254 H257 0.928 . S
C255 N251 1.345 . S
C255 C256 1.371 . S
C255 H258 0.931 . S
C256 C252 1.391 . S
C256 C255 1.371 . S
C256 H263 0.930 . S
H257 C254 0.928 . S
H258 C255 0.931 . S
H259 C235 0.930 . S
H260 C232 0.930 . S
H261 C241 0.930 . S
H262 C253 0.929 . S
H263 C256 0.930 . S
C264 C265 1.351 . S
C264 N267 1.368 . S
C264 H269 0.931 . S
C265 C264 1.351 . S
C265 N266 1.373 . S
C265 H293 0.930 . S
N266 C265 1.373 . S
N266 C268 1.340 . S
N267 C264 1.368 . S
N267 C268 1.321 . S
N267 Co270 2.135 . S
C268 N266 1.340 . S
C268 N267 1.321 . S
C268 H292 0.930 . S
H269 C264 0.931 . S
Co270 N267 2.135 . S
Co270 N273 2.121 . S
Co270 O278 2.055 . S
Co270 O281 2.039 . S
Co270 N284 2.140 . S
C271 O272 1.227 . S
C271 O281 1.265 . S
O272 C271 1.227 . S
N273 Co270 2.121 . S
N273 C275 1.375 . S
N273 C276 1.313 . S
C274 C275 1.338 . S
C274 N277 1.377 . S
C274 H294 0.930 . S
C275 N273 1.375 . S
C275 C274 1.338 . S
C275 H279 0.931 . S
C276 N273 1.313 . S
C276 N277 1.344 . S
C276 H280 0.930 . S
N277 C274 1.377 . S
N277 C276 1.344 . S
O278 Co270 2.055 . S
O278 C282 1.253 . S
H279 C275 0.931 . S
H280 C276 0.930 . S
O281 Co270 2.039 . S
O281 C271 1.265 . S
C282 O278 1.253 . S
C282 O283 1.227 . S
O283 C282 1.227 . S
N284 Co270 2.140 . S
N284 C287 1.346 . S
N284 C288 1.345 . S
C285 C286 1.387 . S
C285 C289 1.391 . S
C286 C285 1.387 . S
C286 C287 1.369 . S
C286 H295 0.929 . S
C287 N284 1.346 . S
C287 C286 1.369 . S
C287 H290 0.928 . S
C288 N284 1.345 . S
C288 C289 1.371 . S
C288 H291 0.931 . S
C289 C285 1.391 . S
C289 C288 1.371 . S
C289 H296 0.930 . S
H290 C287 0.928 . S
H291 C288 0.931 . S
H292 C268 0.930 . S
H293 C265 0.930 . S
H294 C274 0.930 . S
H295 C286 0.929 . S
H296 C289 0.930 . S
C297 C298 1.351 . S
C297 N300 1.368 . S
C297 H302 0.931 . S
C298 C297 1.351 . S
C298 N299 1.373 . S
C298 H326 0.930 . S
N299 C298 1.373 . S
N299 C301 1.340 . S
N300 C297 1.368 . S
N300 C301 1.321 . S
N300 Co303 2.135 . S
C301 N299 1.340 . S
C301 N300 1.321 . S
C301 H325 0.930 . S
H302 C297 0.931 . S
Co303 N300 2.135 . S
Co303 N306 2.121 . S
Co303 O311 2.055 . S
Co303 O314 2.039 . S
Co303 N317 2.140 . S
C304 O305 1.227 . S
C304 O314 1.265 . S
O305 C304 1.227 . S
N306 Co303 2.121 . S
N306 C308 1.375 . S
N306 C309 1.313 . S
C307 C308 1.338 . S
C307 N310 1.377 . S
C307 H327 0.930 . S
C308 N306 1.375 . S
C308 C307 1.338 . S
C308 H312 0.931 . S
C309 N306 1.313 . S
C309 N310 1.344 . S
C309 H313 0.930 . S
N310 C307 1.377 . S
N310 C309 1.344 . S
O311 Co303 2.055 . S
O311 C315 1.253 . S
H312 C308 0.931 . S
H313 C309 0.930 . S
O314 Co303 2.039 . S
O314 C304 1.265 . S
C315 O311 1.253 . S
C315 O316 1.227 . S
O316 C315 1.227 . S
N317 Co303 2.140 . S
N317 C320 1.346 . S
N317 C321 1.345 . S
C318 C319 1.387 . S
C318 C322 1.391 . S
C319 C318 1.387 . S
C319 C320 1.369 . S
C319 H328 0.929 . S
C320 N317 1.346 . S
C320 C319 1.369 . S
C320 H323 0.928 . S
C321 N317 1.345 . S
C321 C322 1.371 . S
C321 H324 0.931 . S
C322 C318 1.391 . S
C322 C321 1.371 . S
C322 H329 0.930 . S
H323 C320 0.928 . S
H324 C321 0.931 . S
H325 C301 0.930 . S
H326 C298 0.930 . S
H327 C307 0.930 . S
H328 C319 0.929 . S
H329 C322 0.930 . S
C330 C331 1.351 . S
C330 N333 1.368 . S
C330 H335 0.931 . S
C331 C330 1.351 . S
C331 N332 1.373 1_556 S
C331 H359 0.930 . S
N332 C331 1.373 1_554 S
N332 C334 1.340 . S
N333 C330 1.368 . S
N333 C334 1.321 1_556 S
N333 Co336 2.135 . S
C334 N332 1.340 . S
C334 N333 1.321 1_554 S
C334 H358 0.930 . S
H335 C330 0.931 . S
Co336 N333 2.135 . S
Co336 N339 2.121 . S
Co336 O344 2.055 . S
Co336 O347 2.039 1_556 S
Co336 N350 2.140 1_556 S
C337 O338 1.227 . S
C337 O347 1.265 . S
O338 C337 1.227 . S
N339 Co336 2.121 . S
N339 C341 1.375 1_556 S
N339 C342 1.313 . S
C340 C341 1.338 . S
C340 N343 1.377 1_554 S
C340 H360 0.930 . S
C341 N339 1.375 1_554 S
C341 C340 1.338 . S
C341 H345 0.931 . S
C342 N339 1.313 . S
C342 N343 1.344 . S
C342 H346 0.930 . S
N343 C340 1.377 1_556 S
N343 C342 1.344 . S
O344 Co336 2.055 . S
O344 C348 1.253 . S
H345 C341 0.931 . S
H346 C342 0.930 . S
O347 Co336 2.039 1_554 S
O347 C337 1.265 . S
C348 O344 1.253 . S
C348 O349 1.227 . S
O349 C348 1.227 . S
N350 Co336 2.140 1_554 S
N350 C353 1.346 . S
N350 C354 1.345 1_554 S
C351 C352 1.387 . S
C351 C355 1.391 1_554 S
C352 C351 1.387 . S
C352 C353 1.369 . S
C352 H361 0.929 . S
C353 N350 1.346 . S
C353 C352 1.369 . S
C353 H356 0.928 . S
C354 N350 1.345 1_556 S
C354 C355 1.371 . S
C354 H357 0.931 . S
C355 C351 1.391 1_556 S
C355 C354 1.371 . S
C355 H362 0.930 . S
H356 C353 0.928 . S
H357 C354 0.931 . S
H358 C334 0.930 . S
H359 C331 0.930 . S
H360 C340 0.930 . S
H361 C352 0.929 . S
H362 C355 0.930 . S
C363 C364 1.351 . S
C363 N366 1.368 . S
C363 H368 0.931 . S
C364 C363 1.351 . S
C364 N365 1.373 . S
C364 H392 0.930 . S
N365 C364 1.373 . S
N365 C367 1.340 . S
N366 C363 1.368 . S
N366 C367 1.321 . S
N366 Co369 2.135 . S
C367 N365 1.340 . S
C367 N366 1.321 . S
C367 H391 0.930 . S
H368 C363 0.931 . S
Co369 N366 2.135 . S
Co369 N372 2.121 . S
Co369 O377 2.055 . S
Co369 O380 2.039 . S
Co369 N383 2.140 . S
C370 O371 1.227 . S
C370 O380 1.265 . S
O371 C370 1.227 . S
N372 Co369 2.121 . S
N372 C374 1.375 . S
N372 C375 1.313 . S
C373 C374 1.338 . S
C373 N376 1.377 . S
C373 H393 0.930 . S
C374 N372 1.375 . S
C374 C373 1.338 . S
C374 H378 0.931 . S
C375 N372 1.313 . S
C375 N376 1.344 . S
C375 H379 0.930 . S
N376 C373 1.377 . S
N376 C375 1.344 . S
O377 Co369 2.055 . S
O377 C381 1.253 . S
H378 C374 0.931 . S
H379 C375 0.930 . S
O380 Co369 2.039 . S
O380 C370 1.265 . S
C381 O377 1.253 . S
C381 O382 1.227 . S
O382 C381 1.227 . S
N383 Co369 2.140 . S
N383 C386 1.346 . S
N383 C387 1.345 . S
C384 C385 1.387 . S
C384 C388 1.391 . S
C385 C384 1.387 . S
C385 C386 1.369 . S
C385 H394 0.929 . S
C386 N383 1.346 . S
C386 C385 1.369 . S
C386 H389 0.928 . S
C387 N383 1.345 . S
C387 C388 1.371 . S
C387 H390 0.931 . S
C388 C384 1.391 . S
C388 C387 1.371 . S
C388 H395 0.930 . S
H389 C386 0.928 . S
H390 C387 0.931 . S
H391 C367 0.930 . S
H392 C364 0.930 . S
H393 C373 0.930 . S
H394 C385 0.929 . S
H395 C388 0.930 . S
C396 C397 1.351 . S
C396 N399 1.368 . S
C396 H401 0.931 . S
C397 C396 1.351 . S
C397 N398 1.373 1_556 S
C397 H425 0.930 . S
N398 C397 1.373 1_554 S
N398 C400 1.340 . S
N399 C396 1.368 . S
N399 C400 1.321 1_556 S
N399 Co402 2.135 . S
C400 N398 1.340 . S
C400 N399 1.321 1_554 S
C400 H424 0.930 . S
H401 C396 0.931 . S
Co402 N399 2.135 . S
Co402 N405 2.121 . S
Co402 O410 2.055 . S
Co402 O413 2.039 1_556 S
Co402 N416 2.140 1_556 S
C403 O404 1.227 . S
C403 O413 1.265 . S
O404 C403 1.227 . S
N405 Co402 2.121 . S
N405 C407 1.375 1_556 S
N405 C408 1.313 . S
C406 C407 1.338 . S
C406 N409 1.377 1_554 S
C406 H426 0.930 . S
C407 N405 1.375 1_554 S
C407 C406 1.338 . S
C407 H411 0.931 . S
C408 N405 1.313 . S
C408 N409 1.344 . S
C408 H412 0.930 . S
N409 C406 1.377 1_556 S
N409 C408 1.344 . S
O410 Co402 2.055 . S
O410 C414 1.253 . S
H411 C407 0.931 . S
H412 C408 0.930 . S
O413 Co402 2.039 1_554 S
O413 C403 1.265 . S
C414 O410 1.253 . S
C414 O415 1.227 . S
O415 C414 1.227 . S
N416 Co402 2.140 1_554 S
N416 C419 1.346 . S
N416 C420 1.345 1_554 S
C417 C418 1.387 . S
C417 C421 1.391 1_554 S
C418 C417 1.387 . S
C418 C419 1.369 . S
C418 H427 0.929 . S
C419 N416 1.346 . S
C419 C418 1.369 . S
C419 H422 0.928 . S
C420 N416 1.345 1_556 S
C420 C421 1.371 . S
C420 H423 0.931 . S
C421 C417 1.391 1_556 S
C421 C420 1.371 . S
C421 H428 0.930 . S
H422 C419 0.928 . S
H423 C420 0.931 . S
H424 C400 0.930 . S
H425 C397 0.930 . S
H426 C406 0.930 . S
H427 C418 0.929 . S
H428 C421 0.930 . S
C429 C430 1.351 . S
C429 N432 1.368 . S
C429 H434 0.931 . S
C430 C429 1.351 . S
C430 N431 1.373 . S
C430 H458 0.930 . S
N431 C430 1.373 . S
N431 C433 1.340 . S
N432 C429 1.368 . S
N432 C433 1.321 . S
N432 Co435 2.135 . S
C433 N431 1.340 . S
C433 N432 1.321 . S
C433 H457 0.930 . S
H434 C429 0.931 . S
Co435 N432 2.135 . S
Co435 N438 2.121 . S
Co435 O443 2.055 . S
Co435 O446 2.039 . S
Co435 N449 2.140 . S
C436 O437 1.227 . S
C436 O446 1.265 . S
O437 C436 1.227 . S
N438 Co435 2.121 . S
N438 C440 1.375 . S
N438 C441 1.313 . S
C439 C440 1.338 . S
C439 N442 1.377 . S
C439 H459 0.930 . S
C440 N438 1.375 . S
C440 C439 1.338 . S
C440 H444 0.931 . S
C441 N438 1.313 . S
C441 N442 1.344 . S
C441 H445 0.930 . S
N442 C439 1.377 . S
N442 C441 1.344 . S
O443 Co435 2.055 . S
O443 C447 1.253 . S
H444 C440 0.931 . S
H445 C441 0.930 . S
O446 Co435 2.039 . S
O446 C436 1.265 . S
C447 O443 1.253 . S
C447 O448 1.227 . S
O448 C447 1.227 . S
N449 Co435 2.140 . S
N449 C452 1.346 . S
N449 C453 1.345 . S
C450 C451 1.387 . S
C450 C454 1.391 . S
C451 C450 1.387 . S
C451 C452 1.369 . S
C451 H460 0.929 . S
C452 N449 1.346 . S
C452 C451 1.369 . S
C452 H455 0.928 . S
C453 N449 1.345 . S
C453 C454 1.371 . S
C453 H456 0.931 . S
C454 C450 1.391 . S
C454 C453 1.371 . S
C454 H461 0.930 . S
H455 C452 0.928 . S
H456 C453 0.931 . S
H457 C433 0.930 . S
H458 C430 0.930 . S
H459 C439 0.930 . S
H460 C451 0.929 . S
H461 C454 0.930 . S
C462 C463 1.351 . S
C462 N465 1.368 . S
C462 H467 0.931 . S
C463 C462 1.351 . S
C463 N464 1.373 . S
C463 H491 0.930 . S
N464 C463 1.373 . S
N464 C466 1.340 . S
N465 C462 1.368 . S
N465 C466 1.321 . S
N465 Co468 2.135 . S
C466 N464 1.340 . S
C466 N465 1.321 . S
C466 H490 0.930 . S
H467 C462 0.931 . S
Co468 N465 2.135 . S
Co468 N471 2.121 . S
Co468 O476 2.055 . S
Co468 O479 2.039 . S
Co468 N482 2.140 . S
C469 O470 1.227 . S
C469 O479 1.265 . S
O470 C469 1.227 . S
N471 Co468 2.121 . S
N471 C473 1.375 . S
N471 C474 1.313 . S
C472 C473 1.338 . S
C472 N475 1.377 . S
C472 H492 0.930 . S
C473 N471 1.375 . S
C473 C472 1.338 . S
C473 H477 0.931 . S
C474 N471 1.313 . S
C474 N475 1.344 . S
C474 H478 0.930 . S
N475 C472 1.377 . S
N475 C474 1.344 . S
O476 Co468 2.055 . S
O476 C480 1.253 . S
H477 C473 0.931 . S
H478 C474 0.930 . S
O479 Co468 2.039 . S
O479 C469 1.265 . S
C480 O476 1.253 . S
C480 O481 1.227 . S
O481 C480 1.227 . S
N482 Co468 2.140 . S
N482 C485 1.346 . S
N482 C486 1.345 . S
C483 C484 1.387 . S
C483 C487 1.391 . S
C484 C483 1.387 . S
C484 C485 1.369 . S
C484 H493 0.929 . S
C485 N482 1.346 . S
C485 C484 1.369 . S
C485 H488 0.928 . S
C486 N482 1.345 . S
C486 C487 1.371 . S
C486 H489 0.931 . S
C487 C483 1.391 . S
C487 C486 1.371 . S
C487 H494 0.930 . S
H488 C485 0.928 . S
H489 C486 0.931 . S
H490 C466 0.930 . S
H491 C463 0.930 . S
H492 C472 0.930 . S
H493 C484 0.929 . S
H494 C487 0.930 . S
C495 C496 1.351 . S
C495 N498 1.368 . S
C495 H500 0.931 . S
C496 C495 1.351 . S
C496 N497 1.373 . S
C496 H524 0.930 . S
N497 C496 1.373 . S
N497 C499 1.340 . S
N498 C495 1.368 . S
N498 C499 1.321 . S
N498 Co501 2.135 . S
C499 N497 1.340 . S
C499 N498 1.321 . S
C499 H523 0.930 . S
H500 C495 0.931 . S
Co501 N498 2.135 . S
Co501 N504 2.121 . S
Co501 O509 2.055 . S
Co501 O512 2.039 . S
Co501 N515 2.140 . S
C502 O503 1.227 . S
C502 O512 1.265 . S
O503 C502 1.227 . S
N504 Co501 2.121 . S
N504 C506 1.375 . S
N504 C507 1.313 . S
C505 C506 1.338 . S
C505 N508 1.377 . S
C505 H525 0.930 . S
C506 N504 1.375 . S
C506 C505 1.338 . S
C506 H510 0.931 . S
C507 N504 1.313 . S
C507 N508 1.344 . S
C507 H511 0.930 . S
N508 C505 1.377 . S
N508 C507 1.344 . S
O509 Co501 2.055 . S
O509 C513 1.253 . S
H510 C506 0.931 . S
H511 C507 0.930 . S
O512 Co501 2.039 . S
O512 C502 1.265 . S
C513 O509 1.253 . S
C513 O514 1.227 . S
O514 C513 1.227 . S
N515 Co501 2.140 . S
N515 C518 1.346 . S
N515 C519 1.345 . S
C516 C517 1.387 . S
C516 C520 1.391 . S
C517 C516 1.387 . S
C517 C518 1.369 . S
C517 H526 0.929 . S
C518 N515 1.346 . S
C518 C517 1.369 . S
C518 H521 0.928 . S
C519 N515 1.345 . S
C519 C520 1.371 . S
C519 H522 0.931 . S
C520 C516 1.391 . S
C520 C519 1.371 . S
C520 H527 0.930 . S
H521 C518 0.928 . S
H522 C519 0.931 . S
H523 C499 0.930 . S
H524 C496 0.930 . S
H525 C505 0.930 . S
H526 C517 0.929 . S
H527 C520 0.930 . S
H528 C540 0.930 . S
H529 C542 0.930 . S
H530 C543 0.922 1_545 S
H531 C547 0.959 . S
H532 C547 0.959 . S
H533 C547 0.958 . S
H534 C548 0.960 . S
H535 C548 0.961 1_455 S
H536 C548 0.959 . S
H537 C551 0.929 . S
H538 C552 0.931 . S
H539 C554 0.930 . S
C540 H528 0.930 . S
C540 C541 1.399 1_556 S
C540 C545 1.399 1_556 S
C541 C540 1.399 1_554 S
C541 C542 1.376 . S
C542 H529 0.930 . S
C542 C541 1.376 . S
C542 C543 1.397 . S
C543 H530 0.922 1_565 S
C543 C542 1.397 . S
C543 C544 1.389 1_565 S
C544 C543 1.389 1_545 S
C544 C545 1.383 1_545 S
C544 C550 1.475 1_655 S
C545 C540 1.399 1_554 S
C545 C544 1.383 1_565 S
C545 C546 1.516 1_654 S
C546 C545 1.516 1_456 S
C546 C547 1.502 . S
C546 C548 1.561 1_465 S
C546 C549 1.526 1_566 S
C547 H531 0.959 . S
C547 H532 0.959 . S
C547 H533 0.958 . S
C547 C546 1.502 . S
C548 H534 0.960 . S
C548 H535 0.961 1_655 S
C548 H536 0.959 . S
C548 C546 1.561 1_645 S
C549 C546 1.526 1_544 S
C549 C550 1.396 . S
C549 C554 1.390 1_554 S
C550 C544 1.475 1_455 S
C550 C549 1.396 . S
C550 C551 1.399 . S
C551 H537 0.929 . S
C551 C550 1.399 . S
C551 C552 1.385 . S
C552 H538 0.931 . S
C552 C551 1.385 . S
C552 C553 1.389 . S
C553 C552 1.389 . S
C553 C554 1.387 1_554 S
C554 H539 0.930 . S
C554 C549 1.390 1_556 S
C554 C553 1.387 1_556 S
H555 C567 0.930 . S
H556 C569 0.930 . S
H557 C570 0.930 . S
H558 C574 0.959 . S
H559 C574 0.959 . S
H560 C574 0.961 . S
H561 C575 0.960 1_655 S
H562 C575 0.961 . S
H563 C575 0.959 . S
H564 C578 0.929 . S
H565 C579 0.931 . S
H566 C581 0.930 . S
C567 H555 0.930 . S
C567 C568 1.399 . S
C567 C572 1.399 . S
C568 C567 1.399 . S
C568 C569 1.376 . S
C569 H556 0.930 . S
C569 C568 1.376 . S
C569 C570 1.388 1_655 S
C570 H557 0.930 . S
C570 C569 1.388 1_455 S
C570 C571 1.390 . S
C571 C570 1.390 . S
C571 C572 1.394 1_455 S
C571 C577 1.465 . S
C572 C567 1.399 . S
C572 C571 1.394 1_655 S
C572 C573 1.516 . S
C573 C572 1.516 . S
C573 C574 1.502 . S
C573 C575 1.561 1_655 S
C573 C576 1.526 1_655 S
C574 H558 0.959 . S
C574 H559 0.959 . S
C574 H560 0.961 . S
C574 C573 1.502 . S
C575 H561 0.960 1_455 S
C575 H562 0.961 . S
C575 H563 0.959 . S
C575 C573 1.561 1_455 S
C576 C573 1.526 1_455 S
C576 C577 1.396 . S
C576 C581 1.390 . S
C577 C571 1.465 . S
C577 C576 1.396 . S
C577 C578 1.399 . S
C578 H564 0.929 . S
C578 C577 1.399 . S
C578 C579 1.385 . S
C579 H565 0.931 . S
C579 C578 1.385 . S
C579 C580 1.389 . S
C580 C579 1.389 . S
C580 C581 1.387 . S
C581 H566 0.930 . S
C581 C576 1.390 . S
C581 C580 1.387 . S
H582 C594 0.930 . S
H583 C596 0.930 . S
H584 C597 0.930 . S
H585 C601 0.959 . S
H586 C601 0.959 . S
H587 C601 0.961 . S
H588 C602 0.960 . S
H589 C602 0.961 . S
H590 C602 0.959 . S
H591 C605 0.929 . S
H592 C606 0.931 . S
H593 C608 0.930 . S
C594 H582 0.930 . S
C594 C595 1.399 . S
C594 C599 1.399 . S
C595 C594 1.399 . S
C595 C596 1.376 . S
C596 H583 0.930 . S
C596 C595 1.376 . S
C596 C597 1.388 . S
C597 H584 0.930 . S
C597 C596 1.388 . S
C597 C598 1.390 . S
C598 C597 1.390 . S
C598 C599 1.394 . S
C598 C604 1.465 . S
C599 C594 1.399 . S
C599 C598 1.394 . S
C599 C600 1.516 . S
C600 C599 1.516 . S
C600 C601 1.502 . S
C600 C602 1.561 . S
C600 C603 1.526 . S
C601 H585 0.959 . S
C601 H586 0.959 . S
C601 H587 0.961 . S
C601 C600 1.502 . S
C602 H588 0.960 . S
C602 H589 0.961 . S
C602 H590 0.959 . S
C602 C600 1.561 . S
C603 C600 1.526 . S
C603 C604 1.396 . S
C603 C608 1.390 . S
C604 C598 1.465 . S
C604 C603 1.396 . S
C604 C605 1.399 . S
C605 H591 0.929 . S
C605 C604 1.399 . S
C605 C606 1.385 . S
C606 H592 0.931 . S
C606 C605 1.385 . S
C606 C607 1.389 . S
C607 C606 1.389 . S
C607 C608 1.387 . S
C608 H593 0.930 . S
C608 C603 1.390 . S
C608 C607 1.387 . S
H609 C621 0.930 . S
H610 C623 0.930 . S
H611 C624 0.930 . S
H612 C628 0.959 . S
H613 C628 0.959 . S
H614 C628 0.961 . S
H615 C629 0.960 . S
H616 C629 0.961 1_545 S
H617 C629 0.959 1_545 S
H618 C632 0.929 . S
H619 C633 0.931 . S
H620 C635 0.930 . S
C621 H609 0.930 . S
C621 C622 1.399 . S
C621 C626 1.399 . S
C622 C621 1.399 . S
C622 C623 1.376 . S
C623 H610 0.930 . S
C623 C622 1.376 . S
C623 C624 1.388 . S
C624 H611 0.930 . S
C624 C623 1.388 . S
C624 C625 1.390 . S
C625 C624 1.390 . S
C625 C626 1.394 . S
C625 C631 1.465 1_565 S
C626 C621 1.399 . S
C626 C625 1.394 . S
C626 C627 1.516 . S
C627 C626 1.516 . S
C627 C628 1.502 . S
C627 C629 1.561 . S
C627 C630 1.526 1_565 S
C628 H612 0.959 . S
C628 H613 0.959 . S
C628 H614 0.961 . S
C628 C627 1.502 . S
C629 H615 0.960 . S
C629 H616 0.961 1_565 S
C629 H617 0.959 1_565 S
C629 C627 1.561 . S
C630 C627 1.526 1_545 S
C630 C631 1.396 . S
C630 C635 1.390 . S
C631 C625 1.465 1_545 S
C631 C630 1.396 . S
C631 C632 1.399 . S
C632 H618 0.929 . S
C632 C631 1.399 . S
C632 C633 1.385 . S
C633 H619 0.931 . S
C633 C632 1.385 . S
C633 C634 1.389 . S
C634 C633 1.389 . S
C634 C635 1.387 . S
C635 H620 0.930 . S
C635 C630 1.390 . S
C635 C634 1.387 . S
H636 C648 0.930 . S
H637 C650 0.930 . S
H638 C651 0.930 . S
H639 C655 1.024 . S
H640 C655 0.965 1_545 S
H641 C655 0.929 1_455 S
H642 C656 0.960 . S
H643 C656 0.961 . S
H644 C656 0.959 . S
H645 C659 0.917 1_565 S
H646 C660 0.931 . S
H647 C662 0.930 . S
C648 H636 0.930 . S
C648 C649 1.399 . S
C648 C653 1.399 . S
C649 C648 1.399 . S
C649 C650 1.376 . S
C650 H637 0.930 . S
C650 C649 1.376 . S
C650 C651 1.388 . S
C651 H638 0.930 . S
C651 C650 1.388 . S
C651 C652 1.390 . S
C652 C651 1.390 . S
C652 C653 1.394 . S
C652 C658 1.465 1_465 S
C653 C648 1.399 . S
C653 C652 1.394 . S
C653 C654 1.516 1_565 S
C654 C653 1.516 1_545 S
C654 C655 1.472 1_445 S
C654 C656 1.561 . S
C654 C657 1.526 1_455 S
C655 H639 1.024 . S
C655 H640 0.965 1_565 S
C655 H641 0.929 1_655 S
C655 C654 1.472 1_665 S
C656 H642 0.960 . S
C656 H643 0.961 . S
C656 H644 0.959 . S
C656 C654 1.561 . S
C657 C654 1.526 1_655 S
C657 C658 1.396 . S
C657 C662 1.390 . S
C658 C652 1.465 1_645 S
C658 C657 1.396 . S
C658 C659 1.399 . S
C659 H645 0.917 1_545 S
C659 C658 1.399 . S
C659 C660 1.385 . S
C660 H646 0.931 . S
C660 C659 1.385 . S
C660 C661 1.389 . S
C661 C660 1.389 . S
C661 C662 1.387 . S
C662 H647 0.930 . S
C662 C657 1.390 . S
C662 C661 1.387 . S
H663 C675 0.930 . S
H664 C677 0.930 . S
H665 C678 0.939 . S
H666 C682 0.959 . S
H667 C682 0.959 . S
H668 C682 0.961 . S
H669 C683 0.960 . S
H670 C683 0.961 . S
H671 C683 0.959 . S
H672 C686 0.929 . S
H673 C687 0.931 . S
H674 C689 0.930 . S
C675 H663 0.930 . S
C675 C676 1.399 . S
C675 C680 1.399 . S
C676 C675 1.399 . S
C676 C677 1.376 . S
C677 H664 0.930 . S
C677 C676 1.376 . S
C677 C678 1.379 1_655 S
C678 H665 0.939 . S
C678 C677 1.379 1_455 S
C678 C679 1.390 . S
C679 C678 1.390 . S
C679 C680 1.374 1_455 S
C679 C685 1.483 . S
C680 C675 1.399 . S
C680 C679 1.374 1_655 S
C680 C681 1.516 . S
C681 C680 1.516 . S
C681 C682 1.502 . S
C681 C683 1.561 1_655 S
C681 C684 1.526 1_655 S
C682 H666 0.959 . S
C682 H667 0.959 . S
C682 H668 0.961 . S
C682 C681 1.502 . S
C683 H669 0.960 . S
C683 H670 0.961 . S
C683 H671 0.959 . S
C683 C681 1.561 1_455 S
C684 C681 1.526 1_455 S
C684 C685 1.396 . S
C684 C689 1.390 . S
C685 C679 1.483 . S
C685 C684 1.396 . S
C685 C686 1.399 . S
C686 H672 0.929 . S
C686 C685 1.399 . S
C686 C687 1.385 . S
C687 H673 0.931 . S
C687 C686 1.385 . S
C687 C688 1.389 . S
C688 C687 1.389 . S
C688 C689 1.387 . S
C689 H674 0.930 . S
C689 C684 1.390 . S
C689 C688 1.387 . S
H690 C702 0.930 . S
H691 C704 0.930 . S
H692 C705 0.930 . S
H693 C709 0.959 . S
H694 C709 0.959 . S
H695 C709 0.961 . S
H696 C710 0.960 . S
H697 C710 0.961 . S
H698 C710 0.959 . S
H699 C713 0.929 . S
H700 C714 0.931 . S
H701 C716 0.930 . S
C702 H690 0.930 . S
C702 C703 1.399 1_556 S
C702 C707 1.399 1_556 S
C703 C702 1.399 1_554 S
C703 C704 1.376 . S
C704 H691 0.930 . S
C704 C703 1.376 . S
C704 C705 1.388 . S
C705 H692 0.930 . S
C705 C704 1.388 . S
C705 C706 1.390 . S
C706 C705 1.390 . S
C706 C707 1.394 . S
C706 C712 1.465 . S
C707 C702 1.399 1_554 S
C707 C706 1.394 . S
C707 C708 1.516 1_554 S
C708 C707 1.516 1_556 S
C708 C709 1.502 . S
C708 C710 1.561 . S
C708 C711 1.526 1_556 S
C709 H693 0.959 . S
C709 H694 0.959 . S
C709 H695 0.961 . S
C709 C708 1.502 . S
C710 H696 0.960 . S
C710 H697 0.961 . S
C710 H698 0.959 . S
C710 C708 1.561 . S
C711 C708 1.526 1_554 S
C711 C712 1.396 . S
C711 C716 1.390 1_554 S
C712 C706 1.465 . S
C712 C711 1.396 . S
C712 C713 1.399 . S
C713 H699 0.929 . S
C713 C712 1.399 . S
C713 C714 1.385 . S
C714 H700 0.931 . S
C714 C713 1.385 . S
C714 C715 1.389 . S
C715 C714 1.389 . S
C715 C716 1.387 1_554 S
C716 H701 0.930 . S
C716 C711 1.390 1_556 S
C716 C715 1.387 1_556 S
H717 C729 0.930 . S
H718 C731 0.930 . S
H719 C732 0.930 . S
H720 C736 0.959 . S
H721 C736 0.991 . S
H722 C736 0.961 . S
H723 C737 0.960 1_565 S
H724 C737 0.961 . S
H725 C737 0.959 . S
H726 C740 0.929 . S
H727 C741 0.931 . S
H728 C743 0.930 . S
C729 H717 0.930 . S
C729 C730 1.399 . S
C729 C734 1.399 . S
C730 C729 1.399 . S
C730 C731 1.376 . S
C731 H718 0.930 . S
C731 C730 1.376 . S
C731 C732 1.388 . S
C732 H719 0.930 . S
C732 C731 1.388 . S
C732 C733 1.390 . S
C733 C732 1.390 . S
C733 C734 1.394 . S
C733 C739 1.465 1_565 S
C734 C729 1.399 . S
C734 C733 1.394 . S
C734 C735 1.516 . S
C735 C734 1.516 . S
C735 C736 1.502 . S
C735 C737 1.561 1_565 S
C735 C738 1.526 1_565 S
C736 H720 0.959 . S
C736 H721 0.991 . S
C736 H722 0.961 . S
C736 C735 1.502 . S
C737 H723 0.960 1_545 S
C737 H724 0.961 . S
C737 H725 0.959 . S
C737 C735 1.561 1_545 S
C738 C735 1.526 1_545 S
C738 C739 1.396 . S
C738 C743 1.390 . S
C739 C733 1.465 1_545 S
C739 C738 1.396 . S
C739 C740 1.399 . S
C740 H726 0.929 . S
C740 C739 1.399 . S
C740 C741 1.385 . S
C741 H727 0.931 . S
C741 C740 1.385 . S
C741 C742 1.389 . S
C742 C741 1.389 . S
C742 C743 1.387 . S
C743 H728 0.930 . S
C743 C738 1.390 . S
C743 C742 1.387 . S
H744 C756 0.930 . S
H745 C758 0.930 . S
H746 C759 0.930 . S
H747 C763 0.959 . S
H748 C763 0.959 . S
H749 C763 0.961 . S
H750 C764 0.960 . S
H751 C764 0.961 . S
H752 C764 0.959 . S
H753 C767 0.929 . S
H754 C768 0.940 . S
H755 C770 0.930 . S
C756 H744 0.930 . S
C756 C757 1.399 . S
C756 C761 1.399 . S
C757 C756 1.399 . S
C757 C758 1.376 . S
C758 H745 0.930 . S
C758 C757 1.376 . S
C758 C759 1.388 . S
C759 H746 0.930 . S
C759 C758 1.388 . S
C759 C760 1.390 . S
C760 C759 1.390 . S
C760 C761 1.394 . S
C760 C766 1.465 . S
C761 C756 1.399 . S
C761 C760 1.394 . S
C761 C762 1.516 1_565 S
C762 C761 1.516 1_545 S
C762 C763 1.502 . S
C762 C764 1.561 . S
C762 C765 1.526 . S
C763 H747 0.959 . S
C763 H748 0.959 . S
C763 H749 0.961 . S
C763 C762 1.502 . S
C764 H750 0.960 . S
C764 H751 0.961 . S
C764 H752 0.959 . S
C764 C762 1.561 . S
C765 C762 1.526 . S
C765 C766 1.396 1_545 S
C765 C770 1.390 . S
C766 C760 1.465 . S
C766 C765 1.396 1_565 S
C766 C767 1.399 . S
C767 H753 0.929 . S
C767 C766 1.399 . S
C767 C768 1.406 . S
C768 H754 0.940 . S
C768 C767 1.406 . S
C768 C769 1.361 1_565 S
C769 C768 1.361 1_545 S
C769 C770 1.387 . S
C770 H755 0.930 . S
C770 C765 1.390 . S
C770 C769 1.387 . S
H771 C783 0.930 . S
H772 C785 0.930 . S
H773 C786 0.930 . S
H774 C790 0.959 . S
H775 C790 0.959 . S
H776 C790 0.961 . S
H777 C791 0.960 1_455 S
H778 C791 0.961 . S
H779 C791 0.959 . S
H780 C794 0.929 . S
H781 C795 0.931 . S
H782 C797 0.930 . S
C783 H771 0.930 . S
C783 C784 1.399 . S
C783 C788 1.399 . S
C784 C783 1.399 . S
C784 C785 1.376 . S
C785 H772 0.930 . S
C785 C784 1.376 . S
C785 C786 1.388 . S
C786 H773 0.930 . S
C786 C785 1.388 . S
C786 C787 1.390 . S
C787 C786 1.390 . S
C787 C788 1.394 . S
C787 C793 1.465 1_455 S
C788 C783 1.399 . S
C788 C787 1.394 . S
C788 C789 1.516 . S
C789 C788 1.516 . S
C789 C790 1.502 . S
C789 C791 1.561 1_455 S
C789 C792 1.526 1_455 S
C790 H774 0.959 . S
C790 H775 0.959 . S
C790 H776 0.961 . S
C790 C789 1.502 . S
C791 H777 0.960 1_655 S
C791 H778 0.961 . S
C791 H779 0.959 . S
C791 C789 1.561 1_655 S
C792 C789 1.526 1_655 S
C792 C793 1.396 . S
C792 C797 1.390 . S
C793 C787 1.465 1_655 S
C793 C792 1.396 . S
C793 C794 1.399 . S
C794 H780 0.929 . S
C794 C793 1.399 . S
C794 C795 1.385 . S
C795 H781 0.931 . S
C795 C794 1.385 . S
C795 C796 1.389 . S
C796 C795 1.389 . S
C796 C797 1.387 . S
C797 H782 0.930 . S
C797 C792 1.390 . S
C797 C796 1.387 . S
H798 C810 0.930 . S
H799 C812 0.930 . S
H800 C813 0.930 . S
H801 C817 0.959 . S
H802 C817 0.959 . S
H803 C817 0.961 . S
H804 C818 0.960 . S
H805 C818 0.961 . S
H806 C818 0.959 . S
H807 C821 0.929 . S
H808 C822 0.931 . S
H809 C824 0.930 . S
C810 H798 0.930 . S
C810 C811 1.399 . S
C810 C815 1.399 . S
C811 C810 1.399 . S
C811 C812 1.376 . S
C812 H799 0.930 . S
C812 C811 1.376 . S
C812 C813 1.388 . S
C813 H800 0.930 . S
C813 C812 1.388 . S
C813 C814 1.390 . S
C814 C813 1.390 . S
C814 C815 1.394 . S
C814 C820 1.465 . S
C815 C810 1.399 . S
C815 C814 1.394 . S
C815 C816 1.516 . S
C816 C815 1.516 . S
C816 C817 1.502 . S
C816 C818 1.561 . S
C816 C819 1.526 . S
C817 H801 0.959 . S
C817 H802 0.959 . S
C817 H803 0.961 . S
C817 C816 1.502 . S
C818 H804 0.960 . S
C818 H805 0.961 . S
C818 H806 0.959 . S
C818 C816 1.561 . S
C819 C816 1.526 . S
C819 C820 1.396 . S
C819 C824 1.390 . S
C820 C814 1.465 . S
C820 C819 1.396 . S
C820 C821 1.399 . S
C821 H807 0.929 . S
C821 C820 1.399 . S
C821 C822 1.385 . S
C822 H808 0.931 . S
C822 C821 1.385 . S
C822 C823 1.389 . S
C823 C822 1.389 . S
C823 C824 1.387 . S
C824 H809 0.930 . S
C824 C819 1.390 . S
C824 C823 1.387 . S
H825 C837 0.930 . S
H826 C839 0.930 . S
H827 C840 0.930 . S
H828 C844 0.959 . S
H829 C844 0.959 . S
H830 C844 0.961 . S
H831 C845 0.960 1_554 S
H832 C845 0.961 . S
H833 C845 0.959 1_554 S
H834 C848 0.929 . S
H835 C849 0.931 . S
H836 C851 0.930 . S
C837 H825 0.930 . S
C837 C838 1.399 . S
C837 C842 1.399 . S
C838 C837 1.399 . S
C838 C839 1.376 . S
C839 H826 0.930 . S
C839 C838 1.376 . S
C839 C840 1.388 . S
C840 H827 0.930 . S
C840 C839 1.388 . S
C840 C841 1.390 . S
C841 C840 1.390 . S
C841 C842 1.394 . S
C841 C847 1.465 1_554 S
C842 C837 1.399 . S
C842 C841 1.394 . S
C842 C843 1.516 1_554 S
C843 C842 1.516 1_556 S
C843 C844 1.502 . S
C843 C845 1.561 . S
C843 C846 1.526 . S
C844 H828 0.959 . S
C844 H829 0.959 . S
C844 H830 0.961 . S
C844 C843 1.502 . S
C845 H831 0.960 1_556 S
C845 H832 0.961 . S
C845 H833 0.959 1_556 S
C845 C843 1.561 . S
C846 C843 1.526 . S
C846 C847 1.396 . S
C846 C851 1.390 . S
C847 C841 1.465 1_556 S
C847 C846 1.396 . S
C847 C848 1.399 . S
C848 H834 0.929 . S
C848 C847 1.399 . S
C848 C849 1.385 . S
C849 H835 0.931 . S
C849 C848 1.385 . S
C849 C850 1.389 . S
C850 C849 1.389 . S
C850 C851 1.387 . S
C851 H836 0.930 . S
C851 C846 1.390 . S
C851 C850 1.387 . S
H852 C864 0.930 . S
H853 C866 0.930 . S
H854 C867 0.930 1_565 S
H855 C871 0.959 . S
H856 C871 0.959 . S
H857 C871 0.961 1_545 S
H858 C872 0.960 . S
H859 C872 0.961 . S
H860 C872 0.959 . S
H861 C875 0.929 . S
H862 C876 0.931 . S
H863 C878 0.930 . S
C864 H852 0.930 . S
C864 C865 1.399 . S
C864 C869 1.399 . S
C865 C864 1.399 . S
C865 C866 1.376 . S
C866 H853 0.930 . S
C866 C865 1.376 . S
C866 C867 1.388 . S
C867 H854 0.930 1_545 S
C867 C866 1.388 . S
C867 C868 1.390 1_545 S
C868 C867 1.390 1_565 S
C868 C869 1.394 1_565 S
C868 C874 1.465 . S
C869 C864 1.399 . S
C869 C868 1.394 1_545 S
C869 C870 1.516 . S
C870 C869 1.516 . S
C870 C871 1.502 1_545 S
C870 C872 1.561 . S
C870 C873 1.526 1_545 S
C871 H855 0.959 . S
C871 H856 0.959 . S
C871 H857 0.961 1_565 S
C871 C870 1.502 1_565 S
C872 H858 0.960 . S
C872 H859 0.961 . S
C872 H860 0.959 . S
C872 C870 1.561 . S
C873 C870 1.526 1_565 S
C873 C874 1.396 . S
C873 C878 1.390 . S
C874 C868 1.465 . S
C874 C873 1.396 . S
C874 C875 1.399 . S
C875 H861 0.929 . S
C875 C874 1.399 . S
C875 C876 1.385 . S
C876 H862 0.931 . S
C876 C875 1.385 . S
C876 C877 1.389 . S
C877 C876 1.389 . S
C877 C878 1.387 . S
C878 H863 0.930 . S
C878 C873 1.390 . S
C878 C877 1.387 . S
H879 C891 0.930 . S
H880 C893 0.930 . S
H881 C894 0.930 . S
H882 C898 0.959 . S
H883 C898 0.951 1_455 S
H884 C898 0.961 1_556 S
H885 C899 0.960 . S
H886 C899 0.961 . S
H887 C899 0.959 . S
H888 C902 0.929 . S
H889 C903 0.931 . S
H890 C905 0.930 . S
C891 H879 0.930 . S
C891 C892 1.399 . S
C891 C896 1.399 . S
C892 C891 1.399 . S
C892 C893 1.376 . S
C893 H880 0.930 . S
C893 C892 1.376 . S
C893 C894 1.388 . S
C894 H881 0.930 . S
C894 C893 1.388 . S
C894 C895 1.390 1_655 S
C895 C894 1.390 1_455 S
C895 C896 1.394 1_455 S
C895 C901 1.465 1_556 S
C896 C891 1.399 . S
C896 C895 1.394 1_655 S
C896 C897 1.516 1_655 S
C897 C896 1.516 1_455 S
C897 C898 1.502 1_456 S
C897 C899 1.561 . S
C897 C900 1.526 1_556 S
C898 H882 0.959 . S
C898 H883 0.951 1_655 S
C898 H884 0.961 1_554 S
C898 C897 1.502 1_654 S
C899 H885 0.960 . S
C899 H886 0.961 . S
C899 H887 0.959 . S
C899 C897 1.561 . S
C900 C897 1.526 1_554 S
C900 C901 1.396 . S
C900 C905 1.390 . S
C901 C895 1.465 1_554 S
C901 C900 1.396 . S
C901 C902 1.399 . S
C902 H888 0.929 . S
C902 C901 1.399 . S
C902 C903 1.385 . S
C903 H889 0.931 . S
C903 C902 1.385 . S
C903 C904 1.389 . S
C904 C903 1.389 . S
C904 C905 1.387 . S
C905 H890 0.930 . S
C905 C900 1.390 . S
C905 C904 1.387 . S
H906 C918 0.930 . S
H907 C920 0.930 . S
H908 C921 0.930 . S
H909 C925 0.959 . S
H910 C925 0.959 . S
H911 C925 0.961 . S
H912 C926 0.960 . S
H913 C926 0.961 . S
H914 C926 0.959 . S
H915 C929 0.929 . S
H916 C930 0.931 . S
H917 C932 0.930 . S
C918 H906 0.930 . S
C918 C919 1.399 . S
C918 C923 1.399 . S
C919 C918 1.399 . S
C919 C920 1.376 . S
C920 H907 0.930 . S
C920 C919 1.376 . S
C920 C921 1.388 . S
C921 H908 0.930 . S
C921 C920 1.388 . S
C921 C922 1.390 . S
C922 C921 1.390 . S
C922 C923 1.394 . S
C922 C928 1.465 . S
C923 C918 1.399 . S
C923 C922 1.394 . S
C923 C924 1.516 . S
C924 C923 1.516 . S
C924 C925 1.502 . S
C924 C926 1.561 . S
C924 C927 1.526 . S
C925 H909 0.959 . S
C925 H910 0.959 . S
C925 H911 0.961 . S
C925 C924 1.502 . S
C926 H912 0.960 . S
C926 H913 0.961 . S
C926 H914 0.959 . S
C926 C924 1.561 . S
C927 C924 1.526 . S
C927 C928 1.396 . S
C927 C932 1.390 . S
C928 C922 1.465 . S
C928 C927 1.396 . S
C928 C929 1.399 . S
C929 H915 0.929 . S
C929 C928 1.399 . S
C929 C930 1.385 . S
C930 H916 0.931 . S
C930 C929 1.385 . S
C930 C931 1.389 . S
C931 C930 1.389 . S
C931 C932 1.387 . S
C932 H917 0.930 . S
C932 C927 1.390 . S
C932 C931 1.387 . S
H933 C945 0.930 . S
H934 C947 0.930 . S
H935 C948 0.930 . S
H936 C952 0.959 . S
H937 C952 0.959 . S
H938 C952 0.961 . S
H939 C953 0.960 . S
H940 C953 0.961 . S
H941 C953 0.959 . S
H942 C956 0.929 . S
H943 C957 0.931 . S
H944 C959 0.930 . S
C945 H933 0.930 . S
C945 C946 1.399 . S
C945 C950 1.399 . S
C946 C945 1.399 . S
C946 C947 1.376 . S
C947 H934 0.930 . S
C947 C946 1.376 . S
C947 C948 1.388 . S
C948 H935 0.930 . S
C948 C947 1.388 . S
C948 C949 1.390 . S
C949 C948 1.390 . S
C949 C950 1.394 . S
C949 C955 1.465 . S
C950 C945 1.399 . S
C950 C949 1.394 . S
C950 C951 1.516 . S
C951 C950 1.516 . S
C951 C952 1.502 . S
C951 C953 1.561 . S
C951 C954 1.526 . S
C952 H936 0.959 . S
C952 H937 0.959 . S
C952 H938 0.961 . S
C952 C951 1.502 . S
C953 H939 0.960 . S
C953 H940 0.961 . S
C953 H941 0.959 . S
C953 C951 1.561 . S
C954 C951 1.526 . S
C954 C955 1.396 . S
C954 C959 1.390 . S
C955 C949 1.465 . S
C955 C954 1.396 . S
C955 C956 1.399 . S
C956 H942 0.929 . S
C956 C955 1.399 . S
C956 C957 1.385 . S
C957 H943 0.931 . S
C957 C956 1.385 . S
C957 C958 1.389 . S
C958 C957 1.389 . S
C958 C959 1.387 . S
C959 H944 0.930 . S
C959 C954 1.390 . S
C959 C958 1.387 . S
H960 C972 0.930 . S
H961 C974 0.930 . S
H962 C975 0.930 . S
H963 C979 0.959 . S
H964 C979 0.959 . S
H965 C979 0.961 . S
H966 C980 0.960 . S
H967 C980 0.961 . S
H968 C980 0.959 . S
H969 C983 0.929 . S
H970 C984 0.931 . S
H971 C986 0.930 . S
C972 H960 0.930 . S
C972 C973 1.399 . S
C972 C977 1.399 . S
C973 C972 1.399 . S
C973 C974 1.376 . S
C974 H961 0.930 . S
C974 C973 1.376 . S
C974 C975 1.388 . S
C975 H962 0.930 . S
C975 C974 1.388 . S
C975 C976 1.390 . S
C976 C975 1.390 . S
C976 C977 1.394 . S
C976 C982 1.465 . S
C977 C972 1.399 . S
C977 C976 1.394 . S
C977 C978 1.516 . S
C978 C977 1.516 . S
C978 C979 1.502 . S
C978 C980 1.561 . S
C978 C981 1.526 . S
C979 H963 0.959 . S
C979 H964 0.959 . S
C979 H965 0.961 . S
C979 C978 1.502 . S
C980 H966 0.960 . S
C980 H967 0.961 . S
C980 H968 0.959 . S
C980 C978 1.561 . S
C981 C978 1.526 . S
C981 C982 1.396 . S
C981 C986 1.390 . S
C982 C976 1.465 . S
C982 C981 1.396 . S
C982 C983 1.399 . S
C983 H969 0.929 . S
C983 C982 1.399 . S
C983 C984 1.385 . S
C984 H970 0.931 . S
C984 C983 1.385 . S
C984 C985 1.389 . S
C985 C984 1.389 . S
C985 C986 1.387 . S
C986 H971 0.930 . S
C986 C981 1.390 . S
C986 C985 1.387 . S
H987 C999 0.930 . S
H988 C1001 0.930 . S
H989 C1002 0.930 1_556 S
H990 C1006 0.959 1_556 S
H991 C1006 0.957 1_556 S
H992 C1006 0.961 . S
H993 C1007 0.960 . S
H994 C1007 0.961 . S
H995 C1007 0.959 . S
H996 C1010 0.929 . S
H997 C1011 0.931 . S
H998 C1013 0.930 . S
C999 H987 0.930 . S
C999 C1000 1.399 . S
C999 C1004 1.399 . S
C1000 C999 1.399 . S
C1000 C1001 1.376 . S
C1001 H988 0.930 . S
C1001 C1000 1.376 . S
C1001 C1002 1.388 . S
C1002 H989 0.930 1_554 S
C1002 C1001 1.388 . S
C1002 C1003 1.390 . S
C1003 C1002 1.390 . S
C1003 C1004 1.394 . S
C1003 C1009 1.465 1_554 S
C1004 C999 1.399 . S
C1004 C1003 1.394 . S
C1004 C1005 1.516 . S
C1005 C1004 1.516 . S
C1005 C1006 1.502 . S
C1005 C1007 1.561 . S
C1005 C1008 1.526 1_554 S
C1006 H990 0.959 1_554 S
C1006 H991 0.957 1_554 S
C1006 H992 0.961 . S
C1006 C1005 1.502 . S
C1007 H993 0.960 . S
C1007 H994 0.961 . S
C1007 H995 0.959 . S
C1007 C1005 1.561 . S
C1008 C1005 1.526 1_556 S
C1008 C1009 1.396 . S
C1008 C1013 1.390 . S
C1009 C1003 1.465 1_556 S
C1009 C1008 1.396 . S
C1009 C1010 1.399 . S
C1010 H996 0.929 . S
C1010 C1009 1.399 . S
C1010 C1011 1.385 . S
C1011 H997 0.931 . S
C1011 C1010 1.385 . S
C1011 C1012 1.389 . S
C1012 C1011 1.389 . S
C1012 C1013 1.387 . S
C1013 H998 0.930 . S
C1013 C1008 1.390 . S
C1013 C1012 1.387 . S
H1014 C1026 0.930 . S
H1015 C1028 0.930 . S
H1016 C1029 0.930 . S
H1017 C1033 0.959 . S
H1018 C1033 0.959 . S
H1019 C1033 0.961 . S
H1020 C1034 0.960 . S
H1021 C1034 0.961 . S
H1022 C1034 0.959 . S
H1023 C1037 0.929 . S
H1024 C1038 0.931 . S
H1025 C1040 0.930 1_545 S
C1026 H1014 0.930 . S
C1026 C1027 1.399 . S
C1026 C1031 1.399 . S
C1027 C1026 1.399 . S
C1027 C1028 1.376 . S
C1028 H1015 0.930 . S
C1028 C1027 1.376 . S
C1028 C1029 1.388 1_545 S
C1029 H1016 0.930 . S
C1029 C1028 1.388 1_565 S
C1029 C1030 1.390 1_565 S
C1030 C1029 1.390 1_545 S
C1030 C1031 1.394 . S
C1030 C1036 1.465 1_545 S
C1031 C1026 1.399 . S
C1031 C1030 1.394 . S
C1031 C1032 1.516 . S
C1032 C1031 1.516 . S
C1032 C1033 1.502 . S
C1032 C1034 1.561 . S
C1032 C1035 1.526 . S
C1033 H1017 0.959 . S
C1033 H1018 0.959 . S
C1033 H1019 0.961 . S
C1033 C1032 1.502 . S
C1034 H1020 0.960 . S
C1034 H1021 0.961 . S
C1034 H1022 0.959 . S
C1034 C1032 1.561 . S
C1035 C1032 1.526 . S
C1035 C1036 1.396 1_545 S
C1035 C1040 1.390 1_545 S
C1036 C1030 1.465 1_565 S
C1036 C1035 1.396 1_565 S
C1036 C1037 1.399 . S
C1037 H1023 0.929 . S
C1037 C1036 1.399 . S
C1037 C1038 1.385 . S
C1038 H1024 0.931 . S
C1038 C1037 1.385 . S
C1038 C1039 1.389 . S
C1039 C1038 1.389 . S
C1039 C1040 1.387 . S
C1040 H1025 0.930 1_565 S
C1040 C1035 1.390 1_565 S
C1040 C1039 1.387 . S
H1041 C1053 0.930 . S
H1042 C1055 0.930 . S
H1043 C1056 0.930 . S
H1044 C1060 0.959 . S
H1045 C1060 0.959 . S
H1046 C1060 0.961 . S
H1047 C1061 0.960 . S
H1048 C1061 0.961 . S
H1049 C1061 0.959 . S
H1050 C1064 0.929 . S
H1051 C1065 0.931 . S
H1052 C1067 0.930 . S
C1053 H1041 0.930 . S
C1053 C1054 1.399 . S
C1053 C1058 1.399 . S
C1054 C1053 1.399 . S
C1054 C1055 1.376 . S
C1055 H1042 0.930 . S
C1055 C1054 1.376 . S
C1055 C1056 1.388 1_455 S
C1056 H1043 0.930 . S
C1056 C1055 1.388 1_655 S
C1056 C1057 1.390 . S
C1057 C1056 1.390 . S
C1057 C1058 1.394 1_655 S
C1057 C1063 1.465 . S
C1058 C1053 1.399 . S
C1058 C1057 1.394 1_455 S
C1058 C1059 1.510 1_455 S
C1059 C1058 1.510 1_655 S
C1059 C1060 1.483 1_655 S
C1059 C1061 1.575 . S
C1059 C1062 1.539 . S
C1060 H1044 0.959 . S
C1060 H1045 0.959 . S
C1060 H1046 0.961 . S
C1060 C1059 1.483 1_455 S
C1061 H1047 0.960 . S
C1061 H1048 0.961 . S
C1061 H1049 0.959 . S
C1061 C1059 1.575 . S
C1062 C1059 1.539 . S
C1062 C1063 1.396 . S
C1062 C1067 1.390 . S
C1063 C1057 1.465 . S
C1063 C1062 1.396 . S
C1063 C1064 1.399 . S
C1064 H1050 0.929 . S
C1064 C1063 1.399 . S
C1064 C1065 1.385 . S
C1065 H1051 0.931 . S
C1065 C1064 1.385 . S
C1065 C1066 1.389 . S
C1066 C1065 1.389 . S
C1066 C1067 1.387 . S
C1067 H1052 0.930 . S
C1067 C1062 1.390 . S
C1067 C1066 1.387 . S
H1068 C1080 0.930 . S
H1069 C1082 0.930 . S
H1070 C1083 0.930 . S
H1071 C1087 0.959 . S
H1072 C1087 0.959 . S
H1073 C1087 0.961 . S
H1074 C1088 0.960 . S
H1075 C1088 0.961 . S
H1076 C1088 0.959 . S
H1077 C1091 0.929 . S
H1078 C1092 0.931 . S
H1079 C1094 0.930 . S
C1080 H1068 0.930 . S
C1080 C1081 1.399 . S
C1080 C1085 1.399 . S
C1081 C1080 1.399 . S
C1081 C1082 1.376 . S
C1082 H1069 0.930 . S
C1082 C1081 1.376 . S
C1082 C1083 1.388 . S
C1083 H1070 0.930 . S
C1083 C1082 1.388 . S
C1083 C1084 1.390 . S
C1084 C1083 1.390 . S
C1084 C1085 1.394 . S
C1084 C1090 1.465 . S
C1085 C1080 1.399 . S
C1085 C1084 1.394 . S
C1085 C1086 1.516 . S
C1086 C1085 1.516 . S
C1086 C1087 1.502 . S
C1086 C1088 1.561 . S
C1086 C1089 1.526 . S
C1087 H1071 0.959 . S
C1087 H1072 0.959 . S
C1087 H1073 0.961 . S
C1087 C1086 1.502 . S
C1088 H1074 0.960 . S
C1088 H1075 0.961 . S
C1088 H1076 0.959 . S
C1088 C1086 1.561 . S
C1089 C1086 1.526 . S
C1089 C1090 1.396 . S
C1089 C1094 1.390 . S
C1090 C1084 1.465 . S
C1090 C1089 1.396 . S
C1090 C1091 1.399 . S
C1091 H1077 0.929 . S
C1091 C1090 1.399 . S
C1091 C1092 1.385 . S
C1092 H1078 0.931 . S
C1092 C1091 1.385 . S
C1092 C1093 1.389 . S
C1093 C1092 1.389 . S
C1093 C1094 1.387 . S
C1094 H1079 0.930 . S
C1094 C1089 1.390 . S
C1094 C1093 1.387 . S
H1095 C1107 0.930 . S
H1096 C1109 0.930 . S
H1097 C1110 0.930 . S
H1098 C1114 0.959 . S
H1099 C1114 0.959 . S
H1100 C1114 0.961 . S
H1101 C1115 0.960 . S
H1102 C1115 0.961 . S
H1103 C1115 0.959 . S
H1104 C1118 0.929 . S
H1105 C1119 0.931 . S
H1106 C1121 0.930 . S
C1107 H1095 0.930 . S
C1107 C1108 1.399 . S
C1107 C1112 1.399 . S
C1108 C1107 1.399 . S
C1108 C1109 1.376 . S
C1109 H1096 0.930 . S
C1109 C1108 1.376 . S
C1109 C1110 1.388 . S
C1110 H1097 0.930 . S
C1110 C1109 1.388 . S
C1110 C1111 1.390 . S
C1111 C1110 1.390 . S
C1111 C1112 1.394 . S
C1111 C1117 1.465 . S
C1112 C1107 1.399 . S
C1112 C1111 1.394 . S
C1112 C1113 1.516 . S
C1113 C1112 1.516 . S
C1113 C1114 1.502 . S
C1113 C1115 1.561 . S
C1113 C1116 1.526 . S
C1114 H1098 0.959 . S
C1114 H1099 0.959 . S
C1114 H1100 0.961 . S
C1114 C1113 1.502 . S
C1115 H1101 0.960 . S
C1115 H1102 0.961 . S
C1115 H1103 0.959 . S
C1115 C1113 1.561 . S
C1116 C1113 1.526 . S
C1116 C1117 1.396 . S
C1116 C1121 1.390 . S
C1117 C1111 1.465 . S
C1117 C1116 1.396 . S
C1117 C1118 1.399 . S
C1118 H1104 0.929 . S
C1118 C1117 1.399 . S
C1118 C1119 1.385 . S
C1119 H1105 0.931 . S
C1119 C1118 1.385 . S
C1119 C1120 1.389 . S
C1120 C1119 1.389 . S
C1120 C1121 1.387 . S
C1121 H1106 0.930 . S
C1121 C1116 1.390 . S
C1121 C1120 1.387 . S
H1122 C1134 0.930 . S
H1123 C1136 0.935 . S
H1124 C1137 0.930 . S
H1125 C1141 0.959 . S
H1126 C1141 0.959 . S
H1127 C1141 0.961 . S
H1128 C1142 0.960 . S
H1129 C1142 0.961 . S
H1130 C1142 0.959 . S
H1131 C1145 0.929 . S
H1132 C1146 0.931 . S
H1133 C1148 0.930 . S
C1134 H1122 0.930 . S
C1134 C1135 1.399 . S
C1134 C1139 1.399 . S
C1135 C1134 1.399 . S
C1135 C1136 1.376 . S
C1136 H1123 0.935 . S
C1136 C1135 1.376 . S
C1136 C1137 1.388 1_565 S
C1137 H1124 0.930 . S
C1137 C1136 1.388 1_545 S
C1137 C1138 1.390 . S
C1138 C1137 1.390 . S
C1138 C1139 1.394 1_545 S
C1138 C1144 1.465 . S
C1139 C1134 1.399 . S
C1139 C1138 1.394 1_565 S
C1139 C1140 1.516 . S
C1140 C1139 1.516 . S
C1140 C1141 1.502 . S
C1140 C1142 1.561 . S
C1140 C1143 1.526 1_565 S
C1141 H1125 0.959 . S
C1141 H1126 0.959 . S
C1141 H1127 0.961 . S
C1141 C1140 1.502 . S
C1142 H1128 0.960 . S
C1142 H1129 0.961 . S
C1142 H1130 0.959 . S
C1142 C1140 1.561 . S
C1143 C1140 1.526 1_545 S
C1143 C1144 1.396 . S
C1143 C1148 1.390 . S
C1144 C1138 1.465 . S
C1144 C1143 1.396 . S
C1144 C1145 1.399 . S
C1145 H1131 0.929 . S
C1145 C1144 1.399 . S
C1145 C1146 1.385 . S
C1146 H1132 0.931 . S
C1146 C1145 1.385 . S
C1146 C1147 1.389 . S
C1147 C1146 1.389 . S
C1147 C1148 1.387 . S
C1148 H1133 0.930 . S
C1148 C1143 1.390 . S
C1148 C1147 1.387 . S
H1149 C1161 0.930 . S
H1150 C1163 0.930 . S
H1151 C1164 0.930 . S
H1152 C1168 0.959 . S
H1153 C1168 0.959 . S
H1154 C1168 0.961 . S
H1155 C1169 0.960 . S
H1156 C1169 0.961 1_556 S
H1157 C1169 0.959 . S
H1158 C1172 0.929 . S
H1159 C1173 0.931 . S
H1160 C1175 0.930 . S
C1161 H1149 0.930 . S
C1161 C1162 1.399 . S
C1161 C1166 1.399 . S
C1162 C1161 1.399 . S
C1162 C1163 1.376 . S
C1163 H1150 0.930 . S
C1163 C1162 1.376 . S
C1163 C1164 1.388 . S
C1164 H1151 0.930 . S
C1164 C1163 1.388 . S
C1164 C1165 1.390 . S
C1165 C1164 1.390 . S
C1165 C1166 1.394 . S
C1165 C1171 1.465 1_654 S
C1166 C1161 1.399 . S
C1166 C1165 1.394 . S
C1166 C1167 1.516 1_554 S
C1167 C1166 1.516 1_556 S
C1167 C1168 1.502 . S
C1167 C1169 1.561 1_656 S
C1167 C1170 1.526 1_655 S
C1168 H1152 0.959 . S
C1168 H1153 0.959 . S
C1168 H1154 0.961 . S
C1168 C1167 1.502 . S
C1169 H1155 0.960 . S
C1169 H1156 0.961 1_554 S
C1169 H1157 0.959 . S
C1169 C1167 1.561 1_454 S
C1170 C1167 1.526 1_455 S
C1170 C1171 1.396 . S
C1170 C1175 1.390 . S
C1171 C1165 1.465 1_456 S
C1171 C1170 1.396 . S
C1171 C1172 1.399 . S
C1172 H1158 0.929 . S
C1172 C1171 1.399 . S
C1172 C1173 1.385 . S
C1173 H1159 0.931 . S
C1173 C1172 1.385 . S
C1173 C1174 1.389 . S
C1174 C1173 1.389 . S
C1174 C1175 1.387 . S
C1175 H1160 0.930 . S
C1175 C1170 1.390 . S
C1175 C1174 1.387 . S
H1176 C1188 0.930 . S
H1177 C1190 0.930 . S
H1178 C1191 0.930 . S
H1179 C1195 0.959 . S
H1180 C1195 0.959 . S
H1181 C1195 0.961 . S
H1182 C1196 0.960 . S
H1183 C1196 0.961 . S
H1184 C1196 0.959 . S
H1185 C1199 0.929 . S
H1186 C1200 0.931 . S
H1187 C1202 0.930 . S
C1188 H1176 0.930 . S
C1188 C1189 1.399 . S
C1188 C1193 1.399 . S
C1189 C1188 1.399 . S
C1189 C1190 1.376 . S
C1190 H1177 0.930 . S
C1190 C1189 1.376 . S
C1190 C1191 1.388 . S
C1191 H1178 0.930 . S
C1191 C1190 1.388 . S
C1191 C1192 1.390 . S
C1192 C1191 1.390 . S
C1192 C1193 1.394 . S
C1192 C1198 1.465 . S
C1193 C1188 1.399 . S
C1193 C1192 1.394 . S
C1193 C1194 1.516 . S
C1194 C1193 1.516 . S
C1194 C1195 1.502 . S
C1194 C1196 1.561 . S
C1194 C1197 1.526 . S
C1195 H1179 0.959 . S
C1195 H1180 0.959 . S
C1195 H1181 0.961 . S
C1195 C1194 1.502 . S
C1196 H1182 0.960 . S
C1196 H1183 0.961 . S
C1196 H1184 0.959 . S
C1196 C1194 1.561 . S
C1197 C1194 1.526 . S
C1197 C1198 1.396 . S
C1197 C1202 1.390 . S
C1198 C1192 1.465 . S
C1198 C1197 1.396 . S
C1198 C1199 1.399 . S
C1199 H1185 0.929 . S
C1199 C1198 1.399 . S
C1199 C1200 1.385 . S
C1200 H1186 0.931 . S
C1200 C1199 1.385 . S
C1200 C1201 1.389 . S
C1201 C1200 1.389 . S
C1201 C1202 1.387 . S
C1202 H1187 0.930 . S
C1202 C1197 1.390 . S
C1202 C1201 1.387 . S
H1203 C1215 0.930 . S
H1204 C1217 0.930 . S
H1205 C1218 0.930 . S
H1206 C1222 0.959 . S
H1207 C1222 0.959 . S
H1208 C1222 0.961 . S
H1209 C1223 0.960 . S
H1210 C1223 0.961 . S
H1211 C1223 0.959 . S
H1212 C1226 0.929 . S
H1213 C1227 0.931 . S
H1214 C1229 0.930 . S
C1215 H1203 0.930 . S
C1215 C1216 1.399 . S
C1215 C1220 1.399 . S
C1216 C1215 1.399 . S
C1216 C1217 1.376 . S
C1217 H1204 0.930 . S
C1217 C1216 1.376 . S
C1217 C1218 1.388 . S
C1218 H1205 0.930 . S
C1218 C1217 1.388 . S
C1218 C1219 1.390 . S
C1219 C1218 1.390 . S
C1219 C1220 1.394 . S
C1219 C1225 1.465 . S
C1220 C1215 1.399 . S
C1220 C1219 1.394 . S
C1220 C1221 1.516 . S
C1221 C1220 1.516 . S
C1221 C1222 1.502 . S
C1221 C1223 1.561 . S
C1221 C1224 1.526 . S
C1222 H1206 0.959 . S
C1222 H1207 0.959 . S
C1222 H1208 0.961 . S
C1222 C1221 1.502 . S
C1223 H1209 0.960 . S
C1223 H1210 0.961 . S
C1223 H1211 0.959 . S
C1223 C1221 1.561 . S
C1224 C1221 1.526 . S
C1224 C1225 1.396 . S
C1224 C1229 1.390 . S
C1225 C1219 1.465 . S
C1225 C1224 1.396 . S
C1225 C1226 1.399 . S
C1226 H1212 0.929 . S
C1226 C1225 1.399 . S
C1226 C1227 1.385 . S
C1227 H1213 0.931 . S
C1227 C1226 1.385 . S
C1227 C1228 1.389 . S
C1228 C1227 1.389 . S
C1228 C1229 1.387 . S
C1229 H1214 0.930 . S
C1229 C1224 1.390 . S
C1229 C1228 1.387 . S
H1230 C1242 0.930 . S
H1231 C1244 0.930 . S
H1232 C1245 0.930 . S
H1233 C1249 0.959 . S
H1234 C1249 0.959 . S
H1235 C1249 0.961 . S
H1236 C1250 0.960 . S
H1237 C1250 0.961 . S
H1238 C1250 0.959 . S
H1239 C1253 0.929 . S
H1240 C1254 0.931 . S
H1241 C1256 0.930 . S
C1242 H1230 0.930 . S
C1242 C1243 1.399 . S
C1242 C1247 1.399 . S
C1243 C1242 1.399 . S
C1243 C1244 1.376 . S
C1244 H1231 0.930 . S
C1244 C1243 1.376 . S
C1244 C1245 1.388 . S
C1245 H1232 0.930 . S
C1245 C1244 1.388 . S
C1245 C1246 1.390 . S
C1246 C1245 1.390 . S
C1246 C1247 1.394 . S
C1246 C1252 1.465 . S
C1247 C1242 1.399 . S
C1247 C1246 1.394 . S
C1247 C1248 1.516 . S
C1248 C1247 1.516 . S
C1248 C1249 1.502 . S
C1248 C1250 1.561 . S
C1248 C1251 1.526 . S
C1249 H1233 0.959 . S
C1249 H1234 0.959 . S
C1249 H1235 0.961 . S
C1249 C1248 1.502 . S
C1250 H1236 0.960 . S
C1250 H1237 0.961 . S
C1250 H1238 0.959 . S
C1250 C1248 1.561 . S
C1251 C1248 1.526 . S
C1251 C1252 1.396 . S
C1251 C1256 1.390 . S
C1252 C1246 1.465 . S
C1252 C1251 1.396 . S
C1252 C1253 1.399 . S
C1253 H1239 0.929 . S
C1253 C1252 1.399 . S
C1253 C1254 1.385 . S
C1254 H1240 0.931 . S
C1254 C1253 1.385 . S
C1254 C1255 1.389 . S
C1255 C1254 1.389 . S
C1255 C1256 1.387 . S
C1256 H1241 0.930 . S
C1256 C1251 1.390 . S
C1256 C1255 1.387 . S
H1257 C1269 0.930 . S
H1258 C1271 0.930 . S
H1259 C1272 0.930 . S
H1260 C1276 0.959 . S
H1261 C1276 0.959 . S
H1262 C1276 0.961 . S
H1263 C1277 0.960 . S
H1264 C1277 0.961 . S
H1265 C1277 0.959 . S
H1266 C1280 0.929 . S
H1267 C1281 0.931 . S
H1268 C1283 0.930 . S
C1269 H1257 0.930 . S
C1269 C1270 1.399 . S
C1269 C1274 1.399 . S
C1270 C1269 1.399 . S
C1270 C1271 1.376 . S
C1271 H1258 0.930 . S
C1271 C1270 1.376 . S
C1271 C1272 1.388 . S
C1272 H1259 0.930 . S
C1272 C1271 1.388 . S
C1272 C1273 1.390 . S
C1273 C1272 1.390 . S
C1273 C1274 1.394 . S
C1273 C1279 1.465 . S
C1274 C1269 1.399 . S
C1274 C1273 1.394 . S
C1274 C1275 1.516 . S
C1275 C1274 1.516 . S
C1275 C1276 1.502 . S
C1275 C1277 1.561 . S
C1275 C1278 1.526 . S
C1276 H1260 0.959 . S
C1276 H1261 0.959 . S
C1276 H1262 0.961 . S
C1276 C1275 1.502 . S
C1277 H1263 0.960 . S
C1277 H1264 0.961 . S
C1277 H1265 0.959 . S
C1277 C1275 1.561 . S
C1278 C1275 1.526 . S
C1278 C1279 1.396 . S
C1278 C1283 1.390 . S
C1279 C1273 1.465 . S
C1279 C1278 1.396 . S
C1279 C1280 1.399 . S
C1280 H1266 0.929 . S
C1280 C1279 1.399 . S
C1280 C1281 1.385 . S
C1281 H1267 0.931 . S
C1281 C1280 1.385 . S
C1281 C1282 1.389 . S
C1282 C1281 1.389 . S
C1282 C1283 1.387 . S
C1283 H1268 0.930 . S
C1283 C1278 1.390 . S
C1283 C1282 1.387 . S
H1284 C1296 0.930 . S
H1285 C1298 0.930 . S
H1286 C1299 0.930 . S
H1287 C1303 0.959 . S
H1288 C1303 0.959 . S
H1289 C1303 0.961 . S
H1290 C1304 0.960 . S
H1291 C1304 0.961 . S
H1292 C1304 0.959 . S
H1293 C1307 0.929 . S
H1294 C1308 0.931 . S
H1295 C1310 0.930 . S
C1296 H1284 0.930 . S
C1296 C1297 1.399 . S
C1296 C1301 1.399 . S
C1297 C1296 1.399 . S
C1297 C1298 1.376 . S
C1298 H1285 0.930 . S
C1298 C1297 1.376 . S
C1298 C1299 1.388 . S
C1299 H1286 0.930 . S
C1299 C1298 1.388 . S
C1299 C1300 1.390 . S
C1300 C1299 1.390 . S
C1300 C1301 1.394 . S
C1300 C1306 1.465 . S
C1301 C1296 1.399 . S
C1301 C1300 1.394 . S
C1301 C1302 1.516 . S
C1302 C1301 1.516 . S
C1302 C1303 1.502 . S
C1302 C1304 1.561 . S
C1302 C1305 1.526 . S
C1303 H1287 0.959 . S
C1303 H1288 0.959 . S
C1303 H1289 0.961 . S
C1303 C1302 1.502 . S
C1304 H1290 0.960 . S
C1304 H1291 0.961 . S
C1304 H1292 0.959 . S
C1304 C1302 1.561 . S
C1305 C1302 1.526 . S
C1305 C1306 1.396 . S
C1305 C1310 1.390 . S
C1306 C1300 1.465 . S
C1306 C1305 1.396 . S
C1306 C1307 1.399 . S
C1307 H1293 0.929 . S
C1307 C1306 1.399 . S
C1307 C1308 1.385 . S
C1308 H1294 0.931 . S
C1308 C1307 1.385 . S
C1308 C1309 1.389 . S
C1309 C1308 1.389 . S
C1309 C1310 1.387 . S
C1310 H1295 0.930 . S
C1310 C1305 1.390 . S
C1310 C1309 1.387 . S
H1311 C1323 0.930 . S
H1312 C1325 0.930 . S
H1313 C1326 0.930 . S
H1314 C1330 0.959 . S
H1315 C1330 0.959 . S
H1316 C1330 0.961 . S
H1317 C1331 0.960 . S
H1318 C1331 0.961 . S
H1319 C1331 0.959 . S
H1320 C1334 0.929 . S
H1321 C1335 0.931 . S
H1322 C1337 0.930 . S
C1323 H1311 0.930 . S
C1323 C1324 1.399 . S
C1323 C1328 1.399 . S
C1324 C1323 1.399 . S
C1324 C1325 1.376 . S
C1325 H1312 0.930 . S
C1325 C1324 1.376 . S
C1325 C1326 1.388 . S
C1326 H1313 0.930 . S
C1326 C1325 1.388 . S
C1326 C1327 1.390 . S
C1327 C1326 1.390 . S
C1327 C1328 1.394 . S
C1327 C1333 1.465 . S
C1328 C1323 1.399 . S
C1328 C1327 1.394 . S
C1328 C1329 1.516 . S
C1329 C1328 1.516 . S
C1329 C1330 1.502 . S
C1329 C1331 1.561 . S
C1329 C1332 1.526 . S
C1330 H1314 0.959 . S
C1330 H1315 0.959 . S
C1330 H1316 0.961 . S
C1330 C1329 1.502 . S
C1331 H1317 0.960 . S
C1331 H1318 0.961 . S
C1331 H1319 0.959 . S
C1331 C1329 1.561 . S
C1332 C1329 1.526 . S
C1332 C1333 1.396 . S
C1332 C1337 1.390 . S
C1333 C1327 1.465 . S
C1333 C1332 1.396 . S
C1333 C1334 1.399 . S
C1334 H1320 0.929 . S
C1334 C1333 1.399 . S
C1334 C1335 1.385 . S
C1335 H1321 0.931 . S
C1335 C1334 1.385 . S
C1335 C1336 1.389 . S
C1336 C1335 1.389 . S
C1336 C1337 1.387 . S
C1337 H1322 0.930 . S
C1337 C1332 1.390 . S
C1337 C1336 1.387 . S
H1338 C1350 0.930 . S
H1339 C1352 0.930 . S
H1340 C1353 0.930 . S
H1341 C1357 0.959 . S
H1342 C1357 0.959 . S
H1343 C1357 0.961 . S
H1344 C1358 0.960 . S
H1345 C1358 0.961 . S
H1346 C1358 0.959 . S
H1347 C1361 0.929 . S
H1348 C1362 0.931 . S
H1349 C1364 0.930 . S
C1350 H1338 0.930 . S
C1350 C1351 1.399 . S
C1350 C1355 1.399 . S
C1351 C1350 1.399 . S
C1351 C1352 1.376 . S
C1352 H1339 0.930 . S
C1352 C1351 1.376 . S
C1352 C1353 1.388 . S
C1353 H1340 0.930 . S
C1353 C1352 1.388 . S
C1353 C1354 1.390 . S
C1354 C1353 1.390 . S
C1354 C1355 1.394 . S
C1354 C1360 1.465 . S
C1355 C1350 1.399 . S
C1355 C1354 1.394 . S
C1355 C1356 1.516 . S
C1356 C1355 1.516 . S
C1356 C1357 1.502 . S
C1356 C1358 1.561 . S
C1356 C1359 1.526 . S
C1357 H1341 0.959 . S
C1357 H1342 0.959 . S
C1357 H1343 0.961 . S
C1357 C1356 1.502 . S
C1358 H1344 0.960 . S
C1358 H1345 0.961 . S
C1358 H1346 0.959 . S
C1358 C1356 1.561 . S
C1359 C1356 1.526 . S
C1359 C1360 1.396 . S
C1359 C1364 1.390 . S
C1360 C1354 1.465 . S
C1360 C1359 1.396 . S
C1360 C1361 1.399 . S
C1361 H1347 0.929 . S
C1361 C1360 1.399 . S
C1361 C1362 1.385 . S
C1362 H1348 0.931 . S
C1362 C1361 1.385 . S
C1362 C1363 1.389 . S
C1363 C1362 1.389 . S
C1363 C1364 1.387 . S
C1364 H1349 0.930 . S
C1364 C1359 1.390 . S
C1364 C1363 1.387 . S
H1365 C1377 0.930 . S
H1366 C1379 0.930 . S
H1367 C1380 0.930 . S
H1368 C1384 0.959 . S
H1369 C1384 0.959 . S
H1370 C1384 0.961 . S
H1371 C1385 0.960 . S
H1372 C1385 0.961 . S
H1373 C1385 0.959 . S
H1374 C1388 0.929 . S
H1375 C1389 0.931 . S
H1376 C1391 0.930 . S
C1377 H1365 0.930 . S
C1377 C1378 1.399 . S
C1377 C1382 1.399 . S
C1378 C1377 1.399 . S
C1378 C1379 1.376 . S
C1379 H1366 0.930 . S
C1379 C1378 1.376 . S
C1379 C1380 1.388 . S
C1380 H1367 0.930 . S
C1380 C1379 1.388 . S
C1380 C1381 1.390 . S
C1381 C1380 1.390 . S
C1381 C1382 1.394 . S
C1381 C1387 1.465 . S
C1382 C1377 1.399 . S
C1382 C1381 1.394 . S
C1382 C1383 1.516 . S
C1383 C1382 1.516 . S
C1383 C1384 1.502 . S
C1383 C1385 1.561 . S
C1383 C1386 1.526 . S
C1384 H1368 0.959 . S
C1384 H1369 0.959 . S
C1384 H1370 0.961 . S
C1384 C1383 1.502 . S
C1385 H1371 0.960 . S
C1385 H1372 0.961 . S
C1385 H1373 0.959 . S
C1385 C1383 1.561 . S
C1386 C1383 1.526 . S
C1386 C1387 1.396 . S
C1386 C1391 1.390 . S
C1387 C1381 1.465 . S
C1387 C1386 1.396 . S
C1387 C1388 1.399 . S
C1388 H1374 0.929 . S
C1388 C1387 1.399 . S
C1388 C1389 1.385 . S
C1389 H1375 0.931 . S
C1389 C1388 1.385 . S
C1389 C1390 1.389 . S
C1390 C1389 1.389 . S
C1390 C1391 1.387 . S
C1391 H1376 0.930 . S
C1391 C1386 1.390 . S
C1391 C1390 1.387 . S
H1392 C1404 0.930 . S
H1393 C1406 0.930 . S
H1394 C1407 0.930 . S
H1395 C1411 0.959 . S
H1396 C1411 0.959 . S
H1397 C1411 0.961 . S
H1398 C1412 0.960 . S
H1399 C1412 0.961 . S
H1400 C1412 0.959 . S
H1401 C1415 0.929 . S
H1402 C1416 0.931 . S
H1403 C1418 0.930 . S
C1404 H1392 0.930 . S
C1404 C1405 1.399 . S
C1404 C1409 1.399 . S
C1405 C1404 1.399 . S
C1405 C1406 1.376 . S
C1406 H1393 0.930 . S
C1406 C1405 1.376 . S
C1406 C1407 1.388 . S
C1407 H1394 0.930 . S
C1407 C1406 1.388 . S
C1407 C1408 1.390 . S
C1408 C1407 1.390 . S
C1408 C1409 1.394 . S
C1408 C1414 1.465 . S
C1409 C1404 1.399 . S
C1409 C1408 1.394 . S
C1409 C1410 1.516 . S
C1410 C1409 1.516 . S
C1410 C1411 1.502 . S
C1410 C1412 1.561 . S
C1410 C1413 1.526 . S
C1411 H1395 0.959 . S
C1411 H1396 0.959 . S
C1411 H1397 0.961 . S
C1411 C1410 1.502 . S
C1412 H1398 0.960 . S
C1412 H1399 0.961 . S
C1412 H1400 0.959 . S
C1412 C1410 1.561 . S
C1413 C1410 1.526 . S
C1413 C1414 1.396 . S
C1413 C1418 1.390 . S
C1414 C1408 1.465 . S
C1414 C1413 1.396 . S
C1414 C1415 1.399 . S
C1415 H1401 0.929 . S
C1415 C1414 1.399 . S
C1415 C1416 1.385 . S
C1416 H1402 0.931 . S
C1416 C1415 1.385 . S
C1416 C1417 1.389 . S
C1417 C1416 1.389 . S
C1417 C1418 1.387 . S
C1418 H1403 0.930 . S
C1418 C1413 1.390 . S
C1418 C1417 1.387 . S
H1419 C1431 0.930 . S
H1420 C1433 0.930 . S
H1421 C1434 0.930 . S
H1422 C1438 0.959 . S
H1423 C1438 0.959 . S
H1424 C1438 0.961 . S
H1425 C1439 0.960 . S
H1426 C1439 0.961 . S
H1427 C1439 0.959 . S
H1428 C1442 0.929 . S
H1429 C1443 0.931 . S
H1430 C1445 0.930 . S
C1431 H1419 0.930 . S
C1431 C1432 1.399 . S
C1431 C1436 1.399 . S
C1432 C1431 1.399 . S
C1432 C1433 1.376 . S
C1433 H1420 0.930 . S
C1433 C1432 1.376 . S
C1433 C1434 1.388 . S
C1434 H1421 0.930 . S
C1434 C1433 1.388 . S
C1434 C1435 1.390 . S
C1435 C1434 1.390 . S
C1435 C1436 1.394 . S
C1435 C1441 1.465 . S
C1436 C1431 1.399 . S
C1436 C1435 1.394 . S
C1436 C1437 1.516 . S
C1437 C1436 1.516 . S
C1437 C1438 1.502 . S
C1437 C1439 1.561 . S
C1437 C1440 1.526 . S
C1438 H1422 0.959 . S
C1438 H1423 0.959 . S
C1438 H1424 0.961 . S
C1438 C1437 1.502 . S
C1439 H1425 0.960 . S
C1439 H1426 0.961 . S
C1439 H1427 0.959 . S
C1439 C1437 1.561 . S
C1440 C1437 1.526 . S
C1440 C1441 1.396 . S
C1440 C1445 1.390 . S
C1441 C1435 1.465 . S
C1441 C1440 1.396 . S
C1441 C1442 1.399 . S
C1442 H1428 0.929 . S
C1442 C1441 1.399 . S
C1442 C1443 1.385 . S
C1443 H1429 0.931 . S
C1443 C1442 1.385 . S
C1443 C1444 1.389 . S
C1444 C1443 1.389 . S
C1444 C1445 1.387 . S
C1445 H1430 0.930 . S
C1445 C1440 1.390 . S
C1445 C1444 1.387 . S
H1446 C1458 0.930 . S
H1447 C1460 0.930 . S
H1448 C1461 0.930 . S
H1449 C1465 0.959 . S
H1450 C1465 0.959 . S
H1451 C1465 0.961 . S
H1452 C1466 0.960 1_556 S
H1453 C1466 0.961 . S
H1454 C1466 0.959 . S
H1455 C1469 0.929 . S
H1456 C1470 0.931 . S
H1457 C1472 0.930 . S
C1458 H1446 0.930 . S
C1458 C1459 1.399 . S
C1458 C1463 1.399 . S
C1459 C1458 1.399 . S
C1459 C1460 1.376 . S
C1460 H1447 0.930 . S
C1460 C1459 1.376 . S
C1460 C1461 1.388 . S
C1461 H1448 0.930 . S
C1461 C1460 1.388 . S
C1461 C1462 1.390 . S
C1462 C1461 1.390 . S
C1462 C1463 1.394 . S
C1462 C1468 1.465 . S
C1463 C1458 1.399 . S
C1463 C1462 1.394 . S
C1463 C1464 1.516 . S
C1464 C1463 1.516 . S
C1464 C1465 1.502 . S
C1464 C1466 1.561 . S
C1464 C1467 1.526 . S
C1465 H1449 0.959 . S
C1465 H1450 0.959 . S
C1465 H1451 0.961 . S
C1465 C1464 1.502 . S
C1466 H1452 0.960 1_554 S
C1466 H1453 0.961 . S
C1466 H1454 0.959 . S
C1466 C1464 1.561 . S
C1467 C1464 1.526 . S
C1467 C1468 1.396 . S
C1467 C1472 1.390 . S
C1468 C1462 1.465 . S
C1468 C1467 1.396 . S
C1468 C1469 1.399 . S
C1469 H1455 0.929 . S
C1469 C1468 1.399 . S
C1469 C1470 1.385 . S
C1470 H1456 0.931 . S
C1470 C1469 1.385 . S
C1470 C1471 1.389 . S
C1471 C1470 1.389 . S
C1471 C1472 1.387 . S
C1472 H1457 0.930 . S
C1472 C1467 1.390 . S
C1472 C1471 1.387 . S
H1473 C1485 0.930 . S
H1474 C1487 0.930 . S
H1475 C1488 0.930 . S
H1476 C1492 0.959 . S
H1477 C1492 0.959 . S
H1478 C1492 0.961 . S
H1479 C1493 0.960 . S
H1480 C1493 0.961 . S
H1481 C1493 0.959 . S
H1482 C1496 0.929 . S
H1483 C1497 0.931 . S
H1484 C1499 0.930 . S
C1485 H1473 0.930 . S
C1485 C1486 1.399 . S
C1485 C1490 1.399 . S
C1486 C1485 1.399 . S
C1486 C1487 1.376 . S
C1487 H1474 0.930 . S
C1487 C1486 1.376 . S
C1487 C1488 1.388 . S
C1488 H1475 0.930 . S
C1488 C1487 1.388 . S
C1488 C1489 1.390 . S
C1489 C1488 1.390 . S
C1489 C1490 1.394 . S
C1489 C1495 1.465 . S
C1490 C1485 1.399 . S
C1490 C1489 1.394 . S
C1490 C1491 1.516 . S
C1491 C1490 1.516 . S
C1491 C1492 1.502 . S
C1491 C1493 1.561 . S
C1491 C1494 1.526 . S
C1492 H1476 0.959 . S
C1492 H1477 0.959 . S
C1492 H1478 0.961 . S
C1492 C1491 1.502 . S
C1493 H1479 0.960 . S
C1493 H1480 0.961 . S
C1493 H1481 0.959 . S
C1493 C1491 1.561 . S
C1494 C1491 1.526 . S
C1494 C1495 1.396 . S
C1494 C1499 1.390 . S
C1495 C1489 1.465 . S
C1495 C1494 1.396 . S
C1495 C1496 1.399 . S
C1496 H1482 0.929 . S
C1496 C1495 1.399 . S
C1496 C1497 1.385 . S
C1497 H1483 0.931 . S
C1497 C1496 1.385 . S
C1497 C1498 1.389 . S
C1498 C1497 1.389 . S
C1498 C1499 1.387 . S
C1499 H1484 0.930 . S
C1499 C1494 1.390 . S
C1499 C1498 1.387 . S
H1500 C1512 0.930 . S
H1501 C1514 0.930 . S
H1502 C1515 0.930 . S
H1503 C1519 0.959 . S
H1504 C1519 0.959 . S
H1505 C1519 0.961 . S
H1506 C1520 0.960 . S
H1507 C1520 0.961 . S
H1508 C1520 0.959 . S
H1509 C1523 0.929 . S
H1510 C1524 0.931 . S
H1511 C1526 0.930 . S
C1512 H1500 0.930 . S
C1512 C1513 1.399 . S
C1512 C1517 1.399 . S
C1513 C1512 1.399 . S
C1513 C1514 1.376 . S
C1514 H1501 0.930 . S
C1514 C1513 1.376 . S
C1514 C1515 1.388 . S
C1515 H1502 0.930 . S
C1515 C1514 1.388 . S
C1515 C1516 1.390 . S
C1516 C1515 1.390 . S
C1516 C1517 1.394 . S
C1516 C1522 1.465 . S
C1517 C1512 1.399 . S
C1517 C1516 1.394 . S
C1517 C1518 1.516 . S
C1518 C1517 1.516 . S
C1518 C1519 1.502 . S
C1518 C1520 1.561 . S
C1518 C1521 1.526 . S
C1519 H1503 0.959 . S
C1519 H1504 0.959 . S
C1519 H1505 0.961 . S
C1519 C1518 1.502 . S
C1520 H1506 0.960 . S
C1520 H1507 0.961 . S
C1520 H1508 0.959 . S
C1520 C1518 1.561 . S
C1521 C1518 1.526 . S
C1521 C1522 1.396 . S
C1521 C1526 1.390 . S
C1522 C1516 1.465 . S
C1522 C1521 1.396 . S
C1522 C1523 1.399 . S
C1523 H1509 0.929 . S
C1523 C1522 1.399 . S
C1523 C1524 1.385 . S
C1524 H1510 0.931 . S
C1524 C1523 1.385 . S
C1524 C1525 1.389 . S
C1525 C1524 1.389 . S
C1525 C1526 1.387 . S
C1526 H1511 0.930 . S
C1526 C1521 1.390 . S
C1526 C1525 1.387 . S
H1527 C1539 0.930 . S
H1528 C1541 0.930 . S
H1529 C1542 0.930 . S
H1530 C1546 0.959 . S
H1531 C1546 0.959 . S
H1532 C1546 0.961 . S
H1533 C1547 0.960 . S
H1534 C1547 0.961 . S
H1535 C1547 0.959 . S
H1536 C1550 0.929 . S
H1537 C1551 0.931 . S
H1538 C1553 0.930 . S
C1539 H1527 0.930 . S
C1539 C1540 1.399 . S
C1539 C1544 1.399 . S
C1540 C1539 1.399 . S
C1540 C1541 1.376 . S
C1541 H1528 0.930 . S
C1541 C1540 1.376 . S
C1541 C1542 1.388 . S
C1542 H1529 0.930 . S
C1542 C1541 1.388 . S
C1542 C1543 1.390 . S
C1543 C1542 1.390 . S
C1543 C1544 1.394 . S
C1543 C1549 1.465 . S
C1544 C1539 1.399 . S
C1544 C1543 1.394 . S
C1544 C1545 1.516 . S
C1545 C1544 1.516 . S
C1545 C1546 1.502 . S
C1545 C1547 1.561 . S
C1545 C1548 1.526 . S
C1546 H1530 0.959 . S
C1546 H1531 0.959 . S
C1546 H1532 0.961 . S
C1546 C1545 1.502 . S
C1547 H1533 0.960 . S
C1547 H1534 0.961 . S
C1547 H1535 0.959 . S
C1547 C1545 1.561 . S
C1548 C1545 1.526 . S
C1548 C1549 1.396 . S
C1548 C1553 1.390 . S
C1549 C1543 1.465 . S
C1549 C1548 1.396 . S
C1549 C1550 1.399 . S
C1550 H1536 0.929 . S
C1550 C1549 1.399 . S
C1550 C1551 1.385 . S
C1551 H1537 0.931 . S
C1551 C1550 1.385 . S
C1551 C1552 1.389 . S
C1552 C1551 1.389 . S
C1552 C1553 1.387 . S
C1553 H1538 0.930 . S
C1553 C1548 1.390 . S
C1553 C1552 1.387 . S
H1554 C1566 0.930 . S
H1555 C1568 0.930 . S
H1556 C1569 0.930 . S
H1557 C1573 0.959 . S
H1558 C1573 0.959 . S
H1559 C1573 0.961 . S
H1560 C1574 0.960 . S
H1561 C1574 0.961 . S
H1562 C1574 0.959 . S
H1563 C1577 0.929 . S
H1564 C1578 0.931 . S
H1565 C1580 0.930 . S
C1566 H1554 0.930 . S
C1566 C1567 1.399 . S
C1566 C1571 1.399 . S
C1567 C1566 1.399 . S
C1567 C1568 1.376 . S
C1568 H1555 0.930 . S
C1568 C1567 1.376 . S
C1568 C1569 1.388 . S
C1569 H1556 0.930 . S
C1569 C1568 1.388 . S
C1569 C1570 1.390 . S
C1570 C1569 1.390 . S
C1570 C1571 1.394 . S
C1570 C1576 1.465 . S
C1571 C1566 1.399 . S
C1571 C1570 1.394 . S
C1571 C1572 1.516 . S
C1572 C1571 1.516 . S
C1572 C1573 1.502 . S
C1572 C1574 1.561 . S
C1572 C1575 1.526 . S
C1573 H1557 0.959 . S
C1573 H1558 0.959 . S
C1573 H1559 0.961 . S
C1573 C1572 1.502 . S
C1574 H1560 0.960 . S
C1574 H1561 0.961 . S
C1574 H1562 0.959 . S
C1574 C1572 1.561 . S
C1575 C1572 1.526 . S
C1575 C1576 1.396 . S
C1575 C1580 1.390 . S
C1576 C1570 1.465 . S
C1576 C1575 1.396 . S
C1576 C1577 1.399 . S
C1577 H1563 0.929 . S
C1577 C1576 1.399 . S
C1577 C1578 1.385 . S
C1578 H1564 0.931 . S
C1578 C1577 1.385 . S
C1578 C1579 1.389 . S
C1579 C1578 1.389 . S
C1579 C1580 1.387 . S
C1580 H1565 0.930 . S
C1580 C1575 1.390 . S
C1580 C1579 1.387 . S
H1581 C1593 0.930 . S
H1582 C1595 0.930 . S
H1583 C1596 0.930 . S
H1584 C1600 0.959 . S
H1585 C1600 0.959 . S
H1586 C1600 0.961 . S
H1587 C1601 0.960 . S
H1588 C1601 0.961 . S
H1589 C1601 0.959 . S
H1590 C1604 0.929 . S
H1591 C1605 0.931 . S
H1592 C1607 0.930 . S
C1593 H1581 0.930 . S
C1593 C1594 1.399 . S
C1593 C1598 1.399 . S
C1594 C1593 1.399 . S
C1594 C1595 1.376 . S
C1595 H1582 0.930 . S
C1595 C1594 1.376 . S
C1595 C1596 1.388 . S
C1596 H1583 0.930 . S
C1596 C1595 1.388 . S
C1596 C1597 1.390 . S
C1597 C1596 1.390 . S
C1597 C1598 1.394 . S
C1597 C1603 1.465 . S
C1598 C1593 1.399 . S
C1598 C1597 1.394 . S
C1598 C1599 1.516 . S
C1599 C1598 1.516 . S
C1599 C1600 1.502 . S
C1599 C1601 1.561 . S
C1599 C1602 1.526 . S
C1600 H1584 0.959 . S
C1600 H1585 0.959 . S
C1600 H1586 0.961 . S
C1600 C1599 1.502 . S
C1601 H1587 0.960 . S
C1601 H1588 0.961 . S
C1601 H1589 0.959 . S
C1601 C1599 1.561 . S
C1602 C1599 1.526 . S
C1602 C1603 1.396 . S
C1602 C1607 1.390 . S
C1603 C1597 1.465 . S
C1603 C1602 1.396 . S
C1603 C1604 1.399 . S
C1604 H1590 0.929 . S
C1604 C1603 1.399 . S
C1604 C1605 1.385 . S
C1605 H1591 0.931 . S
C1605 C1604 1.385 . S
C1605 C1606 1.389 . S
C1606 C1605 1.389 . S
C1606 C1607 1.387 . S
C1607 H1592 0.930 . S
C1607 C1602 1.390 . S
C1607 C1606 1.387 . S
C541 N332 1.438 . S
C553 N2 1.455 . S
C568 N35 1.430 . S
C580 N365 1.451 . S
C595 N266 1.374 . S
C607 N68 1.367 . S
C622 N101 1.399 . S
C634 N299 1.374 . S
C649 N464 1.365 . S
C661 N134 1.367 . S
C676 N167 1.373 . S
C688 N497 1.377 . S
C703 N200 1.450 . S
C715 N398 1.447 . S
C730 N431 1.448 . S
C742 N233 1.446 . S
C757 C480 0.976 . S
C769 C7 0.963 . S
C784 C513 0.946 . S
C796 C40 0.978 . S
C811 C73 0.961 . S
C823 C414 0.942 . S
C838 C447 0.943 . S
C850 C106 0.972 . S
C865 C139 0.988 . S
C877 C348 0.968 . S
C892 C172 0.917 . S
C904 C381 0.957 . S
C919 C282 0.974 . S
C931 C205 0.956 . S
C946 C238 0.929 . S
C958 C315 0.963 . S
C973 C216 0.961 . S
C985 C271 0.911 . S
C1000 C249 0.969 . S
C1012 C304 0.986 . S
C1027 C150 0.939 . S
C1039 C337 0.924 . S
C1054 C370 0.985 . S
C1066 C183 0.970 . S
C1081 C403 0.990 . S
C1093 C84 0.971 . S
C1108 C436 0.966 . S
C1120 C117 0.951 . S
C1135 C469 0.988 . S
C1147 C18 0.977 . S
C1162 C51 0.943 . S
C1174 C502 0.906 . S
C1189 N376 1.736 . S
C1201 C21 1.726 . S
C1216 C54 1.720 . S
C1228 N277 1.734 . S
C1243 C87 1.693 . S
C1255 N310 1.735 . S
C1270 C120 1.729 . S
C1282 N343 1.742 . S
C1297 N178 1.733 . S
C1309 C153 1.728 . S
C1324 C186 1.718 . S
C1336 N211 1.732 . S
C1351 N244 1.739 . S
C1363 C219 1.696 . S
C1378 C252 1.726 . S
C1390 N145 1.732 . S
C1405 N112 1.730 . S
C1417 C285 1.686 . S
C1432 C318 1.729 . S
C1444 N13 1.742 . S
C1459 C351 1.692 . S
C1471 N46 1.733 . S
C1486 N79 1.738 . S
C1498 C384 1.707 . S
C1513 N442 1.730 . S
C1525 C417 1.720 . S
C1540 N475 1.741 . S
C1552 C450 1.720 . S
C1567 C483 1.710 . S
C1579 N508 1.729 . S
C1594 N409 1.739 . S
C1606 C516 1.730 . S
