# Generated by pormake.
# Topology zfs, (5)-cn, num edge types: 1
# Building blocks:
#     Node 0, Type 0, BuildingBlock: XOMCOT_clean_sbu_1, # of connection points: 5
#     Node 1, Type 0, BuildingBlock: XOMCOT_clean_sbu_1, # of connection points: 5
#     Node 2, Type 0, BuildingBlock: XOMCOT_clean_sbu_1, # of connection points: 5
#     Node 3, Type 0, BuildingBlock: XOMCOT_clean_sbu_1, # of connection points: 5
#     Node 4, Type 0, BuildingBlock: XOMCOT_clean_sbu_1, # of connection points: 5
#     Node 5, Type 0, BuildingBlock: XOMCOT_clean_sbu_1, # of connection points: 5
#     Node 6, Type 0, BuildingBlock: XOMCOT_clean_sbu_1, # of connection points: 5
#     Node 7, Type 0, BuildingBlock: XOMCOT_clean_sbu_1, # of connection points: 5
#     Edge 8, Type (0, 0), BuildingBlock: XUDNAN_clean_linker_2, # of connection points: 2
#     Edge 9, Type (0, 0), BuildingBlock: XUDNAN_clean_linker_2, # of connection points: 2
#     Edge 10, Type (0, 0), BuildingBlock: XUDNAN_clean_linker_2, # of connection points: 2
#     Edge 11, Type (0, 0), BuildingBlock: XUDNAN_clean_linker_2, # of connection points: 2
#     Edge 12, Type (0, 0), BuildingBlock: XUDNAN_clean_linker_2, # of connection points: 2
#     Edge 13, Type (0, 0), BuildingBlock: XUDNAN_clean_linker_2, # of connection points: 2
#     Edge 14, Type (0, 0), BuildingBlock: XUDNAN_clean_linker_2, # of connection points: 2
#     Edge 15, Type (0, 0), BuildingBlock: XUDNAN_clean_linker_2, # of connection points: 2
#     Edge 16, Type (0, 0), BuildingBlock: XUDNAN_clean_linker_2, # of connection points: 2
#     Edge 17, Type (0, 0), BuildingBlock: XUDNAN_clean_linker_2, # of connection points: 2
#     Edge 18, Type (0, 0), BuildingBlock: XUDNAN_clean_linker_2, # of connection points: 2
#     Edge 19, Type (0, 0), BuildingBlock: XUDNAN_clean_linker_2, # of connection points: 2
#     Edge 20, Type (0, 0), BuildingBlock: XUDNAN_clean_linker_2, # of connection points: 2
#     Edge 21, Type (0, 0), BuildingBlock: XUDNAN_clean_linker_2, # of connection points: 2
#     Edge 22, Type (0, 0), BuildingBlock: XUDNAN_clean_linker_2, # of connection points: 2
#     Edge 23, Type (0, 0), BuildingBlock: XUDNAN_clean_linker_2, # of connection points: 2
#     Edge 24, Type (0, 0), BuildingBlock: XUDNAN_clean_linker_2, # of connection points: 2
#     Edge 25, Type (0, 0), BuildingBlock: XUDNAN_clean_linker_2, # of connection points: 2
#     Edge 26, Type (0, 0), BuildingBlock: XUDNAN_clean_linker_2, # of connection points: 2
#     Edge 27, Type (0, 0), BuildingBlock: XUDNAN_clean_linker_2, # of connection points: 2
# Relax obj value: 0.146
# Max RMSD: 0.154
# Mean RMSD: 0.154
data_MOF--net-zfs--node1-XOMCOT_clean_sbu_1--edge1-XUDNAN_clean_linker_2
_symmetry_space_group_name_H-M    P1
_symmetry_Int_Tables_number       1
_symmetry_cell_setting            triclinic
loop_
_symmetry_equiv_pos_as_xyz
'x, y, z'
_cell_length_a     34.361513
_cell_length_b     34.421775
_cell_length_c     40.566328
_cell_angle_alpha  89.751765
_cell_angle_beta   89.813198
_cell_angle_gamma 89.760476
loop_
_atom_site_label
_atom_site_type_symbol
_atom_site_fract_x
_atom_site_fract_y
_atom_site_fract_z
_atom_type_partial_charge
C0 C 0.13918 0.2731 0.21565 0.0
C1 C 0.16355 0.27347 0.24237 0.0
N2 N 0.14969 0.24819 0.26488 0.0
N3 N 0.11008 0.24776 0.22129 0.0
C4 C 0.11753 0.23262 0.25137 0.0
H5 H 0.14109 0.29194 0.1943 0.0
Co6 Co 0.06654 0.24552 0.19462 0.0
C7 C 0.01525 0.18903 0.22973 0.0
O8 O 1.00787 0.17091 0.20202 0.0
N9 N 0.02389 0.24474 0.1667 0.0
C10 C 0.96843 0.25961 0.14143 0.0
C11 C 0.98637 0.25509 0.17168 0.0
C12 C 0.02785 0.2426 0.13373 0.0
N13 N 0.9947 0.25119 0.11783 0.0
O14 O 0.08447 0.19686 0.1761 0.0
H15 H 0.97394 0.26222 0.19544 0.0
H16 H 0.05546 0.23882 0.12131 0.0
O17 O 0.03758 0.21854 0.22947 0.0
C18 C 0.11178 0.20069 0.15493 0.0
O19 O 0.12592 0.23559 0.14971 0.0
N20 N 0.05096 0.29412 0.21092 0.0
C21 C 0.04465 0.37052 0.23296 0.0
C22 C 0.04071 0.33923 0.255 0.0
C23 C 0.04397 0.30117 0.24351 0.0
C24 C 0.05314 0.32409 0.1889 0.0
C25 C 0.04964 0.3626 0.19935 0.0
H26 H 0.04333 0.27767 0.26122 0.0
H27 H 0.05969 0.31813 0.16331 0.0
H28 H 0.09834 0.21283 0.2642 0.0
H29 H 0.18854 0.2921 0.24558 0.0
H30 H 0.93937 0.2707 0.13704 0.0
H31 H 0.03685 0.3442 0.28117 0.0
H32 H 0.05339 0.38593 0.18163 0.0
C33 C 0.77411 0.15112 0.45674 0.0
C34 C 0.7784 0.18011 0.47976 0.0
N35 N 0.78976 0.16348 0.50825 0.0
N36 N 0.78327 0.11668 0.4707 0.0
C37 C 0.79237 0.12515 0.50215 0.0
H38 H 0.76632 0.15502 0.43113 0.0
Co39 Co 0.7878 0.07023 0.44839 0.0
C40 C 0.80125 0.01155 0.50215 0.0
O41 O 0.77606 0.98801 0.48851 0.0
N42 N 0.79355 0.02385 0.42438 0.0
C43 C 0.82599 0.976 0.39957 0.0
C44 C 0.82286 0.99783 0.4277 0.0
C45 C 0.77985 0.01744 0.39369 0.0
N46 N 0.79928 0.98882 0.37787 0.0
O47 O 0.83974 0.08487 0.43395 0.0
H48 H 0.8439 0.9977 0.44744 0.0
H49 H 0.75907 0.03617 0.38172 0.0
O50 O 0.80878 0.04447 0.48873 0.0
C51 C 0.83865 0.09841 0.40455 0.0
O52 O 0.80463 0.10153 0.39006 0.0
N53 N 0.73527 0.05891 0.45953 0.0
C54 C 0.65462 0.04967 0.46722 0.0
C55 C 0.67952 0.04773 0.4946 0.0
C56 C 0.71981 0.05306 0.4903 0.0
C57 C 0.71094 0.06427 0.43344 0.0
C58 C 0.67091 0.05881 0.43647 0.0
H59 H 0.73813 0.05345 0.51184 0.0
H60 H 0.72241 0.07448 0.41024 0.0
H61 H 0.80278 0.10412 0.51996 0.0
H62 H 0.77445 0.21098 0.47571 0.0
H63 H 0.84912 0.95551 0.39426 0.0
H64 H 0.66804 0.04215 0.51905 0.0
H65 H 0.65267 0.06287 0.41499 0.0
C66 C 0.87994 0.75036 0.71886 0.0
C67 C 0.85005 0.75162 0.74135 0.0
N68 N 0.85686 0.78097 0.76245 0.0
N69 N 0.90583 0.77832 0.72604 0.0
C70 C 0.89031 0.7974 0.75189 0.0
H71 H 0.88328 0.72971 0.69902 0.0
Co72 Co 0.95143 0.78574 0.70271 0.0
C73 C 0.98382 0.80852 0.77232 0.0
O74 O 0.96052 0.78909 0.79202 0.0
N75 N 0.99621 0.7934 0.67811 0.0
C76 C 0.05643 0.79478 0.65808 0.0
C77 C 0.0342 0.79166 0.68637 0.0
C78 C 0.996 0.79792 0.64522 0.0
N79 N 0.0321 0.79869 0.63226 0.0
O80 O 0.93405 0.83795 0.69102 0.0
H81 H 0.04503 0.78659 0.71103 0.0
H82 H 0.96967 0.79741 0.63076 0.0
O83 O 0.97967 0.80675 0.74099 0.0
C84 C 0.91084 0.83977 0.6665 0.0
O85 O 0.90003 0.80734 0.65235 0.0
N86 N 0.96674 0.73294 0.71163 0.0
C87 C 0.9736 0.65128 0.71607 0.0
C88 C 0.96599 0.67392 0.74416 0.0
C89 C 0.96273 0.71455 0.74141 0.0
C90 C 0.97501 0.71134 0.6843 0.0
C91 C 0.97959 0.67105 0.68612 0.0
H92 H 0.95362 0.73046 0.76276 0.0
H93 H 0.97613 0.72487 0.6603 0.0
H94 H 0.9039 0.82214 0.76333 0.0
H95 H 0.82566 0.73187 0.74241 0.0
H96 H 0.08783 0.79301 0.65655 0.0
H97 H 0.96023 0.66039 0.7678 0.0
H98 H 0.98638 0.65552 0.66367 0.0
C99 C 0.26117 0.89772 0.97204 0.0
C100 C 0.2514 0.87772 0.00026 0.0
N101 N 0.22241 0.89725 0.0154 0.0
N102 N 0.23855 0.92966 0.96974 0.0
C103 C 0.21468 0.92812 0.996 0.0
H104 H 0.28455 0.89066 0.95515 0.0
Co105 Co 0.24442 0.9684 0.939 0.0
C106 C 0.22672 0.03887 0.98017 0.0
O107 O 0.25928 0.05564 0.97084 0.0
N108 N 0.25036 1.00532 0.90629 0.0
C109 C 0.24428 0.05045 0.86733 0.0
C110 C 0.23766 0.0418 0.9001 0.0
C111 C 0.26332 0.99233 0.87709 0.0
N112 N 0.2604 0.01899 0.85295 0.0
O113 O 0.195 0.95508 0.91966 0.0
H114 H 0.22144 0.05985 0.91697 0.0
H115 H 0.27165 0.96237 0.87322 0.0
O116 O 0.21782 1.00558 0.96854 0.0
C117 C 0.19409 0.92552 0.90085 0.0
O118 O 0.22585 0.90474 0.89678 0.0
N119 N 0.29434 0.97967 0.95706 0.0
C120 C 0.36978 0.98366 0.98315 0.0
C121 C 0.33694 0.98735 0.00359 0.0
C122 C 0.29962 0.98471 0.99019 0.0
C123 C 0.32606 0.97595 0.93691 0.0
C124 C 0.36388 0.97844 0.94931 0.0
H125 H 0.27498 0.98524 0.00679 0.0
H126 H 0.32258 0.96891 0.91128 0.0
H127 H 0.19285 0.94982 0.00136 0.0
H128 H 0.26603 0.85216 0.00982 0.0
H129 H 0.23562 0.0769 0.85481 0.0
H130 H 0.33998 0.99118 0.02994 0.0
H131 H 0.38826 0.97412 0.93272 0.0
C132 C 0.12984 0.75719 0.26775 0.0
C133 C 0.15146 0.76787 0.24061 0.0
N134 N 0.13568 0.80057 0.22804 0.0
N135 N 0.10035 0.78278 0.27159 0.0
C136 C 0.10489 0.80901 0.24731 0.0
H137 H 0.13523 0.73256 0.28376 0.0
Co138 Co 0.06383 0.78358 0.30466 0.0
C139 C 0.99249 0.79373 0.26194 0.0
O140 O 0.97635 0.76179 0.27328 0.0
N141 N 0.02913 0.78502 0.33947 0.0
C142 C 0.98449 0.78999 0.37899 0.0
C143 C 0.99084 0.79082 0.34532 0.0
C144 C 0.04521 0.78199 0.36951 0.0
N145 N 0.01897 0.78402 0.39397 0.0
O146 O 0.07922 0.83587 0.31635 0.0
H147 H 0.96897 0.79641 0.32689 0.0
H148 H 0.07618 0.77846 0.37314 0.0
O149 O 0.02532 0.8047 0.27333 0.0
C150 C 0.11161 0.8384 0.33152 0.0
O151 O 0.133 0.80685 0.33459 0.0
N152 N 0.051 0.73092 0.2951 0.0
C153 C 0.04941 0.65036 0.28478 0.0
C154 C 0.04542 0.67637 0.2582 0.0
C155 C 0.04649 0.71662 0.26388 0.0
C156 C 0.05412 0.70572 0.32102 0.0
C157 C 0.05227 0.66579 0.31655 0.0
H158 H 0.04597 0.7362 0.24297 0.0
H159 H 0.06046 0.71597 0.34538 0.0
H160 H 0.08594 0.83384 0.24383 0.0
H161 H 0.1771 0.7532 0.23122 0.0
H162 H 0.95677 0.79365 0.39135 0.0
H163 H 0.0437 0.66586 0.23313 0.0
H164 H 0.05488 0.64709 0.33798 0.0
C165 C 0.26476 0.15013 0.52812 0.0
C166 C 0.25856 0.17896 0.5052 0.0
N167 N 0.23058 0.16708 0.48431 0.0
N168 N 0.24102 0.12016 0.52161 0.0
C169 C 0.22022 0.13139 0.4951 0.0
H170 H 0.28607 0.15035 0.54768 0.0
Co171 Co 0.24141 0.07389 0.54454 0.0
C172 C 0.22691 0.01591 0.49184 0.0
O173 O 0.25826 0.99743 0.50197 0.0
N174 N 0.24127 0.02797 0.56931 0.0
C175 C 0.2254 0.97284 0.59515 0.0
C176 C 0.22122 0.99429 0.56664 0.0
C177 C 0.25545 0.02695 0.60016 0.0
N178 N 0.24706 0.99369 0.61596 0.0
O179 O 0.19127 0.087 0.56431 0.0
H180 H 0.20153 0.98706 0.54696 0.0
H181 H 0.26863 0.05165 0.61209 0.0
O182 O 0.21594 0.04685 0.50688 0.0
C183 C 0.19514 0.10778 0.59021 0.0
O184 O 0.23046 0.1184 0.59849 0.0
N185 N 0.29274 0.06378 0.52765 0.0
C186 C 0.37059 0.05548 0.50695 0.0
C187 C 0.34055 0.06124 0.48398 0.0
C188 C 0.30205 0.06618 0.49485 0.0
C189 C 0.322 0.06049 0.55022 0.0
C190 C 0.36077 0.05563 0.54049 0.0
H191 H 0.27973 0.07223 0.47681 0.0
H192 H 0.31592 0.06293 0.57611 0.0
H193 H 0.19831 0.11348 0.48373 0.0
H194 H 0.27464 0.20583 0.50337 0.0
H195 H 0.21053 0.9461 0.60134 0.0
H196 H 0.3468 0.06283 0.45783 0.0
H197 H 0.38285 0.05205 0.55926 0.0
C198 C 0.87645 0.23234 0.78142 0.0
C199 C 0.85485 0.22773 0.75326 0.0
N200 N 0.87954 0.22696 0.72757 0.0
N201 N 0.91467 0.23362 0.77351 0.0
C202 C 0.91544 0.23063 0.7403 0.0
H203 H 0.86452 0.23563 0.80585 0.0
Co204 Co 0.95636 0.24095 0.80217 0.0
C205 C 0.02329 0.19715 0.77047 0.0
O206 O 0.04144 0.19156 0.79853 0.0
N207 N 0.99764 0.24947 0.8317 0.0
C208 C 0.04758 0.27769 0.85707 0.0
C209 C 0.03055 0.27028 0.82697 0.0
C210 C 0.996 0.24401 0.86466 0.0
N211 N 0.02573 0.26076 0.88056 0.0
O212 O 0.94522 0.1908 0.82319 0.0
H213 H 0.04014 0.28172 0.80346 0.0
H214 H 0.97179 0.23128 0.87759 0.0
O215 O 0.99091 0.21551 0.76986 0.0
C216 C 0.9199 0.19266 0.84635 0.0
O217 O 0.90555 0.227 0.85381 0.0
N218 N 0.96463 0.29071 0.78348 0.0
C219 C 0.9698 0.36782 0.76135 0.0
C220 C 0.98457 0.33704 0.7423 0.0
C221 C 0.98191 0.2987 0.75384 0.0
C222 C 0.95041 0.32019 0.80244 0.0
C223 C 0.95299 0.35894 0.79202 0.0
H224 H 0.99344 0.27568 0.73866 0.0
H225 H 0.9367 0.31345 0.82581 0.0
H226 H 0.94166 0.23136 0.72551 0.0
H227 H 0.82344 0.22645 0.75161 0.0
H228 H 0.07266 0.29585 0.8615 0.0
H229 H 0.99805 0.34255 0.71857 0.0
H230 H 0.94083 0.38162 0.80739 0.0
C231 C 0.74194 0.8831 0.02581 0.0
C232 C 0.74076 0.85828 -0.00044 0.0
N233 N 0.76957 0.86795 0.97847 0.0
N234 N 0.77107 0.90864 0.02128 0.0
C235 C 0.78764 0.89867 0.99231 0.0
H236 H 0.72248 0.88301 0.04682 0.0
Co237 Co 0.78128 0.94686 0.0518 0.0
C238 C 0.79883 0.01383 0.00679 0.0
O239 O 0.76975 0.03347 0.01978 0.0
N240 N 0.79163 0.98288 0.08471 0.0
C241 C 0.81082 0.02712 0.12113 0.0
C242 C 0.8054 0.01945 0.08802 0.0
C243 C 0.78996 0.969 0.11575 0.0
N244 N 0.80136 0.99495 0.13821 0.0
O245 O 0.83086 0.92307 0.06223 0.0
H246 H 0.81325 0.03879 0.06816 0.0
H247 H 0.78059 0.93987 0.12181 0.0
O248 O 0.80642 0.9795 0.01737 0.0
C249 C 0.82907 0.8932 0.08099 0.0
O250 O 0.79488 0.87728 0.08616 0.0
N251 N 0.73072 0.96831 0.04393 0.0
C252 C 0.65006 0.97851 0.03685 0.0
C253 C 0.67443 0.97616 0.00904 0.0
C254 C 0.71471 0.97109 0.01311 0.0
C255 C 0.70746 0.9725 0.07102 0.0
C256 C 0.66754 0.97854 0.06802 0.0
H257 H 0.73264 0.96665 0.99148 0.0
H258 H 0.71895 0.96854 0.09544 0.0
H259 H 0.81256 0.91339 0.98183 0.0
H260 H 0.71975 0.83536 0.9961 0.0
H261 H 0.82263 0.05339 0.13166 0.0
H262 H 0.66237 0.97568 0.98442 0.0
H263 H 0.65026 0.98111 0.09028 0.0
H264 H 1.01156 0.60187 0.24053 0.0
H265 H 0.09938 0.60199 0.31742 0.0
H266 H 0.10548 0.53124 0.31321 0.0
H267 H 0.96568 0.51222 0.26308 0.0
H268 H 0.95849 0.49593 0.22138 0.0
H269 H 0.96009 0.54716 0.23018 0.0
H270 H 0.01569 0.55594 0.18759 0.0
H271 H 0.01408 0.50478 0.17848 0.0
H272 H 0.05915 0.5267 0.19113 0.0
H273 H 0.10101 0.46093 0.30301 0.0
H274 H 0.09051 0.39424 0.28325 0.0
H275 H 1.00867 0.43765 0.21044 0.0
C276 C 0.03227 0.58703 0.25628 0.0
C277 C 0.05419 0.60766 0.27994 0.0
C278 C 0.08116 0.58698 0.29991 0.0
C279 C 0.08514 0.54668 0.29756 0.0
C280 C 0.0625 0.5272 0.27471 0.0
C281 C 0.037 0.54652 0.25402 0.0
C282 C 0.01694 0.51812 0.23114 0.0
C283 C 0.97267 0.51838 0.2368 0.0
C284 C 0.02708 0.52692 0.19493 0.0
C285 C 0.03506 0.48001 0.24248 0.0
C286 C 0.06099 0.48611 0.26785 0.0
C287 C 0.08089 0.45568 0.28308 0.0
C288 C 0.07449 0.41789 0.27186 0.0
C289 C 0.04861 0.41075 0.2455 0.0
C290 C 0.02867 0.44231 0.2306 0.0
H291 H 0.60324 0.07936 0.51353 0.0
H292 H 0.60906 1.00608 0.4269 0.0
H293 H 0.53763 0.99905 0.42804 0.0
H294 H 0.52352 0.02782 0.55464 0.0
H295 H 0.50139 0.0717 0.57012 0.0
H296 H 0.55323 0.06952 0.56349 0.0
H297 H 0.54894 0.13025 0.52572 0.0
H298 H 0.49709 0.13247 0.53207 0.0
H299 H 0.51658 0.12993 0.49083 0.0
H300 H 0.46535 1.00188 0.43708 0.0
H301 H 0.3973 0.01272 0.45457 0.0
H302 H 0.43761 0.08488 0.53497 0.0
C303 C 0.58951 0.06132 0.49517 0.0
C304 C 0.61182 0.04326 0.4701 0.0
C305 C 0.5926 0.02043 0.44617 0.0
C306 C 0.55202 0.01617 0.44666 0.0
C307 C 0.53081 0.03493 0.47125 0.0
C308 C 0.54883 0.05692 0.49518 0.0
C309 C 0.51895 0.07491 0.51825 0.0
C310 C 0.52462 0.06009 0.55373 0.0
C311 C 0.52049 0.11953 0.5166 0.0
C312 C 0.48146 0.05964 0.5035 0.0
C313 C 0.489 0.03665 0.4764 0.0
C314 C 0.45909 0.01979 0.45832 0.0
C315 C 0.42045 0.02637 0.4683 0.0
C316 C 0.41185 0.04964 0.49616 0.0
C317 C 0.44302 0.06649 0.51385 0.0
H318 H 0.99339 0.60044 0.76741 0.0
H319 H 0.94846 0.60209 0.6673 0.0
H320 H 0.9459 0.53104 0.66765 0.0
H321 H 0.05096 0.51254 0.76061 0.0
H322 H 0.03861 0.49501 0.80123 0.0
H323 H 0.03938 0.54647 0.79296 0.0
H324 H 0.96822 0.55251 0.81358 0.0
H325 H 0.96726 0.50109 0.82198 0.0
H326 H 0.93112 0.52263 0.79539 0.0
H327 H 0.94771 0.45959 0.67807 0.0
H328 H 0.95001 0.39247 0.69958 0.0
H329 H 0.9894 0.43546 0.79414 0.0
C330 C 0.9829 0.58603 0.74554 0.0
C331 C 0.9721 0.60759 0.71702 0.0
C332 C 0.95846 0.58691 0.68911 0.0
C333 C 0.95644 0.54626 0.68911 0.0
C334 C 0.96755 0.52613 0.71736 0.0
C335 C 0.98015 0.5452 0.74522 0.0
C336 C 0.98882 0.51631 0.77275 0.0
C337 C 0.03201 0.51767 0.78245 0.0
C338 C 0.96227 0.52358 0.8027 0.0
C339 C 0.97897 0.47819 0.75594 0.0
C340 C 0.96715 0.48463 0.72387 0.0
C341 C 0.95691 0.45416 0.70316 0.0
C342 C 0.95852 0.41607 0.71555 0.0
C343 C 0.96996 0.40855 0.7485 0.0
C344 C 0.98031 0.44022 0.7689 0.0
H345 H 0.43795 0.01542 0.9586 0.0
H346 H 0.39221 0.94589 0.03939 0.0
H347 H 0.45826 0.93887 0.06194 0.0
H348 H 0.52555 0.96054 0.94708 0.0
H349 H 0.55563 1.00207 0.93813 0.0
H350 H 0.50444 1.0035 0.92875 0.0
H351 H 0.49644 0.06566 0.96392 0.0
H352 H 0.54766 0.06452 0.9733 0.0
H353 H 0.51232 0.06532 0.00623 0.0
H354 H 0.5287 0.9358 0.07417 0.0
H355 H 0.59982 0.93921 0.07722 0.0
H356 H 0.60181 0.01226 0.98955 0.0
C357 C 0.44184 0.99884 0.9811 0.0
C358 C 0.40967 0.98151 0.99737 0.0
C359 C 0.41608 0.96014 0.02681 0.0
C360 C 0.4536 0.9557 0.0397 0.0
C361 C 0.48456 0.97286 0.02299 0.0
C362 C 0.47922 0.99421 0.99446 0.0
C363 C 0.51785 1.00917 0.98128 0.0
C364 C 0.52636 0.99284 0.94676 0.0
C365 C 0.5186 0.05382 0.98119 0.0
C366 C 0.54569 0.9925 0.00673 0.0
C367 C 0.52567 0.97166 0.03048 0.0
C368 C 0.54468 0.95257 0.05606 0.0
C369 C 0.58524 0.95503 0.05769 0.0
C370 C 0.60674 0.97681 0.0341 0.0
C371 C 0.58645 0.99555 0.0081 0.0
H372 H 0.19529 0.13485 0.43079 0.0
H373 H 0.2361 0.24433 0.47061 0.0
H374 H 0.21879 0.27709 0.41863 0.0
H375 H 0.22857 0.14799 0.34995 0.0
H376 H 0.18689 0.12634 0.33053 0.0
H377 H 0.20076 0.11144 0.37144 0.0
H378 H 0.13183 0.12844 0.39319 0.0
H379 H 0.11753 0.14311 0.35227 0.0
H380 H 0.11221 0.17642 0.38616 0.0
H381 H 0.2011 0.29716 0.36143 0.0
H382 H 0.17993 0.30417 0.30365 0.0
H383 H 0.14808 0.18242 0.30183 0.0
C384 C 0.19993 0.16583 0.42905 0.0
C385 C 0.21741 0.18684 0.45495 0.0
C386 C 0.22344 0.22734 0.45106 0.0
C387 C 0.21345 0.24632 0.42167 0.0
C388 C 0.19701 0.22454 0.39652 0.0
C389 C 0.18979 0.18531 0.40002 0.0
C390 C 0.17233 0.16853 0.36898 0.0
C391 C 0.19873 0.13671 0.35437 0.0
C392 C 0.13102 0.15323 0.37555 0.0
C393 C 0.17155 0.20438 0.34727 0.0
C394 C 0.18596 0.23634 0.36365 0.0
C395 C 0.1895 0.27244 0.34839 0.0
C396 C 0.17776 0.27604 0.31551 0.0
C397 C 0.16255 0.24377 0.29834 0.0
C398 C 0.1593 0.20757 0.31454 0.0
H399 H 0.77778 0.1382 0.57043 0.0
H400 H 0.83039 0.23041 0.5128 0.0
H401 H 0.85847 0.25821 0.56363 0.0
H402 H 0.7538 0.19762 0.64253 0.0
H403 H 0.76436 0.15876 0.6711 0.0
H404 H 0.74694 0.14781 0.63035 0.0
H405 H 0.80718 0.10371 0.62053 0.0
H406 H 0.82499 0.1148 0.66108 0.0
H407 H 0.85525 0.12359 0.62547 0.0
H408 H 0.88645 0.2713 0.61991 0.0
H409 H 0.90546 0.27369 0.67885 0.0
H410 H 0.8312 0.17533 0.69978 0.0
C411 C 0.7948 0.16454 0.56869 0.0
C412 C 0.80202 0.1823 0.53791 0.0
C413 C 0.82425 0.21676 0.53632 0.0
C414 C 0.84048 0.23251 0.56497 0.0
C415 C 0.83358 0.2137 0.59491 0.0
C416 C 0.81065 0.18087 0.59703 0.0
C417 C 0.80793 0.16592 0.63206 0.0
C418 C 0.76575 0.16765 0.64476 0.0
C419 C 0.82485 0.12456 0.63493 0.0
C420 C 0.83334 0.19518 0.64932 0.0
C421 C 0.84824 0.22226 0.62744 0.0
C422 C 0.87445 0.25068 0.63737 0.0
C423 C 0.88526 0.25172 0.67065 0.0
C424 C 0.86936 0.22493 0.69346 0.0
C425 C 0.8431 0.19643 0.68267 0.0
H426 H 0.80802 0.89885 0.92551 0.0
H427 H 0.75171 0.794 0.96139 0.0
H428 H 0.76414 0.76239 0.90825 0.0
H429 H 0.77488 0.89317 0.84141 0.0
H430 H 0.82016 0.90986 0.82395 0.0
H431 H 0.80562 0.92539 0.86454 0.0
H432 H 0.87057 0.89948 0.88853 0.0
H433 H 0.88544 0.88412 0.84801 0.0
H434 H 0.88443 0.8496 0.88153 0.0
H435 H 0.78337 0.74138 0.85226 0.0
H436 H 0.81219 0.7306 0.79763 0.0
H437 H 0.85677 0.84858 0.79739 0.0
C438 C 0.79849 0.86919 0.92232 0.0
C439 C 0.77841 0.84918 0.94765 0.0
C440 C 0.76632 0.81038 0.94225 0.0
C441 C 0.77339 0.79202 0.91214 0.0
C442 C 0.79277 0.81271 0.88766 0.0
C443 C 0.80548 0.85029 0.8924 0.0
C444 C 0.82687 0.86536 0.86226 0.0
C445 C 0.80559 0.90053 0.84715 0.0
C446 C 0.86935 0.87521 0.87059 0.0
C447 C 0.82441 0.83019 0.84006 0.0
C448 C 0.80433 0.80033 0.85516 0.0
C449 C 0.79895 0.76461 0.84001 0.0
C450 C 0.81521 0.75891 0.80875 0.0
C451 C 0.83673 0.78876 0.79294 0.0
C452 C 0.84076 0.82506 0.80877 0.0
H453 H 0.21758 0.82779 0.04689 0.0
H454 H 0.1933 0.95103 0.05773 0.0
H455 H 0.16893 0.93934 0.11389 0.0
H456 H 0.13458 0.7933 0.09225 0.0
H457 H 0.16064 0.75348 0.11109 0.0
H458 H 0.17544 0.77146 0.07124 0.0
H459 H 0.24517 0.78268 0.09342 0.0
H460 H 0.23052 0.76496 0.1334 0.0
H461 H 0.25198 0.81245 0.12939 0.0
H462 H 0.14788 0.91482 0.16869 0.0
H463 H 0.13004 0.87822 0.2189 0.0
H464 H 0.16917 0.7713 0.17301 0.0
C465 C 0.20724 0.85229 0.06111 0.0
C466 C 0.20704 0.8902 0.04779 0.0
C467 C 0.19298 0.92156 0.06708 0.0
C468 C 0.17941 0.91532 0.09916 0.0
C469 C 0.18026 0.87763 0.11157 0.0
C470 C 0.19371 0.84662 0.0932 0.0
C471 C 0.19151 0.80901 0.11248 0.0
C472 C 0.16389 0.78012 0.09577 0.0
C473 C 0.23222 0.79124 0.11746 0.0
C474 C 0.17473 0.82382 0.14454 0.0
C475 C 0.16846 0.86348 0.14346 0.0
C476 C 0.15258 0.88374 0.1699 0.0
C477 C 0.14241 0.86274 0.19817 0.0
C478 C 0.14823 0.82203 0.19966 0.0
C479 C 0.16495 0.80247 0.17261 0.0
H480 H 0.99738 0.20006 0.06796 0.0
H481 H 0.9912 0.32246 0.09089 0.0
H482 H 1.0019 0.33878 0.03187 0.0
H483 H 0.07109 0.20472 0.00803 0.0
H484 H 0.05048 0.16906 0.98084 0.0
H485 H 0.0404 0.16689 0.0244 0.0
H486 H 0.96613 0.16917 0.0131 0.0
H487 H 0.97596 0.17033 0.96948 0.0
H488 H 0.94636 0.20773 0.98796 0.0
H489 H 0.01944 0.34114 0.97131 0.0
H490 H 0.0304 0.32971 0.91164 0.0
H491 H 0.02075 0.20577 0.92777 0.0
C492 C 0.99718 0.23017 0.06015 0.0
C493 C 0.99283 0.26016 0.08341 0.0
C494 C 0.99361 0.29935 0.07296 0.0
C495 C 1.00011 0.30875 0.0397 0.0
C496 C 1.00529 0.27848 0.01734 0.0
C497 C 1.00283 0.23996 0.02697 0.0
C498 C 1.00885 0.21294 0.99802 0.0
C499 C 0.04484 0.18688 0.00314 0.0
C500 C 0.97215 0.18862 0.99177 0.0
C501 C 0.01555 0.24225 0.97068 0.0
C502 C 0.01403 0.27988 0.9824 0.0
C503 C 0.02037 0.31182 0.96181 0.0
C504 C 0.02704 0.30513 0.92814 0.0
C505 C 0.02672 0.26693 0.91549 0.0
C506 C 0.02139 0.23518 0.93711 0.0
H507 H 0.77695 0.04135 0.18775 0.0
H508 H 0.83295 0.93132 0.16634 0.0
H509 H 0.83551 0.91597 0.22595 0.0
H510 H 0.82852 0.06391 0.25886 0.0
H511 H 0.78831 0.08334 0.28246 0.0
H512 H 0.78789 0.08602 0.23812 0.0
H513 H 0.72299 0.04982 0.23485 0.0
H514 H 0.72099 0.04812 0.27922 0.0
H515 H 0.71731 1.00391 0.25581 0.0
H516 H 0.83172 0.91275 0.28766 0.0
H517 H 0.82554 0.92348 0.34755 0.0
H518 H 0.77278 0.03625 0.32828 0.0
C519 C 0.78997 0.01425 0.19583 0.0
C520 C 0.80496 0.98756 0.17283 0.0
C521 C 0.82129 0.95199 0.18388 0.0
C522 C 0.82272 0.943 0.21754 0.0
C523 C 0.80709 0.96966 0.23969 0.0
C524 C 0.79091 1.00448 0.22932 0.0
C525 C 0.77624 0.02803 0.25821 0.0
C526 C 0.79645 0.06769 0.25954 0.0
C527 C 0.73174 0.03273 0.25693 0.0
C528 C 0.78831 1.00183 0.2865 0.0
C529 C 0.80529 0.96796 0.27527 0.0
C530 C 0.81858 0.93924 0.29679 0.0
C531 C 0.81507 0.94568 0.33078 0.0
C532 C 0.79884 0.98074 0.34296 0.0
C533 C 0.78484 1.00884 0.32025 0.0
H534 H 0.98888 0.82928 0.58304 0.0
H535 H 0.09495 0.76467 0.60285 0.0
H536 H 0.10428 0.75477 0.54296 0.0
H537 H 0.95532 0.766 0.51889 0.0
H538 H 0.93264 0.80625 0.49772 0.0
H539 H 0.93892 0.80742 0.54181 0.0
H540 H 0.9773 0.87438 0.53256 0.0
H541 H 0.96974 0.8694 0.48892 0.0
H542 H 0.01831 0.87469 0.50504 0.0
H543 H 0.09817 0.7472 0.48113 0.0
H544 H 0.08029 0.74674 0.42243 0.0
H545 H 0.97722 0.81542 0.44425 0.0
C546 C 0.01425 0.81326 0.57486 0.0
C547 C 0.04107 0.7976 0.59763 0.0
C548 C 0.07424 0.77732 0.58585 0.0
C549 C 0.07957 0.77126 0.55191 0.0
C550 C 0.05147 0.78572 0.53031 0.0
C551 C 0.01967 0.80655 0.54136 0.0
C552 C 0.99255 0.8173 0.51352 0.0
C553 C 0.95248 0.79819 0.51825 0.0
C554 C 0.98927 0.86159 0.50972 0.0
C555 C 0.01407 0.7996 0.48489 0.0
C556 C 0.04792 0.78133 0.49501 0.0
C557 C 0.07204 0.76196 0.47293 0.0
C558 C 0.06165 0.76205 0.43958 0.0
C559 C 0.02757 0.78165 0.42859 0.0
C560 C 1.00332 0.80015 0.45177 0.0
H561 H 0.21597 0.03881 0.66243 0.0
H562 H 0.28718 0.93668 0.6466 0.0
H563 H 0.30031 0.9326 0.70686 0.0
H564 H 0.27479 0.0813 0.72432 0.0
H565 H 0.23362 0.10042 0.74669 0.0
H566 H 0.23049 0.09272 0.70277 0.0
H567 H 0.16899 0.04935 0.7129 0.0
H568 H 0.17334 0.05703 0.75664 0.0
H569 H 0.17284 1.00834 0.7405 0.0
H570 H 0.30956 0.94414 0.76776 0.0
H571 H 0.30738 0.96382 0.82598 0.0
H572 H 0.22657 0.05678 0.8012 0.0
C573 C 0.23379 0.01531 0.67195 0.0
C574 C 0.25068 0.98796 0.65059 0.0
C575 C 0.27396 0.95752 0.66317 0.0
C576 C 0.28166 0.95525 0.69708 0.0
C577 C 0.26535 0.98349 0.71756 0.0
C578 C 0.24133 0.01248 0.7055 0.0
C579 C 0.22765 0.03949 0.73235 0.0
C580 C 0.2425 0.08097 0.72618 0.0
C581 C 0.18306 0.03848 0.7358 0.0
C582 C 0.24751 0.02119 0.76165 0.0
C583 C 0.26959 0.98929 0.75257 0.0
C584 C 0.29175 0.96858 0.77525 0.0
C585 C 0.2902 0.97999 0.80829 0.0
C586 C 0.2661 1.01139 0.81842 0.0
C587 C 0.24525 0.0327 0.7945 0.0
H588 H 0.17346 0.20072 0.11272 0.0
H589 H 0.07777 0.12871 0.14629 0.0
H590 H 0.09599 0.07899 0.10476 0.0
H591 H 0.16357 0.1811 0.02757 0.0
H592 H 0.21517 0.18131 0.01943 0.0
H593 H 0.19552 0.20992 0.05265 0.0
H594 H 0.24184 0.17563 0.09398 0.0
H595 H 0.26201 0.14724 0.06085 0.0
H596 H 0.24207 0.12334 0.0967 0.0
H597 H 0.12391 0.03855 0.05679 0.0
H598 H 0.16069 1.00986 0.01033 0.0
H599 H 0.2379 0.1093 0.00977 0.0
C600 C 0.15644 0.17435 0.11169 0.0
C601 C 0.12421 0.16858 0.13288 0.0
C602 C 0.10277 0.13364 0.13052 0.0
C603 C 0.1128 0.10537 0.10687 0.0
C604 C 0.14438 0.11248 0.08591 0.0
C605 C 0.16601 0.14606 0.08841 0.0
C606 C 0.19829 0.14738 0.06297 0.0
C607 C 0.19279 0.18197 0.03926 0.0
C608 C 0.23842 0.14844 0.07963 0.0
C609 C 0.19172 0.10919 0.04564 0.0
C610 C 0.1604 0.08946 0.05898 0.0
C611 C 0.14864 0.05372 0.04642 0.0
C612 C 0.16977 0.03761 0.01997 0.0
C613 C 0.20255 0.05703 0.00648 0.0
C614 C 0.21318 0.09349 0.01948 0.0
H615 H 0.95087 0.14297 0.23722 0.0
H616 H 0.03659 0.20654 0.29342 0.0
H617 H 1.0047 0.18553 0.34527 0.0
H618 H 0.87284 0.17094 0.28606 0.0
H619 H 0.84597 0.12643 0.28465 0.0
H620 H 0.87723 0.13959 0.25073 0.0
H621 H 0.91572 0.0766 0.25463 0.0
H622 H 0.88665 0.05922 0.2887 0.0
H623 H 0.93856 0.06252 0.29283 0.0
H624 H 0.96102 0.15739 0.39193 0.0
H625 H 0.90705 0.13158 0.42671 0.0
H626 H 0.84912 0.09082 0.33877 0.0
C627 C 0.96338 0.15202 0.2604 0.0
C628 C 0.99665 0.17597 0.26112 0.0
C629 C 1.01134 0.18793 0.29211 0.0
C630 C 0.99346 0.176 0.32178 0.0
C631 C 0.96056 0.15244 0.32016 0.0
C632 C 0.94556 0.14097 0.29013 0.0
C633 C 0.90812 0.11861 0.29465 0.0
C634 C 0.87406 0.14012 0.27799 0.0
C635 C 0.9125 0.07679 0.28189 0.0
C636 C 0.90417 0.11919 0.3318 0.0
C637 C 0.9349 0.13824 0.34636 0.0
C638 C 0.93689 0.14242 0.38064 0.0
C639 C 0.90629 0.1275 0.40026 0.0
C640 C 0.87391 0.10933 0.38544 0.0
C641 C 0.87342 0.10474 0.35084 0.0
H642 H 0.86556 0.96614 0.50849 0.0
H643 H 0.7776 0.02673 0.56508 0.0
H644 H 0.80235 0.99591 0.61644 0.0
H645 H 0.85948 0.88015 0.54619 0.0
H646 H 0.91019 0.86753 0.54758 0.0
H647 H 0.89277 0.89976 0.51597 0.0
H648 H 0.94191 0.9506 0.53222 0.0
H649 H 0.96095 0.92348 0.56691 0.0
H650 H 0.94128 0.97116 0.573 0.0
H651 H 0.83248 0.95093 0.66077 0.0
H652 H 0.86288 0.89632 0.69189 0.0
H653 H 0.92962 0.86508 0.60535 0.0
C654 C 0.85249 0.97389 0.5319 0.0
C655 C 0.82029 0.99929 0.53311 0.0
C656 C 0.8029 1.0079 0.56391 0.0
C657 C 0.81676 0.99048 0.59315 0.0
C658 C 0.84824 0.96472 0.59114 0.0
C659 C 0.86611 0.95694 0.56123 0.0
C660 C 0.89731 0.92616 0.56499 0.0
C661 C 0.88945 0.89138 0.5423 0.0
C662 C 0.93773 0.94383 0.55881 0.0
C663 C 0.89235 0.91544 0.60099 0.0
C664 C 0.86487 0.93882 0.61613 0.0
C665 C 0.85449 0.93299 0.64917 0.0
C666 C 0.872 0.90207 0.66676 0.0
C667 C 0.89901 0.87705 0.6511 0.0
C668 C 0.90959 0.88431 0.61801 0.0
H669 H 1.00813 0.81096 0.83688 0.0
H670 H 0.031 0.86082 0.74029 0.0
H671 H 0.08372 0.90038 0.76401 0.0
H672 H 0.02798 0.89811 0.88492 0.0
H673 H 0.05104 0.87144 0.91789 0.0
H674 H 0.01346 0.84889 0.8938 0.0
H675 H 0.06023 0.7921 0.87959 0.0
H676 H 0.09782 0.81434 0.90376 0.0
H677 H 0.10686 0.80253 0.86116 0.0
H678 H 0.13593 0.93263 0.79783 0.0
H679 H 0.1857 0.95212 0.83855 0.0
H680 H 0.12976 0.88082 0.9129 0.0
C681 C 0.02393 0.83047 0.82072 0.0
C682 C 0.01518 0.83284 0.78667 0.0
C683 C 0.03702 0.85843 0.76641 0.0
C684 C 0.06696 0.88118 0.77971 0.0
C685 C 0.07484 0.87806 0.81333 0.0
C686 C 0.05406 0.85321 0.83354 0.0
C687 C 0.06967 0.85375 0.86851 0.0
C688 C 0.03869 0.86896 0.8927 0.0
C689 C 0.08453 0.81328 0.87885 0.0
C690 C 0.10287 0.88234 0.86474 0.0
C691 C 0.10505 0.8964 0.83277 0.0
C692 C 0.13419 0.92213 0.82297 0.0
C693 C 0.1622 0.93318 0.84623 0.0
C694 C 0.16086 0.91855 0.87884 0.0
C695 C 0.13069 0.89309 0.88828 0.0
H696 H 0.18105 0.85181 0.36124 0.0
H697 H 0.06821 0.90484 0.34399 0.0
H698 H 0.08637 0.95958 0.38049 0.0
H699 H 0.18585 0.87221 0.44491 0.0
H700 H 0.23753 0.88096 0.44517 0.0
H701 H 0.21699 0.84896 0.415 0.0
H702 H 0.24744 0.89015 0.36794 0.0
H703 H 0.26838 0.92218 0.39801 0.0
H704 H 0.23762 0.9416 0.36597 0.0
H705 H 0.11666 1.00643 0.42361 0.0
H706 H 0.1552 0.03918 0.46709 0.0
H707 H 0.2466 0.95309 0.45477 0.0
C708 C 0.16026 0.87522 0.36455 0.0
C709 C 0.12323 0.87405 0.34956 0.0
C710 C 0.09692 0.90524 0.35491 0.0
C711 C 0.10697 0.9364 0.37571 0.0
C712 C 0.14352 0.93603 0.39079 0.0
C713 C 0.16976 0.90621 0.38511 0.0
C714 C 0.20628 0.91087 0.40536 0.0
C715 C 0.21197 0.8762 0.429 0.0
C716 C 0.24204 0.91655 0.38298 0.0
C717 C 0.19647 0.94761 0.42391 0.0
C718 C 0.16036 0.96211 0.4152 0.0
C719 C 0.14507 0.99532 0.43032 0.0
C720 C 0.16713 0.01376 0.45502 0.0
C721 C 0.20394 0.99875 0.4645 0.0
C722 C 0.21863 0.9655 0.44827 0.0
H723 H 0.19853 0.14902 0.6476 0.0
H724 H 0.11642 0.09216 0.58287 0.0
H725 H 0.06258 0.11073 0.62078 0.0
H726 H 0.15798 0.12145 0.72273 0.0
H727 H 0.16545 0.16683 0.74369 0.0
H728 H 0.19756 0.15298 0.71074 0.0
H729 H 0.18377 0.21552 0.67855 0.0
H730 H 0.15275 0.23161 0.71173 0.0
H731 H 0.13419 0.2297 0.67027 0.0
H732 H 0.01727 0.13709 0.66696 0.0
H733 H 0.98671 0.1636 0.71774 0.0
H734 H 0.1 0.19921 0.75263 0.0
C735 C 0.16925 0.14054 0.64109 0.0
C736 C 0.16182 0.11915 0.61198 0.0
C737 C 0.12293 0.10863 0.60483 0.0
C738 C 0.09217 0.11914 0.62626 0.0
C739 C 0.10068 0.14021 0.65476 0.0
C740 C 0.13842 0.15071 0.6621 0.0
C741 C 0.14034 0.17279 0.69435 0.0
C742 C 0.16689 0.15219 0.71936 0.0
C743 C 0.15354 0.2149 0.68836 0.0
C744 C 0.09813 0.17149 0.70502 0.0
C745 C 0.07535 0.15366 0.68149 0.0
C746 C 0.03506 0.15074 0.68554 0.0
C747 C 0.0179 0.16593 0.71442 0.0
C748 C 0.04108 0.18288 0.73931 0.0
C749 C 0.08166 0.18574 0.73431 0.0
H750 H 0.87064 0.19303 0.89891 0.0
H751 H 0.94224 0.11507 0.8406 0.0
H752 H 0.92075 0.05979 0.87589 0.0
H753 H 0.88826 0.14761 0.97752 0.0
H754 H 0.83945 0.15683 0.99198 0.0
H755 H 0.86158 0.1892 0.96246 0.0
H756 H 0.80342 0.17891 0.92281 0.0
H757 H 0.78122 0.14645 0.95216 0.0
H758 H 0.79062 0.1303 0.91067 0.0
H759 H 0.88921 0.01255 0.91915 0.0
H760 H 0.85124 0.9798 0.96343 0.0
H761 H 0.80115 0.09086 0.99107 0.0
C762 C 0.88203 0.16442 0.89335 0.0
C763 C 0.90815 0.1585 0.86679 0.0
C764 C 0.92219 0.12041 0.86074 0.0
C765 C 0.91013 0.08886 0.88072 0.0
C766 C 0.88415 0.09594 0.9067 0.0
C767 C 0.87044 0.13299 0.91289 0.0
C768 C 0.84258 0.13366 0.94181 0.0
C769 C 0.85895 0.15828 0.97011 0.0
C770 C 0.80207 0.14817 0.93121 0.0
C771 C 0.84195 0.09104 0.95086 0.0
C772 C 0.86629 0.06952 0.9307 0.0
C773 C 0.87016 0.02933 0.93496 0.0
C774 C 0.84852 1.01095 0.96023 0.0
C775 C 0.82302 0.03266 0.98072 0.0
C776 C 0.82008 0.07323 0.97579 0.0
H777 H 0.92378 0.77684 0.23085 0.0
H778 H 0.01952 0.85866 0.22916 0.0
H779 H 0.99031 0.89148 0.18079 0.0
H780 H 0.91328 0.76753 0.14355 0.0
H781 H 0.86093 0.76477 0.14504 0.0
H782 H 0.88934 0.74804 0.17957 0.0
H783 H 0.85136 0.7944 0.2184 0.0
H784 H 0.82259 0.81101 0.18407 0.0
H785 H 0.84893 0.84549 0.20865 0.0
H786 H 0.94945 0.91558 0.13176 0.0
H787 H 0.89964 0.93011 0.08931 0.0
H788 H 0.83203 0.83161 0.12355 0.0
C789 C 0.93866 0.80173 0.22046 0.0
C790 C 0.9741 0.81501 0.23392 0.0
C791 C 0.99241 0.84779 0.21939 0.0
C792 C 0.97605 0.86662 0.19181 0.0
C793 C 0.94129 0.85242 0.17895 0.0
C794 C 0.92276 0.82083 0.19302 0.0
C795 C 0.8855 0.8114 0.17496 0.0
C796 C 0.8874 0.77051 0.15989 0.0
C797 C 0.85001 0.81586 0.19788 0.0
C798 C 0.88589 0.84252 0.14847 0.0
C799 C 0.91825 0.86596 0.15102 0.0
C800 C 0.92412 0.89723 0.1295 0.0
C801 C 0.8958 0.90512 0.10529 0.0
C802 C 0.86201 0.88186 0.10278 0.0
C803 C 0.85761 0.84984 0.12447 0.0
loop_
_geom_bond_atom_site_label_1
_geom_bond_atom_site_label_2
_geom_bond_distance
_geom_bond_site_symmetry_2
_ccdc_geom_bond_type
C0 C1 1.351 . S
C0 N3 1.368 . S
C0 H5 0.931 . S
C1 C0 1.351 . S
C1 N2 1.373 . S
C1 H29 0.930 . S
N2 C1 1.373 . S
N2 C4 1.340 . S
N3 C0 1.368 . S
N3 C4 1.321 . S
N3 Co6 2.135 . S
C4 N2 1.340 . S
C4 N3 1.321 . S
C4 H28 0.930 . S
H5 C0 0.931 . S
Co6 N3 2.135 . S
Co6 N9 2.121 . S
Co6 O14 2.055 . S
Co6 O17 2.039 . S
Co6 N20 2.140 . S
C7 O8 1.227 . S
C7 O17 1.265 . S
O8 C7 1.227 . S
N9 Co6 2.121 . S
N9 C11 1.375 . S
N9 C12 1.313 . S
C10 C11 1.338 1_655 S
C10 N13 1.377 1_655 S
C10 H30 0.930 . S
C11 N9 1.375 . S
C11 C10 1.338 1_455 S
C11 H15 0.931 1_455 S
C12 N9 1.313 . S
C12 N13 1.344 . S
C12 H16 0.930 . S
N13 C10 1.377 1_455 S
N13 C12 1.344 . S
O14 Co6 2.055 . S
O14 C18 1.253 . S
H15 C11 0.931 1_655 S
H16 C12 0.930 . S
O17 Co6 2.039 . S
O17 C7 1.265 . S
C18 O14 1.253 . S
C18 O19 1.227 . S
O19 C18 1.227 . S
N20 Co6 2.140 . S
N20 C23 1.346 . S
N20 C24 1.345 . S
C21 C22 1.387 . S
C21 C25 1.391 . S
C22 C21 1.387 . S
C22 C23 1.369 . S
C22 H31 0.929 . S
C23 N20 1.346 . S
C23 C22 1.369 . S
C23 H26 0.928 . S
C24 N20 1.345 . S
C24 C25 1.371 . S
C24 H27 0.931 . S
C25 C21 1.391 . S
C25 C24 1.371 . S
C25 H32 0.930 . S
H26 C23 0.928 . S
H27 C24 0.931 . S
H28 C4 0.930 . S
H29 C1 0.930 . S
H30 C10 0.930 . S
H31 C22 0.929 . S
H32 C25 0.930 . S
C33 C34 1.351 . S
C33 N36 1.368 . S
C33 H38 0.931 . S
C34 C33 1.351 . S
C34 N35 1.373 . S
C34 H62 0.930 . S
N35 C34 1.373 . S
N35 C37 1.340 . S
N36 C33 1.368 . S
N36 C37 1.321 . S
N36 Co39 2.135 . S
C37 N35 1.340 . S
C37 N36 1.321 . S
C37 H61 0.930 . S
H38 C33 0.931 . S
Co39 N36 2.135 . S
Co39 N42 2.121 . S
Co39 O47 2.055 . S
Co39 O50 2.039 . S
Co39 N53 2.140 . S
C40 O41 1.227 . S
C40 O50 1.265 . S
O41 C40 1.227 . S
N42 Co39 2.121 . S
N42 C44 1.375 . S
N42 C45 1.313 . S
C43 C44 1.338 1_565 S
C43 N46 1.377 1_565 S
C43 H63 0.930 . S
C44 N42 1.375 . S
C44 C43 1.338 1_545 S
C44 H48 0.931 1_545 S
C45 N42 1.313 . S
C45 N46 1.344 . S
C45 H49 0.930 . S
N46 C43 1.377 1_545 S
N46 C45 1.344 . S
O47 Co39 2.055 . S
O47 C51 1.253 . S
H48 C44 0.931 1_565 S
H49 C45 0.930 . S
O50 Co39 2.039 . S
O50 C40 1.265 . S
C51 O47 1.253 . S
C51 O52 1.227 . S
O52 C51 1.227 . S
N53 Co39 2.140 . S
N53 C56 1.346 . S
N53 C57 1.345 . S
C54 C55 1.387 . S
C54 C58 1.391 . S
C55 C54 1.387 . S
C55 C56 1.369 . S
C55 H64 0.929 . S
C56 N53 1.346 . S
C56 C55 1.369 . S
C56 H59 0.928 . S
C57 N53 1.345 . S
C57 C58 1.371 . S
C57 H60 0.931 . S
C58 C54 1.391 . S
C58 C57 1.371 . S
C58 H65 0.930 . S
H59 C56 0.928 . S
H60 C57 0.931 . S
H61 C37 0.930 . S
H62 C34 0.930 . S
H63 C43 0.930 . S
H64 C55 0.929 . S
H65 C58 0.930 . S
C66 C67 1.351 . S
C66 N69 1.368 . S
C66 H71 0.931 . S
C67 C66 1.351 . S
C67 N68 1.373 . S
C67 H95 0.930 . S
N68 C67 1.373 . S
N68 C70 1.340 . S
N69 C66 1.368 . S
N69 C70 1.321 . S
N69 Co72 2.135 . S
C70 N68 1.340 . S
C70 N69 1.321 . S
C70 H94 0.930 . S
H71 C66 0.931 . S
Co72 N69 2.135 . S
Co72 N75 2.121 . S
Co72 O80 2.055 . S
Co72 O83 2.039 . S
Co72 N86 2.140 . S
C73 O74 1.227 . S
C73 O83 1.265 . S
O74 C73 1.227 . S
N75 Co72 2.121 . S
N75 C77 1.375 . S
N75 C78 1.313 . S
C76 C77 1.338 1_455 S
C76 N79 1.377 1_455 S
C76 H96 0.930 . S
C77 N75 1.375 . S
C77 C76 1.338 1_655 S
C77 H81 0.931 1_655 S
C78 N75 1.313 . S
C78 N79 1.344 . S
C78 H82 0.930 . S
N79 C76 1.377 1_655 S
N79 C78 1.344 . S
O80 Co72 2.055 . S
O80 C84 1.253 . S
H81 C77 0.931 1_455 S
H82 C78 0.930 . S
O83 Co72 2.039 . S
O83 C73 1.265 . S
C84 O80 1.253 . S
C84 O85 1.227 . S
O85 C84 1.227 . S
N86 Co72 2.140 . S
N86 C89 1.346 . S
N86 C90 1.345 . S
C87 C88 1.387 . S
C87 C91 1.391 . S
C88 C87 1.387 . S
C88 C89 1.369 . S
C88 H97 0.929 . S
C89 N86 1.346 . S
C89 C88 1.369 . S
C89 H92 0.928 . S
C90 N86 1.345 . S
C90 C91 1.371 . S
C90 H93 0.931 . S
C91 C87 1.391 . S
C91 C90 1.371 . S
C91 H98 0.930 . S
H92 C89 0.928 . S
H93 C90 0.931 . S
H94 C70 0.930 . S
H95 C67 0.930 . S
H96 C76 0.930 . S
H97 C88 0.929 . S
H98 C91 0.930 . S
C99 C100 1.351 1_556 S
C99 N102 1.368 . S
C99 H104 0.931 . S
C100 C99 1.351 1_554 S
C100 N101 1.373 . S
C100 H128 0.930 . S
N101 C100 1.373 . S
N101 C103 1.340 . S
N102 C99 1.368 . S
N102 C103 1.321 1_556 S
N102 Co105 2.135 . S
C103 N101 1.340 . S
C103 N102 1.321 1_554 S
C103 H127 0.930 . S
H104 C99 0.931 . S
Co105 N102 2.135 . S
Co105 N108 2.121 . S
Co105 O113 2.055 . S
Co105 O116 2.039 . S
Co105 N119 2.140 . S
C106 O107 1.226 . S
C106 O116 1.265 . S
O107 C106 1.226 . S
N108 Co105 2.121 . S
N108 C110 1.375 . S
N108 C111 1.313 . S
C109 C110 1.338 1_545 S
C109 N112 1.377 1_545 S
C109 H129 0.930 . S
C110 N108 1.375 . S
C110 C109 1.338 1_565 S
C110 H114 0.931 1_565 S
C111 N108 1.313 . S
C111 N112 1.344 . S
C111 H115 0.930 . S
N112 C109 1.377 1_565 S
N112 C111 1.344 . S
O113 Co105 2.055 . S
O113 C117 1.253 . S
H114 C110 0.931 1_545 S
H115 C111 0.930 . S
O116 Co105 2.039 . S
O116 C106 1.265 . S
C117 O113 1.253 . S
C117 O118 1.227 . S
O118 C117 1.227 . S
N119 Co105 2.140 . S
N119 C122 1.346 . S
N119 C123 1.345 . S
C120 C121 1.387 . S
C120 C124 1.391 . S
C121 C120 1.387 . S
C121 C122 1.369 . S
C121 H130 0.929 1_556 S
C122 N119 1.346 . S
C122 C121 1.369 . S
C122 H125 0.928 1_556 S
C123 N119 1.345 . S
C123 C124 1.371 . S
C123 H126 0.931 . S
C124 C120 1.391 . S
C124 C123 1.371 . S
C124 H131 0.930 . S
H125 C122 0.928 1_554 S
H126 C123 0.931 . S
H127 C103 0.930 . S
H128 C100 0.930 . S
H129 C109 0.930 . S
H130 C121 0.929 1_554 S
H131 C124 0.930 . S
C132 C133 1.351 . S
C132 N135 1.368 . S
C132 H137 0.931 . S
C133 C132 1.351 . S
C133 N134 1.373 . S
C133 H161 0.930 . S
N134 C133 1.373 . S
N134 C136 1.340 . S
N135 C132 1.368 . S
N135 C136 1.321 . S
N135 Co138 2.135 . S
C136 N134 1.340 . S
C136 N135 1.321 . S
C136 H160 0.930 . S
H137 C132 0.931 . S
Co138 N135 2.135 . S
Co138 N141 2.121 . S
Co138 O146 2.055 . S
Co138 O149 2.039 . S
Co138 N152 2.140 . S
C139 O140 1.227 . S
C139 O149 1.265 . S
O140 C139 1.227 . S
N141 Co138 2.121 . S
N141 C143 1.375 . S
N141 C144 1.313 . S
C142 C143 1.338 1_655 S
C142 N145 1.377 1_655 S
C142 H162 0.930 . S
C143 N141 1.375 . S
C143 C142 1.338 1_455 S
C143 H147 0.931 1_455 S
C144 N141 1.313 . S
C144 N145 1.344 . S
C144 H148 0.930 . S
N145 C142 1.377 1_455 S
N145 C144 1.344 . S
O146 Co138 2.055 . S
O146 C150 1.253 . S
H147 C143 0.931 1_655 S
H148 C144 0.930 . S
O149 Co138 2.039 . S
O149 C139 1.265 . S
C150 O146 1.253 . S
C150 O151 1.227 . S
O151 C150 1.227 . S
N152 Co138 2.140 . S
N152 C155 1.346 . S
N152 C156 1.345 . S
C153 C154 1.387 . S
C153 C157 1.391 . S
C154 C153 1.387 . S
C154 C155 1.369 . S
C154 H163 0.929 . S
C155 N152 1.346 . S
C155 C154 1.369 . S
C155 H158 0.928 . S
C156 N152 1.345 . S
C156 C157 1.371 . S
C156 H159 0.931 . S
C157 C153 1.391 . S
C157 C156 1.371 . S
C157 H164 0.930 . S
H158 C155 0.928 . S
H159 C156 0.931 . S
H160 C136 0.930 . S
H161 C133 0.930 . S
H162 C142 0.930 . S
H163 C154 0.929 . S
H164 C157 0.930 . S
C165 C166 1.351 . S
C165 N168 1.368 . S
C165 H170 0.931 . S
C166 C165 1.351 . S
C166 N167 1.373 . S
C166 H194 0.930 . S
N167 C166 1.373 . S
N167 C169 1.340 . S
N168 C165 1.368 . S
N168 C169 1.321 . S
N168 Co171 2.135 . S
C169 N167 1.340 . S
C169 N168 1.321 . S
C169 H193 0.930 . S
H170 C165 0.931 . S
Co171 N168 2.135 . S
Co171 N174 2.121 . S
Co171 O179 2.055 . S
Co171 O182 2.039 . S
Co171 N185 2.140 . S
C172 O173 1.227 . S
C172 O182 1.265 . S
O173 C172 1.227 . S
N174 Co171 2.121 . S
N174 C176 1.375 . S
N174 C177 1.313 . S
C175 C176 1.338 1_565 S
C175 N178 1.377 1_565 S
C175 H195 0.930 . S
C176 N174 1.375 . S
C176 C175 1.338 1_545 S
C176 H180 0.931 1_545 S
C177 N174 1.313 . S
C177 N178 1.344 . S
C177 H181 0.930 . S
N178 C175 1.377 1_545 S
N178 C177 1.344 . S
O179 Co171 2.055 . S
O179 C183 1.253 . S
H180 C176 0.931 1_565 S
H181 C177 0.930 . S
O182 Co171 2.039 . S
O182 C172 1.265 . S
C183 O179 1.253 . S
C183 O184 1.227 . S
O184 C183 1.227 . S
N185 Co171 2.140 . S
N185 C188 1.346 . S
N185 C189 1.345 . S
C186 C187 1.387 . S
C186 C190 1.391 . S
C187 C186 1.387 . S
C187 C188 1.369 . S
C187 H196 0.929 . S
C188 N185 1.346 . S
C188 C187 1.369 . S
C188 H191 0.928 . S
C189 N185 1.345 . S
C189 C190 1.371 . S
C189 H192 0.931 . S
C190 C186 1.391 . S
C190 C189 1.371 . S
C190 H197 0.930 . S
H191 C188 0.928 . S
H192 C189 0.931 . S
H193 C169 0.930 . S
H194 C166 0.930 . S
H195 C175 0.930 . S
H196 C187 0.929 . S
H197 C190 0.930 . S
C198 C199 1.351 . S
C198 N201 1.368 . S
C198 H203 0.931 . S
C199 C198 1.351 . S
C199 N200 1.373 . S
C199 H227 0.930 . S
N200 C199 1.373 . S
N200 C202 1.340 . S
N201 C198 1.368 . S
N201 C202 1.321 . S
N201 Co204 2.135 . S
C202 N200 1.340 . S
C202 N201 1.321 . S
C202 H226 0.930 . S
H203 C198 0.931 . S
Co204 N201 2.135 . S
Co204 N207 2.121 . S
Co204 O212 2.055 . S
Co204 O215 2.039 . S
Co204 N218 2.140 . S
C205 O206 1.227 . S
C205 O215 1.265 . S
O206 C205 1.227 . S
N207 Co204 2.121 . S
N207 C209 1.375 . S
N207 C210 1.313 . S
C208 C209 1.338 1_455 S
C208 N211 1.377 1_455 S
C208 H228 0.930 . S
C209 N207 1.375 . S
C209 C208 1.338 1_655 S
C209 H213 0.931 1_655 S
C210 N207 1.313 . S
C210 N211 1.344 . S
C210 H214 0.930 . S
N211 C208 1.377 1_655 S
N211 C210 1.344 . S
O212 Co204 2.055 . S
O212 C216 1.253 . S
H213 C209 0.931 1_455 S
H214 C210 0.930 . S
O215 Co204 2.039 . S
O215 C205 1.265 . S
C216 O212 1.253 . S
C216 O217 1.227 . S
O217 C216 1.227 . S
N218 Co204 2.140 . S
N218 C221 1.346 . S
N218 C222 1.345 . S
C219 C220 1.387 . S
C219 C223 1.391 . S
C220 C219 1.387 . S
C220 C221 1.369 . S
C220 H229 0.929 . S
C221 N218 1.346 . S
C221 C220 1.369 . S
C221 H224 0.928 . S
C222 N218 1.345 . S
C222 C223 1.371 . S
C222 H225 0.931 . S
C223 C219 1.391 . S
C223 C222 1.371 . S
C223 H230 0.930 . S
H224 C221 0.928 . S
H225 C222 0.931 . S
H226 C202 0.930 . S
H227 C199 0.930 . S
H228 C208 0.930 . S
H229 C220 0.929 . S
H230 C223 0.930 . S
C231 C232 1.351 1_554 S
C231 N234 1.368 . S
C231 H236 0.931 . S
C232 C231 1.351 1_556 S
C232 N233 1.373 . S
C232 H260 0.930 . S
N233 C232 1.373 . S
N233 C235 1.340 . S
N234 C231 1.368 . S
N234 C235 1.321 1_554 S
N234 Co237 2.135 . S
C235 N233 1.340 . S
C235 N234 1.321 1_556 S
C235 H259 0.930 . S
H236 C231 0.931 . S
Co237 N234 2.135 . S
Co237 N240 2.121 . S
Co237 O245 2.055 . S
Co237 O248 2.039 . S
Co237 N251 2.140 . S
C238 O239 1.226 . S
C238 O248 1.265 . S
O239 C238 1.226 . S
N240 Co237 2.121 . S
N240 C242 1.375 . S
N240 C243 1.313 . S
C241 C242 1.338 1_545 S
C241 N244 1.377 1_545 S
C241 H261 0.930 . S
C242 N240 1.375 . S
C242 C241 1.338 1_565 S
C242 H246 0.931 1_565 S
C243 N240 1.313 . S
C243 N244 1.344 . S
C243 H247 0.930 . S
N244 C241 1.377 1_565 S
N244 C243 1.344 . S
O245 Co237 2.055 . S
O245 C249 1.253 . S
H246 C242 0.931 1_545 S
H247 C243 0.930 . S
O248 Co237 2.039 . S
O248 C238 1.265 . S
C249 O245 1.253 . S
C249 O250 1.227 . S
O250 C249 1.227 . S
N251 Co237 2.140 . S
N251 C254 1.346 . S
N251 C255 1.345 . S
C252 C253 1.387 . S
C252 C256 1.391 . S
C253 C252 1.387 . S
C253 C254 1.369 . S
C253 H262 0.929 1_554 S
C254 N251 1.346 . S
C254 C253 1.369 . S
C254 H257 0.928 1_554 S
C255 N251 1.345 . S
C255 C256 1.371 . S
C255 H258 0.931 . S
C256 C252 1.391 . S
C256 C255 1.371 . S
C256 H263 0.930 . S
H257 C254 0.928 1_556 S
H258 C255 0.931 . S
H259 C235 0.930 . S
H260 C232 0.930 . S
H261 C241 0.930 . S
H262 C253 0.929 1_556 S
H263 C256 0.930 . S
H264 C276 0.930 . S
H265 C278 0.930 . S
H266 C279 0.930 . S
H267 C283 0.959 . S
H268 C283 0.959 . S
H269 C283 0.961 . S
H270 C284 0.960 . S
H271 C284 0.961 . S
H272 C284 0.959 . S
H273 C287 0.929 . S
H274 C288 0.931 . S
H275 C290 0.930 . S
C276 H264 0.930 . S
C276 C277 1.399 . S
C276 C281 1.399 . S
C277 C276 1.399 . S
C277 C278 1.376 . S
C278 H265 0.930 . S
C278 C277 1.376 . S
C278 C279 1.388 . S
C279 H266 0.930 . S
C279 C278 1.388 . S
C279 C280 1.390 . S
C280 C279 1.390 . S
C280 C281 1.394 . S
C280 C286 1.465 . S
C281 C276 1.399 . S
C281 C280 1.394 . S
C281 C282 1.516 . S
C282 C281 1.516 . S
C282 C283 1.502 . S
C282 C284 1.561 . S
C282 C285 1.526 . S
C283 H267 0.959 . S
C283 H268 0.959 . S
C283 H269 0.961 . S
C283 C282 1.502 . S
C284 H270 0.960 . S
C284 H271 0.961 . S
C284 H272 0.959 . S
C284 C282 1.561 . S
C285 C282 1.526 . S
C285 C286 1.396 . S
C285 C290 1.390 . S
C286 C280 1.465 . S
C286 C285 1.396 . S
C286 C287 1.399 . S
C287 H273 0.929 . S
C287 C286 1.399 . S
C287 C288 1.385 . S
C288 H274 0.931 . S
C288 C287 1.385 . S
C288 C289 1.389 . S
C289 C288 1.389 . S
C289 C290 1.387 . S
C290 H275 0.930 . S
C290 C285 1.390 . S
C290 C289 1.387 . S
H291 C303 0.930 . S
H292 C305 0.930 . S
H293 C306 0.930 . S
H294 C310 0.959 . S
H295 C310 0.959 . S
H296 C310 0.961 . S
H297 C311 0.960 . S
H298 C311 0.961 . S
H299 C311 0.959 . S
H300 C314 0.929 . S
H301 C315 0.931 . S
H302 C317 0.930 . S
C303 H291 0.930 . S
C303 C304 1.399 . S
C303 C308 1.399 . S
C304 C303 1.399 . S
C304 C305 1.376 . S
C305 H292 0.930 . S
C305 C304 1.376 . S
C305 C306 1.388 . S
C306 H293 0.930 . S
C306 C305 1.388 . S
C306 C307 1.390 . S
C307 C306 1.390 . S
C307 C308 1.394 . S
C307 C313 1.465 . S
C308 C303 1.399 . S
C308 C307 1.394 . S
C308 C309 1.516 . S
C309 C308 1.516 . S
C309 C310 1.502 . S
C309 C311 1.561 . S
C309 C312 1.526 . S
C310 H294 0.959 . S
C310 H295 0.959 . S
C310 H296 0.961 . S
C310 C309 1.502 . S
C311 H297 0.960 . S
C311 H298 0.961 . S
C311 H299 0.959 . S
C311 C309 1.561 . S
C312 C309 1.526 . S
C312 C313 1.396 . S
C312 C317 1.390 . S
C313 C307 1.465 . S
C313 C312 1.396 . S
C313 C314 1.399 . S
C314 H300 0.929 . S
C314 C313 1.399 . S
C314 C315 1.385 . S
C315 H301 0.931 . S
C315 C314 1.385 . S
C315 C316 1.389 . S
C316 C315 1.389 . S
C316 C317 1.387 . S
C317 H302 0.930 . S
C317 C312 1.390 . S
C317 C316 1.387 . S
H318 C330 0.930 . S
H319 C332 0.930 . S
H320 C333 0.930 . S
H321 C337 0.959 . S
H322 C337 0.959 . S
H323 C337 0.961 . S
H324 C338 0.960 . S
H325 C338 0.961 . S
H326 C338 0.959 . S
H327 C341 0.929 . S
H328 C342 0.931 . S
H329 C344 0.930 . S
C330 H318 0.930 . S
C330 C331 1.399 . S
C330 C335 1.399 . S
C331 C330 1.399 . S
C331 C332 1.376 . S
C332 H319 0.930 . S
C332 C331 1.376 . S
C332 C333 1.388 . S
C333 H320 0.930 . S
C333 C332 1.388 . S
C333 C334 1.390 . S
C334 C333 1.390 . S
C334 C335 1.394 . S
C334 C340 1.465 . S
C335 C330 1.399 . S
C335 C334 1.394 . S
C335 C336 1.516 . S
C336 C335 1.516 . S
C336 C337 1.502 . S
C336 C338 1.561 . S
C336 C339 1.526 . S
C337 H321 0.959 . S
C337 H322 0.959 . S
C337 H323 0.961 . S
C337 C336 1.502 . S
C338 H324 0.960 . S
C338 H325 0.961 . S
C338 H326 0.959 . S
C338 C336 1.561 . S
C339 C336 1.526 . S
C339 C340 1.396 . S
C339 C344 1.390 . S
C340 C334 1.465 . S
C340 C339 1.396 . S
C340 C341 1.399 . S
C341 H327 0.929 . S
C341 C340 1.399 . S
C341 C342 1.385 . S
C342 H328 0.931 . S
C342 C341 1.385 . S
C342 C343 1.389 . S
C343 C342 1.389 . S
C343 C344 1.387 . S
C344 H329 0.930 . S
C344 C339 1.390 . S
C344 C343 1.387 . S
H345 C357 0.930 . S
H346 C359 0.930 . S
H347 C360 0.930 . S
H348 C364 0.959 . S
H349 C364 0.959 . S
H350 C364 0.961 . S
H351 C365 0.959 . S
H352 C365 0.961 . S
H353 C365 0.959 . S
H354 C368 0.929 . S
H355 C369 0.931 . S
H356 C371 0.930 . S
C357 H345 0.930 . S
C357 C358 1.399 . S
C357 C362 1.399 . S
C358 C357 1.399 . S
C358 C359 1.376 . S
C359 H346 0.930 . S
C359 C358 1.376 . S
C359 C360 1.388 1_556 S
C360 H347 0.930 . S
C360 C359 1.388 1_554 S
C360 C361 1.390 . S
C361 C360 1.390 . S
C361 C362 1.394 1_554 S
C361 C367 1.465 . S
C362 C357 1.399 . S
C362 C361 1.394 1_556 S
C362 C363 1.516 . S
C363 C362 1.516 . S
C363 C364 1.502 . S
C363 C365 1.561 1_556 S
C363 C366 1.526 1_556 S
C364 H348 0.959 . S
C364 H349 0.959 . S
C364 H350 0.961 . S
C364 C363 1.502 . S
C365 H351 0.959 . S
C365 H352 0.961 . S
C365 H353 0.959 . S
C365 C363 1.561 1_554 S
C366 C363 1.526 1_554 S
C366 C367 1.396 . S
C366 C371 1.390 . S
C367 C361 1.465 . S
C367 C366 1.396 . S
C367 C368 1.399 . S
C368 H354 0.929 . S
C368 C367 1.399 . S
C368 C369 1.385 . S
C369 H355 0.931 . S
C369 C368 1.385 . S
C369 C370 1.389 . S
C370 C369 1.389 . S
C370 C371 1.387 . S
C371 H356 0.930 . S
C371 C366 1.390 . S
C371 C370 1.387 . S
H372 C384 0.930 . S
H373 C386 0.930 . S
H374 C387 0.930 . S
H375 C391 0.959 . S
H376 C391 0.959 . S
H377 C391 0.961 . S
H378 C392 0.960 . S
H379 C392 0.961 . S
H380 C392 0.959 . S
H381 C395 0.929 . S
H382 C396 0.931 . S
H383 C398 0.930 . S
C384 H372 0.930 . S
C384 C385 1.399 . S
C384 C389 1.399 . S
C385 C384 1.399 . S
C385 C386 1.376 . S
C386 H373 0.930 . S
C386 C385 1.376 . S
C386 C387 1.388 . S
C387 H374 0.930 . S
C387 C386 1.388 . S
C387 C388 1.390 . S
C388 C387 1.390 . S
C388 C389 1.394 . S
C388 C394 1.465 . S
C389 C384 1.399 . S
C389 C388 1.394 . S
C389 C390 1.516 . S
C390 C389 1.516 . S
C390 C391 1.502 . S
C390 C392 1.561 . S
C390 C393 1.526 . S
C391 H375 0.959 . S
C391 H376 0.959 . S
C391 H377 0.961 . S
C391 C390 1.502 . S
C392 H378 0.960 . S
C392 H379 0.961 . S
C392 H380 0.959 . S
C392 C390 1.561 . S
C393 C390 1.526 . S
C393 C394 1.396 . S
C393 C398 1.390 . S
C394 C388 1.465 . S
C394 C393 1.396 . S
C394 C395 1.399 . S
C395 H381 0.929 . S
C395 C394 1.399 . S
C395 C396 1.385 . S
C396 H382 0.931 . S
C396 C395 1.385 . S
C396 C397 1.389 . S
C397 C396 1.389 . S
C397 C398 1.387 . S
C398 H383 0.930 . S
C398 C393 1.390 . S
C398 C397 1.387 . S
H399 C411 0.930 . S
H400 C413 0.930 . S
H401 C414 0.930 . S
H402 C418 0.959 . S
H403 C418 0.959 . S
H404 C418 0.961 . S
H405 C419 0.960 . S
H406 C419 0.961 . S
H407 C419 0.959 . S
H408 C422 0.929 . S
H409 C423 0.931 . S
H410 C425 0.930 . S
C411 H399 0.930 . S
C411 C412 1.399 . S
C411 C416 1.399 . S
C412 C411 1.399 . S
C412 C413 1.376 . S
C413 H400 0.930 . S
C413 C412 1.376 . S
C413 C414 1.388 . S
C414 H401 0.930 . S
C414 C413 1.388 . S
C414 C415 1.390 . S
C415 C414 1.390 . S
C415 C416 1.394 . S
C415 C421 1.465 . S
C416 C411 1.399 . S
C416 C415 1.394 . S
C416 C417 1.516 . S
C417 C416 1.516 . S
C417 C418 1.502 . S
C417 C419 1.561 . S
C417 C420 1.526 . S
C418 H402 0.959 . S
C418 H403 0.959 . S
C418 H404 0.961 . S
C418 C417 1.502 . S
C419 H405 0.960 . S
C419 H406 0.961 . S
C419 H407 0.959 . S
C419 C417 1.561 . S
C420 C417 1.526 . S
C420 C421 1.396 . S
C420 C425 1.390 . S
C421 C415 1.465 . S
C421 C420 1.396 . S
C421 C422 1.399 . S
C422 H408 0.929 . S
C422 C421 1.399 . S
C422 C423 1.385 . S
C423 H409 0.931 . S
C423 C422 1.385 . S
C423 C424 1.389 . S
C424 C423 1.389 . S
C424 C425 1.387 . S
C425 H410 0.930 . S
C425 C420 1.390 . S
C425 C424 1.387 . S
H426 C438 0.930 . S
H427 C440 0.930 . S
H428 C441 0.930 . S
H429 C445 0.959 . S
H430 C445 0.959 . S
H431 C445 0.961 . S
H432 C446 0.960 . S
H433 C446 0.961 . S
H434 C446 0.959 . S
H435 C449 0.929 . S
H436 C450 0.931 . S
H437 C452 0.930 . S
C438 H426 0.930 . S
C438 C439 1.399 . S
C438 C443 1.399 . S
C439 C438 1.399 . S
C439 C440 1.376 . S
C440 H427 0.930 . S
C440 C439 1.376 . S
C440 C441 1.388 . S
C441 H428 0.930 . S
C441 C440 1.388 . S
C441 C442 1.390 . S
C442 C441 1.390 . S
C442 C443 1.394 . S
C442 C448 1.465 . S
C443 C438 1.399 . S
C443 C442 1.394 . S
C443 C444 1.516 . S
C444 C443 1.516 . S
C444 C445 1.502 . S
C444 C446 1.561 . S
C444 C447 1.526 . S
C445 H429 0.959 . S
C445 H430 0.959 . S
C445 H431 0.961 . S
C445 C444 1.502 . S
C446 H432 0.960 . S
C446 H433 0.961 . S
C446 H434 0.959 . S
C446 C444 1.561 . S
C447 C444 1.526 . S
C447 C448 1.396 . S
C447 C452 1.390 . S
C448 C442 1.465 . S
C448 C447 1.396 . S
C448 C449 1.399 . S
C449 H435 0.929 . S
C449 C448 1.399 . S
C449 C450 1.385 . S
C450 H436 0.931 . S
C450 C449 1.385 . S
C450 C451 1.389 . S
C451 C450 1.389 . S
C451 C452 1.387 . S
C452 H437 0.930 . S
C452 C447 1.390 . S
C452 C451 1.387 . S
H453 C465 0.930 . S
H454 C467 0.930 . S
H455 C468 0.930 . S
H456 C472 0.959 . S
H457 C472 0.959 . S
H458 C472 0.961 . S
H459 C473 0.960 . S
H460 C473 0.961 . S
H461 C473 0.959 . S
H462 C476 0.929 . S
H463 C477 0.931 . S
H464 C479 0.930 . S
C465 H453 0.930 . S
C465 C466 1.399 . S
C465 C470 1.399 . S
C466 C465 1.399 . S
C466 C467 1.376 . S
C467 H454 0.930 . S
C467 C466 1.376 . S
C467 C468 1.388 . S
C468 H455 0.930 . S
C468 C467 1.388 . S
C468 C469 1.390 . S
C469 C468 1.390 . S
C469 C470 1.394 . S
C469 C475 1.465 . S
C470 C465 1.399 . S
C470 C469 1.394 . S
C470 C471 1.516 . S
C471 C470 1.516 . S
C471 C472 1.502 . S
C471 C473 1.561 . S
C471 C474 1.526 . S
C472 H456 0.959 . S
C472 H457 0.959 . S
C472 H458 0.961 . S
C472 C471 1.502 . S
C473 H459 0.960 . S
C473 H460 0.961 . S
C473 H461 0.959 . S
C473 C471 1.561 . S
C474 C471 1.526 . S
C474 C475 1.396 . S
C474 C479 1.390 . S
C475 C469 1.465 . S
C475 C474 1.396 . S
C475 C476 1.399 . S
C476 H462 0.929 . S
C476 C475 1.399 . S
C476 C477 1.385 . S
C477 H463 0.931 . S
C477 C476 1.385 . S
C477 C478 1.389 . S
C478 C477 1.389 . S
C478 C479 1.387 . S
C479 H464 0.930 . S
C479 C474 1.390 . S
C479 C478 1.387 . S
H480 C492 0.930 . S
H481 C494 0.930 . S
H482 C495 0.930 . S
H483 C499 0.959 . S
H484 C499 0.959 . S
H485 C499 0.961 1_554 S
H486 C500 0.960 . S
H487 C500 0.961 1_556 S
H488 C500 0.959 . S
H489 C503 0.929 . S
H490 C504 0.931 . S
H491 C506 0.930 1_455 S
C492 H480 0.930 . S
C492 C493 1.399 . S
C492 C497 1.399 . S
C493 C492 1.399 . S
C493 C494 1.376 1_455 S
C494 H481 0.930 . S
C494 C493 1.376 1_655 S
C494 C495 1.388 . S
C495 H482 0.930 . S
C495 C494 1.388 . S
C495 C496 1.390 . S
C496 C495 1.390 . S
C496 C497 1.394 1_655 S
C496 C502 1.465 1_554 S
C497 C492 1.399 . S
C497 C496 1.394 1_455 S
C497 C498 1.488 1_554 S
C498 C497 1.488 1_556 S
C498 C499 1.506 . S
C498 C500 1.559 1_456 S
C498 C501 1.553 1_455 S
C499 H483 0.959 . S
C499 H484 0.959 . S
C499 H485 0.961 1_556 S
C499 C498 1.506 . S
C500 H486 0.960 . S
C500 H487 0.961 1_554 S
C500 H488 0.959 . S
C500 C498 1.559 1_654 S
C501 C498 1.553 1_655 S
C501 C502 1.396 . S
C501 C506 1.390 . S
C502 C496 1.465 1_556 S
C502 C501 1.396 . S
C502 C503 1.399 . S
C503 H489 0.929 . S
C503 C502 1.399 . S
C503 C504 1.385 . S
C504 H490 0.931 . S
C504 C503 1.385 . S
C504 C505 1.389 . S
C505 C504 1.389 . S
C505 C506 1.387 . S
C506 H491 0.930 1_655 S
C506 C501 1.390 . S
C506 C505 1.387 . S
H507 C519 0.930 . S
H508 C521 0.930 . S
H509 C522 0.930 . S
H510 C526 0.959 . S
H511 C526 0.959 . S
H512 C526 0.961 . S
H513 C527 0.960 . S
H514 C527 0.961 . S
H515 C527 0.959 . S
H516 C530 0.929 . S
H517 C531 0.931 . S
H518 C533 0.930 . S
C519 H507 0.930 . S
C519 C520 1.399 1_545 S
C519 C524 1.399 . S
C520 C519 1.399 1_565 S
C520 C521 1.376 . S
C521 H508 0.930 . S
C521 C520 1.376 . S
C521 C522 1.388 . S
C522 H509 0.930 . S
C522 C521 1.388 . S
C522 C523 1.390 . S
C523 C522 1.390 . S
C523 C524 1.394 1_565 S
C523 C529 1.465 . S
C524 C519 1.399 . S
C524 C523 1.394 1_545 S
C524 C525 1.516 . S
C525 C524 1.516 . S
C525 C526 1.502 . S
C525 C527 1.561 . S
C525 C528 1.526 . S
C526 H510 0.959 . S
C526 H511 0.959 . S
C526 H512 0.961 . S
C526 C525 1.502 . S
C527 H513 0.960 . S
C527 H514 0.961 . S
C527 H515 0.959 . S
C527 C525 1.561 . S
C528 C525 1.526 . S
C528 C529 1.396 1_545 S
C528 C533 1.390 . S
C529 C523 1.465 . S
C529 C528 1.396 1_565 S
C529 C530 1.399 . S
C530 H516 0.929 . S
C530 C529 1.399 . S
C530 C531 1.385 . S
C531 H517 0.931 . S
C531 C530 1.385 . S
C531 C532 1.389 1_565 S
C532 C531 1.389 1_545 S
C532 C533 1.387 . S
C533 H518 0.930 . S
C533 C528 1.390 . S
C533 C532 1.387 . S
H534 C546 0.930 . S
H535 C548 0.930 . S
H536 C549 0.930 . S
H537 C553 0.959 . S
H538 C553 0.959 . S
H539 C553 0.961 . S
H540 C554 0.960 . S
H541 C554 0.961 . S
H542 C554 0.959 . S
H543 C557 0.929 . S
H544 C558 0.931 . S
H545 C560 0.922 1_655 S
C546 H534 0.930 . S
C546 C547 1.399 . S
C546 C551 1.399 . S
C547 C546 1.399 . S
C547 C548 1.376 1_655 S
C548 H535 0.930 . S
C548 C547 1.376 1_455 S
C548 C549 1.388 . S
C549 H536 0.930 . S
C549 C548 1.388 . S
C549 C550 1.390 . S
C550 C549 1.390 . S
C550 C551 1.394 1_455 S
C550 C556 1.465 . S
C551 C546 1.399 . S
C551 C550 1.394 1_655 S
C551 C552 1.516 . S
C552 C551 1.516 . S
C552 C553 1.502 . S
C552 C554 1.561 1_655 S
C552 C555 1.521 1_655 S
C553 H537 0.959 . S
C553 H538 0.959 . S
C553 H539 0.961 . S
C553 C552 1.502 . S
C554 H540 0.960 . S
C554 H541 0.961 . S
C554 H542 0.959 . S
C554 C552 1.561 1_455 S
C555 C552 1.521 1_455 S
C555 C556 1.402 . S
C555 C560 1.389 . S
C556 C550 1.465 . S
C556 C555 1.402 . S
C556 C557 1.399 . S
C557 H543 0.929 . S
C557 C556 1.399 . S
C557 C558 1.385 . S
C558 H544 0.931 . S
C558 C557 1.385 . S
C558 C559 1.389 . S
C559 C558 1.389 . S
C559 C560 1.396 . S
C560 H545 0.922 1_455 S
C560 C555 1.389 . S
C560 C559 1.396 . S
H561 C573 0.930 . S
H562 C575 0.930 . S
H563 C576 0.930 . S
H564 C580 0.959 . S
H565 C580 0.959 . S
H566 C580 0.961 . S
H567 C581 0.960 . S
H568 C581 0.961 . S
H569 C581 0.959 . S
H570 C584 0.929 . S
H571 C585 0.931 . S
H572 C587 0.930 . S
C573 H561 0.930 . S
C573 C574 1.399 . S
C573 C578 1.399 . S
C574 C573 1.399 . S
C574 C575 1.376 1_545 S
C575 H562 0.930 . S
C575 C574 1.376 1_565 S
C575 C576 1.388 . S
C576 H563 0.930 . S
C576 C575 1.388 . S
C576 C577 1.390 . S
C577 C576 1.390 . S
C577 C578 1.394 1_565 S
C577 C583 1.465 . S
C578 C573 1.399 . S
C578 C577 1.394 1_545 S
C578 C579 1.516 . S
C579 C578 1.516 . S
C579 C580 1.502 . S
C579 C581 1.561 . S
C579 C582 1.526 . S
C580 H564 0.959 . S
C580 H565 0.959 . S
C580 H566 0.961 . S
C580 C579 1.502 . S
C581 H567 0.960 . S
C581 H568 0.961 . S
C581 H569 0.959 . S
C581 C579 1.561 . S
C582 C579 1.526 . S
C582 C583 1.396 1_545 S
C582 C587 1.390 . S
C583 C577 1.465 . S
C583 C582 1.396 1_565 S
C583 C584 1.399 . S
C584 H570 0.929 . S
C584 C583 1.399 . S
C584 C585 1.385 . S
C585 H571 0.931 . S
C585 C584 1.385 . S
C585 C586 1.389 . S
C586 C585 1.389 . S
C586 C587 1.387 1_565 S
C587 H572 0.930 . S
C587 C582 1.390 . S
C587 C586 1.387 1_545 S
H588 C600 0.930 . S
H589 C602 0.930 . S
H590 C603 0.930 . S
H591 C607 0.959 . S
H592 C607 0.959 1_556 S
H593 C607 0.961 . S
H594 C608 0.960 . S
H595 C608 0.961 . S
H596 C608 0.959 . S
H597 C611 0.929 . S
H598 C612 0.931 1_565 S
H599 C614 0.930 1_556 S
C600 H588 0.930 . S
C600 C601 1.399 . S
C600 C605 1.399 . S
C601 C600 1.399 . S
C601 C602 1.376 . S
C602 H589 0.930 . S
C602 C601 1.376 . S
C602 C603 1.388 . S
C603 H590 0.930 . S
C603 C602 1.388 . S
C603 C604 1.390 . S
C604 C603 1.390 . S
C604 C605 1.394 . S
C604 C610 1.465 . S
C605 C600 1.399 . S
C605 C604 1.394 . S
C605 C606 1.516 . S
C606 C605 1.516 . S
C606 C607 1.502 . S
C606 C608 1.561 . S
C606 C609 1.526 . S
C607 H591 0.959 . S
C607 H592 0.959 1_554 S
C607 H593 0.961 . S
C607 C606 1.502 . S
C608 H594 0.960 . S
C608 H595 0.961 . S
C608 H596 0.959 . S
C608 C606 1.561 . S
C609 C606 1.526 . S
C609 C610 1.396 . S
C609 C614 1.390 . S
C610 C604 1.465 . S
C610 C609 1.396 . S
C610 C611 1.399 . S
C611 H597 0.929 . S
C611 C610 1.399 . S
C611 C612 1.385 . S
C612 H598 0.931 1_545 S
C612 C611 1.385 . S
C612 C613 1.389 . S
C613 C612 1.389 . S
C613 C614 1.387 . S
C614 H599 0.930 1_554 S
C614 C609 1.390 . S
C614 C613 1.387 . S
H615 C627 0.930 . S
H616 C629 0.930 . S
H617 C630 0.930 . S
H618 C634 0.959 . S
H619 C634 0.959 . S
H620 C634 0.961 . S
H621 C635 0.960 . S
H622 C635 0.961 . S
H623 C635 0.959 . S
H624 C638 0.929 . S
H625 C639 0.931 . S
H626 C641 0.930 . S
C627 H615 0.930 . S
C627 C628 1.399 . S
C627 C632 1.399 . S
C628 C627 1.399 . S
C628 C629 1.376 . S
C629 H616 0.930 . S
C629 C628 1.376 . S
C629 C630 1.388 . S
C630 H617 0.930 . S
C630 C629 1.388 . S
C630 C631 1.390 . S
C631 C630 1.390 . S
C631 C632 1.394 . S
C631 C637 1.465 . S
C632 C627 1.399 . S
C632 C631 1.394 . S
C632 C633 1.516 . S
C633 C632 1.516 . S
C633 C634 1.502 . S
C633 C635 1.561 . S
C633 C636 1.526 . S
C634 H618 0.959 . S
C634 H619 0.959 . S
C634 H620 0.961 . S
C634 C633 1.502 . S
C635 H621 0.960 . S
C635 H622 0.961 . S
C635 H623 0.959 . S
C635 C633 1.561 . S
C636 C633 1.526 . S
C636 C637 1.396 . S
C636 C641 1.390 . S
C637 C631 1.465 . S
C637 C636 1.396 . S
C637 C638 1.399 . S
C638 H624 0.929 . S
C638 C637 1.399 . S
C638 C639 1.385 . S
C639 H625 0.931 . S
C639 C638 1.385 . S
C639 C640 1.389 . S
C640 C639 1.389 . S
C640 C641 1.387 . S
C641 H626 0.930 . S
C641 C636 1.390 . S
C641 C640 1.387 . S
H642 C654 0.930 . S
H643 C656 0.930 . S
H644 C657 0.930 . S
H645 C661 0.959 . S
H646 C661 0.959 . S
H647 C661 0.961 . S
H648 C662 0.960 . S
H649 C662 0.961 . S
H650 C662 0.959 . S
H651 C665 0.929 . S
H652 C666 0.931 . S
H653 C668 0.930 . S
C654 H642 0.930 . S
C654 C655 1.399 . S
C654 C659 1.399 . S
C655 C654 1.399 . S
C655 C656 1.376 . S
C656 H643 0.930 . S
C656 C655 1.376 . S
C656 C657 1.388 . S
C657 H644 0.930 . S
C657 C656 1.388 . S
C657 C658 1.390 . S
C658 C657 1.390 . S
C658 C659 1.394 . S
C658 C664 1.465 . S
C659 C654 1.399 . S
C659 C658 1.394 . S
C659 C660 1.516 . S
C660 C659 1.516 . S
C660 C661 1.502 . S
C660 C662 1.561 . S
C660 C663 1.526 . S
C661 H645 0.959 . S
C661 H646 0.959 . S
C661 H647 0.961 . S
C661 C660 1.502 . S
C662 H648 0.960 . S
C662 H649 0.961 . S
C662 H650 0.959 . S
C662 C660 1.561 . S
C663 C660 1.526 . S
C663 C664 1.396 . S
C663 C668 1.390 . S
C664 C658 1.465 . S
C664 C663 1.396 . S
C664 C665 1.399 . S
C665 H651 0.929 . S
C665 C664 1.399 . S
C665 C666 1.385 . S
C666 H652 0.931 . S
C666 C665 1.385 . S
C666 C667 1.389 . S
C667 C666 1.389 . S
C667 C668 1.387 . S
C668 H653 0.930 . S
C668 C663 1.390 . S
C668 C667 1.387 . S
H669 C681 0.930 . S
H670 C683 0.930 . S
H671 C684 0.930 . S
H672 C688 0.959 . S
H673 C688 0.959 . S
H674 C688 0.961 . S
H675 C689 0.960 . S
H676 C689 0.961 . S
H677 C689 0.959 . S
H678 C692 0.929 . S
H679 C693 0.931 . S
H680 C695 0.930 . S
C681 H669 0.930 . S
C681 C682 1.399 . S
C681 C686 1.399 . S
C682 C681 1.399 . S
C682 C683 1.376 . S
C683 H670 0.930 . S
C683 C682 1.376 . S
C683 C684 1.388 . S
C684 H671 0.930 . S
C684 C683 1.388 . S
C684 C685 1.390 . S
C685 C684 1.390 . S
C685 C686 1.394 . S
C685 C691 1.465 . S
C686 C681 1.399 . S
C686 C685 1.394 . S
C686 C687 1.516 . S
C687 C686 1.516 . S
C687 C688 1.502 . S
C687 C689 1.561 . S
C687 C690 1.526 . S
C688 H672 0.959 . S
C688 H673 0.959 . S
C688 H674 0.961 . S
C688 C687 1.502 . S
C689 H675 0.960 . S
C689 H676 0.961 . S
C689 H677 0.959 . S
C689 C687 1.561 . S
C690 C687 1.526 . S
C690 C691 1.396 . S
C690 C695 1.390 . S
C691 C685 1.465 . S
C691 C690 1.396 . S
C691 C692 1.399 . S
C692 H678 0.929 . S
C692 C691 1.399 . S
C692 C693 1.385 . S
C693 H679 0.931 . S
C693 C692 1.385 . S
C693 C694 1.389 . S
C694 C693 1.389 . S
C694 C695 1.387 . S
C695 H680 0.930 . S
C695 C690 1.390 . S
C695 C694 1.387 . S
H696 C708 0.930 . S
H697 C710 0.930 . S
H698 C711 0.930 . S
H699 C715 0.959 . S
H700 C715 0.959 . S
H701 C715 0.961 . S
H702 C716 0.960 . S
H703 C716 0.961 . S
H704 C716 0.959 . S
H705 C719 0.929 . S
H706 C720 0.931 . S
H707 C722 0.930 . S
C708 H696 0.930 . S
C708 C709 1.399 . S
C708 C713 1.399 . S
C709 C708 1.399 . S
C709 C710 1.376 . S
C710 H697 0.930 . S
C710 C709 1.376 . S
C710 C711 1.388 . S
C711 H698 0.930 . S
C711 C710 1.388 . S
C711 C712 1.390 . S
C712 C711 1.390 . S
C712 C713 1.394 . S
C712 C718 1.465 . S
C713 C708 1.399 . S
C713 C712 1.394 . S
C713 C714 1.516 . S
C714 C713 1.516 . S
C714 C715 1.502 . S
C714 C716 1.561 . S
C714 C717 1.526 . S
C715 H699 0.959 . S
C715 H700 0.959 . S
C715 H701 0.961 . S
C715 C714 1.502 . S
C716 H702 0.960 . S
C716 H703 0.961 . S
C716 H704 0.959 . S
C716 C714 1.561 . S
C717 C714 1.526 . S
C717 C718 1.396 . S
C717 C722 1.390 . S
C718 C712 1.465 . S
C718 C717 1.396 . S
C718 C719 1.399 . S
C719 H705 0.929 . S
C719 C718 1.399 . S
C719 C720 1.385 . S
C720 H706 0.931 . S
C720 C719 1.385 . S
C720 C721 1.389 . S
C721 C720 1.389 . S
C721 C722 1.387 . S
C722 H707 0.930 . S
C722 C717 1.390 . S
C722 C721 1.387 . S
H723 C735 0.930 . S
H724 C737 0.930 . S
H725 C738 0.930 . S
H726 C742 0.959 . S
H727 C742 0.959 . S
H728 C742 0.961 . S
H729 C743 0.960 . S
H730 C743 0.961 . S
H731 C743 0.959 . S
H732 C746 0.929 . S
H733 C747 0.931 . S
H734 C749 0.930 . S
C735 H723 0.930 . S
C735 C736 1.399 . S
C735 C740 1.399 . S
C736 C735 1.399 . S
C736 C737 1.376 . S
C737 H724 0.930 . S
C737 C736 1.376 . S
C737 C738 1.388 . S
C738 H725 0.930 . S
C738 C737 1.388 . S
C738 C739 1.390 . S
C739 C738 1.390 . S
C739 C740 1.394 . S
C739 C745 1.465 . S
C740 C735 1.399 . S
C740 C739 1.394 . S
C740 C741 1.516 . S
C741 C740 1.516 . S
C741 C742 1.502 . S
C741 C743 1.561 . S
C741 C744 1.526 . S
C742 H726 0.959 . S
C742 H727 0.959 . S
C742 H728 0.961 . S
C742 C741 1.502 . S
C743 H729 0.960 . S
C743 H730 0.961 . S
C743 H731 0.959 . S
C743 C741 1.561 . S
C744 C741 1.526 . S
C744 C745 1.396 . S
C744 C749 1.390 . S
C745 C739 1.465 . S
C745 C744 1.396 . S
C745 C746 1.399 . S
C746 H732 0.929 . S
C746 C745 1.399 . S
C746 C747 1.385 . S
C747 H733 0.931 . S
C747 C746 1.385 . S
C747 C748 1.389 . S
C748 C747 1.389 . S
C748 C749 1.387 . S
C749 H734 0.930 . S
C749 C744 1.390 . S
C749 C748 1.387 . S
H750 C762 0.930 . S
H751 C764 0.930 . S
H752 C765 0.930 . S
H753 C769 0.959 . S
H754 C769 0.959 1_554 S
H755 C769 0.961 . S
H756 C770 0.960 . S
H757 C770 0.961 . S
H758 C770 0.959 . S
H759 C773 0.929 . S
H760 C774 0.931 1_565 S
H761 C776 0.930 1_554 S
C762 H750 0.930 . S
C762 C763 1.399 . S
C762 C767 1.399 . S
C763 C762 1.399 . S
C763 C764 1.376 . S
C764 H751 0.930 . S
C764 C763 1.376 . S
C764 C765 1.388 . S
C765 H752 0.930 . S
C765 C764 1.388 . S
C765 C766 1.390 . S
C766 C765 1.390 . S
C766 C767 1.394 . S
C766 C772 1.465 . S
C767 C762 1.399 . S
C767 C766 1.394 . S
C767 C768 1.516 . S
C768 C767 1.516 . S
C768 C769 1.502 . S
C768 C770 1.561 . S
C768 C771 1.526 . S
C769 H753 0.959 . S
C769 H754 0.959 1_556 S
C769 H755 0.961 . S
C769 C768 1.502 . S
C770 H756 0.960 . S
C770 H757 0.961 . S
C770 H758 0.959 . S
C770 C768 1.561 . S
C771 C768 1.526 . S
C771 C772 1.396 . S
C771 C776 1.390 . S
C772 C766 1.465 . S
C772 C771 1.396 . S
C772 C773 1.399 . S
C773 H759 0.929 . S
C773 C772 1.399 . S
C773 C774 1.385 . S
C774 H760 0.931 1_545 S
C774 C773 1.385 . S
C774 C775 1.389 . S
C775 C774 1.389 . S
C775 C776 1.387 . S
C776 H761 0.930 1_556 S
C776 C771 1.390 . S
C776 C775 1.387 . S
H777 C789 0.930 . S
H778 C791 0.930 1_455 S
H779 C792 0.930 . S
H780 C796 0.959 . S
H781 C796 0.959 . S
H782 C796 0.961 . S
H783 C797 0.960 . S
H784 C797 0.961 . S
H785 C797 0.959 . S
H786 C800 0.929 . S
H787 C801 0.931 . S
H788 C803 0.930 . S
C789 H777 0.930 . S
C789 C790 1.399 . S
C789 C794 1.399 . S
C790 C789 1.399 . S
C790 C791 1.376 . S
C791 H778 0.930 1_655 S
C791 C790 1.376 . S
C791 C792 1.388 . S
C792 H779 0.930 . S
C792 C791 1.388 . S
C792 C793 1.390 . S
C793 C792 1.390 . S
C793 C794 1.394 . S
C793 C799 1.465 . S
C794 C789 1.399 . S
C794 C793 1.394 . S
C794 C795 1.516 . S
C795 C794 1.516 . S
C795 C796 1.502 . S
C795 C797 1.561 . S
C795 C798 1.526 . S
C796 H780 0.959 . S
C796 H781 0.959 . S
C796 H782 0.961 . S
C796 C795 1.502 . S
C797 H783 0.960 . S
C797 H784 0.961 . S
C797 H785 0.959 . S
C797 C795 1.561 . S
C798 C795 1.526 . S
C798 C799 1.396 . S
C798 C803 1.390 . S
C799 C793 1.465 . S
C799 C798 1.396 . S
C799 C800 1.399 . S
C800 H786 0.929 . S
C800 C799 1.399 . S
C800 C801 1.385 . S
C801 H787 0.931 . S
C801 C800 1.385 . S
C801 C802 1.389 . S
C802 C801 1.389 . S
C802 C803 1.387 . S
C803 H788 0.930 . S
C803 C798 1.390 . S
C803 C802 1.387 . S
C277 C153 1.311 . S
C289 C21 1.283 . S
C304 C54 1.287 . S
C316 C186 1.267 . S
C331 C87 1.310 . S
C343 C219 1.287 . S
C358 C120 1.285 . S
C370 C252 1.311 . S
C385 N167 0.621 . S
C397 N2 0.768 . S
C412 N35 0.632 . S
C424 N200 0.767 . S
C439 N233 0.624 . S
C451 N68 0.770 . S
C466 N101 0.771 . S
C478 N134 0.627 . S
C493 N13 1.026 . S
C505 N211 1.030 . S
C520 N244 1.030 . S
C532 N46 1.025 . S
C547 N79 1.026 . S
C559 N145 1.031 . S
C574 N178 1.019 . S
C586 N112 1.025 . S
C601 C18 1.998 . S
C613 C106 1.968 1_544 S
C628 C7 1.968 1_655 S
C640 C51 2.002 . S
C655 C40 1.980 1_565 S
C667 C84 2.007 . S
C682 C73 1.983 1_455 S
C694 C117 2.006 . S
C709 C150 1.983 . S
C721 C172 2.005 1_565 S
C736 C183 1.974 . S
C748 C205 1.990 1_455 S
C763 C216 1.997 . S
C775 C238 1.968 1_546 S
C790 C139 1.971 1_655 S
C802 C249 1.991 . S
