# Generated by pormake.
# Topology wjd, (6)-cn, num edge types: 1
# Building blocks:
#     Node 0, Type 0, BuildingBlock: FUNLAD_clean_sbu_0, # of connection points: 6
#     Node 1, Type 0, BuildingBlock: FUNLAD_clean_sbu_0, # of connection points: 6
#     Node 2, Type 0, BuildingBlock: FUNLAD_clean_sbu_0, # of connection points: 6
#     Node 3, Type 0, BuildingBlock: FUNLAD_clean_sbu_0, # of connection points: 6
#     Node 4, Type 0, BuildingBlock: FUNLAD_clean_sbu_0, # of connection points: 6
#     Node 5, Type 0, BuildingBlock: FUNLAD_clean_sbu_0, # of connection points: 6
#     Node 6, Type 0, BuildingBlock: FUNLAD_clean_sbu_0, # of connection points: 6
#     Node 7, Type 0, BuildingBlock: FUNLAD_clean_sbu_0, # of connection points: 6
#     Node 8, Type 0, BuildingBlock: FUNLAD_clean_sbu_0, # of connection points: 6
#     Node 9, Type 0, BuildingBlock: FUNLAD_clean_sbu_0, # of connection points: 6
#     Node 10, Type 0, BuildingBlock: FUNLAD_clean_sbu_0, # of connection points: 6
#     Node 11, Type 0, BuildingBlock: FUNLAD_clean_sbu_0, # of connection points: 6
#     Edge 12, Type (0, 0), BuildingBlock: XIVTED_clean_linker_0, # of connection points: 2
#     Edge 13, Type (0, 0), BuildingBlock: XIVTED_clean_linker_0, # of connection points: 2
#     Edge 14, Type (0, 0), BuildingBlock: XIVTED_clean_linker_0, # of connection points: 2
#     Edge 15, Type (0, 0), BuildingBlock: XIVTED_clean_linker_0, # of connection points: 2
#     Edge 16, Type (0, 0), BuildingBlock: XIVTED_clean_linker_0, # of connection points: 2
#     Edge 17, Type (0, 0), BuildingBlock: XIVTED_clean_linker_0, # of connection points: 2
#     Edge 18, Type (0, 0), BuildingBlock: XIVTED_clean_linker_0, # of connection points: 2
#     Edge 19, Type (0, 0), BuildingBlock: XIVTED_clean_linker_0, # of connection points: 2
#     Edge 20, Type (0, 0), BuildingBlock: XIVTED_clean_linker_0, # of connection points: 2
#     Edge 21, Type (0, 0), BuildingBlock: XIVTED_clean_linker_0, # of connection points: 2
#     Edge 22, Type (0, 0), BuildingBlock: XIVTED_clean_linker_0, # of connection points: 2
#     Edge 23, Type (0, 0), BuildingBlock: XIVTED_clean_linker_0, # of connection points: 2
#     Edge 24, Type (0, 0), BuildingBlock: XIVTED_clean_linker_0, # of connection points: 2
#     Edge 25, Type (0, 0), BuildingBlock: XIVTED_clean_linker_0, # of connection points: 2
#     Edge 26, Type (0, 0), BuildingBlock: XIVTED_clean_linker_0, # of connection points: 2
#     Edge 27, Type (0, 0), BuildingBlock: XIVTED_clean_linker_0, # of connection points: 2
#     Edge 28, Type (0, 0), BuildingBlock: XIVTED_clean_linker_0, # of connection points: 2
#     Edge 29, Type (0, 0), BuildingBlock: XIVTED_clean_linker_0, # of connection points: 2
#     Edge 30, Type (0, 0), BuildingBlock: XIVTED_clean_linker_0, # of connection points: 2
#     Edge 31, Type (0, 0), BuildingBlock: XIVTED_clean_linker_0, # of connection points: 2
#     Edge 32, Type (0, 0), BuildingBlock: XIVTED_clean_linker_0, # of connection points: 2
#     Edge 33, Type (0, 0), BuildingBlock: XIVTED_clean_linker_0, # of connection points: 2
#     Edge 34, Type (0, 0), BuildingBlock: XIVTED_clean_linker_0, # of connection points: 2
#     Edge 35, Type (0, 0), BuildingBlock: XIVTED_clean_linker_0, # of connection points: 2
#     Edge 36, Type (0, 0), BuildingBlock: XIVTED_clean_linker_0, # of connection points: 2
#     Edge 37, Type (0, 0), BuildingBlock: XIVTED_clean_linker_0, # of connection points: 2
#     Edge 38, Type (0, 0), BuildingBlock: XIVTED_clean_linker_0, # of connection points: 2
#     Edge 39, Type (0, 0), BuildingBlock: XIVTED_clean_linker_0, # of connection points: 2
#     Edge 40, Type (0, 0), BuildingBlock: XIVTED_clean_linker_0, # of connection points: 2
#     Edge 41, Type (0, 0), BuildingBlock: XIVTED_clean_linker_0, # of connection points: 2
#     Edge 42, Type (0, 0), BuildingBlock: XIVTED_clean_linker_0, # of connection points: 2
#     Edge 43, Type (0, 0), BuildingBlock: XIVTED_clean_linker_0, # of connection points: 2
#     Edge 44, Type (0, 0), BuildingBlock: XIVTED_clean_linker_0, # of connection points: 2
#     Edge 45, Type (0, 0), BuildingBlock: XIVTED_clean_linker_0, # of connection points: 2
#     Edge 46, Type (0, 0), BuildingBlock: XIVTED_clean_linker_0, # of connection points: 2
#     Edge 47, Type (0, 0), BuildingBlock: XIVTED_clean_linker_0, # of connection points: 2
# Relax obj value: 0.160
# Max RMSD: 0.212
# Mean RMSD: 0.212
data_MOF--net-wjd--node1-FUNLAD_clean_sbu_0--edge1-XIVTED_clean_linker_0
_symmetry_space_group_name_H-M    P1
_symmetry_Int_Tables_number       1
_symmetry_cell_setting            triclinic
loop_
_symmetry_equiv_pos_as_xyz
'x, y, z'
_cell_length_a     28.041771
_cell_length_b     28.047619
_cell_length_c     87.150747
_cell_angle_alpha  90.004549
_cell_angle_beta   89.9896
_cell_angle_gamma 120.02704
loop_
_atom_site_label
_atom_site_type_symbol
_atom_site_fract_x
_atom_site_fract_y
_atom_site_fract_z
_atom_type_partial_charge
C0 C 0.23948 0.95572 0.13222 0.0
N1 N 0.31474 0.05412 0.09406 0.0
C2 C 0.31851 0.01129 0.08809 0.0
C3 C 0.31425 0.00175 0.07233 0.0
C4 C 0.30526 0.03612 0.06253 0.0
C5 C 0.30113 0.07991 0.06893 0.0
C6 C 0.30638 0.08845 0.08483 0.0
Zn7 Zn 0.31903 0.06209 0.11751 0.0
C8 C 0.24261 0.09518 0.13021 0.0
N9 N 0.32572 0.07079 0.16655 0.0
C10 C 0.32652 0.02971 0.17464 0.0
C11 C 0.32648 0.11414 0.17381 0.0
C12 C 0.32765 0.11703 0.18984 0.0
C13 C 0.32792 0.07486 0.19848 0.0
C14 C 0.32763 0.03093 0.19065 0.0
Zn15 Zn 0.32231 0.06564 0.14308 0.0
O16 O 0.25871 0.97857 0.11936 0.0
C17 C 0.40441 0.04022 0.13042 0.0
O18 O 0.26039 0.98261 0.14447 0.0
H19 H 0.32572 0.14634 0.16718 0.0
H20 H 0.32419 0.98384 0.09559 0.0
H21 H 0.32611 -0.00427 0.16866 0.0
O22 O 0.38316 0.04376 0.11792 0.0
O23 O 0.38464 0.04494 0.14306 0.0
H24 H 0.30335 0.12218 0.08979 0.0
O25 O 0.38209 0.14926 0.14124 0.0
O26 O 0.37742 0.14646 0.11604 0.0
O27 O 0.26196 0.08891 0.14273 0.0
O28 O 0.25712 0.08354 0.11758 0.0
C29 C 0.3962 0.17383 0.12837 0.0
H30 H 0.31683 0.96704 0.06788 0.0
H31 H 0.29444 0.10747 0.06172 0.0
H32 H 0.32727 0.15138 0.19539 0.0
H33 H 0.32868 -0.00205 0.19682 0.0
C34 C 0.75515 0.58122 0.38364 0.0
N35 N 0.72129 0.65228 0.34589 0.0
C36 C 0.76357 0.65166 0.3384 0.0
C37 C 0.76451 0.65055 0.32238 0.0
C38 C 0.72157 0.65016 0.31396 0.0
C39 C 0.67814 0.6501 0.32202 0.0
C40 C 0.67884 0.65119 0.33803 0.0
Zn41 Zn 0.7216 0.65681 0.36933 0.0
C42 C 0.61481 0.57619 0.38282 0.0
N43 N 0.72255 0.66571 0.41837 0.0
C44 C 0.76107 0.66425 0.42757 0.0
C45 C 0.68179 0.67294 0.4244 0.0
C46 C 0.67962 0.68084 0.4401 0.0
C47 C 0.71897 0.68008 0.44982 0.0
C48 C 0.75967 0.67082 0.44347 0.0
Zn49 Zn 0.72403 0.65997 0.3949 0.0
O50 O 0.74497 0.5967 0.37096 0.0
C51 C 0.83275 0.73493 0.38141 0.0
O52 O 0.74723 0.59944 0.39617 0.0
H53 H 0.651 0.67315 0.41698 0.0
H54 H 0.797 0.65267 0.34486 0.0
H55 H 0.79317 0.65855 0.42256 0.0
O56 O 0.80538 0.71688 0.36907 0.0
O57 O 0.80823 0.71968 0.39426 0.0
H58 H 0.64555 0.65155 0.34419 0.0
O59 O 0.7038 0.72251 0.39306 0.0
O60 O 0.70084 0.71884 0.36797 0.0
O61 O 0.64062 0.59802 0.39516 0.0
O62 O 0.63851 0.59495 0.37002 0.0
C63 C 0.69788 0.74098 0.38035 0.0
H64 H 0.79911 0.65121 0.31665 0.0
H65 H 0.64376 0.64897 0.31603 0.0
H66 H 0.64715 0.68706 0.44464 0.0
H67 H 0.79068 0.66994 0.45069 0.0
C68 C 0.02633 0.28229 0.13261 0.0
N69 N 0.92746 0.25839 0.09456 0.0
C70 C 0.97181 0.30344 0.08847 0.0
C71 C 0.98238 0.30669 0.07277 0.0
C72 C 0.94727 0.26302 0.06311 0.0
C73 C 0.90106 0.21737 0.06963 0.0
C74 C 0.8919 0.21588 0.08547 0.0
Zn75 Zn 0.91968 0.25579 0.11799 0.0
C76 C 0.88625 0.14626 0.13093 0.0
N77 N 0.91199 0.25496 0.16701 0.0
C78 C 0.95288 0.29724 0.17504 0.0
C79 C 0.86865 0.21247 0.17431 0.0
C80 C 0.86545 0.21137 0.19032 0.0
C81 C 0.90717 0.25446 0.19892 0.0
C82 C 0.95128 0.29783 0.19105 0.0
Zn83 Zn 0.91697 0.2559 0.14355 0.0
O84 O 0.00304 0.27843 0.11982 0.0
C85 C 0.94263 0.36345 0.13061 0.0
O86 O -5e-05 0.2767 0.14494 0.0
H87 H 0.83648 0.17931 0.16771 0.0
H88 H -0.00024 0.33675 0.09586 0.0
H89 H 0.98707 0.33052 0.16903 0.0
O90 O 0.93885 0.33844 0.11814 0.0
O91 O 0.93798 0.33911 0.14328 0.0
H92 H 0.85701 0.18033 0.09054 0.0
O93 O 0.83333 0.23225 0.14175 0.0
O94 O 0.83554 0.23047 0.11654 0.0
O95 O 0.89342 0.1722 0.14344 0.0
O96 O 0.89734 0.17216 0.11827 0.0
C97 C 0.80848 0.22195 0.12893 0.0
H98 H 0.01785 0.34319 0.06826 0.0
H99 H 0.87308 0.18255 0.06266 0.0
H100 H 0.83037 0.17742 0.1959 0.0
H101 H 0.98475 0.33151 0.19719 0.0
C102 C 0.39778 0.17227 0.38423 0.0
N103 N 0.32632 0.06971 0.34593 0.0
C104 C 0.32721 0.11297 0.33858 0.0
C105 C 0.32813 0.11539 0.32254 0.0
C106 C 0.32801 0.07283 0.31399 0.0
C107 C 0.32787 0.02916 0.32192 0.0
C108 C 0.327 0.0284 0.33793 0.0
Zn109 Zn 0.32196 0.06438 0.3694 0.0
C110 C 0.40197 0.03646 0.38241 0.0
N111 N 0.31329 0.05302 0.41841 0.0
C112 C 0.31528 0.09237 0.42796 0.0
C113 C 0.30697 0.00498 0.42405 0.0
C114 C 0.30133 -0.00556 0.43975 0.0
C115 C 0.30338 0.03412 0.44999 0.0
C116 C 0.31069 0.08386 0.44387 0.0
Zn117 Zn 0.31842 0.06158 0.39497 0.0
O118 O 0.38248 0.14781 0.37136 0.0
C119 C 0.2444 0.09734 0.38198 0.0
O120 O 0.37936 0.14496 0.39658 0.0
H121 H 0.30582 0.97425 0.41634 0.0
H122 H 0.32654 0.14535 0.34514 0.0
H123 H 0.32044 0.13035 0.42325 0.0
O124 O 0.2624 0.08864 0.36953 0.0
O125 O 0.2592 0.08686 0.39474 0.0
H126 H 0.32645 -0.00553 0.34398 0.0
O127 O 0.25533 0.97908 0.39285 0.0
O128 O 0.25925 0.98164 0.36776 0.0
O129 O 0.37998 0.03951 0.39483 0.0
O130 O 0.38357 0.04268 0.36971 0.0
C131 C 0.23682 0.95569 0.38002 0.0
H132 H 0.32768 0.14959 0.31692 0.0
H133 H 0.32866 -0.00409 0.31583 0.0
H134 H 0.29455 0.95497 0.44374 0.0
H135 H 0.31333 0.11612 0.45125 0.0
C136 C 0.69982 0.74254 0.13221 0.0
N137 N 0.72602 0.66887 0.09421 0.0
C138 C 0.6812 0.66819 0.08798 0.0
C139 C 0.67837 0.67528 0.07225 0.0
C140 C 0.72227 0.68367 0.06271 0.0
C141 C 0.76777 0.6833 0.06939 0.0
C142 C 0.76881 0.67579 0.08525 0.0
Zn143 Zn 0.72741 0.663 0.11763 0.0
C144 C 0.83591 0.73874 0.13113 0.0
N145 N 0.72512 0.6544 0.16661 0.0
C146 C 0.68257 0.65298 0.1745 0.0
C147 C 0.7674 0.65364 0.17405 0.0
C148 C 0.76815 0.65188 0.19007 0.0
C149 C 0.72502 0.65098 0.19852 0.0
C150 C 0.68169 0.65125 0.19051 0.0
Zn151 Zn 0.72536 0.6591 0.14317 0.0
O152 O 0.70507 0.72399 0.11942 0.0
C153 C 0.61879 0.57769 0.12976 0.0
O154 O 0.70396 0.7208 0.14453 0.0
H155 H 0.80091 0.65492 0.16756 0.0
H156 H 0.64765 0.66283 0.09526 0.0
H157 H 0.64928 0.65345 0.16837 0.0
O158 O 0.64452 0.5995 0.11741 0.0
O159 O 0.64242 0.59675 0.14254 0.0
H160 H 0.80417 0.67643 0.09044 0.0
O161 O 0.74958 0.59948 0.14143 0.0
O162 O 0.75253 0.60408 0.11623 0.0
O163 O 0.80884 0.71959 0.14347 0.0
O164 O 0.81117 0.72418 0.1183 0.0
C165 C 0.76053 0.58529 0.12864 0.0
H166 H 0.64195 0.6741 0.06762 0.0
H167 H 0.80277 0.69002 0.06252 0.0
H168 H 0.80269 0.65234 0.19577 0.0
H169 H 0.64718 0.64976 0.19653 0.0
C170 C 0.80609 0.21785 0.38389 0.0
N171 N 0.91167 0.25269 0.34629 0.0
C172 C 0.86864 0.20976 0.33903 0.0
C173 C 0.86548 0.20823 0.32302 0.0
C174 C 0.90697 0.25132 0.31437 0.0
C175 C 0.95082 0.29514 0.32219 0.0
C176 C 0.95237 0.29499 0.33821 0.0
Zn177 Zn 0.91591 0.25399 0.36977 0.0
C178 C 0.93901 0.36051 0.3826 0.0
N179 N 0.92392 0.25592 0.4188 0.0
C180 C 0.88943 0.21279 0.42788 0.0
C181 C 0.96656 0.30236 0.42492 0.0
C182 C 0.97586 0.30689 0.44069 0.0
C183 C 0.94143 0.26299 0.45034 0.0
C184 C 0.8977 0.21535 0.44378 0.0
Zn185 Zn 0.91713 0.25299 0.39534 0.0
O186 O 0.83196 0.22902 0.37123 0.0
C187 C 0.88623 0.14447 0.38246 0.0
O188 O 0.83231 0.22626 0.39644 0.0
H189 H -0.00585 0.33584 0.41753 0.0
H190 H 0.83661 0.17659 0.34567 0.0
H191 H 0.85589 0.17616 0.42279 0.0
O192 O 0.89375 0.17066 0.36997 0.0
O193 O 0.8962 0.16997 0.39516 0.0
H194 H 0.98629 0.32865 0.34419 0.0
O195 O 0.00104 0.27676 0.39383 0.0
O196 O -0.00073 0.27628 0.3687 0.0
O197 O 0.93498 0.3353 0.39505 0.0
O198 O 0.93545 0.33669 0.36991 0.0
C199 C 0.02511 0.28151 0.38112 0.0
H200 H 0.83056 0.17396 0.3175 0.0
H201 H 0.98411 0.32886 0.31601 0.0
H202 H 0.01054 0.34399 0.44524 0.0
H203 H 0.87007 0.1807 0.45087 0.0
C204 C 0.1696 0.39705 0.62872 0.0
N205 N 0.06518 0.32811 0.66678 0.0
C206 C 0.10797 0.32793 0.6741 0.0
C207 C 0.1112 0.33011 0.69011 0.0
C208 C 0.07007 0.33262 0.6987 0.0
C209 C 0.02645 0.33278 0.69081 0.0
C210 C 0.0248 0.33048 0.67481 0.0
Zn211 Zn 0.06032 0.32445 0.64332 0.0
C212 C 0.03736 0.40796 0.63046 0.0
N213 N 0.04998 0.31697 0.59431 0.0
C214 C 0.08403 0.30821 0.58507 0.0
C215 C 0.00742 0.32127 0.58836 0.0
C216 C -0.00206 0.31723 0.5726 0.0
C217 C 0.03207 0.30794 0.56278 0.0
C218 C 0.07552 0.30318 0.56917 0.0
Zn219 Zn 0.05772 0.32134 0.61775 0.0
O220 O 0.14467 0.38299 0.64155 0.0
C221 C 0.08846 0.24358 0.63067 0.0
O222 O 0.14238 0.3789 0.61634 0.0
H223 H 0.98017 0.32724 0.59586 0.0
H224 H 0.13973 0.32615 0.66751 0.0
H225 H 0.11752 0.30474 0.59003 0.0
O226 O 0.08167 0.26283 0.64314 0.0
O227 O 0.07817 0.25881 0.61796 0.0
H228 H -0.00896 0.33038 0.66879 0.0
O229 O 0.97384 0.26172 0.61952 0.0
O230 O 0.97668 0.26371 0.64464 0.0
O231 O 0.04051 0.38621 0.61801 0.0
O232 O 0.04146 0.38807 0.64314 0.0
C233 C 0.95025 0.24284 0.63231 0.0
H234 H 0.14591 0.33052 0.69569 0.0
H235 H -0.0066 0.33385 0.69695 0.0
H236 H 0.96345 0.32025 0.56817 0.0
H237 H 0.10287 0.2962 0.56194 0.0
C238 C 0.27739 0.03004 0.88019 0.0
N239 N 0.25177 0.93073 0.91832 0.0
C240 C 0.29791 0.97382 0.92443 0.0
C241 C 0.30244 0.98315 0.9402 0.0
C242 C 0.25884 0.94828 0.94988 0.0
C243 C 0.2114 0.90425 0.94333 0.0
C244 C 0.20883 0.89597 0.92743 0.0
Zn245 Zn 0.24942 0.92297 0.89487 0.0
C246 C 0.14095 0.89055 0.88153 0.0
N247 N 0.2507 0.91565 0.84587 0.0
C248 C 0.293 0.95631 0.83778 0.0
C249 C 0.20816 0.87217 0.83863 0.0
C250 C 0.207 0.86858 0.82263 0.0
C251 C 0.25006 0.91009 0.81397 0.0
C252 C 0.29352 0.95434 0.82177 0.0
Zn253 Zn 0.25126 0.92084 0.86931 0.0
O254 O 0.27227 0.00635 0.89299 0.0
C255 C 0.35777 0.94571 0.8825 0.0
O256 O 0.27291 0.00397 0.86787 0.0
H257 H 0.17498 0.84019 0.84527 0.0
H258 H 0.33125 0.00159 0.91702 0.0
H259 H 0.32633 0.99059 0.84375 0.0
O260 O 0.33218 0.94185 0.89487 0.0
O261 O 0.33407 0.94122 0.86974 0.0
H262 H 0.17246 0.86204 0.92236 0.0
O263 O 0.22684 0.83691 0.87119 0.0
O264 O 0.2239 0.83889 0.89638 0.0
O265 O 0.16792 0.89812 0.8692 0.0
O266 O 0.16573 0.90083 0.89437 0.0
C267 C 0.21587 0.81193 0.884 0.0
H268 H 0.33938 0.01806 0.94474 0.0
H269 H 0.17698 0.87629 0.95044 0.0
H270 H 0.17301 0.83338 0.81711 0.0
H271 H 0.32719 0.98765 0.81558 0.0
C272 C 0.57751 0.76062 0.62865 0.0
N273 N 0.64912 0.72908 0.6667 0.0
C274 C 0.64743 0.77114 0.67398 0.0
C275 C 0.64474 0.77199 0.68999 0.0
C276 C 0.64366 0.72908 0.69859 0.0
C277 C 0.64531 0.68617 0.69075 0.0
C278 C 0.64806 0.687 0.67475 0.0
Zn279 Zn 0.65373 0.72836 0.64326 0.0
C280 C 0.57358 0.62073 0.63019 0.0
N281 N 0.66193 0.72669 0.59423 0.0
C282 C 0.66009 0.76413 0.58468 0.0
C283 C 0.66819 0.68494 0.58857 0.0
C284 C 0.67397 0.68012 0.57288 0.0
C285 C 0.67211 0.71785 0.56264 0.0
C286 C 0.66482 0.76028 0.56877 0.0
Zn287 Zn 0.65683 0.72995 0.61768 0.0
O288 O 0.59298 0.75083 0.64138 0.0
C289 C 0.73091 0.83943 0.6308 0.0
O290 O 0.59587 0.75246 0.61617 0.0
H291 H 0.66922 0.65529 0.59628 0.0
H292 H 0.64817 0.80414 0.66737 0.0
H293 H 0.65498 0.79698 0.58938 0.0
O294 O 0.71306 0.81233 0.64319 0.0
O295 O 0.71606 0.8145 0.61798 0.0
H296 H 0.64963 0.65406 0.66875 0.0
O297 O 0.72006 0.71056 0.61973 0.0
O298 O 0.71657 0.70867 0.64483 0.0
O299 O 0.59512 0.64621 0.61778 0.0
O300 O 0.59242 0.64496 0.64291 0.0
C301 C 0.73883 0.70549 0.63249 0.0
H302 H 0.64291 0.80557 0.69554 0.0
H303 H 0.64537 0.65266 0.6969 0.0
H304 H 0.68074 0.64742 0.5689 0.0
H305 H 0.66232 0.78999 0.56139 0.0
C306 C 0.95033 0.2429 0.88031 0.0
N307 N 0.04888 0.31707 0.91851 0.0
C308 C 0.00457 0.318 0.92453 0.0
C309 C -0.00615 0.31089 0.94023 0.0
C310 C 0.02875 0.30228 0.94995 0.0
C311 C 0.07488 0.30253 0.94349 0.0
C312 C 0.08421 0.31002 0.92766 0.0
Zn313 Zn 0.0571 0.32235 0.89509 0.0
C314 C 0.08976 0.24577 0.88218 0.0
N315 N 0.06561 0.3295 0.84607 0.0
C316 C 0.02521 0.33127 0.83789 0.0
C317 C 0.10883 0.32965 0.83891 0.0
C318 C 0.11238 0.33132 0.82291 0.0
C319 C 0.07112 0.33297 0.81416 0.0
C320 C 0.02717 0.33306 0.82188 0.0
Zn321 Zn 0.06006 0.32546 0.86953 0.0
O322 O 0.97363 0.26173 0.89313 0.0
C323 C 0.03513 0.40777 0.8824 0.0
O324 O 0.97684 0.26411 0.86802 0.0
H325 H 0.1406 0.32835 0.84562 0.0
H326 H 0.97681 0.32346 0.91709 0.0
H327 H -0.0089 0.33091 0.8438 0.0
O328 O 0.03831 0.38617 0.89488 0.0
O329 O 0.04005 0.38826 0.86974 0.0
H330 H 0.11908 0.30918 0.92265 0.0
O331 O 0.14396 0.38473 0.87146 0.0
O332 O 0.14133 0.38093 0.89667 0.0
O333 O 0.08254 0.26461 0.86969 0.0
O334 O 0.07909 0.26081 0.89486 0.0
C335 C 0.16864 0.3992 0.88431 0.0
H336 H 0.95844 0.31214 0.94468 0.0
H337 H 0.10271 0.29564 0.95052 0.0
H338 H 0.14735 0.33186 0.81746 0.0
H339 H -0.00595 0.33352 0.81562 0.0
C340 C 0.22125 0.81255 0.62835 0.0
N341 N 0.2543 0.91516 0.66664 0.0
C342 C 0.21207 0.87158 0.67394 0.0
C343 C 0.21124 0.86812 0.68994 0.0
C344 C 0.25432 0.90986 0.69854 0.0
C345 C 0.29754 0.95412 0.69067 0.0
C346 C 0.29669 0.95597 0.67467 0.0
Zn347 Zn 0.25405 0.92075 0.64321 0.0
C348 C 0.36121 0.94821 0.62963 0.0
N349 N 0.25353 0.93122 0.59422 0.0
C350 C 0.2153 0.89123 0.58496 0.0
C351 C 0.29397 0.9796 0.58829 0.0
C352 C 0.29617 0.98998 0.5726 0.0
C353 C 0.25718 0.94979 0.56281 0.0
C354 C 0.21674 0.89951 0.56908 0.0
Zn355 Zn 0.25208 0.92293 0.61765 0.0
O356 O 0.23097 0.83735 0.64116 0.0
C357 C 0.14301 0.88791 0.6312 0.0
O358 O 0.22939 0.83951 0.61596 0.0
H359 H 0.32454 0.01059 0.59575 0.0
H360 H 0.17882 0.83948 0.66735 0.0
H361 H 0.18345 0.85312 0.5899 0.0
O362 O 0.17024 0.8967 0.64355 0.0
O363 O 0.1677 0.89792 0.61835 0.0
H364 H 0.32975 0.99036 0.66865 0.0
O365 O 0.2719 0.0054 0.61988 0.0
O366 O 0.27446 0.00343 0.64497 0.0
O367 O 0.33561 0.9449 0.6173 0.0
O368 O 0.33722 0.94238 0.64243 0.0
C369 C 0.2775 0.02911 0.6327 0.0
H370 H 0.17743 0.83291 0.69551 0.0
H371 H 0.33121 0.9876 0.69681 0.0
H372 H 0.32843 0.02892 0.56812 0.0
H373 H 0.18602 0.86757 0.56182 0.0
C374 C 0.73718 0.70399 0.88012 0.0
N375 N 0.66353 0.7291 0.91832 0.0
C376 C 0.66341 0.68451 0.92451 0.0
C377 C 0.67074 0.68174 0.94023 0.0
C378 C 0.67875 0.72545 0.94979 0.0
C379 C 0.67782 0.7707 0.94314 0.0
C380 C 0.67011 0.77169 0.9273 0.0
Zn381 Zn 0.65731 0.73069 0.89491 0.0
C382 C 0.73234 0.83954 0.88147 0.0
N383 N 0.64808 0.72926 0.84593 0.0
C384 C 0.64695 0.6873 0.8378 0.0
C385 C 0.6467 0.77162 0.83873 0.0
C386 C 0.64449 0.77302 0.82273 0.0
C387 C 0.64362 0.73041 0.81403 0.0
C388 C 0.6447 0.68704 0.82179 0.0
Zn389 Zn 0.65316 0.72892 0.86937 0.0
O390 O 0.71858 0.70888 0.89294 0.0
C391 C 0.57241 0.62197 0.88272 0.0
O392 O 0.71533 0.70822 0.86782 0.0
H393 H 0.64751 0.80453 0.8454 0.0
H394 H 0.65829 0.65111 0.91721 0.0
H395 H 0.64826 0.65412 0.84374 0.0
O396 O 0.5942 0.64763 0.89508 0.0
O397 O 0.59127 0.64579 0.86994 0.0
H398 H 0.67029 0.80686 0.92214 0.0
O399 O 0.59305 0.75245 0.87133 0.0
O400 O 0.59802 0.75516 0.89652 0.0
O401 O 0.71315 0.81251 0.86913 0.0
O402 O 0.71811 0.81469 0.89429 0.0
C403 C 0.5789 0.76309 0.88416 0.0
H404 H 0.67001 0.64552 0.94484 0.0
H405 H 0.68425 0.80555 0.95004 0.0
H406 H 0.64301 0.80691 0.81725 0.0
H407 H 0.64485 0.65371 0.81556 0.0
H408 H 0.09574 0.29691 0.10876 0.0
H409 H 0.2003 0.12185 0.10554 0.0
H410 H 0.06987 0.25534 0.1569 0.0
H411 H 0.21594 0.13749 0.15484 0.0
H412 H 0.16014 0.18109 0.1055 0.0
H413 H 0.15617 0.25807 0.1073 0.0
C414 C 0.10361 0.28049 0.1191 0.0
C415 C 0.07646 0.27785 0.13287 0.0
C416 C 0.17327 0.17266 0.11632 0.0
C417 C 0.14277 0.23026 0.13108 0.0
C418 C 0.19514 0.13769 0.11637 0.0
C419 C 0.21141 0.1246 0.13021 0.0
C420 C 0.16806 0.1951 0.13023 0.0
C421 C 0.20377 0.14631 0.1439 0.0
C422 C 0.13717 0.25711 0.11818 0.0
C423 C 0.08914 0.25732 0.14597 0.0
N424 N 0.1826 0.18047 0.14355 0.0
N425 N 0.12051 0.2332 0.14468 0.0
H426 H 0.17647 0.89094 0.40403 0.0
H427 H 0.89814 0.77105 0.3559 0.0
H428 H 0.17143 0.90817 0.3549 0.0
H429 H 0.90526 0.76712 0.40538 0.0
H430 H -0.00205 0.81155 0.35492 0.0
H431 H 0.07689 0.83044 0.4041 0.0
C432 C 0.15463 0.8808 0.39319 0.0
C433 C 0.1821 0.90571 0.37948 0.0
C434 C 0.97767 0.80189 0.36599 0.0
C435 C 0.06811 0.83769 0.37955 0.0
C436 C 0.92075 0.7793 0.36658 0.0
C437 C 0.89337 0.76613 0.38076 0.0
C438 C 0.00743 0.8113 0.37968 0.0
C439 C 0.9247 0.77712 0.3942 0.0
C440 C 0.09766 0.84671 0.39326 0.0
C441 C 0.15182 0.89053 0.36577 0.0
N442 N 0.9801 0.79906 0.39332 0.0
N443 N 0.09617 0.85833 0.36619 0.0
H444 H 0.84997 0.07677 0.10626 0.0
H445 H 0.7107 0.80542 0.15743 0.0
H446 H 0.85218 0.07781 0.15582 0.0
H447 H 0.70146 0.80509 0.10796 0.0
H448 H 0.75069 0.90514 0.15726 0.0
H449 H 0.78944 0.97715 0.10676 0.0
C450 C 0.83835 0.05598 0.11725 0.0
C451 C 0.85655 0.08561 0.13102 0.0
C452 C 0.73898 0.88314 0.14646 0.0
C453 C 0.78623 0.97173 0.13168 0.0
C454 C 0.71551 0.82605 0.14656 0.0
C455 C 0.70413 0.79708 0.13266 0.0
C456 C 0.75121 0.91116 0.13237 0.0
C457 C 0.7107 0.82593 0.11894 0.0
C458 C 0.80318 -0.00084 0.11753 0.0
C459 C 0.8395 0.05656 0.14492 0.0
N460 N 0.73497 0.88161 0.11912 0.0
N461 N 0.80532 0.00119 0.14489 0.0
H462 H 0.21013 0.12957 0.35672 0.0
H463 H 0.08675 0.28279 0.4056 0.0
H464 H 0.212 0.1364 0.40625 0.0
H465 H 0.07731 0.26914 0.3562 0.0
H466 H 0.14737 0.24388 0.40571 0.0
H467 H 0.17083 0.18983 0.35612 0.0
C468 C 0.20168 0.14321 0.36749 0.0
C469 C 0.21389 0.12748 0.38157 0.0
C470 C 0.13282 0.25029 0.39482 0.0
C471 C 0.16999 0.19748 0.38094 0.0
C472 C 0.09868 0.27312 0.39473 0.0
C473 C 0.07574 0.27785 0.38089 0.0
C474 C 0.14392 0.23208 0.38099 0.0
C475 C 0.09324 0.26531 0.36716 0.0
C476 C 0.17979 0.17812 0.36713 0.0
C477 C 0.20268 0.14699 0.39514 0.0
N478 N 0.12539 0.24185 0.36758 0.0
N479 N 0.18132 0.18099 0.39448 0.0
H480 H 0.17901 0.89168 0.10809 0.0
H481 H 0.90166 0.77363 0.15656 0.0
H482 H 0.17463 0.90662 0.15733 0.0
H483 H 0.90801 0.77155 0.10704 0.0
H484 H 0.00124 0.81253 0.15738 0.0
H485 H 0.07931 0.83202 0.10805 0.0
C486 C 0.15731 0.88116 0.11895 0.0
C487 C 0.18499 0.90539 0.13269 0.0
C488 C 0.98086 0.80364 0.14634 0.0
C489 C 0.0709 0.83837 0.13265 0.0
C490 C 0.92407 0.78201 0.14585 0.0
C491 C 0.89653 0.76976 0.1317 0.0
C492 C 0.01033 0.81303 0.13259 0.0
C493 C 0.92761 0.78088 0.1182 0.0
C494 C 0.10026 0.84759 0.11889 0.0
C495 C 0.15484 0.88965 0.14643 0.0
N496 N 0.98289 0.80186 0.11899 0.0
N497 N 0.09915 0.85802 0.14603 0.0
H498 H 0.70969 0.80459 0.35523 0.0
H499 H 0.84941 0.07443 0.40699 0.0
H500 H 0.69945 0.80303 0.4047 0.0
H501 H 0.8534 0.07674 0.35743 0.0
H502 H 0.78846 0.97493 0.40626 0.0
H503 H 0.75047 0.90439 0.3556 0.0
C504 C 0.71444 0.82499 0.36615 0.0
C505 C 0.7026 0.79566 0.37999 0.0
C506 C 0.8027 -0.00281 0.39554 0.0
C507 C 0.75056 0.90975 0.3805 0.0
C508 C 0.83813 0.05392 0.39595 0.0
C509 C 0.85687 0.08388 0.38225 0.0
C510 C 0.78605 0.97019 0.38133 0.0
C511 C 0.84028 0.05522 0.36828 0.0
C512 C 0.73838 0.8821 0.36636 0.0
C513 C 0.70909 0.82419 0.39377 0.0
N514 N 0.80579 -8e-05 0.36818 0.0
N515 N 0.73381 0.87989 0.3937 0.0
H516 H 0.26325 0.07858 0.65798 0.0
H517 H 0.12588 0.21083 0.60617 0.0
H518 H 0.27758 0.09137 0.60861 0.0
H519 H 0.11997 0.20754 0.65572 0.0
H520 H 0.18674 0.17221 0.60699 0.0
H521 H 0.22192 0.13709 0.65767 0.0
C522 C 0.25929 0.09504 0.64711 0.0
C523 C 0.27246 0.07886 0.63325 0.0
C524 C 0.17209 0.17989 0.61768 0.0
C525 C 0.22386 0.14438 0.6328 0.0
C526 C 0.1367 0.20121 0.61722 0.0
C527 C 0.11751 0.21206 0.63089 0.0
C528 C 0.18822 0.16913 0.63192 0.0
C529 C 0.13351 0.19949 0.64488 0.0
C530 C 0.23504 0.12792 0.64693 0.0
C531 C 0.26691 0.10188 0.61954 0.0
N532 N 0.16797 0.17868 0.64503 0.0
N533 N 0.24186 0.13253 0.61963 0.0
H534 H 0.07544 0.86081 0.85609 0.0
H535 H 0.79747 0.7002 0.90424 0.0
H536 H 0.06863 0.85081 0.90558 0.0
H537 H 0.80248 0.72088 0.85504 0.0
H538 H 0.8972 0.74049 0.90437 0.0
H539 H 0.97584 0.80043 0.85516 0.0
C540 C 0.05292 0.8465 0.86678 0.0
C541 C 0.08035 0.86125 0.88095 0.0
C542 C 0.87639 0.73535 0.89351 0.0
C543 C 0.9665 0.79107 0.87993 0.0
C544 C 0.81933 0.71174 0.8934 0.0
C545 C 0.7918 0.70853 0.87965 0.0
C546 C 0.90591 0.75587 0.87979 0.0
C547 C 0.82214 0.72343 0.86595 0.0
C548 C -0.00389 0.81152 0.86622 0.0
C549 C 0.04912 0.84097 0.89441 0.0
N550 N 0.87783 0.74759 0.8664 0.0
N551 N -0.00619 0.80683 0.89356 0.0
H552 H 0.76596 0.90515 0.65622 0.0
H553 H 0.88637 0.18317 0.60806 0.0
H554 H 0.76228 0.91169 0.60674 0.0
H555 H 0.89998 0.17776 0.65731 0.0
H556 H 0.82562 0.08363 0.60787 0.0
H557 H 0.80516 0.0047 0.65713 0.0
C558 C 0.774 0.92758 0.64553 0.0
C559 C 0.76132 0.90009 0.63137 0.0
C560 C 0.84111 0.10433 0.61875 0.0
C561 C 0.80509 0.01399 0.63236 0.0
C562 C 0.87533 0.16131 0.6189 0.0
C563 C 0.89947 0.18864 0.63269 0.0
C564 C 0.83115 0.07467 0.63248 0.0
C565 C 0.88307 0.15827 0.64638 0.0
C566 C 0.79583 0.98438 0.64607 0.0
C567 C 0.77198 0.93125 0.6179 0.0
N568 N 0.85082 0.10265 0.6459 0.0
N569 N 0.79329 0.98658 0.61874 0.0
H570 H 0.1273 0.21334 0.90673 0.0
H571 H 0.26525 0.08135 0.855 0.0
H572 H 0.12235 0.2105 0.85718 0.0
H573 H 0.27712 0.09167 0.90443 0.0
H574 H 0.22478 0.14061 0.85534 0.0
H575 H 0.18822 0.17474 0.906 0.0
C576 C 0.13837 0.20387 0.8957 0.0
C577 C 0.11934 0.21474 0.882 0.0
C578 C 0.23717 0.13073 0.8661 0.0
C579 C 0.19011 0.17181 0.88107 0.0
C580 C 0.26094 0.09741 0.8659 0.0
C581 C 0.27315 0.08029 0.87975 0.0
C582 C 0.22549 0.14672 0.88023 0.0
C583 C 0.26721 0.10288 0.8935 0.0
C584 C 0.17378 0.18253 0.89528 0.0
C585 C 0.1357 0.20239 0.86803 0.0
N586 N 0.24261 0.13397 0.89342 0.0
N587 N 0.17014 0.18154 0.86793 0.0
H588 H 0.07736 0.8573 0.65666 0.0
H589 H 0.79929 0.70266 0.60828 0.0
H590 H 0.07072 0.84888 0.60715 0.0
H591 H 0.80415 0.72184 0.65753 0.0
H592 H 0.89883 0.74145 0.60819 0.0
H593 H 0.97751 0.79828 0.65752 0.0
C594 C 0.05486 0.84357 0.64596 0.0
C595 C 0.08238 0.85846 0.6318 0.0
C596 C 0.87802 0.73634 0.61904 0.0
C597 C 0.96824 0.78991 0.63273 0.0
C598 C 0.82107 0.71363 0.61913 0.0
C599 C 0.79357 0.71026 0.6329 0.0
C600 C 0.90752 0.75588 0.63281 0.0
C601 C 0.82379 0.72445 0.64662 0.0
C602 C -0.0021 0.8094 0.64647 0.0
C603 C 0.05116 0.83891 0.61832 0.0
N604 N 0.87942 0.74773 0.64619 0.0
N605 N -0.00428 0.8056 0.61912 0.0
H606 H 0.88628 0.18271 0.90447 0.0
H607 H 0.7668 0.90527 0.85604 0.0
H608 H 0.90081 0.1781 0.85522 0.0
H609 H 0.76509 0.91165 0.90556 0.0
H610 H 0.80577 0.00482 0.85521 0.0
H611 H 0.8261 0.08309 0.90454 0.0
C612 C 0.87556 0.16099 0.89361 0.0
C613 C 0.89981 0.18856 0.87985 0.0
C614 C 0.79695 0.98446 0.86626 0.0
C615 C 0.83217 0.07456 0.87993 0.0
C616 C 0.77527 0.92768 0.86675 0.0
C617 C 0.76315 0.90015 0.88091 0.0
C618 C 0.80655 0.01396 0.88 0.0
C619 C 0.77435 0.93124 0.8944 0.0
C620 C 0.84168 0.10398 0.89369 0.0
C621 C 0.88382 0.15839 0.86613 0.0
N622 N 0.79542 0.98653 0.89361 0.0
N623 N 0.85189 0.10274 0.86654 0.0
H624 H 0.26922 0.98587 0.29456 0.0
H625 H 0.38518 0.16377 0.2176 0.0
H626 H 0.38434 0.16076 0.29446 0.0
H627 H 0.27035 0.98884 0.21832 0.0
H628 H 0.38458 0.16427 0.24568 0.0
H629 H 0.26905 0.98675 0.26659 0.0
C630 C 0.29476 0.02446 0.28866 0.0
C631 C 0.32708 0.07328 0.29692 0.0
C632 C 0.35952 0.12579 0.23968 0.0
C633 C 0.32655 0.0747 0.26476 0.0
C634 C 0.3596 0.12552 0.22365 0.0
C635 C 0.32787 0.07615 0.21555 0.0
C636 C 0.32739 0.07636 0.24772 0.0
C637 C 0.29613 0.02773 0.22404 0.0
C638 C 0.29438 0.02499 0.27266 0.0
C639 C 0.35841 0.12222 0.2886 0.0
N640 N 0.29671 0.02909 0.23962 0.0
N641 N 0.35747 0.12166 0.27299 0.0
H642 H 0.69227 0.70811 0.29457 0.0
H643 H 0.75606 0.59346 0.21768 0.0
H644 H 0.75297 0.59381 0.29444 0.0
H645 H 0.69509 0.70753 0.21828 0.0
H646 H 0.75627 0.59356 0.24575 0.0
H647 H 0.69309 0.70813 0.26659 0.0
C648 C 0.70546 0.68271 0.28866 0.0
C649 C 0.72237 0.65072 0.2969 0.0
C650 C 0.74283 0.61854 0.23973 0.0
C651 C 0.72406 0.65108 0.26476 0.0
C652 C 0.74298 0.61874 0.2237 0.0
C653 C 0.72543 0.65046 0.21558 0.0
C654 C 0.7251 0.65037 0.24773 0.0
C655 C 0.70819 0.6818 0.22403 0.0
C656 C 0.70624 0.68301 0.27266 0.0
C657 C 0.74009 0.61951 0.28858 0.0
N658 N 0.70849 0.68097 0.23961 0.0
N659 N 0.74037 0.6204 0.27298 0.0
H660 H 0.93425 0.34143 0.21831 0.0
H661 H 0.87536 0.16314 0.29505 0.0
H662 H 0.87542 0.16676 0.21844 0.0
H663 H 0.93359 0.3377 0.29476 0.0
H664 H 0.87305 0.16313 0.26702 0.0
H665 H 0.9331 0.34052 0.24632 0.0
C666 C 0.92127 0.30289 0.22423 0.0
C667 C 0.90509 0.25412 0.21598 0.0
C668 C 0.88627 0.20143 0.27309 0.0
C669 C 0.90319 0.2527 0.24813 0.0
C670 C 0.8873 0.20142 0.28911 0.0
C671 C 0.90475 0.25052 0.29731 0.0
C672 C 0.90278 0.25089 0.26516 0.0
C673 C 0.92058 0.29901 0.28895 0.0
C674 C 0.92034 0.30235 0.24024 0.0
C675 C 0.8877 0.20524 0.22429 0.0
N676 N 0.91923 0.29795 0.27336 0.0
N677 N 0.88737 0.20581 0.23989 0.0
H678 H 0.04472 0.39421 0.71794 0.0
H679 H 0.1024 0.27566 0.79503 0.0
H680 H 0.10056 0.27604 0.71838 0.0
H681 H 0.0452 0.39275 0.79437 0.0
H682 H 0.10454 0.2771 0.76699 0.0
H683 H 0.04625 0.39533 0.74594 0.0
C684 C 0.05711 0.3683 0.72392 0.0
C685 C 0.07233 0.3348 0.71575 0.0
C686 C 0.0916 0.30255 0.77298 0.0
C687 C 0.07471 0.33632 0.7479 0.0
C688 C 0.09068 0.302 0.789 0.0
C689 C 0.07353 0.3341 0.7971 0.0
C690 C 0.07531 0.33547 0.76495 0.0
C691 C 0.05797 0.36675 0.78864 0.0
C692 C 0.05826 0.3692 0.73992 0.0
C693 C 0.08902 0.30293 0.72416 0.0
N694 N 0.05922 0.36657 0.77305 0.0
N695 N 0.08961 0.30436 0.73976 0.0
H696 H 0.16199 0.87756 0.79456 0.0
H697 H 0.34132 0.93735 0.71797 0.0
H698 H 0.33684 0.93707 0.79446 0.0
H699 H 0.16645 0.87771 0.71801 0.0
H700 H 0.3402 0.93618 0.74599 0.0
H701 H 0.16233 0.87507 0.76654 0.0
C702 C 0.20041 0.88972 0.78866 0.0
C703 C 0.24949 0.9076 0.79692 0.0
C704 C 0.30203 0.92323 0.73988 0.0
C705 C 0.25027 0.90544 0.76477 0.0
C706 C 0.30269 0.92417 0.72387 0.0
C707 C 0.25393 0.90775 0.71559 0.0
C708 C 0.25225 0.90583 0.74774 0.0
C709 C 0.20494 0.89014 0.72388 0.0
C710 C 0.20062 0.8886 0.77265 0.0
C711 C 0.29816 0.92372 0.7886 0.0
N712 N 0.20539 0.88981 0.73948 0.0
N713 N 0.2973 0.92227 0.77301 0.0
H714 H 0.58387 0.64155 0.71783 0.0
H715 H 0.69917 0.81914 0.79483 0.0
H716 H 0.69799 0.81665 0.71825 0.0
H717 H 0.58511 0.64401 0.7943 0.0
H718 H 0.69739 0.81957 0.76681 0.0
H719 H 0.58265 0.642 0.74584 0.0
C720 C 0.60885 0.6801 0.72381 0.0
C721 C 0.64125 0.72912 0.71564 0.0
C722 C 0.67267 0.78105 0.77282 0.0
C723 C 0.63964 0.73001 0.74779 0.0
C724 C 0.67341 0.78082 0.78884 0.0
C725 C 0.64226 0.73144 0.79697 0.0
C726 C 0.64054 0.73155 0.76482 0.0
C727 C 0.61037 0.68292 0.78854 0.0
C728 C 0.60789 0.68037 0.73982 0.0
C729 C 0.67196 0.77798 0.72404 0.0
N730 N 0.61037 0.68421 0.77295 0.0
N731 N 0.67052 0.77714 0.73963 0.0
H732 H 0.18211 0.94884 0.96933 0.0
H733 H 0.37035 0.01379 0.04408 0.0
H734 H 0.34611 0.97178 0.96855 0.0
H735 H 0.22735 0.03344 0.04291 0.0
H736 H 0.35796 0.99089 0.01679 0.0
H737 H 0.19315 0.97121 0.9968 0.0
C738 C 0.22021 0.95812 0.97498 0.0
C739 C 0.26332 0.95862 0.96666 0.0
C740 C 0.32936 0.0004 0.02246 0.0
C741 C 0.27632 0.98442 0.99797 0.0
C742 C 0.33633 0.0133 0.03805 0.0
C743 C 0.29977 0.02545 0.04576 0.0
C744 C 0.28514 -0.00099 0.01451 0.0
C745 C 0.25671 0.02476 0.03735 0.0
C746 C 0.22666 0.97132 0.9906 0.0
C747 C 0.31205 0.97148 0.97449 0.0
N748 N 0.25034 0.01137 0.02218 0.0
N749 N 0.31716 0.98373 0.98969 0.0
H750 H 0.71709 0.76578 0.46399 0.0
H751 H 0.63716 0.6233 0.54561 0.0
H752 H 0.71481 0.61375 0.47338 0.0
H753 H 0.72095 0.80045 0.54094 0.0
H754 H 0.65286 0.61591 0.51845 0.0
H755 H 0.70682 0.77652 0.49155 0.0
C756 C 0.71468 0.73485 0.47191 0.0
C757 C 0.71685 0.68885 0.46649 0.0
C758 C 0.6679 0.65635 0.52342 0.0
C759 C 0.7041 0.70031 0.49783 0.0
C760 C 0.65923 0.6608 0.53898 0.0
C761 C 0.67836 0.71275 0.54579 0.0
C762 C 0.69485 0.70401 0.51441 0.0
C763 C 0.70488 0.75947 0.53629 0.0
C764 C 0.70897 0.74106 0.48758 0.0
C765 C 0.71365 0.64994 0.47715 0.0
N766 N 0.71216 0.75397 0.52108 0.0
N767 N 0.70679 0.65621 0.49233 0.0
H768 H 0.92784 0.24217 0.9638 0.0
H769 H 0.04807 0.30299 0.04927 0.0
H770 H 0.10123 0.33982 0.97424 0.0
H771 H 0.87475 0.22786 0.03883 0.0
H772 H 0.06816 0.31026 0.02187 0.0
H773 H 0.9077 0.23006 0.99121 0.0
C774 C 0.96175 0.26133 0.97184 0.0
C775 C 0.01638 0.29258 0.96665 0.0
C776 C 0.02573 0.29214 0.02556 0.0
C777 C -0.00654 0.27803 0.99816 0.0
C778 C 0.01417 0.28822 0.04123 0.0
C779 C 0.95958 0.26525 0.04642 0.0
C780 C 0.98244 0.27274 0.01492 0.0
C781 C 0.91739 0.24552 0.03541 0.0
C782 C 0.95016 0.25409 0.98752 0.0
C783 C 0.05856 0.31511 0.97766 0.0
N784 N 0.92972 0.24989 0.02019 0.0
N785 N 0.0462 0.30754 0.99288 0.0
H786 H 0.33861 0.97475 0.46699 0.0
H787 H 0.259 0.03739 0.54866 0.0
H788 H 0.25473 0.06795 0.47172 0.0
H789 H 0.26173 0.88788 0.53925 0.0
H790 H 0.26924 0.05843 0.5211 0.0
H791 H 0.32329 0.95188 0.49416 0.0
C792 C 0.31661 0.99019 0.47364 0.0
C793 C 0.29733 0.0229 0.46684 0.0
C794 C 0.26722 0.02087 0.52507 0.0
C795 C 0.28127 -0.00207 0.49823 0.0
C796 C 0.26152 0.00894 0.54074 0.0
C797 C 0.25947 0.96083 0.54615 0.0
C798 C 0.27217 0.98504 0.51481 0.0
C799 C 0.26279 0.92519 0.53549 0.0
C800 C 0.30815 0.97721 0.48921 0.0
C801 C 0.2709 0.04313 0.47636 0.0
N802 N 0.26962 0.93831 0.52031 0.0
N803 N 0.26382 0.03047 0.49158 0.0
H804 H 0.75812 0.64571 0.03875 0.0
H805 H 0.64031 0.76067 0.97378 0.0
H806 H 0.68199 0.74347 0.04844 0.0
H807 H 0.73937 0.686 0.96403 0.0
H808 H 0.6544 0.75408 1.00119 0.0
H809 H 0.75106 0.6593 0.01132 0.0
C810 C 0.74034 0.6704 0.03514 0.0
C811 C 0.72029 0.69313 0.04597 0.0
C812 C 0.67319 0.73929 0.99305 0.0
C813 C 0.71139 0.70824 0.01453 0.0
C814 C 0.66539 0.74331 0.97737 0.0
C815 C 0.68837 0.72357 0.96653 0.0
C816 C 0.70407 0.71519 0.99796 0.0
C817 C 0.71989 0.70078 0.97194 0.0
C818 C 0.73605 0.67791 0.01946 0.0
C819 C 0.697 0.72417 0.04054 0.0
N820 N 0.7266 0.69703 0.98724 0.0
N821 N 0.693 0.73059 0.02524 0.0
H822 H 0.01087 0.3741 0.54449 0.0
H823 H 0.943 0.18621 0.46955 0.0
H824 H 0.02831 0.22985 0.54303 0.0
H825 H 0.96486 0.34978 0.46921 0.0
H826 H 0.96631 0.19698 0.49695 0.0
H827 H 0.98736 0.3621 0.51725 0.0
C828 C 0.0098 0.3399 0.5384 0.0
C829 C 0.02144 0.30284 0.54602 0.0
C830 C 0.96596 0.23046 0.49086 0.0
C831 C -0.00571 0.28864 0.51482 0.0
C832 C 0.95222 0.22415 0.47528 0.0
C833 C 0.95214 0.26723 0.4671 0.0
C834 C 0.9791 0.27995 0.49833 0.0
C835 C 0.96499 0.31576 0.47503 0.0
C836 C -0.00348 0.33314 0.52284 0.0
C837 C 0.02001 0.25958 0.53755 0.0
N838 N 0.97783 0.32075 0.49019 0.0
N839 N 0.00629 0.25341 0.5224 0.0
H840 H 0.74046 0.18359 0.10389 0.0
H841 H 0.4677 0.0453 0.15493 0.0
H842 H 0.73847 0.19044 0.15339 0.0
H843 H 0.46677 0.04809 0.10537 0.0
H844 H 0.56714 0.08354 0.15439 0.0
H845 H 0.64036 0.12444 0.10406 0.0
C846 C 0.71895 0.17322 0.11478 0.0
C847 C 0.74782 0.1924 0.12864 0.0
C848 C 0.54507 0.07497 0.14363 0.0
C849 C 0.63363 0.12375 0.12893 0.0
C850 C 0.48815 0.05254 0.14392 0.0
C851 C 0.4591 0.04482 0.13018 0.0
C852 C 0.57295 0.08988 0.12951 0.0
C853 C 0.48769 0.05433 0.11626 0.0
C854 C 0.6619 0.13896 0.11488 0.0
C855 C 0.7179 0.17702 0.14242 0.0
N856 N 0.54331 0.07748 0.11628 0.0
N857 N 0.66246 0.1436 0.14221 0.0
H858 H 0.55341 0.51285 0.3587 0.0
H859 H 0.42861 0.23967 0.40943 0.0
H860 H 0.56373 0.5137 0.40816 0.0
H861 H 0.43494 0.24286 0.35989 0.0
H862 H 0.468 0.33958 0.40949 0.0
H863 H 0.49385 0.4132 0.35934 0.0
C864 C 0.54193 0.49231 0.36973 0.0
C865 C 0.56477 0.52146 0.38337 0.0
C866 C 0.46081 0.31834 0.39862 0.0
C867 C 0.4979 0.40738 0.38414 0.0
C868 C 0.43895 0.26142 0.39858 0.0
C869 C 0.42889 0.23292 0.38464 0.0
C870 C 0.4725 0.34683 0.38462 0.0
C871 C 0.44238 0.26313 0.37092 0.0
C872 C 0.50842 0.43528 0.37008 0.0
C873 C 0.54785 0.49274 0.39734 0.0
N874 N 0.46341 0.3184 0.37126 0.0
N875 N 0.51632 0.43702 0.39735 0.0
H876 H 0.93715 0.42165 0.15507 0.0
H877 H 0.79946 0.55577 0.1037 0.0
H878 H 0.93514 0.41794 0.10552 0.0
H879 H 0.79171 0.54692 0.1532 0.0
H880 H 0.85868 0.51497 0.10402 0.0
H881 H 0.89877 0.48269 0.15444 0.0
C882 C 0.93007 0.43484 0.14404 0.0
C883 C 0.93805 0.41355 0.13033 0.0
C884 C 0.84395 0.52195 0.1148 0.0
C885 C 0.89283 0.48216 0.12955 0.0
C886 C 0.80965 0.54466 0.11462 0.0
C887 C 0.79019 0.55429 0.12844 0.0
C888 C 0.85891 0.5089 0.12889 0.0
C889 C 0.80534 0.53979 0.14226 0.0
C890 C 0.90754 0.46923 0.14369 0.0
C891 C 0.9287 0.43259 0.11639 0.0
N892 N 0.83881 0.51784 0.14212 0.0
N893 N 0.90549 0.46498 0.11635 0.0
H894 H 0.46187 0.04085 0.40774 0.0
H895 H 0.73848 0.1874 0.35895 0.0
H896 H 0.46733 0.04382 0.3582 0.0
H897 H 0.7355 0.1775 0.40843 0.0
H898 H 0.63892 0.12834 0.35856 0.0
H899 H 0.56141 0.07909 0.40828 0.0
C900 C 0.48371 0.04802 0.39696 0.0
C901 C 0.45641 0.04044 0.38289 0.0
C902 C 0.65994 0.13901 0.36952 0.0
C903 C 0.57034 0.08538 0.38347 0.0
C904 C 0.71682 0.17331 0.36977 0.0
C905 C 0.74537 0.18786 0.38376 0.0
C906 C 0.63114 0.11922 0.38338 0.0
C907 C 0.7151 0.16776 0.39739 0.0
C908 C 0.54069 0.07042 0.3973 0.0
C909 C 0.48678 0.04994 0.36932 0.0
N910 N 0.65952 0.13451 0.39686 0.0
N911 N 0.54233 0.073 0.36995 0.0
H912 H 0.42661 0.24129 0.10318 0.0
H913 H 0.5574 0.51469 0.15392 0.0
H914 H 0.43368 0.24436 0.15271 0.0
H915 H 0.5672 0.51527 0.10446 0.0
H916 H 0.496 0.41532 0.1533 0.0
H917 H 0.46758 0.34141 0.10314 0.0
C918 C 0.43734 0.26304 0.11403 0.0
C919 C 0.42717 0.23448 0.12797 0.0
C920 C 0.51088 0.43729 0.14256 0.0
C921 C 0.47269 0.34863 0.12801 0.0
C922 C 0.54548 0.49417 0.1429 0.0
C923 C 0.56857 0.52311 0.12924 0.0
C924 C 0.49953 0.40931 0.12849 0.0
C925 C 0.55111 0.49444 0.11529 0.0
C926 C 0.46015 0.32009 0.11401 0.0
C927 C 0.44121 0.26468 0.14169 0.0
N928 N 0.51846 0.43883 0.11528 0.0
N929 N 0.46322 0.32009 0.14136 0.0
H930 H 0.78364 0.54199 0.35875 0.0
H931 H 0.93389 0.4163 0.40774 0.0
H932 H 0.79518 0.55099 0.4082 0.0
H933 H 0.92895 0.41608 0.3582 0.0
H934 H 0.89406 0.47616 0.40813 0.0
H935 H 0.84245 0.50124 0.3584 0.0
C936 C 0.79799 0.53478 0.36957 0.0
C937 C 0.78411 0.54956 0.38355 0.0
C938 C 0.90259 0.4638 0.39717 0.0
C939 C 0.85248 0.50377 0.38319 0.0
C940 C 0.92588 0.43005 0.39692 0.0
C941 C 0.93349 0.41006 0.38291 0.0
C942 C 0.88675 0.47737 0.38332 0.0
C943 C 0.92291 0.42972 0.36928 0.0
C944 C 0.83214 0.51206 0.36934 0.0
C945 C 0.80444 0.53975 0.39718 0.0
N946 N 0.89902 0.46144 0.36983 0.0
N947 N 0.83762 0.51739 0.39666 0.0
H948 H 0.18288 0.74422 0.60336 0.0
H949 H 0.0439 0.47239 0.65483 0.0
H950 H 0.19135 0.74292 0.65284 0.0
H951 H 0.04645 0.47022 0.60528 0.0
H952 H 0.08353 0.57196 0.65411 0.0
H953 H 0.12396 0.64407 0.60367 0.0
C954 C 0.17296 0.72285 0.61427 0.0
C955 C 0.19241 0.75193 0.62809 0.0
C956 C 0.07464 0.54961 0.64338 0.0
C957 C 0.12401 0.63775 0.62854 0.0
C958 C 0.0514 0.49262 0.64378 0.0
C959 C 0.04311 0.46312 0.63011 0.0
C960 C 0.08977 0.57713 0.62922 0.0
C961 C 0.05306 0.49147 0.61613 0.0
C962 C 0.13883 0.66578 0.61444 0.0
C963 C 0.17765 0.7222 0.6419 0.0
N964 N 0.07693 0.54715 0.61604 0.0
N965 N 0.14429 0.66677 0.64176 0.0
H966 H 0.41833 0.94294 0.85828 0.0
H967 H 0.54868 0.80064 0.90927 0.0
H968 H 0.40985 0.93555 0.90778 0.0
H969 H 0.54098 0.79531 0.85974 0.0
H970 H 0.5081 0.86007 0.90918 0.0
H971 H 0.47921 0.9044 0.85893 0.0
C972 C 0.43044 0.93462 0.86932 0.0
C973 C 0.40784 0.94112 0.88298 0.0
C974 C 0.51528 0.84581 0.89835 0.0
C975 C 0.47626 0.89572 0.88377 0.0
C976 C 0.53785 0.81139 0.89839 0.0
C977 C 0.54778 0.79258 0.8845 0.0
C978 C 0.50272 0.86158 0.88431 0.0
C979 C 0.53363 0.80843 0.87074 0.0
C980 C 0.46473 0.91202 0.86967 0.0
C981 C 0.42554 0.93028 0.89694 0.0
N982 N 0.51186 0.84204 0.871 0.0
N983 N 0.45787 0.907 0.89697 0.0
H984 H 0.51074 0.5599 0.65446 0.0
H985 H 0.2375 0.42754 0.60362 0.0
H986 H 0.51133 0.56774 0.60496 0.0
H987 H 0.23989 0.43337 0.65316 0.0
H988 H 0.33763 0.46858 0.60366 0.0
H989 H 0.41141 0.49797 0.65388 0.0
C990 C 0.49025 0.54743 0.64344 0.0
C991 C 0.5192 0.57013 0.62976 0.0
C992 C 0.31618 0.46085 0.61451 0.0
C993 C 0.40538 0.50046 0.62904 0.0
C994 C 0.25909 0.43798 0.61449 0.0
C995 C 0.23032 0.42753 0.6284 0.0
C996 C 0.3446 0.47323 0.62853 0.0
C997 C 0.26037 0.44118 0.64215 0.0
C998 C 0.43338 0.51252 0.64313 0.0
C999 C 0.49053 0.55196 0.61582 0.0
N1000 N 0.31584 0.46333 0.64186 0.0
N1001 N 0.43494 0.51904 0.61582 0.0
H1002 H 0.17772 0.74383 0.90903 0.0
H1003 H 0.03989 0.47116 0.85796 0.0
H1004 H 0.18434 0.74199 0.85952 0.0
H1005 H 0.04361 0.47014 0.9075 0.0
H1006 H 0.07794 0.57054 0.85852 0.0
H1007 H 0.11903 0.6437 0.90885 0.0
C1008 C 0.16737 0.72235 0.89813 0.0
C1009 C 0.18638 0.75127 0.88427 0.0
C1010 C 0.06962 0.54847 0.86929 0.0
C1011 C 0.11827 0.63702 0.88398 0.0
C1012 C 0.0473 0.49158 0.86898 0.0
C1013 C 0.03984 0.4625 0.8827 0.0
C1014 C 0.08467 0.57632 0.8834 0.0
C1015 C 0.0496 0.49106 0.89663 0.0
C1016 C 0.13339 0.66527 0.89804 0.0
C1017 C 0.17106 0.72138 0.87049 0.0
N1018 N 0.0726 0.54666 0.89662 0.0
N1019 N 0.13791 0.66591 0.8707 0.0
H1020 H 0.41415 0.94053 0.60415 0.0
H1021 H 0.5392 0.79075 0.65339 0.0
H1022 H 0.42072 0.94253 0.65367 0.0
H1023 H 0.54757 0.80022 0.6039 0.0
H1024 H 0.50038 0.85121 0.65352 0.0
H1025 H 0.47321 0.89978 0.60364 0.0
C1026 C 0.42933 0.93397 0.61491 0.0
C1027 C 0.41124 0.94356 0.629 0.0
C1028 C 0.51065 0.8401 0.64262 0.0
C1029 C 0.47756 0.89572 0.62848 0.0
C1030 C 0.5322 0.80496 0.64252 0.0
C1031 C 0.54631 0.79006 0.6286 0.0
C1032 C 0.50278 0.86037 0.6287 0.0
C1033 C 0.53682 0.81026 0.61489 0.0
C1034 C 0.46258 0.91011 0.61461 0.0
C1035 C 0.43273 0.9348 0.64255 0.0
N1036 N 0.51555 0.84441 0.61529 0.0
N1037 N 0.46382 0.91024 0.64196 0.0
H1038 H 0.50941 0.56056 0.85855 0.0
H1039 H 0.23633 0.42971 0.90945 0.0
H1040 H 0.51027 0.56993 0.90803 0.0
H1041 H 0.239 0.43609 0.85991 0.0
H1042 H 0.33645 0.47051 0.90943 0.0
H1043 H 0.41007 0.49889 0.85921 0.0
C1044 C 0.48897 0.54849 0.86959 0.0
C1045 C 0.51796 0.57156 0.88323 0.0
C1046 C 0.31504 0.46296 0.89857 0.0
C1047 C 0.40419 0.50221 0.88404 0.0
C1048 C 0.25799 0.44026 0.89858 0.0
C1049 C 0.22931 0.42999 0.88467 0.0
C1050 C 0.34349 0.47531 0.88455 0.0
C1051 C 0.25941 0.44374 0.87092 0.0
C1052 C 0.4321 0.51373 0.86995 0.0
C1053 C 0.48939 0.55387 0.8972 0.0
N1054 N 0.31483 0.46568 0.87122 0.0
N1055 N 0.43379 0.52109 0.89724 0.0
loop_
_geom_bond_atom_site_label_1
_geom_bond_atom_site_label_2
_geom_bond_distance
_geom_bond_site_symmetry_2
_ccdc_geom_bond_type
C0 O16 1.251 . S
C0 O18 1.254 . S
N1 C2 1.333 . S
N1 C6 1.307 . S
N1 Zn7 2.020 . S
C2 N1 1.333 . S
C2 C3 1.379 . S
C2 H20 0.952 . S
C3 C2 1.379 . S
C3 C4 1.390 . S
C3 H30 0.949 . S
C4 C3 1.390 . S
C4 C5 1.357 . S
C5 C4 1.357 . S
C5 C6 1.370 . S
C5 H31 0.950 . S
C6 N1 1.307 . S
C6 C5 1.370 . S
C6 H24 0.948 . S
Zn7 N1 2.020 . S
Zn7 O16 2.039 . S
Zn7 O22 2.034 . S
Zn7 O26 2.025 . S
Zn7 O28 2.024 . S
C8 O27 1.246 . S
C8 O28 1.249 . S
N9 C10 1.307 . S
N9 C11 1.333 . S
N9 Zn15 2.020 . S
C10 N9 1.307 . S
C10 C14 1.370 . S
C10 H21 0.948 . S
C11 N9 1.333 . S
C11 C12 1.379 . S
C11 H19 0.952 . S
C12 C11 1.379 . S
C12 C13 1.390 . S
C12 H32 0.949 . S
C13 C12 1.390 . S
C13 C14 1.357 . S
C14 C10 1.370 . S
C14 C13 1.357 . S
C14 H33 0.950 . S
Zn15 N9 2.020 . S
Zn15 O18 2.025 . S
Zn15 O23 2.024 . S
Zn15 O25 2.039 . S
Zn15 O27 2.034 . S
O16 C0 1.251 . S
O16 Zn7 2.039 . S
C17 O22 1.246 . S
C17 O23 1.249 . S
O18 C0 1.254 . S
O18 Zn15 2.025 . S
H19 C11 0.952 . S
H20 C2 0.952 . S
H21 C10 0.948 . S
O22 Zn7 2.034 . S
O22 C17 1.246 . S
O23 Zn15 2.024 . S
O23 C17 1.249 . S
H24 C6 0.948 . S
O25 Zn15 2.039 . S
O25 C29 1.251 . S
O26 Zn7 2.025 . S
O26 C29 1.254 . S
O27 C8 1.246 . S
O27 Zn15 2.034 . S
O28 Zn7 2.024 . S
O28 C8 1.249 . S
C29 O25 1.251 . S
C29 O26 1.254 . S
H30 C3 0.949 . S
H31 C5 0.950 . S
H32 C12 0.949 . S
H33 C14 0.950 . S
C34 O50 1.251 . S
C34 O52 1.254 . S
N35 C36 1.333 . S
N35 C40 1.307 . S
N35 Zn41 2.020 . S
C36 N35 1.333 . S
C36 C37 1.379 . S
C36 H54 0.952 . S
C37 C36 1.379 . S
C37 C38 1.390 . S
C37 H64 0.949 . S
C38 C37 1.390 . S
C38 C39 1.357 . S
C39 C38 1.357 . S
C39 C40 1.370 . S
C39 H65 0.950 . S
C40 N35 1.307 . S
C40 C39 1.370 . S
C40 H58 0.948 . S
Zn41 N35 2.020 . S
Zn41 O50 2.039 . S
Zn41 O56 2.034 . S
Zn41 O60 2.025 . S
Zn41 O62 2.024 . S
C42 O61 1.246 . S
C42 O62 1.249 . S
N43 C44 1.307 . S
N43 C45 1.333 . S
N43 Zn49 2.020 . S
C44 N43 1.307 . S
C44 C48 1.370 . S
C44 H55 0.948 . S
C45 N43 1.333 . S
C45 C46 1.379 . S
C45 H53 0.952 . S
C46 C45 1.379 . S
C46 C47 1.390 . S
C46 H66 0.949 . S
C47 C46 1.390 . S
C47 C48 1.357 . S
C48 C44 1.370 . S
C48 C47 1.357 . S
C48 H67 0.950 . S
Zn49 N43 2.020 . S
Zn49 O52 2.025 . S
Zn49 O57 2.024 . S
Zn49 O59 2.039 . S
Zn49 O61 2.034 . S
O50 C34 1.251 . S
O50 Zn41 2.039 . S
C51 O56 1.246 . S
C51 O57 1.249 . S
O52 C34 1.254 . S
O52 Zn49 2.025 . S
H53 C45 0.952 . S
H54 C36 0.952 . S
H55 C44 0.948 . S
O56 Zn41 2.034 . S
O56 C51 1.246 . S
O57 Zn49 2.024 . S
O57 C51 1.249 . S
H58 C40 0.948 . S
O59 Zn49 2.039 . S
O59 C63 1.251 . S
O60 Zn41 2.025 . S
O60 C63 1.254 . S
O61 C42 1.246 . S
O61 Zn49 2.034 . S
O62 Zn41 2.024 . S
O62 C42 1.249 . S
C63 O59 1.251 . S
C63 O60 1.254 . S
H64 C37 0.949 . S
H65 C39 0.950 . S
H66 C46 0.949 . S
H67 C48 0.950 . S
C68 O84 1.251 . S
C68 O86 1.254 . S
N69 C70 1.333 . S
N69 C74 1.307 . S
N69 Zn75 2.020 . S
C70 N69 1.333 . S
C70 C71 1.379 . S
C70 H88 0.952 . S
C71 C70 1.379 . S
C71 C72 1.390 . S
C71 H98 0.949 . S
C72 C71 1.390 . S
C72 C73 1.357 . S
C73 C72 1.357 . S
C73 C74 1.370 . S
C73 H99 0.950 . S
C74 N69 1.307 . S
C74 C73 1.370 . S
C74 H92 0.948 . S
Zn75 N69 2.020 . S
Zn75 O84 2.039 . S
Zn75 O90 2.034 . S
Zn75 O94 2.025 . S
Zn75 O96 2.024 . S
C76 O95 1.246 . S
C76 O96 1.249 . S
N77 C78 1.307 . S
N77 C79 1.333 . S
N77 Zn83 2.020 . S
C78 N77 1.307 . S
C78 C82 1.370 . S
C78 H89 0.948 . S
C79 N77 1.333 . S
C79 C80 1.379 . S
C79 H87 0.952 . S
C80 C79 1.379 . S
C80 C81 1.390 . S
C80 H100 0.949 . S
C81 C80 1.390 . S
C81 C82 1.357 . S
C82 C78 1.370 . S
C82 C81 1.357 . S
C82 H101 0.950 . S
Zn83 N77 2.020 . S
Zn83 O86 2.025 . S
Zn83 O91 2.024 . S
Zn83 O93 2.039 . S
Zn83 O95 2.034 . S
O84 C68 1.251 . S
O84 Zn75 2.039 . S
C85 O90 1.246 . S
C85 O91 1.249 . S
O86 C68 1.254 . S
O86 Zn83 2.025 . S
H87 C79 0.952 . S
H88 C70 0.952 . S
H89 C78 0.948 . S
O90 Zn75 2.034 . S
O90 C85 1.246 . S
O91 Zn83 2.024 . S
O91 C85 1.249 . S
H92 C74 0.948 . S
O93 Zn83 2.039 . S
O93 C97 1.251 . S
O94 Zn75 2.025 . S
O94 C97 1.254 . S
O95 C76 1.246 . S
O95 Zn83 2.034 . S
O96 Zn75 2.024 . S
O96 C76 1.249 . S
C97 O93 1.251 . S
C97 O94 1.254 . S
H98 C71 0.949 . S
H99 C73 0.950 . S
H100 C80 0.949 . S
H101 C82 0.950 . S
C102 O118 1.251 . S
C102 O120 1.254 . S
N103 C104 1.333 . S
N103 C108 1.307 . S
N103 Zn109 2.020 . S
C104 N103 1.333 . S
C104 C105 1.379 . S
C104 H122 0.952 . S
C105 C104 1.379 . S
C105 C106 1.390 . S
C105 H132 0.949 . S
C106 C105 1.390 . S
C106 C107 1.357 . S
C107 C106 1.357 . S
C107 C108 1.370 . S
C107 H133 0.950 . S
C108 N103 1.307 . S
C108 C107 1.370 . S
C108 H126 0.948 . S
Zn109 N103 2.020 . S
Zn109 O118 2.039 . S
Zn109 O124 2.034 . S
Zn109 O128 2.025 . S
Zn109 O130 2.024 . S
C110 O129 1.246 . S
C110 O130 1.249 . S
N111 C112 1.307 . S
N111 C113 1.333 . S
N111 Zn117 2.020 . S
C112 N111 1.307 . S
C112 C116 1.370 . S
C112 H123 0.948 . S
C113 N111 1.333 . S
C113 C114 1.379 . S
C113 H121 0.952 . S
C114 C113 1.379 . S
C114 C115 1.390 . S
C114 H134 0.949 . S
C115 C114 1.390 . S
C115 C116 1.357 . S
C116 C112 1.370 . S
C116 C115 1.357 . S
C116 H135 0.950 . S
Zn117 N111 2.020 . S
Zn117 O120 2.025 . S
Zn117 O125 2.024 . S
Zn117 O127 2.039 . S
Zn117 O129 2.034 . S
O118 C102 1.251 . S
O118 Zn109 2.039 . S
C119 O124 1.246 . S
C119 O125 1.249 . S
O120 C102 1.254 . S
O120 Zn117 2.025 . S
H121 C113 0.952 . S
H122 C104 0.952 . S
H123 C112 0.948 . S
O124 Zn109 2.034 . S
O124 C119 1.246 . S
O125 Zn117 2.024 . S
O125 C119 1.249 . S
H126 C108 0.948 . S
O127 Zn117 2.039 . S
O127 C131 1.251 . S
O128 Zn109 2.025 . S
O128 C131 1.254 . S
O129 C110 1.246 . S
O129 Zn117 2.034 . S
O130 Zn109 2.024 . S
O130 C110 1.249 . S
C131 O127 1.251 . S
C131 O128 1.254 . S
H132 C105 0.949 . S
H133 C107 0.950 . S
H134 C114 0.949 . S
H135 C116 0.950 . S
C136 O152 1.251 . S
C136 O154 1.254 . S
N137 C138 1.333 . S
N137 C142 1.307 . S
N137 Zn143 2.020 . S
C138 N137 1.333 . S
C138 C139 1.379 . S
C138 H156 0.952 . S
C139 C138 1.379 . S
C139 C140 1.390 . S
C139 H166 0.949 . S
C140 C139 1.390 . S
C140 C141 1.357 . S
C141 C140 1.357 . S
C141 C142 1.370 . S
C141 H167 0.950 . S
C142 N137 1.307 . S
C142 C141 1.370 . S
C142 H160 0.948 . S
Zn143 N137 2.020 . S
Zn143 O152 2.039 . S
Zn143 O158 2.034 . S
Zn143 O162 2.025 . S
Zn143 O164 2.024 . S
C144 O163 1.246 . S
C144 O164 1.249 . S
N145 C146 1.307 . S
N145 C147 1.333 . S
N145 Zn151 2.020 . S
C146 N145 1.307 . S
C146 C150 1.370 . S
C146 H157 0.948 . S
C147 N145 1.333 . S
C147 C148 1.379 . S
C147 H155 0.952 . S
C148 C147 1.379 . S
C148 C149 1.390 . S
C148 H168 0.949 . S
C149 C148 1.390 . S
C149 C150 1.357 . S
C150 C146 1.370 . S
C150 C149 1.357 . S
C150 H169 0.950 . S
Zn151 N145 2.020 . S
Zn151 O154 2.025 . S
Zn151 O159 2.024 . S
Zn151 O161 2.039 . S
Zn151 O163 2.034 . S
O152 C136 1.251 . S
O152 Zn143 2.039 . S
C153 O158 1.246 . S
C153 O159 1.249 . S
O154 C136 1.254 . S
O154 Zn151 2.025 . S
H155 C147 0.952 . S
H156 C138 0.952 . S
H157 C146 0.948 . S
O158 Zn143 2.034 . S
O158 C153 1.246 . S
O159 Zn151 2.024 . S
O159 C153 1.249 . S
H160 C142 0.948 . S
O161 Zn151 2.039 . S
O161 C165 1.251 . S
O162 Zn143 2.025 . S
O162 C165 1.254 . S
O163 C144 1.246 . S
O163 Zn151 2.034 . S
O164 Zn143 2.024 . S
O164 C144 1.249 . S
C165 O161 1.251 . S
C165 O162 1.254 . S
H166 C139 0.949 . S
H167 C141 0.950 . S
H168 C148 0.949 . S
H169 C150 0.950 . S
C170 O186 1.251 . S
C170 O188 1.254 . S
N171 C172 1.333 . S
N171 C176 1.307 . S
N171 Zn177 2.020 . S
C172 N171 1.333 . S
C172 C173 1.379 . S
C172 H190 0.952 . S
C173 C172 1.379 . S
C173 C174 1.390 . S
C173 H200 0.949 . S
C174 C173 1.390 . S
C174 C175 1.357 . S
C175 C174 1.357 . S
C175 C176 1.370 . S
C175 H201 0.950 . S
C176 N171 1.307 . S
C176 C175 1.370 . S
C176 H194 0.948 . S
Zn177 N171 2.020 . S
Zn177 O186 2.039 . S
Zn177 O192 2.034 . S
Zn177 O196 2.025 . S
Zn177 O198 2.024 . S
C178 O197 1.246 . S
C178 O198 1.249 . S
N179 C180 1.307 . S
N179 C181 1.333 . S
N179 Zn185 2.020 . S
C180 N179 1.307 . S
C180 C184 1.370 . S
C180 H191 0.948 . S
C181 N179 1.333 . S
C181 C182 1.379 . S
C181 H189 0.952 . S
C182 C181 1.379 . S
C182 C183 1.390 . S
C182 H202 0.949 . S
C183 C182 1.390 . S
C183 C184 1.357 . S
C184 C180 1.370 . S
C184 C183 1.357 . S
C184 H203 0.950 . S
Zn185 N179 2.020 . S
Zn185 O188 2.025 . S
Zn185 O193 2.024 . S
Zn185 O195 2.039 . S
Zn185 O197 2.034 . S
O186 C170 1.251 . S
O186 Zn177 2.039 . S
C187 O192 1.246 . S
C187 O193 1.249 . S
O188 C170 1.254 . S
O188 Zn185 2.025 . S
H189 C181 0.952 . S
H190 C172 0.952 . S
H191 C180 0.948 . S
O192 Zn177 2.034 . S
O192 C187 1.246 . S
O193 Zn185 2.024 . S
O193 C187 1.249 . S
H194 C176 0.948 . S
O195 Zn185 2.039 . S
O195 C199 1.251 . S
O196 Zn177 2.025 . S
O196 C199 1.254 . S
O197 C178 1.246 . S
O197 Zn185 2.034 . S
O198 Zn177 2.024 . S
O198 C178 1.249 . S
C199 O195 1.251 . S
C199 O196 1.254 . S
H200 C173 0.949 . S
H201 C175 0.950 . S
H202 C182 0.949 . S
H203 C184 0.950 . S
C204 O220 1.251 . S
C204 O222 1.254 . S
N205 C206 1.333 . S
N205 C210 1.307 . S
N205 Zn211 2.020 . S
C206 N205 1.333 . S
C206 C207 1.379 . S
C206 H224 0.952 . S
C207 C206 1.379 . S
C207 C208 1.390 . S
C207 H234 0.949 . S
C208 C207 1.390 . S
C208 C209 1.357 . S
C209 C208 1.357 . S
C209 C210 1.370 . S
C209 H235 0.950 . S
C210 N205 1.307 . S
C210 C209 1.370 . S
C210 H228 0.948 . S
Zn211 N205 2.020 . S
Zn211 O220 2.039 . S
Zn211 O226 2.034 . S
Zn211 O230 2.025 . S
Zn211 O232 2.024 . S
C212 O231 1.246 . S
C212 O232 1.249 . S
N213 C214 1.307 . S
N213 C215 1.333 . S
N213 Zn219 2.020 . S
C214 N213 1.307 . S
C214 C218 1.370 . S
C214 H225 0.948 . S
C215 N213 1.333 . S
C215 C216 1.379 . S
C215 H223 0.952 . S
C216 C215 1.379 . S
C216 C217 1.390 . S
C216 H236 0.949 . S
C217 C216 1.390 . S
C217 C218 1.357 . S
C218 C214 1.370 . S
C218 C217 1.357 . S
C218 H237 0.950 . S
Zn219 N213 2.020 . S
Zn219 O222 2.025 . S
Zn219 O227 2.024 . S
Zn219 O229 2.039 . S
Zn219 O231 2.034 . S
O220 C204 1.251 . S
O220 Zn211 2.039 . S
C221 O226 1.246 . S
C221 O227 1.249 . S
O222 C204 1.254 . S
O222 Zn219 2.025 . S
H223 C215 0.952 . S
H224 C206 0.952 . S
H225 C214 0.948 . S
O226 Zn211 2.034 . S
O226 C221 1.246 . S
O227 Zn219 2.024 . S
O227 C221 1.249 . S
H228 C210 0.948 . S
O229 Zn219 2.039 . S
O229 C233 1.251 . S
O230 Zn211 2.025 . S
O230 C233 1.254 . S
O231 C212 1.246 . S
O231 Zn219 2.034 . S
O232 Zn211 2.024 . S
O232 C212 1.249 . S
C233 O229 1.251 . S
C233 O230 1.254 . S
H234 C207 0.949 . S
H235 C209 0.950 . S
H236 C216 0.949 . S
H237 C218 0.950 . S
C238 O254 1.251 . S
C238 O256 1.254 . S
N239 C240 1.333 . S
N239 C244 1.307 . S
N239 Zn245 2.020 . S
C240 N239 1.333 . S
C240 C241 1.379 . S
C240 H258 0.952 . S
C241 C240 1.379 . S
C241 C242 1.390 . S
C241 H268 0.949 . S
C242 C241 1.390 . S
C242 C243 1.357 . S
C243 C242 1.357 . S
C243 C244 1.370 . S
C243 H269 0.950 . S
C244 N239 1.307 . S
C244 C243 1.370 . S
C244 H262 0.948 . S
Zn245 N239 2.020 . S
Zn245 O254 2.039 . S
Zn245 O260 2.034 . S
Zn245 O264 2.025 . S
Zn245 O266 2.024 . S
C246 O265 1.246 . S
C246 O266 1.249 . S
N247 C248 1.307 . S
N247 C249 1.333 . S
N247 Zn253 2.020 . S
C248 N247 1.307 . S
C248 C252 1.370 . S
C248 H259 0.948 . S
C249 N247 1.333 . S
C249 C250 1.379 . S
C249 H257 0.952 . S
C250 C249 1.379 . S
C250 C251 1.390 . S
C250 H270 0.949 . S
C251 C250 1.390 . S
C251 C252 1.357 . S
C252 C248 1.370 . S
C252 C251 1.357 . S
C252 H271 0.950 . S
Zn253 N247 2.020 . S
Zn253 O256 2.025 . S
Zn253 O261 2.024 . S
Zn253 O263 2.039 . S
Zn253 O265 2.034 . S
O254 C238 1.251 . S
O254 Zn245 2.039 . S
C255 O260 1.246 . S
C255 O261 1.249 . S
O256 C238 1.254 . S
O256 Zn253 2.025 . S
H257 C249 0.952 . S
H258 C240 0.952 . S
H259 C248 0.948 . S
O260 Zn245 2.034 . S
O260 C255 1.246 . S
O261 Zn253 2.024 . S
O261 C255 1.249 . S
H262 C244 0.948 . S
O263 Zn253 2.039 . S
O263 C267 1.251 . S
O264 Zn245 2.025 . S
O264 C267 1.254 . S
O265 C246 1.246 . S
O265 Zn253 2.034 . S
O266 Zn245 2.024 . S
O266 C246 1.249 . S
C267 O263 1.251 . S
C267 O264 1.254 . S
H268 C241 0.949 . S
H269 C243 0.950 . S
H270 C250 0.949 . S
H271 C252 0.950 . S
C272 O288 1.251 . S
C272 O290 1.254 . S
N273 C274 1.333 . S
N273 C278 1.307 . S
N273 Zn279 2.020 . S
C274 N273 1.333 . S
C274 C275 1.379 . S
C274 H292 0.952 . S
C275 C274 1.379 . S
C275 C276 1.390 . S
C275 H302 0.949 . S
C276 C275 1.390 . S
C276 C277 1.357 . S
C277 C276 1.357 . S
C277 C278 1.370 . S
C277 H303 0.950 . S
C278 N273 1.307 . S
C278 C277 1.370 . S
C278 H296 0.948 . S
Zn279 N273 2.020 . S
Zn279 O288 2.039 . S
Zn279 O294 2.034 . S
Zn279 O298 2.025 . S
Zn279 O300 2.024 . S
C280 O299 1.246 . S
C280 O300 1.249 . S
N281 C282 1.307 . S
N281 C283 1.333 . S
N281 Zn287 2.020 . S
C282 N281 1.307 . S
C282 C286 1.370 . S
C282 H293 0.948 . S
C283 N281 1.333 . S
C283 C284 1.379 . S
C283 H291 0.952 . S
C284 C283 1.379 . S
C284 C285 1.390 . S
C284 H304 0.949 . S
C285 C284 1.390 . S
C285 C286 1.357 . S
C286 C282 1.370 . S
C286 C285 1.357 . S
C286 H305 0.950 . S
Zn287 N281 2.020 . S
Zn287 O290 2.025 . S
Zn287 O295 2.024 . S
Zn287 O297 2.039 . S
Zn287 O299 2.034 . S
O288 C272 1.251 . S
O288 Zn279 2.039 . S
C289 O294 1.246 . S
C289 O295 1.249 . S
O290 C272 1.254 . S
O290 Zn287 2.025 . S
H291 C283 0.952 . S
H292 C274 0.952 . S
H293 C282 0.948 . S
O294 Zn279 2.034 . S
O294 C289 1.246 . S
O295 Zn287 2.024 . S
O295 C289 1.249 . S
H296 C278 0.948 . S
O297 Zn287 2.039 . S
O297 C301 1.251 . S
O298 Zn279 2.025 . S
O298 C301 1.254 . S
O299 C280 1.246 . S
O299 Zn287 2.034 . S
O300 Zn279 2.024 . S
O300 C280 1.249 . S
C301 O297 1.251 . S
C301 O298 1.254 . S
H302 C275 0.949 . S
H303 C277 0.950 . S
H304 C284 0.949 . S
H305 C286 0.950 . S
C306 O322 1.251 . S
C306 O324 1.254 . S
N307 C308 1.333 . S
N307 C312 1.307 . S
N307 Zn313 2.020 . S
C308 N307 1.333 . S
C308 C309 1.379 . S
C308 H326 0.952 . S
C309 C308 1.379 . S
C309 C310 1.390 . S
C309 H336 0.949 . S
C310 C309 1.390 . S
C310 C311 1.357 . S
C311 C310 1.357 . S
C311 C312 1.370 . S
C311 H337 0.950 . S
C312 N307 1.307 . S
C312 C311 1.370 . S
C312 H330 0.948 . S
Zn313 N307 2.020 . S
Zn313 O322 2.039 . S
Zn313 O328 2.034 . S
Zn313 O332 2.025 . S
Zn313 O334 2.024 . S
C314 O333 1.246 . S
C314 O334 1.249 . S
N315 C316 1.307 . S
N315 C317 1.333 . S
N315 Zn321 2.020 . S
C316 N315 1.307 . S
C316 C320 1.370 . S
C316 H327 0.948 . S
C317 N315 1.333 . S
C317 C318 1.379 . S
C317 H325 0.952 . S
C318 C317 1.379 . S
C318 C319 1.390 . S
C318 H338 0.949 . S
C319 C318 1.390 . S
C319 C320 1.357 . S
C320 C316 1.370 . S
C320 C319 1.357 . S
C320 H339 0.950 . S
Zn321 N315 2.020 . S
Zn321 O324 2.025 . S
Zn321 O329 2.024 . S
Zn321 O331 2.039 . S
Zn321 O333 2.034 . S
O322 C306 1.251 . S
O322 Zn313 2.039 . S
C323 O328 1.246 . S
C323 O329 1.249 . S
O324 C306 1.254 . S
O324 Zn321 2.025 . S
H325 C317 0.952 . S
H326 C308 0.952 . S
H327 C316 0.948 . S
O328 Zn313 2.034 . S
O328 C323 1.246 . S
O329 Zn321 2.024 . S
O329 C323 1.249 . S
H330 C312 0.948 . S
O331 Zn321 2.039 . S
O331 C335 1.251 . S
O332 Zn313 2.025 . S
O332 C335 1.254 . S
O333 C314 1.246 . S
O333 Zn321 2.034 . S
O334 Zn313 2.024 . S
O334 C314 1.249 . S
C335 O331 1.251 . S
C335 O332 1.254 . S
H336 C309 0.949 . S
H337 C311 0.950 . S
H338 C318 0.949 . S
H339 C320 0.950 . S
C340 O356 1.251 . S
C340 O358 1.254 . S
N341 C342 1.333 . S
N341 C346 1.307 . S
N341 Zn347 2.020 . S
C342 N341 1.333 . S
C342 C343 1.379 . S
C342 H360 0.952 . S
C343 C342 1.379 . S
C343 C344 1.390 . S
C343 H370 0.949 . S
C344 C343 1.390 . S
C344 C345 1.357 . S
C345 C344 1.357 . S
C345 C346 1.370 . S
C345 H371 0.950 . S
C346 N341 1.307 . S
C346 C345 1.370 . S
C346 H364 0.948 . S
Zn347 N341 2.020 . S
Zn347 O356 2.039 . S
Zn347 O362 2.034 . S
Zn347 O366 2.025 . S
Zn347 O368 2.024 . S
C348 O367 1.246 . S
C348 O368 1.249 . S
N349 C350 1.307 . S
N349 C351 1.333 . S
N349 Zn355 2.020 . S
C350 N349 1.307 . S
C350 C354 1.370 . S
C350 H361 0.948 . S
C351 N349 1.333 . S
C351 C352 1.379 . S
C351 H359 0.952 . S
C352 C351 1.379 . S
C352 C353 1.390 . S
C352 H372 0.949 . S
C353 C352 1.390 . S
C353 C354 1.357 . S
C354 C350 1.370 . S
C354 C353 1.357 . S
C354 H373 0.950 . S
Zn355 N349 2.020 . S
Zn355 O358 2.025 . S
Zn355 O363 2.024 . S
Zn355 O365 2.039 . S
Zn355 O367 2.034 . S
O356 C340 1.251 . S
O356 Zn347 2.039 . S
C357 O362 1.246 . S
C357 O363 1.249 . S
O358 C340 1.254 . S
O358 Zn355 2.025 . S
H359 C351 0.952 . S
H360 C342 0.952 . S
H361 C350 0.948 . S
O362 Zn347 2.034 . S
O362 C357 1.246 . S
O363 Zn355 2.024 . S
O363 C357 1.249 . S
H364 C346 0.948 . S
O365 Zn355 2.039 . S
O365 C369 1.251 . S
O366 Zn347 2.025 . S
O366 C369 1.254 . S
O367 C348 1.246 . S
O367 Zn355 2.034 . S
O368 Zn347 2.024 . S
O368 C348 1.249 . S
C369 O365 1.251 . S
C369 O366 1.254 . S
H370 C343 0.949 . S
H371 C345 0.950 . S
H372 C352 0.949 . S
H373 C354 0.950 . S
C374 O390 1.251 . S
C374 O392 1.254 . S
N375 C376 1.333 . S
N375 C380 1.307 . S
N375 Zn381 2.020 . S
C376 N375 1.333 . S
C376 C377 1.379 . S
C376 H394 0.952 . S
C377 C376 1.379 . S
C377 C378 1.390 . S
C377 H404 0.949 . S
C378 C377 1.390 . S
C378 C379 1.357 . S
C379 C378 1.357 . S
C379 C380 1.370 . S
C379 H405 0.950 . S
C380 N375 1.307 . S
C380 C379 1.370 . S
C380 H398 0.948 . S
Zn381 N375 2.020 . S
Zn381 O390 2.039 . S
Zn381 O396 2.034 . S
Zn381 O400 2.025 . S
Zn381 O402 2.024 . S
C382 O401 1.246 . S
C382 O402 1.249 . S
N383 C384 1.307 . S
N383 C385 1.333 . S
N383 Zn389 2.020 . S
C384 N383 1.307 . S
C384 C388 1.370 . S
C384 H395 0.948 . S
C385 N383 1.333 . S
C385 C386 1.379 . S
C385 H393 0.952 . S
C386 C385 1.379 . S
C386 C387 1.390 . S
C386 H406 0.949 . S
C387 C386 1.390 . S
C387 C388 1.357 . S
C388 C384 1.370 . S
C388 C387 1.357 . S
C388 H407 0.950 . S
Zn389 N383 2.020 . S
Zn389 O392 2.025 . S
Zn389 O397 2.024 . S
Zn389 O399 2.039 . S
Zn389 O401 2.034 . S
O390 C374 1.251 . S
O390 Zn381 2.039 . S
C391 O396 1.246 . S
C391 O397 1.249 . S
O392 C374 1.254 . S
O392 Zn389 2.025 . S
H393 C385 0.952 . S
H394 C376 0.952 . S
H395 C384 0.948 . S
O396 Zn381 2.034 . S
O396 C391 1.246 . S
O397 Zn389 2.024 . S
O397 C391 1.249 . S
H398 C380 0.948 . S
O399 Zn389 2.039 . S
O399 C403 1.251 . S
O400 Zn381 2.025 . S
O400 C403 1.254 . S
O401 C382 1.246 . S
O401 Zn389 2.034 . S
O402 Zn381 2.024 . S
O402 C382 1.249 . S
C403 O399 1.251 . S
C403 O400 1.254 . S
H404 C377 0.949 . S
H405 C379 0.950 . S
H406 C386 0.949 . S
H407 C388 0.950 . S
H408 C414 0.930 . S
H409 C418 0.930 . S
H410 C423 0.929 . S
H411 C421 0.929 . S
H412 C416 0.929 . S
H413 C422 0.929 . S
C414 H408 0.930 . S
C414 C415 1.367 . S
C414 C422 1.378 . S
C415 C414 1.367 . S
C415 C423 1.433 1_455 S
C416 H412 0.929 . S
C416 C418 1.378 . S
C416 C420 1.350 . S
C417 C420 1.463 . S
C417 C422 1.350 . S
C417 N425 1.427 . S
C418 H409 0.930 . S
C418 C416 1.378 . S
C418 C419 1.367 . S
C419 C418 1.367 . S
C419 C421 1.433 . S
C420 C416 1.350 . S
C420 C417 1.463 . S
C420 N424 1.427 . S
C421 H411 0.929 . S
C421 C419 1.433 . S
C421 N424 1.384 . S
C422 H413 0.929 . S
C422 C414 1.378 . S
C422 C417 1.350 . S
C423 H410 0.929 . S
C423 C415 1.433 1_655 S
C423 N425 1.384 1_655 S
N424 C420 1.427 . S
N424 C421 1.384 . S
N425 C417 1.427 . S
N425 C423 1.384 1_455 S
H426 C432 0.930 . S
H427 C436 0.930 . S
H428 C441 0.929 . S
H429 C439 0.929 . S
H430 C434 0.929 . S
H431 C440 0.929 . S
C432 H426 0.930 . S
C432 C433 1.385 . S
C432 C440 1.378 . S
C433 C432 1.385 . S
C433 C441 1.423 1_565 S
C434 H430 0.929 . S
C434 C436 1.378 1_455 S
C434 C438 1.350 . S
C435 C438 1.463 . S
C435 C440 1.350 . S
C435 N443 1.427 . S
C436 H427 0.930 . S
C436 C434 1.378 1_655 S
C436 C437 1.367 . S
C437 C436 1.367 . S
C437 C439 1.433 . S
C438 C434 1.350 . S
C438 C435 1.463 . S
C438 N442 1.427 . S
C439 H429 0.929 . S
C439 C437 1.433 . S
C439 N442 1.384 1_655 S
C440 H431 0.929 . S
C440 C432 1.378 . S
C440 C435 1.350 . S
C441 H428 0.929 . S
C441 C433 1.423 1_545 S
C441 N443 1.384 1_545 S
N442 C438 1.427 . S
N442 C439 1.384 1_455 S
N443 C435 1.427 . S
N443 C441 1.384 1_565 S
H444 C450 0.930 . S
H445 C454 0.930 . S
H446 C459 0.929 . S
H447 C457 0.929 . S
H448 C452 0.929 . S
H449 C458 0.929 . S
C450 H444 0.930 . S
C450 C451 1.367 . S
C450 C458 1.378 1_545 S
C451 C450 1.367 . S
C451 C459 1.433 . S
C452 H448 0.929 . S
C452 C454 1.378 . S
C452 C456 1.350 . S
C453 C456 1.463 . S
C453 C458 1.350 . S
C453 N461 1.427 . S
C454 H445 0.930 . S
C454 C452 1.378 . S
C454 C455 1.367 . S
C455 C454 1.367 . S
C455 C457 1.433 . S
C456 C452 1.350 . S
C456 C453 1.463 . S
C456 N460 1.427 . S
C457 H447 0.929 . S
C457 C455 1.433 . S
C457 N460 1.384 . S
C458 H449 0.929 . S
C458 C450 1.378 1_565 S
C458 C453 1.350 . S
C459 H446 0.929 . S
C459 C451 1.433 . S
C459 N461 1.384 1_545 S
N460 C456 1.427 . S
N460 C457 1.384 . S
N461 C453 1.427 . S
N461 C459 1.384 1_565 S
H462 C468 0.930 . S
H463 C472 0.930 . S
H464 C477 0.929 . S
H465 C475 0.929 . S
H466 C470 0.929 . S
H467 C476 0.929 . S
C468 H462 0.930 . S
C468 C469 1.367 . S
C468 C476 1.378 . S
C469 C468 1.367 . S
C469 C477 1.433 . S
C470 H466 0.929 . S
C470 C472 1.378 . S
C470 C474 1.350 . S
C471 C474 1.463 . S
C471 C476 1.350 . S
C471 N479 1.427 . S
C472 H463 0.930 . S
C472 C470 1.378 . S
C472 C473 1.373 . S
C473 C472 1.373 . S
C473 C475 1.439 . S
C474 C470 1.350 . S
C474 C471 1.463 . S
C474 N478 1.427 . S
C475 H465 0.929 . S
C475 C473 1.439 . S
C475 N478 1.384 . S
C476 H467 0.929 . S
C476 C468 1.378 . S
C476 C471 1.350 . S
C477 H464 0.929 . S
C477 C469 1.433 . S
C477 N479 1.384 . S
N478 C474 1.427 . S
N478 C475 1.384 . S
N479 C471 1.427 . S
N479 C477 1.384 . S
H480 C486 0.930 . S
H481 C490 0.930 . S
H482 C495 0.929 . S
H483 C493 0.929 . S
H484 C488 0.929 . S
H485 C494 0.929 . S
C486 H480 0.930 . S
C486 C487 1.367 . S
C486 C494 1.378 . S
C487 C486 1.367 . S
C487 C495 1.433 1_565 S
C488 H484 0.929 . S
C488 C490 1.378 1_455 S
C488 C492 1.350 . S
C489 C492 1.463 . S
C489 C494 1.350 . S
C489 N497 1.427 . S
C490 H481 0.930 . S
C490 C488 1.378 1_655 S
C490 C491 1.367 . S
C491 C490 1.367 . S
C491 C493 1.433 . S
C492 C488 1.350 . S
C492 C489 1.463 . S
C492 N496 1.427 . S
C493 H483 0.929 . S
C493 C491 1.433 . S
C493 N496 1.384 1_655 S
C494 H485 0.929 . S
C494 C486 1.378 . S
C494 C489 1.350 . S
C495 H482 0.929 . S
C495 C487 1.433 1_545 S
C495 N497 1.384 1_545 S
N496 C492 1.427 . S
N496 C493 1.384 1_455 S
N497 C489 1.427 . S
N497 C495 1.384 1_565 S
H498 C504 0.930 . S
H499 C508 0.930 . S
H500 C513 0.929 . S
H501 C511 0.929 . S
H502 C506 0.929 . S
H503 C512 0.929 . S
C504 H498 0.930 . S
C504 C505 1.367 . S
C504 C512 1.378 . S
C505 C504 1.367 . S
C505 C513 1.433 . S
C506 H502 0.929 . S
C506 C508 1.378 1_565 S
C506 C510 1.350 . S
C507 C510 1.463 . S
C507 C512 1.350 . S
C507 N515 1.427 . S
C508 H499 0.930 . S
C508 C506 1.378 1_545 S
C508 C509 1.367 . S
C509 C508 1.367 . S
C509 C511 1.433 . S
C510 C506 1.350 . S
C510 C507 1.463 . S
C510 N514 1.427 . S
C511 H501 0.929 . S
C511 C509 1.433 . S
C511 N514 1.384 1_545 S
C512 H503 0.929 . S
C512 C504 1.378 . S
C512 C507 1.350 . S
C513 H500 0.929 . S
C513 C505 1.433 . S
C513 N515 1.384 . S
N514 C510 1.427 . S
N514 C511 1.384 1_565 S
N515 C507 1.427 . S
N515 C513 1.384 . S
H516 C522 0.930 . S
H517 C526 0.930 . S
H518 C531 0.929 1_565 S
H519 C529 0.929 . S
H520 C524 0.929 . S
H521 C530 0.929 . S
C522 H516 0.930 . S
C522 C523 1.376 . S
C522 C530 1.378 . S
C523 C522 1.376 . S
C523 C531 1.440 . S
C524 H520 0.929 . S
C524 C526 1.378 . S
C524 C528 1.350 . S
C525 C528 1.463 . S
C525 C530 1.350 . S
C525 N533 1.427 . S
C526 H517 0.930 . S
C526 C524 1.378 . S
C526 C527 1.367 . S
C527 C526 1.367 . S
C527 C529 1.433 . S
C528 C524 1.350 . S
C528 C525 1.463 . S
C528 N532 1.427 . S
C529 H519 0.929 . S
C529 C527 1.433 . S
C529 N532 1.384 . S
C530 H521 0.929 . S
C530 C522 1.378 . S
C530 C525 1.350 . S
C531 H518 0.929 1_545 S
C531 C523 1.440 . S
C531 N533 1.384 . S
N532 C528 1.427 . S
N532 C529 1.384 . S
N533 C525 1.427 . S
N533 C531 1.384 . S
H534 C540 0.930 . S
H535 C544 0.930 . S
H536 C549 0.929 . S
H537 C547 0.929 . S
H538 C542 0.929 . S
H539 C548 0.929 . S
C540 H534 0.930 . S
C540 C541 1.367 . S
C540 C548 1.378 1_455 S
C541 C540 1.367 . S
C541 C549 1.433 . S
C542 H538 0.929 . S
C542 C544 1.378 . S
C542 C546 1.350 . S
C543 C546 1.463 . S
C543 C548 1.350 . S
C543 N551 1.427 . S
C544 H535 0.930 . S
C544 C542 1.378 . S
C544 C545 1.367 . S
C545 C544 1.367 . S
C545 C547 1.433 . S
C546 C542 1.350 . S
C546 C543 1.463 . S
C546 N550 1.427 . S
C547 H537 0.929 . S
C547 C545 1.433 . S
C547 N550 1.384 . S
C548 H539 0.929 . S
C548 C540 1.378 1_655 S
C548 C543 1.350 . S
C549 H536 0.929 . S
C549 C541 1.433 . S
C549 N551 1.384 1_455 S
N550 C546 1.427 . S
N550 C547 1.384 . S
N551 C543 1.427 . S
N551 C549 1.384 1_655 S
H552 C558 0.930 . S
H553 C562 0.930 . S
H554 C567 0.929 . S
H555 C565 0.929 1_455 S
H556 C560 0.929 . S
H557 C566 0.929 . S
C558 H552 0.930 . S
C558 C559 1.367 . S
C558 C566 1.378 1_565 S
C559 C558 1.367 . S
C559 C567 1.433 . S
C560 H556 0.929 . S
C560 C562 1.378 . S
C560 C564 1.350 . S
C561 C564 1.463 . S
C561 C566 1.350 . S
C561 N569 1.427 . S
C562 H553 0.930 . S
C562 C560 1.378 . S
C562 C563 1.374 . S
C563 C562 1.374 . S
C563 C565 1.432 . S
C564 C560 1.350 . S
C564 C561 1.463 . S
C564 N568 1.427 . S
C565 H555 0.929 1_655 S
C565 C563 1.432 . S
C565 N568 1.384 . S
C566 H557 0.929 . S
C566 C558 1.378 1_545 S
C566 C561 1.350 . S
C567 H554 0.929 . S
C567 C559 1.433 . S
C567 N569 1.384 1_565 S
N568 C564 1.427 . S
N568 C565 1.384 . S
N569 C561 1.427 . S
N569 C567 1.384 1_545 S
H570 C576 0.930 . S
H571 C580 0.934 . S
H572 C585 0.929 . S
H573 C583 0.929 . S
H574 C578 0.929 . S
H575 C584 0.929 . S
C576 H570 0.930 . S
C576 C577 1.367 . S
C576 C584 1.378 . S
C577 C576 1.367 . S
C577 C585 1.433 . S
C578 H574 0.929 . S
C578 C580 1.372 1_545 S
C578 C582 1.350 . S
C579 C582 1.463 . S
C579 C584 1.350 . S
C579 N587 1.427 . S
C580 H571 0.934 . S
C580 C578 1.372 1_565 S
C580 C581 1.369 . S
C581 C580 1.369 . S
C581 C583 1.434 1_565 S
C582 C578 1.350 . S
C582 C579 1.463 . S
C582 N586 1.427 . S
C583 H573 0.929 . S
C583 C581 1.434 1_545 S
C583 N586 1.384 . S
C584 H575 0.929 . S
C584 C576 1.378 . S
C584 C579 1.350 . S
C585 H572 0.929 . S
C585 C577 1.433 . S
C585 N587 1.384 . S
N586 C582 1.427 . S
N586 C583 1.384 . S
N587 C579 1.427 . S
N587 C585 1.384 . S
H588 C594 0.930 . S
H589 C598 0.930 . S
H590 C603 0.929 . S
H591 C601 0.929 . S
H592 C596 0.929 . S
H593 C602 0.929 . S
C594 H588 0.930 . S
C594 C595 1.367 . S
C594 C602 1.378 1_455 S
C595 C594 1.367 . S
C595 C603 1.433 . S
C596 H592 0.929 . S
C596 C598 1.378 . S
C596 C600 1.350 . S
C597 C600 1.463 . S
C597 C602 1.350 . S
C597 N605 1.427 . S
C598 H589 0.930 . S
C598 C596 1.378 . S
C598 C599 1.367 . S
C599 C598 1.367 . S
C599 C601 1.433 . S
C600 C596 1.350 . S
C600 C597 1.463 . S
C600 N604 1.427 . S
C601 H591 0.929 . S
C601 C599 1.433 . S
C601 N604 1.384 . S
C602 H593 0.929 . S
C602 C594 1.378 1_655 S
C602 C597 1.350 . S
C603 H590 0.929 . S
C603 C595 1.433 . S
C603 N605 1.384 1_455 S
N604 C600 1.427 . S
N604 C601 1.384 . S
N605 C597 1.427 . S
N605 C603 1.384 1_655 S
H606 C612 0.930 1_455 S
H607 C616 0.930 . S
H608 C621 0.929 . S
H609 C619 0.929 . S
H610 C614 0.929 . S
H611 C620 0.929 . S
C612 H606 0.930 1_655 S
C612 C613 1.367 . S
C612 C620 1.378 . S
C613 C612 1.367 . S
C613 C621 1.433 . S
C614 H610 0.929 . S
C614 C616 1.378 1_545 S
C614 C618 1.350 . S
C615 C618 1.463 . S
C615 C620 1.350 . S
C615 N623 1.427 . S
C616 H607 0.930 . S
C616 C614 1.378 1_565 S
C616 C617 1.367 . S
C617 C616 1.367 . S
C617 C619 1.433 . S
C618 C614 1.350 . S
C618 C615 1.463 . S
C618 N622 1.427 . S
C619 H609 0.929 . S
C619 C617 1.433 . S
C619 N622 1.384 1_565 S
C620 H611 0.929 . S
C620 C612 1.378 . S
C620 C615 1.350 . S
C621 H608 0.929 . S
C621 C613 1.433 . S
C621 N623 1.384 . S
N622 C618 1.427 . S
N622 C619 1.384 1_545 S
N623 C615 1.427 . S
N623 C621 1.384 . S
H624 C630 0.930 . S
H625 C634 0.930 . S
H626 C639 0.929 . S
H627 C637 0.929 . S
H628 C632 0.929 . S
H629 C638 0.929 . S
C630 H624 0.930 . S
C630 C631 1.367 . S
C630 C638 1.378 . S
C631 C630 1.367 . S
C631 C639 1.433 . S
C632 H628 0.929 . S
C632 C634 1.378 . S
C632 C636 1.350 . S
C633 C636 1.463 . S
C633 C638 1.350 . S
C633 N641 1.427 . S
C634 H625 0.930 . S
C634 C632 1.378 . S
C634 C635 1.367 . S
C635 C634 1.367 . S
C635 C637 1.433 . S
C636 C632 1.350 . S
C636 C633 1.463 . S
C636 N640 1.427 . S
C637 H627 0.929 . S
C637 C635 1.433 . S
C637 N640 1.384 . S
C638 H629 0.929 . S
C638 C630 1.378 . S
C638 C633 1.350 . S
C639 H626 0.929 . S
C639 C631 1.433 . S
C639 N641 1.384 . S
N640 C636 1.427 . S
N640 C637 1.384 . S
N641 C633 1.427 . S
N641 C639 1.384 . S
H642 C648 0.930 . S
H643 C652 0.930 . S
H644 C657 0.929 . S
H645 C655 0.929 . S
H646 C650 0.929 . S
H647 C656 0.929 . S
C648 H642 0.930 . S
C648 C649 1.367 . S
C648 C656 1.378 . S
C649 C648 1.367 . S
C649 C657 1.433 . S
C650 H646 0.929 . S
C650 C652 1.378 . S
C650 C654 1.350 . S
C651 C654 1.463 . S
C651 C656 1.350 . S
C651 N659 1.427 . S
C652 H643 0.930 . S
C652 C650 1.378 . S
C652 C653 1.367 . S
C653 C652 1.367 . S
C653 C655 1.433 . S
C654 C650 1.350 . S
C654 C651 1.463 . S
C654 N658 1.427 . S
C655 H645 0.929 . S
C655 C653 1.433 . S
C655 N658 1.384 . S
C656 H647 0.929 . S
C656 C648 1.378 . S
C656 C651 1.350 . S
C657 H644 0.929 . S
C657 C649 1.433 . S
C657 N659 1.384 . S
N658 C654 1.427 . S
N658 C655 1.384 . S
N659 C651 1.427 . S
N659 C657 1.384 . S
H660 C666 0.930 . S
H661 C670 0.930 . S
H662 C675 0.929 . S
H663 C673 0.929 . S
H664 C668 0.929 . S
H665 C674 0.929 . S
C666 H660 0.930 . S
C666 C667 1.367 . S
C666 C674 1.378 . S
C667 C666 1.367 . S
C667 C675 1.433 . S
C668 H664 0.929 . S
C668 C670 1.378 . S
C668 C672 1.350 . S
C669 C672 1.463 . S
C669 C674 1.350 . S
C669 N677 1.427 . S
C670 H661 0.930 . S
C670 C668 1.378 . S
C670 C671 1.367 . S
C671 C670 1.367 . S
C671 C673 1.433 . S
C672 C668 1.350 . S
C672 C669 1.463 . S
C672 N676 1.427 . S
C673 H663 0.929 . S
C673 C671 1.433 . S
C673 N676 1.384 . S
C674 H665 0.929 . S
C674 C666 1.378 . S
C674 C669 1.350 . S
C675 H662 0.929 . S
C675 C667 1.433 . S
C675 N677 1.384 . S
N676 C672 1.427 . S
N676 C673 1.384 . S
N677 C669 1.427 . S
N677 C675 1.384 . S
H678 C684 0.930 . S
H679 C688 0.930 . S
H680 C693 0.929 . S
H681 C691 0.929 . S
H682 C686 0.929 . S
H683 C692 0.929 . S
C684 H678 0.930 . S
C684 C685 1.367 . S
C684 C692 1.378 . S
C685 C684 1.367 . S
C685 C693 1.433 . S
C686 H682 0.929 . S
C686 C688 1.378 . S
C686 C690 1.350 . S
C687 C690 1.463 . S
C687 C692 1.350 . S
C687 N695 1.427 . S
C688 H679 0.930 . S
C688 C686 1.378 . S
C688 C689 1.367 . S
C689 C688 1.367 . S
C689 C691 1.433 . S
C690 C686 1.350 . S
C690 C687 1.463 . S
C690 N694 1.427 . S
C691 H681 0.929 . S
C691 C689 1.433 . S
C691 N694 1.384 . S
C692 H683 0.929 . S
C692 C684 1.378 . S
C692 C687 1.350 . S
C693 H680 0.929 . S
C693 C685 1.433 . S
C693 N695 1.384 . S
N694 C690 1.427 . S
N694 C691 1.384 . S
N695 C687 1.427 . S
N695 C693 1.384 . S
H696 C702 0.930 . S
H697 C706 0.930 . S
H698 C711 0.929 . S
H699 C709 0.929 . S
H700 C704 0.929 . S
H701 C710 0.929 . S
C702 H696 0.930 . S
C702 C703 1.367 . S
C702 C710 1.378 . S
C703 C702 1.367 . S
C703 C711 1.433 . S
C704 H700 0.929 . S
C704 C706 1.378 . S
C704 C708 1.350 . S
C705 C708 1.463 . S
C705 C710 1.350 . S
C705 N713 1.427 . S
C706 H697 0.930 . S
C706 C704 1.378 . S
C706 C707 1.367 . S
C707 C706 1.367 . S
C707 C709 1.433 . S
C708 C704 1.350 . S
C708 C705 1.463 . S
C708 N712 1.427 . S
C709 H699 0.929 . S
C709 C707 1.433 . S
C709 N712 1.384 . S
C710 H701 0.929 . S
C710 C702 1.378 . S
C710 C705 1.350 . S
C711 H698 0.929 . S
C711 C703 1.433 . S
C711 N713 1.384 . S
N712 C708 1.427 . S
N712 C709 1.384 . S
N713 C705 1.427 . S
N713 C711 1.384 . S
H714 C720 0.930 . S
H715 C724 0.930 . S
H716 C729 0.929 . S
H717 C727 0.929 . S
H718 C722 0.929 . S
H719 C728 0.929 . S
C720 H714 0.930 . S
C720 C721 1.367 . S
C720 C728 1.378 . S
C721 C720 1.367 . S
C721 C729 1.433 . S
C722 H718 0.929 . S
C722 C724 1.378 . S
C722 C726 1.350 . S
C723 C726 1.463 . S
C723 C728 1.350 . S
C723 N731 1.427 . S
C724 H715 0.930 . S
C724 C722 1.378 . S
C724 C725 1.367 . S
C725 C724 1.367 . S
C725 C727 1.433 . S
C726 C722 1.350 . S
C726 C723 1.463 . S
C726 N730 1.427 . S
C727 H717 0.929 . S
C727 C725 1.433 . S
C727 N730 1.384 . S
C728 H719 0.929 . S
C728 C720 1.378 . S
C728 C723 1.350 . S
C729 H716 0.929 . S
C729 C721 1.433 . S
C729 N731 1.384 . S
N730 C726 1.427 . S
N730 C727 1.384 . S
N731 C723 1.427 . S
N731 C729 1.384 . S
H732 C738 0.930 . S
H733 C742 0.930 . S
H734 C747 0.929 . S
H735 C745 0.929 . S
H736 C740 0.929 . S
H737 C746 0.929 . S
C738 H732 0.930 . S
C738 C739 1.367 . S
C738 C746 1.378 . S
C739 C738 1.367 . S
C739 C747 1.433 . S
C740 H736 0.929 . S
C740 C742 1.378 . S
C740 C744 1.350 . S
C741 C744 1.463 1_566 S
C741 C746 1.350 . S
C741 N749 1.427 . S
C742 H733 0.930 . S
C742 C740 1.378 . S
C742 C743 1.367 . S
C743 C742 1.367 . S
C743 C745 1.433 . S
C744 C740 1.350 . S
C744 C741 1.463 1_544 S
C744 N748 1.427 . S
C745 H735 0.929 . S
C745 C743 1.433 . S
C745 N748 1.384 . S
C746 H737 0.929 . S
C746 C738 1.378 . S
C746 C741 1.350 . S
C747 H734 0.929 . S
C747 C739 1.433 . S
C747 N749 1.384 . S
N748 C744 1.427 . S
N748 C745 1.384 . S
N749 C741 1.427 . S
N749 C747 1.384 . S
H750 C756 0.930 . S
H751 C760 0.930 . S
H752 C765 0.929 . S
H753 C763 0.929 . S
H754 C758 0.929 . S
H755 C764 0.929 . S
C756 H750 0.930 . S
C756 C757 1.367 . S
C756 C764 1.378 . S
C757 C756 1.367 . S
C757 C765 1.433 . S
C758 H754 0.929 . S
C758 C760 1.378 . S
C758 C762 1.350 . S
C759 C762 1.463 . S
C759 C764 1.350 . S
C759 N767 1.427 . S
C760 H751 0.930 . S
C760 C758 1.378 . S
C760 C761 1.367 . S
C761 C760 1.367 . S
C761 C763 1.433 . S
C762 C758 1.350 . S
C762 C759 1.463 . S
C762 N766 1.427 . S
C763 H753 0.929 . S
C763 C761 1.433 . S
C763 N766 1.384 . S
C764 H755 0.929 . S
C764 C756 1.378 . S
C764 C759 1.350 . S
C765 H752 0.929 . S
C765 C757 1.433 . S
C765 N767 1.384 . S
N766 C762 1.427 . S
N766 C763 1.384 . S
N767 C759 1.427 . S
N767 C765 1.384 . S
H768 C774 0.930 . S
H769 C778 0.930 . S
H770 C783 0.929 . S
H771 C781 0.929 . S
H772 C776 0.929 . S
H773 C782 0.929 . S
C774 H768 0.930 . S
C774 C775 1.367 . S
C774 C782 1.378 1_455 S
C775 C774 1.367 . S
C775 C783 1.433 . S
C776 H772 0.929 . S
C776 C778 1.378 1_455 S
C776 C780 1.350 1_455 S
C777 C780 1.463 1_456 S
C777 C782 1.350 1_455 S
C777 N785 1.427 . S
C778 H769 0.930 . S
C778 C776 1.378 1_655 S
C778 C779 1.367 . S
C779 C778 1.367 . S
C779 C781 1.433 . S
C780 C776 1.350 1_655 S
C780 C777 1.463 1_654 S
C780 N784 1.427 . S
C781 H771 0.929 . S
C781 C779 1.433 . S
C781 N784 1.384 . S
C782 H773 0.929 . S
C782 C774 1.378 1_655 S
C782 C777 1.350 1_655 S
C783 H770 0.929 . S
C783 C775 1.433 . S
C783 N785 1.384 . S
N784 C780 1.427 . S
N784 C781 1.384 . S
N785 C777 1.427 . S
N785 C783 1.384 . S
H786 C792 0.930 . S
H787 C796 0.930 . S
H788 C801 0.929 . S
H789 C799 0.929 . S
H790 C794 0.929 . S
H791 C800 0.929 . S
C792 H786 0.930 . S
C792 C793 1.367 . S
C792 C800 1.378 1_545 S
C793 C792 1.367 . S
C793 C801 1.433 . S
C794 H790 0.929 . S
C794 C796 1.378 1_545 S
C794 C798 1.350 1_545 S
C795 C798 1.463 1_545 S
C795 C800 1.350 1_545 S
C795 N803 1.427 . S
C796 H787 0.930 . S
C796 C794 1.378 1_565 S
C796 C797 1.367 . S
C797 C796 1.367 . S
C797 C799 1.433 . S
C798 C794 1.350 1_565 S
C798 C795 1.463 1_565 S
C798 N802 1.427 . S
C799 H789 0.929 . S
C799 C797 1.433 . S
C799 N802 1.384 . S
C800 H791 0.929 . S
C800 C792 1.378 1_565 S
C800 C795 1.350 1_565 S
C801 H788 0.929 . S
C801 C793 1.433 . S
C801 N803 1.384 . S
N802 C798 1.427 . S
N802 C799 1.384 . S
N803 C795 1.427 . S
N803 C801 1.384 . S
H804 C810 0.930 . S
H805 C814 0.930 . S
H806 C819 0.929 . S
H807 C817 0.929 . S
H808 C812 0.929 1_554 S
H809 C818 0.929 1_556 S
C810 H804 0.930 . S
C810 C811 1.367 . S
C810 C818 1.378 . S
C811 C810 1.367 . S
C811 C819 1.433 . S
C812 H808 0.929 1_556 S
C812 C814 1.378 . S
C812 C816 1.350 . S
C813 C816 1.463 1_554 S
C813 C818 1.350 . S
C813 N821 1.427 . S
C814 H805 0.930 . S
C814 C812 1.378 . S
C814 C815 1.367 . S
C815 C814 1.367 . S
C815 C817 1.433 . S
C816 C812 1.350 . S
C816 C813 1.463 1_556 S
C816 N820 1.427 . S
C817 H807 0.929 . S
C817 C815 1.433 . S
C817 N820 1.384 . S
C818 H809 0.929 1_554 S
C818 C810 1.378 . S
C818 C813 1.350 . S
C819 H806 0.929 . S
C819 C811 1.433 . S
C819 N821 1.384 . S
N820 C816 1.427 . S
N820 C817 1.384 . S
N821 C813 1.427 . S
N821 C819 1.384 . S
H822 C828 0.930 . S
H823 C832 0.930 . S
H824 C837 0.929 . S
H825 C835 0.929 . S
H826 C830 0.929 . S
H827 C836 0.929 . S
C828 H822 0.930 . S
C828 C829 1.367 . S
C828 C836 1.378 . S
C829 C828 1.367 . S
C829 C837 1.433 . S
C830 H826 0.929 . S
C830 C832 1.378 . S
C830 C834 1.350 . S
C831 C834 1.463 1_455 S
C831 C836 1.350 . S
C831 N839 1.427 . S
C832 H823 0.930 . S
C832 C830 1.378 . S
C832 C833 1.367 . S
C833 C832 1.367 . S
C833 C835 1.433 . S
C834 C830 1.350 . S
C834 C831 1.463 1_655 S
C834 N838 1.427 . S
C835 H825 0.929 . S
C835 C833 1.433 . S
C835 N838 1.384 . S
C836 H827 0.929 . S
C836 C828 1.378 . S
C836 C831 1.350 . S
C837 H824 0.929 . S
C837 C829 1.433 . S
C837 N839 1.384 . S
N838 C834 1.427 . S
N838 C835 1.384 . S
N839 C831 1.427 . S
N839 C837 1.384 . S
H840 C846 0.930 . S
H841 C850 0.930 . S
H842 C855 0.929 . S
H843 C853 0.929 . S
H844 C848 0.929 . S
H845 C854 0.929 . S
C846 H840 0.930 . S
C846 C847 1.367 . S
C846 C854 1.378 . S
C847 C846 1.367 . S
C847 C855 1.433 . S
C848 H844 0.929 . S
C848 C850 1.378 . S
C848 C852 1.350 . S
C849 C852 1.463 . S
C849 C854 1.350 . S
C849 N857 1.427 . S
C850 H841 0.930 . S
C850 C848 1.378 . S
C850 C851 1.367 . S
C851 C850 1.367 . S
C851 C853 1.433 . S
C852 C848 1.350 . S
C852 C849 1.463 . S
C852 N856 1.427 . S
C853 H843 0.929 . S
C853 C851 1.433 . S
C853 N856 1.384 . S
C854 H845 0.929 . S
C854 C846 1.378 . S
C854 C849 1.350 . S
C855 H842 0.929 . S
C855 C847 1.433 . S
C855 N857 1.384 . S
N856 C852 1.427 . S
N856 C853 1.384 . S
N857 C849 1.427 . S
N857 C855 1.384 . S
H858 C864 0.930 . S
H859 C868 0.930 . S
H860 C873 0.929 . S
H861 C871 0.929 . S
H862 C866 0.929 . S
H863 C872 0.929 . S
C864 H858 0.930 . S
C864 C865 1.367 . S
C864 C872 1.378 . S
C865 C864 1.367 . S
C865 C873 1.433 . S
C866 H862 0.929 . S
C866 C868 1.378 . S
C866 C870 1.350 . S
C867 C870 1.463 . S
C867 C872 1.350 . S
C867 N875 1.427 . S
C868 H859 0.930 . S
C868 C866 1.378 . S
C868 C869 1.367 . S
C869 C868 1.367 . S
C869 C871 1.433 . S
C870 C866 1.350 . S
C870 C867 1.463 . S
C870 N874 1.427 . S
C871 H861 0.929 . S
C871 C869 1.433 . S
C871 N874 1.384 . S
C872 H863 0.929 . S
C872 C864 1.378 . S
C872 C867 1.350 . S
C873 H860 0.929 . S
C873 C865 1.433 . S
C873 N875 1.384 . S
N874 C870 1.427 . S
N874 C871 1.384 . S
N875 C867 1.427 . S
N875 C873 1.384 . S
H876 C882 0.930 . S
H877 C886 0.930 . S
H878 C891 0.929 . S
H879 C889 0.929 . S
H880 C884 0.929 . S
H881 C890 0.929 . S
C882 H876 0.930 . S
C882 C883 1.367 . S
C882 C890 1.378 . S
C883 C882 1.367 . S
C883 C891 1.433 . S
C884 H880 0.929 . S
C884 C886 1.378 . S
C884 C888 1.350 . S
C885 C888 1.463 . S
C885 C890 1.350 . S
C885 N893 1.427 . S
C886 H877 0.930 . S
C886 C884 1.378 . S
C886 C887 1.367 . S
C887 C886 1.367 . S
C887 C889 1.433 . S
C888 C884 1.350 . S
C888 C885 1.463 . S
C888 N892 1.427 . S
C889 H879 0.929 . S
C889 C887 1.433 . S
C889 N892 1.384 . S
C890 H881 0.929 . S
C890 C882 1.378 . S
C890 C885 1.350 . S
C891 H878 0.929 . S
C891 C883 1.433 . S
C891 N893 1.384 . S
N892 C888 1.427 . S
N892 C889 1.384 . S
N893 C885 1.427 . S
N893 C891 1.384 . S
H894 C900 0.930 . S
H895 C904 0.930 . S
H896 C909 0.929 . S
H897 C907 0.929 . S
H898 C902 0.929 . S
H899 C908 0.929 . S
C900 H894 0.930 . S
C900 C901 1.367 . S
C900 C908 1.378 . S
C901 C900 1.367 . S
C901 C909 1.433 . S
C902 H898 0.929 . S
C902 C904 1.378 . S
C902 C906 1.350 . S
C903 C906 1.463 . S
C903 C908 1.350 . S
C903 N911 1.427 . S
C904 H895 0.930 . S
C904 C902 1.378 . S
C904 C905 1.367 . S
C905 C904 1.367 . S
C905 C907 1.433 . S
C906 C902 1.350 . S
C906 C903 1.463 . S
C906 N910 1.427 . S
C907 H897 0.929 . S
C907 C905 1.433 . S
C907 N910 1.384 . S
C908 H899 0.929 . S
C908 C900 1.378 . S
C908 C903 1.350 . S
C909 H896 0.929 . S
C909 C901 1.433 . S
C909 N911 1.384 . S
N910 C906 1.427 . S
N910 C907 1.384 . S
N911 C903 1.427 . S
N911 C909 1.384 . S
H912 C918 0.930 . S
H913 C922 0.930 . S
H914 C927 0.929 . S
H915 C925 0.929 . S
H916 C920 0.929 . S
H917 C926 0.929 . S
C918 H912 0.930 . S
C918 C919 1.367 . S
C918 C926 1.378 . S
C919 C918 1.367 . S
C919 C927 1.433 . S
C920 H916 0.929 . S
C920 C922 1.378 . S
C920 C924 1.350 . S
C921 C924 1.463 . S
C921 C926 1.350 . S
C921 N929 1.427 . S
C922 H913 0.930 . S
C922 C920 1.378 . S
C922 C923 1.367 . S
C923 C922 1.367 . S
C923 C925 1.433 . S
C924 C920 1.350 . S
C924 C921 1.463 . S
C924 N928 1.427 . S
C925 H915 0.929 . S
C925 C923 1.433 . S
C925 N928 1.384 . S
C926 H917 0.929 . S
C926 C918 1.378 . S
C926 C921 1.350 . S
C927 H914 0.929 . S
C927 C919 1.433 . S
C927 N929 1.384 . S
N928 C924 1.427 . S
N928 C925 1.384 . S
N929 C921 1.427 . S
N929 C927 1.384 . S
H930 C936 0.930 . S
H931 C940 0.930 . S
H932 C945 0.929 . S
H933 C943 0.929 . S
H934 C938 0.929 . S
H935 C944 0.929 . S
C936 H930 0.930 . S
C936 C937 1.367 . S
C936 C944 1.378 . S
C937 C936 1.367 . S
C937 C945 1.433 . S
C938 H934 0.929 . S
C938 C940 1.378 . S
C938 C942 1.350 . S
C939 C942 1.463 . S
C939 C944 1.350 . S
C939 N947 1.427 . S
C940 H931 0.930 . S
C940 C938 1.378 . S
C940 C941 1.367 . S
C941 C940 1.367 . S
C941 C943 1.433 . S
C942 C938 1.350 . S
C942 C939 1.463 . S
C942 N946 1.427 . S
C943 H933 0.929 . S
C943 C941 1.433 . S
C943 N946 1.384 . S
C944 H935 0.929 . S
C944 C936 1.378 . S
C944 C939 1.350 . S
C945 H932 0.929 . S
C945 C937 1.433 . S
C945 N947 1.384 . S
N946 C942 1.427 . S
N946 C943 1.384 . S
N947 C939 1.427 . S
N947 C945 1.384 . S
H948 C954 0.930 . S
H949 C958 0.930 . S
H950 C963 0.929 . S
H951 C961 0.929 . S
H952 C956 0.929 . S
H953 C962 0.929 . S
C954 H948 0.930 . S
C954 C955 1.367 . S
C954 C962 1.378 . S
C955 C954 1.367 . S
C955 C963 1.433 . S
C956 H952 0.929 . S
C956 C958 1.378 . S
C956 C960 1.350 . S
C957 C960 1.463 . S
C957 C962 1.350 . S
C957 N965 1.427 . S
C958 H949 0.930 . S
C958 C956 1.378 . S
C958 C959 1.367 . S
C959 C958 1.367 . S
C959 C961 1.433 . S
C960 C956 1.350 . S
C960 C957 1.463 . S
C960 N964 1.427 . S
C961 H951 0.929 . S
C961 C959 1.433 . S
C961 N964 1.384 . S
C962 H953 0.929 . S
C962 C954 1.378 . S
C962 C957 1.350 . S
C963 H950 0.929 . S
C963 C955 1.433 . S
C963 N965 1.384 . S
N964 C960 1.427 . S
N964 C961 1.384 . S
N965 C957 1.427 . S
N965 C963 1.384 . S
H966 C972 0.930 . S
H967 C976 0.930 . S
H968 C981 0.929 . S
H969 C979 0.929 . S
H970 C974 0.929 . S
H971 C980 0.929 . S
C972 H966 0.930 . S
C972 C973 1.367 . S
C972 C980 1.378 . S
C973 C972 1.367 . S
C973 C981 1.433 . S
C974 H970 0.929 . S
C974 C976 1.378 . S
C974 C978 1.350 . S
C975 C978 1.463 . S
C975 C980 1.350 . S
C975 N983 1.427 . S
C976 H967 0.930 . S
C976 C974 1.378 . S
C976 C977 1.367 . S
C977 C976 1.367 . S
C977 C979 1.433 . S
C978 C974 1.350 . S
C978 C975 1.463 . S
C978 N982 1.427 . S
C979 H969 0.929 . S
C979 C977 1.433 . S
C979 N982 1.384 . S
C980 H971 0.929 . S
C980 C972 1.378 . S
C980 C975 1.350 . S
C981 H968 0.929 . S
C981 C973 1.433 . S
C981 N983 1.384 . S
N982 C978 1.427 . S
N982 C979 1.384 . S
N983 C975 1.427 . S
N983 C981 1.384 . S
H984 C990 0.930 . S
H985 C994 0.930 . S
H986 C999 0.929 . S
H987 C997 0.929 . S
H988 C992 0.929 . S
H989 C998 0.929 . S
C990 H984 0.930 . S
C990 C991 1.367 . S
C990 C998 1.378 . S
C991 C990 1.367 . S
C991 C999 1.433 . S
C992 H988 0.929 . S
C992 C994 1.378 . S
C992 C996 1.350 . S
C993 C996 1.463 . S
C993 C998 1.350 . S
C993 N1001 1.427 . S
C994 H985 0.930 . S
C994 C992 1.378 . S
C994 C995 1.367 . S
C995 C994 1.367 . S
C995 C997 1.433 . S
C996 C992 1.350 . S
C996 C993 1.463 . S
C996 N1000 1.427 . S
C997 H987 0.929 . S
C997 C995 1.433 . S
C997 N1000 1.384 . S
C998 H989 0.929 . S
C998 C990 1.378 . S
C998 C993 1.350 . S
C999 H986 0.929 . S
C999 C991 1.433 . S
C999 N1001 1.384 . S
N1000 C996 1.427 . S
N1000 C997 1.384 . S
N1001 C993 1.427 . S
N1001 C999 1.384 . S
H1002 C1008 0.930 . S
H1003 C1012 0.930 . S
H1004 C1017 0.929 . S
H1005 C1015 0.929 . S
H1006 C1010 0.929 . S
H1007 C1016 0.929 . S
C1008 H1002 0.930 . S
C1008 C1009 1.367 . S
C1008 C1016 1.378 . S
C1009 C1008 1.367 . S
C1009 C1017 1.433 . S
C1010 H1006 0.929 . S
C1010 C1012 1.378 . S
C1010 C1014 1.350 . S
C1011 C1014 1.463 . S
C1011 C1016 1.350 . S
C1011 N1019 1.427 . S
C1012 H1003 0.930 . S
C1012 C1010 1.378 . S
C1012 C1013 1.367 . S
C1013 C1012 1.367 . S
C1013 C1015 1.433 . S
C1014 C1010 1.350 . S
C1014 C1011 1.463 . S
C1014 N1018 1.427 . S
C1015 H1005 0.929 . S
C1015 C1013 1.433 . S
C1015 N1018 1.384 . S
C1016 H1007 0.929 . S
C1016 C1008 1.378 . S
C1016 C1011 1.350 . S
C1017 H1004 0.929 . S
C1017 C1009 1.433 . S
C1017 N1019 1.384 . S
N1018 C1014 1.427 . S
N1018 C1015 1.384 . S
N1019 C1011 1.427 . S
N1019 C1017 1.384 . S
H1020 C1026 0.930 . S
H1021 C1030 0.930 . S
H1022 C1035 0.929 . S
H1023 C1033 0.929 . S
H1024 C1028 0.929 . S
H1025 C1034 0.929 . S
C1026 H1020 0.930 . S
C1026 C1027 1.367 . S
C1026 C1034 1.378 . S
C1027 C1026 1.367 . S
C1027 C1035 1.433 . S
C1028 H1024 0.929 . S
C1028 C1030 1.378 . S
C1028 C1032 1.350 . S
C1029 C1032 1.463 . S
C1029 C1034 1.350 . S
C1029 N1037 1.427 . S
C1030 H1021 0.930 . S
C1030 C1028 1.378 . S
C1030 C1031 1.367 . S
C1031 C1030 1.367 . S
C1031 C1033 1.433 . S
C1032 C1028 1.350 . S
C1032 C1029 1.463 . S
C1032 N1036 1.427 . S
C1033 H1023 0.929 . S
C1033 C1031 1.433 . S
C1033 N1036 1.384 . S
C1034 H1025 0.929 . S
C1034 C1026 1.378 . S
C1034 C1029 1.350 . S
C1035 H1022 0.929 . S
C1035 C1027 1.433 . S
C1035 N1037 1.384 . S
N1036 C1032 1.427 . S
N1036 C1033 1.384 . S
N1037 C1029 1.427 . S
N1037 C1035 1.384 . S
H1038 C1044 0.930 . S
H1039 C1048 0.930 . S
H1040 C1053 0.929 . S
H1041 C1051 0.929 . S
H1042 C1046 0.929 . S
H1043 C1052 0.929 . S
C1044 H1038 0.930 . S
C1044 C1045 1.367 . S
C1044 C1052 1.378 . S
C1045 C1044 1.367 . S
C1045 C1053 1.433 . S
C1046 H1042 0.929 . S
C1046 C1048 1.378 . S
C1046 C1050 1.350 . S
C1047 C1050 1.463 . S
C1047 C1052 1.350 . S
C1047 N1055 1.427 . S
C1048 H1039 0.930 . S
C1048 C1046 1.378 . S
C1048 C1049 1.367 . S
C1049 C1048 1.367 . S
C1049 C1051 1.433 . S
C1050 C1046 1.350 . S
C1050 C1047 1.463 . S
C1050 N1054 1.427 . S
C1051 H1041 0.929 . S
C1051 C1049 1.433 . S
C1051 N1054 1.384 . S
C1052 H1043 0.929 . S
C1052 C1044 1.378 . S
C1052 C1047 1.350 . S
C1053 H1040 0.929 . S
C1053 C1045 1.433 . S
C1053 N1055 1.384 . S
N1054 C1050 1.427 . S
N1054 C1051 1.384 . S
N1055 C1047 1.427 . S
N1055 C1053 1.384 . S
C415 C68 0.904 1_455 S
C419 C8 0.905 . S
C433 C131 0.886 1_565 S
C437 C51 0.905 . S
C451 C76 0.903 . S
C455 C136 0.897 . S
C469 C119 0.905 . S
C473 C199 0.884 1_455 S
C487 C0 0.903 1_565 S
C491 C144 0.905 . S
C505 C63 0.902 . S
C509 C187 0.904 . S
C523 C369 0.882 1_545 S
C527 C221 0.904 . S
C541 C246 0.903 . S
C545 C374 0.888 . S
C559 C289 0.904 . S
C563 C233 0.887 1_655 S
C577 C314 0.903 . S
C581 C238 0.889 . S
C595 C357 0.903 . S
C599 C301 0.889 . S
C613 C306 0.891 1_655 S
C617 C382 0.903 . S
C631 C106 1.610 . S
C635 C13 1.615 . S
C649 C38 1.610 . S
C653 C149 1.615 . S
C667 C81 1.613 . S
C671 C174 1.613 . S
C685 C208 1.613 . S
C689 C319 1.612 . S
C703 C251 1.614 . S
C707 C344 1.612 . S
C721 C276 1.613 . S
C725 C387 1.613 . S
C739 C242 1.848 . S
C743 C4 1.848 . S
C757 C47 1.845 . S
C761 C285 1.845 . S
C775 C310 1.843 . S
C779 C72 1.843 . S
C793 C115 1.844 . S
C797 C353 1.845 . S
C811 C140 1.852 . S
C815 C378 1.852 . S
C829 C217 1.847 . S
C833 C183 1.848 . S
C847 C97 1.144 . S
C851 C17 1.128 . S
C865 C42 1.132 . S
C869 C102 1.144 . S
C883 C85 1.136 . S
C887 C165 1.144 . S
C901 C110 1.138 . S
C905 C170 1.143 . S
C919 C29 1.144 . S
C923 C153 1.131 . S
C937 C34 1.143 . S
C941 C178 1.130 . S
C955 C340 1.144 . S
C959 C212 1.135 . S
C973 C255 1.135 . S
C977 C403 1.144 . S
C991 C280 1.132 . S
C995 C204 1.144 . S
C1009 C267 1.144 . S
C1013 C323 1.129 . S
C1027 C348 1.134 . S
C1031 C272 1.143 . S
C1045 C391 1.131 . S
C1049 C335 1.144 . S
