# Generated by pormake.
# Topology qdl, (4)-cn, num edge types: 1
# Building blocks:
#     Node 0, Type 0, BuildingBlock: KOZSID_clean_sbu_0, # of connection points: 4
#     Node 1, Type 0, BuildingBlock: KOZSID_clean_sbu_0, # of connection points: 4
#     Node 2, Type 0, BuildingBlock: KOZSID_clean_sbu_0, # of connection points: 4
#     Node 3, Type 0, BuildingBlock: KOZSID_clean_sbu_0, # of connection points: 4
#     Node 4, Type 0, BuildingBlock: KOZSID_clean_sbu_0, # of connection points: 4
#     Node 5, Type 0, BuildingBlock: KOZSID_clean_sbu_0, # of connection points: 4
#     Edge 6, Type (0, 0), BuildingBlock: XUDNAN_clean_linker_2, # of connection points: 2
#     Edge 7, Type (0, 0), BuildingBlock: XUDNAN_clean_linker_2, # of connection points: 2
#     Edge 8, Type (0, 0), BuildingBlock: XUDNAN_clean_linker_2, # of connection points: 2
#     Edge 9, Type (0, 0), BuildingBlock: XUDNAN_clean_linker_2, # of connection points: 2
#     Edge 10, Type (0, 0), BuildingBlock: XUDNAN_clean_linker_2, # of connection points: 2
#     Edge 11, Type (0, 0), BuildingBlock: XUDNAN_clean_linker_2, # of connection points: 2
#     Edge 12, Type (0, 0), BuildingBlock: XUDNAN_clean_linker_2, # of connection points: 2
#     Edge 13, Type (0, 0), BuildingBlock: XUDNAN_clean_linker_2, # of connection points: 2
#     Edge 14, Type (0, 0), BuildingBlock: XUDNAN_clean_linker_2, # of connection points: 2
#     Edge 15, Type (0, 0), BuildingBlock: XUDNAN_clean_linker_2, # of connection points: 2
#     Edge 16, Type (0, 0), BuildingBlock: XUDNAN_clean_linker_2, # of connection points: 2
#     Edge 17, Type (0, 0), BuildingBlock: XUDNAN_clean_linker_2, # of connection points: 2
# Relax obj value: 0.000
# Max RMSD: 0.050
# Mean RMSD: 0.048
data_MOF--net-qdl--node1-KOZSID_clean_sbu_0--edge1-XUDNAN_clean_linker_2
_symmetry_space_group_name_H-M    P1
_symmetry_Int_Tables_number       1
_symmetry_cell_setting            triclinic
loop_
_symmetry_equiv_pos_as_xyz
'x, y, z'
_cell_length_a     16.662036
_cell_length_b     16.686297
_cell_length_c     116.29699
_cell_angle_alpha  101.67769
_cell_angle_beta   101.73654
_cell_angle_gamma 120.18024
loop_
_atom_site_label
_atom_site_type_symbol
_atom_site_fract_x
_atom_site_fract_y
_atom_site_fract_z
_atom_type_partial_charge
C0 C 0.25988 0.51534 0.10242 0.0
C1 C 0.1677 0.50084 0.09831 0.0
C2 C 0.09875 0.40077 0.0926 0.0
C3 C 0.15241 0.35996 0.09356 0.0
N4 N 0.25151 0.42784 0.09969 0.0
Co5 Co 0.35714 0.40103 0.10263 0.0
N6 N 0.25552 0.25367 0.09419 0.0
C7 C 0.15586 0.20576 0.08875 0.0
C8 C 0.10488 0.10426 0.08469 0.0
C9 C 0.17592 0.08615 0.08802 0.0
C10 C 0.26639 0.1781 0.09391 0.0
N11 N 0.46257 0.37411 0.10537 0.0
C12 C 0.4533 0.2868 0.10384 0.0
C13 C 0.54516 0.3003 0.10736 0.0
C14 C 0.61525 0.4003 0.1116 0.0
C15 C 0.56223 0.44176 0.11039 0.0
N16 N 0.45879 0.54801 0.11137 0.0
C17 C 0.5586 0.59527 0.11657 0.0
C18 C 0.60952 0.69655 0.1217 0.0
C19 C 0.53819 0.71539 0.1196 0.0
C20 C 0.44735 0.624 0.11327 0.0
N21 N 0.34585 0.38886 0.11901 0.0
C22 C 0.32812 0.34954 0.14123 0.0
C23 C 0.42153 0.41145 0.14061 0.0
C24 C 0.42869 0.42973 0.12947 0.0
C25 C 0.24395 0.31203 0.13076 0.0
C26 C 0.25437 0.33327 0.11991 0.0
N27 N 0.36834 0.41296 0.08613 0.0
C28 C 0.46593 0.49411 0.07413 0.0
C29 C 0.38136 0.44173 0.06317 0.0
C30 C 0.29071 0.37241 0.06382 0.0
C31 C 0.28585 0.35966 0.07526 0.0
C32 C 0.45801 0.47803 0.08534 0.0
H33 H 0.21394 0.30733 0.07506 0.0
H34 H 0.52557 0.52019 0.09326 0.0
H35 H 0.50197 0.4749 0.1294 0.0
H36 H 0.18729 0.30187 0.11224 0.0
C37 C 0.11198 0.25843 0.08871 0.0
C38 C 0.35313 0.61373 0.10867 0.0
C39 C 0.35958 0.19072 0.10001 0.0
C40 C 0.60273 0.54296 0.11565 0.0
H41 H 0.15206 0.55695 0.09924 0.0
H42 H 1.01907 0.36238 0.08816 0.0
H43 H 1.02514 0.05006 0.08037 0.0
H44 H 0.16226 1.01371 0.08671 0.0
H45 H 0.55963 0.24388 0.10735 0.0
H46 H 0.69511 0.4385 0.11577 0.0
H47 H 0.68926 0.75045 0.12612 0.0
H48 H 0.55188 0.78839 0.12214 0.0
H49 H 0.48887 0.44236 0.14849 0.0
H50 H 0.16992 0.26527 0.13088 0.0
H51 H 0.53834 0.54746 0.07408 0.0
H52 H 0.22284 0.33014 0.05561 0.0
C53 C 0.44868 0.27732 0.4367 0.0
C54 C 0.54023 0.36859 0.44168 0.0
C55 C 0.52098 0.43945 0.44175 0.0
C56 C 0.41917 0.38794 0.4369 0.0
N57 N 0.3731 0.28917 0.43393 0.0
Co58 Co 0.22697 0.18837 0.42641 0.0
N59 N 0.19932 0.29054 0.43118 0.0
C60 C 0.26347 0.38891 0.43423 0.0
C61 C 0.22343 0.44104 0.43735 0.0
C62 C 0.12817 0.37089 0.43616 0.0
C63 C 0.11536 0.27956 0.43231 0.0
N64 N 0.081 0.08807 0.41893 0.0
C65 C 1.00719 0.09396 0.42118 0.0
C66 C 0.91474 1.00651 0.41397 0.0
C67 C 0.93194 0.94386 0.40699 0.0
C68 C 1.03355 0.99652 0.4103 0.0
N69 N 0.25377 0.08571 0.42147 0.0
C70 C 0.18814 0.99406 0.41263 0.0
C71 C 0.22819 0.94015 0.41083 0.0
C72 C 0.32536 1.0021 0.41892 0.0
C73 C 0.33926 0.0908 0.42524 0.0
N74 N 0.2267 0.16971 0.44254 0.0
C75 C 0.21467 0.14224 0.46538 0.0
C76 C 0.16843 0.06078 0.45413 0.0
C77 C 0.17522 0.07604 0.44287 0.0
C78 C 0.26819 0.23788 0.46492 0.0
C79 C 0.27378 0.24996 0.45347 0.0
N80 N 0.22682 0.20718 0.41023 0.0
C81 C 0.30247 0.23243 0.39448 0.0
C82 C 0.22878 0.23914 0.38734 0.0
C83 C 0.1531 0.22756 0.3919 0.0
C84 C 0.15386 0.21245 0.40332 0.0
C85 C 0.29986 0.21602 0.40579 0.0
H86 H 0.0953 0.20539 0.40659 0.0
H87 H 0.3579 0.21153 0.411 0.0
H88 H 0.13735 1.01181 0.43437 0.0
H89 H 0.31535 0.32442 0.45343 0.0
C90 C 0.3645 0.43003 0.43648 0.0
C91 C 0.43673 0.18109 0.43363 0.0
C92 C 1.02231 0.18345 0.42938 0.0
C93 C 0.0873 0.95736 0.40745 0.0
H94 H 0.61336 0.38248 0.44474 0.0
H95 H 0.57482 0.51911 0.4452 0.0
H96 H 0.26056 0.52085 0.44074 0.0
H97 H 0.07494 0.3856 0.43803 0.0
H98 H 0.84266 0.98998 0.41376 0.0
H99 H 0.87715 0.86764 0.40068 0.0
H100 H 0.19087 0.86428 0.40456 0.0
H101 H 0.38026 0.98475 0.41983 0.0
H102 H 0.12541 0.98541 0.45394 0.0
H103 H 0.3064 0.30314 0.47338 0.0
H104 H 0.36329 0.24183 0.39154 0.0
H105 H 0.09293 0.22968 0.38669 0.0
C106 C 0.2707 0.47907 0.76516 0.0
C107 C 0.27283 0.56506 0.76737 0.0
C108 C 0.18027 0.5386 0.7671 0.0
C109 C 0.12738 0.43841 0.76475 0.0
N110 N 0.18136 0.39981 0.76386 0.0
Co111 Co 0.13247 0.25644 0.75925 0.0
N112 N 0.99168 0.21391 0.75639 0.0
C113 C 0.95911 0.27368 0.75793 0.0
C114 C 0.85945 0.22384 0.75589 0.0
C115 C 0.82647 0.12653 0.75307 0.0
C116 C 0.9083 0.12259 0.75352 0.0
N117 N 0.08358 0.11289 0.75445 0.0
C118 C 0.99141 1.03113 0.75173 0.0
C119 C 0.98993 0.94538 0.74919 0.0
C120 C 0.08493 0.97413 0.75058 0.0
C121 C 0.13875 0.07532 0.75383 0.0
N122 N 0.27353 0.29945 0.76224 0.0
C123 C 0.3079 0.24112 0.76157 0.0
C124 C 0.40703 0.29114 0.76322 0.0
C125 C 0.43715 0.38651 0.76471 0.0
C126 C 0.35428 0.38902 0.76388 0.0
N127 N 0.1524 0.26722 0.77722 0.0
C128 C 0.15773 0.25905 0.80147 0.0
C129 C 0.19481 0.21722 0.79439 0.0
C130 C 0.19195 0.22254 0.78248 0.0
C131 C 0.12305 0.31006 0.79647 0.0
C132 C 0.12123 0.31335 0.78445 0.0
N133 N 0.11261 0.24563 0.74137 0.0
C134 C 0.1502 0.21125 0.72262 0.0
C135 C 0.10485 0.25214 0.71701 0.0
C136 C 0.05944 0.28538 0.72366 0.0
C137 C 0.06439 0.28175 0.73569 0.0
C138 C 0.15244 0.20798 0.73462 0.0
H139 H 1.03029 0.31042 0.74034 0.0
H140 H 0.18906 0.17686 0.73839 0.0
H141 H 0.22037 0.18793 0.77763 0.0
H142 H 0.09208 0.35171 0.78112 0.0
C143 C 1.02478 0.37681 0.76183 0.0
C144 C 0.35252 0.47463 0.76337 0.0
C145 C 0.90421 1.03138 0.75189 0.0
C146 C 0.24218 0.13773 0.75739 0.0
H147 H 0.33382 0.63825 0.76853 0.0
H148 H 0.1532 0.58566 0.76782 0.0
H149 H 0.81645 0.2549 0.75669 0.0
H150 H 0.75119 0.06574 0.75122 0.0
H151 H 0.92706 0.87012 0.74686 0.0
H152 H 0.11214 0.92723 0.74972 0.0
H153 H 0.45054 0.2605 0.76258 0.0
H154 H 0.51035 0.44609 0.76565 0.0
H155 H 0.22525 0.17929 0.79796 0.0
H156 H 0.09398 0.3443 0.80158 0.0
H157 H 0.18686 0.18456 0.71799 0.0
H158 H 1.02057 0.31505 0.71968 0.0
C159 C 1.01917 0.27152 0.58874 0.0
C160 C 1.02912 0.36115 0.59036 0.0
C161 C 0.12734 0.43123 0.59305 0.0
C162 C 0.17148 0.38056 0.59295 0.0
N163 N 0.10698 0.28186 0.59004 0.0
Co164 Co 0.13987 0.1815 0.59006 0.0
N165 N 0.28633 0.28681 0.59611 0.0
C166 C 0.33032 0.38507 0.59838 0.0
C167 C 0.43193 0.43851 0.60207 0.0
C168 C 0.4543 0.37025 0.60199 0.0
C169 C 0.36454 0.27866 0.59822 0.0
N170 N 0.1724 0.08114 0.59031 0.0
C171 C 0.26159 0.09278 0.5932 0.0
C172 C 0.25072 1.00292 0.59192 0.0
C173 C 0.1512 0.93197 0.58803 0.0
C174 C 0.10703 0.98214 0.58713 0.0
N175 N 0.99344 0.07627 0.58386 0.0
C176 C 0.94838 0.97708 0.58062 0.0
C177 C 0.84695 0.92453 0.5773 0.0
C178 C 0.82625 0.99459 0.57878 0.0
C179 C 0.91668 0.08594 0.58297 0.0
N180 N 0.13485 0.16162 0.57228 0.0
C181 C 0.14459 0.13466 0.54781 0.0
C182 C 0.09487 0.05364 0.55154 0.0
C183 C 0.09089 0.0686 0.56365 0.0
C184 C 0.18575 0.2292 0.55643 0.0
C185 C 0.1797 0.24079 0.56844 0.0
N186 N 0.14505 0.20142 0.60775 0.0
C187 C 0.08765 0.13597 0.62342 0.0
C188 C 0.13981 0.23182 0.63241 0.0
C189 C 0.19739 0.31169 0.62887 0.0
C190 C 0.19866 0.29508 0.61665 0.0
C191 C 0.09171 0.12258 0.6113 0.0
H192 H 0.24256 0.35938 0.61455 0.0
H193 H 0.04958 0.04775 0.60485 0.0
H194 H 0.05294 1.00353 0.56583 0.0
H195 H 0.21369 0.31491 0.57451 0.0
C196 C 0.27401 0.42469 0.5968 0.0
C197 C 0.92703 0.1801 0.587 0.0
C198 C 0.35755 0.18606 0.59655 0.0
C199 C 1.00436 0.93751 0.58255 0.0
H200 H 0.97209 0.37505 0.59011 0.0
H201 H 0.16313 0.51045 0.59542 0.0
H202 H 0.48351 0.51752 0.60439 0.0
H203 H 0.52823 0.38588 0.60432 0.0
H204 H 0.3085 0.98952 0.59336 0.0
H205 H 0.11515 0.85284 0.58578 0.0
H206 H 0.79498 0.84537 0.57481 0.0
H207 H 0.75357 0.9807 0.57748 0.0
H208 H 0.05919 0.97841 0.54517 0.0
H209 H 0.22536 0.2948 0.5541 0.0
H210 H 0.04155 0.07128 0.62558 0.0
H211 H 0.24157 0.38744 0.6355 0.0
C212 C 1.02214 0.22804 0.92526 0.0
C213 C 0.94032 0.23169 0.92499 0.0
C214 C 0.97527 0.33016 0.92944 0.0
C215 C 0.076 0.38115 0.93211 0.0
N216 N 0.1065 0.32095 0.92943 0.0
Co217 Co 0.24637 0.36508 0.93222 0.0
N218 N 0.28978 0.50315 0.93408 0.0
C219 C 0.24063 0.54428 0.93658 0.0
C220 C 0.28799 0.64038 0.93689 0.0
C221 C 0.37199 0.66065 0.9344 0.0
C222 C 0.37124 0.57554 0.93276 0.0
N223 N 0.38602 0.40977 0.93496 0.0
C224 C 0.45885 0.48943 0.93343 0.0
C225 C 0.54593 0.49322 0.93614 0.0
C226 C 0.52614 0.41235 0.93943 0.0
C227 C 0.42848 0.36414 0.93857 0.0
N228 N 0.20429 0.22751 0.93057 0.0
C229 C 0.26577 0.20059 0.93453 0.0
C230 C 0.21613 0.1014 0.93275 0.0
C231 C 0.11723 0.06379 0.92753 0.0
C232 C 0.1119 0.14248 0.9264 0.0
N233 N 0.21816 0.33134 0.91404 0.0
C234 C 0.18762 0.29006 0.88826 0.0
C235 C 0.23475 0.25709 0.89542 0.0
C236 C 0.24937 0.27853 0.90822 0.0
C237 C 0.15599 0.34428 0.89433 0.0
C238 C 0.17125 0.36343 0.90718 0.0
N239 N 0.27517 0.39867 0.95047 0.0
C240 C 0.22851 0.35583 0.96778 0.0
C241 C 0.31919 0.44066 0.97659 0.0
C242 C 0.38667 0.50486 0.97192 0.0
C243 C 0.363 0.48305 0.9589 0.0
C244 C 0.20845 0.33602 0.95488 0.0
H245 H 0.41653 0.53395 0.95565 0.0
H246 H 0.1387 0.26913 0.94851 0.0
H247 H 0.28715 0.25319 0.91344 0.0
H248 H 0.14567 0.4048 0.91159 0.0
C249 C 0.14205 0.48434 0.93581 0.0
C250 C 1.01828 0.13591 0.92288 0.0
C251 C 0.44895 0.56529 0.93021 0.0
C252 C 0.36932 0.26777 0.93854 0.0
H253 H 0.86373 0.16971 0.92217 0.0
H254 H 0.93209 0.36077 0.93044 0.0
H255 H 0.26169 0.68799 0.93802 0.0
H256 H 0.42631 0.72947 0.93368 0.0
H257 H 0.61605 0.54844 0.93576 0.0
H258 H 0.57561 0.38902 0.94157 0.0
H259 H 0.24796 0.06093 0.93486 0.0
H260 H 0.05599 0.9877 0.92517 0.0
H261 H 0.26168 0.21603 0.89121 0.0
H262 H 0.11837 0.37045 0.88917 0.0
H263 H 0.17238 0.30471 0.97076 0.0
H264 H 0.45835 0.57087 0.97821 0.0
C265 C 0.19265 0.05473 0.25798 0.0
C266 C 0.10105 0.9637 0.2531 0.0
C267 C 1.03071 0.9823 0.24954 0.0
C268 C 0.0833 0.08312 0.25246 0.0
N269 N 0.18313 0.12984 0.25738 0.0
Co270 Co 0.28755 0.27648 0.26399 0.0
N271 N 0.18385 0.30532 0.26028 0.0
C272 C 0.08444 0.23837 0.25426 0.0
C273 C 1.03251 0.28063 0.25281 0.0
C274 C 0.10283 0.38054 0.25819 0.0
C275 C 0.19397 0.39341 0.2627 0.0
N276 N 0.3918 0.42321 0.27116 0.0
C277 C 0.38196 0.50009 0.27293 0.0
C278 C 0.47366 0.59106 0.27876 0.0
C279 C 0.54406 0.57089 0.28071 0.0
C280 C 0.49152 0.46928 0.27604 0.0
N281 N 0.39106 0.2472 0.26726 0.0
C282 C 0.49087 0.31312 0.27145 0.0
C283 C 0.54272 0.27083 0.27302 0.0
C284 C 0.47182 0.17216 0.26981 0.0
C285 C 0.38047 0.16008 0.26643 0.0
N286 N 0.29324 0.27186 0.24682 0.0
C287 C 0.29793 0.26605 0.22238 0.0
C288 C 0.38445 0.33029 0.23311 0.0
C289 C 0.38054 0.3317 0.24511 0.0
C290 C 0.2093 0.20567 0.22417 0.0
C291 C 0.20866 0.20954 0.23626 0.0
N292 N 0.28157 0.2811 0.28102 0.0
C293 C 0.36101 0.32217 0.30326 0.0
C294 C 0.27074 0.28851 0.30511 0.0
C295 C 0.18606 0.24971 0.29468 0.0
C296 C 0.19277 0.24566 0.28282 0.0
C297 C 0.36501 0.31885 0.29123 0.0
H298 H 0.12503 0.21375 0.27524 0.0
H299 H 0.43637 0.34784 0.2904 0.0
H300 H 0.44937 0.38185 0.25283 0.0
H301 H 0.13824 0.16128 0.23674 0.0
C302 C 0.04132 0.13652 0.25105 0.0
C303 C 0.2863 0.06664 0.26351 0.0
C304 C 0.28782 0.49065 0.2692 0.0
C305 C 0.53358 0.41507 0.27569 0.0
H306 H 0.08669 0.8917 0.25242 0.0
H307 H 0.95072 0.92906 0.24559 0.0
H308 H 0.9528 0.24321 0.24856 0.0
H309 H 0.08855 0.43749 0.25882 0.0
H310 H 0.48816 0.66443 0.28131 0.0
H311 H 0.624 0.62393 0.28496 0.0
H312 H 0.62264 0.30808 0.27676 0.0
H313 H 0.48616 0.11639 0.27039 0.0
H314 H 0.45534 0.37816 0.23227 0.0
H315 H 0.13958 0.15575 0.21624 0.0
H316 H 0.42862 0.3534 0.31112 0.0
H317 H 0.11439 0.22203 0.29567 0.0
H318 H 0.33201 1.0229 0.08495 0.0
H319 H 0.38688 0.1795 0.12327 0.0
H320 H 0.38801 0.04705 0.12973 0.0
H321 H 0.16837 0.77393 0.08444 0.0
H322 H 0.21593 0.72133 0.07507 0.0
H323 H 0.21814 0.8276 0.07351 0.0
H324 H 0.40829 0.92499 0.07839 0.0
H325 H 0.4066 0.81902 0.07995 0.0
H326 H 0.48844 0.93783 0.09266 0.0
H327 H 0.38483 0.89826 0.13196 0.0
H328 H 0.37971 0.74456 0.12984 0.0
H329 H 0.32698 0.68497 0.09008 0.0
C330 C 0.34376 1.0285 0.09467 0.0
C331 C 0.35883 0.11025 0.10366 0.0
C332 C 0.37494 0.11667 0.11632 0.0
C333 C 0.37556 0.04198 0.12003 0.0
C334 C 0.36016 0.96176 0.11095 0.0
C335 C 0.34464 0.95456 0.09853 0.0
C336 C 0.33129 0.86138 0.09067 0.0
C337 C 0.22724 0.79196 0.08031 0.0
C338 C 0.41357 0.8874 0.08509 0.0
C339 C 0.34217 0.81748 0.1006 0.0
C340 C 0.35854 0.87637 0.11224 0.0
C341 C 0.37186 0.85153 0.1229 0.0
C342 C 0.36884 0.76448 0.12163 0.0
C343 C 0.35288 0.7039 0.10983 0.0
C344 C 0.33893 0.73043 0.09919 0.0
H345 H 0.56498 0.23736 0.42093 0.0
H346 H 0.50668 0.11494 0.45006 0.0
H347 H 0.65184 0.10346 0.45243 0.0
H348 H 0.63724 0.08615 0.40649 0.0
H349 H 0.73252 0.18316 0.403 0.0
H350 H 0.62625 0.18378 0.40393 0.0
H351 H 0.74323 0.36159 0.42076 0.0
H352 H 0.84994 0.36162 0.41987 0.0
H353 H 0.83441 0.38558 0.43481 0.0
H354 H 0.80266 0.10316 0.45121 0.0
H355 H 0.94674 0.11513 0.44661 0.0
H356 H 0.90512 0.23733 0.41824 0.0
C357 C 0.58386 0.20926 0.42789 0.0
C358 C 0.52633 0.17837 0.43548 0.0
C359 C 0.55116 0.14 0.44431 0.0
C360 C 0.63312 0.13315 0.44568 0.0
C361 C 0.68891 0.16462 0.43809 0.0
C362 C 0.66525 0.20199 0.42937 0.0
C363 C 0.73583 0.2293 0.42221 0.0
C364 C 0.67958 0.16685 0.40807 0.0
C365 C 0.79432 0.34117 0.42456 0.0
C366 C 0.80304 0.2015 0.42823 0.0
C367 C 0.7749 0.1643 0.43738 0.0
C368 C 0.82551 0.13269 0.44412 0.0
C369 C 0.90702 0.13969 0.44147 0.0
C370 C 0.9372 0.17839 0.43224 0.0
C371 C 0.88406 0.20889 0.42548 0.0
H372 H 0.86983 0.95366 0.77027 0.0
H373 H 0.73262 0.90475 0.73141 0.0
H374 H 0.57671 0.75453 0.72995 0.0
H375 H 0.75519 0.69382 0.76654 0.0
H376 H 0.73974 0.71019 0.78155 0.0
H377 H 0.84059 0.8117 0.77935 0.0
H378 H 0.78057 0.92286 0.78649 0.0
H379 H 0.67944 0.82177 0.7887 0.0
H380 H 0.65414 0.88117 0.77853 0.0
H381 H 0.43506 0.61249 0.73299 0.0
H382 H 0.31793 0.48753 0.74023 0.0
H383 H 0.5471 0.62908 0.77716 0.0
C384 C 0.80685 0.91051 0.76146 0.0
C385 C 0.81219 0.93962 0.75092 0.0
C386 C 0.72902 0.88267 0.73953 0.0
C387 C 0.64062 0.79765 0.73865 0.0
C388 C 0.6371 0.77093 0.74925 0.0
C389 C 0.71807 0.82555 0.76043 0.0
C390 C 0.69432 0.78185 0.77049 0.0
C391 C 0.76145 0.74734 0.77473 0.0
C392 C 0.7026 0.85636 0.78171 0.0
C393 C 0.58723 0.69435 0.76324 0.0
C394 C 0.55567 0.68928 0.75099 0.0
C395 C 0.45912 0.61552 0.74253 0.0
C396 C 0.39324 0.54512 0.7467 0.0
C397 C 0.42437 0.54902 0.75917 0.0
C398 C 0.52235 0.62455 0.76754 0.0
H399 H 0.45273 0.20416 0.57977 0.0
H400 H 0.46384 0.1677 0.61575 0.0
H401 H 0.61355 0.16536 0.61747 0.0
H402 H 0.52549 0.0435 0.56857 0.0
H403 H 0.59886 0.1193 0.56086 0.0
H404 H 0.49449 0.12021 0.56267 0.0
H405 H 0.60956 0.31149 0.574 0.0
H406 H 0.71439 0.31123 0.57223 0.0
H407 H 0.7192 0.36556 0.58763 0.0
H408 H 0.75958 0.16388 0.61497 0.0
H409 H 0.89247 0.16384 0.60847 0.0
H410 H 0.78635 0.2017 0.57413 0.0
C411 C 0.48736 0.19608 0.588 0.0
C412 C 0.44781 0.18601 0.59765 0.0
C413 C 0.49388 0.17536 0.60831 0.0
C414 C 0.57857 0.17406 0.60934 0.0
C415 C 0.61591 0.18377 0.59963 0.0
C416 C 0.57188 0.19469 0.58917 0.0
C417 C 0.62597 0.20256 0.58 0.0
C418 C 0.55709 0.11624 0.56727 0.0
C419 C 0.66989 0.30374 0.57837 0.0
C420 C 0.70709 0.19391 0.58689 0.0
C421 C 0.70008 0.18328 0.59821 0.0
C422 C 0.76604 0.1726 0.60616 0.0
C423 C 0.84099 0.17266 0.60243 0.0
C424 C 0.84921 0.18358 0.59091 0.0
C425 C 0.78157 0.19424 0.58304 0.0
H426 H 0.60065 0.75915 0.94472 0.0
H427 H 0.47193 0.53739 0.90756 0.0
H428 H 0.60126 0.65973 0.90127 0.0
H429 H 0.66633 0.96957 0.93483 0.0
H430 H 0.78092 0.05476 0.94818 0.0
H431 H 0.67782 0.95002 0.9496 0.0
H432 H 0.79055 0.89243 0.95721 0.0
H433 H 0.89395 0.99704 0.95583 0.0
H434 H 0.85621 0.87275 0.94764 0.0
H435 H 0.74721 0.80751 0.89925 0.0
H436 H 0.89844 0.96746 0.90178 0.0
H437 H 0.93058 0.09195 0.94022 0.0
C438 C 0.59959 0.73705 0.93523 0.0
C439 C 0.52607 0.63974 0.92652 0.0
C440 C 0.52751 0.61216 0.91428 0.0
C441 C 0.60048 0.68107 0.91065 0.0
C442 C 0.67168 0.77708 0.91942 0.0
C443 C 0.67183 0.80496 0.93148 0.0
C444 C 0.75719 0.91209 0.93917 0.0
C445 C 0.71821 0.97533 0.94318 0.0
C446 C 0.8287 0.91893 0.95064 0.0
C447 C 0.80538 0.94024 0.92962 0.0
C448 C 0.75498 0.86151 0.91826 0.0
C449 C 0.78678 0.8697 0.90807 0.0
C450 C 0.87233 0.96051 0.90955 0.0
C451 C 0.92456 0.04164 0.9211 0.0
C452 C 0.89066 1.03112 0.93124 0.0
H453 H 0.33251 0.60752 0.25513 0.0
H454 H 0.24114 0.57314 0.28708 0.0
H455 H 0.23466 0.72091 0.28954 0.0
H456 H 0.48795 0.87778 0.26711 0.0
H457 H 0.45176 0.88532 0.25188 0.0
H458 H 0.45288 0.77986 0.25306 0.0
H459 H 0.26803 0.66137 0.23813 0.0
H460 H 0.2662 0.76635 0.23692 0.0
H461 H 0.1767 0.67804 0.24201 0.0
H462 H 0.23394 0.86883 0.28802 0.0
H463 H 0.23925 1.00757 0.28264 0.0
H464 H 0.32899 0.94291 0.25151 0.0
C465 C 0.31213 0.63221 0.26269 0.0
C466 C 0.28786 0.58078 0.271 0.0
C467 C 0.26036 0.61307 0.28073 0.0
C468 C 0.25655 0.69642 0.28217 0.0
C469 C 0.28047 0.74574 0.27377 0.0
C470 C 0.30785 0.71494 0.26423 0.0
C471 C 0.32743 0.77915 0.25626 0.0
C472 C 0.43649 0.83377 0.25713 0.0
C473 C 0.25526 0.71753 0.24252 0.0
C474 C 0.30592 0.85042 0.26272 0.0
C475 C 0.27941 0.83028 0.27284 0.0
C476 C 0.25505 0.88563 0.28017 0.0
C477 C 0.2581 0.96379 0.27707 0.0
C478 C 0.28524 0.98519 0.26678 0.0
C479 C 0.30898 0.9278 0.25949 0.0
H480 H 0.40257 0.41902 0.214 0.0
H481 H 0.195 0.09857 0.20122 0.0
H482 H 0.18466 0.08626 0.17945 0.0
H483 H 0.28872 0.45268 0.18781 0.0
H484 H 0.40345 0.54755 0.18706 0.0
H485 H 0.39889 0.53217 0.20185 0.0
H486 H 0.54404 0.51039 0.20441 0.0
H487 H 0.54938 0.52618 0.18964 0.0
H488 H 0.53362 0.41663 0.19209 0.0
H489 H 0.18817 0.10781 0.15894 0.0
H490 H 0.21118 0.16185 0.14094 0.0
H491 H 0.42077 0.46782 0.16656 0.0
C492 C 0.35619 0.34613 0.20666 0.0
C493 C 0.29876 0.25981 0.20939 0.0
C494 C 0.23822 0.16605 0.19941 0.0
C495 C 0.23231 0.15812 0.187 0.0
C496 C 0.28805 0.24447 0.1846 0.0
C497 C 0.34959 0.33671 0.19413 0.0
C498 C 0.39993 0.41776 0.18886 0.0
C499 C 0.37099 0.4919 0.19156 0.0
C500 C 0.51349 0.47087 0.19406 0.0
C501 C 0.35588 0.35664 0.17488 0.0
C502 C 0.29154 0.25682 0.17268 0.0
C503 C 0.23886 0.18569 0.16055 0.0
C504 C 0.25195 0.21717 0.15037 0.0
C505 C 0.3175 0.31896 0.15232 0.0
C506 C 0.37084 0.38943 0.16478 0.0
H507 H 0.14143 0.23743 0.53187 0.0
H508 H 0.17606 1.00107 0.53527 0.0
H509 H 0.19609 0.97703 0.5147 0.0
H510 H 1.0048 0.1273 0.49843 0.0
H511 H 0.06537 0.24354 0.49591 0.0
H512 H 0.05177 0.2414 0.51084 0.0
H513 H 0.24221 0.36872 0.52224 0.0
H514 H 0.2564 0.37118 0.50734 0.0
H515 H 0.32548 0.34165 0.51763 0.0
H516 H 0.21333 0.97844 0.49374 0.0
H517 H 0.22772 1.00637 0.474 0.0
H518 H 0.18535 0.24375 0.48418 0.0
C519 C 0.15382 0.18097 0.52836 0.0
C520 C 0.15617 0.12061 0.53525 0.0
C521 C 0.17169 0.04701 0.53014 0.0
C522 C 0.18399 1.03321 0.51847 0.0
C523 C 0.18111 0.09373 0.51195 0.0
C524 C 0.16656 0.16628 0.5167 0.0
C525 C 0.1672 0.22162 0.50779 0.0
C526 C 0.06627 0.20759 0.50296 0.0
C527 C 0.25294 0.33236 0.51413 0.0
C528 C 0.18465 0.16899 0.49732 0.0
C529 C 0.19215 0.09527 0.49991 0.0
C530 C 0.2074 0.03588 0.49161 0.0
C531 C 0.21496 0.05199 0.48037 0.0
C532 C 0.20753 0.12711 0.47747 0.0
C533 C 0.19248 0.18645 0.48615 0.0
H534 H 0.19904 0.39562 0.82383 0.0
H535 H 0.10107 0.08992 0.80665 0.0
H536 H 0.09389 0.06459 0.82665 0.0
H537 H 0.35447 0.44253 0.85407 0.0
H538 H 0.32297 0.51748 0.86287 0.0
H539 H 0.31794 0.51181 0.84709 0.0
H540 H 0.13413 0.45525 0.84067 0.0
H541 H 0.13861 0.46076 0.85644 0.0
H542 H 0.04493 0.3474 0.84325 0.0
H543 H 0.10108 0.07216 0.84851 0.0
H544 H 0.12235 0.11245 0.87098 0.0
H545 H 0.21464 0.4129 0.87444 0.0
C546 C 0.17518 0.32312 0.82425 0.0
C547 C 0.1515 0.245 0.81364 0.0
C548 C 0.12143 0.15154 0.81466 0.0
C549 C 0.11636 0.13611 0.82598 0.0
C550 C 0.1412 0.21466 0.83626 0.0
C551 C 0.16987 0.30635 0.83554 0.0
C552 C 0.19455 0.37858 0.84815 0.0
C553 C 0.30398 0.46787 0.85335 0.0
C554 C 0.12382 0.41248 0.84706 0.0
C555 C 0.17591 0.31324 0.85606 0.0
C556 C 0.14495 0.21892 0.84896 0.0
C557 C 0.12515 0.14574 0.85416 0.0
C558 C 0.138 0.16955 0.86697 0.0
C559 C 0.17049 0.26589 0.87453 0.0
C560 C 0.1887 0.33829 0.8689 0.0
H561 H 0.29253 0.30604 0.0389 0.0
H562 H 0.48233 0.62254 0.06056 0.0
H563 H 0.48868 0.65706 0.04096 0.0
H564 H 0.41493 0.31408 0.01629 0.0
H565 H 0.30096 0.21868 1.00326 0.0
H566 H 0.31179 0.21912 0.01901 0.0
H567 H 0.15437 0.22029 0.0166 0.0
H568 H 0.1433 0.22021 1.00087 0.0
H569 H 0.15011 0.31638 0.0123 0.0
H570 H 0.46835 0.65707 0.01877 0.0
H571 H 0.42975 0.62296 0.99602 0.0
H572 H 0.26103 0.30593 0.98888 0.0
C573 C 0.33529 0.38261 0.03952 0.0
C574 C 0.38705 0.46163 0.0513 0.0
C575 C 0.44299 0.56076 0.05168 0.0
C576 C 0.44658 0.58112 0.04058 0.0
C577 C 0.39453 0.50159 0.02913 0.0
C578 C 0.3406 0.40427 0.02853 0.0
C579 C 0.29235 0.3324 0.01503 0.0
C580 C 0.33243 0.26724 0.0133 0.0
C581 C 0.17827 0.26857 1.01096 0.0
C582 C 0.32673 0.40445 1.00812 0.0
C583 C 0.38523 0.50165 0.01642 0.0
C584 C 0.42354 0.58112 1.01221 0.0
C585 C 0.4017 0.56081 0.99921 0.0
C586 C 0.34261 0.46159 0.99047 0.0
C587 C 0.30527 0.38276 0.99514 0.0
H588 H 0.32742 0.21501 0.322 0.0
H589 H 0.19701 0.37972 0.31674 0.0
H590 H 0.17744 0.38944 0.33738 0.0
H591 H 0.16377 0.0683 0.3361 0.0
H592 H 0.25711 0.06766 0.34702 0.0
H593 H 0.26737 0.07915 0.33223 0.0
H594 H 0.44334 0.24198 0.34404 0.0
H595 H 0.43364 0.2309 0.35888 0.0
H596 H 0.4602 0.34241 0.35602 0.0
H597 H 0.17084 0.38077 0.35843 0.0
H598 H 0.17093 0.34891 0.37816 0.0
H599 H 0.29487 0.17908 0.36942 0.0
C600 C 0.29601 0.25416 0.32531 0.0
C601 C 0.26428 0.29732 0.31783 0.0
C602 C 0.22174 0.34629 0.32234 0.0
C603 C 0.21058 0.35236 0.33405 0.0
C604 C 0.24144 0.30822 0.34115 0.0
C605 C 0.28281 0.25957 0.33695 0.0
C606 C 0.30507 0.21438 0.3462 0.0
C607 C 0.24472 0.10062 0.34002 0.0
C608 C 0.41724 0.26017 0.35161 0.0
C609 C 0.26966 0.24521 0.35622 0.0
C610 C 0.23406 0.29996 0.35313 0.0
C611 C 0.1978 0.33725 0.36089 0.0
C612 C 0.19728 0.31775 0.37207 0.0
C613 C 0.23164 0.26018 0.37542 0.0
C614 C 0.26873 0.224 0.36731 0.0
H615 H 0.12443 0.11892 0.64752 0.0
H616 H 0.13698 0.38358 0.6464 0.0
H617 H 0.13 0.41665 0.66764 0.0
H618 H 0.94829 0.04472 0.66376 0.0
H619 H 1.00533 0.99933 0.67291 0.0
H620 H 1.01244 0.9964 0.6576 0.0
H621 H 0.20468 0.09728 0.66737 0.0
H622 H 0.19818 0.10089 0.68272 0.0
H623 H 0.27208 0.21495 0.68017 0.0
H624 H 0.12652 0.42468 0.68927 0.0
H625 H 0.12085 0.40393 0.70949 0.0
H626 H 0.09864 0.12793 0.69633 0.0
C627 C 0.12476 0.18336 0.65166 0.0
C628 C 0.13268 0.24925 0.64522 0.0
C629 C 0.13361 0.33308 0.65115 0.0
C630 C 0.1288 0.35222 0.66322 0.0
C631 C 0.12206 0.28651 0.6693 0.0
C632 C 0.11927 0.20335 0.66372 0.0
C633 C 0.11106 0.14444 0.67234 0.0
C634 C 1.01346 0.04004 0.66629 0.0
C635 C 0.20192 0.13911 0.67586 0.0
C636 C 0.11039 0.20793 0.68366 0.0
C637 C 0.117 0.28958 0.68169 0.0
C638 C 0.12001 0.36029 0.69085 0.0
C639 C 0.11585 0.34723 0.70232 0.0
C640 C 0.10785 0.26351 0.70459 0.0
C641 C 0.10521 0.19312 0.69504 0.0
loop_
_geom_bond_atom_site_label_1
_geom_bond_atom_site_label_2
_geom_bond_distance
_geom_bond_site_symmetry_2
_ccdc_geom_bond_type
C0 C1 1.443 . S
C0 N4 1.376 . S
C0 C38 1.389 . S
C1 C0 1.443 . S
C1 C2 1.340 . S
C1 H41 0.951 . S
C2 C1 1.340 . S
C2 C3 1.439 . S
C2 H42 0.950 . S
C3 C2 1.439 . S
C3 N4 1.374 . S
C3 C37 1.395 . S
N4 C0 1.376 . S
N4 C3 1.374 . S
N4 Co5 2.008 . S
Co5 N4 2.008 . S
Co5 N6 1.995 . S
Co5 N11 2.008 . S
Co5 N16 1.995 . S
Co5 N21 2.282 . S
Co5 N27 2.282 . S
N6 Co5 1.995 . S
N6 C7 1.376 . S
N6 C10 1.383 . S
C7 N6 1.376 . S
C7 C8 1.446 . S
C7 C37 1.391 . S
C8 C7 1.446 . S
C8 C9 1.339 . S
C8 H43 0.949 . S
C9 C8 1.339 . S
C9 C10 1.439 . S
C9 H44 0.950 . S
C10 N6 1.383 . S
C10 C9 1.439 . S
C10 C39 1.392 . S
N11 Co5 2.008 . S
N11 C12 1.376 . S
N11 C15 1.374 . S
C12 N11 1.376 . S
C12 C13 1.443 . S
C12 C39 1.389 . S
C13 C12 1.443 . S
C13 C14 1.340 . S
C13 H45 0.951 . S
C14 C13 1.340 . S
C14 C15 1.439 . S
C14 H46 0.950 . S
C15 N11 1.374 . S
C15 C14 1.439 . S
C15 C40 1.395 . S
N16 Co5 1.995 . S
N16 C17 1.376 . S
N16 C20 1.383 . S
C17 N16 1.376 . S
C17 C18 1.446 . S
C17 C40 1.391 . S
C18 C17 1.446 . S
C18 C19 1.339 . S
C18 H47 0.949 . S
C19 C18 1.339 . S
C19 C20 1.439 . S
C19 H48 0.950 . S
C20 N16 1.383 . S
C20 C19 1.439 . S
C20 C38 1.392 . S
N21 Co5 2.282 . S
N21 C24 1.332 . S
N21 C26 1.332 . S
C22 C23 1.386 . S
C22 C25 1.388 . S
C23 C22 1.386 . S
C23 C24 1.382 . S
C23 H49 0.950 . S
C24 N21 1.332 . S
C24 C23 1.382 . S
C24 H35 0.952 . S
C25 C22 1.388 . S
C25 C26 1.382 . S
C25 H50 0.950 . S
C26 N21 1.332 . S
C26 C25 1.382 . S
C26 H36 0.948 . S
N27 Co5 2.282 . S
N27 C31 1.332 . S
N27 C32 1.332 . S
C28 C29 1.388 . S
C28 C32 1.382 . S
C28 H51 0.950 . S
C29 C28 1.388 . S
C29 C30 1.386 . S
C30 C29 1.386 . S
C30 C31 1.382 . S
C30 H52 0.950 . S
C31 N27 1.332 . S
C31 C30 1.382 . S
C31 H33 0.952 . S
C32 N27 1.332 . S
C32 C28 1.382 . S
C32 H34 0.948 . S
H33 C31 0.952 . S
H34 C32 0.948 . S
H35 C24 0.952 . S
H36 C26 0.948 . S
C37 C3 1.395 . S
C37 C7 1.391 . S
C38 C0 1.389 . S
C38 C20 1.392 . S
C39 C10 1.392 . S
C39 C12 1.389 . S
C40 C15 1.395 . S
C40 C17 1.391 . S
H41 C1 0.951 . S
H42 C2 0.950 . S
H43 C8 0.949 . S
H44 C9 0.950 . S
H45 C13 0.951 . S
H46 C14 0.950 . S
H47 C18 0.949 . S
H48 C19 0.950 . S
H49 C23 0.950 . S
H50 C25 0.950 . S
H51 C28 0.950 . S
H52 C30 0.950 . S
C53 C54 1.443 . S
C53 N57 1.376 . S
C53 C91 1.389 . S
C54 C53 1.443 . S
C54 C55 1.340 . S
C54 H94 0.951 . S
C55 C54 1.340 . S
C55 C56 1.439 . S
C55 H95 0.950 . S
C56 C55 1.439 . S
C56 N57 1.374 . S
C56 C90 1.395 . S
N57 C53 1.376 . S
N57 C56 1.374 . S
N57 Co58 2.008 . S
Co58 N57 2.008 . S
Co58 N59 1.995 . S
Co58 N64 2.008 1_445 S
Co58 N69 1.995 1_545 S
Co58 N74 2.282 . S
Co58 N80 2.282 . S
N59 Co58 1.995 . S
N59 C60 1.376 . S
N59 C63 1.383 . S
C60 N59 1.376 . S
C60 C61 1.446 . S
C60 C90 1.391 . S
C61 C60 1.446 . S
C61 C62 1.339 . S
C61 H96 0.949 . S
C62 C61 1.339 . S
C62 C63 1.439 . S
C62 H97 0.950 1_455 S
C63 N59 1.383 . S
C63 C62 1.439 . S
C63 C92 1.392 1_455 S
N64 Co58 2.008 1_665 S
N64 C65 1.376 . S
N64 C68 1.374 . S
C65 N64 1.376 . S
C65 C66 1.443 . S
C65 C92 1.389 1_565 S
C66 C65 1.443 . S
C66 C67 1.340 . S
C66 H98 0.951 . S
C67 C66 1.340 . S
C67 C68 1.439 . S
C67 H99 0.950 . S
C68 N64 1.374 . S
C68 C67 1.439 . S
C68 C93 1.395 . S
N69 Co58 1.995 1_565 S
N69 C70 1.376 . S
N69 C73 1.383 . S
C70 N69 1.376 . S
C70 C71 1.446 . S
C70 C93 1.391 1_455 S
C71 C70 1.446 . S
C71 C72 1.339 . S
C71 H100 0.949 . S
C72 C71 1.339 . S
C72 C73 1.439 . S
C72 H101 0.950 . S
C73 N69 1.383 . S
C73 C72 1.439 . S
C73 C91 1.392 1_565 S
N74 Co58 2.282 . S
N74 C77 1.332 1_545 S
N74 C79 1.332 . S
C75 C76 1.386 . S
C75 C78 1.388 1_565 S
C76 C75 1.386 . S
C76 C77 1.382 . S
C76 H102 0.950 . S
C77 N74 1.332 1_565 S
C77 C76 1.382 . S
C77 H88 0.952 . S
C78 C75 1.388 1_545 S
C78 C79 1.382 . S
C78 H103 0.950 . S
C79 N74 1.332 . S
C79 C78 1.382 . S
C79 H89 0.948 . S
N80 Co58 2.282 . S
N80 C84 1.332 . S
N80 C85 1.332 1_545 S
C81 C82 1.388 1_565 S
C81 C85 1.382 . S
C81 H104 0.950 . S
C82 C81 1.388 1_545 S
C82 C83 1.386 . S
C83 C82 1.386 . S
C83 C84 1.382 . S
C83 H105 0.950 . S
C84 N80 1.332 . S
C84 C83 1.382 . S
C84 H86 0.952 . S
C85 N80 1.332 1_565 S
C85 C81 1.382 . S
C85 H87 0.948 . S
H86 C84 0.952 . S
H87 C85 0.948 . S
H88 C77 0.952 . S
H89 C79 0.948 . S
C90 C56 1.395 . S
C90 C60 1.391 . S
C91 C53 1.389 . S
C91 C73 1.392 1_545 S
C92 C63 1.392 1_655 S
C92 C65 1.389 1_545 S
C93 C68 1.395 . S
C93 C70 1.391 1_655 S
H94 C54 0.951 . S
H95 C55 0.950 . S
H96 C61 0.949 . S
H97 C62 0.950 1_655 S
H98 C66 0.951 . S
H99 C67 0.950 . S
H100 C71 0.949 . S
H101 C72 0.950 . S
H102 C76 0.950 . S
H103 C78 0.950 . S
H104 C81 0.950 . S
H105 C83 0.950 . S
C106 C107 1.443 . S
C106 N110 1.376 . S
C106 C144 1.389 . S
C107 C106 1.443 . S
C107 C108 1.340 . S
C107 H147 0.951 . S
C108 C107 1.340 . S
C108 C109 1.439 1_455 S
C108 H148 0.950 . S
C109 C108 1.439 1_655 S
C109 N110 1.374 1_655 S
C109 C143 1.395 . S
N110 C106 1.376 . S
N110 C109 1.374 1_455 S
N110 Co111 2.008 . S
Co111 N110 2.008 . S
Co111 N112 1.995 1_455 S
Co111 N117 2.008 1_455 S
Co111 N122 1.995 . S
Co111 N127 2.282 . S
Co111 N133 2.282 . S
N112 Co111 1.995 1_655 S
N112 C113 1.376 . S
N112 C116 1.383 . S
C113 N112 1.376 . S
C113 C114 1.446 . S
C113 C143 1.391 . S
C114 C113 1.446 . S
C114 C115 1.339 . S
C114 H149 0.949 . S
C115 C114 1.339 . S
C115 C116 1.439 . S
C115 H150 0.950 . S
C116 N112 1.383 . S
C116 C115 1.439 . S
C116 C145 1.392 . S
N117 Co111 2.008 1_655 S
N117 C118 1.376 . S
N117 C121 1.374 1_655 S
C118 N117 1.376 . S
C118 C119 1.443 1_545 S
C118 C145 1.389 . S
C119 C118 1.443 1_565 S
C119 C120 1.340 1_665 S
C119 H151 0.951 . S
C120 C119 1.340 1_445 S
C120 C121 1.439 . S
C120 H152 0.950 1_545 S
C121 N117 1.374 1_455 S
C121 C120 1.439 . S
C121 C146 1.395 . S
N122 Co111 1.995 . S
N122 C123 1.376 . S
N122 C126 1.383 . S
C123 N122 1.376 . S
C123 C124 1.446 . S
C123 C146 1.391 . S
C124 C123 1.446 . S
C124 C125 1.339 . S
C124 H153 0.949 . S
C125 C124 1.339 . S
C125 C126 1.439 . S
C125 H154 0.950 . S
C126 N122 1.383 . S
C126 C125 1.439 . S
C126 C144 1.392 . S
N127 Co111 2.282 . S
N127 C130 1.332 . S
N127 C132 1.332 1_455 S
C128 C129 1.386 . S
C128 C131 1.388 1_455 S
C129 C128 1.386 . S
C129 C130 1.382 . S
C129 H155 0.950 . S
C130 N127 1.332 . S
C130 C129 1.382 . S
C130 H141 0.952 . S
C131 C128 1.388 1_655 S
C131 C132 1.382 . S
C131 H156 0.950 . S
C132 N127 1.332 1_655 S
C132 C131 1.382 . S
C132 H142 0.948 . S
N133 Co111 2.282 . S
N133 C137 1.332 1_455 S
N133 C138 1.332 . S
C134 C135 1.388 . S
C134 C138 1.382 . S
C134 H157 0.950 . S
C135 C134 1.388 . S
C135 C136 1.386 1_455 S
C136 C135 1.386 1_655 S
C136 C137 1.382 . S
C136 H158 0.950 . S
C137 N133 1.332 1_655 S
C137 C136 1.382 . S
C137 H139 0.952 . S
C138 N133 1.332 . S
C138 C134 1.382 . S
C138 H140 0.948 . S
H139 C137 0.952 . S
H140 C138 0.948 . S
H141 C130 0.952 . S
H142 C132 0.948 . S
C143 C109 1.395 . S
C143 C113 1.391 . S
C144 C106 1.389 . S
C144 C126 1.392 . S
C145 C116 1.392 . S
C145 C118 1.389 . S
C146 C121 1.395 . S
C146 C123 1.391 . S
H147 C107 0.951 . S
H148 C108 0.950 . S
H149 C114 0.949 . S
H150 C115 0.950 . S
H151 C119 0.951 . S
H152 C120 0.950 1_565 S
H153 C124 0.949 . S
H154 C125 0.950 . S
H155 C129 0.950 . S
H156 C131 0.950 . S
H157 C134 0.950 . S
H158 C136 0.950 . S
C159 C160 1.443 . S
C159 N163 1.376 . S
C159 C197 1.389 . S
C160 C159 1.443 . S
C160 C161 1.340 1_655 S
C160 H200 0.951 . S
C161 C160 1.340 1_455 S
C161 C162 1.439 . S
C161 H201 0.950 . S
C162 C161 1.439 . S
C162 N163 1.374 1_455 S
C162 C196 1.395 . S
N163 C159 1.376 . S
N163 C162 1.374 1_655 S
N163 Co164 2.008 1_655 S
Co164 N163 2.008 1_455 S
Co164 N165 1.995 . S
Co164 N170 2.008 1_545 S
Co164 N175 1.995 1_445 S
Co164 N180 2.282 . S
Co164 N186 2.282 . S
N165 Co164 1.995 . S
N165 C166 1.376 . S
N165 C169 1.383 . S
C166 N165 1.376 . S
C166 C167 1.446 . S
C166 C196 1.391 . S
C167 C166 1.446 . S
C167 C168 1.339 . S
C167 H202 0.949 . S
C168 C167 1.339 . S
C168 C169 1.439 . S
C168 H203 0.950 . S
C169 N165 1.383 . S
C169 C168 1.439 . S
C169 C198 1.392 . S
N170 Co164 2.008 1_565 S
N170 C171 1.376 . S
N170 C174 1.374 1_455 S
C171 N170 1.376 . S
C171 C172 1.443 . S
C171 C198 1.389 1_565 S
C172 C171 1.443 . S
C172 C173 1.340 . S
C172 H204 0.951 . S
C173 C172 1.340 . S
C173 C174 1.439 1_455 S
C173 H205 0.950 1_455 S
C174 N170 1.374 1_655 S
C174 C173 1.439 1_655 S
C174 C199 1.395 . S
N175 Co164 1.995 1_665 S
N175 C176 1.376 . S
N175 C179 1.383 . S
C176 N175 1.376 . S
C176 C177 1.446 . S
C176 C199 1.391 . S
C177 C176 1.446 . S
C177 C178 1.339 . S
C177 H206 0.949 . S
C178 C177 1.339 . S
C178 C179 1.439 . S
C178 H207 0.950 . S
C179 N175 1.383 . S
C179 C178 1.439 . S
C179 C197 1.392 1_565 S
N180 Co164 2.282 . S
N180 C183 1.332 1_445 S
N180 C185 1.332 . S
C181 C182 1.386 1_455 S
C181 C184 1.388 1_565 S
C182 C181 1.386 1_655 S
C182 C183 1.382 . S
C182 H208 0.950 . S
C183 N180 1.332 1_665 S
C183 C182 1.382 . S
C183 H194 0.952 . S
C184 C181 1.388 1_545 S
C184 C185 1.382 . S
C184 H209 0.950 . S
C185 N180 1.332 . S
C185 C184 1.382 . S
C185 H195 0.948 . S
N186 Co164 2.282 . S
N186 C190 1.332 . S
N186 C191 1.332 1_445 S
C187 C188 1.388 1_565 S
C187 C191 1.382 . S
C187 H210 0.950 . S
C188 C187 1.388 1_545 S
C188 C189 1.386 1_655 S
C189 C188 1.386 1_455 S
C189 C190 1.382 . S
C189 H211 0.950 . S
C190 N186 1.332 . S
C190 C189 1.382 . S
C190 H192 0.952 . S
C191 N186 1.332 1_665 S
C191 C187 1.382 . S
C191 H193 0.948 . S
H192 C190 0.952 . S
H193 C191 0.948 . S
H194 C183 0.952 . S
H195 C185 0.948 . S
C196 C162 1.395 . S
C196 C166 1.391 . S
C197 C159 1.389 . S
C197 C179 1.392 1_545 S
C198 C169 1.392 . S
C198 C171 1.389 1_545 S
C199 C174 1.395 . S
C199 C176 1.391 . S
H200 C160 0.951 . S
H201 C161 0.950 . S
H202 C167 0.949 . S
H203 C168 0.950 . S
H204 C172 0.951 . S
H205 C173 0.950 1_655 S
H206 C177 0.949 . S
H207 C178 0.950 . S
H208 C182 0.950 . S
H209 C184 0.950 . S
H210 C187 0.950 . S
H211 C189 0.950 . S
C212 C213 1.443 . S
C212 N216 1.376 1_655 S
C212 C250 1.389 . S
C213 C212 1.443 . S
C213 C214 1.340 . S
C213 H253 0.951 . S
C214 C213 1.340 . S
C214 C215 1.439 1_655 S
C214 H254 0.950 . S
C215 C214 1.439 1_455 S
C215 N216 1.374 . S
C215 C249 1.395 . S
N216 C212 1.376 1_455 S
N216 C215 1.374 . S
N216 Co217 2.008 . S
Co217 N216 2.008 . S
Co217 N218 1.995 . S
Co217 N223 2.008 . S
Co217 N228 1.995 . S
Co217 N233 2.282 . S
Co217 N239 2.282 . S
N218 Co217 1.995 . S
N218 C219 1.376 . S
N218 C222 1.383 . S
C219 N218 1.376 . S
C219 C220 1.446 . S
C219 C249 1.391 . S
C220 C219 1.446 . S
C220 C221 1.339 . S
C220 H255 0.949 . S
C221 C220 1.339 . S
C221 C222 1.439 . S
C221 H256 0.950 . S
C222 N218 1.383 . S
C222 C221 1.439 . S
C222 C251 1.392 . S
N223 Co217 2.008 . S
N223 C224 1.376 . S
N223 C227 1.374 . S
C224 N223 1.376 . S
C224 C225 1.443 . S
C224 C251 1.389 . S
C225 C224 1.443 . S
C225 C226 1.340 . S
C225 H257 0.951 . S
C226 C225 1.340 . S
C226 C227 1.439 . S
C226 H258 0.950 . S
C227 N223 1.374 . S
C227 C226 1.439 . S
C227 C252 1.395 . S
N228 Co217 1.995 . S
N228 C229 1.376 . S
N228 C232 1.383 . S
C229 N228 1.376 . S
C229 C230 1.446 . S
C229 C252 1.391 . S
C230 C229 1.446 . S
C230 C231 1.339 . S
C230 H259 0.949 . S
C231 C230 1.339 . S
C231 C232 1.439 . S
C231 H260 0.950 1_455 S
C232 N228 1.383 . S
C232 C231 1.439 . S
C232 C250 1.392 1_455 S
N233 Co217 2.282 . S
N233 C236 1.332 . S
N233 C238 1.332 . S
C234 C235 1.386 . S
C234 C237 1.388 . S
C235 C234 1.386 . S
C235 C236 1.382 . S
C235 H261 0.950 . S
C236 N233 1.332 . S
C236 C235 1.382 . S
C236 H247 0.952 . S
C237 C234 1.388 . S
C237 C238 1.382 . S
C237 H262 0.950 . S
C238 N233 1.332 . S
C238 C237 1.382 . S
C238 H248 0.948 . S
N239 Co217 2.282 . S
N239 C243 1.332 . S
N239 C244 1.332 . S
C240 C241 1.388 . S
C240 C244 1.382 . S
C240 H263 0.950 . S
C241 C240 1.388 . S
C241 C242 1.386 . S
C242 C241 1.386 . S
C242 C243 1.382 . S
C242 H264 0.950 . S
C243 N239 1.332 . S
C243 C242 1.382 . S
C243 H245 0.952 . S
C244 N239 1.332 . S
C244 C240 1.382 . S
C244 H246 0.948 . S
H245 C243 0.952 . S
H246 C244 0.948 . S
H247 C236 0.952 . S
H248 C238 0.948 . S
C249 C215 1.395 . S
C249 C219 1.391 . S
C250 C212 1.389 . S
C250 C232 1.392 1_655 S
C251 C222 1.392 . S
C251 C224 1.389 . S
C252 C227 1.395 . S
C252 C229 1.391 . S
H253 C213 0.951 . S
H254 C214 0.950 . S
H255 C220 0.949 . S
H256 C221 0.950 . S
H257 C225 0.951 . S
H258 C226 0.950 . S
H259 C230 0.949 . S
H260 C231 0.950 1_655 S
H261 C235 0.950 . S
H262 C237 0.950 . S
H263 C240 0.950 . S
H264 C242 0.950 . S
C265 C266 1.443 1_545 S
C265 N269 1.376 . S
C265 C303 1.389 . S
C266 C265 1.443 1_565 S
C266 C267 1.340 1_565 S
C266 H306 0.951 . S
C267 C266 1.340 1_545 S
C267 C268 1.439 . S
C267 H307 0.950 1_545 S
C268 C267 1.439 . S
C268 N269 1.374 . S
C268 C302 1.395 . S
N269 C265 1.376 . S
N269 C268 1.374 . S
N269 Co270 2.008 . S
Co270 N269 2.008 . S
Co270 N271 1.995 . S
Co270 N276 2.008 . S
Co270 N281 1.995 . S
Co270 N286 2.282 . S
Co270 N292 2.282 . S
N271 Co270 1.995 . S
N271 C272 1.376 . S
N271 C275 1.383 . S
C272 N271 1.376 . S
C272 C273 1.446 . S
C272 C302 1.391 . S
C273 C272 1.446 . S
C273 C274 1.339 . S
C273 H308 0.949 . S
C274 C273 1.339 . S
C274 C275 1.439 . S
C274 H309 0.950 . S
C275 N271 1.383 . S
C275 C274 1.439 . S
C275 C304 1.392 . S
N276 Co270 2.008 . S
N276 C277 1.376 . S
N276 C280 1.374 . S
C277 N276 1.376 . S
C277 C278 1.443 . S
C277 C304 1.389 . S
C278 C277 1.443 . S
C278 C279 1.340 . S
C278 H310 0.951 . S
C279 C278 1.340 . S
C279 C280 1.439 . S
C279 H311 0.950 . S
C280 N276 1.374 . S
C280 C279 1.439 . S
C280 C305 1.395 . S
N281 Co270 1.995 . S
N281 C282 1.376 . S
N281 C285 1.383 . S
C282 N281 1.376 . S
C282 C283 1.446 . S
C282 C305 1.391 . S
C283 C282 1.446 . S
C283 C284 1.339 . S
C283 H312 0.949 . S
C284 C283 1.339 . S
C284 C285 1.439 . S
C284 H313 0.950 . S
C285 N281 1.383 . S
C285 C284 1.439 . S
C285 C303 1.392 . S
N286 Co270 2.282 . S
N286 C289 1.332 . S
N286 C291 1.332 . S
C287 C288 1.386 . S
C287 C290 1.388 . S
C288 C287 1.386 . S
C288 C289 1.382 . S
C288 H314 0.950 . S
C289 N286 1.332 . S
C289 C288 1.382 . S
C289 H300 0.952 . S
C290 C287 1.388 . S
C290 C291 1.382 . S
C290 H315 0.950 . S
C291 N286 1.332 . S
C291 C290 1.382 . S
C291 H301 0.948 . S
N292 Co270 2.282 . S
N292 C296 1.332 . S
N292 C297 1.332 . S
C293 C294 1.388 . S
C293 C297 1.382 . S
C293 H316 0.950 . S
C294 C293 1.388 . S
C294 C295 1.386 . S
C295 C294 1.386 . S
C295 C296 1.382 . S
C295 H317 0.950 . S
C296 N292 1.332 . S
C296 C295 1.382 . S
C296 H298 0.952 . S
C297 N292 1.332 . S
C297 C293 1.382 . S
C297 H299 0.948 . S
H298 C296 0.952 . S
H299 C297 0.948 . S
H300 C289 0.952 . S
H301 C291 0.948 . S
C302 C268 1.395 . S
C302 C272 1.391 . S
C303 C265 1.389 . S
C303 C285 1.392 . S
C304 C275 1.392 . S
C304 C277 1.389 . S
C305 C280 1.395 . S
C305 C282 1.391 . S
H306 C266 0.951 . S
H307 C267 0.950 1_565 S
H308 C273 0.949 . S
H309 C274 0.950 . S
H310 C278 0.951 . S
H311 C279 0.950 . S
H312 C283 0.949 . S
H313 C284 0.950 . S
H314 C288 0.950 . S
H315 C290 0.950 . S
H316 C293 0.950 . S
H317 C295 0.950 . S
H318 C330 0.930 . S
H319 C332 0.930 . S
H320 C333 0.930 . S
H321 C337 0.959 . S
H322 C337 0.959 . S
H323 C337 0.961 . S
H324 C338 0.960 . S
H325 C338 0.961 . S
H326 C338 0.959 . S
H327 C341 0.929 . S
H328 C342 0.931 . S
H329 C344 0.930 . S
C330 H318 0.930 . S
C330 C331 1.399 . S
C330 C335 1.399 1_545 S
C331 C330 1.399 . S
C331 C332 1.376 . S
C332 H319 0.930 . S
C332 C331 1.376 . S
C332 C333 1.388 . S
C333 H320 0.930 . S
C333 C332 1.388 . S
C333 C334 1.390 1_545 S
C334 C333 1.390 1_565 S
C334 C335 1.394 . S
C334 C340 1.465 . S
C335 C330 1.399 1_565 S
C335 C334 1.394 . S
C335 C336 1.516 . S
C336 C335 1.516 . S
C336 C337 1.502 . S
C336 C338 1.561 . S
C336 C339 1.526 . S
C337 H321 0.959 . S
C337 H322 0.959 . S
C337 H323 0.961 . S
C337 C336 1.502 . S
C338 H324 0.960 . S
C338 H325 0.961 . S
C338 H326 0.959 . S
C338 C336 1.561 . S
C339 C336 1.526 . S
C339 C340 1.396 . S
C339 C344 1.390 . S
C340 C334 1.465 . S
C340 C339 1.396 . S
C340 C341 1.399 . S
C341 H327 0.929 . S
C341 C340 1.399 . S
C341 C342 1.385 . S
C342 H328 0.931 . S
C342 C341 1.385 . S
C342 C343 1.389 . S
C343 C342 1.389 . S
C343 C344 1.387 . S
C344 H329 0.930 . S
C344 C339 1.390 . S
C344 C343 1.387 . S
H345 C357 0.930 . S
H346 C359 0.930 . S
H347 C360 0.930 . S
H348 C364 0.959 1_565 S
H349 C364 0.959 . S
H350 C364 0.961 . S
H351 C365 0.960 . S
H352 C365 0.961 . S
H353 C365 0.959 . S
H354 C368 0.929 . S
H355 C369 0.931 . S
H356 C371 0.930 . S
C357 H345 0.930 . S
C357 C358 1.399 . S
C357 C362 1.399 . S
C358 C357 1.399 . S
C358 C359 1.376 1_545 S
C359 H346 0.930 . S
C359 C358 1.376 1_565 S
C359 C360 1.388 . S
C360 H347 0.930 . S
C360 C359 1.388 . S
C360 C361 1.390 1_565 S
C361 C360 1.390 1_545 S
C361 C362 1.394 . S
C361 C367 1.465 . S
C362 C357 1.399 . S
C362 C361 1.394 . S
C362 C363 1.516 . S
C363 C362 1.516 . S
C363 C364 1.502 . S
C363 C365 1.561 . S
C363 C366 1.526 . S
C364 H348 0.959 1_545 S
C364 H349 0.959 . S
C364 H350 0.961 . S
C364 C363 1.502 . S
C365 H351 0.960 . S
C365 H352 0.961 . S
C365 H353 0.959 . S
C365 C363 1.561 . S
C366 C363 1.526 . S
C366 C367 1.396 . S
C366 C371 1.390 . S
C367 C361 1.465 . S
C367 C366 1.396 . S
C367 C368 1.399 1_545 S
C368 H354 0.929 . S
C368 C367 1.399 1_565 S
C368 C369 1.385 . S
C369 H355 0.931 . S
C369 C368 1.385 . S
C369 C370 1.389 1_565 S
C370 C369 1.389 1_545 S
C370 C371 1.387 . S
C371 H356 0.930 . S
C371 C366 1.390 . S
C371 C370 1.387 . S
H372 C384 0.930 . S
H373 C386 0.930 . S
H374 C387 0.930 . S
H375 C391 0.959 . S
H376 C391 0.959 . S
H377 C391 0.961 . S
H378 C392 0.960 . S
H379 C392 0.961 . S
H380 C392 0.959 . S
H381 C395 0.929 . S
H382 C396 0.931 . S
H383 C398 0.930 . S
C384 H372 0.930 . S
C384 C385 1.399 . S
C384 C389 1.399 . S
C385 C384 1.399 . S
C385 C386 1.376 . S
C386 H373 0.930 . S
C386 C385 1.376 . S
C386 C387 1.388 . S
C387 H374 0.930 . S
C387 C386 1.388 . S
C387 C388 1.390 . S
C388 C387 1.390 . S
C388 C389 1.394 . S
C388 C394 1.465 . S
C389 C384 1.399 . S
C389 C388 1.394 . S
C389 C390 1.516 . S
C390 C389 1.516 . S
C390 C391 1.502 . S
C390 C392 1.561 . S
C390 C393 1.526 . S
C391 H375 0.959 . S
C391 H376 0.959 . S
C391 H377 0.961 . S
C391 C390 1.502 . S
C392 H378 0.960 . S
C392 H379 0.961 . S
C392 H380 0.959 . S
C392 C390 1.561 . S
C393 C390 1.526 . S
C393 C394 1.396 . S
C393 C398 1.390 . S
C394 C388 1.465 . S
C394 C393 1.396 . S
C394 C395 1.399 . S
C395 H381 0.929 . S
C395 C394 1.399 . S
C395 C396 1.385 . S
C396 H382 0.931 . S
C396 C395 1.385 . S
C396 C397 1.389 . S
C397 C396 1.389 . S
C397 C398 1.387 . S
C398 H383 0.930 . S
C398 C393 1.390 . S
C398 C397 1.387 . S
H399 C411 0.930 . S
H400 C413 0.930 . S
H401 C414 0.930 . S
H402 C418 0.959 . S
H403 C418 0.959 . S
H404 C418 0.961 . S
H405 C419 0.960 . S
H406 C419 0.961 . S
H407 C419 0.959 . S
H408 C422 0.929 . S
H409 C423 0.931 . S
H410 C425 0.930 . S
C411 H399 0.930 . S
C411 C412 1.399 . S
C411 C416 1.399 . S
C412 C411 1.399 . S
C412 C413 1.376 1_545 S
C413 H400 0.930 . S
C413 C412 1.376 1_565 S
C413 C414 1.388 . S
C414 H401 0.930 . S
C414 C413 1.388 . S
C414 C415 1.390 . S
C415 C414 1.390 . S
C415 C416 1.394 1_565 S
C415 C421 1.465 . S
C416 C411 1.399 . S
C416 C415 1.394 1_545 S
C416 C417 1.516 . S
C417 C416 1.516 . S
C417 C418 1.502 . S
C417 C419 1.561 . S
C417 C420 1.526 . S
C418 H402 0.959 . S
C418 H403 0.959 . S
C418 H404 0.961 . S
C418 C417 1.502 . S
C419 H405 0.960 . S
C419 H406 0.961 . S
C419 H407 0.959 . S
C419 C417 1.561 . S
C420 C417 1.526 . S
C420 C421 1.396 1_545 S
C420 C425 1.390 . S
C421 C415 1.465 . S
C421 C420 1.396 1_565 S
C421 C422 1.399 . S
C422 H408 0.929 . S
C422 C421 1.399 . S
C422 C423 1.385 . S
C423 H409 0.931 . S
C423 C422 1.385 . S
C423 C424 1.389 1_565 S
C424 C423 1.389 1_545 S
C424 C425 1.387 . S
C425 H410 0.930 . S
C425 C420 1.390 . S
C425 C424 1.387 . S
H426 C438 0.930 . S
H427 C440 0.930 . S
H428 C441 0.930 . S
H429 C445 0.959 . S
H430 C445 0.959 . S
H431 C445 0.961 1_565 S
H432 C446 0.960 . S
H433 C446 0.961 . S
H434 C446 0.959 . S
H435 C449 0.929 . S
H436 C450 0.931 . S
H437 C452 0.930 . S
C438 H426 0.930 . S
C438 C439 1.399 . S
C438 C443 1.399 . S
C439 C438 1.399 . S
C439 C440 1.376 . S
C440 H427 0.930 . S
C440 C439 1.376 . S
C440 C441 1.388 . S
C441 H428 0.930 . S
C441 C440 1.388 . S
C441 C442 1.390 . S
C442 C441 1.390 . S
C442 C443 1.394 . S
C442 C448 1.465 . S
C443 C438 1.399 . S
C443 C442 1.394 . S
C443 C444 1.516 . S
C444 C443 1.516 . S
C444 C445 1.502 1_565 S
C444 C446 1.561 . S
C444 C447 1.526 . S
C445 H429 0.959 . S
C445 H430 0.959 . S
C445 H431 0.961 1_545 S
C445 C444 1.502 1_545 S
C446 H432 0.960 . S
C446 H433 0.961 . S
C446 H434 0.959 . S
C446 C444 1.561 . S
C447 C444 1.526 . S
C447 C448 1.396 . S
C447 C452 1.390 1_565 S
C448 C442 1.465 . S
C448 C447 1.396 . S
C448 C449 1.399 . S
C449 H435 0.929 . S
C449 C448 1.399 . S
C449 C450 1.385 1_565 S
C450 H436 0.931 . S
C450 C449 1.385 1_545 S
C450 C451 1.389 . S
C451 C450 1.389 . S
C451 C452 1.387 . S
C452 H437 0.930 . S
C452 C447 1.390 1_545 S
C452 C451 1.387 . S
H453 C465 0.930 . S
H454 C467 0.930 . S
H455 C468 0.930 . S
H456 C472 0.959 . S
H457 C472 0.959 . S
H458 C472 0.961 . S
H459 C473 0.960 . S
H460 C473 0.961 . S
H461 C473 0.959 . S
H462 C476 0.929 . S
H463 C477 0.931 1_545 S
H464 C479 0.930 . S
C465 H453 0.930 . S
C465 C466 1.399 . S
C465 C470 1.399 . S
C466 C465 1.399 . S
C466 C467 1.376 . S
C467 H454 0.930 . S
C467 C466 1.376 . S
C467 C468 1.388 . S
C468 H455 0.930 . S
C468 C467 1.388 . S
C468 C469 1.390 . S
C469 C468 1.390 . S
C469 C470 1.394 . S
C469 C475 1.465 . S
C470 C465 1.399 . S
C470 C469 1.394 . S
C470 C471 1.516 . S
C471 C470 1.516 . S
C471 C472 1.502 . S
C471 C473 1.561 . S
C471 C474 1.526 . S
C472 H456 0.959 . S
C472 H457 0.959 . S
C472 H458 0.961 . S
C472 C471 1.502 . S
C473 H459 0.960 . S
C473 H460 0.961 . S
C473 H461 0.959 . S
C473 C471 1.561 . S
C474 C471 1.526 . S
C474 C475 1.396 . S
C474 C479 1.390 . S
C475 C469 1.465 . S
C475 C474 1.396 . S
C475 C476 1.399 . S
C476 H462 0.929 . S
C476 C475 1.399 . S
C476 C477 1.385 . S
C477 H463 0.931 1_565 S
C477 C476 1.385 . S
C477 C478 1.389 1_565 S
C478 C477 1.389 1_545 S
C478 C479 1.387 1_545 S
C479 H464 0.930 . S
C479 C474 1.390 . S
C479 C478 1.387 1_565 S
H480 C492 0.930 . S
H481 C494 0.930 . S
H482 C495 0.930 . S
H483 C499 0.959 . S
H484 C499 0.959 . S
H485 C499 0.961 . S
H486 C500 0.960 . S
H487 C500 0.961 . S
H488 C500 0.959 . S
H489 C503 0.929 . S
H490 C504 0.931 . S
H491 C506 0.930 . S
C492 H480 0.930 . S
C492 C493 1.399 . S
C492 C497 1.399 . S
C493 C492 1.399 . S
C493 C494 1.376 . S
C494 H481 0.930 . S
C494 C493 1.376 . S
C494 C495 1.388 . S
C495 H482 0.930 . S
C495 C494 1.388 . S
C495 C496 1.390 . S
C496 C495 1.390 . S
C496 C497 1.394 . S
C496 C502 1.465 . S
C497 C492 1.399 . S
C497 C496 1.394 . S
C497 C498 1.516 . S
C498 C497 1.516 . S
C498 C499 1.502 . S
C498 C500 1.561 . S
C498 C501 1.526 . S
C499 H483 0.959 . S
C499 H484 0.959 . S
C499 H485 0.961 . S
C499 C498 1.502 . S
C500 H486 0.960 . S
C500 H487 0.961 . S
C500 H488 0.959 . S
C500 C498 1.561 . S
C501 C498 1.526 . S
C501 C502 1.396 . S
C501 C506 1.390 . S
C502 C496 1.465 . S
C502 C501 1.396 . S
C502 C503 1.399 . S
C503 H489 0.929 . S
C503 C502 1.399 . S
C503 C504 1.385 . S
C504 H490 0.931 . S
C504 C503 1.385 . S
C504 C505 1.389 . S
C505 C504 1.389 . S
C505 C506 1.387 . S
C506 H491 0.930 . S
C506 C501 1.390 . S
C506 C505 1.387 . S
H507 C519 0.930 . S
H508 C521 0.930 . S
H509 C522 0.930 . S
H510 C526 0.959 1_655 S
H511 C526 0.959 . S
H512 C526 0.961 . S
H513 C527 0.960 . S
H514 C527 0.961 . S
H515 C527 0.959 . S
H516 C530 0.929 . S
H517 C531 0.931 . S
H518 C533 0.930 . S
C519 H507 0.930 . S
C519 C520 1.399 1_545 S
C519 C524 1.399 . S
C520 C519 1.399 1_565 S
C520 C521 1.376 . S
C521 H508 0.930 . S
C521 C520 1.376 . S
C521 C522 1.388 . S
C522 H509 0.930 . S
C522 C521 1.388 . S
C522 C523 1.390 . S
C523 C522 1.390 . S
C523 C524 1.394 1_565 S
C523 C529 1.465 . S
C524 C519 1.399 . S
C524 C523 1.394 1_545 S
C524 C525 1.516 . S
C525 C524 1.516 . S
C525 C526 1.502 . S
C525 C527 1.561 . S
C525 C528 1.526 . S
C526 H510 0.959 1_455 S
C526 H511 0.959 . S
C526 H512 0.961 . S
C526 C525 1.502 . S
C527 H513 0.960 . S
C527 H514 0.961 . S
C527 H515 0.959 . S
C527 C525 1.561 . S
C528 C525 1.526 . S
C528 C529 1.396 1_545 S
C528 C533 1.390 . S
C529 C523 1.465 . S
C529 C528 1.396 1_565 S
C529 C530 1.399 . S
C530 H516 0.929 . S
C530 C529 1.399 . S
C530 C531 1.385 . S
C531 H517 0.931 . S
C531 C530 1.385 . S
C531 C532 1.389 . S
C532 C531 1.389 . S
C532 C533 1.387 1_565 S
C533 H518 0.930 . S
C533 C528 1.390 . S
C533 C532 1.387 1_545 S
H534 C546 0.930 . S
H535 C548 0.930 . S
H536 C549 0.930 . S
H537 C553 0.959 . S
H538 C553 0.959 . S
H539 C553 0.961 . S
H540 C554 0.960 . S
H541 C554 0.961 . S
H542 C554 0.959 . S
H543 C557 0.929 . S
H544 C558 0.931 1_655 S
H545 C560 0.930 . S
C546 H534 0.930 . S
C546 C547 1.399 . S
C546 C551 1.399 . S
C547 C546 1.399 . S
C547 C548 1.376 1_455 S
C548 H535 0.930 . S
C548 C547 1.376 1_655 S
C548 C549 1.388 . S
C549 H536 0.930 . S
C549 C548 1.388 . S
C549 C550 1.390 1_655 S
C550 C549 1.390 1_455 S
C550 C551 1.394 . S
C550 C556 1.465 . S
C551 C546 1.399 . S
C551 C550 1.394 . S
C551 C552 1.516 . S
C552 C551 1.516 . S
C552 C553 1.502 . S
C552 C554 1.561 . S
C552 C555 1.526 . S
C553 H537 0.959 . S
C553 H538 0.959 . S
C553 H539 0.961 . S
C553 C552 1.502 . S
C554 H540 0.960 . S
C554 H541 0.961 . S
C554 H542 0.959 . S
C554 C552 1.561 . S
C555 C552 1.526 . S
C555 C556 1.396 . S
C555 C560 1.390 . S
C556 C550 1.465 . S
C556 C555 1.396 . S
C556 C557 1.399 1_455 S
C557 H543 0.929 . S
C557 C556 1.399 1_655 S
C557 C558 1.385 1_655 S
C558 H544 0.931 1_455 S
C558 C557 1.385 1_455 S
C558 C559 1.389 . S
C559 C558 1.389 . S
C559 C560 1.387 . S
C560 H545 0.930 . S
C560 C555 1.390 . S
C560 C559 1.387 . S
H561 C573 0.930 . S
H562 C575 0.930 . S
H563 C576 0.930 . S
H564 C580 0.957 . S
H565 C580 0.955 . S
H566 C580 0.966 1_554 S
H567 C581 0.960 . S
H568 C581 0.961 1_556 S
H569 C581 0.959 . S
H570 C584 0.918 1_554 S
H571 C585 0.931 . S
H572 C587 0.930 . S
C573 H561 0.930 . S
C573 C574 1.399 . S
C573 C578 1.399 . S
C574 C573 1.399 . S
C574 C575 1.376 . S
C575 H562 0.930 . S
C575 C574 1.376 . S
C575 C576 1.388 . S
C576 H563 0.930 . S
C576 C575 1.388 . S
C576 C577 1.390 . S
C577 C576 1.390 . S
C577 C578 1.394 . S
C577 C583 1.465 . S
C578 C573 1.399 . S
C578 C577 1.394 . S
C578 C579 1.516 . S
C579 C578 1.516 . S
C579 C580 1.502 1_554 S
C579 C581 1.561 . S
C579 C582 1.526 1_554 S
C580 H564 0.957 . S
C580 H565 0.955 . S
C580 H566 0.966 1_556 S
C580 C579 1.502 1_556 S
C581 H567 0.960 . S
C581 H568 0.961 1_554 S
C581 H569 0.959 . S
C581 C579 1.561 . S
C582 C579 1.526 1_556 S
C582 C583 1.396 1_556 S
C582 C587 1.390 . S
C583 C577 1.465 . S
C583 C582 1.396 1_554 S
C583 C584 1.346 1_554 S
C584 H570 0.918 1_556 S
C584 C583 1.346 1_556 S
C584 C585 1.454 . S
C585 H571 0.931 . S
C585 C584 1.454 . S
C585 C586 1.389 . S
C586 C585 1.389 . S
C586 C587 1.387 . S
C587 H572 0.930 . S
C587 C582 1.390 . S
C587 C586 1.387 . S
H588 C600 0.930 . S
H589 C602 0.930 . S
H590 C603 0.930 . S
H591 C607 0.959 . S
H592 C607 0.959 . S
H593 C607 0.961 . S
H594 C608 0.960 . S
H595 C608 0.961 . S
H596 C608 0.959 . S
H597 C611 0.929 . S
H598 C612 0.931 . S
H599 C614 0.930 . S
C600 H588 0.930 . S
C600 C601 1.399 . S
C600 C605 1.399 . S
C601 C600 1.399 . S
C601 C602 1.376 . S
C602 H589 0.930 . S
C602 C601 1.376 . S
C602 C603 1.388 . S
C603 H590 0.930 . S
C603 C602 1.388 . S
C603 C604 1.390 . S
C604 C603 1.390 . S
C604 C605 1.394 . S
C604 C610 1.465 . S
C605 C600 1.399 . S
C605 C604 1.394 . S
C605 C606 1.516 . S
C606 C605 1.516 . S
C606 C607 1.502 . S
C606 C608 1.561 . S
C606 C609 1.526 . S
C607 H591 0.959 . S
C607 H592 0.959 . S
C607 H593 0.961 . S
C607 C606 1.502 . S
C608 H594 0.960 . S
C608 H595 0.961 . S
C608 H596 0.959 . S
C608 C606 1.561 . S
C609 C606 1.526 . S
C609 C610 1.396 . S
C609 C614 1.390 . S
C610 C604 1.465 . S
C610 C609 1.396 . S
C610 C611 1.399 . S
C611 H597 0.929 . S
C611 C610 1.399 . S
C611 C612 1.385 . S
C612 H598 0.931 . S
C612 C611 1.385 . S
C612 C613 1.389 . S
C613 C612 1.389 . S
C613 C614 1.387 . S
C614 H599 0.930 . S
C614 C609 1.390 . S
C614 C613 1.387 . S
H615 C627 0.930 1_565 S
H616 C629 0.930 . S
H617 C630 0.930 . S
H618 C634 0.959 . S
H619 C634 0.959 . S
H620 C634 0.961 . S
H621 C635 0.960 . S
H622 C635 0.961 . S
H623 C635 0.959 1_455 S
H624 C638 0.929 . S
H625 C639 0.931 . S
H626 C641 0.930 . S
C627 H615 0.930 1_545 S
C627 C628 1.399 1_655 S
C627 C632 1.399 . S
C628 C627 1.399 1_455 S
C628 C629 1.376 . S
C629 H616 0.930 . S
C629 C628 1.376 . S
C629 C630 1.388 . S
C630 H617 0.930 . S
C630 C629 1.388 . S
C630 C631 1.390 . S
C631 C630 1.390 . S
C631 C632 1.394 1_455 S
C631 C637 1.465 . S
C632 C627 1.399 . S
C632 C631 1.394 1_655 S
C632 C633 1.516 . S
C633 C632 1.516 . S
C633 C634 1.502 1_545 S
C633 C635 1.561 1_545 S
C633 C636 1.526 . S
C634 H618 0.959 . S
C634 H619 0.959 . S
C634 H620 0.961 . S
C634 C633 1.502 1_565 S
C635 H621 0.960 . S
C635 H622 0.961 . S
C635 H623 0.959 1_655 S
C635 C633 1.561 1_565 S
C636 C633 1.526 . S
C636 C637 1.396 1_655 S
C636 C641 1.390 . S
C637 C631 1.465 . S
C637 C636 1.396 1_455 S
C637 C638 1.399 . S
C638 H624 0.929 . S
C638 C637 1.399 . S
C638 C639 1.385 . S
C639 H625 0.931 . S
C639 C638 1.385 . S
C639 C640 1.389 . S
C640 C639 1.389 . S
C640 C641 1.387 1_455 S
C641 H626 0.930 . S
C641 C636 1.390 . S
C641 C640 1.387 1_655 S
C331 C39 1.494 . S
C343 C38 1.490 . S
C358 C91 1.488 . S
C370 C92 1.496 . S
C385 C145 1.494 1_565 S
C397 C144 1.495 . S
C412 C198 1.488 . S
C424 C197 1.496 . S
C439 C251 1.496 . S
C451 C250 1.491 . S
C466 C304 1.490 . S
C478 C303 1.496 . S
C493 C287 1.535 . S
C505 C22 1.539 . S
C520 C181 1.547 . S
C532 C75 1.545 . S
C547 C128 1.539 . S
C559 C234 1.532 . S
C574 C29 1.560 . S
C586 C241 1.549 . S
C601 C294 1.558 . S
C613 C82 1.564 . S
C628 C188 1.547 1_455 S
C640 C135 1.560 . S
