# Generated by pormake.
# Topology kag, (6)-cn, num edge types: 1
# Building blocks:
#     Node 0, Type 0, BuildingBlock: KUMJIN_clean_sbu_0, # of connection points: 6
#     Node 1, Type 0, BuildingBlock: KUMJIN_clean_sbu_0, # of connection points: 6
#     Node 2, Type 0, BuildingBlock: KUMJIN_clean_sbu_0, # of connection points: 6
#     Edge 3, Type (0, 0), BuildingBlock: MIFKUJ_clean_linker_0, # of connection points: 2
#     Edge 4, Type (0, 0), BuildingBlock: MIFKUJ_clean_linker_0, # of connection points: 2
#     Edge 5, Type (0, 0), BuildingBlock: MIFKUJ_clean_linker_0, # of connection points: 2
#     Edge 6, Type (0, 0), BuildingBlock: MIFKUJ_clean_linker_0, # of connection points: 2
#     Edge 7, Type (0, 0), BuildingBlock: MIFKUJ_clean_linker_0, # of connection points: 2
#     Edge 8, Type (0, 0), BuildingBlock: MIFKUJ_clean_linker_0, # of connection points: 2
#     Edge 9, Type (0, 0), BuildingBlock: MIFKUJ_clean_linker_0, # of connection points: 2
#     Edge 10, Type (0, 0), BuildingBlock: MIFKUJ_clean_linker_0, # of connection points: 2
#     Edge 11, Type (0, 0), BuildingBlock: MIFKUJ_clean_linker_0, # of connection points: 2
# Relax obj value: 0.054
# Max RMSD: 0.170
# Mean RMSD: 0.128
data_MOF--net-kag--node1-KUMJIN_clean_sbu_0--edge1-MIFKUJ_clean_linker_0
_symmetry_space_group_name_H-M    P1
_symmetry_Int_Tables_number       1
_symmetry_cell_setting            triclinic
loop_
_symmetry_equiv_pos_as_xyz
'x, y, z'
_cell_length_a     49.047215
_cell_length_b     39.807379
_cell_length_c     19.835807
_cell_angle_alpha  93.928862
_cell_angle_beta   114.08592
_cell_angle_gamma 102.52428
loop_
_atom_site_label
_atom_site_type_symbol
_atom_site_fract_x
_atom_site_fract_y
_atom_site_fract_z
_atom_type_partial_charge
Eu0 Eu 0.99828 0.47745 0.97952 0.0
C1 C 1.007 0.62679 0.10614 0.0
C2 C 0.95977 0.63893 0.02006 0.0
C3 C 0.98674 0.67007 0.14886 0.0
C4 C 0.98236 0.62026 0.03522 0.0
C5 C 0.00943 0.65181 0.16361 0.0
C6 C 0.96239 0.66414 0.07692 0.0
C7 C 0.05912 0.64303 0.24264 0.0
N8 N 0.02981 0.61064 0.11735 0.0
C9 C 0.05625 0.61934 0.18325 0.0
C10 C 0.0355 0.65916 0.23299 0.0
Eu11 Eu 0.02323 0.5718 0.01338 0.0
N12 N 0.98166 0.59762 0.97977 0.0
C13 C 0.9593 0.59276 0.90791 0.0
C14 C 0.93595 0.63284 0.9473 0.0
C15 C 0.93575 0.60967 0.89096 0.0
H16 H 0.07475 0.60728 0.19045 0.0
H17 H 0.91772 0.60517 0.83425 0.0
H18 H 0.94629 0.68007 0.06515 0.0
H19 H 0.0797 0.64917 0.29547 0.0
H20 H 0.95926 0.57549 0.86351 0.0
H21 H 0.1057 0.44635 0.15505 0.0
H22 H 0.91799 0.64643 0.93373 0.0
H23 H 0.9455 0.43919 0.80532 0.0
H24 H 0.06194 0.47223 0.12899 0.0
H25 H 0.94112 0.39882 0.69862 0.0
H26 H 0.98844 0.6898 0.19189 0.0
H27 H 0.10794 0.40989 0.05229 0.0
H28 H 0.08244 0.38079 0.91693 0.0
H29 H 0.03807 0.67805 0.27862 0.0
H30 H 0.03763 0.36763 0.79304 0.0
N31 N 0.03987 0.45142 0.0121 0.0
C32 C 0.06248 0.45626 0.08361 0.0
C33 C 0.0886 0.42116 0.04047 0.0
C34 C 0.06441 0.41468 0.96814 0.0
C35 C 0.08739 0.44166 0.09866 0.0
C36 C 0.03992 0.4302 0.95565 0.0
H37 H 0.98467 0.37387 0.71135 0.0
N38 N 0.99119 0.43744 0.87652 0.0
C39 C 0.96199 0.40545 0.75088 0.0
C40 C 0.01476 0.42285 0.88585 0.0
C41 C 0.96448 0.42817 0.81132 0.0
C42 C 0.98665 0.39147 0.75827 0.0
C43 C 0.0133 0.39973 0.82667 0.0
O44 O 0.95314 0.44449 0.95925 0.0
O45 O 0.98444 0.52592 -0.0048 0.0
O46 O 0.01489 0.55659 0.11191 0.0
O47 O 0.01995 0.4999 0.10556 0.0
O48 O 0.95227 0.48809 0.90657 0.0
O49 O 0.99448 0.44015 0.05299 0.0
O50 O 0.06856 0.60346 0.03167 0.0
O51 O 0.03704 0.52338 -0.00287 0.0
O52 O 1.00584 0.4923 0.87982 0.0
O53 O 1.0023 0.54968 0.88741 0.0
O54 O 0.06906 0.56113 0.08665 0.0
O55 O 0.02727 0.61252 0.94659 0.0
C56 C 0.95688 0.51804 0.94471 0.0
C57 C 0.9522 0.38972 0.99394 0.0
C58 C 0.90989 0.33893 0.97181 0.0
C59 C 0.9238 0.37497 -0.0052 0.0
C60 C 0.92495 0.31772 0.94808 0.0
C61 C 0.96702 0.36844 0.97005 0.0
C62 C 0.95338 0.33249 0.94727 0.0
C63 C 0.0185 0.52829 0.14173 0.0
C64 C 0.96458 0.42764 0.01353 0.0
C65 C 0.03816 0.38519 0.83804 0.0
C66 C 0.06368 0.39269 0.90859 0.0
C67 C 0.06454 0.53132 0.04804 0.0
C68 C 0.0715 0.66071 0.01195 0.0
C69 C 0.09956 0.67602 0.00982 0.0
C70 C 0.11652 0.71045 0.04701 0.0
C71 C 0.10467 0.72913 0.08665 0.0
C72 C 0.05941 0.6803 0.04851 0.0
C73 C 0.07609 0.71426 0.0863 0.0
C74 C 1.003 0.52092 0.85072 0.0
C75 C 0.0574 0.62323 0.98363 0.0
H76 H 0.91262 0.39168 0.0138 0.0
H77 H 0.91462 0.28983 0.92946 0.0
H78 H 0.9889 0.37955 0.96856 0.0
H79 H 0.96477 0.31608 0.92855 0.0
H80 H 0.10799 0.6608 0.97906 0.0
H81 H 0.11739 0.75522 0.11815 0.0
H82 H 0.03741 0.6693 0.04886 0.0
H83 H 0.067 0.72897 0.11606 0.0
Eu84 Eu 0.55308 0.03696 0.04084 0.0
C85 C 0.44134 0.07187 0.88333 0.0
C86 C 0.42611 0.09713 0.97288 0.0
C87 C 0.4195 0.12177 0.86051 0.0
C88 C 0.43921 0.07248 0.95111 0.0
C89 C 0.43074 0.09608 0.83666 0.0
C90 C 0.41696 0.12212 0.92815 0.0
C91 C 0.43762 0.06415 0.74007 0.0
N92 N 0.45159 0.04625 0.86034 0.0
C93 C 0.44724 0.04054 0.78737 0.0
C94 C 0.43015 0.09269 0.76547 0.0
Eu95 Eu 0.46842 1.00785 0.94609 0.0
N96 N 0.44876 0.04843 -0.00558 0.0
C97 C 0.44312 0.04588 0.05632 0.0
C98 C 0.42271 0.09616 0.03935 0.0
C99 C 0.43087 0.07011 0.08066 0.0
H100 H 0.44963 1.01698 0.76328 0.0
H101 H 0.42711 0.06819 0.13053 0.0
H102 H 0.40751 0.14161 0.94496 0.0
H103 H 0.43496 0.0595 0.68324 0.0
H104 H 0.44677 0.02454 0.08638 0.0
H105 H 0.57765 0.95311 0.85324 0.0
H106 H 0.41305 0.11482 0.05818 0.0
H107 H 0.57791 0.04088 0.2299 0.0
H108 H 0.56477 1.00423 0.89336 0.0
H109 H 0.59596 1.00448 0.32324 0.0
H110 H 0.41166 0.14073 0.82574 0.0
H111 H 0.59205 0.91081 0.93798 0.0
H112 H 0.60288 0.89405 0.06342 0.0
H113 H 0.42211 0.11065 0.72801 0.0
H114 H 0.60727 0.90753 0.19064 0.0
N115 N 0.56728 0.98955 -0.00303 0.0
C116 C 0.56879 0.98525 0.92967 0.0
C117 C 0.58546 0.93295 0.95543 0.0
C118 C 0.58641 0.9389 0.02671 0.0
C119 C 0.57711 0.95657 0.90724 0.0
C120 C 0.57743 0.96806 0.04673 0.0
H121 H 0.60469 0.94831 0.28795 0.0
N122 N 0.57185 1.00422 0.13772 0.0
C123 C 0.59049 0.9952 0.26563 0.0
C124 C 0.57948 0.97538 0.11849 0.0
C125 C 0.57927 1.01547 0.21144 0.0
C126 C 0.59568 0.96385 0.24546 0.0
C127 C 0.5911 0.95408 0.17176 0.0
O128 O 0.59748 0.06493 0.13221 0.0
O129 O 0.50946 0.05575 -0.0051 0.0
O130 O 0.48805 1.002 0.86168 0.0
O131 O 0.53723 0.04081 0.91799 0.0
O132 O 0.55047 0.0936 0.04761 0.0
O133 O 0.59117 0.06447 0.01738 0.0
O134 O 0.42939 0.97687 0.8439 0.0
O135 O 0.51191 0.98903 0.99241 0.0
O136 O 0.53405 0.04504 0.12544 0.0
O137 O 0.48529 1.00523 0.07032 0.0
O138 O 0.47053 0.95117 0.9477 0.0
O139 O 0.4268 0.97811 0.95254 0.0
C140 C 0.5211 0.08929 0.01198 0.0
C141 C 0.62077 0.11701 0.10443 0.0
C142 C 0.64948 0.16985 0.08276 0.0
C143 C 0.63866 0.13323 0.06997 0.0
C144 C 0.64187 0.19016 0.12981 0.0
C145 C 0.61384 0.13778 0.15248 0.0
C146 C 0.62416 0.17412 0.16445 0.0
C147 C 0.51259 1.02196 0.85826 0.0
C148 C 0.60857 0.07863 0.08784 0.0
C149 C 0.59878 0.92438 0.15077 0.0
C150 C 0.59638 0.91677 0.07841 0.0
C151 C 0.5 0.95556 0.97982 0.0
C152 C 0.38202 0.94201 0.84315 0.0
C153 C 0.37042 0.92068 0.8841 0.0
C154 C 0.34208 0.89502 0.84721 0.0
C155 C 0.32489 0.89149 0.76933 0.0
C156 C 0.3646 0.93832 0.76535 0.0
C157 C 0.33604 0.91328 0.7288 0.0
C158 C 0.5095 0.02544 0.12942 0.0
C159 C 0.41331 0.96583 0.88052 0.0
H160 H 0.64408 0.11734 0.03301 0.0
H161 H 0.65035 0.2184 0.14151 0.0
H162 H 0.60011 0.12604 0.18015 0.0
H163 H 0.6186 0.18989 0.20115 0.0
H164 H 0.38388 0.92308 0.94409 0.0
H165 H 0.3027 0.87214 0.74011 0.0
H166 H 0.3732 0.95452 0.73275 0.0
H167 H 0.32267 0.91053 0.66883 0.0
Eu168 Eu 0.46653 0.51289 0.95654 0.0
C169 C 0.58836 0.60831 0.1348 0.0
C170 C 0.59065 0.65013 0.05249 0.0
C171 C 0.61577 0.66958 0.18734 0.0
C172 C 0.58038 0.61579 0.06288 0.0
C173 C 0.60669 0.63518 0.1978 0.0
C174 C 0.60811 0.67685 0.11486 0.0
C175 C 0.61153 0.59131 0.27681 0.0
N176 N 0.58118 0.57443 0.14328 0.0
C177 C 0.59438 0.56555 0.21276 0.0
C178 C 0.61725 0.62638 0.26944 0.0
Eu179 Eu 0.55213 0.53281 0.03025 0.0
N180 N 0.5643 0.5893 0.00321 0.0
C181 C 0.55901 0.59511 0.93241 0.0
C182 C 0.58399 0.65651 0.9797 0.0
C183 C 0.56834 0.62877 0.91945 0.0
H184 H 0.59177 0.53843 0.2192 0.0
H185 H 0.56372 0.63321 0.86306 0.0
H186 H 0.61683 0.70287 0.10719 0.0
H187 H 0.62102 0.58403 0.33161 0.0
H188 H 0.54818 0.57394 0.8856 0.0
H189 H 0.45344 0.40691 0.11013 0.0
H190 H 0.5914 0.68259 0.96963 0.0
H191 H 0.42694 0.51132 0.76898 0.0
H192 H 0.46921 0.46771 0.09455 0.0
H193 H 0.39864 0.46795 0.65252 0.0
H194 H 0.63007 0.69041 0.23502 0.0
H195 H 0.42761 0.35945 -0.00049 0.0
H196 H 0.40593 0.34133 0.86029 0.0
H197 H 0.63128 0.64628 0.31906 0.0
H198 H 0.39276 0.35782 0.73593 0.0
N199 N 0.45367 0.45506 0.97656 0.0
C200 C 0.45844 0.44738 0.04589 0.0
C201 C 0.43459 0.3862 0.99232 0.0
C202 C 0.42862 0.39441 0.92104 0.0
C203 C 0.44921 0.41288 0.0549 0.0
C204 C 0.43834 0.42965 0.91466 0.0
H205 H 0.3899 0.40487 0.65782 0.0
N206 N 0.43795 0.47346 0.83992 0.0
C207 C 0.40813 0.45938 0.70591 0.0
C208 C 0.43105 0.439 0.8445 0.0
C209 C 0.42462 0.48389 0.77218 0.0
C210 C 0.40324 0.42384 0.70923 0.0
C211 C 0.4137 0.41324 0.77912 0.0
O212 O 0.42301 0.52753 0.90382 0.0
O213 O 0.51106 0.55688 -0.0014 0.0
O214 O 0.53928 0.52241 0.12614 0.0
O215 O 0.48909 0.52903 0.08318 0.0
O216 O 0.47007 0.57046 0.94868 0.0
O217 O 0.43475 0.51067 0.0103 0.0
O218 O 0.59713 0.52155 0.08613 0.0
O219 O 0.50788 0.48884 0.98986 0.0
O220 O 0.47992 0.52398 0.8619 0.0
O221 O 0.52892 0.51437 0.90408 0.0
O222 O 0.54928 0.47633 0.04489 0.0
O223 O 0.58146 0.52961 0.97176 0.0
C224 C 0.49972 0.58348 0.98261 0.0
C225 C 0.38068 0.49869 0.92702 0.0
C226 C 0.32848 0.48751 0.92418 0.0
C227 C 0.36006 0.50757 0.95478 0.0
C228 C 0.31821 0.4594 0.86475 0.0
C229 C 0.36924 0.46999 0.86883 0.0
C230 C 0.33838 0.4507 0.83794 0.0
C231 C 0.51542 0.52702 0.13708 0.0
C232 C 0.41358 0.51979 0.95498 0.0
C233 C 0.40572 0.37794 0.78552 0.0
C234 C 0.41305 0.36856 0.8563 0.0
C235 C 0.51974 0.46282 0.00931 0.0
C236 C 0.63618 0.5451 0.04735 0.0
C237 C 0.65592 0.5318 0.02278 0.0
C238 C 0.68626 0.55258 0.04058 0.0
C239 C 0.69641 0.58616 0.08391 0.0
C240 C 0.64742 0.57869 0.09057 0.0
C241 C 0.67722 0.59897 0.1087 0.0
C242 C 0.50305 0.51746 0.85027 0.0
C243 C 0.6042 0.5242 0.02967 0.0
H244 H 0.36855 0.52962 -0.00016 0.0
H245 H 0.29421 0.4441 0.83792 0.0
H246 H 0.38398 0.46277 0.84579 0.0
H247 H 0.32993 0.42896 0.79227 0.0
H248 H 0.64763 0.50586 0.98947 0.0
H249 H 0.71952 0.60257 0.09924 0.0
H250 H 0.63325 0.58925 0.11107 0.0
H251 H 0.68553 0.62482 0.14234 0.0
H252 H 0.99121 0.5707 0.76108 0.0
H253 H 0.99407 0.57205 0.64071 0.0
H254 H 0.0182 0.47398 0.65208 0.0
H255 H 0.01581 0.47257 0.77203 0.0
H256 H 0.05571 0.52158 0.6131 0.0
H257 H 0.94647 0.47635 0.53805 0.0
H258 H 0.89605 0.47664 0.53677 0.0
H259 H 0.89921 0.57291 0.45119 0.0
H260 H 0.94993 0.57348 0.45311 0.0
H261 H 0.03151 0.47916 0.23268 0.0
H262 H 0.02913 0.478 0.35364 0.0
H263 H 1.00319 0.57504 0.34033 0.0
H264 H 1.00502 0.57618 0.21982 0.0
H265 H 0.96669 0.52807 0.38062 0.0
H266 H 0.07554 0.57359 0.45515 0.0
H267 H 0.12619 0.57403 0.45707 0.0
H268 H 0.12411 0.4782 0.54434 0.0
H269 H 0.07316 0.47688 0.54177 0.0
C270 C 0.99692 0.54931 0.73771 0.0
C271 C 1.00292 0.52134 0.77596 0.0
C272 C 0.99852 0.55011 0.66889 0.0
C273 C 1.00617 0.52299 0.63721 0.0
C274 C 0.01224 0.49516 0.6754 0.0
C275 C 0.01055 0.49427 0.74381 0.0
C276 C 1.00811 0.52358 0.5645 0.0
C277 C 0.03613 0.52256 0.56204 0.0
C278 C 0.98277 0.52561 0.49828 0.0
C279 C 0.95216 0.52515 0.4965 0.0
C280 C 0.93654 0.49773 0.51955 0.0
C281 C 0.90789 0.49772 0.51862 0.0
C282 C 0.89448 0.52483 0.49413 0.0
C283 C 0.90965 0.55196 0.47028 0.0
C284 C 0.93835 0.55213 0.47124 0.0
C285 C 0.02549 0.50035 0.25576 0.0
C286 C 0.0188 0.52793 0.21675 0.0
C287 C 0.02419 0.49969 0.32495 0.0
C288 C 0.01617 0.52657 0.35628 0.0
C289 C 0.00945 0.55404 0.31735 0.0
C290 C 0.01082 0.55477 0.24856 0.0
C291 C 0.01429 0.52602 0.42911 0.0
C292 C 0.98627 0.52706 0.43163 0.0
C293 C 0.03965 0.52409 0.49541 0.0
C294 C 0.07036 0.52493 0.49742 0.0
C295 C 0.08575 0.55244 0.47412 0.0
C296 C 0.11454 0.55288 0.47543 0.0
C297 C 0.12832 0.5261 0.50059 0.0
C298 C 0.11338 0.49889 0.52472 0.0
C299 C 0.08455 0.49829 0.52337 0.0
H300 H 0.15061 0.52649 0.50156 0.0
H301 H 0.87229 0.52477 0.49346 0.0
H302 H 0.54655 0.0735 0.25812 0.0
H303 H 0.54854 0.07183 0.38294 0.0
H304 H 0.47396 0.97697 0.29547 0.0
H305 H 0.47252 0.97768 0.17071 0.0
H306 H 0.46503 0.02837 0.38227 0.0
H307 H 0.543 0.9668 0.41215 0.0
H308 H 0.59064 0.95538 0.41321 0.0
H309 H 0.64444 0.05487 0.55506 0.0
H310 H 0.59714 0.06647 0.55614 0.0
H311 H 0.47481 0.97613 0.72646 0.0
H312 H 0.47343 0.97976 0.60264 0.0
H313 H 0.54946 0.07324 0.69691 0.0
H314 H 0.55052 0.07038 0.82082 0.0
H315 H 0.55809 1.02396 0.6073 0.0
H316 H 0.48075 0.0856 0.57896 0.0
H317 H 0.43348 0.09717 0.58001 0.0
H318 H 0.37885 0.99828 0.43649 0.0
H319 H 0.42576 0.98658 0.43311 0.0
C320 C 0.53084 0.05196 0.26547 0.0
C321 C 0.50962 0.02547 0.20442 0.0
C322 C 0.53205 0.05106 0.33697 0.0
C323 C 0.5117 1.02401 0.34868 0.0
C324 C 0.49003 0.99794 0.28769 0.0
C325 C 0.48912 0.99852 0.21634 0.0
C326 C 0.5119 1.0241 0.42369 0.0
C327 C 0.48522 0.02685 0.43126 0.0
C328 C 0.53853 1.02332 0.48808 0.0
C329 C 0.56657 1.01766 0.48341 0.0
C330 C 0.56497 0.98635 0.44295 0.0
C331 C 0.59194 0.97967 0.44393 0.0
C332 C 0.62054 1.00442 0.48405 0.0
C333 C 0.62226 0.03577 0.52385 0.0
C334 C 0.59542 0.04231 0.52409 0.0
C335 C 0.49105 0.9977 0.72085 0.0
C336 C 0.51259 1.02315 0.78357 0.0
C337 C 0.49014 0.99979 0.64991 0.0
C338 C 0.51104 0.02706 0.64036 0.0
C339 C 0.53297 0.05213 0.70298 0.0
C340 C 0.53365 0.05031 0.77383 0.0
C341 C 0.51117 0.02804 0.56583 0.0
C342 C 0.53791 0.02554 0.55834 0.0
C343 C 0.48463 0.02915 0.50156 0.0
C344 C 0.45673 0.03505 0.50659 0.0
C345 C 0.45868 0.06623 0.54816 0.0
C346 C 0.43193 0.07296 0.5485 0.0
C347 C 0.40321 0.04839 0.5087 0.0
C348 C 0.40113 1.01722 0.46758 0.0
C349 C 0.42774 1.01064 0.46597 0.0
H350 H 0.38256 0.05355 0.50956 0.0
H351 H 0.64136 0.99929 0.48424 0.0
H352 H 0.47628 0.55552 0.74465 0.0
H353 H 0.47868 0.55782 0.62415 0.0
H354 H 0.52774 0.47791 0.66243 0.0
H355 H 0.5269 0.47716 0.78475 0.0
H356 H 0.55478 0.52467 0.61358 0.0
H357 H 0.44636 0.46486 0.5286 0.0
H358 H 0.39348 0.45721 0.51853 0.0
H359 H 0.38898 0.55277 0.43166 0.0
H360 H 0.44188 0.56105 0.44148 0.0
H361 H 0.54266 0.48929 0.24297 0.0
H362 H 0.54063 0.48725 0.36401 0.0
H363 H 0.49116 0.56681 0.32536 0.0
H364 H 0.49159 0.5672 0.20259 0.0
H365 H 0.46441 0.52033 0.37458 0.0
H366 H 0.5725 0.58001 0.45818 0.0
H367 H 0.62521 0.58761 0.46714 0.0
H368 H 0.63049 0.49281 0.5568 0.0
H369 H 0.57771 0.48449 0.5478 0.0
C370 C 0.48719 0.53815 0.72671 0.0
C371 C 0.50134 0.5161 0.77385 0.0
C372 C 0.48848 0.53935 0.6576 0.0
C373 C 0.50305 0.51769 0.63311 0.0
C374 C 0.51647 0.49502 0.67973 0.0
C375 C 0.51586 0.49446 0.74954 0.0
C376 C 0.50564 0.5196 0.56081 0.0
C377 C 0.53487 0.52321 0.56115 0.0
C378 C 0.47999 0.51876 0.49237 0.0
C379 C 0.44817 0.51371 0.4864 0.0
C380 C 0.43416 0.48434 0.50778 0.0
C381 C 0.40417 0.47988 0.50205 0.0
C382 C 0.38794 0.50457 0.47481 0.0
C383 C 0.4016 0.5337 0.45288 0.0
C384 C 0.43154 0.53824 0.45835 0.0
C385 C 0.53171 0.5066 0.26094 0.0
C386 C 0.51729 0.52841 0.21358 0.0
C387 C 0.53065 0.50557 0.33036 0.0
C388 C 0.51605 0.52721 0.35487 0.0
C389 C 0.50243 0.5497 0.30804 0.0
C390 C 0.50278 0.55004 0.23795 0.0
C391 C 0.51355 0.5254 0.4273 0.0
C392 C 0.48433 0.52181 0.427 0.0
C393 C 0.53922 0.52631 0.49576 0.0
C394 C 0.57105 0.53148 0.50167 0.0
C395 C 0.58483 0.56069 0.47938 0.0
C396 C 0.61473 0.56512 0.48451 0.0
C397 C 0.63114 0.54063 0.51223 0.0
C398 C 0.61774 0.51173 0.53522 0.0
C399 C 0.58786 0.50717 0.53024 0.0
H400 H 0.65426 0.5441 0.51608 0.0
H401 H 0.36474 0.50109 0.4705 0.0
H402 H 0.12421 0.54543 0.15351 0.0
H403 H 0.1699 0.53949 0.13697 0.0
H404 H 0.11164 0.4931 0.90496 0.0
H405 H 0.06596 0.4998 0.92082 0.0
H406 H 0.18553 0.48153 0.09271 0.0
H407 H 0.13649 0.51677 0.81714 0.0
H408 H 0.10692 0.55618 0.74767 0.0
H409 H 0.15995 0.63973 0.9364 0.0
H410 H 0.18917 0.60049 0.00754 0.0
H411 H 0.28459 0.43965 0.9448 0.0
H412 H 0.24151 0.44843 0.96769 0.0
H413 H 0.27615 0.55995 0.99208 0.0
H414 H 0.31883 0.55098 0.96381 0.0
H415 H 0.21573 0.54338 0.91456 0.0
H416 H 0.28054 0.51489 0.14734 0.0
H417 H 0.31225 0.48061 0.22938 0.0
H418 H 0.23327 0.39093 0.14487 0.0
H419 H 0.20118 0.42457 0.06184 0.0
C420 C 0.12107 0.53369 0.09904 0.0
C421 C 0.09127 0.52289 0.03875 0.0
C422 C 0.14729 0.5304 0.08957 0.0
C423 C 0.14456 0.51657 0.01928 0.0
C424 C 0.11468 0.50476 0.95933 0.0
C425 C 0.08838 0.50806 0.9688 0.0
C426 C 0.17299 0.51431 0.00955 0.0
C427 C 0.19198 0.49479 0.05326 0.0
C428 C 0.1822 0.53237 0.96002 0.0
C429 C 0.16477 0.55579 0.91746 0.0
C430 C 0.1417 0.54354 0.84369 0.0
C431 C 0.12494 0.56577 0.80426 0.0
C432 C 0.13147 0.60041 0.8378 0.0
C433 C 0.15474 0.61285 0.91084 0.0
C434 C 0.17129 0.5906 0.95082 0.0
C435 C 0.28325 0.46619 0.95492 0.0
C436 C 0.30532 0.49455 0.95149 0.0
C437 C 0.25855 0.47122 0.96903 0.0
C438 C 0.25535 0.50491 0.9828 0.0
C439 C 0.27784 0.53358 0.98172 0.0
C440 C 0.30257 0.52848 0.96649 0.0
C441 C 0.22811 0.50957 -0.00368 0.0
C442 C 0.20937 0.52979 0.95373 0.0
C443 C 0.21932 0.49234 0.04777 0.0
C444 C 0.23854 0.47218 0.09806 0.0
C445 C 0.26999 0.48781 0.14601 0.0
C446 C 0.28802 0.4685 0.19272 0.0
C447 C 0.2748 0.4336 0.19222 0.0
C448 C 0.24349 0.41796 0.14519 0.0
C449 C 0.22536 0.43715 0.09841 0.0
H450 H 0.2888 0.41869 0.22837 0.0
H451 H 0.11858 0.61764 0.80714 0.0
H452 H 0.69883 0.15032 0.08014 0.0
H453 H 0.73816 0.18293 0.04632 0.0
H454 H 0.68782 0.26083 0.98357 0.0
H455 H 0.64783 0.22788 0.01626 0.0
H456 H 0.71751 0.2449 0.88895 0.0
H457 H 0.74004 0.28059 0.14378 0.0
H458 H 0.74467 0.27168 0.26932 0.0
H459 H 0.81575 0.21975 0.29741 0.0
H460 H 0.81111 0.22774 0.17125 0.0
H461 H 0.85872 0.36427 0.92738 0.0
H462 H 0.81045 0.34015 0.93755 0.0
H463 H 0.84544 0.25503 0.0306 0.0
H464 H 0.89403 0.27957 0.02307 0.0
H465 H 0.82018 0.28384 0.11018 0.0
H466 H 0.79269 0.24539 0.84557 0.0
H467 H 0.78634 0.25576 0.71946 0.0
H468 H 0.72387 0.31767 0.71217 0.0
H469 H 0.73017 0.30802 0.83867 0.0
C470 C 0.69564 0.17386 0.05718 0.0
C471 C 0.67052 0.18685 0.05162 0.0
C472 C 0.71816 0.1925 0.0382 0.0
C473 C 0.71594 0.22441 0.01358 0.0
C474 C 0.68983 0.23627 0.00279 0.0
C475 C 0.66727 0.21765 0.02209 0.0
C476 C 0.74268 0.24686 0.00765 0.0
C477 C 0.7399 0.25397 0.93732 0.0
C478 C 0.77165 0.25881 0.07117 0.0
C479 C 0.77505 0.25452 0.14777 0.0
C480 C 0.7565 0.26703 0.17647 0.0
C481 C 0.75914 0.26217 0.24776 0.0
C482 C 0.78045 0.2451 0.29127 0.0
C483 C 0.79924 0.23295 0.26361 0.0
C484 C 0.79663 0.23766 0.19221 0.0
C485 C 0.85611 0.34046 0.95024 0.0
C486 C 0.88006 0.32364 0.97417 0.0
C487 C 0.82849 0.32663 0.95547 0.0
C488 C 0.82436 0.29568 0.98418 0.0
C489 C 0.84821 0.27891 0.00806 0.0
C490 C 0.8758 0.29273 0.00303 0.0
C491 C 0.79546 0.28062 0.99073 0.0
C492 C 0.79778 0.27516 0.06173 0.0
C493 C 0.76607 0.27076 0.92798 0.0
C494 C 0.76213 0.27626 0.85178 0.0
C495 C 0.77776 0.2614 0.81724 0.0
C496 C 0.77415 0.26712 0.74568 0.0
C497 C 0.75477 0.28742 0.70789 0.0
C498 C 0.7389 0.30198 0.74152 0.0
C499 C 0.74247 0.29638 0.81311 0.0
H500 H 0.752 0.29181 0.65249 0.0
H501 H 0.78246 0.24135 0.34646 0.0
H502 H 0.50334 0.90914 0.8766 0.0
H503 H 0.50759 0.84904 0.88313 0.0
H504 H 0.52354 0.8644 0.11446 0.0
H505 H 0.51884 0.92459 0.10716 0.0
H506 H 0.5575 0.823 0.10296 0.0
H507 H 0.45131 0.81589 0.96477 0.0
H508 H 0.40448 0.82574 0.86625 0.0
H509 H 0.42174 0.77378 0.69667 0.0
H510 H 0.46892 0.76399 0.79422 0.0
H511 H 0.5279 0.63442 0.11323 0.0
H512 H 0.53278 0.69732 0.12222 0.0
H513 H 0.50178 0.68689 0.88315 0.0
H514 H 0.49549 0.62394 0.87455 0.0
H515 H 0.47527 0.72746 0.90531 0.0
H516 H 0.59587 0.765 0.06321 0.0
H517 H 0.64406 0.7657 0.17338 0.0
H518 H 0.59598 0.76021 0.31274 0.0
H519 H 0.54803 0.76147 0.20411 0.0
C520 C 0.50893 0.90032 0.92992 0.0
C521 C 0.51252 0.92331 0.99249 0.0
C522 C 0.51075 0.86521 0.9333 0.0
C523 C 0.51561 0.85071 -0.00081 0.0
C524 C 0.51989 0.8739 0.06245 0.0
C525 C 0.51768 0.90899 0.05866 0.0
C526 C 0.5154 0.81169 0.00129 0.0
C527 C 0.53926 0.80226 0.05956 0.0
C528 C 0.49196 0.78339 0.9458 0.0
C529 C 0.46387 0.78957 0.88679 0.0
C530 C 0.44529 0.80686 0.90643 0.0
C531 C 0.41864 0.81236 0.85078 0.0
C532 C 0.41019 0.80049 0.77524 0.0
C533 C 0.42835 0.78302 0.75521 0.0
C534 C 0.45504 0.77747 0.81067 0.0
C535 C 0.52346 0.64567 0.06285 0.0
C536 C 0.51296 0.62329 0.99347 0.0
C537 C 0.52627 0.68247 0.06791 0.0
C538 C 0.51846 0.69905 0.00374 0.0
C539 C 0.50831 0.67643 0.93473 0.0
C540 C 0.50521 0.63982 0.92975 0.0
C541 C 0.51817 0.73838 0.00585 0.0
C542 C 0.49388 0.74802 0.94824 0.0
C543 C 0.54093 0.76688 0.0627 0.0
C544 C 0.56824 0.76193 0.12531 0.0
C545 C 0.59556 0.76348 0.11724 0.0
C546 C 0.62293 0.76419 0.17962 0.0
C547 C 0.62297 0.76252 0.24979 0.0
C548 C 0.59583 0.76104 0.25817 0.0
C549 C 0.56866 0.76141 0.19646 0.0
H550 H 0.64409 0.76257 0.29771 0.0
H551 H 0.38953 0.80473 0.73223 0.0
H552 H 0.89825 0.51037 0.83793 0.0
H553 H 0.85234 0.51433 0.85548 0.0
H554 H 0.90866 0.54355 0.09426 0.0
H555 H 0.95464 0.54165 0.07618 0.0
H556 H 0.82405 0.47686 0.9225 0.0
H557 H 0.88729 0.5729 0.17164 0.0
H558 H 0.92454 0.63013 0.23922 0.0
H559 H 0.89102 0.67317 0.03738 0.0
H560 H 0.85495 0.61565 0.96802 0.0
H561 H 0.70887 0.49428 0.0647 0.0
H562 H 0.75352 0.48408 0.04668 0.0
H563 H 0.75873 0.5759 0.94433 0.0
H564 H 0.71464 0.58603 0.96232 0.0
H565 H 0.81354 0.57881 0.05825 0.0
H566 H 0.73504 0.49113 0.84573 0.0
H567 H 0.69263 0.43694 0.78523 0.0
H568 H 0.75137 0.37765 0.91844 0.0
H569 H 0.79395 0.43159 0.98079 0.0
C570 C 0.90096 0.51871 0.89398 0.0
C571 C 0.93034 0.52629 0.95535 0.0
C572 C 0.87458 0.52069 0.90417 0.0
C573 C 0.87659 0.52985 0.97626 0.0
C574 C 0.90612 0.53785 0.03766 0.0
C575 C 0.93265 0.53652 0.02729 0.0
C576 C 0.84755 0.529 0.98641 0.0
C577 C 0.8219 0.4992 0.95258 0.0
C578 C 0.84423 0.55748 0.02652 0.0
C579 C 0.86921 0.58995 0.06443 0.0
C580 C 0.88862 0.59439 0.14141 0.0
C581 C 0.90944 0.62684 0.18002 0.0
C582 C 0.91016 0.65527 0.14264 0.0
C583 C 0.89059 0.65107 0.06618 0.0
C584 C 0.87039 0.61843 0.0269 0.0
C585 C 0.719 0.5116 0.0363 0.0
C586 C 0.70816 0.541 0.01499 0.0
C587 C 0.74467 0.50587 0.02632 0.0
C588 C 0.75988 0.52937 -0.00544 0.0
C589 C 0.74778 0.55748 0.9695 0.0
C590 C 0.72237 0.56317 0.97945 0.0
C591 C 0.78985 0.52718 0.99282 0.0
C592 C 0.81569 0.55633 0.02854 0.0
C593 C 0.79333 0.49778 0.95574 0.0
C594 C 0.76757 0.46549 0.91858 0.0
C595 C 0.73881 0.46661 0.86276 0.0
C596 C 0.71475 0.43591 0.82802 0.0
C597 C 0.71927 0.40389 0.84815 0.0
C598 C 0.74786 0.40248 0.90303 0.0
C599 C 0.77196 0.43311 0.93809 0.0
H600 H 0.70064 0.38015 0.82108 0.0
H601 H 0.92591 0.68055 0.17287 0.0
H602 H 0.16014 0.67929 0.03653 0.0
H603 H 0.20411 0.70567 0.01237 0.0
H604 H 0.18619 0.80645 0.03409 0.0
H605 H 0.13981 0.77956 0.04691 0.0
H606 H 0.19561 0.79988 0.92175 0.0
H607 H 0.24998 0.77577 0.17271 0.0
H608 H 0.26267 0.7375 0.26748 0.0
H609 H 0.2912 0.67629 0.13467 0.0
H610 H 0.27836 0.71396 0.03878 0.0
H611 H 0.33217 0.91509 0.96693 0.0
H612 H 0.30268 0.87782 0.02116 0.0
H613 H 0.29567 0.7867 0.87796 0.0
H614 H 0.32462 0.82398 0.82234 0.0
H615 H 0.30141 0.78402 0.04864 0.0
H616 H 0.24193 0.80619 0.79433 0.0
H617 H 0.23177 0.84679 0.70403 0.0
H618 H 0.21396 0.91365 0.85164 0.0
H619 H 0.22476 0.87376 0.94357 0.0
C620 C 0.16509 0.70694 0.03454 0.0
C621 C 0.14586 0.72705 0.04252 0.0
C622 C 0.19085 0.7222 0.02263 0.0
C623 C 0.19882 0.75822 0.0223 0.0
C624 C 0.18053 0.77856 0.03384 0.0
C625 C 0.15413 0.76313 0.04251 0.0
C626 C 0.22474 0.77481 0.00479 0.0
C627 C 0.21873 0.79654 0.95056 0.0
C628 C 0.25485 0.76975 0.04008 0.0
C629 C 0.26299 0.74751 0.09836 0.0
C630 C 0.25884 0.75406 0.16362 0.0
C631 C 0.26606 0.73248 0.21752 0.0
C632 C 0.27767 0.70444 0.20703 0.0
C633 C 0.28218 0.698 0.14272 0.0
C634 C 0.27498 0.71947 0.08864 0.0
C635 C 0.32512 0.88701 0.94877 0.0
C636 C 0.32998 0.87225 0.88973 0.0
C637 C 0.30856 0.86581 0.98006 0.0
C638 C 0.29715 0.82968 0.9533 0.0
C639 C 0.3046 0.81454 0.89951 0.0
C640 C 0.3207 0.8358 0.86725 0.0
C641 C 0.27203 0.80955 0.9685 0.0
C642 C 0.27815 0.7871 0.0209 0.0
C643 C 0.24197 0.81396 0.93224 0.0
C644 C 0.23447 0.83726 0.876 0.0
C645 C 0.23609 0.8297 0.80771 0.0
C646 C 0.23021 0.85256 0.75626 0.0
C647 C 0.2223 0.88283 0.77216 0.0
C648 C 0.22015 0.89023 0.83945 0.0
C649 C 0.22616 0.86752 0.89125 0.0
H650 H 0.21776 0.90051 0.73228 0.0
H651 H 0.28321 0.68775 0.24878 0.0
H652 H 0.52805 0.42381 0.11974 0.0
H653 H 0.52421 0.36151 0.1133 0.0
H654 H 0.48263 0.34751 0.87178 0.0
H655 H 0.48922 0.41087 0.87945 0.0
H656 H 0.49256 0.30406 0.08444 0.0
H657 H 0.4837 0.27174 0.78557 0.0
H658 H 0.50212 0.30004 0.69936 0.0
H659 H 0.57799 0.37189 0.88624 0.0
H660 H 0.56021 0.34378 0.97354 0.0
H661 H 0.48905 0.12218 0.0721 0.0
H662 H 0.478 0.1782 0.0567 0.0
H663 H 0.52987 0.19454 0.92464 0.0
H664 H 0.53285 0.1348 0.92455 0.0
H665 H 0.51226 0.23913 0.89548 0.0
H666 H 0.54214 0.23864 0.16833 0.0
H667 H 0.53554 0.21573 0.27506 0.0
H668 H 0.44021 0.21818 0.1773 0.0
H669 H 0.44634 0.24117 0.07033 0.0
C670 C 0.51726 0.40742 0.06484 0.0
C671 C 0.5074 0.42312 0.00018 0.0
C672 C 0.51519 0.37112 0.06102 0.0
C673 C 0.50346 0.348 0.99202 0.0
C674 C 0.49277 0.36354 0.92676 0.0
C675 C 0.49558 0.40025 0.93085 0.0
C676 C 0.50317 0.30861 0.98991 0.0
C677 C 0.49733 0.29022 0.04327 0.0
C678 C 0.50962 0.28889 0.93804 0.0
C679 C 0.52036 0.30594 0.88588 0.0
C680 C 0.50432 0.29355 0.8082 0.0
C681 C 0.51465 0.30956 0.75918 0.0
C682 C 0.54113 0.33784 0.78729 0.0
C683 C 0.55741 0.35009 0.86452 0.0
C684 C 0.5472 0.33415 0.91377 0.0
C685 C 0.49577 0.1367 0.03465 0.0
C686 C 0.50892 0.12149 0.99336 0.0
C687 C 0.49144 0.17094 0.02978 0.0
C688 C 0.50412 0.19444 0.99211 0.0
C689 C 0.51859 0.17917 0.95339 0.0
C690 C 0.52042 0.14392 0.9531 0.0
C691 C 0.50313 0.23394 0.99292 0.0
C692 C 0.50833 0.25255 0.93846 0.0
C693 C 0.4981 0.25461 0.04699 0.0
C694 C 0.49459 0.24115 0.11125 0.0
C695 C 0.51982 0.23426 0.16982 0.0
C696 C 0.51615 0.22128 0.23024 0.0
C697 C 0.48745 0.21539 0.23279 0.0
C698 C 0.4624 0.22269 0.1752 0.0
C699 C 0.46596 0.23576 0.11481 0.0
H700 H 0.48463 0.20523 0.27947 0.0
H701 H 0.54908 0.3502 0.74924 0.0
loop_
_geom_bond_atom_site_label_1
_geom_bond_atom_site_label_2
_geom_bond_distance
_geom_bond_site_symmetry_2
_ccdc_geom_bond_type
Eu0 N31 2.657 1_656 S
Eu0 N38 2.609 . S
Eu0 O44 2.558 . S
Eu0 O45 2.613 . S
Eu0 O47 2.338 1_556 S
Eu0 O48 2.563 . S
Eu0 O49 2.419 1_556 S
Eu0 O51 2.380 1_656 S
Eu0 O52 2.432 . S
Eu0 C64 2.848 . S
C1 C4 1.429 . S
C1 C5 1.411 . S
C1 N8 1.377 1_655 S
C2 C4 1.420 1_556 S
C2 C6 1.423 1_556 S
C2 C14 1.392 . S
C3 C5 1.420 . S
C3 C6 1.351 . S
C3 H26 0.931 . S
C4 C1 1.429 . S
C4 C2 1.420 1_554 S
C4 N12 1.362 1_554 S
C5 C1 1.411 . S
C5 C3 1.420 . S
C5 C10 1.395 1_655 S
C6 C2 1.423 1_554 S
C6 C3 1.351 . S
C6 H18 0.930 1_554 S
C7 C9 1.400 . S
C7 C10 1.386 . S
C7 H19 0.930 . S
N8 C1 1.377 1_455 S
N8 C9 1.321 . S
N8 Eu11 2.609 . S
C9 C7 1.400 . S
C9 N8 1.321 . S
C9 H16 0.930 . S
C10 C5 1.395 1_455 S
C10 C7 1.386 . S
C10 H29 0.930 . S
Eu11 N8 2.609 . S
Eu11 N12 2.657 1_454 S
Eu11 O45 2.381 1_454 S
Eu11 O46 2.432 . S
Eu11 O50 2.558 . S
Eu11 O51 2.612 . S
Eu11 O53 2.339 1_554 S
Eu11 O54 2.563 . S
Eu11 O55 2.419 1_554 S
Eu11 C75 2.848 . S
N12 C4 1.362 1_556 S
N12 Eu11 2.657 1_656 S
N12 C13 1.334 . S
C13 N12 1.334 . S
C13 C15 1.413 . S
C13 H20 0.929 . S
C14 C2 1.392 . S
C14 C15 1.367 . S
C14 H22 0.930 . S
C15 C13 1.413 . S
C15 C14 1.367 . S
C15 H17 0.930 . S
H16 C9 0.930 . S
H17 C15 0.930 . S
H18 C6 0.930 1_556 S
H19 C7 0.930 . S
H20 C13 0.929 . S
H21 C35 0.930 . S
H22 C14 0.930 . S
H23 C41 0.930 . S
H24 C32 0.929 . S
H25 C39 0.930 . S
H26 C3 0.931 . S
H27 C33 0.930 . S
H28 C66 0.930 1_554 S
H29 C10 0.930 . S
H30 C65 0.931 . S
N31 Eu0 2.657 1_454 S
N31 C32 1.334 . S
N31 C36 1.362 1_554 S
C32 H24 0.929 . S
C32 N31 1.334 . S
C32 C35 1.413 . S
C33 H27 0.930 . S
C33 C34 1.392 . S
C33 C35 1.367 . S
C34 C33 1.392 . S
C34 C36 1.420 1_554 S
C34 C66 1.423 1_554 S
C35 H21 0.930 . S
C35 C32 1.413 . S
C35 C33 1.367 . S
C36 N31 1.362 1_556 S
C36 C34 1.420 1_556 S
C36 C40 1.429 . S
H37 C42 0.930 . S
N38 Eu0 2.609 . S
N38 C40 1.377 1_655 S
N38 C41 1.321 . S
C39 H25 0.930 . S
C39 C41 1.400 . S
C39 C42 1.386 . S
C40 C36 1.429 . S
C40 N38 1.377 1_455 S
C40 C43 1.411 . S
C41 H23 0.930 . S
C41 N38 1.321 . S
C41 C39 1.400 . S
C42 H37 0.930 . S
C42 C39 1.386 . S
C42 C43 1.395 1_655 S
C43 C40 1.411 . S
C43 C42 1.395 1_455 S
C43 C65 1.420 . S
O44 Eu0 2.558 . S
O44 C64 1.257 . S
O45 Eu0 2.613 . S
O45 Eu11 2.381 1_656 S
O45 C56 1.275 . S
O46 Eu11 2.432 . S
O46 C63 1.264 . S
O47 Eu0 2.338 1_554 S
O47 C63 1.254 1_655 S
O48 Eu0 2.563 . S
O48 C56 1.235 . S
O49 Eu0 2.419 1_554 S
O49 C64 1.249 1_554 S
O50 Eu11 2.558 . S
O50 C75 1.257 . S
O51 Eu0 2.380 1_454 S
O51 Eu11 2.612 . S
O51 C67 1.276 . S
O52 Eu0 2.432 . S
O52 C74 1.264 . S
O53 Eu11 2.339 1_556 S
O53 C74 1.254 1_455 S
O54 Eu11 2.563 . S
O54 C67 1.235 . S
O55 Eu11 2.419 1_556 S
O55 C75 1.249 1_556 S
C56 O45 1.275 . S
C56 O48 1.235 . S
C57 C59 1.393 . S
C57 C61 1.395 . S
C57 C64 1.492 . S
C58 C59 1.392 . S
C58 C60 1.386 . S
C59 C57 1.393 . S
C59 C58 1.392 . S
C59 H76 0.930 1_556 S
C60 C58 1.386 . S
C60 C62 1.395 . S
C60 H77 0.930 . S
C61 C57 1.395 . S
C61 C62 1.379 . S
C61 H78 0.930 . S
C62 C60 1.395 . S
C62 C61 1.379 . S
C62 H79 0.930 . S
C63 O46 1.264 . S
C63 O47 1.254 1_455 S
C64 Eu0 2.848 . S
C64 O44 1.257 . S
C64 O49 1.249 1_556 S
C64 C57 1.492 . S
C65 H30 0.931 . S
C65 C43 1.420 . S
C65 C66 1.351 . S
C66 H28 0.930 1_556 S
C66 C34 1.423 1_556 S
C66 C65 1.351 . S
C67 O51 1.276 . S
C67 O54 1.235 . S
C68 C69 1.393 . S
C68 C72 1.395 . S
C68 C75 1.492 . S
C69 C68 1.393 . S
C69 C70 1.392 . S
C69 H80 0.930 1_554 S
C70 C69 1.392 . S
C70 C71 1.386 . S
C71 C70 1.386 . S
C71 C73 1.395 . S
C71 H81 0.930 . S
C72 C68 1.395 . S
C72 C73 1.379 . S
C72 H82 0.930 . S
C73 C71 1.395 . S
C73 C72 1.379 . S
C73 H83 0.930 . S
C74 O52 1.264 . S
C74 O53 1.254 1_655 S
C75 Eu11 2.848 . S
C75 O50 1.257 . S
C75 O55 1.249 1_554 S
C75 C68 1.492 . S
H76 C59 0.930 1_554 S
H77 C60 0.930 . S
H78 C61 0.930 . S
H79 C62 0.930 . S
H80 C69 0.930 1_556 S
H81 C71 0.930 . S
H82 C72 0.930 . S
H83 C73 0.930 . S
Eu84 N115 2.657 1_545 S
Eu84 N122 2.609 1_545 S
Eu84 O128 2.558 . S
Eu84 O129 2.612 1_554 S
Eu84 O131 2.339 1_554 S
Eu84 O132 2.563 . S
Eu84 O133 2.419 . S
Eu84 O135 2.380 1_545 S
Eu84 O136 2.432 . S
Eu84 C148 2.848 . S
C85 C88 1.429 . S
C85 C89 1.411 . S
C85 N92 1.377 . S
C86 C88 1.420 . S
C86 C90 1.423 . S
C86 C98 1.392 1_556 S
C87 C89 1.420 . S
C87 C90 1.351 . S
C87 H110 0.931 . S
C88 C85 1.429 . S
C88 C86 1.420 . S
C88 N96 1.362 . S
C89 C85 1.411 . S
C89 C87 1.420 . S
C89 C94 1.395 . S
C90 C86 1.423 . S
C90 C87 1.351 . S
C90 H102 0.930 . S
C91 C93 1.400 . S
C91 C94 1.386 1_565 S
C91 H103 0.930 . S
N92 C85 1.377 . S
N92 C93 1.321 1_545 S
N92 Eu95 2.609 1_545 S
C93 C91 1.400 . S
C93 N92 1.321 1_565 S
C93 H100 0.930 . S
C94 C89 1.395 . S
C94 C91 1.386 1_545 S
C94 H113 0.930 . S
Eu95 N92 2.609 1_565 S
Eu95 N96 2.657 1_565 S
Eu95 O129 2.380 1_565 S
Eu95 O130 2.432 . S
Eu95 O134 2.558 . S
Eu95 O135 2.612 1_556 S
Eu95 O137 2.339 1_556 S
Eu95 O138 2.563 . S
Eu95 O139 2.419 . S
Eu95 C159 2.848 . S
N96 C88 1.362 . S
N96 Eu95 2.657 1_545 S
N96 C97 1.334 1_556 S
C97 N96 1.334 1_554 S
C97 C99 1.413 . S
C97 H104 0.929 . S
C98 C86 1.392 1_554 S
C98 C99 1.367 . S
C98 H106 0.930 . S
C99 C97 1.413 . S
C99 C98 1.367 . S
C99 H101 0.930 . S
H100 C93 0.930 . S
H101 C99 0.930 . S
H102 C90 0.930 . S
H103 C91 0.930 . S
H104 C97 0.929 . S
H105 C119 0.930 . S
H106 C98 0.930 . S
H107 C125 0.930 . S
H108 C116 0.929 . S
H109 C123 0.930 . S
H110 C87 0.931 . S
H111 C117 0.930 . S
H112 C150 0.930 . S
H113 C94 0.930 . S
H114 C149 0.931 . S
N115 Eu84 2.657 1_565 S
N115 C116 1.334 1_554 S
N115 C120 1.362 . S
C116 H108 0.929 . S
C116 N115 1.334 1_556 S
C116 C119 1.413 . S
C117 H111 0.930 . S
C117 C118 1.392 1_556 S
C117 C119 1.367 . S
C118 C117 1.392 1_554 S
C118 C120 1.420 . S
C118 C150 1.423 . S
C119 H105 0.930 . S
C119 C116 1.413 . S
C119 C117 1.367 . S
C120 N115 1.362 . S
C120 C118 1.420 . S
C120 C124 1.429 . S
H121 C126 0.930 . S
N122 Eu84 2.609 1_565 S
N122 C124 1.377 . S
N122 C125 1.321 1_565 S
C123 H109 0.930 . S
C123 C125 1.400 . S
C123 C126 1.386 1_545 S
C124 C120 1.429 . S
C124 N122 1.377 . S
C124 C127 1.411 . S
C125 H107 0.930 . S
C125 N122 1.321 1_545 S
C125 C123 1.400 . S
C126 H121 0.930 . S
C126 C123 1.386 1_565 S
C126 C127 1.395 . S
C127 C124 1.411 . S
C127 C126 1.395 . S
C127 C149 1.420 . S
O128 Eu84 2.558 . S
O128 C148 1.257 . S
O129 Eu84 2.612 1_556 S
O129 Eu95 2.380 1_545 S
O129 C140 1.276 . S
O130 Eu95 2.432 . S
O130 C147 1.259 1_565 S
O131 Eu84 2.339 1_556 S
O131 C147 1.252 . S
O132 Eu84 2.563 . S
O132 C140 1.235 1_554 S
O133 Eu84 2.419 . S
O133 C148 1.249 . S
O134 Eu95 2.558 . S
O134 C159 1.257 . S
O135 Eu84 2.380 1_565 S
O135 Eu95 2.612 1_554 S
O135 C151 1.276 . S
O136 Eu84 2.432 . S
O136 C158 1.262 1_545 S
O137 Eu95 2.339 1_554 S
O137 C158 1.253 . S
O138 Eu95 2.563 . S
O138 C151 1.235 1_556 S
O139 Eu95 2.419 . S
O139 C159 1.249 . S
C140 O129 1.276 . S
C140 O132 1.235 1_556 S
C141 C143 1.393 . S
C141 C145 1.395 . S
C141 C148 1.492 . S
C142 C143 1.392 . S
C142 C144 1.386 . S
C143 C141 1.393 . S
C143 C142 1.392 . S
C143 H160 0.930 1_554 S
C144 C142 1.386 . S
C144 C146 1.395 . S
C144 H161 0.930 . S
C145 C141 1.395 . S
C145 C146 1.379 . S
C145 H162 0.930 . S
C146 C144 1.395 . S
C146 C145 1.379 . S
C146 H163 0.930 . S
C147 O130 1.259 1_545 S
C147 O131 1.252 . S
C148 Eu84 2.848 . S
C148 O128 1.257 . S
C148 O133 1.249 . S
C148 C141 1.492 . S
C149 H114 0.931 . S
C149 C127 1.420 . S
C149 C150 1.351 . S
C150 H112 0.930 . S
C150 C118 1.423 . S
C150 C149 1.351 . S
C151 O135 1.276 . S
C151 O138 1.235 1_554 S
C152 C153 1.393 . S
C152 C156 1.395 . S
C152 C159 1.492 . S
C153 C152 1.393 . S
C153 C154 1.392 . S
C153 H164 0.930 1_556 S
C154 C153 1.392 . S
C154 C155 1.386 . S
C155 C154 1.386 . S
C155 C157 1.395 . S
C155 H165 0.930 . S
C156 C152 1.395 . S
C156 C157 1.379 . S
C156 H166 0.930 . S
C157 C155 1.395 . S
C157 C156 1.379 . S
C157 H167 0.930 . S
C158 O136 1.262 1_565 S
C158 O137 1.253 . S
C159 Eu95 2.848 . S
C159 O134 1.257 . S
C159 O139 1.249 . S
C159 C152 1.492 . S
H160 C143 0.930 1_556 S
H161 C144 0.930 . S
H162 C145 0.930 . S
H163 C146 0.930 . S
H164 C153 0.930 1_554 S
H165 C155 0.930 . S
H166 C156 0.930 . S
H167 C157 0.930 . S
Eu168 N199 2.657 . S
Eu168 N206 2.609 . S
Eu168 O212 2.558 . S
Eu168 O213 2.612 1_556 S
Eu168 O215 2.339 1_556 S
Eu168 O216 2.563 . S
Eu168 O217 2.419 . S
Eu168 O219 2.380 . S
Eu168 O220 2.432 . S
Eu168 C232 2.848 . S
C169 C172 1.429 . S
C169 C173 1.411 . S
C169 N176 1.377 . S
C170 C172 1.420 . S
C170 C174 1.423 . S
C170 C182 1.392 1_554 S
C171 C173 1.420 . S
C171 C174 1.351 . S
C171 H194 0.931 . S
C172 C169 1.429 . S
C172 C170 1.420 . S
C172 N180 1.362 . S
C173 C169 1.411 . S
C173 C171 1.420 . S
C173 C178 1.395 . S
C174 C170 1.423 . S
C174 C171 1.351 . S
C174 H186 0.930 . S
C175 C177 1.400 . S
C175 C178 1.386 . S
C175 H187 0.930 . S
N176 C169 1.377 . S
N176 C177 1.321 . S
N176 Eu179 2.609 . S
C177 C175 1.400 . S
C177 N176 1.321 . S
C177 H184 0.930 . S
C178 C173 1.395 . S
C178 C175 1.386 . S
C178 H197 0.930 . S
Eu179 N176 2.609 . S
Eu179 N180 2.657 . S
Eu179 O213 2.380 . S
Eu179 O214 2.432 . S
Eu179 O218 2.558 . S
Eu179 O219 2.612 1_554 S
Eu179 O221 2.339 1_554 S
Eu179 O222 2.563 . S
Eu179 O223 2.419 . S
Eu179 C243 2.848 . S
N180 C172 1.362 . S
N180 Eu179 2.657 . S
N180 C181 1.334 1_554 S
C181 N180 1.334 1_556 S
C181 C183 1.413 . S
C181 H188 0.929 . S
C182 C170 1.392 1_556 S
C182 C183 1.367 . S
C182 H190 0.930 . S
C183 C181 1.413 . S
C183 C182 1.367 . S
C183 H185 0.930 . S
H184 C177 0.930 . S
H185 C183 0.930 . S
H186 C174 0.930 . S
H187 C175 0.930 . S
H188 C181 0.929 . S
H189 C203 0.930 . S
H190 C182 0.930 . S
H191 C209 0.930 . S
H192 C200 0.929 . S
H193 C207 0.930 . S
H194 C171 0.931 . S
H195 C201 0.930 . S
H196 C234 0.930 . S
H197 C178 0.930 . S
H198 C233 0.931 . S
N199 Eu168 2.657 . S
N199 C200 1.334 1_556 S
N199 C204 1.362 . S
C200 H192 0.929 . S
C200 N199 1.334 1_554 S
C200 C203 1.413 . S
C201 H195 0.930 . S
C201 C202 1.392 1_554 S
C201 C203 1.367 . S
C202 C201 1.392 1_556 S
C202 C204 1.420 . S
C202 C234 1.423 . S
C203 H189 0.930 . S
C203 C200 1.413 . S
C203 C201 1.367 . S
C204 N199 1.362 . S
C204 C202 1.420 . S
C204 C208 1.429 . S
H205 C210 0.930 . S
N206 Eu168 2.609 . S
N206 C208 1.377 . S
N206 C209 1.321 . S
C207 H193 0.930 . S
C207 C209 1.400 . S
C207 C210 1.386 . S
C208 C204 1.429 . S
C208 N206 1.377 . S
C208 C211 1.411 . S
C209 H191 0.930 . S
C209 N206 1.321 . S
C209 C207 1.400 . S
C210 H205 0.930 . S
C210 C207 1.386 . S
C210 C211 1.395 . S
C211 C208 1.411 . S
C211 C210 1.395 . S
C211 C233 1.420 . S
O212 Eu168 2.558 . S
O212 C232 1.257 . S
O213 Eu168 2.612 1_554 S
O213 Eu179 2.380 . S
O213 C224 1.276 . S
O214 Eu179 2.432 . S
O214 C231 1.264 . S
O215 Eu168 2.339 1_554 S
O215 C231 1.254 . S
O216 Eu168 2.563 . S
O216 C224 1.235 1_556 S
O217 Eu168 2.419 . S
O217 C232 1.249 . S
O218 Eu179 2.558 . S
O218 C243 1.257 . S
O219 Eu168 2.380 . S
O219 Eu179 2.612 1_556 S
O219 C235 1.276 . S
O220 Eu168 2.432 . S
O220 C242 1.264 . S
O221 Eu179 2.339 1_556 S
O221 C242 1.254 . S
O222 Eu179 2.563 . S
O222 C235 1.235 1_554 S
O223 Eu179 2.419 . S
O223 C243 1.249 . S
C224 O213 1.276 . S
C224 O216 1.235 1_554 S
C225 C227 1.393 . S
C225 C229 1.395 . S
C225 C232 1.492 . S
C226 C227 1.392 . S
C226 C228 1.386 . S
C227 C225 1.393 . S
C227 C226 1.392 . S
C227 H244 0.930 1_556 S
C228 C226 1.386 . S
C228 C230 1.395 . S
C228 H245 0.930 . S
C229 C225 1.395 . S
C229 C230 1.379 . S
C229 H246 0.930 . S
C230 C228 1.395 . S
C230 C229 1.379 . S
C230 H247 0.930 . S
C231 O214 1.264 . S
C231 O215 1.254 . S
C232 Eu168 2.848 . S
C232 O212 1.257 . S
C232 O217 1.249 . S
C232 C225 1.492 . S
C233 H198 0.931 . S
C233 C211 1.420 . S
C233 C234 1.351 . S
C234 H196 0.930 . S
C234 C202 1.423 . S
C234 C233 1.351 . S
C235 O219 1.276 . S
C235 O222 1.235 1_556 S
C236 C237 1.393 . S
C236 C240 1.395 . S
C236 C243 1.492 . S
C237 C236 1.393 . S
C237 C238 1.392 . S
C237 H248 0.930 1_554 S
C238 C237 1.392 . S
C238 C239 1.386 . S
C239 C238 1.386 . S
C239 C241 1.395 . S
C239 H249 0.930 . S
C240 C236 1.395 . S
C240 C241 1.379 . S
C240 H250 0.930 . S
C241 C239 1.395 . S
C241 C240 1.379 . S
C241 H251 0.930 . S
C242 O220 1.264 . S
C242 O221 1.254 . S
C243 Eu179 2.848 . S
C243 O218 1.257 . S
C243 O223 1.249 . S
C243 C236 1.492 . S
H244 C227 0.930 1_554 S
H245 C228 0.930 . S
H246 C229 0.930 . S
H247 C230 0.930 . S
H248 C237 0.930 1_556 S
H249 C239 0.930 . S
H250 C240 0.930 . S
H251 C241 0.930 . S
H252 C270 0.951 . S
H253 C272 0.951 . S
H254 C274 0.950 . S
H255 C275 0.950 . S
H256 C277 0.950 . S
H257 C280 0.950 . S
H258 C281 0.950 . S
H259 C283 0.950 . S
H260 C284 0.950 . S
H261 C285 0.951 . S
H262 C287 0.951 . S
H263 C289 0.950 . S
H264 C290 0.950 . S
H265 C292 0.950 . S
H266 C295 0.950 . S
H267 C296 0.950 . S
H268 C298 0.950 . S
H269 C299 0.950 . S
C270 H252 0.951 . S
C270 C271 1.368 . S
C270 C272 1.388 . S
C271 C270 1.368 . S
C271 C275 1.378 1_655 S
C272 H253 0.951 . S
C272 C270 1.388 . S
C272 C273 1.366 . S
C273 C272 1.366 . S
C273 C274 1.414 1_655 S
C273 C276 1.506 . S
C274 H254 0.950 . S
C274 C273 1.414 1_455 S
C274 C275 1.374 . S
C275 H255 0.950 . S
C275 C271 1.378 1_455 S
C275 C274 1.374 . S
C276 C273 1.506 . S
C276 C277 1.356 1_655 S
C276 C278 1.398 . S
C277 H256 0.950 . S
C277 C276 1.356 1_455 S
C277 C293 1.377 . S
C278 C276 1.398 . S
C278 C279 1.524 . S
C278 C292 1.377 . S
C279 C278 1.524 . S
C279 C280 1.397 . S
C279 C284 1.363 . S
C280 H257 0.950 . S
C280 C279 1.397 . S
C280 C281 1.334 . S
C281 H258 0.950 . S
C281 C280 1.334 . S
C281 C282 1.287 . S
C282 C281 1.287 . S
C282 C283 1.524 . S
C282 H301 0.913 . S
C283 H259 0.950 . S
C283 C282 1.524 . S
C283 C284 1.415 . S
C284 H260 0.950 . S
C284 C279 1.363 . S
C284 C283 1.415 . S
C285 H261 0.951 . S
C285 C286 1.366 . S
C285 C287 1.388 . S
C286 C285 1.366 . S
C286 C290 1.385 1_455 S
C287 H262 0.951 . S
C287 C285 1.388 . S
C287 C288 1.366 . S
C288 C287 1.366 . S
C288 C289 1.414 1_455 S
C288 C291 1.499 . S
C289 H263 0.950 . S
C289 C288 1.414 1_655 S
C289 C290 1.374 . S
C290 H264 0.950 . S
C290 C286 1.385 1_655 S
C290 C289 1.374 . S
C291 C288 1.499 . S
C291 C292 1.373 1_455 S
C291 C293 1.389 . S
C292 H265 0.950 . S
C292 C278 1.377 . S
C292 C291 1.373 1_655 S
C293 C277 1.377 . S
C293 C291 1.389 . S
C293 C294 1.524 . S
C294 C293 1.524 . S
C294 C295 1.397 . S
C294 C299 1.363 . S
C295 H266 0.950 . S
C295 C294 1.397 . S
C295 C296 1.334 . S
C296 H267 0.950 . S
C296 C295 1.334 . S
C296 C297 1.287 . S
C297 C296 1.287 . S
C297 C298 1.524 . S
C297 H300 0.999 . S
C298 H268 0.950 . S
C298 C297 1.524 . S
C298 C299 1.415 . S
C299 H269 0.950 . S
C299 C294 1.363 . S
C299 C298 1.415 . S
H300 C297 0.999 . S
H301 C282 0.913 . S
H302 C320 0.951 . S
H303 C322 0.951 . S
H304 C324 0.950 . S
H305 C325 0.950 . S
H306 C327 0.950 . S
H307 C330 0.950 . S
H308 C331 0.950 . S
H309 C333 0.950 . S
H310 C334 0.950 . S
H311 C335 0.951 . S
H312 C337 0.951 . S
H313 C339 0.950 . S
H314 C340 0.950 . S
H315 C342 0.950 . S
H316 C345 0.950 . S
H317 C346 0.950 . S
H318 C348 0.950 . S
H319 C349 0.950 . S
C320 H302 0.951 . S
C320 C321 1.366 1_545 S
C320 C322 1.388 . S
C321 C320 1.366 1_565 S
C321 C325 1.385 . S
C322 H303 0.951 . S
C322 C320 1.388 . S
C322 C323 1.366 1_545 S
C323 C322 1.366 1_565 S
C323 C324 1.414 . S
C323 C326 1.499 . S
C324 H304 0.950 . S
C324 C323 1.414 . S
C324 C325 1.374 . S
C325 H305 0.950 . S
C325 C321 1.385 . S
C325 C324 1.374 . S
C326 C323 1.499 . S
C326 C327 1.373 . S
C326 C328 1.386 . S
C327 H306 0.950 . S
C327 C326 1.373 . S
C327 C343 1.375 1_565 S
C328 C326 1.386 . S
C328 C329 1.530 . S
C328 C342 1.375 1_565 S
C329 C328 1.530 . S
C329 C330 1.397 . S
C329 C334 1.363 1_565 S
C330 H307 0.950 . S
C330 C329 1.397 . S
C330 C331 1.334 . S
C331 H308 0.950 . S
C331 C330 1.334 . S
C331 C332 1.287 . S
C332 C331 1.287 . S
C332 C333 1.524 1_565 S
C332 H351 0.913 . S
C333 H309 0.950 . S
C333 C332 1.524 1_545 S
C333 C334 1.415 . S
C334 H310 0.950 . S
C334 C329 1.363 1_545 S
C334 C333 1.415 . S
C335 H311 0.951 . S
C335 C336 1.366 1_565 S
C335 C337 1.388 . S
C336 C335 1.366 1_545 S
C336 C340 1.385 . S
C337 H312 0.951 . S
C337 C335 1.388 . S
C337 C338 1.366 1_565 S
C338 C337 1.366 1_545 S
C338 C339 1.414 . S
C338 C341 1.499 . S
C339 H313 0.950 . S
C339 C338 1.414 . S
C339 C340 1.374 . S
C340 H314 0.950 . S
C340 C336 1.385 . S
C340 C339 1.374 . S
C341 C338 1.499 . S
C341 C342 1.373 . S
C341 C343 1.385 . S
C342 H315 0.950 . S
C342 C328 1.375 1_545 S
C342 C341 1.373 . S
C343 C327 1.375 1_545 S
C343 C341 1.385 . S
C343 C344 1.533 . S
C344 C343 1.533 . S
C344 C345 1.397 . S
C344 C349 1.363 1_545 S
C345 H316 0.950 . S
C345 C344 1.397 . S
C345 C346 1.334 . S
C346 H317 0.950 . S
C346 C345 1.334 . S
C346 C347 1.287 . S
C347 C346 1.287 . S
C347 C348 1.524 1_545 S
C347 H350 0.999 . S
C348 H318 0.950 . S
C348 C347 1.524 1_565 S
C348 C349 1.415 . S
C349 H319 0.950 . S
C349 C344 1.363 1_565 S
C349 C348 1.415 . S
H350 C347 0.999 . S
H351 C332 0.913 . S
H352 C370 0.951 . S
H353 C372 0.951 . S
H354 C374 0.950 . S
H355 C375 0.950 . S
H356 C377 0.950 . S
H357 C380 0.950 . S
H358 C381 0.950 . S
H359 C383 0.950 . S
H360 C384 0.950 . S
H361 C385 0.951 . S
H362 C387 0.951 . S
H363 C389 0.950 . S
H364 C390 0.950 . S
H365 C392 0.950 . S
H366 C395 0.950 . S
H367 C396 0.950 . S
H368 C398 0.950 . S
H369 C399 0.950 . S
C370 H352 0.951 . S
C370 C371 1.366 . S
C370 C372 1.388 . S
C371 C370 1.366 . S
C371 C375 1.385 . S
C372 H353 0.951 . S
C372 C370 1.388 . S
C372 C373 1.366 . S
C373 C372 1.366 . S
C373 C374 1.414 . S
C373 C376 1.499 . S
C374 H354 0.950 . S
C374 C373 1.414 . S
C374 C375 1.374 . S
C375 H355 0.950 . S
C375 C371 1.385 . S
C375 C374 1.374 . S
C376 C373 1.499 . S
C376 C377 1.373 . S
C376 C378 1.389 . S
C377 H356 0.950 . S
C377 C376 1.373 . S
C377 C393 1.377 . S
C378 C376 1.389 . S
C378 C379 1.524 . S
C378 C392 1.377 . S
C379 C378 1.524 . S
C379 C380 1.397 . S
C379 C384 1.363 . S
C380 H357 0.950 . S
C380 C379 1.397 . S
C380 C381 1.334 . S
C381 H358 0.950 . S
C381 C380 1.334 . S
C381 C382 1.287 . S
C382 C381 1.287 . S
C382 C383 1.524 . S
C382 H401 0.913 . S
C383 H359 0.950 . S
C383 C382 1.524 . S
C383 C384 1.415 . S
C384 H360 0.950 . S
C384 C379 1.363 . S
C384 C383 1.415 . S
C385 H361 0.951 . S
C385 C386 1.366 . S
C385 C387 1.388 . S
C386 C385 1.366 . S
C386 C390 1.385 . S
C387 H362 0.951 . S
C387 C385 1.388 . S
C387 C388 1.366 . S
C388 C387 1.366 . S
C388 C389 1.414 . S
C388 C391 1.499 . S
C389 H363 0.950 . S
C389 C388 1.414 . S
C389 C390 1.374 . S
C390 H364 0.950 . S
C390 C386 1.385 . S
C390 C389 1.374 . S
C391 C388 1.499 . S
C391 C392 1.373 . S
C391 C393 1.389 . S
C392 H365 0.950 . S
C392 C378 1.377 . S
C392 C391 1.373 . S
C393 C377 1.377 . S
C393 C391 1.389 . S
C393 C394 1.524 . S
C394 C393 1.524 . S
C394 C395 1.397 . S
C394 C399 1.363 . S
C395 H366 0.950 . S
C395 C394 1.397 . S
C395 C396 1.334 . S
C396 H367 0.950 . S
C396 C395 1.334 . S
C396 C397 1.287 . S
C397 C396 1.287 . S
C397 C398 1.524 . S
C397 H400 0.999 . S
C398 H368 0.950 . S
C398 C397 1.524 . S
C398 C399 1.415 . S
C399 H369 0.950 . S
C399 C394 1.363 . S
C399 C398 1.415 . S
H400 C397 0.999 . S
H401 C382 0.913 . S
H402 C420 0.951 . S
H403 C422 0.951 . S
H404 C424 0.950 . S
H405 C425 0.950 . S
H406 C427 0.950 . S
H407 C430 0.950 . S
H408 C431 0.950 . S
H409 C433 0.950 . S
H410 C434 0.950 1_554 S
H411 C435 0.951 . S
H412 C437 0.951 . S
H413 C439 0.950 . S
H414 C440 0.950 . S
H415 C442 0.950 . S
H416 C445 0.950 . S
H417 C446 0.950 . S
H418 C448 0.950 . S
H419 C449 0.950 1_556 S
C420 H402 0.951 . S
C420 C421 1.366 . S
C420 C422 1.388 . S
C421 C420 1.366 . S
C421 C425 1.385 1_554 S
C422 H403 0.951 . S
C422 C420 1.388 . S
C422 C423 1.366 . S
C423 C422 1.366 . S
C423 C424 1.414 1_554 S
C423 C426 1.499 . S
C424 H404 0.950 . S
C424 C423 1.414 1_556 S
C424 C425 1.374 . S
C425 H405 0.950 . S
C425 C421 1.385 1_556 S
C425 C424 1.374 . S
C426 C423 1.499 . S
C426 C427 1.373 . S
C426 C428 1.389 1_554 S
C427 H406 0.950 . S
C427 C426 1.373 . S
C427 C443 1.377 . S
C428 C426 1.389 1_556 S
C428 C429 1.524 . S
C428 C442 1.377 . S
C429 C428 1.524 . S
C429 C430 1.397 . S
C429 C434 1.363 . S
C430 H407 0.950 . S
C430 C429 1.397 . S
C430 C431 1.334 . S
C431 H408 0.950 . S
C431 C430 1.334 . S
C431 C432 1.287 . S
C432 C431 1.287 . S
C432 C433 1.524 . S
C432 H451 0.913 . S
C433 H409 0.950 . S
C433 C432 1.524 . S
C433 C434 1.415 . S
C434 H410 0.950 1_556 S
C434 C429 1.363 . S
C434 C433 1.415 . S
C435 H411 0.951 . S
C435 C436 1.366 . S
C435 C437 1.388 . S
C436 C435 1.366 . S
C436 C440 1.385 1_556 S
C437 H412 0.951 . S
C437 C435 1.388 . S
C437 C438 1.366 1_556 S
C438 C437 1.366 1_554 S
C438 C439 1.414 . S
C438 C441 1.499 . S
C439 H413 0.950 . S
C439 C438 1.414 . S
C439 C440 1.374 . S
C440 H414 0.950 . S
C440 C436 1.385 1_554 S
C440 C439 1.374 . S
C441 C438 1.499 . S
C441 C442 1.373 1_554 S
C441 C443 1.389 . S
C442 H415 0.950 . S
C442 C428 1.377 . S
C442 C441 1.373 1_556 S
C443 C427 1.377 . S
C443 C441 1.389 . S
C443 C444 1.524 . S
C444 C443 1.524 . S
C444 C445 1.397 . S
C444 C449 1.363 . S
C445 H416 0.950 . S
C445 C444 1.397 . S
C445 C446 1.334 . S
C446 H417 0.950 . S
C446 C445 1.334 . S
C446 C447 1.287 . S
C447 C446 1.287 . S
C447 C448 1.524 . S
C447 H450 0.999 . S
C448 H418 0.950 . S
C448 C447 1.524 . S
C448 C449 1.415 . S
C449 H419 0.950 1_554 S
C449 C444 1.363 . S
C449 C448 1.415 . S
H450 C447 0.999 . S
H451 C432 0.913 . S
H452 C470 0.951 . S
H453 C472 0.951 . S
H454 C474 0.950 . S
H455 C475 0.950 . S
H456 C477 0.950 . S
H457 C480 0.950 . S
H458 C481 0.950 . S
H459 C483 0.950 . S
H460 C484 0.950 . S
H461 C485 0.951 . S
H462 C487 0.951 . S
H463 C489 0.950 . S
H464 C490 0.950 . S
H465 C492 0.950 . S
H466 C495 0.950 . S
H467 C496 0.950 . S
H468 C498 0.950 . S
H469 C499 0.950 . S
C470 H452 0.951 . S
C470 C471 1.366 . S
C470 C472 1.388 . S
C471 C470 1.366 . S
C471 C475 1.385 1_554 S
C472 H453 0.951 . S
C472 C470 1.388 . S
C472 C473 1.366 . S
C473 C472 1.366 . S
C473 C474 1.414 1_554 S
C473 C476 1.499 . S
C474 H454 0.950 . S
C474 C473 1.414 1_556 S
C474 C475 1.374 . S
C475 H455 0.950 . S
C475 C471 1.385 1_556 S
C475 C474 1.374 . S
C476 C473 1.499 . S
C476 C477 1.373 1_554 S
C476 C478 1.389 . S
C477 H456 0.950 . S
C477 C476 1.373 1_556 S
C477 C493 1.377 . S
C478 C476 1.389 . S
C478 C479 1.524 . S
C478 C492 1.377 . S
C479 C478 1.524 . S
C479 C480 1.397 . S
C479 C484 1.363 . S
C480 H457 0.950 . S
C480 C479 1.397 . S
C480 C481 1.334 . S
C481 H458 0.950 . S
C481 C480 1.334 . S
C481 C482 1.287 . S
C482 C481 1.287 . S
C482 C483 1.524 . S
C482 H501 0.913 . S
C483 H459 0.950 . S
C483 C482 1.524 . S
C483 C484 1.415 . S
C484 H460 0.950 . S
C484 C479 1.363 . S
C484 C483 1.415 . S
C485 H461 0.951 . S
C485 C486 1.366 1_556 S
C485 C487 1.388 . S
C486 C485 1.366 1_554 S
C486 C490 1.385 . S
C487 H462 0.951 . S
C487 C485 1.388 . S
C487 C488 1.366 1_556 S
C488 C487 1.366 1_554 S
C488 C489 1.414 . S
C488 C491 1.499 . S
C489 H463 0.950 . S
C489 C488 1.414 . S
C489 C490 1.374 . S
C490 H464 0.950 . S
C490 C486 1.385 . S
C490 C489 1.374 . S
C491 C488 1.499 . S
C491 C492 1.373 . S
C491 C493 1.389 1_554 S
C492 H465 0.950 . S
C492 C478 1.377 . S
C492 C491 1.373 . S
C493 C477 1.377 . S
C493 C491 1.389 1_556 S
C493 C494 1.524 . S
C494 C493 1.524 . S
C494 C495 1.397 . S
C494 C499 1.363 . S
C495 H466 0.950 . S
C495 C494 1.397 . S
C495 C496 1.334 . S
C496 H467 0.950 . S
C496 C495 1.334 . S
C496 C497 1.287 . S
C497 C496 1.287 . S
C497 C498 1.524 . S
C497 H500 0.999 . S
C498 H468 0.950 . S
C498 C497 1.524 . S
C498 C499 1.415 . S
C499 H469 0.950 . S
C499 C494 1.363 . S
C499 C498 1.415 . S
H500 C497 0.999 . S
H501 C482 0.913 . S
H502 C520 0.951 . S
H503 C522 0.951 . S
H504 C524 0.950 . S
H505 C525 0.950 . S
H506 C527 0.950 . S
H507 C530 0.950 . S
H508 C531 0.950 . S
H509 C533 0.950 . S
H510 C534 0.950 . S
H511 C535 0.951 . S
H512 C537 0.951 . S
H513 C539 0.950 . S
H514 C540 0.950 . S
H515 C542 0.950 . S
H516 C545 0.950 . S
H517 C546 0.950 . S
H518 C548 0.950 . S
H519 C549 0.950 . S
C520 H502 0.951 . S
C520 C521 1.366 1_556 S
C520 C522 1.388 . S
C521 C520 1.366 1_554 S
C521 C525 1.385 . S
C522 H503 0.951 . S
C522 C520 1.388 . S
C522 C523 1.366 1_556 S
C523 C522 1.366 1_554 S
C523 C524 1.414 . S
C523 C526 1.499 . S
C524 H504 0.950 . S
C524 C523 1.414 . S
C524 C525 1.374 . S
C525 H505 0.950 . S
C525 C521 1.385 . S
C525 C524 1.374 . S
C526 C523 1.499 . S
C526 C527 1.373 . S
C526 C528 1.389 1_554 S
C527 H506 0.950 . S
C527 C526 1.373 . S
C527 C543 1.377 . S
C528 C526 1.389 1_556 S
C528 C529 1.524 . S
C528 C542 1.377 . S
C529 C528 1.524 . S
C529 C530 1.397 . S
C529 C534 1.363 . S
C530 H507 0.950 . S
C530 C529 1.397 . S
C530 C531 1.334 . S
C531 H508 0.950 . S
C531 C530 1.334 . S
C531 C532 1.287 . S
C532 C531 1.287 . S
C532 C533 1.524 . S
C532 H551 0.913 . S
C533 H509 0.950 . S
C533 C532 1.524 . S
C533 C534 1.415 . S
C534 H510 0.950 . S
C534 C529 1.363 . S
C534 C533 1.415 . S
C535 H511 0.951 . S
C535 C536 1.366 . S
C535 C537 1.388 . S
C536 C535 1.366 . S
C536 C540 1.385 1_554 S
C537 H512 0.951 . S
C537 C535 1.388 . S
C537 C538 1.366 . S
C538 C537 1.366 . S
C538 C539 1.414 1_554 S
C538 C541 1.499 . S
C539 H513 0.950 . S
C539 C538 1.414 1_556 S
C539 C540 1.374 . S
C540 H514 0.950 . S
C540 C536 1.385 1_556 S
C540 C539 1.374 . S
C541 C538 1.499 . S
C541 C542 1.373 1_554 S
C541 C543 1.389 . S
C542 H515 0.950 . S
C542 C528 1.377 . S
C542 C541 1.373 1_556 S
C543 C527 1.377 . S
C543 C541 1.389 . S
C543 C544 1.524 . S
C544 C543 1.524 . S
C544 C545 1.397 . S
C544 C549 1.363 . S
C545 H516 0.950 . S
C545 C544 1.397 . S
C545 C546 1.334 . S
C546 H517 0.950 . S
C546 C545 1.334 . S
C546 C547 1.287 . S
C547 C546 1.287 . S
C547 C548 1.524 . S
C547 H550 0.999 . S
C548 H518 0.950 . S
C548 C547 1.524 . S
C548 C549 1.415 . S
C549 H519 0.950 . S
C549 C544 1.363 . S
C549 C548 1.415 . S
H550 C547 0.999 . S
H551 C532 0.913 . S
H552 C570 0.951 . S
H553 C572 0.951 . S
H554 C574 0.950 . S
H555 C575 0.950 . S
H556 C577 0.950 . S
H557 C580 0.950 . S
H558 C581 0.950 . S
H559 C583 0.950 . S
H560 C584 0.950 . S
H561 C585 0.951 . S
H562 C587 0.951 . S
H563 C589 0.950 . S
H564 C590 0.950 . S
H565 C592 0.950 . S
H566 C595 0.950 . S
H567 C596 0.950 . S
H568 C598 0.950 . S
H569 C599 0.950 . S
C570 H552 0.951 . S
C570 C571 1.366 . S
C570 C572 1.388 . S
C571 C570 1.366 . S
C571 C575 1.385 1_556 S
C572 H553 0.951 . S
C572 C570 1.388 . S
C572 C573 1.366 . S
C573 C572 1.366 . S
C573 C574 1.414 1_556 S
C573 C576 1.498 . S
C574 H554 0.950 . S
C574 C573 1.414 1_554 S
C574 C575 1.374 . S
C575 H555 0.950 . S
C575 C571 1.385 1_554 S
C575 C574 1.374 . S
C576 C573 1.498 . S
C576 C577 1.373 . S
C576 C578 1.389 1_556 S
C577 H556 0.950 . S
C577 C576 1.373 . S
C577 C593 1.377 . S
C578 C576 1.389 1_554 S
C578 C579 1.524 . S
C578 C592 1.377 . S
C579 C578 1.524 . S
C579 C580 1.397 . S
C579 C584 1.363 . S
C580 H557 0.950 . S
C580 C579 1.397 . S
C580 C581 1.334 . S
C581 H558 0.950 . S
C581 C580 1.334 . S
C581 C582 1.287 . S
C582 C581 1.287 . S
C582 C583 1.524 . S
C582 H601 0.913 . S
C583 H559 0.950 . S
C583 C582 1.524 . S
C583 C584 1.415 . S
C584 H560 0.950 . S
C584 C579 1.363 . S
C584 C583 1.415 . S
C585 H561 0.951 . S
C585 C586 1.366 . S
C585 C587 1.388 . S
C586 C585 1.366 . S
C586 C590 1.385 1_554 S
C587 H562 0.951 . S
C587 C585 1.388 . S
C587 C588 1.366 1_554 S
C588 C587 1.366 1_556 S
C588 C589 1.414 . S
C588 C591 1.499 . S
C589 H563 0.950 . S
C589 C588 1.414 . S
C589 C590 1.374 . S
C590 H564 0.950 . S
C590 C586 1.385 1_556 S
C590 C589 1.374 . S
C591 C588 1.499 . S
C591 C592 1.373 1_556 S
C591 C593 1.389 . S
C592 H565 0.950 . S
C592 C578 1.377 . S
C592 C591 1.373 1_554 S
C593 C577 1.377 . S
C593 C591 1.389 . S
C593 C594 1.524 . S
C594 C593 1.524 . S
C594 C595 1.397 . S
C594 C599 1.363 . S
C595 H566 0.950 . S
C595 C594 1.397 . S
C595 C596 1.334 . S
C596 H567 0.950 . S
C596 C595 1.334 . S
C596 C597 1.287 . S
C597 C596 1.287 . S
C597 C598 1.524 . S
C597 H600 0.999 . S
C598 H568 0.950 . S
C598 C597 1.524 . S
C598 C599 1.415 . S
C599 H569 0.950 . S
C599 C594 1.363 . S
C599 C598 1.415 . S
H600 C597 0.999 . S
H601 C582 0.913 . S
H602 C620 0.951 . S
H603 C622 0.951 . S
H604 C624 0.950 1_554 S
H605 C625 0.950 1_554 S
H606 C627 0.950 . S
H607 C630 0.950 . S
H608 C631 0.950 . S
H609 C633 0.950 . S
H610 C634 0.950 . S
H611 C635 0.951 . S
H612 C637 0.951 . S
H613 C639 0.950 . S
H614 C640 0.950 . S
H615 C642 0.950 . S
H616 C645 0.950 . S
H617 C646 0.950 . S
H618 C648 0.950 . S
H619 C649 0.950 . S
C620 H602 0.951 . S
C620 C621 1.366 . S
C620 C622 1.388 . S
C621 C620 1.366 . S
C621 C625 1.385 . S
C622 H603 0.951 . S
C622 C620 1.388 . S
C622 C623 1.366 . S
C623 C622 1.366 . S
C623 C624 1.414 . S
C623 C626 1.499 . S
C624 H604 0.950 1_556 S
C624 C623 1.414 . S
C624 C625 1.374 . S
C625 H605 0.950 1_556 S
C625 C621 1.385 . S
C625 C624 1.374 . S
C626 C623 1.499 . S
C626 C627 1.373 . S
C626 C628 1.389 1_556 S
C627 H606 0.950 . S
C627 C626 1.373 . S
C627 C643 1.377 . S
C628 C626 1.389 1_554 S
C628 C629 1.524 . S
C628 C642 1.377 . S
C629 C628 1.524 . S
C629 C630 1.397 . S
C629 C634 1.363 . S
C630 H607 0.950 . S
C630 C629 1.397 . S
C630 C631 1.334 . S
C631 H608 0.950 . S
C631 C630 1.334 . S
C631 C632 1.287 . S
C632 C631 1.287 . S
C632 C633 1.524 . S
C632 H651 0.913 . S
C633 H609 0.950 . S
C633 C632 1.524 . S
C633 C634 1.415 . S
C634 H610 0.950 . S
C634 C629 1.363 . S
C634 C633 1.415 . S
C635 H611 0.951 . S
C635 C636 1.366 1_554 S
C635 C637 1.388 . S
C636 C635 1.366 1_556 S
C636 C640 1.385 . S
C637 H612 0.951 . S
C637 C635 1.388 . S
C637 C638 1.366 1_554 S
C638 C637 1.366 1_556 S
C638 C639 1.414 . S
C638 C641 1.499 . S
C639 H613 0.950 . S
C639 C638 1.414 . S
C639 C640 1.374 . S
C640 H614 0.950 . S
C640 C636 1.385 . S
C640 C639 1.374 . S
C641 C638 1.499 . S
C641 C642 1.373 1_556 S
C641 C643 1.389 . S
C642 H615 0.950 . S
C642 C628 1.377 . S
C642 C641 1.373 1_554 S
C643 C627 1.377 . S
C643 C641 1.389 . S
C643 C644 1.524 . S
C644 C643 1.524 . S
C644 C645 1.397 . S
C644 C649 1.363 . S
C645 H616 0.950 . S
C645 C644 1.397 . S
C645 C646 1.334 . S
C646 H617 0.950 . S
C646 C645 1.334 . S
C646 C647 1.287 . S
C647 C646 1.287 . S
C647 C648 1.524 . S
C647 H650 0.999 . S
C648 H618 0.950 . S
C648 C647 1.524 . S
C648 C649 1.415 . S
C649 H619 0.950 . S
C649 C644 1.363 . S
C649 C648 1.415 . S
H650 C647 0.999 . S
H651 C632 0.913 . S
H652 C670 0.951 . S
H653 C672 0.951 . S
H654 C674 0.950 . S
H655 C675 0.950 . S
H656 C677 0.950 . S
H657 C680 0.950 . S
H658 C681 0.950 . S
H659 C683 0.950 . S
H660 C684 0.950 . S
H661 C685 0.951 . S
H662 C687 0.951 . S
H663 C689 0.950 1_554 S
H664 C690 0.950 1_554 S
H665 C692 0.950 . S
H666 C695 0.950 . S
H667 C696 0.950 . S
H668 C698 0.950 . S
H669 C699 0.950 . S
C670 H652 0.951 . S
C670 C671 1.366 . S
C670 C672 1.388 . S
C671 C670 1.366 . S
C671 C675 1.385 . S
C672 H653 0.951 . S
C672 C670 1.388 . S
C672 C673 1.366 . S
C673 C672 1.366 . S
C673 C674 1.414 . S
C673 C676 1.499 . S
C674 H654 0.950 . S
C674 C673 1.414 . S
C674 C675 1.374 . S
C675 H655 0.950 . S
C675 C671 1.385 . S
C675 C674 1.374 . S
C676 C673 1.499 . S
C676 C677 1.373 1_556 S
C676 C678 1.389 . S
C677 H656 0.950 . S
C677 C676 1.373 1_554 S
C677 C693 1.377 . S
C678 C676 1.389 . S
C678 C679 1.524 . S
C678 C692 1.377 . S
C679 C678 1.524 . S
C679 C680 1.397 . S
C679 C684 1.363 . S
C680 H657 0.950 . S
C680 C679 1.397 . S
C680 C681 1.334 . S
C681 H658 0.950 . S
C681 C680 1.334 . S
C681 C682 1.287 . S
C682 C681 1.287 . S
C682 C683 1.524 . S
C682 H701 0.913 . S
C683 H659 0.950 . S
C683 C682 1.524 . S
C683 C684 1.415 . S
C684 H660 0.950 . S
C684 C679 1.363 . S
C684 C683 1.415 . S
C685 H661 0.951 . S
C685 C686 1.366 . S
C685 C687 1.388 . S
C686 C685 1.366 . S
C686 C690 1.385 . S
C687 H662 0.951 . S
C687 C685 1.388 . S
C687 C688 1.366 . S
C688 C687 1.366 . S
C688 C689 1.414 . S
C688 C691 1.499 . S
C689 H663 0.950 1_556 S
C689 C688 1.414 . S
C689 C690 1.374 . S
C690 H664 0.950 1_556 S
C690 C686 1.385 . S
C690 C689 1.374 . S
C691 C688 1.499 . S
C691 C692 1.373 . S
C691 C693 1.389 1_556 S
C692 H665 0.950 . S
C692 C678 1.377 . S
C692 C691 1.373 . S
C693 C677 1.377 . S
C693 C691 1.389 1_554 S
C693 C694 1.524 . S
C694 C693 1.524 . S
C694 C695 1.397 . S
C694 C699 1.363 . S
C695 H666 0.950 . S
C695 C694 1.397 . S
C695 C696 1.334 . S
C696 H667 0.950 . S
C696 C695 1.334 . S
C696 C697 1.287 . S
C697 C696 1.287 . S
C697 C698 1.524 . S
C697 H700 0.999 . S
C698 H668 0.950 . S
C698 C697 1.524 . S
C698 C699 1.415 . S
C699 H669 0.950 . S
C699 C694 1.363 . S
C699 C698 1.415 . S
H700 C697 0.999 . S
H701 C682 0.913 . S
C271 C74 1.492 . S
C286 C63 1.486 . S
C321 C158 1.478 . S
C336 C147 1.481 . S
C371 C242 1.489 . S
C386 C231 1.489 . S
C421 C67 1.529 . S
C436 C226 1.433 . S
C471 C142 0.768 . S
C486 C58 0.769 1_554 S
C521 C151 2.297 . S
C536 C224 2.336 . S
C571 C56 1.528 . S
C586 C238 1.433 . S
C621 C70 0.769 1_556 S
C636 C154 0.769 . S
C671 C235 2.335 . S
C686 C140 2.296 . S
