# Generated by pormake.
# Topology vmn, (7)-cn, num edge types: 1
# Building blocks:
#     Node 0, Type 0, BuildingBlock: HICVOG_clean_sbu_0, # of connection points: 7
#     Node 1, Type 0, BuildingBlock: HICVOG_clean_sbu_0, # of connection points: 7
#     Node 2, Type 0, BuildingBlock: HICVOG_clean_sbu_0, # of connection points: 7
#     Node 3, Type 0, BuildingBlock: HICVOG_clean_sbu_0, # of connection points: 7
#     Node 4, Type 0, BuildingBlock: HICVOG_clean_sbu_0, # of connection points: 7
#     Node 5, Type 0, BuildingBlock: HICVOG_clean_sbu_0, # of connection points: 7
#     Node 6, Type 0, BuildingBlock: HICVOG_clean_sbu_0, # of connection points: 7
#     Node 7, Type 0, BuildingBlock: HICVOG_clean_sbu_0, # of connection points: 7
#     Edge 8, Type (0, 0), BuildingBlock: ZUJKAS_clean_linker_0, # of connection points: 2
#     Edge 9, Type (0, 0), BuildingBlock: ZUJKAS_clean_linker_0, # of connection points: 2
#     Edge 10, Type (0, 0), BuildingBlock: ZUJKAS_clean_linker_0, # of connection points: 2
#     Edge 11, Type (0, 0), BuildingBlock: ZUJKAS_clean_linker_0, # of connection points: 2
#     Edge 12, Type (0, 0), BuildingBlock: ZUJKAS_clean_linker_0, # of connection points: 2
#     Edge 13, Type (0, 0), BuildingBlock: ZUJKAS_clean_linker_0, # of connection points: 2
#     Edge 14, Type (0, 0), BuildingBlock: ZUJKAS_clean_linker_0, # of connection points: 2
#     Edge 15, Type (0, 0), BuildingBlock: ZUJKAS_clean_linker_0, # of connection points: 2
#     Edge 16, Type (0, 0), BuildingBlock: ZUJKAS_clean_linker_0, # of connection points: 2
#     Edge 17, Type (0, 0), BuildingBlock: ZUJKAS_clean_linker_0, # of connection points: 2
#     Edge 18, Type (0, 0), BuildingBlock: ZUJKAS_clean_linker_0, # of connection points: 2
#     Edge 19, Type (0, 0), BuildingBlock: ZUJKAS_clean_linker_0, # of connection points: 2
#     Edge 20, Type (0, 0), BuildingBlock: ZUJKAS_clean_linker_0, # of connection points: 2
#     Edge 21, Type (0, 0), BuildingBlock: ZUJKAS_clean_linker_0, # of connection points: 2
#     Edge 22, Type (0, 0), BuildingBlock: ZUJKAS_clean_linker_0, # of connection points: 2
#     Edge 23, Type (0, 0), BuildingBlock: ZUJKAS_clean_linker_0, # of connection points: 2
#     Edge 24, Type (0, 0), BuildingBlock: ZUJKAS_clean_linker_0, # of connection points: 2
#     Edge 25, Type (0, 0), BuildingBlock: ZUJKAS_clean_linker_0, # of connection points: 2
#     Edge 26, Type (0, 0), BuildingBlock: ZUJKAS_clean_linker_0, # of connection points: 2
#     Edge 27, Type (0, 0), BuildingBlock: ZUJKAS_clean_linker_0, # of connection points: 2
#     Edge 28, Type (0, 0), BuildingBlock: ZUJKAS_clean_linker_0, # of connection points: 2
#     Edge 29, Type (0, 0), BuildingBlock: ZUJKAS_clean_linker_0, # of connection points: 2
#     Edge 30, Type (0, 0), BuildingBlock: ZUJKAS_clean_linker_0, # of connection points: 2
#     Edge 31, Type (0, 0), BuildingBlock: ZUJKAS_clean_linker_0, # of connection points: 2
#     Edge 32, Type (0, 0), BuildingBlock: ZUJKAS_clean_linker_0, # of connection points: 2
#     Edge 33, Type (0, 0), BuildingBlock: ZUJKAS_clean_linker_0, # of connection points: 2
#     Edge 34, Type (0, 0), BuildingBlock: ZUJKAS_clean_linker_0, # of connection points: 2
#     Edge 35, Type (0, 0), BuildingBlock: ZUJKAS_clean_linker_0, # of connection points: 2
# Relax obj value: 0.154
# Max RMSD: 0.216
# Mean RMSD: 0.216
data_MOF--net-vmn--node1-HICVOG_clean_sbu_0--edge1-ZUJKAS_clean_linker_0
_symmetry_space_group_name_H-M    P1
_symmetry_Int_Tables_number       1
_symmetry_cell_setting            triclinic
loop_
_symmetry_equiv_pos_as_xyz
'x, y, z'
_cell_length_a     47.782507
_cell_length_b     40.008333
_cell_length_c     37.308923
_cell_angle_alpha  90.0086
_cell_angle_beta   99.467663
_cell_angle_gamma 90.020709
loop_
_atom_site_label
_atom_site_type_symbol
_atom_site_fract_x
_atom_site_fract_y
_atom_site_fract_z
_atom_type_partial_charge
Zn0 Zn 0.97203 0.3536 0.18281 0.0
C1 C 0.01415 0.3361 0.28338 0.0
N2 N 1.00781 0.36834 0.28853 0.0
C3 C 0.99511 0.37793 0.25535 0.0
N4 N 0.99376 0.35269 0.23117 0.0
N5 N 1.00667 0.32648 0.24833 0.0
C6 C 0.01808 0.22974 0.24698 0.0
O7 O 0.99307 0.23777 0.22875 0.0
O8 O 0.97433 0.3984 0.15986 0.0
Zn9 Zn 0.0319 0.29696 0.22576 0.0
N10 N 0.93264 0.34292 0.18488 0.0
C11 C 0.89871 0.32197 0.21916 0.0
C12 C 0.9266 0.32998 0.2164 0.0
C13 C 0.91179 0.34807 0.15574 0.0
N14 N 0.87795 0.32698 0.1902 0.0
C15 C 0.88343 0.33973 0.1582 0.0
O16 O 0.02116 0.28866 0.17082 0.0
C17 C 1.00401 0.30017 0.14382 0.0
O18 O 0.98632 0.32297 0.14783 0.0
H19 H 0.94333 0.32592 0.23924 0.0
H20 H 0.91743 0.35887 0.13134 0.0
C21 C 0.09347 0.30356 0.23137 0.0
C22 C 0.11889 0.32209 0.23355 0.0
C23 C 0.09257 0.37226 0.2355 0.0
C24 C 0.06766 0.35392 0.23307 0.0
N25 N 0.06843 0.31999 0.23122 0.0
N26 N 0.11743 0.35602 0.2356 0.0
H27 H 0.09332 0.27663 0.22886 0.0
C28 C 0.99879 0.40746 0.15459 0.0
O29 O 0.02076 0.38877 0.16741 0.0
O30 O 0.03774 0.25154 0.2507 0.0
H31 H 0.04784 0.36685 0.23218 0.0
H32 H 0.89356 0.31174 0.24412 0.0
H33 H 0.09216 0.39926 0.23696 0.0
Zn34 Zn 0.55264 0.34993 0.84496 0.0
C35 C 0.5157 0.3372 0.74163 0.0
N36 N 0.52565 0.36832 0.73806 0.0
C37 C 0.5354 0.37714 0.77253 0.0
N38 N 0.53185 0.35245 0.796 0.0
N39 N 0.51875 0.3274 0.77682 0.0
C40 C 0.50486 0.23115 0.77398 0.0
O41 O 0.5295 0.23872 0.79352 0.0
O42 O 0.54868 0.39189 0.87284 0.0
Zn43 Zn 0.49155 0.298 0.79609 0.0
N44 N 0.59243 0.34125 0.84309 0.0
C45 C 0.62681 0.32231 0.80837 0.0
C46 C 0.59873 0.32898 0.81141 0.0
C47 C 0.6132 0.34687 0.87223 0.0
N48 N 0.6475 0.32785 0.83727 0.0
C49 C 0.64176 0.33985 0.86947 0.0
O50 O 0.50063 0.28737 0.85073 0.0
C51 C 0.51894 0.29475 0.87851 0.0
O52 O 0.53849 0.31583 0.87661 0.0
H53 H 0.58206 0.32437 0.78864 0.0
H54 H 0.6074 0.35698 0.89686 0.0
C55 C 0.42986 0.30754 0.78674 0.0
C56 C 0.4052 0.32746 0.78437 0.0
C57 C 0.43393 0.37621 0.78788 0.0
C58 C 0.4581 0.3565 0.79053 0.0
N59 N 0.45578 0.32262 0.78981 0.0
N60 N 0.40822 0.36132 0.78501 0.0
H61 H 0.42867 0.28055 0.78719 0.0
C62 C 0.52464 0.39498 0.88289 0.0
O63 O 0.50429 0.37391 0.87027 0.0
O64 O 0.48546 0.25329 0.76948 0.0
H65 H 0.4786 0.36828 0.79367 0.0
H66 H 0.63215 0.31265 0.78327 0.0
H67 H 0.43558 0.40318 0.7885 0.0
Zn68 Zn 0.9925 0.73711 0.79159 0.0
C69 C 0.03373 0.65818 0.76395 0.0
N70 N 0.02149 0.66739 0.73042 0.0
C71 C 0.01333 0.69899 0.73539 0.0
N72 N 0.01927 0.70854 0.77062 0.0
N73 N 0.03307 0.68307 0.78821 0.0
C74 C 0.02701 0.62634 0.86239 0.0
O75 O 1.00454 0.64347 0.84786 0.0
O76 O 0.98823 0.78328 0.76811 0.0
Zn77 Zn 0.05327 0.68272 0.83751 0.0
N78 N 0.95609 0.71378 0.78167 0.0
C79 C 0.93291 0.66107 0.7723 0.0
C80 C 0.9576 0.67991 0.77952 0.0
C81 C 0.93047 0.72963 0.77764 0.0
N82 N 0.90747 0.67673 0.76813 0.0
C83 C 0.90525 0.71054 0.77076 0.0
O84 O 0.03667 0.71221 0.87148 0.0
C85 C 0.01756 0.73352 0.87466 0.0
O86 O 1.00052 0.74406 0.84703 0.0
H87 H 0.97784 0.66745 0.78344 0.0
H88 H 0.92987 0.75659 0.77947 0.0
C89 C 0.11319 0.68942 0.86729 0.0
C90 C 0.14156 0.69876 0.86609 0.0
C91 C 0.12705 0.71863 0.80578 0.0
C92 C 0.09915 0.70959 0.80728 0.0
N93 N 0.09272 0.69509 0.83782 0.0
N94 N 0.14744 0.71304 0.83501 0.0
H95 H 0.10734 0.67741 0.89094 0.0
C96 C 1.00595 0.80605 0.78002 0.0
O97 O 0.02755 0.79824 0.80521 0.0
O98 O 0.05145 0.63763 0.85989 0.0
H99 H 0.08272 0.71404 0.78418 0.0
H100 H 0.93391 0.63413 0.77028 0.0
H101 H 0.1325 0.73009 0.78158 0.0
Zn102 Zn 0.53088 0.739 0.23063 0.0
C103 C 0.48895 0.66089 0.25824 0.0
N104 N 0.50122 0.66987 0.29184 0.0
C105 C 0.50964 0.70143 0.28705 0.0
N106 N 0.50391 0.71108 0.25183 0.0
N107 N 0.48995 0.68579 0.23412 0.0
C108 C 0.4956 0.62739 0.16181 0.0
O109 O 0.51812 0.64571 0.1733 0.0
O110 O 0.53622 0.78496 0.2543 0.0
Zn111 Zn 0.46996 0.68497 0.1847 0.0
N112 N 0.56687 0.71479 0.2392 0.0
C113 C 0.58921 0.66146 0.24576 0.0
C114 C 0.56486 0.68096 0.24124 0.0
C115 C 0.59265 0.73 0.24113 0.0
N116 N 0.61479 0.67646 0.24751 0.0
C117 C 0.61749 0.71024 0.24527 0.0
O118 O 0.48673 0.71375 0.14993 0.0
C119 C 0.50578 0.73536 0.14736 0.0
O120 O 0.52231 0.74608 0.17537 0.0
H121 H 0.54446 0.66901 0.23882 0.0
H122 H 0.59358 0.75687 0.23838 0.0
C123 C 0.40981 0.6914 0.15545 0.0
C124 C 0.38158 0.70111 0.15688 0.0
C125 C 0.39689 0.72315 0.21609 0.0
C126 C 0.42465 0.71371 0.2144 0.0
N127 N 0.43063 0.69792 0.18432 0.0
N128 N 0.37616 0.71665 0.1875 0.0
H129 H 0.41526 0.67842 0.13212 0.0
C130 C 0.5162 0.80627 0.24892 0.0
O131 O 0.49171 0.7972 0.23 0.0
O132 O 0.47127 0.63886 0.16452 0.0
H133 H 0.44133 0.71887 0.23701 0.0
H134 H 0.5878 0.63453 0.24741 0.0
H135 H 0.39181 0.73562 0.23994 0.0
Zn136 Zn 0.46921 0.85215 0.68458 0.0
C137 C 0.51007 0.83905 0.78667 0.0
N138 N 0.50244 0.87109 0.79042 0.0
C139 C 0.48996 0.8793 0.75668 0.0
N140 N 0.49004 0.85343 0.73348 0.0
N141 N 0.50369 0.8283 0.75188 0.0
C142 C 0.51496 0.73136 0.74608 0.0
O143 O 0.49174 0.74025 0.72419 0.0
O144 O 0.46893 0.89716 0.66179 0.0
Zn145 Zn 0.53048 0.79924 0.73144 0.0
N146 N 0.43048 0.83737 0.68494 0.0
C147 C 0.39788 0.80959 0.71652 0.0
C148 C 0.42507 0.82147 0.71523 0.0
C149 C 0.4096 0.84202 0.65567 0.0
N150 N 0.37713 0.81399 0.68739 0.0
C151 C 0.38197 0.82996 0.65674 0.0
O152 O 0.52302 0.79246 0.676 0.0
C153 C 0.50633 0.80279 0.64795 0.0
O154 O 0.48675 0.82364 0.65051 0.0
H155 H 0.44184 0.81781 0.73814 0.0
H156 H 0.41476 0.85424 0.63173 0.0
C157 C 0.59258 0.80633 0.74735 0.0
C158 C 0.61778 0.82545 0.75401 0.0
C159 C 0.59016 0.87509 0.74868 0.0
C160 C 0.56548 0.8562 0.74154 0.0
N161 N 0.56697 0.82227 0.74152 0.0
N162 N 0.61558 0.85937 0.75468 0.0
H163 H 0.59318 0.77931 0.74698 0.0
C164 C 0.49316 0.90783 0.65744 0.0
O165 O 0.51578 0.89056 0.6712 0.0
O166 O 0.53439 0.75304 0.75477 0.0
H167 H 0.54525 0.86861 0.73592 0.0
H168 H 0.39329 0.79679 0.74042 0.0
H169 H 0.58916 0.9021 0.74909 0.0
Zn170 Zn 0.99313 0.7982 0.29178 0.0
C171 C 0.03362 0.87806 0.26604 0.0
N172 N 0.02126 0.86971 0.23228 0.0
C173 C 0.01359 0.83769 0.2361 0.0
N174 N 0.01987 0.8271 0.27096 0.0
N175 N 0.03348 0.85229 0.28932 0.0
C176 C 0.02908 0.90621 0.36536 0.0
O177 O 1.00689 0.88805 0.35201 0.0
O178 O 0.98794 0.75246 0.26746 0.0
Zn179 Zn 0.05436 0.85141 0.33824 0.0
N180 N 0.95692 0.82198 0.2838 0.0
C181 C 0.93428 0.87516 0.27908 0.0
C182 C 0.95874 0.85588 0.28312 0.0
C183 C 0.93121 0.80646 0.28109 0.0
N184 N 0.90877 0.85985 0.27653 0.0
C185 C 0.90624 0.82597 0.27751 0.0
O186 O 0.03767 0.82199 0.37236 0.0
C187 C 0.01848 0.8006 0.37494 0.0
O188 O 1.00163 0.79038 0.34697 0.0
H189 H 0.97908 0.86802 0.28628 0.0
H190 H 0.93044 0.7795 0.28286 0.0
C191 C 0.11411 0.84232 0.36727 0.0
C192 C 0.14202 0.83137 0.3659 0.0
C193 C 0.12679 0.813 0.30518 0.0
C194 C 0.09933 0.82376 0.30676 0.0
N195 N 0.09345 0.83813 0.33767 0.0
N196 N 0.14732 0.81693 0.33463 0.0
H197 H 0.10859 0.8533 0.39167 0.0
C198 C 1.00712 0.73029 0.27486 0.0
O199 O 0.03083 0.73832 0.29629 0.0
O200 O 0.05355 0.89636 0.36101 0.0
H201 H 0.08274 0.82044 0.28357 0.0
H202 H 0.93555 0.90215 0.27847 0.0
H203 H 0.13175 0.80142 0.28079 0.0
Zn204 Zn 0.49498 0.24654 0.2991 0.0
C205 C 0.5224 0.15973 0.26702 0.0
N206 N 0.50889 0.17006 0.2345 0.0
C207 C 0.50463 0.20275 0.24007 0.0
N208 N 0.51444 0.21206 0.27473 0.0
N209 N 0.52635 0.18501 0.29136 0.0
C210 C 0.52097 0.12569 0.36333 0.0
O211 O 0.49867 0.13808 0.34235 0.0
O212 O 0.48705 0.2896 0.26997 0.0
Zn213 Zn 0.54958 0.18318 0.33922 0.0
N214 N 0.45927 0.22645 0.30573 0.0
C215 C 0.43937 0.18592 0.34073 0.0
C216 C 0.46275 0.2029 0.33224 0.0
C217 C 0.43296 0.23454 0.28767 0.0
N218 N 0.41319 0.19383 0.32294 0.0
C219 C 0.40896 0.21785 0.29672 0.0
O220 O 0.54 0.21735 0.37444 0.0
C221 C 0.52721 0.24459 0.37834 0.0
O222 O 0.51201 0.25899 0.35145 0.0
H223 H 0.48369 0.19763 0.34683 0.0
H224 H 0.43092 0.25352 0.26678 0.0
C225 C 0.61 0.18659 0.36496 0.0
C226 C 0.63878 0.19005 0.36117 0.0
C227 C 0.62448 0.19745 0.29754 0.0
C228 C 0.59614 0.19423 0.30152 0.0
N229 N 0.58941 0.18863 0.335 0.0
N230 N 0.645 0.19524 0.32726 0.0
H231 H 0.60392 0.18176 0.39115 0.0
C232 C 0.50661 0.31102 0.26898 0.0
O233 O 0.53256 0.30367 0.28459 0.0
O234 O 0.54495 0.13965 0.36425 0.0
H235 H 0.57964 0.19591 0.27801 0.0
H236 H 0.44192 0.16689 0.36162 0.0
H237 H 0.63017 0.20168 0.27102 0.0
Zn238 Zn 0.02823 0.23873 0.72592 0.0
C239 C 0.98725 0.15856 0.75242 0.0
N240 N 0.99905 0.16705 0.78633 0.0
C241 C 1.00794 0.19857 0.78216 0.0
N242 N 1.00251 0.20876 0.74707 0.0
N243 N 0.98875 0.18367 0.72873 0.0
C244 C 0.99474 0.13368 0.64869 0.0
O245 O 0.01549 0.15488 0.65913 0.0
O246 O 0.03227 0.285 0.75005 0.0
Zn247 Zn 0.96712 0.18401 0.68012 0.0
N248 N 0.06494 0.21606 0.73314 0.0
C249 C 0.08792 0.16313 0.7355 0.0
C250 C 0.06335 0.18214 0.73243 0.0
C251 C 0.09056 0.23191 0.73655 0.0
N252 N 0.11333 0.17877 0.73864 0.0
C253 C 0.11564 0.21269 0.7392 0.0
O254 O 0.98117 0.21537 0.64543 0.0
C255 C 1.0006 0.23646 0.64287 0.0
O256 O 0.01826 0.24551 0.67062 0.0
H257 H 0.04307 0.16984 0.7289 0.0
H258 H 0.09124 0.25892 0.73607 0.0
C259 C 0.90707 0.19115 0.6516 0.0
C260 C 0.87831 0.19716 0.65429 0.0
C261 C 0.89209 0.20652 0.71779 0.0
C262 C 0.92029 0.20049 0.71489 0.0
N263 N 0.92729 0.19288 0.68201 0.0
N264 N 0.87196 0.20471 0.68766 0.0
H265 H 0.91364 0.18553 0.62591 0.0
C266 C 0.04115 0.30847 0.7317 0.0
O267 O 0.04747 0.3014 0.69959 0.0
O268 O 0.97041 0.13968 0.65671 0.0
H269 H 0.93647 0.2019 0.73875 0.0
H270 H 0.08683 0.13612 0.73493 0.0
H271 H 0.88619 0.2126 0.7438 0.0
H272 H 0.08302 0.91212 0.29209 0.0
H273 H 0.0877 0.97302 0.3029 0.0
H274 H 0.99697 0.98374 0.27393 0.0
H275 H 0.99242 0.92375 0.26299 0.0
H276 H 0.07021 0.02227 0.24943 0.0
H277 H 0.01406 0.0403 0.36624 0.0
H278 H 0.02823 1.00045 0.3553 0.0
H279 H 0.99443 1.01442 0.33159 0.0
C280 C 0.06417 0.9276 0.28878 0.0
C281 C 0.03735 0.91342 0.27706 0.0
C282 C 0.06681 0.96226 0.2949 0.0
C283 C 0.04261 0.98294 0.28982 0.0
C284 C 0.01587 0.96836 0.27892 0.0
H285 H 0.98019 0.17832 0.24539 0.0
H286 H 0.9901 0.11973 0.26101 0.0
C287 C 0.0133 0.93407 0.27247 0.0
C288 C 0.0449 0.02006 0.29201 0.0
H289 H 0.016 0.08828 0.32734 0.0
C290 C 0.05898 0.0368 0.26708 0.0
C291 C 0.03016 0.03903 0.31498 0.0
C292 C 0.01608 0.02266 0.3438 0.0
C293 C 0.05709 0.07173 0.26279 0.0
C294 C 0.041 0.0905 0.28437 0.0
C295 C 0.02816 0.07392 0.31061 0.0
C296 C 0.03523 0.12678 0.27785 0.0
C297 C 0.0709 0.08805 0.23368 0.0
C298 C 0.0572 0.15053 0.28296 0.0
C299 C 0.05158 0.18422 0.27407 0.0
C300 C 0.02386 0.19481 0.25986 0.0
C301 C 1.0018 0.17111 0.25606 0.0
C302 C 1.00742 0.13754 0.26506 0.0
H303 H 0.07837 0.06942 0.21528 0.0
H304 H 0.05587 0.1054 0.21713 0.0
H305 H 0.08949 0.10284 0.24664 0.0
H306 H 0.07876 0.14293 0.29333 0.0
H307 H 0.06907 0.20179 0.27749 0.0
H308 H 0.44027 0.91321 0.73187 0.0
H309 H 0.43533 0.97407 0.72096 0.0
H310 H 0.52621 0.98505 0.74725 0.0
H311 H 0.53101 0.92507 0.75829 0.0
H312 H 0.45374 0.0237 0.7739 0.0
H313 H 0.5074 0.04116 0.6547 0.0
H314 H 0.49299 1.00154 0.66599 0.0
H315 H 0.52723 1.01497 0.68887 0.0
C316 C 0.45908 0.92873 0.73457 0.0
C317 C 0.48602 0.91462 0.74556 0.0
C318 C 0.4563 0.96338 0.7284 0.0
C319 C 0.48046 0.98413 0.73269 0.0
C320 C 0.50732 0.96962 0.74288 0.0
H321 H 0.54273 0.17984 0.77516 0.0
H322 H 0.53278 0.12118 0.75984 0.0
C323 C 0.51004 0.93534 0.74939 0.0
C324 C 0.47808 0.02125 0.73033 0.0
H325 H 0.50587 0.08933 0.69325 0.0
C326 C 0.46452 0.03814 0.75567 0.0
C327 C 0.49219 0.04011 0.70658 0.0
C328 C 0.50556 0.02356 0.67724 0.0
C329 C 0.46632 0.07312 0.75954 0.0
C330 C 0.48183 0.09179 0.73718 0.0
C331 C 0.49416 0.07505 0.71057 0.0
C332 C 0.48762 0.12814 0.74328 0.0
C333 C 0.45304 0.08966 0.78899 0.0
C334 C 0.46565 0.15187 0.73817 0.0
C335 C 0.4713 0.18563 0.74683 0.0
C336 C 0.49904 0.19627 0.76088 0.0
C337 C 0.5211 0.17259 0.76462 0.0
C338 C 0.51546 0.13898 0.7558 0.0
H339 H 0.4457 0.07117 0.80764 0.0
H340 H 0.46838 0.10691 0.80521 0.0
H341 H 0.43446 0.10462 0.77637 0.0
H342 H 0.44406 0.1442 0.72806 0.0
H343 H 0.4538 0.20317 0.7435 0.0
H344 H 0.02143 0.11601 0.72414 0.0
H345 H 0.01677 0.05551 0.7183 0.0
H346 H 0.93609 0.06032 0.75568 0.0
H347 H 0.94098 0.12145 0.76166 0.0
H348 H 0.97104 1.01683 0.79441 0.0
H349 H 0.97211 0.99046 0.64926 0.0
H350 H 1.00109 1.01694 0.6681 0.0
H351 H 0.96521 0.03167 0.66552 0.0
C352 C 1.00215 0.10433 0.72964 0.0
C353 C 0.98109 0.12343 0.74214 0.0
C354 C 0.99949 0.06964 0.72631 0.0
C355 C 0.97578 0.0532 0.73578 0.0
C356 C 0.95438 0.07242 0.74768 0.0
H357 H 0.9619 0.83254 0.7313 0.0
H358 H 0.95201 0.89192 0.71785 0.0
C359 C 0.95707 0.10728 0.75095 0.0
C360 C 0.97544 1.01598 0.73787 0.0
H361 H 0.98631 0.94481 0.69108 0.0
C362 C 0.97386 1.00111 0.77158 0.0
C363 C 0.97897 0.99526 0.7081 0.0
C364 C 0.97915 1.00939 0.67064 0.0
C365 C 0.9771 0.96648 0.77683 0.0
C366 C 0.98248 0.94604 0.74777 0.0
C367 C 0.98261 0.96055 0.71351 0.0
C368 C 0.98937 0.90993 0.7533 0.0
C369 C 0.97519 0.95207 0.81373 0.0
C370 C 0.01404 0.90032 0.77685 0.0
C371 C 0.01978 0.86656 0.78451 0.0
C372 C 1.00098 0.84153 0.76876 0.0
C373 C 0.97678 0.85114 0.74402 0.0
C374 C 0.97109 0.88506 0.73628 0.0
H375 H 0.96371 0.96907 0.82986 0.0
H376 H 0.96425 0.92748 0.81117 0.0
H377 H 0.99692 0.9483 0.82901 0.0
H378 H 0.02867 0.91905 0.78986 0.0
H379 H 0.03869 0.86019 0.80348 0.0
H380 H 0.47724 0.85674 0.24342 0.0
H381 H 0.48554 0.91584 0.25777 0.0
H382 H 0.57403 0.89547 0.29572 0.0
H383 H 0.56597 0.83606 0.28113 0.0
H384 H 0.50807 0.94873 0.32402 0.0
H385 H 0.57545 0.96805 0.2173 0.0
H386 H 0.55359 0.93138 0.21832 0.0
H387 H 0.58607 0.93546 0.24989 0.0
C388 C 0.49847 0.86468 0.25502 0.0
C389 C 0.52098 0.84161 0.26082 0.0
C390 C 0.50317 0.89854 0.26328 0.0
C391 C 0.53048 0.91023 0.27733 0.0
C392 C 0.55286 0.88714 0.28434 0.0
H393 H 0.57126 0.12719 0.29934 0.0
H394 H 0.57732 0.06635 0.30885 0.0
C395 C 0.54817 0.85314 0.27617 0.0
C396 C 0.53525 0.94673 0.28341 0.0
H397 H 0.56452 1.01546 0.24941 0.0
C398 C 0.52072 0.96325 0.30804 0.0
C399 C 0.55195 0.96572 0.26278 0.0
C400 C 0.56757 0.94945 0.23538 0.0
C401 C 0.52161 0.99824 0.3116 0.0
C402 C 0.53705 1.01731 0.28958 0.0
C403 C 0.55277 1.00076 0.26634 0.0
C404 C 0.53378 0.05422 0.28649 0.0
C405 C 0.50561 1.01474 0.33842 0.0
C406 C 0.50751 0.06744 0.27055 0.0
C407 C 0.50419 0.10175 0.26482 0.0
C408 C 0.52694 0.1238 0.27531 0.0
C409 C 0.5533 0.11077 0.29152 0.0
C410 C 0.55676 0.0761 0.29687 0.0
H411 H 0.50066 0.99684 0.35927 0.0
H412 H 0.51813 0.03577 0.35225 0.0
H413 H 0.48532 0.02496 0.32379 0.0
H414 H 0.48964 0.05105 0.26173 0.0
H415 H 0.48368 0.11114 0.25208 0.0
H416 H 0.47721 0.67979 0.73269 0.0
H417 H 0.48564 0.62048 0.74542 0.0
H418 H 0.57142 0.64233 0.79612 0.0
H419 H 0.56302 0.70202 0.78392 0.0
H420 H 0.52453 0.58186 0.71872 0.0
H421 H 0.54498 0.57877 0.86954 0.0
H422 H 0.52895 0.61424 0.84415 0.0
H423 H 0.5666 0.60776 0.84945 0.0
C424 C 0.49778 0.67214 0.74701 0.0
C425 C 0.51944 0.69577 0.75719 0.0
C426 C 0.50258 0.63813 0.75424 0.0
C427 C 0.5291 0.62683 0.77195 0.0
C428 C 0.55062 0.65041 0.783 0.0
H429 H 0.57586 0.41636 0.75038 0.0
H430 H 0.57869 0.47765 0.75388 0.0
C431 C 0.54581 0.68456 0.77583 0.0
C432 C 0.53453 0.59023 0.77638 0.0
H433 H 0.55204 0.52813 0.83916 0.0
C434 C 0.53065 0.57016 0.74507 0.0
C435 C 0.54233 0.57487 0.81078 0.0
C436 C 0.54574 0.5949 0.84548 0.0
C437 C 0.53407 0.53529 0.74712 0.0
C438 C 0.54223 0.51992 0.78144 0.0
C439 C 0.54622 0.53995 0.81283 0.0
C440 C 0.54457 0.48288 0.78514 0.0
C441 C 0.52787 0.51512 0.7125 0.0
C442 C 0.52558 0.46532 0.80319 0.0
C443 C 0.52424 0.43039 0.80154 0.0
C444 C 0.54222 0.41228 0.78247 0.0
C445 C 0.56224 0.42971 0.76601 0.0
C446 C 0.56364 0.4647 0.76769 0.0
H447 H 0.5157 0.52976 0.68983 0.0
H448 H 0.54817 0.50736 0.70424 0.0
H449 H 0.51562 0.49223 0.71658 0.0
H450 H 0.51048 0.47872 0.81654 0.0
H451 H 0.50761 0.4178 0.81274 0.0
H452 H 0.94644 0.41154 0.22516 0.0
H453 H 0.94171 0.47246 0.21459 0.0
H454 H 0.03105 0.48472 0.25489 0.0
H455 H 0.0357 0.42464 0.26517 0.0
H456 H 0.95474 0.52259 0.26878 0.0
H457 H 0.0211 0.54007 0.16188 0.0
H458 H 1.00521 0.5004 0.17012 0.0
H459 H 0.03751 0.51377 0.19826 0.0
C460 C 0.96501 0.42738 0.23112 0.0
C461 C 0.99145 0.4136 0.2457 0.0
C462 C 0.96234 0.46205 0.22514 0.0
C463 C 0.98616 0.48314 0.23332 0.0
C464 C 0.01253 0.46902 0.24749 0.0
H465 H 0.04501 0.67865 0.28277 0.0
H466 H 0.03607 0.61992 0.26703 0.0
C467 C 0.01512 0.43471 0.25365 0.0
C468 C 0.98367 0.52017 0.23037 0.0
H469 H 0.01517 0.58824 0.19844 0.0
C470 C 0.96736 0.53703 0.25271 0.0
C471 C 1.0002 0.539 0.20943 0.0
C472 C 0.01678 0.52241 0.18327 0.0
C473 C 0.96869 0.57203 0.25661 0.0
C474 C 0.98655 0.59069 0.2373 0.0
C475 C 1.00165 0.57395 0.21344 0.0
C476 C 0.99188 0.627 0.24411 0.0
C477 C 0.95234 0.5886 0.28306 0.0
C478 C 0.97016 0.65078 0.23569 0.0
C479 C 0.97523 0.68458 0.24461 0.0
C480 C 1.00212 0.6952 0.26219 0.0
C481 C 0.02401 0.67142 0.26944 0.0
C482 C 0.01896 0.63777 0.26039 0.0
H483 H 0.94312 0.57013 0.30005 0.0
H484 H 0.96628 0.60591 0.30123 0.0
H485 H 0.93474 0.6035 0.26778 0.0
H486 H 0.9492 0.64314 0.22265 0.0
H487 H 0.95791 0.70222 0.23851 0.0
H488 H 0.45415 0.33848 0.2447 0.0
H489 H 0.44332 0.39688 0.22795 0.0
H490 H 0.53274 0.41955 0.24477 0.0
H491 H 0.54372 0.36144 0.26113 0.0
H492 H 0.45625 0.45002 0.27268 0.0
H493 H 0.50558 0.4686 0.15049 0.0
H494 H 0.49908 0.42751 0.16745 0.0
H495 H 0.53036 0.4506 0.18664 0.0
C496 C 0.47154 0.35575 0.24412 0.0
C497 C 0.49984 0.34522 0.25439 0.0
C498 C 0.46529 0.38917 0.23456 0.0
C499 C 0.48719 0.41265 0.2346 0.0
C500 C 0.51545 0.40188 0.24367 0.0
H501 H 0.52897 0.61354 0.26515 0.0
H502 H 0.52343 0.55382 0.25234 0.0
C503 C 0.5217 0.36858 0.25334 0.0
C504 C 0.48078 0.44897 0.22918 0.0
H505 H 0.49959 0.51854 0.18548 0.0
C506 C 0.46511 0.46491 0.25299 0.0
C507 C 0.49218 0.46848 0.20335 0.0
C508 C 0.50747 0.45282 0.17529 0.0
C509 C 0.46238 0.49991 0.25352 0.0
C510 C 0.47543 0.51952 0.22937 0.0
C511 C 0.48965 0.5035 0.20407 0.0
C512 C 0.47817 0.55637 0.23368 0.0
C513 C 0.44717 0.51585 0.28154 0.0
C514 C 0.45456 0.57787 0.22693 0.0
C515 C 0.45774 0.61229 0.23418 0.0
C516 C 0.48457 0.62541 0.24821 0.0
C517 C 0.50808 0.60393 0.25432 0.0
C518 C 0.50496 0.56987 0.24685 0.0
H519 H 0.44069 0.49724 0.3007 0.0
H520 H 0.46099 0.53485 0.29736 0.0
H521 H 0.42786 0.52879 0.26766 0.0
H522 H 0.43371 0.56798 0.21652 0.0
H523 H 0.43935 0.6285 0.22931 0.0
H524 H 0.04715 0.36421 0.69222 0.0
H525 H 0.05197 0.42185 0.71263 0.0
H526 H 0.04721 0.39062 0.82213 0.0
H527 H 0.04118 0.33227 0.80131 0.0
H528 H 0.01705 0.44484 0.80727 0.0
H529 H 0.11965 0.4692 0.76408 0.0
H530 H 0.09547 0.45389 0.72584 0.0
H531 H 0.10544 0.42749 0.76511 0.0
C532 C 0.0473 0.3694 0.72075 0.0
C533 C 0.04403 0.34348 0.74518 0.0
C534 C 0.05037 0.40251 0.7325 0.0
C535 C 0.05097 0.41072 0.76921 0.0
C536 C 0.04724 0.38497 0.79374 0.0
H537 H 0.08219 0.62817 0.80082 0.0
H538 H 0.08939 0.56781 0.81289 0.0
C539 C 0.04376 0.35163 0.78183 0.0
C540 C 0.05392 0.44648 0.78086 0.0
H541 H 0.08921 0.51818 0.76597 0.0
C542 C 0.03322 0.46071 0.79891 0.0
C543 C 0.07557 0.46737 0.77138 0.0
C544 C 0.10045 0.45353 0.75596 0.0
C545 C 0.03211 0.49543 0.80461 0.0
C546 C 0.05156 0.51665 0.79074 0.0
C547 C 0.07379 0.50216 0.77581 0.0
C548 C 0.04707 0.55349 0.78716 0.0
C549 C 1.00973 0.50907 0.82484 0.0
C550 C 0.02116 0.56554 0.76846 0.0
C551 C 0.01711 0.59962 0.76177 0.0
C552 C 0.0389 0.62261 0.77341 0.0
C553 C 0.06497 0.61089 0.79204 0.0
C554 C 0.06904 0.57649 0.79887 0.0
H555 H 1.00483 0.49088 0.84544 0.0
H556 H 0.0165 0.53299 0.83869 0.0
H557 H 0.98986 0.51342 0.8054 0.0
H558 H 1.0042 0.54846 0.75795 0.0
H559 H 0.99687 0.60804 0.74708 0.0
H560 H 0.04786 0.43239 0.13692 0.0
H561 H 0.05253 0.47039 0.08702 0.0
H562 H 0.96163 0.48199 0.06404 0.0
H563 H 0.95665 0.44382 0.11384 0.0
H564 H 0.98831 0.46052 1.00377 0.0
H565 H 0.04068 0.57247 0.07364 0.0
H566 H 0.05518 0.53268 0.08961 0.0
H567 H 0.01981 0.54365 0.09556 0.0
C568 C 0.02887 0.44351 0.12173 0.0
C569 C 1.00187 0.43483 0.12904 0.0
C570 C 0.03161 0.46532 0.09332 0.0
C571 C 1.00742 0.47891 0.07195 0.0
C572 C 0.98052 0.47164 0.0803 0.0
H573 H 0.97804 0.59904 0.87787 0.0
H574 H 0.97352 0.55934 0.9263 0.0
C575 C 0.97775 0.44993 0.1088 0.0
C576 C 1.01011 0.49827 0.03902 0.0
H577 H 0.03786 0.56985 1.00986 0.0
C578 C 0.999 0.48452 1.00501 0.0
C579 C 0.02425 0.52936 0.04091 0.0
C580 C 0.03554 0.54567 0.07684 0.0
C581 C 1.00198 0.50099 0.97267 0.0
C582 C 0.01613 0.53208 0.97459 0.0
C583 C 0.02724 0.5458 1.0086 0.0
C584 C 0.01872 0.55168 0.94178 0.0
C585 C 0.99048 0.48481 0.93673 0.0
C586 C 0.04561 0.55991 0.93405 0.0
C587 C 0.04829 0.58264 0.90644 0.0
C588 C 0.02408 0.59779 0.8865 0.0
C589 C 0.99709 0.58793 0.89289 0.0
C590 C 0.99445 0.56513 0.92044 0.0
H591 H 0.98644 0.45769 0.93978 0.0
H592 H 0.97012 0.4969 0.92507 0.0
H593 H 1.00543 0.48805 0.91714 0.0
H594 H 0.06456 0.54969 0.95028 0.0
H595 H 0.06937 0.58953 0.90198 0.0
H596 H 0.5437 0.60077 0.14309 0.0
H597 H 0.54662 0.5551 0.10045 0.0
H598 H 0.45691 0.53697 0.09326 0.0
H599 H 0.45363 0.583 0.13561 0.0
H600 H 0.53044 0.48573 0.09535 0.0
H601 H 0.46744 0.56572 0.98945 0.0
H602 H 0.48304 0.58171 0.03343 0.0
H603 H 0.45131 0.55689 0.02866 0.0
C604 C 0.52465 0.58674 0.13295 0.0
C605 C 0.49828 0.59604 0.14187 0.0
C606 C 0.5264 0.56058 0.10869 0.0
C607 C 0.50186 0.54332 0.09315 0.0
C608 C 0.47595 0.55057 0.10447 0.0
H609 H 0.47543 0.40881 0.90777 0.0
H610 H 0.4694 0.4436 0.9598 0.0
C611 C 0.47414 0.57683 0.12863 0.0
C612 C 0.50301 0.52047 0.06238 0.0
H613 H 0.48231 0.5135 0.97067 0.0
C614 C 0.51979 0.4916 0.06812 0.0
C615 C 0.48924 0.52851 0.02689 0.0
C616 C 0.47191 0.56 0.01898 0.0
C617 C 0.52312 0.47043 0.03913 0.0
C618 C 0.50972 0.47881 1.00362 0.0
C619 C 0.49257 0.50733 0.998 0.0
C620 C 0.51346 0.45851 0.97175 0.0
C621 C 0.54077 0.43917 0.04664 0.0
C622 C 0.54007 0.45632 0.96071 0.0
C623 C 0.54358 0.43668 0.93081 0.0
C624 C 0.52048 0.41893 0.9116 0.0
C625 C 0.49366 0.4221 0.92209 0.0
C626 C 0.49017 0.44184 0.95185 0.0
H627 H 0.5443 0.4325 0.07595 0.0
H628 H 0.53042 0.41776 0.03073 0.0
H629 H 0.56176 0.44328 0.03835 0.0
H630 H 0.55816 0.46963 0.97539 0.0
H631 H 0.5645 0.43475 0.92337 0.0
H632 H 0.47157 0.09797 0.37697 0.0
H633 H 0.46579 0.06019 0.42678 0.0
H634 H 0.5566 0.05598 0.45913 0.0
H635 H 0.5627 0.09359 0.40934 0.0
H636 H 0.52609 0.99264 0.45981 0.0
H637 H 0.48207 0.09567 0.53401 0.0
H638 H 0.46526 0.08889 0.48781 0.0
H639 H 0.50133 0.10324 0.49701 0.0
C640 C 0.49034 0.08865 0.39436 0.0
C641 C 0.51758 0.09913 0.38962 0.0
C642 C 0.48697 0.06723 0.42285 0.0
C643 C 0.51076 0.05601 0.4469 0.0
C644 C 0.53802 0.06473 0.44094 0.0
H645 H 0.54167 0.93607 0.64187 0.0
H646 H 0.54581 0.97441 0.59202 0.0
C647 C 0.54143 0.08622 0.41254 0.0
C648 C 0.50729 0.03647 0.47935 0.0
H649 H 0.48418 0.04213 0.56099 0.0
C650 C 0.51694 1.00337 0.48197 0.0
C651 C 0.49539 0.05078 0.50808 0.0
C652 C 0.48557 0.08667 0.50693 0.0
C653 C 0.5147 0.98392 0.51259 0.0
C654 C 0.50303 0.99832 0.54149 0.0
C655 C 0.49321 0.03136 0.53876 0.0
C656 C 0.50053 0.97909 0.5745 0.0
C657 C 0.52439 0.94796 0.51355 0.0
C658 C 0.47367 0.97073 0.58225 0.0
C659 C 0.47119 0.94898 0.6108 0.0
C660 C 0.4956 0.93537 0.63196 0.0
C661 C 0.52248 0.94577 0.6257 0.0
C662 C 0.52491 0.96753 0.59719 0.0
H663 H 0.52666 0.93867 0.48611 0.0
H664 H 0.54535 0.94587 0.53131 0.0
H665 H 0.50924 0.93154 0.52485 0.0
H666 H 0.45464 0.97979 0.56517 0.0
H667 H 0.45019 0.94165 0.61516 0.0
H668 H 0.0712 0.94268 0.40601 0.0
H669 H 0.06588 0.98264 0.45407 0.0
H670 H 0.9749 0.97255 0.429 0.0
H671 H 0.97992 0.93291 0.38064 0.0
H672 H 0.99457 0.03905 0.44444 0.0
H673 H 0.04232 0.94777 0.54936 0.0
H674 H 0.06362 0.95751 0.51528 0.0
H675 H 0.0304 0.93612 0.50259 0.0
C676 C 0.05004 0.94933 0.41036 0.0
C677 C 0.02597 0.93423 0.39002 0.0
C678 C 0.04707 0.972 0.43792 0.0
C679 C 0.02005 0.97975 0.44554 0.0
C680 C 0.99594 0.9665 0.4237 0.0
H681 H 0.95443 0.09173 0.61266 0.0
H682 H 0.96052 0.05208 0.56451 0.0
C683 C 0.99887 0.94385 0.39614 0.0
C684 C 0.01686 1.00025 0.47747 0.0
H685 H 0.03115 1.00126 0.57021 0.0
C686 C 1.00248 0.03082 0.47195 0.0
C687 C 0.02709 0.98915 0.51325 0.0
C688 C 0.04151 0.95572 0.52067 0.0
C689 C 0.99848 0.05097 0.50141 0.0
C690 C 1.00885 0.03995 0.53711 0.0
C691 C 0.02321 1.00942 0.54268 0.0
C692 C 1.00567 0.0605 0.56892 0.0
C693 C 0.98362 0.08417 0.49428 0.0
C694 C 0.0293 0.07704 0.58813 0.0
C695 C 0.02593 0.09966 0.61553 0.0
C696 C 0.99887 0.10592 0.62415 0.0
C697 C 0.9755 0.08762 0.60641 0.0
C698 C 0.97889 0.0651 0.57887 0.0
H699 H 0.98083 0.09132 0.46513 0.0
H700 H 0.96235 0.0827 0.50245 0.0
H701 H 0.99575 0.10417 0.5107 0.0
H702 H 0.05015 0.07348 0.58088 0.0
H703 H 0.04438 0.11315 0.62897 0.0
H704 H 0.82721 0.3449 0.16258 0.0
H705 H 0.78689 0.34775 0.11338 0.0
H706 H 0.84374 0.34787 0.03488 0.0
H707 H 0.88431 0.34361 0.08375 0.0
H708 H 0.77101 0.3936 0.05977 0.0
H709 H 0.79128 0.27093 0.99951 0.0
H710 H 0.80944 0.28406 0.0435 0.0
H711 H 0.82057 0.29948 1.00279 0.0
C712 C 0.83132 0.34545 0.13489 0.0
C713 C 0.8593 0.34403 0.1275 0.0
C714 C 0.80812 0.34725 0.10673 0.0
C715 C 0.81218 0.34751 0.07037 0.0
C716 C 0.84002 0.34706 0.06273 0.0
H717 H 0.69746 0.34913 0.86456 0.0
H718 H 0.73799 0.35282 0.91345 0.0
C719 C 0.86333 0.34513 0.09092 0.0
C720 C 0.78718 0.34784 0.04067 0.0
H721 H 0.75441 0.30383 0.96701 0.0
C722 C 0.76735 0.37394 0.03952 0.0
C723 C 0.78227 0.32207 0.01435 0.0
C724 C 0.80184 0.29237 0.01518 0.0
C725 C 0.74308 0.37525 0.01248 0.0
C726 C 0.73832 0.34959 0.9861 0.0
C727 C 0.75812 0.32354 0.98721 0.0
C728 C 0.71313 0.34936 0.95675 0.0
C729 C 0.72299 0.40439 0.01193 0.0
C730 C 0.68553 0.34621 0.96477 0.0
C731 C 0.66211 0.34395 0.93675 0.0
C732 C 0.66585 0.34475 0.90005 0.0
C733 C 0.6936 0.34832 0.89236 0.0
C734 C 0.7169 0.3505 0.92031 0.0
H735 H 0.73284 0.42559 0.02869 0.0
H736 H 0.71594 0.41332 0.98371 0.0
H737 H 0.70393 0.39628 0.02304 0.0
H738 H 0.68216 0.34457 0.99273 0.0
H739 H 0.64131 0.34041 0.94404 0.0
H740 H 0.32566 0.69472 0.16195 0.0
H741 H 0.28518 0.68977 0.11311 0.0
H742 H 0.34154 0.69045 0.03402 0.0
H743 H 0.38235 0.69551 0.08274 0.0
H744 H 0.26911 0.73502 0.05806 0.0
H745 H 0.28972 0.61115 1.00071 0.0
H746 H 0.30749 0.625 0.04468 0.0
H747 H 0.31886 0.63997 1.00398 0.0
C748 C 0.32961 0.69353 0.13421 0.0
C749 C 0.35748 0.69525 0.12655 0.0
C750 C 0.30635 0.69065 0.10627 0.0
C751 C 0.31025 0.68933 0.06986 0.0
C752 C 0.338 0.69064 0.06195 0.0
H753 H 0.19791 0.69323 0.86285 0.0
H754 H 0.23772 0.68996 0.91279 0.0
C755 C 0.3614 0.69348 0.08997 0.0
C756 C 0.28509 0.68861 0.04036 0.0
H757 H 0.25253 0.64344 0.96745 0.0
C758 C 0.26539 0.71487 0.03838 0.0
C759 C 0.28026 0.66238 0.01463 0.0
C760 C 0.30003 0.63284 0.01616 0.0
C761 C 0.24136 0.71602 1.01102 0.0
C762 C 0.2365 0.68979 0.98526 0.0
C763 C 0.25616 0.66346 0.98727 0.0
C764 C 0.21179 0.69001 0.95512 0.0
C765 C 0.22186 0.74585 1.00933 0.0
C766 C 0.18376 0.69045 0.96213 0.0
C767 C 0.16076 0.69251 0.9335 0.0
C768 C 0.16531 0.6939 0.89715 0.0
C769 C 0.19345 0.69246 0.89038 0.0
C770 C 0.21634 0.69043 0.91895 0.0
H771 H 0.23219 0.76734 0.02513 0.0
H772 H 0.21487 0.75398 0.9808 0.0
H773 H 0.20273 0.73893 0.02098 0.0
H774 H 0.17967 0.68959 0.98982 0.0
H775 H 0.13959 0.694 0.94012 0.0
H776 H 0.3724 0.87948 0.60394 0.0
H777 H 0.3314 0.88495 0.55536 0.0
H778 H 0.29633 0.79376 0.59071 0.0
H779 H 0.33686 0.78823 0.63933 0.0
H780 H 0.31087 0.84535 0.49831 0.0
H781 H 0.22987 0.85615 0.58772 0.0
H782 H 0.26737 0.85933 0.60475 0.0
H783 H 0.25073 0.81898 0.59711 0.0
C784 C 0.35614 0.86039 0.60123 0.0
C785 C 0.35806 0.83335 0.62571 0.0
C786 C 0.33255 0.8637 0.57354 0.0
C787 C 0.31038 0.84019 0.56981 0.0
C788 C 0.31265 0.81281 0.59362 0.0
H789 H 0.1879 0.79063 0.38177 0.0
H790 H 0.22823 0.79569 0.43074 0.0
C791 C 0.33602 0.80958 0.62134 0.0
C792 C 0.28518 0.84354 0.54057 0.0
H793 H 0.2126 0.84283 0.52522 0.0
C794 C 0.2894 0.84516 0.50424 0.0
C795 C 0.25707 0.844 0.54818 0.0
C796 C 0.25096 0.8449 0.58658 0.0
C797 C 0.26638 0.84572 0.47539 0.0
C798 C 0.2383 0.84382 0.48294 0.0
C799 C 0.23406 0.84374 0.5193 0.0
C800 C 0.21318 0.84067 0.45355 0.0
C801 C 0.27245 0.84846 0.43707 0.0
C802 C 0.19052 0.86346 0.45076 0.0
C803 C 0.16706 0.8604 0.42284 0.0
C804 C 0.16574 0.83433 0.39721 0.0
C805 C 0.18826 0.81125 0.40066 0.0
C806 C 0.21151 0.81422 0.42859 0.0
H807 H 0.2933 0.86058 0.43644 0.0
H808 H 0.27323 0.82303 0.42541 0.0
H809 H 0.25574 0.863 0.41953 0.0
H810 H 0.19121 0.88398 0.46982 0.0
H811 H 0.15041 0.87896 0.42088 0.0
H812 H 0.82509 0.22301 0.65044 0.0
H813 H 0.78516 0.21964 0.60101 0.0
H814 H 0.83689 0.16623 0.53582 0.0
H815 H 0.87681 0.168 0.58568 0.0
H816 H 0.77805 0.24409 0.53332 0.0
H817 H 0.76848 0.10595 0.52698 0.0
H818 H 0.7906 0.1272 0.56387 0.0
H819 H 0.80283 0.12107 0.52124 0.0
C820 C 0.82818 0.21028 0.62578 0.0
C821 C 0.85459 0.19587 0.62254 0.0
C822 C 0.80518 0.20852 0.59736 0.0
C823 C 0.80776 0.19226 0.56478 0.0
C824 C 0.83412 0.17832 0.56096 0.0
H825 H 0.69276 0.16869 0.36033 0.0
H826 H 0.7331 0.16892 0.40998 0.0
C827 C 0.85721 0.17987 0.58955 0.0
C828 C 0.78287 0.19056 0.53488 0.0
H829 H 0.73933 0.13654 0.4806 0.0
C830 C 0.76954 0.22054 0.52193 0.0
C831 C 0.77163 0.15984 0.52 0.0
C832 C 0.78392 0.12666 0.53392 0.0
C833 C 0.74564 0.22067 0.49433 0.0
C834 C 0.73452 0.19 0.4794 0.0
C835 C 0.74786 0.16002 0.49214 0.0
C836 C 0.70947 0.18865 0.44991 0.0
C837 C 0.73275 0.25369 0.48084 0.0
C838 C 0.68257 0.19912 0.45598 0.0
C839 C 0.65931 0.19891 0.42761 0.0
C840 C 0.66253 0.18822 0.39254 0.0
C841 C 0.68947 0.17722 0.38687 0.0
C842 C 0.71259 0.17722 0.41526 0.0
H843 H 0.74712 0.27502 0.48975 0.0
H844 H 0.72759 0.25385 0.45071 0.0
H845 H 0.71272 0.25754 0.4917 0.0
H846 H 0.67962 0.20775 0.48263 0.0
H847 H 0.6391 0.20806 0.43301 0.0
H848 H 0.36314 0.17684 0.29123 0.0
H849 H 0.31326 0.19133 0.27358 0.0
H850 H 0.33661 0.29146 0.24791 0.0
H851 H 0.3868 0.27758 0.26629 0.0
H852 H 0.2883 0.24705 0.30986 0.0
H853 H 0.27473 0.25908 0.15939 0.0
H854 H 0.30263 0.23421 0.18509 0.0
H855 H 0.30527 0.27892 0.18561 0.0
C856 C 0.35784 0.2019 0.28141 0.0
C857 C 0.3792 0.22598 0.28026 0.0
C858 C 0.32925 0.21005 0.27124 0.0
C859 C 0.32129 0.24236 0.25932 0.0
C860 C 0.34241 0.26621 0.25659 0.0
H861 H 0.16457 0.35059 0.21102 0.0
H862 H 0.21258 0.32879 0.21607 0.0
C863 C 0.37116 0.25813 0.26698 0.0
C864 C 0.29088 0.25172 0.25306 0.0
H865 H 0.23565 0.27432 0.18744 0.0
C866 C 0.27668 0.25284 0.28309 0.0
C867 C 0.27595 0.25932 0.21814 0.0
C868 C 0.29024 0.25769 0.18503 0.0
C869 C 0.24802 0.26217 0.2793 0.0
C870 C 0.23294 0.26968 0.24431 0.0
C871 C 0.24715 0.26829 0.21419 0.0
C872 C 0.203 0.28126 0.23885 0.0
C873 C 0.2345 0.26509 0.313 0.0
C874 C 0.18134 0.26146 0.24915 0.0
C875 C 0.15368 0.274 0.24661 0.0
C876 C 0.14717 0.30652 0.23338 0.0
C877 C 0.16877 0.3256 0.22173 0.0
C878 C 0.19629 0.31311 0.22437 0.0
H879 H 0.25062 0.26641 0.33808 0.0
H880 H 0.22084 0.28765 0.31177 0.0
H881 H 0.22104 0.24281 0.31512 0.0
H882 H 0.18595 0.23654 0.25982 0.0
H883 H 0.13782 0.25861 0.25619 0.0
H884 H 0.36038 0.35597 0.8088 0.0
H885 H 0.31153 0.33628 0.80157 0.0
H886 H 0.33446 0.24824 0.74639 0.0
H887 H 0.38366 0.26774 0.75353 0.0
H888 H 0.27544 0.32432 0.73734 0.0
H889 H 0.29039 0.20943 0.8218 0.0
H890 H 0.31731 0.24136 0.82388 0.0
H891 H 0.31234 0.21173 0.78715 0.0
C892 C 0.35519 0.33225 0.79532 0.0
C893 C 0.37613 0.31337 0.78199 0.0
C894 C 0.32719 0.32105 0.79123 0.0
C895 C 0.31935 0.29066 0.77376 0.0
C896 C 0.34015 0.27146 0.76065 0.0
H897 H 0.16089 0.18559 0.71461 0.0
H898 H 0.20944 0.20625 0.72229 0.0
C899 C 0.36833 0.28263 0.76484 0.0
C900 C 0.28915 0.28003 0.7681 0.0
H901 H 0.24469 0.21816 0.78738 0.0
C902 C 0.26868 0.30115 0.74838 0.0
C903 C 0.28037 0.24987 0.78261 0.0
C904 C 0.30117 0.22688 0.80533 0.0
C905 C 0.23975 0.29263 0.74217 0.0
C906 C 0.23099 0.26241 0.75656 0.0
C907 C 0.25145 0.24135 0.77638 0.0
C908 C 0.20088 0.25143 0.75038 0.0
C909 C 0.21891 0.31562 0.7195 0.0
C910 C 0.17973 0.27012 0.7634 0.0
C911 C 0.15169 0.25837 0.75895 0.0
C912 C 0.14443 0.22757 0.74164 0.0
C913 C 0.16569 0.2093 0.72827 0.0
C914 C 0.19352 0.22107 0.7326 0.0
H915 H 0.22969 0.33346 0.70345 0.0
H916 H 0.20305 0.30112 0.70057 0.0
H917 H 0.2074 0.33032 0.73767 0.0
H918 H 0.18505 0.29333 0.77785 0.0
H919 H 0.13608 0.27282 0.77024 0.0
H920 H 0.88774 0.76827 0.80192 0.0
H921 H 0.83885 0.78773 0.7997 0.0
H922 H 0.80833 0.70531 0.72963 0.0
H923 H 0.85684 0.68576 0.73143 0.0
H924 H 0.79578 0.80484 0.7396 0.0
H925 H 0.76477 0.69524 0.81543 0.0
H926 H 0.80133 0.7057 0.81402 0.0
H927 H 0.78032 0.68474 0.77623 0.0
C928 C 0.87074 0.75461 0.78546 0.0
C929 C 0.87633 0.72535 0.76688 0.0
C930 C 0.84275 0.76564 0.78448 0.0
C931 C 0.81993 0.74753 0.76514 0.0
C932 C 0.82555 0.7192 0.74544 0.0
H933 H 0.63584 0.76698 0.72512 0.0
H934 H 0.68489 0.7476 0.72883 0.0
C935 C 0.85337 0.70816 0.74641 0.0
C936 C 0.79016 0.7579 0.76562 0.0
H937 H 0.72755 0.73129 0.78895 0.0
C938 C 0.7809 0.7889 0.7506 0.0
C939 C 0.77075 0.73694 0.77984 0.0
C940 C 0.77978 0.70392 0.7976 0.0
C941 C 0.75259 0.79922 0.74873 0.0
C942 C 0.73316 0.77824 0.76292 0.0
C943 C 0.74244 0.74727 0.778 0.0
C944 C 0.70327 0.7884 0.7629 0.0
C945 C 0.74356 0.83218 0.73081 0.0
C946 C 0.69726 0.81703 0.78189 0.0
C947 C 0.66934 0.82805 0.78001 0.0
C948 C 0.64668 0.81052 0.75937 0.0
C949 C 0.65262 0.7809 0.74167 0.0
C950 C 0.6807 0.76992 0.74352 0.0
H951 H 0.75861 0.84082 0.71302 0.0
H952 H 0.72204 0.83033 0.7143 0.0
H953 H 0.74294 0.85142 0.75209 0.0
H954 H 0.71426 0.83121 0.79775 0.0
H955 H 0.66556 0.85074 0.79431 0.0
H956 H 0.6626 0.67985 0.2235 0.0
H957 H 0.7113 0.69977 0.22924 0.0
H958 H 0.68733 0.79232 0.27501 0.0
H959 H 0.63838 0.77227 0.27021 0.0
H960 H 0.7337 0.75631 0.20005 0.0
H961 H 0.75353 0.75827 0.35106 0.0
H962 H 0.72333 0.73733 0.32514 0.0
H963 H 0.72331 0.782 0.33006 0.0
C964 C 0.66756 0.7045 0.23482 0.0
C965 C 0.64644 0.72439 0.24643 0.0
C966 C 0.69546 0.71587 0.23794 0.0
C967 C 0.70304 0.7473 0.25299 0.0
C968 C 0.68198 0.76773 0.26379 0.0
H969 H 0.86077 0.85547 0.29931 0.0
H970 H 0.81223 0.83505 0.29301 0.0
C971 C 0.65391 0.75638 0.2606 0.0
C972 C 0.73312 0.75822 0.25758 0.0
H973 H 0.79029 0.77852 0.32152 0.0
C974 C 0.74611 0.76114 0.2266 0.0
C975 C 0.74929 0.76425 0.29227 0.0
C976 C 0.73682 0.76006 0.32662 0.0
C977 C 0.77471 0.7706 0.22929 0.0
C978 C 0.79088 0.77669 0.26398 0.0
C979 C 0.77789 0.77369 0.29497 0.0
C980 C 0.82087 0.78795 0.26861 0.0
C981 C 0.78716 0.77485 0.19493 0.0
C982 C 0.84211 0.76796 0.25758 0.0
C983 C 0.87012 0.77963 0.26105 0.0
C984 C 0.87734 0.8115 0.27577 0.0
C985 C 0.85603 0.83094 0.28755 0.0
C986 C 0.82821 0.81928 0.28413 0.0
H987 H 0.77044 0.77662 0.17051 0.0
H988 H 0.80061 0.79761 0.19641 0.0
H989 H 0.8007 0.75294 0.19146 0.0
H990 H 0.83698 0.74344 0.24604 0.0
H991 H 0.88579 0.76407 0.25129 0.0
H992 H 0.99335 0.26224 0.79751 0.0
H993 H 0.99878 0.28644 0.85881 0.0
H994 H 0.05204 0.20364 0.90066 0.0
H995 H 0.04645 0.17943 0.83978 0.0
H996 H 0.97844 0.24436 0.9127 0.0
H997 H 0.0895 0.28543 0.95912 0.0
H998 H 0.07394 0.283 0.91161 0.0
H999 H 0.08546 0.24565 0.93638 0.0
C1000 C 1.00742 0.25021 0.81946 0.0
C1001 C 0.01966 0.21913 0.81395 0.0
C1002 C 1.01027 0.26383 0.85455 0.0
C1003 C 0.02583 0.24685 0.88436 0.0
C1004 C 0.04027 0.21745 0.87812 0.0
H1005 H 0.03915 0.25258 0.1209 0.0
H1006 H 0.04434 0.23923 0.05803 0.0
C1007 C 0.03711 0.20365 0.84326 0.0
C1008 C 0.02298 0.25615 0.92219 0.0
H1009 H 0.06046 0.27868 1.00473 0.0
C1010 C 0.9963 0.2523 0.93273 0.0
C1011 C 0.04642 0.26567 0.94845 0.0
C1012 C 0.07546 0.27046 0.93842 0.0
C1013 C 0.99246 0.25713 0.9689 0.0
C1014 C 0.01581 0.26709 0.99523 0.0
C1015 C 0.04255 0.27102 0.98465 0.0
C1016 C 0.01257 0.27458 0.0335 0.0
C1017 C 0.96355 0.25038 0.97869 0.0
C1018 C 0.99313 0.29892 0.04072 0.0
C1019 C 0.98984 0.30621 0.07639 0.0
C1020 C 1.00629 0.28978 0.10603 0.0
C1021 C 0.02595 0.2655 0.09883 0.0
C1022 C 0.02907 0.258 0.06289 0.0
H1023 H 0.95103 0.23299 0.95904 0.0
H1024 H 0.96525 0.23954 1.00635 0.0
H1025 H 0.95159 0.27421 0.97798 0.0
H1026 H 0.98068 0.31271 0.0187 0.0
H1027 H 0.97474 0.3254 0.08064 0.0
H1028 H 0.45807 0.19585 0.18852 0.0
H1029 H 0.45339 0.21724 0.12636 0.0
H1030 H 0.52795 0.27806 0.15751 0.0
H1031 H 0.53195 0.25757 0.22011 0.0
H1032 H 0.4902 0.30729 0.10228 0.0
H1033 H 0.50885 0.17471 0.06912 0.0
H1034 H 0.4773 0.18103 0.08847 0.0
H1035 H 0.51148 0.1894 0.11521 0.0
C1036 C 0.47259 0.21506 0.18246 0.0
C1037 C 0.49527 0.22522 0.20909 0.0
C1038 C 0.47021 0.22684 0.14679 0.0
C1039 C 0.49096 0.24824 0.13689 0.0
C1040 C 0.51185 0.26125 0.16436 0.0
H1041 H 0.55407 0.30649 0.9428 0.0
H1042 H 0.54512 0.29554 1.0041 0.0
C1043 C 0.51394 0.24986 0.20028 0.0
C1044 C 0.49289 0.25379 0.09782 0.0
H1045 H 0.50196 0.21257 0.02009 0.0
C1046 C 0.49265 0.28657 0.08431 0.0
C1047 C 0.49641 0.22676 0.07429 0.0
C1048 C 0.49882 0.19103 0.08751 0.0
C1049 C 0.49563 0.29299 0.048 0.0
C1050 C 0.49916 0.26595 0.02463 0.0
C1051 C 0.499 0.23321 0.03794 0.0
C1052 C 0.50475 0.27121 0.98695 0.0
C1053 C 0.49494 0.3287 0.03487 0.0
C1054 C 0.4856 0.25979 0.95673 0.0
C1055 C 0.49068 0.2659 0.92127 0.0
C1056 C 0.51518 0.28327 0.91545 0.0
C1057 C 0.53488 0.29319 0.946 0.0
C1058 C 0.52971 0.28725 0.98122 0.0
H1059 H 0.48496 0.34562 0.05273 0.0
H1060 H 0.51698 0.33747 0.03488 0.0
H1061 H 0.48319 0.33073 1.00668 0.0
H1062 H 0.46636 0.24694 0.96057 0.0
H1063 H 0.475 0.25799 0.89851 0.0
H1064 H 0.04741 0.71087 0.9387 0.0
H1065 H 0.04028 0.72373 1.00017 0.0
H1066 H 0.97296 0.79196 0.9583 0.0
H1067 H 0.97944 0.77844 0.89597 0.0
H1068 H 0.04607 0.78108 0.03626 0.0
H1069 H 0.93501 0.73724 0.02784 0.0
H1070 H 0.95613 0.72794 0.99318 0.0
H1071 H 0.93969 0.76826 0.99456 0.0
C1072 C 0.03102 0.72866 0.94229 0.0
C1073 C 0.01396 0.74357 0.91211 0.0
C1074 C 0.02694 0.73593 0.97766 0.0
C1075 C 1.00575 0.75835 0.98405 0.0
C1076 C 0.98897 0.77389 0.95412 0.0
H1077 H 0.9751 0.8566 0.17822 0.0
H1078 H 0.96967 0.83225 0.11733 0.0
C1079 C 0.99292 0.76643 0.91847 0.0
C1080 C 1.00235 0.76613 0.02222 0.0
H1081 H 0.95514 0.76575 0.08207 0.0
C1082 C 0.02621 0.77746 0.04626 0.0
C1083 C 0.97645 0.76138 0.03543 0.0
C1084 C 0.95041 0.74774 0.01154 0.0
C1085 C 0.02485 0.78464 0.08278 0.0
C1086 C 0.99898 0.78008 0.09593 0.0
C1087 C 0.97502 0.76887 0.07201 0.0
C1088 C 0.9963 0.78946 0.13379 0.0
C1089 C 0.051 0.79792 0.10685 0.0
C1090 C 1.01161 0.77235 0.16368 0.0
C1091 C 0.0145 0.78611 0.1987 0.0
C1092 C 1.00216 0.81715 0.20414 0.0
C1093 C 0.98465 0.8325 0.17478 0.0
C1094 C 0.98161 0.81867 0.13993 0.0
H1095 H 0.06779 0.80534 0.09106 0.0
H1096 H 0.04561 0.81989 0.12259 0.0
H1097 H 0.05979 0.77827 0.12651 0.0
H1098 H 0.023 0.74965 0.15952 0.0
H1099 H 0.02864 0.77418 0.22064 0.0
H1100 H 0.5453 0.77933 0.12812 0.0
H1101 H 0.55335 0.79338 0.06659 0.0
H1102 H 0.48437 0.72875 0.02121 0.0
H1103 H 0.47617 0.71451 0.08215 0.0
H1104 H 0.53525 0.72023 0.99022 0.0
H1105 H 0.50145 0.85312 0.99288 0.0
H1106 H 0.52801 0.83988 0.03001 0.0
H1107 H 0.49288 0.82264 0.02507 0.0
C1108 C 0.53168 0.76832 0.10506 0.0
C1109 C 0.50997 0.74592 0.11028 0.0
C1110 C 0.53633 0.77635 0.06989 0.0
C1111 C 0.51938 0.7622 0.03926 0.0
C1112 C 0.49775 0.73991 0.04439 0.0
H1113 H 0.49338 0.77721 0.80517 0.0
H1114 H 0.5003 0.75466 0.86704 0.0
C1115 C 0.49301 0.73197 0.07939 0.0
C1116 C 0.5238 0.77069 1.00174 0.0
H1117 H 0.51781 0.83453 0.94035 0.0
C1118 C 0.53161 0.74526 0.9793 0.0
C1119 C 0.51902 0.8033 0.98752 0.0
C1120 C 0.50966 0.83134 1.0099 0.0
C1121 C 0.53488 0.75164 0.94307 0.0
C1122 C 0.5296 0.78418 0.92863 0.0
C1123 C 0.52209 0.80962 0.95133 0.0
C1124 C 0.53042 0.79264 0.88982 0.0
C1125 C 0.54428 0.72355 0.92085 0.0
C1126 C 0.5457 0.82081 0.88146 0.0
C1127 C 0.54145 0.83385 0.84624 0.0
C1128 C 0.52215 0.81878 0.8185 0.0
C1129 C 0.50891 0.78881 0.82587 0.0
C1130 C 0.5128 0.77599 0.86138 0.0
H1131 H 0.5564 0.70433 0.93849 0.0
H1132 H 0.5253 0.71119 0.90527 0.0
H1133 H 0.55767 0.73289 0.90133 0.0
H1134 H 0.55948 0.83407 0.90275 0.0
H1135 H 0.55169 0.85719 0.84129 0.0
H1136 H 0.54529 0.75817 0.62828 0.0
H1137 H 0.55385 0.74532 0.56656 0.0
H1138 H 0.48685 0.81289 0.52208 0.0
H1139 H 0.4781 0.82582 0.58301 0.0
H1140 H 0.51397 0.71939 0.50722 0.0
H1141 H 0.55419 0.84362 0.47361 0.0
H1142 H 0.55274 0.83078 0.51969 0.0
H1143 H 0.52117 0.84485 0.49064 0.0
C1144 C 0.53234 0.77024 0.60536 0.0
C1145 C 0.511 0.79304 0.61081 0.0
C1146 C 0.53734 0.76298 0.57011 0.0
C1147 C 0.5214 0.77872 0.53974 0.0
C1148 C 0.49988 0.80105 0.54509 0.0
H1149 H 0.49163 0.76222 0.30663 0.0
H1150 H 0.49908 0.78391 0.36904 0.0
C1151 C 0.49473 0.80813 0.5801 0.0
C1152 C 0.52605 0.7707 0.50219 0.0
H1153 H 0.54161 0.80572 0.42409 0.0
C1154 C 0.52042 0.73811 0.48919 0.0
C1155 C 0.53412 0.79531 0.47855 0.0
C1156 C 0.54115 0.83056 0.49133 0.0
C1157 C 0.52164 0.72968 0.45291 0.0
C1158 C 0.52964 0.75428 0.4291 0.0
C1159 C 0.53569 0.78682 0.44229 0.0
C1160 C 0.53041 0.74672 0.39012 0.0
C1161 C 0.51301 0.69479 0.44006 0.0
C1162 C 0.54711 0.72032 0.38058 0.0
C1163 C 0.54271 0.70786 0.34508 0.0
C1164 C 0.52216 0.72218 0.31826 0.0
C1165 C 0.50796 0.75113 0.32667 0.0
C1166 C 0.512 0.76329 0.36245 0.0
H1167 H 0.50048 0.68207 0.45864 0.0
H1168 H 0.50019 0.69523 0.41239 0.0
H1169 H 0.53232 0.67963 0.43915 0.0
H1170 H 0.56205 0.70775 0.40117 0.0
H1171 H 0.55379 0.68537 0.33927 0.0
H1172 H 0.96938 0.68324 0.68278 0.0
H1173 H 0.9618 0.70559 0.62089 0.0
H1174 H 0.0248 0.78158 0.65401 0.0
H1175 H 0.03153 0.75995 0.71644 0.0
H1176 H 0.98278 0.80332 0.59814 0.0
H1177 H 0.02429 0.67949 0.56496 0.0
H1178 H 0.99216 0.67716 0.58383 0.0
H1179 H 0.02407 0.69285 0.61104 0.0
C1180 C 0.98059 0.7057 0.67718 0.0
C1181 C 1.00101 0.71992 0.70426 0.0
C1182 C 0.97659 0.71814 0.64169 0.0
C1183 C 0.99353 0.74444 0.63245 0.0
C1184 C 1.01171 0.761 0.66037 0.0
H1185 H 0.04747 0.82262 0.43994 0.0
H1186 H 0.03881 0.80951 0.50088 0.0
C1187 C 0.01535 0.74887 0.69615 0.0
C1188 C 0.99479 0.75185 0.59357 0.0
H1189 H 1.01123 0.71658 0.51603 0.0
C1190 C 0.9889 0.78433 0.58017 0.0
C1191 C 1.00305 0.72713 0.57008 0.0
C1192 C 1.01153 0.6923 0.58321 0.0
C1193 C 0.99083 0.79265 0.54397 0.0
C1194 C 0.99911 0.76792 0.52063 0.0
C1195 C 1.00463 0.7354 0.53385 0.0
C1196 C 1.00395 0.77575 0.48313 0.0
C1197 C 0.98392 0.82783 0.53091 0.0
C1198 C 0.98783 0.76024 0.45272 0.0
C1199 C 0.99277 0.76762 0.41748 0.0
C1200 C 0.01421 0.79032 0.41207 0.0
C1201 C 0.03074 0.80504 0.44282 0.0
C1202 C 0.02566 0.79785 0.47783 0.0
H1203 H 0.97095 0.84114 0.54853 0.0
H1204 H 1.00396 0.84199 0.53142 0.0
H1205 H 0.97231 0.82786 0.50256 0.0
H1206 H 0.97117 0.74277 0.45624 0.0
H1207 H 0.97961 0.75583 0.39454 0.0
H1208 H 0.47535 0.35459 0.68547 0.0
H1209 H 0.47184 0.33371 0.62333 0.0
H1210 H 0.5322 0.25612 0.66107 0.0
H1211 H 0.53503 0.27658 0.7235 0.0
H1212 H 0.51788 0.33781 0.59147 0.0
H1213 H 0.48007 0.20667 0.58249 0.0
H1214 H 0.47526 0.23386 0.61964 0.0
H1215 H 0.50884 0.21371 0.61913 0.0
C1216 C 0.48664 0.33195 0.68072 0.0
C1217 C 0.50511 0.31686 0.70929 0.0
C1218 C 0.4849 0.32025 0.64512 0.0
C1219 C 0.50184 0.29341 0.63728 0.0
C1220 C 0.51851 0.27647 0.66631 0.0
H1221 H 0.55836 0.22136 0.44159 0.0
H1222 H 0.55215 0.23431 0.50374 0.0
C1223 C 0.51997 0.28801 0.70213 0.0
C1224 C 0.50533 0.28686 0.59886 0.0
H1225 H 0.50242 0.22632 0.53365 0.0
C1226 C 0.51417 0.31348 0.57875 0.0
C1227 C 0.50088 0.25507 0.58228 0.0
C1228 C 0.49049 0.22575 0.60186 0.0
C1229 C 0.51905 0.30915 0.5429 0.0
C1230 C 0.51463 0.27739 0.52631 0.0
C1231 C 0.5058 0.2507 0.54635 0.0
C1232 C 0.51937 0.27125 0.48835 0.0
C1233 C 0.52968 0.33843 0.52346 0.0
C1234 C 0.50335 0.28814 0.45886 0.0
C1235 C 0.50696 0.28095 0.42309 0.0
C1236 C 0.52655 0.25651 0.41605 0.0
C1237 C 0.54311 0.24039 0.44582 0.0
C1238 C 0.53948 0.24759 0.48147 0.0
H1239 H 0.53877 0.35832 0.54271 0.0
H1240 H 0.54611 0.3304 0.50741 0.0
H1241 H 0.51173 0.34941 0.50447 0.0
H1242 H 0.48742 0.30619 0.46341 0.0
H1243 H 0.49358 0.29358 0.40095 0.0
H1244 H 0.9917 0.27714 0.30132 0.0
H1245 H 0.99603 0.25535 0.36349 0.0
H1246 H 0.06343 0.32559 0.39875 0.0
H1247 H 0.05834 0.34813 0.33706 0.0
H1248 H 0.03578 0.23026 0.4202 0.0
H1249 H 1.00148 0.35771 0.45275 0.0
H1250 H 1.00164 0.34397 0.40678 0.0
H1251 H 0.03409 0.35705 0.43484 0.0
C1252 C 1.00831 0.2868 0.32201 0.0
C1253 C 0.02469 0.31429 0.31452 0.0
C1254 C 1.01058 0.27461 0.35766 0.0
C1255 C 0.02937 0.28967 0.38607 0.0
C1256 C 0.04819 0.31427 0.37753 0.0
H1257 H 0.04125 0.27867 0.62328 0.0
H1258 H 0.05 0.291 0.5616 0.0
C1259 C 0.04559 0.32679 0.34216 0.0
C1260 C 0.02696 0.2827 0.4247 0.0
H1261 H 1.01166 0.32005 0.50176 0.0
C1262 C 0.03059 0.2499 0.43804 0.0
C1263 C 0.01987 0.30829 0.44801 0.0
C1264 C 0.01376 0.34366 0.43486 0.0
C1265 C 0.02764 0.24211 0.47406 0.0
C1266 C 0.02063 0.26774 0.49724 0.0
C1267 C 0.01728 0.30053 0.48405 0.0
C1268 C 0.01522 0.26078 0.53468 0.0
C1269 C 0.03218 0.20654 0.48711 0.0
C1270 C 0.99224 0.24063 0.53996 0.0
C1271 C 0.98699 0.23388 0.575 0.0
C1272 C 1.00461 0.24711 0.60577 0.0
C1273 C 0.02721 0.2681 0.60034 0.0
C1274 C 0.03234 0.27502 0.5651 0.0
H1275 H 0.04432 0.19185 0.46958 0.0
H1276 H 0.04366 0.20576 0.51551 0.0
H1277 H 1.01127 0.19428 0.48648 0.0
H1278 H 0.97835 0.23002 0.51689 0.0
H1279 H 0.96935 0.21765 0.5779 0.0
loop_
_geom_bond_atom_site_label_1
_geom_bond_atom_site_label_2
_geom_bond_distance
_geom_bond_site_symmetry_2
_ccdc_geom_bond_type
Zn0 N4 2.020 1_655 S
Zn0 O8 2.019 . S
Zn0 N10 2.119 . S
Zn0 O18 1.975 1_655 S
C1 N2 1.334 . S
C1 N5 1.336 . S
N2 C1 1.334 . S
N2 C3 1.334 1_455 S
C3 N2 1.334 1_655 S
C3 N4 1.336 1_655 S
N4 Zn0 2.020 1_455 S
N4 C3 1.336 1_455 S
N4 N5 1.354 . S
N5 C1 1.336 . S
N5 N4 1.354 . S
N5 Zn9 2.020 . S
C6 O7 1.244 1_455 S
C6 O30 1.257 . S
O7 C6 1.244 1_655 S
O8 Zn0 2.019 . S
O8 C28 1.257 1_655 S
Zn9 N5 2.020 . S
Zn9 O16 1.975 . S
Zn9 N25 2.119 . S
Zn9 O30 2.019 . S
N10 Zn0 2.119 . S
N10 C12 1.334 . S
N10 C13 1.328 . S
C11 C12 1.391 . S
C11 N14 1.329 . S
C11 H32 0.930 . S
C12 N10 1.334 . S
C12 C11 1.391 . S
C12 H19 0.930 . S
C13 N10 1.328 . S
C13 C15 1.392 . S
C13 H20 0.930 . S
N14 C11 1.329 . S
N14 C15 1.331 . S
C15 C13 1.392 . S
C15 N14 1.331 . S
O16 Zn9 1.975 . S
O16 C17 1.252 . S
C17 O16 1.252 . S
C17 O18 1.252 . S
O18 Zn0 1.975 1_455 S
O18 C17 1.252 . S
H19 C12 0.930 . S
H20 C13 0.930 . S
C21 C22 1.392 . S
C21 N25 1.328 . S
C21 H27 0.930 . S
C22 C21 1.392 . S
C22 N26 1.331 . S
C23 C24 1.391 . S
C23 N26 1.329 . S
C23 H33 0.930 . S
C24 C23 1.391 . S
C24 N25 1.334 . S
C24 H31 0.930 . S
N25 Zn9 2.119 . S
N25 C21 1.328 . S
N25 C24 1.334 . S
N26 C22 1.331 . S
N26 C23 1.329 . S
H27 C21 0.930 . S
C28 O8 1.257 1_455 S
C28 O29 1.244 . S
O29 C28 1.244 . S
O30 C6 1.257 . S
O30 Zn9 2.019 . S
H31 C24 0.930 . S
H32 C11 0.930 . S
H33 C23 0.930 . S
Zn34 N38 2.020 . S
Zn34 O42 2.019 . S
Zn34 N44 2.119 . S
Zn34 O52 1.975 . S
C35 N36 1.334 . S
C35 N39 1.336 . S
N36 C35 1.334 . S
N36 C37 1.334 . S
C37 N36 1.334 . S
C37 N38 1.336 . S
N38 Zn34 2.020 . S
N38 C37 1.336 . S
N38 N39 1.354 . S
N39 C35 1.336 . S
N39 N38 1.354 . S
N39 Zn43 2.020 . S
C40 O41 1.244 . S
C40 O64 1.257 . S
O41 C40 1.244 . S
O42 Zn34 2.019 . S
O42 C62 1.257 . S
Zn43 N39 2.020 . S
Zn43 O50 1.975 . S
Zn43 N59 2.119 . S
Zn43 O64 2.019 . S
N44 Zn34 2.119 . S
N44 C46 1.334 . S
N44 C47 1.328 . S
C45 C46 1.391 . S
C45 N48 1.329 . S
C45 H66 0.930 . S
C46 N44 1.334 . S
C46 C45 1.391 . S
C46 H53 0.930 . S
C47 N44 1.328 . S
C47 C49 1.392 . S
C47 H54 0.930 . S
N48 C45 1.329 . S
N48 C49 1.331 . S
C49 C47 1.392 . S
C49 N48 1.331 . S
O50 Zn43 1.975 . S
O50 C51 1.252 . S
C51 O50 1.252 . S
C51 O52 1.252 . S
O52 Zn34 1.975 . S
O52 C51 1.252 . S
H53 C46 0.930 . S
H54 C47 0.930 . S
C55 C56 1.392 . S
C55 N59 1.328 . S
C55 H61 0.930 . S
C56 C55 1.392 . S
C56 N60 1.331 . S
C57 C58 1.391 . S
C57 N60 1.329 . S
C57 H67 0.930 . S
C58 C57 1.391 . S
C58 N59 1.334 . S
C58 H65 0.930 . S
N59 Zn43 2.119 . S
N59 C55 1.328 . S
N59 C58 1.334 . S
N60 C56 1.331 . S
N60 C57 1.329 . S
H61 C55 0.930 . S
C62 O42 1.257 . S
C62 O63 1.244 . S
O63 C62 1.244 . S
O64 C40 1.257 . S
O64 Zn43 2.019 . S
H65 C58 0.930 . S
H66 C45 0.930 . S
H67 C57 0.930 . S
Zn68 N72 2.020 . S
Zn68 O76 2.019 . S
Zn68 N78 2.119 . S
Zn68 O86 1.975 . S
C69 N70 1.334 1_455 S
C69 N73 1.336 1_455 S
N70 C69 1.334 1_655 S
N70 C71 1.334 . S
C71 N70 1.334 . S
C71 N72 1.336 . S
N72 Zn68 2.020 . S
N72 C71 1.336 . S
N72 N73 1.354 . S
N73 C69 1.336 1_655 S
N73 N72 1.354 . S
N73 Zn77 2.020 1_655 S
C74 O75 1.244 . S
C74 O98 1.257 1_655 S
O75 C74 1.244 . S
O76 Zn68 2.019 . S
O76 C96 1.257 . S
Zn77 N73 2.020 1_455 S
Zn77 O84 1.975 1_455 S
Zn77 N93 2.119 . S
Zn77 O98 2.019 . S
N78 Zn68 2.119 . S
N78 C80 1.334 . S
N78 C81 1.328 . S
C79 C80 1.391 . S
C79 N82 1.329 . S
C79 H100 0.930 . S
C80 N78 1.334 . S
C80 C79 1.391 . S
C80 H87 0.930 . S
C81 N78 1.328 . S
C81 C83 1.392 . S
C81 H88 0.930 . S
N82 C79 1.329 . S
N82 C83 1.331 . S
C83 C81 1.392 . S
C83 N82 1.331 . S
O84 Zn77 1.975 1_655 S
O84 C85 1.252 . S
C85 O84 1.252 . S
C85 O86 1.252 . S
O86 Zn68 1.975 . S
O86 C85 1.252 . S
H87 C80 0.930 . S
H88 C81 0.930 . S
C89 C90 1.392 . S
C89 N93 1.328 . S
C89 H95 0.930 . S
C90 C89 1.392 . S
C90 N94 1.331 . S
C91 C92 1.391 . S
C91 N94 1.329 . S
C91 H101 0.930 . S
C92 C91 1.391 . S
C92 N93 1.334 . S
C92 H99 0.930 . S
N93 Zn77 2.119 . S
N93 C89 1.328 . S
N93 C92 1.334 . S
N94 C90 1.331 . S
N94 C91 1.329 . S
H95 C89 0.930 . S
C96 O76 1.257 . S
C96 O97 1.244 1_655 S
O97 C96 1.244 1_455 S
O98 C74 1.257 1_455 S
O98 Zn77 2.019 . S
H99 C92 0.930 . S
H100 C79 0.930 . S
H101 C91 0.930 . S
Zn102 N106 2.020 . S
Zn102 O110 2.019 . S
Zn102 N112 2.119 . S
Zn102 O120 1.975 . S
C103 N104 1.334 . S
C103 N107 1.336 . S
N104 C103 1.334 . S
N104 C105 1.334 . S
C105 N104 1.334 . S
C105 N106 1.336 . S
N106 Zn102 2.020 . S
N106 C105 1.336 . S
N106 N107 1.354 . S
N107 C103 1.336 . S
N107 N106 1.354 . S
N107 Zn111 2.020 . S
C108 O109 1.244 . S
C108 O132 1.257 . S
O109 C108 1.244 . S
O110 Zn102 2.019 . S
O110 C130 1.257 . S
Zn111 N107 2.020 . S
Zn111 O118 1.975 . S
Zn111 N127 2.119 . S
Zn111 O132 2.019 . S
N112 Zn102 2.119 . S
N112 C114 1.334 . S
N112 C115 1.328 . S
C113 C114 1.391 . S
C113 N116 1.329 . S
C113 H134 0.930 . S
C114 N112 1.334 . S
C114 C113 1.391 . S
C114 H121 0.930 . S
C115 N112 1.328 . S
C115 C117 1.392 . S
C115 H122 0.930 . S
N116 C113 1.329 . S
N116 C117 1.331 . S
C117 C115 1.392 . S
C117 N116 1.331 . S
O118 Zn111 1.975 . S
O118 C119 1.252 . S
C119 O118 1.252 . S
C119 O120 1.252 . S
O120 Zn102 1.975 . S
O120 C119 1.252 . S
H121 C114 0.930 . S
H122 C115 0.930 . S
C123 C124 1.392 . S
C123 N127 1.328 . S
C123 H129 0.930 . S
C124 C123 1.392 . S
C124 N128 1.331 . S
C125 C126 1.391 . S
C125 N128 1.329 . S
C125 H135 0.930 . S
C126 C125 1.391 . S
C126 N127 1.334 . S
C126 H133 0.930 . S
N127 Zn111 2.119 . S
N127 C123 1.328 . S
N127 C126 1.334 . S
N128 C124 1.331 . S
N128 C125 1.329 . S
H129 C123 0.930 . S
C130 O110 1.257 . S
C130 O131 1.244 . S
O131 C130 1.244 . S
O132 C108 1.257 . S
O132 Zn111 2.019 . S
H133 C126 0.930 . S
H134 C113 0.930 . S
H135 C125 0.930 . S
Zn136 N140 2.020 . S
Zn136 O144 2.019 . S
Zn136 N146 2.119 . S
Zn136 O154 1.975 . S
C137 N138 1.334 . S
C137 N141 1.336 . S
N138 C137 1.334 . S
N138 C139 1.334 . S
C139 N138 1.334 . S
C139 N140 1.336 . S
N140 Zn136 2.020 . S
N140 C139 1.336 . S
N140 N141 1.354 . S
N141 C137 1.336 . S
N141 N140 1.354 . S
N141 Zn145 2.020 . S
C142 O143 1.244 . S
C142 O166 1.257 . S
O143 C142 1.244 . S
O144 Zn136 2.019 . S
O144 C164 1.257 . S
Zn145 N141 2.020 . S
Zn145 O152 1.975 . S
Zn145 N161 2.119 . S
Zn145 O166 2.019 . S
N146 Zn136 2.119 . S
N146 C148 1.334 . S
N146 C149 1.328 . S
C147 C148 1.391 . S
C147 N150 1.329 . S
C147 H168 0.930 . S
C148 N146 1.334 . S
C148 C147 1.391 . S
C148 H155 0.930 . S
C149 N146 1.328 . S
C149 C151 1.392 . S
C149 H156 0.930 . S
N150 C147 1.329 . S
N150 C151 1.331 . S
C151 C149 1.392 . S
C151 N150 1.331 . S
O152 Zn145 1.975 . S
O152 C153 1.252 . S
C153 O152 1.252 . S
C153 O154 1.252 . S
O154 Zn136 1.975 . S
O154 C153 1.252 . S
H155 C148 0.930 . S
H156 C149 0.930 . S
C157 C158 1.392 . S
C157 N161 1.328 . S
C157 H163 0.930 . S
C158 C157 1.392 . S
C158 N162 1.331 . S
C159 C160 1.391 . S
C159 N162 1.329 . S
C159 H169 0.930 . S
C160 C159 1.391 . S
C160 N161 1.334 . S
C160 H167 0.930 . S
N161 Zn145 2.119 . S
N161 C157 1.328 . S
N161 C160 1.334 . S
N162 C158 1.331 . S
N162 C159 1.329 . S
H163 C157 0.930 . S
C164 O144 1.257 . S
C164 O165 1.244 . S
O165 C164 1.244 . S
O166 C142 1.257 . S
O166 Zn145 2.019 . S
H167 C160 0.930 . S
H168 C147 0.930 . S
H169 C159 0.930 . S
Zn170 N174 2.020 . S
Zn170 O178 2.019 . S
Zn170 N180 2.119 . S
Zn170 O188 1.975 . S
C171 N172 1.334 1_455 S
C171 N175 1.336 1_455 S
N172 C171 1.334 1_655 S
N172 C173 1.334 . S
C173 N172 1.334 . S
C173 N174 1.336 . S
N174 Zn170 2.020 . S
N174 C173 1.336 . S
N174 N175 1.354 . S
N175 C171 1.336 1_655 S
N175 N174 1.354 . S
N175 Zn179 2.020 1_655 S
C176 O177 1.244 . S
C176 O200 1.257 1_655 S
O177 C176 1.244 . S
O178 Zn170 2.019 . S
O178 C198 1.257 . S
Zn179 N175 2.020 1_455 S
Zn179 O186 1.975 1_455 S
Zn179 N195 2.119 . S
Zn179 O200 2.019 . S
N180 Zn170 2.119 . S
N180 C182 1.334 . S
N180 C183 1.328 . S
C181 C182 1.391 . S
C181 N184 1.329 . S
C181 H202 0.930 . S
C182 N180 1.334 . S
C182 C181 1.391 . S
C182 H189 0.930 . S
C183 N180 1.328 . S
C183 C185 1.392 . S
C183 H190 0.930 . S
N184 C181 1.329 . S
N184 C185 1.331 . S
C185 C183 1.392 . S
C185 N184 1.331 . S
O186 Zn179 1.975 1_655 S
O186 C187 1.252 . S
C187 O186 1.252 . S
C187 O188 1.252 . S
O188 Zn170 1.975 . S
O188 C187 1.252 . S
H189 C182 0.930 . S
H190 C183 0.930 . S
C191 C192 1.392 . S
C191 N195 1.328 . S
C191 H197 0.930 . S
C192 C191 1.392 . S
C192 N196 1.331 . S
C193 C194 1.391 . S
C193 N196 1.329 . S
C193 H203 0.930 . S
C194 C193 1.391 . S
C194 N195 1.334 . S
C194 H201 0.930 . S
N195 Zn179 2.119 . S
N195 C191 1.328 . S
N195 C194 1.334 . S
N196 C192 1.331 . S
N196 C193 1.329 . S
H197 C191 0.930 . S
C198 O178 1.257 . S
C198 O199 1.244 1_655 S
O199 C198 1.244 1_455 S
O200 C176 1.257 1_455 S
O200 Zn179 2.019 . S
H201 C194 0.930 . S
H202 C181 0.930 . S
H203 C193 0.930 . S
Zn204 N208 2.020 . S
Zn204 O212 2.019 . S
Zn204 N214 2.119 . S
Zn204 O222 1.975 . S
C205 N206 1.334 . S
C205 N209 1.336 . S
N206 C205 1.334 . S
N206 C207 1.334 . S
C207 N206 1.334 . S
C207 N208 1.336 . S
N208 Zn204 2.020 . S
N208 C207 1.336 . S
N208 N209 1.354 . S
N209 C205 1.336 . S
N209 N208 1.354 . S
N209 Zn213 2.020 . S
C210 O211 1.244 . S
C210 O234 1.257 . S
O211 C210 1.244 . S
O212 Zn204 2.019 . S
O212 C232 1.257 . S
Zn213 N209 2.020 . S
Zn213 O220 1.975 . S
Zn213 N229 2.119 . S
Zn213 O234 2.019 . S
N214 Zn204 2.119 . S
N214 C216 1.334 . S
N214 C217 1.328 . S
C215 C216 1.391 . S
C215 N218 1.329 . S
C215 H236 0.930 . S
C216 N214 1.334 . S
C216 C215 1.391 . S
C216 H223 0.930 . S
C217 N214 1.328 . S
C217 C219 1.392 . S
C217 H224 0.930 . S
N218 C215 1.329 . S
N218 C219 1.331 . S
C219 C217 1.392 . S
C219 N218 1.331 . S
O220 Zn213 1.975 . S
O220 C221 1.252 . S
C221 O220 1.252 . S
C221 O222 1.252 . S
O222 Zn204 1.975 . S
O222 C221 1.252 . S
H223 C216 0.930 . S
H224 C217 0.930 . S
C225 C226 1.392 . S
C225 N229 1.328 . S
C225 H231 0.930 . S
C226 C225 1.392 . S
C226 N230 1.331 . S
C227 C228 1.391 . S
C227 N230 1.329 . S
C227 H237 0.930 . S
C228 C227 1.391 . S
C228 N229 1.334 . S
C228 H235 0.930 . S
N229 Zn213 2.119 . S
N229 C225 1.328 . S
N229 C228 1.334 . S
N230 C226 1.331 . S
N230 C227 1.329 . S
H231 C225 0.930 . S
C232 O212 1.257 . S
C232 O233 1.244 . S
O233 C232 1.244 . S
O234 C210 1.257 . S
O234 Zn213 2.019 . S
H235 C228 0.930 . S
H236 C215 0.930 . S
H237 C227 0.930 . S
Zn238 N242 2.020 . S
Zn238 O246 2.019 . S
Zn238 N248 2.119 . S
Zn238 O256 1.975 . S
C239 N240 1.334 1_655 S
C239 N243 1.336 1_655 S
N240 C239 1.334 1_455 S
N240 C241 1.334 . S
C241 N240 1.334 . S
C241 N242 1.336 . S
N242 Zn238 2.020 . S
N242 C241 1.336 . S
N242 N243 1.354 . S
N243 C239 1.336 1_455 S
N243 N242 1.354 . S
N243 Zn247 2.020 1_455 S
C244 O245 1.244 . S
C244 O268 1.257 1_455 S
O245 C244 1.244 . S
O246 Zn238 2.019 . S
O246 C266 1.257 . S
Zn247 N243 2.020 1_655 S
Zn247 O254 1.975 1_655 S
Zn247 N263 2.119 . S
Zn247 O268 2.019 . S
N248 Zn238 2.119 . S
N248 C250 1.334 . S
N248 C251 1.328 . S
C249 C250 1.391 . S
C249 N252 1.329 . S
C249 H270 0.930 . S
C250 N248 1.334 . S
C250 C249 1.391 . S
C250 H257 0.930 . S
C251 N248 1.328 . S
C251 C253 1.392 . S
C251 H258 0.930 . S
N252 C249 1.329 . S
N252 C253 1.331 . S
C253 C251 1.392 . S
C253 N252 1.331 . S
O254 Zn247 1.975 1_455 S
O254 C255 1.252 . S
C255 O254 1.252 . S
C255 O256 1.252 . S
O256 Zn238 1.975 . S
O256 C255 1.252 . S
H257 C250 0.930 . S
H258 C251 0.930 . S
C259 C260 1.392 . S
C259 N263 1.328 . S
C259 H265 0.930 . S
C260 C259 1.392 . S
C260 N264 1.331 . S
C261 C262 1.391 . S
C261 N264 1.329 . S
C261 H271 0.930 . S
C262 C261 1.391 . S
C262 N263 1.334 . S
C262 H269 0.930 . S
N263 Zn247 2.119 . S
N263 C259 1.328 . S
N263 C262 1.334 . S
N264 C260 1.331 . S
N264 C261 1.329 . S
H265 C259 0.930 . S
C266 O246 1.257 . S
C266 O267 1.244 1_455 S
O267 C266 1.244 1_655 S
O268 C244 1.257 1_655 S
O268 Zn247 2.019 . S
H269 C262 0.930 . S
H270 C249 0.930 . S
H271 C261 0.930 . S
H272 C280 0.929 . S
H273 C282 0.930 . S
H274 C284 0.930 . S
H275 C287 0.929 . S
H276 C290 0.930 . S
H277 C292 0.960 . S
H278 C292 0.960 . S
H279 C292 0.960 . S
C280 H272 0.929 . S
C280 C281 1.377 . S
C280 C282 1.384 . S
C281 C280 1.377 . S
C281 C287 1.390 1_455 S
C282 H273 0.930 . S
C282 C280 1.384 . S
C282 C283 1.372 . S
C283 C282 1.372 . S
C283 C284 1.400 1_455 S
C283 C288 1.490 1_565 S
C284 H274 0.930 . S
C284 C283 1.400 1_655 S
C284 C287 1.386 . S
H285 C301 0.930 1_655 S
H286 C302 0.931 1_655 S
C287 H275 0.929 . S
C287 C281 1.390 1_655 S
C287 C284 1.386 . S
C288 C283 1.490 1_545 S
C288 C290 1.395 . S
C288 C291 1.403 1_455 S
H289 C295 0.930 . S
C290 H276 0.930 . S
C290 C288 1.395 . S
C290 C293 1.403 . S
C291 C288 1.403 1_655 S
C291 C292 1.524 . S
C291 C295 1.400 . S
C292 H277 0.960 . S
C292 H278 0.960 . S
C292 H279 0.960 . S
C292 C291 1.524 . S
C293 C290 1.403 . S
C293 C294 1.392 . S
C293 C297 1.495 . S
C294 C293 1.392 . S
C294 C295 1.385 1_455 S
C294 C296 1.478 . S
C295 H289 0.930 . S
C295 C291 1.400 . S
C295 C294 1.385 1_655 S
C296 C294 1.478 . S
C296 C298 1.381 . S
C296 C302 1.383 . S
C297 C293 1.495 . S
C297 H303 0.959 . S
C297 H304 0.961 . S
C297 H305 0.960 . S
C298 C296 1.381 . S
C298 C299 1.394 . S
C298 H306 0.930 . S
C299 C298 1.394 . S
C299 C300 1.383 . S
C299 H307 0.929 . S
C300 C299 1.383 . S
C300 C301 1.377 . S
C301 H285 0.930 1_455 S
C301 C300 1.377 . S
C301 C302 1.379 . S
C302 H286 0.931 1_455 S
C302 C296 1.383 . S
C302 C301 1.379 . S
H303 C297 0.959 . S
H304 C297 0.961 . S
H305 C297 0.960 . S
H306 C298 0.930 . S
H307 C299 0.929 . S
H308 C316 0.929 . S
H309 C318 0.930 . S
H310 C320 0.930 . S
H311 C323 0.929 . S
H312 C326 0.930 . S
H313 C328 0.960 . S
H314 C328 0.960 . S
H315 C328 0.960 . S
C316 H308 0.929 . S
C316 C317 1.377 . S
C316 C318 1.384 . S
C317 C316 1.377 . S
C317 C323 1.390 . S
C318 H309 0.930 . S
C318 C316 1.384 . S
C318 C319 1.372 . S
C319 C318 1.372 . S
C319 C320 1.400 . S
C319 C324 1.490 1_565 S
C320 H310 0.930 . S
C320 C319 1.400 . S
C320 C323 1.386 . S
H321 C337 0.930 . S
H322 C338 0.931 . S
C323 H311 0.929 . S
C323 C317 1.390 . S
C323 C320 1.386 . S
C324 C319 1.490 1_545 S
C324 C326 1.395 . S
C324 C327 1.403 . S
H325 C331 0.930 . S
C326 H312 0.930 . S
C326 C324 1.395 . S
C326 C329 1.403 . S
C327 C324 1.403 . S
C327 C328 1.524 . S
C327 C331 1.400 . S
C328 H313 0.960 . S
C328 H314 0.960 . S
C328 H315 0.960 . S
C328 C327 1.524 . S
C329 C326 1.403 . S
C329 C330 1.392 . S
C329 C333 1.495 . S
C330 C329 1.392 . S
C330 C331 1.385 . S
C330 C332 1.478 . S
C331 H325 0.930 . S
C331 C327 1.400 . S
C331 C330 1.385 . S
C332 C330 1.478 . S
C332 C334 1.381 . S
C332 C338 1.383 . S
C333 C329 1.495 . S
C333 H339 0.959 . S
C333 H340 0.961 . S
C333 H341 0.960 . S
C334 C332 1.381 . S
C334 C335 1.394 . S
C334 H342 0.930 . S
C335 C334 1.394 . S
C335 C336 1.383 . S
C335 H343 0.929 . S
C336 C335 1.383 . S
C336 C337 1.377 . S
C337 H321 0.930 . S
C337 C336 1.377 . S
C337 C338 1.379 . S
C338 H322 0.931 . S
C338 C332 1.383 . S
C338 C337 1.379 . S
H339 C333 0.959 . S
H340 C333 0.961 . S
H341 C333 0.960 . S
H342 C334 0.930 . S
H343 C335 0.929 . S
H344 C352 0.929 . S
H345 C354 0.930 . S
H346 C356 0.930 . S
H347 C359 0.929 . S
H348 C362 0.930 . S
H349 C364 0.960 . S
H350 C364 0.960 . S
H351 C364 0.960 . S
C352 H344 0.929 . S
C352 C353 1.377 1_455 S
C352 C354 1.384 . S
C353 C352 1.377 1_655 S
C353 C359 1.390 . S
C354 H345 0.930 . S
C354 C352 1.384 . S
C354 C355 1.372 1_455 S
C355 C354 1.372 1_655 S
C355 C356 1.400 . S
C355 C360 1.490 1_545 S
C356 H346 0.930 . S
C356 C355 1.400 . S
C356 C359 1.386 . S
H357 C373 0.930 . S
H358 C374 0.931 . S
C359 H347 0.929 . S
C359 C353 1.390 . S
C359 C356 1.386 . S
C360 C355 1.490 1_565 S
C360 C362 1.395 1_655 S
C360 C363 1.403 . S
H361 C367 0.930 . S
C362 H348 0.930 . S
C362 C360 1.395 1_455 S
C362 C365 1.403 . S
C363 C360 1.403 . S
C363 C364 1.524 . S
C363 C367 1.400 . S
C364 H349 0.960 . S
C364 H350 0.960 . S
C364 H351 0.960 . S
C364 C363 1.524 . S
C365 C362 1.403 . S
C365 C366 1.392 1_455 S
C365 C369 1.495 . S
C366 C365 1.392 1_655 S
C366 C367 1.385 . S
C366 C368 1.478 . S
C367 H361 0.930 . S
C367 C363 1.400 . S
C367 C366 1.385 . S
C368 C366 1.478 . S
C368 C370 1.381 1_655 S
C368 C374 1.383 . S
C369 C365 1.495 . S
C369 H375 0.959 . S
C369 H376 0.961 . S
C369 H377 0.960 . S
C370 C368 1.381 1_455 S
C370 C371 1.394 . S
C370 H378 0.930 . S
C371 C370 1.394 . S
C371 C372 1.383 1_455 S
C371 H379 0.929 . S
C372 C371 1.383 1_655 S
C372 C373 1.377 . S
C373 H357 0.930 . S
C373 C372 1.377 . S
C373 C374 1.379 . S
C374 H358 0.931 . S
C374 C368 1.383 . S
C374 C373 1.379 . S
H375 C369 0.959 . S
H376 C369 0.961 . S
H377 C369 0.960 . S
H378 C370 0.930 . S
H379 C371 0.929 . S
H380 C388 0.929 . S
H381 C390 0.930 . S
H382 C392 0.930 . S
H383 C395 0.929 . S
H384 C398 0.930 . S
H385 C400 0.960 . S
H386 C400 0.960 . S
H387 C400 0.960 . S
C388 H380 0.929 . S
C388 C389 1.377 . S
C388 C390 1.384 . S
C389 C388 1.377 . S
C389 C395 1.390 . S
C390 H381 0.930 . S
C390 C388 1.384 . S
C390 C391 1.372 . S
C391 C390 1.372 . S
C391 C392 1.400 . S
C391 C396 1.490 . S
C392 H382 0.930 . S
C392 C391 1.400 . S
C392 C395 1.386 . S
H393 C409 0.930 . S
H394 C410 0.931 . S
C395 H383 0.929 . S
C395 C389 1.390 . S
C395 C392 1.386 . S
C396 C391 1.490 . S
C396 C398 1.395 . S
C396 C399 1.403 . S
H397 C403 0.930 . S
C398 H384 0.930 . S
C398 C396 1.395 . S
C398 C401 1.403 . S
C399 C396 1.403 . S
C399 C400 1.524 . S
C399 C403 1.400 . S
C400 H385 0.960 . S
C400 H386 0.960 . S
C400 H387 0.960 . S
C400 C399 1.524 . S
C401 C398 1.403 . S
C401 C402 1.392 . S
C401 C405 1.495 . S
C402 C401 1.392 . S
C402 C403 1.385 . S
C402 C404 1.478 1_565 S
C403 H397 0.930 . S
C403 C399 1.400 . S
C403 C402 1.385 . S
C404 C402 1.478 1_545 S
C404 C406 1.381 . S
C404 C410 1.383 . S
C405 C401 1.495 . S
C405 H411 0.959 . S
C405 H412 0.961 . S
C405 H413 0.960 . S
C406 C404 1.381 . S
C406 C407 1.394 . S
C406 H414 0.930 . S
C407 C406 1.394 . S
C407 C408 1.383 . S
C407 H415 0.929 . S
C408 C407 1.383 . S
C408 C409 1.377 . S
C409 H393 0.930 . S
C409 C408 1.377 . S
C409 C410 1.379 . S
C410 H394 0.931 . S
C410 C404 1.383 . S
C410 C409 1.379 . S
H411 C405 0.959 . S
H412 C405 0.961 . S
H413 C405 0.960 . S
H414 C406 0.930 . S
H415 C407 0.929 . S
H416 C424 0.929 . S
H417 C426 0.930 . S
H418 C428 0.930 . S
H419 C431 0.929 . S
H420 C434 0.930 . S
H421 C436 0.960 . S
H422 C436 0.960 . S
H423 C436 0.960 . S
C424 H416 0.929 . S
C424 C425 1.377 . S
C424 C426 1.384 . S
C425 C424 1.377 . S
C425 C431 1.390 . S
C426 H417 0.930 . S
C426 C424 1.384 . S
C426 C427 1.372 . S
C427 C426 1.372 . S
C427 C428 1.400 . S
C427 C432 1.490 . S
C428 H418 0.930 . S
C428 C427 1.400 . S
C428 C431 1.386 . S
H429 C445 0.930 . S
H430 C446 0.931 . S
C431 H419 0.929 . S
C431 C425 1.390 . S
C431 C428 1.386 . S
C432 C427 1.490 . S
C432 C434 1.395 . S
C432 C435 1.403 . S
H433 C439 0.930 . S
C434 H420 0.930 . S
C434 C432 1.395 . S
C434 C437 1.403 . S
C435 C432 1.403 . S
C435 C436 1.524 . S
C435 C439 1.400 . S
C436 H421 0.960 . S
C436 H422 0.960 . S
C436 H423 0.960 . S
C436 C435 1.524 . S
C437 C434 1.403 . S
C437 C438 1.392 . S
C437 C441 1.495 . S
C438 C437 1.392 . S
C438 C439 1.385 . S
C438 C440 1.478 . S
C439 H433 0.930 . S
C439 C435 1.400 . S
C439 C438 1.385 . S
C440 C438 1.478 . S
C440 C442 1.381 . S
C440 C446 1.383 . S
C441 C437 1.495 . S
C441 H447 0.959 . S
C441 H448 0.961 . S
C441 H449 0.960 . S
C442 C440 1.381 . S
C442 C443 1.394 . S
C442 H450 0.930 . S
C443 C442 1.394 . S
C443 C444 1.383 . S
C443 H451 0.929 . S
C444 C443 1.383 . S
C444 C445 1.377 . S
C445 H429 0.930 . S
C445 C444 1.377 . S
C445 C446 1.379 . S
C446 H430 0.931 . S
C446 C440 1.383 . S
C446 C445 1.379 . S
H447 C441 0.959 . S
H448 C441 0.961 . S
H449 C441 0.960 . S
H450 C442 0.930 . S
H451 C443 0.929 . S
H452 C460 0.929 . S
H453 C462 0.930 . S
H454 C464 0.930 . S
H455 C467 0.929 . S
H456 C470 0.930 . S
H457 C472 0.960 . S
H458 C472 0.960 . S
H459 C472 0.960 . S
C460 H452 0.929 . S
C460 C461 1.377 . S
C460 C462 1.384 . S
C461 C460 1.377 . S
C461 C467 1.390 1_655 S
C462 H453 0.930 . S
C462 C460 1.384 . S
C462 C463 1.372 . S
C463 C462 1.372 . S
C463 C464 1.400 1_655 S
C463 C468 1.490 . S
C464 H454 0.930 . S
C464 C463 1.400 1_455 S
C464 C467 1.386 . S
H465 C481 0.930 . S
H466 C482 0.931 . S
C467 H455 0.929 . S
C467 C461 1.390 1_455 S
C467 C464 1.386 . S
C468 C463 1.490 . S
C468 C470 1.395 . S
C468 C471 1.404 1_655 S
H469 C475 0.930 1_455 S
C470 H456 0.930 . S
C470 C468 1.395 . S
C470 C473 1.403 . S
C471 C468 1.404 1_455 S
C471 C472 1.522 . S
C471 C475 1.400 1_455 S
C472 H457 0.960 . S
C472 H458 0.960 . S
C472 H459 0.960 . S
C472 C471 1.522 . S
C473 C470 1.403 . S
C473 C474 1.392 . S
C473 C477 1.495 . S
C474 C473 1.392 . S
C474 C475 1.385 . S
C474 C476 1.478 . S
C475 H469 0.930 1_655 S
C475 C471 1.400 1_655 S
C475 C474 1.385 . S
C476 C474 1.478 . S
C476 C478 1.381 . S
C476 C482 1.383 1_655 S
C477 C473 1.495 . S
C477 H483 0.959 . S
C477 H484 0.961 . S
C477 H485 0.960 . S
C478 C476 1.381 . S
C478 C479 1.394 . S
C478 H486 0.930 . S
C479 C478 1.394 . S
C479 C480 1.383 . S
C479 H487 0.929 . S
C480 C479 1.383 . S
C480 C481 1.377 1_655 S
C481 H465 0.930 . S
C481 C480 1.377 1_455 S
C481 C482 1.379 . S
C482 H466 0.931 . S
C482 C476 1.383 1_455 S
C482 C481 1.379 . S
H483 C477 0.959 . S
H484 C477 0.961 . S
H485 C477 0.960 . S
H486 C478 0.930 . S
H487 C479 0.929 . S
H488 C496 0.929 . S
H489 C498 0.930 . S
H490 C500 0.930 . S
H491 C503 0.929 . S
H492 C506 0.930 . S
H493 C508 0.960 . S
H494 C508 0.960 . S
H495 C508 0.960 . S
C496 H488 0.929 . S
C496 C497 1.377 . S
C496 C498 1.384 . S
C497 C496 1.377 . S
C497 C503 1.390 . S
C498 H489 0.930 . S
C498 C496 1.384 . S
C498 C499 1.372 . S
C499 C498 1.372 . S
C499 C500 1.400 . S
C499 C504 1.490 . S
C500 H490 0.930 . S
C500 C499 1.400 . S
C500 C503 1.386 . S
H501 C517 0.930 . S
H502 C518 0.931 . S
C503 H491 0.929 . S
C503 C497 1.390 . S
C503 C500 1.386 . S
C504 C499 1.490 . S
C504 C506 1.395 . S
C504 C507 1.403 . S
H505 C511 0.930 . S
C506 H492 0.930 . S
C506 C504 1.395 . S
C506 C509 1.403 . S
C507 C504 1.403 . S
C507 C508 1.524 . S
C507 C511 1.400 . S
C508 H493 0.960 . S
C508 H494 0.960 . S
C508 H495 0.960 . S
C508 C507 1.524 . S
C509 C506 1.403 . S
C509 C510 1.392 . S
C509 C513 1.495 . S
C510 C509 1.392 . S
C510 C511 1.385 . S
C510 C512 1.478 . S
C511 H505 0.930 . S
C511 C507 1.400 . S
C511 C510 1.385 . S
C512 C510 1.478 . S
C512 C514 1.381 . S
C512 C518 1.383 . S
C513 C509 1.495 . S
C513 H519 0.959 . S
C513 H520 0.961 . S
C513 H521 0.960 . S
C514 C512 1.381 . S
C514 C515 1.394 . S
C514 H522 0.930 . S
C515 C514 1.394 . S
C515 C516 1.383 . S
C515 H523 0.929 . S
C516 C515 1.383 . S
C516 C517 1.377 . S
C517 H501 0.930 . S
C517 C516 1.377 . S
C517 C518 1.379 . S
C518 H502 0.931 . S
C518 C512 1.383 . S
C518 C517 1.379 . S
H519 C513 0.959 . S
H520 C513 0.961 . S
H521 C513 0.960 . S
H522 C514 0.930 . S
H523 C515 0.929 . S
H524 C532 0.929 . S
H525 C534 0.930 . S
H526 C536 0.930 . S
H527 C539 0.929 . S
H528 C542 0.930 . S
H529 C544 0.960 . S
H530 C544 0.960 . S
H531 C544 0.960 . S
C532 H524 0.929 . S
C532 C533 1.377 . S
C532 C534 1.384 . S
C533 C532 1.377 . S
C533 C539 1.390 . S
C534 H525 0.930 . S
C534 C532 1.384 . S
C534 C535 1.372 . S
C535 C534 1.372 . S
C535 C536 1.400 . S
C535 C540 1.490 . S
C536 H526 0.930 . S
C536 C535 1.400 . S
C536 C539 1.386 . S
H537 C553 0.930 . S
H538 C554 0.931 . S
C539 H527 0.929 . S
C539 C533 1.390 . S
C539 C536 1.386 . S
C540 C535 1.490 . S
C540 C542 1.395 1_455 S
C540 C543 1.403 . S
H541 C547 0.930 . S
C542 H528 0.930 . S
C542 C540 1.395 1_655 S
C542 C545 1.403 . S
C543 C540 1.403 . S
C543 C544 1.524 . S
C543 C547 1.400 . S
C544 H529 0.960 . S
C544 H530 0.960 . S
C544 H531 0.960 . S
C544 C543 1.524 . S
C545 C542 1.403 . S
C545 C546 1.392 1_655 S
C545 C549 1.495 . S
C546 C545 1.392 1_455 S
C546 C547 1.385 . S
C546 C548 1.478 . S
C547 H541 0.930 . S
C547 C543 1.400 . S
C547 C546 1.385 . S
C548 C546 1.478 . S
C548 C550 1.381 . S
C548 C554 1.383 . S
C549 C545 1.495 . S
C549 H555 0.959 . S
C549 H556 0.961 . S
C549 H557 0.960 . S
C550 C548 1.381 . S
C550 C551 1.394 . S
C550 H558 0.930 1_455 S
C551 C550 1.394 . S
C551 C552 1.383 . S
C551 H559 0.929 1_455 S
C552 C551 1.383 . S
C552 C553 1.377 . S
C553 H537 0.930 . S
C553 C552 1.377 . S
C553 C554 1.379 . S
C554 H538 0.931 . S
C554 C548 1.383 . S
C554 C553 1.379 . S
H555 C549 0.959 . S
H556 C549 0.961 . S
H557 C549 0.960 . S
H558 C550 0.930 1_655 S
H559 C551 0.929 1_655 S
H560 C568 0.929 . S
H561 C570 0.930 . S
H562 C572 0.939 . S
H563 C575 0.929 1_655 S
H564 C578 0.930 . S
H565 C580 0.960 . S
H566 C580 0.960 . S
H567 C580 0.960 . S
C568 H560 0.929 . S
C568 C569 1.377 . S
C568 C570 1.384 . S
C569 C568 1.377 . S
C569 C575 1.390 . S
C570 H561 0.930 . S
C570 C568 1.384 . S
C570 C571 1.372 . S
C571 C570 1.372 . S
C571 C572 1.390 1_455 S
C571 C576 1.490 . S
C572 H562 0.939 . S
C572 C571 1.390 1_655 S
C572 C575 1.387 1_655 S
H573 C589 0.930 . S
H574 C590 0.931 . S
C575 H563 0.929 1_455 S
C575 C569 1.390 . S
C575 C572 1.387 1_455 S
C576 C571 1.490 . S
C576 C578 1.395 1_454 S
C576 C579 1.403 . S
H577 C583 0.931 . S
C578 H564 0.930 . S
C578 C576 1.395 1_656 S
C578 C581 1.403 . S
C579 C576 1.403 . S
C579 C580 1.524 . S
C579 C583 1.412 . S
C580 H565 0.960 . S
C580 H566 0.960 . S
C580 H567 0.960 . S
C580 C579 1.524 . S
C581 C578 1.403 . S
C581 C582 1.392 . S
C581 C585 1.495 . S
C582 C581 1.392 . S
C582 C583 1.372 1_656 S
C582 C584 1.478 . S
C583 H577 0.931 . S
C583 C579 1.412 . S
C583 C582 1.372 1_454 S
C584 C582 1.478 . S
C584 C586 1.368 1_655 S
C584 C590 1.383 . S
C585 C581 1.495 . S
C585 H591 0.959 . S
C585 H592 0.961 . S
C585 H593 0.960 . S
C586 C584 1.368 1_455 S
C586 C587 1.398 1_455 S
C586 H594 0.942 . S
C587 C586 1.398 1_655 S
C587 C588 1.391 . S
C587 H595 0.921 1_655 S
C588 C587 1.391 . S
C588 C589 1.377 . S
C589 H573 0.930 . S
C589 C588 1.377 . S
C589 C590 1.379 . S
C590 H574 0.931 . S
C590 C584 1.383 . S
C590 C589 1.379 . S
H591 C585 0.959 . S
H592 C585 0.961 . S
H593 C585 0.960 . S
H594 C586 0.942 . S
H595 C587 0.921 1_455 S
H596 C604 0.929 . S
H597 C606 0.930 . S
H598 C608 0.930 . S
H599 C611 0.929 . S
H600 C614 0.930 . S
H601 C616 0.960 . S
H602 C616 0.960 . S
H603 C616 0.960 1_554 S
C604 H596 0.929 . S
C604 C605 1.377 . S
C604 C606 1.384 . S
C605 C604 1.377 . S
C605 C611 1.390 . S
C606 H597 0.930 . S
C606 C604 1.384 . S
C606 C607 1.372 . S
C607 C606 1.372 . S
C607 C608 1.400 . S
C607 C612 1.490 . S
C608 H598 0.930 . S
C608 C607 1.400 . S
C608 C611 1.386 . S
H609 C625 0.930 . S
H610 C626 0.931 . S
C611 H599 0.929 . S
C611 C605 1.390 . S
C611 C608 1.386 . S
C612 C607 1.490 . S
C612 C614 1.395 . S
C612 C615 1.403 1_554 S
H613 C619 0.930 . S
C614 H600 0.930 . S
C614 C612 1.395 . S
C614 C617 1.403 . S
C615 C612 1.403 1_556 S
C615 C616 1.524 . S
C615 C619 1.400 . S
C616 H601 0.960 . S
C616 H602 0.960 . S
C616 H603 0.960 1_556 S
C616 C615 1.524 . S
C617 C614 1.403 . S
C617 C618 1.392 1_554 S
C617 C621 1.495 . S
C618 C617 1.392 1_556 S
C618 C619 1.385 . S
C618 C620 1.478 . S
C619 H613 0.930 . S
C619 C615 1.400 . S
C619 C618 1.385 . S
C620 C618 1.478 . S
C620 C622 1.381 . S
C620 C626 1.383 . S
C621 C617 1.495 . S
C621 H627 0.959 . S
C621 H628 0.961 . S
C621 H629 0.960 1_554 S
C622 C620 1.381 . S
C622 C623 1.394 . S
C622 H630 0.930 . S
C623 C622 1.394 . S
C623 C624 1.383 . S
C623 H631 0.929 . S
C624 C623 1.383 . S
C624 C625 1.377 . S
C625 H609 0.930 . S
C625 C624 1.377 . S
C625 C626 1.379 . S
C626 H610 0.931 . S
C626 C620 1.383 . S
C626 C625 1.379 . S
H627 C621 0.959 . S
H628 C621 0.961 . S
H629 C621 0.960 1_556 S
H630 C622 0.930 . S
H631 C623 0.929 . S
H632 C640 0.929 . S
H633 C642 0.930 . S
H634 C644 0.930 . S
H635 C647 0.929 . S
H636 C650 0.930 . S
H637 C652 0.960 . S
H638 C652 0.960 . S
H639 C652 0.960 . S
C640 H632 0.929 . S
C640 C641 1.377 . S
C640 C642 1.384 . S
C641 C640 1.377 . S
C641 C647 1.390 . S
C642 H633 0.930 . S
C642 C640 1.384 . S
C642 C643 1.372 . S
C643 C642 1.372 . S
C643 C644 1.400 . S
C643 C648 1.490 . S
C644 H634 0.930 . S
C644 C643 1.400 . S
C644 C647 1.386 . S
H645 C661 0.930 . S
H646 C662 0.931 . S
C647 H635 0.929 . S
C647 C641 1.390 . S
C647 C644 1.386 . S
C648 C643 1.490 . S
C648 C650 1.395 1_545 S
C648 C651 1.403 . S
H649 C655 0.930 1_545 S
C650 H636 0.930 . S
C650 C648 1.395 1_565 S
C650 C653 1.403 . S
C651 C648 1.403 . S
C651 C652 1.524 . S
C651 C655 1.401 1_545 S
C652 H637 0.960 . S
C652 H638 0.960 . S
C652 H639 0.960 . S
C652 C651 1.524 . S
C653 C650 1.403 . S
C653 C654 1.392 . S
C653 C657 1.495 . S
C654 C653 1.392 . S
C654 C655 1.384 . S
C654 C656 1.478 . S
C655 H649 0.930 1_565 S
C655 C651 1.401 1_565 S
C655 C654 1.384 . S
C656 C654 1.478 . S
C656 C658 1.381 . S
C656 C662 1.383 . S
C657 C653 1.495 . S
C657 H663 0.959 . S
C657 H664 0.961 . S
C657 H665 0.960 . S
C658 C656 1.381 . S
C658 C659 1.394 . S
C658 H666 0.930 . S
C659 C658 1.394 . S
C659 C660 1.383 . S
C659 H667 0.929 . S
C660 C659 1.383 . S
C660 C661 1.377 . S
C661 H645 0.930 . S
C661 C660 1.377 . S
C661 C662 1.379 . S
C662 H646 0.931 . S
C662 C656 1.383 . S
C662 C661 1.379 . S
H663 C657 0.959 . S
H664 C657 0.961 . S
H665 C657 0.960 . S
H666 C658 0.930 . S
H667 C659 0.929 . S
H668 C676 0.929 . S
H669 C678 0.930 . S
H670 C680 0.930 . S
H671 C683 0.929 . S
H672 C686 0.930 . S
H673 C688 0.960 . S
H674 C688 0.960 . S
H675 C688 0.960 . S
C676 H668 0.929 . S
C676 C677 1.377 1_455 S
C676 C678 1.384 . S
C677 C676 1.377 1_655 S
C677 C683 1.390 . S
C678 H669 0.930 . S
C678 C676 1.384 . S
C678 C679 1.372 1_455 S
C679 C678 1.372 1_655 S
C679 C680 1.400 . S
C679 C684 1.490 . S
C680 H670 0.930 . S
C680 C679 1.400 . S
C680 C683 1.386 . S
H681 C697 0.930 . S
H682 C698 0.931 . S
C683 H671 0.929 . S
C683 C677 1.390 . S
C683 C680 1.386 . S
C684 C679 1.490 . S
C684 C686 1.395 1_565 S
C684 C687 1.403 1_655 S
H685 C691 0.931 . S
C686 H672 0.930 . S
C686 C684 1.395 1_545 S
C686 C689 1.403 . S
C687 C684 1.403 1_455 S
C687 C688 1.524 . S
C687 C691 1.404 . S
C688 H673 0.960 . S
C688 H674 0.960 . S
C688 H675 0.960 . S
C688 C687 1.524 . S
C689 C686 1.403 . S
C689 C690 1.390 1_655 S
C689 C693 1.495 . S
C690 C689 1.390 1_455 S
C690 C691 1.383 1_545 S
C690 C692 1.477 . S
C691 H685 0.931 . S
C691 C687 1.404 . S
C691 C690 1.383 1_565 S
C692 C690 1.477 . S
C692 C694 1.381 . S
C692 C698 1.383 1_455 S
C693 C689 1.495 . S
C693 H699 0.959 . S
C693 H700 0.961 . S
C693 H701 0.960 . S
C694 C692 1.381 . S
C694 C695 1.394 . S
C694 H702 0.930 . S
C695 C694 1.394 . S
C695 C696 1.383 . S
C695 H703 0.929 . S
C696 C695 1.383 . S
C696 C697 1.377 1_455 S
C697 H681 0.930 . S
C697 C696 1.377 1_655 S
C697 C698 1.379 . S
C698 H682 0.931 . S
C698 C692 1.383 1_655 S
C698 C697 1.379 . S
H699 C693 0.959 . S
H700 C693 0.961 . S
H701 C693 0.960 . S
H702 C694 0.930 . S
H703 C695 0.929 . S
H704 C712 0.929 . S
H705 C714 0.930 . S
H706 C716 0.930 1_556 S
H707 C719 0.929 . S
H708 C722 0.930 . S
H709 C724 0.960 1_556 S
H710 C724 0.960 . S
H711 C724 0.960 1_556 S
C712 H704 0.929 . S
C712 C713 1.377 . S
C712 C714 1.384 . S
C713 C712 1.377 . S
C713 C719 1.390 . S
C714 H705 0.930 . S
C714 C712 1.384 . S
C714 C715 1.372 . S
C715 C714 1.372 . S
C715 C716 1.400 . S
C715 C720 1.490 . S
C716 H706 0.930 1_554 S
C716 C715 1.400 . S
C716 C719 1.386 . S
H717 C733 0.930 . S
H718 C734 0.931 . S
C719 H707 0.929 . S
C719 C713 1.390 . S
C719 C716 1.386 . S
C720 C715 1.490 . S
C720 C722 1.395 . S
C720 C723 1.403 . S
H721 C727 0.930 . S
C722 H708 0.930 . S
C722 C720 1.395 . S
C722 C725 1.407 . S
C723 C720 1.403 . S
C723 C724 1.524 . S
C723 C727 1.400 1_554 S
C724 H709 0.960 1_554 S
C724 H710 0.960 . S
C724 H711 0.960 1_554 S
C724 C723 1.524 . S
C725 C722 1.407 . S
C725 C726 1.388 1_554 S
C725 C729 1.497 1_554 S
C726 C725 1.388 1_556 S
C726 C727 1.385 . S
C726 C728 1.478 . S
C727 H721 0.930 . S
C727 C723 1.400 1_556 S
C727 C726 1.385 . S
C728 C726 1.478 . S
C728 C730 1.381 . S
C728 C734 1.383 . S
C729 C725 1.497 1_556 S
C729 H735 0.949 1_556 S
C729 H736 0.992 . S
C729 H737 0.939 1_556 S
C730 C728 1.381 . S
C730 C731 1.394 . S
C730 H738 0.930 1_556 S
C731 C730 1.394 . S
C731 C732 1.383 . S
C731 H739 0.929 . S
C732 C731 1.383 . S
C732 C733 1.377 . S
C733 H717 0.930 . S
C733 C732 1.377 . S
C733 C734 1.379 . S
C734 H718 0.931 . S
C734 C728 1.383 . S
C734 C733 1.379 . S
H735 C729 0.949 1_554 S
H736 C729 0.992 . S
H737 C729 0.939 1_554 S
H738 C730 0.930 1_554 S
H739 C731 0.929 . S
H740 C748 0.929 . S
H741 C750 0.930 . S
H742 C752 0.930 1_556 S
H743 C755 0.929 . S
H744 C758 0.930 . S
H745 C760 0.960 . S
H746 C760 0.960 . S
H747 C760 0.960 . S
C748 H740 0.929 . S
C748 C749 1.377 . S
C748 C750 1.384 . S
C749 C748 1.377 . S
C749 C755 1.390 . S
C750 H741 0.930 . S
C750 C748 1.384 . S
C750 C751 1.372 . S
C751 C750 1.372 . S
C751 C752 1.400 . S
C751 C756 1.490 . S
C752 H742 0.930 1_554 S
C752 C751 1.400 . S
C752 C755 1.386 . S
H753 C769 0.930 . S
H754 C770 0.931 . S
C755 H743 0.929 . S
C755 C749 1.390 . S
C755 C752 1.386 . S
C756 C751 1.490 . S
C756 C758 1.395 . S
C756 C759 1.403 1_554 S
H757 C763 0.930 . S
C758 H744 0.930 . S
C758 C756 1.395 . S
C758 C761 1.403 . S
C759 C756 1.403 1_556 S
C759 C760 1.524 . S
C759 C763 1.400 . S
C760 H745 0.960 . S
C760 H746 0.960 . S
C760 H747 0.960 . S
C760 C759 1.524 . S
C761 C758 1.403 . S
C761 C762 1.392 1_554 S
C761 C765 1.495 . S
C762 C761 1.392 1_556 S
C762 C763 1.385 . S
C762 C764 1.478 . S
C763 H757 0.930 . S
C763 C759 1.400 . S
C763 C762 1.385 . S
C764 C762 1.478 . S
C764 C766 1.381 . S
C764 C770 1.383 . S
C765 C761 1.495 . S
C765 H771 0.959 . S
C765 H772 0.961 . S
C765 H773 0.960 . S
C766 C764 1.381 . S
C766 C767 1.394 . S
C766 H774 0.930 1_556 S
C767 C766 1.394 . S
C767 C768 1.383 . S
C767 H775 0.929 . S
C768 C767 1.383 . S
C768 C769 1.377 . S
C769 H753 0.930 . S
C769 C768 1.377 . S
C769 C770 1.379 . S
C770 H754 0.931 . S
C770 C764 1.383 . S
C770 C769 1.379 . S
H771 C765 0.959 . S
H772 C765 0.961 . S
H773 C765 0.960 . S
H774 C766 0.930 1_554 S
H775 C767 0.929 . S
H776 C784 0.929 . S
H777 C786 0.930 . S
H778 C788 0.930 . S
H779 C791 0.929 . S
H780 C794 0.930 . S
H781 C796 0.960 . S
H782 C796 0.960 . S
H783 C796 0.960 . S
C784 H776 0.929 . S
C784 C785 1.377 . S
C784 C786 1.384 . S
C785 C784 1.377 . S
C785 C791 1.390 . S
C786 H777 0.930 . S
C786 C784 1.384 . S
C786 C787 1.372 . S
C787 C786 1.372 . S
C787 C788 1.400 . S
C787 C792 1.490 . S
C788 H778 0.930 . S
C788 C787 1.400 . S
C788 C791 1.386 . S
H789 C805 0.930 . S
H790 C806 0.931 . S
C791 H779 0.929 . S
C791 C785 1.390 . S
C791 C788 1.386 . S
C792 C787 1.490 . S
C792 C794 1.395 . S
C792 C795 1.403 . S
H793 C799 0.930 . S
C794 H780 0.930 . S
C794 C792 1.395 . S
C794 C797 1.403 . S
C795 C792 1.403 . S
C795 C796 1.524 . S
C795 C799 1.400 . S
C796 H781 0.960 . S
C796 H782 0.960 . S
C796 H783 0.960 . S
C796 C795 1.524 . S
C797 C794 1.403 . S
C797 C798 1.392 . S
C797 C801 1.495 . S
C798 C797 1.392 . S
C798 C799 1.385 . S
C798 C800 1.478 . S
C799 H793 0.930 . S
C799 C795 1.400 . S
C799 C798 1.385 . S
C800 C798 1.478 . S
C800 C802 1.381 . S
C800 C806 1.383 . S
C801 C797 1.495 . S
C801 H807 0.959 . S
C801 H808 0.961 . S
C801 H809 0.960 . S
C802 C800 1.381 . S
C802 C803 1.394 . S
C802 H810 0.930 . S
C803 C802 1.394 . S
C803 C804 1.383 . S
C803 H811 0.929 . S
C804 C803 1.383 . S
C804 C805 1.377 . S
C805 H789 0.930 . S
C805 C804 1.377 . S
C805 C806 1.379 . S
C806 H790 0.931 . S
C806 C800 1.383 . S
C806 C805 1.379 . S
H807 C801 0.959 . S
H808 C801 0.961 . S
H809 C801 0.960 . S
H810 C802 0.930 . S
H811 C803 0.929 . S
H812 C820 0.929 . S
H813 C822 0.930 . S
H814 C824 0.930 . S
H815 C827 0.929 . S
H816 C830 0.930 . S
H817 C832 0.960 . S
H818 C832 0.960 . S
H819 C832 0.960 . S
C820 H812 0.929 . S
C820 C821 1.377 . S
C820 C822 1.384 . S
C821 C820 1.377 . S
C821 C827 1.390 . S
C822 H813 0.930 . S
C822 C820 1.384 . S
C822 C823 1.372 . S
C823 C822 1.372 . S
C823 C824 1.400 . S
C823 C828 1.490 . S
C824 H814 0.930 . S
C824 C823 1.400 . S
C824 C827 1.386 . S
H825 C841 0.930 . S
H826 C842 0.931 . S
C827 H815 0.929 . S
C827 C821 1.390 . S
C827 C824 1.386 . S
C828 C823 1.490 . S
C828 C830 1.395 . S
C828 C831 1.403 . S
H829 C835 0.930 . S
C830 H816 0.930 . S
C830 C828 1.395 . S
C830 C833 1.403 . S
C831 C828 1.403 . S
C831 C832 1.524 . S
C831 C835 1.400 . S
C832 H817 0.960 . S
C832 H818 0.960 . S
C832 H819 0.960 . S
C832 C831 1.524 . S
C833 C830 1.403 . S
C833 C834 1.392 . S
C833 C837 1.495 . S
C834 C833 1.392 . S
C834 C835 1.385 . S
C834 C836 1.478 . S
C835 H829 0.930 . S
C835 C831 1.400 . S
C835 C834 1.385 . S
C836 C834 1.478 . S
C836 C838 1.381 . S
C836 C842 1.383 . S
C837 C833 1.495 . S
C837 H843 0.959 . S
C837 H844 0.961 . S
C837 H845 0.960 . S
C838 C836 1.381 . S
C838 C839 1.394 . S
C838 H846 0.930 . S
C839 C838 1.394 . S
C839 C840 1.383 . S
C839 H847 0.929 . S
C840 C839 1.383 . S
C840 C841 1.377 . S
C841 H825 0.930 . S
C841 C840 1.377 . S
C841 C842 1.379 . S
C842 H826 0.931 . S
C842 C836 1.383 . S
C842 C841 1.379 . S
H843 C837 0.959 . S
H844 C837 0.961 . S
H845 C837 0.960 . S
H846 C838 0.930 . S
H847 C839 0.929 . S
H848 C856 0.929 . S
H849 C858 0.930 . S
H850 C860 0.930 . S
H851 C863 0.929 . S
H852 C866 0.930 . S
H853 C868 0.960 . S
H854 C868 0.960 . S
H855 C868 0.960 . S
C856 H848 0.929 . S
C856 C857 1.377 . S
C856 C858 1.384 . S
C857 C856 1.377 . S
C857 C863 1.390 . S
C858 H849 0.930 . S
C858 C856 1.384 . S
C858 C859 1.372 . S
C859 C858 1.372 . S
C859 C860 1.400 . S
C859 C864 1.490 . S
C860 H850 0.930 . S
C860 C859 1.400 . S
C860 C863 1.386 . S
H861 C877 0.930 . S
H862 C878 0.931 . S
C863 H851 0.929 . S
C863 C857 1.390 . S
C863 C860 1.386 . S
C864 C859 1.490 . S
C864 C866 1.395 . S
C864 C867 1.403 . S
H865 C871 0.930 . S
C866 H852 0.930 . S
C866 C864 1.395 . S
C866 C869 1.403 . S
C867 C864 1.403 . S
C867 C868 1.524 . S
C867 C871 1.400 . S
C868 H853 0.960 . S
C868 H854 0.960 . S
C868 H855 0.960 . S
C868 C867 1.524 . S
C869 C866 1.403 . S
C869 C870 1.392 . S
C869 C873 1.495 . S
C870 C869 1.392 . S
C870 C871 1.385 . S
C870 C872 1.478 . S
C871 H865 0.930 . S
C871 C867 1.400 . S
C871 C870 1.385 . S
C872 C870 1.478 . S
C872 C874 1.381 . S
C872 C878 1.383 . S
C873 C869 1.495 . S
C873 H879 0.959 . S
C873 H880 0.961 . S
C873 H881 0.960 . S
C874 C872 1.381 . S
C874 C875 1.394 . S
C874 H882 0.930 . S
C875 C874 1.394 . S
C875 C876 1.383 . S
C875 H883 0.929 . S
C876 C875 1.383 . S
C876 C877 1.377 . S
C877 H861 0.930 . S
C877 C876 1.377 . S
C877 C878 1.379 . S
C878 H862 0.931 . S
C878 C872 1.383 . S
C878 C877 1.379 . S
H879 C873 0.959 . S
H880 C873 0.961 . S
H881 C873 0.960 . S
H882 C874 0.930 . S
H883 C875 0.929 . S
H884 C892 0.929 . S
H885 C894 0.930 . S
H886 C896 0.930 . S
H887 C899 0.929 . S
H888 C902 0.930 . S
H889 C904 0.960 . S
H890 C904 0.960 . S
H891 C904 0.960 . S
C892 H884 0.929 . S
C892 C893 1.377 . S
C892 C894 1.384 . S
C893 C892 1.377 . S
C893 C899 1.390 . S
C894 H885 0.930 . S
C894 C892 1.384 . S
C894 C895 1.372 . S
C895 C894 1.372 . S
C895 C896 1.400 . S
C895 C900 1.490 . S
C896 H886 0.930 . S
C896 C895 1.400 . S
C896 C899 1.386 . S
H897 C913 0.930 . S
H898 C914 0.931 . S
C899 H887 0.929 . S
C899 C893 1.390 . S
C899 C896 1.386 . S
C900 C895 1.490 . S
C900 C902 1.395 . S
C900 C903 1.403 . S
H901 C907 0.930 . S
C902 H888 0.930 . S
C902 C900 1.395 . S
C902 C905 1.403 . S
C903 C900 1.403 . S
C903 C904 1.524 . S
C903 C907 1.400 . S
C904 H889 0.960 . S
C904 H890 0.960 . S
C904 H891 0.960 . S
C904 C903 1.524 . S
C905 C902 1.403 . S
C905 C906 1.392 . S
C905 C909 1.495 . S
C906 C905 1.392 . S
C906 C907 1.385 . S
C906 C908 1.478 . S
C907 H901 0.930 . S
C907 C903 1.400 . S
C907 C906 1.385 . S
C908 C906 1.478 . S
C908 C910 1.381 . S
C908 C914 1.383 . S
C909 C905 1.495 . S
C909 H915 0.959 . S
C909 H916 0.961 . S
C909 H917 0.960 . S
C910 C908 1.381 . S
C910 C911 1.394 . S
C910 H918 0.930 . S
C911 C910 1.394 . S
C911 C912 1.383 . S
C911 H919 0.929 . S
C912 C911 1.383 . S
C912 C913 1.377 . S
C913 H897 0.930 . S
C913 C912 1.377 . S
C913 C914 1.379 . S
C914 H898 0.931 . S
C914 C908 1.383 . S
C914 C913 1.379 . S
H915 C909 0.959 . S
H916 C909 0.961 . S
H917 C909 0.960 . S
H918 C910 0.930 . S
H919 C911 0.929 . S
H920 C928 0.929 . S
H921 C930 0.930 . S
H922 C932 0.930 . S
H923 C935 0.929 . S
H924 C938 0.930 . S
H925 C940 0.960 . S
H926 C940 0.960 . S
H927 C940 0.960 . S
C928 H920 0.929 . S
C928 C929 1.377 . S
C928 C930 1.384 . S
C929 C928 1.377 . S
C929 C935 1.390 . S
C930 H921 0.930 . S
C930 C928 1.384 . S
C930 C931 1.372 . S
C931 C930 1.372 . S
C931 C932 1.400 . S
C931 C936 1.490 . S
C932 H922 0.930 . S
C932 C931 1.400 . S
C932 C935 1.386 . S
H933 C949 0.930 . S
H934 C950 0.931 . S
C935 H923 0.929 . S
C935 C929 1.390 . S
C935 C932 1.386 . S
C936 C931 1.490 . S
C936 C938 1.395 . S
C936 C939 1.403 . S
H937 C943 0.930 . S
C938 H924 0.930 . S
C938 C936 1.395 . S
C938 C941 1.403 . S
C939 C936 1.403 . S
C939 C940 1.524 . S
C939 C943 1.400 . S
C940 H925 0.960 . S
C940 H926 0.960 . S
C940 H927 0.960 . S
C940 C939 1.524 . S
C941 C938 1.403 . S
C941 C942 1.392 . S
C941 C945 1.495 . S
C942 C941 1.392 . S
C942 C943 1.385 . S
C942 C944 1.478 . S
C943 H937 0.930 . S
C943 C939 1.400 . S
C943 C942 1.385 . S
C944 C942 1.478 . S
C944 C946 1.381 . S
C944 C950 1.383 . S
C945 C941 1.495 . S
C945 H951 0.959 . S
C945 H952 0.961 . S
C945 H953 0.960 . S
C946 C944 1.381 . S
C946 C947 1.394 . S
C946 H954 0.930 . S
C947 C946 1.394 . S
C947 C948 1.383 . S
C947 H955 0.929 . S
C948 C947 1.383 . S
C948 C949 1.377 . S
C949 H933 0.930 . S
C949 C948 1.377 . S
C949 C950 1.379 . S
C950 H934 0.931 . S
C950 C944 1.383 . S
C950 C949 1.379 . S
H951 C945 0.959 . S
H952 C945 0.961 . S
H953 C945 0.960 . S
H954 C946 0.930 . S
H955 C947 0.929 . S
H956 C964 0.929 . S
H957 C966 0.930 . S
H958 C968 0.930 . S
H959 C971 0.929 . S
H960 C974 0.930 . S
H961 C976 0.960 . S
H962 C976 0.960 . S
H963 C976 0.960 . S
C964 H956 0.929 . S
C964 C965 1.377 . S
C964 C966 1.384 . S
C965 C964 1.377 . S
C965 C971 1.390 . S
C966 H957 0.930 . S
C966 C964 1.384 . S
C966 C967 1.372 . S
C967 C966 1.372 . S
C967 C968 1.400 . S
C967 C972 1.490 . S
C968 H958 0.930 . S
C968 C967 1.400 . S
C968 C971 1.386 . S
H969 C985 0.930 . S
H970 C986 0.931 . S
C971 H959 0.929 . S
C971 C965 1.390 . S
C971 C968 1.386 . S
C972 C967 1.490 . S
C972 C974 1.395 . S
C972 C975 1.403 . S
H973 C979 0.930 . S
C974 H960 0.930 . S
C974 C972 1.395 . S
C974 C977 1.403 . S
C975 C972 1.403 . S
C975 C976 1.524 . S
C975 C979 1.400 . S
C976 H961 0.960 . S
C976 H962 0.960 . S
C976 H963 0.960 . S
C976 C975 1.524 . S
C977 C974 1.403 . S
C977 C978 1.392 . S
C977 C981 1.495 . S
C978 C977 1.392 . S
C978 C979 1.385 . S
C978 C980 1.478 . S
C979 H973 0.930 . S
C979 C975 1.400 . S
C979 C978 1.385 . S
C980 C978 1.478 . S
C980 C982 1.381 . S
C980 C986 1.383 . S
C981 C977 1.495 . S
C981 H987 0.959 . S
C981 H988 0.961 . S
C981 H989 0.960 . S
C982 C980 1.381 . S
C982 C983 1.394 . S
C982 H990 0.930 . S
C983 C982 1.394 . S
C983 C984 1.383 . S
C983 H991 0.929 . S
C984 C983 1.383 . S
C984 C985 1.377 . S
C985 H969 0.930 . S
C985 C984 1.377 . S
C985 C986 1.379 . S
C986 H970 0.931 . S
C986 C980 1.383 . S
C986 C985 1.379 . S
H987 C981 0.959 . S
H988 C981 0.961 . S
H989 C981 0.960 . S
H990 C982 0.930 . S
H991 C983 0.929 . S
H992 C1000 0.929 1_655 S
H993 C1002 0.930 1_655 S
H994 C1004 0.930 . S
H995 C1007 0.929 . S
H996 C1010 0.930 . S
H997 C1012 0.960 . S
H998 C1012 0.960 . S
H999 C1012 0.960 . S
C1000 H992 0.929 1_455 S
C1000 C1001 1.377 . S
C1000 C1002 1.384 . S
C1001 C1000 1.377 . S
C1001 C1007 1.390 . S
C1002 H993 0.930 1_455 S
C1002 C1000 1.384 . S
C1002 C1003 1.372 . S
C1003 C1002 1.372 . S
C1003 C1004 1.400 . S
C1003 C1008 1.490 . S
C1004 H994 0.930 . S
C1004 C1003 1.400 . S
C1004 C1007 1.386 . S
H1005 C1021 0.930 . S
H1006 C1022 0.931 . S
C1007 H995 0.929 . S
C1007 C1001 1.390 . S
C1007 C1004 1.386 . S
C1008 C1003 1.490 . S
C1008 C1010 1.395 1_455 S
C1008 C1011 1.403 . S
H1009 C1015 0.930 . S
C1010 H996 0.930 . S
C1010 C1008 1.395 1_655 S
C1010 C1013 1.403 . S
C1011 C1008 1.403 . S
C1011 C1012 1.524 . S
C1011 C1015 1.400 . S
C1012 H997 0.960 . S
C1012 H998 0.960 . S
C1012 H999 0.960 . S
C1012 C1011 1.524 . S
C1013 C1010 1.403 . S
C1013 C1014 1.392 1_655 S
C1013 C1017 1.495 . S
C1014 C1013 1.392 1_455 S
C1014 C1015 1.385 . S
C1014 C1016 1.478 . S
C1015 H1009 0.930 . S
C1015 C1011 1.400 . S
C1015 C1014 1.385 . S
C1016 C1014 1.478 . S
C1016 C1018 1.381 1_455 S
C1016 C1022 1.383 1_556 S
C1017 C1013 1.495 . S
C1017 H1023 0.959 . S
C1017 H1024 0.961 . S
C1017 H1025 0.960 . S
C1018 C1016 1.381 1_655 S
C1018 C1019 1.391 1_556 S
C1018 H1026 0.930 . S
C1019 C1018 1.391 1_554 S
C1019 C1020 1.369 1_655 S
C1019 H1027 0.948 . S
C1020 C1019 1.369 1_455 S
C1020 C1021 1.377 . S
C1021 H1005 0.930 . S
C1021 C1020 1.377 . S
C1021 C1022 1.379 . S
C1022 H1006 0.931 . S
C1022 C1016 1.383 1_554 S
C1022 C1021 1.379 . S
H1023 C1017 0.959 . S
H1024 C1017 0.961 . S
H1025 C1017 0.960 . S
H1026 C1018 0.930 . S
H1027 C1019 0.948 . S
H1028 C1036 0.929 . S
H1029 C1038 0.930 . S
H1030 C1040 0.930 . S
H1031 C1043 0.929 . S
H1032 C1046 0.930 . S
H1033 C1048 0.960 . S
H1034 C1048 0.960 . S
H1035 C1048 0.960 . S
C1036 H1028 0.929 . S
C1036 C1037 1.377 . S
C1036 C1038 1.384 . S
C1037 C1036 1.377 . S
C1037 C1043 1.390 . S
C1038 H1029 0.930 . S
C1038 C1036 1.384 . S
C1038 C1039 1.372 . S
C1039 C1038 1.372 . S
C1039 C1040 1.400 . S
C1039 C1044 1.490 . S
C1040 H1030 0.930 . S
C1040 C1039 1.400 . S
C1040 C1043 1.386 . S
H1041 C1057 0.930 . S
H1042 C1058 0.932 . S
C1043 H1031 0.929 . S
C1043 C1037 1.390 . S
C1043 C1040 1.386 . S
C1044 C1039 1.490 . S
C1044 C1046 1.395 . S
C1044 C1047 1.403 . S
H1045 C1051 0.930 . S
C1046 H1032 0.930 . S
C1046 C1044 1.395 . S
C1046 C1049 1.403 . S
C1047 C1044 1.403 . S
C1047 C1048 1.524 . S
C1047 C1051 1.400 . S
C1048 H1033 0.960 . S
C1048 H1034 0.960 . S
C1048 H1035 0.960 . S
C1048 C1047 1.524 . S
C1049 C1046 1.403 . S
C1049 C1050 1.392 . S
C1049 C1053 1.495 . S
C1050 C1049 1.392 . S
C1050 C1051 1.385 . S
C1050 C1052 1.478 . S
C1051 H1045 0.930 . S
C1051 C1047 1.400 . S
C1051 C1050 1.385 . S
C1052 C1050 1.478 . S
C1052 C1054 1.381 1_554 S
C1052 C1058 1.383 . S
C1053 C1049 1.495 . S
C1053 H1059 0.959 . S
C1053 H1060 0.961 . S
C1053 H1061 0.960 . S
C1054 C1052 1.381 1_556 S
C1054 C1055 1.394 . S
C1054 H1062 0.930 1_556 S
C1055 C1054 1.394 . S
C1055 C1056 1.383 . S
C1055 H1063 0.929 . S
C1056 C1055 1.383 . S
C1056 C1057 1.377 . S
C1057 H1041 0.930 . S
C1057 C1056 1.377 . S
C1057 C1058 1.378 1_556 S
C1058 H1042 0.932 . S
C1058 C1052 1.383 . S
C1058 C1057 1.378 1_554 S
H1059 C1053 0.959 . S
H1060 C1053 0.961 . S
H1061 C1053 0.960 . S
H1062 C1054 0.930 1_554 S
H1063 C1055 0.929 . S
H1064 C1072 0.929 . S
H1065 C1074 0.930 . S
H1066 C1076 0.930 . S
H1067 C1079 0.929 . S
H1068 C1082 0.930 . S
H1069 C1084 0.960 . S
H1070 C1084 0.960 . S
H1071 C1084 0.960 . S
C1072 H1064 0.929 . S
C1072 C1073 1.377 1_455 S
C1072 C1074 1.384 1_556 S
C1073 C1072 1.377 1_655 S
C1073 C1079 1.390 . S
C1074 H1065 0.930 . S
C1074 C1072 1.384 1_554 S
C1074 C1075 1.372 1_455 S
C1075 C1074 1.372 1_655 S
C1075 C1076 1.400 1_554 S
C1075 C1080 1.490 . S
C1076 H1066 0.930 . S
C1076 C1075 1.400 1_556 S
C1076 C1079 1.386 . S
H1077 C1093 0.930 . S
H1078 C1094 0.931 . S
C1079 H1067 0.929 . S
C1079 C1073 1.390 . S
C1079 C1076 1.386 . S
C1080 C1075 1.490 . S
C1080 C1082 1.395 1_655 S
C1080 C1083 1.403 . S
H1081 C1087 0.930 . S
C1082 H1068 0.930 . S
C1082 C1080 1.395 1_455 S
C1082 C1085 1.403 . S
C1083 C1080 1.403 . S
C1083 C1084 1.524 . S
C1083 C1087 1.400 . S
C1084 H1069 0.960 . S
C1084 H1070 0.960 . S
C1084 H1071 0.960 . S
C1084 C1083 1.524 . S
C1085 C1082 1.403 . S
C1085 C1086 1.392 1_455 S
C1085 C1089 1.495 . S
C1086 C1085 1.392 1_655 S
C1086 C1087 1.385 . S
C1086 C1088 1.478 . S
C1087 H1081 0.930 . S
C1087 C1083 1.400 . S
C1087 C1086 1.385 . S
C1088 C1086 1.478 . S
C1088 C1090 1.364 1_655 S
C1088 C1094 1.383 . S
C1089 C1085 1.495 . S
C1089 H1095 0.959 . S
C1089 H1096 0.961 . S
C1089 H1097 0.960 . S
C1090 C1088 1.364 1_455 S
C1090 C1091 1.386 1_455 S
C1090 H1098 0.958 . S
C1091 C1090 1.386 1_655 S
C1091 C1092 1.383 . S
C1091 H1099 0.929 1_655 S
C1092 C1091 1.383 . S
C1092 C1093 1.377 . S
C1093 H1077 0.930 . S
C1093 C1092 1.377 . S
C1093 C1094 1.379 . S
C1094 H1078 0.931 . S
C1094 C1088 1.383 . S
C1094 C1093 1.379 . S
H1095 C1089 0.959 . S
H1096 C1089 0.961 . S
H1097 C1089 0.960 . S
H1098 C1090 0.958 . S
H1099 C1091 0.929 1_455 S
H1100 C1108 0.929 . S
H1101 C1110 0.930 . S
H1102 C1112 0.930 1_556 S
H1103 C1115 0.929 . S
H1104 C1118 0.930 . S
H1105 C1120 0.960 . S
H1106 C1120 0.960 . S
H1107 C1120 0.960 . S
C1108 H1100 0.929 . S
C1108 C1109 1.377 . S
C1108 C1110 1.384 1_554 S
C1109 C1108 1.377 . S
C1109 C1115 1.390 . S
C1110 H1101 0.930 . S
C1110 C1108 1.384 1_556 S
C1110 C1111 1.372 . S
C1111 C1110 1.372 . S
C1111 C1112 1.400 1_556 S
C1111 C1116 1.490 . S
C1112 H1102 0.930 1_554 S
C1112 C1111 1.400 1_554 S
C1112 C1115 1.386 . S
H1113 C1129 0.930 . S
H1114 C1130 0.931 . S
C1115 H1103 0.929 . S
C1115 C1109 1.390 . S
C1115 C1112 1.386 . S
C1116 C1111 1.490 . S
C1116 C1118 1.395 . S
C1116 C1119 1.403 . S
H1117 C1123 0.930 . S
C1118 H1104 0.930 . S
C1118 C1116 1.395 . S
C1118 C1121 1.403 . S
C1119 C1116 1.403 . S
C1119 C1120 1.524 . S
C1119 C1123 1.400 . S
C1120 H1105 0.960 . S
C1120 H1106 0.960 . S
C1120 H1107 0.960 . S
C1120 C1119 1.524 . S
C1121 C1118 1.403 . S
C1121 C1122 1.392 . S
C1121 C1125 1.495 . S
C1122 C1121 1.392 . S
C1122 C1123 1.385 . S
C1122 C1124 1.478 . S
C1123 H1117 0.930 . S
C1123 C1119 1.400 . S
C1123 C1122 1.385 . S
C1124 C1122 1.478 . S
C1124 C1126 1.381 . S
C1124 C1130 1.383 . S
C1125 C1121 1.495 . S
C1125 H1131 0.959 . S
C1125 H1132 0.961 . S
C1125 H1133 0.960 . S
C1126 C1124 1.381 . S
C1126 C1127 1.394 . S
C1126 H1134 0.930 . S
C1127 C1126 1.394 . S
C1127 C1128 1.383 . S
C1127 H1135 0.929 . S
C1128 C1127 1.383 . S
C1128 C1129 1.377 . S
C1129 H1113 0.930 . S
C1129 C1128 1.377 . S
C1129 C1130 1.379 . S
C1130 H1114 0.931 . S
C1130 C1124 1.383 . S
C1130 C1129 1.379 . S
H1131 C1125 0.959 . S
H1132 C1125 0.961 . S
H1133 C1125 0.960 . S
H1134 C1126 0.930 . S
H1135 C1127 0.929 . S
H1136 C1144 0.929 . S
H1137 C1146 0.930 . S
H1138 C1148 0.930 . S
H1139 C1151 0.929 . S
H1140 C1154 0.930 . S
H1141 C1156 0.960 . S
H1142 C1156 0.960 . S
H1143 C1156 0.960 . S
C1144 H1136 0.929 . S
C1144 C1145 1.377 . S
C1144 C1146 1.384 . S
C1145 C1144 1.377 . S
C1145 C1151 1.390 . S
C1146 H1137 0.930 . S
C1146 C1144 1.384 . S
C1146 C1147 1.372 . S
C1147 C1146 1.372 . S
C1147 C1148 1.400 . S
C1147 C1152 1.490 . S
C1148 H1138 0.930 . S
C1148 C1147 1.400 . S
C1148 C1151 1.386 . S
H1149 C1165 0.930 . S
H1150 C1166 0.931 . S
C1151 H1139 0.929 . S
C1151 C1145 1.390 . S
C1151 C1148 1.386 . S
C1152 C1147 1.490 . S
C1152 C1154 1.395 . S
C1152 C1155 1.403 . S
H1153 C1159 0.930 . S
C1154 H1140 0.930 . S
C1154 C1152 1.395 . S
C1154 C1157 1.403 . S
C1155 C1152 1.403 . S
C1155 C1156 1.524 . S
C1155 C1159 1.400 . S
C1156 H1141 0.960 . S
C1156 H1142 0.960 . S
C1156 H1143 0.960 . S
C1156 C1155 1.524 . S
C1157 C1154 1.403 . S
C1157 C1158 1.392 . S
C1157 C1161 1.495 . S
C1158 C1157 1.392 . S
C1158 C1159 1.385 . S
C1158 C1160 1.478 . S
C1159 H1153 0.930 . S
C1159 C1155 1.400 . S
C1159 C1158 1.385 . S
C1160 C1158 1.478 . S
C1160 C1162 1.381 . S
C1160 C1166 1.383 . S
C1161 C1157 1.495 . S
C1161 H1167 0.959 . S
C1161 H1168 0.961 . S
C1161 H1169 0.960 . S
C1162 C1160 1.381 . S
C1162 C1163 1.394 . S
C1162 H1170 0.930 . S
C1163 C1162 1.394 . S
C1163 C1164 1.383 . S
C1163 H1171 0.929 . S
C1164 C1163 1.383 . S
C1164 C1165 1.377 . S
C1165 H1149 0.930 . S
C1165 C1164 1.377 . S
C1165 C1166 1.379 . S
C1166 H1150 0.931 . S
C1166 C1160 1.383 . S
C1166 C1165 1.379 . S
H1167 C1161 0.959 . S
H1168 C1161 0.961 . S
H1169 C1161 0.960 . S
H1170 C1162 0.930 . S
H1171 C1163 0.929 . S
H1172 C1180 0.929 . S
H1173 C1182 0.930 . S
H1174 C1184 0.930 . S
H1175 C1187 0.929 . S
H1176 C1190 0.930 . S
H1177 C1192 0.960 . S
H1178 C1192 0.960 1_655 S
H1179 C1192 0.960 . S
C1180 H1172 0.929 . S
C1180 C1181 1.377 . S
C1180 C1182 1.384 . S
C1181 C1180 1.377 . S
C1181 C1187 1.390 1_655 S
C1182 H1173 0.930 . S
C1182 C1180 1.384 . S
C1182 C1183 1.372 . S
C1183 C1182 1.372 . S
C1183 C1184 1.400 1_655 S
C1183 C1188 1.490 . S
C1184 H1174 0.930 . S
C1184 C1183 1.400 1_455 S
C1184 C1187 1.386 . S
H1185 C1201 0.930 . S
H1186 C1202 0.931 . S
C1187 H1175 0.929 . S
C1187 C1181 1.390 1_455 S
C1187 C1184 1.386 . S
C1188 C1183 1.490 . S
C1188 C1190 1.395 . S
C1188 C1191 1.403 . S
H1189 C1195 0.930 . S
C1190 H1176 0.930 . S
C1190 C1188 1.395 . S
C1190 C1193 1.403 . S
C1191 C1188 1.403 . S
C1191 C1192 1.524 1_655 S
C1191 C1195 1.400 . S
C1192 H1177 0.960 . S
C1192 H1178 0.960 1_455 S
C1192 H1179 0.960 . S
C1192 C1191 1.524 1_455 S
C1193 C1190 1.403 . S
C1193 C1194 1.392 . S
C1193 C1197 1.495 . S
C1194 C1193 1.392 . S
C1194 C1195 1.385 . S
C1194 C1196 1.478 . S
C1195 H1189 0.930 . S
C1195 C1191 1.400 . S
C1195 C1194 1.385 . S
C1196 C1194 1.478 . S
C1196 C1198 1.381 . S
C1196 C1202 1.383 1_655 S
C1197 C1193 1.495 . S
C1197 H1203 0.959 . S
C1197 H1204 0.961 . S
C1197 H1205 0.960 . S
C1198 C1196 1.381 . S
C1198 C1199 1.394 . S
C1198 H1206 0.930 . S
C1199 C1198 1.394 . S
C1199 C1200 1.383 . S
C1199 H1207 0.929 . S
C1200 C1199 1.383 . S
C1200 C1201 1.377 1_655 S
C1201 H1185 0.930 . S
C1201 C1200 1.377 1_455 S
C1201 C1202 1.379 . S
C1202 H1186 0.931 . S
C1202 C1196 1.383 1_455 S
C1202 C1201 1.379 . S
H1203 C1197 0.959 . S
H1204 C1197 0.961 . S
H1205 C1197 0.960 . S
H1206 C1198 0.930 . S
H1207 C1199 0.929 . S
H1208 C1216 0.929 . S
H1209 C1218 0.930 . S
H1210 C1220 0.930 . S
H1211 C1223 0.929 . S
H1212 C1226 0.930 . S
H1213 C1228 0.960 . S
H1214 C1228 0.960 . S
H1215 C1228 0.960 . S
C1216 H1208 0.929 . S
C1216 C1217 1.377 . S
C1216 C1218 1.384 . S
C1217 C1216 1.377 . S
C1217 C1223 1.390 . S
C1218 H1209 0.930 . S
C1218 C1216 1.384 . S
C1218 C1219 1.372 . S
C1219 C1218 1.372 . S
C1219 C1220 1.400 . S
C1219 C1224 1.490 . S
C1220 H1210 0.930 . S
C1220 C1219 1.400 . S
C1220 C1223 1.386 . S
H1221 C1237 0.930 . S
H1222 C1238 0.931 . S
C1223 H1211 0.929 . S
C1223 C1217 1.390 . S
C1223 C1220 1.386 . S
C1224 C1219 1.490 . S
C1224 C1226 1.395 . S
C1224 C1227 1.403 . S
H1225 C1231 0.930 . S
C1226 H1212 0.930 . S
C1226 C1224 1.395 . S
C1226 C1229 1.403 . S
C1227 C1224 1.403 . S
C1227 C1228 1.524 . S
C1227 C1231 1.400 . S
C1228 H1213 0.960 . S
C1228 H1214 0.960 . S
C1228 H1215 0.960 . S
C1228 C1227 1.524 . S
C1229 C1226 1.403 . S
C1229 C1230 1.392 . S
C1229 C1233 1.495 . S
C1230 C1229 1.392 . S
C1230 C1231 1.385 . S
C1230 C1232 1.478 . S
C1231 H1225 0.930 . S
C1231 C1227 1.400 . S
C1231 C1230 1.385 . S
C1232 C1230 1.478 . S
C1232 C1234 1.381 . S
C1232 C1238 1.383 . S
C1233 C1229 1.495 . S
C1233 H1239 0.959 . S
C1233 H1240 0.961 . S
C1233 H1241 0.960 . S
C1234 C1232 1.381 . S
C1234 C1235 1.394 . S
C1234 H1242 0.930 . S
C1235 C1234 1.394 . S
C1235 C1236 1.383 . S
C1235 H1243 0.929 . S
C1236 C1235 1.383 . S
C1236 C1237 1.377 . S
C1237 H1221 0.930 . S
C1237 C1236 1.377 . S
C1237 C1238 1.379 . S
C1238 H1222 0.931 . S
C1238 C1232 1.383 . S
C1238 C1237 1.379 . S
H1239 C1233 0.959 . S
H1240 C1233 0.961 . S
H1241 C1233 0.960 . S
H1242 C1234 0.930 . S
H1243 C1235 0.929 . S
H1244 C1252 0.929 . S
H1245 C1254 0.930 . S
H1246 C1256 0.930 . S
H1247 C1259 0.929 . S
H1248 C1262 0.930 1_655 S
H1249 C1264 0.960 . S
H1250 C1264 0.960 . S
H1251 C1264 0.960 . S
C1252 H1244 0.929 . S
C1252 C1253 1.377 1_655 S
C1252 C1254 1.384 . S
C1253 C1252 1.377 1_455 S
C1253 C1259 1.390 . S
C1254 H1245 0.930 . S
C1254 C1252 1.384 . S
C1254 C1255 1.372 1_655 S
C1255 C1254 1.372 1_455 S
C1255 C1256 1.400 . S
C1255 C1260 1.490 . S
C1256 H1246 0.930 . S
C1256 C1255 1.400 . S
C1256 C1259 1.386 . S
H1257 C1273 0.930 . S
H1258 C1274 0.931 . S
C1259 H1247 0.929 . S
C1259 C1253 1.390 . S
C1259 C1256 1.386 . S
C1260 C1255 1.490 . S
C1260 C1262 1.395 . S
C1260 C1263 1.403 . S
H1261 C1267 0.930 . S
C1262 H1248 0.930 1_455 S
C1262 C1260 1.395 . S
C1262 C1265 1.403 . S
C1263 C1260 1.403 . S
C1263 C1264 1.524 . S
C1263 C1267 1.400 . S
C1264 H1249 0.960 . S
C1264 H1250 0.960 . S
C1264 H1251 0.960 . S
C1264 C1263 1.524 . S
C1265 C1262 1.403 . S
C1265 C1266 1.392 . S
C1265 C1269 1.495 1_455 S
C1266 C1265 1.392 . S
C1266 C1267 1.385 . S
C1266 C1268 1.478 . S
C1267 H1261 0.930 . S
C1267 C1263 1.400 . S
C1267 C1266 1.385 . S
C1268 C1266 1.478 . S
C1268 C1270 1.381 1_455 S
C1268 C1274 1.383 . S
C1269 C1265 1.495 1_655 S
C1269 H1275 0.959 . S
C1269 H1276 0.961 1_655 S
C1269 H1277 0.960 . S
C1270 C1268 1.381 1_655 S
C1270 C1271 1.394 . S
C1270 H1278 0.930 . S
C1271 C1270 1.394 . S
C1271 C1272 1.383 1_655 S
C1271 H1279 0.929 . S
C1272 C1271 1.383 1_455 S
C1272 C1273 1.377 . S
C1273 H1257 0.930 . S
C1273 C1272 1.377 . S
C1273 C1274 1.379 . S
C1274 H1258 0.931 . S
C1274 C1268 1.383 . S
C1274 C1273 1.379 . S
H1275 C1269 0.959 . S
H1276 C1269 0.961 1_455 S
H1277 C1269 0.960 . S
H1278 C1270 0.930 . S
H1279 C1271 0.929 . S
C281 C171 1.937 . S
C300 C6 2.013 . S
C317 C139 1.937 . S
C336 C40 2.013 . S
C353 C239 1.936 . S
C372 C96 2.013 . S
C389 C130 2.018 . S
C408 C205 1.920 . S
C425 C142 2.019 . S
C444 C37 1.911 . S
C461 C3 1.939 . S
C480 C198 2.012 . S
C497 C232 2.019 . S
C516 C103 1.927 . S
C533 C266 2.018 . S
C552 C69 1.912 . S
C569 C28 0.445 . S
C588 C74 0.497 . S
C605 C108 0.438 . S
C624 C62 0.418 . S
C641 C210 0.448 . S
C660 C164 0.443 . S
C677 C176 0.439 . S
C696 C244 0.417 . S
C713 C15 2.203 . S
C732 C49 2.224 . S
C749 C124 2.210 . S
C768 C90 2.193 . S
C785 C151 2.209 . S
C804 C192 2.203 . S
C821 C260 2.204 . S
C840 C226 2.184 . S
C857 C219 0.973 . S
C876 C22 0.934 . S
C893 C56 0.983 . S
C912 C253 1.023 . S
C929 C83 0.979 . S
C948 C158 0.937 . S
C965 C117 0.972 . S
C984 C185 0.937 . S
C1001 C241 1.793 . S
C1020 C17 1.860 . S
C1037 C207 1.791 . S
C1056 C51 1.854 . S
C1073 C85 1.863 . S
C1092 C173 1.763 . S
C1109 C119 1.865 . S
C1128 C137 1.791 . S
C1145 C153 1.864 . S
C1164 C105 1.766 . S
C1181 C71 1.788 . S
C1200 C187 1.856 . S
C1217 C35 1.793 . S
C1236 C221 1.866 . S
C1253 C1 1.784 . S
C1272 C255 1.854 . S
