# Generated by pormake.
# Topology vby, (6)-cn, num edge types: 1
# Building blocks:
#     Node 0, Type 0, BuildingBlock: JUFBIX_clean_sbu_0, # of connection points: 6
#     Node 1, Type 0, BuildingBlock: JUFBIX_clean_sbu_0, # of connection points: 6
#     Node 2, Type 0, BuildingBlock: JUFBIX_clean_sbu_0, # of connection points: 6
#     Node 3, Type 0, BuildingBlock: JUFBIX_clean_sbu_0, # of connection points: 6
#     Node 4, Type 0, BuildingBlock: JUFBIX_clean_sbu_0, # of connection points: 6
#     Node 5, Type 0, BuildingBlock: JUFBIX_clean_sbu_0, # of connection points: 6
#     Node 6, Type 0, BuildingBlock: JUFBIX_clean_sbu_0, # of connection points: 6
#     Node 7, Type 0, BuildingBlock: JUFBIX_clean_sbu_0, # of connection points: 6
#     Edge 8, Type (0, 0), BuildingBlock: OJICUG_clean_linker_0, # of connection points: 2
#     Edge 9, Type (0, 0), BuildingBlock: OJICUG_clean_linker_0, # of connection points: 2
#     Edge 10, Type (0, 0), BuildingBlock: OJICUG_clean_linker_0, # of connection points: 2
#     Edge 11, Type (0, 0), BuildingBlock: OJICUG_clean_linker_0, # of connection points: 2
#     Edge 12, Type (0, 0), BuildingBlock: OJICUG_clean_linker_0, # of connection points: 2
#     Edge 13, Type (0, 0), BuildingBlock: OJICUG_clean_linker_0, # of connection points: 2
#     Edge 14, Type (0, 0), BuildingBlock: OJICUG_clean_linker_0, # of connection points: 2
#     Edge 15, Type (0, 0), BuildingBlock: OJICUG_clean_linker_0, # of connection points: 2
#     Edge 16, Type (0, 0), BuildingBlock: OJICUG_clean_linker_0, # of connection points: 2
#     Edge 17, Type (0, 0), BuildingBlock: OJICUG_clean_linker_0, # of connection points: 2
#     Edge 18, Type (0, 0), BuildingBlock: OJICUG_clean_linker_0, # of connection points: 2
#     Edge 19, Type (0, 0), BuildingBlock: OJICUG_clean_linker_0, # of connection points: 2
#     Edge 20, Type (0, 0), BuildingBlock: OJICUG_clean_linker_0, # of connection points: 2
#     Edge 21, Type (0, 0), BuildingBlock: OJICUG_clean_linker_0, # of connection points: 2
#     Edge 22, Type (0, 0), BuildingBlock: OJICUG_clean_linker_0, # of connection points: 2
#     Edge 23, Type (0, 0), BuildingBlock: OJICUG_clean_linker_0, # of connection points: 2
#     Edge 24, Type (0, 0), BuildingBlock: OJICUG_clean_linker_0, # of connection points: 2
#     Edge 25, Type (0, 0), BuildingBlock: OJICUG_clean_linker_0, # of connection points: 2
#     Edge 26, Type (0, 0), BuildingBlock: OJICUG_clean_linker_0, # of connection points: 2
#     Edge 27, Type (0, 0), BuildingBlock: OJICUG_clean_linker_0, # of connection points: 2
#     Edge 28, Type (0, 0), BuildingBlock: OJICUG_clean_linker_0, # of connection points: 2
#     Edge 29, Type (0, 0), BuildingBlock: OJICUG_clean_linker_0, # of connection points: 2
#     Edge 30, Type (0, 0), BuildingBlock: OJICUG_clean_linker_0, # of connection points: 2
#     Edge 31, Type (0, 0), BuildingBlock: OJICUG_clean_linker_0, # of connection points: 2
# Relax obj value: 0.195
# Max RMSD: 0.178
# Mean RMSD: 0.178
data_MOF--net-vby--node1-JUFBIX_clean_sbu_0--edge1-OJICUG_clean_linker_0
_symmetry_space_group_name_H-M    P1
_symmetry_Int_Tables_number       1
_symmetry_cell_setting            triclinic
loop_
_symmetry_equiv_pos_as_xyz
'x, y, z'
_cell_length_a     15.281032
_cell_length_b     39.900917
_cell_length_c     21.050992
_cell_angle_alpha  90.063785
_cell_angle_beta   93.678542
_cell_angle_gamma 89.995614
loop_
_atom_site_label
_atom_site_type_symbol
_atom_site_fract_x
_atom_site_fract_y
_atom_site_fract_z
_atom_type_partial_charge
Co0 Co 0.03878 0.36608 0.02365 0.0
C1 C 0.10401 0.37703 0.90817 0.0
Co2 Co 0.17133 0.38664 0.03439 0.0
C3 C 0.8539 0.36713 0.03388 0.0
C4 C 0.89223 0.32476 0.97984 0.0
N5 N 0.92464 0.35119 1.01364 0.0
N6 N 0.77821 0.3522 1.01322 0.0
C7 C 0.80204 0.32528 0.97956 0.0
H8 H 0.85802 0.38968 0.06247 0.0
H9 H 0.93136 0.3071 0.95486 0.0
C10 C 0.08542 0.37777 0.14883 0.0
N11 N 0.28586 0.40126 0.04489 0.0
C12 C 0.35613 0.38643 0.02137 0.0
C13 C 0.31908 0.42598 0.08293 0.0
N14 N 0.43213 0.40036 0.04413 0.0
C15 C 0.40917 0.42555 0.08242 0.0
C16 C 0.05763 0.4372 0.02351 0.0
O17 O 0.03036 0.36438 0.10975 0.0
O18 O 0.15737 0.38886 0.12833 0.0
O19 O 0.13704 0.42932 0.02701 0.0
O20 O 0.9995 0.41398 0.02372 0.0
O21 O 0.17582 0.38503 0.93965 0.0
H22 H 0.28052 0.44228 0.11127 0.0
H23 H 0.35158 0.36504 0.98968 0.0
O24 O 0.03965 0.36772 0.93768 0.0
O25 O 0.08652 0.31923 0.02327 0.0
O26 O 0.21285 0.34373 0.04201 0.0
C27 C 0.1701 0.31709 0.03355 0.0
H28 H 0.75763 0.30808 0.95413 0.0
H29 H 0.45424 0.44136 0.11062 0.0
Co30 Co 0.89233 0.62907 0.02886 0.0
C31 C 0.96854 0.63543 0.9096 0.0
Co32 Co 1.02371 0.65123 0.03054 0.0
C33 C 0.7073 0.62936 0.04535 0.0
C34 C 0.7448 0.58713 0.9906 0.0
N35 N 0.77787 0.61355 0.0242 0.0
N36 N 0.63141 0.61446 0.02501 0.0
C37 C 0.65476 0.58757 0.99118 0.0
H38 H 0.71138 0.6523 0.07285 0.0
H39 H 0.7833 0.56979 0.96437 0.0
C40 C 0.96946 0.64293 0.15093 0.0
N41 N 0.13758 0.66697 0.03533 0.0
C42 C 0.20883 0.64992 0.01887 0.0
C43 C 0.16944 0.69514 0.06364 0.0
N44 N 0.28424 0.6658 0.03705 0.0
C45 C 0.25967 0.69452 0.06471 0.0
C46 C 0.88986 0.69878 0.02085 0.0
O47 O 0.89736 0.63156 0.12425 0.0
O48 O 1.02724 0.65345 0.11626 0.0
O49 O 0.97398 0.6976 0.02501 0.0
O50 O 0.84834 0.67168 0.02122 0.0
O51 O 1.0274 0.64926 0.94484 0.0
H52 H 0.12996 0.714 0.08519 0.0
H53 H 0.20536 0.62578 0.99546 0.0
O54 O 0.89784 0.62571 0.93402 0.0
O55 O 0.9291 0.58695 0.03625 0.0
O56 O 0.06539 0.60346 0.03616 0.0
C57 C 1.00888 0.57977 0.03878 0.0
H58 H 0.60993 0.57069 0.96527 0.0
H59 H 0.30356 0.71289 0.08726 0.0
Co60 Co 0.1681 0.6263 0.53873 0.0
C61 C 0.08103 0.63562 0.65225 0.0
Co62 Co 0.03543 0.64627 0.52688 0.0
C63 C 0.35296 0.62665 0.52661 0.0
C64 C 0.31571 0.58716 0.58807 0.0
N65 N 0.28262 0.61184 0.54996 0.0
N66 N 0.42888 0.61274 0.54948 0.0
C67 C 0.40581 0.58759 0.58772 0.0
H68 H 0.34849 0.64798 0.49484 0.0
H69 H 0.27702 0.57084 0.61621 0.0
C70 C 0.10132 0.63448 0.41224 0.0
N71 N 0.92125 0.66102 0.51625 0.0
C72 C 0.85058 0.64535 0.53718 0.0
C73 C 0.88876 0.68716 0.48174 0.0
N74 N 0.77488 0.66018 0.51632 0.0
C75 C 0.7986 0.68674 0.48177 0.0
C76 C 0.16612 0.69558 0.53602 0.0
O77 O 0.17388 0.6279 0.44405 0.0
O78 O 0.03612 0.64327 0.44133 0.0
O79 O 0.08289 0.69306 0.52412 0.0
O80 O 0.20915 0.66922 0.5469 0.0
O81 O 1.02708 0.64926 0.61276 0.0
H82 H 0.92783 0.70457 0.4562 0.0
H83 H 0.85473 0.6231 0.56651 0.0
O84 O 0.15278 0.62402 0.63231 0.0
O85 O 0.13439 0.58364 0.53089 0.0
O86 O 0.99652 0.59841 0.529 0.0
C87 C 0.05523 0.57544 0.52819 0.0
H88 H 0.45081 0.57176 0.61587 0.0
H89 H 0.7541 0.70377 0.45603 0.0
Co90 Co 1.02604 0.36151 0.52999 0.0
C91 C 0.96704 0.36967 0.64868 0.0
Co92 Co 0.89423 0.38341 0.52486 0.0
C93 C 0.21105 0.36284 0.51911 0.0
C94 C 0.17208 0.31813 0.56563 0.0
N95 N 0.14 0.34597 0.53636 0.0
N96 N 0.28659 0.34714 0.53755 0.0
C97 C 0.2623 0.31875 0.56637 0.0
H98 H 0.2073 0.38667 0.49467 0.0
H99 H 0.13272 0.29944 0.5877 0.0
C100 C 0.97451 0.37699 0.40738 0.0
N101 N 0.77971 0.39869 0.51847 0.0
C102 C 0.70929 0.38307 0.54017 0.0
C103 C 0.74651 0.42471 0.48391 0.0
N104 N 0.63333 0.39773 0.51936 0.0
C105 C 0.65645 0.42424 0.48453 0.0
C106 C 1.01008 0.43279 0.53814 0.0
O107 O 0.03241 0.36355 0.44405 0.0
O108 O 0.9026 0.38657 0.43029 0.0
O109 O 0.93033 0.42557 0.53281 0.0
O110 O 0.0671 0.4092 0.53686 0.0
O111 O 0.89616 0.38109 0.6203 0.0
H112 H 0.78498 0.44185 0.45729 0.0
H113 H 0.71358 0.36049 0.56864 0.0
O114 O 1.0268 0.35919 0.61569 0.0
O115 O 0.97701 0.31514 0.52369 0.0
O116 O 0.85085 0.34075 0.51663 0.0
C117 C 0.89295 0.31376 0.51785 0.0
H118 H 0.30641 0.30057 0.58922 0.0
H119 H 0.61146 0.44089 0.45824 0.0
Co120 Co 0.53068 0.86449 1.01653 0.0
C121 C 0.5873 0.87306 0.89664 0.0
Co122 Co 0.66239 0.88635 0.01952 0.0
C123 C 0.34567 0.86566 0.02808 0.0
C124 C 0.38486 0.82111 0.98092 0.0
N125 N 0.4168 0.84889 1.01064 0.0
N126 N 0.27021 0.84999 1.00924 0.0
C127 C 0.29465 0.82169 0.98005 0.0
H128 H 0.34926 0.88944 0.05277 0.0
H129 H 0.42428 0.80257 0.95844 0.0
C130 C 0.58474 0.87894 0.13847 0.0
N131 N 0.77684 0.90172 0.02547 0.0
C132 C 0.84739 0.88617 1.00375 0.0
C133 C 0.80986 0.9277 0.06034 0.0
N134 N 0.92325 0.90082 0.02488 0.0
C135 C 0.89991 0.92727 0.0599 0.0
C136 C 0.54639 0.93598 1.01037 0.0
O137 O 0.5262 0.86547 0.10241 0.0
O138 O 0.65537 0.88918 0.11458 0.0
O139 O 0.62607 0.92866 1.0123 0.0
O140 O 0.48956 0.91237 1.01276 0.0
O141 O 0.6593 0.88406 0.92407 0.0
H142 H 0.77128 0.94473 0.08718 0.0
H143 H 0.84327 0.86359 0.97518 0.0
O144 O 0.52788 0.86314 0.93048 0.0
O145 O 0.58006 0.81796 0.02047 0.0
O146 O 0.70591 0.84374 0.0269 0.0
C147 C 0.66418 0.81667 0.02564 0.0
H148 H 0.25066 0.80361 0.9567 0.0
H149 H 0.94474 0.94385 0.08658 0.0
Co150 Co 0.39122 0.12812 0.02656 0.0
C151 C 0.46859 0.13526 0.90748 0.0
Co152 Co 0.52312 0.1497 0.02909 0.0
C153 C 0.20631 0.12834 0.04231 0.0
C154 C 0.24398 0.08658 0.98637 0.0
N155 N 0.27688 0.11273 0.0208 0.0
N156 N 0.13053 0.11353 0.02148 0.0
C157 C 0.15394 0.08694 0.98687 0.0
H158 H 0.21032 0.15104 0.07053 0.0
H159 H 0.28261 0.06944 0.95979 0.0
C160 C 0.46721 0.141 0.14918 0.0
N161 N 0.63697 0.16527 0.03489 0.0
C162 C 0.70818 0.1485 1.0176 0.0
C163 C 0.66879 0.19308 0.06454 0.0
N164 N 0.78353 0.16423 0.03645 0.0
C165 C 0.75899 0.19254 0.06551 0.0
C166 C 0.39016 0.19785 0.02062 0.0
O167 O 0.39465 0.13037 0.12199 0.0
O168 O 0.52643 0.15078 0.11505 0.0
O169 O 0.4742 0.1962 0.0258 0.0
O170 O 0.34761 0.17094 0.01907 0.0
O171 O 0.52714 0.14893 0.94325 0.0
H172 H 0.6293 0.21163 0.08695 0.0
H173 H 0.70474 0.12467 0.99304 0.0
O174 O 0.39805 0.12511 0.93159 0.0
O175 O 0.42748 0.08577 0.03387 0.0
O176 O 0.56403 0.10181 0.03225 0.0
C177 C 0.50703 0.0783 0.03508 0.0
H178 H 0.10917 0.07022 0.96051 0.0
H179 H 0.80291 0.21066 0.08885 0.0
Co180 Co 0.66879 0.12708 0.53667 0.0
C181 C 0.5813 0.13652 0.64967 0.0
Co182 Co 0.53639 0.14778 0.52348 0.0
C183 C 0.85368 0.1273 0.52381 0.0
C184 C 0.81709 0.08833 0.58664 0.0
N185 N 0.78355 0.11264 0.54787 0.0
N186 N 0.92987 0.11365 0.54688 0.0
C187 C 0.9072 0.08883 0.58598 0.0
H188 H 0.84888 0.14835 0.49141 0.0
H189 H 0.77874 0.07224 0.61547 0.0
C190 C 0.60308 0.13605 0.4093 0.0
N191 N 0.42209 0.16255 0.51283 0.0
C192 C 0.35151 0.14665 0.53341 0.0
C193 C 0.38939 0.18879 0.47874 0.0
N194 N 0.27562 0.16143 0.51274 0.0
C195 C 0.2992 0.1882 0.47866 0.0
C196 C 0.6677 0.19655 0.53418 0.0
O197 O 0.67387 0.12774 0.44177 0.0
O198 O 0.53861 0.14622 0.43776 0.0
O199 O 0.58412 0.19463 0.52361 0.0
O200 O 0.70993 0.16987 0.54313 0.0
O201 O 0.52666 0.1494 0.60966 0.0
H202 H 0.42835 0.2064 0.45359 0.0
H203 H 0.35592 0.12428 0.5624 0.0
O204 O 0.65412 0.12565 0.63029 0.0
O205 O 0.63487 0.0846 0.53071 0.0
O206 O 0.49731 0.09987 0.52249 0.0
C207 C 0.55561 0.07665 0.52473 0.0
H208 H 0.95248 0.07329 0.61454 0.0
H209 H 0.2546 0.2053 0.4532 0.0
Co210 Co 0.517 0.86282 0.52261 0.0
C211 C 0.44979 0.87414 0.63688 0.0
Co212 Co 0.38434 0.88328 0.5094 0.0
C213 C 0.70189 0.86406 0.51298 0.0
C214 C 0.66384 0.8218 0.56726 0.0
N215 N 0.63126 0.84812 0.53335 0.0
N216 N 0.77769 0.8492 0.53358 0.0
C217 C 0.75403 0.82236 0.56742 0.0
H218 H 0.69758 0.88649 0.48416 0.0
H219 H 0.6248 0.80412 0.59221 0.0
C220 C 0.47222 0.87443 0.39636 0.0
N221 N 0.26966 0.89769 0.49821 0.0
C222 C 0.19953 0.88296 0.52206 0.0
C223 C 0.2362 0.9222 0.45986 0.0
N224 N 0.12342 0.89676 0.4993 0.0
C225 C 0.14612 0.92176 0.46059 0.0
C226 C 0.49731 0.93386 0.52202 0.0
O227 O 0.52712 0.86158 0.43627 0.0
O228 O 0.39909 0.88493 0.41584 0.0
O229 O 0.41812 0.92583 0.51562 0.0
O230 O 0.55576 0.91071 0.52433 0.0
O231 O 0.37918 0.88258 0.60432 0.0
H232 H 0.2746 0.93843 0.43133 0.0
H233 H 0.20428 0.86177 0.55416 0.0
O234 O 0.51434 0.86401 0.60845 0.0
O235 O 0.46989 0.81602 0.52181 0.0
O236 O 0.34322 0.84025 0.50266 0.0
C237 C 0.38639 0.81374 0.51133 0.0
H238 H 0.79858 0.80519 0.59273 0.0
H239 H 0.10086 0.93746 0.43239 0.0
C240 C 0.53419 0.35409 0.02377 0.0
C241 C 0.51924 0.38829 0.03527 0.0
H242 H 0.62842 0.3157 1.00901 0.0
C243 C 0.5908 0.41036 0.0394 0.0
H244 H 0.48066 0.3363 0.02148 0.0
C245 C 0.67552 0.39854 0.03213 0.0
C246 C 0.6907 0.3643 0.02096 0.0
H247 H 0.58113 0.43687 0.04746 0.0
H248 H 0.7288 0.41643 0.0343 0.0
C249 C 0.61898 0.34223 1.01675 0.0
C250 C 0.38702 0.61814 0.03045 0.0
C251 C 0.37204 0.65289 0.03408 0.0
H252 H 0.48141 0.57872 0.02568 0.0
C253 C 0.44432 0.6747 0.03602 0.0
H254 H 0.33335 0.60047 0.03032 0.0
C255 C 0.52937 0.66209 0.03407 0.0
C256 C 0.54411 0.62737 0.0299 0.0
H257 H 0.43519 0.70156 0.03809 0.0
H258 H 0.58329 0.67965 0.03432 0.0
C259 C 0.47201 0.60557 0.02818 0.0
C260 C 0.61597 0.67048 0.52089 0.0
C261 C 0.68741 0.64828 0.52478 0.0
H262 H 0.47784 0.67667 0.52651 0.0
C263 C 0.67205 0.61411 0.53636 0.0
H264 H 0.62565 0.69696 0.51286 0.0
C265 C 0.58734 0.60247 0.54423 0.0
C266 C 0.51602 0.62465 0.54034 0.0
H267 H 0.72517 0.59615 0.53834 0.0
H268 H 0.57748 0.57601 0.55249 0.0
C269 C 0.53119 0.65879 0.52856 0.0
C270 C 0.47427 0.40693 0.52395 0.0
C271 C 0.54613 0.38501 0.52549 0.0
H272 H 0.3359 0.41228 0.52787 0.0
C273 C 0.53131 0.35037 0.5311 0.0
H274 H 0.48381 0.43372 0.52037 0.0
C275 C 0.44635 0.33794 0.53477 0.0
C276 C 0.3743 0.35985 0.53307 0.0
H277 H 0.58509 0.33273 0.53119 0.0
H278 H 0.43707 0.31112 0.53795 0.0
C279 C 0.38939 0.39453 0.5279 0.0
C280 C 0.08256 0.9099 0.02182 0.0
C281 C 1.01052 0.88805 0.01927 0.0
H282 H 0.22113 0.91515 0.01939 0.0
C283 C 1.02526 0.85342 1.01337 0.0
H284 H 0.07312 0.9367 0.02564 0.0
C285 C 0.11027 0.84092 1.01048 0.0
C286 C 0.18248 0.86276 1.01319 0.0
H287 H 0.97138 0.83582 1.01244 0.0
H288 H 0.11943 0.8141 1.00706 0.0
C289 C 0.1675 0.89744 1.01861 0.0
C290 C 1.02836 0.16094 0.03206 0.0
C291 C 0.04325 0.12627 0.02694 0.0
H292 H 0.93396 0.20023 0.03767 0.0
C293 C 0.97138 0.10436 0.02499 0.0
H294 H 0.08215 0.17857 0.03247 0.0
C295 C 0.8864 0.11679 0.02803 0.0
C296 C 0.87127 0.15148 0.03269 0.0
H297 H 0.98098 0.07755 0.02177 0.0
H298 H 0.83285 0.09906 0.02771 0.0
C299 C 0.94331 0.1734 0.03483 0.0
C300 C 0.11638 0.17147 0.51677 0.0
C301 C 0.18817 0.14942 0.52124 0.0
H302 H 0.97813 0.17748 0.5221 0.0
C303 C 0.17312 0.1153 0.53355 0.0
H304 H 0.12568 0.19792 0.50817 0.0
C305 C 0.08851 0.10358 0.54169 0.0
C306 C 1.01689 0.12562 0.53728 0.0
H307 H 0.2264 0.09741 0.53598 0.0
H308 H 0.07896 0.07716 0.55062 0.0
C309 C 0.03169 0.1597 0.52463 0.0
C310 C 0.9367 0.83901 0.5289 0.0
C311 C 0.86514 0.86116 0.52512 0.0
H312 H 0.07481 0.83287 0.52286 0.0
C313 C 0.88039 0.89534 0.51345 0.0
H314 H 0.92718 0.81252 0.53699 0.0
C315 C 0.96501 0.907 0.50525 0.0
C316 C 0.0364 0.88485 0.50893 0.0
H317 H 0.82725 0.91329 0.51156 0.0
H318 H 0.97476 0.93346 0.49683 0.0
C319 C 1.02139 0.85072 0.52094 0.0
C320 C 0.09746 0.53015 1.00813 0.0
C321 C 1.0284 0.54356 0.04014 0.0
H322 H 0.15767 0.48568 0.97513 0.0
C323 C 0.96564 0.52155 0.06412 0.0
H324 H 0.14511 0.54639 0.9878 0.0
C325 C 0.97097 0.48691 0.05552 0.0
C326 C 0.0398 0.47351 0.02334 0.0
H327 H 0.91095 0.53126 0.08884 0.0
H328 H 0.92311 0.47068 0.07563 0.0
C329 C 0.103 0.49546 0.99978 0.0
C330 C 0.96645 0.49037 0.56717 0.0
C331 C 0.02934 0.46891 0.54177 0.0
H332 H 0.92275 0.54095 0.58087 0.0
C333 C 0.09759 0.48289 0.50982 0.0
H334 H 0.91235 0.48012 0.5918 0.0
C335 C 0.10202 0.51764 0.50265 0.0
C336 C 0.03857 0.53908 0.52745 0.0
H337 H 0.14518 0.46704 0.48838 0.0
H338 H 0.1559 0.52787 0.47777 0.0
C339 C 0.97074 0.52511 0.55984 0.0
C340 C 0.58634 0.99411 0.98225 0.0
C341 C 0.52766 0.97222 1.01107 0.0
H342 H 0.62903 0.04488 0.96923 0.0
C343 C 0.46759 0.9856 0.05136 0.0
H344 H 0.63461 0.98429 0.95159 0.0
C345 C 0.46658 0.02014 0.06274 0.0
C346 C 0.52533 0.04203 0.03398 0.0
H347 H 0.42397 0.96936 0.07582 0.0
H348 H 0.41835 0.02995 0.09346 0.0
C349 C 0.58534 0.02864 0.99364 0.0
C350 C 0.608 0.01805 0.51174 0.0
C351 C 0.53775 0.04031 0.52181 0.0
H352 H 0.65146 0.96704 0.50497 0.0
C353 C 0.45595 0.02713 0.5334 0.0
H354 H 0.67248 0.02742 0.50242 0.0
C355 C 0.4448 0.99244 0.53529 0.0
C356 C 0.51505 0.97019 0.52518 0.0
H357 H 0.40134 0.04348 0.54206 0.0
H358 H 0.38033 0.98305 0.54456 0.0
C359 C 0.59686 0.98338 0.51365 0.0
C360 C 0.31455 0.28713 0.05105 0.0
C361 C 0.22368 0.28567 0.03193 0.0
H362 H 0.43871 0.2615 0.06128 0.0
C363 C 0.19027 0.25553 1.00664 0.0
H364 H 0.34345 0.30993 0.07089 0.0
C365 C 0.24597 0.22779 1.00085 0.0
C366 C 0.33672 0.22928 0.02016 0.0
H367 H 0.12172 0.25347 0.99057 0.0
H368 H 0.21735 0.20485 0.98136 0.0
C369 C 0.37021 0.25946 0.04501 0.0
C370 C 0.80985 0.78804 0.04585 0.0
C371 C 0.71904 0.78558 0.0271 0.0
H372 H 0.93545 0.76348 0.05741 0.0
C373 C 0.68703 0.75475 1.00426 0.0
H374 H 0.83743 0.81144 0.06396 0.0
C375 C 0.74418 0.72736 1.00004 0.0
C376 C 0.83496 0.72985 0.01882 0.0
H377 H 0.61855 0.75195 0.98848 0.0
H378 H 0.71669 0.70393 0.98206 0.0
C379 C 0.86699 0.76068 0.04156 0.0
C380 C 0.18749 0.75564 0.50067 0.0
C381 C 0.21931 0.72693 0.53235 0.0
H382 H 0.2161 0.8047 0.46726 0.0
C383 C 0.30903 0.72641 0.55483 0.0
H384 H 0.11994 0.75685 0.48177 0.0
C385 C 0.36519 0.75361 0.54578 0.0
C386 C 0.33334 0.78233 0.51422 0.0
H387 H 0.33664 0.70464 0.57943 0.0
H388 H 0.4327 0.75241 0.56477 0.0
C389 C 0.24366 0.78287 0.4917 0.0
C390 C 0.86979 0.25293 0.54558 0.0
C391 C 0.83868 0.28262 0.51736 0.0
H392 H 0.8395 0.2035 0.57544 0.0
C393 C 0.74867 0.28434 0.49602 0.0
H394 H 0.93755 0.25085 0.56367 0.0
C395 C 0.69128 0.25726 0.50315 0.0
C396 C 0.72228 0.22762 0.53187 0.0
H397 H 0.72191 0.307 0.47413 0.0
H398 H 0.6234 0.25938 0.48537 0.0
C399 C 0.81244 0.22596 0.55299 0.0
C400 C 0.9674 0.37949 0.2266 0.0
C401 C 0.05784 0.3818 0.21523 0.0
H402 H 0.86913 0.37679 0.29546 0.0
C403 C 0.11786 0.38649 0.26738 0.0
H404 H 0.91856 0.3765 0.18738 0.0
C405 C 0.08878 0.38662 0.32931 0.0
C406 C 0.99892 0.3825 0.34077 0.0
H407 H 0.18729 0.38869 0.2606 0.0
H408 H 0.13753 0.38903 0.36876 0.0
C409 C 0.93825 0.38 0.28851 0.0
C410 C 0.97355 0.61443 0.25863 0.0
C411 C 0.99798 0.64092 0.2199 0.0
H412 H 0.99235 0.5905 0.3499 0.0
C413 C 0.0666 0.66237 0.24342 0.0
H414 H 0.92306 0.59695 0.24171 0.0
C415 C 0.10901 0.65775 0.30374 0.0
C416 C 0.08424 0.63155 0.34264 0.0
H417 H 0.08818 0.68294 0.2147 0.0
H418 H 0.15766 0.67583 0.32132 0.0
C419 C 1.01581 0.61 0.31948 0.0
C420 C 0.07998 0.62249 0.83153 0.0
C421 C 0.9913 0.62932 0.84298 0.0
H422 H 0.17865 0.61899 0.76319 0.0
C423 C 0.93213 0.63529 0.79099 0.0
H424 H 0.12738 0.61759 0.87096 0.0
C425 C 0.96217 0.6365 0.72942 0.0
C426 C 0.05197 0.63155 0.7182 0.0
H427 H 0.86407 0.64086 0.79811 0.0
H428 H 0.91465 0.64215 0.69051 0.0
C429 C 0.10992 0.6234 0.76992 0.0
C430 C 0.04587 0.34533 0.74442 0.0
C431 C 0.99186 0.3712 0.7181 0.0
H432 H 0.12911 0.32785 0.82352 0.0
C433 C 0.98607 0.40107 0.75289 0.0
H434 H 0.05366 0.32222 0.71826 0.0
C435 C 0.03231 0.40459 0.81272 0.0
C436 C 0.08691 0.37872 0.83843 0.0
H437 H 0.94798 0.42193 0.73321 0.0
H438 H 1.02278 0.42713 0.84022 0.0
C439 C 0.09226 0.34898 0.80357 0.0
C440 C 0.62097 0.87647 0.25717 0.0
C441 C 0.56202 0.88369 0.2056 0.0
H442 H 0.63836 0.86754 0.35713 0.0
C443 C 0.47339 0.89025 0.21759 0.0
H444 H 0.68894 0.87095 0.24964 0.0
C445 C 0.44344 0.88812 0.27914 0.0
C446 C 0.50125 0.87896 0.33036 0.0
H447 H 0.42605 0.89598 0.17856 0.0
H448 H 0.37482 0.89257 0.28618 0.0
C449 C 0.59092 0.87402 0.31867 0.0
C450 C 0.55193 0.16504 0.24299 0.0
C451 C 0.49361 0.13999 0.21846 0.0
H452 H 0.63751 0.18235 0.32106 0.0
C453 C 0.4827 0.11123 0.2554 0.0
H454 H 0.56346 0.18731 0.21528 0.0
C455 C 0.52807 0.10803 0.31559 0.0
C456 C 0.58666 0.13312 0.33964 0.0
H457 H 0.44095 0.09098 0.23729 0.0
H458 H 0.51458 0.08651 0.34476 0.0
C459 C 0.59737 0.16172 0.30255 0.0
C460 C 0.58039 0.12323 0.82908 0.0
C461 C 0.4916 0.12978 0.84065 0.0
H462 H 0.67906 0.12008 0.76068 0.0
C463 C 0.43245 0.13592 0.7887 0.0
H464 H 0.62783 0.11823 0.86843 0.0
C465 C 0.46247 0.13743 0.72711 0.0
C466 C 0.55229 0.13258 0.71576 0.0
H467 H 0.36432 0.14132 0.79588 0.0
H468 H 0.4149 0.14315 0.68827 0.0
C469 C 0.61031 0.12442 0.76745 0.0
C470 C 0.46499 0.84795 0.74301 0.0
C471 C 0.46627 0.87726 0.70656 0.0
H472 H 0.5069 0.82319 0.82978 0.0
C473 C 0.51718 0.90451 0.73093 0.0
H474 H 0.43106 0.82587 0.72421 0.0
C475 C 0.56389 0.90268 0.7909 0.0
C476 C 0.56224 0.8732 0.8272 0.0
H477 H 0.5237 0.9268 0.70226 0.0
H478 H 0.59915 0.92449 0.80947 0.0
C479 C 0.51167 0.84602 0.80235 0.0
loop_
_geom_bond_atom_site_label_1
_geom_bond_atom_site_label_2
_geom_bond_distance
_geom_bond_site_symmetry_2
_ccdc_geom_bond_type
Co0 N5 2.057 1_554 S
Co0 O17 2.021 . S
Co0 O20 2.062 . S
Co0 O24 2.117 1_654 S
Co0 O25 2.020 1_655 S
C1 O21 1.259 . S
C1 O24 1.258 . S
Co2 N11 2.057 . S
Co2 O18 2.117 . S
Co2 O19 2.020 . S
Co2 O21 2.021 1_554 S
Co2 O26 2.062 . S
C3 N5 1.316 1_554 S
C3 N6 1.347 1_554 S
C3 H8 0.931 . S
C4 N5 1.375 . S
C4 C7 1.350 . S
C4 H9 0.930 . S
N5 Co0 2.057 1_556 S
N5 C3 1.316 1_556 S
N5 C4 1.375 . S
N6 C3 1.347 1_556 S
N6 C7 1.373 . S
C7 C4 1.350 . S
C7 N6 1.373 . S
C7 H28 0.931 . S
H8 C3 0.931 . S
H9 C4 0.930 . S
C10 O17 1.259 1_455 S
C10 O18 1.258 . S
N11 Co2 2.057 . S
N11 C12 1.316 1_554 S
N11 C13 1.375 . S
C12 N11 1.316 1_556 S
C12 N14 1.347 1_556 S
C12 H23 0.931 . S
C13 N11 1.375 . S
C13 C15 1.350 . S
C13 H22 0.930 . S
N14 C12 1.347 1_554 S
N14 C15 1.373 . S
C15 C13 1.350 . S
C15 N14 1.373 . S
C15 H29 0.931 . S
C16 O19 1.256 . S
C16 O20 1.255 1_455 S
O17 Co0 2.021 . S
O17 C10 1.259 1_655 S
O18 Co2 2.117 . S
O18 C10 1.258 . S
O19 Co2 2.020 . S
O19 C16 1.256 . S
O20 Co0 2.062 . S
O20 C16 1.255 1_655 S
O21 C1 1.259 . S
O21 Co2 2.021 1_556 S
H22 C13 0.930 . S
H23 C12 0.931 . S
O24 Co0 2.117 1_456 S
O24 C1 1.258 . S
O25 Co0 2.020 1_455 S
O25 C27 1.256 . S
O26 Co2 2.062 . S
O26 C27 1.255 . S
C27 O25 1.256 . S
C27 O26 1.255 . S
H28 C7 0.931 . S
H29 C15 0.931 . S
Co30 N35 2.057 1_554 S
Co30 O47 2.021 . S
Co30 O50 2.062 . S
Co30 O54 2.117 1_554 S
Co30 O55 2.020 . S
C31 O51 1.259 1_655 S
C31 O54 1.258 . S
Co32 N41 2.057 . S
Co32 O48 2.117 1_455 S
Co32 O49 2.020 1_455 S
Co32 O51 2.021 1_554 S
Co32 O56 2.062 . S
C33 N35 1.316 1_554 S
C33 N36 1.347 1_554 S
C33 H38 0.931 . S
C34 N35 1.375 . S
C34 C37 1.350 . S
C34 H39 0.930 . S
N35 Co30 2.057 1_556 S
N35 C33 1.316 1_556 S
N35 C34 1.375 . S
N36 C33 1.347 1_556 S
N36 C37 1.373 . S
C37 C34 1.350 . S
C37 N36 1.373 . S
C37 H58 0.931 . S
H38 C33 0.931 . S
H39 C34 0.930 . S
C40 O47 1.259 . S
C40 O48 1.258 . S
N41 Co32 2.057 . S
N41 C42 1.316 1_554 S
N41 C43 1.375 . S
C42 N41 1.316 1_556 S
C42 N44 1.347 1_556 S
C42 H53 0.931 . S
C43 N41 1.375 . S
C43 C45 1.350 . S
C43 H52 0.930 . S
N44 C42 1.347 1_554 S
N44 C45 1.373 . S
C45 C43 1.350 . S
C45 N44 1.373 . S
C45 H59 0.931 . S
C46 O49 1.256 . S
C46 O50 1.255 . S
O47 Co30 2.021 . S
O47 C40 1.259 . S
O48 Co32 2.117 1_655 S
O48 C40 1.258 . S
O49 Co32 2.020 1_655 S
O49 C46 1.256 . S
O50 Co30 2.062 . S
O50 C46 1.255 . S
O51 C31 1.259 1_455 S
O51 Co32 2.021 1_556 S
H52 C43 0.930 . S
H53 C42 0.931 . S
O54 Co30 2.117 1_556 S
O54 C31 1.258 . S
O55 Co30 2.020 . S
O55 C57 1.256 . S
O56 Co32 2.062 . S
O56 C57 1.255 1_455 S
C57 O55 1.256 . S
C57 O56 1.255 1_655 S
H58 C37 0.931 . S
H59 C45 0.931 . S
Co60 N65 2.057 . S
Co60 O77 2.021 . S
Co60 O80 2.062 . S
Co60 O84 2.117 . S
Co60 O85 2.020 . S
C61 O81 1.259 1_455 S
C61 O84 1.258 . S
Co62 N71 2.057 . S
Co62 O78 2.117 1_655 S
Co62 O79 2.020 1_655 S
Co62 O81 2.021 . S
Co62 O86 2.062 . S
C63 N65 1.316 . S
C63 N66 1.347 . S
C63 H68 0.931 . S
C64 N65 1.375 . S
C64 C67 1.350 . S
C64 H69 0.930 . S
N65 Co60 2.057 . S
N65 C63 1.316 . S
N65 C64 1.375 . S
N66 C63 1.347 . S
N66 C67 1.373 . S
C67 C64 1.350 . S
C67 N66 1.373 . S
C67 H88 0.931 . S
H68 C63 0.931 . S
H69 C64 0.930 . S
C70 O77 1.259 . S
C70 O78 1.258 . S
N71 Co62 2.057 . S
N71 C72 1.316 . S
N71 C73 1.375 . S
C72 N71 1.316 . S
C72 N74 1.347 . S
C72 H83 0.931 . S
C73 N71 1.375 . S
C73 C75 1.350 . S
C73 H82 0.930 . S
N74 C72 1.347 . S
N74 C75 1.373 . S
C75 C73 1.350 . S
C75 N74 1.373 . S
C75 H89 0.931 . S
C76 O79 1.256 . S
C76 O80 1.255 . S
O77 Co60 2.021 . S
O77 C70 1.259 . S
O78 Co62 2.117 1_455 S
O78 C70 1.258 . S
O79 Co62 2.020 1_455 S
O79 C76 1.256 . S
O80 Co60 2.062 . S
O80 C76 1.255 . S
O81 C61 1.259 1_655 S
O81 Co62 2.021 . S
H82 C73 0.930 . S
H83 C72 0.931 . S
O84 Co60 2.117 . S
O84 C61 1.258 . S
O85 Co60 2.020 . S
O85 C87 1.256 . S
O86 Co62 2.062 . S
O86 C87 1.255 1_655 S
C87 O85 1.256 . S
C87 O86 1.255 1_455 S
H88 C67 0.931 . S
H89 C75 0.931 . S
Co90 N95 2.057 . S
Co90 O107 2.021 . S
Co90 O110 2.062 . S
Co90 O114 2.117 1_455 S
Co90 O115 2.020 1_455 S
C91 O111 1.259 . S
C91 O114 1.258 . S
Co92 N101 2.057 . S
Co92 O108 2.117 . S
Co92 O109 2.020 . S
Co92 O111 2.021 . S
Co92 O116 2.062 . S
C93 N95 1.316 . S
C93 N96 1.347 . S
C93 H98 0.931 . S
C94 N95 1.375 . S
C94 C97 1.350 . S
C94 H99 0.930 . S
N95 Co90 2.057 . S
N95 C93 1.316 . S
N95 C94 1.375 . S
N96 C93 1.347 . S
N96 C97 1.373 . S
C97 C94 1.350 . S
C97 N96 1.373 . S
C97 H118 0.931 . S
H98 C93 0.931 . S
H99 C94 0.930 . S
C100 O107 1.259 1_655 S
C100 O108 1.258 . S
N101 Co92 2.057 . S
N101 C102 1.316 . S
N101 C103 1.375 . S
C102 N101 1.316 . S
C102 N104 1.347 . S
C102 H113 0.931 . S
C103 N101 1.375 . S
C103 C105 1.350 . S
C103 H112 0.930 . S
N104 C102 1.347 . S
N104 C105 1.373 . S
C105 C103 1.350 . S
C105 N104 1.373 . S
C105 H119 0.931 . S
C106 O109 1.256 . S
C106 O110 1.255 1_655 S
O107 Co90 2.021 . S
O107 C100 1.259 1_455 S
O108 Co92 2.117 . S
O108 C100 1.258 . S
O109 Co92 2.020 . S
O109 C106 1.256 . S
O110 Co90 2.062 . S
O110 C106 1.255 1_455 S
O111 C91 1.259 . S
O111 Co92 2.021 . S
H112 C103 0.930 . S
H113 C102 0.931 . S
O114 Co90 2.117 1_655 S
O114 C91 1.258 . S
O115 Co90 2.020 1_655 S
O115 C117 1.256 . S
O116 Co92 2.062 . S
O116 C117 1.255 . S
C117 O115 1.256 . S
C117 O116 1.255 . S
H118 C97 0.931 . S
H119 C105 0.931 . S
Co120 N125 2.057 1_554 S
Co120 O137 2.021 . S
Co120 O140 2.062 . S
Co120 O144 2.117 1_554 S
Co120 O145 2.020 . S
C121 O141 1.259 . S
C121 O144 1.258 . S
Co122 N131 2.057 . S
Co122 O138 2.117 . S
Co122 O139 2.020 . S
Co122 O141 2.021 1_554 S
Co122 O146 2.062 . S
C123 N125 1.316 1_554 S
C123 N126 1.347 1_554 S
C123 H128 0.931 . S
C124 N125 1.375 . S
C124 C127 1.350 . S
C124 H129 0.930 . S
N125 Co120 2.057 1_556 S
N125 C123 1.316 1_556 S
N125 C124 1.375 . S
N126 C123 1.347 1_556 S
N126 C127 1.373 . S
C127 C124 1.350 . S
C127 N126 1.373 . S
C127 H148 0.931 . S
H128 C123 0.931 . S
H129 C124 0.930 . S
C130 O137 1.259 . S
C130 O138 1.258 . S
N131 Co122 2.057 . S
N131 C132 1.316 1_554 S
N131 C133 1.375 . S
C132 N131 1.316 1_556 S
C132 N134 1.347 1_556 S
C132 H143 0.931 . S
C133 N131 1.375 . S
C133 C135 1.350 . S
C133 H142 0.930 . S
N134 C132 1.347 1_554 S
N134 C135 1.373 . S
C135 C133 1.350 . S
C135 N134 1.373 . S
C135 H149 0.931 . S
C136 O139 1.256 . S
C136 O140 1.255 . S
O137 Co120 2.021 . S
O137 C130 1.259 . S
O138 Co122 2.117 . S
O138 C130 1.258 . S
O139 Co122 2.020 . S
O139 C136 1.256 . S
O140 Co120 2.062 . S
O140 C136 1.255 . S
O141 C121 1.259 . S
O141 Co122 2.021 1_556 S
H142 C133 0.930 . S
H143 C132 0.931 . S
O144 Co120 2.117 1_556 S
O144 C121 1.258 . S
O145 Co120 2.020 . S
O145 C147 1.256 . S
O146 Co122 2.062 . S
O146 C147 1.255 . S
C147 O145 1.256 . S
C147 O146 1.255 . S
H148 C127 0.931 . S
H149 C135 0.931 . S
Co150 N155 2.057 1_554 S
Co150 O167 2.021 . S
Co150 O170 2.062 . S
Co150 O174 2.117 1_554 S
Co150 O175 2.020 . S
C151 O171 1.259 . S
C151 O174 1.258 . S
Co152 N161 2.057 . S
Co152 O168 2.117 . S
Co152 O169 2.020 . S
Co152 O171 2.021 1_554 S
Co152 O176 2.062 . S
C153 N155 1.316 1_554 S
C153 N156 1.347 1_554 S
C153 H158 0.931 . S
C154 N155 1.375 . S
C154 C157 1.350 . S
C154 H159 0.930 . S
N155 Co150 2.057 1_556 S
N155 C153 1.316 1_556 S
N155 C154 1.375 . S
N156 C153 1.347 1_556 S
N156 C157 1.373 . S
C157 C154 1.350 . S
C157 N156 1.373 . S
C157 H178 0.931 . S
H158 C153 0.931 . S
H159 C154 0.930 . S
C160 O167 1.259 . S
C160 O168 1.258 . S
N161 Co152 2.057 . S
N161 C162 1.316 1_554 S
N161 C163 1.375 . S
C162 N161 1.316 1_556 S
C162 N164 1.347 1_556 S
C162 H173 0.931 . S
C163 N161 1.375 . S
C163 C165 1.350 . S
C163 H172 0.930 . S
N164 C162 1.347 1_554 S
N164 C165 1.373 . S
C165 C163 1.350 . S
C165 N164 1.373 . S
C165 H179 0.931 . S
C166 O169 1.256 . S
C166 O170 1.255 . S
O167 Co150 2.021 . S
O167 C160 1.259 . S
O168 Co152 2.117 . S
O168 C160 1.258 . S
O169 Co152 2.020 . S
O169 C166 1.256 . S
O170 Co150 2.062 . S
O170 C166 1.255 . S
O171 C151 1.259 . S
O171 Co152 2.021 1_556 S
H172 C163 0.930 . S
H173 C162 0.931 . S
O174 Co150 2.117 1_556 S
O174 C151 1.258 . S
O175 Co150 2.020 . S
O175 C177 1.256 . S
O176 Co152 2.062 . S
O176 C177 1.255 . S
C177 O175 1.256 . S
C177 O176 1.255 . S
H178 C157 0.931 . S
H179 C165 0.931 . S
Co180 N185 2.057 . S
Co180 O197 2.021 . S
Co180 O200 2.062 . S
Co180 O204 2.117 . S
Co180 O205 2.020 . S
C181 O201 1.259 . S
C181 O204 1.258 . S
Co182 N191 2.057 . S
Co182 O198 2.117 . S
Co182 O199 2.020 . S
Co182 O201 2.021 . S
Co182 O206 2.062 . S
C183 N185 1.316 . S
C183 N186 1.347 . S
C183 H188 0.931 . S
C184 N185 1.375 . S
C184 C187 1.350 . S
C184 H189 0.930 . S
N185 Co180 2.057 . S
N185 C183 1.316 . S
N185 C184 1.375 . S
N186 C183 1.347 . S
N186 C187 1.373 . S
C187 C184 1.350 . S
C187 N186 1.373 . S
C187 H208 0.931 . S
H188 C183 0.931 . S
H189 C184 0.930 . S
C190 O197 1.259 . S
C190 O198 1.258 . S
N191 Co182 2.057 . S
N191 C192 1.316 . S
N191 C193 1.375 . S
C192 N191 1.316 . S
C192 N194 1.347 . S
C192 H203 0.931 . S
C193 N191 1.375 . S
C193 C195 1.350 . S
C193 H202 0.930 . S
N194 C192 1.347 . S
N194 C195 1.373 . S
C195 C193 1.350 . S
C195 N194 1.373 . S
C195 H209 0.931 . S
C196 O199 1.256 . S
C196 O200 1.255 . S
O197 Co180 2.021 . S
O197 C190 1.259 . S
O198 Co182 2.117 . S
O198 C190 1.258 . S
O199 Co182 2.020 . S
O199 C196 1.256 . S
O200 Co180 2.062 . S
O200 C196 1.255 . S
O201 C181 1.259 . S
O201 Co182 2.021 . S
H202 C193 0.930 . S
H203 C192 0.931 . S
O204 Co180 2.117 . S
O204 C181 1.258 . S
O205 Co180 2.020 . S
O205 C207 1.256 . S
O206 Co182 2.062 . S
O206 C207 1.255 . S
C207 O205 1.256 . S
C207 O206 1.255 . S
H208 C187 0.931 . S
H209 C195 0.931 . S
Co210 N215 2.057 . S
Co210 O227 2.021 . S
Co210 O230 2.062 . S
Co210 O234 2.117 . S
Co210 O235 2.020 . S
C211 O231 1.259 . S
C211 O234 1.258 . S
Co212 N221 2.057 . S
Co212 O228 2.117 . S
Co212 O229 2.020 . S
Co212 O231 2.021 . S
Co212 O236 2.062 . S
C213 N215 1.316 . S
C213 N216 1.347 . S
C213 H218 0.931 . S
C214 N215 1.375 . S
C214 C217 1.350 . S
C214 H219 0.930 . S
N215 Co210 2.057 . S
N215 C213 1.316 . S
N215 C214 1.375 . S
N216 C213 1.347 . S
N216 C217 1.373 . S
C217 C214 1.350 . S
C217 N216 1.373 . S
C217 H238 0.931 . S
H218 C213 0.931 . S
H219 C214 0.930 . S
C220 O227 1.259 . S
C220 O228 1.258 . S
N221 Co212 2.057 . S
N221 C222 1.316 . S
N221 C223 1.375 . S
C222 N221 1.316 . S
C222 N224 1.347 . S
C222 H233 0.931 . S
C223 N221 1.375 . S
C223 C225 1.350 . S
C223 H232 0.930 . S
N224 C222 1.347 . S
N224 C225 1.373 . S
C225 C223 1.350 . S
C225 N224 1.373 . S
C225 H239 0.931 . S
C226 O229 1.256 . S
C226 O230 1.255 . S
O227 Co210 2.021 . S
O227 C220 1.259 . S
O228 Co212 2.117 . S
O228 C220 1.258 . S
O229 Co212 2.020 . S
O229 C226 1.256 . S
O230 Co210 2.062 . S
O230 C226 1.255 . S
O231 C211 1.259 . S
O231 Co212 2.021 . S
H232 C223 0.930 . S
H233 C222 0.931 . S
O234 Co210 2.117 . S
O234 C211 1.258 . S
O235 Co210 2.020 . S
O235 C237 1.256 . S
O236 Co212 2.062 . S
O236 C237 1.255 . S
C237 O235 1.256 . S
C237 O236 1.255 . S
H238 C217 0.931 . S
H239 C225 0.931 . S
C240 C241 1.387 1_556 S
C240 H244 0.950 . S
C240 C249 1.390 . S
C241 C240 1.387 1_554 S
C241 C243 1.387 . S
H242 C249 0.950 . S
C243 C241 1.387 . S
C243 C245 1.390 . S
C243 H247 0.950 . S
H244 C240 0.950 . S
C245 C243 1.390 . S
C245 C246 1.387 . S
C245 H248 0.950 . S
C246 C245 1.387 . S
C246 C249 1.387 1_554 S
H247 C243 0.950 . S
H248 C245 0.950 . S
C249 C240 1.390 . S
C249 H242 0.950 . S
C249 C246 1.387 1_556 S
C250 C251 1.387 1_556 S
C250 H254 0.950 . S
C250 C259 1.390 . S
C251 C250 1.387 1_554 S
C251 C253 1.387 . S
H252 C259 0.950 . S
C253 C251 1.387 . S
C253 C255 1.390 . S
C253 H257 0.950 . S
H254 C250 0.950 . S
C255 C253 1.390 . S
C255 C256 1.387 . S
C255 H258 0.950 . S
C256 C255 1.387 . S
C256 C259 1.387 1_554 S
H257 C253 0.950 . S
H258 C255 0.950 . S
C259 C250 1.390 . S
C259 H252 0.950 . S
C259 C256 1.387 1_556 S
C260 C261 1.387 . S
C260 H264 0.950 . S
C260 C269 1.390 . S
C261 C260 1.387 . S
C261 C263 1.387 . S
H262 C269 0.950 . S
C263 C261 1.387 . S
C263 C265 1.390 . S
C263 H267 0.950 . S
H264 C260 0.950 . S
C265 C263 1.390 . S
C265 C266 1.387 . S
C265 H268 0.950 . S
C266 C265 1.387 . S
C266 C269 1.387 . S
H267 C263 0.950 . S
H268 C265 0.950 . S
C269 C260 1.390 . S
C269 H262 0.950 . S
C269 C266 1.387 . S
C270 C271 1.387 . S
C270 H274 0.950 . S
C270 C279 1.390 . S
C271 C270 1.387 . S
C271 C273 1.387 . S
H272 C279 0.950 . S
C273 C271 1.387 . S
C273 C275 1.390 . S
C273 H277 0.950 . S
H274 C270 0.950 . S
C275 C273 1.390 . S
C275 C276 1.387 . S
C275 H278 0.950 . S
C276 C275 1.387 . S
C276 C279 1.387 . S
H277 C273 0.950 . S
H278 C275 0.950 . S
C279 C270 1.390 . S
C279 H272 0.950 . S
C279 C276 1.387 . S
C280 C281 1.387 1_455 S
C280 H284 0.950 1_455 S
C280 C289 1.390 . S
C281 C280 1.387 1_655 S
C281 C283 1.387 1_654 S
H282 C289 0.950 . S
C283 C281 1.387 1_456 S
C283 C285 1.390 . S
C283 H287 0.950 1_455 S
H284 C280 0.950 1_655 S
C285 C283 1.390 . S
C285 C286 1.387 1_556 S
C285 H288 0.950 . S
C286 C285 1.387 1_554 S
C286 C289 1.387 . S
H287 C283 0.950 1_655 S
H288 C285 0.950 . S
C289 C280 1.390 . S
C289 H282 0.950 . S
C289 C286 1.387 . S
C290 C291 1.387 1_655 S
C290 H294 0.950 1_655 S
C290 C299 1.390 . S
C291 C290 1.387 1_455 S
C291 C293 1.387 1_454 S
H292 C299 0.950 . S
C293 C291 1.387 1_656 S
C293 C295 1.390 . S
C293 H297 0.950 1_655 S
H294 C290 0.950 1_455 S
C295 C293 1.390 . S
C295 C296 1.387 1_556 S
C295 H298 0.950 . S
C296 C295 1.387 1_554 S
C296 C299 1.387 . S
H297 C293 0.950 1_455 S
H298 C295 0.950 . S
C299 C290 1.390 . S
C299 H292 0.950 . S
C299 C296 1.387 . S
C300 C301 1.387 . S
C300 H304 0.950 . S
C300 C309 1.390 . S
C301 C300 1.387 . S
C301 C303 1.387 . S
H302 C309 0.950 1_655 S
C303 C301 1.387 . S
C303 C305 1.390 . S
C303 H307 0.950 . S
H304 C300 0.950 . S
C305 C303 1.390 . S
C305 C306 1.387 1_455 S
C305 H308 0.950 1_455 S
C306 C305 1.387 1_655 S
C306 C309 1.387 1_655 S
H307 C303 0.950 . S
H308 C305 0.950 1_655 S
C309 C300 1.390 . S
C309 H302 0.950 1_455 S
C309 C306 1.387 1_455 S
C310 C311 1.387 . S
C310 H314 0.950 . S
C310 C319 1.390 . S
C311 C310 1.387 . S
C311 C313 1.387 . S
H312 C319 0.950 1_455 S
C313 C311 1.387 . S
C313 C315 1.390 . S
C313 H317 0.950 . S
H314 C310 0.950 . S
C315 C313 1.390 . S
C315 C316 1.387 1_655 S
C315 H318 0.950 1_655 S
C316 C315 1.387 1_455 S
C316 C319 1.387 1_455 S
H317 C313 0.950 . S
H318 C315 0.950 1_455 S
C319 C310 1.390 . S
C319 H312 0.950 1_655 S
C319 C316 1.387 1_655 S
C320 C321 1.387 1_455 S
C320 H324 0.950 . S
C320 C329 1.390 . S
C321 C320 1.387 1_655 S
C321 C323 1.387 1_554 S
H322 C329 0.950 . S
C323 C321 1.387 1_556 S
C323 C325 1.390 . S
C323 H327 0.950 . S
H324 C320 0.950 . S
C325 C323 1.390 . S
C325 C326 1.387 1_656 S
C325 H328 0.950 . S
C326 C325 1.387 1_454 S
C326 C329 1.387 . S
H327 C323 0.950 . S
H328 C325 0.950 . S
C329 C320 1.390 . S
C329 H322 0.950 . S
C329 C326 1.387 . S
C330 C331 1.387 . S
C330 H334 0.950 . S
C330 C339 1.390 . S
C331 C330 1.387 . S
C331 C333 1.387 1_655 S
H332 C339 0.950 . S
C333 C331 1.387 1_455 S
C333 C335 1.390 . S
C333 H337 0.950 . S
H334 C330 0.950 . S
C335 C333 1.390 . S
C335 C336 1.387 . S
C335 H338 0.950 . S
C336 C335 1.387 . S
C336 C339 1.387 1_455 S
H337 C333 0.950 . S
H338 C335 0.950 . S
C339 C330 1.390 . S
C339 H332 0.950 . S
C339 C336 1.387 1_655 S
C340 C341 1.387 . S
C340 H344 0.950 . S
C340 C349 1.390 1_565 S
C341 C340 1.387 . S
C341 C343 1.387 . S
H342 C349 0.950 . S
C343 C341 1.387 . S
C343 C345 1.390 1_565 S
C343 H347 0.950 . S
H344 C340 0.950 . S
C345 C343 1.390 1_545 S
C345 C346 1.387 . S
C345 H348 0.950 1_554 S
C346 C345 1.387 . S
C346 C349 1.387 . S
H347 C343 0.950 . S
H348 C345 0.950 1_556 S
C349 C340 1.390 1_545 S
C349 H342 0.950 . S
C349 C346 1.387 . S
C350 C351 1.387 . S
C350 H354 0.950 . S
C350 C359 1.390 1_545 S
C351 C350 1.387 . S
C351 C353 1.387 . S
H352 C359 0.950 . S
C353 C351 1.387 . S
C353 C355 1.390 1_545 S
C353 H357 0.950 . S
H354 C350 0.950 . S
C355 C353 1.390 1_565 S
C355 C356 1.387 . S
C355 H358 0.950 . S
C356 C355 1.387 . S
C356 C359 1.387 . S
H357 C353 0.950 . S
H358 C355 0.950 . S
C359 C350 1.390 1_565 S
C359 H352 0.950 . S
C359 C356 1.387 . S
C360 C361 1.387 . S
C360 H364 0.950 . S
C360 C369 1.390 . S
C361 C360 1.387 . S
C361 C363 1.387 1_554 S
H362 C369 0.950 . S
C363 C361 1.387 1_556 S
C363 C365 1.390 . S
C363 H367 0.950 . S
H364 C360 0.950 . S
C365 C363 1.390 . S
C365 C366 1.387 1_556 S
C365 H368 0.950 . S
C366 C365 1.387 1_554 S
C366 C369 1.387 . S
H367 C363 0.950 . S
H368 C365 0.950 . S
C369 C360 1.390 . S
C369 H362 0.950 . S
C369 C366 1.387 . S
C370 C371 1.387 . S
C370 H374 0.950 . S
C370 C379 1.390 . S
C371 C370 1.387 . S
C371 C373 1.387 1_554 S
H372 C379 0.950 . S
C373 C371 1.387 1_556 S
C373 C375 1.390 . S
C373 H377 0.950 . S
H374 C370 0.950 . S
C375 C373 1.390 . S
C375 C376 1.387 1_556 S
C375 H378 0.950 . S
C376 C375 1.387 1_554 S
C376 C379 1.387 . S
H377 C373 0.950 . S
H378 C375 0.950 . S
C379 C370 1.390 . S
C379 H372 0.950 . S
C379 C376 1.387 . S
C380 C381 1.387 . S
C380 H384 0.950 . S
C380 C389 1.390 . S
C381 C380 1.387 . S
C381 C383 1.387 . S
H382 C389 0.950 . S
C383 C381 1.387 . S
C383 C385 1.390 . S
C383 H387 0.950 . S
H384 C380 0.950 . S
C385 C383 1.390 . S
C385 C386 1.387 . S
C385 H388 0.950 . S
C386 C385 1.387 . S
C386 C389 1.387 . S
H387 C383 0.950 . S
H388 C385 0.950 . S
C389 C380 1.390 . S
C389 H382 0.950 . S
C389 C386 1.387 . S
C390 C391 1.387 . S
C390 H394 0.950 . S
C390 C399 1.390 . S
C391 C390 1.387 . S
C391 C393 1.387 . S
H392 C399 0.950 . S
C393 C391 1.387 . S
C393 C395 1.390 . S
C393 H397 0.950 . S
H394 C390 0.950 . S
C395 C393 1.390 . S
C395 C396 1.387 . S
C395 H398 0.950 . S
C396 C395 1.387 . S
C396 C399 1.387 . S
H397 C393 0.950 . S
H398 C395 0.950 . S
C399 C390 1.390 . S
C399 H392 0.950 . S
C399 C396 1.387 . S
C400 C401 1.387 . S
C400 H404 0.950 . S
C400 C409 1.390 1_455 S
C401 C400 1.387 . S
C401 C403 1.387 . S
H402 C409 0.950 . S
C403 C401 1.387 . S
C403 C405 1.390 1_455 S
C403 H407 0.950 . S
H404 C400 0.950 . S
C405 C403 1.390 1_655 S
C405 C406 1.387 . S
C405 H408 0.950 . S
C406 C405 1.387 . S
C406 C409 1.387 . S
H407 C403 0.950 . S
H408 C405 0.950 . S
C409 C400 1.390 1_655 S
C409 H402 0.950 . S
C409 C406 1.387 . S
C410 C411 1.387 . S
C410 H414 0.950 . S
C410 C419 1.390 1_655 S
C411 C410 1.387 . S
C411 C413 1.387 . S
H412 C419 0.950 . S
C413 C411 1.387 . S
C413 C415 1.390 1_655 S
C413 H417 0.950 . S
H414 C410 0.950 . S
C415 C413 1.390 1_455 S
C415 C416 1.387 . S
C415 H418 0.950 . S
C416 C415 1.387 . S
C416 C419 1.387 . S
H417 C413 0.950 . S
H418 C415 0.950 . S
C419 C410 1.390 1_455 S
C419 H412 0.950 . S
C419 C416 1.387 . S
C420 C421 1.387 . S
C420 H424 0.950 . S
C420 C429 1.390 1_655 S
C421 C420 1.387 . S
C421 C423 1.387 . S
H422 C429 0.950 . S
C423 C421 1.387 . S
C423 C425 1.390 1_655 S
C423 H427 0.950 . S
H424 C420 0.950 . S
C425 C423 1.390 1_455 S
C425 C426 1.387 . S
C425 H428 0.950 . S
C426 C425 1.387 . S
C426 C429 1.387 . S
H427 C423 0.950 . S
H428 C425 0.950 . S
C429 C420 1.390 1_455 S
C429 H422 0.950 . S
C429 C426 1.387 . S
C430 C431 1.387 . S
C430 H434 0.950 . S
C430 C439 1.390 1_655 S
C431 C430 1.387 . S
C431 C433 1.387 . S
H432 C439 0.950 . S
C433 C431 1.387 . S
C433 C435 1.390 1_655 S
C433 H437 0.950 . S
H434 C430 0.950 . S
C435 C433 1.390 1_455 S
C435 C436 1.387 . S
C435 H438 0.950 . S
C436 C435 1.387 . S
C436 C439 1.387 . S
H437 C433 0.950 . S
H438 C435 0.950 . S
C439 C430 1.390 1_455 S
C439 H432 0.950 . S
C439 C436 1.387 . S
C440 C441 1.387 . S
C440 H444 0.950 . S
C440 C449 1.390 . S
C441 C440 1.387 . S
C441 C443 1.387 . S
H442 C449 0.950 . S
C443 C441 1.387 . S
C443 C445 1.390 . S
C443 H447 0.950 . S
H444 C440 0.950 . S
C445 C443 1.390 . S
C445 C446 1.387 . S
C445 H448 0.950 . S
C446 C445 1.387 . S
C446 C449 1.387 . S
H447 C443 0.950 . S
H448 C445 0.950 . S
C449 C440 1.390 . S
C449 H442 0.950 . S
C449 C446 1.387 . S
C450 C451 1.387 . S
C450 H454 0.950 . S
C450 C459 1.390 . S
C451 C450 1.387 . S
C451 C453 1.387 . S
H452 C459 0.950 . S
C453 C451 1.387 . S
C453 C455 1.390 . S
C453 H457 0.950 . S
H454 C450 0.950 . S
C455 C453 1.390 . S
C455 C456 1.387 . S
C455 H458 0.950 . S
C456 C455 1.387 . S
C456 C459 1.387 . S
H457 C453 0.950 . S
H458 C455 0.950 . S
C459 C450 1.390 . S
C459 H452 0.950 . S
C459 C456 1.387 . S
C460 C461 1.387 . S
C460 H464 0.950 . S
C460 C469 1.390 . S
C461 C460 1.387 . S
C461 C463 1.387 . S
H462 C469 0.950 . S
C463 C461 1.387 . S
C463 C465 1.390 . S
C463 H467 0.950 . S
H464 C460 0.950 . S
C465 C463 1.390 . S
C465 C466 1.387 . S
C465 H468 0.950 . S
C466 C465 1.387 . S
C466 C469 1.387 . S
H467 C463 0.950 . S
H468 C465 0.950 . S
C469 C460 1.390 . S
C469 H462 0.950 . S
C469 C466 1.387 . S
C470 C471 1.387 . S
C470 H474 0.950 . S
C470 C479 1.390 . S
C471 C470 1.387 . S
C471 C473 1.387 . S
H472 C479 0.950 . S
C473 C471 1.387 . S
C473 C475 1.390 . S
C473 H477 0.950 . S
H474 C470 0.950 . S
C475 C473 1.390 . S
C475 C476 1.387 . S
C475 H478 0.950 . S
C476 C475 1.387 . S
C476 C479 1.387 . S
H477 C473 0.950 . S
H478 C475 0.950 . S
C479 C470 1.390 . S
C479 H472 0.950 . S
C479 C476 1.387 . S
C241 N14 1.278 . S
C246 N6 1.278 1_554 S
C251 N44 1.279 . S
C256 N36 1.279 1_554 S
C261 N74 1.280 . S
C266 N66 1.280 . S
C271 N104 1.280 . S
C276 N96 1.280 . S
C281 N134 1.280 . S
C286 N126 1.280 1_554 S
C291 N156 1.280 1_554 S
C296 N164 1.280 . S
C301 N194 1.280 . S
C306 N186 1.280 . S
C311 N216 1.279 . S
C316 N224 1.279 . S
C321 C57 1.586 . S
C326 C16 1.586 . S
C331 C106 1.585 . S
C336 C87 1.585 . S
C341 C136 1.585 . S
C346 C177 1.585 . S
C351 C207 1.585 . S
C356 C226 1.585 . S
C361 C27 1.850 . S
C366 C166 1.850 . S
C371 C147 1.850 . S
C376 C46 1.850 . S
C381 C76 1.850 . S
C386 C237 1.850 . S
C391 C117 1.854 . S
C396 C196 1.854 . S
C401 C10 1.653 . S
C406 C100 1.653 . S
C411 C40 1.632 . S
C416 C70 1.632 . S
C421 C31 1.656 . S
C426 C61 1.656 . S
C431 C91 1.634 . S
C436 C1 1.634 . S
C441 C130 1.653 . S
C446 C220 1.653 . S
C451 C160 1.632 . S
C456 C190 1.632 . S
C461 C151 1.656 . S
C466 C181 1.656 . S
C471 C211 1.634 . S
C476 C121 1.634 . S
