# Generated by pormake.
# Topology whw, (6)-cn, num edge types: 1
# Building blocks:
#     Node 0, Type 0, BuildingBlock: HISSIN_clean_sbu_0, # of connection points: 6
#     Node 1, Type 0, BuildingBlock: HISSIN_clean_sbu_0, # of connection points: 6
#     Node 2, Type 0, BuildingBlock: HISSIN_clean_sbu_0, # of connection points: 6
#     Node 3, Type 0, BuildingBlock: HISSIN_clean_sbu_0, # of connection points: 6
#     Node 4, Type 0, BuildingBlock: HISSIN_clean_sbu_0, # of connection points: 6
#     Node 5, Type 0, BuildingBlock: HISSIN_clean_sbu_0, # of connection points: 6
#     Node 6, Type 0, BuildingBlock: HISSIN_clean_sbu_0, # of connection points: 6
#     Node 7, Type 0, BuildingBlock: HISSIN_clean_sbu_0, # of connection points: 6
#     Node 8, Type 0, BuildingBlock: HISSIN_clean_sbu_0, # of connection points: 6
#     Node 9, Type 0, BuildingBlock: HISSIN_clean_sbu_0, # of connection points: 6
#     Node 10, Type 0, BuildingBlock: HISSIN_clean_sbu_0, # of connection points: 6
#     Node 11, Type 0, BuildingBlock: HISSIN_clean_sbu_0, # of connection points: 6
#     Node 12, Type 0, BuildingBlock: HISSIN_clean_sbu_0, # of connection points: 6
#     Node 13, Type 0, BuildingBlock: HISSIN_clean_sbu_0, # of connection points: 6
#     Node 14, Type 0, BuildingBlock: HISSIN_clean_sbu_0, # of connection points: 6
#     Node 15, Type 0, BuildingBlock: HISSIN_clean_sbu_0, # of connection points: 6
#     Edge 16, Type (0, 0), BuildingBlock: UVAHIK_clean_linker_0, # of connection points: 2
#     Edge 17, Type (0, 0), BuildingBlock: UVAHIK_clean_linker_0, # of connection points: 2
#     Edge 18, Type (0, 0), BuildingBlock: UVAHIK_clean_linker_0, # of connection points: 2
#     Edge 19, Type (0, 0), BuildingBlock: UVAHIK_clean_linker_0, # of connection points: 2
#     Edge 20, Type (0, 0), BuildingBlock: UVAHIK_clean_linker_0, # of connection points: 2
#     Edge 21, Type (0, 0), BuildingBlock: UVAHIK_clean_linker_0, # of connection points: 2
#     Edge 22, Type (0, 0), BuildingBlock: UVAHIK_clean_linker_0, # of connection points: 2
#     Edge 23, Type (0, 0), BuildingBlock: UVAHIK_clean_linker_0, # of connection points: 2
#     Edge 24, Type (0, 0), BuildingBlock: UVAHIK_clean_linker_0, # of connection points: 2
#     Edge 25, Type (0, 0), BuildingBlock: UVAHIK_clean_linker_0, # of connection points: 2
#     Edge 26, Type (0, 0), BuildingBlock: UVAHIK_clean_linker_0, # of connection points: 2
#     Edge 27, Type (0, 0), BuildingBlock: UVAHIK_clean_linker_0, # of connection points: 2
#     Edge 28, Type (0, 0), BuildingBlock: UVAHIK_clean_linker_0, # of connection points: 2
#     Edge 29, Type (0, 0), BuildingBlock: UVAHIK_clean_linker_0, # of connection points: 2
#     Edge 30, Type (0, 0), BuildingBlock: UVAHIK_clean_linker_0, # of connection points: 2
#     Edge 31, Type (0, 0), BuildingBlock: UVAHIK_clean_linker_0, # of connection points: 2
#     Edge 32, Type (0, 0), BuildingBlock: UVAHIK_clean_linker_0, # of connection points: 2
#     Edge 33, Type (0, 0), BuildingBlock: UVAHIK_clean_linker_0, # of connection points: 2
#     Edge 34, Type (0, 0), BuildingBlock: UVAHIK_clean_linker_0, # of connection points: 2
#     Edge 35, Type (0, 0), BuildingBlock: UVAHIK_clean_linker_0, # of connection points: 2
#     Edge 36, Type (0, 0), BuildingBlock: UVAHIK_clean_linker_0, # of connection points: 2
#     Edge 37, Type (0, 0), BuildingBlock: UVAHIK_clean_linker_0, # of connection points: 2
#     Edge 38, Type (0, 0), BuildingBlock: UVAHIK_clean_linker_0, # of connection points: 2
#     Edge 39, Type (0, 0), BuildingBlock: UVAHIK_clean_linker_0, # of connection points: 2
#     Edge 40, Type (0, 0), BuildingBlock: UVAHIK_clean_linker_0, # of connection points: 2
#     Edge 41, Type (0, 0), BuildingBlock: UVAHIK_clean_linker_0, # of connection points: 2
#     Edge 42, Type (0, 0), BuildingBlock: UVAHIK_clean_linker_0, # of connection points: 2
#     Edge 43, Type (0, 0), BuildingBlock: UVAHIK_clean_linker_0, # of connection points: 2
#     Edge 44, Type (0, 0), BuildingBlock: UVAHIK_clean_linker_0, # of connection points: 2
#     Edge 45, Type (0, 0), BuildingBlock: UVAHIK_clean_linker_0, # of connection points: 2
#     Edge 46, Type (0, 0), BuildingBlock: UVAHIK_clean_linker_0, # of connection points: 2
#     Edge 47, Type (0, 0), BuildingBlock: UVAHIK_clean_linker_0, # of connection points: 2
#     Edge 48, Type (0, 0), BuildingBlock: UVAHIK_clean_linker_0, # of connection points: 2
#     Edge 49, Type (0, 0), BuildingBlock: UVAHIK_clean_linker_0, # of connection points: 2
#     Edge 50, Type (0, 0), BuildingBlock: UVAHIK_clean_linker_0, # of connection points: 2
#     Edge 51, Type (0, 0), BuildingBlock: UVAHIK_clean_linker_0, # of connection points: 2
#     Edge 52, Type (0, 0), BuildingBlock: UVAHIK_clean_linker_0, # of connection points: 2
#     Edge 53, Type (0, 0), BuildingBlock: UVAHIK_clean_linker_0, # of connection points: 2
#     Edge 54, Type (0, 0), BuildingBlock: UVAHIK_clean_linker_0, # of connection points: 2
#     Edge 55, Type (0, 0), BuildingBlock: UVAHIK_clean_linker_0, # of connection points: 2
#     Edge 56, Type (0, 0), BuildingBlock: UVAHIK_clean_linker_0, # of connection points: 2
#     Edge 57, Type (0, 0), BuildingBlock: UVAHIK_clean_linker_0, # of connection points: 2
#     Edge 58, Type (0, 0), BuildingBlock: UVAHIK_clean_linker_0, # of connection points: 2
#     Edge 59, Type (0, 0), BuildingBlock: UVAHIK_clean_linker_0, # of connection points: 2
#     Edge 60, Type (0, 0), BuildingBlock: UVAHIK_clean_linker_0, # of connection points: 2
#     Edge 61, Type (0, 0), BuildingBlock: UVAHIK_clean_linker_0, # of connection points: 2
#     Edge 62, Type (0, 0), BuildingBlock: UVAHIK_clean_linker_0, # of connection points: 2
#     Edge 63, Type (0, 0), BuildingBlock: UVAHIK_clean_linker_0, # of connection points: 2
# Relax obj value: 0.647
# Max RMSD: 0.194
# Mean RMSD: 0.194
data_MOF--net-whw--node1-HISSIN_clean_sbu_0--edge1-UVAHIK_clean_linker_0
_symmetry_space_group_name_H-M    P1
_symmetry_Int_Tables_number       1
_symmetry_cell_setting            triclinic
loop_
_symmetry_equiv_pos_as_xyz
'x, y, z'
_cell_length_a     60.144178
_cell_length_b     60.43854
_cell_length_c     38.148104
_cell_angle_alpha  89.817354
_cell_angle_beta   90.098383
_cell_angle_gamma 89.968363
loop_
_atom_site_label
_atom_site_type_symbol
_atom_site_fract_x
_atom_site_fract_y
_atom_site_fract_z
_atom_type_partial_charge
Eu0 Eu 0.0546 0.15256 0.18759 0.0
Eu1 Eu 0.00511 0.13969 0.21218 0.0
C2 C 0.03591 0.10258 0.17744 0.0
C3 C 0.1119 0.14651 0.14784 0.0
C4 C 0.1312 0.13617 0.16065 0.0
C5 C 0.11949 0.13148 0.09025 0.0
C6 C 0.14429 0.12312 0.13863 0.0
C7 C 0.10629 0.14429 0.11234 0.0
C8 C 0.13834 0.12028 0.1033 0.0
C9 C 0.09662 0.15715 0.17273 0.0
O10 O 0.02107 0.15079 0.26508 0.0
O11 O 0.05741 0.1529 0.2483 0.0
C12 C 0.04223 0.1543 0.27328 0.0
O13 O 0.03794 0.18505 0.19875 0.0
O14 O 0.97689 0.11744 0.20549 0.0
O15 O 0.97521 0.14387 0.24367 0.0
O16 O 1.00188 0.17427 0.19217 0.0
C17 C 0.01744 0.18931 0.18892 0.0
O18 O 0.03596 0.1574 0.135 0.0
O19 O 1.00061 0.14762 0.1526 0.0
O20 O 0.02245 0.10655 0.20376 0.0
O21 O 0.08115 0.17021 0.16012 0.0
O22 O 0.08912 0.14392 0.19707 0.0
O23 O 0.04801 0.11868 0.16467 0.0
C24 C 0.95697 0.11014 0.25706 0.0
C25 C 0.96504 0.10964 0.29153 0.0
C26 C 0.93182 0.07991 0.27107 0.0
C27 C 0.95623 0.09477 0.31576 0.0
C28 C 0.94053 0.095 0.24685 0.0
C29 C 0.93937 0.07981 0.30599 0.0
C30 C 0.96579 0.12603 0.23138 0.0
C31 C 0.01456 0.15445 0.12765 0.0
H32 H 0.1357 0.13752 0.18808 0.0
H33 H 0.11474 0.13019 1.06294 0.0
H34 H 0.15861 0.1147 0.14958 0.0
H35 H 0.09142 0.15196 0.1018 0.0
H36 H 0.9779 0.12099 0.29999 0.0
H37 H 0.91902 0.06854 0.26254 0.0
H38 H 0.96214 0.09566 0.34254 0.0
H39 H 0.9343 0.09498 0.22018 0.0
Eu40 Eu 0.12431 0.78896 0.43979 0.0
Eu41 Eu 0.13979 0.73997 0.4651 0.0
C42 C 0.17582 0.77283 0.42592 0.0
C43 C 0.12813 0.84583 0.40028 0.0
C44 C 0.14018 0.86386 0.41371 0.0
C45 C 0.14245 0.85415 0.34232 0.0
C46 C 0.15376 0.87657 0.39174 0.0
C47 C 0.12902 0.84142 0.36421 0.0
C48 C 0.15547 0.87144 0.35597 0.0
C49 C 0.11687 0.8304 0.4245 0.0
O50 O 0.13436 0.75757 0.51883 0.0
O51 O 0.11611 0.78847 0.49921 0.0
C52 C 0.12266 0.77574 0.52563 0.0
O53 O 0.09322 0.76904 0.43601 0.0
O54 O 0.16428 0.71909 0.49119 0.0
O55 O 0.13615 0.70403 0.46477 0.0
O56 O 0.10294 0.741 0.47318 0.0
C57 C 0.08914 0.74973 0.45038 0.0
O58 O 0.12134 0.76966 0.38743 0.0
O59 O 0.12927 0.73445 0.40721 0.0
O60 O 0.17133 0.75395 0.44138 0.0
O61 O 0.10573 0.81406 0.41064 0.0
O62 O 0.12884 0.82397 0.4512 0.0
O63 O 0.16076 0.78851 0.4236 0.0
C64 C 0.15402 0.68323 0.50925 0.0
C65 C 0.14193 0.68545 0.54036 0.0
C66 C 0.1686 0.64806 0.52958 0.0
C67 C 0.14338 0.66907 0.56621 0.0
C68 C 0.16709 0.66439 0.50379 0.0
C69 C 0.15702 0.65036 0.56129 0.0
C70 C 0.1543 0.70071 0.48273 0.0
C71 C 0.12277 0.74799 0.38165 0.0
H72 H 0.13976 0.86757 0.44147 0.0
H73 H 0.14289 0.85019 0.31466 0.0
H74 H 0.16351 0.88984 0.40297 0.0
H75 H 0.11992 0.82771 0.35294 0.0
H76 H 0.13173 0.69995 0.54483 0.0
H77 H 0.17942 0.63402 0.52514 0.0
H78 H 0.13398 0.67115 0.59017 0.0
H79 H 0.17658 0.66255 0.47984 0.0
Eu80 Eu 0.49572 0.85055 0.68853 0.0
Eu81 Eu 0.54491 0.86364 0.71273 0.0
C82 C 0.51492 0.90045 0.67625 0.0
C83 C 0.44001 0.85992 0.6465 0.0
C84 C 0.42108 0.87191 0.65658 0.0
C85 C 0.43625 0.8746 0.58758 0.0
C86 C 0.41007 0.88558 0.63249 0.0
C87 C 0.44732 0.86115 0.61166 0.0
C88 C 0.41786 0.88744 0.5979 0.0
C89 C 0.45357 0.84871 0.67335 0.0
O90 O 0.52901 0.85501 0.76684 0.0
O91 O 0.49385 0.84627 0.74896 0.0
C92 C 0.50864 0.84809 0.77453 0.0
O93 O 0.5113 0.8171 0.6952 0.0
O94 O 0.57298 0.88629 0.70674 0.0
O95 O 0.57544 0.85831 0.74223 0.0
O96 O 0.54771 0.82836 0.69629 0.0
C97 C 0.53259 0.81313 0.69069 0.0
O98 O 0.51396 0.84371 0.63658 0.0
O99 O 0.54911 0.85477 0.6532 0.0
O100 O 0.528 0.89685 0.70322 0.0
O101 O 0.46797 0.83398 0.66261 0.0
O102 O 0.46186 0.86192 0.69703 0.0
O103 O 0.50333 0.88397 0.66358 0.0
C104 C 0.59528 0.89074 0.7571 0.0
C105 C 0.58794 0.89067 0.79194 0.0
C106 C 0.62448 0.91667 0.7728 0.0
C107 C 0.59918 0.90298 0.81721 0.0
C108 C 0.61332 0.90413 0.74754 0.0
C109 C 0.61783 0.91588 0.80812 0.0
C110 C 0.58481 0.87641 0.73077 0.0
C111 C 0.53526 0.84675 0.62891 0.0
H112 H 0.41533 0.87136 0.68348 0.0
H113 H 0.44233 0.87515 0.56089 0.0
H114 H 0.39599 0.89525 0.64128 0.0
H115 H 0.46199 0.85225 0.60318 0.0
H116 H 0.57393 0.88059 0.79991 0.0
H117 H 0.63857 0.92661 0.76477 0.0
H118 H 0.59377 0.90152 0.84416 0.0
H119 H 0.61908 0.90453 0.72064 0.0
Eu120 Eu 0.43028 0.21212 0.93615 0.0
Eu121 Eu 0.41431 0.26122 0.9579 0.0
C122 C 0.37998 0.2292 0.91899 0.0
C123 C 0.42443 0.15436 0.90042 0.0
C124 C 0.4146 0.13484 0.91303 0.0
C125 C 0.40881 0.14714 0.84301 0.0
C126 C 0.40149 0.12178 0.89095 0.0
C127 C 0.42169 0.16025 0.86511 0.0
C128 C 0.39805 0.12808 0.85587 0.0
C129 C 0.43472 0.16979 0.92533 0.0
O130 O 0.42041 0.24654 1.01364 0.0
O131 O 0.43414 0.21279 0.99684 0.0
C132 C 0.42934 0.22708 1.02206 0.0
O133 O 0.46261 0.23042 0.93514 0.0
O134 O 0.38724 0.2829 0.97323 0.0
O135 O 0.41919 0.29708 0.96016 0.0
O136 O 0.45061 0.25785 0.97052 0.0
C137 C 0.4651 0.25041 0.9478 0.0
O138 O 0.43733 0.23023 0.88414 0.0
O139 O 0.42408 0.26475 0.89906 0.0
O140 O 0.38253 0.24282 0.94525 0.0
O141 O 0.44851 0.18456 0.91281 0.0
O142 O 0.42086 0.17821 0.94792 0.0
O143 O 0.39693 0.2173 0.90854 0.0
C144 C 0.39569 0.31699 0.9985 0.0
C145 C 0.40452 0.31337 1.03198 0.0
C146 C 0.37589 0.3492 1.0198 0.0
C147 C 0.39883 0.3275 1.05941 0.0
C148 C 0.38166 0.33511 0.99238 0.0
C149 C 0.38407 0.34528 1.05375 0.0
C150 C 0.39894 0.30093 0.9705 0.0
C151 C 0.43345 0.25123 0.87588 0.0
H152 H 0.41632 0.13017 0.94035 0.0
H153 H 0.40703 0.15215 0.81587 0.0
H154 H 0.39343 0.10726 0.90169 0.0
H155 H 0.42891 0.17534 0.85479 0.0
H156 H 0.4153 0.29934 1.03705 0.0
H157 H 0.36441 0.36265 1.01467 0.0
H158 H 0.40577 0.32433 0.08516 0.0
H159 H 0.37458 0.33793 0.96661 0.0
Eu160 Eu 0.06619 0.84564 0.97799 0.0
Eu161 Eu 0.01323 0.84724 0.95563 0.0
C162 C 0.03844 0.89198 0.98553 0.0
C163 C 0.12278 0.85888 1.01647 0.0
C164 C 0.14267 0.86814 1.00404 0.0
C165 C 0.12842 0.87733 1.07206 0.0
C166 C 0.15529 0.88212 1.0254 0.0
C167 C 0.11577 0.86355 1.05066 0.0
C168 C 0.14818 0.88706 1.05957 0.0
C169 C 0.10859 0.84614 0.9925 0.0
O170 O 0.03104 0.84164 0.90194 0.0
O171 O 0.0679 0.84403 0.91727 0.0
C172 C 0.0524 0.8409 0.89297 0.0
O173 O 0.05361 0.81356 0.95684 0.0
O174 O 0.98043 0.86208 0.96161 0.0
O175 O 0.98499 0.83488 0.92548 0.0
O176 O 0.01928 0.81292 0.97773 0.0
C177 C 0.03863 0.80315 0.97508 0.0
O178 O 0.04829 0.83858 1.0315 0.0
O179 O 0.01137 0.8398 1.01475 0.0
O180 O 0.02156 0.88359 0.96775 0.0
O181 O 0.09464 0.83209 1.00649 0.0
O182 O 0.09956 0.85779 0.96739 0.0
O183 O 0.05629 0.88027 0.99209 0.0
C184 C 0.95802 0.86229 0.91118 0.0
C185 C 0.96362 0.86235 0.87553 0.0
C186 C 0.92666 0.88647 0.89849 0.0
C187 C 0.95072 0.87419 0.85153 0.0
C188 C 0.93949 0.87445 0.92249 0.0
C189 C 0.93211 0.88645 0.86268 0.0
C190 C 0.97146 0.85009 0.93709 0.0
C191 C 0.0267 0.83708 1.03945 0.0
H192 H 0.1482 0.86492 0.97752 0.0
H193 H 0.12271 0.88026 0.09855 0.0
H194 H 0.17034 0.88938 1.01491 0.0
H195 H 0.10036 0.85679 1.06076 0.0
H196 H 0.97788 0.85319 0.86609 0.0
H197 H 0.91255 0.89582 0.908 0.0
H198 H 0.95513 0.87332 0.82406 0.0
H199 H 0.93498 0.87469 0.94998 0.0
Eu200 Eu 0.44213 0.79356 0.22986 0.0
Eu201 Eu 0.42641 0.7441 0.20576 0.0
C202 C 0.3903 0.77747 0.24284 0.0
C203 C 0.43602 0.85299 0.25645 0.0
C204 C 0.41279 0.85092 0.25468 0.0
C205 C 0.43168 0.88669 0.2901 0.0
C206 C 0.39912 0.86623 0.27143 0.0
C207 C 0.44538 0.87126 0.27345 0.0
C208 C 0.40845 0.8839 0.29018 0.0
C209 C 0.45029 0.83526 0.24289 0.0
O210 O 0.43066 0.76189 0.15153 0.0
O211 O 0.44931 0.79277 0.1701 0.0
C212 C 0.44223 0.78011 0.14405 0.0
O213 O 0.47344 0.77343 0.23325 0.0
O214 O 0.40136 0.723 0.18202 0.0
O215 O 0.43087 0.7082 0.20506 0.0
O216 O 0.46264 0.74769 0.19389 0.0
C217 C 0.4767 0.75434 0.21783 0.0
O218 O 0.44829 0.77385 0.28114 0.0
O219 O 0.43679 0.73907 0.26419 0.0
O220 O 0.395 0.75836 0.22863 0.0
O221 O 0.45475 0.81931 0.26484 0.0
O222 O 0.44491 0.82776 0.21207 0.0
O223 O 0.40521 0.79336 0.24442 0.0
C224 C 0.41117 0.68749 0.16242 0.0
C225 C 0.42173 0.6901 0.13001 0.0
C226 C 0.39465 0.65318 0.14246 0.0
C227 C 0.4185 0.67438 0.1037 0.0
C228 C 0.39796 0.66883 0.16872 0.0
C229 C 0.40453 0.65599 0.10942 0.0
C230 C 0.41201 0.70472 0.18913 0.0
C231 C 0.44527 0.75252 0.28835 0.0
H232 H 0.40521 0.83702 0.24143 0.0
H233 H 0.43932 0.89999 0.3048 0.0
H234 H 0.38128 0.86371 0.27101 0.0
H235 H 0.46327 0.87309 0.27506 0.0
H236 H 0.43196 0.70449 0.12483 0.0
H237 H 0.38365 0.63937 0.1476 0.0
H238 H 0.42666 0.6768 1.0787 0.0
H239 H 0.3896 0.66673 0.19366 0.0
Eu240 Eu 0.47974 0.15747 0.47645 0.0
Eu241 Eu 0.53276 0.16004 0.45701 0.0
C242 C 0.50982 0.11296 0.48567 0.0
C243 C 0.42349 0.14041 0.51071 0.0
C244 C 0.43031 0.11837 0.51523 0.0
C245 C 0.39109 0.13306 0.54669 0.0
C246 C 0.41781 0.10386 0.53568 0.0
C247 C 0.40364 0.1476 0.52606 0.0
C248 C 0.39831 0.11116 0.55223 0.0
C249 C 0.43723 0.15577 0.49017 0.0
O250 O 0.51566 0.1643 0.40242 0.0
O251 O 0.47896 0.15787 0.41538 0.0
C252 C 0.49461 0.16269 0.392 0.0
O253 O 0.49036 0.18916 0.45206 0.0
O254 O 0.5664 0.14708 0.46291 0.0
O255 O 0.5604 0.17504 0.42857 0.0
O256 O 0.5227 0.19391 0.4778 0.0
C257 C 0.50272 0.20159 0.47153 0.0
O258 O 0.49676 0.16746 0.53022 0.0
O259 O 0.53392 0.16837 0.51535 0.0
O260 O 0.52705 0.12321 0.47134 0.0
O261 O 0.45113 0.16808 0.50776 0.0
O262 O 0.44635 0.14716 0.46242 0.0
O263 O 0.49058 0.12287 0.48894 0.0
C264 C 0.58847 0.14932 0.41229 0.0
C265 C 0.58319 0.15103 0.37656 0.0
C266 C 0.61951 0.12521 0.39773 0.0
C267 C 0.596 0.14002 0.35166 0.0
C268 C 0.60677 0.13641 0.42266 0.0
C269 C 0.6142 0.12681 0.36192 0.0
C270 C 0.5747 0.16017 0.43913 0.0
C271 C 0.51811 0.17066 0.53913 0.0
H272 H 0.4455 0.11245 0.50334 0.0
H273 H 0.37632 0.13925 0.55956 0.0
H274 H 0.42371 0.08707 0.53928 0.0
H275 H 0.39812 0.16454 0.52273 0.0
H276 H 0.56915 0.16082 0.36774 0.0
H277 H 0.63333 0.11512 0.40654 0.0
H278 H 0.59174 0.14212 0.32426 0.0
H279 H 0.61107 0.13481 0.45015 0.0
Eu280 Eu 0.12019 0.20873 0.72291 0.0
Eu281 Eu 0.12267 0.26119 0.70098 0.0
C282 C 0.16754 0.23462 0.72866 0.0
C283 C 0.13166 0.15242 0.76246 0.0
C284 C 0.14176 0.13293 0.75044 0.0
C285 C 0.14888 0.14684 0.81925 0.0
C286 C 0.15561 0.12058 0.77258 0.0
C287 C 0.13523 0.15922 0.7971 0.0
C288 C 0.15956 0.12758 0.80713 0.0
C289 C 0.11939 0.16658 0.73769 0.0
O290 O 0.11453 0.24384 0.64779 0.0
O291 O 0.11955 0.20726 0.66195 0.0
C292 C 0.11482 0.2227 0.6382 0.0
O293 O 0.08836 0.22231 0.70184 0.0
O294 O 0.13844 0.29342 0.70671 0.0
O295 O 0.11062 0.28965 0.67111 0.0
O296 O 0.08854 0.25576 0.72486 0.0
C297 C 0.07829 0.23681 0.72125 0.0
O298 O 0.11404 0.22664 0.77682 0.0
O299 O 0.11659 0.26332 0.76026 0.0
O300 O 0.15931 0.25134 0.71026 0.0
O301 O 0.10537 0.18084 0.75085 0.0
O302 O 0.13157 0.17517 0.71287 0.0
O303 O 0.15518 0.21763 0.73712 0.0
C304 C 0.13853 0.31605 0.65647 0.0
C305 C 0.13654 0.31197 0.62043 0.0
C306 C 0.16436 0.34601 0.6439 0.0
C307 C 0.1482 0.32492 0.59635 0.0
C308 C 0.15254 0.33314 0.668 0.0
C309 C 0.16228 0.34208 0.60776 0.0
C310 C 0.12634 0.30271 0.68247 0.0
C311 C 0.11349 0.24816 0.78496 0.0
H312 H 0.13938 0.12757 0.72361 0.0
H313 H 0.15103 0.1524 0.846 0.0
H314 H 0.16358 0.10588 0.76242 0.0
H315 H 0.12781 0.1743 0.80697 0.0
H316 H 0.12588 0.29891 0.61075 0.0
H317 H 0.17515 0.35896 0.65359 0.0
H318 H 0.14576 0.32174 0.5687 0.0
H319 H 0.15435 0.33652 0.69574 0.0
Eu320 Eu 0.92596 0.28188 0.72447 0.0
Eu321 Eu 0.91462 0.23164 0.7005 0.0
C322 C 0.87638 0.26181 0.74009 0.0
C323 C 0.91774 0.34072 0.75554 0.0
C324 C 0.89489 0.33727 0.76047 0.0
C325 C 0.91507 0.37514 0.78777 0.0
C326 C 0.88229 0.35241 0.77952 0.0
C327 C 0.92768 0.35994 0.76866 0.0
C328 C 0.89235 0.37125 0.79408 0.0
C329 C 0.93127 0.32402 0.73759 0.0
O330 O 0.92046 0.24885 0.64628 0.0
O331 O 0.93451 0.2819 0.66516 0.0
C332 C 0.93017 0.26811 0.63913 0.0
O333 O 0.95863 0.26455 0.72906 0.0
O334 O 0.89094 0.20966 0.67518 0.0
O335 O 0.92033 0.19595 0.70044 0.0
O336 O 0.95167 0.23355 0.69639 0.0
C337 C 0.96442 0.2449 0.71766 0.0
O338 O 0.93018 0.26294 0.77728 0.0
O339 O 0.92467 0.2271 0.75867 0.0
O340 O 0.88288 0.24273 0.72748 0.0
O341 O 0.93951 0.30835 0.75722 0.0
O342 O 0.92284 0.31636 0.70859 0.0
O343 O 0.88927 0.27929 0.7383 0.0
C344 C 0.90237 0.17412 0.65743 0.0
C345 C 0.91307 0.17673 0.62514 0.0
C346 C 0.88876 0.13818 0.63931 0.0
C347 C 0.91138 0.16017 0.59979 0.0
C348 C 0.89053 0.15469 0.66459 0.0
C349 C 0.89885 0.14089 0.6064 0.0
C350 C 0.90199 0.19179 0.68343 0.0
C351 C 0.92994 0.24128 0.78387 0.0
H352 H 0.88686 0.32262 0.75024 0.0
H353 H 0.92336 0.38933 0.7991 0.0
H354 H 0.86481 0.34904 0.78378 0.0
H355 H 0.94529 0.36287 0.76499 0.0
H356 H 0.92229 0.19169 0.61934 0.0
H357 H 0.87881 0.1237 0.64509 0.0
H358 H 0.91964 0.16256 0.57486 0.0
H359 H 0.88211 0.15254 0.68947 0.0
Eu360 Eu 0.63268 0.71501 0.22817 0.0
Eu361 Eu 0.63017 0.76743 0.2071 0.0
C362 C 0.67727 0.74528 0.23705 0.0
C363 C 0.64588 0.65854 0.26764 0.0
C364 C 0.65637 0.63939 0.25509 0.0
C365 C 0.66176 0.65168 0.32506 0.0
C366 C 0.66974 0.62658 0.27729 0.0
C367 C 0.64859 0.66454 0.30284 0.0
C368 C 0.67279 0.63274 0.31245 0.0
C369 C 0.63373 0.67288 0.24301 0.0
O370 O 0.62806 0.75003 0.15227 0.0
O371 O 0.63056 0.71327 0.16733 0.0
C372 C 0.62781 0.7288 0.14291 0.0
O373 O 0.6018 0.726 0.20143 0.0
O374 O 0.64281 0.80108 0.21089 0.0
O375 O 0.61363 0.79449 0.17927 0.0
O376 O 0.59647 0.75696 0.22933 0.0
C377 C 0.58876 0.73745 0.22108 0.0
O378 O 0.62287 0.73242 0.28152 0.0
O379 O 0.62423 0.76933 0.26608 0.0
O380 O 0.667 0.76238 0.22242 0.0
O381 O 0.61905 0.68653 0.25607 0.0
O382 O 0.64605 0.68212 0.21895 0.0
O383 O 0.66745 0.72604 0.24025 0.0
C384 C 0.63781 0.82365 0.16115 0.0
C385 C 0.6324 0.82086 0.12564 0.0
C386 C 0.66173 0.85457 0.14542 0.0
C387 C 0.64152 0.83485 0.1003 0.0
C388 C 0.65246 0.84068 0.17081 0.0
C389 C 0.65639 0.8518 0.10985 0.0
C390 C 0.62852 0.80908 0.18852 0.0
C391 C 0.62131 0.75386 0.2902 0.0
H392 H 0.65461 0.63461 0.22787 0.0
H393 H 0.66325 0.6566 0.35224 0.0
H394 H 0.67803 0.61216 0.26672 0.0
H395 H 0.64079 0.67932 0.31312 0.0
H396 H 0.62108 0.80795 0.11737 0.0
H397 H 0.67322 0.86733 0.15366 0.0
H398 H 0.63663 0.83255 1.07322 0.0
H399 H 0.65683 0.84317 0.19808 0.0
Eu400 Eu 0.61896 0.29792 0.9417 0.0
Eu401 Eu 0.61786 0.24533 0.96146 0.0
C402 C 0.6637 0.26853 0.93094 0.0
C403 C 0.63397 0.35303 0.90219 0.0
C404 C 0.64637 0.3714 0.9133 0.0
C405 C 0.65099 0.35588 0.84485 0.0
C406 C 0.66137 0.3817 0.8905 0.0
C407 C 0.63618 0.34553 0.86764 0.0
C408 C 0.66419 0.37371 0.85624 0.0
C409 C 0.62126 0.34011 0.92798 0.0
O410 O 0.61282 0.2621 1.01578 0.0
O411 O 0.62066 0.29835 1.00278 0.0
C412 C 0.61524 0.28291 1.02619 0.0
O413 O 0.58759 0.28702 0.96709 0.0
O414 O 0.63143 0.21211 0.95508 0.0
O415 O 0.60359 0.21742 0.98999 0.0
O416 O 0.58351 0.25487 0.94104 0.0
C417 C 0.57518 0.27441 0.94795 0.0
O418 O 0.60842 0.28128 0.88818 0.0
O419 O 0.61004 0.24421 0.90273 0.0
O420 O 0.65501 0.25262 0.95052 0.0
O421 O 0.60543 0.32734 0.91603 0.0
O422 O 0.63354 0.33022 0.95152 0.0
O423 O 0.6522 0.28624 0.92323 0.0
C424 C 0.6301 0.18993 1.00572 0.0
C425 C 0.62917 0.19544 1.04137 0.0
C426 C 0.65431 0.1589 1.02001 0.0
C427 C 0.64057 0.18273 1.0661 0.0
C428 C 0.64271 0.17155 0.99524 0.0
C429 C 0.65341 0.16439 1.05576 0.0
C430 C 0.61869 0.20351 0.97908 0.0
C431 C 0.60645 0.25995 0.87915 0.0
H432 H 0.64507 0.37724 0.94004 0.0
H433 H 0.65229 0.34969 0.81831 0.0
H434 H 0.67128 0.39537 0.90005 0.0
H435 H 0.62698 0.33126 0.85848 0.0
H436 H 0.61964 0.20957 1.05024 0.0
H437 H 0.66411 0.14497 1.01113 0.0
H438 H 0.63899 0.18715 0.09348 0.0
H439 H 0.64374 0.16709 0.9678 0.0
Eu440 Eu 0.92915 0.71233 0.44611 0.0
Eu441 Eu 0.93324 0.7648 0.46731 0.0
C442 C 0.88522 0.74357 0.43885 0.0
C443 C 0.91125 0.65755 0.40796 0.0
C444 C 0.89086 0.66659 0.39719 0.0
C445 C 0.90293 0.62411 0.37555 0.0
C446 C 0.87666 0.65455 0.37553 0.0
C447 C 0.9171 0.63616 0.39745 0.0
C448 C 0.88271 0.63333 0.36392 0.0
C449 C 0.92627 0.67043 0.43026 0.0
O450 O 0.93602 0.74687 0.52172 0.0
O451 O 0.93358 0.71017 0.50669 0.0
C452 C 0.9367 0.72561 0.53098 0.0
O453 O 0.96164 0.7221 0.46922 0.0
O454 O 0.92154 0.79868 0.46149 0.0
O455 O 0.94845 0.7915 0.49752 0.0
O456 O 0.96687 0.75473 0.44511 0.0
C457 C 0.9741 0.73451 0.44976 0.0
O458 O 0.93772 0.72995 0.39231 0.0
O459 O 0.94155 0.76642 0.40899 0.0
O460 O 0.89662 0.76081 0.45034 0.0
O461 O 0.93955 0.68418 0.41415 0.0
O462 O 0.9169 0.67932 0.45763 0.0
O463 O 0.89393 0.72371 0.43843 0.0
C464 C 0.92291 0.82013 0.51258 0.0
C465 C 0.9249 0.81572 0.54857 0.0
C466 C 0.89718 0.85009 0.52554 0.0
C467 C 0.91313 0.82837 0.57279 0.0
C468 C 0.90912 0.83753 0.5013 0.0
C469 C 0.89893 0.84555 0.56158 0.0
C470 C 0.93424 0.8063 0.48633 0.0
C471 C 0.94201 0.75113 0.38426 0.0
H472 H 0.88604 0.68307 0.40521 0.0
H473 H 0.90825 0.60797 0.3666 0.0
H474 H 0.86113 0.66204 0.36729 0.0
H475 H 0.93277 0.62895 0.40564 0.0
H476 H 0.93542 0.80244 0.5581 0.0
H477 H 0.88634 0.8631 0.51601 0.0
H478 H 0.91536 0.82478 0.6004 0.0
H479 H 0.90732 0.8412 0.47362 0.0
Eu480 Eu 0.57296 0.65641 0.69046 0.0
Eu481 Eu 0.52085 0.64996 0.71397 0.0
C482 C 0.54969 0.60756 0.68524 0.0
C483 C 0.62966 0.64674 0.65079 0.0
C484 C 0.64844 0.63573 0.66415 0.0
C485 C 0.63648 0.63024 0.59399 0.0
C486 C 0.66093 0.62171 0.64274 0.0
C487 C 0.62391 0.64405 0.61542 0.0
C488 C 0.65486 0.61852 0.60754 0.0
C489 C 0.61505 0.65893 0.67489 0.0
O490 O 0.53844 0.65722 0.76747 0.0
O491 O 0.57511 0.65888 0.7511 0.0
C492 C 0.5597 0.66026 0.77587 0.0
O493 O 0.55832 0.68782 0.71082 0.0
O494 O 0.48953 0.63234 0.70744 0.0
O495 O 0.49184 0.65903 0.74507 0.0
O496 O 0.52327 0.68472 0.69264 0.0
C497 C 0.54154 0.69644 0.69402 0.0
O498 O 0.55426 0.6624 0.6374 0.0
O499 O 0.51785 0.657 0.65443 0.0
O500 O 0.53287 0.6145 0.70445 0.0
O501 O 0.59996 0.67193 0.66111 0.0
O502 O 0.60725 0.64708 0.70074 0.0
O503 O 0.56579 0.62099 0.67625 0.0
C504 C 0.46837 0.62858 0.75866 0.0
C505 C 0.47502 0.62809 0.79388 0.0
C506 C 0.44005 0.60101 0.77144 0.0
C507 C 0.46406 0.61446 0.81777 0.0
C508 C 0.45092 0.61485 0.74756 0.0
C509 C 0.4464 0.60077 0.80693 0.0
C510 C 0.47979 0.64276 0.73299 0.0
C511 C 0.53263 0.66165 0.6296 0.0
H512 H 0.65304 0.63746 0.69148 0.0
H513 H 0.63169 0.62869 0.56673 0.0
H514 H 0.67493 0.61294 0.65401 0.0
H515 H 0.60945 0.65223 0.60442 0.0
H516 H 0.48855 0.63837 0.80312 0.0
H517 H 0.42664 0.59062 0.76215 0.0
H518 H 0.46909 0.61519 0.84501 0.0
H519 H 0.44569 0.61486 0.72036 0.0
Eu520 Eu 0.99139 0.34187 0.18953 0.0
Eu521 Eu 0.04316 0.34699 0.21332 0.0
C522 C 0.01587 0.38973 0.18247 0.0
C523 C 0.93591 0.35328 0.14727 0.0
C524 C 0.91824 0.36665 0.15865 0.0
C525 C 0.93098 0.36763 0.08834 0.0
C526 C 0.90732 0.3808 0.13518 0.0
C527 C 0.94199 0.35368 0.11179 0.0
C528 C 0.91387 0.38175 0.09987 0.0
C529 C 0.94932 0.34106 0.17327 0.0
O530 O 0.02553 0.337 0.26559 0.0
O531 O 0.98903 0.34184 0.2504 0.0
C532 C 0.00418 0.33701 0.27456 0.0
O533 O 0.00514 0.30896 0.20601 0.0
O534 O 0.07463 0.36462 0.20836 0.0
O535 O 0.07197 0.33695 0.24433 0.0
O536 O 0.0407 0.31292 0.18984 0.0
C537 C 0.0225 0.30103 0.18974 0.0
O538 O 0.00974 0.33676 0.13621 0.0
O539 O 0.04629 0.34045 0.15378 0.0
O540 O 0.03139 0.38282 0.20447 0.0
O541 O 0.96368 0.32664 0.16149 0.0
O542 O 0.95757 0.35331 0.19821 0.0
O543 O 1.00033 0.37622 0.17172 0.0
C544 C 0.09665 0.3662 0.25931 0.0
C545 C 0.09128 0.36507 0.29502 0.0
C546 C 0.12636 0.39211 0.27284 0.0
C547 C 0.10355 0.37709 0.31946 0.0
C548 C 0.11417 0.37991 0.24839 0.0
C549 C 0.1213 0.39071 0.30874 0.0
C550 C 0.08432 0.35325 0.23308 0.0
C551 C 0.03139 0.33684 0.12865 0.0
H552 H 0.91339 0.36671 0.18599 0.0
H553 H 0.93604 0.36745 1.06111 0.0
H554 H 0.89425 0.39145 0.14492 0.0
H555 H 0.95561 0.34364 0.10223 0.0
H556 H 0.07779 0.35469 0.30418 0.0
H557 H 0.13979 0.40254 0.26365 0.0
H558 H 0.09946 0.37516 0.34694 0.0
H559 H 0.11849 0.38109 0.22088 0.0
Eu560 Eu 0.56758 0.34534 0.48186 0.0
Eu561 Eu 0.51843 0.36235 0.45983 0.0
C562 C 0.55183 0.39592 0.49785 0.0
C563 C 0.62624 0.3494 0.5166 0.0
C564 C 0.64689 0.35655 0.50374 0.0
C565 C 0.63454 0.36659 0.57239 0.0
C566 C 0.66114 0.36903 0.52489 0.0
C567 C 0.62027 0.35433 0.5512 0.0
C568 C 0.65492 0.37455 0.55926 0.0
C569 C 0.61004 0.33953 0.49243 0.0
O570 O 0.53309 0.35651 0.4042 0.0
O571 O 0.56653 0.34162 0.42119 0.0
C572 C 0.55235 0.34705 0.3959 0.0
O573 O 0.54839 0.31364 0.48316 0.0
O574 O 0.49695 0.38995 0.44597 0.0
O575 O 0.4824 0.35787 0.45611 0.0
O576 O 0.521 0.32615 0.44761 0.0
C577 C 0.52823 0.31159 0.47046 0.0
O578 O 0.54926 0.33885 0.53391 0.0
O579 O 0.51478 0.35263 0.51862 0.0
O580 O 0.53772 0.39354 0.472 0.0
O581 O 0.5948 0.32662 0.5058 0.0
O582 O 0.6019 0.35339 0.46948 0.0
O583 O 0.56355 0.37886 0.50849 0.0
C584 C 0.46296 0.38257 0.41883 0.0
C585 C 0.46663 0.37425 0.38515 0.0
C586 C 0.43112 0.40323 0.39745 0.0
C587 C 0.45269 0.38058 0.35761 0.0
C588 C 0.44503 0.39682 0.42498 0.0
C589 C 0.43504 0.39548 0.36336 0.0
C590 C 0.47874 0.37836 0.44718 0.0
C591 C 0.5282 0.34307 0.54197 0.0
H592 H 0.65162 0.35315 0.4769 0.0
H593 H 0.62947 0.37001 0.59905 0.0
H594 H 0.67665 0.37494 0.51395 0.0
H595 H 0.60431 0.34923 0.5616 0.0
H596 H 0.48052 0.3633 0.38005 0.0
H597 H 0.41777 0.4148 0.40265 0.0
H598 H 0.45585 0.37396 0.33175 0.0
H599 H 0.44217 0.40351 0.45091 0.0
Eu600 Eu 0.99528 0.65324 0.98469 0.0
Eu601 Eu 0.04381 0.64028 0.95866 0.0
C602 C 0.01424 0.6027 0.99458 0.0
C603 C 0.93749 0.64081 1.01778 0.0
C604 C 0.94323 0.61884 1.02569 0.0
C605 C 0.90266 0.6359 1.04882 0.0
C606 C 0.92897 0.60558 1.04541 0.0
C607 C 0.91701 0.64919 1.02904 0.0
C608 C 0.90867 0.61406 1.05764 0.0
C609 C 0.95268 0.65472 0.99724 0.0
O610 O 0.02639 0.6468 0.90495 0.0
O611 O 0.99419 0.66187 0.92526 0.0
C612 C 0.0073 0.65705 0.89852 0.0
O613 O 0.01083 0.68681 0.98465 0.0
O614 O 0.07259 0.61859 0.96484 0.0
O615 O 0.0733 0.64515 0.92652 0.0
O616 O 0.04681 0.67608 0.97302 0.0
C617 C 0.03231 0.69077 0.98405 0.0
O618 O 0.01414 0.65886 1.03669 0.0
O619 O 0.04918 0.64903 1.01787 0.0
O620 O 0.02808 0.60672 0.96887 0.0
O621 O 0.96723 0.66633 1.0148 0.0
O622 O 0.96144 0.64496 0.97008 0.0
O623 O 1.00187 0.61878 1.00669 0.0
C624 C 0.09226 0.61195 0.91272 0.0
C625 C 0.08424 0.61176 0.87821 0.0
C626 C 0.11844 0.58282 0.89782 0.0
C627 C 0.09364 0.59768 0.85349 0.0
C628 C 0.10914 0.59714 0.92252 0.0
C629 C 0.11108 0.58321 0.86279 0.0
C630 C 0.08324 0.62749 0.93864 0.0
C631 C 0.0357 0.65626 1.04315 0.0
H632 H 0.95882 0.61194 1.01678 0.0
H633 H 0.88729 0.643 1.05835 0.0
H634 H 0.93398 0.58879 1.05157 0.0
H635 H 0.91226 0.66607 1.02296 0.0
H636 H 0.07104 0.62286 0.87003 0.0
H637 H 0.13164 0.57176 0.90602 0.0
H638 H 0.0878 0.59893 0.8267 0.0
H639 H 0.11535 0.59687 0.9492 0.0
C640 C 0.17483 0.10507 1.08141 0.0
C641 C 0.15147 0.10567 1.07986 0.0
C642 C 0.18701 0.09377 1.05583 0.0
C643 C 0.17851 0.06264 0.97061 0.0
H644 H 0.2243 0.10311 0.93996 0.0
C645 C 0.17346 0.0916 0.83253 0.0
C646 C 0.17423 0.11483 0.83117 0.0
C647 C 0.18366 0.08014 0.86018 0.0
C648 C 0.21137 0.09171 0.9479 0.0
H649 H 0.12262 0.09243 1.05305 0.0
H650 H 0.14329 0.07448 1.00757 0.0
H651 H 0.21506 0.10108 1.00121 0.0
H652 H 0.1893 0.14388 0.8543 0.0
H653 H 0.20538 0.12467 0.90319 0.0
H654 H 0.17235 0.05583 0.91696 0.0
C655 C 0.15267 0.0822 1.0284 0.0
C656 C 0.20632 0.09015 0.98353 0.0
C657 C 0.1406 0.09307 1.05422 0.0
C658 C 0.18757 0.12605 0.85548 0.0
C659 C 0.1973 0.11475 0.88338 0.0
C660 C 0.18276 0.06504 0.93484 0.0
C661 C 0.1761 0.08321 1.02777 0.0
C662 C 0.18817 0.07729 0.99485 0.0
C663 C 0.19431 0.09174 0.88749 0.0
C664 C 0.1976 0.08144 0.92289 0.0
H665 H 0.18378 0.11434 0.10115 0.0
H666 H 0.20497 0.09439 1.05712 0.0
H667 H 0.16567 0.05115 0.9786 0.0
H668 H 0.16369 0.08235 0.81375 0.0
H669 H 0.18178 0.06235 0.86128 0.0
C670 C 0.17257 0.90678 0.33341 0.0
C671 C 0.17092 0.8836 0.33256 0.0
C672 C 0.18424 0.91811 0.30714 0.0
C673 C 0.21459 0.90727 0.22179 0.0
H674 H 0.17459 0.95299 0.18916 0.0
C675 C 0.1505 0.91565 0.10665 0.0
C676 C 0.16139 0.90168 1.08293 0.0
C677 C 0.16215 0.92546 0.13404 0.0
C678 C 0.18585 0.94006 0.19765 0.0
H679 H 0.18265 0.85401 0.30657 0.0
H680 H 0.20149 0.87323 0.2602 0.0
H681 H 0.17691 0.94505 0.25094 0.0
H682 H 0.19373 0.89001 1.06595 0.0
H683 H 0.21435 0.90826 0.11241 0.0
H684 H 0.22092 0.89985 0.16844 0.0
C685 C 0.19429 0.88314 0.28084 0.0
C686 C 0.18759 0.93578 0.23355 0.0
C687 C 0.18296 0.87193 0.3072 0.0
C688 C 0.18471 0.90029 0.08426 0.0
C689 C 0.19653 0.91058 0.11133 0.0
C690 C 0.212 0.91078 0.18584 0.0
C691 C 0.1942 0.90645 0.27931 0.0
C692 C 0.20025 0.91771 0.2457 0.0
C693 C 0.18521 0.92195 0.13816 0.0
C694 C 0.19575 0.92564 0.17328 0.0
H695 H 0.16375 0.91623 0.35305 0.0
H696 H 0.18432 0.93601 0.30764 0.0
H697 H 0.22589 0.89438 0.23036 0.0
H698 H 0.13264 0.91787 0.10546 0.0
H699 H 0.15244 0.9341 0.15349 0.0
C700 C 0.39724 0.91995 0.31784 0.0
C701 C 0.39453 0.89699 0.31447 0.0
C702 C 0.38763 0.9312 0.34607 0.0
C703 C 0.35657 0.91948 0.43081 0.0
H704 H 0.40316 0.95681 0.46777 0.0
C705 C 0.42049 0.91431 0.54824 0.0
C706 C 0.40724 0.90276 0.57234 0.0
C707 C 0.41086 0.92557 0.52021 0.0
C708 C 0.39004 0.94621 0.45802 0.0
H709 H 0.37823 0.8681 0.33615 0.0
H710 H 0.36267 0.88691 0.38556 0.0
H711 H 0.39932 0.95283 0.40537 0.0
H712 H 0.3733 0.89644 0.58861 0.0
H713 H 0.35632 0.91708 0.54058 0.0
H714 H 0.34953 0.9102 0.4834 0.0
C715 C 0.3714 0.89688 0.36645 0.0
C716 C 0.38747 0.94427 0.42179 0.0
C717 C 0.38054 0.88584 0.33795 0.0
C718 C 0.38401 0.90486 0.57009 0.0
C719 C 0.37427 0.91655 0.54224 0.0
C720 C 0.35986 0.92058 0.46701 0.0
C721 C 0.37575 0.91953 0.37209 0.0
C722 C 0.37207 0.92913 0.40774 0.0
C723 C 0.38758 0.92601 0.51575 0.0
C724 C 0.37807 0.93231 0.48085 0.0
H725 H 0.40765 0.929 0.29962 0.0
H726 H 0.39072 0.94875 0.34851 0.0
H727 H 0.34335 0.90901 0.4211 0.0
H728 H 0.43846 0.91374 0.54997 0.0
H729 H 0.422 0.93239 0.50076 0.0
C730 C 0.38324 0.09193 0.83271 0.0
C731 C 0.38319 0.11519 0.83247 0.0
C732 C 0.37184 0.08014 0.80676 0.0
C733 C 0.33915 0.08977 0.7229 0.0
H734 H 0.38148 0.04701 0.68809 0.0
C735 C 0.4003 0.08603 0.60388 0.0
C736 C 0.38727 0.09699 0.57875 0.0
C737 C 0.39049 0.07625 0.63303 0.0
C738 C 0.36945 0.05899 0.69728 0.0
H739 H 0.36866 0.14417 0.80786 0.0
H740 H 0.35044 0.12423 0.76174 0.0
H741 H 0.37989 0.05438 0.75001 0.0
H742 H 0.35355 0.10411 0.56223 0.0
H743 H 0.33613 0.0864 0.61289 0.0
H744 H 0.33122 0.0969 0.66973 0.0
C745 C 0.35878 0.11462 0.78178 0.0
C746 C 0.36821 0.06298 0.73324 0.0
C747 C 0.36978 0.12628 0.80796 0.0
C748 C 0.36401 0.09615 0.58168 0.0
C749 C 0.35407 0.08601 0.61076 0.0
C750 C 0.34114 0.08653 0.68682 0.0
C751 C 0.36051 0.0914 0.77966 0.0
C752 C 0.35461 0.0801 0.7461 0.0
C753 C 0.36726 0.07697 0.63784 0.0
C754 C 0.35797 0.07272 0.67352 0.0
H755 H 0.39313 0.08283 0.85163 0.0
H756 H 0.37302 0.06227 0.80688 0.0
H757 H 0.32724 0.10188 0.73204 0.0
H758 H 0.41829 0.08651 0.60257 0.0
H759 H 0.40151 0.0699 0.65312 0.0
C760 C 0.95746 0.7807 0.34225 0.0
C761 C 0.95018 0.75862 0.34759 0.0
C762 C 0.96616 0.78828 0.30978 0.0
C763 C 0.97048 0.77515 0.21193 0.0
H764 H 0.01456 0.82188 0.21264 0.0
C765 C 0.99683 0.82129 1.08084 0.0
C766 C 0.01876 0.82935 1.07604 0.0
C767 C 0.98935 0.81235 0.11326 0.0
C768 C 0.00236 0.80875 0.21146 0.0
H769 H 0.94691 0.7274 0.32046 0.0
H770 H 0.96175 0.74054 0.26388 0.0
H771 H 1.00061 0.80678 0.2678 0.0
H772 H 0.04968 0.83417 0.10407 0.0
H773 H 0.03663 0.81927 0.1605 0.0
H774 H 0.97235 0.77706 0.15553 0.0
C775 C 0.96059 0.75222 0.28525 0.0
C776 C 0.994 0.80009 0.24367 0.0
C777 C 0.95196 0.74453 0.31811 0.0
C778 C 0.03267 0.82846 0.10602 0.0
C779 C 0.02503 0.81978 0.1388 0.0
C780 C 0.97868 0.78398 0.17969 0.0
C781 C 0.96809 0.77435 0.28021 0.0
C782 C 0.97769 0.78311 0.24496 0.0
C783 C 0.0032 0.81117 0.14326 0.0
C784 C 0.99478 0.80116 0.17842 0.0
H785 H 0.95666 0.79245 0.36356 0.0
H786 H 0.97114 0.80544 0.30792 0.0
H787 H 0.95802 0.76226 0.21078 0.0
H788 H 0.9853 0.82136 1.05901 0.0
H789 H 0.97238 0.80649 0.11471 0.0
C790 C 0.93893 0.20906 0.8265 0.0
C791 C 0.93713 0.23213 0.82011 0.0
C792 C 0.94704 0.20033 0.85884 0.0
C793 C 0.95384 0.2117 0.95508 0.0
H794 H 1.00007 0.16704 0.95485 0.0
C795 C 0.98233 0.1642 0.08514 0.0
C796 C 0.00539 0.16113 0.09123 0.0
C797 C 0.9739 0.17231 1.05257 0.0
C798 C 0.98715 0.1795 0.95577 0.0
H799 H 0.9423 0.26375 0.84538 0.0
H800 H 0.95524 0.24863 0.90187 0.0
H801 H 0.98524 0.18139 0.89932 0.0
H802 H 0.03728 0.164 1.06535 0.0
H803 H 0.02268 0.17702 1.00873 0.0
H804 H 0.95422 0.20827 1.0114 0.0
C805 C 0.95075 0.23719 0.88125 0.0
C806 C 0.97857 0.18789 0.92348 0.0
C807 C 0.94322 0.24597 0.84848 0.0
C808 C 0.01947 0.16588 1.06242 0.0
C809 C 0.01099 0.17343 1.02952 0.0
C810 C 0.96164 0.20252 0.98732 0.0
C811 C 0.95314 0.21413 0.88716 0.0
C812 C 0.96199 0.20455 0.92221 0.0
C813 C 0.98798 0.17721 1.02382 0.0
C814 C 0.97886 0.18649 0.98868 0.0
H815 H 0.93455 0.19751 0.806 0.0
H816 H 0.94839 0.18255 0.8617 0.0
H817 H 0.94092 0.22417 0.95592 0.0
H818 H 0.97064 0.16102 0.10612 0.0
H819 H 0.95614 0.1747 1.04995 0.0
C820 C 0.59037 0.23026 0.83803 0.0
C821 C 0.59723 0.2525 0.84308 0.0
C822 C 0.58084 0.2227 0.80614 0.0
C823 C 0.57427 0.23576 0.70871 0.0
H824 H 0.52979 0.18941 0.71152 0.0
C825 C 0.54744 0.18752 0.58032 0.0
C826 C 0.52535 0.17987 0.57529 0.0
C827 C 0.55484 0.19707 0.61226 0.0
C828 C 0.5421 0.20242 0.7098 0.0
H829 H 0.59878 0.284 0.81606 0.0
H830 H 0.5827 0.27081 0.76035 0.0
H831 H 0.54474 0.20458 0.76612 0.0
H832 H 0.49391 0.17699 0.60241 0.0
H833 H 0.50683 0.1931 0.65823 0.0
H834 H 0.57177 0.23348 0.65239 0.0
C835 C 0.58477 0.25905 0.78156 0.0
C836 C 0.55099 0.21113 0.74162 0.0
C837 C 0.59412 0.26676 0.81391 0.0
C838 C 0.51105 0.18225 0.60454 0.0
C839 C 0.5186 0.19162 0.63694 0.0
C840 C 0.56563 0.22681 0.67689 0.0
C841 C 0.57772 0.23677 0.77684 0.0
C842 C 0.56746 0.22799 0.74209 0.0
C843 C 0.54074 0.19945 0.64164 0.0
C844 C 0.54937 0.20976 0.67641 0.0
H845 H 0.5921 0.21841 0.8592 0.0
H846 H 0.57617 0.20544 0.80443 0.0
H847 H 0.58682 0.24854 0.70698 0.0
H848 H 0.55932 0.18639 0.55912 0.0
H849 H 0.57199 0.20236 0.61393 0.0
C850 C 0.53002 0.83064 0.56644 0.0
C851 C 0.54425 0.83894 0.59299 0.0
C852 C 0.53831 0.82185 0.53433 0.0
C853 C 0.59135 0.81639 0.47776 0.0
H854 H 0.55778 0.77094 0.42971 0.0
C855 C 0.61598 0.78462 0.3359 0.0
C856 C 0.61409 0.76191 0.32698 0.0
C857 C 0.60811 0.79327 0.36817 0.0
C858 C 0.56761 0.78351 0.44264 0.0
H859 H 0.5791 0.84416 0.60448 0.0
H860 H 0.59342 0.82889 0.5497 0.0
H861 H 0.54283 0.78803 0.48263 0.0
H862 H 0.60219 0.73074 0.34772 0.0
H863 H 0.58762 0.74588 0.40317 0.0
H864 H 0.61572 0.81241 0.43676 0.0
C865 C 0.57559 0.82945 0.55315 0.0
C866 C 0.55888 0.79358 0.47352 0.0
C867 C 0.56727 0.83831 0.58522 0.0
C868 C 0.60399 0.74826 0.35268 0.0
C869 C 0.59549 0.75709 0.38482 0.0
C870 C 0.5998 0.80673 0.44642 0.0
C871 C 0.5614 0.82074 0.52673 0.0
C872 C 0.57057 0.81019 0.49238 0.0
C873 C 0.59736 0.7799 0.39346 0.0
C874 C 0.58826 0.78992 0.42801 0.0
H875 H 0.51222 0.83056 0.57066 0.0
H876 H 0.52636 0.81581 0.51544 0.0
H877 H 0.60116 0.82917 0.49015 0.0
H878 H 0.62355 0.79606 0.31757 0.0
H879 H 0.60998 0.81083 0.37286 0.0
C880 C 0.69979 0.63009 0.36211 0.0
C881 C 0.68698 0.61944 0.33648 0.0
C882 C 0.70951 0.61804 0.38924 0.0
C883 C 0.69637 0.56649 0.43658 0.0
H884 H 0.72999 0.60006 0.50457 0.0
C885 C 0.69093 0.60255 0.58551 0.0
C886 C 0.66757 0.60335 0.58449 0.0
C887 C 0.70275 0.5914 0.55936 0.0
C888 C 0.7209 0.58977 0.48637 0.0
H889 H 0.67702 0.58741 0.31635 0.0
H890 H 0.69499 0.56618 0.36269 0.0
H891 H 0.73785 0.60454 0.44319 0.0
H892 H 0.63835 0.59032 0.55846 0.0
H893 H 0.65838 0.57262 0.51206 0.0
H894 H 0.68026 0.55085 0.47978 0.0
C895 C 0.69661 0.58401 0.363 0.0
C896 C 0.72517 0.59274 0.45071 0.0
C897 C 0.68646 0.59619 0.33609 0.0
C898 C 0.65635 0.59082 0.55915 0.0
C899 C 0.66807 0.58012 0.53275 0.0
C900 C 0.6929 0.56268 0.47227 0.0
C901 C 0.70704 0.59486 0.39125 0.0
C902 C 0.71093 0.58336 0.4255 0.0
C903 C 0.69147 0.58129 0.53123 0.0
C904 C 0.70301 0.57643 0.49738 0.0
H905 H 0.70126 0.64795 0.36241 0.0
H906 H 0.71729 0.62739 0.41004 0.0
H907 H 0.68563 0.55798 0.41833 0.0
H908 H 0.70013 0.6117 0.60509 0.0
H909 H 0.72073 0.592 0.56012 0.0
C910 C 0.68349 0.40665 0.82937 0.0
C911 C 0.68076 0.38362 0.83205 0.0
C912 C 0.69602 0.41577 0.80198 0.0
C913 C 0.72521 0.3981 0.71832 0.0
H914 H 0.68763 0.44415 0.68014 0.0
C915 C 0.65963 0.4039 0.60459 0.0
C916 C 0.66933 0.38856 0.58173 0.0
C917 C 0.67226 0.41405 0.63053 0.0
C918 C 0.6982 0.43108 0.69022 0.0
H919 H 0.69174 0.35207 0.8115 0.0
H920 H 0.71185 0.36745 0.76305 0.0
H921 H 0.69063 0.43998 0.74265 0.0
H922 H 0.70061 0.37429 0.56489 0.0
H923 H 0.72301 0.39292 0.60901 0.0
H924 H 0.72994 0.38699 0.66612 0.0
C925 C 0.70485 0.37894 0.78168 0.0
C926 C 0.70035 0.42894 0.72652 0.0
C927 C 0.69275 0.36992 0.80928 0.0
C928 C 0.69252 0.38571 0.58258 0.0
C929 C 0.70535 0.39627 0.60824 0.0
C930 C 0.72212 0.39951 0.6821 0.0
C931 C 0.70565 0.40203 0.77632 0.0
C932 C 0.71199 0.41086 0.74101 0.0
C933 C 0.69516 0.4095 0.63403 0.0
C934 C 0.70662 0.41457 0.66793 0.0
H935 H 0.67481 0.41769 0.84698 0.0
H936 H 0.6969 0.4336 0.7998 0.0
H937 H 0.73589 0.38513 0.7284 0.0
H938 H 0.64192 0.40718 0.60374 0.0
H939 H 0.6634 0.424 0.64941 0.0
C940 C 0.87993 0.40057 1.07485 0.0
C941 C 0.90306 0.3972 1.07473 0.0
C942 C 0.86963 0.41212 1.04738 0.0
C943 C 0.85242 0.41423 0.97357 0.0
H944 H 0.89036 0.44296 0.90546 0.0
C945 C 0.868 0.37457 0.84643 0.0
C946 C 0.88013 0.385 0.81974 0.0
C947 C 0.8604 0.38658 0.87506 0.0
C948 C 0.87893 0.43543 0.92382 0.0
H949 H 0.93375 0.40593 1.04842 0.0
H950 H 0.91614 0.42432 0.99988 0.0
H951 H 0.89692 0.4488 0.96708 0.0
H952 H 0.89155 0.41663 0.79992 0.0
H953 H 0.87764 0.43793 0.84961 0.0
H954 H 0.83394 0.40152 0.93031 0.0
C955 C 0.90557 0.41858 1.02093 0.0
C956 C 0.88304 0.43846 0.95952 0.0
C957 C 0.91581 0.40747 1.04858 0.0
C958 C 0.88261 0.40811 0.82057 0.0
C959 C 0.87467 0.42028 0.84912 0.0
C960 C 0.84771 0.41201 0.93791 0.0
C961 C 0.88221 0.42013 1.0189 0.0
C962 C 0.87152 0.42577 0.9846 0.0
C963 C 0.86455 0.40947 0.87774 0.0
C964 C 0.86253 0.4204 0.91266 0.0
H965 H 0.86962 0.39317 0.09495 0.0
H966 H 0.8517 0.41357 1.04756 0.0
H967 H 0.84247 0.40474 0.99178 0.0
H968 H 0.86595 0.35676 0.84675 0.0
H969 H 0.85306 0.37731 0.8964 0.0
C970 C 0.86644 0.59893 0.33692 0.0
C971 C 0.86935 0.62202 0.33661 0.0
C972 C 0.85733 0.58816 0.3078 0.0
C973 C 0.83566 0.59976 0.21657 0.0
H974 H 0.87798 0.55406 0.19244 0.0
C975 C 0.90558 0.59058 0.11113 0.0
C976 C 0.8951 0.60115 1.0828 0.0
C977 C 0.8931 0.58202 0.13869 0.0
C978 C 0.86593 0.56677 0.19863 0.0
H979 H 0.8636 0.65199 0.30654 0.0
H980 H 0.8485 0.63358 0.25616 0.0
H981 H 0.87099 0.56216 0.25341 0.0
H982 H 0.86326 0.60882 1.05907 0.0
H983 H 0.84124 0.59336 0.10703 0.0
H984 H 0.83308 0.60664 0.16202 0.0
C985 C 0.85252 0.62352 0.27881 0.0
C986 C 0.86158 0.5712 0.23386 0.0
C987 C 0.86141 0.63422 0.30786 0.0
C988 C 0.87177 0.60116 1.08103 0.0
C989 C 0.85918 0.59229 0.10853 0.0
C990 C 0.8406 0.59587 0.18139 0.0
C991 C 0.85124 0.60026 0.27767 0.0
C992 C 0.848 0.58921 0.24315 0.0
C993 C 0.86972 0.58366 0.13862 0.0
C994 C 0.85743 0.58076 0.17226 0.0
H995 H 0.87201 0.58914 0.35908 0.0
H996 H 0.85619 0.57028 0.30821 0.0
H997 H 0.82409 0.6129 0.22282 0.0
H998 H 0.92354 0.59042 0.11342 0.0
H999 H 0.9021 0.57591 0.16132 0.0
C1000 C 0.53153 0.32317 0.60203 0.0
C1001 C 0.51873 0.33544 0.57759 0.0
C1002 C 0.52231 0.31483 0.63383 0.0
C1003 C 0.47019 0.31736 0.69321 0.0
H1004 H 0.49643 0.26534 0.73572 0.0
C1005 C 0.43786 0.2828 0.83033 0.0
C1006 C 0.44127 0.26045 0.84019 0.0
C1007 C 0.44647 0.29175 0.79852 0.0
C1008 C 0.48846 0.27973 0.72442 0.0
H1009 H 0.48547 0.34818 0.56926 0.0
H1010 H 0.46954 0.3337 0.62341 0.0
H1011 H 0.51252 0.28089 0.68281 0.0
H1012 H 0.45672 0.23022 0.8221 0.0
H1013 H 0.47112 0.24532 0.76724 0.0
H1014 H 0.44581 0.31588 0.73439 0.0
C1015 C 0.48702 0.33077 0.61872 0.0
C1016 C 0.49814 0.2891 0.69372 0.0
C1017 C 0.49626 0.33914 0.58697 0.0
C1018 C 0.45345 0.24743 0.81612 0.0
C1019 C 0.46204 0.25635 0.78427 0.0
C1020 C 0.46052 0.30801 0.72396 0.0
C1021 C 0.49969 0.31821 0.64312 0.0
C1022 C 0.48933 0.30823 0.67704 0.0
C1023 C 0.45899 0.27886 0.77453 0.0
C1024 C 0.46932 0.28888 0.7406 0.0
H1025 H 0.54881 0.31967 0.5964 0.0
H1026 H 0.53319 0.30567 0.6512 0.0
H1027 H 0.46257 0.33209 0.6824 0.0
H1028 H 0.42889 0.29373 0.84774 0.0
H1029 H 0.44378 0.30915 0.79346 0.0
C1030 C 0.5381 0.67268 0.56383 0.0
C1031 C 0.52395 0.66853 0.59281 0.0
C1032 C 0.5298 0.68086 0.53104 0.0
C1033 C 0.47572 0.6904 0.47798 0.0
H1034 H 0.51203 0.72957 0.4217 0.0
C1035 C 0.44791 0.7212 0.33513 0.0
C1036 C 0.45316 0.74299 0.32403 0.0
C1037 C 0.45594 0.71218 0.36742 0.0
C1038 C 0.50141 0.7187 0.43681 0.0
H1039 H 0.48924 0.66987 0.60776 0.0
H1040 H 0.47509 0.68375 0.55196 0.0
H1041 H 0.52728 0.71297 0.47486 0.0
H1042 H 0.47193 0.77183 0.34001 0.0
H1043 H 0.4861 0.7562 0.39509 0.0
H1044 H 0.45023 0.69531 0.43868 0.0
C1045 C 0.49275 0.68058 0.55408 0.0
C1046 C 0.51032 0.709 0.46798 0.0
C1047 C 0.50102 0.6725 0.58673 0.0
C1048 C 0.46705 0.75516 0.34703 0.0
C1049 C 0.47542 0.746 0.37898 0.0
C1050 C 0.46707 0.69952 0.44616 0.0
C1051 C 0.50684 0.68525 0.5252 0.0
C1052 C 0.49763 0.69487 0.49003 0.0
C1053 C 0.47007 0.72425 0.39025 0.0
C1054 C 0.47956 0.71414 0.42475 0.0
H1055 H 0.55582 0.67008 0.56664 0.0
H1056 H 0.54161 0.68379 0.51018 0.0
H1057 H 0.46509 0.67947 0.49294 0.0
H1058 H 0.43756 0.71089 0.31865 0.0
H1059 H 0.45145 0.69535 0.37404 0.0
C1060 C 0.11368 0.71488 0.34105 0.0
C1061 C 0.11548 0.73806 0.34604 0.0
C1062 C 0.10555 0.7055 0.30925 0.0
C1063 C 0.09821 0.71567 0.21219 0.0
H1064 H 0.05327 0.66979 0.21462 0.0
C1065 C 0.06863 0.6662 0.08435 0.0
C1066 C 0.04544 0.66361 1.07887 0.0
C1067 C 0.07753 0.67463 0.11637 0.0
C1068 C 0.06582 0.68259 0.2131 0.0
H1069 H 0.11018 0.76915 0.31889 0.0
H1070 H 0.09722 0.75292 0.26341 0.0
H1071 H 0.06877 0.68434 0.2694 0.0
H1072 H 0.01386 0.66796 0.10517 0.0
H1073 H 0.02926 0.68154 0.16077 0.0
H1074 H 0.09745 0.71174 0.15602 0.0
C1075 C 0.10174 0.74188 0.28466 0.0
C1076 C 0.0747 0.6912 0.24497 0.0
C1077 C 0.10928 0.75131 0.31688 0.0
C1078 C 0.03174 0.66939 0.10763 0.0
C1079 C 0.04068 0.67728 0.13995 0.0
C1080 C 0.09032 0.70609 0.18038 0.0
C1081 C 0.09942 0.71871 0.28007 0.0
C1082 C 0.09064 0.70848 0.24547 0.0
C1083 C 0.06382 0.68037 0.14513 0.0
C1084 C 0.0734 0.68977 0.17981 0.0
H1085 H 0.11816 0.70375 0.3622 0.0
H1086 H 0.10427 0.68767 0.30746 0.0
H1087 H 0.11076 0.72846 0.21066 0.0
H1088 H 0.08005 0.66229 1.06336 0.0
H1089 H 0.09537 0.67657 0.11858 0.0
C1090 C 0.10426 0.2428 0.85163 0.0
C1091 C 0.10628 0.25651 0.82159 0.0
C1092 C 0.09628 0.25115 0.88441 0.0
C1093 C 0.06407 0.29983 0.92474 0.0
H1094 H 0.08725 0.27866 1.01337 0.0
C1095 C 0.02574 0.32807 1.06233 0.0
C1096 C 0.03981 0.32988 0.09201 0.0
C1097 C 0.03355 0.31966 1.02958 0.0
C1098 C 0.08052 0.28505 0.98903 0.0
H1099 H 0.10094 0.29037 0.80446 0.0
H1100 H 0.08733 0.30446 0.86004 0.0
H1101 H 0.10091 0.26292 0.95836 0.0
H1102 H 0.07386 0.32418 0.1084 0.0
H1103 H 0.08713 0.30959 1.05261 0.0
H1104 H 0.04358 0.32185 0.95533 0.0
C1105 C 0.09177 0.28713 0.85866 0.0
C1106 C 0.08831 0.27569 0.957 0.0
C1107 C 0.09997 0.27892 0.82629 0.0
C1108 C 0.0622 0.3233 0.08681 0.0
C1109 C 0.06988 0.31455 1.05439 0.0
C1110 C 0.05603 0.30893 0.95676 0.0
C1111 C 0.08959 0.27357 0.88875 0.0
C1112 C 0.0805 0.28295 0.92382 0.0
C1113 C 0.05578 0.31224 1.02484 0.0
C1114 C 0.06416 0.30201 0.98992 0.0
H1115 H 0.10859 0.22545 0.84978 0.0
H1116 H 0.09488 0.23977 0.90625 0.0
H1117 H 0.0571 0.30602 0.90044 0.0
H1118 H 0.00841 0.3327 1.06455 0.0
H1119 H 0.02178 0.31825 1.00823 0.0
C1120 C 0.03652 0.2822 0.13585 0.0
C1121 C 0.01862 0.28792 0.15756 0.0
C1122 C 0.03302 0.27739 0.10044 0.0
C1123 C 0.986 0.26272 1.04169 0.0
H1124 H 0.03695 0.22571 1.03121 0.0
C1125 C 0.99229 0.2079 0.14639 0.0
C1126 C 0.01389 0.20495 0.15966 0.0
C1127 C 0.98891 0.2144 0.11169 0.0
C1128 C 0.0223 0.23583 1.03498 0.0
H1129 H 0.98276 0.2899 0.16023 0.0
H1130 H 0.97654 0.28331 0.09919 0.0
H1131 H 0.04043 0.2659 1.02695 0.0
H1132 H 0.0489 0.20874 0.14774 0.0
H1133 H 0.04338 0.22101 0.08873 0.0
H1134 H 0.96754 0.23344 1.05306 0.0
C1135 C 0.99355 0.28281 0.10834 0.0
C1136 C 0.02424 0.25889 1.03221 0.0
C1137 C 0.99703 0.28652 0.14393 0.0
C1138 C 0.03198 0.21084 0.13853 0.0
C1139 C 0.02866 0.21727 0.10382 0.0
C1140 C 0.98381 0.23989 1.04682 0.0
C1141 C 0.01149 0.27846 0.08546 0.0
C1142 C 0.0073 0.27152 1.04797 0.0
C1143 C 0.00704 0.21856 0.08921 0.0
C1144 C 0.00347 0.22763 1.05288 0.0
H1145 H 0.05343 0.2829 0.14562 0.0
H1146 H 0.04748 0.27347 0.08487 0.0
H1147 H 0.9713 0.273 1.04331 0.0
H1148 H 0.97793 0.20343 0.162 0.0
H1149 H 0.97193 0.21539 0.10254 0.0
C1150 C 0.9853 0.70009 0.4188 0.0
C1151 C 0.98525 0.72332 0.42007 0.0
C1152 C 0.9902 0.68895 0.38785 0.0
C1153 C 0.01988 0.70183 0.30412 0.0
H1154 H 0.05108 0.66424 0.36899 0.0
C1155 C 0.06124 0.74401 0.40372 0.0
C1156 C 0.0755 0.73477 0.42884 0.0
C1157 C 0.05442 0.7317 0.37499 0.0
C1158 C 0.04314 0.67501 0.35003 0.0
H1159 H 0.99208 0.75305 0.39027 0.0
H1160 H 1.00207 0.73406 0.33713 0.0
H1161 H 0.0135 0.65559 0.3505 0.0
H1162 H 0.09247 0.70466 0.44485 0.0
H1163 H 0.07979 0.68281 0.39532 0.0
H1164 H 0.0492 0.72201 0.30205 0.0
C1165 C 0.99713 0.724 0.35927 0.0
C1166 C 0.02132 0.67024 0.33975 0.0
C1167 C 0.99185 0.73513 0.39021 0.0
C1168 C 0.0813 0.71228 0.4261 0.0
C1169 C 0.07437 0.69984 0.39725 0.0
C1170 C 0.0419 0.70711 0.31285 0.0
C1171 C 0.99689 0.70054 0.35755 0.0
C1172 C 0.00845 0.68835 0.3282 0.0
C1173 C 0.06132 0.70956 0.37072 0.0
C1174 C 0.05169 0.69612 0.34181 0.0
H1175 H 0.9805 0.69035 0.44143 0.0
H1176 H 0.98939 0.67108 0.3883 0.0
H1177 H 0.01081 0.71299 0.28702 0.0
H1178 H 0.05642 0.76127 0.4051 0.0
H1179 H 0.04357 0.73978 0.3563 0.0
C1180 C 0.56869 0.71217 0.65161 0.0
C1181 C 0.54655 0.70979 0.66246 0.0
C1182 C 0.57373 0.71651 0.6166 0.0
C1183 C 0.54465 0.73857 0.53707 0.0
H1184 H 0.59464 0.77306 0.56601 0.0
C1185 C 0.52297 0.78841 0.64122 0.0
C1186 C 0.53905 0.79632 0.66466 0.0
C1187 C 0.52911 0.78128 0.60792 0.0
C1188 C 0.58006 0.76373 0.55857 0.0
H1189 H 0.51224 0.71362 0.64636 0.0
H1190 H 0.52056 0.72362 0.5869 0.0
H1191 H 0.59821 0.73324 0.55696 0.0
H1192 H 0.57449 0.8003 0.67306 0.0
H1193 H 0.58528 0.7877 0.61613 0.0
H1194 H 0.52595 0.76872 0.53673 0.0
C1195 C 0.5345 0.72022 0.60402 0.0
C1196 C 0.58212 0.74092 0.55316 0.0
C1197 C 0.52953 0.71503 0.63875 0.0
C1198 C 0.56159 0.79446 0.65552 0.0
C1199 C 0.56775 0.7876 0.62211 0.0
C1200 C 0.54201 0.76134 0.54201 0.0
C1201 C 0.55675 0.7204 0.59176 0.0
C1202 C 0.56234 0.72853 0.55535 0.0
C1203 C 0.5516 0.78155 0.59706 0.0
C1204 C 0.55832 0.77232 0.56213 0.0
H1205 H 0.58225 0.7092 0.66967 0.0
H1206 H 0.5911 0.71691 0.60936 0.0
H1207 H 0.53018 0.72913 0.5296 0.0
H1208 H 0.50542 0.78953 0.64728 0.0
H1209 H 0.51583 0.776 0.5908 0.0
C1210 C 0.5562 0.27484 0.88938 0.0
C1211 C 0.56235 0.28587 0.9201 0.0
C1212 C 0.55024 0.28681 0.85941 0.0
C1213 C 0.52298 0.33926 0.84309 0.0
H1214 H 0.50132 0.28707 0.79823 0.0
C1215 C 0.46935 0.28888 0.92441 0.0
C1216 C 0.47588 0.26656 0.92405 0.0
C1217 C 0.47407 0.3028 0.8961 0.0
C1218 C 0.5065 0.30222 0.8107 0.0
H1219 H 0.56495 0.31818 0.94442 0.0
H1220 H 0.55466 0.33892 0.89295 0.0
H1221 H 0.5386 0.30028 0.78686 0.0
H1222 H 0.49423 0.24187 0.8949 0.0
H1223 H 0.50434 0.26618 0.84766 0.0
H1224 H 0.49191 0.34161 0.86968 0.0
C1225 C 0.555 0.32107 0.89102 0.0
C1226 C 0.52811 0.30985 0.80421 0.0
C1227 C 0.56064 0.30906 0.92097 0.0
C1228 C 0.48882 0.25896 0.89604 0.0
C1229 C 0.49406 0.27296 0.86821 0.0
C1230 C 0.50135 0.33224 0.85076 0.0
C1231 C 0.5493 0.31028 0.85959 0.0
C1232 C 0.53767 0.32292 0.83067 0.0
C1233 C 0.48647 0.2951 0.86734 0.0
C1234 C 0.49507 0.31076 0.84012 0.0
H1235 H 0.55705 0.25697 0.88787 0.0
H1236 H 0.54589 0.27731 0.83644 0.0
H1237 H 0.52918 0.35393 0.85603 0.0
H1238 H 0.4597 0.29543 0.94584 0.0
H1239 H 0.46792 0.3196 0.89699 0.0
C1240 C 0.06931 0.79037 1.01389 0.0
C1241 C 0.04648 0.79089 1.00645 0.0
C1242 C 0.07687 0.78762 1.04817 0.0
C1243 C 0.05517 0.76581 0.13361 0.0
H1244 H 0.10366 0.73334 0.09418 0.0
C1245 C 0.02705 0.71538 1.03539 0.0
C1246 C 0.04117 0.70698 1.00941 0.0
C1247 C 0.03567 0.7226 1.06729 0.0
C1248 C 0.08949 0.74195 0.10494 0.0
H1249 H 0.01381 0.78455 1.02793 0.0
H1250 H 0.02679 0.77669 0.0865 0.0
H1251 H 0.10631 0.77313 0.10321 0.0
H1252 H 0.07572 0.70169 0.99547 0.0
H1253 H 0.09073 0.71446 1.05 0.0
H1254 H 0.03834 0.73469 0.13928 0.0
C1255 C 0.03914 0.78094 1.06705 0.0
C1256 C 0.09102 0.7648 0.11018 0.0
C1257 C 0.03155 0.7848 1.03293 0.0
C1258 C 0.06426 0.70804 1.01487 0.0
C1259 C 0.0729 0.71508 1.04685 0.0
C1260 C 0.05333 0.74277 0.13022 0.0
C1261 C 0.06196 0.78308 1.0758 0.0
C1262 C 0.07068 0.77629 0.11145 0.0
C1263 C 0.05879 0.72205 1.07416 0.0
C1264 C 0.06814 0.73222 0.10686 0.0
H1265 H 0.08139 0.79373 0.99357 0.0
H1266 H 0.09458 0.78887 1.05263 0.0
H1267 H 0.0413 0.77489 0.14445 0.0
H1268 H 0.00915 0.71483 1.0323 0.0
H1269 H 0.02384 0.72851 0.08637 0.0
C1270 C 0.57053 0.73312 0.2801 0.0
C1271 C 0.57612 0.72443 0.24729 0.0
C1272 C 0.56384 0.71906 0.30735 0.0
C1273 C 0.53735 0.6644 0.31376 0.0
H1274 H 0.51063 0.71197 0.36408 0.0
C1275 C 0.48167 0.71498 0.23667 0.0
C1276 C 0.48791 0.73733 0.23946 0.0
C1277 C 0.4864 0.7 0.26364 0.0
C1278 C 0.51734 0.69801 0.35014 0.0
H1279 H 0.57779 0.69421 0.21683 0.0
H1280 H 0.56705 0.66998 0.26356 0.0
H1281 H 0.54896 0.70179 0.37515 0.0
H1282 H 0.5059 0.76095 0.27128 0.0
H1283 H 0.51602 0.73491 0.31617 0.0
H1284 H 0.50685 0.66101 0.28552 0.0
C1285 C 0.56773 0.68748 0.26919 0.0
C1286 C 0.53958 0.69225 0.35622 0.0
C1287 C 0.57371 0.70157 0.24188 0.0
C1288 C 0.50069 0.7439 0.26832 0.0
C1289 C 0.50589 0.72889 0.2948 0.0
C1290 C 0.51526 0.66998 0.30613 0.0
C1291 C 0.56224 0.69583 0.30252 0.0
C1292 C 0.5505 0.68118 0.32882 0.0
C1293 C 0.49843 0.70673 0.29339 0.0
C1294 C 0.50708 0.69021 0.31921 0.0
H1295 H 0.57207 0.75067 0.28515 0.0
H1296 H 0.55955 0.72675 0.33198 0.0
H1297 H 0.54487 0.65091 0.29944 0.0
H1298 H 0.47219 0.70923 0.21442 0.0
H1299 H 0.48062 0.68314 0.26099 0.0
C1300 C 0.46767 0.2139 0.50022 0.0
C1301 C 0.49106 0.21355 0.49993 0.0
C1302 C 0.45599 0.21986 0.53026 0.0
C1303 C 0.46793 0.24937 0.61452 0.0
H1304 H 0.43657 0.28464 0.54672 0.0
C1305 C 0.51935 0.28799 0.52219 0.0
C1306 C 0.51187 0.30106 0.49414 0.0
C1307 C 0.50522 0.28281 0.54988 0.0
C1308 C 0.44576 0.27549 0.56638 0.0
H1309 H 0.52049 0.22065 0.53052 0.0
H1310 H 0.50064 0.23218 0.58207 0.0
H1311 H 0.42398 0.24784 0.56135 0.0
H1312 H 0.48307 0.3177 0.47226 0.0
H1313 H 0.45862 0.30941 0.52083 0.0
H1314 H 0.49087 0.27605 0.61989 0.0
C1315 C 0.49083 0.22687 0.55985 0.0
C1316 C 0.43856 0.25411 0.5747 0.0
C1317 C 0.50248 0.22067 0.52981 0.0
C1318 C 0.48952 0.30787 0.49367 0.0
C1319 C 0.47545 0.30313 0.52181 0.0
C1320 C 0.47566 0.27079 0.60737 0.0
C1321 C 0.46723 0.22706 0.56052 0.0
C1322 C 0.45473 0.23959 0.58838 0.0
C1323 C 0.48305 0.29054 0.55053 0.0
C1324 C 0.46722 0.28188 0.57745 0.0
H1325 H 0.4582 0.20862 0.47755 0.0
H1326 H 0.43802 0.21945 0.52921 0.0
H1327 H 0.47755 0.23909 0.63226 0.0
H1328 H 0.53646 0.28239 0.52345 0.0
H1329 H 0.5119 0.27242 0.57048 0.0
C1330 C 0.06356 0.20515 0.75574 0.0
C1331 C 0.06609 0.22809 0.75209 0.0
C1332 C 0.05947 0.19565 0.78838 0.0
C1333 C 0.03382 0.21327 0.8724 0.0
H1334 H 0.00511 0.16807 0.8184 0.0
C1335 C 0.99245 0.24435 0.76501 0.0
C1336 C 0.97935 0.23248 0.74124 0.0
C1337 C 0.99923 0.23467 0.79632 0.0
C1338 C 0.01233 0.181 0.83429 0.0
H1339 H 0.06303 0.25937 0.77909 0.0
H1340 H 0.05366 0.24332 0.83524 0.0
H1341 H 0.04326 0.16369 0.83868 0.0
H1342 H 0.96502 0.20026 0.73014 0.0
H1343 H 0.97783 0.18301 0.78403 0.0
H1344 H 0.00293 0.23109 0.87115 0.0
C1345 C 0.05672 0.23211 0.81374 0.0
C1346 C 0.03443 0.17869 0.84542 0.0
C1347 C 0.06157 0.24155 0.78108 0.0
C1348 C 0.97525 0.20991 0.74777 0.0
C1349 C 0.98219 0.20011 0.77918 0.0
C1350 C 0.01133 0.21599 0.86355 0.0
C1351 C 0.05568 0.20884 0.81831 0.0
C1352 C 0.04602 0.1986 0.85125 0.0
C1353 C 0.99351 0.21261 0.80461 0.0
C1354 C 0.00252 0.20215 0.83711 0.0
H1355 H 0.06612 0.19424 0.73364 0.0
H1356 H 0.05879 0.1778 0.78955 0.0
H1357 H 0.04212 0.22633 0.88672 0.0
H1358 H 0.99606 0.26171 0.76066 0.0
H1359 H 0.00896 0.24479 0.81393 0.0
C1360 C 0.02259 0.06264 0.16966 0.0
C1361 C 0.03643 0.08035 0.15944 0.0
C1362 C 0.02224 0.04258 0.15062 0.0
C1363 C 0.0547 0.01061 1.08227 0.0
H1364 H 1.00076 0.97595 1.07462 0.0
C1365 C 0.05613 0.92325 1.01945 0.0
C1366 C 0.03747 0.91491 1.00129 0.0
C1367 C 0.05531 0.9434 1.03762 0.0
C1368 C 0.01597 0.98546 1.07604 0.0
H1369 H 0.06071 0.09034 0.12049 0.0
H1370 H 0.05984 0.05618 0.08752 0.0
H1371 H 1.00067 0.01025 0.10837 0.0
H1372 H 0.00315 0.92209 0.98828 0.0
H1373 H 1.00184 0.95767 1.01924 0.0
H1374 H 0.06987 0.98643 1.04917 0.0
C1375 C 0.04953 0.0573 0.11067 0.0
C1376 C 0.01602 0.00514 0.09602 0.0
C1377 C 0.04996 0.07719 0.1297 0.0
C1378 C 0.01796 0.92787 1.00157 0.0
C1379 C 0.01716 0.94826 1.01982 0.0
C1380 C 0.05462 0.9911 1.06223 0.0
C1381 C 0.03567 0.03952 0.12059 0.0
C1382 C 0.03542 0.01814 0.0996 0.0
C1383 C 0.03584 0.95638 1.0384 0.0
C1384 C 0.03533 0.97797 1.05882 0.0
H1385 H 0.01181 0.06434 0.1922 0.0
H1386 H 0.01149 0.02941 0.15969 0.0
H1387 H 0.07016 0.01964 0.08442 0.0
H1388 H 0.0715 0.91392 1.02042 0.0
H1389 H 0.07 0.94844 1.05193 0.0
C1390 C 0.20306 0.79379 0.38662 0.0
C1391 C 0.1984 0.77586 0.40923 0.0
C1392 C 0.22369 0.79545 0.36907 0.0
C1393 C 0.27327 0.76068 0.34314 0.0
H1394 H 0.29994 0.81709 0.31939 0.0
C1395 C 0.35088 0.76429 0.25307 0.0
C1396 C 0.36757 0.78022 0.25912 0.0
C1397 C 0.33033 0.7651 0.27055 0.0
C1398 C 0.29292 0.80112 0.32596 0.0
H1399 H 0.21262 0.74599 0.43152 0.0
H1400 H 0.24829 0.74912 0.40211 0.0
H1401 H 0.26505 0.81604 0.35213 0.0
H1402 H 0.37493 0.81002 0.28835 0.0
H1403 H 0.33921 0.81133 0.31923 0.0
H1404 H 0.30125 0.74569 0.31805 0.0
C1405 C 0.23589 0.76171 0.39695 0.0
C1406 C 0.27258 0.80051 0.34452 0.0
C1407 C 0.21531 0.76 0.41426 0.0
C1408 C 0.3626 0.79746 0.28273 0.0
C1409 C 0.34196 0.79821 0.30049 0.0
C1410 C 0.29353 0.76129 0.32474 0.0
C1411 C 0.24047 0.77927 0.37354 0.0
C1412 C 0.26232 0.78024 0.35354 0.0
C1413 C 0.32553 0.78179 0.29519 0.0
C1414 C 0.30379 0.78149 0.31555 0.0
H1415 H 0.19055 0.80633 0.38175 0.0
H1416 H 0.2262 0.80917 0.3512 0.0
H1417 H 0.26607 0.74466 0.34878 0.0
H1418 H 0.35376 0.75082 0.23497 0.0
H1419 H 0.31818 0.75245 0.26461 0.0
C1420 C 0.49266 0.07962 0.51548 0.0
C1421 C 0.5117 0.08986 0.50113 0.0
C1422 C 0.49385 0.05927 0.53327 0.0
C1423 C 0.53363 0.01952 0.57764 0.0
H1424 H 0.48174 0.98161 0.57674 0.0
C1425 C 0.52691 0.94092 0.66921 0.0
C1426 C 0.51444 0.92259 0.65756 0.0
C1427 C 0.52715 0.96106 0.65013 0.0
C1428 C 0.49661 0.99167 0.57724 0.0
H1429 H 0.54721 0.08574 0.4946 0.0
H1430 H 0.54929 0.0498 0.52483 0.0
H1431 H 0.48192 0.01518 0.54213 0.0
H1432 H 0.49258 0.91157 0.61586 0.0
H1433 H 0.49338 0.94584 0.58272 0.0
H1434 H 0.54857 0.9954 0.61191 0.0
C1435 C 0.53329 0.05789 0.52272 0.0
C1436 C 0.49657 0.01143 0.55754 0.0
C1437 C 0.53209 0.07852 0.50487 0.0
C1438 C 0.50224 0.92519 0.6262 0.0
C1439 C 0.50261 0.94517 0.60706 0.0
C1440 C 0.53373 0.99958 0.59724 0.0
C1441 C 0.51415 0.04787 0.53748 0.0
C1442 C 0.51496 0.02597 0.55748 0.0
C1443 C 0.51504 0.96363 0.61851 0.0
C1444 C 0.51517 0.98521 0.59758 0.0
H1445 H 0.47658 0.08758 0.51375 0.0
H1446 H 0.47869 0.05281 0.54459 0.0
H1447 H 0.54814 0.03007 0.57887 0.0
H1448 H 0.53662 0.93971 0.69307 0.0
H1449 H 0.53675 0.9747 0.6605 0.0
C1450 C 0.35576 0.21632 0.86815 0.0
C1451 C 0.35818 0.22863 0.89925 0.0
C1452 C 0.336 0.21727 0.84818 0.0
C1453 C 0.28359 0.25128 0.83519 0.0
H1454 H 0.26421 0.19987 0.7832 0.0
C1455 C 0.20452 0.25375 0.7435 0.0
C1456 C 0.19111 0.23462 0.74259 0.0
C1457 C 0.22552 0.25356 0.76047 0.0
C1458 C 0.26912 0.21445 0.79768 0.0
H1459 H 0.341 0.25146 0.93356 0.0
H1460 H 0.30664 0.25268 0.8996 0.0
H1461 H 0.29805 0.19801 0.81786 0.0
H1462 H 0.19009 0.20014 0.75877 0.0
H1463 H 0.22576 0.19992 0.78796 0.0
H1464 H 0.25416 0.26745 0.81581 0.0
C1465 C 0.32017 0.24257 0.89001 0.0
C1466 C 0.28894 0.21346 0.8174 0.0
C1467 C 0.33995 0.24167 0.90989 0.0
C1468 C 0.1997 0.21529 0.7585 0.0
C1469 C 0.22051 0.2151 0.77529 0.0
C1470 C 0.26369 0.25226 0.8155 0.0
C1471 C 0.3178 0.23053 0.85853 0.0
C1472 C 0.29658 0.23179 0.8368 0.0
C1473 C 0.23385 0.23422 0.77698 0.0
C1474 C 0.25591 0.23378 0.79655 0.0
H1475 H 0.36937 0.20623 0.85871 0.0
H1476 H 0.33528 0.20792 0.82406 0.0
H1477 H 0.28881 0.26599 0.84905 0.0
H1478 H 0.19858 0.26902 0.73189 0.0
H1479 H 0.2352 0.26865 0.76065 0.0
C1480 C 0.70124 0.24894 0.92025 0.0
C1481 C 0.68673 0.267 0.91501 0.0
C1482 C 0.72216 0.24798 0.9031 0.0
C1483 C 0.7626 0.28406 0.85122 0.0
H1484 H 0.78852 0.22807 0.8243 0.0
C1485 C 0.84929 0.28073 0.78167 0.0
C1486 C 0.8543 0.2631 0.75891 0.0
C1487 C 0.82952 0.28091 0.80158 0.0
C1488 C 0.78153 0.24398 0.83106 0.0
H1489 H 0.68348 0.2981 0.88662 0.0
H1490 H 0.7186 0.29612 0.85684 0.0
H1491 H 0.75369 0.22863 0.85671 0.0
H1492 H 0.84167 0.23195 0.73922 0.0
H1493 H 0.80709 0.23268 0.77232 0.0
H1494 H 0.78968 0.29952 0.82436 0.0
C1495 C 0.71455 0.28289 0.87489 0.0
C1496 C 0.76149 0.24427 0.85043 0.0
C1497 C 0.69396 0.28393 0.89207 0.0
C1498 C 0.83858 0.24586 0.75637 0.0
C1499 C 0.81867 0.24618 0.7759 0.0
C1500 C 0.78242 0.28379 0.83158 0.0
C1501 C 0.72925 0.265 0.87996 0.0
C1502 C 0.75145 0.26434 0.86071 0.0
C1503 C 0.81373 0.2636 0.79927 0.0
C1504 C 0.79237 0.26376 0.82087 0.0
H1505 H 0.69642 0.23549 0.93743 0.0
H1506 H 0.73283 0.23392 0.90824 0.0
H1507 H 0.75608 0.29999 0.85898 0.0
H1508 H 0.86098 0.29419 0.78494 0.0
H1509 H 0.82698 0.29453 0.81946 0.0
C1510 C 0.85383 0.767 0.41214 0.0
C1511 C 0.86232 0.74626 0.42275 0.0
C1512 C 0.83374 0.76867 0.39279 0.0
C1513 C 0.78272 0.73559 0.36688 0.0
H1514 H 0.77657 0.77911 0.29267 0.0
C1515 C 0.71141 0.72831 0.2652 0.0
C1516 C 0.70013 0.74745 0.25346 0.0
C1517 C 0.73106 0.72964 0.2851 0.0
C1518 C 0.77782 0.76695 0.31348 0.0
H1519 H 0.85547 0.71103 0.42126 0.0
H1520 H 0.82124 0.71385 0.38806 0.0
H1521 H 0.80999 0.77888 0.3295 0.0
H1522 H 0.70176 0.78325 0.25326 0.0
H1523 H 0.73624 0.78561 0.28784 0.0
H1524 H 0.75077 0.72353 0.35094 0.0
C1525 C 0.82973 0.72903 0.39486 0.0
C1526 C 0.79712 0.76683 0.33483 0.0
C1527 C 0.84968 0.72738 0.41401 0.0
C1528 C 0.70988 0.76808 0.26139 0.0
C1529 C 0.72974 0.76942 0.28142 0.0
C1530 C 0.76357 0.73566 0.34557 0.0
C1531 C 0.82135 0.74966 0.38349 0.0
C1532 C 0.80011 0.75093 0.36172 0.0
C1533 C 0.74043 0.75018 0.29437 0.0
C1534 C 0.76079 0.75112 0.31808 0.0
H1535 H 0.86302 0.78196 0.41788 0.0
H1536 H 0.82796 0.78494 0.38507 0.0
H1537 H 0.78375 0.72341 0.38767 0.0
H1538 H 0.70477 0.71203 0.25971 0.0
H1539 H 0.73884 0.71435 0.29349 0.0
C1540 C 0.56914 0.57689 0.65218 0.0
C1541 C 0.55034 0.58429 0.67092 0.0
C1542 C 0.56943 0.55618 0.63547 0.0
C1543 C 0.53187 0.5116 0.60088 0.0
H1544 H 0.5871 0.47902 0.59218 0.0
C1545 C 0.5397 0.43578 0.50686 0.0
C1546 C 0.55322 0.41774 0.51686 0.0
C1547 C 0.53952 0.4556 0.52624 0.0
C1548 C 0.57141 0.48768 0.59445 0.0
H1549 H 0.51708 0.5749 0.68674 0.0
H1550 H 0.51766 0.53863 0.65808 0.0
H1551 H 0.58612 0.51304 0.62613 0.0
H1552 H 0.57735 0.40697 0.55556 0.0
H1553 H 0.57701 0.44127 0.58926 0.0
H1554 H 0.51708 0.486 0.56971 0.0
C1555 C 0.53221 0.54909 0.65597 0.0
C1556 C 0.5709 0.50754 0.61375 0.0
C1557 C 0.53194 0.5699 0.67285 0.0
C1558 C 0.56682 0.42042 0.54669 0.0
C1559 C 0.56665 0.44027 0.56609 0.0
C1560 C 0.53239 0.49175 0.58153 0.0
C1561 C 0.55092 0.5419 0.63667 0.0
C1562 C 0.55116 0.52001 0.6172 0.0
C1563 C 0.55283 0.45822 0.55646 0.0
C1564 C 0.5522 0.47942 0.57773 0.0
H1565 H 0.58368 0.58734 0.64969 0.0
H1566 H 0.58408 0.55171 0.62064 0.0
H1567 H 0.51633 0.52059 0.60239 0.0
H1568 H 0.52892 0.43452 0.48418 0.0
H1569 H 0.52892 0.46896 0.51727 0.0
C1570 C 0.02843 0.56317 1.00327 0.0
C1571 C 0.01372 0.58036 1.01256 0.0
C1572 C 0.02895 0.543 1.02218 0.0
C1573 C 0.99585 0.50881 0.08694 0.0
H1574 H 0.0514 0.47733 0.10002 0.0
C1575 C 0.99774 0.42001 0.14644 0.0
C1576 C 0.01586 0.41289 0.16722 0.0
C1577 C 0.99789 0.44055 0.12906 0.0
C1578 C 0.03571 0.48592 0.09702 0.0
H1579 H 0.988 0.58926 1.04972 0.0
H1580 H 0.98891 0.55465 1.08229 0.0
H1581 H 0.05082 0.51202 1.06693 0.0
H1582 H 0.04845 0.42266 0.18574 0.0
H1583 H 0.04861 0.45875 0.15583 0.0
H1584 H 0.98077 0.4831 0.11752 0.0
C1585 C 0.99992 0.55642 1.06005 0.0
C1586 C 0.03531 0.50583 1.07744 0.0
C1587 C 0.99943 0.57652 1.04122 0.0
C1588 C 0.03409 0.42744 0.17032 0.0
C1589 C 0.03425 0.44814 0.15272 0.0
C1590 C 0.99624 0.48896 0.10642 0.0
C1591 C 0.01476 0.53923 1.05111 0.0
C1592 C 0.01534 0.5177 1.07193 0.0
C1593 C 0.01616 0.45506 0.13156 0.0
C1594 C 0.01614 0.47698 0.11177 0.0
H1595 H 0.03983 0.56537 0.98159 0.0
H1596 H 0.04045 0.53029 1.01388 0.0
H1597 H 0.98001 0.51702 0.08328 0.0
H1598 H 0.98336 0.40946 0.14294 0.0
H1599 H 0.98373 0.44473 0.11277 0.0
C1600 C 0.03413 0.16727 0.33755 0.0
C1601 C 0.04943 0.16049 0.31137 0.0
C1602 C 0.04107 0.17395 0.37195 0.0
C1603 C 0.09035 0.17191 0.43727 0.0
H1604 H 0.05786 0.21709 0.48745 0.0
C1605 C 0.1112 0.194 0.58731 0.0
C1606 C 0.10838 0.21588 0.60005 0.0
C1607 C 0.10445 0.18749 0.55279 0.0
C1608 C 0.06741 0.20446 0.47419 0.0
H1609 H 0.08476 0.15572 0.30347 0.0
H1610 H 0.09658 0.1666 0.36243 0.0
H1611 H 0.04569 0.20568 0.42892 0.0
H1612 H 0.09542 0.24776 0.58387 0.0
H1613 H 0.08354 0.23657 0.52496 0.0
H1614 H 0.11196 0.17055 0.48262 0.0
C1615 C 0.07898 0.16687 0.35655 0.0
C1616 C 0.06016 0.19764 0.44005 0.0
C1617 C 0.07208 0.16058 0.32203 0.0
C1618 C 0.09825 0.23079 0.57599 0.0
C1619 C 0.09115 0.2242 0.54167 0.0
C1620 C 0.09736 0.17845 0.47164 0.0
C1621 C 0.06375 0.17394 0.38269 0.0
C1622 C 0.07144 0.18119 0.42029 0.0
C1623 C 0.09401 0.2023 0.52882 0.0
C1624 C 0.08622 0.19504 0.49128 0.0
H1625 H 0.01656 0.16774 0.33134 0.0
H1626 H 0.02838 0.17892 0.39039 0.0
H1627 H 0.09979 0.15914 0.42416 0.0
H1628 H 0.11868 0.18163 0.60421 0.0
H1629 H 0.10705 0.17045 0.54522 0.0
C1630 C 0.10216 0.80077 0.57066 0.0
C1631 C 0.11596 0.78221 0.56378 0.0
C1632 C 0.09546 0.80686 0.60527 0.0
C1633 C 0.10734 0.79662 0.70406 0.0
H1634 H 0.05254 0.82911 0.71722 0.0
C1635 C 0.08208 0.83191 0.84526 0.0
C1636 C 0.05948 0.83518 0.8547 0.0
C1637 C 0.08873 0.82557 0.81071 0.0
C1638 C 0.0679 0.81994 0.7147 0.0
H1639 H 0.13317 0.75572 0.59083 0.0
H1640 H 0.12178 0.76613 0.65033 0.0
H1641 H 0.06389 0.81794 0.65856 0.0
H1642 H 0.02639 0.83383 0.83237 0.0
H1643 H 0.03771 0.82309 0.77311 0.0
H1644 H 0.11122 0.79841 0.76028 0.0
C1645 C 0.1161 0.77633 0.62875 0.0
C1646 C 0.07471 0.8136 0.68018 0.0
C1647 C 0.1227 0.77015 0.59397 0.0
C1648 C 0.04396 0.83182 0.82714 0.0
C1649 C 0.05063 0.8256 0.79245 0.0
C1650 C 0.10061 0.80311 0.73856 0.0
C1651 C 0.10215 0.79488 0.63564 0.0
C1652 C 0.09468 0.8017 0.67356 0.0
C1653 C 0.07327 0.82212 0.78301 0.0
C1654 C 0.08063 0.815 0.74518 0.0
H1655 H 0.09633 0.81083 0.54898 0.0
H1656 H 0.08512 0.82139 0.60804 0.0
H1657 H 0.12288 0.78776 0.70145 0.0
H1658 H 0.0949 0.83409 0.86489 0.0
H1659 H 0.10633 0.8236 0.80578 0.0
C1660 C 0.46064 0.80624 0.09809 0.0
C1661 C 0.44836 0.78672 0.10559 0.0
C1662 C 0.46692 0.81253 1.0633 0.0
C1663 C 0.45742 0.79931 0.96438 0.0
H1664 H 0.50699 0.83922 0.9512 0.0
C1665 C 0.48031 0.83376 0.82115 0.0
C1666 C 0.50194 0.84161 0.8128 0.0
C1667 C 0.47403 0.82716 0.85584 0.0
C1668 C 0.49315 0.82792 0.95364 0.0
H1669 H 0.43344 0.75871 1.07934 0.0
H1670 H 0.44428 0.76933 1.0196 0.0
H1671 H 0.49641 0.82766 1.00994 0.0
H1672 H 0.53372 0.84814 0.83734 0.0
H1673 H 0.52313 0.83676 0.89671 0.0
H1674 H 0.45448 0.79921 0.90799 0.0
C1675 C 0.449 0.78021 1.04078 0.0
C1676 C 0.4867 0.82133 0.9883 0.0
C1677 C 0.44271 0.7739 1.07575 0.0
C1678 C 0.51687 0.84246 0.84163 0.0
C1679 C 0.51058 0.83587 0.87643 0.0
C1680 C 0.46384 0.80594 0.9297 0.0
C1681 C 0.46143 0.79976 1.03325 0.0
C1682 C 0.46856 0.8068 0.99506 0.0
C1683 C 0.48892 0.8279 0.88486 0.0
C1684 C 0.48194 0.82053 0.92296 0.0
H1685 H 0.46556 0.81695 0.11943 0.0
H1686 H 0.476 0.82785 1.06021 0.0
H1687 H 0.44331 0.78835 0.9669 0.0
H1688 H 0.46795 0.83262 0.80058 0.0
H1689 H 0.45711 0.82167 0.85973 0.0
C1690 C 0.50261 0.17969 0.33031 0.0
C1691 C 0.48809 0.16821 0.35337 0.0
C1692 C 0.49617 0.18613 0.29557 0.0
C1693 C 0.45381 0.17497 0.22197 0.0
H1694 H 0.47452 0.23039 0.1827 0.0
C1695 C 0.43927 0.19858 1.07092 0.0
C1696 C 0.43501 0.22081 1.06075 0.0
C1697 C 0.44514 0.19249 0.106 0.0
C1698 C 0.46838 0.21482 0.19287 0.0
H1699 H 0.45478 0.15471 0.35535 0.0
H1700 H 0.44397 0.16507 0.29538 0.0
H1701 H 0.48565 0.21936 0.24216 0.0
H1702 H 0.43433 0.25394 1.08214 0.0
H1703 H 0.44501 0.24356 0.14234 0.0
H1704 H 0.43685 0.17022 0.17251 0.0
C1705 C 0.46053 0.16933 0.30421 0.0
C1706 C 0.47502 0.20829 0.22749 0.0
C1707 C 0.46681 0.1633 0.33922 0.0
C1708 C 0.43719 0.23663 0.08798 0.0
C1709 C 0.44357 0.23057 0.12301 0.0
C1710 C 0.44756 0.18126 0.18709 0.0
C1711 C 0.47492 0.18114 0.28129 0.0
C1712 C 0.46787 0.18818 0.24331 0.0
C1713 C 0.44767 0.20826 0.13321 0.0
C1714 C 0.45454 0.20145 0.17138 0.0
H1715 H 0.51908 0.18415 0.33934 0.0
H1716 H 0.50816 0.19493 0.27965 0.0
H1717 H 0.44777 0.15932 0.23203 0.0
H1718 H 0.43801 0.18559 1.05154 0.0
H1719 H 0.44818 0.17517 0.11154 0.0
C1720 C 0.87818 0.84872 0.61808 0.0
C1721 C 0.88659 0.85889 0.58778 0.0
C1722 C 0.87032 0.86141 0.6458 0.0
C1723 C 0.88177 0.91644 0.68216 0.0
H1724 H 0.85476 0.88637 0.76095 0.0
C1725 C 0.92771 0.90784 0.80685 0.0
C1726 C 0.91796 0.89805 0.83645 0.0
C1727 C 0.91467 0.91426 0.77839 0.0
C1728 C 0.86193 0.89568 0.73953 0.0
H1729 H 0.89075 0.89036 0.56107 0.0
H1730 H 0.87601 0.91255 0.60884 0.0
H1731 H 0.8446 0.87588 0.70224 0.0
H1732 H 0.88651 0.89027 0.86142 0.0
H1733 H 0.86362 0.90264 0.81257 0.0
H1734 H 0.89857 0.93673 0.71941 0.0
C1735 C 0.87638 0.89474 0.61188 0.0
C1736 C 0.85635 0.88928 0.70552 0.0
C1737 C 0.88465 0.88198 0.58426 0.0
C1738 C 0.89464 0.89746 0.83879 0.0
C1739 C 0.88148 0.90433 0.81048 0.0
C1740 C 0.88666 0.92347 0.71613 0.0
C1741 C 0.87026 0.8847 0.64381 0.0
C1742 C 0.86808 0.89788 0.67667 0.0
C1743 C 0.8914 0.91146 0.77898 0.0
C1744 C 0.87874 0.9115 0.74524 0.0
H1745 H 0.87872 0.8309 0.62118 0.0
H1746 H 0.86595 0.85278 0.6697 0.0
H1747 H 0.89074 0.92413 0.66079 0.0
H1748 H 0.94561 0.90931 0.80471 0.0
H1749 H 0.92326 0.91962 0.75498 0.0
C1750 C 0.89541 0.10145 0.586 0.0
C1751 C 0.89526 0.12426 0.57847 0.0
C1752 C 0.89194 0.08597 0.55933 0.0
C1753 C 0.8737 0.08189 0.46591 0.0
H1754 H 0.91874 0.03627 0.46014 0.0
C1755 C 0.94053 0.05852 0.36238 0.0
C1756 C 0.92834 0.06612 0.33333 0.0
C1757 C 0.92969 0.05253 0.39322 0.0
C1758 C 0.90597 0.04888 0.46122 0.0
H1759 H 0.89049 0.1487 0.53741 0.0
H1760 H 0.88546 0.12201 0.49099 0.0
H1761 H 0.91224 0.05479 0.51556 0.0
H1762 H 0.89508 0.06893 0.3115 0.0
H1763 H 0.87621 0.05685 0.36427 0.0
H1764 H 0.8692 0.07829 0.41117 0.0
C1765 C 0.88774 0.11588 0.51746 0.0
C1766 C 0.90201 0.0593 0.49328 0.0
C1767 C 0.89113 0.13126 0.54399 0.0
C1768 C 0.90508 0.06373 0.33365 0.0
C1769 C 0.8942 0.05708 0.36426 0.0
C1770 C 0.87805 0.07195 0.43376 0.0
C1771 C 0.8882 0.09304 0.52469 0.0
C1772 C 0.88704 0.07711 0.49519 0.0
C1773 C 0.90632 0.05353 0.39543 0.0
C1774 C 0.89558 0.05662 0.43038 0.0
H1775 H 0.89862 0.09554 0.61236 0.0
H1776 H 0.89242 0.06851 0.56577 0.0
H1777 H 0.8613 0.09488 0.46696 0.0
H1778 H 0.95853 0.05911 0.36242 0.0
H1779 H 0.93991 0.04952 0.41608 0.0
C1780 C 0.67406 0.16082 0.11248 0.0
C1781 C 0.6649 0.15071 1.08272 0.0
C1782 C 0.68055 0.14817 0.14129 0.0
C1783 C 0.66387 0.09502 0.18063 0.0
H1784 H 0.69185 0.12438 0.25913 0.0
C1785 C 0.65117 0.11498 0.33727 0.0
C1786 C 0.62784 0.11551 0.33489 0.0
C1787 C 0.66396 0.10792 0.30879 0.0
C1788 C 0.68433 0.11529 0.23782 0.0
H1789 H 0.65824 0.1191 1.05802 0.0
H1790 H 0.67075 0.0969 0.10756 0.0
H1791 H 0.7036 0.13316 0.20035 0.0
H1792 H 0.59966 0.10632 0.30258 0.0
H1793 H 0.62147 0.09568 0.25264 0.0
H1794 H 0.64519 0.07655 0.21812 0.0
C1795 C 0.67188 0.11473 0.10945 0.0
C1796 C 0.69083 0.12072 0.20375 0.0
C1797 C 0.66493 0.12748 1.08076 0.0
C1798 C 0.61761 0.10688 0.30483 0.0
C1799 C 0.6303 0.10025 0.27625 0.0
C1800 C 0.65802 0.08893 0.21471 0.0
C1801 C 0.67849 0.12494 0.14093 0.0
C1802 C 0.679 0.11242 0.17478 0.0
C1803 C 0.65369 0.10165 0.27712 0.0
C1804 C 0.66645 0.10069 0.24359 0.0
H1805 H 0.67503 0.17867 0.11438 0.0
H1806 H 0.68545 0.15697 0.1647 0.0
H1807 H 0.65469 0.0876 0.1593 0.0
H1808 H 0.65963 0.12129 0.36023 0.0
H1809 H 0.68189 0.10861 0.31101 0.0
C1810 C 0.65478 0.92556 0.83495 0.0
C1811 C 0.63142 0.92631 0.8362 0.0
C1812 C 0.66738 0.92978 0.86503 0.0
C1813 C 0.68494 0.91369 0.9338 0.0
H1814 H 0.6565 0.93579 1.01762 0.0
C1815 C 0.67134 0.85846 1.04957 0.0
C1816 C 0.66571 0.8668 1.08267 0.0
C1817 C 0.67705 0.87275 1.02233 0.0
C1818 C 0.66527 0.92981 0.99479 0.0
H1819 H 0.60329 0.93574 0.86832 0.0
H1820 H 0.62468 0.94129 0.9209 0.0
H1821 H 0.6489 0.95336 0.96187 0.0
H1822 H 0.66356 0.89665 0.11395 0.0
H1823 H 0.67442 0.92159 1.06669 0.0
H1824 H 0.70167 0.89047 0.96683 0.0
C1825 C 0.63369 0.93774 0.89707 0.0
C1826 C 0.66055 0.93971 0.96248 0.0
C1827 C 0.6212 0.93409 0.86684 0.0
C1828 C 0.66772 0.88966 0.0887 0.0
C1829 C 0.67374 0.904 1.06146 0.0
C1830 C 0.69022 0.9043 0.9662 0.0
C1831 C 0.65686 0.93419 0.89721 0.0
C1832 C 0.66866 0.9304 0.93122 0.0
C1833 C 0.67764 0.89581 1.02754 0.0
C1834 C 0.67886 0.91088 0.9966 0.0
H1835 H 0.66335 0.91995 0.81168 0.0
H1836 H 0.68525 0.92786 0.86355 0.0
H1837 H 0.69205 0.90613 0.91073 0.0
H1838 H 0.67055 0.84089 1.04425 0.0
H1839 H 0.67962 0.86562 0.99666 0.0
C1840 C 0.58832 0.67453 0.82203 0.0
C1841 C 0.5667 0.66651 0.81405 0.0
C1842 C 0.59474 0.68125 0.85656 0.0
C1843 C 0.57872 0.67747 0.95446 0.0
H1844 H 0.62151 0.7247 0.96636 0.0
C1845 C 0.61634 0.69973 0.09585 0.0
C1846 C 0.62207 0.72185 0.10453 0.0
C1847 C 0.60966 0.69329 1.0613 0.0
C1848 C 0.60946 0.71149 0.96409 0.0
H1849 H 0.53516 0.65957 0.83903 0.0
H1850 H 0.54629 0.67059 0.8985 0.0
H1851 H 0.6101 0.71335 0.90746 0.0
H1852 H 0.62485 0.75431 1.08079 0.0
H1853 H 0.61395 0.7432 1.02125 0.0
H1854 H 0.57821 0.6755 1.01109 0.0
C1855 C 0.55852 0.67181 0.87781 0.0
C1856 C 0.60293 0.7047 0.9296 0.0
C1857 C 0.55197 0.66542 0.84307 0.0
C1858 C 0.62091 0.73709 1.07616 0.0
C1859 C 0.61457 0.73057 1.04139 0.0
C1860 C 0.58555 0.68401 0.98895 0.0
C1861 C 0.5801 0.68011 0.88573 0.0
C1862 C 0.58727 0.68749 0.92353 0.0
C1863 C 0.60853 0.70846 1.0328 0.0
C1864 C 0.60112 0.70129 0.99501 0.0
H1865 H 0.60047 0.67594 0.80125 0.0
H1866 H 0.61155 0.68715 0.86036 0.0
H1867 H 0.56682 0.66413 0.95219 0.0
H1868 H 0.61666 0.68716 0.11612 0.0
H1869 H 0.60557 0.67608 1.05696 0.0
C1870 C 0.58071 0.3367 0.34726 0.0
C1871 C 0.55851 0.34155 0.35724 0.0
C1872 C 0.58669 0.33099 0.31218 0.0
C1873 C 0.56363 0.30932 0.22487 0.0
H1874 H 0.61999 0.3285 0.18644 0.0
C1875 C 0.59798 0.27517 0.08765 0.0
C1876 C 0.6099 0.28942 1.06477 0.0
C1877 C 0.59171 0.28156 0.12236 0.0
C1878 C 0.6041 0.32288 0.1963 0.0
H1879 H 0.52528 0.34349 0.33554 0.0
H1880 H 0.53544 0.33308 0.2753 0.0
H1881 H 0.60933 0.33922 0.246 0.0
H1882 H 0.6244 0.32219 1.06303 0.0
H1883 H 0.61431 0.3329 0.12301 0.0
H1884 H 0.55858 0.29266 0.17536 0.0
C1885 C 0.54851 0.33392 0.29479 0.0
C1886 C 0.59794 0.329 0.23119 0.0
C1887 C 0.54258 0.34013 0.32983 0.0
C1888 C 0.61544 0.31037 1.07904 0.0
C1889 C 0.60957 0.3166 0.11404 0.0
C1890 C 0.57001 0.30279 0.19025 0.0
C1891 C 0.57079 0.32922 0.28478 0.0
C1892 C 0.57745 0.32252 0.24662 0.0
C1893 C 0.59731 0.30248 0.13677 0.0
C1894 C 0.59042 0.30944 0.17472 0.0
H1895 H 0.59378 0.33736 0.3668 0.0
H1896 H 0.60399 0.32746 0.30675 0.0
H1897 H 0.5478 0.30359 0.23484 0.0
H1898 H 0.59304 0.25896 1.07851 0.0
H1899 H 0.58254 0.26979 0.13815 0.0
C1900 C 0.01092 0.3191 0.33632 0.0
C1901 C 0.99681 0.33064 0.31258 0.0
C1902 C 0.00373 0.3122 0.37051 0.0
C1903 C 0.95953 0.32229 0.44183 0.0
H1904 H 0.97964 0.26664 0.48124 0.0
C1905 C 0.94146 0.29714 0.59163 0.0
C1906 C 0.93692 0.27481 0.60096 0.0
C1907 C 0.94819 0.30361 0.55708 0.0
C1908 C 0.97365 0.28228 0.47104 0.0
H1909 H 0.96337 0.34373 0.30891 0.0
H1910 H 0.9513 0.33265 0.36786 0.0
H1911 H 0.99217 0.27829 0.4228 0.0
H1912 H 0.93677 0.24195 0.57856 0.0
H1913 H 0.94899 0.25295 0.51941 0.0
H1914 H 0.94138 0.32652 0.49031 0.0
C1915 C 0.96811 0.32865 0.36001 0.0
C1916 C 0.98111 0.28917 0.43698 0.0
C1917 C 0.97513 0.33509 0.32554 0.0
C1918 C 0.93979 0.25931 0.57341 0.0
C1919 C 0.94706 0.26574 0.53897 0.0
C1920 C 0.9525 0.31566 0.4762 0.0
C1921 C 0.98208 0.3168 0.38362 0.0
C1922 C 0.97421 0.30937 0.42108 0.0
C1923 C 0.95141 0.28814 0.52957 0.0
C1924 C 0.9592 0.29536 0.49196 0.0
H1925 H 0.02766 0.31497 0.32826 0.0
H1926 H 0.01545 0.30338 0.38697 0.0
H1927 H 0.95361 0.33798 0.43173 0.0
H1928 H 0.93972 0.30992 0.61125 0.0
H1929 H 0.95134 0.32097 0.5522 0.0
C1930 C 0.01238 0.65782 0.83007 0.0
C1931 C 1.00017 0.66376 0.86047 0.0
C1932 C 0.0056 0.66423 0.79536 0.0
C1933 C 0.96597 0.70384 0.7441 0.0
H1934 H 0.98223 0.66837 0.66391 0.0
C1935 C 0.94586 0.73412 0.59687 0.0
C1936 C 0.94281 0.71864 0.56934 0.0
C1937 C 0.9525 0.72764 0.63159 0.0
C1938 C 0.97722 0.67867 0.68565 0.0
H1939 H 0.97058 0.68178 0.87561 0.0
H1940 H 0.95906 0.69278 0.81661 0.0
H1941 H 0.9938 0.65709 0.72271 0.0
H1942 H 0.94498 0.68345 0.55933 0.0
H1943 H 0.95627 0.67235 0.61846 0.0
H1944 H 0.9493 0.72536 0.70708 0.0
C1945 C 0.97415 0.68317 0.81921 0.0
C1946 C 0.98424 0.67218 0.72015 0.0
C1947 C 0.98081 0.6766 0.8538 0.0
C1948 C 0.94685 0.69625 0.5789 0.0
C1949 C 0.95367 0.68979 0.61348 0.0
C1950 C 0.95914 0.71045 0.70957 0.0
C1951 C 0.98626 0.67723 0.78865 0.0
C1952 C 0.97881 0.68446 0.75071 0.0
C1953 C 0.95679 0.70523 0.64115 0.0
C1954 C 0.96443 0.69808 0.67903 0.0
H1955 H 0.02738 0.64808 0.83301 0.0
H1956 H 0.01595 0.65916 0.77367 0.0
H1957 H 0.96127 0.71434 0.76576 0.0
H1958 H 0.94327 0.75155 0.59158 0.0
H1959 H 0.95469 0.74054 0.65088 0.0
C1960 C 0.43115 0.408 0.30129 0.0
C1961 C 0.42117 0.40318 0.33361 0.0
C1962 C 0.41817 0.41285 0.27205 0.0
C1963 C 0.36363 0.398 0.23839 0.0
H1964 H 0.391 0.42327 0.15562 0.0
C1965 C 0.3721 0.34933 0.11595 0.0
C1966 C 0.3768 0.3592 0.08349 0.0
C1967 C 0.36742 0.36231 0.14506 0.0
C1968 C 0.38248 0.41659 0.17827 0.0
H1969 H 0.38979 0.40152 0.36143 0.0
H1970 H 0.36699 0.4105 0.3103 0.0
H1971 H 0.40221 0.43607 0.21305 0.0
H1972 H 0.37852 0.39039 1.05533 0.0
H1973 H 0.36988 0.41319 0.10626 0.0
H1974 H 0.34406 0.37835 0.20362 0.0
C1975 C 0.38489 0.41006 0.30742 0.0
C1976 C 0.3892 0.42374 0.21137 0.0
C1977 C 0.39796 0.40501 0.33675 0.0
C1978 C 0.37511 0.38231 1.08012 0.0
C1979 C 0.37025 0.39537 0.10933 0.0
C1980 C 0.35649 0.39128 0.20529 0.0
C1981 C 0.39482 0.41324 0.27441 0.0
C1982 C 0.3814 0.41297 0.24167 0.0
C1983 C 0.36711 0.38555 0.14244 0.0
C1984 C 0.36739 0.39895 0.17504 0.0
H1985 H 0.44905 0.40731 0.29826 0.0
H1986 H 0.42655 0.41486 0.24716 0.0
H1987 H 0.35684 0.38958 0.26105 0.0
H1988 H 0.37268 0.33153 0.11917 0.0
H1989 H 0.36545 0.35402 0.17005 0.0
C1990 C 0.39556 0.64877 1.0466 0.0
C1991 C 0.39933 0.64051 1.08048 0.0
C1992 C 0.39112 0.63446 1.01898 0.0
C1993 C 0.40239 0.57788 0.99111 0.0
H1994 H 0.37303 0.60166 0.90886 0.0
C1995 C 0.44456 0.57924 0.86301 0.0
C1996 C 0.43367 0.58795 0.83347 0.0
C1997 C 0.43251 0.57328 0.89272 0.0
C1998 C 0.38085 0.59403 0.9314 0.0
H1999 H 0.40062 0.61068 0.11224 0.0
H2000 H 0.39252 0.58554 1.06378 0.0
H2001 H 0.36453 0.61668 0.9656 0.0
H2002 H 0.4013 0.59328 0.80958 0.0
H2003 H 0.38023 0.58145 0.86047 0.0
H2004 H 0.41863 0.55512 0.95696 0.0
C2005 C 0.39323 0.60315 1.05861 0.0
C2006 C 0.37618 0.60303 0.96414 0.0
C2007 C 0.39778 0.61756 0.08637 0.0
C2008 C 0.41032 0.58711 0.83217 0.0
C2009 C 0.39819 0.58058 0.86168 0.0
C2010 C 0.40659 0.56839 0.95841 0.0
C2011 C 0.39011 0.61144 1.02448 0.0
C2012 C 0.38847 0.59649 0.99373 0.0
C2013 C 0.40918 0.57548 0.89334 0.0
C2014 C 0.39759 0.57787 0.92772 0.0
H2015 H 0.39616 0.66638 1.04128 0.0
H2016 H 0.38934 0.64151 0.993 0.0
H2017 H 0.41177 0.57199 1.01351 0.0
H2018 H 0.46254 0.57871 0.86428 0.0
H2019 H 0.44188 0.56918 0.91607 0.0
C2020 C 0.16103 0.61109 0.58259 0.0
C2021 C 0.16005 0.63389 0.58978 0.0
C2022 C 0.16388 0.59574 0.60979 0.0
C2023 C 0.17881 0.59221 0.70462 0.0
H2024 H 0.13569 0.54469 0.70695 0.0
C2025 C 0.11149 0.56363 0.80498 0.0
C2026 C 0.123 0.57081 0.83491 0.0
C2027 C 0.12295 0.55911 0.7741 0.0
C2028 C 0.14792 0.55782 0.70682 0.0
H2029 H 0.16212 0.65849 0.6309 0.0
H2030 H 0.16615 0.63198 0.67815 0.0
H2031 H 0.14286 0.56397 0.65214 0.0
H2032 H 0.15587 0.57442 0.85788 0.0
H2033 H 0.17584 0.56486 0.80495 0.0
H2034 H 0.18208 0.5882 0.75957 0.0
C2035 C 0.1652 0.62579 0.65158 0.0
C2036 C 0.15227 0.5687 0.67516 0.0
C2037 C 0.16241 0.64104 0.62453 0.0
C2038 C 0.14634 0.56947 0.83512 0.0
C2039 C 0.15785 0.56428 0.80444 0.0
C2040 C 0.1741 0.58175 0.73632 0.0
C2041 C 0.16589 0.60295 0.64464 0.0
C2042 C 0.16658 0.58706 0.67438 0.0
C2043 C 0.14627 0.56115 0.77272 0.0
C2044 C 0.1573 0.56555 0.73836 0.0
H2045 H 0.15918 0.60507 0.55604 0.0
H2046 H 0.16433 0.57828 0.60358 0.0
H2047 H 0.19064 0.60572 0.70453 0.0
H2048 H 0.09348 0.56344 0.80441 0.0
H2049 H 0.11315 0.55638 0.75071 0.0
C2050 C 0.12549 0.41015 0.36621 0.0
C2051 C 0.13523 0.40203 0.33544 0.0
C2052 C 0.13864 0.41592 0.39484 0.0
C2053 C 0.19262 0.398 0.43026 0.0
H2054 H 0.16448 0.42282 0.51236 0.0
C2055 C 0.18164 0.34724 0.55031 0.0
C2056 C 0.17372 0.35638 0.58165 0.0
C2057 C 0.18815 0.36087 0.52268 0.0
C2058 C 0.17325 0.41616 0.49002 0.0
H2059 H 0.16665 0.39665 0.30886 0.0
H2060 H 0.18965 0.40793 0.35809 0.0
H2061 H 0.15476 0.43682 0.4551 0.0
H2062 H 0.16911 0.38706 0.61016 0.0
H2063 H 0.18155 0.41086 0.56255 0.0
H2064 H 0.21155 0.37778 0.46522 0.0
C2065 C 0.17176 0.40878 0.36086 0.0
C2066 C 0.16728 0.42399 0.45683 0.0
C2067 C 0.15853 0.40255 0.33235 0.0
C2068 C 0.17489 0.37943 0.5862 0.0
C2069 C 0.18181 0.39313 0.55866 0.0
C2070 C 0.19921 0.39078 0.46348 0.0
C2071 C 0.16199 0.41413 0.39327 0.0
C2072 C 0.17513 0.41335 0.42652 0.0
C2073 C 0.1873 0.38408 0.52582 0.0
C2074 C 0.18789 0.3981 0.49353 0.0
H2075 H 0.10758 0.41073 0.36904 0.0
H2076 H 0.13017 0.41993 0.419 0.0
H2077 H 0.19968 0.38967 0.40783 0.0
H2078 H 0.18166 0.3295 0.54634 0.0
H2079 H 0.19213 0.35298 0.49806 0.0
loop_
_geom_bond_atom_site_label_1
_geom_bond_atom_site_label_2
_geom_bond_distance
_geom_bond_site_symmetry_2
_ccdc_geom_bond_type
Eu0 C9 2.828 . S
Eu0 O11 2.392 . S
Eu0 O13 2.418 . S
Eu0 O18 2.373 . S
Eu0 O21 2.488 . S
Eu0 O22 2.471 . S
Eu0 O23 2.349 . S
Eu1 O10 2.373 . S
Eu1 O14 2.488 1_455 S
Eu1 O15 2.468 1_455 S
Eu1 O16 2.349 . S
Eu1 O19 2.392 . S
Eu1 O20 2.418 . S
Eu1 C30 2.828 1_455 S
C2 O20 1.244 . S
C2 O23 1.265 . S
C3 C4 1.379 1_554 S
C3 C7 1.373 1_554 S
C3 C9 1.505 . S
C4 C3 1.379 1_556 S
C4 C6 1.369 . S
C4 H32 0.930 . S
C5 C7 1.383 . S
C5 C8 1.382 . S
C5 H33 0.930 . S
C6 C4 1.369 . S
C6 C8 1.392 . S
C6 H34 0.930 . S
C7 C3 1.373 1_556 S
C7 C5 1.383 . S
C7 H35 0.931 1_556 S
C8 C5 1.382 . S
C8 C6 1.392 . S
C9 Eu0 2.828 . S
C9 C3 1.505 . S
C9 O21 1.249 . S
C9 O22 1.244 . S
O10 Eu1 2.373 . S
O10 C12 1.258 . S
O11 Eu0 2.392 . S
O11 C12 1.242 . S
C12 O10 1.258 . S
C12 O11 1.242 . S
O13 Eu0 2.418 . S
O13 C17 1.244 . S
O14 Eu1 2.488 1_655 S
O14 C30 1.249 . S
O15 Eu1 2.468 1_655 S
O15 C30 1.248 . S
O16 Eu1 2.349 . S
O16 C17 1.265 . S
C17 O13 1.244 . S
C17 O16 1.265 . S
O18 Eu0 2.373 . S
O18 C31 1.258 . S
O19 Eu1 2.392 . S
O19 C31 1.242 . S
O20 Eu1 2.418 . S
O20 C2 1.244 . S
O21 Eu0 2.488 . S
O21 C9 1.249 . S
O22 Eu0 2.471 . S
O22 C9 1.244 . S
O23 Eu0 2.349 . S
O23 C2 1.265 . S
C24 C25 1.379 . S
C24 C28 1.373 . S
C24 C30 1.505 . S
C25 C24 1.379 . S
C25 C27 1.369 . S
C25 H36 0.959 . S
C26 C28 1.383 . S
C26 C29 1.382 . S
C26 H37 0.930 . S
C27 C25 1.369 . S
C27 C29 1.392 . S
C27 H38 0.930 . S
C28 C24 1.373 . S
C28 C26 1.383 . S
C28 H39 0.931 . S
C29 C26 1.382 . S
C29 C27 1.392 . S
C30 Eu1 2.828 1_655 S
C30 O14 1.249 . S
C30 O15 1.248 . S
C30 C24 1.505 . S
C31 O18 1.258 . S
C31 O19 1.242 . S
H32 C4 0.930 . S
H33 C5 0.930 . S
H34 C6 0.930 . S
H35 C7 0.931 1_554 S
H36 C25 0.959 . S
H37 C26 0.930 . S
H38 C27 0.930 . S
H39 C28 0.931 . S
Eu40 C49 2.828 . S
Eu40 O51 2.392 . S
Eu40 O53 2.418 . S
Eu40 O58 2.373 . S
Eu40 O61 2.488 . S
Eu40 O62 2.471 . S
Eu40 O63 2.349 . S
Eu41 O50 2.373 . S
Eu41 O54 2.488 . S
Eu41 O55 2.471 . S
Eu41 O56 2.349 . S
Eu41 O59 2.392 . S
Eu41 O60 2.418 . S
Eu41 C70 2.828 . S
C42 O60 1.244 . S
C42 O63 1.265 . S
C43 C44 1.379 . S
C43 C47 1.373 . S
C43 C49 1.505 . S
C44 C43 1.379 . S
C44 C46 1.369 . S
C44 H72 0.930 . S
C45 C47 1.383 . S
C45 C48 1.382 . S
C45 H73 0.930 . S
C46 C44 1.369 . S
C46 C48 1.392 . S
C46 H74 0.930 . S
C47 C43 1.373 . S
C47 C45 1.383 . S
C47 H75 0.931 . S
C48 C45 1.382 . S
C48 C46 1.392 . S
C49 Eu40 2.828 . S
C49 C43 1.505 . S
C49 O61 1.249 . S
C49 O62 1.244 . S
O50 Eu41 2.373 . S
O50 C52 1.258 . S
O51 Eu40 2.392 . S
O51 C52 1.242 . S
C52 O50 1.258 . S
C52 O51 1.242 . S
O53 Eu40 2.418 . S
O53 C57 1.244 . S
O54 Eu41 2.488 . S
O54 C70 1.249 . S
O55 Eu41 2.471 . S
O55 C70 1.244 . S
O56 Eu41 2.349 . S
O56 C57 1.265 . S
C57 O53 1.244 . S
C57 O56 1.265 . S
O58 Eu40 2.373 . S
O58 C71 1.258 . S
O59 Eu41 2.392 . S
O59 C71 1.242 . S
O60 Eu41 2.418 . S
O60 C42 1.244 . S
O61 Eu40 2.488 . S
O61 C49 1.249 . S
O62 Eu40 2.471 . S
O62 C49 1.244 . S
O63 Eu40 2.349 . S
O63 C42 1.265 . S
C64 C65 1.379 . S
C64 C68 1.373 . S
C64 C70 1.505 . S
C65 C64 1.379 . S
C65 C67 1.369 . S
C65 H76 0.930 . S
C66 C68 1.383 . S
C66 C69 1.382 . S
C66 H77 0.930 . S
C67 C65 1.369 . S
C67 C69 1.392 . S
C67 H78 0.930 . S
C68 C64 1.373 . S
C68 C66 1.383 . S
C68 H79 0.931 . S
C69 C66 1.382 . S
C69 C67 1.392 . S
C70 Eu41 2.828 . S
C70 O54 1.249 . S
C70 O55 1.244 . S
C70 C64 1.505 . S
C71 O58 1.258 . S
C71 O59 1.242 . S
H72 C44 0.930 . S
H73 C45 0.930 . S
H74 C46 0.930 . S
H75 C47 0.931 . S
H76 C65 0.930 . S
H77 C66 0.930 . S
H78 C67 0.930 . S
H79 C68 0.931 . S
Eu80 C89 2.828 . S
Eu80 O91 2.392 . S
Eu80 O93 2.418 . S
Eu80 O98 2.373 . S
Eu80 O101 2.488 . S
Eu80 O102 2.471 . S
Eu80 O103 2.349 . S
Eu81 O90 2.373 . S
Eu81 O94 2.488 . S
Eu81 O95 2.471 . S
Eu81 O96 2.349 . S
Eu81 O99 2.392 . S
Eu81 O100 2.418 . S
Eu81 C110 2.828 . S
C82 O100 1.244 . S
C82 O103 1.265 . S
C83 C84 1.379 . S
C83 C87 1.373 . S
C83 C89 1.505 . S
C84 C83 1.379 . S
C84 C86 1.369 . S
C84 H112 0.930 . S
C85 C87 1.383 . S
C85 C88 1.382 . S
C85 H113 0.930 . S
C86 C84 1.369 . S
C86 C88 1.392 . S
C86 H114 0.930 . S
C87 C83 1.373 . S
C87 C85 1.383 . S
C87 H115 0.931 . S
C88 C85 1.382 . S
C88 C86 1.392 . S
C89 Eu80 2.828 . S
C89 C83 1.505 . S
C89 O101 1.249 . S
C89 O102 1.244 . S
O90 Eu81 2.373 . S
O90 C92 1.258 . S
O91 Eu80 2.392 . S
O91 C92 1.242 . S
C92 O90 1.258 . S
C92 O91 1.242 . S
O93 Eu80 2.418 . S
O93 C97 1.244 . S
O94 Eu81 2.488 . S
O94 C110 1.249 . S
O95 Eu81 2.471 . S
O95 C110 1.244 . S
O96 Eu81 2.349 . S
O96 C97 1.265 . S
C97 O93 1.244 . S
C97 O96 1.265 . S
O98 Eu80 2.373 . S
O98 C111 1.258 . S
O99 Eu81 2.392 . S
O99 C111 1.242 . S
O100 Eu81 2.418 . S
O100 C82 1.244 . S
O101 Eu80 2.488 . S
O101 C89 1.249 . S
O102 Eu80 2.471 . S
O102 C89 1.244 . S
O103 Eu80 2.349 . S
O103 C82 1.265 . S
C104 C105 1.379 . S
C104 C108 1.373 . S
C104 C110 1.505 . S
C105 C104 1.379 . S
C105 C107 1.369 . S
C105 H116 0.930 . S
C106 C108 1.383 . S
C106 C109 1.382 . S
C106 H117 0.930 . S
C107 C105 1.369 . S
C107 C109 1.392 . S
C107 H118 0.930 . S
C108 C104 1.373 . S
C108 C106 1.383 . S
C108 H119 0.931 . S
C109 C106 1.382 . S
C109 C107 1.392 . S
C110 Eu81 2.828 . S
C110 O94 1.249 . S
C110 O95 1.244 . S
C110 C104 1.505 . S
C111 O98 1.258 . S
C111 O99 1.242 . S
H112 C84 0.930 . S
H113 C85 0.930 . S
H114 C86 0.930 . S
H115 C87 0.931 . S
H116 C105 0.930 . S
H117 C106 0.930 . S
H118 C107 0.930 . S
H119 C108 0.931 . S
Eu120 C129 2.828 . S
Eu120 O131 2.392 . S
Eu120 O133 2.418 . S
Eu120 O138 2.373 . S
Eu120 O141 2.488 . S
Eu120 O142 2.471 . S
Eu120 O143 2.349 . S
Eu121 O130 2.373 . S
Eu121 O134 2.488 . S
Eu121 O135 2.471 . S
Eu121 O136 2.349 . S
Eu121 O139 2.392 . S
Eu121 O140 2.418 . S
Eu121 C150 2.828 . S
C122 O140 1.244 . S
C122 O143 1.265 . S
C123 C124 1.379 . S
C123 C127 1.373 . S
C123 C129 1.505 . S
C124 C123 1.379 . S
C124 C126 1.369 . S
C124 H152 0.930 . S
C125 C127 1.383 . S
C125 C128 1.382 . S
C125 H153 0.930 . S
C126 C124 1.369 . S
C126 C128 1.392 . S
C126 H154 0.930 . S
C127 C123 1.373 . S
C127 C125 1.383 . S
C127 H155 0.931 . S
C128 C125 1.382 . S
C128 C126 1.392 . S
C129 Eu120 2.828 . S
C129 C123 1.505 . S
C129 O141 1.249 . S
C129 O142 1.244 . S
O130 Eu121 2.373 . S
O130 C132 1.258 . S
O131 Eu120 2.392 . S
O131 C132 1.242 . S
C132 O130 1.258 . S
C132 O131 1.242 . S
O133 Eu120 2.418 . S
O133 C137 1.244 . S
O134 Eu121 2.488 . S
O134 C150 1.249 . S
O135 Eu121 2.471 . S
O135 C150 1.244 . S
O136 Eu121 2.349 . S
O136 C137 1.265 . S
C137 O133 1.244 . S
C137 O136 1.265 . S
O138 Eu120 2.373 . S
O138 C151 1.258 . S
O139 Eu121 2.392 . S
O139 C151 1.242 . S
O140 Eu121 2.418 . S
O140 C122 1.244 . S
O141 Eu120 2.488 . S
O141 C129 1.249 . S
O142 Eu120 2.471 . S
O142 C129 1.244 . S
O143 Eu120 2.349 . S
O143 C122 1.265 . S
C144 C145 1.379 . S
C144 C148 1.373 . S
C144 C150 1.505 . S
C145 C144 1.379 . S
C145 C147 1.369 1_556 S
C145 H156 0.930 . S
C146 C148 1.383 1_554 S
C146 C149 1.382 . S
C146 H157 0.930 . S
C147 C145 1.369 1_554 S
C147 C149 1.392 . S
C147 H158 0.930 . S
C148 C144 1.373 . S
C148 C146 1.383 1_556 S
C148 H159 0.931 . S
C149 C146 1.382 . S
C149 C147 1.392 . S
C150 Eu121 2.828 . S
C150 O134 1.249 . S
C150 O135 1.244 . S
C150 C144 1.505 . S
C151 O138 1.258 . S
C151 O139 1.242 . S
H152 C124 0.930 . S
H153 C125 0.930 . S
H154 C126 0.930 . S
H155 C127 0.931 . S
H156 C145 0.930 . S
H157 C146 0.930 . S
H158 C147 0.930 . S
H159 C148 0.931 . S
Eu160 C169 2.828 . S
Eu160 O171 2.392 . S
Eu160 O173 2.418 . S
Eu160 O178 2.373 . S
Eu160 O181 2.488 . S
Eu160 O182 2.471 . S
Eu160 O183 2.349 . S
Eu161 O170 2.373 . S
Eu161 O174 2.488 1_455 S
Eu161 O175 2.468 1_455 S
Eu161 O176 2.349 . S
Eu161 O179 2.392 . S
Eu161 O180 2.418 . S
Eu161 C190 2.828 1_455 S
C162 O180 1.244 . S
C162 O183 1.265 . S
C163 C164 1.379 1_556 S
C163 C167 1.373 1_556 S
C163 C169 1.505 . S
C164 C163 1.379 1_554 S
C164 C166 1.369 . S
C164 H192 0.930 . S
C165 C167 1.383 . S
C165 C168 1.382 . S
C165 H193 0.930 . S
C166 C164 1.369 . S
C166 C168 1.392 . S
C166 H194 0.930 . S
C167 C163 1.373 1_554 S
C167 C165 1.383 . S
C167 H195 0.931 1_554 S
C168 C165 1.382 . S
C168 C166 1.392 . S
C169 Eu160 2.828 . S
C169 C163 1.505 . S
C169 O181 1.249 . S
C169 O182 1.244 . S
O170 Eu161 2.373 . S
O170 C172 1.258 . S
O171 Eu160 2.392 . S
O171 C172 1.242 . S
C172 O170 1.258 . S
C172 O171 1.242 . S
O173 Eu160 2.418 . S
O173 C177 1.244 . S
O174 Eu161 2.488 1_655 S
O174 C190 1.249 . S
O175 Eu161 2.468 1_655 S
O175 C190 1.248 . S
O176 Eu161 2.349 . S
O176 C177 1.265 . S
C177 O173 1.244 . S
C177 O176 1.265 . S
O178 Eu160 2.373 . S
O178 C191 1.258 . S
O179 Eu161 2.392 . S
O179 C191 1.242 . S
O180 Eu161 2.418 . S
O180 C162 1.244 . S
O181 Eu160 2.488 . S
O181 C169 1.249 . S
O182 Eu160 2.471 . S
O182 C169 1.244 . S
O183 Eu160 2.349 . S
O183 C162 1.265 . S
C184 C185 1.379 . S
C184 C188 1.373 . S
C184 C190 1.505 . S
C185 C184 1.379 . S
C185 C187 1.369 . S
C185 H196 0.959 . S
C186 C188 1.383 . S
C186 C189 1.382 . S
C186 H197 0.930 . S
C187 C185 1.369 . S
C187 C189 1.392 . S
C187 H198 0.930 . S
C188 C184 1.373 . S
C188 C186 1.383 . S
C188 H199 0.931 . S
C189 C186 1.382 . S
C189 C187 1.392 . S
C190 Eu161 2.828 1_655 S
C190 O174 1.249 . S
C190 O175 1.248 . S
C190 C184 1.505 . S
C191 O178 1.258 . S
C191 O179 1.242 . S
H192 C164 0.930 . S
H193 C165 0.930 . S
H194 C166 0.930 . S
H195 C167 0.931 1_556 S
H196 C185 0.959 . S
H197 C186 0.930 . S
H198 C187 0.930 . S
H199 C188 0.931 . S
Eu200 C209 2.828 . S
Eu200 O211 2.392 . S
Eu200 O213 2.418 . S
Eu200 O218 2.373 . S
Eu200 O221 2.488 . S
Eu200 O222 2.471 . S
Eu200 O223 2.349 . S
Eu201 O210 2.373 . S
Eu201 O214 2.488 . S
Eu201 O215 2.471 . S
Eu201 O216 2.349 . S
Eu201 O219 2.392 . S
Eu201 O220 2.418 . S
Eu201 C230 2.828 . S
C202 O220 1.244 . S
C202 O223 1.265 . S
C203 C204 1.379 . S
C203 C207 1.373 . S
C203 C209 1.505 . S
C204 C203 1.379 . S
C204 C206 1.369 . S
C204 H232 0.930 . S
C205 C207 1.383 . S
C205 C208 1.382 . S
C205 H233 0.930 . S
C206 C204 1.369 . S
C206 C208 1.392 . S
C206 H234 0.930 . S
C207 C203 1.373 . S
C207 C205 1.383 . S
C207 H235 0.931 . S
C208 C205 1.382 . S
C208 C206 1.392 . S
C209 Eu200 2.828 . S
C209 C203 1.505 . S
C209 O221 1.249 . S
C209 O222 1.244 . S
O210 Eu201 2.373 . S
O210 C212 1.258 . S
O211 Eu200 2.392 . S
O211 C212 1.242 . S
C212 O210 1.258 . S
C212 O211 1.242 . S
O213 Eu200 2.418 . S
O213 C217 1.244 . S
O214 Eu201 2.488 . S
O214 C230 1.249 . S
O215 Eu201 2.471 . S
O215 C230 1.244 . S
O216 Eu201 2.349 . S
O216 C217 1.265 . S
C217 O213 1.244 . S
C217 O216 1.265 . S
O218 Eu200 2.373 . S
O218 C231 1.258 . S
O219 Eu201 2.392 . S
O219 C231 1.242 . S
O220 Eu201 2.418 . S
O220 C202 1.244 . S
O221 Eu200 2.488 . S
O221 C209 1.249 . S
O222 Eu200 2.471 . S
O222 C209 1.244 . S
O223 Eu200 2.349 . S
O223 C202 1.265 . S
C224 C225 1.379 . S
C224 C228 1.373 . S
C224 C230 1.505 . S
C225 C224 1.379 . S
C225 C227 1.369 1_554 S
C225 H236 0.930 . S
C226 C228 1.383 1_556 S
C226 C229 1.382 . S
C226 H237 0.930 . S
C227 C225 1.369 1_556 S
C227 C229 1.392 . S
C227 H238 0.930 . S
C228 C224 1.373 . S
C228 C226 1.383 1_554 S
C228 H239 0.931 . S
C229 C226 1.382 . S
C229 C227 1.392 . S
C230 Eu201 2.828 . S
C230 O214 1.249 . S
C230 O215 1.244 . S
C230 C224 1.505 . S
C231 O218 1.258 . S
C231 O219 1.242 . S
H232 C204 0.930 . S
H233 C205 0.930 . S
H234 C206 0.930 . S
H235 C207 0.931 . S
H236 C225 0.930 . S
H237 C226 0.930 . S
H238 C227 0.930 . S
H239 C228 0.931 . S
Eu240 C249 2.828 . S
Eu240 O251 2.392 . S
Eu240 O253 2.418 . S
Eu240 O258 2.373 . S
Eu240 O261 2.488 . S
Eu240 O262 2.471 . S
Eu240 O263 2.349 . S
Eu241 O250 2.373 . S
Eu241 O254 2.488 . S
Eu241 O255 2.471 . S
Eu241 O256 2.349 . S
Eu241 O259 2.392 . S
Eu241 O260 2.418 . S
Eu241 C270 2.828 . S
C242 O260 1.244 . S
C242 O263 1.265 . S
C243 C244 1.379 . S
C243 C247 1.373 . S
C243 C249 1.505 . S
C244 C243 1.379 . S
C244 C246 1.369 . S
C244 H272 0.930 . S
C245 C247 1.383 . S
C245 C248 1.382 . S
C245 H273 0.930 . S
C246 C244 1.369 . S
C246 C248 1.392 . S
C246 H274 0.930 . S
C247 C243 1.373 . S
C247 C245 1.383 . S
C247 H275 0.931 . S
C248 C245 1.382 . S
C248 C246 1.392 . S
C249 Eu240 2.828 . S
C249 C243 1.505 . S
C249 O261 1.249 . S
C249 O262 1.244 . S
O250 Eu241 2.373 . S
O250 C252 1.258 . S
O251 Eu240 2.392 . S
O251 C252 1.242 . S
C252 O250 1.258 . S
C252 O251 1.242 . S
O253 Eu240 2.418 . S
O253 C257 1.244 . S
O254 Eu241 2.488 . S
O254 C270 1.249 . S
O255 Eu241 2.471 . S
O255 C270 1.244 . S
O256 Eu241 2.349 . S
O256 C257 1.265 . S
C257 O253 1.244 . S
C257 O256 1.265 . S
O258 Eu240 2.373 . S
O258 C271 1.258 . S
O259 Eu241 2.392 . S
O259 C271 1.242 . S
O260 Eu241 2.418 . S
O260 C242 1.244 . S
O261 Eu240 2.488 . S
O261 C249 1.249 . S
O262 Eu240 2.471 . S
O262 C249 1.244 . S
O263 Eu240 2.349 . S
O263 C242 1.265 . S
C264 C265 1.379 . S
C264 C268 1.373 . S
C264 C270 1.505 . S
C265 C264 1.379 . S
C265 C267 1.369 . S
C265 H276 0.930 . S
C266 C268 1.383 . S
C266 C269 1.382 . S
C266 H277 0.930 . S
C267 C265 1.369 . S
C267 C269 1.392 . S
C267 H278 0.930 . S
C268 C264 1.373 . S
C268 C266 1.383 . S
C268 H279 0.931 . S
C269 C266 1.382 . S
C269 C267 1.392 . S
C270 Eu241 2.828 . S
C270 O254 1.249 . S
C270 O255 1.244 . S
C270 C264 1.505 . S
C271 O258 1.258 . S
C271 O259 1.242 . S
H272 C244 0.930 . S
H273 C245 0.930 . S
H274 C246 0.930 . S
H275 C247 0.931 . S
H276 C265 0.930 . S
H277 C266 0.930 . S
H278 C267 0.930 . S
H279 C268 0.931 . S
Eu280 C289 2.828 . S
Eu280 O291 2.392 . S
Eu280 O293 2.418 . S
Eu280 O298 2.373 . S
Eu280 O301 2.488 . S
Eu280 O302 2.471 . S
Eu280 O303 2.349 . S
Eu281 O290 2.373 . S
Eu281 O294 2.488 . S
Eu281 O295 2.471 . S
Eu281 O296 2.349 . S
Eu281 O299 2.392 . S
Eu281 O300 2.418 . S
Eu281 C310 2.828 . S
C282 O300 1.244 . S
C282 O303 1.265 . S
C283 C284 1.379 . S
C283 C287 1.373 . S
C283 C289 1.505 . S
C284 C283 1.379 . S
C284 C286 1.369 . S
C284 H312 0.930 . S
C285 C287 1.383 . S
C285 C288 1.382 . S
C285 H313 0.930 . S
C286 C284 1.369 . S
C286 C288 1.392 . S
C286 H314 0.930 . S
C287 C283 1.373 . S
C287 C285 1.383 . S
C287 H315 0.931 . S
C288 C285 1.382 . S
C288 C286 1.392 . S
C289 Eu280 2.828 . S
C289 C283 1.505 . S
C289 O301 1.249 . S
C289 O302 1.244 . S
O290 Eu281 2.373 . S
O290 C292 1.258 . S
O291 Eu280 2.392 . S
O291 C292 1.242 . S
C292 O290 1.258 . S
C292 O291 1.242 . S
O293 Eu280 2.418 . S
O293 C297 1.244 . S
O294 Eu281 2.488 . S
O294 C310 1.249 . S
O295 Eu281 2.471 . S
O295 C310 1.244 . S
O296 Eu281 2.349 . S
O296 C297 1.265 . S
C297 O293 1.244 . S
C297 O296 1.265 . S
O298 Eu280 2.373 . S
O298 C311 1.258 . S
O299 Eu281 2.392 . S
O299 C311 1.242 . S
O300 Eu281 2.418 . S
O300 C282 1.244 . S
O301 Eu280 2.488 . S
O301 C289 1.249 . S
O302 Eu280 2.471 . S
O302 C289 1.244 . S
O303 Eu280 2.349 . S
O303 C282 1.265 . S
C304 C305 1.379 . S
C304 C308 1.373 . S
C304 C310 1.505 . S
C305 C304 1.379 . S
C305 C307 1.369 . S
C305 H316 0.930 . S
C306 C308 1.383 . S
C306 C309 1.382 . S
C306 H317 0.930 . S
C307 C305 1.369 . S
C307 C309 1.392 . S
C307 H318 0.930 . S
C308 C304 1.373 . S
C308 C306 1.383 . S
C308 H319 0.931 . S
C309 C306 1.382 . S
C309 C307 1.392 . S
C310 Eu281 2.828 . S
C310 O294 1.249 . S
C310 O295 1.244 . S
C310 C304 1.505 . S
C311 O298 1.258 . S
C311 O299 1.242 . S
H312 C284 0.930 . S
H313 C285 0.930 . S
H314 C286 0.930 . S
H315 C287 0.931 . S
H316 C305 0.930 . S
H317 C306 0.930 . S
H318 C307 0.930 . S
H319 C308 0.931 . S
Eu320 C329 2.828 . S
Eu320 O331 2.392 . S
Eu320 O333 2.418 . S
Eu320 O338 2.373 . S
Eu320 O341 2.488 . S
Eu320 O342 2.471 . S
Eu320 O343 2.349 . S
Eu321 O330 2.373 . S
Eu321 O334 2.488 . S
Eu321 O335 2.471 . S
Eu321 O336 2.349 . S
Eu321 O339 2.392 . S
Eu321 O340 2.418 . S
Eu321 C350 2.828 . S
C322 O340 1.244 . S
C322 O343 1.265 . S
C323 C324 1.379 . S
C323 C327 1.373 . S
C323 C329 1.505 . S
C324 C323 1.379 . S
C324 C326 1.369 . S
C324 H352 0.930 . S
C325 C327 1.383 . S
C325 C328 1.382 . S
C325 H353 0.930 . S
C326 C324 1.369 . S
C326 C328 1.392 . S
C326 H354 0.930 . S
C327 C323 1.373 . S
C327 C325 1.383 . S
C327 H355 0.931 . S
C328 C325 1.382 . S
C328 C326 1.392 . S
C329 Eu320 2.828 . S
C329 C323 1.505 . S
C329 O341 1.249 . S
C329 O342 1.244 . S
O330 Eu321 2.373 . S
O330 C332 1.258 . S
O331 Eu320 2.392 . S
O331 C332 1.242 . S
C332 O330 1.258 . S
C332 O331 1.242 . S
O333 Eu320 2.418 . S
O333 C337 1.244 . S
O334 Eu321 2.488 . S
O334 C350 1.249 . S
O335 Eu321 2.471 . S
O335 C350 1.244 . S
O336 Eu321 2.349 . S
O336 C337 1.265 . S
C337 O333 1.244 . S
C337 O336 1.265 . S
O338 Eu320 2.373 . S
O338 C351 1.258 . S
O339 Eu321 2.392 . S
O339 C351 1.242 . S
O340 Eu321 2.418 . S
O340 C322 1.244 . S
O341 Eu320 2.488 . S
O341 C329 1.249 . S
O342 Eu320 2.471 . S
O342 C329 1.244 . S
O343 Eu320 2.349 . S
O343 C322 1.265 . S
C344 C345 1.379 . S
C344 C348 1.373 . S
C344 C350 1.505 . S
C345 C344 1.379 . S
C345 C347 1.369 . S
C345 H356 0.930 . S
C346 C348 1.383 . S
C346 C349 1.382 . S
C346 H357 0.930 . S
C347 C345 1.369 . S
C347 C349 1.392 . S
C347 H358 0.930 . S
C348 C344 1.373 . S
C348 C346 1.383 . S
C348 H359 0.931 . S
C349 C346 1.382 . S
C349 C347 1.392 . S
C350 Eu321 2.828 . S
C350 O334 1.249 . S
C350 O335 1.244 . S
C350 C344 1.505 . S
C351 O338 1.258 . S
C351 O339 1.242 . S
H352 C324 0.930 . S
H353 C325 0.930 . S
H354 C326 0.930 . S
H355 C327 0.931 . S
H356 C345 0.930 . S
H357 C346 0.930 . S
H358 C347 0.930 . S
H359 C348 0.931 . S
Eu360 C369 2.828 . S
Eu360 O371 2.392 . S
Eu360 O373 2.418 . S
Eu360 O378 2.373 . S
Eu360 O381 2.488 . S
Eu360 O382 2.471 . S
Eu360 O383 2.349 . S
Eu361 O370 2.373 . S
Eu361 O374 2.488 . S
Eu361 O375 2.471 . S
Eu361 O376 2.349 . S
Eu361 O379 2.392 . S
Eu361 O380 2.418 . S
Eu361 C390 2.828 . S
C362 O380 1.244 . S
C362 O383 1.265 . S
C363 C364 1.379 . S
C363 C367 1.373 . S
C363 C369 1.505 . S
C364 C363 1.379 . S
C364 C366 1.369 . S
C364 H392 0.930 . S
C365 C367 1.383 . S
C365 C368 1.382 . S
C365 H393 0.930 . S
C366 C364 1.369 . S
C366 C368 1.392 . S
C366 H394 0.930 . S
C367 C363 1.373 . S
C367 C365 1.383 . S
C367 H395 0.931 . S
C368 C365 1.382 . S
C368 C366 1.392 . S
C369 Eu360 2.828 . S
C369 C363 1.505 . S
C369 O381 1.249 . S
C369 O382 1.244 . S
O370 Eu361 2.373 . S
O370 C372 1.258 . S
O371 Eu360 2.392 . S
O371 C372 1.242 . S
C372 O370 1.258 . S
C372 O371 1.242 . S
O373 Eu360 2.418 . S
O373 C377 1.244 . S
O374 Eu361 2.488 . S
O374 C390 1.249 . S
O375 Eu361 2.471 . S
O375 C390 1.244 . S
O376 Eu361 2.349 . S
O376 C377 1.265 . S
C377 O373 1.244 . S
C377 O376 1.265 . S
O378 Eu360 2.373 . S
O378 C391 1.258 . S
O379 Eu361 2.392 . S
O379 C391 1.242 . S
O380 Eu361 2.418 . S
O380 C362 1.244 . S
O381 Eu360 2.488 . S
O381 C369 1.249 . S
O382 Eu360 2.471 . S
O382 C369 1.244 . S
O383 Eu360 2.349 . S
O383 C362 1.265 . S
C384 C385 1.379 . S
C384 C388 1.373 . S
C384 C390 1.505 . S
C385 C384 1.379 . S
C385 C387 1.369 1_554 S
C385 H396 0.930 . S
C386 C388 1.383 1_556 S
C386 C389 1.382 . S
C386 H397 0.930 . S
C387 C385 1.369 1_556 S
C387 C389 1.392 . S
C387 H398 0.930 . S
C388 C384 1.373 . S
C388 C386 1.383 1_554 S
C388 H399 0.931 . S
C389 C386 1.382 . S
C389 C387 1.392 . S
C390 Eu361 2.828 . S
C390 O374 1.249 . S
C390 O375 1.244 . S
C390 C384 1.505 . S
C391 O378 1.258 . S
C391 O379 1.242 . S
H392 C364 0.930 . S
H393 C365 0.930 . S
H394 C366 0.930 . S
H395 C367 0.931 . S
H396 C385 0.930 . S
H397 C386 0.930 . S
H398 C387 0.930 . S
H399 C388 0.931 . S
Eu400 C409 2.828 . S
Eu400 O411 2.392 . S
Eu400 O413 2.418 . S
Eu400 O418 2.373 . S
Eu400 O421 2.488 . S
Eu400 O422 2.471 . S
Eu400 O423 2.349 . S
Eu401 O410 2.373 . S
Eu401 O414 2.488 . S
Eu401 O415 2.471 . S
Eu401 O416 2.349 . S
Eu401 O419 2.392 . S
Eu401 O420 2.418 . S
Eu401 C430 2.828 . S
C402 O420 1.244 . S
C402 O423 1.265 . S
C403 C404 1.379 . S
C403 C407 1.373 . S
C403 C409 1.505 . S
C404 C403 1.379 . S
C404 C406 1.369 . S
C404 H432 0.930 . S
C405 C407 1.383 . S
C405 C408 1.382 . S
C405 H433 0.930 . S
C406 C404 1.369 . S
C406 C408 1.392 . S
C406 H434 0.930 . S
C407 C403 1.373 . S
C407 C405 1.383 . S
C407 H435 0.931 . S
C408 C405 1.382 . S
C408 C406 1.392 . S
C409 Eu400 2.828 . S
C409 C403 1.505 . S
C409 O421 1.249 . S
C409 O422 1.244 . S
O410 Eu401 2.373 . S
O410 C412 1.258 . S
O411 Eu400 2.392 . S
O411 C412 1.242 . S
C412 O410 1.258 . S
C412 O411 1.242 . S
O413 Eu400 2.418 . S
O413 C417 1.244 . S
O414 Eu401 2.488 . S
O414 C430 1.249 . S
O415 Eu401 2.471 . S
O415 C430 1.244 . S
O416 Eu401 2.349 . S
O416 C417 1.265 . S
C417 O413 1.244 . S
C417 O416 1.265 . S
O418 Eu400 2.373 . S
O418 C431 1.258 . S
O419 Eu401 2.392 . S
O419 C431 1.242 . S
O420 Eu401 2.418 . S
O420 C402 1.244 . S
O421 Eu400 2.488 . S
O421 C409 1.249 . S
O422 Eu400 2.471 . S
O422 C409 1.244 . S
O423 Eu400 2.349 . S
O423 C402 1.265 . S
C424 C425 1.379 . S
C424 C428 1.373 . S
C424 C430 1.505 . S
C425 C424 1.379 . S
C425 C427 1.369 1_556 S
C425 H436 0.930 . S
C426 C428 1.383 1_554 S
C426 C429 1.382 . S
C426 H437 0.930 . S
C427 C425 1.369 1_554 S
C427 C429 1.392 . S
C427 H438 0.930 . S
C428 C424 1.373 . S
C428 C426 1.383 1_556 S
C428 H439 0.931 . S
C429 C426 1.382 . S
C429 C427 1.392 . S
C430 Eu401 2.828 . S
C430 O414 1.249 . S
C430 O415 1.244 . S
C430 C424 1.505 . S
C431 O418 1.258 . S
C431 O419 1.242 . S
H432 C404 0.930 . S
H433 C405 0.930 . S
H434 C406 0.930 . S
H435 C407 0.931 . S
H436 C425 0.930 . S
H437 C426 0.930 . S
H438 C427 0.930 . S
H439 C428 0.931 . S
Eu440 C449 2.828 . S
Eu440 O451 2.392 . S
Eu440 O453 2.418 . S
Eu440 O458 2.373 . S
Eu440 O461 2.488 . S
Eu440 O462 2.471 . S
Eu440 O463 2.349 . S
Eu441 O450 2.373 . S
Eu441 O454 2.488 . S
Eu441 O455 2.471 . S
Eu441 O456 2.349 . S
Eu441 O459 2.392 . S
Eu441 O460 2.418 . S
Eu441 C470 2.828 . S
C442 O460 1.244 . S
C442 O463 1.265 . S
C443 C444 1.379 . S
C443 C447 1.373 . S
C443 C449 1.505 . S
C444 C443 1.379 . S
C444 C446 1.369 . S
C444 H472 0.930 . S
C445 C447 1.383 . S
C445 C448 1.382 . S
C445 H473 0.930 . S
C446 C444 1.369 . S
C446 C448 1.392 . S
C446 H474 0.930 . S
C447 C443 1.373 . S
C447 C445 1.383 . S
C447 H475 0.931 . S
C448 C445 1.382 . S
C448 C446 1.392 . S
C449 Eu440 2.828 . S
C449 C443 1.505 . S
C449 O461 1.249 . S
C449 O462 1.244 . S
O450 Eu441 2.373 . S
O450 C452 1.258 . S
O451 Eu440 2.392 . S
O451 C452 1.242 . S
C452 O450 1.258 . S
C452 O451 1.242 . S
O453 Eu440 2.418 . S
O453 C457 1.244 . S
O454 Eu441 2.488 . S
O454 C470 1.249 . S
O455 Eu441 2.471 . S
O455 C470 1.244 . S
O456 Eu441 2.349 . S
O456 C457 1.265 . S
C457 O453 1.244 . S
C457 O456 1.265 . S
O458 Eu440 2.373 . S
O458 C471 1.258 . S
O459 Eu441 2.392 . S
O459 C471 1.242 . S
O460 Eu441 2.418 . S
O460 C442 1.244 . S
O461 Eu440 2.488 . S
O461 C449 1.249 . S
O462 Eu440 2.471 . S
O462 C449 1.244 . S
O463 Eu440 2.349 . S
O463 C442 1.265 . S
C464 C465 1.379 . S
C464 C468 1.373 . S
C464 C470 1.505 . S
C465 C464 1.379 . S
C465 C467 1.369 . S
C465 H476 0.930 . S
C466 C468 1.383 . S
C466 C469 1.382 . S
C466 H477 0.930 . S
C467 C465 1.369 . S
C467 C469 1.392 . S
C467 H478 0.930 . S
C468 C464 1.373 . S
C468 C466 1.383 . S
C468 H479 0.931 . S
C469 C466 1.382 . S
C469 C467 1.392 . S
C470 Eu441 2.828 . S
C470 O454 1.249 . S
C470 O455 1.244 . S
C470 C464 1.505 . S
C471 O458 1.258 . S
C471 O459 1.242 . S
H472 C444 0.930 . S
H473 C445 0.930 . S
H474 C446 0.930 . S
H475 C447 0.931 . S
H476 C465 0.930 . S
H477 C466 0.930 . S
H478 C467 0.930 . S
H479 C468 0.931 . S
Eu480 C489 2.828 . S
Eu480 O491 2.392 . S
Eu480 O493 2.418 . S
Eu480 O498 2.373 . S
Eu480 O501 2.488 . S
Eu480 O502 2.471 . S
Eu480 O503 2.349 . S
Eu481 O490 2.373 . S
Eu481 O494 2.488 . S
Eu481 O495 2.471 . S
Eu481 O496 2.349 . S
Eu481 O499 2.392 . S
Eu481 O500 2.418 . S
Eu481 C510 2.828 . S
C482 O500 1.244 . S
C482 O503 1.265 . S
C483 C484 1.379 . S
C483 C487 1.373 . S
C483 C489 1.505 . S
C484 C483 1.379 . S
C484 C486 1.369 . S
C484 H512 0.930 . S
C485 C487 1.383 . S
C485 C488 1.382 . S
C485 H513 0.930 . S
C486 C484 1.369 . S
C486 C488 1.392 . S
C486 H514 0.930 . S
C487 C483 1.373 . S
C487 C485 1.383 . S
C487 H515 0.931 . S
C488 C485 1.382 . S
C488 C486 1.392 . S
C489 Eu480 2.828 . S
C489 C483 1.505 . S
C489 O501 1.249 . S
C489 O502 1.244 . S
O490 Eu481 2.373 . S
O490 C492 1.258 . S
O491 Eu480 2.392 . S
O491 C492 1.242 . S
C492 O490 1.258 . S
C492 O491 1.242 . S
O493 Eu480 2.418 . S
O493 C497 1.244 . S
O494 Eu481 2.488 . S
O494 C510 1.249 . S
O495 Eu481 2.471 . S
O495 C510 1.244 . S
O496 Eu481 2.349 . S
O496 C497 1.265 . S
C497 O493 1.244 . S
C497 O496 1.265 . S
O498 Eu480 2.373 . S
O498 C511 1.258 . S
O499 Eu481 2.392 . S
O499 C511 1.242 . S
O500 Eu481 2.418 . S
O500 C482 1.244 . S
O501 Eu480 2.488 . S
O501 C489 1.249 . S
O502 Eu480 2.471 . S
O502 C489 1.244 . S
O503 Eu480 2.349 . S
O503 C482 1.265 . S
C504 C505 1.379 . S
C504 C508 1.373 . S
C504 C510 1.505 . S
C505 C504 1.379 . S
C505 C507 1.369 . S
C505 H516 0.930 . S
C506 C508 1.383 . S
C506 C509 1.382 . S
C506 H517 0.930 . S
C507 C505 1.369 . S
C507 C509 1.392 . S
C507 H518 0.930 . S
C508 C504 1.373 . S
C508 C506 1.383 . S
C508 H519 0.931 . S
C509 C506 1.382 . S
C509 C507 1.392 . S
C510 Eu481 2.828 . S
C510 O494 1.249 . S
C510 O495 1.244 . S
C510 C504 1.505 . S
C511 O498 1.258 . S
C511 O499 1.242 . S
H512 C484 0.930 . S
H513 C485 0.930 . S
H514 C486 0.930 . S
H515 C487 0.931 . S
H516 C505 0.930 . S
H517 C506 0.930 . S
H518 C507 0.930 . S
H519 C508 0.931 . S
Eu520 C529 2.828 . S
Eu520 O531 2.392 . S
Eu520 O533 2.418 . S
Eu520 O538 2.373 1_655 S
Eu520 O541 2.488 . S
Eu520 O542 2.471 . S
Eu520 O543 2.349 1_655 S
Eu521 O530 2.373 . S
Eu521 O534 2.488 . S
Eu521 O535 2.471 . S
Eu521 O536 2.349 . S
Eu521 O539 2.392 . S
Eu521 O540 2.418 . S
Eu521 C550 2.828 . S
C522 O540 1.244 . S
C522 O543 1.265 . S
C523 C524 1.379 1_554 S
C523 C527 1.373 1_554 S
C523 C529 1.505 . S
C524 C523 1.379 1_556 S
C524 C526 1.369 . S
C524 H552 0.930 . S
C525 C527 1.383 . S
C525 C528 1.382 . S
C525 H553 0.930 . S
C526 C524 1.369 . S
C526 C528 1.392 . S
C526 H554 0.930 . S
C527 C523 1.373 1_556 S
C527 C525 1.383 . S
C527 H555 0.931 1_556 S
C528 C525 1.382 . S
C528 C526 1.392 . S
C529 Eu520 2.828 . S
C529 C523 1.505 . S
C529 O541 1.249 . S
C529 O542 1.244 . S
O530 Eu521 2.373 . S
O530 C532 1.258 1_455 S
O531 Eu520 2.392 . S
O531 C532 1.242 . S
C532 O530 1.258 1_655 S
C532 O531 1.242 . S
O533 Eu520 2.418 . S
O533 C537 1.244 1_655 S
O534 Eu521 2.488 . S
O534 C550 1.249 . S
O535 Eu521 2.471 . S
O535 C550 1.244 . S
O536 Eu521 2.349 . S
O536 C537 1.265 . S
C537 O533 1.244 1_455 S
C537 O536 1.265 . S
O538 Eu520 2.373 1_455 S
O538 C551 1.258 . S
O539 Eu521 2.392 . S
O539 C551 1.242 . S
O540 Eu521 2.418 . S
O540 C522 1.244 . S
O541 Eu520 2.488 . S
O541 C529 1.249 . S
O542 Eu520 2.471 . S
O542 C529 1.244 . S
O543 Eu520 2.349 1_455 S
O543 C522 1.265 . S
C544 C545 1.379 . S
C544 C548 1.373 . S
C544 C550 1.505 . S
C545 C544 1.379 . S
C545 C547 1.369 . S
C545 H556 0.930 . S
C546 C548 1.383 . S
C546 C549 1.382 . S
C546 H557 0.930 . S
C547 C545 1.369 . S
C547 C549 1.392 . S
C547 H558 0.930 . S
C548 C544 1.373 . S
C548 C546 1.383 . S
C548 H559 0.931 . S
C549 C546 1.382 . S
C549 C547 1.392 . S
C550 Eu521 2.828 . S
C550 O534 1.249 . S
C550 O535 1.244 . S
C550 C544 1.505 . S
C551 O538 1.258 . S
C551 O539 1.242 . S
H552 C524 0.930 . S
H553 C525 0.930 . S
H554 C526 0.930 . S
H555 C527 0.931 1_554 S
H556 C545 0.930 . S
H557 C546 0.930 . S
H558 C547 0.930 . S
H559 C548 0.931 . S
Eu560 C569 2.828 . S
Eu560 O571 2.392 . S
Eu560 O573 2.418 . S
Eu560 O578 2.373 . S
Eu560 O581 2.488 . S
Eu560 O582 2.471 . S
Eu560 O583 2.349 . S
Eu561 O570 2.373 . S
Eu561 O574 2.488 . S
Eu561 O575 2.471 . S
Eu561 O576 2.349 . S
Eu561 O579 2.392 . S
Eu561 O580 2.418 . S
Eu561 C590 2.828 . S
C562 O580 1.244 . S
C562 O583 1.265 . S
C563 C564 1.379 . S
C563 C567 1.373 . S
C563 C569 1.505 . S
C564 C563 1.379 . S
C564 C566 1.369 . S
C564 H592 0.930 . S
C565 C567 1.383 . S
C565 C568 1.382 . S
C565 H593 0.930 . S
C566 C564 1.369 . S
C566 C568 1.392 . S
C566 H594 0.930 . S
C567 C563 1.373 . S
C567 C565 1.383 . S
C567 H595 0.931 . S
C568 C565 1.382 . S
C568 C566 1.392 . S
C569 Eu560 2.828 . S
C569 C563 1.505 . S
C569 O581 1.249 . S
C569 O582 1.244 . S
O570 Eu561 2.373 . S
O570 C572 1.258 . S
O571 Eu560 2.392 . S
O571 C572 1.242 . S
C572 O570 1.258 . S
C572 O571 1.242 . S
O573 Eu560 2.418 . S
O573 C577 1.244 . S
O574 Eu561 2.488 . S
O574 C590 1.249 . S
O575 Eu561 2.471 . S
O575 C590 1.244 . S
O576 Eu561 2.349 . S
O576 C577 1.265 . S
C577 O573 1.244 . S
C577 O576 1.265 . S
O578 Eu560 2.373 . S
O578 C591 1.258 . S
O579 Eu561 2.392 . S
O579 C591 1.242 . S
O580 Eu561 2.418 . S
O580 C562 1.244 . S
O581 Eu560 2.488 . S
O581 C569 1.249 . S
O582 Eu560 2.471 . S
O582 C569 1.244 . S
O583 Eu560 2.349 . S
O583 C562 1.265 . S
C584 C585 1.379 . S
C584 C588 1.373 . S
C584 C590 1.505 . S
C585 C584 1.379 . S
C585 C587 1.369 . S
C585 H596 0.930 . S
C586 C588 1.383 . S
C586 C589 1.382 . S
C586 H597 0.930 . S
C587 C585 1.369 . S
C587 C589 1.392 . S
C587 H598 0.930 . S
C588 C584 1.373 . S
C588 C586 1.383 . S
C588 H599 0.931 . S
C589 C586 1.382 . S
C589 C587 1.392 . S
C590 Eu561 2.828 . S
C590 O574 1.249 . S
C590 O575 1.244 . S
C590 C584 1.505 . S
C591 O578 1.258 . S
C591 O579 1.242 . S
H592 C564 0.930 . S
H593 C565 0.930 . S
H594 C566 0.930 . S
H595 C567 0.931 . S
H596 C585 0.930 . S
H597 C586 0.930 . S
H598 C587 0.930 . S
H599 C588 0.931 . S
Eu600 C609 2.828 . S
Eu600 O611 2.392 . S
Eu600 O613 2.418 . S
Eu600 O618 2.373 1_655 S
Eu600 O621 2.488 . S
Eu600 O622 2.471 . S
Eu600 O623 2.349 1_655 S
Eu601 O610 2.373 . S
Eu601 O614 2.488 . S
Eu601 O615 2.471 . S
Eu601 O616 2.349 . S
Eu601 O619 2.392 . S
Eu601 O620 2.418 . S
Eu601 C630 2.828 . S
C602 O620 1.244 . S
C602 O623 1.265 . S
C603 C604 1.379 1_556 S
C603 C607 1.373 1_556 S
C603 C609 1.505 . S
C604 C603 1.379 1_554 S
C604 C606 1.369 . S
C604 H632 0.930 . S
C605 C607 1.383 . S
C605 C608 1.382 . S
C605 H633 0.930 . S
C606 C604 1.369 . S
C606 C608 1.392 . S
C606 H634 0.930 . S
C607 C603 1.373 1_554 S
C607 C605 1.383 . S
C607 H635 0.931 1_554 S
C608 C605 1.382 . S
C608 C606 1.392 . S
C609 Eu600 2.828 . S
C609 C603 1.505 . S
C609 O621 1.249 . S
C609 O622 1.244 . S
O610 Eu601 2.373 . S
O610 C612 1.258 1_455 S
O611 Eu600 2.392 . S
O611 C612 1.242 . S
C612 O610 1.258 1_655 S
C612 O611 1.242 . S
O613 Eu600 2.418 . S
O613 C617 1.244 1_655 S
O614 Eu601 2.488 . S
O614 C630 1.249 . S
O615 Eu601 2.471 . S
O615 C630 1.244 . S
O616 Eu601 2.349 . S
O616 C617 1.265 . S
C617 O613 1.244 1_455 S
C617 O616 1.265 . S
O618 Eu600 2.373 1_455 S
O618 C631 1.258 . S
O619 Eu601 2.392 . S
O619 C631 1.242 . S
O620 Eu601 2.418 . S
O620 C602 1.244 . S
O621 Eu600 2.488 . S
O621 C609 1.249 . S
O622 Eu600 2.471 . S
O622 C609 1.244 . S
O623 Eu600 2.349 1_455 S
O623 C602 1.265 . S
C624 C625 1.379 . S
C624 C628 1.373 . S
C624 C630 1.505 . S
C625 C624 1.379 . S
C625 C627 1.369 . S
C625 H636 0.930 . S
C626 C628 1.383 . S
C626 C629 1.382 . S
C626 H637 0.930 . S
C627 C625 1.369 . S
C627 C629 1.392 . S
C627 H638 0.930 . S
C628 C624 1.373 . S
C628 C626 1.383 . S
C628 H639 0.931 . S
C629 C626 1.382 . S
C629 C627 1.392 . S
C630 Eu601 2.828 . S
C630 O614 1.249 . S
C630 O615 1.244 . S
C630 C624 1.505 . S
C631 O618 1.258 . S
C631 O619 1.242 . S
H632 C604 0.930 . S
H633 C605 0.930 . S
H634 C606 0.930 . S
H635 C607 0.931 1_556 S
H636 C625 0.930 . S
H637 C626 0.930 . S
H638 C627 0.930 . S
H639 C628 0.931 . S
C640 C641 1.349 . S
C640 C642 1.327 . S
C640 H665 0.953 . S
C641 C640 1.349 . S
C641 C657 1.349 . S
C642 C640 1.327 . S
C642 C661 1.429 . S
C642 H666 0.950 . S
C643 C660 1.574 . S
C643 C662 1.368 . S
C643 H667 0.949 . S
H644 C648 0.949 . S
C645 C646 1.349 . S
C645 C647 1.327 . S
C645 H668 0.950 . S
C646 C645 1.349 . S
C646 C658 1.349 . S
C647 C645 1.327 . S
C647 C663 1.429 . S
C647 H669 0.950 . S
C648 H644 0.949 . S
C648 C656 1.574 . S
C648 C664 1.368 . S
H649 C657 0.950 . S
H650 C655 0.950 . S
H651 C656 0.949 . S
H652 C658 0.950 . S
H653 C659 0.950 . S
H654 C660 0.949 . S
C655 H650 0.950 . S
C655 C657 1.327 . S
C655 C661 1.429 . S
C656 C648 1.574 . S
C656 H651 0.949 . S
C656 C662 1.368 . S
C657 C641 1.349 . S
C657 H649 0.950 . S
C657 C655 1.327 . S
C658 C646 1.349 . S
C658 H652 0.950 . S
C658 C659 1.327 . S
C659 H653 0.950 . S
C659 C658 1.327 . S
C659 C663 1.429 . S
C660 C643 1.574 . S
C660 H654 0.949 . S
C660 C664 1.368 . S
C661 C642 1.429 . S
C661 C655 1.429 . S
C661 C662 1.523 . S
C662 C643 1.368 . S
C662 C656 1.368 . S
C662 C661 1.523 . S
C663 C647 1.429 . S
C663 C659 1.429 . S
C663 C664 1.523 . S
C664 C648 1.368 . S
C664 C660 1.368 . S
C664 C663 1.523 . S
H665 C640 0.953 . S
H666 C642 0.950 . S
H667 C643 0.949 . S
H668 C645 0.950 . S
H669 C647 0.950 . S
C670 C671 1.349 . S
C670 C672 1.327 . S
C670 H695 0.950 . S
C671 C670 1.349 . S
C671 C687 1.349 . S
C672 C670 1.327 . S
C672 C691 1.429 . S
C672 H696 0.950 . S
C673 C690 1.574 . S
C673 C692 1.368 . S
C673 H697 0.949 . S
H674 C678 0.949 . S
C675 C676 1.349 . S
C675 C677 1.327 . S
C675 H698 0.950 . S
C676 C675 1.349 . S
C676 C688 1.349 . S
C677 C675 1.327 . S
C677 C693 1.429 . S
C677 H699 0.950 . S
C678 H674 0.949 . S
C678 C686 1.574 . S
C678 C694 1.368 . S
H679 C687 0.950 . S
H680 C685 0.950 . S
H681 C686 0.949 . S
H682 C688 0.950 . S
H683 C689 0.950 . S
H684 C690 0.949 . S
C685 H680 0.950 . S
C685 C687 1.327 . S
C685 C691 1.429 . S
C686 C678 1.574 . S
C686 H681 0.949 . S
C686 C692 1.368 . S
C687 C671 1.349 . S
C687 H679 0.950 . S
C687 C685 1.327 . S
C688 C676 1.349 . S
C688 H682 0.950 . S
C688 C689 1.327 . S
C689 H683 0.950 . S
C689 C688 1.327 . S
C689 C693 1.429 . S
C690 C673 1.574 . S
C690 H684 0.949 . S
C690 C694 1.368 . S
C691 C672 1.429 . S
C691 C685 1.429 . S
C691 C692 1.523 . S
C692 C673 1.368 . S
C692 C686 1.368 . S
C692 C691 1.523 . S
C693 C677 1.429 . S
C693 C689 1.429 . S
C693 C694 1.523 . S
C694 C678 1.368 . S
C694 C690 1.368 . S
C694 C693 1.523 . S
H695 C670 0.950 . S
H696 C672 0.950 . S
H697 C673 0.949 . S
H698 C675 0.950 . S
H699 C677 0.950 . S
C700 C701 1.349 . S
C700 C702 1.327 . S
C700 H725 0.950 . S
C701 C700 1.349 . S
C701 C717 1.349 . S
C702 C700 1.327 . S
C702 C721 1.429 . S
C702 H726 0.950 . S
C703 C720 1.574 . S
C703 C722 1.368 . S
C703 H727 0.949 . S
H704 C708 0.949 . S
C705 C706 1.349 . S
C705 C707 1.327 . S
C705 H728 0.950 . S
C706 C705 1.349 . S
C706 C718 1.349 . S
C707 C705 1.327 . S
C707 C723 1.429 . S
C707 H729 0.950 . S
C708 H704 0.949 . S
C708 C716 1.574 . S
C708 C724 1.368 . S
H709 C717 0.950 . S
H710 C715 0.950 . S
H711 C716 0.949 . S
H712 C718 0.950 . S
H713 C719 0.950 . S
H714 C720 0.949 . S
C715 H710 0.950 . S
C715 C717 1.327 . S
C715 C721 1.429 . S
C716 C708 1.574 . S
C716 H711 0.949 . S
C716 C722 1.368 . S
C717 C701 1.349 . S
C717 H709 0.950 . S
C717 C715 1.327 . S
C718 C706 1.349 . S
C718 H712 0.950 . S
C718 C719 1.327 . S
C719 H713 0.950 . S
C719 C718 1.327 . S
C719 C723 1.429 . S
C720 C703 1.574 . S
C720 H714 0.949 . S
C720 C724 1.368 . S
C721 C702 1.429 . S
C721 C715 1.429 . S
C721 C722 1.523 . S
C722 C703 1.368 . S
C722 C716 1.368 . S
C722 C721 1.523 . S
C723 C707 1.429 . S
C723 C719 1.429 . S
C723 C724 1.523 . S
C724 C708 1.368 . S
C724 C720 1.368 . S
C724 C723 1.523 . S
H725 C700 0.950 . S
H726 C702 0.950 . S
H727 C703 0.949 . S
H728 C705 0.950 . S
H729 C707 0.950 . S
C730 C731 1.349 . S
C730 C732 1.327 . S
C730 H755 0.950 . S
C731 C730 1.349 . S
C731 C747 1.349 . S
C732 C730 1.327 . S
C732 C751 1.429 . S
C732 H756 0.950 . S
C733 C750 1.574 . S
C733 C752 1.368 . S
C733 H757 0.949 . S
H734 C738 0.949 . S
C735 C736 1.349 . S
C735 C737 1.327 . S
C735 H758 0.950 . S
C736 C735 1.349 . S
C736 C748 1.349 . S
C737 C735 1.327 . S
C737 C753 1.429 . S
C737 H759 0.950 . S
C738 H734 0.949 . S
C738 C746 1.574 . S
C738 C754 1.368 . S
H739 C747 0.950 . S
H740 C745 0.950 . S
H741 C746 0.949 . S
H742 C748 0.950 . S
H743 C749 0.950 . S
H744 C750 0.949 . S
C745 H740 0.950 . S
C745 C747 1.327 . S
C745 C751 1.429 . S
C746 C738 1.574 . S
C746 H741 0.949 . S
C746 C752 1.368 . S
C747 C731 1.349 . S
C747 H739 0.950 . S
C747 C745 1.327 . S
C748 C736 1.349 . S
C748 H742 0.950 . S
C748 C749 1.327 . S
C749 H743 0.950 . S
C749 C748 1.327 . S
C749 C753 1.429 . S
C750 C733 1.574 . S
C750 H744 0.949 . S
C750 C754 1.368 . S
C751 C732 1.429 . S
C751 C745 1.429 . S
C751 C752 1.523 . S
C752 C733 1.368 . S
C752 C746 1.368 . S
C752 C751 1.523 . S
C753 C737 1.429 . S
C753 C749 1.429 . S
C753 C754 1.523 . S
C754 C738 1.368 . S
C754 C750 1.368 . S
C754 C753 1.523 . S
H755 C730 0.950 . S
H756 C732 0.950 . S
H757 C733 0.949 . S
H758 C735 0.950 . S
H759 C737 0.950 . S
C760 C761 1.349 . S
C760 C762 1.327 . S
C760 H785 0.950 . S
C761 C760 1.349 . S
C761 C777 1.349 . S
C762 C760 1.327 . S
C762 C781 1.429 . S
C762 H786 0.950 . S
C763 C780 1.574 . S
C763 C782 1.368 . S
C763 H787 0.949 . S
H764 C768 0.949 . S
C765 C766 1.349 . S
C765 C767 1.327 . S
C765 H788 0.919 1_554 S
C766 C765 1.349 . S
C766 C778 1.349 . S
C767 C765 1.327 . S
C767 C783 1.429 . S
C767 H789 0.950 . S
C768 H764 0.949 . S
C768 C776 1.574 . S
C768 C784 1.368 . S
H769 C777 0.950 . S
H770 C775 0.950 . S
H771 C776 0.949 . S
H772 C778 0.950 1_455 S
H773 C779 0.950 . S
H774 C780 0.949 . S
C775 H770 0.950 . S
C775 C777 1.327 . S
C775 C781 1.429 . S
C776 C768 1.574 . S
C776 H771 0.949 . S
C776 C782 1.368 . S
C777 C761 1.349 . S
C777 H769 0.950 . S
C777 C775 1.327 . S
C778 C766 1.349 . S
C778 H772 0.950 1_655 S
C778 C779 1.327 . S
C779 H773 0.950 . S
C779 C778 1.327 . S
C779 C783 1.429 . S
C780 C763 1.574 . S
C780 H774 0.949 . S
C780 C784 1.368 . S
C781 C762 1.429 . S
C781 C775 1.429 . S
C781 C782 1.523 . S
C782 C763 1.368 . S
C782 C776 1.368 . S
C782 C781 1.523 . S
C783 C767 1.429 . S
C783 C779 1.429 . S
C783 C784 1.523 . S
C784 C768 1.368 . S
C784 C780 1.368 . S
C784 C783 1.523 . S
H785 C760 0.950 . S
H786 C762 0.950 . S
H787 C763 0.949 . S
H788 C765 0.919 1_556 S
H789 C767 0.950 . S
C790 C791 1.349 . S
C790 C792 1.327 . S
C790 H815 0.950 . S
C791 C790 1.349 . S
C791 C807 1.349 . S
C792 C790 1.327 . S
C792 C811 1.429 . S
C792 H816 0.950 . S
C793 C810 1.574 . S
C793 C812 1.368 . S
C793 H817 0.949 . S
H794 C798 0.949 . S
C795 C796 1.349 . S
C795 C797 1.327 . S
C795 H818 0.950 1_556 S
C796 C795 1.349 . S
C796 C808 1.349 . S
C797 C795 1.327 . S
C797 C813 1.429 . S
C797 H819 0.950 . S
C798 H794 0.949 . S
C798 C806 1.574 . S
C798 C814 1.368 . S
H799 C807 0.950 . S
H800 C805 0.950 . S
H801 C806 0.949 . S
H802 C808 0.950 1_455 S
H803 C809 0.950 . S
H804 C810 0.949 . S
C805 H800 0.950 . S
C805 C807 1.327 . S
C805 C811 1.429 . S
C806 C798 1.574 . S
C806 H801 0.949 . S
C806 C812 1.368 . S
C807 C791 1.349 . S
C807 H799 0.950 . S
C807 C805 1.327 . S
C808 C796 1.349 . S
C808 H802 0.950 1_655 S
C808 C809 1.327 . S
C809 H803 0.950 . S
C809 C808 1.327 . S
C809 C813 1.429 . S
C810 C793 1.574 . S
C810 H804 0.949 . S
C810 C814 1.368 . S
C811 C792 1.429 . S
C811 C805 1.429 . S
C811 C812 1.523 . S
C812 C793 1.368 . S
C812 C806 1.368 . S
C812 C811 1.523 . S
C813 C797 1.429 . S
C813 C809 1.429 . S
C813 C814 1.523 . S
C814 C798 1.368 . S
C814 C810 1.368 . S
C814 C813 1.523 . S
H815 C790 0.950 . S
H816 C792 0.950 . S
H817 C793 0.949 . S
H818 C795 0.950 1_554 S
H819 C797 0.950 . S
C820 C821 1.349 . S
C820 C822 1.327 . S
C820 H845 0.950 . S
C821 C820 1.349 . S
C821 C837 1.349 . S
C822 C820 1.327 . S
C822 C841 1.429 . S
C822 H846 0.950 . S
C823 C840 1.574 . S
C823 C842 1.368 . S
C823 H847 0.949 . S
H824 C828 0.949 . S
C825 C826 1.349 . S
C825 C827 1.327 . S
C825 H848 0.950 . S
C826 C825 1.349 . S
C826 C838 1.349 . S
C827 C825 1.327 . S
C827 C843 1.429 . S
C827 H849 0.950 . S
C828 H824 0.949 . S
C828 C836 1.574 . S
C828 C844 1.368 . S
H829 C837 0.950 . S
H830 C835 0.950 . S
H831 C836 0.949 . S
H832 C838 0.950 . S
H833 C839 0.950 . S
H834 C840 0.949 . S
C835 H830 0.950 . S
C835 C837 1.327 . S
C835 C841 1.429 . S
C836 C828 1.574 . S
C836 H831 0.949 . S
C836 C842 1.368 . S
C837 C821 1.349 . S
C837 H829 0.950 . S
C837 C835 1.327 . S
C838 C826 1.349 . S
C838 H832 0.950 . S
C838 C839 1.327 . S
C839 H833 0.950 . S
C839 C838 1.327 . S
C839 C843 1.429 . S
C840 C823 1.574 . S
C840 H834 0.949 . S
C840 C844 1.368 . S
C841 C822 1.429 . S
C841 C835 1.429 . S
C841 C842 1.523 . S
C842 C823 1.368 . S
C842 C836 1.368 . S
C842 C841 1.523 . S
C843 C827 1.429 . S
C843 C839 1.429 . S
C843 C844 1.523 . S
C844 C828 1.368 . S
C844 C840 1.368 . S
C844 C843 1.523 . S
H845 C820 0.950 . S
H846 C822 0.950 . S
H847 C823 0.949 . S
H848 C825 0.950 . S
H849 C827 0.950 . S
C850 C851 1.349 . S
C850 C852 1.327 . S
C850 H875 0.950 . S
C851 C850 1.349 . S
C851 C867 1.349 . S
C852 C850 1.327 . S
C852 C871 1.429 . S
C852 H876 0.950 . S
C853 C870 1.574 . S
C853 C872 1.368 . S
C853 H877 0.949 . S
H854 C858 0.949 . S
C855 C856 1.349 . S
C855 C857 1.327 . S
C855 H878 0.950 . S
C856 C855 1.349 . S
C856 C868 1.349 . S
C857 C855 1.327 . S
C857 C873 1.429 . S
C857 H879 0.950 . S
C858 H854 0.949 . S
C858 C866 1.574 . S
C858 C874 1.368 . S
H859 C867 0.950 . S
H860 C865 0.950 . S
H861 C866 0.949 . S
H862 C868 0.950 . S
H863 C869 0.950 . S
H864 C870 0.949 . S
C865 H860 0.950 . S
C865 C867 1.327 . S
C865 C871 1.429 . S
C866 C858 1.574 . S
C866 H861 0.949 . S
C866 C872 1.368 . S
C867 C851 1.349 . S
C867 H859 0.950 . S
C867 C865 1.327 . S
C868 C856 1.349 . S
C868 H862 0.950 . S
C868 C869 1.327 . S
C869 H863 0.950 . S
C869 C868 1.327 . S
C869 C873 1.429 . S
C870 C853 1.574 . S
C870 H864 0.949 . S
C870 C874 1.368 . S
C871 C852 1.429 . S
C871 C865 1.429 . S
C871 C872 1.523 . S
C872 C853 1.368 . S
C872 C866 1.368 . S
C872 C871 1.523 . S
C873 C857 1.429 . S
C873 C869 1.429 . S
C873 C874 1.523 . S
C874 C858 1.368 . S
C874 C870 1.368 . S
C874 C873 1.523 . S
H875 C850 0.950 . S
H876 C852 0.950 . S
H877 C853 0.949 . S
H878 C855 0.950 . S
H879 C857 0.950 . S
C880 C881 1.349 . S
C880 C882 1.327 . S
C880 H905 0.950 . S
C881 C880 1.349 . S
C881 C897 1.349 . S
C882 C880 1.327 . S
C882 C901 1.429 . S
C882 H906 0.950 . S
C883 C900 1.574 . S
C883 C902 1.368 . S
C883 H907 0.949 . S
H884 C888 0.949 . S
C885 C886 1.349 . S
C885 C887 1.327 . S
C885 H908 0.950 . S
C886 C885 1.349 . S
C886 C898 1.349 . S
C887 C885 1.327 . S
C887 C903 1.429 . S
C887 H909 0.950 . S
C888 H884 0.949 . S
C888 C896 1.574 . S
C888 C904 1.368 . S
H889 C897 0.950 . S
H890 C895 0.950 . S
H891 C896 0.949 . S
H892 C898 0.950 . S
H893 C899 0.950 . S
H894 C900 0.949 . S
C895 H890 0.950 . S
C895 C897 1.327 . S
C895 C901 1.429 . S
C896 C888 1.574 . S
C896 H891 0.949 . S
C896 C902 1.368 . S
C897 C881 1.349 . S
C897 H889 0.950 . S
C897 C895 1.327 . S
C898 C886 1.349 . S
C898 H892 0.950 . S
C898 C899 1.327 . S
C899 H893 0.950 . S
C899 C898 1.327 . S
C899 C903 1.429 . S
C900 C883 1.574 . S
C900 H894 0.949 . S
C900 C904 1.368 . S
C901 C882 1.429 . S
C901 C895 1.429 . S
C901 C902 1.523 . S
C902 C883 1.368 . S
C902 C896 1.368 . S
C902 C901 1.523 . S
C903 C887 1.429 . S
C903 C899 1.429 . S
C903 C904 1.523 . S
C904 C888 1.368 . S
C904 C900 1.368 . S
C904 C903 1.523 . S
H905 C880 0.950 . S
H906 C882 0.950 . S
H907 C883 0.949 . S
H908 C885 0.950 . S
H909 C887 0.950 . S
C910 C911 1.349 . S
C910 C912 1.327 . S
C910 H935 0.950 . S
C911 C910 1.349 . S
C911 C927 1.349 . S
C912 C910 1.327 . S
C912 C931 1.429 . S
C912 H936 0.950 . S
C913 C930 1.574 . S
C913 C932 1.368 . S
C913 H937 0.949 . S
H914 C918 0.949 . S
C915 C916 1.349 . S
C915 C917 1.327 . S
C915 H938 0.950 . S
C916 C915 1.349 . S
C916 C928 1.349 . S
C917 C915 1.327 . S
C917 C933 1.429 . S
C917 H939 0.950 . S
C918 H914 0.949 . S
C918 C926 1.574 . S
C918 C934 1.368 . S
H919 C927 0.950 . S
H920 C925 0.950 . S
H921 C926 0.949 . S
H922 C928 0.950 . S
H923 C929 0.950 . S
H924 C930 0.949 . S
C925 H920 0.950 . S
C925 C927 1.327 . S
C925 C931 1.429 . S
C926 C918 1.574 . S
C926 H921 0.949 . S
C926 C932 1.368 . S
C927 C911 1.349 . S
C927 H919 0.950 . S
C927 C925 1.327 . S
C928 C916 1.349 . S
C928 H922 0.950 . S
C928 C929 1.327 . S
C929 H923 0.950 . S
C929 C928 1.327 . S
C929 C933 1.429 . S
C930 C913 1.574 . S
C930 H924 0.949 . S
C930 C934 1.368 . S
C931 C912 1.429 . S
C931 C925 1.429 . S
C931 C932 1.523 . S
C932 C913 1.368 . S
C932 C926 1.368 . S
C932 C931 1.523 . S
C933 C917 1.429 . S
C933 C929 1.429 . S
C933 C934 1.523 . S
C934 C918 1.368 . S
C934 C930 1.368 . S
C934 C933 1.523 . S
H935 C910 0.950 . S
H936 C912 0.950 . S
H937 C913 0.949 . S
H938 C915 0.950 . S
H939 C917 0.950 . S
C940 C941 1.349 . S
C940 C942 1.327 . S
C940 H965 0.950 . S
C941 C940 1.349 . S
C941 C957 1.349 . S
C942 C940 1.327 . S
C942 C961 1.429 . S
C942 H966 0.950 . S
C943 C960 1.574 . S
C943 C962 1.368 . S
C943 H967 0.949 . S
H944 C948 0.949 . S
C945 C946 1.349 . S
C945 C947 1.327 . S
C945 H968 0.950 . S
C946 C945 1.349 . S
C946 C958 1.349 . S
C947 C945 1.327 . S
C947 C963 1.429 . S
C947 H969 0.950 . S
C948 H944 0.949 . S
C948 C956 1.574 . S
C948 C964 1.368 . S
H949 C957 0.950 . S
H950 C955 0.950 . S
H951 C956 0.949 . S
H952 C958 0.950 . S
H953 C959 0.950 . S
H954 C960 0.949 . S
C955 H950 0.950 . S
C955 C957 1.327 . S
C955 C961 1.429 . S
C956 C948 1.574 . S
C956 H951 0.949 . S
C956 C962 1.368 . S
C957 C941 1.349 . S
C957 H949 0.950 . S
C957 C955 1.327 . S
C958 C946 1.349 . S
C958 H952 0.950 . S
C958 C959 1.327 . S
C959 H953 0.950 . S
C959 C958 1.327 . S
C959 C963 1.429 . S
C960 C943 1.574 . S
C960 H954 0.949 . S
C960 C964 1.368 . S
C961 C942 1.429 . S
C961 C955 1.429 . S
C961 C962 1.523 . S
C962 C943 1.368 . S
C962 C956 1.368 . S
C962 C961 1.523 . S
C963 C947 1.429 . S
C963 C959 1.429 . S
C963 C964 1.523 . S
C964 C948 1.368 . S
C964 C960 1.368 . S
C964 C963 1.523 . S
H965 C940 0.950 . S
H966 C942 0.950 . S
H967 C943 0.949 . S
H968 C945 0.950 . S
H969 C947 0.950 . S
C970 C971 1.349 . S
C970 C972 1.327 . S
C970 H995 0.950 . S
C971 C970 1.349 . S
C971 C987 1.349 . S
C972 C970 1.327 . S
C972 C991 1.429 . S
C972 H996 0.950 . S
C973 C990 1.574 . S
C973 C992 1.368 . S
C973 H997 0.949 . S
H974 C978 0.949 . S
C975 C976 1.349 . S
C975 C977 1.327 . S
C975 H998 0.950 . S
C976 C975 1.349 . S
C976 C988 1.349 . S
C977 C975 1.327 . S
C977 C993 1.429 . S
C977 H999 0.950 . S
C978 H974 0.949 . S
C978 C986 1.574 . S
C978 C994 1.368 . S
H979 C987 0.950 . S
H980 C985 0.950 . S
H981 C986 0.949 . S
H982 C988 0.950 . S
H983 C989 0.950 . S
H984 C990 0.949 . S
C985 H980 0.950 . S
C985 C987 1.327 . S
C985 C991 1.429 . S
C986 C978 1.574 . S
C986 H981 0.949 . S
C986 C992 1.368 . S
C987 C971 1.349 . S
C987 H979 0.950 . S
C987 C985 1.327 . S
C988 C976 1.349 . S
C988 H982 0.950 . S
C988 C989 1.327 . S
C989 H983 0.950 . S
C989 C988 1.327 . S
C989 C993 1.429 . S
C990 C973 1.574 . S
C990 H984 0.949 . S
C990 C994 1.368 . S
C991 C972 1.429 . S
C991 C985 1.429 . S
C991 C992 1.523 . S
C992 C973 1.368 . S
C992 C986 1.368 . S
C992 C991 1.523 . S
C993 C977 1.429 . S
C993 C989 1.429 . S
C993 C994 1.523 . S
C994 C978 1.368 . S
C994 C990 1.368 . S
C994 C993 1.523 . S
H995 C970 0.950 . S
H996 C972 0.950 . S
H997 C973 0.949 . S
H998 C975 0.950 . S
H999 C977 0.950 . S
C1000 C1001 1.349 . S
C1000 C1002 1.327 . S
C1000 H1025 0.950 . S
C1001 C1000 1.349 . S
C1001 C1017 1.349 . S
C1002 C1000 1.327 . S
C1002 C1021 1.429 . S
C1002 H1026 0.950 . S
C1003 C1020 1.574 . S
C1003 C1022 1.368 . S
C1003 H1027 0.949 . S
H1004 C1008 0.949 . S
C1005 C1006 1.349 . S
C1005 C1007 1.327 . S
C1005 H1028 0.950 . S
C1006 C1005 1.349 . S
C1006 C1018 1.349 . S
C1007 C1005 1.327 . S
C1007 C1023 1.429 . S
C1007 H1029 0.950 . S
C1008 H1004 0.949 . S
C1008 C1016 1.574 . S
C1008 C1024 1.368 . S
H1009 C1017 0.950 . S
H1010 C1015 0.950 . S
H1011 C1016 0.949 . S
H1012 C1018 0.950 . S
H1013 C1019 0.950 . S
H1014 C1020 0.949 . S
C1015 H1010 0.950 . S
C1015 C1017 1.327 . S
C1015 C1021 1.429 . S
C1016 C1008 1.574 . S
C1016 H1011 0.949 . S
C1016 C1022 1.368 . S
C1017 C1001 1.349 . S
C1017 H1009 0.950 . S
C1017 C1015 1.327 . S
C1018 C1006 1.349 . S
C1018 H1012 0.950 . S
C1018 C1019 1.327 . S
C1019 H1013 0.950 . S
C1019 C1018 1.327 . S
C1019 C1023 1.429 . S
C1020 C1003 1.574 . S
C1020 H1014 0.949 . S
C1020 C1024 1.368 . S
C1021 C1002 1.429 . S
C1021 C1015 1.429 . S
C1021 C1022 1.523 . S
C1022 C1003 1.368 . S
C1022 C1016 1.368 . S
C1022 C1021 1.523 . S
C1023 C1007 1.429 . S
C1023 C1019 1.429 . S
C1023 C1024 1.523 . S
C1024 C1008 1.368 . S
C1024 C1020 1.368 . S
C1024 C1023 1.523 . S
H1025 C1000 0.950 . S
H1026 C1002 0.950 . S
H1027 C1003 0.949 . S
H1028 C1005 0.950 . S
H1029 C1007 0.950 . S
C1030 C1031 1.349 . S
C1030 C1032 1.327 . S
C1030 H1055 0.950 . S
C1031 C1030 1.349 . S
C1031 C1047 1.349 . S
C1032 C1030 1.327 . S
C1032 C1051 1.429 . S
C1032 H1056 0.950 . S
C1033 C1050 1.574 . S
C1033 C1052 1.368 . S
C1033 H1057 0.949 . S
H1034 C1038 0.949 . S
C1035 C1036 1.349 . S
C1035 C1037 1.327 . S
C1035 H1058 0.950 . S
C1036 C1035 1.349 . S
C1036 C1048 1.349 . S
C1037 C1035 1.327 . S
C1037 C1053 1.429 . S
C1037 H1059 0.950 . S
C1038 H1034 0.949 . S
C1038 C1046 1.574 . S
C1038 C1054 1.368 . S
H1039 C1047 0.950 . S
H1040 C1045 0.950 . S
H1041 C1046 0.949 . S
H1042 C1048 0.950 . S
H1043 C1049 0.950 . S
H1044 C1050 0.949 . S
C1045 H1040 0.950 . S
C1045 C1047 1.327 . S
C1045 C1051 1.429 . S
C1046 C1038 1.574 . S
C1046 H1041 0.949 . S
C1046 C1052 1.368 . S
C1047 C1031 1.349 . S
C1047 H1039 0.950 . S
C1047 C1045 1.327 . S
C1048 C1036 1.349 . S
C1048 H1042 0.950 . S
C1048 C1049 1.327 . S
C1049 H1043 0.950 . S
C1049 C1048 1.327 . S
C1049 C1053 1.429 . S
C1050 C1033 1.574 . S
C1050 H1044 0.949 . S
C1050 C1054 1.368 . S
C1051 C1032 1.429 . S
C1051 C1045 1.429 . S
C1051 C1052 1.523 . S
C1052 C1033 1.368 . S
C1052 C1046 1.368 . S
C1052 C1051 1.523 . S
C1053 C1037 1.429 . S
C1053 C1049 1.429 . S
C1053 C1054 1.523 . S
C1054 C1038 1.368 . S
C1054 C1050 1.368 . S
C1054 C1053 1.523 . S
H1055 C1030 0.950 . S
H1056 C1032 0.950 . S
H1057 C1033 0.949 . S
H1058 C1035 0.950 . S
H1059 C1037 0.950 . S
C1060 C1061 1.349 . S
C1060 C1062 1.327 . S
C1060 H1085 0.950 . S
C1061 C1060 1.349 . S
C1061 C1077 1.349 . S
C1062 C1060 1.327 . S
C1062 C1081 1.429 . S
C1062 H1086 0.950 . S
C1063 C1080 1.574 . S
C1063 C1082 1.368 . S
C1063 H1087 0.949 . S
H1064 C1068 0.949 . S
C1065 C1066 1.349 . S
C1065 C1067 1.327 . S
C1065 H1088 0.950 1_554 S
C1066 C1065 1.349 . S
C1066 C1078 1.349 . S
C1067 C1065 1.327 . S
C1067 C1083 1.429 . S
C1067 H1089 0.950 . S
C1068 H1064 0.949 . S
C1068 C1076 1.574 . S
C1068 C1084 1.368 . S
H1069 C1077 0.950 . S
H1070 C1075 0.950 . S
H1071 C1076 0.949 . S
H1072 C1078 0.950 . S
H1073 C1079 0.950 . S
H1074 C1080 0.949 . S
C1075 H1070 0.950 . S
C1075 C1077 1.327 . S
C1075 C1081 1.429 . S
C1076 C1068 1.574 . S
C1076 H1071 0.949 . S
C1076 C1082 1.368 . S
C1077 C1061 1.349 . S
C1077 H1069 0.950 . S
C1077 C1075 1.327 . S
C1078 C1066 1.349 . S
C1078 H1072 0.950 . S
C1078 C1079 1.327 . S
C1079 H1073 0.950 . S
C1079 C1078 1.327 . S
C1079 C1083 1.429 . S
C1080 C1063 1.574 . S
C1080 H1074 0.949 . S
C1080 C1084 1.368 . S
C1081 C1062 1.429 . S
C1081 C1075 1.429 . S
C1081 C1082 1.523 . S
C1082 C1063 1.368 . S
C1082 C1076 1.368 . S
C1082 C1081 1.523 . S
C1083 C1067 1.429 . S
C1083 C1079 1.429 . S
C1083 C1084 1.523 . S
C1084 C1068 1.368 . S
C1084 C1080 1.368 . S
C1084 C1083 1.523 . S
H1085 C1060 0.950 . S
H1086 C1062 0.950 . S
H1087 C1063 0.949 . S
H1088 C1065 0.950 1_556 S
H1089 C1067 0.950 . S
C1090 C1091 1.349 . S
C1090 C1092 1.327 . S
C1090 H1115 0.950 . S
C1091 C1090 1.349 . S
C1091 C1107 1.349 . S
C1092 C1090 1.327 . S
C1092 C1111 1.429 . S
C1092 H1116 0.950 . S
C1093 C1110 1.574 . S
C1093 C1112 1.368 . S
C1093 H1117 0.949 . S
H1094 C1098 0.949 . S
C1095 C1096 1.349 . S
C1095 C1097 1.327 . S
C1095 H1118 0.950 . S
C1096 C1095 1.349 . S
C1096 C1108 1.349 . S
C1097 C1095 1.327 . S
C1097 C1113 1.429 . S
C1097 H1119 0.950 . S
C1098 H1094 0.949 . S
C1098 C1106 1.574 . S
C1098 C1114 1.368 . S
H1099 C1107 0.950 . S
H1100 C1105 0.950 . S
H1101 C1106 0.949 . S
H1102 C1108 0.950 1_554 S
H1103 C1109 0.950 . S
H1104 C1110 0.949 . S
C1105 H1100 0.950 . S
C1105 C1107 1.327 . S
C1105 C1111 1.429 . S
C1106 C1098 1.574 . S
C1106 H1101 0.949 . S
C1106 C1112 1.368 . S
C1107 C1091 1.349 . S
C1107 H1099 0.950 . S
C1107 C1105 1.327 . S
C1108 C1096 1.349 . S
C1108 H1102 0.950 1_556 S
C1108 C1109 1.327 . S
C1109 H1103 0.950 . S
C1109 C1108 1.327 . S
C1109 C1113 1.429 . S
C1110 C1093 1.574 . S
C1110 H1104 0.949 . S
C1110 C1114 1.368 . S
C1111 C1092 1.429 . S
C1111 C1105 1.429 . S
C1111 C1112 1.523 . S
C1112 C1093 1.368 . S
C1112 C1106 1.368 . S
C1112 C1111 1.523 . S
C1113 C1097 1.429 . S
C1113 C1109 1.429 . S
C1113 C1114 1.523 . S
C1114 C1098 1.368 . S
C1114 C1110 1.368 . S
C1114 C1113 1.523 . S
H1115 C1090 0.950 . S
H1116 C1092 0.950 . S
H1117 C1093 0.949 . S
H1118 C1095 0.950 . S
H1119 C1097 0.950 . S
C1120 C1121 1.349 . S
C1120 C1122 1.327 . S
C1120 H1145 0.950 . S
C1121 C1120 1.349 . S
C1121 C1137 1.349 . S
C1122 C1120 1.327 . S
C1122 C1141 1.429 . S
C1122 H1146 0.950 . S
C1123 C1140 1.574 . S
C1123 C1142 1.368 . S
C1123 H1147 0.949 . S
H1124 C1128 0.949 . S
C1125 C1126 1.349 . S
C1125 C1127 1.327 . S
C1125 H1148 0.950 . S
C1126 C1125 1.349 . S
C1126 C1138 1.349 . S
C1127 C1125 1.327 . S
C1127 C1143 1.429 . S
C1127 H1149 0.950 . S
C1128 H1124 0.949 . S
C1128 C1136 1.574 . S
C1128 C1144 1.368 . S
H1129 C1137 0.950 1_655 S
H1130 C1135 0.950 1_655 S
H1131 C1136 0.949 . S
H1132 C1138 0.950 . S
H1133 C1139 0.950 . S
H1134 C1140 0.949 . S
C1135 H1130 0.950 1_455 S
C1135 C1137 1.327 . S
C1135 C1141 1.429 . S
C1136 C1128 1.574 . S
C1136 H1131 0.949 . S
C1136 C1142 1.368 . S
C1137 C1121 1.349 . S
C1137 H1129 0.950 1_455 S
C1137 C1135 1.327 . S
C1138 C1126 1.349 . S
C1138 H1132 0.950 . S
C1138 C1139 1.327 . S
C1139 H1133 0.950 . S
C1139 C1138 1.327 . S
C1139 C1143 1.429 . S
C1140 C1123 1.574 . S
C1140 H1134 0.949 . S
C1140 C1144 1.368 . S
C1141 C1122 1.429 . S
C1141 C1135 1.429 . S
C1141 C1142 1.523 . S
C1142 C1123 1.368 . S
C1142 C1136 1.368 . S
C1142 C1141 1.523 . S
C1143 C1127 1.429 . S
C1143 C1139 1.429 . S
C1143 C1144 1.523 . S
C1144 C1128 1.368 . S
C1144 C1140 1.368 . S
C1144 C1143 1.523 . S
H1145 C1120 0.950 . S
H1146 C1122 0.950 . S
H1147 C1123 0.949 . S
H1148 C1125 0.950 . S
H1149 C1127 0.950 . S
C1150 C1151 1.349 . S
C1150 C1152 1.327 . S
C1150 H1175 0.950 . S
C1151 C1150 1.349 . S
C1151 C1167 1.349 . S
C1152 C1150 1.327 . S
C1152 C1171 1.429 . S
C1152 H1176 0.950 . S
C1153 C1170 1.574 . S
C1153 C1172 1.368 . S
C1153 H1177 0.949 . S
H1154 C1158 0.949 . S
C1155 C1156 1.349 . S
C1155 C1157 1.327 . S
C1155 H1178 0.950 . S
C1156 C1155 1.349 . S
C1156 C1168 1.349 . S
C1157 C1155 1.327 . S
C1157 C1173 1.429 . S
C1157 H1179 0.950 . S
C1158 H1154 0.949 . S
C1158 C1166 1.574 . S
C1158 C1174 1.368 . S
H1159 C1167 0.950 . S
H1160 C1165 0.950 . S
H1161 C1166 0.949 . S
H1162 C1168 0.950 . S
H1163 C1169 0.950 . S
H1164 C1170 0.949 . S
C1165 H1160 0.950 . S
C1165 C1167 1.327 . S
C1165 C1171 1.429 . S
C1166 C1158 1.574 . S
C1166 H1161 0.949 . S
C1166 C1172 1.368 . S
C1167 C1151 1.349 . S
C1167 H1159 0.950 . S
C1167 C1165 1.327 . S
C1168 C1156 1.349 . S
C1168 H1162 0.950 . S
C1168 C1169 1.327 . S
C1169 H1163 0.950 . S
C1169 C1168 1.327 . S
C1169 C1173 1.429 . S
C1170 C1153 1.574 . S
C1170 H1164 0.949 . S
C1170 C1174 1.368 . S
C1171 C1152 1.429 . S
C1171 C1165 1.429 . S
C1171 C1172 1.523 1_655 S
C1172 C1153 1.368 . S
C1172 C1166 1.368 . S
C1172 C1171 1.523 1_455 S
C1173 C1157 1.429 . S
C1173 C1169 1.429 . S
C1173 C1174 1.523 . S
C1174 C1158 1.368 . S
C1174 C1170 1.368 . S
C1174 C1173 1.523 . S
H1175 C1150 0.950 . S
H1176 C1152 0.950 . S
H1177 C1153 0.949 . S
H1178 C1155 0.950 . S
H1179 C1157 0.950 . S
C1180 C1181 1.349 . S
C1180 C1182 1.327 . S
C1180 H1205 0.950 . S
C1181 C1180 1.349 . S
C1181 C1197 1.349 . S
C1182 C1180 1.327 . S
C1182 C1201 1.429 . S
C1182 H1206 0.950 . S
C1183 C1200 1.574 . S
C1183 C1202 1.368 . S
C1183 H1207 0.949 . S
H1184 C1188 0.949 . S
C1185 C1186 1.349 . S
C1185 C1187 1.327 . S
C1185 H1208 0.950 . S
C1186 C1185 1.349 . S
C1186 C1198 1.349 . S
C1187 C1185 1.327 . S
C1187 C1203 1.429 . S
C1187 H1209 0.950 . S
C1188 H1184 0.949 . S
C1188 C1196 1.574 . S
C1188 C1204 1.368 . S
H1189 C1197 0.950 . S
H1190 C1195 0.950 . S
H1191 C1196 0.949 . S
H1192 C1198 0.950 . S
H1193 C1199 0.950 . S
H1194 C1200 0.949 . S
C1195 H1190 0.950 . S
C1195 C1197 1.327 . S
C1195 C1201 1.429 . S
C1196 C1188 1.574 . S
C1196 H1191 0.949 . S
C1196 C1202 1.368 . S
C1197 C1181 1.349 . S
C1197 H1189 0.950 . S
C1197 C1195 1.327 . S
C1198 C1186 1.349 . S
C1198 H1192 0.950 . S
C1198 C1199 1.327 . S
C1199 H1193 0.950 . S
C1199 C1198 1.327 . S
C1199 C1203 1.429 . S
C1200 C1183 1.574 . S
C1200 H1194 0.949 . S
C1200 C1204 1.368 . S
C1201 C1182 1.429 . S
C1201 C1195 1.429 . S
C1201 C1202 1.523 . S
C1202 C1183 1.368 . S
C1202 C1196 1.368 . S
C1202 C1201 1.523 . S
C1203 C1187 1.429 . S
C1203 C1199 1.429 . S
C1203 C1204 1.523 . S
C1204 C1188 1.368 . S
C1204 C1200 1.368 . S
C1204 C1203 1.523 . S
H1205 C1180 0.950 . S
H1206 C1182 0.950 . S
H1207 C1183 0.949 . S
H1208 C1185 0.950 . S
H1209 C1187 0.950 . S
C1210 C1211 1.349 . S
C1210 C1212 1.327 . S
C1210 H1235 0.950 . S
C1211 C1210 1.349 . S
C1211 C1227 1.349 . S
C1212 C1210 1.327 . S
C1212 C1231 1.429 . S
C1212 H1236 0.950 . S
C1213 C1230 1.574 . S
C1213 C1232 1.368 . S
C1213 H1237 0.949 . S
H1214 C1218 0.949 . S
C1215 C1216 1.349 . S
C1215 C1217 1.327 . S
C1215 H1238 0.950 . S
C1216 C1215 1.349 . S
C1216 C1228 1.349 . S
C1217 C1215 1.327 . S
C1217 C1233 1.429 . S
C1217 H1239 0.950 . S
C1218 H1214 0.949 . S
C1218 C1226 1.574 . S
C1218 C1234 1.368 . S
H1219 C1227 0.950 . S
H1220 C1225 0.950 . S
H1221 C1226 0.949 . S
H1222 C1228 0.950 . S
H1223 C1229 0.950 . S
H1224 C1230 0.949 . S
C1225 H1220 0.950 . S
C1225 C1227 1.327 . S
C1225 C1231 1.429 . S
C1226 C1218 1.574 . S
C1226 H1221 0.949 . S
C1226 C1232 1.368 . S
C1227 C1211 1.349 . S
C1227 H1219 0.950 . S
C1227 C1225 1.327 . S
C1228 C1216 1.349 . S
C1228 H1222 0.950 . S
C1228 C1229 1.327 . S
C1229 H1223 0.950 . S
C1229 C1228 1.327 . S
C1229 C1233 1.429 . S
C1230 C1213 1.574 . S
C1230 H1224 0.949 . S
C1230 C1234 1.368 . S
C1231 C1212 1.429 . S
C1231 C1225 1.429 . S
C1231 C1232 1.523 . S
C1232 C1213 1.368 . S
C1232 C1226 1.368 . S
C1232 C1231 1.523 . S
C1233 C1217 1.429 . S
C1233 C1229 1.429 . S
C1233 C1234 1.523 . S
C1234 C1218 1.368 . S
C1234 C1230 1.368 . S
C1234 C1233 1.523 . S
H1235 C1210 0.950 . S
H1236 C1212 0.950 . S
H1237 C1213 0.949 . S
H1238 C1215 0.950 . S
H1239 C1217 0.950 . S
C1240 C1241 1.349 . S
C1240 C1242 1.327 . S
C1240 H1265 0.950 . S
C1241 C1240 1.349 . S
C1241 C1257 1.349 . S
C1242 C1240 1.327 . S
C1242 C1261 1.429 . S
C1242 H1266 0.950 . S
C1243 C1260 1.574 . S
C1243 C1262 1.368 . S
C1243 H1267 0.949 . S
H1244 C1248 0.949 . S
C1245 C1246 1.349 . S
C1245 C1247 1.327 . S
C1245 H1268 0.950 1_455 S
C1246 C1245 1.349 . S
C1246 C1258 1.349 . S
C1247 C1245 1.327 . S
C1247 C1263 1.429 . S
C1247 H1269 0.950 1_455 S
C1248 H1244 0.949 . S
C1248 C1256 1.574 . S
C1248 C1264 1.368 . S
H1249 C1257 0.950 . S
H1250 C1255 0.950 . S
H1251 C1256 0.949 . S
H1252 C1258 0.950 . S
H1253 C1259 0.950 . S
H1254 C1260 0.949 . S
C1255 H1250 0.950 . S
C1255 C1257 1.327 . S
C1255 C1261 1.429 . S
C1256 C1248 1.574 . S
C1256 H1251 0.949 . S
C1256 C1262 1.368 . S
C1257 C1241 1.349 . S
C1257 H1249 0.950 . S
C1257 C1255 1.327 . S
C1258 C1246 1.349 . S
C1258 H1252 0.950 . S
C1258 C1259 1.327 . S
C1259 H1253 0.950 . S
C1259 C1258 1.327 . S
C1259 C1263 1.429 . S
C1260 C1243 1.574 . S
C1260 H1254 0.949 . S
C1260 C1264 1.368 . S
C1261 C1242 1.429 . S
C1261 C1255 1.429 . S
C1261 C1262 1.523 . S
C1262 C1243 1.368 . S
C1262 C1256 1.368 . S
C1262 C1261 1.523 . S
C1263 C1247 1.429 . S
C1263 C1259 1.429 . S
C1263 C1264 1.523 . S
C1264 C1248 1.368 . S
C1264 C1260 1.368 . S
C1264 C1263 1.523 . S
H1265 C1240 0.950 . S
H1266 C1242 0.950 . S
H1267 C1243 0.949 . S
H1268 C1245 0.950 1_655 S
H1269 C1247 0.950 1_655 S
C1270 C1271 1.349 . S
C1270 C1272 1.327 . S
C1270 H1295 0.950 . S
C1271 C1270 1.349 . S
C1271 C1287 1.349 . S
C1272 C1270 1.327 . S
C1272 C1291 1.429 . S
C1272 H1296 0.950 . S
C1273 C1290 1.574 . S
C1273 C1292 1.368 . S
C1273 H1297 0.949 . S
H1274 C1278 0.949 . S
C1275 C1276 1.349 . S
C1275 C1277 1.327 . S
C1275 H1298 0.950 . S
C1276 C1275 1.349 . S
C1276 C1288 1.349 . S
C1277 C1275 1.327 . S
C1277 C1293 1.429 . S
C1277 H1299 0.950 . S
C1278 H1274 0.949 . S
C1278 C1286 1.574 . S
C1278 C1294 1.368 . S
H1279 C1287 0.950 . S
H1280 C1285 0.950 . S
H1281 C1286 0.949 . S
H1282 C1288 0.950 . S
H1283 C1289 0.950 . S
H1284 C1290 0.949 . S
C1285 H1280 0.950 . S
C1285 C1287 1.327 . S
C1285 C1291 1.429 . S
C1286 C1278 1.574 . S
C1286 H1281 0.949 . S
C1286 C1292 1.368 . S
C1287 C1271 1.349 . S
C1287 H1279 0.950 . S
C1287 C1285 1.327 . S
C1288 C1276 1.349 . S
C1288 H1282 0.950 . S
C1288 C1289 1.327 . S
C1289 H1283 0.950 . S
C1289 C1288 1.327 . S
C1289 C1293 1.429 . S
C1290 C1273 1.574 . S
C1290 H1284 0.949 . S
C1290 C1294 1.368 . S
C1291 C1272 1.429 . S
C1291 C1285 1.429 . S
C1291 C1292 1.523 . S
C1292 C1273 1.368 . S
C1292 C1286 1.368 . S
C1292 C1291 1.523 . S
C1293 C1277 1.429 . S
C1293 C1289 1.429 . S
C1293 C1294 1.523 . S
C1294 C1278 1.368 . S
C1294 C1290 1.368 . S
C1294 C1293 1.523 . S
H1295 C1270 0.950 . S
H1296 C1272 0.950 . S
H1297 C1273 0.949 . S
H1298 C1275 0.950 . S
H1299 C1277 0.950 . S
C1300 C1301 1.349 . S
C1300 C1302 1.327 . S
C1300 H1325 0.950 . S
C1301 C1300 1.349 . S
C1301 C1317 1.349 . S
C1302 C1300 1.327 . S
C1302 C1321 1.429 . S
C1302 H1326 0.950 . S
C1303 C1320 1.574 . S
C1303 C1322 1.368 . S
C1303 H1327 0.949 . S
H1304 C1308 0.949 . S
C1305 C1306 1.349 . S
C1305 C1307 1.327 . S
C1305 H1328 0.950 . S
C1306 C1305 1.349 . S
C1306 C1318 1.349 . S
C1307 C1305 1.327 . S
C1307 C1323 1.429 . S
C1307 H1329 0.950 . S
C1308 H1304 0.949 . S
C1308 C1316 1.574 . S
C1308 C1324 1.368 . S
H1309 C1317 0.950 . S
H1310 C1315 0.950 . S
H1311 C1316 0.949 . S
H1312 C1318 0.950 . S
H1313 C1319 0.950 . S
H1314 C1320 0.949 . S
C1315 H1310 0.950 . S
C1315 C1317 1.327 . S
C1315 C1321 1.429 . S
C1316 C1308 1.574 . S
C1316 H1311 0.949 . S
C1316 C1322 1.368 . S
C1317 C1301 1.349 . S
C1317 H1309 0.950 . S
C1317 C1315 1.327 . S
C1318 C1306 1.349 . S
C1318 H1312 0.950 . S
C1318 C1319 1.327 . S
C1319 H1313 0.950 . S
C1319 C1318 1.327 . S
C1319 C1323 1.429 . S
C1320 C1303 1.574 . S
C1320 H1314 0.949 . S
C1320 C1324 1.368 . S
C1321 C1302 1.429 . S
C1321 C1315 1.429 . S
C1321 C1322 1.523 . S
C1322 C1303 1.368 . S
C1322 C1316 1.368 . S
C1322 C1321 1.523 . S
C1323 C1307 1.429 . S
C1323 C1319 1.429 . S
C1323 C1324 1.523 . S
C1324 C1308 1.368 . S
C1324 C1320 1.368 . S
C1324 C1323 1.523 . S
H1325 C1300 0.950 . S
H1326 C1302 0.950 . S
H1327 C1303 0.949 . S
H1328 C1305 0.950 . S
H1329 C1307 0.950 . S
C1330 C1331 1.349 . S
C1330 C1332 1.327 . S
C1330 H1355 0.950 . S
C1331 C1330 1.349 . S
C1331 C1347 1.349 . S
C1332 C1330 1.327 . S
C1332 C1351 1.429 . S
C1332 H1356 0.950 . S
C1333 C1350 1.574 . S
C1333 C1352 1.368 . S
C1333 H1357 0.949 . S
H1334 C1338 0.949 . S
C1335 C1336 1.349 . S
C1335 C1337 1.327 . S
C1335 H1358 0.950 . S
C1336 C1335 1.349 . S
C1336 C1348 1.349 . S
C1337 C1335 1.327 . S
C1337 C1353 1.429 . S
C1337 H1359 0.950 . S
C1338 H1334 0.949 . S
C1338 C1346 1.574 . S
C1338 C1354 1.368 . S
H1339 C1347 0.950 . S
H1340 C1345 0.950 . S
H1341 C1346 0.949 . S
H1342 C1348 0.950 . S
H1343 C1349 0.950 . S
H1344 C1350 0.949 . S
C1345 H1340 0.950 . S
C1345 C1347 1.327 . S
C1345 C1351 1.429 . S
C1346 C1338 1.574 . S
C1346 H1341 0.949 . S
C1346 C1352 1.368 . S
C1347 C1331 1.349 . S
C1347 H1339 0.950 . S
C1347 C1345 1.327 . S
C1348 C1336 1.349 . S
C1348 H1342 0.950 . S
C1348 C1349 1.327 . S
C1349 H1343 0.950 . S
C1349 C1348 1.327 . S
C1349 C1353 1.429 . S
C1350 C1333 1.574 . S
C1350 H1344 0.949 . S
C1350 C1354 1.368 . S
C1351 C1332 1.429 . S
C1351 C1345 1.429 . S
C1351 C1352 1.523 . S
C1352 C1333 1.368 . S
C1352 C1346 1.368 . S
C1352 C1351 1.523 . S
C1353 C1337 1.429 . S
C1353 C1349 1.429 . S
C1353 C1354 1.523 1_655 S
C1354 C1338 1.368 . S
C1354 C1350 1.368 . S
C1354 C1353 1.523 1_455 S
H1355 C1330 0.950 . S
H1356 C1332 0.950 . S
H1357 C1333 0.949 . S
H1358 C1335 0.950 . S
H1359 C1337 0.950 . S
C1360 C1361 1.349 . S
C1360 C1362 1.327 . S
C1360 H1385 0.950 . S
C1361 C1360 1.349 . S
C1361 C1377 1.349 . S
C1362 C1360 1.327 . S
C1362 C1381 1.429 . S
C1362 H1386 0.950 . S
C1363 C1380 1.574 1_544 S
C1363 C1382 1.368 . S
C1363 H1387 0.949 . S
H1364 C1368 0.949 . S
C1365 C1366 1.349 . S
C1365 C1367 1.327 . S
C1365 H1388 0.950 . S
C1366 C1365 1.349 . S
C1366 C1378 1.349 . S
C1367 C1365 1.327 . S
C1367 C1383 1.429 . S
C1367 H1389 0.950 . S
C1368 H1364 0.949 . S
C1368 C1376 1.574 1_566 S
C1368 C1384 1.368 . S
H1369 C1377 0.950 . S
H1370 C1375 0.950 . S
H1371 C1376 0.949 . S
H1372 C1378 0.950 . S
H1373 C1379 0.950 . S
H1374 C1380 0.949 . S
C1375 H1370 0.950 . S
C1375 C1377 1.327 . S
C1375 C1381 1.429 . S
C1376 C1368 1.574 1_544 S
C1376 H1371 0.949 . S
C1376 C1382 1.368 . S
C1377 C1361 1.349 . S
C1377 H1369 0.950 . S
C1377 C1375 1.327 . S
C1378 C1366 1.349 . S
C1378 H1372 0.950 . S
C1378 C1379 1.327 . S
C1379 H1373 0.950 . S
C1379 C1378 1.327 . S
C1379 C1383 1.429 . S
C1380 C1363 1.574 1_566 S
C1380 H1374 0.949 . S
C1380 C1384 1.368 . S
C1381 C1362 1.429 . S
C1381 C1375 1.429 . S
C1381 C1382 1.523 . S
C1382 C1363 1.368 . S
C1382 C1376 1.368 . S
C1382 C1381 1.523 . S
C1383 C1367 1.429 . S
C1383 C1379 1.429 . S
C1383 C1384 1.523 . S
C1384 C1368 1.368 . S
C1384 C1380 1.368 . S
C1384 C1383 1.523 . S
H1385 C1360 0.950 . S
H1386 C1362 0.950 . S
H1387 C1363 0.949 . S
H1388 C1365 0.950 . S
H1389 C1367 0.950 . S
C1390 C1391 1.349 . S
C1390 C1392 1.327 . S
C1390 H1415 0.950 . S
C1391 C1390 1.349 . S
C1391 C1407 1.349 . S
C1392 C1390 1.327 . S
C1392 C1411 1.429 . S
C1392 H1416 0.950 . S
C1393 C1410 1.574 . S
C1393 C1412 1.368 . S
C1393 H1417 0.949 . S
H1394 C1398 0.949 . S
C1395 C1396 1.349 . S
C1395 C1397 1.327 . S
C1395 H1418 0.950 . S
C1396 C1395 1.349 . S
C1396 C1408 1.349 . S
C1397 C1395 1.327 . S
C1397 C1413 1.429 . S
C1397 H1419 0.950 . S
C1398 H1394 0.949 . S
C1398 C1406 1.574 . S
C1398 C1414 1.368 . S
H1399 C1407 0.950 . S
H1400 C1405 0.950 . S
H1401 C1406 0.949 . S
H1402 C1408 0.950 . S
H1403 C1409 0.950 . S
H1404 C1410 0.949 . S
C1405 H1400 0.950 . S
C1405 C1407 1.327 . S
C1405 C1411 1.429 . S
C1406 C1398 1.574 . S
C1406 H1401 0.949 . S
C1406 C1412 1.368 . S
C1407 C1391 1.349 . S
C1407 H1399 0.950 . S
C1407 C1405 1.327 . S
C1408 C1396 1.349 . S
C1408 H1402 0.950 . S
C1408 C1409 1.327 . S
C1409 H1403 0.950 . S
C1409 C1408 1.327 . S
C1409 C1413 1.429 . S
C1410 C1393 1.574 . S
C1410 H1404 0.949 . S
C1410 C1414 1.368 . S
C1411 C1392 1.429 . S
C1411 C1405 1.429 . S
C1411 C1412 1.523 . S
C1412 C1393 1.368 . S
C1412 C1406 1.368 . S
C1412 C1411 1.523 . S
C1413 C1397 1.429 . S
C1413 C1409 1.429 . S
C1413 C1414 1.523 . S
C1414 C1398 1.368 . S
C1414 C1410 1.368 . S
C1414 C1413 1.523 . S
H1415 C1390 0.950 . S
H1416 C1392 0.950 . S
H1417 C1393 0.949 . S
H1418 C1395 0.950 . S
H1419 C1397 0.950 . S
C1420 C1421 1.349 . S
C1420 C1422 1.327 . S
C1420 H1445 0.950 . S
C1421 C1420 1.349 . S
C1421 C1437 1.349 . S
C1422 C1420 1.327 . S
C1422 C1441 1.429 . S
C1422 H1446 0.950 . S
C1423 C1440 1.574 . S
C1423 C1442 1.368 1_565 S
C1423 H1447 0.949 . S
H1424 C1428 0.949 . S
C1425 C1426 1.349 . S
C1425 C1427 1.327 . S
C1425 H1448 0.950 . S
C1426 C1425 1.349 . S
C1426 C1438 1.349 . S
C1427 C1425 1.327 . S
C1427 C1443 1.429 . S
C1427 H1449 0.950 . S
C1428 H1424 0.949 . S
C1428 C1436 1.574 . S
C1428 C1444 1.368 1_545 S
H1429 C1437 0.950 . S
H1430 C1435 0.950 . S
H1431 C1436 0.949 . S
H1432 C1438 0.950 . S
H1433 C1439 0.950 . S
H1434 C1440 0.949 . S
C1435 H1430 0.950 . S
C1435 C1437 1.327 . S
C1435 C1441 1.429 . S
C1436 C1428 1.574 . S
C1436 H1431 0.949 . S
C1436 C1442 1.368 . S
C1437 C1421 1.349 . S
C1437 H1429 0.950 . S
C1437 C1435 1.327 . S
C1438 C1426 1.349 . S
C1438 H1432 0.950 . S
C1438 C1439 1.327 . S
C1439 H1433 0.950 . S
C1439 C1438 1.327 . S
C1439 C1443 1.429 . S
C1440 C1423 1.574 . S
C1440 H1434 0.949 . S
C1440 C1444 1.368 . S
C1441 C1422 1.429 . S
C1441 C1435 1.429 . S
C1441 C1442 1.523 . S
C1442 C1423 1.368 1_545 S
C1442 C1436 1.368 . S
C1442 C1441 1.523 . S
C1443 C1427 1.429 . S
C1443 C1439 1.429 . S
C1443 C1444 1.523 . S
C1444 C1428 1.368 1_565 S
C1444 C1440 1.368 . S
C1444 C1443 1.523 . S
H1445 C1420 0.950 . S
H1446 C1422 0.950 . S
H1447 C1423 0.949 . S
H1448 C1425 0.950 . S
H1449 C1427 0.950 . S
C1450 C1451 1.349 . S
C1450 C1452 1.327 . S
C1450 H1475 0.950 . S
C1451 C1450 1.349 . S
C1451 C1467 1.349 . S
C1452 C1450 1.327 . S
C1452 C1471 1.429 . S
C1452 H1476 0.950 . S
C1453 C1470 1.574 . S
C1453 C1472 1.368 . S
C1453 H1477 0.949 . S
H1454 C1458 0.949 . S
C1455 C1456 1.349 . S
C1455 C1457 1.327 . S
C1455 H1478 0.950 . S
C1456 C1455 1.349 . S
C1456 C1468 1.349 . S
C1457 C1455 1.327 . S
C1457 C1473 1.429 . S
C1457 H1479 0.950 . S
C1458 H1454 0.949 . S
C1458 C1466 1.574 . S
C1458 C1474 1.368 . S
H1459 C1467 0.950 . S
H1460 C1465 0.950 . S
H1461 C1466 0.949 . S
H1462 C1468 0.950 . S
H1463 C1469 0.950 . S
H1464 C1470 0.949 . S
C1465 H1460 0.950 . S
C1465 C1467 1.327 . S
C1465 C1471 1.429 . S
C1466 C1458 1.574 . S
C1466 H1461 0.949 . S
C1466 C1472 1.368 . S
C1467 C1451 1.349 . S
C1467 H1459 0.950 . S
C1467 C1465 1.327 . S
C1468 C1456 1.349 . S
C1468 H1462 0.950 . S
C1468 C1469 1.327 . S
C1469 H1463 0.950 . S
C1469 C1468 1.327 . S
C1469 C1473 1.429 . S
C1470 C1453 1.574 . S
C1470 H1464 0.949 . S
C1470 C1474 1.368 . S
C1471 C1452 1.429 . S
C1471 C1465 1.429 . S
C1471 C1472 1.523 . S
C1472 C1453 1.368 . S
C1472 C1466 1.368 . S
C1472 C1471 1.523 . S
C1473 C1457 1.429 . S
C1473 C1469 1.429 . S
C1473 C1474 1.523 . S
C1474 C1458 1.368 . S
C1474 C1470 1.368 . S
C1474 C1473 1.523 . S
H1475 C1450 0.950 . S
H1476 C1452 0.950 . S
H1477 C1453 0.949 . S
H1478 C1455 0.950 . S
H1479 C1457 0.950 . S
C1480 C1481 1.349 . S
C1480 C1482 1.327 . S
C1480 H1505 0.950 . S
C1481 C1480 1.349 . S
C1481 C1497 1.349 . S
C1482 C1480 1.327 . S
C1482 C1501 1.429 . S
C1482 H1506 0.950 . S
C1483 C1500 1.574 . S
C1483 C1502 1.368 . S
C1483 H1507 0.949 . S
H1484 C1488 0.949 . S
C1485 C1486 1.349 . S
C1485 C1487 1.327 . S
C1485 H1508 0.950 . S
C1486 C1485 1.349 . S
C1486 C1498 1.349 . S
C1487 C1485 1.327 . S
C1487 C1503 1.429 . S
C1487 H1509 0.950 . S
C1488 H1484 0.949 . S
C1488 C1496 1.574 . S
C1488 C1504 1.368 . S
H1489 C1497 0.950 . S
H1490 C1495 0.950 . S
H1491 C1496 0.949 . S
H1492 C1498 0.950 . S
H1493 C1499 0.950 . S
H1494 C1500 0.949 . S
C1495 H1490 0.950 . S
C1495 C1497 1.327 . S
C1495 C1501 1.429 . S
C1496 C1488 1.574 . S
C1496 H1491 0.949 . S
C1496 C1502 1.368 . S
C1497 C1481 1.349 . S
C1497 H1489 0.950 . S
C1497 C1495 1.327 . S
C1498 C1486 1.349 . S
C1498 H1492 0.950 . S
C1498 C1499 1.327 . S
C1499 H1493 0.950 . S
C1499 C1498 1.327 . S
C1499 C1503 1.429 . S
C1500 C1483 1.574 . S
C1500 H1494 0.949 . S
C1500 C1504 1.368 . S
C1501 C1482 1.429 . S
C1501 C1495 1.429 . S
C1501 C1502 1.523 . S
C1502 C1483 1.368 . S
C1502 C1496 1.368 . S
C1502 C1501 1.523 . S
C1503 C1487 1.429 . S
C1503 C1499 1.429 . S
C1503 C1504 1.523 . S
C1504 C1488 1.368 . S
C1504 C1500 1.368 . S
C1504 C1503 1.523 . S
H1505 C1480 0.950 . S
H1506 C1482 0.950 . S
H1507 C1483 0.949 . S
H1508 C1485 0.950 . S
H1509 C1487 0.950 . S
C1510 C1511 1.349 . S
C1510 C1512 1.327 . S
C1510 H1535 0.950 . S
C1511 C1510 1.349 . S
C1511 C1527 1.349 . S
C1512 C1510 1.327 . S
C1512 C1531 1.429 . S
C1512 H1536 0.950 . S
C1513 C1530 1.574 . S
C1513 C1532 1.368 . S
C1513 H1537 0.949 . S
H1514 C1518 0.949 . S
C1515 C1516 1.349 . S
C1515 C1517 1.327 . S
C1515 H1538 0.950 . S
C1516 C1515 1.349 . S
C1516 C1528 1.349 . S
C1517 C1515 1.327 . S
C1517 C1533 1.429 . S
C1517 H1539 0.950 . S
C1518 H1514 0.949 . S
C1518 C1526 1.574 . S
C1518 C1534 1.368 . S
H1519 C1527 0.950 . S
H1520 C1525 0.950 . S
H1521 C1526 0.949 . S
H1522 C1528 0.950 . S
H1523 C1529 0.950 . S
H1524 C1530 0.949 . S
C1525 H1520 0.950 . S
C1525 C1527 1.327 . S
C1525 C1531 1.429 . S
C1526 C1518 1.574 . S
C1526 H1521 0.949 . S
C1526 C1532 1.368 . S
C1527 C1511 1.349 . S
C1527 H1519 0.950 . S
C1527 C1525 1.327 . S
C1528 C1516 1.349 . S
C1528 H1522 0.950 . S
C1528 C1529 1.327 . S
C1529 H1523 0.950 . S
C1529 C1528 1.327 . S
C1529 C1533 1.429 . S
C1530 C1513 1.574 . S
C1530 H1524 0.949 . S
C1530 C1534 1.368 . S
C1531 C1512 1.429 . S
C1531 C1525 1.429 . S
C1531 C1532 1.523 . S
C1532 C1513 1.368 . S
C1532 C1526 1.368 . S
C1532 C1531 1.523 . S
C1533 C1517 1.429 . S
C1533 C1529 1.429 . S
C1533 C1534 1.523 . S
C1534 C1518 1.368 . S
C1534 C1530 1.368 . S
C1534 C1533 1.523 . S
H1535 C1510 0.950 . S
H1536 C1512 0.950 . S
H1537 C1513 0.949 . S
H1538 C1515 0.950 . S
H1539 C1517 0.950 . S
C1540 C1541 1.349 . S
C1540 C1542 1.327 . S
C1540 H1565 0.950 . S
C1541 C1540 1.349 . S
C1541 C1557 1.349 . S
C1542 C1540 1.327 . S
C1542 C1561 1.429 . S
C1542 H1566 0.950 . S
C1543 C1560 1.574 . S
C1543 C1562 1.368 . S
C1543 H1567 0.949 . S
H1544 C1548 0.949 . S
C1545 C1546 1.349 . S
C1545 C1547 1.327 . S
C1545 H1568 0.950 . S
C1546 C1545 1.349 . S
C1546 C1558 1.349 . S
C1547 C1545 1.327 . S
C1547 C1563 1.429 . S
C1547 H1569 0.950 . S
C1548 H1544 0.949 . S
C1548 C1556 1.574 . S
C1548 C1564 1.368 . S
H1549 C1557 0.950 . S
H1550 C1555 0.950 . S
H1551 C1556 0.949 . S
H1552 C1558 0.950 . S
H1553 C1559 0.950 . S
H1554 C1560 0.949 . S
C1555 H1550 0.950 . S
C1555 C1557 1.327 . S
C1555 C1561 1.429 . S
C1556 C1548 1.574 . S
C1556 H1551 0.949 . S
C1556 C1562 1.368 . S
C1557 C1541 1.349 . S
C1557 H1549 0.950 . S
C1557 C1555 1.327 . S
C1558 C1546 1.349 . S
C1558 H1552 0.950 . S
C1558 C1559 1.327 . S
C1559 H1553 0.950 . S
C1559 C1558 1.327 . S
C1559 C1563 1.429 . S
C1560 C1543 1.574 . S
C1560 H1554 0.949 . S
C1560 C1564 1.368 . S
C1561 C1542 1.429 . S
C1561 C1555 1.429 . S
C1561 C1562 1.523 . S
C1562 C1543 1.368 . S
C1562 C1556 1.368 . S
C1562 C1561 1.523 . S
C1563 C1547 1.429 . S
C1563 C1559 1.429 . S
C1563 C1564 1.523 . S
C1564 C1548 1.368 . S
C1564 C1560 1.368 . S
C1564 C1563 1.523 . S
H1565 C1540 0.950 . S
H1566 C1542 0.950 . S
H1567 C1543 0.949 . S
H1568 C1545 0.950 . S
H1569 C1547 0.950 . S
C1570 C1571 1.349 . S
C1570 C1572 1.327 . S
C1570 H1595 0.961 . S
C1571 C1570 1.349 . S
C1571 C1587 1.349 . S
C1572 C1570 1.327 . S
C1572 C1591 1.429 . S
C1572 H1596 0.959 . S
C1573 C1590 1.574 . S
C1573 C1592 1.368 . S
C1573 H1597 0.949 . S
H1574 C1578 0.957 . S
C1575 C1576 1.349 . S
C1575 C1577 1.327 . S
C1575 H1598 0.950 . S
C1576 C1575 1.349 . S
C1576 C1588 1.349 . S
C1577 C1575 1.327 . S
C1577 C1593 1.429 . S
C1577 H1599 0.950 . S
C1578 H1574 0.957 . S
C1578 C1586 1.574 . S
C1578 C1594 1.368 . S
H1579 C1587 0.950 . S
H1580 C1585 0.950 . S
H1581 C1586 0.957 . S
H1582 C1588 0.961 . S
H1583 C1589 0.959 . S
H1584 C1590 0.949 . S
C1585 H1580 0.950 . S
C1585 C1587 1.327 . S
C1585 C1591 1.429 . S
C1586 C1578 1.574 . S
C1586 H1581 0.957 . S
C1586 C1592 1.368 1_554 S
C1587 C1571 1.349 . S
C1587 H1579 0.950 . S
C1587 C1585 1.327 . S
C1588 C1576 1.349 . S
C1588 H1582 0.961 . S
C1588 C1589 1.327 . S
C1589 H1583 0.959 . S
C1589 C1588 1.327 . S
C1589 C1593 1.429 . S
C1590 C1573 1.574 . S
C1590 H1584 0.949 . S
C1590 C1594 1.368 1_556 S
C1591 C1572 1.429 . S
C1591 C1585 1.429 . S
C1591 C1592 1.523 . S
C1592 C1573 1.368 . S
C1592 C1586 1.368 1_556 S
C1592 C1591 1.523 . S
C1593 C1577 1.429 . S
C1593 C1589 1.429 . S
C1593 C1594 1.523 . S
C1594 C1578 1.368 . S
C1594 C1590 1.368 1_554 S
C1594 C1593 1.523 . S
H1595 C1570 0.961 . S
H1596 C1572 0.959 . S
H1597 C1573 0.949 . S
H1598 C1575 0.950 . S
H1599 C1577 0.950 . S
C1600 C1601 1.349 . S
C1600 C1602 1.327 . S
C1600 H1625 0.950 . S
C1601 C1600 1.349 . S
C1601 C1617 1.349 . S
C1602 C1600 1.327 . S
C1602 C1621 1.429 . S
C1602 H1626 0.950 . S
C1603 C1620 1.574 . S
C1603 C1622 1.368 . S
C1603 H1627 0.949 . S
H1604 C1608 0.949 . S
C1605 C1606 1.349 . S
C1605 C1607 1.327 . S
C1605 H1628 0.950 . S
C1606 C1605 1.349 . S
C1606 C1618 1.349 . S
C1607 C1605 1.327 . S
C1607 C1623 1.429 . S
C1607 H1629 0.950 . S
C1608 H1604 0.949 . S
C1608 C1616 1.574 . S
C1608 C1624 1.368 . S
H1609 C1617 0.950 . S
H1610 C1615 0.950 . S
H1611 C1616 0.949 . S
H1612 C1618 0.950 . S
H1613 C1619 0.950 . S
H1614 C1620 0.949 . S
C1615 H1610 0.950 . S
C1615 C1617 1.327 . S
C1615 C1621 1.429 . S
C1616 C1608 1.574 . S
C1616 H1611 0.949 . S
C1616 C1622 1.368 . S
C1617 C1601 1.349 . S
C1617 H1609 0.950 . S
C1617 C1615 1.327 . S
C1618 C1606 1.349 . S
C1618 H1612 0.950 . S
C1618 C1619 1.327 . S
C1619 H1613 0.950 . S
C1619 C1618 1.327 . S
C1619 C1623 1.429 . S
C1620 C1603 1.574 . S
C1620 H1614 0.949 . S
C1620 C1624 1.368 . S
C1621 C1602 1.429 . S
C1621 C1615 1.429 . S
C1621 C1622 1.523 . S
C1622 C1603 1.368 . S
C1622 C1616 1.368 . S
C1622 C1621 1.523 . S
C1623 C1607 1.429 . S
C1623 C1619 1.429 . S
C1623 C1624 1.523 . S
C1624 C1608 1.368 . S
C1624 C1620 1.368 . S
C1624 C1623 1.523 . S
H1625 C1600 0.950 . S
H1626 C1602 0.950 . S
H1627 C1603 0.949 . S
H1628 C1605 0.950 . S
H1629 C1607 0.950 . S
C1630 C1631 1.349 . S
C1630 C1632 1.327 . S
C1630 H1655 0.950 . S
C1631 C1630 1.349 . S
C1631 C1647 1.349 . S
C1632 C1630 1.327 . S
C1632 C1651 1.429 . S
C1632 H1656 0.950 . S
C1633 C1650 1.574 . S
C1633 C1652 1.368 . S
C1633 H1657 0.949 . S
H1634 C1638 0.949 . S
C1635 C1636 1.349 . S
C1635 C1637 1.327 . S
C1635 H1658 0.950 . S
C1636 C1635 1.349 . S
C1636 C1648 1.349 . S
C1637 C1635 1.327 . S
C1637 C1653 1.429 . S
C1637 H1659 0.950 . S
C1638 H1634 0.949 . S
C1638 C1646 1.574 . S
C1638 C1654 1.368 . S
H1639 C1647 0.950 . S
H1640 C1645 0.950 . S
H1641 C1646 0.949 . S
H1642 C1648 0.950 . S
H1643 C1649 0.950 . S
H1644 C1650 0.949 . S
C1645 H1640 0.950 . S
C1645 C1647 1.327 . S
C1645 C1651 1.429 . S
C1646 C1638 1.574 . S
C1646 H1641 0.949 . S
C1646 C1652 1.368 . S
C1647 C1631 1.349 . S
C1647 H1639 0.950 . S
C1647 C1645 1.327 . S
C1648 C1636 1.349 . S
C1648 H1642 0.950 . S
C1648 C1649 1.327 . S
C1649 H1643 0.950 . S
C1649 C1648 1.327 . S
C1649 C1653 1.429 . S
C1650 C1633 1.574 . S
C1650 H1644 0.949 . S
C1650 C1654 1.368 . S
C1651 C1632 1.429 . S
C1651 C1645 1.429 . S
C1651 C1652 1.523 . S
C1652 C1633 1.368 . S
C1652 C1646 1.368 . S
C1652 C1651 1.523 . S
C1653 C1637 1.429 . S
C1653 C1649 1.429 . S
C1653 C1654 1.523 . S
C1654 C1638 1.368 . S
C1654 C1650 1.368 . S
C1654 C1653 1.523 . S
H1655 C1630 0.950 . S
H1656 C1632 0.950 . S
H1657 C1633 0.949 . S
H1658 C1635 0.950 . S
H1659 C1637 0.950 . S
C1660 C1661 1.349 . S
C1660 C1662 1.327 . S
C1660 H1685 0.950 . S
C1661 C1660 1.349 . S
C1661 C1677 1.349 . S
C1662 C1660 1.327 . S
C1662 C1681 1.429 . S
C1662 H1686 0.950 . S
C1663 C1680 1.574 . S
C1663 C1682 1.368 . S
C1663 H1687 0.949 . S
H1664 C1668 0.949 . S
C1665 C1666 1.349 . S
C1665 C1667 1.327 . S
C1665 H1688 0.950 . S
C1666 C1665 1.349 . S
C1666 C1678 1.349 . S
C1667 C1665 1.327 . S
C1667 C1683 1.429 . S
C1667 H1689 0.950 . S
C1668 H1664 0.949 . S
C1668 C1676 1.574 . S
C1668 C1684 1.368 . S
H1669 C1677 0.950 . S
H1670 C1675 0.950 . S
H1671 C1676 0.949 . S
H1672 C1678 0.950 . S
H1673 C1679 0.950 . S
H1674 C1680 0.949 . S
C1675 H1670 0.950 . S
C1675 C1677 1.327 . S
C1675 C1681 1.429 . S
C1676 C1668 1.574 . S
C1676 H1671 0.949 . S
C1676 C1682 1.368 . S
C1677 C1661 1.349 . S
C1677 H1669 0.950 . S
C1677 C1675 1.327 . S
C1678 C1666 1.349 . S
C1678 H1672 0.950 . S
C1678 C1679 1.327 . S
C1679 H1673 0.950 . S
C1679 C1678 1.327 . S
C1679 C1683 1.429 . S
C1680 C1663 1.574 . S
C1680 H1674 0.949 . S
C1680 C1684 1.368 . S
C1681 C1662 1.429 . S
C1681 C1675 1.429 . S
C1681 C1682 1.523 . S
C1682 C1663 1.368 . S
C1682 C1676 1.368 . S
C1682 C1681 1.523 . S
C1683 C1667 1.429 . S
C1683 C1679 1.429 . S
C1683 C1684 1.523 . S
C1684 C1668 1.368 . S
C1684 C1680 1.368 . S
C1684 C1683 1.523 . S
H1685 C1660 0.950 . S
H1686 C1662 0.950 . S
H1687 C1663 0.949 . S
H1688 C1665 0.950 . S
H1689 C1667 0.950 . S
C1690 C1691 1.349 . S
C1690 C1692 1.327 . S
C1690 H1715 0.950 . S
C1691 C1690 1.349 . S
C1691 C1707 1.349 . S
C1692 C1690 1.327 . S
C1692 C1711 1.429 . S
C1692 H1716 0.950 . S
C1693 C1710 1.574 . S
C1693 C1712 1.368 . S
C1693 H1717 0.949 . S
H1694 C1698 0.949 . S
C1695 C1696 1.349 . S
C1695 C1697 1.327 . S
C1695 H1718 0.950 . S
C1696 C1695 1.349 . S
C1696 C1708 1.349 . S
C1697 C1695 1.327 . S
C1697 C1713 1.429 . S
C1697 H1719 0.950 . S
C1698 H1694 0.949 . S
C1698 C1706 1.574 . S
C1698 C1714 1.368 . S
H1699 C1707 0.950 . S
H1700 C1705 0.950 . S
H1701 C1706 0.949 . S
H1702 C1708 0.950 . S
H1703 C1709 0.950 . S
H1704 C1710 0.949 . S
C1705 H1700 0.950 . S
C1705 C1707 1.327 . S
C1705 C1711 1.429 . S
C1706 C1698 1.574 . S
C1706 H1701 0.949 . S
C1706 C1712 1.368 . S
C1707 C1691 1.349 . S
C1707 H1699 0.950 . S
C1707 C1705 1.327 . S
C1708 C1696 1.349 . S
C1708 H1702 0.950 . S
C1708 C1709 1.327 . S
C1709 H1703 0.950 . S
C1709 C1708 1.327 . S
C1709 C1713 1.429 . S
C1710 C1693 1.574 . S
C1710 H1704 0.949 . S
C1710 C1714 1.368 . S
C1711 C1692 1.429 . S
C1711 C1705 1.429 . S
C1711 C1712 1.523 . S
C1712 C1693 1.368 . S
C1712 C1706 1.368 . S
C1712 C1711 1.523 . S
C1713 C1697 1.429 . S
C1713 C1709 1.429 . S
C1713 C1714 1.523 . S
C1714 C1698 1.368 . S
C1714 C1710 1.368 . S
C1714 C1713 1.523 . S
H1715 C1690 0.950 . S
H1716 C1692 0.950 . S
H1717 C1693 0.949 . S
H1718 C1695 0.950 . S
H1719 C1697 0.950 . S
C1720 C1721 1.349 . S
C1720 C1722 1.327 . S
C1720 H1745 0.950 . S
C1721 C1720 1.349 . S
C1721 C1737 1.349 . S
C1722 C1720 1.327 . S
C1722 C1741 1.429 . S
C1722 H1746 0.950 . S
C1723 C1740 1.574 . S
C1723 C1742 1.368 . S
C1723 H1747 0.949 . S
H1724 C1728 0.949 . S
C1725 C1726 1.349 . S
C1725 C1727 1.327 . S
C1725 H1748 0.950 . S
C1726 C1725 1.349 . S
C1726 C1738 1.349 . S
C1727 C1725 1.327 . S
C1727 C1743 1.429 . S
C1727 H1749 0.950 . S
C1728 H1724 0.949 . S
C1728 C1736 1.574 . S
C1728 C1744 1.368 . S
H1729 C1737 0.950 . S
H1730 C1735 0.950 . S
H1731 C1736 0.949 . S
H1732 C1738 0.950 . S
H1733 C1739 0.950 . S
H1734 C1740 0.949 . S
C1735 H1730 0.950 . S
C1735 C1737 1.327 . S
C1735 C1741 1.429 . S
C1736 C1728 1.574 . S
C1736 H1731 0.949 . S
C1736 C1742 1.368 . S
C1737 C1721 1.349 . S
C1737 H1729 0.950 . S
C1737 C1735 1.327 . S
C1738 C1726 1.349 . S
C1738 H1732 0.950 . S
C1738 C1739 1.327 . S
C1739 H1733 0.950 . S
C1739 C1738 1.327 . S
C1739 C1743 1.429 . S
C1740 C1723 1.574 . S
C1740 H1734 0.949 . S
C1740 C1744 1.368 . S
C1741 C1722 1.429 . S
C1741 C1735 1.429 . S
C1741 C1742 1.523 . S
C1742 C1723 1.368 . S
C1742 C1736 1.368 . S
C1742 C1741 1.523 . S
C1743 C1727 1.429 . S
C1743 C1739 1.429 . S
C1743 C1744 1.523 . S
C1744 C1728 1.368 . S
C1744 C1740 1.368 . S
C1744 C1743 1.523 . S
H1745 C1720 0.950 . S
H1746 C1722 0.950 . S
H1747 C1723 0.949 . S
H1748 C1725 0.950 . S
H1749 C1727 0.950 . S
C1750 C1751 1.349 . S
C1750 C1752 1.327 . S
C1750 H1775 0.950 . S
C1751 C1750 1.349 . S
C1751 C1767 1.349 . S
C1752 C1750 1.327 . S
C1752 C1771 1.429 . S
C1752 H1776 0.950 . S
C1753 C1770 1.574 . S
C1753 C1772 1.368 . S
C1753 H1777 0.949 . S
H1754 C1758 0.949 . S
C1755 C1756 1.349 . S
C1755 C1757 1.327 . S
C1755 H1778 0.950 . S
C1756 C1755 1.349 . S
C1756 C1768 1.349 . S
C1757 C1755 1.327 . S
C1757 C1773 1.429 . S
C1757 H1779 0.950 . S
C1758 H1754 0.949 . S
C1758 C1766 1.574 . S
C1758 C1774 1.368 . S
H1759 C1767 0.950 . S
H1760 C1765 0.950 . S
H1761 C1766 0.949 . S
H1762 C1768 0.950 . S
H1763 C1769 0.950 . S
H1764 C1770 0.949 . S
C1765 H1760 0.950 . S
C1765 C1767 1.327 . S
C1765 C1771 1.429 . S
C1766 C1758 1.574 . S
C1766 H1761 0.949 . S
C1766 C1772 1.368 . S
C1767 C1751 1.349 . S
C1767 H1759 0.950 . S
C1767 C1765 1.327 . S
C1768 C1756 1.349 . S
C1768 H1762 0.950 . S
C1768 C1769 1.327 . S
C1769 H1763 0.950 . S
C1769 C1768 1.327 . S
C1769 C1773 1.429 . S
C1770 C1753 1.574 . S
C1770 H1764 0.949 . S
C1770 C1774 1.368 . S
C1771 C1752 1.429 . S
C1771 C1765 1.429 . S
C1771 C1772 1.523 . S
C1772 C1753 1.368 . S
C1772 C1766 1.368 . S
C1772 C1771 1.523 . S
C1773 C1757 1.429 . S
C1773 C1769 1.429 . S
C1773 C1774 1.523 . S
C1774 C1758 1.368 . S
C1774 C1770 1.368 . S
C1774 C1773 1.523 . S
H1775 C1750 0.950 . S
H1776 C1752 0.950 . S
H1777 C1753 0.949 . S
H1778 C1755 0.950 . S
H1779 C1757 0.950 . S
C1780 C1781 1.349 . S
C1780 C1782 1.327 . S
C1780 H1805 0.950 . S
C1781 C1780 1.349 . S
C1781 C1797 1.349 . S
C1782 C1780 1.327 . S
C1782 C1801 1.429 . S
C1782 H1806 0.950 . S
C1783 C1800 1.574 . S
C1783 C1802 1.368 . S
C1783 H1807 0.949 . S
H1784 C1788 0.949 . S
C1785 C1786 1.349 . S
C1785 C1787 1.327 . S
C1785 H1808 0.950 . S
C1786 C1785 1.349 . S
C1786 C1798 1.349 . S
C1787 C1785 1.327 . S
C1787 C1803 1.429 . S
C1787 H1809 0.950 . S
C1788 H1784 0.949 . S
C1788 C1796 1.574 . S
C1788 C1804 1.368 . S
H1789 C1797 0.950 . S
H1790 C1795 0.950 . S
H1791 C1796 0.949 . S
H1792 C1798 0.950 . S
H1793 C1799 0.950 . S
H1794 C1800 0.949 . S
C1795 H1790 0.950 . S
C1795 C1797 1.327 . S
C1795 C1801 1.429 . S
C1796 C1788 1.574 . S
C1796 H1791 0.949 . S
C1796 C1802 1.368 . S
C1797 C1781 1.349 . S
C1797 H1789 0.950 . S
C1797 C1795 1.327 . S
C1798 C1786 1.349 . S
C1798 H1792 0.950 . S
C1798 C1799 1.327 . S
C1799 H1793 0.950 . S
C1799 C1798 1.327 . S
C1799 C1803 1.429 . S
C1800 C1783 1.574 . S
C1800 H1794 0.949 . S
C1800 C1804 1.368 . S
C1801 C1782 1.429 . S
C1801 C1795 1.429 . S
C1801 C1802 1.523 . S
C1802 C1783 1.368 . S
C1802 C1796 1.368 . S
C1802 C1801 1.523 . S
C1803 C1787 1.429 . S
C1803 C1799 1.429 . S
C1803 C1804 1.523 . S
C1804 C1788 1.368 . S
C1804 C1800 1.368 . S
C1804 C1803 1.523 . S
H1805 C1780 0.950 . S
H1806 C1782 0.950 . S
H1807 C1783 0.949 . S
H1808 C1785 0.950 . S
H1809 C1787 0.950 . S
C1810 C1811 1.349 . S
C1810 C1812 1.327 . S
C1810 H1835 0.950 . S
C1811 C1810 1.349 . S
C1811 C1827 1.349 . S
C1812 C1810 1.327 . S
C1812 C1831 1.429 . S
C1812 H1836 0.950 . S
C1813 C1830 1.574 . S
C1813 C1832 1.368 . S
C1813 H1837 0.949 . S
H1814 C1818 0.949 . S
C1815 C1816 1.349 . S
C1815 C1817 1.327 . S
C1815 H1838 0.950 . S
C1816 C1815 1.349 . S
C1816 C1828 1.349 . S
C1817 C1815 1.327 . S
C1817 C1833 1.429 . S
C1817 H1839 0.950 . S
C1818 H1814 0.949 . S
C1818 C1826 1.574 . S
C1818 C1834 1.368 . S
H1819 C1827 0.950 . S
H1820 C1825 0.950 . S
H1821 C1826 0.949 . S
H1822 C1828 0.950 . S
H1823 C1829 0.950 . S
H1824 C1830 0.949 . S
C1825 H1820 0.950 . S
C1825 C1827 1.327 . S
C1825 C1831 1.429 . S
C1826 C1818 1.574 . S
C1826 H1821 0.949 . S
C1826 C1832 1.368 . S
C1827 C1811 1.349 . S
C1827 H1819 0.950 . S
C1827 C1825 1.327 . S
C1828 C1816 1.349 . S
C1828 H1822 0.950 . S
C1828 C1829 1.327 . S
C1829 H1823 0.950 . S
C1829 C1828 1.327 . S
C1829 C1833 1.429 . S
C1830 C1813 1.574 . S
C1830 H1824 0.949 . S
C1830 C1834 1.368 . S
C1831 C1812 1.429 . S
C1831 C1825 1.429 . S
C1831 C1832 1.523 . S
C1832 C1813 1.368 . S
C1832 C1826 1.368 . S
C1832 C1831 1.523 . S
C1833 C1817 1.429 . S
C1833 C1829 1.429 . S
C1833 C1834 1.523 . S
C1834 C1818 1.368 . S
C1834 C1830 1.368 . S
C1834 C1833 1.523 . S
H1835 C1810 0.950 . S
H1836 C1812 0.950 . S
H1837 C1813 0.949 . S
H1838 C1815 0.950 . S
H1839 C1817 0.950 . S
C1840 C1841 1.349 . S
C1840 C1842 1.327 . S
C1840 H1865 0.950 . S
C1841 C1840 1.349 . S
C1841 C1857 1.349 . S
C1842 C1840 1.327 . S
C1842 C1861 1.429 . S
C1842 H1866 0.950 . S
C1843 C1860 1.574 . S
C1843 C1862 1.368 . S
C1843 H1867 0.949 . S
H1844 C1848 0.949 . S
C1845 C1846 1.349 . S
C1845 C1847 1.327 . S
C1845 H1868 0.950 . S
C1846 C1845 1.349 . S
C1846 C1858 1.349 . S
C1847 C1845 1.327 . S
C1847 C1863 1.429 . S
C1847 H1869 0.950 . S
C1848 H1844 0.949 . S
C1848 C1856 1.574 . S
C1848 C1864 1.368 . S
H1849 C1857 0.950 . S
H1850 C1855 0.950 . S
H1851 C1856 0.949 . S
H1852 C1858 0.950 . S
H1853 C1859 0.950 . S
H1854 C1860 0.949 . S
C1855 H1850 0.950 . S
C1855 C1857 1.327 . S
C1855 C1861 1.429 . S
C1856 C1848 1.574 . S
C1856 H1851 0.949 . S
C1856 C1862 1.368 . S
C1857 C1841 1.349 . S
C1857 H1849 0.950 . S
C1857 C1855 1.327 . S
C1858 C1846 1.349 . S
C1858 H1852 0.950 . S
C1858 C1859 1.327 . S
C1859 H1853 0.950 . S
C1859 C1858 1.327 . S
C1859 C1863 1.429 . S
C1860 C1843 1.574 . S
C1860 H1854 0.949 . S
C1860 C1864 1.368 . S
C1861 C1842 1.429 . S
C1861 C1855 1.429 . S
C1861 C1862 1.523 . S
C1862 C1843 1.368 . S
C1862 C1856 1.368 . S
C1862 C1861 1.523 . S
C1863 C1847 1.429 . S
C1863 C1859 1.429 . S
C1863 C1864 1.523 . S
C1864 C1848 1.368 . S
C1864 C1860 1.368 . S
C1864 C1863 1.523 . S
H1865 C1840 0.950 . S
H1866 C1842 0.950 . S
H1867 C1843 0.949 . S
H1868 C1845 0.950 . S
H1869 C1847 0.950 . S
C1870 C1871 1.349 . S
C1870 C1872 1.327 . S
C1870 H1895 0.950 . S
C1871 C1870 1.349 . S
C1871 C1887 1.349 . S
C1872 C1870 1.327 . S
C1872 C1891 1.429 . S
C1872 H1896 0.950 . S
C1873 C1890 1.574 . S
C1873 C1892 1.368 . S
C1873 H1897 0.949 . S
H1874 C1878 0.949 . S
C1875 C1876 1.349 . S
C1875 C1877 1.327 . S
C1875 H1898 0.950 . S
C1876 C1875 1.349 . S
C1876 C1888 1.349 . S
C1877 C1875 1.327 . S
C1877 C1893 1.429 . S
C1877 H1899 0.950 . S
C1878 H1874 0.949 . S
C1878 C1886 1.574 . S
C1878 C1894 1.368 . S
H1879 C1887 0.950 . S
H1880 C1885 0.950 . S
H1881 C1886 0.949 . S
H1882 C1888 0.950 . S
H1883 C1889 0.950 . S
H1884 C1890 0.949 . S
C1885 H1880 0.950 . S
C1885 C1887 1.327 . S
C1885 C1891 1.429 . S
C1886 C1878 1.574 . S
C1886 H1881 0.949 . S
C1886 C1892 1.368 . S
C1887 C1871 1.349 . S
C1887 H1879 0.950 . S
C1887 C1885 1.327 . S
C1888 C1876 1.349 . S
C1888 H1882 0.950 . S
C1888 C1889 1.327 . S
C1889 H1883 0.950 . S
C1889 C1888 1.327 . S
C1889 C1893 1.429 . S
C1890 C1873 1.574 . S
C1890 H1884 0.949 . S
C1890 C1894 1.368 . S
C1891 C1872 1.429 . S
C1891 C1885 1.429 . S
C1891 C1892 1.523 . S
C1892 C1873 1.368 . S
C1892 C1886 1.368 . S
C1892 C1891 1.523 . S
C1893 C1877 1.429 . S
C1893 C1889 1.429 . S
C1893 C1894 1.523 . S
C1894 C1878 1.368 . S
C1894 C1890 1.368 . S
C1894 C1893 1.523 . S
H1895 C1870 0.950 . S
H1896 C1872 0.950 . S
H1897 C1873 0.949 . S
H1898 C1875 0.950 . S
H1899 C1877 0.950 . S
C1900 C1901 1.349 . S
C1900 C1902 1.327 . S
C1900 H1925 0.950 . S
C1901 C1900 1.349 . S
C1901 C1917 1.349 . S
C1902 C1900 1.327 . S
C1902 C1921 1.429 . S
C1902 H1926 0.950 . S
C1903 C1920 1.574 . S
C1903 C1922 1.368 . S
C1903 H1927 0.949 . S
H1904 C1908 0.949 . S
C1905 C1906 1.349 . S
C1905 C1907 1.327 . S
C1905 H1928 0.950 . S
C1906 C1905 1.349 . S
C1906 C1918 1.349 . S
C1907 C1905 1.327 . S
C1907 C1923 1.429 . S
C1907 H1929 0.950 . S
C1908 H1904 0.949 . S
C1908 C1916 1.574 . S
C1908 C1924 1.368 . S
H1909 C1917 0.950 . S
H1910 C1915 0.950 . S
H1911 C1916 0.949 . S
H1912 C1918 0.950 . S
H1913 C1919 0.950 . S
H1914 C1920 0.949 . S
C1915 H1910 0.950 . S
C1915 C1917 1.327 . S
C1915 C1921 1.429 . S
C1916 C1908 1.574 . S
C1916 H1911 0.949 . S
C1916 C1922 1.368 . S
C1917 C1901 1.349 . S
C1917 H1909 0.950 . S
C1917 C1915 1.327 . S
C1918 C1906 1.349 . S
C1918 H1912 0.950 . S
C1918 C1919 1.327 . S
C1919 H1913 0.950 . S
C1919 C1918 1.327 . S
C1919 C1923 1.429 . S
C1920 C1903 1.574 . S
C1920 H1914 0.949 . S
C1920 C1924 1.368 . S
C1921 C1902 1.429 . S
C1921 C1915 1.429 . S
C1921 C1922 1.523 . S
C1922 C1903 1.368 . S
C1922 C1916 1.368 . S
C1922 C1921 1.523 . S
C1923 C1907 1.429 . S
C1923 C1919 1.429 . S
C1923 C1924 1.523 . S
C1924 C1908 1.368 . S
C1924 C1920 1.368 . S
C1924 C1923 1.523 . S
H1925 C1900 0.950 . S
H1926 C1902 0.950 . S
H1927 C1903 0.949 . S
H1928 C1905 0.950 . S
H1929 C1907 0.950 . S
C1930 C1931 1.349 . S
C1930 C1932 1.327 . S
C1930 H1955 0.950 . S
C1931 C1930 1.349 . S
C1931 C1947 1.349 . S
C1932 C1930 1.327 . S
C1932 C1951 1.429 . S
C1932 H1956 0.950 . S
C1933 C1950 1.574 . S
C1933 C1952 1.368 . S
C1933 H1957 0.949 . S
H1934 C1938 0.949 . S
C1935 C1936 1.349 . S
C1935 C1937 1.327 . S
C1935 H1958 0.950 . S
C1936 C1935 1.349 . S
C1936 C1948 1.349 . S
C1937 C1935 1.327 . S
C1937 C1953 1.429 . S
C1937 H1959 0.950 . S
C1938 H1934 0.949 . S
C1938 C1946 1.574 . S
C1938 C1954 1.368 . S
H1939 C1947 0.950 . S
H1940 C1945 0.950 . S
H1941 C1946 0.949 . S
H1942 C1948 0.950 . S
H1943 C1949 0.950 . S
H1944 C1950 0.949 . S
C1945 H1940 0.950 . S
C1945 C1947 1.327 . S
C1945 C1951 1.429 . S
C1946 C1938 1.574 . S
C1946 H1941 0.949 . S
C1946 C1952 1.368 . S
C1947 C1931 1.349 . S
C1947 H1939 0.950 . S
C1947 C1945 1.327 . S
C1948 C1936 1.349 . S
C1948 H1942 0.950 . S
C1948 C1949 1.327 . S
C1949 H1943 0.950 . S
C1949 C1948 1.327 . S
C1949 C1953 1.429 . S
C1950 C1933 1.574 . S
C1950 H1944 0.949 . S
C1950 C1954 1.368 . S
C1951 C1932 1.429 . S
C1951 C1945 1.429 . S
C1951 C1952 1.523 . S
C1952 C1933 1.368 . S
C1952 C1946 1.368 . S
C1952 C1951 1.523 . S
C1953 C1937 1.429 . S
C1953 C1949 1.429 . S
C1953 C1954 1.523 . S
C1954 C1938 1.368 . S
C1954 C1950 1.368 . S
C1954 C1953 1.523 . S
H1955 C1930 0.950 . S
H1956 C1932 0.950 . S
H1957 C1933 0.949 . S
H1958 C1935 0.950 . S
H1959 C1937 0.950 . S
C1960 C1961 1.349 . S
C1960 C1962 1.327 . S
C1960 H1985 0.950 . S
C1961 C1960 1.349 . S
C1961 C1977 1.349 . S
C1962 C1960 1.327 . S
C1962 C1981 1.429 . S
C1962 H1986 0.950 . S
C1963 C1980 1.574 . S
C1963 C1982 1.368 . S
C1963 H1987 0.949 . S
H1964 C1968 0.949 . S
C1965 C1966 1.349 . S
C1965 C1967 1.327 . S
C1965 H1988 0.950 . S
C1966 C1965 1.349 . S
C1966 C1978 1.349 . S
C1967 C1965 1.327 . S
C1967 C1983 1.429 . S
C1967 H1989 0.950 . S
C1968 H1964 0.949 . S
C1968 C1976 1.574 . S
C1968 C1984 1.368 . S
H1969 C1977 0.950 . S
H1970 C1975 0.950 . S
H1971 C1976 0.949 . S
H1972 C1978 0.950 . S
H1973 C1979 0.950 . S
H1974 C1980 0.949 . S
C1975 H1970 0.950 . S
C1975 C1977 1.327 . S
C1975 C1981 1.429 . S
C1976 C1968 1.574 . S
C1976 H1971 0.949 . S
C1976 C1982 1.368 . S
C1977 C1961 1.349 . S
C1977 H1969 0.950 . S
C1977 C1975 1.327 . S
C1978 C1966 1.349 . S
C1978 H1972 0.950 . S
C1978 C1979 1.327 . S
C1979 H1973 0.950 . S
C1979 C1978 1.327 . S
C1979 C1983 1.429 . S
C1980 C1963 1.574 . S
C1980 H1974 0.949 . S
C1980 C1984 1.368 . S
C1981 C1962 1.429 . S
C1981 C1975 1.429 . S
C1981 C1982 1.523 . S
C1982 C1963 1.368 . S
C1982 C1976 1.368 . S
C1982 C1981 1.523 . S
C1983 C1967 1.429 . S
C1983 C1979 1.429 . S
C1983 C1984 1.523 . S
C1984 C1968 1.368 . S
C1984 C1980 1.368 . S
C1984 C1983 1.523 . S
H1985 C1960 0.950 . S
H1986 C1962 0.950 . S
H1987 C1963 0.949 . S
H1988 C1965 0.950 . S
H1989 C1967 0.950 . S
C1990 C1991 1.349 . S
C1990 C1992 1.327 . S
C1990 H2015 0.950 . S
C1991 C1990 1.349 . S
C1991 C2007 1.349 . S
C1992 C1990 1.327 . S
C1992 C2011 1.429 . S
C1992 H2016 0.950 . S
C1993 C2010 1.574 . S
C1993 C2012 1.368 . S
C1993 H2017 0.949 . S
H1994 C1998 0.949 . S
C1995 C1996 1.349 . S
C1995 C1997 1.327 . S
C1995 H2018 0.950 . S
C1996 C1995 1.349 . S
C1996 C2008 1.349 . S
C1997 C1995 1.327 . S
C1997 C2013 1.429 . S
C1997 H2019 0.950 . S
C1998 H1994 0.949 . S
C1998 C2006 1.574 . S
C1998 C2014 1.368 . S
H1999 C2007 0.950 . S
H2000 C2005 0.950 . S
H2001 C2006 0.949 . S
H2002 C2008 0.950 . S
H2003 C2009 0.950 . S
H2004 C2010 0.949 . S
C2005 H2000 0.950 . S
C2005 C2007 1.327 . S
C2005 C2011 1.429 . S
C2006 C1998 1.574 . S
C2006 H2001 0.949 . S
C2006 C2012 1.368 . S
C2007 C1991 1.349 . S
C2007 H1999 0.950 . S
C2007 C2005 1.327 . S
C2008 C1996 1.349 . S
C2008 H2002 0.950 . S
C2008 C2009 1.327 . S
C2009 H2003 0.950 . S
C2009 C2008 1.327 . S
C2009 C2013 1.429 . S
C2010 C1993 1.574 . S
C2010 H2004 0.949 . S
C2010 C2014 1.368 . S
C2011 C1992 1.429 . S
C2011 C2005 1.429 . S
C2011 C2012 1.523 . S
C2012 C1993 1.368 . S
C2012 C2006 1.368 . S
C2012 C2011 1.523 . S
C2013 C1997 1.429 . S
C2013 C2009 1.429 . S
C2013 C2014 1.523 . S
C2014 C1998 1.368 . S
C2014 C2010 1.368 . S
C2014 C2013 1.523 . S
H2015 C1990 0.950 . S
H2016 C1992 0.950 . S
H2017 C1993 0.949 . S
H2018 C1995 0.950 . S
H2019 C1997 0.950 . S
C2020 C2021 1.349 . S
C2020 C2022 1.327 . S
C2020 H2045 0.950 . S
C2021 C2020 1.349 . S
C2021 C2037 1.349 . S
C2022 C2020 1.327 . S
C2022 C2041 1.429 . S
C2022 H2046 0.950 . S
C2023 C2040 1.574 . S
C2023 C2042 1.368 . S
C2023 H2047 0.949 . S
H2024 C2028 0.949 . S
C2025 C2026 1.349 . S
C2025 C2027 1.327 . S
C2025 H2048 0.950 . S
C2026 C2025 1.349 . S
C2026 C2038 1.349 . S
C2027 C2025 1.327 . S
C2027 C2043 1.429 . S
C2027 H2049 0.950 . S
C2028 H2024 0.949 . S
C2028 C2036 1.574 . S
C2028 C2044 1.368 . S
H2029 C2037 0.950 . S
H2030 C2035 0.950 . S
H2031 C2036 0.949 . S
H2032 C2038 0.950 . S
H2033 C2039 0.950 . S
H2034 C2040 0.949 . S
C2035 H2030 0.950 . S
C2035 C2037 1.327 . S
C2035 C2041 1.429 . S
C2036 C2028 1.574 . S
C2036 H2031 0.949 . S
C2036 C2042 1.368 . S
C2037 C2021 1.349 . S
C2037 H2029 0.950 . S
C2037 C2035 1.327 . S
C2038 C2026 1.349 . S
C2038 H2032 0.950 . S
C2038 C2039 1.327 . S
C2039 H2033 0.950 . S
C2039 C2038 1.327 . S
C2039 C2043 1.429 . S
C2040 C2023 1.574 . S
C2040 H2034 0.949 . S
C2040 C2044 1.368 . S
C2041 C2022 1.429 . S
C2041 C2035 1.429 . S
C2041 C2042 1.523 . S
C2042 C2023 1.368 . S
C2042 C2036 1.368 . S
C2042 C2041 1.523 . S
C2043 C2027 1.429 . S
C2043 C2039 1.429 . S
C2043 C2044 1.523 . S
C2044 C2028 1.368 . S
C2044 C2040 1.368 . S
C2044 C2043 1.523 . S
H2045 C2020 0.950 . S
H2046 C2022 0.950 . S
H2047 C2023 0.949 . S
H2048 C2025 0.950 . S
H2049 C2027 0.950 . S
C2050 C2051 1.349 . S
C2050 C2052 1.327 . S
C2050 H2075 0.950 . S
C2051 C2050 1.349 . S
C2051 C2067 1.349 . S
C2052 C2050 1.327 . S
C2052 C2071 1.429 . S
C2052 H2076 0.950 . S
C2053 C2070 1.574 . S
C2053 C2072 1.368 . S
C2053 H2077 0.949 . S
H2054 C2058 0.949 . S
C2055 C2056 1.349 . S
C2055 C2057 1.327 . S
C2055 H2078 0.950 . S
C2056 C2055 1.349 . S
C2056 C2068 1.349 . S
C2057 C2055 1.327 . S
C2057 C2073 1.429 . S
C2057 H2079 0.950 . S
C2058 H2054 0.949 . S
C2058 C2066 1.574 . S
C2058 C2074 1.368 . S
H2059 C2067 0.950 . S
H2060 C2065 0.950 . S
H2061 C2066 0.949 . S
H2062 C2068 0.950 . S
H2063 C2069 0.950 . S
H2064 C2070 0.949 . S
C2065 H2060 0.950 . S
C2065 C2067 1.327 . S
C2065 C2071 1.429 . S
C2066 C2058 1.574 . S
C2066 H2061 0.949 . S
C2066 C2072 1.368 . S
C2067 C2051 1.349 . S
C2067 H2059 0.950 . S
C2067 C2065 1.327 . S
C2068 C2056 1.349 . S
C2068 H2062 0.950 . S
C2068 C2069 1.327 . S
C2069 H2063 0.950 . S
C2069 C2068 1.327 . S
C2069 C2073 1.429 . S
C2070 C2053 1.574 . S
C2070 H2064 0.949 . S
C2070 C2074 1.368 . S
C2071 C2052 1.429 . S
C2071 C2065 1.429 . S
C2071 C2072 1.523 . S
C2072 C2053 1.368 . S
C2072 C2066 1.368 . S
C2072 C2071 1.523 . S
C2073 C2057 1.429 . S
C2073 C2069 1.429 . S
C2073 C2074 1.523 . S
C2074 C2058 1.368 . S
C2074 C2070 1.368 . S
C2074 C2073 1.523 . S
H2075 C2050 0.950 . S
H2076 C2052 0.950 . S
H2077 C2053 0.949 . S
H2078 C2055 0.950 . S
H2079 C2057 0.950 . S
C641 C8 2.080 . S
C646 C288 2.080 . S
C671 C48 2.080 . S
C676 C168 2.080 . S
C701 C208 2.080 . S
C706 C88 2.080 . S
C731 C128 2.080 . S
C736 C248 2.080 . S
C761 C471 4.000 . S
C766 C191 4.000 1_654 S
C791 C351 4.000 . S
C796 C31 4.000 1_656 S
C821 C431 4.000 . S
C826 C271 4.000 . S
C851 C111 4.000 . S
C856 C391 4.000 . S
C881 C368 2.080 . S
C886 C488 2.080 . S
C911 C408 2.080 . S
C916 C568 2.080 . S
C941 C528 2.080 . S
C946 C328 2.080 . S
C971 C448 2.080 . S
C976 C608 2.080 . S
C1001 C591 4.000 . S
C1006 C151 4.000 . S
C1031 C511 4.000 . S
C1036 C231 4.000 . S
C1061 C71 4.000 . S
C1066 C631 4.000 1_554 S
C1091 C311 4.000 . S
C1096 C551 4.000 1_556 S
C1121 C537 0.532 . S
C1126 C17 0.532 . S
C1151 C457 0.533 . S
C1156 C57 0.533 . S
C1181 C497 0.532 . S
C1186 C97 0.532 . S
C1211 C417 0.533 . S
C1216 C137 0.533 . S
C1241 C177 0.532 . S
C1246 C617 0.532 . S
C1271 C377 0.533 . S
C1276 C217 0.533 . S
C1301 C257 0.532 . S
C1306 C577 0.532 . S
C1331 C297 0.533 . S
C1336 C337 0.533 . S
C1361 C2 1.289 . S
C1366 C162 1.289 . S
C1391 C42 1.289 . S
C1396 C202 1.289 . S
C1421 C242 1.289 . S
C1426 C82 1.289 . S
C1451 C122 1.289 . S
C1456 C282 1.289 . S
C1481 C402 1.288 . S
C1486 C322 1.288 . S
C1511 C442 1.288 . S
C1516 C362 1.288 . S
C1541 C482 1.289 . S
C1546 C562 1.289 . S
C1571 C602 1.289 . S
C1576 C522 1.289 . S
C1601 C12 4.475 . S
C1606 C292 4.475 . S
C1631 C52 4.475 . S
C1636 C172 4.475 . S
C1661 C212 4.475 1_556 S
C1666 C92 4.475 . S
C1691 C252 4.475 . S
C1696 C132 4.475 1_554 S
C1721 C469 0.605 . S
C1726 C189 0.605 . S
C1751 C349 0.605 . S
C1756 C29 0.605 . S
C1781 C429 0.604 . S
C1786 C269 0.604 . S
C1811 C109 0.604 . S
C1816 C389 0.604 . S
C1841 C492 4.475 . S
C1846 C372 4.475 1_556 S
C1871 C572 4.475 . S
C1876 C412 4.475 1_554 S
C1901 C532 4.475 . S
C1906 C332 4.475 . S
C1931 C612 4.475 . S
C1936 C452 4.475 . S
C1961 C589 0.605 . S
C1966 C149 0.605 . S
C1991 C229 0.605 . S
C1996 C509 0.605 . S
C2021 C69 0.604 . S
C2026 C629 0.604 . S
C2051 C549 0.604 . S
C2056 C309 0.604 . S
