# Generated by pormake.
# Topology snl, (6)-cn, num edge types: 1
# Building blocks:
#     Node 0, Type 0, BuildingBlock: BETFEN_clean_sbu_0, # of connection points: 6
#     Node 1, Type 0, BuildingBlock: BETFEN_clean_sbu_0, # of connection points: 6
#     Node 2, Type 0, BuildingBlock: BETFEN_clean_sbu_0, # of connection points: 6
#     Node 3, Type 0, BuildingBlock: BETFEN_clean_sbu_0, # of connection points: 6
#     Node 4, Type 0, BuildingBlock: BETFEN_clean_sbu_0, # of connection points: 6
#     Node 5, Type 0, BuildingBlock: BETFEN_clean_sbu_0, # of connection points: 6
#     Node 6, Type 0, BuildingBlock: BETFEN_clean_sbu_0, # of connection points: 6
#     Node 7, Type 0, BuildingBlock: BETFEN_clean_sbu_0, # of connection points: 6
#     Node 8, Type 0, BuildingBlock: BETFEN_clean_sbu_0, # of connection points: 6
#     Node 9, Type 0, BuildingBlock: BETFEN_clean_sbu_0, # of connection points: 6
#     Node 10, Type 0, BuildingBlock: BETFEN_clean_sbu_0, # of connection points: 6
#     Node 11, Type 0, BuildingBlock: BETFEN_clean_sbu_0, # of connection points: 6
#     Node 12, Type 0, BuildingBlock: BETFEN_clean_sbu_0, # of connection points: 6
#     Node 13, Type 0, BuildingBlock: BETFEN_clean_sbu_0, # of connection points: 6
#     Node 14, Type 0, BuildingBlock: BETFEN_clean_sbu_0, # of connection points: 6
#     Node 15, Type 0, BuildingBlock: BETFEN_clean_sbu_0, # of connection points: 6
#     Edge 16, Type (0, 0), BuildingBlock: ZUJKAS_clean_linker_0, # of connection points: 2
#     Edge 17, Type (0, 0), BuildingBlock: ZUJKAS_clean_linker_0, # of connection points: 2
#     Edge 18, Type (0, 0), BuildingBlock: ZUJKAS_clean_linker_0, # of connection points: 2
#     Edge 19, Type (0, 0), BuildingBlock: ZUJKAS_clean_linker_0, # of connection points: 2
#     Edge 20, Type (0, 0), BuildingBlock: ZUJKAS_clean_linker_0, # of connection points: 2
#     Edge 21, Type (0, 0), BuildingBlock: ZUJKAS_clean_linker_0, # of connection points: 2
#     Edge 22, Type (0, 0), BuildingBlock: ZUJKAS_clean_linker_0, # of connection points: 2
#     Edge 23, Type (0, 0), BuildingBlock: ZUJKAS_clean_linker_0, # of connection points: 2
#     Edge 24, Type (0, 0), BuildingBlock: ZUJKAS_clean_linker_0, # of connection points: 2
#     Edge 25, Type (0, 0), BuildingBlock: ZUJKAS_clean_linker_0, # of connection points: 2
#     Edge 26, Type (0, 0), BuildingBlock: ZUJKAS_clean_linker_0, # of connection points: 2
#     Edge 27, Type (0, 0), BuildingBlock: ZUJKAS_clean_linker_0, # of connection points: 2
#     Edge 28, Type (0, 0), BuildingBlock: ZUJKAS_clean_linker_0, # of connection points: 2
#     Edge 29, Type (0, 0), BuildingBlock: ZUJKAS_clean_linker_0, # of connection points: 2
#     Edge 30, Type (0, 0), BuildingBlock: ZUJKAS_clean_linker_0, # of connection points: 2
#     Edge 31, Type (0, 0), BuildingBlock: ZUJKAS_clean_linker_0, # of connection points: 2
#     Edge 32, Type (0, 0), BuildingBlock: ZUJKAS_clean_linker_0, # of connection points: 2
#     Edge 33, Type (0, 0), BuildingBlock: ZUJKAS_clean_linker_0, # of connection points: 2
#     Edge 34, Type (0, 0), BuildingBlock: ZUJKAS_clean_linker_0, # of connection points: 2
#     Edge 35, Type (0, 0), BuildingBlock: ZUJKAS_clean_linker_0, # of connection points: 2
#     Edge 36, Type (0, 0), BuildingBlock: ZUJKAS_clean_linker_0, # of connection points: 2
#     Edge 37, Type (0, 0), BuildingBlock: ZUJKAS_clean_linker_0, # of connection points: 2
#     Edge 38, Type (0, 0), BuildingBlock: ZUJKAS_clean_linker_0, # of connection points: 2
#     Edge 39, Type (0, 0), BuildingBlock: ZUJKAS_clean_linker_0, # of connection points: 2
#     Edge 40, Type (0, 0), BuildingBlock: ZUJKAS_clean_linker_0, # of connection points: 2
#     Edge 41, Type (0, 0), BuildingBlock: ZUJKAS_clean_linker_0, # of connection points: 2
#     Edge 42, Type (0, 0), BuildingBlock: ZUJKAS_clean_linker_0, # of connection points: 2
#     Edge 43, Type (0, 0), BuildingBlock: ZUJKAS_clean_linker_0, # of connection points: 2
#     Edge 44, Type (0, 0), BuildingBlock: ZUJKAS_clean_linker_0, # of connection points: 2
#     Edge 45, Type (0, 0), BuildingBlock: ZUJKAS_clean_linker_0, # of connection points: 2
#     Edge 46, Type (0, 0), BuildingBlock: ZUJKAS_clean_linker_0, # of connection points: 2
#     Edge 47, Type (0, 0), BuildingBlock: ZUJKAS_clean_linker_0, # of connection points: 2
#     Edge 48, Type (0, 0), BuildingBlock: ZUJKAS_clean_linker_0, # of connection points: 2
#     Edge 49, Type (0, 0), BuildingBlock: ZUJKAS_clean_linker_0, # of connection points: 2
#     Edge 50, Type (0, 0), BuildingBlock: ZUJKAS_clean_linker_0, # of connection points: 2
#     Edge 51, Type (0, 0), BuildingBlock: ZUJKAS_clean_linker_0, # of connection points: 2
#     Edge 52, Type (0, 0), BuildingBlock: ZUJKAS_clean_linker_0, # of connection points: 2
#     Edge 53, Type (0, 0), BuildingBlock: ZUJKAS_clean_linker_0, # of connection points: 2
#     Edge 54, Type (0, 0), BuildingBlock: ZUJKAS_clean_linker_0, # of connection points: 2
#     Edge 55, Type (0, 0), BuildingBlock: ZUJKAS_clean_linker_0, # of connection points: 2
#     Edge 56, Type (0, 0), BuildingBlock: ZUJKAS_clean_linker_0, # of connection points: 2
#     Edge 57, Type (0, 0), BuildingBlock: ZUJKAS_clean_linker_0, # of connection points: 2
#     Edge 58, Type (0, 0), BuildingBlock: ZUJKAS_clean_linker_0, # of connection points: 2
#     Edge 59, Type (0, 0), BuildingBlock: ZUJKAS_clean_linker_0, # of connection points: 2
#     Edge 60, Type (0, 0), BuildingBlock: ZUJKAS_clean_linker_0, # of connection points: 2
#     Edge 61, Type (0, 0), BuildingBlock: ZUJKAS_clean_linker_0, # of connection points: 2
#     Edge 62, Type (0, 0), BuildingBlock: ZUJKAS_clean_linker_0, # of connection points: 2
#     Edge 63, Type (0, 0), BuildingBlock: ZUJKAS_clean_linker_0, # of connection points: 2
# Relax obj value: 0.184
# Max RMSD: 0.210
# Mean RMSD: 0.210
data_MOF--net-snl--node1-BETFEN_clean_sbu_0--edge1-ZUJKAS_clean_linker_0
_symmetry_space_group_name_H-M    P1
_symmetry_Int_Tables_number       1
_symmetry_cell_setting            triclinic
loop_
_symmetry_equiv_pos_as_xyz
'x, y, z'
_cell_length_a     72.993119
_cell_length_b     76.567221
_cell_length_c     30.789414
_cell_angle_alpha  90.017576
_cell_angle_beta   89.974618
_cell_angle_gamma 89.971598
loop_
_atom_site_label
_atom_site_type_symbol
_atom_site_fract_x
_atom_site_fract_y
_atom_site_fract_z
_atom_type_partial_charge
Pr0 Pr 0.14921 0.62527 0.03146 0.0
Pr1 Pr 0.13525 0.62535 0.13459 0.0
C2 C 0.15848 0.61473 0.95129 0.0
C3 C 0.1556 0.61803 0.90476 0.0
C4 C 0.15737 0.63474 0.88643 0.0
C5 C 0.15526 0.63705 0.84161 0.0
C6 C 0.1513 0.62271 0.81457 0.0
C7 C 0.14934 0.60609 0.83336 0.0
C8 C 0.15143 0.6038 0.87795 0.0
C9 C 0.14257 0.65951 0.05962 0.0
C10 C 0.10409 0.62766 0.05624 0.0
C11 C 0.12648 0.63517 0.21544 0.0
C12 C 0.13164 0.63255 0.26109 0.0
C13 C 0.1321 0.61591 0.28026 0.0
C14 C 0.13608 0.61417 0.32446 0.0
C15 C 0.13972 0.62901 0.35002 0.0
C16 C 0.13968 0.64555 0.33031 0.0
C17 C 0.13568 0.64728 0.28631 0.0
C18 C 0.14188 0.59105 0.10253 0.0
C19 C 0.17971 0.62626 0.11438 0.0
O20 O 0.14453 0.60831 0.97273 0.0
O21 O 0.16825 0.62598 0.97361 0.0
O22 O 0.1408 0.64565 0.08147 0.0
O23 O 0.1477 0.65573 0.0203 0.0
O24 O 0.10821 0.63065 0.09736 0.0
O25 O 0.11666 0.62373 0.0264 0.0
O26 O 0.13832 0.64363 0.19135 0.0
O27 O 0.11807 0.6224 0.19512 0.0
O28 O 0.14371 0.60547 0.08369 0.0
O29 O 0.13667 0.59416 0.14219 0.0
O30 O 0.17694 0.62215 0.07274 0.0
O31 O 0.1663 0.62955 0.14174 0.0
H32 H 0.16048 0.64595 0.90658 0.0
H33 H 0.15666 0.65005 0.82818 0.0
H34 H 0.1466 0.59471 0.8135 0.0
H35 H 0.15006 0.59081 0.8915 0.0
H36 H 0.12919 0.60432 0.26134 0.0
H37 H 0.13623 0.60123 0.33867 0.0
H38 H 0.14216 0.65726 0.34914 0.0
H39 H 0.1354 0.66022 0.27207 0.0
Pr40 Pr 0.6492 0.88177 0.48557 0.0
Pr41 Pr 0.63449 0.88066 0.397 0.0
C42 C 0.65784 0.88783 0.56978 0.0
C43 C 0.65324 0.88554 0.61637 0.0
C44 C 0.65267 0.86898 0.63613 0.0
C45 C 0.65042 0.86745 0.68123 0.0
C46 C 0.64878 0.88241 0.70763 0.0
C47 C 0.64901 0.89891 0.68745 0.0
C48 C 0.65119 0.90043 0.64249 0.0
C49 C 0.64737 0.84766 0.45322 0.0
C50 C 0.60375 0.87858 0.47018 0.0
C51 C 0.62609 0.87545 0.31247 0.0
C52 C 0.6322 0.87674 0.2667 0.0
C53 C 0.63454 0.89294 0.24594 0.0
C54 C 0.63806 0.89372 0.20124 0.0
C55 C 0.63926 0.87833 0.17629 0.0
C56 C 0.63746 0.86215 0.19753 0.0
C57 C 0.63397 0.86139 0.24212 0.0
C58 C 0.63668 0.91452 0.43242 0.0
C59 C 0.67917 0.88258 0.40735 0.0
O60 O 0.6479 0.89852 0.54652 0.0
O61 O 0.66379 0.87438 0.54782 0.0
O62 O 0.63473 0.85887 0.44923 0.0
O63 O 0.66131 0.85403 0.47386 0.0
O64 O 0.60756 0.87272 0.43118 0.0
O65 O 0.61685 0.88493 0.49541 0.0
O66 O 0.63366 0.86352 0.33698 0.0
O67 O 0.62207 0.88977 0.33353 0.0
O68 O 0.64923 0.90321 0.43427 0.0
O69 O 0.62252 0.90857 0.41176 0.0
O70 O 0.67619 0.88884 0.44674 0.0
O71 O 0.66566 0.87609 0.38436 0.0
H72 H 0.65429 0.85723 0.61693 0.0
H73 H 0.65004 0.85451 0.69539 0.0
H74 H 0.64814 0.91077 0.70649 0.0
H75 H 0.65185 0.91335 0.62822 0.0
H76 H 0.63323 0.90503 0.26394 0.0
H77 H 0.63966 0.9064 0.18617 0.0
H78 H 0.63801 0.85003 0.17947 0.0
H79 H 0.63203 0.84874 0.25718 0.0
Pr80 Pr 0.36353 0.3816 0.53963 0.0
Pr81 Pr 0.38021 0.38215 0.63178 0.0
C82 C 0.35422 0.39162 0.45844 0.0
C83 C 0.35719 0.3881 0.41136 0.0
C84 C 0.34731 0.37505 0.38925 0.0
C85 C 0.34891 0.37314 0.34406 0.0
C86 C 0.36037 0.38427 0.31978 0.0
C87 C 0.37054 0.39703 0.34217 0.0
C88 C 0.36892 0.39895 0.38721 0.0
C89 C 0.36861 0.34657 0.56196 0.0
C90 C 0.40938 0.37781 0.55543 0.0
C91 C 0.38946 0.37985 0.71655 0.0
C92 C 0.38278 0.38026 0.76198 0.0
C93 C 0.38903 0.39357 0.78956 0.0
C94 C 0.38472 0.39345 0.83375 0.0
C95 C 0.37397 0.38001 0.85167 0.0
C96 C 0.36731 0.36687 0.82375 0.0
C97 C 0.37169 0.36698 0.77937 0.0
C98 C 0.37829 0.41447 0.589 0.0
C99 C 0.33504 0.38279 0.62428 0.0
O100 O 0.36782 0.39852 0.48033 0.0
O101 O 0.34451 0.38052 0.48132 0.0
O102 O 0.3727 0.35927 0.58659 0.0
O103 O 0.36161 0.35194 0.52575 0.0
O104 O 0.40611 0.3735 0.59591 0.0
O105 O 0.39606 0.383 0.52899 0.0
O106 O 0.38581 0.36622 0.69242 0.0
O107 O 0.38935 0.39452 0.69491 0.0
O108 O 0.36564 0.40326 0.5904 0.0
O109 O 0.39268 0.40905 0.60979 0.0
O110 O 0.3362 0.38518 0.58159 0.0
O111 O 0.34962 0.37973 0.64798 0.0
H112 H 0.33799 0.36656 0.40665 0.0
H113 H 0.3407 0.36329 0.32802 0.0
H114 H 0.37975 0.40566 0.32487 0.0
H115 H 0.37662 0.40923 0.40304 0.0
H116 H 0.39777 0.40386 0.77715 0.0
H117 H 0.39041 0.40363 0.85408 0.0
H118 H 0.35879 0.35643 0.83618 0.0
H119 H 0.36666 0.35651 0.75895 0.0
Pr120 Pr 0.86355 0.12571 0.98508 0.0
Pr121 Pr 0.87949 0.12567 0.89808 0.0
C122 C 0.85433 0.11971 0.06916 0.0
C123 C 0.85865 0.12209 0.1161 0.0
C124 C 0.85226 0.13677 0.1391 0.0
C125 C 0.85416 0.1378 0.18437 0.0
C126 C 0.86241 0.12413 0.20795 0.0
C127 C 0.8692 0.10967 0.18471 0.0
C128 C 0.86729 0.10864 0.1395 0.0
C129 C 0.86556 0.15952 0.95152 0.0
C130 C 0.90949 0.12962 0.97176 0.0
C131 C 0.88832 0.1286 0.81296 0.0
C132 C 0.88159 0.12725 0.76754 0.0
C133 C 0.88683 0.11297 0.74172 0.0
C134 C 0.88286 0.11262 0.69727 0.0
C135 C 0.87357 0.1266 0.67736 0.0
C136 C 0.86776 0.14063 0.70355 0.0
C137 C 0.87175 0.14098 0.74806 0.0
C138 C 0.87667 0.09239 0.93626 0.0
C139 C 0.83499 0.12502 0.90363 0.0
O140 O 0.86446 0.10908 0.04612 0.0
O141 O 0.84835 0.13306 0.04683 0.0
O142 O 0.87832 0.14833 0.94829 0.0
O143 O 0.85156 0.15328 0.97223 0.0
O144 O 0.906 0.13407 0.93154 0.0
O145 O 0.8961 0.12409 0.99757 0.0
O146 O 0.88269 0.14168 0.83676 0.0
O147 O 0.89054 0.11423 0.83521 0.0
O148 O 0.86404 0.10362 0.93542 0.0
O149 O 0.89147 0.0983 0.91819 0.0
O150 O 0.83677 0.11918 0.9439 0.0
O151 O 0.84917 0.13154 0.88336 0.0
H152 H 0.84527 0.14727 0.12234 0.0
H153 H 0.84852 0.14905 0.201 0.0
H154 H 0.87589 0.099 0.20148 0.0
H155 H 0.87218 0.09705 0.12299 0.0
H156 H 0.89463 0.10229 0.75558 0.0
H157 H 0.88777 0.10169 0.67823 0.0
H158 H 0.86033 0.15151 0.68959 0.0
H159 H 0.86755 0.15224 0.76687 0.0
Pr160 Pr 0.14891 0.38058 0.98955 0.0
Pr161 Pr 0.13289 0.38105 0.89456 0.0
C162 C 0.1581 0.38677 0.07311 0.0
C163 C 0.1536 0.38446 0.11967 0.0
C164 C 0.15675 0.36854 0.14115 0.0
C165 C 0.15461 0.3673 0.18624 0.0
C166 C 0.14937 0.38197 0.21088 0.0
C167 C 0.14585 0.39777 0.1891 0.0
C168 C 0.14796 0.39899 0.1441 0.0
C169 C 0.14673 0.34765 0.95144 0.0
C170 C 0.10273 0.37958 0.97276 0.0
C171 C 0.12416 0.37164 0.81304 0.0
C172 C 0.12941 0.37441 0.76722 0.0
C173 C 0.12797 0.39082 0.74705 0.0
C174 C 0.13183 0.39262 0.70272 0.0
C175 C 0.13722 0.37807 0.67778 0.0
C176 C 0.13909 0.3618 0.69846 0.0
C177 C 0.13522 0.36002 0.74262 0.0
C178 C 0.14094 0.41582 0.92175 0.0
C179 C 0.17715 0.38267 0.90614 0.0
O180 O 0.14793 0.39736 0.05012 0.0
O181 O 0.16408 0.37332 0.05105 0.0
O182 O 0.13433 0.35929 0.94809 0.0
O183 O 0.16036 0.35306 0.97495 0.0
O184 O 0.10544 0.37901 0.93055 0.0
O185 O 0.11644 0.38004 1.00129 0.0
O186 O 0.13581 0.36297 0.83714 0.0
O187 O 0.11579 0.3843 0.8338 0.0
O188 O 0.14326 0.4018 0.94191 0.0
O189 O 0.1343 0.41208 0.88377 0.0
O190 O 0.17499 0.38836 0.94662 0.0
O191 O 0.16355 0.37535 0.88522 0.0
H192 H 0.16125 0.35711 0.12335 0.0
H193 H 0.1572 0.35486 0.2018 0.0
H194 H 0.14209 0.40942 0.20694 0.0
H195 H 0.14573 0.4115 0.12856 0.0
H196 H 0.12363 0.4022 0.76526 0.0
H197 H 0.13051 0.40539 0.68794 0.0
H198 H 0.14294 0.35027 0.68025 0.0
H199 H 0.13637 0.34722 0.75741 0.0
Pr200 Pr 0.86315 0.88157 0.03625 0.0
Pr201 Pr 0.87769 0.88117 0.13047 0.0
C202 C 0.85475 0.89237 0.95542 0.0
C203 C 0.85799 0.88897 0.9087 0.0
C204 C 0.85336 0.87298 0.88906 0.0
C205 C 0.85532 0.87075 0.84411 0.0
C206 C 0.86194 0.88444 0.81789 0.0
C207 C 0.86686 0.90027 0.83791 0.0
C208 C 0.86491 0.90248 0.88271 0.0
C209 C 0.86846 0.84638 0.05722 0.0
C210 C 0.90831 0.87709 0.05638 0.0
C211 C 0.88626 0.8775 0.21521 0.0
C212 C 0.87971 0.87858 0.26062 0.0
C213 C 0.88116 0.89433 0.28381 0.0
C214 C 0.87771 0.89482 0.32839 0.0
C215 C 0.87281 0.87955 0.35092 0.0
C216 C 0.87066 0.86393 0.32744 0.0
C217 C 0.87413 0.86344 0.28278 0.0
C218 C 0.87621 0.91399 0.08987 0.0
C219 C 0.83273 0.88097 0.11692 0.0
O220 O 0.8684 0.89885 0.97791 0.0
O221 O 0.84466 0.88127 0.97734 0.0
O222 O 0.87164 0.85902 0.08261 0.0
O223 O 0.86213 0.85187 0.0204 0.0
O224 O 0.90392 0.87206 0.0958 0.0
O225 O 0.89573 0.88333 0.02937 0.0
O226 O 0.88066 0.86453 0.19096 0.0
O227 O 0.88833 0.89207 0.19367 0.0
O228 O 0.86375 0.90259 0.08887 0.0
O229 O 0.89014 0.90854 0.11225 0.0
O230 O 0.83512 0.88444 0.07508 0.0
O231 O 0.84656 0.87807 0.14326 0.0
H232 H 0.84802 0.86228 0.90825 0.0
H233 H 0.85163 0.85829 0.82992 0.0
H234 H 0.87173 0.9112 0.81882 0.0
H235 H 0.86845 0.91497 0.897 0.0
H236 H 0.88557 0.90622 0.26785 0.0
H237 H 0.87921 0.90712 0.34538 0.0
H238 H 0.86708 0.8519 0.34386 0.0
H239 H 0.87312 0.85105 0.26596 0.0
Pr240 Pr 0.36291 0.62442 0.48708 0.0
Pr241 Pr 0.3785 0.62494 0.39284 0.0
C242 C 0.35428 0.6134 0.56767 0.0
C243 C 0.35742 0.61652 0.6146 0.0
C244 C 0.35262 0.63234 0.63493 0.0
C245 C 0.35442 0.63424 0.68005 0.0
C246 C 0.36102 0.62038 0.70574 0.0
C247 C 0.36624 0.60478 0.68501 0.0
C248 C 0.36442 0.60288 0.64008 0.0
C249 C 0.3676 0.65959 0.46546 0.0
C250 C 0.40817 0.62969 0.46896 0.0
C251 C 0.38675 0.63059 0.30866 0.0
C252 C 0.38029 0.62901 0.26323 0.0
C253 C 0.38329 0.61362 0.23936 0.0
C254 C 0.37951 0.61305 0.19486 0.0
C255 C 0.37268 0.62786 0.17318 0.0
C256 C 0.36908 0.64304 0.19745 0.0
C257 C 0.3729 0.64362 0.24189 0.0
C258 C 0.37752 0.59217 0.4335 0.0
C259 C 0.33334 0.62202 0.40408 0.0
O260 O 0.36794 0.60694 0.54515 0.0
O261 O 0.3443 0.62463 0.54591 0.0
O262 O 0.37133 0.64689 0.44063 0.0
O263 O 0.36111 0.65416 0.50219 0.0
O264 O 0.40407 0.63459 0.42926 0.0
O265 O 0.39548 0.62317 0.4953 0.0
O266 O 0.3789 0.64228 0.3335 0.0
O267 O 0.3914 0.61637 0.32949 0.0
O268 O 0.36492 0.60346 0.43456 0.0
O269 O 0.39118 0.59752 0.40989 0.0
O270 O 0.33512 0.62148 0.44702 0.0
O271 O 0.34748 0.62355 0.3779 0.0
H272 H 0.34716 0.64311 0.61619 0.0
H273 H 0.35013 0.6464 0.6949 0.0
H274 H 0.37171 0.59394 0.70352 0.0
H275 H 0.36821 0.59056 0.62526 0.0
H276 H 0.38917 0.60218 0.25466 0.0
H277 H 0.38266 0.6012 0.17716 0.0
H278 H 0.36357 0.6546 0.18198 0.0
H279 H 0.37055 0.65573 0.25927 0.0
Pr280 Pr 0.64904 0.12584 0.53725 0.0
Pr281 Pr 0.63161 0.1253 0.62917 0.0
C282 C 0.65885 0.11559 0.45655 0.0
C283 C 0.65592 0.11856 0.40943 0.0
C284 C 0.65587 0.13533 0.39078 0.0
C285 C 0.65384 0.1374 0.34566 0.0
C286 C 0.65185 0.12275 0.31821 0.0
C287 C 0.65179 0.10605 0.33735 0.0
C288 C 0.65374 0.10402 0.38225 0.0
C289 C 0.64298 0.16083 0.55922 0.0
C290 C 0.60315 0.1294 0.55122 0.0
C291 C 0.62224 0.12754 0.71399 0.0
C292 C 0.62913 0.12794 0.75941 0.0
C293 C 0.63345 0.11236 0.78139 0.0
C294 C 0.63736 0.1125 0.82588 0.0
C295 C 0.63701 0.1282 0.84967 0.0
C296 C 0.63336 0.14385 0.82733 0.0
C297 C 0.62942 0.14371 0.78278 0.0
C298 C 0.63385 0.09304 0.58627 0.0
C299 C 0.67695 0.12544 0.62249 0.0
O300 O 0.64542 0.10839 0.47839 0.0
O301 O 0.66794 0.12732 0.47887 0.0
O302 O 0.63904 0.14802 0.5836 0.0
O303 O 0.65026 0.15559 0.52316 0.0
O304 O 0.60576 0.13354 0.5921 0.0
O305 O 0.61672 0.12403 0.52581 0.0
O306 O 0.6247 0.14127 0.68933 0.0
O307 O 0.62338 0.11283 0.69264 0.0
O308 O 0.64654 0.10423 0.58831 0.0
O309 O 0.61927 0.0985 0.60627 0.0
O310 O 0.67611 0.12273 0.57992 0.0
O311 O 0.66217 0.12844 0.64559 0.0
H312 H 0.65745 0.14682 0.41097 0.0
H313 H 0.65372 0.15049 0.33239 0.0
H314 H 0.65067 0.0944 0.31759 0.0
H315 H 0.65383 0.09095 0.39578 0.0
H316 H 0.63329 0.09994 0.76457 0.0
H317 H 0.64042 0.10023 0.84176 0.0
H318 H 0.63279 0.15617 0.84456 0.0
H319 H 0.62594 0.1559 0.76696 0.0
Pr320 Pr 0.87929 0.38311 0.8963 0.0
Pr321 Pr 0.86304 0.38132 0.98856 0.0
C322 C 0.88797 0.38405 0.81117 0.0
C323 C 0.88212 0.38249 0.76543 0.0
C324 C 0.88534 0.3967 0.73779 0.0
C325 C 0.88149 0.39557 0.69355 0.0
C326 C 0.8742 0.38017 0.67565 0.0
C327 C 0.87064 0.36597 0.70359 0.0
C328 C 0.87459 0.36711 0.74813 0.0
C329 C 0.87746 0.41484 0.94152 0.0
C330 C 0.83439 0.37967 0.90601 0.0
C331 C 0.85388 0.39107 0.06995 0.0
C332 C 0.85722 0.38782 0.11686 0.0
C333 C 0.85075 0.37273 0.13796 0.0
C334 C 0.85266 0.37086 0.18307 0.0
C335 C 0.86102 0.38404 0.2081 0.0
C336 C 0.86785 0.39889 0.18665 0.0
C337 C 0.86593 0.40077 0.14172 0.0
C338 C 0.86828 0.34667 0.96361 0.0
C339 C 0.90889 0.37782 0.97199 0.0
O340 O 0.88991 0.36999 0.83499 0.0
O341 O 0.882 0.39757 0.83284 0.0
O342 O 0.86476 0.40368 0.93959 0.0
O343 O 0.89188 0.4095 0.92081 0.0
O344 O 0.83576 0.38444 0.94728 0.0
O345 O 0.84895 0.37623 0.8824 0.0
O346 O 0.86712 0.39839 0.0477 0.0
O347 O 0.8445 0.37956 0.04755 0.0
O348 O 0.87217 0.35967 0.93983 0.0
O349 O 0.86107 0.35144 1.00018 0.0
O350 O 0.90604 0.37522 0.9304 0.0
O351 O 0.89545 0.38194 0.99916 0.0
H352 H 0.89131 0.40864 0.75031 0.0
H353 H 0.88479 0.40666 0.6732 0.0
H354 H 0.86483 0.35397 0.69107 0.0
H355 H 0.87195 0.35594 0.76878 0.0
H356 H 0.84387 0.36254 0.11985 0.0
H357 H 0.84707 0.35932 0.19846 0.0
H358 H 0.87465 0.40918 0.20461 0.0
H359 H 0.87097 0.41257 0.12647 0.0
Pr360 Pr 0.37808 0.12463 0.6301 0.0
Pr361 Pr 0.36277 0.12521 0.5368 0.0
C362 C 0.38612 0.12495 0.71565 0.0
C363 C 0.37966 0.12704 0.76099 0.0
C364 C 0.37557 0.1121 0.78566 0.0
C365 C 0.37204 0.11338 0.83009 0.0
C366 C 0.37252 0.12966 0.85118 0.0
C367 C 0.37608 0.14471 0.82626 0.0
C368 C 0.37966 0.14341 0.78164 0.0
C369 C 0.37708 0.09239 0.58704 0.0
C370 C 0.33327 0.12719 0.6178 0.0
C371 C 0.3539 0.11466 0.45593 0.0
C372 C 0.35706 0.11761 0.40902 0.0
C373 C 0.35623 0.13431 0.3901 0.0
C374 C 0.35819 0.13631 0.34501 0.0
C375 C 0.36094 0.12167 0.31805 0.0
C376 C 0.36217 0.10508 0.33741 0.0
C377 C 0.36025 0.1031 0.38229 0.0
C378 C 0.36777 0.16023 0.55953 0.0
C379 C 0.40828 0.12881 0.55518 0.0
O380 O 0.38812 0.13871 0.69077 0.0
O381 O 0.38066 0.11109 0.69457 0.0
O382 O 0.36425 0.10347 0.58738 0.0
O383 O 0.39115 0.09803 0.60852 0.0
O384 O 0.3352 0.12209 0.57691 0.0
O385 O 0.34749 0.13114 0.64205 0.0
O386 O 0.36738 0.10782 0.47829 0.0
O387 O 0.34434 0.12623 0.4777 0.0
O388 O 0.37141 0.14751 0.58443 0.0
O389 O 0.36131 0.15492 0.52267 0.0
O390 O 0.40497 0.13231 0.59619 0.0
O391 O 0.39517 0.12396 0.52792 0.0
H392 H 0.37578 0.09924 0.77098 0.0
H393 H 0.3697 0.10147 0.8482 0.0
H394 H 0.37634 0.15749 0.84132 0.0
H395 H 0.38292 0.15516 0.76366 0.0
H396 H 0.35382 0.14575 0.40999 0.0
H397 H 0.35705 0.14927 0.33118 0.0
H398 H 0.3646 0.09355 0.31784 0.0
H399 H 0.361 0.09011 0.39614 0.0
Pr400 Pr 0.63377 0.62647 0.39649 0.0
Pr401 Pr 0.6485 0.62593 0.48464 0.0
C402 C 0.62545 0.63074 0.31155 0.0
C403 C 0.63181 0.62922 0.26596 0.0
C404 C 0.63226 0.61302 0.24447 0.0
C405 C 0.63582 0.61215 0.19983 0.0
C406 C 0.63893 0.62746 0.17559 0.0
C407 C 0.63906 0.64358 0.19751 0.0
C408 C 0.63552 0.64444 0.24209 0.0
C409 C 0.63657 0.59273 0.43238 0.0
C410 C 0.6784 0.62653 0.40608 0.0
C411 C 0.6572 0.61969 0.56874 0.0
C412 C 0.65252 0.62184 0.61537 0.0
C413 C 0.65356 0.63816 0.63625 0.0
C414 C 0.65132 0.63945 0.68138 0.0
C415 C 0.64808 0.62445 0.70675 0.0
C416 C 0.64666 0.60822 0.68553 0.0
C417 C 0.64885 0.60695 0.6405 0.0
C418 C 0.64643 0.65988 0.45198 0.0
C419 C 0.60278 0.62939 0.46897 0.0
O420 O 0.63247 0.64308 0.33565 0.0
O421 O 0.62184 0.61649 0.33326 0.0
O422 O 0.64894 0.60422 0.434 0.0
O423 O 0.62223 0.59852 0.41217 0.0
O424 O 0.67589 0.62002 0.44545 0.0
O425 O 0.66441 0.63246 0.38388 0.0
O426 O 0.6474 0.60897 0.5452 0.0
O427 O 0.66303 0.63325 0.54702 0.0
O428 O 0.63383 0.6486 0.44801 0.0
O429 O 0.66036 0.65368 0.47301 0.0
O430 O 0.60677 0.63426 0.42928 0.0
O431 O 0.61593 0.62382 0.49539 0.0
H432 H 0.62937 0.60103 0.26182 0.0
H433 H 0.6359 0.59948 0.18422 0.0
H434 H 0.64113 0.65568 0.17996 0.0
H435 H 0.63503 0.65714 0.25759 0.0
H436 H 0.65648 0.64991 0.61792 0.0
H437 H 0.65225 0.65221 0.69639 0.0
H438 H 0.64449 0.59632 0.70382 0.0
H439 H 0.64826 0.59417 0.62544 0.0
Pr440 Pr 0.1335 0.88158 0.1309 0.0
Pr441 Pr 0.14811 0.88014 0.03768 0.0
C442 C 0.12481 0.88096 0.21606 0.0
C443 C 0.13141 0.88072 0.26138 0.0
C444 C 0.12715 0.89496 0.2882 0.0
C445 C 0.1313 0.89459 0.33237 0.0
C446 C 0.13989 0.87995 0.35095 0.0
C447 C 0.14458 0.86581 0.32382 0.0
C448 C 0.14036 0.86617 0.27941 0.0
C449 C 0.13522 0.91368 0.0871 0.0
C450 C 0.17824 0.87854 0.11859 0.0
C451 C 0.15705 0.89021 0.95649 0.0
C452 C 0.15373 0.88723 0.90953 0.0
C453 C 0.16099 0.87267 0.8876 0.0
C454 C 0.15922 0.87114 0.84243 0.0
C455 C 0.15019 0.88414 0.81819 0.0
C456 C 0.14256 0.89845 0.84043 0.0
C457 C 0.14437 0.9 0.88544 0.0
C458 C 0.1421 0.84533 0.0609 0.0
C459 C 0.10266 0.87719 0.05766 0.0
O460 O 0.12613 0.86682 0.19239 0.0
O461 O 0.12725 0.89533 0.19402 0.0
O462 O 0.14774 0.90228 0.08748 0.0
O463 O 0.12101 0.90839 0.10868 0.0
O464 O 0.17624 0.88217 0.07671 0.0
O465 O 0.16406 0.87621 0.14417 0.0
O466 O 0.14382 0.89742 0.97906 0.0
O467 O 0.16646 0.87858 0.9784 0.0
O468 O 0.13905 0.85822 0.08575 0.0
O469 O 0.14806 0.85032 0.0233 0.0
O470 O 0.10673 0.87315 0.09794 0.0
O471 O 0.11554 0.88218 0.02981 0.0
H472 H 0.12005 0.90624 0.27521 0.0
H473 H 0.12714 0.90558 0.35218 0.0
H474 H 0.1514 0.8544 0.33692 0.0
H475 H 0.14379 0.85498 0.2595 0.0
H476 H 0.16842 0.86265 0.90511 0.0
H477 H 0.16544 0.86003 0.8264 0.0
H478 H 0.13526 0.90858 0.82303 0.0
H479 H 0.13873 0.91142 0.90134 0.0
Pr480 Pr 0.87879 0.62613 0.13247 0.0
Pr481 Pr 0.86379 0.62531 0.03761 0.0
C482 C 0.88637 0.63277 0.21648 0.0
C483 C 0.88044 0.63025 0.26202 0.0
C484 C 0.88655 0.61579 0.28606 0.0
C485 C 0.88307 0.61469 0.3306 0.0
C486 C 0.8735 0.62808 0.35219 0.0
C487 C 0.86685 0.64225 0.32783 0.0
C488 C 0.87031 0.64334 0.28327 0.0
C489 C 0.87787 0.59309 0.09327 0.0
C490 C 0.83378 0.62259 0.11986 0.0
C491 C 0.85514 0.61441 0.95697 0.0
C492 C 0.85795 0.61807 0.91014 0.0
C493 C 0.84993 0.63262 0.88969 0.0
C494 C 0.85155 0.63492 0.8447 0.0
C495 C 0.8612 0.62274 0.81918 0.0
C496 C 0.86942 0.60836 0.83991 0.0
C497 C 0.8678 0.60607 0.88476 0.0
C498 C 0.86853 0.66055 0.05893 0.0
C499 C 0.90883 0.63058 0.05695 0.0
O500 O 0.87666 0.64323 0.19199 0.0
O501 O 0.89313 0.61938 0.19539 0.0
O502 O 0.86545 0.60452 0.09066 0.0
O503 O 0.89117 0.59836 0.1181 0.0
O504 O 0.83583 0.62235 0.07698 0.0
O505 O 0.84774 0.624 0.14659 0.0
O506 O 0.86915 0.60829 0.97888 0.0
O507 O 0.84481 0.6251 0.97954 0.0
O508 O 0.872 0.64784 0.08387 0.0
O509 O 0.86228 0.65508 0.02201 0.0
O510 O 0.90437 0.63589 0.09613 0.0
O511 O 0.89638 0.62375 0.03051 0.0
H512 H 0.89449 0.60553 0.27078 0.0
H513 H 0.88814 0.60345 0.34826 0.0
H514 H 0.85962 0.65289 0.34345 0.0
H515 H 0.86562 0.65477 0.2658 0.0
H516 H 0.8422 0.64211 0.90825 0.0
H517 H 0.84522 0.64625 0.82992 0.0
H518 H 0.87669 0.59855 0.82133 0.0
H519 H 0.87393 0.59463 0.89952 0.0
Pr520 Pr 0.13429 0.12589 0.89687 0.0
Pr521 Pr 0.14906 0.1261 0.98519 0.0
C522 C 0.12583 0.13042 0.8122 0.0
C523 C 0.13217 0.12885 0.76658 0.0
C524 C 0.12909 0.11347 0.7427 0.0
C525 C 0.13268 0.11292 0.69806 0.0
C526 C 0.13934 0.12775 0.67618 0.0
C527 C 0.14301 0.14293 0.70043 0.0
C528 C 0.13941 0.14348 0.74501 0.0
C529 C 0.1363 0.09253 0.93488 0.0
C530 C 0.17912 0.12376 0.90662 0.0
C531 C 0.15763 0.12042 0.06958 0.0
C532 C 0.15276 0.12229 0.11619 0.0
C533 C 0.15636 0.13785 0.13897 0.0
C534 C 0.1542 0.13862 0.18415 0.0
C535 C 0.14846 0.12384 0.20771 0.0
C536 C 0.14436 0.10846 0.18465 0.0
C537 C 0.14655 0.10768 0.13955 0.0
C538 C 0.14742 0.15982 0.95041 0.0
C539 C 0.10347 0.1294 0.96988 0.0
O540 O 0.13317 0.14258 0.83641 0.0
O541 O 0.1219 0.1162 0.83378 0.0
O542 O 0.14892 0.1038 0.93581 0.0
O543 O 0.12204 0.09836 0.91433 0.0
O544 O 0.17659 0.11971 0.9479 0.0
O545 O 0.16538 0.12855 0.88194 0.0
O546 O 0.14849 0.10926 0.04583 0.0
O547 O 0.16285 0.13423 0.04796 0.0
O548 O 0.13475 0.14857 0.94694 0.0
O549 O 0.16124 0.15364 0.97189 0.0
O550 O 0.10733 0.13392 0.92985 0.0
O551 O 0.11663 0.12405 0.9964 0.0
H552 H 0.12331 0.10203 0.75816 0.0
H553 H 0.12948 0.10107 0.68042 0.0
H554 H 0.14841 0.15451 0.68485 0.0
H555 H 0.1418 0.15559 0.7623 0.0
H556 H 0.16142 0.14929 0.12215 0.0
H557 H 0.15771 0.15063 0.20075 0.0
H558 H 0.13964 0.09689 0.20149 0.0
H559 H 0.14387 0.09544 0.12309 0.0
Pr560 Pr 0.63485 0.38238 0.62987 0.0
Pr561 Pr 0.64987 0.38187 0.53563 0.0
C562 C 0.62664 0.37765 0.71446 0.0
C563 C 0.63349 0.37843 0.75969 0.0
C564 C 0.63242 0.39402 0.7837 0.0
C565 C 0.63639 0.39413 0.82811 0.0
C566 C 0.64148 0.37866 0.84961 0.0
C567 C 0.64317 0.36321 0.8252 0.0
C568 C 0.63916 0.36309 0.78081 0.0
C569 C 0.63625 0.41484 0.58812 0.0
C570 C 0.67994 0.38384 0.61748 0.0
C571 C 0.65882 0.39254 0.45496 0.0
C572 C 0.65565 0.38967 0.408 0.0
C573 C 0.65882 0.37344 0.38794 0.0
C574 C 0.65706 0.37166 0.34279 0.0
C575 C 0.65211 0.38607 0.31684 0.0
C576 C 0.64851 0.40213 0.33732 0.0
C577 C 0.6503 0.40389 0.38228 0.0
C578 C 0.644 0.34692 0.5578 0.0
C579 C 0.60442 0.37885 0.55489 0.0
O580 O 0.63263 0.36511 0.68928 0.0
O581 O 0.62384 0.39235 0.69385 0.0
O582 O 0.6487 0.40337 0.58709 0.0
O583 O 0.62249 0.40975 0.61171 0.0
O584 O 0.67796 0.38404 0.57462 0.0
O585 O 0.66592 0.38296 0.64412 0.0
O586 O 0.64542 0.39945 0.47748 0.0
O587 O 0.66832 0.38089 0.47659 0.0
O588 O 0.64085 0.35973 0.58286 0.0
O589 O 0.65032 0.35216 0.52072 0.0
O590 O 0.6082 0.37469 0.59526 0.0
O591 O 0.61738 0.38368 0.52714 0.0
H592 H 0.62788 0.40603 0.76859 0.0
H593 H 0.6347 0.40623 0.8459 0.0
H594 H 0.64732 0.35111 0.84051 0.0
H595 H 0.63998 0.35083 0.76333 0.0
H596 H 0.66298 0.36222 0.40693 0.0
H597 H 0.66009 0.35913 0.32813 0.0
H598 H 0.64435 0.41342 0.31859 0.0
H599 H 0.64777 0.41653 0.39696 0.0
Pr600 Pr 0.37967 0.88113 0.39349 0.0
Pr601 Pr 0.36327 0.88163 0.48628 0.0
C602 C 0.38865 0.87607 0.30938 0.0
C603 C 0.38304 0.87847 0.26352 0.0
C604 C 0.39274 0.89023 0.23718 0.0
C605 C 0.38941 0.89107 0.19254 0.0
C606 C 0.37634 0.88009 0.17302 0.0
C607 C 0.36619 0.8687 0.19963 0.0
C608 C 0.36952 0.86788 0.24438 0.0
C609 C 0.37833 0.91385 0.4342 0.0
C610 C 0.33438 0.88424 0.40241 0.0
C611 C 0.35435 0.89212 0.56737 0.0
C612 C 0.3571 0.88826 0.61435 0.0
C613 C 0.34517 0.87704 0.6369 0.0
C614 C 0.34676 0.87481 0.68194 0.0
C615 C 0.36028 0.8838 0.70568 0.0
C616 C 0.37237 0.89482 0.68296 0.0
C617 C 0.37078 0.89703 0.63799 0.0
C618 C 0.36797 0.84638 0.46511 0.0
C619 C 0.40851 0.87613 0.47013 0.0
O620 O 0.37985 0.86456 0.33283 0.0
O621 O 0.3938 0.88981 0.33149 0.0
O622 O 0.36558 0.90275 0.43403 0.0
O623 O 0.39257 0.9082 0.41307 0.0
O624 O 0.33578 0.88482 0.4454 0.0
O625 O 0.34878 0.88257 0.37705 0.0
O626 O 0.36829 0.8984 0.54554 0.0
O627 O 0.34411 0.88152 0.54438 0.0
O628 O 0.37202 0.85898 0.4403 0.0
O629 O 0.36117 0.85194 0.50139 0.0
O630 O 0.40453 0.87047 0.43103 0.0
O631 O 0.39579 0.8835 0.49496 0.0
H632 H 0.40332 0.89847 0.25092 0.0
H633 H 0.39726 0.90021 0.17321 0.0
H634 H 0.35614 0.85994 0.18569 0.0
H635 H 0.36189 0.85855 0.26365 0.0
H636 H 0.33436 0.87018 0.61989 0.0
H637 H 0.33733 0.86605 0.69816 0.0
H638 H 0.38275 0.9022 0.70007 0.0
H639 H 0.38004 0.90599 0.6219 0.0
H640 H 0.17213 0.64318 0.76079 0.0
H641 H 0.17022 0.64539 0.68167 0.0
H642 H 0.12565 0.60843 0.68118 0.0
H643 H 0.12683 0.60679 0.76017 0.0
H644 H 0.17531 0.61953 0.62261 0.0
H645 H 0.10529 0.64661 0.60553 0.0
H646 H 0.11729 0.64629 0.65677 0.0
H647 H 0.10586 0.62698 0.63726 0.0
C648 C 0.16164 0.63583 0.74393 0.0
C649 C 0.1496 0.62484 0.76683 0.0
C650 C 0.16068 0.637 0.69872 0.0
C651 C 0.14764 0.62725 0.67567 0.0
C652 C 0.13556 0.61634 0.6984 0.0
H653 H 0.12136 0.60809 0.40717 0.0
H654 H 0.12464 0.60717 0.48609 0.0
C655 C 0.13643 0.61525 0.74354 0.0
C656 C 0.14719 0.62783 0.62769 0.0
H657 H 0.11901 0.63521 0.5413 0.0
C658 C 0.16306 0.6231 0.60477 0.0
C659 C 0.13118 0.63248 0.60459 0.0
C660 C 0.114 0.63854 0.6273 0.0
C661 C 0.16319 0.62244 0.55927 0.0
C662 C 0.14709 0.62683 0.53627 0.0
C663 C 0.13129 0.63173 0.55915 0.0
C664 C 0.14624 0.62649 0.48839 0.0
C665 C 0.1804 0.61662 0.53628 0.0
C666 C 0.1574 0.63758 0.46367 0.0
C667 C 0.15571 0.63801 0.41855 0.0
C668 C 0.14268 0.62746 0.39745 0.0
C669 C 0.13172 0.61617 0.42235 0.0
C670 C 0.13346 0.61573 0.46744 0.0
H671 H 0.18981 0.60952 0.55847 0.0
H672 H 0.17709 0.60803 0.50831 0.0
H673 H 0.18774 0.62826 0.52377 0.0
H674 H 0.16712 0.64621 0.47932 0.0
H675 H 0.16445 0.64674 0.40023 0.0
H676 H 0.65933 0.85641 0.12372 0.0
H677 H 0.66158 0.85685 0.0445 0.0
H678 H 0.62653 0.90215 0.0403 0.0
H679 H 0.62401 0.90173 0.11929 0.0
H680 H 0.63444 0.85368 0.98371 0.0
H681 H 0.66895 0.91765 0.96505 0.0
H682 H 0.66741 0.90651 0.01658 0.0
H683 H 0.64823 0.91884 0.99629 0.0
C684 C 0.65207 0.86648 0.10602 0.0
C685 C 0.64155 0.87909 0.12813 0.0
C686 C 0.65345 0.86675 0.06068 0.0
C687 C 0.64447 0.87969 0.03643 0.0
C688 C 0.63397 0.89229 0.05832 0.0
H689 H 0.62875 0.90288 0.76376 0.0
H690 H 0.62791 0.90155 0.84294 0.0
C691 C 0.63257 0.89204 0.10362 0.0
C692 C 0.64552 0.87966 0.98818 0.0
H693 H 0.65691 0.90488 0.9007 0.0
C694 C 0.63948 0.86482 0.96555 0.0
C695 C 0.65211 0.89419 0.96447 0.0
C696 C 0.65971 0.91014 0.98682 0.0
C697 C 0.63938 0.86431 0.9199 0.0
C698 C 0.64575 0.87893 0.8962 0.0
C699 C 0.65194 0.8937 0.91885 0.0
C700 C 0.64601 0.87927 0.8479 0.0
C701 C 0.63198 0.8483 0.89746 0.0
C702 C 0.65656 0.86725 0.82423 0.0
C703 C 0.65723 0.86806 0.7788 0.0
C704 C 0.64739 0.88097 0.75599 0.0
C705 C 0.63673 0.89291 0.77999 0.0
C706 C 0.63614 0.89212 0.82536 0.0
H707 H 0.62344 0.84026 0.91963 0.0
H708 H 0.62363 0.85196 0.86873 0.0
H709 H 0.6436 0.84013 0.88618 0.0
H710 H 0.66462 0.85745 0.84092 0.0
H711 H 0.66588 0.85885 0.76171 0.0
H712 H 0.35983 0.3547 0.26856 0.0
H713 H 0.36158 0.35293 0.18926 0.0
H714 H 0.36463 0.40907 0.18177 0.0
H715 H 0.36282 0.41099 0.26064 0.0
H716 H 0.33959 0.36559 0.12572 0.0
H717 H 0.40827 0.39549 0.10969 0.0
H718 H 0.39919 0.38848 0.16131 0.0
H719 H 0.39258 0.40924 0.13869 0.0
C720 C 0.36081 0.36669 0.25009 0.0
C721 C 0.36139 0.38299 0.27132 0.0
C722 C 0.36189 0.36564 0.20468 0.0
C723 C 0.36366 0.38084 0.17946 0.0
C724 C 0.36385 0.39712 0.20046 0.0
H725 H 0.3678 0.40758 0.90701 0.0
H726 H 0.36476 0.40689 0.98592 0.0
C727 C 0.36281 0.39818 0.24575 0.0
C728 C 0.36496 0.37977 0.13121 0.0
H729 H 0.39093 0.39274 0.04458 0.0
C730 C 0.3509 0.37139 0.10801 0.0
C731 C 0.37974 0.38727 0.10795 0.0
C732 C 0.39589 0.39547 0.1307 0.0
C733 C 0.35097 0.3708 0.06232 0.0
C734 C 0.36553 0.37867 0.0392 0.0
C735 C 0.37969 0.38683 0.06235 0.0
C736 C 0.36636 0.37877 0.99096 0.0
C737 C 0.33521 0.3622 0.03905 0.0
C738 C 0.36828 0.36316 0.96746 0.0
C739 C 0.37028 0.3635 0.9222 0.0
C740 C 0.37043 0.37947 0.89948 0.0
C741 C 0.3681 0.39504 0.92325 0.0
C742 C 0.36622 0.39469 0.96844 0.0
H743 H 0.32331 0.36005 0.06091 0.0
H744 H 0.33072 0.37024 1.01099 0.0
H745 H 0.33972 0.34931 0.02645 0.0
H746 H 0.36877 0.35074 0.98423 0.0
H747 H 0.37234 0.35126 0.90528 0.0
H748 H 0.86507 0.09918 0.62318 0.0
H749 H 0.86283 0.09941 0.54393 0.0
H750 H 0.87275 0.1549 0.54314 0.0
H751 H 0.87583 0.15469 0.62207 0.0
H752 H 0.83985 0.11669 0.4882 0.0
H753 H 0.91151 0.13782 0.45955 0.0
H754 H 0.90356 0.13047 0.51194 0.0
H755 H 0.89868 0.15232 0.49382 0.0
C756 C 0.86696 0.11142 0.60619 0.0
C757 C 0.87081 0.12688 0.62924 0.0
C758 C 0.86554 0.11155 0.56083 0.0
C759 C 0.86801 0.12711 0.5374 0.0
C760 C 0.87123 0.14266 0.56034 0.0
H761 H 0.86887 0.15248 0.26099 0.0
H762 H 0.8695 0.15331 0.34042 0.0
C763 C 0.87271 0.14254 0.60567 0.0
C764 C 0.86726 0.12702 0.48904 0.0
H765 H 0.89213 0.13663 0.39797 0.0
C766 C 0.85131 0.12099 0.46847 0.0
C767 C 0.88219 0.13266 0.46321 0.0
C768 C 0.90002 0.13853 0.48317 0.0
C769 C 0.84977 0.1207 0.42293 0.0
C770 C 0.86473 0.12628 0.39709 0.0
C771 C 0.88065 0.13238 0.41768 0.0
C772 C 0.86423 0.12571 0.34869 0.0
C773 C 0.83196 0.11479 0.40298 0.0
C774 C 0.86134 0.10989 0.3267 0.0
C775 C 0.86081 0.10938 0.28126 0.0
C776 C 0.86336 0.12468 0.25654 0.0
C777 C 0.86656 0.14048 0.27875 0.0
C778 C 0.86705 0.14097 0.32425 0.0
H779 H 0.82042 0.11581 0.42639 0.0
H780 H 0.82858 0.12262 0.37371 0.0
H781 H 0.83322 0.1009 0.39316 0.0
H782 H 0.85953 0.09786 0.3447 0.0
H783 H 0.85811 0.09699 0.26557 0.0
H784 H 0.17184 0.3642 0.26712 0.0
H785 H 0.17007 0.36317 0.34634 0.0
H786 H 0.12318 0.39742 0.34349 0.0
H787 H 0.12427 0.39786 0.26432 0.0
H788 H 0.17312 0.38951 0.40497 0.0
H789 H 0.10476 0.3587 0.42037 0.0
H790 H 0.11711 0.35936 0.36962 0.0
H791 H 0.10445 0.37816 0.38797 0.0
C792 C 0.16091 0.37123 0.28322 0.0
C793 C 0.14811 0.38101 0.25914 0.0
C794 C 0.16003 0.37076 0.32858 0.0
C795 C 0.14633 0.37999 0.35084 0.0
C796 C 0.13364 0.38988 0.32701 0.0
H797 H 0.11711 0.39712 0.6196 0.0
H798 H 0.12059 0.39823 0.54077 0.0
C799 C 0.13443 0.39029 0.28168 0.0
C800 C 0.1456 0.37968 0.39901 0.0
H801 H 0.11752 0.37063 0.4848 0.0
C802 C 0.16101 0.38527 0.42246 0.0
C803 C 0.1298 0.37414 0.4218 0.0
C804 C 0.11316 0.36709 0.39867 0.0
C805 C 0.16088 0.38589 0.46806 0.0
C806 C 0.14499 0.38055 0.49076 0.0
C807 C 0.12965 0.37483 0.46732 0.0
C808 C 0.14387 0.38075 0.53884 0.0
C809 C 0.17757 0.39269 0.49143 0.0
C810 C 0.15586 0.3706 0.56398 0.0
C811 C 0.15404 0.37009 0.60916 0.0
C812 C 0.14006 0.37959 0.63007 0.0
C813 C 0.12821 0.38988 0.60473 0.0
C814 C 0.13008 0.39042 0.5596 0.0
H815 H 0.18648 0.40051 0.46957 0.0
H816 H 0.17362 0.40088 0.51968 0.0
H817 H 0.18574 0.38148 0.50354 0.0
H818 H 0.16638 0.36277 0.54861 0.0
H819 H 0.1635 0.36213 0.62766 0.0
H820 H 0.8887 0.8969 0.76338 0.0
H821 H 0.88969 0.89533 0.68417 0.0
H822 H 0.83968 0.86539 0.68408 0.0
H823 H 0.83809 0.86756 0.76313 0.0
H824 H 0.89147 0.86741 0.62925 0.0
H825 H 0.82717 0.90435 0.60055 0.0
H826 H 0.83827 0.90366 0.65287 0.0
H827 H 0.8244 0.88562 0.63498 0.0
C828 C 0.87778 0.89014 0.74656 0.0
C829 C 0.86321 0.88251 0.76978 0.0
C830 C 0.87845 0.88915 0.70126 0.0
C831 C 0.86457 0.88054 0.67814 0.0
C832 C 0.85031 0.87245 0.70117 0.0
H833 H 0.84711 0.8629 0.40122 0.0
H834 H 0.84509 0.86256 0.48071 0.0
C835 C 0.84958 0.87349 0.74648 0.0
C836 C 0.8651 0.88001 0.62996 0.0
H837 H 0.84116 0.89149 0.53894 0.0
C838 C 0.88049 0.8727 0.60952 0.0
C839 C 0.85075 0.88693 0.60422 0.0
C840 C 0.83428 0.89574 0.62419 0.0
C841 C 0.88183 0.87197 0.56408 0.0
C842 C 0.86752 0.87893 0.53844 0.0
C843 C 0.85207 0.88611 0.55877 0.0
C844 C 0.8686 0.87929 0.49043 0.0
C845 C 0.89843 0.86351 0.54384 0.0
C846 C 0.88229 0.88905 0.4697 0.0
C847 C 0.88352 0.88923 0.42447 0.0
C848 C 0.87099 0.87975 0.399 0.0
C849 C 0.85709 0.87019 0.4199 0.0
C850 C 0.85585 0.87004 0.46525 0.0
H851 H 0.90584 0.85508 0.56736 0.0
H852 H 0.89449 0.85549 0.51527 0.0
H853 H 0.908 0.87382 0.53264 0.0
H854 H 0.89208 0.8965 0.48855 0.0
H855 H 0.89453 0.89656 0.4095 0.0
H856 H 0.35292 0.59538 0.76647 0.0
H857 H 0.35464 0.5977 0.84535 0.0
H858 H 0.37306 0.65099 0.83383 0.0
H859 H 0.37142 0.6488 0.75465 0.0
H860 H 0.38351 0.60411 0.8975 0.0
H861 H 0.33161 0.65635 0.91933 0.0
H862 H 0.3346 0.64495 0.86851 0.0
H863 H 0.35005 0.66222 0.88366 0.0
C864 C 0.35745 0.6076 0.78056 0.0
C865 C 0.36202 0.62192 0.75401 0.0
C866 C 0.35832 0.60892 0.82578 0.0
C867 C 0.36367 0.6246 0.84562 0.0
C868 C 0.36842 0.63889 0.81934 0.0
H869 H 0.38035 0.65412 0.11544 0.0
H870 H 0.3778 0.65339 0.03638 0.0
C871 C 0.36751 0.63761 0.77401 0.0
C872 C 0.36468 0.62572 0.89377 0.0
H873 H 0.34831 0.64796 0.98191 0.0
C874 C 0.37575 0.61366 0.91594 0.0
C875 C 0.35462 0.63822 0.91787 0.0
C876 C 0.34192 0.65107 0.89621 0.0
C877 C 0.37718 0.61388 0.9614 0.0
C878 C 0.367 0.62627 0.98549 0.0
C879 C 0.35606 0.63843 0.96338 0.0
C880 C 0.36765 0.62688 0.03364 0.0
C881 C 0.3899 0.60105 0.98314 0.0
C882 C 0.36232 0.61237 0.05846 0.0
C883 C 0.36366 0.61276 0.10375 0.0
C884 C 0.37022 0.62773 0.12517 0.0
C885 C 0.37504 0.64243 0.10017 0.0
C886 C 0.3737 0.64202 0.0549 0.0
H887 H 0.40024 0.5958 0.96008 0.0
H888 H 0.39717 0.6072 1.01088 0.0
H889 H 0.38179 0.58989 0.99571 0.0
H890 H 0.35716 0.60071 0.04279 0.0
H891 H 0.35951 0.60133 0.12197 0.0
H892 H 0.65544 0.152 0.90061 0.0
H893 H 0.65891 0.15183 0.97974 0.0
H894 H 0.62739 0.10431 0.98697 0.0
H895 H 0.62393 0.10433 0.90826 0.0
H896 H 0.63399 0.15347 0.04399 0.0
H897 H 0.67123 0.09079 0.05757 0.0
H898 H 0.66784 0.10169 1.00625 0.0
H899 H 0.64988 0.08848 0.02935 0.0
C900 C 0.64926 0.1415 0.91903 0.0
C901 C 0.63957 0.12807 0.89783 0.0
C902 C 0.6513 0.14139 0.96431 0.0
C903 C 0.64376 0.12786 0.9894 0.0
C904 C 0.63386 0.11461 0.96837 0.0
H905 H 0.63127 0.10297 0.26163 0.0
H906 H 0.6298 0.10503 0.18267 0.0
C907 C 0.63187 0.11465 0.92319 0.0
C908 C 0.64573 0.12781 0.03762 0.0
H909 H 0.65904 0.10243 0.12339 0.0
C910 C 0.63963 0.14238 0.06131 0.0
C911 C 0.65315 0.11337 0.06039 0.0
C912 C 0.66107 0.09778 0.03705 0.0
C913 C 0.6402 0.14265 0.10701 0.0
C914 C 0.64722 0.12804 0.12972 0.0
C915 C 0.65354 0.11358 0.10603 0.0
C916 C 0.64788 0.12731 0.17805 0.0
C917 C 0.63278 0.15837 0.13067 0.0
C918 C 0.65863 0.1391 0.20194 0.0
C919 C 0.65971 0.13783 0.24732 0.0
C920 C 0.65009 0.12471 0.26991 0.0
C921 C 0.63917 0.11306 0.24566 0.0
C922 C 0.63819 0.11428 0.20037 0.0
H923 H 0.62415 0.16666 0.10925 0.0
H924 H 0.62452 0.15432 0.15923 0.0
H925 H 0.64439 0.16642 0.14247 0.0
H926 H 0.66652 0.14906 0.18541 0.0
H927 H 0.66851 0.14687 0.26451 0.0
H928 H 0.86823 0.35489 0.25765 0.0
H929 H 0.86939 0.35277 0.33702 0.0
H930 H 0.85817 0.40789 0.34731 0.0
H931 H 0.85636 0.41005 0.26839 0.0
H932 H 0.89231 0.37039 0.39619 0.0
H933 H 0.81928 0.38636 0.42627 0.0
H934 H 0.82778 0.38022 0.37334 0.0
H935 H 0.83109 0.40207 0.39327 0.0
C936 C 0.86579 0.36653 0.27678 0.0
C937 C 0.86213 0.38263 0.25643 0.0
C938 C 0.86659 0.36531 0.32215 0.0
C939 C 0.86358 0.38011 0.34812 0.0
C940 C 0.8602 0.39623 0.32798 0.0
H941 H 0.86161 0.40573 0.62072 0.0
H942 H 0.85932 0.40471 0.5418 0.0
C943 C 0.8594 0.39747 0.28272 0.0
C944 C 0.86419 0.37882 0.39627 0.0
H945 H 0.8388 0.3859 0.48783 0.0
C946 C 0.88058 0.37363 0.41628 0.0
C947 C 0.84889 0.3831 0.42241 0.0
C948 C 0.8307 0.3881 0.4028 0.0
C949 C 0.88226 0.37315 0.46176 0.0
C950 C 0.86697 0.37755 0.48796 0.0
C951 C 0.85051 0.38251 0.46784 0.0
C952 C 0.86792 0.37775 0.53625 0.0
C953 C 0.90061 0.36857 0.4812 0.0
C954 C 0.87308 0.36281 0.55972 0.0
C955 C 0.87474 0.36343 0.60501 0.0
C956 C 0.87101 0.37896 0.62786 0.0
C957 C 0.86504 0.39366 0.60428 0.0
C958 C 0.86357 0.39307 0.55907 0.0
H959 H 0.91191 0.37025 0.45739 0.0
H960 H 0.90357 0.37676 0.51012 0.0
H961 H 0.90049 0.35468 0.49145 0.0
H962 H 0.87601 0.35068 0.54301 0.0
H963 H 0.87944 0.35187 0.62189 0.0
H964 H 0.37873 0.147 0.27073 0.0
H965 H 0.38043 0.14976 0.19141 0.0
H966 H 0.34778 0.10325 0.17715 0.0
H967 H 0.34577 0.10048 0.25609 0.0
H968 H 0.39355 0.12115 0.12895 0.0
H969 H 0.32176 0.14344 0.1038 0.0
H970 H 0.33377 0.14655 0.15456 0.0
H971 H 0.32531 0.12533 0.14015 0.0
C972 C 0.37178 0.13744 0.25074 0.0
C973 C 0.36211 0.12352 0.26988 0.0
C974 C 0.37287 0.13898 0.20546 0.0
C975 C 0.36412 0.12677 0.17855 0.0
C976 C 0.35451 0.11287 0.19742 0.0
H977 H 0.34904 0.11089 0.90294 0.0
H978 H 0.3474 0.11074 0.98222 0.0
C979 C 0.35351 0.11125 0.24257 0.0
C980 C 0.3651 0.12841 0.13065 0.0
H981 H 0.33909 0.13711 0.04103 0.0
C982 C 0.38172 0.12477 0.10966 0.0
C983 C 0.34958 0.133 0.10571 0.0
C984 C 0.33157 0.13743 0.12699 0.0
C985 C 0.38311 0.12525 0.06415 0.0
C986 C 0.36758 0.12988 0.03912 0.0
C987 C 0.35099 0.13361 0.06024 0.0
C988 C 0.36819 0.13055 0.99095 0.0
C989 C 0.40103 0.12021 0.04317 0.0
C990 C 0.38013 0.14202 0.96945 0.0
C991 C 0.38124 0.14203 0.9241 0.0
C992 C 0.3703 0.13066 0.89925 0.0
C993 C 0.35789 0.11961 0.92096 0.0
C994 C 0.35684 0.11958 0.96631 0.0
H995 H 0.41008 0.11299 0.06595 0.0
H996 H 0.39867 0.11197 0.01401 0.0
H997 H 0.40834 0.1322 0.03276 0.0
H998 H 0.38874 0.15086 0.98779 0.0
H999 H 0.39106 0.15061 0.90864 0.0
H1000 H 0.62082 0.60638 0.11779 0.0
H1001 H 0.62343 0.606 0.03876 0.0
H1002 H 0.66352 0.64727 0.04463 0.0
H1003 H 0.66163 0.64722 0.12385 0.0
H1004 H 0.61578 0.63226 0.98224 0.0
H1005 H 0.68867 0.61296 0.96483 0.0
H1006 H 0.67642 0.61101 0.01553 0.0
H1007 H 0.68515 0.63186 0.99829 0.0
C1008 C 0.63052 0.61512 0.10245 0.0
C1009 C 0.64111 0.62675 0.12742 0.0
C1010 C 0.63186 0.61499 0.05715 0.0
C1011 C 0.64385 0.62643 0.0357 0.0
C1012 C 0.65445 0.63806 0.06042 0.0
H1013 H 0.66768 0.6455 0.7623 0.0
H1014 H 0.66595 0.64674 0.8415 0.0
C1015 C 0.65318 0.63816 0.10578 0.0
C1016 C 0.64459 0.62667 0.98743 0.0
H1017 H 0.67333 0.62174 0.90064 0.0
C1018 C 0.62835 0.62989 0.96439 0.0
C1019 C 0.66102 0.62369 0.96413 0.0
C1020 C 0.67878 0.61953 0.98689 0.0
C1021 C 0.6281 0.63041 0.91879 0.0
C1022 C 0.64449 0.62726 0.89542 0.0
C1023 C 0.66077 0.62416 0.91849 0.0
C1024 C 0.64501 0.62687 0.84708 0.0
C1025 C 0.61034 0.63474 0.89622 0.0
C1026 C 0.63389 0.61524 0.8237 0.0
C1027 C 0.63464 0.61468 0.77832 0.0
C1028 C 0.64673 0.62557 0.75515 0.0
C1029 C 0.65794 0.63715 0.77878 0.0
C1030 C 0.6571 0.63776 0.82419 0.0
H1031 H 0.60082 0.64191 0.91805 0.0
H1032 H 0.61275 0.64278 0.86676 0.0
H1033 H 0.6035 0.62244 0.88628 0.0
H1034 H 0.62474 0.60642 0.84057 0.0
H1035 H 0.62568 0.6057 0.76142 0.0
H1036 H 0.15043 0.90668 0.40477 0.0
H1037 H 0.15274 0.90629 0.48385 0.0
H1038 H 0.13909 0.85152 0.48481 0.0
H1039 H 0.13631 0.85183 0.4057 0.0
H1040 H 0.12431 0.89735 0.54163 0.0
H1041 H 0.18473 0.85406 0.56287 0.0
H1042 H 0.17941 0.86453 0.51185 0.0
H1043 H 0.16687 0.84553 0.52877 0.0
C1044 C 0.1479 0.89452 0.42169 0.0
C1045 C 0.1431 0.87929 0.39871 0.0
C1046 C 0.14934 0.89432 0.46691 0.0
C1047 C 0.14626 0.87885 0.49014 0.0
C1048 C 0.14186 0.86353 0.46742 0.0
H1049 H 0.14477 0.85511 0.76709 0.0
H1050 H 0.14335 0.85368 0.68775 0.0
C1051 C 0.14033 0.86373 0.42213 0.0
C1052 C 0.14666 0.87906 0.53827 0.0
H1053 H 0.16874 0.86218 0.62657 0.0
C1054 C 0.13406 0.8897 0.56025 0.0
C1055 C 0.15929 0.86897 0.56241 0.0
C1056 C 0.17347 0.85771 0.54039 0.0
C1057 C 0.1336 0.89041 0.60577 0.0
C1058 C 0.14641 0.88053 0.63002 0.0
C1059 C 0.15893 0.86976 0.608 0.0
C1060 C 0.14726 0.88142 0.67818 0.0
C1061 C 0.11913 0.90147 0.62739 0.0
C1062 C 0.15025 0.89743 0.69917 0.0
C1063 C 0.15111 0.8983 0.74445 0.0
C1064 C 0.14916 0.88312 0.76986 0.0
C1065 C 0.14645 0.86704 0.74865 0.0
C1066 C 0.14556 0.8662 0.70328 0.0
H1067 H 0.10727 0.90378 0.60551 0.0
H1068 H 0.11408 0.89525 0.65769 0.0
H1069 H 0.12508 0.91437 0.63577 0.0
H1070 H 0.15213 0.90928 0.6805 0.0
H1071 H 0.15365 0.91085 0.75949 0.0
H1072 H 0.83441 0.63393 0.76299 0.0
H1073 H 0.83588 0.63553 0.68373 0.0
H1074 H 0.89181 0.61746 0.687 0.0
H1075 H 0.89055 0.61593 0.76613 0.0
H1076 H 0.85846 0.65389 0.62791 0.0
H1077 H 0.86799 0.58263 0.60547 0.0
H1078 H 0.86116 0.59205 0.65671 0.0
H1079 H 0.88483 0.5924 0.64027 0.0
C1080 C 0.84711 0.63048 0.74695 0.0
C1081 C 0.86231 0.62464 0.77106 0.0
C1082 C 0.84788 0.63132 0.70159 0.0
C1083 C 0.86382 0.62625 0.67941 0.0
C1084 C 0.8792 0.62097 0.70337 0.0
H1085 H 0.89867 0.61778 0.41273 0.0
H1086 H 0.8955 0.61776 0.49157 0.0
C1087 C 0.87845 0.62011 0.74866 0.0
C1088 C 0.86436 0.62638 0.63123 0.0
H1089 H 0.87195 0.60032 0.54303 0.0
C1090 C 0.86129 0.64217 0.60928 0.0
C1091 C 0.86801 0.61107 0.60699 0.0
C1092 C 0.87052 0.59354 0.6285 0.0
C1093 C 0.86234 0.64315 0.56377 0.0
C1094 C 0.8662 0.62786 0.53959 0.0
C1095 C 0.86904 0.61205 0.56158 0.0
C1096 C 0.86785 0.62796 0.49156 0.0
C1097 C 0.85988 0.66067 0.54217 0.0
C1098 C 0.85323 0.63343 0.46521 0.0
C1099 C 0.85498 0.6334 0.41997 0.0
C1100 C 0.87131 0.62771 0.40021 0.0
C1101 C 0.8858 0.62201 0.42676 0.0
C1102 C 0.88406 0.6221 0.4719 0.0
H1103 H 0.86198 0.6716 0.56537 0.0
H1104 H 0.86955 0.66227 0.51462 0.0
H1105 H 0.84571 0.66164 0.52938 0.0
H1106 H 0.8404 0.63756 0.4796 0.0
H1107 H 0.84346 0.63764 0.40047 0.0
H1108 H 0.15213 0.10122 0.62411 0.0
H1109 H 0.15442 0.10089 0.54484 0.0
H1110 H 0.13369 0.15359 0.5399 0.0
H1111 H 0.13125 0.15403 0.61888 0.0
H1112 H 0.12727 0.10468 0.48492 0.0
H1113 H 0.17842 0.15743 0.46335 0.0
H1114 H 0.17396 0.14745 0.51539 0.0
H1115 H 0.15881 0.16399 0.49452 0.0
C1116 C 0.14807 0.11276 0.6062 0.0
C1117 C 0.1416 0.12769 0.62804 0.0
C1118 C 0.14947 0.11257 0.56087 0.0
C1119 C 0.14454 0.12732 0.53642 0.0
C1120 C 0.13807 0.14222 0.55807 0.0
H1121 H 0.13686 0.15069 0.2605 0.0
H1122 H 0.13578 0.15129 0.33991 0.0
C1123 C 0.13668 0.14244 0.60335 0.0
C1124 C 0.14536 0.12683 0.48819 0.0
H1125 H 0.16332 0.14754 0.39957 0.0
C1126 C 0.13525 0.11398 0.46626 0.0
C1127 C 0.1557 0.13902 0.46383 0.0
C1128 C 0.16748 0.15265 0.48545 0.0
C1129 C 0.13491 0.11318 0.4207 0.0
C1130 C 0.14524 0.12537 0.3963 0.0
C1131 C 0.15536 0.13822 0.41824 0.0
C1132 C 0.14588 0.12492 0.34804 0.0
C1133 C 0.1231 0.09955 0.39916 0.0
C1134 C 0.15218 0.11 0.32615 0.0
C1135 C 0.15287 0.10963 0.28078 0.0
C1136 C 0.14741 0.12423 0.25615 0.0
C1137 C 0.14131 0.13924 0.27827 0.0
C1138 C 0.1406 0.13959 0.32371 0.0
H1139 H 0.11222 0.09473 0.42137 0.0
H1140 H 0.11653 0.10479 0.36936 0.0
H1141 H 0.13176 0.08824 0.38988 0.0
H1142 H 0.15681 0.0987 0.34419 0.0
H1143 H 0.15807 0.09799 0.26506 0.0
H1144 H 0.66328 0.40996 0.25609 0.0
H1145 H 0.66143 0.40775 0.17713 0.0
H1146 H 0.63787 0.35634 0.18878 0.0
H1147 H 0.63901 0.35869 0.268 0.0
H1148 H 0.6777 0.38364 0.12273 0.0
H1149 H 0.60196 0.38064 0.10765 0.0
H1150 H 0.61324 0.3873 0.15712 0.0
H1151 H 0.61169 0.36454 0.14321 0.0
C1152 C 0.65741 0.39828 0.242 0.0
C1153 C 0.65114 0.38456 0.26858 0.0
C1154 C 0.65651 0.39699 0.19678 0.0
C1155 C 0.64927 0.382 0.17704 0.0
C1156 C 0.64319 0.36818 0.20331 0.0
H1157 H 0.63092 0.35335 0.90732 0.0
H1158 H 0.63404 0.35355 0.98625 0.0
C1159 C 0.64406 0.36946 0.24863 0.0
C1160 C 0.64848 0.38077 0.12896 0.0
H1161 H 0.61908 0.37628 0.04344 0.0
C1162 C 0.66489 0.38206 0.10536 0.0
C1163 C 0.63176 0.37866 0.10636 0.0
C1164 C 0.61362 0.37785 0.12977 0.0
C1165 C 0.66505 0.3811 0.05981 0.0
C1166 C 0.6483 0.37916 0.0372 0.0
C1167 C 0.63191 0.37775 0.06081 0.0
C1168 C 0.64739 0.37875 0.98904 0.0
C1169 C 0.6832 0.38179 0.03646 0.0
C1170 C 0.65384 0.39286 0.96429 0.0
C1171 C 0.6523 0.39269 0.91903 0.0
C1172 C 0.64408 0.37848 0.89758 0.0
C1173 C 0.63764 0.36436 0.92256 0.0
C1174 C 0.63926 0.36451 0.96778 0.0
H1175 H 0.69471 0.37814 0.05823 0.0
H1176 H 0.6833 0.37294 1.00788 0.0
H1177 H 0.68566 0.39532 0.02492 0.0
H1178 H 0.6598 0.40416 0.98 0.0
H1179 H 0.65752 0.40373 0.90087 0.0
H1180 H 0.40289 0.88243 0.11046 0.0
H1181 H 0.39902 0.88249 0.03168 0.0
H1182 H 0.34063 0.87689 0.04746 0.0
H1183 H 0.3443 0.87733 0.12651 0.0
H1184 H 0.38336 0.85642 0.97865 0.0
H1185 H 0.34534 0.91908 0.96561 0.0
H1186 H 0.35807 0.91302 0.01357 0.0
H1187 H 0.336 0.9035 1.00326 0.0
C1188 C 0.38917 0.88148 0.09729 0.0
C1189 C 0.37388 0.88007 0.12495 0.0
C1190 C 0.38702 0.88137 0.05219 0.0
C1191 C 0.36953 0.87993 0.03368 0.0
C1192 C 0.35423 0.87831 0.06105 0.0
H1193 H 0.3321 0.88136 0.76469 0.0
H1194 H 0.33416 0.8793 0.84378 0.0
C1195 C 0.35637 0.87839 0.10625 0.0
C1196 C 0.36743 0.8799 0.9857 0.0
H1197 H 0.34896 0.90278 0.90111 0.0
C1198 C 0.37585 0.86656 0.96166 0.0
C1199 C 0.35759 0.8931 0.96362 0.0
C1200 C 0.34883 0.9081 0.98768 0.0
C1201 C 0.37455 0.86597 0.91614 0.0
C1202 C 0.36491 0.8793 0.89395 0.0
C1203 C 0.35634 0.89256 0.91808 0.0
C1204 C 0.36377 0.87991 0.84571 0.0
C1205 C 0.38321 0.85087 0.89234 0.0
C1206 C 0.37972 0.88102 0.82038 0.0
C1207 C 0.37861 0.88203 0.77507 0.0
C1208 C 0.36149 0.88211 0.75398 0.0
C1209 C 0.34553 0.88103 0.77957 0.0
C1210 C 0.34666 0.88 0.8249 0.0
H1211 H 0.38536 0.83948 0.9141 0.0
H1212 H 0.37462 0.8467 0.86445 0.0
H1213 H 0.39678 0.85496 0.87971 0.0
H1214 H 0.39308 0.88133 0.83568 0.0
H1215 H 0.39121 0.8827 0.75658 0.0
H1216 H 0.15918 0.67728 0.12622 0.0
H1217 H 0.15852 0.70918 0.13794 0.0
H1218 H 0.11905 0.71453 0.03469 0.0
H1219 H 0.1201 0.68294 0.02226 0.0
H1220 H 0.16648 0.73515 0.06517 0.0
H1221 H 0.09808 0.74349 0.14156 0.0
H1222 H 0.11066 0.72316 0.1438 0.0
H1223 H 0.099 0.72937 0.09484 0.0
C1224 C 0.14995 0.68526 0.10709 0.0
C1225 C 0.13934 0.67766 0.07403 0.0
C1226 C 0.14973 0.70347 0.11343 0.0
C1227 C 0.1386 0.71424 0.08744 0.0
C1228 C 0.12756 0.7065 0.05549 0.0
H1229 H 0.13117 0.8202 1.00573 0.0
H1230 H 0.13061 0.78862 0.01734 0.0
C1231 C 0.12808 0.68845 0.04858 0.0
C1232 C 0.1392 0.73365 0.09139 0.0
H1233 H 0.11263 0.76923 0.11542 0.0
C1234 C 0.15484 0.74259 0.07687 0.0
C1235 C 0.12395 0.74338 0.10626 0.0
C1236 C 0.10697 0.73442 0.12283 0.0
C1237 C 0.15535 0.76098 0.07556 0.0
C1238 C 0.13994 0.77069 0.08952 0.0
C1239 C 0.1245 0.76177 0.10509 0.0
C1240 C 0.13914 0.79001 0.08443 0.0
C1241 C 0.17215 0.77002 0.05813 0.0
C1242 C 0.1437 0.80136 0.11873 0.0
C1243 C 0.14375 0.81959 0.11234 0.0
C1244 C 0.13945 0.8266 0.07137 0.0
C1245 C 0.13451 0.81516 0.03764 0.0
C1246 C 0.13424 0.7971 0.04416 0.0
H1247 H 0.18346 0.76072 0.05118 0.0
H1248 H 0.16861 0.77701 0.02769 0.0
H1249 H 0.17701 0.7799 0.08187 0.0
H1250 H 0.14762 0.79611 0.15004 0.0
H1251 H 0.14793 0.82808 0.13866 0.0
H1252 H 0.58317 0.90666 0.49423 0.0
H1253 H 0.54972 0.90747 0.50496 0.0
H1254 H 0.5472 0.85174 0.48611 0.0
H1255 H 0.58047 0.85102 0.47391 0.0
H1256 H 0.52344 0.89268 0.43661 0.0
H1257 H 0.51617 0.86391 0.60139 0.0
H1258 H 0.53692 0.87459 0.58337 0.0
H1259 H 0.5316 0.85299 0.5646 0.0
C1260 C 0.57548 0.89456 0.49348 0.0
C1261 C 0.58435 0.87873 0.48396 0.0
C1262 C 0.5564 0.89504 0.49931 0.0
C1263 C 0.54598 0.87964 0.49674 0.0
C1264 C 0.55497 0.86375 0.48869 0.0
H1265 H 0.43445 0.85297 0.44403 0.0
H1266 H 0.46757 0.85462 0.45512 0.0
C1267 C 0.57395 0.86333 0.48182 0.0
C1268 C 0.5256 0.88025 0.49903 0.0
H1269 H 0.48885 0.86718 0.56008 0.0
C1270 C 0.51589 0.8873 0.46383 0.0
C1271 C 0.51574 0.8732 0.5345 0.0
C1272 C 0.52556 0.86582 0.57338 0.0
C1273 C 0.49662 0.88699 0.46264 0.0
C1274 C 0.48676 0.87955 0.49759 0.0
C1275 C 0.49642 0.87292 0.53336 0.0
C1276 C 0.46648 0.87763 0.49568 0.0
C1277 C 0.48681 0.89429 0.42361 0.0
C1278 C 0.45479 0.88977 0.51586 0.0
C1279 C 0.4357 0.88879 0.50985 0.0
C1280 C 0.42809 0.87571 0.48329 0.0
C1281 C 0.43986 0.86323 0.46461 0.0
C1282 C 0.45881 0.86414 0.47088 0.0
H1283 H 0.49628 0.90112 0.40104 0.0
H1284 H 0.48002 0.8835 0.40573 0.0
H1285 H 0.47597 0.90356 0.43417 0.0
H1286 H 0.46046 0.90035 0.53495 0.0
H1287 H 0.42704 0.89873 0.52414 0.0
H1288 H 0.38635 0.32989 0.63065 0.0
H1289 H 0.38942 0.29797 0.64118 0.0
H1290 H 0.35685 0.2891 0.5265 0.0
H1291 H 0.35401 0.32033 0.51558 0.0
H1292 H 0.36173 0.27027 0.6485 0.0
H1293 H 0.40429 0.26238 0.50103 0.0
H1294 H 0.40063 0.28334 0.5265 0.0
H1295 H 0.38351 0.27423 0.49102 0.0
C1296 C 0.37984 0.32106 0.60791 0.0
C1297 C 0.37014 0.32765 0.57199 0.0
C1298 C 0.38158 0.30287 0.61393 0.0
C1299 C 0.37366 0.29114 0.58409 0.0
C1300 C 0.36343 0.29783 0.5494 0.0
H1301 H 0.3554 0.18688 0.51086 0.0
H1302 H 0.35835 0.21802 0.52319 0.0
C1303 C 0.3618 0.31577 0.5433 0.0
C1304 C 0.3761 0.27187 0.58765 0.0
H1305 H 0.38982 0.23657 0.52803 0.0
C1306 C 0.36821 0.26286 0.6227 0.0
C1307 C 0.38451 0.26219 0.5539 0.0
C1308 C 0.39387 0.27104 0.51617 0.0
C1309 C 0.36757 0.24443 0.62352 0.0
C1310 C 0.37526 0.2348 0.5887 0.0
C1311 C 0.38388 0.24388 0.55475 0.0
C1312 C 0.37294 0.21553 0.58401 0.0
C1313 C 0.35782 0.23545 0.6604 0.0
C1314 C 0.38006 0.20351 0.61432 0.0
C1315 C 0.37827 0.18539 0.6074 0.0
C1316 C 0.36949 0.1791 0.56984 0.0
C1317 C 0.36231 0.19122 0.54006 0.0
C1318 C 0.36399 0.20911 0.54704 0.0
H1319 H 0.3498 0.24477 0.68051 0.0
H1320 H 0.34843 0.22522 0.64783 0.0
H1321 H 0.36808 0.22902 0.68161 0.0
H1322 H 0.38731 0.20812 0.64276 0.0
H1323 H 0.384 0.17637 0.63084 0.0
H1324 H 0.92615 0.11375 0.04243 0.0
H1325 H 0.95919 0.11354 0.05955 0.0
H1326 H 0.96955 0.14656 0.94885 0.0
H1327 H 0.93711 0.1471 0.93223 0.0
H1328 H 0.98841 0.10182 1.0066 0.0
H1329 H 0.99728 0.17182 0.04368 0.0
H1330 H 0.97504 0.16148 0.04275 0.0
H1331 H 0.98564 0.16868 0.993 0.0
C1332 C 0.93548 0.12122 0.02236 0.0
C1333 C 0.92893 0.1305 0.98611 0.0
C1334 C 0.95436 0.12101 0.03197 0.0
C1335 C 0.96687 0.13027 1.00586 0.0
C1336 C 0.96021 0.13964 0.9701 0.0
H1337 H 0.07532 0.14531 0.92783 0.0
H1338 H 0.04286 0.1446 0.94518 0.0
C1339 C 0.94156 0.13983 0.96049 0.0
C1340 C 0.98702 0.12974 0.01382 0.0
H1341 H 0.02441 0.1565 0.01974 0.0
C1342 C 0.9963 0.11371 1.01061 0.0
C1343 C 0.99736 0.14523 0.01909 0.0
C1344 C 0.98829 0.16275 0.02528 0.0
C1345 C 0.01561 0.11295 1.00941 0.0
C1346 C 0.02588 0.1286 1.01193 0.0
C1347 C 0.01658 0.14449 0.01762 0.0
C1348 C 0.04599 0.12912 1.00343 0.0
C1349 C 0.02485 0.09555 1.00276 0.0
C1350 C 0.05877 0.12087 0.03085 0.0
C1351 C 0.07761 0.12129 0.02101 0.0
C1352 C 0.08391 0.12993 0.98354 0.0
C1353 C 0.07104 0.13845 0.95688 0.0
C1354 C 0.05239 0.13809 0.96677 0.0
H1355 H 0.01488 0.08501 0.99532 0.0
H1356 H 0.03494 0.09637 0.97585 0.0
H1357 H 0.03236 0.09193 0.03275 0.0
H1358 H 0.0542 0.11409 0.05972 0.0
H1359 H 0.08713 0.11457 0.04215 0.0
H1360 H 0.1152 0.32924 0.92982 0.0
H1361 H 0.11193 0.29716 0.92614 0.0
H1362 H 0.16967 0.29135 0.95159 0.0
H1363 H 0.17299 0.32293 0.95544 0.0
H1364 H 0.13008 0.27063 0.87427 0.0
H1365 H 0.14584 0.26286 0.04903 0.0
H1366 H 0.13973 0.28365 0.02547 0.0
H1367 H 0.16273 0.27539 0.02033 0.0
C1368 C 0.1272 0.32108 0.93402 0.0
C1369 C 0.14433 0.32864 0.94319 0.0
C1370 C 0.12531 0.30277 0.93208 0.0
C1371 C 0.1405 0.2918 0.93951 0.0
C1372 C 0.15768 0.29945 0.94669 0.0
H1373 H 0.17314 0.1849 0.96162 0.0
H1374 H 0.16958 0.21649 0.95727 0.0
C1375 C 0.15955 0.31758 0.94863 0.0
C1376 C 0.13869 0.27237 0.94089 0.0
H1377 H 0.14747 0.23711 1.00579 0.0
C1378 C 0.1336 0.26328 0.90317 0.0
C1379 C 0.14331 0.26273 0.97859 0.0
C1380 C 0.14804 0.27165 0.0208 0.0
C1381 C 0.13386 0.24485 0.90161 0.0
C1382 C 0.13904 0.23523 0.93897 0.0
C1383 C 0.14356 0.24438 0.97702 0.0
C1384 C 0.14098 0.21578 0.93896 0.0
C1385 C 0.12938 0.23585 0.8594 0.0
C1386 C 0.1261 0.20464 0.92992 0.0
C1387 C 0.12814 0.18637 0.93224 0.0
C1388 C 0.14507 0.17895 0.94399 0.0
C1389 C 0.15991 0.19015 0.95244 0.0
C1390 C 0.15789 0.20827 0.95007 0.0
H1391 H 0.12977 0.24504 0.83149 0.0
H1392 H 0.13912 0.225 0.85305 0.0
H1393 H 0.11538 0.23029 0.86144 0.0
H1394 H 0.1128 0.21005 0.92212 0.0
H1395 H 0.1164 0.17811 0.9259 0.0
H1396 H 0.08671 0.87811 0.97589 0.0
H1397 H 0.05363 0.87872 0.95899 0.0
H1398 H 0.04113 0.87768 0.09571 0.0
H1399 H 0.07361 0.87686 0.11282 0.0
H1400 H 0.02336 0.85175 1.00126 0.0
H1401 H 0.01487 0.92274 0.03296 0.0
H1402 H 0.03628 0.91335 0.01473 0.0
H1403 H 0.02924 0.91086 0.07025 0.0
C1404 C 0.07688 0.87796 1.00225 0.0
C1405 C 0.08288 0.87735 0.04567 0.0
C1406 C 0.05802 0.87828 0.99256 0.0
C1407 C 0.04495 0.87828 0.02617 0.0
C1408 C 0.05096 0.87769 0.06931 0.0
H1409 H 0.93723 0.87179 0.11059 0.0
H1410 H 0.96977 0.87237 0.09381 0.0
C1411 C 0.06962 0.87717 0.07895 0.0
C1412 C 0.02493 0.87904 0.01743 0.0
H1413 H 0.98773 0.90543 0.0336 0.0
C1414 C 0.01557 0.86359 1.00703 0.0
C1415 C 0.01478 0.89444 0.02549 0.0
C1416 C 0.02424 0.91138 0.03623 0.0
C1417 C 0.99627 0.863 1.00674 0.0
C1418 C 0.98614 0.87819 0.01699 0.0
C1419 C 0.99551 0.89382 0.02536 0.0
C1420 C 0.9661 0.87748 0.0254 0.0
C1421 C 0.9867 0.84595 0.9979 0.0
C1422 C 0.95313 0.88018 0.99231 0.0
C1423 C 0.93425 0.87993 1.00181 0.0
C1424 C 0.92812 0.87687 0.04451 0.0
C1425 C 0.9413 0.87404 0.07723 0.0
C1426 C 0.96 0.87441 0.0678 0.0
H1427 H 0.99638 0.83557 0.98746 0.0
H1428 H 0.97954 0.84156 0.02779 0.0
H1429 H 0.97617 0.84781 0.9723 0.0
H1430 H 0.95761 0.88258 0.95932 0.0
H1431 H 0.92452 0.88216 0.97588 0.0
H1432 H 0.34784 0.68517 0.50226 0.0
H1433 H 0.35029 0.71651 0.49196 0.0
H1434 H 0.39276 0.70853 0.39642 0.0
H1435 H 0.38974 0.67663 0.4056 0.0
H1436 H 0.37874 0.73606 0.50998 0.0
H1437 H 0.36234 0.74463 0.33508 0.0
H1438 H 0.35815 0.72439 0.36344 0.0
H1439 H 0.38099 0.73004 0.34662 0.0
C1440 C 0.35755 0.69002 0.47852 0.0
C1441 C 0.36861 0.67844 0.45475 0.0
C1442 C 0.35896 0.70801 0.4727 0.0
C1443 C 0.37163 0.71504 0.44325 0.0
C1444 C 0.38258 0.70349 0.41869 0.0
H1445 H 0.39109 0.82889 0.40817 0.0
H1446 H 0.39381 0.79687 0.39984 0.0
C1447 C 0.38093 0.68527 0.42405 0.0
C1448 C 0.37381 0.73443 0.44114 0.0
H1449 H 0.36968 0.77008 0.37464 0.0
C1450 C 0.37685 0.74344 0.48022 0.0
C1451 C 0.37156 0.74418 0.40238 0.0
C1452 C 0.36793 0.73537 0.35949 0.0
C1453 C 0.37721 0.76174 0.48194 0.0
C1454 C 0.37418 0.77153 0.44357 0.0
C1455 C 0.37193 0.7626 0.40406 0.0
C1456 C 0.37191 0.79089 0.44496 0.0
C1457 C 0.38073 0.77039 0.52517 0.0
C1458 C 0.35834 0.79815 0.47166 0.0
C1459 C 0.35699 0.81618 0.47683 0.0
C1460 C 0.36885 0.82752 0.45461 0.0
C1461 C 0.38178 0.82043 0.42569 0.0
C1462 C 0.38334 0.80217 0.42102 0.0
H1463 H 0.38863 0.76171 0.54718 0.0
H1464 H 0.38836 0.78283 0.52121 0.0
H1465 H 0.36743 0.77325 0.54114 0.0
H1466 H 0.34897 0.78982 0.48939 0.0
H1467 H 0.34669 0.82125 0.49884 0.0
H1468 H 0.57924 0.10442 0.57394 0.0
H1469 H 0.54603 0.10442 0.56317 0.0
H1470 H 0.55027 0.15217 0.48949 0.0
H1471 H 0.58375 0.15192 0.49967 0.0
H1472 H 0.52405 0.13028 0.59461 0.0
H1473 H 0.51398 0.12407 0.41647 0.0
H1474 H 0.53543 0.11882 0.44265 0.0
H1475 H 0.52919 0.14122 0.43346 0.0
C1476 C 0.57311 0.1146 0.55426 0.0
C1477 C 0.58397 0.12799 0.53689 0.0
C1478 C 0.55414 0.11466 0.54833 0.0
C1479 C 0.54559 0.1282 0.5252 0.0
C1480 C 0.55654 0.14136 0.50661 0.0
H1481 H 0.42764 0.15187 0.50502 0.0
H1482 H 0.46115 0.15231 0.4945 0.0
C1483 C 0.57564 0.14124 0.51238 0.0
C1484 C 0.5252 0.12929 0.5248 0.0
H1485 H 0.4874 0.12896 0.45903 0.0
C1486 C 0.51607 0.12997 0.56489 0.0
C1487 C 0.51474 0.12914 0.48609 0.0
C1488 C 0.52377 0.12814 0.44215 0.0
C1489 C 0.49689 0.13031 0.56745 0.0
C1490 C 0.48637 0.12957 0.52886 0.0
C1491 C 0.49544 0.12939 0.4886 0.0
C1492 C 0.466 0.12841 0.53031 0.0
C1493 C 0.48807 0.13164 0.61166 0.0
C1494 C 0.45755 0.11456 0.55251 0.0
C1495 C 0.4386 0.11441 0.55874 0.0
C1496 C 0.42765 0.12787 0.54199 0.0
C1497 C 0.43586 0.14126 0.51772 0.0
C1498 C 0.45495 0.14152 0.51185 0.0
H1499 H 0.49761 0.1373 0.63601 0.0
H1500 H 0.47551 0.13981 0.61056 0.0
H1501 H 0.48422 0.11838 0.6229 0.0
H1502 H 0.46571 0.10412 0.56626 0.0
H1503 H 0.43251 0.104 0.57774 0.0
H1504 H 0.8393 0.18422 0.95978 0.0
H1505 H 0.84253 0.21584 0.95583 0.0
H1506 H 0.89998 0.21005 0.92639 0.0
H1507 H 0.89676 0.17806 0.92989 0.0
H1508 H 0.86454 0.23615 1.00785 0.0
H1509 H 0.8833 0.2452 0.83437 0.0
H1510 H 0.87364 0.22508 0.85468 0.0
H1511 H 0.89727 0.23021 0.86478 0.0
C1512 C 0.85261 0.18961 0.95194 0.0
C1513 C 0.86777 0.17861 0.94507 0.0
C1514 C 0.85443 0.20774 0.94976 0.0
C1515 C 0.87144 0.21539 0.94042 0.0
C1516 C 0.88663 0.20446 0.93283 0.0
H1517 H 0.897 0.32825 0.92755 0.0
H1518 H 0.89915 0.29617 0.92122 0.0
C1519 C 0.8848 0.1862 0.93497 0.0
C1520 C 0.87314 0.2348 0.9411 0.0
H1521 H 0.88186 0.27055 0.8777 0.0
C1522 C 0.8684 0.24365 0.9794 0.0
C1523 C 0.87836 0.24463 0.90419 0.0
C1524 C 0.88332 0.23587 0.86199 0.0
C1525 C 0.86855 0.26196 0.98176 0.0
C1526 C 0.87302 0.27188 0.94431 0.0
C1527 C 0.87831 0.26303 0.90632 0.0
C1528 C 0.87148 0.29134 0.94377 0.0
C1529 C 0.86413 0.27042 0.02478 0.0
C1530 C 0.85504 0.29936 0.95653 0.0
C1531 C 0.85395 0.31747 0.96077 0.0
C1532 C 0.86903 0.3281 0.95082 0.0
C1533 C 0.88512 0.32031 0.93495 0.0
C1534 C 0.88636 0.30201 0.93162 0.0
H1535 H 0.86736 0.26157 0.05233 0.0
H1536 H 0.87183 0.28279 0.02927 0.0
H1537 H 0.84924 0.27331 0.02618 0.0
H1538 H 0.84313 0.29156 0.9645 0.0
H1539 H 0.84136 0.32318 0.97292 0.0
H1540 H 0.61559 0.82871 0.4415 0.0
H1541 H 0.61272 0.79666 0.43919 0.0
H1542 H 0.6715 0.79183 0.44702 0.0
H1543 H 0.67435 0.82352 0.45074 0.0
H1544 H 0.62549 0.7711 0.38525 0.0
H1545 H 0.6564 0.76205 0.54756 0.0
H1546 H 0.64955 0.78322 0.52765 0.0
H1547 H 0.67124 0.77391 0.51181 0.0
C1548 C 0.62787 0.82076 0.44244 0.0
C1549 C 0.64519 0.82859 0.44675 0.0
C1550 C 0.62622 0.80246 0.44122 0.0
C1551 C 0.64186 0.79176 0.44415 0.0
C1552 C 0.65918 0.79971 0.44618 0.0
H1553 H 0.67333 0.68404 0.45075 0.0
H1554 H 0.67046 0.71571 0.44709 0.0
C1555 C 0.6608 0.81787 0.44792 0.0
C1556 C 0.64031 0.77233 0.44555 0.0
H1557 H 0.65409 0.73658 0.50344 0.0
C1558 C 0.63156 0.76353 0.41131 0.0
C1559 C 0.64811 0.7624 0.47969 0.0
C1560 C 0.65668 0.77089 0.51896 0.0
C1561 C 0.6312 0.74514 0.40923 0.0
C1562 C 0.63957 0.73524 0.44267 0.0
C1563 C 0.6478 0.74409 0.47754 0.0
C1564 C 0.6409 0.71577 0.44149 0.0
C1565 C 0.62251 0.73652 0.37037 0.0
C1566 C 0.62525 0.70506 0.43908 0.0
C1567 C 0.6269 0.68677 0.44058 0.0
C1568 C 0.64422 0.67894 0.4453 0.0
C1569 C 0.6598 0.68968 0.44712 0.0
C1570 C 0.65817 0.70783 0.44516 0.0
H1571 H 0.62093 0.74576 0.34282 0.0
H1572 H 0.63074 0.72516 0.35931 0.0
H1573 H 0.60867 0.73178 0.37948 0.0
H1574 H 0.61172 0.71081 0.43731 0.0
H1575 H 0.61464 0.67882 0.43963 0.0
H1576 H 0.88804 0.67699 0.12462 0.0
H1577 H 0.89026 0.70883 0.13731 0.0
H1578 H 0.85365 0.71803 0.02993 0.0
H1579 H 0.85163 0.68675 0.01678 0.0
H1580 H 0.90029 0.73647 0.06379 0.0
H1581 H 0.83227 0.74467 0.14226 0.0
H1582 H 0.84482 0.7243 0.14366 0.0
H1583 H 0.83297 0.73075 0.09515 0.0
C1584 C 0.88043 0.68586 0.10401 0.0
C1585 C 0.86968 0.67939 0.06969 0.0
C1586 C 0.88174 0.70399 0.11115 0.0
C1587 C 0.87204 0.71577 0.08462 0.0
C1588 C 0.86118 0.70922 0.05088 0.0
H1589 H 0.85338 0.81998 1.01209 0.0
H1590 H 0.85566 0.7887 0.02519 0.0
C1591 C 0.86008 0.69129 0.04341 0.0
C1592 C 0.87318 0.73499 0.0909 0.0
H1593 H 0.84661 0.77044 0.11543 0.0
C1594 C 0.88877 0.74392 0.07616 0.0
C1595 C 0.85801 0.74467 0.10637 0.0
C1596 C 0.84107 0.73567 0.12309 0.0
C1597 C 0.88925 0.76231 0.07484 0.0
C1598 C 0.87383 0.77196 0.08891 0.0
C1599 C 0.85849 0.76303 0.105 0.0
C1600 C 0.87256 0.79117 0.08246 0.0
C1601 C 0.9058 0.77137 0.05622 0.0
C1602 C 0.88118 0.80306 0.11071 0.0
C1603 C 0.87976 0.82117 0.10351 0.0
C1604 C 0.86986 0.82753 0.06764 0.0
C1605 C 0.86121 0.81552 0.03984 0.0
C1606 C 0.86246 0.7976 0.04728 0.0
H1607 H 0.91664 0.762 0.04623 0.0
H1608 H 0.90168 0.77924 0.02754 0.0
H1609 H 0.91156 0.78048 0.0807 0.0
H1610 H 0.88899 0.79831 0.13818 0.0
H1611 H 0.88657 0.83013 0.12543 0.0
H1612 H 0.64587 0.18721 0.50206 0.0
H1613 H 0.64332 0.21842 0.51469 0.0
H1614 H 0.63172 0.20898 0.64997 0.0
H1615 H 0.63432 0.17718 0.63737 0.0
H1616 H 0.6128 0.23723 0.54708 0.0
H1617 H 0.67468 0.24518 0.65092 0.0
H1618 H 0.67128 0.22622 0.61694 0.0
H1619 H 0.6583 0.22868 0.66605 0.0
C1620 C 0.64274 0.19167 0.53463 0.0
C1621 C 0.64033 0.17968 0.56875 0.0
C1622 C 0.64128 0.20959 0.54175 0.0
C1623 C 0.63752 0.21612 0.5833 0.0
C1624 C 0.63488 0.20424 0.61769 0.0
H1625 H 0.63513 0.3307 0.63603 0.0
H1626 H 0.63199 0.29892 0.64863 0.0
C1627 C 0.63622 0.1861 0.61045 0.0
C1628 C 0.6362 0.23541 0.58932 0.0
H1629 H 0.65918 0.27077 0.63016 0.0
C1630 C 0.62275 0.24453 0.56592 0.0
C1631 C 0.64924 0.24499 0.61362 0.0
C1632 C 0.66431 0.23588 0.63822 0.0
C1633 C 0.62226 0.26287 0.56527 0.0
C1634 C 0.63574 0.27248 0.58809 0.0
C1635 C 0.64877 0.26341 0.61294 0.0
C1636 C 0.63771 0.2917 0.582 0.0
C1637 C 0.60752 0.27185 0.53922 0.0
C1638 C 0.64218 0.29812 0.54075 0.0
C1639 C 0.64398 0.31601 0.53363 0.0
C1640 C 0.64143 0.32808 0.56755 0.0
C1641 C 0.63706 0.32174 0.60919 0.0
C1642 C 0.63533 0.30362 0.61641 0.0
H1643 H 0.59544 0.26324 0.53448 0.0
H1644 H 0.60299 0.28409 0.55532 0.0
H1645 H 0.61303 0.27522 0.5067 0.0
H1646 H 0.64437 0.28923 0.51386 0.0
H1647 H 0.64744 0.32037 0.50119 0.0
H1648 H 0.92698 0.35457 0.02432 0.0
H1649 H 0.96017 0.35396 0.03967 0.0
H1650 H 0.96711 0.40122 0.96526 0.0
H1651 H 0.93421 0.4017 0.94978 0.0
H1652 H 0.98853 0.35223 0.97706 0.0
H1653 H 0.9955 0.41193 0.07685 0.0
H1654 H 0.97371 0.40138 0.06766 0.0
H1655 H 0.98326 0.41568 0.02714 0.0
C1656 C 0.93562 0.36499 1.01222 0.0
C1657 C 0.92813 0.37834 0.98653 0.0
C1658 C 0.95454 0.36459 0.02071 0.0
C1659 C 0.96613 0.3777 1.00421 0.0
C1660 C 0.95846 0.39118 0.97916 0.0
H1661 H 0.07526 0.39709 0.9339 0.0
H1662 H 0.04251 0.39564 0.94931 0.0
C1663 C 0.93968 0.39143 0.97024 0.0
C1664 C 0.98637 0.37687 1.01034 0.0
H1665 H 0.02311 0.40126 0.04319 0.0
C1666 C 0.99607 0.36274 0.99246 0.0
C1667 C 0.99627 0.3906 0.03029 0.0
C1668 C 0.98664 0.40568 0.05197 0.0
C1669 C 0.01536 0.36248 0.992 0.0
C1670 C 0.02521 0.3766 1.01014 0.0
C1671 C 0.01554 0.39039 0.02951 0.0
C1672 C 0.04533 0.37827 1.00417 0.0
C1673 C 0.02521 0.3476 0.97006 0.0
C1674 C 0.0579 0.36925 0.03063 0.0
C1675 C 0.07684 0.37026 0.02225 0.0
C1676 C 0.08333 0.38007 0.98689 0.0
C1677 C 0.07067 0.38937 0.96132 0.0
C1678 C 0.05193 0.38858 0.97005 0.0
H1679 H 0.01561 0.33755 0.95748 0.0
H1680 H 0.03351 0.35269 0.94261 0.0
H1681 H 0.03476 0.34134 0.9934 0.0
H1682 H 0.05303 0.36119 0.05712 0.0
H1683 H 0.08627 0.36282 0.0421 0.0
H1684 H 0.42514 0.61593 0.54189 0.0
H1685 H 0.45816 0.61608 0.55858 0.0
H1686 H 0.46853 0.64496 0.44096 0.0
H1687 H 0.43604 0.64517 0.42464 0.0
H1688 H 0.48741 0.6025 0.50983 0.0
H1689 H 0.49624 0.67363 0.52932 0.0
H1690 H 0.47399 0.66334 0.53027 0.0
H1691 H 0.48489 0.66848 0.47931 0.0
C1692 C 0.43445 0.62254 0.52001 0.0
C1693 C 0.42782 0.63063 0.48207 0.0
C1694 C 0.45333 0.62255 0.52946 0.0
C1695 C 0.46587 0.63079 0.5014 0.0
C1696 C 0.45919 0.63887 0.46372 0.0
H1697 H 0.5746 0.64392 0.42416 0.0
H1698 H 0.54217 0.64348 0.44092 0.0
C1699 C 0.44049 0.63888 0.45431 0.0
C1700 C 0.48603 0.63057 0.50969 0.0
H1701 H 0.52344 0.6574 0.5105 0.0
C1702 C 0.4953 0.61449 0.51101 0.0
C1703 C 0.49638 0.64619 0.5115 0.0
C1704 C 0.48733 0.66388 0.51299 0.0
C1705 C 0.51462 0.61366 0.5108 0.0
C1706 C 0.52494 0.62933 0.50973 0.0
C1707 C 0.51561 0.64536 0.51106 0.0
C1708 C 0.54511 0.62953 0.50156 0.0
C1709 C 0.52383 0.59606 0.50904 0.0
C1710 C 0.55785 0.62201 0.5304 0.0
C1711 C 0.57674 0.6222 0.52079 0.0
C1712 C 0.58315 0.62994 0.48221 0.0
C1713 C 0.5703 0.63775 0.45412 0.0
C1714 C 0.55163 0.63755 0.46368 0.0
H1715 H 0.51389 0.58531 0.5034 0.0
H1716 H 0.5343 0.59578 0.48287 0.0
H1717 H 0.53089 0.59359 0.54035 0.0
H1718 H 0.55322 0.616 0.56026 0.0
H1719 H 0.58623 0.61608 0.54312 0.0
H1720 H 0.43669 0.3906 0.60425 0.0
H1721 H 0.46944 0.39013 0.58998 0.0
H1722 H 0.45957 0.36642 0.46502 0.0
H1723 H 0.42625 0.36747 0.47889 0.0
H1724 H 0.48909 0.36072 0.57961 0.0
H1725 H 0.49797 0.40287 0.43398 0.0
H1726 H 0.47712 0.40291 0.46561 0.0
H1727 H 0.48199 0.3851 0.42943 0.0
C1728 C 0.44144 0.38549 0.57339 0.0
C1729 C 0.42892 0.37897 0.54275 0.0
C1730 C 0.46021 0.38523 0.56526 0.0
C1731 C 0.46711 0.37825 0.52644 0.0
C1732 C 0.45463 0.37215 0.49495 0.0
H1733 H 0.58719 0.36799 0.47947 0.0
H1734 H 0.55377 0.36657 0.46682 0.0
C1735 C 0.43561 0.37268 0.50289 0.0
C1736 C 0.48738 0.37636 0.52166 0.0
H1737 H 0.52476 0.39115 0.46532 0.0
C1738 C 0.49683 0.36726 0.5543 0.0
C1739 C 0.49758 0.38463 0.48836 0.0
C1740 C 0.48823 0.39454 0.4524 0.0
C1741 C 0.51603 0.36682 0.55573 0.0
C1742 C 0.52628 0.376 0.52405 0.0
C1743 C 0.51693 0.38427 0.48986 0.0
C1744 C 0.54651 0.37823 0.52857 0.0
C1745 C 0.52511 0.35669 0.5918 0.0
C1746 C 0.55354 0.38583 0.56653 0.0
C1747 C 0.57236 0.38634 0.57399 0.0
C1748 C 0.58475 0.37972 0.54317 0.0
C1749 C 0.57791 0.37315 0.50375 0.0
C1750 C 0.55886 0.37233 0.49658 0.0
H1751 H 0.51615 0.34598 0.6037 0.0
H1752 H 0.53834 0.35097 0.58105 0.0
H1753 H 0.52777 0.36558 0.61955 0.0
H1754 H 0.54438 0.39098 0.5911 0.0
H1755 H 0.57725 0.39177 0.60436 0.0
H1756 H 0.07626 0.64053 0.10585 0.0
H1757 H 0.04369 0.64104 0.09031 0.0
H1758 H 0.05366 0.61793 0.96483 0.0
H1759 H 0.08675 0.61714 0.98044 0.0
H1760 H 0.02483 0.65768 0.02268 0.0
H1761 H 0.01426 0.5857 0.01825 0.0
H1762 H 0.03472 0.59537 0.04076 0.0
H1763 H 0.03149 0.59473 0.983 0.0
C1764 C 0.07169 0.63549 0.07482 0.0
C1765 C 0.08427 0.62867 0.04449 0.0
C1766 C 0.05294 0.63585 0.06597 0.0
C1767 C 0.0461 0.62934 0.02666 0.0
C1768 C 0.05856 0.62278 0.99574 0.0
H1769 H 0.92621 0.61746 0.98372 0.0
H1770 H 0.95933 0.61766 0.9681 0.0
C1771 C 0.07749 0.62246 1.00456 0.0
C1772 C 0.0259 0.62963 0.01906 0.0
H1773 H 0.98801 0.60335 0.01457 0.0
C1774 C 0.01682 0.64579 0.02025 0.0
C1775 C 0.01537 0.61417 0.01555 0.0
C1776 C 0.02435 0.59645 0.01453 0.0
C1777 C 0.99759 0.64688 0.01963 0.0
C1778 C 0.987 0.63138 0.01891 0.0
C1779 C 0.99606 0.61524 0.01533 0.0
C1780 C 0.96678 0.63165 0.02659 0.0
C1781 C 0.98883 0.66471 0.02037 0.0
C1782 C 0.9599 0.63928 0.06467 0.0
C1783 C 0.94115 0.63929 0.07344 0.0
C1784 C 0.92859 0.63145 0.04467 0.0
C1785 C 0.93542 0.62376 1.0064 0.0
C1786 C 0.95436 0.62379 0.99754 0.0
H1787 H 0.9979 0.67463 1.00519 0.0
H1788 H 0.97547 0.66474 1.00312 0.0
H1789 H 0.9865 0.6687 0.05459 0.0
H1790 H 0.96913 0.645 0.08826 0.0
H1791 H 0.93656 0.64526 0.10344 0.0
H1792 H 0.14237 0.5815 0.01615 0.0
H1793 H 0.14337 0.55195 0.98559 0.0
H1794 H 0.14766 0.53075 0.11494 0.0
H1795 H 0.14584 0.5602 0.14523 0.0
H1796 H 0.16666 0.52624 0.9841 0.0
H1797 H 0.10638 0.50205 0.07461 0.0
H1798 H 0.11271 0.52479 0.07442 0.0
H1799 H 0.12394 0.50964 0.11055 0.0
C1800 C 0.14361 0.57057 0.03795 0.0
C1801 C 0.14394 0.57328 0.08311 0.0
C1802 C 0.14413 0.55358 0.02049 0.0
C1803 C 0.14507 0.53885 0.04782 0.0
C1804 C 0.14621 0.54167 0.09292 0.0
H1805 H 0.15059 0.42558 1.00474 0.0
H1806 H 0.15236 0.45526 0.03474 0.0
C1807 C 0.14537 0.5586 0.1103 0.0
C1808 C 0.14492 0.52065 0.02931 0.0
H1809 H 0.1242 0.4806 0.03815 0.0
C1810 C 0.15727 0.51634 0.99585 0.0
C1811 C 0.13267 0.50753 0.0442 0.0
C1812 C 0.11806 0.51128 0.07758 0.0
C1813 C 0.15794 0.49941 0.97773 0.0
C1814 C 0.14589 0.48629 0.99312 0.0
C1815 C 0.13357 0.49055 0.02651 0.0
C1816 C 0.14551 0.4682 0.97443 0.0
C1817 C 0.17183 0.49561 0.94273 0.0
C1818 C 0.14095 0.46544 0.9306 0.0
C1819 C 0.1398 0.44846 0.91354 0.0
C1820 C 0.14318 0.43379 0.93981 0.0
C1821 C 0.14791 0.43655 0.9836 0.0
C1822 C 0.14892 0.45355 1.00078 0.0
H1823 H 0.18301 0.50544 0.94236 0.0
H1824 H 0.17793 0.48244 0.94713 0.0
H1825 H 0.16493 0.49594 0.91064 0.0
H1826 H 0.1379 0.47642 0.90967 0.0
H1827 H 0.13602 0.44682 0.87977 0.0
H1828 H 0.70158 0.85569 0.38657 0.0
H1829 H 0.72785 0.85635 0.33705 0.0
H1830 H 0.72168 0.91217 0.32404 0.0
H1831 H 0.69609 0.91152 0.37561 0.0
H1832 H 0.72817 0.86374 0.25659 0.0
H1833 H 0.77537 0.91096 0.33348 0.0
H1834 H 0.75577 0.90225 0.36174 0.0
H1835 H 0.75318 0.9203 0.32462 0.0
C1836 C 0.7064 0.86817 0.37452 0.0
C1837 C 0.69726 0.88363 0.38603 0.0
C1838 C 0.72127 0.86854 0.34574 0.0
C1839 C 0.72711 0.88435 0.32694 0.0
C1840 C 0.71803 0.89986 0.33899 0.0
H1841 H 0.80558 0.90592 0.11534 0.0
H1842 H 0.77851 0.90707 0.16333 0.0
C1843 C 0.70338 0.89952 0.36857 0.0
C1844 C 0.7416 0.88428 0.29237 0.0
H1845 H 0.7817 0.90354 0.25989 0.0
C1846 C 0.7399 0.87242 0.25765 0.0
C1847 C 0.757 0.89559 0.29315 0.0
C1848 C 0.76056 0.90786 0.33049 0.0
C1849 C 0.75298 0.87159 0.22411 0.0
C1850 C 0.7682 0.88298 0.22479 0.0
C1851 C 0.76987 0.89498 0.25902 0.0
C1852 C 0.78327 0.88171 0.19223 0.0
C1853 C 0.75042 0.8585 0.18806 0.0
C1854 C 0.79475 0.86702 0.19208 0.0
C1855 C 0.81014 0.86641 0.16505 0.0
C1856 C 0.81431 0.88037 0.13706 0.0
C1857 C 0.80242 0.8948 0.13575 0.0
C1858 C 0.7871 0.89554 0.16348 0.0
H1859 H 0.73612 0.85357 0.18663 0.0
H1860 H 0.75402 0.86434 0.15617 0.0
H1861 H 0.75965 0.84721 0.19372 0.0
H1862 H 0.79227 0.85631 0.21431 0.0
H1863 H 0.81925 0.85527 0.16727 0.0
H1864 H 0.34774 0.43007 0.55363 0.0
H1865 H 0.34485 0.46033 0.52739 0.0
H1866 H 0.4016 0.46959 0.55816 0.0
H1867 H 0.40459 0.43953 0.58428 0.0
H1868 H 0.37274 0.49591 0.59056 0.0
H1869 H 0.37091 0.48123 0.4134 0.0
H1870 H 0.3575 0.4681 0.45019 0.0
H1871 H 0.38201 0.46674 0.45156 0.0
C1872 C 0.35961 0.43855 0.55455 0.0
C1873 C 0.3764 0.43242 0.57114 0.0
C1874 C 0.35794 0.45582 0.53958 0.0
C1875 C 0.37302 0.46722 0.54084 0.0
C1876 C 0.38978 0.46106 0.55704 0.0
H1877 H 0.40145 0.56524 0.423 0.0
H1878 H 0.39879 0.53531 0.45008 0.0
C1879 C 0.39147 0.44385 0.57188 0.0
C1880 C 0.3715 0.48564 0.52562 0.0
H1881 H 0.37053 0.51077 0.43385 0.0
C1882 C 0.37206 0.49919 0.55633 0.0
C1883 C 0.37071 0.48989 0.481 0.0
C1884 C 0.3703 0.47581 0.44684 0.0
C1885 C 0.37208 0.51686 0.54352 0.0
C1886 C 0.3716 0.52112 0.49879 0.0
C1887 C 0.37084 0.50754 0.46814 0.0
C1888 C 0.37298 0.53952 0.48299 0.0
C1889 C 0.37321 0.53083 0.57791 0.0
C1890 C 0.35932 0.55194 0.49234 0.0
C1891 C 0.36079 0.56913 0.4767 0.0
C1892 C 0.37596 0.5742 0.45143 0.0
C1893 C 0.38961 0.56177 0.44239 0.0
C1894 C 0.38808 0.54462 0.45776 0.0
H1895 H 0.37701 0.52538 0.61011 0.0
H1896 H 0.38338 0.54094 0.56869 0.0
H1897 H 0.35965 0.53727 0.58107 0.0
H1898 H 0.34742 0.54829 0.51126 0.0
H1899 H 0.35003 0.5784 0.48418 0.0
H1900 H 0.79853 0.12145 0.9303 0.0
H1901 H 0.7713 0.12042 0.8824 0.0
H1902 H 0.80632 0.12407 0.77003 0.0
H1903 H 0.83299 0.12489 0.81627 0.0
H1904 H 0.76066 0.14631 0.81714 0.0
H1905 H 0.77418 0.08183 0.74182 0.0
H1906 H 0.78465 0.08858 0.79226 0.0
H1907 H 0.79355 0.09628 0.74125 0.0
C1908 C 0.80034 0.12183 0.8954 0.0
C1909 C 0.81797 0.12331 0.87734 0.0
C1910 C 0.78482 0.12131 0.86809 0.0
C1911 C 0.78682 0.12193 0.82254 0.0
C1912 C 0.8044 0.12326 0.80487 0.0
H1913 H 0.71344 0.1253 0.59411 0.0
H1914 H 0.74107 0.12497 0.64074 0.0
C1915 C 0.81969 0.12387 0.83172 0.0
C1916 C 0.77081 0.12185 0.79261 0.0
H1917 H 0.75237 0.09997 0.70605 0.0
C1918 C 0.75873 0.13609 0.7932 0.0
C1919 C 0.76852 0.10871 0.76066 0.0
C1920 C 0.78082 0.0929 0.75906 0.0
C1921 C 0.74457 0.13761 0.76245 0.0
C1922 C 0.74217 0.12439 0.7307 0.0
C1923 C 0.75431 0.11019 0.72999 0.0
C1924 C 0.72598 0.12423 0.70131 0.0
C1925 C 0.73243 0.15355 0.76381 0.0
C1926 C 0.70851 0.12342 0.71972 0.0
C1927 C 0.693 0.1236 0.69363 0.0
C1928 C 0.69432 0.12449 0.64793 0.0
C1929 C 0.71189 0.12473 0.62905 0.0
C1930 C 0.72764 0.12456 0.65566 0.0
H1931 H 0.73932 0.16467 0.7802 0.0
H1932 H 0.72837 0.15766 0.7306 0.0
H1933 H 0.71982 0.15044 0.78241 0.0
H1934 H 0.70683 0.12264 0.75464 0.0
H1935 H 0.67984 0.12303 0.70985 0.0
H1936 H 0.90042 0.56553 0.1095 0.0
H1937 H 0.89754 0.53544 0.08356 0.0
H1938 H 0.8487 0.54941 0.01295 0.0
H1939 H 0.85149 0.57966 0.03901 0.0
H1940 H 0.86727 0.51176 0.09506 0.0
H1941 H 0.88178 0.52528 0.92094 0.0
H1942 H 0.88735 0.54064 0.96347 0.0
H1943 H 0.86403 0.53812 0.94601 0.0
C1944 C 0.88909 0.56224 0.08833 0.0
C1945 C 0.87621 0.57499 0.07628 0.0
C1946 C 0.88743 0.545 0.07364 0.0
C1947 C 0.87298 0.54014 0.04609 0.0
C1948 C 0.86008 0.55287 0.03381 0.0
H1949 H 0.8472 0.43036 0.97885 0.0
H1950 H 0.84447 0.46068 1.00474 0.0
C1951 C 0.86166 0.57013 0.04882 0.0
C1952 C 0.87155 0.52173 0.03054 0.0
H1953 H 0.87556 0.49611 0.93997 0.0
C1954 C 0.86892 0.50834 0.0611 0.0
C1955 C 0.87381 0.51725 0.98627 0.0
C1956 C 0.87703 0.53101 0.95213 0.0
C1957 C 0.86865 0.49064 0.04863 0.0
C1958 C 0.87113 0.48615 1.00444 0.0
C1959 C 0.87358 0.49955 0.97382 0.0
C1960 C 0.87251 0.46763 0.98969 0.0
C1961 C 0.86632 0.4768 0.08298 0.0
C1962 C 0.88909 0.46146 0.97243 0.0
C1963 C 0.89066 0.44424 0.9577 0.0
C1964 C 0.87565 0.43277 0.95955 0.0
C1965 C 0.85903 0.43887 0.97713 0.0
C1966 C 0.85747 0.45617 0.99201 0.0
H1967 H 0.86732 0.48226 0.11632 0.0
H1968 H 0.85266 0.47063 0.0793 0.0
H1969 H 0.87686 0.46645 0.07906 0.0
H1970 H 0.90088 0.47001 0.97035 0.0
H1971 H 0.90365 0.43997 0.94443 0.0
H1972 H 0.18706 0.10014 0.84493 0.0
H1973 H 0.21349 0.09995 0.79606 0.0
H1974 H 0.23655 0.14365 0.86564 0.0
H1975 H 0.21025 0.14338 0.9156 0.0
H1976 H 0.2228 0.12469 0.7413 0.0
H1977 H 0.28138 0.11418 0.85252 0.0
H1978 H 0.25797 0.11085 0.86941 0.0
H1979 H 0.2675 0.13254 0.86758 0.0
C1980 C 0.19815 0.10926 0.85074 0.0
C1981 C 0.19694 0.12143 0.88474 0.0
C1982 C 0.21315 0.10929 0.82251 0.0
C1983 C 0.22723 0.12164 0.82724 0.0
C1984 C 0.2262 0.13364 0.8619 0.0
H1985 H 0.32297 0.15032 0.67916 0.0
H1986 H 0.29627 0.14908 0.72645 0.0
C1987 C 0.21122 0.13347 0.89059 0.0
C1988 C 0.24211 0.12266 0.79396 0.0
H1989 H 0.28859 0.12287 0.78058 0.0
C1990 C 0.23719 0.12417 0.74993 0.0
C1991 C 0.26092 0.12203 0.80495 0.0
C1992 C 0.26728 0.11964 0.85114 0.0
C1993 C 0.25048 0.1254 0.7169 0.0
C1994 C 0.26928 0.12488 0.72796 0.0
C1995 C 0.27419 0.12329 0.77194 0.0
C1996 C 0.2842 0.12659 0.69504 0.0
C1997 C 0.24422 0.12775 0.67063 0.0
C1998 C 0.28619 0.11464 0.66048 0.0
C1999 C 0.30149 0.11548 0.6327 0.0
C2000 C 0.31515 0.12812 0.63955 0.0
C2001 C 0.31269 0.14042 0.673 0.0
C2002 C 0.29744 0.13968 0.70028 0.0
H2003 H 0.22983 0.13245 0.66892 0.0
H2004 H 0.25314 0.13715 0.65312 0.0
H2005 H 0.24495 0.11499 0.65362 0.0
H2006 H 0.27636 0.1042 0.65618 0.0
H2007 H 0.30318 0.10565 0.60773 0.0
H2008 H 0.61052 0.56738 0.4324 0.0
H2009 H 0.61299 0.53737 0.45859 0.0
H2010 H 0.66925 0.54659 0.49473 0.0
H2011 H 0.66662 0.57693 0.4696 0.0
H2012 H 0.63372 0.51098 0.43258 0.0
H2013 H 0.65073 0.52514 0.60465 0.0
H2014 H 0.6431 0.54189 0.56764 0.0
H2015 H 0.66649 0.53443 0.56637 0.0
C2016 C 0.6234 0.56307 0.44616 0.0
C2017 C 0.63836 0.57456 0.44894 0.0
C2018 C 0.62482 0.54585 0.46109 0.0
C2019 C 0.64123 0.53963 0.47929 0.0
C2020 C 0.65628 0.55109 0.48186 0.0
H2021 H 0.66618 0.43009 0.54905 0.0
H2022 H 0.66873 0.46019 0.52147 0.0
C2023 C 0.65482 0.56842 0.46714 0.0
C2024 C 0.64244 0.52108 0.49453 0.0
H2025 H 0.65095 0.49543 0.5835 0.0
C2026 C 0.63757 0.50765 0.46556 0.0
C2027 C 0.64741 0.51656 0.53764 0.0
C2028 C 0.65207 0.53026 0.57104 0.0
C2029 C 0.63742 0.49001 0.47853 0.0
C2030 C 0.64225 0.48558 0.52152 0.0
C2031 C 0.64737 0.49888 0.55041 0.0
C2032 C 0.64087 0.4673 0.53766 0.0
C2033 C 0.63181 0.47614 0.44652 0.0
C2034 C 0.62437 0.46131 0.5556 0.0
C2035 C 0.62289 0.44421 0.57138 0.0
C2036 C 0.63789 0.4327 0.56952 0.0
C2037 C 0.65438 0.43864 0.55096 0.0
C2038 C 0.65588 0.45583 0.53531 0.0
H2039 H 0.62933 0.48155 0.41357 0.0
H2040 H 0.64264 0.46598 0.44442 0.0
H2041 H 0.61909 0.46968 0.45808 0.0
H2042 H 0.61261 0.46992 0.55754 0.0
H2043 H 0.60998 0.44003 0.58528 0.0
H2044 H 0.32814 0.90339 0.33081 0.0
H2045 H 0.30151 0.90278 0.28329 0.0
H2046 H 0.27429 0.86763 0.37175 0.0
H2047 H 0.30104 0.86865 0.42046 0.0
H2048 H 0.289 0.87582 0.24038 0.0
H2049 H 0.23309 0.90053 0.34564 0.0
H2050 H 0.25691 0.90232 0.36066 0.0
H2051 H 0.24485 0.88202 0.36799 0.0
C2052 C 0.31628 0.89588 0.34079 0.0
C2053 C 0.31661 0.8862 0.37961 0.0
C2054 C 0.30108 0.89545 0.31337 0.0
C2055 C 0.28574 0.88524 0.32373 0.0
C2056 C 0.28574 0.87593 0.3633 0.0
H2057 H 0.18703 0.85775 0.18596 0.0
H2058 H 0.21387 0.85923 0.23252 0.0
C2059 C 0.30101 0.87653 0.39125 0.0
C2060 C 0.27052 0.88363 0.29145 0.0
H2061 H 0.22433 0.88862 0.27769 0.0
C2062 C 0.27487 0.87873 0.24858 0.0
C2063 C 0.25204 0.8874 0.30183 0.0
C2064 C 0.24642 0.89353 0.34641 0.0
C2065 C 0.26132 0.87728 0.21624 0.0
C2066 C 0.24287 0.88096 0.22672 0.0
C2067 C 0.23849 0.88584 0.26953 0.0
C2068 C 0.22766 0.87903 0.19467 0.0
C2069 C 0.26682 0.87138 0.17138 0.0
C2070 C 0.22657 0.88936 0.15683 0.0
C2071 C 0.21108 0.88847 0.12959 0.0
C2072 C 0.19642 0.87734 0.14013 0.0
C2073 C 0.19804 0.86652 0.1769 0.0
C2074 C 0.21338 0.86738 0.20378 0.0
H2075 H 0.28072 0.86547 0.17105 0.0
H2076 H 0.25688 0.86172 0.15848 0.0
H2077 H 0.2669 0.88282 0.14928 0.0
H2078 H 0.23731 0.89863 0.14938 0.0
H2079 H 0.21012 0.89716 0.10193 0.0
H2080 H 0.60997 0.9393 0.4343 0.0
H2081 H 0.61193 0.96928 0.46139 0.0
H2082 H 0.66836 0.96088 0.49688 0.0
H2083 H 0.66648 0.93071 0.46968 0.0
H2084 H 0.62134 0.9806 0.54713 0.0
H2085 H 0.67009 0.00641 0.42408 0.0
H2086 H 0.65757 0.98632 0.41601 0.0
H2087 H 0.67674 0.98689 0.45251 0.0
C2088 C 0.62284 0.94383 0.4477 0.0
C2089 C 0.63811 0.93265 0.44948 0.0
C2090 C 0.62393 0.96099 0.46325 0.0
C2091 C 0.64036 0.96748 0.48061 0.0
C2092 C 0.65563 0.9563 0.48289 0.0
H2093 H 0.66539 0.07456 0.56894 0.0
H2094 H 0.6678 0.04398 0.54529 0.0
C2095 C 0.65451 0.93903 0.46754 0.0
C2096 C 0.64115 0.98582 0.49714 0.0
H2097 H 0.65977 0.02606 0.47747 0.0
C2098 C 0.62978 0.99054 0.53197 0.0
C2099 C 0.65236 0.99876 0.47788 0.0
C2100 C 0.66484 0.99447 0.44035 0.0
C2101 C 0.62926 0.00775 0.54798 0.0
C2102 C 0.63979 0.02097 0.52739 0.0
C2103 C 0.65152 0.01612 0.49315 0.0
C2104 C 0.6385 0.03984 0.54034 0.0
C2105 C 0.61772 0.01136 0.58764 0.0
C2106 C 0.62134 0.04806 0.54423 0.0
C2107 C 0.61996 0.06535 0.55867 0.0
C2108 C 0.63573 0.07513 0.56819 0.0
C2109 C 0.65298 0.06732 0.56203 0.0
C2110 C 0.65435 0.04982 0.54849 0.0
H2111 H 0.61625 0.99947 0.60804 0.0
H2112 H 0.62371 0.02189 0.60793 0.0
H2113 H 0.60377 0.01533 0.57727 0.0
H2114 H 0.60889 0.04108 0.53634 0.0
H2115 H 0.60648 0.07109 0.5624 0.0
H2116 H 0.21365 0.38659 0.93296 0.0
H2117 H 0.24085 0.38808 0.88493 0.0
H2118 H 0.20574 0.38484 0.77268 0.0
H2119 H 0.17917 0.38391 0.81895 0.0
H2120 H 0.25261 0.36346 0.82201 0.0
H2121 H 0.23688 0.42625 0.7414 0.0
H2122 H 0.2258 0.41951 0.79106 0.0
H2123 H 0.218 0.4113 0.73944 0.0
C2124 C 0.21182 0.38651 0.89807 0.0
C2125 C 0.19418 0.38508 0.88006 0.0
C2126 C 0.22733 0.38726 0.87064 0.0
C2127 C 0.22532 0.38686 0.82503 0.0
C2128 C 0.20773 0.38558 0.8075 0.0
H2129 H 0.29857 0.38045 0.59619 0.0
H2130 H 0.27097 0.38092 0.64306 0.0
C2131 C 0.19246 0.38486 0.83441 0.0
C2132 C 0.24133 0.38701 0.79489 0.0
H2133 H 0.25866 0.4079 0.70546 0.0
C2134 C 0.25404 0.37329 0.79688 0.0
C2135 C 0.24306 0.39965 0.76145 0.0
C2136 C 0.2303 0.4151 0.75839 0.0
C2137 C 0.26821 0.37175 0.7661 0.0
C2138 C 0.26991 0.38438 0.73268 0.0
C2139 C 0.25721 0.39808 0.73061 0.0
C2140 C 0.28602 0.38461 0.70298 0.0
C2141 C 0.28118 0.35646 0.76928 0.0
C2142 C 0.3034 0.3871 0.72085 0.0
C2143 C 0.31888 0.38692 0.69459 0.0
C2144 C 0.3176 0.38428 0.64931 0.0
C2145 C 0.30008 0.38244 0.63082 0.0
C2146 C 0.28435 0.38264 0.65759 0.0
H2147 H 0.27507 0.34551 0.78798 0.0
H2148 H 0.28507 0.35165 0.73652 0.0
H2149 H 0.29383 0.36067 0.7863 0.0
H2150 H 0.30504 0.38911 0.75547 0.0
H2151 H 0.33201 0.38878 0.71035 0.0
H2152 H 0.84679 0.92921 0.04846 0.0
H2153 H 0.84462 0.95928 0.02051 0.0
H2154 H 0.89998 0.96917 0.06253 0.0
H2155 H 0.90222 0.93935 0.09027 0.0
H2156 H 0.85006 0.99204 0.06733 0.0
H2157 H 0.90011 0.98374 0.93345 0.0
H2158 H 0.88921 0.96546 0.96003 0.0
H2159 H 0.9081 0.97648 0.98558 0.0
C2160 C 0.8585 0.9378 0.05155 0.0
C2161 C 0.8747 0.93189 0.07154 0.0
C2162 C 0.85723 0.95498 0.03568 0.0
C2163 C 0.8722 0.96646 0.03901 0.0
C2164 C 0.88833 0.96052 0.05898 0.0
H2165 H 0.9039 0.07037 0.96103 0.0
H2166 H 0.9013 0.04035 0.98699 0.0
C2167 C 0.88958 0.94346 0.07496 0.0
C2168 C 0.87113 0.98471 0.02209 0.0
H2169 H 0.89135 0.0127 0.95026 0.0
C2170 C 0.85897 0.99658 0.0415 0.0
C2171 C 0.88276 0.99064 0.98847 0.0
C2172 C 0.89569 0.97841 0.96533 0.0
C2173 C 0.8587 0.01438 0.02955 0.0
C2174 C 0.87057 0.02043 0.99619 0.0
C2175 C 0.88233 0.00831 0.97603 0.0
C2176 C 0.87169 0.03923 0.98248 0.0
C2177 C 0.84626 0.02655 0.05433 0.0
C2178 C 0.85597 0.04894 0.97129 0.0
C2179 C 0.85745 0.06639 0.95756 0.0
C2180 C 0.87473 0.07431 0.95319 0.0
C2181 C 0.89041 0.06461 0.96391 0.0
C2182 C 0.8889 0.04737 0.97868 0.0
H2183 H 0.84262 0.02115 0.08669 0.0
H2184 H 0.85271 0.03953 0.0591 0.0
H2185 H 0.83333 0.02829 0.03589 0.0
H2186 H 0.84255 0.04297 0.97227 0.0
H2187 H 0.84513 0.0735 0.94912 0.0
H2188 H 0.20875 0.60306 0.10773 0.0
H2189 H 0.23549 0.60188 0.1569 0.0
H2190 H 0.21824 0.65004 0.21674 0.0
H2191 H 0.19189 0.65131 0.16818 0.0
H2192 H 0.26494 0.62879 0.17967 0.0
H2193 H 0.21827 0.61261 0.31652 0.0
H2194 H 0.21177 0.60976 0.26035 0.0
H2195 H 0.21193 0.63118 0.28411 0.0
C2196 C 0.21108 0.61367 0.13032 0.0
C2197 C 0.19828 0.62732 0.13393 0.0
C2198 C 0.22622 0.61291 0.15873 0.0
C2199 C 0.22865 0.62571 0.19111 0.0
C2200 C 0.21653 0.63988 0.19258 0.0
H2201 H 0.30147 0.64099 0.41532 0.0
H2202 H 0.27533 0.64177 0.36447 0.0
C2203 C 0.20155 0.64066 0.16447 0.0
C2204 C 0.24313 0.62404 0.22503 0.0
H2205 H 0.24925 0.6182 0.33438 0.0
C2206 C 0.26155 0.62632 0.21341 0.0
C2207 C 0.23867 0.62115 0.26925 0.0
C2208 C 0.21911 0.61841 0.28351 0.0
C2209 C 0.27557 0.62598 0.24483 0.0
C2210 C 0.27116 0.62276 0.28904 0.0
C2211 C 0.2527 0.6206 0.30065 0.0
C2212 C 0.28564 0.62108 0.32314 0.0
C2213 C 0.29497 0.62961 0.23046 0.0
C2214 C 0.29961 0.60864 0.31826 0.0
C2215 C 0.31437 0.6082 0.34706 0.0
C2216 C 0.31542 0.61992 0.38213 0.0
C2217 C 0.30084 0.63159 0.38906 0.0
C2218 C 0.28603 0.63215 0.35974 0.0
H2219 H 0.29532 0.637 0.19943 0.0
H2220 H 0.30257 0.63715 0.25543 0.0
H2221 H 0.30219 0.61703 0.22514 0.0
H2222 H 0.29943 0.59962 0.29116 0.0
H2223 H 0.32547 0.59913 0.34078 0.0
H2224 H 0.40575 0.93511 0.46203 0.0
H2225 H 0.40336 0.96513 0.48858 0.0
H2226 H 0.34484 0.96373 0.46841 0.0
H2227 H 0.34715 0.93323 0.44516 0.0
H2228 H 0.3948 0.99297 0.45196 0.0
H2229 H 0.34305 0.98551 0.58219 0.0
H2230 H 0.35318 0.96692 0.55556 0.0
H2231 H 0.3345 0.97861 0.5305 0.0
C2232 C 0.39235 0.94115 0.46399 0.0
C2233 C 0.37664 0.93181 0.4518 0.0
C2234 C 0.39096 0.95837 0.47906 0.0
C2235 C 0.37386 0.96685 0.48147 0.0
C2236 C 0.35814 0.95749 0.46869 0.0
H2237 H 0.34806 0.07683 0.5447 0.0
H2238 H 0.34643 0.04668 0.51705 0.0
C2239 C 0.35948 0.94006 0.4549 0.0
C2240 C 0.37285 0.98566 0.49514 0.0
H2241 H 0.35097 0.01453 0.56277 0.0
C2242 C 0.38524 0.99755 0.47643 0.0
C2243 C 0.36028 0.99196 0.52677 0.0
C2244 C 0.34713 0.98004 0.55019 0.0
C2245 C 0.38557 0.01526 0.4885 0.0
C2246 C 0.37318 0.02146 0.52029 0.0
C2247 C 0.36045 0.00979 0.5383 0.0
C2248 C 0.37395 0.03978 0.53682 0.0
C2249 C 0.39918 0.02723 0.46678 0.0
C2250 C 0.38985 0.0459 0.55744 0.0
C2251 C 0.39081 0.06303 0.57306 0.0
C2252 C 0.37584 0.07445 0.56883 0.0
C2253 C 0.35984 0.06835 0.54836 0.0
C2254 C 0.35888 0.05112 0.53268 0.0
H2255 H 0.40397 0.02184 0.43524 0.0
H2256 H 0.39317 0.04035 0.46108 0.0
H2257 H 0.41132 0.02875 0.48813 0.0
H2258 H 0.40153 0.03735 0.56184 0.0
H2259 H 0.4033 0.06727 0.58885 0.0
H2260 H 0.82558 0.5997 0.18296 0.0
H2261 H 0.79884 0.59968 0.23047 0.0
H2262 H 0.77526 0.64176 0.15592 0.0
H2263 H 0.802 0.64136 0.10715 0.0
H2264 H 0.78889 0.62497 0.28261 0.0
H2265 H 0.73094 0.61168 0.17121 0.0
H2266 H 0.75449 0.6086 0.15507 0.0
H2267 H 0.74451 0.63011 0.15518 0.0
C2268 C 0.81439 0.60856 0.17581 0.0
C2269 C 0.8157 0.62032 0.1409 0.0
C2270 C 0.79917 0.60865 0.20327 0.0
C2271 C 0.78486 0.62063 0.19691 0.0
C2272 C 0.78584 0.63208 0.16108 0.0
H2273 H 0.68902 0.64943 0.34451 0.0
H2274 H 0.71557 0.64789 0.29702 0.0
C2275 C 0.80109 0.63183 0.13305 0.0
C2276 C 0.76981 0.62179 0.2298 0.0
H2277 H 0.7233 0.62062 0.24271 0.0
C2278 C 0.77455 0.62389 0.27382 0.0
C2279 C 0.75105 0.62044 0.21864 0.0
C2280 C 0.74491 0.61742 0.17251 0.0
C2281 C 0.76114 0.62492 0.30662 0.0
C2282 C 0.74242 0.62363 0.2954 0.0
C2283 C 0.73766 0.62155 0.25145 0.0
C2284 C 0.7274 0.62524 0.32812 0.0
C2285 C 0.76714 0.62786 0.35288 0.0
C2286 C 0.72531 0.61324 0.36253 0.0
C2287 C 0.70998 0.61414 0.39032 0.0
C2288 C 0.69646 0.62696 0.38375 0.0
C2289 C 0.6991 0.63931 0.35044 0.0
C2290 C 0.71429 0.63844 0.32303 0.0
H2291 H 0.78153 0.63251 0.35477 0.0
H2292 H 0.75813 0.63754 0.36919 0.0
H2293 H 0.76617 0.61536 0.37097 0.0
H2294 H 0.73511 0.60277 0.36679 0.0
H2295 H 0.70823 0.60431 0.41526 0.0
H2296 H 0.10867 0.07012 0.95447 0.0
H2297 H 0.11085 0.04001 0.98015 0.0
H2298 H 0.16986 0.04324 0.97515 0.0
H2299 H 0.16761 0.07383 0.95227 0.0
H2300 H 0.1221 0.01244 0.94532 0.0
H2301 H 0.16674 0.02125 0.08904 0.0
H2302 H 0.15723 0.03956 0.06002 0.0
H2303 H 0.17741 0.02859 0.03996 0.0
C2304 C 0.12211 0.06446 0.95942 0.0
C2305 C 0.13795 0.07438 0.95154 0.0
C2306 C 0.12338 0.04718 0.97403 0.0
C2307 C 0.14053 0.03918 0.98054 0.0
C2308 C 0.15642 0.04908 0.97209 0.0
H2309 H 0.16534 0.92927 0.04916 0.0
H2310 H 0.1677 0.95938 0.02145 0.0
C2311 C 0.15514 0.06657 0.95852 0.0
C2312 C 0.14149 0.02035 0.99429 0.0
H2313 H 0.16048 0.99207 0.06809 0.0
C2314 C 0.13047 0.00811 0.97234 0.0
C2315 C 0.1525 0.01438 0.02935 0.0
C2316 C 0.164 0.02666 0.05621 0.0
C2317 C 0.12999 0.9904 0.98451 0.0
C2318 C 0.14082 0.98453 0.01968 0.0
C2319 C 0.15222 0.99654 0.04101 0.0
C2320 C 0.13961 0.96621 0.03622 0.0
C2321 C 0.11787 0.97805 0.95944 0.0
C2322 C 0.12312 0.96003 0.05398 0.0
C2323 C 0.12177 0.94295 0.06985 0.0
C2324 C 0.13689 0.93157 0.0685 0.0
C2325 C 0.15343 0.9377 0.0506 0.0
C2326 C 0.15481 0.95491 0.03488 0.0
H2327 H 0.11414 0.98342 0.92711 0.0
H2328 H 0.12471 0.96523 0.95482 0.0
H2329 H 0.10503 0.97587 0.97796 0.0
H2330 H 0.11127 0.96852 0.05598 0.0
H2331 H 0.10885 0.93869 0.08351 0.0
H2332 H 0.71123 0.36409 0.60574 0.0
H2333 H 0.73777 0.36314 0.6554 0.0
H2334 H 0.71521 0.40627 0.72795 0.0
H2335 H 0.68879 0.40696 0.6795 0.0
H2336 H 0.76444 0.38704 0.68296 0.0
H2337 H 0.71945 0.3692 0.8209 0.0
H2338 H 0.71169 0.36877 0.76527 0.0
H2339 H 0.71267 0.38908 0.79461 0.0
C2340 C 0.71228 0.37365 0.63157 0.0
C2341 C 0.69803 0.38566 0.63869 0.0
C2342 C 0.72731 0.373 0.6602 0.0
C2343 C 0.72824 0.38432 0.69624 0.0
C2344 C 0.7146 0.39707 0.70127 0.0
H2345 H 0.80333 0.40014 0.91554 0.0
H2346 H 0.77693 0.40108 0.86553 0.0
C2347 C 0.69962 0.39761 0.67316 0.0
C2348 C 0.74299 0.38263 0.72955 0.0
H2349 H 0.75017 0.37678 0.83855 0.0
C2350 C 0.76132 0.38467 0.7169 0.0
C2351 C 0.73896 0.37959 0.77401 0.0
C2352 C 0.71964 0.37636 0.78953 0.0
C2353 C 0.77565 0.38419 0.74749 0.0
C2354 C 0.77162 0.38124 0.79197 0.0
C2355 C 0.75329 0.37915 0.80461 0.0
C2356 C 0.78637 0.37967 0.82532 0.0
C2357 C 0.79499 0.38727 0.73193 0.0
C2358 C 0.79991 0.36683 0.82072 0.0
C2359 C 0.81484 0.3663 0.84897 0.0
C2360 C 0.81653 0.37842 0.88311 0.0
C2361 C 0.80234 0.39055 0.88979 0.0
C2362 C 0.78734 0.39117 0.86101 0.0
H2363 H 0.79525 0.39425 0.70031 0.0
H2364 H 0.80295 0.39496 0.75596 0.0
H2365 H 0.80192 0.37449 0.72735 0.0
H2366 H 0.79923 0.35748 0.79437 0.0
H2367 H 0.82546 0.35668 0.84314 0.0
loop_
_geom_bond_atom_site_label_1
_geom_bond_atom_site_label_2
_geom_bond_distance
_geom_bond_site_symmetry_2
_ccdc_geom_bond_type
Pr0 C2 2.880 . S
Pr0 O20 2.562 . S
Pr0 O21 2.490 . S
Pr0 O22 2.695 1_556 S
Pr0 O23 2.512 1_556 S
Pr0 O25 2.437 . S
Pr0 O28 2.436 1_556 S
Pr0 O30 2.438 1_556 S
Pr1 C11 2.880 . S
Pr1 O22 2.436 . S
Pr1 O24 2.438 . S
Pr1 O26 2.562 . S
Pr1 O27 2.490 . S
Pr1 O28 2.695 . S
Pr1 O29 2.512 . S
Pr1 O31 2.437 . S
C2 Pr0 2.880 . S
C2 C3 1.491 . S
C2 O20 1.254 . S
C2 O21 1.225 . S
C3 C2 1.491 . S
C3 C4 1.392 . S
C3 C8 1.356 . S
C4 C3 1.392 . S
C4 C5 1.368 . S
C4 H32 0.929 . S
C5 C4 1.368 . S
C5 C6 1.386 . S
C5 H33 0.929 . S
C6 C5 1.386 . S
C6 C7 1.373 . S
C7 C6 1.373 . S
C7 C8 1.409 . S
C7 H34 0.931 . S
C8 C3 1.356 . S
C8 C7 1.409 . S
C8 H35 0.930 . S
C9 O22 1.270 . S
C9 O23 1.248 . S
C10 O24 1.267 . S
C10 O25 1.278 1_554 S
C11 Pr1 2.880 . S
C11 C12 1.491 . S
C11 O26 1.254 . S
C11 O27 1.225 . S
C12 C11 1.491 . S
C12 C13 1.392 . S
C12 C17 1.356 . S
C13 C12 1.392 . S
C13 C14 1.368 . S
C13 H36 0.929 . S
C14 C13 1.368 . S
C14 C15 1.386 . S
C14 H37 0.929 . S
C15 C14 1.386 . S
C15 C16 1.373 . S
C16 C15 1.373 . S
C16 C17 1.409 . S
C16 H38 0.931 . S
C17 C12 1.356 . S
C17 C16 1.409 . S
C17 H39 0.930 . S
C18 O28 1.270 . S
C18 O29 1.248 . S
C19 O30 1.267 . S
C19 O31 1.278 . S
O20 Pr0 2.562 . S
O20 C2 1.254 . S
O21 Pr0 2.490 . S
O21 C2 1.225 . S
O22 Pr0 2.695 1_554 S
O22 Pr1 2.436 . S
O22 C9 1.270 . S
O23 Pr0 2.512 1_554 S
O23 C9 1.248 . S
O24 Pr1 2.438 . S
O24 C10 1.267 . S
O25 Pr0 2.437 . S
O25 C10 1.278 1_556 S
O26 Pr1 2.562 . S
O26 C11 1.254 . S
O27 Pr1 2.490 . S
O27 C11 1.225 . S
O28 Pr0 2.436 1_554 S
O28 Pr1 2.695 . S
O28 C18 1.270 . S
O29 Pr1 2.512 . S
O29 C18 1.248 . S
O30 Pr0 2.438 1_554 S
O30 C19 1.267 . S
O31 Pr1 2.437 . S
O31 C19 1.278 . S
H32 C4 0.929 . S
H33 C5 0.929 . S
H34 C7 0.931 . S
H35 C8 0.930 . S
H36 C13 0.929 . S
H37 C14 0.929 . S
H38 C16 0.931 . S
H39 C17 0.930 . S
Pr40 C42 2.880 . S
Pr40 O60 2.562 . S
Pr40 O61 2.490 . S
Pr40 O62 2.695 . S
Pr40 O63 2.512 . S
Pr40 O65 2.437 . S
Pr40 O68 2.436 . S
Pr40 O70 2.438 . S
Pr41 C51 2.880 . S
Pr41 O62 2.436 . S
Pr41 O64 2.438 . S
Pr41 O66 2.562 . S
Pr41 O67 2.490 . S
Pr41 O68 2.695 . S
Pr41 O69 2.512 . S
Pr41 O71 2.437 . S
C42 Pr40 2.880 . S
C42 C43 1.491 . S
C42 O60 1.254 . S
C42 O61 1.225 . S
C43 C42 1.491 . S
C43 C44 1.392 . S
C43 C48 1.356 . S
C44 C43 1.392 . S
C44 C45 1.368 . S
C44 H72 0.929 . S
C45 C44 1.368 . S
C45 C46 1.386 . S
C45 H73 0.929 . S
C46 C45 1.386 . S
C46 C47 1.373 . S
C47 C46 1.373 . S
C47 C48 1.409 . S
C47 H74 0.931 . S
C48 C43 1.356 . S
C48 C47 1.409 . S
C48 H75 0.930 . S
C49 O62 1.270 . S
C49 O63 1.248 . S
C50 O64 1.267 . S
C50 O65 1.278 . S
C51 Pr41 2.880 . S
C51 C52 1.491 . S
C51 O66 1.254 . S
C51 O67 1.225 . S
C52 C51 1.491 . S
C52 C53 1.392 . S
C52 C57 1.356 . S
C53 C52 1.392 . S
C53 C54 1.368 . S
C53 H76 0.929 . S
C54 C53 1.368 . S
C54 C55 1.386 . S
C54 H77 0.929 . S
C55 C54 1.386 . S
C55 C56 1.373 . S
C56 C55 1.373 . S
C56 C57 1.409 . S
C56 H78 0.931 . S
C57 C52 1.356 . S
C57 C56 1.409 . S
C57 H79 0.930 . S
C58 O68 1.270 . S
C58 O69 1.248 . S
C59 O70 1.267 . S
C59 O71 1.278 . S
O60 Pr40 2.562 . S
O60 C42 1.254 . S
O61 Pr40 2.490 . S
O61 C42 1.225 . S
O62 Pr40 2.695 . S
O62 Pr41 2.436 . S
O62 C49 1.270 . S
O63 Pr40 2.512 . S
O63 C49 1.248 . S
O64 Pr41 2.438 . S
O64 C50 1.267 . S
O65 Pr40 2.437 . S
O65 C50 1.278 . S
O66 Pr41 2.562 . S
O66 C51 1.254 . S
O67 Pr41 2.490 . S
O67 C51 1.225 . S
O68 Pr40 2.436 . S
O68 Pr41 2.695 . S
O68 C58 1.270 . S
O69 Pr41 2.512 . S
O69 C58 1.248 . S
O70 Pr40 2.438 . S
O70 C59 1.267 . S
O71 Pr41 2.437 . S
O71 C59 1.278 . S
H72 C44 0.929 . S
H73 C45 0.929 . S
H74 C47 0.931 . S
H75 C48 0.930 . S
H76 C53 0.929 . S
H77 C54 0.929 . S
H78 C56 0.931 . S
H79 C57 0.930 . S
Pr80 C82 2.880 . S
Pr80 O100 2.562 . S
Pr80 O101 2.490 . S
Pr80 O102 2.695 . S
Pr80 O103 2.512 . S
Pr80 O105 2.437 . S
Pr80 O108 2.436 . S
Pr80 O110 2.438 . S
Pr81 C91 2.880 . S
Pr81 O102 2.436 . S
Pr81 O104 2.438 . S
Pr81 O106 2.562 . S
Pr81 O107 2.490 . S
Pr81 O108 2.695 . S
Pr81 O109 2.512 . S
Pr81 O111 2.437 . S
C82 Pr80 2.880 . S
C82 C83 1.491 . S
C82 O100 1.254 . S
C82 O101 1.225 . S
C83 C82 1.491 . S
C83 C84 1.392 . S
C83 C88 1.356 . S
C84 C83 1.392 . S
C84 C85 1.368 . S
C84 H112 0.929 . S
C85 C84 1.368 . S
C85 C86 1.386 . S
C85 H113 0.929 . S
C86 C85 1.386 . S
C86 C87 1.373 . S
C87 C86 1.373 . S
C87 C88 1.409 . S
C87 H114 0.931 . S
C88 C83 1.356 . S
C88 C87 1.409 . S
C88 H115 0.930 . S
C89 O102 1.270 . S
C89 O103 1.248 . S
C90 O104 1.267 . S
C90 O105 1.278 . S
C91 Pr81 2.880 . S
C91 C92 1.491 . S
C91 O106 1.254 . S
C91 O107 1.225 . S
C92 C91 1.491 . S
C92 C93 1.392 . S
C92 C97 1.356 . S
C93 C92 1.392 . S
C93 C94 1.368 . S
C93 H116 0.929 . S
C94 C93 1.368 . S
C94 C95 1.386 . S
C94 H117 0.929 . S
C95 C94 1.386 . S
C95 C96 1.373 . S
C96 C95 1.373 . S
C96 C97 1.409 . S
C96 H118 0.931 . S
C97 C92 1.356 . S
C97 C96 1.409 . S
C97 H119 0.930 . S
C98 O108 1.270 . S
C98 O109 1.248 . S
C99 O110 1.267 . S
C99 O111 1.278 . S
O100 Pr80 2.562 . S
O100 C82 1.254 . S
O101 Pr80 2.490 . S
O101 C82 1.225 . S
O102 Pr80 2.695 . S
O102 Pr81 2.436 . S
O102 C89 1.270 . S
O103 Pr80 2.512 . S
O103 C89 1.248 . S
O104 Pr81 2.438 . S
O104 C90 1.267 . S
O105 Pr80 2.437 . S
O105 C90 1.278 . S
O106 Pr81 2.562 . S
O106 C91 1.254 . S
O107 Pr81 2.490 . S
O107 C91 1.225 . S
O108 Pr80 2.436 . S
O108 Pr81 2.695 . S
O108 C98 1.270 . S
O109 Pr81 2.512 . S
O109 C98 1.248 . S
O110 Pr80 2.438 . S
O110 C99 1.267 . S
O111 Pr81 2.437 . S
O111 C99 1.278 . S
H112 C84 0.929 . S
H113 C85 0.929 . S
H114 C87 0.931 . S
H115 C88 0.930 . S
H116 C93 0.929 . S
H117 C94 0.929 . S
H118 C96 0.931 . S
H119 C97 0.930 . S
Pr120 C122 2.880 . S
Pr120 O140 2.562 . S
Pr120 O141 2.490 . S
Pr120 O142 2.695 1_554 S
Pr120 O143 2.512 1_554 S
Pr120 O145 2.437 . S
Pr120 O148 2.436 1_554 S
Pr120 O150 2.438 1_554 S
Pr121 C131 2.880 . S
Pr121 O142 2.436 . S
Pr121 O144 2.438 . S
Pr121 O146 2.562 . S
Pr121 O147 2.490 . S
Pr121 O148 2.695 . S
Pr121 O149 2.512 . S
Pr121 O151 2.437 . S
C122 Pr120 2.880 . S
C122 C123 1.491 . S
C122 O140 1.254 . S
C122 O141 1.225 . S
C123 C122 1.491 . S
C123 C124 1.392 . S
C123 C128 1.356 . S
C124 C123 1.392 . S
C124 C125 1.368 . S
C124 H152 0.929 . S
C125 C124 1.368 . S
C125 C126 1.386 . S
C125 H153 0.929 . S
C126 C125 1.386 . S
C126 C127 1.373 . S
C127 C126 1.373 . S
C127 C128 1.409 . S
C127 H154 0.931 . S
C128 C123 1.356 . S
C128 C127 1.409 . S
C128 H155 0.930 . S
C129 O142 1.270 . S
C129 O143 1.248 . S
C130 O144 1.267 . S
C130 O145 1.278 1_556 S
C131 Pr121 2.880 . S
C131 C132 1.491 . S
C131 O146 1.254 . S
C131 O147 1.225 . S
C132 C131 1.491 . S
C132 C133 1.392 . S
C132 C137 1.356 . S
C133 C132 1.392 . S
C133 C134 1.368 . S
C133 H156 0.929 . S
C134 C133 1.368 . S
C134 C135 1.386 . S
C134 H157 0.929 . S
C135 C134 1.386 . S
C135 C136 1.373 . S
C136 C135 1.373 . S
C136 C137 1.409 . S
C136 H158 0.931 . S
C137 C132 1.356 . S
C137 C136 1.409 . S
C137 H159 0.930 . S
C138 O148 1.270 . S
C138 O149 1.248 . S
C139 O150 1.267 . S
C139 O151 1.278 . S
O140 Pr120 2.562 . S
O140 C122 1.254 . S
O141 Pr120 2.490 . S
O141 C122 1.225 . S
O142 Pr120 2.695 1_556 S
O142 Pr121 2.436 . S
O142 C129 1.270 . S
O143 Pr120 2.512 1_556 S
O143 C129 1.248 . S
O144 Pr121 2.438 . S
O144 C130 1.267 . S
O145 Pr120 2.437 . S
O145 C130 1.278 1_554 S
O146 Pr121 2.562 . S
O146 C131 1.254 . S
O147 Pr121 2.490 . S
O147 C131 1.225 . S
O148 Pr120 2.436 1_556 S
O148 Pr121 2.695 . S
O148 C138 1.270 . S
O149 Pr121 2.512 . S
O149 C138 1.248 . S
O150 Pr120 2.438 1_556 S
O150 C139 1.267 . S
O151 Pr121 2.437 . S
O151 C139 1.278 . S
H152 C124 0.929 . S
H153 C125 0.929 . S
H154 C127 0.931 . S
H155 C128 0.930 . S
H156 C133 0.929 . S
H157 C134 0.929 . S
H158 C136 0.931 . S
H159 C137 0.930 . S
Pr160 C162 2.880 . S
Pr160 O180 2.562 . S
Pr160 O181 2.490 . S
Pr160 O182 2.695 1_554 S
Pr160 O183 2.512 1_554 S
Pr160 O185 2.437 . S
Pr160 O188 2.436 1_554 S
Pr160 O190 2.438 1_554 S
Pr161 C171 2.880 . S
Pr161 O182 2.436 . S
Pr161 O184 2.438 . S
Pr161 O186 2.562 . S
Pr161 O187 2.490 . S
Pr161 O188 2.695 . S
Pr161 O189 2.512 . S
Pr161 O191 2.437 . S
C162 Pr160 2.880 . S
C162 C163 1.491 . S
C162 O180 1.254 . S
C162 O181 1.225 . S
C163 C162 1.491 . S
C163 C164 1.392 . S
C163 C168 1.356 . S
C164 C163 1.392 . S
C164 C165 1.368 . S
C164 H192 0.929 . S
C165 C164 1.368 . S
C165 C166 1.386 . S
C165 H193 0.929 . S
C166 C165 1.386 . S
C166 C167 1.373 . S
C167 C166 1.373 . S
C167 C168 1.409 . S
C167 H194 0.931 . S
C168 C163 1.356 . S
C168 C167 1.409 . S
C168 H195 0.930 . S
C169 O182 1.270 . S
C169 O183 1.248 . S
C170 O184 1.267 . S
C170 O185 1.278 1_556 S
C171 Pr161 2.880 . S
C171 C172 1.491 . S
C171 O186 1.254 . S
C171 O187 1.225 . S
C172 C171 1.491 . S
C172 C173 1.392 . S
C172 C177 1.356 . S
C173 C172 1.392 . S
C173 C174 1.368 . S
C173 H196 0.929 . S
C174 C173 1.368 . S
C174 C175 1.386 . S
C174 H197 0.929 . S
C175 C174 1.386 . S
C175 C176 1.373 . S
C176 C175 1.373 . S
C176 C177 1.409 . S
C176 H198 0.931 . S
C177 C172 1.356 . S
C177 C176 1.409 . S
C177 H199 0.930 . S
C178 O188 1.270 . S
C178 O189 1.248 . S
C179 O190 1.267 . S
C179 O191 1.278 . S
O180 Pr160 2.562 . S
O180 C162 1.254 . S
O181 Pr160 2.490 . S
O181 C162 1.225 . S
O182 Pr160 2.695 1_556 S
O182 Pr161 2.436 . S
O182 C169 1.270 . S
O183 Pr160 2.512 1_556 S
O183 C169 1.248 . S
O184 Pr161 2.438 . S
O184 C170 1.267 . S
O185 Pr160 2.437 . S
O185 C170 1.278 1_554 S
O186 Pr161 2.562 . S
O186 C171 1.254 . S
O187 Pr161 2.490 . S
O187 C171 1.225 . S
O188 Pr160 2.436 1_556 S
O188 Pr161 2.695 . S
O188 C178 1.270 . S
O189 Pr161 2.512 . S
O189 C178 1.248 . S
O190 Pr160 2.438 1_556 S
O190 C179 1.267 . S
O191 Pr161 2.437 . S
O191 C179 1.278 . S
H192 C164 0.929 . S
H193 C165 0.929 . S
H194 C167 0.931 . S
H195 C168 0.930 . S
H196 C173 0.929 . S
H197 C174 0.929 . S
H198 C176 0.931 . S
H199 C177 0.930 . S
Pr200 C202 2.880 . S
Pr200 O220 2.562 . S
Pr200 O221 2.490 . S
Pr200 O222 2.695 1_556 S
Pr200 O223 2.512 1_556 S
Pr200 O225 2.437 . S
Pr200 O228 2.436 1_556 S
Pr200 O230 2.438 1_556 S
Pr201 C211 2.880 . S
Pr201 O222 2.436 . S
Pr201 O224 2.438 . S
Pr201 O226 2.562 . S
Pr201 O227 2.490 . S
Pr201 O228 2.695 . S
Pr201 O229 2.512 . S
Pr201 O231 2.437 . S
C202 Pr200 2.880 . S
C202 C203 1.491 . S
C202 O220 1.254 . S
C202 O221 1.225 . S
C203 C202 1.491 . S
C203 C204 1.392 . S
C203 C208 1.356 . S
C204 C203 1.392 . S
C204 C205 1.368 . S
C204 H232 0.929 . S
C205 C204 1.368 . S
C205 C206 1.386 . S
C205 H233 0.929 . S
C206 C205 1.386 . S
C206 C207 1.373 . S
C207 C206 1.373 . S
C207 C208 1.409 . S
C207 H234 0.931 . S
C208 C203 1.356 . S
C208 C207 1.409 . S
C208 H235 0.930 . S
C209 O222 1.270 . S
C209 O223 1.248 . S
C210 O224 1.267 . S
C210 O225 1.278 1_554 S
C211 Pr201 2.880 . S
C211 C212 1.491 . S
C211 O226 1.254 . S
C211 O227 1.225 . S
C212 C211 1.491 . S
C212 C213 1.392 . S
C212 C217 1.356 . S
C213 C212 1.392 . S
C213 C214 1.368 . S
C213 H236 0.929 . S
C214 C213 1.368 . S
C214 C215 1.386 . S
C214 H237 0.929 . S
C215 C214 1.386 . S
C215 C216 1.373 . S
C216 C215 1.373 . S
C216 C217 1.409 . S
C216 H238 0.931 . S
C217 C212 1.356 . S
C217 C216 1.409 . S
C217 H239 0.930 . S
C218 O228 1.270 . S
C218 O229 1.248 . S
C219 O230 1.267 . S
C219 O231 1.278 . S
O220 Pr200 2.562 . S
O220 C202 1.254 . S
O221 Pr200 2.490 . S
O221 C202 1.225 . S
O222 Pr200 2.695 1_554 S
O222 Pr201 2.436 . S
O222 C209 1.270 . S
O223 Pr200 2.512 1_554 S
O223 C209 1.248 . S
O224 Pr201 2.438 . S
O224 C210 1.267 . S
O225 Pr200 2.437 . S
O225 C210 1.278 1_556 S
O226 Pr201 2.562 . S
O226 C211 1.254 . S
O227 Pr201 2.490 . S
O227 C211 1.225 . S
O228 Pr200 2.436 1_554 S
O228 Pr201 2.695 . S
O228 C218 1.270 . S
O229 Pr201 2.512 . S
O229 C218 1.248 . S
O230 Pr200 2.438 1_554 S
O230 C219 1.267 . S
O231 Pr201 2.437 . S
O231 C219 1.278 . S
H232 C204 0.929 . S
H233 C205 0.929 . S
H234 C207 0.931 . S
H235 C208 0.930 . S
H236 C213 0.929 . S
H237 C214 0.929 . S
H238 C216 0.931 . S
H239 C217 0.930 . S
Pr240 C242 2.880 . S
Pr240 O260 2.562 . S
Pr240 O261 2.490 . S
Pr240 O262 2.695 . S
Pr240 O263 2.512 . S
Pr240 O265 2.437 . S
Pr240 O268 2.436 . S
Pr240 O270 2.438 . S
Pr241 C251 2.880 . S
Pr241 O262 2.436 . S
Pr241 O264 2.438 . S
Pr241 O266 2.562 . S
Pr241 O267 2.490 . S
Pr241 O268 2.695 . S
Pr241 O269 2.512 . S
Pr241 O271 2.437 . S
C242 Pr240 2.880 . S
C242 C243 1.491 . S
C242 O260 1.254 . S
C242 O261 1.225 . S
C243 C242 1.491 . S
C243 C244 1.392 . S
C243 C248 1.356 . S
C244 C243 1.392 . S
C244 C245 1.368 . S
C244 H272 0.929 . S
C245 C244 1.368 . S
C245 C246 1.386 . S
C245 H273 0.929 . S
C246 C245 1.386 . S
C246 C247 1.373 . S
C247 C246 1.373 . S
C247 C248 1.409 . S
C247 H274 0.931 . S
C248 C243 1.356 . S
C248 C247 1.409 . S
C248 H275 0.930 . S
C249 O262 1.270 . S
C249 O263 1.248 . S
C250 O264 1.267 . S
C250 O265 1.278 . S
C251 Pr241 2.880 . S
C251 C252 1.491 . S
C251 O266 1.254 . S
C251 O267 1.225 . S
C252 C251 1.491 . S
C252 C253 1.392 . S
C252 C257 1.356 . S
C253 C252 1.392 . S
C253 C254 1.368 . S
C253 H276 0.929 . S
C254 C253 1.368 . S
C254 C255 1.386 . S
C254 H277 0.929 . S
C255 C254 1.386 . S
C255 C256 1.373 . S
C256 C255 1.373 . S
C256 C257 1.409 . S
C256 H278 0.931 . S
C257 C252 1.356 . S
C257 C256 1.409 . S
C257 H279 0.930 . S
C258 O268 1.270 . S
C258 O269 1.248 . S
C259 O270 1.267 . S
C259 O271 1.278 . S
O260 Pr240 2.562 . S
O260 C242 1.254 . S
O261 Pr240 2.490 . S
O261 C242 1.225 . S
O262 Pr240 2.695 . S
O262 Pr241 2.436 . S
O262 C249 1.270 . S
O263 Pr240 2.512 . S
O263 C249 1.248 . S
O264 Pr241 2.438 . S
O264 C250 1.267 . S
O265 Pr240 2.437 . S
O265 C250 1.278 . S
O266 Pr241 2.562 . S
O266 C251 1.254 . S
O267 Pr241 2.490 . S
O267 C251 1.225 . S
O268 Pr240 2.436 . S
O268 Pr241 2.695 . S
O268 C258 1.270 . S
O269 Pr241 2.512 . S
O269 C258 1.248 . S
O270 Pr240 2.438 . S
O270 C259 1.267 . S
O271 Pr241 2.437 . S
O271 C259 1.278 . S
H272 C244 0.929 . S
H273 C245 0.929 . S
H274 C247 0.931 . S
H275 C248 0.930 . S
H276 C253 0.929 . S
H277 C254 0.929 . S
H278 C256 0.931 . S
H279 C257 0.930 . S
Pr280 C282 2.880 . S
Pr280 O300 2.562 . S
Pr280 O301 2.490 . S
Pr280 O302 2.695 . S
Pr280 O303 2.512 . S
Pr280 O305 2.437 . S
Pr280 O308 2.436 . S
Pr280 O310 2.438 . S
Pr281 C291 2.880 . S
Pr281 O302 2.436 . S
Pr281 O304 2.438 . S
Pr281 O306 2.562 . S
Pr281 O307 2.490 . S
Pr281 O308 2.695 . S
Pr281 O309 2.512 . S
Pr281 O311 2.437 . S
C282 Pr280 2.880 . S
C282 C283 1.491 . S
C282 O300 1.254 . S
C282 O301 1.225 . S
C283 C282 1.491 . S
C283 C284 1.392 . S
C283 C288 1.356 . S
C284 C283 1.392 . S
C284 C285 1.368 . S
C284 H312 0.929 . S
C285 C284 1.368 . S
C285 C286 1.386 . S
C285 H313 0.929 . S
C286 C285 1.386 . S
C286 C287 1.373 . S
C287 C286 1.373 . S
C287 C288 1.409 . S
C287 H314 0.931 . S
C288 C283 1.356 . S
C288 C287 1.409 . S
C288 H315 0.930 . S
C289 O302 1.270 . S
C289 O303 1.248 . S
C290 O304 1.267 . S
C290 O305 1.278 . S
C291 Pr281 2.880 . S
C291 C292 1.491 . S
C291 O306 1.254 . S
C291 O307 1.225 . S
C292 C291 1.491 . S
C292 C293 1.392 . S
C292 C297 1.356 . S
C293 C292 1.392 . S
C293 C294 1.368 . S
C293 H316 0.929 . S
C294 C293 1.368 . S
C294 C295 1.386 . S
C294 H317 0.929 . S
C295 C294 1.386 . S
C295 C296 1.373 . S
C296 C295 1.373 . S
C296 C297 1.409 . S
C296 H318 0.931 . S
C297 C292 1.356 . S
C297 C296 1.409 . S
C297 H319 0.930 . S
C298 O308 1.270 . S
C298 O309 1.248 . S
C299 O310 1.267 . S
C299 O311 1.278 . S
O300 Pr280 2.562 . S
O300 C282 1.254 . S
O301 Pr280 2.490 . S
O301 C282 1.225 . S
O302 Pr280 2.695 . S
O302 Pr281 2.436 . S
O302 C289 1.270 . S
O303 Pr280 2.512 . S
O303 C289 1.248 . S
O304 Pr281 2.438 . S
O304 C290 1.267 . S
O305 Pr280 2.437 . S
O305 C290 1.278 . S
O306 Pr281 2.562 . S
O306 C291 1.254 . S
O307 Pr281 2.490 . S
O307 C291 1.225 . S
O308 Pr280 2.436 . S
O308 Pr281 2.695 . S
O308 C298 1.270 . S
O309 Pr281 2.512 . S
O309 C298 1.248 . S
O310 Pr280 2.438 . S
O310 C299 1.267 . S
O311 Pr281 2.437 . S
O311 C299 1.278 . S
H312 C284 0.929 . S
H313 C285 0.929 . S
H314 C287 0.931 . S
H315 C288 0.930 . S
H316 C293 0.929 . S
H317 C294 0.929 . S
H318 C296 0.931 . S
H319 C297 0.930 . S
Pr320 C322 2.880 . S
Pr320 O340 2.562 . S
Pr320 O341 2.490 . S
Pr320 O342 2.695 . S
Pr320 O343 2.512 . S
Pr320 O345 2.437 . S
Pr320 O348 2.436 . S
Pr320 O350 2.438 . S
Pr321 C331 2.880 . S
Pr321 O342 2.436 1_554 S
Pr321 O344 2.438 1_554 S
Pr321 O346 2.562 . S
Pr321 O347 2.490 . S
Pr321 O348 2.695 1_554 S
Pr321 O349 2.512 1_554 S
Pr321 O351 2.437 . S
C322 Pr320 2.880 . S
C322 C323 1.491 . S
C322 O340 1.254 . S
C322 O341 1.225 . S
C323 C322 1.491 . S
C323 C324 1.392 . S
C323 C328 1.356 . S
C324 C323 1.392 . S
C324 C325 1.368 . S
C324 H352 0.929 . S
C325 C324 1.368 . S
C325 C326 1.386 . S
C325 H353 0.929 . S
C326 C325 1.386 . S
C326 C327 1.373 . S
C327 C326 1.373 . S
C327 C328 1.409 . S
C327 H354 0.931 . S
C328 C323 1.356 . S
C328 C327 1.409 . S
C328 H355 0.930 . S
C329 O342 1.270 . S
C329 O343 1.248 . S
C330 O344 1.267 . S
C330 O345 1.278 . S
C331 Pr321 2.880 . S
C331 C332 1.491 . S
C331 O346 1.254 . S
C331 O347 1.225 . S
C332 C331 1.491 . S
C332 C333 1.392 . S
C332 C337 1.356 . S
C333 C332 1.392 . S
C333 C334 1.368 . S
C333 H356 0.929 . S
C334 C333 1.368 . S
C334 C335 1.386 . S
C334 H357 0.929 . S
C335 C334 1.386 . S
C335 C336 1.373 . S
C336 C335 1.373 . S
C336 C337 1.409 . S
C336 H358 0.931 . S
C337 C332 1.356 . S
C337 C336 1.409 . S
C337 H359 0.930 . S
C338 O348 1.270 . S
C338 O349 1.248 . S
C339 O350 1.267 . S
C339 O351 1.278 1_556 S
O340 Pr320 2.562 . S
O340 C322 1.254 . S
O341 Pr320 2.490 . S
O341 C322 1.225 . S
O342 Pr320 2.695 . S
O342 Pr321 2.436 1_556 S
O342 C329 1.270 . S
O343 Pr320 2.512 . S
O343 C329 1.248 . S
O344 Pr321 2.438 1_556 S
O344 C330 1.267 . S
O345 Pr320 2.437 . S
O345 C330 1.278 . S
O346 Pr321 2.562 . S
O346 C331 1.254 . S
O347 Pr321 2.490 . S
O347 C331 1.225 . S
O348 Pr320 2.436 . S
O348 Pr321 2.695 1_556 S
O348 C338 1.270 . S
O349 Pr321 2.512 1_556 S
O349 C338 1.248 . S
O350 Pr320 2.438 . S
O350 C339 1.267 . S
O351 Pr321 2.437 . S
O351 C339 1.278 1_554 S
H352 C324 0.929 . S
H353 C325 0.929 . S
H354 C327 0.931 . S
H355 C328 0.930 . S
H356 C333 0.929 . S
H357 C334 0.929 . S
H358 C336 0.931 . S
H359 C337 0.930 . S
Pr360 C362 2.880 . S
Pr360 O380 2.562 . S
Pr360 O381 2.490 . S
Pr360 O382 2.695 . S
Pr360 O383 2.512 . S
Pr360 O385 2.437 . S
Pr360 O388 2.436 . S
Pr360 O390 2.438 . S
Pr361 C371 2.880 . S
Pr361 O382 2.436 . S
Pr361 O384 2.438 . S
Pr361 O386 2.562 . S
Pr361 O387 2.490 . S
Pr361 O388 2.695 . S
Pr361 O389 2.512 . S
Pr361 O391 2.437 . S
C362 Pr360 2.880 . S
C362 C363 1.491 . S
C362 O380 1.254 . S
C362 O381 1.225 . S
C363 C362 1.491 . S
C363 C364 1.392 . S
C363 C368 1.356 . S
C364 C363 1.392 . S
C364 C365 1.368 . S
C364 H392 0.929 . S
C365 C364 1.368 . S
C365 C366 1.386 . S
C365 H393 0.929 . S
C366 C365 1.386 . S
C366 C367 1.373 . S
C367 C366 1.373 . S
C367 C368 1.409 . S
C367 H394 0.931 . S
C368 C363 1.356 . S
C368 C367 1.409 . S
C368 H395 0.930 . S
C369 O382 1.270 . S
C369 O383 1.248 . S
C370 O384 1.267 . S
C370 O385 1.278 . S
C371 Pr361 2.880 . S
C371 C372 1.491 . S
C371 O386 1.254 . S
C371 O387 1.225 . S
C372 C371 1.491 . S
C372 C373 1.392 . S
C372 C377 1.356 . S
C373 C372 1.392 . S
C373 C374 1.368 . S
C373 H396 0.929 . S
C374 C373 1.368 . S
C374 C375 1.386 . S
C374 H397 0.929 . S
C375 C374 1.386 . S
C375 C376 1.373 . S
C376 C375 1.373 . S
C376 C377 1.409 . S
C376 H398 0.931 . S
C377 C372 1.356 . S
C377 C376 1.409 . S
C377 H399 0.930 . S
C378 O388 1.270 . S
C378 O389 1.248 . S
C379 O390 1.267 . S
C379 O391 1.278 . S
O380 Pr360 2.562 . S
O380 C362 1.254 . S
O381 Pr360 2.490 . S
O381 C362 1.225 . S
O382 Pr360 2.695 . S
O382 Pr361 2.436 . S
O382 C369 1.270 . S
O383 Pr360 2.512 . S
O383 C369 1.248 . S
O384 Pr361 2.438 . S
O384 C370 1.267 . S
O385 Pr360 2.437 . S
O385 C370 1.278 . S
O386 Pr361 2.562 . S
O386 C371 1.254 . S
O387 Pr361 2.490 . S
O387 C371 1.225 . S
O388 Pr360 2.436 . S
O388 Pr361 2.695 . S
O388 C378 1.270 . S
O389 Pr361 2.512 . S
O389 C378 1.248 . S
O390 Pr360 2.438 . S
O390 C379 1.267 . S
O391 Pr361 2.437 . S
O391 C379 1.278 . S
H392 C364 0.929 . S
H393 C365 0.929 . S
H394 C367 0.931 . S
H395 C368 0.930 . S
H396 C373 0.929 . S
H397 C374 0.929 . S
H398 C376 0.931 . S
H399 C377 0.930 . S
Pr400 C402 2.880 . S
Pr400 O420 2.562 . S
Pr400 O421 2.490 . S
Pr400 O422 2.695 . S
Pr400 O423 2.512 . S
Pr400 O425 2.437 . S
Pr400 O428 2.436 . S
Pr400 O430 2.438 . S
Pr401 C411 2.880 . S
Pr401 O422 2.436 . S
Pr401 O424 2.438 . S
Pr401 O426 2.562 . S
Pr401 O427 2.490 . S
Pr401 O428 2.695 . S
Pr401 O429 2.512 . S
Pr401 O431 2.437 . S
C402 Pr400 2.880 . S
C402 C403 1.491 . S
C402 O420 1.254 . S
C402 O421 1.225 . S
C403 C402 1.491 . S
C403 C404 1.392 . S
C403 C408 1.356 . S
C404 C403 1.392 . S
C404 C405 1.368 . S
C404 H432 0.929 . S
C405 C404 1.368 . S
C405 C406 1.386 . S
C405 H433 0.929 . S
C406 C405 1.386 . S
C406 C407 1.373 . S
C407 C406 1.373 . S
C407 C408 1.409 . S
C407 H434 0.931 . S
C408 C403 1.356 . S
C408 C407 1.409 . S
C408 H435 0.930 . S
C409 O422 1.270 . S
C409 O423 1.248 . S
C410 O424 1.267 . S
C410 O425 1.278 . S
C411 Pr401 2.880 . S
C411 C412 1.491 . S
C411 O426 1.254 . S
C411 O427 1.225 . S
C412 C411 1.491 . S
C412 C413 1.392 . S
C412 C417 1.356 . S
C413 C412 1.392 . S
C413 C414 1.368 . S
C413 H436 0.929 . S
C414 C413 1.368 . S
C414 C415 1.386 . S
C414 H437 0.929 . S
C415 C414 1.386 . S
C415 C416 1.373 . S
C416 C415 1.373 . S
C416 C417 1.409 . S
C416 H438 0.931 . S
C417 C412 1.356 . S
C417 C416 1.409 . S
C417 H439 0.930 . S
C418 O428 1.270 . S
C418 O429 1.248 . S
C419 O430 1.267 . S
C419 O431 1.278 . S
O420 Pr400 2.562 . S
O420 C402 1.254 . S
O421 Pr400 2.490 . S
O421 C402 1.225 . S
O422 Pr400 2.695 . S
O422 Pr401 2.436 . S
O422 C409 1.270 . S
O423 Pr400 2.512 . S
O423 C409 1.248 . S
O424 Pr401 2.438 . S
O424 C410 1.267 . S
O425 Pr400 2.437 . S
O425 C410 1.278 . S
O426 Pr401 2.562 . S
O426 C411 1.254 . S
O427 Pr401 2.490 . S
O427 C411 1.225 . S
O428 Pr400 2.436 . S
O428 Pr401 2.695 . S
O428 C418 1.270 . S
O429 Pr401 2.512 . S
O429 C418 1.248 . S
O430 Pr400 2.438 . S
O430 C419 1.267 . S
O431 Pr401 2.437 . S
O431 C419 1.278 . S
H432 C404 0.929 . S
H433 C405 0.929 . S
H434 C407 0.931 . S
H435 C408 0.930 . S
H436 C413 0.929 . S
H437 C414 0.929 . S
H438 C416 0.931 . S
H439 C417 0.930 . S
Pr440 C442 2.880 . S
Pr440 O460 2.562 . S
Pr440 O461 2.490 . S
Pr440 O462 2.695 . S
Pr440 O463 2.512 . S
Pr440 O465 2.437 . S
Pr440 O468 2.436 . S
Pr440 O470 2.438 . S
Pr441 C451 2.880 . S
Pr441 O462 2.436 1_556 S
Pr441 O464 2.438 1_556 S
Pr441 O466 2.562 . S
Pr441 O467 2.490 . S
Pr441 O468 2.695 1_556 S
Pr441 O469 2.512 1_556 S
Pr441 O471 2.437 . S
C442 Pr440 2.880 . S
C442 C443 1.491 . S
C442 O460 1.254 . S
C442 O461 1.225 . S
C443 C442 1.491 . S
C443 C444 1.392 . S
C443 C448 1.356 . S
C444 C443 1.392 . S
C444 C445 1.368 . S
C444 H472 0.929 . S
C445 C444 1.368 . S
C445 C446 1.386 . S
C445 H473 0.929 . S
C446 C445 1.386 . S
C446 C447 1.373 . S
C447 C446 1.373 . S
C447 C448 1.409 . S
C447 H474 0.931 . S
C448 C443 1.356 . S
C448 C447 1.409 . S
C448 H475 0.930 . S
C449 O462 1.270 . S
C449 O463 1.248 . S
C450 O464 1.267 . S
C450 O465 1.278 . S
C451 Pr441 2.880 . S
C451 C452 1.491 . S
C451 O466 1.254 . S
C451 O467 1.225 . S
C452 C451 1.491 . S
C452 C453 1.392 . S
C452 C457 1.356 . S
C453 C452 1.392 . S
C453 C454 1.368 . S
C453 H476 0.929 . S
C454 C453 1.368 . S
C454 C455 1.386 . S
C454 H477 0.929 . S
C455 C454 1.386 . S
C455 C456 1.373 . S
C456 C455 1.373 . S
C456 C457 1.409 . S
C456 H478 0.931 . S
C457 C452 1.356 . S
C457 C456 1.409 . S
C457 H479 0.930 . S
C458 O468 1.270 . S
C458 O469 1.248 . S
C459 O470 1.267 . S
C459 O471 1.278 1_554 S
O460 Pr440 2.562 . S
O460 C442 1.254 . S
O461 Pr440 2.490 . S
O461 C442 1.225 . S
O462 Pr440 2.695 . S
O462 Pr441 2.436 1_554 S
O462 C449 1.270 . S
O463 Pr440 2.512 . S
O463 C449 1.248 . S
O464 Pr441 2.438 1_554 S
O464 C450 1.267 . S
O465 Pr440 2.437 . S
O465 C450 1.278 . S
O466 Pr441 2.562 . S
O466 C451 1.254 . S
O467 Pr441 2.490 . S
O467 C451 1.225 . S
O468 Pr440 2.436 . S
O468 Pr441 2.695 1_554 S
O468 C458 1.270 . S
O469 Pr441 2.512 1_554 S
O469 C458 1.248 . S
O470 Pr440 2.438 . S
O470 C459 1.267 . S
O471 Pr441 2.437 . S
O471 C459 1.278 1_556 S
H472 C444 0.929 . S
H473 C445 0.929 . S
H474 C447 0.931 . S
H475 C448 0.930 . S
H476 C453 0.929 . S
H477 C454 0.929 . S
H478 C456 0.931 . S
H479 C457 0.930 . S
Pr480 C482 2.880 . S
Pr480 O500 2.562 . S
Pr480 O501 2.490 . S
Pr480 O502 2.695 . S
Pr480 O503 2.512 . S
Pr480 O505 2.437 . S
Pr480 O508 2.436 . S
Pr480 O510 2.438 . S
Pr481 C491 2.880 . S
Pr481 O502 2.436 1_556 S
Pr481 O504 2.438 1_556 S
Pr481 O506 2.562 . S
Pr481 O507 2.490 . S
Pr481 O508 2.695 1_556 S
Pr481 O509 2.512 1_556 S
Pr481 O511 2.437 . S
C482 Pr480 2.880 . S
C482 C483 1.491 . S
C482 O500 1.254 . S
C482 O501 1.225 . S
C483 C482 1.491 . S
C483 C484 1.392 . S
C483 C488 1.356 . S
C484 C483 1.392 . S
C484 C485 1.368 . S
C484 H512 0.929 . S
C485 C484 1.368 . S
C485 C486 1.386 . S
C485 H513 0.929 . S
C486 C485 1.386 . S
C486 C487 1.373 . S
C487 C486 1.373 . S
C487 C488 1.409 . S
C487 H514 0.931 . S
C488 C483 1.356 . S
C488 C487 1.409 . S
C488 H515 0.930 . S
C489 O502 1.270 . S
C489 O503 1.248 . S
C490 O504 1.267 . S
C490 O505 1.278 . S
C491 Pr481 2.880 . S
C491 C492 1.491 . S
C491 O506 1.254 . S
C491 O507 1.225 . S
C492 C491 1.491 . S
C492 C493 1.392 . S
C492 C497 1.356 . S
C493 C492 1.392 . S
C493 C494 1.368 . S
C493 H516 0.929 . S
C494 C493 1.368 . S
C494 C495 1.386 . S
C494 H517 0.929 . S
C495 C494 1.386 . S
C495 C496 1.373 . S
C496 C495 1.373 . S
C496 C497 1.409 . S
C496 H518 0.931 . S
C497 C492 1.356 . S
C497 C496 1.409 . S
C497 H519 0.930 . S
C498 O508 1.270 . S
C498 O509 1.248 . S
C499 O510 1.267 . S
C499 O511 1.278 1_554 S
O500 Pr480 2.562 . S
O500 C482 1.254 . S
O501 Pr480 2.490 . S
O501 C482 1.225 . S
O502 Pr480 2.695 . S
O502 Pr481 2.436 1_554 S
O502 C489 1.270 . S
O503 Pr480 2.512 . S
O503 C489 1.248 . S
O504 Pr481 2.438 1_554 S
O504 C490 1.267 . S
O505 Pr480 2.437 . S
O505 C490 1.278 . S
O506 Pr481 2.562 . S
O506 C491 1.254 . S
O507 Pr481 2.490 . S
O507 C491 1.225 . S
O508 Pr480 2.436 . S
O508 Pr481 2.695 1_554 S
O508 C498 1.270 . S
O509 Pr481 2.512 1_554 S
O509 C498 1.248 . S
O510 Pr480 2.438 . S
O510 C499 1.267 . S
O511 Pr481 2.437 . S
O511 C499 1.278 1_556 S
H512 C484 0.929 . S
H513 C485 0.929 . S
H514 C487 0.931 . S
H515 C488 0.930 . S
H516 C493 0.929 . S
H517 C494 0.929 . S
H518 C496 0.931 . S
H519 C497 0.930 . S
Pr520 C522 2.880 . S
Pr520 O540 2.562 . S
Pr520 O541 2.490 . S
Pr520 O542 2.695 . S
Pr520 O543 2.512 . S
Pr520 O545 2.437 . S
Pr520 O548 2.436 . S
Pr520 O550 2.438 . S
Pr521 C531 2.880 . S
Pr521 O542 2.436 1_554 S
Pr521 O544 2.438 1_554 S
Pr521 O546 2.562 . S
Pr521 O547 2.490 . S
Pr521 O548 2.695 1_554 S
Pr521 O549 2.512 1_554 S
Pr521 O551 2.437 . S
C522 Pr520 2.880 . S
C522 C523 1.491 . S
C522 O540 1.254 . S
C522 O541 1.225 . S
C523 C522 1.491 . S
C523 C524 1.392 . S
C523 C528 1.356 . S
C524 C523 1.392 . S
C524 C525 1.368 . S
C524 H552 0.929 . S
C525 C524 1.368 . S
C525 C526 1.386 . S
C525 H553 0.929 . S
C526 C525 1.386 . S
C526 C527 1.373 . S
C527 C526 1.373 . S
C527 C528 1.409 . S
C527 H554 0.931 . S
C528 C523 1.356 . S
C528 C527 1.409 . S
C528 H555 0.930 . S
C529 O542 1.270 . S
C529 O543 1.248 . S
C530 O544 1.267 . S
C530 O545 1.278 . S
C531 Pr521 2.880 . S
C531 C532 1.491 . S
C531 O546 1.254 . S
C531 O547 1.225 . S
C532 C531 1.491 . S
C532 C533 1.392 . S
C532 C537 1.356 . S
C533 C532 1.392 . S
C533 C534 1.368 . S
C533 H556 0.929 . S
C534 C533 1.368 . S
C534 C535 1.386 . S
C534 H557 0.929 . S
C535 C534 1.386 . S
C535 C536 1.373 . S
C536 C535 1.373 . S
C536 C537 1.409 . S
C536 H558 0.931 . S
C537 C532 1.356 . S
C537 C536 1.409 . S
C537 H559 0.930 . S
C538 O548 1.270 . S
C538 O549 1.248 . S
C539 O550 1.267 . S
C539 O551 1.278 1_556 S
O540 Pr520 2.562 . S
O540 C522 1.254 . S
O541 Pr520 2.490 . S
O541 C522 1.225 . S
O542 Pr520 2.695 . S
O542 Pr521 2.436 1_556 S
O542 C529 1.270 . S
O543 Pr520 2.512 . S
O543 C529 1.248 . S
O544 Pr521 2.438 1_556 S
O544 C530 1.267 . S
O545 Pr520 2.437 . S
O545 C530 1.278 . S
O546 Pr521 2.562 . S
O546 C531 1.254 . S
O547 Pr521 2.490 . S
O547 C531 1.225 . S
O548 Pr520 2.436 . S
O548 Pr521 2.695 1_556 S
O548 C538 1.270 . S
O549 Pr521 2.512 1_556 S
O549 C538 1.248 . S
O550 Pr520 2.438 . S
O550 C539 1.267 . S
O551 Pr521 2.437 . S
O551 C539 1.278 1_554 S
H552 C524 0.929 . S
H553 C525 0.929 . S
H554 C527 0.931 . S
H555 C528 0.930 . S
H556 C533 0.929 . S
H557 C534 0.929 . S
H558 C536 0.931 . S
H559 C537 0.930 . S
Pr560 C562 2.880 . S
Pr560 O580 2.562 . S
Pr560 O581 2.490 . S
Pr560 O582 2.695 . S
Pr560 O583 2.512 . S
Pr560 O585 2.437 . S
Pr560 O588 2.436 . S
Pr560 O590 2.438 . S
Pr561 C571 2.880 . S
Pr561 O582 2.436 . S
Pr561 O584 2.438 . S
Pr561 O586 2.562 . S
Pr561 O587 2.490 . S
Pr561 O588 2.695 . S
Pr561 O589 2.512 . S
Pr561 O591 2.437 . S
C562 Pr560 2.880 . S
C562 C563 1.491 . S
C562 O580 1.254 . S
C562 O581 1.225 . S
C563 C562 1.491 . S
C563 C564 1.392 . S
C563 C568 1.356 . S
C564 C563 1.392 . S
C564 C565 1.368 . S
C564 H592 0.929 . S
C565 C564 1.368 . S
C565 C566 1.386 . S
C565 H593 0.929 . S
C566 C565 1.386 . S
C566 C567 1.373 . S
C567 C566 1.373 . S
C567 C568 1.409 . S
C567 H594 0.931 . S
C568 C563 1.356 . S
C568 C567 1.409 . S
C568 H595 0.930 . S
C569 O582 1.270 . S
C569 O583 1.248 . S
C570 O584 1.267 . S
C570 O585 1.278 . S
C571 Pr561 2.880 . S
C571 C572 1.491 . S
C571 O586 1.254 . S
C571 O587 1.225 . S
C572 C571 1.491 . S
C572 C573 1.392 . S
C572 C577 1.356 . S
C573 C572 1.392 . S
C573 C574 1.368 . S
C573 H596 0.929 . S
C574 C573 1.368 . S
C574 C575 1.386 . S
C574 H597 0.929 . S
C575 C574 1.386 . S
C575 C576 1.373 . S
C576 C575 1.373 . S
C576 C577 1.409 . S
C576 H598 0.931 . S
C577 C572 1.356 . S
C577 C576 1.409 . S
C577 H599 0.930 . S
C578 O588 1.270 . S
C578 O589 1.248 . S
C579 O590 1.267 . S
C579 O591 1.278 . S
O580 Pr560 2.562 . S
O580 C562 1.254 . S
O581 Pr560 2.490 . S
O581 C562 1.225 . S
O582 Pr560 2.695 . S
O582 Pr561 2.436 . S
O582 C569 1.270 . S
O583 Pr560 2.512 . S
O583 C569 1.248 . S
O584 Pr561 2.438 . S
O584 C570 1.267 . S
O585 Pr560 2.437 . S
O585 C570 1.278 . S
O586 Pr561 2.562 . S
O586 C571 1.254 . S
O587 Pr561 2.490 . S
O587 C571 1.225 . S
O588 Pr560 2.436 . S
O588 Pr561 2.695 . S
O588 C578 1.270 . S
O589 Pr561 2.512 . S
O589 C578 1.248 . S
O590 Pr560 2.438 . S
O590 C579 1.267 . S
O591 Pr561 2.437 . S
O591 C579 1.278 . S
H592 C564 0.929 . S
H593 C565 0.929 . S
H594 C567 0.931 . S
H595 C568 0.930 . S
H596 C573 0.929 . S
H597 C574 0.929 . S
H598 C576 0.931 . S
H599 C577 0.930 . S
Pr600 C602 2.880 . S
Pr600 O620 2.562 . S
Pr600 O621 2.490 . S
Pr600 O622 2.695 . S
Pr600 O623 2.512 . S
Pr600 O625 2.437 . S
Pr600 O628 2.436 . S
Pr600 O630 2.438 . S
Pr601 C611 2.880 . S
Pr601 O622 2.436 . S
Pr601 O624 2.438 . S
Pr601 O626 2.562 . S
Pr601 O627 2.490 . S
Pr601 O628 2.695 . S
Pr601 O629 2.512 . S
Pr601 O631 2.437 . S
C602 Pr600 2.880 . S
C602 C603 1.491 . S
C602 O620 1.254 . S
C602 O621 1.225 . S
C603 C602 1.491 . S
C603 C604 1.392 . S
C603 C608 1.356 . S
C604 C603 1.392 . S
C604 C605 1.368 . S
C604 H632 0.929 . S
C605 C604 1.368 . S
C605 C606 1.386 . S
C605 H633 0.929 . S
C606 C605 1.386 . S
C606 C607 1.373 . S
C607 C606 1.373 . S
C607 C608 1.409 . S
C607 H634 0.931 . S
C608 C603 1.356 . S
C608 C607 1.409 . S
C608 H635 0.930 . S
C609 O622 1.270 . S
C609 O623 1.248 . S
C610 O624 1.267 . S
C610 O625 1.278 . S
C611 Pr601 2.880 . S
C611 C612 1.491 . S
C611 O626 1.254 . S
C611 O627 1.225 . S
C612 C611 1.491 . S
C612 C613 1.392 . S
C612 C617 1.356 . S
C613 C612 1.392 . S
C613 C614 1.368 . S
C613 H636 0.929 . S
C614 C613 1.368 . S
C614 C615 1.386 . S
C614 H637 0.929 . S
C615 C614 1.386 . S
C615 C616 1.373 . S
C616 C615 1.373 . S
C616 C617 1.409 . S
C616 H638 0.931 . S
C617 C612 1.356 . S
C617 C616 1.409 . S
C617 H639 0.930 . S
C618 O628 1.270 . S
C618 O629 1.248 . S
C619 O630 1.267 . S
C619 O631 1.278 . S
O620 Pr600 2.562 . S
O620 C602 1.254 . S
O621 Pr600 2.490 . S
O621 C602 1.225 . S
O622 Pr600 2.695 . S
O622 Pr601 2.436 . S
O622 C609 1.270 . S
O623 Pr600 2.512 . S
O623 C609 1.248 . S
O624 Pr601 2.438 . S
O624 C610 1.267 . S
O625 Pr600 2.437 . S
O625 C610 1.278 . S
O626 Pr601 2.562 . S
O626 C611 1.254 . S
O627 Pr601 2.490 . S
O627 C611 1.225 . S
O628 Pr600 2.436 . S
O628 Pr601 2.695 . S
O628 C618 1.270 . S
O629 Pr601 2.512 . S
O629 C618 1.248 . S
O630 Pr600 2.438 . S
O630 C619 1.267 . S
O631 Pr601 2.437 . S
O631 C619 1.278 . S
H632 C604 0.929 . S
H633 C605 0.929 . S
H634 C607 0.931 . S
H635 C608 0.930 . S
H636 C613 0.929 . S
H637 C614 0.929 . S
H638 C616 0.931 . S
H639 C617 0.930 . S
H640 C648 0.929 . S
H641 C650 0.930 . S
H642 C652 0.930 . S
H643 C655 0.929 . S
H644 C658 0.930 . S
H645 C660 0.960 . S
H646 C660 0.960 . S
H647 C660 0.960 . S
C648 H640 0.929 . S
C648 C649 1.377 . S
C648 C650 1.384 . S
C649 C648 1.377 . S
C649 C655 1.390 . S
C650 H641 0.930 . S
C650 C648 1.384 . S
C650 C651 1.372 . S
C651 C650 1.372 . S
C651 C652 1.400 . S
C651 C656 1.490 . S
C652 H642 0.930 . S
C652 C651 1.400 . S
C652 C655 1.386 . S
H653 C669 0.930 . S
H654 C670 0.931 . S
C655 H643 0.929 . S
C655 C649 1.390 . S
C655 C652 1.386 . S
C656 C651 1.490 . S
C656 C658 1.395 . S
C656 C659 1.403 . S
H657 C663 0.930 . S
C658 H644 0.930 . S
C658 C656 1.395 . S
C658 C661 1.403 . S
C659 C656 1.403 . S
C659 C660 1.524 . S
C659 C663 1.400 . S
C660 H645 0.960 . S
C660 H646 0.960 . S
C660 H647 0.960 . S
C660 C659 1.524 . S
C661 C658 1.403 . S
C661 C662 1.392 . S
C661 C665 1.495 . S
C662 C661 1.392 . S
C662 C663 1.385 . S
C662 C664 1.478 . S
C663 H657 0.930 . S
C663 C659 1.400 . S
C663 C662 1.385 . S
C664 C662 1.478 . S
C664 C666 1.381 . S
C664 C670 1.383 . S
C665 C661 1.495 . S
C665 H671 0.959 . S
C665 H672 0.961 . S
C665 H673 0.960 . S
C666 C664 1.381 . S
C666 C667 1.394 . S
C666 H674 0.930 . S
C667 C666 1.394 . S
C667 C668 1.383 . S
C667 H675 0.929 . S
C668 C667 1.383 . S
C668 C669 1.377 . S
C669 H653 0.930 . S
C669 C668 1.377 . S
C669 C670 1.379 . S
C670 H654 0.931 . S
C670 C664 1.383 . S
C670 C669 1.379 . S
H671 C665 0.959 . S
H672 C665 0.961 . S
H673 C665 0.960 . S
H674 C666 0.930 . S
H675 C667 0.929 . S
H676 C684 0.929 . S
H677 C686 0.930 . S
H678 C688 0.930 . S
H679 C691 0.929 . S
H680 C694 0.930 . S
H681 C696 0.960 . S
H682 C696 0.960 . S
H683 C696 0.960 1_554 S
C684 H676 0.929 . S
C684 C685 1.377 . S
C684 C686 1.384 . S
C685 C684 1.377 . S
C685 C691 1.390 . S
C686 H677 0.930 . S
C686 C684 1.384 . S
C686 C687 1.372 . S
C687 C686 1.372 . S
C687 C688 1.400 . S
C687 C692 1.490 1_554 S
C688 H678 0.930 . S
C688 C687 1.400 . S
C688 C691 1.386 . S
H689 C705 0.930 . S
H690 C706 0.931 . S
C691 H679 0.929 . S
C691 C685 1.390 . S
C691 C688 1.386 . S
C692 C687 1.490 1_556 S
C692 C694 1.395 . S
C692 C695 1.403 . S
H693 C699 0.930 . S
C694 H680 0.930 . S
C694 C692 1.395 . S
C694 C697 1.403 . S
C695 C692 1.403 . S
C695 C696 1.524 . S
C695 C699 1.400 . S
C696 H681 0.960 . S
C696 H682 0.960 . S
C696 H683 0.960 1_556 S
C696 C695 1.524 . S
C697 C694 1.403 . S
C697 C698 1.392 . S
C697 C701 1.495 . S
C698 C697 1.392 . S
C698 C699 1.385 . S
C698 C700 1.478 . S
C699 H693 0.930 . S
C699 C695 1.400 . S
C699 C698 1.385 . S
C700 C698 1.478 . S
C700 C702 1.381 . S
C700 C706 1.383 . S
C701 C697 1.495 . S
C701 H707 0.959 . S
C701 H708 0.961 . S
C701 H709 0.960 . S
C702 C700 1.381 . S
C702 C703 1.394 . S
C702 H710 0.930 . S
C703 C702 1.394 . S
C703 C704 1.383 . S
C703 H711 0.929 . S
C704 C703 1.383 . S
C704 C705 1.377 . S
C705 H689 0.930 . S
C705 C704 1.377 . S
C705 C706 1.379 . S
C706 H690 0.931 . S
C706 C700 1.383 . S
C706 C705 1.379 . S
H707 C701 0.959 . S
H708 C701 0.961 . S
H709 C701 0.960 . S
H710 C702 0.930 . S
H711 C703 0.929 . S
H712 C720 0.929 . S
H713 C722 0.930 . S
H714 C724 0.930 . S
H715 C727 0.929 . S
H716 C730 0.930 . S
H717 C732 0.960 . S
H718 C732 0.960 . S
H719 C732 0.960 . S
C720 H712 0.929 . S
C720 C721 1.377 . S
C720 C722 1.384 . S
C721 C720 1.377 . S
C721 C727 1.390 . S
C722 H713 0.930 . S
C722 C720 1.384 . S
C722 C723 1.372 . S
C723 C722 1.372 . S
C723 C724 1.400 . S
C723 C728 1.490 . S
C724 H714 0.930 . S
C724 C723 1.400 . S
C724 C727 1.386 . S
H725 C741 0.930 . S
H726 C742 0.931 . S
C727 H715 0.929 . S
C727 C721 1.390 . S
C727 C724 1.386 . S
C728 C723 1.490 . S
C728 C730 1.395 . S
C728 C731 1.403 . S
H729 C735 0.930 1_556 S
C730 H716 0.930 . S
C730 C728 1.395 . S
C730 C733 1.403 . S
C731 C728 1.403 . S
C731 C732 1.524 . S
C731 C735 1.400 . S
C732 H717 0.960 . S
C732 H718 0.960 . S
C732 H719 0.960 . S
C732 C731 1.524 . S
C733 C730 1.403 . S
C733 C734 1.392 . S
C733 C737 1.495 . S
C734 C733 1.392 . S
C734 C735 1.385 . S
C734 C736 1.478 1_554 S
C735 H729 0.930 1_554 S
C735 C731 1.400 . S
C735 C734 1.385 . S
C736 C734 1.478 1_556 S
C736 C738 1.381 . S
C736 C742 1.383 . S
C737 C733 1.495 . S
C737 H743 0.959 . S
C737 H744 0.961 . S
C737 H745 0.960 . S
C738 C736 1.381 . S
C738 C739 1.394 . S
C738 H746 0.930 . S
C739 C738 1.394 . S
C739 C740 1.383 . S
C739 H747 0.929 . S
C740 C739 1.383 . S
C740 C741 1.377 . S
C741 H725 0.930 . S
C741 C740 1.377 . S
C741 C742 1.379 . S
C742 H726 0.931 . S
C742 C736 1.383 . S
C742 C741 1.379 . S
H743 C737 0.959 . S
H744 C737 0.961 . S
H745 C737 0.960 . S
H746 C738 0.930 . S
H747 C739 0.929 . S
H748 C756 0.929 . S
H749 C758 0.930 . S
H750 C760 0.930 . S
H751 C763 0.929 . S
H752 C766 0.930 . S
H753 C768 0.960 . S
H754 C768 0.960 . S
H755 C768 0.960 . S
C756 H748 0.929 . S
C756 C757 1.377 . S
C756 C758 1.384 . S
C757 C756 1.377 . S
C757 C763 1.390 . S
C758 H749 0.930 . S
C758 C756 1.384 . S
C758 C759 1.372 . S
C759 C758 1.372 . S
C759 C760 1.400 . S
C759 C764 1.490 . S
C760 H750 0.930 . S
C760 C759 1.400 . S
C760 C763 1.386 . S
H761 C777 0.930 . S
H762 C778 0.931 . S
C763 H751 0.929 . S
C763 C757 1.390 . S
C763 C760 1.386 . S
C764 C759 1.490 . S
C764 C766 1.395 . S
C764 C767 1.403 . S
H765 C771 0.930 . S
C766 H752 0.930 . S
C766 C764 1.395 . S
C766 C769 1.403 . S
C767 C764 1.403 . S
C767 C768 1.524 . S
C767 C771 1.400 . S
C768 H753 0.960 . S
C768 H754 0.960 . S
C768 H755 0.960 . S
C768 C767 1.524 . S
C769 C766 1.403 . S
C769 C770 1.392 . S
C769 C773 1.495 . S
C770 C769 1.392 . S
C770 C771 1.385 . S
C770 C772 1.478 . S
C771 H765 0.930 . S
C771 C767 1.400 . S
C771 C770 1.385 . S
C772 C770 1.478 . S
C772 C774 1.381 . S
C772 C778 1.383 . S
C773 C769 1.495 . S
C773 H779 0.959 . S
C773 H780 0.961 . S
C773 H781 0.960 . S
C774 C772 1.381 . S
C774 C775 1.394 . S
C774 H782 0.930 . S
C775 C774 1.394 . S
C775 C776 1.383 . S
C775 H783 0.929 . S
C776 C775 1.383 . S
C776 C777 1.377 . S
C777 H761 0.930 . S
C777 C776 1.377 . S
C777 C778 1.379 . S
C778 H762 0.931 . S
C778 C772 1.383 . S
C778 C777 1.379 . S
H779 C773 0.959 . S
H780 C773 0.961 . S
H781 C773 0.960 . S
H782 C774 0.930 . S
H783 C775 0.929 . S
H784 C792 0.929 . S
H785 C794 0.930 . S
H786 C796 0.930 . S
H787 C799 0.929 . S
H788 C802 0.930 . S
H789 C804 0.960 . S
H790 C804 0.960 . S
H791 C804 0.960 . S
C792 H784 0.929 . S
C792 C793 1.377 . S
C792 C794 1.384 . S
C793 C792 1.377 . S
C793 C799 1.390 . S
C794 H785 0.930 . S
C794 C792 1.384 . S
C794 C795 1.372 . S
C795 C794 1.372 . S
C795 C796 1.400 . S
C795 C800 1.490 . S
C796 H786 0.930 . S
C796 C795 1.400 . S
C796 C799 1.386 . S
H797 C813 0.930 . S
H798 C814 0.931 . S
C799 H787 0.929 . S
C799 C793 1.390 . S
C799 C796 1.386 . S
C800 C795 1.490 . S
C800 C802 1.395 . S
C800 C803 1.403 . S
H801 C807 0.930 . S
C802 H788 0.930 . S
C802 C800 1.395 . S
C802 C805 1.403 . S
C803 C800 1.403 . S
C803 C804 1.524 . S
C803 C807 1.400 . S
C804 H789 0.960 . S
C804 H790 0.960 . S
C804 H791 0.960 . S
C804 C803 1.524 . S
C805 C802 1.403 . S
C805 C806 1.392 . S
C805 C809 1.495 . S
C806 C805 1.392 . S
C806 C807 1.385 . S
C806 C808 1.478 . S
C807 H801 0.930 . S
C807 C803 1.400 . S
C807 C806 1.385 . S
C808 C806 1.478 . S
C808 C810 1.381 . S
C808 C814 1.383 . S
C809 C805 1.495 . S
C809 H815 0.959 . S
C809 H816 0.961 . S
C809 H817 0.960 . S
C810 C808 1.381 . S
C810 C811 1.394 . S
C810 H818 0.930 . S
C811 C810 1.394 . S
C811 C812 1.383 . S
C811 H819 0.929 . S
C812 C811 1.383 . S
C812 C813 1.377 . S
C813 H797 0.930 . S
C813 C812 1.377 . S
C813 C814 1.379 . S
C814 H798 0.931 . S
C814 C808 1.383 . S
C814 C813 1.379 . S
H815 C809 0.959 . S
H816 C809 0.961 . S
H817 C809 0.960 . S
H818 C810 0.930 . S
H819 C811 0.929 . S
H820 C828 0.929 . S
H821 C830 0.930 . S
H822 C832 0.930 . S
H823 C835 0.929 . S
H824 C838 0.930 . S
H825 C840 0.960 . S
H826 C840 0.960 . S
H827 C840 0.960 . S
C828 H820 0.929 . S
C828 C829 1.377 . S
C828 C830 1.384 . S
C829 C828 1.377 . S
C829 C835 1.390 . S
C830 H821 0.930 . S
C830 C828 1.384 . S
C830 C831 1.372 . S
C831 C830 1.372 . S
C831 C832 1.400 . S
C831 C836 1.490 . S
C832 H822 0.930 . S
C832 C831 1.400 . S
C832 C835 1.386 . S
H833 C849 0.930 . S
H834 C850 0.931 . S
C835 H823 0.929 . S
C835 C829 1.390 . S
C835 C832 1.386 . S
C836 C831 1.490 . S
C836 C838 1.395 . S
C836 C839 1.403 . S
H837 C843 0.930 . S
C838 H824 0.930 . S
C838 C836 1.395 . S
C838 C841 1.403 . S
C839 C836 1.403 . S
C839 C840 1.524 . S
C839 C843 1.400 . S
C840 H825 0.960 . S
C840 H826 0.960 . S
C840 H827 0.960 . S
C840 C839 1.524 . S
C841 C838 1.403 . S
C841 C842 1.392 . S
C841 C845 1.495 . S
C842 C841 1.392 . S
C842 C843 1.385 . S
C842 C844 1.478 . S
C843 H837 0.930 . S
C843 C839 1.400 . S
C843 C842 1.385 . S
C844 C842 1.478 . S
C844 C846 1.381 . S
C844 C850 1.383 . S
C845 C841 1.495 . S
C845 H851 0.959 . S
C845 H852 0.961 . S
C845 H853 0.960 . S
C846 C844 1.381 . S
C846 C847 1.394 . S
C846 H854 0.930 . S
C847 C846 1.394 . S
C847 C848 1.383 . S
C847 H855 0.929 . S
C848 C847 1.383 . S
C848 C849 1.377 . S
C849 H833 0.930 . S
C849 C848 1.377 . S
C849 C850 1.379 . S
C850 H834 0.931 . S
C850 C844 1.383 . S
C850 C849 1.379 . S
H851 C845 0.959 . S
H852 C845 0.961 . S
H853 C845 0.960 . S
H854 C846 0.930 . S
H855 C847 0.929 . S
H856 C864 0.929 . S
H857 C866 0.930 . S
H858 C868 0.930 . S
H859 C871 0.929 . S
H860 C874 0.930 . S
H861 C876 0.960 . S
H862 C876 0.960 . S
H863 C876 0.960 . S
C864 H856 0.929 . S
C864 C865 1.377 . S
C864 C866 1.384 . S
C865 C864 1.377 . S
C865 C871 1.390 . S
C866 H857 0.930 . S
C866 C864 1.384 . S
C866 C867 1.372 . S
C867 C866 1.372 . S
C867 C868 1.400 . S
C867 C872 1.490 . S
C868 H858 0.930 . S
C868 C867 1.400 . S
C868 C871 1.386 . S
H869 C885 0.930 . S
H870 C886 0.931 . S
C871 H859 0.929 . S
C871 C865 1.390 . S
C871 C868 1.386 . S
C872 C867 1.490 . S
C872 C874 1.395 . S
C872 C875 1.403 . S
H873 C879 0.930 . S
C874 H860 0.930 . S
C874 C872 1.395 . S
C874 C877 1.403 . S
C875 C872 1.403 . S
C875 C876 1.524 . S
C875 C879 1.400 . S
C876 H861 0.960 . S
C876 H862 0.960 . S
C876 H863 0.960 . S
C876 C875 1.524 . S
C877 C874 1.403 . S
C877 C878 1.392 . S
C877 C881 1.495 1_556 S
C878 C877 1.392 . S
C878 C879 1.385 . S
C878 C880 1.478 1_556 S
C879 H873 0.930 . S
C879 C875 1.400 . S
C879 C878 1.385 . S
C880 C878 1.478 1_554 S
C880 C882 1.381 . S
C880 C886 1.383 . S
C881 C877 1.495 1_554 S
C881 H887 0.959 1_554 S
C881 H888 0.961 . S
C881 H889 0.960 . S
C882 C880 1.381 . S
C882 C883 1.394 . S
C882 H890 0.930 . S
C883 C882 1.394 . S
C883 C884 1.383 . S
C883 H891 0.929 . S
C884 C883 1.383 . S
C884 C885 1.377 . S
C885 H869 0.930 . S
C885 C884 1.377 . S
C885 C886 1.379 . S
C886 H870 0.931 . S
C886 C880 1.383 . S
C886 C885 1.379 . S
H887 C881 0.959 1_556 S
H888 C881 0.961 . S
H889 C881 0.960 . S
H890 C882 0.930 . S
H891 C883 0.929 . S
H892 C900 0.929 . S
H893 C902 0.930 . S
H894 C904 0.930 . S
H895 C907 0.929 . S
H896 C910 0.930 . S
H897 C912 0.960 . S
H898 C912 0.960 . S
H899 C912 0.960 1_556 S
C900 H892 0.929 . S
C900 C901 1.377 . S
C900 C902 1.384 . S
C901 C900 1.377 . S
C901 C907 1.390 . S
C902 H893 0.930 . S
C902 C900 1.384 . S
C902 C903 1.372 . S
C903 C902 1.372 . S
C903 C904 1.400 . S
C903 C908 1.490 1_556 S
C904 H894 0.930 . S
C904 C903 1.400 . S
C904 C907 1.386 . S
H905 C921 0.930 . S
H906 C922 0.931 . S
C907 H895 0.929 . S
C907 C901 1.390 . S
C907 C904 1.386 . S
C908 C903 1.490 1_554 S
C908 C910 1.395 . S
C908 C911 1.403 . S
H909 C915 0.930 . S
C910 H896 0.930 . S
C910 C908 1.395 . S
C910 C913 1.403 . S
C911 C908 1.403 . S
C911 C912 1.524 . S
C911 C915 1.400 . S
C912 H897 0.960 . S
C912 H898 0.960 . S
C912 H899 0.960 1_554 S
C912 C911 1.524 . S
C913 C910 1.403 . S
C913 C914 1.392 . S
C913 C917 1.495 . S
C914 C913 1.392 . S
C914 C915 1.385 . S
C914 C916 1.478 . S
C915 H909 0.930 . S
C915 C911 1.400 . S
C915 C914 1.385 . S
C916 C914 1.478 . S
C916 C918 1.381 . S
C916 C922 1.383 . S
C917 C913 1.495 . S
C917 H923 0.959 . S
C917 H924 0.961 . S
C917 H925 0.960 . S
C918 C916 1.381 . S
C918 C919 1.394 . S
C918 H926 0.930 . S
C919 C918 1.394 . S
C919 C920 1.383 . S
C919 H927 0.929 . S
C920 C919 1.383 . S
C920 C921 1.377 . S
C921 H905 0.930 . S
C921 C920 1.377 . S
C921 C922 1.379 . S
C922 H906 0.931 . S
C922 C916 1.383 . S
C922 C921 1.379 . S
H923 C917 0.959 . S
H924 C917 0.961 . S
H925 C917 0.960 . S
H926 C918 0.930 . S
H927 C919 0.929 . S
H928 C936 0.929 . S
H929 C938 0.930 . S
H930 C940 0.930 . S
H931 C943 0.929 . S
H932 C946 0.930 . S
H933 C948 0.960 . S
H934 C948 0.960 . S
H935 C948 0.960 . S
C936 H928 0.929 . S
C936 C937 1.377 . S
C936 C938 1.384 . S
C937 C936 1.377 . S
C937 C943 1.390 . S
C938 H929 0.930 . S
C938 C936 1.384 . S
C938 C939 1.372 . S
C939 C938 1.372 . S
C939 C940 1.400 . S
C939 C944 1.490 . S
C940 H930 0.930 . S
C940 C939 1.400 . S
C940 C943 1.386 . S
H941 C957 0.930 . S
H942 C958 0.931 . S
C943 H931 0.929 . S
C943 C937 1.390 . S
C943 C940 1.386 . S
C944 C939 1.490 . S
C944 C946 1.395 . S
C944 C947 1.403 . S
H945 C951 0.930 . S
C946 H932 0.930 . S
C946 C944 1.395 . S
C946 C949 1.403 . S
C947 C944 1.403 . S
C947 C948 1.524 . S
C947 C951 1.400 . S
C948 H933 0.960 . S
C948 H934 0.960 . S
C948 H935 0.960 . S
C948 C947 1.524 . S
C949 C946 1.403 . S
C949 C950 1.392 . S
C949 C953 1.495 . S
C950 C949 1.392 . S
C950 C951 1.385 . S
C950 C952 1.478 . S
C951 H945 0.930 . S
C951 C947 1.400 . S
C951 C950 1.385 . S
C952 C950 1.478 . S
C952 C954 1.381 . S
C952 C958 1.383 . S
C953 C949 1.495 . S
C953 H959 0.959 . S
C953 H960 0.961 . S
C953 H961 0.960 . S
C954 C952 1.381 . S
C954 C955 1.394 . S
C954 H962 0.930 . S
C955 C954 1.394 . S
C955 C956 1.383 . S
C955 H963 0.929 . S
C956 C955 1.383 . S
C956 C957 1.377 . S
C957 H941 0.930 . S
C957 C956 1.377 . S
C957 C958 1.379 . S
C958 H942 0.931 . S
C958 C952 1.383 . S
C958 C957 1.379 . S
H959 C953 0.959 . S
H960 C953 0.961 . S
H961 C953 0.960 . S
H962 C954 0.930 . S
H963 C955 0.929 . S
H964 C972 0.929 . S
H965 C974 0.930 . S
H966 C976 0.930 . S
H967 C979 0.929 . S
H968 C982 0.930 . S
H969 C984 0.960 . S
H970 C984 0.960 . S
H971 C984 0.960 . S
C972 H964 0.929 . S
C972 C973 1.377 . S
C972 C974 1.384 . S
C973 C972 1.377 . S
C973 C979 1.390 . S
C974 H965 0.930 . S
C974 C972 1.384 . S
C974 C975 1.372 . S
C975 C974 1.372 . S
C975 C976 1.400 . S
C975 C980 1.490 . S
C976 H966 0.930 . S
C976 C975 1.400 . S
C976 C979 1.386 . S
H977 C993 0.930 . S
H978 C994 0.931 . S
C979 H967 0.929 . S
C979 C973 1.390 . S
C979 C976 1.386 . S
C980 C975 1.490 . S
C980 C982 1.395 . S
C980 C983 1.403 . S
H981 C987 0.930 . S
C982 H968 0.930 . S
C982 C980 1.395 . S
C982 C985 1.403 . S
C983 C980 1.403 . S
C983 C984 1.524 . S
C983 C987 1.400 . S
C984 H969 0.960 . S
C984 H970 0.960 . S
C984 H971 0.960 . S
C984 C983 1.524 . S
C985 C982 1.403 . S
C985 C986 1.392 . S
C985 C989 1.495 1_554 S
C986 C985 1.392 . S
C986 C987 1.385 . S
C986 C988 1.478 1_554 S
C987 H981 0.930 . S
C987 C983 1.400 . S
C987 C986 1.385 . S
C988 C986 1.478 1_556 S
C988 C990 1.381 . S
C988 C994 1.383 . S
C989 C985 1.495 1_556 S
C989 H995 0.959 1_556 S
C989 H996 0.961 . S
C989 H997 0.960 . S
C990 C988 1.381 . S
C990 C991 1.394 . S
C990 H998 0.930 . S
C991 C990 1.394 . S
C991 C992 1.383 . S
C991 H999 0.929 . S
C992 C991 1.383 . S
C992 C993 1.377 . S
C993 H977 0.930 . S
C993 C992 1.377 . S
C993 C994 1.379 . S
C994 H978 0.931 . S
C994 C988 1.383 . S
C994 C993 1.379 . S
H995 C989 0.959 1_554 S
H996 C989 0.961 . S
H997 C989 0.960 . S
H998 C990 0.930 . S
H999 C991 0.929 . S
H1000 C1008 0.929 . S
H1001 C1010 0.930 . S
H1002 C1012 0.930 . S
H1003 C1015 0.929 . S
H1004 C1018 0.930 1_554 S
H1005 C1020 0.960 . S
H1006 C1020 0.960 . S
H1007 C1020 0.960 . S
C1008 H1000 0.929 . S
C1008 C1009 1.377 . S
C1008 C1010 1.384 . S
C1009 C1008 1.377 . S
C1009 C1015 1.390 . S
C1010 H1001 0.930 . S
C1010 C1008 1.384 . S
C1010 C1011 1.372 . S
C1011 C1010 1.372 . S
C1011 C1012 1.400 . S
C1011 C1016 1.490 1_554 S
C1012 H1002 0.930 . S
C1012 C1011 1.400 . S
C1012 C1015 1.386 . S
H1013 C1029 0.930 . S
H1014 C1030 0.931 . S
C1015 H1003 0.929 . S
C1015 C1009 1.390 . S
C1015 C1012 1.386 . S
C1016 C1011 1.490 1_556 S
C1016 C1018 1.395 . S
C1016 C1019 1.403 . S
H1017 C1023 0.930 . S
C1018 H1004 0.930 1_556 S
C1018 C1016 1.395 . S
C1018 C1021 1.403 . S
C1019 C1016 1.403 . S
C1019 C1020 1.524 . S
C1019 C1023 1.400 . S
C1020 H1005 0.960 . S
C1020 H1006 0.960 . S
C1020 H1007 0.960 . S
C1020 C1019 1.524 . S
C1021 C1018 1.403 . S
C1021 C1022 1.392 . S
C1021 C1025 1.495 . S
C1022 C1021 1.392 . S
C1022 C1023 1.385 . S
C1022 C1024 1.478 . S
C1023 H1017 0.930 . S
C1023 C1019 1.400 . S
C1023 C1022 1.385 . S
C1024 C1022 1.478 . S
C1024 C1026 1.381 . S
C1024 C1030 1.383 . S
C1025 C1021 1.495 . S
C1025 H1031 0.959 . S
C1025 H1032 0.961 . S
C1025 H1033 0.960 . S
C1026 C1024 1.381 . S
C1026 C1027 1.394 . S
C1026 H1034 0.930 . S
C1027 C1026 1.394 . S
C1027 C1028 1.383 . S
C1027 H1035 0.929 . S
C1028 C1027 1.383 . S
C1028 C1029 1.377 . S
C1029 H1013 0.930 . S
C1029 C1028 1.377 . S
C1029 C1030 1.379 . S
C1030 H1014 0.931 . S
C1030 C1024 1.383 . S
C1030 C1029 1.379 . S
H1031 C1025 0.959 . S
H1032 C1025 0.961 . S
H1033 C1025 0.960 . S
H1034 C1026 0.930 . S
H1035 C1027 0.929 . S
H1036 C1044 0.929 . S
H1037 C1046 0.930 . S
H1038 C1048 0.930 . S
H1039 C1051 0.929 . S
H1040 C1054 0.930 . S
H1041 C1056 0.960 . S
H1042 C1056 0.960 . S
H1043 C1056 0.960 . S
C1044 H1036 0.929 . S
C1044 C1045 1.377 . S
C1044 C1046 1.384 . S
C1045 C1044 1.377 . S
C1045 C1051 1.390 . S
C1046 H1037 0.930 . S
C1046 C1044 1.384 . S
C1046 C1047 1.372 . S
C1047 C1046 1.372 . S
C1047 C1048 1.400 . S
C1047 C1052 1.490 . S
C1048 H1038 0.930 . S
C1048 C1047 1.400 . S
C1048 C1051 1.386 . S
H1049 C1065 0.930 . S
H1050 C1066 0.931 . S
C1051 H1039 0.929 . S
C1051 C1045 1.390 . S
C1051 C1048 1.386 . S
C1052 C1047 1.490 . S
C1052 C1054 1.395 . S
C1052 C1055 1.403 . S
H1053 C1059 0.930 . S
C1054 H1040 0.930 . S
C1054 C1052 1.395 . S
C1054 C1057 1.403 . S
C1055 C1052 1.403 . S
C1055 C1056 1.524 . S
C1055 C1059 1.400 . S
C1056 H1041 0.960 . S
C1056 H1042 0.960 . S
C1056 H1043 0.960 . S
C1056 C1055 1.524 . S
C1057 C1054 1.403 . S
C1057 C1058 1.392 . S
C1057 C1061 1.495 . S
C1058 C1057 1.392 . S
C1058 C1059 1.385 . S
C1058 C1060 1.478 . S
C1059 H1053 0.930 . S
C1059 C1055 1.400 . S
C1059 C1058 1.385 . S
C1060 C1058 1.478 . S
C1060 C1062 1.381 . S
C1060 C1066 1.383 . S
C1061 C1057 1.495 . S
C1061 H1067 0.959 . S
C1061 H1068 0.961 . S
C1061 H1069 0.960 . S
C1062 C1060 1.381 . S
C1062 C1063 1.394 . S
C1062 H1070 0.930 . S
C1063 C1062 1.394 . S
C1063 C1064 1.383 . S
C1063 H1071 0.929 . S
C1064 C1063 1.383 . S
C1064 C1065 1.377 . S
C1065 H1049 0.930 . S
C1065 C1064 1.377 . S
C1065 C1066 1.379 . S
C1066 H1050 0.931 . S
C1066 C1060 1.383 . S
C1066 C1065 1.379 . S
H1067 C1061 0.959 . S
H1068 C1061 0.961 . S
H1069 C1061 0.960 . S
H1070 C1062 0.930 . S
H1071 C1063 0.929 . S
H1072 C1080 0.929 . S
H1073 C1082 0.930 . S
H1074 C1084 0.930 . S
H1075 C1087 0.929 . S
H1076 C1090 0.930 . S
H1077 C1092 0.960 . S
H1078 C1092 0.960 . S
H1079 C1092 0.960 . S
C1080 H1072 0.929 . S
C1080 C1081 1.377 . S
C1080 C1082 1.384 . S
C1081 C1080 1.377 . S
C1081 C1087 1.390 . S
C1082 H1073 0.930 . S
C1082 C1080 1.384 . S
C1082 C1083 1.372 . S
C1083 C1082 1.372 . S
C1083 C1084 1.400 . S
C1083 C1088 1.490 . S
C1084 H1074 0.930 . S
C1084 C1083 1.400 . S
C1084 C1087 1.386 . S
H1085 C1101 0.930 . S
H1086 C1102 0.931 . S
C1087 H1075 0.929 . S
C1087 C1081 1.390 . S
C1087 C1084 1.386 . S
C1088 C1083 1.490 . S
C1088 C1090 1.395 . S
C1088 C1091 1.403 . S
H1089 C1095 0.930 . S
C1090 H1076 0.930 . S
C1090 C1088 1.395 . S
C1090 C1093 1.403 . S
C1091 C1088 1.403 . S
C1091 C1092 1.524 . S
C1091 C1095 1.400 . S
C1092 H1077 0.960 . S
C1092 H1078 0.960 . S
C1092 H1079 0.960 . S
C1092 C1091 1.524 . S
C1093 C1090 1.403 . S
C1093 C1094 1.392 . S
C1093 C1097 1.495 . S
C1094 C1093 1.392 . S
C1094 C1095 1.385 . S
C1094 C1096 1.478 . S
C1095 H1089 0.930 . S
C1095 C1091 1.400 . S
C1095 C1094 1.385 . S
C1096 C1094 1.478 . S
C1096 C1098 1.381 . S
C1096 C1102 1.383 . S
C1097 C1093 1.495 . S
C1097 H1103 0.959 . S
C1097 H1104 0.961 . S
C1097 H1105 0.960 . S
C1098 C1096 1.381 . S
C1098 C1099 1.394 . S
C1098 H1106 0.930 . S
C1099 C1098 1.394 . S
C1099 C1100 1.383 . S
C1099 H1107 0.929 . S
C1100 C1099 1.383 . S
C1100 C1101 1.377 . S
C1101 H1085 0.930 . S
C1101 C1100 1.377 . S
C1101 C1102 1.379 . S
C1102 H1086 0.931 . S
C1102 C1096 1.383 . S
C1102 C1101 1.379 . S
H1103 C1097 0.959 . S
H1104 C1097 0.961 . S
H1105 C1097 0.960 . S
H1106 C1098 0.930 . S
H1107 C1099 0.929 . S
H1108 C1116 0.929 . S
H1109 C1118 0.930 . S
H1110 C1120 0.930 . S
H1111 C1123 0.929 . S
H1112 C1126 0.930 . S
H1113 C1128 0.960 . S
H1114 C1128 0.960 . S
H1115 C1128 0.960 . S
C1116 H1108 0.929 . S
C1116 C1117 1.377 . S
C1116 C1118 1.384 . S
C1117 C1116 1.377 . S
C1117 C1123 1.390 . S
C1118 H1109 0.930 . S
C1118 C1116 1.384 . S
C1118 C1119 1.372 . S
C1119 C1118 1.372 . S
C1119 C1120 1.400 . S
C1119 C1124 1.490 . S
C1120 H1110 0.930 . S
C1120 C1119 1.400 . S
C1120 C1123 1.386 . S
H1121 C1137 0.930 . S
H1122 C1138 0.931 . S
C1123 H1111 0.929 . S
C1123 C1117 1.390 . S
C1123 C1120 1.386 . S
C1124 C1119 1.490 . S
C1124 C1126 1.395 . S
C1124 C1127 1.403 . S
H1125 C1131 0.930 . S
C1126 H1112 0.930 . S
C1126 C1124 1.395 . S
C1126 C1129 1.403 . S
C1127 C1124 1.403 . S
C1127 C1128 1.524 . S
C1127 C1131 1.400 . S
C1128 H1113 0.960 . S
C1128 H1114 0.960 . S
C1128 H1115 0.960 . S
C1128 C1127 1.524 . S
C1129 C1126 1.403 . S
C1129 C1130 1.392 . S
C1129 C1133 1.495 . S
C1130 C1129 1.392 . S
C1130 C1131 1.385 . S
C1130 C1132 1.478 . S
C1131 H1125 0.930 . S
C1131 C1127 1.400 . S
C1131 C1130 1.385 . S
C1132 C1130 1.478 . S
C1132 C1134 1.381 . S
C1132 C1138 1.383 . S
C1133 C1129 1.495 . S
C1133 H1139 0.959 . S
C1133 H1140 0.961 . S
C1133 H1141 0.960 . S
C1134 C1132 1.381 . S
C1134 C1135 1.394 . S
C1134 H1142 0.930 . S
C1135 C1134 1.394 . S
C1135 C1136 1.383 . S
C1135 H1143 0.929 . S
C1136 C1135 1.383 . S
C1136 C1137 1.377 . S
C1137 H1121 0.930 . S
C1137 C1136 1.377 . S
C1137 C1138 1.379 . S
C1138 H1122 0.931 . S
C1138 C1132 1.383 . S
C1138 C1137 1.379 . S
H1139 C1133 0.959 . S
H1140 C1133 0.961 . S
H1141 C1133 0.960 . S
H1142 C1134 0.930 . S
H1143 C1135 0.929 . S
H1144 C1152 0.929 . S
H1145 C1154 0.930 . S
H1146 C1156 0.930 . S
H1147 C1159 0.929 . S
H1148 C1162 0.930 . S
H1149 C1164 0.960 . S
H1150 C1164 0.960 . S
H1151 C1164 0.960 . S
C1152 H1144 0.929 . S
C1152 C1153 1.377 . S
C1152 C1154 1.384 . S
C1153 C1152 1.377 . S
C1153 C1159 1.390 . S
C1154 H1145 0.930 . S
C1154 C1152 1.384 . S
C1154 C1155 1.372 . S
C1155 C1154 1.372 . S
C1155 C1156 1.400 . S
C1155 C1160 1.490 . S
C1156 H1146 0.930 . S
C1156 C1155 1.400 . S
C1156 C1159 1.386 . S
H1157 C1173 0.930 . S
H1158 C1174 0.931 . S
C1159 H1147 0.929 . S
C1159 C1153 1.390 . S
C1159 C1156 1.386 . S
C1160 C1155 1.490 . S
C1160 C1162 1.395 . S
C1160 C1163 1.403 . S
H1161 C1167 0.930 1_556 S
C1162 H1148 0.930 . S
C1162 C1160 1.395 . S
C1162 C1165 1.403 . S
C1163 C1160 1.403 . S
C1163 C1164 1.524 . S
C1163 C1167 1.400 . S
C1164 H1149 0.960 . S
C1164 H1150 0.960 . S
C1164 H1151 0.960 . S
C1164 C1163 1.524 . S
C1165 C1162 1.403 . S
C1165 C1166 1.392 . S
C1165 C1169 1.495 . S
C1166 C1165 1.392 . S
C1166 C1167 1.385 . S
C1166 C1168 1.478 1_554 S
C1167 H1161 0.930 1_554 S
C1167 C1163 1.400 . S
C1167 C1166 1.385 . S
C1168 C1166 1.478 1_556 S
C1168 C1170 1.381 . S
C1168 C1174 1.383 . S
C1169 C1165 1.495 . S
C1169 H1175 0.959 . S
C1169 H1176 0.961 . S
C1169 H1177 0.960 . S
C1170 C1168 1.381 . S
C1170 C1171 1.394 . S
C1170 H1178 0.930 . S
C1171 C1170 1.394 . S
C1171 C1172 1.383 . S
C1171 H1179 0.929 . S
C1172 C1171 1.383 . S
C1172 C1173 1.377 . S
C1173 H1157 0.930 . S
C1173 C1172 1.377 . S
C1173 C1174 1.379 . S
C1174 H1158 0.931 . S
C1174 C1168 1.383 . S
C1174 C1173 1.379 . S
H1175 C1169 0.959 . S
H1176 C1169 0.961 . S
H1177 C1169 0.960 . S
H1178 C1170 0.930 . S
H1179 C1171 0.929 . S
H1180 C1188 0.929 . S
H1181 C1190 0.930 . S
H1182 C1192 0.930 . S
H1183 C1195 0.929 . S
H1184 C1198 0.930 . S
H1185 C1200 0.960 . S
H1186 C1200 0.960 1_554 S
H1187 C1200 0.960 . S
C1188 H1180 0.929 . S
C1188 C1189 1.377 . S
C1188 C1190 1.384 . S
C1189 C1188 1.377 . S
C1189 C1195 1.390 . S
C1190 H1181 0.930 . S
C1190 C1188 1.384 . S
C1190 C1191 1.372 . S
C1191 C1190 1.372 . S
C1191 C1192 1.400 . S
C1191 C1196 1.490 1_554 S
C1192 H1182 0.930 . S
C1192 C1191 1.400 . S
C1192 C1195 1.386 . S
H1193 C1209 0.930 . S
H1194 C1210 0.931 . S
C1195 H1183 0.929 . S
C1195 C1189 1.390 . S
C1195 C1192 1.386 . S
C1196 C1191 1.490 1_556 S
C1196 C1198 1.395 . S
C1196 C1199 1.403 . S
H1197 C1203 0.930 . S
C1198 H1184 0.930 . S
C1198 C1196 1.395 . S
C1198 C1201 1.403 . S
C1199 C1196 1.403 . S
C1199 C1200 1.524 . S
C1199 C1203 1.400 . S
C1200 H1185 0.960 . S
C1200 H1186 0.960 1_556 S
C1200 H1187 0.960 . S
C1200 C1199 1.524 . S
C1201 C1198 1.403 . S
C1201 C1202 1.392 . S
C1201 C1205 1.495 . S
C1202 C1201 1.392 . S
C1202 C1203 1.385 . S
C1202 C1204 1.478 . S
C1203 H1197 0.930 . S
C1203 C1199 1.400 . S
C1203 C1202 1.385 . S
C1204 C1202 1.478 . S
C1204 C1206 1.381 . S
C1204 C1210 1.383 . S
C1205 C1201 1.495 . S
C1205 H1211 0.959 . S
C1205 H1212 0.961 . S
C1205 H1213 0.960 . S
C1206 C1204 1.381 . S
C1206 C1207 1.394 . S
C1206 H1214 0.930 . S
C1207 C1206 1.394 . S
C1207 C1208 1.383 . S
C1207 H1215 0.929 . S
C1208 C1207 1.383 . S
C1208 C1209 1.377 . S
C1209 H1193 0.930 . S
C1209 C1208 1.377 . S
C1209 C1210 1.379 . S
C1210 H1194 0.931 . S
C1210 C1204 1.383 . S
C1210 C1209 1.379 . S
H1211 C1205 0.959 . S
H1212 C1205 0.961 . S
H1213 C1205 0.960 . S
H1214 C1206 0.930 . S
H1215 C1207 0.929 . S
H1216 C1224 0.929 . S
H1217 C1226 0.930 . S
H1218 C1228 0.930 . S
H1219 C1231 0.929 . S
H1220 C1234 0.930 . S
H1221 C1236 0.960 . S
H1222 C1236 0.960 . S
H1223 C1236 0.960 . S
C1224 H1216 0.929 . S
C1224 C1225 1.377 . S
C1224 C1226 1.384 . S
C1225 C1224 1.377 . S
C1225 C1231 1.390 . S
C1226 H1217 0.930 . S
C1226 C1224 1.384 . S
C1226 C1227 1.372 . S
C1227 C1226 1.372 . S
C1227 C1228 1.400 . S
C1227 C1232 1.490 . S
C1228 H1218 0.930 . S
C1228 C1227 1.400 . S
C1228 C1231 1.386 . S
H1229 C1245 0.930 . S
H1230 C1246 0.931 . S
C1231 H1219 0.929 . S
C1231 C1225 1.390 . S
C1231 C1228 1.386 . S
C1232 C1227 1.490 . S
C1232 C1234 1.395 . S
C1232 C1235 1.403 . S
H1233 C1239 0.930 . S
C1234 H1220 0.930 . S
C1234 C1232 1.395 . S
C1234 C1237 1.403 . S
C1235 C1232 1.403 . S
C1235 C1236 1.524 . S
C1235 C1239 1.400 . S
C1236 H1221 0.960 . S
C1236 H1222 0.960 . S
C1236 H1223 0.960 . S
C1236 C1235 1.524 . S
C1237 C1234 1.403 . S
C1237 C1238 1.392 . S
C1237 C1241 1.495 . S
C1238 C1237 1.392 . S
C1238 C1239 1.385 . S
C1238 C1240 1.478 . S
C1239 H1233 0.930 . S
C1239 C1235 1.400 . S
C1239 C1238 1.385 . S
C1240 C1238 1.478 . S
C1240 C1242 1.381 . S
C1240 C1246 1.383 . S
C1241 C1237 1.495 . S
C1241 H1247 0.959 . S
C1241 H1248 0.961 1_554 S
C1241 H1249 0.960 . S
C1242 C1240 1.381 . S
C1242 C1243 1.394 . S
C1242 H1250 0.930 . S
C1243 C1242 1.394 . S
C1243 C1244 1.383 . S
C1243 H1251 0.929 . S
C1244 C1243 1.383 . S
C1244 C1245 1.377 . S
C1245 H1229 0.930 . S
C1245 C1244 1.377 . S
C1245 C1246 1.379 . S
C1246 H1230 0.931 . S
C1246 C1240 1.383 . S
C1246 C1245 1.379 . S
H1247 C1241 0.959 . S
H1248 C1241 0.961 1_556 S
H1249 C1241 0.960 . S
H1250 C1242 0.930 . S
H1251 C1243 0.929 . S
H1252 C1260 0.929 . S
H1253 C1262 0.930 . S
H1254 C1264 0.930 . S
H1255 C1267 0.929 . S
H1256 C1270 0.930 . S
H1257 C1272 0.960 . S
H1258 C1272 0.960 . S
H1259 C1272 0.960 . S
C1260 H1252 0.929 . S
C1260 C1261 1.377 . S
C1260 C1262 1.384 . S
C1261 C1260 1.377 . S
C1261 C1267 1.390 . S
C1262 H1253 0.930 . S
C1262 C1260 1.384 . S
C1262 C1263 1.372 . S
C1263 C1262 1.372 . S
C1263 C1264 1.400 . S
C1263 C1268 1.490 . S
C1264 H1254 0.930 . S
C1264 C1263 1.400 . S
C1264 C1267 1.386 . S
H1265 C1281 0.930 . S
H1266 C1282 0.931 . S
C1267 H1255 0.929 . S
C1267 C1261 1.390 . S
C1267 C1264 1.386 . S
C1268 C1263 1.490 . S
C1268 C1270 1.395 . S
C1268 C1271 1.403 . S
H1269 C1275 0.930 . S
C1270 H1256 0.930 . S
C1270 C1268 1.395 . S
C1270 C1273 1.403 . S
C1271 C1268 1.403 . S
C1271 C1272 1.524 . S
C1271 C1275 1.400 . S
C1272 H1257 0.960 . S
C1272 H1258 0.960 . S
C1272 H1259 0.960 . S
C1272 C1271 1.524 . S
C1273 C1270 1.403 . S
C1273 C1274 1.392 . S
C1273 C1277 1.495 . S
C1274 C1273 1.392 . S
C1274 C1275 1.385 . S
C1274 C1276 1.478 . S
C1275 H1269 0.930 . S
C1275 C1271 1.400 . S
C1275 C1274 1.385 . S
C1276 C1274 1.478 . S
C1276 C1278 1.381 . S
C1276 C1282 1.383 . S
C1277 C1273 1.495 . S
C1277 H1283 0.959 . S
C1277 H1284 0.961 . S
C1277 H1285 0.960 . S
C1278 C1276 1.381 . S
C1278 C1279 1.394 . S
C1278 H1286 0.930 . S
C1279 C1278 1.394 . S
C1279 C1280 1.383 . S
C1279 H1287 0.929 . S
C1280 C1279 1.383 . S
C1280 C1281 1.377 . S
C1281 H1265 0.930 . S
C1281 C1280 1.377 . S
C1281 C1282 1.379 . S
C1282 H1266 0.931 . S
C1282 C1276 1.383 . S
C1282 C1281 1.379 . S
H1283 C1277 0.959 . S
H1284 C1277 0.961 . S
H1285 C1277 0.960 . S
H1286 C1278 0.930 . S
H1287 C1279 0.929 . S
H1288 C1296 0.929 . S
H1289 C1298 0.930 . S
H1290 C1300 0.930 . S
H1291 C1303 0.929 . S
H1292 C1306 0.930 . S
H1293 C1308 0.960 . S
H1294 C1308 0.960 . S
H1295 C1308 0.960 . S
C1296 H1288 0.929 . S
C1296 C1297 1.377 . S
C1296 C1298 1.384 . S
C1297 C1296 1.377 . S
C1297 C1303 1.390 . S
C1298 H1289 0.930 . S
C1298 C1296 1.384 . S
C1298 C1299 1.372 . S
C1299 C1298 1.372 . S
C1299 C1300 1.400 . S
C1299 C1304 1.490 . S
C1300 H1290 0.930 . S
C1300 C1299 1.400 . S
C1300 C1303 1.386 . S
H1301 C1317 0.930 . S
H1302 C1318 0.931 . S
C1303 H1291 0.929 . S
C1303 C1297 1.390 . S
C1303 C1300 1.386 . S
C1304 C1299 1.490 . S
C1304 C1306 1.395 . S
C1304 C1307 1.403 . S
H1305 C1311 0.930 . S
C1306 H1292 0.930 . S
C1306 C1304 1.395 . S
C1306 C1309 1.403 . S
C1307 C1304 1.403 . S
C1307 C1308 1.524 . S
C1307 C1311 1.400 . S
C1308 H1293 0.960 . S
C1308 H1294 0.960 . S
C1308 H1295 0.960 . S
C1308 C1307 1.524 . S
C1309 C1306 1.403 . S
C1309 C1310 1.392 . S
C1309 C1313 1.495 . S
C1310 C1309 1.392 . S
C1310 C1311 1.385 . S
C1310 C1312 1.478 . S
C1311 H1305 0.930 . S
C1311 C1307 1.400 . S
C1311 C1310 1.385 . S
C1312 C1310 1.478 . S
C1312 C1314 1.381 . S
C1312 C1318 1.383 . S
C1313 C1309 1.495 . S
C1313 H1319 0.959 . S
C1313 H1320 0.961 . S
C1313 H1321 0.960 . S
C1314 C1312 1.381 . S
C1314 C1315 1.394 . S
C1314 H1322 0.930 . S
C1315 C1314 1.394 . S
C1315 C1316 1.383 . S
C1315 H1323 0.929 . S
C1316 C1315 1.383 . S
C1316 C1317 1.377 . S
C1317 H1301 0.930 . S
C1317 C1316 1.377 . S
C1317 C1318 1.379 . S
C1318 H1302 0.931 . S
C1318 C1312 1.383 . S
C1318 C1317 1.379 . S
H1319 C1313 0.959 . S
H1320 C1313 0.961 . S
H1321 C1313 0.960 . S
H1322 C1314 0.930 . S
H1323 C1315 0.929 . S
H1324 C1332 0.929 . S
H1325 C1334 0.930 . S
H1326 C1336 0.930 . S
H1327 C1339 0.929 . S
H1328 C1342 0.931 . S
H1329 C1344 0.960 . S
H1330 C1344 0.960 . S
H1331 C1344 0.960 1_556 S
C1332 H1324 0.929 . S
C1332 C1333 1.377 . S
C1332 C1334 1.384 . S
C1333 C1332 1.377 . S
C1333 C1339 1.390 1_554 S
C1334 H1325 0.930 . S
C1334 C1332 1.384 . S
C1334 C1335 1.372 . S
C1335 C1334 1.372 . S
C1335 C1336 1.400 1_554 S
C1335 C1340 1.490 . S
C1336 H1326 0.930 . S
C1336 C1335 1.400 1_556 S
C1336 C1339 1.386 . S
H1337 C1353 0.930 . S
H1338 C1354 0.931 . S
C1339 H1327 0.929 . S
C1339 C1333 1.390 1_556 S
C1339 C1336 1.386 . S
C1340 C1335 1.490 . S
C1340 C1342 1.395 . S
C1340 C1343 1.403 . S
H1341 C1347 0.930 . S
C1342 H1328 0.931 . S
C1342 C1340 1.395 . S
C1342 C1345 1.403 1_655 S
C1343 C1340 1.403 . S
C1343 C1344 1.524 . S
C1343 C1347 1.400 1_655 S
C1344 H1329 0.960 . S
C1344 H1330 0.960 . S
C1344 H1331 0.960 1_554 S
C1344 C1343 1.524 . S
C1345 C1342 1.403 1_455 S
C1345 C1346 1.392 . S
C1345 C1349 1.495 1_554 S
C1346 C1345 1.392 . S
C1346 C1347 1.385 . S
C1346 C1348 1.478 . S
C1347 H1341 0.930 . S
C1347 C1343 1.400 1_455 S
C1347 C1346 1.385 . S
C1348 C1346 1.478 . S
C1348 C1350 1.381 . S
C1348 C1354 1.383 1_554 S
C1349 C1345 1.495 1_556 S
C1349 H1355 0.959 . S
C1349 H1356 0.961 . S
C1349 H1357 0.960 1_556 S
C1350 C1348 1.381 . S
C1350 C1351 1.394 . S
C1350 H1358 0.930 . S
C1351 C1350 1.394 . S
C1351 C1352 1.383 . S
C1351 H1359 0.929 . S
C1352 C1351 1.383 . S
C1352 C1353 1.377 1_554 S
C1353 H1337 0.930 . S
C1353 C1352 1.377 1_556 S
C1353 C1354 1.379 . S
C1354 H1338 0.931 . S
C1354 C1348 1.383 1_556 S
C1354 C1353 1.379 . S
H1355 C1349 0.959 . S
H1356 C1349 0.961 . S
H1357 C1349 0.960 1_554 S
H1358 C1350 0.930 . S
H1359 C1351 0.929 . S
H1360 C1368 0.929 . S
H1361 C1370 0.930 . S
H1362 C1372 0.930 . S
H1363 C1375 0.929 . S
H1364 C1378 0.930 . S
H1365 C1380 0.960 . S
H1366 C1380 0.960 . S
H1367 C1380 0.960 . S
C1368 H1360 0.929 . S
C1368 C1369 1.377 . S
C1368 C1370 1.384 . S
C1369 C1368 1.377 . S
C1369 C1375 1.390 . S
C1370 H1361 0.930 . S
C1370 C1368 1.384 . S
C1370 C1371 1.372 . S
C1371 C1370 1.372 . S
C1371 C1372 1.400 . S
C1371 C1376 1.490 . S
C1372 H1362 0.930 . S
C1372 C1371 1.400 . S
C1372 C1375 1.386 . S
H1373 C1389 0.930 . S
H1374 C1390 0.931 . S
C1375 H1363 0.929 . S
C1375 C1369 1.390 . S
C1375 C1372 1.386 . S
C1376 C1371 1.490 . S
C1376 C1378 1.395 . S
C1376 C1379 1.403 . S
H1377 C1383 0.930 . S
C1378 H1364 0.930 . S
C1378 C1376 1.395 . S
C1378 C1381 1.403 . S
C1379 C1376 1.403 . S
C1379 C1380 1.524 1_556 S
C1379 C1383 1.400 . S
C1380 H1365 0.960 . S
C1380 H1366 0.960 . S
C1380 H1367 0.960 . S
C1380 C1379 1.524 1_554 S
C1381 C1378 1.403 . S
C1381 C1382 1.392 . S
C1381 C1385 1.495 . S
C1382 C1381 1.392 . S
C1382 C1383 1.385 . S
C1382 C1384 1.478 . S
C1383 H1377 0.930 . S
C1383 C1379 1.400 . S
C1383 C1382 1.385 . S
C1384 C1382 1.478 . S
C1384 C1386 1.381 . S
C1384 C1390 1.383 . S
C1385 C1381 1.495 . S
C1385 H1391 0.959 . S
C1385 H1392 0.961 . S
C1385 H1393 0.960 . S
C1386 C1384 1.381 . S
C1386 C1387 1.394 . S
C1386 H1394 0.930 . S
C1387 C1386 1.394 . S
C1387 C1388 1.383 . S
C1387 H1395 0.929 . S
C1388 C1387 1.383 . S
C1388 C1389 1.377 . S
C1389 H1373 0.930 . S
C1389 C1388 1.377 . S
C1389 C1390 1.379 . S
C1390 H1374 0.931 . S
C1390 C1384 1.383 . S
C1390 C1389 1.379 . S
H1391 C1385 0.959 . S
H1392 C1385 0.961 . S
H1393 C1385 0.960 . S
H1394 C1386 0.930 . S
H1395 C1387 0.929 . S
H1396 C1404 0.929 . S
H1397 C1406 0.930 . S
H1398 C1408 0.930 . S
H1399 C1411 0.929 . S
H1400 C1414 0.930 . S
H1401 C1416 0.960 . S
H1402 C1416 0.960 1_556 S
H1403 C1416 0.960 . S
C1404 H1396 0.929 . S
C1404 C1405 1.377 . S
C1404 C1406 1.384 . S
C1405 C1404 1.377 . S
C1405 C1411 1.390 1_556 S
C1406 H1397 0.930 . S
C1406 C1404 1.384 . S
C1406 C1407 1.372 . S
C1407 C1406 1.372 . S
C1407 C1408 1.400 1_556 S
C1407 C1412 1.490 . S
C1408 H1398 0.930 . S
C1408 C1407 1.400 1_554 S
C1408 C1411 1.386 . S
H1409 C1425 0.930 . S
H1410 C1426 0.931 . S
C1411 H1399 0.929 . S
C1411 C1405 1.390 1_554 S
C1411 C1408 1.386 . S
C1412 C1407 1.490 . S
C1412 C1414 1.395 . S
C1412 C1415 1.405 . S
H1413 C1419 0.929 1_554 S
C1414 H1400 0.930 . S
C1414 C1412 1.395 . S
C1414 C1417 1.403 1_455 S
C1415 C1412 1.405 . S
C1415 C1416 1.523 1_556 S
C1415 C1419 1.400 1_455 S
C1416 H1401 0.960 . S
C1416 H1402 0.960 1_554 S
C1416 H1403 0.960 . S
C1416 C1415 1.523 1_554 S
C1417 C1414 1.403 1_655 S
C1417 C1418 1.392 . S
C1417 C1421 1.495 . S
C1418 C1417 1.392 . S
C1418 C1419 1.386 . S
C1418 C1420 1.478 . S
C1419 H1413 0.929 1_556 S
C1419 C1415 1.400 1_655 S
C1419 C1418 1.386 . S
C1420 C1418 1.478 . S
C1420 C1422 1.381 . S
C1420 C1426 1.383 1_556 S
C1421 C1417 1.495 . S
C1421 H1427 0.959 . S
C1421 H1428 0.961 1_556 S
C1421 H1429 0.960 . S
C1422 C1420 1.381 . S
C1422 C1423 1.394 . S
C1422 H1430 0.930 . S
C1423 C1422 1.394 . S
C1423 C1424 1.383 . S
C1423 H1431 0.929 . S
C1424 C1423 1.383 . S
C1424 C1425 1.377 1_556 S
C1425 H1409 0.930 . S
C1425 C1424 1.377 1_554 S
C1425 C1426 1.379 . S
C1426 H1410 0.931 . S
C1426 C1420 1.383 1_554 S
C1426 C1425 1.379 . S
H1427 C1421 0.959 . S
H1428 C1421 0.961 1_554 S
H1429 C1421 0.960 . S
H1430 C1422 0.930 . S
H1431 C1423 0.929 . S
H1432 C1440 0.929 . S
H1433 C1442 0.930 . S
H1434 C1444 0.930 . S
H1435 C1447 0.929 . S
H1436 C1450 0.930 . S
H1437 C1452 0.960 . S
H1438 C1452 0.960 . S
H1439 C1452 0.960 . S
C1440 H1432 0.929 . S
C1440 C1441 1.377 . S
C1440 C1442 1.384 . S
C1441 C1440 1.377 . S
C1441 C1447 1.390 . S
C1442 H1433 0.930 . S
C1442 C1440 1.384 . S
C1442 C1443 1.372 . S
C1443 C1442 1.372 . S
C1443 C1444 1.400 . S
C1443 C1448 1.490 . S
C1444 H1434 0.930 . S
C1444 C1443 1.400 . S
C1444 C1447 1.386 . S
H1445 C1461 0.930 . S
H1446 C1462 0.931 . S
C1447 H1435 0.929 . S
C1447 C1441 1.390 . S
C1447 C1444 1.386 . S
C1448 C1443 1.490 . S
C1448 C1450 1.395 . S
C1448 C1451 1.403 . S
H1449 C1455 0.930 . S
C1450 H1436 0.930 . S
C1450 C1448 1.395 . S
C1450 C1453 1.403 . S
C1451 C1448 1.403 . S
C1451 C1452 1.524 . S
C1451 C1455 1.400 . S
C1452 H1437 0.960 . S
C1452 H1438 0.960 . S
C1452 H1439 0.960 . S
C1452 C1451 1.524 . S
C1453 C1450 1.403 . S
C1453 C1454 1.392 . S
C1453 C1457 1.495 . S
C1454 C1453 1.392 . S
C1454 C1455 1.385 . S
C1454 C1456 1.478 . S
C1455 H1449 0.930 . S
C1455 C1451 1.400 . S
C1455 C1454 1.385 . S
C1456 C1454 1.478 . S
C1456 C1458 1.381 . S
C1456 C1462 1.383 . S
C1457 C1453 1.495 . S
C1457 H1463 0.959 . S
C1457 H1464 0.961 . S
C1457 H1465 0.960 . S
C1458 C1456 1.381 . S
C1458 C1459 1.394 . S
C1458 H1466 0.930 . S
C1459 C1458 1.394 . S
C1459 C1460 1.383 . S
C1459 H1467 0.929 . S
C1460 C1459 1.383 . S
C1460 C1461 1.377 . S
C1461 H1445 0.930 . S
C1461 C1460 1.377 . S
C1461 C1462 1.379 . S
C1462 H1446 0.931 . S
C1462 C1456 1.383 . S
C1462 C1461 1.379 . S
H1463 C1457 0.959 . S
H1464 C1457 0.961 . S
H1465 C1457 0.960 . S
H1466 C1458 0.930 . S
H1467 C1459 0.929 . S
H1468 C1476 0.929 . S
H1469 C1478 0.930 . S
H1470 C1480 0.930 . S
H1471 C1483 0.929 . S
H1472 C1486 0.930 . S
H1473 C1488 0.960 . S
H1474 C1488 0.960 . S
H1475 C1488 0.960 . S
C1476 H1468 0.929 . S
C1476 C1477 1.377 . S
C1476 C1478 1.384 . S
C1477 C1476 1.377 . S
C1477 C1483 1.390 . S
C1478 H1469 0.930 . S
C1478 C1476 1.384 . S
C1478 C1479 1.372 . S
C1479 C1478 1.372 . S
C1479 C1480 1.400 . S
C1479 C1484 1.490 . S
C1480 H1470 0.930 . S
C1480 C1479 1.400 . S
C1480 C1483 1.386 . S
H1481 C1497 0.930 . S
H1482 C1498 0.931 . S
C1483 H1471 0.929 . S
C1483 C1477 1.390 . S
C1483 C1480 1.386 . S
C1484 C1479 1.490 . S
C1484 C1486 1.395 . S
C1484 C1487 1.403 . S
H1485 C1491 0.930 . S
C1486 H1472 0.930 . S
C1486 C1484 1.395 . S
C1486 C1489 1.403 . S
C1487 C1484 1.403 . S
C1487 C1488 1.524 . S
C1487 C1491 1.400 . S
C1488 H1473 0.960 . S
C1488 H1474 0.960 . S
C1488 H1475 0.960 . S
C1488 C1487 1.524 . S
C1489 C1486 1.403 . S
C1489 C1490 1.392 . S
C1489 C1493 1.495 . S
C1490 C1489 1.392 . S
C1490 C1491 1.385 . S
C1490 C1492 1.478 . S
C1491 H1485 0.930 . S
C1491 C1487 1.400 . S
C1491 C1490 1.385 . S
C1492 C1490 1.478 . S
C1492 C1494 1.381 . S
C1492 C1498 1.383 . S
C1493 C1489 1.495 . S
C1493 H1499 0.959 . S
C1493 H1500 0.961 . S
C1493 H1501 0.960 . S
C1494 C1492 1.381 . S
C1494 C1495 1.394 . S
C1494 H1502 0.930 . S
C1495 C1494 1.394 . S
C1495 C1496 1.383 . S
C1495 H1503 0.929 . S
C1496 C1495 1.383 . S
C1496 C1497 1.377 . S
C1497 H1481 0.930 . S
C1497 C1496 1.377 . S
C1497 C1498 1.379 . S
C1498 H1482 0.931 . S
C1498 C1492 1.383 . S
C1498 C1497 1.379 . S
H1499 C1493 0.959 . S
H1500 C1493 0.961 . S
H1501 C1493 0.960 . S
H1502 C1494 0.930 . S
H1503 C1495 0.929 . S
H1504 C1512 0.929 . S
H1505 C1514 0.930 . S
H1506 C1516 0.930 . S
H1507 C1519 0.929 . S
H1508 C1522 0.930 1_554 S
H1509 C1524 0.960 . S
H1510 C1524 0.960 . S
H1511 C1524 0.960 . S
C1512 H1504 0.929 . S
C1512 C1513 1.377 . S
C1512 C1514 1.384 . S
C1513 C1512 1.377 . S
C1513 C1519 1.390 . S
C1514 H1505 0.930 . S
C1514 C1512 1.384 . S
C1514 C1515 1.372 . S
C1515 C1514 1.372 . S
C1515 C1516 1.400 . S
C1515 C1520 1.490 . S
C1516 H1506 0.930 . S
C1516 C1515 1.400 . S
C1516 C1519 1.386 . S
H1517 C1533 0.930 . S
H1518 C1534 0.931 . S
C1519 H1507 0.929 . S
C1519 C1513 1.390 . S
C1519 C1516 1.386 . S
C1520 C1515 1.490 . S
C1520 C1522 1.395 . S
C1520 C1523 1.403 . S
H1521 C1527 0.930 . S
C1522 H1508 0.930 1_556 S
C1522 C1520 1.395 . S
C1522 C1525 1.403 . S
C1523 C1520 1.403 . S
C1523 C1524 1.524 . S
C1523 C1527 1.400 . S
C1524 H1509 0.960 . S
C1524 H1510 0.960 . S
C1524 H1511 0.960 . S
C1524 C1523 1.524 . S
C1525 C1522 1.403 . S
C1525 C1526 1.392 . S
C1525 C1529 1.495 1_556 S
C1526 C1525 1.392 . S
C1526 C1527 1.385 . S
C1526 C1528 1.478 . S
C1527 H1521 0.930 . S
C1527 C1523 1.400 . S
C1527 C1526 1.385 . S
C1528 C1526 1.478 . S
C1528 C1530 1.381 . S
C1528 C1534 1.383 . S
C1529 C1525 1.495 1_554 S
C1529 H1535 0.959 . S
C1529 H1536 0.961 . S
C1529 H1537 0.960 . S
C1530 C1528 1.381 . S
C1530 C1531 1.394 . S
C1530 H1538 0.930 . S
C1531 C1530 1.394 . S
C1531 C1532 1.383 . S
C1531 H1539 0.929 . S
C1532 C1531 1.383 . S
C1532 C1533 1.377 . S
C1533 H1517 0.930 . S
C1533 C1532 1.377 . S
C1533 C1534 1.379 . S
C1534 H1518 0.931 . S
C1534 C1528 1.383 . S
C1534 C1533 1.379 . S
H1535 C1529 0.959 . S
H1536 C1529 0.961 . S
H1537 C1529 0.960 . S
H1538 C1530 0.930 . S
H1539 C1531 0.929 . S
H1540 C1548 0.929 . S
H1541 C1550 0.930 . S
H1542 C1552 0.930 . S
H1543 C1555 0.929 . S
H1544 C1558 0.930 . S
H1545 C1560 0.960 . S
H1546 C1560 0.960 . S
H1547 C1560 0.960 . S
C1548 H1540 0.929 . S
C1548 C1549 1.377 . S
C1548 C1550 1.384 . S
C1549 C1548 1.377 . S
C1549 C1555 1.390 . S
C1550 H1541 0.930 . S
C1550 C1548 1.384 . S
C1550 C1551 1.372 . S
C1551 C1550 1.372 . S
C1551 C1552 1.400 . S
C1551 C1556 1.490 . S
C1552 H1542 0.930 . S
C1552 C1551 1.400 . S
C1552 C1555 1.386 . S
H1553 C1569 0.930 . S
H1554 C1570 0.931 . S
C1555 H1543 0.929 . S
C1555 C1549 1.390 . S
C1555 C1552 1.386 . S
C1556 C1551 1.490 . S
C1556 C1558 1.395 . S
C1556 C1559 1.403 . S
H1557 C1563 0.930 . S
C1558 H1544 0.930 . S
C1558 C1556 1.395 . S
C1558 C1561 1.403 . S
C1559 C1556 1.403 . S
C1559 C1560 1.524 . S
C1559 C1563 1.400 . S
C1560 H1545 0.960 . S
C1560 H1546 0.960 . S
C1560 H1547 0.960 . S
C1560 C1559 1.524 . S
C1561 C1558 1.403 . S
C1561 C1562 1.392 . S
C1561 C1565 1.495 . S
C1562 C1561 1.392 . S
C1562 C1563 1.385 . S
C1562 C1564 1.478 . S
C1563 H1557 0.930 . S
C1563 C1559 1.400 . S
C1563 C1562 1.385 . S
C1564 C1562 1.478 . S
C1564 C1566 1.381 . S
C1564 C1570 1.383 . S
C1565 C1561 1.495 . S
C1565 H1571 0.959 . S
C1565 H1572 0.961 . S
C1565 H1573 0.960 . S
C1566 C1564 1.381 . S
C1566 C1567 1.394 . S
C1566 H1574 0.930 . S
C1567 C1566 1.394 . S
C1567 C1568 1.383 . S
C1567 H1575 0.929 . S
C1568 C1567 1.383 . S
C1568 C1569 1.377 . S
C1569 H1553 0.930 . S
C1569 C1568 1.377 . S
C1569 C1570 1.379 . S
C1570 H1554 0.931 . S
C1570 C1564 1.383 . S
C1570 C1569 1.379 . S
H1571 C1565 0.959 . S
H1572 C1565 0.961 . S
H1573 C1565 0.960 . S
H1574 C1566 0.930 . S
H1575 C1567 0.929 . S
H1576 C1584 0.929 . S
H1577 C1586 0.930 . S
H1578 C1588 0.930 . S
H1579 C1591 0.929 . S
H1580 C1594 0.930 . S
H1581 C1596 0.960 . S
H1582 C1596 0.960 . S
H1583 C1596 0.960 . S
C1584 H1576 0.929 . S
C1584 C1585 1.377 . S
C1584 C1586 1.384 . S
C1585 C1584 1.377 . S
C1585 C1591 1.390 . S
C1586 H1577 0.930 . S
C1586 C1584 1.384 . S
C1586 C1587 1.372 . S
C1587 C1586 1.372 . S
C1587 C1588 1.400 . S
C1587 C1592 1.490 . S
C1588 H1578 0.930 . S
C1588 C1587 1.400 . S
C1588 C1591 1.386 . S
H1589 C1605 0.930 . S
H1590 C1606 0.931 . S
C1591 H1579 0.929 . S
C1591 C1585 1.390 . S
C1591 C1588 1.386 . S
C1592 C1587 1.490 . S
C1592 C1594 1.395 . S
C1592 C1595 1.403 . S
H1593 C1599 0.930 . S
C1594 H1580 0.930 . S
C1594 C1592 1.395 . S
C1594 C1597 1.403 . S
C1595 C1592 1.403 . S
C1595 C1596 1.524 . S
C1595 C1599 1.400 . S
C1596 H1581 0.960 . S
C1596 H1582 0.960 . S
C1596 H1583 0.960 . S
C1596 C1595 1.524 . S
C1597 C1594 1.403 . S
C1597 C1598 1.392 . S
C1597 C1601 1.495 . S
C1598 C1597 1.392 . S
C1598 C1599 1.385 . S
C1598 C1600 1.478 . S
C1599 H1593 0.930 . S
C1599 C1595 1.400 . S
C1599 C1598 1.385 . S
C1600 C1598 1.478 . S
C1600 C1602 1.381 . S
C1600 C1606 1.383 . S
C1601 C1597 1.495 . S
C1601 H1607 0.965 . S
C1601 H1608 0.961 1_554 S
C1601 H1609 0.960 . S
C1602 C1600 1.381 . S
C1602 C1603 1.394 . S
C1602 H1610 0.930 . S
C1603 C1602 1.394 . S
C1603 C1604 1.383 . S
C1603 H1611 0.929 . S
C1604 C1603 1.383 . S
C1604 C1605 1.377 . S
C1605 H1589 0.930 . S
C1605 C1604 1.377 . S
C1605 C1606 1.379 . S
C1606 H1590 0.931 . S
C1606 C1600 1.383 . S
C1606 C1605 1.379 . S
H1607 C1601 0.965 . S
H1608 C1601 0.961 1_556 S
H1609 C1601 0.960 . S
H1610 C1602 0.930 . S
H1611 C1603 0.929 . S
H1612 C1620 0.929 . S
H1613 C1622 0.930 . S
H1614 C1624 0.930 . S
H1615 C1627 0.929 . S
H1616 C1630 0.930 . S
H1617 C1632 0.960 . S
H1618 C1632 0.960 . S
H1619 C1632 0.960 . S
C1620 H1612 0.929 . S
C1620 C1621 1.377 . S
C1620 C1622 1.384 . S
C1621 C1620 1.377 . S
C1621 C1627 1.390 . S
C1622 H1613 0.930 . S
C1622 C1620 1.384 . S
C1622 C1623 1.372 . S
C1623 C1622 1.372 . S
C1623 C1624 1.400 . S
C1623 C1628 1.490 . S
C1624 H1614 0.930 . S
C1624 C1623 1.400 . S
C1624 C1627 1.386 . S
H1625 C1641 0.930 . S
H1626 C1642 0.931 . S
C1627 H1615 0.929 . S
C1627 C1621 1.390 . S
C1627 C1624 1.386 . S
C1628 C1623 1.490 . S
C1628 C1630 1.395 . S
C1628 C1631 1.403 . S
H1629 C1635 0.930 . S
C1630 H1616 0.930 . S
C1630 C1628 1.395 . S
C1630 C1633 1.403 . S
C1631 C1628 1.403 . S
C1631 C1632 1.524 . S
C1631 C1635 1.400 . S
C1632 H1617 0.960 . S
C1632 H1618 0.960 . S
C1632 H1619 0.960 . S
C1632 C1631 1.524 . S
C1633 C1630 1.403 . S
C1633 C1634 1.392 . S
C1633 C1637 1.495 . S
C1634 C1633 1.392 . S
C1634 C1635 1.385 . S
C1634 C1636 1.478 . S
C1635 H1629 0.930 . S
C1635 C1631 1.400 . S
C1635 C1634 1.385 . S
C1636 C1634 1.478 . S
C1636 C1638 1.381 . S
C1636 C1642 1.383 . S
C1637 C1633 1.495 . S
C1637 H1643 0.959 . S
C1637 H1644 0.961 . S
C1637 H1645 0.960 . S
C1638 C1636 1.381 . S
C1638 C1639 1.394 . S
C1638 H1646 0.930 . S
C1639 C1638 1.394 . S
C1639 C1640 1.383 . S
C1639 H1647 0.929 . S
C1640 C1639 1.383 . S
C1640 C1641 1.377 . S
C1641 H1625 0.930 . S
C1641 C1640 1.377 . S
C1641 C1642 1.379 . S
C1642 H1626 0.931 . S
C1642 C1636 1.383 . S
C1642 C1641 1.379 . S
H1643 C1637 0.959 . S
H1644 C1637 0.961 . S
H1645 C1637 0.960 . S
H1646 C1638 0.930 . S
H1647 C1639 0.929 . S
H1648 C1656 0.929 . S
H1649 C1658 0.930 . S
H1650 C1660 0.930 . S
H1651 C1663 0.929 . S
H1652 C1666 0.930 . S
H1653 C1668 0.960 . S
H1654 C1668 0.960 . S
H1655 C1668 0.960 . S
C1656 H1648 0.929 . S
C1656 C1657 1.377 . S
C1656 C1658 1.384 . S
C1657 C1656 1.377 . S
C1657 C1663 1.390 1_554 S
C1658 H1649 0.930 . S
C1658 C1656 1.384 . S
C1658 C1659 1.372 . S
C1659 C1658 1.372 . S
C1659 C1660 1.400 1_554 S
C1659 C1664 1.490 . S
C1660 H1650 0.930 . S
C1660 C1659 1.400 1_556 S
C1660 C1663 1.386 . S
H1661 C1677 0.930 . S
H1662 C1678 0.931 . S
C1663 H1651 0.929 . S
C1663 C1657 1.390 1_556 S
C1663 C1660 1.386 . S
C1664 C1659 1.490 . S
C1664 C1666 1.395 1_554 S
C1664 C1667 1.403 . S
H1665 C1671 0.930 . S
C1666 H1652 0.930 . S
C1666 C1664 1.395 1_556 S
C1666 C1669 1.403 1_655 S
C1667 C1664 1.403 . S
C1667 C1668 1.524 . S
C1667 C1671 1.400 1_655 S
C1668 H1653 0.960 . S
C1668 H1654 0.960 . S
C1668 H1655 0.960 . S
C1668 C1667 1.524 . S
C1669 C1666 1.403 1_455 S
C1669 C1670 1.392 . S
C1669 C1673 1.495 . S
C1670 C1669 1.392 . S
C1670 C1671 1.385 1_556 S
C1670 C1672 1.478 . S
C1671 H1665 0.930 . S
C1671 C1667 1.400 1_455 S
C1671 C1670 1.385 1_554 S
C1672 C1670 1.478 . S
C1672 C1674 1.381 1_556 S
C1672 C1678 1.383 . S
C1673 C1669 1.495 . S
C1673 H1679 0.959 . S
C1673 H1680 0.961 . S
C1673 H1681 0.960 . S
C1674 C1672 1.381 1_554 S
C1674 C1675 1.394 . S
C1674 H1682 0.930 . S
C1675 C1674 1.394 . S
C1675 C1676 1.384 1_554 S
C1675 H1683 0.929 . S
C1676 C1675 1.384 1_556 S
C1676 C1677 1.376 . S
C1677 H1661 0.930 . S
C1677 C1676 1.376 . S
C1677 C1678 1.379 . S
C1678 H1662 0.931 . S
C1678 C1672 1.383 . S
C1678 C1677 1.379 . S
H1679 C1673 0.959 . S
H1680 C1673 0.961 . S
H1681 C1673 0.960 . S
H1682 C1674 0.930 . S
H1683 C1675 0.929 . S
H1684 C1692 0.929 . S
H1685 C1694 0.930 . S
H1686 C1696 0.930 . S
H1687 C1699 0.929 . S
H1688 C1702 0.930 . S
H1689 C1704 0.960 . S
H1690 C1704 0.960 . S
H1691 C1704 0.960 . S
C1692 H1684 0.929 . S
C1692 C1693 1.377 . S
C1692 C1694 1.384 . S
C1693 C1692 1.377 . S
C1693 C1699 1.390 . S
C1694 H1685 0.930 . S
C1694 C1692 1.384 . S
C1694 C1695 1.372 . S
C1695 C1694 1.372 . S
C1695 C1696 1.400 . S
C1695 C1700 1.490 . S
C1696 H1686 0.930 . S
C1696 C1695 1.400 . S
C1696 C1699 1.386 . S
H1697 C1713 0.930 . S
H1698 C1714 0.931 . S
C1699 H1687 0.929 . S
C1699 C1693 1.390 . S
C1699 C1696 1.386 . S
C1700 C1695 1.490 . S
C1700 C1702 1.395 . S
C1700 C1703 1.403 . S
H1701 C1707 0.930 . S
C1702 H1688 0.930 . S
C1702 C1700 1.395 . S
C1702 C1705 1.403 . S
C1703 C1700 1.403 . S
C1703 C1704 1.524 . S
C1703 C1707 1.400 . S
C1704 H1689 0.960 . S
C1704 H1690 0.960 . S
C1704 H1691 0.960 . S
C1704 C1703 1.524 . S
C1705 C1702 1.403 . S
C1705 C1706 1.392 . S
C1705 C1709 1.495 . S
C1706 C1705 1.392 . S
C1706 C1707 1.385 . S
C1706 C1708 1.478 . S
C1707 H1701 0.930 . S
C1707 C1703 1.400 . S
C1707 C1706 1.385 . S
C1708 C1706 1.478 . S
C1708 C1710 1.381 . S
C1708 C1714 1.383 . S
C1709 C1705 1.495 . S
C1709 H1715 0.959 . S
C1709 H1716 0.961 . S
C1709 H1717 0.960 . S
C1710 C1708 1.381 . S
C1710 C1711 1.394 . S
C1710 H1718 0.930 . S
C1711 C1710 1.394 . S
C1711 C1712 1.383 . S
C1711 H1719 0.929 . S
C1712 C1711 1.383 . S
C1712 C1713 1.377 . S
C1713 H1697 0.930 . S
C1713 C1712 1.377 . S
C1713 C1714 1.379 . S
C1714 H1698 0.931 . S
C1714 C1708 1.383 . S
C1714 C1713 1.379 . S
H1715 C1709 0.959 . S
H1716 C1709 0.961 . S
H1717 C1709 0.960 . S
H1718 C1710 0.930 . S
H1719 C1711 0.929 . S
H1720 C1728 0.929 . S
H1721 C1730 0.930 . S
H1722 C1732 0.930 . S
H1723 C1735 0.929 . S
H1724 C1738 0.930 . S
H1725 C1740 0.960 . S
H1726 C1740 0.960 . S
H1727 C1740 0.960 . S
C1728 H1720 0.929 . S
C1728 C1729 1.377 . S
C1728 C1730 1.384 . S
C1729 C1728 1.377 . S
C1729 C1735 1.390 . S
C1730 H1721 0.930 . S
C1730 C1728 1.384 . S
C1730 C1731 1.372 . S
C1731 C1730 1.372 . S
C1731 C1732 1.400 . S
C1731 C1736 1.490 . S
C1732 H1722 0.930 . S
C1732 C1731 1.400 . S
C1732 C1735 1.386 . S
H1733 C1749 0.930 . S
H1734 C1750 0.931 . S
C1735 H1723 0.929 . S
C1735 C1729 1.390 . S
C1735 C1732 1.386 . S
C1736 C1731 1.490 . S
C1736 C1738 1.395 . S
C1736 C1739 1.403 . S
H1737 C1743 0.930 . S
C1738 H1724 0.930 . S
C1738 C1736 1.395 . S
C1738 C1741 1.403 . S
C1739 C1736 1.403 . S
C1739 C1740 1.524 . S
C1739 C1743 1.400 . S
C1740 H1725 0.960 . S
C1740 H1726 0.960 . S
C1740 H1727 0.960 . S
C1740 C1739 1.524 . S
C1741 C1738 1.403 . S
C1741 C1742 1.392 . S
C1741 C1745 1.495 . S
C1742 C1741 1.392 . S
C1742 C1743 1.385 . S
C1742 C1744 1.478 . S
C1743 H1737 0.930 . S
C1743 C1739 1.400 . S
C1743 C1742 1.385 . S
C1744 C1742 1.478 . S
C1744 C1746 1.381 . S
C1744 C1750 1.383 . S
C1745 C1741 1.495 . S
C1745 H1751 0.959 . S
C1745 H1752 0.961 . S
C1745 H1753 0.960 . S
C1746 C1744 1.381 . S
C1746 C1747 1.394 . S
C1746 H1754 0.930 . S
C1747 C1746 1.394 . S
C1747 C1748 1.383 . S
C1747 H1755 0.929 . S
C1748 C1747 1.383 . S
C1748 C1749 1.377 . S
C1749 H1733 0.930 . S
C1749 C1748 1.377 . S
C1749 C1750 1.379 . S
C1750 H1734 0.931 . S
C1750 C1744 1.383 . S
C1750 C1749 1.379 . S
H1751 C1745 0.959 . S
H1752 C1745 0.961 . S
H1753 C1745 0.960 . S
H1754 C1746 0.930 . S
H1755 C1747 0.929 . S
H1756 C1764 0.929 . S
H1757 C1766 0.930 . S
H1758 C1768 0.930 . S
H1759 C1771 0.929 . S
H1760 C1774 0.930 . S
H1761 C1776 0.960 . S
H1762 C1776 0.960 1_554 S
H1763 C1776 0.960 . S
C1764 H1756 0.929 . S
C1764 C1765 1.377 1_554 S
C1764 C1766 1.384 . S
C1765 C1764 1.377 1_556 S
C1765 C1771 1.390 . S
C1766 H1757 0.930 . S
C1766 C1764 1.384 . S
C1766 C1767 1.373 . S
C1767 C1766 1.373 . S
C1767 C1768 1.398 1_554 S
C1767 C1772 1.490 . S
C1768 H1758 0.930 . S
C1768 C1767 1.398 1_556 S
C1768 C1771 1.386 . S
H1769 C1785 0.930 . S
H1770 C1786 0.931 . S
C1771 H1759 0.929 . S
C1771 C1765 1.390 . S
C1771 C1768 1.386 . S
C1772 C1767 1.490 . S
C1772 C1774 1.395 . S
C1772 C1775 1.402 1_554 S
H1773 C1779 0.930 . S
C1774 H1760 0.930 . S
C1774 C1772 1.395 . S
C1774 C1777 1.403 1_455 S
C1775 C1772 1.402 1_556 S
C1775 C1776 1.524 . S
C1775 C1779 1.400 1_455 S
C1776 H1761 0.960 . S
C1776 H1762 0.960 1_556 S
C1776 H1763 0.960 . S
C1776 C1775 1.524 . S
C1777 C1774 1.403 1_655 S
C1777 C1778 1.393 . S
C1777 C1781 1.495 . S
C1778 C1777 1.393 . S
C1778 C1779 1.385 1_554 S
C1778 C1780 1.477 1_554 S
C1779 H1773 0.930 . S
C1779 C1775 1.400 1_655 S
C1779 C1778 1.385 1_556 S
C1780 C1778 1.477 1_556 S
C1780 C1782 1.360 1_556 S
C1780 C1786 1.405 . S
C1781 C1777 1.495 . S
C1781 H1787 0.959 . S
C1781 H1788 0.961 1_554 S
C1781 H1789 0.960 . S
C1782 C1780 1.360 1_554 S
C1782 C1783 1.394 . S
C1782 H1790 0.930 . S
C1783 C1782 1.394 . S
C1783 C1784 1.383 1_554 S
C1783 H1791 0.929 . S
C1784 C1783 1.383 1_556 S
C1784 C1785 1.377 . S
C1785 H1769 0.930 . S
C1785 C1784 1.377 . S
C1785 C1786 1.379 . S
C1786 H1770 0.931 . S
C1786 C1780 1.405 . S
C1786 C1785 1.379 . S
H1787 C1781 0.959 . S
H1788 C1781 0.961 1_556 S
H1789 C1781 0.960 . S
H1790 C1782 0.930 . S
H1791 C1783 0.929 . S
H1792 C1800 0.929 . S
H1793 C1802 0.930 . S
H1794 C1804 0.930 . S
H1795 C1807 0.929 . S
H1796 C1810 0.930 . S
H1797 C1812 0.960 . S
H1798 C1812 0.960 . S
H1799 C1812 0.960 . S
C1800 H1792 0.929 . S
C1800 C1801 1.377 1_556 S
C1800 C1802 1.384 . S
C1801 C1800 1.377 1_554 S
C1801 C1807 1.390 . S
C1802 H1793 0.930 . S
C1802 C1800 1.384 . S
C1802 C1803 1.372 1_556 S
C1803 C1802 1.372 1_554 S
C1803 C1804 1.400 . S
C1803 C1808 1.490 . S
C1804 H1794 0.930 . S
C1804 C1803 1.400 . S
C1804 C1807 1.386 . S
H1805 C1821 0.918 1_554 S
H1806 C1822 0.931 . S
C1807 H1795 0.929 . S
C1807 C1801 1.390 . S
C1807 C1804 1.386 . S
C1808 C1803 1.490 . S
C1808 C1810 1.395 1_554 S
C1808 C1811 1.403 . S
H1809 C1815 0.930 . S
C1810 H1796 0.930 . S
C1810 C1808 1.395 1_556 S
C1810 C1813 1.403 . S
C1811 C1808 1.403 . S
C1811 C1812 1.524 . S
C1811 C1815 1.400 . S
C1812 H1797 0.960 . S
C1812 H1798 0.960 . S
C1812 H1799 0.960 . S
C1812 C1811 1.524 . S
C1813 C1810 1.403 . S
C1813 C1814 1.392 . S
C1813 C1817 1.495 . S
C1814 C1813 1.392 . S
C1814 C1815 1.385 1_556 S
C1814 C1816 1.478 . S
C1815 H1809 0.930 . S
C1815 C1811 1.400 . S
C1815 C1814 1.385 1_554 S
C1816 C1814 1.478 . S
C1816 C1818 1.381 . S
C1816 C1822 1.383 1_556 S
C1817 C1813 1.495 . S
C1817 H1823 0.959 . S
C1817 H1824 0.961 . S
C1817 H1825 0.960 . S
C1818 C1816 1.381 . S
C1818 C1819 1.394 . S
C1818 H1826 0.930 . S
C1819 C1818 1.394 . S
C1819 C1820 1.383 . S
C1819 H1827 0.929 . S
C1820 C1819 1.383 . S
C1820 C1821 1.390 . S
C1821 H1805 0.918 1_556 S
C1821 C1820 1.390 . S
C1821 C1822 1.377 1_556 S
C1822 H1806 0.931 . S
C1822 C1816 1.383 1_554 S
C1822 C1821 1.377 1_554 S
H1823 C1817 0.959 . S
H1824 C1817 0.961 . S
H1825 C1817 0.960 . S
H1826 C1818 0.930 . S
H1827 C1819 0.929 . S
H1828 C1836 0.929 . S
H1829 C1838 0.930 . S
H1830 C1840 0.930 . S
H1831 C1843 0.929 . S
H1832 C1846 0.930 . S
H1833 C1848 0.960 . S
H1834 C1848 0.960 . S
H1835 C1848 0.960 . S
C1836 H1828 0.929 . S
C1836 C1837 1.377 . S
C1836 C1838 1.384 . S
C1837 C1836 1.377 . S
C1837 C1843 1.390 . S
C1838 H1829 0.930 . S
C1838 C1836 1.384 . S
C1838 C1839 1.372 . S
C1839 C1838 1.372 . S
C1839 C1840 1.400 . S
C1839 C1844 1.490 . S
C1840 H1830 0.930 . S
C1840 C1839 1.400 . S
C1840 C1843 1.386 . S
H1841 C1857 0.930 . S
H1842 C1858 0.931 . S
C1843 H1831 0.929 . S
C1843 C1837 1.390 . S
C1843 C1840 1.386 . S
C1844 C1839 1.490 . S
C1844 C1846 1.395 . S
C1844 C1847 1.403 . S
H1845 C1851 0.930 . S
C1846 H1832 0.930 . S
C1846 C1844 1.395 . S
C1846 C1849 1.403 . S
C1847 C1844 1.403 . S
C1847 C1848 1.524 . S
C1847 C1851 1.400 . S
C1848 H1833 0.960 . S
C1848 H1834 0.960 . S
C1848 H1835 0.960 . S
C1848 C1847 1.524 . S
C1849 C1846 1.403 . S
C1849 C1850 1.392 . S
C1849 C1853 1.495 . S
C1850 C1849 1.392 . S
C1850 C1851 1.385 . S
C1850 C1852 1.478 . S
C1851 H1845 0.930 . S
C1851 C1847 1.400 . S
C1851 C1850 1.385 . S
C1852 C1850 1.478 . S
C1852 C1854 1.381 . S
C1852 C1858 1.383 . S
C1853 C1849 1.495 . S
C1853 H1859 0.959 . S
C1853 H1860 0.961 . S
C1853 H1861 0.960 . S
C1854 C1852 1.381 . S
C1854 C1855 1.394 . S
C1854 H1862 0.930 . S
C1855 C1854 1.394 . S
C1855 C1856 1.383 . S
C1855 H1863 0.929 . S
C1856 C1855 1.383 . S
C1856 C1857 1.377 . S
C1857 H1841 0.930 . S
C1857 C1856 1.377 . S
C1857 C1858 1.379 . S
C1858 H1842 0.931 . S
C1858 C1852 1.383 . S
C1858 C1857 1.379 . S
H1859 C1853 0.959 . S
H1860 C1853 0.961 . S
H1861 C1853 0.960 . S
H1862 C1854 0.930 . S
H1863 C1855 0.929 . S
H1864 C1872 0.929 . S
H1865 C1874 0.930 . S
H1866 C1876 0.930 . S
H1867 C1879 0.929 . S
H1868 C1882 0.930 . S
H1869 C1884 0.960 . S
H1870 C1884 0.960 . S
H1871 C1884 0.960 . S
C1872 H1864 0.929 . S
C1872 C1873 1.377 . S
C1872 C1874 1.384 . S
C1873 C1872 1.377 . S
C1873 C1879 1.390 . S
C1874 H1865 0.930 . S
C1874 C1872 1.384 . S
C1874 C1875 1.372 . S
C1875 C1874 1.372 . S
C1875 C1876 1.400 . S
C1875 C1880 1.490 . S
C1876 H1866 0.930 . S
C1876 C1875 1.400 . S
C1876 C1879 1.386 . S
H1877 C1893 0.930 . S
H1878 C1894 0.931 . S
C1879 H1867 0.929 . S
C1879 C1873 1.390 . S
C1879 C1876 1.386 . S
C1880 C1875 1.490 . S
C1880 C1882 1.395 . S
C1880 C1883 1.403 . S
H1881 C1887 0.930 . S
C1882 H1868 0.930 . S
C1882 C1880 1.395 . S
C1882 C1885 1.403 . S
C1883 C1880 1.403 . S
C1883 C1884 1.524 . S
C1883 C1887 1.400 . S
C1884 H1869 0.960 . S
C1884 H1870 0.960 . S
C1884 H1871 0.960 . S
C1884 C1883 1.524 . S
C1885 C1882 1.403 . S
C1885 C1886 1.392 . S
C1885 C1889 1.495 . S
C1886 C1885 1.392 . S
C1886 C1887 1.385 . S
C1886 C1888 1.478 . S
C1887 H1881 0.930 . S
C1887 C1883 1.400 . S
C1887 C1886 1.385 . S
C1888 C1886 1.478 . S
C1888 C1890 1.381 . S
C1888 C1894 1.383 . S
C1889 C1885 1.495 . S
C1889 H1895 0.959 . S
C1889 H1896 0.961 . S
C1889 H1897 0.960 . S
C1890 C1888 1.381 . S
C1890 C1891 1.394 . S
C1890 H1898 0.930 . S
C1891 C1890 1.394 . S
C1891 C1892 1.383 . S
C1891 H1899 0.929 . S
C1892 C1891 1.383 . S
C1892 C1893 1.377 . S
C1893 H1877 0.930 . S
C1893 C1892 1.377 . S
C1893 C1894 1.379 . S
C1894 H1878 0.931 . S
C1894 C1888 1.383 . S
C1894 C1893 1.379 . S
H1895 C1889 0.959 . S
H1896 C1889 0.961 . S
H1897 C1889 0.960 . S
H1898 C1890 0.930 . S
H1899 C1891 0.929 . S
H1900 C1908 0.929 . S
H1901 C1910 0.930 . S
H1902 C1912 0.930 . S
H1903 C1915 0.929 . S
H1904 C1918 0.930 . S
H1905 C1920 0.960 . S
H1906 C1920 0.960 . S
H1907 C1920 0.960 . S
C1908 H1900 0.929 . S
C1908 C1909 1.377 . S
C1908 C1910 1.384 . S
C1909 C1908 1.377 . S
C1909 C1915 1.390 . S
C1910 H1901 0.930 . S
C1910 C1908 1.384 . S
C1910 C1911 1.372 . S
C1911 C1910 1.372 . S
C1911 C1912 1.400 . S
C1911 C1916 1.490 . S
C1912 H1902 0.930 . S
C1912 C1911 1.400 . S
C1912 C1915 1.386 . S
H1913 C1929 0.930 . S
H1914 C1930 0.931 . S
C1915 H1903 0.929 . S
C1915 C1909 1.390 . S
C1915 C1912 1.386 . S
C1916 C1911 1.490 . S
C1916 C1918 1.395 . S
C1916 C1919 1.403 . S
H1917 C1923 0.930 . S
C1918 H1904 0.930 . S
C1918 C1916 1.395 . S
C1918 C1921 1.403 . S
C1919 C1916 1.403 . S
C1919 C1920 1.524 . S
C1919 C1923 1.400 . S
C1920 H1905 0.960 . S
C1920 H1906 0.960 . S
C1920 H1907 0.960 . S
C1920 C1919 1.524 . S
C1921 C1918 1.403 . S
C1921 C1922 1.392 . S
C1921 C1925 1.495 . S
C1922 C1921 1.392 . S
C1922 C1923 1.385 . S
C1922 C1924 1.478 . S
C1923 H1917 0.930 . S
C1923 C1919 1.400 . S
C1923 C1922 1.385 . S
C1924 C1922 1.478 . S
C1924 C1926 1.381 . S
C1924 C1930 1.383 . S
C1925 C1921 1.495 . S
C1925 H1931 0.959 . S
C1925 H1932 0.961 . S
C1925 H1933 0.960 . S
C1926 C1924 1.381 . S
C1926 C1927 1.394 . S
C1926 H1934 0.930 . S
C1927 C1926 1.394 . S
C1927 C1928 1.383 . S
C1927 H1935 0.929 . S
C1928 C1927 1.383 . S
C1928 C1929 1.377 . S
C1929 H1913 0.930 . S
C1929 C1928 1.377 . S
C1929 C1930 1.379 . S
C1930 H1914 0.931 . S
C1930 C1924 1.383 . S
C1930 C1929 1.379 . S
H1931 C1925 0.959 . S
H1932 C1925 0.961 . S
H1933 C1925 0.960 . S
H1934 C1926 0.930 . S
H1935 C1927 0.929 . S
H1936 C1944 0.929 . S
H1937 C1946 0.930 . S
H1938 C1948 0.930 . S
H1939 C1951 0.929 1_556 S
H1940 C1954 0.930 . S
H1941 C1956 0.960 . S
H1942 C1956 0.960 . S
H1943 C1956 0.960 . S
C1944 H1936 0.929 . S
C1944 C1945 1.377 . S
C1944 C1946 1.384 . S
C1945 C1944 1.377 . S
C1945 C1951 1.390 . S
C1946 H1937 0.930 . S
C1946 C1944 1.384 . S
C1946 C1947 1.372 . S
C1947 C1946 1.372 . S
C1947 C1948 1.400 1_554 S
C1947 C1952 1.490 . S
C1948 H1938 0.930 . S
C1948 C1947 1.400 1_556 S
C1948 C1951 1.386 1_556 S
H1949 C1965 0.930 . S
H1950 C1966 0.931 . S
C1951 H1939 0.929 1_554 S
C1951 C1945 1.390 . S
C1951 C1948 1.386 1_554 S
C1952 C1947 1.490 . S
C1952 C1954 1.395 . S
C1952 C1955 1.403 1_554 S
H1953 C1959 0.930 . S
C1954 H1940 0.930 . S
C1954 C1952 1.395 . S
C1954 C1957 1.403 . S
C1955 C1952 1.403 1_556 S
C1955 C1956 1.524 . S
C1955 C1959 1.400 . S
C1956 H1941 0.960 . S
C1956 H1942 0.960 . S
C1956 H1943 0.960 . S
C1956 C1955 1.524 . S
C1957 C1954 1.403 . S
C1957 C1958 1.384 1_554 S
C1957 C1961 1.495 . S
C1958 C1957 1.384 1_556 S
C1958 C1959 1.392 . S
C1958 C1960 1.479 . S
C1959 H1953 0.930 . S
C1959 C1955 1.400 . S
C1959 C1958 1.392 . S
C1960 C1958 1.479 . S
C1960 C1962 1.381 1_556 S
C1960 C1966 1.383 . S
C1961 C1957 1.495 . S
C1961 H1967 0.959 . S
C1961 H1968 0.961 . S
C1961 H1969 0.960 . S
C1962 C1960 1.381 1_554 S
C1962 C1963 1.394 1_554 S
C1962 H1970 0.930 . S
C1963 C1962 1.394 1_556 S
C1963 C1964 1.383 . S
C1963 H1971 0.929 1_556 S
C1964 C1963 1.383 . S
C1964 C1965 1.377 . S
C1965 H1949 0.930 . S
C1965 C1964 1.377 . S
C1965 C1966 1.379 . S
C1966 H1950 0.931 . S
C1966 C1960 1.383 . S
C1966 C1965 1.379 . S
H1967 C1961 0.959 . S
H1968 C1961 0.961 . S
H1969 C1961 0.960 . S
H1970 C1962 0.930 . S
H1971 C1963 0.929 1_554 S
H1972 C1980 0.929 . S
H1973 C1982 0.930 . S
H1974 C1984 0.930 . S
H1975 C1987 0.929 . S
H1976 C1990 0.930 . S
H1977 C1992 0.960 . S
H1978 C1992 0.960 . S
H1979 C1992 0.960 . S
C1980 H1972 0.929 . S
C1980 C1981 1.377 . S
C1980 C1982 1.384 . S
C1981 C1980 1.377 . S
C1981 C1987 1.390 . S
C1982 H1973 0.930 . S
C1982 C1980 1.384 . S
C1982 C1983 1.372 . S
C1983 C1982 1.372 . S
C1983 C1984 1.400 . S
C1983 C1988 1.490 . S
C1984 H1974 0.930 . S
C1984 C1983 1.400 . S
C1984 C1987 1.386 . S
H1985 C2001 0.930 . S
H1986 C2002 0.931 . S
C1987 H1975 0.929 . S
C1987 C1981 1.390 . S
C1987 C1984 1.386 . S
C1988 C1983 1.490 . S
C1988 C1990 1.395 . S
C1988 C1991 1.403 . S
H1989 C1995 0.930 . S
C1990 H1976 0.930 . S
C1990 C1988 1.395 . S
C1990 C1993 1.403 . S
C1991 C1988 1.403 . S
C1991 C1992 1.524 . S
C1991 C1995 1.400 . S
C1992 H1977 0.960 . S
C1992 H1978 0.960 . S
C1992 H1979 0.960 . S
C1992 C1991 1.524 . S
C1993 C1990 1.403 . S
C1993 C1994 1.392 . S
C1993 C1997 1.495 . S
C1994 C1993 1.392 . S
C1994 C1995 1.385 . S
C1994 C1996 1.478 . S
C1995 H1989 0.930 . S
C1995 C1991 1.400 . S
C1995 C1994 1.385 . S
C1996 C1994 1.478 . S
C1996 C1998 1.381 . S
C1996 C2002 1.383 . S
C1997 C1993 1.495 . S
C1997 H2003 0.959 . S
C1997 H2004 0.961 . S
C1997 H2005 0.960 . S
C1998 C1996 1.381 . S
C1998 C1999 1.394 . S
C1998 H2006 0.930 . S
C1999 C1998 1.394 . S
C1999 C2000 1.383 . S
C1999 H2007 0.929 . S
C2000 C1999 1.383 . S
C2000 C2001 1.377 . S
C2001 H1985 0.930 . S
C2001 C2000 1.377 . S
C2001 C2002 1.379 . S
C2002 H1986 0.931 . S
C2002 C1996 1.383 . S
C2002 C2001 1.379 . S
H2003 C1997 0.959 . S
H2004 C1997 0.961 . S
H2005 C1997 0.960 . S
H2006 C1998 0.930 . S
H2007 C1999 0.929 . S
H2008 C2016 0.929 . S
H2009 C2018 0.930 . S
H2010 C2020 0.930 . S
H2011 C2023 0.929 . S
H2012 C2026 0.930 . S
H2013 C2028 0.960 . S
H2014 C2028 0.960 . S
H2015 C2028 0.960 . S
C2016 H2008 0.929 . S
C2016 C2017 1.377 . S
C2016 C2018 1.384 . S
C2017 C2016 1.377 . S
C2017 C2023 1.390 . S
C2018 H2009 0.930 . S
C2018 C2016 1.384 . S
C2018 C2019 1.372 . S
C2019 C2018 1.372 . S
C2019 C2020 1.400 . S
C2019 C2024 1.490 . S
C2020 H2010 0.930 . S
C2020 C2019 1.400 . S
C2020 C2023 1.386 . S
H2021 C2037 0.930 . S
H2022 C2038 0.931 . S
C2023 H2011 0.929 . S
C2023 C2017 1.390 . S
C2023 C2020 1.386 . S
C2024 C2019 1.490 . S
C2024 C2026 1.395 . S
C2024 C2027 1.403 . S
H2025 C2031 0.930 . S
C2026 H2012 0.930 . S
C2026 C2024 1.395 . S
C2026 C2029 1.403 . S
C2027 C2024 1.403 . S
C2027 C2028 1.524 . S
C2027 C2031 1.400 . S
C2028 H2013 0.960 . S
C2028 H2014 0.960 . S
C2028 H2015 0.960 . S
C2028 C2027 1.524 . S
C2029 C2026 1.403 . S
C2029 C2030 1.392 . S
C2029 C2033 1.495 . S
C2030 C2029 1.392 . S
C2030 C2031 1.385 . S
C2030 C2032 1.478 . S
C2031 H2025 0.930 . S
C2031 C2027 1.400 . S
C2031 C2030 1.385 . S
C2032 C2030 1.478 . S
C2032 C2034 1.381 . S
C2032 C2038 1.383 . S
C2033 C2029 1.495 . S
C2033 H2039 0.959 . S
C2033 H2040 0.961 . S
C2033 H2041 0.960 . S
C2034 C2032 1.381 . S
C2034 C2035 1.394 . S
C2034 H2042 0.930 . S
C2035 C2034 1.394 . S
C2035 C2036 1.383 . S
C2035 H2043 0.929 . S
C2036 C2035 1.383 . S
C2036 C2037 1.377 . S
C2037 H2021 0.930 . S
C2037 C2036 1.377 . S
C2037 C2038 1.379 . S
C2038 H2022 0.931 . S
C2038 C2032 1.383 . S
C2038 C2037 1.379 . S
H2039 C2033 0.959 . S
H2040 C2033 0.961 . S
H2041 C2033 0.960 . S
H2042 C2034 0.930 . S
H2043 C2035 0.929 . S
H2044 C2052 0.929 . S
H2045 C2054 0.930 . S
H2046 C2056 0.930 . S
H2047 C2059 0.929 . S
H2048 C2062 0.930 . S
H2049 C2064 0.960 . S
H2050 C2064 0.960 . S
H2051 C2064 0.960 . S
C2052 H2044 0.929 . S
C2052 C2053 1.377 . S
C2052 C2054 1.384 . S
C2053 C2052 1.377 . S
C2053 C2059 1.390 . S
C2054 H2045 0.930 . S
C2054 C2052 1.384 . S
C2054 C2055 1.372 . S
C2055 C2054 1.372 . S
C2055 C2056 1.400 . S
C2055 C2060 1.490 . S
C2056 H2046 0.930 . S
C2056 C2055 1.400 . S
C2056 C2059 1.386 . S
H2057 C2073 0.930 . S
H2058 C2074 0.931 . S
C2059 H2047 0.929 . S
C2059 C2053 1.390 . S
C2059 C2056 1.386 . S
C2060 C2055 1.490 . S
C2060 C2062 1.395 . S
C2060 C2063 1.403 . S
H2061 C2067 0.930 . S
C2062 H2048 0.930 . S
C2062 C2060 1.395 . S
C2062 C2065 1.403 . S
C2063 C2060 1.403 . S
C2063 C2064 1.524 . S
C2063 C2067 1.400 . S
C2064 H2049 0.960 . S
C2064 H2050 0.960 . S
C2064 H2051 0.960 . S
C2064 C2063 1.524 . S
C2065 C2062 1.403 . S
C2065 C2066 1.392 . S
C2065 C2069 1.495 . S
C2066 C2065 1.392 . S
C2066 C2067 1.385 . S
C2066 C2068 1.478 . S
C2067 H2061 0.930 . S
C2067 C2063 1.400 . S
C2067 C2066 1.385 . S
C2068 C2066 1.478 . S
C2068 C2070 1.381 . S
C2068 C2074 1.383 . S
C2069 C2065 1.495 . S
C2069 H2075 0.959 . S
C2069 H2076 0.961 . S
C2069 H2077 0.960 . S
C2070 C2068 1.381 . S
C2070 C2071 1.394 . S
C2070 H2078 0.930 . S
C2071 C2070 1.394 . S
C2071 C2072 1.383 . S
C2071 H2079 0.929 . S
C2072 C2071 1.383 . S
C2072 C2073 1.377 . S
C2073 H2057 0.930 . S
C2073 C2072 1.377 . S
C2073 C2074 1.379 . S
C2074 H2058 0.931 . S
C2074 C2068 1.383 . S
C2074 C2073 1.379 . S
H2075 C2069 0.959 . S
H2076 C2069 0.961 . S
H2077 C2069 0.960 . S
H2078 C2070 0.930 . S
H2079 C2071 0.929 . S
H2080 C2088 0.929 . S
H2081 C2090 0.930 . S
H2082 C2092 0.930 . S
H2083 C2095 0.929 . S
H2084 C2098 0.930 . S
H2085 C2100 0.960 . S
H2086 C2100 0.960 . S
H2087 C2100 0.960 . S
C2088 H2080 0.929 . S
C2088 C2089 1.377 . S
C2088 C2090 1.384 . S
C2089 C2088 1.377 . S
C2089 C2095 1.390 . S
C2090 H2081 0.930 . S
C2090 C2088 1.384 . S
C2090 C2091 1.372 . S
C2091 C2090 1.372 . S
C2091 C2092 1.400 . S
C2091 C2096 1.490 . S
C2092 H2082 0.930 . S
C2092 C2091 1.400 . S
C2092 C2095 1.386 . S
H2093 C2109 0.930 . S
H2094 C2110 0.931 . S
C2095 H2083 0.929 . S
C2095 C2089 1.390 . S
C2095 C2092 1.386 . S
C2096 C2091 1.490 . S
C2096 C2098 1.395 . S
C2096 C2099 1.403 . S
H2097 C2103 0.930 . S
C2098 H2084 0.930 . S
C2098 C2096 1.395 . S
C2098 C2101 1.403 1_565 S
C2099 C2096 1.403 . S
C2099 C2100 1.524 . S
C2099 C2103 1.400 1_565 S
C2100 H2085 0.960 . S
C2100 H2086 0.960 . S
C2100 H2087 0.960 . S
C2100 C2099 1.524 . S
C2101 C2098 1.403 1_545 S
C2101 C2102 1.392 . S
C2101 C2105 1.495 . S
C2102 C2101 1.392 . S
C2102 C2103 1.385 . S
C2102 C2104 1.478 . S
C2103 H2097 0.930 . S
C2103 C2099 1.400 1_545 S
C2103 C2102 1.385 . S
C2104 C2102 1.478 . S
C2104 C2106 1.381 . S
C2104 C2110 1.383 . S
C2105 C2101 1.495 . S
C2105 H2111 0.959 . S
C2105 H2112 0.961 . S
C2105 H2113 0.960 . S
C2106 C2104 1.381 . S
C2106 C2107 1.394 . S
C2106 H2114 0.930 . S
C2107 C2106 1.394 . S
C2107 C2108 1.383 . S
C2107 H2115 0.929 . S
C2108 C2107 1.383 . S
C2108 C2109 1.377 . S
C2109 H2093 0.930 . S
C2109 C2108 1.377 . S
C2109 C2110 1.379 . S
C2110 H2094 0.931 . S
C2110 C2104 1.383 . S
C2110 C2109 1.379 . S
H2111 C2105 0.959 . S
H2112 C2105 0.961 . S
H2113 C2105 0.960 . S
H2114 C2106 0.930 . S
H2115 C2107 0.929 . S
H2116 C2124 0.929 . S
H2117 C2126 0.930 . S
H2118 C2128 0.930 . S
H2119 C2131 0.929 . S
H2120 C2134 0.930 . S
H2121 C2136 0.960 . S
H2122 C2136 0.960 . S
H2123 C2136 0.960 . S
C2124 H2116 0.929 . S
C2124 C2125 1.377 . S
C2124 C2126 1.384 . S
C2125 C2124 1.377 . S
C2125 C2131 1.390 . S
C2126 H2117 0.930 . S
C2126 C2124 1.384 . S
C2126 C2127 1.372 . S
C2127 C2126 1.372 . S
C2127 C2128 1.400 . S
C2127 C2132 1.490 . S
C2128 H2118 0.930 . S
C2128 C2127 1.400 . S
C2128 C2131 1.386 . S
H2129 C2145 0.930 . S
H2130 C2146 0.931 . S
C2131 H2119 0.929 . S
C2131 C2125 1.390 . S
C2131 C2128 1.386 . S
C2132 C2127 1.490 . S
C2132 C2134 1.395 . S
C2132 C2135 1.403 . S
H2133 C2139 0.930 . S
C2134 H2120 0.930 . S
C2134 C2132 1.395 . S
C2134 C2137 1.403 . S
C2135 C2132 1.403 . S
C2135 C2136 1.524 . S
C2135 C2139 1.400 . S
C2136 H2121 0.960 . S
C2136 H2122 0.960 . S
C2136 H2123 0.960 . S
C2136 C2135 1.524 . S
C2137 C2134 1.403 . S
C2137 C2138 1.392 . S
C2137 C2141 1.495 . S
C2138 C2137 1.392 . S
C2138 C2139 1.385 . S
C2138 C2140 1.478 . S
C2139 H2133 0.930 . S
C2139 C2135 1.400 . S
C2139 C2138 1.385 . S
C2140 C2138 1.478 . S
C2140 C2142 1.381 . S
C2140 C2146 1.383 . S
C2141 C2137 1.495 . S
C2141 H2147 0.959 . S
C2141 H2148 0.961 . S
C2141 H2149 0.960 . S
C2142 C2140 1.381 . S
C2142 C2143 1.394 . S
C2142 H2150 0.930 . S
C2143 C2142 1.394 . S
C2143 C2144 1.383 . S
C2143 H2151 0.929 . S
C2144 C2143 1.383 . S
C2144 C2145 1.377 . S
C2145 H2129 0.930 . S
C2145 C2144 1.377 . S
C2145 C2146 1.379 . S
C2146 H2130 0.931 . S
C2146 C2140 1.383 . S
C2146 C2145 1.379 . S
H2147 C2141 0.959 . S
H2148 C2141 0.961 . S
H2149 C2141 0.960 . S
H2150 C2142 0.930 . S
H2151 C2143 0.929 . S
H2152 C2160 0.929 . S
H2153 C2162 0.930 1_556 S
H2154 C2164 0.930 . S
H2155 C2167 0.929 . S
H2156 C2170 0.930 . S
H2157 C2172 0.960 . S
H2158 C2172 0.960 . S
H2159 C2172 0.960 . S
C2160 H2152 0.929 . S
C2160 C2161 1.377 . S
C2160 C2162 1.384 . S
C2161 C2160 1.377 . S
C2161 C2167 1.390 . S
C2162 H2153 0.930 1_554 S
C2162 C2160 1.384 . S
C2162 C2163 1.372 . S
C2163 C2162 1.372 . S
C2163 C2164 1.400 . S
C2163 C2168 1.490 . S
C2164 H2154 0.930 . S
C2164 C2163 1.400 . S
C2164 C2167 1.386 . S
H2165 C2181 0.930 1_554 S
H2166 C2182 0.931 . S
C2167 H2155 0.929 . S
C2167 C2161 1.390 . S
C2167 C2164 1.386 . S
C2168 C2163 1.490 . S
C2168 C2170 1.395 . S
C2168 C2171 1.403 1_554 S
H2169 C2175 0.930 . S
C2170 H2156 0.930 . S
C2170 C2168 1.395 . S
C2170 C2173 1.403 1_565 S
C2171 C2168 1.403 1_556 S
C2171 C2172 1.524 . S
C2171 C2175 1.400 1_565 S
C2172 H2157 0.960 . S
C2172 H2158 0.960 . S
C2172 H2159 0.960 . S
C2172 C2171 1.524 . S
C2173 C2170 1.403 1_545 S
C2173 C2174 1.392 1_554 S
C2173 C2177 1.495 . S
C2174 C2173 1.392 1_556 S
C2174 C2175 1.385 . S
C2174 C2176 1.478 . S
C2175 H2169 0.930 . S
C2175 C2171 1.400 1_545 S
C2175 C2174 1.385 . S
C2176 C2174 1.478 . S
C2176 C2178 1.381 . S
C2176 C2182 1.383 1_556 S
C2177 C2173 1.495 . S
C2177 H2183 0.959 . S
C2177 H2184 0.961 . S
C2177 H2185 0.960 . S
C2178 C2176 1.381 . S
C2178 C2179 1.394 . S
C2178 H2186 0.930 . S
C2179 C2178 1.394 . S
C2179 C2180 1.383 . S
C2179 H2187 0.929 . S
C2180 C2179 1.383 . S
C2180 C2181 1.377 . S
C2181 H2165 0.930 1_556 S
C2181 C2180 1.377 . S
C2181 C2182 1.379 1_556 S
C2182 H2166 0.931 . S
C2182 C2176 1.383 1_554 S
C2182 C2181 1.379 1_554 S
H2183 C2177 0.959 . S
H2184 C2177 0.961 . S
H2185 C2177 0.960 . S
H2186 C2178 0.930 . S
H2187 C2179 0.929 . S
H2188 C2196 0.929 . S
H2189 C2198 0.930 . S
H2190 C2200 0.930 . S
H2191 C2203 0.929 . S
H2192 C2206 0.930 . S
H2193 C2208 0.960 . S
H2194 C2208 0.960 . S
H2195 C2208 0.960 . S
C2196 H2188 0.929 . S
C2196 C2197 1.377 . S
C2196 C2198 1.384 . S
C2197 C2196 1.377 . S
C2197 C2203 1.390 . S
C2198 H2189 0.930 . S
C2198 C2196 1.384 . S
C2198 C2199 1.372 . S
C2199 C2198 1.372 . S
C2199 C2200 1.400 . S
C2199 C2204 1.490 . S
C2200 H2190 0.930 . S
C2200 C2199 1.400 . S
C2200 C2203 1.386 . S
H2201 C2217 0.930 . S
H2202 C2218 0.931 . S
C2203 H2191 0.929 . S
C2203 C2197 1.390 . S
C2203 C2200 1.386 . S
C2204 C2199 1.490 . S
C2204 C2206 1.395 . S
C2204 C2207 1.403 . S
H2205 C2211 0.930 . S
C2206 H2192 0.930 . S
C2206 C2204 1.395 . S
C2206 C2209 1.403 . S
C2207 C2204 1.403 . S
C2207 C2208 1.524 . S
C2207 C2211 1.400 . S
C2208 H2193 0.960 . S
C2208 H2194 0.960 . S
C2208 H2195 0.960 . S
C2208 C2207 1.524 . S
C2209 C2206 1.403 . S
C2209 C2210 1.392 . S
C2209 C2213 1.495 . S
C2210 C2209 1.392 . S
C2210 C2211 1.385 . S
C2210 C2212 1.478 . S
C2211 H2205 0.930 . S
C2211 C2207 1.400 . S
C2211 C2210 1.385 . S
C2212 C2210 1.478 . S
C2212 C2214 1.381 . S
C2212 C2218 1.383 . S
C2213 C2209 1.495 . S
C2213 H2219 0.959 . S
C2213 H2220 0.961 . S
C2213 H2221 0.960 . S
C2214 C2212 1.381 . S
C2214 C2215 1.394 . S
C2214 H2222 0.930 . S
C2215 C2214 1.394 . S
C2215 C2216 1.383 . S
C2215 H2223 0.929 . S
C2216 C2215 1.383 . S
C2216 C2217 1.377 . S
C2217 H2201 0.930 . S
C2217 C2216 1.377 . S
C2217 C2218 1.379 . S
C2218 H2202 0.931 . S
C2218 C2212 1.383 . S
C2218 C2217 1.379 . S
H2219 C2213 0.959 . S
H2220 C2213 0.961 . S
H2221 C2213 0.960 . S
H2222 C2214 0.930 . S
H2223 C2215 0.929 . S
H2224 C2232 0.929 . S
H2225 C2234 0.930 . S
H2226 C2236 0.930 . S
H2227 C2239 0.929 . S
H2228 C2242 0.930 . S
H2229 C2244 0.960 . S
H2230 C2244 0.960 . S
H2231 C2244 0.960 . S
C2232 H2224 0.929 . S
C2232 C2233 1.377 . S
C2232 C2234 1.384 . S
C2233 C2232 1.377 . S
C2233 C2239 1.390 . S
C2234 H2225 0.930 . S
C2234 C2232 1.384 . S
C2234 C2235 1.372 . S
C2235 C2234 1.372 . S
C2235 C2236 1.400 . S
C2235 C2240 1.490 . S
C2236 H2226 0.930 . S
C2236 C2235 1.400 . S
C2236 C2239 1.386 . S
H2237 C2253 0.930 . S
H2238 C2254 0.931 . S
C2239 H2227 0.929 . S
C2239 C2233 1.390 . S
C2239 C2236 1.386 . S
C2240 C2235 1.490 . S
C2240 C2242 1.395 . S
C2240 C2243 1.403 . S
H2241 C2247 0.930 . S
C2242 H2228 0.930 . S
C2242 C2240 1.395 . S
C2242 C2245 1.403 1_565 S
C2243 C2240 1.403 . S
C2243 C2244 1.524 . S
C2243 C2247 1.400 1_565 S
C2244 H2229 0.960 . S
C2244 H2230 0.960 . S
C2244 H2231 0.960 . S
C2244 C2243 1.524 . S
C2245 C2242 1.403 1_545 S
C2245 C2246 1.392 . S
C2245 C2249 1.495 . S
C2246 C2245 1.392 . S
C2246 C2247 1.385 . S
C2246 C2248 1.478 . S
C2247 H2241 0.930 . S
C2247 C2243 1.400 1_545 S
C2247 C2246 1.385 . S
C2248 C2246 1.478 . S
C2248 C2250 1.381 . S
C2248 C2254 1.383 . S
C2249 C2245 1.495 . S
C2249 H2255 0.959 . S
C2249 H2256 0.961 . S
C2249 H2257 0.960 . S
C2250 C2248 1.381 . S
C2250 C2251 1.394 . S
C2250 H2258 0.930 . S
C2251 C2250 1.394 . S
C2251 C2252 1.383 . S
C2251 H2259 0.929 . S
C2252 C2251 1.383 . S
C2252 C2253 1.377 . S
C2253 H2237 0.930 . S
C2253 C2252 1.377 . S
C2253 C2254 1.379 . S
C2254 H2238 0.931 . S
C2254 C2248 1.383 . S
C2254 C2253 1.379 . S
H2255 C2249 0.959 . S
H2256 C2249 0.961 . S
H2257 C2249 0.960 . S
H2258 C2250 0.930 . S
H2259 C2251 0.929 . S
H2260 C2268 0.929 . S
H2261 C2270 0.930 . S
H2262 C2272 0.930 . S
H2263 C2275 0.929 . S
H2264 C2278 0.930 . S
H2265 C2280 0.960 . S
H2266 C2280 0.960 . S
H2267 C2280 0.960 . S
C2268 H2260 0.929 . S
C2268 C2269 1.377 . S
C2268 C2270 1.384 . S
C2269 C2268 1.377 . S
C2269 C2275 1.390 . S
C2270 H2261 0.930 . S
C2270 C2268 1.384 . S
C2270 C2271 1.372 . S
C2271 C2270 1.372 . S
C2271 C2272 1.400 . S
C2271 C2276 1.490 . S
C2272 H2262 0.930 . S
C2272 C2271 1.400 . S
C2272 C2275 1.386 . S
H2273 C2289 0.930 . S
H2274 C2290 0.931 . S
C2275 H2263 0.929 . S
C2275 C2269 1.390 . S
C2275 C2272 1.386 . S
C2276 C2271 1.490 . S
C2276 C2278 1.395 . S
C2276 C2279 1.403 . S
H2277 C2283 0.930 . S
C2278 H2264 0.930 . S
C2278 C2276 1.395 . S
C2278 C2281 1.403 . S
C2279 C2276 1.403 . S
C2279 C2280 1.524 . S
C2279 C2283 1.400 . S
C2280 H2265 0.960 . S
C2280 H2266 0.960 . S
C2280 H2267 0.960 . S
C2280 C2279 1.524 . S
C2281 C2278 1.403 . S
C2281 C2282 1.392 . S
C2281 C2285 1.495 . S
C2282 C2281 1.392 . S
C2282 C2283 1.385 . S
C2282 C2284 1.478 . S
C2283 H2277 0.930 . S
C2283 C2279 1.400 . S
C2283 C2282 1.385 . S
C2284 C2282 1.478 . S
C2284 C2286 1.381 . S
C2284 C2290 1.383 . S
C2285 C2281 1.495 . S
C2285 H2291 0.959 . S
C2285 H2292 0.961 . S
C2285 H2293 0.960 . S
C2286 C2284 1.381 . S
C2286 C2287 1.394 . S
C2286 H2294 0.930 . S
C2287 C2286 1.394 . S
C2287 C2288 1.383 . S
C2287 H2295 0.929 . S
C2288 C2287 1.383 . S
C2288 C2289 1.377 . S
C2289 H2273 0.930 . S
C2289 C2288 1.377 . S
C2289 C2290 1.379 . S
C2290 H2274 0.931 . S
C2290 C2284 1.383 . S
C2290 C2289 1.379 . S
H2291 C2285 0.959 . S
H2292 C2285 0.961 . S
H2293 C2285 0.960 . S
H2294 C2286 0.930 . S
H2295 C2287 0.929 . S
H2296 C2304 0.929 . S
H2297 C2306 0.930 1_554 S
H2298 C2308 0.930 . S
H2299 C2311 0.929 . S
H2300 C2314 0.930 . S
H2301 C2316 0.960 . S
H2302 C2316 0.960 . S
H2303 C2316 0.960 . S
C2304 H2296 0.929 . S
C2304 C2305 1.377 . S
C2304 C2306 1.384 . S
C2305 C2304 1.377 . S
C2305 C2311 1.390 . S
C2306 H2297 0.930 1_556 S
C2306 C2304 1.384 . S
C2306 C2307 1.372 . S
C2307 C2306 1.372 . S
C2307 C2308 1.400 . S
C2307 C2312 1.490 . S
C2308 H2298 0.930 . S
C2308 C2307 1.400 . S
C2308 C2311 1.386 . S
H2309 C2325 0.927 1_556 S
H2310 C2326 0.947 . S
C2311 H2299 0.929 . S
C2311 C2305 1.390 . S
C2311 C2308 1.386 . S
C2312 C2307 1.490 . S
C2312 C2314 1.395 . S
C2312 C2315 1.403 1_556 S
H2313 C2319 0.930 . S
C2314 H2300 0.930 . S
C2314 C2312 1.395 . S
C2314 C2317 1.403 1_545 S
C2315 C2312 1.403 1_554 S
C2315 C2316 1.524 . S
C2315 C2319 1.400 1_545 S
C2316 H2301 0.960 . S
C2316 H2302 0.960 . S
C2316 H2303 0.960 . S
C2316 C2315 1.524 . S
C2317 C2314 1.403 1_565 S
C2317 C2318 1.392 1_556 S
C2317 C2321 1.495 . S
C2318 C2317 1.392 1_554 S
C2318 C2319 1.385 . S
C2318 C2320 1.478 . S
C2319 H2313 0.930 . S
C2319 C2315 1.400 1_565 S
C2319 C2318 1.385 . S
C2320 C2318 1.478 . S
C2320 C2322 1.381 . S
C2320 C2326 1.374 1_554 S
C2321 C2317 1.495 . S
C2321 H2327 0.959 . S
C2321 H2328 0.961 . S
C2321 H2329 0.960 . S
C2322 C2320 1.381 . S
C2322 C2323 1.394 . S
C2322 H2330 0.930 . S
C2323 C2322 1.394 . S
C2323 C2324 1.383 . S
C2323 H2331 0.929 . S
C2324 C2323 1.383 . S
C2324 C2325 1.377 . S
C2325 H2309 0.927 1_554 S
C2325 C2324 1.377 . S
C2325 C2326 1.373 1_554 S
C2326 H2310 0.947 . S
C2326 C2320 1.374 1_556 S
C2326 C2325 1.373 1_556 S
H2327 C2321 0.959 . S
H2328 C2321 0.961 . S
H2329 C2321 0.960 . S
H2330 C2322 0.930 . S
H2331 C2323 0.929 . S
H2332 C2340 0.929 . S
H2333 C2342 0.930 . S
H2334 C2344 0.930 . S
H2335 C2347 0.929 . S
H2336 C2350 0.930 . S
H2337 C2352 0.960 . S
H2338 C2352 0.960 . S
H2339 C2352 0.960 . S
C2340 H2332 0.929 . S
C2340 C2341 1.377 . S
C2340 C2342 1.384 . S
C2341 C2340 1.377 . S
C2341 C2347 1.390 . S
C2342 H2333 0.930 . S
C2342 C2340 1.384 . S
C2342 C2343 1.372 . S
C2343 C2342 1.372 . S
C2343 C2344 1.400 . S
C2343 C2348 1.490 . S
C2344 H2334 0.930 . S
C2344 C2343 1.400 . S
C2344 C2347 1.386 . S
H2345 C2361 0.930 . S
H2346 C2362 0.931 . S
C2347 H2335 0.929 . S
C2347 C2341 1.390 . S
C2347 C2344 1.386 . S
C2348 C2343 1.490 . S
C2348 C2350 1.395 . S
C2348 C2351 1.403 . S
H2349 C2355 0.930 . S
C2350 H2336 0.930 . S
C2350 C2348 1.395 . S
C2350 C2353 1.403 . S
C2351 C2348 1.403 . S
C2351 C2352 1.524 . S
C2351 C2355 1.400 . S
C2352 H2337 0.960 . S
C2352 H2338 0.960 . S
C2352 H2339 0.960 . S
C2352 C2351 1.524 . S
C2353 C2350 1.403 . S
C2353 C2354 1.392 . S
C2353 C2357 1.495 . S
C2354 C2353 1.392 . S
C2354 C2355 1.385 . S
C2354 C2356 1.478 . S
C2355 H2349 0.930 . S
C2355 C2351 1.400 . S
C2355 C2354 1.385 . S
C2356 C2354 1.478 . S
C2356 C2358 1.381 . S
C2356 C2362 1.383 . S
C2357 C2353 1.495 . S
C2357 H2363 0.959 . S
C2357 H2364 0.961 . S
C2357 H2365 0.960 . S
C2358 C2356 1.381 . S
C2358 C2359 1.394 . S
C2358 H2366 0.930 . S
C2359 C2358 1.394 . S
C2359 C2360 1.383 . S
C2359 H2367 0.929 . S
C2360 C2359 1.383 . S
C2360 C2361 1.377 . S
C2361 H2345 0.930 . S
C2361 C2360 1.377 . S
C2361 C2362 1.379 . S
C2362 H2346 0.931 . S
C2362 C2356 1.383 . S
C2362 C2361 1.379 . S
H2363 C2357 0.959 . S
H2364 C2357 0.961 . S
H2365 C2357 0.960 . S
H2366 C2358 0.930 . S
H2367 C2359 0.929 . S
C649 C6 1.611 . S
C668 C15 1.625 . S
C685 C55 1.615 . S
C704 C46 1.617 . S
C721 C86 1.614 . S
C740 C95 1.627 . S
C757 C135 1.609 . S
C776 C126 1.590 . S
C793 C166 1.611 . S
C812 C175 1.624 . S
C829 C206 1.612 . S
C848 C215 1.594 . S
C865 C246 1.608 . S
C884 C255 1.593 . S
C901 C295 1.615 . S
C920 C286 1.617 . S
C937 C335 1.609 . S
C956 C326 1.590 . S
C973 C375 1.611 . S
C992 C366 1.591 . S
C1009 C406 1.612 . S
C1028 C415 1.625 . S
C1045 C446 1.615 . S
C1064 C455 1.625 . S
C1081 C495 1.609 . S
C1100 C486 1.612 . S
C1117 C526 1.615 . S
C1136 C535 1.621 . S
C1153 C575 1.613 . S
C1172 C566 1.627 . S
C1189 C606 1.608 . S
C1208 C615 1.610 . S
C1225 C9 1.472 . S
C1244 C458 1.439 . S
C1261 C50 2.095 . S
C1280 C619 2.069 . S
C1297 C89 1.469 . S
C1316 C378 1.483 . S
C1333 C130 2.095 1_554 S
C1352 C539 2.092 1_554 S
C1369 C169 1.466 . S
C1388 C538 1.492 . S
C1405 C459 2.096 1_556 S
C1424 C210 2.081 1_556 S
C1441 C249 1.467 . S
C1460 C618 1.438 . S
C1477 C290 2.095 . S
C1496 C379 2.067 . S
C1513 C129 1.470 . S
C1532 C338 1.435 . S
C1549 C49 1.463 . S
C1568 C418 1.492 . S
C1585 C498 1.473 . S
C1604 C209 1.457 . S
C1621 C289 1.463 . S
C1640 C578 1.459 . S
C1657 C339 2.095 1_554 S
C1676 C170 2.068 . S
C1693 C250 2.095 . S
C1712 C419 2.095 . S
C1729 C90 2.094 . S
C1748 C579 2.066 . S
C1765 C10 2.089 1_556 S
C1784 C499 2.080 1_556 S
C1801 C18 1.502 . S
C1820 C178 1.496 . S
C1837 C59 2.016 . S
C1856 C219 2.019 . S
C1873 C98 1.506 . S
C1892 C258 1.513 . S
C1909 C139 2.014 . S
C1928 C299 2.015 . S
C1945 C489 1.501 . S
C1964 C329 1.519 . S
C1981 C530 2.013 . S
C2000 C370 2.017 . S
C2017 C409 1.503 . S
C2036 C569 1.514 . S
C2053 C610 2.012 . S
C2072 C450 2.019 . S
C2089 C58 1.498 . S
C2108 C298 1.480 . S
C2125 C179 2.013 . S
C2144 C99 2.014 . S
C2161 C218 1.506 . S
C2180 C138 1.518 . S
C2197 C19 2.012 . S
C2216 C259 2.008 . S
C2233 C609 1.506 . S
C2252 C369 1.498 . S
C2269 C490 2.013 . S
C2288 C410 2.018 . S
C2305 C529 1.505 . S
C2324 C449 1.503 . S
C2341 C570 2.015 . S
C2360 C330 2.002 . S
