# Generated by pormake.
# Topology zfa, (5)-cn, num edge types: 1
# Building blocks:
#     Node 0, Type 0, BuildingBlock: XOMCOT_clean_sbu_0, # of connection points: 5
#     Node 1, Type 0, BuildingBlock: XOMCOT_clean_sbu_0, # of connection points: 5
#     Node 2, Type 0, BuildingBlock: XOMCOT_clean_sbu_0, # of connection points: 5
#     Node 3, Type 0, BuildingBlock: XOMCOT_clean_sbu_0, # of connection points: 5
#     Node 4, Type 0, BuildingBlock: XOMCOT_clean_sbu_0, # of connection points: 5
#     Node 5, Type 0, BuildingBlock: XOMCOT_clean_sbu_0, # of connection points: 5
#     Node 6, Type 0, BuildingBlock: XOMCOT_clean_sbu_0, # of connection points: 5
#     Node 7, Type 0, BuildingBlock: XOMCOT_clean_sbu_0, # of connection points: 5
#     Edge 8, Type (0, 0), BuildingBlock: KIFKEQ_clean_linker_1, # of connection points: 2
#     Edge 9, Type (0, 0), BuildingBlock: KIFKEQ_clean_linker_1, # of connection points: 2
#     Edge 10, Type (0, 0), BuildingBlock: KIFKEQ_clean_linker_1, # of connection points: 2
#     Edge 11, Type (0, 0), BuildingBlock: KIFKEQ_clean_linker_1, # of connection points: 2
#     Edge 12, Type (0, 0), BuildingBlock: KIFKEQ_clean_linker_1, # of connection points: 2
#     Edge 13, Type (0, 0), BuildingBlock: KIFKEQ_clean_linker_1, # of connection points: 2
#     Edge 14, Type (0, 0), BuildingBlock: KIFKEQ_clean_linker_1, # of connection points: 2
#     Edge 15, Type (0, 0), BuildingBlock: KIFKEQ_clean_linker_1, # of connection points: 2
#     Edge 16, Type (0, 0), BuildingBlock: KIFKEQ_clean_linker_1, # of connection points: 2
#     Edge 17, Type (0, 0), BuildingBlock: KIFKEQ_clean_linker_1, # of connection points: 2
#     Edge 18, Type (0, 0), BuildingBlock: KIFKEQ_clean_linker_1, # of connection points: 2
#     Edge 19, Type (0, 0), BuildingBlock: KIFKEQ_clean_linker_1, # of connection points: 2
#     Edge 20, Type (0, 0), BuildingBlock: KIFKEQ_clean_linker_1, # of connection points: 2
#     Edge 21, Type (0, 0), BuildingBlock: KIFKEQ_clean_linker_1, # of connection points: 2
#     Edge 22, Type (0, 0), BuildingBlock: KIFKEQ_clean_linker_1, # of connection points: 2
#     Edge 23, Type (0, 0), BuildingBlock: KIFKEQ_clean_linker_1, # of connection points: 2
#     Edge 24, Type (0, 0), BuildingBlock: KIFKEQ_clean_linker_1, # of connection points: 2
#     Edge 25, Type (0, 0), BuildingBlock: KIFKEQ_clean_linker_1, # of connection points: 2
#     Edge 26, Type (0, 0), BuildingBlock: KIFKEQ_clean_linker_1, # of connection points: 2
#     Edge 27, Type (0, 0), BuildingBlock: KIFKEQ_clean_linker_1, # of connection points: 2
# Relax obj value: 0.203
# Max RMSD: 0.189
# Mean RMSD: 0.189
data_MOF--net-zfa--node1-XOMCOT_clean_sbu_0--edge1-KIFKEQ_clean_linker_1
_symmetry_space_group_name_H-M    P1
_symmetry_Int_Tables_number       1
_symmetry_cell_setting            triclinic
loop_
_symmetry_equiv_pos_as_xyz
'x, y, z'
_cell_length_a     31.628993
_cell_length_b     31.638337
_cell_length_c     41.838303
_cell_angle_alpha  90.024055
_cell_angle_beta   89.948372
_cell_angle_gamma 90.005477
loop_
_atom_site_label
_atom_site_type_symbol
_atom_site_fract_x
_atom_site_fract_y
_atom_site_fract_z
_atom_type_partial_charge
Co0 Co 0.12937 0.26238 0.36111 0.0
C1 C 0.11213 0.35412 0.35348 0.0
C2 C 0.11648 0.3366 0.40274 0.0
C3 C 0.10389 0.37805 0.40112 0.0
N4 N 0.12332 0.32171 0.37288 0.0
N5 N 0.10091 0.38887 0.37016 0.0
H6 H 0.10855 0.35148 0.32786 0.0
H7 H 0.11638 0.3178 0.42427 0.0
C8 C 0.18234 0.26788 0.41997 0.0
O9 O 0.20064 0.30106 0.40706 0.0
N10 N 0.13318 0.2036 0.34935 0.0
C11 C 0.14754 0.18839 0.32128 0.0
C12 C 0.13498 0.147 0.31837 0.0
C13 C 0.11202 0.17143 0.3631 0.0
N14 N 0.11224 0.13658 0.3445 0.0
C15 C 0.19379 0.29923 0.31989 0.0
C16 C 0.25868 0.24765 0.34108 0.0
C17 C 0.26726 0.27703 0.31698 0.0
C18 C 0.23413 0.3028 0.30608 0.0
C19 C 0.21804 0.24456 0.3537 0.0
N20 N 0.18631 0.27096 0.3439 0.0
H21 H 0.16842 0.31829 0.31059 0.0
H22 H 0.21188 0.21999 0.371 0.0
H23 H 0.16312 0.207 0.30307 0.0
H24 H 0.09318 0.17486 0.38456 0.0
O25 O 0.09562 0.27206 0.32305 0.0
O26 O 0.07017 0.25461 0.37065 0.0
O27 O 0.15305 0.24838 0.40485 0.0
C28 C 0.06286 0.26309 0.34075 0.0
H29 H 0.09334 0.39732 0.42098 0.0
H30 H 0.13969 0.12707 0.29764 0.0
H31 H 0.28292 0.22615 0.34944 0.0
H32 H 0.23933 0.3254 0.28704 0.0
Co33 Co 0.2659 0.63037 0.86064 0.0
C34 C 0.17387 0.61576 0.85297 0.0
C35 C 0.19047 0.62345 0.90217 0.0
C36 C 0.14876 0.61165 0.90054 0.0
N37 N 0.20622 0.62743 0.87227 0.0
N38 N 0.13854 0.60646 0.86962 0.0
H39 H 0.17691 0.61043 0.82754 0.0
H40 H 0.20871 0.62431 0.92394 0.0
C41 C 0.26458 0.6844 0.91934 0.0
O42 O 0.23374 0.70606 0.90612 0.0
N43 N 0.32482 0.63122 0.84892 0.0
C44 C 0.34058 0.64443 0.82071 0.0
C45 C 0.38148 0.63034 0.81796 0.0
C46 C 0.35614 0.60911 0.8629 0.0
N47 N 0.39102 0.60776 0.84433 0.0
C48 C 0.23143 0.69663 0.8201 0.0
C49 C 0.28797 0.75823 0.83954 0.0
C50 C 0.25865 0.76845 0.81565 0.0
C51 C 0.22998 0.7369 0.80601 0.0
C52 C 0.2888 0.71771 0.85249 0.0
N53 N 0.2602 0.68759 0.84342 0.0
H54 H 0.21034 0.67243 0.81148 0.0
H55 H 0.31318 0.71035 0.86968 0.0
H56 H 0.3226 0.66042 0.80236 0.0
H57 H 0.35203 0.59091 0.88459 0.0
O58 O 0.25484 0.59717 0.82248 0.0
O59 O 0.2707 0.57088 0.87011 0.0
O60 O 0.28094 0.65299 0.90452 0.0
C61 C 0.26218 0.56402 0.84015 0.0
H62 H 0.12892 0.60287 0.92057 0.0
H63 H 0.40167 0.63406 0.79724 0.0
H64 H 0.31052 0.78123 0.84826 0.0
H65 H 0.20738 0.74274 0.78711 0.0
Co66 Co 0.89629 0.76501 0.36241 0.0
C67 C 0.91127 0.67318 0.35355 0.0
C68 C 0.9026 0.68863 0.40289 0.0
C69 C 0.91421 0.64691 0.40078 0.0
N70 N 0.89931 0.7051 0.37318 0.0
N71 N 0.91998 0.63739 0.36979 0.0
H72 H 0.91705 0.67676 0.32821 0.0
H73 H 0.90124 0.70633 0.42491 0.0
C74 C 0.84116 0.76227 0.42054 0.0
O75 O 0.81985 0.73159 0.40676 0.0
N76 N 0.89537 0.82418 0.3516 0.0
C77 C 0.88266 0.84078 0.32359 0.0
C78 C 0.89485 0.88241 0.32251 0.0
C79 C 0.91558 0.8556 0.36703 0.0
N80 N 0.9159 0.89163 0.3497 0.0
C81 C 0.83057 0.73105 0.32104 0.0
C82 C 0.76868 0.78727 0.34056 0.0
C83 C 0.75874 0.7582 0.31643 0.0
C84 C 0.79042 0.72968 0.30674 0.0
C85 C 0.80905 0.78796 0.35377 0.0
N86 N 0.83932 0.75952 0.34465 0.0
H87 H 0.85488 0.7101 0.31239 0.0
H88 H 0.81617 0.81208 0.37125 0.0
H89 H 0.86805 0.82312 0.30441 0.0
H90 H 0.93186 0.85129 0.38952 0.0
O91 O 0.93 0.75501 0.32435 0.0
O92 O 0.95564 0.76994 0.37237 0.0
O93 O 0.87286 0.77893 0.40627 0.0
C94 C 0.96289 0.76218 0.34233 0.0
H95 H 0.92233 0.6265 0.42062 0.0
H96 H 0.89149 0.9032 0.30213 0.0
H97 H 0.74554 0.80968 0.3493 0.0
H98 H 0.78475 0.70728 0.28766 0.0
Co99 Co 0.76496 0.39721 0.8624 0.0
C100 C 0.85678 0.41237 0.85378 0.0
C101 C 0.84107 0.404 0.9031 0.0
C102 C 0.88272 0.41591 0.90109 0.0
N103 N 0.8248 0.40038 0.87336 0.0
N104 N 0.89239 0.42152 0.87011 0.0
H105 H 0.8533 0.41796 0.82842 0.0
H106 H 0.82323 0.40277 0.92507 0.0
C107 C 0.76729 0.34269 0.92082 0.0
O108 O 0.79806 0.32119 0.90731 0.0
N109 N 0.70588 0.39606 0.85143 0.0
C110 C 0.68941 0.38321 0.8234 0.0
C111 C 0.64747 0.39435 0.82258 0.0
C112 C 0.6741 0.41534 0.86713 0.0
N113 N 0.63794 0.41485 0.84997 0.0
C114 C 0.79898 0.33131 0.82117 0.0
C115 C 0.7427 0.26958 0.84084 0.0
C116 C 0.77154 0.25959 0.81653 0.0
C117 C 0.80014 0.29117 0.8068 0.0
C118 C 0.74216 0.30993 0.85407 0.0
N119 N 0.7706 0.34014 0.84485 0.0
H120 H 0.81995 0.35558 0.81249 0.0
H121 H 0.71808 0.31712 0.87157 0.0
H122 H 0.70726 0.36899 0.80413 0.0
H123 H 0.67811 0.43136 0.88978 0.0
O124 O 0.77516 0.43069 0.82428 0.0
O125 O 0.75989 0.45658 0.87218 0.0
O126 O 0.75076 0.37421 0.9063 0.0
C127 C 0.76791 0.46367 0.84217 0.0
H128 H 0.90291 0.42445 0.92097 0.0
H129 H 0.62656 0.39055 0.80233 0.0
H130 H 0.72027 0.24651 0.84966 0.0
H131 H 0.8224 0.28547 0.78762 0.0
Co132 Co 0.62944 0.26354 0.20407 0.0
C133 C 0.61275 0.17167 0.21065 0.0
C134 C 0.62182 0.18905 0.16173 0.0
C135 C 0.60958 0.14744 0.16278 0.0
N136 N 0.62528 0.2042 0.19183 0.0
N137 N 0.60358 0.13673 0.19351 0.0
H138 H 0.60693 0.17428 0.23605 0.0
H139 H 0.62356 0.20764 0.14016 0.0
C140 C 0.68488 0.26197 0.1461 0.0
O141 O 0.70551 0.23038 0.15925 0.0
N142 N 0.63151 0.32219 0.21621 0.0
C143 C 0.64403 0.33756 0.24469 0.0
C144 C 0.63239 0.37932 0.24656 0.0
C145 C 0.61208 0.35444 0.20128 0.0
N146 N 0.61193 0.3898 0.21938 0.0
C147 C 0.69424 0.22636 0.24466 0.0
C148 C 0.75784 0.28119 0.22595 0.0
C149 C 0.7671 0.25011 0.24863 0.0
C150 C 0.73459 0.22277 0.25838 0.0
C151 C 0.71719 0.2842 0.2134 0.0
N152 N 0.68618 0.25616 0.22186 0.0
H153 H 0.66937 0.20579 0.2529 0.0
H154 H 0.71054 0.30956 0.19686 0.0
H155 H 0.65803 0.31896 0.26361 0.0
H156 H 0.59612 0.35118 0.17855 0.0
O157 O 0.59523 0.25273 0.24176 0.0
O158 O 0.57025 0.27004 0.19403 0.0
O159 O 0.65342 0.2787 0.16063 0.0
C160 C 0.5626 0.26127 0.22384 0.0
H161 H 0.60126 0.12797 0.14244 0.0
H162 H 0.63565 0.39931 0.26741 0.0
H163 H 0.78164 0.30377 0.2185 0.0
H164 H 0.74034 0.1988 0.27633 0.0
Co165 Co 0.2642 0.1302 0.70233 0.0
C166 C 0.35572 0.11565 0.71353 0.0
C167 C 0.34183 0.12124 0.66369 0.0
C168 C 0.38339 0.10959 0.66688 0.0
N169 N 0.32451 0.12661 0.69296 0.0
N170 N 0.39194 0.10574 0.69819 0.0
H171 H 0.35123 0.11117 0.73892 0.0
H172 H 0.32473 0.12115 0.64138 0.0
C173 C 0.27035 0.18308 0.64321 0.0
O174 O 0.30184 0.20346 0.65673 0.0
N175 N 0.20459 0.13158 0.71147 0.0
C176 C 0.18577 0.14551 0.7384 0.0
C177 C 0.14411 0.13294 0.738 0.0
C178 C 0.17456 0.11046 0.69528 0.0
N179 N 0.13735 0.11053 0.71104 0.0
C180 C 0.29604 0.19616 0.74429 0.0
C181 C 0.24254 0.25863 0.72184 0.0
C182 C 0.26987 0.26848 0.74713 0.0
C183 C 0.29701 0.23649 0.75829 0.0
C184 C 0.24216 0.21804 0.70894 0.0
N185 N 0.26929 0.18747 0.71956 0.0
H186 H 0.3158 0.17164 0.75407 0.0
H187 H 0.21913 0.21097 0.69065 0.0
H188 H 0.20184 0.16121 0.75788 0.0
H189 H 0.18062 0.09309 0.67346 0.0
O190 O 0.2725 0.09721 0.74095 0.0
O191 O 0.25948 0.07068 0.69288 0.0
O192 O 0.25202 0.15282 0.65802 0.0
C193 C 0.26607 0.064 0.72313 0.0
H194 H 0.40429 0.09998 0.64769 0.0
H195 H 0.12156 0.13694 0.75724 0.0
H196 H 0.22119 0.28197 0.71201 0.0
H197 H 0.31796 0.24206 0.7783 0.0
Co198 Co 0.39605 0.76081 0.20476 0.0
C199 C 0.41192 0.85289 0.21034 0.0
C200 C 0.40433 0.8343 0.16153 0.0
C201 C 0.41648 0.87596 0.16222 0.0
N202 N 0.40002 0.81988 0.19177 0.0
N203 N 0.42156 0.88742 0.19289 0.0
H204 H 0.41709 0.85089 0.23583 0.0
H205 H 0.40328 0.81515 0.14019 0.0
C206 C 0.34151 0.76114 0.14643 0.0
O207 O 0.32073 0.79295 0.15918 0.0
N208 N 0.3942 0.70244 0.21781 0.0
C209 C 0.38076 0.68802 0.24637 0.0
C210 C 0.39448 0.64713 0.25009 0.0
C211 C 0.41605 0.67033 0.2046 0.0
N212 N 0.41708 0.63627 0.22399 0.0
C213 C 0.33099 0.7982 0.245 0.0
C214 C 0.2675 0.74322 0.22639 0.0
C215 C 0.25822 0.77426 0.24912 0.0
C216 C 0.29066 0.80171 0.25879 0.0
C217 C 0.30816 0.74026 0.21378 0.0
N218 N 0.33912 0.76836 0.22221 0.0
H219 H 0.35583 0.81878 0.25326 0.0
H220 H 0.31492 0.71478 0.19736 0.0
H221 H 0.36494 0.70693 0.26429 0.0
H222 H 0.43438 0.67338 0.18286 0.0
O223 O 0.42984 0.77282 0.24243 0.0
O224 O 0.45536 0.75451 0.19502 0.0
O225 O 0.37265 0.74452 0.16137 0.0
C226 C 0.46268 0.76418 0.22472 0.0
H227 H 0.42541 0.89493 0.14176 0.0
H228 H 0.3905 0.6279 0.27127 0.0
H229 H 0.24374 0.72056 0.21901 0.0
H230 H 0.28488 0.82566 0.27678 0.0
Co231 Co 0.76392 0.89714 0.70468 0.0
C232 C 0.67249 0.9124 0.71563 0.0
C233 C 0.68567 0.90202 0.66611 0.0
C234 C 0.64407 0.91373 0.66909 0.0
N235 N 0.70352 0.89979 0.6954 0.0
N236 N 0.63598 0.9206 0.70019 0.0
H237 H 0.67722 0.91897 0.74074 0.0
H238 H 0.70231 0.89999 0.64365 0.0
C239 C 0.75996 0.84185 0.64648 0.0
O240 O 0.73004 0.81984 0.66059 0.0
N241 N 0.82356 0.89659 0.71374 0.0
C242 C 0.84246 0.88364 0.74087 0.0
C243 C 0.88401 0.89653 0.74024 0.0
C244 C 0.85342 0.91754 0.6972 0.0
N245 N 0.8906 0.91821 0.71293 0.0
C246 C 0.73134 0.8318 0.74673 0.0
C247 C 0.78567 0.76904 0.72571 0.0
C248 C 0.75643 0.75936 0.74972 0.0
C249 C 0.72935 0.79146 0.76058 0.0
C250 C 0.78713 0.80972 0.713 0.0
N251 N 0.75928 0.84027 0.72268 0.0
H252 H 0.71098 0.85634 0.7558 0.0
H253 H 0.81107 0.81676 0.69535 0.0
H254 H 0.82649 0.86836 0.76061 0.0
H255 H 0.84724 0.93425 0.67512 0.0
O256 O 0.75544 0.93084 0.74293 0.0
O257 O 0.76807 0.95649 0.69452 0.0
O258 O 0.77628 0.87383 0.66056 0.0
C259 C 0.76161 0.96372 0.72474 0.0
H260 H 0.62278 0.92124 0.64964 0.0
H261 H 0.90659 0.89325 0.75951 0.0
H262 H 0.80801 0.74556 0.71731 0.0
H263 H 0.70675 0.78539 0.77949 0.0
H264 H 0.99106 0.63701 0.3342 0.0
H265 H 0.90099 0.5563 0.38161 0.0
H266 H 0.03746 0.57591 0.32493 0.0
H267 H 0.94656 0.49498 0.3716 0.0
H268 H 0.03109 0.38962 0.33338 0.0
H269 H 0.98482 0.45082 0.32396 0.0
H270 H 0.07423 0.53115 0.37276 0.0
H271 H 0.11953 0.4697 0.38294 0.0
C272 C 0.98059 0.60588 0.34153 0.0
C273 C 0.94254 0.60099 0.35846 0.0
C274 C 1.00711 0.57112 0.3364 0.0
C275 C 0.99541 0.53085 0.34747 0.0
C276 C 0.95602 0.52561 0.36249 0.0
C277 C 0.93006 0.5605 0.36828 0.0
C278 C 0.04125 0.42066 0.34113 0.0
C279 C 0.07878 0.42537 0.35868 0.0
C280 C 0.01482 0.45548 0.33593 0.0
C281 C 0.02614 0.49559 0.34755 0.0
C282 C 0.06508 0.50065 0.36321 0.0
C283 C 0.09091 0.4657 0.36908 0.0
H284 H 0.97374 0.40384 0.88212 0.0
H285 H 0.8918 0.49252 0.83455 0.0
H286 H 0.0344 0.45033 0.87219 0.0
H287 H 0.95222 0.53983 0.82537 0.0
H288 H 0.1385 0.53601 0.8334 0.0
H289 H 0.07793 0.48885 0.82442 0.0
H290 H 0.99656 0.57756 0.87305 0.0
H291 H 0.0574 0.6239 0.88276 0.0
C292 C 0.96913 0.4328 0.86877 0.0
C293 C 0.92849 0.44462 0.85886 0.0
C294 C 1.00365 0.4593 0.86304 0.0
C295 C 0.99784 0.49856 0.848 0.0
C296 C 0.95744 0.50961 0.83687 0.0
C297 C 0.92306 0.48256 0.84193 0.0
C298 C 0.10737 0.54584 0.84123 0.0
C299 C 0.10224 0.58351 0.8586 0.0
C300 C 0.07291 0.51888 0.83628 0.0
C301 C 0.0327 0.52974 0.84797 0.0
C302 C 0.02716 0.56875 0.86347 0.0
C303 C 0.06177 0.59515 0.86908 0.0
H304 H 0.40389 0.9679 0.17795 0.0
H305 H 0.49159 0.88918 0.22951 0.0
H306 H 0.44934 0.02953 0.18735 0.0
H307 H 0.5379 0.95052 0.23813 0.0
H308 H 0.53209 0.13572 0.22855 0.0
H309 H 0.48544 0.07451 0.23675 0.0
H310 H 0.57637 0.99448 0.18922 0.0
H311 H 0.62217 0.05595 0.18021 0.0
C312 C 0.43242 0.96422 0.19196 0.0
C313 C 0.44424 0.92421 0.20324 0.0
C314 C 0.4583 0.99927 0.1974 0.0
C315 C 0.49696 0.9946 0.21351 0.0
C316 C 0.50809 0.95484 0.22582 0.0
C317 C 0.48162 0.91996 0.22106 0.0
C318 C 0.54247 0.10475 0.22076 0.0
C319 C 0.58064 0.10014 0.20394 0.0
C320 C 0.51581 0.06995 0.22527 0.0
C321 C 0.52753 0.02994 0.21371 0.0
C322 C 0.56693 0.02495 0.19868 0.0
C323 C 0.59302 0.0599 0.19348 0.0
H324 H 0.63754 0.99185 0.73558 0.0
H325 H 0.55429 0.90279 0.68966 0.0
H326 H 0.57749 0.03938 0.74525 0.0
H327 H 0.49405 0.94958 0.69995 0.0
H328 H 0.47355 0.1235 0.68751 0.0
H329 H 0.53383 0.07718 0.69872 0.0
H330 H 0.4504 0.98896 0.74584 0.0
H331 H 0.39032 0.03612 0.73526 0.0
C332 C 0.60609 0.98184 0.72869 0.0
C333 C 0.6002 0.94376 0.71199 0.0
C334 C 0.5719 1.00902 0.73403 0.0
C335 C 0.53123 0.99803 0.72339 0.0
C336 C 0.52499 0.95855 0.70874 0.0
C337 C 0.55929 0.93189 0.70277 0.0
C338 C 0.46859 0.09493 0.70126 0.0
C339 C 0.42768 0.08335 0.71074 0.0
C340 C 0.5029 0.06851 0.70774 0.0
C341 C 0.49665 0.02955 0.72314 0.0
C342 C 0.45599 0.01893 0.73405 0.0
C343 C 0.42179 0.0459 0.7282 0.0
H344 H 0.49403 0.29976 0.19743 0.0
H345 H 0.53307 0.22772 0.27983 0.0
H346 H 0.42322 0.30638 0.21968 0.0
H347 H 0.46165 0.23248 0.3016 0.0
H348 H 0.34261 0.28153 0.34832 0.0
H349 H 0.41354 0.27869 0.32569 0.0
H350 H 0.35993 0.27111 0.23079 0.0
H351 H 0.28904 0.27575 0.25366 0.0
C352 C 0.48726 0.2848 0.22015 0.0
C353 C 0.51912 0.26322 0.2369 0.0
C354 C 0.44651 0.28843 0.2329 0.0
C355 C 0.43635 0.27008 0.26258 0.0
C356 C 0.46828 0.24787 0.27905 0.0
C357 C 0.50923 0.24478 0.26647 0.0
C358 C 0.34612 0.2796 0.3226 0.0
C359 C 0.31031 0.2789 0.30275 0.0
C360 C 0.3868 0.27757 0.30957 0.0
C361 C 0.39282 0.27415 0.27632 0.0
C362 C 0.35682 0.27427 0.25645 0.0
C363 C 0.31608 0.2769 0.26951 0.0
H364 H 0.2269 0.99498 0.69802 0.0
H365 H 0.30181 0.03562 0.7786 0.0
H366 H 0.22388 0.92344 0.72012 0.0
H367 H 0.29932 0.96377 0.80046 0.0
H368 H 0.32731 0.81925 0.80329 0.0
H369 H 0.32805 0.89075 0.78205 0.0
H370 H 0.1926 0.88666 0.77074 0.0
H371 H 0.19121 0.8155 0.79355 0.0
C372 C 0.24288 0.98854 0.72039 0.0
C373 C 0.26473 0.0208 0.73657 0.0
C374 C 0.24087 0.9477 0.73312 0.0
C375 C 0.26135 0.93807 0.76198 0.0
C376 C 0.28341 0.97029 0.77808 0.0
C377 C 0.28472 1.01138 0.76566 0.0
C378 C 0.29743 0.8336 0.7969 0.0
C379 C 0.25907 0.81143 0.8007 0.0
C380 C 0.298 0.87462 0.78454 0.0
C381 C 0.26039 0.89437 0.77498 0.0
C382 C 0.22212 0.87207 0.77784 0.0
C383 C 0.22141 0.83118 0.79075 0.0
H384 H 0.53152 0.72429 0.19985 0.0
H385 H 0.49185 0.80224 0.27913 0.0
H386 H 0.60325 0.72195 0.22153 0.0
H387 H 0.56389 0.8003 0.30062 0.0
H388 H 0.70824 0.82688 0.30381 0.0
H389 H 0.63676 0.82767 0.2825 0.0
H390 H 0.64049 0.69214 0.27165 0.0
H391 H 0.71169 0.69078 0.29437 0.0
C392 C 0.5382 0.7411 0.22184 0.0
C393 C 0.50613 0.76357 0.23778 0.0
C394 C 0.57918 0.73947 0.23434 0.0
C395 C 0.58915 0.7609 0.26275 0.0
C396 C 0.55714 0.78367 0.27857 0.0
C397 C 0.51593 0.78467 0.26636 0.0
C398 C 0.69381 0.79702 0.29744 0.0
C399 C 0.71587 0.75864 0.30135 0.0
C400 C 0.6528 0.79761 0.28506 0.0
C401 C 0.63292 0.75998 0.27565 0.0
C402 C 0.65515 0.72169 0.27861 0.0
C403 C 0.69606 0.72098 0.29149 0.0
H404 H 0.8384 0.21234 0.79356 0.0
H405 H 0.7024 0.20948 0.80437 0.0
H406 H 0.83627 0.14119 0.77067 0.0
H407 H 0.70093 0.13803 0.78304 0.0
H408 H 0.72645 0.99296 0.7802 0.0
H409 H 0.7295 0.06504 0.8016 0.0
H410 H 0.80407 0.10415 0.72039 0.0
H411 H 0.80048 0.03236 0.69874 0.0
C412 C 0.80807 0.19685 0.79096 0.0
C413 C 0.77067 0.2168 0.80129 0.0
C414 C 0.80693 0.15598 0.778 0.0
C415 C 0.76848 0.13394 0.77546 0.0
C416 C 0.7311 0.15396 0.78528 0.0
C417 C 0.73211 0.19494 0.7977 0.0
C418 C 0.74343 0.01699 0.76695 0.0
C419 C 0.76303 1.00716 0.73776 0.0
C420 C 0.74507 0.05821 0.77911 0.0
C421 C 0.76708 0.09015 0.76264 0.0
C422 C 0.78713 0.08012 0.73366 0.0
C423 C 0.78478 0.03914 0.72119 0.0
H424 H 0.99486 0.22236 0.36606 0.0
H425 H 0.03318 0.29829 0.28545 0.0
H426 H 0.92407 0.21611 0.34382 0.0
H427 H 0.96173 0.29403 0.26377 0.0
H428 H 0.84203 0.24808 0.21656 0.0
H429 H 0.91322 0.24968 0.23869 0.0
H430 H 0.86068 0.2513 0.33418 0.0
H431 H 0.78956 0.24771 0.31172 0.0
C432 C 0.98792 0.2382 0.34372 0.0
C433 C 0.01955 0.26082 0.32748 0.0
C434 C 0.94718 0.23482 0.33099 0.0
C435 C 0.93677 0.25453 0.30188 0.0
C436 C 0.96853 0.27761 0.28586 0.0
C437 C 1.0095 0.2804 0.29838 0.0
C438 C 0.84586 0.24842 0.24229 0.0
C439 C 0.8103 0.24774 0.26243 0.0
C440 C 0.88669 0.24974 0.25504 0.0
C441 C 0.89309 0.25112 0.28833 0.0
C442 C 0.85732 0.24968 0.30847 0.0
C443 C 0.81644 0.24769 0.29565 0.0
H444 H 0.29894 0.49411 0.86592 0.0
H445 H 0.22717 0.53616 0.78415 0.0
H446 H 0.30152 0.42268 0.84374 0.0
H447 H 0.22937 0.4644 0.7621 0.0
H448 H 0.20118 0.32038 0.75636 0.0
H449 H 0.19986 0.39176 0.77792 0.0
H450 H 0.33421 0.3856 0.79493 0.0
H451 H 0.3362 0.31453 0.77204 0.0
C452 C 0.28353 0.48803 0.84327 0.0
C453 C 0.26274 0.5207 0.82679 0.0
C454 C 0.2853 0.4472 0.83048 0.0
C455 C 0.26571 0.43797 0.80119 0.0
C456 C 0.24456 0.47057 0.78483 0.0
C457 C 0.24342 0.51162 0.79737 0.0
C458 C 0.23072 0.33427 0.76412 0.0
C459 C 0.26895 0.31152 0.76197 0.0
C460 C 0.22982 0.37523 0.77664 0.0
C461 C 0.26693 0.39437 0.78792 0.0
C462 C 0.30503 0.37152 0.78655 0.0
C463 C 0.30609 0.33067 0.77357 0.0
H464 H 0.0315 0.80138 0.36798 0.0
H465 H 0.99206 0.72699 0.28685 0.0
H466 H 0.10226 0.80717 0.34554 0.0
H467 H 0.06348 0.73071 0.26498 0.0
H468 H 0.18309 0.77663 0.21747 0.0
H469 H 0.11206 0.77493 0.24 0.0
H470 H 0.16536 0.77201 0.33517 0.0
H471 H 0.23628 0.77581 0.31233 0.0
C472 C 0.03821 0.7857 0.34551 0.0
C473 C 1.00627 0.76372 0.32915 0.0
C474 C 0.07893 0.78884 0.33265 0.0
C475 C 0.089 0.76947 0.30331 0.0
C476 C 0.05696 0.74689 0.28724 0.0
C477 C 0.01601 0.74439 0.29987 0.0
C478 C 0.17945 0.776 0.24322 0.0
C479 C 0.21514 0.77643 0.26317 0.0
C480 C 0.13872 0.77459 0.25621 0.0
C481 C 0.13258 0.77284 0.28953 0.0
C482 C 0.16851 0.77394 0.30946 0.0
C483 C 0.20928 0.77605 0.29642 0.0
H484 H 0.75393 0.68426 0.71787 0.0
H485 H 0.75742 0.7371 0.81287 0.0
H486 H 0.75601 0.61318 0.74017 0.0
H487 H 0.76148 0.66611 0.83542 0.0
H488 H 0.73 0.53282 0.8681 0.0
H489 H 0.72515 0.60366 0.84586 0.0
H490 H 0.80004 0.56384 0.76469 0.0
H491 H 0.80288 0.49233 0.78642 0.0
C492 C 0.75534 0.68055 0.74359 0.0
C493 C 0.75544 0.71618 0.76364 0.0
C494 C 0.75691 0.63978 0.75643 0.0
C495 C 0.75929 0.63352 0.78971 0.0
C496 C 0.759 0.66938 0.80974 0.0
C497 C 0.75676 0.71018 0.79686 0.0
C498 C 0.74553 0.53929 0.84554 0.0
C499 C 0.76681 0.50704 0.82898 0.0
C500 C 0.74295 0.58007 0.8328 0.0
C501 C 0.76218 0.58989 0.80336 0.0
C502 C 0.78403 0.55752 0.78706 0.0
C503 C 0.786 0.51651 0.79959 0.0
H504 H 0.22678 0.31311 0.46388 0.0
H505 H 0.16523 0.19268 0.44985 0.0
H506 H 0.2466 0.29231 0.51764 0.0
H507 H 0.1867 0.17087 0.50343 0.0
H508 H 0.19695 0.16161 0.61257 0.0
H509 H 0.17487 0.18167 0.5588 0.0
H510 H 0.29304 0.24819 0.54552 0.0
H511 H 0.31406 0.22971 0.59956 0.0
C512 C 0.21786 0.28194 0.47219 0.0
C513 C 0.19455 0.25449 0.45256 0.0
C514 C 0.22947 0.26984 0.50303 0.0
C515 C 0.21864 0.2297 0.51496 0.0
C516 C 0.19518 0.20222 0.49528 0.0
C517 C 0.18307 0.21459 0.46448 0.0
C518 C 0.21813 0.18056 0.59811 0.0
C519 C 0.25712 0.19432 0.61038 0.0
C520 C 0.20561 0.19186 0.56718 0.0
C521 C 0.23203 0.21678 0.54771 0.0
C522 C 0.27136 0.22983 0.55996 0.0
C523 C 0.28359 0.21902 0.59096 0.0
H524 H 0.26864 0.77645 0.11396 0.0
H525 H 0.38921 0.71344 0.10522 0.0
H526 H 0.25104 0.75627 0.05956 0.0
H527 H 0.37239 0.69458 0.05007 0.0
H528 H 0.31105 0.63586 0.9607 0.0
H529 H 0.32955 0.65218 1.016 0.0
H530 H 0.26901 0.77409 1.00677 0.0
H531 H 0.24918 0.75702 0.95221 0.0
C532 C 0.29151 0.75842 0.10032 0.0
C533 C 0.3304 0.74676 0.11384 0.0
C534 C 0.28157 0.74708 0.06897 0.0
C535 C 0.31051 0.72427 0.0501 0.0
C536 C 0.34915 0.71183 0.06389 0.0
C537 C 0.35889 0.72278 0.09549 0.0
C538 C 0.30184 0.66617 0.97053 0.0
C539 C 0.27834 0.69501 0.95217 0.0
C540 C 0.31259 0.67563 1.00221 0.0
C541 C 0.30043 0.71432 1.0161 0.0
C542 C 0.27798 0.74354 0.99727 0.0
C543 C 0.26684 0.73389 0.96583 0.0
H544 H 0.80633 0.88952 0.60453 0.0
H545 H 0.74395 0.76874 0.6142 0.0
H546 H 0.82571 0.87186 0.5497 0.0
H547 H 0.7647 0.75031 0.56001 0.0
H548 H 0.76787 0.74587 0.45241 0.0
H549 H 0.74879 0.76637 0.5065 0.0
H550 H 0.86962 0.82868 0.51731 0.0
H551 H 0.88792 0.80953 0.46251 0.0
C552 C 0.79711 0.85902 0.59504 0.0
C553 C 0.77334 0.83064 0.61364 0.0
C554 C 0.80842 0.84878 0.56363 0.0
C555 C 0.79659 0.80972 0.55021 0.0
C556 C 0.77355 0.78108 0.56917 0.0
C557 C 0.76186 0.79151 0.60039 0.0
C558 C 0.79034 0.76404 0.46629 0.0
C559 C 0.82947 0.77592 0.45321 0.0
C560 C 0.77953 0.77558 0.49746 0.0
C561 C 0.8078 0.79885 0.51655 0.0
C562 C 0.84682 0.81117 0.50327 0.0
C563 C 0.85744 0.80002 0.47188 0.0
H564 H 0.75847 0.24648 0.11446 0.0
H565 H 0.63829 0.30988 0.10447 0.0
H566 H 0.77769 0.26751 0.06053 0.0
H567 H 0.65673 0.32955 0.0498 0.0
H568 H 0.72018 0.39029 0.9624 0.0
H569 H 0.70048 0.37271 1.01722 0.0
H570 H 0.76171 0.25123 1.00714 0.0
H571 H 0.78278 0.2696 0.95306 0.0
C572 C 0.73602 0.26473 0.10063 0.0
C573 C 0.69679 0.27633 0.11367 0.0
C574 C 0.74691 0.27657 0.06956 0.0
C575 C 0.7186 0.29983 0.0505 0.0
C576 C 0.67954 0.31202 0.0638 0.0
C577 C 0.66885 0.30059 0.09511 0.0
C578 C 0.72934 0.35982 0.97195 0.0
C579 C 0.75332 0.33146 0.95349 0.0
C580 C 0.71788 0.34962 1.00335 0.0
C581 C 0.72976 0.31064 1.01684 0.0
C582 C 0.75288 0.28197 0.99795 0.0
C583 C 0.76474 0.29236 0.96678 0.0
H584 H 0.98799 0.89841 0.38481 0.0
H585 H 0.90039 0.96997 0.32696 0.0
H586 H 0.03514 0.95941 0.38704 0.0
H587 H 0.94807 0.03048 0.32866 0.0
H588 H 0.07134 0.0953 0.29733 0.0
H589 H 0.02148 0.03728 0.30311 0.0
H590 H 0.03999 0.03856 0.40533 0.0
H591 H 0.09053 0.09711 0.39947 0.0
C592 C 0.97826 0.92735 0.3732 0.0
C593 C 0.94061 0.92914 0.35531 0.0
C594 C 1.00538 0.96222 0.37441 0.0
C595 C 0.99545 0.99928 0.35761 0.0
C596 C 0.95676 1.00192 0.34134 0.0
C597 C 0.92955 0.96729 0.34032 0.0
C598 C 0.06534 0.08287 0.321 0.0
C599 C 0.08503 0.10047 0.34797 0.0
C600 C 0.03634 0.05006 0.32434 0.0
C601 C 0.02663 0.03385 0.35469 0.0
C602 C 0.04697 0.05064 0.38169 0.0
C603 C 0.07569 0.08402 0.37836 0.0
H604 H 0.43001 0.58676 0.89962 0.0
H605 H 0.43131 0.5647 0.79779 0.0
H606 H 0.4885 0.53628 0.90606 0.0
H607 H 0.48927 0.51495 0.80411 0.0
H608 H 0.55974 0.39672 0.82813 0.0
H609 H 0.49787 0.44261 0.83023 0.0
H610 H 0.5673 0.53211 0.88772 0.0
H611 H 0.62956 0.48666 0.88516 0.0
C612 C 0.4429 0.57122 0.87871 0.0
C613 C 0.42646 0.57985 0.84821 0.0
C614 C 0.47625 0.54254 0.88236 0.0
C615 C 0.49298 0.52153 0.85561 0.0
C616 C 0.47654 0.53031 0.82518 0.0
C617 C 0.44378 0.55925 0.82151 0.0
C618 C 0.56172 0.42599 0.84143 0.0
C619 C 0.59976 0.43831 0.85601 0.0
C620 C 0.52633 0.45217 0.84268 0.0
C621 C 0.52813 0.49107 0.85876 0.0
C622 C 0.56511 0.50216 0.87527 0.0
C623 C 0.60071 0.47603 0.87385 0.0
H624 H 0.45836 0.59616 0.27158 0.0
H625 H 0.43932 0.59615 0.1694 0.0
H626 H 0.5081 0.53798 0.26642 0.0
H627 H 0.48991 0.53767 0.16414 0.0
H628 H 0.54059 0.39836 0.1837 0.0
H629 H 0.49435 0.45992 0.18172 0.0
H630 H 0.58085 0.52845 0.24238 0.0
H631 H 0.62761 0.46721 0.24394 0.0
C632 C 0.46444 0.58338 0.24803 0.0
C633 C 0.44471 0.60044 0.22089 0.0
C634 C 0.4934 0.55048 0.24504 0.0
C635 C 0.50312 0.53369 0.21486 0.0
C636 C 0.48292 0.55014 0.18768 0.0
C637 C 0.45418 0.58352 0.19066 0.0
C638 C 0.55041 0.42685 0.19591 0.0
C639 C 0.58765 0.42771 0.21431 0.0
C640 C 0.52379 0.46206 0.19483 0.0
C641 C 0.53381 0.49862 0.21226 0.0
C642 C 0.57206 0.5003 0.2292 0.0
C643 C 0.59876 0.46527 0.23012 0.0
H644 H 0.05591 0.1287 0.72418 0.0
H645 H 0.13729 0.03289 0.68394 0.0
H646 H 0.99545 0.08097 0.71913 0.0
H647 H 0.07691 0.98543 0.67849 0.0
H648 H 0.97212 0.90058 0.72595 0.0
H649 H 0.03245 0.94828 0.71997 0.0
H650 H 0.95055 0.04268 0.67848 0.0
H651 H 0.89028 0.99519 0.68484 0.0
C652 C 0.06065 0.09768 0.71383 0.0
C653 C 0.10117 0.08451 0.70446 0.0
C654 C 0.02612 0.07052 0.71071 0.0
C655 C 0.03162 0.0295 0.69848 0.0
C656 C 0.0719 0.01681 0.68814 0.0
C657 C 0.10633 0.04413 0.69097 0.0
C658 C 0.96726 0.93133 0.71522 0.0
C659 C 0.92666 0.94419 0.70586 0.0
C660 C 1.00171 0.95848 0.71157 0.0
C661 C 0.99605 0.99917 0.69881 0.0
C662 C 0.95568 1.01155 0.68852 0.0
C663 C 0.92132 0.98422 0.69187 0.0
loop_
_geom_bond_atom_site_label_1
_geom_bond_atom_site_label_2
_geom_bond_distance
_geom_bond_site_symmetry_2
_ccdc_geom_bond_type
Co0 N4 2.148 . S
Co0 N10 2.128 . S
Co0 N20 2.194 . S
Co0 O25 2.351 . S
Co0 O26 2.155 1_455 S
Co0 O27 2.096 . S
C1 N4 1.301 . S
C1 N5 1.328 . S
C1 H6 0.930 . S
C2 C3 1.333 . S
C2 N4 1.317 . S
C2 H7 0.930 . S
C3 C2 1.333 . S
C3 N5 1.350 . S
C3 H29 0.931 . S
N4 Co0 2.148 . S
N4 C1 1.301 . S
N4 C2 1.317 . S
N5 C1 1.328 . S
N5 C3 1.350 . S
H6 C1 0.930 . S
H7 C2 0.930 . S
C8 O9 1.224 . S
C8 O27 1.247 . S
O9 C8 1.224 . S
N10 Co0 2.128 . S
N10 C11 1.355 . S
N10 C13 1.311 . S
C11 N10 1.355 . S
C11 C12 1.363 . S
C11 H23 0.929 . S
C12 C11 1.363 . S
C12 N14 1.375 . S
C12 H30 0.931 . S
C13 N10 1.311 . S
C13 N14 1.347 . S
C13 H24 0.929 . S
N14 C12 1.375 . S
N14 C13 1.347 . S
C15 C18 1.365 . S
C15 N20 1.328 . S
C15 H21 0.929 . S
C16 C17 1.362 . S
C16 C19 1.378 . S
C16 H31 0.929 . S
C17 C16 1.362 . S
C17 C18 1.366 . S
C18 C15 1.365 . S
C18 C17 1.366 . S
C18 H32 0.930 . S
C19 C16 1.378 . S
C19 N20 1.315 . S
C19 H22 0.930 . S
N20 Co0 2.194 . S
N20 C15 1.328 . S
N20 C19 1.315 . S
H21 C15 0.929 . S
H22 C19 0.930 . S
H23 C11 0.929 . S
H24 C13 0.929 . S
O25 Co0 2.351 . S
O25 C28 1.244 1_455 S
O26 Co0 2.155 1_655 S
O26 C28 1.240 . S
O27 Co0 2.096 . S
O27 C8 1.247 . S
C28 O25 1.244 1_655 S
C28 O26 1.240 . S
H29 C3 0.931 . S
H30 C12 0.931 . S
H31 C16 0.929 . S
H32 C18 0.930 . S
Co33 N37 2.148 . S
Co33 N43 2.128 . S
Co33 N53 2.194 . S
Co33 O58 2.351 . S
Co33 O59 2.155 . S
Co33 O60 2.096 . S
C34 N37 1.301 . S
C34 N38 1.328 . S
C34 H39 0.930 . S
C35 C36 1.333 . S
C35 N37 1.317 . S
C35 H40 0.930 . S
C36 C35 1.333 . S
C36 N38 1.350 . S
C36 H62 0.931 . S
N37 Co33 2.148 . S
N37 C34 1.301 . S
N37 C35 1.317 . S
N38 C34 1.328 . S
N38 C36 1.350 . S
H39 C34 0.930 . S
H40 C35 0.930 . S
C41 O42 1.224 . S
C41 O60 1.247 . S
O42 C41 1.224 . S
N43 Co33 2.128 . S
N43 C44 1.355 . S
N43 C46 1.311 . S
C44 N43 1.355 . S
C44 C45 1.363 . S
C44 H56 0.929 . S
C45 C44 1.363 . S
C45 N47 1.375 . S
C45 H63 0.931 . S
C46 N43 1.311 . S
C46 N47 1.347 . S
C46 H57 0.929 . S
N47 C45 1.375 . S
N47 C46 1.347 . S
C48 C51 1.365 . S
C48 N53 1.328 . S
C48 H54 0.929 . S
C49 C50 1.362 . S
C49 C52 1.378 . S
C49 H64 0.929 . S
C50 C49 1.362 . S
C50 C51 1.366 . S
C51 C48 1.365 . S
C51 C50 1.366 . S
C51 H65 0.930 . S
C52 C49 1.378 . S
C52 N53 1.315 . S
C52 H55 0.930 . S
N53 Co33 2.194 . S
N53 C48 1.328 . S
N53 C52 1.315 . S
H54 C48 0.929 . S
H55 C52 0.930 . S
H56 C44 0.929 . S
H57 C46 0.929 . S
O58 Co33 2.351 . S
O58 C61 1.244 . S
O59 Co33 2.155 . S
O59 C61 1.240 . S
O60 Co33 2.096 . S
O60 C41 1.247 . S
C61 O58 1.244 . S
C61 O59 1.240 . S
H62 C36 0.931 . S
H63 C45 0.931 . S
H64 C49 0.929 . S
H65 C51 0.930 . S
Co66 N70 2.148 . S
Co66 N76 2.128 . S
Co66 N86 2.194 . S
Co66 O91 2.351 . S
Co66 O92 2.155 1_655 S
Co66 O93 2.096 . S
C67 N70 1.301 . S
C67 N71 1.328 . S
C67 H72 0.930 . S
C68 C69 1.333 . S
C68 N70 1.317 . S
C68 H73 0.930 . S
C69 C68 1.333 . S
C69 N71 1.350 . S
C69 H95 0.931 . S
N70 Co66 2.148 . S
N70 C67 1.301 . S
N70 C68 1.317 . S
N71 C67 1.328 . S
N71 C69 1.350 . S
H72 C67 0.930 . S
H73 C68 0.930 . S
C74 O75 1.224 . S
C74 O93 1.247 . S
O75 C74 1.224 . S
N76 Co66 2.128 . S
N76 C77 1.355 . S
N76 C79 1.311 . S
C77 N76 1.355 . S
C77 C78 1.363 . S
C77 H89 0.929 . S
C78 C77 1.363 . S
C78 N80 1.375 . S
C78 H96 0.931 . S
C79 N76 1.311 . S
C79 N80 1.347 . S
C79 H90 0.929 . S
N80 C78 1.375 . S
N80 C79 1.347 . S
C81 C84 1.365 . S
C81 N86 1.328 . S
C81 H87 0.929 . S
C82 C83 1.362 . S
C82 C85 1.378 . S
C82 H97 0.929 . S
C83 C82 1.362 . S
C83 C84 1.366 . S
C84 C81 1.365 . S
C84 C83 1.366 . S
C84 H98 0.930 . S
C85 C82 1.378 . S
C85 N86 1.315 . S
C85 H88 0.930 . S
N86 Co66 2.194 . S
N86 C81 1.328 . S
N86 C85 1.315 . S
H87 C81 0.929 . S
H88 C85 0.930 . S
H89 C77 0.929 . S
H90 C79 0.929 . S
O91 Co66 2.351 . S
O91 C94 1.244 1_655 S
O92 Co66 2.155 1_455 S
O92 C94 1.240 . S
O93 Co66 2.096 . S
O93 C74 1.247 . S
C94 O91 1.244 1_455 S
C94 O92 1.240 . S
H95 C69 0.931 . S
H96 C78 0.931 . S
H97 C82 0.929 . S
H98 C84 0.930 . S
Co99 N103 2.148 . S
Co99 N109 2.128 . S
Co99 N119 2.194 . S
Co99 O124 2.351 . S
Co99 O125 2.155 . S
Co99 O126 2.096 . S
C100 N103 1.301 . S
C100 N104 1.328 . S
C100 H105 0.930 . S
C101 C102 1.333 . S
C101 N103 1.317 . S
C101 H106 0.930 . S
C102 C101 1.333 . S
C102 N104 1.350 . S
C102 H128 0.931 . S
N103 Co99 2.148 . S
N103 C100 1.301 . S
N103 C101 1.317 . S
N104 C100 1.328 . S
N104 C102 1.350 . S
H105 C100 0.930 . S
H106 C101 0.930 . S
C107 O108 1.224 . S
C107 O126 1.247 . S
O108 C107 1.224 . S
N109 Co99 2.128 . S
N109 C110 1.355 . S
N109 C112 1.311 . S
C110 N109 1.355 . S
C110 C111 1.363 . S
C110 H122 0.929 . S
C111 C110 1.363 . S
C111 N113 1.375 . S
C111 H129 0.931 . S
C112 N109 1.311 . S
C112 N113 1.347 . S
C112 H123 0.929 . S
N113 C111 1.375 . S
N113 C112 1.347 . S
C114 C117 1.365 . S
C114 N119 1.328 . S
C114 H120 0.929 . S
C115 C116 1.362 . S
C115 C118 1.378 . S
C115 H130 0.929 . S
C116 C115 1.362 . S
C116 C117 1.366 . S
C117 C114 1.365 . S
C117 C116 1.366 . S
C117 H131 0.930 . S
C118 C115 1.378 . S
C118 N119 1.315 . S
C118 H121 0.930 . S
N119 Co99 2.194 . S
N119 C114 1.328 . S
N119 C118 1.315 . S
H120 C114 0.929 . S
H121 C118 0.930 . S
H122 C110 0.929 . S
H123 C112 0.929 . S
O124 Co99 2.351 . S
O124 C127 1.244 . S
O125 Co99 2.155 . S
O125 C127 1.240 . S
O126 Co99 2.096 . S
O126 C107 1.247 . S
C127 O124 1.244 . S
C127 O125 1.240 . S
H128 C102 0.931 . S
H129 C111 0.931 . S
H130 C115 0.929 . S
H131 C117 0.930 . S
Co132 N136 2.148 . S
Co132 N142 2.128 . S
Co132 N152 2.194 . S
Co132 O157 2.351 . S
Co132 O158 2.155 . S
Co132 O159 2.096 . S
C133 N136 1.301 . S
C133 N137 1.328 . S
C133 H138 0.930 . S
C134 C135 1.333 . S
C134 N136 1.317 . S
C134 H139 0.930 . S
C135 C134 1.333 . S
C135 N137 1.350 . S
C135 H161 0.931 . S
N136 Co132 2.148 . S
N136 C133 1.301 . S
N136 C134 1.317 . S
N137 C133 1.328 . S
N137 C135 1.350 . S
H138 C133 0.930 . S
H139 C134 0.930 . S
C140 O141 1.224 . S
C140 O159 1.247 . S
O141 C140 1.224 . S
N142 Co132 2.128 . S
N142 C143 1.355 . S
N142 C145 1.311 . S
C143 N142 1.355 . S
C143 C144 1.363 . S
C143 H155 0.929 . S
C144 C143 1.363 . S
C144 N146 1.375 . S
C144 H162 0.931 . S
C145 N142 1.311 . S
C145 N146 1.347 . S
C145 H156 0.929 . S
N146 C144 1.375 . S
N146 C145 1.347 . S
C147 C150 1.365 . S
C147 N152 1.328 . S
C147 H153 0.929 . S
C148 C149 1.362 . S
C148 C151 1.378 . S
C148 H163 0.929 . S
C149 C148 1.362 . S
C149 C150 1.366 . S
C150 C147 1.365 . S
C150 C149 1.366 . S
C150 H164 0.930 . S
C151 C148 1.378 . S
C151 N152 1.315 . S
C151 H154 0.930 . S
N152 Co132 2.194 . S
N152 C147 1.328 . S
N152 C151 1.315 . S
H153 C147 0.929 . S
H154 C151 0.930 . S
H155 C143 0.929 . S
H156 C145 0.929 . S
O157 Co132 2.351 . S
O157 C160 1.244 . S
O158 Co132 2.155 . S
O158 C160 1.240 . S
O159 Co132 2.096 . S
O159 C140 1.247 . S
C160 O157 1.244 . S
C160 O158 1.240 . S
H161 C135 0.931 . S
H162 C144 0.931 . S
H163 C148 0.929 . S
H164 C150 0.930 . S
Co165 N169 2.148 . S
Co165 N175 2.128 . S
Co165 N185 2.194 . S
Co165 O190 2.351 . S
Co165 O191 2.155 1_545 S
Co165 O192 2.096 . S
C166 N169 1.301 . S
C166 N170 1.328 . S
C166 H171 0.930 . S
C167 C168 1.333 . S
C167 N169 1.317 . S
C167 H172 0.930 . S
C168 C167 1.333 . S
C168 N170 1.350 . S
C168 H194 0.931 . S
N169 Co165 2.148 . S
N169 C166 1.301 . S
N169 C167 1.317 . S
N170 C166 1.328 . S
N170 C168 1.350 . S
H171 C166 0.930 . S
H172 C167 0.930 . S
C173 O174 1.224 . S
C173 O192 1.247 . S
O174 C173 1.224 . S
N175 Co165 2.128 . S
N175 C176 1.355 . S
N175 C178 1.311 . S
C176 N175 1.355 . S
C176 C177 1.363 . S
C176 H188 0.929 . S
C177 C176 1.363 . S
C177 N179 1.375 . S
C177 H195 0.931 . S
C178 N175 1.311 . S
C178 N179 1.347 . S
C178 H189 0.929 . S
N179 C177 1.375 . S
N179 C178 1.347 . S
C180 C183 1.365 . S
C180 N185 1.328 . S
C180 H186 0.929 . S
C181 C182 1.362 . S
C181 C184 1.378 . S
C181 H196 0.929 . S
C182 C181 1.362 . S
C182 C183 1.366 . S
C183 C180 1.365 . S
C183 C182 1.366 . S
C183 H197 0.930 . S
C184 C181 1.378 . S
C184 N185 1.315 . S
C184 H187 0.930 . S
N185 Co165 2.194 . S
N185 C180 1.328 . S
N185 C184 1.315 . S
H186 C180 0.929 . S
H187 C184 0.930 . S
H188 C176 0.929 . S
H189 C178 0.929 . S
O190 Co165 2.351 . S
O190 C193 1.244 1_545 S
O191 Co165 2.155 1_565 S
O191 C193 1.240 . S
O192 Co165 2.096 . S
O192 C173 1.247 . S
C193 O190 1.244 1_565 S
C193 O191 1.240 . S
H194 C168 0.931 . S
H195 C177 0.931 . S
H196 C181 0.929 . S
H197 C183 0.930 . S
Co198 N202 2.148 . S
Co198 N208 2.128 . S
Co198 N218 2.194 . S
Co198 O223 2.351 . S
Co198 O224 2.155 . S
Co198 O225 2.096 . S
C199 N202 1.301 . S
C199 N203 1.328 . S
C199 H204 0.930 . S
C200 C201 1.333 . S
C200 N202 1.317 . S
C200 H205 0.930 . S
C201 C200 1.333 . S
C201 N203 1.350 . S
C201 H227 0.931 . S
N202 Co198 2.148 . S
N202 C199 1.301 . S
N202 C200 1.317 . S
N203 C199 1.328 . S
N203 C201 1.350 . S
H204 C199 0.930 . S
H205 C200 0.930 . S
C206 O207 1.224 . S
C206 O225 1.247 . S
O207 C206 1.224 . S
N208 Co198 2.128 . S
N208 C209 1.355 . S
N208 C211 1.311 . S
C209 N208 1.355 . S
C209 C210 1.363 . S
C209 H221 0.929 . S
C210 C209 1.363 . S
C210 N212 1.375 . S
C210 H228 0.931 . S
C211 N208 1.311 . S
C211 N212 1.347 . S
C211 H222 0.929 . S
N212 C210 1.375 . S
N212 C211 1.347 . S
C213 C216 1.365 . S
C213 N218 1.328 . S
C213 H219 0.929 . S
C214 C215 1.362 . S
C214 C217 1.378 . S
C214 H229 0.929 . S
C215 C214 1.362 . S
C215 C216 1.366 . S
C216 C213 1.365 . S
C216 C215 1.366 . S
C216 H230 0.930 . S
C217 C214 1.378 . S
C217 N218 1.315 . S
C217 H220 0.930 . S
N218 Co198 2.194 . S
N218 C213 1.328 . S
N218 C217 1.315 . S
H219 C213 0.929 . S
H220 C217 0.930 . S
H221 C209 0.929 . S
H222 C211 0.929 . S
O223 Co198 2.351 . S
O223 C226 1.244 . S
O224 Co198 2.155 . S
O224 C226 1.240 . S
O225 Co198 2.096 . S
O225 C206 1.247 . S
C226 O223 1.244 . S
C226 O224 1.240 . S
H227 C201 0.931 . S
H228 C210 0.931 . S
H229 C214 0.929 . S
H230 C216 0.930 . S
Co231 N235 2.148 . S
Co231 N241 2.128 . S
Co231 N251 2.194 . S
Co231 O256 2.351 . S
Co231 O257 2.155 1_565 S
Co231 O258 2.096 . S
C232 N235 1.301 . S
C232 N236 1.328 . S
C232 H237 0.930 . S
C233 C234 1.333 . S
C233 N235 1.317 . S
C233 H238 0.930 . S
C234 C233 1.333 . S
C234 N236 1.350 . S
C234 H260 0.931 . S
N235 Co231 2.148 . S
N235 C232 1.301 . S
N235 C233 1.317 . S
N236 C232 1.328 . S
N236 C234 1.350 . S
H237 C232 0.930 . S
H238 C233 0.930 . S
C239 O240 1.224 . S
C239 O258 1.247 . S
O240 C239 1.224 . S
N241 Co231 2.128 . S
N241 C242 1.355 . S
N241 C244 1.311 . S
C242 N241 1.355 . S
C242 C243 1.363 . S
C242 H254 0.929 . S
C243 C242 1.363 . S
C243 N245 1.375 . S
C243 H261 0.931 . S
C244 N241 1.311 . S
C244 N245 1.347 . S
C244 H255 0.929 . S
N245 C243 1.375 . S
N245 C244 1.347 . S
C246 C249 1.365 . S
C246 N251 1.328 . S
C246 H252 0.929 . S
C247 C248 1.362 . S
C247 C250 1.378 . S
C247 H262 0.929 . S
C248 C247 1.362 . S
C248 C249 1.366 . S
C249 C246 1.365 . S
C249 C248 1.366 . S
C249 H263 0.930 . S
C250 C247 1.378 . S
C250 N251 1.315 . S
C250 H253 0.930 . S
N251 Co231 2.194 . S
N251 C246 1.328 . S
N251 C250 1.315 . S
H252 C246 0.929 . S
H253 C250 0.930 . S
H254 C242 0.929 . S
H255 C244 0.929 . S
O256 Co231 2.351 . S
O256 C259 1.244 1_565 S
O257 Co231 2.155 1_545 S
O257 C259 1.240 . S
O258 Co231 2.096 . S
O258 C239 1.247 . S
C259 O256 1.244 1_545 S
C259 O257 1.240 . S
H260 C234 0.931 . S
H261 C243 0.931 . S
H262 C247 0.929 . S
H263 C249 0.930 . S
H264 C272 0.950 . S
H265 C277 0.950 . S
H266 C274 0.950 . S
H267 C276 0.950 . S
H268 C278 0.950 . S
H269 C280 0.950 . S
H270 C282 0.950 . S
H271 C283 0.950 . S
C272 H264 0.950 . S
C272 C273 1.386 . S
C272 C274 1.391 . S
C273 C272 1.386 . S
C273 C277 1.393 . S
C274 H266 0.950 . S
C274 C272 1.391 . S
C274 C275 1.400 . S
C275 C274 1.400 . S
C275 C276 1.398 . S
C275 C281 1.491 1_655 S
C276 H267 0.950 . S
C276 C275 1.398 . S
C276 C277 1.391 . S
C277 H265 0.950 . S
C277 C273 1.393 . S
C277 C276 1.391 . S
C278 H268 0.950 . S
C278 C279 1.386 . S
C278 C280 1.391 . S
C279 C278 1.386 . S
C279 C283 1.393 . S
C280 H269 0.950 . S
C280 C278 1.391 . S
C280 C281 1.400 . S
C281 C275 1.491 1_455 S
C281 C280 1.400 . S
C281 C282 1.398 . S
C282 H270 0.950 . S
C282 C281 1.398 . S
C282 C283 1.391 . S
C283 H271 0.950 . S
C283 C279 1.393 . S
C283 C282 1.391 . S
H284 C292 0.950 . S
H285 C297 0.950 . S
H286 C294 0.950 . S
H287 C296 0.950 . S
H288 C298 0.950 . S
H289 C300 0.950 . S
H290 C302 0.950 . S
H291 C303 0.950 . S
C292 H284 0.950 . S
C292 C293 1.386 . S
C292 C294 1.391 . S
C293 C292 1.386 . S
C293 C297 1.393 . S
C294 H286 0.950 . S
C294 C292 1.391 . S
C294 C295 1.400 . S
C295 C294 1.400 . S
C295 C296 1.398 . S
C295 C301 1.491 1_655 S
C296 H287 0.950 . S
C296 C295 1.398 . S
C296 C297 1.391 . S
C297 H285 0.950 . S
C297 C293 1.393 . S
C297 C296 1.391 . S
C298 H288 0.950 . S
C298 C299 1.386 . S
C298 C300 1.391 . S
C299 C298 1.386 . S
C299 C303 1.393 . S
C300 H289 0.950 . S
C300 C298 1.391 . S
C300 C301 1.400 . S
C301 C295 1.491 1_455 S
C301 C300 1.400 . S
C301 C302 1.398 . S
C302 H290 0.950 . S
C302 C301 1.398 . S
C302 C303 1.391 . S
C303 H291 0.950 . S
C303 C299 1.393 . S
C303 C302 1.391 . S
H304 C312 0.950 . S
H305 C317 0.950 . S
H306 C314 0.950 . S
H307 C316 0.950 . S
H308 C318 0.950 . S
H309 C320 0.950 . S
H310 C322 0.950 . S
H311 C323 0.950 . S
C312 H304 0.950 . S
C312 C313 1.386 . S
C312 C314 1.391 . S
C313 C312 1.386 . S
C313 C317 1.393 . S
C314 H306 0.950 . S
C314 C312 1.391 . S
C314 C315 1.400 . S
C315 C314 1.400 . S
C315 C316 1.398 . S
C315 C321 1.491 1_565 S
C316 H307 0.950 . S
C316 C315 1.398 . S
C316 C317 1.391 . S
C317 H305 0.950 . S
C317 C313 1.393 . S
C317 C316 1.391 . S
C318 H308 0.950 . S
C318 C319 1.386 . S
C318 C320 1.391 . S
C319 C318 1.386 . S
C319 C323 1.393 . S
C320 H309 0.950 . S
C320 C318 1.391 . S
C320 C321 1.400 . S
C321 C315 1.491 1_545 S
C321 C320 1.400 . S
C321 C322 1.398 . S
C322 H310 0.950 . S
C322 C321 1.398 . S
C322 C323 1.391 . S
C323 H311 0.950 . S
C323 C319 1.393 . S
C323 C322 1.391 . S
H324 C332 0.950 . S
H325 C337 0.950 . S
H326 C334 0.950 . S
H327 C336 0.950 . S
H328 C338 0.950 . S
H329 C340 0.950 . S
H330 C342 0.950 . S
H331 C343 0.950 . S
C332 H324 0.950 . S
C332 C333 1.386 . S
C332 C334 1.391 . S
C333 C332 1.386 . S
C333 C337 1.393 . S
C334 H326 0.950 . S
C334 C332 1.391 . S
C334 C335 1.400 . S
C335 C334 1.400 . S
C335 C336 1.398 1_565 S
C335 C341 1.491 1_565 S
C336 H327 0.950 . S
C336 C335 1.398 1_545 S
C336 C337 1.391 1_545 S
C337 H325 0.950 . S
C337 C333 1.393 . S
C337 C336 1.391 1_565 S
C338 H328 0.950 . S
C338 C339 1.386 . S
C338 C340 1.391 . S
C339 C338 1.386 . S
C339 C343 1.393 . S
C340 H329 0.950 . S
C340 C338 1.391 . S
C340 C341 1.400 . S
C341 C335 1.491 1_545 S
C341 C340 1.400 . S
C341 C342 1.398 1_545 S
C342 H330 0.950 . S
C342 C341 1.398 1_565 S
C342 C343 1.391 1_565 S
C343 H331 0.950 . S
C343 C339 1.393 . S
C343 C342 1.391 1_545 S
H344 C352 0.950 . S
H345 C357 0.950 . S
H346 C354 0.950 . S
H347 C356 0.950 . S
H348 C358 0.950 . S
H349 C360 0.950 . S
H350 C362 0.950 . S
H351 C363 0.950 . S
C352 H344 0.950 . S
C352 C353 1.386 . S
C352 C354 1.391 . S
C353 C352 1.386 . S
C353 C357 1.393 . S
C354 H346 0.950 . S
C354 C352 1.391 . S
C354 C355 1.400 . S
C355 C354 1.400 . S
C355 C356 1.398 . S
C355 C361 1.491 . S
C356 H347 0.950 . S
C356 C355 1.398 . S
C356 C357 1.391 . S
C357 H345 0.950 . S
C357 C353 1.393 . S
C357 C356 1.391 . S
C358 H348 0.950 . S
C358 C359 1.386 . S
C358 C360 1.391 . S
C359 C358 1.386 . S
C359 C363 1.393 . S
C360 H349 0.950 . S
C360 C358 1.391 . S
C360 C361 1.400 . S
C361 C355 1.491 . S
C361 C360 1.400 . S
C361 C362 1.398 . S
C362 H350 0.950 . S
C362 C361 1.398 . S
C362 C363 1.391 . S
C363 H351 0.950 . S
C363 C359 1.393 . S
C363 C362 1.391 . S
H364 C372 0.950 . S
H365 C377 0.950 . S
H366 C374 0.950 . S
H367 C376 0.950 . S
H368 C378 0.950 . S
H369 C380 0.950 . S
H370 C382 0.950 . S
H371 C383 0.950 . S
C372 H364 0.950 . S
C372 C373 1.386 . S
C372 C374 1.391 . S
C373 C372 1.386 . S
C373 C377 1.393 . S
C374 H366 0.950 . S
C374 C372 1.391 . S
C374 C375 1.400 . S
C375 C374 1.400 . S
C375 C376 1.398 . S
C375 C381 1.491 . S
C376 H367 0.950 . S
C376 C375 1.398 . S
C376 C377 1.391 . S
C377 H365 0.950 . S
C377 C373 1.393 . S
C377 C376 1.391 . S
C378 H368 0.950 . S
C378 C379 1.386 . S
C378 C380 1.391 . S
C379 C378 1.386 . S
C379 C383 1.393 . S
C380 H369 0.950 . S
C380 C378 1.391 . S
C380 C381 1.400 . S
C381 C375 1.491 . S
C381 C380 1.400 . S
C381 C382 1.398 . S
C382 H370 0.950 . S
C382 C381 1.398 . S
C382 C383 1.391 . S
C383 H371 0.950 . S
C383 C379 1.393 . S
C383 C382 1.391 . S
H384 C392 0.950 . S
H385 C397 0.950 . S
H386 C394 0.950 . S
H387 C396 0.950 . S
H388 C398 0.950 . S
H389 C400 0.950 . S
H390 C402 0.950 . S
H391 C403 0.950 . S
C392 H384 0.950 . S
C392 C393 1.386 . S
C392 C394 1.391 . S
C393 C392 1.386 . S
C393 C397 1.393 . S
C394 H386 0.950 . S
C394 C392 1.391 . S
C394 C395 1.400 . S
C395 C394 1.400 . S
C395 C396 1.398 . S
C395 C401 1.491 . S
C396 H387 0.950 . S
C396 C395 1.398 . S
C396 C397 1.391 . S
C397 H385 0.950 . S
C397 C393 1.393 . S
C397 C396 1.391 . S
C398 H388 0.950 . S
C398 C399 1.386 . S
C398 C400 1.391 . S
C399 C398 1.386 . S
C399 C403 1.393 . S
C400 H389 0.950 . S
C400 C398 1.391 . S
C400 C401 1.400 . S
C401 C395 1.491 . S
C401 C400 1.400 . S
C401 C402 1.398 . S
C402 H390 0.950 . S
C402 C401 1.398 . S
C402 C403 1.391 . S
C403 H391 0.950 . S
C403 C399 1.393 . S
C403 C402 1.391 . S
H404 C412 0.950 . S
H405 C417 0.950 . S
H406 C414 0.950 . S
H407 C416 0.950 . S
H408 C418 0.950 . S
H409 C420 0.950 . S
H410 C422 0.950 . S
H411 C423 0.950 . S
C412 H404 0.950 . S
C412 C413 1.386 . S
C412 C414 1.391 . S
C413 C412 1.386 . S
C413 C417 1.393 . S
C414 H406 0.950 . S
C414 C412 1.391 . S
C414 C415 1.400 . S
C415 C414 1.400 . S
C415 C416 1.398 . S
C415 C421 1.491 . S
C416 H407 0.950 . S
C416 C415 1.398 . S
C416 C417 1.391 . S
C417 H405 0.950 . S
C417 C413 1.393 . S
C417 C416 1.391 . S
C418 H408 0.950 . S
C418 C419 1.386 . S
C418 C420 1.391 . S
C419 C418 1.386 . S
C419 C423 1.393 . S
C420 H409 0.950 . S
C420 C418 1.391 . S
C420 C421 1.400 . S
C421 C415 1.491 . S
C421 C420 1.400 . S
C421 C422 1.398 . S
C422 H410 0.950 . S
C422 C421 1.398 . S
C422 C423 1.391 . S
C423 H411 0.950 . S
C423 C419 1.393 . S
C423 C422 1.391 . S
H424 C432 0.950 . S
H425 C437 0.950 . S
H426 C434 0.950 . S
H427 C436 0.950 . S
H428 C438 0.950 . S
H429 C440 0.950 . S
H430 C442 0.950 . S
H431 C443 0.950 . S
C432 H424 0.950 . S
C432 C433 1.386 . S
C432 C434 1.391 . S
C433 C432 1.386 . S
C433 C437 1.393 . S
C434 H426 0.950 . S
C434 C432 1.391 . S
C434 C435 1.400 . S
C435 C434 1.400 . S
C435 C436 1.398 . S
C435 C441 1.491 . S
C436 H427 0.950 . S
C436 C435 1.398 . S
C436 C437 1.391 . S
C437 H425 0.950 . S
C437 C433 1.393 . S
C437 C436 1.391 . S
C438 H428 0.950 . S
C438 C439 1.386 . S
C438 C440 1.391 . S
C439 C438 1.386 . S
C439 C443 1.393 . S
C440 H429 0.950 . S
C440 C438 1.391 . S
C440 C441 1.400 . S
C441 C435 1.491 . S
C441 C440 1.400 . S
C441 C442 1.398 . S
C442 H430 0.950 . S
C442 C441 1.398 . S
C442 C443 1.391 . S
C443 H431 0.950 . S
C443 C439 1.393 . S
C443 C442 1.391 . S
H444 C452 0.950 . S
H445 C457 0.950 . S
H446 C454 0.950 . S
H447 C456 0.950 . S
H448 C458 0.950 . S
H449 C460 0.950 . S
H450 C462 0.950 . S
H451 C463 0.950 . S
C452 H444 0.950 . S
C452 C453 1.386 . S
C452 C454 1.391 . S
C453 C452 1.386 . S
C453 C457 1.393 . S
C454 H446 0.950 . S
C454 C452 1.391 . S
C454 C455 1.400 . S
C455 C454 1.400 . S
C455 C456 1.398 . S
C455 C461 1.491 . S
C456 H447 0.950 . S
C456 C455 1.398 . S
C456 C457 1.391 . S
C457 H445 0.950 . S
C457 C453 1.393 . S
C457 C456 1.391 . S
C458 H448 0.950 . S
C458 C459 1.386 . S
C458 C460 1.391 . S
C459 C458 1.386 . S
C459 C463 1.393 . S
C460 H449 0.950 . S
C460 C458 1.391 . S
C460 C461 1.400 . S
C461 C455 1.491 . S
C461 C460 1.400 . S
C461 C462 1.398 . S
C462 H450 0.950 . S
C462 C461 1.398 . S
C462 C463 1.391 . S
C463 H451 0.950 . S
C463 C459 1.393 . S
C463 C462 1.391 . S
H464 C472 0.950 . S
H465 C477 0.950 . S
H466 C474 0.950 . S
H467 C476 0.950 . S
H468 C478 0.950 . S
H469 C480 0.950 . S
H470 C482 0.950 . S
H471 C483 0.950 . S
C472 H464 0.950 . S
C472 C473 1.386 . S
C472 C474 1.391 . S
C473 C472 1.386 . S
C473 C477 1.393 . S
C474 H466 0.950 . S
C474 C472 1.391 . S
C474 C475 1.400 . S
C475 C474 1.400 . S
C475 C476 1.398 . S
C475 C481 1.491 . S
C476 H467 0.950 . S
C476 C475 1.398 . S
C476 C477 1.391 . S
C477 H465 0.950 . S
C477 C473 1.393 . S
C477 C476 1.391 . S
C478 H468 0.950 . S
C478 C479 1.386 . S
C478 C480 1.391 . S
C479 C478 1.386 . S
C479 C483 1.393 . S
C480 H469 0.950 . S
C480 C478 1.391 . S
C480 C481 1.400 . S
C481 C475 1.491 . S
C481 C480 1.400 . S
C481 C482 1.398 . S
C482 H470 0.950 . S
C482 C481 1.398 . S
C482 C483 1.391 . S
C483 H471 0.950 . S
C483 C479 1.393 . S
C483 C482 1.391 . S
H484 C492 0.950 . S
H485 C497 0.950 . S
H486 C494 0.950 . S
H487 C496 0.950 . S
H488 C498 0.950 . S
H489 C500 0.950 . S
H490 C502 0.950 . S
H491 C503 0.950 . S
C492 H484 0.950 . S
C492 C493 1.386 . S
C492 C494 1.391 . S
C493 C492 1.386 . S
C493 C497 1.393 . S
C494 H486 0.950 . S
C494 C492 1.391 . S
C494 C495 1.400 . S
C495 C494 1.400 . S
C495 C496 1.398 . S
C495 C501 1.491 . S
C496 H487 0.950 . S
C496 C495 1.398 . S
C496 C497 1.391 . S
C497 H485 0.950 . S
C497 C493 1.393 . S
C497 C496 1.391 . S
C498 H488 0.950 . S
C498 C499 1.386 . S
C498 C500 1.391 . S
C499 C498 1.386 . S
C499 C503 1.393 . S
C500 H489 0.950 . S
C500 C498 1.391 . S
C500 C501 1.400 . S
C501 C495 1.491 . S
C501 C500 1.400 . S
C501 C502 1.398 . S
C502 H490 0.950 . S
C502 C501 1.398 . S
C502 C503 1.391 . S
C503 H491 0.950 . S
C503 C499 1.393 . S
C503 C502 1.391 . S
H504 C512 0.950 . S
H505 C517 0.950 . S
H506 C514 0.950 . S
H507 C516 0.950 . S
H508 C518 0.950 . S
H509 C520 0.950 . S
H510 C522 0.950 . S
H511 C523 0.950 . S
C512 H504 0.950 . S
C512 C513 1.386 . S
C512 C514 1.391 . S
C513 C512 1.386 . S
C513 C517 1.393 . S
C514 H506 0.950 . S
C514 C512 1.391 . S
C514 C515 1.400 . S
C515 C514 1.400 . S
C515 C516 1.398 . S
C515 C521 1.491 . S
C516 H507 0.950 . S
C516 C515 1.398 . S
C516 C517 1.391 . S
C517 H505 0.950 . S
C517 C513 1.393 . S
C517 C516 1.391 . S
C518 H508 0.950 . S
C518 C519 1.386 . S
C518 C520 1.391 . S
C519 C518 1.386 . S
C519 C523 1.393 . S
C520 H509 0.950 . S
C520 C518 1.391 . S
C520 C521 1.400 . S
C521 C515 1.491 . S
C521 C520 1.400 . S
C521 C522 1.398 . S
C522 H510 0.950 . S
C522 C521 1.398 . S
C522 C523 1.391 . S
C523 H511 0.950 . S
C523 C519 1.393 . S
C523 C522 1.391 . S
H524 C532 0.950 . S
H525 C537 0.950 . S
H526 C534 0.950 . S
H527 C536 0.950 1_556 S
H528 C538 0.950 . S
H529 C540 0.950 . S
H530 C542 0.950 1_554 S
H531 C543 0.950 . S
C532 H524 0.950 . S
C532 C533 1.386 . S
C532 C534 1.391 . S
C533 C532 1.386 . S
C533 C537 1.393 . S
C534 H526 0.950 . S
C534 C532 1.391 . S
C534 C535 1.400 . S
C535 C534 1.400 . S
C535 C536 1.398 . S
C535 C541 1.491 1_554 S
C536 H527 0.950 1_554 S
C536 C535 1.398 . S
C536 C537 1.391 . S
C537 H525 0.950 . S
C537 C533 1.393 . S
C537 C536 1.391 . S
C538 H528 0.950 . S
C538 C539 1.386 . S
C538 C540 1.391 . S
C539 C538 1.386 . S
C539 C543 1.393 . S
C540 H529 0.950 . S
C540 C538 1.391 . S
C540 C541 1.400 . S
C541 C535 1.491 1_556 S
C541 C540 1.400 . S
C541 C542 1.398 . S
C542 H530 0.950 1_556 S
C542 C541 1.398 . S
C542 C543 1.391 . S
C543 H531 0.950 . S
C543 C539 1.393 . S
C543 C542 1.391 . S
H544 C552 0.950 . S
H545 C557 0.950 . S
H546 C554 0.950 . S
H547 C556 0.950 . S
H548 C558 0.950 . S
H549 C560 0.950 . S
H550 C562 0.950 . S
H551 C563 0.950 . S
C552 H544 0.950 . S
C552 C553 1.386 . S
C552 C554 1.391 . S
C553 C552 1.386 . S
C553 C557 1.393 . S
C554 H546 0.950 . S
C554 C552 1.391 . S
C554 C555 1.400 . S
C555 C554 1.400 . S
C555 C556 1.398 . S
C555 C561 1.491 . S
C556 H547 0.950 . S
C556 C555 1.398 . S
C556 C557 1.391 . S
C557 H545 0.950 . S
C557 C553 1.393 . S
C557 C556 1.391 . S
C558 H548 0.950 . S
C558 C559 1.386 . S
C558 C560 1.391 . S
C559 C558 1.386 . S
C559 C563 1.393 . S
C560 H549 0.950 . S
C560 C558 1.391 . S
C560 C561 1.400 . S
C561 C555 1.491 . S
C561 C560 1.400 . S
C561 C562 1.398 . S
C562 H550 0.950 . S
C562 C561 1.398 . S
C562 C563 1.391 . S
C563 H551 0.950 . S
C563 C559 1.393 . S
C563 C562 1.391 . S
H564 C572 0.950 . S
H565 C577 0.950 . S
H566 C574 0.950 1_556 S
H567 C576 0.950 . S
H568 C578 0.950 . S
H569 C580 0.950 1_554 S
H570 C582 0.950 . S
H571 C583 0.950 . S
C572 H564 0.950 . S
C572 C573 1.386 . S
C572 C574 1.391 . S
C573 C572 1.386 . S
C573 C577 1.393 . S
C574 H566 0.950 1_554 S
C574 C572 1.391 . S
C574 C575 1.400 . S
C575 C574 1.400 . S
C575 C576 1.398 . S
C575 C581 1.491 1_554 S
C576 H567 0.950 . S
C576 C575 1.398 . S
C576 C577 1.391 . S
C577 H565 0.950 . S
C577 C573 1.393 . S
C577 C576 1.391 . S
C578 H568 0.950 . S
C578 C579 1.386 . S
C578 C580 1.391 . S
C579 C578 1.386 . S
C579 C583 1.393 . S
C580 H569 0.950 1_556 S
C580 C578 1.391 . S
C580 C581 1.400 . S
C581 C575 1.491 1_556 S
C581 C580 1.400 . S
C581 C582 1.398 . S
C582 H570 0.950 . S
C582 C581 1.398 . S
C582 C583 1.391 . S
C583 H571 0.950 . S
C583 C579 1.393 . S
C583 C582 1.391 . S
H584 C592 0.950 . S
H585 C597 0.950 . S
H586 C594 0.950 1_455 S
H587 C596 0.950 . S
H588 C598 0.950 . S
H589 C600 0.950 1_655 S
H590 C602 0.950 . S
H591 C603 0.950 . S
C592 H584 0.950 . S
C592 C593 1.386 . S
C592 C594 1.391 . S
C593 C592 1.386 . S
C593 C597 1.393 . S
C594 H586 0.950 1_655 S
C594 C592 1.391 . S
C594 C595 1.400 . S
C595 C594 1.400 . S
C595 C596 1.398 . S
C595 C601 1.491 1_665 S
C596 H587 0.950 . S
C596 C595 1.398 . S
C596 C597 1.391 . S
C597 H585 0.950 . S
C597 C593 1.393 . S
C597 C596 1.391 . S
C598 H588 0.950 . S
C598 C599 1.386 . S
C598 C600 1.391 . S
C599 C598 1.386 . S
C599 C603 1.393 . S
C600 H589 0.950 1_455 S
C600 C598 1.391 . S
C600 C601 1.400 . S
C601 C595 1.491 1_445 S
C601 C600 1.400 . S
C601 C602 1.398 . S
C602 H590 0.950 . S
C602 C601 1.398 . S
C602 C603 1.391 . S
C603 H591 0.950 . S
C603 C599 1.393 . S
C603 C602 1.391 . S
H604 C612 0.950 . S
H605 C617 0.950 . S
H606 C614 0.950 . S
H607 C616 0.950 . S
H608 C618 0.950 . S
H609 C620 0.950 . S
H610 C622 0.950 . S
H611 C623 0.950 . S
C612 H604 0.950 . S
C612 C613 1.386 . S
C612 C614 1.391 . S
C613 C612 1.386 . S
C613 C617 1.393 . S
C614 H606 0.950 . S
C614 C612 1.391 . S
C614 C615 1.400 . S
C615 C614 1.400 . S
C615 C616 1.398 . S
C615 C621 1.491 . S
C616 H607 0.950 . S
C616 C615 1.398 . S
C616 C617 1.391 . S
C617 H605 0.950 . S
C617 C613 1.393 . S
C617 C616 1.391 . S
C618 H608 0.950 . S
C618 C619 1.386 . S
C618 C620 1.391 . S
C619 C618 1.386 . S
C619 C623 1.393 . S
C620 H609 0.950 . S
C620 C618 1.391 . S
C620 C621 1.400 . S
C621 C615 1.491 . S
C621 C620 1.400 . S
C621 C622 1.398 . S
C622 H610 0.950 . S
C622 C621 1.398 . S
C622 C623 1.391 . S
C623 H611 0.950 . S
C623 C619 1.393 . S
C623 C622 1.391 . S
H624 C632 0.950 . S
H625 C637 0.950 . S
H626 C634 0.950 . S
H627 C636 0.950 . S
H628 C638 0.950 . S
H629 C640 0.950 . S
H630 C642 0.950 . S
H631 C643 0.950 . S
C632 H624 0.950 . S
C632 C633 1.386 . S
C632 C634 1.391 . S
C633 C632 1.386 . S
C633 C637 1.393 . S
C634 H626 0.950 . S
C634 C632 1.391 . S
C634 C635 1.400 . S
C635 C634 1.400 . S
C635 C636 1.398 . S
C635 C641 1.491 . S
C636 H627 0.950 . S
C636 C635 1.398 . S
C636 C637 1.391 . S
C637 H625 0.950 . S
C637 C633 1.393 . S
C637 C636 1.391 . S
C638 H628 0.950 . S
C638 C639 1.386 . S
C638 C640 1.391 . S
C639 C638 1.386 . S
C639 C643 1.393 . S
C640 H629 0.950 . S
C640 C638 1.391 . S
C640 C641 1.400 . S
C641 C635 1.491 . S
C641 C640 1.400 . S
C641 C642 1.398 . S
C642 H630 0.950 . S
C642 C641 1.398 . S
C642 C643 1.391 . S
C643 H631 0.950 . S
C643 C639 1.393 . S
C643 C642 1.391 . S
H644 C652 0.950 . S
H645 C657 0.950 . S
H646 C654 0.950 1_655 S
H647 C656 0.950 . S
H648 C658 0.950 . S
H649 C660 0.950 1_455 S
H650 C662 0.950 . S
H651 C663 0.950 . S
C652 H644 0.950 . S
C652 C653 1.386 . S
C652 C654 1.391 . S
C653 C652 1.386 . S
C653 C657 1.393 . S
C654 H646 0.950 1_455 S
C654 C652 1.391 . S
C654 C655 1.400 . S
C655 C654 1.400 . S
C655 C656 1.398 1_545 S
C655 C661 1.491 1_445 S
C656 H647 0.950 . S
C656 C655 1.398 1_565 S
C656 C657 1.391 1_565 S
C657 H645 0.950 . S
C657 C653 1.393 . S
C657 C656 1.391 1_545 S
C658 H648 0.950 . S
C658 C659 1.386 . S
C658 C660 1.391 . S
C659 C658 1.386 . S
C659 C663 1.393 . S
C660 H649 0.950 1_655 S
C660 C658 1.391 . S
C660 C661 1.400 . S
C661 C655 1.491 1_665 S
C661 C660 1.400 . S
C661 C662 1.398 1_565 S
C662 H650 0.950 . S
C662 C661 1.398 1_545 S
C662 C663 1.391 1_545 S
C663 H651 0.950 . S
C663 C659 1.393 . S
C663 C662 1.391 1_565 S
C273 N71 1.168 . S
C279 N5 1.173 . S
C293 N104 1.184 . S
C299 N38 1.181 . S
C313 N203 1.184 . S
C319 N137 1.181 . S
C333 N236 1.175 . S
C339 N170 1.167 . S
C353 C160 1.922 . S
C359 C17 1.918 . S
C373 C193 1.919 . S
C379 C50 1.914 . S
C393 C226 1.921 . S
C399 C83 1.914 . S
C413 C116 1.914 . S
C419 C259 1.918 . S
C433 C28 1.922 . S
C439 C149 1.916 . S
C453 C61 1.921 . S
C459 C182 1.914 . S
C473 C94 1.922 . S
C479 C215 1.918 . S
C493 C248 1.917 . S
C499 C127 1.915 . S
C513 C8 1.825 . S
C519 C173 1.828 . S
C533 C206 1.822 . S
C539 C41 1.826 . S
C553 C239 1.818 . S
C559 C74 1.814 . S
C573 C140 1.822 . S
C579 C107 1.817 . S
C593 N80 0.456 . S
C599 N14 0.502 . S
C613 N47 0.487 . S
C619 N113 0.454 . S
C633 N212 0.519 . S
C639 N146 0.552 . S
C653 N179 0.524 . S
C659 N245 0.470 . S
