# Generated by pormake.
# Topology lcy-a, (4)-cn, num edge types: 1
# Building blocks:
#     Node 0, Type 0, BuildingBlock: AZAVOO_clean_sbu_0, # of connection points: 4
#     Node 1, Type 0, BuildingBlock: AZAVOO_clean_sbu_0, # of connection points: 4
#     Node 2, Type 0, BuildingBlock: AZAVOO_clean_sbu_0, # of connection points: 4
#     Node 3, Type 0, BuildingBlock: AZAVOO_clean_sbu_0, # of connection points: 4
#     Node 4, Type 0, BuildingBlock: AZAVOO_clean_sbu_0, # of connection points: 4
#     Node 5, Type 0, BuildingBlock: AZAVOO_clean_sbu_0, # of connection points: 4
#     Node 6, Type 0, BuildingBlock: AZAVOO_clean_sbu_0, # of connection points: 4
#     Node 7, Type 0, BuildingBlock: AZAVOO_clean_sbu_0, # of connection points: 4
#     Node 8, Type 0, BuildingBlock: AZAVOO_clean_sbu_0, # of connection points: 4
#     Node 9, Type 0, BuildingBlock: AZAVOO_clean_sbu_0, # of connection points: 4
#     Node 10, Type 0, BuildingBlock: AZAVOO_clean_sbu_0, # of connection points: 4
#     Node 11, Type 0, BuildingBlock: AZAVOO_clean_sbu_0, # of connection points: 4
#     Node 12, Type 0, BuildingBlock: AZAVOO_clean_sbu_0, # of connection points: 4
#     Node 13, Type 0, BuildingBlock: AZAVOO_clean_sbu_0, # of connection points: 4
#     Node 14, Type 0, BuildingBlock: AZAVOO_clean_sbu_0, # of connection points: 4
#     Node 15, Type 0, BuildingBlock: AZAVOO_clean_sbu_0, # of connection points: 4
#     Node 16, Type 0, BuildingBlock: AZAVOO_clean_sbu_0, # of connection points: 4
#     Node 17, Type 0, BuildingBlock: AZAVOO_clean_sbu_0, # of connection points: 4
#     Node 18, Type 0, BuildingBlock: AZAVOO_clean_sbu_0, # of connection points: 4
#     Node 19, Type 0, BuildingBlock: AZAVOO_clean_sbu_0, # of connection points: 4
#     Node 20, Type 0, BuildingBlock: AZAVOO_clean_sbu_0, # of connection points: 4
#     Node 21, Type 0, BuildingBlock: AZAVOO_clean_sbu_0, # of connection points: 4
#     Node 22, Type 0, BuildingBlock: AZAVOO_clean_sbu_0, # of connection points: 4
#     Node 23, Type 0, BuildingBlock: AZAVOO_clean_sbu_0, # of connection points: 4
#     Edge 24, Type (0, 0), BuildingBlock: CIFDUS_clean_linker_0, # of connection points: 2
#     Edge 25, Type (0, 0), BuildingBlock: CIFDUS_clean_linker_0, # of connection points: 2
#     Edge 26, Type (0, 0), BuildingBlock: CIFDUS_clean_linker_0, # of connection points: 2
#     Edge 27, Type (0, 0), BuildingBlock: CIFDUS_clean_linker_0, # of connection points: 2
#     Edge 28, Type (0, 0), BuildingBlock: CIFDUS_clean_linker_0, # of connection points: 2
#     Edge 29, Type (0, 0), BuildingBlock: CIFDUS_clean_linker_0, # of connection points: 2
#     Edge 30, Type (0, 0), BuildingBlock: CIFDUS_clean_linker_0, # of connection points: 2
#     Edge 31, Type (0, 0), BuildingBlock: CIFDUS_clean_linker_0, # of connection points: 2
#     Edge 32, Type (0, 0), BuildingBlock: CIFDUS_clean_linker_0, # of connection points: 2
#     Edge 33, Type (0, 0), BuildingBlock: CIFDUS_clean_linker_0, # of connection points: 2
#     Edge 34, Type (0, 0), BuildingBlock: CIFDUS_clean_linker_0, # of connection points: 2
#     Edge 35, Type (0, 0), BuildingBlock: CIFDUS_clean_linker_0, # of connection points: 2
#     Edge 36, Type (0, 0), BuildingBlock: CIFDUS_clean_linker_0, # of connection points: 2
#     Edge 37, Type (0, 0), BuildingBlock: CIFDUS_clean_linker_0, # of connection points: 2
#     Edge 38, Type (0, 0), BuildingBlock: CIFDUS_clean_linker_0, # of connection points: 2
#     Edge 39, Type (0, 0), BuildingBlock: CIFDUS_clean_linker_0, # of connection points: 2
#     Edge 40, Type (0, 0), BuildingBlock: CIFDUS_clean_linker_0, # of connection points: 2
#     Edge 41, Type (0, 0), BuildingBlock: CIFDUS_clean_linker_0, # of connection points: 2
#     Edge 42, Type (0, 0), BuildingBlock: CIFDUS_clean_linker_0, # of connection points: 2
#     Edge 43, Type (0, 0), BuildingBlock: CIFDUS_clean_linker_0, # of connection points: 2
#     Edge 44, Type (0, 0), BuildingBlock: CIFDUS_clean_linker_0, # of connection points: 2
#     Edge 45, Type (0, 0), BuildingBlock: CIFDUS_clean_linker_0, # of connection points: 2
#     Edge 46, Type (0, 0), BuildingBlock: CIFDUS_clean_linker_0, # of connection points: 2
#     Edge 47, Type (0, 0), BuildingBlock: CIFDUS_clean_linker_0, # of connection points: 2
#     Edge 48, Type (0, 0), BuildingBlock: CIFDUS_clean_linker_0, # of connection points: 2
#     Edge 49, Type (0, 0), BuildingBlock: CIFDUS_clean_linker_0, # of connection points: 2
#     Edge 50, Type (0, 0), BuildingBlock: CIFDUS_clean_linker_0, # of connection points: 2
#     Edge 51, Type (0, 0), BuildingBlock: CIFDUS_clean_linker_0, # of connection points: 2
#     Edge 52, Type (0, 0), BuildingBlock: CIFDUS_clean_linker_0, # of connection points: 2
#     Edge 53, Type (0, 0), BuildingBlock: CIFDUS_clean_linker_0, # of connection points: 2
#     Edge 54, Type (0, 0), BuildingBlock: CIFDUS_clean_linker_0, # of connection points: 2
#     Edge 55, Type (0, 0), BuildingBlock: CIFDUS_clean_linker_0, # of connection points: 2
#     Edge 56, Type (0, 0), BuildingBlock: CIFDUS_clean_linker_0, # of connection points: 2
#     Edge 57, Type (0, 0), BuildingBlock: CIFDUS_clean_linker_0, # of connection points: 2
#     Edge 58, Type (0, 0), BuildingBlock: CIFDUS_clean_linker_0, # of connection points: 2
#     Edge 59, Type (0, 0), BuildingBlock: CIFDUS_clean_linker_0, # of connection points: 2
#     Edge 60, Type (0, 0), BuildingBlock: CIFDUS_clean_linker_0, # of connection points: 2
#     Edge 61, Type (0, 0), BuildingBlock: CIFDUS_clean_linker_0, # of connection points: 2
#     Edge 62, Type (0, 0), BuildingBlock: CIFDUS_clean_linker_0, # of connection points: 2
#     Edge 63, Type (0, 0), BuildingBlock: CIFDUS_clean_linker_0, # of connection points: 2
#     Edge 64, Type (0, 0), BuildingBlock: CIFDUS_clean_linker_0, # of connection points: 2
#     Edge 65, Type (0, 0), BuildingBlock: CIFDUS_clean_linker_0, # of connection points: 2
#     Edge 66, Type (0, 0), BuildingBlock: CIFDUS_clean_linker_0, # of connection points: 2
#     Edge 67, Type (0, 0), BuildingBlock: CIFDUS_clean_linker_0, # of connection points: 2
#     Edge 68, Type (0, 0), BuildingBlock: CIFDUS_clean_linker_0, # of connection points: 2
#     Edge 69, Type (0, 0), BuildingBlock: CIFDUS_clean_linker_0, # of connection points: 2
#     Edge 70, Type (0, 0), BuildingBlock: CIFDUS_clean_linker_0, # of connection points: 2
#     Edge 71, Type (0, 0), BuildingBlock: CIFDUS_clean_linker_0, # of connection points: 2
# Relax obj value: 0.401
# Max RMSD: 0.241
# Mean RMSD: 0.241
data_MOF--net-lcy-a--node1-AZAVOO_clean_sbu_0--edge1-CIFDUS_clean_linker_0
_symmetry_space_group_name_H-M    P1
_symmetry_Int_Tables_number       1
_symmetry_cell_setting            triclinic
loop_
_symmetry_equiv_pos_as_xyz
'x, y, z'
_cell_length_a     48.797417
_cell_length_b     48.84085
_cell_length_c     48.833987
_cell_angle_alpha  89.944945
_cell_angle_beta   90.020471
_cell_angle_gamma 89.988329
loop_
_atom_site_label
_atom_site_type_symbol
_atom_site_fract_x
_atom_site_fract_y
_atom_site_fract_z
_atom_type_partial_charge
Mg0 Mg 0.19072 0.34335 0.39141 0.0
O1 O 0.22396 0.3148 0.37395 0.0
O2 O 0.24947 0.33998 0.34546 0.0
Mg3 Mg 0.23596 0.38469 0.34822 0.0
C4 C 0.24326 0.31705 0.35643 0.0
C5 C 0.17103 0.2863 0.41427 0.0
O6 O 0.17129 0.2803 0.38805 0.0
O7 O 0.22162 0.36168 0.42181 0.0
O8 O 0.248 0.38612 0.39351 0.0
O9 O 0.167 0.33477 0.3528 0.0
O10 O 0.19482 0.37 0.35837 0.0
C11 C 0.24195 0.37766 0.4175 0.0
C12 C 0.18 0.35537 0.34232 0.0
O13 O 0.17836 0.3101 0.42188 0.0
Mg14 Mg 0.93195 0.93437 0.63316 0.0
O15 O 0.96054 0.9703 0.62293 0.0
O16 O 0.94075 0.99634 0.59081 0.0
Mg17 Mg 0.8966 0.98094 0.58598 0.0
C18 C 0.96111 0.99026 0.60607 0.0
C19 C 0.98661 0.91669 0.66145 0.0
O20 O 0.9952 0.91998 0.63616 0.0
O21 O 0.90746 0.96214 0.66257 0.0
O22 O 0.88793 0.98902 0.63111 0.0
O23 O 0.94765 0.9144 0.59444 0.0
O24 O 0.91036 0.93978 0.59671 0.0
C25 C 0.89181 0.98215 0.65605 0.0
C26 C 0.928 0.92713 0.58197 0.0
O27 O 0.96159 0.92141 0.667 0.0
Mg28 Mg 0.33389 0.67602 0.87657 0.0
O29 O 0.29237 0.69397 0.86366 0.0
O30 O 0.26908 0.66058 0.84275 0.0
Mg31 Mg 0.29399 0.62088 0.84531 0.0
C32 C 0.27135 0.68543 0.85064 0.0
C33 C 0.34655 0.73745 0.8922 0.0
O34 O 0.34585 0.74051 0.86548 0.0
O35 O 0.31328 0.65494 0.91303 0.0
O36 O 0.29037 0.62129 0.89208 0.0
O37 O 0.34791 0.68654 0.83428 0.0
O38 O 0.33096 0.64624 0.84606 0.0
C39 C 0.29767 0.63396 0.91373 0.0
C40 C 0.33799 0.66305 0.82703 0.0
O41 O 0.34211 0.71393 0.90246 0.0
Mg42 Mg 0.57033 0.06974 0.13926 0.0
O43 O 0.54116 0.03428 0.13069 0.0
O44 O 0.56374 0.00145 0.10805 0.0
Mg45 Mg 0.60933 0.01359 0.10841 0.0
C46 C 0.54174 0.01151 0.118 0.0
C47 C 0.51223 0.0913 0.15929 0.0
O48 O 0.50436 0.08342 0.1348 0.0
O49 O 0.58709 0.04642 0.17628 0.0
O50 O 0.61069 0.01311 0.1554 0.0
O51 O 0.56222 0.08302 0.09586 0.0
O52 O 0.59674 0.05659 0.10844 0.0
C53 C 0.60246 0.02527 0.17703 0.0
C54 C 0.58225 0.06697 0.08913 0.0
O55 O 0.53728 0.08887 0.16608 0.0
Mg56 Mg 0.6772 0.19163 0.62653 0.0
O57 O 0.71447 0.21901 0.63506 0.0
O58 O 0.74348 0.19613 0.66226 0.0
Mg59 Mg 0.72804 0.15184 0.66486 0.0
C60 C 0.73614 0.21782 0.64963 0.0
C61 C 0.65613 0.24799 0.60389 0.0
O62 O 0.65995 0.25488 0.62961 0.0
O63 O 0.70124 0.16982 0.59247 0.0
O64 O 0.73135 0.14715 0.61844 0.0
O65 O 0.66184 0.20426 0.66825 0.0
O66 O 0.68624 0.16708 0.66024 0.0
C67 C 0.72162 0.15356 0.59502 0.0
C68 C 0.67567 0.18365 0.67762 0.0
O69 O 0.66147 0.22365 0.59639 0.0
Mg70 Mg 0.10161 0.42939 0.86166 0.0
O71 O 0.07381 0.46639 0.86913 0.0
O72 O 0.09991 0.49968 0.88666 0.0
Mg73 Mg 0.14487 0.48597 0.88514 0.0
C74 C 0.07658 0.49017 0.87949 0.0
C75 C 0.04175 0.40944 0.84362 0.0
O76 O 0.03363 0.42209 0.86592 0.0
O77 O 0.11669 0.44912 0.82201 0.0
O78 O 0.14323 0.4827 0.83832 0.0
O79 O 0.09554 0.41966 0.90633 0.0
O80 O 0.13005 0.44402 0.89013 0.0
C81 C 0.1329 0.4693 0.8184 0.0
C82 C 0.11634 0.43549 0.91088 0.0
O83 O 0.06713 0.40878 0.83778 0.0
Mg84 Mg 0.81425 0.78273 0.1111 0.0
O85 O 0.77571 0.7577 0.12024 0.0
O86 O 0.74533 0.78502 0.1411 0.0
Mg87 Mg 0.76275 0.82877 0.14046 0.0
C88 C 0.75286 0.7616 0.13224 0.0
C89 C 0.83946 0.72495 0.0946 0.0
O90 O 0.84018 0.72102 0.12121 0.0
O91 O 0.79295 0.80091 0.07347 0.0
O92 O 0.76289 0.82916 0.09355 0.0
O93 O 0.82676 0.77488 0.15493 0.0
O94 O 0.80393 0.81128 0.14086 0.0
C95 C 0.77396 0.81887 0.07224 0.0
C96 C 0.81306 0.79683 0.16078 0.0
O97 O 0.83026 0.74743 0.08523 0.0
Mg98 Mg 0.41301 0.57672 0.39298 0.0
O99 O 0.44142 0.5398 0.39797 0.0
O100 O 0.41961 0.50627 0.42034 0.0
Mg101 Mg 0.37493 0.52046 0.42506 0.0
C102 C 0.44101 0.51614 0.409 0.0
C103 C 0.46972 0.59979 0.37364 0.0
O104 O 0.47599 0.59313 0.39895 0.0
O105 O 0.39306 0.55512 0.35656 0.0
O106 O 0.37028 0.52173 0.37815 0.0
O107 O 0.42356 0.58976 0.43579 0.0
O108 O 0.38849 0.56321 0.42539 0.0
C109 C 0.37722 0.53428 0.35623 0.0
C110 C 0.40356 0.57431 0.44386 0.0
O111 O 0.44534 0.59604 0.36521 0.0
Mg112 Mg 0.37619 0.17664 0.30884 0.0
O113 O 0.36699 0.21076 0.27755 0.0
O114 O 0.35547 0.24831 0.30116 0.0
Mg115 Mg 0.35781 0.23843 0.34711 0.0
C116 C 0.35955 0.23577 0.27859 0.0
C117 C 0.38919 0.14908 0.2505 0.0
O118 O 0.3653 0.15886 0.24286 0.0
O119 O 0.41753 0.19663 0.31863 0.0
O120 O 0.40412 0.23292 0.34322 0.0
O121 O 0.33075 0.16706 0.30901 0.0
O122 O 0.35103 0.19499 0.33804 0.0
C123 C 0.42279 0.21792 0.3328 0.0
C124 C 0.32877 0.18476 0.32864 0.0
O125 O 0.39716 0.15234 0.27506 0.0
Mg126 Mg 0.08003 0.14744 0.56091 0.0
O127 O 0.04437 0.14006 0.53119 0.0
O128 O 0.01126 0.11787 0.55397 0.0
Mg129 Mg 0.02311 0.11718 0.59947 0.0
C130 C 0.02134 0.12772 0.53194 0.0
C131 C 0.10453 0.16647 0.504 0.0
O132 O 0.09612 0.14206 0.49645 0.0
O133 O 0.05737 0.18481 0.57797 0.0
O134 O 0.02353 0.1641 0.60106 0.0
O135 O 0.09249 0.1039 0.55241 0.0
O136 O 0.06597 0.1165 0.58679 0.0
C137 C 0.0361 0.18563 0.59317 0.0
C138 C 0.07611 0.09719 0.57217 0.0
O139 O 0.10093 0.17407 0.52863 0.0
Mg140 Mg 0.11398 0.81432 0.80974 0.0
O141 O 0.11883 0.78175 0.77617 0.0
O142 O 0.12697 0.74174 0.79714 0.0
Mg143 Mg 0.13173 0.74951 0.84331 0.0
C144 C 0.12308 0.75599 0.77555 0.0
C145 C 0.10137 0.84735 0.75538 0.0
O146 O 0.12539 0.83757 0.7482 0.0
O147 O 0.07244 0.79583 0.8224 0.0
O148 O 0.08608 0.75886 0.8459 0.0
O149 O 0.15962 0.82239 0.80645 0.0
O150 O 0.14076 0.79256 0.83467 0.0
C151 C 0.06738 0.77507 0.83751 0.0
C152 C 0.16251 0.80276 0.82404 0.0
O153 O 0.0921 0.84206 0.77912 0.0
Mg154 Mg 0.41563 0.86423 0.06651 0.0
O155 O 0.45303 0.86963 0.03856 0.0
O156 O 0.48605 0.89038 0.06275 0.0
Mg157 Mg 0.47188 0.89207 0.1076 0.0
C158 C 0.4766 0.88077 0.04034 0.0
C159 C 0.39403 0.84188 0.00868 0.0
O160 O 0.40443 0.8646 0.99868 0.0
O161 O 0.43571 0.82628 0.08498 0.0
O162 O 0.46935 0.84521 0.10975 0.0
O163 O 0.40563 0.90819 0.05679 0.0
O164 O 0.42977 0.89465 0.0926 0.0
C165 C 0.4561 0.82435 0.10123 0.0
C166 C 0.42132 0.91427 0.07732 0.0
O167 O 0.39538 0.83734 0.03427 0.0
Mg168 Mg 0.89737 0.33039 0.69588 0.0
O169 O 0.88948 0.29364 0.72383 0.0
O170 O 0.86633 0.26205 0.69998 0.0
Mg171 Mg 0.86508 0.27635 0.65512 0.0
C172 C 0.87675 0.27091 0.72227 0.0
C173 C 0.91671 0.35642 0.75205 0.0
O174 O 0.8904 0.35523 0.75765 0.0
O175 O 0.93383 0.30781 0.67694 0.0
O176 O 0.91205 0.27599 0.65212 0.0
O177 O 0.85436 0.34355 0.70586 0.0
O178 O 0.86557 0.31858 0.66988 0.0
C179 C 0.93399 0.2876 0.66037 0.0
C180 C 0.84682 0.32841 0.68544 0.0
O181 O 0.92518 0.34816 0.72887 0.0
Mg182 Mg 0.92861 0.62167 0.91551 0.0
O183 O 0.96167 0.61615 0.94879 0.0
O184 O 0.00138 0.60676 0.92792 0.0
Mg185 Mg 0.99376 0.60645 0.88142 0.0
C186 C 0.9872 0.61067 0.94954 0.0
C187 C 0.89898 0.63433 0.97242 0.0
O188 O 0.91298 0.61308 0.9812 0.0
O189 O 0.94605 0.6641 0.90497 0.0
O190 O 0.98422 0.65222 0.88246 0.0
O191 O 0.92209 0.57575 0.91652 0.0
O192 O 0.9504 0.59681 0.88842 0.0
C193 C 0.96745 0.67022 0.89123 0.0
C194 C 0.94101 0.57425 0.898 0.0
O195 O 0.90064 0.64131 0.94738 0.0
Mg196 Mg 0.58876 0.66569 0.19158 0.0
O197 O 0.60643 0.70214 0.21584 0.0
O198 O 0.62963 0.72753 0.18541 0.0
Mg199 Mg 0.62196 0.71124 0.14216 0.0
C200 C 0.62222 0.72218 0.20995 0.0
C201 C 0.56795 0.65095 0.25282 0.0
O202 O 0.59312 0.65598 0.26093 0.0
O203 O 0.55396 0.69274 0.17612 0.0
O204 O 0.57584 0.71932 0.14587 0.0
O205 O 0.6301 0.64631 0.19734 0.0
O206 O 0.61832 0.67093 0.16125 0.0
C207 C 0.55409 0.71178 0.15825 0.0
C208 C 0.6373 0.65953 0.17548 0.0
O209 O 0.56184 0.6533 0.22764 0.0
Mg210 Mg 0.56904 0.35677 0.42485 0.0
O211 O 0.53257 0.35963 0.45408 0.0
O212 O 0.49652 0.37642 0.43116 0.0
Mg213 Mg 0.51013 0.38345 0.38672 0.0
C214 C 0.50768 0.36761 0.45314 0.0
C215 C 0.59449 0.33648 0.48058 0.0
O216 O 0.58541 0.3604 0.48886 0.0
O217 O 0.55043 0.31875 0.40482 0.0
O218 O 0.51602 0.33736 0.38095 0.0
O219 O 0.57776 0.39974 0.43749 0.0
O220 O 0.55226 0.38864 0.40169 0.0
C221 C 0.53036 0.31674 0.3882 0.0
C222 C 0.56024 0.40694 0.41889 0.0
O223 O 0.5912 0.32959 0.4557 0.0
Mg224 Mg 0.31856 0.40137 0.18392 0.0
O225 O 0.28663 0.37988 0.21107 0.0
O226 O 0.30854 0.35407 0.24198 0.0
Mg227 Mg 0.35403 0.36515 0.23932 0.0
C228 C 0.28656 0.36235 0.23047 0.0
C229 C 0.26262 0.41481 0.15325 0.0
O230 O 0.25971 0.38807 0.1537 0.0
O231 O 0.32333 0.43445 0.21691 0.0
O232 O 0.34314 0.40948 0.25003 0.0
O233 O 0.32345 0.36148 0.16081 0.0
O234 O 0.34898 0.3742 0.19586 0.0
C235 C 0.33302 0.43188 0.24109 0.0
C236 C 0.34239 0.35574 0.17848 0.0
O237 O 0.28403 0.42546 0.16358 0.0
Mg238 Mg 0.82379 0.11214 0.8301 0.0
O239 O 0.7915 0.12534 0.79856 0.0
O240 O 0.811 0.15219 0.76698 0.0
Mg241 Mg 0.8573 0.14836 0.77363 0.0
C242 C 0.78993 0.14117 0.77784 0.0
C243 C 0.7683 0.09551 0.85756 0.0
O244 O 0.76444 0.12205 0.85532 0.0
O245 O 0.83736 0.07697 0.80195 0.0
O246 O 0.85454 0.10202 0.76757 0.0
O247 O 0.819 0.1543 0.84831 0.0
O248 O 0.85022 0.14319 0.81755 0.0
C249 C 0.84806 0.079 0.77815 0.0
C250 C 0.83799 0.16182 0.8314 0.0
O251 O 0.79091 0.08529 0.84962 0.0
Mg252 Mg 0.14395 0.58932 0.0688 0.0
O253 O 0.13326 0.55891 0.03454 0.0
O254 O 0.11276 0.58239 0.00089 0.0
Mg255 Mg 0.11587 0.62826 0.011 0.0
C256 C 0.12079 0.55991 0.0116 0.0
C257 C 0.16451 0.53066 0.0914 0.0
O258 O 0.14281 0.52061 0.07908 0.0
O259 O 0.18213 0.60273 0.04508 0.0
O260 O 0.16285 0.62699 0.01119 0.0
O261 O 0.0998 0.5859 0.08266 0.0
O262 O 0.1154 0.61746 0.05435 0.0
C263 C 0.18386 0.61769 0.0237 0.0
C264 C 0.09491 0.60604 0.06608 0.0
O265 O 0.16896 0.55631 0.09067 0.0
Mg266 Mg 0.68112 0.87464 0.32566 0.0
O267 O 0.70903 0.86154 0.29043 0.0
O268 O 0.683 0.84446 0.25677 0.0
Mg269 Mg 0.6379 0.84947 0.26953 0.0
C270 C 0.70634 0.85036 0.26703 0.0
C271 C 0.71566 0.92025 0.35393 0.0
O272 O 0.69157 0.93221 0.35271 0.0
O273 O 0.67018 0.91341 0.30143 0.0
O274 O 0.64269 0.89614 0.26897 0.0
O275 O 0.68149 0.83066 0.34013 0.0
O276 O 0.65022 0.84819 0.31259 0.0
C277 C 0.65443 0.91631 0.28074 0.0
C278 C 0.66043 0.8271 0.32441 0.0
O279 O 0.71808 0.89589 0.3451 0.0
Mg280 Mg 0.36382 0.433 0.5907 0.0
O281 O 0.35374 0.47934 0.58933 0.0
O282 O 0.39438 0.47025 0.57553 0.0
Mg283 Mg 0.41716 0.4592 0.53773 0.0
C284 C 0.37474 0.48707 0.57622 0.0
C285 C 0.29952 0.43262 0.61192 0.0
O286 O 0.27898 0.41869 0.62229 0.0
O287 O 0.34603 0.43043 0.54744 0.0
O288 O 0.37652 0.44622 0.51676 0.0
O289 O 0.38322 0.39233 0.583 0.0
O290 O 0.4041 0.43092 0.57178 0.0
C291 C 0.35306 0.43603 0.52282 0.0
C292 C 0.40313 0.40463 0.57062 0.0
O293 O 0.3225 0.42076 0.60896 0.0
Mg294 Mg 0.20133 0.61497 0.66144 0.0
O295 O 0.22541 0.631 0.69824 0.0
O296 O 0.19588 0.64894 0.72837 0.0
Mg297 Mg 0.15245 0.63853 0.71334 0.0
C298 C 0.22029 0.64386 0.72037 0.0
C299 C 0.2397 0.57941 0.62499 0.0
O300 O 0.21753 0.57991 0.60971 0.0
O301 O 0.19111 0.57616 0.68567 0.0
O302 O 0.16114 0.59258 0.71623 0.0
O303 O 0.20046 0.65888 0.64643 0.0
O304 O 0.16803 0.63973 0.67133 0.0
C305 C 0.17472 0.57287 0.70577 0.0
C306 C 0.17832 0.66148 0.66084 0.0
O307 O 0.24034 0.59403 0.6465 0.0
Mg308 Mg 0.63779 0.92275 0.92611 0.0
O309 O 0.63107 0.95159 0.96245 0.0
O310 O 0.60714 0.92923 0.99459 0.0
Mg311 Mg 0.60486 0.88411 0.9814 0.0
C312 C 0.61829 0.95096 0.98521 0.0
C313 C 0.66348 0.97976 0.90708 0.0
O314 O 0.64106 0.99009 0.91778 0.0
O315 O 0.6738 0.90329 0.94876 0.0
O316 O 0.65177 0.88017 0.9817 0.0
O317 O 0.59491 0.93377 0.91315 0.0
O318 O 0.60541 0.89804 0.93885 0.0
C319 C 0.67376 0.88747 0.96956 0.0
C320 C 0.58698 0.91384 0.92879 0.0
O321 O 0.66693 0.95396 0.9071 0.0
Mg322 Mg 0.85887 0.07744 0.43393 0.0
O323 O 0.87386 0.04166 0.46086 0.0
O324 O 0.90392 0.05776 0.49149 0.0
Mg325 Mg 0.90144 0.10445 0.4894 0.0
C326 C 0.89144 0.03795 0.47988 0.0
C327 C 0.83021 0.0239 0.40847 0.0
O328 O 0.85376 0.01182 0.41338 0.0
O329 O 0.82745 0.08904 0.46675 0.0
O330 O 0.85586 0.1021 0.50033 0.0
O331 O 0.89887 0.07351 0.41087 0.0
O332 O 0.89187 0.10134 0.44578 0.0
C333 C 0.83184 0.09715 0.4912 0.0
C334 C 0.90858 0.09057 0.4287 0.0
O335 O 0.82737 0.04919 0.41398 0.0
H336 H 0.1261 0.2169 0.51371 0.0
H337 H 0.11211 0.15825 0.44912 0.0
H338 H 0.1322 0.18975 0.41584 0.0
H339 H 0.15263 0.23445 0.40485 0.0
H340 H 0.16647 0.29298 0.46961 0.0
H341 H 0.14767 0.26093 0.50299 0.0
C342 C 0.12748 0.21094 0.49237 0.0
C343 C 0.11749 0.18526 0.48395 0.0
C344 C 0.13904 0.22914 0.47332 0.0
C345 C 0.11959 0.17789 0.4562 0.0
C346 C 0.13107 0.1959 0.43713 0.0
C347 C 0.15165 0.24018 0.42627 0.0
C348 C 0.16087 0.26618 0.43463 0.0
C349 C 0.1407 0.22166 0.44542 0.0
C350 C 0.15949 0.27317 0.46253 0.0
C351 C 0.1487 0.25485 0.48168 0.0
H352 H 0.04023 0.90245 0.65555 0.0
H353 H 0.97536 0.90716 0.71548 0.0
H354 H 0.00559 0.88743 0.75008 0.0
H355 H 0.04969 0.86697 0.76283 0.0
H356 H 0.11437 0.86152 0.70277 0.0
H357 H 0.08496 0.88356 0.6688 0.0
C358 C 0.03271 0.89931 0.67621 0.0
C359 C 0.00548 0.90616 0.68281 0.0
C360 C 0.05015 0.88776 0.696 0.0
C361 C 0.99617 0.902 0.70975 0.0
C362 C 0.01345 0.89069 0.72958 0.0
C363 C 0.05747 0.87076 0.74237 0.0
C364 C 0.0842 0.86247 0.73537 0.0
C365 C 0.04037 0.88321 0.72286 0.0
C366 C 0.09388 0.8676 0.70874 0.0
C367 C 0.07705 0.88018 0.68927 0.0
H368 H 0.34722 0.73821 0.94778 0.0
H369 H 0.36286 0.78894 0.87706 0.0
H370 H 0.37799 0.82619 0.90683 0.0
H371 H 0.38868 0.84364 0.95298 0.0
H372 H 0.3729 0.79236 0.02335 0.0
H373 H 0.3559 0.75618 0.99363 0.0
C374 C 0.35382 0.75744 0.93882 0.0
C375 C 0.35407 0.76067 0.91021 0.0
C376 C 0.36258 0.77871 0.95601 0.0
C377 C 0.36251 0.78584 0.89902 0.0
C378 C 0.37123 0.80716 0.91604 0.0
C379 C 0.38139 0.82462 0.96182 0.0
C380 C 0.38225 0.82075 0.99038 0.0
C381 C 0.37165 0.80372 0.94457 0.0
C382 C 0.37259 0.79595 0.00146 0.0
C383 C 0.36286 0.77518 0.98448 0.0
H384 H 0.45778 0.10184 0.15125 0.0
H385 H 0.52148 0.10452 0.21266 0.0
H386 H 0.48878 0.12141 0.24625 0.0
H387 H 0.44257 0.13598 0.25823 0.0
H388 H 0.3786 0.13483 0.19717 0.0
H389 H 0.41094 0.11659 0.16349 0.0
C390 C 0.46451 0.10613 0.17198 0.0
C391 C 0.49211 0.10194 0.17935 0.0
C392 C 0.44555 0.11601 0.1913 0.0
C393 C 0.50043 0.10762 0.20632 0.0
C394 C 0.48172 0.11724 0.22562 0.0
C395 C 0.43556 0.13159 0.23761 0.0
C396 C 0.40814 0.1367 0.23028 0.0
C397 C 0.45429 0.12154 0.21833 0.0
C398 C 0.39957 0.13107 0.20339 0.0
C399 C 0.41808 0.12068 0.1841 0.0
H400 H 0.64784 0.24075 0.54928 0.0
H401 H 0.63968 0.30057 0.6138 0.0
H402 H 0.62039 0.33336 0.58131 0.0
H403 H 0.60497 0.34476 0.53475 0.0
H404 H 0.61328 0.28482 0.47034 0.0
H405 H 0.63341 0.25246 0.50264 0.0
C406 C 0.64189 0.26097 0.55627 0.0
C407 C 0.64513 0.26811 0.58399 0.0
C408 C 0.6308 0.27974 0.53749 0.0
C409 C 0.6374 0.29447 0.5926 0.0
C410 C 0.62634 0.31326 0.57403 0.0
C411 C 0.61125 0.32465 0.52774 0.0
C412 C 0.60753 0.31726 0.50014 0.0
C413 C 0.62281 0.30607 0.54645 0.0
C414 C 0.61586 0.2911 0.49145 0.0
C415 C 0.62737 0.27253 0.50992 0.0
H416 H 0.97222 0.35636 0.74861 0.0
H417 H 0.90558 0.38039 0.8015 0.0
H418 H 0.93832 0.39846 0.83482 0.0
H419 H 0.98598 0.40807 0.84857 0.0
H420 H 0.05225 0.38348 0.79536 0.0
H421 H 0.01949 0.36496 0.76266 0.0
C422 C 0.96479 0.36556 0.76741 0.0
C423 C 0.93646 0.36711 0.77246 0.0
C424 C 0.98369 0.37579 0.78648 0.0
C425 C 0.92728 0.37894 0.79705 0.0
C426 C 0.94599 0.38929 0.81612 0.0
C427 C 0.99326 0.39856 0.82988 0.0
C428 C 0.02158 0.39725 0.82448 0.0
C429 C 0.97426 0.3879 0.81102 0.0
C430 C 0.03061 0.38482 0.80012 0.0
C431 C 0.01188 0.37423 0.78133 0.0
H432 H 0.83666 0.72539 0.03912 0.0
H433 H 0.86621 0.67721 0.10715 0.0
H434 H 0.88587 0.64394 0.07533 0.0
H435 H 0.89662 0.62981 0.02811 0.0
H436 H 0.86714 0.67863 0.96044 0.0
H437 H 0.84535 0.71021 0.99227 0.0
C438 C 0.84731 0.70758 0.04705 0.0
C439 C 0.85014 0.70395 0.0755 0.0
C440 C 0.85861 0.68861 0.02869 0.0
C441 C 0.8638 0.68059 0.08536 0.0
C442 C 0.87508 0.66155 0.06717 0.0
C443 C 0.88521 0.6472 0.02031 0.0
C444 C 0.88369 0.65187 0.99189 0.0
C445 C 0.87288 0.66552 0.03878 0.0
C446 C 0.86878 0.67455 0.98218 0.0
C447 C 0.85633 0.69269 0.00038 0.0
H448 H 0.5734 0.64126 0.30776 0.0
H449 H 0.51408 0.64098 0.24208 0.0
H450 H 0.47861 0.62584 0.27363 0.0
H451 H 0.46432 0.61189 0.31955 0.0
H452 H 0.52327 0.61151 0.38547 0.0
H453 H 0.55881 0.62773 0.35418 0.0
C454 C 0.55271 0.63795 0.30037 0.0
C455 C 0.54653 0.64223 0.27253 0.0
C456 C 0.53225 0.6291 0.31866 0.0
C457 C 0.51954 0.63782 0.26335 0.0
C458 C 0.49916 0.62915 0.28139 0.0
C459 C 0.48491 0.61545 0.32715 0.0
C460 C 0.49107 0.61046 0.35484 0.0
C461 C 0.50528 0.62462 0.30904 0.0
C462 C 0.51791 0.61514 0.36425 0.0
C463 C 0.53829 0.62442 0.34636 0.0
H464 H 0.26176 0.47035 0.15149 0.0
H465 H 0.21534 0.39915 0.12728 0.0
H466 H 0.18053 0.42861 0.1065 0.0
H467 H 0.16366 0.47474 0.09457 0.0
H468 H 0.21064 0.54555 0.1191 0.0
H469 H 0.24471 0.51603 0.14041 0.0
C470 C 0.24405 0.4612 0.14169 0.0
C471 C 0.24127 0.43255 0.14089 0.0
C472 C 0.22414 0.47822 0.12982 0.0
C473 C 0.21807 0.42114 0.12817 0.0
C474 C 0.19813 0.43798 0.11627 0.0
C475 C 0.18129 0.48372 0.10467 0.0
C476 C 0.18452 0.51237 0.10514 0.0
C477 C 0.201 0.46657 0.11689 0.0
C478 C 0.20756 0.52361 0.11833 0.0
C479 C 0.22713 0.50673 0.13054 0.0
H480 H 0.66385 0.0356 0.90524 0.0
H481 H 0.71235 0.96459 0.88454 0.0
H482 H 0.749 0.99406 0.86783 0.0
H483 H 0.76754 0.03986 0.85928 0.0
H484 H 0.71916 0.11103 0.87949 0.0
H485 H 0.68233 0.0816 0.89625 0.0
C486 C 0.6824 0.02655 0.89701 0.0
C487 C 0.68527 0.99789 0.89618 0.0
C488 C 0.70351 0.04364 0.88742 0.0
C489 C 0.7095 0.98657 0.88544 0.0
C490 C 0.73055 0.0034 0.8759 0.0
C491 C 0.74899 0.04897 0.86742 0.0
C492 C 0.7462 0.07763 0.86818 0.0
C493 C 0.72782 0.03195 0.87687 0.0
C494 C 0.72191 0.08904 0.87866 0.0
C495 C 0.7008 0.07222 0.88824 0.0
H496 H 0.71826 0.97406 0.36736 0.0
H497 H 0.76746 0.90073 0.36345 0.0
H498 H 0.80736 0.92629 0.37971 0.0
H499 H 0.82826 0.9696 0.39506 0.0
H500 H 0.77865 0.04279 0.39815 0.0
H501 H 0.73905 0.01711 0.38209 0.0
C502 C 0.73766 0.96359 0.37013 0.0
C503 C 0.7398 0.93549 0.36428 0.0
C504 C 0.76053 0.97842 0.37926 0.0
C505 C 0.76521 0.92235 0.36783 0.0
C506 C 0.78805 0.93696 0.37711 0.0
C507 C 0.80881 0.97995 0.39216 0.0
C508 C 0.80653 0.00812 0.39785 0.0
C509 C 0.78597 0.96503 0.38286 0.0
C510 C 0.78111 0.02116 0.39394 0.0
C511 C 0.75837 0.00648 0.38478 0.0
H512 H 0.24274 0.54257 0.58327 0.0
H513 H 0.2829 0.56644 0.65833 0.0
H514 H 0.3093 0.52405 0.65811 0.0
H515 H 0.31445 0.47675 0.64125 0.0
H516 H 0.27283 0.45213 0.56756 0.0
H517 H 0.25384 0.49827 0.56227 0.0
C518 C 0.25771 0.53882 0.59926 0.0
C519 C 0.26032 0.55741 0.62112 0.0
C520 C 0.27242 0.51408 0.59935 0.0
C521 C 0.28016 0.55237 0.64143 0.0
C522 C 0.29521 0.52803 0.6414 0.0
C523 C 0.302 0.48191 0.62357 0.0
C524 C 0.29511 0.46142 0.60467 0.0
C525 C 0.29057 0.50821 0.62117 0.0
C526 C 0.27854 0.46787 0.58211 0.0
C527 C 0.26755 0.49414 0.57924 0.0
H528 H 0.30598 0.40615 0.52645 0.0
H529 H 0.35688 0.44976 0.46863 0.0
H530 H 0.32669 0.43586 0.43133 0.0
H531 H 0.2869 0.41039 0.41495 0.0
H532 H 0.23624 0.36595 0.4723 0.0
H533 H 0.26548 0.38117 0.51001 0.0
C534 C 0.31043 0.4128 0.50573 0.0
C535 C 0.33379 0.42896 0.50041 0.0
C536 C 0.29315 0.40447 0.48428 0.0
C537 C 0.33918 0.43725 0.47337 0.0
C538 C 0.32192 0.42929 0.45199 0.0
C539 C 0.28211 0.404 0.43568 0.0
C540 C 0.25934 0.38694 0.44069 0.0
C541 C 0.29903 0.4127 0.45719 0.0
C542 C 0.25361 0.37898 0.46776 0.0
C543 C 0.27032 0.38771 0.48936 0.0
H544 H 0.89725 0.97979 0.71241 0.0
H545 H 0.85453 0.02239 0.64745 0.0
H546 H 0.83493 0.05381 0.68021 0.0
H547 H 0.83335 0.07252 0.72616 0.0
H548 H 0.87473 0.03146 0.79233 0.0
H549 H 0.89092 0.9959 0.76048 0.0
C550 C 0.88341 0.99574 0.70551 0.0
C551 C 0.87794 0.9989 0.67732 0.0
C552 C 0.87193 0.0141 0.72467 0.0
C553 C 0.85965 0.01957 0.66885 0.0
C554 C 0.84826 0.03765 0.6876 0.0
C555 C 0.84549 0.05545 0.73367 0.0
C556 C 0.85303 0.05453 0.76131 0.0
C557 C 0.85481 0.03555 0.71535 0.0
C558 C 0.86858 0.03236 0.77103 0.0
C559 C 0.87802 0.01225 0.75279 0.0
H560 H 0.27798 0.66724 0.95331 0.0
H561 H 0.28659 0.5823 0.93111 0.0
H562 H 0.25535 0.56902 0.96793 0.0
H563 H 0.2196 0.58237 0.00091 0.0
H564 H 0.20674 0.66773 0.01865 0.0
H565 H 0.24572 0.68018 0.98965 0.0
C566 C 0.27366 0.64579 0.95716 0.0
C567 C 0.28449 0.62576 0.93964 0.0
C568 C 0.25458 0.63847 0.97742 0.0
C569 C 0.27839 0.59804 0.94441 0.0
C570 C 0.26043 0.59047 0.96534 0.0
C571 C 0.22603 0.60355 0.99904 0.0
C572 C 0.21075 0.62415 0.01192 0.0
C573 C 0.24751 0.61059 0.9812 0.0
C574 C 0.21856 0.65163 0.00897 0.0
C575 C 0.24067 0.65873 0.99228 0.0
H576 H 0.6525 0.00964 0.19448 0.0
H577 H 0.5674 0.01146 0.21787 0.0
H578 H 0.57682 0.97987 0.25575 0.0
H579 H 0.60801 0.94596 0.2768 0.0
H580 H 0.69339 0.94552 0.25453 0.0
H581 H 0.68542 0.9828 0.22185 0.0
C582 C 0.63624 0.00368 0.20843 0.0
C583 C 0.6093 0.01249 0.20344 0.0
C584 C 0.64188 0.98568 0.23012 0.0
C585 C 0.58831 0.00491 0.22153 0.0
C586 C 0.59366 0.98671 0.24299 0.0
C587 C 0.62496 0.95479 0.26544 0.0
C588 C 0.6512 0.94325 0.26786 0.0
C589 C 0.62016 0.97613 0.24676 0.0
C590 C 0.67311 0.95445 0.25305 0.0
C591 C 0.66848 0.97552 0.23422 0.0
H592 H 0.75781 0.1119 0.59397 0.0
H593 H 0.71717 0.16994 0.54106 0.0
H594 H 0.74556 0.15474 0.5025 0.0
H595 H 0.78586 0.12845 0.48544 0.0
H596 H 0.82767 0.07346 0.5405 0.0
H597 H 0.79472 0.08375 0.57661 0.0
C598 C 0.75491 0.12118 0.57399 0.0
C599 C 0.73568 0.14235 0.57055 0.0
C600 C 0.77163 0.11286 0.5523 0.0
C601 C 0.73194 0.15371 0.54434 0.0
C602 C 0.74825 0.14509 0.52231 0.0
C603 C 0.78721 0.11835 0.50518 0.0
C604 C 0.80897 0.10022 0.51049 0.0
C605 C 0.7687 0.12517 0.52624 0.0
C606 C 0.811 0.08748 0.53615 0.0
C607 C 0.79227 0.09343 0.55677 0.0
H608 H 0.12933 0.54274 0.71455 0.0
H609 H 0.21629 0.54489 0.72947 0.0
H610 H 0.21159 0.50904 0.76427 0.0
H611 H 0.18133 0.48363 0.79582 0.0
H612 H 0.09459 0.48007 0.77967 0.0
H613 H 0.1005 0.50952 0.7395 0.0
C614 C 0.1473 0.53457 0.7248 0.0
C615 C 0.17307 0.54632 0.71976 0.0
C616 C 0.14437 0.51404 0.7447 0.0
C617 C 0.19632 0.53586 0.73301 0.0
C618 C 0.19357 0.51561 0.75307 0.0
C619 C 0.16392 0.48866 0.78293 0.0
C620 C 0.13756 0.48009 0.79067 0.0
C621 C 0.16753 0.50548 0.7599 0.0
C622 C 0.11507 0.48645 0.77393 0.0
C623 C 0.11842 0.50346 0.75115 0.0
H624 H 0.69232 0.83588 0.97611 0.0
H625 H 0.71229 0.92029 0.99187 0.0
H626 H 0.74891 0.90617 0.0232 0.0
H627 H 0.76947 0.8698 0.05164 0.0
H628 H 0.75089 0.78531 0.03462 0.0
H629 H 0.71984 0.79924 0.99768 0.0
C630 C 0.70535 0.85105 0.98579 0.0
C631 C 0.69978 0.87899 0.98199 0.0
C632 C 0.72634 0.84273 0.00361 0.0
C633 C 0.71652 0.89867 0.99449 0.0
C634 C 0.73724 0.89059 0.01253 0.0
C635 C 0.75927 0.85451 0.03916 0.0
C636 C 0.76217 0.82667 0.0457 0.0
C637 C 0.74155 0.86271 0.01806 0.0
C638 C 0.74899 0.80686 0.02964 0.0
C639 C 0.73107 0.81484 0.00876 0.0
H640 H 0.36458 0.47755 0.24121 0.0
H641 H 0.30045 0.4358 0.28512 0.0
H642 H 0.30623 0.46675 0.324 0.0
H643 H 0.33389 0.50087 0.34774 0.0
H644 H 0.39983 0.54162 0.30527 0.0
H645 H 0.38883 0.51627 0.26346 0.0
C646 C 0.35134 0.47598 0.25898 0.0
C647 C 0.33195 0.45479 0.26043 0.0
C648 C 0.35547 0.4933 0.28163 0.0
C649 C 0.31526 0.45228 0.28365 0.0
C650 C 0.31873 0.46978 0.30591 0.0
C651 C 0.34565 0.50451 0.32924 0.0
C652 C 0.36794 0.52274 0.32976 0.0
C653 C 0.33948 0.48962 0.30552 0.0
C654 C 0.38265 0.52758 0.30547 0.0
C655 C 0.37644 0.51299 0.28158 0.0
H656 H 0.51707 0.30101 0.33703 0.0
H657 H 0.52031 0.27268 0.42053 0.0
H658 H 0.48999 0.23442 0.40911 0.0
H659 H 0.45493 0.21586 0.37763 0.0
H660 H 0.45204 0.24418 0.29416 0.0
H661 H 0.49036 0.27528 0.30293 0.0
C662 C 0.51191 0.2858 0.35241 0.0
C663 C 0.52049 0.28965 0.37958 0.0
C664 C 0.49433 0.26411 0.34571 0.0
C665 C 0.51393 0.26995 0.39945 0.0
C666 C 0.49637 0.24828 0.39298 0.0
C667 C 0.46362 0.22798 0.36114 0.0
C668 C 0.45097 0.2279 0.33533 0.0
C669 C 0.48534 0.24605 0.36652 0.0
C670 C 0.46185 0.24383 0.31407 0.0
C671 C 0.4835 0.26181 0.31919 0.0
H672 H 0.03272 0.20849 0.6433 0.0
H673 H 0.00994 0.22022 0.5589 0.0
H674 H 0.9777 0.25632 0.57216 0.0
H675 H 0.95086 0.27867 0.60862 0.0
H676 H 0.97471 0.26835 0.69293 0.0
H677 H 0.01212 0.23787 0.67902 0.0
C678 C 0.02136 0.21972 0.62783 0.0
C679 C 0.02355 0.21198 0.60023 0.0
C680 C 0.00291 0.24035 0.63567 0.0
C681 C 0.00868 0.22624 0.58022 0.0
C682 C 0.99009 0.24663 0.58784 0.0
C683 C 0.96483 0.27034 0.62379 0.0
C684 C 0.96013 0.27543 0.65169 0.0
C685 C 0.98626 0.25302 0.61559 0.0
C686 C 0.97818 0.26472 0.67132 0.0
C687 C 0.99938 0.24715 0.66338 0.0
H688 H 0.96911 0.69743 0.84333 0.0
H689 H 0.98545 0.70571 0.92956 0.0
H690 H 0.01501 0.74518 0.92053 0.0
H691 H 0.04433 0.76913 0.88714 0.0
H692 H 0.02842 0.76055 0.80086 0.0
H693 H 0.98991 0.72993 0.81066 0.0
C694 C 0.97815 0.70878 0.86015 0.0
C695 C 0.9753 0.6989 0.88702 0.0
C696 C 0.99547 0.73107 0.85468 0.0
C697 C 0.98723 0.71331 0.90878 0.0
C698 C 0.00439 0.73562 0.90356 0.0
C699 C 0.03154 0.76153 0.87063 0.0
C700 C 0.03906 0.76682 0.84337 0.0
C701 C 0.00987 0.74358 0.87647 0.0
C702 C 0.02271 0.75685 0.82198 0.0
C703 C 0.00096 0.73907 0.8276 0.0
H704 H 0.52841 0.71959 0.10995 0.0
H705 H 0.52511 0.74059 0.19553 0.0
H706 H 0.49111 0.77623 0.18583 0.0
H707 H 0.46807 0.8057 0.15182 0.0
H708 H 0.46935 0.78317 0.06656 0.0
H709 H 0.49802 0.74336 0.07719 0.0
C710 C 0.51956 0.73149 0.12648 0.0
C711 C 0.52915 0.72781 0.15333 0.0
C712 C 0.49993 0.7517 0.12073 0.0
C713 C 0.51774 0.74314 0.17475 0.0
C714 C 0.49852 0.7636 0.16916 0.0
C715 C 0.47403 0.79155 0.13577 0.0
C716 C 0.46696 0.79725 0.10849 0.0
C717 C 0.49028 0.76871 0.1421 0.0
C718 C 0.47455 0.77895 0.08772 0.0
C719 C 0.4911 0.75638 0.09377 0.0
H720 H 0.1987 0.31541 0.30927 0.0
H721 H 0.1764 0.40069 0.31081 0.0
H722 H 0.20431 0.40925 0.27019 0.0
H723 H 0.24361 0.39481 0.24242 0.0
H724 H 0.27102 0.31103 0.24591 0.0
H725 H 0.23195 0.2991 0.27508 0.0
C726 C 0.19886 0.33551 0.29977 0.0
C727 C 0.18555 0.35741 0.31282 0.0
C728 C 0.21655 0.34062 0.27762 0.0
C729 C 0.18636 0.38354 0.30087 0.0
C730 C 0.20267 0.3885 0.27791 0.0
C731 C 0.24055 0.37381 0.24903 0.0
C732 C 0.26019 0.35387 0.24246 0.0
C733 C 0.21927 0.36759 0.26736 0.0
C734 C 0.25623 0.32674 0.2511 0.0
C735 C 0.234 0.31999 0.26785 0.0
H736 H 0.93981 0.0158 0.49626 0.0
H737 H 0.85394 0.99742 0.48633 0.0
H738 H 0.85979 0.95481 0.51197 0.0
H739 H 0.88715 0.92884 0.54527 0.0
H740 H 0.97282 0.94722 0.5556 0.0
H741 H 0.96976 0.9826 0.52021 0.0
C742 C 0.92256 0.0021 0.49923 0.0
C743 C 0.89633 0.00997 0.49018 0.0
C744 C 0.92613 0.97753 0.51381 0.0
C745 C 0.87423 0.99188 0.49346 0.0
C746 C 0.87756 0.96754 0.50813 0.0
C747 C 0.90543 0.93967 0.53873 0.0
C748 C 0.93004 0.9358 0.55319 0.0
C749 C 0.90313 0.96088 0.51948 0.0
C750 C 0.95367 0.94978 0.54465 0.0
C751 C 0.95174 0.97052 0.52493 0.0
H752 H 0.2664 0.6159 0.73298 0.0
H753 H 0.22609 0.69355 0.74467 0.0
H754 H 0.26406 0.70923 0.7735 0.0
H755 H 0.3051 0.69834 0.80051 0.0
H756 H 0.34112 0.61806 0.79469 0.0
H757 H 0.30907 0.60598 0.75804 0.0
C758 C 0.26612 0.6363 0.74175 0.0
C759 C 0.24352 0.6535 0.73704 0.0
C760 C 0.28732 0.64464 0.75932 0.0
C761 C 0.24317 0.67986 0.74844 0.0
C762 C 0.2649 0.68885 0.76478 0.0
C763 C 0.30653 0.6786 0.79044 0.0
C764 C 0.32563 0.65921 0.79984 0.0
C765 C 0.28666 0.67112 0.77103 0.0
C766 C 0.32683 0.63338 0.78736 0.0
C767 C 0.30825 0.62637 0.76675 0.0
H768 H 0.62776 0.05411 0.06104 0.0
H769 H 0.53976 0.04748 0.05879 0.0
H770 H 0.54311 0.0106 0.025 0.0
H771 H 0.57159 0.97563 0.00187 0.0
H772 H 0.65951 0.98364 0.00269 0.0
H773 H 0.65587 0.02446 0.03162 0.0
C774 C 0.60932 0.04529 0.05229 0.0
C775 C 0.58358 0.05343 0.06225 0.0
C776 C 0.61149 0.02377 0.03341 0.0
C777 C 0.55978 0.04182 0.05104 0.0
C778 C 0.56173 0.02037 0.03215 0.0
C779 C 0.58985 0.98654 0.00826 0.0
C780 C 0.6158 0.9765 0.0009 0.0
C781 C 0.58751 0.01037 0.0242 0.0
C782 C 0.63939 0.99096 0.00857 0.0
C783 C 0.63729 0.01428 0.02498 0.0
H784 H 0.68112 0.13994 0.71041 0.0
H785 H 0.69869 0.22619 0.70525 0.0
H786 H 0.73561 0.22094 0.73883 0.0
H787 H 0.76879 0.1899 0.76147 0.0
H788 H 0.75042 0.10376 0.76722 0.0
H789 H 0.70812 0.11068 0.74119 0.0
C790 C 0.69224 0.15777 0.71764 0.0
C791 C 0.6874 0.18334 0.70537 0.0
C792 C 0.71402 0.15436 0.73606 0.0
C793 C 0.70189 0.20635 0.71467 0.0
C794 C 0.72343 0.20322 0.73336 0.0
C795 C 0.75524 0.1728 0.75732 0.0
C796 C 0.76287 0.14626 0.76551 0.0
C797 C 0.7307 0.17704 0.74282 0.0
C798 C 0.74499 0.12428 0.76074 0.0
C799 C 0.72084 0.12824 0.74592 0.0
H800 H 0.15629 0.51943 0.99822 0.0
H801 H 0.07131 0.54273 0.99339 0.0
H802 H 0.06089 0.50114 0.96743 0.0
H803 H 0.07749 0.46272 0.93925 0.0
H804 H 0.16354 0.44317 0.93887 0.0
H805 H 0.17221 0.47845 0.97336 0.0
C806 C 0.13551 0.5152 0.99155 0.0
C807 C 0.1146 0.53408 0.99732 0.0
C808 C 0.13001 0.49206 0.9753 0.0
C809 C 0.08773 0.52856 0.98873 0.0
C810 C 0.0818 0.50481 0.97393 0.0
C811 C 0.09792 0.46551 0.9476 0.0
C812 C 0.11982 0.45014 0.937 0.0
C813 C 0.10296 0.48699 0.96612 0.0
C814 C 0.14637 0.45454 0.94715 0.0
C815 C 0.15136 0.47493 0.96657 0.0
H816 H 0.72958 0.80109 0.25693 0.0
H817 H 0.73856 0.88746 0.2418 0.0
H818 H 0.77708 0.87844 0.2109 0.0
H819 H 0.80369 0.84567 0.18381 0.0
H820 H 0.79382 0.75905 0.19729 0.0
H821 H 0.76053 0.76823 0.23373 0.0
C822 C 0.74007 0.81779 0.24681 0.0
C823 C 0.73107 0.84478 0.25088 0.0
C824 C 0.76209 0.81235 0.22908 0.0
C825 C 0.74516 0.86652 0.23856 0.0
C826 C 0.76711 0.86136 0.22099 0.0
C827 C 0.79494 0.82887 0.19543 0.0
C828 C 0.80116 0.80177 0.18804 0.0
C829 C 0.77523 0.83433 0.21555 0.0
C830 C 0.78965 0.78007 0.20298 0.0
C831 C 0.77028 0.78534 0.22347 0.0
H832 H 0.41626 0.5186 0.55881 0.0
H833 H 0.33031 0.50288 0.54583 0.0
H834 H 0.33114 0.53124 0.5044 0.0
H835 H 0.35787 0.55561 0.46911 0.0
H836 H 0.44371 0.57179 0.48267 0.0
H837 H 0.44135 0.54849 0.52696 0.0
C838 C 0.39759 0.52196 0.54721 0.0
C839 C 0.37332 0.50864 0.55514 0.0
C840 C 0.3983 0.53814 0.52348 0.0
C841 C 0.34918 0.51311 0.54015 0.0
C842 C 0.34973 0.52911 0.51636 0.0
C843 C 0.37592 0.55445 0.48202 0.0
C844 C 0.40101 0.56511 0.47256 0.0
C845 C 0.37439 0.54099 0.5074 0.0
C846 C 0.42418 0.56378 0.48954 0.0
C847 C 0.42288 0.5503 0.51477 0.0
H848 H 0.24748 0.26706 0.38187 0.0
H849 H 0.27156 0.31113 0.30911 0.0
H850 H 0.29238 0.27005 0.29052 0.0
H851 H 0.30755 0.22278 0.29651 0.0
H852 H 0.29573 0.18271 0.3738 0.0
H853 H 0.26505 0.21976 0.38868 0.0
C854 C 0.25721 0.26756 0.36191 0.0
C855 C 0.25734 0.29205 0.34659 0.0
C856 C 0.27089 0.24416 0.35203 0.0
C857 C 0.27058 0.2925 0.32105 0.0
C858 C 0.28255 0.26895 0.31037 0.0
C859 C 0.29776 0.22205 0.31632 0.0
C860 C 0.3034 0.20007 0.3338 0.0
C861 C 0.2831 0.24479 0.32579 0.0
C862 C 0.291 0.19918 0.35971 0.0
C863 C 0.27398 0.22064 0.36839 0.0
H864 H 0.98552 0.00886 0.55981 0.0
H865 H 0.99351 0.00783 0.64768 0.0
H866 H 0.03353 0.03792 0.6447 0.0
H867 H 0.06272 0.06853 0.61724 0.0
H868 H 0.05641 0.06773 0.52926 0.0
H869 H 0.01989 0.03344 0.53191 0.0
C870 C 0.99624 0.01504 0.57821 0.0
C871 C 0.98637 0.00669 0.60395 0.0
C872 C 0.01967 0.03165 0.57625 0.0
C873 C 0.00066 0.0143 0.62769 0.0
C874 C 0.02353 0.03142 0.62598 0.0
C875 C 0.05402 0.06001 0.59865 0.0
C876 C 0.06221 0.07046 0.57312 0.0
C877 C 0.03285 0.04066 0.60041 0.0
C878 C 0.05074 0.05959 0.54911 0.0
C879 C 0.02952 0.04037 0.55066 0.0
H880 H 0.26545 0.73878 0.86705 0.0
H881 H 0.22946 0.67712 0.81477 0.0
H882 H 0.19595 0.71009 0.79834 0.0
H883 H 0.17562 0.75559 0.80008 0.0
H884 H 0.20651 0.81585 0.85623 0.0
H885 H 0.24419 0.78485 0.86908 0.0
C886 C 0.25023 0.73253 0.85214 0.0
C887 C 0.25005 0.70541 0.84222 0.0
C888 C 0.23045 0.75152 0.84316 0.0
C889 C 0.23006 0.69771 0.82295 0.0
C890 C 0.21095 0.71662 0.81336 0.0
C891 C 0.1906 0.7619 0.81508 0.0
C892 C 0.18842 0.78776 0.82722 0.0
C893 C 0.21085 0.74343 0.82347 0.0
C894 C 0.20818 0.79609 0.84633 0.0
C895 C 0.22939 0.77822 0.85392 0.0
H896 H 0.51897 0.99494 0.07027 0.0
H897 H 0.50612 0.99626 0.15753 0.0
H898 H 0.46372 0.96996 0.15209 0.0
H899 H 0.43353 0.94233 0.12286 0.0
H900 H 0.44506 0.94237 0.03542 0.0
H901 H 0.48408 0.97357 0.04027 0.0
C902 C 0.50672 0.98952 0.08797 0.0
C903 C 0.51578 0.99674 0.11431 0.0
C904 C 0.48199 0.97517 0.08456 0.0
C905 C 0.49958 0.99041 0.13715 0.0
C906 C 0.47535 0.97555 0.13402 0.0
C907 C 0.44395 0.95009 0.10482 0.0
C908 C 0.4365 0.94023 0.07886 0.0
C909 C 0.46668 0.96737 0.10788 0.0
C910 C 0.45018 0.95011 0.05557 0.0
C911 C 0.47283 0.96746 0.05841 0.0
H912 H 0.75602 0.24005 0.69628 0.0
H913 H 0.75367 0.25117 0.60879 0.0
H914 H 0.78501 0.29019 0.61256 0.0
H915 H 0.81702 0.31742 0.64043 0.0
H916 H 0.81754 0.30797 0.72816 0.0
H917 H 0.7821 0.27264 0.72489 0.0
C918 C 0.76221 0.25125 0.67815 0.0
C919 C 0.75315 0.24257 0.65226 0.0
C920 C 0.77954 0.27408 0.68061 0.0
C921 C 0.76072 0.25744 0.62887 0.0
C922 C 0.77854 0.27972 0.63105 0.0
C923 C 0.80857 0.30831 0.65887 0.0
C924 C 0.81971 0.31524 0.68448 0.0
C925 C 0.78853 0.28783 0.65675 0.0
C926 C 0.8089 0.30326 0.70827 0.0
C927 C 0.78901 0.28272 0.70635 0.0
H928 H 0.02693 0.49067 0.85322 0.0
H929 H 0.0705 0.52471 0.9221 0.0
H930 H 0.02882 0.54686 0.93807 0.0
H931 H 0.98074 0.55878 0.93104 0.0
H932 H 0.94073 0.5369 0.85606 0.0
H933 H 0.97906 0.50625 0.84434 0.0
C934 C 0.02719 0.50301 0.87168 0.0
C935 C 0.05164 0.50566 0.88682 0.0
C936 C 0.00343 0.51721 0.87983 0.0
C937 C 0.05188 0.52206 0.91039 0.0
C938 C 0.02801 0.53466 0.91958 0.0
C939 C 0.98046 0.54709 0.91237 0.0
C940 C 0.95808 0.54972 0.89472 0.0
C941 C 0.00377 0.53249 0.90439 0.0
C942 C 0.95758 0.53456 0.87033 0.0
C943 C 0.97972 0.51755 0.86342 0.0
H944 H 0.6619 0.67122 0.12755 0.0
H945 H 0.67499 0.6721 0.21482 0.0
H946 H 0.71373 0.70335 0.20898 0.0
H947 H 0.73883 0.73624 0.17947 0.0
H948 H 0.7259 0.73472 0.09222 0.0
H949 H 0.69176 0.6983 0.09751 0.0
C950 C 0.67386 0.67755 0.14518 0.0
C951 C 0.66558 0.66951 0.17154 0.0
C952 C 0.69549 0.69613 0.14169 0.0
C953 C 0.68117 0.67775 0.19427 0.0
C954 C 0.70303 0.69602 0.19097 0.0
C955 C 0.72867 0.7276 0.1617 0.0
C956 C 0.73425 0.73824 0.13556 0.0
C957 C 0.70948 0.70635 0.16491 0.0
C958 C 0.72153 0.72684 0.11251 0.0
C959 C 0.70213 0.70605 0.11554 0.0
H960 H 0.46847 0.491 0.45032 0.0
H961 H 0.46885 0.50353 0.36297 0.0
H962 H 0.50802 0.47255 0.35829 0.0
H963 H 0.53964 0.43901 0.37879 0.0
H964 H 0.54172 0.42898 0.46644 0.0
H965 H 0.50455 0.46223 0.47147 0.0
C966 C 0.47736 0.487 0.43036 0.0
C967 C 0.46573 0.49902 0.40695 0.0
C968 C 0.50039 0.46984 0.42795 0.0
C969 C 0.47753 0.49427 0.38119 0.0
C970 C 0.49987 0.47661 0.37852 0.0
C971 C 0.53244 0.44477 0.39901 0.0
C972 C 0.5434 0.43176 0.4222 0.0
C973 C 0.5112 0.46397 0.40171 0.0
C974 C 0.53387 0.43912 0.44832 0.0
C975 C 0.51237 0.45784 0.45118 0.0
H976 H 0.39487 0.26481 0.24756 0.0
H977 H 0.31052 0.23954 0.25268 0.0
H978 H 0.29812 0.27135 0.2161 0.0
H979 H 0.31017 0.31197 0.18866 0.0
H980 H 0.39429 0.33828 0.18491 0.0
H981 H 0.40822 0.2998 0.21369 0.0
C982 C 0.37397 0.26584 0.24005 0.0
C983 C 0.35352 0.25042 0.25299 0.0
C984 C 0.36702 0.28426 0.21902 0.0
C985 C 0.32647 0.2517 0.24329 0.0
C986 C 0.3194 0.2698 0.22229 0.0
C987 C 0.33169 0.30836 0.19299 0.0
C988 C 0.35126 0.32765 0.18455 0.0
C989 C 0.33932 0.28695 0.21072 0.0
C990 C 0.37899 0.32336 0.19094 0.0
C991 C 0.38689 0.30164 0.20778 0.0
H992 H 0.88421 0.18964 0.82128 0.0
H993 H 0.79633 0.19518 0.81549 0.0
H994 H 0.80056 0.23115 0.78077 0.0
H995 H 0.82961 0.25515 0.74676 0.0
H996 H 0.91749 0.25061 0.75382 0.0
H997 H 0.91312 0.21987 0.79328 0.0
C998 C 0.86604 0.19967 0.81329 0.0
C999 C 0.84004 0.18995 0.82088 0.0
C1000 C 0.8687 0.21975 0.79293 0.0
C1001 C 0.81655 0.20273 0.81027 0.0
C1002 C 0.81898 0.22287 0.79 0.0
C1003 C 0.8477 0.24759 0.75722 0.0
C1004 C 0.87383 0.25441 0.74726 0.0
C1005 C 0.84496 0.23053 0.78025 0.0
C1006 C 0.89723 0.24518 0.76111 0.0
C1007 C 0.89472 0.22774 0.78364 0.0
H1008 H 0.00844 0.64853 0.98389 0.0
H1009 H 0.99514 0.56185 0.97488 0.0
H1010 H 0.02337 0.55265 0.01504 0.0
H1011 H 0.05794 0.56893 0.04798 0.0
H1012 H 0.07265 0.6555 0.05593 0.0
H1013 H 0.03725 0.66523 0.0219 0.0
C1014 C 0.01137 0.62774 0.99116 0.0
C1015 C 0.00035 0.60587 0.97622 0.0
C1016 C 0.02785 0.6226 0.01424 0.0
C1017 C 0.004 0.57897 0.98571 0.0
C1018 C 0.02005 0.5737 0.0088 0.0
C1019 C 0.05242 0.58992 0.04317 0.0
C1020 C 0.06762 0.6115 0.0545 0.0
C1021 C 0.03291 0.59528 0.02264 0.0
C1022 C 0.06092 0.63862 0.04758 0.0
C1023 C 0.04097 0.64416 0.02784 0.0
H1024 H 0.69007 0.79745 0.28942 0.0
H1025 H 0.61317 0.79885 0.33233 0.0
H1026 H 0.59495 0.76336 0.30181 0.0
H1027 H 0.59884 0.73723 0.25851 0.0
H1028 H 0.6734 0.74316 0.21148 0.0
H1029 H 0.6945 0.7704 0.24736 0.0
C1030 C 0.66965 0.78927 0.29251 0.0
C1031 C 0.65313 0.80016 0.31329 0.0
C1032 C 0.65865 0.77078 0.27348 0.0
C1033 C 0.62642 0.79012 0.31683 0.0
C1034 C 0.61588 0.77023 0.29908 0.0
C1035 C 0.61975 0.74441 0.25633 0.0
C1036 C 0.6345 0.73835 0.23235 0.0
C1037 C 0.63142 0.76128 0.2766 0.0
C1038 C 0.66154 0.7478 0.22963 0.0
C1039 C 0.67369 0.76335 0.25022 0.0
H1040 H 0.45809 0.40622 0.56513 0.0
H1041 H 0.38478 0.37237 0.52958 0.0
H1042 H 0.41093 0.35638 0.48989 0.0
H1043 H 0.45409 0.35626 0.46335 0.0
H1044 H 0.52797 0.38694 0.50078 0.0
H1045 H 0.5024 0.39965 0.54184 0.0
C1046 C 0.4481 0.39471 0.54896 0.0
C1047 C 0.41976 0.39029 0.55012 0.0
C1048 C 0.46333 0.38525 0.5265 0.0
C1049 C 0.40675 0.37556 0.52915 0.0
C1050 C 0.42163 0.36667 0.50638 0.0
C1051 C 0.46456 0.36528 0.48075 0.0
C1052 C 0.49273 0.37086 0.4791 0.0
C1053 C 0.44982 0.372 0.50453 0.0
C1054 C 0.50627 0.38235 0.50173 0.0
C1055 C 0.49165 0.38977 0.52513 0.0
H1056 H 0.1276 0.67415 0.67767 0.0
H1057 H 0.20921 0.70724 0.67143 0.0
H1058 H 0.19742 0.74298 0.70461 0.0
H1059 H 0.16647 0.75911 0.74154 0.0
H1060 H 0.08718 0.72161 0.75123 0.0
H1061 H 0.09534 0.69308 0.7108 0.0
C1062 C 0.14254 0.68973 0.68296 0.0
C1063 C 0.16926 0.68799 0.6723 0.0
C1064 C 0.13612 0.70898 0.70322 0.0
C1065 C 0.18844 0.70828 0.67917 0.0
C1066 C 0.18181 0.72843 0.69851 0.0
C1067 C 0.15082 0.74513 0.73424 0.0
C1068 C 0.12621 0.74236 0.74897 0.0
C1069 C 0.15615 0.72812 0.71161 0.0
C1070 C 0.10615 0.72398 0.73995 0.0
C1071 C 0.11086 0.70772 0.71693 0.0
H1072 H 0.49709 0.92697 0.01776 0.0
H1073 H 0.49291 0.83954 0.0071 0.0
H1074 H 0.52392 0.84255 0.96772 0.0
H1075 H 0.5562 0.86965 0.94006 0.0
H1076 H 0.55879 0.95733 0.94916 0.0
H1077 H 0.52355 0.95495 0.98479 0.0
C1078 C 0.50283 0.9087 0.00656 0.0
C1079 C 0.49338 0.88301 0.01544 0.0
C1080 C 0.52 0.91073 0.98356 0.0
C1081 C 0.50031 0.85944 0.00064 0.0
C1082 C 0.51793 0.86118 0.97816 0.0
C1083 C 0.54823 0.88829 0.94915 0.0
C1084 C 0.55989 0.91361 0.94202 0.0
C1085 C 0.52835 0.88665 0.96983 0.0
C1086 C 0.54972 0.93767 0.954 0.0
C1087 C 0.52995 0.93624 0.97472 0.0
H1088 H 0.93866 0.13602 0.43469 0.0
H1089 H 0.94213 0.04821 0.4416 0.0
H1090 H 0.97994 0.05191 0.47434 0.0
H1091 H 0.00532 0.08075 0.50747 0.0
H1092 H 0.00264 0.16855 0.49949 0.0
H1093 H 0.97111 0.16446 0.46063 0.0
C1094 C 0.94873 0.11771 0.44229 0.0
C1095 C 0.93778 0.09192 0.43584 0.0
C1096 C 0.96987 0.12011 0.4616 0.0
C1097 C 0.95058 0.06825 0.44598 0.0
C1098 C 0.97179 0.07041 0.46516 0.0
C1099 C 0.99813 0.09887 0.49682 0.0
C1100 C 0.0056 0.12492 0.50645 0.0
C1101 C 0.98049 0.09628 0.47422 0.0
C1102 C 0.99677 0.14836 0.49242 0.0
C1103 C 0.97884 0.146 0.47025 0.0
loop_
_geom_bond_atom_site_label_1
_geom_bond_atom_site_label_2
_geom_bond_distance
_geom_bond_site_symmetry_2
_ccdc_geom_bond_type
Mg0 O1 2.028 . S
Mg0 O7 1.986 . S
Mg0 O9 2.114 . S
Mg0 O10 2.251 . S
Mg0 O13 2.010 . S
O1 Mg0 2.028 . S
O1 C4 1.250 . S
O2 Mg3 2.028 . S
O2 C4 1.248 . S
Mg3 O2 2.028 . S
Mg3 O8 2.032 . S
Mg3 O10 2.079 . S
C4 O1 1.250 . S
C4 O2 1.248 . S
C5 O6 1.264 . S
C5 O13 1.249 . S
O6 C5 1.264 . S
O7 Mg0 1.986 . S
O7 C11 1.246 . S
O8 Mg3 2.032 . S
O8 C11 1.259 . S
O9 Mg0 2.114 . S
O9 C12 1.252 . S
O10 Mg0 2.251 . S
O10 Mg3 2.079 . S
O10 C12 1.273 . S
C11 O7 1.246 . S
C11 O8 1.259 . S
C12 O9 1.252 . S
C12 O10 1.273 . S
O13 Mg0 2.010 . S
O13 C5 1.249 . S
Mg14 O15 2.028 . S
Mg14 O21 1.986 . S
Mg14 O23 2.114 . S
Mg14 O24 2.251 . S
Mg14 O27 2.010 . S
O15 Mg14 2.028 . S
O15 C18 1.250 . S
O16 Mg17 2.028 . S
O16 C18 1.248 1_545 S
Mg17 O16 2.028 . S
Mg17 O22 2.032 1_545 S
Mg17 O24 2.079 1_545 S
C18 O15 1.250 . S
C18 O16 1.248 1_565 S
C19 O20 1.264 . S
C19 O27 1.249 . S
O20 C19 1.264 . S
O21 Mg14 1.986 . S
O21 C25 1.246 . S
O22 Mg17 2.032 1_565 S
O22 C25 1.259 . S
O23 Mg14 2.114 . S
O23 C26 1.252 . S
O24 Mg14 2.251 . S
O24 Mg17 2.079 1_565 S
O24 C26 1.273 . S
C25 O21 1.246 . S
C25 O22 1.259 . S
C26 O23 1.252 . S
C26 O24 1.273 . S
O27 Mg14 2.010 . S
O27 C19 1.249 . S
Mg28 O29 2.028 . S
Mg28 O35 1.986 . S
Mg28 O37 2.114 . S
Mg28 O38 2.251 . S
Mg28 O41 2.010 . S
O29 Mg28 2.028 . S
O29 C32 1.250 . S
O30 Mg31 2.028 . S
O30 C32 1.248 . S
Mg31 O30 2.028 . S
Mg31 O36 2.032 . S
Mg31 O38 2.079 . S
C32 O29 1.250 . S
C32 O30 1.248 . S
C33 O34 1.264 . S
C33 O41 1.249 . S
O34 C33 1.264 . S
O35 Mg28 1.986 . S
O35 C39 1.246 . S
O36 Mg31 2.032 . S
O36 C39 1.259 . S
O37 Mg28 2.114 . S
O37 C40 1.252 . S
O38 Mg28 2.251 . S
O38 Mg31 2.079 . S
O38 C40 1.273 . S
C39 O35 1.246 . S
C39 O36 1.259 . S
C40 O37 1.252 . S
C40 O38 1.273 . S
O41 Mg28 2.010 . S
O41 C33 1.249 . S
Mg42 O43 2.028 . S
Mg42 O49 1.986 . S
Mg42 O51 2.114 . S
Mg42 O52 2.251 . S
Mg42 O55 2.010 . S
O43 Mg42 2.028 . S
O43 C46 1.250 . S
O44 Mg45 2.028 . S
O44 C46 1.248 1_565 S
Mg45 O44 2.028 . S
Mg45 O50 2.032 1_565 S
Mg45 O52 2.079 1_565 S
C46 O43 1.250 . S
C46 O44 1.248 1_545 S
C47 O48 1.264 . S
C47 O55 1.249 . S
O48 C47 1.264 . S
O49 Mg42 1.986 . S
O49 C53 1.246 . S
O50 Mg45 2.032 1_545 S
O50 C53 1.259 . S
O51 Mg42 2.114 . S
O51 C54 1.252 . S
O52 Mg42 2.251 . S
O52 Mg45 2.079 1_545 S
O52 C54 1.273 . S
C53 O49 1.246 . S
C53 O50 1.259 . S
C54 O51 1.252 . S
C54 O52 1.273 . S
O55 Mg42 2.010 . S
O55 C47 1.249 . S
Mg56 O57 2.028 . S
Mg56 O63 1.986 . S
Mg56 O65 2.114 . S
Mg56 O66 2.251 . S
Mg56 O69 2.010 . S
O57 Mg56 2.028 . S
O57 C60 1.250 . S
O58 Mg59 2.028 . S
O58 C60 1.248 . S
Mg59 O58 2.028 . S
Mg59 O64 2.032 . S
Mg59 O66 2.079 . S
C60 O57 1.250 . S
C60 O58 1.248 . S
C61 O62 1.264 . S
C61 O69 1.249 . S
O62 C61 1.264 . S
O63 Mg56 1.986 . S
O63 C67 1.246 . S
O64 Mg59 2.032 . S
O64 C67 1.259 . S
O65 Mg56 2.114 . S
O65 C68 1.252 . S
O66 Mg56 2.251 . S
O66 Mg59 2.079 . S
O66 C68 1.273 . S
C67 O63 1.246 . S
C67 O64 1.259 . S
C68 O65 1.252 . S
C68 O66 1.273 . S
O69 Mg56 2.010 . S
O69 C61 1.249 . S
Mg70 O71 2.028 . S
Mg70 O77 1.986 . S
Mg70 O79 2.114 . S
Mg70 O80 2.251 . S
Mg70 O83 2.010 . S
O71 Mg70 2.028 . S
O71 C74 1.250 . S
O72 Mg73 2.028 . S
O72 C74 1.248 . S
Mg73 O72 2.028 . S
Mg73 O78 2.032 . S
Mg73 O80 2.079 . S
C74 O71 1.250 . S
C74 O72 1.248 . S
C75 O76 1.264 . S
C75 O83 1.249 . S
O76 C75 1.264 . S
O77 Mg70 1.986 . S
O77 C81 1.246 . S
O78 Mg73 2.032 . S
O78 C81 1.259 . S
O79 Mg70 2.114 . S
O79 C82 1.252 . S
O80 Mg70 2.251 . S
O80 Mg73 2.079 . S
O80 C82 1.273 . S
C81 O77 1.246 . S
C81 O78 1.259 . S
C82 O79 1.252 . S
C82 O80 1.273 . S
O83 Mg70 2.010 . S
O83 C75 1.249 . S
Mg84 O85 2.028 . S
Mg84 O91 1.986 . S
Mg84 O93 2.114 . S
Mg84 O94 2.251 . S
Mg84 O97 2.010 . S
O85 Mg84 2.028 . S
O85 C88 1.250 . S
O86 Mg87 2.028 . S
O86 C88 1.248 . S
Mg87 O86 2.028 . S
Mg87 O92 2.032 . S
Mg87 O94 2.079 . S
C88 O85 1.250 . S
C88 O86 1.248 . S
C89 O90 1.264 . S
C89 O97 1.249 . S
O90 C89 1.264 . S
O91 Mg84 1.986 . S
O91 C95 1.246 . S
O92 Mg87 2.032 . S
O92 C95 1.259 . S
O93 Mg84 2.114 . S
O93 C96 1.252 . S
O94 Mg84 2.251 . S
O94 Mg87 2.079 . S
O94 C96 1.273 . S
C95 O91 1.246 . S
C95 O92 1.259 . S
C96 O93 1.252 . S
C96 O94 1.273 . S
O97 Mg84 2.010 . S
O97 C89 1.249 . S
Mg98 O99 2.028 . S
Mg98 O105 1.986 . S
Mg98 O107 2.114 . S
Mg98 O108 2.251 . S
Mg98 O111 2.010 . S
O99 Mg98 2.028 . S
O99 C102 1.250 . S
O100 Mg101 2.028 . S
O100 C102 1.248 . S
Mg101 O100 2.028 . S
Mg101 O106 2.032 . S
Mg101 O108 2.079 . S
C102 O99 1.250 . S
C102 O100 1.248 . S
C103 O104 1.264 . S
C103 O111 1.249 . S
O104 C103 1.264 . S
O105 Mg98 1.986 . S
O105 C109 1.246 . S
O106 Mg101 2.032 . S
O106 C109 1.259 . S
O107 Mg98 2.114 . S
O107 C110 1.252 . S
O108 Mg98 2.251 . S
O108 Mg101 2.079 . S
O108 C110 1.273 . S
C109 O105 1.246 . S
C109 O106 1.259 . S
C110 O107 1.252 . S
C110 O108 1.273 . S
O111 Mg98 2.010 . S
O111 C103 1.249 . S
Mg112 O113 2.028 . S
Mg112 O119 1.986 . S
Mg112 O121 2.114 . S
Mg112 O122 2.251 . S
Mg112 O125 2.010 . S
O113 Mg112 2.028 . S
O113 C116 1.250 . S
O114 Mg115 2.028 . S
O114 C116 1.248 . S
Mg115 O114 2.028 . S
Mg115 O120 2.032 . S
Mg115 O122 2.079 . S
C116 O113 1.250 . S
C116 O114 1.248 . S
C117 O118 1.264 . S
C117 O125 1.249 . S
O118 C117 1.264 . S
O119 Mg112 1.986 . S
O119 C123 1.246 . S
O120 Mg115 2.032 . S
O120 C123 1.259 . S
O121 Mg112 2.114 . S
O121 C124 1.252 . S
O122 Mg112 2.251 . S
O122 Mg115 2.079 . S
O122 C124 1.273 . S
C123 O119 1.246 . S
C123 O120 1.259 . S
C124 O121 1.252 . S
C124 O122 1.273 . S
O125 Mg112 2.010 . S
O125 C117 1.249 . S
Mg126 O127 2.028 . S
Mg126 O133 1.986 . S
Mg126 O135 2.114 . S
Mg126 O136 2.251 . S
Mg126 O139 2.010 . S
O127 Mg126 2.028 . S
O127 C130 1.250 . S
O128 Mg129 2.028 . S
O128 C130 1.248 1_655 S
Mg129 O128 2.028 . S
Mg129 O134 2.032 1_655 S
Mg129 O136 2.079 1_655 S
C130 O127 1.250 . S
C130 O128 1.248 1_455 S
C131 O132 1.264 . S
C131 O139 1.249 . S
O132 C131 1.264 . S
O133 Mg126 1.986 . S
O133 C137 1.246 . S
O134 Mg129 2.032 1_455 S
O134 C137 1.259 . S
O135 Mg126 2.114 . S
O135 C138 1.252 . S
O136 Mg126 2.251 . S
O136 Mg129 2.079 1_455 S
O136 C138 1.273 . S
C137 O133 1.246 . S
C137 O134 1.259 . S
C138 O135 1.252 . S
C138 O136 1.273 . S
O139 Mg126 2.010 . S
O139 C131 1.249 . S
Mg140 O141 2.028 . S
Mg140 O147 1.986 . S
Mg140 O149 2.114 . S
Mg140 O150 2.251 . S
Mg140 O153 2.010 . S
O141 Mg140 2.028 . S
O141 C144 1.250 . S
O142 Mg143 2.028 . S
O142 C144 1.248 . S
Mg143 O142 2.028 . S
Mg143 O148 2.032 . S
Mg143 O150 2.079 . S
C144 O141 1.250 . S
C144 O142 1.248 . S
C145 O146 1.264 . S
C145 O153 1.249 . S
O146 C145 1.264 . S
O147 Mg140 1.986 . S
O147 C151 1.246 . S
O148 Mg143 2.032 . S
O148 C151 1.259 . S
O149 Mg140 2.114 . S
O149 C152 1.252 . S
O150 Mg140 2.251 . S
O150 Mg143 2.079 . S
O150 C152 1.273 . S
C151 O147 1.246 . S
C151 O148 1.259 . S
C152 O149 1.252 . S
C152 O150 1.273 . S
O153 Mg140 2.010 . S
O153 C145 1.249 . S
Mg154 O155 2.028 . S
Mg154 O161 1.986 . S
Mg154 O163 2.114 . S
Mg154 O164 2.251 . S
Mg154 O167 2.010 . S
O155 Mg154 2.028 . S
O155 C158 1.250 . S
O156 Mg157 2.028 . S
O156 C158 1.248 . S
Mg157 O156 2.028 . S
Mg157 O162 2.032 . S
Mg157 O164 2.079 . S
C158 O155 1.250 . S
C158 O156 1.248 . S
C159 O160 1.264 . S
C159 O167 1.249 . S
O160 C159 1.264 . S
O161 Mg154 1.986 . S
O161 C165 1.246 . S
O162 Mg157 2.032 . S
O162 C165 1.259 . S
O163 Mg154 2.114 . S
O163 C166 1.252 . S
O164 Mg154 2.251 . S
O164 Mg157 2.079 . S
O164 C166 1.273 . S
C165 O161 1.246 . S
C165 O162 1.259 . S
C166 O163 1.252 . S
C166 O164 1.273 . S
O167 Mg154 2.010 . S
O167 C159 1.249 . S
Mg168 O169 2.028 . S
Mg168 O175 1.986 . S
Mg168 O177 2.114 . S
Mg168 O178 2.251 . S
Mg168 O181 2.010 . S
O169 Mg168 2.028 . S
O169 C172 1.250 . S
O170 Mg171 2.028 . S
O170 C172 1.248 . S
Mg171 O170 2.028 . S
Mg171 O176 2.032 . S
Mg171 O178 2.079 . S
C172 O169 1.250 . S
C172 O170 1.248 . S
C173 O174 1.264 . S
C173 O181 1.249 . S
O174 C173 1.264 . S
O175 Mg168 1.986 . S
O175 C179 1.246 . S
O176 Mg171 2.032 . S
O176 C179 1.259 . S
O177 Mg168 2.114 . S
O177 C180 1.252 . S
O178 Mg168 2.251 . S
O178 Mg171 2.079 . S
O178 C180 1.273 . S
C179 O175 1.246 . S
C179 O176 1.259 . S
C180 O177 1.252 . S
C180 O178 1.273 . S
O181 Mg168 2.010 . S
O181 C173 1.249 . S
Mg182 O183 2.028 . S
Mg182 O189 1.986 . S
Mg182 O191 2.114 . S
Mg182 O192 2.251 . S
Mg182 O195 2.010 . S
O183 Mg182 2.028 . S
O183 C186 1.250 . S
O184 Mg185 2.028 . S
O184 C186 1.248 1_455 S
Mg185 O184 2.028 . S
Mg185 O190 2.032 1_455 S
Mg185 O192 2.079 1_455 S
C186 O183 1.250 . S
C186 O184 1.248 1_655 S
C187 O188 1.264 . S
C187 O195 1.249 . S
O188 C187 1.264 . S
O189 Mg182 1.986 . S
O189 C193 1.246 . S
O190 Mg185 2.032 1_655 S
O190 C193 1.259 . S
O191 Mg182 2.114 . S
O191 C194 1.252 . S
O192 Mg182 2.251 . S
O192 Mg185 2.079 1_655 S
O192 C194 1.273 . S
C193 O189 1.246 . S
C193 O190 1.259 . S
C194 O191 1.252 . S
C194 O192 1.273 . S
O195 Mg182 2.010 . S
O195 C187 1.249 . S
Mg196 O197 2.028 . S
Mg196 O203 1.986 . S
Mg196 O205 2.114 . S
Mg196 O206 2.251 . S
Mg196 O209 2.010 . S
O197 Mg196 2.028 . S
O197 C200 1.250 . S
O198 Mg199 2.028 . S
O198 C200 1.248 . S
Mg199 O198 2.028 . S
Mg199 O204 2.032 . S
Mg199 O206 2.079 . S
C200 O197 1.250 . S
C200 O198 1.248 . S
C201 O202 1.264 . S
C201 O209 1.249 . S
O202 C201 1.264 . S
O203 Mg196 1.986 . S
O203 C207 1.246 . S
O204 Mg199 2.032 . S
O204 C207 1.259 . S
O205 Mg196 2.114 . S
O205 C208 1.252 . S
O206 Mg196 2.251 . S
O206 Mg199 2.079 . S
O206 C208 1.273 . S
C207 O203 1.246 . S
C207 O204 1.259 . S
C208 O205 1.252 . S
C208 O206 1.273 . S
O209 Mg196 2.010 . S
O209 C201 1.249 . S
Mg210 O211 2.028 . S
Mg210 O217 1.986 . S
Mg210 O219 2.114 . S
Mg210 O220 2.251 . S
Mg210 O223 2.010 . S
O211 Mg210 2.028 . S
O211 C214 1.250 . S
O212 Mg213 2.028 . S
O212 C214 1.248 . S
Mg213 O212 2.028 . S
Mg213 O218 2.032 . S
Mg213 O220 2.079 . S
C214 O211 1.250 . S
C214 O212 1.248 . S
C215 O216 1.264 . S
C215 O223 1.249 . S
O216 C215 1.264 . S
O217 Mg210 1.986 . S
O217 C221 1.246 . S
O218 Mg213 2.032 . S
O218 C221 1.259 . S
O219 Mg210 2.114 . S
O219 C222 1.252 . S
O220 Mg210 2.251 . S
O220 Mg213 2.079 . S
O220 C222 1.273 . S
C221 O217 1.246 . S
C221 O218 1.259 . S
C222 O219 1.252 . S
C222 O220 1.273 . S
O223 Mg210 2.010 . S
O223 C215 1.249 . S
Mg224 O225 2.028 . S
Mg224 O231 1.986 . S
Mg224 O233 2.114 . S
Mg224 O234 2.251 . S
Mg224 O237 2.010 . S
O225 Mg224 2.028 . S
O225 C228 1.250 . S
O226 Mg227 2.028 . S
O226 C228 1.248 . S
Mg227 O226 2.028 . S
Mg227 O232 2.032 . S
Mg227 O234 2.079 . S
C228 O225 1.250 . S
C228 O226 1.248 . S
C229 O230 1.264 . S
C229 O237 1.249 . S
O230 C229 1.264 . S
O231 Mg224 1.986 . S
O231 C235 1.246 . S
O232 Mg227 2.032 . S
O232 C235 1.259 . S
O233 Mg224 2.114 . S
O233 C236 1.252 . S
O234 Mg224 2.251 . S
O234 Mg227 2.079 . S
O234 C236 1.273 . S
C235 O231 1.246 . S
C235 O232 1.259 . S
C236 O233 1.252 . S
C236 O234 1.273 . S
O237 Mg224 2.010 . S
O237 C229 1.249 . S
Mg238 O239 2.028 . S
Mg238 O245 1.986 . S
Mg238 O247 2.114 . S
Mg238 O248 2.251 . S
Mg238 O251 2.010 . S
O239 Mg238 2.028 . S
O239 C242 1.250 . S
O240 Mg241 2.028 . S
O240 C242 1.248 . S
Mg241 O240 2.028 . S
Mg241 O246 2.032 . S
Mg241 O248 2.079 . S
C242 O239 1.250 . S
C242 O240 1.248 . S
C243 O244 1.264 . S
C243 O251 1.249 . S
O244 C243 1.264 . S
O245 Mg238 1.986 . S
O245 C249 1.246 . S
O246 Mg241 2.032 . S
O246 C249 1.259 . S
O247 Mg238 2.114 . S
O247 C250 1.252 . S
O248 Mg238 2.251 . S
O248 Mg241 2.079 . S
O248 C250 1.273 . S
C249 O245 1.246 . S
C249 O246 1.259 . S
C250 O247 1.252 . S
C250 O248 1.273 . S
O251 Mg238 2.010 . S
O251 C243 1.249 . S
Mg252 O253 2.028 . S
Mg252 O259 1.986 . S
Mg252 O261 2.114 . S
Mg252 O262 2.251 . S
Mg252 O265 2.010 . S
O253 Mg252 2.028 . S
O253 C256 1.250 . S
O254 Mg255 2.028 . S
O254 C256 1.248 1_556 S
Mg255 O254 2.028 . S
Mg255 O260 2.032 1_556 S
Mg255 O262 2.079 1_556 S
C256 O253 1.250 . S
C256 O254 1.248 1_554 S
C257 O258 1.264 . S
C257 O265 1.249 . S
O258 C257 1.264 . S
O259 Mg252 1.986 . S
O259 C263 1.246 . S
O260 Mg255 2.032 1_554 S
O260 C263 1.259 . S
O261 Mg252 2.114 . S
O261 C264 1.252 . S
O262 Mg252 2.251 . S
O262 Mg255 2.079 1_554 S
O262 C264 1.273 . S
C263 O259 1.246 . S
C263 O260 1.259 . S
C264 O261 1.252 . S
C264 O262 1.273 . S
O265 Mg252 2.010 . S
O265 C257 1.249 . S
Mg266 O267 2.028 . S
Mg266 O273 1.986 . S
Mg266 O275 2.114 . S
Mg266 O276 2.251 . S
Mg266 O279 2.010 . S
O267 Mg266 2.028 . S
O267 C270 1.250 . S
O268 Mg269 2.028 . S
O268 C270 1.248 . S
Mg269 O268 2.028 . S
Mg269 O274 2.032 . S
Mg269 O276 2.079 . S
C270 O267 1.250 . S
C270 O268 1.248 . S
C271 O272 1.264 . S
C271 O279 1.249 . S
O272 C271 1.264 . S
O273 Mg266 1.986 . S
O273 C277 1.246 . S
O274 Mg269 2.032 . S
O274 C277 1.259 . S
O275 Mg266 2.114 . S
O275 C278 1.252 . S
O276 Mg266 2.251 . S
O276 Mg269 2.079 . S
O276 C278 1.273 . S
C277 O273 1.246 . S
C277 O274 1.259 . S
C278 O275 1.252 . S
C278 O276 1.273 . S
O279 Mg266 2.010 . S
O279 C271 1.249 . S
Mg280 O281 2.028 . S
Mg280 O287 1.986 . S
Mg280 O289 2.114 . S
Mg280 O290 2.251 . S
Mg280 O293 2.010 . S
O281 Mg280 2.028 . S
O281 C284 1.250 . S
O282 Mg283 2.028 . S
O282 C284 1.248 . S
Mg283 O282 2.028 . S
Mg283 O288 2.032 . S
Mg283 O290 2.079 . S
C284 O281 1.250 . S
C284 O282 1.248 . S
C285 O286 1.264 . S
C285 O293 1.249 . S
O286 C285 1.264 . S
O287 Mg280 1.986 . S
O287 C291 1.246 . S
O288 Mg283 2.032 . S
O288 C291 1.259 . S
O289 Mg280 2.114 . S
O289 C292 1.252 . S
O290 Mg280 2.251 . S
O290 Mg283 2.079 . S
O290 C292 1.273 . S
C291 O287 1.246 . S
C291 O288 1.259 . S
C292 O289 1.252 . S
C292 O290 1.273 . S
O293 Mg280 2.010 . S
O293 C285 1.249 . S
Mg294 O295 2.028 . S
Mg294 O301 1.986 . S
Mg294 O303 2.114 . S
Mg294 O304 2.251 . S
Mg294 O307 2.010 . S
O295 Mg294 2.028 . S
O295 C298 1.250 . S
O296 Mg297 2.028 . S
O296 C298 1.248 . S
Mg297 O296 2.028 . S
Mg297 O302 2.032 . S
Mg297 O304 2.079 . S
C298 O295 1.250 . S
C298 O296 1.248 . S
C299 O300 1.264 . S
C299 O307 1.249 . S
O300 C299 1.264 . S
O301 Mg294 1.986 . S
O301 C305 1.246 . S
O302 Mg297 2.032 . S
O302 C305 1.259 . S
O303 Mg294 2.114 . S
O303 C306 1.252 . S
O304 Mg294 2.251 . S
O304 Mg297 2.079 . S
O304 C306 1.273 . S
C305 O301 1.246 . S
C305 O302 1.259 . S
C306 O303 1.252 . S
C306 O304 1.273 . S
O307 Mg294 2.010 . S
O307 C299 1.249 . S
Mg308 O309 2.028 . S
Mg308 O315 1.986 . S
Mg308 O317 2.114 . S
Mg308 O318 2.251 . S
Mg308 O321 2.010 . S
O309 Mg308 2.028 . S
O309 C312 1.250 . S
O310 Mg311 2.028 . S
O310 C312 1.248 1_554 S
Mg311 O310 2.028 . S
Mg311 O316 2.032 1_554 S
Mg311 O318 2.079 1_554 S
C312 O309 1.250 . S
C312 O310 1.248 1_556 S
C313 O314 1.264 . S
C313 O321 1.249 . S
O314 C313 1.264 . S
O315 Mg308 1.986 . S
O315 C319 1.246 . S
O316 Mg311 2.032 1_556 S
O316 C319 1.259 . S
O317 Mg308 2.114 . S
O317 C320 1.252 . S
O318 Mg308 2.251 . S
O318 Mg311 2.079 1_556 S
O318 C320 1.273 . S
C319 O315 1.246 . S
C319 O316 1.259 . S
C320 O317 1.252 . S
C320 O318 1.273 . S
O321 Mg308 2.010 . S
O321 C313 1.249 . S
Mg322 O323 2.028 . S
Mg322 O329 1.986 . S
Mg322 O331 2.114 . S
Mg322 O332 2.251 . S
Mg322 O335 2.010 . S
O323 Mg322 2.028 . S
O323 C326 1.250 . S
O324 Mg325 2.028 . S
O324 C326 1.248 . S
Mg325 O324 2.028 . S
Mg325 O330 2.032 . S
Mg325 O332 2.079 . S
C326 O323 1.250 . S
C326 O324 1.248 . S
C327 O328 1.264 . S
C327 O335 1.249 . S
O328 C327 1.264 . S
O329 Mg322 1.986 . S
O329 C333 1.246 . S
O330 Mg325 2.032 . S
O330 C333 1.259 . S
O331 Mg322 2.114 . S
O331 C334 1.252 . S
O332 Mg322 2.251 . S
O332 Mg325 2.079 . S
O332 C334 1.273 . S
C333 O329 1.246 . S
C333 O330 1.259 . S
C334 O331 1.252 . S
C334 O332 1.273 . S
O335 Mg322 2.010 . S
O335 C327 1.249 . S
H336 C342 0.930 . S
H337 C345 0.930 . S
H338 C346 0.930 . S
H339 C347 0.930 . S
H340 C350 0.930 . S
H341 C351 0.930 . S
C342 H336 0.930 . S
C342 C343 1.355 . S
C342 C344 1.415 . S
C343 C342 1.355 . S
C343 C345 1.419 . S
C344 C342 1.415 . S
C344 C349 1.425 . S
C344 C351 1.409 . S
C345 H337 0.930 . S
C345 C343 1.419 . S
C345 C346 1.362 . S
C346 H338 0.930 . S
C346 C345 1.362 . S
C346 C349 1.409 . S
C347 H339 0.930 . S
C347 C348 1.355 . S
C347 C349 1.415 . S
C348 C347 1.355 . S
C348 C350 1.419 . S
C349 C344 1.425 . S
C349 C346 1.409 . S
C349 C347 1.415 . S
C350 H340 0.930 . S
C350 C348 1.419 . S
C350 C351 1.362 . S
C351 H341 0.930 . S
C351 C344 1.409 . S
C351 C350 1.362 . S
H352 C358 0.930 . S
H353 C361 0.902 1_655 S
H354 C362 0.930 . S
H355 C363 0.930 . S
H356 C366 0.930 . S
H357 C367 0.930 . S
C358 H352 0.930 . S
C358 C359 1.355 . S
C358 C360 1.415 . S
C359 C358 1.355 . S
C359 C361 1.426 . S
C360 C358 1.415 . S
C360 C365 1.425 . S
C360 C367 1.409 . S
C361 H353 0.902 1_455 S
C361 C359 1.426 . S
C361 C362 1.385 . S
C362 H354 0.930 . S
C362 C361 1.385 . S
C362 C365 1.409 . S
C363 H355 0.930 . S
C363 C364 1.355 . S
C363 C365 1.415 . S
C364 C363 1.355 . S
C364 C366 1.419 . S
C365 C360 1.425 . S
C365 C362 1.409 . S
C365 C363 1.415 . S
C366 H356 0.930 . S
C366 C364 1.419 . S
C366 C367 1.362 . S
C367 H357 0.930 . S
C367 C360 1.409 . S
C367 C366 1.362 . S
H368 C374 0.930 . S
H369 C377 0.930 . S
H370 C378 0.930 . S
H371 C379 0.930 . S
H372 C382 0.930 . S
H373 C383 0.930 . S
C374 H368 0.930 . S
C374 C375 1.355 . S
C374 C376 1.415 . S
C375 C374 1.355 . S
C375 C377 1.419 . S
C376 C374 1.415 . S
C376 C381 1.425 . S
C376 C383 1.409 . S
C377 H369 0.930 . S
C377 C375 1.419 . S
C377 C378 1.362 . S
C378 H370 0.930 . S
C378 C377 1.362 . S
C378 C381 1.409 . S
C379 H371 0.930 . S
C379 C380 1.355 . S
C379 C381 1.415 . S
C380 C379 1.355 . S
C380 C382 1.419 1_556 S
C381 C376 1.425 . S
C381 C378 1.409 . S
C381 C379 1.415 . S
C382 H372 0.930 . S
C382 C380 1.419 1_554 S
C382 C383 1.362 1_554 S
C383 H373 0.930 . S
C383 C376 1.409 . S
C383 C382 1.362 1_556 S
H384 C390 0.930 . S
H385 C393 0.930 . S
H386 C394 0.930 . S
H387 C395 0.930 . S
H388 C398 0.930 . S
H389 C399 0.930 . S
C390 H384 0.930 . S
C390 C391 1.355 . S
C390 C392 1.415 . S
C391 C390 1.355 . S
C391 C393 1.419 . S
C392 C390 1.415 . S
C392 C397 1.425 . S
C392 C399 1.409 . S
C393 H385 0.930 . S
C393 C391 1.419 . S
C393 C394 1.362 . S
C394 H386 0.930 . S
C394 C393 1.362 . S
C394 C397 1.409 . S
C395 H387 0.930 . S
C395 C396 1.355 . S
C395 C397 1.415 . S
C396 C395 1.355 . S
C396 C398 1.419 . S
C397 C392 1.425 . S
C397 C394 1.409 . S
C397 C395 1.415 . S
C398 H388 0.930 . S
C398 C396 1.419 . S
C398 C399 1.362 . S
C399 H389 0.930 . S
C399 C392 1.409 . S
C399 C398 1.362 . S
H400 C406 0.930 . S
H401 C409 0.930 . S
H402 C410 0.930 . S
H403 C411 0.930 . S
H404 C414 0.930 . S
H405 C415 0.930 . S
C406 H400 0.930 . S
C406 C407 1.355 . S
C406 C408 1.415 . S
C407 C406 1.355 . S
C407 C409 1.419 . S
C408 C406 1.415 . S
C408 C413 1.425 . S
C408 C415 1.409 . S
C409 H401 0.930 . S
C409 C407 1.419 . S
C409 C410 1.362 . S
C410 H402 0.930 . S
C410 C409 1.362 . S
C410 C413 1.409 . S
C411 H403 0.930 . S
C411 C412 1.355 . S
C411 C413 1.415 . S
C412 C411 1.355 . S
C412 C414 1.419 . S
C413 C408 1.425 . S
C413 C410 1.409 . S
C413 C411 1.415 . S
C414 H404 0.930 . S
C414 C412 1.419 . S
C414 C415 1.362 . S
C415 H405 0.930 . S
C415 C408 1.409 . S
C415 C414 1.362 . S
H416 C422 0.930 . S
H417 C425 0.930 . S
H418 C426 0.930 . S
H419 C427 0.930 . S
H420 C430 0.930 . S
H421 C431 0.930 1_455 S
C422 H416 0.930 . S
C422 C423 1.355 . S
C422 C424 1.415 . S
C423 C422 1.355 . S
C423 C425 1.419 . S
C424 C422 1.415 . S
C424 C429 1.425 . S
C424 C431 1.409 . S
C425 H417 0.930 . S
C425 C423 1.419 . S
C425 C426 1.362 . S
C426 H418 0.930 . S
C426 C425 1.362 . S
C426 C429 1.409 . S
C427 H419 0.930 . S
C427 C428 1.355 . S
C427 C429 1.415 . S
C428 C427 1.355 . S
C428 C430 1.419 1_655 S
C429 C424 1.425 . S
C429 C426 1.409 . S
C429 C427 1.415 . S
C430 H420 0.930 . S
C430 C428 1.419 1_455 S
C430 C431 1.362 1_455 S
C431 H421 0.930 1_655 S
C431 C424 1.409 . S
C431 C430 1.362 1_655 S
H432 C438 0.930 . S
H433 C441 0.930 . S
H434 C442 0.930 . S
H435 C443 0.930 . S
H436 C446 0.930 . S
H437 C447 0.930 . S
C438 H432 0.930 . S
C438 C439 1.355 . S
C438 C440 1.415 . S
C439 C438 1.355 . S
C439 C441 1.419 . S
C440 C438 1.415 . S
C440 C445 1.425 . S
C440 C447 1.409 . S
C441 H433 0.930 . S
C441 C439 1.419 . S
C441 C442 1.362 . S
C442 H434 0.930 . S
C442 C441 1.362 . S
C442 C445 1.409 . S
C443 H435 0.930 . S
C443 C444 1.355 . S
C443 C445 1.415 . S
C444 C443 1.355 . S
C444 C446 1.419 1_554 S
C445 C440 1.425 . S
C445 C442 1.409 . S
C445 C443 1.415 . S
C446 H436 0.930 . S
C446 C444 1.419 1_556 S
C446 C447 1.362 1_556 S
C447 H437 0.930 . S
C447 C440 1.409 . S
C447 C446 1.362 1_554 S
H448 C454 0.930 . S
H449 C457 0.930 . S
H450 C458 0.930 . S
H451 C459 0.930 . S
H452 C462 0.930 . S
H453 C463 0.930 . S
C454 H448 0.930 . S
C454 C455 1.355 . S
C454 C456 1.415 . S
C455 C454 1.355 . S
C455 C457 1.419 . S
C456 C454 1.415 . S
C456 C461 1.425 . S
C456 C463 1.409 . S
C457 H449 0.930 . S
C457 C455 1.419 . S
C457 C458 1.362 . S
C458 H450 0.930 . S
C458 C457 1.362 . S
C458 C461 1.409 . S
C459 H451 0.930 . S
C459 C460 1.355 . S
C459 C461 1.415 . S
C460 C459 1.355 . S
C460 C462 1.419 . S
C461 C456 1.425 . S
C461 C458 1.409 . S
C461 C459 1.415 . S
C462 H452 0.930 . S
C462 C460 1.419 . S
C462 C463 1.362 . S
C463 H453 0.930 . S
C463 C456 1.409 . S
C463 C462 1.362 . S
H464 C470 0.930 . S
H465 C473 0.930 . S
H466 C474 0.930 . S
H467 C475 0.930 . S
H468 C478 0.930 . S
H469 C479 0.930 . S
C470 H464 0.930 . S
C470 C471 1.355 . S
C470 C472 1.415 . S
C471 C470 1.355 . S
C471 C473 1.419 . S
C472 C470 1.415 . S
C472 C477 1.425 . S
C472 C479 1.409 . S
C473 H465 0.930 . S
C473 C471 1.419 . S
C473 C474 1.362 . S
C474 H466 0.930 . S
C474 C473 1.362 . S
C474 C477 1.409 . S
C475 H467 0.930 . S
C475 C476 1.355 . S
C475 C477 1.415 . S
C476 C475 1.355 . S
C476 C478 1.419 . S
C477 C472 1.425 . S
C477 C474 1.409 . S
C477 C475 1.415 . S
C478 H468 0.930 . S
C478 C476 1.419 . S
C478 C479 1.362 . S
C479 H469 0.930 . S
C479 C472 1.409 . S
C479 C478 1.362 . S
H480 C486 0.930 . S
H481 C489 0.934 . S
H482 C490 0.930 . S
H483 C491 0.930 . S
H484 C494 0.930 . S
H485 C495 0.930 . S
C486 H480 0.930 . S
C486 C487 1.355 . S
C486 C488 1.415 . S
C487 C486 1.355 . S
C487 C489 1.418 1_545 S
C488 C486 1.415 . S
C488 C493 1.425 . S
C488 C495 1.409 . S
C489 H481 0.934 . S
C489 C487 1.418 1_565 S
C489 C490 1.359 1_565 S
C490 H482 0.930 . S
C490 C489 1.359 1_545 S
C490 C493 1.409 . S
C491 H483 0.930 . S
C491 C492 1.355 . S
C491 C493 1.415 . S
C492 C491 1.355 . S
C492 C494 1.419 . S
C493 C488 1.425 . S
C493 C490 1.409 . S
C493 C491 1.415 . S
C494 H484 0.930 . S
C494 C492 1.419 . S
C494 C495 1.362 . S
C495 H485 0.930 . S
C495 C488 1.409 . S
C495 C494 1.362 . S
H496 C502 0.930 . S
H497 C505 0.930 . S
H498 C506 0.930 . S
H499 C507 0.930 . S
H500 C510 0.930 1_545 S
H501 C511 0.930 . S
C502 H496 0.930 . S
C502 C503 1.355 . S
C502 C504 1.415 . S
C503 C502 1.355 . S
C503 C505 1.419 . S
C504 C502 1.415 . S
C504 C509 1.425 . S
C504 C511 1.409 . S
C505 H497 0.930 . S
C505 C503 1.419 . S
C505 C506 1.362 . S
C506 H498 0.930 . S
C506 C505 1.362 . S
C506 C509 1.409 . S
C507 H499 0.930 . S
C507 C508 1.355 . S
C507 C509 1.415 . S
C508 C507 1.355 . S
C508 C510 1.419 . S
C509 C504 1.425 . S
C509 C506 1.409 . S
C509 C507 1.415 . S
C510 H500 0.930 1_565 S
C510 C508 1.419 . S
C510 C511 1.362 . S
C511 H501 0.930 . S
C511 C504 1.409 . S
C511 C510 1.362 . S
H512 C518 0.930 . S
H513 C521 0.930 . S
H514 C522 0.930 . S
H515 C523 0.930 . S
H516 C526 0.930 . S
H517 C527 0.930 . S
C518 H512 0.930 . S
C518 C519 1.355 . S
C518 C520 1.415 . S
C519 C518 1.355 . S
C519 C521 1.419 . S
C520 C518 1.415 . S
C520 C525 1.425 . S
C520 C527 1.409 . S
C521 H513 0.930 . S
C521 C519 1.419 . S
C521 C522 1.362 . S
C522 H514 0.930 . S
C522 C521 1.362 . S
C522 C525 1.409 . S
C523 H515 0.930 . S
C523 C524 1.355 . S
C523 C525 1.415 . S
C524 C523 1.355 . S
C524 C526 1.419 . S
C525 C520 1.425 . S
C525 C522 1.409 . S
C525 C523 1.415 . S
C526 H516 0.930 . S
C526 C524 1.419 . S
C526 C527 1.362 . S
C527 H517 0.930 . S
C527 C520 1.409 . S
C527 C526 1.362 . S
H528 C534 0.930 . S
H529 C537 0.930 . S
H530 C538 0.930 . S
H531 C539 0.930 . S
H532 C542 0.930 . S
H533 C543 0.930 . S
C534 H528 0.930 . S
C534 C535 1.355 . S
C534 C536 1.415 . S
C535 C534 1.355 . S
C535 C537 1.419 . S
C536 C534 1.415 . S
C536 C541 1.425 . S
C536 C543 1.409 . S
C537 H529 0.930 . S
C537 C535 1.419 . S
C537 C538 1.362 . S
C538 H530 0.930 . S
C538 C537 1.362 . S
C538 C541 1.409 . S
C539 H531 0.930 . S
C539 C540 1.355 . S
C539 C541 1.415 . S
C540 C539 1.355 . S
C540 C542 1.419 . S
C541 C536 1.425 . S
C541 C538 1.409 . S
C541 C539 1.415 . S
C542 H532 0.930 . S
C542 C540 1.419 . S
C542 C543 1.362 . S
C543 H533 0.930 . S
C543 C536 1.409 . S
C543 C542 1.362 . S
H544 C550 0.930 . S
H545 C553 0.930 . S
H546 C554 0.930 . S
H547 C555 0.930 . S
H548 C558 0.930 . S
H549 C559 0.930 . S
C550 H544 0.930 . S
C550 C551 1.355 . S
C550 C552 1.415 1_565 S
C551 C550 1.355 . S
C551 C553 1.419 1_565 S
C552 C550 1.415 1_545 S
C552 C557 1.425 . S
C552 C559 1.409 . S
C553 H545 0.930 . S
C553 C551 1.419 1_545 S
C553 C554 1.362 . S
C554 H546 0.930 . S
C554 C553 1.362 . S
C554 C557 1.409 . S
C555 H547 0.930 . S
C555 C556 1.355 . S
C555 C557 1.415 . S
C556 C555 1.355 . S
C556 C558 1.419 . S
C557 C552 1.425 . S
C557 C554 1.409 . S
C557 C555 1.415 . S
C558 H548 0.930 . S
C558 C556 1.419 . S
C558 C559 1.362 . S
C559 H549 0.930 . S
C559 C552 1.409 . S
C559 C558 1.362 . S
H560 C566 0.930 . S
H561 C569 0.930 . S
H562 C570 0.930 . S
H563 C571 0.914 1_554 S
H564 C574 0.930 . S
H565 C575 0.930 . S
C566 H560 0.930 . S
C566 C567 1.355 . S
C566 C568 1.415 . S
C567 C566 1.355 . S
C567 C569 1.419 . S
C568 C566 1.415 . S
C568 C573 1.425 . S
C568 C575 1.409 . S
C569 H561 0.930 . S
C569 C567 1.419 . S
C569 C570 1.362 . S
C570 H562 0.930 . S
C570 C569 1.362 . S
C570 C573 1.409 . S
C571 H563 0.914 1_556 S
C571 C572 1.349 1_556 S
C571 C573 1.437 . S
C572 C571 1.349 1_554 S
C572 C574 1.419 1_554 S
C573 C568 1.425 . S
C573 C570 1.409 . S
C573 C571 1.437 . S
C574 H564 0.930 . S
C574 C572 1.419 1_556 S
C574 C575 1.362 . S
C575 H565 0.930 . S
C575 C568 1.409 . S
C575 C574 1.362 . S
H576 C582 0.930 . S
H577 C585 0.930 . S
H578 C586 0.930 . S
H579 C587 0.930 . S
H580 C590 0.930 . S
H581 C591 0.930 1_545 S
C582 H576 0.930 . S
C582 C583 1.355 . S
C582 C584 1.415 1_545 S
C583 C582 1.355 . S
C583 C585 1.419 1_545 S
C584 C582 1.415 1_565 S
C584 C589 1.425 . S
C584 C591 1.409 . S
C585 H577 0.930 . S
C585 C583 1.419 1_565 S
C585 C586 1.362 . S
C586 H578 0.930 . S
C586 C585 1.362 . S
C586 C589 1.409 . S
C587 H579 0.930 . S
C587 C588 1.355 . S
C587 C589 1.415 . S
C588 C587 1.355 . S
C588 C590 1.419 . S
C589 C584 1.425 . S
C589 C586 1.409 . S
C589 C587 1.415 . S
C590 H580 0.930 . S
C590 C588 1.419 . S
C590 C591 1.362 . S
C591 H581 0.930 1_565 S
C591 C584 1.409 . S
C591 C590 1.362 . S
H592 C598 0.930 . S
H593 C601 0.930 . S
H594 C602 0.930 . S
H595 C603 0.930 . S
H596 C606 0.930 . S
H597 C607 0.930 . S
C598 H592 0.930 . S
C598 C599 1.355 . S
C598 C600 1.415 . S
C599 C598 1.355 . S
C599 C601 1.419 . S
C600 C598 1.415 . S
C600 C605 1.425 . S
C600 C607 1.409 . S
C601 H593 0.930 . S
C601 C599 1.419 . S
C601 C602 1.362 . S
C602 H594 0.930 . S
C602 C601 1.362 . S
C602 C605 1.409 . S
C603 H595 0.930 . S
C603 C604 1.355 . S
C603 C605 1.415 . S
C604 C603 1.355 . S
C604 C606 1.419 . S
C605 C600 1.425 . S
C605 C602 1.409 . S
C605 C603 1.415 . S
C606 H596 0.930 . S
C606 C604 1.419 . S
C606 C607 1.362 . S
C607 H597 0.930 . S
C607 C600 1.409 . S
C607 C606 1.362 . S
H608 C614 0.930 . S
H609 C617 0.930 . S
H610 C618 0.930 . S
H611 C619 0.930 . S
H612 C622 0.930 . S
H613 C623 0.930 . S
C614 H608 0.930 . S
C614 C615 1.355 . S
C614 C616 1.415 . S
C615 C614 1.355 . S
C615 C617 1.419 . S
C616 C614 1.415 . S
C616 C621 1.425 . S
C616 C623 1.409 . S
C617 H609 0.930 . S
C617 C615 1.419 . S
C617 C618 1.362 . S
C618 H610 0.930 . S
C618 C617 1.362 . S
C618 C621 1.409 . S
C619 H611 0.930 . S
C619 C620 1.355 . S
C619 C621 1.415 . S
C620 C619 1.355 . S
C620 C622 1.419 . S
C621 C616 1.425 . S
C621 C618 1.409 . S
C621 C619 1.415 . S
C622 H612 0.930 . S
C622 C620 1.419 . S
C622 C623 1.362 . S
C623 H613 0.930 . S
C623 C616 1.409 . S
C623 C622 1.362 . S
H624 C630 0.930 . S
H625 C633 0.930 . S
H626 C634 0.930 . S
H627 C635 0.930 . S
H628 C638 0.930 . S
H629 C639 0.930 1_556 S
C630 H624 0.930 . S
C630 C631 1.355 . S
C630 C632 1.415 1_556 S
C631 C630 1.355 . S
C631 C633 1.419 1_556 S
C632 C630 1.415 1_554 S
C632 C637 1.425 . S
C632 C639 1.409 . S
C633 H625 0.930 . S
C633 C631 1.419 1_554 S
C633 C634 1.362 . S
C634 H626 0.930 . S
C634 C633 1.362 . S
C634 C637 1.409 . S
C635 H627 0.930 . S
C635 C636 1.355 . S
C635 C637 1.415 . S
C636 C635 1.355 . S
C636 C638 1.419 . S
C637 C632 1.425 . S
C637 C634 1.409 . S
C637 C635 1.415 . S
C638 H628 0.930 . S
C638 C636 1.419 . S
C638 C639 1.362 . S
C639 H629 0.930 1_554 S
C639 C632 1.409 . S
C639 C638 1.362 . S
H640 C646 0.930 . S
H641 C649 0.930 . S
H642 C650 0.930 . S
H643 C651 0.930 . S
H644 C654 0.930 . S
H645 C655 0.930 . S
C646 H640 0.930 . S
C646 C647 1.355 . S
C646 C648 1.415 . S
C647 C646 1.355 . S
C647 C649 1.419 . S
C648 C646 1.415 . S
C648 C653 1.425 . S
C648 C655 1.409 . S
C649 H641 0.930 . S
C649 C647 1.419 . S
C649 C650 1.362 . S
C650 H642 0.930 . S
C650 C649 1.362 . S
C650 C653 1.409 . S
C651 H643 0.930 . S
C651 C652 1.355 . S
C651 C653 1.415 . S
C652 C651 1.355 . S
C652 C654 1.419 . S
C653 C648 1.425 . S
C653 C650 1.409 . S
C653 C651 1.415 . S
C654 H644 0.930 . S
C654 C652 1.419 . S
C654 C655 1.362 . S
C655 H645 0.930 . S
C655 C648 1.409 . S
C655 C654 1.362 . S
H656 C662 0.930 . S
H657 C665 0.930 . S
H658 C666 0.930 . S
H659 C667 0.930 . S
H660 C670 0.930 . S
H661 C671 0.930 . S
C662 H656 0.930 . S
C662 C663 1.355 . S
C662 C664 1.415 . S
C663 C662 1.355 . S
C663 C665 1.419 . S
C664 C662 1.415 . S
C664 C669 1.425 . S
C664 C671 1.409 . S
C665 H657 0.930 . S
C665 C663 1.419 . S
C665 C666 1.362 . S
C666 H658 0.930 . S
C666 C665 1.362 . S
C666 C669 1.409 . S
C667 H659 0.930 . S
C667 C668 1.355 . S
C667 C669 1.415 . S
C668 C667 1.355 . S
C668 C670 1.419 . S
C669 C664 1.425 . S
C669 C666 1.409 . S
C669 C667 1.415 . S
C670 H660 0.930 . S
C670 C668 1.419 . S
C670 C671 1.362 . S
C671 H661 0.930 . S
C671 C664 1.409 . S
C671 C670 1.362 . S
H672 C678 0.930 . S
H673 C681 0.949 . S
H674 C682 0.930 . S
H675 C683 0.930 . S
H676 C686 0.930 . S
H677 C687 0.930 . S
C678 H672 0.930 . S
C678 C679 1.355 1_655 S
C678 C680 1.415 . S
C679 C678 1.355 1_455 S
C679 C681 1.425 . S
C680 C678 1.415 . S
C680 C685 1.425 . S
C680 C687 1.409 . S
C681 H673 0.949 . S
C681 C679 1.425 . S
C681 C682 1.338 1_455 S
C682 H674 0.930 . S
C682 C681 1.338 1_655 S
C682 C685 1.409 . S
C683 H675 0.930 . S
C683 C684 1.355 . S
C683 C685 1.415 . S
C684 C683 1.355 . S
C684 C686 1.419 . S
C685 C680 1.425 . S
C685 C682 1.409 . S
C685 C683 1.415 . S
C686 H676 0.930 . S
C686 C684 1.419 . S
C686 C687 1.362 . S
C687 H677 0.930 . S
C687 C680 1.409 . S
C687 C686 1.362 . S
H688 C694 0.930 . S
H689 C697 0.930 . S
H690 C698 0.930 . S
H691 C699 0.930 . S
H692 C702 0.930 . S
H693 C703 0.930 . S
C694 H688 0.930 . S
C694 C695 1.355 . S
C694 C696 1.415 1_655 S
C695 C694 1.355 . S
C695 C697 1.419 1_655 S
C696 C694 1.415 1_455 S
C696 C701 1.425 . S
C696 C703 1.409 . S
C697 H689 0.930 . S
C697 C695 1.419 1_455 S
C697 C698 1.362 . S
C698 H690 0.930 . S
C698 C697 1.362 . S
C698 C701 1.409 . S
C699 H691 0.930 . S
C699 C700 1.355 . S
C699 C701 1.415 . S
C700 C699 1.355 . S
C700 C702 1.419 . S
C701 C696 1.425 . S
C701 C698 1.409 . S
C701 C699 1.415 . S
C702 H692 0.930 . S
C702 C700 1.419 . S
C702 C703 1.362 . S
C703 H693 0.930 . S
C703 C696 1.409 . S
C703 C702 1.362 . S
H704 C710 0.930 . S
H705 C713 0.930 . S
H706 C714 0.930 . S
H707 C715 0.930 . S
H708 C718 0.930 . S
H709 C719 0.930 . S
C710 H704 0.930 . S
C710 C711 1.355 . S
C710 C712 1.415 . S
C711 C710 1.355 . S
C711 C713 1.419 . S
C712 C710 1.415 . S
C712 C717 1.425 . S
C712 C719 1.409 . S
C713 H705 0.930 . S
C713 C711 1.419 . S
C713 C714 1.362 . S
C714 H706 0.930 . S
C714 C713 1.362 . S
C714 C717 1.409 . S
C715 H707 0.930 . S
C715 C716 1.355 . S
C715 C717 1.415 . S
C716 C715 1.355 . S
C716 C718 1.419 . S
C717 C712 1.425 . S
C717 C714 1.409 . S
C717 C715 1.415 . S
C718 H708 0.930 . S
C718 C716 1.419 . S
C718 C719 1.362 . S
C719 H709 0.930 . S
C719 C712 1.409 . S
C719 C718 1.362 . S
H720 C726 0.930 . S
H721 C729 0.930 . S
H722 C730 0.930 . S
H723 C731 0.930 . S
H724 C734 0.930 . S
H725 C735 0.930 . S
C726 H720 0.930 . S
C726 C727 1.355 . S
C726 C728 1.415 . S
C727 C726 1.355 . S
C727 C729 1.419 . S
C728 C726 1.415 . S
C728 C733 1.425 . S
C728 C735 1.409 . S
C729 H721 0.930 . S
C729 C727 1.419 . S
C729 C730 1.362 . S
C730 H722 0.930 . S
C730 C729 1.362 . S
C730 C733 1.409 . S
C731 H723 0.930 . S
C731 C732 1.355 . S
C731 C733 1.415 . S
C732 C731 1.355 . S
C732 C734 1.419 . S
C733 C728 1.425 . S
C733 C730 1.409 . S
C733 C731 1.415 . S
C734 H724 0.930 . S
C734 C732 1.419 . S
C734 C735 1.362 . S
C735 H725 0.930 . S
C735 C728 1.409 . S
C735 C734 1.362 . S
H736 C742 0.902 1_545 S
H737 C745 0.930 . S
H738 C746 0.930 . S
H739 C747 0.930 . S
H740 C750 0.930 . S
H741 C751 0.930 . S
C742 H736 0.902 1_565 S
C742 C743 1.358 . S
C742 C744 1.440 . S
C743 C742 1.358 . S
C743 C745 1.419 . S
C744 C742 1.440 . S
C744 C749 1.425 . S
C744 C751 1.409 . S
C745 H737 0.930 . S
C745 C743 1.419 . S
C745 C746 1.362 . S
C746 H738 0.930 . S
C746 C745 1.362 . S
C746 C749 1.409 . S
C747 H739 0.930 . S
C747 C748 1.355 . S
C747 C749 1.415 . S
C748 C747 1.355 . S
C748 C750 1.419 . S
C749 C744 1.425 . S
C749 C746 1.409 . S
C749 C747 1.415 . S
C750 H740 0.930 . S
C750 C748 1.419 . S
C750 C751 1.362 . S
C751 H741 0.930 . S
C751 C744 1.409 . S
C751 C750 1.362 . S
H752 C758 0.930 . S
H753 C761 0.930 . S
H754 C762 0.930 . S
H755 C763 0.930 . S
H756 C766 0.930 . S
H757 C767 0.930 . S
C758 H752 0.930 . S
C758 C759 1.355 . S
C758 C760 1.415 . S
C759 C758 1.355 . S
C759 C761 1.419 . S
C760 C758 1.415 . S
C760 C765 1.425 . S
C760 C767 1.409 . S
C761 H753 0.930 . S
C761 C759 1.419 . S
C761 C762 1.362 . S
C762 H754 0.930 . S
C762 C761 1.362 . S
C762 C765 1.409 . S
C763 H755 0.930 . S
C763 C764 1.355 . S
C763 C765 1.415 . S
C764 C763 1.355 . S
C764 C766 1.419 . S
C765 C760 1.425 . S
C765 C762 1.409 . S
C765 C763 1.415 . S
C766 H756 0.930 . S
C766 C764 1.419 . S
C766 C767 1.362 . S
C767 H757 0.930 . S
C767 C760 1.409 . S
C767 C766 1.362 . S
H768 C774 0.930 . S
H769 C777 0.930 . S
H770 C778 0.930 1_565 S
H771 C779 0.930 . S
H772 C782 0.930 . S
H773 C783 0.930 . S
C774 H768 0.930 . S
C774 C775 1.355 . S
C774 C776 1.415 . S
C775 C774 1.355 . S
C775 C777 1.419 . S
C776 C774 1.415 . S
C776 C781 1.425 . S
C776 C783 1.409 . S
C777 H769 0.930 . S
C777 C775 1.419 . S
C777 C778 1.362 . S
C778 H770 0.930 1_545 S
C778 C777 1.362 . S
C778 C781 1.409 . S
C779 H771 0.930 . S
C779 C780 1.355 1_564 S
C779 C781 1.415 1_565 S
C780 C779 1.355 1_546 S
C780 C782 1.419 . S
C781 C776 1.425 . S
C781 C778 1.409 . S
C781 C779 1.415 1_545 S
C782 H772 0.930 . S
C782 C780 1.419 . S
C782 C783 1.362 1_556 S
C783 H773 0.930 . S
C783 C776 1.409 . S
C783 C782 1.362 1_554 S
H784 C790 0.930 . S
H785 C793 0.930 . S
H786 C794 0.930 . S
H787 C795 0.930 . S
H788 C798 0.930 . S
H789 C799 0.930 . S
C790 H784 0.930 . S
C790 C791 1.355 . S
C790 C792 1.415 . S
C791 C790 1.355 . S
C791 C793 1.419 . S
C792 C790 1.415 . S
C792 C797 1.425 . S
C792 C799 1.409 . S
C793 H785 0.930 . S
C793 C791 1.419 . S
C793 C794 1.362 . S
C794 H786 0.930 . S
C794 C793 1.362 . S
C794 C797 1.409 . S
C795 H787 0.930 . S
C795 C796 1.355 . S
C795 C797 1.415 . S
C796 C795 1.355 . S
C796 C798 1.419 . S
C797 C792 1.425 . S
C797 C794 1.409 . S
C797 C795 1.415 . S
C798 H788 0.930 . S
C798 C796 1.419 . S
C798 C799 1.362 . S
C799 H789 0.930 . S
C799 C792 1.409 . S
C799 C798 1.362 . S
H800 C806 0.930 1_554 S
H801 C809 0.930 . S
H802 C810 0.930 . S
H803 C811 0.930 . S
H804 C814 0.930 . S
H805 C815 0.930 . S
C806 H800 0.930 1_556 S
C806 C807 1.355 1_556 S
C806 C808 1.415 . S
C807 C806 1.355 1_554 S
C807 C809 1.419 1_554 S
C808 C806 1.415 . S
C808 C813 1.425 . S
C808 C815 1.409 . S
C809 H801 0.930 . S
C809 C807 1.419 1_556 S
C809 C810 1.362 . S
C810 H802 0.930 . S
C810 C809 1.362 . S
C810 C813 1.409 . S
C811 H803 0.930 . S
C811 C812 1.355 . S
C811 C813 1.415 . S
C812 C811 1.355 . S
C812 C814 1.419 . S
C813 C808 1.425 . S
C813 C810 1.409 . S
C813 C811 1.415 . S
C814 H804 0.930 . S
C814 C812 1.419 . S
C814 C815 1.362 . S
C815 H805 0.930 . S
C815 C808 1.409 . S
C815 C814 1.362 . S
H816 C822 0.930 . S
H817 C825 0.930 . S
H818 C826 0.930 . S
H819 C827 0.930 . S
H820 C830 0.930 . S
H821 C831 0.930 . S
C822 H816 0.930 . S
C822 C823 1.355 . S
C822 C824 1.415 . S
C823 C822 1.355 . S
C823 C825 1.419 . S
C824 C822 1.415 . S
C824 C829 1.425 . S
C824 C831 1.409 . S
C825 H817 0.930 . S
C825 C823 1.419 . S
C825 C826 1.362 . S
C826 H818 0.930 . S
C826 C825 1.362 . S
C826 C829 1.409 . S
C827 H819 0.930 . S
C827 C828 1.355 . S
C827 C829 1.415 . S
C828 C827 1.355 . S
C828 C830 1.419 . S
C829 C824 1.425 . S
C829 C826 1.409 . S
C829 C827 1.415 . S
C830 H820 0.930 . S
C830 C828 1.419 . S
C830 C831 1.362 . S
C831 H821 0.930 . S
C831 C824 1.409 . S
C831 C830 1.362 . S
H832 C838 0.930 . S
H833 C841 0.930 . S
H834 C842 0.930 . S
H835 C843 0.930 . S
H836 C846 0.930 . S
H837 C847 0.930 . S
C838 H832 0.930 . S
C838 C839 1.355 . S
C838 C840 1.415 . S
C839 C838 1.355 . S
C839 C841 1.419 . S
C840 C838 1.415 . S
C840 C845 1.425 . S
C840 C847 1.409 . S
C841 H833 0.930 . S
C841 C839 1.419 . S
C841 C842 1.362 . S
C842 H834 0.930 . S
C842 C841 1.362 . S
C842 C845 1.409 . S
C843 H835 0.930 . S
C843 C844 1.355 . S
C843 C845 1.415 . S
C844 C843 1.355 . S
C844 C846 1.419 . S
C845 C840 1.425 . S
C845 C842 1.409 . S
C845 C843 1.415 . S
C846 H836 0.930 . S
C846 C844 1.419 . S
C846 C847 1.362 . S
C847 H837 0.930 . S
C847 C840 1.409 . S
C847 C846 1.362 . S
H848 C854 0.930 . S
H849 C857 0.930 . S
H850 C858 0.930 . S
H851 C859 0.930 . S
H852 C862 0.930 . S
H853 C863 0.930 . S
C854 H848 0.930 . S
C854 C855 1.355 . S
C854 C856 1.415 . S
C855 C854 1.355 . S
C855 C857 1.419 . S
C856 C854 1.415 . S
C856 C861 1.425 . S
C856 C863 1.409 . S
C857 H849 0.930 . S
C857 C855 1.419 . S
C857 C858 1.362 . S
C858 H850 0.930 . S
C858 C857 1.362 . S
C858 C861 1.409 . S
C859 H851 0.930 . S
C859 C860 1.355 . S
C859 C861 1.415 . S
C860 C859 1.355 . S
C860 C862 1.419 . S
C861 C856 1.425 . S
C861 C858 1.409 . S
C861 C859 1.415 . S
C862 H852 0.930 . S
C862 C860 1.419 . S
C862 C863 1.362 . S
C863 H853 0.930 . S
C863 C856 1.409 . S
C863 C862 1.362 . S
H864 C870 0.930 . S
H865 C873 0.930 . S
H866 C874 0.930 . S
H867 C875 0.930 . S
H868 C878 0.930 . S
H869 C879 0.930 1_655 S
C870 H864 0.930 . S
C870 C871 1.355 1_645 S
C870 C872 1.415 1_655 S
C871 C870 1.355 1_465 S
C871 C873 1.419 . S
C872 C870 1.415 1_455 S
C872 C877 1.425 . S
C872 C879 1.409 . S
C873 H865 0.930 . S
C873 C871 1.419 . S
C873 C874 1.362 1_565 S
C874 H866 0.930 . S
C874 C873 1.362 1_545 S
C874 C877 1.409 . S
C875 H867 0.930 . S
C875 C876 1.355 . S
C875 C877 1.415 . S
C876 C875 1.355 . S
C876 C878 1.419 . S
C877 C872 1.425 . S
C877 C874 1.409 . S
C877 C875 1.415 . S
C878 H868 0.930 . S
C878 C876 1.419 . S
C878 C879 1.362 . S
C879 H869 0.930 1_455 S
C879 C872 1.409 . S
C879 C878 1.362 . S
H880 C886 0.930 . S
H881 C889 0.930 . S
H882 C890 0.930 . S
H883 C891 0.930 . S
H884 C894 0.930 . S
H885 C895 0.930 . S
C886 H880 0.930 . S
C886 C887 1.355 . S
C886 C888 1.415 . S
C887 C886 1.355 . S
C887 C889 1.419 . S
C888 C886 1.415 . S
C888 C893 1.425 . S
C888 C895 1.409 . S
C889 H881 0.930 . S
C889 C887 1.419 . S
C889 C890 1.362 . S
C890 H882 0.930 . S
C890 C889 1.362 . S
C890 C893 1.409 . S
C891 H883 0.930 . S
C891 C892 1.355 . S
C891 C893 1.415 . S
C892 C891 1.355 . S
C892 C894 1.419 . S
C893 C888 1.425 . S
C893 C890 1.409 . S
C893 C891 1.415 . S
C894 H884 0.930 . S
C894 C892 1.419 . S
C894 C895 1.362 . S
C895 H885 0.930 . S
C895 C888 1.409 . S
C895 C894 1.362 . S
H896 C902 0.920 1_545 S
H897 C905 0.930 . S
H898 C906 0.930 . S
H899 C907 0.930 . S
H900 C910 0.930 . S
H901 C911 0.930 . S
C902 H896 0.920 1_565 S
C902 C903 1.354 1_565 S
C902 C904 1.425 . S
C903 C902 1.354 1_545 S
C903 C905 1.419 1_545 S
C904 C902 1.425 . S
C904 C909 1.425 . S
C904 C911 1.409 . S
C905 H897 0.930 . S
C905 C903 1.419 1_565 S
C905 C906 1.362 . S
C906 H898 0.930 . S
C906 C905 1.362 . S
C906 C909 1.409 . S
C907 H899 0.930 . S
C907 C908 1.355 . S
C907 C909 1.415 . S
C908 C907 1.355 . S
C908 C910 1.419 . S
C909 C904 1.425 . S
C909 C906 1.409 . S
C909 C907 1.415 . S
C910 H900 0.930 . S
C910 C908 1.419 . S
C910 C911 1.362 . S
C911 H901 0.930 . S
C911 C904 1.409 . S
C911 C910 1.362 . S
H912 C918 0.930 . S
H913 C921 0.930 . S
H914 C922 0.930 . S
H915 C923 0.930 . S
H916 C926 0.930 . S
H917 C927 0.930 . S
C918 H912 0.930 . S
C918 C919 1.355 . S
C918 C920 1.415 . S
C919 C918 1.355 . S
C919 C921 1.419 . S
C920 C918 1.415 . S
C920 C925 1.425 . S
C920 C927 1.409 . S
C921 H913 0.930 . S
C921 C919 1.419 . S
C921 C922 1.362 . S
C922 H914 0.930 . S
C922 C921 1.362 . S
C922 C925 1.409 . S
C923 H915 0.930 . S
C923 C924 1.355 . S
C923 C925 1.415 . S
C924 C923 1.355 . S
C924 C926 1.419 . S
C925 C920 1.425 . S
C925 C922 1.409 . S
C925 C923 1.415 . S
C926 H916 0.930 . S
C926 C924 1.419 . S
C926 C927 1.362 . S
C927 H917 0.930 . S
C927 C920 1.409 . S
C927 C926 1.362 . S
H928 C934 0.930 . S
H929 C937 0.930 . S
H930 C938 0.935 . S
H931 C939 0.930 . S
H932 C942 0.930 . S
H933 C943 0.930 . S
C934 H928 0.930 . S
C934 C935 1.355 1_655 S
C934 C936 1.415 . S
C935 C934 1.355 1_455 S
C935 C937 1.419 . S
C936 C934 1.415 . S
C936 C941 1.425 . S
C936 C943 1.409 . S
C937 H929 0.930 . S
C937 C935 1.419 . S
C937 C938 1.368 . S
C938 H930 0.935 . S
C938 C937 1.368 . S
C938 C941 1.399 1_455 S
C939 H931 0.930 . S
C939 C940 1.355 . S
C939 C941 1.415 . S
C940 C939 1.355 . S
C940 C942 1.419 . S
C941 C936 1.425 . S
C941 C938 1.399 1_655 S
C941 C939 1.415 . S
C942 H932 0.930 . S
C942 C940 1.419 . S
C942 C943 1.362 . S
C943 H933 0.930 . S
C943 C936 1.409 . S
C943 C942 1.362 . S
H944 C950 0.930 . S
H945 C953 0.930 . S
H946 C954 0.930 . S
H947 C955 0.930 . S
H948 C958 0.930 . S
H949 C959 0.930 . S
C950 H944 0.930 . S
C950 C951 1.355 . S
C950 C952 1.415 . S
C951 C950 1.355 . S
C951 C953 1.419 . S
C952 C950 1.415 . S
C952 C957 1.425 . S
C952 C959 1.409 . S
C953 H945 0.930 . S
C953 C951 1.419 . S
C953 C954 1.362 . S
C954 H946 0.930 . S
C954 C953 1.362 . S
C954 C957 1.409 . S
C955 H947 0.930 . S
C955 C956 1.355 . S
C955 C957 1.415 . S
C956 C955 1.355 . S
C956 C958 1.419 . S
C957 C952 1.425 . S
C957 C954 1.409 . S
C957 C955 1.415 . S
C958 H948 0.930 . S
C958 C956 1.419 . S
C958 C959 1.362 . S
C959 H949 0.930 . S
C959 C952 1.409 . S
C959 C958 1.362 . S
H960 C966 0.930 . S
H961 C969 0.930 . S
H962 C970 0.930 . S
H963 C971 0.930 . S
H964 C974 0.930 . S
H965 C975 0.930 . S
C966 H960 0.930 . S
C966 C967 1.355 . S
C966 C968 1.415 . S
C967 C966 1.355 . S
C967 C969 1.419 . S
C968 C966 1.415 . S
C968 C973 1.425 . S
C968 C975 1.409 . S
C969 H961 0.930 . S
C969 C967 1.419 . S
C969 C970 1.362 . S
C970 H962 0.930 . S
C970 C969 1.362 . S
C970 C973 1.409 . S
C971 H963 0.930 . S
C971 C972 1.355 . S
C971 C973 1.415 . S
C972 C971 1.355 . S
C972 C974 1.419 . S
C973 C968 1.425 . S
C973 C970 1.409 . S
C973 C971 1.415 . S
C974 H964 0.930 . S
C974 C972 1.419 . S
C974 C975 1.362 . S
C975 H965 0.930 . S
C975 C968 1.409 . S
C975 C974 1.362 . S
H976 C982 0.930 . S
H977 C985 0.930 . S
H978 C986 0.930 . S
H979 C987 0.930 . S
H980 C990 0.930 . S
H981 C991 0.930 . S
C982 H976 0.930 . S
C982 C983 1.355 . S
C982 C984 1.415 . S
C983 C982 1.355 . S
C983 C985 1.419 . S
C984 C982 1.415 . S
C984 C989 1.425 . S
C984 C991 1.409 . S
C985 H977 0.930 . S
C985 C983 1.419 . S
C985 C986 1.362 . S
C986 H978 0.930 . S
C986 C985 1.362 . S
C986 C989 1.409 . S
C987 H979 0.930 . S
C987 C988 1.355 . S
C987 C989 1.415 . S
C988 C987 1.355 . S
C988 C990 1.419 . S
C989 C984 1.425 . S
C989 C986 1.409 . S
C989 C987 1.415 . S
C990 H980 0.930 . S
C990 C988 1.419 . S
C990 C991 1.362 . S
C991 H981 0.930 . S
C991 C984 1.409 . S
C991 C990 1.362 . S
H992 C998 0.930 . S
H993 C1001 0.930 . S
H994 C1002 0.930 . S
H995 C1003 0.930 . S
H996 C1006 0.930 . S
H997 C1007 0.930 . S
C998 H992 0.930 . S
C998 C999 1.355 . S
C998 C1000 1.415 . S
C999 C998 1.355 . S
C999 C1001 1.419 . S
C1000 C998 1.415 . S
C1000 C1005 1.425 . S
C1000 C1007 1.409 . S
C1001 H993 0.930 . S
C1001 C999 1.419 . S
C1001 C1002 1.362 . S
C1002 H994 0.930 . S
C1002 C1001 1.362 . S
C1002 C1005 1.409 . S
C1003 H995 0.930 . S
C1003 C1004 1.355 . S
C1003 C1005 1.415 . S
C1004 C1003 1.355 . S
C1004 C1006 1.419 . S
C1005 C1000 1.425 . S
C1005 C1002 1.409 . S
C1005 C1003 1.415 . S
C1006 H996 0.930 . S
C1006 C1004 1.419 . S
C1006 C1007 1.362 . S
C1007 H997 0.930 . S
C1007 C1000 1.409 . S
C1007 C1006 1.362 . S
H1008 C1014 0.930 . S
H1009 C1017 0.930 . S
H1010 C1018 0.930 1_655 S
H1011 C1019 0.930 . S
H1012 C1022 0.930 . S
H1013 C1023 0.930 1_556 S
C1014 H1008 0.930 . S
C1014 C1015 1.355 1_456 S
C1014 C1016 1.415 1_556 S
C1015 C1014 1.355 1_654 S
C1015 C1017 1.419 . S
C1016 C1014 1.415 1_554 S
C1016 C1021 1.425 . S
C1016 C1023 1.409 . S
C1017 H1009 0.930 . S
C1017 C1015 1.419 . S
C1017 C1018 1.362 1_655 S
C1018 H1010 0.930 1_455 S
C1018 C1017 1.362 1_455 S
C1018 C1021 1.409 . S
C1019 H1011 0.930 . S
C1019 C1020 1.355 . S
C1019 C1021 1.415 . S
C1020 C1019 1.355 . S
C1020 C1022 1.419 . S
C1021 C1016 1.425 . S
C1021 C1018 1.409 . S
C1021 C1019 1.415 . S
C1022 H1012 0.930 . S
C1022 C1020 1.419 . S
C1022 C1023 1.362 . S
C1023 H1013 0.930 1_554 S
C1023 C1016 1.409 . S
C1023 C1022 1.362 . S
H1024 C1030 0.930 . S
H1025 C1033 0.930 . S
H1026 C1034 0.930 . S
H1027 C1035 0.930 . S
H1028 C1038 0.930 . S
H1029 C1039 0.930 . S
C1030 H1024 0.930 . S
C1030 C1031 1.355 . S
C1030 C1032 1.415 . S
C1031 C1030 1.355 . S
C1031 C1033 1.419 . S
C1032 C1030 1.415 . S
C1032 C1037 1.425 . S
C1032 C1039 1.409 . S
C1033 H1025 0.930 . S
C1033 C1031 1.419 . S
C1033 C1034 1.362 . S
C1034 H1026 0.930 . S
C1034 C1033 1.362 . S
C1034 C1037 1.409 . S
C1035 H1027 0.930 . S
C1035 C1036 1.355 . S
C1035 C1037 1.415 . S
C1036 C1035 1.355 . S
C1036 C1038 1.419 . S
C1037 C1032 1.425 . S
C1037 C1034 1.409 . S
C1037 C1035 1.415 . S
C1038 H1028 0.930 . S
C1038 C1036 1.419 . S
C1038 C1039 1.362 . S
C1039 H1029 0.930 . S
C1039 C1032 1.409 . S
C1039 C1038 1.362 . S
H1040 C1046 0.930 . S
H1041 C1049 0.930 . S
H1042 C1050 0.930 . S
H1043 C1051 0.930 . S
H1044 C1054 0.930 . S
H1045 C1055 0.930 . S
C1046 H1040 0.930 . S
C1046 C1047 1.355 . S
C1046 C1048 1.415 . S
C1047 C1046 1.355 . S
C1047 C1049 1.419 . S
C1048 C1046 1.415 . S
C1048 C1053 1.425 . S
C1048 C1055 1.409 . S
C1049 H1041 0.930 . S
C1049 C1047 1.419 . S
C1049 C1050 1.362 . S
C1050 H1042 0.930 . S
C1050 C1049 1.362 . S
C1050 C1053 1.409 . S
C1051 H1043 0.930 . S
C1051 C1052 1.355 . S
C1051 C1053 1.415 . S
C1052 C1051 1.355 . S
C1052 C1054 1.419 . S
C1053 C1048 1.425 . S
C1053 C1050 1.409 . S
C1053 C1051 1.415 . S
C1054 H1044 0.930 . S
C1054 C1052 1.419 . S
C1054 C1055 1.362 . S
C1055 H1045 0.930 . S
C1055 C1048 1.409 . S
C1055 C1054 1.362 . S
H1056 C1062 0.930 . S
H1057 C1065 0.930 . S
H1058 C1066 0.930 . S
H1059 C1067 0.930 . S
H1060 C1070 0.930 . S
H1061 C1071 0.930 . S
C1062 H1056 0.930 . S
C1062 C1063 1.355 . S
C1062 C1064 1.415 . S
C1063 C1062 1.355 . S
C1063 C1065 1.419 . S
C1064 C1062 1.415 . S
C1064 C1069 1.425 . S
C1064 C1071 1.409 . S
C1065 H1057 0.930 . S
C1065 C1063 1.419 . S
C1065 C1066 1.362 . S
C1066 H1058 0.930 . S
C1066 C1065 1.362 . S
C1066 C1069 1.409 . S
C1067 H1059 0.930 . S
C1067 C1068 1.355 . S
C1067 C1069 1.415 . S
C1068 C1067 1.355 . S
C1068 C1070 1.419 . S
C1069 C1064 1.425 . S
C1069 C1066 1.409 . S
C1069 C1067 1.415 . S
C1070 H1060 0.930 . S
C1070 C1068 1.419 . S
C1070 C1071 1.362 . S
C1071 H1061 0.930 . S
C1071 C1064 1.409 . S
C1071 C1070 1.362 . S
H1072 C1078 0.930 . S
H1073 C1081 0.930 . S
H1074 C1082 0.930 . S
H1075 C1083 0.930 . S
H1076 C1086 0.930 . S
H1077 C1087 0.930 1_554 S
C1078 H1072 0.930 . S
C1078 C1079 1.355 1_554 S
C1078 C1080 1.415 1_554 S
C1079 C1078 1.355 1_556 S
C1079 C1081 1.419 . S
C1080 C1078 1.415 1_556 S
C1080 C1085 1.425 . S
C1080 C1087 1.409 . S
C1081 H1073 0.930 . S
C1081 C1079 1.419 . S
C1081 C1082 1.362 . S
C1082 H1074 0.930 . S
C1082 C1081 1.362 . S
C1082 C1085 1.409 . S
C1083 H1075 0.930 . S
C1083 C1084 1.355 . S
C1083 C1085 1.415 . S
C1084 C1083 1.355 . S
C1084 C1086 1.419 . S
C1085 C1080 1.425 . S
C1085 C1082 1.409 . S
C1085 C1083 1.415 . S
C1086 H1076 0.930 . S
C1086 C1084 1.419 . S
C1086 C1087 1.362 . S
C1087 H1077 0.930 1_556 S
C1087 C1080 1.409 . S
C1087 C1086 1.362 . S
H1088 C1094 0.930 . S
H1089 C1097 0.930 . S
H1090 C1098 0.930 . S
H1091 C1099 0.930 . S
H1092 C1102 0.930 . S
H1093 C1103 0.930 . S
C1094 H1088 0.930 . S
C1094 C1095 1.355 . S
C1094 C1096 1.415 . S
C1095 C1094 1.355 . S
C1095 C1097 1.419 . S
C1096 C1094 1.415 . S
C1096 C1101 1.425 . S
C1096 C1103 1.409 . S
C1097 H1089 0.930 . S
C1097 C1095 1.419 . S
C1097 C1098 1.362 . S
C1098 H1090 0.930 . S
C1098 C1097 1.362 . S
C1098 C1101 1.409 . S
C1099 H1091 0.930 . S
C1099 C1100 1.355 . S
C1099 C1101 1.415 1_455 S
C1100 C1099 1.355 . S
C1100 C1102 1.419 1_455 S
C1101 C1096 1.425 . S
C1101 C1098 1.409 . S
C1101 C1099 1.415 1_655 S
C1102 H1092 0.930 . S
C1102 C1100 1.419 1_655 S
C1102 C1103 1.362 . S
C1103 H1093 0.930 . S
C1103 C1096 1.409 . S
C1103 C1102 1.362 . S
C343 C131 1.302 . S
C348 C5 1.256 . S
C359 C19 1.211 1_455 S
C364 C145 1.314 . S
C375 C33 1.311 . S
C380 C159 1.238 1_556 S
C391 C47 1.220 . S
C396 C117 1.314 . S
C407 C61 1.290 . S
C412 C215 1.273 . S
C423 C173 1.313 . S
C428 C75 1.206 1_655 S
C439 C89 1.293 . S
C444 C187 1.190 1_554 S
C455 C201 1.206 . S
C460 C103 1.313 . S
C471 C229 1.301 . S
C476 C257 1.257 . S
C487 C313 1.208 1_545 S
C492 C243 1.314 . S
C503 C271 1.301 . S
C508 C327 1.258 1_565 S
C519 C299 1.298 . S
C524 C285 1.262 . S
C535 C291 1.520 . S
C540 C11 1.539 . S
C551 C25 1.507 . S
C556 C249 1.552 . S
C567 C39 1.559 . S
C572 C263 1.499 . S
C583 C53 1.507 . S
C588 C277 1.549 . S
C599 C67 1.561 . S
C604 C333 1.496 . S
C615 C305 1.507 . S
C620 C81 1.550 . S
C631 C319 1.500 . S
C636 C95 1.557 . S
C647 C235 1.512 . S
C652 C109 1.545 . S
C663 C221 1.497 . S
C668 C123 1.560 . S
C679 C137 1.536 . S
C684 C179 1.520 . S
C695 C193 1.511 . S
C700 C151 1.546 . S
C711 C207 1.512 . S
C716 C165 1.544 . S
C727 C12 1.027 . S
C732 C228 0.922 . S
C743 C326 1.034 1_565 S
C748 C26 0.875 . S
C759 C298 0.973 . S
C764 C40 0.969 . S
C775 C54 0.887 . S
C780 C312 1.025 1_545 S
C791 C68 0.891 . S
C796 C242 1.022 . S
C807 C256 0.922 . S
C812 C82 1.027 . S
C823 C270 0.961 . S
C828 C96 0.974 . S
C839 C284 1.034 . S
C844 C110 0.879 . S
C855 C4 0.928 . S
C860 C124 1.018 . S
C871 C18 1.037 1_455 S
C876 C138 0.872 . S
C887 C32 1.002 . S
C892 C152 0.930 . S
C903 C46 0.993 . S
C908 C166 0.931 . S
C919 C60 1.031 . S
C924 C180 0.878 . S
C935 C74 0.924 . S
C940 C194 1.026 . S
C951 C208 0.887 . S
C956 C88 1.024 . S
C967 C102 1.037 . S
C972 C222 0.872 . S
C983 C116 0.974 . S
C988 C236 0.968 . S
C999 C250 1.011 . S
C1004 C172 0.933 . S
C1015 C186 1.017 1_554 S
C1020 C264 0.907 . S
C1031 C278 0.947 . S
C1036 C200 0.989 . S
C1047 C292 0.872 . S
C1052 C214 1.037 . S
C1063 C306 0.979 . S
C1068 C144 0.957 . S
C1079 C158 1.036 1_556 S
C1084 C320 0.875 . S
C1095 C334 1.025 . S
C1100 C130 0.923 . S
