# Generated by pormake.
# Topology ubt, (5)-cn, num edge types: 1
# Building blocks:
#     Node 0, Type 0, BuildingBlock: XOMCOT_clean_sbu_1, # of connection points: 5
#     Node 1, Type 0, BuildingBlock: XOMCOT_clean_sbu_1, # of connection points: 5
#     Node 2, Type 0, BuildingBlock: XOMCOT_clean_sbu_1, # of connection points: 5
#     Node 3, Type 0, BuildingBlock: XOMCOT_clean_sbu_1, # of connection points: 5
#     Node 4, Type 0, BuildingBlock: XOMCOT_clean_sbu_1, # of connection points: 5
#     Node 5, Type 0, BuildingBlock: XOMCOT_clean_sbu_1, # of connection points: 5
#     Node 6, Type 0, BuildingBlock: XOMCOT_clean_sbu_1, # of connection points: 5
#     Node 7, Type 0, BuildingBlock: XOMCOT_clean_sbu_1, # of connection points: 5
#     Node 8, Type 0, BuildingBlock: XOMCOT_clean_sbu_1, # of connection points: 5
#     Node 9, Type 0, BuildingBlock: XOMCOT_clean_sbu_1, # of connection points: 5
#     Node 10, Type 0, BuildingBlock: XOMCOT_clean_sbu_1, # of connection points: 5
#     Node 11, Type 0, BuildingBlock: XOMCOT_clean_sbu_1, # of connection points: 5
#     Node 12, Type 0, BuildingBlock: XOMCOT_clean_sbu_1, # of connection points: 5
#     Node 13, Type 0, BuildingBlock: XOMCOT_clean_sbu_1, # of connection points: 5
#     Node 14, Type 0, BuildingBlock: XOMCOT_clean_sbu_1, # of connection points: 5
#     Node 15, Type 0, BuildingBlock: XOMCOT_clean_sbu_1, # of connection points: 5
#     Node 16, Type 0, BuildingBlock: XOMCOT_clean_sbu_1, # of connection points: 5
#     Node 17, Type 0, BuildingBlock: XOMCOT_clean_sbu_1, # of connection points: 5
#     Node 18, Type 0, BuildingBlock: XOMCOT_clean_sbu_1, # of connection points: 5
#     Node 19, Type 0, BuildingBlock: XOMCOT_clean_sbu_1, # of connection points: 5
#     Node 20, Type 0, BuildingBlock: XOMCOT_clean_sbu_1, # of connection points: 5
#     Node 21, Type 0, BuildingBlock: XOMCOT_clean_sbu_1, # of connection points: 5
#     Node 22, Type 0, BuildingBlock: XOMCOT_clean_sbu_1, # of connection points: 5
#     Node 23, Type 0, BuildingBlock: XOMCOT_clean_sbu_1, # of connection points: 5
#     Node 24, Type 0, BuildingBlock: XOMCOT_clean_sbu_1, # of connection points: 5
#     Node 25, Type 0, BuildingBlock: XOMCOT_clean_sbu_1, # of connection points: 5
#     Node 26, Type 0, BuildingBlock: XOMCOT_clean_sbu_1, # of connection points: 5
#     Node 27, Type 0, BuildingBlock: XOMCOT_clean_sbu_1, # of connection points: 5
#     Node 28, Type 0, BuildingBlock: XOMCOT_clean_sbu_1, # of connection points: 5
#     Node 29, Type 0, BuildingBlock: XOMCOT_clean_sbu_1, # of connection points: 5
#     Node 30, Type 0, BuildingBlock: XOMCOT_clean_sbu_1, # of connection points: 5
#     Node 31, Type 0, BuildingBlock: XOMCOT_clean_sbu_1, # of connection points: 5
#     Node 32, Type 0, BuildingBlock: XOMCOT_clean_sbu_1, # of connection points: 5
#     Node 33, Type 0, BuildingBlock: XOMCOT_clean_sbu_1, # of connection points: 5
#     Node 34, Type 0, BuildingBlock: XOMCOT_clean_sbu_1, # of connection points: 5
#     Node 35, Type 0, BuildingBlock: XOMCOT_clean_sbu_1, # of connection points: 5
#     Node 36, Type 0, BuildingBlock: XOMCOT_clean_sbu_1, # of connection points: 5
#     Node 37, Type 0, BuildingBlock: XOMCOT_clean_sbu_1, # of connection points: 5
#     Node 38, Type 0, BuildingBlock: XOMCOT_clean_sbu_1, # of connection points: 5
#     Node 39, Type 0, BuildingBlock: XOMCOT_clean_sbu_1, # of connection points: 5
#     Node 40, Type 0, BuildingBlock: XOMCOT_clean_sbu_1, # of connection points: 5
#     Node 41, Type 0, BuildingBlock: XOMCOT_clean_sbu_1, # of connection points: 5
#     Node 42, Type 0, BuildingBlock: XOMCOT_clean_sbu_1, # of connection points: 5
#     Node 43, Type 0, BuildingBlock: XOMCOT_clean_sbu_1, # of connection points: 5
#     Node 44, Type 0, BuildingBlock: XOMCOT_clean_sbu_1, # of connection points: 5
#     Node 45, Type 0, BuildingBlock: XOMCOT_clean_sbu_1, # of connection points: 5
#     Node 46, Type 0, BuildingBlock: XOMCOT_clean_sbu_1, # of connection points: 5
#     Node 47, Type 0, BuildingBlock: XOMCOT_clean_sbu_1, # of connection points: 5
#     Edge 48, Type (0, 0), BuildingBlock: OJICUG_clean_linker_0, # of connection points: 2
#     Edge 49, Type (0, 0), BuildingBlock: OJICUG_clean_linker_0, # of connection points: 2
#     Edge 50, Type (0, 0), BuildingBlock: OJICUG_clean_linker_0, # of connection points: 2
#     Edge 51, Type (0, 0), BuildingBlock: OJICUG_clean_linker_0, # of connection points: 2
#     Edge 52, Type (0, 0), BuildingBlock: OJICUG_clean_linker_0, # of connection points: 2
#     Edge 53, Type (0, 0), BuildingBlock: OJICUG_clean_linker_0, # of connection points: 2
#     Edge 54, Type (0, 0), BuildingBlock: OJICUG_clean_linker_0, # of connection points: 2
#     Edge 55, Type (0, 0), BuildingBlock: OJICUG_clean_linker_0, # of connection points: 2
#     Edge 56, Type (0, 0), BuildingBlock: OJICUG_clean_linker_0, # of connection points: 2
#     Edge 57, Type (0, 0), BuildingBlock: OJICUG_clean_linker_0, # of connection points: 2
#     Edge 58, Type (0, 0), BuildingBlock: OJICUG_clean_linker_0, # of connection points: 2
#     Edge 59, Type (0, 0), BuildingBlock: OJICUG_clean_linker_0, # of connection points: 2
#     Edge 60, Type (0, 0), BuildingBlock: OJICUG_clean_linker_0, # of connection points: 2
#     Edge 61, Type (0, 0), BuildingBlock: OJICUG_clean_linker_0, # of connection points: 2
#     Edge 62, Type (0, 0), BuildingBlock: OJICUG_clean_linker_0, # of connection points: 2
#     Edge 63, Type (0, 0), BuildingBlock: OJICUG_clean_linker_0, # of connection points: 2
#     Edge 64, Type (0, 0), BuildingBlock: OJICUG_clean_linker_0, # of connection points: 2
#     Edge 65, Type (0, 0), BuildingBlock: OJICUG_clean_linker_0, # of connection points: 2
#     Edge 66, Type (0, 0), BuildingBlock: OJICUG_clean_linker_0, # of connection points: 2
#     Edge 67, Type (0, 0), BuildingBlock: OJICUG_clean_linker_0, # of connection points: 2
#     Edge 68, Type (0, 0), BuildingBlock: OJICUG_clean_linker_0, # of connection points: 2
#     Edge 69, Type (0, 0), BuildingBlock: OJICUG_clean_linker_0, # of connection points: 2
#     Edge 70, Type (0, 0), BuildingBlock: OJICUG_clean_linker_0, # of connection points: 2
#     Edge 71, Type (0, 0), BuildingBlock: OJICUG_clean_linker_0, # of connection points: 2
#     Edge 72, Type (0, 0), BuildingBlock: OJICUG_clean_linker_0, # of connection points: 2
#     Edge 73, Type (0, 0), BuildingBlock: OJICUG_clean_linker_0, # of connection points: 2
#     Edge 74, Type (0, 0), BuildingBlock: OJICUG_clean_linker_0, # of connection points: 2
#     Edge 75, Type (0, 0), BuildingBlock: OJICUG_clean_linker_0, # of connection points: 2
#     Edge 76, Type (0, 0), BuildingBlock: OJICUG_clean_linker_0, # of connection points: 2
#     Edge 77, Type (0, 0), BuildingBlock: OJICUG_clean_linker_0, # of connection points: 2
#     Edge 78, Type (0, 0), BuildingBlock: OJICUG_clean_linker_0, # of connection points: 2
#     Edge 79, Type (0, 0), BuildingBlock: OJICUG_clean_linker_0, # of connection points: 2
#     Edge 80, Type (0, 0), BuildingBlock: OJICUG_clean_linker_0, # of connection points: 2
#     Edge 81, Type (0, 0), BuildingBlock: OJICUG_clean_linker_0, # of connection points: 2
#     Edge 82, Type (0, 0), BuildingBlock: OJICUG_clean_linker_0, # of connection points: 2
#     Edge 83, Type (0, 0), BuildingBlock: OJICUG_clean_linker_0, # of connection points: 2
#     Edge 84, Type (0, 0), BuildingBlock: OJICUG_clean_linker_0, # of connection points: 2
#     Edge 85, Type (0, 0), BuildingBlock: OJICUG_clean_linker_0, # of connection points: 2
#     Edge 86, Type (0, 0), BuildingBlock: OJICUG_clean_linker_0, # of connection points: 2
#     Edge 87, Type (0, 0), BuildingBlock: OJICUG_clean_linker_0, # of connection points: 2
#     Edge 88, Type (0, 0), BuildingBlock: OJICUG_clean_linker_0, # of connection points: 2
#     Edge 89, Type (0, 0), BuildingBlock: OJICUG_clean_linker_0, # of connection points: 2
#     Edge 90, Type (0, 0), BuildingBlock: OJICUG_clean_linker_0, # of connection points: 2
#     Edge 91, Type (0, 0), BuildingBlock: OJICUG_clean_linker_0, # of connection points: 2
#     Edge 92, Type (0, 0), BuildingBlock: OJICUG_clean_linker_0, # of connection points: 2
#     Edge 93, Type (0, 0), BuildingBlock: OJICUG_clean_linker_0, # of connection points: 2
#     Edge 94, Type (0, 0), BuildingBlock: OJICUG_clean_linker_0, # of connection points: 2
#     Edge 95, Type (0, 0), BuildingBlock: OJICUG_clean_linker_0, # of connection points: 2
#     Edge 96, Type (0, 0), BuildingBlock: OJICUG_clean_linker_0, # of connection points: 2
#     Edge 97, Type (0, 0), BuildingBlock: OJICUG_clean_linker_0, # of connection points: 2
#     Edge 98, Type (0, 0), BuildingBlock: OJICUG_clean_linker_0, # of connection points: 2
#     Edge 99, Type (0, 0), BuildingBlock: OJICUG_clean_linker_0, # of connection points: 2
#     Edge 100, Type (0, 0), BuildingBlock: OJICUG_clean_linker_0, # of connection points: 2
#     Edge 101, Type (0, 0), BuildingBlock: OJICUG_clean_linker_0, # of connection points: 2
#     Edge 102, Type (0, 0), BuildingBlock: OJICUG_clean_linker_0, # of connection points: 2
#     Edge 103, Type (0, 0), BuildingBlock: OJICUG_clean_linker_0, # of connection points: 2
#     Edge 104, Type (0, 0), BuildingBlock: OJICUG_clean_linker_0, # of connection points: 2
#     Edge 105, Type (0, 0), BuildingBlock: OJICUG_clean_linker_0, # of connection points: 2
#     Edge 106, Type (0, 0), BuildingBlock: OJICUG_clean_linker_0, # of connection points: 2
#     Edge 107, Type (0, 0), BuildingBlock: OJICUG_clean_linker_0, # of connection points: 2
#     Edge 108, Type (0, 0), BuildingBlock: OJICUG_clean_linker_0, # of connection points: 2
#     Edge 109, Type (0, 0), BuildingBlock: OJICUG_clean_linker_0, # of connection points: 2
#     Edge 110, Type (0, 0), BuildingBlock: OJICUG_clean_linker_0, # of connection points: 2
#     Edge 111, Type (0, 0), BuildingBlock: OJICUG_clean_linker_0, # of connection points: 2
#     Edge 112, Type (0, 0), BuildingBlock: OJICUG_clean_linker_0, # of connection points: 2
#     Edge 113, Type (0, 0), BuildingBlock: OJICUG_clean_linker_0, # of connection points: 2
#     Edge 114, Type (0, 0), BuildingBlock: OJICUG_clean_linker_0, # of connection points: 2
#     Edge 115, Type (0, 0), BuildingBlock: OJICUG_clean_linker_0, # of connection points: 2
#     Edge 116, Type (0, 0), BuildingBlock: OJICUG_clean_linker_0, # of connection points: 2
#     Edge 117, Type (0, 0), BuildingBlock: OJICUG_clean_linker_0, # of connection points: 2
#     Edge 118, Type (0, 0), BuildingBlock: OJICUG_clean_linker_0, # of connection points: 2
#     Edge 119, Type (0, 0), BuildingBlock: OJICUG_clean_linker_0, # of connection points: 2
#     Edge 120, Type (0, 0), BuildingBlock: OJICUG_clean_linker_0, # of connection points: 2
#     Edge 121, Type (0, 0), BuildingBlock: OJICUG_clean_linker_0, # of connection points: 2
#     Edge 122, Type (0, 0), BuildingBlock: OJICUG_clean_linker_0, # of connection points: 2
#     Edge 123, Type (0, 0), BuildingBlock: OJICUG_clean_linker_0, # of connection points: 2
#     Edge 124, Type (0, 0), BuildingBlock: OJICUG_clean_linker_0, # of connection points: 2
#     Edge 125, Type (0, 0), BuildingBlock: OJICUG_clean_linker_0, # of connection points: 2
#     Edge 126, Type (0, 0), BuildingBlock: OJICUG_clean_linker_0, # of connection points: 2
#     Edge 127, Type (0, 0), BuildingBlock: OJICUG_clean_linker_0, # of connection points: 2
#     Edge 128, Type (0, 0), BuildingBlock: OJICUG_clean_linker_0, # of connection points: 2
#     Edge 129, Type (0, 0), BuildingBlock: OJICUG_clean_linker_0, # of connection points: 2
#     Edge 130, Type (0, 0), BuildingBlock: OJICUG_clean_linker_0, # of connection points: 2
#     Edge 131, Type (0, 0), BuildingBlock: OJICUG_clean_linker_0, # of connection points: 2
#     Edge 132, Type (0, 0), BuildingBlock: OJICUG_clean_linker_0, # of connection points: 2
#     Edge 133, Type (0, 0), BuildingBlock: OJICUG_clean_linker_0, # of connection points: 2
#     Edge 134, Type (0, 0), BuildingBlock: OJICUG_clean_linker_0, # of connection points: 2
#     Edge 135, Type (0, 0), BuildingBlock: OJICUG_clean_linker_0, # of connection points: 2
#     Edge 136, Type (0, 0), BuildingBlock: OJICUG_clean_linker_0, # of connection points: 2
#     Edge 137, Type (0, 0), BuildingBlock: OJICUG_clean_linker_0, # of connection points: 2
#     Edge 138, Type (0, 0), BuildingBlock: OJICUG_clean_linker_0, # of connection points: 2
#     Edge 139, Type (0, 0), BuildingBlock: OJICUG_clean_linker_0, # of connection points: 2
#     Edge 140, Type (0, 0), BuildingBlock: OJICUG_clean_linker_0, # of connection points: 2
#     Edge 141, Type (0, 0), BuildingBlock: OJICUG_clean_linker_0, # of connection points: 2
#     Edge 142, Type (0, 0), BuildingBlock: OJICUG_clean_linker_0, # of connection points: 2
#     Edge 143, Type (0, 0), BuildingBlock: OJICUG_clean_linker_0, # of connection points: 2
#     Edge 144, Type (0, 0), BuildingBlock: OJICUG_clean_linker_0, # of connection points: 2
#     Edge 145, Type (0, 0), BuildingBlock: OJICUG_clean_linker_0, # of connection points: 2
#     Edge 146, Type (0, 0), BuildingBlock: OJICUG_clean_linker_0, # of connection points: 2
#     Edge 147, Type (0, 0), BuildingBlock: OJICUG_clean_linker_0, # of connection points: 2
#     Edge 148, Type (0, 0), BuildingBlock: OJICUG_clean_linker_0, # of connection points: 2
#     Edge 149, Type (0, 0), BuildingBlock: OJICUG_clean_linker_0, # of connection points: 2
#     Edge 150, Type (0, 0), BuildingBlock: OJICUG_clean_linker_0, # of connection points: 2
#     Edge 151, Type (0, 0), BuildingBlock: OJICUG_clean_linker_0, # of connection points: 2
#     Edge 152, Type (0, 0), BuildingBlock: OJICUG_clean_linker_0, # of connection points: 2
#     Edge 153, Type (0, 0), BuildingBlock: OJICUG_clean_linker_0, # of connection points: 2
#     Edge 154, Type (0, 0), BuildingBlock: OJICUG_clean_linker_0, # of connection points: 2
#     Edge 155, Type (0, 0), BuildingBlock: OJICUG_clean_linker_0, # of connection points: 2
#     Edge 156, Type (0, 0), BuildingBlock: OJICUG_clean_linker_0, # of connection points: 2
#     Edge 157, Type (0, 0), BuildingBlock: OJICUG_clean_linker_0, # of connection points: 2
#     Edge 158, Type (0, 0), BuildingBlock: OJICUG_clean_linker_0, # of connection points: 2
#     Edge 159, Type (0, 0), BuildingBlock: OJICUG_clean_linker_0, # of connection points: 2
#     Edge 160, Type (0, 0), BuildingBlock: OJICUG_clean_linker_0, # of connection points: 2
#     Edge 161, Type (0, 0), BuildingBlock: OJICUG_clean_linker_0, # of connection points: 2
#     Edge 162, Type (0, 0), BuildingBlock: OJICUG_clean_linker_0, # of connection points: 2
#     Edge 163, Type (0, 0), BuildingBlock: OJICUG_clean_linker_0, # of connection points: 2
#     Edge 164, Type (0, 0), BuildingBlock: OJICUG_clean_linker_0, # of connection points: 2
#     Edge 165, Type (0, 0), BuildingBlock: OJICUG_clean_linker_0, # of connection points: 2
#     Edge 166, Type (0, 0), BuildingBlock: OJICUG_clean_linker_0, # of connection points: 2
#     Edge 167, Type (0, 0), BuildingBlock: OJICUG_clean_linker_0, # of connection points: 2
# Relax obj value: 0.234
# Max RMSD: 0.186
# Mean RMSD: 0.181
data_MOF--net-ubt--node1-XOMCOT_clean_sbu_1--edge1-OJICUG_clean_linker_0
_symmetry_space_group_name_H-M    P1
_symmetry_Int_Tables_number       1
_symmetry_cell_setting            triclinic
loop_
_symmetry_equiv_pos_as_xyz
'x, y, z'
_cell_length_a     54.157724
_cell_length_b     54.725903
_cell_length_c     54.169804
_cell_angle_alpha  89.861883
_cell_angle_beta   90.57331
_cell_angle_gamma 91.755323
loop_
_atom_site_label
_atom_site_type_symbol
_atom_site_fract_x
_atom_site_fract_y
_atom_site_fract_z
_atom_type_partial_charge
C0 C 0.99186 0.20695 0.15791 0.0
C1 C 0.97253 0.20886 0.14126 0.0
N2 N 0.96849 0.18689 0.13043 0.0
N3 N 0.99985 0.18388 0.15738 0.0
C4 C 0.98506 0.17213 0.14077 0.0
H5 H 1.00052 0.22172 0.16838 0.0
Co6 Co 0.02843 0.17012 0.16958 0.0
C7 C 0.00922 0.12492 0.19372 0.0
O8 O 0.0259 0.12782 0.21133 0.0
N9 N 0.05705 0.1547 0.18077 0.0
C10 C 0.08968 0.14001 0.20049 0.0
C11 C 0.07351 0.15893 0.19936 0.0
C12 C 0.06408 0.13342 0.17068 0.0
N13 N 0.08364 0.12412 0.18235 0.0
O14 O 0.03687 0.16127 0.13654 0.0
H15 H 0.07349 0.17405 0.21207 0.0
H16 H 0.05404 0.12401 0.15597 0.0
O17 O 0.00878 0.14009 0.17576 0.0
C18 C 0.04647 0.18133 0.12842 0.0
O19 O 0.04613 0.20072 0.14264 0.0
N20 N 0.02243 0.18305 0.20095 0.0
C21 C 0.01946 0.21306 0.24235 0.0
C22 C 1.00316 0.19274 0.2394 0.0
C23 C 1.00459 0.17814 0.21811 0.0
C24 C 0.03783 0.20304 0.20352 0.0
C25 C 0.03698 0.21795 0.22411 0.0
H26 H 0.9909 0.16367 0.21516 0.0
H27 H 0.05113 0.2074 0.18932 0.0
H28 H 0.98782 0.15357 0.13478 0.0
H29 H 0.96292 0.22536 0.13676 0.0
H30 H 0.10434 0.13776 0.21395 0.0
H31 H 0.98883 0.18891 0.25279 0.0
H32 H 0.04974 0.23354 0.22553 0.0
C33 C 0.89772 0.03673 0.22983 0.0
C34 C 0.91534 0.05517 0.23281 0.0
N35 N 0.9257 0.05987 0.21074 0.0
N36 N 0.89692 0.02981 0.20593 0.0
C37 C 0.91404 0.04444 0.19476 0.0
H38 H 0.8873 0.02816 0.24454 0.0
Co39 Co 0.88082 0.0026 0.19126 0.0
C40 C 0.85545 0.0236 0.14676 0.0
O41 O 0.83816 0.00624 0.14737 0.0
N42 N 0.86545 0.97512 0.17606 0.0
C43 C 0.84368 0.94092 0.16796 0.0
C44 C 0.84707 0.95994 0.18417 0.0
C45 C 0.87271 0.96483 0.1547 0.0
N46 N 0.85996 0.94391 0.14953 0.0
O47 O 0.91171 0.99295 0.17743 0.0
H48 H 0.83676 0.96194 0.20089 0.0
H49 H 0.88754 0.97222 0.14341 0.0
O50 O 0.87295 0.02369 0.16281 0.0
C51 C 0.92317 0.98227 0.19494 0.0
O52 O 0.91401 0.98323 0.21727 0.0
N53 N 0.85153 0.00932 0.20816 0.0
C54 C 0.81078 0.00621 0.23959 0.0
C55 C 0.81027 0.02088 0.21817 0.0
C56 C 0.83108 0.02242 0.2027 0.0
C57 C 0.85254 0.99602 0.2294 0.0
C58 C 0.83249 0.99394 0.24506 0.0
H59 H 0.83044 0.03385 0.1865 0.0
H60 H 0.86877 0.98569 0.2335 0.0
H61 H 0.91909 0.0426 0.17558 0.0
H62 H 0.9207 0.06384 0.25007 0.0
H63 H 0.83028 0.92595 0.16972 0.0
H64 H 0.79408 0.03113 0.21351 0.0
H65 H 0.83386 0.98208 0.26101 0.0
C66 C 1.00464 0.86917 0.2109 0.0
C67 C 0.99056 0.88896 0.21621 0.0
N68 N 0.98509 0.90049 0.19489 0.0
N69 N 0.00788 0.86811 0.18631 0.0
C70 C 0.99564 0.88733 0.17704 0.0
H71 H 0.01301 0.85713 0.2242 0.0
Co72 Co 0.02981 0.84895 0.16933 0.0
C73 C 1.00088 0.82762 0.12834 0.0
O74 O 0.01298 0.8075 0.13217 0.0
N75 N 0.05277 0.83069 0.15105 0.0
C76 C 0.08015 0.80536 0.13559 0.0
C77 C 0.06465 0.80962 0.15507 0.0
C78 C 0.06161 0.83876 0.12904 0.0
N79 N 0.07831 0.82388 0.11935 0.0
O80 O 0.04618 0.8784 0.15786 0.0
H81 H 0.06247 0.79785 0.17094 0.0
H82 H 0.05559 0.85521 0.11997 0.0
O83 O 0.00619 0.84666 0.14137 0.0
C84 C 0.06269 0.88088 0.17481 0.0
O85 O 0.06261 0.86482 0.19289 0.0
N86 N 0.01584 0.82079 0.18469 0.0
C87 C 0.99897 0.78582 0.21871 0.0
C88 C 0.98319 0.79413 0.20002 0.0
C89 C 0.9918 0.81228 0.18355 0.0
C90 C 0.03105 0.81298 0.20309 0.0
C91 C 0.02312 0.79543 0.22009 0.0
H92 H 0.97879 0.82022 0.17087 0.0
H93 H 0.04938 0.8211 0.20518 0.0
H94 H 0.99592 0.89253 0.15774 0.0
H95 H 0.98535 0.89481 0.23446 0.0
H96 H 0.09219 0.79006 0.13374 0.0
H97 H 0.96417 0.78748 0.19888 0.0
H98 H 0.0357 0.78965 0.23449 0.0
C99 C 0.16489 0.9829 0.20066 0.0
C100 C 0.14941 0.96301 0.20513 0.0
N101 N 0.13651 0.95779 0.18426 0.0
N102 N 0.16187 0.99 0.17701 0.0
C103 C 0.1444 0.97447 0.16759 0.0
H104 H 0.1772 0.99182 0.2139 0.0
Co105 Co 0.17608 0.01635 0.16004 0.0
C106 C 0.19611 0.99315 0.11554 0.0
O107 O 0.21548 0.00814 0.11704 0.0
N108 N 0.18962 0.04292 0.14178 0.0
C109 C 0.21212 0.07329 0.12507 0.0
C110 C 0.21073 0.05669 0.14409 0.0
C111 C 0.1786 0.05176 0.12119 0.0
N112 N 0.19186 0.07014 0.11079 0.0
O113 O 0.14373 0.02703 0.15133 0.0
H114 H 0.22479 0.05479 0.1581 0.0
H115 H 0.16154 0.04432 0.11334 0.0
O116 O 0.1787 0.99493 0.13115 0.0
C117 C 0.1378 0.03833 0.17095 0.0
O118 O 0.15245 0.03691 0.19035 0.0
N119 N 0.20705 0.00835 0.17274 0.0
C120 C 0.24635 1.00097 0.20512 0.0
C121 C 0.24109 0.9842 0.18603 0.0
C122 C 0.22089 0.98805 0.17007 0.0
C123 C 0.21209 0.02445 0.19138 0.0
C124 C 0.23184 0.02143 0.20737 0.0
H125 H 0.2156 0.97411 0.1568 0.0
H126 H 0.20017 0.03966 0.19419 0.0
H127 H 0.13759 0.97544 0.14877 0.0
H128 H 0.14744 0.95349 0.22257 0.0
H129 H 0.22691 0.08668 0.12197 0.0
H130 H 0.25148 0.96769 0.18445 0.0
H131 H 0.23503 0.03443 0.22221 0.0
C132 C 0.02847 0.87999 0.81597 0.0
C133 C 0.04496 0.89836 0.80929 0.0
N134 N 0.05294 0.91 0.82989 0.0
N135 N 0.02608 0.87987 0.84075 0.0
C136 C 0.04134 0.89831 0.8487 0.0
H137 H 0.01816 0.86825 0.80334 0.0
Co138 Co 1.00325 0.86155 0.85969 0.0
C139 C 0.03406 0.8386 0.89872 0.0
O140 O 0.01952 0.81898 0.89765 0.0
N141 N 0.97995 0.84358 0.87926 0.0
C142 C 0.95368 0.81559 0.89489 0.0
C143 C 0.96884 0.82136 0.87548 0.0
C144 C 0.9709 0.85084 0.90127 0.0
N145 N 0.95495 0.83415 0.91106 0.0
O146 O 0.99234 0.89124 0.8745 0.0
H147 H 0.97176 0.80936 0.86013 0.0
H148 H 0.97644 0.86769 0.91043 0.0
O149 O 0.02946 0.85697 0.88488 0.0
C150 C 0.97774 0.89974 0.85812 0.0
O151 O 0.97583 0.88842 0.83679 0.0
N152 N 0.01096 0.83343 0.84191 0.0
C153 C 0.01363 0.79607 0.80721 0.0
C154 C 0.03234 0.79945 0.82518 0.0
C155 C 0.03093 0.81874 0.8422 0.0
C156 C 0.99307 0.83048 0.8242 0.0
C157 C 0.99388 0.81189 0.80693 0.0
H158 H 0.04612 0.82215 0.85489 0.0
H159 H 0.9778 0.84272 0.82367 0.0
H160 H 0.04281 0.9039 0.86783 0.0
H161 H 0.05024 0.9031 0.79063 0.0
H162 H 0.94257 0.79894 0.89698 0.0
H163 H 0.04826 0.78795 0.82541 0.0
H164 H 0.9792 0.81002 0.79327 0.0
C165 C 0.20218 0.98817 0.86572 0.0
C166 C 0.20758 0.96958 0.88194 0.0
N167 N 0.18739 0.96438 0.89564 0.0
N168 N 0.17865 0.99464 0.86915 0.0
C169 C 0.17011 0.9796 0.88722 0.0
H170 H 0.21494 0.99705 0.85309 0.0
Co171 Co 0.16091 0.02099 0.85667 0.0
C172 C 0.11774 0.99536 0.83331 0.0
O173 O 0.1181 0.01079 0.81469 0.0
N174 N 0.14148 0.04703 0.84485 0.0
C175 C 0.12329 0.07619 0.8231 0.0
C176 C 0.14321 0.06128 0.82442 0.0
C177 C 0.12025 0.05396 0.85561 0.0
N178 N 0.10895 0.07158 0.84277 0.0
O179 O 0.15057 0.02833 0.88936 0.0
H180 H 0.15723 0.06049 0.8105 0.0
H181 H 0.11242 0.04538 0.87188 0.0
O182 O 0.13357 0.99789 0.85077 0.0
C183 C 0.16983 0.0388 0.89881 0.0
O184 O 0.19037 0.03942 0.8861 0.0
N185 N 0.17521 0.0169 0.82562 0.0
C186 C 0.20848 0.01963 0.78646 0.0
C187 C 0.19005 1.00086 0.78735 0.0
C188 C 0.1736 0.99961 0.80746 0.0
C189 C 0.19313 0.03488 0.82487 0.0
C190 C 0.20934 0.03698 0.80536 0.0
H191 H 0.16045 0.98443 0.80883 0.0
H192 H 0.19463 0.04806 0.83967 0.0
H193 H 0.15192 0.98092 0.89511 0.0
H194 H 0.22525 0.96104 0.88386 0.0
H195 H 0.11932 0.08908 0.8085 0.0
H196 H 0.18911 0.98677 0.77334 0.0
H197 H 0.22292 0.05193 0.80545 0.0
C198 C 0.96542 0.144 0.82064 0.0
C199 C 0.94876 0.12482 0.81733 0.0
N200 N 0.9447 0.11413 0.8394 0.0
N201 N 0.97178 0.14553 0.84474 0.0
C202 C 0.95875 0.12713 0.85572 0.0
H203 H 0.97325 0.15523 0.8061 0.0
Co204 Co 0.99695 0.16503 0.85908 0.0
C205 C 0.97425 0.18611 0.9039 0.0
O206 O 0.98761 0.20624 0.90045 0.0
N207 N 0.02294 0.18412 0.87394 0.0
C208 C 0.05176 0.21245 0.88392 0.0
C209 C 0.03318 0.20606 0.86749 0.0
C210 C 0.03593 0.17762 0.89436 0.0
N211 N 0.05351 0.19449 0.90077 0.0
O212 O 0.01239 0.13594 0.87115 0.0
H213 H 0.02765 0.21718 0.85207 0.0
H214 H 0.03221 0.16103 0.90475 0.0
O215 O 0.97632 0.16821 0.88892 0.0
C216 C 0.02432 0.12879 0.85237 0.0
O217 O 0.02202 0.14103 0.83162 0.0
N218 N 0.9839 0.19266 0.8434 0.0
C219 C 0.97071 0.22912 0.81004 0.0
C220 C 0.95716 0.22519 0.83178 0.0
C221 C 0.96368 0.20625 0.84804 0.0
C222 C 0.99679 0.19622 0.82214 0.0
C223 C 0.99057 0.21423 0.80531 0.0
H224 H 0.95223 0.20239 0.86383 0.0
H225 H 0.01227 0.1849 0.81826 0.0
H226 H 0.96075 0.1224 0.87504 0.0
H227 H 0.94079 0.11878 0.7999 0.0
H228 H 0.06328 0.22895 0.88335 0.0
H229 H 0.94147 0.23625 0.83583 0.0
H230 H 1.00156 0.21676 0.78884 0.0
C231 C 0.80053 0.03584 0.89188 0.0
C232 C 0.7962 0.05394 0.90886 0.0
N233 N 0.81767 0.05989 0.92054 0.0
N234 N 0.82463 0.03041 0.89291 0.0
C235 C 0.83457 0.04555 0.91028 0.0
H236 H 0.78674 0.02627 0.88068 0.0
Co237 Co 0.841 0.00412 0.87929 0.0
C238 C 0.88397 0.02767 0.85474 0.0
O239 O 0.88162 0.01172 0.83669 0.0
N240 N 0.85869 0.97758 0.86667 0.0
C241 C 0.87355 0.94599 0.8463 0.0
C242 C 0.85363 0.96072 0.84892 0.0
C243 C 0.88163 0.97209 0.87489 0.0
N244 N 0.891 0.95314 0.86275 0.0
O245 O 0.85303 0.99577 0.91133 0.0
H246 H 0.83699 0.95912 0.83794 0.0
H247 H 0.89184 0.98258 0.88874 0.0
O248 O 0.86915 0.0264 0.87294 0.0
C249 C 0.83504 0.98464 0.92196 0.0
O250 O 0.81348 0.98338 0.9106 0.0
N251 N 0.82602 0.01027 0.84837 0.0
C252 C 0.79814 0.0123 0.80485 0.0
C253 C 0.81565 0.03094 0.81061 0.0
C254 C 0.82936 0.0297 0.83272 0.0
C255 C 0.80742 0.99345 0.84398 0.0
C256 C 0.79383 0.99362 0.82201 0.0
H257 H 0.84214 0.04455 0.83734 0.0
H258 H 0.80356 0.9793 0.8575 0.0
H259 H 0.85352 0.04464 0.9167 0.0
H260 H 0.77843 0.06139 0.91299 0.0
H261 H 0.87533 0.93143 0.83299 0.0
H262 H 0.81865 0.04625 0.79818 0.0
H263 H 0.77972 0.97952 0.81869 0.0
C264 C 0.20667 0.15117 0.97723 0.0
C265 C 0.2089 0.13059 0.9629 0.0
N266 N 0.18608 0.12075 0.95879 0.0
N267 N 0.18256 0.1541 0.98193 0.0
C268 C 0.17055 0.13552 0.97024 0.0
H269 H 0.22166 0.16217 0.98516 0.0
Co270 Co 0.16771 0.17264 0.00557 0.0
C271 C 0.12571 0.19386 0.97939 0.0
O272 O 0.13145 0.21462 0.99047 0.0
N273 N 0.15129 0.19042 0.02991 0.0
C274 C 0.13688 0.21538 0.05844 0.0
C275 C 0.15565 0.21178 0.04199 0.0
C276 C 0.12973 0.18168 0.03936 0.0
N277 N 0.12076 0.19626 0.05676 0.0
O278 O 0.15616 0.1428 0.02097 0.0
H279 H 0.17123 0.22421 0.03929 0.0
H280 H 0.12038 0.16496 0.03332 0.0
O281 O 0.13855 0.17507 0.98382 0.0
C282 C 0.17511 0.13782 0.03407 0.0
O283 O 0.1943 0.1531 0.03365 0.0
N284 N 0.18332 0.20072 0.99249 0.0
C285 C 0.21997 0.234 0.97715 0.0
C286 C 0.20084 0.22672 0.96085 0.0
C287 C 0.18269 0.20957 0.96884 0.0
C288 C 0.2022 0.20747 0.00806 0.0
C289 C 0.22034 0.22437 1.00099 0.0
H290 H 0.16921 0.20243 0.95568 0.0
H291 H 0.20372 0.1989 0.02597 0.0
H292 H 0.15094 0.13157 0.97207 0.0
H293 H 0.226 0.12291 0.95687 0.0
H294 H 0.13549 0.23057 0.07107 0.0
H295 H 0.20048 0.23346 0.94204 0.0
H296 H 0.23515 0.22925 0.01384 0.0
C297 C 0.21802 0.87832 0.03173 0.0
C298 C 0.22356 0.897 0.04803 0.0
N299 N 0.20244 0.908 0.05379 0.0
N300 N 0.19348 0.87741 0.02729 0.0
C301 C 0.18447 0.89565 0.04107 0.0
H302 H 0.23121 0.86686 0.0229 0.0
Co303 Co 0.1763 0.85872 1.00348 0.0
C304 C 0.13448 0.83581 0.03014 0.0
O305 O 0.13782 0.8162 0.01679 0.0
N306 N 0.15804 0.84082 0.97883 0.0
C307 C 0.14273 0.81495 0.95039 0.0
C308 C 0.16221 0.81999 0.96635 0.0
C309 C 0.13597 0.8481 0.96973 0.0
N310 N 0.12629 0.83276 0.95248 0.0
O311 O 0.16488 0.88839 0.9887 0.0
H312 H 0.17808 0.80875 0.96859 0.0
H313 H 0.12673 0.8641 0.97618 0.0
O314 O 0.14809 0.85504 0.02637 0.0
C315 C 0.18285 0.89442 0.97455 0.0
O316 O 0.20239 0.88075 0.97479 0.0
N317 N 0.19146 0.83039 0.01598 0.0
C318 C 0.22483 0.79518 0.03143 0.0
C319 C 0.2056 0.80212 0.04687 0.0
C320 C 0.18953 0.82038 0.0391 0.0
C321 C 0.21036 0.82403 1.00109 0.0
C322 C 0.22705 0.80642 0.0083 0.0
H323 H 0.17649 0.82713 0.05217 0.0
H324 H 0.21297 0.83332 0.98363 0.0
H325 H 0.1653 0.9007 0.04061 0.0
H326 H 0.24183 0.90243 0.05464 0.0
H327 H 0.14088 0.79945 0.93806 0.0
H328 H 0.20371 0.7943 0.06517 0.0
H329 H 0.24174 0.80176 0.99589 0.0
C330 C 0.86923 0.20254 1.00257 0.0
C331 C 0.88499 0.20873 0.9836 0.0
N332 N 0.89681 0.18857 0.97661 0.0
N333 N 0.87096 0.17851 0.00759 0.0
C334 C 0.88782 0.1705 0.99138 0.0
H335 H 0.85792 0.21498 0.01261 0.0
Co336 Co 0.8567 0.1603 0.03378 0.0
C337 C 0.83171 0.11902 0.00781 0.0
O338 O 0.81317 0.12065 0.02309 0.0
N339 N 0.84307 0.14071 0.0602 0.0
C340 C 0.81911 0.12261 0.08867 0.0
C341 C 0.82127 0.14169 0.0722 0.0
C342 C 0.85374 0.12068 0.07014 0.0
N343 N 0.83957 0.10943 0.08741 0.0
O344 O 0.88905 0.1502 0.0433 0.0
H345 H 0.80699 0.15458 0.06875 0.0
H346 H 0.87118 0.11375 0.06415 0.0
O347 O 0.85071 0.13328 0.01048 0.0
C348 C 0.89631 0.16902 0.05572 0.0
O349 O 0.88167 0.18766 0.05697 0.0
N350 N 0.82612 0.17461 0.02715 0.0
C351 C 0.78842 0.20807 0.02254 0.0
C352 C 0.79177 0.19037 1.00419 0.0
C353 C 0.81123 0.17397 0.0066 0.0
C354 C 0.82291 0.19184 0.04487 0.0
C355 C 0.80409 0.20841 0.04313 0.0
H356 H 0.81503 0.16188 0.99147 0.0
H357 H 0.83543 0.19298 0.06049 0.0
H358 H 0.89431 0.15199 0.99131 0.0
H359 H 0.88785 0.22684 0.97587 0.0
H360 H 0.80349 0.11855 0.10048 0.0
H361 H 0.78044 0.19017 0.9876 0.0
H362 H 0.80233 0.22201 0.05748 0.0
C363 C 0.81607 0.87634 0.01191 0.0
C364 C 0.81095 0.8971 0.99872 0.0
N365 N 0.8325 0.90768 0.99141 0.0
N366 N 0.8407 0.87372 0.01261 0.0
C367 C 0.85022 0.89305 1.00005 0.0
H368 H 0.80276 0.86431 0.02096 0.0
Co369 Co 0.85807 0.85145 0.03083 0.0
C370 C 0.896 0.83324 0.99832 0.0
O371 O 0.89047 0.81155 0.00753 0.0
N372 N 0.8767 0.82966 0.05036 0.0
C373 C 0.89222 0.80148 0.07542 0.0
C374 C 0.87201 0.80776 0.06128 0.0
C375 C 0.89982 0.83606 0.05818 0.0
N376 N 0.90953 0.81955 0.07357 0.0
O377 O 0.87291 0.87813 0.04895 0.0
H378 H 0.85503 0.79704 0.05969 0.0
H379 H 0.9095 0.85276 0.05268 0.0
O380 O 0.88439 0.85185 0.00581 0.0
C381 C 0.85937 0.87868 0.06806 0.0
O382 O 0.84056 0.86301 0.06961 0.0
N383 N 0.84005 0.82597 0.01477 0.0
C384 C 0.8003 0.79856 0.99479 0.0
C385 C 0.81912 0.80785 0.9795 0.0
C386 C 0.83861 0.82211 0.98981 0.0
C387 C 0.82204 0.8166 0.02974 0.0
C388 C 0.80223 0.80268 0.02024 0.0
H389 H 0.8513 0.83144 0.97749 0.0
H390 H 0.82204 0.82146 0.04907 0.0
H391 H 0.86984 0.89686 0.99824 0.0
H392 H 0.79273 0.90384 0.99488 0.0
H393 H 0.89371 0.78533 0.08685 0.0
H394 H 0.81792 0.80547 0.95968 0.0
H395 H 0.78798 0.79598 0.03264 0.0
C396 C 0.99154 0.7173 0.6415 0.0
C397 C 0.97354 0.71942 0.62348 0.0
N398 N 0.96927 0.69724 0.6132 0.0
N399 N 0.9985 0.69388 0.6424 0.0
C400 C 0.98438 0.68214 0.62521 0.0
H401 H 1.00006 0.73212 0.65202 0.0
Co402 Co 0.0254 0.67955 0.65751 0.0
C403 C 1.00241 0.63596 0.68201 0.0
O404 O 0.01845 0.63799 0.70031 0.0
N405 N 0.05235 0.66373 0.67176 0.0
C406 C 0.08323 0.64991 0.69471 0.0
C407 C 0.06766 0.66902 0.69102 0.0
C408 C 0.05947 0.64162 0.6638 0.0
N409 N 0.07797 0.63279 0.67751 0.0
O410 O 0.03575 0.66823 0.62585 0.0
H411 H 0.06732 0.68518 0.70234 0.0
H412 H 0.05028 0.63146 0.64907 0.0
O413 O 1.00385 0.65083 0.66381 0.0
C414 C 0.04692 0.68718 0.61703 0.0
O415 O 0.04629 0.70769 0.62954 0.0
N416 N 0.01782 0.69449 0.68755 0.0
C417 C 0.01491 0.72542 0.7282 0.0
C418 C 0.99855 0.70511 0.7257 0.0
C419 C 0.99992 0.69006 0.70476 0.0
C420 C 0.03312 0.71463 0.68954 0.0
C421 C 0.03218 0.73011 0.7097 0.0
H422 H 0.98633 0.67544 0.70231 0.0
H423 H 0.04663 0.71845 0.67541 0.0
H424 H 0.98667 0.66323 0.62014 0.0
H425 H 0.96504 0.73617 0.6177 0.0
H426 H 0.09707 0.64849 0.70916 0.0
H427 H 0.9844 0.70144 0.73932 0.0
H428 H 0.04497 0.7457 0.71081 0.0
C429 C 0.88105 0.56084 0.71565 0.0
C430 C 0.89979 0.57818 0.71858 0.0
N431 N 0.91207 0.58027 0.69716 0.0
N432 N 0.88152 0.55195 0.69242 0.0
C433 C 0.90045 0.56444 0.68158 0.0
H434 H 0.86901 0.55426 0.73013 0.0
Co435 Co 0.86514 0.52441 0.6784 0.0
C436 C 0.84411 0.54443 0.63087 0.0
O437 O 0.8259 0.52801 0.6306 0.0
N438 N 0.84958 0.49677 0.66381 0.0
C439 C 0.82562 0.46413 0.65524 0.0
C440 C 0.83018 0.48279 0.67165 0.0
C441 C 0.85673 0.4858 0.64276 0.0
N442 N 0.84232 0.46605 0.63708 0.0
O443 O 0.8963 0.51256 0.6675 0.0
H444 H 0.81977 0.48559 0.68819 0.0
H445 H 0.87186 0.49251 0.63145 0.0
O446 O 0.8602 0.54425 0.64833 0.0
C447 C 0.90588 0.50318 0.68685 0.0
O448 O 0.89505 0.50646 0.70812 0.0
N449 N 0.83515 0.53316 0.69283 0.0
C450 C 0.79248 0.53158 0.72153 0.0
C451 C 0.79294 0.54421 0.69885 0.0
C452 C 0.81474 0.54507 0.68477 0.0
C453 C 0.83502 0.52173 0.7152 0.0
C454 C 0.81408 0.52064 0.72968 0.0
H455 H 0.81482 0.55484 0.6675 0.0
H456 H 0.85105 0.51204 0.72126 0.0
H457 H 0.90679 0.56062 0.66314 0.0
H458 H 0.90463 0.58778 0.73549 0.0
H459 H 0.81127 0.45 0.65671 0.0
H460 H 0.77671 0.55332 0.69214 0.0
H461 H 0.81463 0.51045 0.74684 0.0
C462 C 0.97912 0.38918 0.72321 0.0
C463 C 0.96491 0.40955 0.72497 0.0
N464 N 0.96179 0.4189 0.70212 0.0
N465 N 0.98483 0.38577 0.69934 0.0
C466 C 0.97378 0.40397 0.68695 0.0
H467 H 0.98617 0.37861 0.73847 0.0
Co468 Co 0.00862 0.36614 0.68594 0.0
C469 C 0.98298 0.34147 0.64445 0.0
O470 O 0.99484 0.32161 0.65016 0.0
N471 N 0.03311 0.34738 0.671 0.0
C472 C 0.06137 0.32128 0.65906 0.0
C473 C 0.04528 0.32712 0.67757 0.0
C474 C 0.04246 0.35351 0.64861 0.0
N475 N 0.05958 0.33803 0.64094 0.0
O476 O 0.02486 0.39487 0.67292 0.0
H477 H 0.04273 0.3169 0.69444 0.0
H478 H 0.03624 0.36874 0.63764 0.0
O479 O 0.98717 0.36109 0.65686 0.0
C480 C 0.03785 0.40209 0.69148 0.0
O481 O 0.03602 0.38968 0.71222 0.0
N482 N 0.99457 0.3389 0.70272 0.0
C483 C 0.97766 0.30505 0.73795 0.0
C484 C 0.96295 0.31067 0.71733 0.0
C485 C 0.97145 0.32832 0.70024 0.0
C486 C 0.00867 0.33391 0.72297 0.0
C487 C 1.00073 0.31699 0.74063 0.0
H488 H 0.95903 0.33402 0.68578 0.0
H489 H 0.02617 0.3436 0.72572 0.0
H490 H 0.97627 0.40742 0.66743 0.0
H491 H 0.95829 0.41746 0.74186 0.0
H492 H 0.07358 0.30598 0.65902 0.0
H493 H 0.94475 0.3022 0.71496 0.0
H494 H 0.01263 0.31327 0.7563 0.0
C495 C 0.15174 0.49139 0.71122 0.0
C496 C 0.13298 0.47487 0.71705 0.0
N497 N 0.11993 0.46961 0.69627 0.0
N498 N 0.15049 0.49636 0.68687 0.0
C499 C 0.13106 0.48277 0.67832 0.0
H500 H 0.16489 0.49976 0.72402 0.0
Co501 Co 0.16786 0.51917 0.66784 0.0
C502 C 0.18665 0.48913 0.62731 0.0
O503 O 0.20738 0.50223 0.62805 0.0
N504 N 0.18458 0.54212 0.64739 0.0
C505 C 0.21045 0.56814 0.6283 0.0
C506 C 0.20698 0.55377 0.64887 0.0
C507 C 0.17496 0.54988 0.62568 0.0
N508 N 0.19023 0.56565 0.61385 0.0
O509 O 0.13706 0.53202 0.6567 0.0
H510 H 0.22048 0.55188 0.66344 0.0
H511 H 0.15732 0.54356 0.61818 0.0
O512 O 0.169 0.49449 0.64163 0.0
C513 C 0.13202 0.54602 0.67472 0.0
O514 O 0.14657 0.546 0.69428 0.0
N515 N 0.19734 0.50951 0.68261 0.0
C516 C 0.23562 0.5021 0.71609 0.0
C517 C 0.22857 0.48369 0.69919 0.0
C518 C 0.20891 0.48765 0.68263 0.0
C519 C 0.20381 0.52706 0.69946 0.0
C520 C 0.22314 0.52397 0.71595 0.0
H521 H 0.20226 0.47281 0.67101 0.0
H522 H 0.19355 0.54366 0.70026 0.0
H523 H 0.12447 0.48351 0.65941 0.0
H524 H 0.12909 0.46759 0.73523 0.0
H525 H 0.22652 0.57969 0.62436 0.0
H526 H 0.23728 0.46614 0.69965 0.0
H527 H 0.22765 0.53822 0.72926 0.0
C528 C 0.03432 0.36776 0.32627 0.0
C529 C 0.05274 0.38452 0.32022 0.0
N530 N 0.05998 0.39649 0.34089 0.0
N531 N 0.02995 0.36904 0.35071 0.0
C532 C 0.04597 0.38664 0.35911 0.0
H533 H 0.02413 0.35618 0.31339 0.0
Co534 Co 1.00434 0.35345 0.3685 0.0
C535 C 0.02978 0.33041 0.41094 0.0
O536 O 0.01412 0.3117 0.40893 0.0
N537 N 0.97834 0.33842 0.38704 0.0
C538 C 0.94868 0.31393 0.40257 0.0
C539 C 0.96471 0.31755 0.38334 0.0
C540 C 0.96982 0.34717 0.40868 0.0
N541 N 0.95189 0.33262 0.41842 0.0
O542 O 0.99428 0.38467 0.38044 0.0
H543 H 0.96641 0.30502 0.3682 0.0
H544 H 0.97726 0.36343 0.41771 0.0
O545 O 0.02787 0.34858 0.39615 0.0
C546 C 0.98158 0.39286 0.36237 0.0
O547 O 0.98123 0.38057 0.34156 0.0
N548 N 0.01142 0.32376 0.35315 0.0
C549 C 0.01484 0.28492 0.32018 0.0
C550 C 0.03243 0.28829 0.33925 0.0
C551 C 0.03069 0.3083 0.35539 0.0
C552 C 0.99463 0.32076 0.33443 0.0
C553 C 0.99573 0.30139 0.31809 0.0
H554 H 0.0452 0.31173 0.36885 0.0
H555 H 0.98007 0.33368 0.33224 0.0
H556 H 0.04638 0.39302 0.37801 0.0
H557 H 0.05987 0.38796 0.30191 0.0
H558 H 0.93573 0.29864 0.40483 0.0
H559 H 0.04791 0.27631 0.34091 0.0
H560 H 0.98191 0.29959 0.30355 0.0
C561 C 0.21269 0.4649 0.38495 0.0
C562 C 0.21638 0.44709 0.40252 0.0
N563 N 0.19533 0.44362 0.41529 0.0
N564 N 0.18939 0.47276 0.38667 0.0
C565 C 0.17921 0.45912 0.40506 0.0
H566 H 0.22665 0.47249 0.37281 0.0
Co567 Co 0.17451 0.50008 0.3719 0.0
C568 C 0.13073 0.47713 0.34645 0.0
O569 O 0.13271 0.49259 0.32792 0.0
N570 N 0.15834 0.52718 0.35778 0.0
C571 C 0.14642 0.55862 0.33483 0.0
C572 C 0.16488 0.54242 0.33908 0.0
C573 C 0.13587 0.53498 0.36477 0.0
N574 N 0.12826 0.55397 0.35105 0.0
O575 O 0.1619 0.50945 0.40317 0.0
H576 H 0.18157 0.54177 0.32848 0.0
H577 H 0.12476 0.5262 0.37893 0.0
O578 O 0.14606 0.47863 0.36447 0.0
C579 C 0.18058 0.51879 0.41473 0.0
O580 O 0.20267 0.51588 0.40558 0.0
N581 N 0.1908 0.49401 0.34219 0.0
C582 C 0.22524 0.49552 0.30398 0.0
C583 C 0.2045 0.47929 0.30292 0.0
C584 C 0.18749 0.47856 0.32256 0.0
C585 C 0.21106 0.50932 0.34346 0.0
C586 C 0.22811 0.51069 0.3246 0.0
H587 H 0.17217 0.46548 0.32205 0.0
H588 H 0.21364 0.5212 0.35925 0.0
H589 H 0.16085 0.46184 0.41207 0.0
H590 H 0.23356 0.43811 0.40624 0.0
H591 H 0.14614 0.57254 0.32059 0.0
H592 H 0.20186 0.46691 0.28749 0.0
H593 H 0.24351 0.52371 0.32624 0.0
C594 C 0.9881 0.62709 0.30805 0.0
C595 C 0.97049 0.60874 0.30488 0.0
N596 N 0.96342 0.60071 0.32733 0.0
N597 N 0.99203 0.63076 0.3324 0.0
C598 C 0.97669 0.61442 0.3437 0.0
H599 H 0.99809 0.6364 0.29346 0.0
Co600 Co 0.01658 0.65079 0.34675 0.0
C601 C 0.9922 0.67603 0.38804 0.0
O602 O 0.00625 0.69539 0.38315 0.0
N603 N 0.04204 0.67045 0.36158 0.0
C604 C 0.07114 0.69853 0.37144 0.0
C605 C 0.05387 0.69123 0.35396 0.0
C606 C 0.05281 0.66548 0.38365 0.0
N607 N 0.07048 0.68223 0.39004 0.0
O608 O 0.03087 0.62238 0.36186 0.0
H609 H 0.05034 0.70091 0.33701 0.0
H610 H 0.04738 0.65013 0.39522 0.0
O611 O 0.99447 0.6566 0.37514 0.0
C612 C 0.04449 0.61402 0.34488 0.0
O613 O 0.04411 0.62489 0.32323 0.0
N614 N 1.00462 0.67745 0.32853 0.0
C615 C 0.99232 0.71186 0.29265 0.0
C616 C 0.97756 0.70843 0.31362 0.0
C617 C 0.98363 0.69047 0.3311 0.0
C618 C 0.01859 0.68028 0.30787 0.0
C619 C 0.01287 0.69734 0.28982 0.0
H620 H 0.97114 0.68681 0.34612 0.0
H621 H 0.03446 0.66906 0.30542 0.0
H622 H 0.97626 0.61174 0.36349 0.0
H623 H 0.9638 0.60153 0.28739 0.0
H624 H 0.08346 0.71445 0.37039 0.0
H625 H 0.96124 0.71906 0.31612 0.0
H626 H 0.02472 0.69943 0.27391 0.0
C627 C 0.80924 0.53791 0.37636 0.0
C628 C 0.80515 0.55743 0.39169 0.0
N629 N 0.82633 0.56312 0.40398 0.0
N630 N 0.83291 0.53131 0.37903 0.0
C631 C 0.84286 0.54722 0.39569 0.0
H632 H 0.79541 0.5282 0.36534 0.0
Co633 Co 0.84817 0.50289 0.3687 0.0
C634 C 0.8938 0.5214 0.34455 0.0
O635 O 0.89168 0.50384 0.32809 0.0
N636 N 0.86455 0.47435 0.35942 0.0
C637 C 0.87835 0.44065 0.34199 0.0
C638 C 0.85931 0.45672 0.34252 0.0
C639 C 0.88659 0.46804 0.36929 0.0
N640 N 0.89534 0.44779 0.35895 0.0
O641 O 0.85858 0.4969 0.40186 0.0
H642 H 0.84328 0.4557 0.33059 0.0
H643 H 0.89682 0.47894 0.38281 0.0
O644 O 0.87774 0.52289 0.36156 0.0
C645 C 0.83962 0.48777 0.41265 0.0
O646 O 0.81837 0.48725 0.4007 0.0
N647 N 0.8346 0.5067 0.33679 0.0
C648 C 0.80588 0.50569 0.29354 0.0
C649 C 0.82636 0.52199 0.29592 0.0
C650 C 0.84026 0.5226 0.31803 0.0
C651 C 0.81425 0.49154 0.33497 0.0
C652 C 0.79995 0.49042 0.31353 0.0
H653 H 0.85499 0.53617 0.32008 0.0
H654 H 0.80931 0.47985 0.35039 0.0
H655 H 0.86136 0.54578 0.4032 0.0
H656 H 0.78764 0.56601 0.39441 0.0
H657 H 0.87998 0.4253 0.3296 0.0
H658 H 0.83103 0.53471 0.28123 0.0
H659 H 0.78429 0.47766 0.31268 0.0
C660 C 0.21513 0.64083 0.47809 0.0
C661 C 0.21755 0.61905 0.46577 0.0
N662 N 0.19474 0.60941 0.46121 0.0
N663 N 0.1909 0.64468 0.48119 0.0
C664 C 0.17902 0.6255 0.47032 0.0
H665 H 0.22999 0.65184 0.48624 0.0
Co666 Co 0.1757 0.66452 0.50357 0.0
C667 C 0.13476 0.68539 0.47504 0.0
O668 O 0.13933 0.70644 0.48604 0.0
N669 N 0.15907 0.68366 0.52653 0.0
C670 C 0.1449 0.71072 0.5531 0.0
C671 C 0.16416 0.70528 0.53783 0.0
C672 C 0.13673 0.67646 0.53537 0.0
N673 N 0.12781 0.69242 0.55152 0.0
O674 O 0.16231 0.63567 0.51937 0.0
H675 H 0.18053 0.71668 0.53528 0.0
H676 H 0.12674 0.65998 0.52962 0.0
O677 O 0.14776 0.66698 0.48051 0.0
C678 C 0.18042 0.62983 0.53321 0.0
O679 O 0.20055 0.64385 0.53311 0.0
N680 N 0.19271 0.69173 0.49035 0.0
C681 C 0.22911 0.72607 0.47693 0.0
C682 C 0.20969 0.72002 0.46049 0.0
C683 C 0.19182 0.70212 0.46736 0.0
C684 C 0.21189 0.69723 0.50601 0.0
C685 C 0.23007 0.71444 0.49982 0.0
H686 H 0.17803 0.69614 0.45399 0.0
H687 H 0.21322 0.68791 0.52354 0.0
H688 H 0.15929 0.62198 0.47163 0.0
H689 H 0.23471 0.61025 0.46187 0.0
H690 H 0.14373 0.72668 0.56475 0.0
H691 H 0.20877 0.72848 0.44242 0.0
H692 H 0.2449 0.7186 0.51288 0.0
C693 C 0.14258 0.30387 0.49991 0.0
C694 C 0.1248 0.29919 0.48202 0.0
N695 N 0.11375 0.32028 0.47641 0.0
N696 N 0.14283 0.32785 0.50559 0.0
C697 C 0.12514 0.33735 0.49088 0.0
H698 H 0.15391 0.29044 0.50879 0.0
Co699 Co 0.16036 0.34464 0.53076 0.0
C700 C 0.18398 0.3868 0.50449 0.0
O701 O 0.20322 0.3853 0.51931 0.0
N702 N 0.17715 0.3626 0.5561 0.0
C703 C 0.20311 0.37785 0.58474 0.0
C704 C 0.19754 0.35808 0.56981 0.0
C705 C 0.17047 0.38508 0.56361 0.0
N706 N 0.18604 0.39479 0.58079 0.0
O707 O 0.12963 0.35635 0.54327 0.0
H708 H 0.20834 0.34191 0.5689 0.0
H709 H 0.15512 0.39472 0.55571 0.0
O710 O 0.16535 0.37214 0.50748 0.0
C711 C 0.12207 0.33829 0.55657 0.0
O712 O 0.13458 0.31812 0.5559 0.0
N713 N 0.18974 0.32935 0.5214 0.0
C714 C 0.22969 0.29856 0.51607 0.0
C715 C 0.22595 0.31778 0.49928 0.0
C716 C 0.20538 0.3327 0.50191 0.0
C717 C 0.19288 0.31024 0.5372 0.0
C718 C 0.21269 0.29487 0.53505 0.0
H719 H 0.20192 0.34635 0.48802 0.0
H720 H 0.17996 0.30711 0.55201 0.0
H721 H 0.11983 0.35623 0.49175 0.0
H722 H 0.12006 0.28149 0.47413 0.0
H723 H 0.21867 0.37974 0.59737 0.0
H724 H 0.23827 0.32066 0.48386 0.0
H725 H 0.2147 0.28014 0.54825 0.0
C726 C 0.88096 0.70891 0.47386 0.0
C727 C 0.89848 0.71183 0.45575 0.0
N728 N 0.90956 0.69035 0.45252 0.0
N729 N 0.88087 0.68563 0.48209 0.0
C730 C 0.8984 0.67476 0.46861 0.0
H731 H 0.86979 0.72317 0.48118 0.0
Co732 Co 0.86384 0.67163 0.50911 0.0
C733 C 0.83895 0.62766 0.48735 0.0
O734 O 0.82008 0.63063 0.50197 0.0
N735 N 0.84743 0.65634 0.53651 0.0
C736 C 0.8212 0.64402 0.5659 0.0
C737 C 0.82606 0.66135 0.54798 0.0
C738 C 0.85521 0.63593 0.54828 0.0
N739 N 0.83961 0.62809 0.56612 0.0
O740 O 0.89466 0.66077 0.52233 0.0
H741 H 0.81406 0.67608 0.54338 0.0
H742 H 0.87155 0.6263 0.5432 0.0
O743 O 0.85777 0.6423 0.48892 0.0
C744 C 0.90288 0.68033 0.53287 0.0
O745 O 0.8903 0.70032 0.53027 0.0
N746 N 0.83462 0.68658 0.49842 0.0
C747 C 0.79648 0.71873 0.48911 0.0
C748 C 0.79898 0.69778 0.47447 0.0
C749 C 0.81876 0.68217 0.479 0.0
C750 C 0.83249 0.70718 0.51226 0.0
C751 C 0.81368 0.72338 0.50799 0.0
H752 H 0.82142 0.66706 0.46666 0.0
H753 H 0.8455 0.71096 0.52709 0.0
H754 H 0.90384 0.6561 0.47155 0.0
H755 H 0.90309 0.72868 0.44611 0.0
H756 H 0.80523 0.6431 0.57777 0.0
H757 H 0.78614 0.69386 0.45944 0.0
H758 H 0.81235 0.73929 0.51972 0.0
C759 C 0.81202 0.38176 0.50273 0.0
C760 C 0.80855 0.40152 0.48753 0.0
N761 N 0.8308 0.41221 0.48292 0.0
N762 N 0.83636 0.37993 0.50746 0.0
C763 C 0.84734 0.39865 0.49508 0.0
H764 H 0.79765 0.37017 0.51068 0.0
Co765 Co 0.85113 0.36016 0.5306 0.0
C766 C 0.89375 0.33978 0.50573 0.0
O767 O 0.88864 0.31927 0.51752 0.0
N768 N 0.86674 0.34101 0.55492 0.0
C769 C 0.879 0.31439 0.5834 0.0
C770 C 0.8607 0.31975 0.56652 0.0
C771 C 0.88862 0.34812 0.5653 0.0
N772 N 0.89643 0.33242 0.58263 0.0
O773 O 0.86325 0.38899 0.54737 0.0
H774 H 0.84424 0.30862 0.5632 0.0
H775 H 0.89903 0.36442 0.55986 0.0
O776 O 0.88052 0.35841 0.50948 0.0
C777 C 0.84517 0.39409 0.56117 0.0
O778 O 0.8254 0.37955 0.56048 0.0
N779 N 0.83568 0.33277 0.51535 0.0
C780 C 0.80068 0.30057 0.494 0.0
C781 C 0.82151 0.30849 0.48069 0.0
C782 C 0.8385 0.32523 0.49148 0.0
C783 C 0.81546 0.32513 0.52836 0.0
C784 C 0.79791 0.30892 0.51818 0.0
H785 H 0.85285 0.33316 0.48005 0.0
H786 H 0.81228 0.3327 0.54642 0.0
H787 H 0.86693 0.40309 0.49618 0.0
H788 H 0.79096 0.40776 0.48074 0.0
H789 H 0.87923 0.2987 0.59559 0.0
H790 H 0.8239 0.30282 0.46175 0.0
H791 H 0.78198 0.30332 0.529 0.0
C792 C 0.48693 0.21543 0.63573 0.0
C793 C 0.46815 0.21981 0.61905 0.0
N794 N 0.46225 0.19878 0.60715 0.0
N795 N 0.49287 0.19173 0.63429 0.0
C796 C 0.47735 0.18208 0.61693 0.0
H797 H 0.49646 0.22896 0.64713 0.0
Co798 Co 0.51967 0.17519 0.64788 0.0
C799 C 0.49557 0.1324 0.67225 0.0
O800 O 0.51244 0.13351 0.68984 0.0
N801 N 0.54642 0.1573 0.66062 0.0
C802 C 0.57715 0.14174 0.68265 0.0
C803 C 0.56206 0.16133 0.67993 0.0
C804 C 0.55293 0.13526 0.65168 0.0
N805 N 0.57136 0.12541 0.66486 0.0
O806 O 0.5282 0.16428 0.61555 0.0
H807 H 0.56233 0.17696 0.692 0.0
H808 H 0.54349 0.12598 0.63652 0.0
O809 O 0.49686 0.14745 0.65418 0.0
C810 C 0.53975 0.18308 0.60682 0.0
O811 O 0.53984 0.20344 0.61963 0.0
N812 N 0.51416 0.18971 0.67873 0.0
C813 C 0.51468 0.21973 0.72039 0.0
C814 C 0.49697 0.20052 0.71786 0.0
C815 C 0.49665 0.18595 0.69646 0.0
C816 C 0.53073 0.20886 0.6807 0.0
C817 C 0.53157 0.22377 0.70137 0.0
H818 H 0.48209 0.17224 0.6941 0.0
H819 H 0.54392 0.21224 0.66617 0.0
H820 H 0.47834 0.16349 0.61033 0.0
H821 H 0.46007 0.23732 0.61539 0.0
H822 H 0.59114 0.13949 0.69683 0.0
H823 H 0.48306 0.19737 0.73183 0.0
H824 H 0.54545 0.23843 0.70244 0.0
C825 C 0.37547 0.05642 0.70865 0.0
C826 C 0.39363 0.07442 0.71137 0.0
N827 N 0.40534 0.07722 0.68968 0.0
N828 N 0.3758 0.04785 0.68531 0.0
C829 C 0.39399 0.06114 0.67419 0.0
H830 H 0.36403 0.04907 0.72327 0.0
Co831 Co 0.36054 0.01981 0.67139 0.0
C832 C 0.33819 0.03883 0.62432 0.0
O833 O 0.32033 0.02205 0.62503 0.0
N834 N 0.34603 0.99161 0.6567 0.0
C835 C 0.3231 0.95847 0.64728 0.0
C836 C 0.32629 0.97752 0.66352 0.0
C837 C 0.35456 0.98044 0.63631 0.0
N838 N 0.34091 0.96032 0.6302 0.0
O839 O 0.39234 0.0091 0.66074 0.0
H840 H 0.31468 0.98053 0.67919 0.0
H841 H 0.37022 0.9872 0.62578 0.0
O842 O 0.35487 0.03929 0.64122 0.0
C843 C 0.40205 1.00014 0.68026 0.0
O844 O 0.39065 0.00279 0.70132 0.0
N845 N 0.33026 0.0276 0.6858 0.0
C846 C 0.28862 0.02727 0.71601 0.0
C847 C 0.28898 0.04059 0.69371 0.0
C848 C 0.31029 0.04078 0.67885 0.0
C849 C 0.33018 0.01529 0.70767 0.0
C850 C 0.30971 0.01466 0.72279 0.0
H851 H 0.3105 0.05136 0.66204 0.0
H852 H 0.34596 0.00483 0.71296 0.0
H853 H 0.40017 0.05763 0.65562 0.0
H854 H 0.39858 0.0839 0.72831 0.0
H855 H 0.30892 0.94412 0.6482 0.0
H856 H 0.27319 0.05097 0.68803 0.0
H857 H 0.31031 0.00389 0.73958 0.0
C858 C 0.47923 0.89173 0.72312 0.0
C859 C 0.46456 0.91185 0.72324 0.0
N860 N 0.46211 0.91997 0.69984 0.0
N861 N 0.48591 0.88724 0.69972 0.0
C862 C 0.47502 0.9046 0.68595 0.0
H863 H 0.48585 0.88202 0.73916 0.0
Co864 Co 0.51045 0.86715 0.6887 0.0
C865 C 0.48799 0.841 0.64641 0.0
O866 O 0.49957 0.82153 0.65389 0.0
N867 N 0.53595 0.84793 0.67623 0.0
C868 C 0.56551 0.82199 0.66759 0.0
C869 C 0.54853 0.82871 0.68492 0.0
C870 C 0.54605 0.85268 0.65385 0.0
N871 N 0.56389 0.83716 0.64806 0.0
O872 O 0.52783 0.8955 0.67614 0.0
H873 H 0.54575 0.81985 0.70252 0.0
H874 H 0.5398 0.8669 0.64157 0.0
O875 O 0.4911 0.86116 0.65821 0.0
C876 C 0.54076 0.90175 0.69513 0.0
O877 O 0.53782 0.88886 0.71545 0.0
N878 N 0.49503 0.84036 0.70516 0.0
C879 C 0.47593 0.80619 0.73899 0.0
C880 C 0.46263 0.81185 0.71744 0.0
C881 C 0.47216 0.82968 0.70109 0.0
C882 C 0.50758 0.83554 0.72646 0.0
C883 C 0.49855 0.81846 0.74344 0.0
H884 H 0.46078 0.83529 0.68576 0.0
H885 H 0.52474 0.84536 0.73053 0.0
H886 H 0.47815 0.90711 0.66639 0.0
H887 H 0.45705 0.9204 0.7394 0.0
H888 H 0.57819 0.80716 0.66934 0.0
H889 H 0.44476 0.80315 0.7137 0.0
H890 H 0.50936 0.81475 0.75989 0.0
C891 C 0.64872 1.00131 0.70923 0.0
C892 C 0.62974 0.98592 0.71711 0.0
N893 N 0.61989 0.97412 0.69728 0.0
N894 N 0.65088 0.99898 0.68462 0.0
C895 C 0.63322 0.98234 0.67795 0.0
H896 H 0.65943 0.01415 0.72046 0.0
Co897 Co 0.66883 0.01771 0.66221 0.0
C898 C 0.69084 0.9797 0.6311 0.0
O899 O 0.71233 0.99112 0.63403 0.0
N900 N 0.68631 0.03667 0.63799 0.0
C901 C 0.71382 0.05649 0.61422 0.0
C902 C 0.7105 0.04328 0.6356 0.0
C903 C 0.67561 0.04593 0.61739 0.0
N904 N 0.69175 0.05816 0.60288 0.0
O905 O 0.63784 0.02717 0.64773 0.0
H906 H 0.72527 0.0384 0.64801 0.0
H907 H 0.65635 0.04345 0.61249 0.0
O908 O 0.67166 0.98843 0.64106 0.0
C909 C 0.63298 0.04513 0.66182 0.0
O910 O 0.64882 0.05108 0.6795 0.0
N911 N 0.6979 0.0119 0.6804 0.0
C912 C 0.73345 0.01142 0.71851 0.0
C913 C 0.72429 0.98945 0.7077 0.0
C914 C 0.70633 0.99007 0.68873 0.0
C915 C 0.70624 0.03316 0.69106 0.0
C916 C 0.72456 0.03344 0.70919 0.0
H917 H 0.69813 0.9731 0.68194 0.0
H918 H 0.69827 0.05026 0.68562 0.0
H919 H 0.62969 0.97704 0.659 0.0
H920 H 0.62312 0.98442 0.73584 0.0
H921 H 0.73108 0.06453 0.60775 0.0
H922 H 0.7299 0.97188 0.71462 0.0
H923 H 0.73109 0.05097 0.71625 0.0
C924 C 0.54434 0.85881 0.32317 0.0
C925 C 0.56289 0.87576 0.31803 0.0
N926 N 0.56823 0.88851 0.33875 0.0
N927 N 0.53795 0.8608 0.34709 0.0
C928 C 0.55305 0.87888 0.35612 0.0
H929 H 0.53528 0.84679 0.30988 0.0
Co930 Co 0.51062 0.84643 0.36354 0.0
C931 C 0.53286 0.82197 0.40669 0.0
O932 O 0.51684 0.80365 0.40389 0.0
N933 N 0.48311 0.83271 0.38093 0.0
C934 C 0.45154 0.80989 0.39526 0.0
C935 C 0.46786 0.81315 0.37619 0.0
C936 C 0.47521 0.8411 0.40297 0.0
N937 N 0.45617 0.82753 0.41202 0.0
O938 O 0.50201 0.87775 0.37563 0.0
H939 H 0.46863 0.80125 0.36043 0.0
H940 H 0.48401 0.85621 0.41286 0.0
O941 O 0.53239 0.84011 0.39179 0.0
C942 C 0.4914 0.88764 0.35715 0.0
O943 O 0.49254 0.8768 0.33558 0.0
N944 N 0.51638 0.81662 0.34808 0.0
C945 C 0.51778 0.77857 0.31404 0.0
C946 C 0.53486 0.77991 0.33379 0.0
C947 C 0.53413 0.79953 0.35056 0.0
C948 C 0.50008 0.81551 0.32879 0.0
C949 C 0.50013 0.79655 0.31195 0.0
H950 H 0.54822 0.80137 0.36473 0.0
H951 H 0.48675 0.82967 0.32654 0.0
H952 H 0.55172 0.88597 0.37468 0.0
H953 H 0.57124 0.87896 0.30019 0.0
H954 H 0.43753 0.79544 0.39688 0.0
H955 H 0.5492 0.76664 0.33554 0.0
H956 H 0.48672 0.79629 0.29696 0.0
C957 C 0.71351 0.96054 0.38804 0.0
C958 C 0.71644 0.94232 0.4053 0.0
N959 N 0.69519 0.9393 0.41784 0.0
N960 N 0.69049 0.96913 0.38969 0.0
C961 C 0.6797 0.9555 0.40777 0.0
H962 H 0.72777 0.96772 0.37601 0.0
Co963 Co 0.67631 0.99661 0.37446 0.0
C964 C 0.63374 0.97309 0.34731 0.0
O965 O 0.63595 0.98856 0.32881 0.0
N966 N 0.66073 0.02372 0.35974 0.0
C967 C 0.65026 0.05583 0.337 0.0
C968 C 0.66855 0.03968 0.34215 0.0
C969 C 0.63766 0.03104 0.3652 0.0
N970 N 0.63091 0.05043 0.35157 0.0
O971 O 0.66252 0.00614 0.40521 0.0
H972 H 0.68613 0.03969 0.33303 0.0
H973 H 0.62563 0.02173 0.37826 0.0
O974 O 0.64831 0.97508 0.3659 0.0
C975 C 0.68065 0.01516 0.41789 0.0
O976 O 0.7032 0.01071 0.41082 0.0
N977 N 0.69377 0.99068 0.34546 0.0
C978 C 0.72977 0.99333 0.30875 0.0
C979 C 0.70912 0.9771 0.30641 0.0
C980 C 0.69128 0.97581 0.32529 0.0
C981 C 0.71398 0.00589 0.34804 0.0
C982 C 0.73177 0.00785 0.32993 0.0
H983 H 0.67596 0.9628 0.32374 0.0
H984 H 0.71587 0.0173 0.36426 0.0
H985 H 0.66132 0.95856 0.41456 0.0
H986 H 0.73323 0.93264 0.40892 0.0
H987 H 0.65096 0.07028 0.32331 0.0
H988 H 0.7071 0.96521 0.29053 0.0
H989 H 0.74699 0.02092 0.33255 0.0
C990 C 0.49026 0.12014 0.3025 0.0
C991 C 0.47376 0.10082 0.29929 0.0
N992 N 0.46693 0.09253 0.32172 0.0
N993 N 0.49372 0.12417 0.32686 0.0
C994 C 0.47922 0.10707 0.3381 0.0
H995 H 0.49991 0.12983 0.28793 0.0
Co996 Co 0.51715 0.14522 0.3416 0.0
C997 C 0.49084 0.16935 0.38265 0.0
O998 O 0.50455 0.18915 0.37868 0.0
N999 N 0.54146 0.16591 0.35679 0.0
C1000 C 0.56911 0.1953 0.36692 0.0
C1001 C 0.55233 0.18723 0.3493 0.0
C1002 C 0.55226 0.16142 0.37894 0.0
N1003 N 0.56907 0.17895 0.38548 0.0
O1004 O 0.53209 0.11745 0.35736 0.0
H1005 H 0.54848 0.19675 0.33232 0.0
H1006 H 0.54749 0.14582 0.39043 0.0
O1007 O 0.49404 0.15031 0.36941 0.0
C1008 C 0.54651 0.10938 0.34092 0.0
O1009 O 0.54643 0.12004 0.31915 0.0
N1010 N 0.50474 0.17133 0.32284 0.0
C1011 C 0.49357 0.20643 0.28725 0.0
C1012 C 0.47856 0.20309 0.30806 0.0
C1013 C 0.48406 0.18481 0.3254 0.0
C1014 C 0.51888 0.17401 0.30227 0.0
C1015 C 0.51369 0.19137 0.28434 0.0
H1016 H 0.47152 0.18147 0.34044 0.0
H1017 H 0.53467 0.16266 0.29996 0.0
H1018 H 0.47879 0.10445 0.35791 0.0
H1019 H 0.46768 0.09314 0.28178 0.0
H1020 H 0.5807 0.21174 0.366 0.0
H1021 H 0.46258 0.21419 0.31064 0.0
H1022 H 0.52575 0.1934 0.26858 0.0
C1023 C 0.31704 0.02682 0.37173 0.0
C1024 C 0.31389 0.04612 0.38761 0.0
N1025 N 0.3356 0.05115 0.39925 0.0
N1026 N 0.34063 0.01982 0.3735 0.0
C1027 C 0.35149 0.03523 0.39004 0.0
H1028 H 0.30269 0.01743 0.36108 0.0
Co1029 Co 0.35529 0.9915 0.36302 0.0
C1030 C 0.40104 0.01025 0.33903 0.0
O1031 O 0.39907 0.99295 0.32227 0.0
N1032 N 0.37129 0.96308 0.35351 0.0
C1033 C 0.38601 0.92995 0.33584 0.0
C1034 C 0.36668 0.94568 0.3362 0.0
C1035 C 0.39317 0.95701 0.36372 0.0
N1036 N 0.40242 0.93713 0.35331 0.0
O1037 O 0.36534 0.98509 0.39619 0.0
H1038 H 0.35103 0.94473 0.32376 0.0
H1039 H 0.40309 0.96797 0.3774 0.0
O1040 O 0.38502 0.01126 0.35611 0.0
C1041 C 0.34611 0.97609 0.40663 0.0
O1042 O 0.3251 0.97558 0.39426 0.0
N1043 N 0.34201 0.99579 0.33135 0.0
C1044 C 0.31325 0.99539 0.28828 0.0
C1045 C 0.33334 0.01214 0.29108 0.0
C1046 C 0.34733 0.01234 0.31309 0.0
C1047 C 0.32198 0.98029 0.32921 0.0
C1048 C 0.30782 0.97931 0.30775 0.0
H1049 H 0.36179 0.02614 0.31556 0.0
H1050 H 0.3173 0.96813 0.34434 0.0
H1051 H 0.37016 0.03327 0.39694 0.0
H1052 H 0.29666 0.05491 0.39122 0.0
H1053 H 0.38834 0.91497 0.32313 0.0
H1054 H 0.33761 0.02548 0.27684 0.0
H1055 H 0.29259 0.96606 0.30656 0.0
C1056 C 0.71457 0.14105 0.47422 0.0
C1057 C 0.71741 0.11915 0.46218 0.0
N1058 N 0.69477 0.10957 0.45672 0.0
N1059 N 0.69025 0.14497 0.47633 0.0
C1060 C 0.67876 0.12584 0.46495 0.0
H1061 H 0.72909 0.15178 0.48328 0.0
Co1062 Co 0.67414 0.16356 0.49923 0.0
C1063 C 0.63273 0.18398 0.47079 0.0
O1064 O 0.63607 0.20487 0.48245 0.0
N1065 N 0.65653 0.18133 0.52253 0.0
C1066 C 0.64054 0.20758 0.54883 0.0
C1067 C 0.66061 0.20285 0.53434 0.0
C1068 C 0.63404 0.17339 0.5304 0.0
N1069 N 0.62398 0.1889 0.54628 0.0
O1070 O 0.66118 0.13386 0.51359 0.0
H1071 H 0.67673 0.21476 0.53243 0.0
H1072 H 0.62463 0.15687 0.52388 0.0
O1073 O 0.64657 0.16611 0.47587 0.0
C1074 C 0.67915 0.12733 0.52726 0.0
O1075 O 0.69917 0.14146 0.52841 0.0
N1076 N 0.69064 0.19171 0.48743 0.0
C1077 C 0.72555 0.22851 0.4768 0.0
C1078 C 0.70637 0.22291 0.45992 0.0
C1079 C 0.6893 0.20377 0.46533 0.0
C1080 C 0.70963 0.19674 0.50346 0.0
C1081 C 0.72712 0.21509 0.49864 0.0
H1082 H 0.67568 0.19837 0.45156 0.0
H1083 H 0.71123 0.18627 0.5203 0.0
H1084 H 0.65903 0.12218 0.4658 0.0
H1085 H 0.73464 0.11004 0.45951 0.0
H1086 H 0.63833 0.22343 0.56042 0.0
H1087 H 0.705 0.23278 0.44263 0.0
H1088 H 0.74175 0.21888 0.51201 0.0
C1089 C 0.63727 0.79695 0.50533 0.0
C1090 C 0.61952 0.79178 0.48762 0.0
N1091 N 0.61043 0.81302 0.47944 0.0
N1092 N 0.63952 0.82137 0.50826 0.0
C1093 C 0.62292 0.83069 0.49226 0.0
H1094 H 0.6475 0.78371 0.51576 0.0
Co1095 Co 0.65946 0.83783 0.53152 0.0
C1096 C 0.68262 0.87907 0.50453 0.0
O1097 O 0.70276 0.87477 0.51735 0.0
N1098 N 0.67879 0.85519 0.5557 0.0
C1099 C 0.70577 0.86879 0.58423 0.0
C1100 C 0.69935 0.84969 0.56867 0.0
C1101 C 0.67299 0.87764 0.56415 0.0
N1102 N 0.6891 0.88636 0.5814 0.0
O1103 O 0.63039 0.8498 0.5471 0.0
H1104 H 0.7094 0.83308 0.56716 0.0
H1105 H 0.65751 0.88775 0.55724 0.0
O1106 O 0.66297 0.86602 0.50852 0.0
C1107 C 0.62499 0.83251 0.56226 0.0
O1108 O 0.63821 0.81277 0.56159 0.0
N1109 N 0.68719 0.82235 0.51826 0.0
C1110 C 0.72089 0.78845 0.50145 0.0
C1111 C 0.71383 0.80797 0.48635 0.0
C1112 C 0.6963 0.82433 0.49482 0.0
C1113 C 0.69368 0.80319 0.53284 0.0
C1114 C 0.71057 0.78624 0.52495 0.0
H1115 H 0.68929 0.83763 0.48203 0.0
H1116 H 0.68489 0.8005 0.55051 0.0
H1117 H 0.61942 0.85 0.49073 0.0
H1118 H 0.61369 0.77373 0.48137 0.0
H1119 H 0.72142 0.86957 0.59682 0.0
H1120 H 0.72092 0.80988 0.4678 0.0
H1121 H 0.71534 0.77134 0.53713 0.0
C1122 C 0.31451 0.14623 0.52969 0.0
C1123 C 0.30934 0.12971 0.54833 0.0
N1124 N 0.33038 0.11867 0.55479 0.0
N1125 N 0.33875 0.1457 0.52433 0.0
C1126 C 0.34793 0.12884 0.54007 0.0
H1127 H 0.30116 0.15704 0.51995 0.0
Co1128 Co 0.35569 0.16067 0.49768 0.0
C1129 C 0.39856 0.18568 0.52197 0.0
O1130 O 0.39656 0.2039 0.50633 0.0
N1131 N 0.37387 0.17488 0.47072 0.0
C1132 C 0.38909 0.19847 0.44046 0.0
C1133 C 0.37052 0.19553 0.45744 0.0
C1134 C 0.39472 0.16563 0.46106 0.0
N1135 N 0.40428 0.17961 0.44268 0.0
O1136 O 0.36674 0.12924 0.48788 0.0
H1137 H 0.35609 0.20837 0.46005 0.0
H1138 H 0.40336 0.14936 0.46794 0.0
O1139 O 0.38378 0.16707 0.52014 0.0
C1140 C 0.34776 0.12113 0.47587 0.0
O1141 O 0.32791 0.13434 0.47537 0.0
N1142 N 0.34065 0.19053 0.50475 0.0
C1143 C 0.30753 0.22849 0.50932 0.0
C1144 C 0.32696 0.22594 0.52649 0.0
C1145 C 0.34312 0.20636 0.52419 0.0
C1146 C 0.32165 0.19284 0.48828 0.0
C1147 C 0.30517 0.21168 0.49003 0.0
H1148 H 0.35676 0.2035 0.53849 0.0
H1149 H 0.31921 0.17973 0.47352 0.0
H1150 H 0.36686 0.12306 0.53966 0.0
H1151 H 0.29132 0.12568 0.55607 0.0
H1152 H 0.39133 0.21347 0.42753 0.0
H1153 H 0.32887 0.23819 0.54211 0.0
H1154 H 0.29032 0.21283 0.47655 0.0
C1155 C 0.31888 0.87239 0.49997 0.0
C1156 C 0.31495 0.89166 0.48423 0.0
N1157 N 0.33699 0.90264 0.47928 0.0
N1158 N 0.34329 0.87119 0.50465 0.0
C1159 C 0.35382 0.88979 0.49179 0.0
H1160 H 0.3048 0.86063 0.50818 0.0
Co1161 Co 0.35901 0.85218 0.52774 0.0
C1162 C 0.40191 0.83314 0.50213 0.0
O1163 O 0.39786 0.81261 0.51426 0.0
N1164 N 0.37564 0.8338 0.552 0.0
C1165 C 0.38898 0.80794 0.58068 0.0
C1166 C 0.37066 0.81225 0.5635 0.0
C1167 C 0.39702 0.84206 0.56263 0.0
N1168 N 0.40541 0.82687 0.58015 0.0
O1169 O 0.37001 0.88162 0.54423 0.0
H1170 H 0.35487 0.80025 0.55998 0.0
H1171 H 0.40655 0.85891 0.55738 0.0
O1172 O 0.38822 0.85136 0.50622 0.0
C1173 C 0.35158 0.88575 0.55798 0.0
O1174 O 0.33286 0.86988 0.55771 0.0
N1175 N 0.34439 0.82424 0.51282 0.0
C1176 C 0.30865 0.79294 0.49144 0.0
C1177 C 0.32924 0.80096 0.47784 0.0
C1178 C 0.34667 0.81723 0.48871 0.0
C1179 C 0.32459 0.81616 0.5262 0.0
C1180 C 0.30668 0.80038 0.51599 0.0
H1181 H 0.36067 0.8255 0.47709 0.0
H1182 H 0.32178 0.82334 0.5445 0.0
H1183 H 0.37334 0.8946 0.49269 0.0
H1184 H 0.29722 0.89729 0.47722 0.0
H1185 H 0.38982 0.79238 0.593 0.0
H1186 H 0.33099 0.79594 0.45863 0.0
H1187 H 0.29091 0.79468 0.52699 0.0
C1188 C 0.48208 0.70725 0.15161 0.0
C1189 C 0.46174 0.71131 0.1368 0.0
N1190 N 0.45622 0.69068 0.12406 0.0
N1191 N 0.48936 0.68418 0.14813 0.0
C1192 C 0.47308 0.67453 0.13148 0.0
H1193 H 0.49172 0.7207 0.16303 0.0
Co1194 Co 0.51832 0.66897 0.15822 0.0
C1195 C 0.49943 0.6237 0.18222 0.0
O1196 O 0.51715 0.62601 0.19888 0.0
N1197 N 0.54729 0.65249 0.16735 0.0
C1198 C 0.58161 0.63842 0.18449 0.0
C1199 C 0.56546 0.65732 0.18414 0.0
C1200 C 0.55338 0.63078 0.15736 0.0
N1201 N 0.57399 0.62188 0.16757 0.0
O1202 O 0.52478 0.66053 0.12469 0.0
H1203 H 0.5669 0.673 0.1961 0.0
H1204 H 0.54212 0.62099 0.14379 0.0
O1205 O 0.49816 0.63928 0.16465 0.0
C1206 C 0.53422 0.68049 0.11613 0.0
O1207 O 0.53349 0.70021 0.12986 0.0
N1208 N 0.51454 0.68125 0.19026 0.0
C1209 C 0.51591 0.70995 0.23286 0.0
C1210 C 0.49886 0.69012 0.23057 0.0
C1211 C 0.49812 0.67617 0.20872 0.0
C1212 C 0.53043 0.70093 0.19209 0.0
C1213 C 0.53186 0.71505 0.21326 0.0
H1214 H 0.48396 0.66202 0.20651 0.0
H1215 H 0.54248 0.70552 0.17688 0.0
H1216 H 0.47473 0.65651 0.12357 0.0
H1217 H 0.45234 0.72839 0.13488 0.0
H1218 H 0.5974 0.63661 0.19671 0.0
H1219 H 0.48564 0.68611 0.245 0.0
H1220 H 0.54525 0.73016 0.2141 0.0
C1221 C 0.39084 0.53288 0.22093 0.0
C1222 C 0.40812 0.55169 0.2236 0.0
N1223 N 0.41794 0.55664 0.20132 0.0
N1224 N 0.38976 0.52598 0.19704 0.0
C1225 C 0.40638 0.54093 0.18556 0.0
H1226 H 0.38071 0.52411 0.23575 0.0
Co1227 Co 0.3734 0.49887 0.18261 0.0
C1228 C 0.34682 0.52006 0.13916 0.0
O1229 O 0.32933 0.50301 0.14112 0.0
N1230 N 0.3578 0.47145 0.16741 0.0
C1231 C 0.33532 0.43803 0.15791 0.0
C1232 C 0.33954 0.45598 0.17523 0.0
C1233 C 0.36446 0.46218 0.14535 0.0
N1234 N 0.35106 0.44195 0.13916 0.0
O1235 O 0.40416 0.48855 0.16877 0.0
H1236 H 0.32976 0.45717 0.19238 0.0
H1237 H 0.37863 0.47039 0.13378 0.0
O1238 O 0.36531 0.52 0.15409 0.0
C1239 C 0.41338 0.47621 0.18652 0.0
O1240 O 0.40426 0.47907 0.20866 0.0
N1241 N 0.34424 0.50592 0.19975 0.0
C1242 C 0.30415 0.50455 0.23209 0.0
C1243 C 0.30415 0.51987 0.21114 0.0
C1244 C 0.32468 0.52058 0.19526 0.0
C1245 C 0.34476 0.49192 0.22056 0.0
C1246 C 0.32499 0.49068 0.23663 0.0
H1247 H 0.32464 0.53283 0.17965 0.0
H1248 H 0.36035 0.48056 0.22411 0.0
H1249 H 0.41103 0.53925 0.16626 0.0
H1250 H 0.41355 0.56053 0.24074 0.0
H1251 H 0.32196 0.42297 0.15923 0.0
H1252 H 0.28867 0.53138 0.20727 0.0
H1253 H 0.32592 0.47839 0.25229 0.0
C1254 C 0.4961 0.36398 0.20602 0.0
C1255 C 0.47821 0.38088 0.20962 0.0
N1256 N 0.47482 0.39322 0.18834 0.0
N1257 N 0.50376 0.36541 0.18245 0.0
C1258 C 0.49058 0.38353 0.1722 0.0
H1259 H 0.50337 0.35182 0.21987 0.0
Co1260 Co 0.52881 0.34844 0.1671 0.0
C1261 C 0.50384 0.3256 0.12421 0.0
O1262 O 0.51725 0.30626 0.12765 0.0
N1263 N 0.55439 0.33233 0.15037 0.0
C1264 C 0.58303 0.3078 0.13591 0.0
C1265 C 0.56695 0.31178 0.15497 0.0
C1266 C 0.5636 0.34055 0.12855 0.0
N1267 N 0.58092 0.32602 0.11938 0.0
O1268 O 0.54277 0.37894 0.156 0.0
H1269 H 0.56447 0.29989 0.17071 0.0
H1270 H 0.55697 0.35645 0.11894 0.0
O1271 O 0.50719 0.34427 0.13817 0.0
C1272 C 0.55526 0.38594 0.17496 0.0
O1273 O 0.5546 0.37212 0.19485 0.0
N1274 N 0.51679 0.3192 0.18189 0.0
C1275 C 0.5016 0.28289 0.2153 0.0
C1276 C 0.4865 0.28891 0.19512 0.0
C1277 C 0.49412 0.30773 0.17896 0.0
C1278 C 0.53138 0.31358 0.20162 0.0
C1279 C 0.52427 0.29545 0.21839 0.0
H1280 H 0.48123 0.31378 0.1651 0.0
H1281 H 0.54846 0.32389 0.20481 0.0
H1282 H 0.49265 0.38961 0.15328 0.0
H1283 H 0.4689 0.3843 0.22681 0.0
H1284 H 0.59529 0.29264 0.13429 0.0
H1285 H 0.46855 0.27995 0.19255 0.0
H1286 H 0.53636 0.29145 0.23384 0.0
C1287 C 0.65896 0.48583 0.19975 0.0
C1288 C 0.64211 0.46716 0.20475 0.0
N1289 N 0.62982 0.46134 0.18366 0.0
N1290 N 0.65731 0.49159 0.1756 0.0
C1291 C 0.63955 0.47633 0.16634 0.0
H1292 H 0.671 0.49504 0.21302 0.0
Co1293 Co 0.67225 0.51679 0.15763 0.0
C1294 C 0.69513 0.49068 0.11608 0.0
O1295 O 0.71439 0.50579 0.11773 0.0
N1296 N 0.68661 0.54215 0.13831 0.0
C1297 C 0.70981 0.57161 0.12091 0.0
C1298 C 0.70783 0.55573 0.14054 0.0
C1299 C 0.6762 0.55024 0.11708 0.0
N1300 N 0.6898 0.56813 0.10632 0.0
O1301 O 0.64015 0.52618 0.14586 0.0
H1302 H 0.72147 0.55421 0.15505 0.0
H1303 H 0.65922 0.54276 0.10913 0.0
O1304 O 0.67692 0.49329 0.13061 0.0
C1305 C 0.6319 0.53852 0.16384 0.0
O1306 O 0.64483 0.53933 0.1845 0.0
N1307 N 0.70257 0.51043 0.17312 0.0
C1308 C 0.74004 0.50667 0.20859 0.0
C1309 C 0.73685 0.48877 0.19013 0.0
C1310 C 0.71752 0.49075 0.17265 0.0
C1311 C 0.70568 0.52776 0.191 0.0
C1312 C 0.72437 0.52645 0.20857 0.0
H1313 H 0.71388 0.47597 0.15982 0.0
H1314 H 0.69302 0.54262 0.19189 0.0
H1315 H 0.63305 0.47708 0.14741 0.0
H1316 H 0.63898 0.45878 0.2226 0.0
H1317 H 0.72468 0.58489 0.11774 0.0
H1318 H 0.74822 0.47283 0.19009 0.0
H1319 H 0.72603 0.54045 0.22266 0.0
C1320 C 0.53523 0.37095 0.81028 0.0
C1321 C 0.55185 0.38942 0.80408 0.0
N1322 N 0.55808 0.40198 0.8247 0.0
N1323 N 0.53098 0.37174 0.83477 0.0
C1324 C 0.54535 0.39073 0.84303 0.0
H1325 H 0.52606 0.35854 0.79743 0.0
Co1326 Co 0.50704 0.35422 0.85329 0.0
C1327 C 0.53631 0.33215 0.89374 0.0
O1328 O 0.52203 0.31232 0.89302 0.0
N1329 N 0.4829 0.33719 0.87271 0.0
C1330 C 0.45583 0.31011 0.8886 0.0
C1331 C 0.47087 0.31542 0.86894 0.0
C1332 C 0.47447 0.34468 0.8949 0.0
N1333 N 0.45808 0.32854 0.90488 0.0
O1334 O 0.49662 0.3842 0.86727 0.0
H1335 H 0.47309 0.30344 0.85344 0.0
H1336 H 0.48092 0.36122 0.90412 0.0
O1337 O 0.53213 0.34984 0.879 0.0
C1338 C 0.4832 0.3931 0.85018 0.0
O1339 O 0.48203 0.38184 0.82878 0.0
N1340 N 0.51443 0.3256 0.83626 0.0
C1341 C 0.51687 0.28824 0.80155 0.0
C1342 C 0.53508 0.29086 0.82014 0.0
C1343 C 0.53378 0.31014 0.83724 0.0
C1344 C 0.49695 0.32321 0.81809 0.0
C1345 C 0.49766 0.30464 0.8008 0.0
H1346 H 0.54859 0.31297 0.85049 0.0
H1347 H 0.48214 0.33597 0.81711 0.0
H1348 H 0.54528 0.39709 0.86194 0.0
H1349 H 0.55832 0.39363 0.78567 0.0
H1350 H 0.44424 0.2938 0.89087 0.0
H1351 H 0.55058 0.27883 0.82077 0.0
H1352 H 0.48341 0.30335 0.78663 0.0
C1353 C 0.7011 0.49033 0.86684 0.0
C1354 C 0.70688 0.47259 0.88391 0.0
N1355 N 0.6862 0.46608 0.89634 0.0
N1356 N 0.67688 0.49493 0.86852 0.0
C1357 C 0.66832 0.47966 0.88636 0.0
H1358 H 0.71397 0.50006 0.85494 0.0
Co1359 Co 0.65802 0.51981 0.85476 0.0
C1360 C 0.61798 0.49076 0.82997 0.0
O1361 O 0.61915 0.50529 0.81066 0.0
N1362 N 0.63732 0.54439 0.84156 0.0
C1363 C 0.61728 0.5707 0.81773 0.0
C1364 C 0.63736 0.55606 0.81946 0.0
C1365 C 0.61677 0.55246 0.85276 0.0
N1366 N 0.60439 0.56841 0.83871 0.0
O1367 O 0.64656 0.52737 0.88709 0.0
H1368 H 0.65022 0.55347 0.8047 0.0
H1369 H 0.61014 0.54595 0.87042 0.0
O1370 O 0.63213 0.49499 0.84856 0.0
C1371 C 0.66524 0.53954 0.89575 0.0
O1372 O 0.68535 0.54147 0.88245 0.0
N1373 N 0.67365 0.51587 0.82437 0.0
C1374 C 0.70873 0.51946 0.78693 0.0
C1375 C 0.69243 0.49891 0.7884 0.0
C1376 C 0.67503 0.49727 0.80769 0.0
C1377 C 0.68949 0.53563 0.82299 0.0
C1378 C 0.70652 0.5381 0.80425 0.0
H1379 H 0.66369 0.48082 0.8098 0.0
H1380 H 0.68876 0.54988 0.83669 0.0
H1381 H 0.64957 0.47975 0.89308 0.0
H1382 H 0.72507 0.46559 0.88735 0.0
H1383 H 0.61228 0.58188 0.80204 0.0
H1384 H 0.69397 0.48384 0.77564 0.0
H1385 H 0.71849 0.55433 0.80382 0.0
C1386 C 0.46537 0.64233 0.817 0.0
C1387 C 0.45013 0.62217 0.8128 0.0
N1388 N 0.44576 0.61102 0.83458 0.0
N1389 N 0.4705 0.64396 0.84138 0.0
C1390 C 0.45818 0.62468 0.85159 0.0
H1391 H 0.47321 0.65416 0.80295 0.0
Co1392 Co 0.49405 0.66422 0.85723 0.0
C1393 C 0.468 0.68309 0.90124 0.0
O1394 O 0.48058 0.70387 0.89916 0.0
N1395 N 0.51849 0.68415 0.87366 0.0
C1396 C 0.54514 0.71385 0.88544 0.0
C1397 C 0.52691 0.70718 0.86874 0.0
C1398 C 0.53214 0.67736 0.89355 0.0
N1399 N 0.54849 0.69503 0.90099 0.0
O1400 O 0.51004 0.63552 0.8694 0.0
H1401 H 0.52033 0.71885 0.85419 0.0
H1402 H 0.52991 0.6599 0.90277 0.0
O1403 O 0.47185 0.66577 0.88602 0.0
C1404 C 0.5231 0.62945 0.85101 0.0
O1405 O 0.52204 0.64276 0.83084 0.0
N1406 N 0.48048 0.69152 0.84146 0.0
C1407 C 0.46729 0.72825 0.80842 0.0
C1408 C 0.45286 0.72315 0.82935 0.0
C1409 C 0.45943 0.70409 0.84543 0.0
C1410 C 0.49422 0.69619 0.82095 0.0
C1411 C 0.48802 0.71434 0.80428 0.0
H1412 H 0.44739 0.69934 0.86054 0.0
H1413 H 0.51042 0.68571 0.81758 0.0
H1414 H 0.45968 0.61984 0.87092 0.0
H1415 H 0.44341 0.61581 0.79498 0.0
H1416 H 0.5554 0.73114 0.88585 0.0
H1417 H 0.43651 0.73343 0.83291 0.0
H1418 H 0.4997 0.71781 0.78845 0.0
C1419 C 0.30734 0.52832 0.88602 0.0
C1420 C 0.3036 0.54584 0.9037 0.0
N1421 N 0.3254 0.55118 0.91502 0.0
N1422 N 0.3314 0.5227 0.8863 0.0
C1423 C 0.34192 0.53722 0.90383 0.0
H1424 H 0.29314 0.5191 0.87503 0.0
Co1425 Co 0.34731 0.49652 0.87235 0.0
C1426 C 0.39076 0.52063 0.84812 0.0
O1427 O 0.39014 0.50436 0.8303 0.0
N1428 N 0.36443 0.4703 0.85913 0.0
C1429 C 0.37914 0.44002 0.83684 0.0
C1430 C 0.35939 0.45479 0.84019 0.0
C1431 C 0.3871 0.46405 0.86729 0.0
N1432 N 0.39639 0.44591 0.85397 0.0
O1433 O 0.35992 0.48805 0.90417 0.0
H1434 H 0.34301 0.45447 0.82873 0.0
H1435 H 0.39733 0.47365 0.88175 0.0
O1436 O 0.37509 0.51897 0.86555 0.0
C1437 C 0.3418 0.47718 0.91486 0.0
O1438 O 0.32022 0.47615 0.90355 0.0
N1439 N 0.33171 0.50241 0.84206 0.0
C1440 C 0.30163 0.50139 0.79996 0.0
C1441 C 0.32119 0.5188 0.80231 0.0
C1442 C 0.33589 0.51929 0.82384 0.0
C1443 C 0.31198 0.48646 0.84054 0.0
C1444 C 0.29709 0.48526 0.81959 0.0
H1445 H 0.35018 0.53332 0.8258 0.0
H1446 H 0.30842 0.47378 0.85551 0.0
H1447 H 0.36096 0.53592 0.90986 0.0
H1448 H 0.28598 0.55314 0.9087 0.0
H1449 H 0.38101 0.42644 0.82253 0.0
H1450 H 0.32476 0.5322 0.78793 0.0
H1451 H 0.28233 0.47148 0.81872 0.0
C1452 C 0.70409 0.65129 0.97401 0.0
C1453 C 0.70598 0.63088 0.9593 0.0
N1454 N 0.68301 0.62156 0.95487 0.0
N1455 N 0.68002 0.65458 0.97866 0.0
C1456 C 0.66774 0.63647 0.96646 0.0
H1457 H 0.71923 0.66169 0.98243 0.0
Co1458 Co 0.66504 0.67196 1.00321 0.0
C1459 C 0.62284 0.6939 0.97765 0.0
O1460 O 0.62827 0.71437 0.98941 0.0
N1461 N 0.64822 0.68845 0.0282 0.0
C1462 C 0.63204 0.71276 0.05632 0.0
C1463 C 0.65181 0.70954 0.04093 0.0
C1464 C 0.62626 0.67934 0.03637 0.0
N1465 N 0.61615 0.6936 0.05336 0.0
O1466 O 0.6537 0.64136 0.01727 0.0
H1467 H 0.66727 0.72227 0.03906 0.0
H1468 H 0.61719 0.66289 0.02927 0.0
O1469 O 0.63597 0.67518 0.98146 0.0
C1470 C 0.67285 0.63585 0.02984 0.0
O1471 O 0.69206 0.65111 0.02972 0.0
N1472 N 0.68061 0.7008 0.99174 0.0
C1473 C 0.71592 0.73706 0.98028 0.0
C1474 C 0.69744 0.73037 0.96298 0.0
C1475 C 0.67997 0.71171 0.96898 0.0
C1476 C 0.69911 0.70672 0.00806 0.0
C1477 C 0.71655 0.72502 1.00296 0.0
H1478 H 0.66679 0.70542 0.95512 0.0
H1479 H 0.70057 0.69682 0.02525 0.0
H1480 H 0.6481 0.63271 0.96829 0.0
H1481 H 0.72295 0.62282 0.95343 0.0
H1482 H 0.62957 0.72793 0.06875 0.0
H1483 H 0.6969 0.739 0.94498 0.0
H1484 H 0.73085 0.7294 0.01653 0.0
C1485 C 0.71804 0.37616 0.03154 0.0
C1486 C 0.72331 0.39428 0.04856 0.0
N1487 N 0.70225 0.40564 0.05379 0.0
N1488 N 0.6937 0.37593 0.02603 0.0
C1489 C 0.68458 0.39403 0.03999 0.0
H1490 H 0.7314 0.36468 0.02303 0.0
Co1491 Co 0.67647 0.35812 1.00122 0.0
C1492 C 0.63338 0.33559 0.02766 0.0
O1493 O 0.63374 0.31661 0.01287 0.0
N1494 N 0.65838 0.34097 0.97608 0.0
C1495 C 0.64388 0.31423 0.94808 0.0
C1496 C 0.66308 0.32 0.96402 0.0
C1497 C 0.63628 0.34769 0.96664 0.0
N1498 N 0.62706 0.33168 0.94975 0.0
O1499 O 0.66433 0.3883 0.98812 0.0
H1500 H 0.67902 0.30896 0.96668 0.0
H1501 H 0.62661 0.36356 0.97275 0.0
O1502 O 0.64887 0.35345 0.0245 0.0
C1503 C 0.68238 0.39629 0.975 0.0
O1504 O 0.70284 0.38399 0.97518 0.0
N1505 N 0.69203 0.32926 0.01136 0.0
C1506 C 0.72193 0.28875 0.01653 0.0
C1507 C 0.70216 0.29217 0.03267 0.0
C1508 C 0.68768 0.31298 0.03015 0.0
C1509 C 0.71179 0.3265 0.99633 0.0
C1510 C 0.72678 0.30645 0.99844 0.0
H1511 H 0.67341 0.31593 0.04344 0.0
H1512 H 0.71552 0.33977 0.98196 0.0
H1513 H 0.66555 0.39949 0.03897 0.0
H1514 H 0.74141 0.39906 0.05606 0.0
H1515 H 0.64239 0.29838 0.93618 0.0
H1516 H 0.69837 0.27924 0.04743 0.0
H1517 H 0.74192 0.30466 0.98571 0.0
C1518 C 0.30652 0.63241 0.05798 0.0
C1519 C 0.30474 0.61415 0.07547 0.0
N1520 N 0.32709 0.60427 0.07833 0.0
N1521 N 0.32993 0.63417 0.04975 0.0
C1522 C 0.34205 0.61687 0.06265 0.0
H1523 H 0.29134 0.64281 0.05092 0.0
Co1524 Co 0.34246 0.65236 0.02271 0.0
C1525 C 0.38691 0.6783 0.04341 0.0
O1526 O 0.38297 0.69699 0.02879 0.0
N1527 N 0.3561 0.66983 0.99524 0.0
C1528 C 0.3653 0.69615 0.96494 0.0
C1529 C 0.3486 0.68997 0.98311 0.0
C1530 C 0.37728 0.66401 0.98362 0.0
N1531 N 0.38331 0.67975 0.96524 0.0
O1532 O 0.35485 0.62297 0.009 0.0
H1533 H 0.3324 0.70011 0.98722 0.0
H1534 H 0.38868 0.64902 0.98917 0.0
O1535 O 0.37244 0.6594 0.04236 0.0
C1536 C 0.33557 0.61377 0.99833 0.0
O1537 O 0.31445 0.62446 1.00144 0.0
N1538 N 0.32623 0.68033 0.034 0.0
C1539 C 0.29359 0.7179 0.04296 0.0
C1540 C 0.31568 0.7163 0.05667 0.0
C1541 C 0.33153 0.69683 0.05238 0.0
C1542 C 0.30445 0.6814 0.02125 0.0
C1543 C 0.28795 0.69988 0.02541 0.0
H1544 H 0.3477 0.69514 0.06395 0.0
H1545 H 0.30003 0.66793 0.00723 0.0
H1546 H 0.36113 0.61256 0.05945 0.0
H1547 H 0.28807 0.60813 0.08484 0.0
H1548 H 0.3643 0.7116 0.95248 0.0
H1549 H 0.32043 0.72973 0.07071 0.0
H1550 H 0.27117 0.70046 0.01438 0.0
C1551 C 0.32005 0.36784 1.00221 0.0
C1552 C 0.31536 0.38846 0.98859 0.0
N1553 N 0.33716 0.3996 0.98295 0.0
N1554 N 0.34468 0.36598 1.00486 0.0
C1555 C 0.35458 0.38552 0.99296 0.0
H1556 H 0.30643 0.3555 0.01034 0.0
Co1557 Co 0.36181 0.34484 0.02474 0.0
C1558 C 0.4021 0.32773 0.99421 0.0
O1559 O 0.39743 0.30608 1.00392 0.0
N1560 N 0.38013 0.3243 0.0457 0.0
C1561 C 0.39647 0.29629 0.0704 0.0
C1562 C 0.3763 0.30192 0.05592 0.0
C1563 C 0.40264 0.3317 0.05437 0.0
N1564 N 0.41288 0.31522 0.06944 0.0
O1565 O 0.3741 0.3726 0.04332 0.0
H1566 H 0.36015 0.29019 0.05323 0.0
H1567 H 0.4117 0.34886 0.0493 0.0
O1568 O 0.38948 0.34592 1.00107 0.0
C1569 C 0.35671 0.37489 0.05884 0.0
O1570 O 0.33819 0.35879 0.05821 0.0
N1571 N 0.34584 0.31845 0.00834 0.0
C1572 C 0.30701 0.29089 0.98716 0.0
C1573 C 0.32624 0.30022 0.97244 0.0
C1574 C 0.34536 0.3145 0.98337 0.0
C1575 C 0.32749 0.30884 0.02275 0.0
C1576 C 0.30813 0.29482 0.01263 0.0
H1577 H 0.35833 0.32401 0.97147 0.0
H1578 H 0.32672 0.3138 0.04202 0.0
H1579 H 0.37418 0.39 0.99273 0.0
H1580 H 0.29731 0.39484 0.98342 0.0
H1581 H 0.39867 0.27978 0.08115 0.0
H1582 H 0.32557 0.29795 0.95258 0.0
H1583 H 0.29339 0.28814 0.0245 0.0
C1584 C 0.01594 0.27308 0.27596 0.0
C1585 C 0.01702 0.26598 0.30086 0.0
H1586 H 0.01531 0.26188 0.23824 0.0
C1587 C 0.01837 0.24099 0.30668 0.0
H1588 H 0.01492 0.29221 0.27094 0.0
C1589 C 0.01835 0.22342 0.28777 0.0
C1590 C 0.01737 0.23074 0.26287 0.0
H1591 H 0.01897 0.23508 0.32577 0.0
H1592 H 0.01956 0.20426 0.29253 0.0
C1593 C 0.01612 0.25573 0.25725 0.0
C1594 C 0.79384 0.00205 0.28227 0.0
C1595 C 0.78938 0.00346 0.25671 0.0
H1596 H 0.77907 0.99639 0.31816 0.0
C1597 C 0.76482 1.00068 0.24805 0.0
H1598 H 0.81236 0.00443 0.28979 0.0
C1599 C 0.74529 0.99653 0.2647 0.0
C1600 C 0.75001 0.99516 0.29026 0.0
H1601 H 0.76074 1.00138 0.22846 0.0
H1602 H 0.72653 0.9949 0.25764 0.0
C1603 C 0.7746 0.99763 0.29866 0.0
C1604 C 0.98878 0.7557 0.28061 0.0
C1605 C 0.98751 0.73094 0.27392 0.0
H1606 H 0.99345 0.79275 0.26796 0.0
C1607 C 0.98605 0.72473 0.24874 0.0
H1608 H 0.99023 0.76091 0.29986 0.0
C1609 C 0.98751 0.74291 0.23054 0.0
C1610 C 0.99084 0.76751 0.23727 0.0
H1611 H 0.9852 0.70572 0.24316 0.0
H1612 H 0.98788 0.73762 0.21129 0.0
C1613 C 0.99068 0.77385 0.26241 0.0
C1614 C 0.30597 0.99827 0.24212 0.0
C1615 C 0.29669 0.9955 0.2662 0.0
H1616 H 0.2971 0.00155 0.20338 0.0
C1617 C 0.27102 0.99265 0.26935 0.0
H1618 H 0.32566 1.00034 0.2391 0.0
C1619 C 0.25501 0.99288 0.24913 0.0
C1620 C 0.26415 0.99614 0.2252 0.0
H1621 H 0.26312 0.99096 0.28758 0.0
H1622 H 0.23528 0.99141 0.25226 0.0
C1623 C 0.28976 0.99856 0.2217 0.0
C1624 C 0.01253 0.78501 0.76274 0.0
C1625 C 0.01496 0.77755 0.78743 0.0
H1626 H 0.01018 0.77428 0.72487 0.0
C1627 C 0.01673 0.75251 0.7928 0.0
H1628 H 0.01109 0.8042 0.75812 0.0
C1629 C 0.01582 0.73523 0.77365 0.0
C1630 C 0.01354 0.74287 0.74895 0.0
H1631 H 0.01835 0.74634 0.81174 0.0
H1632 H 0.0174 0.71602 0.77805 0.0
C1633 C 0.01191 0.76791 0.74375 0.0
C1634 C 0.24284 0.02146 0.72498 0.0
C1635 C 0.26723 0.02662 0.73313 0.0
H1636 H 0.2049 0.01469 0.73549 0.0
C1637 C 0.2718 0.02901 0.75859 0.0
H1638 H 0.23881 0.01923 0.70548 0.0
C1639 C 0.25283 0.02585 0.7755 0.0
C1640 C 0.22841 0.02073 0.76763 0.0
H1641 H 0.29028 0.03311 0.76556 0.0
H1642 H 0.25738 0.02746 0.79497 0.0
C1643 C 0.22355 0.01844 0.74213 0.0
C1644 C 0.9638 0.26249 0.74947 0.0
C1645 C 0.96976 0.2866 0.75664 0.0
H1646 H 0.95924 0.22514 0.76113 0.0
C1647 C 0.97161 0.2921 0.78198 0.0
H1648 H 0.96243 0.25774 0.73009 0.0
C1649 C 0.96938 0.27355 0.79974 0.0
C1650 C 0.96561 0.24915 0.79242 0.0
H1651 H 0.97611 0.31059 0.78798 0.0
H1652 H 0.97254 0.27802 0.81901 0.0
C1653 C 0.96197 0.24389 0.76721 0.0
C1654 C 0.76606 0.0313 0.77835 0.0
C1655 C 0.78305 0.01284 0.78192 0.0
H1656 H 0.73638 0.04466 0.75675 0.0
C1657 C 0.78395 0.99383 0.7646 0.0
H1658 H 0.76465 0.04582 0.79179 0.0
C1659 C 0.76822 0.99343 0.74385 0.0
C1660 C 0.75082 0.01177 0.74029 0.0
H1661 H 0.79684 0.97926 0.76716 0.0
H1662 H 0.76977 0.97876 0.73065 0.0
C1663 C 0.74994 0.03061 0.75804 0.0
C1664 C 0.23971 0.27533 0.97707 0.0
C1665 C 0.2406 0.25071 0.97018 0.0
H1666 H 0.26057 0.30761 0.98755 0.0
C1667 C 0.26348 0.2409 0.9642 0.0
H1668 H 0.22235 0.28305 0.98233 0.0
C1669 C 0.28539 0.2549 0.96727 0.0
C1670 C 0.28459 0.27875 0.97656 0.0
H1671 H 0.26458 0.22174 0.95947 0.0
H1672 H 0.30296 0.2464 0.96458 0.0
C1673 C 0.26155 0.28925 0.98025 0.0
C1674 C 0.23448 0.75295 0.04612 0.0
C1675 C 0.24277 0.77646 0.03901 0.0
H1676 H 0.24429 0.71582 0.05303 0.0
C1677 C 0.26834 0.78123 0.03669 0.0
H1678 H 0.21491 0.74875 0.04793 0.0
C1679 C 0.28517 0.76254 0.04007 0.0
C1680 C 0.27672 0.73863 0.04541 0.0
H1681 H 0.27523 0.79925 0.03134 0.0
H1682 H 0.30462 0.76642 0.03691 0.0
C1683 C 0.25128 0.73416 0.04904 0.0
C1684 C 0.74517 0.22372 0.01899 0.0
C1685 C 0.77087 0.22815 0.01958 0.0
H1686 H 0.70927 0.23965 0.01819 0.0
C1687 C 0.78013 0.25238 0.01964 0.0
H1688 H 0.73764 0.20516 0.01926 0.0
C1689 C 0.76414 0.27186 0.01909 0.0
C1690 C 0.73843 0.26764 0.0187 0.0
H1691 H 0.79987 0.25626 0.02028 0.0
H1692 H 0.77192 0.29034 0.01911 0.0
C1693 C 0.72903 0.24337 0.01875 0.0
C1694 C 0.73335 0.77875 0.98728 0.0
C1695 C 0.73532 0.75601 0.97574 0.0
H1696 H 0.75261 0.81025 1.00211 0.0
C1697 C 0.75839 0.74919 0.96681 0.0
H1698 H 0.71585 0.78412 0.99479 0.0
C1699 C 0.77954 0.76408 0.97112 0.0
C1700 C 0.77785 0.78576 0.98475 0.0
H1701 H 0.76041 0.73141 0.95844 0.0
H1702 H 0.79741 0.7577 0.96564 0.0
C1703 C 0.75441 0.7935 0.99174 0.0
C1704 C 0.75319 0.52854 0.77872 0.0
C1705 C 0.72976 0.5213 0.76947 0.0
H1706 H 0.79065 0.53852 0.7709 0.0
C1707 C 0.72672 0.51801 0.74385 0.0
H1708 H 0.75626 0.53108 0.79836 0.0
C1709 C 0.7468 0.52221 0.72788 0.0
C1710 C 0.77018 0.52955 0.73737 0.0
H1711 H 0.70882 0.51265 0.73621 0.0
H1712 H 0.74419 0.51924 0.70825 0.0
C1713 C 0.77297 0.5328 0.76295 0.0
C1714 C 0.24391 0.49475 0.76024 0.0
C1715 C 0.25324 0.49808 0.73642 0.0
H1716 H 0.25164 0.49407 0.79886 0.0
C1717 C 0.27871 0.50214 0.73322 0.0
H1718 H 0.2242 0.49229 0.76309 0.0
C1719 C 0.29463 0.50318 0.75381 0.0
C1720 C 0.2852 0.50029 0.7778 0.0
H1721 H 0.28611 0.50536 0.71496 0.0
H1722 H 0.31423 0.50638 0.75097 0.0
C1723 C 0.25966 0.4959 0.78069 0.0
C1724 C 0.28855 0.50168 0.27532 0.0
C1725 C 0.28328 0.50298 0.2499 0.0
H1726 H 0.27476 0.49713 0.31177 0.0
C1727 C 0.2584 0.50108 0.24207 0.0
H1728 H 0.3074 0.50334 0.28214 0.0
C1729 C 0.23933 0.49778 0.2594 0.0
C1730 C 0.24485 0.49651 0.28481 0.0
H1731 H 0.25373 0.50175 0.2226 0.0
H1732 H 0.22032 0.49674 0.25299 0.0
C1733 C 0.26974 0.49825 0.2924 0.0
C1734 C 0.76375 0.50464 0.27419 0.0
C1735 C 0.78952 0.50536 0.27125 0.0
H1736 H 0.72819 0.504 0.25668 0.0
C1737 C 0.79911 0.5052 0.24717 0.0
H1738 H 0.75572 0.50501 0.29242 0.0
C1739 C 0.78314 0.5044 0.22652 0.0
C1740 C 0.75741 0.50409 0.2297 0.0
H1741 H 0.81889 0.50556 0.24435 0.0
H1742 H 0.79084 0.50477 0.20814 0.0
C1743 C 0.74796 0.50404 0.25373 0.0
C1744 C 0.27297 0.73732 0.46835 0.0
C1745 C 0.24856 0.74467 0.47155 0.0
H1746 H 0.31152 0.74732 0.47178 0.0
C1747 C 0.2442 0.76919 0.47692 0.0
H1748 H 0.27668 0.71833 0.46473 0.0
C1749 C 0.26403 0.78557 0.48139 0.0
C1750 C 0.28847 0.77768 0.48036 0.0
H1751 H 0.22556 0.77508 0.47999 0.0
H1752 H 0.26028 0.80395 0.48738 0.0
C1753 C 0.29284 0.75381 0.47253 0.0
C1754 C 0.26328 0.23908 0.51265 0.0
C1755 C 0.28819 0.24695 0.51211 0.0
H1756 H 0.22548 0.2492 0.51401 0.0
C1757 C 0.29395 0.27219 0.51232 0.0
H1758 H 0.2583 0.21975 0.51243 0.0
C1759 C 0.27499 0.2892 0.51278 0.0
C1760 C 0.25007 0.28117 0.51349 0.0
H1761 H 0.31302 0.2787 0.51163 0.0
H1762 H 0.27977 0.30856 0.51305 0.0
C1763 C 0.2445 0.25593 0.51346 0.0
C1764 C 0.76243 0.77782 0.48519 0.0
C1765 C 0.73883 0.77021 0.49317 0.0
H1766 H 0.79938 0.76715 0.47751 0.0
C1767 C 0.73343 0.74502 0.49585 0.0
H1768 H 0.76711 0.79709 0.4831 0.0
C1769 C 0.75172 0.72788 0.49217 0.0
C1770 C 0.77582 0.73566 0.48608 0.0
H1771 H 0.71532 0.73867 0.50186 0.0
H1772 H 0.7475 0.70873 0.49581 0.0
C1773 C 0.78083 0.76071 0.48194 0.0
C1774 C 0.78753 0.26074 0.4746 0.0
C1775 C 0.78143 0.28397 0.4831 0.0
H1776 H 0.77398 0.22457 0.46552 0.0
C1777 C 0.75641 0.29 0.48435 0.0
H1778 H 0.80667 0.25566 0.47362 0.0
C1779 C 0.73779 0.27243 0.47925 0.0
C1780 C 0.74393 0.24855 0.47302 0.0
H1781 H 0.75129 0.30787 0.49075 0.0
H1782 H 0.7187 0.2769 0.48228 0.0
C1783 C 0.76888 0.24306 0.46983 0.0
C1784 C 0.51509 0.22823 0.76625 0.0
C1785 C 0.51509 0.23675 0.74172 0.0
H1786 H 0.51642 0.23802 0.80479 0.0
C1787 C 0.51681 0.26205 0.73734 0.0
H1788 H 0.51399 0.2088 0.77011 0.0
C1789 C 0.51835 0.2785 0.7569 0.0
C1790 C 0.5183 0.27013 0.7814 0.0
H1791 H 0.51671 0.26919 0.71866 0.0
H1792 H 0.51924 0.29791 0.75288 0.0
C1793 C 0.51685 0.24484 0.786 0.0
C1794 C 0.46234 0.7631 0.74857 0.0
C1795 C 0.4672 0.78712 0.75668 0.0
H1796 H 0.45835 0.72534 0.75895 0.0
C1797 C 0.46741 0.79193 0.78221 0.0
H1798 H 0.46225 0.75888 0.72904 0.0
C1799 C 0.46479 0.77282 0.79931 0.0
C1800 C 0.46225 0.74857 0.79115 0.0
H1801 H 0.47104 0.81034 0.78893 0.0
H1802 H 0.46679 0.77681 0.81882 0.0
C1803 C 0.46012 0.74396 0.76566 0.0
C1804 C 0.51917 0.7686 0.26945 0.0
C1805 C 0.5191 0.76029 0.29398 0.0
H1806 H 0.51732 0.75937 0.2313 0.0
C1807 C 0.5179 0.73499 0.29861 0.0
H1808 H 0.52008 0.78799 0.26532 0.0
C1809 C 0.51632 0.71834 0.27886 0.0
C1810 C 0.51622 0.72685 0.25431 0.0
H1811 H 0.51754 0.72818 0.31739 0.0
H1812 H 0.51545 0.69891 0.28273 0.0
C1813 C 0.51762 0.75216 0.24994 0.0
C1814 C 0.4916 0.25072 0.27644 0.0
C1815 C 0.4897 0.2262 0.26899 0.0
H1816 H 0.49697 0.28806 0.265 0.0
C1817 C 0.48834 0.22078 0.24362 0.0
H1818 H 0.49297 0.25533 0.29585 0.0
C1819 C 0.49029 0.23948 0.22599 0.0
C1820 C 0.49414 0.26384 0.23347 0.0
H1821 H 0.487 0.20196 0.23746 0.0
H1822 H 0.49046 0.23477 0.20659 0.0
C1823 C 0.49404 0.26937 0.25882 0.0
C1824 C 0.10987 0.06331 0.19526 0.0
C1825 C 0.11841 0.05659 0.17187 0.0
H1826 H 0.09257 0.09049 0.21688 0.0
C1827 C 0.11259 0.07104 0.15128 0.0
H1828 H 0.11391 0.05241 0.21145 0.0
C1829 C 0.10009 0.0929 0.15452 0.0
C1830 C 0.09373 0.10056 0.17835 0.0
H1831 H 0.11921 0.06644 0.13312 0.0
H1832 H 0.09671 0.10453 0.13871 0.0
C1833 C 0.09793 0.08518 0.1985 0.0
C1834 C 0.96547 0.07898 0.22404 0.0
C1835 C 0.94695 0.0756 0.20593 0.0
H1836 H 0.99975 0.09664 0.23421 0.0
C1837 C 0.94968 0.08761 0.1831 0.0
H1838 H 0.96414 0.06961 0.24162 0.0
C1839 C 0.97017 0.10326 0.17878 0.0
C1840 C 0.9885 0.1069 0.19712 0.0
H1841 H 0.93567 0.08533 0.16882 0.0
H1842 H 0.97147 0.11274 0.16124 0.0
C1843 C 0.98604 0.0943 0.21965 0.0
C1844 C 0.94279 0.94879 0.17099 0.0
C1845 C 0.94333 0.96517 0.19095 0.0
H1846 H 0.95569 0.91483 0.15677 0.0
C1847 C 0.96005 0.96145 0.21048 0.0
H1848 H 0.92978 0.951 0.15589 0.0
C1849 C 0.97446 0.94079 0.21115 0.0
C1850 C 0.97259 0.92329 0.19229 0.0
H1851 H 0.96089 0.97381 0.22608 0.0
H1852 H 0.9865 0.93811 0.22693 0.0
C1853 C 0.9574 0.92797 0.17164 0.0
C1854 C 0.09902 0.94031 0.16307 0.0
C1855 C 0.11835 0.93832 0.18057 0.0
H1856 H 0.06595 0.92362 0.14732 0.0
C1857 C 0.11968 0.91696 0.1947 0.0
H1858 H 0.09747 0.95664 0.15194 0.0
C1859 C 0.10186 0.89834 0.19206 0.0
C1860 C 0.08208 0.90047 0.17523 0.0
H1861 H 0.13459 0.91455 0.20784 0.0
H1862 H 0.10359 0.88224 0.20355 0.0
C1863 C 0.08097 0.92148 0.16041 0.0
C1864 C 0.06947 0.94844 0.81146 0.0
C1865 C 0.06878 0.93167 0.83117 0.0
H1866 H 0.08512 0.98168 0.79677 0.0
C1867 C 0.08381 0.93644 0.85202 0.0
H1868 H 0.05782 0.94559 0.79531 0.0
C1869 C 0.09952 0.95725 0.85289 0.0
C1870 C 0.10038 0.97386 0.833 0.0
H1871 H 0.08379 0.92382 0.86744 0.0
H1872 H 0.11115 0.96018 0.86907 0.0
C1873 C 0.085 0.96929 0.81238 0.0
C1874 C 0.05836 0.10566 0.87323 0.0
C1875 C 0.04242 0.10914 0.85296 0.0
H1876 H 0.09263 0.09054 0.88573 0.0
C1877 C 0.04709 0.09711 0.83066 0.0
H1878 H 0.05535 0.11498 0.89051 0.0
C1879 C 0.06835 0.08379 0.82785 0.0
C1880 C 0.08531 0.08183 0.84735 0.0
H1881 H 0.03504 0.0993 0.81476 0.0
H1882 H 0.07211 0.07581 0.81005 0.0
C1883 C 0.0797 0.09191 0.87044 0.0
C1884 C 0.92846 0.07374 0.82583 0.0
C1885 C 0.93041 0.09198 0.84398 0.0
H1886 H 0.91276 0.03906 0.81515 0.0
C1887 C 0.91807 0.08831 0.86646 0.0
H1888 H 0.93814 0.07581 0.80853 0.0
C1889 C 0.90339 0.06714 0.87032 0.0
C1890 C 0.90103 0.04914 0.85186 0.0
H1891 H 0.91925 0.1021 0.88075 0.0
H1892 H 0.89357 0.06509 0.88757 0.0
C1893 C 0.91405 0.05254 0.82975 0.0
C1894 C 0.93031 0.9454 0.84298 0.0
C1895 C 0.91571 0.9445 0.86413 0.0
H1896 H 0.96244 0.93276 0.82515 0.0
C1897 C 0.9245 0.93277 0.88545 0.0
H1898 H 0.92388 0.95458 0.8265 0.0
C1899 C 0.94666 0.92004 0.88475 0.0
C1900 C 0.96014 0.91921 0.86273 0.0
H1901 H 0.91334 0.93195 0.90193 0.0
H1902 H 0.95202 0.90922 0.90057 0.0
C1903 C 0.95239 0.93306 0.84235 0.0
C1904 C 0.16189 0.09142 0.08415 0.0
C1905 C 0.18601 0.0835 0.08878 0.0
H1906 H 0.13915 0.11521 0.06253 0.0
C1907 C 0.20493 0.09033 0.07256 0.0
H1908 H 0.14701 0.08627 0.0965 0.0
C1909 C 0.20042 0.10632 0.05321 0.0
C1910 C 0.17692 0.11602 0.04978 0.0
H1911 H 0.22349 0.084 0.07547 0.0
H1912 H 0.21577 0.11223 0.04173 0.0
C1913 C 0.15735 0.10775 0.06471 0.0
C1914 C 0.93112 0.19376 0.07259 0.0
C1915 C 0.91915 0.17069 0.07059 0.0
H1916 H 0.95598 0.21705 0.09328 0.0
C1917 C 0.9253 0.15217 0.08728 0.0
H1918 H 0.92657 0.20839 0.05996 0.0
C1919 C 0.94204 0.1573 0.10668 0.0
C1920 C 0.9526 0.18101 0.10966 0.0
H1921 H 0.91587 0.13444 0.08646 0.0
H1922 H 0.94573 0.14311 0.12006 0.0
C1923 C 0.94758 0.19889 0.09192 0.0
C1924 C 0.85847 0.88643 0.11274 0.0
C1925 C 0.86441 0.89507 0.08908 0.0
H1926 H 0.85294 0.89511 0.15055 0.0
C1927 C 0.87166 0.9197 0.0859 0.0
H1928 H 0.85319 0.86739 0.11572 0.0
C1929 C 0.87118 0.93581 0.10602 0.0
C1930 C 0.86351 0.92734 0.12939 0.0
H1931 H 0.87619 0.92673 0.06774 0.0
H1932 H 0.87555 0.95502 0.10304 0.0
C1933 C 0.85811 0.90233 0.13266 0.0
C1934 C 0.11008 0.81013 0.06003 0.0
C1935 C 0.11864 0.83348 0.05235 0.0
H1936 H 0.09081 0.78883 0.0874 0.0
C1937 C 0.11311 0.8538 0.06689 0.0
H1938 H 0.11402 0.79398 0.04943 0.0
C1939 C 0.09946 0.85074 0.08865 0.0
C1940 C 0.09152 0.82727 0.09653 0.0
H1941 H 0.11952 0.872 0.06159 0.0
H1942 H 0.09568 0.86665 0.09968 0.0
C1943 C 0.09691 0.80706 0.08192 0.0
C1944 C 0.16099 0.92174 0.94437 0.0
C1945 C 0.18257 0.91505 0.9569 0.0
H1946 H 0.14566 0.94235 0.91444 0.0
C1947 C 0.20531 0.92586 0.94987 0.0
H1948 H 0.14328 0.91339 0.94916 0.0
C1949 C 0.20675 0.94218 0.93013 0.0
C1950 C 0.18548 0.94816 0.9167 0.0
H1951 H 0.22227 0.92117 0.9593 0.0
H1952 H 0.22466 0.94998 0.92532 0.0
C1953 C 0.16244 0.93817 0.92438 0.0
C1954 C 0.09839 0.17145 0.94831 0.0
C1955 C 0.1061 0.19333 0.96004 0.0
H1956 H 0.07533 0.15465 0.9202 0.0
C1957 C 0.09546 0.21529 0.95248 0.0
H1958 H 0.10622 0.15422 0.95367 0.0
C1959 C 0.07808 0.21552 0.93331 0.0
C1960 C 0.0706 0.19379 0.92132 0.0
H1961 H 0.10087 0.23251 0.96107 0.0
H1962 H 0.07042 0.23278 0.92783 0.0
C1963 C 0.08065 0.17166 0.92924 0.0
C1964 C 0.80216 0.07739 0.95924 0.0
C1965 C 0.82125 0.0751 0.94212 0.0
H1966 H 0.79064 0.09249 0.99341 0.0
C1967 C 0.84417 0.08704 0.947 0.0
H1968 H 0.78445 0.06811 0.95631 0.0
C1969 C 0.84782 0.10112 0.96842 0.0
C1970 C 0.82868 0.10331 0.98557 0.0
H1971 H 0.85921 0.08569 0.93411 0.0
H1972 H 0.86557 0.11034 0.97148 0.0
C1973 C 0.80586 0.09119 0.98071 0.0
C1974 C 0.93191 0.85679 0.94257 0.0
C1975 C 0.94233 0.8351 0.93426 0.0
H1976 H 0.90873 0.87336 0.96943 0.0
C1977 C 0.93903 0.81369 0.94823 0.0
H1978 H 0.93417 0.87352 0.93201 0.0
C1979 C 0.92485 0.81359 0.96951 0.0
C1980 C 0.9133 0.83487 0.9773 0.0
H1981 H 0.94722 0.79685 0.94246 0.0
H1982 H 0.92243 0.79651 0.97947 0.0
C1983 C 0.91735 0.85666 0.9639 0.0
C1984 C 0.06581 0.20666 0.09572 0.0
C1985 C 0.06121 0.18325 0.10578 0.0
H1986 H 0.08866 0.22913 0.07233 0.0
C1987 C 0.0745 0.16349 0.09707 0.0
H1988 H 0.05565 0.22221 0.10194 0.0
C1989 C 0.09342 0.16757 0.07994 0.0
C1990 C 0.09931 0.19143 0.07157 0.0
H1991 H 0.07151 0.14535 0.10474 0.0
H1992 H 0.10443 0.15236 0.07445 0.0
C1993 C 0.08479 0.21073 0.07895 0.0
C1994 C 0.07182 0.85892 0.91867 0.0
C1995 C 0.0575 0.83768 0.91327 0.0
H1996 H 0.10493 0.87401 0.93575 0.0
C1997 C 0.06616 0.81497 0.92131 0.0
H1998 H 0.06574 0.87668 0.91271 0.0
C1999 C 0.08866 0.81344 0.93403 0.0
C2000 C 0.10296 0.83459 0.93951 0.0
H2001 H 0.05575 0.79818 0.91742 0.0
H2002 H 0.09481 0.79566 0.93983 0.0
C2003 C 0.0942 0.85741 0.93191 0.0
C2004 C 0.19589 0.07848 0.9482 0.0
C2005 C 0.1795 0.09779 0.94733 0.0
H2006 H 0.20462 0.04338 0.93418 0.0
C2007 C 0.15676 0.09451 0.93475 0.0
H2008 H 0.21314 0.0802 0.95841 0.0
C2009 C 0.15164 0.07318 0.92122 0.0
C2010 C 0.16923 0.05497 0.92023 0.0
H2011 H 0.1437 0.10909 0.93398 0.0
H2012 H 0.13518 0.07207 0.90969 0.0
C2013 C 0.19074 0.05722 0.93483 0.0
C2014 C 0.9394 0.16511 0.92766 0.0
C2015 C 0.95484 0.18581 0.92328 0.0
H2016 H 0.90877 0.14971 0.94811 0.0
C2017 C 0.95104 0.20706 0.93716 0.0
H2018 H 0.94173 0.14844 0.9173 0.0
C2019 C 0.93216 0.20783 0.95452 0.0
C2020 C 0.91652 0.18732 0.95879 0.0
H2021 H 0.96252 0.22339 0.93445 0.0
H2022 H 0.92998 0.22454 0.9648 0.0
C2023 C 0.92054 0.16581 0.94534 0.0
C2024 C 0.85669 0.93373 0.96228 0.0
C2025 C 0.83576 0.92984 0.97722 0.0
H2026 H 0.87324 0.95501 0.93309 0.0
C2027 C 0.81724 0.94723 0.97687 0.0
H2028 H 0.87131 0.9207 0.9621 0.0
C2029 C 0.81839 0.96673 0.96032 0.0
C2030 C 0.83823 0.96944 0.94401 0.0
H2031 H 0.80128 0.94526 0.98864 0.0
H2032 H 0.80299 0.97889 0.95922 0.0
C2033 C 0.85795 0.95348 0.94581 0.0
C2034 C 0.96437 0.84699 0.10782 0.0
C2035 C 0.97821 0.82621 0.11274 0.0
H2036 H 0.93151 0.86108 0.09145 0.0
C2037 C 0.96927 0.80333 0.10401 0.0
H2038 H 0.97062 0.86482 0.11442 0.0
C2039 C 0.94678 0.80116 0.09123 0.0
C2040 C 0.93288 0.82184 0.08648 0.0
H2041 H 0.97935 0.78687 0.10752 0.0
H2042 H 0.94029 0.78331 0.08495 0.0
C2043 C 0.94201 0.84484 0.09466 0.0
C2044 C 0.21943 0.94748 0.06943 0.0
C2045 C 0.20008 0.9298 0.06847 0.0
H2046 H 0.23316 0.98132 0.08448 0.0
C2047 C 0.17862 0.93377 0.08215 0.0
H2048 H 0.236 0.94526 0.05876 0.0
C2049 C 0.17694 0.95459 0.09707 0.0
C2050 C 0.19658 0.97202 0.09836 0.0
H2051 H 0.16343 0.92045 0.08183 0.0
H2052 H 0.16045 0.95682 0.10788 0.0
C2053 C 0.21767 0.96832 0.08406 0.0
C2054 C 0.87169 0.06212 0.12573 0.0
C2055 C 0.85227 0.04497 0.13006 0.0
H2056 H 0.88293 0.09601 0.10824 0.0
C2057 C 0.82906 0.04901 0.11915 0.0
H2058 H 0.88979 0.05958 0.13386 0.0
C2059 C 0.8251 0.06995 0.10499 0.0
C2060 C 0.84434 0.08723 0.10089 0.0
H2061 H 0.81363 0.03631 0.12209 0.0
H2062 H 0.8069 0.07271 0.09723 0.0
C2063 C 0.86782 0.0829 0.11103 0.0
C2064 C 0.10729 0.57711 0.65185 0.0
C2065 C 0.11299 0.56465 0.67377 0.0
H2066 H 0.09144 0.60925 0.636 0.0
C2067 C 0.10435 0.57352 0.69634 0.0
H2068 H 0.11399 0.57081 0.63428 0.0
C2069 C 0.09227 0.59552 0.69736 0.0
C2070 C 0.08811 0.60895 0.67581 0.0
H2071 H 0.10829 0.56416 0.71352 0.0
H2072 H 0.08674 0.60245 0.71512 0.0
C2073 C 0.09471 0.59915 0.65288 0.0
C2074 C 0.97483 0.6093 0.7081 0.0
C2075 C 0.97995 0.62009 0.68505 0.0
H2076 H 0.94919 0.58839 0.73001 0.0
C2077 C 0.96251 0.61704 0.66578 0.0
H2078 H 0.98776 0.61129 0.72339 0.0
C2079 C 0.94033 0.60377 0.66964 0.0
C2080 C 0.93499 0.59364 0.69293 0.0
H2081 H 0.96583 0.62519 0.64782 0.0
H2082 H 0.92709 0.60188 0.6546 0.0
C2083 C 0.95257 0.59639 0.71202 0.0
C2084 C 0.93775 0.44467 0.67344 0.0
C2085 C 0.951 0.44182 0.69573 0.0
H2086 H 0.91305 0.46712 0.65262 0.0
C2087 C 0.95301 0.46154 0.71216 0.0
H2088 H 0.93611 0.42975 0.66038 0.0
C2089 C 0.94043 0.48291 0.70747 0.0
C2090 C 0.92538 0.48501 0.68635 0.0
H2091 H 0.96368 0.46015 0.72908 0.0
H2092 H 0.94111 0.4972 0.72131 0.0
C2093 C 0.92489 0.46614 0.66881 0.0
C2094 C 0.08227 0.45092 0.71424 0.0
C2095 C 0.09778 0.4545 0.6939 0.0
H2096 H 0.05065 0.43205 0.72895 0.0
C2097 C 0.0914 0.44292 0.67138 0.0
H2098 H 0.08621 0.46005 0.73159 0.0
C2099 C 0.07063 0.42704 0.66972 0.0
C2100 C 0.05608 0.42253 0.69059 0.0
H2101 H 0.10302 0.44529 0.65536 0.0
H2102 H 0.06685 0.41725 0.65266 0.0
C2103 C 0.06172 0.43511 0.7126 0.0
C2104 C 0.0913 0.42124 0.36431 0.0
C2105 C 0.07741 0.41693 0.34261 0.0
H2106 H 0.11916 0.4435 0.38256 0.0
C2107 C 0.08079 0.43295 0.32251 0.0
H2108 H 0.08921 0.40916 0.38006 0.0
C2109 C 0.09776 0.45267 0.32395 0.0
C2110 C 0.11197 0.45679 0.34547 0.0
H2111 H 0.07011 0.43041 0.30567 0.0
H2112 H 0.0999 0.46454 0.30803 0.0
C2113 C 0.1085 0.44088 0.36569 0.0
C2114 C 0.09173 0.56802 0.3289 0.0
C2115 C 0.10465 0.56533 0.35119 0.0
H2116 H 0.06201 0.58466 0.30985 0.0
C2117 C 0.09533 0.57584 0.37275 0.0
H2118 H 0.09841 0.55982 0.31216 0.0
C2119 C 0.07436 0.59047 0.37149 0.0
C2120 C 0.0625 0.59445 0.34867 0.0
H2121 H 0.10512 0.57398 0.39015 0.0
H2122 H 0.06848 0.59984 0.38791 0.0
C2123 C 0.07086 0.58222 0.32768 0.0
C2124 C 0.94466 0.56063 0.316 0.0
C2125 C 0.94674 0.58037 0.33248 0.0
H2126 H 0.92672 0.52648 0.30707 0.0
C2127 C 0.93211 0.58003 0.35378 0.0
H2128 H 0.95601 0.56013 0.2997 0.0
C2129 C 0.91518 0.56065 0.35807 0.0
C2130 C 0.91278 0.54115 0.34124 0.0
H2131 H 0.9333 0.59505 0.36675 0.0
H2132 H 0.90374 0.56115 0.37434 0.0
C2133 C 0.92797 0.54122 0.32037 0.0
C2134 C 0.9493 0.41515 0.38577 0.0
C2135 C 0.96377 0.41261 0.36457 0.0
H2136 H 0.91549 0.42875 0.40044 0.0
C2137 C 0.95704 0.42494 0.34283 0.0
H2138 H 0.95386 0.40553 0.40263 0.0
C2139 C 0.93507 0.43746 0.34147 0.0
C2140 C 0.91959 0.43832 0.36192 0.0
H2141 H 0.96787 0.42335 0.32622 0.0
H2142 H 0.92954 0.44555 0.32409 0.0
C2143 C 0.92729 0.42811 0.38445 0.0
C2144 C 0.20256 0.59713 0.5542 0.0
C2145 C 0.18008 0.60858 0.54976 0.0
H2146 H 0.22331 0.57437 0.57827 0.0
C2147 C 0.15971 0.60281 0.5647 0.0
H2148 H 0.21848 0.60115 0.54274 0.0
C2149 C 0.16257 0.58737 0.58517 0.0
C2150 C 0.18583 0.57781 0.59081 0.0
H2151 H 0.1423 0.61168 0.56174 0.0
H2152 H 0.14718 0.58429 0.59752 0.0
C2153 C 0.20543 0.582 0.57457 0.0
C2154 C 0.92758 0.66334 0.56802 0.0
C2155 C 0.92404 0.68151 0.55013 0.0
H2156 H 0.94468 0.65442 0.60274 0.0
C2157 C 0.93725 0.70392 0.55226 0.0
H2158 H 0.91721 0.64611 0.56705 0.0
C2159 C 0.95233 0.70886 0.5727 0.0
C2160 C 0.95475 0.69142 0.59146 0.0
H2161 H 0.93485 0.71826 0.53868 0.0
H2162 H 0.96176 0.72654 0.57404 0.0
C2163 C 0.94296 0.66825 0.58856 0.0
C2164 C 0.82185 0.44032 0.60563 0.0
C2165 C 0.84368 0.45035 0.61594 0.0
H2166 H 0.80536 0.41526 0.57995 0.0
C2167 C 0.86653 0.44369 0.6062 0.0
H2168 H 0.80402 0.44557 0.61236 0.0
C2169 C 0.86741 0.4261 0.58738 0.0
C2170 C 0.84541 0.41514 0.57816 0.0
H2171 H 0.88364 0.45122 0.6139 0.0
H2172 H 0.88516 0.42032 0.58091 0.0
C2173 C 0.82268 0.42301 0.58699 0.0
C2174 C 0.0959 0.36161 0.58633 0.0
C2175 C 0.10223 0.33957 0.57513 0.0
H2176 H 0.0772 0.37834 0.61653 0.0
C2177 C 0.09234 0.31744 0.58466 0.0
H2178 H 0.10346 0.3789 0.5796 0.0
C2179 C 0.07796 0.31708 0.60585 0.0
C2180 C 0.07271 0.33886 0.61792 0.0
H2181 H 0.09662 0.30011 0.57635 0.0
H2182 H 0.07129 0.29967 0.6131 0.0
C2183 C 0.08108 0.36125 0.60754 0.0
C2184 C 0.16608 0.40495 0.46547 0.0
C2185 C 0.18606 0.40236 0.482 0.0
H2186 H 0.1534 0.42023 0.43115 0.0
C2187 C 0.2089 0.41379 0.47619 0.0
H2188 H 0.14826 0.39631 0.46931 0.0
C2189 C 0.21189 0.42704 0.4543 0.0
C2190 C 0.19206 0.42954 0.43768 0.0
H2191 H 0.22475 0.41222 0.48838 0.0
H2192 H 0.22973 0.43562 0.45054 0.0
C2193 C 0.16901 0.4186 0.44362 0.0
C2194 C 0.09256 0.7051 0.42306 0.0
C2195 C 0.08555 0.68271 0.41209 0.0
H2196 H 0.11312 0.72346 0.45169 0.0
C2197 C 0.09398 0.66094 0.42262 0.0
H2198 H 0.08609 0.72211 0.41548 0.0
C2199 C 0.10972 0.66165 0.44332 0.0
C2200 C 0.11697 0.68414 0.45409 0.0
H2201 H 0.08896 0.64345 0.41441 0.0
H2202 H 0.11639 0.64464 0.45071 0.0
C2203 C 0.10791 0.70581 0.44391 0.0
C2204 C 0.85598 0.60644 0.4502 0.0
C2205 C 0.83631 0.61032 0.46636 0.0
H2206 H 0.86813 0.58841 0.41751 0.0
C2207 C 0.81336 0.59847 0.46148 0.0
H2208 H 0.87385 0.61538 0.45331 0.0
C2209 C 0.81003 0.58339 0.44086 0.0
C2210 C 0.82962 0.5795 0.42469 0.0
H2211 H 0.79774 0.60106 0.47343 0.0
H2212 H 0.79217 0.57443 0.43784 0.0
C2213 C 0.8527 0.59105 0.42968 0.0
C2214 C 0.91627 0.36001 0.47012 0.0
C2215 C 0.91118 0.33923 0.4848 0.0
H2216 H 0.9337 0.37415 0.43728 0.0
C2217 C 0.92134 0.31687 0.47809 0.0
H2218 H 0.9087 0.37749 0.47476 0.0
C2219 C 0.93511 0.31497 0.45663 0.0
C2220 C 0.9395 0.33542 0.44154 0.0
H2221 H 0.91797 0.30047 0.48893 0.0
H2222 H 0.94212 0.29736 0.4516 0.0
C2223 C 0.93054 0.35814 0.44874 0.0
C2224 C 0.09693 0.66713 0.57428 0.0
C2225 C 0.10506 0.68996 0.56482 0.0
H2226 H 0.07157 0.64808 0.59845 0.0
C2227 C 0.09132 0.71063 0.5695 0.0
H2228 H 0.1073 0.6509 0.57083 0.0
C2229 C 0.07078 0.70893 0.58468 0.0
C2230 C 0.06377 0.68658 0.59587 0.0
H2231 H 0.09693 0.72826 0.56196 0.0
H2232 H 0.06119 0.72551 0.58879 0.0
C2233 C 0.07642 0.66545 0.58985 0.0
C2234 C 0.06849 0.34806 0.43169 0.0
C2235 C 0.05113 0.32865 0.42836 0.0
H2236 H 0.10212 0.36063 0.44966 0.0
C2237 C 0.0547 0.30673 0.44138 0.0
H2238 H 0.06638 0.36517 0.42191 0.0
C2239 C 0.07515 0.30408 0.45697 0.0
C2240 C 0.09262 0.32333 0.46025 0.0
H2241 H 0.04178 0.29134 0.43938 0.0
H2242 H 0.07712 0.28695 0.4667 0.0
C2243 C 0.08894 0.34548 0.4476 0.0
C2244 C 0.16683 0.58055 0.43862 0.0
C2245 C 0.18828 0.58512 0.45295 0.0
H2246 H 0.14677 0.55488 0.41554 0.0
C2247 C 0.20338 0.56564 0.45911 0.0
H2248 H 0.15471 0.59528 0.43395 0.0
C2249 C 0.19847 0.54253 0.44923 0.0
C2250 C 0.17857 0.53855 0.43276 0.0
H2251 H 0.2195 0.56849 0.47085 0.0
H2252 H 0.21152 0.52827 0.45275 0.0
C2253 C 0.16201 0.55736 0.42849 0.0
C2254 C 0.9481 0.70492 0.43258 0.0
C2255 C 0.93066 0.68597 0.43713 0.0
H2256 H 0.98107 0.71651 0.41422 0.0
C2257 C 0.93422 0.66298 0.42629 0.0
H2258 H 0.94626 0.72268 0.44099 0.0
C2259 C 0.95439 0.65934 0.41064 0.0
C2260 C 0.97157 0.67856 0.40581 0.0
H2261 H 0.92107 0.64801 0.42942 0.0
H2262 H 0.95632 0.64164 0.40208 0.0
C2263 C 0.96825 0.70125 0.4173 0.0
C2264 C 0.85762 0.43728 0.45536 0.0
C2265 C 0.83562 0.43408 0.46878 0.0
H2266 H 0.87656 0.45766 0.42698 0.0
C2267 C 0.8176 0.4519 0.46697 0.0
H2268 H 0.87186 0.42385 0.45649 0.0
C2269 C 0.82039 0.4712 0.45037 0.0
C2270 C 0.84127 0.47313 0.4353 0.0
H2271 H 0.80083 0.45035 0.47763 0.0
H2272 H 0.80539 0.48371 0.4481 0.0
C2273 C 0.86045 0.45674 0.43868 0.0
C2274 C 0.93152 0.31411 0.60447 0.0
C2275 C 0.91864 0.33485 0.59737 0.0
H2276 H 0.96221 0.29997 0.62435 0.0
C2277 C 0.92769 0.35805 0.60493 0.0
H2278 H 0.9251 0.29607 0.59867 0.0
C2279 C 0.94892 0.36038 0.61981 0.0
C2280 C 0.96169 0.33956 0.62711 0.0
H2281 H 0.91799 0.37435 0.59987 0.0
H2282 H 0.95511 0.37843 0.62583 0.0
C2283 C 0.95291 0.31643 0.61901 0.0
C2284 C 0.16351 0.45226 0.60984 0.0
C2285 C 0.18583 0.46565 0.61362 0.0
H2286 H 0.1461 0.4191 0.596 0.0
C2287 C 0.20795 0.45558 0.60562 0.0
H2288 H 0.14617 0.45947 0.61587 0.0
C2289 C 0.20791 0.43243 0.59483 0.0
C2290 C 0.18573 0.41893 0.5913 0.0
H2291 H 0.22551 0.46527 0.60831 0.0
H2292 H 0.22528 0.42504 0.58917 0.0
C2293 C 0.16344 0.42922 0.59849 0.0
C2294 C 0.82015 0.59177 0.58595 0.0
C2295 C 0.84131 0.60651 0.58138 0.0
H2296 H 0.80459 0.5605 0.60458 0.0
C2297 C 0.86382 0.6002 0.59251 0.0
H2298 H 0.80263 0.59612 0.57749 0.0
C2299 C 0.86492 0.57997 0.60851 0.0
C2300 C 0.84366 0.56527 0.61314 0.0
H2301 H 0.88036 0.61134 0.58938 0.0
H2302 H 0.88237 0.57587 0.6173 0.0
C2303 C 0.82136 0.57128 0.60137 0.0
C2304 C 0.59098 0.09401 0.6393 0.0
C2305 C 0.58172 0.1017 0.6621 0.0
H2306 H 0.61464 0.06895 0.62097 0.0
C2307 C 0.58509 0.08706 0.68302 0.0
H2308 H 0.58854 0.10512 0.62293 0.0
C2309 C 0.59934 0.06636 0.6818 0.0
C2310 C 0.61082 0.05997 0.65969 0.0
H2311 H 0.5778 0.09246 0.70067 0.0
H2312 H 0.60316 0.05649 0.69872 0.0
C2313 C 0.60564 0.07325 0.63811 0.0
C2314 C 0.446 0.09366 0.70372 0.0
C2315 C 0.42791 0.09104 0.68509 0.0
H2316 H 0.48163 0.10818 0.7141 0.0
C2317 C 0.4326 0.10133 0.66173 0.0
H2318 H 0.44311 0.08555 0.72174 0.0
C2319 C 0.45475 0.11447 0.65728 0.0
C2320 C 0.4728 0.11716 0.67601 0.0
H2321 H 0.41895 0.09954 0.64705 0.0
H2322 H 0.45765 0.12263 0.63926 0.0
C2323 C 0.46822 0.10641 0.69919 0.0
C2324 C 0.43727 0.94314 0.66951 0.0
C2325 C 0.45068 0.94212 0.6919 0.0
H2326 H 0.41126 0.96314 0.64767 0.0
C2327 C 0.45182 0.96279 0.70715 0.0
H2328 H 0.43628 0.92745 0.65736 0.0
C2329 C 0.43815 0.98321 0.70135 0.0
C2330 C 0.42284 0.9834 0.68027 0.0
H2331 H 0.46254 0.96277 0.72413 0.0
H2332 H 0.43808 0.99818 0.71441 0.0
C2333 C 0.42329 0.96366 0.66377 0.0
C2334 C 0.56657 0.93438 0.67365 0.0
C2335 C 0.5598 0.92169 0.69516 0.0
H2336 H 0.5907 0.9614 0.65743 0.0
C2337 C 0.57241 0.92728 0.71739 0.0
H2338 H 0.55716 0.93051 0.65629 0.0
C2339 C 0.59178 0.94456 0.71806 0.0
C2340 C 0.59909 0.95696 0.69656 0.0
H2341 H 0.56769 0.91794 0.73443 0.0
H2342 H 0.6014 0.9477 0.73541 0.0
C2343 C 0.58601 0.95191 0.67435 0.0
C2344 C 0.59647 0.91536 0.36359 0.0
C2345 C 0.58446 0.90983 0.34108 0.0
H2346 H 0.62152 0.93956 0.38325 0.0
C2347 C 0.58826 0.92567 0.3209 0.0
H2348 H 0.59398 0.90346 0.37942 0.0
C2349 C 0.60381 0.94645 0.3231 0.0
C2350 C 0.61615 0.9518 0.34548 0.0
H2351 H 0.57898 0.92218 0.30342 0.0
H2352 H 0.60637 0.95815 0.30712 0.0
C2353 C 0.61226 0.93602 0.36574 0.0
C2354 C 0.59627 0.07151 0.37136 0.0
C2355 C 0.60724 0.06163 0.3503 0.0
H2356 H 0.56801 0.09471 0.38513 0.0
C2357 C 0.59594 0.06481 0.32723 0.0
H2358 H 0.60483 0.06929 0.38935 0.0
C2359 C 0.57499 0.07877 0.32486 0.0
C2360 C 0.56492 0.09031 0.34547 0.0
H2361 H 0.60392 0.05711 0.31084 0.0
H2362 H 0.56738 0.0815 0.30652 0.0
C2363 C 0.57523 0.08591 0.36896 0.0
C2364 C 0.45021 0.05157 0.31044 0.0
C2365 C 0.45136 0.07137 0.32692 0.0
H2366 H 0.43384 0.01665 0.30155 0.0
C2367 C 0.43688 0.07027 0.3483 0.0
H2368 H 0.4615 0.05165 0.29407 0.0
C2369 C 0.42096 0.05011 0.35266 0.0
C2370 C 0.41938 0.03059 0.3358 0.0
H2371 H 0.43734 0.08529 0.36128 0.0
H2372 H 0.40955 0.05008 0.36898 0.0
C2373 C 0.43449 0.0314 0.31487 0.0
C2374 C 0.45735 0.9068 0.3804 0.0
C2375 C 0.47274 0.90639 0.35968 0.0
H2376 H 0.42207 0.91719 0.39433 0.0
C2377 C 0.4661 0.91942 0.33836 0.0
H2378 H 0.46192 0.89669 0.39695 0.0
C2379 C 0.44327 0.93026 0.33668 0.0
C2380 C 0.42697 0.92876 0.35648 0.0
H2381 H 0.47771 0.91949 0.32217 0.0
H2382 H 0.43781 0.93894 0.31956 0.0
C2383 C 0.43451 0.91812 0.37881 0.0
C2384 C 0.70431 0.07534 0.56279 0.0
C2385 C 0.68621 0.07174 0.58085 0.0
H2386 H 0.71558 0.09551 0.53081 0.0
C2387 C 0.6634 0.08326 0.57803 0.0
H2388 H 0.72176 0.06629 0.56415 0.0
C2389 C 0.6597 0.09978 0.55866 0.0
C2390 C 0.6788 0.10491 0.54204 0.0
H2391 H 0.64913 0.08088 0.59172 0.0
H2392 H 0.64289 0.11002 0.55799 0.0
C2393 C 0.70064 0.0918 0.54358 0.0
C2394 C 0.44262 0.2146 0.56918 0.0
C2395 C 0.44599 0.19543 0.58605 0.0
H2396 H 0.42553 0.22644 0.53569 0.0
C2397 C 0.43394 0.17271 0.58145 0.0
H2398 H 0.45192 0.23218 0.57193 0.0
C2399 C 0.41869 0.16935 0.56057 0.0
C2400 C 0.41542 0.18855 0.54366 0.0
H2401 H 0.43609 0.15762 0.59418 0.0
H2402 H 0.40943 0.15174 0.55773 0.0
C2403 C 0.42765 0.21118 0.54822 0.0
C2404 C 0.32628 0.9146 0.58096 0.0
C2405 C 0.34988 0.9075 0.57384 0.0
H2406 H 0.30504 0.93718 0.60412 0.0
C2407 C 0.37079 0.91986 0.58378 0.0
H2408 H 0.30976 0.90576 0.57328 0.0
C2409 C 0.36797 0.93807 0.60171 0.0
C2410 C 0.34424 0.94398 0.60982 0.0
H2411 H 0.38918 0.91469 0.57861 0.0
H2412 H 0.38427 0.94667 0.61004 0.0
C2413 C 0.32351 0.93256 0.5987 0.0
C2414 C 0.59809 0.85684 0.59057 0.0
C2415 C 0.60656 0.83434 0.58221 0.0
H2416 H 0.5779 0.87543 0.61849 0.0
C2417 C 0.59945 0.8129 0.59505 0.0
H2418 H 0.60344 0.87368 0.58122 0.0
C2419 C 0.58528 0.8139 0.61633 0.0
C2420 C 0.57755 0.83634 0.62534 0.0
H2421 H 0.6054 0.79517 0.58903 0.0
H2422 H 0.58046 0.79703 0.62584 0.0
C2423 C 0.5836 0.85782 0.61194 0.0
C2424 C 0.70767 0.90725 0.47769 0.0
C2425 C 0.68466 0.89586 0.48294 0.0
H2426 H 0.72898 0.92975 0.45308 0.0
C2427 C 0.66475 0.89957 0.46659 0.0
H2428 H 0.72347 0.90499 0.48981 0.0
C2429 C 0.66802 0.91406 0.44531 0.0
C2430 C 0.69132 0.92476 0.43984 0.0
H2431 H 0.64681 0.891 0.47001 0.0
H2432 H 0.65253 0.91644 0.43284 0.0
C2433 C 0.71097 0.92133 0.45643 0.0
C2434 C 0.60887 0.15966 0.43877 0.0
C2435 C 0.61517 0.18231 0.44971 0.0
H2436 H 0.589 0.14086 0.40968 0.0
C2437 C 0.60536 0.20367 0.43961 0.0
H2438 H 0.61614 0.14288 0.44611 0.0
C2439 C 0.59013 0.2025 0.41867 0.0
C2440 C 0.58405 0.17994 0.40757 0.0
H2441 H 0.60986 0.22142 0.44754 0.0
H2442 H 0.58304 0.21927 0.41115 0.0
C2443 C 0.59328 0.15848 0.418 0.0
C2444 C 0.32471 0.08654 0.4568 0.0
C2445 C 0.34741 0.09929 0.46011 0.0
H2446 H 0.30313 0.06143 0.4348 0.0
C2447 C 0.36702 0.09449 0.4443 0.0
H2448 H 0.30928 0.08996 0.46878 0.0
C2449 C 0.36334 0.07823 0.4245 0.0
C2450 C 0.33999 0.0668 0.42026 0.0
H2451 H 0.38452 0.10448 0.44618 0.0
H2452 H 0.37835 0.07549 0.41185 0.0
C2453 C 0.32102 0.07055 0.43709 0.0
C2454 C 0.42727 0.8104 0.47218 0.0
C2455 C 0.41825 0.83283 0.48028 0.0
H2456 H 0.44617 0.79126 0.44398 0.0
C2457 C 0.42333 0.85398 0.46614 0.0
H2458 H 0.42378 0.7937 0.4825 0.0
C2459 C 0.43664 0.85249 0.44409 0.0
C2460 C 0.44452 0.82979 0.43561 0.0
H2461 H 0.41659 0.87151 0.47182 0.0
H2462 H 0.43993 0.86884 0.43315 0.0
C2463 C 0.44 0.80889 0.45003 0.0
C2464 C 0.59221 0.16321 0.56732 0.0
C2465 C 0.60036 0.18605 0.5579 0.0
H2466 H 0.56589 0.14405 0.59038 0.0
C2467 C 0.58564 0.20635 0.56092 0.0
H2468 H 0.60331 0.14726 0.56507 0.0
C2469 C 0.56409 0.20438 0.57464 0.0
C2470 C 0.55705 0.18217 0.58608 0.0
H2471 H 0.59128 0.22395 0.55333 0.0
H2472 H 0.5538 0.22076 0.57773 0.0
C2473 C 0.57069 0.16129 0.5815 0.0
C2474 C 0.5705 0.83925 0.42916 0.0
C2475 C 0.55244 0.82045 0.42597 0.0
H2476 H 0.60324 0.8516 0.44869 0.0
C2477 C 0.55353 0.7996 0.44109 0.0
H2478 H 0.57022 0.85557 0.41781 0.0
C2479 C 0.57237 0.79734 0.45864 0.0
C2480 C 0.59065 0.8159 0.46167 0.0
H2481 H 0.5399 0.78479 0.43929 0.0
H2482 H 0.5725 0.78104 0.46998 0.0
C2483 C 0.58937 0.83703 0.44691 0.0
C2484 C 0.66767 0.07946 0.4348 0.0
C2485 C 0.68843 0.08481 0.44987 0.0
H2486 H 0.64799 0.05224 0.41328 0.0
C2487 C 0.70257 0.06558 0.45872 0.0
H2488 H 0.65621 0.09402 0.42818 0.0
C2489 C 0.69744 0.04174 0.45088 0.0
C2490 C 0.67832 0.0367 0.43373 0.0
H2491 H 0.71805 0.06909 0.47115 0.0
H2492 H 0.7098 0.02752 0.45657 0.0
C2493 C 0.66266 0.05552 0.4267 0.0
C2494 C 0.46297 0.19399 0.4087 0.0
C2495 C 0.46934 0.171 0.39953 0.0
H2496 H 0.43744 0.21464 0.42944 0.0
C2497 C 0.45437 0.15045 0.40583 0.0
H2498 H 0.47393 0.21029 0.40435 0.0
C2499 C 0.43339 0.15304 0.42068 0.0
C2500 C 0.42674 0.17626 0.42905 0.0
H2501 H 0.45869 0.13248 0.39908 0.0
H2502 H 0.42193 0.13706 0.42497 0.0
C2503 C 0.44192 0.19659 0.42304 0.0
C2504 C 0.32307 0.9412 0.46123 0.0
C2505 C 0.34151 0.92398 0.46426 0.0
H2506 H 0.31066 0.97205 0.4409 0.0
C2507 C 0.36382 0.92722 0.45135 0.0
H2508 H 0.30603 0.93962 0.47146 0.0
C2509 C 0.36668 0.94615 0.4341 0.0
C2510 C 0.34721 0.96193 0.42959 0.0
H2511 H 0.37839 0.91424 0.45336 0.0
H2512 H 0.38315 0.94712 0.4229 0.0
C2513 C 0.32588 0.95997 0.44403 0.0
C2514 C 0.44067 0.81083 0.60355 0.0
C2515 C 0.42693 0.83072 0.59565 0.0
H2516 H 0.471 0.79854 0.62519 0.0
C2517 C 0.43426 0.8544 0.60342 0.0
H2518 H 0.4356 0.79246 0.59761 0.0
C2519 C 0.45452 0.85799 0.61941 0.0
C2520 C 0.46802 0.83798 0.62766 0.0
H2521 H 0.42386 0.87007 0.59774 0.0
H2522 H 0.4593 0.87634 0.62565 0.0
C2523 C 0.46107 0.81441 0.61922 0.0
C2524 C 0.66693 0.92132 0.59915 0.0
C2525 C 0.68915 0.90986 0.59358 0.0
H2526 H 0.64987 0.95222 0.61568 0.0
C2527 C 0.71158 0.92172 0.6002 0.0
H2528 H 0.64933 0.91255 0.59444 0.0
C2529 C 0.71192 0.94438 0.61205 0.0
C2530 C 0.68979 0.95581 0.61793 0.0
H2531 H 0.72899 0.91357 0.59594 0.0
H2532 H 0.72967 0.95284 0.61679 0.0
C2533 C 0.66724 0.94398 0.61139 0.0
C2534 C 0.3547 0.09548 0.58571 0.0
C2535 C 0.33286 0.09844 0.57184 0.0
H2536 H 0.37353 0.07457 0.61337 0.0
C2537 C 0.31332 0.08123 0.57488 0.0
H2538 H 0.37005 0.10847 0.58384 0.0
C2539 C 0.31539 0.06172 0.59144 0.0
C2540 C 0.33696 0.05896 0.60575 0.0
H2541 H 0.2964 0.08271 0.56425 0.0
H2542 H 0.29981 0.04898 0.59328 0.0
C2543 C 0.35665 0.07609 0.60265 0.0
C2544 C 0.59367 0.59084 0.14179 0.0
C2545 C 0.58367 0.59799 0.16441 0.0
H2546 H 0.61689 0.56538 0.1235 0.0
C2547 C 0.58549 0.58255 0.18491 0.0
H2548 H 0.59234 0.60262 0.12577 0.0
C2549 C 0.59888 0.5613 0.18353 0.0
C2550 C 0.61112 0.55525 0.16172 0.0
H2551 H 0.5776 0.58768 0.20238 0.0
H2552 H 0.60129 0.55059 0.20019 0.0
C2553 C 0.60746 0.56951 0.14045 0.0
C2554 C 0.45745 0.5769 0.21367 0.0
C2555 C 0.43855 0.57306 0.19605 0.0
H2556 H 0.49156 0.59536 0.22295 0.0
C2557 C 0.44026 0.58531 0.17324 0.0
H2558 H 0.45687 0.56742 0.23123 0.0
C2559 C 0.4602 0.60154 0.16845 0.0
C2560 C 0.479 0.6055 0.18624 0.0
H2561 H 0.42591 0.58271 0.15936 0.0
H2562 H 0.46077 0.61111 0.15093 0.0
C2563 C 0.47748 0.59277 0.20878 0.0
C2564 C 0.43574 0.41284 0.19705 0.0
C2565 C 0.45815 0.41297 0.1844 0.0
H2566 H 0.40395 0.43245 0.20683 0.0
C2567 C 0.46448 0.43327 0.16935 0.0
H2568 H 0.43006 0.39728 0.20825 0.0
C2569 C 0.44932 0.45376 0.16846 0.0
C2570 C 0.42774 0.45402 0.1826 0.0
H2571 H 0.48169 0.4338 0.15934 0.0
H2572 H 0.45511 0.46973 0.15792 0.0
C2573 C 0.42076 0.433 0.19612 0.0
C2574 C 0.5947 0.43739 0.2007 0.0
C2575 C 0.60947 0.444 0.18051 0.0
H2576 H 0.56549 0.41426 0.21439 0.0
C2577 C 0.60415 0.43325 0.15733 0.0
H2578 H 0.59776 0.44574 0.2186 0.0
C2579 C 0.58519 0.41538 0.15478 0.0
C2580 C 0.57146 0.40797 0.17543 0.0
H2581 H 0.61524 0.4379 0.14139 0.0
H2582 H 0.58225 0.40644 0.13713 0.0
C2583 C 0.57599 0.41956 0.1982 0.0
C2584 C 0.57446 0.44041 0.80605 0.0
C2585 C 0.57295 0.42432 0.82629 0.0
H2586 H 0.58944 0.47395 0.79143 0.0
C2587 C 0.58593 0.43058 0.8481 0.0
H2588 H 0.56437 0.43641 0.78912 0.0
C2589 C 0.60037 0.45226 0.84948 0.0
C2590 C 0.60196 0.46825 0.82912 0.0
H2591 H 0.58526 0.41853 0.86397 0.0
H2592 H 0.61041 0.45638 0.86643 0.0
C2593 C 0.5887 0.4621 0.80747 0.0
C2594 C 0.56384 0.58233 0.82515 0.0
C2595 C 0.58143 0.57976 0.84403 0.0
H2596 H 0.53091 0.59937 0.8132 0.0
C2597 C 0.5771 0.59019 0.86729 0.0
H2598 H 0.5665 0.57405 0.80728 0.0
C2599 C 0.55652 0.60483 0.87079 0.0
C2600 C 0.54009 0.60892 0.85107 0.0
H2601 H 0.59046 0.58838 0.88213 0.0
H2602 H 0.55455 0.61438 0.88812 0.0
C2603 C 0.54339 0.59664 0.82866 0.0
C2604 C 0.43252 0.56983 0.8202 0.0
C2605 C 0.43278 0.58797 0.83852 0.0
H2606 H 0.41953 0.53424 0.80904 0.0
C2607 C 0.42026 0.58323 0.8607 0.0
H2608 H 0.44238 0.57275 0.80312 0.0
C2609 C 0.40711 0.56108 0.86416 0.0
C2610 C 0.40645 0.54313 0.84559 0.0
H2611 H 0.42012 0.59689 0.87511 0.0
H2612 H 0.39715 0.55822 0.88121 0.0
C2613 C 0.41961 0.54764 0.82373 0.0
C2614 C 0.43005 0.42628 0.87684 0.0
C2615 C 0.42097 0.43715 0.8552 0.0
H2616 H 0.45791 0.40354 0.89249 0.0
C2617 C 0.43537 0.43769 0.83393 0.0
H2618 H 0.41908 0.42592 0.89345 0.0
C2619 C 0.45759 0.42568 0.83353 0.0
C2620 C 0.46554 0.41248 0.85426 0.0
H2621 H 0.42875 0.44642 0.81727 0.0
H2622 H 0.46757 0.42505 0.81631 0.0
C2623 C 0.4523 0.41381 0.87637 0.0
C2624 C 0.70286 0.58823 0.068 0.0
C2625 C 0.68396 0.58134 0.08421 0.0
H2626 H 0.71359 0.61018 0.03715 0.0
C2627 C 0.6598 0.58912 0.07952 0.0
H2628 H 0.72146 0.58203 0.07096 0.0
C2629 C 0.65517 0.60541 0.06008 0.0
C2630 C 0.6747 0.6138 0.04518 0.0
H2631 H 0.64493 0.58396 0.09185 0.0
H2632 H 0.63695 0.61282 0.05795 0.0
C2633 C 0.69825 0.60416 0.0486 0.0
C2634 C 0.42742 0.66444 0.09918 0.0
C2635 C 0.43863 0.68749 0.10406 0.0
H2636 H 0.40222 0.64338 0.07628 0.0
C2637 C 0.43312 0.70718 0.08849 0.0
H2638 H 0.43127 0.64895 0.11092 0.0
C2639 C 0.41682 0.70396 0.06852 0.0
C2640 C 0.40536 0.68101 0.06375 0.0
H2641 H 0.44175 0.72504 0.09149 0.0
H2642 H 0.41301 0.71962 0.05699 0.0
C2643 C 0.41082 0.66126 0.07934 0.0
C2644 C 0.3315 0.41585 0.10742 0.0
C2645 C 0.35283 0.42738 0.11722 0.0
H2646 H 0.31612 0.39088 0.08106 0.0
C2647 C 0.37574 0.42346 0.10599 0.0
H2648 H 0.31358 0.41898 0.11528 0.0
C2649 C 0.37731 0.40715 0.08609 0.0
C2650 C 0.35596 0.3947 0.07726 0.0
H2651 H 0.39249 0.43216 0.11327 0.0
H2652 H 0.39521 0.40351 0.07838 0.0
C2653 C 0.33303 0.3998 0.08772 0.0
C2654 C 0.59787 0.30819 0.08158 0.0
C2655 C 0.59348 0.32875 0.09612 0.0
H2656 H 0.61326 0.2943 0.04847 0.0
C2657 C 0.60154 0.35194 0.08758 0.0
H2658 H 0.59165 0.29017 0.08759 0.0
C2659 C 0.61431 0.35438 0.06523 0.0
C2660 C 0.6187 0.33372 0.05068 0.0
H2661 H 0.59846 0.36808 0.09852 0.0
H2662 H 0.62081 0.37237 0.05938 0.0
C2663 C 0.61007 0.31066 0.05905 0.0
C2664 C 0.70323 0.43053 0.95289 0.0
C2665 C 0.68116 0.41738 0.95801 0.0
H2666 H 0.7221 0.45626 0.92957 0.0
C2667 C 0.66007 0.42174 0.9436 0.0
H2668 H 0.71978 0.42756 0.96375 0.0
C2669 C 0.66153 0.43808 0.92355 0.0
C2670 C 0.68409 0.45024 0.91766 0.0
H2671 H 0.64297 0.41151 0.94687 0.0
H2672 H 0.6453 0.44039 0.91207 0.0
C2673 C 0.70468 0.44673 0.93304 0.0
C2674 C 0.59092 0.71521 0.95264 0.0
C2675 C 0.6028 0.69348 0.95873 0.0
H2676 H 0.56431 0.73264 0.9297 0.0
C2677 C 0.59577 0.67189 0.94609 0.0
H2678 H 0.59575 0.73218 0.962 0.0
C2679 C 0.57751 0.6722 0.92752 0.0
C2680 C 0.56615 0.69414 0.92107 0.0
H2681 H 0.60455 0.65484 0.95032 0.0
H2682 H 0.57279 0.65545 0.91774 0.0
C2683 C 0.57294 0.71555 0.934 0.0
C2684 C 0.31092 0.56568 0.95511 0.0
C2685 C 0.32947 0.56505 0.93731 0.0
H2686 H 0.29902 0.58081 0.98906 0.0
C2687 C 0.35206 0.57783 0.94182 0.0
H2688 H 0.29368 0.55542 0.95257 0.0
C2689 C 0.35529 0.59233 0.96303 0.0
C2690 C 0.336 0.594 0.97998 0.0
H2691 H 0.36674 0.57746 0.92842 0.0
H2692 H 0.37211 0.60335 0.96531 0.0
C2693 C 0.31418 0.5799 0.9762 0.0
C2694 C 0.44377 0.30828 0.94282 0.0
C2695 C 0.44634 0.32958 0.92856 0.0
H2696 H 0.42854 0.29121 0.97481 0.0
C2697 C 0.43606 0.35125 0.93713 0.0
H2698 H 0.45184 0.29146 0.93681 0.0
C2699 C 0.42227 0.35115 0.959 0.0
C2700 C 0.41893 0.32945 0.97275 0.0
H2701 H 0.43779 0.3679 0.92636 0.0
H2702 H 0.41365 0.3678 0.96469 0.0
C2703 C 0.43044 0.30824 0.96467 0.0
C2704 C 0.56534 0.66171 0.08864 0.0
C2705 C 0.55086 0.68159 0.09481 0.0
H2706 H 0.59807 0.65021 0.07047 0.0
C2707 C 0.55649 0.70467 0.08444 0.0
H2708 H 0.56164 0.64383 0.09665 0.0
C2709 C 0.57754 0.70843 0.07023 0.0
C2710 C 0.59309 0.68908 0.06563 0.0
H2711 H 0.54552 0.72031 0.08876 0.0
H2712 H 0.58212 0.72663 0.06347 0.0
C2713 C 0.58631 0.66544 0.07397 0.0
C2714 C 0.59458 0.35435 0.92776 0.0
C2715 C 0.60369 0.33226 0.93685 0.0
H2716 H 0.56623 0.37167 0.90663 0.0
C2717 C 0.58998 0.31047 0.93253 0.0
H2718 H 0.60488 0.37137 0.93075 0.0
C2719 C 0.5678 0.31064 0.91916 0.0
C2720 C 0.55898 0.33256 0.90937 0.0
H2721 H 0.59646 0.29325 0.93956 0.0
H2722 H 0.55788 0.29342 0.91601 0.0
C2723 C 0.57255 0.35447 0.91391 0.0
C2724 C 0.6475 0.57429 0.91777 0.0
C2725 C 0.66446 0.55547 0.91733 0.0
H2726 H 0.64064 0.61073 0.92972 0.0
C2727 C 0.68591 0.55738 0.93206 0.0
H2728 H 0.63118 0.57348 0.90604 0.0
C2729 C 0.69168 0.5788 0.94498 0.0
C2730 C 0.67595 0.59862 0.94358 0.0
H2731 H 0.69938 0.54313 0.93172 0.0
H2732 H 0.70889 0.5802 0.95528 0.0
C2733 C 0.65321 0.59576 0.93088 0.0
C2734 C 0.41695 0.70242 0.9439 0.0
C2735 C 0.40509 0.68009 0.95002 0.0
H2736 H 0.4461 0.72079 0.92429 0.0
C2737 C 0.41456 0.65835 0.94061 0.0
H2738 H 0.41024 0.71941 0.95104 0.0
C2739 C 0.43506 0.65909 0.92482 0.0
C2740 C 0.44685 0.68155 0.91865 0.0
H2741 H 0.40568 0.64089 0.94495 0.0
H2742 H 0.44163 0.64214 0.91742 0.0
C2743 C 0.43764 0.70313 0.92865 0.0
C2744 C 0.3642 0.44588 0.93891 0.0
C2745 C 0.34469 0.46205 0.93697 0.0
H2746 H 0.37679 0.41265 0.95498 0.0
C2747 C 0.32451 0.45937 0.95289 0.0
H2748 H 0.37973 0.44739 0.92649 0.0
C2749 C 0.3227 0.43954 0.96896 0.0
C2750 C 0.341 0.42196 0.96933 0.0
H2751 H 0.30927 0.47171 0.95167 0.0
H2752 H 0.30644 0.43742 0.9803 0.0
C2753 C 0.36234 0.42588 0.95502 0.0
C2754 C 0.4734 0.30047 0.09922 0.0
C2755 C 0.4815 0.32348 0.10828 0.0
H2756 H 0.445 0.2798 0.07996 0.0
C2757 C 0.46691 0.34381 0.10374 0.0
H2758 H 0.4841 0.28436 0.1025 0.0
C2759 C 0.44457 0.34112 0.09073 0.0
C2760 C 0.4362 0.318 0.08227 0.0
H2761 H 0.47253 0.36173 0.1106 0.0
H2762 H 0.43348 0.35703 0.08787 0.0
C2763 C 0.4509 0.29774 0.08653 0.0
C2764 C 0.67789 0.43161 0.08165 0.0
C2765 C 0.69986 0.42719 0.06893 0.0
H2766 H 0.65908 0.45496 0.10669 0.0
C2767 C 0.71968 0.44424 0.07128 0.0
H2768 H 0.66231 0.41879 0.0803 0.0
C2769 C 0.7178 0.46494 0.08611 0.0
C2770 C 0.69609 0.4692 0.09928 0.0
H2771 H 0.7367 0.44171 0.06144 0.0
H2772 H 0.73361 0.47749 0.08746 0.0
C2773 C 0.67607 0.45231 0.09679 0.0
C2774 C 0.3198 0.54353 0.11037 0.0
C2775 C 0.34279 0.54123 0.12235 0.0
H2776 H 0.29687 0.56516 0.08717 0.0
C2777 C 0.36097 0.55988 0.11896 0.0
H2778 H 0.3053 0.52962 0.11245 0.0
C2779 C 0.35608 0.58038 0.10415 0.0
C2780 C 0.33278 0.58287 0.09281 0.0
H2781 H 0.37887 0.55876 0.12793 0.0
H2782 H 0.37027 0.59459 0.10207 0.0
C2783 C 0.31483 0.56407 0.09598 0.0
loop_
_geom_bond_atom_site_label_1
_geom_bond_atom_site_label_2
_geom_bond_distance
_geom_bond_site_symmetry_2
_ccdc_geom_bond_type
C0 C1 1.351 . S
C0 N3 1.368 . S
C0 H5 0.931 1_655 S
C1 C0 1.351 . S
C1 N2 1.373 . S
C1 H29 0.930 . S
N2 C1 1.373 . S
N2 C4 1.340 . S
N3 C0 1.368 . S
N3 C4 1.321 . S
N3 Co6 2.135 1_655 S
C4 N2 1.340 . S
C4 N3 1.321 . S
C4 H28 0.930 . S
H5 C0 0.931 1_455 S
Co6 N3 2.135 1_455 S
Co6 N9 2.121 . S
Co6 O14 2.055 . S
Co6 O17 2.039 1_455 S
Co6 N20 2.140 . S
C7 O8 1.227 . S
C7 O17 1.265 . S
O8 C7 1.227 . S
N9 Co6 2.121 . S
N9 C11 1.375 . S
N9 C12 1.313 . S
C10 C11 1.338 . S
C10 N13 1.377 . S
C10 H30 0.930 . S
C11 N9 1.375 . S
C11 C10 1.338 . S
C11 H15 0.931 . S
C12 N9 1.313 . S
C12 N13 1.344 . S
C12 H16 0.930 . S
N13 C10 1.377 . S
N13 C12 1.344 . S
O14 Co6 2.055 . S
O14 C18 1.253 . S
H15 C11 0.931 . S
H16 C12 0.930 . S
O17 Co6 2.039 1_655 S
O17 C7 1.265 . S
C18 O14 1.253 . S
C18 O19 1.227 . S
O19 C18 1.227 . S
N20 Co6 2.140 . S
N20 C23 1.346 1_455 S
N20 C24 1.345 . S
C21 C22 1.387 1_455 S
C21 C25 1.391 . S
C22 C21 1.387 1_655 S
C22 C23 1.369 . S
C22 H31 0.929 . S
C23 N20 1.346 1_655 S
C23 C22 1.369 . S
C23 H26 0.928 . S
C24 N20 1.345 . S
C24 C25 1.371 . S
C24 H27 0.931 . S
C25 C21 1.391 . S
C25 C24 1.371 . S
C25 H32 0.930 . S
H26 C23 0.928 . S
H27 C24 0.931 . S
H28 C4 0.930 . S
H29 C1 0.930 . S
H30 C10 0.930 . S
H31 C22 0.929 . S
H32 C25 0.930 . S
C33 C34 1.351 . S
C33 N36 1.368 . S
C33 H38 0.931 . S
C34 C33 1.351 . S
C34 N35 1.373 . S
C34 H62 0.930 . S
N35 C34 1.373 . S
N35 C37 1.340 . S
N36 C33 1.368 . S
N36 C37 1.321 . S
N36 Co39 2.135 . S
C37 N35 1.340 . S
C37 N36 1.321 . S
C37 H61 0.930 . S
H38 C33 0.931 . S
Co39 N36 2.135 . S
Co39 N42 2.121 1_545 S
Co39 O47 2.055 1_545 S
Co39 O50 2.039 . S
Co39 N53 2.140 . S
C40 O41 1.227 . S
C40 O50 1.265 . S
O41 C40 1.227 . S
N42 Co39 2.121 1_565 S
N42 C44 1.375 . S
N42 C45 1.313 . S
C43 C44 1.338 . S
C43 N46 1.377 . S
C43 H63 0.930 . S
C44 N42 1.375 . S
C44 C43 1.338 . S
C44 H48 0.910 1_565 S
C45 N42 1.313 . S
C45 N46 1.344 . S
C45 H49 0.930 . S
N46 C43 1.377 . S
N46 C45 1.344 . S
O47 Co39 2.055 1_565 S
O47 C51 1.253 . S
H48 C44 0.910 1_545 S
H49 C45 0.930 . S
O50 Co39 2.039 . S
O50 C40 1.265 . S
C51 O47 1.253 . S
C51 O52 1.227 . S
O52 C51 1.227 . S
N53 Co39 2.140 . S
N53 C56 1.346 . S
N53 C57 1.345 1_545 S
C54 C55 1.387 . S
C54 C58 1.391 1_545 S
C55 C54 1.387 . S
C55 C56 1.369 . S
C55 H64 0.929 . S
C56 N53 1.346 . S
C56 C55 1.369 . S
C56 H59 0.928 . S
C57 N53 1.345 1_565 S
C57 C58 1.371 . S
C57 H60 0.931 . S
C58 C54 1.391 1_565 S
C58 C57 1.371 . S
C58 H65 0.930 . S
H59 C56 0.928 . S
H60 C57 0.931 . S
H61 C37 0.930 . S
H62 C34 0.930 . S
H63 C43 0.930 . S
H64 C55 0.929 . S
H65 C58 0.930 . S
C66 C67 1.351 . S
C66 N69 1.368 . S
C66 H71 0.931 1_655 S
C67 C66 1.351 . S
C67 N68 1.373 . S
C67 H95 0.930 . S
N68 C67 1.373 . S
N68 C70 1.340 . S
N69 C66 1.368 . S
N69 C70 1.321 . S
N69 Co72 2.135 1_655 S
C70 N68 1.340 . S
C70 N69 1.321 . S
C70 H94 0.930 . S
H71 C66 0.931 1_455 S
Co72 N69 2.135 1_455 S
Co72 N75 2.121 . S
Co72 O80 2.055 . S
Co72 O83 2.039 1_455 S
Co72 N86 2.140 . S
C73 O74 1.227 . S
C73 O83 1.265 . S
O74 C73 1.227 . S
N75 Co72 2.121 . S
N75 C77 1.375 . S
N75 C78 1.313 . S
C76 C77 1.338 . S
C76 N79 1.377 . S
C76 H96 0.930 . S
C77 N75 1.375 . S
C77 C76 1.338 . S
C77 H81 0.931 . S
C78 N75 1.313 . S
C78 N79 1.344 . S
C78 H82 0.930 . S
N79 C76 1.377 . S
N79 C78 1.344 . S
O80 Co72 2.055 . S
O80 C84 1.253 . S
H81 C77 0.931 . S
H82 C78 0.930 . S
O83 Co72 2.039 1_655 S
O83 C73 1.265 . S
C84 O80 1.253 . S
C84 O85 1.227 . S
O85 C84 1.227 . S
N86 Co72 2.140 . S
N86 C89 1.346 1_455 S
N86 C90 1.345 . S
C87 C88 1.387 1_455 S
C87 C91 1.391 . S
C88 C87 1.387 1_655 S
C88 C89 1.369 . S
C88 H97 0.929 . S
C89 N86 1.346 1_655 S
C89 C88 1.369 . S
C89 H92 0.928 . S
C90 N86 1.345 . S
C90 C91 1.371 . S
C90 H93 0.931 . S
C91 C87 1.391 . S
C91 C90 1.371 . S
C91 H98 0.930 . S
H92 C89 0.928 . S
H93 C90 0.931 . S
H94 C70 0.930 . S
H95 C67 0.930 . S
H96 C76 0.930 . S
H97 C88 0.929 . S
H98 C91 0.930 . S
C99 C100 1.351 . S
C99 N102 1.368 . S
C99 H104 0.931 1_565 S
C100 C99 1.351 . S
C100 N101 1.373 . S
C100 H128 0.930 . S
N101 C100 1.373 . S
N101 C103 1.340 . S
N102 C99 1.368 . S
N102 C103 1.321 . S
N102 Co105 2.135 1_565 S
C103 N101 1.340 . S
C103 N102 1.321 . S
C103 H127 0.930 . S
H104 C99 0.931 1_545 S
Co105 N102 2.135 1_545 S
Co105 N108 2.121 . S
Co105 O113 2.055 . S
Co105 O116 2.039 1_545 S
Co105 N119 2.140 . S
C106 O107 1.227 . S
C106 O116 1.265 . S
O107 C106 1.227 . S
N108 Co105 2.121 . S
N108 C110 1.375 . S
N108 C111 1.313 . S
C109 C110 1.338 . S
C109 N112 1.377 . S
C109 H129 0.930 . S
C110 N108 1.375 . S
C110 C109 1.338 . S
C110 H114 0.931 . S
C111 N108 1.313 . S
C111 N112 1.344 . S
C111 H115 0.930 . S
N112 C109 1.377 . S
N112 C111 1.344 . S
O113 Co105 2.055 . S
O113 C117 1.253 . S
H114 C110 0.931 . S
H115 C111 0.930 . S
O116 Co105 2.039 1_565 S
O116 C106 1.265 . S
C117 O113 1.253 . S
C117 O118 1.227 . S
O118 C117 1.227 . S
N119 Co105 2.140 . S
N119 C122 1.346 1_545 S
N119 C123 1.345 . S
C120 C121 1.387 1_545 S
C120 C124 1.391 . S
C121 C120 1.387 1_565 S
C121 C122 1.369 . S
C121 H130 0.929 . S
C122 N119 1.346 1_565 S
C122 C121 1.369 . S
C122 H125 0.928 . S
C123 N119 1.345 . S
C123 C124 1.371 . S
C123 H126 0.931 . S
C124 C120 1.391 . S
C124 C123 1.371 . S
C124 H131 0.930 . S
H125 C122 0.928 . S
H126 C123 0.931 . S
H127 C103 0.930 . S
H128 C100 0.930 . S
H129 C109 0.930 . S
H130 C121 0.929 . S
H131 C124 0.930 . S
C132 C133 1.351 . S
C132 N135 1.368 . S
C132 H137 0.931 . S
C133 C132 1.351 . S
C133 N134 1.373 . S
C133 H161 0.930 . S
N134 C133 1.373 . S
N134 C136 1.340 . S
N135 C132 1.368 . S
N135 C136 1.321 . S
N135 Co138 2.135 . S
C136 N134 1.340 . S
C136 N135 1.321 . S
C136 H160 0.930 . S
H137 C132 0.931 . S
Co138 N135 2.135 . S
Co138 N141 2.121 1_455 S
Co138 O146 2.055 1_455 S
Co138 O149 2.039 . S
Co138 N152 2.140 . S
C139 O140 1.227 . S
C139 O149 1.265 . S
O140 C139 1.227 . S
N141 Co138 2.121 1_655 S
N141 C143 1.375 . S
N141 C144 1.313 . S
C142 C143 1.338 . S
C142 N145 1.377 . S
C142 H162 0.930 . S
C143 N141 1.375 . S
C143 C142 1.338 . S
C143 H147 0.931 1_655 S
C144 N141 1.313 . S
C144 N145 1.344 . S
C144 H148 0.930 . S
N145 C142 1.377 . S
N145 C144 1.344 . S
O146 Co138 2.055 1_655 S
O146 C150 1.253 . S
H147 C143 0.931 1_455 S
H148 C144 0.930 . S
O149 Co138 2.039 . S
O149 C139 1.265 . S
C150 O146 1.253 . S
C150 O151 1.227 . S
O151 C150 1.227 . S
N152 Co138 2.140 . S
N152 C155 1.346 . S
N152 C156 1.345 1_455 S
C153 C154 1.387 . S
C153 C157 1.391 1_455 S
C154 C153 1.387 . S
C154 C155 1.369 . S
C154 H163 0.929 . S
C155 N152 1.346 . S
C155 C154 1.369 . S
C155 H158 0.928 . S
C156 N152 1.345 1_655 S
C156 C157 1.371 . S
C156 H159 0.931 . S
C157 C153 1.391 1_655 S
C157 C156 1.371 . S
C157 H164 0.930 . S
H158 C155 0.928 . S
H159 C156 0.931 . S
H160 C136 0.930 . S
H161 C133 0.930 . S
H162 C142 0.930 . S
H163 C154 0.929 . S
H164 C157 0.930 . S
C165 C166 1.351 . S
C165 N168 1.368 . S
C165 H170 0.931 1_565 S
C166 C165 1.351 . S
C166 N167 1.373 . S
C166 H194 0.930 . S
N167 C166 1.373 . S
N167 C169 1.340 . S
N168 C165 1.368 . S
N168 C169 1.321 . S
N168 Co171 2.135 1_565 S
C169 N167 1.340 . S
C169 N168 1.321 . S
C169 H193 0.930 . S
H170 C165 0.931 1_545 S
Co171 N168 2.135 1_545 S
Co171 N174 2.121 . S
Co171 O179 2.055 . S
Co171 O182 2.039 1_545 S
Co171 N185 2.140 . S
C172 O173 1.227 . S
C172 O182 1.265 . S
O173 C172 1.227 . S
N174 Co171 2.121 . S
N174 C176 1.375 . S
N174 C177 1.313 . S
C175 C176 1.338 . S
C175 N178 1.377 . S
C175 H195 0.930 . S
C176 N174 1.375 . S
C176 C175 1.338 . S
C176 H180 0.931 . S
C177 N174 1.313 . S
C177 N178 1.344 . S
C177 H181 0.930 . S
N178 C175 1.377 . S
N178 C177 1.344 . S
O179 Co171 2.055 . S
O179 C183 1.253 . S
H180 C176 0.931 . S
H181 C177 0.930 . S
O182 Co171 2.039 1_565 S
O182 C172 1.265 . S
C183 O179 1.253 . S
C183 O184 1.227 . S
O184 C183 1.227 . S
N185 Co171 2.140 . S
N185 C188 1.346 1_545 S
N185 C189 1.345 . S
C186 C187 1.387 1_545 S
C186 C190 1.391 . S
C187 C186 1.387 1_565 S
C187 C188 1.369 . S
C187 H196 0.929 . S
C188 N185 1.346 1_565 S
C188 C187 1.369 . S
C188 H191 0.928 . S
C189 N185 1.345 . S
C189 C190 1.371 . S
C189 H192 0.931 . S
C190 C186 1.391 . S
C190 C189 1.371 . S
C190 H197 0.930 . S
H191 C188 0.928 . S
H192 C189 0.931 . S
H193 C169 0.930 . S
H194 C166 0.930 . S
H195 C175 0.930 . S
H196 C187 0.929 . S
H197 C190 0.930 . S
C198 C199 1.351 . S
C198 N201 1.368 . S
C198 H203 0.931 1_655 S
C199 C198 1.351 . S
C199 N200 1.373 . S
C199 H227 0.930 . S
N200 C199 1.373 . S
N200 C202 1.340 . S
N201 C198 1.368 . S
N201 C202 1.321 . S
N201 Co204 2.135 1_655 S
C202 N200 1.340 . S
C202 N201 1.321 . S
C202 H226 0.930 . S
H203 C198 0.931 1_455 S
Co204 N201 2.135 1_455 S
Co204 N207 2.121 . S
Co204 O212 2.055 . S
Co204 O215 2.039 1_455 S
Co204 N218 2.140 . S
C205 O206 1.227 . S
C205 O215 1.265 . S
O206 C205 1.227 . S
N207 Co204 2.121 . S
N207 C209 1.375 . S
N207 C210 1.313 . S
C208 C209 1.338 . S
C208 N211 1.377 . S
C208 H228 0.930 . S
C209 N207 1.375 . S
C209 C208 1.338 . S
C209 H213 0.931 . S
C210 N207 1.313 . S
C210 N211 1.344 . S
C210 H214 0.930 . S
N211 C208 1.377 . S
N211 C210 1.344 . S
O212 Co204 2.055 . S
O212 C216 1.253 . S
H213 C209 0.931 . S
H214 C210 0.930 . S
O215 Co204 2.039 1_655 S
O215 C205 1.265 . S
C216 O212 1.253 . S
C216 O217 1.227 . S
O217 C216 1.227 . S
N218 Co204 2.140 . S
N218 C221 1.346 1_455 S
N218 C222 1.345 . S
C219 C220 1.382 1_455 S
C219 C223 1.396 . S
C220 C219 1.382 1_655 S
C220 C221 1.369 . S
C220 H229 0.929 . S
C221 N218 1.346 1_655 S
C221 C220 1.369 . S
C221 H224 0.928 . S
C222 N218 1.345 . S
C222 C223 1.371 . S
C222 H225 0.931 . S
C223 C219 1.396 . S
C223 C222 1.371 . S
C223 H230 0.930 . S
H224 C221 0.928 . S
H225 C222 0.931 . S
H226 C202 0.930 . S
H227 C199 0.930 . S
H228 C208 0.930 . S
H229 C220 0.929 . S
H230 C223 0.930 . S
C231 C232 1.351 . S
C231 N234 1.368 . S
C231 H236 0.931 . S
C232 C231 1.351 . S
C232 N233 1.373 . S
C232 H260 0.930 . S
N233 C232 1.373 . S
N233 C235 1.340 . S
N234 C231 1.368 . S
N234 C235 1.321 . S
N234 Co237 2.135 . S
C235 N233 1.340 . S
C235 N234 1.321 . S
C235 H259 0.930 . S
H236 C231 0.931 . S
Co237 N234 2.135 . S
Co237 N240 2.121 1_545 S
Co237 O245 2.055 1_545 S
Co237 O248 2.039 . S
Co237 N251 2.140 . S
C238 O239 1.227 . S
C238 O248 1.265 . S
O239 C238 1.227 . S
N240 Co237 2.121 1_565 S
N240 C242 1.375 . S
N240 C243 1.313 . S
C241 C242 1.338 . S
C241 N244 1.377 . S
C241 H261 0.930 . S
C242 N240 1.375 . S
C242 C241 1.338 . S
C242 H246 0.931 1_565 S
C243 N240 1.313 . S
C243 N244 1.344 . S
C243 H247 0.930 . S
N244 C241 1.377 . S
N244 C243 1.344 . S
O245 Co237 2.055 1_565 S
O245 C249 1.253 . S
H246 C242 0.931 1_545 S
H247 C243 0.930 . S
O248 Co237 2.039 . S
O248 C238 1.265 . S
C249 O245 1.253 . S
C249 O250 1.227 . S
O250 C249 1.227 . S
N251 Co237 2.140 . S
N251 C254 1.346 . S
N251 C255 1.345 1_545 S
C252 C253 1.387 . S
C252 C256 1.391 1_545 S
C253 C252 1.387 . S
C253 C254 1.369 . S
C253 H262 0.929 . S
C254 N251 1.346 . S
C254 C253 1.369 . S
C254 H257 0.928 . S
C255 N251 1.345 1_565 S
C255 C256 1.371 . S
C255 H258 0.931 . S
C256 C252 1.391 1_565 S
C256 C255 1.371 . S
C256 H263 0.930 . S
H257 C254 0.928 . S
H258 C255 0.931 . S
H259 C235 0.930 . S
H260 C232 0.930 . S
H261 C241 0.930 . S
H262 C253 0.929 . S
H263 C256 0.930 . S
C264 C265 1.351 . S
C264 N267 1.368 . S
C264 H269 0.931 1_556 S
C265 C264 1.351 . S
C265 N266 1.373 . S
C265 H293 0.930 . S
N266 C265 1.373 . S
N266 C268 1.340 . S
N267 C264 1.368 . S
N267 C268 1.321 . S
N267 Co270 2.135 1_556 S
C268 N266 1.340 . S
C268 N267 1.321 . S
C268 H292 0.930 . S
H269 C264 0.931 1_554 S
Co270 N267 2.135 1_554 S
Co270 N273 2.121 . S
Co270 O278 2.055 . S
Co270 O281 2.039 1_554 S
Co270 N284 2.140 . S
C271 O272 1.227 . S
C271 O281 1.265 . S
O272 C271 1.227 . S
N273 Co270 2.121 . S
N273 C275 1.375 . S
N273 C276 1.313 . S
C274 C275 1.338 . S
C274 N277 1.377 . S
C274 H294 0.930 . S
C275 N273 1.375 . S
C275 C274 1.338 . S
C275 H279 0.931 . S
C276 N273 1.313 . S
C276 N277 1.344 . S
C276 H280 0.930 . S
N277 C274 1.377 . S
N277 C276 1.344 . S
O278 Co270 2.055 . S
O278 C282 1.253 . S
H279 C275 0.931 . S
H280 C276 0.930 . S
O281 Co270 2.039 1_556 S
O281 C271 1.265 . S
C282 O278 1.253 . S
C282 O283 1.227 . S
O283 C282 1.227 . S
N284 Co270 2.140 . S
N284 C287 1.346 1_554 S
N284 C288 1.345 . S
C285 C286 1.387 1_554 S
C285 C289 1.391 . S
C286 C285 1.387 1_556 S
C286 C287 1.369 . S
C286 H295 0.929 . S
C287 N284 1.346 1_556 S
C287 C286 1.369 . S
C287 H290 0.928 . S
C288 N284 1.345 . S
C288 C289 1.371 . S
C288 H291 0.931 . S
C289 C285 1.391 . S
C289 C288 1.371 . S
C289 H296 0.930 . S
H290 C287 0.928 . S
H291 C288 0.931 . S
H292 C268 0.930 . S
H293 C265 0.930 . S
H294 C274 0.930 . S
H295 C286 0.929 . S
H296 C289 0.930 . S
C297 C298 1.351 . S
C297 N300 1.368 . S
C297 H302 0.931 . S
C298 C297 1.351 . S
C298 N299 1.373 . S
C298 H326 0.930 . S
N299 C298 1.373 . S
N299 C301 1.340 . S
N300 C297 1.368 . S
N300 C301 1.321 . S
N300 Co303 2.135 . S
C301 N299 1.340 . S
C301 N300 1.321 . S
C301 H325 0.930 . S
H302 C297 0.931 . S
Co303 N300 2.135 . S
Co303 N306 2.121 1_554 S
Co303 O311 2.055 1_554 S
Co303 O314 2.039 . S
Co303 N317 2.140 . S
C304 O305 1.227 . S
C304 O314 1.265 . S
O305 C304 1.227 . S
N306 Co303 2.121 1_556 S
N306 C308 1.375 . S
N306 C309 1.313 . S
C307 C308 1.338 . S
C307 N310 1.377 . S
C307 H327 0.930 . S
C308 N306 1.375 . S
C308 C307 1.338 . S
C308 H312 0.931 1_556 S
C309 N306 1.313 . S
C309 N310 1.344 . S
C309 H313 0.930 . S
N310 C307 1.377 . S
N310 C309 1.344 . S
O311 Co303 2.055 1_556 S
O311 C315 1.253 . S
H312 C308 0.931 1_554 S
H313 C309 0.930 . S
O314 Co303 2.039 . S
O314 C304 1.265 . S
C315 O311 1.253 . S
C315 O316 1.227 . S
O316 C315 1.227 . S
N317 Co303 2.140 . S
N317 C320 1.346 . S
N317 C321 1.345 1_554 S
C318 C319 1.387 . S
C318 C322 1.391 1_554 S
C319 C318 1.387 . S
C319 C320 1.369 . S
C319 H328 0.929 . S
C320 N317 1.346 . S
C320 C319 1.369 . S
C320 H323 0.928 . S
C321 N317 1.345 1_556 S
C321 C322 1.371 . S
C321 H324 0.931 . S
C322 C318 1.391 1_556 S
C322 C321 1.371 . S
C322 H329 0.930 . S
H323 C320 0.928 . S
H324 C321 0.931 . S
H325 C301 0.930 . S
H326 C298 0.930 . S
H327 C307 0.930 . S
H328 C319 0.929 . S
H329 C322 0.930 . S
C330 C331 1.351 . S
C330 N333 1.368 . S
C330 H335 0.931 1_556 S
C331 C330 1.351 . S
C331 N332 1.373 . S
C331 H359 0.930 . S
N332 C331 1.373 . S
N332 C334 1.340 . S
N333 C330 1.368 . S
N333 C334 1.321 . S
N333 Co336 2.135 1_556 S
C334 N332 1.340 . S
C334 N333 1.321 . S
C334 H358 0.930 . S
H335 C330 0.931 1_554 S
Co336 N333 2.135 1_554 S
Co336 N339 2.121 . S
Co336 O344 2.055 . S
Co336 O347 2.039 1_554 S
Co336 N350 2.140 . S
C337 O338 1.227 . S
C337 O347 1.265 . S
O338 C337 1.227 . S
N339 Co336 2.121 . S
N339 C341 1.375 . S
N339 C342 1.313 . S
C340 C341 1.338 . S
C340 N343 1.377 . S
C340 H360 0.930 . S
C341 N339 1.375 . S
C341 C340 1.338 . S
C341 H345 0.931 . S
C342 N339 1.313 . S
C342 N343 1.344 . S
C342 H346 0.930 . S
N343 C340 1.377 . S
N343 C342 1.344 . S
O344 Co336 2.055 . S
O344 C348 1.253 . S
H345 C341 0.931 . S
H346 C342 0.930 . S
O347 Co336 2.039 1_556 S
O347 C337 1.265 . S
C348 O344 1.253 . S
C348 O349 1.227 . S
O349 C348 1.227 . S
N350 Co336 2.140 . S
N350 C353 1.346 1_554 S
N350 C354 1.345 . S
C351 C352 1.387 1_554 S
C351 C355 1.391 . S
C352 C351 1.387 1_556 S
C352 C353 1.369 . S
C352 H361 0.929 . S
C353 N350 1.346 1_556 S
C353 C352 1.369 . S
C353 H356 0.928 . S
C354 N350 1.345 . S
C354 C355 1.371 . S
C354 H357 0.931 . S
C355 C351 1.391 . S
C355 C354 1.371 . S
C355 H362 0.930 . S
H356 C353 0.928 . S
H357 C354 0.931 . S
H358 C334 0.930 . S
H359 C331 0.930 . S
H360 C340 0.930 . S
H361 C352 0.929 . S
H362 C355 0.930 . S
C363 C364 1.351 . S
C363 N366 1.368 . S
C363 H368 0.931 1_556 S
C364 C363 1.351 . S
C364 N365 1.373 . S
C364 H392 0.930 . S
N365 C364 1.373 . S
N365 C367 1.340 . S
N366 C363 1.368 . S
N366 C367 1.321 . S
N366 Co369 2.135 1_556 S
C367 N365 1.340 . S
C367 N366 1.321 . S
C367 H391 0.930 . S
H368 C363 0.931 1_554 S
Co369 N366 2.135 1_554 S
Co369 N372 2.121 . S
Co369 O377 2.055 . S
Co369 O380 2.039 1_554 S
Co369 N383 2.140 . S
C370 O371 1.227 . S
C370 O380 1.265 . S
O371 C370 1.227 . S
N372 Co369 2.121 . S
N372 C374 1.375 . S
N372 C375 1.313 . S
C373 C374 1.338 . S
C373 N376 1.377 . S
C373 H393 0.930 . S
C374 N372 1.375 . S
C374 C373 1.338 . S
C374 H378 0.931 . S
C375 N372 1.313 . S
C375 N376 1.344 . S
C375 H379 0.930 . S
N376 C373 1.377 . S
N376 C375 1.344 . S
O377 Co369 2.055 . S
O377 C381 1.253 . S
H378 C374 0.931 . S
H379 C375 0.930 . S
O380 Co369 2.039 1_556 S
O380 C370 1.265 . S
C381 O377 1.253 . S
C381 O382 1.227 . S
O382 C381 1.227 . S
N383 Co369 2.140 . S
N383 C386 1.346 1_554 S
N383 C387 1.345 . S
C384 C385 1.387 1_554 S
C384 C388 1.391 . S
C385 C384 1.387 1_556 S
C385 C386 1.369 . S
C385 H394 0.929 . S
C386 N383 1.346 1_556 S
C386 C385 1.369 . S
C386 H389 0.928 . S
C387 N383 1.345 . S
C387 C388 1.371 . S
C387 H390 0.931 . S
C388 C384 1.391 . S
C388 C387 1.371 . S
C388 H395 0.930 . S
H389 C386 0.928 . S
H390 C387 0.931 . S
H391 C367 0.930 . S
H392 C364 0.930 . S
H393 C373 0.930 . S
H394 C385 0.929 . S
H395 C388 0.930 . S
C396 C397 1.351 . S
C396 N399 1.368 . S
C396 H401 0.931 1_655 S
C397 C396 1.351 . S
C397 N398 1.373 . S
C397 H425 0.930 . S
N398 C397 1.373 . S
N398 C400 1.340 . S
N399 C396 1.368 . S
N399 C400 1.321 . S
N399 Co402 2.135 1_655 S
C400 N398 1.340 . S
C400 N399 1.321 . S
C400 H424 0.930 . S
H401 C396 0.931 1_455 S
Co402 N399 2.135 1_455 S
Co402 N405 2.121 . S
Co402 O410 2.055 . S
Co402 O413 2.039 1_455 S
Co402 N416 2.140 . S
C403 O404 1.227 . S
C403 O413 1.265 . S
O404 C403 1.227 . S
N405 Co402 2.121 . S
N405 C407 1.375 . S
N405 C408 1.313 . S
C406 C407 1.338 . S
C406 N409 1.377 . S
C406 H426 0.930 . S
C407 N405 1.375 . S
C407 C406 1.338 . S
C407 H411 0.931 . S
C408 N405 1.313 . S
C408 N409 1.344 . S
C408 H412 0.930 . S
N409 C406 1.377 . S
N409 C408 1.344 . S
O410 Co402 2.055 . S
O410 C414 1.253 . S
H411 C407 0.931 . S
H412 C408 0.930 . S
O413 Co402 2.039 1_655 S
O413 C403 1.265 . S
C414 O410 1.253 . S
C414 O415 1.227 . S
O415 C414 1.227 . S
N416 Co402 2.140 . S
N416 C419 1.346 1_455 S
N416 C420 1.345 . S
C417 C418 1.387 1_455 S
C417 C421 1.391 . S
C418 C417 1.387 1_655 S
C418 C419 1.369 . S
C418 H427 0.929 . S
C419 N416 1.346 1_655 S
C419 C418 1.369 . S
C419 H422 0.928 . S
C420 N416 1.345 . S
C420 C421 1.371 . S
C420 H423 0.931 . S
C421 C417 1.391 . S
C421 C420 1.371 . S
C421 H428 0.930 . S
H422 C419 0.928 . S
H423 C420 0.931 . S
H424 C400 0.930 . S
H425 C397 0.930 . S
H426 C406 0.930 . S
H427 C418 0.929 . S
H428 C421 0.930 . S
C429 C430 1.351 . S
C429 N432 1.368 . S
C429 H434 0.931 . S
C430 C429 1.351 . S
C430 N431 1.373 . S
C430 H458 0.930 . S
N431 C430 1.373 . S
N431 C433 1.340 . S
N432 C429 1.368 . S
N432 C433 1.321 . S
N432 Co435 2.135 . S
C433 N431 1.340 . S
C433 N432 1.321 . S
C433 H457 0.930 . S
H434 C429 0.931 . S
Co435 N432 2.135 . S
Co435 N438 2.121 . S
Co435 O443 2.055 . S
Co435 O446 2.039 . S
Co435 N449 2.140 . S
C436 O437 1.227 . S
C436 O446 1.265 . S
O437 C436 1.227 . S
N438 Co435 2.121 . S
N438 C440 1.375 . S
N438 C441 1.313 . S
C439 C440 1.338 . S
C439 N442 1.377 . S
C439 H459 0.930 . S
C440 N438 1.375 . S
C440 C439 1.338 . S
C440 H444 0.931 . S
C441 N438 1.313 . S
C441 N442 1.344 . S
C441 H445 0.930 . S
N442 C439 1.377 . S
N442 C441 1.344 . S
O443 Co435 2.055 . S
O443 C447 1.253 . S
H444 C440 0.931 . S
H445 C441 0.930 . S
O446 Co435 2.039 . S
O446 C436 1.265 . S
C447 O443 1.253 . S
C447 O448 1.227 . S
O448 C447 1.227 . S
N449 Co435 2.140 . S
N449 C452 1.346 . S
N449 C453 1.345 . S
C450 C451 1.387 . S
C450 C454 1.391 . S
C451 C450 1.387 . S
C451 C452 1.369 . S
C451 H460 0.929 . S
C452 N449 1.346 . S
C452 C451 1.369 . S
C452 H455 0.928 . S
C453 N449 1.345 . S
C453 C454 1.371 . S
C453 H456 0.931 . S
C454 C450 1.391 . S
C454 C453 1.371 . S
C454 H461 0.930 . S
H455 C452 0.928 . S
H456 C453 0.931 . S
H457 C433 0.930 . S
H458 C430 0.930 . S
H459 C439 0.930 . S
H460 C451 0.929 . S
H461 C454 0.930 . S
C462 C463 1.351 . S
C462 N465 1.368 . S
C462 H467 0.931 1_655 S
C463 C462 1.351 . S
C463 N464 1.373 . S
C463 H491 0.930 . S
N464 C463 1.373 . S
N464 C466 1.340 . S
N465 C462 1.368 . S
N465 C466 1.321 . S
N465 Co468 2.135 1_655 S
C466 N464 1.340 . S
C466 N465 1.321 . S
C466 H490 0.930 . S
H467 C462 0.931 1_455 S
Co468 N465 2.135 1_455 S
Co468 N471 2.121 . S
Co468 O476 2.055 . S
Co468 O479 2.039 1_455 S
Co468 N482 2.140 . S
C469 O470 1.227 . S
C469 O479 1.265 . S
O470 C469 1.227 . S
N471 Co468 2.121 . S
N471 C473 1.375 . S
N471 C474 1.313 . S
C472 C473 1.338 . S
C472 N475 1.377 . S
C472 H492 0.930 . S
C473 N471 1.375 . S
C473 C472 1.338 . S
C473 H477 0.931 . S
C474 N471 1.313 . S
C474 N475 1.344 . S
C474 H478 0.930 . S
N475 C472 1.377 . S
N475 C474 1.344 . S
O476 Co468 2.055 . S
O476 C480 1.253 . S
H477 C473 0.931 . S
H478 C474 0.930 . S
O479 Co468 2.039 1_655 S
O479 C469 1.265 . S
C480 O476 1.253 . S
C480 O481 1.227 . S
O481 C480 1.227 . S
N482 Co468 2.140 . S
N482 C485 1.346 1_455 S
N482 C486 1.345 . S
C483 C484 1.387 1_455 S
C483 C487 1.391 . S
C484 C483 1.387 1_655 S
C484 C485 1.369 . S
C484 H493 0.929 . S
C485 N482 1.346 1_655 S
C485 C484 1.369 . S
C485 H488 0.928 . S
C486 N482 1.345 . S
C486 C487 1.371 . S
C486 H489 0.931 . S
C487 C483 1.391 . S
C487 C486 1.371 . S
C487 H494 0.930 . S
H488 C485 0.928 . S
H489 C486 0.931 . S
H490 C466 0.930 . S
H491 C463 0.930 . S
H492 C472 0.930 . S
H493 C484 0.929 . S
H494 C487 0.930 . S
C495 C496 1.351 . S
C495 N498 1.368 . S
C495 H500 0.931 . S
C496 C495 1.351 . S
C496 N497 1.373 . S
C496 H524 0.930 . S
N497 C496 1.373 . S
N497 C499 1.340 . S
N498 C495 1.368 . S
N498 C499 1.321 . S
N498 Co501 2.135 . S
C499 N497 1.340 . S
C499 N498 1.321 . S
C499 H523 0.930 . S
H500 C495 0.931 . S
Co501 N498 2.135 . S
Co501 N504 2.121 . S
Co501 O509 2.055 . S
Co501 O512 2.039 . S
Co501 N515 2.140 . S
C502 O503 1.227 . S
C502 O512 1.265 . S
O503 C502 1.227 . S
N504 Co501 2.121 . S
N504 C506 1.375 . S
N504 C507 1.313 . S
C505 C506 1.338 . S
C505 N508 1.377 . S
C505 H525 0.930 . S
C506 N504 1.375 . S
C506 C505 1.338 . S
C506 H510 0.931 . S
C507 N504 1.313 . S
C507 N508 1.344 . S
C507 H511 0.930 . S
N508 C505 1.377 . S
N508 C507 1.344 . S
O509 Co501 2.055 . S
O509 C513 1.253 . S
H510 C506 0.931 . S
H511 C507 0.930 . S
O512 Co501 2.039 . S
O512 C502 1.265 . S
C513 O509 1.253 . S
C513 O514 1.227 . S
O514 C513 1.227 . S
N515 Co501 2.140 . S
N515 C518 1.346 . S
N515 C519 1.345 . S
C516 C517 1.387 . S
C516 C520 1.391 . S
C517 C516 1.387 . S
C517 C518 1.369 . S
C517 H526 0.929 . S
C518 N515 1.346 . S
C518 C517 1.369 . S
C518 H521 0.928 . S
C519 N515 1.345 . S
C519 C520 1.371 . S
C519 H522 0.931 . S
C520 C516 1.391 . S
C520 C519 1.371 . S
C520 H527 0.930 . S
H521 C518 0.928 . S
H522 C519 0.931 . S
H523 C499 0.930 . S
H524 C496 0.930 . S
H525 C505 0.930 . S
H526 C517 0.929 . S
H527 C520 0.930 . S
C528 C529 1.351 . S
C528 N531 1.368 . S
C528 H533 0.931 . S
C529 C528 1.351 . S
C529 N530 1.373 . S
C529 H557 0.930 . S
N530 C529 1.373 . S
N530 C532 1.340 . S
N531 C528 1.368 . S
N531 C532 1.321 . S
N531 Co534 2.135 . S
C532 N530 1.340 . S
C532 N531 1.321 . S
C532 H556 0.930 . S
H533 C528 0.931 . S
Co534 N531 2.135 . S
Co534 N537 2.121 1_455 S
Co534 O542 2.055 1_455 S
Co534 O545 2.039 . S
Co534 N548 2.140 . S
C535 O536 1.227 . S
C535 O545 1.265 . S
O536 C535 1.227 . S
N537 Co534 2.121 1_655 S
N537 C539 1.375 . S
N537 C540 1.313 . S
C538 C539 1.338 . S
C538 N541 1.377 . S
C538 H558 0.930 . S
C539 N537 1.375 . S
C539 C538 1.338 . S
C539 H543 0.931 1_655 S
C540 N537 1.313 . S
C540 N541 1.344 . S
C540 H544 0.930 . S
N541 C538 1.377 . S
N541 C540 1.344 . S
O542 Co534 2.055 1_655 S
O542 C546 1.253 . S
H543 C539 0.931 1_455 S
H544 C540 0.930 . S
O545 Co534 2.039 . S
O545 C535 1.265 . S
C546 O542 1.253 . S
C546 O547 1.227 . S
O547 C546 1.227 . S
N548 Co534 2.140 . S
N548 C551 1.346 . S
N548 C552 1.345 1_455 S
C549 C550 1.387 . S
C549 C553 1.391 1_455 S
C550 C549 1.387 . S
C550 C551 1.369 . S
C550 H559 0.929 . S
C551 N548 1.346 . S
C551 C550 1.369 . S
C551 H554 0.928 . S
C552 N548 1.345 1_655 S
C552 C553 1.371 . S
C552 H555 0.931 . S
C553 C549 1.391 1_655 S
C553 C552 1.371 . S
C553 H560 0.930 . S
H554 C551 0.928 . S
H555 C552 0.931 . S
H556 C532 0.930 . S
H557 C529 0.930 . S
H558 C538 0.930 . S
H559 C550 0.929 . S
H560 C553 0.930 . S
C561 C562 1.351 . S
C561 N564 1.368 . S
C561 H566 0.931 . S
C562 C561 1.351 . S
C562 N563 1.373 . S
C562 H590 0.930 . S
N563 C562 1.373 . S
N563 C565 1.340 . S
N564 C561 1.368 . S
N564 C565 1.321 . S
N564 Co567 2.135 . S
C565 N563 1.340 . S
C565 N564 1.321 . S
C565 H589 0.930 . S
H566 C561 0.931 . S
Co567 N564 2.135 . S
Co567 N570 2.121 . S
Co567 O575 2.055 . S
Co567 O578 2.039 . S
Co567 N581 2.140 . S
C568 O569 1.227 . S
C568 O578 1.265 . S
O569 C568 1.227 . S
N570 Co567 2.121 . S
N570 C572 1.375 . S
N570 C573 1.313 . S
C571 C572 1.338 . S
C571 N574 1.377 . S
C571 H591 0.930 . S
C572 N570 1.375 . S
C572 C571 1.338 . S
C572 H576 0.931 . S
C573 N570 1.313 . S
C573 N574 1.344 . S
C573 H577 0.930 . S
N574 C571 1.377 . S
N574 C573 1.344 . S
O575 Co567 2.055 . S
O575 C579 1.253 . S
H576 C572 0.931 . S
H577 C573 0.930 . S
O578 Co567 2.039 . S
O578 C568 1.265 . S
C579 O575 1.253 . S
C579 O580 1.227 . S
O580 C579 1.227 . S
N581 Co567 2.140 . S
N581 C584 1.346 . S
N581 C585 1.345 . S
C582 C583 1.387 . S
C582 C586 1.391 . S
C583 C582 1.387 . S
C583 C584 1.369 . S
C583 H592 0.929 . S
C584 N581 1.346 . S
C584 C583 1.369 . S
C584 H587 0.928 . S
C585 N581 1.345 . S
C585 C586 1.371 . S
C585 H588 0.931 . S
C586 C582 1.391 . S
C586 C585 1.371 . S
C586 H593 0.930 . S
H587 C584 0.928 . S
H588 C585 0.931 . S
H589 C565 0.930 . S
H590 C562 0.930 . S
H591 C571 0.930 . S
H592 C583 0.929 . S
H593 C586 0.930 . S
C594 C595 1.351 . S
C594 N597 1.368 . S
C594 H599 0.931 1_655 S
C595 C594 1.351 . S
C595 N596 1.373 . S
C595 H623 0.930 . S
N596 C595 1.373 . S
N596 C598 1.340 . S
N597 C594 1.368 . S
N597 C598 1.321 . S
N597 Co600 2.135 1_655 S
C598 N596 1.340 . S
C598 N597 1.321 . S
C598 H622 0.930 . S
H599 C594 0.931 1_455 S
Co600 N597 2.135 1_455 S
Co600 N603 2.121 . S
Co600 O608 2.055 . S
Co600 O611 2.039 1_455 S
Co600 N614 2.140 . S
C601 O602 1.227 . S
C601 O611 1.265 . S
O602 C601 1.227 . S
N603 Co600 2.121 . S
N603 C605 1.375 . S
N603 C606 1.313 . S
C604 C605 1.338 . S
C604 N607 1.377 . S
C604 H624 0.930 . S
C605 N603 1.375 . S
C605 C604 1.338 . S
C605 H609 0.931 . S
C606 N603 1.313 . S
C606 N607 1.344 . S
C606 H610 0.930 . S
N607 C604 1.377 . S
N607 C606 1.344 . S
O608 Co600 2.055 . S
O608 C612 1.253 . S
H609 C605 0.931 . S
H610 C606 0.930 . S
O611 Co600 2.039 1_655 S
O611 C601 1.265 . S
C612 O608 1.253 . S
C612 O613 1.227 . S
O613 C612 1.227 . S
N614 Co600 2.140 . S
N614 C617 1.346 1_455 S
N614 C618 1.345 . S
C615 C616 1.387 1_455 S
C615 C619 1.391 . S
C616 C615 1.387 1_655 S
C616 C617 1.369 . S
C616 H625 0.929 . S
C617 N614 1.346 1_655 S
C617 C616 1.369 . S
C617 H620 0.928 . S
C618 N614 1.345 . S
C618 C619 1.371 . S
C618 H621 0.931 . S
C619 C615 1.391 . S
C619 C618 1.371 . S
C619 H626 0.930 . S
H620 C617 0.928 . S
H621 C618 0.931 . S
H622 C598 0.930 . S
H623 C595 0.930 . S
H624 C604 0.930 . S
H625 C616 0.929 . S
H626 C619 0.930 . S
C627 C628 1.351 . S
C627 N630 1.368 . S
C627 H632 0.931 . S
C628 C627 1.351 . S
C628 N629 1.373 . S
C628 H656 0.930 . S
N629 C628 1.373 . S
N629 C631 1.340 . S
N630 C627 1.368 . S
N630 C631 1.321 . S
N630 Co633 2.135 . S
C631 N629 1.340 . S
C631 N630 1.321 . S
C631 H655 0.930 . S
H632 C627 0.931 . S
Co633 N630 2.135 . S
Co633 N636 2.121 . S
Co633 O641 2.055 . S
Co633 O644 2.039 . S
Co633 N647 2.140 . S
C634 O635 1.227 . S
C634 O644 1.265 . S
O635 C634 1.227 . S
N636 Co633 2.121 . S
N636 C638 1.375 . S
N636 C639 1.313 . S
C637 C638 1.338 . S
C637 N640 1.377 . S
C637 H657 0.930 . S
C638 N636 1.375 . S
C638 C637 1.338 . S
C638 H642 0.931 . S
C639 N636 1.313 . S
C639 N640 1.344 . S
C639 H643 0.930 . S
N640 C637 1.377 . S
N640 C639 1.344 . S
O641 Co633 2.055 . S
O641 C645 1.253 . S
H642 C638 0.931 . S
H643 C639 0.930 . S
O644 Co633 2.039 . S
O644 C634 1.265 . S
C645 O641 1.253 . S
C645 O646 1.227 . S
O646 C645 1.227 . S
N647 Co633 2.140 . S
N647 C650 1.346 . S
N647 C651 1.345 . S
C648 C649 1.387 . S
C648 C652 1.391 . S
C649 C648 1.387 . S
C649 C650 1.369 . S
C649 H658 0.929 . S
C650 N647 1.346 . S
C650 C649 1.369 . S
C650 H653 0.928 . S
C651 N647 1.345 . S
C651 C652 1.371 . S
C651 H654 0.931 . S
C652 C648 1.391 . S
C652 C651 1.371 . S
C652 H659 0.930 . S
H653 C650 0.928 . S
H654 C651 0.931 . S
H655 C631 0.930 . S
H656 C628 0.930 . S
H657 C637 0.930 . S
H658 C649 0.929 . S
H659 C652 0.930 . S
C660 C661 1.351 . S
C660 N663 1.368 . S
C660 H665 0.931 . S
C661 C660 1.351 . S
C661 N662 1.373 . S
C661 H689 0.930 . S
N662 C661 1.373 . S
N662 C664 1.340 . S
N663 C660 1.368 . S
N663 C664 1.321 . S
N663 Co666 2.135 . S
C664 N662 1.340 . S
C664 N663 1.321 . S
C664 H688 0.930 . S
H665 C660 0.931 . S
Co666 N663 2.135 . S
Co666 N669 2.121 . S
Co666 O674 2.055 . S
Co666 O677 2.039 . S
Co666 N680 2.140 . S
C667 O668 1.227 . S
C667 O677 1.265 . S
O668 C667 1.227 . S
N669 Co666 2.121 . S
N669 C671 1.375 . S
N669 C672 1.313 . S
C670 C671 1.338 . S
C670 N673 1.377 . S
C670 H690 0.930 . S
C671 N669 1.375 . S
C671 C670 1.338 . S
C671 H675 0.931 . S
C672 N669 1.313 . S
C672 N673 1.344 . S
C672 H676 0.930 . S
N673 C670 1.377 . S
N673 C672 1.344 . S
O674 Co666 2.055 . S
O674 C678 1.253 . S
H675 C671 0.931 . S
H676 C672 0.930 . S
O677 Co666 2.039 . S
O677 C667 1.265 . S
C678 O674 1.253 . S
C678 O679 1.227 . S
O679 C678 1.227 . S
N680 Co666 2.140 . S
N680 C683 1.346 . S
N680 C684 1.345 . S
C681 C682 1.387 . S
C681 C685 1.391 . S
C682 C681 1.387 . S
C682 C683 1.369 . S
C682 H691 0.929 . S
C683 N680 1.346 . S
C683 C682 1.369 . S
C683 H686 0.928 . S
C684 N680 1.345 . S
C684 C685 1.371 . S
C684 H687 0.931 . S
C685 C681 1.391 . S
C685 C684 1.371 . S
C685 H692 0.930 . S
H686 C683 0.928 . S
H687 C684 0.931 . S
H688 C664 0.930 . S
H689 C661 0.930 . S
H690 C670 0.930 . S
H691 C682 0.929 . S
H692 C685 0.930 . S
C693 C694 1.351 . S
C693 N696 1.368 . S
C693 H698 0.931 . S
C694 C693 1.351 . S
C694 N695 1.373 . S
C694 H722 0.930 . S
N695 C694 1.373 . S
N695 C697 1.340 . S
N696 C693 1.368 . S
N696 C697 1.321 . S
N696 Co699 2.135 . S
C697 N695 1.340 . S
C697 N696 1.321 . S
C697 H721 0.930 . S
H698 C693 0.931 . S
Co699 N696 2.135 . S
Co699 N702 2.121 . S
Co699 O707 2.055 . S
Co699 O710 2.039 . S
Co699 N713 2.140 . S
C700 O701 1.227 . S
C700 O710 1.265 . S
O701 C700 1.227 . S
N702 Co699 2.121 . S
N702 C704 1.375 . S
N702 C705 1.313 . S
C703 C704 1.338 . S
C703 N706 1.377 . S
C703 H723 0.930 . S
C704 N702 1.375 . S
C704 C703 1.338 . S
C704 H708 0.931 . S
C705 N702 1.313 . S
C705 N706 1.344 . S
C705 H709 0.930 . S
N706 C703 1.377 . S
N706 C705 1.344 . S
O707 Co699 2.055 . S
O707 C711 1.253 . S
H708 C704 0.931 . S
H709 C705 0.930 . S
O710 Co699 2.039 . S
O710 C700 1.265 . S
C711 O707 1.253 . S
C711 O712 1.227 . S
O712 C711 1.227 . S
N713 Co699 2.140 . S
N713 C716 1.346 . S
N713 C717 1.345 . S
C714 C715 1.387 . S
C714 C718 1.391 . S
C715 C714 1.387 . S
C715 C716 1.369 . S
C715 H724 0.929 . S
C716 N713 1.346 . S
C716 C715 1.369 . S
C716 H719 0.928 . S
C717 N713 1.345 . S
C717 C718 1.371 . S
C717 H720 0.931 . S
C718 C714 1.391 . S
C718 C717 1.371 . S
C718 H725 0.930 . S
H719 C716 0.928 . S
H720 C717 0.931 . S
H721 C697 0.930 . S
H722 C694 0.930 . S
H723 C703 0.930 . S
H724 C715 0.929 . S
H725 C718 0.930 . S
C726 C727 1.351 . S
C726 N729 1.368 . S
C726 H731 0.931 . S
C727 C726 1.351 . S
C727 N728 1.373 . S
C727 H755 0.930 . S
N728 C727 1.373 . S
N728 C730 1.340 . S
N729 C726 1.368 . S
N729 C730 1.321 . S
N729 Co732 2.135 . S
C730 N728 1.340 . S
C730 N729 1.321 . S
C730 H754 0.930 . S
H731 C726 0.931 . S
Co732 N729 2.135 . S
Co732 N735 2.121 . S
Co732 O740 2.055 . S
Co732 O743 2.039 . S
Co732 N746 2.140 . S
C733 O734 1.227 . S
C733 O743 1.265 . S
O734 C733 1.227 . S
N735 Co732 2.121 . S
N735 C737 1.375 . S
N735 C738 1.313 . S
C736 C737 1.338 . S
C736 N739 1.377 . S
C736 H756 0.930 . S
C737 N735 1.375 . S
C737 C736 1.338 . S
C737 H741 0.931 . S
C738 N735 1.313 . S
C738 N739 1.344 . S
C738 H742 0.930 . S
N739 C736 1.377 . S
N739 C738 1.344 . S
O740 Co732 2.055 . S
O740 C744 1.253 . S
H741 C737 0.931 . S
H742 C738 0.930 . S
O743 Co732 2.039 . S
O743 C733 1.265 . S
C744 O740 1.253 . S
C744 O745 1.227 . S
O745 C744 1.227 . S
N746 Co732 2.140 . S
N746 C749 1.346 . S
N746 C750 1.345 . S
C747 C748 1.387 . S
C747 C751 1.391 . S
C748 C747 1.387 . S
C748 C749 1.369 . S
C748 H757 0.929 . S
C749 N746 1.346 . S
C749 C748 1.369 . S
C749 H752 0.928 . S
C750 N746 1.345 . S
C750 C751 1.371 . S
C750 H753 0.931 . S
C751 C747 1.391 . S
C751 C750 1.371 . S
C751 H758 0.930 . S
H752 C749 0.928 . S
H753 C750 0.931 . S
H754 C730 0.930 . S
H755 C727 0.930 . S
H756 C736 0.930 . S
H757 C748 0.929 . S
H758 C751 0.930 . S
C759 C760 1.351 . S
C759 N762 1.368 . S
C759 H764 0.931 . S
C760 C759 1.351 . S
C760 N761 1.373 . S
C760 H788 0.930 . S
N761 C760 1.373 . S
N761 C763 1.340 . S
N762 C759 1.368 . S
N762 C763 1.321 . S
N762 Co765 2.135 . S
C763 N761 1.340 . S
C763 N762 1.321 . S
C763 H787 0.930 . S
H764 C759 0.931 . S
Co765 N762 2.135 . S
Co765 N768 2.121 . S
Co765 O773 2.055 . S
Co765 O776 2.039 . S
Co765 N779 2.140 . S
C766 O767 1.227 . S
C766 O776 1.265 . S
O767 C766 1.227 . S
N768 Co765 2.121 . S
N768 C770 1.375 . S
N768 C771 1.313 . S
C769 C770 1.338 . S
C769 N772 1.377 . S
C769 H789 0.930 . S
C770 N768 1.375 . S
C770 C769 1.338 . S
C770 H774 0.931 . S
C771 N768 1.313 . S
C771 N772 1.344 . S
C771 H775 0.930 . S
N772 C769 1.377 . S
N772 C771 1.344 . S
O773 Co765 2.055 . S
O773 C777 1.253 . S
H774 C770 0.931 . S
H775 C771 0.930 . S
O776 Co765 2.039 . S
O776 C766 1.265 . S
C777 O773 1.253 . S
C777 O778 1.227 . S
O778 C777 1.227 . S
N779 Co765 2.140 . S
N779 C782 1.346 . S
N779 C783 1.345 . S
C780 C781 1.387 . S
C780 C784 1.391 . S
C781 C780 1.387 . S
C781 C782 1.369 . S
C781 H790 0.929 . S
C782 N779 1.346 . S
C782 C781 1.369 . S
C782 H785 0.928 . S
C783 N779 1.345 . S
C783 C784 1.371 . S
C783 H786 0.931 . S
C784 C780 1.391 . S
C784 C783 1.371 . S
C784 H791 0.930 . S
H785 C782 0.928 . S
H786 C783 0.931 . S
H787 C763 0.930 . S
H788 C760 0.930 . S
H789 C769 0.930 . S
H790 C781 0.929 . S
H791 C784 0.930 . S
C792 C793 1.351 . S
C792 N795 1.368 . S
C792 H797 0.931 . S
C793 C792 1.351 . S
C793 N794 1.373 . S
C793 H821 0.930 . S
N794 C793 1.373 . S
N794 C796 1.340 . S
N795 C792 1.368 . S
N795 C796 1.321 . S
N795 Co798 2.135 . S
C796 N794 1.340 . S
C796 N795 1.321 . S
C796 H820 0.930 . S
H797 C792 0.931 . S
Co798 N795 2.135 . S
Co798 N801 2.121 . S
Co798 O806 2.055 . S
Co798 O809 2.039 . S
Co798 N812 2.140 . S
C799 O800 1.227 . S
C799 O809 1.265 . S
O800 C799 1.227 . S
N801 Co798 2.121 . S
N801 C803 1.375 . S
N801 C804 1.313 . S
C802 C803 1.338 . S
C802 N805 1.377 . S
C802 H822 0.930 . S
C803 N801 1.375 . S
C803 C802 1.338 . S
C803 H807 0.931 . S
C804 N801 1.313 . S
C804 N805 1.344 . S
C804 H808 0.930 . S
N805 C802 1.377 . S
N805 C804 1.344 . S
O806 Co798 2.055 . S
O806 C810 1.253 . S
H807 C803 0.931 . S
H808 C804 0.930 . S
O809 Co798 2.039 . S
O809 C799 1.265 . S
C810 O806 1.253 . S
C810 O811 1.227 . S
O811 C810 1.227 . S
N812 Co798 2.140 . S
N812 C815 1.346 . S
N812 C816 1.345 . S
C813 C814 1.387 . S
C813 C817 1.391 . S
C814 C813 1.387 . S
C814 C815 1.369 . S
C814 H823 0.929 . S
C815 N812 1.346 . S
C815 C814 1.369 . S
C815 H818 0.928 . S
C816 N812 1.345 . S
C816 C817 1.371 . S
C816 H819 0.931 . S
C817 C813 1.391 . S
C817 C816 1.371 . S
C817 H824 0.930 . S
H818 C815 0.928 . S
H819 C816 0.931 . S
H820 C796 0.930 . S
H821 C793 0.930 . S
H822 C802 0.930 . S
H823 C814 0.929 . S
H824 C817 0.930 . S
C825 C826 1.351 . S
C825 N828 1.368 . S
C825 H830 0.931 . S
C826 C825 1.351 . S
C826 N827 1.373 . S
C826 H854 0.930 . S
N827 C826 1.373 . S
N827 C829 1.340 . S
N828 C825 1.368 . S
N828 C829 1.321 . S
N828 Co831 2.135 . S
C829 N827 1.340 . S
C829 N828 1.321 . S
C829 H853 0.930 . S
H830 C825 0.931 . S
Co831 N828 2.135 . S
Co831 N834 2.121 1_545 S
Co831 O839 2.055 1_545 S
Co831 O842 2.039 . S
Co831 N845 2.140 . S
C832 O833 1.227 . S
C832 O842 1.265 . S
O833 C832 1.227 . S
N834 Co831 2.121 1_565 S
N834 C836 1.375 . S
N834 C837 1.313 . S
C835 C836 1.338 . S
C835 N838 1.377 . S
C835 H855 0.930 . S
C836 N834 1.375 . S
C836 C835 1.338 . S
C836 H840 0.931 1_565 S
C837 N834 1.313 . S
C837 N838 1.344 . S
C837 H841 0.930 . S
N838 C835 1.377 . S
N838 C837 1.344 . S
O839 Co831 2.055 1_565 S
O839 C843 1.253 . S
H840 C836 0.931 1_545 S
H841 C837 0.930 . S
O842 Co831 2.039 . S
O842 C832 1.265 . S
C843 O839 1.253 . S
C843 O844 1.227 . S
O844 C843 1.227 . S
N845 Co831 2.140 . S
N845 C848 1.346 . S
N845 C849 1.345 1_545 S
C846 C847 1.387 . S
C846 C850 1.391 1_545 S
C847 C846 1.387 . S
C847 C848 1.369 . S
C847 H856 0.929 . S
C848 N845 1.346 . S
C848 C847 1.369 . S
C848 H851 0.928 . S
C849 N845 1.345 1_565 S
C849 C850 1.371 . S
C849 H852 0.931 . S
C850 C846 1.391 1_565 S
C850 C849 1.371 . S
C850 H857 0.930 . S
H851 C848 0.928 . S
H852 C849 0.931 . S
H853 C829 0.930 . S
H854 C826 0.930 . S
H855 C835 0.930 . S
H856 C847 0.929 . S
H857 C850 0.930 . S
C858 C859 1.351 . S
C858 N861 1.368 . S
C858 H863 0.931 . S
C859 C858 1.351 . S
C859 N860 1.373 . S
C859 H887 0.930 . S
N860 C859 1.373 . S
N860 C862 1.340 . S
N861 C858 1.368 . S
N861 C862 1.321 . S
N861 Co864 2.135 . S
C862 N860 1.340 . S
C862 N861 1.321 . S
C862 H886 0.930 . S
H863 C858 0.931 . S
Co864 N861 2.135 . S
Co864 N867 2.121 . S
Co864 O872 2.055 . S
Co864 O875 2.039 . S
Co864 N878 2.140 . S
C865 O866 1.227 . S
C865 O875 1.265 . S
O866 C865 1.227 . S
N867 Co864 2.121 . S
N867 C869 1.375 . S
N867 C870 1.313 . S
C868 C869 1.338 . S
C868 N871 1.377 . S
C868 H888 0.930 . S
C869 N867 1.375 . S
C869 C868 1.338 . S
C869 H873 0.931 . S
C870 N867 1.313 . S
C870 N871 1.344 . S
C870 H874 0.930 . S
N871 C868 1.377 . S
N871 C870 1.344 . S
O872 Co864 2.055 . S
O872 C876 1.253 . S
H873 C869 0.931 . S
H874 C870 0.930 . S
O875 Co864 2.039 . S
O875 C865 1.265 . S
C876 O872 1.253 . S
C876 O877 1.227 . S
O877 C876 1.227 . S
N878 Co864 2.140 . S
N878 C881 1.346 . S
N878 C882 1.345 . S
C879 C880 1.387 . S
C879 C883 1.391 . S
C880 C879 1.387 . S
C880 C881 1.369 . S
C880 H889 0.929 . S
C881 N878 1.346 . S
C881 C880 1.369 . S
C881 H884 0.928 . S
C882 N878 1.345 . S
C882 C883 1.371 . S
C882 H885 0.931 . S
C883 C879 1.391 . S
C883 C882 1.371 . S
C883 H890 0.930 . S
H884 C881 0.928 . S
H885 C882 0.931 . S
H886 C862 0.930 . S
H887 C859 0.930 . S
H888 C868 0.930 . S
H889 C880 0.929 . S
H890 C883 0.930 . S
C891 C892 1.351 . S
C891 N894 1.368 . S
C891 H896 0.931 1_565 S
C892 C891 1.351 . S
C892 N893 1.373 . S
C892 H920 0.930 . S
N893 C892 1.373 . S
N893 C895 1.340 . S
N894 C891 1.368 . S
N894 C895 1.321 . S
N894 Co897 2.135 1_565 S
C895 N893 1.340 . S
C895 N894 1.321 . S
C895 H919 0.930 . S
H896 C891 0.931 1_545 S
Co897 N894 2.135 1_545 S
Co897 N900 2.121 . S
Co897 O905 2.055 . S
Co897 O908 2.039 1_545 S
Co897 N911 2.140 . S
C898 O899 1.227 . S
C898 O908 1.265 . S
O899 C898 1.227 . S
N900 Co897 2.121 . S
N900 C902 1.375 . S
N900 C903 1.313 . S
C901 C902 1.338 . S
C901 N904 1.377 . S
C901 H921 0.930 . S
C902 N900 1.375 . S
C902 C901 1.338 . S
C902 H906 0.931 . S
C903 N900 1.313 . S
C903 N904 1.344 . S
C903 H907 0.930 . S
N904 C901 1.377 . S
N904 C903 1.344 . S
O905 Co897 2.055 . S
O905 C909 1.253 . S
H906 C902 0.931 . S
H907 C903 0.930 . S
O908 Co897 2.039 1_565 S
O908 C898 1.265 . S
C909 O905 1.253 . S
C909 O910 1.227 . S
O910 C909 1.227 . S
N911 Co897 2.140 . S
N911 C914 1.346 1_545 S
N911 C915 1.345 . S
C912 C913 1.387 1_545 S
C912 C916 1.391 . S
C913 C912 1.387 1_565 S
C913 C914 1.369 . S
C913 H922 0.929 . S
C914 N911 1.346 1_565 S
C914 C913 1.369 . S
C914 H917 0.928 . S
C915 N911 1.345 . S
C915 C916 1.371 . S
C915 H918 0.931 . S
C916 C912 1.391 . S
C916 C915 1.371 . S
C916 H923 0.930 . S
H917 C914 0.928 . S
H918 C915 0.931 . S
H919 C895 0.930 . S
H920 C892 0.930 . S
H921 C901 0.930 . S
H922 C913 0.929 . S
H923 C916 0.930 . S
C924 C925 1.351 . S
C924 N927 1.368 . S
C924 H929 0.931 . S
C925 C924 1.351 . S
C925 N926 1.373 . S
C925 H953 0.930 . S
N926 C925 1.373 . S
N926 C928 1.340 . S
N927 C924 1.368 . S
N927 C928 1.321 . S
N927 Co930 2.135 . S
C928 N926 1.340 . S
C928 N927 1.321 . S
C928 H952 0.930 . S
H929 C924 0.931 . S
Co930 N927 2.135 . S
Co930 N933 2.121 . S
Co930 O938 2.055 . S
Co930 O941 2.039 . S
Co930 N944 2.140 . S
C931 O932 1.227 . S
C931 O941 1.265 . S
O932 C931 1.227 . S
N933 Co930 2.121 . S
N933 C935 1.375 . S
N933 C936 1.313 . S
C934 C935 1.338 . S
C934 N937 1.377 . S
C934 H954 0.930 . S
C935 N933 1.375 . S
C935 C934 1.338 . S
C935 H939 0.931 . S
C936 N933 1.313 . S
C936 N937 1.344 . S
C936 H940 0.930 . S
N937 C934 1.377 . S
N937 C936 1.344 . S
O938 Co930 2.055 . S
O938 C942 1.253 . S
H939 C935 0.931 . S
H940 C936 0.930 . S
O941 Co930 2.039 . S
O941 C931 1.265 . S
C942 O938 1.253 . S
C942 O943 1.227 . S
O943 C942 1.227 . S
N944 Co930 2.140 . S
N944 C947 1.346 . S
N944 C948 1.345 . S
C945 C946 1.387 . S
C945 C949 1.391 . S
C946 C945 1.387 . S
C946 C947 1.369 . S
C946 H955 0.929 . S
C947 N944 1.346 . S
C947 C946 1.369 . S
C947 H950 0.928 . S
C948 N944 1.345 . S
C948 C949 1.371 . S
C948 H951 0.931 . S
C949 C945 1.391 . S
C949 C948 1.371 . S
C949 H956 0.930 . S
H950 C947 0.928 . S
H951 C948 0.931 . S
H952 C928 0.930 . S
H953 C925 0.930 . S
H954 C934 0.930 . S
H955 C946 0.929 . S
H956 C949 0.930 . S
C957 C958 1.351 . S
C957 N960 1.368 . S
C957 H962 0.931 1_565 S
C958 C957 1.351 . S
C958 N959 1.373 . S
C958 H986 0.930 . S
N959 C958 1.373 . S
N959 C961 1.340 . S
N960 C957 1.368 . S
N960 C961 1.321 . S
N960 Co963 2.135 1_565 S
C961 N959 1.340 . S
C961 N960 1.321 . S
C961 H985 0.930 . S
H962 C957 0.931 1_545 S
Co963 N960 2.135 1_545 S
Co963 N966 2.121 . S
Co963 O971 2.055 . S
Co963 O974 2.039 1_545 S
Co963 N977 2.140 . S
C964 O965 1.227 . S
C964 O974 1.265 . S
O965 C964 1.227 . S
N966 Co963 2.121 . S
N966 C968 1.375 . S
N966 C969 1.313 . S
C967 C968 1.338 . S
C967 N970 1.377 . S
C967 H987 0.930 . S
C968 N966 1.375 . S
C968 C967 1.338 . S
C968 H972 0.931 . S
C969 N966 1.313 . S
C969 N970 1.344 . S
C969 H973 0.930 . S
N970 C967 1.377 . S
N970 C969 1.344 . S
O971 Co963 2.055 . S
O971 C975 1.253 . S
H972 C968 0.931 . S
H973 C969 0.930 . S
O974 Co963 2.039 1_565 S
O974 C964 1.265 . S
C975 O971 1.253 . S
C975 O976 1.227 . S
O976 C975 1.227 . S
N977 Co963 2.140 . S
N977 C980 1.346 1_545 S
N977 C981 1.345 . S
C978 C979 1.387 1_545 S
C978 C982 1.391 . S
C979 C978 1.387 1_565 S
C979 C980 1.369 . S
C979 H988 0.929 . S
C980 N977 1.346 1_565 S
C980 C979 1.369 . S
C980 H983 0.928 . S
C981 N977 1.345 . S
C981 C982 1.371 . S
C981 H984 0.931 . S
C982 C978 1.391 . S
C982 C981 1.371 . S
C982 H989 0.930 . S
H983 C980 0.928 . S
H984 C981 0.931 . S
H985 C961 0.930 . S
H986 C958 0.930 . S
H987 C967 0.930 . S
H988 C979 0.929 . S
H989 C982 0.930 . S
C990 C991 1.351 . S
C990 N993 1.368 . S
C990 H995 0.931 . S
C991 C990 1.351 . S
C991 N992 1.373 . S
C991 H1019 0.930 . S
N992 C991 1.373 . S
N992 C994 1.340 . S
N993 C990 1.368 . S
N993 C994 1.321 . S
N993 Co996 2.135 . S
C994 N992 1.340 . S
C994 N993 1.321 . S
C994 H1018 0.930 . S
H995 C990 0.931 . S
Co996 N993 2.135 . S
Co996 N999 2.121 . S
Co996 O1004 2.055 . S
Co996 O1007 2.039 . S
Co996 N1010 2.140 . S
C997 O998 1.227 . S
C997 O1007 1.265 . S
O998 C997 1.227 . S
N999 Co996 2.121 . S
N999 C1001 1.375 . S
N999 C1002 1.313 . S
C1000 C1001 1.338 . S
C1000 N1003 1.377 . S
C1000 H1020 0.930 . S
C1001 N999 1.375 . S
C1001 C1000 1.338 . S
C1001 H1005 0.931 . S
C1002 N999 1.313 . S
C1002 N1003 1.344 . S
C1002 H1006 0.930 . S
N1003 C1000 1.377 . S
N1003 C1002 1.344 . S
O1004 Co996 2.055 . S
O1004 C1008 1.253 . S
H1005 C1001 0.931 . S
H1006 C1002 0.930 . S
O1007 Co996 2.039 . S
O1007 C997 1.265 . S
C1008 O1004 1.253 . S
C1008 O1009 1.227 . S
O1009 C1008 1.227 . S
N1010 Co996 2.140 . S
N1010 C1013 1.346 . S
N1010 C1014 1.345 . S
C1011 C1012 1.387 . S
C1011 C1015 1.391 . S
C1012 C1011 1.387 . S
C1012 C1013 1.369 . S
C1012 H1021 0.929 . S
C1013 N1010 1.346 . S
C1013 C1012 1.369 . S
C1013 H1016 0.928 . S
C1014 N1010 1.345 . S
C1014 C1015 1.371 . S
C1014 H1017 0.931 . S
C1015 C1011 1.391 . S
C1015 C1014 1.371 . S
C1015 H1022 0.930 . S
H1016 C1013 0.928 . S
H1017 C1014 0.931 . S
H1018 C994 0.930 . S
H1019 C991 0.930 . S
H1020 C1000 0.930 . S
H1021 C1012 0.929 . S
H1022 C1015 0.930 . S
C1023 C1024 1.351 . S
C1023 N1026 1.368 . S
C1023 H1028 0.931 . S
C1024 C1023 1.351 . S
C1024 N1025 1.373 . S
C1024 H1052 0.930 . S
N1025 C1024 1.373 . S
N1025 C1027 1.340 . S
N1026 C1023 1.368 . S
N1026 C1027 1.321 . S
N1026 Co1029 2.135 . S
C1027 N1025 1.340 . S
C1027 N1026 1.321 . S
C1027 H1051 0.930 . S
H1028 C1023 0.931 . S
Co1029 N1026 2.135 . S
Co1029 N1032 2.121 1_545 S
Co1029 O1037 2.055 1_545 S
Co1029 O1040 2.039 . S
Co1029 N1043 2.140 . S
C1030 O1031 1.227 . S
C1030 O1040 1.265 . S
O1031 C1030 1.227 . S
N1032 Co1029 2.121 1_565 S
N1032 C1034 1.375 . S
N1032 C1035 1.313 . S
C1033 C1034 1.338 . S
C1033 N1036 1.377 . S
C1033 H1053 0.930 . S
C1034 N1032 1.375 . S
C1034 C1033 1.338 . S
C1034 H1038 0.903 1_565 S
C1035 N1032 1.313 . S
C1035 N1036 1.344 . S
C1035 H1039 0.930 . S
N1036 C1033 1.377 . S
N1036 C1035 1.344 . S
O1037 Co1029 2.055 1_565 S
O1037 C1041 1.253 . S
H1038 C1034 0.903 1_545 S
H1039 C1035 0.930 . S
O1040 Co1029 2.039 . S
O1040 C1030 1.265 . S
C1041 O1037 1.253 . S
C1041 O1042 1.227 . S
O1042 C1041 1.227 . S
N1043 Co1029 2.140 . S
N1043 C1046 1.346 . S
N1043 C1047 1.345 1_545 S
C1044 C1045 1.387 . S
C1044 C1048 1.391 1_545 S
C1045 C1044 1.387 . S
C1045 C1046 1.369 . S
C1045 H1054 0.929 . S
C1046 N1043 1.346 . S
C1046 C1045 1.369 . S
C1046 H1049 0.928 . S
C1047 N1043 1.345 1_565 S
C1047 C1048 1.371 . S
C1047 H1050 0.931 . S
C1048 C1044 1.391 1_565 S
C1048 C1047 1.371 . S
C1048 H1055 0.930 . S
H1049 C1046 0.928 . S
H1050 C1047 0.931 . S
H1051 C1027 0.930 . S
H1052 C1024 0.930 . S
H1053 C1033 0.930 . S
H1054 C1045 0.929 . S
H1055 C1048 0.930 . S
C1056 C1057 1.351 . S
C1056 N1059 1.368 . S
C1056 H1061 0.931 . S
C1057 C1056 1.351 . S
C1057 N1058 1.373 . S
C1057 H1085 0.930 . S
N1058 C1057 1.373 . S
N1058 C1060 1.340 . S
N1059 C1056 1.368 . S
N1059 C1060 1.321 . S
N1059 Co1062 2.135 . S
C1060 N1058 1.340 . S
C1060 N1059 1.321 . S
C1060 H1084 0.930 . S
H1061 C1056 0.931 . S
Co1062 N1059 2.135 . S
Co1062 N1065 2.121 . S
Co1062 O1070 2.055 . S
Co1062 O1073 2.039 . S
Co1062 N1076 2.140 . S
C1063 O1064 1.227 . S
C1063 O1073 1.265 . S
O1064 C1063 1.227 . S
N1065 Co1062 2.121 . S
N1065 C1067 1.375 . S
N1065 C1068 1.313 . S
C1066 C1067 1.338 . S
C1066 N1069 1.377 . S
C1066 H1086 0.930 . S
C1067 N1065 1.375 . S
C1067 C1066 1.338 . S
C1067 H1071 0.931 . S
C1068 N1065 1.313 . S
C1068 N1069 1.344 . S
C1068 H1072 0.930 . S
N1069 C1066 1.377 . S
N1069 C1068 1.344 . S
O1070 Co1062 2.055 . S
O1070 C1074 1.253 . S
H1071 C1067 0.931 . S
H1072 C1068 0.930 . S
O1073 Co1062 2.039 . S
O1073 C1063 1.265 . S
C1074 O1070 1.253 . S
C1074 O1075 1.227 . S
O1075 C1074 1.227 . S
N1076 Co1062 2.140 . S
N1076 C1079 1.346 . S
N1076 C1080 1.345 . S
C1077 C1078 1.387 . S
C1077 C1081 1.391 . S
C1078 C1077 1.387 . S
C1078 C1079 1.369 . S
C1078 H1087 0.929 . S
C1079 N1076 1.346 . S
C1079 C1078 1.369 . S
C1079 H1082 0.928 . S
C1080 N1076 1.345 . S
C1080 C1081 1.371 . S
C1080 H1083 0.931 . S
C1081 C1077 1.391 . S
C1081 C1080 1.371 . S
C1081 H1088 0.930 . S
H1082 C1079 0.928 . S
H1083 C1080 0.931 . S
H1084 C1060 0.930 . S
H1085 C1057 0.930 . S
H1086 C1066 0.930 . S
H1087 C1078 0.929 . S
H1088 C1081 0.930 . S
C1089 C1090 1.351 . S
C1089 N1092 1.368 . S
C1089 H1094 0.931 . S
C1090 C1089 1.351 . S
C1090 N1091 1.373 . S
C1090 H1118 0.930 . S
N1091 C1090 1.373 . S
N1091 C1093 1.340 . S
N1092 C1089 1.368 . S
N1092 C1093 1.321 . S
N1092 Co1095 2.135 . S
C1093 N1091 1.340 . S
C1093 N1092 1.321 . S
C1093 H1117 0.930 . S
H1094 C1089 0.931 . S
Co1095 N1092 2.135 . S
Co1095 N1098 2.121 . S
Co1095 O1103 2.055 . S
Co1095 O1106 2.039 . S
Co1095 N1109 2.140 . S
C1096 O1097 1.227 . S
C1096 O1106 1.265 . S
O1097 C1096 1.227 . S
N1098 Co1095 2.121 . S
N1098 C1100 1.375 . S
N1098 C1101 1.313 . S
C1099 C1100 1.338 . S
C1099 N1102 1.377 . S
C1099 H1119 0.930 . S
C1100 N1098 1.375 . S
C1100 C1099 1.338 . S
C1100 H1104 0.931 . S
C1101 N1098 1.313 . S
C1101 N1102 1.344 . S
C1101 H1105 0.930 . S
N1102 C1099 1.377 . S
N1102 C1101 1.344 . S
O1103 Co1095 2.055 . S
O1103 C1107 1.253 . S
H1104 C1100 0.931 . S
H1105 C1101 0.930 . S
O1106 Co1095 2.039 . S
O1106 C1096 1.265 . S
C1107 O1103 1.253 . S
C1107 O1108 1.227 . S
O1108 C1107 1.227 . S
N1109 Co1095 2.140 . S
N1109 C1112 1.346 . S
N1109 C1113 1.345 . S
C1110 C1111 1.387 . S
C1110 C1114 1.391 . S
C1111 C1110 1.387 . S
C1111 C1112 1.369 . S
C1111 H1120 0.929 . S
C1112 N1109 1.346 . S
C1112 C1111 1.369 . S
C1112 H1115 0.928 . S
C1113 N1109 1.345 . S
C1113 C1114 1.371 . S
C1113 H1116 0.931 . S
C1114 C1110 1.391 . S
C1114 C1113 1.371 . S
C1114 H1121 0.930 . S
H1115 C1112 0.928 . S
H1116 C1113 0.931 . S
H1117 C1093 0.930 . S
H1118 C1090 0.930 . S
H1119 C1099 0.930 . S
H1120 C1111 0.929 . S
H1121 C1114 0.930 . S
C1122 C1123 1.351 . S
C1122 N1125 1.368 . S
C1122 H1127 0.931 . S
C1123 C1122 1.351 . S
C1123 N1124 1.373 . S
C1123 H1151 0.930 . S
N1124 C1123 1.373 . S
N1124 C1126 1.340 . S
N1125 C1122 1.368 . S
N1125 C1126 1.321 . S
N1125 Co1128 2.135 . S
C1126 N1124 1.340 . S
C1126 N1125 1.321 . S
C1126 H1150 0.930 . S
H1127 C1122 0.931 . S
Co1128 N1125 2.135 . S
Co1128 N1131 2.121 . S
Co1128 O1136 2.055 . S
Co1128 O1139 2.039 . S
Co1128 N1142 2.140 . S
C1129 O1130 1.227 . S
C1129 O1139 1.265 . S
O1130 C1129 1.227 . S
N1131 Co1128 2.121 . S
N1131 C1133 1.375 . S
N1131 C1134 1.313 . S
C1132 C1133 1.338 . S
C1132 N1135 1.377 . S
C1132 H1152 0.930 . S
C1133 N1131 1.375 . S
C1133 C1132 1.338 . S
C1133 H1137 0.931 . S
C1134 N1131 1.313 . S
C1134 N1135 1.344 . S
C1134 H1138 0.930 . S
N1135 C1132 1.377 . S
N1135 C1134 1.344 . S
O1136 Co1128 2.055 . S
O1136 C1140 1.253 . S
H1137 C1133 0.931 . S
H1138 C1134 0.930 . S
O1139 Co1128 2.039 . S
O1139 C1129 1.265 . S
C1140 O1136 1.253 . S
C1140 O1141 1.227 . S
O1141 C1140 1.227 . S
N1142 Co1128 2.140 . S
N1142 C1145 1.346 . S
N1142 C1146 1.345 . S
C1143 C1144 1.387 . S
C1143 C1147 1.391 . S
C1144 C1143 1.387 . S
C1144 C1145 1.369 . S
C1144 H1153 0.929 . S
C1145 N1142 1.346 . S
C1145 C1144 1.369 . S
C1145 H1148 0.928 . S
C1146 N1142 1.345 . S
C1146 C1147 1.371 . S
C1146 H1149 0.931 . S
C1147 C1143 1.391 . S
C1147 C1146 1.371 . S
C1147 H1154 0.930 . S
H1148 C1145 0.928 . S
H1149 C1146 0.931 . S
H1150 C1126 0.930 . S
H1151 C1123 0.930 . S
H1152 C1132 0.930 . S
H1153 C1144 0.929 . S
H1154 C1147 0.930 . S
C1155 C1156 1.351 . S
C1155 N1158 1.368 . S
C1155 H1160 0.931 . S
C1156 C1155 1.351 . S
C1156 N1157 1.373 . S
C1156 H1184 0.930 . S
N1157 C1156 1.373 . S
N1157 C1159 1.340 . S
N1158 C1155 1.368 . S
N1158 C1159 1.321 . S
N1158 Co1161 2.135 . S
C1159 N1157 1.340 . S
C1159 N1158 1.321 . S
C1159 H1183 0.930 . S
H1160 C1155 0.931 . S
Co1161 N1158 2.135 . S
Co1161 N1164 2.121 . S
Co1161 O1169 2.055 . S
Co1161 O1172 2.039 . S
Co1161 N1175 2.140 . S
C1162 O1163 1.227 . S
C1162 O1172 1.265 . S
O1163 C1162 1.227 . S
N1164 Co1161 2.121 . S
N1164 C1166 1.375 . S
N1164 C1167 1.313 . S
C1165 C1166 1.338 . S
C1165 N1168 1.377 . S
C1165 H1185 0.930 . S
C1166 N1164 1.375 . S
C1166 C1165 1.338 . S
C1166 H1170 0.931 . S
C1167 N1164 1.313 . S
C1167 N1168 1.344 . S
C1167 H1171 0.930 . S
N1168 C1165 1.377 . S
N1168 C1167 1.344 . S
O1169 Co1161 2.055 . S
O1169 C1173 1.253 . S
H1170 C1166 0.931 . S
H1171 C1167 0.930 . S
O1172 Co1161 2.039 . S
O1172 C1162 1.265 . S
C1173 O1169 1.253 . S
C1173 O1174 1.227 . S
O1174 C1173 1.227 . S
N1175 Co1161 2.140 . S
N1175 C1178 1.346 . S
N1175 C1179 1.345 . S
C1176 C1177 1.387 . S
C1176 C1180 1.391 . S
C1177 C1176 1.387 . S
C1177 C1178 1.369 . S
C1177 H1186 0.929 . S
C1178 N1175 1.346 . S
C1178 C1177 1.369 . S
C1178 H1181 0.928 . S
C1179 N1175 1.345 . S
C1179 C1180 1.371 . S
C1179 H1182 0.931 . S
C1180 C1176 1.391 . S
C1180 C1179 1.371 . S
C1180 H1187 0.930 . S
H1181 C1178 0.928 . S
H1182 C1179 0.931 . S
H1183 C1159 0.930 . S
H1184 C1156 0.930 . S
H1185 C1165 0.930 . S
H1186 C1177 0.929 . S
H1187 C1180 0.930 . S
C1188 C1189 1.351 . S
C1188 N1191 1.368 . S
C1188 H1193 0.931 . S
C1189 C1188 1.351 . S
C1189 N1190 1.373 . S
C1189 H1217 0.930 . S
N1190 C1189 1.373 . S
N1190 C1192 1.340 . S
N1191 C1188 1.368 . S
N1191 C1192 1.321 . S
N1191 Co1194 2.135 . S
C1192 N1190 1.340 . S
C1192 N1191 1.321 . S
C1192 H1216 0.930 . S
H1193 C1188 0.931 . S
Co1194 N1191 2.135 . S
Co1194 N1197 2.121 . S
Co1194 O1202 2.055 . S
Co1194 O1205 2.039 . S
Co1194 N1208 2.140 . S
C1195 O1196 1.227 . S
C1195 O1205 1.265 . S
O1196 C1195 1.227 . S
N1197 Co1194 2.121 . S
N1197 C1199 1.375 . S
N1197 C1200 1.313 . S
C1198 C1199 1.338 . S
C1198 N1201 1.377 . S
C1198 H1218 0.930 . S
C1199 N1197 1.375 . S
C1199 C1198 1.338 . S
C1199 H1203 0.931 . S
C1200 N1197 1.313 . S
C1200 N1201 1.344 . S
C1200 H1204 0.930 . S
N1201 C1198 1.377 . S
N1201 C1200 1.344 . S
O1202 Co1194 2.055 . S
O1202 C1206 1.253 . S
H1203 C1199 0.931 . S
H1204 C1200 0.930 . S
O1205 Co1194 2.039 . S
O1205 C1195 1.265 . S
C1206 O1202 1.253 . S
C1206 O1207 1.227 . S
O1207 C1206 1.227 . S
N1208 Co1194 2.140 . S
N1208 C1211 1.346 . S
N1208 C1212 1.345 . S
C1209 C1210 1.387 . S
C1209 C1213 1.391 . S
C1210 C1209 1.387 . S
C1210 C1211 1.369 . S
C1210 H1219 0.929 . S
C1211 N1208 1.346 . S
C1211 C1210 1.369 . S
C1211 H1214 0.928 . S
C1212 N1208 1.345 . S
C1212 C1213 1.371 . S
C1212 H1215 0.931 . S
C1213 C1209 1.391 . S
C1213 C1212 1.371 . S
C1213 H1220 0.930 . S
H1214 C1211 0.928 . S
H1215 C1212 0.931 . S
H1216 C1192 0.930 . S
H1217 C1189 0.930 . S
H1218 C1198 0.930 . S
H1219 C1210 0.929 . S
H1220 C1213 0.930 . S
C1221 C1222 1.351 . S
C1221 N1224 1.368 . S
C1221 H1226 0.931 . S
C1222 C1221 1.351 . S
C1222 N1223 1.373 . S
C1222 H1250 0.930 . S
N1223 C1222 1.373 . S
N1223 C1225 1.340 . S
N1224 C1221 1.368 . S
N1224 C1225 1.321 . S
N1224 Co1227 2.135 . S
C1225 N1223 1.340 . S
C1225 N1224 1.321 . S
C1225 H1249 0.930 . S
H1226 C1221 0.931 . S
Co1227 N1224 2.135 . S
Co1227 N1230 2.121 . S
Co1227 O1235 2.055 . S
Co1227 O1238 2.039 . S
Co1227 N1241 2.140 . S
C1228 O1229 1.227 . S
C1228 O1238 1.265 . S
O1229 C1228 1.227 . S
N1230 Co1227 2.121 . S
N1230 C1232 1.375 . S
N1230 C1233 1.313 . S
C1231 C1232 1.338 . S
C1231 N1234 1.377 . S
C1231 H1251 0.930 . S
C1232 N1230 1.375 . S
C1232 C1231 1.338 . S
C1232 H1236 0.931 . S
C1233 N1230 1.313 . S
C1233 N1234 1.344 . S
C1233 H1237 0.930 . S
N1234 C1231 1.377 . S
N1234 C1233 1.344 . S
O1235 Co1227 2.055 . S
O1235 C1239 1.253 . S
H1236 C1232 0.931 . S
H1237 C1233 0.930 . S
O1238 Co1227 2.039 . S
O1238 C1228 1.265 . S
C1239 O1235 1.253 . S
C1239 O1240 1.227 . S
O1240 C1239 1.227 . S
N1241 Co1227 2.140 . S
N1241 C1244 1.346 . S
N1241 C1245 1.345 . S
C1242 C1243 1.387 . S
C1242 C1246 1.391 . S
C1243 C1242 1.387 . S
C1243 C1244 1.369 . S
C1243 H1252 0.929 . S
C1244 N1241 1.346 . S
C1244 C1243 1.369 . S
C1244 H1247 0.928 . S
C1245 N1241 1.345 . S
C1245 C1246 1.371 . S
C1245 H1248 0.931 . S
C1246 C1242 1.391 . S
C1246 C1245 1.371 . S
C1246 H1253 0.930 . S
H1247 C1244 0.928 . S
H1248 C1245 0.931 . S
H1249 C1225 0.930 . S
H1250 C1222 0.930 . S
H1251 C1231 0.930 . S
H1252 C1243 0.929 . S
H1253 C1246 0.930 . S
C1254 C1255 1.351 . S
C1254 N1257 1.368 . S
C1254 H1259 0.931 . S
C1255 C1254 1.351 . S
C1255 N1256 1.373 . S
C1255 H1283 0.930 . S
N1256 C1255 1.373 . S
N1256 C1258 1.340 . S
N1257 C1254 1.368 . S
N1257 C1258 1.321 . S
N1257 Co1260 2.135 . S
C1258 N1256 1.340 . S
C1258 N1257 1.321 . S
C1258 H1282 0.930 . S
H1259 C1254 0.931 . S
Co1260 N1257 2.135 . S
Co1260 N1263 2.121 . S
Co1260 O1268 2.055 . S
Co1260 O1271 2.039 . S
Co1260 N1274 2.140 . S
C1261 O1262 1.227 . S
C1261 O1271 1.265 . S
O1262 C1261 1.227 . S
N1263 Co1260 2.121 . S
N1263 C1265 1.375 . S
N1263 C1266 1.313 . S
C1264 C1265 1.338 . S
C1264 N1267 1.377 . S
C1264 H1284 0.930 . S
C1265 N1263 1.375 . S
C1265 C1264 1.338 . S
C1265 H1269 0.931 . S
C1266 N1263 1.313 . S
C1266 N1267 1.344 . S
C1266 H1270 0.930 . S
N1267 C1264 1.377 . S
N1267 C1266 1.344 . S
O1268 Co1260 2.055 . S
O1268 C1272 1.253 . S
H1269 C1265 0.931 . S
H1270 C1266 0.930 . S
O1271 Co1260 2.039 . S
O1271 C1261 1.265 . S
C1272 O1268 1.253 . S
C1272 O1273 1.227 . S
O1273 C1272 1.227 . S
N1274 Co1260 2.140 . S
N1274 C1277 1.346 . S
N1274 C1278 1.345 . S
C1275 C1276 1.387 . S
C1275 C1279 1.391 . S
C1276 C1275 1.387 . S
C1276 C1277 1.369 . S
C1276 H1285 0.929 . S
C1277 N1274 1.346 . S
C1277 C1276 1.369 . S
C1277 H1280 0.928 . S
C1278 N1274 1.345 . S
C1278 C1279 1.371 . S
C1278 H1281 0.931 . S
C1279 C1275 1.391 . S
C1279 C1278 1.371 . S
C1279 H1286 0.930 . S
H1280 C1277 0.928 . S
H1281 C1278 0.931 . S
H1282 C1258 0.930 . S
H1283 C1255 0.930 . S
H1284 C1264 0.930 . S
H1285 C1276 0.929 . S
H1286 C1279 0.930 . S
C1287 C1288 1.351 . S
C1287 N1290 1.368 . S
C1287 H1292 0.931 . S
C1288 C1287 1.351 . S
C1288 N1289 1.373 . S
C1288 H1316 0.930 . S
N1289 C1288 1.373 . S
N1289 C1291 1.340 . S
N1290 C1287 1.368 . S
N1290 C1291 1.321 . S
N1290 Co1293 2.135 . S
C1291 N1289 1.340 . S
C1291 N1290 1.321 . S
C1291 H1315 0.930 . S
H1292 C1287 0.931 . S
Co1293 N1290 2.135 . S
Co1293 N1296 2.121 . S
Co1293 O1301 2.055 . S
Co1293 O1304 2.039 . S
Co1293 N1307 2.140 . S
C1294 O1295 1.227 . S
C1294 O1304 1.265 . S
O1295 C1294 1.227 . S
N1296 Co1293 2.121 . S
N1296 C1298 1.375 . S
N1296 C1299 1.313 . S
C1297 C1298 1.338 . S
C1297 N1300 1.377 . S
C1297 H1317 0.930 . S
C1298 N1296 1.375 . S
C1298 C1297 1.338 . S
C1298 H1302 0.931 . S
C1299 N1296 1.313 . S
C1299 N1300 1.344 . S
C1299 H1303 0.930 . S
N1300 C1297 1.377 . S
N1300 C1299 1.344 . S
O1301 Co1293 2.055 . S
O1301 C1305 1.253 . S
H1302 C1298 0.931 . S
H1303 C1299 0.930 . S
O1304 Co1293 2.039 . S
O1304 C1294 1.265 . S
C1305 O1301 1.253 . S
C1305 O1306 1.227 . S
O1306 C1305 1.227 . S
N1307 Co1293 2.140 . S
N1307 C1310 1.346 . S
N1307 C1311 1.345 . S
C1308 C1309 1.387 . S
C1308 C1312 1.391 . S
C1309 C1308 1.387 . S
C1309 C1310 1.369 . S
C1309 H1318 0.929 . S
C1310 N1307 1.346 . S
C1310 C1309 1.369 . S
C1310 H1313 0.928 . S
C1311 N1307 1.345 . S
C1311 C1312 1.371 . S
C1311 H1314 0.931 . S
C1312 C1308 1.391 . S
C1312 C1311 1.371 . S
C1312 H1319 0.930 . S
H1313 C1310 0.928 . S
H1314 C1311 0.931 . S
H1315 C1291 0.930 . S
H1316 C1288 0.930 . S
H1317 C1297 0.930 . S
H1318 C1309 0.929 . S
H1319 C1312 0.930 . S
C1320 C1321 1.351 . S
C1320 N1323 1.368 . S
C1320 H1325 0.931 . S
C1321 C1320 1.351 . S
C1321 N1322 1.373 . S
C1321 H1349 0.930 . S
N1322 C1321 1.373 . S
N1322 C1324 1.340 . S
N1323 C1320 1.368 . S
N1323 C1324 1.321 . S
N1323 Co1326 2.135 . S
C1324 N1322 1.340 . S
C1324 N1323 1.321 . S
C1324 H1348 0.930 . S
H1325 C1320 0.931 . S
Co1326 N1323 2.135 . S
Co1326 N1329 2.121 . S
Co1326 O1334 2.055 . S
Co1326 O1337 2.039 . S
Co1326 N1340 2.140 . S
C1327 O1328 1.227 . S
C1327 O1337 1.265 . S
O1328 C1327 1.227 . S
N1329 Co1326 2.121 . S
N1329 C1331 1.375 . S
N1329 C1332 1.313 . S
C1330 C1331 1.338 . S
C1330 N1333 1.377 . S
C1330 H1350 0.930 . S
C1331 N1329 1.375 . S
C1331 C1330 1.338 . S
C1331 H1335 0.931 . S
C1332 N1329 1.313 . S
C1332 N1333 1.344 . S
C1332 H1336 0.930 . S
N1333 C1330 1.377 . S
N1333 C1332 1.344 . S
O1334 Co1326 2.055 . S
O1334 C1338 1.253 . S
H1335 C1331 0.931 . S
H1336 C1332 0.930 . S
O1337 Co1326 2.039 . S
O1337 C1327 1.265 . S
C1338 O1334 1.253 . S
C1338 O1339 1.227 . S
O1339 C1338 1.227 . S
N1340 Co1326 2.140 . S
N1340 C1343 1.346 . S
N1340 C1344 1.345 . S
C1341 C1342 1.387 . S
C1341 C1345 1.391 . S
C1342 C1341 1.387 . S
C1342 C1343 1.369 . S
C1342 H1351 0.929 . S
C1343 N1340 1.346 . S
C1343 C1342 1.369 . S
C1343 H1346 0.928 . S
C1344 N1340 1.345 . S
C1344 C1345 1.371 . S
C1344 H1347 0.931 . S
C1345 C1341 1.391 . S
C1345 C1344 1.371 . S
C1345 H1352 0.930 . S
H1346 C1343 0.928 . S
H1347 C1344 0.931 . S
H1348 C1324 0.930 . S
H1349 C1321 0.930 . S
H1350 C1330 0.930 . S
H1351 C1342 0.929 . S
H1352 C1345 0.930 . S
C1353 C1354 1.351 . S
C1353 N1356 1.368 . S
C1353 H1358 0.931 . S
C1354 C1353 1.351 . S
C1354 N1355 1.373 . S
C1354 H1382 0.930 . S
N1355 C1354 1.373 . S
N1355 C1357 1.340 . S
N1356 C1353 1.368 . S
N1356 C1357 1.321 . S
N1356 Co1359 2.135 . S
C1357 N1355 1.340 . S
C1357 N1356 1.321 . S
C1357 H1381 0.930 . S
H1358 C1353 0.931 . S
Co1359 N1356 2.135 . S
Co1359 N1362 2.121 . S
Co1359 O1367 2.055 . S
Co1359 O1370 2.039 . S
Co1359 N1373 2.140 . S
C1360 O1361 1.227 . S
C1360 O1370 1.265 . S
O1361 C1360 1.227 . S
N1362 Co1359 2.121 . S
N1362 C1364 1.375 . S
N1362 C1365 1.313 . S
C1363 C1364 1.338 . S
C1363 N1366 1.377 . S
C1363 H1383 0.930 . S
C1364 N1362 1.375 . S
C1364 C1363 1.338 . S
C1364 H1368 0.931 . S
C1365 N1362 1.313 . S
C1365 N1366 1.344 . S
C1365 H1369 0.930 . S
N1366 C1363 1.377 . S
N1366 C1365 1.344 . S
O1367 Co1359 2.055 . S
O1367 C1371 1.253 . S
H1368 C1364 0.931 . S
H1369 C1365 0.930 . S
O1370 Co1359 2.039 . S
O1370 C1360 1.265 . S
C1371 O1367 1.253 . S
C1371 O1372 1.227 . S
O1372 C1371 1.227 . S
N1373 Co1359 2.140 . S
N1373 C1376 1.346 . S
N1373 C1377 1.345 . S
C1374 C1375 1.387 . S
C1374 C1378 1.391 . S
C1375 C1374 1.387 . S
C1375 C1376 1.369 . S
C1375 H1384 0.929 . S
C1376 N1373 1.346 . S
C1376 C1375 1.369 . S
C1376 H1379 0.928 . S
C1377 N1373 1.345 . S
C1377 C1378 1.371 . S
C1377 H1380 0.931 . S
C1378 C1374 1.391 . S
C1378 C1377 1.371 . S
C1378 H1385 0.930 . S
H1379 C1376 0.928 . S
H1380 C1377 0.931 . S
H1381 C1357 0.930 . S
H1382 C1354 0.930 . S
H1383 C1363 0.930 . S
H1384 C1375 0.929 . S
H1385 C1378 0.930 . S
C1386 C1387 1.351 . S
C1386 N1389 1.368 . S
C1386 H1391 0.931 . S
C1387 C1386 1.351 . S
C1387 N1388 1.373 . S
C1387 H1415 0.930 . S
N1388 C1387 1.373 . S
N1388 C1390 1.340 . S
N1389 C1386 1.368 . S
N1389 C1390 1.321 . S
N1389 Co1392 2.135 . S
C1390 N1388 1.340 . S
C1390 N1389 1.321 . S
C1390 H1414 0.930 . S
H1391 C1386 0.931 . S
Co1392 N1389 2.135 . S
Co1392 N1395 2.121 . S
Co1392 O1400 2.055 . S
Co1392 O1403 2.039 . S
Co1392 N1406 2.140 . S
C1393 O1394 1.227 . S
C1393 O1403 1.265 . S
O1394 C1393 1.227 . S
N1395 Co1392 2.121 . S
N1395 C1397 1.375 . S
N1395 C1398 1.313 . S
C1396 C1397 1.338 . S
C1396 N1399 1.377 . S
C1396 H1416 0.930 . S
C1397 N1395 1.375 . S
C1397 C1396 1.338 . S
C1397 H1401 0.931 . S
C1398 N1395 1.313 . S
C1398 N1399 1.344 . S
C1398 H1402 0.930 . S
N1399 C1396 1.377 . S
N1399 C1398 1.344 . S
O1400 Co1392 2.055 . S
O1400 C1404 1.253 . S
H1401 C1397 0.931 . S
H1402 C1398 0.930 . S
O1403 Co1392 2.039 . S
O1403 C1393 1.265 . S
C1404 O1400 1.253 . S
C1404 O1405 1.227 . S
O1405 C1404 1.227 . S
N1406 Co1392 2.140 . S
N1406 C1409 1.346 . S
N1406 C1410 1.345 . S
C1407 C1408 1.387 . S
C1407 C1411 1.391 . S
C1408 C1407 1.387 . S
C1408 C1409 1.369 . S
C1408 H1417 0.929 . S
C1409 N1406 1.346 . S
C1409 C1408 1.369 . S
C1409 H1412 0.928 . S
C1410 N1406 1.345 . S
C1410 C1411 1.371 . S
C1410 H1413 0.931 . S
C1411 C1407 1.391 . S
C1411 C1410 1.371 . S
C1411 H1418 0.930 . S
H1412 C1409 0.928 . S
H1413 C1410 0.931 . S
H1414 C1390 0.930 . S
H1415 C1387 0.930 . S
H1416 C1396 0.930 . S
H1417 C1408 0.929 . S
H1418 C1411 0.930 . S
C1419 C1420 1.351 . S
C1419 N1422 1.368 . S
C1419 H1424 0.931 . S
C1420 C1419 1.351 . S
C1420 N1421 1.373 . S
C1420 H1448 0.930 . S
N1421 C1420 1.373 . S
N1421 C1423 1.340 . S
N1422 C1419 1.368 . S
N1422 C1423 1.321 . S
N1422 Co1425 2.135 . S
C1423 N1421 1.340 . S
C1423 N1422 1.321 . S
C1423 H1447 0.930 . S
H1424 C1419 0.931 . S
Co1425 N1422 2.135 . S
Co1425 N1428 2.121 . S
Co1425 O1433 2.055 . S
Co1425 O1436 2.039 . S
Co1425 N1439 2.140 . S
C1426 O1427 1.227 . S
C1426 O1436 1.265 . S
O1427 C1426 1.227 . S
N1428 Co1425 2.121 . S
N1428 C1430 1.375 . S
N1428 C1431 1.313 . S
C1429 C1430 1.338 . S
C1429 N1432 1.377 . S
C1429 H1449 0.930 . S
C1430 N1428 1.375 . S
C1430 C1429 1.338 . S
C1430 H1434 0.931 . S
C1431 N1428 1.313 . S
C1431 N1432 1.344 . S
C1431 H1435 0.930 . S
N1432 C1429 1.377 . S
N1432 C1431 1.344 . S
O1433 Co1425 2.055 . S
O1433 C1437 1.253 . S
H1434 C1430 0.931 . S
H1435 C1431 0.930 . S
O1436 Co1425 2.039 . S
O1436 C1426 1.265 . S
C1437 O1433 1.253 . S
C1437 O1438 1.227 . S
O1438 C1437 1.227 . S
N1439 Co1425 2.140 . S
N1439 C1442 1.346 . S
N1439 C1443 1.345 . S
C1440 C1441 1.387 . S
C1440 C1444 1.391 . S
C1441 C1440 1.387 . S
C1441 C1442 1.369 . S
C1441 H1450 0.929 . S
C1442 N1439 1.346 . S
C1442 C1441 1.369 . S
C1442 H1445 0.928 . S
C1443 N1439 1.345 . S
C1443 C1444 1.371 . S
C1443 H1446 0.931 . S
C1444 C1440 1.391 . S
C1444 C1443 1.371 . S
C1444 H1451 0.930 . S
H1445 C1442 0.928 . S
H1446 C1443 0.931 . S
H1447 C1423 0.930 . S
H1448 C1420 0.930 . S
H1449 C1429 0.930 . S
H1450 C1441 0.929 . S
H1451 C1444 0.930 . S
C1452 C1453 1.351 . S
C1452 N1455 1.368 . S
C1452 H1457 0.931 1_556 S
C1453 C1452 1.351 . S
C1453 N1454 1.373 . S
C1453 H1481 0.930 . S
N1454 C1453 1.373 . S
N1454 C1456 1.340 . S
N1455 C1452 1.368 . S
N1455 C1456 1.321 . S
N1455 Co1458 2.135 1_556 S
C1456 N1454 1.340 . S
C1456 N1455 1.321 . S
C1456 H1480 0.930 . S
H1457 C1452 0.931 1_554 S
Co1458 N1455 2.135 1_554 S
Co1458 N1461 2.121 . S
Co1458 O1466 2.055 . S
Co1458 O1469 2.039 1_554 S
Co1458 N1472 2.140 . S
C1459 O1460 1.227 . S
C1459 O1469 1.265 . S
O1460 C1459 1.227 . S
N1461 Co1458 2.121 . S
N1461 C1463 1.375 . S
N1461 C1464 1.313 . S
C1462 C1463 1.338 . S
C1462 N1465 1.377 . S
C1462 H1482 0.930 . S
C1463 N1461 1.375 . S
C1463 C1462 1.338 . S
C1463 H1467 0.931 . S
C1464 N1461 1.313 . S
C1464 N1465 1.344 . S
C1464 H1468 0.930 . S
N1465 C1462 1.377 . S
N1465 C1464 1.344 . S
O1466 Co1458 2.055 . S
O1466 C1470 1.253 . S
H1467 C1463 0.931 . S
H1468 C1464 0.930 . S
O1469 Co1458 2.039 1_556 S
O1469 C1459 1.265 . S
C1470 O1466 1.253 . S
C1470 O1471 1.227 . S
O1471 C1470 1.227 . S
N1472 Co1458 2.140 . S
N1472 C1475 1.346 1_554 S
N1472 C1476 1.345 . S
C1473 C1474 1.387 1_554 S
C1473 C1477 1.391 . S
C1474 C1473 1.387 1_556 S
C1474 C1475 1.369 . S
C1474 H1483 0.929 . S
C1475 N1472 1.346 1_556 S
C1475 C1474 1.369 . S
C1475 H1478 0.928 . S
C1476 N1472 1.345 . S
C1476 C1477 1.371 . S
C1476 H1479 0.931 . S
C1477 C1473 1.391 . S
C1477 C1476 1.371 . S
C1477 H1484 0.930 . S
H1478 C1475 0.928 . S
H1479 C1476 0.931 . S
H1480 C1456 0.930 . S
H1481 C1453 0.930 . S
H1482 C1462 0.930 . S
H1483 C1474 0.929 . S
H1484 C1477 0.930 . S
C1485 C1486 1.351 . S
C1485 N1488 1.368 . S
C1485 H1490 0.931 . S
C1486 C1485 1.351 . S
C1486 N1487 1.373 . S
C1486 H1514 0.930 . S
N1487 C1486 1.373 . S
N1487 C1489 1.340 . S
N1488 C1485 1.368 . S
N1488 C1489 1.321 . S
N1488 Co1491 2.135 . S
C1489 N1487 1.340 . S
C1489 N1488 1.321 . S
C1489 H1513 0.930 . S
H1490 C1485 0.931 . S
Co1491 N1488 2.135 . S
Co1491 N1494 2.121 1_554 S
Co1491 O1499 2.055 1_554 S
Co1491 O1502 2.039 . S
Co1491 N1505 2.140 . S
C1492 O1493 1.227 . S
C1492 O1502 1.265 . S
O1493 C1492 1.227 . S
N1494 Co1491 2.121 1_556 S
N1494 C1496 1.375 . S
N1494 C1497 1.313 . S
C1495 C1496 1.338 . S
C1495 N1498 1.377 . S
C1495 H1515 0.930 . S
C1496 N1494 1.375 . S
C1496 C1495 1.338 . S
C1496 H1500 0.931 1_556 S
C1497 N1494 1.313 . S
C1497 N1498 1.344 . S
C1497 H1501 0.930 . S
N1498 C1495 1.377 . S
N1498 C1497 1.344 . S
O1499 Co1491 2.055 1_556 S
O1499 C1503 1.253 . S
H1500 C1496 0.931 1_554 S
H1501 C1497 0.930 . S
O1502 Co1491 2.039 . S
O1502 C1492 1.265 . S
C1503 O1499 1.253 . S
C1503 O1504 1.227 . S
O1504 C1503 1.227 . S
N1505 Co1491 2.140 . S
N1505 C1508 1.346 . S
N1505 C1509 1.345 1_554 S
C1506 C1507 1.387 . S
C1506 C1510 1.391 1_554 S
C1507 C1506 1.387 . S
C1507 C1508 1.369 . S
C1507 H1516 0.929 . S
C1508 N1505 1.346 . S
C1508 C1507 1.369 . S
C1508 H1511 0.928 . S
C1509 N1505 1.345 1_556 S
C1509 C1510 1.371 . S
C1509 H1512 0.931 . S
C1510 C1506 1.391 1_556 S
C1510 C1509 1.371 . S
C1510 H1517 0.930 . S
H1511 C1508 0.928 . S
H1512 C1509 0.931 . S
H1513 C1489 0.930 . S
H1514 C1486 0.930 . S
H1515 C1495 0.930 . S
H1516 C1507 0.929 . S
H1517 C1510 0.930 . S
C1518 C1519 1.351 . S
C1518 N1521 1.368 . S
C1518 H1523 0.931 . S
C1519 C1518 1.351 . S
C1519 N1520 1.373 . S
C1519 H1547 0.930 . S
N1520 C1519 1.373 . S
N1520 C1522 1.340 . S
N1521 C1518 1.368 . S
N1521 C1522 1.321 . S
N1521 Co1524 2.135 . S
C1522 N1520 1.340 . S
C1522 N1521 1.321 . S
C1522 H1546 0.930 . S
H1523 C1518 0.931 . S
Co1524 N1521 2.135 . S
Co1524 N1527 2.121 1_554 S
Co1524 O1532 2.055 1_554 S
Co1524 O1535 2.039 . S
Co1524 N1538 2.140 . S
C1525 O1526 1.227 . S
C1525 O1535 1.265 . S
O1526 C1525 1.227 . S
N1527 Co1524 2.121 1_556 S
N1527 C1529 1.375 . S
N1527 C1530 1.313 . S
C1528 C1529 1.338 . S
C1528 N1531 1.377 . S
C1528 H1548 0.930 . S
C1529 N1527 1.375 . S
C1529 C1528 1.338 . S
C1529 H1533 0.931 1_556 S
C1530 N1527 1.313 . S
C1530 N1531 1.344 . S
C1530 H1534 0.930 . S
N1531 C1528 1.377 . S
N1531 C1530 1.344 . S
O1532 Co1524 2.055 1_556 S
O1532 C1536 1.253 . S
H1533 C1529 0.931 1_554 S
H1534 C1530 0.930 . S
O1535 Co1524 2.039 . S
O1535 C1525 1.265 . S
C1536 O1532 1.253 . S
C1536 O1537 1.227 . S
O1537 C1536 1.227 . S
N1538 Co1524 2.140 . S
N1538 C1541 1.346 . S
N1538 C1542 1.345 1_554 S
C1539 C1540 1.387 . S
C1539 C1543 1.391 1_554 S
C1540 C1539 1.387 . S
C1540 C1541 1.369 . S
C1540 H1549 0.929 . S
C1541 N1538 1.346 . S
C1541 C1540 1.369 . S
C1541 H1544 0.928 . S
C1542 N1538 1.345 1_556 S
C1542 C1543 1.371 . S
C1542 H1545 0.931 . S
C1543 C1539 1.391 1_556 S
C1543 C1542 1.371 . S
C1543 H1550 0.930 . S
H1544 C1541 0.928 . S
H1545 C1542 0.931 . S
H1546 C1522 0.930 . S
H1547 C1519 0.930 . S
H1548 C1528 0.930 . S
H1549 C1540 0.929 . S
H1550 C1543 0.930 . S
C1551 C1552 1.351 . S
C1551 N1554 1.368 . S
C1551 H1556 0.931 1_556 S
C1552 C1551 1.351 . S
C1552 N1553 1.373 . S
C1552 H1580 0.930 . S
N1553 C1552 1.373 . S
N1553 C1555 1.340 . S
N1554 C1551 1.368 . S
N1554 C1555 1.321 . S
N1554 Co1557 2.135 1_556 S
C1555 N1553 1.340 . S
C1555 N1554 1.321 . S
C1555 H1579 0.930 . S
H1556 C1551 0.931 1_554 S
Co1557 N1554 2.135 1_554 S
Co1557 N1560 2.121 . S
Co1557 O1565 2.055 . S
Co1557 O1568 2.039 1_554 S
Co1557 N1571 2.140 . S
C1558 O1559 1.227 . S
C1558 O1568 1.265 . S
O1559 C1558 1.227 . S
N1560 Co1557 2.121 . S
N1560 C1562 1.375 . S
N1560 C1563 1.313 . S
C1561 C1562 1.338 . S
C1561 N1564 1.377 . S
C1561 H1581 0.930 . S
C1562 N1560 1.375 . S
C1562 C1561 1.338 . S
C1562 H1566 0.931 . S
C1563 N1560 1.313 . S
C1563 N1564 1.344 . S
C1563 H1567 0.930 . S
N1564 C1561 1.377 . S
N1564 C1563 1.344 . S
O1565 Co1557 2.055 . S
O1565 C1569 1.253 . S
H1566 C1562 0.931 . S
H1567 C1563 0.930 . S
O1568 Co1557 2.039 1_556 S
O1568 C1558 1.265 . S
C1569 O1565 1.253 . S
C1569 O1570 1.227 . S
O1570 C1569 1.227 . S
N1571 Co1557 2.140 . S
N1571 C1574 1.346 1_554 S
N1571 C1575 1.345 . S
C1572 C1573 1.387 1_554 S
C1572 C1576 1.391 . S
C1573 C1572 1.387 1_556 S
C1573 C1574 1.369 . S
C1573 H1582 0.929 . S
C1574 N1571 1.346 1_556 S
C1574 C1573 1.369 . S
C1574 H1577 0.928 . S
C1575 N1571 1.345 . S
C1575 C1576 1.371 . S
C1575 H1578 0.931 . S
C1576 C1572 1.391 . S
C1576 C1575 1.371 . S
C1576 H1583 0.930 . S
H1577 C1574 0.928 . S
H1578 C1575 0.931 . S
H1579 C1555 0.930 . S
H1580 C1552 0.930 . S
H1581 C1561 0.930 . S
H1582 C1573 0.929 . S
H1583 C1576 0.930 . S
C1584 C1585 1.387 . S
C1584 H1588 0.950 . S
C1584 C1593 1.390 . S
C1585 C1584 1.387 . S
C1585 C1587 1.387 1_455 S
H1586 C1593 0.950 . S
C1587 C1585 1.387 1_655 S
C1587 C1589 1.390 . S
C1587 H1591 0.950 . S
H1588 C1584 0.950 . S
C1589 C1587 1.390 . S
C1589 C1590 1.387 1_655 S
C1589 H1592 0.950 . S
C1590 C1589 1.387 1_455 S
C1590 C1593 1.387 . S
H1591 C1587 0.950 . S
H1592 C1589 0.950 . S
C1593 C1584 1.390 . S
C1593 H1586 0.950 . S
C1593 C1590 1.387 . S
C1594 C1595 1.387 1_565 S
C1594 H1598 0.950 . S
C1594 C1603 1.390 . S
C1595 C1594 1.387 1_545 S
C1595 C1597 1.387 . S
H1596 C1603 0.950 . S
C1597 C1595 1.387 . S
C1597 C1599 1.390 . S
C1597 H1601 0.950 . S
H1598 C1594 0.950 . S
C1599 C1597 1.390 . S
C1599 C1600 1.387 . S
C1599 H1602 0.950 . S
C1600 C1599 1.387 . S
C1600 C1603 1.387 1_545 S
H1601 C1597 0.950 . S
H1602 C1599 0.950 . S
C1603 C1594 1.390 . S
C1603 H1596 0.950 . S
C1603 C1600 1.387 1_565 S
C1604 C1605 1.387 1_655 S
C1604 H1608 0.950 . S
C1604 C1613 1.390 . S
C1605 C1604 1.387 1_455 S
C1605 C1607 1.387 . S
H1606 C1613 0.950 . S
C1607 C1605 1.387 . S
C1607 C1609 1.390 . S
C1607 H1611 0.950 . S
H1608 C1604 0.950 . S
C1609 C1607 1.390 . S
C1609 C1610 1.387 . S
C1609 H1612 0.950 . S
C1610 C1609 1.387 . S
C1610 C1613 1.387 1_455 S
H1611 C1607 0.950 . S
H1612 C1609 0.950 . S
C1613 C1604 1.390 . S
C1613 H1606 0.950 . S
C1613 C1610 1.387 1_655 S
C1614 C1615 1.387 1_565 S
C1614 H1618 0.950 . S
C1614 C1623 1.390 . S
C1615 C1614 1.387 1_545 S
C1615 C1617 1.387 . S
H1616 C1623 0.950 . S
C1617 C1615 1.387 . S
C1617 C1619 1.390 . S
C1617 H1621 0.950 . S
H1618 C1614 0.950 . S
C1619 C1617 1.390 . S
C1619 C1620 1.387 . S
C1619 H1622 0.950 . S
C1620 C1619 1.387 . S
C1620 C1623 1.387 1_545 S
H1621 C1617 0.950 . S
H1622 C1619 0.950 . S
C1623 C1614 1.390 . S
C1623 H1616 0.950 . S
C1623 C1620 1.387 1_565 S
C1624 C1625 1.387 1_655 S
C1624 H1628 0.950 . S
C1624 C1633 1.390 . S
C1625 C1624 1.387 1_455 S
C1625 C1627 1.387 . S
H1626 C1633 0.950 . S
C1627 C1625 1.387 . S
C1627 C1629 1.390 . S
C1627 H1631 0.950 . S
H1628 C1624 0.950 . S
C1629 C1627 1.390 . S
C1629 C1630 1.387 . S
C1629 H1632 0.950 . S
C1630 C1629 1.387 . S
C1630 C1633 1.387 1_455 S
H1631 C1627 0.950 . S
H1632 C1629 0.950 . S
C1633 C1624 1.390 . S
C1633 H1626 0.950 . S
C1633 C1630 1.387 1_655 S
C1634 C1635 1.387 1_565 S
C1634 H1638 0.950 . S
C1634 C1643 1.390 . S
C1635 C1634 1.387 1_545 S
C1635 C1637 1.387 . S
H1636 C1643 0.950 . S
C1637 C1635 1.387 . S
C1637 C1639 1.390 . S
C1637 H1641 0.950 . S
H1638 C1634 0.950 . S
C1639 C1637 1.390 . S
C1639 C1640 1.387 . S
C1639 H1642 0.950 . S
C1640 C1639 1.387 . S
C1640 C1643 1.387 1_545 S
H1641 C1637 0.950 . S
H1642 C1639 0.950 . S
C1643 C1634 1.390 . S
C1643 H1636 0.950 . S
C1643 C1640 1.387 1_565 S
C1644 C1645 1.387 . S
C1644 H1648 0.950 . S
C1644 C1653 1.390 . S
C1645 C1644 1.387 . S
C1645 C1647 1.387 1_455 S
H1646 C1653 0.950 . S
C1647 C1645 1.387 1_655 S
C1647 C1649 1.390 . S
C1647 H1651 0.950 . S
H1648 C1644 0.950 . S
C1649 C1647 1.390 . S
C1649 C1650 1.391 1_655 S
C1649 H1652 0.950 . S
C1650 C1649 1.391 1_455 S
C1650 C1653 1.384 . S
H1651 C1647 0.950 . S
H1652 C1649 0.950 . S
C1653 C1644 1.390 . S
C1653 H1646 0.950 . S
C1653 C1650 1.384 . S
C1654 C1655 1.387 . S
C1654 H1658 0.950 . S
C1654 C1663 1.390 . S
C1655 C1654 1.387 . S
C1655 C1657 1.387 1_545 S
H1656 C1663 0.950 . S
C1657 C1655 1.387 1_565 S
C1657 C1659 1.390 . S
C1657 H1661 0.950 . S
H1658 C1654 0.950 . S
C1659 C1657 1.390 . S
C1659 C1660 1.387 1_565 S
C1659 H1662 0.950 . S
C1660 C1659 1.387 1_545 S
C1660 C1663 1.387 . S
H1661 C1657 0.950 . S
H1662 C1659 0.950 . S
C1663 C1654 1.390 . S
C1663 H1656 0.950 . S
C1663 C1660 1.387 . S
C1664 C1665 1.387 1_556 S
C1664 H1668 0.950 . S
C1664 C1673 1.390 . S
C1665 C1664 1.387 1_554 S
C1665 C1667 1.387 . S
H1666 C1673 0.950 . S
C1667 C1665 1.387 . S
C1667 C1669 1.390 . S
C1667 H1671 0.950 . S
H1668 C1664 0.950 . S
C1669 C1667 1.390 . S
C1669 C1670 1.387 . S
C1669 H1672 0.950 . S
C1670 C1669 1.387 . S
C1670 C1673 1.387 1_554 S
H1671 C1667 0.950 . S
H1672 C1669 0.950 . S
C1673 C1664 1.390 . S
C1673 H1666 0.950 . S
C1673 C1670 1.387 1_556 S
C1674 C1675 1.387 1_556 S
C1674 H1678 0.950 . S
C1674 C1683 1.390 . S
C1675 C1674 1.387 1_554 S
C1675 C1677 1.387 . S
H1676 C1683 0.950 . S
C1677 C1675 1.387 . S
C1677 C1679 1.390 . S
C1677 H1681 0.950 . S
H1678 C1674 0.950 . S
C1679 C1677 1.390 . S
C1679 C1680 1.387 . S
C1679 H1682 0.950 . S
C1680 C1679 1.387 . S
C1680 C1683 1.387 1_554 S
H1681 C1677 0.950 . S
H1682 C1679 0.950 . S
C1683 C1674 1.390 . S
C1683 H1676 0.950 . S
C1683 C1680 1.387 1_556 S
C1684 C1685 1.387 1_556 S
C1684 H1688 0.950 . S
C1684 C1693 1.390 . S
C1685 C1684 1.387 1_554 S
C1685 C1687 1.387 . S
H1686 C1693 0.950 . S
C1687 C1685 1.387 . S
C1687 C1689 1.390 . S
C1687 H1691 0.950 . S
H1688 C1684 0.950 . S
C1689 C1687 1.390 . S
C1689 C1690 1.387 . S
C1689 H1692 0.950 . S
C1690 C1689 1.387 . S
C1690 C1693 1.387 1_554 S
H1691 C1687 0.950 . S
H1692 C1689 0.950 . S
C1693 C1684 1.390 . S
C1693 H1686 0.950 . S
C1693 C1690 1.387 1_556 S
C1694 C1695 1.387 1_556 S
C1694 H1698 0.950 . S
C1694 C1703 1.390 . S
C1695 C1694 1.387 1_554 S
C1695 C1697 1.387 . S
H1696 C1703 0.950 . S
C1697 C1695 1.387 . S
C1697 C1699 1.390 . S
C1697 H1701 0.950 . S
H1698 C1694 0.950 . S
C1699 C1697 1.390 . S
C1699 C1700 1.387 . S
C1699 H1702 0.950 . S
C1700 C1699 1.387 . S
C1700 C1703 1.387 1_554 S
H1701 C1697 0.950 . S
H1702 C1699 0.950 . S
C1703 C1694 1.390 . S
C1703 H1696 0.950 . S
C1703 C1700 1.387 1_556 S
C1704 C1705 1.387 . S
C1704 H1708 0.950 . S
C1704 C1713 1.390 . S
C1705 C1704 1.387 . S
C1705 C1707 1.387 . S
H1706 C1713 0.950 . S
C1707 C1705 1.387 . S
C1707 C1709 1.390 . S
C1707 H1711 0.950 . S
H1708 C1704 0.950 . S
C1709 C1707 1.390 . S
C1709 C1710 1.387 . S
C1709 H1712 0.950 . S
C1710 C1709 1.387 . S
C1710 C1713 1.387 . S
H1711 C1707 0.950 . S
H1712 C1709 0.950 . S
C1713 C1704 1.390 . S
C1713 H1706 0.950 . S
C1713 C1710 1.387 . S
C1714 C1715 1.387 . S
C1714 H1718 0.950 . S
C1714 C1723 1.390 . S
C1715 C1714 1.387 . S
C1715 C1717 1.387 . S
H1716 C1723 0.950 . S
C1717 C1715 1.387 . S
C1717 C1719 1.390 . S
C1717 H1721 0.950 . S
H1718 C1714 0.950 . S
C1719 C1717 1.390 . S
C1719 C1720 1.387 . S
C1719 H1722 0.950 . S
C1720 C1719 1.387 . S
C1720 C1723 1.387 . S
H1721 C1717 0.950 . S
H1722 C1719 0.950 . S
C1723 C1714 1.390 . S
C1723 H1716 0.950 . S
C1723 C1720 1.387 . S
C1724 C1725 1.387 . S
C1724 H1728 0.950 . S
C1724 C1733 1.390 . S
C1725 C1724 1.387 . S
C1725 C1727 1.387 . S
H1726 C1733 0.950 . S
C1727 C1725 1.387 . S
C1727 C1729 1.390 . S
C1727 H1731 0.950 . S
H1728 C1724 0.950 . S
C1729 C1727 1.390 . S
C1729 C1730 1.387 . S
C1729 H1732 0.950 . S
C1730 C1729 1.387 . S
C1730 C1733 1.387 . S
H1731 C1727 0.950 . S
H1732 C1729 0.950 . S
C1733 C1724 1.390 . S
C1733 H1726 0.950 . S
C1733 C1730 1.387 . S
C1734 C1735 1.387 . S
C1734 H1738 0.950 . S
C1734 C1743 1.390 . S
C1735 C1734 1.387 . S
C1735 C1737 1.387 . S
H1736 C1743 0.950 . S
C1737 C1735 1.387 . S
C1737 C1739 1.390 . S
C1737 H1741 0.950 . S
H1738 C1734 0.950 . S
C1739 C1737 1.390 . S
C1739 C1740 1.387 . S
C1739 H1742 0.950 . S
C1740 C1739 1.387 . S
C1740 C1743 1.387 . S
H1741 C1737 0.950 . S
H1742 C1739 0.950 . S
C1743 C1734 1.390 . S
C1743 H1736 0.950 . S
C1743 C1740 1.387 . S
C1744 C1745 1.387 . S
C1744 H1748 0.950 . S
C1744 C1753 1.390 . S
C1745 C1744 1.387 . S
C1745 C1747 1.387 . S
H1746 C1753 0.950 . S
C1747 C1745 1.387 . S
C1747 C1749 1.390 . S
C1747 H1751 0.950 . S
H1748 C1744 0.950 . S
C1749 C1747 1.390 . S
C1749 C1750 1.387 . S
C1749 H1752 0.950 . S
C1750 C1749 1.387 . S
C1750 C1753 1.387 . S
H1751 C1747 0.950 . S
H1752 C1749 0.950 . S
C1753 C1744 1.390 . S
C1753 H1746 0.950 . S
C1753 C1750 1.387 . S
C1754 C1755 1.387 . S
C1754 H1758 0.950 . S
C1754 C1763 1.390 . S
C1755 C1754 1.387 . S
C1755 C1757 1.387 . S
H1756 C1763 0.950 . S
C1757 C1755 1.387 . S
C1757 C1759 1.390 . S
C1757 H1761 0.950 . S
H1758 C1754 0.950 . S
C1759 C1757 1.390 . S
C1759 C1760 1.387 . S
C1759 H1762 0.950 . S
C1760 C1759 1.387 . S
C1760 C1763 1.387 . S
H1761 C1757 0.950 . S
H1762 C1759 0.950 . S
C1763 C1754 1.390 . S
C1763 H1756 0.950 . S
C1763 C1760 1.387 . S
C1764 C1765 1.387 . S
C1764 H1768 0.950 . S
C1764 C1773 1.390 . S
C1765 C1764 1.387 . S
C1765 C1767 1.387 . S
H1766 C1773 0.950 . S
C1767 C1765 1.387 . S
C1767 C1769 1.390 . S
C1767 H1771 0.950 . S
H1768 C1764 0.950 . S
C1769 C1767 1.390 . S
C1769 C1770 1.387 . S
C1769 H1772 0.950 . S
C1770 C1769 1.387 . S
C1770 C1773 1.387 . S
H1771 C1767 0.950 . S
H1772 C1769 0.950 . S
C1773 C1764 1.390 . S
C1773 H1766 0.950 . S
C1773 C1770 1.387 . S
C1774 C1775 1.387 . S
C1774 H1778 0.950 . S
C1774 C1783 1.390 . S
C1775 C1774 1.387 . S
C1775 C1777 1.387 . S
H1776 C1783 0.950 . S
C1777 C1775 1.387 . S
C1777 C1779 1.390 . S
C1777 H1781 0.950 . S
H1778 C1774 0.950 . S
C1779 C1777 1.390 . S
C1779 C1780 1.387 . S
C1779 H1782 0.950 . S
C1780 C1779 1.387 . S
C1780 C1783 1.387 . S
H1781 C1777 0.950 . S
H1782 C1779 0.950 . S
C1783 C1774 1.390 . S
C1783 H1776 0.950 . S
C1783 C1780 1.387 . S
C1784 C1785 1.387 . S
C1784 H1788 0.950 . S
C1784 C1793 1.390 . S
C1785 C1784 1.387 . S
C1785 C1787 1.387 . S
H1786 C1793 0.950 . S
C1787 C1785 1.387 . S
C1787 C1789 1.390 . S
C1787 H1791 0.950 . S
H1788 C1784 0.950 . S
C1789 C1787 1.390 . S
C1789 C1790 1.387 . S
C1789 H1792 0.950 . S
C1790 C1789 1.387 . S
C1790 C1793 1.387 . S
H1791 C1787 0.950 . S
H1792 C1789 0.950 . S
C1793 C1784 1.390 . S
C1793 H1786 0.950 . S
C1793 C1790 1.387 . S
C1794 C1795 1.387 . S
C1794 H1798 0.950 . S
C1794 C1803 1.390 . S
C1795 C1794 1.387 . S
C1795 C1797 1.387 . S
H1796 C1803 0.950 . S
C1797 C1795 1.387 . S
C1797 C1799 1.390 . S
C1797 H1801 0.950 . S
H1798 C1794 0.950 . S
C1799 C1797 1.390 . S
C1799 C1800 1.387 . S
C1799 H1802 0.950 . S
C1800 C1799 1.387 . S
C1800 C1803 1.387 . S
H1801 C1797 0.950 . S
H1802 C1799 0.950 . S
C1803 C1794 1.390 . S
C1803 H1796 0.950 . S
C1803 C1800 1.387 . S
C1804 C1805 1.387 . S
C1804 H1808 0.950 . S
C1804 C1813 1.390 . S
C1805 C1804 1.387 . S
C1805 C1807 1.387 . S
H1806 C1813 0.950 . S
C1807 C1805 1.387 . S
C1807 C1809 1.390 . S
C1807 H1811 0.950 . S
H1808 C1804 0.950 . S
C1809 C1807 1.390 . S
C1809 C1810 1.387 . S
C1809 H1812 0.950 . S
C1810 C1809 1.387 . S
C1810 C1813 1.387 . S
H1811 C1807 0.950 . S
H1812 C1809 0.950 . S
C1813 C1804 1.390 . S
C1813 H1806 0.950 . S
C1813 C1810 1.387 . S
C1814 C1815 1.387 . S
C1814 H1818 0.950 . S
C1814 C1823 1.390 . S
C1815 C1814 1.387 . S
C1815 C1817 1.387 . S
H1816 C1823 0.950 . S
C1817 C1815 1.387 . S
C1817 C1819 1.390 . S
C1817 H1821 0.950 . S
H1818 C1814 0.950 . S
C1819 C1817 1.390 . S
C1819 C1820 1.387 . S
C1819 H1822 0.950 . S
C1820 C1819 1.387 . S
C1820 C1823 1.387 . S
H1821 C1817 0.950 . S
H1822 C1819 0.950 . S
C1823 C1814 1.390 . S
C1823 H1816 0.950 . S
C1823 C1820 1.387 . S
C1824 C1825 1.387 . S
C1824 H1828 0.950 . S
C1824 C1833 1.390 . S
C1825 C1824 1.387 . S
C1825 C1827 1.387 . S
H1826 C1833 0.950 . S
C1827 C1825 1.387 . S
C1827 C1829 1.390 . S
C1827 H1831 0.950 . S
H1828 C1824 0.950 . S
C1829 C1827 1.390 . S
C1829 C1830 1.387 . S
C1829 H1832 0.950 . S
C1830 C1829 1.387 . S
C1830 C1833 1.387 . S
H1831 C1827 0.950 . S
H1832 C1829 0.950 . S
C1833 C1824 1.390 . S
C1833 H1826 0.950 . S
C1833 C1830 1.387 . S
C1834 C1835 1.387 . S
C1834 H1838 0.950 . S
C1834 C1843 1.390 . S
C1835 C1834 1.387 . S
C1835 C1837 1.387 . S
H1836 C1843 0.950 . S
C1837 C1835 1.387 . S
C1837 C1839 1.390 . S
C1837 H1841 0.950 . S
H1838 C1834 0.950 . S
C1839 C1837 1.390 . S
C1839 C1840 1.387 . S
C1839 H1842 0.950 . S
C1840 C1839 1.387 . S
C1840 C1843 1.387 . S
H1841 C1837 0.950 . S
H1842 C1839 0.950 . S
C1843 C1834 1.390 . S
C1843 H1836 0.950 . S
C1843 C1840 1.387 . S
C1844 C1845 1.387 . S
C1844 H1848 0.950 . S
C1844 C1853 1.390 . S
C1845 C1844 1.387 . S
C1845 C1847 1.387 . S
H1846 C1853 0.950 . S
C1847 C1845 1.387 . S
C1847 C1849 1.390 . S
C1847 H1851 0.950 . S
H1848 C1844 0.950 . S
C1849 C1847 1.390 . S
C1849 C1850 1.387 . S
C1849 H1852 0.950 . S
C1850 C1849 1.387 . S
C1850 C1853 1.387 . S
H1851 C1847 0.950 . S
H1852 C1849 0.950 . S
C1853 C1844 1.390 . S
C1853 H1846 0.950 . S
C1853 C1850 1.387 . S
C1854 C1855 1.387 . S
C1854 H1858 0.950 . S
C1854 C1863 1.390 . S
C1855 C1854 1.387 . S
C1855 C1857 1.387 . S
H1856 C1863 0.950 . S
C1857 C1855 1.387 . S
C1857 C1859 1.390 . S
C1857 H1861 0.950 . S
H1858 C1854 0.950 . S
C1859 C1857 1.390 . S
C1859 C1860 1.387 . S
C1859 H1862 0.950 . S
C1860 C1859 1.387 . S
C1860 C1863 1.387 . S
H1861 C1857 0.950 . S
H1862 C1859 0.950 . S
C1863 C1854 1.390 . S
C1863 H1856 0.950 . S
C1863 C1860 1.387 . S
C1864 C1865 1.387 . S
C1864 H1868 0.950 . S
C1864 C1873 1.390 . S
C1865 C1864 1.387 . S
C1865 C1867 1.387 . S
H1866 C1873 0.950 . S
C1867 C1865 1.387 . S
C1867 C1869 1.390 . S
C1867 H1871 0.950 . S
H1868 C1864 0.950 . S
C1869 C1867 1.390 . S
C1869 C1870 1.387 . S
C1869 H1872 0.950 . S
C1870 C1869 1.387 . S
C1870 C1873 1.387 . S
H1871 C1867 0.950 . S
H1872 C1869 0.950 . S
C1873 C1864 1.390 . S
C1873 H1866 0.950 . S
C1873 C1870 1.387 . S
C1874 C1875 1.387 . S
C1874 H1878 0.950 . S
C1874 C1883 1.390 . S
C1875 C1874 1.387 . S
C1875 C1877 1.387 . S
H1876 C1883 0.950 . S
C1877 C1875 1.387 . S
C1877 C1879 1.390 . S
C1877 H1881 0.950 . S
H1878 C1874 0.950 . S
C1879 C1877 1.390 . S
C1879 C1880 1.387 . S
C1879 H1882 0.950 . S
C1880 C1879 1.387 . S
C1880 C1883 1.387 . S
H1881 C1877 0.950 . S
H1882 C1879 0.950 . S
C1883 C1874 1.390 . S
C1883 H1876 0.950 . S
C1883 C1880 1.387 . S
C1884 C1885 1.387 . S
C1884 H1888 0.950 . S
C1884 C1893 1.390 . S
C1885 C1884 1.387 . S
C1885 C1887 1.387 . S
H1886 C1893 0.950 . S
C1887 C1885 1.387 . S
C1887 C1889 1.390 . S
C1887 H1891 0.950 . S
H1888 C1884 0.950 . S
C1889 C1887 1.390 . S
C1889 C1890 1.387 . S
C1889 H1892 0.950 . S
C1890 C1889 1.387 . S
C1890 C1893 1.387 . S
H1891 C1887 0.950 . S
H1892 C1889 0.950 . S
C1893 C1884 1.390 . S
C1893 H1886 0.950 . S
C1893 C1890 1.387 . S
C1894 C1895 1.387 . S
C1894 H1898 0.950 . S
C1894 C1903 1.390 . S
C1895 C1894 1.387 . S
C1895 C1897 1.387 . S
H1896 C1903 0.950 . S
C1897 C1895 1.387 . S
C1897 C1899 1.390 . S
C1897 H1901 0.950 . S
H1898 C1894 0.950 . S
C1899 C1897 1.390 . S
C1899 C1900 1.387 . S
C1899 H1902 0.950 . S
C1900 C1899 1.387 . S
C1900 C1903 1.387 . S
H1901 C1897 0.950 . S
H1902 C1899 0.950 . S
C1903 C1894 1.390 . S
C1903 H1896 0.950 . S
C1903 C1900 1.387 . S
C1904 C1905 1.387 . S
C1904 H1908 0.950 . S
C1904 C1913 1.390 . S
C1905 C1904 1.387 . S
C1905 C1907 1.387 . S
H1906 C1913 0.950 . S
C1907 C1905 1.387 . S
C1907 C1909 1.390 . S
C1907 H1911 0.950 . S
H1908 C1904 0.950 . S
C1909 C1907 1.390 . S
C1909 C1910 1.387 . S
C1909 H1912 0.950 . S
C1910 C1909 1.387 . S
C1910 C1913 1.387 . S
H1911 C1907 0.950 . S
H1912 C1909 0.950 . S
C1913 C1904 1.390 . S
C1913 H1906 0.950 . S
C1913 C1910 1.387 . S
C1914 C1915 1.387 . S
C1914 H1918 0.950 . S
C1914 C1923 1.390 . S
C1915 C1914 1.387 . S
C1915 C1917 1.387 . S
H1916 C1923 0.950 . S
C1917 C1915 1.387 . S
C1917 C1919 1.390 . S
C1917 H1921 0.950 . S
H1918 C1914 0.950 . S
C1919 C1917 1.390 . S
C1919 C1920 1.387 . S
C1919 H1922 0.950 . S
C1920 C1919 1.387 . S
C1920 C1923 1.387 . S
H1921 C1917 0.950 . S
H1922 C1919 0.950 . S
C1923 C1914 1.390 . S
C1923 H1916 0.950 . S
C1923 C1920 1.387 . S
C1924 C1925 1.387 . S
C1924 H1928 0.950 . S
C1924 C1933 1.390 . S
C1925 C1924 1.387 . S
C1925 C1927 1.387 . S
H1926 C1933 0.950 . S
C1927 C1925 1.387 . S
C1927 C1929 1.390 . S
C1927 H1931 0.950 . S
H1928 C1924 0.950 . S
C1929 C1927 1.390 . S
C1929 C1930 1.387 . S
C1929 H1932 0.950 . S
C1930 C1929 1.387 . S
C1930 C1933 1.387 . S
H1931 C1927 0.950 . S
H1932 C1929 0.950 . S
C1933 C1924 1.390 . S
C1933 H1926 0.950 . S
C1933 C1930 1.387 . S
C1934 C1935 1.387 . S
C1934 H1938 0.950 . S
C1934 C1943 1.390 . S
C1935 C1934 1.387 . S
C1935 C1937 1.387 . S
H1936 C1943 0.950 . S
C1937 C1935 1.387 . S
C1937 C1939 1.390 . S
C1937 H1941 0.950 . S
H1938 C1934 0.950 . S
C1939 C1937 1.390 . S
C1939 C1940 1.387 . S
C1939 H1942 0.950 . S
C1940 C1939 1.387 . S
C1940 C1943 1.387 . S
H1941 C1937 0.950 . S
H1942 C1939 0.950 . S
C1943 C1934 1.390 . S
C1943 H1936 0.950 . S
C1943 C1940 1.387 . S
C1944 C1945 1.387 . S
C1944 H1948 0.950 . S
C1944 C1953 1.390 . S
C1945 C1944 1.387 . S
C1945 C1947 1.387 . S
H1946 C1953 0.950 . S
C1947 C1945 1.387 . S
C1947 C1949 1.390 . S
C1947 H1951 0.950 . S
H1948 C1944 0.950 . S
C1949 C1947 1.390 . S
C1949 C1950 1.387 . S
C1949 H1952 0.950 . S
C1950 C1949 1.387 . S
C1950 C1953 1.387 . S
H1951 C1947 0.950 . S
H1952 C1949 0.950 . S
C1953 C1944 1.390 . S
C1953 H1946 0.950 . S
C1953 C1950 1.387 . S
C1954 C1955 1.387 . S
C1954 H1958 0.950 . S
C1954 C1963 1.390 . S
C1955 C1954 1.387 . S
C1955 C1957 1.387 . S
H1956 C1963 0.950 . S
C1957 C1955 1.387 . S
C1957 C1959 1.390 . S
C1957 H1961 0.950 . S
H1958 C1954 0.950 . S
C1959 C1957 1.390 . S
C1959 C1960 1.387 . S
C1959 H1962 0.950 . S
C1960 C1959 1.387 . S
C1960 C1963 1.387 . S
H1961 C1957 0.950 . S
H1962 C1959 0.950 . S
C1963 C1954 1.390 . S
C1963 H1956 0.950 . S
C1963 C1960 1.387 . S
C1964 C1965 1.387 . S
C1964 H1968 0.950 . S
C1964 C1973 1.390 . S
C1965 C1964 1.387 . S
C1965 C1967 1.387 . S
H1966 C1973 0.950 . S
C1967 C1965 1.387 . S
C1967 C1969 1.390 . S
C1967 H1971 0.950 . S
H1968 C1964 0.950 . S
C1969 C1967 1.390 . S
C1969 C1970 1.387 . S
C1969 H1972 0.950 . S
C1970 C1969 1.387 . S
C1970 C1973 1.387 . S
H1971 C1967 0.950 . S
H1972 C1969 0.950 . S
C1973 C1964 1.390 . S
C1973 H1966 0.950 . S
C1973 C1970 1.387 . S
C1974 C1975 1.387 . S
C1974 H1978 0.950 . S
C1974 C1983 1.390 . S
C1975 C1974 1.387 . S
C1975 C1977 1.387 . S
H1976 C1983 0.950 . S
C1977 C1975 1.387 . S
C1977 C1979 1.390 . S
C1977 H1981 0.950 . S
H1978 C1974 0.950 . S
C1979 C1977 1.390 . S
C1979 C1980 1.387 . S
C1979 H1982 0.950 . S
C1980 C1979 1.387 . S
C1980 C1983 1.387 . S
H1981 C1977 0.950 . S
H1982 C1979 0.950 . S
C1983 C1974 1.390 . S
C1983 H1976 0.950 . S
C1983 C1980 1.387 . S
C1984 C1985 1.387 . S
C1984 H1988 0.950 . S
C1984 C1993 1.390 . S
C1985 C1984 1.387 . S
C1985 C1987 1.387 . S
H1986 C1993 0.950 . S
C1987 C1985 1.387 . S
C1987 C1989 1.390 . S
C1987 H1991 0.950 . S
H1988 C1984 0.950 . S
C1989 C1987 1.390 . S
C1989 C1990 1.387 . S
C1989 H1992 0.950 . S
C1990 C1989 1.387 . S
C1990 C1993 1.387 . S
H1991 C1987 0.950 . S
H1992 C1989 0.950 . S
C1993 C1984 1.390 . S
C1993 H1986 0.950 . S
C1993 C1990 1.387 . S
C1994 C1995 1.387 . S
C1994 H1998 0.950 . S
C1994 C2003 1.390 . S
C1995 C1994 1.387 . S
C1995 C1997 1.387 . S
H1996 C2003 0.950 . S
C1997 C1995 1.387 . S
C1997 C1999 1.390 . S
C1997 H2001 0.950 . S
H1998 C1994 0.950 . S
C1999 C1997 1.390 . S
C1999 C2000 1.387 . S
C1999 H2002 0.950 . S
C2000 C1999 1.387 . S
C2000 C2003 1.387 . S
H2001 C1997 0.950 . S
H2002 C1999 0.950 . S
C2003 C1994 1.390 . S
C2003 H1996 0.950 . S
C2003 C2000 1.387 . S
C2004 C2005 1.387 . S
C2004 H2008 0.950 . S
C2004 C2013 1.390 . S
C2005 C2004 1.387 . S
C2005 C2007 1.387 . S
H2006 C2013 0.950 . S
C2007 C2005 1.387 . S
C2007 C2009 1.390 . S
C2007 H2011 0.950 . S
H2008 C2004 0.950 . S
C2009 C2007 1.390 . S
C2009 C2010 1.387 . S
C2009 H2012 0.950 . S
C2010 C2009 1.387 . S
C2010 C2013 1.387 . S
H2011 C2007 0.950 . S
H2012 C2009 0.950 . S
C2013 C2004 1.390 . S
C2013 H2006 0.950 . S
C2013 C2010 1.387 . S
C2014 C2015 1.387 . S
C2014 H2018 0.950 . S
C2014 C2023 1.390 . S
C2015 C2014 1.387 . S
C2015 C2017 1.387 . S
H2016 C2023 0.950 . S
C2017 C2015 1.387 . S
C2017 C2019 1.390 . S
C2017 H2021 0.950 . S
H2018 C2014 0.950 . S
C2019 C2017 1.390 . S
C2019 C2020 1.387 . S
C2019 H2022 0.950 . S
C2020 C2019 1.387 . S
C2020 C2023 1.387 . S
H2021 C2017 0.950 . S
H2022 C2019 0.950 . S
C2023 C2014 1.390 . S
C2023 H2016 0.950 . S
C2023 C2020 1.387 . S
C2024 C2025 1.387 . S
C2024 H2028 0.950 . S
C2024 C2033 1.390 . S
C2025 C2024 1.387 . S
C2025 C2027 1.387 . S
H2026 C2033 0.950 . S
C2027 C2025 1.387 . S
C2027 C2029 1.390 . S
C2027 H2031 0.950 . S
H2028 C2024 0.950 . S
C2029 C2027 1.390 . S
C2029 C2030 1.387 . S
C2029 H2032 0.950 . S
C2030 C2029 1.387 . S
C2030 C2033 1.387 . S
H2031 C2027 0.950 . S
H2032 C2029 0.950 . S
C2033 C2024 1.390 . S
C2033 H2026 0.950 . S
C2033 C2030 1.387 . S
C2034 C2035 1.387 . S
C2034 H2038 0.950 . S
C2034 C2043 1.390 . S
C2035 C2034 1.387 . S
C2035 C2037 1.387 . S
H2036 C2043 0.950 . S
C2037 C2035 1.387 . S
C2037 C2039 1.390 . S
C2037 H2041 0.950 . S
H2038 C2034 0.950 . S
C2039 C2037 1.390 . S
C2039 C2040 1.387 . S
C2039 H2042 0.950 . S
C2040 C2039 1.387 . S
C2040 C2043 1.387 . S
H2041 C2037 0.950 . S
H2042 C2039 0.950 . S
C2043 C2034 1.390 . S
C2043 H2036 0.950 . S
C2043 C2040 1.387 . S
C2044 C2045 1.387 . S
C2044 H2048 0.950 . S
C2044 C2053 1.390 . S
C2045 C2044 1.387 . S
C2045 C2047 1.387 . S
H2046 C2053 0.950 . S
C2047 C2045 1.387 . S
C2047 C2049 1.390 . S
C2047 H2051 0.950 . S
H2048 C2044 0.950 . S
C2049 C2047 1.390 . S
C2049 C2050 1.387 . S
C2049 H2052 0.950 . S
C2050 C2049 1.387 . S
C2050 C2053 1.387 . S
H2051 C2047 0.950 . S
H2052 C2049 0.950 . S
C2053 C2044 1.390 . S
C2053 H2046 0.950 . S
C2053 C2050 1.387 . S
C2054 C2055 1.387 . S
C2054 H2058 0.950 . S
C2054 C2063 1.390 . S
C2055 C2054 1.387 . S
C2055 C2057 1.387 . S
H2056 C2063 0.950 . S
C2057 C2055 1.387 . S
C2057 C2059 1.390 . S
C2057 H2061 0.950 . S
H2058 C2054 0.950 . S
C2059 C2057 1.390 . S
C2059 C2060 1.387 . S
C2059 H2062 0.950 . S
C2060 C2059 1.387 . S
C2060 C2063 1.387 . S
H2061 C2057 0.950 . S
H2062 C2059 0.950 . S
C2063 C2054 1.390 . S
C2063 H2056 0.950 . S
C2063 C2060 1.387 . S
C2064 C2065 1.387 . S
C2064 H2068 0.950 . S
C2064 C2073 1.390 . S
C2065 C2064 1.387 . S
C2065 C2067 1.387 . S
H2066 C2073 0.950 . S
C2067 C2065 1.387 . S
C2067 C2069 1.390 . S
C2067 H2071 0.950 . S
H2068 C2064 0.950 . S
C2069 C2067 1.390 . S
C2069 C2070 1.387 . S
C2069 H2072 0.950 . S
C2070 C2069 1.387 . S
C2070 C2073 1.387 . S
H2071 C2067 0.950 . S
H2072 C2069 0.950 . S
C2073 C2064 1.390 . S
C2073 H2066 0.950 . S
C2073 C2070 1.387 . S
C2074 C2075 1.387 . S
C2074 H2078 0.950 . S
C2074 C2083 1.390 . S
C2075 C2074 1.387 . S
C2075 C2077 1.387 . S
H2076 C2083 0.950 . S
C2077 C2075 1.387 . S
C2077 C2079 1.390 . S
C2077 H2081 0.950 . S
H2078 C2074 0.950 . S
C2079 C2077 1.390 . S
C2079 C2080 1.387 . S
C2079 H2082 0.950 . S
C2080 C2079 1.387 . S
C2080 C2083 1.387 . S
H2081 C2077 0.950 . S
H2082 C2079 0.950 . S
C2083 C2074 1.390 . S
C2083 H2076 0.950 . S
C2083 C2080 1.387 . S
C2084 C2085 1.387 . S
C2084 H2088 0.950 . S
C2084 C2093 1.390 . S
C2085 C2084 1.387 . S
C2085 C2087 1.387 . S
H2086 C2093 0.950 . S
C2087 C2085 1.387 . S
C2087 C2089 1.390 . S
C2087 H2091 0.950 . S
H2088 C2084 0.950 . S
C2089 C2087 1.390 . S
C2089 C2090 1.387 . S
C2089 H2092 0.950 . S
C2090 C2089 1.387 . S
C2090 C2093 1.387 . S
H2091 C2087 0.950 . S
H2092 C2089 0.950 . S
C2093 C2084 1.390 . S
C2093 H2086 0.950 . S
C2093 C2090 1.387 . S
C2094 C2095 1.387 . S
C2094 H2098 0.950 . S
C2094 C2103 1.390 . S
C2095 C2094 1.387 . S
C2095 C2097 1.387 . S
H2096 C2103 0.950 . S
C2097 C2095 1.387 . S
C2097 C2099 1.390 . S
C2097 H2101 0.950 . S
H2098 C2094 0.950 . S
C2099 C2097 1.390 . S
C2099 C2100 1.387 . S
C2099 H2102 0.950 . S
C2100 C2099 1.387 . S
C2100 C2103 1.387 . S
H2101 C2097 0.950 . S
H2102 C2099 0.950 . S
C2103 C2094 1.390 . S
C2103 H2096 0.950 . S
C2103 C2100 1.387 . S
C2104 C2105 1.387 . S
C2104 H2108 0.950 . S
C2104 C2113 1.390 . S
C2105 C2104 1.387 . S
C2105 C2107 1.387 . S
H2106 C2113 0.950 . S
C2107 C2105 1.387 . S
C2107 C2109 1.390 . S
C2107 H2111 0.950 . S
H2108 C2104 0.950 . S
C2109 C2107 1.390 . S
C2109 C2110 1.387 . S
C2109 H2112 0.950 . S
C2110 C2109 1.387 . S
C2110 C2113 1.387 . S
H2111 C2107 0.950 . S
H2112 C2109 0.950 . S
C2113 C2104 1.390 . S
C2113 H2106 0.950 . S
C2113 C2110 1.387 . S
C2114 C2115 1.387 . S
C2114 H2118 0.950 . S
C2114 C2123 1.390 . S
C2115 C2114 1.387 . S
C2115 C2117 1.387 . S
H2116 C2123 0.950 . S
C2117 C2115 1.387 . S
C2117 C2119 1.390 . S
C2117 H2121 0.950 . S
H2118 C2114 0.950 . S
C2119 C2117 1.390 . S
C2119 C2120 1.387 . S
C2119 H2122 0.950 . S
C2120 C2119 1.387 . S
C2120 C2123 1.387 . S
H2121 C2117 0.950 . S
H2122 C2119 0.950 . S
C2123 C2114 1.390 . S
C2123 H2116 0.950 . S
C2123 C2120 1.387 . S
C2124 C2125 1.387 . S
C2124 H2128 0.950 . S
C2124 C2133 1.390 . S
C2125 C2124 1.387 . S
C2125 C2127 1.387 . S
H2126 C2133 0.950 . S
C2127 C2125 1.387 . S
C2127 C2129 1.390 . S
C2127 H2131 0.950 . S
H2128 C2124 0.950 . S
C2129 C2127 1.390 . S
C2129 C2130 1.387 . S
C2129 H2132 0.950 . S
C2130 C2129 1.387 . S
C2130 C2133 1.387 . S
H2131 C2127 0.950 . S
H2132 C2129 0.950 . S
C2133 C2124 1.390 . S
C2133 H2126 0.950 . S
C2133 C2130 1.387 . S
C2134 C2135 1.387 . S
C2134 H2138 0.950 . S
C2134 C2143 1.390 . S
C2135 C2134 1.387 . S
C2135 C2137 1.387 . S
H2136 C2143 0.950 . S
C2137 C2135 1.387 . S
C2137 C2139 1.390 . S
C2137 H2141 0.950 . S
H2138 C2134 0.950 . S
C2139 C2137 1.390 . S
C2139 C2140 1.387 . S
C2139 H2142 0.950 . S
C2140 C2139 1.387 . S
C2140 C2143 1.387 . S
H2141 C2137 0.950 . S
H2142 C2139 0.950 . S
C2143 C2134 1.390 . S
C2143 H2136 0.950 . S
C2143 C2140 1.387 . S
C2144 C2145 1.387 . S
C2144 H2148 0.950 . S
C2144 C2153 1.390 . S
C2145 C2144 1.387 . S
C2145 C2147 1.387 . S
H2146 C2153 0.950 . S
C2147 C2145 1.387 . S
C2147 C2149 1.390 . S
C2147 H2151 0.950 . S
H2148 C2144 0.950 . S
C2149 C2147 1.390 . S
C2149 C2150 1.387 . S
C2149 H2152 0.950 . S
C2150 C2149 1.387 . S
C2150 C2153 1.387 . S
H2151 C2147 0.950 . S
H2152 C2149 0.950 . S
C2153 C2144 1.390 . S
C2153 H2146 0.950 . S
C2153 C2150 1.387 . S
C2154 C2155 1.387 . S
C2154 H2158 0.950 . S
C2154 C2163 1.390 . S
C2155 C2154 1.387 . S
C2155 C2157 1.387 . S
H2156 C2163 0.950 . S
C2157 C2155 1.387 . S
C2157 C2159 1.390 . S
C2157 H2161 0.950 . S
H2158 C2154 0.950 . S
C2159 C2157 1.390 . S
C2159 C2160 1.387 . S
C2159 H2162 0.950 . S
C2160 C2159 1.387 . S
C2160 C2163 1.387 . S
H2161 C2157 0.950 . S
H2162 C2159 0.950 . S
C2163 C2154 1.390 . S
C2163 H2156 0.950 . S
C2163 C2160 1.387 . S
C2164 C2165 1.387 . S
C2164 H2168 0.950 . S
C2164 C2173 1.390 . S
C2165 C2164 1.387 . S
C2165 C2167 1.387 . S
H2166 C2173 0.950 . S
C2167 C2165 1.387 . S
C2167 C2169 1.390 . S
C2167 H2171 0.950 . S
H2168 C2164 0.950 . S
C2169 C2167 1.390 . S
C2169 C2170 1.387 . S
C2169 H2172 0.950 . S
C2170 C2169 1.387 . S
C2170 C2173 1.387 . S
H2171 C2167 0.950 . S
H2172 C2169 0.950 . S
C2173 C2164 1.390 . S
C2173 H2166 0.950 . S
C2173 C2170 1.387 . S
C2174 C2175 1.387 . S
C2174 H2178 0.950 . S
C2174 C2183 1.390 . S
C2175 C2174 1.387 . S
C2175 C2177 1.387 . S
H2176 C2183 0.950 . S
C2177 C2175 1.387 . S
C2177 C2179 1.390 . S
C2177 H2181 0.950 . S
H2178 C2174 0.950 . S
C2179 C2177 1.390 . S
C2179 C2180 1.387 . S
C2179 H2182 0.950 . S
C2180 C2179 1.387 . S
C2180 C2183 1.387 . S
H2181 C2177 0.950 . S
H2182 C2179 0.950 . S
C2183 C2174 1.390 . S
C2183 H2176 0.950 . S
C2183 C2180 1.387 . S
C2184 C2185 1.387 . S
C2184 H2188 0.950 . S
C2184 C2193 1.390 . S
C2185 C2184 1.387 . S
C2185 C2187 1.387 . S
H2186 C2193 0.950 . S
C2187 C2185 1.387 . S
C2187 C2189 1.390 . S
C2187 H2191 0.950 . S
H2188 C2184 0.950 . S
C2189 C2187 1.390 . S
C2189 C2190 1.387 . S
C2189 H2192 0.950 . S
C2190 C2189 1.387 . S
C2190 C2193 1.387 . S
H2191 C2187 0.950 . S
H2192 C2189 0.950 . S
C2193 C2184 1.390 . S
C2193 H2186 0.950 . S
C2193 C2190 1.387 . S
C2194 C2195 1.387 . S
C2194 H2198 0.950 . S
C2194 C2203 1.390 . S
C2195 C2194 1.387 . S
C2195 C2197 1.387 . S
H2196 C2203 0.950 . S
C2197 C2195 1.387 . S
C2197 C2199 1.390 . S
C2197 H2201 0.950 . S
H2198 C2194 0.950 . S
C2199 C2197 1.390 . S
C2199 C2200 1.387 . S
C2199 H2202 0.950 . S
C2200 C2199 1.387 . S
C2200 C2203 1.387 . S
H2201 C2197 0.950 . S
H2202 C2199 0.950 . S
C2203 C2194 1.390 . S
C2203 H2196 0.950 . S
C2203 C2200 1.387 . S
C2204 C2205 1.387 . S
C2204 H2208 0.950 . S
C2204 C2213 1.390 . S
C2205 C2204 1.387 . S
C2205 C2207 1.387 . S
H2206 C2213 0.950 . S
C2207 C2205 1.387 . S
C2207 C2209 1.390 . S
C2207 H2211 0.950 . S
H2208 C2204 0.950 . S
C2209 C2207 1.390 . S
C2209 C2210 1.387 . S
C2209 H2212 0.950 . S
C2210 C2209 1.387 . S
C2210 C2213 1.387 . S
H2211 C2207 0.950 . S
H2212 C2209 0.950 . S
C2213 C2204 1.390 . S
C2213 H2206 0.950 . S
C2213 C2210 1.387 . S
C2214 C2215 1.387 . S
C2214 H2218 0.950 . S
C2214 C2223 1.390 . S
C2215 C2214 1.387 . S
C2215 C2217 1.387 . S
H2216 C2223 0.950 . S
C2217 C2215 1.387 . S
C2217 C2219 1.390 . S
C2217 H2221 0.950 . S
H2218 C2214 0.950 . S
C2219 C2217 1.390 . S
C2219 C2220 1.387 . S
C2219 H2222 0.950 . S
C2220 C2219 1.387 . S
C2220 C2223 1.387 . S
H2221 C2217 0.950 . S
H2222 C2219 0.950 . S
C2223 C2214 1.390 . S
C2223 H2216 0.950 . S
C2223 C2220 1.387 . S
C2224 C2225 1.387 . S
C2224 H2228 0.950 . S
C2224 C2233 1.390 . S
C2225 C2224 1.387 . S
C2225 C2227 1.387 . S
H2226 C2233 0.950 . S
C2227 C2225 1.387 . S
C2227 C2229 1.390 . S
C2227 H2231 0.950 . S
H2228 C2224 0.950 . S
C2229 C2227 1.390 . S
C2229 C2230 1.387 . S
C2229 H2232 0.950 . S
C2230 C2229 1.387 . S
C2230 C2233 1.387 . S
H2231 C2227 0.950 . S
H2232 C2229 0.950 . S
C2233 C2224 1.390 . S
C2233 H2226 0.950 . S
C2233 C2230 1.387 . S
C2234 C2235 1.387 . S
C2234 H2238 0.950 . S
C2234 C2243 1.390 . S
C2235 C2234 1.387 . S
C2235 C2237 1.387 . S
H2236 C2243 0.950 . S
C2237 C2235 1.387 . S
C2237 C2239 1.390 . S
C2237 H2241 0.950 . S
H2238 C2234 0.950 . S
C2239 C2237 1.390 . S
C2239 C2240 1.387 . S
C2239 H2242 0.950 . S
C2240 C2239 1.387 . S
C2240 C2243 1.387 . S
H2241 C2237 0.950 . S
H2242 C2239 0.950 . S
C2243 C2234 1.390 . S
C2243 H2236 0.950 . S
C2243 C2240 1.387 . S
C2244 C2245 1.387 . S
C2244 H2248 0.950 . S
C2244 C2253 1.390 . S
C2245 C2244 1.387 . S
C2245 C2247 1.387 . S
H2246 C2253 0.950 . S
C2247 C2245 1.387 . S
C2247 C2249 1.390 . S
C2247 H2251 0.950 . S
H2248 C2244 0.950 . S
C2249 C2247 1.390 . S
C2249 C2250 1.387 . S
C2249 H2252 0.950 . S
C2250 C2249 1.387 . S
C2250 C2253 1.387 . S
H2251 C2247 0.950 . S
H2252 C2249 0.950 . S
C2253 C2244 1.390 . S
C2253 H2246 0.950 . S
C2253 C2250 1.387 . S
C2254 C2255 1.387 . S
C2254 H2258 0.950 . S
C2254 C2263 1.390 . S
C2255 C2254 1.387 . S
C2255 C2257 1.387 . S
H2256 C2263 0.950 . S
C2257 C2255 1.387 . S
C2257 C2259 1.390 . S
C2257 H2261 0.950 . S
H2258 C2254 0.950 . S
C2259 C2257 1.390 . S
C2259 C2260 1.387 . S
C2259 H2262 0.950 . S
C2260 C2259 1.387 . S
C2260 C2263 1.387 . S
H2261 C2257 0.950 . S
H2262 C2259 0.950 . S
C2263 C2254 1.390 . S
C2263 H2256 0.950 . S
C2263 C2260 1.387 . S
C2264 C2265 1.387 . S
C2264 H2268 0.950 . S
C2264 C2273 1.390 . S
C2265 C2264 1.387 . S
C2265 C2267 1.387 . S
H2266 C2273 0.950 . S
C2267 C2265 1.387 . S
C2267 C2269 1.390 . S
C2267 H2271 0.950 . S
H2268 C2264 0.950 . S
C2269 C2267 1.390 . S
C2269 C2270 1.387 . S
C2269 H2272 0.950 . S
C2270 C2269 1.387 . S
C2270 C2273 1.387 . S
H2271 C2267 0.950 . S
H2272 C2269 0.950 . S
C2273 C2264 1.390 . S
C2273 H2266 0.950 . S
C2273 C2270 1.387 . S
C2274 C2275 1.387 . S
C2274 H2278 0.950 . S
C2274 C2283 1.390 . S
C2275 C2274 1.387 . S
C2275 C2277 1.387 . S
H2276 C2283 0.950 . S
C2277 C2275 1.387 . S
C2277 C2279 1.390 . S
C2277 H2281 0.950 . S
H2278 C2274 0.950 . S
C2279 C2277 1.390 . S
C2279 C2280 1.387 . S
C2279 H2282 0.950 . S
C2280 C2279 1.387 . S
C2280 C2283 1.387 . S
H2281 C2277 0.950 . S
H2282 C2279 0.950 . S
C2283 C2274 1.390 . S
C2283 H2276 0.950 . S
C2283 C2280 1.387 . S
C2284 C2285 1.387 . S
C2284 H2288 0.950 . S
C2284 C2293 1.390 . S
C2285 C2284 1.387 . S
C2285 C2287 1.387 . S
H2286 C2293 0.950 . S
C2287 C2285 1.387 . S
C2287 C2289 1.390 . S
C2287 H2291 0.950 . S
H2288 C2284 0.950 . S
C2289 C2287 1.390 . S
C2289 C2290 1.387 . S
C2289 H2292 0.950 . S
C2290 C2289 1.387 . S
C2290 C2293 1.387 . S
H2291 C2287 0.950 . S
H2292 C2289 0.950 . S
C2293 C2284 1.390 . S
C2293 H2286 0.950 . S
C2293 C2290 1.387 . S
C2294 C2295 1.387 . S
C2294 H2298 0.950 . S
C2294 C2303 1.390 . S
C2295 C2294 1.387 . S
C2295 C2297 1.387 . S
H2296 C2303 0.950 . S
C2297 C2295 1.387 . S
C2297 C2299 1.390 . S
C2297 H2301 0.950 . S
H2298 C2294 0.950 . S
C2299 C2297 1.390 . S
C2299 C2300 1.387 . S
C2299 H2302 0.950 . S
C2300 C2299 1.387 . S
C2300 C2303 1.387 . S
H2301 C2297 0.950 . S
H2302 C2299 0.950 . S
C2303 C2294 1.390 . S
C2303 H2296 0.950 . S
C2303 C2300 1.387 . S
C2304 C2305 1.387 . S
C2304 H2308 0.950 . S
C2304 C2313 1.390 . S
C2305 C2304 1.387 . S
C2305 C2307 1.387 . S
H2306 C2313 0.950 . S
C2307 C2305 1.387 . S
C2307 C2309 1.390 . S
C2307 H2311 0.950 . S
H2308 C2304 0.950 . S
C2309 C2307 1.390 . S
C2309 C2310 1.387 . S
C2309 H2312 0.950 . S
C2310 C2309 1.387 . S
C2310 C2313 1.387 . S
H2311 C2307 0.950 . S
H2312 C2309 0.950 . S
C2313 C2304 1.390 . S
C2313 H2306 0.950 . S
C2313 C2310 1.387 . S
C2314 C2315 1.387 . S
C2314 H2318 0.950 . S
C2314 C2323 1.390 . S
C2315 C2314 1.387 . S
C2315 C2317 1.387 . S
H2316 C2323 0.950 . S
C2317 C2315 1.387 . S
C2317 C2319 1.390 . S
C2317 H2321 0.950 . S
H2318 C2314 0.950 . S
C2319 C2317 1.390 . S
C2319 C2320 1.387 . S
C2319 H2322 0.950 . S
C2320 C2319 1.387 . S
C2320 C2323 1.387 . S
H2321 C2317 0.950 . S
H2322 C2319 0.950 . S
C2323 C2314 1.390 . S
C2323 H2316 0.950 . S
C2323 C2320 1.387 . S
C2324 C2325 1.387 . S
C2324 H2328 0.950 . S
C2324 C2333 1.390 . S
C2325 C2324 1.387 . S
C2325 C2327 1.387 . S
H2326 C2333 0.950 . S
C2327 C2325 1.387 . S
C2327 C2329 1.390 . S
C2327 H2331 0.950 . S
H2328 C2324 0.950 . S
C2329 C2327 1.390 . S
C2329 C2330 1.387 . S
C2329 H2332 0.950 . S
C2330 C2329 1.387 . S
C2330 C2333 1.387 . S
H2331 C2327 0.950 . S
H2332 C2329 0.950 . S
C2333 C2324 1.390 . S
C2333 H2326 0.950 . S
C2333 C2330 1.387 . S
C2334 C2335 1.387 . S
C2334 H2338 0.950 . S
C2334 C2343 1.390 . S
C2335 C2334 1.387 . S
C2335 C2337 1.387 . S
H2336 C2343 0.950 . S
C2337 C2335 1.387 . S
C2337 C2339 1.390 . S
C2337 H2341 0.950 . S
H2338 C2334 0.950 . S
C2339 C2337 1.390 . S
C2339 C2340 1.387 . S
C2339 H2342 0.950 . S
C2340 C2339 1.387 . S
C2340 C2343 1.387 . S
H2341 C2337 0.950 . S
H2342 C2339 0.950 . S
C2343 C2334 1.390 . S
C2343 H2336 0.950 . S
C2343 C2340 1.387 . S
C2344 C2345 1.387 . S
C2344 H2348 0.950 . S
C2344 C2353 1.390 . S
C2345 C2344 1.387 . S
C2345 C2347 1.387 . S
H2346 C2353 0.950 . S
C2347 C2345 1.387 . S
C2347 C2349 1.390 . S
C2347 H2351 0.950 . S
H2348 C2344 0.950 . S
C2349 C2347 1.390 . S
C2349 C2350 1.387 . S
C2349 H2352 0.950 . S
C2350 C2349 1.387 . S
C2350 C2353 1.387 . S
H2351 C2347 0.950 . S
H2352 C2349 0.950 . S
C2353 C2344 1.390 . S
C2353 H2346 0.950 . S
C2353 C2350 1.387 . S
C2354 C2355 1.387 . S
C2354 H2358 0.950 . S
C2354 C2363 1.390 . S
C2355 C2354 1.387 . S
C2355 C2357 1.387 . S
H2356 C2363 0.950 . S
C2357 C2355 1.387 . S
C2357 C2359 1.390 . S
C2357 H2361 0.950 . S
H2358 C2354 0.950 . S
C2359 C2357 1.390 . S
C2359 C2360 1.387 . S
C2359 H2362 0.950 . S
C2360 C2359 1.387 . S
C2360 C2363 1.387 . S
H2361 C2357 0.950 . S
H2362 C2359 0.950 . S
C2363 C2354 1.390 . S
C2363 H2356 0.950 . S
C2363 C2360 1.387 . S
C2364 C2365 1.387 . S
C2364 H2368 0.950 . S
C2364 C2373 1.390 . S
C2365 C2364 1.387 . S
C2365 C2367 1.387 . S
H2366 C2373 0.950 . S
C2367 C2365 1.387 . S
C2367 C2369 1.390 . S
C2367 H2371 0.950 . S
H2368 C2364 0.950 . S
C2369 C2367 1.390 . S
C2369 C2370 1.387 . S
C2369 H2372 0.950 . S
C2370 C2369 1.387 . S
C2370 C2373 1.387 . S
H2371 C2367 0.950 . S
H2372 C2369 0.950 . S
C2373 C2364 1.390 . S
C2373 H2366 0.950 . S
C2373 C2370 1.387 . S
C2374 C2375 1.387 . S
C2374 H2378 0.950 . S
C2374 C2383 1.390 . S
C2375 C2374 1.387 . S
C2375 C2377 1.387 . S
H2376 C2383 0.950 . S
C2377 C2375 1.387 . S
C2377 C2379 1.390 . S
C2377 H2381 0.950 . S
H2378 C2374 0.950 . S
C2379 C2377 1.390 . S
C2379 C2380 1.387 . S
C2379 H2382 0.950 . S
C2380 C2379 1.387 . S
C2380 C2383 1.387 . S
H2381 C2377 0.950 . S
H2382 C2379 0.950 . S
C2383 C2374 1.390 . S
C2383 H2376 0.950 . S
C2383 C2380 1.387 . S
C2384 C2385 1.387 . S
C2384 H2388 0.950 . S
C2384 C2393 1.390 . S
C2385 C2384 1.387 . S
C2385 C2387 1.387 . S
H2386 C2393 0.950 . S
C2387 C2385 1.387 . S
C2387 C2389 1.390 . S
C2387 H2391 0.950 . S
H2388 C2384 0.950 . S
C2389 C2387 1.390 . S
C2389 C2390 1.387 . S
C2389 H2392 0.950 . S
C2390 C2389 1.387 . S
C2390 C2393 1.387 . S
H2391 C2387 0.950 . S
H2392 C2389 0.950 . S
C2393 C2384 1.390 . S
C2393 H2386 0.950 . S
C2393 C2390 1.387 . S
C2394 C2395 1.387 . S
C2394 H2398 0.950 . S
C2394 C2403 1.390 . S
C2395 C2394 1.387 . S
C2395 C2397 1.387 . S
H2396 C2403 0.950 . S
C2397 C2395 1.387 . S
C2397 C2399 1.390 . S
C2397 H2401 0.950 . S
H2398 C2394 0.950 . S
C2399 C2397 1.390 . S
C2399 C2400 1.387 . S
C2399 H2402 0.950 . S
C2400 C2399 1.387 . S
C2400 C2403 1.387 . S
H2401 C2397 0.950 . S
H2402 C2399 0.950 . S
C2403 C2394 1.390 . S
C2403 H2396 0.950 . S
C2403 C2400 1.387 . S
C2404 C2405 1.387 . S
C2404 H2408 0.950 . S
C2404 C2413 1.390 . S
C2405 C2404 1.387 . S
C2405 C2407 1.387 . S
H2406 C2413 0.950 . S
C2407 C2405 1.387 . S
C2407 C2409 1.390 . S
C2407 H2411 0.950 . S
H2408 C2404 0.950 . S
C2409 C2407 1.390 . S
C2409 C2410 1.387 . S
C2409 H2412 0.950 . S
C2410 C2409 1.387 . S
C2410 C2413 1.387 . S
H2411 C2407 0.950 . S
H2412 C2409 0.950 . S
C2413 C2404 1.390 . S
C2413 H2406 0.950 . S
C2413 C2410 1.387 . S
C2414 C2415 1.387 . S
C2414 H2418 0.950 . S
C2414 C2423 1.390 . S
C2415 C2414 1.387 . S
C2415 C2417 1.387 . S
H2416 C2423 0.950 . S
C2417 C2415 1.387 . S
C2417 C2419 1.390 . S
C2417 H2421 0.950 . S
H2418 C2414 0.950 . S
C2419 C2417 1.390 . S
C2419 C2420 1.387 . S
C2419 H2422 0.950 . S
C2420 C2419 1.387 . S
C2420 C2423 1.387 . S
H2421 C2417 0.950 . S
H2422 C2419 0.950 . S
C2423 C2414 1.390 . S
C2423 H2416 0.950 . S
C2423 C2420 1.387 . S
C2424 C2425 1.387 . S
C2424 H2428 0.950 . S
C2424 C2433 1.390 . S
C2425 C2424 1.387 . S
C2425 C2427 1.387 . S
H2426 C2433 0.950 . S
C2427 C2425 1.387 . S
C2427 C2429 1.390 . S
C2427 H2431 0.950 . S
H2428 C2424 0.950 . S
C2429 C2427 1.390 . S
C2429 C2430 1.387 . S
C2429 H2432 0.950 . S
C2430 C2429 1.387 . S
C2430 C2433 1.387 . S
H2431 C2427 0.950 . S
H2432 C2429 0.950 . S
C2433 C2424 1.390 . S
C2433 H2426 0.950 . S
C2433 C2430 1.387 . S
C2434 C2435 1.387 . S
C2434 H2438 0.950 . S
C2434 C2443 1.390 . S
C2435 C2434 1.387 . S
C2435 C2437 1.387 . S
H2436 C2443 0.950 . S
C2437 C2435 1.387 . S
C2437 C2439 1.390 . S
C2437 H2441 0.950 . S
H2438 C2434 0.950 . S
C2439 C2437 1.390 . S
C2439 C2440 1.387 . S
C2439 H2442 0.950 . S
C2440 C2439 1.387 . S
C2440 C2443 1.387 . S
H2441 C2437 0.950 . S
H2442 C2439 0.950 . S
C2443 C2434 1.390 . S
C2443 H2436 0.950 . S
C2443 C2440 1.387 . S
C2444 C2445 1.387 . S
C2444 H2448 0.950 . S
C2444 C2453 1.390 . S
C2445 C2444 1.387 . S
C2445 C2447 1.387 . S
H2446 C2453 0.950 . S
C2447 C2445 1.387 . S
C2447 C2449 1.390 . S
C2447 H2451 0.950 . S
H2448 C2444 0.950 . S
C2449 C2447 1.390 . S
C2449 C2450 1.387 . S
C2449 H2452 0.950 . S
C2450 C2449 1.387 . S
C2450 C2453 1.387 . S
H2451 C2447 0.950 . S
H2452 C2449 0.950 . S
C2453 C2444 1.390 . S
C2453 H2446 0.950 . S
C2453 C2450 1.387 . S
C2454 C2455 1.387 . S
C2454 H2458 0.950 . S
C2454 C2463 1.390 . S
C2455 C2454 1.387 . S
C2455 C2457 1.387 . S
H2456 C2463 0.950 . S
C2457 C2455 1.387 . S
C2457 C2459 1.390 . S
C2457 H2461 0.950 . S
H2458 C2454 0.950 . S
C2459 C2457 1.390 . S
C2459 C2460 1.387 . S
C2459 H2462 0.950 . S
C2460 C2459 1.387 . S
C2460 C2463 1.387 . S
H2461 C2457 0.950 . S
H2462 C2459 0.950 . S
C2463 C2454 1.390 . S
C2463 H2456 0.950 . S
C2463 C2460 1.387 . S
C2464 C2465 1.387 . S
C2464 H2468 0.950 . S
C2464 C2473 1.390 . S
C2465 C2464 1.387 . S
C2465 C2467 1.387 . S
H2466 C2473 0.950 . S
C2467 C2465 1.387 . S
C2467 C2469 1.390 . S
C2467 H2471 0.950 . S
H2468 C2464 0.950 . S
C2469 C2467 1.390 . S
C2469 C2470 1.387 . S
C2469 H2472 0.950 . S
C2470 C2469 1.387 . S
C2470 C2473 1.387 . S
H2471 C2467 0.950 . S
H2472 C2469 0.950 . S
C2473 C2464 1.390 . S
C2473 H2466 0.950 . S
C2473 C2470 1.387 . S
C2474 C2475 1.387 . S
C2474 H2478 0.950 . S
C2474 C2483 1.390 . S
C2475 C2474 1.387 . S
C2475 C2477 1.387 . S
H2476 C2483 0.950 . S
C2477 C2475 1.387 . S
C2477 C2479 1.390 . S
C2477 H2481 0.950 . S
H2478 C2474 0.950 . S
C2479 C2477 1.390 . S
C2479 C2480 1.387 . S
C2479 H2482 0.950 . S
C2480 C2479 1.387 . S
C2480 C2483 1.387 . S
H2481 C2477 0.950 . S
H2482 C2479 0.950 . S
C2483 C2474 1.390 . S
C2483 H2476 0.950 . S
C2483 C2480 1.387 . S
C2484 C2485 1.387 . S
C2484 H2488 0.950 . S
C2484 C2493 1.390 . S
C2485 C2484 1.387 . S
C2485 C2487 1.387 . S
H2486 C2493 0.950 . S
C2487 C2485 1.387 . S
C2487 C2489 1.390 . S
C2487 H2491 0.950 . S
H2488 C2484 0.950 . S
C2489 C2487 1.390 . S
C2489 C2490 1.387 . S
C2489 H2492 0.950 . S
C2490 C2489 1.387 . S
C2490 C2493 1.387 . S
H2491 C2487 0.950 . S
H2492 C2489 0.950 . S
C2493 C2484 1.390 . S
C2493 H2486 0.950 . S
C2493 C2490 1.387 . S
C2494 C2495 1.387 . S
C2494 H2498 0.950 . S
C2494 C2503 1.390 . S
C2495 C2494 1.387 . S
C2495 C2497 1.387 . S
H2496 C2503 0.950 . S
C2497 C2495 1.387 . S
C2497 C2499 1.390 . S
C2497 H2501 0.950 . S
H2498 C2494 0.950 . S
C2499 C2497 1.390 . S
C2499 C2500 1.387 . S
C2499 H2502 0.950 . S
C2500 C2499 1.387 . S
C2500 C2503 1.387 . S
H2501 C2497 0.950 . S
H2502 C2499 0.950 . S
C2503 C2494 1.390 . S
C2503 H2496 0.950 . S
C2503 C2500 1.387 . S
C2504 C2505 1.387 . S
C2504 H2508 0.950 . S
C2504 C2513 1.390 . S
C2505 C2504 1.387 . S
C2505 C2507 1.387 . S
H2506 C2513 0.950 . S
C2507 C2505 1.387 . S
C2507 C2509 1.390 . S
C2507 H2511 0.950 . S
H2508 C2504 0.950 . S
C2509 C2507 1.390 . S
C2509 C2510 1.387 . S
C2509 H2512 0.950 . S
C2510 C2509 1.387 . S
C2510 C2513 1.387 . S
H2511 C2507 0.950 . S
H2512 C2509 0.950 . S
C2513 C2504 1.390 . S
C2513 H2506 0.950 . S
C2513 C2510 1.387 . S
C2514 C2515 1.387 . S
C2514 H2518 0.950 . S
C2514 C2523 1.390 . S
C2515 C2514 1.387 . S
C2515 C2517 1.387 . S
H2516 C2523 0.950 . S
C2517 C2515 1.387 . S
C2517 C2519 1.390 . S
C2517 H2521 0.950 . S
H2518 C2514 0.950 . S
C2519 C2517 1.390 . S
C2519 C2520 1.387 . S
C2519 H2522 0.950 . S
C2520 C2519 1.387 . S
C2520 C2523 1.387 . S
H2521 C2517 0.950 . S
H2522 C2519 0.950 . S
C2523 C2514 1.390 . S
C2523 H2516 0.950 . S
C2523 C2520 1.387 . S
C2524 C2525 1.387 . S
C2524 H2528 0.950 . S
C2524 C2533 1.390 . S
C2525 C2524 1.387 . S
C2525 C2527 1.387 . S
H2526 C2533 0.950 . S
C2527 C2525 1.387 . S
C2527 C2529 1.390 . S
C2527 H2531 0.950 . S
H2528 C2524 0.950 . S
C2529 C2527 1.390 . S
C2529 C2530 1.387 . S
C2529 H2532 0.950 . S
C2530 C2529 1.387 . S
C2530 C2533 1.387 . S
H2531 C2527 0.950 . S
H2532 C2529 0.950 . S
C2533 C2524 1.390 . S
C2533 H2526 0.950 . S
C2533 C2530 1.387 . S
C2534 C2535 1.387 . S
C2534 H2538 0.950 . S
C2534 C2543 1.390 . S
C2535 C2534 1.387 . S
C2535 C2537 1.387 . S
H2536 C2543 0.950 . S
C2537 C2535 1.387 . S
C2537 C2539 1.390 . S
C2537 H2541 0.950 . S
H2538 C2534 0.950 . S
C2539 C2537 1.390 . S
C2539 C2540 1.387 . S
C2539 H2542 0.950 . S
C2540 C2539 1.387 . S
C2540 C2543 1.387 . S
H2541 C2537 0.950 . S
H2542 C2539 0.950 . S
C2543 C2534 1.390 . S
C2543 H2536 0.950 . S
C2543 C2540 1.387 . S
C2544 C2545 1.387 . S
C2544 H2548 0.950 . S
C2544 C2553 1.390 . S
C2545 C2544 1.387 . S
C2545 C2547 1.387 . S
H2546 C2553 0.950 . S
C2547 C2545 1.387 . S
C2547 C2549 1.390 . S
C2547 H2551 0.950 . S
H2548 C2544 0.950 . S
C2549 C2547 1.390 . S
C2549 C2550 1.387 . S
C2549 H2552 0.950 . S
C2550 C2549 1.387 . S
C2550 C2553 1.387 . S
H2551 C2547 0.950 . S
H2552 C2549 0.950 . S
C2553 C2544 1.390 . S
C2553 H2546 0.950 . S
C2553 C2550 1.387 . S
C2554 C2555 1.387 . S
C2554 H2558 0.950 . S
C2554 C2563 1.390 . S
C2555 C2554 1.387 . S
C2555 C2557 1.387 . S
H2556 C2563 0.950 . S
C2557 C2555 1.387 . S
C2557 C2559 1.390 . S
C2557 H2561 0.950 . S
H2558 C2554 0.950 . S
C2559 C2557 1.390 . S
C2559 C2560 1.387 . S
C2559 H2562 0.950 . S
C2560 C2559 1.387 . S
C2560 C2563 1.387 . S
H2561 C2557 0.950 . S
H2562 C2559 0.950 . S
C2563 C2554 1.390 . S
C2563 H2556 0.950 . S
C2563 C2560 1.387 . S
C2564 C2565 1.387 . S
C2564 H2568 0.950 . S
C2564 C2573 1.390 . S
C2565 C2564 1.387 . S
C2565 C2567 1.387 . S
H2566 C2573 0.950 . S
C2567 C2565 1.387 . S
C2567 C2569 1.390 . S
C2567 H2571 0.950 . S
H2568 C2564 0.950 . S
C2569 C2567 1.390 . S
C2569 C2570 1.387 . S
C2569 H2572 0.950 . S
C2570 C2569 1.387 . S
C2570 C2573 1.387 . S
H2571 C2567 0.950 . S
H2572 C2569 0.950 . S
C2573 C2564 1.390 . S
C2573 H2566 0.950 . S
C2573 C2570 1.387 . S
C2574 C2575 1.387 . S
C2574 H2578 0.950 . S
C2574 C2583 1.390 . S
C2575 C2574 1.387 . S
C2575 C2577 1.387 . S
H2576 C2583 0.950 . S
C2577 C2575 1.387 . S
C2577 C2579 1.390 . S
C2577 H2581 0.950 . S
H2578 C2574 0.950 . S
C2579 C2577 1.390 . S
C2579 C2580 1.387 . S
C2579 H2582 0.950 . S
C2580 C2579 1.387 . S
C2580 C2583 1.387 . S
H2581 C2577 0.950 . S
H2582 C2579 0.950 . S
C2583 C2574 1.390 . S
C2583 H2576 0.950 . S
C2583 C2580 1.387 . S
C2584 C2585 1.387 . S
C2584 H2588 0.950 . S
C2584 C2593 1.390 . S
C2585 C2584 1.387 . S
C2585 C2587 1.387 . S
H2586 C2593 0.950 . S
C2587 C2585 1.387 . S
C2587 C2589 1.390 . S
C2587 H2591 0.950 . S
H2588 C2584 0.950 . S
C2589 C2587 1.390 . S
C2589 C2590 1.387 . S
C2589 H2592 0.950 . S
C2590 C2589 1.387 . S
C2590 C2593 1.387 . S
H2591 C2587 0.950 . S
H2592 C2589 0.950 . S
C2593 C2584 1.390 . S
C2593 H2586 0.950 . S
C2593 C2590 1.387 . S
C2594 C2595 1.387 . S
C2594 H2598 0.950 . S
C2594 C2603 1.390 . S
C2595 C2594 1.387 . S
C2595 C2597 1.387 . S
H2596 C2603 0.950 . S
C2597 C2595 1.387 . S
C2597 C2599 1.390 . S
C2597 H2601 0.950 . S
H2598 C2594 0.950 . S
C2599 C2597 1.390 . S
C2599 C2600 1.387 . S
C2599 H2602 0.950 . S
C2600 C2599 1.387 . S
C2600 C2603 1.387 . S
H2601 C2597 0.950 . S
H2602 C2599 0.950 . S
C2603 C2594 1.390 . S
C2603 H2596 0.950 . S
C2603 C2600 1.387 . S
C2604 C2605 1.387 . S
C2604 H2608 0.950 . S
C2604 C2613 1.390 . S
C2605 C2604 1.387 . S
C2605 C2607 1.387 . S
H2606 C2613 0.950 . S
C2607 C2605 1.387 . S
C2607 C2609 1.390 . S
C2607 H2611 0.950 . S
H2608 C2604 0.950 . S
C2609 C2607 1.390 . S
C2609 C2610 1.387 . S
C2609 H2612 0.950 . S
C2610 C2609 1.387 . S
C2610 C2613 1.387 . S
H2611 C2607 0.950 . S
H2612 C2609 0.950 . S
C2613 C2604 1.390 . S
C2613 H2606 0.950 . S
C2613 C2610 1.387 . S
C2614 C2615 1.387 . S
C2614 H2618 0.950 . S
C2614 C2623 1.390 . S
C2615 C2614 1.387 . S
C2615 C2617 1.387 . S
H2616 C2623 0.950 . S
C2617 C2615 1.387 . S
C2617 C2619 1.390 . S
C2617 H2621 0.950 . S
H2618 C2614 0.950 . S
C2619 C2617 1.390 . S
C2619 C2620 1.387 . S
C2619 H2622 0.950 . S
C2620 C2619 1.387 . S
C2620 C2623 1.387 . S
H2621 C2617 0.950 . S
H2622 C2619 0.950 . S
C2623 C2614 1.390 . S
C2623 H2616 0.950 . S
C2623 C2620 1.387 . S
C2624 C2625 1.387 . S
C2624 H2628 0.950 . S
C2624 C2633 1.390 . S
C2625 C2624 1.387 . S
C2625 C2627 1.387 . S
H2626 C2633 0.950 . S
C2627 C2625 1.387 . S
C2627 C2629 1.390 . S
C2627 H2631 0.950 . S
H2628 C2624 0.950 . S
C2629 C2627 1.390 . S
C2629 C2630 1.387 . S
C2629 H2632 0.950 . S
C2630 C2629 1.387 . S
C2630 C2633 1.387 . S
H2631 C2627 0.950 . S
H2632 C2629 0.950 . S
C2633 C2624 1.390 . S
C2633 H2626 0.950 . S
C2633 C2630 1.387 . S
C2634 C2635 1.387 . S
C2634 H2638 0.950 . S
C2634 C2643 1.390 . S
C2635 C2634 1.387 . S
C2635 C2637 1.387 . S
H2636 C2643 0.950 . S
C2637 C2635 1.387 . S
C2637 C2639 1.390 . S
C2637 H2641 0.950 . S
H2638 C2634 0.950 . S
C2639 C2637 1.390 . S
C2639 C2640 1.387 . S
C2639 H2642 0.950 . S
C2640 C2639 1.387 . S
C2640 C2643 1.387 . S
H2641 C2637 0.950 . S
H2642 C2639 0.950 . S
C2643 C2634 1.390 . S
C2643 H2636 0.950 . S
C2643 C2640 1.387 . S
C2644 C2645 1.387 . S
C2644 H2648 0.950 . S
C2644 C2653 1.390 . S
C2645 C2644 1.387 . S
C2645 C2647 1.387 . S
H2646 C2653 0.950 . S
C2647 C2645 1.387 . S
C2647 C2649 1.390 . S
C2647 H2651 0.950 . S
H2648 C2644 0.950 . S
C2649 C2647 1.390 . S
C2649 C2650 1.387 . S
C2649 H2652 0.950 . S
C2650 C2649 1.387 . S
C2650 C2653 1.387 . S
H2651 C2647 0.950 . S
H2652 C2649 0.950 . S
C2653 C2644 1.390 . S
C2653 H2646 0.950 . S
C2653 C2650 1.387 . S
C2654 C2655 1.387 . S
C2654 H2658 0.950 . S
C2654 C2663 1.390 . S
C2655 C2654 1.387 . S
C2655 C2657 1.387 . S
H2656 C2663 0.950 . S
C2657 C2655 1.387 . S
C2657 C2659 1.390 . S
C2657 H2661 0.950 . S
H2658 C2654 0.950 . S
C2659 C2657 1.390 . S
C2659 C2660 1.387 . S
C2659 H2662 0.950 . S
C2660 C2659 1.387 . S
C2660 C2663 1.387 . S
H2661 C2657 0.950 . S
H2662 C2659 0.950 . S
C2663 C2654 1.390 . S
C2663 H2656 0.950 . S
C2663 C2660 1.387 . S
C2664 C2665 1.387 . S
C2664 H2668 0.950 . S
C2664 C2673 1.390 . S
C2665 C2664 1.387 . S
C2665 C2667 1.387 . S
H2666 C2673 0.950 . S
C2667 C2665 1.387 . S
C2667 C2669 1.390 . S
C2667 H2671 0.950 . S
H2668 C2664 0.950 . S
C2669 C2667 1.390 . S
C2669 C2670 1.387 . S
C2669 H2672 0.950 . S
C2670 C2669 1.387 . S
C2670 C2673 1.387 . S
H2671 C2667 0.950 . S
H2672 C2669 0.950 . S
C2673 C2664 1.390 . S
C2673 H2666 0.950 . S
C2673 C2670 1.387 . S
C2674 C2675 1.387 . S
C2674 H2678 0.950 . S
C2674 C2683 1.390 . S
C2675 C2674 1.387 . S
C2675 C2677 1.387 . S
H2676 C2683 0.950 . S
C2677 C2675 1.387 . S
C2677 C2679 1.390 . S
C2677 H2681 0.950 . S
H2678 C2674 0.950 . S
C2679 C2677 1.390 . S
C2679 C2680 1.387 . S
C2679 H2682 0.950 . S
C2680 C2679 1.387 . S
C2680 C2683 1.387 . S
H2681 C2677 0.950 . S
H2682 C2679 0.950 . S
C2683 C2674 1.390 . S
C2683 H2676 0.950 . S
C2683 C2680 1.387 . S
C2684 C2685 1.387 . S
C2684 H2688 0.950 . S
C2684 C2693 1.390 . S
C2685 C2684 1.387 . S
C2685 C2687 1.387 . S
H2686 C2693 0.950 . S
C2687 C2685 1.387 . S
C2687 C2689 1.390 . S
C2687 H2691 0.950 . S
H2688 C2684 0.950 . S
C2689 C2687 1.390 . S
C2689 C2690 1.387 . S
C2689 H2692 0.950 . S
C2690 C2689 1.387 . S
C2690 C2693 1.387 . S
H2691 C2687 0.950 . S
H2692 C2689 0.950 . S
C2693 C2684 1.390 . S
C2693 H2686 0.950 . S
C2693 C2690 1.387 . S
C2694 C2695 1.387 . S
C2694 H2698 0.950 . S
C2694 C2703 1.390 . S
C2695 C2694 1.387 . S
C2695 C2697 1.387 . S
H2696 C2703 0.950 . S
C2697 C2695 1.387 . S
C2697 C2699 1.390 . S
C2697 H2701 0.950 . S
H2698 C2694 0.950 . S
C2699 C2697 1.390 . S
C2699 C2700 1.387 . S
C2699 H2702 0.950 . S
C2700 C2699 1.387 . S
C2700 C2703 1.387 . S
H2701 C2697 0.950 . S
H2702 C2699 0.950 . S
C2703 C2694 1.390 . S
C2703 H2696 0.950 . S
C2703 C2700 1.387 . S
C2704 C2705 1.387 . S
C2704 H2708 0.950 . S
C2704 C2713 1.390 . S
C2705 C2704 1.387 . S
C2705 C2707 1.387 . S
H2706 C2713 0.950 . S
C2707 C2705 1.387 . S
C2707 C2709 1.390 . S
C2707 H2711 0.950 . S
H2708 C2704 0.950 . S
C2709 C2707 1.390 . S
C2709 C2710 1.387 . S
C2709 H2712 0.950 . S
C2710 C2709 1.387 . S
C2710 C2713 1.387 . S
H2711 C2707 0.950 . S
H2712 C2709 0.950 . S
C2713 C2704 1.390 . S
C2713 H2706 0.950 . S
C2713 C2710 1.387 . S
C2714 C2715 1.387 . S
C2714 H2718 0.950 . S
C2714 C2723 1.390 . S
C2715 C2714 1.387 . S
C2715 C2717 1.387 . S
H2716 C2723 0.950 . S
C2717 C2715 1.387 . S
C2717 C2719 1.390 . S
C2717 H2721 0.950 . S
H2718 C2714 0.950 . S
C2719 C2717 1.390 . S
C2719 C2720 1.387 . S
C2719 H2722 0.950 . S
C2720 C2719 1.387 . S
C2720 C2723 1.387 . S
H2721 C2717 0.950 . S
H2722 C2719 0.950 . S
C2723 C2714 1.390 . S
C2723 H2716 0.950 . S
C2723 C2720 1.387 . S
C2724 C2725 1.387 . S
C2724 H2728 0.950 . S
C2724 C2733 1.390 . S
C2725 C2724 1.387 . S
C2725 C2727 1.387 . S
H2726 C2733 0.950 . S
C2727 C2725 1.387 . S
C2727 C2729 1.390 . S
C2727 H2731 0.950 . S
H2728 C2724 0.950 . S
C2729 C2727 1.390 . S
C2729 C2730 1.387 . S
C2729 H2732 0.950 . S
C2730 C2729 1.387 . S
C2730 C2733 1.387 . S
H2731 C2727 0.950 . S
H2732 C2729 0.950 . S
C2733 C2724 1.390 . S
C2733 H2726 0.950 . S
C2733 C2730 1.387 . S
C2734 C2735 1.387 . S
C2734 H2738 0.950 . S
C2734 C2743 1.390 . S
C2735 C2734 1.387 . S
C2735 C2737 1.387 . S
H2736 C2743 0.950 . S
C2737 C2735 1.387 . S
C2737 C2739 1.390 . S
C2737 H2741 0.950 . S
H2738 C2734 0.950 . S
C2739 C2737 1.390 . S
C2739 C2740 1.387 . S
C2739 H2742 0.950 . S
C2740 C2739 1.387 . S
C2740 C2743 1.387 . S
H2741 C2737 0.950 . S
H2742 C2739 0.950 . S
C2743 C2734 1.390 . S
C2743 H2736 0.950 . S
C2743 C2740 1.387 . S
C2744 C2745 1.387 . S
C2744 H2748 0.950 . S
C2744 C2753 1.390 . S
C2745 C2744 1.387 . S
C2745 C2747 1.387 . S
H2746 C2753 0.950 . S
C2747 C2745 1.387 . S
C2747 C2749 1.390 . S
C2747 H2751 0.950 . S
H2748 C2744 0.950 . S
C2749 C2747 1.390 . S
C2749 C2750 1.387 . S
C2749 H2752 0.950 . S
C2750 C2749 1.387 . S
C2750 C2753 1.387 . S
H2751 C2747 0.950 . S
H2752 C2749 0.950 . S
C2753 C2744 1.390 . S
C2753 H2746 0.950 . S
C2753 C2750 1.387 . S
C2754 C2755 1.387 . S
C2754 H2758 0.950 . S
C2754 C2763 1.390 . S
C2755 C2754 1.387 . S
C2755 C2757 1.387 . S
H2756 C2763 0.950 . S
C2757 C2755 1.387 . S
C2757 C2759 1.390 . S
C2757 H2761 0.950 . S
H2758 C2754 0.950 . S
C2759 C2757 1.390 . S
C2759 C2760 1.387 . S
C2759 H2762 0.950 . S
C2760 C2759 1.387 . S
C2760 C2763 1.387 . S
H2761 C2757 0.950 . S
H2762 C2759 0.950 . S
C2763 C2754 1.390 . S
C2763 H2756 0.950 . S
C2763 C2760 1.387 . S
C2764 C2765 1.387 . S
C2764 H2768 0.950 . S
C2764 C2773 1.390 . S
C2765 C2764 1.387 . S
C2765 C2767 1.387 . S
H2766 C2773 0.950 . S
C2767 C2765 1.387 . S
C2767 C2769 1.390 . S
C2767 H2771 0.950 . S
H2768 C2764 0.950 . S
C2769 C2767 1.390 . S
C2769 C2770 1.387 . S
C2769 H2772 0.950 . S
C2770 C2769 1.387 . S
C2770 C2773 1.387 . S
H2771 C2767 0.950 . S
H2772 C2769 0.950 . S
C2773 C2764 1.390 . S
C2773 H2766 0.950 . S
C2773 C2770 1.387 . S
C2774 C2775 1.387 . S
C2774 H2778 0.950 . S
C2774 C2783 1.390 . S
C2775 C2774 1.387 . S
C2775 C2777 1.387 . S
H2776 C2783 0.950 . S
C2777 C2775 1.387 . S
C2777 C2779 1.390 . S
C2777 H2781 0.950 . S
H2778 C2774 0.950 . S
C2779 C2777 1.390 . S
C2779 C2780 1.387 . S
C2779 H2782 0.950 . S
C2780 C2779 1.387 . S
C2780 C2783 1.387 . S
H2781 C2777 0.950 . S
H2782 C2779 0.950 . S
C2783 C2774 1.390 . S
C2783 H2776 0.950 . S
C2783 C2780 1.387 . S
C1585 C549 1.026 . S
C1590 C21 1.026 . S
C1595 C54 1.015 . S
C1600 C978 1.015 . S
C1605 C615 1.011 . S
C1610 C87 1.011 . S
C1615 C1044 0.947 . S
C1620 C120 0.947 . S
C1625 C153 1.031 . S
C1630 C417 1.031 . S
C1635 C846 1.049 . S
C1640 C186 1.049 . S
C1645 C483 1.011 . S
C1650 C219 1.010 . S
C1655 C252 1.004 . S
C1660 C912 1.004 . S
C1665 C285 0.934 . S
C1670 C1572 0.934 . S
C1675 C318 1.108 . S
C1680 C1539 1.107 . S
C1685 C351 1.103 . S
C1690 C1506 1.103 . S
C1695 C1473 0.942 . S
C1700 C384 0.943 . S
C1705 C1374 1.015 . S
C1710 C450 1.016 . S
C1715 C516 0.950 . S
C1720 C1440 0.950 . S
C1725 C1242 1.050 . S
C1730 C582 1.050 . S
C1735 C648 0.999 . S
C1740 C1308 0.999 . S
C1745 C681 0.933 . S
C1750 C1176 0.933 . S
C1755 C1143 1.105 . S
C1760 C714 1.104 . S
C1765 C1110 1.105 . S
C1770 C747 1.105 . S
C1775 C780 0.942 . S
C1780 C1077 0.941 . S
C1785 C813 1.010 . S
C1790 C1341 1.010 . S
C1795 C879 1.029 . S
C1800 C1407 1.029 . S
C1805 C945 1.006 . S
C1810 C1209 1.006 . S
C1815 C1011 1.028 . S
C1820 C1275 1.028 . S
C1825 C117 1.722 . S
C1830 N13 1.590 . S
C1835 N35 1.515 . S
C1840 C7 1.683 . S
C1845 C51 1.711 . S
C1850 N68 1.526 . S
C1855 N101 1.507 . S
C1860 C84 1.691 . S
C1865 N134 1.531 . S
C1870 C172 1.695 . S
C1875 C216 1.774 . S
C1880 N178 1.637 . S
C1885 N200 1.545 . S
C1890 C238 1.719 . S
C1895 N244 1.607 . S
C1900 C150 1.734 . S
C1905 N112 1.562 . S
C1910 C282 1.698 . S
C1915 C348 1.719 . S
C1920 N2 1.541 . S
C1925 C381 1.724 . S
C1930 N46 1.591 . S
C1935 C304 1.699 . S
C1940 N79 1.590 . S
C1945 C315 1.741 . S
C1950 N167 1.557 . S
C1955 C271 1.665 . S
C1960 N211 1.557 . S
C1965 N233 1.571 . S
C1970 C337 1.739 . S
C1975 N145 1.541 . S
C1980 C370 1.652 . S
C1985 C18 1.684 . S
C1990 N277 1.560 . S
C1995 C139 1.738 . S
C2000 N310 1.625 . S
C2005 N266 1.485 . S
C2010 C183 1.666 . S
C2015 C205 1.725 . S
C2020 N332 1.561 . S
C2025 N365 1.502 . S
C2030 C249 1.684 . S
C2035 C73 1.655 . S
C2040 N376 1.548 . S
C2045 N299 1.526 . S
C2050 C106 1.700 . S
C2055 C40 1.773 . S
C2060 N343 1.653 . S
C2065 C513 1.691 . S
C2070 N409 1.558 . S
C2075 C403 1.685 . S
C2080 N431 1.515 . S
C2085 N464 1.507 . S
C2090 C447 1.695 . S
C2095 N497 1.488 . S
C2100 C480 1.670 . S
C2105 N530 1.550 . S
C2110 C568 1.715 . S
C2115 N574 1.658 . S
C2120 C612 1.790 . S
C2125 N596 1.542 . S
C2130 C634 1.716 . S
C2135 C546 1.761 . S
C2140 N640 1.630 . S
C2145 C678 1.681 . S
C2150 N508 1.548 . S
C2155 C744 1.729 . S
C2160 N398 1.543 . S
C2165 N442 1.596 . S
C2170 C777 1.728 . S
C2175 C711 1.724 . S
C2180 N475 1.596 . S
C2185 C700 1.717 . S
C2190 N563 1.550 . S
C2195 N607 1.557 . S
C2200 C667 1.664 . S
C2205 C733 1.728 . S
C2210 N629 1.564 . S
C2215 C766 1.670 . S
C2220 N541 1.557 . S
C2225 N673 1.555 . S
C2230 C414 1.679 . S
C2235 C535 1.728 . S
C2240 N695 1.560 . S
C2245 N662 1.484 . S
C2250 C579 1.668 . S
C2255 N728 1.566 . S
C2260 C601 1.740 . S
C2265 N761 1.506 . S
C2270 C645 1.688 . S
C2275 N772 1.549 . S
C2280 C469 1.655 . S
C2285 C502 1.710 . S
C2290 N706 1.593 . S
C2295 N739 1.647 . S
C2300 C436 1.759 . S
C2305 N805 1.584 . S
C2310 C909 1.714 . S
C2315 N827 1.532 . S
C2320 C799 1.702 . S
C2325 N860 1.547 . S
C2330 C843 1.739 . S
C2335 C876 1.655 . S
C2340 N893 1.474 . S
C2345 N926 1.556 . S
C2350 C964 1.725 . S
C2355 N970 1.627 . S
C2360 C1008 1.760 . S
C2365 N992 1.533 . S
C2370 C1030 1.706 . S
C2375 C942 1.723 . S
C2380 N1036 1.594 . S
C2385 N904 1.541 . S
C2390 C1074 1.675 . S
C2395 N794 1.550 . S
C2400 C1129 1.717 . S
C2405 C1173 1.744 . S
C2410 N838 1.610 . S
C2415 C1107 1.741 . S
C2420 N871 1.614 . S
C2425 C1096 1.682 . S
C2430 N959 1.520 . S
C2435 C1063 1.651 . S
C2440 N1003 1.542 . S
C2445 C1140 1.724 . S
C2450 N1025 1.547 . S
C2455 C1162 1.690 . S
C2460 N937 1.579 . S
C2465 N1069 1.546 . S
C2470 C810 1.670 . S
C2475 C931 1.698 . S
C2480 N1091 1.528 . S
C2485 N1058 1.499 . S
C2490 C975 1.685 . S
C2495 C997 1.728 . S
C2500 N1135 1.613 . S
C2505 N1157 1.514 . S
C2510 C1041 1.698 . S
C2515 N1168 1.535 . S
C2520 C865 1.641 . S
C2525 N1102 1.626 . S
C2530 C898 1.742 . S
C2535 N1124 1.607 . S
C2540 C832 1.776 . S
C2545 N1201 1.612 . S
C2550 C1305 1.743 . S
C2555 N1223 1.530 . S
C2560 C1195 1.699 . S
C2565 N1256 1.567 . S
C2570 C1239 1.754 . S
C2575 N1289 1.497 . S
C2580 C1272 1.678 . S
C2585 N1322 1.538 . S
C2590 C1360 1.705 . S
C2595 N1366 1.612 . S
C2600 C1404 1.747 . S
C2605 N1388 1.533 . S
C2610 C1426 1.708 . S
C2615 N1432 1.566 . S
C2620 C1338 1.694 . S
C2625 N1300 1.561 . S
C2630 C1470 1.695 . S
C2635 N1190 1.538 . S
C2640 C1525 1.704 . S
C2645 N1234 1.607 . S
C2650 C1569 1.741 . S
C2655 N1267 1.610 . S
C2660 C1492 1.717 . S
C2665 C1503 1.707 . S
C2670 N1355 1.530 . S
C2675 C1459 1.656 . S
C2680 N1399 1.549 . S
C2685 N1421 1.554 . S
C2690 C1536 1.735 . S
C2695 N1333 1.562 . S
C2700 C1558 1.673 . S
C2705 C1206 1.673 . S
C2710 N1465 1.548 . S
C2715 N1498 1.593 . S
C2720 C1327 1.710 . S
C2725 C1371 1.684 . S
C2730 N1454 1.499 . S
C2735 N1531 1.607 . S
C2740 C1393 1.714 . S
C2745 C1437 1.692 . S
C2750 N1553 1.509 . S
C2755 C1261 1.643 . S
C2760 N1564 1.537 . S
C2765 N1487 1.566 . S
C2770 C1294 1.736 . S
C2775 C1228 1.790 . S
C2780 N1520 1.609 . S
