# Generated by pormake.
# Topology wjd, (6)-cn, num edge types: 1
# Building blocks:
#     Node 0, Type 0, BuildingBlock: KUMBUR_clean_sbu_0, # of connection points: 6
#     Node 1, Type 0, BuildingBlock: KUMBUR_clean_sbu_0, # of connection points: 6
#     Node 2, Type 0, BuildingBlock: KUMBUR_clean_sbu_0, # of connection points: 6
#     Node 3, Type 0, BuildingBlock: KUMBUR_clean_sbu_0, # of connection points: 6
#     Node 4, Type 0, BuildingBlock: KUMBUR_clean_sbu_0, # of connection points: 6
#     Node 5, Type 0, BuildingBlock: KUMBUR_clean_sbu_0, # of connection points: 6
#     Node 6, Type 0, BuildingBlock: KUMBUR_clean_sbu_0, # of connection points: 6
#     Node 7, Type 0, BuildingBlock: KUMBUR_clean_sbu_0, # of connection points: 6
#     Node 8, Type 0, BuildingBlock: KUMBUR_clean_sbu_0, # of connection points: 6
#     Node 9, Type 0, BuildingBlock: KUMBUR_clean_sbu_0, # of connection points: 6
#     Node 10, Type 0, BuildingBlock: KUMBUR_clean_sbu_0, # of connection points: 6
#     Node 11, Type 0, BuildingBlock: KUMBUR_clean_sbu_0, # of connection points: 6
#     Edge 12, Type (0, 0), BuildingBlock: UVAHIK_clean_linker_0, # of connection points: 2
#     Edge 13, Type (0, 0), BuildingBlock: UVAHIK_clean_linker_0, # of connection points: 2
#     Edge 14, Type (0, 0), BuildingBlock: UVAHIK_clean_linker_0, # of connection points: 2
#     Edge 15, Type (0, 0), BuildingBlock: UVAHIK_clean_linker_0, # of connection points: 2
#     Edge 16, Type (0, 0), BuildingBlock: UVAHIK_clean_linker_0, # of connection points: 2
#     Edge 17, Type (0, 0), BuildingBlock: UVAHIK_clean_linker_0, # of connection points: 2
#     Edge 18, Type (0, 0), BuildingBlock: UVAHIK_clean_linker_0, # of connection points: 2
#     Edge 19, Type (0, 0), BuildingBlock: UVAHIK_clean_linker_0, # of connection points: 2
#     Edge 20, Type (0, 0), BuildingBlock: UVAHIK_clean_linker_0, # of connection points: 2
#     Edge 21, Type (0, 0), BuildingBlock: UVAHIK_clean_linker_0, # of connection points: 2
#     Edge 22, Type (0, 0), BuildingBlock: UVAHIK_clean_linker_0, # of connection points: 2
#     Edge 23, Type (0, 0), BuildingBlock: UVAHIK_clean_linker_0, # of connection points: 2
#     Edge 24, Type (0, 0), BuildingBlock: UVAHIK_clean_linker_0, # of connection points: 2
#     Edge 25, Type (0, 0), BuildingBlock: UVAHIK_clean_linker_0, # of connection points: 2
#     Edge 26, Type (0, 0), BuildingBlock: UVAHIK_clean_linker_0, # of connection points: 2
#     Edge 27, Type (0, 0), BuildingBlock: UVAHIK_clean_linker_0, # of connection points: 2
#     Edge 28, Type (0, 0), BuildingBlock: UVAHIK_clean_linker_0, # of connection points: 2
#     Edge 29, Type (0, 0), BuildingBlock: UVAHIK_clean_linker_0, # of connection points: 2
#     Edge 30, Type (0, 0), BuildingBlock: UVAHIK_clean_linker_0, # of connection points: 2
#     Edge 31, Type (0, 0), BuildingBlock: UVAHIK_clean_linker_0, # of connection points: 2
#     Edge 32, Type (0, 0), BuildingBlock: UVAHIK_clean_linker_0, # of connection points: 2
#     Edge 33, Type (0, 0), BuildingBlock: UVAHIK_clean_linker_0, # of connection points: 2
#     Edge 34, Type (0, 0), BuildingBlock: UVAHIK_clean_linker_0, # of connection points: 2
#     Edge 35, Type (0, 0), BuildingBlock: UVAHIK_clean_linker_0, # of connection points: 2
#     Edge 36, Type (0, 0), BuildingBlock: UVAHIK_clean_linker_0, # of connection points: 2
#     Edge 37, Type (0, 0), BuildingBlock: UVAHIK_clean_linker_0, # of connection points: 2
#     Edge 38, Type (0, 0), BuildingBlock: UVAHIK_clean_linker_0, # of connection points: 2
#     Edge 39, Type (0, 0), BuildingBlock: UVAHIK_clean_linker_0, # of connection points: 2
#     Edge 40, Type (0, 0), BuildingBlock: UVAHIK_clean_linker_0, # of connection points: 2
#     Edge 41, Type (0, 0), BuildingBlock: UVAHIK_clean_linker_0, # of connection points: 2
#     Edge 42, Type (0, 0), BuildingBlock: UVAHIK_clean_linker_0, # of connection points: 2
#     Edge 43, Type (0, 0), BuildingBlock: UVAHIK_clean_linker_0, # of connection points: 2
#     Edge 44, Type (0, 0), BuildingBlock: UVAHIK_clean_linker_0, # of connection points: 2
#     Edge 45, Type (0, 0), BuildingBlock: UVAHIK_clean_linker_0, # of connection points: 2
#     Edge 46, Type (0, 0), BuildingBlock: UVAHIK_clean_linker_0, # of connection points: 2
#     Edge 47, Type (0, 0), BuildingBlock: UVAHIK_clean_linker_0, # of connection points: 2
# Relax obj value: 0.099
# Max RMSD: 0.208
# Mean RMSD: 0.208
data_MOF--net-wjd--node1-KUMBUR_clean_sbu_0--edge1-UVAHIK_clean_linker_0
_symmetry_space_group_name_H-M    P1
_symmetry_Int_Tables_number       1
_symmetry_cell_setting            triclinic
loop_
_symmetry_equiv_pos_as_xyz
'x, y, z'
_cell_length_a     46.709914
_cell_length_b     46.781349
_cell_length_c     70.823112
_cell_angle_alpha  90.175708
_cell_angle_beta   89.968625
_cell_angle_gamma 120.11453
loop_
_atom_site_label
_atom_site_type_symbol
_atom_site_fract_x
_atom_site_fract_y
_atom_site_fract_z
_atom_type_partial_charge
Tb0 Tb 0.38121 0.18633 0.11144 0.0
C1 C 0.37912 0.08961 0.17155 0.0
C2 C 0.41086 0.06615 0.15885 0.0
C3 C 0.40897 0.07297 0.19278 0.0
C4 C 0.39058 0.08021 0.15624 0.0
C5 C 0.3878 0.08582 0.19005 0.0
C6 C 0.42046 0.06311 0.17719 0.0
C7 C 0.35266 0.10605 0.20171 0.0
N8 N 0.35876 0.10186 0.16824 0.0
C9 C 0.34462 0.10913 0.18308 0.0
C10 C 0.37459 0.09463 0.20522 0.0
Tb11 Tb 0.3491 0.10859 0.13717 0.0
N12 N 0.38069 0.08361 0.13882 0.0
C13 C 0.38836 0.071 0.12342 0.0
C14 C 0.42023 0.05492 0.14301 0.0
C15 C 0.40851 0.05693 0.12524 0.0
H16 H 0.328 0.11844 0.18071 0.0
H17 H 0.41515 0.04784 0.1129 0.0
H18 H 0.43625 0.05263 0.17948 0.0
H19 H 0.34207 0.1127 0.21334 0.0
H20 H 0.37993 0.07248 0.10951 0.0
H21 H 0.32027 0.25032 0.13853 0.0
H22 H 0.43587 0.04406 0.14438 0.0
H23 H 0.40303 0.18171 0.06755 0.0
H24 H 0.35436 0.22407 0.1404 0.0
H25 H 0.38812 0.18921 0.03526 0.0
H26 H 0.41612 0.07005 0.20688 0.0
H27 H 0.29598 0.25293 0.10802 0.0
H28 H 0.29081 0.24214 0.07301 0.0
H29 H 0.38078 0.09228 0.21966 0.0
H30 H 0.30905 0.22497 0.04469 0.0
N31 N 0.34887 0.21055 0.11126 0.0
C32 C 0.34402 0.2248 0.12693 0.0
C33 C 0.31085 0.24115 0.10875 0.0
C34 C 0.31744 0.22828 0.09255 0.0
C35 C 0.32464 0.23984 0.12596 0.0
C36 C 0.33706 0.2133 0.0943 0.0
H37 H 0.34611 0.20595 0.03042 0.0
N38 N 0.36887 0.19283 0.08092 0.0
C39 C 0.37624 0.19318 0.0473 0.0
C40 C 0.3472 0.20373 0.07849 0.0
C41 C 0.38468 0.18904 0.06563 0.0
C42 C 0.35239 0.20245 0.04462 0.0
C43 C 0.33815 0.20868 0.06033 0.0
O44 O 0.42845 0.22031 0.10075 0.0
O45 O 0.39079 0.14993 0.1238 0.0
O46 O 0.38644 0.14815 0.15448 0.0
O47 O 0.3818 0.19221 0.14284 0.0
O48 O 0.41753 0.17371 0.10046 0.0
O49 O 0.40919 0.23259 0.12494 0.0
O50 O 0.30015 0.07693 0.14637 0.0
O51 O 0.33921 0.14483 0.12436 0.0
O52 O 0.34821 0.14513 0.09221 0.0
O53 O 0.3508 0.10178 0.10672 0.0
O54 O 0.31492 0.12346 0.1488 0.0
O55 O 0.32133 0.06213 0.12409 0.0
C56 C 0.41321 0.15209 0.11293 0.0
C57 C 0.44414 0.27661 0.10478 0.0
C58 C 0.48266 0.33654 0.10411 0.0
C59 C 0.47301 0.30488 0.11151 0.0
C60 C 0.46318 0.3392 0.08983 0.0
C61 C 0.42552 0.28029 0.09048 0.0
C62 C 0.43494 0.31131 0.08309 0.0
C63 C 0.38954 0.17768 0.15649 0.0
C64 C 0.43319 0.24344 0.11274 0.0
C65 C 0.31666 0.22136 0.0585 0.0
C66 C 0.30633 0.23119 0.07462 0.0
C67 C 0.31809 0.14388 0.13585 0.0
C68 C 0.27755 0.01953 0.14162 0.0
C69 C 0.24327 0.99972 0.13829 0.0
C70 C 0.2257 0.96662 0.14447 0.0
C71 C 0.24313 0.95387 0.15418 0.0
C72 C 0.29429 1.00631 0.1514 0.0
C73 C 0.27708 0.97361 0.15764 0.0
C74 C 0.34375 0.11464 0.09205 0.0
C75 C 0.29527 0.05366 0.13448 0.0
H76 H 0.48758 0.3023 0.12256 0.0
H77 H 0.47011 0.36292 0.08359 0.0
H78 H 0.40374 0.2592 0.08492 0.0
H79 H 0.42033 0.31373 0.07202 0.0
H80 H 0.23044 1.00996 0.13059 0.0
H81 H 0.23042 0.92871 0.15935 0.0
H82 H 0.3206 0.0212 0.15414 0.0
H83 H 0.29011 0.9635 0.1652 0.0
Tb84 Tb 0.81173 0.71264 0.3793 0.0
C85 C 0.91863 0.71611 0.4303 0.0
C86 C 0.97015 0.74589 0.41331 0.0
C87 C 0.97013 0.74828 0.44758 0.0
C88 C 0.93535 0.72601 0.41348 0.0
C89 C 0.93584 0.72614 0.44761 0.0
C90 C 0.98731 0.75809 0.43041 0.0
C91 C 0.88519 0.68736 0.46331 0.0
N92 N 0.8859 0.6936 0.4296 0.0
C93 C 0.86947 0.67775 0.44573 0.0
C94 C 0.9184 0.71214 0.46429 0.0
Tb95 Tb 0.86127 0.6805 0.40032 0.0
N96 N 0.91781 0.713 0.39737 0.0
C97 C 0.93417 0.71667 0.38072 0.0
C98 C 0.98673 0.75138 0.3961 0.0
C99 C 0.96868 0.73613 0.37979 0.0
H100 H 0.84379 0.65853 0.44509 0.0
H101 H 0.9813 0.7395 0.36646 0.0
H102 H 1.01398 0.7739 0.43056 0.0
H103 H 0.87172 0.67555 0.47607 0.0
H104 H 0.92086 0.7052 0.36792 0.0
H105 H 0.69148 0.64444 0.41262 0.0
H106 H 1.01344 0.76639 0.39535 0.0
H107 H 0.83178 0.73494 0.33457 0.0
H108 H 0.75161 0.6812 0.4118 0.0
H109 H 0.80445 0.72041 0.30349 0.0
H110 H 0.98378 0.75667 0.46072 0.0
H111 H 0.66005 0.62219 0.38294 0.0
H112 H 0.66007 0.62124 0.34741 0.0
H113 H 0.93067 0.71921 0.47789 0.0
H114 H 0.69081 0.64217 0.31762 0.0
N115 N 0.75522 0.67969 0.38178 0.0
C116 C 0.73862 0.67207 0.39862 0.0
C117 C 0.68663 0.63849 0.38244 0.0
C118 C 0.7034 0.64794 0.3652 0.0
C119 C 0.70428 0.65107 0.3992 0.0
C120 C 0.73803 0.66906 0.36539 0.0
H121 H 0.74466 0.67957 0.30109 0.0
N122 N 0.78809 0.70221 0.34982 0.0
C123 C 0.79025 0.70903 0.31612 0.0
C124 C 0.7551 0.68083 0.34876 0.0
C125 C 0.80564 0.7173 0.33382 0.0
C126 C 0.75653 0.6859 0.31481 0.0
C127 C 0.73839 0.67182 0.33129 0.0
O128 O 0.82666 0.761 0.37021 0.0
O129 O 0.85987 0.72255 0.38903 0.0
O130 O 0.85687 0.71331 0.42136 0.0
O131 O 0.80995 0.7137 0.4102 0.0
O132 O 0.85862 0.74684 0.36538 0.0
O133 O 0.79486 0.74015 0.39436 0.0
O134 O 0.85003 0.63386 0.41098 0.0
O135 O 0.81345 0.67069 0.39051 0.0
O136 O 0.81262 0.67746 0.35949 0.0
O137 O 0.86176 0.67979 0.36871 0.0
O138 O 0.81393 0.64515 0.4135 0.0
O139 O 0.87609 0.65148 0.38489 0.0
C140 C 0.87797 0.74356 0.37686 0.0
C141 C 0.79116 0.78176 0.37753 0.0
C142 C 0.78602 0.83134 0.37679 0.0
C143 C 0.80373 0.81539 0.3818 0.0
C144 C 0.75558 0.81298 0.36731 0.0
C145 C 0.76086 0.764 0.36805 0.0
C146 C 0.74321 0.77962 0.36296 0.0
C147 C 0.83219 0.71952 0.42345 0.0
C148 C 0.80995 0.76573 0.38333 0.0
C149 C 0.70411 0.64966 0.3309 0.0
C150 C 0.68662 0.63772 0.34785 0.0
C151 C 0.79472 0.64885 0.40209 0.0
C152 C 0.88934 0.61772 0.40337 0.0
C153 C 0.88433 0.5862 0.39844 0.0
C154 C 0.90818 0.57725 0.40332 0.0
C155 C 0.9366 0.59997 0.41333 0.0
C156 C 0.9178 0.63955 0.41356 0.0
C157 C 0.94122 0.63077 0.41848 0.0
C158 C 0.83835 0.6737 0.35593 0.0
C159 C 0.86557 0.62825 0.39752 0.0
H160 H 0.82704 0.82895 0.3893 0.0
H161 H 0.7415 0.82451 0.36303 0.0
H162 H 0.75086 0.73814 0.36464 0.0
H163 H 0.71983 0.76582 0.35561 0.0
H164 H 0.86242 0.56905 0.39059 0.0
H165 H 0.95513 0.59369 0.4174 0.0
H166 H 0.92205 0.66347 0.41769 0.0
H167 H 0.9631 0.64796 0.42631 0.0
Tb168 Tb 0.85242 0.19064 0.11671 0.0
C169 C 0.97078 0.29643 0.15615 0.0
C170 C 0.98367 0.34344 0.13639 0.0
C171 C 0.99624 0.35141 0.16996 0.0
C172 C 0.97047 0.30918 0.13871 0.0
C173 C 0.98459 0.31744 0.1719 0.0
C174 C 0.99574 0.36441 0.15221 0.0
C175 C 0.97809 0.2704 0.18954 0.0
N176 N 0.95972 0.26363 0.15731 0.0
C177 C 0.96489 0.25069 0.17342 0.0
C178 C 0.98748 0.30383 0.18887 0.0
Tb179 Tb 0.93792 0.23331 0.13027 0.0
N180 N 0.95882 0.28811 0.12382 0.0
C181 C 0.96154 0.29999 0.10591 0.0
C182 C 0.98516 0.35562 0.11818 0.0
C183 C 0.97457 0.33384 0.10283 0.0
H184 H 0.95759 0.22482 0.17398 0.0
H185 H 0.97613 0.34305 0.08865 0.0
H186 H 1.00561 0.39077 0.15078 0.0
H187 H 0.98107 0.25981 0.20244 0.0
H188 H 0.95326 0.28347 0.09397 0.0
H189 H 0.75214 0.13697 0.16727 0.0
H190 H 0.99508 0.38178 0.11577 0.0
H191 H 0.87313 0.15542 0.0823 0.0
H192 H 0.79822 0.18223 0.14976 0.0
H193 H 0.85613 0.09971 0.07102 0.0
H194 H 1.0066 0.36796 0.18194 0.0
H195 H 0.73673 0.07896 0.16095 0.0
H196 H 0.74444 0.0386 0.14126 0.0
H197 H 0.99793 0.31911 0.20133 0.0
H198 H 0.77196 0.02845 0.11457 0.0
N199 N 0.81063 0.15039 0.1347 0.0
C200 C 0.79205 0.15698 0.1471 0.0
C201 C 0.75728 0.09876 0.15342 0.0
C202 C 0.77425 0.09196 0.13948 0.0
C203 C 0.76587 0.13144 0.15702 0.0
C204 C 0.80085 0.11866 0.13009 0.0
H205 H 0.81289 0.05104 0.08801 0.0
N206 N 0.84065 0.13949 0.106 0.0
C207 C 0.84475 0.10306 0.0835 0.0
C208 C 0.81613 0.113 0.11508 0.0
C209 C 0.85453 0.13488 0.0901 0.0
C210 C 0.82033 0.07566 0.09311 0.0
C211 C 0.80554 0.0804 0.10904 0.0
O212 O 0.82786 0.1819 0.09062 0.0
O213 O 0.89737 0.23871 0.11905 0.0
O214 O 0.90887 0.23162 0.15493 0.0
O215 O 0.85622 0.18741 0.14774 0.0
O216 O 0.85372 0.23354 0.12949 0.0
O217 O 0.81307 0.20051 0.11408 0.0
O218 O 0.97085 0.21638 0.13724 0.0
O219 O 0.89566 0.18637 0.12181 0.0
O220 O 0.88231 0.2101 0.09057 0.0
O221 O 0.93525 0.22324 0.10024 0.0
O222 O 0.92324 0.18696 0.14488 0.0
O223 O 0.9824 0.25151 0.11503 0.0
C224 C 0.88461 0.25411 0.12702 0.0
C225 C 0.76995 0.15988 0.09505 0.0
C226 C 0.71015 0.13672 0.10009 0.0
C227 C 0.74316 0.1632 0.10173 0.0
C228 C 0.70455 0.10721 0.09143 0.0
C229 C 0.7632 0.1299 0.08655 0.0
C230 C 0.73081 0.1039 0.0848 0.0
C231 C 0.87857 0.20866 0.15984 0.0
C232 C 0.80486 0.18696 0.09746 0.0
C233 C 0.78015 0.05366 0.11887 0.0
C234 C 0.76457 0.05943 0.1341 0.0
C235 C 0.89844 0.16843 0.13425 0.0
C236 C 0.02754 0.25271 0.131 0.0
C237 C 0.04744 0.23825 0.12828 0.0
C238 C 0.08115 0.25523 0.13359 0.0
C239 C 0.09435 0.28675 0.14189 0.0
C240 C 0.04139 0.28417 0.13924 0.0
C241 C 0.07458 0.30099 0.1447 0.0
C242 C 0.91337 0.21804 0.08703 0.0
C243 C 0.99268 0.23489 0.12479 0.0
H244 H 0.74806 0.18605 0.10847 0.0
H245 H 0.67967 0.08664 0.08949 0.0
H246 H 0.78293 0.12631 0.08127 0.0
H247 H 0.72602 0.081 0.0782 0.0
H248 H 0.03681 0.21408 0.12171 0.0
H249 H 0.11993 0.3003 0.14644 0.0
H250 H 1.02667 0.29583 0.14133 0.0
H251 H 0.08507 0.32523 0.1511 0.0
Tb252 Tb 0.34003 0.11138 0.38685 0.0
C253 C 0.34657 0.22015 0.43227 0.0
C254 C 0.31022 0.23559 0.41686 0.0
C255 C 0.31599 0.23948 0.45101 0.0
C256 C 0.33206 0.22305 0.41607 0.0
C257 C 0.33974 0.2295 0.44988 0.0
C258 C 0.30127 0.24259 0.43448 0.0
C259 C 0.38447 0.22423 0.46318 0.0
N260 N 0.37032 0.2118 0.43036 0.0
C261 C 0.39076 0.21586 0.44529 0.0
C262 C 0.3584 0.23046 0.46557 0.0
Tb263 Tb 0.37816 0.19701 0.40057 0.0
N264 N 0.34188 0.21656 0.39938 0.0
C265 C 0.33225 0.22412 0.38279 0.0
C266 C 0.29926 0.2421 0.39991 0.0
C267 C 0.31084 0.23692 0.38281 0.0
H268 H 0.41099 0.21111 0.44352 0.0
H269 H 0.30296 0.24239 0.36961 0.0
H270 H 0.28405 0.25166 0.43542 0.0
H271 H 0.39987 0.22611 0.47507 0.0
H272 H 0.34061 0.21996 0.36941 0.0
H273 H 0.28512 1.01554 0.43967 0.0
H274 H 0.28256 0.25185 0.39988 0.0
H275 H 0.39799 0.12725 0.35459 0.0
H276 H 0.28897 0.06013 0.41927 0.0
H277 H 0.43813 0.10938 0.34747 0.0
H278 H 0.31001 0.24632 0.46445 0.0
H279 H 0.32748 0.99869 0.43735 0.0
H280 H 0.37776 1.00414 0.42076 0.0
H281 H 0.35391 0.23746 0.47937 0.0
H282 H 0.41923 0.02949 0.39547 0.0
N283 N 0.33414 0.0697 0.40636 0.0
C284 C 0.30763 0.05301 0.41821 0.0
C285 C 0.32937 0.01837 0.42845 0.0
C286 C 0.3548 0.03363 0.41515 0.0
C287 C 0.30537 0.02776 0.42977 0.0
C288 C 0.35619 0.05921 0.40401 0.0
H289 H 0.44157 0.06835 0.36784 0.0
N290 N 0.3785 0.09674 0.37894 0.0
C291 C 0.42173 0.09905 0.35945 0.0
C292 C 0.37924 0.07329 0.3898 0.0
C293 C 0.39876 0.10907 0.36356 0.0
C294 C 0.42366 0.07595 0.37101 0.0
C295 C 0.40195 0.06241 0.38627 0.0
O296 O 0.32645 0.08335 0.36173 0.0
O297 O 0.33417 0.15464 0.38948 0.0
O298 O 0.3532 0.16346 0.42508 0.0
O299 O 0.35442 0.11601 0.41636 0.0
O300 O 0.2977 0.11081 0.40049 0.0
O301 O 0.28942 0.07836 0.38147 0.0
O302 O 0.42753 0.2339 0.40668 0.0
O303 O 0.38623 0.15788 0.38989 0.0
O304 O 0.35506 0.13983 0.36086 0.0
O305 O 0.3753 0.19507 0.36926 0.0
O306 O 0.41637 0.18772 0.41132 0.0
O307 O 0.40045 0.24148 0.38505 0.0
C308 C 0.30624 0.14111 0.39757 0.0
C309 C 0.279 0.02971 0.36556 0.0
C310 C 0.22863 0.97514 0.36813 0.0
C311 C 0.24463 1.01004 0.36892 0.0
C312 C 0.24781 0.96047 0.36369 0.0
C313 C 0.29737 1.01415 0.36152 0.0
C314 C 0.28179 0.97981 0.36055 0.0
C315 C 0.35154 0.1349 0.42916 0.0
C316 C 0.29535 0.06627 0.36645 0.0
C317 C 0.40176 0.03795 0.39783 0.0
C318 C 0.37818 0.02355 0.41224 0.0
C319 C 0.41047 0.16341 0.40047 0.0
C320 C 0.43954 0.28894 0.4018 0.0
C321 C 0.47045 0.31595 0.39624 0.0
C322 C 0.48053 0.34835 0.40276 0.0
C323 C 0.45965 0.35287 0.41523 0.0
C324 C 0.41935 0.2947 0.41401 0.0
C325 C 0.42939 0.3263 0.42076 0.0
C326 C 0.36681 0.17123 0.3565 0.0
C327 C 0.4278 0.25495 0.39467 0.0
H328 H 0.23058 0.02201 0.3724 0.0
H329 H 0.23656 0.93393 0.36237 0.0
H330 H 0.32379 0.02845 0.35904 0.0
H331 H 0.29612 0.96808 0.35725 0.0
H332 H 0.48614 0.31188 0.38663 0.0
H333 H 0.46683 0.37712 0.42086 0.0
H334 H 0.39565 0.27483 0.41828 0.0
H335 H 0.41354 0.33023 0.43028 0.0
Tb336 Tb 0.85897 0.67405 0.1111 0.0
C337 C 0.7533 0.67178 0.16439 0.0
C338 C 0.7007 0.63699 0.14912 0.0
C339 C 0.70385 0.64038 0.18338 0.0
C340 C 0.73516 0.65881 0.14817 0.0
C341 C 0.7379 0.66324 0.18222 0.0
C342 C 0.68525 0.62727 0.16683 0.0
C343 C 0.79042 0.70221 0.19622 0.0
N344 N 0.78602 0.69382 0.16259 0.0
C345 C 0.8045 0.70998 0.17819 0.0
C346 C 0.75705 0.67845 0.19828 0.0
Tb347 Tb 0.80748 0.70365 0.13257 0.0
N348 N 0.75107 0.66908 0.1314 0.0
C349 C 0.73323 0.66037 0.11496 0.0
C350 C 0.68272 0.62641 0.13228 0.0
C351 C 0.69901 0.63859 0.11513 0.0
H352 H 0.8304 0.72811 0.17688 0.0
H353 H 0.68526 0.63112 0.10201 0.0
H354 H 0.65886 0.61027 0.16788 0.0
H355 H 0.80538 0.71446 0.20852 0.0
H356 H 0.74518 0.66932 0.10153 0.0
H357 H 0.98011 0.73449 0.1437 0.0
H358 H 0.65623 0.60956 0.13237 0.0
H359 H 0.83817 0.65492 0.06613 0.0
H360 H 0.91958 0.70088 0.14302 0.0
H361 H 0.86486 0.6719 0.0349 0.0
H362 H 0.69155 0.63325 0.19695 0.0
H363 H 1.01125 0.75878 0.11426 0.0
H364 H 1.01044 0.76514 0.07904 0.0
H365 H 0.74619 0.67251 0.21225 0.0
H366 H 0.97884 0.74854 0.04928 0.0
N367 N 0.91551 0.70656 0.11343 0.0
C368 C 0.93244 0.71132 0.12999 0.0
C369 C 0.98448 0.74418 0.11385 0.0
C370 C 0.96724 0.73811 0.09681 0.0
C371 C 0.967 0.7304 0.13047 0.0
C372 C 0.93241 0.71865 0.09707 0.0
H373 H 0.9245 0.71326 0.03264 0.0
N374 N 0.88188 0.68759 0.08145 0.0
C375 C 0.8792 0.6827 0.0476 0.0
C376 C 0.91485 0.70911 0.08044 0.0
C377 C 0.8642 0.67306 0.06533 0.0
C378 C 0.91283 0.70617 0.04638 0.0
C379 C 0.93129 0.71907 0.06294 0.0
O380 O 0.84793 0.62748 0.10035 0.0
O381 O 0.81077 0.66243 0.12131 0.0
O382 O 0.81037 0.66956 0.15219 0.0
O383 O 0.86048 0.67425 0.14274 0.0
O384 O 0.81193 0.63737 0.09807 0.0
O385 O 0.87563 0.6461 0.12599 0.0
O386 O 0.8209 0.75201 0.14104 0.0
O387 O 0.85584 0.71487 0.12269 0.0
O388 O 0.85435 0.70832 0.09127 0.0
O389 O 0.80402 0.70175 0.1016 0.0
O390 O 0.85459 0.74058 0.1456 0.0
O391 O 0.7878 0.72869 0.1176 0.0
C392 C 0.79246 0.64011 0.10976 0.0
C393 C 0.8877 0.61161 0.10708 0.0
C394 C 0.907 0.57139 0.10704 0.0
C395 C 0.8842 0.58116 0.11305 0.0
C396 C 0.93288 0.59243 0.09489 0.0
C397 C 0.91372 0.63174 0.09491 0.0
C398 C 0.93613 0.62225 0.08889 0.0
C399 C 0.837 0.6673 0.15563 0.0
C400 C 0.8644 0.62245 0.11348 0.0
C401 C 0.96575 0.74031 0.06258 0.0
C402 C 0.98374 0.74974 0.07951 0.0
C403 C 0.87406 0.73723 0.13423 0.0
C404 C 0.78162 0.76845 0.13516 0.0
C405 C 0.79403 0.80272 0.13402 0.0
C406 C 0.7749 0.81659 0.14018 0.0
C407 C 0.74318 0.79549 0.14761 0.0
C408 C 0.75 0.74796 0.14267 0.0
C409 C 0.73093 0.76149 0.14886 0.0
C410 C 0.82723 0.71038 0.08857 0.0
C411 C 0.80211 0.7547 0.12847 0.0
H412 H 0.86414 0.56541 0.12245 0.0
H413 H 0.95043 0.58555 0.0897 0.0
H414 H 0.91668 0.65475 0.08992 0.0
H415 H 0.95604 0.63805 0.07944 0.0
H416 H 0.8184 0.81847 0.12807 0.0
H417 H 0.72798 0.80533 0.15271 0.0
H418 H 0.74003 0.72159 0.14373 0.0
H419 H 0.70655 0.74555 0.15467 0.0
Tb420 Tb 0.93835 0.2416 0.39179 0.0
C421 C 0.81187 0.12032 0.40822 0.0
C422 C 0.77111 0.09744 0.38325 0.0
C423 C 0.77597 0.06073 0.40551 0.0
C424 C 0.79747 0.12476 0.39244 0.0
C425 C 0.80075 0.08823 0.41525 0.0
C426 C 0.76113 0.06533 0.38952 0.0
C427 C 0.83688 0.11299 0.44197 0.0
N428 N 0.83548 0.14759 0.41728 0.0
C429 C 0.84703 0.14426 0.43445 0.0
C430 C 0.81407 0.08481 0.43217 0.0
Tb431 Tb 0.85078 0.19796 0.40349 0.0
N432 N 0.80761 0.15611 0.38699 0.0
C433 C 0.78962 0.16195 0.37384 0.0
C434 C 0.75463 0.1033 0.36862 0.0
C435 C 0.76353 0.13575 0.36414 0.0
H436 H 0.86459 0.16536 0.44244 0.0
H437 H 0.75022 0.14062 0.3533 0.0
H438 H 0.74123 0.04398 0.3825 0.0
H439 H 0.8468 0.11069 0.45532 0.0
H440 H 0.79626 0.18702 0.37037 0.0
H441 H 0.03285 0.29544 0.44557 0.0
H442 H 0.73423 0.08301 0.36122 0.0
H443 H 0.92679 0.27493 0.3524 0.0
H444 H 0.98715 0.24981 0.42773 0.0
H445 H 0.94688 0.33025 0.33962 0.0
H446 H 0.76743 0.03589 0.41056 0.0
H447 H 0.05258 0.35348 0.43656 0.0
H448 H 0.04961 0.39351 0.41406 0.0
H449 H 0.80627 0.06062 0.43802 0.0
H450 H 1.02604 0.40289 0.38524 0.0
N451 N 0.98064 0.28188 0.40922 0.0
C452 C 0.99584 0.27511 0.42364 0.0
C453 C 0.03262 0.33358 0.42868 0.0
C454 C 1.01844 0.3402 0.41311 0.0
C455 C 1.02161 0.30085 0.43378 0.0
C456 C 0.9925 0.31341 0.40337 0.0
H457 H 0.98804 0.37947 0.3573 0.0
N458 N 0.95569 0.29182 0.37769 0.0
C459 C 0.95619 0.32734 0.35304 0.0
C460 C 0.97939 0.31857 0.38713 0.0
C461 C 0.94486 0.29576 0.36044 0.0
C462 C 0.97934 0.35506 0.36308 0.0
C463 C 0.99169 0.35089 0.38019 0.0
O464 O 0.96459 0.2448 0.36694 0.0
O465 O 0.894 0.19483 0.39678 0.0
O466 O 0.88361 0.21689 0.42917 0.0
O467 O 0.93332 0.26102 0.41853 0.0
O468 O 0.93621 0.20113 0.4088 0.0
O469 O 0.97217 0.2243 0.39245 0.0
O470 O 0.82934 0.19778 0.42968 0.0
O471 O 0.89445 0.24476 0.39735 0.0
O472 O 0.90902 0.22321 0.36582 0.0
O473 O 0.85393 0.18518 0.37392 0.0
O474 O 0.85079 0.23731 0.38678 0.0
O475 O 0.81346 0.21096 0.40444 0.0
C476 C 0.9055 0.17994 0.40597 0.0
C477 C 1.01878 0.25336 0.37286 0.0
C478 C 0.07297 0.25665 0.37466 0.0
C479 C 0.03812 0.2385 0.37654 0.0
C480 C 0.08791 0.28984 0.36884 0.0
C481 C 0.03456 0.2866 0.36729 0.0
C482 C 0.06886 0.3046 0.36526 0.0
C483 C 0.91314 0.24366 0.43228 0.0
C484 C 0.98238 0.2341 0.37532 0.0
C485 C 1.0165 0.37787 0.39027 0.0
C486 C 0.02991 0.37254 0.40668 0.0
C487 C 0.88184 0.25845 0.38784 0.0
C488 C 0.77133 0.17682 0.42604 0.0
C489 C 0.74468 0.18025 0.41918 0.0
C490 C 0.71147 0.15487 0.42202 0.0
C491 C 0.70548 0.12647 0.43203 0.0
C492 C 0.76416 0.14805 0.43605 0.0
C493 C 0.73157 0.1232 0.43899 0.0
C494 C 0.87821 0.20049 0.36146 0.0
C495 C 0.80643 0.20209 0.42196 0.0
H496 H 1.026 0.21302 0.38117 0.0
H497 H 0.11441 0.30445 0.3668 0.0
H498 H 1.02045 0.29873 0.36448 0.0
H499 H 0.08079 0.33016 0.36085 0.0
H500 H 0.74977 0.20215 0.41132 0.0
H501 H 0.68042 0.10679 0.43472 0.0
H502 H 0.78372 0.14442 0.44154 0.0
H503 H 0.72649 0.10118 0.44668 0.0
Tb504 Tb 0.11703 0.3261 0.63261 0.0
C505 C 0.23464 0.32585 0.61112 0.0
C506 C 0.27953 0.3452 0.63366 0.0
C507 C 0.26927 0.30064 0.61205 0.0
C508 C 0.25233 0.34639 0.62588 0.0
C509 C 0.24317 0.30297 0.60384 0.0
C510 C 0.28743 0.32172 0.62694 0.0
C511 C 0.20017 0.28712 0.58053 0.0
N512 N 0.20941 0.32867 0.60366 0.0
C513 C 0.19257 0.31004 0.58829 0.0
C514 C 0.22544 0.28339 0.58841 0.0
Tb515 Tb 0.20094 0.36908 0.61633 0.0
N516 N 0.24398 0.36874 0.63195 0.0
C517 C 0.26457 0.39334 0.6442 0.0
C518 C 0.29871 0.36842 0.64746 0.0
C519 C 0.29151 0.39297 0.65251 0.0
H520 H 0.17323 0.31253 0.58179 0.0
H521 H 0.3069 0.41182 0.66265 0.0
H522 H 0.30799 0.32018 0.63287 0.0
H523 H 0.18648 0.27231 0.56847 0.0
H524 H 0.25958 0.41287 0.64793 0.0
H525 H 0.07392 0.39871 0.59625 0.0
H526 H 0.31979 0.36834 0.65377 0.0
H527 H 0.10209 0.29615 0.6761 0.0
H528 H 0.09709 0.36179 0.59874 0.0
H529 H 0.08203 0.30658 0.70621 0.0
H530 H 0.27593 0.28298 0.60679 0.0
H531 H 0.05842 0.41764 0.62514 0.0
H532 H 0.05191 0.41478 0.66053 0.0
H533 H 0.23121 0.26554 0.58242 0.0
H534 H 0.05438 0.38981 0.69064 0.0
N535 N 0.09527 0.35998 0.62876 0.0
C536 C 0.09036 0.36966 0.61145 0.0
C537 C 0.06851 0.40132 0.62631 0.0
C538 C 0.07207 0.38999 0.64392 0.0
C539 C 0.07714 0.39061 0.60998 0.0
C540 C 0.08541 0.36887 0.64462 0.0
H541 H 0.06515 0.34894 0.7078 0.0
N542 N 0.09804 0.33333 0.66107 0.0
C543 C 0.08352 0.32059 0.69375 0.0
C544 C 0.08695 0.35509 0.66145 0.0
C545 C 0.09479 0.3147 0.67668 0.0
C546 C 0.0741 0.34459 0.69461 0.0
C547 C 0.07503 0.36168 0.67821 0.0
O548 O 0.08525 0.27567 0.63896 0.0
O549 O 0.15846 0.32145 0.62237 0.0
O550 O 0.16844 0.36067 0.59143 0.0
O551 O 0.11659 0.32027 0.60217 0.0
O552 O 0.13322 0.29478 0.64607 0.0
O553 O 0.071 0.30022 0.61876 0.0
O554 O 0.22397 0.38547 0.58989 0.0
O555 O 0.15642 0.37206 0.6207 0.0
O556 O 0.14825 0.35382 0.65658 0.0
O557 O 0.20051 0.36331 0.64747 0.0
O558 O 0.20097 0.41066 0.6301 0.0
O559 O 0.24042 0.41826 0.6137 0.0
C560 C 0.15704 0.30108 0.63467 0.0
C561 C 0.02794 0.25515 0.63522 0.0
C562 C 0.97496 0.20359 0.63865 0.0
C563 C 1.00799 0.22085 0.63218 0.0
C564 C 0.96251 0.22128 0.64843 0.0
C565 C 1.01487 0.27216 0.64496 0.0
C566 C 0.98236 0.25523 0.65157 0.0
C567 C 0.1369 0.33791 0.58855 0.0
C568 C 0.06199 0.2728 0.62774 0.0
C569 C 0.06331 0.38408 0.67786 0.0
C570 C 0.06185 0.39825 0.66072 0.0
C571 C 0.16986 0.40025 0.62868 0.0
C572 C 0.28225 0.4215 0.5933 0.0
C573 C 0.30947 0.45167 0.59974 0.0
C574 C 0.34242 0.45852 0.59708 0.0
C575 C 0.34744 0.43485 0.58764 0.0
C576 C 0.28849 0.39853 0.58405 0.0
C577 C 0.32077 0.40523 0.58128 0.0
C578 C 0.1792 0.362 0.66039 0.0
C579 C 0.24746 0.41339 0.59669 0.0
H580 H 1.01799 0.20778 0.62447 0.0
H581 H 0.93746 0.20878 0.65386 0.0
H582 H 0.02965 0.2985 0.64734 0.0
H583 H 0.97246 0.2685 0.65912 0.0
H584 H 0.30497 0.4694 0.60707 0.0
H585 H 0.37217 0.43938 0.58486 0.0
H586 H 0.26842 0.37518 0.57896 0.0
H587 H 0.32516 0.38733 0.57409 0.0
Tb588 Tb 0.20179 0.83985 0.89841 0.0
C589 C 0.31067 0.95143 0.87021 0.0
C590 C 0.34929 0.97929 0.89571 0.0
C591 C 0.36957 0.97204 0.8656 0.0
C592 C 0.31656 0.96224 0.88863 0.0
C593 C 0.33731 0.95708 0.85829 0.0
C594 C 0.37556 0.98313 0.88431 0.0
C595 C 0.2989 0.93563 0.83241 0.0
N596 N 0.27903 0.93651 0.86376 0.0
C597 C 0.27346 0.93076 0.84471 0.0
C598 C 0.33088 0.94813 0.8393 0.0
Tb599 Tb 0.23829 0.9263 0.88599 0.0
N600 N 0.29052 0.95794 0.89924 0.0
C601 C 0.29668 0.97499 0.91598 0.0
C602 C 0.35483 0.99306 0.91378 0.0
C603 C 0.32849 0.99169 0.92374 0.0
H604 H 0.24987 0.92347 0.8384 0.0
H605 H 0.3327 1.00392 0.9373 0.0
H606 H 0.40071 0.99558 0.88963 0.0
H607 H 0.29387 0.93025 0.8175 0.0
H608 H 0.27732 0.97625 0.92362 0.0
H609 H 0.13066 0.7375 0.85045 0.0
H610 H 0.37953 1.00625 0.91974 0.0
H611 H 0.17768 0.85662 0.93999 0.0
H612 H 0.18124 0.78207 0.86509 0.0
H613 H 0.12653 0.84241 0.95627 0.0
H614 H 0.39016 0.97595 0.85675 0.0
H615 H 0.07571 0.72476 0.86232 0.0
H616 H 0.04263 0.73459 0.88673 0.0
H617 H 0.35059 0.95202 0.82971 0.0
H618 H 0.04158 0.76273 0.91589 0.0
N619 N 0.15557 0.79687 0.88414 0.0
C620 C 0.15744 0.77737 0.8702 0.0
C621 C 0.0979 0.74475 0.86863 0.0
C622 C 0.09608 0.76233 0.88412 0.0
C623 C 0.12881 0.75185 0.8619 0.0
C624 C 0.12576 0.78816 0.89182 0.0
H625 H 0.07271 0.80231 0.94213 0.0
N626 N 0.15458 0.82725 0.9155 0.0
C627 C 0.1257 0.83158 0.94261 0.0
C628 C 0.12524 0.80365 0.9082 0.0
C629 C 0.15505 0.84014 0.93298 0.0
C630 C 0.09542 0.80889 0.93464 0.0
C631 C 0.0949 0.79418 0.91737 0.0
O632 O 0.20641 0.81875 0.92358 0.0
O633 O 0.24779 0.88657 0.89389 0.0
O634 O 0.21155 0.89616 0.86123 0.0
O635 O 0.19551 0.84112 0.86768 0.0
O636 O 0.24238 0.84436 0.88133 0.0
O637 O 0.21116 0.80011 0.89683 0.0
O638 O 0.23062 0.95306 0.86461 0.0
O639 O 0.19345 0.87948 0.89052 0.0
O640 O 0.22698 0.87172 0.92347 0.0
O641 O 0.23473 0.92387 0.91636 0.0
O642 O 0.19277 0.92081 0.8986 0.0
O643 O 0.24116 0.97132 0.89313 0.0
C644 C 0.26261 0.87536 0.88392 0.0
C645 C 0.18164 0.76037 0.92052 0.0
C646 C 0.15736 0.70008 0.91827 0.0
C647 C 0.18248 0.73245 0.91345 0.0
C648 C 0.13183 0.69627 0.93043 0.0
C649 C 0.15563 0.75543 0.9326 0.0
C650 C 0.13103 0.72368 0.93748 0.0
C651 C 0.19994 0.865 0.85595 0.0
C652 C 0.20694 0.79447 0.91483 0.0
C653 C 0.06511 0.76991 0.90922 0.0
C654 C 0.0657 0.75398 0.89259 0.0
C655 C 0.175 0.88924 0.89749 0.0
C656 C 0.25535 1.01115 0.86929 0.0
C657 C 0.24414 0.0336 0.87267 0.0
C658 C 0.2626 0.0667 0.86656 0.0
C659 C 0.29257 0.07674 0.85693 0.0
C660 C 0.28537 0.02183 0.85984 0.0
C661 C 0.3038 0.05449 0.85367 0.0
C662 C 0.23412 0.90215 0.92826 0.0
C663 C 0.2353 0.97693 0.87603 0.0
H664 H 0.20221 0.73592 0.904 0.0
H665 H 0.11256 0.67195 0.93476 0.0
H666 H 0.15407 0.77609 0.93832 0.0
H667 H 0.11122 0.72028 0.94682 0.0
H668 H 0.22122 0.02528 0.88033 0.0
H669 H 0.30721 0.10171 0.85167 0.0
H670 H 0.29449 1.00499 0.85723 0.0
H671 H 0.32689 0.06261 0.84627 0.0
Tb672 Tb 0.70689 0.7884 0.63415 0.0
C673 C 0.70987 0.8933 0.58181 0.0
C674 C 0.73985 0.94557 0.5982 0.0
C675 C 0.7412 0.94403 0.56393 0.0
C676 C 0.71996 0.91083 0.59844 0.0
C677 C 0.71949 0.9097 0.5643 0.0
C678 C 0.75133 0.96197 0.58088 0.0
C679 C 0.68174 0.85795 0.5491 0.0
N680 N 0.68797 0.86048 0.58286 0.0
C681 C 0.67263 0.84295 0.56684 0.0
C682 C 0.70569 0.89138 0.54779 0.0
Tb683 Tb 0.6751 0.83757 0.61249 0.0
N684 N 0.70783 0.89402 0.6148 0.0
C685 C 0.7128 0.91098 0.63139 0.0
C686 C 0.74642 0.96281 0.61528 0.0
C687 C 0.73243 0.94545 0.63191 0.0
H688 H 0.65421 0.81705 0.5677 0.0
H689 H 0.73682 0.95858 0.64517 0.0
H690 H 0.76707 0.98859 0.58042 0.0
H691 H 0.67026 0.84373 0.53645 0.0
H692 H 0.70227 0.89816 0.64442 0.0
H693 H 0.63777 0.66538 0.60424 0.0
H694 H 0.76149 0.98951 0.61573 0.0
H695 H 0.73082 0.81287 0.6785 0.0
H696 H 0.67391 0.72551 0.60341 0.0
H697 H 0.71808 0.78847 0.7102 0.0
H698 H 0.74922 0.95708 0.55063 0.0
H699 H 0.61784 0.63663 0.63479 0.0
H700 H 0.61908 0.63987 0.67027 0.0
H701 H 0.71244 0.90303 0.53405 0.0
H702 H 0.64121 0.67337 0.69917 0.0
N703 N 0.67438 0.73178 0.6333 0.0
C704 C 0.66581 0.7137 0.61694 0.0
C705 C 0.63386 0.66322 0.63455 0.0
C706 C 0.64422 0.68154 0.6513 0.0
C707 C 0.64513 0.67935 0.6173 0.0
C708 C 0.66496 0.71611 0.65015 0.0
H709 H 0.67842 0.72881 0.7142 0.0
N710 N 0.69829 0.76764 0.66431 0.0
C711 C 0.70646 0.77303 0.69795 0.0
C712 C 0.67747 0.73472 0.66627 0.0
C713 C 0.7137 0.78676 0.67985 0.0
C714 C 0.68399 0.73938 0.70016 0.0
C715 C 0.66951 0.71966 0.68419 0.0
O716 O 0.75642 0.8054 0.6419 0.0
O717 O 0.71699 0.83614 0.62387 0.0
O718 O 0.70896 0.83292 0.59216 0.0
O719 O 0.7048 0.78424 0.6033 0.0
O720 O 0.74166 0.83587 0.6475 0.0
O721 O 0.73339 0.76984 0.6195 0.0
O722 O 0.62842 0.82665 0.6019 0.0
O723 O 0.66484 0.78991 0.62261 0.0
O724 O 0.67132 0.78941 0.6535 0.0
O725 O 0.67477 0.83888 0.64419 0.0
O726 O 0.63884 0.7902 0.59964 0.0
O727 O 0.64703 0.85384 0.62769 0.0
C728 C 0.73835 0.8548 0.63576 0.0
C729 C 0.77843 0.77076 0.63554 0.0
C730 C 0.83101 0.77113 0.63755 0.0
C731 C 0.81262 0.78607 0.63192 0.0
C732 C 0.8144 0.74054 0.64694 0.0
C733 C 0.76246 0.74041 0.64498 0.0
C734 C 0.78045 0.72541 0.65062 0.0
C735 C 0.71307 0.80689 0.59001 0.0
C736 C 0.76023 0.7872 0.62938 0.0
C737 C 0.64784 0.68541 0.68553 0.0
C738 C 0.63522 0.66636 0.66909 0.0
C739 C 0.64254 0.77116 0.61114 0.0
C740 C 0.61306 0.8667 0.60903 0.0
C741 C 0.58266 0.86347 0.61502 0.0
C742 C 0.57384 0.88717 0.60964 0.0
C743 C 0.59559 0.91366 0.5981 0.0
C744 C 0.63385 0.89322 0.59734 0.0
C745 C 0.62524 0.91651 0.59196 0.0
C746 C 0.66828 0.81554 0.65704 0.0
C747 C 0.62345 0.84299 0.61518 0.0
H748 H 0.82478 0.80944 0.62448 0.0
H749 H 0.82774 0.7285 0.6517 0.0
H750 H 0.73621 0.72839 0.64797 0.0
H751 H 0.76805 0.70198 0.65794 0.0
H752 H 0.56629 0.84302 0.62401 0.0
H753 H 0.58938 0.93198 0.59355 0.0
H754 H 0.65678 0.89598 0.59232 0.0
H755 H 0.64162 0.93687 0.58295 0.0
Tb756 Tb 0.19482 0.36468 0.90381 0.0
C757 C 0.09181 0.36322 0.84788 0.0
C758 C 0.07157 0.39676 0.86199 0.0
C759 C 0.07328 0.3929 0.82783 0.0
C760 C 0.08514 0.37591 0.86369 0.0
C761 C 0.08556 0.3711 0.82972 0.0
C762 C 0.06628 0.40572 0.84397 0.0
C763 C 0.10217 0.33385 0.8168 0.0
N764 N 0.10355 0.34227 0.85039 0.0
C765 C 0.10786 0.32674 0.83513 0.0
C766 C 0.09128 0.35639 0.81405 0.0
Tb767 Tb 0.11422 0.33365 0.88092 0.0
N768 N 0.09048 0.36645 0.88077 0.0
C769 C 0.08018 0.37506 0.89679 0.0
C770 C 0.06293 0.40724 0.87843 0.0
C771 C 0.06679 0.3959 0.8959 0.0
H772 H 0.11669 0.30961 0.83687 0.0
H773 H 0.05958 0.40328 0.90872 0.0
H774 H 0.05615 0.42194 0.84236 0.0
H775 H 0.10638 0.32206 0.80479 0.0
H776 H 0.08293 0.36672 0.91043 0.0
H777 H 0.25946 0.30669 0.87356 0.0
H778 H 0.05254 0.42336 0.87777 0.0
H779 H 0.19074 0.38365 0.94854 0.0
H780 H 0.2324 0.34011 0.87328 0.0
H781 H 0.19806 0.36613 0.98014 0.0
H782 H 0.06853 0.39947 0.814 0.0
H783 H 0.26282 0.28067 0.90318 0.0
H784 H 0.25269 0.27334 0.93821 0.0
H785 H 0.0869 0.36184 0.79985 0.0
H786 H 0.23549 0.28929 0.9674 0.0
N787 N 0.21944 0.33278 0.90246 0.0
C788 C 0.23353 0.32906 0.88638 0.0
C789 C 0.25084 0.29539 0.90318 0.0
C790 C 0.23808 0.30077 0.91981 0.0
C791 C 0.24907 0.31011 0.88645 0.0
C792 C 0.22276 0.32016 0.91898 0.0
H793 H 0.21563 0.32448 0.98324 0.0
N794 N 0.20247 0.35104 0.93381 0.0
C795 C 0.20237 0.35547 0.96764 0.0
C796 C 0.2136 0.32941 0.93531 0.0
C797 C 0.1984 0.36544 0.9497 0.0
C798 C 0.21213 0.33183 0.96933 0.0
C799 C 0.21872 0.31913 0.95305 0.0
O800 O 0.23003 0.41101 0.91506 0.0
O801 O 0.15783 0.37513 0.89306 0.0
O802 O 0.15217 0.36888 0.86206 0.0
O803 O 0.19768 0.36498 0.8723 0.0
O804 O 0.18387 0.40133 0.91613 0.0
O805 O 0.2397 0.39336 0.88921 0.0
O806 O 0.08086 0.28439 0.87303 0.0
O807 O 0.15189 0.32369 0.89136 0.0
O808 O 0.1549 0.33027 0.92302 0.0
O809 O 0.11162 0.33662 0.91168 0.0
O810 O 0.1259 0.29773 0.8682 0.0
O811 O 0.06926 0.30757 0.89574 0.0
C812 C 0.16153 0.39773 0.90429 0.0
C813 C 0.28582 0.42705 0.90855 0.0
C814 C 0.34546 0.46702 0.90867 0.0
C815 C 0.31295 0.45746 0.90268 0.0
C816 C 0.35015 0.44574 0.92063 0.0
C817 C 0.29142 0.40666 0.9206 0.0
C818 C 0.32333 0.41589 0.92654 0.0
C819 C 0.18161 0.37198 0.85918 0.0
C820 C 0.25185 0.41651 0.90201 0.0
C821 C 0.23168 0.29779 0.95392 0.0
C822 C 0.24147 0.2887 0.93731 0.0
C823 C 0.14858 0.30164 0.87983 0.0
C824 C 1.02428 0.26379 0.87931 0.0
C825 C 1.00471 0.22937 0.88183 0.0
C826 C 0.97124 0.21218 0.87613 0.0
C827 C 0.95782 0.23019 0.86782 0.0
C828 C 1.01042 0.28114 0.87091 0.0
C829 C 0.97731 0.26434 0.86522 0.0
C830 C 0.12575 0.32846 0.92517 0.0
C831 C 0.05902 0.28089 0.88559 0.0
H832 H 0.3088 0.4734 0.89339 0.0
H833 H 0.37459 0.45249 0.92578 0.0
H834 H 0.27115 0.38366 0.92554 0.0
H835 H 0.32728 0.3999 0.93588 0.0
H836 H 1.01549 0.21609 0.88845 0.0
H837 H 0.93236 0.21781 0.86303 0.0
H838 H 1.02513 0.30757 0.86877 0.0
H839 H 0.96671 0.27783 0.85871 0.0
Tb840 Tb 0.24452 0.93127 0.62631 0.0
C841 C 0.14393 0.82297 0.57902 0.0
C842 C 0.09122 0.80643 0.59372 0.0
C843 C 0.09452 0.80282 0.55964 0.0
C844 C 0.12575 0.8197 0.59496 0.0
C845 C 0.12842 0.8135 0.56121 0.0
C846 C 0.0759 0.79917 0.57591 0.0
C847 C 0.17939 0.82003 0.5486 0.0
N848 N 0.17613 0.83184 0.58135 0.0
C849 C 0.19335 0.8284 0.56666 0.0
C850 C 0.14694 0.81313 0.54578 0.0
Tb851 Tb 0.19748 0.84623 0.61142 0.0
N852 N 0.14146 0.82645 0.61186 0.0
C853 C 0.12356 0.8187 0.62823 0.0
C854 C 0.073 0.79945 0.61043 0.0
C855 C 0.0892 0.80519 0.62776 0.0
H856 H 0.21844 0.8336 0.56876 0.0
H857 H 0.07528 0.79946 0.64078 0.0
H858 H 0.04949 0.78952 0.57464 0.0
H859 H 0.19357 0.81862 0.5369 0.0
H860 H 0.13553 0.82308 0.64179 0.0
H861 H 0.29599 0.03007 0.57515 0.0
H862 H 0.04639 0.78892 0.61012 0.0
H863 H 0.28044 0.91231 0.66071 0.0
H864 H 0.2514 0.98528 0.59388 0.0
H865 H 0.33698 0.92787 0.67046 0.0
H866 H 0.0822 0.79583 0.54605 0.0
H867 H 0.35416 0.0441 0.57979 0.0
H868 H 0.39536 0.0354 0.59818 0.0
H869 H 0.13598 0.80608 0.53184 0.0
H870 H 0.40653 1.00778 0.62434 0.0
N871 N 0.28388 0.97288 0.60808 0.0
C872 C 0.27674 0.99122 0.59591 0.0
C873 C 0.33468 0.02432 0.58793 0.0
C874 C 0.34206 1.00743 0.6016 0.0
C875 C 0.30189 1.01653 0.5853 0.0
C876 C 0.31578 0.98184 0.61174 0.0
H877 H 0.38496 0.96817 0.65166 0.0
N878 N 0.29589 0.94344 0.63649 0.0
C879 C 0.33312 0.93891 0.65802 0.0
C880 C 0.322 0.96655 0.62648 0.0
C881 C 0.301 0.93018 0.65243 0.0
C882 C 0.36013 0.96159 0.64735 0.0
C883 C 0.35481 0.9761 0.6315 0.0
O884 O 0.2569 0.95839 0.65173 0.0
O885 O 0.19555 0.88841 0.62227 0.0
O886 O 0.20768 0.88038 0.58711 0.0
O887 O 0.25589 0.92757 0.5969 0.0
O888 O 0.2039 0.93276 0.61177 0.0
O889 O 0.22901 0.96615 0.63034 0.0
O890 O 0.20986 0.80942 0.60523 0.0
O891 O 0.24399 0.88474 0.62338 0.0
O892 O 0.22612 0.90231 0.65203 0.0
O893 O 0.19453 0.84701 0.64262 0.0
O894 O 0.24578 0.85628 0.6016 0.0
O895 O 0.17491 0.80167 0.6268 0.0
C896 C 0.1818 0.90227 0.61396 0.0
C897 C 0.26736 1.01332 0.64734 0.0
C898 C 0.27523 0.06927 0.64551 0.0
C899 C 0.25436 0.03458 0.64495 0.0
C900 C 0.3093 0.08221 0.64868 0.0
C901 C 0.30151 0.02708 0.65035 0.0
C902 C 0.32223 0.06126 0.65103 0.0
C903 C 0.23489 0.90914 0.58363 0.0
C904 C 0.24524 0.97704 0.64606 0.0
C905 C 0.38115 1.00036 0.62085 0.0
C906 C 0.37479 1.01605 0.60593 0.0
C907 C 0.26344 0.87979 0.61312 0.0
C908 C 0.16668 0.75432 0.61015 0.0
C909 C 0.17091 0.72769 0.61579 0.0
C910 C 0.14855 0.6951 0.60957 0.0
C911 C 0.12259 0.6899 0.59737 0.0
C912 C 0.14034 0.74805 0.59811 0.0
C913 C 0.11861 0.71618 0.59171 0.0
C914 C 0.20706 0.87053 0.65574 0.0
C915 C 0.1889 0.78834 0.61721 0.0
H916 H 0.22811 0.02404 0.6423 0.0
H917 H 0.32605 0.10862 0.6496 0.0
H918 H 0.31231 1.01149 0.65214 0.0
H919 H 0.34849 0.07161 0.65343 0.0
H920 H 0.19099 0.73219 0.62525 0.0
H921 H 0.10541 0.66542 0.59204 0.0
H922 H 0.13631 0.7677 0.59375 0.0
H923 H 0.09847 0.7118 0.58236 0.0
Tb924 Tb 0.68111 0.84708 0.90313 0.0
C925 C 0.67765 0.73862 0.85174 0.0
C926 C 0.64242 0.68686 0.86752 0.0
C927 C 0.64571 0.68852 0.83325 0.0
C928 C 0.6646 0.72123 0.86813 0.0
C929 C 0.66884 0.72251 0.83407 0.0
C930 C 0.63252 0.67071 0.84996 0.0
C931 C 0.70792 0.77429 0.81958 0.0
N932 N 0.69987 0.77132 0.85321 0.0
C933 C 0.71596 0.78908 0.83746 0.0
C934 C 0.68398 0.74092 0.81784 0.0
Tb935 Tb 0.7099 0.794 0.88298 0.0
N936 N 0.67491 0.73783 0.88473 0.0
C937 C 0.66583 0.72078 0.90139 0.0
C938 C 0.63154 0.66969 0.88455 0.0
C939 C 0.64372 0.68667 0.90155 0.0
H940 H 0.73421 0.81497 0.83851 0.0
H941 H 0.63597 0.67356 0.91483 0.0
H942 H 0.61524 0.64437 0.84919 0.0
H943 H 0.72007 0.78869 0.80714 0.0
H944 H 0.67474 0.73331 0.91471 0.0
H945 H 0.74229 0.96594 0.8684 0.0
H946 H 0.6144 0.6433 0.88472 0.0
H947 H 0.66264 0.82921 0.94837 0.0
H948 H 0.70814 0.90562 0.87011 0.0
H949 H 0.68045 0.85772 0.97914 0.0
H950 H 0.63839 0.6757 0.81981 0.0
H951 H 0.7673 0.99873 0.89735 0.0
H952 H 0.77412 1.00002 0.93263 0.0
H953 H 0.67781 0.72953 0.80398 0.0
H954 H 0.7578 0.97033 0.96291 0.0
N955 N 0.71422 0.90329 0.89983 0.0
C956 C 0.7189 0.91921 0.88294 0.0
C957 C 0.75245 0.97206 0.89822 0.0
C958 C 0.74649 0.95588 0.91557 0.0
C959 C 0.73828 0.95364 0.88187 0.0
C960 C 0.72674 0.92112 0.91591 0.0
H961 H 0.72239 0.91723 0.98044 0.0
N962 N 0.69544 0.87175 0.93237 0.0
C963 C 0.69115 0.8712 0.96622 0.0
C964 C 0.7173 0.90464 0.93284 0.0
C965 C 0.68104 0.85517 0.94875 0.0
C966 C 0.71494 0.90475 0.9669 0.0
C967 C 0.7277 0.92211 0.95006 0.0
O968 O 0.63498 0.83746 0.91395 0.0
O969 O 0.6689 0.79828 0.89376 0.0
O970 O 0.67571 0.7961 0.86302 0.0
O971 O 0.68086 0.84681 0.87143 0.0
O972 O 0.64435 0.80104 0.9168 0.0
O973 O 0.65301 0.86301 0.88771 0.0
O974 O 0.75826 0.80673 0.87489 0.0
O975 O 0.72157 0.84279 0.89209 0.0
O976 O 0.71542 0.84311 0.92331 0.0
O977 O 0.70819 0.79209 0.91398 0.0
O978 O 0.74717 0.84036 0.86951 0.0
O979 O 0.73454 0.77449 0.89852 0.0
C980 C 0.64666 0.7808 0.9055 0.0
C981 C 0.61957 0.87718 0.90615 0.0
C982 C 0.57973 0.89696 0.90583 0.0
C983 C 0.58855 0.87308 0.90071 0.0
C984 C 0.60216 0.9245 0.91658 0.0
C985 C 0.64103 0.90477 0.91704 0.0
C986 C 0.63244 0.92824 0.92218 0.0
C987 C 0.67363 0.82259 0.85898 0.0
C988 C 0.62976 0.85305 0.90039 0.0
C989 C 0.74924 0.95647 0.94984 0.0
C990 C 0.75851 0.97337 0.93261 0.0
C991 C 0.74397 0.86038 0.8805 0.0
C992 C 0.77462 0.76771 0.88169 0.0
C993 C 0.80878 0.7798 0.88372 0.0
C994 C 0.82285 0.76058 0.87807 0.0
C995 C 0.80203 0.72905 0.8703 0.0
C996 C 0.75441 0.73628 0.87384 0.0
C997 C 0.76812 0.7171 0.86819 0.0
C998 C 0.71728 0.81607 0.92659 0.0
C999 C 0.76074 0.78837 0.88781 0.0
H1000 H 0.57167 0.85178 0.89234 0.0
H1001 H 0.59602 0.94301 0.92093 0.0
H1002 H 0.66446 0.90823 0.92165 0.0
H1003 H 0.64933 0.94943 0.93059 0.0
H1004 H 0.82428 0.80402 0.88993 0.0
H1005 H 0.81202 0.71378 0.86558 0.0
H1006 H 0.72812 0.72658 0.87211 0.0
H1007 H 0.7524 0.69287 0.8621 0.0
C1008 C 0.13554 0.26002 0.12438 0.0
C1009 C 0.1027 0.2404 0.13066 0.0
C1010 C 0.15657 0.24688 0.12279 0.0
C1011 C 0.16841 0.18023 0.14189 0.0
H1012 H 0.234 0.2064 0.10217 0.0
C1013 C 0.28195 0.16362 0.14908 0.0
C1014 C 0.29323 0.15422 0.13318 0.0
C1015 C 0.25704 0.17169 0.14742 0.0
C1016 C 0.21567 0.19861 0.11328 0.0
H1017 H 0.06614 0.19118 0.13976 0.0
H1018 H 0.10275 0.16813 0.13685 0.0
H1019 H 0.19326 0.22462 0.10113 0.0
H1020 H 0.2856 0.14331 0.10328 0.0
H1021 H 0.24192 0.15777 0.10022 0.0
H1022 H 0.19081 0.15438 0.15411 0.0
C1023 C 0.11232 0.19386 0.13331 0.0
C1024 C 0.19248 0.20931 0.11278 0.0
C1025 C 0.0912 0.20698 0.13481 0.0
C1026 C 0.27812 0.15166 0.11563 0.0
C1027 C 0.25305 0.15978 0.11393 0.0
C1028 C 0.19168 0.16973 0.14245 0.0
C1029 C 0.14543 0.21374 0.12749 0.0
C1030 C 0.16875 0.20056 0.1272 0.0
C1031 C 0.24224 0.16998 0.12983 0.0
C1032 C 0.21594 0.17915 0.12832 0.0
H1033 H 0.14514 0.28574 0.12082 0.0
H1034 H 0.18193 0.26304 0.11841 0.0
H1035 H 0.15076 0.17319 0.15333 0.0
H1036 H 0.29278 0.16513 0.16284 0.0
H1037 H 0.24968 0.17974 0.15993 0.0
C1038 C 0.17959 0.92253 0.38021 0.0
C1039 C 0.19217 0.95377 0.37168 0.0
C1040 C 0.14549 0.90118 0.38213 0.0
C1041 C 0.06462 0.89577 0.38477 0.0
H1042 H 0.0306 0.8076 0.36419 0.0
C1043 C 0.92901 0.78468 0.39451 0.0
C1044 C 0.9137 0.76794 0.37771 0.0
C1045 C 0.96267 0.80913 0.3946 0.0
C1046 C 0.03974 0.8321 0.37004 0.0
H1047 H 0.17792 0.98715 0.35919 0.0
H1048 H 0.11835 0.95018 0.36323 0.0
H1049 H 0.09007 0.84699 0.36335 0.0
H1050 H 0.92052 0.76514 0.34768 0.0
H1051 H 0.97949 0.80676 0.34795 0.0
H1052 H 1.01409 0.88048 0.39169 0.0
C1053 C 0.13522 0.9423 0.36821 0.0
C1054 C 0.07378 0.85459 0.36964 0.0
C1055 C 0.16944 0.96354 0.36597 0.0
C1056 C 0.93208 0.77707 0.3609 0.0
C1057 C 0.96573 0.80089 0.36105 0.0
C1058 C 0.03052 0.87295 0.38555 0.0
C1059 C 0.12288 0.91062 0.37596 0.0
C1060 C 0.08662 0.88677 0.37686 0.0
C1061 C 0.9815 0.81698 0.37791 0.0
C1062 C 1.01772 0.84098 0.378 0.0
H1063 H 0.19608 0.91432 0.38536 0.0
H1064 H 0.13674 0.87713 0.38843 0.0
H1065 H 0.07385 0.92035 0.39052 0.0
H1066 H 0.91499 0.77883 0.40752 0.0
H1067 H 0.97418 0.82122 0.40778 0.0
C1068 C 0.89341 0.11728 0.12028 0.0
C1069 C 0.88379 0.1323 0.13407 0.0
C1070 C 0.88174 0.08329 0.12086 0.0
C1071 C 0.81556 1.00504 0.14194 0.0
H1072 H 0.8732 0.97178 0.12665 0.0
C1073 C 0.76719 0.86505 0.13313 0.0
C1074 C 0.78786 0.8529 0.13896 0.0
C1075 C 0.77902 0.89908 0.1324 0.0
C1076 C 0.85681 0.98059 0.13112 0.0
H1077 H 0.85704 0.12462 0.16021 0.0
H1078 H 0.83622 0.06506 0.1613 0.0
H1079 H 0.89382 0.03097 0.12628 0.0
H1080 H 0.83725 0.86721 0.14873 0.0
H1081 H 0.85784 0.92651 0.14764 0.0
H1082 H 0.77884 0.95471 0.14728 0.0
C1083 C 0.8518 0.07914 0.1496 0.0
C1084 C 0.86852 1.01461 0.13067 0.0
C1085 C 0.86368 0.11321 0.14902 0.0
C1086 C 0.82077 0.8757 0.14393 0.0
C1087 C 0.83258 0.90976 0.14328 0.0
C1088 C 0.80387 0.97101 0.14243 0.0
C1089 C 0.86059 0.06366 0.13547 0.0
C1090 C 0.84807 0.02734 0.13604 0.0
C1091 C 0.81184 0.92194 0.13756 0.0
C1092 C 0.82432 0.95828 0.13702 0.0
H1093 H 0.91002 0.13189 0.10903 0.0
H1094 H 0.88894 0.07235 0.10968 0.0
H1095 H 0.79895 1.01382 0.14601 0.0
H1096 H 0.74186 0.84822 0.12891 0.0
H1097 H 0.76247 0.90745 0.12757 0.0
C1098 C 0.26363 0.15184 0.41186 0.0
C1099 C 0.28075 0.15084 0.39584 0.0
C1100 C 0.23871 0.16009 0.41023 0.0
C1101 C 0.18296 0.1682 0.37529 0.0
H1102 H 0.18007 0.22613 0.41352 0.0
C1103 C 0.08375 0.20863 0.37351 0.0
C1104 C 0.09401 0.24148 0.37868 0.0
C1105 C 0.10452 0.19535 0.37638 0.0
C1106 C 0.18059 0.21015 0.4026 0.0
H1107 H 0.28307 0.15397 0.36538 0.0
H1108 H 0.24008 0.16898 0.36239 0.0
H1109 H 0.21978 0.20725 0.41644 0.0
H1110 H 0.13401 0.28551 0.3917 0.0
H1111 H 0.17031 0.26295 0.39607 0.0
H1112 H 0.14474 0.17226 0.36103 0.0
C1113 C 0.24595 0.16391 0.37631 0.0
C1114 C 0.20315 0.19885 0.40444 0.0
C1115 C 0.27095 0.15579 0.378 0.0
C1116 C 0.12533 0.26033 0.38719 0.0
C1117 C 0.14609 0.24714 0.38998 0.0
C1118 C 0.16051 0.17965 0.37339 0.0
C1119 C 0.22986 0.16682 0.39244 0.0
C1120 C 0.20483 0.17782 0.39077 0.0
C1121 C 0.13617 0.21451 0.38451 0.0
C1122 C 0.1591 0.201 0.38695 0.0
H1123 H 0.26999 0.1469 0.42571 0.0
H1124 H 0.2264 0.16118 0.42293 0.0
H1125 H 0.18313 0.15174 0.36457 0.0
H1126 H 0.05995 0.19335 0.36682 0.0
H1127 H 0.09569 0.16998 0.37222 0.0
C1128 C 0.16766 0.95764 0.14376 0.0
C1129 C 0.18935 0.94535 0.14096 0.0
C1130 C 0.13338 0.93707 0.14144 0.0
C1131 C 0.06939 0.85803 0.11974 0.0
H1132 H 1.01219 0.8611 0.15838 0.0
C1133 C 0.9255 0.77648 0.1163 0.0
C1134 C 0.9099 0.76134 0.13332 0.0
C1135 C 0.95919 0.80083 0.11609 0.0
C1136 C 0.02776 0.85982 0.14747 0.0
H1137 H 0.19185 0.90194 0.13282 0.0
H1138 H 0.13223 0.86614 0.12883 0.0
H1139 H 0.07164 0.89949 0.15986 0.0
H1140 H 0.91638 0.76123 0.16354 0.0
H1141 H 0.97507 0.80295 0.16323 0.0
H1142 H 1.0255 0.81809 0.10746 0.0
C1143 C 0.14168 0.8917 0.13282 0.0
C1144 C 0.06189 0.88213 0.14821 0.0
C1145 C 0.17589 0.91217 0.13531 0.0
C1146 C 0.92808 0.77202 0.15018 0.0
C1147 C 0.96164 0.79619 0.14999 0.0
C1148 C 0.03516 0.83591 0.11888 0.0
C1149 C 0.1199 0.90374 0.13606 0.0
C1150 C 0.08326 0.88127 0.13451 0.0
C1151 C 0.97779 0.81088 0.13295 0.0
C1152 C 1.01392 0.83609 0.13293 0.0
H1153 H 0.1771 0.98298 0.14822 0.0
H1154 H 0.1174 0.94728 0.14389 0.0
H1155 H 0.08503 0.8569 0.10882 0.0
H1156 H 0.91164 0.76956 0.1032 0.0
H1157 H 0.97062 0.81193 0.10274 0.0
C1158 C 0.83269 0.89049 0.37864 0.0
C1159 C 0.7991 0.86697 0.38136 0.0
C1160 C 0.84458 0.9241 0.38225 0.0
C1161 C 0.81562 0.98478 0.38752 0.0
H1162 H 0.90393 0.04144 0.40736 0.0
C1163 C 0.87486 0.12651 0.3881 0.0
C1164 C 0.89403 0.14421 0.40378 0.0
C1165 C 0.86379 0.09282 0.38601 0.0
C1166 C 0.87907 0.02596 0.40199 0.0
H1167 H 0.75196 0.86036 0.39071 0.0
H1168 H 0.77265 0.91864 0.39726 0.0
H1169 H 0.88338 0.98251 0.40326 0.0
H1170 H 0.91844 0.14105 0.42895 0.0
H1171 H 0.89865 0.08184 0.42558 0.0
H1172 H 0.81097 0.02795 0.38663 0.0
C1173 C 0.78975 0.91137 0.39186 0.0
C1174 C 0.86741 0.99214 0.39939 0.0
C1175 C 0.77786 0.87785 0.38814 0.0
C1176 C 0.90324 0.12783 0.41689 0.0
C1177 C 0.89202 0.09397 0.41487 0.0
C1178 C 0.82722 0.01851 0.39018 0.0
C1179 C 0.82323 0.93507 0.3888 0.0
C1180 C 0.83556 0.97106 0.39203 0.0
C1181 C 0.87184 0.07591 0.39947 0.0
C1182 C 0.85921 0.03968 0.39731 0.0
H1183 H 0.84968 0.88305 0.37324 0.0
H1184 H 0.87039 0.94155 0.37946 0.0
H1185 H 0.79113 0.96957 0.38161 0.0
H1186 H 0.86827 0.1386 0.37739 0.0
H1187 H 0.8491 0.08012 0.3737 0.0
C1188 C 0.28026 0.12195 0.63286 0.0
C1189 C 0.26191 0.09218 0.64287 0.0
C1190 C 0.26897 0.14447 0.63127 0.0
C1191 C 0.19408 0.15225 0.63474 0.0
H1192 H 0.25734 0.24547 0.64168 0.0
C1193 C 0.1604 0.25389 0.62085 0.0
C1194 C 0.17202 0.27991 0.63393 0.0
C1195 C 0.17163 0.23121 0.62145 0.0
C1196 C 0.23933 0.21954 0.63977 0.0
H1197 H 0.21679 0.06275 0.65878 0.0
H1198 H 0.19689 0.10188 0.6558 0.0
H1199 H 0.27582 0.20514 0.6437 0.0
H1200 H 0.20241 0.30145 0.65873 0.0
H1201 H 0.22284 0.26236 0.6596 0.0
H1202 H 0.15752 0.16664 0.63102 0.0
C1203 C 0.22005 0.1077 0.64912 0.0
C1204 C 0.24998 0.19641 0.64075 0.0
C1205 C 0.23145 0.08519 0.6508 0.0
C1206 C 0.19412 0.28227 0.64807 0.0
C1207 C 0.20573 0.25987 0.64855 0.0
C1208 C 0.18348 0.17541 0.63362 0.0
C1209 C 0.23887 0.13782 0.63952 0.0
C1210 C 0.22748 0.16244 0.6383 0.0
C1211 C 0.19449 0.23392 0.63529 0.0
C1212 C 0.20594 0.20935 0.63617 0.0
H1213 H 0.30345 0.12792 0.62618 0.0
H1214 H 0.28379 0.16708 0.62345 0.0
H1215 H 0.17613 0.12635 0.63263 0.0
H1216 H 0.14229 0.25087 0.6103 0.0
H1217 H 0.16252 0.21164 0.611 0.0
C1218 C 0.12112 0.88065 0.90917 0.0
C1219 C 0.13861 0.87306 0.8959 0.0
C1220 C 0.08698 0.86755 0.90735 0.0
C1221 C 1.01203 0.80193 0.88306 0.0
H1222 H 0.97608 0.85809 0.89648 0.0
C1223 C 0.87073 0.75245 0.88646 0.0
C1224 C 0.85907 0.77331 0.8802 0.0
C1225 C 0.90471 0.76424 0.88825 0.0
C1226 C 0.98565 0.84211 0.89249 0.0
H1227 H 0.13467 0.84764 0.8696 0.0
H1228 H 0.07493 0.82477 0.86625 0.0
H1229 H 0.03521 0.8792 0.89934 0.0
H1230 H 0.87426 0.82289 0.87067 0.0
H1231 H 0.93344 0.8434 0.87365 0.0
H1232 H 0.96247 0.76513 0.87572 0.0
C1233 C 0.08733 0.83992 0.87847 0.0
C1234 C 1.01962 0.85409 0.89439 0.0
C1235 C 0.12156 0.853 0.88036 0.0
C1236 C 0.88232 0.80628 0.8758 0.0
C1237 C 0.91631 0.81804 0.87753 0.0
C1238 C 0.978 0.78995 0.88111 0.0
C1239 C 0.06959 0.84714 0.89193 0.0
C1240 C 0.03331 0.83418 0.88975 0.0
C1241 C 0.92802 0.79721 0.8838 0.0
C1242 C 0.96432 0.80988 0.8858 0.0
H1243 H 0.13389 0.89658 0.92109 0.0
H1244 H 0.07421 0.87334 0.91813 0.0
H1245 H 1.0216 0.78576 0.8795 0.0
H1246 H 0.85353 0.72705 0.89023 0.0
H1247 H 0.91268 0.7476 0.89344 0.0
C1248 C 0.776 0.90942 0.65028 0.0
C1249 C 0.76378 0.89005 0.6339 0.0
C1250 C 0.80106 0.94251 0.64917 0.0
C1251 C 0.8403 1.01316 0.61641 0.0
H1252 H 0.9073 0.05081 0.65559 0.0
C1253 C 0.91999 0.1541 0.6301 0.0
C1254 C 0.95335 0.1673 0.63536 0.0
C1255 C 0.89903 0.11994 0.62809 0.0
C1256 C 0.88903 0.0407 0.64441 0.0
H1257 H 0.77007 0.88905 0.60368 0.0
H1258 H 0.81391 0.94726 0.60161 0.0
H1259 H 0.86759 0.9917 0.65554 0.0
H1260 H 0.99088 0.15472 0.64224 0.0
H1261 H 0.95433 0.09505 0.63865 0.0
H1262 H 0.86169 0.06231 0.60537 0.0
C1263 C 0.80342 0.93713 0.61529 0.0
C1264 C 0.86598 1.00681 0.6445 0.0
C1265 C 0.77824 0.90389 0.61643 0.0
C1266 C 0.96539 0.14544 0.6381 0.0
C1267 C 0.94434 0.1112 0.63621 0.0
C1268 C 0.86324 0.04716 0.61641 0.0
C1269 C 0.815 0.95693 0.63166 0.0
C1270 C 0.84101 0.99262 0.63066 0.0
C1271 C 0.91078 0.09797 0.63136 0.0
C1272 C 0.8877 0.06145 0.63053 0.0
H1273 H 0.7657 0.89906 0.66397 0.0
H1274 H 0.80907 0.95697 0.66206 0.0
H1275 H 0.82143 1.00315 0.60555 0.0
H1276 H 0.90996 0.17021 0.62765 0.0
H1277 H 0.87332 0.11071 0.62449 0.0
C1278 C 0.1604 0.26183 0.89708 0.0
C1279 C 0.16172 0.27886 0.88051 0.0
C1280 C 0.17069 0.23829 0.89691 0.0
C1281 C 0.22416 0.21541 0.87009 0.0
H1282 H 0.17409 0.13012 0.89441 0.0
C1283 C 0.2733 0.12403 0.87429 0.0
C1284 C 0.25073 0.09065 0.87009 0.0
C1285 C 0.26244 0.14676 0.87692 0.0
C1286 C 0.18831 0.15381 0.8875 0.0
H1287 H 0.17217 0.283 0.85057 0.0
H1288 H 0.19092 0.24272 0.8503 0.0
H1289 H 0.15469 0.16994 0.89636 0.0
H1290 H 0.1987 0.05528 0.86553 0.0
H1291 H 0.17981 0.09483 0.87033 0.0
H1292 H 0.25753 0.19933 0.861 0.0
C1293 C 0.18271 0.2479 0.86352 0.0
C1294 C 0.17736 0.17673 0.88878 0.0
C1295 C 0.172 0.27094 0.86365 0.0
C1296 C 0.21684 0.08059 0.86899 0.0
C1297 C 0.20596 0.10332 0.87173 0.0
C1298 C 0.23525 0.19267 0.86895 0.0
C1299 C 0.1825 0.23147 0.88016 0.0
C1300 C 0.19493 0.20765 0.87987 0.0
C1301 C 0.22866 0.13679 0.87555 0.0
C1302 C 0.21733 0.16142 0.87748 0.0
H1303 H 0.15137 0.26668 0.9101 0.0
H1304 H 0.17012 0.226 0.90995 0.0
H1305 H 0.23851 0.23916 0.86326 0.0
H1306 H 0.29948 0.13267 0.87568 0.0
H1307 H 0.28057 0.1722 0.88015 0.0
C1308 C 0.13163 0.88763 0.63322 0.0
C1309 C 0.14654 0.89244 0.61543 0.0
C1310 C 0.09821 0.87847 0.63476 0.0
C1311 C 1.02034 0.83777 0.60718 0.0
H1312 H 0.98648 0.86546 0.64912 0.0
C1313 C 0.88165 0.76858 0.62784 0.0
C1314 C 0.86733 0.78735 0.63375 0.0
C1315 C 0.91578 0.78358 0.62467 0.0
C1316 C 0.99549 0.85765 0.63722 0.0
H1317 H 0.13965 0.89487 0.58543 0.0
H1318 H 0.08096 0.87842 0.58796 0.0
H1319 H 0.04609 0.88964 0.64518 0.0
H1320 H 0.87803 0.83685 0.64094 0.0
H1321 H 0.9375 0.86306 0.63524 0.0
H1322 H 0.96973 0.80579 0.59922 0.0
C1323 C 0.09469 0.88078 0.60074 0.0
C1324 C 0.02973 0.87129 0.63506 0.0
C1325 C 0.12824 0.89022 0.59925 0.0
C1326 C 0.8881 0.82163 0.63625 0.0
C1327 C 0.92229 0.83663 0.63317 0.0
C1328 C 0.98611 0.82399 0.6094 0.0
C1329 C 0.07904 0.87417 0.61851 0.0
C1330 C 0.04265 0.86131 0.62012 0.0
C1331 C 0.93663 0.81779 0.62738 0.0
C1332 C 0.97318 0.83353 0.62454 0.0
H1333 H 0.14567 0.89023 0.64593 0.0
H1334 H 0.08712 0.8735 0.64866 0.0
H1335 H 0.02926 0.82926 0.59556 0.0
H1336 H 0.86642 0.7422 0.62557 0.0
H1337 H 0.92592 0.76821 0.62041 0.0
C1338 C 0.96303 0.15457 0.87473 0.0
C1339 C 0.95035 0.17561 0.87867 0.0
C1340 C 0.94292 0.12018 0.87631 0.0
C1341 C 0.86456 0.05432 0.89756 0.0
H1342 H 0.86888 0.99973 0.85766 0.0
C1343 C 0.78366 0.91103 0.89886 0.0
C1344 C 0.76889 0.8959 0.88164 0.0
C1345 C 0.80821 0.94456 0.89946 0.0
C1346 C 0.86721 1.01455 0.8689 0.0
H1347 H 0.90671 0.17677 0.88797 0.0
H1348 H 0.87165 0.11697 0.89054 0.0
H1349 H 0.90629 0.05929 0.85709 0.0
H1350 H 0.7698 0.90289 0.85144 0.0
H1351 H 0.81175 0.96143 0.85241 0.0
H1352 H 0.82508 1.00967 0.90919 0.0
C1353 C 0.89719 0.12701 0.88629 0.0
C1354 C 0.88899 0.04876 0.86869 0.0
C1355 C 0.91722 0.16135 0.88461 0.0
C1356 C 0.78032 0.91428 0.86494 0.0
C1357 C 0.80462 0.94775 0.86552 0.0
C1358 C 0.8429 0.02006 0.89784 0.0
C1359 C 0.90965 0.10591 0.88199 0.0
C1360 C 0.88769 0.0692 0.88288 0.0
C1361 C 0.81874 0.96352 0.8828 0.0
C1362 C 0.84352 0.99972 0.88334 0.0
H1363 H 0.98832 0.16462 0.87 0.0
H1364 H 0.95347 0.10475 0.87307 0.0
H1365 H 0.86311 0.06919 0.90886 0.0
H1366 H 0.77618 0.89698 0.91185 0.0
H1367 H 0.81891 0.95561 0.91298 0.0
C1368 C 0.39097 0.2114 0.32921 0.0
C1369 C 0.37038 0.17915 0.33601 0.0
C1370 C 0.39601 0.21727 0.30967 0.0
C1371 C 0.39188 0.17226 0.26583 0.0
H1372 H 0.39395 0.24553 0.23917 0.0
C1373 C 0.3789 0.20464 0.18415 0.0
C1374 C 0.39726 0.19171 0.17575 0.0
C1375 C 0.38019 0.20961 0.20377 0.0
C1376 C 0.39341 0.22493 0.24643 0.0
H1377 H 0.33723 0.12826 0.32748 0.0
H1378 H 0.34563 0.13852 0.29395 0.0
H1379 H 0.38562 0.24084 0.27353 0.0
H1380 H 0.43328 0.17641 0.18089 0.0
H1381 H 0.43664 0.18631 0.21477 0.0
H1382 H 0.39841 0.15547 0.23902 0.0
C1383 C 0.35873 0.15918 0.30354 0.0
C1384 C 0.38893 0.22241 0.26612 0.0
C1385 C 0.35383 0.15334 0.32287 0.0
C1386 C 0.41886 0.1864 0.18702 0.0
C1387 C 0.42046 0.19172 0.20648 0.0
C1388 C 0.39634 0.17475 0.24631 0.0
C1389 C 0.38049 0.19099 0.29665 0.0
C1390 C 0.38761 0.19571 0.27599 0.0
C1391 C 0.40004 0.20193 0.21526 0.0
C1392 C 0.39701 0.20098 0.23627 0.0
H1393 H 0.404 0.23184 0.33895 0.0
H1394 H 0.4129 0.24209 0.3048 0.0
H1395 H 0.39149 0.15162 0.27297 0.0
H1396 H 0.36167 0.20844 0.1758 0.0
H1397 H 0.36402 0.21736 0.21004 0.0
C1398 C 0.81386 0.6486 0.32462 0.0
C1399 C 0.84204 0.66539 0.33616 0.0
C1400 C 0.81691 0.64449 0.30531 0.0
C1401 C 0.87443 0.68261 0.26564 0.0
H1402 H 0.81107 0.60305 0.23919 0.0
C1403 C 0.87296 0.67323 0.18364 0.0
C1404 C 0.84142 0.65982 0.17542 0.0
C1405 C 0.87633 0.6705 0.20318 0.0
C1406 C 0.82891 0.62553 0.24631 0.0
H1407 H 0.8956 0.69036 0.33646 0.0
H1408 H 0.901 0.68299 0.3026 0.0
H1409 H 0.81093 0.60447 0.27359 0.0
H1410 H 0.78873 0.63169 0.1811 0.0
H1411 H 0.79449 0.62709 0.21482 0.0
H1412 H 0.8917 0.70404 0.23832 0.0
C1413 C 0.87649 0.67312 0.30857 0.0
C1414 C 0.82884 0.62632 0.26607 0.0
C1415 C 0.8734 0.67701 0.32801 0.0
C1416 C 0.81343 0.6423 0.18696 0.0
C1417 C 0.81675 0.6395 0.20636 0.0
C1418 C 0.87443 0.68187 0.24583 0.0
C1419 C 0.84825 0.65717 0.29693 0.0
C1420 C 0.8511 0.6551 0.27601 0.0
C1421 C 0.84821 0.65406 0.21485 0.0
C1422 C 0.85115 0.65355 0.23588 0.0
H1423 H 0.78931 0.63937 0.33044 0.0
H1424 H 0.79463 0.63247 0.29681 0.0
H1425 H 0.89173 0.70529 0.2728 0.0
H1426 H 0.895 0.68715 0.17518 0.0
H1427 H 0.90095 0.68175 0.20919 0.0
C1428 C 0.84798 0.17511 0.18825 0.0
C1429 C 0.87063 0.20568 0.18021 0.0
C1430 C 0.84452 0.17176 0.20792 0.0
C1431 C 0.83369 0.17461 0.25063 0.0
H1432 H 0.91655 0.2232 0.2779 0.0
C1433 C 0.84323 0.18947 0.3325 0.0
C1434 C 0.87141 0.19209 0.34125 0.0
C1435 C 0.83991 0.18692 0.3128 0.0
C1436 C 0.89319 0.20905 0.27056 0.0
H1437 H 0.90512 0.25728 0.18627 0.0
H1438 H 0.89868 0.25167 0.22032 0.0
H1439 H 0.91617 0.22751 0.24387 0.0
H1440 H 0.91718 0.19207 0.33652 0.0
H1441 H 0.911 0.18648 0.30235 0.0
H1442 H 0.81096 0.1556 0.27753 0.0
C1443 C 0.88444 0.22995 0.21163 0.0
C1444 C 0.89289 0.212 0.25099 0.0
C1445 C 0.88806 0.23322 0.19208 0.0
C1446 C 0.89531 0.19034 0.3301 0.0
C1447 C 0.89185 0.18739 0.3105 0.0
C1448 C 0.83401 0.17156 0.27032 0.0
C1449 C 0.86347 0.19899 0.21986 0.0
C1450 C 0.86315 0.19509 0.24075 0.0
C1451 C 0.86469 0.1868 0.30152 0.0
C1452 C 0.86382 0.1888 0.28053 0.0
H1453 H 0.83415 0.15346 0.17945 0.0
H1454 H 0.82815 0.14754 0.21377 0.0
H1455 H 0.81033 0.16132 0.24319 0.0
H1456 H 0.82481 0.19151 0.3407 0.0
H1457 H 0.81882 0.18683 0.30639 0.0
C1458 C 0.21419 0.36376 0.68789 0.0
C1459 C 0.18994 0.36982 0.68031 0.0
C1460 C 0.2219 0.36874 0.70721 0.0
C1461 C 0.21674 0.41265 0.74926 0.0
H1462 H 0.20863 0.3386 0.77807 0.0
C1463 C 0.18353 0.39654 0.82773 0.0
C1464 C 0.19474 0.3803 0.8397 0.0
C1465 C 0.19093 0.39981 0.80851 0.0
C1466 C 0.21178 0.35986 0.77026 0.0
H1467 H 0.15581 0.38717 0.6868 0.0
H1468 H 0.16953 0.39623 0.72023 0.0
H1469 H 0.20725 0.33601 0.74359 0.0
H1470 H 0.22397 0.35619 0.84102 0.0
H1471 H 0.23768 0.3626 0.80733 0.0
H1472 H 0.22079 0.43641 0.77577 0.0
C1473 C 0.18248 0.38748 0.71137 0.0
C1474 C 0.21089 0.3583 0.75049 0.0
C1475 C 0.17444 0.38203 0.69223 0.0
C1476 C 0.21512 0.36898 0.83218 0.0
C1477 C 0.22261 0.3723 0.81283 0.0
C1478 C 0.21797 0.41437 0.76897 0.0
C1479 C 0.20598 0.38054 0.71914 0.0
C1480 C 0.21232 0.38426 0.73982 0.0
C1481 C 0.21 0.38717 0.80068 0.0
C1482 C 0.21437 0.38755 0.77978 0.0
H1483 H 0.22643 0.3542 0.67905 0.0
H1484 H 0.24016 0.36325 0.71283 0.0
H1485 H 0.21842 0.43325 0.74139 0.0
H1486 H 0.16784 0.40565 0.83308 0.0
H1487 H 0.18027 0.41092 0.79966 0.0
C1488 C 0.19048 0.8291 0.82744 0.0
C1489 C 0.19104 0.85669 0.83577 0.0
C1490 C 0.18551 0.82342 0.80795 0.0
C1491 C 0.15812 0.84934 0.76492 0.0
H1492 H 0.21633 0.82596 0.73854 0.0
C1493 C 0.19796 0.88501 0.68817 0.0
C1494 C 0.1984 0.86166 0.67582 0.0
C1495 C 0.19128 0.87806 0.70732 0.0
C1496 C 0.19948 0.83191 0.74572 0.0
H1497 H 0.18562 0.8993 0.83022 0.0
H1498 H 0.17767 0.88989 0.79642 0.0
H1499 H 0.21506 0.8255 0.77304 0.0
H1500 H 0.19179 0.81249 0.67383 0.0
H1501 H 0.18089 0.80058 0.70776 0.0
H1502 H 0.14388 0.85738 0.73759 0.0
C1503 C 0.18055 0.87223 0.80485 0.0
C1504 C 0.19869 0.83162 0.76551 0.0
C1505 C 0.18542 0.87783 0.82428 0.0
C1506 C 0.19155 0.8309 0.68303 0.0
C1507 C 0.18546 0.82416 0.7024 0.0
C1508 C 0.15916 0.84992 0.7452 0.0
C1509 C 0.18099 0.84522 0.79635 0.0
C1510 C 0.17863 0.8412 0.77538 0.0
C1511 C 0.1853 0.84776 0.71472 0.0
C1512 C 0.18046 0.84202 0.7354 0.0
H1513 H 0.19513 0.81255 0.8358 0.0
H1514 H 0.18567 0.80218 0.80195 0.0
H1515 H 0.14177 0.85606 0.77199 0.0
H1516 H 0.20287 0.90885 0.68305 0.0
H1517 H 0.19169 0.89688 0.71647 0.0
C1518 C 0.67627 0.85119 0.68561 0.0
C1519 C 0.66128 0.81986 0.67697 0.0
C1520 C 0.67494 0.85409 0.70533 0.0
C1521 C 0.66472 0.80474 0.74825 0.0
H1522 H 0.65539 0.87205 0.775 0.0
C1523 C 0.64708 0.79688 0.82827 0.0
C1524 C 0.66597 0.82572 0.839 0.0
C1525 C 0.64466 0.79841 0.80869 0.0
C1526 C 0.6583 0.85328 0.76773 0.0
H1527 H 0.6313 0.76724 0.68206 0.0
H1528 H 0.62834 0.77226 0.71607 0.0
H1529 H 0.65423 0.87071 0.74034 0.0
H1530 H 0.69585 0.87904 0.83761 0.0
H1531 H 0.69149 0.88182 0.80317 0.0
H1532 H 0.669 0.78733 0.77536 0.0
C1533 C 0.64186 0.79462 0.70785 0.0
C1534 C 0.65764 0.8525 0.74785 0.0
C1535 C 0.64327 0.79175 0.68828 0.0
C1536 C 0.68083 0.85642 0.82976 0.0
C1537 C 0.67844 0.85796 0.81001 0.0
C1538 C 0.66535 0.8055 0.76797 0.0
C1539 C 0.65858 0.82572 0.71676 0.0
C1540 C 0.66035 0.82787 0.73787 0.0
C1541 C 0.66116 0.82883 0.79918 0.0
C1542 C 0.66167 0.82943 0.77804 0.0
H1543 H 0.69067 0.87328 0.6773 0.0
H1544 H 0.68814 0.87844 0.71169 0.0
H1545 H 0.66792 0.78603 0.74111 0.0
H1546 H 0.63511 0.77283 0.83495 0.0
H1547 H 0.63047 0.77551 0.80093 0.0
C1548 C 0.27423 0.92583 0.9549 0.0
C1549 C 0.24212 0.91397 0.94791 0.0
C1550 C 0.28545 0.94694 0.97067 0.0
C1551 C 0.26561 1.00384 0.99789 0.0
H1552 H 0.33195 1.00779 0.0322 0.0
C1553 C 0.32428 0.10358 0.05777 0.0
C1554 C 0.33187 0.09335 0.07477 0.0
C1555 C 0.31422 0.08283 0.04173 0.0
C1556 C 0.31313 1.00692 0.02291 0.0
H1557 H 0.19626 0.91394 0.95212 0.0
H1558 H 0.21461 0.94834 0.98038 0.0
H1559 H 0.31121 0.96701 1.00708 0.0
H1560 H 0.33286 0.052 0.08817 0.0
H1561 H 0.3145 1.01637 0.06113 0.0
H1562 H 0.26648 0.04278 0.01436 0.0
C1563 C 0.23177 0.94254 0.97348 0.0
C1564 C 0.30153 0.98367 1.00822 0.0
C1565 C 0.22087 0.92205 0.95754 0.0
C1566 C 0.32802 0.06148 0.0754 0.0
C1567 C 0.31767 0.04082 0.05964 0.0
C1568 C 0.27692 0.02683 0.01276 0.0
C1569 C 0.26464 0.95639 0.97989 0.0
C1570 C 0.27735 0.9815 0.99555 0.0
C1571 C 0.31109 0.05119 0.04243 0.0
C1572 C 0.30058 0.02847 0.02566 0.0
H1573 H 0.29147 0.92095 0.94729 0.0
H1574 H 0.31103 0.95728 0.9749 0.0
H1575 H 0.24765 1.00372 0.98819 0.0
H1576 H 0.32606 0.12747 0.05681 0.0
H1577 H 0.30929 0.09178 0.02876 0.0
C1578 C 0.8222 0.71667 0.45849 0.0
C1579 C 0.82809 0.73365 0.44134 0.0
C1580 C 0.81222 0.72717 0.47452 0.0
C1581 C 0.80695 0.79728 0.49587 0.0
H1582 H 0.73193 0.72778 0.52248 0.0
C1583 C 0.73823 0.82394 0.55707 0.0
C1584 C 0.72676 0.80132 0.57214 0.0
C1585 C 0.7512 0.81755 0.54061 0.0
C1586 C 0.7532 0.74761 0.51547 0.0
H1587 H 0.82887 0.77531 0.42761 0.0
H1588 H 0.8121 0.79401 0.4556 0.0
H1589 H 0.75569 0.71381 0.49599 0.0
H1590 H 0.72113 0.75453 0.58156 0.0
H1591 H 0.74413 0.74427 0.55381 0.0
H1592 H 0.80472 0.83107 0.51562 0.0
C1593 C 0.81532 0.77272 0.45678 0.0
C1594 C 0.76685 0.7395 0.5002 0.0
C1595 C 0.82489 0.76197 0.44073 0.0
C1596 C 0.72917 0.77258 0.57035 0.0
C1597 C 0.74224 0.76641 0.55417 0.0
C1598 C 0.79348 0.80542 0.51137 0.0
C1599 C 0.80804 0.75499 0.47379 0.0
C1600 C 0.79407 0.76412 0.49026 0.0
C1601 C 0.75319 0.78848 0.5389 0.0
C1602 C 0.76658 0.78063 0.52155 0.0
H1603 H 0.8234 0.69423 0.45927 0.0
H1604 H 0.80701 0.71301 0.48741 0.0
H1605 H 0.82791 0.81691 0.48853 0.0
H1606 H 0.73736 0.84658 0.558 0.0
H1607 H 0.75933 0.83521 0.52918 0.0
C1608 C 0.08811 0.33176 0.94875 0.0
C1609 C 0.10772 0.31814 0.94336 0.0
C1610 C 0.06649 0.31911 0.96402 0.0
C1611 C 0.0455 0.26759 1.00689 0.0
H1612 H 0.95894 0.2583 0.99916 0.0
C1613 C 0.94368 0.20535 0.06292 0.0
C1614 C 0.92569 0.22106 0.06753 0.0
C1615 C 0.96327 0.21411 0.04671 0.0
C1616 C 0.98304 0.26096 1.00164 0.0
H1617 H 0.12163 0.28183 0.95056 0.0
H1618 H 0.0835 0.25935 0.97756 0.0
H1619 H 0.99991 0.28024 0.97394 0.0
H1620 H 0.91306 0.25747 0.05852 0.0
H1621 H 0.94746 0.27307 0.02998 0.0
H1622 H 0.02879 0.24867 0.03467 0.0
C1623 C 0.08485 0.27989 0.96978 0.0
C1624 C 1.00661 0.27357 0.98717 0.0
C1625 C 0.10675 0.29276 0.95438 0.0
C1626 C 0.92613 0.24448 0.05504 0.0
C1627 C 0.94606 0.25352 0.03878 0.0
C1628 C 1.02193 0.255 0.02139 0.0
C1629 C 0.06374 0.29234 0.97442 0.0
C1630 C 0.03829 0.27738 0.98965 0.0
C1631 C 0.96578 0.23921 0.03477 0.0
C1632 C 0.99039 0.25165 0.019 0.0
H1633 H 0.089 0.352 0.94091 0.0
H1634 H 0.05157 0.33013 0.96754 0.0
H1635 H 0.0697 0.2705 0.0094 0.0
H1636 H 0.94385 0.1873 0.07241 0.0
H1637 H 0.97735 0.20192 0.04388 0.0
C1638 C 0.31156 0.11212 0.45602 0.0
C1639 C 0.34231 0.12021 0.44817 0.0
C1640 C 0.29796 0.08878 0.47064 0.0
C1641 C 0.30539 0.01875 0.49037 0.0
H1642 H 0.24913 0.01945 0.5304 0.0
C1643 C 0.27437 0.93998 0.55788 0.0
C1644 C 0.24171 0.92409 0.56464 0.0
C1645 C 0.2836 0.96115 0.54237 0.0
C1646 C 0.26444 0.01872 0.51913 0.0
H1647 H 0.38377 0.11192 0.45005 0.0
H1648 H 0.36137 0.07314 0.47613 0.0
H1649 H 0.27279 0.06454 0.50742 0.0
H1650 H 0.19291 0.9175 0.56036 0.0
H1651 H 0.20916 0.95509 0.53312 0.0
H1652 H 0.29797 0.97359 0.50249 0.0
C1653 C 0.34694 0.08361 0.47074 0.0
C1654 C 0.27808 0.0446 0.50595 0.0
C1655 C 0.3602 0.10643 0.45603 0.0
C1656 C 0.21806 0.92888 0.55514 0.0
C1657 C 0.22749 0.95073 0.53977 0.0
C1658 C 0.29215 0.99322 0.50364 0.0
C1659 C 0.315 0.07328 0.47774 0.0
C1660 C 0.29921 0.04528 0.49154 0.0
C1661 C 0.26053 0.96754 0.53344 0.0
C1662 C 0.27181 0.99303 0.5183 0.0
H1663 H 0.2969 0.12174 0.44985 0.0
H1664 H 0.27328 0.08148 0.47556 0.0
H1665 H 0.32056 1.01762 0.47916 0.0
H1666 H 0.29321 0.93723 0.56521 0.0
H1667 H 0.30927 0.97392 0.53798 0.0
C1668 C 0.84459 0.75054 0.0613 0.0
C1669 C 0.82077 0.72143 0.07021 0.0
C1670 C 0.83565 0.76366 0.04595 0.0
C1671 C 0.75932 0.75747 0.02396 0.0
H1672 H 0.81781 0.80655 0.98269 0.0
C1673 C 0.71233 0.77908 0.95317 0.0
C1674 C 0.72877 0.81079 0.94514 0.0
C1675 C 0.72488 0.77181 0.96924 0.0
C1676 C 0.80133 0.79323 0.99426 0.0
H1677 H 0.76975 0.68196 0.06918 0.0
H1678 H 0.75463 0.70343 0.0422 0.0
H1679 H 0.83784 0.78556 1.00811 0.0
H1680 H 0.77123 0.85996 0.94782 0.0
H1681 H 0.79384 0.847 0.97594 0.0
H1682 H 0.7225 0.76402 0.00974 0.0
C1683 C 0.77979 0.71737 0.04738 0.0
C1684 C 0.8128 0.78115 0.00888 0.0
C1685 C 0.78855 0.70471 0.06278 0.0
C1686 C 0.75787 0.83541 0.95383 0.0
C1687 C 0.77095 0.82788 0.96977 0.0
C1688 C 0.74781 0.76908 0.00928 0.0
C1689 C 0.80278 0.74768 0.03908 0.0
C1690 C 0.79174 0.7625 0.02383 0.0
C1691 C 0.75466 0.79586 0.97758 0.0
C1692 C 0.76844 0.78671 0.99409 0.0
H1693 H 0.86958 0.76409 0.06682 0.0
H1694 H 0.85419 0.787 0.04004 0.0
H1695 H 0.74251 0.74436 0.03543 0.0
H1696 H 0.68987 0.75959 0.9468 0.0
H1697 H 0.71176 0.74691 0.97478 0.0
C1698 C 0.10077 0.29785 0.56426 0.0
C1699 C 0.12178 0.33098 0.5695 0.0
C1700 C 0.07879 0.28961 0.54914 0.0
C1701 C 0.05605 0.32182 0.5073 0.0
H1702 H 0.96826 0.24823 0.51777 0.0
C1703 C 0.94786 0.28713 0.45566 0.0
C1704 C 0.92739 0.25335 0.4515 0.0
C1705 C 0.96983 0.29741 0.47094 0.0
C1706 C 0.99266 0.26862 0.51449 0.0
H1707 H 0.13717 0.38164 0.56252 0.0
H1708 H 0.09872 0.36734 0.53577 0.0
H1709 H 1.01199 0.26499 0.54119 0.0
H1710 H 0.91309 0.20388 0.4606 0.0
H1711 H 0.95112 0.22165 0.48746 0.0
H1712 H 0.03672 0.32526 0.48051 0.0
C1713 C 0.0995 0.34766 0.54332 0.0
C1714 C 1.01787 0.27826 0.52794 0.0
C1715 C 0.12178 0.35594 0.55852 0.0
C1716 C 0.92783 0.23002 0.46372 0.0
C1717 C 0.94999 0.24032 0.47902 0.0
C1718 C 0.03081 0.31212 0.4938 0.0
C1719 C 0.07686 0.31429 0.53889 0.0
C1720 C 0.05003 0.30481 0.5245 0.0
C1721 C 0.97215 0.2742 0.48244 0.0
C1722 C 0.99874 0.28526 0.49716 0.0
H1723 H 0.10014 0.27809 0.57254 0.0
H1724 H 0.06246 0.26373 0.54589 0.0
H1725 H 0.0805 0.34218 0.50408 0.0
H1726 H 0.94838 0.30572 0.44634 0.0
H1727 H 0.98588 0.32366 0.4733 0.0
C1728 C 0.6788 0.16769 0.10379 0.0
C1729 C 0.68106 0.13917 0.1069 0.0
C1730 C 0.64943 0.16787 0.10791 0.0
C1731 C 0.55979 0.11026 0.11088 0.0
H1732 H 0.55536 0.18391 0.13292 0.0
C1733 C 0.45009 0.13276 0.10045 0.0
C1734 C 0.43823 0.14212 0.11612 0.0
C1735 C 0.47797 0.12919 0.10199 0.0
C1736 C 0.55617 0.16299 0.12694 0.0
H1737 H 0.65487 0.08947 0.11831 0.0
H1738 H 0.60387 0.08967 0.1251 0.0
H1739 H 0.6088 0.1859 0.13087 0.0
H1740 H 0.4466 0.15573 0.14568 0.0
H1741 H 0.49602 0.14999 0.14838 0.0
H1742 H 0.50746 0.08782 0.10638 0.0
C1743 C 0.62453 0.11168 0.11916 0.0
C1744 C 0.58682 0.16428 0.12559 0.0
C1745 C 0.65383 0.11159 0.11521 0.0
C1746 C 0.45469 0.14762 0.13351 0.0
C1747 C 0.48316 0.14472 0.13498 0.0
C1748 C 0.52934 0.10921 0.11196 0.0
C1749 C 0.62161 0.1395 0.11515 0.0
C1750 C 0.58904 0.13799 0.11743 0.0
C1751 C 0.49537 0.13592 0.11913 0.0
C1752 C 0.52717 0.13566 0.11985 0.0
H1753 H 0.69914 0.18933 0.09735 0.0
H1754 H 0.648 0.18971 0.10461 0.0
H1755 H 0.56059 0.08969 0.10437 0.0
H1756 H 0.43822 0.12904 0.0868 0.0
H1757 H 0.48687 0.1227 0.08949 0.0
C1758 C 0.74889 0.60766 0.381 0.0
C1759 C 0.76034 0.62161 0.39897 0.0
C1760 C 0.71794 0.57876 0.37892 0.0
C1761 C 0.63746 0.52776 0.4026 0.0
H1762 H 0.63215 0.45409 0.37431 0.0
C1763 C 0.5131 0.40769 0.39267 0.0
C1764 C 0.51243 0.378 0.39699 0.0
C1765 C 0.54308 0.43719 0.39036 0.0
C1766 C 0.63325 0.47443 0.38226 0.0
H1767 H 0.74873 0.61619 0.42877 0.0
H1768 H 0.69453 0.56649 0.42514 0.0
H1769 H 0.68432 0.50713 0.37517 0.0
H1770 H 0.54306 0.35587 0.40102 0.0
H1771 H 0.59578 0.40762 0.39673 0.0
H1772 H 0.58674 0.49528 0.40991 0.0
C1773 C 0.70918 0.57785 0.41263 0.0
C1774 C 0.66302 0.5049 0.3826 0.0
C1775 C 0.74021 0.6063 0.41472 0.0
C1776 C 0.54266 0.37823 0.39766 0.0
C1777 C 0.57286 0.40792 0.39525 0.0
C1778 C 0.60768 0.49755 0.40206 0.0
C1779 C 0.69782 0.56339 0.39475 0.0
C1780 C 0.66558 0.53182 0.39298 0.0
C1781 C 0.57342 0.43797 0.39216 0.0
C1782 C 0.60518 0.47035 0.39202 0.0
H1783 H 0.76423 0.61835 0.36865 0.0
H1784 H 0.70985 0.5683 0.36495 0.0
H1785 H 0.63853 0.548 0.41066 0.0
H1786 H 0.49029 0.40833 0.39164 0.0
H1787 H 0.5425 0.45964 0.38754 0.0
C1788 C 0.89892 0.30779 0.14219 0.0
C1789 C 0.89568 0.28967 0.12571 0.0
C1790 C 0.90216 0.33923 0.14117 0.0
C1791 C 0.88094 0.38909 0.10954 0.0
H1792 H 0.93645 0.46099 0.14346 0.0
C1793 C 0.87384 0.5095 0.11204 0.0
C1794 C 0.90422 0.53934 0.11284 0.0
C1795 C 0.87244 0.47911 0.11502 0.0
C1796 C 0.92087 0.44125 0.1338 0.0
H1797 H 0.89188 0.28943 0.09529 0.0
H1798 H 0.89825 0.34457 0.09333 0.0
H1799 H 0.93739 0.40933 0.14489 0.0
H1800 H 0.95663 0.56057 0.11854 0.0
H1801 H 0.9543 0.50802 0.12351 0.0
H1802 H 0.86494 0.42114 0.09816 0.0
C1803 C 0.89862 0.3348 0.1071 0.0
C1804 C 0.92121 0.41144 0.13474 0.0
C1805 C 0.89552 0.30344 0.10817 0.0
C1806 C 0.93284 0.53807 0.11758 0.0
C1807 C 0.93145 0.50783 0.12061 0.0
C1808 C 0.88056 0.41884 0.10862 0.0
C1809 C 0.9013 0.3529 0.12361 0.0
C1810 C 0.90137 0.38495 0.12256 0.0
C1811 C 0.90136 0.47781 0.11901 0.0
C1812 C 0.90061 0.44546 0.12068 0.0
H1813 H 0.89792 0.29715 0.15592 0.0
H1814 H 0.90372 0.3521 0.1542 0.0
H1815 H 0.86488 0.36916 0.10012 0.0
H1816 H 0.85135 0.50951 0.10836 0.0
H1817 H 0.84871 0.45659 0.11396 0.0
C1818 C 0.44188 0.13668 0.41163 0.0
C1819 C 0.43615 0.15423 0.39754 0.0
C1820 C 0.47085 0.13467 0.41155 0.0
C1821 C 0.55778 0.18118 0.39482 0.0
H1822 H 0.56019 0.10391 0.41206 0.0
C1823 C 0.67969 0.18525 0.41823 0.0
C1824 C 0.6825 0.15711 0.41489 0.0
C1825 C 0.65014 0.18502 0.41399 0.0
C1826 C 0.56009 0.12568 0.40701 0.0
H1827 H 0.45666 0.18447 0.37269 0.0
H1828 H 0.50708 0.1806 0.37223 0.0
H1829 H 0.50711 0.10115 0.40791 0.0
H1830 H 0.65721 0.10755 0.40321 0.0
H1831 H 0.60628 0.1073 0.39557 0.0
H1832 H 0.6108 0.20564 0.39382 0.0
C1833 C 0.48908 0.16799 0.38328 0.0
C1834 C 0.52952 0.12417 0.40483 0.0
C1835 C 0.45998 0.1698 0.38333 0.0
C1836 C 0.65572 0.12946 0.40629 0.0
C1837 C 0.62635 0.12925 0.402 0.0
C1838 C 0.5884 0.1827 0.39703 0.0
C1839 C 0.4953 0.15099 0.39763 0.0
C1840 C 0.52786 0.15195 0.39883 0.0
C1841 C 0.62272 0.15668 0.40622 0.0
C1842 C 0.59007 0.15502 0.40326 0.0
H1843 H 0.42446 0.1255 0.42312 0.0
H1844 H 0.47481 0.12175 0.423 0.0
H1845 H 0.55766 0.20325 0.3904 0.0
H1846 H 0.69973 0.20686 0.42495 0.0
H1847 H 0.64835 0.20659 0.41755 0.0
C1848 C 0.51211 0.39643 0.11354 0.0
C1849 C 0.51304 0.36713 0.11063 0.0
C1850 C 0.54118 0.42652 0.11667 0.0
C1851 C 0.63072 0.46589 0.1287 0.0
H1852 H 0.63713 0.53831 0.09889 0.0
C1853 C 0.74642 0.59874 0.13047 0.0
C1854 C 0.75818 0.61271 0.11259 0.0
C1855 C 0.71541 0.56991 0.13231 0.0
C1856 C 0.63576 0.51839 0.10734 0.0
H1857 H 0.5453 0.34635 0.10983 0.0
H1858 H 0.59632 0.39908 0.11536 0.0
H1859 H 0.58587 0.48526 0.09878 0.0
H1860 H 0.7472 0.60738 0.0827 0.0
H1861 H 0.69306 0.55763 0.08587 0.0
H1862 H 0.68113 0.49912 0.13684 0.0
C1863 C 0.57293 0.39868 0.11524 0.0
C1864 C 0.60622 0.48798 0.10742 0.0
C1865 C 0.54369 0.36841 0.1121 0.0
C1866 C 0.7384 0.59745 0.09667 0.0
C1867 C 0.70738 0.56899 0.09851 0.0
C1868 C 0.66029 0.49651 0.12873 0.0
C1869 C 0.57213 0.4283 0.11702 0.0
C1870 C 0.60333 0.46115 0.11793 0.0
C1871 C 0.69559 0.55457 0.11631 0.0
C1872 C 0.66332 0.52299 0.11781 0.0
H1873 H 0.48885 0.39624 0.11287 0.0
H1874 H 0.53945 0.44861 0.11845 0.0
H1875 H 0.62933 0.4459 0.13707 0.0
H1876 H 0.76152 0.60947 0.14293 0.0
H1877 H 0.70701 0.55951 0.14623 0.0
C1878 C 0.87643 0.515 0.4043 0.0
C1879 C 0.90422 0.5445 0.39833 0.0
C1880 C 0.87535 0.48462 0.40208 0.0
C1881 C 0.9117 0.44224 0.37545 0.0
H1882 H 0.88654 0.38444 0.41895 0.0
C1883 C 0.88129 0.3058 0.37245 0.0
C1884 C 0.89299 0.2942 0.38711 0.0
C1885 C 0.88609 0.33781 0.37295 0.0
C1886 C 0.89389 0.40044 0.40673 0.0
H1887 H 0.95198 0.56517 0.38464 0.0
H1888 H 0.94978 0.51225 0.38034 0.0
H1889 H 0.88565 0.43623 0.42098 0.0
H1890 H 0.91872 0.30712 0.41395 0.0
H1891 H 0.92703 0.36315 0.41492 0.0
H1892 H 0.91955 0.40622 0.36114 0.0
C1893 C 0.92892 0.51248 0.38687 0.0
C1894 C 0.89297 0.42991 0.40781 0.0
C1895 C 0.93021 0.54281 0.38935 0.0
C1896 C 0.91014 0.31555 0.40221 0.0
C1897 C 0.91451 0.34751 0.40287 0.0
C1898 C 0.91215 0.41254 0.37429 0.0
C1899 C 0.90181 0.48306 0.39355 0.0
C1900 C 0.90186 0.4512 0.39219 0.0
C1901 C 0.90197 0.35878 0.38841 0.0
C1902 C 0.90328 0.39127 0.38991 0.0
H1903 H 0.8562 0.5156 0.41141 0.0
H1904 H 0.85397 0.46235 0.40722 0.0
H1905 H 0.91863 0.45802 0.36315 0.0
H1906 H 0.86752 0.28964 0.3608 0.0
H1907 H 0.87588 0.34556 0.36166 0.0
C1908 C 0.12306 0.63629 0.62052 0.0
C1909 C 0.15154 0.66605 0.61544 0.0
C1910 C 0.12452 0.60753 0.62365 0.0
C1911 C 0.17434 0.569 0.611 0.0
H1912 H 0.11949 0.5038 0.6483 0.0
C1913 C 0.15742 0.43801 0.61037 0.0
C1914 C 0.15888 0.42477 0.62785 0.0
C1915 C 0.15453 0.46637 0.60952 0.0
C1916 C 0.13509 0.52178 0.63786 0.0
H1917 H 0.20426 0.68912 0.61047 0.0
H1918 H 0.20701 0.63889 0.6162 0.0
H1919 H 0.12085 0.55663 0.64694 0.0
H1920 H 0.15957 0.43115 0.65811 0.0
H1921 H 0.15408 0.4805 0.65676 0.0
H1922 H 0.18895 0.53441 0.60208 0.0
C1923 C 0.18335 0.63774 0.61747 0.0
C1924 C 0.13569 0.55204 0.63698 0.0
C1925 C 0.18189 0.66666 0.61441 0.0
C1926 C 0.15733 0.44031 0.64448 0.0
C1927 C 0.15428 0.46861 0.64366 0.0
C1928 C 0.17367 0.53875 0.61185 0.0
C1929 C 0.15453 0.60761 0.6218 0.0
C1930 C 0.15523 0.57605 0.62348 0.0
C1931 C 0.15363 0.48251 0.62615 0.0
C1932 C 0.15392 0.51462 0.62522 0.0
H1933 H 0.09932 0.63502 0.62164 0.0
H1934 H 0.10176 0.58491 0.62681 0.0
H1935 H 0.18937 0.58661 0.60026 0.0
H1936 H 0.15968 0.42705 0.59736 0.0
H1937 H 0.1537 0.47607 0.59579 0.0
C1938 C 0.31312 0.87968 0.86952 0.0
C1939 C 0.29825 0.88602 0.88497 0.0
C1940 C 0.34482 0.88371 0.87107 0.0
C1941 C 0.4008 0.88004 0.90615 0.0
H1942 H 0.46599 0.91725 0.86614 0.0
C1943 C 0.51722 0.8651 0.90443 0.0
C1944 C 0.54738 0.89388 0.90043 0.0
C1945 C 0.48699 0.86435 0.90184 0.0
C1946 C 0.44812 0.90683 0.87748 0.0
H1947 H 0.30455 0.90083 0.91434 0.0
H1948 H 0.36015 0.90786 0.91716 0.0
H1949 H 0.41455 0.91872 0.86367 0.0
H1950 H 0.56931 0.94385 0.88975 0.0
H1951 H 0.5169 0.94244 0.88503 0.0
H1952 H 0.43434 0.86811 0.91996 0.0
C1953 C 0.34743 0.9002 0.90372 0.0
C1954 C 0.41853 0.90754 0.87601 0.0
C1955 C 0.31579 0.89659 0.90207 0.0
C1956 C 0.54651 0.92132 0.89302 0.0
C1957 C 0.51641 0.92046 0.89024 0.0
C1958 C 0.43026 0.87903 0.90753 0.0
C1959 C 0.36213 0.8933 0.8883 0.0
C1960 C 0.39444 0.89414 0.89032 0.0
C1961 C 0.48622 0.89221 0.89496 0.0
C1962 C 0.45435 0.8924 0.89322 0.0
H1963 H 0.29978 0.87078 0.85631 0.0
H1964 H 0.35512 0.87782 0.85897 0.0
H1965 H 0.38267 0.86914 0.91734 0.0
H1966 H 0.51706 0.84366 0.91029 0.0
H1967 H 0.46421 0.84203 0.90541 0.0
C1968 C 0.60306 0.71668 0.59717 0.0
C1969 C 0.61636 0.73618 0.61343 0.0
C1970 C 0.5748 0.68534 0.59821 0.0
C1971 C 0.49804 0.63848 0.62421 0.0
H1972 H 0.49216 0.56264 0.59822 0.0
C1973 C 0.37381 0.52088 0.60154 0.0
C1974 C 0.37201 0.49009 0.60365 0.0
C1975 C 0.4034 0.5505 0.60543 0.0
C1976 C 0.49336 0.58348 0.60567 0.0
H1977 H 0.61005 0.73846 0.64358 0.0
H1978 H 0.55993 0.68352 0.64541 0.0
H1979 H 0.54535 0.61399 0.60023 0.0
H1980 H 0.39948 0.46664 0.61308 0.0
H1981 H 0.4508 0.5179 0.61938 0.0
H1982 H 0.44571 0.60816 0.6291 0.0
C1983 C 0.57195 0.69238 0.63189 0.0
C1984 C 0.52385 0.61294 0.60675 0.0
C1985 C 0.60081 0.72362 0.63089 0.0
C1986 C 0.40006 0.48979 0.61073 0.0
C1987 C 0.42958 0.51924 0.61441 0.0
C1988 C 0.46732 0.60909 0.62284 0.0
C1989 C 0.55844 0.67304 0.61549 0.0
C1990 C 0.52657 0.64089 0.61593 0.0
C1991 C 0.43194 0.55002 0.61141 0.0
C1992 C 0.46457 0.58123 0.61348 0.0
H1993 H 0.61423 0.72605 0.58349 0.0
H1994 H 0.56492 0.67126 0.58531 0.0
H1995 H 0.49926 0.65969 0.63121 0.0
H1996 H 0.35286 0.5222 0.59607 0.0
H1997 H 0.40438 0.5738 0.60294 0.0
C1998 C 0.12716 0.64179 0.90581 0.0
C1999 C 0.15721 0.66986 0.91112 0.0
C2000 C 0.12561 0.61176 0.90178 0.0
C2001 C 0.17514 0.57189 0.89044 0.0
H2002 H 0.10357 0.49624 0.91566 0.0
C2003 C 0.15562 0.43877 0.8842 0.0
C2004 C 0.15252 0.42356 0.90176 0.0
C2005 C 0.15319 0.46747 0.88294 0.0
C2006 C 0.12359 0.51706 0.90843 0.0
H2007 H 0.20962 0.68858 0.91524 0.0
H2008 H 0.207 0.63604 0.90798 0.0
H2009 H 0.10693 0.5499 0.91757 0.0
H2010 H 0.1443 0.42607 0.93161 0.0
H2011 H 0.13912 0.47534 0.92941 0.0
H2012 H 0.19211 0.5389 0.88167 0.0
C2013 C 0.18457 0.63739 0.90701 0.0
C2014 C 0.12543 0.54783 0.90942 0.0
C2015 C 0.1861 0.66755 0.91114 0.0
C2016 C 0.14617 0.43701 0.91787 0.0
C2017 C 0.14321 0.46522 0.91659 0.0
C2018 C 0.17307 0.54092 0.88927 0.0
C2019 C 0.1541 0.60887 0.90279 0.0
C2020 C 0.15146 0.5758 0.90066 0.0
C2021 C 0.1474 0.48127 0.8992 0.0
C2022 C 0.14756 0.51325 0.89853 0.0
H2023 H 0.10452 0.64281 0.90521 0.0
H2024 H 0.10188 0.59057 0.89817 0.0
H2025 H 0.19535 0.59282 0.88341 0.0
H2026 H 0.16134 0.42939 0.87163 0.0
H2027 H 0.1564 0.47919 0.86934 0.0
C2028 C 0.30319 0.87147 0.63248 0.0
C2029 C 0.29745 0.88746 0.61746 0.0
C2030 C 0.33381 0.87298 0.63438 0.0
C2031 C 0.42111 0.91699 0.61683 0.0
H2032 H 0.41938 0.83634 0.6315 0.0
C2033 C 0.54214 0.91304 0.62262 0.0
C2034 C 0.54209 0.88491 0.6155 0.0
C2035 C 0.51251 0.91311 0.62534 0.0
C2036 C 0.42037 0.85904 0.62728 0.0
H2037 H 0.31836 0.91613 0.59214 0.0
H2038 H 0.37188 0.9191 0.59536 0.0
H2039 H 0.36818 0.83826 0.63126 0.0
H2040 H 0.5107 0.83434 0.60634 0.0
H2041 H 0.45875 0.83443 0.61082 0.0
H2042 H 0.47294 0.93739 0.61207 0.0
C2043 C 0.35333 0.9063 0.60612 0.0
C2044 C 0.39098 0.86031 0.62739 0.0
C2045 C 0.32269 0.90468 0.60424 0.0
C2046 C 0.51152 0.85627 0.612 0.0
C2047 C 0.48174 0.85641 0.61457 0.0
C2048 C 0.45043 0.9157 0.61666 0.0
C2049 C 0.35917 0.88997 0.62104 0.0
C2050 C 0.39085 0.88923 0.62202 0.0
C2051 C 0.48186 0.88514 0.62084 0.0
C2052 C 0.45054 0.88665 0.62178 0.0
H2053 H 0.28362 0.85702 0.64247 0.0
H2054 H 0.33738 0.86036 0.64613 0.0
H2055 H 0.42217 0.93982 0.61281 0.0
H2056 H 0.56531 0.93539 0.62564 0.0
H2057 H 0.51373 0.93541 0.63068 0.0
C2058 C 0.60536 0.7336 0.88525 0.0
C2059 C 0.61879 0.74665 0.9031 0.0
C2060 C 0.57601 0.70296 0.88368 0.0
C2061 C 0.50091 0.64823 0.91127 0.0
H2062 H 0.48657 0.58147 0.87401 0.0
C2063 C 0.37381 0.52885 0.90439 0.0
C2064 C 0.37471 0.49931 0.90318 0.0
C2065 C 0.40274 0.5595 0.90186 0.0
C2066 C 0.49017 0.59986 0.88452 0.0
H2067 H 0.61218 0.73815 0.93319 0.0
H2068 H 0.56137 0.68479 0.93053 0.0
H2069 H 0.53977 0.63314 0.87514 0.0
H2070 H 0.40633 0.47884 0.8971 0.0
H2071 H 0.45658 0.532 0.8929 0.0
H2072 H 0.45187 0.61491 0.92101 0.0
C2073 C 0.57326 0.69805 0.91772 0.0
C2074 C 0.5206 0.62959 0.88506 0.0
C2075 C 0.60251 0.72847 0.91926 0.0
C2076 C 0.40483 0.50113 0.89837 0.0
C2077 C 0.43365 0.53168 0.89578 0.0
C2078 C 0.47054 0.61867 0.91068 0.0
C2079 C 0.55922 0.68514 0.89994 0.0
C2080 C 0.52651 0.65397 0.89863 0.0
C2081 C 0.43323 0.56135 0.89795 0.0
C2082 C 0.4648 0.59388 0.89744 0.0
H2083 H 0.61684 0.74748 0.87257 0.0
H2084 H 0.5658 0.69388 0.86977 0.0
H2085 H 0.50436 0.66665 0.92172 0.0
H2086 H 0.35109 0.52838 0.90812 0.0
H2087 H 0.40134 0.58181 0.90335 0.0
loop_
_geom_bond_atom_site_label_1
_geom_bond_atom_site_label_2
_geom_bond_distance
_geom_bond_site_symmetry_2
_ccdc_geom_bond_type
Tb0 N31 2.660 . S
Tb0 N38 2.600 . S
Tb0 O44 2.546 . S
Tb0 O45 2.610 . S
Tb0 O47 2.320 . S
Tb0 O48 2.552 . S
Tb0 O49 2.413 . S
Tb0 O51 2.362 . S
Tb0 O52 2.421 . S
Tb0 C64 2.833 . S
C1 C4 1.432 . S
C1 C5 1.414 . S
C1 N8 1.359 . S
C2 C4 1.417 . S
C2 C6 1.432 . S
C2 C14 1.410 . S
C3 C5 1.444 . S
C3 C6 1.317 . S
C3 H26 0.929 . S
C4 C1 1.432 . S
C4 C2 1.417 . S
C4 N12 1.360 . S
C5 C1 1.414 . S
C5 C3 1.444 . S
C5 C10 1.385 . S
C6 C2 1.432 . S
C6 C3 1.317 . S
C6 H18 0.930 . S
C7 C9 1.392 . S
C7 C10 1.370 . S
C7 H19 0.931 . S
N8 C1 1.359 . S
N8 C9 1.327 . S
N8 Tb11 2.600 . S
C9 C7 1.392 . S
C9 N8 1.327 . S
C9 H16 0.930 . S
C10 C5 1.385 . S
C10 C7 1.370 . S
C10 H29 0.930 . S
Tb11 N8 2.600 . S
Tb11 N12 2.660 . S
Tb11 O45 2.362 . S
Tb11 O46 2.421 . S
Tb11 O50 2.546 . S
Tb11 O51 2.610 . S
Tb11 O53 2.320 . S
Tb11 O54 2.552 . S
Tb11 O55 2.413 . S
Tb11 C75 2.833 . S
N12 C4 1.360 . S
N12 Tb11 2.660 . S
N12 C13 1.305 . S
C13 N12 1.305 . S
C13 C15 1.407 . S
C13 H20 0.930 . S
C14 C2 1.410 . S
C14 C15 1.345 . S
C14 H22 0.930 . S
C15 C13 1.407 . S
C15 C14 1.345 . S
C15 H17 0.930 . S
H16 C9 0.930 . S
H17 C15 0.930 . S
H18 C6 0.930 . S
H19 C7 0.931 . S
H20 C13 0.930 . S
H21 C35 0.930 . S
H22 C14 0.930 . S
H23 C41 0.930 . S
H24 C32 0.930 . S
H25 C39 0.931 . S
H26 C3 0.929 . S
H27 C33 0.930 . S
H28 C66 0.930 . S
H29 C10 0.930 . S
H30 C65 0.929 . S
N31 Tb0 2.660 . S
N31 C32 1.305 . S
N31 C36 1.360 . S
C32 H24 0.930 . S
C32 N31 1.305 . S
C32 C35 1.407 . S
C33 H27 0.930 . S
C33 C34 1.410 . S
C33 C35 1.345 . S
C34 C33 1.410 . S
C34 C36 1.417 . S
C34 C66 1.432 . S
C35 H21 0.930 . S
C35 C32 1.407 . S
C35 C33 1.345 . S
C36 N31 1.360 . S
C36 C34 1.417 . S
C36 C40 1.432 . S
H37 C42 0.930 . S
N38 Tb0 2.600 . S
N38 C40 1.359 . S
N38 C41 1.327 . S
C39 H25 0.931 . S
C39 C41 1.392 . S
C39 C42 1.370 . S
C40 C36 1.432 . S
C40 N38 1.359 . S
C40 C43 1.414 . S
C41 H23 0.930 . S
C41 N38 1.327 . S
C41 C39 1.392 . S
C42 H37 0.930 . S
C42 C39 1.370 . S
C42 C43 1.385 . S
C43 C40 1.414 . S
C43 C42 1.385 . S
C43 C65 1.444 . S
O44 Tb0 2.546 . S
O44 C64 1.251 . S
O45 Tb0 2.610 . S
O45 Tb11 2.362 . S
O45 C56 1.283 . S
O46 Tb11 2.421 . S
O46 C63 1.262 . S
O47 Tb0 2.320 . S
O47 C63 1.260 . S
O48 Tb0 2.552 . S
O48 C56 1.243 . S
O49 Tb0 2.413 . S
O49 C64 1.256 . S
O50 Tb11 2.546 . S
O50 C75 1.251 . S
O51 Tb0 2.362 . S
O51 Tb11 2.610 . S
O51 C67 1.283 . S
O52 Tb0 2.421 . S
O52 C74 1.262 . S
O53 Tb11 2.320 . S
O53 C74 1.260 . S
O54 Tb11 2.552 . S
O54 C67 1.243 . S
O55 Tb11 2.413 . S
O55 C75 1.256 . S
C56 O45 1.283 . S
C56 O48 1.243 . S
C57 C59 1.382 . S
C57 C61 1.393 . S
C57 C64 1.500 . S
C58 C59 1.400 . S
C58 C60 1.384 . S
C59 C57 1.382 . S
C59 C58 1.400 . S
C59 H76 0.930 . S
C60 C58 1.384 . S
C60 C62 1.392 . S
C60 H77 0.931 . S
C61 C57 1.393 . S
C61 C62 1.401 . S
C61 H78 0.930 . S
C62 C60 1.392 . S
C62 C61 1.401 . S
C62 H79 0.930 . S
C63 O46 1.262 . S
C63 O47 1.260 . S
C64 Tb0 2.833 . S
C64 O44 1.251 . S
C64 O49 1.256 . S
C64 C57 1.500 . S
C65 H30 0.929 . S
C65 C43 1.444 . S
C65 C66 1.317 . S
C66 H28 0.930 . S
C66 C34 1.432 . S
C66 C65 1.317 . S
C67 O51 1.283 . S
C67 O54 1.243 . S
C68 C69 1.382 . S
C68 C72 1.393 . S
C68 C75 1.500 . S
C69 C68 1.382 . S
C69 C70 1.400 1_545 S
C69 H80 0.930 . S
C70 C69 1.400 1_565 S
C70 C71 1.384 . S
C71 C70 1.384 . S
C71 C73 1.392 . S
C71 H81 0.931 . S
C72 C68 1.393 . S
C72 C73 1.401 1_545 S
C72 H82 0.930 . S
C73 C71 1.392 . S
C73 C72 1.401 1_565 S
C73 H83 0.930 . S
C74 O52 1.262 . S
C74 O53 1.260 . S
C75 Tb11 2.833 . S
C75 O50 1.251 . S
C75 O55 1.256 . S
C75 C68 1.500 . S
H76 C59 0.930 . S
H77 C60 0.931 . S
H78 C61 0.930 . S
H79 C62 0.930 . S
H80 C69 0.930 . S
H81 C71 0.931 . S
H82 C72 0.930 . S
H83 C73 0.930 . S
Tb84 N115 2.660 . S
Tb84 N122 2.600 . S
Tb84 O128 2.546 . S
Tb84 O129 2.610 . S
Tb84 O131 2.320 . S
Tb84 O132 2.552 . S
Tb84 O133 2.413 . S
Tb84 O135 2.362 . S
Tb84 O136 2.421 . S
Tb84 C148 2.833 . S
C85 C88 1.432 . S
C85 C89 1.414 . S
C85 N92 1.359 . S
C86 C88 1.417 . S
C86 C90 1.432 . S
C86 C98 1.410 . S
C87 C89 1.444 . S
C87 C90 1.317 . S
C87 H110 0.929 . S
C88 C85 1.432 . S
C88 C86 1.417 . S
C88 N96 1.360 . S
C89 C85 1.414 . S
C89 C87 1.444 . S
C89 C94 1.385 . S
C90 C86 1.432 . S
C90 C87 1.317 . S
C90 H102 0.930 1_655 S
C91 C93 1.392 . S
C91 C94 1.370 . S
C91 H103 0.931 . S
N92 C85 1.359 . S
N92 C93 1.327 . S
N92 Tb95 2.600 . S
C93 C91 1.392 . S
C93 N92 1.327 . S
C93 H100 0.930 . S
C94 C89 1.385 . S
C94 C91 1.370 . S
C94 H113 0.930 . S
Tb95 N92 2.600 . S
Tb95 N96 2.660 . S
Tb95 O129 2.362 . S
Tb95 O130 2.421 . S
Tb95 O134 2.546 . S
Tb95 O135 2.610 . S
Tb95 O137 2.320 . S
Tb95 O138 2.552 . S
Tb95 O139 2.413 . S
Tb95 C159 2.833 . S
N96 C88 1.360 . S
N96 Tb95 2.660 . S
N96 C97 1.305 . S
C97 N96 1.305 . S
C97 C99 1.407 . S
C97 H104 0.930 . S
C98 C86 1.410 . S
C98 C99 1.345 . S
C98 H106 0.930 . S
C99 C97 1.407 . S
C99 C98 1.345 . S
C99 H101 0.930 . S
H100 C93 0.930 . S
H101 C99 0.930 . S
H102 C90 0.930 1_455 S
H103 C91 0.931 . S
H104 C97 0.930 . S
H105 C119 0.930 . S
H106 C98 0.930 . S
H107 C125 0.930 . S
H108 C116 0.930 . S
H109 C123 0.931 . S
H110 C87 0.929 . S
H111 C117 0.930 . S
H112 C150 0.930 . S
H113 C94 0.930 . S
H114 C149 0.929 . S
N115 Tb84 2.660 . S
N115 C116 1.305 . S
N115 C120 1.360 . S
C116 H108 0.930 . S
C116 N115 1.305 . S
C116 C119 1.407 . S
C117 H111 0.930 . S
C117 C118 1.410 . S
C117 C119 1.345 . S
C118 C117 1.410 . S
C118 C120 1.417 . S
C118 C150 1.432 . S
C119 H105 0.930 . S
C119 C116 1.407 . S
C119 C117 1.345 . S
C120 N115 1.360 . S
C120 C118 1.417 . S
C120 C124 1.432 . S
H121 C126 0.930 . S
N122 Tb84 2.600 . S
N122 C124 1.359 . S
N122 C125 1.327 . S
C123 H109 0.931 . S
C123 C125 1.392 . S
C123 C126 1.370 . S
C124 C120 1.432 . S
C124 N122 1.359 . S
C124 C127 1.414 . S
C125 H107 0.930 . S
C125 N122 1.327 . S
C125 C123 1.392 . S
C126 H121 0.930 . S
C126 C123 1.370 . S
C126 C127 1.385 . S
C127 C124 1.414 . S
C127 C126 1.385 . S
C127 C149 1.444 . S
O128 Tb84 2.546 . S
O128 C148 1.251 . S
O129 Tb84 2.610 . S
O129 Tb95 2.362 . S
O129 C140 1.283 . S
O130 Tb95 2.421 . S
O130 C147 1.262 . S
O131 Tb84 2.320 . S
O131 C147 1.260 . S
O132 Tb84 2.552 . S
O132 C140 1.243 . S
O133 Tb84 2.413 . S
O133 C148 1.256 . S
O134 Tb95 2.546 . S
O134 C159 1.251 . S
O135 Tb84 2.362 . S
O135 Tb95 2.610 . S
O135 C151 1.283 . S
O136 Tb84 2.421 . S
O136 C158 1.262 . S
O137 Tb95 2.320 . S
O137 C158 1.260 . S
O138 Tb95 2.552 . S
O138 C151 1.243 . S
O139 Tb95 2.413 . S
O139 C159 1.256 . S
C140 O129 1.283 . S
C140 O132 1.243 . S
C141 C143 1.382 . S
C141 C145 1.393 . S
C141 C148 1.500 . S
C142 C143 1.400 . S
C142 C144 1.384 . S
C143 C141 1.382 . S
C143 C142 1.400 . S
C143 H160 0.930 . S
C144 C142 1.384 . S
C144 C146 1.392 . S
C144 H161 0.931 . S
C145 C141 1.393 . S
C145 C146 1.401 . S
C145 H162 0.930 . S
C146 C144 1.392 . S
C146 C145 1.401 . S
C146 H163 0.930 . S
C147 O130 1.262 . S
C147 O131 1.260 . S
C148 Tb84 2.833 . S
C148 O128 1.251 . S
C148 O133 1.256 . S
C148 C141 1.500 . S
C149 H114 0.929 . S
C149 C127 1.444 . S
C149 C150 1.317 . S
C150 H112 0.930 . S
C150 C118 1.432 . S
C150 C149 1.317 . S
C151 O135 1.283 . S
C151 O138 1.243 . S
C152 C153 1.382 . S
C152 C156 1.393 . S
C152 C159 1.500 . S
C153 C152 1.382 . S
C153 C154 1.400 . S
C153 H164 0.930 . S
C154 C153 1.400 . S
C154 C155 1.384 . S
C155 C154 1.384 . S
C155 C157 1.392 . S
C155 H165 0.931 . S
C156 C152 1.393 . S
C156 C157 1.401 . S
C156 H166 0.930 . S
C157 C155 1.392 . S
C157 C156 1.401 . S
C157 H167 0.930 . S
C158 O136 1.262 . S
C158 O137 1.260 . S
C159 Tb95 2.833 . S
C159 O134 1.251 . S
C159 O139 1.256 . S
C159 C152 1.500 . S
H160 C143 0.930 . S
H161 C144 0.931 . S
H162 C145 0.930 . S
H163 C146 0.930 . S
H164 C153 0.930 . S
H165 C155 0.931 . S
H166 C156 0.930 . S
H167 C157 0.930 . S
Tb168 N199 2.660 . S
Tb168 N206 2.600 . S
Tb168 O212 2.546 . S
Tb168 O213 2.610 . S
Tb168 O215 2.320 . S
Tb168 O216 2.552 . S
Tb168 O217 2.413 . S
Tb168 O219 2.362 . S
Tb168 O220 2.421 . S
Tb168 C232 2.833 . S
C169 C172 1.432 . S
C169 C173 1.414 . S
C169 N176 1.359 . S
C170 C172 1.417 . S
C170 C174 1.432 . S
C170 C182 1.410 . S
C171 C173 1.444 . S
C171 C174 1.317 . S
C171 H194 0.929 . S
C172 C169 1.432 . S
C172 C170 1.417 . S
C172 N180 1.360 . S
C173 C169 1.414 . S
C173 C171 1.444 . S
C173 C178 1.385 . S
C174 C170 1.432 . S
C174 C171 1.317 . S
C174 H186 0.930 . S
C175 C177 1.392 . S
C175 C178 1.370 . S
C175 H187 0.931 . S
N176 C169 1.359 . S
N176 C177 1.327 . S
N176 Tb179 2.600 . S
C177 C175 1.392 . S
C177 N176 1.327 . S
C177 H184 0.930 . S
C178 C173 1.385 . S
C178 C175 1.370 . S
C178 H197 0.930 . S
Tb179 N176 2.600 . S
Tb179 N180 2.660 . S
Tb179 O213 2.362 . S
Tb179 O214 2.421 . S
Tb179 O218 2.546 . S
Tb179 O219 2.610 . S
Tb179 O221 2.320 . S
Tb179 O222 2.552 . S
Tb179 O223 2.413 . S
Tb179 C243 2.833 . S
N180 C172 1.360 . S
N180 Tb179 2.660 . S
N180 C181 1.305 . S
C181 N180 1.305 . S
C181 C183 1.407 . S
C181 H188 0.930 . S
C182 C170 1.410 . S
C182 C183 1.345 . S
C182 H190 0.930 . S
C183 C181 1.407 . S
C183 C182 1.345 . S
C183 H185 0.930 . S
H184 C177 0.930 . S
H185 C183 0.930 . S
H186 C174 0.930 . S
H187 C175 0.931 . S
H188 C181 0.930 . S
H189 C203 0.930 . S
H190 C182 0.930 . S
H191 C209 0.930 . S
H192 C200 0.930 . S
H193 C207 0.931 . S
H194 C171 0.929 . S
H195 C201 0.930 . S
H196 C234 0.930 1_565 S
H197 C178 0.930 . S
H198 C233 0.929 . S
N199 Tb168 2.660 . S
N199 C200 1.305 . S
N199 C204 1.360 . S
C200 H192 0.930 . S
C200 N199 1.305 . S
C200 C203 1.407 . S
C201 H195 0.930 . S
C201 C202 1.410 . S
C201 C203 1.345 . S
C202 C201 1.410 . S
C202 C204 1.417 . S
C202 C234 1.432 . S
C203 H189 0.930 . S
C203 C200 1.407 . S
C203 C201 1.345 . S
C204 N199 1.360 . S
C204 C202 1.417 . S
C204 C208 1.432 . S
H205 C210 0.930 . S
N206 Tb168 2.600 . S
N206 C208 1.359 . S
N206 C209 1.327 . S
C207 H193 0.931 . S
C207 C209 1.392 . S
C207 C210 1.370 . S
C208 C204 1.432 . S
C208 N206 1.359 . S
C208 C211 1.414 . S
C209 H191 0.930 . S
C209 N206 1.327 . S
C209 C207 1.392 . S
C210 H205 0.930 . S
C210 C207 1.370 . S
C210 C211 1.385 . S
C211 C208 1.414 . S
C211 C210 1.385 . S
C211 C233 1.444 . S
O212 Tb168 2.546 . S
O212 C232 1.251 . S
O213 Tb168 2.610 . S
O213 Tb179 2.362 . S
O213 C224 1.283 . S
O214 Tb179 2.421 . S
O214 C231 1.262 . S
O215 Tb168 2.320 . S
O215 C231 1.260 . S
O216 Tb168 2.552 . S
O216 C224 1.243 . S
O217 Tb168 2.413 . S
O217 C232 1.256 . S
O218 Tb179 2.546 . S
O218 C243 1.251 . S
O219 Tb168 2.362 . S
O219 Tb179 2.610 . S
O219 C235 1.283 . S
O220 Tb168 2.421 . S
O220 C242 1.262 . S
O221 Tb179 2.320 . S
O221 C242 1.260 . S
O222 Tb179 2.552 . S
O222 C235 1.243 . S
O223 Tb179 2.413 . S
O223 C243 1.256 . S
C224 O213 1.283 . S
C224 O216 1.243 . S
C225 C227 1.382 . S
C225 C229 1.393 . S
C225 C232 1.500 . S
C226 C227 1.400 . S
C226 C228 1.384 . S
C227 C225 1.382 . S
C227 C226 1.400 . S
C227 H244 0.930 . S
C228 C226 1.384 . S
C228 C230 1.392 . S
C228 H245 0.931 . S
C229 C225 1.393 . S
C229 C230 1.401 . S
C229 H246 0.930 . S
C230 C228 1.392 . S
C230 C229 1.401 . S
C230 H247 0.930 . S
C231 O214 1.262 . S
C231 O215 1.260 . S
C232 Tb168 2.833 . S
C232 O212 1.251 . S
C232 O217 1.256 . S
C232 C225 1.500 . S
C233 H198 0.929 . S
C233 C211 1.444 . S
C233 C234 1.317 . S
C234 H196 0.930 1_545 S
C234 C202 1.432 . S
C234 C233 1.317 . S
C235 O219 1.283 . S
C235 O222 1.243 . S
C236 C237 1.382 . S
C236 C240 1.393 . S
C236 C243 1.500 . S
C237 C236 1.382 . S
C237 C238 1.400 1_655 S
C237 H248 0.930 . S
C238 C237 1.400 1_455 S
C238 C239 1.384 . S
C239 C238 1.384 . S
C239 C241 1.392 . S
C239 H249 0.931 . S
C240 C236 1.393 . S
C240 C241 1.401 1_655 S
C240 H250 0.930 . S
C241 C239 1.392 . S
C241 C240 1.401 1_455 S
C241 H251 0.930 . S
C242 O220 1.262 . S
C242 O221 1.260 . S
C243 Tb179 2.833 . S
C243 O218 1.251 . S
C243 O223 1.256 . S
C243 C236 1.500 . S
H244 C227 0.930 . S
H245 C228 0.931 . S
H246 C229 0.930 . S
H247 C230 0.930 . S
H248 C237 0.930 . S
H249 C239 0.931 . S
H250 C240 0.930 . S
H251 C241 0.930 . S
Tb252 N283 2.660 . S
Tb252 N290 2.600 . S
Tb252 O296 2.546 . S
Tb252 O297 2.610 . S
Tb252 O299 2.320 . S
Tb252 O300 2.552 . S
Tb252 O301 2.413 . S
Tb252 O303 2.362 . S
Tb252 O304 2.421 . S
Tb252 C316 2.833 . S
C253 C256 1.432 . S
C253 C257 1.414 . S
C253 N260 1.359 . S
C254 C256 1.417 . S
C254 C258 1.432 . S
C254 C266 1.410 . S
C255 C257 1.444 . S
C255 C258 1.317 . S
C255 H278 0.929 . S
C256 C253 1.432 . S
C256 C254 1.417 . S
C256 N264 1.360 . S
C257 C253 1.414 . S
C257 C255 1.444 . S
C257 C262 1.385 . S
C258 C254 1.432 . S
C258 C255 1.317 . S
C258 H270 0.930 . S
C259 C261 1.392 . S
C259 C262 1.370 . S
C259 H271 0.931 . S
N260 C253 1.359 . S
N260 C261 1.327 . S
N260 Tb263 2.600 . S
C261 C259 1.392 . S
C261 N260 1.327 . S
C261 H268 0.930 . S
C262 C257 1.385 . S
C262 C259 1.370 . S
C262 H281 0.930 . S
Tb263 N260 2.600 . S
Tb263 N264 2.660 . S
Tb263 O297 2.362 . S
Tb263 O298 2.421 . S
Tb263 O302 2.546 . S
Tb263 O303 2.610 . S
Tb263 O305 2.320 . S
Tb263 O306 2.552 . S
Tb263 O307 2.413 . S
Tb263 C327 2.833 . S
N264 C256 1.360 . S
N264 Tb263 2.660 . S
N264 C265 1.305 . S
C265 N264 1.305 . S
C265 C267 1.407 . S
C265 H272 0.930 . S
C266 C254 1.410 . S
C266 C267 1.345 . S
C266 H274 0.930 . S
C267 C265 1.407 . S
C267 C266 1.345 . S
C267 H269 0.930 . S
H268 C261 0.930 . S
H269 C267 0.930 . S
H270 C258 0.930 . S
H271 C259 0.931 . S
H272 C265 0.930 . S
H273 C287 0.930 . S
H274 C266 0.930 . S
H275 C293 0.930 . S
H276 C284 0.930 . S
H277 C291 0.931 . S
H278 C255 0.929 . S
H279 C285 0.930 . S
H280 C318 0.930 . S
H281 C262 0.930 . S
H282 C317 0.929 . S
N283 Tb252 2.660 . S
N283 C284 1.305 . S
N283 C288 1.360 . S
C284 H276 0.930 . S
C284 N283 1.305 . S
C284 C287 1.407 . S
C285 H279 0.930 . S
C285 C286 1.410 . S
C285 C287 1.345 . S
C286 C285 1.410 . S
C286 C288 1.417 . S
C286 C318 1.432 . S
C287 H273 0.930 . S
C287 C284 1.407 . S
C287 C285 1.345 . S
C288 N283 1.360 . S
C288 C286 1.417 . S
C288 C292 1.432 . S
H289 C294 0.930 . S
N290 Tb252 2.600 . S
N290 C292 1.359 . S
N290 C293 1.327 . S
C291 H277 0.931 . S
C291 C293 1.392 . S
C291 C294 1.370 . S
C292 C288 1.432 . S
C292 N290 1.359 . S
C292 C295 1.414 . S
C293 H275 0.930 . S
C293 N290 1.327 . S
C293 C291 1.392 . S
C294 H289 0.930 . S
C294 C291 1.370 . S
C294 C295 1.385 . S
C295 C292 1.414 . S
C295 C294 1.385 . S
C295 C317 1.444 . S
O296 Tb252 2.546 . S
O296 C316 1.251 . S
O297 Tb252 2.610 . S
O297 Tb263 2.362 . S
O297 C308 1.283 . S
O298 Tb263 2.421 . S
O298 C315 1.262 . S
O299 Tb252 2.320 . S
O299 C315 1.260 . S
O300 Tb252 2.552 . S
O300 C308 1.243 . S
O301 Tb252 2.413 . S
O301 C316 1.256 . S
O302 Tb263 2.546 . S
O302 C327 1.251 . S
O303 Tb252 2.362 . S
O303 Tb263 2.610 . S
O303 C319 1.283 . S
O304 Tb252 2.421 . S
O304 C326 1.262 . S
O305 Tb263 2.320 . S
O305 C326 1.260 . S
O306 Tb263 2.552 . S
O306 C319 1.243 . S
O307 Tb263 2.413 . S
O307 C327 1.256 . S
C308 O297 1.283 . S
C308 O300 1.243 . S
C309 C311 1.382 . S
C309 C313 1.393 . S
C309 C316 1.500 . S
C310 C311 1.400 1_565 S
C310 C312 1.384 . S
C311 C309 1.382 . S
C311 C310 1.400 1_545 S
C311 H328 0.930 . S
C312 C310 1.384 . S
C312 C314 1.392 . S
C312 H329 0.931 . S
C313 C309 1.393 . S
C313 C314 1.401 1_545 S
C313 H330 0.930 . S
C314 C312 1.392 . S
C314 C313 1.401 1_565 S
C314 H331 0.930 . S
C315 O298 1.262 . S
C315 O299 1.260 . S
C316 Tb252 2.833 . S
C316 O296 1.251 . S
C316 O301 1.256 . S
C316 C309 1.500 . S
C317 H282 0.929 . S
C317 C295 1.444 . S
C317 C318 1.317 . S
C318 H280 0.930 . S
C318 C286 1.432 . S
C318 C317 1.317 . S
C319 O303 1.283 . S
C319 O306 1.243 . S
C320 C321 1.382 . S
C320 C324 1.393 . S
C320 C327 1.500 . S
C321 C320 1.382 . S
C321 C322 1.400 . S
C321 H332 0.930 . S
C322 C321 1.400 . S
C322 C323 1.384 . S
C323 C322 1.384 . S
C323 C325 1.392 . S
C323 H333 0.931 . S
C324 C320 1.393 . S
C324 C325 1.401 . S
C324 H334 0.930 . S
C325 C323 1.392 . S
C325 C324 1.401 . S
C325 H335 0.930 . S
C326 O304 1.262 . S
C326 O305 1.260 . S
C327 Tb263 2.833 . S
C327 O302 1.251 . S
C327 O307 1.256 . S
C327 C320 1.500 . S
H328 C311 0.930 . S
H329 C312 0.931 . S
H330 C313 0.930 . S
H331 C314 0.930 . S
H332 C321 0.930 . S
H333 C323 0.931 . S
H334 C324 0.930 . S
H335 C325 0.930 . S
Tb336 N367 2.660 . S
Tb336 N374 2.600 . S
Tb336 O380 2.546 . S
Tb336 O381 2.610 . S
Tb336 O383 2.320 . S
Tb336 O384 2.552 . S
Tb336 O385 2.413 . S
Tb336 O387 2.362 . S
Tb336 O388 2.421 . S
Tb336 C400 2.833 . S
C337 C340 1.432 . S
C337 C341 1.414 . S
C337 N344 1.359 . S
C338 C340 1.417 . S
C338 C342 1.432 . S
C338 C350 1.410 . S
C339 C341 1.444 . S
C339 C342 1.317 . S
C339 H362 0.929 . S
C340 C337 1.432 . S
C340 C338 1.417 . S
C340 N348 1.360 . S
C341 C337 1.414 . S
C341 C339 1.444 . S
C341 C346 1.385 . S
C342 C338 1.432 . S
C342 C339 1.317 . S
C342 H354 0.930 . S
C343 C345 1.392 . S
C343 C346 1.370 . S
C343 H355 0.931 . S
N344 C337 1.359 . S
N344 C345 1.327 . S
N344 Tb347 2.600 . S
C345 C343 1.392 . S
C345 N344 1.327 . S
C345 H352 0.930 . S
C346 C341 1.385 . S
C346 C343 1.370 . S
C346 H365 0.930 . S
Tb347 N344 2.600 . S
Tb347 N348 2.660 . S
Tb347 O381 2.362 . S
Tb347 O382 2.421 . S
Tb347 O386 2.546 . S
Tb347 O387 2.610 . S
Tb347 O389 2.320 . S
Tb347 O390 2.552 . S
Tb347 O391 2.413 . S
Tb347 C411 2.833 . S
N348 C340 1.360 . S
N348 Tb347 2.660 . S
N348 C349 1.305 . S
C349 N348 1.305 . S
C349 C351 1.407 . S
C349 H356 0.930 . S
C350 C338 1.410 . S
C350 C351 1.345 . S
C350 H358 0.930 . S
C351 C349 1.407 . S
C351 C350 1.345 . S
C351 H353 0.930 . S
H352 C345 0.930 . S
H353 C351 0.930 . S
H354 C342 0.930 . S
H355 C343 0.931 . S
H356 C349 0.930 . S
H357 C371 0.930 . S
H358 C350 0.930 . S
H359 C377 0.930 . S
H360 C368 0.930 . S
H361 C375 0.931 . S
H362 C339 0.929 . S
H363 C369 0.930 . S
H364 C402 0.930 1_455 S
H365 C346 0.930 . S
H366 C401 0.929 . S
N367 Tb336 2.660 . S
N367 C368 1.305 . S
N367 C372 1.360 . S
C368 H360 0.930 . S
C368 N367 1.305 . S
C368 C371 1.407 . S
C369 H363 0.930 . S
C369 C370 1.410 . S
C369 C371 1.345 . S
C370 C369 1.410 . S
C370 C372 1.417 . S
C370 C402 1.432 . S
C371 H357 0.930 . S
C371 C368 1.407 . S
C371 C369 1.345 . S
C372 N367 1.360 . S
C372 C370 1.417 . S
C372 C376 1.432 . S
H373 C378 0.930 . S
N374 Tb336 2.600 . S
N374 C376 1.359 . S
N374 C377 1.327 . S
C375 H361 0.931 . S
C375 C377 1.392 . S
C375 C378 1.370 . S
C376 C372 1.432 . S
C376 N374 1.359 . S
C376 C379 1.414 . S
C377 H359 0.930 . S
C377 N374 1.327 . S
C377 C375 1.392 . S
C378 H373 0.930 . S
C378 C375 1.370 . S
C378 C379 1.385 . S
C379 C376 1.414 . S
C379 C378 1.385 . S
C379 C401 1.444 . S
O380 Tb336 2.546 . S
O380 C400 1.251 . S
O381 Tb336 2.610 . S
O381 Tb347 2.362 . S
O381 C392 1.283 . S
O382 Tb347 2.421 . S
O382 C399 1.262 . S
O383 Tb336 2.320 . S
O383 C399 1.260 . S
O384 Tb336 2.552 . S
O384 C392 1.243 . S
O385 Tb336 2.413 . S
O385 C400 1.256 . S
O386 Tb347 2.546 . S
O386 C411 1.251 . S
O387 Tb336 2.362 . S
O387 Tb347 2.610 . S
O387 C403 1.283 . S
O388 Tb336 2.421 . S
O388 C410 1.262 . S
O389 Tb347 2.320 . S
O389 C410 1.260 . S
O390 Tb347 2.552 . S
O390 C403 1.243 . S
O391 Tb347 2.413 . S
O391 C411 1.256 . S
C392 O381 1.283 . S
C392 O384 1.243 . S
C393 C395 1.382 . S
C393 C397 1.393 . S
C393 C400 1.500 . S
C394 C395 1.400 . S
C394 C396 1.384 . S
C395 C393 1.382 . S
C395 C394 1.400 . S
C395 H412 0.930 . S
C396 C394 1.384 . S
C396 C398 1.392 . S
C396 H413 0.931 . S
C397 C393 1.393 . S
C397 C398 1.401 . S
C397 H414 0.930 . S
C398 C396 1.392 . S
C398 C397 1.401 . S
C398 H415 0.930 . S
C399 O382 1.262 . S
C399 O383 1.260 . S
C400 Tb336 2.833 . S
C400 O380 1.251 . S
C400 O385 1.256 . S
C400 C393 1.500 . S
C401 H366 0.929 . S
C401 C379 1.444 . S
C401 C402 1.317 . S
C402 H364 0.930 1_655 S
C402 C370 1.432 . S
C402 C401 1.317 . S
C403 O387 1.283 . S
C403 O390 1.243 . S
C404 C405 1.382 . S
C404 C408 1.393 . S
C404 C411 1.500 . S
C405 C404 1.382 . S
C405 C406 1.400 . S
C405 H416 0.930 . S
C406 C405 1.400 . S
C406 C407 1.384 . S
C407 C406 1.384 . S
C407 C409 1.392 . S
C407 H417 0.931 . S
C408 C404 1.393 . S
C408 C409 1.401 . S
C408 H418 0.930 . S
C409 C407 1.392 . S
C409 C408 1.401 . S
C409 H419 0.930 . S
C410 O388 1.262 . S
C410 O389 1.260 . S
C411 Tb347 2.833 . S
C411 O386 1.251 . S
C411 O391 1.256 . S
C411 C404 1.500 . S
H412 C395 0.930 . S
H413 C396 0.931 . S
H414 C397 0.930 . S
H415 C398 0.930 . S
H416 C405 0.930 . S
H417 C407 0.931 . S
H418 C408 0.930 . S
H419 C409 0.930 . S
Tb420 N451 2.660 . S
Tb420 N458 2.600 . S
Tb420 O464 2.546 . S
Tb420 O465 2.610 . S
Tb420 O467 2.320 . S
Tb420 O468 2.552 . S
Tb420 O469 2.413 . S
Tb420 O471 2.362 . S
Tb420 O472 2.421 . S
Tb420 C484 2.833 . S
C421 C424 1.432 . S
C421 C425 1.414 . S
C421 N428 1.359 . S
C422 C424 1.417 . S
C422 C426 1.432 . S
C422 C434 1.410 . S
C423 C425 1.444 . S
C423 C426 1.317 . S
C423 H446 0.929 . S
C424 C421 1.432 . S
C424 C422 1.417 . S
C424 N432 1.360 . S
C425 C421 1.414 . S
C425 C423 1.444 . S
C425 C430 1.385 . S
C426 C422 1.432 . S
C426 C423 1.317 . S
C426 H438 0.930 1_545 S
C427 C429 1.392 . S
C427 C430 1.370 . S
C427 H439 0.931 . S
N428 C421 1.359 . S
N428 C429 1.327 . S
N428 Tb431 2.600 . S
C429 C427 1.392 . S
C429 N428 1.327 . S
C429 H436 0.930 . S
C430 C425 1.385 . S
C430 C427 1.370 . S
C430 H449 0.930 . S
Tb431 N428 2.600 . S
Tb431 N432 2.660 . S
Tb431 O465 2.362 . S
Tb431 O466 2.421 . S
Tb431 O470 2.546 . S
Tb431 O471 2.610 . S
Tb431 O473 2.320 . S
Tb431 O474 2.552 . S
Tb431 O475 2.413 . S
Tb431 C495 2.833 . S
N432 C424 1.360 . S
N432 Tb431 2.660 . S
N432 C433 1.305 . S
C433 N432 1.305 . S
C433 C435 1.407 . S
C433 H440 0.930 . S
C434 C422 1.410 . S
C434 C435 1.345 . S
C434 H442 0.930 . S
C435 C433 1.407 . S
C435 C434 1.345 . S
C435 H437 0.930 . S
H436 C429 0.930 . S
H437 C435 0.930 . S
H438 C426 0.930 1_565 S
H439 C427 0.931 . S
H440 C433 0.930 . S
H441 C455 0.930 . S
H442 C434 0.930 . S
H443 C461 0.930 . S
H444 C452 0.930 . S
H445 C459 0.931 . S
H446 C423 0.929 . S
H447 C453 0.930 . S
H448 C486 0.930 . S
H449 C430 0.930 . S
H450 C485 0.929 . S
N451 Tb420 2.660 . S
N451 C452 1.305 . S
N451 C456 1.360 . S
C452 H444 0.930 . S
C452 N451 1.305 . S
C452 C455 1.407 . S
C453 H447 0.930 . S
C453 C454 1.410 . S
C453 C455 1.345 . S
C454 C453 1.410 . S
C454 C456 1.417 . S
C454 C486 1.432 . S
C455 H441 0.930 . S
C455 C452 1.407 . S
C455 C453 1.345 . S
C456 N451 1.360 . S
C456 C454 1.417 . S
C456 C460 1.432 . S
H457 C462 0.930 . S
N458 Tb420 2.600 . S
N458 C460 1.359 . S
N458 C461 1.327 . S
C459 H445 0.931 . S
C459 C461 1.392 . S
C459 C462 1.370 . S
C460 C456 1.432 . S
C460 N458 1.359 . S
C460 C463 1.414 . S
C461 H443 0.930 . S
C461 N458 1.327 . S
C461 C459 1.392 . S
C462 H457 0.930 . S
C462 C459 1.370 . S
C462 C463 1.385 . S
C463 C460 1.414 . S
C463 C462 1.385 . S
C463 C485 1.444 . S
O464 Tb420 2.546 . S
O464 C484 1.251 . S
O465 Tb420 2.610 . S
O465 Tb431 2.362 . S
O465 C476 1.283 . S
O466 Tb431 2.421 . S
O466 C483 1.262 . S
O467 Tb420 2.320 . S
O467 C483 1.260 . S
O468 Tb420 2.552 . S
O468 C476 1.243 . S
O469 Tb420 2.413 . S
O469 C484 1.256 . S
O470 Tb431 2.546 . S
O470 C495 1.251 . S
O471 Tb420 2.362 . S
O471 Tb431 2.610 . S
O471 C487 1.283 . S
O472 Tb420 2.421 . S
O472 C494 1.262 . S
O473 Tb431 2.320 . S
O473 C494 1.260 . S
O474 Tb431 2.552 . S
O474 C487 1.243 . S
O475 Tb431 2.413 . S
O475 C495 1.256 . S
C476 O465 1.283 . S
C476 O468 1.243 . S
C477 C479 1.382 . S
C477 C481 1.393 . S
C477 C484 1.500 . S
C478 C479 1.400 1_455 S
C478 C480 1.384 . S
C479 C477 1.382 . S
C479 C478 1.400 1_655 S
C479 H496 0.930 . S
C480 C478 1.384 . S
C480 C482 1.392 . S
C480 H497 0.931 . S
C481 C477 1.393 . S
C481 C482 1.401 1_655 S
C481 H498 0.930 . S
C482 C480 1.392 . S
C482 C481 1.401 1_455 S
C482 H499 0.930 . S
C483 O466 1.262 . S
C483 O467 1.260 . S
C484 Tb420 2.833 . S
C484 O464 1.251 . S
C484 O469 1.256 . S
C484 C477 1.500 . S
C485 H450 0.929 . S
C485 C463 1.444 . S
C485 C486 1.317 . S
C486 H448 0.930 . S
C486 C454 1.432 . S
C486 C485 1.317 . S
C487 O471 1.283 . S
C487 O474 1.243 . S
C488 C489 1.382 . S
C488 C492 1.393 . S
C488 C495 1.500 . S
C489 C488 1.382 . S
C489 C490 1.400 . S
C489 H500 0.930 . S
C490 C489 1.400 . S
C490 C491 1.384 . S
C491 C490 1.384 . S
C491 C493 1.392 . S
C491 H501 0.931 . S
C492 C488 1.393 . S
C492 C493 1.401 . S
C492 H502 0.930 . S
C493 C491 1.392 . S
C493 C492 1.401 . S
C493 H503 0.930 . S
C494 O472 1.262 . S
C494 O473 1.260 . S
C495 Tb431 2.833 . S
C495 O470 1.251 . S
C495 O475 1.256 . S
C495 C488 1.500 . S
H496 C479 0.930 . S
H497 C480 0.931 . S
H498 C481 0.930 . S
H499 C482 0.930 . S
H500 C489 0.930 . S
H501 C491 0.931 . S
H502 C492 0.930 . S
H503 C493 0.930 . S
Tb504 N535 2.660 . S
Tb504 N542 2.600 . S
Tb504 O548 2.546 . S
Tb504 O549 2.610 . S
Tb504 O551 2.320 . S
Tb504 O552 2.552 . S
Tb504 O553 2.413 . S
Tb504 O555 2.362 . S
Tb504 O556 2.421 . S
Tb504 C568 2.833 . S
C505 C508 1.432 . S
C505 C509 1.414 . S
C505 N512 1.359 . S
C506 C508 1.417 . S
C506 C510 1.432 . S
C506 C518 1.410 . S
C507 C509 1.444 . S
C507 C510 1.317 . S
C507 H530 0.929 . S
C508 C505 1.432 . S
C508 C506 1.417 . S
C508 N516 1.360 . S
C509 C505 1.414 . S
C509 C507 1.444 . S
C509 C514 1.385 . S
C510 C506 1.432 . S
C510 C507 1.317 . S
C510 H522 0.930 . S
C511 C513 1.392 . S
C511 C514 1.370 . S
C511 H523 0.931 . S
N512 C505 1.359 . S
N512 C513 1.327 . S
N512 Tb515 2.600 . S
C513 C511 1.392 . S
C513 N512 1.327 . S
C513 H520 0.930 . S
C514 C509 1.385 . S
C514 C511 1.370 . S
C514 H533 0.930 . S
Tb515 N512 2.600 . S
Tb515 N516 2.660 . S
Tb515 O549 2.362 . S
Tb515 O550 2.421 . S
Tb515 O554 2.546 . S
Tb515 O555 2.610 . S
Tb515 O557 2.320 . S
Tb515 O558 2.552 . S
Tb515 O559 2.413 . S
Tb515 C579 2.833 . S
N516 C508 1.360 . S
N516 Tb515 2.660 . S
N516 C517 1.305 . S
C517 N516 1.305 . S
C517 C519 1.407 . S
C517 H524 0.930 . S
C518 C506 1.410 . S
C518 C519 1.345 . S
C518 H526 0.930 . S
C519 C517 1.407 . S
C519 C518 1.345 . S
C519 H521 0.930 . S
H520 C513 0.930 . S
H521 C519 0.930 . S
H522 C510 0.930 . S
H523 C511 0.931 . S
H524 C517 0.930 . S
H525 C539 0.930 . S
H526 C518 0.930 . S
H527 C545 0.930 . S
H528 C536 0.930 . S
H529 C543 0.931 . S
H530 C507 0.929 . S
H531 C537 0.930 . S
H532 C570 0.930 . S
H533 C514 0.930 . S
H534 C569 0.929 . S
N535 Tb504 2.660 . S
N535 C536 1.305 . S
N535 C540 1.360 . S
C536 H528 0.930 . S
C536 N535 1.305 . S
C536 C539 1.407 . S
C537 H531 0.930 . S
C537 C538 1.410 . S
C537 C539 1.345 . S
C538 C537 1.410 . S
C538 C540 1.417 . S
C538 C570 1.432 . S
C539 H525 0.930 . S
C539 C536 1.407 . S
C539 C537 1.345 . S
C540 N535 1.360 . S
C540 C538 1.417 . S
C540 C544 1.432 . S
H541 C546 0.930 . S
N542 Tb504 2.600 . S
N542 C544 1.359 . S
N542 C545 1.327 . S
C543 H529 0.931 . S
C543 C545 1.392 . S
C543 C546 1.370 . S
C544 C540 1.432 . S
C544 N542 1.359 . S
C544 C547 1.414 . S
C545 H527 0.930 . S
C545 N542 1.327 . S
C545 C543 1.392 . S
C546 H541 0.930 . S
C546 C543 1.370 . S
C546 C547 1.385 . S
C547 C544 1.414 . S
C547 C546 1.385 . S
C547 C569 1.444 . S
O548 Tb504 2.546 . S
O548 C568 1.251 . S
O549 Tb504 2.610 . S
O549 Tb515 2.362 . S
O549 C560 1.283 . S
O550 Tb515 2.421 . S
O550 C567 1.262 . S
O551 Tb504 2.320 . S
O551 C567 1.260 . S
O552 Tb504 2.552 . S
O552 C560 1.243 . S
O553 Tb504 2.413 . S
O553 C568 1.256 . S
O554 Tb515 2.546 . S
O554 C579 1.251 . S
O555 Tb504 2.362 . S
O555 Tb515 2.610 . S
O555 C571 1.283 . S
O556 Tb504 2.421 . S
O556 C578 1.262 . S
O557 Tb515 2.320 . S
O557 C578 1.260 . S
O558 Tb515 2.552 . S
O558 C571 1.243 . S
O559 Tb515 2.413 . S
O559 C579 1.256 . S
C560 O549 1.283 . S
C560 O552 1.243 . S
C561 C563 1.382 . S
C561 C565 1.393 . S
C561 C568 1.500 . S
C562 C563 1.400 1_655 S
C562 C564 1.384 . S
C563 C561 1.382 . S
C563 C562 1.400 1_455 S
C563 H580 0.930 . S
C564 C562 1.384 . S
C564 C566 1.392 . S
C564 H581 0.931 . S
C565 C561 1.393 . S
C565 C566 1.401 1_455 S
C565 H582 0.930 . S
C566 C564 1.392 . S
C566 C565 1.401 1_655 S
C566 H583 0.930 . S
C567 O550 1.262 . S
C567 O551 1.260 . S
C568 Tb504 2.833 . S
C568 O548 1.251 . S
C568 O553 1.256 . S
C568 C561 1.500 . S
C569 H534 0.929 . S
C569 C547 1.444 . S
C569 C570 1.317 . S
C570 H532 0.930 . S
C570 C538 1.432 . S
C570 C569 1.317 . S
C571 O555 1.283 . S
C571 O558 1.243 . S
C572 C573 1.382 . S
C572 C576 1.393 . S
C572 C579 1.500 . S
C573 C572 1.382 . S
C573 C574 1.400 . S
C573 H584 0.930 . S
C574 C573 1.400 . S
C574 C575 1.384 . S
C575 C574 1.384 . S
C575 C577 1.392 . S
C575 H585 0.931 . S
C576 C572 1.393 . S
C576 C577 1.401 . S
C576 H586 0.930 . S
C577 C575 1.392 . S
C577 C576 1.401 . S
C577 H587 0.930 . S
C578 O556 1.262 . S
C578 O557 1.260 . S
C579 Tb515 2.833 . S
C579 O554 1.251 . S
C579 O559 1.256 . S
C579 C572 1.500 . S
H580 C563 0.930 . S
H581 C564 0.931 . S
H582 C565 0.930 . S
H583 C566 0.930 . S
H584 C573 0.930 . S
H585 C575 0.931 . S
H586 C576 0.930 . S
H587 C577 0.930 . S
Tb588 N619 2.660 . S
Tb588 N626 2.600 . S
Tb588 O632 2.546 . S
Tb588 O633 2.610 . S
Tb588 O635 2.320 . S
Tb588 O636 2.552 . S
Tb588 O637 2.413 . S
Tb588 O639 2.362 . S
Tb588 O640 2.421 . S
Tb588 C652 2.833 . S
C589 C592 1.432 . S
C589 C593 1.414 . S
C589 N596 1.359 . S
C590 C592 1.417 . S
C590 C594 1.432 . S
C590 C602 1.410 . S
C591 C593 1.444 . S
C591 C594 1.317 . S
C591 H614 0.929 . S
C592 C589 1.432 . S
C592 C590 1.417 . S
C592 N600 1.360 . S
C593 C589 1.414 . S
C593 C591 1.444 . S
C593 C598 1.385 . S
C594 C590 1.432 . S
C594 C591 1.317 . S
C594 H606 0.930 . S
C595 C597 1.392 . S
C595 C598 1.370 . S
C595 H607 0.931 . S
N596 C589 1.359 . S
N596 C597 1.327 . S
N596 Tb599 2.600 . S
C597 C595 1.392 . S
C597 N596 1.327 . S
C597 H604 0.930 . S
C598 C593 1.385 . S
C598 C595 1.370 . S
C598 H617 0.930 . S
Tb599 N596 2.600 . S
Tb599 N600 2.660 . S
Tb599 O633 2.362 . S
Tb599 O634 2.421 . S
Tb599 O638 2.546 . S
Tb599 O639 2.610 . S
Tb599 O641 2.320 . S
Tb599 O642 2.552 . S
Tb599 O643 2.413 . S
Tb599 C663 2.833 . S
N600 C592 1.360 . S
N600 Tb599 2.660 . S
N600 C601 1.305 . S
C601 N600 1.305 . S
C601 C603 1.407 . S
C601 H608 0.930 . S
C602 C590 1.410 . S
C602 C603 1.345 . S
C602 H610 0.930 . S
C603 C601 1.407 . S
C603 C602 1.345 . S
C603 H605 0.930 . S
H604 C597 0.930 . S
H605 C603 0.930 . S
H606 C594 0.930 . S
H607 C595 0.931 . S
H608 C601 0.930 . S
H609 C623 0.930 . S
H610 C602 0.930 . S
H611 C629 0.930 . S
H612 C620 0.930 . S
H613 C627 0.931 . S
H614 C591 0.929 . S
H615 C621 0.930 . S
H616 C654 0.930 1_655 S
H617 C598 0.930 . S
H618 C653 0.929 . S
N619 Tb588 2.660 . S
N619 C620 1.305 . S
N619 C624 1.360 . S
C620 H612 0.930 . S
C620 N619 1.305 . S
C620 C623 1.407 . S
C621 H615 0.930 . S
C621 C622 1.410 . S
C621 C623 1.345 . S
C622 C621 1.410 . S
C622 C624 1.417 . S
C622 C654 1.432 . S
C623 H609 0.930 . S
C623 C620 1.407 . S
C623 C621 1.345 . S
C624 N619 1.360 . S
C624 C622 1.417 . S
C624 C628 1.432 . S
H625 C630 0.930 . S
N626 Tb588 2.600 . S
N626 C628 1.359 . S
N626 C629 1.327 . S
C627 H613 0.931 . S
C627 C629 1.392 . S
C627 C630 1.370 . S
C628 C624 1.432 . S
C628 N626 1.359 . S
C628 C631 1.414 . S
C629 H611 0.930 . S
C629 N626 1.327 . S
C629 C627 1.392 . S
C630 H625 0.930 . S
C630 C627 1.370 . S
C630 C631 1.385 . S
C631 C628 1.414 . S
C631 C630 1.385 . S
C631 C653 1.444 . S
O632 Tb588 2.546 . S
O632 C652 1.251 . S
O633 Tb588 2.610 . S
O633 Tb599 2.362 . S
O633 C644 1.283 . S
O634 Tb599 2.421 . S
O634 C651 1.262 . S
O635 Tb588 2.320 . S
O635 C651 1.260 . S
O636 Tb588 2.552 . S
O636 C644 1.243 . S
O637 Tb588 2.413 . S
O637 C652 1.256 . S
O638 Tb599 2.546 . S
O638 C663 1.251 . S
O639 Tb588 2.362 . S
O639 Tb599 2.610 . S
O639 C655 1.283 . S
O640 Tb588 2.421 . S
O640 C662 1.262 . S
O641 Tb599 2.320 . S
O641 C662 1.260 . S
O642 Tb599 2.552 . S
O642 C655 1.243 . S
O643 Tb599 2.413 . S
O643 C663 1.256 . S
C644 O633 1.283 . S
C644 O636 1.243 . S
C645 C647 1.382 . S
C645 C649 1.393 . S
C645 C652 1.500 . S
C646 C647 1.400 . S
C646 C648 1.384 . S
C647 C645 1.382 . S
C647 C646 1.400 . S
C647 H664 0.930 . S
C648 C646 1.384 . S
C648 C650 1.392 . S
C648 H665 0.931 . S
C649 C645 1.393 . S
C649 C650 1.401 . S
C649 H666 0.930 . S
C650 C648 1.392 . S
C650 C649 1.401 . S
C650 H667 0.930 . S
C651 O634 1.262 . S
C651 O635 1.260 . S
C652 Tb588 2.833 . S
C652 O632 1.251 . S
C652 O637 1.256 . S
C652 C645 1.500 . S
C653 H618 0.929 . S
C653 C631 1.444 . S
C653 C654 1.317 . S
C654 H616 0.930 1_455 S
C654 C622 1.432 . S
C654 C653 1.317 . S
C655 O639 1.283 . S
C655 O642 1.243 . S
C656 C657 1.382 . S
C656 C660 1.393 . S
C656 C663 1.500 . S
C657 C656 1.382 . S
C657 C658 1.400 1_565 S
C657 H668 0.930 . S
C658 C657 1.400 1_545 S
C658 C659 1.384 . S
C659 C658 1.384 . S
C659 C661 1.392 . S
C659 H669 0.931 . S
C660 C656 1.393 . S
C660 C661 1.401 1_565 S
C660 H670 0.930 . S
C661 C659 1.392 . S
C661 C660 1.401 1_545 S
C661 H671 0.930 . S
C662 O640 1.262 . S
C662 O641 1.260 . S
C663 Tb599 2.833 . S
C663 O638 1.251 . S
C663 O643 1.256 . S
C663 C656 1.500 . S
H664 C647 0.930 . S
H665 C648 0.931 . S
H666 C649 0.930 . S
H667 C650 0.930 . S
H668 C657 0.930 . S
H669 C659 0.931 . S
H670 C660 0.930 . S
H671 C661 0.930 . S
Tb672 N703 2.660 . S
Tb672 N710 2.600 . S
Tb672 O716 2.546 . S
Tb672 O717 2.610 . S
Tb672 O719 2.320 . S
Tb672 O720 2.552 . S
Tb672 O721 2.413 . S
Tb672 O723 2.362 . S
Tb672 O724 2.421 . S
Tb672 C736 2.833 . S
C673 C676 1.432 . S
C673 C677 1.414 . S
C673 N680 1.359 . S
C674 C676 1.417 . S
C674 C678 1.432 . S
C674 C686 1.410 . S
C675 C677 1.444 . S
C675 C678 1.317 . S
C675 H698 0.929 . S
C676 C673 1.432 . S
C676 C674 1.417 . S
C676 N684 1.360 . S
C677 C673 1.414 . S
C677 C675 1.444 . S
C677 C682 1.385 . S
C678 C674 1.432 . S
C678 C675 1.317 . S
C678 H690 0.930 1_565 S
C679 C681 1.392 . S
C679 C682 1.370 . S
C679 H691 0.931 . S
N680 C673 1.359 . S
N680 C681 1.327 . S
N680 Tb683 2.600 . S
C681 C679 1.392 . S
C681 N680 1.327 . S
C681 H688 0.930 . S
C682 C677 1.385 . S
C682 C679 1.370 . S
C682 H701 0.930 . S
Tb683 N680 2.600 . S
Tb683 N684 2.660 . S
Tb683 O717 2.362 . S
Tb683 O718 2.421 . S
Tb683 O722 2.546 . S
Tb683 O723 2.610 . S
Tb683 O725 2.320 . S
Tb683 O726 2.552 . S
Tb683 O727 2.413 . S
Tb683 C747 2.833 . S
N684 C676 1.360 . S
N684 Tb683 2.660 . S
N684 C685 1.305 . S
C685 N684 1.305 . S
C685 C687 1.407 . S
C685 H692 0.930 . S
C686 C674 1.410 . S
C686 C687 1.345 . S
C686 H694 0.930 . S
C687 C685 1.407 . S
C687 C686 1.345 . S
C687 H689 0.930 . S
H688 C681 0.930 . S
H689 C687 0.930 . S
H690 C678 0.930 1_545 S
H691 C679 0.931 . S
H692 C685 0.930 . S
H693 C707 0.930 . S
H694 C686 0.930 . S
H695 C713 0.930 . S
H696 C704 0.930 . S
H697 C711 0.931 . S
H698 C675 0.929 . S
H699 C705 0.930 . S
H700 C738 0.930 . S
H701 C682 0.930 . S
H702 C737 0.929 . S
N703 Tb672 2.660 . S
N703 C704 1.305 . S
N703 C708 1.360 . S
C704 H696 0.930 . S
C704 N703 1.305 . S
C704 C707 1.407 . S
C705 H699 0.930 . S
C705 C706 1.410 . S
C705 C707 1.345 . S
C706 C705 1.410 . S
C706 C708 1.417 . S
C706 C738 1.432 . S
C707 H693 0.930 . S
C707 C704 1.407 . S
C707 C705 1.345 . S
C708 N703 1.360 . S
C708 C706 1.417 . S
C708 C712 1.432 . S
H709 C714 0.930 . S
N710 Tb672 2.600 . S
N710 C712 1.359 . S
N710 C713 1.327 . S
C711 H697 0.931 . S
C711 C713 1.392 . S
C711 C714 1.370 . S
C712 C708 1.432 . S
C712 N710 1.359 . S
C712 C715 1.414 . S
C713 H695 0.930 . S
C713 N710 1.327 . S
C713 C711 1.392 . S
C714 H709 0.930 . S
C714 C711 1.370 . S
C714 C715 1.385 . S
C715 C712 1.414 . S
C715 C714 1.385 . S
C715 C737 1.444 . S
O716 Tb672 2.546 . S
O716 C736 1.251 . S
O717 Tb672 2.610 . S
O717 Tb683 2.362 . S
O717 C728 1.283 . S
O718 Tb683 2.421 . S
O718 C735 1.262 . S
O719 Tb672 2.320 . S
O719 C735 1.260 . S
O720 Tb672 2.552 . S
O720 C728 1.243 . S
O721 Tb672 2.413 . S
O721 C736 1.256 . S
O722 Tb683 2.546 . S
O722 C747 1.251 . S
O723 Tb672 2.362 . S
O723 Tb683 2.610 . S
O723 C739 1.283 . S
O724 Tb672 2.421 . S
O724 C746 1.262 . S
O725 Tb683 2.320 . S
O725 C746 1.260 . S
O726 Tb683 2.552 . S
O726 C739 1.243 . S
O727 Tb683 2.413 . S
O727 C747 1.256 . S
C728 O717 1.283 . S
C728 O720 1.243 . S
C729 C731 1.382 . S
C729 C733 1.393 . S
C729 C736 1.500 . S
C730 C731 1.400 . S
C730 C732 1.384 . S
C731 C729 1.382 . S
C731 C730 1.400 . S
C731 H748 0.930 . S
C732 C730 1.384 . S
C732 C734 1.392 . S
C732 H749 0.931 . S
C733 C729 1.393 . S
C733 C734 1.401 . S
C733 H750 0.930 . S
C734 C732 1.392 . S
C734 C733 1.401 . S
C734 H751 0.930 . S
C735 O718 1.262 . S
C735 O719 1.260 . S
C736 Tb672 2.833 . S
C736 O716 1.251 . S
C736 O721 1.256 . S
C736 C729 1.500 . S
C737 H702 0.929 . S
C737 C715 1.444 . S
C737 C738 1.317 . S
C738 H700 0.930 . S
C738 C706 1.432 . S
C738 C737 1.317 . S
C739 O723 1.283 . S
C739 O726 1.243 . S
C740 C741 1.382 . S
C740 C744 1.393 . S
C740 C747 1.500 . S
C741 C740 1.382 . S
C741 C742 1.400 . S
C741 H752 0.930 . S
C742 C741 1.400 . S
C742 C743 1.384 . S
C743 C742 1.384 . S
C743 C745 1.392 . S
C743 H753 0.931 . S
C744 C740 1.393 . S
C744 C745 1.401 . S
C744 H754 0.930 . S
C745 C743 1.392 . S
C745 C744 1.401 . S
C745 H755 0.930 . S
C746 O724 1.262 . S
C746 O725 1.260 . S
C747 Tb683 2.833 . S
C747 O722 1.251 . S
C747 O727 1.256 . S
C747 C740 1.500 . S
H748 C731 0.930 . S
H749 C732 0.931 . S
H750 C733 0.930 . S
H751 C734 0.930 . S
H752 C741 0.930 . S
H753 C743 0.931 . S
H754 C744 0.930 . S
H755 C745 0.930 . S
Tb756 N787 2.660 . S
Tb756 N794 2.600 . S
Tb756 O800 2.546 . S
Tb756 O801 2.610 . S
Tb756 O803 2.320 . S
Tb756 O804 2.552 . S
Tb756 O805 2.413 . S
Tb756 O807 2.362 . S
Tb756 O808 2.421 . S
Tb756 C820 2.833 . S
C757 C760 1.432 . S
C757 C761 1.414 . S
C757 N764 1.359 . S
C758 C760 1.417 . S
C758 C762 1.432 . S
C758 C770 1.410 . S
C759 C761 1.444 . S
C759 C762 1.317 . S
C759 H782 0.929 . S
C760 C757 1.432 . S
C760 C758 1.417 . S
C760 N768 1.360 . S
C761 C757 1.414 . S
C761 C759 1.444 . S
C761 C766 1.385 . S
C762 C758 1.432 . S
C762 C759 1.317 . S
C762 H774 0.930 . S
C763 C765 1.392 . S
C763 C766 1.370 . S
C763 H775 0.931 . S
N764 C757 1.359 . S
N764 C765 1.327 . S
N764 Tb767 2.600 . S
C765 C763 1.392 . S
C765 N764 1.327 . S
C765 H772 0.930 . S
C766 C761 1.385 . S
C766 C763 1.370 . S
C766 H785 0.930 . S
Tb767 N764 2.600 . S
Tb767 N768 2.660 . S
Tb767 O801 2.362 . S
Tb767 O802 2.421 . S
Tb767 O806 2.546 . S
Tb767 O807 2.610 . S
Tb767 O809 2.320 . S
Tb767 O810 2.552 . S
Tb767 O811 2.413 . S
Tb767 C831 2.833 . S
N768 C760 1.360 . S
N768 Tb767 2.660 . S
N768 C769 1.305 . S
C769 N768 1.305 . S
C769 C771 1.407 . S
C769 H776 0.930 . S
C770 C758 1.410 . S
C770 C771 1.345 . S
C770 H778 0.930 . S
C771 C769 1.407 . S
C771 C770 1.345 . S
C771 H773 0.930 . S
H772 C765 0.930 . S
H773 C771 0.930 . S
H774 C762 0.930 . S
H775 C763 0.931 . S
H776 C769 0.930 . S
H777 C791 0.930 . S
H778 C770 0.930 . S
H779 C797 0.930 . S
H780 C788 0.930 . S
H781 C795 0.931 . S
H782 C759 0.929 . S
H783 C789 0.930 . S
H784 C822 0.930 . S
H785 C766 0.930 . S
H786 C821 0.929 . S
N787 Tb756 2.660 . S
N787 C788 1.305 . S
N787 C792 1.360 . S
C788 H780 0.930 . S
C788 N787 1.305 . S
C788 C791 1.407 . S
C789 H783 0.930 . S
C789 C790 1.410 . S
C789 C791 1.345 . S
C790 C789 1.410 . S
C790 C792 1.417 . S
C790 C822 1.432 . S
C791 H777 0.930 . S
C791 C788 1.407 . S
C791 C789 1.345 . S
C792 N787 1.360 . S
C792 C790 1.417 . S
C792 C796 1.432 . S
H793 C798 0.930 . S
N794 Tb756 2.600 . S
N794 C796 1.359 . S
N794 C797 1.327 . S
C795 H781 0.931 . S
C795 C797 1.392 . S
C795 C798 1.370 . S
C796 C792 1.432 . S
C796 N794 1.359 . S
C796 C799 1.414 . S
C797 H779 0.930 . S
C797 N794 1.327 . S
C797 C795 1.392 . S
C798 H793 0.930 . S
C798 C795 1.370 . S
C798 C799 1.385 . S
C799 C796 1.414 . S
C799 C798 1.385 . S
C799 C821 1.444 . S
O800 Tb756 2.546 . S
O800 C820 1.251 . S
O801 Tb756 2.610 . S
O801 Tb767 2.362 . S
O801 C812 1.283 . S
O802 Tb767 2.421 . S
O802 C819 1.262 . S
O803 Tb756 2.320 . S
O803 C819 1.260 . S
O804 Tb756 2.552 . S
O804 C812 1.243 . S
O805 Tb756 2.413 . S
O805 C820 1.256 . S
O806 Tb767 2.546 . S
O806 C831 1.251 . S
O807 Tb756 2.362 . S
O807 Tb767 2.610 . S
O807 C823 1.283 . S
O808 Tb756 2.421 . S
O808 C830 1.262 . S
O809 Tb767 2.320 . S
O809 C830 1.260 . S
O810 Tb767 2.552 . S
O810 C823 1.243 . S
O811 Tb767 2.413 . S
O811 C831 1.256 . S
C812 O801 1.283 . S
C812 O804 1.243 . S
C813 C815 1.382 . S
C813 C817 1.393 . S
C813 C820 1.500 . S
C814 C815 1.400 . S
C814 C816 1.384 . S
C815 C813 1.382 . S
C815 C814 1.400 . S
C815 H832 0.930 . S
C816 C814 1.384 . S
C816 C818 1.392 . S
C816 H833 0.931 . S
C817 C813 1.393 . S
C817 C818 1.401 . S
C817 H834 0.930 . S
C818 C816 1.392 . S
C818 C817 1.401 . S
C818 H835 0.930 . S
C819 O802 1.262 . S
C819 O803 1.260 . S
C820 Tb756 2.833 . S
C820 O800 1.251 . S
C820 O805 1.256 . S
C820 C813 1.500 . S
C821 H786 0.929 . S
C821 C799 1.444 . S
C821 C822 1.317 . S
C822 H784 0.930 . S
C822 C790 1.432 . S
C822 C821 1.317 . S
C823 O807 1.283 . S
C823 O810 1.243 . S
C824 C825 1.382 . S
C824 C828 1.393 . S
C824 C831 1.500 . S
C825 C824 1.382 . S
C825 C826 1.400 1_455 S
C825 H836 0.930 . S
C826 C825 1.400 1_655 S
C826 C827 1.384 . S
C827 C826 1.384 . S
C827 C829 1.392 . S
C827 H837 0.931 . S
C828 C824 1.393 . S
C828 C829 1.401 1_455 S
C828 H838 0.930 . S
C829 C827 1.392 . S
C829 C828 1.401 1_655 S
C829 H839 0.930 . S
C830 O808 1.262 . S
C830 O809 1.260 . S
C831 Tb767 2.833 . S
C831 O806 1.251 . S
C831 O811 1.256 . S
C831 C824 1.500 . S
H832 C815 0.930 . S
H833 C816 0.931 . S
H834 C817 0.930 . S
H835 C818 0.930 . S
H836 C825 0.930 . S
H837 C827 0.931 . S
H838 C828 0.930 . S
H839 C829 0.930 . S
Tb840 N871 2.660 . S
Tb840 N878 2.600 . S
Tb840 O884 2.546 . S
Tb840 O885 2.610 . S
Tb840 O887 2.320 . S
Tb840 O888 2.552 . S
Tb840 O889 2.413 . S
Tb840 O891 2.362 . S
Tb840 O892 2.421 . S
Tb840 C904 2.833 . S
C841 C844 1.432 . S
C841 C845 1.414 . S
C841 N848 1.359 . S
C842 C844 1.417 . S
C842 C846 1.432 . S
C842 C854 1.410 . S
C843 C845 1.444 . S
C843 C846 1.317 . S
C843 H866 0.929 . S
C844 C841 1.432 . S
C844 C842 1.417 . S
C844 N852 1.360 . S
C845 C841 1.414 . S
C845 C843 1.444 . S
C845 C850 1.385 . S
C846 C842 1.432 . S
C846 C843 1.317 . S
C846 H858 0.930 1_455 S
C847 C849 1.392 . S
C847 C850 1.370 . S
C847 H859 0.931 . S
N848 C841 1.359 . S
N848 C849 1.327 . S
N848 Tb851 2.600 . S
C849 C847 1.392 . S
C849 N848 1.327 . S
C849 H856 0.930 . S
C850 C845 1.385 . S
C850 C847 1.370 . S
C850 H869 0.930 . S
Tb851 N848 2.600 . S
Tb851 N852 2.660 . S
Tb851 O885 2.362 . S
Tb851 O886 2.421 . S
Tb851 O890 2.546 . S
Tb851 O891 2.610 . S
Tb851 O893 2.320 . S
Tb851 O894 2.552 . S
Tb851 O895 2.413 . S
Tb851 C915 2.833 . S
N852 C844 1.360 . S
N852 Tb851 2.660 . S
N852 C853 1.305 . S
C853 N852 1.305 . S
C853 C855 1.407 . S
C853 H860 0.930 . S
C854 C842 1.410 . S
C854 C855 1.345 . S
C854 H862 0.930 . S
C855 C853 1.407 . S
C855 C854 1.345 . S
C855 H857 0.930 . S
H856 C849 0.930 . S
H857 C855 0.930 . S
H858 C846 0.930 1_655 S
H859 C847 0.931 . S
H860 C853 0.930 . S
H861 C875 0.930 . S
H862 C854 0.930 . S
H863 C881 0.930 . S
H864 C872 0.930 . S
H865 C879 0.931 . S
H866 C843 0.929 . S
H867 C873 0.930 . S
H868 C906 0.930 . S
H869 C850 0.930 . S
H870 C905 0.929 . S
N871 Tb840 2.660 . S
N871 C872 1.305 . S
N871 C876 1.360 . S
C872 H864 0.930 . S
C872 N871 1.305 . S
C872 C875 1.407 . S
C873 H867 0.930 . S
C873 C874 1.410 . S
C873 C875 1.345 . S
C874 C873 1.410 . S
C874 C876 1.417 . S
C874 C906 1.432 . S
C875 H861 0.930 . S
C875 C872 1.407 . S
C875 C873 1.345 . S
C876 N871 1.360 . S
C876 C874 1.417 . S
C876 C880 1.432 . S
H877 C882 0.930 . S
N878 Tb840 2.600 . S
N878 C880 1.359 . S
N878 C881 1.327 . S
C879 H865 0.931 . S
C879 C881 1.392 . S
C879 C882 1.370 . S
C880 C876 1.432 . S
C880 N878 1.359 . S
C880 C883 1.414 . S
C881 H863 0.930 . S
C881 N878 1.327 . S
C881 C879 1.392 . S
C882 H877 0.930 . S
C882 C879 1.370 . S
C882 C883 1.385 . S
C883 C880 1.414 . S
C883 C882 1.385 . S
C883 C905 1.444 . S
O884 Tb840 2.546 . S
O884 C904 1.251 . S
O885 Tb840 2.610 . S
O885 Tb851 2.362 . S
O885 C896 1.283 . S
O886 Tb851 2.421 . S
O886 C903 1.262 . S
O887 Tb840 2.320 . S
O887 C903 1.260 . S
O888 Tb840 2.552 . S
O888 C896 1.243 . S
O889 Tb840 2.413 . S
O889 C904 1.256 . S
O890 Tb851 2.546 . S
O890 C915 1.251 . S
O891 Tb840 2.362 . S
O891 Tb851 2.610 . S
O891 C907 1.283 . S
O892 Tb840 2.421 . S
O892 C914 1.262 . S
O893 Tb851 2.320 . S
O893 C914 1.260 . S
O894 Tb851 2.552 . S
O894 C907 1.243 . S
O895 Tb851 2.413 . S
O895 C915 1.256 . S
C896 O885 1.283 . S
C896 O888 1.243 . S
C897 C899 1.382 . S
C897 C901 1.393 . S
C897 C904 1.500 . S
C898 C899 1.400 1_545 S
C898 C900 1.384 . S
C899 C897 1.382 . S
C899 C898 1.400 1_565 S
C899 H916 0.930 . S
C900 C898 1.384 . S
C900 C902 1.392 . S
C900 H917 0.931 . S
C901 C897 1.393 . S
C901 C902 1.401 1_565 S
C901 H918 0.930 . S
C902 C900 1.392 . S
C902 C901 1.401 1_545 S
C902 H919 0.930 . S
C903 O886 1.262 . S
C903 O887 1.260 . S
C904 Tb840 2.833 . S
C904 O884 1.251 . S
C904 O889 1.256 . S
C904 C897 1.500 . S
C905 H870 0.929 . S
C905 C883 1.444 . S
C905 C906 1.317 . S
C906 H868 0.930 . S
C906 C874 1.432 . S
C906 C905 1.317 . S
C907 O891 1.283 . S
C907 O894 1.243 . S
C908 C909 1.382 . S
C908 C912 1.393 . S
C908 C915 1.500 . S
C909 C908 1.382 . S
C909 C910 1.400 . S
C909 H920 0.930 . S
C910 C909 1.400 . S
C910 C911 1.384 . S
C911 C910 1.384 . S
C911 C913 1.392 . S
C911 H921 0.931 . S
C912 C908 1.393 . S
C912 C913 1.401 . S
C912 H922 0.930 . S
C913 C911 1.392 . S
C913 C912 1.401 . S
C913 H923 0.930 . S
C914 O892 1.262 . S
C914 O893 1.260 . S
C915 Tb851 2.833 . S
C915 O890 1.251 . S
C915 O895 1.256 . S
C915 C908 1.500 . S
H916 C899 0.930 . S
H917 C900 0.931 . S
H918 C901 0.930 . S
H919 C902 0.930 . S
H920 C909 0.930 . S
H921 C911 0.931 . S
H922 C912 0.930 . S
H923 C913 0.930 . S
Tb924 N955 2.660 . S
Tb924 N962 2.600 . S
Tb924 O968 2.546 . S
Tb924 O969 2.610 . S
Tb924 O971 2.320 . S
Tb924 O972 2.552 . S
Tb924 O973 2.413 . S
Tb924 O975 2.362 . S
Tb924 O976 2.421 . S
Tb924 C988 2.833 . S
C925 C928 1.432 . S
C925 C929 1.414 . S
C925 N932 1.359 . S
C926 C928 1.417 . S
C926 C930 1.432 . S
C926 C938 1.410 . S
C927 C929 1.444 . S
C927 C930 1.317 . S
C927 H950 0.929 . S
C928 C925 1.432 . S
C928 C926 1.417 . S
C928 N936 1.360 . S
C929 C925 1.414 . S
C929 C927 1.444 . S
C929 C934 1.385 . S
C930 C926 1.432 . S
C930 C927 1.317 . S
C930 H942 0.930 . S
C931 C933 1.392 . S
C931 C934 1.370 . S
C931 H943 0.931 . S
N932 C925 1.359 . S
N932 C933 1.327 . S
N932 Tb935 2.600 . S
C933 C931 1.392 . S
C933 N932 1.327 . S
C933 H940 0.930 . S
C934 C929 1.385 . S
C934 C931 1.370 . S
C934 H953 0.930 . S
Tb935 N932 2.600 . S
Tb935 N936 2.660 . S
Tb935 O969 2.362 . S
Tb935 O970 2.421 . S
Tb935 O974 2.546 . S
Tb935 O975 2.610 . S
Tb935 O977 2.320 . S
Tb935 O978 2.552 . S
Tb935 O979 2.413 . S
Tb935 C999 2.833 . S
N936 C928 1.360 . S
N936 Tb935 2.660 . S
N936 C937 1.305 . S
C937 N936 1.305 . S
C937 C939 1.407 . S
C937 H944 0.930 . S
C938 C926 1.410 . S
C938 C939 1.345 . S
C938 H946 0.930 . S
C939 C937 1.407 . S
C939 C938 1.345 . S
C939 H941 0.930 . S
H940 C933 0.930 . S
H941 C939 0.930 . S
H942 C930 0.930 . S
H943 C931 0.931 . S
H944 C937 0.930 . S
H945 C959 0.930 . S
H946 C938 0.930 . S
H947 C965 0.930 . S
H948 C956 0.930 . S
H949 C963 0.931 . S
H950 C927 0.929 . S
H951 C957 0.930 . S
H952 C990 0.930 1_545 S
H953 C934 0.930 . S
H954 C989 0.929 . S
N955 Tb924 2.660 . S
N955 C956 1.305 . S
N955 C960 1.360 . S
C956 H948 0.930 . S
C956 N955 1.305 . S
C956 C959 1.407 . S
C957 H951 0.930 . S
C957 C958 1.410 . S
C957 C959 1.345 . S
C958 C957 1.410 . S
C958 C960 1.417 . S
C958 C990 1.432 . S
C959 H945 0.930 . S
C959 C956 1.407 . S
C959 C957 1.345 . S
C960 N955 1.360 . S
C960 C958 1.417 . S
C960 C964 1.432 . S
H961 C966 0.930 . S
N962 Tb924 2.600 . S
N962 C964 1.359 . S
N962 C965 1.327 . S
C963 H949 0.931 . S
C963 C965 1.392 . S
C963 C966 1.370 . S
C964 C960 1.432 . S
C964 N962 1.359 . S
C964 C967 1.414 . S
C965 H947 0.930 . S
C965 N962 1.327 . S
C965 C963 1.392 . S
C966 H961 0.930 . S
C966 C963 1.370 . S
C966 C967 1.385 . S
C967 C964 1.414 . S
C967 C966 1.385 . S
C967 C989 1.444 . S
O968 Tb924 2.546 . S
O968 C988 1.251 . S
O969 Tb924 2.610 . S
O969 Tb935 2.362 . S
O969 C980 1.283 . S
O970 Tb935 2.421 . S
O970 C987 1.262 . S
O971 Tb924 2.320 . S
O971 C987 1.260 . S
O972 Tb924 2.552 . S
O972 C980 1.243 . S
O973 Tb924 2.413 . S
O973 C988 1.256 . S
O974 Tb935 2.546 . S
O974 C999 1.251 . S
O975 Tb924 2.362 . S
O975 Tb935 2.610 . S
O975 C991 1.283 . S
O976 Tb924 2.421 . S
O976 C998 1.262 . S
O977 Tb935 2.320 . S
O977 C998 1.260 . S
O978 Tb935 2.552 . S
O978 C991 1.243 . S
O979 Tb935 2.413 . S
O979 C999 1.256 . S
C980 O969 1.283 . S
C980 O972 1.243 . S
C981 C983 1.382 . S
C981 C985 1.393 . S
C981 C988 1.500 . S
C982 C983 1.400 . S
C982 C984 1.384 . S
C983 C981 1.382 . S
C983 C982 1.400 . S
C983 H1000 0.930 . S
C984 C982 1.384 . S
C984 C986 1.392 . S
C984 H1001 0.931 . S
C985 C981 1.393 . S
C985 C986 1.401 . S
C985 H1002 0.930 . S
C986 C984 1.392 . S
C986 C985 1.401 . S
C986 H1003 0.930 . S
C987 O970 1.262 . S
C987 O971 1.260 . S
C988 Tb924 2.833 . S
C988 O968 1.251 . S
C988 O973 1.256 . S
C988 C981 1.500 . S
C989 H954 0.929 . S
C989 C967 1.444 . S
C989 C990 1.317 . S
C990 H952 0.930 1_565 S
C990 C958 1.432 . S
C990 C989 1.317 . S
C991 O975 1.283 . S
C991 O978 1.243 . S
C992 C993 1.382 . S
C992 C996 1.393 . S
C992 C999 1.500 . S
C993 C992 1.382 . S
C993 C994 1.400 . S
C993 H1004 0.930 . S
C994 C993 1.400 . S
C994 C995 1.384 . S
C995 C994 1.384 . S
C995 C997 1.392 . S
C995 H1005 0.931 . S
C996 C992 1.393 . S
C996 C997 1.401 . S
C996 H1006 0.930 . S
C997 C995 1.392 . S
C997 C996 1.401 . S
C997 H1007 0.930 . S
C998 O976 1.262 . S
C998 O977 1.260 . S
C999 Tb935 2.833 . S
C999 O974 1.251 . S
C999 O979 1.256 . S
C999 C992 1.500 . S
H1000 C983 0.930 . S
H1001 C984 0.931 . S
H1002 C985 0.930 . S
H1003 C986 0.930 . S
H1004 C993 0.930 . S
H1005 C995 0.931 . S
H1006 C996 0.930 . S
H1007 C997 0.930 . S
C1008 C1009 1.349 . S
C1008 C1010 1.327 . S
C1008 H1033 0.950 . S
C1009 C1008 1.349 . S
C1009 C1025 1.349 . S
C1010 C1008 1.327 . S
C1010 C1029 1.429 . S
C1010 H1034 0.950 . S
C1011 C1028 1.574 . S
C1011 C1030 1.368 . S
C1011 H1035 0.949 . S
H1012 C1016 0.949 . S
C1013 C1014 1.349 . S
C1013 C1015 1.327 . S
C1013 H1036 0.950 . S
C1014 C1013 1.349 . S
C1014 C1026 1.349 . S
C1015 C1013 1.327 . S
C1015 C1031 1.429 . S
C1015 H1037 0.950 . S
C1016 H1012 0.949 . S
C1016 C1024 1.574 . S
C1016 C1032 1.368 . S
H1017 C1025 0.950 . S
H1018 C1023 0.950 . S
H1019 C1024 0.949 . S
H1020 C1026 0.950 . S
H1021 C1027 0.950 . S
H1022 C1028 0.949 . S
C1023 H1018 0.950 . S
C1023 C1025 1.327 . S
C1023 C1029 1.429 . S
C1024 C1016 1.574 . S
C1024 H1019 0.949 . S
C1024 C1030 1.368 . S
C1025 C1009 1.349 . S
C1025 H1017 0.950 . S
C1025 C1023 1.327 . S
C1026 C1014 1.349 . S
C1026 H1020 0.950 . S
C1026 C1027 1.327 . S
C1027 H1021 0.950 . S
C1027 C1026 1.327 . S
C1027 C1031 1.429 . S
C1028 C1011 1.574 . S
C1028 H1022 0.949 . S
C1028 C1032 1.368 . S
C1029 C1010 1.429 . S
C1029 C1023 1.429 . S
C1029 C1030 1.523 . S
C1030 C1011 1.368 . S
C1030 C1024 1.368 . S
C1030 C1029 1.523 . S
C1031 C1015 1.429 . S
C1031 C1027 1.429 . S
C1031 C1032 1.523 . S
C1032 C1016 1.368 . S
C1032 C1028 1.368 . S
C1032 C1031 1.523 . S
H1033 C1008 0.950 . S
H1034 C1010 0.950 . S
H1035 C1011 0.949 . S
H1036 C1013 0.950 . S
H1037 C1015 0.950 . S
C1038 C1039 1.349 . S
C1038 C1040 1.327 . S
C1038 H1063 0.950 . S
C1039 C1038 1.349 . S
C1039 C1055 1.349 . S
C1040 C1038 1.327 . S
C1040 C1059 1.429 . S
C1040 H1064 0.950 . S
C1041 C1058 1.574 1_455 S
C1041 C1060 1.368 . S
C1041 H1065 0.949 . S
H1042 C1046 0.949 . S
C1043 C1044 1.349 . S
C1043 C1045 1.327 . S
C1043 H1066 0.950 . S
C1044 C1043 1.349 . S
C1044 C1056 1.349 . S
C1045 C1043 1.327 . S
C1045 C1061 1.429 . S
C1045 H1067 0.950 . S
C1046 H1042 0.949 . S
C1046 C1054 1.574 . S
C1046 C1062 1.368 1_455 S
H1047 C1055 0.950 . S
H1048 C1053 0.950 . S
H1049 C1054 0.949 . S
H1050 C1056 0.950 . S
H1051 C1057 0.950 . S
H1052 C1058 0.949 . S
C1053 H1048 0.950 . S
C1053 C1055 1.327 . S
C1053 C1059 1.429 . S
C1054 C1046 1.574 . S
C1054 H1049 0.949 . S
C1054 C1060 1.368 . S
C1055 C1039 1.349 . S
C1055 H1047 0.950 . S
C1055 C1053 1.327 . S
C1056 C1044 1.349 . S
C1056 H1050 0.950 . S
C1056 C1057 1.327 . S
C1057 H1051 0.950 . S
C1057 C1056 1.327 . S
C1057 C1061 1.429 . S
C1058 C1041 1.574 1_655 S
C1058 H1052 0.949 . S
C1058 C1062 1.368 . S
C1059 C1040 1.429 . S
C1059 C1053 1.429 . S
C1059 C1060 1.523 . S
C1060 C1041 1.368 . S
C1060 C1054 1.368 . S
C1060 C1059 1.523 . S
C1061 C1045 1.429 . S
C1061 C1057 1.429 . S
C1061 C1062 1.523 . S
C1062 C1046 1.368 1_655 S
C1062 C1058 1.368 . S
C1062 C1061 1.523 . S
H1063 C1038 0.950 . S
H1064 C1040 0.950 . S
H1065 C1041 0.949 . S
H1066 C1043 0.950 . S
H1067 C1045 0.950 . S
C1068 C1069 1.349 . S
C1068 C1070 1.327 . S
C1068 H1093 0.950 . S
C1069 C1068 1.349 . S
C1069 C1085 1.349 . S
C1070 C1068 1.327 . S
C1070 C1089 1.429 . S
C1070 H1094 0.950 . S
C1071 C1088 1.574 . S
C1071 C1090 1.368 1_565 S
C1071 H1095 0.949 . S
H1072 C1076 0.949 . S
C1073 C1074 1.349 . S
C1073 C1075 1.327 . S
C1073 H1096 0.950 . S
C1074 C1073 1.349 . S
C1074 C1086 1.349 . S
C1075 C1073 1.327 . S
C1075 C1091 1.429 . S
C1075 H1097 0.950 . S
C1076 H1072 0.949 . S
C1076 C1084 1.574 1_565 S
C1076 C1092 1.368 . S
H1077 C1085 0.950 . S
H1078 C1083 0.950 . S
H1079 C1084 0.949 . S
H1080 C1086 0.950 . S
H1081 C1087 0.950 . S
H1082 C1088 0.949 . S
C1083 H1078 0.950 . S
C1083 C1085 1.327 . S
C1083 C1089 1.429 . S
C1084 C1076 1.574 1_545 S
C1084 H1079 0.949 . S
C1084 C1090 1.368 . S
C1085 C1069 1.349 . S
C1085 H1077 0.950 . S
C1085 C1083 1.327 . S
C1086 C1074 1.349 . S
C1086 H1080 0.950 . S
C1086 C1087 1.327 . S
C1087 H1081 0.950 . S
C1087 C1086 1.327 . S
C1087 C1091 1.429 . S
C1088 C1071 1.574 . S
C1088 H1082 0.949 . S
C1088 C1092 1.368 . S
C1089 C1070 1.429 . S
C1089 C1083 1.429 . S
C1089 C1090 1.523 . S
C1090 C1071 1.368 1_545 S
C1090 C1084 1.368 . S
C1090 C1089 1.523 . S
C1091 C1075 1.429 . S
C1091 C1087 1.429 . S
C1091 C1092 1.523 . S
C1092 C1076 1.368 . S
C1092 C1088 1.368 . S
C1092 C1091 1.523 . S
H1093 C1068 0.950 . S
H1094 C1070 0.950 . S
H1095 C1071 0.949 . S
H1096 C1073 0.950 . S
H1097 C1075 0.950 . S
C1098 C1099 1.349 . S
C1098 C1100 1.327 . S
C1098 H1123 0.950 . S
C1099 C1098 1.349 . S
C1099 C1115 1.349 . S
C1100 C1098 1.327 . S
C1100 C1119 1.429 . S
C1100 H1124 0.950 . S
C1101 C1118 1.574 . S
C1101 C1120 1.368 . S
C1101 H1125 0.949 . S
H1102 C1106 0.949 . S
C1103 C1104 1.349 . S
C1103 C1105 1.327 . S
C1103 H1126 0.950 . S
C1104 C1103 1.349 . S
C1104 C1116 1.349 . S
C1105 C1103 1.327 . S
C1105 C1121 1.429 . S
C1105 H1127 0.950 . S
C1106 H1102 0.949 . S
C1106 C1114 1.574 . S
C1106 C1122 1.368 . S
H1107 C1115 0.950 . S
H1108 C1113 0.950 . S
H1109 C1114 0.949 . S
H1110 C1116 0.950 . S
H1111 C1117 0.950 . S
H1112 C1118 0.949 . S
C1113 H1108 0.950 . S
C1113 C1115 1.327 . S
C1113 C1119 1.429 . S
C1114 C1106 1.574 . S
C1114 H1109 0.949 . S
C1114 C1120 1.368 . S
C1115 C1099 1.349 . S
C1115 H1107 0.950 . S
C1115 C1113 1.327 . S
C1116 C1104 1.349 . S
C1116 H1110 0.950 . S
C1116 C1117 1.327 . S
C1117 H1111 0.950 . S
C1117 C1116 1.327 . S
C1117 C1121 1.429 . S
C1118 C1101 1.574 . S
C1118 H1112 0.949 . S
C1118 C1122 1.368 . S
C1119 C1100 1.429 . S
C1119 C1113 1.429 . S
C1119 C1120 1.523 . S
C1120 C1101 1.368 . S
C1120 C1114 1.368 . S
C1120 C1119 1.523 . S
C1121 C1105 1.429 . S
C1121 C1117 1.429 . S
C1121 C1122 1.523 . S
C1122 C1106 1.368 . S
C1122 C1118 1.368 . S
C1122 C1121 1.523 . S
H1123 C1098 0.950 . S
H1124 C1100 0.950 . S
H1125 C1101 0.949 . S
H1126 C1103 0.950 . S
H1127 C1105 0.950 . S
C1128 C1129 1.349 . S
C1128 C1130 1.327 . S
C1128 H1153 0.950 . S
C1129 C1128 1.349 . S
C1129 C1145 1.349 . S
C1130 C1128 1.327 . S
C1130 C1149 1.429 . S
C1130 H1154 0.950 . S
C1131 C1148 1.574 . S
C1131 C1150 1.368 . S
C1131 H1155 0.949 . S
H1132 C1136 0.949 . S
C1133 C1134 1.349 . S
C1133 C1135 1.327 . S
C1133 H1156 0.950 . S
C1134 C1133 1.349 . S
C1134 C1146 1.349 . S
C1135 C1133 1.327 . S
C1135 C1151 1.429 . S
C1135 H1157 0.950 . S
C1136 H1132 0.949 . S
C1136 C1144 1.574 1_655 S
C1136 C1152 1.368 . S
H1137 C1145 0.950 . S
H1138 C1143 0.950 . S
H1139 C1144 0.949 . S
H1140 C1146 0.950 . S
H1141 C1147 0.950 . S
H1142 C1148 0.949 . S
C1143 H1138 0.950 . S
C1143 C1145 1.327 . S
C1143 C1149 1.429 . S
C1144 C1136 1.574 1_455 S
C1144 H1139 0.949 . S
C1144 C1150 1.368 . S
C1145 C1129 1.349 . S
C1145 H1137 0.950 . S
C1145 C1143 1.327 . S
C1146 C1134 1.349 . S
C1146 H1140 0.950 . S
C1146 C1147 1.327 . S
C1147 H1141 0.950 . S
C1147 C1146 1.327 . S
C1147 C1151 1.429 . S
C1148 C1131 1.574 . S
C1148 H1142 0.949 . S
C1148 C1152 1.368 1_455 S
C1149 C1130 1.429 . S
C1149 C1143 1.429 . S
C1149 C1150 1.523 . S
C1150 C1131 1.368 . S
C1150 C1144 1.368 . S
C1150 C1149 1.523 . S
C1151 C1135 1.429 . S
C1151 C1147 1.429 . S
C1151 C1152 1.523 . S
C1152 C1136 1.368 . S
C1152 C1148 1.368 1_655 S
C1152 C1151 1.523 . S
H1153 C1128 0.950 . S
H1154 C1130 0.950 . S
H1155 C1131 0.949 . S
H1156 C1133 0.950 . S
H1157 C1135 0.950 . S
C1158 C1159 1.349 . S
C1158 C1160 1.327 . S
C1158 H1183 0.950 . S
C1159 C1158 1.349 . S
C1159 C1175 1.349 . S
C1160 C1158 1.327 . S
C1160 C1179 1.429 . S
C1160 H1184 0.950 . S
C1161 C1178 1.574 . S
C1161 C1180 1.368 . S
C1161 H1185 0.949 . S
H1162 C1166 0.949 . S
C1163 C1164 1.349 . S
C1163 C1165 1.327 . S
C1163 H1186 0.950 . S
C1164 C1163 1.349 . S
C1164 C1176 1.349 . S
C1165 C1163 1.327 . S
C1165 C1181 1.429 . S
C1165 H1187 0.950 . S
C1166 H1162 0.949 . S
C1166 C1174 1.574 1_545 S
C1166 C1182 1.368 . S
H1167 C1175 0.950 . S
H1168 C1173 0.950 . S
H1169 C1174 0.949 . S
H1170 C1176 0.950 . S
H1171 C1177 0.950 . S
H1172 C1178 0.949 . S
C1173 H1168 0.950 . S
C1173 C1175 1.327 . S
C1173 C1179 1.429 . S
C1174 C1166 1.574 1_565 S
C1174 H1169 0.949 . S
C1174 C1180 1.368 . S
C1175 C1159 1.349 . S
C1175 H1167 0.950 . S
C1175 C1173 1.327 . S
C1176 C1164 1.349 . S
C1176 H1170 0.950 . S
C1176 C1177 1.327 . S
C1177 H1171 0.950 . S
C1177 C1176 1.327 . S
C1177 C1181 1.429 . S
C1178 C1161 1.574 . S
C1178 H1172 0.949 . S
C1178 C1182 1.368 1_565 S
C1179 C1160 1.429 . S
C1179 C1173 1.429 . S
C1179 C1180 1.523 . S
C1180 C1161 1.368 . S
C1180 C1174 1.368 . S
C1180 C1179 1.523 . S
C1181 C1165 1.429 . S
C1181 C1177 1.429 . S
C1181 C1182 1.523 . S
C1182 C1166 1.368 . S
C1182 C1178 1.368 1_545 S
C1182 C1181 1.523 . S
H1183 C1158 0.950 . S
H1184 C1160 0.950 . S
H1185 C1161 0.949 . S
H1186 C1163 0.950 . S
H1187 C1165 0.950 . S
C1188 C1189 1.349 . S
C1188 C1190 1.327 . S
C1188 H1213 0.950 . S
C1189 C1188 1.349 . S
C1189 C1205 1.349 . S
C1190 C1188 1.327 . S
C1190 C1209 1.429 . S
C1190 H1214 0.950 . S
C1191 C1208 1.574 . S
C1191 C1210 1.368 . S
C1191 H1215 0.949 . S
H1192 C1196 0.949 . S
C1193 C1194 1.349 . S
C1193 C1195 1.327 . S
C1193 H1216 0.950 . S
C1194 C1193 1.349 . S
C1194 C1206 1.349 . S
C1195 C1193 1.327 . S
C1195 C1211 1.429 . S
C1195 H1217 0.950 . S
C1196 H1192 0.949 . S
C1196 C1204 1.574 . S
C1196 C1212 1.368 . S
H1197 C1205 0.950 . S
H1198 C1203 0.950 . S
H1199 C1204 0.949 . S
H1200 C1206 0.950 . S
H1201 C1207 0.950 . S
H1202 C1208 0.949 . S
C1203 H1198 0.950 . S
C1203 C1205 1.327 . S
C1203 C1209 1.429 . S
C1204 C1196 1.574 . S
C1204 H1199 0.949 . S
C1204 C1210 1.368 . S
C1205 C1189 1.349 . S
C1205 H1197 0.950 . S
C1205 C1203 1.327 . S
C1206 C1194 1.349 . S
C1206 H1200 0.950 . S
C1206 C1207 1.327 . S
C1207 H1201 0.950 . S
C1207 C1206 1.327 . S
C1207 C1211 1.429 . S
C1208 C1191 1.574 . S
C1208 H1202 0.949 . S
C1208 C1212 1.368 . S
C1209 C1190 1.429 . S
C1209 C1203 1.429 . S
C1209 C1210 1.523 . S
C1210 C1191 1.368 . S
C1210 C1204 1.368 . S
C1210 C1209 1.523 . S
C1211 C1195 1.429 . S
C1211 C1207 1.429 . S
C1211 C1212 1.523 . S
C1212 C1196 1.368 . S
C1212 C1208 1.368 . S
C1212 C1211 1.523 . S
H1213 C1188 0.950 . S
H1214 C1190 0.950 . S
H1215 C1191 0.949 . S
H1216 C1193 0.950 . S
H1217 C1195 0.950 . S
C1218 C1219 1.349 . S
C1218 C1220 1.327 . S
C1218 H1243 0.950 . S
C1219 C1218 1.349 . S
C1219 C1235 1.349 . S
C1220 C1218 1.327 . S
C1220 C1239 1.429 . S
C1220 H1244 0.950 . S
C1221 C1238 1.574 . S
C1221 C1240 1.368 1_655 S
C1221 H1245 0.949 . S
H1222 C1226 0.949 . S
C1223 C1224 1.349 . S
C1223 C1225 1.327 . S
C1223 H1246 0.950 . S
C1224 C1223 1.349 . S
C1224 C1236 1.349 . S
C1225 C1223 1.327 . S
C1225 C1241 1.429 . S
C1225 H1247 0.950 . S
C1226 H1222 0.949 . S
C1226 C1234 1.550 1_655 S
C1226 C1242 1.368 . S
H1227 C1235 0.950 . S
H1228 C1233 0.950 . S
H1229 C1234 0.961 . S
H1230 C1236 0.950 . S
H1231 C1237 0.950 . S
H1232 C1238 0.949 . S
C1233 H1228 0.950 . S
C1233 C1235 1.327 . S
C1233 C1239 1.429 . S
C1234 C1226 1.550 1_455 S
C1234 H1229 0.961 . S
C1234 C1240 1.379 . S
C1235 C1219 1.349 . S
C1235 H1227 0.950 . S
C1235 C1233 1.327 . S
C1236 C1224 1.349 . S
C1236 H1230 0.950 . S
C1236 C1237 1.327 . S
C1237 H1231 0.950 . S
C1237 C1236 1.327 . S
C1237 C1241 1.429 . S
C1238 C1221 1.574 . S
C1238 H1232 0.949 . S
C1238 C1242 1.368 . S
C1239 C1220 1.429 . S
C1239 C1233 1.429 . S
C1239 C1240 1.523 . S
C1240 C1221 1.368 1_455 S
C1240 C1234 1.379 . S
C1240 C1239 1.523 . S
C1241 C1225 1.429 . S
C1241 C1237 1.429 . S
C1241 C1242 1.523 . S
C1242 C1226 1.368 . S
C1242 C1238 1.368 . S
C1242 C1241 1.523 . S
H1243 C1218 0.950 . S
H1244 C1220 0.950 . S
H1245 C1221 0.949 . S
H1246 C1223 0.950 . S
H1247 C1225 0.950 . S
C1248 C1249 1.349 . S
C1248 C1250 1.327 . S
C1248 H1273 0.950 . S
C1249 C1248 1.349 . S
C1249 C1265 1.349 . S
C1250 C1248 1.327 . S
C1250 C1269 1.429 . S
C1250 H1274 0.950 . S
C1251 C1268 1.574 . S
C1251 C1270 1.368 1_545 S
C1251 H1275 0.949 . S
H1252 C1256 0.949 . S
C1253 C1254 1.349 . S
C1253 C1255 1.327 . S
C1253 H1276 0.950 . S
C1254 C1253 1.349 . S
C1254 C1266 1.349 . S
C1255 C1253 1.327 . S
C1255 C1271 1.429 . S
C1255 H1277 0.950 . S
C1256 H1252 0.949 . S
C1256 C1264 1.574 1_545 S
C1256 C1272 1.368 . S
H1257 C1265 0.950 . S
H1258 C1263 0.950 . S
H1259 C1264 0.949 . S
H1260 C1266 0.950 . S
H1261 C1267 0.950 . S
H1262 C1268 0.949 . S
C1263 H1258 0.950 . S
C1263 C1265 1.327 . S
C1263 C1269 1.429 . S
C1264 C1256 1.574 1_565 S
C1264 H1259 0.949 . S
C1264 C1270 1.368 . S
C1265 C1249 1.349 . S
C1265 H1257 0.950 . S
C1265 C1263 1.327 . S
C1266 C1254 1.349 . S
C1266 H1260 0.950 . S
C1266 C1267 1.327 . S
C1267 H1261 0.950 . S
C1267 C1266 1.327 . S
C1267 C1271 1.429 . S
C1268 C1251 1.574 . S
C1268 H1262 0.949 . S
C1268 C1272 1.368 . S
C1269 C1250 1.429 . S
C1269 C1263 1.429 . S
C1269 C1270 1.523 . S
C1270 C1251 1.368 1_565 S
C1270 C1264 1.368 . S
C1270 C1269 1.523 . S
C1271 C1255 1.429 . S
C1271 C1267 1.429 . S
C1271 C1272 1.523 . S
C1272 C1256 1.368 . S
C1272 C1268 1.368 . S
C1272 C1271 1.523 . S
H1273 C1248 0.950 . S
H1274 C1250 0.950 . S
H1275 C1251 0.949 . S
H1276 C1253 0.950 . S
H1277 C1255 0.950 . S
C1278 C1279 1.349 . S
C1278 C1280 1.327 . S
C1278 H1303 0.950 . S
C1279 C1278 1.349 . S
C1279 C1295 1.349 . S
C1280 C1278 1.327 . S
C1280 C1299 1.429 . S
C1280 H1304 0.950 . S
C1281 C1298 1.574 . S
C1281 C1300 1.368 . S
C1281 H1305 0.949 . S
H1282 C1286 0.949 . S
C1283 C1284 1.349 . S
C1283 C1285 1.327 . S
C1283 H1306 0.950 . S
C1284 C1283 1.349 . S
C1284 C1296 1.349 . S
C1285 C1283 1.327 . S
C1285 C1301 1.429 . S
C1285 H1307 0.950 . S
C1286 H1282 0.949 . S
C1286 C1294 1.574 . S
C1286 C1302 1.368 . S
H1287 C1295 0.950 . S
H1288 C1293 0.950 . S
H1289 C1294 0.949 . S
H1290 C1296 0.950 . S
H1291 C1297 0.950 . S
H1292 C1298 0.949 . S
C1293 H1288 0.950 . S
C1293 C1295 1.327 . S
C1293 C1299 1.429 . S
C1294 C1286 1.574 . S
C1294 H1289 0.949 . S
C1294 C1300 1.368 . S
C1295 C1279 1.349 . S
C1295 H1287 0.950 . S
C1295 C1293 1.327 . S
C1296 C1284 1.349 . S
C1296 H1290 0.950 . S
C1296 C1297 1.327 . S
C1297 H1291 0.950 . S
C1297 C1296 1.327 . S
C1297 C1301 1.429 . S
C1298 C1281 1.574 . S
C1298 H1292 0.949 . S
C1298 C1302 1.368 . S
C1299 C1280 1.429 . S
C1299 C1293 1.429 . S
C1299 C1300 1.523 . S
C1300 C1281 1.368 . S
C1300 C1294 1.368 . S
C1300 C1299 1.523 . S
C1301 C1285 1.429 . S
C1301 C1297 1.429 . S
C1301 C1302 1.523 . S
C1302 C1286 1.368 . S
C1302 C1298 1.368 . S
C1302 C1301 1.523 . S
H1303 C1278 0.950 . S
H1304 C1280 0.950 . S
H1305 C1281 0.949 . S
H1306 C1283 0.950 . S
H1307 C1285 0.950 . S
C1308 C1309 1.349 . S
C1308 C1310 1.327 . S
C1308 H1333 0.950 . S
C1309 C1308 1.349 . S
C1309 C1325 1.349 . S
C1310 C1308 1.327 . S
C1310 C1329 1.429 . S
C1310 H1334 0.950 . S
C1311 C1328 1.574 . S
C1311 C1330 1.368 1_655 S
C1311 H1335 0.949 . S
H1312 C1316 0.949 . S
C1313 C1314 1.349 . S
C1313 C1315 1.327 . S
C1313 H1336 0.950 . S
C1314 C1313 1.349 . S
C1314 C1326 1.349 . S
C1315 C1313 1.327 . S
C1315 C1331 1.429 . S
C1315 H1337 0.950 . S
C1316 H1312 0.949 . S
C1316 C1324 1.574 1_655 S
C1316 C1332 1.368 . S
H1317 C1325 0.950 . S
H1318 C1323 0.950 . S
H1319 C1324 0.949 . S
H1320 C1326 0.950 . S
H1321 C1327 0.950 . S
H1322 C1328 0.949 . S
C1323 H1318 0.950 . S
C1323 C1325 1.327 . S
C1323 C1329 1.429 . S
C1324 C1316 1.574 1_455 S
C1324 H1319 0.949 . S
C1324 C1330 1.368 . S
C1325 C1309 1.349 . S
C1325 H1317 0.950 . S
C1325 C1323 1.327 . S
C1326 C1314 1.349 . S
C1326 H1320 0.950 . S
C1326 C1327 1.327 . S
C1327 H1321 0.950 . S
C1327 C1326 1.327 . S
C1327 C1331 1.429 . S
C1328 C1311 1.574 . S
C1328 H1322 0.949 . S
C1328 C1332 1.368 . S
C1329 C1310 1.429 . S
C1329 C1323 1.429 . S
C1329 C1330 1.523 . S
C1330 C1311 1.368 1_455 S
C1330 C1324 1.368 . S
C1330 C1329 1.523 . S
C1331 C1315 1.429 . S
C1331 C1327 1.429 . S
C1331 C1332 1.523 . S
C1332 C1316 1.368 . S
C1332 C1328 1.368 . S
C1332 C1331 1.523 . S
H1333 C1308 0.950 . S
H1334 C1310 0.950 . S
H1335 C1311 0.949 . S
H1336 C1313 0.950 . S
H1337 C1315 0.950 . S
C1338 C1339 1.349 . S
C1338 C1340 1.327 . S
C1338 H1363 0.950 . S
C1339 C1338 1.349 . S
C1339 C1355 1.349 . S
C1340 C1338 1.327 . S
C1340 C1359 1.429 . S
C1340 H1364 0.950 . S
C1341 C1358 1.574 . S
C1341 C1360 1.368 . S
C1341 H1365 0.949 . S
H1342 C1346 0.949 . S
C1343 C1344 1.349 . S
C1343 C1345 1.327 . S
C1343 H1366 0.950 . S
C1344 C1343 1.349 . S
C1344 C1356 1.349 . S
C1345 C1343 1.327 . S
C1345 C1361 1.429 . S
C1345 H1367 0.950 . S
C1346 H1342 0.949 . S
C1346 C1354 1.574 1_565 S
C1346 C1362 1.368 . S
H1347 C1355 0.950 . S
H1348 C1353 0.950 . S
H1349 C1354 0.949 . S
H1350 C1356 0.950 . S
H1351 C1357 0.950 . S
H1352 C1358 0.949 . S
C1353 H1348 0.950 . S
C1353 C1355 1.327 . S
C1353 C1359 1.429 . S
C1354 C1346 1.574 1_545 S
C1354 H1349 0.949 . S
C1354 C1360 1.368 . S
C1355 C1339 1.349 . S
C1355 H1347 0.950 . S
C1355 C1353 1.327 . S
C1356 C1344 1.349 . S
C1356 H1350 0.950 . S
C1356 C1357 1.327 . S
C1357 H1351 0.950 . S
C1357 C1356 1.327 . S
C1357 C1361 1.429 . S
C1358 C1341 1.574 . S
C1358 H1352 0.949 . S
C1358 C1362 1.368 1_545 S
C1359 C1340 1.429 . S
C1359 C1353 1.429 . S
C1359 C1360 1.523 . S
C1360 C1341 1.368 . S
C1360 C1354 1.368 . S
C1360 C1359 1.523 . S
C1361 C1345 1.429 . S
C1361 C1357 1.429 . S
C1361 C1362 1.523 . S
C1362 C1346 1.368 . S
C1362 C1358 1.368 1_565 S
C1362 C1361 1.523 . S
H1363 C1338 0.950 . S
H1364 C1340 0.950 . S
H1365 C1341 0.949 . S
H1366 C1343 0.950 . S
H1367 C1345 0.950 . S
C1368 C1369 1.349 . S
C1368 C1370 1.327 . S
C1368 H1393 0.950 . S
C1369 C1368 1.349 . S
C1369 C1385 1.349 . S
C1370 C1368 1.327 . S
C1370 C1389 1.429 . S
C1370 H1394 0.950 . S
C1371 C1388 1.574 . S
C1371 C1390 1.368 . S
C1371 H1395 0.949 . S
H1372 C1376 0.949 . S
C1373 C1374 1.349 . S
C1373 C1375 1.327 . S
C1373 H1396 0.950 . S
C1374 C1373 1.349 . S
C1374 C1386 1.349 . S
C1375 C1373 1.327 . S
C1375 C1391 1.429 . S
C1375 H1397 0.950 . S
C1376 H1372 0.949 . S
C1376 C1384 1.574 . S
C1376 C1392 1.368 . S
H1377 C1385 0.950 . S
H1378 C1383 0.950 . S
H1379 C1384 0.949 . S
H1380 C1386 0.950 . S
H1381 C1387 0.950 . S
H1382 C1388 0.949 . S
C1383 H1378 0.950 . S
C1383 C1385 1.327 . S
C1383 C1389 1.429 . S
C1384 C1376 1.574 . S
C1384 H1379 0.949 . S
C1384 C1390 1.368 . S
C1385 C1369 1.349 . S
C1385 H1377 0.950 . S
C1385 C1383 1.327 . S
C1386 C1374 1.349 . S
C1386 H1380 0.950 . S
C1386 C1387 1.327 . S
C1387 H1381 0.950 . S
C1387 C1386 1.327 . S
C1387 C1391 1.429 . S
C1388 C1371 1.574 . S
C1388 H1382 0.949 . S
C1388 C1392 1.368 . S
C1389 C1370 1.429 . S
C1389 C1383 1.429 . S
C1389 C1390 1.523 . S
C1390 C1371 1.368 . S
C1390 C1384 1.368 . S
C1390 C1389 1.523 . S
C1391 C1375 1.429 . S
C1391 C1387 1.429 . S
C1391 C1392 1.523 . S
C1392 C1376 1.368 . S
C1392 C1388 1.368 . S
C1392 C1391 1.523 . S
H1393 C1368 0.950 . S
H1394 C1370 0.950 . S
H1395 C1371 0.949 . S
H1396 C1373 0.950 . S
H1397 C1375 0.950 . S
C1398 C1399 1.349 . S
C1398 C1400 1.327 . S
C1398 H1423 0.950 . S
C1399 C1398 1.349 . S
C1399 C1415 1.349 . S
C1400 C1398 1.327 . S
C1400 C1419 1.429 . S
C1400 H1424 0.950 . S
C1401 C1418 1.574 . S
C1401 C1420 1.368 . S
C1401 H1425 0.949 . S
H1402 C1406 0.949 . S
C1403 C1404 1.349 . S
C1403 C1405 1.327 . S
C1403 H1426 0.950 . S
C1404 C1403 1.349 . S
C1404 C1416 1.349 . S
C1405 C1403 1.327 . S
C1405 C1421 1.429 . S
C1405 H1427 0.950 . S
C1406 H1402 0.949 . S
C1406 C1414 1.574 . S
C1406 C1422 1.368 . S
H1407 C1415 0.950 . S
H1408 C1413 0.950 . S
H1409 C1414 0.949 . S
H1410 C1416 0.950 . S
H1411 C1417 0.950 . S
H1412 C1418 0.949 . S
C1413 H1408 0.950 . S
C1413 C1415 1.327 . S
C1413 C1419 1.429 . S
C1414 C1406 1.574 . S
C1414 H1409 0.949 . S
C1414 C1420 1.368 . S
C1415 C1399 1.349 . S
C1415 H1407 0.950 . S
C1415 C1413 1.327 . S
C1416 C1404 1.349 . S
C1416 H1410 0.950 . S
C1416 C1417 1.327 . S
C1417 H1411 0.950 . S
C1417 C1416 1.327 . S
C1417 C1421 1.429 . S
C1418 C1401 1.574 . S
C1418 H1412 0.949 . S
C1418 C1422 1.368 . S
C1419 C1400 1.429 . S
C1419 C1413 1.429 . S
C1419 C1420 1.523 . S
C1420 C1401 1.368 . S
C1420 C1414 1.368 . S
C1420 C1419 1.523 . S
C1421 C1405 1.429 . S
C1421 C1417 1.429 . S
C1421 C1422 1.523 . S
C1422 C1406 1.368 . S
C1422 C1418 1.368 . S
C1422 C1421 1.523 . S
H1423 C1398 0.950 . S
H1424 C1400 0.950 . S
H1425 C1401 0.949 . S
H1426 C1403 0.950 . S
H1427 C1405 0.950 . S
C1428 C1429 1.349 . S
C1428 C1430 1.327 . S
C1428 H1453 0.950 . S
C1429 C1428 1.349 . S
C1429 C1445 1.349 . S
C1430 C1428 1.327 . S
C1430 C1449 1.429 . S
C1430 H1454 0.950 . S
C1431 C1448 1.574 . S
C1431 C1450 1.368 . S
C1431 H1455 0.949 . S
H1432 C1436 0.949 . S
C1433 C1434 1.349 . S
C1433 C1435 1.327 . S
C1433 H1456 0.950 . S
C1434 C1433 1.349 . S
C1434 C1446 1.349 . S
C1435 C1433 1.327 . S
C1435 C1451 1.429 . S
C1435 H1457 0.950 . S
C1436 H1432 0.949 . S
C1436 C1444 1.574 . S
C1436 C1452 1.368 . S
H1437 C1445 0.950 . S
H1438 C1443 0.950 . S
H1439 C1444 0.949 . S
H1440 C1446 0.950 . S
H1441 C1447 0.950 . S
H1442 C1448 0.949 . S
C1443 H1438 0.950 . S
C1443 C1445 1.327 . S
C1443 C1449 1.429 . S
C1444 C1436 1.574 . S
C1444 H1439 0.949 . S
C1444 C1450 1.368 . S
C1445 C1429 1.349 . S
C1445 H1437 0.950 . S
C1445 C1443 1.327 . S
C1446 C1434 1.349 . S
C1446 H1440 0.950 . S
C1446 C1447 1.327 . S
C1447 H1441 0.950 . S
C1447 C1446 1.327 . S
C1447 C1451 1.429 . S
C1448 C1431 1.574 . S
C1448 H1442 0.949 . S
C1448 C1452 1.368 . S
C1449 C1430 1.429 . S
C1449 C1443 1.429 . S
C1449 C1450 1.523 . S
C1450 C1431 1.368 . S
C1450 C1444 1.368 . S
C1450 C1449 1.523 . S
C1451 C1435 1.429 . S
C1451 C1447 1.429 . S
C1451 C1452 1.523 . S
C1452 C1436 1.368 . S
C1452 C1448 1.368 . S
C1452 C1451 1.523 . S
H1453 C1428 0.950 . S
H1454 C1430 0.950 . S
H1455 C1431 0.949 . S
H1456 C1433 0.950 . S
H1457 C1435 0.950 . S
C1458 C1459 1.349 . S
C1458 C1460 1.327 . S
C1458 H1483 0.950 . S
C1459 C1458 1.349 . S
C1459 C1475 1.349 . S
C1460 C1458 1.327 . S
C1460 C1479 1.429 . S
C1460 H1484 0.950 . S
C1461 C1478 1.574 . S
C1461 C1480 1.368 . S
C1461 H1485 0.949 . S
H1462 C1466 0.949 . S
C1463 C1464 1.349 . S
C1463 C1465 1.327 . S
C1463 H1486 0.950 . S
C1464 C1463 1.349 . S
C1464 C1476 1.349 . S
C1465 C1463 1.327 . S
C1465 C1481 1.429 . S
C1465 H1487 0.950 . S
C1466 H1462 0.949 . S
C1466 C1474 1.574 . S
C1466 C1482 1.368 . S
H1467 C1475 0.950 . S
H1468 C1473 0.950 . S
H1469 C1474 0.949 . S
H1470 C1476 0.950 . S
H1471 C1477 0.950 . S
H1472 C1478 0.949 . S
C1473 H1468 0.950 . S
C1473 C1475 1.327 . S
C1473 C1479 1.429 . S
C1474 C1466 1.574 . S
C1474 H1469 0.949 . S
C1474 C1480 1.368 . S
C1475 C1459 1.349 . S
C1475 H1467 0.950 . S
C1475 C1473 1.327 . S
C1476 C1464 1.349 . S
C1476 H1470 0.950 . S
C1476 C1477 1.327 . S
C1477 H1471 0.950 . S
C1477 C1476 1.327 . S
C1477 C1481 1.429 . S
C1478 C1461 1.574 . S
C1478 H1472 0.949 . S
C1478 C1482 1.368 . S
C1479 C1460 1.429 . S
C1479 C1473 1.429 . S
C1479 C1480 1.523 . S
C1480 C1461 1.368 . S
C1480 C1474 1.368 . S
C1480 C1479 1.523 . S
C1481 C1465 1.429 . S
C1481 C1477 1.429 . S
C1481 C1482 1.523 . S
C1482 C1466 1.368 . S
C1482 C1478 1.368 . S
C1482 C1481 1.523 . S
H1483 C1458 0.950 . S
H1484 C1460 0.950 . S
H1485 C1461 0.949 . S
H1486 C1463 0.950 . S
H1487 C1465 0.950 . S
C1488 C1489 1.349 . S
C1488 C1490 1.327 . S
C1488 H1513 0.950 . S
C1489 C1488 1.349 . S
C1489 C1505 1.349 . S
C1490 C1488 1.327 . S
C1490 C1509 1.429 . S
C1490 H1514 0.950 . S
C1491 C1508 1.574 . S
C1491 C1510 1.368 . S
C1491 H1515 0.949 . S
H1492 C1496 0.949 . S
C1493 C1494 1.349 . S
C1493 C1495 1.327 . S
C1493 H1516 0.950 . S
C1494 C1493 1.349 . S
C1494 C1506 1.349 . S
C1495 C1493 1.327 . S
C1495 C1511 1.429 . S
C1495 H1517 0.950 . S
C1496 H1492 0.949 . S
C1496 C1504 1.574 . S
C1496 C1512 1.368 . S
H1497 C1505 0.950 . S
H1498 C1503 0.950 . S
H1499 C1504 0.949 . S
H1500 C1506 0.950 . S
H1501 C1507 0.950 . S
H1502 C1508 0.949 . S
C1503 H1498 0.950 . S
C1503 C1505 1.327 . S
C1503 C1509 1.429 . S
C1504 C1496 1.574 . S
C1504 H1499 0.949 . S
C1504 C1510 1.368 . S
C1505 C1489 1.349 . S
C1505 H1497 0.950 . S
C1505 C1503 1.327 . S
C1506 C1494 1.349 . S
C1506 H1500 0.950 . S
C1506 C1507 1.327 . S
C1507 H1501 0.950 . S
C1507 C1506 1.327 . S
C1507 C1511 1.429 . S
C1508 C1491 1.574 . S
C1508 H1502 0.949 . S
C1508 C1512 1.368 . S
C1509 C1490 1.429 . S
C1509 C1503 1.429 . S
C1509 C1510 1.523 . S
C1510 C1491 1.368 . S
C1510 C1504 1.368 . S
C1510 C1509 1.523 . S
C1511 C1495 1.429 . S
C1511 C1507 1.429 . S
C1511 C1512 1.523 . S
C1512 C1496 1.368 . S
C1512 C1508 1.368 . S
C1512 C1511 1.523 . S
H1513 C1488 0.950 . S
H1514 C1490 0.950 . S
H1515 C1491 0.949 . S
H1516 C1493 0.950 . S
H1517 C1495 0.950 . S
C1518 C1519 1.349 . S
C1518 C1520 1.327 . S
C1518 H1543 0.950 . S
C1519 C1518 1.349 . S
C1519 C1535 1.349 . S
C1520 C1518 1.327 . S
C1520 C1539 1.429 . S
C1520 H1544 0.950 . S
C1521 C1538 1.574 . S
C1521 C1540 1.368 . S
C1521 H1545 0.949 . S
H1522 C1526 0.949 . S
C1523 C1524 1.349 . S
C1523 C1525 1.327 . S
C1523 H1546 0.950 . S
C1524 C1523 1.349 . S
C1524 C1536 1.349 . S
C1525 C1523 1.327 . S
C1525 C1541 1.429 . S
C1525 H1547 0.950 . S
C1526 H1522 0.949 . S
C1526 C1534 1.574 . S
C1526 C1542 1.368 . S
H1527 C1535 0.950 . S
H1528 C1533 0.950 . S
H1529 C1534 0.949 . S
H1530 C1536 0.950 . S
H1531 C1537 0.950 . S
H1532 C1538 0.949 . S
C1533 H1528 0.950 . S
C1533 C1535 1.327 . S
C1533 C1539 1.429 . S
C1534 C1526 1.574 . S
C1534 H1529 0.949 . S
C1534 C1540 1.368 . S
C1535 C1519 1.349 . S
C1535 H1527 0.950 . S
C1535 C1533 1.327 . S
C1536 C1524 1.349 . S
C1536 H1530 0.950 . S
C1536 C1537 1.327 . S
C1537 H1531 0.950 . S
C1537 C1536 1.327 . S
C1537 C1541 1.429 . S
C1538 C1521 1.574 . S
C1538 H1532 0.949 . S
C1538 C1542 1.368 . S
C1539 C1520 1.429 . S
C1539 C1533 1.429 . S
C1539 C1540 1.523 . S
C1540 C1521 1.368 . S
C1540 C1534 1.368 . S
C1540 C1539 1.523 . S
C1541 C1525 1.429 . S
C1541 C1537 1.429 . S
C1541 C1542 1.523 . S
C1542 C1526 1.368 . S
C1542 C1538 1.368 . S
C1542 C1541 1.523 . S
H1543 C1518 0.950 . S
H1544 C1520 0.950 . S
H1545 C1521 0.949 . S
H1546 C1523 0.950 . S
H1547 C1525 0.950 . S
C1548 C1549 1.349 . S
C1548 C1550 1.327 . S
C1548 H1573 0.950 . S
C1549 C1548 1.349 . S
C1549 C1565 1.349 . S
C1550 C1548 1.327 . S
C1550 C1569 1.429 . S
C1550 H1574 0.950 . S
C1551 C1568 1.599 . S
C1551 C1570 1.331 1_545 S
C1551 H1575 0.948 . S
H1552 C1556 0.948 . S
C1553 C1554 1.349 . S
C1553 C1555 1.327 . S
C1553 H1576 0.950 . S
C1554 C1553 1.349 . S
C1554 C1566 1.349 . S
C1555 C1553 1.327 . S
C1555 C1571 1.429 . S
C1555 H1577 0.950 . S
C1556 H1552 0.948 . S
C1556 C1564 1.599 . S
C1556 C1572 1.331 1_565 S
H1557 C1565 0.950 . S
H1558 C1563 0.950 . S
H1559 C1564 0.949 . S
H1560 C1566 0.950 . S
H1561 C1567 0.950 . S
H1562 C1568 0.949 . S
C1563 H1558 0.950 . S
C1563 C1565 1.327 . S
C1563 C1569 1.429 . S
C1564 C1556 1.599 . S
C1564 H1559 0.949 . S
C1564 C1570 1.368 1_554 S
C1565 C1549 1.349 . S
C1565 H1557 0.950 . S
C1565 C1563 1.327 . S
C1566 C1554 1.349 . S
C1566 H1560 0.950 . S
C1566 C1567 1.327 . S
C1567 H1561 0.950 . S
C1567 C1566 1.327 . S
C1567 C1571 1.429 . S
C1568 C1551 1.599 . S
C1568 H1562 0.949 . S
C1568 C1572 1.368 1_556 S
C1569 C1550 1.429 . S
C1569 C1563 1.429 . S
C1569 C1570 1.523 . S
C1570 C1551 1.331 1_565 S
C1570 C1564 1.368 1_556 S
C1570 C1569 1.523 . S
C1571 C1555 1.429 . S
C1571 C1567 1.429 . S
C1571 C1572 1.523 . S
C1572 C1556 1.331 1_545 S
C1572 C1568 1.368 1_554 S
C1572 C1571 1.523 . S
H1573 C1548 0.950 . S
H1574 C1550 0.950 . S
H1575 C1551 0.948 . S
H1576 C1553 0.950 . S
H1577 C1555 0.950 . S
C1578 C1579 1.349 . S
C1578 C1580 1.327 . S
C1578 H1603 0.950 . S
C1579 C1578 1.349 . S
C1579 C1595 1.349 . S
C1580 C1578 1.327 . S
C1580 C1599 1.429 . S
C1580 H1604 0.950 . S
C1581 C1598 1.574 . S
C1581 C1600 1.368 . S
C1581 H1605 0.949 . S
H1582 C1586 0.949 . S
C1583 C1584 1.349 . S
C1583 C1585 1.327 . S
C1583 H1606 0.950 . S
C1584 C1583 1.349 . S
C1584 C1596 1.349 . S
C1585 C1583 1.327 . S
C1585 C1601 1.429 . S
C1585 H1607 0.950 . S
C1586 H1582 0.949 . S
C1586 C1594 1.574 . S
C1586 C1602 1.368 . S
H1587 C1595 0.950 . S
H1588 C1593 0.950 . S
H1589 C1594 0.949 . S
H1590 C1596 0.950 . S
H1591 C1597 0.950 . S
H1592 C1598 0.949 . S
C1593 H1588 0.950 . S
C1593 C1595 1.327 . S
C1593 C1599 1.429 . S
C1594 C1586 1.574 . S
C1594 H1589 0.949 . S
C1594 C1600 1.368 . S
C1595 C1579 1.349 . S
C1595 H1587 0.950 . S
C1595 C1593 1.327 . S
C1596 C1584 1.349 . S
C1596 H1590 0.950 . S
C1596 C1597 1.327 . S
C1597 H1591 0.950 . S
C1597 C1596 1.327 . S
C1597 C1601 1.429 . S
C1598 C1581 1.574 . S
C1598 H1592 0.949 . S
C1598 C1602 1.368 . S
C1599 C1580 1.429 . S
C1599 C1593 1.429 . S
C1599 C1600 1.523 . S
C1600 C1581 1.368 . S
C1600 C1594 1.368 . S
C1600 C1599 1.523 . S
C1601 C1585 1.429 . S
C1601 C1597 1.429 . S
C1601 C1602 1.523 . S
C1602 C1586 1.368 . S
C1602 C1598 1.368 . S
C1602 C1601 1.523 . S
H1603 C1578 0.950 . S
H1604 C1580 0.950 . S
H1605 C1581 0.949 . S
H1606 C1583 0.950 . S
H1607 C1585 0.950 . S
C1608 C1609 1.349 . S
C1608 C1610 1.327 . S
C1608 H1633 0.950 . S
C1609 C1608 1.349 . S
C1609 C1625 1.349 . S
C1610 C1608 1.327 . S
C1610 C1629 1.429 . S
C1610 H1634 0.950 . S
C1611 C1628 1.574 1_456 S
C1611 C1630 1.368 . S
C1611 H1635 0.949 . S
H1612 C1616 0.949 . S
C1613 C1614 1.349 . S
C1613 C1615 1.327 . S
C1613 H1636 0.950 . S
C1614 C1613 1.349 . S
C1614 C1626 1.349 . S
C1615 C1613 1.327 . S
C1615 C1631 1.429 . S
C1615 H1637 0.950 . S
C1616 H1612 0.949 . S
C1616 C1624 1.574 1_654 S
C1616 C1632 1.368 . S
H1617 C1625 0.950 . S
H1618 C1623 0.950 . S
H1619 C1624 0.949 . S
H1620 C1626 0.950 . S
H1621 C1627 0.950 . S
H1622 C1628 0.949 . S
C1623 H1618 0.950 . S
C1623 C1625 1.327 . S
C1623 C1629 1.429 . S
C1624 C1616 1.574 1_456 S
C1624 H1619 0.949 . S
C1624 C1630 1.368 . S
C1625 C1609 1.349 . S
C1625 H1617 0.950 . S
C1625 C1623 1.327 . S
C1626 C1614 1.349 . S
C1626 H1620 0.950 . S
C1626 C1627 1.327 . S
C1627 H1621 0.950 . S
C1627 C1626 1.327 . S
C1627 C1631 1.429 . S
C1628 C1611 1.574 1_654 S
C1628 H1622 0.949 . S
C1628 C1632 1.368 . S
C1629 C1610 1.429 . S
C1629 C1623 1.429 . S
C1629 C1630 1.523 . S
C1630 C1611 1.368 . S
C1630 C1624 1.368 . S
C1630 C1629 1.523 . S
C1631 C1615 1.429 . S
C1631 C1627 1.429 . S
C1631 C1632 1.523 . S
C1632 C1616 1.368 . S
C1632 C1628 1.368 . S
C1632 C1631 1.523 . S
H1633 C1608 0.950 . S
H1634 C1610 0.950 . S
H1635 C1611 0.949 . S
H1636 C1613 0.950 . S
H1637 C1615 0.950 . S
C1638 C1639 1.349 . S
C1638 C1640 1.327 . S
C1638 H1663 0.950 . S
C1639 C1638 1.349 . S
C1639 C1655 1.349 . S
C1640 C1638 1.327 . S
C1640 C1659 1.429 . S
C1640 H1664 0.950 . S
C1641 C1658 1.574 1_545 S
C1641 C1660 1.368 . S
C1641 H1665 0.949 . S
H1642 C1646 0.949 . S
C1643 C1644 1.349 . S
C1643 C1645 1.327 . S
C1643 H1666 0.950 . S
C1644 C1643 1.349 . S
C1644 C1656 1.349 . S
C1645 C1643 1.327 . S
C1645 C1661 1.429 . S
C1645 H1667 0.950 . S
C1646 H1642 0.949 . S
C1646 C1654 1.574 1_565 S
C1646 C1662 1.368 . S
H1647 C1655 0.950 . S
H1648 C1653 0.950 . S
H1649 C1654 0.949 . S
H1650 C1656 0.950 . S
H1651 C1657 0.950 . S
H1652 C1658 0.949 . S
C1653 H1648 0.950 . S
C1653 C1655 1.327 . S
C1653 C1659 1.429 . S
C1654 C1646 1.574 1_545 S
C1654 H1649 0.949 . S
C1654 C1660 1.368 . S
C1655 C1639 1.349 . S
C1655 H1647 0.950 . S
C1655 C1653 1.327 . S
C1656 C1644 1.349 . S
C1656 H1650 0.950 . S
C1656 C1657 1.327 . S
C1657 H1651 0.950 . S
C1657 C1656 1.327 . S
C1657 C1661 1.429 . S
C1658 C1641 1.574 1_565 S
C1658 H1652 0.949 . S
C1658 C1662 1.368 . S
C1659 C1640 1.429 . S
C1659 C1653 1.429 . S
C1659 C1660 1.523 . S
C1660 C1641 1.368 . S
C1660 C1654 1.368 . S
C1660 C1659 1.523 . S
C1661 C1645 1.429 . S
C1661 C1657 1.429 . S
C1661 C1662 1.523 . S
C1662 C1646 1.368 . S
C1662 C1658 1.368 . S
C1662 C1661 1.523 . S
H1663 C1638 0.950 . S
H1664 C1640 0.950 . S
H1665 C1641 0.949 . S
H1666 C1643 0.950 . S
H1667 C1645 0.950 . S
C1668 C1669 1.349 . S
C1668 C1670 1.327 . S
C1668 H1693 0.950 . S
C1669 C1668 1.349 . S
C1669 C1685 1.349 . S
C1670 C1668 1.327 . S
C1670 C1689 1.429 . S
C1670 H1694 0.950 . S
C1671 C1688 1.574 1_554 S
C1671 C1690 1.368 . S
C1671 H1695 0.949 . S
H1672 C1676 0.949 . S
C1673 C1674 1.349 . S
C1673 C1675 1.327 . S
C1673 H1696 0.950 . S
C1674 C1673 1.349 . S
C1674 C1686 1.349 . S
C1675 C1673 1.327 . S
C1675 C1691 1.429 . S
C1675 H1697 0.950 . S
C1676 H1672 0.949 . S
C1676 C1684 1.574 1_556 S
C1676 C1692 1.368 . S
H1677 C1685 0.950 . S
H1678 C1683 0.950 . S
H1679 C1684 0.949 . S
H1680 C1686 0.950 . S
H1681 C1687 0.950 . S
H1682 C1688 0.949 . S
C1683 H1678 0.950 . S
C1683 C1685 1.327 . S
C1683 C1689 1.429 . S
C1684 C1676 1.574 1_554 S
C1684 H1679 0.949 . S
C1684 C1690 1.368 . S
C1685 C1669 1.349 . S
C1685 H1677 0.950 . S
C1685 C1683 1.327 . S
C1686 C1674 1.349 . S
C1686 H1680 0.950 . S
C1686 C1687 1.327 . S
C1687 H1681 0.950 . S
C1687 C1686 1.327 . S
C1687 C1691 1.429 . S
C1688 C1671 1.574 1_556 S
C1688 H1682 0.949 . S
C1688 C1692 1.368 . S
C1689 C1670 1.429 . S
C1689 C1683 1.429 . S
C1689 C1690 1.523 . S
C1690 C1671 1.368 . S
C1690 C1684 1.368 . S
C1690 C1689 1.523 . S
C1691 C1675 1.429 . S
C1691 C1687 1.429 . S
C1691 C1692 1.523 . S
C1692 C1676 1.368 . S
C1692 C1688 1.368 . S
C1692 C1691 1.523 . S
H1693 C1668 0.950 . S
H1694 C1670 0.950 . S
H1695 C1671 0.949 . S
H1696 C1673 0.950 . S
H1697 C1675 0.950 . S
C1698 C1699 1.349 . S
C1698 C1700 1.327 . S
C1698 H1723 0.950 . S
C1699 C1698 1.349 . S
C1699 C1715 1.349 . S
C1700 C1698 1.327 . S
C1700 C1719 1.429 . S
C1700 H1724 0.950 . S
C1701 C1718 1.574 1_455 S
C1701 C1720 1.368 . S
C1701 H1725 0.949 . S
H1702 C1706 0.949 . S
C1703 C1704 1.349 . S
C1703 C1705 1.327 . S
C1703 H1726 0.950 . S
C1704 C1703 1.349 . S
C1704 C1716 1.349 . S
C1705 C1703 1.327 . S
C1705 C1721 1.429 . S
C1705 H1727 0.950 . S
C1706 H1702 0.949 . S
C1706 C1714 1.574 1_655 S
C1706 C1722 1.368 . S
H1707 C1715 0.950 . S
H1708 C1713 0.950 . S
H1709 C1714 0.949 . S
H1710 C1716 0.950 . S
H1711 C1717 0.950 . S
H1712 C1718 0.949 . S
C1713 H1708 0.950 . S
C1713 C1715 1.327 . S
C1713 C1719 1.429 . S
C1714 C1706 1.574 1_455 S
C1714 H1709 0.949 . S
C1714 C1720 1.368 . S
C1715 C1699 1.349 . S
C1715 H1707 0.950 . S
C1715 C1713 1.327 . S
C1716 C1704 1.349 . S
C1716 H1710 0.950 . S
C1716 C1717 1.327 . S
C1717 H1711 0.950 . S
C1717 C1716 1.327 . S
C1717 C1721 1.429 . S
C1718 C1701 1.574 1_655 S
C1718 H1712 0.949 . S
C1718 C1722 1.368 . S
C1719 C1700 1.429 . S
C1719 C1713 1.429 . S
C1719 C1720 1.523 . S
C1720 C1701 1.368 . S
C1720 C1714 1.368 . S
C1720 C1719 1.523 . S
C1721 C1705 1.429 . S
C1721 C1717 1.429 . S
C1721 C1722 1.523 . S
C1722 C1706 1.368 . S
C1722 C1718 1.368 . S
C1722 C1721 1.523 . S
H1723 C1698 0.950 . S
H1724 C1700 0.950 . S
H1725 C1701 0.949 . S
H1726 C1703 0.950 . S
H1727 C1705 0.950 . S
C1728 C1729 1.349 . S
C1728 C1730 1.327 . S
C1728 H1753 0.950 . S
C1729 C1728 1.349 . S
C1729 C1745 1.349 . S
C1730 C1728 1.327 . S
C1730 C1749 1.429 . S
C1730 H1754 0.950 . S
C1731 C1748 1.574 . S
C1731 C1750 1.368 . S
C1731 H1755 0.949 . S
H1732 C1736 0.949 . S
C1733 C1734 1.349 . S
C1733 C1735 1.327 . S
C1733 H1756 0.950 . S
C1734 C1733 1.349 . S
C1734 C1746 1.349 . S
C1735 C1733 1.327 . S
C1735 C1751 1.429 . S
C1735 H1757 0.950 . S
C1736 H1732 0.949 . S
C1736 C1744 1.574 . S
C1736 C1752 1.368 . S
H1737 C1745 0.950 . S
H1738 C1743 0.950 . S
H1739 C1744 0.949 . S
H1740 C1746 0.950 . S
H1741 C1747 0.950 . S
H1742 C1748 0.949 . S
C1743 H1738 0.950 . S
C1743 C1745 1.327 . S
C1743 C1749 1.429 . S
C1744 C1736 1.574 . S
C1744 H1739 0.949 . S
C1744 C1750 1.368 . S
C1745 C1729 1.349 . S
C1745 H1737 0.950 . S
C1745 C1743 1.327 . S
C1746 C1734 1.349 . S
C1746 H1740 0.950 . S
C1746 C1747 1.327 . S
C1747 H1741 0.950 . S
C1747 C1746 1.327 . S
C1747 C1751 1.429 . S
C1748 C1731 1.574 . S
C1748 H1742 0.949 . S
C1748 C1752 1.368 . S
C1749 C1730 1.429 . S
C1749 C1743 1.429 . S
C1749 C1750 1.523 . S
C1750 C1731 1.368 . S
C1750 C1744 1.368 . S
C1750 C1749 1.523 . S
C1751 C1735 1.429 . S
C1751 C1747 1.429 . S
C1751 C1752 1.523 . S
C1752 C1736 1.368 . S
C1752 C1748 1.368 . S
C1752 C1751 1.523 . S
H1753 C1728 0.950 . S
H1754 C1730 0.950 . S
H1755 C1731 0.949 . S
H1756 C1733 0.950 . S
H1757 C1735 0.950 . S
C1758 C1759 1.349 . S
C1758 C1760 1.327 . S
C1758 H1783 0.950 . S
C1759 C1758 1.349 . S
C1759 C1775 1.349 . S
C1760 C1758 1.327 . S
C1760 C1779 1.429 . S
C1760 H1784 0.950 . S
C1761 C1778 1.574 . S
C1761 C1780 1.368 . S
C1761 H1785 0.949 . S
H1762 C1766 0.949 . S
C1763 C1764 1.349 . S
C1763 C1765 1.327 . S
C1763 H1786 0.950 . S
C1764 C1763 1.349 . S
C1764 C1776 1.349 . S
C1765 C1763 1.327 . S
C1765 C1781 1.429 . S
C1765 H1787 0.950 . S
C1766 H1762 0.949 . S
C1766 C1774 1.574 . S
C1766 C1782 1.368 . S
H1767 C1775 0.950 . S
H1768 C1773 0.950 . S
H1769 C1774 0.949 . S
H1770 C1776 0.950 . S
H1771 C1777 0.950 . S
H1772 C1778 0.949 . S
C1773 H1768 0.950 . S
C1773 C1775 1.327 . S
C1773 C1779 1.429 . S
C1774 C1766 1.574 . S
C1774 H1769 0.949 . S
C1774 C1780 1.368 . S
C1775 C1759 1.349 . S
C1775 H1767 0.950 . S
C1775 C1773 1.327 . S
C1776 C1764 1.349 . S
C1776 H1770 0.950 . S
C1776 C1777 1.327 . S
C1777 H1771 0.950 . S
C1777 C1776 1.327 . S
C1777 C1781 1.429 . S
C1778 C1761 1.574 . S
C1778 H1772 0.949 . S
C1778 C1782 1.368 . S
C1779 C1760 1.429 . S
C1779 C1773 1.429 . S
C1779 C1780 1.523 . S
C1780 C1761 1.368 . S
C1780 C1774 1.368 . S
C1780 C1779 1.523 . S
C1781 C1765 1.429 . S
C1781 C1777 1.429 . S
C1781 C1782 1.523 . S
C1782 C1766 1.368 . S
C1782 C1778 1.368 . S
C1782 C1781 1.523 . S
H1783 C1758 0.950 . S
H1784 C1760 0.950 . S
H1785 C1761 0.949 . S
H1786 C1763 0.950 . S
H1787 C1765 0.950 . S
C1788 C1789 1.349 . S
C1788 C1790 1.327 . S
C1788 H1813 0.950 . S
C1789 C1788 1.349 . S
C1789 C1805 1.349 . S
C1790 C1788 1.327 . S
C1790 C1809 1.429 . S
C1790 H1814 0.950 . S
C1791 C1808 1.574 . S
C1791 C1810 1.368 . S
C1791 H1815 0.949 . S
H1792 C1796 0.949 . S
C1793 C1794 1.349 . S
C1793 C1795 1.327 . S
C1793 H1816 0.950 . S
C1794 C1793 1.349 . S
C1794 C1806 1.349 . S
C1795 C1793 1.327 . S
C1795 C1811 1.429 . S
C1795 H1817 0.950 . S
C1796 H1792 0.949 . S
C1796 C1804 1.574 . S
C1796 C1812 1.368 . S
H1797 C1805 0.950 . S
H1798 C1803 0.950 . S
H1799 C1804 0.949 . S
H1800 C1806 0.950 . S
H1801 C1807 0.950 . S
H1802 C1808 0.949 . S
C1803 H1798 0.950 . S
C1803 C1805 1.327 . S
C1803 C1809 1.429 . S
C1804 C1796 1.574 . S
C1804 H1799 0.949 . S
C1804 C1810 1.368 . S
C1805 C1789 1.349 . S
C1805 H1797 0.950 . S
C1805 C1803 1.327 . S
C1806 C1794 1.349 . S
C1806 H1800 0.950 . S
C1806 C1807 1.327 . S
C1807 H1801 0.950 . S
C1807 C1806 1.327 . S
C1807 C1811 1.429 . S
C1808 C1791 1.574 . S
C1808 H1802 0.949 . S
C1808 C1812 1.368 . S
C1809 C1790 1.429 . S
C1809 C1803 1.429 . S
C1809 C1810 1.523 . S
C1810 C1791 1.368 . S
C1810 C1804 1.368 . S
C1810 C1809 1.523 . S
C1811 C1795 1.429 . S
C1811 C1807 1.429 . S
C1811 C1812 1.523 . S
C1812 C1796 1.368 . S
C1812 C1808 1.368 . S
C1812 C1811 1.523 . S
H1813 C1788 0.950 . S
H1814 C1790 0.950 . S
H1815 C1791 0.949 . S
H1816 C1793 0.950 . S
H1817 C1795 0.950 . S
C1818 C1819 1.349 . S
C1818 C1820 1.327 . S
C1818 H1843 0.950 . S
C1819 C1818 1.349 . S
C1819 C1835 1.349 . S
C1820 C1818 1.327 . S
C1820 C1839 1.429 . S
C1820 H1844 0.950 . S
C1821 C1838 1.574 . S
C1821 C1840 1.368 . S
C1821 H1845 0.949 . S
H1822 C1826 0.949 . S
C1823 C1824 1.349 . S
C1823 C1825 1.327 . S
C1823 H1846 0.950 . S
C1824 C1823 1.349 . S
C1824 C1836 1.349 . S
C1825 C1823 1.327 . S
C1825 C1841 1.429 . S
C1825 H1847 0.950 . S
C1826 H1822 0.949 . S
C1826 C1834 1.574 . S
C1826 C1842 1.368 . S
H1827 C1835 0.950 . S
H1828 C1833 0.950 . S
H1829 C1834 0.949 . S
H1830 C1836 0.950 . S
H1831 C1837 0.950 . S
H1832 C1838 0.949 . S
C1833 H1828 0.950 . S
C1833 C1835 1.327 . S
C1833 C1839 1.429 . S
C1834 C1826 1.574 . S
C1834 H1829 0.949 . S
C1834 C1840 1.368 . S
C1835 C1819 1.349 . S
C1835 H1827 0.950 . S
C1835 C1833 1.327 . S
C1836 C1824 1.349 . S
C1836 H1830 0.950 . S
C1836 C1837 1.327 . S
C1837 H1831 0.950 . S
C1837 C1836 1.327 . S
C1837 C1841 1.429 . S
C1838 C1821 1.574 . S
C1838 H1832 0.949 . S
C1838 C1842 1.368 . S
C1839 C1820 1.429 . S
C1839 C1833 1.429 . S
C1839 C1840 1.523 . S
C1840 C1821 1.368 . S
C1840 C1834 1.368 . S
C1840 C1839 1.523 . S
C1841 C1825 1.429 . S
C1841 C1837 1.429 . S
C1841 C1842 1.523 . S
C1842 C1826 1.368 . S
C1842 C1838 1.368 . S
C1842 C1841 1.523 . S
H1843 C1818 0.950 . S
H1844 C1820 0.950 . S
H1845 C1821 0.949 . S
H1846 C1823 0.950 . S
H1847 C1825 0.950 . S
C1848 C1849 1.349 . S
C1848 C1850 1.327 . S
C1848 H1873 0.950 . S
C1849 C1848 1.349 . S
C1849 C1865 1.349 . S
C1850 C1848 1.327 . S
C1850 C1869 1.429 . S
C1850 H1874 0.950 . S
C1851 C1868 1.574 . S
C1851 C1870 1.368 . S
C1851 H1875 0.949 . S
H1852 C1856 0.949 . S
C1853 C1854 1.349 . S
C1853 C1855 1.327 . S
C1853 H1876 0.950 . S
C1854 C1853 1.349 . S
C1854 C1866 1.349 . S
C1855 C1853 1.327 . S
C1855 C1871 1.429 . S
C1855 H1877 0.950 . S
C1856 H1852 0.949 . S
C1856 C1864 1.574 . S
C1856 C1872 1.368 . S
H1857 C1865 0.950 . S
H1858 C1863 0.950 . S
H1859 C1864 0.949 . S
H1860 C1866 0.950 . S
H1861 C1867 0.950 . S
H1862 C1868 0.949 . S
C1863 H1858 0.950 . S
C1863 C1865 1.327 . S
C1863 C1869 1.429 . S
C1864 C1856 1.574 . S
C1864 H1859 0.949 . S
C1864 C1870 1.368 . S
C1865 C1849 1.349 . S
C1865 H1857 0.950 . S
C1865 C1863 1.327 . S
C1866 C1854 1.349 . S
C1866 H1860 0.950 . S
C1866 C1867 1.327 . S
C1867 H1861 0.950 . S
C1867 C1866 1.327 . S
C1867 C1871 1.429 . S
C1868 C1851 1.574 . S
C1868 H1862 0.949 . S
C1868 C1872 1.368 . S
C1869 C1850 1.429 . S
C1869 C1863 1.429 . S
C1869 C1870 1.523 . S
C1870 C1851 1.368 . S
C1870 C1864 1.368 . S
C1870 C1869 1.523 . S
C1871 C1855 1.429 . S
C1871 C1867 1.429 . S
C1871 C1872 1.523 . S
C1872 C1856 1.368 . S
C1872 C1868 1.368 . S
C1872 C1871 1.523 . S
H1873 C1848 0.950 . S
H1874 C1850 0.950 . S
H1875 C1851 0.949 . S
H1876 C1853 0.950 . S
H1877 C1855 0.950 . S
C1878 C1879 1.349 . S
C1878 C1880 1.327 . S
C1878 H1903 0.950 . S
C1879 C1878 1.349 . S
C1879 C1895 1.349 . S
C1880 C1878 1.327 . S
C1880 C1899 1.429 . S
C1880 H1904 0.950 . S
C1881 C1898 1.574 . S
C1881 C1900 1.368 . S
C1881 H1905 0.949 . S
H1882 C1886 0.949 . S
C1883 C1884 1.349 . S
C1883 C1885 1.327 . S
C1883 H1906 0.950 . S
C1884 C1883 1.349 . S
C1884 C1896 1.349 . S
C1885 C1883 1.327 . S
C1885 C1901 1.429 . S
C1885 H1907 0.950 . S
C1886 H1882 0.949 . S
C1886 C1894 1.574 . S
C1886 C1902 1.368 . S
H1887 C1895 0.950 . S
H1888 C1893 0.950 . S
H1889 C1894 0.949 . S
H1890 C1896 0.950 . S
H1891 C1897 0.950 . S
H1892 C1898 0.949 . S
C1893 H1888 0.950 . S
C1893 C1895 1.327 . S
C1893 C1899 1.429 . S
C1894 C1886 1.574 . S
C1894 H1889 0.949 . S
C1894 C1900 1.368 . S
C1895 C1879 1.349 . S
C1895 H1887 0.950 . S
C1895 C1893 1.327 . S
C1896 C1884 1.349 . S
C1896 H1890 0.950 . S
C1896 C1897 1.327 . S
C1897 H1891 0.950 . S
C1897 C1896 1.327 . S
C1897 C1901 1.429 . S
C1898 C1881 1.574 . S
C1898 H1892 0.949 . S
C1898 C1902 1.368 . S
C1899 C1880 1.429 . S
C1899 C1893 1.429 . S
C1899 C1900 1.523 . S
C1900 C1881 1.368 . S
C1900 C1894 1.368 . S
C1900 C1899 1.523 . S
C1901 C1885 1.429 . S
C1901 C1897 1.429 . S
C1901 C1902 1.523 . S
C1902 C1886 1.368 . S
C1902 C1898 1.368 . S
C1902 C1901 1.523 . S
H1903 C1878 0.950 . S
H1904 C1880 0.950 . S
H1905 C1881 0.949 . S
H1906 C1883 0.950 . S
H1907 C1885 0.950 . S
C1908 C1909 1.349 . S
C1908 C1910 1.327 . S
C1908 H1933 0.950 . S
C1909 C1908 1.349 . S
C1909 C1925 1.349 . S
C1910 C1908 1.327 . S
C1910 C1929 1.429 . S
C1910 H1934 0.950 . S
C1911 C1928 1.574 . S
C1911 C1930 1.368 . S
C1911 H1935 0.949 . S
H1912 C1916 0.949 . S
C1913 C1914 1.349 . S
C1913 C1915 1.327 . S
C1913 H1936 0.950 . S
C1914 C1913 1.349 . S
C1914 C1926 1.349 . S
C1915 C1913 1.327 . S
C1915 C1931 1.429 . S
C1915 H1937 0.950 . S
C1916 H1912 0.949 . S
C1916 C1924 1.574 . S
C1916 C1932 1.368 . S
H1917 C1925 0.950 . S
H1918 C1923 0.950 . S
H1919 C1924 0.949 . S
H1920 C1926 0.950 . S
H1921 C1927 0.950 . S
H1922 C1928 0.949 . S
C1923 H1918 0.950 . S
C1923 C1925 1.327 . S
C1923 C1929 1.429 . S
C1924 C1916 1.574 . S
C1924 H1919 0.949 . S
C1924 C1930 1.368 . S
C1925 C1909 1.349 . S
C1925 H1917 0.950 . S
C1925 C1923 1.327 . S
C1926 C1914 1.349 . S
C1926 H1920 0.950 . S
C1926 C1927 1.327 . S
C1927 H1921 0.950 . S
C1927 C1926 1.327 . S
C1927 C1931 1.429 . S
C1928 C1911 1.574 . S
C1928 H1922 0.949 . S
C1928 C1932 1.368 . S
C1929 C1910 1.429 . S
C1929 C1923 1.429 . S
C1929 C1930 1.523 . S
C1930 C1911 1.368 . S
C1930 C1924 1.368 . S
C1930 C1929 1.523 . S
C1931 C1915 1.429 . S
C1931 C1927 1.429 . S
C1931 C1932 1.523 . S
C1932 C1916 1.368 . S
C1932 C1928 1.368 . S
C1932 C1931 1.523 . S
H1933 C1908 0.950 . S
H1934 C1910 0.950 . S
H1935 C1911 0.949 . S
H1936 C1913 0.950 . S
H1937 C1915 0.950 . S
C1938 C1939 1.349 . S
C1938 C1940 1.327 . S
C1938 H1963 0.950 . S
C1939 C1938 1.349 . S
C1939 C1955 1.349 . S
C1940 C1938 1.327 . S
C1940 C1959 1.429 . S
C1940 H1964 0.950 . S
C1941 C1958 1.574 . S
C1941 C1960 1.368 . S
C1941 H1965 0.949 . S
H1942 C1946 0.949 . S
C1943 C1944 1.349 . S
C1943 C1945 1.327 . S
C1943 H1966 0.950 . S
C1944 C1943 1.349 . S
C1944 C1956 1.349 . S
C1945 C1943 1.327 . S
C1945 C1961 1.429 . S
C1945 H1967 0.950 . S
C1946 H1942 0.949 . S
C1946 C1954 1.574 . S
C1946 C1962 1.368 . S
H1947 C1955 0.950 . S
H1948 C1953 0.950 . S
H1949 C1954 0.949 . S
H1950 C1956 0.950 . S
H1951 C1957 0.950 . S
H1952 C1958 0.949 . S
C1953 H1948 0.950 . S
C1953 C1955 1.327 . S
C1953 C1959 1.429 . S
C1954 C1946 1.574 . S
C1954 H1949 0.949 . S
C1954 C1960 1.368 . S
C1955 C1939 1.349 . S
C1955 H1947 0.950 . S
C1955 C1953 1.327 . S
C1956 C1944 1.349 . S
C1956 H1950 0.950 . S
C1956 C1957 1.327 . S
C1957 H1951 0.950 . S
C1957 C1956 1.327 . S
C1957 C1961 1.429 . S
C1958 C1941 1.574 . S
C1958 H1952 0.949 . S
C1958 C1962 1.368 . S
C1959 C1940 1.429 . S
C1959 C1953 1.429 . S
C1959 C1960 1.523 . S
C1960 C1941 1.368 . S
C1960 C1954 1.368 . S
C1960 C1959 1.523 . S
C1961 C1945 1.429 . S
C1961 C1957 1.429 . S
C1961 C1962 1.523 . S
C1962 C1946 1.368 . S
C1962 C1958 1.368 . S
C1962 C1961 1.523 . S
H1963 C1938 0.950 . S
H1964 C1940 0.950 . S
H1965 C1941 0.949 . S
H1966 C1943 0.950 . S
H1967 C1945 0.950 . S
C1968 C1969 1.349 . S
C1968 C1970 1.327 . S
C1968 H1993 0.950 . S
C1969 C1968 1.349 . S
C1969 C1985 1.349 . S
C1970 C1968 1.327 . S
C1970 C1989 1.429 . S
C1970 H1994 0.950 . S
C1971 C1988 1.574 . S
C1971 C1990 1.368 . S
C1971 H1995 0.949 . S
H1972 C1976 0.949 . S
C1973 C1974 1.349 . S
C1973 C1975 1.327 . S
C1973 H1996 0.950 . S
C1974 C1973 1.349 . S
C1974 C1986 1.349 . S
C1975 C1973 1.327 . S
C1975 C1991 1.429 . S
C1975 H1997 0.950 . S
C1976 H1972 0.949 . S
C1976 C1984 1.574 . S
C1976 C1992 1.368 . S
H1977 C1985 0.950 . S
H1978 C1983 0.950 . S
H1979 C1984 0.949 . S
H1980 C1986 0.950 . S
H1981 C1987 0.950 . S
H1982 C1988 0.949 . S
C1983 H1978 0.950 . S
C1983 C1985 1.327 . S
C1983 C1989 1.429 . S
C1984 C1976 1.574 . S
C1984 H1979 0.949 . S
C1984 C1990 1.368 . S
C1985 C1969 1.349 . S
C1985 H1977 0.950 . S
C1985 C1983 1.327 . S
C1986 C1974 1.349 . S
C1986 H1980 0.950 . S
C1986 C1987 1.327 . S
C1987 H1981 0.950 . S
C1987 C1986 1.327 . S
C1987 C1991 1.429 . S
C1988 C1971 1.574 . S
C1988 H1982 0.949 . S
C1988 C1992 1.368 . S
C1989 C1970 1.429 . S
C1989 C1983 1.429 . S
C1989 C1990 1.523 . S
C1990 C1971 1.368 . S
C1990 C1984 1.368 . S
C1990 C1989 1.523 . S
C1991 C1975 1.429 . S
C1991 C1987 1.429 . S
C1991 C1992 1.523 . S
C1992 C1976 1.368 . S
C1992 C1988 1.368 . S
C1992 C1991 1.523 . S
H1993 C1968 0.950 . S
H1994 C1970 0.950 . S
H1995 C1971 0.949 . S
H1996 C1973 0.950 . S
H1997 C1975 0.950 . S
C1998 C1999 1.349 . S
C1998 C2000 1.327 . S
C1998 H2023 0.950 . S
C1999 C1998 1.349 . S
C1999 C2015 1.349 . S
C2000 C1998 1.327 . S
C2000 C2019 1.429 . S
C2000 H2024 0.950 . S
C2001 C2018 1.574 . S
C2001 C2020 1.368 . S
C2001 H2025 0.949 . S
H2002 C2006 0.949 . S
C2003 C2004 1.349 . S
C2003 C2005 1.327 . S
C2003 H2026 0.950 . S
C2004 C2003 1.349 . S
C2004 C2016 1.349 . S
C2005 C2003 1.327 . S
C2005 C2021 1.429 . S
C2005 H2027 0.950 . S
C2006 H2002 0.949 . S
C2006 C2014 1.574 . S
C2006 C2022 1.368 . S
H2007 C2015 0.950 . S
H2008 C2013 0.950 . S
H2009 C2014 0.949 . S
H2010 C2016 0.950 . S
H2011 C2017 0.950 . S
H2012 C2018 0.949 . S
C2013 H2008 0.950 . S
C2013 C2015 1.327 . S
C2013 C2019 1.429 . S
C2014 C2006 1.574 . S
C2014 H2009 0.949 . S
C2014 C2020 1.368 . S
C2015 C1999 1.349 . S
C2015 H2007 0.950 . S
C2015 C2013 1.327 . S
C2016 C2004 1.349 . S
C2016 H2010 0.950 . S
C2016 C2017 1.327 . S
C2017 H2011 0.950 . S
C2017 C2016 1.327 . S
C2017 C2021 1.429 . S
C2018 C2001 1.574 . S
C2018 H2012 0.949 . S
C2018 C2022 1.368 . S
C2019 C2000 1.429 . S
C2019 C2013 1.429 . S
C2019 C2020 1.523 . S
C2020 C2001 1.368 . S
C2020 C2014 1.368 . S
C2020 C2019 1.523 . S
C2021 C2005 1.429 . S
C2021 C2017 1.429 . S
C2021 C2022 1.523 . S
C2022 C2006 1.368 . S
C2022 C2018 1.368 . S
C2022 C2021 1.523 . S
H2023 C1998 0.950 . S
H2024 C2000 0.950 . S
H2025 C2001 0.949 . S
H2026 C2003 0.950 . S
H2027 C2005 0.950 . S
C2028 C2029 1.349 . S
C2028 C2030 1.327 . S
C2028 H2053 0.950 . S
C2029 C2028 1.349 . S
C2029 C2045 1.349 . S
C2030 C2028 1.327 . S
C2030 C2049 1.429 . S
C2030 H2054 0.950 . S
C2031 C2048 1.574 . S
C2031 C2050 1.368 . S
C2031 H2055 0.949 . S
H2032 C2036 0.949 . S
C2033 C2034 1.349 . S
C2033 C2035 1.327 . S
C2033 H2056 0.950 . S
C2034 C2033 1.349 . S
C2034 C2046 1.349 . S
C2035 C2033 1.327 . S
C2035 C2051 1.429 . S
C2035 H2057 0.950 . S
C2036 H2032 0.949 . S
C2036 C2044 1.574 . S
C2036 C2052 1.368 . S
H2037 C2045 0.950 . S
H2038 C2043 0.950 . S
H2039 C2044 0.949 . S
H2040 C2046 0.950 . S
H2041 C2047 0.950 . S
H2042 C2048 0.949 . S
C2043 H2038 0.950 . S
C2043 C2045 1.327 . S
C2043 C2049 1.429 . S
C2044 C2036 1.574 . S
C2044 H2039 0.949 . S
C2044 C2050 1.368 . S
C2045 C2029 1.349 . S
C2045 H2037 0.950 . S
C2045 C2043 1.327 . S
C2046 C2034 1.349 . S
C2046 H2040 0.950 . S
C2046 C2047 1.327 . S
C2047 H2041 0.950 . S
C2047 C2046 1.327 . S
C2047 C2051 1.429 . S
C2048 C2031 1.574 . S
C2048 H2042 0.949 . S
C2048 C2052 1.368 . S
C2049 C2030 1.429 . S
C2049 C2043 1.429 . S
C2049 C2050 1.523 . S
C2050 C2031 1.368 . S
C2050 C2044 1.368 . S
C2050 C2049 1.523 . S
C2051 C2035 1.429 . S
C2051 C2047 1.429 . S
C2051 C2052 1.523 . S
C2052 C2036 1.368 . S
C2052 C2048 1.368 . S
C2052 C2051 1.523 . S
H2053 C2028 0.950 . S
H2054 C2030 0.950 . S
H2055 C2031 0.949 . S
H2056 C2033 0.950 . S
H2057 C2035 0.950 . S
C2058 C2059 1.349 . S
C2058 C2060 1.327 . S
C2058 H2083 0.950 . S
C2059 C2058 1.349 . S
C2059 C2075 1.349 . S
C2060 C2058 1.327 . S
C2060 C2079 1.429 . S
C2060 H2084 0.950 . S
C2061 C2078 1.574 . S
C2061 C2080 1.368 . S
C2061 H2085 0.949 . S
H2062 C2066 0.949 . S
C2063 C2064 1.349 . S
C2063 C2065 1.327 . S
C2063 H2086 0.950 . S
C2064 C2063 1.349 . S
C2064 C2076 1.349 . S
C2065 C2063 1.327 . S
C2065 C2081 1.429 . S
C2065 H2087 0.950 . S
C2066 H2062 0.949 . S
C2066 C2074 1.574 . S
C2066 C2082 1.368 . S
H2067 C2075 0.950 . S
H2068 C2073 0.950 . S
H2069 C2074 0.949 . S
H2070 C2076 0.950 . S
H2071 C2077 0.950 . S
H2072 C2078 0.949 . S
C2073 H2068 0.950 . S
C2073 C2075 1.327 . S
C2073 C2079 1.429 . S
C2074 C2066 1.574 . S
C2074 H2069 0.949 . S
C2074 C2080 1.368 . S
C2075 C2059 1.349 . S
C2075 H2067 0.950 . S
C2075 C2073 1.327 . S
C2076 C2064 1.349 . S
C2076 H2070 0.950 . S
C2076 C2077 1.327 . S
C2077 H2071 0.950 . S
C2077 C2076 1.327 . S
C2077 C2081 1.429 . S
C2078 C2061 1.574 . S
C2078 H2072 0.949 . S
C2078 C2082 1.368 . S
C2079 C2060 1.429 . S
C2079 C2073 1.429 . S
C2079 C2080 1.523 . S
C2080 C2061 1.368 . S
C2080 C2074 1.368 . S
C2080 C2079 1.523 . S
C2081 C2065 1.429 . S
C2081 C2077 1.429 . S
C2081 C2082 1.523 . S
C2082 C2066 1.368 . S
C2082 C2078 1.368 . S
C2082 C2081 1.523 . S
H2083 C2058 0.950 . S
H2084 C2060 0.950 . S
H2085 C2061 0.949 . S
H2086 C2063 0.950 . S
H2087 C2065 0.950 . S
C1009 C238 1.182 . S
C1014 C67 1.280 . S
C1039 C310 1.182 . S
C1044 C140 1.280 . S
C1069 C235 1.280 . S
C1074 C406 1.182 . S
C1099 C308 1.280 . S
C1104 C478 1.182 . S
C1129 C70 1.182 . S
C1134 C403 1.280 . S
C1159 C142 1.182 . S
C1164 C476 1.280 . S
C1189 C898 1.182 . S
C1194 C560 1.280 . S
C1219 C655 1.280 . S
C1224 C994 1.182 . S
C1249 C728 1.280 . S
C1254 C562 1.182 . S
C1279 C823 1.280 . S
C1284 C658 1.182 . S
C1309 C896 1.280 . S
C1314 C730 1.182 . S
C1339 C826 1.182 . S
C1344 C991 1.280 . S
C1369 C326 1.971 . S
C1374 C63 1.971 . S
C1399 C158 1.971 . S
C1404 C399 1.971 . S
C1429 C231 1.971 . S
C1434 C494 1.971 . S
C1459 C578 1.971 . S
C1464 C819 1.971 . S
C1489 C651 1.971 . S
C1494 C914 1.971 . S
C1519 C746 1.971 . S
C1524 C987 1.971 . S
C1549 C662 2.150 . S
C1554 C74 2.150 . S
C1579 C147 2.151 . S
C1584 C735 2.151 . S
C1609 C830 2.150 . S
C1614 C242 2.150 . S
C1639 C315 2.150 . S
C1644 C903 2.150 . S
C1669 C410 2.151 . S
C1674 C998 2.151 . S
C1699 C567 2.150 . S
C1704 C483 2.150 . S
C1729 C226 1.307 . S
C1734 C56 1.412 . S
C1759 C151 1.412 . S
C1764 C322 1.307 . S
C1789 C224 1.412 . S
C1794 C394 1.307 . S
C1819 C319 1.412 . S
C1824 C490 1.307 . S
C1849 C58 1.307 . S
C1854 C392 1.412 . S
C1879 C154 1.307 . S
C1884 C487 1.412 . S
C1909 C910 1.307 . S
C1914 C571 1.412 . S
C1939 C644 1.412 . S
C1944 C982 1.307 . S
C1969 C739 1.412 . S
C1974 C574 1.307 . S
C1999 C646 1.307 . S
C2004 C812 1.412 . S
C2029 C907 1.412 . S
C2034 C742 1.307 . S
C2059 C980 1.412 . S
C2064 C814 1.307 . S
