# Generated by pormake.
# Topology wjg, (4)-cn, num edge types: 1
# Building blocks:
#     Node 0, Type 0, BuildingBlock: KUFVIS_clean_sbu_0, # of connection points: 4
#     Node 1, Type 0, BuildingBlock: KUFVIS_clean_sbu_0, # of connection points: 4
#     Node 2, Type 0, BuildingBlock: KUFVIS_clean_sbu_0, # of connection points: 4
#     Node 3, Type 0, BuildingBlock: KUFVIS_clean_sbu_0, # of connection points: 4
#     Node 4, Type 0, BuildingBlock: KUFVIS_clean_sbu_0, # of connection points: 4
#     Node 5, Type 0, BuildingBlock: KUFVIS_clean_sbu_0, # of connection points: 4
#     Node 6, Type 0, BuildingBlock: KUFVIS_clean_sbu_0, # of connection points: 4
#     Node 7, Type 0, BuildingBlock: KUFVIS_clean_sbu_0, # of connection points: 4
#     Node 8, Type 0, BuildingBlock: KUFVIS_clean_sbu_0, # of connection points: 4
#     Node 9, Type 0, BuildingBlock: KUFVIS_clean_sbu_0, # of connection points: 4
#     Node 10, Type 0, BuildingBlock: KUFVIS_clean_sbu_0, # of connection points: 4
#     Node 11, Type 0, BuildingBlock: KUFVIS_clean_sbu_0, # of connection points: 4
#     Edge 12, Type (0, 0), BuildingBlock: EZIPEK_clean_linker_0, # of connection points: 2
#     Edge 13, Type (0, 0), BuildingBlock: EZIPEK_clean_linker_0, # of connection points: 2
#     Edge 14, Type (0, 0), BuildingBlock: EZIPEK_clean_linker_0, # of connection points: 2
#     Edge 15, Type (0, 0), BuildingBlock: EZIPEK_clean_linker_0, # of connection points: 2
#     Edge 16, Type (0, 0), BuildingBlock: EZIPEK_clean_linker_0, # of connection points: 2
#     Edge 17, Type (0, 0), BuildingBlock: EZIPEK_clean_linker_0, # of connection points: 2
#     Edge 18, Type (0, 0), BuildingBlock: EZIPEK_clean_linker_0, # of connection points: 2
#     Edge 19, Type (0, 0), BuildingBlock: EZIPEK_clean_linker_0, # of connection points: 2
#     Edge 20, Type (0, 0), BuildingBlock: EZIPEK_clean_linker_0, # of connection points: 2
#     Edge 21, Type (0, 0), BuildingBlock: EZIPEK_clean_linker_0, # of connection points: 2
#     Edge 22, Type (0, 0), BuildingBlock: EZIPEK_clean_linker_0, # of connection points: 2
#     Edge 23, Type (0, 0), BuildingBlock: EZIPEK_clean_linker_0, # of connection points: 2
#     Edge 24, Type (0, 0), BuildingBlock: EZIPEK_clean_linker_0, # of connection points: 2
#     Edge 25, Type (0, 0), BuildingBlock: EZIPEK_clean_linker_0, # of connection points: 2
#     Edge 26, Type (0, 0), BuildingBlock: EZIPEK_clean_linker_0, # of connection points: 2
#     Edge 27, Type (0, 0), BuildingBlock: EZIPEK_clean_linker_0, # of connection points: 2
#     Edge 28, Type (0, 0), BuildingBlock: EZIPEK_clean_linker_0, # of connection points: 2
#     Edge 29, Type (0, 0), BuildingBlock: EZIPEK_clean_linker_0, # of connection points: 2
#     Edge 30, Type (0, 0), BuildingBlock: EZIPEK_clean_linker_0, # of connection points: 2
#     Edge 31, Type (0, 0), BuildingBlock: EZIPEK_clean_linker_0, # of connection points: 2
#     Edge 32, Type (0, 0), BuildingBlock: EZIPEK_clean_linker_0, # of connection points: 2
#     Edge 33, Type (0, 0), BuildingBlock: EZIPEK_clean_linker_0, # of connection points: 2
#     Edge 34, Type (0, 0), BuildingBlock: EZIPEK_clean_linker_0, # of connection points: 2
#     Edge 35, Type (0, 0), BuildingBlock: EZIPEK_clean_linker_0, # of connection points: 2
# Relax obj value: 0.309
# Max RMSD: 0.127
# Mean RMSD: 0.119
data_MOF--net-wjg--node1-KUFVIS_clean_sbu_0--edge1-EZIPEK_clean_linker_0
_symmetry_space_group_name_H-M    P1
_symmetry_Int_Tables_number       1
_symmetry_cell_setting            triclinic
loop_
_symmetry_equiv_pos_as_xyz
'x, y, z'
_cell_length_a     22.971538
_cell_length_b     22.888611
_cell_length_c     29.722954
_cell_angle_alpha  90.527595
_cell_angle_beta   89.658901
_cell_angle_gamma 120.85372
loop_
_atom_site_label
_atom_site_type_symbol
_atom_site_fract_x
_atom_site_fract_y
_atom_site_fract_z
_atom_type_partial_charge
Mn0 Mn 0.09915 0.34399 0.30442 0.0
Mn1 Mn 0.17845 0.29747 0.37995 0.0
C2 C 0.09825 0.24197 0.30364 0.0
C3 C 0.06228 0.36151 0.23174 0.0
C4 C 0.07582 0.32017 0.40464 0.0
O5 O 0.17785 0.43773 0.3226 0.0
O6 O 0.21653 0.40276 0.38187 0.0
C7 C 0.30538 0.36594 0.32462 0.0
N8 N 0.27033 0.32866 0.3685 0.0
C9 C 0.38997 0.365 0.42433 0.0
C10 C 0.45526 0.41307 0.38996 0.0
C11 C 0.43917 0.4299 0.3337 0.0
C12 C 0.30609 0.32861 0.41319 0.0
H13 H 0.27265 0.36452 0.2976 0.0
C14 C 0.21966 0.45101 0.35578 0.0
O15 O 0.0408 0.37202 0.26973 0.0
O16 O 0.1119 0.35019 0.23584 0.0
N17 N 0.1975 0.27375 0.43898 0.0
C18 C 0.15111 0.21333 0.45841 0.0
C19 C 0.16926 0.18331 0.49225 0.0
C20 C 0.2362 0.21587 0.507 0.0
C21 C 0.2852 0.27333 0.48406 0.0
C22 C 0.2635 0.29628 0.44738 0.0
H23 H 0.09932 0.18673 0.44793 0.0
O24 O 0.04363 0.24296 0.29408 0.0
O25 O 0.1498 0.2983 0.31865 0.0
O26 O 0.06841 0.34806 0.37033 0.0
O27 O 0.08715 0.27253 0.39713 0.0
C28 C 0.35446 0.30216 0.49418 0.0
C29 C 0.40562 0.34949 0.46602 0.0
H30 H 0.45673 0.42749 0.35944 0.0
H31 H 0.47692 0.4614 0.30394 0.0
H32 H 0.13121 0.1363 0.50765 0.0
H33 H 0.24999 0.19394 0.5341 0.0
H34 H 0.3694 0.28573 0.52377 0.0
H35 H 0.45814 0.36988 0.47527 0.0
Mn36 Mn 0.73176 0.11679 0.63253 0.0
Mn37 Mn 0.84243 0.18548 0.71836 0.0
C38 C 0.83911 0.12945 0.6365 0.0
C39 C 0.68507 0.08002 0.55756 0.0
C40 C 0.71616 0.06933 0.72811 0.0
O41 O 0.71048 0.18981 0.65247 0.0
O42 O 0.7717 0.21842 0.71879 0.0
C43 C 0.91413 0.32839 0.67957 0.0
N44 N 0.90497 0.28043 0.71916 0.0
C45 C 0.97074 0.38269 0.79159 0.0
C46 C -0.00706 0.45553 0.76471 0.0
C47 C 0.9762 0.45464 0.7086 0.0
C48 C 0.92882 0.3029 0.76911 0.0
H49 H 0.89161 0.3051 0.64712 0.0
C50 C 0.73423 0.22739 0.68866 0.0
O51 O 0.64957 0.05585 0.5939 0.0
O52 O 0.74463 0.13374 0.56429 0.0
N53 N 0.869 0.18886 0.78099 0.0
C54 C 0.87763 0.138 0.79722 0.0
C55 C 0.92051 0.14883 0.83365 0.0
C56 C 0.9492 0.21021 0.85723 0.0
C57 C 0.94423 0.26366 0.83939 0.0
C58 C 0.90971 0.25177 0.79811 0.0
H59 H 0.85229 0.0883 0.78209 0.0
O60 O 0.78729 0.07206 0.62291 0.0
O61 O 0.82629 0.17352 0.65407 0.0
O62 O 0.68716 0.07538 0.69428 0.0
O63 O 0.77756 0.08831 0.7234 0.0
C64 C 0.98021 0.3291 0.85888 0.0
C65 C 0.99019 0.38692 0.83634 0.0
H66 H 0.019 0.50168 0.78408 0.0
H67 H 0.98656 0.49821 0.6911 0.0
H68 H 0.9281 0.10837 0.84471 0.0
H69 H 0.97877 0.21714 0.8872 0.0
H70 H 0.00328 0.33598 0.89169 0.0
H71 H 0.01803 0.43607 0.85289 0.0
Mn72 Mn 0.62476 0.72214 0.98371 0.0
Mn73 Mn 0.63451 0.82749 0.06726 0.0
C74 C 0.7267 0.82814 0.99854 0.0
C75 C 0.61861 0.68377 0.90646 0.0
C76 C 0.594 0.68419 0.08073 0.0
O77 O 0.52418 0.69941 0.99267 0.0
O78 O 0.54308 0.78937 0.03758 0.0
C79 C 0.60693 0.9263 0.04327 0.0
N80 N 0.66458 0.91923 0.06053 0.0
C81 C 0.70034 0.00552 0.14188 0.0
C82 C 0.64159 0.03082 0.14114 0.0
C83 C 0.58278 0.00402 0.09812 0.0
C84 C 0.70743 0.95337 0.10364 0.0
H85 H 0.58228 0.89724 0.01296 0.0
C86 C 0.5036 0.73587 0.01358 0.0
O87 O 0.60459 0.64418 0.94074 0.0
O88 O 0.62728 0.74302 0.91656 0.0
N89 N 0.72045 0.86129 0.09774 0.0
C90 C 0.75723 0.83074 0.10349 0.0
C91 C 0.81209 0.85948 0.13383 0.0
C92 C 0.82678 0.91822 0.15867 0.0
C93 C 0.78752 0.94847 0.15235 0.0
C94 C 0.74002 0.92195 0.11772 0.0
H95 H 0.74526 0.78575 0.08421 0.0
O96 O 0.72884 0.77714 0.98084 0.0
O97 O 0.66698 0.81432 1.00959 0.0
O98 O 0.61957 0.67397 0.04545 0.0
O99 O 0.59713 0.7392 0.08676 0.0
C100 C 0.79224 0.00102 0.18054 0.0
C101 C 0.74722 0.0259 0.17709 0.0
H102 H 0.64104 0.06318 0.16767 0.0
H103 H 0.54503 0.01873 0.09822 0.0
H104 H 0.84196 0.83576 0.13867 0.0
H105 H 0.86721 0.9386 0.18328 0.0
H106 H 0.82853 0.01999 0.20787 0.0
H107 H 0.74938 0.06158 0.20213 0.0
Mn108 Mn 0.89928 0.63998 0.32072 0.0
Mn109 Mn 0.80149 0.64191 0.40584 0.0
C110 C 0.89473 0.74083 0.33954 0.0
C111 C 0.93409 0.63888 0.24246 0.0
C112 C 0.90707 0.608 0.41856 0.0
O113 O 0.81951 0.53651 0.32636 0.0
O114 O 0.74818 0.55056 0.37288 0.0
C115 C 0.67842 0.6161 0.3713 0.0
N116 N 0.74048 0.67071 0.39616 0.0
C117 C 0.6758 0.68839 0.4776 0.0
C118 C 0.59129 0.62917 0.46981 0.0
C119 C 0.56525 0.57714 0.41884 0.0
C120 C 0.74143 0.70442 0.4431 0.0
H121 H 0.72982 0.65154 0.37827 0.0
C122 C 0.76143 0.51262 0.34711 0.0
O123 O 0.95899 0.62445 0.27663 0.0
O124 O 0.88319 0.64623 0.25295 0.0
N125 N 0.84962 0.72564 0.44057 0.0
C126 C 0.91687 0.76782 0.44841 0.0
C127 C 0.93749 0.82434 0.4774 0.0
C128 C 0.88822 0.83143 0.50163 0.0
C129 C 0.81932 0.78352 0.49578 0.0
C130 C 0.80373 0.73769 0.46074 0.0
H131 H 0.95383 0.76006 0.43106 0.0
O132 O 0.94833 0.74519 0.32126 0.0
O133 O 0.84949 0.67954 0.3493 0.0
O134 O 0.94115 0.6326 0.38235 0.0
O135 O 0.85443 0.60867 0.42622 0.0
C136 C 0.76659 0.78126 0.52233 0.0
C137 C 0.69699 0.73175 0.51533 0.0
H138 H 0.56659 0.59687 0.44605 0.0
H139 H 0.50943 0.53719 0.4057 0.0
H140 H 0.99089 0.86078 0.48217 0.0
H141 H 0.90352 0.874 0.5244 0.0
H142 H 0.77967 0.81641 0.55034 0.0
H143 H 0.65946 0.72922 0.53869 0.0
Mn144 Mn 0.2514 0.91994 0.657 0.0
Mn145 Mn 0.17085 0.86231 0.75463 0.0
C146 C 0.15669 0.93189 0.68213 0.0
C147 C 0.27789 0.95066 0.57824 0.0
C148 C 0.30146 0.95182 0.75139 0.0
O149 O 0.2611 0.83696 0.6567 0.0
O150 O 0.21484 0.80931 0.72562 0.0
C151 C 0.07663 0.7129 0.73982 0.0
N152 N 0.08805 0.78003 0.76078 0.0
C153 C 0.9856 0.72447 0.83344 0.0
C154 C 0.95313 0.63808 0.82719 0.0
C155 C 0.98242 0.60755 0.78434 0.0
C156 C 0.04803 0.78758 0.80168 0.0
H157 H 0.09776 0.76542 0.74571 0.0
C158 C 0.24254 0.79732 0.69081 0.0
O159 O 0.32365 0.97138 0.60921 0.0
O160 O 0.21701 0.90766 0.59202 0.0
N161 N 0.12438 0.9018 0.78723 0.0
C162 C 0.15013 0.96921 0.79673 0.0
C163 C 0.11844 0.98899 0.8289 0.0
C164 C 0.0627 0.93973 0.85335 0.0
C165 C 0.03784 0.87044 0.84529 0.0
C166 C 0.06949 0.85372 0.8112 0.0
H167 H 0.19391 0.0083 0.77915 0.0
O168 O 0.21189 0.98195 0.66493 0.0
O169 O 0.16019 0.87941 0.69212 0.0
O170 O 0.31929 0.94388 0.713 0.0
O171 O 0.2484 0.95191 0.74941 0.0
C172 C 0.98441 0.81928 0.87154 0.0
C173 C 0.95963 0.74887 0.86628 0.0
H174 H 0.91281 0.60259 0.84902 0.0
H175 H 0.95861 0.55307 0.77858 0.0
H176 H 0.13756 0.04241 0.83526 0.0
H177 H 0.04006 0.95589 0.87896 0.0
H178 H 0.96169 0.83445 0.89772 0.0
H179 H 0.91923 0.71317 0.88803 0.0
Mn180 Mn 0.33979 0.24475 0.96933 0.0
Mn181 Mn 0.30799 0.13977 0.04719 0.0
C182 C 0.2373 0.13827 0.97081 0.0
C183 C 0.34752 0.30282 0.89989 0.0
C184 C 0.38494 0.26208 0.06826 0.0
O185 O 0.43962 0.26574 0.96756 0.0
O186 O 0.41491 0.19068 0.0234 0.0
C187 C 0.37439 0.05604 0.0447 0.0
N188 N 0.31341 0.06198 0.058 0.0
C189 C 0.26324 0.96977 0.13546 0.0
C190 C 0.32323 0.94589 0.14004 0.0
C191 C 0.38941 0.97536 0.10144 0.0
C192 C 0.26209 0.02363 0.09634 0.0
H193 H 0.40384 0.0853 0.01568 0.0
C194 C 0.45784 0.23161 0.99165 0.0
O195 O 0.36174 0.33329 0.93873 0.0
O196 O 0.33516 0.241 0.90102 0.0
N197 N 0.2131 0.08045 0.06492 0.0
C198 C 0.16243 0.0949 0.06308 0.0
C199 C 0.10326 0.05709 0.08868 0.0
C200 C 0.09757 0.0068 0.11801 0.0
C201 C 0.15141 0.99491 0.12228 0.0
C202 C 0.20795 0.03236 0.0944 0.0
H203 H 0.16863 0.13746 0.04377 0.0
O204 O 0.23658 0.19427 0.96628 0.0
O205 O 0.29426 0.14536 0.98346 0.0
O206 O 0.34866 0.2728 0.04015 0.0
O207 O 0.39519 0.21394 0.05809 0.0
C208 C 0.15028 0.94925 0.15479 0.0
C209 C 0.20466 0.93804 0.16185 0.0
H210 H 0.31805 0.91025 0.16565 0.0
H211 H 0.42612 0.95883 0.10322 0.0
H212 H 0.06287 0.06821 0.08685 0.0
H213 H 0.0522 0.97901 0.13829 0.0
H214 H 0.10594 0.92185 0.17605 0.0
H215 H 0.19945 0.90191 0.18713 0.0
Mn216 Mn 0.60287 0.83343 0.32765 0.0
Mn217 Mn 0.56169 0.6754 0.31796 0.0
C218 C 0.69993 0.81982 0.32233 0.0
C219 C 0.61423 0.91118 0.38971 0.0
C220 C 0.55073 0.74748 0.2432 0.0
O221 O 0.49706 0.77014 0.33833 0.0
O222 O 0.51426 0.69312 0.36645 0.0
C223 C 0.64305 0.67882 0.40023 0.0
N224 N 0.59823 0.64498 0.35748 0.0
C225 C 0.58149 0.50977 0.36075 0.0
C226 C 0.6182 0.51244 0.41076 0.0
C227 C 0.65879 0.58598 0.44107 0.0
C228 C 0.57329 0.57285 0.33709 0.0
H229 H 0.65842 0.73134 0.40868 0.0
C230 C 0.47335 0.71317 0.35845 0.0
O231 O 0.59954 0.91894 0.34885 0.0
O232 O 0.61948 0.85836 0.39418 0.0
N233 N 0.60032 0.64254 0.27591 0.0
C234 C 0.6584 0.67857 0.25241 0.0
C235 C 0.6886 0.64515 0.23204 0.0
C236 C 0.65717 0.57461 0.23539 0.0
C237 C 0.60622 0.54135 0.26768 0.0
C238 C 0.58296 0.57969 0.29069 0.0
H239 H 0.68128 0.73225 0.2506 0.0
O240 O 0.70556 0.87888 0.32091 0.0
O241 O 0.63699 0.76995 0.32398 0.0
O242 O 0.58636 0.81001 0.25751 0.0
O243 O 0.51843 0.70094 0.27172 0.0
C244 C 0.59293 0.47881 0.28409 0.0
C245 C 0.58029 0.46381 0.32975 0.0
H246 H 0.61969 0.46893 0.42241 0.0
H247 H 0.6841 0.58667 0.4723 0.0
H248 H 0.73654 0.67353 0.21464 0.0
H249 H 0.68034 0.54898 0.21903 0.0
H250 H 0.60033 0.44489 0.2625 0.0
H251 H 0.57323 0.41829 0.3421 0.0
Mn252 Mn 0.783 0.63121 0.66877 0.0
Mn253 Mn 0.90438 0.59859 0.66883 0.0
C254 C 0.8933 0.73169 0.66546 0.0
C255 C 0.7143 0.63606 0.73142 0.0
C256 C 0.82456 0.58137 0.58647 0.0
O257 O 0.73799 0.52653 0.67579 0.0
O258 O 0.82719 0.54059 0.71006 0.0
C259 C 0.97592 0.69091 0.75684 0.0
N260 N 0.9653 0.64111 0.71622 0.0
C261 C 0.06868 0.60606 0.73635 0.0
C262 C 0.09939 0.64376 0.78722 0.0
C263 C 0.07043 0.69664 0.81177 0.0
C264 C 0.00877 0.60796 0.70446 0.0
H265 H 0.95455 0.66116 0.72704 0.0
C266 C 0.76706 0.50007 0.69609 0.0
O267 O 0.69201 0.62295 0.69031 0.0
O268 O 0.77366 0.64501 0.73544 0.0
N269 N 0.98513 0.63524 0.63507 0.0
C270 C 0.00808 0.66651 0.59519 0.0
C271 C 0.0599 0.66195 0.57318 0.0
C272 C 0.08831 0.62753 0.59392 0.0
C273 C 0.07214 0.60753 0.63894 0.0
C274 C 0.01972 0.61237 0.65849 0.0
H275 H 0.99081 0.69836 0.58294 0.0
O276 O 0.83857 0.73409 0.66306 0.0
O277 O 0.88213 0.67006 0.66765 0.0
O278 O 0.79448 0.61388 0.59985 0.0
O279 O 0.84695 0.55563 0.61475 0.0
C280 C 0.10903 0.58667 0.66455 0.0
C281 C 0.10787 0.58623 0.7122 0.0
H282 H 0.09097 0.67331 0.8056 0.0
H283 H 0.08891 0.72938 0.84644 0.0
H284 H 0.07908 0.68567 0.54097 0.0
H285 H 0.12737 0.62297 0.57654 0.0
H286 H 0.14199 0.57449 0.64649 0.0
H287 H 0.13997 0.57377 0.73081 0.0
Mn288 Mn 0.15443 0.76932 0.99688 0.0
Mn289 Mn 0.31975 0.87718 0.98554 0.0
C290 C 0.17991 0.88452 0.98256 0.0
C291 C 0.08119 0.71823 0.06482 0.0
C292 C 0.23354 0.78974 0.91046 0.0
O293 O 0.19885 0.7111 1.00562 0.0
O294 O 0.28104 0.80444 0.03074 0.0
C295 C 0.30012 0.95398 0.06438 0.0
N296 N 0.34736 0.94412 0.03031 0.0
C297 C 0.47954 0.06203 0.05568 0.0
C298 C 0.45931 0.09487 0.1007 0.0
C299 C 0.37681 0.06017 0.11715 0.0
C300 C 0.42565 0.9938 0.02312 0.0
H301 H 0.31526 0.93258 0.03845 0.0
C302 C 0.25857 0.74286 0.02003 0.0
O303 O 0.06569 0.68901 0.02552 0.0
O304 O 0.13778 0.77485 0.06437 0.0
N305 N 0.38713 0.95282 0.94993 0.0
C306 C 0.39502 0.95786 0.90474 0.0
C307 C 0.45074 0.01391 0.88508 0.0
C308 C 0.50031 0.06421 0.91252 0.0
C309 C 0.49415 0.05788 0.95933 0.0
C310 C 0.43762 0.00011 0.97719 0.0
H311 H 0.35997 0.91911 0.88426 0.0
O312 O 0.11992 0.83209 0.98579 0.0
O313 O 0.22779 0.86902 0.98486 0.0
O314 O 0.17352 0.76369 0.92849 0.0
O315 O 0.28731 0.81029 0.93456 0.0
C316 C 0.54533 0.10584 0.98748 0.0
C317 C 0.53956 0.10614 0.03455 0.0
H318 H 0.49799 0.14099 0.11696 0.0
H319 H 0.36489 0.08165 0.14568 0.0
H320 H 0.45594 0.01766 0.84883 0.0
H321 H 0.54343 0.10753 0.89738 0.0
H322 H 0.59135 0.14303 0.97179 0.0
H323 H 0.57957 0.14416 0.05484 0.0
Mn324 Mn 0.35816 0.13763 0.32593 0.0
Mn325 Mn 0.377 0.26669 0.25707 0.0
C326 C 0.25931 0.13623 0.29677 0.0
C327 C 0.34019 0.08031 0.39783 0.0
C328 C 0.4206 0.18789 0.23748 0.0
O329 O 0.4586 0.21118 0.34658 0.0
O330 O 0.46788 0.28625 0.2954 0.0
C331 C 0.36541 0.32492 0.34852 0.0
N332 N 0.37675 0.33023 0.29576 0.0
C333 C 0.38169 0.45968 0.2783 0.0
C334 C 0.3778 0.48591 0.33112 0.0
C335 C 0.36661 0.4361 0.37685 0.0
C336 C 0.37903 0.38628 0.26341 0.0
H337 H 0.37229 0.31247 0.31523 0.0
C338 C 0.49456 0.27098 0.33017 0.0
O339 O 0.36337 0.06451 0.36266 0.0
O340 O 0.32915 0.12949 0.3914 0.0
N341 N 0.31257 0.28476 0.22816 0.0
C342 C 0.25575 0.2432 0.20461 0.0
C343 C 0.22635 0.27054 0.17697 0.0
C344 C 0.25601 0.34098 0.17355 0.0
C345 C 0.31179 0.38378 0.20051 0.0
C346 C 0.33961 0.35344 0.22702 0.0
H347 H 0.23673 0.19004 0.20392 0.0
O348 O 0.25992 0.08199 0.30756 0.0
O349 O 0.31749 0.19284 0.3018 0.0
O350 O 0.38711 0.13112 0.25806 0.0
O351 O 0.43878 0.23862 0.26231 0.0
C352 C 0.3337 0.45347 0.20509 0.0
C353 C 0.36918 0.49131 0.24323 0.0
H354 H 0.38766 0.53663 0.33557 0.0
H355 H 0.36403 0.45437 0.41044 0.0
H356 H 0.1824 0.23742 0.15677 0.0
H357 H 0.23246 0.36139 0.1524 0.0
H358 H 0.31475 0.47633 0.18211 0.0
H359 H 0.37538 0.54081 0.24885 0.0
Mn360 Mn 0.22317 0.40441 0.66688 0.0
Mn361 Mn 0.10805 0.44227 0.63375 0.0
C362 C 0.11296 0.30966 0.65063 0.0
C363 C 0.27815 0.39285 0.73274 0.0
C364 C 0.21077 0.44756 0.57356 0.0
O365 O 0.26799 0.50989 0.67411 0.0
O366 O 0.16828 0.5003 0.68385 0.0
C367 C 0.00754 0.38144 0.71689 0.0
N368 N 0.02771 0.40904 0.66718 0.0
C369 C 0.90809 0.41728 0.64072 0.0
C370 C 0.86043 0.39403 0.68762 0.0
C371 C 0.88685 0.36865 0.73664 0.0
C372 C 0.98357 0.42248 0.63226 0.0
H373 H 0.03673 0.39979 0.68669 0.0
C374 C 0.23288 0.5379 0.68099 0.0
O375 O 0.30706 0.40741 0.69336 0.0
O376 O 0.22009 0.38896 0.73399 0.0
N377 N 0.04581 0.39589 0.58574 0.0
C378 C 0.03511 0.3435 0.55879 0.0
C379 C 0.98461 0.32052 0.5254 0.0
C380 C 0.94591 0.35126 0.52095 0.0
C381 C 0.94832 0.39463 0.55516 0.0
C382 C -0.00268 0.4127 0.58891 0.0
H383 H 0.06317 0.3187 0.56441 0.0
O384 O 0.1644 0.30252 0.6579 0.0
O385 O 0.12631 0.37192 0.65556 0.0
O386 O 0.23489 0.41821 0.59755 0.0
O387 O 0.1869 0.48011 0.59327 0.0
C388 C 0.89562 0.40832 0.55999 0.0
C389 C 0.87745 0.42217 0.60196 0.0
H390 H 0.86573 0.3791 0.71651 0.0
H391 H 0.85819 0.35024 0.77271 0.0
H392 H 0.97274 0.27779 0.50399 0.0
H393 H 0.90727 0.33305 0.49508 0.0
H394 H 0.86168 0.39804 0.53217 0.0
H395 H 0.83212 0.4251 0.60463 0.0
Mn396 Mn 0.82552 0.21682 0.99192 0.0
Mn397 Mn 0.6654 0.09878 0.98341 0.0
C398 C 0.80737 0.10188 0.98826 0.0
C399 C 0.89607 0.27389 0.06138 0.0
C400 C 0.74536 0.17786 0.9046 0.0
O401 O 0.77322 0.26948 0.99419 0.0
O402 O 0.69249 0.17835 0.02403 0.0
C403 C 0.67721 0.02707 0.06746 0.0
N404 N 0.63552 0.03811 0.03037 0.0
C405 C 0.50019 0.91989 0.04667 0.0
C406 C 0.5126 0.88472 0.09287 0.0
C407 C 0.59126 0.91748 0.11504 0.0
C408 C 0.55972 0.98897 0.0175 0.0
H409 H 0.73172 0.0629 0.07019 0.0
C410 C 0.71322 0.23795 1.00933 0.0
O411 O 0.91402 0.29865 0.02133 0.0
O412 O 0.83704 0.2212 0.06057 0.0
N413 N 0.61843 0.01692 0.94938 0.0
C414 C 0.63459 0.99394 0.91223 0.0
C415 C 0.58428 0.9368 0.88923 0.0
C416 C 0.51894 0.90016 0.90748 0.0
C417 C 0.50691 0.917 0.95067 0.0
C418 C 0.55825 0.9774 0.9709 0.0
H419 H 0.68581 0.01487 0.90346 0.0
O420 O 0.86619 0.15596 0.98874 0.0
O421 O 0.75844 0.1152 0.98758 0.0
O422 O 0.80631 0.20982 0.92188 0.0
O423 O 0.69278 0.15695 0.9294 0.0
C424 C 0.44825 0.8718 0.97463 0.0
C425 C 0.44425 0.87526 0.02151 0.0
H426 H 0.47117 0.83851 0.10678 0.0
H427 H 0.59805 0.89237 0.14399 0.0
H428 H 0.59657 0.91925 0.85869 0.0
H429 H 0.4807 0.85459 0.89035 0.0
H430 H 0.40648 0.83027 0.95688 0.0
H431 H 0.4011 0.83729 0.03897 0.0
C432 C 0.31663 0.55228 0.40289 0.0
C433 C 0.27722 0.52668 0.36207 0.0
C434 C 0.35039 0.64432 0.33129 0.0
C435 C 0.39812 0.66198 0.36623 0.0
N436 N 0.42229 0.63614 0.43916 0.0
N437 N 0.27496 0.55331 0.28234 0.0
C438 C 0.37889 0.61727 0.40345 0.0
C439 C 0.29765 0.57462 0.32526 0.0
N440 N 0.29676 0.51508 0.44138 0.0
N441 N 0.35647 0.69322 0.30252 0.0
H442 H 0.25198 0.5031 0.27146 0.0
H443 H 0.29147 0.58608 0.25493 0.0
H444 H 0.39264 0.74453 0.30696 0.0
H445 H 0.31975 0.6841 0.27853 0.0
H446 H 0.31705 0.5353 0.47288 0.0
H447 H 0.25803 0.46509 0.44328 0.0
H448 H 0.41948 0.60261 0.46372 0.0
H449 H 0.46335 0.68568 0.44307 0.0
C450 C 0.72859 0.32218 0.73606 0.0
C451 C 0.72223 0.28854 0.6936 0.0
C452 C 0.70715 0.37987 0.6603 0.0
C453 C 0.7356 0.42247 0.69886 0.0
N454 N 0.7659 0.42872 0.77669 0.0
N455 N 0.7185 0.30191 0.61193 0.0
C456 C 0.74309 0.39149 0.73786 0.0
C457 C 0.71302 0.32069 0.65485 0.0
N458 N 0.72281 0.28914 0.77493 0.0
N459 N 0.67553 0.39558 0.62803 0.0
H460 H 0.73898 0.27206 0.60352 0.0
H461 H 0.71525 0.3267 0.58366 0.0
H462 H 0.66669 0.43566 0.63106 0.0
H463 H 0.64945 0.36268 0.60132 0.0
H464 H 0.72044 0.30754 0.80665 0.0
H465 H 0.71461 0.24057 0.77455 0.0
H466 H 0.78238 0.41347 0.80436 0.0
H467 H 0.77081 0.47641 0.78046 0.0
C468 C 0.39798 0.71011 0.0572 0.0
C469 C 0.42898 0.71386 0.01474 0.0
C470 C 0.32454 0.69633 0.9787 0.0
C471 C 0.30426 0.7131 0.0198 0.0
N472 N 0.31555 0.72466 0.10003 0.0
N473 N 0.41874 0.7083 0.93384 0.0
C474 C 0.33812 0.71445 0.0598 0.0
C475 C 0.39057 0.70423 0.97511 0.0
N476 N 0.42596 0.70221 0.09519 0.0
N477 N 0.28103 0.67262 0.94315 0.0
H478 H 0.46684 0.71501 0.9296 0.0
H479 H 0.39629 0.71013 0.90394 0.0
H480 H 0.23246 0.66536 0.94483 0.0
H481 H 0.29029 0.65266 0.91417 0.0
H482 H 0.40367 0.69442 0.12678 0.0
H483 H 0.4686 0.69752 0.09415 0.0
H484 H 0.34279 0.73641 0.12993 0.0
H485 H 0.27004 0.72417 0.10289 0.0
C486 C 0.61721 0.33664 0.30034 0.0
C487 C 0.57229 0.31327 0.33789 0.0
C488 C 0.67005 0.39985 0.38323 0.0
C489 C 0.7049 0.43659 0.3435 0.0
N490 N 0.71173 0.43205 0.26244 0.0
N491 N 0.56201 0.31837 0.41821 0.0
C492 C 0.67961 0.40174 0.30162 0.0
C493 C 0.60157 0.34173 0.38064 0.0
N494 N 0.60169 0.2946 0.26407 0.0
N495 N 0.70228 0.42112 0.42366 0.0
H496 H 0.51266 0.27678 0.41727 0.0
H497 H 0.57675 0.34229 0.44951 0.0
H498 H 0.7514 0.46287 0.4264 0.0
H499 H 0.68281 0.3941 0.45337 0.0
H500 H 0.63512 0.30485 0.23736 0.0
H501 H 0.559 0.24567 0.26402 0.0
H502 H 0.69099 0.41232 0.2309 0.0
H503 H 0.75638 0.47917 0.26124 0.0
C504 C 0.26116 0.70874 0.64638 0.0
C505 C 0.25336 0.73505 0.6891 0.0
C506 C 0.26994 0.64582 0.72546 0.0
C507 C 0.26503 0.61479 0.68386 0.0
N508 N 0.29228 0.63486 0.60604 0.0
N509 N 0.23972 0.71311 0.7699 0.0
C510 C 0.27349 0.653 0.64484 0.0
C511 C 0.25739 0.701 0.72884 0.0
N512 N 0.24718 0.72931 0.60691 0.0
N513 N 0.28481 0.62079 0.76234 0.0
H514 H 0.22051 0.7443 0.77563 0.0
H515 H 0.23289 0.68319 0.79789 0.0
H516 H 0.29251 0.57971 0.75976 0.0
H517 H 0.29765 0.6454 0.79352 0.0
H518 H 0.25026 0.71088 0.57541 0.0
H519 H 0.2205 0.7546 0.60503 0.0
H520 H 0.30646 0.66383 0.57686 0.0
H521 H 0.30217 0.59515 0.60529 0.0
C522 C 0.62886 0.26892 0.04252 0.0
C523 C 0.66399 0.26423 1.00466 0.0
C524 C 0.57297 0.25702 0.95592 0.0
C525 C 0.53344 0.25271 0.99429 0.0
N526 N 0.5488 0.30017 0.06837 0.0
N527 N 0.68676 0.29702 0.92701 0.0
C528 C 0.56829 0.27133 0.03629 0.0
C529 C 0.64185 0.27239 0.96172 0.0
N530 N 0.65253 0.26998 0.08467 0.0
N531 N 0.54468 0.24364 0.91414 0.0
H532 H 0.73699 0.30953 0.93053 0.0
H533 H 0.67562 0.31162 0.89664 0.0
H534 H 0.49483 0.23129 0.90864 0.0
H535 H 0.56957 0.24042 0.88564 0.0
H536 H 0.62485 0.26561 0.11369 0.0
H537 H 0.69832 0.27179 0.09002 0.0
H538 H 0.57597 0.32082 0.09795 0.0
H539 H 0.51493 0.31574 0.06034 0.0
C540 C 0.11142 0.15347 0.26081 0.0
C541 C 0.10149 0.17893 0.30165 0.0
C542 C 0.16577 0.13873 0.34143 0.0
C543 C 0.19334 0.13472 0.29961 0.0
N544 N 0.14523 0.07644 0.22997 0.0
N545 N 0.07077 0.13758 0.37625 0.0
C546 C 0.15121 0.12197 0.26188 0.0
C547 C 0.11429 0.15511 0.3413 0.0
N548 N 0.08339 0.15904 0.22211 0.0
N549 N 0.18264 0.11996 0.38014 0.0
H550 H 0.02808 0.14263 0.37535 0.0
H551 H 0.02808 0.14263 0.37535 0.0
H552 H 0.21427 0.10001 0.38041 0.0
H553 H 0.15974 0.11853 0.41075 0.0
H554 H 0.09079 0.14226 0.19106 0.0
H555 H 0.05311 0.18088 0.22182 0.0
H556 H 0.11125 0.06201 0.20334 0.0
H557 H 0.16879 0.04812 0.23407 0.0
C558 C 0.94014 0.16014 0.68203 0.0
C559 C 0.90901 0.14235 0.6398 0.0
C560 C 0.02272 0.20402 0.60975 0.0
C561 C 0.04358 0.24839 0.64773 0.0
N562 N 0.02572 0.24524 0.72891 0.0
N563 N 0.92691 0.1347 0.56083 0.0
C564 C 0.00321 0.22052 0.68683 0.0
C565 C 0.95207 0.16058 0.60226 0.0
N566 N 0.91837 0.11271 0.71444 0.0
N567 N 0.06736 0.19089 0.58872 0.0
H568 H 0.87521 0.10091 0.55563 0.0
H569 H 0.95802 0.14763 0.53256 0.0
H570 H 0.11773 0.2138 0.59895 0.0
H571 H 0.05101 0.15031 0.56604 0.0
H572 H 0.8772 0.0634 0.70953 0.0
H573 H 0.8772 0.0634 0.70953 0.0
H574 H 0.07281 0.28853 0.73544 0.0
H575 H 0.07281 0.28853 0.73544 0.0
C576 C 0.80086 0.00047 0.94754 0.0
C577 C 0.8018 0.03315 0.98837 0.0
C578 C 0.81868 0.94573 0.0225 0.0
C579 C 0.77752 0.90037 0.98829 0.0
N580 N 0.75534 0.89573 0.90827 0.0
N581 N 0.85751 0.05397 0.06056 0.0
C582 C 0.77237 0.92992 0.94805 0.0
C583 C 0.82549 0.01149 0.02517 0.0
N584 N 0.85239 0.03335 0.91779 0.0
N585 N 0.85983 0.93073 0.04598 0.0
H586 H 0.8684 0.10393 0.06103 0.0
H587 H 0.8737 0.03954 0.08873 0.0
H588 H 0.85918 0.88534 0.03986 0.0
H589 H 0.89785 0.96529 0.0675 0.0
H590 H 0.89182 0.08341 0.92305 0.0
H591 H 0.89182 0.08341 0.92305 0.0
H592 H 0.74391 0.84553 0.90512 0.0
H593 H 0.74391 0.84553 0.90512 0.0
C594 C 0.79663 0.81233 0.28535 0.0
C595 C 0.76273 0.8144 0.32479 0.0
C596 C 0.86119 0.82599 0.36496 0.0
C597 C 0.87151 0.79021 0.32994 0.0
N598 N 0.86676 0.77825 0.24864 0.0
N599 N 0.78315 0.85279 0.40214 0.0
C600 C 0.84377 0.79053 0.28766 0.0
C601 C 0.80112 0.8302 0.36504 0.0
N602 N 0.79298 0.84085 0.24673 0.0
N603 N 0.91469 0.86773 0.39149 0.0
H604 H 0.74064 0.85801 0.40291 0.0
H605 H 0.80983 0.86451 0.43228 0.0
H606 H 0.9615 0.87106 0.38708 0.0
H607 H 0.91427 0.90335 0.41341 0.0
H608 H 0.76974 0.86973 0.24549 0.0
H609 H 0.76974 0.86973 0.24549 0.0
H610 H 0.9066 0.76884 0.24726 0.0
H611 H 0.9066 0.76884 0.24726 0.0
C612 C 0.06032 0.88874 0.63024 0.0
C613 C 0.08772 0.91901 0.67208 0.0
C614 C 0.98223 0.83538 0.7086 0.0
C615 C 0.96066 0.79654 0.66806 0.0
N616 N 0.95437 0.82784 0.59237 0.0
N617 N 0.04575 0.94913 0.73661 0.0
C618 C 0.99241 0.83355 0.62842 0.0
C619 C 0.04121 0.90079 0.70787 0.0
N620 N 0.09746 0.91486 0.59207 0.0
N621 N 0.9446 0.81517 0.74695 0.0
H622 H 0.08365 0.00028 0.73346 0.0
H623 H 0.08365 0.00028 0.73346 0.0
H624 H 0.89958 0.76846 0.75028 0.0
H625 H 0.89958 0.76846 0.75028 0.0
H626 H 0.08168 0.89026 0.56092 0.0
H627 H 0.14367 0.9609 0.5925 0.0
H628 H 0.97592 0.86132 0.56571 0.0
H629 H 0.9016 0.79874 0.59301 0.0
C630 C 0.22116 0.04813 0.92257 0.0
C631 C 0.18754 0.07268 0.94845 0.0
C632 C 0.1325 0.96484 0.98921 0.0
C633 C 0.18529 0.95292 0.97411 0.0
N634 N 0.29348 0.00804 0.93721 0.0
N635 N 0.08002 0.03475 0.9815 0.0
C636 C 0.23188 -0.00056 0.94231 0.0
C637 C 0.13222 0.024 0.9736 0.0
N638 N 0.25881 0.0837 0.88661 0.0
N639 N 0.08739 0.92441 0.02134 0.0
H640 H 0.08233 0.07892 0.96997 0.0
H641 H 0.03442 -0.00066 0.99652 0.0
H642 H 0.09342 0.88923 0.03963 0.0
H643 H 0.04844 0.93075 0.03354 0.0
H644 H 0.25395 0.12233 0.87209 0.0
H645 H 0.25395 0.12233 0.87209 0.0
H646 H 0.31047 0.98817 0.96125 0.0
H647 H 0.31047 0.98817 0.96125 0.0
C648 C -0.0023 0.36646 0.11036 0.0
C649 C 0.93951 0.29908 0.10533 0.0
C650 C 0.95686 0.28059 0.18599 0.0
C651 C 0.01979 0.34303 0.18849 0.0
N652 N 0.10445 0.44184 0.14932 0.0
N653 N 0.87856 0.18644 0.14024 0.0
C654 C 0.04166 0.3845 0.14936 0.0
C655 C 0.92314 0.25491 0.14365 0.0
N656 N 0.00944 0.41523 0.07959 0.0
N657 N 0.92796 0.2441 0.22424 0.0
H658 H 0.85101 0.16094 0.11204 0.0
H659 H 0.87457 0.15251 0.16491 0.0
H660 H 0.95061 0.25777 0.25577 0.0
H661 H 0.87814 0.20321 0.22527 0.0
H662 H 0.047 0.46618 0.08359 0.0
H663 H 0.97677 0.40711 0.05306 0.0
H664 H 0.1268 0.47051 0.12053 0.0
H665 H 0.1361 0.45759 0.17744 0.0
C666 C 0.67697 0.0705 0.4699 0.0
C667 C 0.66378 0.03906 0.51307 0.0
C668 C 0.60249 0.92724 0.47356 0.0
C669 C 0.62495 0.95766 0.43053 0.0
N670 N 0.6935 0.06197 0.38955 0.0
N671 N 0.63117 0.93394 0.55207 0.0
C672 C 0.66457 0.03047 0.42914 0.0
C673 C 0.63095 0.96644 0.5138 0.0
N674 N 0.69979 0.13841 0.46747 0.0
N675 N 0.55247 0.8604 0.47646 0.0
H676 H 0.65783 0.95942 0.58097 0.0
H677 H 0.61307 0.88184 0.5529 0.0
H678 H 0.52729 0.83086 0.44826 0.0
H679 H 0.53038 0.83726 0.50696 0.0
H680 H 0.70406 0.16311 0.4373 0.0
H681 H 0.70795 0.16856 0.49597 0.0
H682 H 0.7288 0.11386 0.38737 0.0
H683 H 0.68677 0.03557 0.35949 0.0
C684 C 0.67316 0.63224 0.85658 0.0
C685 C 0.63582 0.66639 0.86003 0.0
C686 C 0.64472 0.67835 0.77641 0.0
C687 C 0.67661 0.63883 0.77338 0.0
N688 N 0.69839 0.5594 0.81134 0.0
N689 N 0.5739 0.70879 0.8203 0.0
C690 C 0.68317 0.60974 0.81373 0.0
C691 C 0.61797 0.68551 0.81899 0.0
N692 N 0.70448 0.62573 0.89351 0.0
N693 N 0.64246 0.7118 0.73932 0.0
H694 H 0.55196 0.7127 0.85012 0.0
H695 H 0.55386 0.71745 0.7915 0.0
H696 H 0.66068 0.70769 0.708 0.0
H697 H 0.62714 0.74746 0.74049 0.0
H698 H 0.73716 0.6068 0.89159 0.0
H699 H 0.70594 0.64756 0.92467 0.0
H700 H 0.69818 0.53236 0.83945 0.0
H701 H 0.70279 0.53913 0.78079 0.0
C702 C 0.96782 0.65982 0.11157 0.0
C703 C 0.04001 0.69051 0.10898 0.0
C704 C 0.04165 0.69448 0.19279 0.0
C705 C 0.96932 0.65622 0.19582 0.0
N706 N 0.8641 0.59271 0.15525 0.0
N707 N 0.14102 0.71689 0.15012 0.0
C708 C 0.93263 0.63617 0.15431 0.0
C709 C 0.07524 0.70164 0.15051 0.0
N710 N 0.93254 0.65597 0.07379 0.0
N711 N 0.07941 0.72848 0.22972 0.0
H712 H 0.16618 0.7178 0.12062 0.0
H713 H 0.16729 0.71969 0.17932 0.0
H714 H 0.05812 0.73057 0.26029 0.0
H715 H 0.13164 0.76219 0.22817 0.0
H716 H 0.88148 0.64133 0.07431 0.0
H717 H 0.95559 0.67339 0.04258 0.0
H718 H 0.83525 0.57068 0.12639 0.0
H719 H 0.83706 0.57343 0.18509 0.0
C720 C 0.34986 0.08547 0.48367 0.0
C721 C 0.32685 0.04536 0.44355 0.0
C722 C 0.27599 0.94181 0.49155 0.0
C723 C 0.29361 0.98234 0.53145 0.0
N724 N 0.33306 0.09369 0.56359 0.0
N725 N 0.25628 0.93386 0.41072 0.0
C726 C 0.3267 0.05441 0.52689 0.0
C727 C 0.28697 0.97302 0.44791 0.0
N728 N 0.39629 0.15351 0.48086 0.0
N729 N 0.25037 0.87342 0.49513 0.0
H730 H 0.26144 0.95415 0.37871 0.0
H731 H 0.22069 0.882 0.4122 0.0
H732 H 0.24156 0.84906 0.52605 0.0
H733 H 0.24334 0.84193 0.46764 0.0
H734 H 0.42018 0.18414 0.50887 0.0
H735 H 0.41664 0.17794 0.45044 0.0
H736 H 0.34946 0.1453 0.56146 0.0
H737 H 0.31488 0.07356 0.5954 0.0
C738 C 0.30385 0.37086 0.85787 0.0
C739 C 0.33809 0.3335 0.85708 0.0
C740 C 0.3353 0.33559 0.77355 0.0
C741 C 0.30663 0.37817 0.77465 0.0
N742 N 0.28459 0.45273 0.81995 0.0
N743 N 0.40229 0.29729 0.81264 0.0
C744 C 0.29769 0.40095 0.81748 0.0
C745 C 0.35871 0.32118 0.81442 0.0
N746 N 0.27248 0.37404 0.89622 0.0
N747 N 0.33677 0.30511 0.73421 0.0
H748 H 0.42275 0.28895 0.84139 0.0
H749 H 0.42408 0.29339 0.78276 0.0
H750 H 0.31827 0.31142 0.70392 0.0
H751 H 0.35018 0.268 0.73263 0.0
H752 H 0.24139 0.39488 0.89701 0.0
H753 H 0.27021 0.34889 0.92574 0.0
H754 H 0.28378 0.47558 0.85026 0.0
H755 H 0.2829 0.47821 0.79156 0.0
C756 C 0.112 0.323 0.48309 0.0
C757 C 0.1018 0.35864 0.44906 0.0
C758 C 0.16737 0.46202 0.49669 0.0
C759 C 0.18858 0.42584 0.52508 0.0
N760 N 0.19321 0.32496 0.535 0.0
N761 N 0.11404 0.46591 0.42684 0.0
C762 C 0.16645 0.35791 0.51371 0.0
C763 C 0.12737 0.42951 0.45679 0.0
N764 N 0.06544 0.2559 0.48823 0.0
N765 N 0.18734 0.52791 0.50693 0.0
H766 H 0.07646 0.44315 0.40246 0.0
H767 H 0.1397 0.51885 0.42657 0.0
H768 H 0.22505 0.55605 0.53058 0.0
H769 H 0.16688 0.55442 0.4921 0.0
H770 H 0.06716 0.2279 0.51447 0.0
H771 H 0.02291 0.22941 0.46758 0.0
H772 H 0.1679 0.27298 0.53808 0.0
H773 H 0.2436 0.35018 0.54562 0.0
C774 C 0.67827 0.14427 0.82976 0.0
C775 C 0.73046 0.14659 0.85746 0.0
C776 C 0.72313 0.05485 0.80904 0.0
C777 C 0.69242 0.07086 0.77507 0.0
N778 N 0.61671 0.11052 0.75813 0.0
N779 N 0.79266 0.08995 0.87261 0.0
C780 C 0.66152 0.10866 0.78714 0.0
C781 C 0.75022 0.0987 0.84648 0.0
N782 N 0.64492 0.17604 0.84379 0.0
N783 N 0.73106 0.0 0.80393 0.0
H784 H 0.81884 0.12093 0.89968 0.0
H785 H 0.81884 0.12093 0.89968 0.0
H786 H 0.71121 0.96746 0.77609 0.0
H787 H 0.75438 0.98616 0.82821 0.0
H788 H 0.60235 0.17117 0.828 0.0
H789 H 0.65934 0.20659 0.87222 0.0
H790 H 0.59798 0.14318 0.76151 0.0
H791 H 0.59703 0.07746 0.73063 0.0
C792 C 0.62267 0.74054 0.18047 0.0
C793 C 0.55757 0.72178 0.19687 0.0
C794 C 0.51324 0.62603 0.14102 0.0
C795 C 0.58009 0.65004 0.12504 0.0
N796 N 0.69539 0.70468 0.14784 0.0
N797 N 0.43749 0.64211 0.19139 0.0
C798 C 0.63226 0.694 0.15419 0.0
C799 C 0.50155 0.66176 0.17732 0.0
N800 N 0.67641 0.80342 0.18757 0.0
N801 N 0.46163 0.57291 0.11833 0.0
H802 H 0.42773 0.67054 0.2146 0.0
H803 H 0.39391 0.60036 0.17854 0.0
H804 H 0.47196 0.54936 0.09172 0.0
H805 H 0.41045 0.55245 0.12539 0.0
H806 H 0.67216 0.84324 0.20112 0.0
H807 H 0.67216 0.84324 0.20112 0.0
H808 H 0.70503 0.67468 0.12587 0.0
H809 H 0.70503 0.67468 0.12587 0.0
C810 C 0.95074 0.64897 0.49035 0.0
C811 C 0.9295 0.59329 0.46127 0.0
C812 C 0.83892 0.52337 0.51644 0.0
C813 C 0.84948 0.58375 0.53847 0.0
N814 N 0.90879 0.7049 0.53854 0.0
N815 N 0.87047 0.47284 0.45442 0.0
C816 C 0.90316 0.64675 0.52266 0.0
C817 C 0.88082 0.52838 0.4784 0.0
N818 N 0.01053 0.70695 0.48105 0.0
N819 N 0.78619 0.46224 0.5302 0.0
H820 H 0.90047 0.47853 0.4263 0.0
H821 H 0.83384 0.42287 0.46183 0.0
H822 H 0.75355 0.45894 0.55589 0.0
H823 H 0.77262 0.41575 0.51526 0.0
H824 H 0.03143 0.75076 0.50095 0.0
H825 H 0.04133 0.70796 0.45467 0.0
H826 H 0.95217 0.75171 0.53367 0.0
H827 H 0.86875 0.70524 0.55469 0.0
C828 C 0.23034 0.87162 0.85794 0.0
C829 C 0.24653 0.82022 0.864 0.0
C830 C 0.32436 0.86885 0.79764 0.0
C831 C 0.30728 0.92001 0.79428 0.0
N832 N 0.27679 0.98813 0.83904 0.0
N833 N 0.32629 0.78401 0.84575 0.0
C834 C 0.2726 0.9277 0.83093 0.0
C835 C 0.29877 0.82266 0.83544 0.0
N836 N 0.17726 0.87028 0.87947 0.0
N837 N 0.36564 0.86522 0.76608 0.0
H838 H 0.30572 0.74697 0.87055 0.0
H839 H 0.36957 0.78953 0.8302 0.0
H840 H 0.38956 0.90226 0.74141 0.0
H841 H 0.37574 0.8258 0.76447 0.0
H842 H 0.16839 0.91037 0.87702 0.0
H843 H 0.1376 0.82705 0.89414 0.0
H844 H 0.3092 0.03232 0.82118 0.0
H845 H 0.3092 0.03232 0.82118 0.0
C846 C 0.34182 0.17524 0.1727 0.0
C847 C 0.40798 0.20334 0.19051 0.0
C848 C 0.44528 0.30197 0.13955 0.0
C849 C 0.38256 0.26821 0.11769 0.0
N850 N 0.26587 0.18602 0.12313 0.0
N851 N 0.52423 0.2918 0.18853 0.0
C852 C 0.32973 0.20953 0.13763 0.0
C853 C 0.4603 0.26666 0.17262 0.0
N854 N 0.28958 0.11564 0.18847 0.0
N855 N 0.48921 0.36828 0.12886 0.0
H856 H 0.56686 0.33637 0.17742 0.0
H857 H 0.56686 0.33637 0.17742 0.0
H858 H 0.47665 0.39243 0.10434 0.0
H859 H 0.53405 0.3999 0.14614 0.0
H860 H 0.29509 0.0845 0.2111 0.0
H861 H 0.24098 0.09531 0.1757 0.0
H862 H 0.25423 0.21301 0.10032 0.0
H863 H 0.25423 0.21301 0.10032 0.0
loop_
_geom_bond_atom_site_label_1
_geom_bond_atom_site_label_2
_geom_bond_distance
_geom_bond_site_symmetry_2
_ccdc_geom_bond_type
Mn0 O5 2.095 . S
Mn0 O15 2.162 . S
Mn0 O16 2.297 . S
Mn0 O24 2.385 . S
Mn0 O25 2.209 . S
Mn0 O26 2.094 . S
Mn1 O6 2.121 . S
Mn1 N8 2.257 . S
Mn1 N17 2.282 . S
Mn1 O25 2.215 . S
Mn1 O27 2.117 . S
C2 O24 1.234 . S
C2 O25 1.283 . S
C3 O15 1.281 . S
C3 O16 1.236 . S
C4 O26 1.240 . S
C4 O27 1.264 . S
O5 Mn0 2.095 . S
O5 C14 1.250 . S
O6 Mn1 2.121 . S
O6 C14 1.258 . S
C7 N8 1.326 . S
C7 C11 1.460 . S
C7 H13 0.929 . S
N8 Mn1 2.257 . S
N8 C7 1.326 . S
N8 C12 1.362 . S
C9 C10 1.258 . S
C9 C12 1.431 . S
C9 C29 1.449 . S
C10 C9 1.258 . S
C10 C11 1.477 . S
C10 H30 0.931 . S
C11 C7 1.460 . S
C11 C10 1.477 . S
C11 H31 0.930 . S
C12 N8 1.362 . S
C12 C9 1.431 . S
C12 C22 1.476 . S
H13 C7 0.929 . S
C14 O5 1.250 . S
C14 O6 1.258 . S
O15 Mn0 2.162 . S
O15 C3 1.281 . S
O16 Mn0 2.297 . S
O16 C3 1.236 . S
N17 Mn1 2.282 . S
N17 C18 1.328 . S
N17 C22 1.318 . S
C18 N17 1.328 . S
C18 C19 1.457 . S
C18 H23 0.929 . S
C19 C18 1.457 . S
C19 C20 1.291 . S
C19 H32 0.931 . S
C20 C19 1.291 . S
C20 C21 1.373 . S
C20 H33 0.929 . S
C21 C20 1.373 . S
C21 C22 1.396 . S
C21 C28 1.403 . S
C22 C12 1.476 . S
C22 N17 1.318 . S
C22 C21 1.396 . S
H23 C18 0.929 . S
O24 Mn0 2.385 . S
O24 C2 1.234 . S
O25 Mn0 2.209 . S
O25 Mn1 2.215 . S
O25 C2 1.283 . S
O26 Mn0 2.094 . S
O26 C4 1.240 . S
O27 Mn1 2.117 . S
O27 C4 1.264 . S
C28 C21 1.403 . S
C28 C29 1.399 . S
C28 H34 0.929 . S
C29 C9 1.449 . S
C29 C28 1.399 . S
C29 H35 0.930 . S
H30 C10 0.931 . S
H31 C11 0.930 . S
H32 C19 0.931 . S
H33 C20 0.929 . S
H34 C28 0.929 . S
H35 C29 0.930 . S
Mn36 O41 2.095 . S
Mn36 O51 2.162 . S
Mn36 O52 2.297 . S
Mn36 O60 2.385 . S
Mn36 O61 2.209 . S
Mn36 O62 2.094 . S
Mn37 O42 2.121 . S
Mn37 N44 2.257 . S
Mn37 N53 2.282 . S
Mn37 O61 2.215 . S
Mn37 O63 2.117 . S
C38 O60 1.234 . S
C38 O61 1.283 . S
C39 O51 1.281 . S
C39 O52 1.236 . S
C40 O62 1.240 . S
C40 O63 1.264 . S
O41 Mn36 2.095 . S
O41 C50 1.250 . S
O42 Mn37 2.121 . S
O42 C50 1.258 . S
C43 N44 1.326 . S
C43 C47 1.458 1_655 S
C43 H49 0.929 . S
N44 Mn37 2.257 . S
N44 C43 1.326 . S
N44 C48 1.362 1_655 S
C45 C46 1.258 . S
C45 C48 1.431 . S
C45 C65 1.449 . S
C46 C45 1.258 . S
C46 C47 1.480 . S
C46 H66 0.931 . S
C47 C43 1.458 1_455 S
C47 C46 1.480 . S
C47 H67 0.921 1_455 S
C48 N44 1.362 1_455 S
C48 C45 1.431 . S
C48 C58 1.476 . S
H49 C43 0.929 . S
C50 O41 1.250 . S
C50 O42 1.258 . S
O51 Mn36 2.162 . S
O51 C39 1.281 . S
O52 Mn36 2.297 . S
O52 C39 1.236 . S
N53 Mn37 2.282 . S
N53 C54 1.328 . S
N53 C58 1.318 1_655 S
C54 N53 1.328 . S
C54 C55 1.457 1_655 S
C54 H59 0.929 . S
C55 C54 1.457 1_455 S
C55 C56 1.291 . S
C55 H68 0.931 . S
C56 C55 1.291 . S
C56 C57 1.373 . S
C56 H69 0.929 . S
C57 C56 1.373 . S
C57 C58 1.396 . S
C57 C64 1.403 . S
C58 C48 1.476 . S
C58 N53 1.318 1_455 S
C58 C57 1.396 . S
H59 C54 0.929 . S
O60 Mn36 2.385 . S
O60 C38 1.234 . S
O61 Mn36 2.209 . S
O61 Mn37 2.215 . S
O61 C38 1.283 . S
O62 Mn36 2.094 . S
O62 C40 1.240 . S
O63 Mn37 2.117 . S
O63 C40 1.264 . S
C64 C57 1.403 . S
C64 C65 1.399 . S
C64 H70 0.929 . S
C65 C45 1.449 . S
C65 C64 1.399 . S
C65 H71 0.930 . S
H66 C46 0.931 . S
H67 C47 0.921 1_655 S
H68 C55 0.931 . S
H69 C56 0.929 . S
H70 C64 0.929 . S
H71 C65 0.930 . S
Mn72 O77 2.095 1_556 S
Mn72 O87 2.162 . S
Mn72 O88 2.297 . S
Mn72 O96 2.385 . S
Mn72 O97 2.209 . S
Mn72 O98 2.094 1_556 S
Mn73 O78 2.121 . S
Mn73 N80 2.257 . S
Mn73 N89 2.282 . S
Mn73 O97 2.215 1_554 S
Mn73 O99 2.117 . S
C74 O96 1.234 . S
C74 O97 1.283 . S
C75 O87 1.281 . S
C75 O88 1.236 . S
C76 O98 1.240 . S
C76 O99 1.264 . S
O77 Mn72 2.095 1_554 S
O77 C86 1.250 1_554 S
O78 Mn73 2.121 . S
O78 C86 1.258 1_554 S
C79 N80 1.326 1_556 S
C79 C83 1.471 . S
C79 H85 0.929 . S
N80 Mn73 2.257 . S
N80 C79 1.326 1_554 S
N80 C84 1.362 1_565 S
C81 C82 1.258 . S
C81 C84 1.431 . S
C81 C101 1.449 . S
C82 C81 1.258 . S
C82 C83 1.470 1_544 S
C82 H102 0.931 1_554 S
C83 C79 1.471 . S
C83 C82 1.470 1_566 S
C83 H103 0.926 . S
C84 N80 1.362 1_545 S
C84 C81 1.431 . S
C84 C94 1.476 . S
H85 C79 0.929 . S
C86 O77 1.250 1_556 S
C86 O78 1.258 1_556 S
O87 Mn72 2.162 . S
O87 C75 1.281 . S
O88 Mn72 2.297 . S
O88 C75 1.236 . S
N89 Mn73 2.282 . S
N89 C90 1.328 . S
N89 C94 1.318 1_565 S
C90 N89 1.328 . S
C90 C91 1.457 1_565 S
C90 H95 0.929 . S
C91 C90 1.457 1_545 S
C91 C92 1.291 . S
C91 H104 0.931 . S
C92 C91 1.291 . S
C92 C93 1.373 . S
C92 H105 0.929 . S
C93 C92 1.373 . S
C93 C94 1.396 . S
C93 C100 1.403 . S
C94 C84 1.476 . S
C94 N89 1.318 1_545 S
C94 C93 1.396 . S
H95 C90 0.929 . S
O96 Mn72 2.385 . S
O96 C74 1.234 . S
O97 Mn72 2.209 . S
O97 Mn73 2.215 1_556 S
O97 C74 1.283 . S
O98 Mn72 2.094 1_554 S
O98 C76 1.240 . S
O99 Mn73 2.117 . S
O99 C76 1.264 . S
C100 C93 1.403 . S
C100 C101 1.399 . S
C100 H106 0.929 . S
C101 C81 1.449 . S
C101 C100 1.399 . S
C101 H107 0.930 . S
H102 C82 0.931 1_556 S
H103 C83 0.926 . S
H104 C91 0.931 . S
H105 C92 0.929 . S
H106 C100 0.929 . S
H107 C101 0.930 . S
Mn108 O113 2.095 . S
Mn108 O123 2.162 . S
Mn108 O124 2.297 . S
Mn108 O132 2.385 . S
Mn108 O133 2.209 . S
Mn108 O134 2.094 . S
Mn109 O114 2.121 . S
Mn109 N116 2.257 . S
Mn109 N125 2.282 . S
Mn109 O133 2.215 . S
Mn109 O135 2.117 . S
C110 O132 1.234 . S
C110 O133 1.283 . S
C111 O123 1.281 . S
C111 O124 1.236 . S
C112 O134 1.240 . S
C112 O135 1.264 . S
O113 Mn108 2.095 . S
O113 C122 1.250 . S
O114 Mn109 2.121 . S
O114 C122 1.258 . S
C115 N116 1.326 . S
C115 C119 1.460 . S
C115 H121 0.929 . S
N116 Mn109 2.257 . S
N116 C115 1.326 . S
N116 C120 1.362 . S
C117 C118 1.258 . S
C117 C120 1.431 . S
C117 C137 1.449 . S
C118 C117 1.258 . S
C118 C119 1.477 . S
C118 H138 0.931 . S
C119 C115 1.460 . S
C119 C118 1.477 . S
C119 H139 0.930 . S
C120 N116 1.362 . S
C120 C117 1.431 . S
C120 C130 1.476 . S
H121 C115 0.929 . S
C122 O113 1.250 . S
C122 O114 1.258 . S
O123 Mn108 2.162 . S
O123 C111 1.281 . S
O124 Mn108 2.297 . S
O124 C111 1.236 . S
N125 Mn109 2.282 . S
N125 C126 1.328 . S
N125 C130 1.318 . S
C126 N125 1.328 . S
C126 C127 1.457 . S
C126 H131 0.929 . S
C127 C126 1.457 . S
C127 C128 1.291 . S
C127 H140 0.931 . S
C128 C127 1.291 . S
C128 C129 1.373 . S
C128 H141 0.929 . S
C129 C128 1.373 . S
C129 C130 1.396 . S
C129 C136 1.403 . S
C130 C120 1.476 . S
C130 N125 1.318 . S
C130 C129 1.396 . S
H131 C126 0.929 . S
O132 Mn108 2.385 . S
O132 C110 1.234 . S
O133 Mn108 2.209 . S
O133 Mn109 2.215 . S
O133 C110 1.283 . S
O134 Mn108 2.094 . S
O134 C112 1.240 . S
O135 Mn109 2.117 . S
O135 C112 1.264 . S
C136 C129 1.403 . S
C136 C137 1.399 . S
C136 H142 0.929 . S
C137 C117 1.449 . S
C137 C136 1.399 . S
C137 H143 0.930 . S
H138 C118 0.931 . S
H139 C119 0.930 . S
H140 C127 0.931 . S
H141 C128 0.929 . S
H142 C136 0.929 . S
H143 C137 0.930 . S
Mn144 O149 2.095 . S
Mn144 O159 2.162 . S
Mn144 O160 2.297 . S
Mn144 O168 2.385 . S
Mn144 O169 2.209 . S
Mn144 O170 2.094 . S
Mn145 O150 2.121 . S
Mn145 N152 2.257 . S
Mn145 N161 2.282 . S
Mn145 O169 2.215 . S
Mn145 O171 2.117 . S
C146 O168 1.234 . S
C146 O169 1.283 . S
C147 O159 1.281 . S
C147 O160 1.236 . S
C148 O170 1.240 . S
C148 O171 1.264 . S
O149 Mn144 2.095 . S
O149 C158 1.250 . S
O150 Mn145 2.121 . S
O150 C158 1.258 . S
C151 N152 1.326 . S
C151 C155 1.458 1_455 S
C151 H157 0.929 . S
N152 Mn145 2.257 . S
N152 C151 1.326 . S
N152 C156 1.362 1_455 S
C153 C154 1.258 . S
C153 C156 1.431 . S
C153 C173 1.449 . S
C154 C153 1.258 . S
C154 C155 1.480 . S
C154 H174 0.931 . S
C155 C151 1.458 1_655 S
C155 C154 1.480 . S
C155 H175 0.921 1_655 S
C156 N152 1.362 1_655 S
C156 C153 1.431 . S
C156 C166 1.476 . S
H157 C151 0.929 . S
C158 O149 1.250 . S
C158 O150 1.258 . S
O159 Mn144 2.162 . S
O159 C147 1.281 . S
O160 Mn144 2.297 . S
O160 C147 1.236 . S
N161 Mn145 2.282 . S
N161 C162 1.328 . S
N161 C166 1.318 1_455 S
C162 N161 1.328 . S
C162 C163 1.457 1_455 S
C162 H167 0.929 . S
C163 C162 1.457 1_655 S
C163 C164 1.291 . S
C163 H176 0.931 . S
C164 C163 1.291 . S
C164 C165 1.373 . S
C164 H177 0.929 . S
C165 C164 1.373 . S
C165 C166 1.396 . S
C165 C172 1.403 . S
C166 C156 1.476 . S
C166 N161 1.318 1_655 S
C166 C165 1.396 . S
H167 C162 0.929 . S
O168 Mn144 2.385 . S
O168 C146 1.234 . S
O169 Mn144 2.209 . S
O169 Mn145 2.215 . S
O169 C146 1.283 . S
O170 Mn144 2.094 . S
O170 C148 1.240 . S
O171 Mn145 2.117 . S
O171 C148 1.264 . S
C172 C165 1.403 . S
C172 C173 1.399 . S
C172 H178 0.929 . S
C173 C153 1.449 . S
C173 C172 1.399 . S
C173 H179 0.930 . S
H174 C154 0.931 . S
H175 C155 0.921 1_455 S
H176 C163 0.931 . S
H177 C164 0.929 . S
H178 C172 0.929 . S
H179 C173 0.930 . S
Mn180 O185 2.095 1_556 S
Mn180 O195 2.162 . S
Mn180 O196 2.297 . S
Mn180 O204 2.385 . S
Mn180 O205 2.209 . S
Mn180 O206 2.094 1_556 S
Mn181 O186 2.121 . S
Mn181 N188 2.257 . S
Mn181 N197 2.282 . S
Mn181 O205 2.215 1_554 S
Mn181 O207 2.117 . S
C182 O204 1.234 . S
C182 O205 1.283 . S
C183 O195 1.281 . S
C183 O196 1.236 . S
C184 O206 1.240 . S
C184 O207 1.264 . S
O185 Mn180 2.095 1_554 S
O185 C194 1.250 1_554 S
O186 Mn181 2.121 . S
O186 C194 1.258 1_554 S
C187 N188 1.326 1_556 S
C187 C191 1.471 . S
C187 H193 0.929 . S
N188 Mn181 2.257 . S
N188 C187 1.326 1_554 S
N188 C192 1.362 1_545 S
C189 C190 1.258 . S
C189 C192 1.431 . S
C189 C209 1.449 . S
C190 C189 1.258 . S
C190 C191 1.470 1_564 S
C190 H210 0.931 1_554 S
C191 C187 1.471 . S
C191 C190 1.470 1_546 S
C191 H211 0.926 . S
C192 N188 1.362 1_565 S
C192 C189 1.431 . S
C192 C202 1.476 . S
H193 C187 0.929 . S
C194 O185 1.250 1_556 S
C194 O186 1.258 1_556 S
O195 Mn180 2.162 . S
O195 C183 1.281 . S
O196 Mn180 2.297 . S
O196 C183 1.236 . S
N197 Mn181 2.282 . S
N197 C198 1.328 . S
N197 C202 1.318 1_545 S
C198 N197 1.328 . S
C198 C199 1.457 1_545 S
C198 H203 0.929 . S
C199 C198 1.457 1_565 S
C199 C200 1.291 . S
C199 H212 0.931 . S
C200 C199 1.291 . S
C200 C201 1.373 . S
C200 H213 0.929 . S
C201 C200 1.373 . S
C201 C202 1.396 . S
C201 C208 1.403 . S
C202 C192 1.476 . S
C202 N197 1.318 1_565 S
C202 C201 1.396 . S
H203 C198 0.929 . S
O204 Mn180 2.385 . S
O204 C182 1.234 . S
O205 Mn180 2.209 . S
O205 Mn181 2.215 1_556 S
O205 C182 1.283 . S
O206 Mn180 2.094 1_554 S
O206 C184 1.240 . S
O207 Mn181 2.117 . S
O207 C184 1.264 . S
C208 C201 1.403 . S
C208 C209 1.399 . S
C208 H214 0.929 . S
C209 C189 1.449 . S
C209 C208 1.399 . S
C209 H215 0.930 . S
H210 C190 0.931 1_556 S
H211 C191 0.926 . S
H212 C199 0.931 . S
H213 C200 0.929 . S
H214 C208 0.929 . S
H215 C209 0.930 . S
Mn216 O221 2.095 . S
Mn216 O231 2.162 . S
Mn216 O232 2.297 . S
Mn216 O240 2.385 . S
Mn216 O241 2.209 . S
Mn216 O242 2.094 . S
Mn217 O222 2.121 . S
Mn217 N224 2.257 . S
Mn217 N233 2.282 . S
Mn217 O241 2.215 . S
Mn217 O243 2.117 . S
C218 O240 1.234 . S
C218 O241 1.283 . S
C219 O231 1.281 . S
C219 O232 1.236 . S
C220 O242 1.240 . S
C220 O243 1.264 . S
O221 Mn216 2.095 . S
O221 C230 1.250 . S
O222 Mn217 2.121 . S
O222 C230 1.258 . S
C223 N224 1.326 . S
C223 C227 1.460 . S
C223 H229 0.929 . S
N224 Mn217 2.257 . S
N224 C223 1.326 . S
N224 C228 1.362 . S
C225 C226 1.258 . S
C225 C228 1.431 . S
C225 C245 1.449 . S
C226 C225 1.258 . S
C226 C227 1.477 . S
C226 H246 0.931 . S
C227 C223 1.460 . S
C227 C226 1.477 . S
C227 H247 0.930 . S
C228 N224 1.362 . S
C228 C225 1.431 . S
C228 C238 1.476 . S
H229 C223 0.929 . S
C230 O221 1.250 . S
C230 O222 1.258 . S
O231 Mn216 2.162 . S
O231 C219 1.281 . S
O232 Mn216 2.297 . S
O232 C219 1.236 . S
N233 Mn217 2.282 . S
N233 C234 1.328 . S
N233 C238 1.318 . S
C234 N233 1.328 . S
C234 C235 1.457 . S
C234 H239 0.929 . S
C235 C234 1.457 . S
C235 C236 1.291 . S
C235 H248 0.931 . S
C236 C235 1.291 . S
C236 C237 1.373 . S
C236 H249 0.929 . S
C237 C236 1.373 . S
C237 C238 1.396 . S
C237 C244 1.403 . S
C238 C228 1.476 . S
C238 N233 1.318 . S
C238 C237 1.396 . S
H239 C234 0.929 . S
O240 Mn216 2.385 . S
O240 C218 1.234 . S
O241 Mn216 2.209 . S
O241 Mn217 2.215 . S
O241 C218 1.283 . S
O242 Mn216 2.094 . S
O242 C220 1.240 . S
O243 Mn217 2.117 . S
O243 C220 1.264 . S
C244 C237 1.403 . S
C244 C245 1.399 . S
C244 H250 0.929 . S
C245 C225 1.449 . S
C245 C244 1.399 . S
C245 H251 0.930 . S
H246 C226 0.931 . S
H247 C227 0.930 . S
H248 C235 0.931 . S
H249 C236 0.929 . S
H250 C244 0.929 . S
H251 C245 0.930 . S
Mn252 O257 2.095 . S
Mn252 O267 2.162 . S
Mn252 O268 2.297 . S
Mn252 O276 2.385 . S
Mn252 O277 2.209 . S
Mn252 O278 2.094 . S
Mn253 O258 2.121 . S
Mn253 N260 2.257 . S
Mn253 N269 2.282 . S
Mn253 O277 2.215 . S
Mn253 O279 2.117 . S
C254 O276 1.234 . S
C254 O277 1.283 . S
C255 O267 1.281 . S
C255 O268 1.236 . S
C256 O278 1.240 . S
C256 O279 1.264 . S
O257 Mn252 2.095 . S
O257 C266 1.250 . S
O258 Mn253 2.121 . S
O258 C266 1.258 . S
C259 N260 1.326 . S
C259 C263 1.460 . S
C259 H265 0.929 . S
N260 Mn253 2.257 . S
N260 C259 1.326 . S
N260 C264 1.362 . S
C261 C262 1.258 . S
C261 C264 1.431 1_455 S
C261 C281 1.449 . S
C262 C261 1.258 . S
C262 C263 1.477 1_455 S
C262 H282 0.931 . S
C263 C259 1.460 . S
C263 C262 1.477 1_655 S
C263 H283 0.930 . S
C264 N260 1.362 . S
C264 C261 1.431 1_655 S
C264 C274 1.476 . S
H265 C259 0.929 . S
C266 O257 1.250 . S
C266 O258 1.258 . S
O267 Mn252 2.162 . S
O267 C255 1.281 . S
O268 Mn252 2.297 . S
O268 C255 1.236 . S
N269 Mn253 2.282 . S
N269 C270 1.328 . S
N269 C274 1.318 . S
C270 N269 1.328 . S
C270 C271 1.457 1_655 S
C270 H275 0.929 . S
C271 C270 1.457 1_455 S
C271 C272 1.291 . S
C271 H284 0.931 . S
C272 C271 1.291 . S
C272 C273 1.373 . S
C272 H285 0.929 . S
C273 C272 1.373 . S
C273 C274 1.396 1_455 S
C273 C280 1.403 . S
C274 C264 1.476 . S
C274 N269 1.318 . S
C274 C273 1.396 1_655 S
H275 C270 0.929 . S
O276 Mn252 2.385 . S
O276 C254 1.234 . S
O277 Mn252 2.209 . S
O277 Mn253 2.215 . S
O277 C254 1.283 . S
O278 Mn252 2.094 . S
O278 C256 1.240 . S
O279 Mn253 2.117 . S
O279 C256 1.264 . S
C280 C273 1.403 . S
C280 C281 1.399 . S
C280 H286 0.929 . S
C281 C261 1.449 . S
C281 C280 1.399 . S
C281 H287 0.930 . S
H282 C262 0.931 . S
H283 C263 0.930 . S
H284 C271 0.931 . S
H285 C272 0.929 . S
H286 C280 0.929 . S
H287 C281 0.930 . S
Mn288 O293 2.095 1_554 S
Mn288 O303 2.162 . S
Mn288 O304 2.297 . S
Mn288 O312 2.385 . S
Mn288 O313 2.209 . S
Mn288 O314 2.094 1_554 S
Mn289 O294 2.121 . S
Mn289 N296 2.257 . S
Mn289 N305 2.282 . S
Mn289 O313 2.215 1_556 S
Mn289 O315 2.117 . S
C290 O312 1.234 . S
C290 O313 1.283 . S
C291 O303 1.281 . S
C291 O304 1.236 . S
C292 O314 1.240 . S
C292 O315 1.264 . S
O293 Mn288 2.095 1_556 S
O293 C302 1.250 1_556 S
O294 Mn289 2.121 . S
O294 C302 1.258 1_556 S
C295 N296 1.326 1_554 S
C295 C299 1.465 . S
C295 H301 0.929 . S
N296 Mn289 2.257 . S
N296 C295 1.326 1_556 S
N296 C300 1.362 1_565 S
C297 C298 1.258 . S
C297 C300 1.431 . S
C297 C317 1.449 . S
C298 C297 1.258 . S
C298 C299 1.466 1_546 S
C298 H318 0.931 1_556 S
C299 C295 1.465 . S
C299 C298 1.466 1_564 S
C299 H319 0.935 . S
C300 N296 1.362 1_545 S
C300 C297 1.431 . S
C300 C310 1.476 . S
H301 C295 0.929 . S
C302 O293 1.250 1_554 S
C302 O294 1.258 1_554 S
O303 Mn288 2.162 . S
O303 C291 1.281 . S
O304 Mn288 2.297 . S
O304 C291 1.236 . S
N305 Mn289 2.282 . S
N305 C306 1.328 . S
N305 C310 1.318 1_565 S
C306 N305 1.328 . S
C306 C307 1.457 1_565 S
C306 H311 0.929 . S
C307 C306 1.457 1_545 S
C307 C308 1.291 . S
C307 H320 0.931 . S
C308 C307 1.291 . S
C308 C309 1.373 . S
C308 H321 0.929 . S
C309 C308 1.373 . S
C309 C310 1.396 . S
C309 C316 1.403 . S
C310 C300 1.476 . S
C310 N305 1.318 1_545 S
C310 C309 1.396 . S
H311 C306 0.929 . S
O312 Mn288 2.385 . S
O312 C290 1.234 . S
O313 Mn288 2.209 . S
O313 Mn289 2.215 1_554 S
O313 C290 1.283 . S
O314 Mn288 2.094 1_556 S
O314 C292 1.240 . S
O315 Mn289 2.117 . S
O315 C292 1.264 . S
C316 C309 1.403 . S
C316 C317 1.399 . S
C316 H322 0.929 . S
C317 C297 1.449 . S
C317 C316 1.399 . S
C317 H323 0.930 . S
H318 C298 0.931 1_554 S
H319 C299 0.935 . S
H320 C307 0.931 . S
H321 C308 0.929 . S
H322 C316 0.929 . S
H323 C317 0.930 . S
Mn324 O329 2.095 . S
Mn324 O339 2.162 . S
Mn324 O340 2.297 . S
Mn324 O348 2.385 . S
Mn324 O349 2.209 . S
Mn324 O350 2.094 . S
Mn325 O330 2.121 . S
Mn325 N332 2.257 . S
Mn325 N341 2.282 . S
Mn325 O349 2.215 . S
Mn325 O351 2.117 . S
C326 O348 1.234 . S
C326 O349 1.283 . S
C327 O339 1.281 . S
C327 O340 1.236 . S
C328 O350 1.240 . S
C328 O351 1.264 . S
O329 Mn324 2.095 . S
O329 C338 1.250 . S
O330 Mn325 2.121 . S
O330 C338 1.258 . S
C331 N332 1.326 . S
C331 C335 1.460 . S
C331 H337 0.929 . S
N332 Mn325 2.257 . S
N332 C331 1.326 . S
N332 C336 1.362 . S
C333 C334 1.258 . S
C333 C336 1.431 . S
C333 C353 1.449 . S
C334 C333 1.258 . S
C334 C335 1.477 . S
C334 H354 0.931 . S
C335 C331 1.460 . S
C335 C334 1.477 . S
C335 H355 0.930 . S
C336 N332 1.362 . S
C336 C333 1.431 . S
C336 C346 1.476 . S
H337 C331 0.929 . S
C338 O329 1.250 . S
C338 O330 1.258 . S
O339 Mn324 2.162 . S
O339 C327 1.281 . S
O340 Mn324 2.297 . S
O340 C327 1.236 . S
N341 Mn325 2.282 . S
N341 C342 1.328 . S
N341 C346 1.318 . S
C342 N341 1.328 . S
C342 C343 1.457 . S
C342 H347 0.929 . S
C343 C342 1.457 . S
C343 C344 1.291 . S
C343 H356 0.931 . S
C344 C343 1.291 . S
C344 C345 1.373 . S
C344 H357 0.929 . S
C345 C344 1.373 . S
C345 C346 1.396 . S
C345 C352 1.403 . S
C346 C336 1.476 . S
C346 N341 1.318 . S
C346 C345 1.396 . S
H347 C342 0.929 . S
O348 Mn324 2.385 . S
O348 C326 1.234 . S
O349 Mn324 2.209 . S
O349 Mn325 2.215 . S
O349 C326 1.283 . S
O350 Mn324 2.094 . S
O350 C328 1.240 . S
O351 Mn325 2.117 . S
O351 C328 1.264 . S
C352 C345 1.403 . S
C352 C353 1.399 . S
C352 H358 0.929 . S
C353 C333 1.449 . S
C353 C352 1.399 . S
C353 H359 0.930 . S
H354 C334 0.931 . S
H355 C335 0.930 . S
H356 C343 0.931 . S
H357 C344 0.929 . S
H358 C352 0.929 . S
H359 C353 0.930 . S
Mn360 O365 2.095 . S
Mn360 O375 2.162 . S
Mn360 O376 2.297 . S
Mn360 O384 2.385 . S
Mn360 O385 2.209 . S
Mn360 O386 2.094 . S
Mn361 O366 2.121 . S
Mn361 N368 2.257 . S
Mn361 N377 2.282 . S
Mn361 O385 2.215 . S
Mn361 O387 2.117 . S
C362 O384 1.234 . S
C362 O385 1.283 . S
C363 O375 1.281 . S
C363 O376 1.236 . S
C364 O386 1.240 . S
C364 O387 1.264 . S
O365 Mn360 2.095 . S
O365 C374 1.250 . S
O366 Mn361 2.121 . S
O366 C374 1.258 . S
C367 N368 1.326 . S
C367 C371 1.460 . S
C367 H373 0.929 . S
N368 Mn361 2.257 . S
N368 C367 1.326 . S
N368 C372 1.362 . S
C369 C370 1.258 . S
C369 C372 1.431 1_655 S
C369 C389 1.449 . S
C370 C369 1.258 . S
C370 C371 1.477 1_655 S
C370 H390 0.931 . S
C371 C367 1.460 . S
C371 C370 1.477 1_455 S
C371 H391 0.930 . S
C372 N368 1.362 . S
C372 C369 1.431 1_455 S
C372 C382 1.476 . S
H373 C367 0.929 . S
C374 O365 1.250 . S
C374 O366 1.258 . S
O375 Mn360 2.162 . S
O375 C363 1.281 . S
O376 Mn360 2.297 . S
O376 C363 1.236 . S
N377 Mn361 2.282 . S
N377 C378 1.328 . S
N377 C382 1.318 . S
C378 N377 1.328 . S
C378 C379 1.457 1_455 S
C378 H383 0.929 . S
C379 C378 1.457 1_655 S
C379 C380 1.291 . S
C379 H392 0.931 . S
C380 C379 1.291 . S
C380 C381 1.373 . S
C380 H393 0.929 . S
C381 C380 1.373 . S
C381 C382 1.396 1_655 S
C381 C388 1.403 . S
C382 C372 1.476 . S
C382 N377 1.318 . S
C382 C381 1.396 1_455 S
H383 C378 0.929 . S
O384 Mn360 2.385 . S
O384 C362 1.234 . S
O385 Mn360 2.209 . S
O385 Mn361 2.215 . S
O385 C362 1.283 . S
O386 Mn360 2.094 . S
O386 C364 1.240 . S
O387 Mn361 2.117 . S
O387 C364 1.264 . S
C388 C381 1.403 . S
C388 C389 1.399 . S
C388 H394 0.929 . S
C389 C369 1.449 . S
C389 C388 1.399 . S
C389 H395 0.930 . S
H390 C370 0.931 . S
H391 C371 0.930 . S
H392 C379 0.931 . S
H393 C380 0.929 . S
H394 C388 0.929 . S
H395 C389 0.930 . S
Mn396 O401 2.095 1_554 S
Mn396 O411 2.162 . S
Mn396 O412 2.297 . S
Mn396 O420 2.385 . S
Mn396 O421 2.209 . S
Mn396 O422 2.094 1_554 S
Mn397 O402 2.121 . S
Mn397 N404 2.257 . S
Mn397 N413 2.282 . S
Mn397 O421 2.215 1_556 S
Mn397 O423 2.117 . S
C398 O420 1.234 . S
C398 O421 1.283 . S
C399 O411 1.281 . S
C399 O412 1.236 . S
C400 O422 1.240 . S
C400 O423 1.264 . S
O401 Mn396 2.095 1_556 S
O401 C410 1.250 1_556 S
O402 Mn397 2.121 . S
O402 C410 1.258 1_556 S
C403 N404 1.326 1_554 S
C403 C407 1.465 . S
C403 H409 0.929 . S
N404 Mn397 2.257 . S
N404 C403 1.326 1_556 S
N404 C408 1.362 1_545 S
C405 C406 1.258 . S
C405 C408 1.431 . S
C405 C425 1.449 . S
C406 C405 1.258 . S
C406 C407 1.466 1_566 S
C406 H426 0.931 1_556 S
C407 C403 1.465 . S
C407 C406 1.466 1_544 S
C407 H427 0.935 . S
C408 N404 1.362 1_565 S
C408 C405 1.431 . S
C408 C418 1.476 . S
H409 C403 0.929 . S
C410 O401 1.250 1_554 S
C410 O402 1.258 1_554 S
O411 Mn396 2.162 . S
O411 C399 1.281 . S
O412 Mn396 2.297 . S
O412 C399 1.236 . S
N413 Mn397 2.282 . S
N413 C414 1.328 . S
N413 C418 1.318 1_545 S
C414 N413 1.328 . S
C414 C415 1.457 1_545 S
C414 H419 0.929 . S
C415 C414 1.457 1_565 S
C415 C416 1.291 . S
C415 H428 0.931 . S
C416 C415 1.291 . S
C416 C417 1.373 . S
C416 H429 0.929 . S
C417 C416 1.373 . S
C417 C418 1.396 . S
C417 C424 1.403 . S
C418 C408 1.476 . S
C418 N413 1.318 1_565 S
C418 C417 1.396 . S
H419 C414 0.929 . S
O420 Mn396 2.385 . S
O420 C398 1.234 . S
O421 Mn396 2.209 . S
O421 Mn397 2.215 1_554 S
O421 C398 1.283 . S
O422 Mn396 2.094 1_556 S
O422 C400 1.240 . S
O423 Mn397 2.117 . S
O423 C400 1.264 . S
C424 C417 1.403 . S
C424 C425 1.399 . S
C424 H430 0.929 . S
C425 C405 1.449 . S
C425 C424 1.399 . S
C425 H431 0.930 . S
H426 C406 0.931 1_554 S
H427 C407 0.935 . S
H428 C415 0.931 . S
H429 C416 0.929 . S
H430 C424 0.929 . S
H431 C425 0.930 . S
C432 C433 1.363 . S
C432 C438 1.379 . S
C432 N440 1.356 . S
C433 C432 1.363 . S
C433 C439 1.363 . S
C434 C435 1.363 . S
C434 C439 1.379 . S
C434 N441 1.356 . S
C435 C434 1.363 . S
C435 C438 1.363 . S
N436 C438 1.356 . S
N436 H448 0.984 . S
N436 H449 0.985 . S
N437 C439 1.356 . S
N437 H442 0.984 . S
N437 H443 0.985 . S
C438 C432 1.379 . S
C438 C435 1.363 . S
C438 N436 1.356 . S
C439 C433 1.363 . S
C439 C434 1.379 . S
C439 N437 1.356 . S
N440 C432 1.356 . S
N440 H446 0.984 . S
N440 H447 0.984 . S
N441 C434 1.356 . S
N441 H444 0.984 . S
N441 H445 0.985 . S
H442 N437 0.984 . S
H443 N437 0.985 . S
H444 N441 0.984 . S
H445 N441 0.985 . S
H446 N440 0.984 . S
H447 N440 0.984 . S
H448 N436 0.984 . S
H449 N436 0.985 . S
C450 C451 1.363 . S
C450 C456 1.379 . S
C450 N458 1.356 . S
C451 C450 1.363 . S
C451 C457 1.363 . S
C452 C453 1.363 . S
C452 C457 1.379 . S
C452 N459 1.356 . S
C453 C452 1.363 . S
C453 C456 1.363 . S
N454 C456 1.356 . S
N454 H466 0.984 . S
N454 H467 0.985 . S
N455 C457 1.356 . S
N455 H460 0.984 . S
N455 H461 0.985 . S
C456 C450 1.379 . S
C456 C453 1.363 . S
C456 N454 1.356 . S
C457 C451 1.363 . S
C457 C452 1.379 . S
C457 N455 1.356 . S
N458 C450 1.356 . S
N458 H464 0.984 . S
N458 H465 0.984 . S
N459 C452 1.356 . S
N459 H462 0.984 . S
N459 H463 0.985 . S
H460 N455 0.984 . S
H461 N455 0.985 . S
H462 N459 0.984 . S
H463 N459 0.985 . S
H464 N458 0.984 . S
H465 N458 0.984 . S
H466 N454 0.984 . S
H467 N454 0.985 . S
C468 C469 1.363 1_554 S
C468 C474 1.379 . S
C468 N476 1.356 . S
C469 C468 1.363 1_556 S
C469 C475 1.363 . S
C470 C471 1.363 1_556 S
C470 C475 1.379 . S
C470 N477 1.356 . S
C471 C470 1.363 1_554 S
C471 C474 1.363 . S
N472 C474 1.356 . S
N472 H484 0.984 . S
N472 H485 0.985 . S
N473 C475 1.356 . S
N473 H478 0.984 . S
N473 H479 0.985 . S
C474 C468 1.379 . S
C474 C471 1.363 . S
C474 N472 1.356 . S
C475 C469 1.363 . S
C475 C470 1.379 . S
C475 N473 1.356 . S
N476 C468 1.356 . S
N476 H482 0.984 . S
N476 H483 0.984 . S
N477 C470 1.356 . S
N477 H480 0.984 . S
N477 H481 0.985 . S
H478 N473 0.984 . S
H479 N473 0.985 . S
H480 N477 0.984 . S
H481 N477 0.985 . S
H482 N476 0.984 . S
H483 N476 0.984 . S
H484 N472 0.984 . S
H485 N472 0.985 . S
C486 C487 1.363 . S
C486 C492 1.379 . S
C486 N494 1.356 . S
C487 C486 1.363 . S
C487 C493 1.363 . S
C488 C489 1.363 . S
C488 C493 1.379 . S
C488 N495 1.356 . S
C489 C488 1.363 . S
C489 C492 1.363 . S
N490 C492 1.356 . S
N490 H502 0.984 . S
N490 H503 0.985 . S
N491 C493 1.356 . S
N491 H496 0.984 . S
N491 H497 0.985 . S
C492 C486 1.379 . S
C492 C489 1.363 . S
C492 N490 1.356 . S
C493 C487 1.363 . S
C493 C488 1.379 . S
C493 N491 1.356 . S
N494 C486 1.356 . S
N494 H500 0.984 . S
N494 H501 0.984 . S
N495 C488 1.356 . S
N495 H498 0.984 . S
N495 H499 0.985 . S
H496 N491 0.984 . S
H497 N491 0.985 . S
H498 N495 0.984 . S
H499 N495 0.985 . S
H500 N494 0.984 . S
H501 N494 0.984 . S
H502 N490 0.984 . S
H503 N490 0.985 . S
C504 C505 1.363 . S
C504 C510 1.379 . S
C504 N512 1.356 . S
C505 C504 1.363 . S
C505 C511 1.363 . S
C506 C507 1.363 . S
C506 C511 1.379 . S
C506 N513 1.356 . S
C507 C506 1.363 . S
C507 C510 1.363 . S
N508 C510 1.356 . S
N508 H520 0.984 . S
N508 H521 0.985 . S
N509 C511 1.356 . S
N509 H514 0.984 . S
N509 H515 0.985 . S
C510 C504 1.379 . S
C510 C507 1.363 . S
C510 N508 1.356 . S
C511 C505 1.363 . S
C511 C506 1.379 . S
C511 N509 1.356 . S
N512 C504 1.356 . S
N512 H518 0.984 . S
N512 H519 0.984 . S
N513 C506 1.356 . S
N513 H516 0.984 . S
N513 H517 0.985 . S
H514 N509 0.984 . S
H515 N509 0.985 . S
H516 N513 0.984 . S
H517 N513 0.985 . S
H518 N512 0.984 . S
H519 N512 0.984 . S
H520 N508 0.984 . S
H521 N508 0.985 . S
C522 C523 1.363 . S
C522 C528 1.379 . S
C522 N530 1.356 . S
C523 C522 1.363 . S
C523 C529 1.363 1_554 S
C524 C525 1.363 . S
C524 C529 1.379 . S
C524 N531 1.356 . S
C525 C524 1.363 . S
C525 C528 1.363 1_556 S
N526 C528 1.356 . S
N526 H538 0.984 . S
N526 H539 0.985 . S
N527 C529 1.356 . S
N527 H532 0.984 . S
N527 H533 0.985 . S
C528 C522 1.379 . S
C528 C525 1.363 1_554 S
C528 N526 1.356 . S
C529 C523 1.363 1_556 S
C529 C524 1.379 . S
C529 N527 1.356 . S
N530 C522 1.356 . S
N530 H536 0.984 . S
N530 H537 0.984 . S
N531 C524 1.356 . S
N531 H534 0.984 . S
N531 H535 0.985 . S
H532 N527 0.984 . S
H533 N527 0.985 . S
H534 N531 0.984 . S
H535 N531 0.985 . S
H536 N530 0.984 . S
H537 N530 0.984 . S
H538 N526 0.984 . S
H539 N526 0.985 . S
C540 C541 1.363 . S
C540 C546 1.379 . S
C540 N548 1.356 . S
C541 C540 1.363 . S
C541 C547 1.363 . S
C542 C543 1.363 . S
C542 C547 1.379 . S
C542 N549 1.356 . S
C543 C542 1.363 . S
C543 C546 1.363 . S
N544 C546 1.356 . S
N544 H556 0.984 . S
N544 H557 0.985 . S
N545 C547 1.356 . S
N545 H550 0.984 . S
N545 H551 0.985 . S
C546 C540 1.379 . S
C546 C543 1.363 . S
C546 N544 1.356 . S
C547 C541 1.363 . S
C547 C542 1.379 . S
C547 N545 1.356 . S
N548 C540 1.356 . S
N548 H554 0.984 . S
N548 H555 0.984 . S
N549 C542 1.356 . S
N549 H552 0.984 . S
N549 H553 0.985 . S
H550 N545 0.984 . S
H551 N545 0.985 . S
H552 N549 0.984 . S
H553 N549 0.985 . S
H554 N548 0.984 . S
H555 N548 0.984 . S
H556 N544 0.984 . S
H557 N544 0.985 . S
C558 C559 1.363 . S
C558 C564 1.379 1_655 S
C558 N566 1.356 . S
C559 C558 1.363 . S
C559 C565 1.363 . S
C560 C561 1.363 . S
C560 C565 1.379 1_455 S
C560 N567 1.356 . S
C561 C560 1.363 . S
C561 C564 1.363 . S
N562 C564 1.356 . S
N562 H574 0.984 . S
N562 H575 0.985 . S
N563 C565 1.356 . S
N563 H568 0.984 . S
N563 H569 0.985 . S
C564 C558 1.379 1_455 S
C564 C561 1.363 . S
C564 N562 1.356 . S
C565 C559 1.363 . S
C565 C560 1.379 1_655 S
C565 N563 1.356 . S
N566 C558 1.356 . S
N566 H572 0.984 . S
N566 H573 0.984 . S
N567 C560 1.356 . S
N567 H570 0.984 . S
N567 H571 0.985 . S
H568 N563 0.984 . S
H569 N563 0.985 . S
H570 N567 0.984 . S
H571 N567 0.985 . S
H572 N566 0.984 . S
H573 N566 0.984 . S
H574 N562 0.984 . S
H575 N562 0.985 . S
C576 C577 1.363 1_556 S
C576 C582 1.379 1_545 S
C576 N584 1.356 . S
C577 C576 1.363 1_554 S
C577 C583 1.363 . S
C578 C579 1.363 1_554 S
C578 C583 1.379 1_565 S
C578 N585 1.356 . S
C579 C578 1.363 1_556 S
C579 C582 1.363 . S
N580 C582 1.356 . S
N580 H592 0.984 . S
N580 H593 0.985 . S
N581 C583 1.356 . S
N581 H586 0.984 . S
N581 H587 0.985 . S
C582 C576 1.379 1_565 S
C582 C579 1.363 . S
C582 N580 1.356 . S
C583 C577 1.363 . S
C583 C578 1.379 1_545 S
C583 N581 1.356 . S
N584 C576 1.356 . S
N584 H590 0.984 . S
N584 H591 0.984 . S
N585 C578 1.356 . S
N585 H588 0.984 . S
N585 H589 0.985 . S
H586 N581 0.984 . S
H587 N581 0.985 . S
H588 N585 0.984 . S
H589 N585 0.985 . S
H590 N584 0.984 . S
H591 N584 0.984 . S
H592 N580 0.984 . S
H593 N580 0.985 . S
C594 C595 1.363 . S
C594 C600 1.379 . S
C594 N602 1.356 . S
C595 C594 1.363 . S
C595 C601 1.363 . S
C596 C597 1.363 . S
C596 C601 1.379 . S
C596 N603 1.356 . S
C597 C596 1.363 . S
C597 C600 1.363 . S
N598 C600 1.356 . S
N598 H610 0.984 . S
N598 H611 0.985 . S
N599 C601 1.356 . S
N599 H604 0.984 . S
N599 H605 0.985 . S
C600 C594 1.379 . S
C600 C597 1.363 . S
C600 N598 1.356 . S
C601 C595 1.363 . S
C601 C596 1.379 . S
C601 N599 1.356 . S
N602 C594 1.356 . S
N602 H608 0.984 . S
N602 H609 0.984 . S
N603 C596 1.356 . S
N603 H606 0.984 . S
N603 H607 0.985 . S
H604 N599 0.984 . S
H605 N599 0.985 . S
H606 N603 0.984 . S
H607 N603 0.985 . S
H608 N602 0.984 . S
H609 N602 0.984 . S
H610 N598 0.984 . S
H611 N598 0.985 . S
C612 C613 1.363 . S
C612 C618 1.379 1_455 S
C612 N620 1.356 . S
C613 C612 1.363 . S
C613 C619 1.363 . S
C614 C615 1.363 . S
C614 C619 1.379 1_655 S
C614 N621 1.356 . S
C615 C614 1.363 . S
C615 C618 1.363 . S
N616 C618 1.356 . S
N616 H628 0.984 . S
N616 H629 0.985 . S
N617 C619 1.356 . S
N617 H622 0.984 . S
N617 H623 0.985 . S
C618 C612 1.379 1_655 S
C618 C615 1.363 . S
C618 N616 1.356 . S
C619 C613 1.363 . S
C619 C614 1.379 1_455 S
C619 N617 1.356 . S
N620 C612 1.356 . S
N620 H626 0.984 . S
N620 H627 0.984 . S
N621 C614 1.356 . S
N621 H624 0.984 . S
N621 H625 0.985 . S
H622 N617 0.984 . S
H623 N617 0.985 . S
H624 N621 0.984 . S
H625 N621 0.985 . S
H626 N620 0.984 . S
H627 N620 0.984 . S
H628 N616 0.984 . S
H629 N616 0.985 . S
C630 C631 1.363 . S
C630 C636 1.379 1_545 S
C630 N638 1.356 . S
C631 C630 1.363 . S
C631 C637 1.363 1_556 S
C632 C633 1.363 . S
C632 C637 1.379 1_565 S
C632 N639 1.356 . S
C633 C632 1.363 . S
C633 C636 1.363 1_554 S
N634 C636 1.356 . S
N634 H646 0.984 . S
N634 H647 0.985 . S
N635 C637 1.356 . S
N635 H640 0.984 . S
N635 H641 0.985 . S
C636 C630 1.379 1_565 S
C636 C633 1.363 1_556 S
C636 N634 1.356 . S
C637 C631 1.363 1_554 S
C637 C632 1.379 1_545 S
C637 N635 1.356 . S
N638 C630 1.356 . S
N638 H644 0.984 . S
N638 H645 0.984 . S
N639 C632 1.356 . S
N639 H642 0.984 . S
N639 H643 0.985 . S
H640 N635 0.984 . S
H641 N635 0.985 . S
H642 N639 0.984 . S
H643 N639 0.985 . S
H644 N638 0.984 . S
H645 N638 0.984 . S
H646 N634 0.984 . S
H647 N634 0.985 . S
C648 C649 1.363 1_455 S
C648 C654 1.379 . S
C648 N656 1.356 . S
C649 C648 1.363 1_655 S
C649 C655 1.363 . S
C650 C651 1.363 1_655 S
C650 C655 1.379 . S
C650 N657 1.356 . S
C651 C650 1.363 1_455 S
C651 C654 1.363 . S
N652 C654 1.356 . S
N652 H664 0.984 . S
N652 H665 0.985 . S
N653 C655 1.356 . S
N653 H658 0.984 . S
N653 H659 0.985 . S
C654 C648 1.379 . S
C654 C651 1.363 . S
C654 N652 1.356 . S
C655 C649 1.363 . S
C655 C650 1.379 . S
C655 N653 1.356 . S
N656 C648 1.356 . S
N656 H662 0.984 . S
N656 H663 0.984 . S
N657 C650 1.356 . S
N657 H660 0.984 . S
N657 H661 0.985 . S
H658 N653 0.984 . S
H659 N653 0.985 . S
H660 N657 0.984 . S
H661 N657 0.985 . S
H662 N656 0.984 . S
H663 N656 0.984 . S
H664 N652 0.984 . S
H665 N652 0.985 . S
C666 C667 1.363 . S
C666 C672 1.379 . S
C666 N674 1.356 . S
C667 C666 1.363 . S
C667 C673 1.363 1_545 S
C668 C669 1.363 . S
C668 C673 1.379 . S
C668 N675 1.356 . S
C669 C668 1.363 . S
C669 C672 1.363 1_565 S
N670 C672 1.356 . S
N670 H682 0.984 . S
N670 H683 0.985 . S
N671 C673 1.356 . S
N671 H676 0.984 . S
N671 H677 0.985 . S
C672 C666 1.379 . S
C672 C669 1.363 1_545 S
C672 N670 1.356 . S
C673 C667 1.363 1_565 S
C673 C668 1.379 . S
C673 N671 1.356 . S
N674 C666 1.356 . S
N674 H680 0.984 . S
N674 H681 0.984 . S
N675 C668 1.356 . S
N675 H678 0.984 . S
N675 H679 0.985 . S
H676 N671 0.984 . S
H677 N671 0.985 . S
H678 N675 0.984 . S
H679 N675 0.985 . S
H680 N674 0.984 . S
H681 N674 0.984 . S
H682 N670 0.984 . S
H683 N670 0.985 . S
C684 C685 1.363 . S
C684 C690 1.379 . S
C684 N692 1.356 . S
C685 C684 1.363 . S
C685 C691 1.363 . S
C686 C687 1.363 . S
C686 C691 1.379 . S
C686 N693 1.356 . S
C687 C686 1.363 . S
C687 C690 1.363 . S
N688 C690 1.356 . S
N688 H700 0.984 . S
N688 H701 0.985 . S
N689 C691 1.356 . S
N689 H694 0.984 . S
N689 H695 0.985 . S
C690 C684 1.379 . S
C690 C687 1.363 . S
C690 N688 1.356 . S
C691 C685 1.363 . S
C691 C686 1.379 . S
C691 N689 1.356 . S
N692 C684 1.356 . S
N692 H698 0.984 . S
N692 H699 0.984 . S
N693 C686 1.356 . S
N693 H696 0.984 . S
N693 H697 0.985 . S
H694 N689 0.984 . S
H695 N689 0.985 . S
H696 N693 0.984 . S
H697 N693 0.985 . S
H698 N692 0.984 . S
H699 N692 0.984 . S
H700 N688 0.984 . S
H701 N688 0.985 . S
C702 C703 1.363 1_655 S
C702 C708 1.379 . S
C702 N710 1.356 . S
C703 C702 1.363 1_455 S
C703 C709 1.363 . S
C704 C705 1.363 1_455 S
C704 C709 1.379 . S
C704 N711 1.356 . S
C705 C704 1.363 1_655 S
C705 C708 1.363 . S
N706 C708 1.356 . S
N706 H718 0.984 . S
N706 H719 0.985 . S
N707 C709 1.356 . S
N707 H712 0.984 . S
N707 H713 0.985 . S
C708 C702 1.379 . S
C708 C705 1.363 . S
C708 N706 1.356 . S
C709 C703 1.363 . S
C709 C704 1.379 . S
C709 N707 1.356 . S
N710 C702 1.356 . S
N710 H716 0.984 . S
N710 H717 0.984 . S
N711 C704 1.356 . S
N711 H714 0.984 . S
N711 H715 0.985 . S
H712 N707 0.984 . S
H713 N707 0.985 . S
H714 N711 0.984 . S
H715 N711 0.985 . S
H716 N710 0.984 . S
H717 N710 0.984 . S
H718 N706 0.984 . S
H719 N706 0.985 . S
C720 C721 1.363 . S
C720 C726 1.379 . S
C720 N728 1.356 . S
C721 C720 1.363 . S
C721 C727 1.363 1_545 S
C722 C723 1.363 . S
C722 C727 1.379 . S
C722 N729 1.356 . S
C723 C722 1.363 . S
C723 C726 1.363 1_565 S
N724 C726 1.356 . S
N724 H736 0.984 . S
N724 H737 0.985 . S
N725 C727 1.356 . S
N725 H730 0.984 . S
N725 H731 0.985 . S
C726 C720 1.379 . S
C726 C723 1.363 1_545 S
C726 N724 1.356 . S
C727 C721 1.363 1_565 S
C727 C722 1.379 . S
C727 N725 1.356 . S
N728 C720 1.356 . S
N728 H734 0.984 . S
N728 H735 0.984 . S
N729 C722 1.356 . S
N729 H732 0.984 . S
N729 H733 0.985 . S
H730 N725 0.984 . S
H731 N725 0.985 . S
H732 N729 0.984 . S
H733 N729 0.985 . S
H734 N728 0.984 . S
H735 N728 0.984 . S
H736 N724 0.984 . S
H737 N724 0.985 . S
C738 C739 1.363 . S
C738 C744 1.379 . S
C738 N746 1.356 . S
C739 C738 1.363 . S
C739 C745 1.363 . S
C740 C741 1.363 . S
C740 C745 1.379 . S
C740 N747 1.356 . S
C741 C740 1.363 . S
C741 C744 1.363 . S
N742 C744 1.356 . S
N742 H754 0.984 . S
N742 H755 0.985 . S
N743 C745 1.356 . S
N743 H748 0.984 . S
N743 H749 0.985 . S
C744 C738 1.379 . S
C744 C741 1.363 . S
C744 N742 1.356 . S
C745 C739 1.363 . S
C745 C740 1.379 . S
C745 N743 1.356 . S
N746 C738 1.356 . S
N746 H752 0.984 . S
N746 H753 0.984 . S
N747 C740 1.356 . S
N747 H750 0.984 . S
N747 H751 0.985 . S
H748 N743 0.984 . S
H749 N743 0.985 . S
H750 N747 0.984 . S
H751 N747 0.985 . S
H752 N746 0.984 . S
H753 N746 0.984 . S
H754 N742 0.984 . S
H755 N742 0.985 . S
C756 C757 1.363 . S
C756 C762 1.379 . S
C756 N764 1.356 . S
C757 C756 1.363 . S
C757 C763 1.363 . S
C758 C759 1.363 . S
C758 C763 1.379 . S
C758 N765 1.356 . S
C759 C758 1.363 . S
C759 C762 1.363 . S
N760 C762 1.356 . S
N760 H772 0.984 . S
N760 H773 0.985 . S
N761 C763 1.356 . S
N761 H766 0.984 . S
N761 H767 0.985 . S
C762 C756 1.379 . S
C762 C759 1.363 . S
C762 N760 1.356 . S
C763 C757 1.363 . S
C763 C758 1.379 . S
C763 N761 1.356 . S
N764 C756 1.356 . S
N764 H770 0.984 . S
N764 H771 0.984 . S
N765 C758 1.356 . S
N765 H768 0.984 . S
N765 H769 0.985 . S
H766 N761 0.984 . S
H767 N761 0.985 . S
H768 N765 0.984 . S
H769 N765 0.985 . S
H770 N764 0.984 . S
H771 N764 0.984 . S
H772 N760 0.984 . S
H773 N760 0.985 . S
C774 C775 1.363 . S
C774 C780 1.379 . S
C774 N782 1.356 . S
C775 C774 1.363 . S
C775 C781 1.363 . S
C776 C777 1.363 . S
C776 C781 1.379 . S
C776 N783 1.356 . S
C777 C776 1.363 . S
C777 C780 1.363 . S
N778 C780 1.356 . S
N778 H790 0.984 . S
N778 H791 0.985 . S
N779 C781 1.356 . S
N779 H784 0.984 . S
N779 H785 0.985 . S
C780 C774 1.379 . S
C780 C777 1.363 . S
C780 N778 1.356 . S
C781 C775 1.363 . S
C781 C776 1.379 . S
C781 N779 1.356 . S
N782 C774 1.356 . S
N782 H788 0.984 . S
N782 H789 0.984 . S
N783 C776 1.356 . S
N783 H786 0.984 . S
N783 H787 0.985 . S
H784 N779 0.984 . S
H785 N779 0.985 . S
H786 N783 0.984 . S
H787 N783 0.985 . S
H788 N782 0.984 . S
H789 N782 0.984 . S
H790 N778 0.984 . S
H791 N778 0.985 . S
C792 C793 1.363 . S
C792 C798 1.379 . S
C792 N800 1.356 . S
C793 C792 1.363 . S
C793 C799 1.363 . S
C794 C795 1.363 . S
C794 C799 1.379 . S
C794 N801 1.356 . S
C795 C794 1.363 . S
C795 C798 1.363 . S
N796 C798 1.356 . S
N796 H808 0.984 . S
N796 H809 0.985 . S
N797 C799 1.356 . S
N797 H802 0.984 . S
N797 H803 0.985 . S
C798 C792 1.379 . S
C798 C795 1.363 . S
C798 N796 1.356 . S
C799 C793 1.363 . S
C799 C794 1.379 . S
C799 N797 1.356 . S
N800 C792 1.356 . S
N800 H806 0.984 . S
N800 H807 0.984 . S
N801 C794 1.356 . S
N801 H804 0.984 . S
N801 H805 0.985 . S
H802 N797 0.984 . S
H803 N797 0.985 . S
H804 N801 0.984 . S
H805 N801 0.985 . S
H806 N800 0.984 . S
H807 N800 0.984 . S
H808 N796 0.984 . S
H809 N796 0.985 . S
C810 C811 1.363 . S
C810 C816 1.379 . S
C810 N818 1.356 . S
C811 C810 1.363 . S
C811 C817 1.363 . S
C812 C813 1.363 . S
C812 C817 1.379 . S
C812 N819 1.356 . S
C813 C812 1.363 . S
C813 C816 1.363 . S
N814 C816 1.356 . S
N814 H826 0.984 . S
N814 H827 0.985 . S
N815 C817 1.356 . S
N815 H820 0.984 . S
N815 H821 0.985 . S
C816 C810 1.379 . S
C816 C813 1.363 . S
C816 N814 1.356 . S
C817 C811 1.363 . S
C817 C812 1.379 . S
C817 N815 1.356 . S
N818 C810 1.356 . S
N818 H824 0.984 . S
N818 H825 0.984 . S
N819 C812 1.356 . S
N819 H822 0.984 . S
N819 H823 0.985 . S
H820 N815 0.984 . S
H821 N815 0.985 . S
H822 N819 0.984 . S
H823 N819 0.985 . S
H824 N818 0.984 . S
H825 N818 0.984 . S
H826 N814 0.984 . S
H827 N814 0.985 . S
C828 C829 1.363 . S
C828 C834 1.379 . S
C828 N836 1.356 . S
C829 C828 1.363 . S
C829 C835 1.363 . S
C830 C831 1.363 . S
C830 C835 1.379 . S
C830 N837 1.356 . S
C831 C830 1.363 . S
C831 C834 1.363 . S
N832 C834 1.356 . S
N832 H844 0.984 . S
N832 H845 0.985 . S
N833 C835 1.356 . S
N833 H838 0.984 . S
N833 H839 0.985 . S
C834 C828 1.379 . S
C834 C831 1.363 . S
C834 N832 1.356 . S
C835 C829 1.363 . S
C835 C830 1.379 . S
C835 N833 1.356 . S
N836 C828 1.356 . S
N836 H842 0.984 . S
N836 H843 0.984 . S
N837 C830 1.356 . S
N837 H840 0.984 . S
N837 H841 0.985 . S
H838 N833 0.984 . S
H839 N833 0.985 . S
H840 N837 0.984 . S
H841 N837 0.985 . S
H842 N836 0.984 . S
H843 N836 0.984 . S
H844 N832 0.984 . S
H845 N832 0.985 . S
C846 C847 1.363 . S
C846 C852 1.379 . S
C846 N854 1.356 . S
C847 C846 1.363 . S
C847 C853 1.363 . S
C848 C849 1.363 . S
C848 C853 1.379 . S
C848 N855 1.356 . S
C849 C848 1.363 . S
C849 C852 1.363 . S
N850 C852 1.356 . S
N850 H862 0.984 . S
N850 H863 0.985 . S
N851 C853 1.356 . S
N851 H856 0.984 . S
N851 H857 0.985 . S
C852 C846 1.379 . S
C852 C849 1.363 . S
C852 N850 1.356 . S
C853 C847 1.363 . S
C853 C848 1.379 . S
C853 N851 1.356 . S
N854 C846 1.356 . S
N854 H860 0.984 . S
N854 H861 0.984 . S
N855 C848 1.356 . S
N855 H858 0.984 . S
N855 H859 0.985 . S
H856 N851 0.984 . S
H857 N851 0.985 . S
H858 N855 0.984 . S
H859 N855 0.985 . S
H860 N854 0.984 . S
H861 N854 0.984 . S
H862 N850 0.984 . S
H863 N850 0.985 . S
C433 C14 1.431 . S
C435 C230 1.443 . S
C451 C50 1.443 . S
C453 C266 1.431 . S
C469 C86 1.385 . S
C471 C302 1.384 . S
C487 C338 1.443 . S
C489 C122 1.431 . S
C505 C158 1.442 . S
C507 C374 1.430 . S
C523 C410 1.385 . S
C525 C194 1.384 . S
C541 C2 1.162 . S
C543 C326 1.162 . S
C559 C38 1.162 . S
C561 C362 1.162 . S
C577 C398 1.142 . S
C579 C74 1.142 . S
C595 C218 1.162 . S
C597 C110 1.162 . S
C613 C146 1.162 . S
C615 C254 1.162 . S
C631 C182 1.142 . S
C633 C290 1.142 . S
C649 C399 1.749 . S
C651 C3 1.741 . S
C667 C39 1.856 . S
C669 C219 1.856 . S
C685 C75 1.748 . S
C687 C255 1.740 . S
C703 C291 1.749 . S
C705 C111 1.740 . S
C721 C327 1.856 . S
C723 C147 1.856 . S
C739 C183 1.749 . S
C741 C363 1.741 . S
C757 C4 1.211 . S
C759 C364 1.211 . S
C775 C400 1.280 . S
C777 C40 1.288 . S
C793 C220 1.285 . S
C795 C76 1.283 . S
C811 C112 1.211 . S
C813 C256 1.211 . S
C829 C292 1.280 . S
C831 C148 1.288 . S
C847 C328 1.285 . S
C849 C184 1.283 . S
