# Generated by pormake.
# Topology zfu, (5)-cn, num edge types: 1
# Building blocks:
#     Node 0, Type 0, BuildingBlock: BEQFEK_clean_sbu_0, # of connection points: 5
#     Node 1, Type 0, BuildingBlock: BEQFEK_clean_sbu_0, # of connection points: 5
#     Node 2, Type 0, BuildingBlock: BEQFEK_clean_sbu_0, # of connection points: 5
#     Node 3, Type 0, BuildingBlock: BEQFEK_clean_sbu_0, # of connection points: 5
#     Node 4, Type 0, BuildingBlock: BEQFEK_clean_sbu_0, # of connection points: 5
#     Node 5, Type 0, BuildingBlock: BEQFEK_clean_sbu_0, # of connection points: 5
#     Node 6, Type 0, BuildingBlock: BEQFEK_clean_sbu_0, # of connection points: 5
#     Node 7, Type 0, BuildingBlock: BEQFEK_clean_sbu_0, # of connection points: 5
#     Edge 8, Type (0, 0), BuildingBlock: TEMPAE_clean_linker_10, # of connection points: 2
#     Edge 9, Type (0, 0), BuildingBlock: TEMPAE_clean_linker_10, # of connection points: 2
#     Edge 10, Type (0, 0), BuildingBlock: TEMPAE_clean_linker_10, # of connection points: 2
#     Edge 11, Type (0, 0), BuildingBlock: TEMPAE_clean_linker_10, # of connection points: 2
#     Edge 12, Type (0, 0), BuildingBlock: TEMPAE_clean_linker_10, # of connection points: 2
#     Edge 13, Type (0, 0), BuildingBlock: TEMPAE_clean_linker_10, # of connection points: 2
#     Edge 14, Type (0, 0), BuildingBlock: TEMPAE_clean_linker_10, # of connection points: 2
#     Edge 15, Type (0, 0), BuildingBlock: TEMPAE_clean_linker_10, # of connection points: 2
#     Edge 16, Type (0, 0), BuildingBlock: TEMPAE_clean_linker_10, # of connection points: 2
#     Edge 17, Type (0, 0), BuildingBlock: TEMPAE_clean_linker_10, # of connection points: 2
#     Edge 18, Type (0, 0), BuildingBlock: TEMPAE_clean_linker_10, # of connection points: 2
#     Edge 19, Type (0, 0), BuildingBlock: TEMPAE_clean_linker_10, # of connection points: 2
#     Edge 20, Type (0, 0), BuildingBlock: TEMPAE_clean_linker_10, # of connection points: 2
#     Edge 21, Type (0, 0), BuildingBlock: TEMPAE_clean_linker_10, # of connection points: 2
#     Edge 22, Type (0, 0), BuildingBlock: TEMPAE_clean_linker_10, # of connection points: 2
#     Edge 23, Type (0, 0), BuildingBlock: TEMPAE_clean_linker_10, # of connection points: 2
#     Edge 24, Type (0, 0), BuildingBlock: TEMPAE_clean_linker_10, # of connection points: 2
#     Edge 25, Type (0, 0), BuildingBlock: TEMPAE_clean_linker_10, # of connection points: 2
#     Edge 26, Type (0, 0), BuildingBlock: TEMPAE_clean_linker_10, # of connection points: 2
#     Edge 27, Type (0, 0), BuildingBlock: TEMPAE_clean_linker_10, # of connection points: 2
# Relax obj value: 0.066
# Max RMSD: 0.102
# Mean RMSD: 0.102
data_MOF--net-zfu--node1-BEQFEK_clean_sbu_0--edge1-TEMPAE_clean_linker_10
_symmetry_space_group_name_H-M    P1
_symmetry_Int_Tables_number       1
_symmetry_cell_setting            triclinic
loop_
_symmetry_equiv_pos_as_xyz
'x, y, z'
_cell_length_a     42.00858
_cell_length_b     42.004717
_cell_length_c     27.123329
_cell_angle_alpha  89.949962
_cell_angle_beta   90.006361
_cell_angle_gamma 89.963428
loop_
_atom_site_label
_atom_site_type_symbol
_atom_site_fract_x
_atom_site_fract_y
_atom_site_fract_z
_atom_type_partial_charge
Co0 Co 0.44196 0.7018 0.05435 0.0
Co1 Co 0.40058 0.76398 0.05265 0.0
C2 C 0.46908 0.76654 0.07953 0.0
O3 O 0.47107 0.73655 0.07374 0.0
O4 O 0.44297 0.7812 0.07196 0.0
C5 C 0.49229 0.65816 0.07156 0.0
O6 O 0.4979 0.67752 0.10858 0.0
C7 C 0.37776 0.82645 0.01892 0.0
C8 C 0.32586 0.82158 0.02985 0.0
C9 C 0.34894 0.84165 0.01082 0.0
N10 N 0.37193 0.79845 0.04124 0.0
N11 N 0.34093 0.796 0.04861 0.0
C12 C 0.40979 0.83636 1.00033 0.0
H13 H 0.42435 0.81508 0.99134 0.0
H14 H 0.40757 0.85185 0.96733 0.0
H15 H 0.42219 0.84991 0.02971 0.0
C16 C 0.41472 0.69451 0.95542 0.0
N17 N 0.41968 0.71182 0.99642 0.0
N18 N 0.40259 0.73804 0.99455 0.0
C19 C 0.38643 0.7384 0.95148 0.0
C20 C 0.39347 0.71078 0.92541 0.0
C21 C 0.42691 0.66127 0.94872 0.0
H22 H 0.42314 0.6475 0.98314 0.0
H23 H 0.45289 0.66213 0.9415 0.0
H24 H 0.41491 0.64879 0.9179 0.0
O25 O 0.41133 0.6935 0.10767 0.0
O26 O 0.38327 0.73849 0.10908 0.0
H27 H 0.34295 0.76428 0.96002 0.0
H28 H 0.35644 0.76137 0.89693 0.0
C29 C 0.36417 0.76432 0.93575 0.0
H30 H 0.37625 0.78761 0.93911 0.0
H31 H 0.32991 0.77611 0.0641 0.0
O32 O 0.46863 0.66358 0.04361 0.0
C33 C 0.38942 0.71079 0.126 0.0
Co34 Co 0.79859 0.94376 0.30265 0.0
Co35 Co 0.73688 0.90185 0.30508 0.0
C36 C 0.73524 0.97162 0.32907 0.0
O37 O 0.76506 0.97373 0.32229 0.0
O38 O 0.72079 0.94527 0.32296 0.0
C39 C 0.83521 0.99718 0.27462 0.0
O40 O 0.80726 0.00681 0.25873 0.0
C41 C 0.67713 0.8797 0.26139 0.0
C42 C 0.66748 0.83572 0.30346 0.0
C43 C 0.6558 0.85455 0.2655 0.0
N44 N 0.70041 0.87559 0.29484 0.0
N45 N 0.69443 0.84934 0.32005 0.0
C46 C 0.67492 0.90806 0.22808 0.0
H47 H 0.6884 0.92838 0.24368 0.0
H48 H 0.68552 0.90218 0.19178 0.0
H49 H 0.64968 0.91494 0.2223 0.0
C50 C 0.80426 0.91535 0.20376 0.0
N51 N 0.78759 0.92086 0.24525 0.0
N52 N 0.7632 0.90126 0.2473 0.0
C53 C 0.76444 0.88159 0.20792 0.0
C54 C 0.79043 0.88997 0.17881 0.0
C55 C 0.83325 0.9338 0.18918 0.0
H56 H 0.82843 0.95957 0.19324 0.0
H57 H 0.84015 0.92926 0.15036 0.0
H58 H 0.85327 0.92744 0.21402 0.0
O59 O 0.80634 0.91327 0.35726 0.0
O60 O 0.76164 0.88492 0.36185 0.0
H61 H 0.75741 0.83357 0.18123 0.0
H62 H 0.72228 0.85798 0.18314 0.0
C63 C 0.74469 0.8521 0.20271 0.0
H64 H 0.73878 0.84226 0.23949 0.0
H65 H 0.70886 0.84061 0.34831 0.0
O66 O 0.83767 0.96957 0.2935 0.0
C67 C 0.7895 0.89162 0.37742 0.0
Co68 Co 0.55797 0.30019 0.55658 0.0
Co69 Co 0.60302 0.24061 0.55667 0.0
C70 C 0.53242 0.23615 0.5792 0.0
O71 O 0.52825 0.26564 0.57105 0.0
O72 O 0.55996 0.22358 0.57567 0.0
C73 C 0.50826 0.34461 0.57375 0.0
O74 O 0.50141 0.32446 0.60927 0.0
C75 C 0.62529 0.18138 0.51138 0.0
C76 C 0.67016 0.17213 0.55132 0.0
C77 C 0.65072 0.16025 0.51429 0.0
N78 N 0.62978 0.20467 0.54466 0.0
N79 N 0.65659 0.19895 0.56853 0.0
C80 C 0.59632 0.17894 0.47944 0.0
H81 H 0.57628 0.19252 0.49568 0.0
H82 H 0.60153 0.18929 0.4427 0.0
H83 H 0.58938 0.15365 0.47444 0.0
C84 C 0.58626 0.3085 0.45803 0.0
N85 N 0.582 0.29132 0.49938 0.0
N86 N 0.6022 0.2674 0.49989 0.0
C87 C 0.62106 0.26947 0.45969 0.0
C88 C 0.61145 0.29551 0.43155 0.0
C89 C 0.56654 0.33695 0.44471 0.0
H90 H 0.5412 0.33228 0.45357 0.0
H91 H 0.56857 0.34274 0.40492 0.0
H92 H 0.5745 0.35769 0.46683 0.0
O93 O 0.58645 0.30644 0.61445 0.0
O94 O 0.62039 0.26559 0.61254 0.0
H95 H 0.66856 0.2634 0.43026 0.0
H96 H 0.64477 0.22786 0.43291 0.0
C97 C 0.65074 0.25022 0.4525 0.0
H98 H 0.66148 0.24417 0.48862 0.0
H99 H 0.66569 0.21343 0.59642 0.0
O100 O 0.53242 0.33935 0.54678 0.0
C101 C 0.61035 0.29139 0.6318 0.0
Co102 Co 0.20095 0.06068 0.81204 0.0
Co103 Co 0.26332 0.1019 0.8032 0.0
C104 C 0.26519 0.03415 0.83715 0.0
O105 O 0.23517 0.03189 0.83289 0.0
O106 O 0.27986 0.05964 0.82591 0.0
C107 C 0.16341 0.00899 0.7811 0.0
O108 O 0.18959 0.00283 0.75636 0.0
C109 C 0.32525 0.12226 0.76162 0.0
C110 C 0.3276 0.17212 0.78716 0.0
C111 C 0.34388 0.14957 0.75969 0.0
N112 N 0.29897 0.12864 0.78834 0.0
N113 N 0.3007 0.15843 0.80374 0.0
C114 C 0.33273 0.09036 0.73983 0.0
H115 H 0.32038 0.07117 0.7602 0.0
H116 H 0.32448 0.08963 0.70103 0.0
H117 H 0.3588 0.08601 0.74023 0.0
C118 C 0.19138 0.08612 0.71116 0.0
N119 N 0.20964 0.08162 0.75146 0.0
N120 N 0.23571 0.09883 0.7474 0.0
C121 C 0.23472 0.11493 0.70429 0.0
C122 C 0.2067 0.10724 0.67983 0.0
C123 C 0.15804 0.07397 0.70593 0.0
H124 H 0.14567 0.07492 0.74199 0.0
H125 H 0.15881 0.04885 0.69342 0.0
H126 H 0.14429 0.08805 0.67862 0.0
O127 O 0.19566 0.09202 0.86516 0.0
O128 O 0.2393 0.12201 0.85897 0.0
H129 H 0.26137 0.15766 0.71618 0.0
H130 H 0.25341 0.14931 0.65186 0.0
C131 C 0.25923 0.13859 0.68811 0.0
H132 H 0.28254 0.12656 0.68482 0.0
H133 H 0.28333 0.16954 0.82518 0.0
O134 O 0.16224 0.03391 0.80758 0.0
C135 C 0.2129 0.11511 0.87966 0.0
Co136 Co 0.94264 0.80134 0.75113 0.0
Co137 Co 0.90059 0.73964 0.74933 0.0
C138 C 0.97001 0.73806 0.7232 0.0
O139 O 0.97245 0.76783 0.73032 0.0
O140 O 0.94365 0.72379 0.7299 0.0
C141 C 0.99615 0.83765 0.77948 0.0
O142 O 0.0054 0.80961 0.79558 0.0
C143 C 0.8799 0.67951 0.79324 0.0
C144 C 0.83509 0.66968 0.75352 0.0
C145 C 0.85486 0.65795 0.79031 0.0
N146 N 0.87481 0.70292 0.7603 0.0
N147 N 0.84808 0.69683 0.73648 0.0
C148 C 0.90897 0.67751 0.82504 0.0
H149 H 0.92883 0.69117 0.80844 0.0
H150 H 0.90377 0.68807 0.86162 0.0
H151 H 0.91622 0.65233 0.8304 0.0
C152 C 0.91491 0.80663 0.85081 0.0
N153 N 0.92022 0.79014 0.80908 0.0
N154 N 0.90072 0.76566 0.80727 0.0
C155 C 0.88139 0.76661 0.84706 0.0
C156 C 0.88985 0.79253 0.87621 0.0
C157 C 0.93318 0.83579 0.86514 0.0
H158 H 0.95897 0.83108 0.86124 0.0
H159 H 0.92854 0.84282 0.90387 0.0
H160 H 0.92678 0.85567 0.84006 0.0
O161 O 0.91153 0.80924 0.69728 0.0
O162 O 0.88297 0.76461 0.69337 0.0
H163 H 0.83374 0.75898 0.8751 0.0
H164 H 0.85829 0.724 0.87125 0.0
C165 C 0.85204 0.74666 0.85264 0.0
H166 H 0.84175 0.74123 0.81601 0.0
H167 H 0.83858 0.71133 0.70889 0.0
O168 O 0.9687 0.84035 0.76016 0.0
C169 C 0.88959 0.79248 0.67771 0.0
Co170 Co 0.70362 0.4463 1.00178 0.0
Co171 Co 0.76361 0.40193 1.00164 0.0
C172 C 0.76731 0.47247 0.97841 0.0
O173 O 0.73778 0.47617 0.98648 0.0
O174 O 0.78033 0.44516 0.98248 0.0
C175 C 0.65893 0.49548 0.98404 0.0
O176 O 0.67881 0.50199 0.94801 0.0
C177 C 0.82292 0.37993 0.04705 0.0
C178 C 0.83223 0.335 0.00738 0.0
C179 C 0.84403 0.35447 0.04442 0.0
N180 N 0.79969 0.37539 0.01364 0.0
N181 N 0.80546 0.34856 0.98991 0.0
C182 C 0.82527 0.40892 0.07891 0.0
H183 H 0.8119 0.42901 0.06232 0.0
H184 H 0.81464 0.40381 0.11548 0.0
H185 H 0.85055 0.41576 0.08434 0.0
C186 C 0.69583 0.41831 0.10053 0.0
N187 N 0.7129 0.4226 0.05911 0.0
N188 N 0.73694 0.40255 0.05858 0.0
C189 C 0.73505 0.38372 0.09889 0.0
C190 C 0.70901 0.39322 0.12706 0.0
C191 C 0.6673 0.43788 0.11383 0.0
H192 H 0.6718 0.46324 0.10483 0.0
H193 H 0.66159 0.43589 0.15365 0.0
H194 H 0.64657 0.42977 0.09182 0.0
O195 O 0.69731 0.41765 0.94434 0.0
O196 O 0.73866 0.38435 0.94574 0.0
H197 H 0.76058 0.34345 0.07006 0.0
H198 H 0.74134 0.33625 0.12836 0.0
C199 C 0.75445 0.35414 0.10614 0.0
H200 H 0.77676 0.36021 0.12582 0.0
H201 H 0.79102 0.3394 0.96202 0.0
O202 O 0.66444 0.47163 0.01159 0.0
C203 C 0.7126 0.39401 0.92675 0.0
Co204 Co 0.05823 0.20161 0.24665 0.0
Co205 Co 0.1003 0.26316 0.25415 0.0
C206 C 0.03063 0.26632 0.22932 0.0
O207 O 0.02812 0.23632 0.23374 0.0
O208 O 0.05727 0.28017 0.23582 0.0
C209 C 0.0077 0.16298 0.27895 0.0
O210 O 0.00203 0.18845 0.30565 0.0
C211 C 0.12251 0.32406 0.29667 0.0
C212 C 0.17119 0.32695 0.26618 0.0
C213 C 0.14987 0.34263 0.29664 0.0
N214 N 0.1277 0.29835 0.26813 0.0
N215 N 0.15678 0.30039 0.24982 0.0
C216 C 0.0916 0.3312 0.32187 0.0
H217 H 0.07168 0.31863 0.30363 0.0
H218 H 0.09269 0.32301 0.36069 0.0
H219 H 0.08701 0.35723 0.32193 0.0
C220 C 0.08731 0.1896 0.34454 0.0
N221 N 0.08185 0.20845 0.30519 0.0
N222 N 0.09938 0.23433 0.30886 0.0
C223 C 0.11674 0.23257 0.35071 0.0
C224 C 0.10946 0.20429 0.37482 0.0
C225 C 0.0745 0.15653 0.35007 0.0
H226 H 0.07405 0.14445 0.31376 0.0
H227 H 0.04982 0.1578 0.36444 0.0
H228 H 0.08907 0.14222 0.37607 0.0
O229 O 0.08707 0.19792 0.1894 0.0
O230 O 0.11838 0.24048 0.196 0.0
H231 H 0.15876 0.25991 0.33668 0.0
H232 H 0.15287 0.25022 0.4011 0.0
C233 C 0.14079 0.25686 0.36625 0.0
H234 H 0.12873 0.27995 0.37202 0.0
H235 H 0.16692 0.28347 0.22644 0.0
O236 O 0.03193 0.16265 0.25092 0.0
C237 C 0.1101 0.21498 0.17403 0.0
Co238 Co 0.30047 0.56011 0.50073 0.0
Co239 Co 0.23818 0.60163 0.50042 0.0
C240 C 0.23677 0.53211 0.47596 0.0
O241 O 0.26662 0.52983 0.48269 0.0
O242 O 0.2224 0.55853 0.48177 0.0
C243 C 0.34521 0.51072 0.48434 0.0
O244 O 0.3259 0.50463 0.44743 0.0
C245 C 0.17665 0.62307 0.54045 0.0
C246 C 0.1714 0.67037 0.50572 0.0
C247 C 0.15689 0.64955 0.53838 0.0
N248 N 0.20192 0.62829 0.51101 0.0
N249 N 0.19847 0.6565 0.49007 0.0
C250 C 0.17104 0.5928 0.56836 0.0
H251 H 0.18459 0.57288 0.55178 0.0
H252 H 0.17915 0.5956 0.60699 0.0
H253 H 0.14526 0.58701 0.56896 0.0
C254 C 0.30715 0.58838 0.59893 0.0
N255 N 0.28993 0.58299 0.55798 0.0
N256 N 0.26455 0.60138 0.55803 0.0
C257 C 0.26521 0.61964 0.599 0.0
C258 C 0.29208 0.61177 0.62642 0.0
C259 C 0.33955 0.57454 0.60759 0.0
H260 H 0.35496 0.57978 0.57538 0.0
H261 H 0.33754 0.54828 0.61087 0.0
H262 H 0.35097 0.58419 0.64124 0.0
O263 O 0.30782 0.59043 0.44603 0.0
O264 O 0.26305 0.61891 0.44378 0.0
H265 H 0.23912 0.66124 0.57737 0.0
H266 H 0.24882 0.65995 0.64241 0.0
C267 C 0.24175 0.64555 0.61002 0.0
H268 H 0.21832 0.63482 0.61817 0.0
H269 H 0.21482 0.66647 0.46556 0.0
O270 O 0.33944 0.53445 0.51195 0.0
C271 C 0.29067 0.61232 0.42707 0.0
C272 C 0.60964 0.50925 0.03137 0.0
C273 C 0.63194 0.51704 0.99479 0.0
C274 C 0.58512 0.53045 0.04397 0.0
C275 C 0.58307 0.56023 0.01973 0.0
C276 C 0.60511 0.56795 0.9821 0.0
C277 C 0.62919 0.5462 0.96993 0.0
C278 C 0.56184 0.52128 0.08393 0.0
C279 C 0.60382 0.59959 0.95564 0.0
C280 C 0.50722 0.60942 0.02377 0.0
C281 C 0.51453 0.63181 0.06042 0.0
C282 C 0.52896 0.58541 0.011 0.0
C283 C 0.55882 0.58401 0.03511 0.0
C284 C 0.56609 0.60619 0.07272 0.0
C285 C 0.54379 0.62972 0.08509 0.0
C286 C 0.52025 0.56194 0.97109 0.0
C287 C 0.59779 0.60561 0.09901 0.0
H288 H 0.61154 0.4867 0.05062 0.0
H289 H 0.64634 0.55243 0.94168 0.0
H290 H 0.56439 0.53765 0.11575 0.0
H291 H 0.53706 0.52363 0.07021 0.0
H292 H 0.56552 0.49649 0.09709 0.0
H293 H 0.62207 0.60149 0.92615 0.0
H294 H 0.57998 0.60316 0.93893 0.0
H295 H 0.60762 0.61919 0.98239 0.0
H296 H 0.48459 0.61081 0.00467 0.0
H297 H 0.54966 0.64697 0.11336 0.0
H298 H 0.52307 0.53722 0.98488 0.0
H299 H 0.53659 0.56477 0.93926 0.0
H300 H 0.49541 0.56515 0.95793 0.0
H301 H 0.60188 0.58188 0.11586 0.0
H302 H 0.59937 0.62397 0.12837 0.0
H303 H 0.61727 0.60974 0.07213 0.0
C304 C 0.96103 0.13459 0.31522 0.0
C305 C 0.98532 0.13581 0.27983 0.0
C306 C 0.93828 0.11018 0.31461 0.0
C307 C 0.93969 0.0866 0.27742 0.0
C308 C 0.96462 0.08721 0.24234 0.0
C309 C 0.98726 0.11175 0.24411 0.0
C310 C 0.91224 0.11013 0.353 0.0
C311 C 0.96675 0.06257 0.20196 0.0
C312 C 0.8911 0.01148 0.29789 0.0
C313 C 0.86297 0.01878 0.27237 0.0
C314 C 0.91661 0.03305 0.29907 0.0
C315 C 0.91398 0.06242 0.27376 0.0
C316 C 0.88606 0.06943 0.2466 0.0
C317 C 0.86085 0.04759 0.24642 0.0
C318 C 0.94596 0.02486 0.32863 0.0
C319 C 0.8825 0.10037 0.21871 0.0
H320 H 0.95953 0.15296 0.34316 0.0
H321 H 0.00597 0.11255 0.21661 0.0
H322 H 0.88884 0.11395 0.33495 0.0
H323 H 0.91126 0.08668 0.37181 0.0
H324 H 0.91569 0.12895 0.38124 0.0
H325 H 0.98863 0.06529 0.17934 0.0
H326 H 0.96643 0.03826 0.21796 0.0
H327 H 0.94574 0.06464 0.17738 0.0
H328 H 0.89289 0.98927 0.31808 0.0
H329 H 0.83927 0.05331 0.22635 0.0
H330 H 0.94859 0.04192 0.35956 0.0
H331 H 0.96755 0.02704 0.30533 0.0
H332 H 0.94497 1.00036 0.34401 0.0
H333 H 0.88277 0.12062 0.24493 0.0
H334 H 0.86003 0.10139 0.19716 0.0
H335 H 0.90282 0.10367 0.1931 0.0
C336 C 0.45748 0.37437 0.58739 0.0
C337 C 0.48676 0.37169 0.56292 0.0
C338 C 0.43578 0.39851 0.57511 0.0
C339 C 0.44368 0.4207 0.53775 0.0
C340 C 0.47361 0.41876 0.51397 0.0
C341 C 0.49475 0.39417 0.52667 0.0
C342 C 0.404 0.39967 0.60109 0.0
C343 C 0.48298 0.44219 0.4743 0.0
C344 C 0.37433 0.45955 0.47119 0.0
C345 C 0.3718 0.48877 0.49586 0.0
C346 C 0.39798 0.43744 0.48393 0.0
C347 C 0.41986 0.44485 0.52193 0.0
C348 C 0.41803 0.47468 0.54602 0.0
C349 C 0.3939 0.49624 0.53288 0.0
C350 C 0.39899 0.40577 0.45762 0.0
C351 C 0.44116 0.48355 0.58634 0.0
H352 H 0.45109 0.35711 0.6154 0.0
H353 H 0.5174 0.39235 0.50772 0.0
H354 H 0.4002 0.4235 0.61768 0.0
H355 H 0.38457 0.39575 0.57405 0.0
H356 H 0.40202 0.38142 0.6306 0.0
H357 H 0.50791 0.4387 0.46173 0.0
H358 H 0.46693 0.43957 0.44209 0.0
H359 H 0.48032 0.46692 0.48802 0.0
H360 H 0.35732 0.45354 0.44263 0.0
H361 H 0.39217 0.51883 0.55199 0.0
H362 H 0.3948 0.38623 0.48441 0.0
H363 H 0.42287 0.40187 0.44123 0.0
H364 H 0.38087 0.40408 0.42791 0.0
H365 H 0.43818 0.46721 0.61816 0.0
H366 H 0.43772 0.50838 0.59936 0.0
H367 H 0.46599 0.48085 0.57304 0.0
C368 C 0.0459 0.8632 0.81044 0.0
C369 C 0.01794 0.86525 0.78238 0.0
C370 C 0.06795 0.88824 0.81114 0.0
C371 C 0.06208 0.91588 0.78265 0.0
C372 C 0.03356 0.91843 0.75512 0.0
C373 C 0.01171 0.89312 0.75552 0.0
C374 C 0.09793 0.88477 0.84146 0.0
C375 C 0.02661 0.94744 0.72401 0.0
C376 C 0.11113 0.98924 0.81328 0.0
C377 C 0.13623 0.98662 0.7794 0.0
C378 C 0.08639 0.96677 0.81412 0.0
C379 C 0.08663 0.94132 0.77995 0.0
C380 C 0.11134 0.93918 0.74461 0.0
C381 C 0.13592 0.96176 0.74493 0.0
C382 C 0.06056 0.96969 0.85256 0.0
C383 C 0.11225 0.91258 0.7072 0.0
H384 H 0.05077 0.84184 0.83158 0.0
H385 H 0.99017 0.89484 0.73367 0.0
H386 H 0.11899 0.88446 0.8168 0.0
H387 H 0.10063 0.90544 0.86657 0.0
H388 H 0.09801 0.86261 0.86385 0.0
H389 H 0.00262 0.94647 0.70684 0.0
H390 H 0.02826 0.96932 0.74673 0.0
H391 H 0.04467 0.94949 0.69432 0.0
H392 H 0.11122 0.00838 0.84005 0.0
H393 H 0.1551 0.95973 0.71838 0.0
H394 H 0.06158 0.94895 0.87788 0.0
H395 H 0.03678 0.96946 0.83479 0.0
H396 H 0.06284 0.9918 0.87471 0.0
H397 H 0.11522 0.88941 0.72635 0.0
H398 H 0.132 0.91543 0.68034 0.0
H399 H 0.08943 0.91157 0.68666 0.0
C400 C 0.28242 0.6415 0.34768 0.0
C401 C 0.30312 0.63003 0.38415 0.0
C402 C 0.29431 0.65626 0.30497 0.0
C403 C 0.32758 0.6604 0.29945 0.0
C404 C 0.34844 0.65001 0.3372 0.0
C405 C 0.33598 0.63452 0.37875 0.0
C406 C 0.27139 0.66629 0.26498 0.0
C407 C 0.384 0.65469 0.3333 0.0
C408 C 0.36633 0.6656 0.17351 0.0
C409 C 0.37128 0.69843 0.16853 0.0
C410 C 0.35084 0.65309 0.21499 0.0
C411 C 0.34091 0.67385 0.25311 0.0
C412 C 0.3454 0.70711 0.24794 0.0
C413 C 0.36017 0.71906 0.20528 0.0
C414 C 0.34575 0.61756 0.2185 0.0
C415 C 0.33583 0.72991 0.28831 0.0
H416 H 0.257 0.63787 0.35167 0.0
H417 H 0.35201 0.62596 0.40717 0.0
H418 H 0.27494 0.69174 0.25557 0.0
H419 H 0.27611 0.6523 0.23106 0.0
H420 H 0.24616 0.66269 0.27588 0.0
H421 H 0.39662 0.64774 0.36766 0.0
H422 H 0.39353 0.64021 0.30246 0.0
H423 H 0.38949 0.67998 0.32506 0.0
H424 H 0.37463 0.64963 0.14487 0.0
H425 H 0.36417 0.74445 0.2016 0.0
H426 H 0.32046 0.61232 0.22709 0.0
H427 H 0.36034 0.60766 0.24895 0.0
H428 H 0.35229 0.60507 0.18385 0.0
H429 H 0.31043 0.72652 0.29809 0.0
H430 H 0.33955 0.75517 0.2776 0.0
H431 H 0.35003 0.72491 0.32196 0.0
C432 C 0.78228 0.8632 0.45769 0.0
C433 C 0.80253 0.87443 0.42047 0.0
C434 C 0.79468 0.84878 0.50033 0.0
C435 C 0.82802 0.84474 0.50506 0.0
C436 C 0.84844 0.85502 0.4667 0.0
C437 C 0.83548 0.87017 0.4252 0.0
C438 C 0.77222 0.83885 0.54098 0.0
C439 C 0.88405 0.8504 0.46976 0.0
C440 C 0.86756 0.83846 0.63046 0.0
C441 C 0.87203 0.80553 0.63504 0.0
C442 C 0.85214 0.8514 0.58918 0.0
C443 C 0.84181 0.83097 0.55088 0.0
C444 C 0.84602 0.79765 0.55551 0.0
C445 C 0.86069 0.78527 0.59794 0.0
C446 C 0.84732 0.88699 0.58623 0.0
C447 C 0.83607 0.77519 0.51491 0.0
H448 H 0.7568 0.86667 0.45424 0.0
H449 H 0.85116 0.87857 0.39623 0.0
H450 H 0.77554 0.81329 0.54981 0.0
H451 H 0.77765 0.8525 0.57497 0.0
H452 H 0.74688 0.8429 0.53104 0.0
H453 H 0.89634 0.8576 0.43524 0.0
H454 H 0.89383 0.86466 0.50063 0.0
H455 H 0.88968 0.82506 0.47746 0.0
H456 H 0.87605 0.85414 0.65935 0.0
H457 H 0.86433 0.7598 0.60127 0.0
H458 H 0.82197 0.8925 0.5785 0.0
H459 H 0.86158 0.89689 0.55542 0.0
H460 H 0.85443 0.89925 0.6208 0.0
H461 H 0.8105 0.77849 0.50613 0.0
H462 H 0.84014 0.74985 0.52486 0.0
H463 H 0.84971 0.78062 0.48088 0.0
C464 C 0.69968 0.34448 0.88011 0.0
C465 C 0.69979 0.37776 0.88294 0.0
C466 C 0.68578 0.32888 0.83968 0.0
C467 C 0.67291 0.3471 0.80045 0.0
C468 C 0.67409 0.38078 0.80249 0.0
C469 C 0.68694 0.3957 0.84421 0.0
C470 C 0.68395 0.29298 0.83967 0.0
C471 C 0.66164 0.40106 0.76071 0.0
C472 C 0.65977 0.30715 0.67633 0.0
C473 C 0.62658 0.30423 0.67554 0.0
C474 C 0.67527 0.32113 0.71678 0.0
C475 C 0.65715 0.33114 0.75802 0.0
C476 C 0.62368 0.32706 0.75797 0.0
C477 C 0.60873 0.31427 0.71621 0.0
C478 C 0.71083 0.32617 0.71467 0.0
C479 C 0.60364 0.33637 0.80187 0.0
H480 H 0.70945 0.33068 0.91035 0.0
H481 H 0.68733 0.42148 0.84633 0.0
H482 H 0.65867 0.2854 0.83818 0.0
H483 H 0.69585 0.28324 0.80645 0.0
H484 H 0.69518 0.28233 0.8729 0.0
H485 H 0.66675 0.42676 0.76626 0.0
H486 H 0.67246 0.3934 0.72532 0.0
H487 H 0.63552 0.39799 0.75724 0.0
H488 H 0.67345 0.29954 0.64455 0.0
H489 H 0.58304 0.31171 0.71555 0.0
H490 H 0.72254 0.31429 0.74636 0.0
H491 H 0.71619 0.35198 0.71747 0.0
H492 H 0.72144 0.31689 0.68003 0.0
H493 H 0.61331 0.32532 0.83591 0.0
H494 H 0.57838 0.32906 0.7976 0.0
H495 H 0.60443 0.36254 0.80703 0.0
C496 C 0.19883 0.16601 0.92181 0.0
C497 C 0.20252 0.13292 0.92337 0.0
C498 C 0.18558 0.18243 0.96207 0.0
C499 C 0.17697 0.1653 0.00512 0.0
C500 C 0.18239 0.13206 0.00753 0.0
C501 C 0.19453 0.1162 0.96622 0.0
C502 C 0.17928 0.21768 0.95759 0.0
C503 C 0.17447 0.11305 0.05321 0.0
C504 C 0.16046 0.20753 0.12642 0.0
C505 C 0.12728 0.20484 0.12936 0.0
C506 C 0.1771 0.19541 0.08558 0.0
C507 C 0.15994 0.18132 0.04627 0.0
C508 C 0.12627 0.18014 0.04813 0.0
C509 C 0.1104 0.19138 0.09008 0.0
C510 C 0.21302 0.19622 0.08563 0.0
C511 C 0.10701 0.16618 0.00638 0.0
H512 H 0.20489 0.17877 0.88834 0.0
H513 H 0.19769 0.09057 0.96728 0.0
H514 H 0.15321 0.22198 0.95762 0.0
H515 H 0.18934 0.23059 0.98964 0.0
H516 H 0.18947 0.22788 0.92324 0.0
H517 H 0.18346 0.08821 0.05105 0.0
H518 H 0.18481 0.12458 0.08634 0.0
H519 H 0.14829 0.11227 0.05834 0.0
H520 H 0.17348 0.21785 0.157 0.0
H521 H 0.08467 0.18968 0.09218 0.0
H522 H 0.22205 0.2068 0.05087 0.0
H523 H 0.22238 0.17154 0.08771 0.0
H524 H 0.22269 0.20999 0.11721 0.0
H525 H 0.1146 0.17662 0.97067 0.0
H526 H 0.08107 0.17034 0.0111 0.0
H527 H 0.11118 0.14014 0.0043 0.0
C528 C 0.3113 0.66037 0.67014 0.0
C529 C 0.30475 0.6277 0.67078 0.0
C530 C 0.32498 0.67538 0.71119 0.0
C531 C 0.33268 0.65709 0.75342 0.0
C532 C 0.32597 0.62405 0.75419 0.0
C533 C 0.31197 0.60976 0.71279 0.0
C534 C 0.33162 0.71068 0.70913 0.0
C535 C 0.33402 0.60371 0.7984 0.0
C536 C 0.39635 0.68716 0.84115 0.0
C537 C 0.37793 0.69874 0.88021 0.0
C538 C 0.38191 0.67383 0.79933 0.0
C539 C 0.34827 0.67233 0.79655 0.0
C540 C 0.32958 0.6846 0.83559 0.0
C541 C 0.34467 0.69749 0.87715 0.0
C542 C 0.40265 0.66083 0.75857 0.0
C543 C 0.29367 0.68358 0.83385 0.0
H544 H 0.30621 0.67406 0.63715 0.0
H545 H 0.307 0.58443 0.71293 0.0
H546 H 0.31998 0.72285 0.74063 0.0
H547 H 0.35759 0.71496 0.7124 0.0
H548 H 0.32305 0.72168 0.67431 0.0
H549 H 0.32697 0.57844 0.79322 0.0
H550 H 0.36001 0.60464 0.80557 0.0
H551 H 0.32189 0.61308 0.83168 0.0
H552 H 0.42209 0.68823 0.84366 0.0
H553 H 0.33046 0.70602 0.90777 0.0
H554 H 0.39665 0.67258 0.72312 0.0
H555 H 0.39811 0.63499 0.75391 0.0
H556 H 0.42841 0.66435 0.76605 0.0
H557 H 0.28493 0.69527 0.79973 0.0
H558 H 0.28263 0.6955 0.86615 0.0
H559 H 0.28548 0.65848 0.83284 0.0
C560 C 0.78303 0.86348 0.09681 0.0
C561 C 0.80323 0.87281 0.13528 0.0
C562 C 0.79515 0.84806 0.05483 0.0
C563 C 0.82834 0.84261 0.05084 0.0
C564 C 0.84871 0.85146 0.09007 0.0
C565 C 0.8358 0.86585 0.13218 0.0
C566 C 0.77254 0.83812 0.01443 0.0
C567 C 0.88428 0.84658 0.087 0.0
C568 C 0.86391 0.7845 0.95849 0.0
C569 C 0.87285 0.80499 0.92013 0.0
C570 C 0.84824 0.79618 1.00054 0.0
C571 C 0.84215 0.82924 0.00474 0.0
C572 C 0.85073 0.84992 0.96572 0.0
C573 C 0.86539 0.83744 0.92352 0.0
C574 C 0.83862 0.77323 0.04072 0.0
C575 C 0.84517 0.88539 0.96904 0.0
H576 H 0.7578 0.86868 0.09924 0.0
H577 H 0.85135 0.87202 0.16258 0.0
H578 H 0.777 0.85256 0.98088 0.0
H579 H 0.77661 0.81283 0.00447 0.0
H580 H 0.74723 0.84116 0.02532 0.0
H581 H 0.8968 0.8548 0.12075 0.0
H582 H 0.88978 0.82103 0.08127 0.0
H583 H 0.89394 0.85979 0.05487 0.0
H584 H 0.8695 0.75936 0.95583 0.0
H585 H 0.87127 0.85319 0.89322 0.0
H586 H 0.81318 0.77668 0.05036 0.0
H587 H 0.85275 0.77795 0.07447 0.0
H588 H 0.84231 0.74802 0.02975 0.0
H589 H 0.81949 0.89038 0.97446 0.0
H590 H 0.85337 0.8982 0.93552 0.0
H591 H 0.858 0.89516 1.00145 0.0
C592 C 0.71582 0.36839 0.21039 0.0
C593 C 0.6958 0.37742 0.17149 0.0
C594 C 0.70348 0.35355 0.25272 0.0
C595 C 0.67027 0.34824 0.2565 0.0
C596 C 0.65002 0.35711 0.2171 0.0
C597 C 0.6631 0.37117 0.17481 0.0
C598 C 0.72591 0.34386 0.29355 0.0
C599 C 0.61444 0.35223 0.21992 0.0
C600 C 0.63636 0.2888 0.34833 0.0
C601 C 0.62719 0.3088 0.38713 0.0
C602 C 0.65123 0.30116 0.30606 0.0
C603 C 0.65643 0.33439 0.30222 0.0
C604 C 0.6474 0.35463 0.34151 0.0
C605 C 0.63331 0.34152 0.38375 0.0
C606 C 0.66108 0.27874 0.26535 0.0
C607 C 0.65215 0.39022 0.33861 0.0
H608 H 0.74111 0.37322 0.20789 0.0
H609 H 0.64766 0.37727 0.14422 0.0
H610 H 0.72054 0.35768 0.32737 0.0
H611 H 0.72254 0.31832 0.30264 0.0
H612 H 0.75125 0.3478 0.28355 0.0
H613 H 0.602 0.36064 0.18618 0.0
H614 H 0.609 0.32664 0.22532 0.0
H615 H 0.60467 0.36524 0.25215 0.0
H616 H 0.63162 0.26348 0.35086 0.0
H617 H 0.62709 0.35695 0.41425 0.0
H618 H 0.68661 0.28221 0.25637 0.0
H619 H 0.64729 0.28403 0.23145 0.0
H620 H 0.65723 0.25339 0.27542 0.0
H621 H 0.67773 0.39576 0.33328 0.0
H622 H 0.64367 0.40265 0.37228 0.0
H623 H 0.63915 0.39993 0.3063 0.0
C624 C 0.15722 0.18661 0.42246 0.0
C625 C 0.12421 0.19089 0.41977 0.0
C626 C 0.17136 0.17309 0.46445 0.0
C627 C 0.15193 0.16355 0.5045 0.0
C628 C 0.11851 0.16778 0.50178 0.0
C629 C 0.10504 0.18132 0.45928 0.0
C630 C 0.20703 0.16881 0.46584 0.0
C631 C 0.097 0.15797 0.54371 0.0
C632 C 0.18383 0.10236 0.59534 0.0
C633 C 0.19358 0.12174 0.63447 0.0
C634 C 0.17044 0.11567 0.55259 0.0
C635 C 0.16654 0.14911 0.54925 0.0
C636 C 0.17632 0.16874 0.58888 0.0
C637 C 0.18968 0.15477 0.63112 0.0
C638 C 0.16035 0.09396 0.51111 0.0
C639 C 0.17238 0.20445 0.58686 0.0
H640 H 0.17192 0.19349 0.39137 0.0
H641 H 0.07947 0.18454 0.45688 0.0
H642 H 0.21714 0.18168 0.49793 0.0
H643 H 0.21295 0.14324 0.47056 0.0
H644 H 0.21876 0.17766 0.43178 0.0
H645 H 0.07154 0.16301 0.53583 0.0
H646 H 0.09972 0.13213 0.5511 0.0
H647 H 0.1039 0.17075 0.57786 0.0
H648 H 0.18674 0.07678 0.59827 0.0
H649 H 0.19669 0.16964 0.66192 0.0
H650 H 0.17294 0.10063 0.47666 0.0
H651 H 0.13448 0.0967 0.50408 0.0
H652 H 0.16537 0.06852 0.51928 0.0
H653 H 0.1851 0.21419 0.55434 0.0
H654 H 0.18158 0.21634 0.62053 0.0
H655 H 0.14683 0.21057 0.58252 0.0
C656 C 0.35659 0.89952 0.99314 0.0
C657 C 0.34267 0.8703 0.98099 0.0
C658 C 0.348 0.92744 0.96776 0.0
C659 C 0.32564 0.92572 0.92869 0.0
C660 C 0.31311 0.8958 0.91452 0.0
C661 C 0.3214 0.86852 0.94141 0.0
C662 C 0.36129 0.95894 0.98476 0.0
C663 C 0.28981 0.89276 0.87238 0.0
C664 C 0.26869 0.99348 0.90281 0.0
C665 C 0.28228 0.00773 0.86116 0.0
C666 C 0.28348 0.96779 0.92638 0.0
C667 C 0.31209 0.95527 0.9068 0.0
C668 C 0.3262 0.96981 0.86494 0.0
C669 C 0.31135 0.99636 0.84302 0.0
C670 C 0.26806 0.95367 0.97173 0.0
C671 C 0.3562 0.95656 0.84226 0.0
H672 H 0.37301 0.90073 0.02392 0.0
H673 H 0.31098 0.84574 0.93178 0.0
H674 H 0.37018 0.97297 0.95297 0.0
H675 H 0.34208 0.97304 1.00242 0.0
H676 H 0.38096 0.95589 0.01175 0.0
H677 H 0.28574 0.86754 0.86183 0.0
H678 H 0.26663 0.90335 0.88314 0.0
H679 H 0.29853 0.90598 0.83963 0.0
H680 H 0.24642 0.00265 0.91723 0.0
H681 H 0.32177 0.00745 0.81072 0.0
H682 H 0.28568 0.95172 1.00207 0.0
H683 H 0.25946 0.92928 0.96349 0.0
H684 H 0.24757 0.96808 0.98485 0.0
H685 H 0.37508 0.95406 0.87058 0.0
H686 H 0.36528 0.97178 0.81184 0.0
H687 H 0.35139 0.93242 0.82743 0.0
C688 C 0.49476 0.81565 0.11457 0.0
C689 C 0.49713 0.78382 0.09927 0.0
C690 C 0.52025 0.83074 0.13873 0.0
C691 C 0.5487 0.81358 0.14776 0.0
C692 C 0.55172 0.78197 0.13037 0.0
C693 C 0.52598 0.76753 0.10634 0.0
C694 C 0.51628 0.86458 0.15637 0.0
C695 C 0.58168 0.76283 0.13903 0.0
C696 C 0.62644 0.8532 0.18475 0.0
C697 C 0.62713 0.84732 0.23566 0.0
C698 C 0.60035 0.8437 0.15586 0.0
C699 C 0.57458 0.82756 0.17835 0.0
C700 C 0.57483 0.82227 0.22992 0.0
C701 C 0.60114 0.83212 0.25786 0.0
C702 C 0.60105 0.84965 0.10097 0.0
C703 C 0.54785 0.8051 0.25536 0.0
H704 H 0.47264 0.82849 0.10915 0.0
H705 H 0.52824 0.74303 0.09432 0.0
H706 H 0.5158 0.86499 0.19726 0.0
H707 H 0.53678 0.87932 0.14441 0.0
H708 H 0.49399 0.87562 0.14242 0.0
H709 H 0.58096 0.73927 0.12047 0.0
H710 H 0.60277 0.77609 0.12548 0.0
H711 H 0.58502 0.75891 0.17916 0.0
H712 H 0.64682 0.86391 0.16691 0.0
H713 H 0.60158 0.82746 0.29718 0.0
H714 H 0.57827 0.86036 0.08854 0.0
H715 H 0.60388 0.82669 0.08125 0.0
H716 H 0.6209 0.86564 0.09007 0.0
H717 H 0.52479 0.81652 0.24615 0.0
H718 H 0.55064 0.80483 0.29609 0.0
H719 H 0.54672 0.78013 0.24213 0.0
C720 C 0.7341 0.02904 0.35288 0.0
C721 C 0.71803 0.99988 0.34837 0.0
C722 C 0.72006 0.05505 0.37681 0.0
C723 C 0.68907 0.052 0.39668 0.0
C724 C 0.67202 0.02323 0.39008 0.0
C725 C 0.68671 0.99746 0.366 0.0
C726 C 0.73908 0.08533 0.38285 0.0
C727 C 0.63879 0.01924 0.4103 0.0
C728 C 0.67352 0.1057 0.50643 0.0
C729 C 0.65744 0.13135 0.48463 0.0
C730 C 0.68271 0.07912 0.47857 0.0
C731 C 0.67581 0.07818 0.42749 0.0
C732 C 0.65881 0.10359 0.40547 0.0
C733 C 0.65004 0.13001 0.43423 0.0
C734 C 0.70092 0.05259 0.50349 0.0
C735 C 0.65109 0.10354 0.35111 0.0
H736 H 0.75819 0.03135 0.33902 0.0
H737 H 0.67405 0.97509 0.36257 0.0
H738 H 0.72512 0.1061 0.36976 0.0
H739 H 0.74434 0.08924 0.42248 0.0
H740 H 0.76196 0.0846 0.36235 0.0
H741 H 0.62755 0.99671 0.3978 0.0
H742 H 0.63963 0.01919 0.45119 0.0
H743 H 0.62352 0.03951 0.3989 0.0
H744 H 0.67936 0.10662 0.54534 0.0
H745 H 0.63866 0.1501 0.41658 0.0
H746 H 0.72542 0.05142 0.4883 0.0
H747 H 0.68939 0.02934 0.496 0.0
H748 H 0.70252 0.05593 0.54404 0.0
H749 H 0.67334 0.10636 0.32952 0.0
H750 H 0.63453 0.1231 0.34088 0.0
H751 H 0.64027 0.08051 0.34024 0.0
C752 C 0.4743 0.23037 0.59602 0.0
C753 C 0.50504 0.21729 0.59763 0.0
C754 C 0.44868 0.21548 0.61969 0.0
C755 C 0.45382 0.18673 0.64575 0.0
C756 C 0.48435 0.1724 0.64524 0.0
C757 C 0.50965 0.18784 0.62106 0.0
C758 C 0.41644 0.23145 0.61893 0.0
C759 C 0.49068 0.14166 0.67236 0.0
C760 C 0.39682 0.17576 0.75272 0.0
C761 C 0.37383 0.15552 0.73237 0.0
C762 C 0.42384 0.18475 0.72573 0.0
C763 C 0.4278 0.1735 0.6769 0.0
C764 C 0.4052 0.1522 0.65669 0.0
C765 C 0.37837 0.14357 0.68461 0.0
C766 C 0.4474 0.20746 0.74873 0.0
C767 C 0.40847 0.13984 0.60469 0.0
H768 H 0.47038 0.25295 0.57759 0.0
H769 H 0.53329 0.17752 0.62245 0.0
H770 H 0.39781 0.21433 0.60733 0.0
H771 H 0.41028 0.23968 0.6566 0.0
H772 H 0.4158 0.25229 0.59369 0.0
H773 H 0.51456 0.13175 0.66375 0.0
H774 H 0.48923 0.1459 0.71268 0.0
H775 H 0.47236 0.12365 0.66299 0.0
H776 H 0.39336 0.18508 0.7896 0.0
H777 H 0.36025 0.12876 0.66798 0.0
H778 H 0.44674 0.23056 0.72885 0.0
H779 H 0.47193 0.19792 0.74541 0.0
H780 H 0.44227 0.21193 0.78831 0.0
H781 H 0.4042 0.15954 0.57822 0.0
H782 H 0.39128 0.12043 0.59672 0.0
H783 H 0.43295 0.13088 0.59813 0.0
C784 C 0.85629 0.62781 0.87053 0.0
C785 C 0.84848 0.62907 0.82026 0.0
C786 C 0.84757 0.60157 0.89973 0.0
C787 C 0.83005 0.57633 0.87836 0.0
C788 C 0.82283 0.57711 0.82738 0.0
C789 C 0.83211 0.60346 0.79902 0.0
C790 C 0.85575 0.60164 0.95393 0.0
C791 C 0.80399 0.55079 0.80318 0.0
C792 C 0.81678 0.49641 0.94135 0.0
C793 C 0.78563 0.50005 0.95922 0.0
C794 C 0.83229 0.52155 0.91685 0.0
C795 C 0.81617 0.55085 0.90991 0.0
C796 C 0.78541 0.55513 0.93007 0.0
C797 C 0.77063 0.52979 0.95459 0.0
C798 C 0.8653 0.51631 0.8965 0.0
C799 C 0.76735 0.58598 0.92355 0.0
H800 H 0.86789 0.64787 0.88783 0.0
H801 H 0.82595 0.60431 0.76022 0.0
H802 H 0.83382 0.60561 0.97587 0.0
H803 H 0.86572 0.57827 0.96517 0.0
H804 H 0.87316 0.62058 0.96334 0.0
H805 H 0.80237 0.55383 0.76257 0.0
H806 H 0.81501 0.52734 0.81116 0.0
H807 H 0.77951 0.55035 0.81852 0.0
H808 H 0.82865 0.4736 0.9449 0.0
H809 H 0.74668 0.53305 0.96859 0.0
H810 H 0.88118 0.53629 0.907 0.0
H811 H 0.8643 0.51569 0.85564 0.0
H812 H 0.87596 0.49365 0.90975 0.0
H813 H 0.78195 0.60636 0.93632 0.0
H814 H 0.74445 0.58612 0.94406 0.0
H815 H 0.7622 0.58984 0.88386 0.0
C816 C 0.97303 0.26908 0.20698 0.0
C817 C 0.00254 0.28447 0.21154 0.0
C818 C 0.94727 0.28383 0.18338 0.0
C819 C 0.95095 0.31488 0.16395 0.0
C820 C 0.98001 0.33136 0.17099 0.0
C821 C 0.00553 0.31594 0.19472 0.0
C822 C 0.91666 0.26543 0.1769 0.0
C823 C 0.98467 0.36465 0.15131 0.0
C824 C 0.89836 0.33135 0.0532 0.0
C825 C 0.87271 0.34763 0.07454 0.0
C826 C 0.92463 0.32184 0.08154 0.0
C827 C 0.92526 0.32866 0.13266 0.0
C828 C 0.8999 0.34595 0.15421 0.0
C829 C 0.87379 0.35501 0.12496 0.0
C830 C 0.95112 0.30333 0.05711 0.0
C831 C 0.89963 0.35361 0.20857 0.0
H832 H 0.9703 0.24489 0.2203 0.0
H833 H 0.02817 0.3281 0.19822 0.0
H834 H 0.89609 0.27979 0.18963 0.0
H835 H 0.91291 0.26023 0.13722 0.0
H836 H 0.91682 0.24253 0.19744 0.0
H837 H 0.00714 0.37554 0.16475 0.0
H838 H 0.98532 0.36401 0.11043 0.0
H839 H 0.96443 0.38011 0.16214 0.0
H840 H 0.89765 0.32554 0.01427 0.0
H841 H 0.85368 0.36658 0.14225 0.0
H842 H 0.95182 0.27878 0.07221 0.0
H843 H 0.97446 0.31452 0.06515 0.0
H844 H 0.94809 0.30188 0.01649 0.0
H845 H 0.89606 0.33141 0.23005 0.0
H846 H 0.88039 0.37063 0.21834 0.0
H847 H 0.92282 0.36386 0.22003 0.0
C848 C 0.1886 0.50717 0.43714 0.0
C849 C 0.21927 0.50399 0.4571 0.0
C850 C 0.17367 0.48145 0.4134 0.0
C851 C 0.18973 0.45189 0.40987 0.0
C852 C 0.21995 0.44812 0.4322 0.0
C853 C 0.23436 0.47419 0.45541 0.0
C854 C 0.1414 0.48634 0.39009 0.0
C855 C 0.23776 0.4169 0.42972 0.0
C856 C 0.14753 0.37534 0.37386 0.0
C857 C 0.15685 0.37208 0.32449 0.0
C858 C 0.15698 0.40187 0.40176 0.0
C859 C 0.1763 0.42554 0.37972 0.0
C860 C 0.18497 0.42277 0.32945 0.0
C861 C 0.17532 0.39595 0.30258 0.0
C862 C 0.14753 0.40382 0.45537 0.0
C863 C 0.20542 0.44756 0.30448 0.0
H864 H 0.17673 0.53007 0.4383 0.0
H865 H 0.25793 0.47139 0.47111 0.0
H866 H 0.14366 0.48511 0.34938 0.0
H867 H 0.12482 0.46716 0.40152 0.0
H868 H 0.1308 0.5097 0.40005 0.0
H869 H 0.25986 0.41717 0.45223 0.0
H870 H 0.22239 0.39713 0.44273 0.0
H871 H 0.2443 0.41171 0.39092 0.0
H872 H 0.13413 0.35651 0.39149 0.0
H873 H 0.18261 0.39342 0.26443 0.0
H874 H 0.13742 0.42759 0.46384 0.0
H875 H 0.16893 0.40068 0.47887 0.0
H876 H 0.12982 0.38531 0.46554 0.0
H877 H 0.195 0.4716 0.3097 0.0
H878 H 0.20809 0.44307 0.26434 0.0
H879 H 0.22944 0.44775 0.3215 0.0
C880 C 0.10249 0.67278 0.54459 0.0
C881 C 0.12772 0.65647 0.56702 0.0
C882 C 0.07593 0.68258 0.57202 0.0
C883 C 0.07483 0.67636 0.62333 0.0
C884 C 0.09986 0.65911 0.64594 0.0
C885 C 0.12606 0.64941 0.61748 0.0
C886 C 0.04964 0.70074 0.54643 0.0
C887 C 0.09975 0.65231 0.7006 0.0
C888 C 0.02698 0.73638 0.69673 0.0
C889 C 0.9978 0.72059 0.7029 0.0
C890 C 0.05253 0.72178 0.6724 0.0
C891 C 0.04896 0.69053 0.65375 0.0
C892 C 0.02012 0.67386 0.66172 0.0
C893 C 0.99485 0.68909 0.68624 0.0
C894 C 0.08296 0.74035 0.66497 0.0
C895 C 0.01553 0.64044 0.64264 0.0
H896 H 0.10379 0.67833 0.50559 0.0
H897 H 0.14592 0.63771 0.63537 0.0
H898 H 0.0262 0.68989 0.55489 0.0
H899 H 0.04908 0.7256 0.56019 0.0
H900 H 0.05282 0.7013 0.50577 0.0
H901 H 0.11913 0.63573 0.7115 0.0
H902 H 0.10281 0.6749 0.72123 0.0
H903 H 0.07661 0.64194 0.71197 0.0
H904 H 0.02966 0.76063 0.70974 0.0
H905 H 0.97246 0.67664 0.69092 0.0
H906 H 0.08665 0.74485 0.62506 0.0
H907 H 0.10365 0.72638 0.67832 0.0
H908 H 0.08262 0.7636 0.68445 0.0
H909 H 0.01556 0.64069 0.60173 0.0
H910 H 0.99281 0.62976 0.65549 0.0
H911 H 0.03551 0.62497 0.65461 0.0
loop_
_geom_bond_atom_site_label_1
_geom_bond_atom_site_label_2
_geom_bond_distance
_geom_bond_site_symmetry_2
_ccdc_geom_bond_type
Co0 O3 1.970 . S
Co0 N17 1.989 1_554 S
Co0 O25 1.967 . S
Co0 O32 1.920 . S
Co1 O4 1.966 . S
Co1 N10 2.022 . S
Co1 N18 1.993 1_554 S
Co1 O26 1.941 . S
C2 O3 1.258 . S
C2 O4 1.263 . S
O3 Co0 1.970 . S
O3 C2 1.258 . S
O4 Co1 1.966 . S
O4 C2 1.263 . S
C5 O6 1.235 . S
C5 O32 1.289 . S
O6 C5 1.235 . S
C7 C9 1.400 . S
C7 N10 1.351 . S
C7 C12 1.501 . S
C8 C9 1.387 . S
C8 N11 1.341 . S
C9 C7 1.400 . S
C9 C8 1.387 . S
N10 Co1 2.022 . S
N10 C7 1.351 . S
N10 N11 1.365 . S
N11 C8 1.341 . S
N11 N10 1.365 . S
N11 H31 0.862 . S
C12 C7 1.501 . S
C12 H13 0.961 . S
C12 H14 0.961 1_554 S
C12 H15 0.960 . S
H13 C12 0.961 . S
H14 C12 0.961 1_556 S
H15 C12 0.960 . S
C16 N17 1.342 . S
C16 C20 1.401 . S
C16 C21 1.499 . S
N17 Co0 1.989 1_556 S
N17 C16 1.342 . S
N17 N18 1.388 . S
N18 Co1 1.993 1_556 S
N18 N17 1.388 . S
N18 C19 1.346 . S
C19 N18 1.346 . S
C19 C20 1.396 . S
C19 C29 1.510 . S
C20 C16 1.401 . S
C20 C19 1.396 . S
C21 C16 1.499 . S
C21 H22 0.959 . S
C21 H23 0.960 . S
C21 H24 0.961 . S
H22 C21 0.959 . S
H23 C21 0.960 . S
H24 C21 0.961 . S
O25 Co0 1.967 . S
O25 C33 1.258 . S
O26 Co1 1.941 . S
O26 C33 1.266 . S
H27 C29 0.959 . S
H28 C29 0.961 . S
C29 C19 1.510 . S
C29 H27 0.959 . S
C29 H28 0.961 . S
C29 H30 0.960 . S
H30 C29 0.960 . S
H31 N11 0.862 . S
O32 Co0 1.920 . S
O32 C5 1.289 . S
C33 O25 1.258 . S
C33 O26 1.266 . S
Co34 O37 1.970 . S
Co34 N51 1.989 . S
Co34 O59 1.967 . S
Co34 O66 1.920 . S
Co35 O38 1.966 . S
Co35 N44 2.022 . S
Co35 N52 1.993 . S
Co35 O60 1.941 . S
C36 O37 1.258 . S
C36 O38 1.263 . S
O37 Co34 1.970 . S
O37 C36 1.258 . S
O38 Co35 1.966 . S
O38 C36 1.263 . S
C39 O40 1.235 . S
C39 O66 1.289 . S
O40 C39 1.235 . S
C41 C43 1.400 . S
C41 N44 1.351 . S
C41 C46 1.501 . S
C42 C43 1.387 . S
C42 N45 1.341 . S
C43 C41 1.400 . S
C43 C42 1.387 . S
N44 Co35 2.022 . S
N44 C41 1.351 . S
N44 N45 1.365 . S
N45 C42 1.341 . S
N45 N44 1.365 . S
N45 H65 0.862 . S
C46 C41 1.501 . S
C46 H47 0.961 . S
C46 H48 0.961 . S
C46 H49 0.960 . S
H47 C46 0.961 . S
H48 C46 0.961 . S
H49 C46 0.960 . S
C50 N51 1.342 . S
C50 C54 1.401 . S
C50 C55 1.499 . S
N51 Co34 1.989 . S
N51 C50 1.342 . S
N51 N52 1.388 . S
N52 Co35 1.993 . S
N52 N51 1.388 . S
N52 C53 1.346 . S
C53 N52 1.346 . S
C53 C54 1.396 . S
C53 C63 1.510 . S
C54 C50 1.401 . S
C54 C53 1.396 . S
C55 C50 1.499 . S
C55 H56 0.959 . S
C55 H57 0.960 . S
C55 H58 0.961 . S
H56 C55 0.959 . S
H57 C55 0.960 . S
H58 C55 0.961 . S
O59 Co34 1.967 . S
O59 C67 1.258 . S
O60 Co35 1.941 . S
O60 C67 1.266 . S
H61 C63 0.959 . S
H62 C63 0.961 . S
C63 C53 1.510 . S
C63 H61 0.959 . S
C63 H62 0.961 . S
C63 H64 0.960 . S
H64 C63 0.960 . S
H65 N45 0.862 . S
O66 Co34 1.920 . S
O66 C39 1.289 . S
C67 O59 1.258 . S
C67 O60 1.266 . S
Co68 O71 1.970 . S
Co68 N85 1.989 . S
Co68 O93 1.967 . S
Co68 O100 1.920 . S
Co69 O72 1.966 . S
Co69 N78 2.022 . S
Co69 N86 1.993 . S
Co69 O94 1.941 . S
C70 O71 1.258 . S
C70 O72 1.263 . S
O71 Co68 1.970 . S
O71 C70 1.258 . S
O72 Co69 1.966 . S
O72 C70 1.263 . S
C73 O74 1.235 . S
C73 O100 1.289 . S
O74 C73 1.235 . S
C75 C77 1.400 . S
C75 N78 1.351 . S
C75 C80 1.501 . S
C76 C77 1.387 . S
C76 N79 1.341 . S
C77 C75 1.400 . S
C77 C76 1.387 . S
N78 Co69 2.022 . S
N78 C75 1.351 . S
N78 N79 1.365 . S
N79 C76 1.341 . S
N79 N78 1.365 . S
N79 H99 0.862 . S
C80 C75 1.501 . S
C80 H81 0.961 . S
C80 H82 0.961 . S
C80 H83 0.960 . S
H81 C80 0.961 . S
H82 C80 0.961 . S
H83 C80 0.960 . S
C84 N85 1.342 . S
C84 C88 1.401 . S
C84 C89 1.499 . S
N85 Co68 1.989 . S
N85 C84 1.342 . S
N85 N86 1.388 . S
N86 Co69 1.993 . S
N86 N85 1.388 . S
N86 C87 1.346 . S
C87 N86 1.346 . S
C87 C88 1.396 . S
C87 C97 1.510 . S
C88 C84 1.401 . S
C88 C87 1.396 . S
C89 C84 1.499 . S
C89 H90 0.959 . S
C89 H91 0.960 . S
C89 H92 0.961 . S
H90 C89 0.959 . S
H91 C89 0.960 . S
H92 C89 0.961 . S
O93 Co68 1.967 . S
O93 C101 1.258 . S
O94 Co69 1.941 . S
O94 C101 1.266 . S
H95 C97 0.959 . S
H96 C97 0.961 . S
C97 C87 1.510 . S
C97 H95 0.959 . S
C97 H96 0.961 . S
C97 H98 0.960 . S
H98 C97 0.960 . S
H99 N79 0.862 . S
O100 Co68 1.920 . S
O100 C73 1.289 . S
C101 O93 1.258 . S
C101 O94 1.266 . S
Co102 O105 1.970 . S
Co102 N119 1.989 . S
Co102 O127 1.967 . S
Co102 O134 1.920 . S
Co103 O106 1.966 . S
Co103 N112 2.022 . S
Co103 N120 1.993 . S
Co103 O128 1.941 . S
C104 O105 1.258 . S
C104 O106 1.263 . S
O105 Co102 1.970 . S
O105 C104 1.258 . S
O106 Co103 1.966 . S
O106 C104 1.263 . S
C107 O108 1.235 . S
C107 O134 1.289 . S
O108 C107 1.235 . S
C109 C111 1.400 . S
C109 N112 1.351 . S
C109 C114 1.501 . S
C110 C111 1.387 . S
C110 N113 1.341 . S
C111 C109 1.400 . S
C111 C110 1.387 . S
N112 Co103 2.022 . S
N112 C109 1.351 . S
N112 N113 1.365 . S
N113 C110 1.341 . S
N113 N112 1.365 . S
N113 H133 0.862 . S
C114 C109 1.501 . S
C114 H115 0.961 . S
C114 H116 0.961 . S
C114 H117 0.960 . S
H115 C114 0.961 . S
H116 C114 0.961 . S
H117 C114 0.960 . S
C118 N119 1.342 . S
C118 C122 1.401 . S
C118 C123 1.499 . S
N119 Co102 1.989 . S
N119 C118 1.342 . S
N119 N120 1.388 . S
N120 Co103 1.993 . S
N120 N119 1.388 . S
N120 C121 1.346 . S
C121 N120 1.346 . S
C121 C122 1.396 . S
C121 C131 1.510 . S
C122 C118 1.401 . S
C122 C121 1.396 . S
C123 C118 1.499 . S
C123 H124 0.959 . S
C123 H125 0.960 . S
C123 H126 0.961 . S
H124 C123 0.959 . S
H125 C123 0.960 . S
H126 C123 0.961 . S
O127 Co102 1.967 . S
O127 C135 1.258 . S
O128 Co103 1.941 . S
O128 C135 1.266 . S
H129 C131 0.959 . S
H130 C131 0.961 . S
C131 C121 1.510 . S
C131 H129 0.959 . S
C131 H130 0.961 . S
C131 H132 0.960 . S
H132 C131 0.960 . S
H133 N113 0.862 . S
O134 Co102 1.920 . S
O134 C107 1.289 . S
C135 O127 1.258 . S
C135 O128 1.266 . S
Co136 O139 1.970 . S
Co136 N153 1.989 . S
Co136 O161 1.967 . S
Co136 O168 1.920 . S
Co137 O140 1.966 . S
Co137 N146 2.022 . S
Co137 N154 1.993 . S
Co137 O162 1.941 . S
C138 O139 1.258 . S
C138 O140 1.263 . S
O139 Co136 1.970 . S
O139 C138 1.258 . S
O140 Co137 1.966 . S
O140 C138 1.263 . S
C141 O142 1.235 . S
C141 O168 1.289 . S
O142 C141 1.235 . S
C143 C145 1.400 . S
C143 N146 1.351 . S
C143 C148 1.501 . S
C144 C145 1.387 . S
C144 N147 1.341 . S
C145 C143 1.400 . S
C145 C144 1.387 . S
N146 Co137 2.022 . S
N146 C143 1.351 . S
N146 N147 1.365 . S
N147 C144 1.341 . S
N147 N146 1.365 . S
N147 H167 0.862 . S
C148 C143 1.501 . S
C148 H149 0.961 . S
C148 H150 0.961 . S
C148 H151 0.960 . S
H149 C148 0.961 . S
H150 C148 0.961 . S
H151 C148 0.960 . S
C152 N153 1.342 . S
C152 C156 1.401 . S
C152 C157 1.499 . S
N153 Co136 1.989 . S
N153 C152 1.342 . S
N153 N154 1.388 . S
N154 Co137 1.993 . S
N154 N153 1.388 . S
N154 C155 1.346 . S
C155 N154 1.346 . S
C155 C156 1.396 . S
C155 C165 1.510 . S
C156 C152 1.401 . S
C156 C155 1.396 . S
C157 C152 1.499 . S
C157 H158 0.959 . S
C157 H159 0.960 . S
C157 H160 0.961 . S
H158 C157 0.959 . S
H159 C157 0.960 . S
H160 C157 0.961 . S
O161 Co136 1.967 . S
O161 C169 1.258 . S
O162 Co137 1.941 . S
O162 C169 1.266 . S
H163 C165 0.959 . S
H164 C165 0.961 . S
C165 C155 1.510 . S
C165 H163 0.959 . S
C165 H164 0.961 . S
C165 H166 0.960 . S
H166 C165 0.960 . S
H167 N147 0.862 . S
O168 Co136 1.920 . S
O168 C141 1.289 . S
C169 O161 1.258 . S
C169 O162 1.266 . S
Co170 O173 1.970 . S
Co170 N187 1.989 1_556 S
Co170 O195 1.967 . S
Co170 O202 1.920 . S
Co171 O174 1.966 . S
Co171 N180 2.022 1_556 S
Co171 N188 1.993 1_556 S
Co171 O196 1.941 . S
C172 O173 1.258 . S
C172 O174 1.263 . S
O173 Co170 1.970 . S
O173 C172 1.258 . S
O174 Co171 1.966 . S
O174 C172 1.263 . S
C175 O176 1.235 . S
C175 O202 1.289 1_554 S
O176 C175 1.235 . S
C177 C179 1.400 . S
C177 N180 1.351 . S
C177 C182 1.501 . S
C178 C179 1.387 . S
C178 N181 1.341 . S
C179 C177 1.400 . S
C179 C178 1.387 . S
N180 Co171 2.022 1_554 S
N180 C177 1.351 . S
N180 N181 1.365 . S
N181 C178 1.341 . S
N181 N180 1.365 . S
N181 H201 0.862 . S
C182 C177 1.501 . S
C182 H183 0.961 . S
C182 H184 0.961 . S
C182 H185 0.960 . S
H183 C182 0.961 . S
H184 C182 0.961 . S
H185 C182 0.960 . S
C186 N187 1.342 . S
C186 C190 1.401 . S
C186 C191 1.499 . S
N187 Co170 1.989 1_554 S
N187 C186 1.342 . S
N187 N188 1.388 . S
N188 Co171 1.993 1_554 S
N188 N187 1.388 . S
N188 C189 1.346 . S
C189 N188 1.346 . S
C189 C190 1.396 . S
C189 C199 1.510 . S
C190 C186 1.401 . S
C190 C189 1.396 . S
C191 C186 1.499 . S
C191 H192 0.959 . S
C191 H193 0.960 . S
C191 H194 0.961 . S
H192 C191 0.959 . S
H193 C191 0.960 . S
H194 C191 0.961 . S
O195 Co170 1.967 . S
O195 C203 1.258 . S
O196 Co171 1.941 . S
O196 C203 1.266 . S
H197 C199 0.959 . S
H198 C199 0.961 . S
C199 C189 1.510 . S
C199 H197 0.959 . S
C199 H198 0.961 . S
C199 H200 0.960 . S
H200 C199 0.960 . S
H201 N181 0.862 . S
O202 Co170 1.920 . S
O202 C175 1.289 1_556 S
C203 O195 1.258 . S
C203 O196 1.266 . S
Co204 O207 1.970 . S
Co204 N221 1.989 . S
Co204 O229 1.967 . S
Co204 O236 1.920 . S
Co205 O208 1.966 . S
Co205 N214 2.022 . S
Co205 N222 1.993 . S
Co205 O230 1.941 . S
C206 O207 1.258 . S
C206 O208 1.263 . S
O207 Co204 1.970 . S
O207 C206 1.258 . S
O208 Co205 1.966 . S
O208 C206 1.263 . S
C209 O210 1.235 . S
C209 O236 1.289 . S
O210 C209 1.235 . S
C211 C213 1.400 . S
C211 N214 1.351 . S
C211 C216 1.501 . S
C212 C213 1.387 . S
C212 N215 1.341 . S
C213 C211 1.400 . S
C213 C212 1.387 . S
N214 Co205 2.022 . S
N214 C211 1.351 . S
N214 N215 1.365 . S
N215 C212 1.341 . S
N215 N214 1.365 . S
N215 H235 0.862 . S
C216 C211 1.501 . S
C216 H217 0.961 . S
C216 H218 0.961 . S
C216 H219 0.960 . S
H217 C216 0.961 . S
H218 C216 0.961 . S
H219 C216 0.960 . S
C220 N221 1.342 . S
C220 C224 1.401 . S
C220 C225 1.499 . S
N221 Co204 1.989 . S
N221 C220 1.342 . S
N221 N222 1.388 . S
N222 Co205 1.993 . S
N222 N221 1.388 . S
N222 C223 1.346 . S
C223 N222 1.346 . S
C223 C224 1.396 . S
C223 C233 1.510 . S
C224 C220 1.401 . S
C224 C223 1.396 . S
C225 C220 1.499 . S
C225 H226 0.959 . S
C225 H227 0.960 . S
C225 H228 0.961 . S
H226 C225 0.959 . S
H227 C225 0.960 . S
H228 C225 0.961 . S
O229 Co204 1.967 . S
O229 C237 1.258 . S
O230 Co205 1.941 . S
O230 C237 1.266 . S
H231 C233 0.959 . S
H232 C233 0.961 . S
C233 C223 1.510 . S
C233 H231 0.959 . S
C233 H232 0.961 . S
C233 H234 0.960 . S
H234 C233 0.960 . S
H235 N215 0.862 . S
O236 Co204 1.920 . S
O236 C209 1.289 . S
C237 O229 1.258 . S
C237 O230 1.266 . S
Co238 O241 1.970 . S
Co238 N255 1.989 . S
Co238 O263 1.967 . S
Co238 O270 1.920 . S
Co239 O242 1.966 . S
Co239 N248 2.022 . S
Co239 N256 1.993 . S
Co239 O264 1.941 . S
C240 O241 1.258 . S
C240 O242 1.263 . S
O241 Co238 1.970 . S
O241 C240 1.258 . S
O242 Co239 1.966 . S
O242 C240 1.263 . S
C243 O244 1.235 . S
C243 O270 1.289 . S
O244 C243 1.235 . S
C245 C247 1.400 . S
C245 N248 1.351 . S
C245 C250 1.501 . S
C246 C247 1.387 . S
C246 N249 1.341 . S
C247 C245 1.400 . S
C247 C246 1.387 . S
N248 Co239 2.022 . S
N248 C245 1.351 . S
N248 N249 1.365 . S
N249 C246 1.341 . S
N249 N248 1.365 . S
N249 H269 0.862 . S
C250 C245 1.501 . S
C250 H251 0.961 . S
C250 H252 0.961 . S
C250 H253 0.960 . S
H251 C250 0.961 . S
H252 C250 0.961 . S
H253 C250 0.960 . S
C254 N255 1.342 . S
C254 C258 1.401 . S
C254 C259 1.499 . S
N255 Co238 1.989 . S
N255 C254 1.342 . S
N255 N256 1.388 . S
N256 Co239 1.993 . S
N256 N255 1.388 . S
N256 C257 1.346 . S
C257 N256 1.346 . S
C257 C258 1.396 . S
C257 C267 1.510 . S
C258 C254 1.401 . S
C258 C257 1.396 . S
C259 C254 1.499 . S
C259 H260 0.959 . S
C259 H261 0.960 . S
C259 H262 0.961 . S
H260 C259 0.959 . S
H261 C259 0.960 . S
H262 C259 0.961 . S
O263 Co238 1.967 . S
O263 C271 1.258 . S
O264 Co239 1.941 . S
O264 C271 1.266 . S
H265 C267 0.959 . S
H266 C267 0.961 . S
C267 C257 1.510 . S
C267 H265 0.959 . S
C267 H266 0.961 . S
C267 H268 0.960 . S
H268 C267 0.960 . S
H269 N249 0.862 . S
O270 Co238 1.920 . S
O270 C243 1.289 . S
C271 O263 1.258 . S
C271 O264 1.266 . S
C272 C273 1.391 . S
C272 C274 1.394 . S
C272 H288 0.931 . S
C273 C272 1.391 . S
C273 C277 1.376 1_554 S
C274 C272 1.394 . S
C274 C275 1.369 . S
C274 C278 1.531 . S
C275 C274 1.369 . S
C275 C276 1.410 1_554 S
C275 C283 1.503 . S
C276 C275 1.410 1_556 S
C276 C277 1.392 . S
C276 C279 1.511 . S
C277 C273 1.376 1_556 S
C277 C276 1.392 . S
C277 H289 0.929 . S
C278 C274 1.531 . S
C278 H290 0.960 . S
C278 H291 0.962 . S
C278 H292 0.960 . S
C279 C276 1.511 . S
C279 H293 0.961 . S
C279 H294 0.961 . S
C279 H295 0.961 . S
C280 C281 1.370 . S
C280 C282 1.363 . S
C280 H296 0.925 1_554 S
C281 C280 1.370 . S
C281 C285 1.408 . S
C282 C280 1.363 . S
C282 C283 1.370 . S
C282 C286 1.524 1_554 S
C283 C275 1.503 . S
C283 C282 1.370 . S
C283 C284 1.403 . S
C284 C283 1.403 . S
C284 C285 1.404 . S
C284 C287 1.539 . S
C285 C281 1.408 . S
C285 C284 1.404 . S
C285 H297 0.930 . S
C286 C282 1.524 1_556 S
C286 H298 0.968 . S
C286 H299 0.961 . S
C286 H300 0.961 . S
C287 C284 1.539 . S
C287 H301 0.958 . S
C287 H302 0.961 . S
C287 H303 0.960 . S
H288 C272 0.931 . S
H289 C277 0.929 . S
H290 C278 0.960 . S
H291 C278 0.962 . S
H292 C278 0.960 . S
H293 C279 0.961 . S
H294 C279 0.961 . S
H295 C279 0.961 . S
H296 C280 0.925 1_556 S
H297 C285 0.930 . S
H298 C286 0.968 . S
H299 C286 0.961 . S
H300 C286 0.961 . S
H301 C287 0.958 . S
H302 C287 0.961 . S
H303 C287 0.960 . S
C304 C305 1.391 . S
C304 C306 1.394 . S
C304 H320 0.931 1_655 S
C305 C304 1.391 . S
C305 C309 1.376 . S
C306 C304 1.394 . S
C306 C307 1.369 . S
C306 C310 1.531 . S
C307 C306 1.369 . S
C307 C308 1.410 . S
C307 C315 1.503 . S
C308 C307 1.410 . S
C308 C309 1.392 . S
C308 C311 1.511 . S
C309 C305 1.376 . S
C309 C308 1.392 . S
C309 H321 0.929 . S
C310 C306 1.531 . S
C310 H322 0.960 . S
C310 H323 0.962 . S
C310 H324 0.960 . S
C311 C308 1.511 . S
C311 H325 0.961 . S
C311 H326 0.961 . S
C311 H327 0.961 . S
C312 C313 1.370 . S
C312 C314 1.363 . S
C312 H328 0.931 1_545 S
C313 C312 1.370 . S
C313 C317 1.408 . S
C314 C312 1.363 . S
C314 C315 1.370 . S
C314 C318 1.524 . S
C315 C307 1.503 . S
C315 C314 1.370 . S
C315 C316 1.403 . S
C316 C315 1.403 . S
C316 C317 1.404 . S
C316 C319 1.539 . S
C317 C313 1.408 . S
C317 C316 1.404 . S
C317 H329 0.930 . S
C318 C314 1.524 . S
C318 H330 0.956 . S
C318 H331 0.961 . S
C318 H332 0.933 1_545 S
C319 C316 1.539 . S
C319 H333 0.958 . S
C319 H334 0.961 . S
C319 H335 0.960 . S
H320 C304 0.931 1_455 S
H321 C309 0.929 . S
H322 C310 0.960 . S
H323 C310 0.962 . S
H324 C310 0.960 . S
H325 C311 0.961 . S
H326 C311 0.961 . S
H327 C311 0.961 . S
H328 C312 0.931 1_565 S
H329 C317 0.930 . S
H330 C318 0.956 . S
H331 C318 0.961 . S
H332 C318 0.933 1_565 S
H333 C319 0.958 . S
H334 C319 0.961 . S
H335 C319 0.960 . S
C336 C337 1.391 . S
C336 C338 1.394 . S
C336 H352 0.931 . S
C337 C336 1.391 . S
C337 C341 1.376 . S
C338 C336 1.394 . S
C338 C339 1.369 . S
C338 C342 1.531 . S
C339 C338 1.369 . S
C339 C340 1.410 . S
C339 C347 1.503 . S
C340 C339 1.410 . S
C340 C341 1.392 . S
C340 C343 1.511 . S
C341 C337 1.376 . S
C341 C340 1.392 . S
C341 H353 0.929 . S
C342 C338 1.531 . S
C342 H354 0.960 . S
C342 H355 0.962 . S
C342 H356 0.960 . S
C343 C340 1.511 . S
C343 H357 0.961 . S
C343 H358 0.961 . S
C343 H359 0.961 . S
C344 C345 1.370 . S
C344 C346 1.363 . S
C344 H360 0.931 . S
C345 C344 1.370 . S
C345 C349 1.408 . S
C346 C344 1.363 . S
C346 C347 1.370 . S
C346 C350 1.524 . S
C347 C339 1.503 . S
C347 C346 1.370 . S
C347 C348 1.403 . S
C348 C347 1.403 . S
C348 C349 1.404 . S
C348 C351 1.539 . S
C349 C345 1.408 . S
C349 C348 1.404 . S
C349 H361 0.930 . S
C350 C346 1.524 . S
C350 H362 0.956 . S
C350 H363 0.961 . S
C350 H364 0.961 . S
C351 C348 1.539 . S
C351 H365 0.958 . S
C351 H366 0.961 . S
C351 H367 0.960 . S
H352 C336 0.931 . S
H353 C341 0.929 . S
H354 C342 0.960 . S
H355 C342 0.962 . S
H356 C342 0.960 . S
H357 C343 0.961 . S
H358 C343 0.961 . S
H359 C343 0.961 . S
H360 C344 0.931 . S
H361 C349 0.930 . S
H362 C350 0.956 . S
H363 C350 0.961 . S
H364 C350 0.961 . S
H365 C351 0.958 . S
H366 C351 0.961 . S
H367 C351 0.960 . S
C368 C369 1.391 . S
C368 C370 1.394 . S
C368 H384 0.931 . S
C369 C368 1.391 . S
C369 C373 1.376 . S
C370 C368 1.394 . S
C370 C371 1.369 . S
C370 C374 1.531 . S
C371 C370 1.369 . S
C371 C372 1.410 . S
C371 C379 1.503 . S
C372 C371 1.410 . S
C372 C373 1.392 . S
C372 C375 1.511 . S
C373 C369 1.376 . S
C373 C372 1.392 . S
C373 H385 0.929 . S
C374 C370 1.531 . S
C374 H386 0.960 . S
C374 H387 0.962 . S
C374 H388 0.960 . S
C375 C372 1.511 . S
C375 H389 0.961 . S
C375 H390 0.961 . S
C375 H391 0.961 . S
C376 C377 1.370 . S
C376 C378 1.363 . S
C376 H392 0.931 1_565 S
C377 C376 1.370 . S
C377 C381 1.408 . S
C378 C376 1.363 . S
C378 C379 1.370 . S
C378 C382 1.524 . S
C379 C371 1.503 . S
C379 C378 1.370 . S
C379 C380 1.403 . S
C380 C379 1.403 . S
C380 C381 1.404 . S
C380 C383 1.539 . S
C381 C377 1.408 . S
C381 C380 1.404 . S
C381 H393 0.930 . S
C382 C378 1.524 . S
C382 H394 0.956 . S
C382 H395 0.961 . S
C382 H396 0.961 1_565 S
C383 C380 1.539 . S
C383 H397 0.958 . S
C383 H398 0.961 . S
C383 H399 0.960 . S
H384 C368 0.931 . S
H385 C373 0.929 . S
H386 C374 0.960 . S
H387 C374 0.962 . S
H388 C374 0.960 . S
H389 C375 0.961 . S
H390 C375 0.961 . S
H391 C375 0.961 . S
H392 C376 0.931 1_545 S
H393 C381 0.930 . S
H394 C382 0.956 . S
H395 C382 0.961 . S
H396 C382 0.961 1_545 S
H397 C383 0.958 . S
H398 C383 0.961 . S
H399 C383 0.960 . S
C400 C401 1.391 . S
C400 C402 1.394 . S
C400 H416 0.931 . S
C401 C400 1.391 . S
C401 C405 1.376 . S
C402 C400 1.394 . S
C402 C403 1.369 . S
C402 C406 1.531 . S
C403 C402 1.369 . S
C403 C404 1.410 . S
C403 C411 1.503 . S
C404 C403 1.410 . S
C404 C405 1.392 . S
C404 C407 1.511 . S
C405 C401 1.376 . S
C405 C404 1.392 . S
C405 H417 0.929 . S
C406 C402 1.531 . S
C406 H418 0.960 . S
C406 H419 0.962 . S
C406 H420 0.960 . S
C407 C404 1.511 . S
C407 H421 0.961 . S
C407 H422 0.961 . S
C407 H423 0.961 . S
C408 C409 1.370 . S
C408 C410 1.363 . S
C408 H424 0.931 . S
C409 C408 1.370 . S
C409 C413 1.408 . S
C410 C408 1.363 . S
C410 C411 1.370 . S
C410 C414 1.524 . S
C411 C403 1.503 . S
C411 C410 1.370 . S
C411 C412 1.403 . S
C412 C411 1.403 . S
C412 C413 1.404 . S
C412 C415 1.539 . S
C413 C409 1.408 . S
C413 C412 1.404 . S
C413 H425 0.930 . S
C414 C410 1.524 . S
C414 H426 0.956 . S
C414 H427 0.961 . S
C414 H428 0.961 . S
C415 C412 1.539 . S
C415 H429 0.958 . S
C415 H430 0.961 . S
C415 H431 0.960 . S
H416 C400 0.931 . S
H417 C405 0.929 . S
H418 C406 0.960 . S
H419 C406 0.962 . S
H420 C406 0.960 . S
H421 C407 0.961 . S
H422 C407 0.961 . S
H423 C407 0.961 . S
H424 C408 0.931 . S
H425 C413 0.930 . S
H426 C414 0.956 . S
H427 C414 0.961 . S
H428 C414 0.961 . S
H429 C415 0.958 . S
H430 C415 0.961 . S
H431 C415 0.960 . S
C432 C433 1.391 . S
C432 C434 1.394 . S
C432 H448 0.931 . S
C433 C432 1.391 . S
C433 C437 1.376 . S
C434 C432 1.394 . S
C434 C435 1.369 . S
C434 C438 1.531 . S
C435 C434 1.369 . S
C435 C436 1.410 . S
C435 C443 1.503 . S
C436 C435 1.410 . S
C436 C437 1.392 . S
C436 C439 1.511 . S
C437 C433 1.376 . S
C437 C436 1.392 . S
C437 H449 0.929 . S
C438 C434 1.531 . S
C438 H450 0.960 . S
C438 H451 0.962 . S
C438 H452 0.960 . S
C439 C436 1.511 . S
C439 H453 0.961 . S
C439 H454 0.961 . S
C439 H455 0.961 . S
C440 C441 1.370 . S
C440 C442 1.363 . S
C440 H456 0.931 . S
C441 C440 1.370 . S
C441 C445 1.408 . S
C442 C440 1.363 . S
C442 C443 1.370 . S
C442 C446 1.524 . S
C443 C435 1.503 . S
C443 C442 1.370 . S
C443 C444 1.403 . S
C444 C443 1.403 . S
C444 C445 1.404 . S
C444 C447 1.539 . S
C445 C441 1.408 . S
C445 C444 1.404 . S
C445 H457 0.930 . S
C446 C442 1.524 . S
C446 H458 0.956 . S
C446 H459 0.961 . S
C446 H460 0.961 . S
C447 C444 1.539 . S
C447 H461 0.958 . S
C447 H462 0.961 . S
C447 H463 0.960 . S
H448 C432 0.931 . S
H449 C437 0.929 . S
H450 C438 0.960 . S
H451 C438 0.962 . S
H452 C438 0.960 . S
H453 C439 0.961 . S
H454 C439 0.961 . S
H455 C439 0.961 . S
H456 C440 0.931 . S
H457 C445 0.930 . S
H458 C446 0.956 . S
H459 C446 0.961 . S
H460 C446 0.961 . S
H461 C447 0.958 . S
H462 C447 0.961 . S
H463 C447 0.960 . S
C464 C465 1.391 . S
C464 C466 1.394 . S
C464 H480 0.931 . S
C465 C464 1.391 . S
C465 C469 1.376 . S
C466 C464 1.394 . S
C466 C467 1.369 . S
C466 C470 1.531 . S
C467 C466 1.369 . S
C467 C468 1.410 . S
C467 C475 1.503 . S
C468 C467 1.410 . S
C468 C469 1.392 . S
C468 C471 1.511 . S
C469 C465 1.376 . S
C469 C468 1.392 . S
C469 H481 0.929 . S
C470 C466 1.531 . S
C470 H482 0.960 . S
C470 H483 0.962 . S
C470 H484 0.960 . S
C471 C468 1.511 . S
C471 H485 0.961 . S
C471 H486 0.961 . S
C471 H487 0.961 . S
C472 C473 1.370 . S
C472 C474 1.363 . S
C472 H488 0.931 . S
C473 C472 1.370 . S
C473 C477 1.408 . S
C474 C472 1.363 . S
C474 C475 1.370 . S
C474 C478 1.524 . S
C475 C467 1.503 . S
C475 C474 1.370 . S
C475 C476 1.403 . S
C476 C475 1.403 . S
C476 C477 1.404 . S
C476 C479 1.539 . S
C477 C473 1.408 . S
C477 C476 1.404 . S
C477 H489 0.930 . S
C478 C474 1.524 . S
C478 H490 0.956 . S
C478 H491 0.961 . S
C478 H492 0.961 . S
C479 C476 1.539 . S
C479 H493 0.958 . S
C479 H494 0.961 . S
C479 H495 0.960 . S
H480 C464 0.931 . S
H481 C469 0.929 . S
H482 C470 0.960 . S
H483 C470 0.962 . S
H484 C470 0.960 . S
H485 C471 0.961 . S
H486 C471 0.961 . S
H487 C471 0.961 . S
H488 C472 0.931 . S
H489 C477 0.930 . S
H490 C478 0.956 . S
H491 C478 0.961 . S
H492 C478 0.961 . S
H493 C479 0.958 . S
H494 C479 0.961 . S
H495 C479 0.960 . S
C496 C497 1.391 . S
C496 C498 1.394 . S
C496 H512 0.931 . S
C497 C496 1.391 . S
C497 C501 1.376 . S
C498 C496 1.394 . S
C498 C499 1.355 1_556 S
C498 C502 1.531 . S
C499 C498 1.355 1_554 S
C499 C500 1.412 . S
C499 C507 1.516 . S
C500 C499 1.412 . S
C500 C501 1.392 1_554 S
C500 C503 1.511 . S
C501 C497 1.376 . S
C501 C500 1.392 1_556 S
C501 H513 0.929 . S
C502 C498 1.531 . S
C502 H514 0.960 . S
C502 H515 0.962 . S
C502 H516 0.960 . S
C503 C500 1.511 . S
C503 H517 0.961 . S
C503 H518 0.961 . S
C503 H519 0.961 . S
C504 C505 1.370 . S
C504 C506 1.363 . S
C504 H520 0.931 . S
C505 C504 1.370 . S
C505 C509 1.408 . S
C506 C504 1.363 . S
C506 C507 1.370 . S
C506 C510 1.524 . S
C507 C499 1.516 . S
C507 C506 1.370 . S
C507 C508 1.403 . S
C508 C507 1.403 . S
C508 C509 1.404 . S
C508 C511 1.539 . S
C509 C505 1.408 . S
C509 C508 1.404 . S
C509 H521 0.930 . S
C510 C506 1.524 . S
C510 H522 0.956 . S
C510 H523 0.961 . S
C510 H524 0.961 . S
C511 C508 1.539 . S
C511 H525 0.958 1_554 S
C511 H526 0.961 . S
C511 H527 0.960 . S
H512 C496 0.931 . S
H513 C501 0.929 . S
H514 C502 0.960 . S
H515 C502 0.962 . S
H516 C502 0.960 . S
H517 C503 0.961 . S
H518 C503 0.961 . S
H519 C503 0.961 . S
H520 C504 0.931 . S
H521 C509 0.930 . S
H522 C510 0.956 . S
H523 C510 0.961 . S
H524 C510 0.961 . S
H525 C511 0.958 1_556 S
H526 C511 0.961 . S
H527 C511 0.960 . S
C528 C529 1.391 . S
C528 C530 1.394 . S
C528 H544 0.931 . S
C529 C528 1.391 . S
C529 C533 1.376 . S
C530 C528 1.394 . S
C530 C531 1.369 . S
C530 C534 1.531 . S
C531 C530 1.369 . S
C531 C532 1.410 . S
C531 C539 1.503 . S
C532 C531 1.410 . S
C532 C533 1.392 . S
C532 C535 1.511 . S
C533 C529 1.376 . S
C533 C532 1.392 . S
C533 H545 0.929 . S
C534 C530 1.531 . S
C534 H546 0.960 . S
C534 H547 0.962 . S
C534 H548 0.960 . S
C535 C532 1.511 . S
C535 H549 0.961 . S
C535 H550 0.961 . S
C535 H551 0.961 . S
C536 C537 1.370 . S
C536 C538 1.363 . S
C536 H552 0.931 . S
C537 C536 1.370 . S
C537 C541 1.408 . S
C538 C536 1.363 . S
C538 C539 1.370 . S
C538 C542 1.524 . S
C539 C531 1.503 . S
C539 C538 1.370 . S
C539 C540 1.403 . S
C540 C539 1.403 . S
C540 C541 1.404 . S
C540 C543 1.539 . S
C541 C537 1.408 . S
C541 C540 1.404 . S
C541 H553 0.930 . S
C542 C538 1.524 . S
C542 H554 0.956 . S
C542 H555 0.961 . S
C542 H556 0.961 . S
C543 C540 1.539 . S
C543 H557 0.958 . S
C543 H558 0.961 . S
C543 H559 0.960 . S
H544 C528 0.931 . S
H545 C533 0.929 . S
H546 C534 0.960 . S
H547 C534 0.962 . S
H548 C534 0.960 . S
H549 C535 0.961 . S
H550 C535 0.961 . S
H551 C535 0.961 . S
H552 C536 0.931 . S
H553 C541 0.930 . S
H554 C542 0.956 . S
H555 C542 0.961 . S
H556 C542 0.961 . S
H557 C543 0.958 . S
H558 C543 0.961 . S
H559 C543 0.960 . S
C560 C561 1.391 . S
C560 C562 1.394 . S
C560 H576 0.931 . S
C561 C560 1.391 . S
C561 C565 1.376 . S
C562 C560 1.394 . S
C562 C563 1.369 . S
C562 C566 1.531 . S
C563 C562 1.369 . S
C563 C564 1.410 . S
C563 C571 1.503 1_554 S
C564 C563 1.410 . S
C564 C565 1.392 . S
C564 C567 1.511 . S
C565 C561 1.376 . S
C565 C564 1.392 . S
C565 H577 0.929 . S
C566 C562 1.531 . S
C566 H578 0.960 1_554 S
C566 H579 0.962 . S
C566 H580 0.960 . S
C567 C564 1.511 . S
C567 H581 0.961 . S
C567 H582 0.961 . S
C567 H583 0.961 . S
C568 C569 1.370 . S
C568 C570 1.363 . S
C568 H584 0.931 . S
C569 C568 1.370 . S
C569 C573 1.408 . S
C570 C568 1.363 . S
C570 C571 1.370 . S
C570 C574 1.524 1_556 S
C571 C563 1.503 1_556 S
C571 C570 1.370 . S
C571 C572 1.403 . S
C572 C571 1.403 . S
C572 C573 1.404 . S
C572 C575 1.539 . S
C573 C569 1.408 . S
C573 C572 1.404 . S
C573 H585 0.930 . S
C574 C570 1.524 1_554 S
C574 H586 0.956 . S
C574 H587 0.961 . S
C574 H588 0.961 . S
C575 C572 1.539 . S
C575 H589 0.958 . S
C575 H590 0.961 . S
C575 H591 0.960 . S
H576 C560 0.931 . S
H577 C565 0.929 . S
H578 C566 0.960 1_556 S
H579 C566 0.962 . S
H580 C566 0.960 . S
H581 C567 0.961 . S
H582 C567 0.961 . S
H583 C567 0.961 . S
H584 C568 0.931 . S
H585 C573 0.930 . S
H586 C574 0.956 . S
H587 C574 0.961 . S
H588 C574 0.961 . S
H589 C575 0.958 . S
H590 C575 0.961 . S
H591 C575 0.960 . S
C592 C593 1.391 . S
C592 C594 1.394 . S
C592 H608 0.931 . S
C593 C592 1.391 . S
C593 C597 1.376 . S
C594 C592 1.394 . S
C594 C595 1.369 . S
C594 C598 1.531 . S
C595 C594 1.369 . S
C595 C596 1.410 . S
C595 C603 1.503 . S
C596 C595 1.410 . S
C596 C597 1.392 . S
C596 C599 1.511 . S
C597 C593 1.376 . S
C597 C596 1.392 . S
C597 H609 0.929 . S
C598 C594 1.531 . S
C598 H610 0.960 . S
C598 H611 0.962 . S
C598 H612 0.960 . S
C599 C596 1.511 . S
C599 H613 0.961 . S
C599 H614 0.961 . S
C599 H615 0.961 . S
C600 C601 1.370 . S
C600 C602 1.363 . S
C600 H616 0.931 . S
C601 C600 1.370 . S
C601 C605 1.408 . S
C602 C600 1.363 . S
C602 C603 1.370 . S
C602 C606 1.524 . S
C603 C595 1.503 . S
C603 C602 1.370 . S
C603 C604 1.403 . S
C604 C603 1.403 . S
C604 C605 1.404 . S
C604 C607 1.539 . S
C605 C601 1.408 . S
C605 C604 1.404 . S
C605 H617 0.930 . S
C606 C602 1.524 . S
C606 H618 0.956 . S
C606 H619 0.961 . S
C606 H620 0.961 . S
C607 C604 1.539 . S
C607 H621 0.958 . S
C607 H622 0.961 . S
C607 H623 0.960 . S
H608 C592 0.931 . S
H609 C597 0.929 . S
H610 C598 0.960 . S
H611 C598 0.962 . S
H612 C598 0.960 . S
H613 C599 0.961 . S
H614 C599 0.961 . S
H615 C599 0.961 . S
H616 C600 0.931 . S
H617 C605 0.930 . S
H618 C606 0.956 . S
H619 C606 0.961 . S
H620 C606 0.961 . S
H621 C607 0.958 . S
H622 C607 0.961 . S
H623 C607 0.960 . S
C624 C625 1.391 . S
C624 C626 1.394 . S
C624 H640 0.931 . S
C625 C624 1.391 . S
C625 C629 1.376 . S
C626 C624 1.394 . S
C626 C627 1.369 . S
C626 C630 1.531 . S
C627 C626 1.369 . S
C627 C628 1.410 . S
C627 C635 1.503 . S
C628 C627 1.410 . S
C628 C629 1.392 . S
C628 C631 1.511 . S
C629 C625 1.376 . S
C629 C628 1.392 . S
C629 H641 0.929 . S
C630 C626 1.531 . S
C630 H642 0.960 . S
C630 H643 0.962 . S
C630 H644 0.960 . S
C631 C628 1.511 . S
C631 H645 0.961 . S
C631 H646 0.961 . S
C631 H647 0.961 . S
C632 C633 1.370 . S
C632 C634 1.363 . S
C632 H648 0.931 . S
C633 C632 1.370 . S
C633 C637 1.408 . S
C634 C632 1.363 . S
C634 C635 1.370 . S
C634 C638 1.524 . S
C635 C627 1.503 . S
C635 C634 1.370 . S
C635 C636 1.403 . S
C636 C635 1.403 . S
C636 C637 1.404 . S
C636 C639 1.539 . S
C637 C633 1.408 . S
C637 C636 1.404 . S
C637 H649 0.930 . S
C638 C634 1.524 . S
C638 H650 0.956 . S
C638 H651 0.961 . S
C638 H652 0.961 . S
C639 C636 1.539 . S
C639 H653 0.958 . S
C639 H654 0.961 . S
C639 H655 0.960 . S
H640 C624 0.931 . S
H641 C629 0.929 . S
H642 C630 0.960 . S
H643 C630 0.962 . S
H644 C630 0.960 . S
H645 C631 0.961 . S
H646 C631 0.961 . S
H647 C631 0.961 . S
H648 C632 0.931 . S
H649 C637 0.930 . S
H650 C638 0.956 . S
H651 C638 0.961 . S
H652 C638 0.961 . S
H653 C639 0.958 . S
H654 C639 0.961 . S
H655 C639 0.960 . S
C656 C657 1.391 . S
C656 C658 1.394 . S
C656 H672 0.931 . S
C657 C656 1.391 . S
C657 C661 1.376 . S
C658 C656 1.394 . S
C658 C659 1.369 . S
C658 C662 1.531 . S
C659 C658 1.369 . S
C659 C660 1.410 . S
C659 C667 1.503 . S
C660 C659 1.410 . S
C660 C661 1.392 . S
C660 C663 1.511 . S
C661 C657 1.376 . S
C661 C660 1.392 . S
C661 H673 0.929 . S
C662 C658 1.531 . S
C662 H674 0.960 . S
C662 H675 0.962 . S
C662 H676 0.960 . S
C663 C660 1.511 . S
C663 H677 0.961 . S
C663 H678 0.961 . S
C663 H679 0.961 . S
C664 C665 1.370 . S
C664 C666 1.363 1_545 S
C664 H680 0.931 . S
C665 C664 1.370 . S
C665 C669 1.408 1_545 S
C666 C664 1.363 1_565 S
C666 C667 1.370 . S
C666 C670 1.524 . S
C667 C659 1.503 . S
C667 C666 1.370 . S
C667 C668 1.403 . S
C668 C667 1.403 . S
C668 C669 1.404 . S
C668 C671 1.539 . S
C669 C665 1.408 1_565 S
C669 C668 1.404 . S
C669 H681 0.930 . S
C670 C666 1.524 . S
C670 H682 0.956 . S
C670 H683 0.961 . S
C670 H684 0.961 . S
C671 C668 1.539 . S
C671 H685 0.958 . S
C671 H686 0.961 . S
C671 H687 0.960 . S
H672 C656 0.931 . S
H673 C661 0.929 . S
H674 C662 0.960 . S
H675 C662 0.962 . S
H676 C662 0.960 . S
H677 C663 0.961 . S
H678 C663 0.961 . S
H679 C663 0.961 . S
H680 C664 0.931 . S
H681 C669 0.930 . S
H682 C670 0.956 . S
H683 C670 0.961 . S
H684 C670 0.961 . S
H685 C671 0.958 . S
H686 C671 0.961 . S
H687 C671 0.960 . S
C688 C689 1.391 . S
C688 C690 1.394 . S
C688 H704 0.931 . S
C689 C688 1.391 . S
C689 C693 1.376 . S
C690 C688 1.394 . S
C690 C691 1.369 . S
C690 C694 1.531 . S
C691 C690 1.369 . S
C691 C692 1.410 . S
C691 C699 1.503 . S
C692 C691 1.410 . S
C692 C693 1.392 . S
C692 C695 1.511 . S
C693 C689 1.376 . S
C693 C692 1.392 . S
C693 H705 0.929 . S
C694 C690 1.531 . S
C694 H706 0.960 . S
C694 H707 0.962 . S
C694 H708 0.960 . S
C695 C692 1.511 . S
C695 H709 0.961 . S
C695 H710 0.961 . S
C695 H711 0.961 . S
C696 C697 1.370 . S
C696 C698 1.363 . S
C696 H712 0.931 . S
C697 C696 1.370 . S
C697 C701 1.408 . S
C698 C696 1.363 . S
C698 C699 1.370 . S
C698 C702 1.524 . S
C699 C691 1.503 . S
C699 C698 1.370 . S
C699 C700 1.403 . S
C700 C699 1.403 . S
C700 C701 1.404 . S
C700 C703 1.539 . S
C701 C697 1.408 . S
C701 C700 1.404 . S
C701 H713 0.930 . S
C702 C698 1.524 . S
C702 H714 0.956 . S
C702 H715 0.961 . S
C702 H716 0.961 . S
C703 C700 1.539 . S
C703 H717 0.958 . S
C703 H718 0.961 . S
C703 H719 0.960 . S
H704 C688 0.931 . S
H705 C693 0.929 . S
H706 C694 0.960 . S
H707 C694 0.962 . S
H708 C694 0.960 . S
H709 C695 0.961 . S
H710 C695 0.961 . S
H711 C695 0.961 . S
H712 C696 0.931 . S
H713 C701 0.930 . S
H714 C702 0.956 . S
H715 C702 0.961 . S
H716 C702 0.961 . S
H717 C703 0.958 . S
H718 C703 0.961 . S
H719 C703 0.960 . S
C720 C721 1.391 1_545 S
C720 C722 1.394 . S
C720 H736 0.931 . S
C721 C720 1.391 1_565 S
C721 C725 1.376 . S
C722 C720 1.394 . S
C722 C723 1.369 . S
C722 C726 1.531 . S
C723 C722 1.369 . S
C723 C724 1.410 . S
C723 C731 1.503 . S
C724 C723 1.410 . S
C724 C725 1.392 1_545 S
C724 C727 1.511 . S
C725 C721 1.376 . S
C725 C724 1.392 1_565 S
C725 H737 0.929 . S
C726 C722 1.531 . S
C726 H738 0.960 . S
C726 H739 0.962 . S
C726 H740 0.960 . S
C727 C724 1.511 . S
C727 H741 0.961 1_545 S
C727 H742 0.961 . S
C727 H743 0.961 . S
C728 C729 1.370 . S
C728 C730 1.363 . S
C728 H744 0.931 . S
C729 C728 1.370 . S
C729 C733 1.408 . S
C730 C728 1.363 . S
C730 C731 1.370 . S
C730 C734 1.524 . S
C731 C723 1.503 . S
C731 C730 1.370 . S
C731 C732 1.403 . S
C732 C731 1.403 . S
C732 C733 1.404 . S
C732 C735 1.539 . S
C733 C729 1.408 . S
C733 C732 1.404 . S
C733 H745 0.930 . S
C734 C730 1.524 . S
C734 H746 0.956 . S
C734 H747 0.961 . S
C734 H748 0.961 . S
C735 C732 1.539 . S
C735 H749 0.958 . S
C735 H750 0.961 . S
C735 H751 0.960 . S
H736 C720 0.931 . S
H737 C725 0.929 . S
H738 C726 0.960 . S
H739 C726 0.962 . S
H740 C726 0.960 . S
H741 C727 0.961 1_565 S
H742 C727 0.961 . S
H743 C727 0.961 . S
H744 C728 0.931 . S
H745 C733 0.930 . S
H746 C734 0.956 . S
H747 C734 0.961 . S
H748 C734 0.961 . S
H749 C735 0.958 . S
H750 C735 0.961 . S
H751 C735 0.960 . S
C752 C753 1.391 . S
C752 C754 1.394 . S
C752 H768 0.931 . S
C753 C752 1.391 . S
C753 C757 1.376 . S
C754 C752 1.394 . S
C754 C755 1.369 . S
C754 C758 1.531 . S
C755 C754 1.369 . S
C755 C756 1.410 . S
C755 C763 1.503 . S
C756 C755 1.410 . S
C756 C757 1.392 . S
C756 C759 1.511 . S
C757 C753 1.376 . S
C757 C756 1.392 . S
C757 H769 0.929 . S
C758 C754 1.531 . S
C758 H770 0.960 . S
C758 H771 0.962 . S
C758 H772 0.960 . S
C759 C756 1.511 . S
C759 H773 0.961 . S
C759 H774 0.961 . S
C759 H775 0.961 . S
C760 C761 1.370 . S
C760 C762 1.363 . S
C760 H776 0.931 . S
C761 C760 1.370 . S
C761 C765 1.408 . S
C762 C760 1.363 . S
C762 C763 1.370 . S
C762 C766 1.524 . S
C763 C755 1.503 . S
C763 C762 1.370 . S
C763 C764 1.403 . S
C764 C763 1.403 . S
C764 C765 1.404 . S
C764 C767 1.539 . S
C765 C761 1.408 . S
C765 C764 1.404 . S
C765 H777 0.930 . S
C766 C762 1.524 . S
C766 H778 0.956 . S
C766 H779 0.961 . S
C766 H780 0.961 . S
C767 C764 1.539 . S
C767 H781 0.958 . S
C767 H782 0.961 . S
C767 H783 0.960 . S
H768 C752 0.931 . S
H769 C757 0.929 . S
H770 C758 0.960 . S
H771 C758 0.962 . S
H772 C758 0.960 . S
H773 C759 0.961 . S
H774 C759 0.961 . S
H775 C759 0.961 . S
H776 C760 0.931 . S
H777 C765 0.930 . S
H778 C766 0.956 . S
H779 C766 0.961 . S
H780 C766 0.961 . S
H781 C767 0.958 . S
H782 C767 0.961 . S
H783 C767 0.960 . S
C784 C785 1.391 . S
C784 C786 1.394 . S
C784 H800 0.931 . S
C785 C784 1.391 . S
C785 C789 1.376 . S
C786 C784 1.394 . S
C786 C787 1.369 . S
C786 C790 1.531 . S
C787 C786 1.369 . S
C787 C788 1.410 . S
C787 C795 1.503 . S
C788 C787 1.410 . S
C788 C789 1.392 . S
C788 C791 1.511 . S
C789 C785 1.376 . S
C789 C788 1.392 . S
C789 H801 0.929 . S
C790 C786 1.531 . S
C790 H802 0.960 . S
C790 H803 0.962 . S
C790 H804 0.960 . S
C791 C788 1.511 . S
C791 H805 0.961 . S
C791 H806 0.961 . S
C791 H807 0.961 . S
C792 C793 1.370 . S
C792 C794 1.363 . S
C792 H808 0.931 . S
C793 C792 1.370 . S
C793 C797 1.408 . S
C794 C792 1.363 . S
C794 C795 1.370 . S
C794 C798 1.524 . S
C795 C787 1.503 . S
C795 C794 1.370 . S
C795 C796 1.403 . S
C796 C795 1.403 . S
C796 C797 1.404 . S
C796 C799 1.539 . S
C797 C793 1.408 . S
C797 C796 1.404 . S
C797 H809 0.930 . S
C798 C794 1.524 . S
C798 H810 0.956 . S
C798 H811 0.961 . S
C798 H812 0.961 . S
C799 C796 1.539 . S
C799 H813 0.958 . S
C799 H814 0.961 . S
C799 H815 0.960 . S
H800 C784 0.931 . S
H801 C789 0.929 . S
H802 C790 0.960 . S
H803 C790 0.962 . S
H804 C790 0.960 . S
H805 C791 0.961 . S
H806 C791 0.961 . S
H807 C791 0.961 . S
H808 C792 0.931 . S
H809 C797 0.930 . S
H810 C798 0.956 . S
H811 C798 0.961 . S
H812 C798 0.961 . S
H813 C799 0.958 . S
H814 C799 0.961 . S
H815 C799 0.960 . S
C816 C817 1.391 1_655 S
C816 C818 1.394 . S
C816 H832 0.931 . S
C817 C816 1.391 1_455 S
C817 C821 1.376 . S
C818 C816 1.394 . S
C818 C819 1.369 . S
C818 C822 1.531 . S
C819 C818 1.369 . S
C819 C820 1.410 . S
C819 C827 1.503 . S
C820 C819 1.410 . S
C820 C821 1.392 1_655 S
C820 C823 1.511 . S
C821 C817 1.376 . S
C821 C820 1.392 1_455 S
C821 H833 0.929 . S
C822 C818 1.531 . S
C822 H834 0.960 . S
C822 H835 0.962 . S
C822 H836 0.960 . S
C823 C820 1.511 . S
C823 H837 0.961 1_655 S
C823 H838 0.961 . S
C823 H839 0.961 . S
C824 C825 1.370 . S
C824 C826 1.363 . S
C824 H840 0.931 . S
C825 C824 1.370 . S
C825 C829 1.408 . S
C826 C824 1.363 . S
C826 C827 1.370 . S
C826 C830 1.524 . S
C827 C819 1.503 . S
C827 C826 1.370 . S
C827 C828 1.403 . S
C828 C827 1.403 . S
C828 C829 1.404 . S
C828 C831 1.539 . S
C829 C825 1.408 . S
C829 C828 1.404 . S
C829 H841 0.930 . S
C830 C826 1.524 . S
C830 H842 0.956 . S
C830 H843 0.961 . S
C830 H844 0.961 . S
C831 C828 1.539 . S
C831 H845 0.958 . S
C831 H846 0.961 . S
C831 H847 0.960 . S
H832 C816 0.931 . S
H833 C821 0.929 . S
H834 C822 0.960 . S
H835 C822 0.962 . S
H836 C822 0.960 . S
H837 C823 0.961 1_455 S
H838 C823 0.961 . S
H839 C823 0.961 . S
H840 C824 0.931 . S
H841 C829 0.930 . S
H842 C830 0.956 . S
H843 C830 0.961 . S
H844 C830 0.961 . S
H845 C831 0.958 . S
H846 C831 0.961 . S
H847 C831 0.960 . S
C848 C849 1.391 . S
C848 C850 1.394 . S
C848 H864 0.931 . S
C849 C848 1.391 . S
C849 C853 1.376 . S
C850 C848 1.394 . S
C850 C851 1.369 . S
C850 C854 1.531 . S
C851 C850 1.369 . S
C851 C852 1.410 . S
C851 C859 1.503 . S
C852 C851 1.410 . S
C852 C853 1.392 . S
C852 C855 1.511 . S
C853 C849 1.376 . S
C853 C852 1.392 . S
C853 H865 0.929 . S
C854 C850 1.531 . S
C854 H866 0.960 . S
C854 H867 0.962 . S
C854 H868 0.960 . S
C855 C852 1.511 . S
C855 H869 0.961 . S
C855 H870 0.961 . S
C855 H871 0.961 . S
C856 C857 1.370 . S
C856 C858 1.363 . S
C856 H872 0.931 . S
C857 C856 1.370 . S
C857 C861 1.408 . S
C858 C856 1.363 . S
C858 C859 1.370 . S
C858 C862 1.524 . S
C859 C851 1.503 . S
C859 C858 1.370 . S
C859 C860 1.403 . S
C860 C859 1.403 . S
C860 C861 1.404 . S
C860 C863 1.539 . S
C861 C857 1.408 . S
C861 C860 1.404 . S
C861 H873 0.930 . S
C862 C858 1.524 . S
C862 H874 0.956 . S
C862 H875 0.961 . S
C862 H876 0.961 . S
C863 C860 1.539 . S
C863 H877 0.958 . S
C863 H878 0.961 . S
C863 H879 0.960 . S
H864 C848 0.931 . S
H865 C853 0.929 . S
H866 C854 0.960 . S
H867 C854 0.962 . S
H868 C854 0.960 . S
H869 C855 0.961 . S
H870 C855 0.961 . S
H871 C855 0.961 . S
H872 C856 0.931 . S
H873 C861 0.930 . S
H874 C862 0.956 . S
H875 C862 0.961 . S
H876 C862 0.961 . S
H877 C863 0.958 . S
H878 C863 0.961 . S
H879 C863 0.960 . S
C880 C881 1.391 . S
C880 C882 1.394 . S
C880 H896 0.931 . S
C881 C880 1.391 . S
C881 C885 1.376 . S
C882 C880 1.394 . S
C882 C883 1.369 . S
C882 C886 1.531 . S
C883 C882 1.369 . S
C883 C884 1.410 . S
C883 C891 1.503 . S
C884 C883 1.410 . S
C884 C885 1.392 . S
C884 C887 1.511 . S
C885 C881 1.376 . S
C885 C884 1.392 . S
C885 H897 0.929 . S
C886 C882 1.531 . S
C886 H898 0.960 . S
C886 H899 0.962 . S
C886 H900 0.960 . S
C887 C884 1.511 . S
C887 H901 0.961 . S
C887 H902 0.961 . S
C887 H903 0.961 . S
C888 C889 1.370 1_455 S
C888 C890 1.363 . S
C888 H904 0.931 1_455 S
C889 C888 1.370 1_655 S
C889 C893 1.408 1_655 S
C890 C888 1.363 . S
C890 C891 1.370 . S
C890 C894 1.524 . S
C891 C883 1.503 . S
C891 C890 1.370 . S
C891 C892 1.403 . S
C892 C891 1.403 . S
C892 C893 1.404 . S
C892 C895 1.539 . S
C893 C889 1.408 1_455 S
C893 C892 1.404 . S
C893 H905 0.930 1_455 S
C894 C890 1.524 . S
C894 H906 0.956 . S
C894 H907 0.961 . S
C894 H908 0.961 . S
C895 C892 1.539 . S
C895 H909 0.958 . S
C895 H910 0.961 . S
C895 H911 0.960 . S
H896 C880 0.931 . S
H897 C885 0.929 . S
H898 C886 0.960 . S
H899 C886 0.962 . S
H900 C886 0.960 . S
H901 C887 0.961 . S
H902 C887 0.961 . S
H903 C887 0.961 . S
H904 C888 0.931 1_655 S
H905 C893 0.930 1_655 S
H906 C894 0.956 . S
H907 C894 0.961 . S
H908 C894 0.961 . S
H909 C895 0.958 . S
H910 C895 0.961 . S
H911 C895 0.960 . S
C273 C175 1.354 . S
C281 C5 1.380 . S
C305 C209 1.355 1_655 S
C313 C39 1.379 1_545 S
C337 C73 1.408 . S
C345 C243 1.388 . S
C369 C141 1.357 1_455 S
C377 C107 1.376 1_565 S
C401 C271 1.448 . S
C409 C33 1.450 . S
C433 C67 1.441 . S
C441 C169 1.452 . S
C465 C203 1.439 . S
C473 C101 1.451 . S
C497 C135 1.441 . S
C505 C237 1.449 . S
C529 C258 1.399 . S
C537 C20 1.399 . S
C561 C54 1.389 . S
C569 C156 1.397 . S
C593 C190 1.389 . S
C601 C88 1.396 . S
C625 C224 1.393 . S
C633 C122 1.399 . S
C657 C9 1.637 1_556 S
C665 C104 1.656 . S
C689 C2 1.639 . S
C697 C43 1.630 . S
C721 C36 1.658 . S
C729 C77 1.642 . S
C753 C70 1.663 . S
C761 C111 1.645 . S
C785 C145 1.617 . S
C793 C172 1.651 . S
C817 C206 1.661 . S
C825 C179 1.644 . S
C849 C240 1.647 . S
C857 C213 1.635 . S
C881 C247 1.649 . S
C889 C138 1.660 . S
