# Generated by pormake.
# Topology bcg, (8)-cn, num edge types: 1
# Building blocks:
#     Node 0, Type 0, BuildingBlock: TAGTUT_clean_sbu_1, # of connection points: 8
#     Node 1, Type 0, BuildingBlock: TAGTUT_clean_sbu_1, # of connection points: 8
#     Node 2, Type 0, BuildingBlock: TAGTUT_clean_sbu_1, # of connection points: 8
#     Node 3, Type 0, BuildingBlock: TAGTUT_clean_sbu_1, # of connection points: 8
#     Edge 4, Type (0, 0), BuildingBlock: KIFKEQ_clean_linker_1, # of connection points: 2
#     Edge 5, Type (0, 0), BuildingBlock: KIFKEQ_clean_linker_1, # of connection points: 2
#     Edge 6, Type (0, 0), BuildingBlock: KIFKEQ_clean_linker_1, # of connection points: 2
#     Edge 7, Type (0, 0), BuildingBlock: KIFKEQ_clean_linker_1, # of connection points: 2
#     Edge 8, Type (0, 0), BuildingBlock: KIFKEQ_clean_linker_1, # of connection points: 2
#     Edge 9, Type (0, 0), BuildingBlock: KIFKEQ_clean_linker_1, # of connection points: 2
#     Edge 10, Type (0, 0), BuildingBlock: KIFKEQ_clean_linker_1, # of connection points: 2
#     Edge 11, Type (0, 0), BuildingBlock: KIFKEQ_clean_linker_1, # of connection points: 2
#     Edge 12, Type (0, 0), BuildingBlock: KIFKEQ_clean_linker_1, # of connection points: 2
#     Edge 13, Type (0, 0), BuildingBlock: KIFKEQ_clean_linker_1, # of connection points: 2
#     Edge 14, Type (0, 0), BuildingBlock: KIFKEQ_clean_linker_1, # of connection points: 2
#     Edge 15, Type (0, 0), BuildingBlock: KIFKEQ_clean_linker_1, # of connection points: 2
#     Edge 16, Type (0, 0), BuildingBlock: KIFKEQ_clean_linker_1, # of connection points: 2
#     Edge 17, Type (0, 0), BuildingBlock: KIFKEQ_clean_linker_1, # of connection points: 2
#     Edge 18, Type (0, 0), BuildingBlock: KIFKEQ_clean_linker_1, # of connection points: 2
#     Edge 19, Type (0, 0), BuildingBlock: KIFKEQ_clean_linker_1, # of connection points: 2
# Relax obj value: 0.095
# Max RMSD: 0.205
# Mean RMSD: 0.205
data_MOF--net-bcg--node1-TAGTUT_clean_sbu_1--edge1-KIFKEQ_clean_linker_1
_symmetry_space_group_name_H-M    P1
_symmetry_Int_Tables_number       1
_symmetry_cell_setting            triclinic
loop_
_symmetry_equiv_pos_as_xyz
'x, y, z'
_cell_length_a     15.541645
_cell_length_b     27.161461
_cell_length_c     33.78457
_cell_angle_alpha  83.822207
_cell_angle_beta   90.000508
_cell_angle_gamma 89.931515
loop_
_atom_site_label
_atom_site_type_symbol
_atom_site_fract_x
_atom_site_fract_y
_atom_site_fract_z
_atom_type_partial_charge
C0 C 0.20638 0.23544 0.15038 0.0
C1 C 0.43638 0.26053 0.08763 0.0
C2 C 0.28468 0.38126 0.97968 0.0
Mg3 Mg 0.28481 0.19045 0.07801 0.0
O4 O 0.22951 0.24379 0.04946 0.0
Mg5 Mg 0.2415 0.31174 0.06584 0.0
Mg6 Mg 0.25361 0.25983 0.99152 0.0
O7 O 0.27633 0.27663 0.93355 0.0
Mg8 Mg 0.21164 0.32878 0.90769 0.0
Mg9 Mg 0.26218 0.20871 0.91733 0.0
C10 C 0.21761 0.13877 0.00429 0.0
C11 C 0.44158 0.21927 0.96806 0.0
O12 O 0.2052 0.27814 0.12983 0.0
O13 O 0.2305 0.1961 0.13572 0.0
O14 O 0.38372 0.29717 0.08401 0.0
O15 O 0.41301 0.21654 0.08247 0.0
O16 O 0.24053 0.13386 0.04109 0.0
O17 O 0.22516 0.1805 0.98261 0.0
C18 C 0.06531 0.30009 0.01379 0.0
O19 O 0.11184 0.28026 0.98859 0.0
O20 O 0.09769 0.31568 0.04524 0.0
O21 O 0.29287 0.24356 0.85287 0.0
O22 O 0.25823 0.32451 0.84828 0.0
O23 O 0.1185 0.22259 0.90179 0.0
C24 C 0.28527 0.28636 0.83273 0.0
O25 O 0.08265 0.30135 0.9075 0.0
O26 O 0.25734 0.38632 0.94353 0.0
C27 C 0.06232 0.25731 0.90109 0.0
O28 O 0.28216 0.33902 0.00085 0.0
O29 O 0.39563 0.23856 -0.00605 0.0
O30 O 0.40794 0.20448 0.93649 0.0
C31 C 0.72446 0.75501 0.15128 0.0
C32 C 0.94198 0.78632 0.07997 0.0
C33 C 0.76201 0.88389 0.97017 0.0
Mg34 Mg 0.80383 0.7071 0.07995 0.0
O35 O 0.73008 0.75271 0.05185 0.0
Mg36 Mg 0.73508 0.82364 0.06197 0.0
Mg37 Mg 0.74648 0.76248 0.99317 0.0
O38 O 0.76378 0.77186 0.93451 0.0
Mg39 Mg 0.69192 0.8177 0.90571 0.0
Mg40 Mg 0.75919 0.70079 0.92431 0.0
C41 C 0.73221 0.64092 0.01566 0.0
C42 C 0.93386 0.72576 0.97225 0.0
O43 O 0.70992 0.79521 0.12839 0.0
O44 O 0.75795 0.71656 0.13855 0.0
O45 O 0.88058 0.81811 0.07733 0.0
O46 O 0.92865 0.7407 0.07587 0.0
O47 O 0.76385 0.64262 0.05068 0.0
O48 O 0.72599 0.68032 0.99108 0.0
C49 C 0.55841 0.79687 0.01589 0.0
O50 O 0.60705 0.77664 0.99186 0.0
O51 O 0.58913 0.81918 0.04458 0.0
O52 O 0.7872 0.7291 0.85775 0.0
O53 O 0.73955 0.80784 0.84764 0.0
O54 O 0.61468 0.70682 0.90762 0.0
C55 C 0.77315 0.76944 0.8349 0.0
O56 O 0.56711 0.78447 0.90867 0.0
O57 O 0.73172 0.88213 0.93492 0.0
C58 C 0.55378 0.73889 0.90444 0.0
O59 O 0.76602 0.84461 -0.00498 0.0
O60 O 0.88579 0.74844 -0.00514 0.0
O61 O 0.90378 0.70322 0.94359 0.0
C62 C 0.20377 0.7881 0.33584 0.0
C63 C 0.43149 0.75813 0.39945 0.0
C64 C 0.27595 0.6423 0.50716 0.0
Mg65 Mg 0.28617 0.83158 0.40867 0.0
O66 O 0.22442 0.78004 0.43651 0.0
Mg67 Mg 0.23234 0.71148 0.42074 0.0
Mg68 Mg 0.24787 0.7639 0.4945 0.0
O69 O 0.26958 0.74704 0.55251 0.0
Mg70 Mg 0.20308 0.69595 0.57856 0.0
Mg71 Mg 0.2588 0.81532 0.56823 0.0
C72 C 0.21792 0.8853 0.48116 0.0
C73 C 0.43494 0.79866 0.51778 0.0
O74 O 0.19677 0.7456 0.35651 0.0
O75 O 0.23334 0.82627 0.35048 0.0
O76 O 0.37446 0.72381 0.40196 0.0
O77 O 0.41384 0.80246 0.4063 0.0
O78 O 0.24257 0.8897 0.4446 0.0
O79 O 0.22313 0.84356 0.50295 0.0
C80 C 0.06059 0.72689 0.47392 0.0
O81 O 0.11011 0.74676 0.49763 0.0
O82 O 0.08894 0.70865 0.44275 0.0
O83 O 0.28865 0.78055 0.63264 0.0
O84 O 0.25049 0.70016 0.63789 0.0
O85 O 0.11467 0.80361 0.58404 0.0
C86 C 0.2796 0.73807 0.65306 0.0
O87 O 0.07513 0.72545 0.57826 0.0
O88 O 0.24835 0.63766 0.54327 0.0
C89 C 0.05691 0.76979 0.5848 0.0
O90 O 0.2731 0.68429 0.48566 0.0
O91 O 0.38629 0.78144 0.49212 0.0
O92 O 0.40419 0.81602 0.54893 0.0
C93 C 0.71447 0.27233 0.33876 0.0
C94 C 0.93978 0.24342 0.40441 0.0
C95 C 0.7676 0.1436 0.51836 0.0
Mg96 Mg 0.79923 0.32139 0.40767 0.0
O97 O 0.73231 0.27446 0.43782 0.0
Mg98 Mg 0.73725 0.20342 0.42749 0.0
Mg99 Mg 0.75115 0.26524 0.49629 0.0
O100 O 0.76826 0.25517 0.5549 0.0
Mg101 Mg 0.69444 0.20919 0.58257 0.0
Mg102 Mg 0.76121 0.32599 0.56509 0.0
C103 C 0.73281 0.38673 0.47348 0.0
C104 C 0.93856 0.30012 0.51878 0.0
O105 O 0.70701 0.23124 0.3613 0.0
O106 O 0.74431 0.31196 0.3509 0.0
O107 O 0.88057 0.21052 0.40945 0.0
O108 O 0.92496 0.28913 0.40772 0.0
O109 O 0.76119 0.3852 0.43789 0.0
O110 O 0.73027 0.34734 0.49827 0.0
C111 C 0.5637 0.2279 0.4764 0.0
O112 O 0.61251 0.25068 0.49854 0.0
O113 O 0.59298 0.20518 0.44765 0.0
O114 O 0.78558 0.29733 0.63156 0.0
O115 O 0.73834 0.21856 0.6414 0.0
O116 O 0.61541 0.31996 0.57954 0.0
C117 C 0.77094 0.25706 0.65433 0.0
O118 O 0.56912 0.24225 0.57799 0.0
O119 O 0.73592 0.14487 0.55342 0.0
C120 C 0.5546 0.2879 0.58158 0.0
O121 O 0.77281 0.18319 0.49396 0.0
O122 O 0.89017 0.28024 0.49447 0.0
O123 O 0.9075 0.32178 0.5478 0.0
H124 H 0.53129 0.20336 0.03705 0.0
H125 H 0.56723 0.23895 0.91102 0.0
H126 H 0.67711 0.22789 0.04946 0.0
H127 H 0.71833 0.25861 0.92249 0.0
H128 H 0.95771 0.34195 0.95545 0.0
H129 H 0.80887 0.31806 0.94343 0.0
H130 H 0.81906 0.2134 0.04945 0.0
H131 H 0.96427 0.24035 0.06231 0.0
C132 C 0.57104 0.21598 0.01191 0.0
C133 C 0.53657 0.22059 0.97335 0.0
C134 C 0.65601 0.22929 0.01885 0.0
C135 C 0.71085 0.24624 0.98711 0.0
C136 C 0.67805 0.24731 0.94798 0.0
C137 C 0.59175 0.23491 0.94121 0.0
C138 C 0.92652 0.3149 0.97659 0.0
C139 C 0.97134 0.2939 0.01029 0.0
C140 C 0.84174 0.30035 0.9694 0.0
C141 C 0.8007 0.26323 -0.00483 0.0
C142 C 0.84633 0.24282 0.02918 0.0
C143 C 0.92996 0.25836 0.03681 0.0
H144 H 0.06355 0.65681 0.98106 0.0
H145 H 0.00961 0.81322 0.97586 0.0
H146 H 0.21372 0.6728 -0.00231 0.0
H147 H 0.15899 0.82986 0.99025 0.0
H148 H 0.41945 0.84409 0.04703 0.0
H149 H 0.26684 0.82359 0.03959 0.0
H150 H 0.33848 0.7064 0.96877 0.0
H151 H 0.48733 0.72348 0.97937 0.0
C152 C 0.08462 0.69457 0.98255 0.0
C153 C 0.0262 0.73381 0.97678 0.0
C154 C 0.17019 0.70393 0.99222 0.0
C155 C 0.19854 0.75278 -0.00455 0.0
C156 C 0.13944 0.79182 0.98896 0.0
C157 C 0.05421 0.78236 0.98003 0.0
C158 C 0.40196 0.81393 0.03012 0.0
C159 C 0.46546 0.78684 0.01245 0.0
C160 C 0.31481 0.80226 0.02561 0.0
C161 C 0.29022 0.7635 0.00322 0.0
C162 C 0.35432 0.73601 0.98655 0.0
C163 C 0.44031 0.74696 0.99167 0.0
H164 H 0.57267 0.83505 0.55807 0.0
H165 H 0.50809 0.73731 0.46978 0.0
H166 H 0.72484 0.81337 0.55109 0.0
H167 H 0.65685 0.71997 0.45993 0.0
H168 H 0.92608 0.66137 0.47064 0.0
H169 H 0.77528 0.67687 0.48681 0.0
H170 H 0.83994 0.82738 0.50634 0.0
H171 H 0.98904 0.81092 0.49222 0.0
C172 C 0.59081 0.81007 0.53658 0.0
C173 C 0.52821 0.78974 0.51326 0.0
C174 C 0.67782 0.79765 0.53243 0.0
C175 C 0.70336 0.76498 0.50473 0.0
C176 C 0.64025 0.74462 0.48191 0.0
C177 C 0.55432 0.75611 0.48664 0.0
C178 C 0.90722 0.6976 0.47823 0.0
C179 C 0.96846 0.73489 0.48012 0.0
C180 C 0.82123 0.70668 0.48756 0.0
C181 C 0.79529 0.75354 0.49798 0.0
C182 C 0.85733 0.79065 0.49942 0.0
C183 C 0.94274 0.78134 0.49081 0.0
H184 H 0.07663 0.34274 0.55454 0.0
H185 H 0.01111 0.23144 0.47737 0.0
H186 H 0.22923 0.32142 0.54795 0.0
H187 H 0.16001 0.21389 0.46785 0.0
H188 H 0.43209 0.15995 0.48074 0.0
H189 H 0.28161 0.17587 0.49717 0.0
H190 H 0.34032 0.33121 0.49999 0.0
H191 H 0.48953 0.31463 0.48558 0.0
C192 C 0.0946 0.3146 0.53567 0.0
C193 C 0.03171 0.29035 0.51522 0.0
C194 C 0.18177 0.30243 0.53172 0.0
C195 C 0.207 0.26603 0.50711 0.0
C196 C 0.14356 0.24154 0.48742 0.0
C197 C 0.05756 0.25293 0.49194 0.0
C198 C 0.41192 0.19734 0.48455 0.0
C199 C 0.47145 0.23606 0.48164 0.0
C200 C 0.32619 0.20664 0.4941 0.0
C201 C 0.29884 0.25497 0.50004 0.0
C202 C 0.35906 0.2935 0.49656 0.0
C203 C 0.44432 0.28408 0.48769 0.0
H204 H 0.64881 0.62124 0.94712 0.0
H205 H 0.69581 0.56031 0.06859 0.0
H206 H 0.53785 0.5591 0.9413 0.0
H207 H 0.5835 0.4998 0.06344 0.0
H208 H 0.4202 0.37052 0.03096 0.0
H209 H 0.53488 0.42921 0.03805 0.0
H210 H 0.39582 0.54045 0.9621 0.0
H211 H 0.28221 0.48046 0.95387 0.0
C212 C 0.63633 0.59433 0.97242 0.0
C213 C 0.68106 0.5964 0.00838 0.0
C214 C 0.57163 0.55899 0.96934 0.0
C215 C 0.54965 0.52486 0.00222 0.0
C216 C 0.59819 0.5251 0.03734 0.0
C217 C 0.66326 0.56003 0.04026 0.0
C218 C 0.41244 0.40794 0.01689 0.0
C219 C 0.34119 0.42082 0.99226 0.0
C220 C 0.47904 0.44173 0.02062 0.0
C221 C 0.47594 0.48971 0.00017 0.0
C222 C 0.40204 0.50351 0.97742 0.0
C223 C 0.3359 0.4694 0.97328 0.0
H224 H 0.64765 0.40485 0.54217 0.0
H225 H 0.698 0.46868 0.4218 0.0
H226 H 0.53474 0.4661 0.54795 0.0
H227 H 0.58409 0.52815 0.42683 0.0
H228 H 0.4144 0.65466 0.45796 0.0
H229 H 0.53199 0.59747 0.45232 0.0
H230 H 0.393 0.48433 0.52621 0.0
H231 H 0.27624 0.54304 0.53312 0.0
C232 C 0.63549 0.43216 0.51712 0.0
C233 C 0.68148 0.43102 0.4814 0.0
C234 C 0.56973 0.46701 0.52017 0.0
C235 C 0.54819 0.50162 0.4875 0.0
C236 C 0.5983 0.50247 0.45277 0.0
C237 C 0.6643 0.46807 0.44991 0.0
C238 C 0.40727 0.61713 0.47184 0.0
C239 C 0.33488 0.60333 0.49541 0.0
C240 C 0.4756 0.58418 0.46897 0.0
C241 C 0.47321 0.53607 0.48918 0.0
C242 C 0.39857 0.52138 0.51104 0.0
C243 C 0.33064 0.55472 0.51439 0.0
H244 H 0.08003 0.15199 0.9547 0.0
H245 H 0.21978 0.03916 0.02796 0.0
H246 H 0.96315 0.09455 0.948 0.0
H247 H 0.1036 0.98047 0.02038 0.0
H248 H 0.84846 0.90248 0.03826 0.0
H249 H 0.96176 0.96349 0.0433 0.0
H250 H 0.91099 0.0247 0.92211 0.0
H251 H 0.79674 0.96519 0.91769 0.0
C252 C 0.08779 0.11415 0.96776 0.0
C253 C 0.1603 0.10002 0.99115 0.0
C254 C 0.01983 0.08112 0.9644 0.0
C255 C 0.02271 0.03276 0.98413 0.0
C256 C 0.09769 0.01773 0.00562 0.0
C257 C 0.16527 0.05106 0.00933 0.0
C258 C 0.8604 0.92952 0.01301 0.0
C259 C 0.81388 0.92815 0.97747 0.0
C260 C 0.92637 0.96422 0.01564 0.0
C261 C 0.94761 0.99848 0.98273 0.0
C262 C 0.89701 0.99918 0.94816 0.0
C263 C 0.83084 0.96483 0.94568 0.0
H264 H 0.80429 0.0623 0.57059 0.0
H265 H 0.85246 0.12538 0.4498 0.0
H266 H 0.91732 1.00214 0.56504 0.0
H267 H 0.96429 0.06369 0.4436 0.0
H268 H 0.22074 0.98484 0.45642 0.0
H269 H 0.1065 0.04469 0.46482 0.0
H270 H 0.96583 0.93208 0.53844 0.0
H271 H 0.08076 0.87364 0.53102 0.0
C272 C 0.8373 0.0626 0.54233 0.0
C273 C 0.81955 0.09943 0.51076 0.0
C274 C 0.90277 0.02788 0.53918 0.0
C275 C 0.95183 0.02836 0.50414 0.0
C276 C 0.93005 0.06302 0.47156 0.0
C277 C 0.86487 0.0981 0.47487 0.0
C278 C 0.1666 0.9735 0.47544 0.0
C279 C 0.16112 0.92468 0.49388 0.0
C280 C 0.10012 1.00751 0.47966 0.0
C281 C 0.02573 0.99331 0.50188 0.0
C282 C 0.02218 0.94497 0.52158 0.0
C283 C 0.08904 0.91132 0.51776 0.0
H284 H 0.7698 0.20832 0.28817 0.0
H285 H 0.61911 0.34066 0.29396 0.0
H286 H 0.74307 0.21225 0.21681 0.0
H287 H 0.58514 0.34271 0.22366 0.0
H288 H 0.54433 0.18772 0.11948 0.0
H289 H 0.63637 0.1944 0.17562 0.0
H290 H 0.61556 0.35419 0.1571 0.0
H291 H 0.51657 0.3469 0.10222 0.0
C292 C 0.72952 0.23773 0.27405 0.0
C293 C 0.69452 0.2735 0.29632 0.0
C294 C 0.71426 0.24019 0.23315 0.0
C295 C 0.66107 0.27752 0.21402 0.0
C296 C 0.62791 0.31394 0.23666 0.0
C297 C 0.6457 0.31235 0.27722 0.0
C298 C 0.56107 0.22448 0.12654 0.0
C299 C 0.5194 0.26664 0.1078 0.0
C300 C 0.61485 0.22842 0.15897 0.0
C301 C 0.63005 0.27483 0.17255 0.0
C302 C 0.60121 0.31761 0.14896 0.0
C303 C 0.54542 0.31355 0.11705 0.0
H304 H 0.65224 0.82772 0.19048 0.0
H305 H 0.75512 0.67901 0.20969 0.0
H306 H 0.61614 0.82397 0.26059 0.0
H307 H 0.72029 0.67575 0.28024 0.0
H308 H 0.48481 0.67295 0.37051 0.0
H309 H 0.58432 0.67009 0.31565 0.0
H310 H 0.66753 0.81902 0.32933 0.0
H311 H 0.56599 0.82249 0.38382 0.0
C312 C 0.66804 0.79442 0.2097 0.0
C313 C 0.70519 0.75341 0.19426 0.0
C314 C 0.64859 0.79253 0.25011 0.0
C315 C 0.66598 0.74963 0.27609 0.0
C316 C 0.70587 0.70922 0.26095 0.0
C317 C 0.72532 0.71108 0.22046 0.0
C318 C 0.52641 0.70453 0.36286 0.0
C319 C 0.51431 0.74891 0.38005 0.0
C320 C 0.58397 0.70278 0.33139 0.0
C321 C 0.63094 0.74519 0.3171 0.0
C322 C 0.6296 0.78645 0.33885 0.0
C323 C 0.57172 0.78829 0.37022 0.0
H324 H 0.25904 0.65639 0.70744 0.0
H325 H 0.33972 0.8096 0.69685 0.0
H326 H 0.28839 0.6494 0.77876 0.0
H327 H 0.37033 0.80226 0.76758 0.0
H328 H 0.40885 0.79594 0.89113 0.0
H329 H 0.31218 0.79048 0.83507 0.0
H330 H 0.41975 0.64771 0.81757 0.0
H331 H 0.51424 0.6524 0.87399 0.0
C332 C 0.28298 0.68859 0.72025 0.0
C333 C 0.29814 0.73343 0.69627 0.0
C334 C 0.29922 0.68459 0.76116 0.0
C335 C 0.33077 0.72534 0.77896 0.0
C336 C 0.344 0.77042 0.75508 0.0
C337 C 0.32783 0.77442 0.71429 0.0
C338 C 0.4093 0.76243 0.8764 0.0
C339 C 0.47235 0.72582 0.88555 0.0
C340 C 0.35429 0.75948 0.8441 0.0
C341 C 0.36159 0.71986 0.82074 0.0
C342 C 0.41356 0.67921 0.83447 0.0
C343 C 0.46812 0.68199 0.86694 0.0
H344 H 0.26176 0.3681 0.77875 0.0
H345 H 0.34466 0.21522 0.78817 0.0
H346 H 0.28798 0.37554 0.70722 0.0
H347 H 0.37238 0.22305 0.71713 0.0
H348 H 0.40991 0.23039 0.59365 0.0
H349 H 0.31322 0.23498 0.64986 0.0
H350 H 0.41699 0.37851 0.6674 0.0
H351 H 0.51141 0.37464 0.6109 0.0
C352 C 0.28564 0.33606 0.76564 0.0
C353 C 0.30234 0.2912 0.78937 0.0
C354 C 0.30003 0.34032 0.72458 0.0
C355 C 0.33143 0.29984 0.70634 0.0
C356 C 0.34613 0.2547 0.72997 0.0
C357 C 0.33166 0.25041 0.77093 0.0
C358 C 0.40941 0.26389 0.60841 0.0
C359 C 0.47182 0.30085 0.59943 0.0
C360 C 0.35442 0.26633 0.64082 0.0
C361 C 0.36099 0.30584 0.66433 0.0
C362 C 0.41152 0.347 0.65047 0.0
C363 C 0.46605 0.34471 0.61792 0.0
H364 H 0.14149 0.71636 0.29256 0.0
H365 H 0.22401 0.86925 0.281 0.0
H366 H 0.11264 0.72291 0.22156 0.0
H367 H 0.19671 0.87537 0.20962 0.0
H368 H 0.98137 0.8732 0.10996 0.0
H369 H 0.06936 0.8774 0.1686 0.0
H370 H 0.17498 0.73308 0.15477 0.0
H371 H 0.08494 0.7282 0.09634 0.0
C372 C 0.15392 0.75131 0.2749 0.0
C373 C 0.18396 0.79241 0.2927 0.0
C374 C 0.13877 0.75486 0.23397 0.0
C375 C 0.15348 0.79954 0.20975 0.0
C376 C 0.18468 0.84047 0.22743 0.0
C377 C 0.19977 0.83695 0.26842 0.0
C378 C 0.02585 0.84312 0.11831 0.0
C379 C 0.0225 0.79912 0.09988 0.0
C380 C 0.07656 0.84557 0.15213 0.0
C381 C 0.12581 0.80444 0.16744 0.0
C382 C 0.13467 0.76446 0.14455 0.0
C383 C 0.08363 0.76191 0.11081 0.0
H384 H 0.08125 0.30201 0.38698 0.0
H385 H 0.98014 0.15599 0.37561 0.0
H386 H 0.1739 0.29535 0.3297 0.0
H387 H 0.07022 0.15012 0.3179 0.0
H388 H 0.22573 0.1553 0.20626 0.0
H389 H 0.1976 0.15099 0.27752 0.0
H390 H 0.11442 0.30378 0.26291 0.0
H391 H 0.14433 0.30851 0.19216 0.0
C392 C 0.08092 0.26778 0.37321 0.0
C393 C 0.02013 0.23062 0.38445 0.0
C394 C 0.1335 0.26416 0.34017 0.0
C395 C 0.12599 0.22333 0.31811 0.0
C396 C 0.07651 0.18253 0.33375 0.0
C397 C 0.02451 0.18598 0.36698 0.0
C398 C 0.20149 0.18801 0.21827 0.0
C399 C 0.18626 0.23214 0.19337 0.0
C400 C 0.18599 0.18556 0.25917 0.0
C401 C 0.15474 0.22713 0.27603 0.0
C402 C 0.14066 0.27138 0.25116 0.0
C403 C 0.15642 0.27389 0.21037 0.0
H404 H 0.00046 0.17218 0.87506 0.0
H405 H 0.9324 0.32479 0.88496 0.0
H406 H 0.89948 0.17042 0.82063 0.0
H407 H 0.82813 0.32207 0.83182 0.0
H408 H 0.84605 0.32862 0.69361 0.0
H409 H 0.87983 0.3248 0.76391 0.0
H410 H 0.76632 0.17901 0.78367 0.0
H411 H 0.73401 0.18229 0.71286 0.0
C412 C 0.96112 0.20467 0.86696 0.0
C413 C 0.97754 0.24937 0.88302 0.0
C414 C 0.90263 0.20356 0.83575 0.0
C415 C 0.85885 0.24692 0.82077 0.0
C416 C 0.86367 0.2887 0.8418 0.0
C417 C 0.92298 0.29004 0.87261 0.0
C418 C 0.82768 0.29586 0.71289 0.0
C419 C 0.78875 0.25547 0.69743 0.0
C420 C 0.84578 0.29395 0.75342 0.0
C421 C 0.82507 0.25168 0.77952 0.0
C422 C 0.78332 0.21197 0.76431 0.0
C423 C 0.76535 0.21383 0.72368 0.0
H424 H 0.00128 0.85496 0.61308 0.0
H425 H 0.92282 0.70491 0.6 0.0
H426 H 0.90459 0.85654 0.66911 0.0
H427 H 0.82435 0.70699 0.65583 0.0
H428 H 0.84671 0.6976 0.79487 0.0
H429 H 0.87979 0.70205 0.72425 0.0
H430 H 0.77114 0.84927 0.70618 0.0
H431 H 0.73954 0.84537 0.77698 0.0
C432 C 0.96069 0.82301 0.621 0.0
C433 C 0.97329 0.77881 0.60362 0.0
C434 C 0.90485 0.82397 0.65323 0.0
C435 C 0.85998 0.78098 0.66802 0.0
C436 C 0.8609 0.73998 0.64597 0.0
C437 C 0.91692 0.73897 0.61377 0.0
C438 C 0.82945 0.73083 0.77588 0.0
C439 C 0.79187 0.77138 0.7918 0.0
C440 C 0.84714 0.73312 0.73521 0.0
C441 C 0.82744 0.77595 0.70951 0.0
C442 C 0.78736 0.81588 0.72521 0.0
C443 C 0.76978 0.81364 0.76588 0.0
loop_
_geom_bond_atom_site_label_1
_geom_bond_atom_site_label_2
_geom_bond_distance
_geom_bond_site_symmetry_2
_ccdc_geom_bond_type
C0 O12 1.241 . S
C0 O13 1.280 . S
C1 O14 1.277 . S
C1 O15 1.245 . S
C2 O26 1.247 . S
C2 O28 1.289 1_556 S
Mg3 O4 1.926 . S
Mg3 O13 1.984 . S
Mg3 O15 1.988 . S
Mg3 O16 2.061 . S
O4 Mg3 1.926 . S
O4 Mg5 1.986 . S
O4 Mg6 1.938 . S
Mg5 O4 1.986 . S
Mg5 O12 2.042 . S
Mg5 O14 2.041 . S
Mg5 O20 2.038 . S
Mg5 O28 2.238 . S
Mg6 O4 1.938 . S
Mg6 O7 1.896 1_554 S
Mg6 O17 2.099 1_554 S
Mg6 O19 2.075 1_554 S
Mg6 O28 2.114 . S
Mg6 O29 2.083 . S
O7 Mg6 1.896 1_556 S
O7 Mg8 1.926 . S
O7 Mg9 1.986 . S
Mg8 O7 1.926 . S
Mg8 O22 1.984 . S
Mg8 O25 1.988 . S
Mg8 O26 2.061 . S
Mg9 O7 1.986 . S
Mg9 O17 2.238 . S
Mg9 O21 2.042 . S
Mg9 O23 2.041 . S
Mg9 O30 2.038 . S
C10 O16 1.247 . S
C10 O17 1.289 1_554 S
C11 O29 1.245 1_556 S
C11 O30 1.274 . S
O12 C0 1.241 . S
O12 Mg5 2.042 . S
O13 C0 1.280 . S
O13 Mg3 1.984 . S
O14 C1 1.277 . S
O14 Mg5 2.041 . S
O15 C1 1.245 . S
O15 Mg3 1.988 . S
O16 Mg3 2.061 . S
O16 C10 1.247 . S
O17 Mg6 2.099 1_556 S
O17 Mg9 2.238 . S
O17 C10 1.289 1_556 S
C18 O19 1.245 1_554 S
C18 O20 1.274 . S
O19 Mg6 2.075 1_556 S
O19 C18 1.245 1_556 S
O20 Mg5 2.038 . S
O20 C18 1.274 . S
O21 Mg9 2.042 . S
O21 C24 1.241 . S
O22 Mg8 1.984 . S
O22 C24 1.280 . S
O23 Mg9 2.041 . S
O23 C27 1.277 . S
C24 O21 1.241 . S
C24 O22 1.280 . S
O25 Mg8 1.988 . S
O25 C27 1.245 . S
O26 C2 1.247 . S
O26 Mg8 2.061 . S
C27 O23 1.277 . S
C27 O25 1.245 . S
O28 C2 1.289 1_554 S
O28 Mg5 2.238 . S
O28 Mg6 2.114 . S
O29 Mg6 2.083 . S
O29 C11 1.245 1_554 S
O30 Mg9 2.038 . S
O30 C11 1.274 . S
C31 O43 1.241 . S
C31 O44 1.280 . S
C32 O45 1.277 . S
C32 O46 1.245 . S
C33 O57 1.247 . S
C33 O59 1.289 1_556 S
Mg34 O35 1.926 . S
Mg34 O44 1.984 . S
Mg34 O46 1.988 . S
Mg34 O47 2.061 . S
O35 Mg34 1.926 . S
O35 Mg36 1.986 . S
O35 Mg37 1.938 . S
Mg36 O35 1.986 . S
Mg36 O43 2.042 . S
Mg36 O45 2.041 . S
Mg36 O51 2.038 . S
Mg36 O59 2.238 . S
Mg37 O35 1.938 . S
Mg37 O38 1.896 1_554 S
Mg37 O48 2.099 1_554 S
Mg37 O50 2.075 1_554 S
Mg37 O59 2.114 . S
Mg37 O60 2.083 . S
O38 Mg37 1.896 1_556 S
O38 Mg39 1.926 . S
O38 Mg40 1.986 . S
Mg39 O38 1.926 . S
Mg39 O53 1.984 . S
Mg39 O56 1.988 . S
Mg39 O57 2.061 . S
Mg40 O38 1.986 . S
Mg40 O48 2.238 . S
Mg40 O52 2.042 . S
Mg40 O54 2.041 . S
Mg40 O61 2.038 . S
C41 O47 1.247 . S
C41 O48 1.289 1_554 S
C42 O60 1.245 1_556 S
C42 O61 1.274 . S
O43 C31 1.241 . S
O43 Mg36 2.042 . S
O44 C31 1.280 . S
O44 Mg34 1.984 . S
O45 C32 1.277 . S
O45 Mg36 2.041 . S
O46 C32 1.245 . S
O46 Mg34 1.988 . S
O47 Mg34 2.061 . S
O47 C41 1.247 . S
O48 Mg37 2.099 1_556 S
O48 Mg40 2.238 . S
O48 C41 1.289 1_556 S
C49 O50 1.245 1_554 S
C49 O51 1.274 . S
O50 Mg37 2.075 1_556 S
O50 C49 1.245 1_556 S
O51 Mg36 2.038 . S
O51 C49 1.274 . S
O52 Mg40 2.042 . S
O52 C55 1.241 . S
O53 Mg39 1.984 . S
O53 C55 1.280 . S
O54 Mg40 2.041 . S
O54 C58 1.277 . S
C55 O52 1.241 . S
C55 O53 1.280 . S
O56 Mg39 1.988 . S
O56 C58 1.245 . S
O57 C33 1.247 . S
O57 Mg39 2.061 . S
C58 O54 1.277 . S
C58 O56 1.245 . S
O59 C33 1.289 1_554 S
O59 Mg36 2.238 . S
O59 Mg37 2.114 . S
O60 Mg37 2.083 . S
O60 C42 1.245 1_554 S
O61 Mg40 2.038 . S
O61 C42 1.274 . S
C62 O74 1.241 . S
C62 O75 1.280 . S
C63 O76 1.277 . S
C63 O77 1.245 . S
C64 O88 1.247 . S
C64 O90 1.289 . S
Mg65 O66 1.926 . S
Mg65 O75 1.984 . S
Mg65 O77 1.988 . S
Mg65 O78 2.061 . S
O66 Mg65 1.926 . S
O66 Mg67 1.986 . S
O66 Mg68 1.917 . S
Mg67 O66 1.986 . S
Mg67 O74 2.042 . S
Mg67 O76 2.041 . S
Mg67 O82 2.038 . S
Mg67 O90 2.238 . S
Mg68 O66 1.917 . S
Mg68 O69 1.917 . S
Mg68 O79 2.106 . S
Mg68 O81 2.079 . S
Mg68 O90 2.106 . S
Mg68 O91 2.079 . S
O69 Mg68 1.917 . S
O69 Mg70 1.926 . S
O69 Mg71 1.986 . S
Mg70 O69 1.926 . S
Mg70 O84 1.984 . S
Mg70 O87 1.988 . S
Mg70 O88 2.061 . S
Mg71 O69 1.986 . S
Mg71 O79 2.238 . S
Mg71 O83 2.042 . S
Mg71 O85 2.041 . S
Mg71 O92 2.038 . S
C72 O78 1.247 . S
C72 O79 1.289 . S
C73 O91 1.245 . S
C73 O92 1.274 . S
O74 C62 1.241 . S
O74 Mg67 2.042 . S
O75 C62 1.280 . S
O75 Mg65 1.984 . S
O76 C63 1.277 . S
O76 Mg67 2.041 . S
O77 C63 1.245 . S
O77 Mg65 1.988 . S
O78 Mg65 2.061 . S
O78 C72 1.247 . S
O79 Mg68 2.106 . S
O79 Mg71 2.238 . S
O79 C72 1.289 . S
C80 O81 1.245 . S
C80 O82 1.274 . S
O81 Mg68 2.079 . S
O81 C80 1.245 . S
O82 Mg67 2.038 . S
O82 C80 1.274 . S
O83 Mg71 2.042 . S
O83 C86 1.241 . S
O84 Mg70 1.984 . S
O84 C86 1.280 . S
O85 Mg71 2.041 . S
O85 C89 1.277 . S
C86 O83 1.241 . S
C86 O84 1.280 . S
O87 Mg70 1.988 . S
O87 C89 1.245 . S
O88 C64 1.247 . S
O88 Mg70 2.061 . S
C89 O85 1.277 . S
C89 O87 1.245 . S
O90 C64 1.289 . S
O90 Mg67 2.238 . S
O90 Mg68 2.106 . S
O91 Mg68 2.079 . S
O91 C73 1.245 . S
O92 Mg71 2.038 . S
O92 C73 1.274 . S
C93 O105 1.241 . S
C93 O106 1.280 . S
C94 O107 1.277 . S
C94 O108 1.245 . S
C95 O119 1.247 . S
C95 O121 1.289 . S
Mg96 O97 1.926 . S
Mg96 O106 1.984 . S
Mg96 O108 1.988 . S
Mg96 O109 2.061 . S
O97 Mg96 1.926 . S
O97 Mg98 1.986 . S
O97 Mg99 1.917 . S
Mg98 O97 1.986 . S
Mg98 O105 2.042 . S
Mg98 O107 2.041 . S
Mg98 O113 2.038 . S
Mg98 O121 2.238 . S
Mg99 O97 1.917 . S
Mg99 O100 1.917 . S
Mg99 O110 2.106 . S
Mg99 O112 2.079 . S
Mg99 O121 2.106 . S
Mg99 O122 2.079 . S
O100 Mg99 1.917 . S
O100 Mg101 1.926 . S
O100 Mg102 1.986 . S
Mg101 O100 1.926 . S
Mg101 O115 1.984 . S
Mg101 O118 1.988 . S
Mg101 O119 2.061 . S
Mg102 O100 1.986 . S
Mg102 O110 2.238 . S
Mg102 O114 2.042 . S
Mg102 O116 2.041 . S
Mg102 O123 2.038 . S
C103 O109 1.247 . S
C103 O110 1.289 . S
C104 O122 1.245 . S
C104 O123 1.274 . S
O105 C93 1.241 . S
O105 Mg98 2.042 . S
O106 C93 1.280 . S
O106 Mg96 1.984 . S
O107 C94 1.277 . S
O107 Mg98 2.041 . S
O108 C94 1.245 . S
O108 Mg96 1.988 . S
O109 Mg96 2.061 . S
O109 C103 1.247 . S
O110 Mg99 2.106 . S
O110 Mg102 2.238 . S
O110 C103 1.289 . S
C111 O112 1.245 . S
C111 O113 1.274 . S
O112 Mg99 2.079 . S
O112 C111 1.245 . S
O113 Mg98 2.038 . S
O113 C111 1.274 . S
O114 Mg102 2.042 . S
O114 C117 1.241 . S
O115 Mg101 1.984 . S
O115 C117 1.280 . S
O116 Mg102 2.041 . S
O116 C120 1.277 . S
C117 O114 1.241 . S
C117 O115 1.280 . S
O118 Mg101 1.988 . S
O118 C120 1.245 . S
O119 C95 1.247 . S
O119 Mg101 2.061 . S
C120 O116 1.277 . S
C120 O118 1.245 . S
O121 C95 1.289 . S
O121 Mg98 2.238 . S
O121 Mg99 2.106 . S
O122 Mg99 2.079 . S
O122 C104 1.245 . S
O123 Mg102 2.038 . S
O123 C104 1.274 . S
H124 C132 0.950 . S
H125 C137 0.950 . S
H126 C134 0.950 . S
H127 C136 0.950 . S
H128 C138 0.950 . S
H129 C140 0.950 . S
H130 C142 0.950 . S
H131 C143 0.950 . S
C132 H124 0.950 . S
C132 C133 1.386 1_554 S
C132 C134 1.391 . S
C133 C132 1.386 1_556 S
C133 C137 1.393 . S
C134 H126 0.950 . S
C134 C132 1.391 . S
C134 C135 1.397 1_554 S
C135 C134 1.397 1_556 S
C135 C136 1.402 . S
C135 C141 1.490 1_556 S
C136 H127 0.950 . S
C136 C135 1.402 . S
C136 C137 1.391 . S
C137 H125 0.950 . S
C137 C133 1.393 . S
C137 C136 1.391 . S
C138 H128 0.950 . S
C138 C139 1.386 1_556 S
C138 C140 1.391 . S
C139 C138 1.386 1_554 S
C139 C143 1.393 . S
C140 H129 0.950 . S
C140 C138 1.391 . S
C140 C141 1.400 1_556 S
C141 C135 1.490 1_554 S
C141 C140 1.400 1_554 S
C141 C142 1.398 . S
C142 H130 0.950 . S
C142 C141 1.398 . S
C142 C143 1.391 . S
C143 H131 0.950 . S
C143 C139 1.393 . S
C143 C142 1.391 . S
H144 C152 0.950 . S
H145 C157 0.950 . S
H146 C154 0.950 . S
H147 C156 0.950 . S
H148 C158 0.950 . S
H149 C160 0.950 . S
H150 C162 0.950 . S
H151 C163 0.950 . S
C152 H144 0.950 . S
C152 C153 1.386 . S
C152 C154 1.391 . S
C153 C152 1.386 . S
C153 C157 1.393 1_556 S
C154 H146 0.950 . S
C154 C152 1.391 . S
C154 C155 1.401 . S
C155 C154 1.401 . S
C155 C156 1.397 1_556 S
C155 C161 1.490 1_556 S
C156 H147 0.950 . S
C156 C155 1.397 1_554 S
C156 C157 1.391 . S
C157 H145 0.950 . S
C157 C153 1.393 1_554 S
C157 C156 1.391 . S
C158 H148 0.950 . S
C158 C159 1.386 . S
C158 C160 1.391 . S
C159 C158 1.386 . S
C159 C163 1.393 1_554 S
C160 H149 0.950 . S
C160 C158 1.391 . S
C160 C161 1.400 . S
C161 C155 1.490 1_554 S
C161 C160 1.400 . S
C161 C162 1.398 1_554 S
C162 H150 0.950 . S
C162 C161 1.398 1_556 S
C162 C163 1.391 . S
C163 H151 0.950 . S
C163 C159 1.393 1_556 S
C163 C162 1.391 . S
H164 C172 0.950 . S
H165 C177 0.950 . S
H166 C174 0.950 . S
H167 C176 0.950 . S
H168 C178 0.950 . S
H169 C180 0.950 . S
H170 C182 0.950 . S
H171 C183 0.950 . S
C172 H164 0.950 . S
C172 C173 1.386 . S
C172 C174 1.391 . S
C173 C172 1.386 . S
C173 C177 1.393 . S
C174 H166 0.950 . S
C174 C172 1.391 . S
C174 C175 1.400 . S
C175 C174 1.400 . S
C175 C176 1.398 . S
C175 C181 1.491 . S
C176 H167 0.950 . S
C176 C175 1.398 . S
C176 C177 1.391 . S
C177 H165 0.950 . S
C177 C173 1.393 . S
C177 C176 1.391 . S
C178 H168 0.950 . S
C178 C179 1.386 . S
C178 C180 1.391 . S
C179 C178 1.386 . S
C179 C183 1.393 . S
C180 H169 0.950 . S
C180 C178 1.391 . S
C180 C181 1.400 . S
C181 C175 1.491 . S
C181 C180 1.400 . S
C181 C182 1.398 . S
C182 H170 0.950 . S
C182 C181 1.398 . S
C182 C183 1.391 . S
C183 H171 0.950 . S
C183 C179 1.393 . S
C183 C182 1.391 . S
H184 C192 0.950 . S
H185 C197 0.950 . S
H186 C194 0.950 . S
H187 C196 0.950 . S
H188 C198 0.950 . S
H189 C200 0.950 . S
H190 C202 0.950 . S
H191 C203 0.950 . S
C192 H184 0.950 . S
C192 C193 1.386 . S
C192 C194 1.391 . S
C193 C192 1.386 . S
C193 C197 1.393 . S
C194 H186 0.950 . S
C194 C192 1.391 . S
C194 C195 1.400 . S
C195 C194 1.400 . S
C195 C196 1.398 . S
C195 C201 1.491 . S
C196 H187 0.950 . S
C196 C195 1.398 . S
C196 C197 1.391 . S
C197 H185 0.950 . S
C197 C193 1.393 . S
C197 C196 1.391 . S
C198 H188 0.950 . S
C198 C199 1.386 . S
C198 C200 1.391 . S
C199 C198 1.386 . S
C199 C203 1.393 . S
C200 H189 0.950 . S
C200 C198 1.391 . S
C200 C201 1.400 . S
C201 C195 1.491 . S
C201 C200 1.400 . S
C201 C202 1.398 . S
C202 H190 0.950 . S
C202 C201 1.398 . S
C202 C203 1.391 . S
C203 H191 0.950 . S
C203 C199 1.393 . S
C203 C202 1.391 . S
H204 C212 0.950 . S
H205 C217 0.950 . S
H206 C214 0.950 . S
H207 C216 0.950 . S
H208 C218 0.950 . S
H209 C220 0.950 . S
H210 C222 0.950 . S
H211 C223 0.950 . S
C212 H204 0.950 . S
C212 C213 1.379 1_554 S
C212 C214 1.391 . S
C213 C212 1.379 1_556 S
C213 C217 1.401 . S
C214 H206 0.950 . S
C214 C212 1.391 . S
C214 C215 1.399 . S
C215 C214 1.399 . S
C215 C216 1.399 1_554 S
C215 C221 1.491 . S
C216 H207 0.950 . S
C216 C215 1.399 1_556 S
C216 C217 1.391 . S
C217 H205 0.950 . S
C217 C213 1.401 . S
C217 C216 1.391 . S
C218 H208 0.950 . S
C218 C219 1.386 1_556 S
C218 C220 1.391 . S
C219 C218 1.386 1_554 S
C219 C223 1.393 . S
C220 H209 0.950 . S
C220 C218 1.391 . S
C220 C221 1.400 1_556 S
C221 C215 1.491 . S
C221 C220 1.400 1_554 S
C221 C222 1.398 . S
C222 H210 0.950 . S
C222 C221 1.398 . S
C222 C223 1.391 . S
C223 H211 0.950 . S
C223 C219 1.393 . S
C223 C222 1.391 . S
H224 C232 0.950 . S
H225 C237 0.950 . S
H226 C234 0.950 . S
H227 C236 0.950 . S
H228 C238 0.950 . S
H229 C240 0.950 . S
H230 C242 0.950 . S
H231 C243 0.950 . S
C232 H224 0.950 . S
C232 C233 1.386 . S
C232 C234 1.391 . S
C233 C232 1.386 . S
C233 C237 1.393 . S
C234 H226 0.950 . S
C234 C232 1.391 . S
C234 C235 1.400 . S
C235 C234 1.400 . S
C235 C236 1.398 . S
C235 C241 1.491 . S
C236 H227 0.950 . S
C236 C235 1.398 . S
C236 C237 1.391 . S
C237 H225 0.950 . S
C237 C233 1.393 . S
C237 C236 1.391 . S
C238 H228 0.950 . S
C238 C239 1.386 . S
C238 C240 1.391 . S
C239 C238 1.386 . S
C239 C243 1.393 . S
C240 H229 0.950 . S
C240 C238 1.391 . S
C240 C241 1.400 . S
C241 C235 1.491 . S
C241 C240 1.400 . S
C241 C242 1.398 . S
C242 H230 0.950 . S
C242 C241 1.398 . S
C242 C243 1.391 . S
C243 H231 0.950 . S
C243 C239 1.393 . S
C243 C242 1.391 . S
H244 C252 0.950 . S
H245 C257 0.950 . S
H246 C254 0.959 . S
H247 C256 0.950 1_565 S
H248 C258 0.950 . S
H249 C260 0.959 . S
H250 C262 0.950 1_545 S
H251 C263 0.950 . S
C252 H244 0.950 . S
C252 C253 1.381 1_554 S
C252 C254 1.386 1_455 S
C253 C252 1.381 1_556 S
C253 C257 1.399 . S
C254 H246 0.959 . S
C254 C252 1.386 1_655 S
C254 C255 1.398 1_654 S
C255 C254 1.398 1_456 S
C255 C256 1.398 . S
C255 C261 1.491 1_446 S
C256 H247 0.950 1_545 S
C256 C255 1.398 . S
C256 C257 1.391 . S
C257 H245 0.950 . S
C257 C253 1.399 . S
C257 C256 1.391 . S
C258 H248 0.950 . S
C258 C259 1.386 1_556 S
C258 C260 1.386 1_655 S
C259 C258 1.386 1_554 S
C259 C263 1.393 . S
C260 H249 0.959 . S
C260 C258 1.386 1_455 S
C260 C261 1.397 1_456 S
C261 C255 1.491 1_664 S
C261 C260 1.397 1_654 S
C261 C262 1.398 . S
C262 H250 0.950 1_565 S
C262 C261 1.398 . S
C262 C263 1.391 . S
C263 H251 0.950 . S
C263 C259 1.393 . S
C263 C262 1.391 . S
H264 C272 0.950 . S
H265 C277 0.950 . S
H266 C274 0.950 . S
H267 C276 0.950 . S
H268 C278 0.950 . S
H269 C280 0.950 . S
H270 C282 0.950 . S
H271 C283 0.950 . S
C272 H264 0.950 . S
C272 C273 1.386 . S
C272 C274 1.391 . S
C273 C272 1.386 . S
C273 C277 1.393 . S
C274 H266 0.950 . S
C274 C272 1.391 . S
C274 C275 1.400 . S
C275 C274 1.400 . S
C275 C276 1.398 . S
C275 C281 1.491 1_645 S
C276 H267 0.950 . S
C276 C275 1.398 . S
C276 C277 1.391 . S
C277 H265 0.950 . S
C277 C273 1.393 . S
C277 C276 1.391 . S
C278 H268 0.950 . S
C278 C279 1.386 . S
C278 C280 1.391 . S
C279 C278 1.386 . S
C279 C283 1.393 . S
C280 H269 0.950 . S
C280 C278 1.391 . S
C280 C281 1.400 . S
C281 C275 1.491 1_465 S
C281 C280 1.400 . S
C281 C282 1.398 . S
C282 H270 0.950 . S
C282 C281 1.398 . S
C282 C283 1.391 . S
C283 H271 0.950 . S
C283 C279 1.393 . S
C283 C282 1.391 . S
H284 C292 0.950 . S
H285 C297 0.950 . S
H286 C294 0.950 . S
H287 C296 0.950 . S
H288 C298 0.950 . S
H289 C300 0.950 . S
H290 C302 0.950 . S
H291 C303 0.950 . S
C292 H284 0.950 . S
C292 C293 1.386 . S
C292 C294 1.391 . S
C293 C292 1.386 . S
C293 C297 1.393 . S
C294 H286 0.950 . S
C294 C292 1.391 . S
C294 C295 1.400 . S
C295 C294 1.400 . S
C295 C296 1.398 . S
C295 C301 1.491 . S
C296 H287 0.950 . S
C296 C295 1.398 . S
C296 C297 1.391 . S
C297 H285 0.950 . S
C297 C293 1.393 . S
C297 C296 1.391 . S
C298 H288 0.950 . S
C298 C299 1.386 . S
C298 C300 1.391 . S
C299 C298 1.386 . S
C299 C303 1.393 . S
C300 H289 0.950 . S
C300 C298 1.391 . S
C300 C301 1.400 . S
C301 C295 1.491 . S
C301 C300 1.400 . S
C301 C302 1.398 . S
C302 H290 0.950 . S
C302 C301 1.398 . S
C302 C303 1.391 . S
C303 H291 0.950 . S
C303 C299 1.393 . S
C303 C302 1.391 . S
H304 C312 0.950 . S
H305 C317 0.950 . S
H306 C314 0.950 . S
H307 C316 0.950 . S
H308 C318 0.950 . S
H309 C320 0.950 . S
H310 C322 0.950 . S
H311 C323 0.950 . S
C312 H304 0.950 . S
C312 C313 1.386 . S
C312 C314 1.391 . S
C313 C312 1.386 . S
C313 C317 1.393 . S
C314 H306 0.950 . S
C314 C312 1.391 . S
C314 C315 1.400 . S
C315 C314 1.400 . S
C315 C316 1.398 . S
C315 C321 1.491 . S
C316 H307 0.950 . S
C316 C315 1.398 . S
C316 C317 1.391 . S
C317 H305 0.950 . S
C317 C313 1.393 . S
C317 C316 1.391 . S
C318 H308 0.950 . S
C318 C319 1.386 . S
C318 C320 1.391 . S
C319 C318 1.386 . S
C319 C323 1.393 . S
C320 H309 0.950 . S
C320 C318 1.391 . S
C320 C321 1.400 . S
C321 C315 1.491 . S
C321 C320 1.400 . S
C321 C322 1.398 . S
C322 H310 0.950 . S
C322 C321 1.398 . S
C322 C323 1.391 . S
C323 H311 0.950 . S
C323 C319 1.393 . S
C323 C322 1.391 . S
H324 C332 0.950 . S
H325 C337 0.950 . S
H326 C334 0.950 . S
H327 C336 0.950 . S
H328 C338 0.950 . S
H329 C340 0.950 . S
H330 C342 0.950 . S
H331 C343 0.950 . S
C332 H324 0.950 . S
C332 C333 1.386 . S
C332 C334 1.391 . S
C333 C332 1.386 . S
C333 C337 1.393 . S
C334 H326 0.950 . S
C334 C332 1.391 . S
C334 C335 1.400 . S
C335 C334 1.400 . S
C335 C336 1.398 . S
C335 C341 1.491 . S
C336 H327 0.950 . S
C336 C335 1.398 . S
C336 C337 1.391 . S
C337 H325 0.950 . S
C337 C333 1.393 . S
C337 C336 1.391 . S
C338 H328 0.950 . S
C338 C339 1.386 . S
C338 C340 1.391 . S
C339 C338 1.386 . S
C339 C343 1.393 . S
C340 H329 0.950 . S
C340 C338 1.391 . S
C340 C341 1.400 . S
C341 C335 1.491 . S
C341 C340 1.400 . S
C341 C342 1.398 . S
C342 H330 0.950 . S
C342 C341 1.398 . S
C342 C343 1.391 . S
C343 H331 0.950 . S
C343 C339 1.393 . S
C343 C342 1.391 . S
H344 C352 0.950 . S
H345 C357 0.950 . S
H346 C354 0.950 . S
H347 C356 0.950 . S
H348 C358 0.950 . S
H349 C360 0.950 . S
H350 C362 0.950 . S
H351 C363 0.950 . S
C352 H344 0.950 . S
C352 C353 1.386 . S
C352 C354 1.391 . S
C353 C352 1.386 . S
C353 C357 1.393 . S
C354 H346 0.950 . S
C354 C352 1.391 . S
C354 C355 1.400 . S
C355 C354 1.400 . S
C355 C356 1.398 . S
C355 C361 1.491 . S
C356 H347 0.950 . S
C356 C355 1.398 . S
C356 C357 1.391 . S
C357 H345 0.950 . S
C357 C353 1.393 . S
C357 C356 1.391 . S
C358 H348 0.950 . S
C358 C359 1.386 . S
C358 C360 1.391 . S
C359 C358 1.386 . S
C359 C363 1.393 . S
C360 H349 0.950 . S
C360 C358 1.391 . S
C360 C361 1.400 . S
C361 C355 1.491 . S
C361 C360 1.400 . S
C361 C362 1.398 . S
C362 H350 0.950 . S
C362 C361 1.398 . S
C362 C363 1.391 . S
C363 H351 0.950 . S
C363 C359 1.393 . S
C363 C362 1.391 . S
H364 C372 0.950 . S
H365 C377 0.950 . S
H366 C374 0.950 . S
H367 C376 0.950 . S
H368 C378 0.950 1_455 S
H369 C380 0.950 . S
H370 C382 0.950 . S
H371 C383 0.950 . S
C372 H364 0.950 . S
C372 C373 1.386 1_655 S
C372 C374 1.391 . S
C373 C372 1.386 1_455 S
C373 C377 1.393 . S
C374 H366 0.950 . S
C374 C372 1.391 . S
C374 C375 1.397 1_655 S
C375 C374 1.397 1_455 S
C375 C376 1.404 . S
C375 C381 1.488 1_455 S
C376 H367 0.950 . S
C376 C375 1.404 . S
C376 C377 1.391 . S
C377 H365 0.950 . S
C377 C373 1.393 . S
C377 C376 1.391 . S
C378 H368 0.950 1_655 S
C378 C379 1.386 . S
C378 C380 1.391 1_655 S
C379 C378 1.386 . S
C379 C383 1.393 . S
C380 H369 0.950 . S
C380 C378 1.391 1_455 S
C380 C381 1.400 1_455 S
C381 C375 1.488 1_655 S
C381 C380 1.400 1_655 S
C381 C382 1.398 . S
C382 H370 0.950 . S
C382 C381 1.398 . S
C382 C383 1.391 . S
C383 H371 0.950 . S
C383 C379 1.393 . S
C383 C382 1.391 . S
H384 C392 0.950 . S
H385 C397 0.950 1_455 S
H386 C394 0.950 . S
H387 C396 0.950 . S
H388 C398 0.950 . S
H389 C400 0.950 . S
H390 C402 0.950 . S
H391 C403 0.950 . S
C392 H384 0.950 . S
C392 C393 1.386 . S
C392 C394 1.391 . S
C393 C392 1.386 . S
C393 C397 1.393 . S
C394 H386 0.950 . S
C394 C392 1.391 . S
C394 C395 1.400 . S
C395 C394 1.400 . S
C395 C396 1.398 1_655 S
C395 C401 1.487 1_655 S
C396 H387 0.950 . S
C396 C395 1.398 1_455 S
C396 C397 1.391 1_455 S
C397 H385 0.950 1_655 S
C397 C393 1.393 . S
C397 C396 1.391 1_655 S
C398 H388 0.950 . S
C398 C399 1.386 . S
C398 C400 1.391 . S
C399 C398 1.386 . S
C399 C403 1.393 1_455 S
C400 H389 0.950 . S
C400 C398 1.391 . S
C400 C401 1.411 . S
C401 C395 1.487 1_455 S
C401 C400 1.411 . S
C401 C402 1.391 1_455 S
C402 H390 0.950 . S
C402 C401 1.391 1_655 S
C402 C403 1.391 . S
C403 H391 0.950 . S
C403 C399 1.393 1_655 S
C403 C402 1.391 . S
H404 C412 0.950 1_655 S
H405 C417 0.950 . S
H406 C414 0.950 . S
H407 C416 0.950 . S
H408 C418 0.950 . S
H409 C420 0.950 . S
H410 C422 0.950 . S
H411 C423 0.950 . S
C412 H404 0.950 1_455 S
C412 C413 1.386 . S
C412 C414 1.391 1_455 S
C413 C412 1.386 . S
C413 C417 1.393 . S
C414 H406 0.950 . S
C414 C412 1.391 1_655 S
C414 C415 1.400 1_655 S
C415 C414 1.400 1_455 S
C415 C416 1.398 . S
C415 C421 1.488 1_455 S
C416 H407 0.950 . S
C416 C415 1.398 . S
C416 C417 1.391 . S
C417 H405 0.950 . S
C417 C413 1.393 . S
C417 C416 1.391 . S
C418 H408 0.950 . S
C418 C419 1.386 1_455 S
C418 C420 1.391 . S
C419 C418 1.386 1_655 S
C419 C423 1.393 . S
C420 H409 0.950 . S
C420 C418 1.391 . S
C420 C421 1.397 1_455 S
C421 C415 1.488 1_655 S
C421 C420 1.397 1_655 S
C421 C422 1.404 . S
C422 H410 0.950 . S
C422 C421 1.404 . S
C422 C423 1.391 . S
C423 H411 0.950 . S
C423 C419 1.393 . S
C423 C422 1.391 . S
H424 C432 0.950 1_655 S
H425 C437 0.950 . S
H426 C434 0.950 . S
H427 C436 0.950 . S
H428 C438 0.950 . S
H429 C440 0.950 . S
H430 C442 0.950 . S
H431 C443 0.950 . S
C432 H424 0.950 1_455 S
C432 C433 1.386 . S
C432 C434 1.391 1_455 S
C433 C432 1.386 . S
C433 C437 1.393 . S
C434 H426 0.950 . S
C434 C432 1.391 1_655 S
C434 C435 1.400 1_655 S
C435 C434 1.400 1_455 S
C435 C436 1.398 . S
C435 C441 1.488 1_455 S
C436 H427 0.950 . S
C436 C435 1.398 . S
C436 C437 1.391 . S
C437 H425 0.950 . S
C437 C433 1.393 . S
C437 C436 1.391 . S
C438 H428 0.950 . S
C438 C439 1.386 1_455 S
C438 C440 1.391 . S
C439 C438 1.386 1_655 S
C439 C443 1.393 . S
C440 H429 0.950 . S
C440 C438 1.391 . S
C440 C441 1.397 1_455 S
C441 C435 1.488 1_655 S
C441 C440 1.397 1_655 S
C441 C442 1.404 . S
C442 H430 0.950 . S
C442 C441 1.404 . S
C442 C443 1.391 . S
C443 H431 0.950 . S
C443 C439 1.393 . S
C443 C442 1.391 . S
C133 C11 1.529 . S
C139 C18 1.529 1_655 S
C153 C42 1.523 1_455 S
C159 C49 1.523 . S
C173 C73 1.523 . S
C179 C80 1.523 1_655 S
C193 C104 1.523 1_455 S
C199 C111 1.523 . S
C213 C41 1.597 1_556 S
C219 C2 1.601 1_554 S
C233 C103 1.600 . S
C239 C64 1.600 . S
C253 C10 1.597 1_556 S
C259 C33 1.602 1_554 S
C273 C95 1.594 . S
C279 C72 1.594 . S
C293 C93 1.121 . S
C299 C1 1.145 . S
C313 C31 1.140 . S
C319 C63 1.153 . S
C333 C86 1.122 . S
C339 C58 1.146 . S
C353 C24 1.145 . S
C359 C120 1.147 . S
C373 C62 1.140 . S
C379 C32 1.137 . S
C393 C94 1.135 . S
C399 C0 1.139 . S
C413 C27 1.138 . S
C419 C117 1.141 . S
C433 C89 1.137 . S
C439 C55 1.140 . S
