# Generated by pormake.
# Topology snx, (6)-cn, num edge types: 1
# Building blocks:
#     Node 0, Type 0, BuildingBlock: OJICUG_clean_sbu_0, # of connection points: 6
#     Node 1, Type 0, BuildingBlock: OJICUG_clean_sbu_0, # of connection points: 6
#     Node 2, Type 0, BuildingBlock: OJICUG_clean_sbu_0, # of connection points: 6
#     Node 3, Type 0, BuildingBlock: OJICUG_clean_sbu_0, # of connection points: 6
#     Node 4, Type 0, BuildingBlock: OJICUG_clean_sbu_0, # of connection points: 6
#     Node 5, Type 0, BuildingBlock: OJICUG_clean_sbu_0, # of connection points: 6
#     Edge 6, Type (0, 0), BuildingBlock: ZUJKAS_clean_linker_0, # of connection points: 2
#     Edge 7, Type (0, 0), BuildingBlock: ZUJKAS_clean_linker_0, # of connection points: 2
#     Edge 8, Type (0, 0), BuildingBlock: ZUJKAS_clean_linker_0, # of connection points: 2
#     Edge 9, Type (0, 0), BuildingBlock: ZUJKAS_clean_linker_0, # of connection points: 2
#     Edge 10, Type (0, 0), BuildingBlock: ZUJKAS_clean_linker_0, # of connection points: 2
#     Edge 11, Type (0, 0), BuildingBlock: ZUJKAS_clean_linker_0, # of connection points: 2
#     Edge 12, Type (0, 0), BuildingBlock: ZUJKAS_clean_linker_0, # of connection points: 2
#     Edge 13, Type (0, 0), BuildingBlock: ZUJKAS_clean_linker_0, # of connection points: 2
#     Edge 14, Type (0, 0), BuildingBlock: ZUJKAS_clean_linker_0, # of connection points: 2
#     Edge 15, Type (0, 0), BuildingBlock: ZUJKAS_clean_linker_0, # of connection points: 2
#     Edge 16, Type (0, 0), BuildingBlock: ZUJKAS_clean_linker_0, # of connection points: 2
#     Edge 17, Type (0, 0), BuildingBlock: ZUJKAS_clean_linker_0, # of connection points: 2
#     Edge 18, Type (0, 0), BuildingBlock: ZUJKAS_clean_linker_0, # of connection points: 2
#     Edge 19, Type (0, 0), BuildingBlock: ZUJKAS_clean_linker_0, # of connection points: 2
#     Edge 20, Type (0, 0), BuildingBlock: ZUJKAS_clean_linker_0, # of connection points: 2
#     Edge 21, Type (0, 0), BuildingBlock: ZUJKAS_clean_linker_0, # of connection points: 2
#     Edge 22, Type (0, 0), BuildingBlock: ZUJKAS_clean_linker_0, # of connection points: 2
#     Edge 23, Type (0, 0), BuildingBlock: ZUJKAS_clean_linker_0, # of connection points: 2
# Relax obj value: 0.060
# Max RMSD: 0.112
# Mean RMSD: 0.112
data_MOF--net-snx--node1-OJICUG_clean_sbu_0--edge1-ZUJKAS_clean_linker_0
_symmetry_space_group_name_H-M    P1
_symmetry_Int_Tables_number       1
_symmetry_cell_setting            triclinic
loop_
_symmetry_equiv_pos_as_xyz
'x, y, z'
_cell_length_a     49.031444
_cell_length_b     49.044279
_cell_length_c     27.14825
_cell_angle_alpha  90.010591
_cell_angle_beta   89.989894
_cell_angle_gamma 119.95697
loop_
_atom_site_label
_atom_site_type_symbol
_atom_site_fract_x
_atom_site_fract_y
_atom_site_fract_z
_atom_type_partial_charge
Sc0 Sc 0.19466 0.40161 0.18427 0.0
Sc1 Sc 0.19198 0.39948 0.31375 0.0
Sc2 Sc 0.1586 0.32885 0.24605 0.0
O3 O 0.18174 0.37663 0.24801 0.0
C4 C 0.12649 0.34574 0.15722 0.0
C5 C 0.17213 0.44094 0.25061 0.0
C6 C 0.12323 0.34091 0.33389 0.0
C7 C 0.25419 0.44273 0.25097 0.0
C8 C 0.20767 0.34537 0.1591 0.0
C9 C 0.20666 0.34453 0.3359 0.0
O10 O 0.14839 0.3742 0.15315 0.0
O11 O 0.17294 0.42857 0.29131 0.0
O12 O 0.12342 0.32472 0.29752 0.0
O13 O 0.24225 0.43117 0.20929 0.0
O14 O 0.19111 0.32769 0.19415 0.0
O15 O 0.21208 0.3725 0.34226 0.0
O16 O 0.21001 0.3719 0.15021 0.0
O17 O 0.23849 0.43493 0.29083 0.0
O18 O 0.18705 0.32588 0.30424 0.0
O19 O 0.18083 0.43461 0.21009 0.0
O20 O 0.12763 0.32657 0.18762 0.0
O21 O 0.14671 0.36741 0.3452 0.0
Sc22 Sc 0.82474 0.16191 0.74838 0.0
Sc23 Sc 0.7868 0.19563 0.68321 0.0
Sc24 Sc 0.78969 0.19885 0.81296 0.0
O25 O 0.8004 0.18547 0.74819 0.0
C26 C 0.77845 0.13043 0.83933 0.0
C27 C 0.77432 0.12648 0.66267 0.0
C28 C 0.72679 0.17701 0.75157 0.0
C29 C 0.85561 0.20781 0.65695 0.0
C30 C 0.85926 0.21253 0.83411 0.0
C31 C 0.80798 0.25855 0.74414 0.0
O32 O 0.79505 0.12956 0.80407 0.0
O33 O 0.76829 0.14855 0.65569 0.0
O34 O 0.74143 0.18135 0.79205 0.0
O35 O 0.85697 0.19175 0.69262 0.0
O36 O 0.83674 0.2179 0.841 0.0
O37 O 0.80388 0.24384 0.70378 0.0
O38 O 0.85792 0.19258 0.80285 0.0
O39 O 0.83163 0.21062 0.64849 0.0
O40 O 0.80309 0.24522 0.78597 0.0
O41 O 0.79454 0.12838 0.69389 0.0
O42 O 0.775 0.15405 0.84767 0.0
O43 O 0.74026 0.18184 0.70988 0.0
Sc44 Sc 0.65847 0.82718 0.24932 0.0
Sc45 Sc 0.58746 0.7934 0.18244 0.0
Sc46 Sc 0.58591 0.79088 0.31198 0.0
O47 O 0.61063 0.80384 0.24793 0.0
C48 C 0.64237 0.77803 0.3362 0.0
C49 C 0.64255 0.77892 0.1597 0.0
C50 C 0.54438 0.73129 0.24544 0.0
C51 C 0.64582 0.86212 0.16143 0.0
C52 C 0.64202 0.85916 0.33872 0.0
C53 C 0.54617 0.81327 0.24638 0.0
O54 O 0.66016 0.79518 0.30167 0.0
O55 O 0.61457 0.77352 0.15345 0.0
O56 O 0.5559 0.74337 0.28706 0.0
O57 O 0.6623 0.86205 0.19746 0.0
O58 O 0.6137 0.83705 0.3435 0.0
O59 O 0.55816 0.81214 0.20544 0.0
O60 O 0.66092 0.85828 0.30747 0.0
O61 O 0.61919 0.83864 0.15071 0.0
O62 O 0.55296 0.805 0.2869 0.0
O63 O 0.66125 0.79849 0.19135 0.0
O64 O 0.61555 0.77506 0.34488 0.0
O65 O 0.55228 0.74685 0.20547 0.0
Sc66 Sc 0.82524 0.66099 0.75058 0.0
Sc67 Sc 0.78955 0.59026 0.68283 0.0
Sc68 Sc 0.78927 0.58799 0.81254 0.0
O69 O 0.80136 0.61309 0.74867 0.0
C70 C 0.85818 0.64412 0.8376 0.0
C71 C 0.85858 0.64758 0.66047 0.0
C72 C 0.81011 0.54823 0.74464 0.0
C73 C 0.77644 0.64665 0.66273 0.0
C74 C 0.77648 0.64416 0.83903 0.0
C75 C 0.72812 0.5473 0.74715 0.0
O76 O 0.8577 0.6629 0.8058 0.0
O77 O 0.83521 0.62058 0.65113 0.0
O78 O 0.8046 0.55631 0.78635 0.0
O79 O 0.79552 0.66466 0.69544 0.0
O80 O 0.77244 0.61673 0.84591 0.0
O81 O 0.74243 0.55718 0.70634 0.0
O82 O 0.79459 0.66262 0.80583 0.0
O83 O 0.77154 0.61905 0.65461 0.0
O84 O 0.74183 0.55659 0.78852 0.0
O85 O 0.85865 0.66469 0.69571 0.0
O86 O 0.83535 0.61634 0.84384 0.0
O87 O 0.8062 0.55889 0.70419 0.0
Sc88 Sc 0.15824 0.82716 0.24627 0.0
Sc89 Sc 0.19551 0.793 0.31227 0.0
Sc90 Sc 0.19529 0.79195 0.18243 0.0
O91 O 0.18303 0.80406 0.24698 0.0
C92 C 0.12574 0.77767 0.15871 0.0
C93 C 0.12612 0.78003 0.33608 0.0
C94 C 0.17578 0.73117 0.2493 0.0
C95 C 0.20722 0.86176 0.33397 0.0
C96 C 0.20604 0.86035 0.15734 0.0
C97 C 0.25695 0.81303 0.24666 0.0
O98 O 0.12606 0.79677 0.19071 0.0
O99 O 0.15001 0.7772 0.34525 0.0
O100 O 0.18155 0.74516 0.20793 0.0
O101 O 0.18755 0.86022 0.30195 0.0
O102 O 0.21054 0.83733 0.14945 0.0
O103 O 0.24265 0.8074 0.28773 0.0
O104 O 0.18822 0.86022 0.19144 0.0
O105 O 0.21319 0.83965 0.34105 0.0
O106 O 0.24309 0.80934 0.2056 0.0
O107 O 0.12534 0.7966 0.30073 0.0
O108 O 0.1488 0.77309 0.15207 0.0
O109 O 0.17901 0.74519 0.29009 0.0
Sc110 Sc 0.3247 0.16255 0.74583 0.0
Sc111 Sc 0.39602 0.19769 0.81223 0.0
Sc112 Sc 0.39709 0.19719 0.68238 0.0
O113 O 0.37261 0.1858 0.74681 0.0
C114 C 0.34 0.12842 0.65891 0.0
C115 C 0.33874 0.1291 0.83554 0.0
C116 C 0.43764 0.17697 0.74912 0.0
C117 C 0.33989 0.21133 0.83353 0.0
C118 C 0.34134 0.21058 0.65636 0.0
C119 C 0.43827 0.25878 0.74717 0.0
O120 O 0.32189 0.12912 0.6918 0.0
O121 O 0.36652 0.15164 0.84307 0.0
O122 O 0.42847 0.18122 0.70749 0.0
O123 O 0.32221 0.19358 0.79939 0.0
O124 O 0.36883 0.21476 0.64967 0.0
O125 O 0.4283 0.24508 0.78845 0.0
O126 O 0.32286 0.19241 0.68944 0.0
O127 O 0.36685 0.21478 0.84273 0.0
O128 O 0.42915 0.24445 0.70622 0.0
O129 O 0.3209 0.1299 0.80226 0.0
O130 O 0.36768 0.15117 0.65139 0.0
O131 O 0.42795 0.18199 0.78967 0.0
H132 H 0.15103 0.46059 0.3289 0.0
H133 H 0.14058 0.50432 0.33094 0.0
H134 H 0.16142 0.52025 0.17581 0.0
H135 H 0.1715 0.47636 0.17306 0.0
H136 H 0.1859 0.56483 0.30916 0.0
H137 H 0.08263 0.52787 0.18749 0.0
H138 H 0.09326 0.50034 0.21262 0.0
H139 H 0.11335 0.52351 0.15934 0.0
C140 C 0.15288 0.473 0.29496 0.0
C141 C 0.16236 0.46506 0.25086 0.0
C142 C 0.14682 0.49795 0.29623 0.0
C143 C 0.14989 0.51528 0.25344 0.0
C144 C 0.15823 0.50674 0.20903 0.0
H145 H 0.17673 0.69505 0.17309 0.0
H146 H 0.1663 0.64092 0.17703 0.0
C147 C 0.16425 0.48177 0.20766 0.0
C148 C 0.14814 0.54449 0.25635 0.0
H149 H 0.11355 0.58319 0.20482 0.0
C150 C 0.16974 0.5687 0.28699 0.0
C151 C 0.12714 0.54945 0.22714 0.0
C152 C 0.10257 0.5238 0.19514 0.0
C153 C 0.17188 0.59827 0.28766 0.0
C154 C 0.15139 0.60352 0.25756 0.0
C155 C 0.1292 0.57905 0.22785 0.0
C156 C 0.1541 0.63488 0.2544 0.0
C157 C 0.19704 0.62404 0.31889 0.0
C158 C 0.14975 0.64902 0.29628 0.0
C159 C 0.15598 0.68006 0.29434 0.0
C160 C 0.16633 0.69739 0.25025 0.0
C161 C 0.16897 0.68249 0.20769 0.0
C162 C 0.16294 0.65152 0.20981 0.0
H163 H 0.21518 0.61821 0.33097 0.0
H164 H 0.2089 0.64666 0.29843 0.0
H165 H 0.18606 0.62742 0.35233 0.0
H166 H 0.14229 0.63629 0.33079 0.0
H167 H 0.15325 0.69064 0.32763 0.0
H168 H 0.68915 0.16429 0.83286 0.0
H169 H 0.6351 0.15421 0.83546 0.0
H170 H 0.63402 0.1592 0.67696 0.0
H171 H 0.68783 0.16884 0.67375 0.0
H172 H 0.61837 0.19645 0.80129 0.0
H173 H 0.54874 0.08205 0.70591 0.0
H174 H 0.58789 0.09544 0.72939 0.0
H175 H 0.58249 0.10995 0.67149 0.0
C176 C 0.67729 0.16273 0.79844 0.0
C177 C 0.69299 0.16759 0.75308 0.0
C178 C 0.64636 0.1569 0.80004 0.0
C179 C 0.63045 0.15561 0.7564 0.0
C180 C 0.64562 0.15941 0.71102 0.0
H181 H 0.4711 0.17223 0.67189 0.0
H182 H 0.51582 0.16329 0.67627 0.0
C183 C 0.67653 0.16519 0.70933 0.0
C184 C 0.59945 0.15386 0.75853 0.0
H185 H 0.52399 0.11334 0.71548 0.0
C186 C 0.5976 0.17802 0.78316 0.0
C187 C 0.57251 0.12991 0.73453 0.0
C188 C 0.57284 0.10269 0.70922 0.0
C189 C 0.56982 0.17954 0.78304 0.0
C190 C 0.543 0.1559 0.75834 0.0
C191 C 0.54462 0.13138 0.7344 0.0
C192 C 0.51359 0.15724 0.75536 0.0
C193 C 0.56978 0.20712 0.80773 0.0
C194 C 0.49694 0.15572 0.79822 0.0
C195 C 0.47151 0.16101 0.79597 0.0
C196 C 0.46212 0.16769 0.75067 0.0
C197 C 0.47777 0.16735 0.70741 0.0
C198 C 0.5033 0.16218 0.70978 0.0
H199 H 0.59402 0.22659 0.81546 0.0
H200 H 0.55759 0.21638 0.7845 0.0
H201 H 0.55703 0.19932 0.84331 0.0
H202 H 0.50422 0.15136 0.83363 0.0
H203 H 0.45976 0.16066 0.82995 0.0
H204 H 0.27832 0.49661 0.30369 0.0
H205 H 0.33205 0.54096 0.30162 0.0
H206 H 0.35891 0.4891 0.20337 0.0
H207 H 0.30429 0.44561 0.20237 0.0
H208 H 0.38551 0.55051 0.32793 0.0
H209 H 0.39069 0.56624 0.12507 0.0
H210 H 0.35498 0.53888 0.15629 0.0
H211 H 0.38476 0.52856 0.14331 0.0
C212 C 0.29575 0.49475 0.28167 0.0
C213 C 0.28727 0.46799 0.25278 0.0
C214 C 0.32648 0.52005 0.28054 0.0
C215 C 0.34954 0.51879 0.25143 0.0
C216 C 0.34139 0.49122 0.22462 0.0
H217 H 0.54056 0.68143 0.29614 0.0
H218 H 0.49673 0.62699 0.29566 0.0
C219 C 0.31031 0.46628 0.22442 0.0
C220 C 0.38168 0.54675 0.2489 0.0
H221 H 0.43662 0.59962 0.16949 0.0
C222 C 0.39668 0.56128 0.29324 0.0
C223 C 0.39627 0.56089 0.20362 0.0
C224 C 0.38073 0.54804 0.15442 0.0
C225 C 0.42487 0.59024 0.29375 0.0
C226 C 0.43957 0.60426 0.24847 0.0
C227 C 0.42541 0.58889 0.20418 0.0
C228 C 0.46778 0.63623 0.24573 0.0
C229 C 0.43734 0.60624 0.34278 0.0
C230 C 0.46706 0.65911 0.21546 0.0
C231 C 0.49256 0.68971 0.21408 0.0
C232 C 0.51899 0.69826 0.24385 0.0
C233 C 0.52017 0.67537 0.27337 0.0
C234 C 0.49502 0.64439 0.27346 0.0
H235 H 0.41883 0.59674 0.37171 0.0
H236 H 0.45656 0.60211 0.35504 0.0
H237 H 0.44675 0.63199 0.34007 0.0
H238 H 0.44641 0.65351 0.19365 0.0
H239 H 0.49108 0.70702 0.19117 0.0
H240 H 0.81577 0.51531 0.82173 0.0
H241 H 0.82566 0.47132 0.81739 0.0
H242 H 0.8363 0.48217 0.65974 0.0
H243 H 0.82599 0.52595 0.66344 0.0
H244 H 0.79291 0.42246 0.68832 0.0
H245 H 0.90343 0.46342 0.79344 0.0
H246 H 0.87449 0.46847 0.82629 0.0
H247 H 0.89106 0.49007 0.77026 0.0
C248 C 0.82074 0.50876 0.78616 0.0
C249 C 0.8198 0.52406 0.74288 0.0
C250 C 0.82666 0.48373 0.78383 0.0
C251 C 0.83208 0.47374 0.73832 0.0
C252 C 0.83233 0.48966 0.69527 0.0
H253 H 0.82607 0.29722 0.66336 0.0
H254 H 0.83635 0.35132 0.65925 0.0
C255 C 0.82635 0.51464 0.6975 0.0
C256 C 0.83378 0.4445 0.73511 0.0
H257 H 0.8719 0.40766 0.78057 0.0
C258 C 0.81048 0.41936 0.70782 0.0
C259 C 0.85664 0.44054 0.76083 0.0
C260 C 0.88301 0.46717 0.78898 0.0
C261 C 0.80857 0.38989 0.70718 0.0
C262 C 0.83098 0.38568 0.73383 0.0
C263 C 0.85479 0.41103 0.76017 0.0
C264 C 0.82876 0.35453 0.73702 0.0
C265 C 0.78174 0.36317 0.67976 0.0
C266 C 0.82249 0.339 0.7825 0.0
C267 C 0.81681 0.30816 0.78512 0.0
C268 C 0.81726 0.29228 0.74221 0.0
C269 C 0.82509 0.30855 0.69704 0.0
C270 C 0.83093 0.33945 0.69455 0.0
H271 H 0.76285 0.36854 0.6704 0.0
H272 H 0.79073 0.35883 0.64485 0.0
H273 H 0.77128 0.34118 0.70185 0.0
H274 H 0.82084 0.35033 0.81573 0.0
H275 H 0.81104 0.29646 0.82056 0.0
H276 H 0.50995 0.81254 0.32386 0.0
H277 H 0.46546 0.82184 0.32114 0.0
H278 H 0.48259 0.84491 0.16684 0.0
H279 H 0.5269 0.83529 0.1688 0.0
H280 H 0.45868 0.87436 0.29108 0.0
H281 H 0.39227 0.76898 0.17191 0.0
H282 H 0.42758 0.77684 0.20433 0.0
H283 H 0.43016 0.79811 0.14904 0.0
C284 C 0.50455 0.81993 0.2894 0.0
C285 C 0.52174 0.82266 0.24635 0.0
C286 C 0.47914 0.82531 0.288 0.0
C287 C 0.47048 0.83352 0.24362 0.0
C288 C 0.48862 0.83804 0.20125 0.0
H289 H 0.29688 0.8309 0.1675 0.0
H290 H 0.35103 0.84129 0.16597 0.0
C291 C 0.51397 0.83257 0.20252 0.0
C292 C 0.44119 0.83512 0.24103 0.0
H293 H 0.36722 0.79766 0.19221 0.0
C294 C 0.43869 0.85774 0.26929 0.0
C295 C 0.41522 0.81334 0.2126 0.0
C296 C 0.41618 0.78775 0.18301 0.0
C297 C 0.41076 0.85912 0.26988 0.0
C298 C 0.38461 0.83694 0.24216 0.0
C299 C 0.38738 0.81473 0.21324 0.0
C300 C 0.3535 0.83497 0.24438 0.0
C301 C 0.40955 0.88437 0.29992 0.0
C302 C 0.33704 0.82831 0.28911 0.0
C303 C 0.30606 0.82238 0.29019 0.0
C304 C 0.29081 0.82264 0.24641 0.0
C305 C 0.30777 0.83033 0.20189 0.0
C306 C 0.33878 0.83635 0.20091 0.0
H307 H 0.43348 0.90477 0.30624 0.0
H308 H 0.3949 0.89282 0.28158 0.0
H309 H 0.399 0.87458 0.33641 0.0
H310 H 0.34769 0.82641 0.32293 0.0
H311 H 0.29373 0.81648 0.32511 0.0
H312 H 0.69068 0.51465 0.82544 0.0
H313 H 0.63711 0.46985 0.82267 0.0
H314 H 0.63545 0.47932 0.66499 0.0
H315 H 0.68916 0.52388 0.66706 0.0
H316 H 0.57877 0.4612 0.78438 0.0
H317 H 0.62105 0.3898 0.68597 0.0
H318 H 0.64752 0.42664 0.7156 0.0
H319 H 0.63053 0.42637 0.65683 0.0
C320 C 0.67887 0.50747 0.79016 0.0
C321 C 0.69446 0.52258 0.74635 0.0
C322 C 0.64822 0.48191 0.78872 0.0
C323 C 0.63264 0.47103 0.74356 0.0
C324 C 0.64738 0.48708 0.70011 0.0
H325 H 0.46351 0.29714 0.66693 0.0
H326 H 0.50784 0.35088 0.66541 0.0
C327 C 0.67806 0.51256 0.70143 0.0
C328 C 0.60188 0.44163 0.74165 0.0
H329 H 0.56657 0.36592 0.70024 0.0
C330 C 0.57598 0.44036 0.76587 0.0
C331 C 0.59848 0.41452 0.71761 0.0
C332 C 0.62588 0.41415 0.69285 0.0
C333 C 0.54657 0.41258 0.7664 0.0
C334 C 0.54331 0.38543 0.74272 0.0
C335 C 0.56914 0.38687 0.71809 0.0
C336 C 0.5138 0.35472 0.74451 0.0
C337 C 0.51924 0.41257 0.79189 0.0
C338 C 0.50224 0.33923 0.78962 0.0
C339 C 0.47687 0.30844 0.79071 0.0
C340 C 0.46282 0.2925 0.74661 0.0
C341 C 0.47383 0.30858 0.7016 0.0
C342 C 0.49913 0.33934 0.7006 0.0
H343 H 0.52308 0.43679 0.79589 0.0
H344 H 0.49696 0.39803 0.77141 0.0
H345 H 0.51652 0.40244 0.82932 0.0
H346 H 0.51365 0.35046 0.82387 0.0
H347 H 0.46905 0.2968 0.82601 0.0
H348 H 0.28995 0.22021 0.81569 0.0
H349 H 0.26994 0.2467 0.86838 0.0
H350 H 0.34274 0.26612 0.97486 0.0
H351 H 0.36344 0.24046 0.9219 0.0
H352 H 0.24642 0.23068 0.95927 0.0
H353 H 0.34958 0.35119 0.96291 0.0
H354 H 0.34611 0.32174 0.91953 0.0
H355 H 0.35927 0.32196 0.98151 0.0
C356 C 0.30189 0.23035 0.85013 0.0
C357 C 0.32834 0.22826 0.86454 0.0
C358 C 0.29044 0.24551 0.88015 0.0
C359 C 0.30514 0.2588 0.92518 0.0
C360 C 0.33153 0.25678 0.93968 0.0
H361 H 0.21602 0.29468 0.1724 0.0
H362 H 0.24044 0.27456 0.11561 0.0
C363 C 0.3432 0.2419 0.90947 0.0
C364 C 0.2917 0.27307 0.95827 0.0
H365 H 0.30965 0.33958 0.0232 0.0
C366 C 0.26019 0.25457 0.97297 0.0
C367 C 0.30957 0.30437 0.97559 0.0
C368 C 0.3429 0.32608 0.95868 0.0
C369 C 0.24621 0.26629 0.00529 0.0
C370 C 0.26452 0.29705 0.02449 0.0
C371 C 0.29583 0.31583 0.00898 0.0
C372 C 0.25141 0.31028 0.06016 0.0
C373 C 0.21181 0.24576 0.01791 0.0
C374 C 0.25071 0.3378 0.04869 0.0
C375 C 0.23713 0.34962 0.08133 0.0
C376 C 0.22395 0.33407 0.12605 0.0
C377 C 0.22558 0.30701 0.13803 0.0
C378 C 0.23938 0.29537 0.10551 0.0
H379 H 0.19927 0.22708 0.98986 0.0
H380 H 0.20969 0.23406 0.05382 0.0
H381 H 0.19989 0.25989 0.02098 0.0
H382 H 0.26007 0.34977 0.01398 0.0
H383 H 0.23636 0.37055 0.07095 0.0
H384 H 0.85864 0.23536 0.56781 0.0
H385 H 0.90279 0.25818 0.51011 0.0
H386 H 0.95846 0.23865 0.61178 0.0
H387 H 0.91432 0.21517 0.66926 0.0
H388 H 0.96249 0.30771 0.51928 0.0
H389 H 0.96509 0.19752 0.48621 0.0
H390 H 0.93281 0.19807 0.5172 0.0
H391 H 0.96835 0.20781 0.55022 0.0
C392 C 0.88027 0.23592 0.57798 0.0
C393 C 0.88281 0.22314 0.623 0.0
C394 C 0.90546 0.24897 0.54493 0.0
C395 C 0.93363 0.24951 0.55627 0.0
C396 C 0.93662 0.2377 0.60176 0.0
H397 H 0.1165 0.36254 0.42341 0.0
H398 H 0.06953 0.3408 0.47505 0.0
C399 C 0.9114 0.22444 0.63469 0.0
C400 C 0.96001 0.26261 0.52066 0.0
H401 H 0.00907 0.24488 0.45679 0.0
C402 C 0.97258 0.29395 0.50533 0.0
C403 C 0.97271 0.2444 0.50182 0.0
C404 C 0.95885 0.20999 0.51428 0.0
C405 C -0.00187 0.30786 0.47265 0.0
C406 C 0.01186 0.29013 0.45585 0.0
C407 C -0.00127 0.25854 0.47016 0.0
C408 C 0.04007 0.30388 0.42384 0.0
C409 C 0.00989 0.34127 0.45602 0.0
C410 C 0.03934 0.28983 0.37846 0.0
C411 C 0.06629 0.30191 0.34911 0.0
C412 C 0.09451 0.32831 0.36463 0.0
C413 C 0.09511 0.34236 0.41011 0.0
C414 C 0.06821 0.3301 0.43957 0.0
H415 H 0.99139 0.34792 0.45971 0.0
H416 H 0.0301 0.35752 0.47939 0.0
H417 H 0.01787 0.34467 0.41708 0.0
H418 H 0.01788 0.26946 0.36577 0.0
H419 H 0.06496 0.29055 0.31426 0.0
H420 H 0.77119 0.07196 0.82533 0.0
H421 H 0.74674 0.02691 0.88092 0.0
H422 H 0.727 0.08146 0.98464 0.0
H423 H 0.75075 0.12651 0.92875 0.0
H424 H 0.76425 0.02217 0.97331 0.0
H425 H 0.64231 0.00178 0.97446 0.0
H426 H 0.6714 0.02717 0.93018 0.0
H427 H 0.67144 0.0411 0.9915 0.0
C428 C 0.76148 0.07438 0.85981 0.0
C429 C 0.76287 0.10286 0.87251 0.0
C430 C 0.74751 0.04858 0.89153 0.0
C431 C 0.73469 0.05071 0.9366 0.0
C432 C 0.73609 0.07908 0.94953 0.0
H433 H 0.6961 0.92064 0.18007 0.0
H434 H 0.71743 0.96704 0.12704 0.0
C435 C 0.74983 0.10486 0.91762 0.0
C436 C 0.72105 0.02355 0.97075 0.0
H437 H 0.65402 0.97288 0.03268 0.0
C438 C 0.74012 0.01133 0.98622 0.0
C439 C 0.68948 0.00928 0.98708 0.0
C440 C 0.66735 0.02027 0.96962 0.0
C441 C 0.72853 0.98525 0.01773 0.0
C442 C 0.69724 0.97155 0.03524 0.0
C443 C 0.6781 0.98366 0.0196 0.0
C444 C 0.68359 0.94395 0.06849 0.0
C445 C 0.74967 0.97216 0.03089 0.0
C446 C 0.6568 0.91593 0.05394 0.0
C447 C 0.64428 0.88948 0.08441 0.0
C448 C 0.6584 0.89054 0.13002 0.0
C449 C 0.68488 0.91888 0.14493 0.0
C450 C 0.69721 0.9454 0.11458 0.0
H451 H 0.76937 0.97975 0.00426 0.0
H452 H 0.76001 0.98087 0.06786 0.0
H453 H 0.73627 0.94604 0.03198 0.0
H454 H 0.64586 0.91437 0.01859 0.0
H455 H 0.62385 0.86807 0.07178 0.0
H456 H 0.70117 0.78457 0.3387 0.0
H457 H 0.7205 0.75918 0.39481 0.0
H458 H 0.62897 0.70859 0.463 0.0
H459 H 0.60947 0.73434 0.40768 0.0
H460 H 0.67623 0.73564 0.5305 0.0
H461 H 0.70358 0.66942 0.3927 0.0
H462 H 0.72228 0.71069 0.37918 0.0
H463 H 0.68001 0.6872 0.37824 0.0
C464 C 0.68501 0.76785 0.3653 0.0
C465 C 0.65372 0.76148 0.36858 0.0
C466 C 0.69609 0.75323 0.39719 0.0
C467 C 0.67603 0.73165 0.43252 0.0
C468 C 0.64478 0.72509 0.43581 0.0
H469 H 0.72681 0.61274 0.60076 0.0
H470 H 0.70023 0.63238 0.54772 0.0
C471 C 0.6337 0.73983 0.40411 0.0
C472 C 0.68808 0.71697 0.46739 0.0
H473 H 0.72512 0.67386 0.47318 0.0
C474 C 0.68669 0.7219 0.51805 0.0
C475 C 0.70127 0.69867 0.45106 0.0
C476 C 0.70161 0.69088 0.39736 0.0
C477 C 0.69896 0.70973 0.55282 0.0
C478 C 0.71361 0.69282 0.5363 0.0
C479 C 0.7142 0.68715 0.48573 0.0
C480 C 0.72869 0.6809 0.57067 0.0
C481 C 0.69582 0.71486 0.60685 0.0
C482 C 0.75354 0.7017 0.60117 0.0
C483 C 0.76869 0.69054 0.63186 0.0
C484 C 0.75955 0.65841 0.63201 0.0
C485 C 0.73456 0.63765 0.60146 0.0
C486 C 0.7193 0.6488 0.57111 0.0
H487 H 0.6762 0.71958 0.61364 0.0
H488 H 0.6917 0.69413 0.62906 0.0
H489 H 0.71788 0.7356 0.61988 0.0
H490 H 0.76168 0.72668 0.60052 0.0
H491 H 0.78799 0.7072 0.65461 0.0
H492 H 0.90893 0.70369 0.84411 0.0
H493 H 0.95451 0.72213 0.8982 0.0
H494 H 0.91732 0.62835 0.95636 0.0
H495 H 0.87125 0.60968 0.90308 0.0
H496 H 0.93687 0.67254 0.02864 0.0
H497 H 0.02946 0.70874 0.88616 0.0
H498 H 0.00551 0.72654 0.87758 0.0
H499 H 0.98809 0.68452 0.87235 0.0
C500 C 0.91048 0.68688 0.8681 0.0
C501 C 0.88639 0.65518 0.86917 0.0
C502 C 0.93669 0.69745 0.89878 0.0
C503 C 0.93953 0.67649 0.93066 0.0
C504 C 0.91562 0.64485 0.93179 0.0
H505 H 0.11298 0.73053 0.09261 0.0
H506 H 0.06688 0.70313 0.03936 0.0
C507 C 0.88931 0.63426 0.90131 0.0
C508 C 0.96672 0.68797 0.96448 0.0
H509 H 0.04699 0.72796 0.96782 0.0
C510 C 0.96096 0.68439 0.01537 0.0
C511 C -0.00192 0.70293 0.94704 0.0
C512 C 0.0057 0.70564 0.89278 0.0
C513 C 0.98578 0.69639 0.0494 0.0
C514 C 0.01714 0.71298 0.03198 0.0
C515 C 0.02291 0.71556 0.98108 0.0
C516 C 0.04432 0.7286 0.06586 0.0
C517 C 0.97817 0.69107 0.10363 0.0
C518 C 0.04696 0.75211 0.09818 0.0
C519 C 0.07316 0.76772 0.12884 0.0
C520 C 0.09747 0.76039 0.1273 0.0
C521 C 0.09474 0.73681 0.09475 0.0
C522 C 0.06842 0.72111 0.06428 0.0
H523 H 0.95449 0.67029 0.11003 0.0
H524 H -0.00412 0.68756 0.12379 0.0
H525 H 0.97817 0.71196 0.11931 0.0
H526 H 0.02898 0.75879 0.09911 0.0
H527 H 0.07456 0.78589 0.15315 0.0
H528 H 0.37278 0.11465 0.59111 0.0
H529 H 0.35217 0.06934 0.53584 0.0
H530 H 0.25953 0.0336 0.59797 0.0
H531 H 0.27992 0.07843 0.65408 0.0
H532 H 0.27557 0.98778 0.58633 0.0
H533 H 0.29833 0.05741 0.41464 0.0
H534 H 0.33252 0.06956 0.45247 0.0
H535 H 0.30034 0.0738 0.47494 0.0
C536 C 0.34801 0.09716 0.59312 0.0
C537 C 0.32796 0.10033 0.62683 0.0
C538 C 0.33627 0.07137 0.56129 0.0
C539 C 0.30423 0.0485 0.5622 0.0
C540 C 0.28431 0.05114 0.59654 0.0
H541 H 0.19487 0.91026 0.34095 0.0
H542 H 0.21931 0.95544 0.39647 0.0
C543 C 0.29604 0.0768 0.62858 0.0
C544 C 0.29136 0.0217 0.52746 0.0
H545 H 0.28077 0.00306 0.40519 0.0
C546 C 0.27668 0.99107 0.54672 0.0
C547 C 0.29252 0.02615 0.47585 0.0
C548 C 0.3065 0.05848 0.45313 0.0
C549 C 0.26322 0.96469 0.5157 0.0
C550 C 0.26513 0.96915 0.46407 0.0
C551 C 0.27966 -0.00023 0.44481 0.0
C552 C 0.25129 0.94231 0.42941 0.0
C553 C 0.2464 0.93231 0.53855 0.0
C554 C 0.26167 0.92035 0.42887 0.0
C555 C 0.24764 0.89439 0.39742 0.0
C556 C 0.22318 0.89011 0.36551 0.0
C557 C 0.21357 0.91276 0.36508 0.0
C558 C 0.2275 0.93861 0.39678 0.0
H559 H 0.23999 0.9331 0.57758 0.0
H560 H 0.22464 0.9164 0.51779 0.0
H561 H 0.26211 0.92209 0.53772 0.0
H562 H 0.28053 0.92322 0.45296 0.0
H563 H 0.25588 0.87761 0.39834 0.0
H564 H 0.60829 0.72987 0.09652 0.0
H565 H 0.62747 0.70248 0.04414 0.0
H566 H 0.72172 0.76243 0.09838 0.0
H567 H 0.70276 0.78951 0.15165 0.0
H568 H 0.66989 0.72593 0.9702 0.0
H569 H 0.71222 0.67612 0.1143 0.0
H570 H 0.68729 0.6925 0.12803 0.0
H571 H 0.72904 0.71791 0.12022 0.0
C572 C 0.63308 0.73713 0.09762 0.0
C573 C 0.65396 0.76187 0.12848 0.0
C574 C 0.64398 0.72141 0.06765 0.0
C575 C 0.67591 0.73006 0.06796 0.0
C576 C 0.69683 0.75481 0.09849 0.0
H577 H 0.78315 0.70298 0.84258 0.0
H578 H 0.75654 0.72166 0.89735 0.0
C579 C 0.68596 0.77042 0.1287 0.0
C580 C 0.68765 0.71427 0.03461 0.0
H581 H 0.73012 0.67641 0.03209 0.0
C582 C 0.6828 0.71483 0.98375 0.0
C583 C 0.70403 0.69933 0.05239 0.0
C584 C 0.70818 0.6961 0.10676 0.0
C585 C 0.69483 0.70182 0.95005 0.0
C586 C 0.71279 0.68855 0.96768 0.0
C587 C 0.71668 0.68697 0.01862 0.0
C588 C 0.7284 0.67688 0.93386 0.0
C589 C 0.68804 0.70229 0.89594 0.0
C590 C 0.72201 0.64568 0.93705 0.0
C591 C 0.73745 0.63495 0.90609 0.0
C592 C 0.75968 0.65529 0.87143 0.0
C593 C 0.76602 0.68657 0.8685 0.0
C594 C 0.75068 0.69728 0.8996 0.0
H595 H 0.66659 0.70414 0.89006 0.0
H596 H 0.70812 0.72309 0.87848 0.0
H597 H 0.68485 0.68081 0.87705 0.0
H598 H 0.70503 0.62961 0.96347 0.0
H599 H 0.73197 0.61072 0.90942 0.0
H600 H 0.91674 0.69928 0.67564 0.0
H601 H 0.96245 0.72019 0.62114 0.0
H602 H 0.90976 0.64518 0.51771 0.0
H603 H 0.86415 0.62361 0.5724 0.0
H604 H 0.96908 0.6554 0.53092 0.0
H605 H 0.97222 0.76827 0.49498 0.0
H606 H 0.97442 0.76092 0.5592 0.0
H607 H 0.93938 0.73546 0.52488 0.0
C608 C 0.91482 0.6872 0.64129 0.0
C609 C 0.88666 0.65989 0.62824 0.0
C610 C 0.94095 0.6993 0.61008 0.0
C611 C 0.93928 0.6846 0.56494 0.0
C612 C 0.91148 0.65698 0.55228 0.0
H613 H 0.06707 0.77089 0.31987 0.0
H614 H 0.02158 0.74596 0.37467 0.0
C615 C 0.88542 0.64471 0.58361 0.0
C616 C 0.96648 0.69796 0.53079 0.0
H617 H 0.01551 0.764 0.46545 0.0
C618 C 0.97921 0.67912 0.51646 0.0
C619 C 0.97931 0.72873 0.5114 0.0
C620 C 0.96546 0.74943 0.52297 0.0
C621 C 0.0047 0.69034 0.48365 0.0
C622 C 0.01822 0.7215 0.46566 0.0
C623 C 0.00527 0.74021 0.47962 0.0
C624 C 0.04555 0.73517 0.43173 0.0
C625 C 0.01639 0.66848 0.4678 0.0
C626 C 0.07417 0.73741 0.44564 0.0
C627 C 0.10019 0.75141 0.41418 0.0
C628 C 0.09821 0.76391 0.36854 0.0
C629 C 0.06947 0.76161 0.35478 0.0
C630 C 0.04342 0.74736 0.38606 0.0
H631 H -0.00181 0.6434 0.47325 0.0
H632 H 0.02352 0.6721 0.42845 0.0
H633 H 0.0372 0.67325 0.49033 0.0
H634 H 0.07658 0.72886 0.48122 0.0
H635 H 0.12202 0.75303 0.42614 0.0
H636 H 0.19615 0.9105 0.15349 0.0
H637 H 0.22032 0.95546 0.09774 0.0
H638 H 0.27588 0.9191 0.03237 0.0
H639 H 0.25134 0.87356 0.08731 0.0
H640 H 0.28165 0.00078 0.08619 0.0
H641 H 0.23488 0.93334 0.91265 0.0
H642 H 0.22057 0.91615 0.97253 0.0
H643 H 0.25699 0.92073 0.94938 0.0
C644 C 0.2135 0.91197 0.12729 0.0
C645 C 0.22161 0.88824 0.12468 0.0
C646 C 0.22729 0.93773 0.09544 0.0
C647 C 0.24949 0.94034 0.06038 0.0
C648 C 0.25824 0.91714 0.05838 0.0
H649 H 0.37158 0.11381 0.90084 0.0
H650 H 0.35093 0.06787 0.95475 0.0
C651 C 0.2443 0.89122 0.09002 0.0
C652 C 0.26357 0.96757 0.02635 0.0
H653 H 0.27167 0.98778 0.9047 0.0
C654 C 0.2795 -0.00202 0.04649 0.0
C655 C 0.26034 0.96379 0.97462 0.0
C656 C 0.24202 0.93177 0.95091 0.0
C657 C 0.29234 0.02477 0.01632 0.0
C658 C 0.28981 0.02098 0.96455 0.0
C659 C 0.27382 0.99058 0.9444 0.0
C660 C 0.30265 0.04829 0.93068 0.0
C661 C 0.30772 0.05682 0.04026 0.0
C662 C 0.28254 0.05194 0.89801 0.0
C663 C 0.2943 0.07797 0.86669 0.0
C664 C 0.32644 0.10091 0.8675 0.0
C665 C 0.34664 0.09682 0.89965 0.0
C666 C 0.33487 0.07065 0.9307 0.0
H667 H 0.30032 0.05549 0.07929 0.0
H668 H 0.33365 0.06707 0.03969 0.0
H669 H 0.30194 0.07301 0.02015 0.0
H670 H 0.2576 0.03486 0.89727 0.0
H671 H 0.27807 0.08031 0.84239 0.0
H672 H 0.37504 0.2559 0.58722 0.0
H673 H 0.35608 0.28278 0.53318 0.0
H674 H 0.2634 0.22942 0.59672 0.0
H675 H 0.28214 0.20289 0.65149 0.0
H676 H 0.31009 0.25788 0.4633 0.0
H677 H 0.27935 0.31869 0.60599 0.0
H678 H 0.30304 0.30085 0.61912 0.0
H679 H 0.26081 0.27708 0.61642 0.0
C680 C 0.35066 0.25 0.58997 0.0
C681 C 0.33016 0.2273 0.62392 0.0
C682 C 0.33989 0.2654 0.55903 0.0
C683 C 0.30848 0.25847 0.56153 0.0
C684 C 0.28792 0.23569 0.59504 0.0
H685 H 0.19673 0.28451 0.34259 0.0
H686 H 0.22378 0.26549 0.39582 0.0
C687 C 0.29867 0.2204 0.62614 0.0
C688 C 0.2968 0.2741 0.5278 0.0
H689 H 0.25834 0.31596 0.52541 0.0
C690 C 0.29904 0.27084 0.47683 0.0
C691 C 0.28288 0.29145 0.54552 0.0
C692 C 0.28165 0.29754 0.59975 0.0
C693 C 0.28672 0.28354 0.44308 0.0
C694 C 0.27116 0.2993 0.4609 0.0
C695 C 0.26992 0.30352 0.51182 0.0
C696 C 0.25546 0.31109 0.42751 0.0
C697 C 0.29065 0.2801 0.3887 0.0
C698 C 0.26377 0.34292 0.42852 0.0
C699 C 0.24809 0.35384 0.39856 0.0
C700 C 0.22371 0.33309 0.36704 0.0
C701 C 0.21552 0.30121 0.36609 0.0
C702 C 0.23111 0.2903 0.39628 0.0
H703 H 0.31088 0.27642 0.38142 0.0
H704 H 0.26911 0.25928 0.37442 0.0
H705 H 0.29426 0.30116 0.36793 0.0
H706 H 0.28239 0.35932 0.45258 0.0
H707 H 0.25507 0.37854 0.40022 0.0
H708 H 0.87356 0.26041 0.89947 0.0
H709 H 0.91995 0.28716 0.95222 0.0
H710 H 0.95588 0.22986 0.89218 0.0
H711 H 0.90993 0.20334 0.83863 0.0
H712 H 0.93871 0.26106 0.02363 0.0
H713 H 0.03181 0.31773 0.88187 0.0
H714 H 0.99054 0.30137 0.868 0.0
H715 H 0.00729 0.27614 0.8726 0.0
C716 C 0.89143 0.25364 0.89709 0.0
C717 C 0.88798 0.2297 0.86469 0.0
C718 C 0.91793 0.26898 0.9273 0.0
C719 C 0.94153 0.26079 0.92562 0.0
C720 C 0.93828 0.23705 0.89325 0.0
H721 H 0.07665 0.28568 0.14911 0.0
H722 H 0.03157 0.26671 0.0938 0.0
C723 C 0.91186 0.22177 0.86286 0.0
C724 C 0.96872 0.27586 0.95964 0.0
H725 H 0.04901 0.31581 0.96357 0.0
C726 C 0.96284 0.27327 0.01052 0.0
C727 C 0.00014 0.29215 0.94243 0.0
C728 C 0.00788 0.29733 0.88824 0.0
C729 C 0.98757 0.28573 0.04472 0.0
C730 C 0.01898 0.3006 0.02751 0.0
C731 C 0.02488 0.30406 0.97665 0.0
C732 C 0.04606 0.31231 0.06164 0.0
C733 C 0.97984 0.28304 0.09894 0.0
C734 C 0.06953 0.34413 0.0611 0.0
C735 C 0.09553 0.35507 0.09238 0.0
C736 C 0.09861 0.33431 0.12469 0.0
C737 C 0.075 0.30239 0.12501 0.0
C738 C 0.04908 0.2915 0.0936 0.0
H739 H 0.95592 0.27955 0.10542 0.0
H740 H 0.98043 0.2624 0.11438 0.0
H741 H -0.0028 0.30434 0.11927 0.0
H742 H 0.06769 0.36053 0.03649 0.0
H743 H 0.11323 0.37978 0.09108 0.0
H744 H 0.7025 0.90792 0.34793 0.0
H745 H 0.72223 0.9524 0.40457 0.0
H746 H 0.62829 0.91824 0.46023 0.0
H747 H 0.60829 0.87323 0.40434 0.0
H748 H 0.70705 -0.00102 0.41262 0.0
H749 H 0.67861 0.92957 0.58558 0.0
H750 H 0.67782 0.91288 0.52599 0.0
H751 H 0.6456 0.91804 0.54525 0.0
C752 C 0.68595 0.90977 0.37217 0.0
C753 C 0.6538 0.88682 0.37178 0.0
C754 C 0.69731 0.93525 0.40453 0.0
C755 C 0.67681 0.93831 0.43713 0.0
C756 C 0.64462 0.9159 0.43614 0.0
H757 H 0.72626 0.11105 0.59713 0.0
H758 H 0.7011 0.06499 0.54346 0.0
C759 C 0.63322 0.89029 0.40395 0.0
C760 C 0.68926 0.96521 0.47172 0.0
H761 H 0.69755 0.98425 0.59388 0.0
C762 C 0.70496 -0.00421 0.45226 0.0
C763 C 0.6868 0.96091 0.52339 0.0
C764 C 0.67157 0.9286 0.54644 0.0
C765 C 0.71827 0.02227 0.48309 0.0
C766 C 0.71519 0.01798 0.53474 0.0
C767 C 0.69956 0.98741 0.55423 0.0
C768 C 0.72909 0.04497 0.56917 0.0
C769 C 0.73624 0.05455 0.46011 0.0
C770 C 0.75233 0.04834 0.60269 0.0
C771 C 0.7666 0.07448 0.63378 0.0
C772 C 0.75785 0.09777 0.63192 0.0
C773 C 0.73384 0.09379 0.59922 0.0
C774 C 0.71951 0.06755 0.56831 0.0
H775 H 0.74309 0.05345 0.42146 0.0
H776 H 0.72116 0.06549 0.45984 0.0
H777 H 0.75784 0.07002 0.48153 0.0
H778 H 0.75991 0.03104 0.60407 0.0
H779 H 0.7849 0.0767 0.65858 0.0
loop_
_geom_bond_atom_site_label_1
_geom_bond_atom_site_label_2
_geom_bond_distance
_geom_bond_site_symmetry_2
_ccdc_geom_bond_type
Sc0 O3 2.025 . S
Sc0 O10 2.105 . S
Sc0 O13 2.105 . S
Sc0 O16 2.105 . S
Sc0 O19 2.105 . S
Sc1 O3 2.025 . S
Sc1 O11 2.105 . S
Sc1 O15 2.105 . S
Sc1 O17 2.105 . S
Sc1 O21 2.105 . S
Sc2 O3 2.025 . S
Sc2 O12 2.105 . S
Sc2 O14 2.105 . S
Sc2 O18 2.105 . S
Sc2 O20 2.105 . S
O3 Sc0 2.025 . S
O3 Sc1 2.025 . S
O3 Sc2 2.025 . S
C4 O10 1.268 . S
C4 O20 1.268 . S
C5 O11 1.268 . S
C5 O19 1.268 . S
C6 O12 1.268 . S
C6 O21 1.268 . S
C7 O13 1.268 . S
C7 O17 1.268 . S
C8 O14 1.268 . S
C8 O16 1.268 . S
C9 O15 1.268 . S
C9 O18 1.268 . S
O10 Sc0 2.105 . S
O10 C4 1.268 . S
O11 Sc1 2.105 . S
O11 C5 1.268 . S
O12 Sc2 2.105 . S
O12 C6 1.268 . S
O13 Sc0 2.105 . S
O13 C7 1.268 . S
O14 Sc2 2.105 . S
O14 C8 1.268 . S
O15 Sc1 2.105 . S
O15 C9 1.268 . S
O16 Sc0 2.105 . S
O16 C8 1.268 . S
O17 Sc1 2.105 . S
O17 C7 1.268 . S
O18 Sc2 2.105 . S
O18 C9 1.268 . S
O19 Sc0 2.105 . S
O19 C5 1.268 . S
O20 Sc2 2.105 . S
O20 C4 1.268 . S
O21 Sc1 2.105 . S
O21 C6 1.268 . S
Sc22 O25 2.025 . S
Sc22 O32 2.105 . S
Sc22 O35 2.105 . S
Sc22 O38 2.105 . S
Sc22 O41 2.105 . S
Sc23 O25 2.025 . S
Sc23 O33 2.105 . S
Sc23 O37 2.105 . S
Sc23 O39 2.105 . S
Sc23 O43 2.105 . S
Sc24 O25 2.025 . S
Sc24 O34 2.105 . S
Sc24 O36 2.105 . S
Sc24 O40 2.105 . S
Sc24 O42 2.105 . S
O25 Sc22 2.025 . S
O25 Sc23 2.025 . S
O25 Sc24 2.025 . S
C26 O32 1.268 . S
C26 O42 1.268 . S
C27 O33 1.268 . S
C27 O41 1.268 . S
C28 O34 1.268 . S
C28 O43 1.268 . S
C29 O35 1.268 . S
C29 O39 1.268 . S
C30 O36 1.268 . S
C30 O38 1.268 . S
C31 O37 1.268 . S
C31 O40 1.268 . S
O32 Sc22 2.105 . S
O32 C26 1.268 . S
O33 Sc23 2.105 . S
O33 C27 1.268 . S
O34 Sc24 2.105 . S
O34 C28 1.268 . S
O35 Sc22 2.105 . S
O35 C29 1.268 . S
O36 Sc24 2.105 . S
O36 C30 1.268 . S
O37 Sc23 2.105 . S
O37 C31 1.268 . S
O38 Sc22 2.105 . S
O38 C30 1.268 . S
O39 Sc23 2.105 . S
O39 C29 1.268 . S
O40 Sc24 2.105 . S
O40 C31 1.268 . S
O41 Sc22 2.105 . S
O41 C27 1.268 . S
O42 Sc24 2.105 . S
O42 C26 1.268 . S
O43 Sc23 2.105 . S
O43 C28 1.268 . S
Sc44 O47 2.025 . S
Sc44 O54 2.105 . S
Sc44 O57 2.105 . S
Sc44 O60 2.105 . S
Sc44 O63 2.105 . S
Sc45 O47 2.025 . S
Sc45 O55 2.105 . S
Sc45 O59 2.105 . S
Sc45 O61 2.105 . S
Sc45 O65 2.105 . S
Sc46 O47 2.025 . S
Sc46 O56 2.105 . S
Sc46 O58 2.105 . S
Sc46 O62 2.105 . S
Sc46 O64 2.105 . S
O47 Sc44 2.025 . S
O47 Sc45 2.025 . S
O47 Sc46 2.025 . S
C48 O54 1.268 . S
C48 O64 1.268 . S
C49 O55 1.268 . S
C49 O63 1.268 . S
C50 O56 1.268 . S
C50 O65 1.268 . S
C51 O57 1.268 . S
C51 O61 1.268 . S
C52 O58 1.268 . S
C52 O60 1.268 . S
C53 O59 1.268 . S
C53 O62 1.268 . S
O54 Sc44 2.105 . S
O54 C48 1.268 . S
O55 Sc45 2.105 . S
O55 C49 1.268 . S
O56 Sc46 2.105 . S
O56 C50 1.268 . S
O57 Sc44 2.105 . S
O57 C51 1.268 . S
O58 Sc46 2.105 . S
O58 C52 1.268 . S
O59 Sc45 2.105 . S
O59 C53 1.268 . S
O60 Sc44 2.105 . S
O60 C52 1.268 . S
O61 Sc45 2.105 . S
O61 C51 1.268 . S
O62 Sc46 2.105 . S
O62 C53 1.268 . S
O63 Sc44 2.105 . S
O63 C49 1.268 . S
O64 Sc46 2.105 . S
O64 C48 1.268 . S
O65 Sc45 2.105 . S
O65 C50 1.268 . S
Sc66 O69 2.025 . S
Sc66 O76 2.105 . S
Sc66 O79 2.105 . S
Sc66 O82 2.105 . S
Sc66 O85 2.105 . S
Sc67 O69 2.025 . S
Sc67 O77 2.105 . S
Sc67 O81 2.105 . S
Sc67 O83 2.105 . S
Sc67 O87 2.105 . S
Sc68 O69 2.025 . S
Sc68 O78 2.105 . S
Sc68 O80 2.105 . S
Sc68 O84 2.105 . S
Sc68 O86 2.105 . S
O69 Sc66 2.025 . S
O69 Sc67 2.025 . S
O69 Sc68 2.025 . S
C70 O76 1.268 . S
C70 O86 1.268 . S
C71 O77 1.268 . S
C71 O85 1.268 . S
C72 O78 1.268 . S
C72 O87 1.268 . S
C73 O79 1.268 . S
C73 O83 1.268 . S
C74 O80 1.268 . S
C74 O82 1.268 . S
C75 O81 1.268 . S
C75 O84 1.268 . S
O76 Sc66 2.105 . S
O76 C70 1.268 . S
O77 Sc67 2.105 . S
O77 C71 1.268 . S
O78 Sc68 2.105 . S
O78 C72 1.268 . S
O79 Sc66 2.105 . S
O79 C73 1.268 . S
O80 Sc68 2.105 . S
O80 C74 1.268 . S
O81 Sc67 2.105 . S
O81 C75 1.268 . S
O82 Sc66 2.105 . S
O82 C74 1.268 . S
O83 Sc67 2.105 . S
O83 C73 1.268 . S
O84 Sc68 2.105 . S
O84 C75 1.268 . S
O85 Sc66 2.105 . S
O85 C71 1.268 . S
O86 Sc68 2.105 . S
O86 C70 1.268 . S
O87 Sc67 2.105 . S
O87 C72 1.268 . S
Sc88 O91 2.025 . S
Sc88 O98 2.105 . S
Sc88 O101 2.105 . S
Sc88 O104 2.105 . S
Sc88 O107 2.105 . S
Sc89 O91 2.025 . S
Sc89 O99 2.105 . S
Sc89 O103 2.105 . S
Sc89 O105 2.105 . S
Sc89 O109 2.105 . S
Sc90 O91 2.025 . S
Sc90 O100 2.105 . S
Sc90 O102 2.105 . S
Sc90 O106 2.105 . S
Sc90 O108 2.105 . S
O91 Sc88 2.025 . S
O91 Sc89 2.025 . S
O91 Sc90 2.025 . S
C92 O98 1.268 . S
C92 O108 1.268 . S
C93 O99 1.268 . S
C93 O107 1.268 . S
C94 O100 1.268 . S
C94 O109 1.268 . S
C95 O101 1.268 . S
C95 O105 1.268 . S
C96 O102 1.268 . S
C96 O104 1.268 . S
C97 O103 1.268 . S
C97 O106 1.268 . S
O98 Sc88 2.105 . S
O98 C92 1.268 . S
O99 Sc89 2.105 . S
O99 C93 1.268 . S
O100 Sc90 2.105 . S
O100 C94 1.268 . S
O101 Sc88 2.105 . S
O101 C95 1.268 . S
O102 Sc90 2.105 . S
O102 C96 1.268 . S
O103 Sc89 2.105 . S
O103 C97 1.268 . S
O104 Sc88 2.105 . S
O104 C96 1.268 . S
O105 Sc89 2.105 . S
O105 C95 1.268 . S
O106 Sc90 2.105 . S
O106 C97 1.268 . S
O107 Sc88 2.105 . S
O107 C93 1.268 . S
O108 Sc90 2.105 . S
O108 C92 1.268 . S
O109 Sc89 2.105 . S
O109 C94 1.268 . S
Sc110 O113 2.025 . S
Sc110 O120 2.105 . S
Sc110 O123 2.105 . S
Sc110 O126 2.105 . S
Sc110 O129 2.105 . S
Sc111 O113 2.025 . S
Sc111 O121 2.105 . S
Sc111 O125 2.105 . S
Sc111 O127 2.105 . S
Sc111 O131 2.105 . S
Sc112 O113 2.025 . S
Sc112 O122 2.105 . S
Sc112 O124 2.105 . S
Sc112 O128 2.105 . S
Sc112 O130 2.105 . S
O113 Sc110 2.025 . S
O113 Sc111 2.025 . S
O113 Sc112 2.025 . S
C114 O120 1.268 . S
C114 O130 1.268 . S
C115 O121 1.268 . S
C115 O129 1.268 . S
C116 O122 1.268 . S
C116 O131 1.268 . S
C117 O123 1.268 . S
C117 O127 1.268 . S
C118 O124 1.268 . S
C118 O126 1.268 . S
C119 O125 1.268 . S
C119 O128 1.268 . S
O120 Sc110 2.105 . S
O120 C114 1.268 . S
O121 Sc111 2.105 . S
O121 C115 1.268 . S
O122 Sc112 2.105 . S
O122 C116 1.268 . S
O123 Sc110 2.105 . S
O123 C117 1.268 . S
O124 Sc112 2.105 . S
O124 C118 1.268 . S
O125 Sc111 2.105 . S
O125 C119 1.268 . S
O126 Sc110 2.105 . S
O126 C118 1.268 . S
O127 Sc111 2.105 . S
O127 C117 1.268 . S
O128 Sc112 2.105 . S
O128 C119 1.268 . S
O129 Sc110 2.105 . S
O129 C115 1.268 . S
O130 Sc112 2.105 . S
O130 C114 1.268 . S
O131 Sc111 2.105 . S
O131 C116 1.268 . S
H132 C140 0.929 . S
H133 C142 0.930 . S
H134 C144 0.930 . S
H135 C147 0.929 . S
H136 C150 0.930 . S
H137 C152 0.960 . S
H138 C152 0.960 . S
H139 C152 0.960 . S
C140 H132 0.929 . S
C140 C141 1.377 . S
C140 C142 1.384 . S
C141 C140 1.377 . S
C141 C147 1.390 . S
C142 H133 0.930 . S
C142 C140 1.384 . S
C142 C143 1.372 . S
C143 C142 1.372 . S
C143 C144 1.400 . S
C143 C148 1.490 . S
C144 H134 0.930 . S
C144 C143 1.400 . S
C144 C147 1.386 . S
H145 C161 0.930 . S
H146 C162 0.931 . S
C147 H135 0.929 . S
C147 C141 1.390 . S
C147 C144 1.386 . S
C148 C143 1.490 . S
C148 C150 1.395 . S
C148 C151 1.403 . S
H149 C155 0.930 . S
C150 H136 0.930 . S
C150 C148 1.395 . S
C150 C153 1.403 . S
C151 C148 1.403 . S
C151 C152 1.524 . S
C151 C155 1.400 . S
C152 H137 0.960 . S
C152 H138 0.960 . S
C152 H139 0.960 . S
C152 C151 1.524 . S
C153 C150 1.403 . S
C153 C154 1.392 . S
C153 C157 1.495 . S
C154 C153 1.392 . S
C154 C155 1.385 . S
C154 C156 1.478 . S
C155 H149 0.930 . S
C155 C151 1.400 . S
C155 C154 1.385 . S
C156 C154 1.478 . S
C156 C158 1.381 . S
C156 C162 1.383 . S
C157 C153 1.495 . S
C157 H163 0.959 . S
C157 H164 0.961 . S
C157 H165 0.960 . S
C158 C156 1.381 . S
C158 C159 1.394 . S
C158 H166 0.930 . S
C159 C158 1.394 . S
C159 C160 1.383 . S
C159 H167 0.929 . S
C160 C159 1.383 . S
C160 C161 1.377 . S
C161 H145 0.930 . S
C161 C160 1.377 . S
C161 C162 1.379 . S
C162 H146 0.931 . S
C162 C156 1.383 . S
C162 C161 1.379 . S
H163 C157 0.959 . S
H164 C157 0.961 . S
H165 C157 0.960 . S
H166 C158 0.930 . S
H167 C159 0.929 . S
H168 C176 0.929 . S
H169 C178 0.930 . S
H170 C180 0.930 . S
H171 C183 0.929 . S
H172 C186 0.930 . S
H173 C188 0.960 . S
H174 C188 0.960 . S
H175 C188 0.960 . S
C176 H168 0.929 . S
C176 C177 1.377 . S
C176 C178 1.384 . S
C177 C176 1.377 . S
C177 C183 1.390 . S
C178 H169 0.930 . S
C178 C176 1.384 . S
C178 C179 1.372 . S
C179 C178 1.372 . S
C179 C180 1.400 . S
C179 C184 1.490 . S
C180 H170 0.930 . S
C180 C179 1.400 . S
C180 C183 1.386 . S
H181 C197 0.930 . S
H182 C198 0.931 . S
C183 H171 0.929 . S
C183 C177 1.390 . S
C183 C180 1.386 . S
C184 C179 1.490 . S
C184 C186 1.395 . S
C184 C187 1.403 . S
H185 C191 0.930 . S
C186 H172 0.930 . S
C186 C184 1.395 . S
C186 C189 1.403 . S
C187 C184 1.403 . S
C187 C188 1.524 . S
C187 C191 1.400 . S
C188 H173 0.960 . S
C188 H174 0.960 . S
C188 H175 0.960 . S
C188 C187 1.524 . S
C189 C186 1.403 . S
C189 C190 1.392 . S
C189 C193 1.495 . S
C190 C189 1.392 . S
C190 C191 1.385 . S
C190 C192 1.478 . S
C191 H185 0.930 . S
C191 C187 1.400 . S
C191 C190 1.385 . S
C192 C190 1.478 . S
C192 C194 1.381 . S
C192 C198 1.383 . S
C193 C189 1.495 . S
C193 H199 0.959 . S
C193 H200 0.961 . S
C193 H201 0.960 . S
C194 C192 1.381 . S
C194 C195 1.394 . S
C194 H202 0.930 . S
C195 C194 1.394 . S
C195 C196 1.383 . S
C195 H203 0.929 . S
C196 C195 1.383 . S
C196 C197 1.377 . S
C197 H181 0.930 . S
C197 C196 1.377 . S
C197 C198 1.379 . S
C198 H182 0.931 . S
C198 C192 1.383 . S
C198 C197 1.379 . S
H199 C193 0.959 . S
H200 C193 0.961 . S
H201 C193 0.960 . S
H202 C194 0.930 . S
H203 C195 0.929 . S
H204 C212 0.929 . S
H205 C214 0.930 . S
H206 C216 0.930 . S
H207 C219 0.929 . S
H208 C222 0.930 . S
H209 C224 0.960 . S
H210 C224 0.960 . S
H211 C224 0.960 . S
C212 H204 0.929 . S
C212 C213 1.377 . S
C212 C214 1.384 . S
C213 C212 1.377 . S
C213 C219 1.390 . S
C214 H205 0.930 . S
C214 C212 1.384 . S
C214 C215 1.372 . S
C215 C214 1.372 . S
C215 C216 1.400 . S
C215 C220 1.490 . S
C216 H206 0.930 . S
C216 C215 1.400 . S
C216 C219 1.386 . S
H217 C233 0.930 . S
H218 C234 0.931 . S
C219 H207 0.929 . S
C219 C213 1.390 . S
C219 C216 1.386 . S
C220 C215 1.490 . S
C220 C222 1.395 . S
C220 C223 1.403 . S
H221 C227 0.930 . S
C222 H208 0.930 . S
C222 C220 1.395 . S
C222 C225 1.403 . S
C223 C220 1.403 . S
C223 C224 1.524 . S
C223 C227 1.400 . S
C224 H209 0.960 . S
C224 H210 0.960 . S
C224 H211 0.960 . S
C224 C223 1.524 . S
C225 C222 1.403 . S
C225 C226 1.392 . S
C225 C229 1.495 . S
C226 C225 1.392 . S
C226 C227 1.385 . S
C226 C228 1.478 . S
C227 H221 0.930 . S
C227 C223 1.400 . S
C227 C226 1.385 . S
C228 C226 1.478 . S
C228 C230 1.381 . S
C228 C234 1.383 . S
C229 C225 1.495 . S
C229 H235 0.959 . S
C229 H236 0.961 . S
C229 H237 0.960 . S
C230 C228 1.381 . S
C230 C231 1.394 . S
C230 H238 0.930 . S
C231 C230 1.394 . S
C231 C232 1.383 . S
C231 H239 0.929 . S
C232 C231 1.383 . S
C232 C233 1.377 . S
C233 H217 0.930 . S
C233 C232 1.377 . S
C233 C234 1.379 . S
C234 H218 0.931 . S
C234 C228 1.383 . S
C234 C233 1.379 . S
H235 C229 0.959 . S
H236 C229 0.961 . S
H237 C229 0.960 . S
H238 C230 0.930 . S
H239 C231 0.929 . S
H240 C248 0.929 . S
H241 C250 0.930 . S
H242 C252 0.930 . S
H243 C255 0.929 . S
H244 C258 0.930 . S
H245 C260 0.960 . S
H246 C260 0.960 . S
H247 C260 0.960 . S
C248 H240 0.929 . S
C248 C249 1.377 . S
C248 C250 1.384 . S
C249 C248 1.377 . S
C249 C255 1.390 . S
C250 H241 0.930 . S
C250 C248 1.384 . S
C250 C251 1.372 . S
C251 C250 1.372 . S
C251 C252 1.400 . S
C251 C256 1.490 . S
C252 H242 0.930 . S
C252 C251 1.400 . S
C252 C255 1.386 . S
H253 C269 0.930 . S
H254 C270 0.931 . S
C255 H243 0.929 . S
C255 C249 1.390 . S
C255 C252 1.386 . S
C256 C251 1.490 . S
C256 C258 1.395 . S
C256 C259 1.403 . S
H257 C263 0.930 . S
C258 H244 0.930 . S
C258 C256 1.395 . S
C258 C261 1.403 . S
C259 C256 1.403 . S
C259 C260 1.524 . S
C259 C263 1.400 . S
C260 H245 0.960 . S
C260 H246 0.960 . S
C260 H247 0.960 . S
C260 C259 1.524 . S
C261 C258 1.403 . S
C261 C262 1.392 . S
C261 C265 1.495 . S
C262 C261 1.392 . S
C262 C263 1.385 . S
C262 C264 1.478 . S
C263 H257 0.930 . S
C263 C259 1.400 . S
C263 C262 1.385 . S
C264 C262 1.478 . S
C264 C266 1.381 . S
C264 C270 1.383 . S
C265 C261 1.495 . S
C265 H271 0.959 . S
C265 H272 0.961 . S
C265 H273 0.960 . S
C266 C264 1.381 . S
C266 C267 1.394 . S
C266 H274 0.930 . S
C267 C266 1.394 . S
C267 C268 1.383 . S
C267 H275 0.929 . S
C268 C267 1.383 . S
C268 C269 1.377 . S
C269 H253 0.930 . S
C269 C268 1.377 . S
C269 C270 1.379 . S
C270 H254 0.931 . S
C270 C264 1.383 . S
C270 C269 1.379 . S
H271 C265 0.959 . S
H272 C265 0.961 . S
H273 C265 0.960 . S
H274 C266 0.930 . S
H275 C267 0.929 . S
H276 C284 0.929 . S
H277 C286 0.930 . S
H278 C288 0.930 . S
H279 C291 0.929 . S
H280 C294 0.930 . S
H281 C296 0.960 . S
H282 C296 0.960 . S
H283 C296 0.960 . S
C284 H276 0.929 . S
C284 C285 1.377 . S
C284 C286 1.384 . S
C285 C284 1.377 . S
C285 C291 1.390 . S
C286 H277 0.930 . S
C286 C284 1.384 . S
C286 C287 1.372 . S
C287 C286 1.372 . S
C287 C288 1.400 . S
C287 C292 1.490 . S
C288 H278 0.930 . S
C288 C287 1.400 . S
C288 C291 1.386 . S
H289 C305 0.930 . S
H290 C306 0.931 . S
C291 H279 0.929 . S
C291 C285 1.390 . S
C291 C288 1.386 . S
C292 C287 1.490 . S
C292 C294 1.395 . S
C292 C295 1.403 . S
H293 C299 0.930 . S
C294 H280 0.930 . S
C294 C292 1.395 . S
C294 C297 1.403 . S
C295 C292 1.403 . S
C295 C296 1.524 . S
C295 C299 1.400 . S
C296 H281 0.960 . S
C296 H282 0.960 . S
C296 H283 0.960 . S
C296 C295 1.524 . S
C297 C294 1.403 . S
C297 C298 1.392 . S
C297 C301 1.495 . S
C298 C297 1.392 . S
C298 C299 1.385 . S
C298 C300 1.478 . S
C299 H293 0.930 . S
C299 C295 1.400 . S
C299 C298 1.385 . S
C300 C298 1.478 . S
C300 C302 1.381 . S
C300 C306 1.383 . S
C301 C297 1.495 . S
C301 H307 0.959 . S
C301 H308 0.961 . S
C301 H309 0.960 . S
C302 C300 1.381 . S
C302 C303 1.394 . S
C302 H310 0.930 . S
C303 C302 1.394 . S
C303 C304 1.383 . S
C303 H311 0.929 . S
C304 C303 1.383 . S
C304 C305 1.377 . S
C305 H289 0.930 . S
C305 C304 1.377 . S
C305 C306 1.379 . S
C306 H290 0.931 . S
C306 C300 1.383 . S
C306 C305 1.379 . S
H307 C301 0.959 . S
H308 C301 0.961 . S
H309 C301 0.960 . S
H310 C302 0.930 . S
H311 C303 0.929 . S
H312 C320 0.929 . S
H313 C322 0.930 . S
H314 C324 0.930 . S
H315 C327 0.929 . S
H316 C330 0.930 . S
H317 C332 0.960 . S
H318 C332 0.960 . S
H319 C332 0.960 . S
C320 H312 0.929 . S
C320 C321 1.377 . S
C320 C322 1.384 . S
C321 C320 1.377 . S
C321 C327 1.390 . S
C322 H313 0.930 . S
C322 C320 1.384 . S
C322 C323 1.372 . S
C323 C322 1.372 . S
C323 C324 1.400 . S
C323 C328 1.490 . S
C324 H314 0.930 . S
C324 C323 1.400 . S
C324 C327 1.386 . S
H325 C341 0.930 . S
H326 C342 0.931 . S
C327 H315 0.929 . S
C327 C321 1.390 . S
C327 C324 1.386 . S
C328 C323 1.490 . S
C328 C330 1.395 . S
C328 C331 1.403 . S
H329 C335 0.930 . S
C330 H316 0.930 . S
C330 C328 1.395 . S
C330 C333 1.403 . S
C331 C328 1.403 . S
C331 C332 1.524 . S
C331 C335 1.400 . S
C332 H317 0.960 . S
C332 H318 0.960 . S
C332 H319 0.960 . S
C332 C331 1.524 . S
C333 C330 1.403 . S
C333 C334 1.392 . S
C333 C337 1.495 . S
C334 C333 1.392 . S
C334 C335 1.385 . S
C334 C336 1.478 . S
C335 H329 0.930 . S
C335 C331 1.400 . S
C335 C334 1.385 . S
C336 C334 1.478 . S
C336 C338 1.381 . S
C336 C342 1.383 . S
C337 C333 1.495 . S
C337 H343 0.959 . S
C337 H344 0.961 . S
C337 H345 0.960 . S
C338 C336 1.381 . S
C338 C339 1.394 . S
C338 H346 0.930 . S
C339 C338 1.394 . S
C339 C340 1.383 . S
C339 H347 0.929 . S
C340 C339 1.383 . S
C340 C341 1.377 . S
C341 H325 0.930 . S
C341 C340 1.377 . S
C341 C342 1.379 . S
C342 H326 0.931 . S
C342 C336 1.383 . S
C342 C341 1.379 . S
H343 C337 0.959 . S
H344 C337 0.961 . S
H345 C337 0.960 . S
H346 C338 0.930 . S
H347 C339 0.929 . S
H348 C356 0.929 . S
H349 C358 0.930 . S
H350 C360 0.930 . S
H351 C363 0.929 . S
H352 C366 0.930 . S
H353 C368 0.960 . S
H354 C368 0.960 . S
H355 C368 0.960 . S
C356 H348 0.929 . S
C356 C357 1.377 . S
C356 C358 1.384 . S
C357 C356 1.377 . S
C357 C363 1.390 . S
C358 H349 0.930 . S
C358 C356 1.384 . S
C358 C359 1.372 . S
C359 C358 1.372 . S
C359 C360 1.400 . S
C359 C364 1.490 . S
C360 H350 0.930 . S
C360 C359 1.400 . S
C360 C363 1.386 . S
H361 C377 0.930 . S
H362 C378 0.931 . S
C363 H351 0.929 . S
C363 C357 1.390 . S
C363 C360 1.386 . S
C364 C359 1.490 . S
C364 C366 1.395 . S
C364 C367 1.403 1_556 S
H365 C371 0.930 . S
C366 H352 0.930 . S
C366 C364 1.395 . S
C366 C369 1.403 . S
C367 C364 1.403 1_554 S
C367 C368 1.524 . S
C367 C371 1.400 . S
C368 H353 0.960 . S
C368 H354 0.960 . S
C368 H355 0.960 . S
C368 C367 1.524 . S
C369 C366 1.403 . S
C369 C370 1.392 1_556 S
C369 C373 1.495 . S
C370 C369 1.392 1_554 S
C370 C371 1.385 . S
C370 C372 1.478 . S
C371 H365 0.930 . S
C371 C367 1.400 . S
C371 C370 1.385 . S
C372 C370 1.478 . S
C372 C374 1.381 . S
C372 C378 1.383 . S
C373 C369 1.495 . S
C373 H379 0.959 . S
C373 H380 0.961 . S
C373 H381 0.960 . S
C374 C372 1.381 . S
C374 C375 1.394 . S
C374 H382 0.930 . S
C375 C374 1.394 . S
C375 C376 1.383 . S
C375 H383 0.929 . S
C376 C375 1.383 . S
C376 C377 1.377 . S
C377 H361 0.930 . S
C377 C376 1.377 . S
C377 C378 1.379 . S
C378 H362 0.931 . S
C378 C372 1.383 . S
C378 C377 1.379 . S
H379 C373 0.959 . S
H380 C373 0.961 . S
H381 C373 0.960 . S
H382 C374 0.930 . S
H383 C375 0.929 . S
H384 C392 0.929 . S
H385 C394 0.930 . S
H386 C396 0.930 . S
H387 C399 0.929 . S
H388 C402 0.930 . S
H389 C404 0.960 . S
H390 C404 0.960 . S
H391 C404 0.960 . S
C392 H384 0.929 . S
C392 C393 1.377 . S
C392 C394 1.384 . S
C393 C392 1.377 . S
C393 C399 1.390 . S
C394 H385 0.930 . S
C394 C392 1.384 . S
C394 C395 1.372 . S
C395 C394 1.372 . S
C395 C396 1.400 . S
C395 C400 1.490 . S
C396 H386 0.930 . S
C396 C395 1.400 . S
C396 C399 1.386 . S
H397 C413 0.930 . S
H398 C414 0.931 . S
C399 H387 0.929 . S
C399 C393 1.390 . S
C399 C396 1.386 . S
C400 C395 1.490 . S
C400 C402 1.395 . S
C400 C403 1.403 . S
H401 C407 0.930 . S
C402 H388 0.930 . S
C402 C400 1.395 . S
C402 C405 1.403 1_655 S
C403 C400 1.403 . S
C403 C404 1.524 . S
C403 C407 1.400 1_655 S
C404 H389 0.960 . S
C404 H390 0.960 . S
C404 H391 0.960 . S
C404 C403 1.524 . S
C405 C402 1.403 1_455 S
C405 C406 1.392 . S
C405 C409 1.495 . S
C406 C405 1.392 . S
C406 C407 1.385 . S
C406 C408 1.478 . S
C407 H401 0.930 . S
C407 C403 1.400 1_455 S
C407 C406 1.385 . S
C408 C406 1.478 . S
C408 C410 1.381 . S
C408 C414 1.383 . S
C409 C405 1.495 . S
C409 H415 0.959 . S
C409 H416 0.961 . S
C409 H417 0.960 . S
C410 C408 1.381 . S
C410 C411 1.394 . S
C410 H418 0.930 . S
C411 C410 1.394 . S
C411 C412 1.383 . S
C411 H419 0.929 . S
C412 C411 1.383 . S
C412 C413 1.377 . S
C413 H397 0.930 . S
C413 C412 1.377 . S
C413 C414 1.379 . S
C414 H398 0.931 . S
C414 C408 1.383 . S
C414 C413 1.379 . S
H415 C409 0.959 . S
H416 C409 0.961 . S
H417 C409 0.960 . S
H418 C410 0.930 . S
H419 C411 0.929 . S
H420 C428 0.929 . S
H421 C430 0.930 . S
H422 C432 0.930 . S
H423 C435 0.929 . S
H424 C438 0.930 . S
H425 C440 0.960 1_565 S
H426 C440 0.960 . S
H427 C440 0.960 . S
C428 H420 0.929 . S
C428 C429 1.377 . S
C428 C430 1.384 . S
C429 C428 1.377 . S
C429 C435 1.390 . S
C430 H421 0.930 . S
C430 C428 1.384 . S
C430 C431 1.372 . S
C431 C430 1.372 . S
C431 C432 1.400 . S
C431 C436 1.490 . S
C432 H422 0.930 . S
C432 C431 1.400 . S
C432 C435 1.386 . S
H433 C449 0.930 . S
H434 C450 0.931 . S
C435 H423 0.929 . S
C435 C429 1.390 . S
C435 C432 1.386 . S
C436 C431 1.490 . S
C436 C438 1.395 . S
C436 C439 1.403 . S
H437 C443 0.930 . S
C438 H424 0.930 . S
C438 C436 1.395 . S
C438 C441 1.403 1_546 S
C439 C436 1.403 . S
C439 C440 1.524 . S
C439 C443 1.400 1_546 S
C440 H425 0.960 1_545 S
C440 H426 0.960 . S
C440 H427 0.960 . S
C440 C439 1.524 . S
C441 C438 1.403 1_564 S
C441 C442 1.392 . S
C441 C445 1.495 . S
C442 C441 1.392 . S
C442 C443 1.385 . S
C442 C444 1.478 . S
C443 H437 0.930 . S
C443 C439 1.400 1_564 S
C443 C442 1.385 . S
C444 C442 1.478 . S
C444 C446 1.381 . S
C444 C450 1.383 . S
C445 C441 1.495 . S
C445 H451 0.959 1_565 S
C445 H452 0.961 . S
C445 H453 0.960 . S
C446 C444 1.381 . S
C446 C447 1.394 . S
C446 H454 0.930 . S
C447 C446 1.394 . S
C447 C448 1.383 . S
C447 H455 0.929 . S
C448 C447 1.383 . S
C448 C449 1.377 . S
C449 H433 0.930 . S
C449 C448 1.377 . S
C449 C450 1.379 . S
C450 H434 0.931 . S
C450 C444 1.383 . S
C450 C449 1.379 . S
H451 C445 0.959 1_545 S
H452 C445 0.961 . S
H453 C445 0.960 . S
H454 C446 0.930 . S
H455 C447 0.929 . S
H456 C464 0.929 . S
H457 C466 0.930 . S
H458 C468 0.930 . S
H459 C471 0.929 . S
H460 C474 0.930 . S
H461 C476 0.960 . S
H462 C476 0.960 . S
H463 C476 0.960 . S
C464 H456 0.929 . S
C464 C465 1.377 . S
C464 C466 1.384 . S
C465 C464 1.377 . S
C465 C471 1.390 . S
C466 H457 0.930 . S
C466 C464 1.384 . S
C466 C467 1.372 . S
C467 C466 1.372 . S
C467 C468 1.400 . S
C467 C472 1.490 . S
C468 H458 0.930 . S
C468 C467 1.400 . S
C468 C471 1.386 . S
H469 C485 0.930 . S
H470 C486 0.931 . S
C471 H459 0.929 . S
C471 C465 1.390 . S
C471 C468 1.386 . S
C472 C467 1.490 . S
C472 C474 1.395 . S
C472 C475 1.403 . S
H473 C479 0.930 . S
C474 H460 0.930 . S
C474 C472 1.395 . S
C474 C477 1.403 . S
C475 C472 1.403 . S
C475 C476 1.524 . S
C475 C479 1.400 . S
C476 H461 0.960 . S
C476 H462 0.960 . S
C476 H463 0.960 . S
C476 C475 1.524 . S
C477 C474 1.403 . S
C477 C478 1.392 . S
C477 C481 1.495 . S
C478 C477 1.392 . S
C478 C479 1.385 . S
C478 C480 1.478 . S
C479 H473 0.930 . S
C479 C475 1.400 . S
C479 C478 1.385 . S
C480 C478 1.478 . S
C480 C482 1.381 . S
C480 C486 1.383 . S
C481 C477 1.495 . S
C481 H487 0.959 . S
C481 H488 0.961 . S
C481 H489 0.960 . S
C482 C480 1.381 . S
C482 C483 1.394 . S
C482 H490 0.930 . S
C483 C482 1.394 . S
C483 C484 1.383 . S
C483 H491 0.929 . S
C484 C483 1.383 . S
C484 C485 1.377 . S
C485 H469 0.930 . S
C485 C484 1.377 . S
C485 C486 1.379 . S
C486 H470 0.931 . S
C486 C480 1.383 . S
C486 C485 1.379 . S
H487 C481 0.959 . S
H488 C481 0.961 . S
H489 C481 0.960 . S
H490 C482 0.930 . S
H491 C483 0.929 . S
H492 C500 0.929 . S
H493 C502 0.930 . S
H494 C504 0.930 . S
H495 C507 0.929 . S
H496 C510 0.930 . S
H497 C512 0.960 . S
H498 C512 0.960 . S
H499 C512 0.960 1_655 S
C500 H492 0.929 . S
C500 C501 1.377 . S
C500 C502 1.384 . S
C501 C500 1.377 . S
C501 C507 1.390 . S
C502 H493 0.930 . S
C502 C500 1.384 . S
C502 C503 1.372 . S
C503 C502 1.372 . S
C503 C504 1.400 . S
C503 C508 1.490 . S
C504 H494 0.930 . S
C504 C503 1.400 . S
C504 C507 1.386 . S
H505 C521 0.930 . S
H506 C522 0.931 . S
C507 H495 0.929 . S
C507 C501 1.390 . S
C507 C504 1.386 . S
C508 C503 1.490 . S
C508 C510 1.395 1_556 S
C508 C511 1.403 1_655 S
H509 C515 0.930 . S
C510 H496 0.930 . S
C510 C508 1.395 1_554 S
C510 C513 1.403 . S
C511 C508 1.403 1_455 S
C511 C512 1.524 . S
C511 C515 1.400 . S
C512 H497 0.960 . S
C512 H498 0.960 . S
C512 H499 0.960 1_455 S
C512 C511 1.524 . S
C513 C510 1.403 . S
C513 C514 1.392 1_655 S
C513 C517 1.495 . S
C514 C513 1.392 1_455 S
C514 C515 1.385 1_554 S
C514 C516 1.478 . S
C515 H509 0.930 . S
C515 C511 1.400 . S
C515 C514 1.385 1_556 S
C516 C514 1.478 . S
C516 C518 1.381 . S
C516 C522 1.383 . S
C517 C513 1.495 . S
C517 H523 0.959 . S
C517 H524 0.961 . S
C517 H525 0.960 . S
C518 C516 1.381 . S
C518 C519 1.394 . S
C518 H526 0.930 . S
C519 C518 1.394 . S
C519 C520 1.383 . S
C519 H527 0.929 . S
C520 C519 1.383 . S
C520 C521 1.377 . S
C521 H505 0.930 . S
C521 C520 1.377 . S
C521 C522 1.379 . S
C522 H506 0.931 . S
C522 C516 1.383 . S
C522 C521 1.379 . S
H523 C517 0.959 . S
H524 C517 0.961 . S
H525 C517 0.960 . S
H526 C518 0.930 . S
H527 C519 0.929 . S
H528 C536 0.929 . S
H529 C538 0.930 . S
H530 C540 0.930 . S
H531 C543 0.929 . S
H532 C546 0.930 . S
H533 C548 0.960 . S
H534 C548 0.960 . S
H535 C548 0.960 . S
C536 H528 0.929 . S
C536 C537 1.377 . S
C536 C538 1.384 . S
C537 C536 1.377 . S
C537 C543 1.390 . S
C538 H529 0.930 . S
C538 C536 1.384 . S
C538 C539 1.372 . S
C539 C538 1.372 . S
C539 C540 1.400 . S
C539 C544 1.490 . S
C540 H530 0.930 . S
C540 C539 1.400 . S
C540 C543 1.386 . S
H541 C557 0.930 . S
H542 C558 0.931 . S
C543 H531 0.929 . S
C543 C537 1.390 . S
C543 C540 1.386 . S
C544 C539 1.490 . S
C544 C546 1.395 1_545 S
C544 C547 1.403 . S
H545 C551 0.930 . S
C546 H532 0.930 . S
C546 C544 1.395 1_565 S
C546 C549 1.403 . S
C547 C544 1.403 . S
C547 C548 1.524 . S
C547 C551 1.398 . S
C548 H533 0.960 . S
C548 H534 0.960 . S
C548 H535 0.960 . S
C548 C547 1.524 . S
C549 C546 1.403 . S
C549 C550 1.392 . S
C549 C553 1.495 . S
C550 C549 1.392 . S
C550 C551 1.387 1_565 S
C550 C552 1.478 . S
C551 H545 0.930 . S
C551 C547 1.398 . S
C551 C550 1.387 1_545 S
C552 C550 1.478 . S
C552 C554 1.381 . S
C552 C558 1.383 . S
C553 C549 1.495 . S
C553 H559 0.959 . S
C553 H560 0.961 . S
C553 H561 0.960 . S
C554 C552 1.381 . S
C554 C555 1.394 . S
C554 H562 0.930 . S
C555 C554 1.394 . S
C555 C556 1.383 . S
C555 H563 0.929 . S
C556 C555 1.383 . S
C556 C557 1.377 . S
C557 H541 0.930 . S
C557 C556 1.377 . S
C557 C558 1.379 . S
C558 H542 0.931 . S
C558 C552 1.383 . S
C558 C557 1.379 . S
H559 C553 0.959 . S
H560 C553 0.961 . S
H561 C553 0.960 . S
H562 C554 0.930 . S
H563 C555 0.929 . S
H564 C572 0.929 . S
H565 C574 0.930 . S
H566 C576 0.930 . S
H567 C579 0.929 . S
H568 C582 0.930 . S
H569 C584 0.960 . S
H570 C584 0.960 . S
H571 C584 0.960 . S
C572 H564 0.929 . S
C572 C573 1.377 . S
C572 C574 1.384 . S
C573 C572 1.377 . S
C573 C579 1.390 . S
C574 H565 0.930 . S
C574 C572 1.384 . S
C574 C575 1.372 . S
C575 C574 1.372 . S
C575 C576 1.400 . S
C575 C580 1.490 . S
C576 H566 0.930 . S
C576 C575 1.400 . S
C576 C579 1.386 . S
H577 C593 0.930 . S
H578 C594 0.931 . S
C579 H567 0.929 . S
C579 C573 1.390 . S
C579 C576 1.386 . S
C580 C575 1.490 . S
C580 C582 1.395 1_554 S
C580 C583 1.403 . S
H581 C587 0.930 . S
C582 H568 0.930 . S
C582 C580 1.395 1_556 S
C582 C585 1.403 . S
C583 C580 1.403 . S
C583 C584 1.524 . S
C583 C587 1.400 . S
C584 H569 0.960 . S
C584 H570 0.960 . S
C584 H571 0.960 . S
C584 C583 1.524 . S
C585 C582 1.403 . S
C585 C586 1.392 . S
C585 C589 1.495 . S
C586 C585 1.392 . S
C586 C587 1.385 1_556 S
C586 C588 1.478 . S
C587 H581 0.930 . S
C587 C583 1.400 . S
C587 C586 1.385 1_554 S
C588 C586 1.478 . S
C588 C590 1.381 . S
C588 C594 1.383 . S
C589 C585 1.495 . S
C589 H595 0.959 . S
C589 H596 0.961 . S
C589 H597 0.960 . S
C590 C588 1.381 . S
C590 C591 1.394 . S
C590 H598 0.930 . S
C591 C590 1.394 . S
C591 C592 1.383 . S
C591 H599 0.929 . S
C592 C591 1.383 . S
C592 C593 1.377 . S
C593 H577 0.930 . S
C593 C592 1.377 . S
C593 C594 1.379 . S
C594 H578 0.931 . S
C594 C588 1.383 . S
C594 C593 1.379 . S
H595 C589 0.959 . S
H596 C589 0.961 . S
H597 C589 0.960 . S
H598 C590 0.930 . S
H599 C591 0.929 . S
H600 C608 0.929 . S
H601 C610 0.930 . S
H602 C612 0.930 . S
H603 C615 0.929 . S
H604 C618 0.930 . S
H605 C620 0.960 . S
H606 C620 0.960 . S
H607 C620 0.960 . S
C608 H600 0.929 . S
C608 C609 1.377 . S
C608 C610 1.384 . S
C609 C608 1.377 . S
C609 C615 1.390 . S
C610 H601 0.930 . S
C610 C608 1.384 . S
C610 C611 1.372 . S
C611 C610 1.372 . S
C611 C612 1.400 . S
C611 C616 1.490 . S
C612 H602 0.930 . S
C612 C611 1.400 . S
C612 C615 1.386 . S
H613 C629 0.930 . S
H614 C630 0.931 . S
C615 H603 0.929 . S
C615 C609 1.390 . S
C615 C612 1.386 . S
C616 C611 1.490 . S
C616 C618 1.395 . S
C616 C619 1.403 . S
H617 C623 0.930 . S
C618 H604 0.930 . S
C618 C616 1.395 . S
C618 C621 1.403 1_655 S
C619 C616 1.403 . S
C619 C620 1.524 . S
C619 C623 1.400 1_655 S
C620 H605 0.960 . S
C620 H606 0.960 . S
C620 H607 0.960 . S
C620 C619 1.524 . S
C621 C618 1.403 1_455 S
C621 C622 1.392 . S
C621 C625 1.495 . S
C622 C621 1.392 . S
C622 C623 1.385 . S
C622 C624 1.478 . S
C623 H617 0.930 . S
C623 C619 1.400 1_455 S
C623 C622 1.385 . S
C624 C622 1.478 . S
C624 C626 1.381 . S
C624 C630 1.383 . S
C625 C621 1.495 . S
C625 H631 0.959 . S
C625 H632 0.961 . S
C625 H633 0.960 . S
C626 C624 1.381 . S
C626 C627 1.394 . S
C626 H634 0.930 . S
C627 C626 1.394 . S
C627 C628 1.383 . S
C627 H635 0.929 . S
C628 C627 1.383 . S
C628 C629 1.377 . S
C629 H613 0.930 . S
C629 C628 1.377 . S
C629 C630 1.379 . S
C630 H614 0.931 . S
C630 C624 1.383 . S
C630 C629 1.379 . S
H631 C625 0.959 . S
H632 C625 0.961 . S
H633 C625 0.960 . S
H634 C626 0.930 . S
H635 C627 0.929 . S
H636 C644 0.929 . S
H637 C646 0.930 . S
H638 C648 0.930 . S
H639 C651 0.929 . S
H640 C654 0.930 . S
H641 C656 0.960 . S
H642 C656 0.960 . S
H643 C656 0.960 . S
C644 H636 0.929 . S
C644 C645 1.377 . S
C644 C646 1.384 . S
C645 C644 1.377 . S
C645 C651 1.390 . S
C646 H637 0.930 . S
C646 C644 1.384 . S
C646 C647 1.372 . S
C647 C646 1.372 . S
C647 C648 1.400 . S
C647 C652 1.490 . S
C648 H638 0.930 . S
C648 C647 1.400 . S
C648 C651 1.386 . S
H649 C665 0.930 . S
H650 C666 0.931 . S
C651 H639 0.929 . S
C651 C645 1.390 . S
C651 C648 1.386 . S
C652 C647 1.490 . S
C652 C654 1.395 1_565 S
C652 C655 1.403 1_554 S
H653 C659 0.931 . S
C654 H640 0.930 . S
C654 C652 1.395 1_545 S
C654 C657 1.403 . S
C655 C652 1.403 1_556 S
C655 C656 1.524 . S
C655 C659 1.403 . S
C656 H641 0.960 . S
C656 H642 0.960 . S
C656 H643 0.960 . S
C656 C655 1.524 . S
C657 C654 1.403 . S
C657 C658 1.392 1_554 S
C657 C661 1.495 . S
C658 C657 1.392 1_556 S
C658 C659 1.382 1_545 S
C658 C660 1.478 . S
C659 H653 0.931 . S
C659 C655 1.403 . S
C659 C658 1.382 1_565 S
C660 C658 1.478 . S
C660 C662 1.381 . S
C660 C666 1.383 . S
C661 C657 1.495 . S
C661 H667 0.959 . S
C661 H668 0.961 . S
C661 H669 0.960 . S
C662 C660 1.381 . S
C662 C663 1.394 . S
C662 H670 0.930 . S
C663 C662 1.394 . S
C663 C664 1.383 . S
C663 H671 0.929 . S
C664 C663 1.383 . S
C664 C665 1.377 . S
C665 H649 0.930 . S
C665 C664 1.377 . S
C665 C666 1.379 . S
C666 H650 0.931 . S
C666 C660 1.383 . S
C666 C665 1.379 . S
H667 C661 0.959 . S
H668 C661 0.961 . S
H669 C661 0.960 . S
H670 C662 0.930 . S
H671 C663 0.929 . S
H672 C680 0.929 . S
H673 C682 0.930 . S
H674 C684 0.930 . S
H675 C687 0.929 . S
H676 C690 0.930 . S
H677 C692 0.960 . S
H678 C692 0.960 . S
H679 C692 0.960 . S
C680 H672 0.929 . S
C680 C681 1.377 . S
C680 C682 1.384 . S
C681 C680 1.377 . S
C681 C687 1.390 . S
C682 H673 0.930 . S
C682 C680 1.384 . S
C682 C683 1.372 . S
C683 C682 1.372 . S
C683 C684 1.400 . S
C683 C688 1.490 . S
C684 H674 0.930 . S
C684 C683 1.400 . S
C684 C687 1.386 . S
H685 C701 0.930 . S
H686 C702 0.931 . S
C687 H675 0.929 . S
C687 C681 1.390 . S
C687 C684 1.386 . S
C688 C683 1.490 . S
C688 C690 1.395 . S
C688 C691 1.403 . S
H689 C695 0.930 . S
C690 H676 0.930 . S
C690 C688 1.395 . S
C690 C693 1.403 . S
C691 C688 1.403 . S
C691 C692 1.524 . S
C691 C695 1.400 . S
C692 H677 0.960 . S
C692 H678 0.960 . S
C692 H679 0.960 . S
C692 C691 1.524 . S
C693 C690 1.403 . S
C693 C694 1.392 . S
C693 C697 1.495 . S
C694 C693 1.392 . S
C694 C695 1.385 . S
C694 C696 1.478 . S
C695 H689 0.930 . S
C695 C691 1.400 . S
C695 C694 1.385 . S
C696 C694 1.478 . S
C696 C698 1.381 . S
C696 C702 1.383 . S
C697 C693 1.495 . S
C697 H703 0.959 . S
C697 H704 0.961 . S
C697 H705 0.960 . S
C698 C696 1.381 . S
C698 C699 1.394 . S
C698 H706 0.930 . S
C699 C698 1.394 . S
C699 C700 1.383 . S
C699 H707 0.929 . S
C700 C699 1.383 . S
C700 C701 1.377 . S
C701 H685 0.930 . S
C701 C700 1.377 . S
C701 C702 1.379 . S
C702 H686 0.931 . S
C702 C696 1.383 . S
C702 C701 1.379 . S
H703 C697 0.959 . S
H704 C697 0.961 . S
H705 C697 0.960 . S
H706 C698 0.930 . S
H707 C699 0.929 . S
H708 C716 0.929 . S
H709 C718 0.930 . S
H710 C720 0.930 . S
H711 C723 0.929 . S
H712 C726 0.930 . S
H713 C728 0.960 . S
H714 C728 0.960 . S
H715 C728 0.960 1_655 S
C716 H708 0.929 . S
C716 C717 1.377 . S
C716 C718 1.384 . S
C717 C716 1.377 . S
C717 C723 1.390 . S
C718 H709 0.930 . S
C718 C716 1.384 . S
C718 C719 1.372 . S
C719 C718 1.372 . S
C719 C720 1.400 . S
C719 C724 1.490 . S
C720 H710 0.930 . S
C720 C719 1.400 . S
C720 C723 1.386 . S
H721 C737 0.930 . S
H722 C738 0.931 . S
C723 H711 0.929 . S
C723 C717 1.390 . S
C723 C720 1.386 . S
C724 C719 1.490 . S
C724 C726 1.395 1_556 S
C724 C727 1.403 1_655 S
H725 C731 0.930 . S
C726 H712 0.930 . S
C726 C724 1.395 1_554 S
C726 C729 1.403 . S
C727 C724 1.403 1_455 S
C727 C728 1.524 . S
C727 C731 1.400 . S
C728 H713 0.960 . S
C728 H714 0.960 . S
C728 H715 0.960 1_455 S
C728 C727 1.524 . S
C729 C726 1.403 . S
C729 C730 1.392 1_655 S
C729 C733 1.495 . S
C730 C729 1.392 1_455 S
C730 C731 1.385 1_554 S
C730 C732 1.478 . S
C731 H725 0.930 . S
C731 C727 1.400 . S
C731 C730 1.385 1_556 S
C732 C730 1.478 . S
C732 C734 1.381 . S
C732 C738 1.383 . S
C733 C729 1.495 . S
C733 H739 0.959 . S
C733 H740 0.961 . S
C733 H741 0.960 1_655 S
C734 C732 1.381 . S
C734 C735 1.394 . S
C734 H742 0.930 . S
C735 C734 1.394 . S
C735 C736 1.383 . S
C735 H743 0.929 . S
C736 C735 1.383 . S
C736 C737 1.377 . S
C737 H721 0.930 . S
C737 C736 1.377 . S
C737 C738 1.379 . S
C738 H722 0.931 . S
C738 C732 1.383 . S
C738 C737 1.379 . S
H739 C733 0.959 . S
H740 C733 0.961 . S
H741 C733 0.960 1_455 S
H742 C734 0.930 . S
H743 C735 0.929 . S
H744 C752 0.929 . S
H745 C754 0.930 . S
H746 C756 0.930 . S
H747 C759 0.929 . S
H748 C762 0.940 . S
H749 C764 0.960 . S
H750 C764 0.960 . S
H751 C764 0.960 . S
C752 H744 0.929 . S
C752 C753 1.377 . S
C752 C754 1.384 . S
C753 C752 1.377 . S
C753 C759 1.390 . S
C754 H745 0.930 . S
C754 C752 1.384 . S
C754 C755 1.372 . S
C755 C754 1.372 . S
C755 C756 1.400 . S
C755 C760 1.490 . S
C756 H746 0.930 . S
C756 C755 1.400 . S
C756 C759 1.386 . S
H757 C773 0.930 . S
H758 C774 0.931 . S
C759 H747 0.929 . S
C759 C753 1.390 . S
C759 C756 1.386 . S
C760 C755 1.490 . S
C760 C762 1.395 1_565 S
C760 C763 1.403 . S
H761 C767 0.930 . S
C762 H748 0.940 . S
C762 C760 1.395 1_545 S
C762 C765 1.403 . S
C763 C760 1.403 . S
C763 C764 1.524 . S
C763 C767 1.400 1_565 S
C764 H749 0.960 . S
C764 H750 0.960 . S
C764 H751 0.960 . S
C764 C763 1.524 . S
C765 C762 1.403 . S
C765 C766 1.392 . S
C765 C769 1.495 . S
C766 C765 1.392 . S
C766 C767 1.385 . S
C766 C768 1.478 . S
C767 H761 0.930 . S
C767 C763 1.400 1_545 S
C767 C766 1.385 . S
C768 C766 1.478 . S
C768 C770 1.381 . S
C768 C774 1.383 . S
C769 C765 1.495 . S
C769 H775 0.959 . S
C769 H776 0.961 . S
C769 H777 0.960 . S
C770 C768 1.381 . S
C770 C771 1.394 . S
C770 H778 0.930 . S
C771 C770 1.394 . S
C771 C772 1.383 . S
C771 H779 0.929 . S
C772 C771 1.383 . S
C772 C773 1.377 . S
C773 H757 0.930 . S
C773 C772 1.377 . S
C773 C774 1.379 . S
C774 H758 0.931 . S
C774 C768 1.383 . S
C774 C773 1.379 . S
H775 C769 0.959 . S
H776 C769 0.961 . S
H777 C769 0.960 . S
H778 C770 0.930 . S
H779 C771 0.929 . S
C141 C5 1.300 . S
C160 C94 1.291 . S
C177 C28 1.297 . S
C196 C116 1.262 . S
C213 C7 1.290 . S
C232 C50 1.285 . S
C249 C72 1.294 . S
C268 C31 1.267 . S
C285 C53 1.291 . S
C304 C97 1.321 . S
C321 C75 1.292 . S
C340 C119 1.321 . S
C357 C117 1.580 . S
C376 C8 1.559 . S
C393 C29 1.575 . S
C412 C6 1.586 . S
C429 C26 1.580 . S
C448 C51 1.570 . S
C465 C48 1.577 . S
C484 C73 1.584 . S
C501 C70 1.578 . S
C520 C92 1.581 . S
C537 C114 1.579 . S
C556 C95 1.562 . S
C573 C49 1.581 . S
C592 C74 1.589 . S
C609 C71 1.578 . S
C628 C93 1.582 . S
C645 C96 1.575 . S
C664 C115 1.564 . S
C681 C118 1.581 . S
C700 C9 1.587 . S
C717 C30 1.581 . S
C736 C4 1.589 . S
C753 C52 1.575 . S
C772 C27 1.560 . S
