# Generated by pormake.
# Topology ofo, (3)-cn, num edge types: 1
# Building blocks:
#     Node 0, Type 0, BuildingBlock: OLANEW_clean_sbu_2, # of connection points: 3
#     Node 1, Type 0, BuildingBlock: OLANEW_clean_sbu_2, # of connection points: 3
#     Node 2, Type 0, BuildingBlock: OLANEW_clean_sbu_2, # of connection points: 3
#     Node 3, Type 0, BuildingBlock: OLANEW_clean_sbu_2, # of connection points: 3
#     Node 4, Type 0, BuildingBlock: OLANEW_clean_sbu_2, # of connection points: 3
#     Node 5, Type 0, BuildingBlock: OLANEW_clean_sbu_2, # of connection points: 3
#     Node 6, Type 0, BuildingBlock: OLANEW_clean_sbu_2, # of connection points: 3
#     Node 7, Type 0, BuildingBlock: OLANEW_clean_sbu_2, # of connection points: 3
#     Node 8, Type 0, BuildingBlock: OLANEW_clean_sbu_2, # of connection points: 3
#     Node 9, Type 0, BuildingBlock: OLANEW_clean_sbu_2, # of connection points: 3
#     Node 10, Type 0, BuildingBlock: OLANEW_clean_sbu_2, # of connection points: 3
#     Node 11, Type 0, BuildingBlock: OLANEW_clean_sbu_2, # of connection points: 3
#     Edge 12, Type (0, 0), BuildingBlock: MIFKUJ_clean_linker_0, # of connection points: 2
#     Edge 13, Type (0, 0), BuildingBlock: MIFKUJ_clean_linker_0, # of connection points: 2
#     Edge 14, Type (0, 0), BuildingBlock: MIFKUJ_clean_linker_0, # of connection points: 2
#     Edge 15, Type (0, 0), BuildingBlock: MIFKUJ_clean_linker_0, # of connection points: 2
#     Edge 16, Type (0, 0), BuildingBlock: MIFKUJ_clean_linker_0, # of connection points: 2
#     Edge 17, Type (0, 0), BuildingBlock: MIFKUJ_clean_linker_0, # of connection points: 2
#     Edge 18, Type (0, 0), BuildingBlock: MIFKUJ_clean_linker_0, # of connection points: 2
#     Edge 19, Type (0, 0), BuildingBlock: MIFKUJ_clean_linker_0, # of connection points: 2
#     Edge 20, Type (0, 0), BuildingBlock: MIFKUJ_clean_linker_0, # of connection points: 2
#     Edge 21, Type (0, 0), BuildingBlock: MIFKUJ_clean_linker_0, # of connection points: 2
#     Edge 22, Type (0, 0), BuildingBlock: MIFKUJ_clean_linker_0, # of connection points: 2
#     Edge 23, Type (0, 0), BuildingBlock: MIFKUJ_clean_linker_0, # of connection points: 2
#     Edge 24, Type (0, 0), BuildingBlock: MIFKUJ_clean_linker_0, # of connection points: 2
#     Edge 25, Type (0, 0), BuildingBlock: MIFKUJ_clean_linker_0, # of connection points: 2
#     Edge 26, Type (0, 0), BuildingBlock: MIFKUJ_clean_linker_0, # of connection points: 2
#     Edge 27, Type (0, 0), BuildingBlock: MIFKUJ_clean_linker_0, # of connection points: 2
#     Edge 28, Type (0, 0), BuildingBlock: MIFKUJ_clean_linker_0, # of connection points: 2
#     Edge 29, Type (0, 0), BuildingBlock: MIFKUJ_clean_linker_0, # of connection points: 2
# Relax obj value: 0.000
# Max RMSD: 0.054
# Mean RMSD: 0.054
data_MOF--net-ofo--node1-OLANEW_clean_sbu_2--edge1-MIFKUJ_clean_linker_0
_symmetry_space_group_name_H-M    P1
_symmetry_Int_Tables_number       1
_symmetry_cell_setting            triclinic
loop_
_symmetry_equiv_pos_as_xyz
'x, y, z'
_cell_length_a     29.257876
_cell_length_b     29.260228
_cell_length_c     100.25301
_cell_angle_alpha  90.008168
_cell_angle_beta   89.98223
_cell_angle_gamma 119.967
loop_
_atom_site_label
_atom_site_type_symbol
_atom_site_fract_x
_atom_site_fract_y
_atom_site_fract_z
_atom_type_partial_charge
O0 O 0.438 0.19698 0.07632 0.0
Cd1 Cd 0.42401 0.2711 0.08119 0.0
O2 O 0.38312 0.14427 0.09164 0.0
Cd3 Cd 0.37615 0.20767 0.10139 0.0
O4 O 0.38671 0.26163 0.11785 0.0
C5 C 0.39337 0.24661 0.12922 0.0
O6 O 0.39201 0.20112 0.13008 0.0
C7 C 0.41404 0.15196 0.0819 0.0
C8 C 0.35565 0.27623 0.06253 0.0
O9 O 0.40505 0.29673 0.0601 0.0
O10 O 0.33847 0.25358 0.07383 0.0
O11 O 0.21614 0.42843 0.7276 0.0
Cd12 Cd 0.12871 0.40857 0.73531 0.0
O13 O 0.21092 0.36178 0.73903 0.0
Cd14 Cd 0.14434 0.35264 0.75103 0.0
O15 O 0.11185 0.3738 0.7681 0.0
C16 C 0.13788 0.42199 0.77156 0.0
O17 O 0.17936 0.45437 0.76447 0.0
C18 C 0.23509 0.39901 0.73066 0.0
C19 C 0.05039 0.33549 0.71843 0.0
O20 O 0.06688 0.38494 0.71728 0.0
O21 O 0.07053 0.32059 0.72761 0.0
O22 O 0.80342 0.21093 0.38962 0.0
Cd23 Cd 0.73449 0.1218 0.39567 0.0
O24 O 0.83526 0.23258 0.40999 0.0
Cd25 Cd 0.774 0.16257 0.4202 0.0
O26 O 0.72384 0.129 0.43783 0.0
C27 C 0.68007 0.12824 0.43849 0.0
O28 O 0.66423 0.14408 0.42812 0.0
C29 C 0.83738 0.244 0.39768 0.0
C30 C 0.73419 0.04631 0.37851 0.0
O31 O 0.70969 0.07095 0.37549 0.0
O32 O 0.75883 0.05723 0.38967 0.0
O33 O 0.52349 0.74236 0.02324 0.0
Cd34 Cd 0.53325 0.66974 0.01427 0.0
O35 O 0.53142 0.71974 0.04356 0.0
Cd36 Cd 0.5259 0.71751 0.06538 0.0
O37 O 0.51518 0.68993 0.08607 0.0
C38 C 0.47006 0.65281 0.08961 0.0
O39 O 0.43133 0.63402 0.0809 0.0
C40 C 0.52336 0.74927 0.03576 0.0
C41 C 0.63175 0.6956 0.00376 0.0
O42 O 0.59699 0.69838 0.99657 0.0
O43 O 0.6205 0.68213 0.01602 0.0
O44 O 0.80586 0.56684 0.72838 0.0
Cd45 Cd 0.89666 0.6035 0.73632 0.0
O46 O 0.79759 0.62814 0.73901 0.0
Cd47 Cd 0.86582 0.64899 0.75183 0.0
O48 O 0.89946 0.63886 0.77039 0.0
C49 C 0.87209 0.63191 0.78084 0.0
O50 O 0.82818 0.6336 0.7798 0.0
C51 C 0.77939 0.58956 0.7309 0.0
C52 C 0.96911 0.67446 0.71792 0.0
O53 O 0.95908 0.62655 0.71842 0.0
O54 O 0.9451 0.68884 0.72612 0.0
O55 O 0.21816 0.82091 0.38586 0.0
Cd56 Cd 0.28245 0.91228 0.39163 0.0
O57 O 0.17654 0.80523 0.40509 0.0
Cd58 Cd 0.23443 0.87718 0.41526 0.0
O59 O 0.27943 0.90832 0.43372 0.0
C60 C 0.3234 0.9099 0.43507 0.0
O61 O 0.3428 0.89688 0.42488 0.0
C62 C 0.18029 0.79019 0.39344 0.0
C63 C 0.28641 0.98342 0.37237 0.0
O64 O 0.31469 0.96142 0.37129 0.0
O65 O 0.25618 0.97181 0.38258 0.0
O66 O 0.76356 0.54145 0.27793 0.0
Cd67 Cd 0.68459 0.55016 0.27699 0.0
O68 O 0.8125 0.61134 0.26558 0.0
Cd69 Cd 0.74238 0.61198 0.25829 0.0
O70 O 0.6738 0.5817 0.24507 0.0
C71 C 0.65056 0.53228 0.24295 0.0
O72 O 0.66761 0.50418 0.24921 0.0
C73 C 0.80819 0.57405 0.27297 0.0
C74 C 0.69528 0.63283 0.29316 0.0
O75 O 0.68077 0.58713 0.29806 0.0
O76 O 0.7045 0.63949 0.28061 0.0
O77 O 0.25382 0.76743 0.94084 0.0
Cd78 Cd 0.16714 0.69302 0.93506 0.0
O79 O 0.25496 0.81425 0.92355 0.0
Cd80 Cd 0.18493 0.74946 0.9143 0.0
O81 O 0.14309 0.68919 0.89909 0.0
C82 C 0.16356 0.6613 0.89589 0.0
O83 O 0.20582 0.66856 0.90231 0.0
C84 C 0.27633 0.81013 0.93419 0.0
C85 C 0.08491 0.70324 0.94604 0.0
O86 O 0.10591 0.68059 0.95249 0.0
O87 O 0.10283 0.72115 0.93437 0.0
O88 O 0.43327 0.21083 0.61442 0.0
Cd89 Cd 0.41251 0.12344 0.60649 0.0
O90 O 0.39604 0.22255 0.59667 0.0
Cd91 Cd 0.39514 0.15943 0.58473 0.0
O92 O 0.41442 0.13218 0.56632 0.0
C93 C 0.45295 0.12367 0.56569 0.0
O94 O 0.47983 0.1281 0.57658 0.0
C95 C 0.41704 0.23771 0.60812 0.0
C96 C 0.33928 0.0457 0.62353 0.0
O97 O 0.38871 0.06198 0.62464 0.0
O98 O 0.32444 0.06562 0.61428 0.0
O99 O 0.26488 0.47356 0.26603 0.0
Cd100 Cd 0.32901 0.44681 0.2597 0.0
O101 O 0.20014 0.406 0.25566 0.0
Cd102 Cd 0.25438 0.39293 0.24338 0.0
O103 O 0.2914 0.40506 0.22374 0.0
C104 C 0.339 0.4405 0.22163 0.0
O105 O 0.36831 0.46825 0.23173 0.0
C106 C 0.21599 0.44557 0.26337 0.0
C107 C 0.32311 0.36905 0.27701 0.0
O108 O 0.35335 0.41818 0.27953 0.0
O109 O 0.29597 0.3566 0.26622 0.0
O110 O 0.84957 0.22475 0.94612 0.0
Cd111 Cd 0.94066 0.29736 0.94422 0.0
O112 O 0.82252 0.25077 0.92869 0.0
Cd113 Cd 0.89669 0.31738 0.92167 0.0
O114 O 0.9261 0.37624 0.90566 0.0
C115 C 0.89445 0.39226 0.90242 0.0
O116 O 0.8504 0.37473 0.90922 0.0
C117 C 0.81263 0.21913 0.93839 0.0
C118 C 0.00676 0.29195 0.96356 0.0
O119 O 0.97789 0.31231 0.96622 0.0
O120 O 0.00438 0.27397 0.95176 0.0
O121 O 0.57129 0.79941 0.61534 0.0
Cd122 Cd 0.60629 0.88913 0.60686 0.0
O123 O 0.50349 0.76394 0.60161 0.0
Cd124 Cd 0.52031 0.83522 0.59058 0.0
O125 O 0.51083 0.87238 0.57262 0.0
C126 C 0.46743 0.84543 0.56645 0.0
O127 O 0.43208 0.79982 0.57149 0.0
C128 C 0.52993 0.75911 0.61102 0.0
C129 C 0.67676 0.96292 0.62506 0.0
O130 O 0.62855 0.95197 0.6246 0.0
O131 O 0.69168 0.93934 0.61687 0.0
H132 H 0.39892 0.34298 0.13147 0.0
H133 H 0.42352 0.39967 0.15121 0.0
H134 H 0.44094 0.2835 0.17366 0.0
H135 H 0.41535 0.22663 0.15419 0.0
H136 H 0.39631 0.32092 0.18873 0.0
H137 H 0.54262 0.40084 0.15639 0.0
H138 H 0.58322 0.44553 0.13519 0.0
H139 H 0.55382 0.57132 0.14513 0.0
H140 H 0.51285 0.52721 0.16633 0.0
H141 H 0.59948 0.42938 0.2352 0.0
H142 H 0.53744 0.38926 0.21692 0.0
H143 H 0.54354 0.53728 0.20917 0.0
H144 H 0.60723 0.5784 0.22739 0.0
H145 H 0.55561 0.49842 0.18699 0.0
H146 H 0.4362 0.42932 0.22264 0.0
H147 H 0.39493 0.38518 0.24372 0.0
H148 H 0.37681 0.23965 0.22872 0.0
H149 H 0.41819 0.28292 0.20752 0.0
C150 C 0.40734 0.32938 0.14067 0.0
C151 C 0.4053 0.28035 0.14122 0.0
C152 C 0.42138 0.36185 0.15198 0.0
C153 C 0.43427 0.34618 0.164 0.0
C154 C 0.43092 0.29661 0.16458 0.0
C155 C 0.41652 0.26411 0.15337 0.0
C156 C 0.45384 0.38126 0.17593 0.0
C157 C 0.43138 0.35964 0.1884 0.0
C158 C 0.4976 0.43327 0.17544 0.0
C159 C 0.52313 0.45989 0.16276 0.0
C160 C 0.54427 0.43772 0.15398 0.0
C161 C 0.56755 0.46306 0.14198 0.0
C162 C 0.57075 0.51104 0.13876 0.0
C163 C 0.55106 0.53401 0.14759 0.0
C164 C 0.52765 0.50876 0.15957 0.0
C165 C 0.58722 0.45341 0.22976 0.0
C166 C 0.60854 0.5072 0.23274 0.0
C167 C 0.55129 0.43022 0.21934 0.0
C168 C 0.53509 0.45997 0.21176 0.0
C169 C 0.55522 0.51345 0.21492 0.0
C170 C 0.59156 0.53686 0.22534 0.0
C171 C 0.50107 0.43588 0.19985 0.0
C172 C 0.52013 0.46001 0.18741 0.0
C173 C 0.45448 0.3859 0.2004 0.0
C174 C 0.43 0.3596 0.21331 0.0
C175 C 0.42335 0.38793 0.22375 0.0
C176 C 0.39997 0.36302 0.23577 0.0
C177 C 0.3831 0.30959 0.23755 0.0
C178 C 0.38967 0.28102 0.22731 0.0
C179 C 0.41295 0.30575 0.21525 0.0
H180 H 0.36503 0.29037 0.24687 0.0
H181 H 0.58869 0.53055 0.12946 0.0
H182 H 0.1912 0.52062 0.78225 0.0
H183 H 0.17553 0.55061 0.80349 0.0
H184 H 0.03907 0.39726 0.81016 0.0
H185 H 0.05546 0.36636 0.78893 0.0
H186 H 0.1016 0.56324 0.8139 0.0
H187 H 0.02536 0.3721 0.84367 0.0
H188 H 0.02773 0.28893 0.84336 0.0
H189 H 0.17777 0.36717 0.82348 0.0
H190 H 0.17648 0.45085 0.8238 0.0
H191 H 0.07912 0.63884 0.87988 0.0
H192 H 0.05156 0.58497 0.85956 0.0
H193 H 0.17888 0.5523 0.86488 0.0
H194 H 0.20421 0.60307 0.88547 0.0
H195 H 0.09988 0.46941 0.85526 0.0
H196 H 0.18455 0.65913 0.84423 0.0
H197 H 0.18825 0.74529 0.84492 0.0
H198 H 0.0338 0.67556 0.82742 0.0
H199 H 0.02954 0.58917 0.82666 0.0
C200 C 0.1576 0.49321 0.78817 0.0
C201 C 0.12489 0.44089 0.78394 0.0
C202 C 0.14852 0.51056 0.80032 0.0
C203 C 0.10645 0.47613 0.80854 0.0
C204 C 0.07236 0.42435 0.80412 0.0
C205 C 0.08163 0.4068 0.79195 0.0
C206 C 0.10063 0.49447 0.82195 0.0
C207 C 0.10095 0.5425 0.82293 0.0
C208 C 0.09901 0.4673 0.83379 0.0
C209 C 0.10045 0.41743 0.83361 0.0
C210 C 0.05885 0.37149 0.83925 0.0
C211 C 0.06001 0.3243 0.83907 0.0
C212 C 0.10277 0.32272 0.83336 0.0
C213 C 0.14457 0.36839 0.82785 0.0
C214 C 0.14363 0.41569 0.82802 0.0
C215 C 0.10026 0.61901 0.87685 0.0
C216 C 0.1438 0.62528 0.88426 0.0
C217 C 0.08486 0.58866 0.86517 0.0
C218 C 0.1137 0.56525 0.86051 0.0
C219 C 0.15584 0.5698 0.86823 0.0
C220 C 0.17057 0.59923 0.87999 0.0
C221 C 0.10338 0.53936 0.8472 0.0
C222 C 0.09964 0.48971 0.84622 0.0
C223 C 0.10275 0.56544 0.83536 0.0
C224 C 0.10637 0.61773 0.83552 0.0
C225 C 0.15142 0.66228 0.84055 0.0
C226 C 0.15366 0.71113 0.84095 0.0
C227 C 0.11123 0.71589 0.83625 0.0
C228 C 0.06661 0.67187 0.83107 0.0
C229 C 0.06428 0.62301 0.83064 0.0
H230 H 0.11299 0.7537 0.8366 0.0
H231 H 0.10358 0.28615 0.83322 0.0
H232 H 0.7085 0.10706 0.46277 0.0
H233 H 0.66499 0.09753 0.48424 0.0
H234 H 0.54177 0.1124 0.46466 0.0
H235 H 0.58542 0.12278 0.44319 0.0
H236 H 0.5805 0.17769 0.48543 0.0
H237 H 0.52442 0.9959 0.47713 0.0
H238 H 0.53351 0.91811 0.47257 0.0
H239 H 0.61996 0.94395 0.50901 0.0
H240 H 0.61178 0.02218 0.51377 0.0
H241 H 0.41428 0.12533 0.54095 0.0
H242 H 0.4494 0.11935 0.51938 0.0
H243 H 0.5671 0.09587 0.53906 0.0
H244 H 0.53227 0.10196 0.56076 0.0
H245 H 0.53182 0.03435 0.51832 0.0
H246 H 0.59381 0.21557 0.52628 0.0
H247 H 0.58869 0.2951 0.53162 0.0
H248 H 0.49718 0.27291 0.49625 0.0
H249 H 0.50135 0.19301 0.49076 0.0
C250 C 0.67175 0.10756 0.46299 0.0
C251 C 0.65062 0.11601 0.45126 0.0
C252 C 0.64682 0.10195 0.47529 0.0
C253 C 0.60001 0.10412 0.47607 0.0
C254 C 0.57793 0.11075 0.46431 0.0
C255 C 0.60289 0.11655 0.45203 0.0
C256 C 0.57595 0.10307 0.4892 0.0
C257 C 0.56881 0.14572 0.49251 0.0
C258 C 0.56267 0.06237 0.49866 0.0
C259 C 0.56788 0.01538 0.49574 0.0
C260 C 0.54577 0.98536 0.48413 0.0
C261 C 0.55069 0.94109 0.48151 0.0
C262 C 0.5775 0.92625 0.49046 0.0
C263 C 0.59938 0.95562 0.50206 0.0
C264 C 0.59445 0.99983 0.50474 0.0
C265 C 0.4473 0.11834 0.54072 0.0
C266 C 0.47075 0.11459 0.55261 0.0
C267 C 0.46739 0.11499 0.52835 0.0
C268 C 0.5113 0.10779 0.52755 0.0
C269 C 0.53334 0.10169 0.5394 0.0
C270 C 0.51343 0.10529 0.5518 0.0
C271 C 0.53503 0.10802 0.51441 0.0
C272 C 0.54274 0.06573 0.51115 0.0
C273 C 0.54926 0.14917 0.50503 0.0
C274 C 0.54696 0.19754 0.50825 0.0
C275 C 0.57208 0.22727 0.51971 0.0
C276 C 0.56951 0.27256 0.52275 0.0
C277 C 0.54236 0.28888 0.51432 0.0
C278 C 0.51798 0.26009 0.5028 0.0
C279 C 0.52042 0.21476 0.49973 0.0
H280 H 0.54043 0.32397 0.51669 0.0
H281 H 0.58108 0.89183 0.48845 0.0
H282 H 0.4404 0.50768 0.21338 0.0
H283 H 0.47096 0.53728 0.19067 0.0
H284 H 0.31249 0.43865 0.17598 0.0
H285 H 0.28258 0.40593 0.19849 0.0
H286 H 0.37592 0.43997 0.15849 0.0
H287 H 0.36914 0.57747 0.1836 0.0
H288 H 0.39149 0.63963 0.20238 0.0
H289 H 0.55592 0.71167 0.19246 0.0
H290 H 0.53453 0.64951 0.17371 0.0
H291 H 0.37772 0.57591 0.1004 0.0
H292 H 0.36369 0.53601 0.12247 0.0
H293 H 0.52899 0.63542 0.13146 0.0
H294 H 0.54324 0.67636 0.10941 0.0
H295 H 0.47034 0.63374 0.15173 0.0
H296 H 0.47648 0.50378 0.12463 0.0
H297 H 0.45413 0.44223 0.10578 0.0
H298 H 0.29327 0.35575 0.11908 0.0
H299 H 0.31456 0.41708 0.13798 0.0
C300 C 0.41226 0.49144 0.20528 0.0
C301 C 0.35893 0.45468 0.20778 0.0
C302 C 0.42969 0.50887 0.1923 0.0
C303 C 0.39372 0.4916 0.18163 0.0
C304 C 0.34102 0.45296 0.18403 0.0
C305 C 0.32388 0.43441 0.19695 0.0
C306 C 0.40991 0.51561 0.16814 0.0
C307 C 0.39653 0.4823 0.15699 0.0
C308 C 0.43749 0.57099 0.16617 0.0
C309 C 0.45029 0.60864 0.17734 0.0
C310 C 0.41007 0.60644 0.18547 0.0
C311 C 0.42256 0.64165 0.1961 0.0
C312 C 0.4751 0.6795 0.19863 0.0
C313 C 0.51525 0.6823 0.1905 0.0
C314 C 0.50298 0.64715 0.17987 0.0
C315 C 0.41118 0.58932 0.10705 0.0
C316 C 0.46163 0.62931 0.10312 0.0
C317 C 0.40315 0.56614 0.11965 0.0
C318 C 0.44545 0.58203 0.12856 0.0
C319 C 0.49581 0.6223 0.12473 0.0
C320 C 0.50387 0.64569 0.11212 0.0
C321 C 0.43642 0.55802 0.14206 0.0
C322 C 0.45083 0.59138 0.1532 0.0
C323 C 0.41004 0.50269 0.14399 0.0
C324 C 0.39708 0.4654 0.13268 0.0
C325 C 0.43628 0.47184 0.12351 0.0
C326 C 0.42379 0.43697 0.11281 0.0
C327 C 0.37223 0.3953 0.11118 0.0
C328 C 0.33314 0.38819 0.12032 0.0
C329 C 0.34545 0.42294 0.13105 0.0
H330 H 0.36264 0.36831 0.10289 0.0
H331 H 0.48469 0.7067 0.20687 0.0
H332 H 0.95726 0.61952 0.78649 0.0
H333 H 0.97659 0.59025 0.80754 0.0
H334 H 0.83876 0.5829 0.82534 0.0
H335 H 0.81979 0.61285 0.8045 0.0
H336 H 0.917 0.62212 0.84262 0.0
H337 H 0.83935 0.47375 0.81252 0.0
H338 H 0.83369 0.42602 0.79175 0.0
H339 H 0.98363 0.43928 0.80022 0.0
H340 H 0.99012 0.48709 0.82106 0.0
H341 H 0.83401 0.43272 0.89359 0.0
H342 H 0.84564 0.48387 0.87347 0.0
H343 H 0.98819 0.48091 0.86426 0.0
H344 H 0.97646 0.4288 0.88446 0.0
H345 H 0.92566 0.45709 0.84282 0.0
H346 H 0.98814 0.58974 0.87625 0.0
H347 H 0.9868 0.63339 0.89713 0.0
H348 H 0.85322 0.64277 0.883 0.0
H349 H 0.85375 0.59894 0.86205 0.0
C350 C 0.9314 0.61218 0.79493 0.0
C351 C 0.88674 0.61815 0.79377 0.0
C352 C 0.94243 0.5953 0.80697 0.0
C353 C 0.9088 0.58377 0.81802 0.0
C354 C 0.86534 0.59155 0.81698 0.0
C355 C 0.8544 0.6085 0.80501 0.0
C356 C 0.91687 0.5613 0.83052 0.0
C357 C 0.91851 0.58582 0.84269 0.0
C358 C 0.92023 0.51465 0.83059 0.0
C359 C 0.91583 0.48504 0.81819 0.0
C360 C 0.87134 0.46687 0.8099 0.0
C361 C 0.86787 0.43961 0.79814 0.0
C362 C 0.90843 0.42985 0.79464 0.0
C363 C 0.95236 0.447 0.80293 0.0
C364 C 0.95596 0.47417 0.81471 0.0
C365 C 0.86821 0.44332 0.88739 0.0
C366 C 0.90438 0.42672 0.89067 0.0
C367 C 0.87494 0.47287 0.8759 0.0
C368 C 0.9183 0.48711 0.86746 0.0
C369 C 0.95475 0.47088 0.87071 0.0
C370 C 0.94804 0.44119 0.88226 0.0
C371 C 0.92365 0.51675 0.85498 0.0
C372 C 0.92483 0.49375 0.84279 0.0
C373 C 0.92139 0.56405 0.85494 0.0
C374 C 0.92128 0.59114 0.86751 0.0
C375 C 0.95867 0.60127 0.87756 0.0
C376 C 0.95794 0.62595 0.88943 0.0
C377 C 0.91996 0.64091 0.89139 0.0
C378 C 0.88272 0.63128 0.88146 0.0
C379 C 0.88335 0.60662 0.86956 0.0
H380 H 0.91936 0.65993 0.9006 0.0
H381 H 0.90573 0.40881 0.78552 0.0
H382 H 0.3806 0.79349 0.5506 0.0
H383 H 0.36702 0.81783 0.52829 0.0
H384 H 0.51872 0.95986 0.5301 0.0
H385 H 0.53269 0.93608 0.55255 0.0
H386 H 0.43245 0.97219 0.51898 0.0
H387 H 0.51404 0.86633 0.51476 0.0
H388 H 0.52522 0.78929 0.51833 0.0
H389 H 0.37559 0.68911 0.49969 0.0
H390 H 0.36322 0.76559 0.49612 0.0
H391 H 0.41752 0.91661 0.44131 0.0
H392 H 0.4536 0.92046 0.46348 0.0
H393 H 0.32172 0.92545 0.48117 0.0
H394 H 0.28584 0.92254 0.459 0.0
H395 H 0.41301 0.85034 0.48219 0.0
H396 H 0.3548 0.98482 0.51177 0.0
H397 H 0.34403 0.06192 0.50757 0.0
H398 H 0.45384 0.10889 0.47504 0.0
H399 H 0.46525 0.03222 0.47903 0.0
C400 C 0.41095 0.83025 0.54635 0.0
C401 C 0.4579 0.8627 0.55335 0.0
C402 C 0.40306 0.84406 0.53359 0.0
C403 C 0.44187 0.89059 0.52754 0.0
C404 C 0.48805 0.92408 0.53464 0.0
C405 C 0.4961 0.91021 0.54744 0.0
C406 C 0.43486 0.9023 0.51356 0.0
C407 C 0.4286 0.94591 0.51088 0.0
C408 C 0.43033 0.86809 0.50303 0.0
C409 C 0.43768 0.82189 0.50519 0.0
C410 C 0.48339 0.82793 0.51146 0.0
C411 C 0.48996 0.7843 0.51348 0.0
C412 C 0.45113 0.73431 0.50925 0.0
C413 C 0.40567 0.72788 0.50296 0.0
C414 C 0.39892 0.77141 0.50092 0.0
C415 C 0.39664 0.91949 0.4499 0.0
C416 C 0.34866 0.91906 0.44837 0.0
C417 C 0.41734 0.92164 0.46259 0.0
C418 C 0.39069 0.92363 0.47404 0.0
C419 C 0.34361 0.9249 0.47251 0.0
C420 C 0.32298 0.923 0.45981 0.0
C421 C 0.40966 0.91991 0.48754 0.0
C422 C 0.41768 0.87732 0.49019 0.0
C423 C 0.41639 0.95544 0.49798 0.0
C424 C 0.41073 0.00251 0.49568 0.0
C425 C 0.37684 0.0117 0.50375 0.0
C426 C 0.37036 0.05519 0.50136 0.0
C427 C 0.3981 0.0902 0.49102 0.0
C428 C 0.43222 0.08167 0.48302 0.0
C429 C 0.43859 0.03809 0.48532 0.0
H430 H 0.39328 0.12403 0.48924 0.0
H431 H 0.45627 0.70056 0.51083 0.0
H432 H 0.49528 0.16103 0.06655 0.0
H433 H 0.51175 0.09099 0.05928 0.0
H434 H 0.36952 0.97559 0.07911 0.0
H435 H 0.35411 0.046 0.08692 0.0
H436 H 0.44035 0.95041 0.08313 0.0
H437 H 0.37802 0.99487 0.04416 0.0
H438 H 0.3737 0.05203 0.02673 0.0
H439 H 0.53173 0.0986 0.01451 0.0
H440 H 0.53727 0.04225 0.032 0.0
H441 H 0.455 0.77641 0.02519 0.0
H442 H 0.43271 0.84121 0.03356 0.0
H443 H 0.54349 0.87904 0.06588 0.0
H444 H 0.56387 0.81217 0.05783 0.0
H445 H 0.48235 0.93919 0.03573 0.0
H446 H 0.50969 0.92506 0.0927 0.0
H447 H 0.5015 0.85851 0.1091 0.0
H448 H 0.38893 0.73462 0.08392 0.0
H449 H 0.39576 0.80044 0.06748 0.0
C450 C 0.46739 0.12073 0.06934 0.0
C451 C 0.42318 0.10907 0.07725 0.0
C452 C 0.47676 0.0806 0.06513 0.0
C453 C 0.44143 0.02769 0.06843 0.0
C454 C 0.39741 0.01601 0.07641 0.0
C455 C 0.3885 0.05629 0.08083 0.0
C456 C 0.45054 0.98474 0.06356 0.0
C457 C 0.4494 0.94791 0.07276 0.0
C458 C 0.46125 0.9805 0.04998 0.0
C459 C 0.45822 0.01471 0.03948 0.0
C460 C 0.41201 0.01762 0.03783 0.0
C461 C 0.40931 0.04983 0.02793 0.0
C462 C 0.45245 0.07902 0.01954 0.0
C463 C 0.49836 0.07601 0.02103 0.0
C464 C 0.50129 0.04392 0.03093 0.0
C465 C 0.47431 0.79835 0.03413 0.0
C466 C 0.51062 0.78883 0.04097 0.0
C467 C 0.46167 0.83553 0.0389 0.0
C468 C 0.48581 0.86478 0.05047 0.0
C469 C 0.52311 0.85608 0.05715 0.0
C470 C 0.53485 0.81791 0.05254 0.0
C471 C 0.47257 0.905 0.0553 0.0
C472 C 0.47312 0.9415 0.04611 0.0
C473 C 0.45928 0.90756 0.06878 0.0
C474 C 0.45369 0.86772 0.0788 0.0
C475 C 0.48295 0.88365 0.0907 0.0
C476 C 0.47857 0.84604 0.1 0.0
C477 C 0.44486 0.79236 0.09753 0.0
C478 C 0.41516 0.7762 0.0858 0.0
C479 C 0.41927 0.81364 0.07649 0.0
H480 H 0.44169 0.7633 0.10472 0.0
H481 H 0.45027 0.10389 0.01187 0.0
H482 H 0.30969 0.48891 0.71824 0.0
H483 H 0.40054 0.51302 0.71303 0.0
H484 H 0.36918 0.35924 0.7259 0.0
H485 H 0.27883 0.33558 0.73153 0.0
H486 H 0.4507 0.42806 0.73787 0.0
H487 H 0.39813 0.40252 0.69302 0.0
H488 H 0.35843 0.40872 0.67196 0.0
H489 H 0.46838 0.57502 0.6701 0.0
H490 H 0.50772 0.57029 0.69144 0.0
H491 H 0.71242 0.48945 0.72213 0.0
H492 H 0.61846 0.45079 0.7169 0.0
H493 H 0.63053 0.60263 0.72214 0.0
H494 H 0.72416 0.64139 0.72776 0.0
H495 H 0.55931 0.52596 0.69871 0.0
H496 H 0.59508 0.54448 0.74728 0.0
H497 H 0.63578 0.53057 0.76727 0.0
H498 H 0.55514 0.36393 0.75957 0.0
H499 H 0.51463 0.37709 0.7394 0.0
C500 C 0.32184 0.45985 0.71972 0.0
C501 C 0.28721 0.41055 0.72546 0.0
C502 C 0.37381 0.47359 0.71665 0.0
C503 C 0.39192 0.43798 0.71904 0.0
C504 C 0.35635 0.38757 0.72403 0.0
C505 C 0.30464 0.37406 0.72725 0.0
C506 C 0.44909 0.45545 0.71796 0.0
C507 C 0.4739 0.44846 0.72914 0.0
C508 C 0.47998 0.48255 0.70665 0.0
C509 C 0.45561 0.4861 0.69395 0.0
C510 C 0.41345 0.44061 0.68824 0.0
C511 C 0.39108 0.44383 0.67621 0.0
C512 C 0.41091 0.49221 0.66966 0.0
C513 C 0.45303 0.53756 0.67518 0.0
C514 C 0.47532 0.53464 0.68727 0.0
C515 C 0.69539 0.51489 0.72186 0.0
C516 C 0.7255 0.56836 0.72547 0.0
C517 C 0.64179 0.49275 0.71884 0.0
C518 C 0.61781 0.52397 0.71911 0.0
C519 C 0.64856 0.57809 0.72178 0.0
C520 C 0.70188 0.60003 0.72508 0.0
C521 C 0.5597 0.49901 0.71862 0.0
C522 C 0.53521 0.50483 0.70724 0.0
C523 C 0.52859 0.46973 0.72958 0.0
C524 C 0.55241 0.46183 0.74177 0.0
C525 C 0.58645 0.50496 0.74979 0.0
C526 C 0.60939 0.49721 0.76116 0.0
C527 C 0.59819 0.44641 0.76467 0.0
C528 C 0.56387 0.40326 0.75683 0.0
C529 C 0.54091 0.41084 0.74543 0.0
H530 H 0.61598 0.44048 0.77348 0.0
H531 H 0.39367 0.49453 0.66032 0.0
H532 H 0.18857 0.73532 0.37225 0.0
H533 H 0.13065 0.64169 0.36702 0.0
H534 H 0.02968 0.6278 0.39998 0.0
H535 H 0.08698 0.72083 0.40525 0.0
H536 H 0.11035 0.5589 0.38301 0.0
H537 H 0.9041 0.53763 0.39308 0.0
H538 H 0.85896 0.5886 0.3893 0.0
H539 H 0.96436 0.67119 0.35693 0.0
H540 H 0.00966 0.62021 0.36037 0.0
H541 H 0.92335 0.31825 0.41128 0.0
H542 H 0.98405 0.40907 0.40466 0.0
H543 H 0.90305 0.38212 0.36704 0.0
H544 H 0.84174 0.29073 0.37362 0.0
H545 H 0.9154 0.47009 0.37926 0.0
H546 H 0.02621 0.40248 0.36695 0.0
H547 H 0.07175 0.35121 0.36929 0.0
H548 H 0.15789 0.44564 0.40297 0.0
H549 H 0.11236 0.49704 0.40096 0.0
C550 C 0.15353 0.71251 0.37824 0.0
C551 C 0.14249 0.7355 0.3892 0.0
C552 C 0.12061 0.659 0.37526 0.0
C553 C 0.07571 0.62785 0.38306 0.0
C554 C 0.06371 0.65121 0.39371 0.0
C555 C 0.09672 0.70441 0.39675 0.0
C556 C 0.04334 0.57009 0.38088 0.0
C557 C 0.06778 0.53944 0.38203 0.0
C558 C 0.98794 0.54477 0.37926 0.0
C559 C 0.96048 0.57524 0.37704 0.0
C560 C 0.91747 0.56643 0.3851 0.0
C561 C 0.89189 0.59539 0.38303 0.0
C562 C 0.90885 0.63318 0.3729 0.0
C563 C 0.95136 0.64202 0.3648 0.0
C564 C 0.97706 0.61316 0.36682 0.0
C565 C 0.91876 0.3313 0.40152 0.0
C566 C 0.87751 0.29724 0.39301 0.0
C567 C 0.95374 0.38322 0.39772 0.0
C568 C 0.9483 0.4023 0.38532 0.0
C569 C 0.90801 0.36812 0.37664 0.0
C570 C 0.87314 0.3159 0.3804 0.0
C571 C 0.98223 0.45903 0.38205 0.0
C572 C 0.95806 0.48949 0.37993 0.0
C573 C 0.03793 0.48414 0.38257 0.0
C574 C 0.06563 0.45347 0.38383 0.0
C575 C 0.0546 0.4121 0.37492 0.0
C576 C 0.08047 0.38305 0.37617 0.0
C577 C 0.11764 0.39512 0.38628 0.0
C578 C 0.1291 0.43634 0.39514 0.0
C579 C 0.10333 0.46552 0.39393 0.0
H580 H 0.13762 0.37257 0.38724 0.0
H581 H 0.88901 0.65558 0.37132 0.0
H582 H 0.91311 0.64738 0.27078 0.0
H583 H 0.98805 0.6325 0.27272 0.0
H584 H 0.8811 0.46778 0.28099 0.0
H585 H 0.80659 0.48316 0.2798 0.0
H586 H 0.96288 0.49657 0.2952 0.0
H587 H 0.93688 0.5186 0.24874 0.0
H588 H 0.9284 0.56408 0.22899 0.0
H589 H 0.08469 0.69412 0.23556 0.0
H590 H 0.09383 0.64964 0.25546 0.0
H591 H 0.10918 0.38367 0.266 0.0
H592 H 0.04569 0.4122 0.27152 0.0
H593 H 0.17321 0.57177 0.27662 0.0
H594 H 0.23715 0.54339 0.27145 0.0
H595 H 0.0888 0.5536 0.25735 0.0
H596 H 0.11516 0.5202 0.30275 0.0
H597 H 0.12002 0.46793 0.32141 0.0
H598 H 0.95793 0.35005 0.31521 0.0
H599 H 0.95229 0.40125 0.29637 0.0
C600 C 0.90573 0.60814 0.27315 0.0
C601 C 0.85397 0.56636 0.27505 0.0
C602 C 0.94855 0.59957 0.27418 0.0
C603 C 0.94031 0.54869 0.27669 0.0
C604 C 0.88868 0.50737 0.27903 0.0
C605 C 0.84602 0.51619 0.27831 0.0
C606 C 0.98486 0.53774 0.27637 0.0
C607 C 0.99012 0.50878 0.28686 0.0
C608 C 0.0212 0.5543 0.26562 0.0
C609 C 0.01578 0.58109 0.25367 0.0
C610 C 0.96927 0.55707 0.24602 0.0
C611 C 0.96438 0.58263 0.2348 0.0
C612 C 0.00592 0.63204 0.23105 0.0
C613 C 0.05251 0.6559 0.2385 0.0
C614 C 0.05758 0.63053 0.24974 0.0
C615 C 0.12376 0.42466 0.26853 0.0
C616 C 0.17813 0.46133 0.26826 0.0
C617 C 0.08748 0.44083 0.27172 0.0
C618 C 0.10489 0.49403 0.27448 0.0
C619 C 0.15915 0.5305 0.27456 0.0
C620 C 0.19555 0.51417 0.27165 0.0
C621 C 0.06609 0.51205 0.27604 0.0
C622 C 0.06187 0.54212 0.26575 0.0
C623 C 0.03009 0.49546 0.2868 0.0
C624 C 0.03347 0.46437 0.29806 0.0
C625 C 0.0807 0.48287 0.30527 0.0
C626 C 0.08356 0.45349 0.3159 0.0
C627 C 0.03935 0.40564 0.31947 0.0
C628 C 0.99216 0.3871 0.31242 0.0
C629 C 0.9891 0.41632 0.30178 0.0
H630 H 0.04163 0.38299 0.32772 0.0
H631 H 0.00205 0.65176 0.22235 0.0
H632 H 0.77539 0.13902 0.95694 0.0
H633 H 0.68365 0.06892 0.96031 0.0
H634 H 0.63399 0.13267 0.9283 0.0
H635 H 0.72474 0.2025 0.92492 0.0
H636 H 0.5695 0.10777 0.94991 0.0
H637 H 0.64883 0.02618 0.92342 0.0
H638 H 0.71353 0.99734 0.91902 0.0
H639 H 0.66443 0.90283 0.95456 0.0
H640 H 0.59986 0.93167 0.95926 0.0
H641 H 0.33151 0.90851 0.92324 0.0
H642 H 0.42123 0.97739 0.9284 0.0
H643 H 0.43066 0.88002 0.95934 0.0
H644 H 0.34059 0.81033 0.95416 0.0
H645 H 0.51573 0.91951 0.94322 0.0
H646 H 0.42675 0.98988 0.96786 0.0
H647 H 0.36137 0.01773 0.97229 0.0
H648 H 0.42769 0.13266 0.94094 0.0
H649 H 0.49308 0.10505 0.93619 0.0
C650 C 0.74489 0.13809 0.95064 0.0
C651 C 0.75752 0.17633 0.94063 0.0
C652 C 0.69254 0.09799 0.95256 0.0
C653 C 0.65203 0.09552 0.94452 0.0
C654 C 0.66456 0.13393 0.93465 0.0
C655 C 0.71663 0.17373 0.93269 0.0
C656 C 0.59647 0.05271 0.94607 0.0
C657 C 0.55765 0.06659 0.94841 0.0
C658 C 0.58124 0.99885 0.9446 0.0
C659 C 0.62005 0.98161 0.94178 0.0
C660 C 0.65218 0.99962 0.93036 0.0
C661 C 0.68875 0.9832 0.9278 0.0
C662 C 0.69322 0.94843 0.93653 0.0
C663 C 0.66101 0.92987 0.94783 0.0
C664 C 0.62442 0.94622 0.95044 0.0
C665 C 0.3523 0.90185 0.93126 0.0
C666 C 0.32883 0.85379 0.93826 0.0
C667 C 0.40359 0.94146 0.93425 0.0
C668 C 0.43255 0.93407 0.94434 0.0
C669 C 0.40896 0.88659 0.95154 0.0
C670 C 0.35743 0.8469 0.94859 0.0
C671 C 0.48853 0.97474 0.94662 0.0
C672 C 0.52747 0.96051 0.94501 0.0
C673 C 0.5039 0.0283 0.94882 0.0
C674 C 0.46465 0.04514 0.95162 0.0
C675 C 0.42717 0.02083 0.96184 0.0
C676 C 0.39014 0.03663 0.96442 0.0
C677 C 0.39032 0.07688 0.95689 0.0
C678 C 0.4276 0.10148 0.94677 0.0
C679 C 0.46472 0.08584 0.94414 0.0
H680 H 0.36162 0.08905 0.9589 0.0
H681 H 0.72154 0.93574 0.93453 0.0
H682 H 0.58067 0.73182 0.62976 0.0
H683 H 0.56012 0.64266 0.63608 0.0
H684 H 0.42454 0.57696 0.61009 0.0
H685 H 0.44407 0.66541 0.60393 0.0
H686 H 0.40342 0.51921 0.63256 0.0
H687 H 0.54521 0.59636 0.59953 0.0
H688 H 0.63345 0.66318 0.59153 0.0
H689 H 0.70499 0.63118 0.62494 0.0
H690 H 0.61703 0.56456 0.63321 0.0
H691 H 0.36675 0.29069 0.6006 0.0
H692 H 0.38428 0.37725 0.6081 0.0
H693 H 0.50195 0.38575 0.63548 0.0
H694 H 0.48423 0.29841 0.62807 0.0
H695 H 0.53862 0.47315 0.61907 0.0
H696 H 0.39507 0.37798 0.64821 0.0
H697 H 0.30624 0.3096 0.65532 0.0
H698 H 0.23665 0.37349 0.62896 0.0
H699 H 0.32504 0.44173 0.62149 0.0
C700 C 0.54599 0.69838 0.62556 0.0
C701 C 0.5144 0.70581 0.6162 0.0
C702 C 0.53437 0.64745 0.62916 0.0
C703 C 0.49122 0.60313 0.62341 0.0
C704 C 0.45804 0.61053 0.61466 0.0
C705 C 0.46949 0.66126 0.61109 0.0
C706 C 0.48273 0.54915 0.62541 0.0
C707 C 0.43292 0.50903 0.62963 0.0
C708 C 0.52188 0.53615 0.62205 0.0
C709 C 0.57463 0.57607 0.61707 0.0
C710 C 0.57977 0.60389 0.60521 0.0
C711 C 0.6297 0.64166 0.60062 0.0
C712 C 0.67479 0.65155 0.60775 0.0
C713 C 0.67003 0.62357 0.61945 0.0
C714 C 0.62017 0.58582 0.6241 0.0
C715 C 0.39588 0.31056 0.60835 0.0
C716 C 0.4243 0.2878 0.61369 0.0
C717 C 0.40559 0.35992 0.6127 0.0
C718 C 0.44414 0.38777 0.62243 0.0
C719 C 0.47182 0.36473 0.62802 0.0
C720 C 0.4616 0.31486 0.62379 0.0
C721 C 0.45849 0.44284 0.62563 0.0
C722 C 0.50947 0.48326 0.62239 0.0
C723 C 0.42027 0.45596 0.62981 0.0
C724 C 0.36683 0.41488 0.63423 0.0
C725 C 0.36085 0.37716 0.64381 0.0
C726 C 0.31054 0.33845 0.64793 0.0
C727 C 0.26582 0.33715 0.64258 0.0
C728 C 0.27133 0.37457 0.6331 0.0
C729 C 0.32156 0.41334 0.62894 0.0
H730 H 0.22691 0.30718 0.64579 0.0
H731 H 0.71342 0.68079 0.60418 0.0
H732 H 0.00108 0.29947 0.99058 0.0
H733 H 0.05937 0.29583 0.00746 0.0
H734 H 0.15188 0.278 0.9765 0.0
H735 H 0.09197 0.27891 0.95963 0.0
H736 H 0.14307 0.21683 0.99547 0.0
H737 H 0.19197 0.39872 0.99405 0.0
H738 H 0.17885 0.47565 0.99467 0.0
H739 H 0.11957 0.43634 0.0347 0.0
H740 H 0.1317 0.35874 0.03425 0.0
H741 H 0.37307 0.29581 0.03584 0.0
H742 H 0.31261 0.2974 0.01919 0.0
H743 H 0.19676 0.26383 0.04987 0.0
H744 H 0.25657 0.26105 0.06657 0.0
H745 H 0.21862 0.35139 0.03133 0.0
H746 H 0.17371 0.16816 0.03171 0.0
H747 H 0.19405 0.09607 0.03025 0.0
H748 H 0.25571 0.14574 0.99073 0.0
H749 H 0.23643 0.21865 0.99204 0.0
C750 C 0.03386 0.29476 0.98738 0.0
C751 C 0.04209 0.2897 0.97378 0.0
C752 C 0.06742 0.29302 0.99704 0.0
C753 C 0.11087 0.28774 0.99329 0.0
C754 C 0.11879 0.28219 0.97969 0.0
C755 C 0.08457 0.28284 0.97004 0.0
C756 C 0.14766 0.28739 0.00352 0.0
C757 C 0.16005 0.24676 0.00318 0.0
C758 C 0.16957 0.32596 0.01375 0.0
C759 C 0.16226 0.37262 0.01406 0.0
C760 C 0.17577 0.40626 0.00295 0.0
C761 C 0.16857 0.45002 0.00328 0.0
C762 C 0.14826 0.46079 0.0147 0.0
C763 C 0.13523 0.4279 0.02585 0.0
C764 C 0.14231 0.38405 0.02556 0.0
C765 C 0.33475 0.28883 0.03905 0.0
C766 C 0.31951 0.27821 0.05251 0.0
C767 C 0.30027 0.28963 0.02952 0.0
C768 C 0.25026 0.28059 0.03331 0.0
C769 C 0.23523 0.27089 0.04677 0.0
C770 C 0.26934 0.26913 0.05627 0.0
C771 C 0.21359 0.28103 0.0232 0.0
C772 C 0.20142 0.32165 0.02358 0.0
C773 C 0.19283 0.24321 0.01285 0.0
C774 C 0.20413 0.19919 0.01203 0.0
C775 C 0.19205 0.16401 0.02276 0.0
C776 C 0.20329 0.12293 0.02195 0.0
C777 C 0.2263 0.11641 0.01042 0.0
C778 C 0.23796 0.15088 0.99966 0.0
C779 C 0.22684 0.19205 1.00043 0.0
H780 H 0.23497 0.08459 0.00981 0.0
H781 H 0.14272 0.49469 0.01494 0.0
H782 H 0.66849 0.04017 0.63828 0.0
H783 H 0.73091 0.10397 0.65438 0.0
H784 H 0.83051 0.03513 0.65029 0.0
H785 H 0.76913 0.97214 0.63393 0.0
H786 H 0.8025 0.05331 0.67823 0.0
H787 H 0.87342 0.13915 0.63562 0.0
H788 H 0.86702 0.17372 0.61369 0.0
H789 H 0.82226 0.277 0.63273 0.0
H790 H 0.82766 0.24244 0.65477 0.0
H791 H 0.03307 0.23766 0.71198 0.0
H792 H 0.96808 0.17465 0.69638 0.0
H793 H 0.90952 0.28179 0.68919 0.0
H794 H 0.97676 0.34623 0.7042 0.0
H795 H 0.91258 0.2432 0.66708 0.0
H796 H 0.84237 0.1639 0.70926 0.0
H797 H 0.84188 0.12934 0.73172 0.0
H798 H 0.87525 0.01423 0.71487 0.0
H799 H 0.87663 0.04855 0.6923 0.0
C800 C 0.70371 0.03867 0.64081 0.0
C801 C 0.71404 0.00129 0.63483 0.0
C802 C 0.73926 0.07511 0.64998 0.0
C803 C 0.78515 0.07409 0.65348 0.0
C804 C 0.79521 0.03638 0.64769 0.0
C805 C 0.76026 0.00065 0.63832 0.0
C806 C 0.82293 0.11264 0.66314 0.0
C807 C 0.8271 0.09479 0.6758 0.0
C808 C 0.85336 0.16685 0.66006 0.0
C809 C 0.85034 0.18777 0.64682 0.0
C810 C 0.8617 0.16884 0.63512 0.0
C811 C 0.85838 0.18852 0.62267 0.0
C812 C 0.84408 0.22741 0.62181 0.0
C813 C 0.83324 0.24681 0.6334 0.0
C814 C 0.83646 0.22722 0.64588 0.0
C815 C 0.00618 0.24764 0.7071 0.0
C816 C 0.00981 0.29674 0.70933 0.0
C817 C 0.96872 0.21142 0.69824 0.0
C818 C 0.93292 0.22278 0.69177 0.0
C819 C 0.93653 0.27191 0.69404 0.0
C820 C 0.97488 0.30869 0.70265 0.0
C821 C 0.89285 0.18418 0.68234 0.0
C822 C 0.88803 0.20189 0.66966 0.0
C823 C 0.86089 0.12993 0.68554 0.0
C824 C 0.86007 0.10914 0.6991 0.0
C825 C 0.84998 0.13147 0.71035 0.0
C826 C 0.84948 0.11188 0.7231 0.0
C827 C 0.85866 0.0697 0.72472 0.0
C828 C 0.86821 0.04694 0.71359 0.0
C829 C 0.8688 0.0664 0.70082 0.0
H830 H 0.85825 0.05459 0.7346 0.0
H831 H 0.84155 0.24261 0.61217 0.0
H832 H 0.76184 0.9719 0.38417 0.0
H833 H 0.7582 0.90398 0.36931 0.0
H834 H 0.70366 0.96332 0.3373 0.0
H835 H 0.70512 0.02988 0.35229 0.0
H836 H 0.64873 0.86342 0.33702 0.0
H837 H 0.83369 0.98309 0.33904 0.0
H838 H 0.92124 0.03927 0.34913 0.0
H839 H 0.91386 0.90348 0.36767 0.0
H840 H 0.82592 0.84653 0.35784 0.0
H841 H 0.69988 0.72459 0.28544 0.0
H842 H 0.70864 0.79645 0.29976 0.0
H843 H 0.7142 0.71257 0.3345 0.0
H844 H 0.70438 0.64002 0.3203 0.0
H845 H 0.79557 0.82563 0.33267 0.0
H846 H 0.60645 0.70777 0.32979 0.0
H847 H 0.52277 0.65545 0.31763 0.0
H848 H 0.54412 0.79567 0.29826 0.0
H849 H 0.62838 0.84873 0.31017 0.0
C850 C 0.74928 0.97059 0.37395 0.0
C851 C 0.73375 0.00624 0.36941 0.0
C852 C 0.74754 0.93192 0.36542 0.0
C853 C 0.73139 0.92885 0.35208 0.0
C854 C 0.71622 0.96474 0.34753 0.0
C855 C 0.71716 0.00287 0.35611 0.0
C856 C 0.72834 0.88703 0.34303 0.0
C857 C 0.68128 0.85588 0.33596 0.0
C858 C 0.7704 0.87639 0.34169 0.0
C859 C 0.82293 0.91061 0.34781 0.0
C860 C 0.85049 0.96527 0.34538 0.0
C861 C 0.90025 0.99724 0.35103 0.0
C862 C 0.92304 0.97498 0.35906 0.0
C863 C 0.89613 0.92068 0.36146 0.0
C864 C 0.84633 0.88853 0.35585 0.0
C865 C 0.70301 0.72146 0.29613 0.0
C866 C 0.70127 0.6766 0.30176 0.0
C867 C 0.70795 0.76247 0.30428 0.0
C868 C 0.71198 0.75964 0.31816 0.0
C869 C 0.71119 0.7154 0.3238 0.0
C870 C 0.70534 0.67395 0.31568 0.0
C871 C 0.71622 0.80255 0.32683 0.0
C872 C 0.76336 0.83367 0.33379 0.0
C873 C 0.67478 0.81394 0.32785 0.0
C874 C 0.62397 0.78211 0.32076 0.0
C875 C 0.59354 0.72737 0.32285 0.0
C876 C 0.54596 0.6976 0.31602 0.0
C877 C 0.52821 0.7222 0.30715 0.0
C878 C 0.55795 0.77666 0.30512 0.0
C879 C 0.6056 0.8066 0.31191 0.0
H880 H 0.49136 0.69908 0.30187 0.0
H881 H 0.96162 0.99979 0.3634 0.0
H882 H 0.70607 0.67789 0.0153 0.0
H883 H 0.78583 0.68681 0.0051 0.0
H884 H 0.75212 0.74401 0.96886 0.0
H885 H 0.67122 0.73361 0.9789 0.0
H886 H 0.77909 0.6742 0.96288 0.0
H887 H 0.85361 0.82693 0.99056 0.0
H888 H 0.86945 0.87842 0.01122 0.0
H889 H 0.93181 0.78934 0.03003 0.0
H890 H 0.91569 0.73679 0.00953 0.0
H891 H 0.02942 0.74524 0.93442 0.0
H892 H 0.95572 0.75152 0.94393 0.0
H893 H 0.96702 0.67837 0.98017 0.0
H894 H 0.04103 0.67241 0.97081 0.0
H895 H 0.95382 0.76308 0.98517 0.0
H896 H 0.873 0.60721 0.95718 0.0
H897 H 0.86004 0.55978 0.93592 0.0
H898 H 0.81219 0.66087 0.91703 0.0
H899 H 0.82544 0.70929 0.93816 0.0
C900 C 0.71585 0.69287 0.00521 0.0
C901 C 0.68229 0.7051 0.99792 0.0
C902 C 0.76167 0.69818 0.99939 0.0
C903 C 0.77547 0.71671 0.98624 0.0
C904 C 0.74238 0.72965 0.97901 0.0
C905 C 0.69623 0.72387 0.98479 0.0
C906 C 0.82315 0.7203 0.97989 0.0
C907 C 0.81745 0.69446 0.96767 0.0
C908 C 0.87321 0.74608 0.98618 0.0
C909 C 0.88301 0.77761 0.99853 0.0
C910 C 0.87033 0.81804 0.99913 0.0
C911 C 0.87943 0.84747 0.01081 0.0
C912 C 0.90151 0.83708 0.02194 0.0
C913 C 0.91466 0.79731 0.02141 0.0
C914 C 0.90561 0.76773 0.00975 0.0
C915 C 0.01634 0.73061 0.94443 0.0
C916 C 0.04095 0.7081 0.95184 0.0
C917 C 0.97411 0.73411 0.94983 0.0
C918 C 0.95557 0.71495 0.96271 0.0
C919 C 0.9807 0.69339 0.97022 0.0
C920 C 0.02286 0.68982 0.96482 0.0
C921 C 0.90939 0.71647 0.96833 0.0
C922 C 0.91543 0.74323 0.98039 0.0
C923 C 0.85982 0.69203 0.96183 0.0
C924 C 0.85067 0.66216 0.94922 0.0
C925 C 0.85996 0.61948 0.94848 0.0
C926 C 0.85253 0.5924 0.93646 0.0
C927 C 0.83543 0.60739 0.92513 0.0
C928 C 0.82547 0.64933 0.92581 0.0
C929 C 0.83287 0.67656 0.93781 0.0
H930 H 0.82981 0.58646 0.91582 0.0
H931 H 0.90853 0.85992 0.03097 0.0
H932 H 0.35109 0.975 0.63884 0.0
H933 H 0.28713 0.9102 0.65452 0.0
H934 H 0.17718 0.96305 0.64523 0.0
H935 H 0.24021 0.02689 0.62927 0.0
H936 H 0.20187 0.95516 0.67449 0.0
H937 H 0.1456 0.85789 0.63281 0.0
H938 H 0.16014 0.82113 0.61216 0.0
H939 H 0.21218 0.73186 0.63517 0.0
H940 H 0.19868 0.76875 0.65596 0.0
H941 H 0.97529 0.76483 0.70852 0.0
H942 H 0.03757 0.82655 0.69222 0.0
H943 H 0.11293 0.73217 0.68945 0.0
H944 H 0.04865 0.66875 0.70519 0.0
H945 H 0.10836 0.76224 0.66617 0.0
H946 H 0.16663 0.85456 0.70748 0.0
H947 H 0.15962 0.89227 0.72886 0.0
H948 H 0.11441 0.99193 0.70811 0.0
H949 H 0.12048 0.95431 0.68661 0.0
C950 C 0.3132 0.97264 0.6401 0.0
C951 C 0.30058 0.00593 0.63282 0.0
C952 C 0.27677 0.93563 0.64903 0.0
C953 C 0.22759 0.932 0.651 0.0
C954 C 0.215 0.96537 0.64383 0.0
C955 C 0.25093 0.0016 0.63469 0.0
C956 C 0.18952 0.8938 0.66068 0.0
C957 C 0.1808 0.91297 0.67265 0.0
C958 C 0.16377 0.83885 0.65842 0.0
C959 C 0.17172 0.81656 0.64593 0.0
C960 C 0.16067 0.83085 0.63346 0.0
C961 C 0.16859 0.80989 0.62173 0.0
C962 C 0.18723 0.77431 0.62235 0.0
C963 C 0.19783 0.75949 0.6347 0.0
C964 C 0.19002 0.78039 0.64646 0.0
C965 C 0.00519 0.75731 0.70443 0.0
C966 C 0.00728 0.71211 0.70816 0.0
C967 C 0.04107 0.79283 0.69517 0.0
C968 C 0.0809 0.78483 0.68977 0.0
C969 C 0.08274 0.73942 0.69345 0.0
C970 C 0.04606 0.70323 0.70248 0.0
C971 C 0.12005 0.82331 0.68014 0.0
C972 C 0.12924 0.80432 0.66814 0.0
C973 C 0.14722 0.87849 0.68253 0.0
C974 C 0.14352 0.90123 0.69544 0.0
C975 C 0.15482 0.88424 0.70748 0.0
C976 C 0.15107 0.90565 0.71962 0.0
C977 C 0.13644 0.94437 0.71985 0.0
C978 C 0.12566 0.96188 0.70793 0.0
C979 C 0.1293 0.94056 0.69576 0.0
H980 H 0.13358 0.9609 0.72926 0.0
H981 H 0.19332 0.75811 0.61326 0.0
H982 H 0.24089 0.04548 0.37331 0.0
H983 H 0.24617 0.10875 0.35658 0.0
H984 H 0.34146 0.0693 0.33154 0.0
H985 H 0.33758 0.0071 0.34838 0.0
H986 H 0.3818 0.17093 0.33178 0.0
H987 H 0.20806 0.02391 0.32504 0.0
H988 H 0.11826 0.95531 0.33151 0.0
H989 H 0.08282 0.07471 0.34387 0.0
H990 H 0.17269 0.14406 0.33764 0.0
H991 H 0.26622 0.26179 0.27393 0.0
H992 H 0.25954 0.19426 0.28948 0.0
H993 H 0.3631 0.31569 0.3169 0.0
H994 H 0.37071 0.38336 0.30133 0.0
H995 H 0.22246 0.16922 0.3142 0.0
H996 H 0.43803 0.27588 0.33344 0.0
H997 H 0.52727 0.33966 0.32535 0.0
H998 H 0.4779 0.29115 0.28498 0.0
H999 H 0.38861 0.2266 0.29283 0.0
C1000 C 0.26288 0.05019 0.36422 0.0
C1001 C 0.28876 0.02118 0.36217 0.0
C1002 C 0.26565 0.08622 0.35463 0.0
C1003 C 0.29367 0.09339 0.3427 0.0
C1004 C 0.31961 0.06451 0.34065 0.0
C1005 C 0.31725 0.02884 0.35028 0.0
C1006 C 0.2969 0.13171 0.33245 0.0
C1007 C 0.3469 0.17047 0.32795 0.0
C1008 C 0.2514 0.13079 0.32726 0.0
C1009 C 0.19728 0.08917 0.33099 0.0
C1010 C 0.18125 0.03554 0.32923 0.0
C1011 C 0.13031 0.99652 0.33284 0.0
C1012 C 0.0949 0.01064 0.33813 0.0
C1013 C 0.11032 0.06383 0.33979 0.0
C1014 C 0.16123 0.10301 0.33621 0.0
C1015 C 0.28771 0.27414 0.28325 0.0
C1016 C 0.31919 0.32799 0.28636 0.0
C1017 C 0.28369 0.23547 0.29215 0.0
C1018 C 0.31117 0.24985 0.30431 0.0
C1019 C 0.34219 0.3036 0.30749 0.0
C1020 C 0.34638 0.34227 0.29858 0.0
C1021 C 0.30735 0.2087 0.31369 0.0
C1022 C 0.25729 0.16956 0.31805 0.0
C1023 C 0.35271 0.20856 0.31854 0.0
C1024 C 0.4065 0.24678 0.31373 0.0
C1025 C 0.44629 0.27868 0.32284 0.0
C1026 C 0.49687 0.31499 0.3183 0.0
C1027 C 0.5082 0.31957 0.30466 0.0
C1028 C 0.46902 0.2877 0.29554 0.0
C1029 C 0.4184 0.2513 0.30003 0.0
H1030 H 0.54736 0.34774 0.30116 0.0
H1031 H 0.05549 0.98038 0.34091 0.0
loop_
_geom_bond_atom_site_label_1
_geom_bond_atom_site_label_2
_geom_bond_distance
_geom_bond_site_symmetry_2
_ccdc_geom_bond_type
O0 Cd1 2.300 . S
O0 C7 1.275 . S
Cd1 O0 2.300 . S
Cd1 O9 2.381 . S
Cd1 O10 2.378 . S
O2 Cd3 2.385 . S
O2 C7 1.255 . S
Cd3 O2 2.385 . S
Cd3 O4 2.317 . S
O4 Cd3 2.317 . S
O4 C5 1.232 . S
C5 O4 1.232 . S
C5 O6 1.218 . S
O6 C5 1.218 . S
C7 O0 1.275 . S
C7 O2 1.255 . S
C8 O9 1.258 . S
C8 O10 1.256 . S
O9 Cd1 2.381 . S
O9 C8 1.258 . S
O10 Cd1 2.378 . S
O10 C8 1.256 . S
O11 Cd12 2.300 . S
O11 C18 1.275 . S
Cd12 O11 2.300 . S
Cd12 O20 2.381 . S
Cd12 O21 2.378 . S
O13 Cd14 2.385 . S
O13 C18 1.255 . S
Cd14 O13 2.385 . S
Cd14 O15 2.317 . S
O15 Cd14 2.317 . S
O15 C16 1.232 . S
C16 O15 1.232 . S
C16 O17 1.218 . S
O17 C16 1.218 . S
C18 O11 1.275 . S
C18 O13 1.255 . S
C19 O20 1.258 . S
C19 O21 1.256 . S
O20 Cd12 2.381 . S
O20 C19 1.258 . S
O21 Cd12 2.378 . S
O21 C19 1.256 . S
O22 Cd23 2.300 . S
O22 C29 1.275 . S
Cd23 O22 2.300 . S
Cd23 O31 2.381 . S
Cd23 O32 2.378 . S
O24 Cd25 2.385 . S
O24 C29 1.255 . S
Cd25 O24 2.385 . S
Cd25 O26 2.317 . S
O26 Cd25 2.317 . S
O26 C27 1.232 . S
C27 O26 1.232 . S
C27 O28 1.218 . S
O28 C27 1.218 . S
C29 O22 1.275 . S
C29 O24 1.255 . S
C30 O31 1.258 . S
C30 O32 1.256 . S
O31 Cd23 2.381 . S
O31 C30 1.258 . S
O32 Cd23 2.378 . S
O32 C30 1.256 . S
O33 Cd34 2.300 . S
O33 C40 1.275 . S
Cd34 O33 2.300 . S
Cd34 O42 2.381 . S
Cd34 O43 2.378 . S
O35 Cd36 2.385 . S
O35 C40 1.255 . S
Cd36 O35 2.385 . S
Cd36 O37 2.317 . S
O37 Cd36 2.317 . S
O37 C38 1.232 . S
C38 O37 1.232 . S
C38 O39 1.218 . S
O39 C38 1.218 . S
C40 O33 1.275 . S
C40 O35 1.255 . S
C41 O42 1.258 . S
C41 O43 1.256 . S
O42 Cd34 2.381 . S
O42 C41 1.258 . S
O43 Cd34 2.378 . S
O43 C41 1.256 . S
O44 Cd45 2.300 . S
O44 C51 1.275 . S
Cd45 O44 2.300 . S
Cd45 O53 2.381 . S
Cd45 O54 2.378 . S
O46 Cd47 2.385 . S
O46 C51 1.255 . S
Cd47 O46 2.385 . S
Cd47 O48 2.317 . S
O48 Cd47 2.317 . S
O48 C49 1.232 . S
C49 O48 1.232 . S
C49 O50 1.218 . S
O50 C49 1.218 . S
C51 O44 1.275 . S
C51 O46 1.255 . S
C52 O53 1.258 . S
C52 O54 1.256 . S
O53 Cd45 2.381 . S
O53 C52 1.258 . S
O54 Cd45 2.378 . S
O54 C52 1.256 . S
O55 Cd56 2.300 . S
O55 C62 1.275 . S
Cd56 O55 2.300 . S
Cd56 O64 2.381 . S
Cd56 O65 2.378 . S
O57 Cd58 2.385 . S
O57 C62 1.255 . S
Cd58 O57 2.385 . S
Cd58 O59 2.317 . S
O59 Cd58 2.317 . S
O59 C60 1.232 . S
C60 O59 1.232 . S
C60 O61 1.218 . S
O61 C60 1.218 . S
C62 O55 1.275 . S
C62 O57 1.255 . S
C63 O64 1.258 . S
C63 O65 1.256 . S
O64 Cd56 2.381 . S
O64 C63 1.258 . S
O65 Cd56 2.378 . S
O65 C63 1.256 . S
O66 Cd67 2.300 . S
O66 C73 1.275 . S
Cd67 O66 2.300 . S
Cd67 O75 2.381 . S
Cd67 O76 2.378 . S
O68 Cd69 2.385 . S
O68 C73 1.255 . S
Cd69 O68 2.385 . S
Cd69 O70 2.317 . S
O70 Cd69 2.317 . S
O70 C71 1.232 . S
C71 O70 1.232 . S
C71 O72 1.218 . S
O72 C71 1.218 . S
C73 O66 1.275 . S
C73 O68 1.255 . S
C74 O75 1.258 . S
C74 O76 1.256 . S
O75 Cd67 2.381 . S
O75 C74 1.258 . S
O76 Cd67 2.378 . S
O76 C74 1.256 . S
O77 Cd78 2.300 . S
O77 C84 1.275 . S
Cd78 O77 2.300 . S
Cd78 O86 2.381 . S
Cd78 O87 2.378 . S
O79 Cd80 2.385 . S
O79 C84 1.255 . S
Cd80 O79 2.385 . S
Cd80 O81 2.317 . S
O81 Cd80 2.317 . S
O81 C82 1.232 . S
C82 O81 1.232 . S
C82 O83 1.218 . S
O83 C82 1.218 . S
C84 O77 1.275 . S
C84 O79 1.255 . S
C85 O86 1.258 . S
C85 O87 1.256 . S
O86 Cd78 2.381 . S
O86 C85 1.258 . S
O87 Cd78 2.378 . S
O87 C85 1.256 . S
O88 Cd89 2.300 . S
O88 C95 1.275 . S
Cd89 O88 2.300 . S
Cd89 O97 2.381 . S
Cd89 O98 2.378 . S
O90 Cd91 2.385 . S
O90 C95 1.255 . S
Cd91 O90 2.385 . S
Cd91 O92 2.317 . S
O92 Cd91 2.317 . S
O92 C93 1.232 . S
C93 O92 1.232 . S
C93 O94 1.218 . S
O94 C93 1.218 . S
C95 O88 1.275 . S
C95 O90 1.255 . S
C96 O97 1.258 . S
C96 O98 1.256 . S
O97 Cd89 2.381 . S
O97 C96 1.258 . S
O98 Cd89 2.378 . S
O98 C96 1.256 . S
O99 Cd100 2.300 . S
O99 C106 1.275 . S
Cd100 O99 2.300 . S
Cd100 O108 2.381 . S
Cd100 O109 2.378 . S
O101 Cd102 2.385 . S
O101 C106 1.255 . S
Cd102 O101 2.385 . S
Cd102 O103 2.317 . S
O103 Cd102 2.317 . S
O103 C104 1.232 . S
C104 O103 1.232 . S
C104 O105 1.218 . S
O105 C104 1.218 . S
C106 O99 1.275 . S
C106 O101 1.255 . S
C107 O108 1.258 . S
C107 O109 1.256 . S
O108 Cd100 2.381 . S
O108 C107 1.258 . S
O109 Cd100 2.378 . S
O109 C107 1.256 . S
O110 Cd111 2.300 . S
O110 C117 1.275 . S
Cd111 O110 2.300 . S
Cd111 O119 2.381 . S
Cd111 O120 2.378 . S
O112 Cd113 2.385 . S
O112 C117 1.255 . S
Cd113 O112 2.385 . S
Cd113 O114 2.317 . S
O114 Cd113 2.317 . S
O114 C115 1.232 . S
C115 O114 1.232 . S
C115 O116 1.218 . S
O116 C115 1.218 . S
C117 O110 1.275 . S
C117 O112 1.255 . S
C118 O119 1.258 . S
C118 O120 1.256 . S
O119 Cd111 2.381 . S
O119 C118 1.258 . S
O120 Cd111 2.378 . S
O120 C118 1.256 . S
O121 Cd122 2.300 . S
O121 C128 1.275 . S
Cd122 O121 2.300 . S
Cd122 O130 2.381 . S
Cd122 O131 2.378 . S
O123 Cd124 2.385 . S
O123 C128 1.255 . S
Cd124 O123 2.385 . S
Cd124 O125 2.317 . S
O125 Cd124 2.317 . S
O125 C126 1.232 . S
C126 O125 1.232 . S
C126 O127 1.218 . S
O127 C126 1.218 . S
C128 O121 1.275 . S
C128 O123 1.255 . S
C129 O130 1.258 . S
C129 O131 1.256 . S
O130 Cd122 2.381 . S
O130 C129 1.258 . S
O131 Cd122 2.378 . S
O131 C129 1.256 . S
H132 C150 0.951 . S
H133 C152 0.951 . S
H134 C154 0.950 . S
H135 C155 0.950 . S
H136 C157 0.950 . S
H137 C160 0.950 . S
H138 C161 0.950 . S
H139 C163 0.950 . S
H140 C164 0.950 . S
H141 C165 0.951 . S
H142 C167 0.951 . S
H143 C169 0.950 . S
H144 C170 0.950 . S
H145 C172 0.950 . S
H146 C175 0.950 . S
H147 C176 0.950 . S
H148 C178 0.950 . S
H149 C179 0.950 . S
C150 H132 0.951 . S
C150 C151 1.366 . S
C150 C152 1.388 . S
C151 C150 1.366 . S
C151 C155 1.385 . S
C152 H133 0.951 . S
C152 C150 1.388 . S
C152 C153 1.366 . S
C153 C152 1.366 . S
C153 C154 1.414 . S
C153 C156 1.499 . S
C154 H134 0.950 . S
C154 C153 1.414 . S
C154 C155 1.374 . S
C155 H135 0.950 . S
C155 C151 1.385 . S
C155 C154 1.374 . S
C156 C153 1.499 . S
C156 C157 1.373 . S
C156 C158 1.389 . S
C157 H136 0.950 . S
C157 C156 1.373 . S
C157 C173 1.377 . S
C158 C156 1.389 . S
C158 C159 1.524 . S
C158 C172 1.377 . S
C159 C158 1.524 . S
C159 C160 1.397 . S
C159 C164 1.363 . S
C160 H137 0.950 . S
C160 C159 1.397 . S
C160 C161 1.334 . S
C161 H138 0.950 . S
C161 C160 1.334 . S
C161 C162 1.287 . S
C162 C161 1.287 . S
C162 C163 1.524 . S
C162 H181 0.913 . S
C163 H139 0.950 . S
C163 C162 1.524 . S
C163 C164 1.415 . S
C164 H140 0.950 . S
C164 C159 1.363 . S
C164 C163 1.415 . S
C165 H141 0.951 . S
C165 C166 1.366 . S
C165 C167 1.388 . S
C166 C165 1.366 . S
C166 C170 1.385 . S
C167 H142 0.951 . S
C167 C165 1.388 . S
C167 C168 1.366 . S
C168 C167 1.366 . S
C168 C169 1.414 . S
C168 C171 1.499 . S
C169 H143 0.950 . S
C169 C168 1.414 . S
C169 C170 1.374 . S
C170 H144 0.950 . S
C170 C166 1.385 . S
C170 C169 1.374 . S
C171 C168 1.499 . S
C171 C172 1.373 . S
C171 C173 1.389 . S
C172 H145 0.950 . S
C172 C158 1.377 . S
C172 C171 1.373 . S
C173 C157 1.377 . S
C173 C171 1.389 . S
C173 C174 1.524 . S
C174 C173 1.524 . S
C174 C175 1.397 . S
C174 C179 1.363 . S
C175 H146 0.950 . S
C175 C174 1.397 . S
C175 C176 1.334 . S
C176 H147 0.950 . S
C176 C175 1.334 . S
C176 C177 1.287 . S
C177 C176 1.287 . S
C177 C178 1.524 . S
C177 H180 0.999 . S
C178 H148 0.950 . S
C178 C177 1.524 . S
C178 C179 1.415 . S
C179 H149 0.950 . S
C179 C174 1.363 . S
C179 C178 1.415 . S
H180 C177 0.999 . S
H181 C162 0.913 . S
H182 C200 0.951 . S
H183 C202 0.951 . S
H184 C204 0.950 . S
H185 C205 0.950 . S
H186 C207 0.950 . S
H187 C210 0.950 . S
H188 C211 0.950 . S
H189 C213 0.950 . S
H190 C214 0.950 . S
H191 C215 0.951 . S
H192 C217 0.951 . S
H193 C219 0.950 . S
H194 C220 0.950 . S
H195 C222 0.950 . S
H196 C225 0.950 . S
H197 C226 0.950 . S
H198 C228 0.950 . S
H199 C229 0.950 . S
C200 H182 0.951 . S
C200 C201 1.366 . S
C200 C202 1.388 . S
C201 C200 1.366 . S
C201 C205 1.385 . S
C202 H183 0.951 . S
C202 C200 1.388 . S
C202 C203 1.366 . S
C203 C202 1.366 . S
C203 C204 1.414 . S
C203 C206 1.499 . S
C204 H184 0.950 . S
C204 C203 1.414 . S
C204 C205 1.374 . S
C205 H185 0.950 . S
C205 C201 1.385 . S
C205 C204 1.374 . S
C206 C203 1.499 . S
C206 C207 1.373 . S
C206 C208 1.389 . S
C207 H186 0.950 . S
C207 C206 1.373 . S
C207 C223 1.377 . S
C208 C206 1.389 . S
C208 C209 1.524 . S
C208 C222 1.377 . S
C209 C208 1.524 . S
C209 C210 1.397 . S
C209 C214 1.363 . S
C210 H187 0.950 . S
C210 C209 1.397 . S
C210 C211 1.334 . S
C211 H188 0.950 . S
C211 C210 1.334 . S
C211 C212 1.287 . S
C212 C211 1.287 . S
C212 C213 1.524 . S
C212 H231 0.913 . S
C213 H189 0.950 . S
C213 C212 1.524 . S
C213 C214 1.415 . S
C214 H190 0.950 . S
C214 C209 1.363 . S
C214 C213 1.415 . S
C215 H191 0.951 . S
C215 C216 1.366 . S
C215 C217 1.388 . S
C216 C215 1.366 . S
C216 C220 1.385 . S
C217 H192 0.951 . S
C217 C215 1.388 . S
C217 C218 1.366 . S
C218 C217 1.366 . S
C218 C219 1.414 . S
C218 C221 1.499 . S
C219 H193 0.950 . S
C219 C218 1.414 . S
C219 C220 1.374 . S
C220 H194 0.950 . S
C220 C216 1.385 . S
C220 C219 1.374 . S
C221 C218 1.499 . S
C221 C222 1.373 . S
C221 C223 1.389 . S
C222 H195 0.950 . S
C222 C208 1.377 . S
C222 C221 1.373 . S
C223 C207 1.377 . S
C223 C221 1.389 . S
C223 C224 1.524 . S
C224 C223 1.524 . S
C224 C225 1.397 . S
C224 C229 1.363 . S
C225 H196 0.950 . S
C225 C224 1.397 . S
C225 C226 1.334 . S
C226 H197 0.950 . S
C226 C225 1.334 . S
C226 C227 1.287 . S
C227 C226 1.287 . S
C227 C228 1.524 1_455 S
C227 H230 0.999 1_455 S
C228 H198 0.950 . S
C228 C227 1.524 1_655 S
C228 C229 1.415 1_655 S
C229 H199 0.950 . S
C229 C224 1.363 . S
C229 C228 1.415 1_455 S
H230 C227 0.999 1_655 S
H231 C212 0.913 . S
H232 C250 0.951 . S
H233 C252 0.951 . S
H234 C254 0.950 . S
H235 C255 0.950 . S
H236 C257 0.950 . S
H237 C260 0.950 . S
H238 C261 0.950 . S
H239 C263 0.950 . S
H240 C264 0.950 . S
H241 C265 0.951 . S
H242 C267 0.951 . S
H243 C269 0.950 . S
H244 C270 0.950 . S
H245 C272 0.950 . S
H246 C275 0.950 . S
H247 C276 0.950 . S
H248 C278 0.950 . S
H249 C279 0.950 . S
C250 H232 0.951 . S
C250 C251 1.366 . S
C250 C252 1.388 . S
C251 C250 1.366 . S
C251 C255 1.385 . S
C252 H233 0.951 . S
C252 C250 1.388 . S
C252 C253 1.366 . S
C253 C252 1.366 . S
C253 C254 1.414 . S
C253 C256 1.499 . S
C254 H234 0.950 . S
C254 C253 1.414 . S
C254 C255 1.374 . S
C255 H235 0.950 . S
C255 C251 1.385 . S
C255 C254 1.374 . S
C256 C253 1.499 . S
C256 C257 1.373 . S
C256 C258 1.389 . S
C257 H236 0.950 . S
C257 C256 1.373 . S
C257 C273 1.377 . S
C258 C256 1.389 . S
C258 C259 1.524 . S
C258 C272 1.377 . S
C259 C258 1.524 . S
C259 C260 1.397 . S
C259 C264 1.363 . S
C260 H237 0.950 . S
C260 C259 1.397 . S
C260 C261 1.334 1_545 S
C261 H238 0.950 . S
C261 C260 1.334 1_565 S
C261 C262 1.287 . S
C262 C261 1.287 . S
C262 C263 1.524 . S
C262 H281 0.913 . S
C263 H239 0.950 . S
C263 C262 1.524 . S
C263 C264 1.415 1_565 S
C264 H240 0.950 . S
C264 C259 1.363 . S
C264 C263 1.415 1_545 S
C265 H241 0.951 . S
C265 C266 1.366 . S
C265 C267 1.388 . S
C266 C265 1.366 . S
C266 C270 1.385 . S
C267 H242 0.951 . S
C267 C265 1.388 . S
C267 C268 1.366 . S
C268 C267 1.366 . S
C268 C269 1.414 . S
C268 C271 1.499 . S
C269 H243 0.950 . S
C269 C268 1.414 . S
C269 C270 1.374 . S
C270 H244 0.950 . S
C270 C266 1.385 . S
C270 C269 1.374 . S
C271 C268 1.499 . S
C271 C272 1.373 . S
C271 C273 1.389 . S
C272 H245 0.950 . S
C272 C258 1.377 . S
C272 C271 1.373 . S
C273 C257 1.377 . S
C273 C271 1.389 . S
C273 C274 1.524 . S
C274 C273 1.524 . S
C274 C275 1.397 . S
C274 C279 1.363 . S
C275 H246 0.950 . S
C275 C274 1.397 . S
C275 C276 1.334 . S
C276 H247 0.950 . S
C276 C275 1.334 . S
C276 C277 1.287 . S
C277 C276 1.287 . S
C277 C278 1.524 . S
C277 H280 0.999 . S
C278 H248 0.950 . S
C278 C277 1.524 . S
C278 C279 1.415 . S
C279 H249 0.950 . S
C279 C274 1.363 . S
C279 C278 1.415 . S
H280 C277 0.999 . S
H281 C262 0.913 . S
H282 C300 0.951 . S
H283 C302 0.951 . S
H284 C304 0.950 . S
H285 C305 0.950 . S
H286 C307 0.950 . S
H287 C310 0.950 . S
H288 C311 0.950 . S
H289 C313 0.950 . S
H290 C314 0.950 . S
H291 C315 0.951 . S
H292 C317 0.951 . S
H293 C319 0.950 . S
H294 C320 0.950 . S
H295 C322 0.950 . S
H296 C325 0.950 . S
H297 C326 0.950 . S
H298 C328 0.950 . S
H299 C329 0.950 . S
C300 H282 0.951 . S
C300 C301 1.366 . S
C300 C302 1.388 . S
C301 C300 1.366 . S
C301 C305 1.385 . S
C302 H283 0.951 . S
C302 C300 1.388 . S
C302 C303 1.366 . S
C303 C302 1.366 . S
C303 C304 1.414 . S
C303 C306 1.499 . S
C304 H284 0.950 . S
C304 C303 1.414 . S
C304 C305 1.374 . S
C305 H285 0.950 . S
C305 C301 1.385 . S
C305 C304 1.374 . S
C306 C303 1.499 . S
C306 C307 1.373 . S
C306 C308 1.389 . S
C307 H286 0.950 . S
C307 C306 1.373 . S
C307 C323 1.377 . S
C308 C306 1.389 . S
C308 C309 1.524 . S
C308 C322 1.377 . S
C309 C308 1.524 . S
C309 C310 1.397 . S
C309 C314 1.363 . S
C310 H287 0.950 . S
C310 C309 1.397 . S
C310 C311 1.334 . S
C311 H288 0.950 . S
C311 C310 1.334 . S
C311 C312 1.287 . S
C312 C311 1.287 . S
C312 C313 1.524 . S
C312 H331 0.913 . S
C313 H289 0.950 . S
C313 C312 1.524 . S
C313 C314 1.415 . S
C314 H290 0.950 . S
C314 C309 1.363 . S
C314 C313 1.415 . S
C315 H291 0.951 . S
C315 C316 1.366 . S
C315 C317 1.388 . S
C316 C315 1.366 . S
C316 C320 1.385 . S
C317 H292 0.951 . S
C317 C315 1.388 . S
C317 C318 1.366 . S
C318 C317 1.366 . S
C318 C319 1.414 . S
C318 C321 1.499 . S
C319 H293 0.950 . S
C319 C318 1.414 . S
C319 C320 1.374 . S
C320 H294 0.950 . S
C320 C316 1.385 . S
C320 C319 1.374 . S
C321 C318 1.499 . S
C321 C322 1.373 . S
C321 C323 1.389 . S
C322 H295 0.950 . S
C322 C308 1.377 . S
C322 C321 1.373 . S
C323 C307 1.377 . S
C323 C321 1.389 . S
C323 C324 1.524 . S
C324 C323 1.524 . S
C324 C325 1.397 . S
C324 C329 1.363 . S
C325 H296 0.950 . S
C325 C324 1.397 . S
C325 C326 1.334 . S
C326 H297 0.950 . S
C326 C325 1.334 . S
C326 C327 1.287 . S
C327 C326 1.287 . S
C327 C328 1.524 . S
C327 H330 0.999 . S
C328 H298 0.950 . S
C328 C327 1.524 . S
C328 C329 1.415 . S
C329 H299 0.950 . S
C329 C324 1.363 . S
C329 C328 1.415 . S
H330 C327 0.999 . S
H331 C312 0.913 . S
H332 C350 0.951 . S
H333 C352 0.951 . S
H334 C354 0.950 . S
H335 C355 0.950 . S
H336 C357 0.950 . S
H337 C360 0.950 . S
H338 C361 0.950 . S
H339 C363 0.950 . S
H340 C364 0.950 . S
H341 C365 0.951 . S
H342 C367 0.951 . S
H343 C369 0.950 . S
H344 C370 0.950 . S
H345 C372 0.950 . S
H346 C375 0.950 . S
H347 C376 0.950 . S
H348 C378 0.950 . S
H349 C379 0.950 . S
C350 H332 0.951 . S
C350 C351 1.366 . S
C350 C352 1.388 . S
C351 C350 1.366 . S
C351 C355 1.385 . S
C352 H333 0.951 . S
C352 C350 1.388 . S
C352 C353 1.366 . S
C353 C352 1.366 . S
C353 C354 1.414 . S
C353 C356 1.499 . S
C354 H334 0.950 . S
C354 C353 1.414 . S
C354 C355 1.374 . S
C355 H335 0.950 . S
C355 C351 1.385 . S
C355 C354 1.374 . S
C356 C353 1.499 . S
C356 C357 1.373 . S
C356 C358 1.389 . S
C357 H336 0.950 . S
C357 C356 1.373 . S
C357 C373 1.377 . S
C358 C356 1.389 . S
C358 C359 1.524 . S
C358 C372 1.377 . S
C359 C358 1.524 . S
C359 C360 1.397 . S
C359 C364 1.363 . S
C360 H337 0.950 . S
C360 C359 1.397 . S
C360 C361 1.334 . S
C361 H338 0.950 . S
C361 C360 1.334 . S
C361 C362 1.287 . S
C362 C361 1.287 . S
C362 C363 1.524 . S
C362 H381 0.913 . S
C363 H339 0.950 . S
C363 C362 1.524 . S
C363 C364 1.415 . S
C364 H340 0.950 . S
C364 C359 1.363 . S
C364 C363 1.415 . S
C365 H341 0.951 . S
C365 C366 1.366 . S
C365 C367 1.388 . S
C366 C365 1.366 . S
C366 C370 1.385 . S
C367 H342 0.951 . S
C367 C365 1.388 . S
C367 C368 1.366 . S
C368 C367 1.366 . S
C368 C369 1.414 . S
C368 C371 1.499 . S
C369 H343 0.950 . S
C369 C368 1.414 . S
C369 C370 1.374 . S
C370 H344 0.950 . S
C370 C366 1.385 . S
C370 C369 1.374 . S
C371 C368 1.499 . S
C371 C372 1.373 . S
C371 C373 1.389 . S
C372 H345 0.950 . S
C372 C358 1.377 . S
C372 C371 1.373 . S
C373 C357 1.377 . S
C373 C371 1.389 . S
C373 C374 1.524 . S
C374 C373 1.524 . S
C374 C375 1.397 . S
C374 C379 1.363 . S
C375 H346 0.950 . S
C375 C374 1.397 . S
C375 C376 1.334 . S
C376 H347 0.950 . S
C376 C375 1.334 . S
C376 C377 1.287 . S
C377 C376 1.287 . S
C377 C378 1.524 . S
C377 H380 0.999 . S
C378 H348 0.950 . S
C378 C377 1.524 . S
C378 C379 1.415 . S
C379 H349 0.950 . S
C379 C374 1.363 . S
C379 C378 1.415 . S
H380 C377 0.999 . S
H381 C362 0.913 . S
H382 C400 0.951 . S
H383 C402 0.951 . S
H384 C404 0.950 . S
H385 C405 0.950 . S
H386 C407 0.950 . S
H387 C410 0.950 . S
H388 C411 0.950 . S
H389 C413 0.950 . S
H390 C414 0.950 . S
H391 C415 0.951 . S
H392 C417 0.951 . S
H393 C419 0.950 . S
H394 C420 0.950 . S
H395 C422 0.950 . S
H396 C425 0.950 . S
H397 C426 0.950 . S
H398 C428 0.950 . S
H399 C429 0.950 . S
C400 H382 0.951 . S
C400 C401 1.366 . S
C400 C402 1.388 . S
C401 C400 1.366 . S
C401 C405 1.385 . S
C402 H383 0.951 . S
C402 C400 1.388 . S
C402 C403 1.366 . S
C403 C402 1.366 . S
C403 C404 1.414 . S
C403 C406 1.499 . S
C404 H384 0.950 . S
C404 C403 1.414 . S
C404 C405 1.374 . S
C405 H385 0.950 . S
C405 C401 1.385 . S
C405 C404 1.374 . S
C406 C403 1.499 . S
C406 C407 1.373 . S
C406 C408 1.389 . S
C407 H386 0.950 . S
C407 C406 1.373 . S
C407 C423 1.377 . S
C408 C406 1.389 . S
C408 C409 1.524 . S
C408 C422 1.377 . S
C409 C408 1.524 . S
C409 C410 1.397 . S
C409 C414 1.363 . S
C410 H387 0.950 . S
C410 C409 1.397 . S
C410 C411 1.334 . S
C411 H388 0.950 . S
C411 C410 1.334 . S
C411 C412 1.287 . S
C412 C411 1.287 . S
C412 C413 1.524 . S
C412 H431 0.913 . S
C413 H389 0.950 . S
C413 C412 1.524 . S
C413 C414 1.415 . S
C414 H390 0.950 . S
C414 C409 1.363 . S
C414 C413 1.415 . S
C415 H391 0.951 . S
C415 C416 1.366 . S
C415 C417 1.388 . S
C416 C415 1.366 . S
C416 C420 1.385 . S
C417 H392 0.951 . S
C417 C415 1.388 . S
C417 C418 1.366 . S
C418 C417 1.366 . S
C418 C419 1.414 . S
C418 C421 1.499 . S
C419 H393 0.950 . S
C419 C418 1.414 . S
C419 C420 1.374 . S
C420 H394 0.950 . S
C420 C416 1.385 . S
C420 C419 1.374 . S
C421 C418 1.499 . S
C421 C422 1.373 . S
C421 C423 1.389 . S
C422 H395 0.950 . S
C422 C408 1.377 . S
C422 C421 1.373 . S
C423 C407 1.377 . S
C423 C421 1.389 . S
C423 C424 1.524 . S
C424 C423 1.524 . S
C424 C425 1.397 . S
C424 C429 1.363 . S
C425 H396 0.950 . S
C425 C424 1.397 . S
C425 C426 1.334 1_565 S
C426 H397 0.950 . S
C426 C425 1.334 1_545 S
C426 C427 1.287 . S
C427 C426 1.287 . S
C427 C428 1.524 . S
C427 H430 0.999 . S
C428 H398 0.950 . S
C428 C427 1.524 . S
C428 C429 1.415 1_545 S
C429 H399 0.950 . S
C429 C424 1.363 . S
C429 C428 1.415 1_565 S
H430 C427 0.999 . S
H431 C412 0.913 . S
H432 C450 0.951 . S
H433 C452 0.951 . S
H434 C454 0.950 . S
H435 C455 0.950 . S
H436 C457 0.950 . S
H437 C460 0.950 . S
H438 C461 0.950 . S
H439 C463 0.950 . S
H440 C464 0.950 . S
H441 C465 0.951 . S
H442 C467 0.951 . S
H443 C469 0.950 . S
H444 C470 0.950 . S
H445 C472 0.950 . S
H446 C475 0.950 . S
H447 C476 0.950 . S
H448 C478 0.950 . S
H449 C479 0.950 . S
C450 H432 0.951 . S
C450 C451 1.366 . S
C450 C452 1.388 . S
C451 C450 1.366 . S
C451 C455 1.385 . S
C452 H433 0.951 . S
C452 C450 1.388 . S
C452 C453 1.366 . S
C453 C452 1.366 . S
C453 C454 1.414 . S
C453 C456 1.499 . S
C454 H434 0.950 . S
C454 C453 1.414 . S
C454 C455 1.374 . S
C455 H435 0.950 . S
C455 C451 1.385 . S
C455 C454 1.374 . S
C456 C453 1.499 . S
C456 C457 1.373 1_545 S
C456 C458 1.389 . S
C457 H436 0.950 . S
C457 C456 1.373 1_565 S
C457 C473 1.377 . S
C458 C456 1.389 . S
C458 C459 1.524 . S
C458 C472 1.377 . S
C459 C458 1.524 . S
C459 C460 1.397 . S
C459 C464 1.363 . S
C460 H437 0.950 . S
C460 C459 1.397 . S
C460 C461 1.334 . S
C461 H438 0.950 . S
C461 C460 1.334 . S
C461 C462 1.287 . S
C462 C461 1.287 . S
C462 C463 1.524 . S
C462 H481 0.913 . S
C463 H439 0.950 . S
C463 C462 1.524 . S
C463 C464 1.415 . S
C464 H440 0.950 . S
C464 C459 1.363 . S
C464 C463 1.415 . S
C465 H441 0.951 . S
C465 C466 1.366 . S
C465 C467 1.388 . S
C466 C465 1.366 . S
C466 C470 1.385 . S
C467 H442 0.951 . S
C467 C465 1.388 . S
C467 C468 1.366 . S
C468 C467 1.366 . S
C468 C469 1.414 . S
C468 C471 1.499 . S
C469 H443 0.950 . S
C469 C468 1.414 . S
C469 C470 1.374 . S
C470 H444 0.950 . S
C470 C466 1.385 . S
C470 C469 1.374 . S
C471 C468 1.499 . S
C471 C472 1.373 1_565 S
C471 C473 1.389 . S
C472 H445 0.950 . S
C472 C458 1.377 . S
C472 C471 1.373 1_545 S
C473 C457 1.377 . S
C473 C471 1.389 . S
C473 C474 1.524 . S
C474 C473 1.524 . S
C474 C475 1.397 . S
C474 C479 1.363 . S
C475 H446 0.950 . S
C475 C474 1.397 . S
C475 C476 1.334 . S
C476 H447 0.950 . S
C476 C475 1.334 . S
C476 C477 1.287 . S
C477 C476 1.287 . S
C477 C478 1.524 . S
C477 H480 0.999 . S
C478 H448 0.950 . S
C478 C477 1.524 . S
C478 C479 1.415 . S
C479 H449 0.950 . S
C479 C474 1.363 . S
C479 C478 1.415 . S
H480 C477 0.999 . S
H481 C462 0.913 . S
H482 C500 0.951 . S
H483 C502 0.951 . S
H484 C504 0.950 . S
H485 C505 0.950 . S
H486 C507 0.950 . S
H487 C510 0.950 . S
H488 C511 0.950 . S
H489 C513 0.950 . S
H490 C514 0.950 . S
H491 C515 0.951 . S
H492 C517 0.951 . S
H493 C519 0.950 . S
H494 C520 0.950 . S
H495 C522 0.950 . S
H496 C525 0.950 . S
H497 C526 0.950 . S
H498 C528 0.950 . S
H499 C529 0.950 . S
C500 H482 0.951 . S
C500 C501 1.366 . S
C500 C502 1.388 . S
C501 C500 1.366 . S
C501 C505 1.385 . S
C502 H483 0.951 . S
C502 C500 1.388 . S
C502 C503 1.366 . S
C503 C502 1.366 . S
C503 C504 1.414 . S
C503 C506 1.499 . S
C504 H484 0.950 . S
C504 C503 1.414 . S
C504 C505 1.374 . S
C505 H485 0.950 . S
C505 C501 1.385 . S
C505 C504 1.374 . S
C506 C503 1.499 . S
C506 C507 1.373 . S
C506 C508 1.389 . S
C507 H486 0.950 . S
C507 C506 1.373 . S
C507 C523 1.377 . S
C508 C506 1.389 . S
C508 C509 1.524 . S
C508 C522 1.377 . S
C509 C508 1.524 . S
C509 C510 1.397 . S
C509 C514 1.363 . S
C510 H487 0.950 . S
C510 C509 1.397 . S
C510 C511 1.334 . S
C511 H488 0.950 . S
C511 C510 1.334 . S
C511 C512 1.287 . S
C512 C511 1.287 . S
C512 C513 1.524 . S
C512 H531 0.913 . S
C513 H489 0.950 . S
C513 C512 1.524 . S
C513 C514 1.415 . S
C514 H490 0.950 . S
C514 C509 1.363 . S
C514 C513 1.415 . S
C515 H491 0.951 . S
C515 C516 1.366 . S
C515 C517 1.388 . S
C516 C515 1.366 . S
C516 C520 1.385 . S
C517 H492 0.951 . S
C517 C515 1.388 . S
C517 C518 1.366 . S
C518 C517 1.366 . S
C518 C519 1.414 . S
C518 C521 1.499 . S
C519 H493 0.950 . S
C519 C518 1.414 . S
C519 C520 1.374 . S
C520 H494 0.950 . S
C520 C516 1.385 . S
C520 C519 1.374 . S
C521 C518 1.499 . S
C521 C522 1.373 . S
C521 C523 1.389 . S
C522 H495 0.950 . S
C522 C508 1.377 . S
C522 C521 1.373 . S
C523 C507 1.377 . S
C523 C521 1.389 . S
C523 C524 1.524 . S
C524 C523 1.524 . S
C524 C525 1.397 . S
C524 C529 1.363 . S
C525 H496 0.950 . S
C525 C524 1.397 . S
C525 C526 1.334 . S
C526 H497 0.950 . S
C526 C525 1.334 . S
C526 C527 1.287 . S
C527 C526 1.287 . S
C527 C528 1.524 . S
C527 H530 0.999 . S
C528 H498 0.950 . S
C528 C527 1.524 . S
C528 C529 1.415 . S
C529 H499 0.950 . S
C529 C524 1.363 . S
C529 C528 1.415 . S
H530 C527 0.999 . S
H531 C512 0.913 . S
H532 C550 0.951 . S
H533 C552 0.951 . S
H534 C554 0.950 . S
H535 C555 0.950 . S
H536 C557 0.950 . S
H537 C560 0.950 . S
H538 C561 0.950 . S
H539 C563 0.950 . S
H540 C564 0.950 . S
H541 C565 0.951 . S
H542 C567 0.951 . S
H543 C569 0.950 . S
H544 C570 0.950 . S
H545 C572 0.950 . S
H546 C575 0.950 . S
H547 C576 0.950 . S
H548 C578 0.950 . S
H549 C579 0.950 . S
C550 H532 0.951 . S
C550 C551 1.366 . S
C550 C552 1.388 . S
C551 C550 1.366 . S
C551 C555 1.385 . S
C552 H533 0.951 . S
C552 C550 1.388 . S
C552 C553 1.366 . S
C553 C552 1.366 . S
C553 C554 1.414 . S
C553 C556 1.499 . S
C554 H534 0.950 . S
C554 C553 1.414 . S
C554 C555 1.374 . S
C555 H535 0.950 . S
C555 C551 1.385 . S
C555 C554 1.374 . S
C556 C553 1.499 . S
C556 C557 1.373 . S
C556 C558 1.389 1_455 S
C557 H536 0.950 . S
C557 C556 1.373 . S
C557 C573 1.377 . S
C558 C556 1.389 1_655 S
C558 C559 1.524 . S
C558 C572 1.377 . S
C559 C558 1.524 . S
C559 C560 1.397 . S
C559 C564 1.363 . S
C560 H537 0.950 . S
C560 C559 1.397 . S
C560 C561 1.334 . S
C561 H538 0.950 . S
C561 C560 1.334 . S
C561 C562 1.287 . S
C562 C561 1.287 . S
C562 C563 1.524 . S
C562 H581 0.913 . S
C563 H539 0.950 . S
C563 C562 1.524 . S
C563 C564 1.415 . S
C564 H540 0.950 . S
C564 C559 1.363 . S
C564 C563 1.415 . S
C565 H541 0.951 . S
C565 C566 1.366 . S
C565 C567 1.388 . S
C566 C565 1.366 . S
C566 C570 1.385 . S
C567 H542 0.951 . S
C567 C565 1.388 . S
C567 C568 1.366 . S
C568 C567 1.366 . S
C568 C569 1.414 . S
C568 C571 1.499 . S
C569 H543 0.950 . S
C569 C568 1.414 . S
C569 C570 1.374 . S
C570 H544 0.950 . S
C570 C566 1.385 . S
C570 C569 1.374 . S
C571 C568 1.499 . S
C571 C572 1.373 . S
C571 C573 1.389 1_655 S
C572 H545 0.950 . S
C572 C558 1.377 . S
C572 C571 1.373 . S
C573 C557 1.377 . S
C573 C571 1.389 1_455 S
C573 C574 1.524 . S
C574 C573 1.524 . S
C574 C575 1.397 . S
C574 C579 1.363 . S
C575 H546 0.950 . S
C575 C574 1.397 . S
C575 C576 1.334 . S
C576 H547 0.950 . S
C576 C575 1.334 . S
C576 C577 1.287 . S
C577 C576 1.287 . S
C577 C578 1.524 . S
C577 H580 0.999 . S
C578 H548 0.950 . S
C578 C577 1.524 . S
C578 C579 1.415 . S
C579 H549 0.950 . S
C579 C574 1.363 . S
C579 C578 1.415 . S
H580 C577 0.999 . S
H581 C562 0.913 . S
H582 C600 0.951 . S
H583 C602 0.951 . S
H584 C604 0.950 . S
H585 C605 0.950 . S
H586 C607 0.950 . S
H587 C610 0.950 . S
H588 C611 0.941 1_655 S
H589 C613 0.950 . S
H590 C614 0.950 . S
H591 C615 0.951 . S
H592 C617 0.951 . S
H593 C619 0.950 . S
H594 C620 0.950 . S
H595 C622 0.950 . S
H596 C625 0.950 . S
H597 C626 0.940 1_455 S
H598 C628 0.950 . S
H599 C629 0.950 . S
C600 H582 0.951 . S
C600 C601 1.366 . S
C600 C602 1.388 . S
C601 C600 1.366 . S
C601 C605 1.385 . S
C602 H583 0.951 . S
C602 C600 1.388 . S
C602 C603 1.366 . S
C603 C602 1.366 . S
C603 C604 1.414 . S
C603 C606 1.499 . S
C604 H584 0.950 . S
C604 C603 1.414 . S
C604 C605 1.374 . S
C605 H585 0.950 . S
C605 C601 1.385 . S
C605 C604 1.374 . S
C606 C603 1.499 . S
C606 C607 1.373 . S
C606 C608 1.389 1_655 S
C607 H586 0.950 . S
C607 C606 1.373 . S
C607 C623 1.377 . S
C608 C606 1.389 1_455 S
C608 C609 1.524 . S
C608 C622 1.377 . S
C609 C608 1.524 . S
C609 C610 1.397 1_455 S
C609 C614 1.363 . S
C610 H587 0.950 . S
C610 C609 1.397 1_655 S
C610 C611 1.338 1_655 S
C611 H588 0.941 1_455 S
C611 C610 1.338 1_455 S
C611 C612 1.293 . S
C612 C611 1.293 . S
C612 C613 1.524 . S
C612 H631 0.913 . S
C613 H589 0.950 . S
C613 C612 1.524 . S
C613 C614 1.415 . S
C614 H590 0.950 . S
C614 C609 1.363 . S
C614 C613 1.415 . S
C615 H591 0.951 . S
C615 C616 1.366 . S
C615 C617 1.388 . S
C616 C615 1.366 . S
C616 C620 1.385 . S
C617 H592 0.951 . S
C617 C615 1.388 . S
C617 C618 1.366 . S
C618 C617 1.366 . S
C618 C619 1.414 . S
C618 C621 1.499 . S
C619 H593 0.950 . S
C619 C618 1.414 . S
C619 C620 1.374 . S
C620 H594 0.950 . S
C620 C616 1.385 . S
C620 C619 1.374 . S
C621 C618 1.499 . S
C621 C622 1.373 . S
C621 C623 1.389 1_455 S
C622 H595 0.950 . S
C622 C608 1.377 . S
C622 C621 1.373 . S
C623 C607 1.377 . S
C623 C621 1.389 1_655 S
C623 C624 1.524 . S
C624 C623 1.524 . S
C624 C625 1.397 1_655 S
C624 C629 1.363 . S
C625 H596 0.950 . S
C625 C624 1.397 1_455 S
C625 C626 1.338 1_455 S
C626 H597 0.940 1_655 S
C626 C625 1.338 1_655 S
C626 C627 1.294 . S
C627 C626 1.294 . S
C627 C628 1.524 . S
C627 H630 0.999 . S
C628 H598 0.950 . S
C628 C627 1.524 . S
C628 C629 1.415 . S
C629 H599 0.950 . S
C629 C624 1.363 . S
C629 C628 1.415 . S
H630 C627 0.999 . S
H631 C612 0.913 . S
H632 C650 0.951 . S
H633 C652 0.951 . S
H634 C654 0.950 . S
H635 C655 0.950 . S
H636 C657 0.950 . S
H637 C660 0.950 1_545 S
H638 C661 0.950 . S
H639 C663 0.950 . S
H640 C664 0.950 . S
H641 C665 0.951 . S
H642 C667 0.951 . S
H643 C669 0.950 . S
H644 C670 0.950 . S
H645 C672 0.950 . S
H646 C675 0.950 1_565 S
H647 C676 0.950 . S
H648 C678 0.950 . S
H649 C679 0.950 . S
C650 H632 0.951 . S
C650 C651 1.366 . S
C650 C652 1.388 . S
C651 C650 1.366 . S
C651 C655 1.385 . S
C652 H633 0.951 . S
C652 C650 1.388 . S
C652 C653 1.366 . S
C653 C652 1.366 . S
C653 C654 1.414 . S
C653 C656 1.499 . S
C654 H634 0.950 . S
C654 C653 1.414 . S
C654 C655 1.374 . S
C655 H635 0.950 . S
C655 C651 1.385 . S
C655 C654 1.374 . S
C656 C653 1.499 . S
C656 C657 1.373 . S
C656 C658 1.389 1_545 S
C657 H636 0.950 . S
C657 C656 1.373 . S
C657 C673 1.377 . S
C658 C656 1.389 1_565 S
C658 C659 1.524 . S
C658 C672 1.377 . S
C659 C658 1.524 . S
C659 C660 1.397 . S
C659 C664 1.363 . S
C660 H637 0.950 1_565 S
C660 C659 1.397 . S
C660 C661 1.334 . S
C661 H638 0.950 . S
C661 C660 1.334 . S
C661 C662 1.287 . S
C662 C661 1.287 . S
C662 C663 1.524 . S
C662 H681 0.913 . S
C663 H639 0.950 . S
C663 C662 1.524 . S
C663 C664 1.415 . S
C664 H640 0.950 . S
C664 C659 1.363 . S
C664 C663 1.415 . S
C665 H641 0.951 . S
C665 C666 1.366 . S
C665 C667 1.388 . S
C666 C665 1.366 . S
C666 C670 1.385 . S
C667 H642 0.951 . S
C667 C665 1.388 . S
C667 C668 1.366 . S
C668 C667 1.366 . S
C668 C669 1.414 . S
C668 C671 1.499 . S
C669 H643 0.950 . S
C669 C668 1.414 . S
C669 C670 1.374 . S
C670 H644 0.950 . S
C670 C666 1.385 . S
C670 C669 1.374 . S
C671 C668 1.499 . S
C671 C672 1.373 . S
C671 C673 1.389 1_565 S
C672 H645 0.950 . S
C672 C658 1.377 . S
C672 C671 1.373 . S
C673 C657 1.377 . S
C673 C671 1.389 1_545 S
C673 C674 1.524 . S
C674 C673 1.524 . S
C674 C675 1.397 . S
C674 C679 1.363 . S
C675 H646 0.950 1_545 S
C675 C674 1.397 . S
C675 C676 1.334 . S
C676 H647 0.950 . S
C676 C675 1.334 . S
C676 C677 1.287 . S
C677 C676 1.287 . S
C677 C678 1.524 . S
C677 H680 0.999 . S
C678 H648 0.950 . S
C678 C677 1.524 . S
C678 C679 1.415 . S
C679 H649 0.950 . S
C679 C674 1.363 . S
C679 C678 1.415 . S
H680 C677 0.999 . S
H681 C662 0.913 . S
H682 C700 0.951 . S
H683 C702 0.951 . S
H684 C704 0.950 . S
H685 C705 0.950 . S
H686 C707 0.950 . S
H687 C710 0.950 . S
H688 C711 0.950 . S
H689 C713 0.950 . S
H690 C714 0.950 . S
H691 C715 0.951 . S
H692 C717 0.951 . S
H693 C719 0.950 . S
H694 C720 0.950 . S
H695 C722 0.950 . S
H696 C725 0.950 . S
H697 C726 0.950 . S
H698 C728 0.950 . S
H699 C729 0.950 . S
C700 H682 0.951 . S
C700 C701 1.366 . S
C700 C702 1.388 . S
C701 C700 1.366 . S
C701 C705 1.385 . S
C702 H683 0.951 . S
C702 C700 1.388 . S
C702 C703 1.366 . S
C703 C702 1.366 . S
C703 C704 1.414 . S
C703 C706 1.499 . S
C704 H684 0.950 . S
C704 C703 1.414 . S
C704 C705 1.374 . S
C705 H685 0.950 . S
C705 C701 1.385 . S
C705 C704 1.374 . S
C706 C703 1.499 . S
C706 C707 1.373 . S
C706 C708 1.389 . S
C707 H686 0.950 . S
C707 C706 1.373 . S
C707 C723 1.377 . S
C708 C706 1.389 . S
C708 C709 1.524 . S
C708 C722 1.377 . S
C709 C708 1.524 . S
C709 C710 1.397 . S
C709 C714 1.363 . S
C710 H687 0.950 . S
C710 C709 1.397 . S
C710 C711 1.334 . S
C711 H688 0.950 . S
C711 C710 1.334 . S
C711 C712 1.287 . S
C712 C711 1.287 . S
C712 C713 1.524 . S
C712 H731 0.913 . S
C713 H689 0.950 . S
C713 C712 1.524 . S
C713 C714 1.415 . S
C714 H690 0.950 . S
C714 C709 1.363 . S
C714 C713 1.415 . S
C715 H691 0.951 . S
C715 C716 1.366 . S
C715 C717 1.388 . S
C716 C715 1.366 . S
C716 C720 1.385 . S
C717 H692 0.951 . S
C717 C715 1.388 . S
C717 C718 1.366 . S
C718 C717 1.366 . S
C718 C719 1.414 . S
C718 C721 1.499 . S
C719 H693 0.950 . S
C719 C718 1.414 . S
C719 C720 1.374 . S
C720 H694 0.950 . S
C720 C716 1.385 . S
C720 C719 1.374 . S
C721 C718 1.499 . S
C721 C722 1.373 . S
C721 C723 1.389 . S
C722 H695 0.950 . S
C722 C708 1.377 . S
C722 C721 1.373 . S
C723 C707 1.377 . S
C723 C721 1.389 . S
C723 C724 1.524 . S
C724 C723 1.524 . S
C724 C725 1.397 . S
C724 C729 1.363 . S
C725 H696 0.950 . S
C725 C724 1.397 . S
C725 C726 1.334 . S
C726 H697 0.950 . S
C726 C725 1.334 . S
C726 C727 1.287 . S
C727 C726 1.287 . S
C727 C728 1.524 . S
C727 H730 0.999 . S
C728 H698 0.950 . S
C728 C727 1.524 . S
C728 C729 1.415 . S
C729 H699 0.950 . S
C729 C724 1.363 . S
C729 C728 1.415 . S
H730 C727 0.999 . S
H731 C712 0.913 . S
H732 C750 0.951 . S
H733 C752 0.951 1_655 S
H734 C754 0.950 . S
H735 C755 0.950 . S
H736 C757 0.950 . S
H737 C760 0.950 1_556 S
H738 C761 0.950 . S
H739 C763 0.950 . S
H740 C764 0.950 . S
H741 C765 0.951 . S
H742 C767 0.951 . S
H743 C769 0.950 . S
H744 C770 0.950 . S
H745 C772 0.950 . S
H746 C775 0.950 1_554 S
H747 C776 0.950 . S
H748 C778 0.950 . S
H749 C779 0.950 . S
C750 H732 0.951 . S
C750 C751 1.366 . S
C750 C752 1.388 1_655 S
C751 C750 1.366 . S
C751 C755 1.385 1_655 S
C752 H733 0.951 1_455 S
C752 C750 1.388 1_455 S
C752 C753 1.366 . S
C753 C752 1.366 . S
C753 C754 1.414 . S
C753 C756 1.499 . S
C754 H734 0.950 . S
C754 C753 1.414 . S
C754 C755 1.374 . S
C755 H735 0.950 . S
C755 C751 1.385 1_455 S
C755 C754 1.374 . S
C756 C753 1.499 . S
C756 C757 1.373 . S
C756 C758 1.389 1_556 S
C757 H736 0.950 . S
C757 C756 1.373 . S
C757 C773 1.377 . S
C758 C756 1.389 1_554 S
C758 C759 1.524 . S
C758 C772 1.377 . S
C759 C758 1.524 . S
C759 C760 1.397 . S
C759 C764 1.363 . S
C760 H737 0.950 1_554 S
C760 C759 1.397 . S
C760 C761 1.334 . S
C761 H738 0.950 . S
C761 C760 1.334 . S
C761 C762 1.287 1_455 S
C762 C761 1.287 1_655 S
C762 C763 1.524 . S
C762 H781 0.913 . S
C763 H739 0.950 . S
C763 C762 1.524 . S
C763 C764 1.415 1_655 S
C764 H740 0.950 . S
C764 C759 1.363 . S
C764 C763 1.415 1_455 S
C765 H741 0.951 . S
C765 C766 1.366 . S
C765 C767 1.388 . S
C766 C765 1.366 . S
C766 C770 1.385 . S
C767 H742 0.951 . S
C767 C765 1.388 . S
C767 C768 1.366 . S
C768 C767 1.366 . S
C768 C769 1.414 . S
C768 C771 1.499 . S
C769 H743 0.950 . S
C769 C768 1.414 . S
C769 C770 1.374 . S
C770 H744 0.950 . S
C770 C766 1.385 . S
C770 C769 1.374 . S
C771 C768 1.499 . S
C771 C772 1.373 . S
C771 C773 1.389 1_554 S
C772 H745 0.950 . S
C772 C758 1.377 . S
C772 C771 1.373 . S
C773 C757 1.377 . S
C773 C771 1.389 1_556 S
C773 C774 1.524 . S
C774 C773 1.524 . S
C774 C775 1.397 . S
C774 C779 1.363 . S
C775 H746 0.950 1_556 S
C775 C774 1.397 . S
C775 C776 1.334 . S
C776 H747 0.950 . S
C776 C775 1.334 . S
C776 C777 1.287 . S
C777 C776 1.287 . S
C777 C778 1.524 . S
C777 H780 0.999 . S
C778 H748 0.950 . S
C778 C777 1.524 . S
C778 C779 1.415 . S
C779 H749 0.950 . S
C779 C774 1.363 . S
C779 C778 1.415 . S
H780 C777 0.999 . S
H781 C762 0.913 . S
H782 C800 0.951 . S
H783 C802 0.951 . S
H784 C804 0.950 . S
H785 C805 0.950 . S
H786 C807 0.950 . S
H787 C810 0.950 . S
H788 C811 0.950 . S
H789 C813 0.950 . S
H790 C814 0.950 . S
H791 C815 0.951 . S
H792 C817 0.951 1_455 S
H793 C819 0.950 . S
H794 C820 0.950 . S
H795 C822 0.950 . S
H796 C825 0.950 . S
H797 C826 0.950 . S
H798 C828 0.950 . S
H799 C829 0.950 . S
C800 H782 0.951 . S
C800 C801 1.366 1_545 S
C800 C802 1.388 . S
C801 C800 1.366 1_565 S
C801 C805 1.385 . S
C802 H783 0.951 . S
C802 C800 1.388 . S
C802 C803 1.366 . S
C803 C802 1.366 . S
C803 C804 1.414 . S
C803 C806 1.499 . S
C804 H784 0.950 . S
C804 C803 1.414 . S
C804 C805 1.374 1_545 S
C805 H785 0.950 . S
C805 C801 1.385 . S
C805 C804 1.374 1_565 S
C806 C803 1.499 . S
C806 C807 1.373 . S
C806 C808 1.389 . S
C807 H786 0.950 . S
C807 C806 1.373 . S
C807 C823 1.377 . S
C808 C806 1.389 . S
C808 C809 1.524 . S
C808 C822 1.377 . S
C809 C808 1.524 . S
C809 C810 1.397 . S
C809 C814 1.363 . S
C810 H787 0.950 . S
C810 C809 1.397 . S
C810 C811 1.334 . S
C811 H788 0.950 . S
C811 C810 1.334 . S
C811 C812 1.287 . S
C812 C811 1.287 . S
C812 C813 1.524 . S
C812 H831 0.913 . S
C813 H789 0.950 . S
C813 C812 1.524 . S
C813 C814 1.415 . S
C814 H790 0.950 . S
C814 C809 1.363 . S
C814 C813 1.415 . S
C815 H791 0.951 . S
C815 C816 1.366 . S
C815 C817 1.388 1_455 S
C816 C815 1.366 . S
C816 C820 1.385 1_455 S
C817 H792 0.951 1_655 S
C817 C815 1.388 1_655 S
C817 C818 1.366 . S
C818 C817 1.366 . S
C818 C819 1.414 . S
C818 C821 1.499 . S
C819 H793 0.950 . S
C819 C818 1.414 . S
C819 C820 1.374 . S
C820 H794 0.950 . S
C820 C816 1.385 1_655 S
C820 C819 1.374 . S
C821 C818 1.499 . S
C821 C822 1.373 . S
C821 C823 1.389 . S
C822 H795 0.950 . S
C822 C808 1.377 . S
C822 C821 1.373 . S
C823 C807 1.377 . S
C823 C821 1.389 . S
C823 C824 1.524 . S
C824 C823 1.524 . S
C824 C825 1.397 . S
C824 C829 1.363 . S
C825 H796 0.950 . S
C825 C824 1.397 . S
C825 C826 1.334 . S
C826 H797 0.950 . S
C826 C825 1.334 . S
C826 C827 1.287 . S
C827 C826 1.287 . S
C827 C828 1.524 . S
C827 H830 0.999 . S
C828 H798 0.950 . S
C828 C827 1.524 . S
C828 C829 1.415 . S
C829 H799 0.950 . S
C829 C824 1.363 . S
C829 C828 1.415 . S
H830 C827 0.999 . S
H831 C812 0.913 . S
H832 C850 0.951 . S
H833 C852 0.951 . S
H834 C854 0.950 1_545 S
H835 C855 0.950 . S
H836 C857 0.950 . S
H837 C860 0.950 . S
H838 C861 0.950 . S
H839 C863 0.950 . S
H840 C864 0.950 . S
H841 C865 0.951 . S
H842 C867 0.951 . S
H843 C869 0.950 . S
H844 C870 0.950 . S
H845 C872 0.950 . S
H846 C875 0.950 . S
H847 C876 0.950 . S
H848 C878 0.950 . S
H849 C879 0.950 . S
C850 H832 0.951 . S
C850 C851 1.366 1_565 S
C850 C852 1.388 . S
C851 C850 1.366 1_545 S
C851 C855 1.385 . S
C852 H833 0.951 . S
C852 C850 1.388 . S
C852 C853 1.366 . S
C853 C852 1.366 . S
C853 C854 1.414 . S
C853 C856 1.499 . S
C854 H834 0.950 1_565 S
C854 C853 1.414 . S
C854 C855 1.374 1_565 S
C855 H835 0.950 . S
C855 C851 1.385 . S
C855 C854 1.374 1_545 S
C856 C853 1.499 . S
C856 C857 1.373 . S
C856 C858 1.389 . S
C857 H836 0.950 . S
C857 C856 1.373 . S
C857 C873 1.377 . S
C858 C856 1.389 . S
C858 C859 1.524 . S
C858 C872 1.377 . S
C859 C858 1.524 . S
C859 C860 1.397 . S
C859 C864 1.363 . S
C860 H837 0.950 . S
C860 C859 1.397 . S
C860 C861 1.334 . S
C861 H838 0.950 . S
C861 C860 1.334 . S
C861 C862 1.287 . S
C862 C861 1.287 . S
C862 C863 1.524 . S
C862 H881 0.913 . S
C863 H839 0.950 . S
C863 C862 1.524 . S
C863 C864 1.415 . S
C864 H840 0.950 . S
C864 C859 1.363 . S
C864 C863 1.415 . S
C865 H841 0.951 . S
C865 C866 1.366 . S
C865 C867 1.388 . S
C866 C865 1.366 . S
C866 C870 1.385 . S
C867 H842 0.951 . S
C867 C865 1.388 . S
C867 C868 1.366 . S
C868 C867 1.366 . S
C868 C869 1.414 . S
C868 C871 1.499 . S
C869 H843 0.950 . S
C869 C868 1.414 . S
C869 C870 1.374 . S
C870 H844 0.950 . S
C870 C866 1.385 . S
C870 C869 1.374 . S
C871 C868 1.499 . S
C871 C872 1.373 . S
C871 C873 1.389 . S
C872 H845 0.950 . S
C872 C858 1.377 . S
C872 C871 1.373 . S
C873 C857 1.377 . S
C873 C871 1.389 . S
C873 C874 1.524 . S
C874 C873 1.524 . S
C874 C875 1.397 . S
C874 C879 1.363 . S
C875 H846 0.950 . S
C875 C874 1.397 . S
C875 C876 1.334 . S
C876 H847 0.950 . S
C876 C875 1.334 . S
C876 C877 1.287 . S
C877 C876 1.287 . S
C877 C878 1.524 . S
C877 H880 0.999 . S
C878 H848 0.950 . S
C878 C877 1.524 . S
C878 C879 1.415 . S
C879 H849 0.950 . S
C879 C874 1.363 . S
C879 C878 1.415 . S
H880 C877 0.999 . S
H881 C862 0.913 . S
H882 C900 0.951 . S
H883 C902 0.951 . S
H884 C904 0.950 . S
H885 C905 0.950 . S
H886 C907 0.950 . S
H887 C910 0.950 . S
H888 C911 0.950 . S
H889 C913 0.950 . S
H890 C914 0.950 . S
H891 C915 0.951 . S
H892 C917 0.951 . S
H893 C919 0.950 . S
H894 C920 0.950 . S
H895 C922 0.950 . S
H896 C925 0.950 . S
H897 C926 0.950 . S
H898 C928 0.950 . S
H899 C929 0.950 . S
C900 H882 0.951 . S
C900 C901 1.366 . S
C900 C902 1.388 . S
C901 C900 1.366 . S
C901 C905 1.385 . S
C902 H883 0.951 . S
C902 C900 1.388 . S
C902 C903 1.366 . S
C903 C902 1.366 . S
C903 C904 1.414 . S
C903 C906 1.499 . S
C904 H884 0.950 . S
C904 C903 1.414 . S
C904 C905 1.374 . S
C905 H885 0.950 . S
C905 C901 1.385 . S
C905 C904 1.374 . S
C906 C903 1.499 . S
C906 C907 1.373 1_554 S
C906 C908 1.389 . S
C907 H886 0.950 . S
C907 C906 1.373 1_556 S
C907 C923 1.377 . S
C908 C906 1.389 . S
C908 C909 1.524 . S
C908 C922 1.377 . S
C909 C908 1.524 . S
C909 C910 1.397 . S
C909 C914 1.363 . S
C910 H887 0.950 . S
C910 C909 1.397 . S
C910 C911 1.334 . S
C911 H888 0.950 . S
C911 C910 1.334 . S
C911 C912 1.287 . S
C912 C911 1.287 . S
C912 C913 1.524 . S
C912 H931 0.913 . S
C913 H889 0.950 . S
C913 C912 1.524 . S
C913 C914 1.415 . S
C914 H890 0.950 . S
C914 C909 1.363 . S
C914 C913 1.415 . S
C915 H891 0.951 . S
C915 C916 1.366 1_655 S
C915 C917 1.388 . S
C916 C915 1.366 1_455 S
C916 C920 1.385 . S
C917 H892 0.951 . S
C917 C915 1.388 . S
C917 C918 1.366 . S
C918 C917 1.366 . S
C918 C919 1.414 . S
C918 C921 1.499 . S
C919 H893 0.950 . S
C919 C918 1.414 . S
C919 C920 1.374 1_655 S
C920 H894 0.950 . S
C920 C916 1.385 . S
C920 C919 1.374 1_455 S
C921 C918 1.499 . S
C921 C922 1.373 1_556 S
C921 C923 1.389 . S
C922 H895 0.950 . S
C922 C908 1.377 . S
C922 C921 1.373 1_554 S
C923 C907 1.377 . S
C923 C921 1.389 . S
C923 C924 1.524 . S
C924 C923 1.524 . S
C924 C925 1.397 . S
C924 C929 1.363 . S
C925 H896 0.950 . S
C925 C924 1.397 . S
C925 C926 1.334 . S
C926 H897 0.950 . S
C926 C925 1.334 . S
C926 C927 1.287 . S
C927 C926 1.287 . S
C927 C928 1.524 . S
C927 H930 0.999 . S
C928 H898 0.950 . S
C928 C927 1.524 . S
C928 C929 1.415 . S
C929 H899 0.950 . S
C929 C924 1.363 . S
C929 C928 1.415 . S
H930 C927 0.999 . S
H931 C912 0.913 . S
H932 C950 0.951 . S
H933 C952 0.951 . S
H934 C954 0.950 . S
H935 C955 0.950 . S
H936 C957 0.950 . S
H937 C960 0.950 . S
H938 C961 0.950 . S
H939 C963 0.950 . S
H940 C964 0.950 . S
H941 C965 0.951 . S
H942 C967 0.951 . S
H943 C969 0.950 . S
H944 C970 0.950 . S
H945 C972 0.950 . S
H946 C975 0.950 . S
H947 C976 0.950 . S
H948 C978 0.950 . S
H949 C979 0.950 . S
C950 H932 0.951 . S
C950 C951 1.366 1_565 S
C950 C952 1.388 . S
C951 C950 1.366 1_545 S
C951 C955 1.385 . S
C952 H933 0.951 . S
C952 C950 1.388 . S
C952 C953 1.366 . S
C953 C952 1.366 . S
C953 C954 1.414 . S
C953 C956 1.499 . S
C954 H934 0.950 . S
C954 C953 1.414 . S
C954 C955 1.374 1_565 S
C955 H935 0.950 . S
C955 C951 1.385 . S
C955 C954 1.374 1_545 S
C956 C953 1.499 . S
C956 C957 1.373 . S
C956 C958 1.389 . S
C957 H936 0.950 . S
C957 C956 1.373 . S
C957 C973 1.377 . S
C958 C956 1.389 . S
C958 C959 1.524 . S
C958 C972 1.377 . S
C959 C958 1.524 . S
C959 C960 1.397 . S
C959 C964 1.363 . S
C960 H937 0.950 . S
C960 C959 1.397 . S
C960 C961 1.334 . S
C961 H938 0.950 . S
C961 C960 1.334 . S
C961 C962 1.287 . S
C962 C961 1.287 . S
C962 C963 1.524 . S
C962 H981 0.913 . S
C963 H939 0.950 . S
C963 C962 1.524 . S
C963 C964 1.415 . S
C964 H940 0.950 . S
C964 C959 1.363 . S
C964 C963 1.415 . S
C965 H941 0.951 . S
C965 C966 1.366 . S
C965 C967 1.388 1_655 S
C966 C965 1.366 . S
C966 C970 1.385 1_655 S
C967 H942 0.951 . S
C967 C965 1.388 1_455 S
C967 C968 1.366 . S
C968 C967 1.366 . S
C968 C969 1.414 . S
C968 C971 1.499 . S
C969 H943 0.950 . S
C969 C968 1.414 . S
C969 C970 1.374 . S
C970 H944 0.950 . S
C970 C966 1.385 1_455 S
C970 C969 1.374 . S
C971 C968 1.499 . S
C971 C972 1.373 . S
C971 C973 1.389 . S
C972 H945 0.950 . S
C972 C958 1.377 . S
C972 C971 1.373 . S
C973 C957 1.377 . S
C973 C971 1.389 . S
C973 C974 1.524 . S
C974 C973 1.524 . S
C974 C975 1.397 . S
C974 C979 1.363 . S
C975 H946 0.950 . S
C975 C974 1.397 . S
C975 C976 1.334 . S
C976 H947 0.950 . S
C976 C975 1.334 . S
C976 C977 1.287 . S
C977 C976 1.287 . S
C977 C978 1.524 . S
C977 H980 0.999 . S
C978 H948 0.950 . S
C978 C977 1.524 . S
C978 C979 1.415 . S
C979 H949 0.950 . S
C979 C974 1.363 . S
C979 C978 1.415 . S
H980 C977 0.999 . S
H981 C962 0.913 . S
H982 C1000 0.951 1_565 S
H983 C1002 0.951 . S
H984 C1004 0.950 . S
H985 C1005 0.948 1_565 S
H986 C1007 0.950 . S
H987 C1010 0.950 . S
H988 C1011 0.950 . S
H989 C1013 0.950 . S
H990 C1014 0.950 . S
H991 C1015 0.951 . S
H992 C1017 0.951 . S
H993 C1019 0.950 . S
H994 C1020 0.950 . S
H995 C1022 0.950 . S
H996 C1025 0.950 . S
H997 C1026 0.950 . S
H998 C1028 0.950 . S
H999 C1029 0.950 . S
C1000 H982 0.951 1_545 S
C1000 C1001 1.366 1_545 S
C1000 C1002 1.388 . S
C1001 C1000 1.366 1_565 S
C1001 C1005 1.385 1_565 S
C1002 H983 0.951 . S
C1002 C1000 1.388 . S
C1002 C1003 1.366 . S
C1003 C1002 1.366 . S
C1003 C1004 1.414 . S
C1003 C1006 1.499 . S
C1004 H984 0.950 . S
C1004 C1003 1.414 . S
C1004 C1005 1.374 . S
C1005 H985 0.948 1_545 S
C1005 C1001 1.385 1_545 S
C1005 C1004 1.374 . S
C1006 C1003 1.499 . S
C1006 C1007 1.373 . S
C1006 C1008 1.389 . S
C1007 H986 0.950 . S
C1007 C1006 1.373 . S
C1007 C1023 1.377 . S
C1008 C1006 1.389 . S
C1008 C1009 1.524 . S
C1008 C1022 1.377 . S
C1009 C1008 1.524 . S
C1009 C1010 1.397 1_545 S
C1009 C1014 1.363 . S
C1010 H987 0.950 . S
C1010 C1009 1.397 1_565 S
C1010 C1011 1.334 . S
C1011 H988 0.950 . S
C1011 C1010 1.334 . S
C1011 C1012 1.287 . S
C1012 C1011 1.287 . S
C1012 C1013 1.524 . S
C1012 H1031 0.913 . S
C1013 H989 0.950 . S
C1013 C1012 1.524 . S
C1013 C1014 1.415 1_565 S
C1014 H990 0.950 . S
C1014 C1009 1.363 . S
C1014 C1013 1.415 1_545 S
C1015 H991 0.951 . S
C1015 C1016 1.366 . S
C1015 C1017 1.388 . S
C1016 C1015 1.366 . S
C1016 C1020 1.385 . S
C1017 H992 0.951 . S
C1017 C1015 1.388 . S
C1017 C1018 1.366 . S
C1018 C1017 1.366 . S
C1018 C1019 1.414 . S
C1018 C1021 1.499 . S
C1019 H993 0.950 . S
C1019 C1018 1.414 . S
C1019 C1020 1.374 . S
C1020 H994 0.950 . S
C1020 C1016 1.385 . S
C1020 C1019 1.374 . S
C1021 C1018 1.499 . S
C1021 C1022 1.373 . S
C1021 C1023 1.389 . S
C1022 H995 0.950 . S
C1022 C1008 1.377 . S
C1022 C1021 1.373 . S
C1023 C1007 1.377 . S
C1023 C1021 1.389 . S
C1023 C1024 1.524 . S
C1024 C1023 1.524 . S
C1024 C1025 1.397 . S
C1024 C1029 1.363 . S
C1025 H996 0.950 . S
C1025 C1024 1.397 . S
C1025 C1026 1.334 . S
C1026 H997 0.950 . S
C1026 C1025 1.334 . S
C1026 C1027 1.287 . S
C1027 C1026 1.287 . S
C1027 C1028 1.524 . S
C1027 H1030 0.999 . S
C1028 H998 0.950 . S
C1028 C1027 1.524 . S
C1028 C1029 1.415 . S
C1029 H999 0.950 . S
C1029 C1024 1.363 . S
C1029 C1028 1.415 . S
H1030 C1027 0.999 . S
H1031 C1012 0.913 . S
C151 C5 1.277 . S
C166 C71 1.277 . S
C201 C16 1.279 . S
C216 C82 1.279 . S
C251 C27 1.279 . S
C266 C93 1.279 . S
C301 C104 1.278 . S
C316 C38 1.278 . S
C351 C49 1.277 . S
C366 C115 1.277 . S
C401 C126 1.278 . S
C416 C60 1.278 . S
C451 C7 1.460 . S
C466 C40 1.460 . S
C501 C18 1.460 . S
C516 C51 1.459 . S
C551 C62 1.461 . S
C566 C29 1.461 . S
C601 C73 1.459 . S
C616 C106 1.460 . S
C651 C117 1.461 . S
C666 C84 1.461 . S
C701 C128 1.461 . S
C716 C95 1.461 . S
C751 C118 1.501 . S
C766 C8 1.501 . S
C801 C129 1.501 . S
C816 C19 1.501 . S
C851 C30 1.501 . S
C866 C74 1.501 . S
C901 C41 1.501 . S
C916 C85 1.501 . S
C951 C96 1.501 . S
C966 C52 1.501 . S
C1001 C63 1.501 . S
C1016 C107 1.500 . S
