# Generated by pormake.
# Topology eta-c, (3)-cn, num edge types: 1
# Building blocks:
#     Node 0, Type 0, BuildingBlock: WUSLED_clean_sbu_0, # of connection points: 3
#     Node 1, Type 0, BuildingBlock: WUSLED_clean_sbu_0, # of connection points: 3
#     Node 2, Type 0, BuildingBlock: WUSLED_clean_sbu_0, # of connection points: 3
#     Node 3, Type 0, BuildingBlock: WUSLED_clean_sbu_0, # of connection points: 3
#     Node 4, Type 0, BuildingBlock: WUSLED_clean_sbu_0, # of connection points: 3
#     Node 5, Type 0, BuildingBlock: WUSLED_clean_sbu_0, # of connection points: 3
#     Edge 6, Type (0, 0), BuildingBlock: FUNLAD_clean_linker_0, # of connection points: 2
#     Edge 7, Type (0, 0), BuildingBlock: FUNLAD_clean_linker_0, # of connection points: 2
#     Edge 8, Type (0, 0), BuildingBlock: FUNLAD_clean_linker_0, # of connection points: 2
#     Edge 9, Type (0, 0), BuildingBlock: FUNLAD_clean_linker_0, # of connection points: 2
#     Edge 10, Type (0, 0), BuildingBlock: FUNLAD_clean_linker_0, # of connection points: 2
#     Edge 11, Type (0, 0), BuildingBlock: FUNLAD_clean_linker_0, # of connection points: 2
#     Edge 12, Type (0, 0), BuildingBlock: FUNLAD_clean_linker_0, # of connection points: 2
#     Edge 13, Type (0, 0), BuildingBlock: FUNLAD_clean_linker_0, # of connection points: 2
#     Edge 14, Type (0, 0), BuildingBlock: FUNLAD_clean_linker_0, # of connection points: 2
# Relax obj value: 0.000
# Max RMSD: 0.005
# Mean RMSD: 0.004
data_MOF--net-eta-c--node1-WUSLED_clean_sbu_0--edge1-FUNLAD_clean_linker_0
_symmetry_space_group_name_H-M    P1
_symmetry_Int_Tables_number       1
_symmetry_cell_setting            triclinic
loop_
_symmetry_equiv_pos_as_xyz
'x, y, z'
_cell_length_a     73.682895
_cell_length_b     74.46271
_cell_length_c     30.495567
_cell_angle_alpha  90.980308
_cell_angle_beta   89.444368
_cell_angle_gamma 119.00674
loop_
_atom_site_label
_atom_site_type_symbol
_atom_site_fract_x
_atom_site_fract_y
_atom_site_fract_z
_atom_type_partial_charge
C0 C 0.40215 0.80993 0.14681 0.0
C1 C 0.39009 0.78905 0.13574 0.0
C2 C 0.37725 0.78143 0.211 0.0
C3 C 0.37773 0.77492 0.16754 0.0
C4 C 0.38966 0.80236 0.2219 0.0
C5 C 0.40196 0.81645 0.1901 0.0
U6 U 0.42598 0.82451 0.03186 0.0
O7 O 0.42772 0.84858 0.98811 0.0
O8 O 0.4563 0.84948 1.01109 0.0
C9 C 0.44808 0.85905 0.98996 0.0
C10 C 0.4145 0.8252 0.1135 0.0
C11 C 0.45723 0.8814 0.99825 0.0
C12 C 0.47792 0.91225 0.04222 0.0
C13 C 0.46847 0.89087 0.03662 0.0
C14 C 0.46461 0.91493 0.97179 0.0
C15 C 0.47619 0.92455 1.00975 0.0
C16 C 0.4553 0.89362 0.9661 0.0
C17 C 0.41763 0.78176 0.94834 0.0
C18 C 0.41915 0.78383 0.8687 0.0
C19 C 0.42089 0.75589 0.90438 0.0
C20 C 0.41937 0.76384 0.94531 0.0
C21 C 0.42058 0.76566 0.86552 0.0
C22 C 0.41777 0.79185 0.90973 0.0
C23 C 0.41503 0.78917 0.99194 0.0
O24 O 0.43229 0.82623 0.10276 0.0
O25 O 0.40407 0.82588 0.07944 0.0
O26 O 0.40321 0.79788 0.99371 0.0
O27 O 0.43192 0.79882 1.01582 0.0
H28 H 0.39009 0.78371 0.10246 0.0
H29 H 0.36857 0.7589 0.15809 0.0
H30 H 0.38949 0.80799 0.2548 0.0
H31 H 0.41113 0.83252 0.1992 0.0
H32 H 0.48652 0.91914 0.07206 0.0
H33 H 0.47013 0.88182 0.0621 0.0
H34 H 0.46316 0.92393 0.94591 0.0
H35 H 0.44679 0.88667 0.93616 0.0
H36 H 0.41914 0.79187 0.83945 0.0
H37 H 0.42175 0.74178 0.90313 0.0
H38 H 0.41926 0.75581 0.97469 0.0
H39 H 0.4166 0.8058 0.91123 0.0
C40 C 0.61427 0.39333 0.48355 0.0
C41 C 0.63038 0.38836 0.48229 0.0
C42 C 0.61691 0.36804 0.54853 0.0
C43 C 0.63172 0.37588 0.51458 0.0
C44 C 0.60076 0.37303 0.54935 0.0
C45 C 0.59949 0.38555 0.51721 0.0
U46 U 0.62676 0.41856 0.37061 0.0
O47 O 0.60661 0.42344 0.32509 0.0
O48 O 0.63431 0.44992 0.35228 0.0
C49 C 0.61742 0.44356 0.32866 0.0
C50 C 0.61262 0.40661 0.4503 0.0
C51 C 0.60547 0.45447 0.33644 0.0
C52 C 0.57895 0.45903 0.37533 0.0
C53 C 0.5901 0.44835 0.36902 0.0
C54 C 0.59856 0.48207 0.31682 0.0
C55 C 0.5831 0.47608 0.34935 0.0
C56 C 0.6096 0.47137 0.31048 0.0
C57 C 0.66175 0.40816 0.29065 0.0
C58 C 0.66252 0.40654 0.21082 0.0
C59 C 0.69312 0.41359 0.25245 0.0
C60 C 0.68249 0.41242 0.29145 0.0
C61 C 0.68321 0.41038 0.21157 0.0
C62 C 0.6519 0.40547 0.24992 0.0
C63 C 0.65061 0.40567 0.33269 0.0
O64 O 0.62976 0.42375 0.44201 0.0
O65 O 0.60219 0.39718 0.41475 0.0
O66 O 0.63022 0.39535 0.33137 0.0
O67 O 0.65782 0.42195 0.35861 0.0
H68 H 0.64189 0.39412 0.45638 0.0
H69 H 0.64421 0.37215 0.51265 0.0
H70 H 0.58924 0.36749 0.57525 0.0
H71 H 0.58696 0.38924 0.51875 0.0
H72 H 0.56731 0.45413 0.40095 0.0
H73 H 0.58674 0.43537 0.38956 0.0
H74 H 0.60198 0.49491 0.2958 0.0
H75 H 0.62138 0.47629 0.2851 0.0
H76 H 0.65429 0.40378 0.18007 0.0
H77 H 0.70914 0.41697 0.25439 0.0
H78 H 0.69043 0.4146 0.32243 0.0
H79 H 0.63591 0.40218 0.24825 0.0
C80 C 0.2389 0.64537 0.57878 0.0
C81 C 0.25977 0.65836 0.58979 0.0
C82 C 0.26763 0.66984 0.51401 0.0
C83 C 0.27401 0.6705 0.55772 0.0
C84 C 0.24671 0.65653 0.50322 0.0
C85 C 0.23252 0.64445 0.53529 0.0
U86 U 0.22401 0.62069 0.69225 0.0
O87 O 0.19946 0.6182 0.73766 0.0
O88 O 0.19882 0.59033 0.71102 0.0
C89 C 0.18896 0.59808 0.73388 0.0
C90 C 0.22349 0.63291 0.61212 0.0
C91 C 0.16637 0.58905 0.72622 0.0
C92 C 0.13502 0.56763 0.68406 0.0
C93 C 0.15662 0.57683 0.68898 0.0
C94 C 0.13266 0.58299 0.75297 0.0
C95 C 0.12277 0.57054 0.71609 0.0
C96 C 0.15418 0.59207 0.75798 0.0
C97 C 0.26726 0.62813 0.77284 0.0
C98 C 0.26503 0.62476 0.85228 0.0
C99 C 0.29356 0.62438 0.81299 0.0
C100 C 0.28555 0.62672 0.77343 0.0
C101 C 0.28347 0.62346 0.85298 0.0
C102 C 0.25695 0.627 0.81255 0.0
C103 C 0.25967 0.63123 0.73053 0.0
O104 O 0.2224 0.61519 0.62079 0.0
O105 O 0.22277 0.6429 0.64747 0.0
O106 O 0.25067 0.64277 0.73143 0.0
O107 O 0.25008 0.61486 0.70515 0.0
H108 H 0.265 0.65926 0.62325 0.0
H109 H 0.28991 0.68071 0.56737 0.0
H110 H 0.2413 0.65533 0.46985 0.0
H111 H 0.21649 0.63443 0.52612 0.0
H112 H 0.12793 0.55831 0.65507 0.0
H113 H 0.16561 0.57425 0.66384 0.0
H114 H 0.12371 0.58535 0.77857 0.0
H115 H 0.1613 0.60129 0.7871 0.0
H116 H 0.25674 0.62387 0.8824 0.0
H117 H 0.30791 0.6237 0.81231 0.0
H118 H 0.29378 0.62762 0.74319 0.0
H119 H 0.24273 0.62794 0.81289 0.0
C120 C 0.60844 0.22553 0.9136 0.0
C121 C 0.62116 0.24686 0.91798 0.0
C122 C 0.60925 0.25192 0.84715 0.0
C123 C 0.62161 0.25996 0.88496 0.0
C124 C 0.59673 0.23049 0.8429 0.0
C125 C 0.59635 0.21746 0.87579 0.0
U126 U 0.62199 0.21439 0.02773 0.0
O127 O 0.60186 0.19121 0.07547 0.0
O128 O 0.62906 0.19028 0.04814 0.0
C129 C 0.6123 0.18108 0.07259 0.0
C130 C 0.60721 0.21143 0.94823 0.0
C131 C 0.59982 0.15861 0.06688 0.0
C132 C 0.5846 0.12768 0.02111 0.0
C133 C 0.5957 0.14915 0.02522 0.0
C134 C 0.58124 0.12498 0.10012 0.0
C135 C 0.57741 0.1153 0.05858 0.0
C136 C 0.59234 0.14638 0.10416 0.0
C137 C 0.65763 0.2589 0.10454 0.0
C138 C 0.66128 0.25649 0.18316 0.0
C139 C 0.68652 0.28637 0.14406 0.0
C140 C 0.67571 0.27803 0.10494 0.0
C141 C 0.67942 0.27575 0.18372 0.0
C142 C 0.65052 0.2481 0.14389 0.0
C143 C 0.64644 0.25067 0.06283 0.0
O144 O 0.62444 0.21093 0.95641 0.0
O145 O 0.59718 0.21165 0.98394 0.0
O146 O 0.62608 0.24167 0.0649 0.0
O147 O 0.65328 0.2407 0.0377 0.0
H148 H 0.63057 0.25337 0.94708 0.0
H149 H 0.63127 0.27638 0.88948 0.0
H150 H 0.58727 0.22376 0.81399 0.0
H151 H 0.58649 0.20103 0.87178 0.0
H152 H 0.58211 0.12078 0.98864 0.0
H153 H 0.60129 0.15833 0.99596 0.0
H154 H 0.57563 0.11602 0.12964 0.0
H155 H 0.59526 0.1534 0.13658 0.0
H156 H 0.65553 0.2478 0.21299 0.0
H157 H 0.70027 0.30132 0.14334 0.0
H158 H 0.68143 0.28661 0.07494 0.0
H159 H 0.63666 0.23322 0.14427 0.0
C160 C 0.3997 0.60289 0.24544 0.0
C161 C 0.39968 0.62142 0.23759 0.0
C162 C 0.37708 0.60594 0.17417 0.0
C163 C 0.38846 0.62293 0.20226 0.0
C164 C 0.37671 0.58729 0.18312 0.0
C165 C 0.38793 0.58582 0.21827 0.0
U166 U 0.42507 0.61495 0.36034 0.0
O167 O 0.42787 0.59376 0.40598 0.0
O168 O 0.45585 0.61995 0.37973 0.0
C169 C 0.4482 0.60294 0.40239 0.0
C170 C 0.41237 0.601 0.28043 0.0
C171 C 0.45744 0.5894 0.39436 0.0
C172 C 0.47887 0.57895 0.35129 0.0
C173 C 0.46933 0.59118 0.35668 0.0
C174 C 0.4644 0.56262 0.42052 0.0
C175 C 0.47662 0.5646 0.38328 0.0
C176 C 0.45499 0.57493 0.42602 0.0
C177 C 0.41804 0.65161 0.44097 0.0
C178 C 0.41607 0.652 0.52075 0.0
C179 C 0.42725 0.68348 0.48088 0.0
C180 C 0.42488 0.67278 0.4413 0.0
C181 C 0.42267 0.67321 0.52118 0.0
C182 C 0.41383 0.64133 0.48113 0.0
C183 C 0.41463 0.64056 0.3984 0.0
O184 O 0.43028 0.61734 0.28905 0.0
O185 O 0.40229 0.5913 0.31579 0.0
O186 O 0.40284 0.62049 0.39885 0.0
O187 O 0.43099 0.6466 0.37288 0.0
H188 H 0.40861 0.6348 0.25825 0.0
H189 H 0.38921 0.63756 0.1962 0.0
H190 H 0.36781 0.57379 0.16277 0.0
H191 H 0.38762 0.57134 0.22391 0.0
H192 H 0.48795 0.58068 0.32196 0.0
H193 H 0.47143 0.60213 0.33155 0.0
H194 H 0.46252 0.55189 0.446 0.0
H195 H 0.446 0.57335 0.45544 0.0
H196 H 0.41215 0.6435 0.55099 0.0
H197 H 0.43273 0.69984 0.47982 0.0
H198 H 0.42825 0.68106 0.41078 0.0
H199 H 0.40852 0.62499 0.482 0.0
C200 C 0.81666 0.39271 0.57573 0.0
C201 C 0.7972 0.39146 0.56948 0.0
C202 C 0.79127 0.36976 0.50437 0.0
C203 C 0.78463 0.38008 0.53409 0.0
C204 C 0.8105 0.3706 0.51173 0.0
C205 C 0.82304 0.38198 0.54696 0.0
U206 U 0.82909 0.41826 0.6908 0.0
O207 O 0.85397 0.42268 0.73629 0.0
O208 O 0.85307 0.44947 0.70996 0.0
C209 C 0.86349 0.44279 0.73306 0.0
C210 C 0.83097 0.4057 0.61066 0.0
C211 C 0.88601 0.45285 0.72467 0.0
C212 C 0.91599 0.45534 0.68515 0.0
C213 C 0.89447 0.44562 0.6919 0.0
C214 C 0.92075 0.47977 0.74337 0.0
C215 C 0.92941 0.47255 0.71086 0.0
C216 C 0.8993 0.47001 0.75017 0.0
C217 C 0.78511 0.40981 0.77147 0.0
C218 C 0.78425 0.40943 0.85135 0.0
C219 C 0.76037 0.41674 0.81151 0.0
C220 C 0.76888 0.41459 0.77184 0.0
C221 C 0.76781 0.414 0.85176 0.0
C222 C 0.79287 0.40743 0.81164 0.0
C223 C 0.79302 0.40662 0.72889 0.0
O224 O 0.83112 0.42311 0.61964 0.0
O225 O 0.83173 0.39612 0.64582 0.0
O226 O 0.80272 0.39574 0.72933 0.0
O227 O 0.80199 0.4227 0.70343 0.0
H228 H 0.79191 0.39957 0.5914 0.0
H229 H 0.77 0.3799 0.52929 0.0
H230 H 0.81595 0.36254 0.49008 0.0
H231 H 0.83794 0.38264 0.55135 0.0
H232 H 0.9221 0.44952 0.65952 0.0
H233 H 0.88444 0.43245 0.67165 0.0
H234 H 0.9306 0.49278 0.76415 0.0
H235 H 0.89306 0.4758 0.77564 0.0
H236 H 0.7905 0.40746 0.88179 0.0
H237 H 0.74759 0.42004 0.8106 0.0
H238 H 0.76258 0.4164 0.74131 0.0
H239 H 0.80546 0.40385 0.81241 0.0
C240 C 0.50719 0.95827 0.03075 0.0
C241 C 0.48675 0.94735 1.01484 0.0
C242 C 0.51742 0.97975 0.03391 0.0
C243 C 0.50734 0.99089 0.0217 0.0
C244 C 0.48689 0.9799 1.00592 0.0
C245 C 0.47672 0.95845 1.00255 0.0
C246 C 0.51765 1.01384 0.02339 0.0
C247 C 0.5351 0.02591 0.04634 0.0
C248 C 0.5454 0.04884 0.04836 0.0
C249 C 0.56 0.05919 0.08167 0.0
C250 C 0.57031 0.08063 0.08489 0.0
C251 C 0.56638 0.09241 0.05472 0.0
H252 H 0.53097 0.05345 0.99075 0.0
C253 C 0.55196 0.08211 0.02096 0.0
C254 C 0.54163 0.06061 1.0177 0.0
H255 H 0.54849 0.09066 0.99721 0.0
H256 H 0.51551 0.95024 0.03969 0.0
H257 H 0.53334 0.98743 0.04497 0.0
H258 H 0.4787 0.98794 0.99608 0.0
H259 H 0.46093 0.95053 0.99048 0.0
H260 H 0.50997 0.02087 1.0061 0.0
H261 H 0.54191 1.0188 0.06628 0.0
H262 H 0.56347 0.05065 0.10547 0.0
H263 H 0.58161 0.08798 0.11078 0.0
C264 C 0.50789 0.56086 0.36333 0.0
C265 C 0.48727 0.552 0.37834 0.0
C266 C 0.51807 0.54917 0.35973 0.0
C267 C 0.50787 0.52828 0.37118 0.0
C268 C 0.48713 0.51936 0.3853 0.0
C269 C 0.47699 0.53108 0.38913 0.0
C270 C 0.51802 0.51516 0.3675 0.0
C271 C 0.53877 0.52266 0.36959 0.0
C272 C 0.54946 0.51 0.36532 0.0
C273 C 0.57103 0.52021 0.35856 0.0
C274 C 0.58189 0.50925 0.35381 0.0
C275 C 0.5715 0.4877 0.35592 0.0
H276 H 0.52256 0.4798 0.37444 0.0
C277 C 0.54996 0.47742 0.36359 0.0
C278 C 0.53905 0.4884 0.36826 0.0
H279 H 0.54145 0.46083 0.36527 0.0
H280 H 0.51629 0.57694 0.35486 0.0
H281 H 0.53381 0.55654 0.34736 0.0
H282 H 0.47876 0.50326 0.39378 0.0
H283 H 0.46101 0.52368 0.40017 0.0
H284 H 0.50782 0.49877 0.36366 0.0
H285 H 0.5487 0.53906 0.37435 0.0
H286 H 0.57958 0.5368 0.35659 0.0
H287 H 0.59852 0.51772 0.34875 0.0
C288 C 0.08824 0.53985 0.69749 0.0
C289 C 0.09974 0.56042 0.71175 0.0
C290 C 0.06651 0.53003 0.69581 0.0
C291 C 0.05571 0.54063 0.70813 0.0
C292 C 0.06732 0.5613 0.72162 0.0
C293 C 0.08899 0.57106 0.72339 0.0
C294 C 0.03254 0.53086 0.70925 0.0
C295 C 1.01931 0.51204 0.69276 0.0
C296 C 0.99622 0.50244 0.69623 0.0
C297 C 0.9842 0.48095 0.69297 0.0
C298 C 0.96256 0.47126 0.69711 0.0
C299 C 0.95236 0.48284 0.7044 0.0
H300 H 0.9944 0.53067 0.70312 0.0
C301 C 0.96432 0.50438 0.70642 0.0
C302 C 0.98594 0.51407 0.7022 0.0
H303 H 0.95694 0.51381 0.71091 0.0
H304 H 0.09601 0.53111 0.68884 0.0
H305 H 0.05843 0.51406 0.68583 0.0
H306 H 0.05958 0.56996 0.73122 0.0
H307 H 0.09734 0.587 0.73395 0.0
H308 H 1.0262 0.53968 0.72549 0.0
H309 H 1.02534 0.5028 0.67735 0.0
H310 H 0.9916 0.47156 0.688 0.0
H311 H 0.95387 0.45464 0.69563 0.0
C312 C 0.37005 0.76793 0.28814 0.0
C313 C 0.3634 0.76664 0.24453 0.0
C314 C 0.35669 0.75465 0.32003 0.0
C315 C 0.33632 0.73964 0.30902 0.0
C316 C 0.32976 0.73831 0.26539 0.0
C317 C 0.34312 0.75155 0.23353 0.0
C318 C 0.32108 0.72583 0.34215 0.0
C319 C 0.32633 0.72172 0.38156 0.0
C320 C 0.31085 0.70823 0.41466 0.0
C321 C 0.31708 0.69905 0.44682 0.0
C322 C 0.30313 0.68659 0.4789 0.0
C323 C 0.28258 0.68311 0.47988 0.0
H324 H 0.28506 0.71229 0.39289 0.0
C325 C 0.27642 0.69252 0.44803 0.0
C326 C 0.29036 0.70495 0.41593 0.0
H327 H 0.26089 0.69061 0.44837 0.0
H328 H 0.38561 0.77928 0.29774 0.0
H329 H 0.36232 0.75662 0.35334 0.0
H330 H 0.31413 0.72707 0.2559 0.0
H331 H 0.33733 0.7503 0.20048 0.0
H332 H 0.30485 0.71827 0.33277 0.0
H333 H 0.3426 0.72776 0.38959 0.0
H334 H 0.33279 0.70141 0.44695 0.0
H335 H 0.30841 0.67948 0.50263 0.0
C336 C 0.60021 0.33747 0.598 0.0
C337 C 0.61822 0.35476 0.58305 0.0
C338 C 0.6013 0.32517 0.63095 0.0
C339 C 0.62047 0.32996 0.6502 0.0
C340 C 0.63849 0.34703 0.63465 0.0
C341 C 0.63741 0.35931 0.60159 0.0
C342 C 0.62242 0.3173 0.68547 0.0
C343 C 0.6065 0.30455 0.71131 0.0
C344 C 0.60804 0.29146 0.74604 0.0
C345 C 0.58968 0.27447 0.76053 0.0
C346 C 0.59012 0.26174 0.79316 0.0
C347 C 0.60896 0.26573 0.81259 0.0
H348 H 0.64141 0.30885 0.7566 0.0
C349 C 0.62736 0.28292 0.79871 0.0
C350 C 0.62694 0.29565 0.7658 0.0
H351 H 0.64215 0.28642 0.81295 0.0
H352 H 0.58524 0.33323 0.58374 0.0
H353 H 0.58707 0.31176 0.64043 0.0
H354 H 0.6535 0.35105 0.64847 0.0
H355 H 0.65158 0.37258 0.5911 0.0
H356 H 0.63766 0.31878 0.69022 0.0
H357 H 0.59131 0.30321 0.70669 0.0
H358 H 0.57487 0.27094 0.74637 0.0
H359 H 0.57561 0.24886 0.80355 0.0
C360 C 0.35535 0.61889 0.13629 0.0
C361 C 0.36622 0.60771 0.13476 0.0
C362 C 0.34521 0.62041 0.09896 0.0
C363 C 0.34573 0.61075 0.05915 0.0
C364 C 0.35678 0.59979 0.05771 0.0
C365 C 0.36683 0.59825 0.0949 0.0
C366 C 0.33561 0.61201 1.01794 0.0
C367 C 0.32087 0.61778 1.01583 0.0
C368 C 0.31099 0.61862 0.97389 0.0
C369 C 0.30197 0.63142 0.97149 0.0
C370 C 0.29282 0.63284 0.93257 0.0
C371 C 0.29237 0.62136 0.89507 0.0
H372 H 0.31591 0.59594 0.93744 0.0
C373 C 0.30089 0.60812 0.89781 0.0
C374 C 0.30999 0.60668 0.9367 0.0
H375 H 0.30035 0.59868 0.86991 0.0
H376 H 0.35453 0.62635 0.16647 0.0
H377 H 0.33732 0.6294 0.10155 0.0
H378 H 0.35766 0.59234 0.02756 0.0
H379 H 0.37536 0.58984 0.09216 0.0
H380 H 0.34065 0.60776 0.98785 0.0
H381 H 0.31595 0.62245 0.0455 0.0
H382 H 0.30229 0.64065 0.99965 0.0
H383 H 0.2865 0.64328 0.93159 0.0
C384 C 0.75692 0.3471 0.46709 0.0
C385 C 0.77869 0.3588 0.4649 0.0
C386 C 0.74527 0.33703 0.42965 0.0
C387 C 0.75516 0.33844 0.38905 0.0
C388 C 0.77688 0.35027 0.38698 0.0
C389 C 0.78848 0.36025 0.42429 0.0
C390 C 0.7437 0.32854 0.3477 0.0
C391 C 0.72391 0.31308 0.3458 0.0
C392 C 0.71294 0.30343 0.30382 0.0
C393 C 0.69113 0.29292 0.30328 0.0
C394 C 0.68024 0.28379 0.26455 0.0
C395 C 0.69091 0.28486 0.22536 0.0
H396 H 0.74035 0.31118 0.26388 0.0
C397 C 0.71273 0.29496 0.22609 0.0
C398 C 0.72361 0.30404 0.26479 0.0
H399 H 0.72144 0.29565 0.19676 0.0
H400 H 0.74887 0.3456 0.49785 0.0
H401 H 0.72857 0.32852 0.43277 0.0
H402 H 0.78498 0.35184 0.35623 0.0
H403 H 0.80516 0.36943 0.42107 0.0
H404 H 0.75225 0.33436 0.3174 0.0
H405 H 0.71511 0.30734 0.37584 0.0
H406 H 0.68245 0.292 0.33282 0.0
H407 H 0.66344 0.27624 0.26514 0.0
C408 C 0.41878 0.70003 0.56567 0.0
C409 C 0.42441 0.68448 0.56332 0.0
C410 C 0.42014 0.71044 0.60522 0.0
C411 C 0.42698 0.70542 0.64381 0.0
C412 C 0.43284 0.69005 0.64124 0.0
C413 C 0.43158 0.67973 0.60165 0.0
C414 C 0.42853 0.71581 0.68717 0.0
C415 C 0.42007 0.72802 0.6962 0.0
C416 C 0.42104 0.73788 0.73992 0.0
C417 C 0.40795 0.74644 0.74754 0.0
C418 C 0.40799 0.75566 0.78794 0.0
C419 C 0.42116 0.75658 0.82194 0.0
H420 H 0.44544 0.73349 0.76928 0.0
C421 C 0.43453 0.74834 0.81425 0.0
C422 C 0.43459 0.73922 0.77373 0.0
H423 H 0.44514 0.74913 0.83951 0.0
H424 H 0.41301 0.70403 0.537 0.0
H425 H 0.41591 0.72244 0.60487 0.0
H426 H 0.43838 0.68593 0.67011 0.0
H427 H 0.43643 0.66813 0.60106 0.0
H428 H 0.43635 0.71243 0.71305 0.0
H429 H 0.41117 0.7304 0.67113 0.0
H430 H 0.39742 0.74581 0.72225 0.0
H431 H 0.39736 0.76168 0.79283 0.0
C432 C 0.75364 0.40096 0.92692 0.0
C433 C 0.75813 0.41546 0.89386 0.0
C434 C 0.74387 0.40185 0.96588 0.0
C435 C 0.73856 0.4175 0.97303 0.0
C436 C 0.74312 0.43199 0.9399 0.0
C437 C 0.75276 0.431 0.90086 0.0
C438 C 0.72767 0.41895 1.01352 0.0
C439 C 0.72608 0.40884 0.05097 0.0
C440 C 0.71506 0.40999 0.09151 0.0
C441 C 0.71777 0.40163 0.13026 0.0
C442 C 0.70755 0.40184 0.16897 0.0
C443 C 0.69426 0.41045 0.17017 0.0
H444 H 0.69859 0.42475 0.06354 0.0
C445 C 0.69143 0.41877 0.13141 0.0
C446 C 0.70161 0.4185 0.09253 0.0
H447 H 0.68142 0.42564 0.13109 0.0
H448 H 0.7572 0.38855 0.92221 0.0
H449 H 0.74017 0.38993 0.98955 0.0
H450 H 0.73918 0.44417 0.94417 0.0
H451 H 0.75612 0.44251 0.87621 0.0
H452 H 0.72125 0.42931 1.0123 0.0
H453 H 0.7337 0.39956 0.05301 0.0
H454 H 0.7278 0.39477 0.13062 0.0
H455 H 0.70982 0.39489 0.19783 0.0
loop_
_geom_bond_atom_site_label_1
_geom_bond_atom_site_label_2
_geom_bond_distance
_geom_bond_site_symmetry_2
_ccdc_geom_bond_type
C0 C1 1.264 . S
C0 C5 1.479 . S
C0 C10 1.465 . S
C1 C0 1.264 . S
C1 C3 1.339 . S
C1 H28 0.931 . S
C2 C3 1.395 . S
C2 C4 1.320 . S
C3 C1 1.339 . S
C3 C2 1.395 . S
C3 H29 0.929 . S
C4 C2 1.320 . S
C4 C5 1.405 . S
C4 H30 0.930 . S
C5 C0 1.479 . S
C5 C4 1.405 . S
C5 H31 0.931 . S
U6 O7 2.454 . S
U6 O8 2.458 1_554 S
U6 C9 2.984 . S
U6 C10 2.847 . S
U6 C23 2.882 1_554 S
U6 O24 2.441 . S
U6 O25 2.420 . S
U6 O26 2.455 1_554 S
U6 O27 2.449 1_554 S
O7 U6 2.454 . S
O7 C9 1.353 . S
O8 U6 2.458 1_556 S
O8 C9 1.286 1_556 S
C9 U6 2.984 . S
C9 O7 1.353 . S
C9 O8 1.286 1_554 S
C9 C11 1.363 . S
C10 C0 1.465 . S
C10 U6 2.847 . S
C10 O24 1.249 . S
C10 O25 1.202 . S
C11 C9 1.363 . S
C11 C13 1.408 . S
C11 C16 1.342 1_554 S
C12 C13 1.310 . S
C12 C15 1.461 . S
C12 H32 0.932 . S
C13 C11 1.408 . S
C13 C12 1.310 . S
C13 H33 0.930 . S
C14 C15 1.474 1_556 S
C14 C16 1.285 . S
C14 H34 0.929 . S
C15 C12 1.461 . S
C15 C14 1.474 1_554 S
C16 C11 1.342 1_556 S
C16 C14 1.285 . S
C16 H35 0.930 . S
C17 C20 1.424 . S
C17 C22 1.245 . S
C17 C23 1.428 . S
C18 C21 1.260 . S
C18 C22 1.477 . S
C18 H36 0.932 . S
C19 C20 1.384 . S
C19 C21 1.479 . S
C19 H37 0.929 . S
C20 C17 1.424 . S
C20 C19 1.384 . S
C20 H38 0.928 . S
C21 C18 1.260 . S
C21 C19 1.479 . S
C22 C17 1.245 . S
C22 C18 1.477 . S
C22 H39 0.932 . S
C23 U6 2.882 1_556 S
C23 C17 1.428 . S
C23 O26 1.301 . S
C23 O27 1.282 . S
O24 U6 2.441 . S
O24 C10 1.249 . S
O25 U6 2.420 . S
O25 C10 1.202 . S
O26 U6 2.455 1_556 S
O26 C23 1.301 . S
O27 U6 2.449 1_556 S
O27 C23 1.282 . S
H28 C1 0.931 . S
H29 C3 0.929 . S
H30 C4 0.930 . S
H31 C5 0.931 . S
H32 C12 0.932 . S
H33 C13 0.930 . S
H34 C14 0.929 . S
H35 C16 0.930 . S
H36 C18 0.932 . S
H37 C19 0.929 . S
H38 C20 0.928 . S
H39 C22 0.932 . S
C40 C41 1.264 . S
C40 C45 1.479 . S
C40 C50 1.465 . S
C41 C40 1.264 . S
C41 C43 1.339 . S
C41 H68 0.931 . S
C42 C43 1.395 . S
C42 C44 1.320 . S
C43 C41 1.339 . S
C43 C42 1.395 . S
C43 H69 0.929 . S
C44 C42 1.320 . S
C44 C45 1.405 . S
C44 H70 0.930 . S
C45 C40 1.479 . S
C45 C44 1.405 . S
C45 H71 0.931 . S
U46 O47 2.454 . S
U46 O48 2.458 . S
U46 C49 2.984 . S
U46 C50 2.847 . S
U46 C63 2.882 . S
U46 O64 2.441 . S
U46 O65 2.420 . S
U46 O66 2.455 . S
U46 O67 2.449 . S
O47 U46 2.454 . S
O47 C49 1.353 . S
O48 U46 2.458 . S
O48 C49 1.286 . S
C49 U46 2.984 . S
C49 O47 1.353 . S
C49 O48 1.286 . S
C49 C51 1.363 . S
C50 C40 1.465 . S
C50 U46 2.847 . S
C50 O64 1.249 . S
C50 O65 1.202 . S
C51 C49 1.363 . S
C51 C53 1.408 . S
C51 C56 1.342 . S
C52 C53 1.310 . S
C52 C55 1.461 . S
C52 H72 0.932 . S
C53 C51 1.408 . S
C53 C52 1.310 . S
C53 H73 0.930 . S
C54 C55 1.474 . S
C54 C56 1.285 . S
C54 H74 0.929 . S
C55 C52 1.461 . S
C55 C54 1.474 . S
C56 C51 1.342 . S
C56 C54 1.285 . S
C56 H75 0.930 . S
C57 C60 1.424 . S
C57 C62 1.245 . S
C57 C63 1.428 . S
C58 C61 1.260 . S
C58 C62 1.477 . S
C58 H76 0.932 . S
C59 C60 1.384 . S
C59 C61 1.479 . S
C59 H77 0.929 . S
C60 C57 1.424 . S
C60 C59 1.384 . S
C60 H78 0.928 . S
C61 C58 1.260 . S
C61 C59 1.479 . S
C62 C57 1.245 . S
C62 C58 1.477 . S
C62 H79 0.932 . S
C63 U46 2.882 . S
C63 C57 1.428 . S
C63 O66 1.301 . S
C63 O67 1.282 . S
O64 U46 2.441 . S
O64 C50 1.249 . S
O65 U46 2.420 . S
O65 C50 1.202 . S
O66 U46 2.455 . S
O66 C63 1.301 . S
O67 U46 2.449 . S
O67 C63 1.282 . S
H68 C41 0.931 . S
H69 C43 0.929 . S
H70 C44 0.930 . S
H71 C45 0.931 . S
H72 C52 0.932 . S
H73 C53 0.930 . S
H74 C54 0.929 . S
H75 C56 0.930 . S
H76 C58 0.932 . S
H77 C59 0.929 . S
H78 C60 0.928 . S
H79 C62 0.932 . S
C80 C81 1.264 . S
C80 C85 1.479 . S
C80 C90 1.465 . S
C81 C80 1.264 . S
C81 C83 1.339 . S
C81 H108 0.931 . S
C82 C83 1.395 . S
C82 C84 1.320 . S
C83 C81 1.339 . S
C83 C82 1.395 . S
C83 H109 0.929 . S
C84 C82 1.320 . S
C84 C85 1.405 . S
C84 H110 0.930 . S
C85 C80 1.479 . S
C85 C84 1.405 . S
C85 H111 0.931 . S
U86 O87 2.454 . S
U86 O88 2.458 . S
U86 C89 2.984 . S
U86 C90 2.847 . S
U86 C103 2.882 . S
U86 O104 2.441 . S
U86 O105 2.420 . S
U86 O106 2.455 . S
U86 O107 2.449 . S
O87 U86 2.454 . S
O87 C89 1.353 . S
O88 U86 2.458 . S
O88 C89 1.286 . S
C89 U86 2.984 . S
C89 O87 1.353 . S
C89 O88 1.286 . S
C89 C91 1.363 . S
C90 C80 1.465 . S
C90 U86 2.847 . S
C90 O104 1.249 . S
C90 O105 1.202 . S
C91 C89 1.363 . S
C91 C93 1.408 . S
C91 C96 1.342 . S
C92 C93 1.310 . S
C92 C95 1.461 . S
C92 H112 0.932 . S
C93 C91 1.408 . S
C93 C92 1.310 . S
C93 H113 0.930 . S
C94 C95 1.474 . S
C94 C96 1.285 . S
C94 H114 0.929 . S
C95 C92 1.461 . S
C95 C94 1.474 . S
C96 C91 1.342 . S
C96 C94 1.285 . S
C96 H115 0.930 . S
C97 C100 1.424 . S
C97 C102 1.245 . S
C97 C103 1.428 . S
C98 C101 1.260 . S
C98 C102 1.477 . S
C98 H116 0.932 . S
C99 C100 1.384 . S
C99 C101 1.479 . S
C99 H117 0.929 . S
C100 C97 1.424 . S
C100 C99 1.384 . S
C100 H118 0.928 . S
C101 C98 1.260 . S
C101 C99 1.479 . S
C102 C97 1.245 . S
C102 C98 1.477 . S
C102 H119 0.932 . S
C103 U86 2.882 . S
C103 C97 1.428 . S
C103 O106 1.301 . S
C103 O107 1.282 . S
O104 U86 2.441 . S
O104 C90 1.249 . S
O105 U86 2.420 . S
O105 C90 1.202 . S
O106 U86 2.455 . S
O106 C103 1.301 . S
O107 U86 2.449 . S
O107 C103 1.282 . S
H108 C81 0.931 . S
H109 C83 0.929 . S
H110 C84 0.930 . S
H111 C85 0.931 . S
H112 C92 0.932 . S
H113 C93 0.930 . S
H114 C94 0.929 . S
H115 C96 0.930 . S
H116 C98 0.932 . S
H117 C99 0.929 . S
H118 C100 0.928 . S
H119 C102 0.932 . S
C120 C121 1.264 . S
C120 C125 1.479 . S
C120 C130 1.465 . S
C121 C120 1.264 . S
C121 C123 1.339 . S
C121 H148 0.931 . S
C122 C123 1.395 . S
C122 C124 1.320 . S
C123 C121 1.339 . S
C123 C122 1.395 . S
C123 H149 0.929 . S
C124 C122 1.320 . S
C124 C125 1.405 . S
C124 H150 0.930 . S
C125 C120 1.479 . S
C125 C124 1.405 . S
C125 H151 0.931 . S
U126 O127 2.454 1_554 S
U126 O128 2.458 . S
U126 C129 2.984 . S
U126 C130 2.847 1_554 S
U126 C143 2.882 . S
U126 O144 2.441 1_554 S
U126 O145 2.420 1_554 S
U126 O146 2.455 . S
U126 O147 2.449 . S
O127 U126 2.454 1_556 S
O127 C129 1.353 1_556 S
O128 U126 2.458 . S
O128 C129 1.286 . S
C129 U126 2.984 . S
C129 O127 1.353 1_554 S
C129 O128 1.286 . S
C129 C131 1.363 . S
C130 C120 1.465 . S
C130 U126 2.847 1_556 S
C130 O144 1.249 . S
C130 O145 1.202 . S
C131 C129 1.363 . S
C131 C133 1.408 1_554 S
C131 C136 1.342 . S
C132 C133 1.310 . S
C132 C135 1.461 1_556 S
C132 H152 0.932 . S
C133 C131 1.408 1_556 S
C133 C132 1.310 . S
C133 H153 0.930 . S
C134 C135 1.474 . S
C134 C136 1.285 . S
C134 H154 0.929 . S
C135 C132 1.461 1_554 S
C135 C134 1.474 . S
C136 C131 1.342 . S
C136 C134 1.285 . S
C136 H155 0.930 . S
C137 C140 1.424 . S
C137 C142 1.245 . S
C137 C143 1.428 . S
C138 C141 1.260 . S
C138 C142 1.477 . S
C138 H156 0.932 . S
C139 C140 1.384 . S
C139 C141 1.479 . S
C139 H157 0.929 . S
C140 C137 1.424 . S
C140 C139 1.384 . S
C140 H158 0.928 . S
C141 C138 1.260 . S
C141 C139 1.479 . S
C142 C137 1.245 . S
C142 C138 1.477 . S
C142 H159 0.932 . S
C143 U126 2.882 . S
C143 C137 1.428 . S
C143 O146 1.301 . S
C143 O147 1.282 . S
O144 U126 2.441 1_556 S
O144 C130 1.249 . S
O145 U126 2.420 1_556 S
O145 C130 1.202 . S
O146 U126 2.455 . S
O146 C143 1.301 . S
O147 U126 2.449 . S
O147 C143 1.282 . S
H148 C121 0.931 . S
H149 C123 0.929 . S
H150 C124 0.930 . S
H151 C125 0.931 . S
H152 C132 0.932 . S
H153 C133 0.930 . S
H154 C134 0.929 . S
H155 C136 0.930 . S
H156 C138 0.932 . S
H157 C139 0.929 . S
H158 C140 0.928 . S
H159 C142 0.932 . S
C160 C161 1.264 . S
C160 C165 1.479 . S
C160 C170 1.465 . S
C161 C160 1.264 . S
C161 C163 1.339 . S
C161 H188 0.931 . S
C162 C163 1.395 . S
C162 C164 1.320 . S
C163 C161 1.339 . S
C163 C162 1.395 . S
C163 H189 0.929 . S
C164 C162 1.320 . S
C164 C165 1.405 . S
C164 H190 0.930 . S
C165 C160 1.479 . S
C165 C164 1.405 . S
C165 H191 0.931 . S
U166 O167 2.454 . S
U166 O168 2.458 . S
U166 C169 2.984 . S
U166 C170 2.847 . S
U166 C183 2.882 . S
U166 O184 2.441 . S
U166 O185 2.420 . S
U166 O186 2.455 . S
U166 O187 2.449 . S
O167 U166 2.454 . S
O167 C169 1.353 . S
O168 U166 2.458 . S
O168 C169 1.286 . S
C169 U166 2.984 . S
C169 O167 1.353 . S
C169 O168 1.286 . S
C169 C171 1.363 . S
C170 C160 1.465 . S
C170 U166 2.847 . S
C170 O184 1.249 . S
C170 O185 1.202 . S
C171 C169 1.363 . S
C171 C173 1.408 . S
C171 C176 1.342 . S
C172 C173 1.310 . S
C172 C175 1.461 . S
C172 H192 0.932 . S
C173 C171 1.408 . S
C173 C172 1.310 . S
C173 H193 0.930 . S
C174 C175 1.474 . S
C174 C176 1.285 . S
C174 H194 0.929 . S
C175 C172 1.461 . S
C175 C174 1.474 . S
C176 C171 1.342 . S
C176 C174 1.285 . S
C176 H195 0.930 . S
C177 C180 1.424 . S
C177 C182 1.245 . S
C177 C183 1.428 . S
C178 C181 1.260 . S
C178 C182 1.477 . S
C178 H196 0.932 . S
C179 C180 1.384 . S
C179 C181 1.479 . S
C179 H197 0.929 . S
C180 C177 1.424 . S
C180 C179 1.384 . S
C180 H198 0.928 . S
C181 C178 1.260 . S
C181 C179 1.479 . S
C182 C177 1.245 . S
C182 C178 1.477 . S
C182 H199 0.932 . S
C183 U166 2.882 . S
C183 C177 1.428 . S
C183 O186 1.301 . S
C183 O187 1.282 . S
O184 U166 2.441 . S
O184 C170 1.249 . S
O185 U166 2.420 . S
O185 C170 1.202 . S
O186 U166 2.455 . S
O186 C183 1.301 . S
O187 U166 2.449 . S
O187 C183 1.282 . S
H188 C161 0.931 . S
H189 C163 0.929 . S
H190 C164 0.930 . S
H191 C165 0.931 . S
H192 C172 0.932 . S
H193 C173 0.930 . S
H194 C174 0.929 . S
H195 C176 0.930 . S
H196 C178 0.932 . S
H197 C179 0.929 . S
H198 C180 0.928 . S
H199 C182 0.932 . S
C200 C201 1.264 . S
C200 C205 1.479 . S
C200 C210 1.465 . S
C201 C200 1.264 . S
C201 C203 1.339 . S
C201 H228 0.931 . S
C202 C203 1.395 . S
C202 C204 1.320 . S
C203 C201 1.339 . S
C203 C202 1.395 . S
C203 H229 0.929 . S
C204 C202 1.320 . S
C204 C205 1.405 . S
C204 H230 0.930 . S
C205 C200 1.479 . S
C205 C204 1.405 . S
C205 H231 0.931 . S
U206 O207 2.454 . S
U206 O208 2.458 . S
U206 C209 2.984 . S
U206 C210 2.847 . S
U206 C223 2.882 . S
U206 O224 2.441 . S
U206 O225 2.420 . S
U206 O226 2.455 . S
U206 O227 2.449 . S
O207 U206 2.454 . S
O207 C209 1.353 . S
O208 U206 2.458 . S
O208 C209 1.286 . S
C209 U206 2.984 . S
C209 O207 1.353 . S
C209 O208 1.286 . S
C209 C211 1.363 . S
C210 C200 1.465 . S
C210 U206 2.847 . S
C210 O224 1.249 . S
C210 O225 1.202 . S
C211 C209 1.363 . S
C211 C213 1.408 . S
C211 C216 1.342 . S
C212 C213 1.310 . S
C212 C215 1.461 . S
C212 H232 0.932 . S
C213 C211 1.408 . S
C213 C212 1.310 . S
C213 H233 0.930 . S
C214 C215 1.474 . S
C214 C216 1.285 . S
C214 H234 0.929 . S
C215 C212 1.461 . S
C215 C214 1.474 . S
C216 C211 1.342 . S
C216 C214 1.285 . S
C216 H235 0.930 . S
C217 C220 1.424 . S
C217 C222 1.245 . S
C217 C223 1.428 . S
C218 C221 1.260 . S
C218 C222 1.477 . S
C218 H236 0.932 . S
C219 C220 1.384 . S
C219 C221 1.479 . S
C219 H237 0.929 . S
C220 C217 1.424 . S
C220 C219 1.384 . S
C220 H238 0.928 . S
C221 C218 1.260 . S
C221 C219 1.479 . S
C222 C217 1.245 . S
C222 C218 1.477 . S
C222 H239 0.932 . S
C223 U206 2.882 . S
C223 C217 1.428 . S
C223 O226 1.301 . S
C223 O227 1.282 . S
O224 U206 2.441 . S
O224 C210 1.249 . S
O225 U206 2.420 . S
O225 C210 1.202 . S
O226 U206 2.455 . S
O226 C223 1.301 . S
O227 U206 2.449 . S
O227 C223 1.282 . S
H228 C201 0.931 . S
H229 C203 0.929 . S
H230 C204 0.930 . S
H231 C205 0.931 . S
H232 C212 0.932 . S
H233 C213 0.930 . S
H234 C214 0.929 . S
H235 C216 0.930 . S
H236 C218 0.932 . S
H237 C219 0.929 . S
H238 C220 0.928 . S
H239 C222 0.932 . S
C240 C241 1.386 . S
C240 C242 1.383 . S
C240 H256 0.951 . S
C241 C240 1.386 . S
C241 C245 1.383 1_554 S
C242 C240 1.383 . S
C242 C243 1.402 1_554 S
C242 H257 0.951 . S
C243 C242 1.402 1_556 S
C243 C244 1.375 . S
C243 C246 1.481 . S
C244 C243 1.375 . S
C244 C245 1.367 . S
C244 H258 0.951 . S
C245 C241 1.383 1_556 S
C245 C244 1.367 . S
C245 H259 0.950 . S
C246 C243 1.481 . S
C246 C247 1.297 1_566 S
C246 H260 0.950 . S
C247 C246 1.297 1_544 S
C247 C248 1.479 1_554 S
C247 H261 0.950 . S
C248 C247 1.479 1_556 S
C248 C249 1.372 1_556 S
C248 C254 1.408 . S
C249 C248 1.372 1_554 S
C249 C250 1.369 . S
C249 H262 0.950 . S
C250 C249 1.369 . S
C250 C251 1.392 . S
C250 H263 0.951 . S
C251 C250 1.392 . S
C251 C253 1.384 1_554 S
H252 C254 0.949 . S
C253 C251 1.384 1_556 S
C253 C254 1.385 . S
C253 H255 0.950 . S
C254 C248 1.408 . S
C254 H252 0.949 . S
C254 C253 1.385 . S
H255 C253 0.950 . S
H256 C240 0.951 . S
H257 C242 0.951 . S
H258 C244 0.951 . S
H259 C245 0.950 . S
H260 C246 0.950 . S
H261 C247 0.950 . S
H262 C249 0.950 . S
H263 C250 0.951 . S
C264 C265 1.386 . S
C264 C266 1.383 . S
C264 H280 0.951 . S
C265 C264 1.386 . S
C265 C269 1.383 . S
C266 C264 1.383 . S
C266 C267 1.402 . S
C266 H281 0.951 . S
C267 C266 1.402 . S
C267 C268 1.375 . S
C267 C270 1.481 . S
C268 C267 1.375 . S
C268 C269 1.367 . S
C268 H282 0.951 . S
C269 C265 1.383 . S
C269 C268 1.367 . S
C269 H283 0.950 . S
C270 C267 1.481 . S
C270 C271 1.297 . S
C270 H284 0.950 . S
C271 C270 1.297 . S
C271 C272 1.479 . S
C271 H285 0.950 . S
C272 C271 1.479 . S
C272 C273 1.375 . S
C272 C278 1.404 . S
C273 C272 1.375 . S
C273 C274 1.369 . S
C273 H286 0.950 . S
C274 C273 1.369 . S
C274 C275 1.392 . S
C274 H287 0.951 . S
C275 C274 1.392 . S
C275 C277 1.384 . S
H276 C278 0.949 . S
C277 C275 1.384 . S
C277 C278 1.385 . S
C277 H279 0.950 . S
C278 C272 1.404 . S
C278 H276 0.949 . S
C278 C277 1.385 . S
H279 C277 0.950 . S
H280 C264 0.951 . S
H281 C266 0.951 . S
H282 C268 0.951 . S
H283 C269 0.950 . S
H284 C270 0.950 . S
H285 C271 0.950 . S
H286 C273 0.950 . S
H287 C274 0.951 . S
C288 C289 1.386 . S
C288 C290 1.383 . S
C288 H304 0.951 . S
C289 C288 1.386 . S
C289 C293 1.383 . S
C290 C288 1.383 . S
C290 C291 1.402 . S
C290 H305 0.951 . S
C291 C290 1.402 . S
C291 C292 1.375 . S
C291 C294 1.481 . S
C292 C291 1.375 . S
C292 C293 1.367 . S
C292 H306 0.951 . S
C293 C289 1.383 . S
C293 C292 1.367 . S
C293 H307 0.950 . S
C294 C291 1.481 . S
C294 C295 1.297 1_455 S
C294 H308 0.950 . S
C295 C294 1.297 1_655 S
C295 C296 1.479 . S
C295 H309 0.958 . S
C296 C295 1.479 . S
C296 C297 1.375 . S
C296 C302 1.404 . S
C297 C296 1.375 . S
C297 C298 1.369 . S
C297 H310 0.950 . S
C298 C297 1.369 . S
C298 C299 1.392 . S
C298 H311 0.951 . S
C299 C298 1.392 . S
C299 C301 1.384 . S
H300 C302 0.949 . S
C301 C299 1.384 . S
C301 C302 1.385 . S
C301 H303 0.950 . S
C302 C296 1.404 . S
C302 H300 0.949 . S
C302 C301 1.385 . S
H303 C301 0.950 . S
H304 C288 0.951 . S
H305 C290 0.951 . S
H306 C292 0.951 . S
H307 C293 0.950 . S
H308 C294 0.950 . S
H309 C295 0.958 . S
H310 C297 0.950 . S
H311 C298 0.951 . S
C312 C313 1.386 . S
C312 C314 1.383 . S
C312 H328 0.951 . S
C313 C312 1.386 . S
C313 C317 1.383 . S
C314 C312 1.383 . S
C314 C315 1.402 . S
C314 H329 0.951 . S
C315 C314 1.402 . S
C315 C316 1.375 . S
C315 C318 1.481 . S
C316 C315 1.375 . S
C316 C317 1.367 . S
C316 H330 0.951 . S
C317 C313 1.383 . S
C317 C316 1.367 . S
C317 H331 0.950 . S
C318 C315 1.481 . S
C318 C319 1.297 . S
C318 H332 0.950 . S
C319 C318 1.297 . S
C319 C320 1.479 . S
C319 H333 0.950 . S
C320 C319 1.479 . S
C320 C321 1.375 . S
C320 C326 1.404 . S
C321 C320 1.375 . S
C321 C322 1.369 . S
C321 H334 0.950 . S
C322 C321 1.369 . S
C322 C323 1.392 . S
C322 H335 0.951 . S
C323 C322 1.392 . S
C323 C325 1.384 . S
H324 C326 0.949 . S
C325 C323 1.384 . S
C325 C326 1.385 . S
C325 H327 0.950 . S
C326 C320 1.404 . S
C326 H324 0.949 . S
C326 C325 1.385 . S
H327 C325 0.950 . S
H328 C312 0.951 . S
H329 C314 0.951 . S
H330 C316 0.951 . S
H331 C317 0.950 . S
H332 C318 0.950 . S
H333 C319 0.950 . S
H334 C321 0.950 . S
H335 C322 0.951 . S
C336 C337 1.386 . S
C336 C338 1.383 . S
C336 H352 0.951 . S
C337 C336 1.386 . S
C337 C341 1.383 . S
C338 C336 1.383 . S
C338 C339 1.402 . S
C338 H353 0.951 . S
C339 C338 1.402 . S
C339 C340 1.375 . S
C339 C342 1.481 . S
C340 C339 1.375 . S
C340 C341 1.367 . S
C340 H354 0.951 . S
C341 C337 1.383 . S
C341 C340 1.367 . S
C341 H355 0.950 . S
C342 C339 1.481 . S
C342 C343 1.297 . S
C342 H356 0.950 . S
C343 C342 1.297 . S
C343 C344 1.479 . S
C343 H357 0.950 . S
C344 C343 1.479 . S
C344 C345 1.375 . S
C344 C350 1.404 . S
C345 C344 1.375 . S
C345 C346 1.369 . S
C345 H358 0.950 . S
C346 C345 1.369 . S
C346 C347 1.392 . S
C346 H359 0.951 . S
C347 C346 1.392 . S
C347 C349 1.384 . S
H348 C350 0.949 . S
C349 C347 1.384 . S
C349 C350 1.385 . S
C349 H351 0.950 . S
C350 C344 1.404 . S
C350 H348 0.949 . S
C350 C349 1.385 . S
H351 C349 0.950 . S
H352 C336 0.951 . S
H353 C338 0.951 . S
H354 C340 0.951 . S
H355 C341 0.950 . S
H356 C342 0.950 . S
H357 C343 0.950 . S
H358 C345 0.950 . S
H359 C346 0.951 . S
C360 C361 1.386 . S
C360 C362 1.383 . S
C360 H376 0.951 . S
C361 C360 1.386 . S
C361 C365 1.383 . S
C362 C360 1.383 . S
C362 C363 1.402 . S
C362 H377 0.951 . S
C363 C362 1.402 . S
C363 C364 1.375 . S
C363 C366 1.481 . S
C364 C363 1.375 . S
C364 C365 1.367 . S
C364 H378 0.951 . S
C365 C361 1.383 . S
C365 C364 1.367 . S
C365 H379 0.950 . S
C366 C363 1.481 . S
C366 C367 1.297 1_554 S
C366 H380 0.950 1_554 S
C367 C366 1.297 1_556 S
C367 C368 1.479 . S
C367 H381 0.950 1_556 S
C368 C367 1.479 . S
C368 C369 1.375 . S
C368 C374 1.404 . S
C369 C368 1.375 . S
C369 C370 1.369 . S
C369 H382 0.950 . S
C370 C369 1.369 . S
C370 C371 1.392 . S
C370 H383 0.951 . S
C371 C370 1.392 . S
C371 C373 1.384 . S
H372 C374 0.949 . S
C373 C371 1.384 . S
C373 C374 1.385 . S
C373 H375 0.950 . S
C374 C368 1.404 . S
C374 H372 0.949 . S
C374 C373 1.385 . S
H375 C373 0.950 . S
H376 C360 0.951 . S
H377 C362 0.951 . S
H378 C364 0.951 . S
H379 C365 0.950 . S
H380 C366 0.950 1_556 S
H381 C367 0.950 1_554 S
H382 C369 0.950 . S
H383 C370 0.951 . S
C384 C385 1.386 . S
C384 C386 1.383 . S
C384 H400 0.951 . S
C385 C384 1.386 . S
C385 C389 1.383 . S
C386 C384 1.383 . S
C386 C387 1.402 . S
C386 H401 0.951 . S
C387 C386 1.402 . S
C387 C388 1.375 . S
C387 C390 1.481 . S
C388 C387 1.375 . S
C388 C389 1.367 . S
C388 H402 0.951 . S
C389 C385 1.383 . S
C389 C388 1.367 . S
C389 H403 0.950 . S
C390 C387 1.481 . S
C390 C391 1.297 . S
C390 H404 0.950 . S
C391 C390 1.297 . S
C391 C392 1.479 . S
C391 H405 0.950 . S
C392 C391 1.479 . S
C392 C393 1.375 . S
C392 C398 1.404 . S
C393 C392 1.375 . S
C393 C394 1.369 . S
C393 H406 0.950 . S
C394 C393 1.369 . S
C394 C395 1.392 . S
C394 H407 0.951 . S
C395 C394 1.392 . S
C395 C397 1.384 . S
H396 C398 0.949 . S
C397 C395 1.384 . S
C397 C398 1.385 . S
C397 H399 0.950 . S
C398 C392 1.404 . S
C398 H396 0.949 . S
C398 C397 1.385 . S
H399 C397 0.950 . S
H400 C384 0.951 . S
H401 C386 0.951 . S
H402 C388 0.951 . S
H403 C389 0.950 . S
H404 C390 0.950 . S
H405 C391 0.950 . S
H406 C393 0.950 . S
H407 C394 0.951 . S
C408 C409 1.386 . S
C408 C410 1.383 . S
C408 H424 0.951 . S
C409 C408 1.386 . S
C409 C413 1.383 . S
C410 C408 1.383 . S
C410 C411 1.402 . S
C410 H425 0.951 . S
C411 C410 1.402 . S
C411 C412 1.375 . S
C411 C414 1.481 . S
C412 C411 1.375 . S
C412 C413 1.367 . S
C412 H426 0.951 . S
C413 C409 1.383 . S
C413 C412 1.367 . S
C413 H427 0.950 . S
C414 C411 1.481 . S
C414 C415 1.297 . S
C414 H428 0.950 . S
C415 C414 1.297 . S
C415 C416 1.479 . S
C415 H429 0.950 . S
C416 C415 1.479 . S
C416 C417 1.375 . S
C416 C422 1.404 . S
C417 C416 1.375 . S
C417 C418 1.369 . S
C417 H430 0.950 . S
C418 C417 1.369 . S
C418 C419 1.392 . S
C418 H431 0.951 . S
C419 C418 1.392 . S
C419 C421 1.384 . S
H420 C422 0.949 . S
C421 C419 1.384 . S
C421 C422 1.385 . S
C421 H423 0.950 . S
C422 C416 1.404 . S
C422 H420 0.949 . S
C422 C421 1.385 . S
H423 C421 0.950 . S
H424 C408 0.951 . S
H425 C410 0.951 . S
H426 C412 0.951 . S
H427 C413 0.950 . S
H428 C414 0.950 . S
H429 C415 0.950 . S
H430 C417 0.950 . S
H431 C418 0.951 . S
C432 C433 1.386 . S
C432 C434 1.383 . S
C432 H448 0.951 . S
C433 C432 1.386 . S
C433 C437 1.383 . S
C434 C432 1.383 . S
C434 C435 1.402 . S
C434 H449 0.951 . S
C435 C434 1.402 . S
C435 C436 1.375 . S
C435 C438 1.481 . S
C436 C435 1.375 . S
C436 C437 1.367 . S
C436 H450 0.951 . S
C437 C433 1.383 . S
C437 C436 1.367 . S
C437 H451 0.950 . S
C438 C435 1.481 . S
C438 C439 1.297 1_556 S
C438 H452 0.950 . S
C439 C438 1.297 1_554 S
C439 C440 1.479 . S
C439 H453 0.950 . S
C440 C439 1.479 . S
C440 C441 1.375 . S
C440 C446 1.404 . S
C441 C440 1.375 . S
C441 C442 1.369 . S
C441 H454 0.950 . S
C442 C441 1.369 . S
C442 C443 1.392 . S
C442 H455 0.951 . S
C443 C442 1.392 . S
C443 C445 1.384 . S
H444 C446 0.949 . S
C445 C443 1.384 . S
C445 C446 1.385 . S
C445 H447 0.950 . S
C446 C440 1.404 . S
C446 H444 0.949 . S
C446 C445 1.385 . S
H447 C445 0.950 . S
H448 C432 0.951 . S
H449 C434 0.951 . S
H450 C436 0.951 . S
H451 C437 0.950 . S
H452 C438 0.950 . S
H453 C439 0.950 . S
H454 C441 0.950 . S
H455 C442 0.951 . S
C241 C15 1.496 . S
C251 C135 1.490 . S
C265 C175 1.495 . S
C275 C55 1.490 . S
C289 C95 1.501 . S
C299 C215 1.495 . S
C313 C2 1.469 . S
C323 C82 1.468 . S
C337 C42 1.495 . S
C347 C122 1.483 . S
C361 C162 1.488 . S
C371 C101 1.467 . S
C385 C202 1.492 . S
C395 C141 1.466 . S
C409 C181 1.477 . S
C419 C21 1.467 . S
C433 C221 1.502 . S
C443 C61 1.502 . S
