# Generated by pormake.
# Topology pem, (4)-cn, num edge types: 1
# Building blocks:
#     Node 0, Type 0, BuildingBlock: UXUYUI_clean_sbu_0, # of connection points: 4
#     Node 1, Type 0, BuildingBlock: UXUYUI_clean_sbu_0, # of connection points: 4
#     Node 2, Type 0, BuildingBlock: UXUYUI_clean_sbu_0, # of connection points: 4
#     Node 3, Type 0, BuildingBlock: UXUYUI_clean_sbu_0, # of connection points: 4
#     Node 4, Type 0, BuildingBlock: UXUYUI_clean_sbu_0, # of connection points: 4
#     Node 5, Type 0, BuildingBlock: UXUYUI_clean_sbu_0, # of connection points: 4
#     Node 6, Type 0, BuildingBlock: UXUYUI_clean_sbu_0, # of connection points: 4
#     Node 7, Type 0, BuildingBlock: UXUYUI_clean_sbu_0, # of connection points: 4
#     Node 8, Type 0, BuildingBlock: UXUYUI_clean_sbu_0, # of connection points: 4
#     Node 9, Type 0, BuildingBlock: UXUYUI_clean_sbu_0, # of connection points: 4
#     Node 10, Type 0, BuildingBlock: UXUYUI_clean_sbu_0, # of connection points: 4
#     Node 11, Type 0, BuildingBlock: UXUYUI_clean_sbu_0, # of connection points: 4
#     Node 12, Type 0, BuildingBlock: UXUYUI_clean_sbu_0, # of connection points: 4
#     Node 13, Type 0, BuildingBlock: UXUYUI_clean_sbu_0, # of connection points: 4
#     Node 14, Type 0, BuildingBlock: UXUYUI_clean_sbu_0, # of connection points: 4
#     Node 15, Type 0, BuildingBlock: UXUYUI_clean_sbu_0, # of connection points: 4
#     Node 16, Type 0, BuildingBlock: UXUYUI_clean_sbu_0, # of connection points: 4
#     Node 17, Type 0, BuildingBlock: UXUYUI_clean_sbu_0, # of connection points: 4
#     Node 18, Type 0, BuildingBlock: UXUYUI_clean_sbu_0, # of connection points: 4
#     Node 19, Type 0, BuildingBlock: UXUYUI_clean_sbu_0, # of connection points: 4
#     Node 20, Type 0, BuildingBlock: UXUYUI_clean_sbu_0, # of connection points: 4
#     Node 21, Type 0, BuildingBlock: UXUYUI_clean_sbu_0, # of connection points: 4
#     Node 22, Type 0, BuildingBlock: UXUYUI_clean_sbu_0, # of connection points: 4
#     Node 23, Type 0, BuildingBlock: UXUYUI_clean_sbu_0, # of connection points: 4
#     Node 24, Type 0, BuildingBlock: UXUYUI_clean_sbu_0, # of connection points: 4
#     Node 25, Type 0, BuildingBlock: UXUYUI_clean_sbu_0, # of connection points: 4
#     Node 26, Type 0, BuildingBlock: UXUYUI_clean_sbu_0, # of connection points: 4
#     Node 27, Type 0, BuildingBlock: UXUYUI_clean_sbu_0, # of connection points: 4
#     Node 28, Type 0, BuildingBlock: UXUYUI_clean_sbu_0, # of connection points: 4
#     Node 29, Type 0, BuildingBlock: UXUYUI_clean_sbu_0, # of connection points: 4
#     Node 30, Type 0, BuildingBlock: UXUYUI_clean_sbu_0, # of connection points: 4
#     Node 31, Type 0, BuildingBlock: UXUYUI_clean_sbu_0, # of connection points: 4
#     Edge 32, Type (0, 0), BuildingBlock: XIVTED_clean_linker_0, # of connection points: 2
#     Edge 33, Type (0, 0), BuildingBlock: XIVTED_clean_linker_0, # of connection points: 2
#     Edge 34, Type (0, 0), BuildingBlock: XIVTED_clean_linker_0, # of connection points: 2
#     Edge 35, Type (0, 0), BuildingBlock: XIVTED_clean_linker_0, # of connection points: 2
#     Edge 36, Type (0, 0), BuildingBlock: XIVTED_clean_linker_0, # of connection points: 2
#     Edge 37, Type (0, 0), BuildingBlock: XIVTED_clean_linker_0, # of connection points: 2
#     Edge 38, Type (0, 0), BuildingBlock: XIVTED_clean_linker_0, # of connection points: 2
#     Edge 39, Type (0, 0), BuildingBlock: XIVTED_clean_linker_0, # of connection points: 2
#     Edge 40, Type (0, 0), BuildingBlock: XIVTED_clean_linker_0, # of connection points: 2
#     Edge 41, Type (0, 0), BuildingBlock: XIVTED_clean_linker_0, # of connection points: 2
#     Edge 42, Type (0, 0), BuildingBlock: XIVTED_clean_linker_0, # of connection points: 2
#     Edge 43, Type (0, 0), BuildingBlock: XIVTED_clean_linker_0, # of connection points: 2
#     Edge 44, Type (0, 0), BuildingBlock: XIVTED_clean_linker_0, # of connection points: 2
#     Edge 45, Type (0, 0), BuildingBlock: XIVTED_clean_linker_0, # of connection points: 2
#     Edge 46, Type (0, 0), BuildingBlock: XIVTED_clean_linker_0, # of connection points: 2
#     Edge 47, Type (0, 0), BuildingBlock: XIVTED_clean_linker_0, # of connection points: 2
#     Edge 48, Type (0, 0), BuildingBlock: XIVTED_clean_linker_0, # of connection points: 2
#     Edge 49, Type (0, 0), BuildingBlock: XIVTED_clean_linker_0, # of connection points: 2
#     Edge 50, Type (0, 0), BuildingBlock: XIVTED_clean_linker_0, # of connection points: 2
#     Edge 51, Type (0, 0), BuildingBlock: XIVTED_clean_linker_0, # of connection points: 2
#     Edge 52, Type (0, 0), BuildingBlock: XIVTED_clean_linker_0, # of connection points: 2
#     Edge 53, Type (0, 0), BuildingBlock: XIVTED_clean_linker_0, # of connection points: 2
#     Edge 54, Type (0, 0), BuildingBlock: XIVTED_clean_linker_0, # of connection points: 2
#     Edge 55, Type (0, 0), BuildingBlock: XIVTED_clean_linker_0, # of connection points: 2
#     Edge 56, Type (0, 0), BuildingBlock: XIVTED_clean_linker_0, # of connection points: 2
#     Edge 57, Type (0, 0), BuildingBlock: XIVTED_clean_linker_0, # of connection points: 2
#     Edge 58, Type (0, 0), BuildingBlock: XIVTED_clean_linker_0, # of connection points: 2
#     Edge 59, Type (0, 0), BuildingBlock: XIVTED_clean_linker_0, # of connection points: 2
#     Edge 60, Type (0, 0), BuildingBlock: XIVTED_clean_linker_0, # of connection points: 2
#     Edge 61, Type (0, 0), BuildingBlock: XIVTED_clean_linker_0, # of connection points: 2
#     Edge 62, Type (0, 0), BuildingBlock: XIVTED_clean_linker_0, # of connection points: 2
#     Edge 63, Type (0, 0), BuildingBlock: XIVTED_clean_linker_0, # of connection points: 2
#     Edge 64, Type (0, 0), BuildingBlock: XIVTED_clean_linker_0, # of connection points: 2
#     Edge 65, Type (0, 0), BuildingBlock: XIVTED_clean_linker_0, # of connection points: 2
#     Edge 66, Type (0, 0), BuildingBlock: XIVTED_clean_linker_0, # of connection points: 2
#     Edge 67, Type (0, 0), BuildingBlock: XIVTED_clean_linker_0, # of connection points: 2
#     Edge 68, Type (0, 0), BuildingBlock: XIVTED_clean_linker_0, # of connection points: 2
#     Edge 69, Type (0, 0), BuildingBlock: XIVTED_clean_linker_0, # of connection points: 2
#     Edge 70, Type (0, 0), BuildingBlock: XIVTED_clean_linker_0, # of connection points: 2
#     Edge 71, Type (0, 0), BuildingBlock: XIVTED_clean_linker_0, # of connection points: 2
#     Edge 72, Type (0, 0), BuildingBlock: XIVTED_clean_linker_0, # of connection points: 2
#     Edge 73, Type (0, 0), BuildingBlock: XIVTED_clean_linker_0, # of connection points: 2
#     Edge 74, Type (0, 0), BuildingBlock: XIVTED_clean_linker_0, # of connection points: 2
#     Edge 75, Type (0, 0), BuildingBlock: XIVTED_clean_linker_0, # of connection points: 2
#     Edge 76, Type (0, 0), BuildingBlock: XIVTED_clean_linker_0, # of connection points: 2
#     Edge 77, Type (0, 0), BuildingBlock: XIVTED_clean_linker_0, # of connection points: 2
#     Edge 78, Type (0, 0), BuildingBlock: XIVTED_clean_linker_0, # of connection points: 2
#     Edge 79, Type (0, 0), BuildingBlock: XIVTED_clean_linker_0, # of connection points: 2
#     Edge 80, Type (0, 0), BuildingBlock: XIVTED_clean_linker_0, # of connection points: 2
#     Edge 81, Type (0, 0), BuildingBlock: XIVTED_clean_linker_0, # of connection points: 2
#     Edge 82, Type (0, 0), BuildingBlock: XIVTED_clean_linker_0, # of connection points: 2
#     Edge 83, Type (0, 0), BuildingBlock: XIVTED_clean_linker_0, # of connection points: 2
#     Edge 84, Type (0, 0), BuildingBlock: XIVTED_clean_linker_0, # of connection points: 2
#     Edge 85, Type (0, 0), BuildingBlock: XIVTED_clean_linker_0, # of connection points: 2
#     Edge 86, Type (0, 0), BuildingBlock: XIVTED_clean_linker_0, # of connection points: 2
#     Edge 87, Type (0, 0), BuildingBlock: XIVTED_clean_linker_0, # of connection points: 2
#     Edge 88, Type (0, 0), BuildingBlock: XIVTED_clean_linker_0, # of connection points: 2
#     Edge 89, Type (0, 0), BuildingBlock: XIVTED_clean_linker_0, # of connection points: 2
#     Edge 90, Type (0, 0), BuildingBlock: XIVTED_clean_linker_0, # of connection points: 2
#     Edge 91, Type (0, 0), BuildingBlock: XIVTED_clean_linker_0, # of connection points: 2
#     Edge 92, Type (0, 0), BuildingBlock: XIVTED_clean_linker_0, # of connection points: 2
#     Edge 93, Type (0, 0), BuildingBlock: XIVTED_clean_linker_0, # of connection points: 2
#     Edge 94, Type (0, 0), BuildingBlock: XIVTED_clean_linker_0, # of connection points: 2
#     Edge 95, Type (0, 0), BuildingBlock: XIVTED_clean_linker_0, # of connection points: 2
# Relax obj value: 0.135
# Max RMSD: 0.073
# Mean RMSD: 0.073
data_MOF--net-pem--node1-UXUYUI_clean_sbu_0--edge1-XIVTED_clean_linker_0
_symmetry_space_group_name_H-M    P1
_symmetry_Int_Tables_number       1
_symmetry_cell_setting            triclinic
loop_
_symmetry_equiv_pos_as_xyz
'x, y, z'
_cell_length_a     62.613564
_cell_length_b     62.623854
_cell_length_c     62.571517
_cell_angle_alpha  90.003233
_cell_angle_beta   89.951032
_cell_angle_gamma 89.968733
loop_
_atom_site_label
_atom_site_type_symbol
_atom_site_fract_x
_atom_site_fract_y
_atom_site_fract_z
_atom_type_partial_charge
Li0 Li 0.0656 0.13282 0.11847 0.0
Li1 Li 0.08506 0.09844 0.13224 0.0
Li2 Li 0.09383 0.11606 0.0968 0.0
Li3 Li 0.06059 0.09874 0.10279 0.0
C4 C 0.0977 0.14076 0.14503 0.0
N5 N 0.09293 0.16332 0.18273 0.0
C6 C 0.10377 0.13165 0.16444 0.0
C7 C 0.09029 0.16176 0.14467 0.0
C8 C 0.10127 0.14329 0.18333 0.0
C9 C 0.08731 0.17265 0.16395 0.0
C10 C 0.03418 0.10034 0.13629 0.0
C11 C 0.0087 0.07624 0.15221 0.0
N12 N 0.99256 0.08712 0.14256 0.0
C13 C 0.01734 0.11129 0.12655 0.0
C14 C 0.02985 0.08268 0.14925 0.0
C15 C 0.99642 0.10435 0.12991 0.0
C16 C 0.04105 0.17012 0.10886 0.0
N17 N 0.04753 0.15749 0.12532 0.0
C18 C 0.02499 0.17705 0.14944 0.0
C19 C 0.03956 0.1605 0.14535 0.0
C20 C 0.01823 0.19046 0.13268 0.0
C21 C 0.02665 0.1868 0.11221 0.0
H22 H 0.04623 0.16681 0.09283 0.0
H23 H 0.04428 0.14985 0.15812 0.0
C24 C 0.11236 0.06703 0.1489 0.0
N25 N 0.09556 0.07958 0.1545 0.0
C26 C 0.11885 0.05012 0.16196 0.0
C27 C 0.09153 0.06013 0.18724 0.0
C28 C 0.08547 0.07681 0.17355 0.0
C29 C 0.10811 0.04604 0.18129 0.0
H30 H 0.11983 0.0693 0.13352 0.0
H31 H 0.07229 0.08713 0.17786 0.0
C32 C 0.07093 0.13639 0.06944 0.0
N33 N 0.08399 0.15736 0.03276 0.0
C34 C 0.06819 0.12688 0.0494 0.0
C35 C 0.08037 0.15659 0.07075 0.0
C36 C 0.07492 0.13771 0.03108 0.0
C37 C 0.08678 0.16696 0.05205 0.0
C38 C 0.08579 0.06681 0.09261 0.0
C39 C 0.08033 0.06746 0.07092 0.0
C40 C 0.08712 0.04699 0.10288 0.0
C41 C 0.07653 0.04845 0.0599 0.0
C42 C 0.08321 0.02831 0.0913 0.0
N43 N 0.07804 0.02942 0.07023 0.0
C44 C 0.12289 0.10314 0.06421 0.0
C45 C 0.12737 0.13934 0.07367 0.0
C46 C 0.13819 0.10494 0.04811 0.0
N47 N 0.11729 0.12025 0.07636 0.0
C48 C 0.14324 0.14179 0.05797 0.0
C49 C 0.14879 0.1244 0.04482 0.0
H50 H 0.11587 0.08782 0.06715 0.0
H51 H 0.12283 0.15276 0.08347 0.0
C52 C 0.02851 0.08728 0.07368 0.0
N53 N 0.03899 0.08132 0.09167 0.0
C54 C 0.01757 0.07202 0.06184 0.0
C55 C 0.02596 0.04582 0.08905 0.0
C56 C 0.03659 0.06161 0.10036 0.0
C57 C 0.01769 0.0507 0.06882 0.0
H58 H 0.03007 0.10338 0.0677 0.0
H59 H 0.04489 0.05753 0.11494 0.0
O60 O 0.09752 0.12868 0.12678 0.0
O61 O 0.0548 0.10672 0.13292 0.0
O62 O 0.06473 0.12591 0.08768 0.0
O63 O 0.08943 0.08542 0.10371 0.0
H64 H 0.11016 0.1157 0.16493 0.0
H65 H 0.08628 0.16936 0.12969 0.0
H66 H 0.10566 0.13629 0.19851 0.0
H67 H 0.08067 0.18861 0.16394 0.0
H68 H 1.00513 0.06253 0.16209 0.0
H69 H 0.02041 0.12477 0.11618 0.0
H70 H 0.04268 0.07381 0.15665 0.0
H71 H 0.98324 0.11261 0.12239 0.0
H72 H 0.01897 0.17918 0.16553 0.0
H73 H 0.02147 0.19613 0.09859 0.0
H74 H 0.13155 0.03982 0.15634 0.0
H75 H 0.08311 0.05822 0.20223 0.0
H76 H 0.06095 0.11131 0.04789 0.0
H77 H 0.08314 0.16403 0.08612 0.0
H78 H 0.07292 0.13048 0.0155 0.0
H79 H 0.09421 0.18253 0.0529 0.0
H80 H 0.07886 0.08254 0.06273 0.0
H81 H 0.09065 0.04589 0.11969 0.0
H82 H 0.07225 0.04884 0.04316 0.0
H83 H 0.08413 0.01294 0.09912 0.0
H84 H 0.14236 0.09084 0.03901 0.0
H85 H 0.15092 0.15716 0.05606 0.0
H86 H 0.01078 0.07643 0.04655 0.0
H87 H 0.02641 0.02959 0.095 0.0
Li88 Li 0.1934 0.87038 0.3739 0.0
Li89 Li 0.17345 0.88319 0.33986 0.0
Li90 Li 0.16573 0.84783 0.35858 0.0
Li91 Li 0.19888 0.85401 0.34034 0.0
C92 C 0.16235 0.89491 0.38403 0.0
N93 N 0.16977 0.92928 0.41073 0.0
C94 C 0.15992 0.91574 0.37647 0.0
C95 C 0.16775 0.89155 0.40539 0.0
C96 C 0.16357 0.93291 0.39024 0.0
C97 C 0.17208 0.90913 0.41845 0.0
C98 C 0.22237 0.88878 0.33682 0.0
C99 C 0.24091 0.89857 0.30447 0.0
N100 N 0.25988 0.89624 0.31478 0.0
C101 C 0.24204 0.88648 0.3471 0.0
C102 C 0.22177 0.89485 0.31533 0.0
C103 C 0.26083 0.89032 0.33568 0.0
C104 C 0.21494 0.86091 0.4124 0.0
N105 N 0.21095 0.87725 0.39866 0.0
C106 C 0.23571 0.89952 0.41759 0.0
C107 C 0.2209 0.89643 0.40104 0.0
C108 C 0.24042 0.88266 0.43176 0.0
C109 C 0.22949 0.86328 0.4291 0.0
H110 H 0.20745 0.84568 0.40998 0.0
H111 H 0.21777 0.90913 0.38975 0.0
C112 C 0.14414 0.90134 0.31043 0.0
N113 N 0.16225 0.90563 0.32159 0.0
C114 C 0.13717 0.91507 0.29422 0.0
C115 C 0.16713 0.93802 0.30181 0.0
C116 C 0.17346 0.92386 0.31795 0.0
C117 C 0.14894 0.93357 0.28931 0.0
H118 H 0.13595 0.88644 0.31312 0.0
H119 H 0.18778 0.92704 0.32705 0.0
C120 C 0.19193 0.81853 0.37282 0.0
N121 N 0.18541 0.77588 0.3825 0.0
C122 C 0.19706 0.80265 0.35795 0.0
C123 C 0.18359 0.81258 0.39271 0.0
C124 C 0.19363 0.78122 0.36312 0.0
C125 C 0.18037 0.79098 0.39727 0.0
C126 C 0.17251 0.84533 0.30747 0.0
C127 C 0.17562 0.82332 0.30513 0.0
C128 C 0.17203 0.85823 0.2892 0.0
C129 C 0.17801 0.81462 0.28472 0.0
C130 C 0.17442 0.84892 0.26905 0.0
N131 N 0.17733 0.82748 0.26724 0.0
C132 C 0.13691 0.81435 0.34803 0.0
C133 C 0.13541 0.82391 0.38453 0.0
C134 C 0.12239 0.79777 0.35133 0.0
N135 N 0.14343 0.82688 0.36451 0.0
C136 C 0.12053 0.8076 0.38855 0.0
C137 C 0.11376 0.79423 0.37177 0.0
H138 H 0.14267 0.81739 0.33213 0.0
H139 H 0.14082 0.83398 0.39744 0.0
C140 C 0.23756 0.83331 0.33807 0.0
N141 N 0.22249 0.84256 0.32549 0.0
C142 C 0.25483 0.8228 0.32889 0.0
C143 C 0.24199 0.8337 0.2941 0.0
C144 C 0.22508 0.84409 0.30401 0.0
C145 C 0.25651 0.82201 0.30656 0.0
H146 H 0.23567 0.83337 0.35525 0.0
H147 H 0.21385 0.85291 0.29446 0.0
O148 O 0.16133 0.87803 0.37017 0.0
O149 O 0.20381 0.88464 0.3476 0.0
O150 O 0.19482 0.83972 0.36793 0.0
O151 O 0.16977 0.85415 0.32738 0.0
H152 H 0.15549 0.91869 0.3601 0.0
H153 H 0.16971 0.8755 0.41149 0.0
H154 H 0.16181 0.94912 0.38453 0.0
H155 H 0.17763 0.90675 0.43463 0.0
H156 H 0.24068 0.90313 0.2878 0.0
H157 H 0.24282 0.88147 0.36362 0.0
H158 H 0.20673 0.89615 0.30695 0.0
H159 H 0.27617 0.8885 0.3434 0.0
H160 H 0.24358 0.91483 0.41907 0.0
H161 H 0.2328 0.84965 0.43921 0.0
H162 H 0.12324 0.91061 0.28502 0.0
H163 H 0.17653 0.95227 0.29915 0.0
H164 H 0.2036 0.8067 0.34253 0.0
H165 H 0.17904 0.82451 0.40434 0.0
H166 H 0.1975 0.76884 0.35169 0.0
H167 H 0.17371 0.78625 0.41251 0.0
H168 H 0.17622 0.81298 0.3189 0.0
H169 H 0.17041 0.87531 0.29046 0.0
H170 H 0.18041 0.79762 0.28278 0.0
H171 H 0.17414 0.85877 0.25486 0.0
H172 H 0.11728 0.78843 0.33771 0.0
H173 H 0.11449 0.80548 0.40463 0.0
H174 H 0.26598 0.81432 0.33903 0.0
H175 H 0.24271 0.83358 0.27681 0.0
Li176 Li 0.422 0.91495 0.62928 0.0
Li177 Li 0.44168 0.88158 0.61365 0.0
Li178 Li 0.44561 0.9164 0.59911 0.0
Li179 Li 0.41263 0.89792 0.59349 0.0
C180 C 0.47263 0.91555 0.63136 0.0
N181 N 0.51314 0.93241 0.63592 0.0
C182 C 0.49028 0.90481 0.62287 0.0
C183 C 0.47558 0.93486 0.64216 0.0
C184 C 0.51063 0.91359 0.62535 0.0
C185 C 0.49618 0.94312 0.64429 0.0
C186 C 0.41129 0.8712 0.64032 0.0
C187 C 0.42288 0.83766 0.65511 0.0
N188 N 0.42015 0.84554 0.67516 0.0
C189 C 0.4082 0.87886 0.66104 0.0
C190 C 0.41777 0.85013 0.63733 0.0
C191 C 0.41268 0.86564 0.67846 0.0
C192 C 0.39353 0.94371 0.64903 0.0
N193 N 0.41175 0.93251 0.65267 0.0
C194 C 0.41732 0.95158 0.68538 0.0
C195 C 0.42334 0.93572 0.67075 0.0
C196 C 0.39916 0.96434 0.68145 0.0
C197 C 0.38697 0.95976 0.66312 0.0
H198 H 0.38491 0.94119 0.63434 0.0
H199 H 0.43765 0.92644 0.6735 0.0
C200 C 0.46326 0.84307 0.60209 0.0
N201 N 0.45957 0.8564 0.61887 0.0
C202 C 0.47659 0.82535 0.60421 0.0
C203 C 0.48308 0.83553 0.64081 0.0
C204 C 0.46934 0.85303 0.63801 0.0
C205 C 0.48688 0.8214 0.6237 0.0
H206 H 0.45647 0.84645 0.58673 0.0
H207 H 0.46661 0.86404 0.65106 0.0
C208 C 0.41819 0.94808 0.59132 0.0
N209 N 0.42227 0.98732 0.57124 0.0
C210 C 0.42283 0.94925 0.56946 0.0
C211 C 0.4158 0.96704 0.60293 0.0
C212 C 0.42479 0.96917 0.55961 0.0
C213 C 0.41787 0.98667 0.59251 0.0
C214 C 0.43617 0.88193 0.56336 0.0
C215 C 0.43978 0.89416 0.54498 0.0
C216 C 0.4266 0.86184 0.56131 0.0
C217 C 0.43378 0.88615 0.52503 0.0
C218 C 0.42089 0.85436 0.54108 0.0
N219 N 0.42455 0.86657 0.5235 0.0
C220 C 0.47833 0.92724 0.57086 0.0
C221 C 0.46757 0.95522 0.59399 0.0
C222 C 0.48834 0.94173 0.55736 0.0
N223 N 0.46659 0.93454 0.58755 0.0
C224 C 0.4772 0.97032 0.58091 0.0
C225 C 0.48613 0.96366 0.56146 0.0
H226 H 0.4783 0.91043 0.56697 0.0
H227 H 0.45892 0.96035 0.60802 0.0
C228 C 0.38299 0.90984 0.56129 0.0
N229 N 0.38905 0.89298 0.57355 0.0
C230 C 0.36791 0.90744 0.5451 0.0
C231 C 0.36426 0.87038 0.55491 0.0
C232 C 0.37967 0.87352 0.57092 0.0
C233 C 0.35829 0.88752 0.54162 0.0
H234 H 0.38956 0.92537 0.56418 0.0
H235 H 0.38434 0.86033 0.58104 0.0
O236 O 0.45256 0.90735 0.62879 0.0
O237 O 0.40998 0.88477 0.62324 0.0
O238 O 0.41627 0.92859 0.60128 0.0
O239 O 0.44175 0.88957 0.58318 0.0
H240 H 0.48827 0.89001 0.6142 0.0
H241 H 0.46209 0.94362 0.64844 0.0
H242 H 0.52443 0.90549 0.6188 0.0
H243 H 0.49868 0.95812 0.6525 0.0
H244 H 0.42946 0.82191 0.65295 0.0
H245 H 0.40266 0.89491 0.66371 0.0
H246 H 0.4199 0.84383 0.62137 0.0
H247 H 0.41062 0.8715 0.69459 0.0
H248 H 0.427 0.95388 0.69951 0.0
H249 H 0.37302 0.96909 0.65904 0.0
H250 H 0.47951 0.81536 0.59039 0.0
H251 H 0.49073 0.83316 0.65614 0.0
H252 H 0.42506 0.93492 0.5602 0.0
H253 H 0.41285 0.96678 0.61989 0.0
H254 H 0.42844 0.97018 0.54274 0.0
H255 H 0.41612 1.0014 0.60138 0.0
H256 H 0.4471 0.9097 0.54592 0.0
H257 H 0.42299 0.85234 0.57529 0.0
H258 H 0.43648 0.89552 0.51076 0.0
H259 H 0.41332 0.83892 0.53938 0.0
H260 H 0.4959 0.936 0.54288 0.0
H261 H 0.47542 0.98708 0.5848 0.0
H262 H 0.36329 0.92133 0.53589 0.0
H263 H 0.35715 0.85475 0.55297 0.0
Li264 Li 0.33726 0.12329 0.84545 0.0
Li265 Li 0.31789 0.13767 0.87958 0.0
Li266 Li 0.31397 0.15374 0.84556 0.0
Li267 Li 0.3473 0.15829 0.863 0.0
C268 C 0.28727 0.12105 0.84407 0.0
N269 N 0.24771 0.11624 0.82518 0.0
C270 C 0.26889 0.12816 0.85458 0.0
C271 C 0.28554 0.11141 0.82401 0.0
C272 C 0.24904 0.12561 0.84474 0.0
C273 C 0.26539 0.10914 0.81471 0.0
C274 C 0.3491 0.11021 0.88821 0.0
C275 C 0.33832 0.09226 0.92055 0.0
N276 N 0.34357 0.07318 0.91163 0.0
C277 C 0.35485 0.09048 0.87955 0.0
C278 C 0.34154 0.11118 0.90916 0.0
C279 C 0.35189 0.07193 0.8916 0.0
C280 C 0.36473 0.10509 0.81513 0.0
N281 N 0.34732 0.10039 0.82719 0.0
C282 C 0.34268 0.06751 0.80817 0.0
C283 C 0.33656 0.08174 0.82438 0.0
C284 C 0.36001 0.0725 0.79463 0.0
C285 C 0.37134 0.09145 0.79873 0.0
H286 H 0.37261 0.12025 0.81731 0.0
H287 H 0.32279 0.07825 0.83422 0.0
C288 C 0.29127 0.15031 0.91376 0.0
N289 N 0.29882 0.13248 0.90388 0.0
C290 C 0.27617 0.14891 0.93006 0.0
C291 C 0.27583 0.11069 0.92555 0.0
C292 C 0.29102 0.11286 0.90915 0.0
C293 C 0.26818 0.12894 0.9363 0.0
H294 H 0.29616 0.16585 0.90844 0.0
H295 H 0.29634 0.09892 0.90043 0.0
C296 C 0.33947 0.16176 0.81305 0.0
N297 N 0.33299 0.18236 0.77442 0.0
C298 C 0.33573 0.18379 0.81244 0.0
C299 C 0.33973 0.15024 0.79388 0.0
C300 C 0.33252 0.1939 0.79281 0.0
C301 C 0.33649 0.16093 0.77456 0.0
C302 C 0.32476 0.18692 0.88252 0.0
C303 C 0.32321 0.20636 0.87164 0.0
C304 C 0.3326 0.18665 0.90345 0.0
C305 C 0.32968 0.22514 0.88178 0.0
C306 C 0.33882 0.20579 0.91308 0.0
N307 N 0.33729 0.22448 0.90212 0.0
C308 C 0.28117 0.18274 0.83998 0.0
C309 C 0.28867 0.16217 0.80905 0.0
C310 C 0.26803 0.19625 0.8283 0.0
N311 N 0.29222 0.16707 0.82988 0.0
C312 C 0.27587 0.17537 0.79667 0.0
C313 C 0.26645 0.19339 0.80613 0.0
H314 H 0.2835 0.18551 0.85685 0.0
H315 H 0.29694 0.14897 0.80168 0.0
C316 C 0.37735 0.18992 0.85033 0.0
N317 N 0.37091 0.1783 0.86751 0.0
C318 C 0.39259 0.20603 0.85243 0.0
C319 C 0.39555 0.19742 0.88985 0.0
C320 C 0.37988 0.18163 0.88704 0.0
C321 C 0.40214 0.20994 0.87235 0.0
H322 H 0.37101 0.18651 0.83476 0.0
H323 H 0.37458 0.17233 0.90052 0.0
O324 O 0.30687 0.12372 0.8533 0.0
O325 O 0.34965 0.12827 0.87588 0.0
O326 O 0.34273 0.15158 0.83224 0.0
O327 O 0.31884 0.16824 0.87272 0.0
H328 H 0.26996 0.13582 0.87004 0.0
H329 H 0.29961 0.10614 0.81549 0.0
H330 H 0.23469 0.13114 0.85263 0.0
H331 H 0.26383 0.10185 0.79911 0.0
H332 H 0.33159 0.09274 0.93646 0.0
H333 H 0.36144 0.08945 0.86366 0.0
H334 H 0.33761 0.12639 0.91635 0.0
H335 H 0.35597 0.05652 0.88494 0.0
H336 H 0.33371 0.05289 0.80616 0.0
H337 H 0.3846 0.09633 0.78876 0.0
H338 H 0.27023 0.16355 0.9371 0.0
H339 H 0.27007 0.09492 0.92965 0.0
H340 H 0.33513 0.19299 0.82701 0.0
H341 H 0.34188 0.13317 0.7938 0.0
H342 H 0.32957 0.21091 0.79222 0.0
H343 H 0.3366 0.15215 0.75967 0.0
H344 H 0.31701 0.20705 0.85556 0.0
H345 H 0.33425 0.17174 0.91206 0.0
H346 H 0.32861 0.24027 0.87349 0.0
H347 H 0.34505 0.20575 0.9292 0.0
H348 H 0.26046 0.20965 0.83621 0.0
H349 H 0.275 0.17254 0.77962 0.0
H350 H 0.39752 0.21464 0.83826 0.0
H351 H 0.40226 0.19985 0.9056 0.0
Li352 Li 0.06122 0.90814 0.40558 0.0
Li353 Li 0.09532 0.89162 0.40988 0.0
Li354 Li 0.08549 0.91003 0.37525 0.0
Li355 Li 0.06706 0.87507 0.38836 0.0
C356 C 0.08545 0.94242 0.41266 0.0
N357 N 0.07802 0.98255 0.42976 0.0
C358 C 0.08312 0.94509 0.43475 0.0
C359 C 0.08375 0.96027 0.3993 0.0
C360 C 0.0794 0.96545 0.44307 0.0
C361 C 0.0801 0.98039 0.40824 0.0
C362 C 0.0721 0.87444 0.4396 0.0
C363 C 0.08626 0.84848 0.46438 0.0
N364 N 0.08281 0.86232 0.48076 0.0
C365 C 0.06867 0.88836 0.45675 0.0
C366 C 0.08097 0.8543 0.44349 0.0
C367 C 0.07419 0.88196 0.4774 0.0
C368 C 0.02518 0.90839 0.43089 0.0
N369 N 0.03772 0.92151 0.41897 0.0
C370 C 0.01697 0.95174 0.42892 0.0
C371 C 0.03313 0.94259 0.41677 0.0
C372 C 1.00533 0.93891 0.44315 0.0
C373 C 0.00889 0.91684 0.44339 0.0
H374 H 0.02842 0.89145 0.43139 0.0
H375 H 0.04235 0.95245 0.40611 0.0
C376 C 0.12461 0.90466 0.44168 0.0
N377 N 0.11875 0.88733 0.43 0.0
C378 C 0.13971 0.90293 0.45797 0.0
C379 C 0.14373 0.8656 0.44939 0.0
C380 C 0.12815 0.86801 0.43343 0.0
C381 C 0.14966 0.88323 0.46204 0.0
H382 H 0.1178 0.92002 0.4382 0.0
H383 H 0.12328 0.85439 0.42404 0.0
C384 C 0.03635 0.91167 0.37178 0.0
N385 N 0.99805 0.93281 0.36607 0.0
C386 C 0.01707 0.90127 0.37605 0.0
C387 C 0.03616 0.9328 0.36459 0.0
C388 C 0.99787 0.91225 0.37308 0.0
C389 C 0.01663 0.94321 0.36179 0.0
C390 C 0.09791 0.86708 0.36187 0.0
C391 C 0.10181 0.87544 0.34156 0.0
C392 C 0.09145 0.84587 0.3639 0.0
C393 C 0.09821 0.86273 0.32356 0.0
C394 C 0.08739 0.83386 0.34553 0.0
N395 N 0.09092 0.84242 0.32589 0.0
C396 C 0.11349 0.94056 0.35753 0.0
C397 C 0.08529 0.93174 0.33405 0.0
C398 C 0.12044 0.95678 0.34382 0.0
N399 N 0.09593 0.92874 0.35275 0.0
C400 C 0.09172 0.94779 0.31979 0.0
C401 C 0.1093 0.96098 0.32475 0.0
H402 H 0.12128 0.93828 0.37274 0.0
H403 H 0.07139 0.92212 0.33049 0.0
C404 C 0.04514 0.83663 0.39833 0.0
N405 N 0.04914 0.85031 0.38193 0.0
C406 C 0.03035 0.82012 0.39613 0.0
C407 C 0.02376 0.83178 0.36 0.0
C408 C 0.03881 0.84813 0.36291 0.0
C409 C 0.01911 0.81761 0.37688 0.0
H410 H 0.05277 0.83899 0.41353 0.0
H411 H 0.04185 0.85943 0.35019 0.0
O412 O 0.08951 0.92257 0.4042 0.0
O413 O 0.0672 0.88061 0.41912 0.0
O414 O 0.05532 0.90134 0.37496 0.0
O415 O 0.09877 0.88002 0.37949 0.0
H416 H 0.08408 0.93162 0.44544 0.0
H417 H 0.08464 0.9587 0.38218 0.0
H418 H 0.07759 0.96765 0.46012 0.0
H419 H 0.07872 0.99427 0.39804 0.0
H420 H 0.09332 0.83303 0.46753 0.0
H421 H 0.06183 0.90397 0.45423 0.0
H422 H 0.08439 0.84347 0.43046 0.0
H423 H 0.07164 0.89263 0.49076 0.0
H424 H 0.01466 0.96887 0.42824 0.0
H425 H 0.99993 0.90643 0.45392 0.0
H426 H 0.14416 0.91718 0.46669 0.0
H427 H 0.15082 0.85004 0.45195 0.0
H428 H 0.01694 0.885 0.38186 0.0
H429 H 0.05093 0.94124 0.36162 0.0
H430 H 0.98283 0.90444 0.37642 0.0
H431 H 0.01626 0.95961 0.35636 0.0
H432 H 0.10731 0.89163 0.33967 0.0
H433 H 0.08883 0.83901 0.37955 0.0
H434 H 0.10088 0.86911 0.30772 0.0
H435 H 0.08134 0.81774 0.3469 0.0
H436 H 0.13388 0.9665 0.34868 0.0
H437 H 0.08284 0.9499 0.30512 0.0
H438 H 0.02709 0.81003 0.4098 0.0
H439 H 0.01565 0.83046 0.34479 0.0
Li440 Li 0.31289 0.85119 0.66644 0.0
Li441 Li 0.3449 0.8453 0.64626 0.0
Li442 Li 0.33629 0.88135 0.6636 0.0
Li443 Li 0.31475 0.8657 0.63142 0.0
C444 C 0.34176 0.84303 0.69643 0.0
N445 N 0.34017 0.82205 0.73541 0.0
C446 C 0.33737 0.82113 0.69738 0.0
C447 C 0.34492 0.85427 0.71552 0.0
C448 C 0.33683 0.8108 0.71715 0.0
C449 C 0.3441 0.84339 0.735 0.0
C450 C 0.32088 0.81653 0.62947 0.0
C451 C 0.33381 0.7976 0.59841 0.0
N452 N 0.33252 0.77891 0.60937 0.0
C453 C 0.31965 0.79707 0.64039 0.0
C454 C 0.32808 0.81677 0.6083 0.0
C455 C 0.32563 0.77826 0.62997 0.0
C456 C 0.28312 0.8212 0.68005 0.0
N457 N 0.29333 0.83935 0.68592 0.0
C458 C 0.28605 0.83306 0.72264 0.0
C459 C 0.29311 0.84648 0.70643 0.0
C460 C 0.27899 0.8125 0.71728 0.0
C461 C 0.27566 0.80736 0.69569 0.0
H462 H 0.28272 0.81651 0.66344 0.0
H463 H 0.30093 0.86131 0.71048 0.0
C464 C 0.37538 0.81328 0.65705 0.0
N465 N 0.3683 0.82505 0.64022 0.0
C466 C 0.39075 0.79739 0.65436 0.0
C467 C 0.39264 0.80638 0.61698 0.0
C468 C 0.37677 0.82196 0.62037 0.0
C469 C 0.40003 0.79393 0.63423 0.0
H470 H 0.36954 0.8164 0.67281 0.0
H471 H 0.37132 0.83164 0.60714 0.0
C472 C 0.28561 0.88339 0.66676 0.0
N473 N 0.24574 0.8882 0.68507 0.0
C474 C 0.26767 0.87438 0.65703 0.0
C475 C 0.28328 0.89486 0.68578 0.0
C476 C 0.24764 0.87699 0.66654 0.0
C477 C 0.26299 0.8971 0.69479 0.0
C478 C 0.34529 0.89186 0.61892 0.0
C479 C 0.34971 0.91254 0.62599 0.0
C480 C 0.33815 0.88871 0.59805 0.0
C481 C 0.34614 0.92981 0.61231 0.0
C482 C 0.33419 0.90642 0.58505 0.0
N483 N 0.33831 0.92643 0.59235 0.0
C484 C 0.36556 0.90055 0.69173 0.0
C485 C 0.33621 0.92306 0.68436 0.0
C486 C 0.3727 0.91431 0.70781 0.0
N487 N 0.34733 0.90475 0.68077 0.0
C488 C 0.34279 0.93737 0.70032 0.0
C489 C 0.36103 0.93287 0.71278 0.0
H490 H 0.37368 0.8856 0.68909 0.0
H491 H 0.32177 0.9262 0.67541 0.0
C492 C 0.28715 0.8531 0.59764 0.0
N493 N 0.29516 0.87077 0.60743 0.0
C494 C 0.27248 0.85486 0.58097 0.0
C495 C 0.2733 0.8931 0.58515 0.0
C496 C 0.28805 0.89057 0.60188 0.0
C497 C 0.26535 0.87504 0.57433 0.0
H498 H 0.29152 0.83744 0.60316 0.0
H499 H 0.29384 0.90443 0.61041 0.0
O500 O 0.34276 0.85336 0.67704 0.0
O501 O 0.31538 0.83525 0.63948 0.0
O502 O 0.30536 0.88081 0.65779 0.0
O503 O 0.34668 0.87499 0.63275 0.0
H504 H 0.33435 0.81218 0.68297 0.0
H505 H 0.34756 0.87125 0.71549 0.0
H506 H 0.33363 0.79385 0.71797 0.0
H507 H 0.34648 0.85196 0.74982 0.0
H508 H 0.33949 0.79763 0.58207 0.0
H509 H 0.31413 0.79636 0.65672 0.0
H510 H 0.32957 0.83168 0.59967 0.0
H511 H 0.32477 0.76313 0.63828 0.0
H512 H 0.28867 0.83771 0.7391 0.0
H513 H 0.26947 0.7919 0.69101 0.0
H514 H 0.39564 0.78823 0.66819 0.0
H515 H 0.39948 0.80462 0.60118 0.0
H516 H 0.2692 0.86525 0.64244 0.0
H517 H 0.29702 0.90165 0.69371 0.0
H518 H 0.23363 0.87004 0.65923 0.0
H519 H 0.26097 0.90584 0.70957 0.0
H520 H 0.35565 0.91527 0.64192 0.0
H521 H 0.33488 0.87277 0.59222 0.0
H522 H 0.34927 0.94592 0.61768 0.0
H523 H 0.32752 0.90428 0.56928 0.0
H524 H 0.38665 0.90974 0.71692 0.0
H525 H 0.33344 0.95166 0.70299 0.0
H526 H 0.26626 0.84039 0.57385 0.0
H527 H 0.26823 0.90903 0.58075 0.0
Li528 Li 0.41741 0.11152 0.90883 0.0
Li529 Li 0.45121 0.09488 0.90469 0.0
Li530 Li 0.44628 0.12822 0.88759 0.0
Li531 Li 0.42764 0.09331 0.8741 0.0
C532 C 0.43959 0.1317 0.9372 0.0
N533 N 0.42689 0.15038 0.9752 0.0
C534 C 0.44135 0.12046 0.95643 0.0
C535 C 0.43141 0.15249 0.93736 0.0
C536 C 0.4348 0.13015 0.97545 0.0
C537 C 0.42512 0.16166 0.95672 0.0
C538 C 0.42691 0.06144 0.91254 0.0
C539 C 0.4316 0.02318 0.91067 0.0
N540 N 0.43472 0.02257 0.93216 0.0
C541 C 0.43029 0.06036 0.93462 0.0
C542 C 0.4277 0.04264 0.90046 0.0
C543 C 0.43418 0.04061 0.94423 0.0
C544 C 0.38775 0.09814 0.94038 0.0
N545 N 0.39375 0.11559 0.92894 0.0
C546 C 0.36867 0.13714 0.94849 0.0
C547 C 0.38435 0.13487 0.93258 0.0
C548 C 0.36257 0.11936 0.96085 0.0
C549 C 0.37254 0.09972 0.95662 0.0
H550 H 0.39449 0.08279 0.93677 0.0
H551 H 0.38931 0.14856 0.9234 0.0
C552 C 0.4851 0.09232 0.9329 0.0
N553 N 0.47381 0.08069 0.91848 0.0
C554 C 0.50002 0.08236 0.94595 0.0
C555 C 0.49314 0.04924 0.92727 0.0
C556 C 0.47847 0.0599 0.91452 0.0
C557 C 0.5033 0.06032 0.94391 0.0
H558 H 0.48186 0.10914 0.9349 0.0
H559 H 0.47006 0.0513 0.9022 0.0
C560 C 0.41522 0.13606 0.86055 0.0
N561 N 0.4211 0.15997 0.82387 0.0
C562 C 0.41055 0.12735 0.84056 0.0
C563 C 0.42199 0.15723 0.86194 0.0
C564 C 0.41359 0.13968 0.8222 0.0
C565 C 0.42542 0.16887 0.84319 0.0
C566 C 0.47737 0.09246 0.87155 0.0
C567 C 0.49591 0.10323 0.87772 0.0
C568 C 0.47887 0.07196 0.86284 0.0
C569 C 0.51569 0.09322 0.87519 0.0
C570 C 0.49895 0.06251 0.86056 0.0
N571 N 0.51679 0.07324 0.86674 0.0
C572 C 0.47204 0.16371 0.89881 0.0
C573 C 0.47311 0.15669 0.86173 0.0
C574 C 0.48732 0.17977 0.89669 0.0
N575 N 0.46495 0.15264 0.88151 0.0
C576 C 0.48848 0.17278 0.85883 0.0
C577 C 0.49595 0.18454 0.87653 0.0
H578 H 0.46667 0.15949 0.91457 0.0
H579 H 0.468 0.14716 0.84825 0.0
C580 C 0.40007 0.06259 0.85631 0.0
N581 N 0.41754 0.07454 0.85149 0.0
C582 C 0.39316 0.04637 0.84259 0.0
C583 C 0.42171 0.05564 0.81842 0.0
C584 C 0.42814 0.07165 0.83273 0.0
C585 C 0.40421 0.04233 0.82342 0.0
H586 H 0.39229 0.06483 0.87153 0.0
H587 H 0.44194 0.08139 0.82911 0.0
O588 O 0.44556 0.12232 0.9183 0.0
O589 O 0.42287 0.0807 0.90284 0.0
O590 O 0.41458 0.12353 0.87847 0.0
O591 O 0.45784 0.10182 0.87427 0.0
H592 H 0.44775 0.10445 0.95674 0.0
H593 H 0.42952 0.16133 0.9226 0.0
H594 H 0.43603 0.12159 0.99041 0.0
H595 H 0.41864 0.17767 0.95702 0.0
H596 H 0.4323 0.00857 0.90146 0.0
H597 H 0.43006 0.07465 0.94426 0.0
H598 H 0.42585 0.04298 0.88334 0.0
H599 H 0.43683 0.03964 0.96128 0.0
H600 H 0.36155 0.15268 0.95117 0.0
H601 H 0.36798 0.08538 0.96514 0.0
H602 H 0.50796 0.09152 0.95829 0.0
H603 H 0.49517 0.0322 0.92513 0.0
H604 H 0.40476 0.11121 0.83918 0.0
H605 H 0.42529 0.16435 0.87733 0.0
H606 H 0.41021 0.13303 0.80661 0.0
H607 H 0.43167 0.18494 0.84401 0.0
H608 H 0.49501 0.11904 0.88465 0.0
H609 H 0.46467 0.06325 0.85833 0.0
H610 H 0.53016 0.10131 0.88002 0.0
H611 H 0.50035 0.04658 0.85399 0.0
H612 H 0.49296 0.18769 0.91099 0.0
H613 H 0.49457 0.17579 0.84292 0.0
H614 H 0.37981 0.03658 0.84751 0.0
H615 H 0.43049 0.05369 0.80364 0.0
Li616 Li 0.16774 0.15607 0.14506 0.0
Li617 Li 0.20069 0.14926 0.16326 0.0
Li618 Li 0.19609 0.13434 0.12866 0.0
Li619 Li 0.17587 0.12 0.16228 0.0
C620 C 0.19321 0.18521 0.1295 0.0
N621 N 0.18509 0.22644 0.1158 0.0
C622 C 0.19723 0.20257 0.14297 0.0
C623 C 0.1853 0.18893 0.10893 0.0
C624 C 0.19295 0.22326 0.13579 0.0
C625 C 0.18125 0.20985 0.10233 0.0
C626 C 0.17391 0.15778 0.1955 0.0
C627 C 0.17499 0.15549 0.23404 0.0
N628 N 0.1786 0.17686 0.23516 0.0
C629 C 0.1777 0.17974 0.19713 0.0
C630 C 0.17264 0.14556 0.21419 0.0
C631 C 0.18002 0.18908 0.21726 0.0
C632 C 0.13804 0.18857 0.15704 0.0
N633 N 0.14507 0.17708 0.14001 0.0
C634 C 0.12175 0.19693 0.11683 0.0
C635 C 0.13713 0.18091 0.12013 0.0
C636 C 0.1144 0.20925 0.1342 0.0
C637 C 0.12312 0.20495 0.15447 0.0
H638 H 0.1436 0.18481 0.17283 0.0
H639 H 0.14305 0.17178 0.10677 0.0
C640 C 0.23702 0.17359 0.16917 0.0
N641 N 0.22311 0.16066 0.17963 0.0
C642 C 0.25144 0.18588 0.18068 0.0
C643 C 0.2389 0.16895 0.21311 0.0
C644 C 0.225 0.15679 0.20088 0.0
C645 C 0.25125 0.18475 0.20308 0.0
H646 H 0.23596 0.17537 0.15202 0.0
H647 H 0.21485 0.1452 0.20856 0.0
C648 C 0.16418 0.10943 0.11816 0.0
N649 N 0.16833 0.0746 0.09132 0.0
C650 C 0.15967 0.0889 0.12561 0.0
C651 C 0.17015 0.11231 0.09687 0.0
C652 C 0.16169 0.07152 0.11177 0.0
C653 C 0.17272 0.09445 0.08371 0.0
C654 C 0.2257 0.11544 0.16401 0.0
C655 C 0.24457 0.12035 0.15312 0.0
C656 C 0.2267 0.10709 0.1847 0.0
C657 C 0.26417 0.11686 0.16318 0.0
C658 C 0.24661 0.10382 0.19419 0.0
N659 N 0.26478 0.10874 0.18333 0.0
C660 C 0.22188 0.1466 0.09386 0.0
C661 C 0.22138 0.1091 0.098 0.0
C662 C 0.23667 0.14507 0.07728 0.0
N663 N 0.21427 0.12885 0.10379 0.0
C664 C 0.23624 0.10679 0.0813 0.0
C665 C 0.24419 0.125 0.07069 0.0
H666 H 0.21724 0.16218 0.09934 0.0
H667 H 0.21578 0.09517 0.10656 0.0
C668 C 0.147 0.10171 0.19162 0.0
N669 N 0.16488 0.09715 0.18018 0.0
C670 C 0.14019 0.08827 0.20812 0.0
C671 C 0.16976 0.06488 0.20018 0.0
C672 C 0.17598 0.07884 0.18379 0.0
C673 C 0.1518 0.06963 0.213 0.0
H674 H 0.13901 0.11674 0.18906 0.0
H675 H 0.19021 0.0755 0.17456 0.0
O676 O 0.19697 0.16472 0.13635 0.0
O677 O 0.17147 0.14836 0.17582 0.0
O678 O 0.16402 0.12638 0.13196 0.0
O679 O 0.20635 0.11913 0.15459 0.0
H680 H 0.20367 0.20023 0.15879 0.0
H681 H 0.18193 0.17573 0.09827 0.0
H682 H 0.19592 0.23679 0.14612 0.0
H683 H 0.17492 0.21288 0.08653 0.0
H684 H 0.17413 0.14615 0.24857 0.0
H685 H 0.17885 0.18951 0.183 0.0
H686 H 0.17045 0.12852 0.21351 0.0
H687 H 0.18296 0.20604 0.21865 0.0
H688 H 0.11586 0.19968 0.10081 0.0
H689 H 0.11764 0.21331 0.16858 0.0
H690 H 0.26129 0.19739 0.17233 0.0
H691 H 0.23841 0.16732 0.23033 0.0
H692 H 0.15476 0.08637 0.14193 0.0
H693 H 0.17358 0.12813 0.0908 0.0
H694 H 0.15825 0.05555 0.11739 0.0
H695 H 0.17838 0.09635 0.06749 0.0
H696 H 0.24409 0.12703 0.13719 0.0
H697 H 0.21226 0.10363 0.19353 0.0
H698 H 0.2789 0.12067 0.15498 0.0
H699 H 0.24762 0.09751 0.21025 0.0
H700 H 0.24275 0.15966 0.07029 0.0
H701 H 0.24152 0.09094 0.07687 0.0
H702 H 0.12658 0.09319 0.21757 0.0
H703 H 0.17917 0.05064 0.20295 0.0
Li704 Li 0.59806 0.39365 0.91065 0.0
Li705 Li 0.56387 0.40995 0.90618 0.0
Li706 Li 0.56966 0.37661 0.88929 0.0
Li707 Li 0.58788 0.41171 0.87568 0.0
C708 C 0.57494 0.37572 0.94011 0.0
N709 N 0.58562 0.36199 0.98075 0.0
C710 C 0.57139 0.38892 0.95779 0.0
C711 C 0.58386 0.35547 0.94318 0.0
C712 C 0.57692 0.38172 0.97818 0.0
C713 C 0.58915 0.34882 0.96383 0.0
C714 C 0.58767 0.44418 0.91334 0.0
C715 C 0.58204 0.48219 0.90965 0.0
N716 N 0.57949 0.48385 0.93117 0.0
C717 C 0.58482 0.44633 0.93543 0.0
C718 C 0.58606 0.46231 0.90035 0.0
C719 C 0.58075 0.46647 0.94412 0.0
C720 C 0.62701 0.40698 0.94274 0.0
N721 N 0.6215 0.38955 0.93103 0.0
C722 C 0.64687 0.3683 0.95056 0.0
C723 C 0.63124 0.37039 0.93454 0.0
C724 C 0.65252 0.38609 0.96313 0.0
C725 C 0.64216 0.40556 0.95904 0.0
H726 H 0.61995 0.42222 0.93925 0.0
H727 H 0.62682 0.35669 0.92502 0.0
C728 C 0.52788 0.40978 0.9313 0.0
N729 N 0.54027 0.42313 0.9195 0.0
C730 C 0.51112 0.41786 0.94341 0.0
C731 C 0.51865 0.4529 0.92898 0.0
C732 C 0.53527 0.4441 0.91717 0.0
C733 C 0.50697 0.43981 0.94296 0.0
H734 H 0.53145 0.39291 0.93188 0.0
H735 H 0.54442 0.45413 0.90661 0.0
C736 C 0.6006 0.36869 0.86276 0.0
N737 N 0.59358 0.34388 0.82691 0.0
C738 C 0.60448 0.37696 0.84241 0.0
C739 C 0.59415 0.34749 0.86491 0.0
C740 C 0.60087 0.36417 0.82448 0.0
C741 C 0.59007 0.3354 0.84659 0.0
C742 C 0.53874 0.41279 0.87241 0.0
C743 C 0.51958 0.40214 0.87659 0.0
C744 C 0.53831 0.4339 0.86517 0.0
C745 C 0.50025 0.41285 0.87349 0.0
C746 C 0.51866 0.44404 0.86225 0.0
N747 N 0.50019 0.4334 0.86645 0.0
C748 C 0.54589 0.33965 0.90055 0.0
C749 C 0.54231 0.3483 0.86397 0.0
C750 C 0.53078 0.32337 0.89868 0.0
N751 N 0.55147 0.35178 0.88339 0.0
C752 C 0.52714 0.33199 0.86132 0.0
C753 C 0.52091 0.31936 0.87892 0.0
H754 H 0.55241 0.34316 0.91604 0.0
H755 H 0.54644 0.35848 0.85062 0.0
C756 C 0.61465 0.44309 0.85701 0.0
N757 N 0.59762 0.43038 0.85265 0.0
C758 C 0.62083 0.45927 0.84286 0.0
C759 C 0.59251 0.44837 0.81919 0.0
C760 C 0.58681 0.43244 0.83391 0.0
C761 C 0.60948 0.46249 0.82372 0.0
H762 H 0.62258 0.44156 0.87223 0.0
H763 H 0.57332 0.42215 0.83066 0.0
O764 O 0.57 0.38265 0.91991 0.0
O765 O 0.59209 0.42457 0.90454 0.0
O766 O 0.60138 0.38174 0.88029 0.0
O767 O 0.55782 0.40272 0.87572 0.0
H768 H 0.56438 0.40456 0.95589 0.0
H769 H 0.58713 0.34513 0.9297 0.0
H770 H 0.57428 0.39181 0.99195 0.0
H771 H 0.59621 0.33327 0.96637 0.0
H772 H 0.58074 0.49628 0.89973 0.0
H773 H 0.58565 0.43262 0.94581 0.0
H774 H 0.58735 0.46112 0.88323 0.0
H775 H 0.57854 0.46827 0.96118 0.0
H776 H 0.65437 0.35293 0.95308 0.0
H777 H 0.64635 0.41989 0.96776 0.0
H778 H 0.50214 0.40725 0.95372 0.0
H779 H 0.51589 0.46996 0.92816 0.0
H780 H 0.60999 0.39315 0.84044 0.0
H781 H 0.59148 0.34071 0.88059 0.0
H782 H 0.60354 0.37049 0.80861 0.0
H783 H 0.58389 0.31935 0.84802 0.0
H784 H 0.51964 0.38587 0.8824 0.0
H785 H 0.55299 0.44252 0.86226 0.0
H786 H 0.48529 0.40484 0.87676 0.0
H787 H 0.51809 0.46042 0.85678 0.0
H788 H 0.52626 0.31468 0.91293 0.0
H789 H 0.52021 0.32952 0.84567 0.0
H790 H 0.63381 0.46969 0.84745 0.0
H791 H 0.5835 0.44967 0.80449 0.0
Li792 Li 0.81052 0.35475 0.16853 0.0
Li793 Li 0.84453 0.35113 0.15148 0.0
Li794 Li 0.83293 0.38603 0.16913 0.0
Li795 Li 0.81489 0.37105 0.13462 0.0
C796 C 0.83753 0.34749 0.20115 0.0
N797 N 0.83436 0.3265 0.23996 0.0
C798 C 0.83588 0.32522 0.20186 0.0
C799 C 0.83759 0.35904 0.22029 0.0
C800 C 0.83427 0.31491 0.22159 0.0
C801 C 0.836 0.34815 0.23972 0.0
C802 C 0.82209 0.32094 0.13275 0.0
C803 C 0.8355 0.29975 0.10337 0.0
N804 N 0.83387 0.28189 0.11561 0.0
C805 C 0.82052 0.3023 0.14498 0.0
C806 C 0.82965 0.3196 0.11173 0.0
C807 C 0.82657 0.28276 0.13606 0.0
C808 C 0.77908 0.32429 0.17523 0.0
N809 N 0.78962 0.34063 0.18475 0.0
C810 C 0.77745 0.33004 0.21908 0.0
C811 C 0.78739 0.34484 0.20591 0.0
C812 C 0.76948 0.31115 0.21005 0.0
C813 C 0.7688 0.30912 0.18773 0.0
H814 H 0.78024 0.32204 0.15814 0.0
H815 H 0.79504 0.35862 0.21286 0.0
C816 C 0.87779 0.32302 0.16595 0.0
N817 N 0.86908 0.33196 0.14816 0.0
C818 C 0.89352 0.30725 0.16432 0.0
C819 C 0.89255 0.31116 0.12603 0.0
C820 C 0.8765 0.32659 0.12848 0.0
C821 C 0.9012 0.30103 0.14415 0.0
H822 H 0.87274 0.32817 0.18155 0.0
H823 H 0.86948 0.33389 0.11466 0.0
C824 C 0.78265 0.38613 0.16947 0.0
N825 N 0.74241 0.38856 0.18739 0.0
C826 C 0.7649 0.37882 0.15811 0.0
C827 C 0.77995 0.39472 0.1899 0.0
C828 C 0.74468 0.38018 0.16746 0.0
C829 C 0.75947 0.39579 0.1987 0.0
C830 C 0.84412 0.39819 0.12525 0.0
C831 C 0.84297 0.41913 0.13286 0.0
C832 C 0.84126 0.39427 0.10351 0.0
C833 C 0.83895 0.43581 0.11862 0.0
C834 C 0.83688 0.41133 0.0898 0.0
N835 N 0.83582 0.43158 0.09756 0.0
C836 C 0.86119 0.40504 0.19832 0.0
C837 C 0.83044 0.42611 0.19244 0.0
C838 C 0.86774 0.4184 0.21499 0.0
N839 N 0.84257 0.40872 0.18781 0.0
C840 C 0.83647 0.44006 0.20888 0.0
C841 C 0.85515 0.43609 0.22086 0.0
H842 H 0.87027 0.39088 0.19462 0.0
H843 H 0.81577 0.42887 0.18375 0.0
C844 C 0.79156 0.35948 0.09716 0.0
N845 N 0.79738 0.3767 0.10909 0.0
C846 C 0.77797 0.36167 0.07961 0.0
C847 C 0.7753 0.39929 0.08724 0.0
C848 C 0.78927 0.39639 0.10459 0.0
C849 C 0.76945 0.38173 0.07444 0.0
H850 H 0.79661 0.34376 0.10173 0.0
H851 H 0.79337 0.40982 0.11467 0.0
O852 O 0.83904 0.35788 0.18189 0.0
O853 O 0.81635 0.34035 0.14127 0.0
O854 O 0.80259 0.38465 0.16071 0.0
O855 O 0.8461 0.3815 0.13924 0.0
H856 H 0.83594 0.31597 0.18733 0.0
H857 H 0.83835 0.37625 0.22025 0.0
H858 H 0.83292 0.29771 0.22229 0.0
H859 H 0.83591 0.35694 0.2546 0.0
H860 H 0.84155 0.29859 0.08721 0.0
H861 H 0.81464 0.30277 0.16117 0.0
H862 H 0.83163 0.33383 0.10212 0.0
H863 H 0.82543 0.26827 0.1454 0.0
H864 H 0.77811 0.33235 0.23622 0.0
H865 H 0.76211 0.29506 0.18019 0.0
H866 H 0.90013 0.30059 0.17885 0.0
H867 H 0.89775 0.30694 0.11008 0.0
H868 H 0.76674 0.37198 0.14233 0.0
H869 H 0.79356 0.40009 0.19907 0.0
H870 H 0.73079 0.37452 0.15889 0.0
H871 H 0.75717 0.40227 0.21456 0.0
H872 H 0.8451 0.42257 0.14957 0.0
H873 H 0.84126 0.37808 0.09754 0.0
H874 H 0.83812 0.45209 0.12434 0.0
H875 H 0.8337 0.40843 0.07315 0.0
H876 H 0.88212 0.41431 0.22364 0.0
H877 H 0.8265 0.4538 0.21208 0.0
H878 H 0.7734 0.34752 0.07078 0.0
H879 H 0.76902 0.41507 0.084 0.0
Li880 Li 0.91758 0.61348 0.41693 0.0
Li881 Li 0.94784 0.58886 0.41128 0.0
Li882 Li 0.9477 0.6261 0.39519 0.0
Li883 Li 0.92365 0.59619 0.38114 0.0
C884 C 0.94508 0.62421 0.44619 0.0
N885 N 0.93742 0.63838 0.48731 0.0
C886 C 0.94867 0.61068 0.46357 0.0
C887 C 0.93778 0.64503 0.44972 0.0
C888 C 0.94465 0.61813 0.48424 0.0
C889 C 0.93395 0.65187 0.47063 0.0
C890 C 0.90799 0.56349 0.4124 0.0
C891 C 0.9077 0.52515 0.40798 0.0
N892 N 0.88863 0.52415 0.41832 0.0
C893 C 0.88831 0.56201 0.42283 0.0
C894 C 0.91767 0.54484 0.40481 0.0
C895 C 0.87882 0.54204 0.42576 0.0
C896 C 0.89457 0.60577 0.45503 0.0
N897 N 0.89674 0.62032 0.43905 0.0
C898 C 0.8697 0.6423 0.45506 0.0
C899 C 0.88517 0.6387 0.43918 0.0
C900 C 0.86621 0.62688 0.47109 0.0
C901 C 0.87925 0.60857 0.47103 0.0
H902 H 0.90449 0.59163 0.45508 0.0
H903 H 0.88783 0.65043 0.42686 0.0
C904 C 0.98235 0.56067 0.41255 0.0
N905 N 0.96401 0.56661 0.4225 0.0
C906 C 0.99113 0.54064 0.41654 0.0
C907 C 0.96316 0.53443 0.44256 0.0
C908 C 0.95485 0.55445 0.43791 0.0
C909 C 0.98104 0.52698 0.43118 0.0
H910 H 0.98941 0.57092 0.4006 0.0
H911 H 0.94029 0.55975 0.44559 0.0
C912 C 0.91589 0.63988 0.36943 0.0
N913 N 0.92053 0.66334 0.33228 0.0
C914 C 0.9079 0.63208 0.35011 0.0
C915 C 0.92497 0.66019 0.37006 0.0
C916 C 0.91054 0.64411 0.33147 0.0
C917 C 0.92774 0.67155 0.35103 0.0
C918 C 0.96586 0.58802 0.36523 0.0
C919 C 0.97721 0.59993 0.35014 0.0
C920 C 0.96502 0.5658 0.36307 0.0
C921 C 0.98719 0.58955 0.33307 0.0
C922 C 0.97523 0.55597 0.34582 0.0
N923 N 0.98599 0.56796 0.33126 0.0
C924 C 0.97702 0.65823 0.40821 0.0
C925 C 0.97388 0.65685 0.37062 0.0
C926 C 0.99199 0.67474 0.40676 0.0
N927 N 0.96807 0.64965 0.39034 0.0
C928 C 0.98881 0.67337 0.36842 0.0
C929 C 0.99819 0.68255 0.38665 0.0
H930 H 0.97289 0.65206 0.42373 0.0
H931 H 0.9667 0.65007 0.3565 0.0
C932 C 0.89362 0.56731 0.36261 0.0
N933 N 0.91117 0.57919 0.35786 0.0
C934 C 0.88692 0.55085 0.34907 0.0
C935 C 0.91496 0.56058 0.32455 0.0
C936 C 0.92115 0.57682 0.33867 0.0
C937 C 0.89809 0.54671 0.33 0.0
H938 H 0.88531 0.56989 0.37746 0.0
H939 H 0.93447 0.58698 0.33457 0.0
O940 O 0.94828 0.617 0.42579 0.0
O941 O 0.91734 0.5831 0.4093 0.0
O942 O 0.91545 0.62748 0.38747 0.0
O943 O 0.95565 0.59807 0.38188 0.0
H944 H 0.95437 0.59457 0.46114 0.0
H945 H 0.93473 0.65565 0.43641 0.0
H946 H 0.94725 0.60779 0.49784 0.0
H947 H 0.92812 0.66786 0.47358 0.0
H948 H 0.91516 0.51065 0.40225 0.0
H949 H 0.88026 0.57619 0.42831 0.0
H950 H 0.9328 0.54543 0.39677 0.0
H951 H 0.86359 0.54078 0.43383 0.0
H952 H 0.86047 0.65691 0.45462 0.0
H953 H 0.87728 0.59611 0.48284 0.0
H954 H 1.00507 0.5356 0.40762 0.0
H955 H 0.95537 0.52472 0.45457 0.0
H956 H 0.89977 0.61694 0.34946 0.0
H957 H 0.93038 0.66687 0.38504 0.0
H958 H 0.90487 0.6381 0.31631 0.0
H959 H 0.93564 0.6869 0.35117 0.0
H960 H 0.9784 0.61699 0.35153 0.0
H961 H 0.95655 0.5562 0.37446 0.0
H962 H 0.99592 0.59868 0.32127 0.0
H963 H 0.97456 0.53881 0.344 0.0
H964 H 0.99906 0.6809 0.42129 0.0
H965 H 0.99285 0.67898 0.35255 0.0
H966 H 0.87369 0.54095 0.35409 0.0
H967 H 0.92358 0.5588 0.30967 0.0
Li968 Li 0.81831 0.63442 0.3794 0.0
Li969 Li 0.83675 0.62092 0.34485 0.0
Li970 Li 0.84624 0.6562 0.3633 0.0
Li971 Li 0.81244 0.65122 0.34623 0.0
C972 C 0.84791 0.61028 0.38986 0.0
N973 N 0.83837 0.5796 0.42011 0.0
C974 C 0.84527 0.58899 0.38378 0.0
C975 C 0.8461 0.61592 0.41136 0.0
C976 C 0.84051 0.5737 0.3993 0.0
C977 C 0.84113 0.6002 0.42642 0.0
C978 C 0.78718 0.61782 0.34371 0.0
C979 C 0.76626 0.60876 0.31268 0.0
N980 N 0.7481 0.61282 0.3239 0.0
C981 C 0.76832 0.62189 0.35496 0.0
C982 C 0.78618 0.6112 0.32241 0.0
C983 C 0.74871 0.61928 0.34465 0.0
C984 C 0.79623 0.64405 0.41784 0.0
N985 N 0.80126 0.62753 0.40465 0.0
C986 C 0.77795 0.60443 0.42448 0.0
C987 C 0.79239 0.60791 0.40766 0.0
C988 C 0.77229 0.62138 0.4382 0.0
C989 C 0.78194 0.64132 0.43476 0.0
H990 H 0.80249 0.65971 0.41473 0.0
H991 H 0.79609 0.5951 0.39667 0.0
C992 C 0.86546 0.60173 0.31541 0.0
N993 N 0.84705 0.59812 0.32635 0.0
C994 C 0.87179 0.58812 0.2988 0.0
C995 C 0.84079 0.5664 0.30583 0.0
C996 C 0.835 0.58055 0.32222 0.0
C997 C 0.85923 0.57025 0.29342 0.0
H998 H 0.87448 0.61602 0.31863 0.0
H999 H 0.82046 0.57786 0.33117 0.0
C1000 C 0.82223 0.68559 0.38017 0.0
N1001 N 0.83189 0.72681 0.39287 0.0
C1002 C 0.8185 0.70281 0.36643 0.0
C1003 C 0.83083 0.68945 0.40044 0.0
C1004 C 0.82351 0.72349 0.37311 0.0
C1005 C 0.8356 0.71037 0.40656 0.0
C1006 C 0.83782 0.65858 0.31244 0.0
C1007 C 0.83487 0.68061 0.31005 0.0
C1008 C 0.83758 0.64553 0.29429 0.0
C1009 C 0.83193 0.68918 0.28966 0.0
C1010 C 0.83464 0.65471 0.27416 0.0
N1011 N 0.8319 0.67617 0.27227 0.0
C1012 C 0.87542 0.68871 0.35074 0.0
C1013 C 0.87814 0.68021 0.38741 0.0
C1014 C 0.89031 0.70515 0.35298 0.0
N1015 N 0.86931 0.67677 0.36783 0.0
C1016 C 0.89348 0.6963 0.39035 0.0
C1017 C 0.89981 0.70904 0.37293 0.0
H1018 H 0.86902 0.68533 0.33518 0.0
H1019 H 0.87298 0.67068 0.4008 0.0
C1020 C 0.77606 0.67605 0.34466 0.0
N1021 N 0.78929 0.66433 0.33206 0.0
C1022 C 0.76032 0.68874 0.3355 0.0
C1023 C 0.77039 0.67485 0.30085 0.0
C1024 C 0.78583 0.66237 0.31074 0.0
C1025 C 0.75819 0.68907 0.31321 0.0
H1026 H 0.77844 0.67637 0.36177 0.0
H1027 H 0.79556 0.65182 0.30124 0.0
O1028 O 0.85003 0.62578 0.37462 0.0
O1029 O 0.80652 0.62069 0.35339 0.0
O1030 O 0.81779 0.6651 0.37376 0.0
O1031 O 0.84105 0.64988 0.33232 0.0
H1032 H 0.84644 0.58435 0.3672 0.0
H1033 H 0.84726 0.63248 0.41611 0.0
H1034 H 0.83831 0.55717 0.39478 0.0
H1035 H 0.83889 0.60442 0.443 0.0
H1036 H 0.76525 0.60378 0.29615 0.0
H1037 H 0.76882 0.62726 0.37139 0.0
H1038 H 0.80062 0.60846 0.31331 0.0
H1039 H 0.73399 0.62247 0.35313 0.0
H1040 H 0.77107 0.58871 0.42649 0.0
H1041 H 0.77778 0.65507 0.44439 0.0
H1042 H 0.88597 0.59218 0.2898 0.0
H1043 H 0.8308 0.55261 0.30297 0.0
H1044 H 0.81182 0.70033 0.35074 0.0
H1045 H 0.83441 0.67639 0.41118 0.0
H1046 H 0.82073 0.7369 0.36258 0.0
H1047 H 0.84244 0.7135 0.42211 0.0
H1048 H 0.83475 0.69103 0.32377 0.0
H1049 H 0.83916 0.62845 0.29563 0.0
H1050 H 0.82962 0.70618 0.28767 0.0
H1051 H 0.83437 0.64475 0.26004 0.0
H1052 H 0.89509 0.71405 0.33893 0.0
H1053 H 0.90031 0.69871 0.40606 0.0
H1054 H 0.75082 0.69911 0.3456 0.0
H1055 H 0.76923 0.67449 0.28359 0.0
Li1056 Li 0.67632 0.38235 0.843 0.0
Li1057 Li 0.69542 0.3681 0.87709 0.0
Li1058 Li 0.7019 0.35337 0.84294 0.0
Li1059 Li 0.66802 0.3465 0.85979 0.0
C1060 C 0.72489 0.38849 0.84093 0.0
N1061 N 0.76205 0.39749 0.81888 0.0
C1062 C 0.7447 0.38607 0.85092 0.0
C1063 C 0.72398 0.39545 0.81973 0.0
C1064 C 0.76331 0.3907 0.83949 0.0
C1065 C 0.74294 0.39994 0.80886 0.0
C1066 C 0.66363 0.39353 0.88609 0.0
C1067 C 0.67448 0.40976 0.91928 0.0
N1068 N 0.67039 0.42939 0.91099 0.0
C1069 C 0.65897 0.41382 0.87809 0.0
C1070 C 0.67044 0.39145 0.90718 0.0
C1071 C 0.66252 0.43176 0.8909 0.0
C1072 C 0.6478 0.40006 0.81317 0.0
N1073 N 0.66514 0.40509 0.82518 0.0
C1074 C 0.66861 0.43845 0.80679 0.0
C1075 C 0.67525 0.42414 0.82268 0.0
C1076 C 0.65142 0.43315 0.79324 0.0
C1077 C 0.6407 0.41378 0.79705 0.0
H1078 H 0.64045 0.38459 0.81508 0.0
H1079 H 0.68897 0.42789 0.83249 0.0
C1080 C 0.71392 0.35641 0.91643 0.0
N1081 N 0.7124 0.37316 0.90271 0.0
C1082 C 0.72772 0.3571 0.93387 0.0
C1083 C 0.73816 0.39264 0.9233 0.0
C1084 C 0.72401 0.39125 0.90596 0.0
C1085 C 0.74048 0.37518 0.93732 0.0
H1086 H 0.70476 0.34221 0.91359 0.0
H1087 H 0.72278 0.40433 0.89472 0.0
C1088 C 0.67637 0.34585 0.80894 0.0
N1089 N 0.68185 0.32941 0.76818 0.0
C1090 C 0.6789 0.32386 0.80582 0.0
C1091 C 0.67685 0.35945 0.79118 0.0
C1092 C 0.68163 0.31587 0.78516 0.0
C1093 C 0.67953 0.35084 0.77075 0.0
C1094 C 0.69387 0.31612 0.87273 0.0
C1095 C 0.69978 0.30146 0.85692 0.0
C1096 C 0.6848 0.30854 0.89173 0.0
C1097 C 0.69646 0.27967 0.86029 0.0
C1098 C 0.6817 0.28663 0.8945 0.0
N1099 N 0.68755 0.27275 0.87885 0.0
C1100 C 0.74074 0.33284 0.84096 0.0
C1101 C 0.729 0.34456 0.80695 0.0
C1102 C 0.75783 0.32203 0.83178 0.0
N1103 N 0.72601 0.34258 0.82834 0.0
C1104 C 0.74574 0.33389 0.79705 0.0
C1105 C 0.7597 0.32147 0.80946 0.0
H1106 H 0.73854 0.33251 0.8581 0.0
H1107 H 0.7181 0.35379 0.79742 0.0
C1108 C 0.63897 0.31416 0.84685 0.0
N1109 N 0.64541 0.32566 0.8641 0.0
C1110 C 0.62411 0.29769 0.84902 0.0
C1111 C 0.62179 0.3056 0.88668 0.0
C1112 C 0.63695 0.32184 0.88378 0.0
C1113 C 0.61509 0.29325 0.8691 0.0
H1114 H 0.64495 0.31801 0.83123 0.0
H1115 H 0.64215 0.33125 0.8973 0.0
O1116 O 0.70651 0.38365 0.8517 0.0
O1117 O 0.66343 0.37612 0.87283 0.0
O1118 O 0.67324 0.35397 0.8291 0.0
O1119 O 0.69675 0.33767 0.86964 0.0
H1120 H 0.74573 0.38037 0.8672 0.0
H1121 H 0.70884 0.39689 0.81157 0.0
H1122 H 0.77876 0.38882 0.84698 0.0
H1123 H 0.74246 0.40522 0.79241 0.0
H1124 H 0.681 0.40836 0.93521 0.0
H1125 H 0.65291 0.41578 0.86211 0.0
H1126 H 0.6733 0.37581 0.91388 0.0
H1127 H 0.65937 0.44758 0.88474 0.0
H1128 H 0.67712 0.45338 0.80501 0.0
H1129 H 0.62758 0.40863 0.78706 0.0
H1130 H 0.72853 0.34342 0.94442 0.0
H1131 H 0.74779 0.40687 0.92516 0.0
H1132 H 0.67873 0.31298 0.81916 0.0
H1133 H 0.67583 0.37652 0.79304 0.0
H1134 H 0.68357 0.2989 0.78263 0.0
H1135 H 0.67999 0.36124 0.75695 0.0
H1136 H 0.70678 0.30671 0.84208 0.0
H1137 H 0.67954 0.31944 0.90404 0.0
H1138 H 0.70094 0.26825 0.84811 0.0
H1139 H 0.67448 0.28067 0.90904 0.0
H1140 H 0.7686 0.31304 0.84191 0.0
H1141 H 0.74664 0.33405 0.77977 0.0
H1142 H 0.61902 0.28924 0.83482 0.0
H1143 H 0.61542 0.30279 0.90252 0.0
Li1144 Li 0.91351 0.89249 0.90833 0.0
Li1145 Li 0.94561 0.87982 0.88715 0.0
Li1146 Li 0.94851 0.90957 0.90985 0.0
Li1147 Li 0.92888 0.91465 0.87659 0.0
C1148 C 0.95205 0.87356 0.93467 0.0
N1149 N 0.97628 0.86087 0.96928 0.0
C1150 C 0.97407 0.8706 0.93244 0.0
C1151 C 0.94233 0.86999 0.95446 0.0
C1152 C 0.98604 0.8642 0.95014 0.0
C1153 C 0.95487 0.86359 0.97178 0.0
C1154 C 0.91915 0.87196 0.85884 0.0
C1155 C 0.93264 0.86742 0.82297 0.0
N1156 N 0.93428 0.84606 0.82636 0.0
C1157 C 0.92048 0.84993 0.86178 0.0
C1158 C 0.92501 0.88071 0.83916 0.0
C1159 C 0.92843 0.83712 0.84526 0.0
C1160 C 0.87909 0.90405 0.93459 0.0
N1161 N 0.88936 0.88646 0.92713 0.0
C1162 C 0.86844 0.86431 0.95058 0.0
C1163 C 0.88439 0.86673 0.93485 0.0
C1164 C 0.85783 0.88242 0.95888 0.0
C1165 C 0.86377 0.90249 0.95075 0.0
H1166 H 0.88238 0.9194 0.92758 0.0
H1167 H 0.89309 0.85292 0.92917 0.0
C1168 C 0.9775 0.85607 0.86414 0.0
N1169 N 0.9627 0.85482 0.87998 0.0
C1170 C 0.99234 0.83963 0.86109 0.0
C1171 C 0.97597 0.82035 0.89015 0.0
C1172 C 0.96146 0.83719 0.89265 0.0
C1173 C 0.99202 0.82148 0.87442 0.0
H1174 H 0.97819 0.87013 0.85425 0.0
H1175 H 0.94958 0.83647 0.90519 0.0
C1176 C 0.92014 0.94364 0.91569 0.0
N1177 N 0.91888 0.98364 0.9347 0.0
C1178 C 0.92458 0.96204 0.90378 0.0
C1179 C 0.91468 0.94584 0.93729 0.0
C1180 C 0.92397 0.98203 0.91365 0.0
C1181 C 0.91425 0.9661 0.94662 0.0
C1182 C 0.97218 0.9235 0.8721 0.0
C1183 C 0.97181 0.94378 0.88138 0.0
C1184 C 0.98497 0.91996 0.8541 0.0
C1185 C 0.9839 0.96023 0.87241 0.0
C1186 C 0.99684 0.93681 0.84556 0.0
N1187 N 0.99605 0.95644 0.8548 0.0
C1188 C 0.98783 0.92501 0.92721 0.0
C1189 C 0.9583 0.92185 0.95068 0.0
C1190 C 1.00027 0.9336 0.94352 0.0
N1191 N 0.96692 0.92048 0.93085 0.0
C1192 C 0.97002 0.93032 0.96738 0.0
C1193 C 0.99106 0.93701 0.9637 0.0
H1194 H 0.99481 0.92219 0.91168 0.0
H1195 H 0.94225 0.91634 0.95349 0.0
C1196 C 0.90214 0.94618 0.85682 0.0
N1197 N 0.9207 0.93517 0.85413 0.0
C1198 C 0.89583 0.96185 0.84211 0.0
C1199 C 0.92747 0.95425 0.82152 0.0
C1200 C 0.93324 0.9389 0.83674 0.0
C1201 C 0.9086 0.96627 0.82409 0.0
H1202 H 0.89256 0.94325 0.87087 0.0
H1203 H 0.94762 0.92972 0.83438 0.0
O1204 O 0.94008 0.8802 0.91763 0.0
O1205 O 0.91481 0.88508 0.87581 0.0
O1206 O 0.92022 0.92384 0.90605 0.0
O1207 O 0.9601 0.90722 0.8804 0.0
H1208 H 0.98186 0.87351 0.91727 0.0
H1209 H 0.92533 0.87235 0.95649 0.0
H1210 H 1.00311 0.86196 0.94868 0.0
H1211 H 0.94758 0.86086 0.98722 0.0
H1212 H 0.93743 0.87413 0.80778 0.0
H1213 H 0.91693 0.84307 0.8772 0.0
H1214 H 0.92403 0.8976 0.83646 0.0
H1215 H 0.93078 0.82023 0.84772 0.0
H1216 H 0.86491 0.84847 0.95649 0.0
H1217 H 0.85585 0.91697 0.95586 0.0
H1218 H 1.00447 0.84166 0.84894 0.0
H1219 H 0.97476 0.80677 0.90073 0.0
H1220 H 0.92878 0.96103 0.8871 0.0
H1221 H 0.91082 0.9321 0.94695 0.0
H1222 H 0.92757 0.99628 0.90456 0.0
H1223 H 0.91018 0.96788 0.96333 0.0
H1224 H 0.96275 0.94665 0.8957 0.0
H1225 H 0.98545 0.90451 0.84647 0.0
H1226 H 0.98372 0.97596 0.87954 0.0
H1227 H 0.00663 0.93429 0.83153 0.0
H1228 H 0.01666 0.93807 0.94025 0.0
H1229 H 0.96224 0.93257 0.98268 0.0
H1230 H 0.8813 0.9707 0.84517 0.0
H1231 H 0.93762 0.95634 0.80767 0.0
Li1232 Li 0.81343 0.1577 0.6638 0.0
Li1233 Li 0.83544 0.12441 0.66164 0.0
Li1234 Li 0.84661 0.15783 0.64166 0.0
Li1235 Li 0.81536 0.13837 0.62882 0.0
C1236 C 0.85366 0.15906 0.69086 0.0
N1237 N 0.87552 0.1714 0.7273 0.0
C1238 C 0.87117 0.14727 0.69807 0.0
C1239 C 0.8478 0.17764 0.70189 0.0
C1240 C 0.88182 0.15357 0.71664 0.0
C1241 C 0.85892 0.18351 0.7203 0.0
C1242 C 0.79149 0.11242 0.66465 0.0
C1243 C 0.78079 0.07542 0.66431 0.0
N1244 N 0.76701 0.07936 0.68066 0.0
C1245 C 0.77705 0.11615 0.68129 0.0
C1246 C 0.79324 0.09194 0.65597 0.0
C1247 C 0.76488 0.09921 0.68922 0.0
C1248 C 0.78622 0.19064 0.67665 0.0
N1249 N 0.79642 0.1726 0.68293 0.0
C1250 C 0.79234 0.1815 0.71959 0.0
C1251 C 0.79822 0.16704 0.70381 0.0
C1252 C 0.78437 0.20155 0.71354 0.0
C1253 C 0.77998 0.20555 0.69189 0.0
H1254 H 0.78471 0.19431 0.65983 0.0
H1255 H 0.80641 0.15244 0.70812 0.0
C1256 C 0.8651 0.09463 0.68088 0.0
N1257 N 0.84477 0.10226 0.68188 0.0
C1258 C 0.87301 0.08109 0.6968 0.0
C1259 C 0.83894 0.08287 0.71454 0.0
C1260 C 0.83183 0.09684 0.69853 0.0
C1261 C 0.85988 0.07471 0.71392 0.0
H1262 H 0.87548 0.09971 0.66803 0.0
H1263 H 0.81617 0.10388 0.69989 0.0
C1264 C 0.82277 0.19029 0.62943 0.0
N1265 N 0.83455 0.23164 0.61916 0.0
C1266 C 0.82414 0.19667 0.60806 0.0
C1267 C 0.82744 0.20504 0.64555 0.0
C1268 C 0.8301 0.21761 0.60319 0.0
C1269 C 0.83334 0.22584 0.64006 0.0
C1270 C 0.84315 0.10878 0.61846 0.0
C1271 C 0.83672 0.11091 0.59729 0.0
C1272 C 0.84437 0.08833 0.62737 0.0
C1273 C 0.82915 0.09307 0.58621 0.0
C1274 C 0.8379 0.07065 0.6154 0.0
N1275 N 0.8301 0.07341 0.59533 0.0
C1276 C 0.87666 0.19002 0.65129 0.0
C1277 C 0.87773 0.18098 0.6147 0.0
C1278 C 0.8918 0.206 0.64832 0.0
N1279 N 0.86998 0.17762 0.63478 0.0
C1280 C 0.89313 0.19698 0.61093 0.0
C1281 C 0.9005 0.20979 0.62798 0.0
H1282 H 0.86995 0.188 0.66688 0.0
H1283 H 0.8717 0.17156 0.60156 0.0
C1284 C 0.77726 0.12251 0.60784 0.0
N1285 N 0.79571 0.13361 0.60468 0.0
C1286 C 0.76192 0.121 0.59159 0.0
C1287 C 0.78476 0.14207 0.56886 0.0
C1288 C 0.79941 0.14358 0.58565 0.0
C1289 C 0.76563 0.13084 0.57177 0.0
H1290 H 0.77407 0.11531 0.62317 0.0
H1291 H 0.81377 0.1528 0.58341 0.0
O1292 O 0.84279 0.15286 0.67281 0.0
O1293 O 0.80394 0.1287 0.65708 0.0
O1294 O 0.81774 0.16959 0.63458 0.0
O1295 O 0.84653 0.12663 0.63076 0.0
H1296 H 0.87673 0.13362 0.68925 0.0
H1297 H 0.8351 0.18774 0.69613 0.0
H1298 H 0.89521 0.14436 0.7225 0.0
H1299 H 0.85443 0.19778 0.72896 0.0
H1300 H 0.78206 0.05948 0.65777 0.0
H1301 H 0.77525 0.13192 0.68806 0.0
H1302 H 0.80398 0.08885 0.64285 0.0
H1303 H 0.75374 0.10185 0.70218 0.0
H1304 H 0.79598 0.17781 0.7361 0.0
H1305 H 0.77329 0.22064 0.68672 0.0
H1306 H 0.88938 0.07585 0.69567 0.0
H1307 H 0.8283 0.07916 0.72766 0.0
H1308 H 0.82081 0.18562 0.5953 0.0
H1309 H 0.82703 0.20037 0.66213 0.0
H1310 H 0.83127 0.22268 0.58671 0.0
H1311 H 0.83712 0.2373 0.65242 0.0
H1312 H 0.83741 0.12628 0.58961 0.0
H1313 H 0.84952 0.08597 0.64352 0.0
H1314 H 0.82291 0.09481 0.57018 0.0
H1315 H 0.83855 0.05482 0.62229 0.0
H1316 H 0.89696 0.21489 0.66221 0.0
H1317 H 0.89892 0.19941 0.59482 0.0
H1318 H 0.74725 0.11231 0.59451 0.0
H1319 H 0.78802 0.15023 0.55396 0.0
Li1320 Li 0.56674 0.13046 0.38635 0.0
Li1321 Li 0.59668 0.11465 0.40726 0.0
Li1322 Li 0.58608 0.09617 0.37294 0.0
Li1323 Li 0.56266 0.09616 0.40379 0.0
C1324 C 0.59759 0.13689 0.35725 0.0
N1325 N 0.58971 0.15426 0.31737 0.0
C1326 C 0.58775 0.15676 0.35537 0.0
C1327 C 0.60492 0.12662 0.33884 0.0
C1328 C 0.58322 0.16496 0.33511 0.0
C1329 C 0.60059 0.13553 0.31881 0.0
C1330 C 0.57139 0.13121 0.43775 0.0
C1331 C 0.56897 0.12638 0.47601 0.0
N1332 N 0.57842 0.14568 0.479 0.0
C1333 C 0.58099 0.15105 0.4413 0.0
C1334 C 0.56527 0.11882 0.45534 0.0
C1335 C 0.58445 0.15806 0.46221 0.0
C1336 C 0.53348 0.15517 0.36504 0.0
N1337 N 0.54809 0.15534 0.38111 0.0
C1338 C 0.53442 0.18898 0.39351 0.0
C1339 C 0.54883 0.17199 0.39506 0.0
C1340 C 0.51845 0.18891 0.37771 0.0
C1341 C 0.51838 0.17166 0.36316 0.0
H1342 H 0.53324 0.14202 0.35389 0.0
H1343 H 0.56056 0.17216 0.40754 0.0
C1344 C 0.6289 0.10303 0.43738 0.0
N1345 N 0.62081 0.12013 0.42666 0.0
C1346 C 0.64484 0.10558 0.45276 0.0
C1347 C 0.64501 0.14334 0.44543 0.0
C1348 C 0.62885 0.14005 0.43019 0.0
C1349 C 0.65322 0.12588 0.4569 0.0
H1350 H 0.62339 0.08721 0.43378 0.0
H1351 H 0.62253 0.15347 0.42142 0.0
C1352 C 0.54158 0.08809 0.36595 0.0
N1353 N 0.51468 0.05746 0.34897 0.0
C1354 C 0.54803 0.06675 0.36487 0.0
C1355 C 0.52124 0.09377 0.35871 0.0
C1356 C 0.53427 0.05152 0.35619 0.0
C1357 C 0.50794 0.07808 0.35007 0.0
C1358 C 0.59061 0.06533 0.4137 0.0
C1359 C 0.59258 0.04515 0.40425 0.0
C1360 C 0.58734 0.06672 0.43577 0.0
C1361 C 0.59125 0.02687 0.41699 0.0
C1362 C 0.58607 0.0481 0.44797 0.0
N1363 N 0.58803 0.02871 0.43841 0.0
C1364 C 0.61312 0.06474 0.3555 0.0
C1365 C 0.5862 0.07462 0.33099 0.0
C1366 C 0.61992 0.04818 0.34211 0.0
N1367 N 0.59625 0.07725 0.35011 0.0
C1368 C 0.59251 0.05823 0.31701 0.0
C1369 C 0.60934 0.04434 0.32267 0.0
H1370 H 0.6206 0.06692 0.37088 0.0
H1371 H 0.57282 0.08476 0.3269 0.0
C1372 C 0.52558 0.09308 0.42728 0.0
N1373 N 0.54031 0.08102 0.41684 0.0
C1374 C 0.51014 0.08332 0.43992 0.0
C1375 C 0.52351 0.04897 0.42823 0.0
C1376 C 0.53876 0.05942 0.41601 0.0
C1377 C 0.5097 0.06099 0.44117 0.0
H1378 H 0.52667 0.11031 0.4268 0.0
H1379 H 0.54985 0.05018 0.40666 0.0
O1380 O 0.59822 0.12673 0.37665 0.0
O1381 O 0.5679 0.1241 0.41726 0.0
O1382 O 0.55514 0.10327 0.37398 0.0
O1383 O 0.59189 0.08356 0.40152 0.0
H1384 H 0.58391 0.1659 0.36944 0.0
H1385 H 0.61368 0.11184 0.33999 0.0
H1386 H 0.57502 0.18009 0.33354 0.0
H1387 H 0.60561 0.12744 0.30439 0.0
H1388 H 0.56433 0.11687 0.48968 0.0
H1389 H 0.58635 0.16075 0.42809 0.0
H1390 H 0.55778 0.10347 0.45322 0.0
H1391 H 0.59208 0.17329 0.46508 0.0
H1392 H 0.53588 0.20197 0.4048 0.0
H1393 H 0.50643 0.1704 0.35076 0.0
H1394 H 0.65074 0.09168 0.46121 0.0
H1395 H 0.65115 0.15929 0.44807 0.0
H1396 H 0.56345 0.06191 0.37086 0.0
H1397 H 0.51572 0.11008 0.35973 0.0
H1398 H 0.53916 0.03497 0.35524 0.0
H1399 H 0.49222 0.0823 0.34426 0.0
H1400 H 0.59469 0.04342 0.38725 0.0
H1401 H 0.5861 0.08207 0.44345 0.0
H1402 H 0.59265 0.01121 0.40983 0.0
H1403 H 0.58358 0.04907 0.46505 0.0
H1404 H 0.6328 0.03797 0.34744 0.0
H1405 H 0.5841 0.05636 0.30202 0.0
H1406 H 0.49952 0.09304 0.44953 0.0
H1407 H 0.52368 0.03168 0.42879 0.0
Li1408 Li 0.67767 0.87918 0.16548 0.0
Li1409 Li 0.70243 0.84803 0.16433 0.0
Li1410 Li 0.69676 0.8669 0.13226 0.0
Li1411 Li 0.66778 0.84505 0.1453 0.0
C1412 C 0.73018 0.88263 0.15806 0.0
N1413 N 0.77322 0.89159 0.15468 0.0
C1414 C 0.7441 0.8676 0.14916 0.0
C1415 C 0.73811 0.9022 0.16524 0.0
C1416 C 0.76582 0.87244 0.1476 0.0
C1417 C 0.75994 0.90644 0.16338 0.0
C1418 C 0.66159 0.84455 0.1937 0.0
C1419 C 0.65625 0.824 0.22594 0.0
N1420 N 0.63708 0.83376 0.2289 0.0
C1421 C 0.6415 0.85377 0.1967 0.0
C1422 C 0.66877 0.82911 0.20818 0.0
C1423 C 0.6295 0.84838 0.21476 0.0
C1424 C 0.64748 0.90655 0.1877 0.0
N1425 N 0.66832 0.90067 0.18614 0.0
C1426 C 0.67707 0.92314 0.21597 0.0
C1427 C 0.68302 0.9085 0.20006 0.0
C1428 C 0.65564 0.92988 0.21784 0.0
C1429 C 0.64077 0.92095 0.20351 0.0
H1430 H 0.63597 0.89998 0.17669 0.0
H1431 H 0.69941 0.90316 0.19902 0.0
C1432 C 0.73249 0.81655 0.17625 0.0
N1433 N 0.72166 0.83429 0.18239 0.0
C1434 C 0.73982 0.80237 0.19167 0.0
C1435 C 0.72788 0.82695 0.21909 0.0
C1436 C 0.7208 0.84064 0.2031 0.0
C1437 C 0.736 0.80688 0.21332 0.0
H1438 H 0.7337 0.81241 0.15953 0.0
H1439 H 0.71225 0.85507 0.2073 0.0
C1440 C 0.6688 0.8932 0.12225 0.0
N1441 N 0.68186 0.92611 0.09588 0.0
C1442 C 0.66959 0.89023 0.10015 0.0
C1443 C 0.67418 0.91308 0.13087 0.0
C1444 C 0.6765 0.907 0.08711 0.0
C1445 C 0.6807 0.9295 0.1173 0.0
C1446 C 0.69706 0.81375 0.13571 0.0
C1447 C 0.7055 0.80271 0.11821 0.0
C1448 C 0.6891 0.80228 0.15315 0.0
C1449 C 0.70576 0.7804 0.11844 0.0
C1450 C 0.68964 0.77999 0.15279 0.0
N1451 N 0.69788 0.76959 0.13558 0.0
C1452 C 0.72675 0.89076 0.10515 0.0
C1453 C 0.71239 0.85915 0.0904 0.0
C1454 C 0.74089 0.89278 0.08785 0.0
N1455 N 0.71323 0.8738 0.10644 0.0
C1456 C 0.72609 0.86064 0.07276 0.0
C1457 C 0.74105 0.87736 0.07137 0.0
H1458 H 0.72715 0.90238 0.11791 0.0
H1459 H 0.70132 0.84596 0.09153 0.0
C1460 C 0.63718 0.81285 0.15581 0.0
N1461 N 0.64524 0.82426 0.13917 0.0
C1462 C 0.62199 0.79694 0.15255 0.0
C1463 C 0.62376 0.80384 0.11473 0.0
C1464 C 0.63915 0.81973 0.11878 0.0
C1465 C 0.61459 0.79234 0.13184 0.0
H1466 H 0.64263 0.81574 0.17179 0.0
H1467 H 0.64641 0.82828 0.10566 0.0
O1468 O 0.70883 0.87839 0.15952 0.0
O1469 O 0.67367 0.84981 0.17617 0.0
O1470 O 0.66506 0.87628 0.13556 0.0
O1471 O 0.69646 0.83563 0.13551 0.0
H1472 H 0.73816 0.85247 0.1433 0.0
H1473 H 0.72749 0.91405 0.172 0.0
H1474 H 0.77678 0.861 0.14069 0.0
H1475 H 0.7663 0.92154 0.16882 0.0
H1476 H 0.66172 0.81217 0.23728 0.0
H1477 H 0.63506 0.86459 0.18497 0.0
H1478 H 0.68358 0.8207 0.20555 0.0
H1479 H 0.6141 0.85569 0.21748 0.0
H1480 H 0.68921 0.92871 0.22692 0.0
H1481 H 0.62408 0.92536 0.20398 0.0
H1482 H 0.74669 0.78728 0.18671 0.0
H1483 H 0.72477 0.83103 0.23562 0.0
H1484 H 0.66612 0.87477 0.09332 0.0
H1485 H 0.6739 0.9157 0.14791 0.0
H1486 H 0.67828 0.90467 0.07011 0.0
H1487 H 0.68509 0.94488 0.12382 0.0
H1488 H 0.71183 0.81125 0.10459 0.0
H1489 H 0.68272 0.81044 0.16691 0.0
H1490 H 0.71223 0.77167 0.105 0.0
H1491 H 0.68354 0.77097 0.16621 0.0
H1492 H 0.75212 0.90589 0.08796 0.0
H1493 H 0.72507 0.84852 0.0605 0.0
H1494 H 0.61553 0.78903 0.16649 0.0
H1495 H 0.6192 0.80066 0.09836 0.0
Li1496 Li 0.92575 0.09153 0.62944 0.0
Li1497 Li 0.94772 0.09431 0.59692 0.0
Li1498 Li 0.94413 0.12554 0.61744 0.0
Li1499 Li 0.913 0.11291 0.59596 0.0
C1500 C 0.97837 0.09968 0.63018 0.0
N1501 N 0.02162 0.10497 0.6372 0.0
C1502 C 0.99167 0.10659 0.61365 0.0
C1503 C 0.9871 0.09533 0.65027 0.0
C1504 C 0.01349 0.10919 0.6175 0.0
C1505 C 0.00899 0.09815 0.65352 0.0
C1506 C 0.91879 0.06397 0.58767 0.0
C1507 C 0.91947 0.04733 0.55286 0.0
N1508 N 0.91944 0.02778 0.56231 0.0
C1509 C 0.91884 0.04369 0.59702 0.0
C1510 C 0.91923 0.06579 0.56538 0.0
C1511 C 0.91915 0.02561 0.58394 0.0
C1512 C 0.89784 0.06027 0.64794 0.0
N1513 N 0.9167 0.07068 0.65075 0.0
C1514 C 0.92422 0.0494 0.68173 0.0
C1515 C 0.92984 0.06552 0.66726 0.0
C1516 C 0.90498 0.03804 0.67912 0.0
C1517 C 0.89174 0.04376 0.66181 0.0
H1518 H 0.88774 0.06442 0.63455 0.0
H1519 H 0.9447 0.07398 0.66926 0.0
C1520 C 0.97059 0.08046 0.55987 0.0
N1521 N 0.9656 0.07634 0.58058 0.0
C1522 C 0.97657 0.06387 0.54644 0.0
C1523 C 0.97449 0.03961 0.57646 0.0
C1524 C 0.96892 0.0568 0.58941 0.0
C1525 C 0.97701 0.04295 0.55444 0.0
H1526 H 0.96825 0.09605 0.55318 0.0
H1527 H 0.96483 0.0541 0.60599 0.0
C1528 C 0.91572 0.13395 0.64595 0.0
N1529 N 0.92705 0.15782 0.68138 0.0
C1530 C 0.919 0.15591 0.64411 0.0
C1531 C 0.91755 0.12429 0.66599 0.0
C1532 C 0.92506 0.16765 0.66212 0.0
C1533 C 0.92334 0.13657 0.68367 0.0
C1534 C 0.94878 0.12988 0.56724 0.0
C1535 C 0.9689 0.13955 0.5661 0.0
C1536 C 0.93684 0.12722 0.54855 0.0
C1537 C 0.97671 0.14633 0.54632 0.0
C1538 C 0.94522 0.13422 0.52907 0.0
N1539 N 0.96481 0.14355 0.52837 0.0
C1540 C 0.97534 0.15185 0.64013 0.0
C1541 C 0.95902 0.1677 0.61001 0.0
C1542 C 0.98981 0.16886 0.64163 0.0
N1543 N 0.9608 0.15116 0.624 0.0
C1544 C 0.97312 0.18499 0.61093 0.0
C1545 C 0.98922 0.18563 0.62658 0.0
H1546 H 0.97625 0.13888 0.65145 0.0
H1547 H 0.94711 0.16708 0.59752 0.0
C1548 C 0.87904 0.10035 0.56971 0.0
N1549 N 0.88906 0.11822 0.57683 0.0
C1550 C 0.8642 0.10136 0.55314 0.0
C1551 C 0.86833 0.13961 0.55258 0.0
C1552 C 0.88403 0.13772 0.56858 0.0
C1553 C 0.85822 0.12117 0.54448 0.0
H1554 H 0.88248 0.08512 0.57691 0.0
H1555 H 0.89257 0.15172 0.57398 0.0
O1556 O 0.95687 0.09751 0.62689 0.0
O1557 O 0.91851 0.08195 0.60021 0.0
O1558 O 0.91284 0.12169 0.62804 0.0
O1559 O 0.94072 0.12328 0.58651 0.0
H1560 H 0.98524 0.10996 0.59803 0.0
H1561 H 0.97708 0.0902 0.66336 0.0
H1562 H 0.02394 0.11459 0.60484 0.0
H1563 H 0.01591 0.095 0.66904 0.0
H1564 H 0.91979 0.04855 0.53562 0.0
H1565 H 0.91895 0.04186 0.61418 0.0
H1566 H 0.91955 0.08131 0.55782 0.0
H1567 H 0.91926 0.00984 0.59098 0.0
H1568 H 0.93479 0.04618 0.69501 0.0
H1569 H 0.87689 0.03548 0.65879 0.0
H1570 H 0.97918 0.06715 0.52965 0.0
H1571 H 0.97476 0.02371 0.58326 0.0
H1572 H 0.9179 0.16357 0.62869 0.0
H1573 H 0.91485 0.10744 0.66793 0.0
H1574 H 0.9286 0.18448 0.66071 0.0
H1575 H 0.92505 0.12915 0.69919 0.0
H1576 H 0.97849 0.14179 0.58026 0.0
H1577 H 0.92138 0.11963 0.54895 0.0
H1578 H 0.99226 0.15379 0.54524 0.0
H1579 H 0.93616 0.13219 0.5145 0.0
H1580 H 1.00189 0.16826 0.65396 0.0
H1581 H 0.97156 0.19751 0.59915 0.0
H1582 H 0.85669 0.08667 0.54802 0.0
H1583 H 0.86465 0.15526 0.54624 0.0
Li1584 Li 0.66648 0.15067 0.35789 0.0
Li1585 Li 0.695 0.12888 0.37379 0.0
Li1586 Li 0.70073 0.14668 0.34077 0.0
Li1587 Li 0.67684 0.11626 0.33844 0.0
C1588 C 0.69192 0.18135 0.37241 0.0
N1589 N 0.68518 0.22449 0.37959 0.0
C1590 C 0.68737 0.18884 0.39299 0.0
C1591 C 0.6931 0.19595 0.35555 0.0
C1592 C 0.68397 0.21065 0.39628 0.0
C1593 C 0.68968 0.21764 0.35947 0.0
C1594 C 0.66411 0.10148 0.38066 0.0
C1595 C 0.66511 0.06298 0.38291 0.0
N1596 N 0.67033 0.06438 0.40392 0.0
C1597 C 0.66849 0.10248 0.40249 0.0
C1598 C 0.66196 0.08153 0.37093 0.0
C1599 C 0.67217 0.08359 0.41383 0.0
C1600 C 0.63416 0.17965 0.34531 0.0
N1601 N 0.64335 0.17088 0.36289 0.0
C1602 C 0.62221 0.19361 0.3855 0.0
C1603 C 0.63764 0.17753 0.3828 0.0
C1604 C 0.61267 0.20325 0.36748 0.0
C1605 C 0.6193 0.19618 0.34719 0.0
H1606 H 0.638 0.17353 0.3297 0.0
H1607 H 0.64537 0.17062 0.39659 0.0
C1608 C 0.72731 0.10749 0.39892 0.0
N1609 N 0.71142 0.1223 0.39959 0.0
C1610 C 0.74214 0.10596 0.41565 0.0
C1611 C 0.72321 0.13392 0.43419 0.0
C1612 C 0.7089 0.135 0.41706 0.0
C1613 C 0.74057 0.11967 0.43347 0.0
H1614 H 0.72912 0.09751 0.38493 0.0
H1615 H 0.69593 0.14628 0.41759 0.0
C1616 C 0.67359 0.15388 0.30664 0.0
N1617 N 0.67555 0.17076 0.26573 0.0
C1618 C 0.67622 0.14047 0.28892 0.0
C1619 C 0.67195 0.17594 0.30337 0.0
C1620 C 0.67714 0.14928 0.26843 0.0
C1621 C 0.67302 0.18415 0.28264 0.0
C1622 C 0.72607 0.11396 0.33608 0.0
C1623 C 0.72593 0.10696 0.31486 0.0
C1624 C 0.74546 0.11937 0.34573 0.0
C1625 C 0.74519 0.10526 0.30373 0.0
C1626 C 0.76439 0.11748 0.33405 0.0
N1627 N 0.76387 0.1105 0.31347 0.0
C1628 C 0.73649 0.17301 0.33815 0.0
C1629 C 0.72578 0.15875 0.30479 0.0
C1630 C 0.7508 0.18672 0.32812 0.0
N1631 N 0.72328 0.16058 0.32625 0.0
C1632 C 0.73979 0.17213 0.29407 0.0
C1633 C 0.75152 0.18724 0.30572 0.0
H1634 H 0.73492 0.17329 0.35535 0.0
H1635 H 0.71636 0.14757 0.29583 0.0
C1636 C 0.64851 0.09863 0.30782 0.0
N1637 N 0.66671 0.09421 0.31881 0.0
C1638 C 0.64162 0.0853 0.29125 0.0
C1639 C 0.67182 0.06239 0.29812 0.0
C1640 C 0.67807 0.07616 0.31463 0.0
C1641 C 0.65352 0.06702 0.28583 0.0
H1642 H 0.64009 0.11327 0.3111 0.0
H1643 H 0.69234 0.07274 0.32374 0.0
O1644 O 0.69469 0.15987 0.36876 0.0
O1645 O 0.66351 0.11977 0.36861 0.0
O1646 O 0.67218 0.14542 0.32689 0.0
O1647 O 0.7073 0.11606 0.34712 0.0
H1648 H 0.68594 0.17801 0.40628 0.0
H1649 H 0.69669 0.1907 0.33958 0.0
H1650 H 0.68024 0.21655 0.4121 0.0
H1651 H 0.69057 0.22903 0.3465 0.0
H1652 H 0.66353 0.04748 0.37545 0.0
H1653 H 0.66947 0.11773 0.41047 0.0
H1654 H 0.65769 0.08022 0.35438 0.0
H1655 H 0.67655 0.08413 0.43049 0.0
H1656 H 0.61812 0.19861 0.40154 0.0
H1657 H 0.61221 0.20238 0.3327 0.0
H1658 H 0.75523 0.09479 0.41407 0.0
H1659 H 0.72077 0.14439 0.44774 0.0
H1660 H 0.67835 0.12352 0.29086 0.0
H1661 H 0.66966 0.18676 0.31658 0.0
H1662 H 0.67933 0.13904 0.25467 0.0
H1663 H 0.67177 0.20117 0.28 0.0
H1664 H 0.71109 0.10343 0.30684 0.0
H1665 H 0.74588 0.12539 0.36192 0.0
H1666 H 0.74527 0.09997 0.28727 0.0
H1667 H 0.77949 0.12169 0.3413 0.0
H1668 H 0.76003 0.19781 0.33765 0.0
H1669 H 0.73999 0.17182 0.27676 0.0
H1670 H 0.62755 0.08982 0.28229 0.0
H1671 H 0.68124 0.04821 0.29512 0.0
Li1672 Li 0.56245 0.90272 0.09352 0.0
Li1673 Li 0.58634 0.90595 0.12508 0.0
Li1674 Li 0.59778 0.88446 0.09274 0.0
Li1675 Li 0.56803 0.87197 0.11407 0.0
C1676 C 0.60223 0.93363 0.09123 0.0
N1677 N 0.625 0.97056 0.08283 0.0
C1678 C 0.62289 0.93619 0.09927 0.0
C1679 C 0.59366 0.94944 0.07797 0.0
C1680 C 0.63396 0.95514 0.0952 0.0
C1681 C 0.60531 0.96804 0.07407 0.0
C1682 C 0.53416 0.89797 0.12835 0.0
C1683 C 0.5046 0.90329 0.15248 0.0
N1684 N 0.49126 0.89425 0.13791 0.0
C1685 C 0.52019 0.8887 0.11362 0.0
C1686 C 0.52635 0.90531 0.14794 0.0
C1687 C 0.49854 0.88699 0.11875 0.0
C1688 C 0.53307 0.91338 0.06058 0.0
N1689 N 0.54263 0.91947 0.07906 0.0
C1690 C 0.5323 0.95558 0.07398 0.0
C1691 C 0.54083 0.93962 0.0868 0.0
C1692 C 0.52545 0.95034 0.0533 0.0
C1693 C 0.52437 0.9288 0.0472 0.0
H1694 H 0.53372 0.89694 0.05541 0.0
H1695 H 0.54828 0.94371 0.10186 0.0
C1696 C 0.61603 0.93033 0.15041 0.0
N1697 N 0.59507 0.92773 0.14544 0.0
C1698 C 0.62259 0.94696 0.16383 0.0
C1699 C 0.58582 0.95773 0.16742 0.0
C1700 C 0.58005 0.94126 0.1534 0.0
C1701 C 0.60739 0.96069 0.17316 0.0
H1702 H 0.62775 0.91939 0.14402 0.0
H1703 H 0.56354 0.93938 0.14871 0.0
C1704 C 0.57038 0.87328 0.0606 0.0
N1705 N 0.5728 0.87201 0.01645 0.0
C1706 C 0.56447 0.85483 0.0495 0.0
C1707 C 0.57748 0.89111 0.04914 0.0
C1708 C 0.56581 0.8545 0.02721 0.0
C1709 C 0.5786 0.89015 0.02687 0.0
C1710 C 0.59584 0.86444 0.14264 0.0
C1711 C 0.59218 0.84252 0.14136 0.0
C1712 C 0.59363 0.87475 0.16234 0.0
C1713 C 0.58532 0.83146 0.15953 0.0
C1714 C 0.58713 0.86311 0.18021 0.0
N1715 N 0.58302 0.84188 0.17843 0.0
C1716 C 0.62811 0.89524 0.06107 0.0
C1717 C 0.63 0.85878 0.07049 0.0
C1718 C 0.64425 0.89271 0.046 0.0
N1719 N 0.62145 0.87858 0.0733 0.0
C1720 C 0.64644 0.85548 0.05548 0.0
C1721 C 0.65393 0.87269 0.04297 0.0
H1722 H 0.6207 0.91062 0.06257 0.0
H1723 H 0.62391 0.84552 0.07971 0.0
C1724 C 0.53774 0.84638 0.13904 0.0
N1725 N 0.55093 0.84692 0.12175 0.0
C1726 C 0.5231 0.82964 0.14164 0.0
C1727 C 0.53678 0.81353 0.10944 0.0
C1728 C 0.551 0.83063 0.10738 0.0
C1729 C 0.52211 0.81297 0.12649 0.0
H1730 H 0.53803 0.8593 0.15048 0.0
H1731 H 0.5619 0.83112 0.09401 0.0
O1732 O 0.59094 0.91529 0.0953 0.0
O1733 O 0.55546 0.89951 0.12387 0.0
O1734 O 0.56966 0.87355 0.08252 0.0
O1735 O 0.59933 0.87613 0.12446 0.0
H1736 H 0.63041 0.92351 0.1082 0.0
H1737 H 0.57846 0.94722 0.07025 0.0
H1738 H 0.64971 0.9576 0.10174 0.0
H1739 H 0.59875 0.98041 0.06395 0.0
H1740 H 0.49834 0.90883 0.16761 0.0
H1741 H 0.52604 0.88264 0.09851 0.0
H1742 H 0.53701 0.91228 0.15962 0.0
H1743 H 0.48755 0.87979 0.10754 0.0
H1744 H 0.5333 0.972 0.0793 0.0
H1745 H 0.51851 0.92417 0.03159 0.0
H1746 H 0.63941 0.94839 0.16743 0.0
H1747 H 0.57343 0.96823 0.17337 0.0
H1748 H 0.55891 0.84084 0.05797 0.0
H1749 H 0.58187 0.90565 0.05723 0.0
H1750 H 0.5613 0.8403 0.01847 0.0
H1751 H 0.58405 0.90386 0.01787 0.0
H1752 H 0.59341 0.8344 0.12616 0.0
H1753 H 0.59637 0.89164 0.16385 0.0
H1754 H 0.58135 0.81469 0.1585 0.0
H1755 H 0.58504 0.87104 0.19542 0.0
H1756 H 0.6494 0.90669 0.03726 0.0
H1757 H 0.65293 0.83958 0.05352 0.0
H1758 H 0.51213 0.83034 0.15498 0.0
H1759 H 0.5372 0.80106 0.09751 0.0
Li1760 Li 0.85271 0.84245 0.86194 0.0
Li1761 Li 0.82262 0.86296 0.87639 0.0
Li1762 Li 0.81863 0.84504 0.84216 0.0
Li1763 Li 0.84309 0.87671 0.84342 0.0
C1764 C 0.82481 0.81016 0.8703 0.0
N1765 N 0.82747 0.76608 0.86994 0.0
C1766 C 0.82249 0.79861 0.88928 0.0
C1767 C 0.82845 0.79925 0.85115 0.0
C1768 C 0.82387 0.77634 0.88876 0.0
C1769 C 0.82976 0.77699 0.85129 0.0
C1770 C 0.8517 0.89184 0.88558 0.0
C1771 C 0.85062 0.93041 0.88684 0.0
N1772 N 0.83829 0.92945 0.90469 0.0
C1773 C 0.84087 0.89143 0.90499 0.0
C1774 C 0.85755 0.91159 0.87699 0.0
C1775 C 0.83317 0.91044 0.91381 0.0
C1776 C 0.8811 0.80931 0.85033 0.0
N1777 N 0.87509 0.82142 0.86733 0.0
C1778 C 0.8993 0.8019 0.88986 0.0
C1779 C 0.88344 0.8176 0.88706 0.0
C1780 C 0.90652 0.78978 0.87222 0.0
C1781 C 0.89676 0.79362 0.85234 0.0
H1782 H 0.8737 0.81162 0.83503 0.0
H1783 H 0.87795 0.82685 0.90059 0.0
C1784 C 0.78647 0.88111 0.89975 0.0
N1785 N 0.80273 0.86673 0.90049 0.0
C1786 C 0.77142 0.88217 0.91626 0.0
C1787 C 0.79008 0.85378 0.93435 0.0
C1788 C 0.8046 0.85308 0.91733 0.0
C1789 C 0.77302 0.86841 0.93403 0.0
H1790 H 0.78483 0.89158 0.88619 0.0
H1791 H 0.81762 0.84176 0.91768 0.0
C1792 C 0.85925 0.84348 0.81308 0.0
N1793 N 0.8831 0.83469 0.7769 0.0
C1794 C 0.87892 0.85344 0.8099 0.0
C1795 C 0.85205 0.82847 0.79816 0.0
C1796 C 0.89059 0.84905 0.79135 0.0
C1797 C 0.86429 0.8243 0.77997 0.0
C1798 C 0.79819 0.89084 0.84487 0.0
C1799 C 0.77926 0.88703 0.83366 0.0
C1800 C 0.80322 0.91166 0.85113 0.0
C1801 C 0.76572 0.90411 0.8289 0.0
C1802 C 0.78925 0.92831 0.84613 0.0
N1803 N 0.77095 0.92423 0.83518 0.0
C1804 C 0.78005 0.8258 0.83698 0.0
C1805 C 0.79646 0.83721 0.80474 0.0
C1806 C 0.7616 0.82015 0.82608 0.0
N1807 N 0.79697 0.83383 0.82611 0.0
C1808 C 0.77866 0.83111 0.79307 0.0
C1809 C 0.76087 0.82243 0.80374 0.0
H1810 H 0.78071 0.82449 0.85421 0.0
H1811 H 0.80968 0.84504 0.79687 0.0
C1812 C 0.87248 0.90616 0.82211 0.0
N1813 N 0.85194 0.89911 0.82325 0.0
C1814 C 0.87877 0.9207 0.80632 0.0
C1815 C 0.84286 0.9204 0.79262 0.0
C1816 C 0.83731 0.90573 0.80859 0.0
C1817 C 0.86392 0.92818 0.79115 0.0
H1818 H 0.88417 0.90026 0.83332 0.0
H1819 H 0.82135 0.89922 0.80886 0.0
O1820 O 0.82406 0.83203 0.87061 0.0
O1821 O 0.85459 0.87331 0.87415 0.0
O1822 O 0.84735 0.84793 0.83095 0.0
O1823 O 0.81205 0.87444 0.84905 0.0
H1824 H 0.81976 0.8067 0.90429 0.0
H1825 H 0.8305 0.80786 0.83636 0.0
H1826 H 0.82214 0.76722 0.90334 0.0
H1827 H 0.83268 0.76839 0.83658 0.0
H1828 H 0.85456 0.94576 0.87997 0.0
H1829 H 0.83868 0.87652 0.91323 0.0
H1830 H 0.86681 0.91251 0.86264 0.0
H1831 H 0.82376 0.9101 0.92832 0.0
H1832 H 0.90571 0.79934 0.9057 0.0
H1833 H 0.90161 0.78524 0.83803 0.0
H1834 H 0.75834 0.89336 0.9147 0.0
H1835 H 0.79236 0.84294 0.9476 0.0
H1836 H 0.88515 0.86429 0.82171 0.0
H1837 H 0.83735 0.81984 0.80068 0.0
H1838 H 0.90562 0.85699 0.78842 0.0
H1839 H 0.85885 0.81278 0.7683 0.0
H1840 H 0.77503 0.87111 0.82859 0.0
H1841 H 0.81778 0.91494 0.85966 0.0
H1842 H 0.75107 0.90137 0.82018 0.0
H1843 H 0.793 0.94448 0.85088 0.0
H1844 H 0.74812 0.81413 0.83507 0.0
H1845 H 0.77909 0.83293 0.77588 0.0
H1846 H 0.89519 0.92591 0.80621 0.0
H1847 H 0.83076 0.92517 0.78122 0.0
Li1848 Li 0.423 0.5961 0.12674 0.0
Li1849 Li 0.44321 0.59714 0.09242 0.0
Li1850 Li 0.44318 0.62912 0.11275 0.0
Li1851 Li 0.40951 0.61765 0.09356 0.0
C1852 C 0.47261 0.59928 0.13163 0.0
N1853 N 0.51129 0.59719 0.15266 0.0
C1854 C 0.49167 0.59986 0.12003 0.0
C1855 C 0.47317 0.59764 0.15391 0.0
C1856 C 0.51108 0.59878 0.13098 0.0
C1857 C 0.4929 0.59661 0.16425 0.0
C1858 C 0.41333 0.56705 0.08757 0.0
C1859 C 0.41366 0.54647 0.05493 0.0
N1860 N 0.41263 0.52817 0.06658 0.0
C1861 C 0.41218 0.54799 0.09918 0.0
C1862 C 0.41396 0.56626 0.06523 0.0
C1863 C 0.41185 0.52852 0.08829 0.0
C1864 C 0.39483 0.57421 0.15606 0.0
N1865 N 0.41531 0.57546 0.14893 0.0
C1866 C 0.42439 0.54416 0.1692 0.0
C1867 C 0.43 0.56066 0.1551 0.0
C1868 C 0.40332 0.54257 0.177 0.0
C1869 C 0.38851 0.55796 0.17 0.0
H1870 H 0.38333 0.58596 0.15107 0.0
H1871 H 0.44595 0.56119 0.14851 0.0
C1872 C 0.46537 0.58119 0.05565 0.0
N1873 N 0.46012 0.57799 0.07646 0.0
C1874 C 0.47124 0.564 0.04297 0.0
C1875 C 0.4683 0.54093 0.07383 0.0
C1876 C 0.46295 0.55872 0.08605 0.0
C1877 C 0.47123 0.54341 0.05176 0.0
H1878 H 0.46347 0.59652 0.04831 0.0
H1879 H 0.45878 0.55675 0.10272 0.0
C1880 C 0.4166 0.63799 0.14441 0.0
N1881 N 0.43024 0.6573 0.18182 0.0
C1882 C 0.4261 0.65808 0.14389 0.0
C1883 C 0.41291 0.6283 0.1642 0.0
C1884 C 0.43364 0.66724 0.16282 0.0
C1885 C 0.41983 0.6383 0.1829 0.0
C1886 C 0.4436 0.63051 0.06151 0.0
C1887 C 0.46388 0.63897 0.05745 0.0
C1888 C 0.42986 0.62622 0.04442 0.0
C1889 C 0.47 0.64309 0.03637 0.0
C1890 C 0.43662 0.63047 0.02358 0.0
N1891 N 0.45637 0.63878 0.02001 0.0
C1892 C 0.47768 0.65267 0.13412 0.0
C1893 C 0.46319 0.66925 0.10349 0.0
C1894 C 0.49295 0.66887 0.1361 0.0
N1895 N 0.46342 0.6528 0.11772 0.0
C1896 C 0.47808 0.68588 0.10495 0.0
C1897 C 0.49351 0.68584 0.1213 0.0
H1898 H 0.47732 0.64004 0.14578 0.0
H1899 H 0.45142 0.66944 0.09086 0.0
C1900 C 0.37412 0.60632 0.06824 0.0
N1901 N 0.38412 0.62403 0.07587 0.0
C1902 C 0.35693 0.60784 0.05423 0.0
C1903 C 0.36014 0.64614 0.05543 0.0
C1904 C 0.37743 0.64383 0.06971 0.0
C1905 C 0.34986 0.62787 0.04719 0.0
H1906 H 0.37959 0.59077 0.07285 0.0
H1907 H 0.38591 0.6578 0.07528 0.0
O1908 O 0.45346 0.60025 0.12128 0.0
O1909 O 0.41356 0.58634 0.09801 0.0
O1910 O 0.41221 0.62738 0.12571 0.0
O1911 O 0.43723 0.62654 0.08205 0.0
H1912 H 0.49145 0.60119 0.10278 0.0
H1913 H 0.45853 0.59747 0.16311 0.0
H1914 H 0.52598 0.59922 0.12224 0.0
H1915 H 0.49359 0.59542 0.18148 0.0
H1916 H 0.41433 0.54566 0.03768 0.0
H1917 H 0.41132 0.54816 0.1164 0.0
H1918 H 0.41493 0.58078 0.05594 0.0
H1919 H 0.41094 0.5137 0.09711 0.0
H1920 H 0.4364 0.53245 0.17336 0.0
H1921 H 0.37211 0.55771 0.17525 0.0
H1922 H 0.47423 0.56661 0.02612 0.0
H1923 H 0.46827 0.5253 0.08123 0.0
H1924 H 0.4277 0.6665 0.12894 0.0
H1925 H 0.40488 0.61324 0.16527 0.0
H1926 H 0.44171 0.68251 0.16242 0.0
H1927 H 0.41713 0.63081 0.19825 0.0
H1928 H 0.47492 0.64199 0.07037 0.0
H1929 H 0.41425 0.61946 0.04712 0.0
H1930 H 0.48564 0.6496 0.033 0.0
H1931 H 0.42618 0.62712 0.01023 0.0
H1932 H 0.50448 0.66769 0.1489 0.0
H1933 H 0.47735 0.69864 0.09333 0.0
H1934 H 0.34942 0.59327 0.04871 0.0
H1935 H 0.35546 0.66194 0.05024 0.0
Li1936 Li 0.19261 0.63916 0.87026 0.0
Li1937 Li 0.16674 0.66242 0.85383 0.0
Li1938 Li 0.17483 0.62728 0.83526 0.0
Li1939 Li 0.20109 0.65596 0.83651 0.0
C1940 C 0.16411 0.61487 0.87802 0.0
N1941 N 0.1775 0.58302 0.90549 0.0
C1942 C 0.16142 0.61723 0.89998 0.0
C1943 C 0.17292 0.59599 0.87001 0.0
C1944 C 0.16872 0.60112 0.91363 0.0
C1945 C 0.1795 0.58005 0.88409 0.0
C1946 C 0.19503 0.69032 0.87092 0.0
C1947 C 0.20036 0.72791 0.86416 0.0
N1948 N 0.1943 0.73236 0.88454 0.0
C1949 C 0.18913 0.6953 0.89189 0.0
C1950 C 0.20091 0.70678 0.85701 0.0
C1951 C 0.18873 0.71663 0.89843 0.0
C1952 C 0.22778 0.62367 0.89456 0.0
N1953 N 0.2084 0.63324 0.8968 0.0
C1954 C 0.21623 0.64069 0.93367 0.0
C1955 C 0.20253 0.64174 0.91598 0.0
C1956 C 0.2364 0.63095 0.93184 0.0
C1957 C 0.24194 0.62222 0.91184 0.0
H1958 H 0.23277 0.6181 0.87904 0.0
H1959 H 0.1874 0.64985 0.91754 0.0
C1960 C 0.13586 0.69345 0.84131 0.0
N1961 N 0.14485 0.68406 0.85872 0.0
C1962 C 0.12065 0.70963 0.8436 0.0
C1963 C 0.12348 0.706 0.88186 0.0
C1964 C 0.13887 0.68998 0.87879 0.0
C1965 C 0.11394 0.71602 0.86409 0.0
H1966 H 0.13982 0.68788 0.82552 0.0
H1967 H 0.14582 0.68206 0.89248 0.0
C1968 C 0.21686 0.61403 0.82935 0.0
N1969 N 0.2389 0.59025 0.79931 0.0
C1970 C 0.21466 0.61848 0.8076 0.0
C1971 C 0.23008 0.59722 0.83581 0.0
C1972 C 0.22597 0.60638 0.79266 0.0
C1973 C 0.24114 0.58545 0.82039 0.0
C1974 C 0.17389 0.66759 0.80417 0.0
C1975 C 0.1725 0.65696 0.78454 0.0
C1976 C 0.17662 0.68975 0.80439 0.0
C1977 C 0.17406 0.66863 0.76558 0.0
C1978 C 0.17811 0.70086 0.7851 0.0
N1979 N 0.17682 0.69015 0.76624 0.0
C1980 C 0.14504 0.61179 0.80475 0.0
C1981 C 0.17334 0.5874 0.81013 0.0
C1982 C 0.13693 0.59928 0.78803 0.0
N1983 N 0.16315 0.60595 0.81527 0.0
C1984 C 0.16589 0.57451 0.79342 0.0
C1985 C 0.14758 0.58048 0.78184 0.0
H1986 H 0.13745 0.62676 0.80871 0.0
H1987 H 0.18755 0.58266 0.81868 0.0
C1988 C 0.24015 0.6749 0.8375 0.0
N1989 N 0.22516 0.66792 0.82344 0.0
C1990 C 0.25736 0.68697 0.83034 0.0
C1991 C 0.2447 0.68201 0.79412 0.0
C1992 C 0.22756 0.67041 0.80203 0.0
C1993 C 0.25926 0.69121 0.80847 0.0
H1994 H 0.23799 0.67219 0.85443 0.0
H1995 H 0.2158 0.66429 0.79108 0.0
O1996 O 0.16077 0.63182 0.86465 0.0
O1997 O 0.19542 0.66945 0.86423 0.0
O1998 O 0.20566 0.62558 0.84418 0.0
O1999 O 0.17235 0.65641 0.82298 0.0
H2000 H 0.15507 0.63196 0.90639 0.0
H2001 H 0.17541 0.59391 0.85316 0.0
H2002 H 0.16826 0.60335 0.93065 0.0
H2003 H 0.1866 0.56551 0.87802 0.0
H2004 H 0.20482 0.74076 0.8535 0.0
H2005 H 0.18454 0.68291 0.90293 0.0
H2006 H 0.20601 0.70339 0.84089 0.0
H2007 H 0.18397 0.72066 0.91456 0.0
H2008 H 0.21117 0.64781 0.94854 0.0
H2009 H 0.25748 0.61514 0.90915 0.0
H2010 H 0.11334 0.71608 0.82932 0.0
H2011 H 0.11901 0.7103 0.898 0.0
H2012 H 0.20395 0.63084 0.80233 0.0
H2013 H 0.23156 0.59302 0.85249 0.0
H2014 H 0.22433 0.6097 0.77578 0.0
H2015 H 0.25142 0.57241 0.82517 0.0
H2016 H 0.17055 0.63985 0.78385 0.0
H2017 H 0.17724 0.69836 0.81931 0.0
H2018 H 0.17313 0.66056 0.75032 0.0
H2019 H 0.18021 0.718 0.78512 0.0
H2020 H 0.12283 0.6047 0.77963 0.0
H2021 H 0.17434 0.55987 0.78978 0.0
H2022 H 0.2683 0.69394 0.84178 0.0
H2023 H 0.24554 0.68522 0.77713 0.0
Li2024 Li 0.08222 0.41449 0.62424 0.0
Li2025 Li 0.06359 0.41086 0.58954 0.0
Li2026 Li 0.06476 0.38007 0.61309 0.0
Li2027 Li 0.09736 0.3916 0.59421 0.0
C2028 C 0.03812 0.42339 0.62763 0.0
N2029 N 0.01183 0.45367 0.6462 0.0
C2030 C 0.03403 0.44267 0.61716 0.0
C2031 C 0.02856 0.41942 0.64744 0.0
C2032 C 0.02078 0.45781 0.62683 0.0
C2033 C 0.0154 0.43495 0.6566 0.0
C2034 C 0.09366 0.44413 0.58835 0.0
C2035 C 0.10536 0.4707 0.56283 0.0
N2036 N 0.09671 0.4863 0.57521 0.0
C2037 C 0.08464 0.46052 0.6006 0.0
C2038 C 0.10391 0.44934 0.5691 0.0
C2039 C 0.08644 0.48168 0.59379 0.0
C2040 C 0.10899 0.44645 0.64312 0.0
N2041 N 0.09064 0.43527 0.64654 0.0
C2042 C 0.08395 0.45579 0.67828 0.0
C2043 C 0.07839 0.43948 0.66401 0.0
C2044 C 0.10218 0.46847 0.67453 0.0
C2045 C 0.11494 0.46323 0.65673 0.0
H2046 H 0.11857 0.44296 0.62918 0.0
H2047 H 0.06432 0.43009 0.6671 0.0
C2048 C 0.0324 0.40699 0.55887 0.0
N2049 N 0.04612 0.42156 0.56735 0.0
C2050 C 0.02399 0.4101 0.53848 0.0
C2051 C 0.04215 0.44416 0.53715 0.0
C2052 C 0.05011 0.44042 0.55747 0.0
C2053 C 0.0298 0.42843 0.5271 0.0
H2054 H 0.02939 0.39217 0.56722 0.0
H2055 H 0.0602 0.4522 0.56473 0.0
C2056 C 0.0899 0.37203 0.64358 0.0
N2057 N 0.0742 0.34797 0.67717 0.0
C2058 C 0.08708 0.35007 0.64127 0.0
C2059 C 0.08565 0.38156 0.6633 0.0
C2060 C 0.07874 0.33823 0.6583 0.0
C2061 C 0.07758 0.36921 0.68002 0.0
C2062 C 0.07291 0.37695 0.56094 0.0
C2063 C 0.06506 0.35808 0.55199 0.0
C2064 C 0.08266 0.39211 0.54776 0.0
C2065 C 0.06726 0.35462 0.53003 0.0
C2066 C 0.08456 0.38809 0.52589 0.0
N2067 N 0.07689 0.36957 0.51755 0.0
C2068 C 0.02882 0.35786 0.63171 0.0
C2069 C 0.04961 0.33722 0.6079 0.0
C2070 C 0.01382 0.34135 0.6335 0.0
N2071 N 0.04629 0.35563 0.619 0.0
C2072 C 0.03502 0.32033 0.60919 0.0
C2073 C 0.01663 0.32218 0.62201 0.0
H2074 H 0.02607 0.37273 0.63992 0.0
H2075 H 0.06349 0.33577 0.59771 0.0
C2076 C 0.13425 0.40078 0.57113 0.0
N2077 N 0.12215 0.38393 0.57739 0.0
C2078 C 0.15014 0.39833 0.55569 0.0
C2079 C 0.14206 0.36072 0.55418 0.0
C2080 C 0.12555 0.36412 0.56905 0.0
C2081 C 0.15471 0.37803 0.54741 0.0
H2082 H 0.13164 0.4162 0.57828 0.0
H2083 H 0.11513 0.35109 0.57352 0.0
O2084 O 0.05094 0.40825 0.61836 0.0
O2085 O 0.09236 0.42324 0.59504 0.0
O2086 O 0.09482 0.38438 0.62618 0.0
O2087 O 0.07075 0.38069 0.58243 0.0
H2088 H 0.04099 0.44601 0.60176 0.0
H2089 H 0.03177 0.40478 0.65601 0.0
H2090 H 0.01761 0.47284 0.61892 0.0
H2091 H 0.00813 0.43216 0.67203 0.0
H2092 H 0.11324 0.47486 0.54801 0.0
H2093 H 0.0761 0.45706 0.61514 0.0
H2094 H 0.11035 0.43715 0.55875 0.0
H2095 H 0.07957 0.49442 0.60323 0.0
H2096 H 0.07393 0.45832 0.69214 0.0
H2097 H 0.12906 0.47236 0.65281 0.0
H2098 H 0.01412 0.39787 0.53128 0.0
H2099 H 0.04615 0.45895 0.52908 0.0
H2100 H 0.09033 0.34246 0.62613 0.0
H2101 H 0.08833 0.39833 0.66568 0.0
H2102 H 0.07546 0.32139 0.65639 0.0
H2103 H 0.07387 0.37655 0.69522 0.0
H2104 H 0.0572 0.34625 0.56181 0.0
H2105 H 0.08858 0.40688 0.55434 0.0
H2106 H 0.06126 0.34008 0.52291 0.0
H2107 H 0.09207 0.39971 0.51555 0.0
H2108 H 0.99975 0.34406 0.64317 0.0
H2109 H 0.03808 0.30607 0.59998 0.0
H2110 H 0.15903 0.41223 0.55054 0.0
H2111 H 0.14481 0.34481 0.54799 0.0
Li2112 Li 0.19563 0.34881 0.65831 0.0
Li2113 Li 0.17163 0.3811 0.66014 0.0
Li2114 Li 0.16068 0.34903 0.63889 0.0
Li2115 Li 0.19189 0.36942 0.62656 0.0
C2116 C 0.15535 0.34979 0.68868 0.0
N2117 N 0.1325 0.34671 0.7264 0.0
C2118 C 0.13524 0.35928 0.69046 0.0
C2119 C 0.16335 0.33786 0.70578 0.0
C2120 C 0.12413 0.35792 0.70979 0.0
C2121 C 0.15165 0.3366 0.72475 0.0
C2122 C 0.21935 0.39225 0.65642 0.0
C2123 C 0.23318 0.42808 0.65866 0.0
N2124 N 0.25337 0.42008 0.65937 0.0
C2125 C 0.2402 0.38435 0.65725 0.0
C2126 C 0.21574 0.41426 0.65719 0.0
C2127 C 0.25721 0.3987 0.65871 0.0
C2128 C 0.22745 0.31811 0.66498 0.0
N2129 N 0.21599 0.33419 0.67393 0.0
C2130 C 0.22936 0.3262 0.70846 0.0
C2131 C 0.21798 0.33948 0.69484 0.0
C2132 C 0.23899 0.30774 0.70012 0.0
C2133 C 0.23913 0.30444 0.67795 0.0
H2134 H 0.22648 0.3151 0.64801 0.0
H2135 H 0.20928 0.35301 0.70116 0.0
C2136 C 0.14229 0.40949 0.68337 0.0
N2137 N 0.16251 0.40143 0.68223 0.0
C2138 C 0.13615 0.42258 0.70043 0.0
C2139 C 0.17111 0.41774 0.71589 0.0
C2140 C 0.17676 0.40514 0.69824 0.0
C2141 C 0.1506 0.42678 0.71706 0.0
H2142 H 0.13071 0.40554 0.67119 0.0
H2143 H 0.19246 0.39798 0.69751 0.0
C2144 C 0.18716 0.31621 0.62868 0.0
N2145 N 0.18278 0.27225 0.62743 0.0
C2146 C 0.19124 0.305 0.60978 0.0
C2147 C 0.18087 0.30495 0.64696 0.0
C2148 C 0.18894 0.28281 0.60947 0.0
C2149 C 0.17875 0.28278 0.64601 0.0
C2150 C 0.16406 0.40021 0.6195 0.0
C2151 C 0.17403 0.40114 0.59962 0.0
C2152 C 0.15915 0.41933 0.62992 0.0
C2153 C 0.18038 0.42087 0.59127 0.0
C2154 C 0.1652 0.43881 0.6209 0.0
N2155 N 0.17582 0.43918 0.60198 0.0
C2156 C 0.12991 0.3183 0.65028 0.0
C2157 C 0.13076 0.32354 0.61295 0.0
C2158 C 0.11474 0.30221 0.64821 0.0
N2159 N 0.13743 0.32899 0.63293 0.0
C2160 C 0.11534 0.3074 0.61008 0.0
C2161 C 0.10691 0.29647 0.62797 0.0
H2162 H 0.13594 0.32179 0.66592 0.0
H2163 H 0.13772 0.33137 0.59923 0.0
C2164 C 0.22732 0.38966 0.60257 0.0
N2165 N 0.21171 0.37455 0.60245 0.0
C2166 C 0.24269 0.39034 0.58628 0.0
C2167 C 0.22499 0.36084 0.56909 0.0
C2168 C 0.21018 0.36052 0.58588 0.0
C2169 C 0.24194 0.37562 0.56923 0.0
H2170 H 0.22821 0.40105 0.61543 0.0
H2171 H 0.19734 0.34903 0.58569 0.0
O2172 O 0.16667 0.35127 0.66996 0.0
O2173 O 0.20249 0.37851 0.65511 0.0
O2174 O 0.18885 0.33806 0.62904 0.0
O2175 O 0.16048 0.38085 0.62927 0.0
H2176 H 0.12832 0.36756 0.67699 0.0
H2177 H 0.17816 0.32919 0.70434 0.0
H2178 H 0.10886 0.36571 0.71164 0.0
H2179 H 0.15774 0.32751 0.73812 0.0
H2180 H 0.23065 0.44516 0.65922 0.0
H2181 H 0.24321 0.36734 0.65667 0.0
H2182 H 0.19966 0.42058 0.65659 0.0
H2183 H 0.27345 0.39285 0.65931 0.0
H2184 H 0.22896 0.32934 0.72548 0.0
H2185 H 0.24694 0.29068 0.67094 0.0
H2186 H 0.12009 0.42901 0.70085 0.0
H2187 H 0.18275 0.42062 0.72834 0.0
H2188 H 0.19609 0.31329 0.59543 0.0
H2189 H 0.17766 0.31315 0.6618 0.0
H2190 H 0.19203 0.27399 0.59493 0.0
H2191 H 0.17388 0.27394 0.66004 0.0
H2192 H 0.17635 0.38675 0.59049 0.0
H2193 H 0.15086 0.41936 0.64483 0.0
H2194 H 0.18864 0.42168 0.57613 0.0
H2195 H 0.1616 0.45362 0.62904 0.0
H2196 H 0.10883 0.29486 0.66269 0.0
H2197 H 0.11042 0.30336 0.59402 0.0
H2198 H 0.25538 0.40197 0.58755 0.0
H2199 H 0.22302 0.34959 0.55612 0.0
Li2200 Li 0.31482 0.65353 0.1669 0.0
Li2201 Li 0.33526 0.62081 0.16782 0.0
Li2202 Li 0.34761 0.65326 0.14747 0.0
Li2203 Li 0.31613 0.63352 0.13376 0.0
C2204 C 0.34377 0.66089 0.19696 0.0
N2205 N 0.34317 0.68485 0.23413 0.0
C2206 C 0.34421 0.6508 0.2169 0.0
C2207 C 0.3429 0.68322 0.19601 0.0
C2208 C 0.34393 0.66318 0.23548 0.0
C2209 C 0.34265 0.69503 0.21494 0.0
C2210 C 0.28592 0.62156 0.17367 0.0
C2211 C 0.24754 0.62293 0.17656 0.0
N2212 N 0.24887 0.61522 0.19683 0.0
C2213 C 0.2869 0.61354 0.19449 0.0
C2214 C 0.26609 0.62623 0.16458 0.0
C2215 C 0.268 0.61052 0.20597 0.0
C2216 C 0.29088 0.68997 0.17555 0.0
N2217 N 0.29703 0.67085 0.18367 0.0
C2218 C 0.28811 0.68168 0.21896 0.0
C2219 C 0.29449 0.666 0.20467 0.0
C2220 C 0.2842 0.70239 0.21138 0.0
C2221 C 0.28434 0.70618 0.18927 0.0
H2222 H 0.29265 0.69316 0.15868 0.0
H2223 H 0.29978 0.65078 0.21074 0.0
C2224 C 0.36376 0.6013 0.19679 0.0
N2225 N 0.34491 0.59789 0.18654 0.0
C2226 C 0.37077 0.58733 0.21279 0.0
C2227 C 0.33951 0.56571 0.20666 0.0
C2228 C 0.33295 0.58028 0.19094 0.0
C2229 C 0.35852 0.56925 0.21819 0.0
H2230 H 0.37298 0.61543 0.19313 0.0
H2231 H 0.31802 0.57775 0.18266 0.0
C2232 C 0.32449 0.6801 0.12362 0.0
N2233 N 0.33464 0.71176 0.09452 0.0
C2234 C 0.32568 0.6754 0.10178 0.0
C2235 C 0.3286 0.70091 0.13062 0.0
C2236 C 0.33073 0.69165 0.08734 0.0
C2237 C 0.33372 0.71667 0.11567 0.0
C2238 C 0.34543 0.60111 0.12987 0.0
C2239 C 0.36109 0.59288 0.11633 0.0
C2240 C 0.32865 0.58775 0.13633 0.0
C2241 C 0.35959 0.57172 0.10929 0.0
C2242 C 0.3278 0.5667 0.12911 0.0
N2243 N 0.34314 0.55918 0.11576 0.0
C2244 C 0.38135 0.68118 0.15828 0.0
C2245 C 0.37724 0.67853 0.12091 0.0
C2246 C 0.39615 0.69768 0.15595 0.0
N2247 N 0.37171 0.67226 0.14101 0.0
C2248 C 0.39256 0.69465 0.11775 0.0
C2249 C 0.40238 0.70455 0.13547 0.0
H2250 H 0.37791 0.67531 0.17405 0.0
H2251 H 0.36948 0.67134 0.10732 0.0
C2252 C 0.28206 0.64211 0.10718 0.0
N2253 N 0.29833 0.62782 0.10907 0.0
C2254 C 0.26789 0.64106 0.09001 0.0
C2255 C 0.2872 0.61041 0.07678 0.0
C2256 C 0.30132 0.61228 0.09411 0.0
C2257 C 0.27021 0.62496 0.0746 0.0
H2258 H 0.28018 0.65452 0.11905 0.0
H2259 H 0.31463 0.60139 0.09546 0.0
O2260 O 0.34407 0.64902 0.17851 0.0
O2261 O 0.30424 0.62426 0.16206 0.0
O2262 O 0.31946 0.66446 0.13808 0.0
O2263 O 0.34673 0.62198 0.13663 0.0
H2264 H 0.34439 0.63361 0.21811 0.0
H2265 H 0.34219 0.69134 0.18078 0.0
H2266 H 0.34419 0.65555 0.25098 0.0
H2267 H 0.34188 0.71227 0.21438 0.0
H2268 H 0.23208 0.62648 0.16972 0.0
H2269 H 0.3021 0.61014 0.20191 0.0
H2270 H 0.26501 0.63227 0.14845 0.0
H2271 H 0.26856 0.60449 0.22216 0.0
H2272 H 0.28835 0.6781 0.23588 0.0
H2273 H 0.28082 0.72183 0.1828 0.0
H2274 H 0.3854 0.59107 0.22118 0.0
H2275 H 0.32971 0.5518 0.20967 0.0
H2276 H 0.32314 0.65935 0.096 0.0
H2277 H 0.32802 0.70485 0.14743 0.0
H2278 H 0.33168 0.68823 0.07042 0.0
H2279 H 0.337 0.7328 0.1209 0.0
H2280 H 0.37456 0.60266 0.11185 0.0
H2281 H 0.31621 0.59318 0.1467 0.0
H2282 H 0.37143 0.56515 0.0987 0.0
H2283 H 0.31488 0.55635 0.13405 0.0
H2284 H 0.40357 0.70393 0.17024 0.0
H2285 H 0.39642 0.6994 0.10158 0.0
H2286 H 0.25494 0.6525 0.08905 0.0
H2287 H 0.28966 0.59789 0.06509 0.0
Li2288 Li 0.56487 0.62463 0.61528 0.0
Li2289 Li 0.5837 0.59038 0.6297 0.0
Li2290 Li 0.5954 0.60871 0.59572 0.0
Li2291 Li 0.56143 0.59144 0.59802 0.0
C2292 C 0.59324 0.63322 0.64418 0.0
N2293 N 0.58214 0.65643 0.68017 0.0
C2294 C 0.59537 0.62429 0.6645 0.0
C2295 C 0.5862 0.65425 0.64227 0.0
C2296 C 0.58961 0.63619 0.68248 0.0
C2297 C 0.58039 0.66565 0.66059 0.0
C2298 C 0.53433 0.58736 0.62998 0.0
C2299 C 0.51467 0.55523 0.63793 0.0
N2300 N 0.49619 0.56539 0.63273 0.0
C2301 C 0.51515 0.59753 0.62479 0.0
C2302 C 0.53412 0.56606 0.63664 0.0
C2303 C 0.49603 0.58613 0.62625 0.0
C2304 C 0.54152 0.66132 0.60272 0.0
N2305 N 0.54574 0.64895 0.62007 0.0
C2306 C 0.52041 0.66901 0.64079 0.0
C2307 C 0.53529 0.65232 0.63888 0.0
C2308 C 0.51581 0.68201 0.623 0.0
C2309 C 0.52673 0.67796 0.60384 0.0
H2310 H 0.54918 0.65799 0.58773 0.0
H2311 H 0.53831 0.64189 0.65233 0.0
C2312 C 0.61289 0.56211 0.64902 0.0
N2313 N 0.59384 0.57199 0.65244 0.0
C2314 C 0.62023 0.54635 0.66306 0.0
C2315 C 0.58883 0.55207 0.68472 0.0
C2316 C 0.58199 0.56758 0.67012 0.0
C2317 C 0.60798 0.54074 0.68108 0.0
H2318 H 0.62187 0.56572 0.63471 0.0
H2319 H 0.567 0.5758 0.67265 0.0
C2320 C 0.57278 0.62444 0.56401 0.0
N2321 N 0.58365 0.63536 0.52255 0.0
C2322 C 0.57123 0.60938 0.54758 0.0
C2323 C 0.57981 0.64511 0.55925 0.0
C2324 C 0.57681 0.61519 0.52676 0.0
C2325 C 0.58524 0.65031 0.53823 0.0
C2326 C 0.58774 0.55777 0.59297 0.0
C2327 C 0.58832 0.55459 0.57084 0.0
C2328 C 0.58534 0.54012 0.60648 0.0
C2329 C 0.58647 0.53393 0.56264 0.0
C2330 C 0.58361 0.5197 0.59766 0.0
N2331 N 0.58419 0.51705 0.57611 0.0
C2332 C 0.62898 0.59437 0.56887 0.0
C2333 C 0.62745 0.63198 0.57088 0.0
C2334 C 0.64505 0.59541 0.55341 0.0
N2335 N 0.62011 0.61247 0.57699 0.0
C2336 C 0.64416 0.63381 0.55604 0.0
C2337 C 0.6531 0.61531 0.54695 0.0
H2338 H 0.62369 0.57899 0.57441 0.0
H2339 H 0.61992 0.64612 0.57703 0.0
C2340 C 0.52652 0.59061 0.5715 0.0
N2341 N 0.53929 0.57756 0.58325 0.0
C2342 C 0.51062 0.58203 0.55863 0.0
C2343 C 0.51983 0.54698 0.57207 0.0
C2344 C 0.53553 0.55627 0.58464 0.0
C2345 C 0.50775 0.55986 0.55824 0.0
H2346 H 0.52915 0.60766 0.57159 0.0
H2347 H 0.54489 0.54641 0.59515 0.0
O2348 O 0.59606 0.62085 0.62631 0.0
O2349 O 0.55324 0.59809 0.6282 0.0
O2350 O 0.56771 0.61895 0.58464 0.0
O2351 O 0.58986 0.57792 0.60133 0.0
H2352 H 0.60128 0.6083 0.66646 0.0
H2353 H 0.58437 0.6614 0.62668 0.0
H2354 H 0.59106 0.62931 0.69827 0.0
H2355 H 0.57414 0.6817 0.65921 0.0
H2356 H 0.51429 0.53869 0.64292 0.0
H2357 H 0.51506 0.61394 0.61941 0.0
H2358 H 0.54884 0.55784 0.64037 0.0
H2359 H 0.48108 0.59375 0.62216 0.0
H2360 H 0.51212 0.67125 0.65581 0.0
H2361 H 0.52391 0.68756 0.58973 0.0
H2362 H 0.63496 0.53814 0.65927 0.0
H2363 H 0.57908 0.54895 0.69866 0.0
H2364 H 0.56573 0.59338 0.55079 0.0
H2365 H 0.58168 0.65691 0.57174 0.0
H2366 H 0.5757 0.60365 0.51395 0.0
H2367 H 0.59088 0.66618 0.53442 0.0
H2368 H 0.59033 0.56788 0.56005 0.0
H2369 H 0.58431 0.54208 0.62357 0.0
H2370 H 0.5869 0.53131 0.54555 0.0
H2371 H 0.58165 0.50597 0.60797 0.0
H2372 H 0.65175 0.58069 0.54726 0.0
H2373 H 0.64967 0.64952 0.55138 0.0
H2374 H 0.50134 0.59247 0.54842 0.0
H2375 H 0.51813 0.52977 0.57225 0.0
Li2376 Li 0.92254 0.40598 0.13349 0.0
Li2377 Li 0.94551 0.37619 0.11765 0.0
Li2378 Li 0.94221 0.41253 0.1001 0.0
Li2379 Li 0.91219 0.38778 0.0994 0.0
C2380 C 0.96565 0.41304 0.14533 0.0
N2381 N 0.98903 0.42838 0.1795 0.0
C2382 C 0.96913 0.40018 0.16326 0.0
C2383 C 0.97405 0.43372 0.14482 0.0
C2384 C 0.98105 0.4082 0.18034 0.0
C2385 C 0.98578 0.44119 0.16225 0.0
C2386 C 0.91624 0.36486 0.14908 0.0
C2387 C 0.93221 0.33884 0.17264 0.0
N2388 N 0.923 0.34867 0.18967 0.0
C2389 C 0.90624 0.37417 0.16674 0.0
C2390 C 0.92857 0.34652 0.15201 0.0
C2391 C 0.91008 0.36594 0.18716 0.0
C2392 C 0.89289 0.43426 0.15383 0.0
N2393 N 0.91159 0.42385 0.15764 0.0
C2394 C 0.91637 0.44462 0.18961 0.0
C2395 C 0.92271 0.4281 0.17584 0.0
C2396 C 0.89836 0.45723 0.18474 0.0
C2397 C 0.88618 0.45121 0.16683 0.0
H2398 H 0.88373 0.43025 0.13986 0.0
H2399 H 0.93674 0.41908 0.1797 0.0
C2400 C 0.96439 0.33513 0.10848 0.0
N2401 N 0.96708 0.35333 0.12009 0.0
C2402 C 0.97959 0.31872 0.10911 0.0
C2403 C 1.0006 0.34005 0.13319 0.0
C2404 C 0.98515 0.35617 0.13183 0.0
C2405 C 0.99792 0.32078 0.12192 0.0
H2406 H 0.95026 0.33314 0.09889 0.0
H2407 H 0.98798 0.37109 0.13982 0.0
C2408 C 0.90739 0.43968 0.10637 0.0
N2409 N 0.89765 0.48275 0.10668 0.0
C2410 C 0.88893 0.44712 0.09628 0.0
C2411 C 0.92092 0.45421 0.11657 0.0
C2412 C 0.88425 0.46893 0.09664 0.0
C2413 C 0.91574 0.4759 0.11655 0.0
C2414 C 0.93776 0.37551 0.06731 0.0
C2415 C 0.94332 0.38706 0.04902 0.0
C2416 C 0.92829 0.35541 0.06513 0.0
C2417 C 0.93902 0.37846 0.02887 0.0
C2418 C 0.92422 0.34737 0.04471 0.0
N2419 N 0.92962 0.35897 0.02715 0.0
C2420 C 0.97498 0.44076 0.08492 0.0
C2421 C 0.94071 0.44124 0.06863 0.0
C2422 C 0.98177 0.45736 0.07165 0.0
N2423 N 0.95465 0.43338 0.08323 0.0
C2424 C 0.94658 0.45794 0.05553 0.0
C2425 C 0.96721 0.46612 0.0571 0.0
H2426 H 0.98581 0.43376 0.0964 0.0
H2427 H 0.92499 0.43444 0.06712 0.0
C2428 C 0.88634 0.3978 0.06485 0.0
N2429 N 0.88959 0.38163 0.07896 0.0
C2430 C 0.87051 0.39639 0.04925 0.0
C2431 C 0.86225 0.36095 0.06185 0.0
C2432 C 0.87857 0.36303 0.07711 0.0
C2433 C 0.8576 0.37809 0.048 0.0
H2434 H 0.89616 0.41188 0.06565 0.0
H2435 H 0.88263 0.34979 0.08723 0.0
O2436 O 0.95439 0.40533 0.12824 0.0
O2437 O 0.91461 0.37404 0.12924 0.0
O2438 O 0.91215 0.41829 0.1063 0.0
O2439 O 0.94141 0.38391 0.08719 0.0
H2440 H 0.96234 0.38431 0.16416 0.0
H2441 H 0.97165 0.44392 0.13112 0.0
H2442 H 0.98379 0.39845 0.19434 0.0
H2443 H 0.99234 0.45717 0.16205 0.0
H2444 H 0.94198 0.32479 0.17504 0.0
H2445 H 0.89557 0.38755 0.1647 0.0
H2446 H 0.93486 0.33795 0.13853 0.0
H2447 H 0.90286 0.37326 0.20104 0.0
H2448 H 0.92577 0.44752 0.20381 0.0
H2449 H 0.87202 0.45994 0.16219 0.0
H2450 H 0.97676 0.3045 0.09976 0.0
H2451 H 0.0148 0.34299 0.14259 0.0
H2452 H 0.87822 0.43618 0.08839 0.0
H2453 H 0.93516 0.44873 0.12457 0.0
H2454 H 0.86995 0.47485 0.08897 0.0
H2455 H 0.92606 0.48727 0.12445 0.0
H2456 H 0.951 0.40244 0.05031 0.0
H2457 H 0.92339 0.34644 0.07904 0.0
H2458 H 0.94319 0.38728 0.0146 0.0
H2459 H 0.91661 0.33198 0.04283 0.0
H2460 H 0.99801 0.46321 0.07264 0.0
H2461 H 0.93531 0.46409 0.04391 0.0
H2462 H 0.86834 0.40967 0.0384 0.0
H2463 H 0.85306 0.34632 0.06135 0.0
Li2464 Li 0.68525 0.66438 0.665 0.0
Li2465 Li 0.65608 0.65819 0.64101 0.0
Li2466 Li 0.67009 0.62735 0.66258 0.0
Li2467 Li 0.69105 0.64221 0.63151 0.0
C2468 C 0.6536 0.65375 0.69431 0.0
N2469 N 0.64775 0.65221 0.73811 0.0
C2470 C 0.63451 0.66095 0.70343 0.0
C2471 C 0.66979 0.64598 0.70757 0.0
C2472 C 0.63183 0.65998 0.72556 0.0
C2473 C 0.66652 0.64527 0.72964 0.0
C2474 C 0.67704 0.68865 0.62144 0.0
C2475 C 0.66599 0.70081 0.58657 0.0
N2476 N 0.66303 0.72078 0.59461 0.0
C2477 C 0.67401 0.70931 0.62932 0.0
C2478 C 0.67301 0.68434 0.59988 0.0
C2479 C 0.66685 0.72532 0.61552 0.0
C2480 C 0.71483 0.69303 0.68596 0.0
N2481 N 0.69437 0.68701 0.68202 0.0
C2482 C 0.68056 0.717 0.70081 0.0
C2483 C 0.6775 0.69881 0.68881 0.0
C2484 C 0.7013 0.7234 0.7056 0.0
C2485 C 0.71873 0.71147 0.69794 0.0
H2486 H 0.72797 0.68374 0.67967 0.0
H2487 H 0.66154 0.69437 0.68457 0.0
C2488 C 0.62633 0.68918 0.64977 0.0
N2489 N 0.63202 0.6764 0.63318 0.0
C2490 C 0.61128 0.7053 0.64727 0.0
C2491 C 0.60765 0.69526 0.61025 0.0
C2492 C 0.6233 0.67942 0.61348 0.0
C2493 C 0.60149 0.70846 0.6274 0.0
H2494 H 0.63372 0.68713 0.66503 0.0
H2495 H 0.629 0.67011 0.60022 0.0
C2496 C 0.71685 0.6254 0.67055 0.0
N2497 N 0.74982 0.60206 0.68834 0.0
C2498 C 0.72303 0.60599 0.66148 0.0
C2499 C 0.72748 0.63298 0.68867 0.0
C2500 C 0.73971 0.5944 0.6707 0.0
C2501 C 0.74409 0.62094 0.69744 0.0
C2502 C 0.66582 0.60937 0.61973 0.0
C2503 C 0.66249 0.58937 0.62902 0.0
C2504 C 0.67392 0.61062 0.59898 0.0
C2505 C 0.66827 0.57097 0.61781 0.0
C2506 C 0.68011 0.59188 0.58851 0.0
N2507 N 0.67709 0.5726 0.59802 0.0
C2508 C 0.6426 0.60471 0.69102 0.0
C2509 C 0.67554 0.58697 0.68686 0.0
C2510 C 0.63642 0.59056 0.70718 0.0
N2511 N 0.66215 0.60329 0.68163 0.0
C2512 C 0.66985 0.57211 0.70269 0.0
C2513 C 0.65024 0.57405 0.71366 0.0
H2514 H 0.63209 0.61757 0.68668 0.0
H2515 H 0.69075 0.58547 0.67901 0.0
C2516 C 0.72082 0.65633 0.59999 0.0
N2517 N 0.71353 0.63824 0.60964 0.0
C2518 C 0.73667 0.65543 0.58425 0.0
C2519 C 0.73839 0.61731 0.58912 0.0
C2520 C 0.72236 0.61895 0.60471 0.0
C2521 C 0.74573 0.63572 0.57854 0.0
H2522 H 0.71463 0.67168 0.60471 0.0
H2523 H 0.71682 0.60467 0.61257 0.0
O2524 O 0.65642 0.65447 0.67254 0.0
O2525 O 0.68353 0.67261 0.63482 0.0
O2526 O 0.70065 0.63709 0.66167 0.0
O2527 O 0.66118 0.62761 0.63086 0.0
H2528 H 0.62184 0.66719 0.69356 0.0
H2529 H 0.68462 0.64033 0.70091 0.0
H2530 H 0.61708 0.66541 0.73276 0.0
H2531 H 0.67889 0.63914 0.74003 0.0
H2532 H 0.6627 0.69767 0.56989 0.0
H2533 H 0.67702 0.71295 0.64593 0.0
H2534 H 0.67497 0.66836 0.59357 0.0
H2535 H 0.66431 0.74135 0.62144 0.0
H2536 H 0.66682 0.72611 0.70612 0.0
H2537 H 0.735 0.71619 0.70142 0.0
H2538 H 0.60701 0.71492 0.66101 0.0
H2539 H 0.60081 0.69742 0.59451 0.0
H2540 H 0.71454 0.59958 0.64792 0.0
H2541 H 0.72291 0.64795 0.69596 0.0
H2542 H 0.74452 0.57925 0.66393 0.0
H2543 H 0.75241 0.6266 0.71148 0.0
H2544 H 0.65533 0.58798 0.64462 0.0
H2545 H 0.67608 0.62595 0.5913 0.0
H2546 H 0.66583 0.5554 0.62489 0.0
H2547 H 0.68729 0.59268 0.5728 0.0
H2548 H 0.62119 0.59315 0.71492 0.0
H2549 H 0.68086 0.55928 0.70624 0.0
H2550 H 0.74217 0.67015 0.57702 0.0
H2551 H 0.74481 0.60173 0.58526 0.0
Li2552 Li 0.41811 0.38517 0.41007 0.0
Li2553 Li 0.4478 0.37253 0.38835 0.0
Li2554 Li 0.45264 0.40507 0.40729 0.0
Li2555 Li 0.42734 0.40544 0.37596 0.0
C2556 C 0.4473 0.37671 0.44174 0.0
N2557 N 0.44685 0.37722 0.48595 0.0
C2558 C 0.45393 0.35877 0.45328 0.0
C2559 C 0.44049 0.39491 0.45277 0.0
C2560 C 0.45358 0.35934 0.4756 0.0
C2561 C 0.44037 0.39486 0.47508 0.0
C2562 C 0.41823 0.36335 0.36024 0.0
C2563 C 0.4198 0.36173 0.32169 0.0
N2564 N 0.42827 0.34178 0.32293 0.0
C2565 C 0.42574 0.34242 0.36101 0.0
C2566 C 0.41478 0.3729 0.34035 0.0
C2567 C 0.43151 0.33207 0.34207 0.0
C2568 C 0.38954 0.39636 0.44335 0.0
N2569 N 0.39548 0.3795 0.431 0.0
C2570 C 0.37033 0.35714 0.44959 0.0
C2571 C 0.38657 0.35993 0.43423 0.0
C2572 C 0.36344 0.37459 0.46215 0.0
C2573 C 0.37369 0.3943 0.45885 0.0
H2574 H 0.39703 0.41166 0.44128 0.0
H2575 H 0.39211 0.34646 0.42496 0.0
C2576 C 0.47955 0.34682 0.36486 0.0
N2577 N 0.46608 0.34779 0.38191 0.0
C2578 C 0.49402 0.32986 0.36271 0.0
C2579 C 0.47949 0.31423 0.39476 0.0
C2580 C 0.46569 0.33173 0.39656 0.0
C2581 C 0.49441 0.31324 0.37794 0.0
H2582 H 0.4794 0.35932 0.35301 0.0
H2583 H 0.45451 0.33248 0.40969 0.0
C2584 C 0.41098 0.43374 0.4089 0.0
N2585 N 0.38625 0.46989 0.41471 0.0
C2586 C 0.39109 0.43545 0.39904 0.0
C2587 C 0.41783 0.45001 0.42258 0.0
C2588 C 0.37904 0.45403 0.40175 0.0
C2589 C 0.40516 0.46818 0.42524 0.0
C2590 C 0.47723 0.40051 0.36655 0.0
C2591 C 0.49635 0.39733 0.37758 0.0
C2592 C 0.47753 0.40375 0.34446 0.0
C2593 C 0.51558 0.39742 0.36623 0.0
C2594 C 0.49708 0.40372 0.3337 0.0
N2595 N 0.51554 0.40058 0.34471 0.0
C2596 C 0.48253 0.41901 0.43814 0.0
C2597 C 0.4705 0.44405 0.41233 0.0
C2598 C 0.48951 0.43543 0.45133 0.0
N2599 N 0.47167 0.42383 0.42003 0.0
C2600 C 0.47728 0.46098 0.42494 0.0
C2601 C 0.48534 0.45665 0.44538 0.0
H2602 H 0.4839 0.40262 0.44338 0.0
H2603 H 0.46192 0.44714 0.39765 0.0
C2604 C 0.39754 0.42843 0.34823 0.0
N2605 N 0.41812 0.42677 0.35503 0.0
C2606 C 0.39114 0.44555 0.33537 0.0
C2607 C 0.42715 0.45893 0.33615 0.0
C2608 C 0.43278 0.44179 0.34942 0.0
C2609 C 0.40601 0.46104 0.3287 0.0
H2610 H 0.38589 0.41664 0.35311 0.0
H2611 H 0.44886 0.44073 0.35563 0.0
O2612 O 0.44716 0.37617 0.41982 0.0
O2613 O 0.41584 0.37492 0.37872 0.0
O2614 O 0.42343 0.41603 0.40555 0.0
O2615 O 0.45823 0.4004 0.37726 0.0
H2616 H 0.4593 0.34452 0.44513 0.0
H2617 H 0.43554 0.40904 0.44425 0.0
H2618 H 0.45865 0.34555 0.4847 0.0
H2619 H 0.43516 0.40887 0.48376 0.0
H2620 H 0.41728 0.36906 0.30624 0.0
H2621 H 0.42749 0.33441 0.37619 0.0
H2622 H 0.40859 0.38884 0.33918 0.0
H2623 H 0.43816 0.31612 0.34259 0.0
H2624 H 0.36353 0.3414 0.45171 0.0
H2625 H 0.3691 0.4085 0.46754 0.0
H2626 H 0.50515 0.33027 0.3495 0.0
H2627 H 0.4784 0.30169 0.40659 0.0
H2628 H 0.38505 0.42251 0.38942 0.0
H2629 H 0.43256 0.44852 0.4314 0.0
H2630 H 0.36392 0.45583 0.39362 0.0
H2631 H 0.41036 0.48092 0.43568 0.0
H2632 H 0.49633 0.39466 0.39467 0.0
H2633 H 0.4628 0.40606 0.33571 0.0
H2634 H 0.53053 0.39493 0.37451 0.0
H2635 H 0.49757 0.40614 0.31659 0.0
H2636 H 0.49627 0.43162 0.4668 0.0
H2637 H 0.47391 0.47715 0.4198 0.0
H2638 H 0.37462 0.44642 0.33068 0.0
H2639 H 0.43922 0.47067 0.33228 0.0
Li2640 Li 0.0985 0.60641 0.91273 0.0
Li2641 Li 0.07258 0.62271 0.88859 0.0
Li2642 Li 0.06278 0.5903 0.90705 0.0
Li2643 Li 0.08959 0.58804 0.87882 0.0
C2644 C 0.06799 0.61871 0.94138 0.0
N2645 N 0.06346 0.61936 0.98532 0.0
C2646 C 0.06202 0.63754 0.95179 0.0
C2647 C 0.07159 0.60019 0.95334 0.0
C2648 C 0.05982 0.63755 0.97401 0.0
C2649 C 0.06925 0.60085 0.97553 0.0
C2650 C 0.10404 0.63091 0.86576 0.0
C2651 C 0.09835 0.63837 0.82834 0.0
N2652 N 0.09343 0.6589 0.8333 0.0
C2653 C 0.10081 0.65244 0.87021 0.0
C2654 C 0.10344 0.62392 0.84455 0.0
C2655 C 0.0943 0.66605 0.85378 0.0
C2656 C 0.1257 0.59381 0.94715 0.0
N2657 N 0.11934 0.61091 0.93535 0.0
C2658 C 0.14156 0.63394 0.95644 0.0
C2659 C 0.12647 0.63086 0.94014 0.0
C2660 C 0.14951 0.61631 0.96808 0.0
C2661 C 0.14085 0.59608 0.96336 0.0
H2662 H 0.1192 0.57822 0.94398 0.0
H2663 H 0.12065 0.64438 0.93109 0.0
C2664 C 0.04104 0.64829 0.86684 0.0
N2665 N 0.05652 0.64872 0.88205 0.0
C2666 C 0.02667 0.66532 0.86472 0.0
C2667 C 0.04481 0.68344 0.89342 0.0
C2668 C 0.05853 0.66587 0.89528 0.0
C2669 C 0.02816 0.68325 0.8783 0.0
H2670 H 0.03911 0.63427 0.85699 0.0
H2671 H 0.07055 0.66574 0.90768 0.0
C2672 C 0.10429 0.5591 0.90956 0.0
N2673 N 0.13219 0.52497 0.91184 0.0
C2674 C 0.12498 0.56096 0.9014 0.0
C2675 C 0.09798 0.54006 0.91935 0.0
C2676 C 0.13876 0.54342 0.90248 0.0
C2677 C 0.11229 0.52298 0.92031 0.0
C2678 C 0.04975 0.58747 0.85942 0.0
C2679 C 0.03602 0.57005 0.86189 0.0
C2680 C 0.05396 0.59529 0.83893 0.0
C2681 C 0.02722 0.56039 0.8438 0.0
C2682 C 0.04486 0.58521 0.82123 0.0
N2683 N 0.03181 0.56808 0.82401 0.0
C2684 C 0.0238 0.59093 0.92729 0.0
C2685 C 0.03765 0.55635 0.92012 0.0
C2686 C 0.00657 0.58227 0.93829 0.0
N2687 N 0.03917 0.57789 0.91926 0.0
C2688 C 0.02075 0.54699 0.93091 0.0
C2689 C 1.00533 0.56006 0.94075 0.0
H2690 H 0.02536 0.60806 0.92576 0.0
H2691 H 0.04976 0.54655 0.91271 0.0
C2692 C 0.11932 0.56784 0.84895 0.0
N2693 N 0.0998 0.56658 0.85848 0.0
C2694 C 0.12655 0.55139 0.83559 0.0
C2695 C 0.09406 0.53203 0.84281 0.0
C2696 C 0.08754 0.54877 0.85613 0.0
C2697 C 0.11373 0.53324 0.83205 0.0
H2698 H 0.12952 0.58142 0.85201 0.0
H2699 H 0.07278 0.54735 0.86492 0.0
O2700 O 0.0703 0.61855 0.9196 0.0
O2701 O 0.10483 0.61651 0.88219 0.0
O2702 O 0.09033 0.5759 0.9082 0.0
O2703 O 0.05881 0.59695 0.87696 0.0
H2704 H 0.05909 0.65201 0.94282 0.0
H2705 H 0.07615 0.58542 0.94566 0.0
H2706 H 0.05522 0.65201 0.98227 0.0
H2707 H 0.07203 0.58665 0.98496 0.0
H2708 H 0.09736 0.63303 0.81192 0.0
H2709 H 0.10161 0.65817 0.88649 0.0
H2710 H 0.10564 0.60735 0.84059 0.0
H2711 H 0.08924 0.68209 0.85742 0.0
H2712 H 0.14691 0.65002 0.95969 0.0
H2713 H 0.14625 0.58177 0.97136 0.0
H2714 H 0.01394 0.66382 0.85315 0.0
H2715 H 0.04708 0.69681 0.90412 0.0
H2716 H 0.13023 0.57573 0.89412 0.0
H2717 H 0.08233 0.5385 0.92642 0.0
H2718 H 0.15466 0.54439 0.89586 0.0
H2719 H 0.10759 0.50815 0.92782 0.0
H2720 H 0.0323 0.56387 0.87754 0.0
H2721 H 0.06399 0.60908 0.83668 0.0
H2722 H 0.01674 0.54677 0.84551 0.0
H2723 H 0.04811 0.59106 0.80529 0.0
H2724 H 0.9949 0.59278 0.94556 0.0
H2725 H 0.02055 0.52978 0.93263 0.0
H2726 H 0.14217 0.55281 0.82833 0.0
H2727 H 0.0836 0.51843 0.84075 0.0
Li2728 Li 0.31597 0.37132 0.37456 0.0
Li2729 Li 0.34541 0.35091 0.36001 0.0
Li2730 Li 0.33469 0.38512 0.34102 0.0
Li2731 Li 0.31213 0.35346 0.34043 0.0
C2732 C 0.34211 0.39923 0.38397 0.0
N2733 N 0.32949 0.43261 0.4101 0.0
C2734 C 0.34902 0.40016 0.40511 0.0
C2735 C 0.32911 0.41555 0.37604 0.0
C2736 C 0.34235 0.41708 0.41813 0.0
C2737 C 0.32289 0.43224 0.38944 0.0
C2738 C 0.32093 0.32298 0.38082 0.0
C2739 C 0.32536 0.28481 0.38412 0.0
N2740 N 0.32938 0.28719 0.40534 0.0
C2741 C 0.32502 0.32498 0.40268 0.0
C2742 C 0.32101 0.30268 0.37148 0.0
C2743 C 0.32927 0.30674 0.4148 0.0
C2744 C 0.27671 0.37603 0.39475 0.0
N2745 N 0.2979 0.3763 0.39949 0.0
C2746 C 0.28967 0.37727 0.43696 0.0
C2747 C 0.30453 0.37678 0.42023 0.0
C2748 C 0.26767 0.37663 0.43252 0.0
C2749 C 0.26132 0.37636 0.41097 0.0
H2750 H 0.2717 0.37459 0.37831 0.0
H2751 H 0.32127 0.37555 0.42404 0.0
C2752 C 0.37758 0.32137 0.34809 0.0
N2753 N 0.36881 0.33078 0.36559 0.0
C2754 C 0.39207 0.30457 0.3501 0.0
C2755 C 0.39022 0.30841 0.38836 0.0
C2756 C 0.37502 0.32474 0.38555 0.0
C2757 C 0.39902 0.29797 0.37041 0.0
H2758 H 0.37368 0.32705 0.33239 0.0
H2759 H 0.36804 0.33241 0.39933 0.0
C2760 C 0.29065 0.39248 0.33233 0.0
N2761 N 0.26539 0.41236 0.30204 0.0
C2762 C 0.29678 0.39262 0.31087 0.0
C2763 C 0.27179 0.40277 0.33843 0.0
C2764 C 0.28379 0.40265 0.29578 0.0
C2765 C 0.25919 0.41264 0.32287 0.0
C2766 C 0.34096 0.34484 0.31035 0.0
C2767 C 0.34333 0.35477 0.29046 0.0
C2768 C 0.338 0.3227 0.31119 0.0
C2769 C 0.34268 0.34245 0.27186 0.0
C2770 C 0.33744 0.31093 0.29224 0.0
N2771 N 0.33977 0.32097 0.27312 0.0
C2772 C 0.36347 0.40357 0.31142 0.0
C2773 C 0.33387 0.4261 0.31799 0.0
C2774 C 0.37053 0.41697 0.29494 0.0
N2775 N 0.34515 0.40798 0.32228 0.0
C2776 C 0.3405 0.4401 0.30183 0.0
C2777 C 0.35891 0.43551 0.28971 0.0
H2778 H 0.37217 0.38907 0.31496 0.0
H2779 H 0.31927 0.42949 0.32655 0.0
C2780 C 0.28172 0.32203 0.33484 0.0
N2781 N 0.29217 0.33788 0.32434 0.0
C2782 C 0.27139 0.30609 0.32334 0.0
C2783 C 0.28036 0.32483 0.29072 0.0
C2784 C 0.29057 0.34027 0.30283 0.0
C2785 C 0.27171 0.30689 0.30096 0.0
H2786 H 0.28272 0.32092 0.35203 0.0
H2787 H 0.29891 0.35292 0.29474 0.0
O2788 O 0.34708 0.38197 0.37141 0.0
O2789 O 0.31699 0.34075 0.36864 0.0
O2790 O 0.30338 0.38302 0.3474 0.0
O2791 O 0.34154 0.35662 0.32887 0.0
H2792 H 0.35865 0.38743 0.41152 0.0
H2793 H 0.32349 0.4152 0.35986 0.0
H2794 H 0.3471 0.41784 0.43466 0.0
H2795 H 0.31268 0.44483 0.38345 0.0
H2796 H 0.32553 0.26905 0.37706 0.0
H2797 H 0.32553 0.34047 0.41013 0.0
H2798 H 0.31771 0.30064 0.35467 0.0
H2799 H 0.33268 0.30816 0.43169 0.0
H2800 H 0.2954 0.37721 0.45322 0.0
H2801 H 0.2446 0.37609 0.40658 0.0
H2802 H 0.39876 0.29781 0.33565 0.0
H2803 H 0.39481 0.30393 0.40441 0.0
H2804 H 0.31161 0.38532 0.30597 0.0
H2805 H 0.26699 0.40337 0.35502 0.0
H2806 H 0.2884 0.40283 0.27912 0.0
H2807 H 0.24454 0.42062 0.32739 0.0
H2808 H 0.34535 0.37183 0.28924 0.0
H2809 H 0.33613 0.3147 0.32634 0.0
H2810 H 0.34441 0.34998 0.2564 0.0
H2811 H 0.33509 0.29383 0.29274 0.0
H2812 H 0.38471 0.41249 0.2861 0.0
H2813 H 0.33123 0.45439 0.29894 0.0
H2814 H 0.26451 0.29263 0.33174 0.0
H2815 H 0.28112 0.32594 0.27346 0.0
H2816 H 0.99734 0.01253 0.07596 0.0
H2817 H 0.01452 0.97291 0.95689 0.0
H2818 H 0.03043 0.04881 0.02745 0.0
H2819 H 0.99135 0.93177 0.00724 0.0
H2820 H 0.02351 0.99966 0.98339 0.0
H2821 H 0.99592 0.98212 0.05145 0.0
C2822 C 1.00407 0.01414 0.06009 0.0
C2823 C 0.01368 0.03328 0.05358 0.0
C2824 C 0.01678 0.98465 0.98873 0.0
C2825 C 0.01248 0.99869 0.02575 0.0
C2826 C 0.01191 0.96921 0.9736 0.0
C2827 C 1.00181 0.95026 0.97986 0.0
C2828 C 0.01124 0.98118 0.01018 0.0
C2829 C 0.99861 0.94647 1.00173 0.0
C2830 C 1.00345 0.99678 0.04621 0.0
C2831 C 0.0223 0.03457 0.03293 0.0
N2832 N 1.00292 0.96202 0.01614 0.0
N2833 N 0.02147 0.0175 0.01975 0.0
H2834 H 0.26392 0.70334 0.25009 0.0
H2835 H 0.28011 0.82561 0.26969 0.0
H2836 H 0.30247 0.74181 0.20767 0.0
H2837 H 0.26269 0.78111 0.31947 0.0
H2838 H 0.29143 0.79555 0.24744 0.0
H2839 H 0.26463 0.73211 0.27619 0.0
C2840 C 0.27252 0.71785 0.24627 0.0
C2841 C 0.28291 0.72029 0.2266 0.0
C2842 C 0.2857 0.79247 0.26348 0.0
C2843 C 0.2838 0.75327 0.25634 0.0
C2844 C 0.27929 0.80958 0.27616 0.0
C2845 C 0.27003 0.80577 0.29622 0.0
C2846 C 0.28253 0.77158 0.27095 0.0
C2847 C 0.26963 0.7848 0.30406 0.0
C2848 C 0.27305 0.73421 0.26122 0.0
C2849 C 0.29373 0.73949 0.22242 0.0
N2850 N 0.27531 0.76842 0.29119 0.0
N2851 N 0.29374 0.75537 0.23713 0.0
H2852 H 0.50293 0.00411 0.56324 0.0
H2853 H 0.48563 0.02466 0.43918 0.0
H2854 H 0.47354 0.95883 0.52031 0.0
H2855 H 0.50916 0.07245 0.48292 0.0
H2856 H 0.47677 1.00188 0.46956 0.0
H2857 H 0.5027 0.03063 0.53455 0.0
C2858 C 0.49664 0.99972 0.54773 0.0
C2859 C 0.48869 0.97916 0.54398 0.0
C2860 C 0.48345 0.01754 0.47255 0.0
C2861 C 0.48802 0.0093 0.51135 0.0
C2862 C 0.48835 0.03055 0.45524 0.0
C2863 C 0.49833 0.05025 0.45864 0.0
C2864 C 0.48886 0.02427 0.49327 0.0
C2865 C 0.50143 0.05733 0.47966 0.0
C2866 C 0.49634 0.01486 0.53144 0.0
C2867 C 0.4805 0.97428 0.52369 0.0
N2868 N 0.4971 0.04413 0.49624 0.0
N2869 N 0.48044 0.98924 0.50812 0.0
H2870 H 0.27429 0.23573 0.81114 0.0
H2871 H 0.23009 0.26554 0.69578 0.0
H2872 H 0.2424 0.19079 0.76963 0.0
H2873 H 0.26085 0.31069 0.7379 0.0
H2874 H 0.235 0.23778 0.72244 0.0
H2875 H 0.26791 0.26378 0.78518 0.0
C2876 C 0.26542 0.23187 0.79679 0.0
C2877 C 0.25881 0.2109 0.7925 0.0
C2878 C 0.24082 0.25371 0.72581 0.0
C2879 C 0.25224 0.24278 0.76239 0.0
C2880 C 0.23834 0.2695 0.71047 0.0
C2881 C 0.24522 0.2904 0.71465 0.0
C2882 C 0.25014 0.25891 0.74548 0.0
C2883 C 0.25525 0.29478 0.73415 0.0
C2884 C 0.2621 0.24785 0.78182 0.0
C2885 C 0.24791 0.20672 0.77342 0.0
N2886 N 0.25733 0.27913 0.74895 0.0
N2887 N 0.24512 0.22254 0.75892 0.0
H2888 H 0.97647 0.97151 0.43941 0.0
H2889 H 0.99773 0.00456 0.55873 0.0
H2890 H 0.00638 0.92991 0.48553 0.0
H2891 H 0.95577 0.03962 0.51666 0.0
H2892 H 0.99762 0.97496 0.53333 0.0
H2893 H 0.96425 0.99434 0.4686 0.0
C2894 C 0.97993 0.96692 0.45573 0.0
C2895 C 0.99267 0.94907 0.46012 0.0
C2896 C 0.98828 0.98907 0.52976 0.0
C2897 C 0.97927 0.97513 0.49341 0.0
C2898 C 0.98843 0.00597 0.54421 0.0
C2899 C 0.97721 0.02475 0.53952 0.0
C2900 C 0.97693 0.99109 0.5105 0.0
C2901 C 0.96529 0.02572 0.52056 0.0
C2902 C 0.97302 0.97992 0.47238 0.0
C2903 C 0.99659 0.94358 0.48149 0.0
N2904 N 0.96566 0.00922 0.50662 0.0
N2905 N 0.9903 0.95685 0.49737 0.0
H2906 H 0.26531 0.81359 0.75904 0.0
H2907 H 0.28685 0.69062 0.77475 0.0
H2908 H 0.29613 0.77307 0.71243 0.0
H2909 H 0.26149 0.73137 0.82421 0.0
H2910 H 0.29792 0.72221 0.75486 0.0
H2911 H 0.26934 0.78519 0.78562 0.0
C2912 C 0.27282 0.7987 0.75441 0.0
C2913 C 0.27977 0.79539 0.73338 0.0
C2914 C 0.29047 0.7243 0.77034 0.0
C2915 C 0.28482 0.76316 0.76359 0.0
C2916 C 0.28437 0.70626 0.78173 0.0
C2917 C 0.27298 0.70855 0.80083 0.0
C2918 C 0.28466 0.74459 0.778 0.0
C2919 C 0.27016 0.72904 0.8094 0.0
C2920 C 0.27531 0.7826 0.76958 0.0
C2921 C 0.28974 0.77598 0.72824 0.0
N2922 N 0.27542 0.74639 0.7976 0.0
N2923 N 0.29181 0.76056 0.7432 0.0
H2924 H 0.49917 0.06669 0.9867 0.0
H2925 H 0.54177 0.95021 0.01311 0.0
H2926 H 0.53018 0.0259 0.94043 0.0
H2927 H 0.50599 0.98934 0.0573 0.0
H2928 H 0.54188 0.97953 0.98763 0.0
H2929 H 0.50792 0.04124 0.0146 0.0
C2930 C 0.50843 0.05269 0.98249 0.0
C2931 C 0.5137 0.0482 0.96115 0.0
C2932 C 0.53397 0.98171 0.00287 0.0
C2933 C 0.52297 0.01867 0.99289 0.0
C2934 C 0.53357 0.96487 0.01728 0.0
C2935 C 0.52345 0.96727 0.03715 0.0
C2936 C 0.5242 1.00108 0.00839 0.0
C2937 C 0.51383 0.98685 0.04208 0.0
C2938 C 0.51313 0.03801 0.99841 0.0
C2939 C 0.52544 0.0297 0.95664 0.0
N2940 N 0.51437 0.00303 0.02771 0.0
N2941 N 0.52938 0.01537 0.97236 0.0
H2942 H 0.28337 0.26588 0.3093 0.0
H2943 H 0.24923 0.22694 0.19335 0.0
H2944 H 0.24998 0.30486 0.26322 0.0
H2945 H 0.27104 0.18343 0.24232 0.0
H2946 H 0.25457 0.2565 0.21763 0.0
H2947 H 0.28135 0.23571 0.28473 0.0
C2948 C 0.27513 0.26793 0.29422 0.0
C2949 C 0.26675 0.28783 0.28823 0.0
C2950 C 0.2584 0.24052 0.22304 0.0
C2951 C 0.26518 0.25377 0.25988 0.0
C2952 C 0.25576 0.22361 0.20902 0.0
C2953 C 0.25961 0.20262 0.21586 0.0
C2954 C 0.26481 0.23644 0.24408 0.0
C2955 C 0.2676 0.19935 0.23654 0.0
C2956 C 0.2743 0.25081 0.2801 0.0
C2957 C 0.25675 0.2898 0.26833 0.0
N2958 N 0.26971 0.21613 0.25008 0.0
N2959 N 0.25638 0.27298 0.25477 0.0
H2960 H 0.49198 0.50527 0.05776 0.0
H2961 H 0.47733 0.47153 0.93787 0.0
H2962 H 0.45068 0.53873 0.01379 0.0
H2963 H 0.5064 0.43087 0.98537 0.0
H2964 H 0.46275 0.4937 0.96645 0.0
H2965 H 0.4935 0.47535 0.03275 0.0
C2966 C 0.48314 0.50624 0.04292 0.0
C2967 C 0.47175 0.52471 0.03751 0.0
C2968 C 0.47186 0.47961 0.97065 0.0
C2969 C 0.47337 0.49075 0.00893 0.0
C2970 C 0.48015 0.467 0.95434 0.0
C2971 C 0.49331 0.44963 0.95934 0.0
C2972 C 0.47715 0.47494 0.99197 0.0
C2973 C 0.49634 0.44419 0.98086 0.0
C2974 C 0.48393 0.48917 0.02869 0.0
C2975 C 0.46037 0.52511 0.0182 0.0
N2976 N 0.48869 0.45711 0.99644 0.0
N2977 N 0.46172 0.5085 0.00446 0.0
H2978 H 0.78273 0.27056 0.20232 0.0
H2979 H 0.74824 0.2289 0.31734 0.0
H2980 H 0.75017 0.30922 0.24935 0.0
H2981 H 0.77406 0.18795 0.26811 0.0
H2982 H 0.75412 0.2596 0.29442 0.0
H2983 H 0.78244 0.24071 0.22711 0.0
C2984 C 0.77506 0.27263 0.21771 0.0
C2985 C 0.7662 0.29233 0.22373 0.0
C2986 C 0.75879 0.24395 0.28872 0.0
C2987 C 0.76663 0.25848 0.25245 0.0
C2988 C 0.75579 0.22642 0.30195 0.0
C2989 C 0.76052 0.20582 0.2945 0.0
C2990 C 0.76642 0.24081 0.26791 0.0
C2991 C 0.7699 0.20356 0.27428 0.0
C2992 C 0.77525 0.25568 0.23198 0.0
C2993 C 0.75717 0.2943 0.24412 0.0
N2994 N 0.77227 0.22087 0.26151 0.0
N2995 N 0.75766 0.27755 0.25781 0.0
H2996 H 0.98971 0.42531 0.51026 0.0
H2997 H 0.02271 0.51383 0.43324 0.0
H2998 H 0.05513 0.43875 0.49348 0.0
H2999 H 0.95801 0.49038 0.43755 0.0
H3000 H 0.03553 0.47988 0.44681 0.0
H3001 H 0.97824 0.44098 0.47641 0.0
C3002 C 1.00167 0.43097 0.49909 0.0
C3003 C 0.02324 0.43164 0.50482 0.0
C3004 C 0.01853 0.48191 0.44437 0.0
C3005 C 0.01041 0.44989 0.46657 0.0
C3006 C 0.0112 0.50137 0.43658 0.0
C3007 C 0.98921 0.50522 0.43512 0.0
C3008 C 1.00373 0.4665 0.45126 0.0
C3009 C 0.97508 0.48838 0.43946 0.0
C3010 C 0.99517 0.43994 0.47978 0.0
C3011 C 0.03822 0.43878 0.48982 0.0
N3012 N 0.98254 0.46991 0.44791 0.0
N3013 N 0.03149 0.44818 0.47155 0.0
H3014 H 0.75772 0.73097 0.32469 0.0
H3015 H 0.72124 0.76641 0.2086 0.0
H3016 H 0.73332 0.68734 0.27716 0.0
H3017 H 0.7509 0.80849 0.25448 0.0
H3018 H 0.72006 0.73839 0.23551 0.0
H3019 H 0.74777 0.76078 0.30198 0.0
C3020 C 0.74962 0.72765 0.30977 0.0
C3021 C 0.74667 0.70662 0.3026 0.0
C3022 C 0.72682 0.75374 0.23972 0.0
C3023 C 0.73603 0.74067 0.27623 0.0
C3024 C 0.72782 0.76963 0.22428 0.0
C3025 C 0.73669 0.7896 0.22923 0.0
C3026 C 0.73474 0.75785 0.26025 0.0
C3027 C 0.74415 0.79322 0.25 0.0
C3028 C 0.74422 0.74471 0.29667 0.0
C3029 C 0.73632 0.70332 0.28303 0.0
N3030 N 0.74314 0.7774 0.26476 0.0
N3031 N 0.73172 0.7202 0.2703 0.0
H3032 H 0.77088 0.20007 0.75515 0.0
H3033 H 0.78347 0.32452 0.77266 0.0
H3034 H 0.79752 0.24259 0.70777 0.0
H3035 H 0.76438 0.28022 0.82201 0.0
H3036 H 0.79409 0.29435 0.75033 0.0
H3037 H 0.77233 0.22892 0.78127 0.0
C3038 C 0.77699 0.21549 0.75026 0.0
C3039 C 0.7837 0.21907 0.72921 0.0
C3040 C 0.78807 0.29128 0.76626 0.0
C3041 C 0.78555 0.25208 0.75892 0.0
C3042 C 0.78208 0.30849 0.77901 0.0
C3043 C 0.77263 0.30483 0.799 0.0
C3044 C 0.78437 0.27041 0.77359 0.0
C3045 C 0.77153 0.28381 0.80667 0.0
C3046 C 0.77794 0.23192 0.76517 0.0
C3047 C 0.79155 0.23933 0.72369 0.0
N3048 N 0.77689 0.26734 0.79375 0.0
N3049 N 0.79212 0.25514 0.73843 0.0
H3050 H 0.73585 0.78784 0.81337 0.0
H3051 H 0.72632 0.75815 0.69789 0.0
H3052 H 0.74427 0.83719 0.76569 0.0
H3053 H 0.6825 0.7311 0.74374 0.0
H3054 H 0.73198 0.7885 0.722 0.0
H3055 H 0.71313 0.76866 0.78889 0.0
C3056 C 0.73248 0.79508 0.79804 0.0
C3057 C 0.74274 0.81385 0.79135 0.0
C3058 C 0.72074 0.77614 0.7265 0.0
C3059 C 0.7174 0.79132 0.76295 0.0
C3060 C 0.71785 0.75876 0.71298 0.0
C3061 C 0.70431 0.74214 0.71919 0.0
C3062 C 0.71037 0.77644 0.74641 0.0
C3063 C 0.69325 0.74364 0.73861 0.0
C3064 C 0.7195 0.78397 0.78398 0.0
C3065 C 0.73762 0.82221 0.77114 0.0
N3066 N 0.69684 0.76036 0.75179 0.0
N3067 N 0.72587 0.81047 0.75729 0.0
H3068 H 0.46901 0.45428 0.48541 0.0
H3069 H 0.50718 0.5707 0.51618 0.0
H3070 H 0.49995 0.49773 0.44169 0.0
H3071 H 0.48072 0.52565 0.56121 0.0
H3072 H 0.49611 0.54763 0.48699 0.0
H3073 H 0.46669 0.48275 0.51174 0.0
C3074 C 0.47563 0.46978 0.4815 0.0
C3075 C 0.48528 0.47358 0.46163 0.0
C3076 C 0.4923 0.54299 0.50322 0.0
C3077 C 0.48207 0.50636 0.4914 0.0
C3078 C 0.49836 0.55629 0.51991 0.0
C3079 C 0.49526 0.54976 0.54113 0.0
C3080 C 0.48332 0.52303 0.5079 0.0
C3081 C 0.48387 0.53093 0.54503 0.0
C3082 C 0.47396 0.48611 0.49639 0.0
C3083 C 0.4927 0.49414 0.45699 0.0
N3084 N 0.4787 0.51793 0.52854 0.0
N3085 N 0.49114 0.50978 0.4719 0.0
H3086 H 0.99549 0.5752 0.9804 0.0
H3087 H 0.98859 0.45956 0.0206 0.0
H3088 H 0.98273 0.52291 0.93723 0.0
H3089 H 0.95784 0.50834 0.05827 0.0
H3090 H 0.99122 0.4847 0.99076 0.0
H3091 H 0.98271 0.55338 0.01004 0.0
C3092 C 0.98921 0.55946 0.97699 0.0
C3093 C 0.9907 0.55054 0.95645 0.0
C3094 C 0.984 0.48991 0.00561 0.0
C3095 C 0.97704 0.52558 0.9902 0.0
C3096 C 0.98298 0.47581 0.02265 0.0
C3097 C 0.97348 0.48231 0.04175 0.0
C3098 C 0.9756 0.51054 0.00794 0.0
C3099 C 0.96572 0.50318 0.04374 0.0
C3100 C 0.98214 0.54699 0.99396 0.0
C3101 C 0.98244 0.53006 0.95298 0.0
N3102 N 0.96707 0.51679 0.02694 0.0
N3103 N 0.97655 0.51794 0.96987 0.0
H3104 H 0.14761 0.0267 0.18628 0.0
H3105 H 0.10834 0.94269 0.27439 0.0
H3106 H 0.0821 0.02153 0.20739 0.0
H3107 H 0.17466 0.95735 0.26237 0.0
H3108 H 0.0982 0.96768 0.2463 0.0
H3109 H 0.15717 0.99765 0.21026 0.0
C3110 C 0.1351 0.01944 0.19572 0.0
C3111 C 0.114 0.02719 0.19495 0.0
C3112 C 0.11498 0.96533 0.24974 0.0
C3113 C 0.12505 0.99345 0.22264 0.0
C3114 C 0.12086 0.95091 0.26578 0.0
C3115 C 0.14247 0.94796 0.27123 0.0
C3116 C 0.13077 0.97684 0.23875 0.0
C3117 C 0.15778 0.95938 0.25934 0.0
C3118 C 0.14068 0.00281 0.20956 0.0
C3119 C 0.0987 0.01678 0.20779 0.0
N3120 N 0.15164 0.97332 0.2438 0.0
N3121 N 0.10454 1.00059 0.22111 0.0
H3122 H 0.32034 0.86539 0.54424 0.0
H3123 H 0.27892 0.90374 0.42906 0.0
H3124 H 0.35703 0.90515 0.50148 0.0
H3125 H 0.24118 0.86558 0.47233 0.0
H3126 H 0.30755 0.90456 0.45551 0.0
H3127 H 0.29163 0.86434 0.51772 0.0
C3128 C 0.32248 0.8737 0.52921 0.0
C3129 C 0.34121 0.88537 0.52513 0.0
C3130 C 0.29297 0.89606 0.45927 0.0
C3131 C 0.30803 0.8847 0.49492 0.0
C3132 C 0.27647 0.89576 0.44421 0.0
C3133 C 0.25746 0.8846 0.44839 0.0
C3134 C 0.29056 0.8851 0.47874 0.0
C3135 C 0.25556 0.8742 0.46824 0.0
C3136 C 0.30594 0.87331 0.51418 0.0
C3137 C 0.34282 0.89616 0.50548 0.0
N3138 N 0.27187 0.87467 0.48261 0.0
N3139 N 0.32647 0.8956 0.49119 0.0
H3140 H 0.39995 0.06514 0.77712 0.0
H3141 H 0.35893 0.98034 0.69069 0.0
H3142 H 0.33369 0.04765 0.76931 0.0
H3143 H 0.42552 0.9902 0.70577 0.0
H3144 H 0.34946 0.00811 0.71618 0.0
H3145 H 0.40933 0.04103 0.74805 0.0
C3146 C 0.38727 0.05647 0.76925 0.0
C3147 C 0.36594 0.05839 0.77615 0.0
C3148 C 0.36616 0.00425 0.71384 0.0
C3149 C 0.37677 0.03051 0.7425 0.0
C3150 C 0.37167 0.98837 0.69912 0.0
C3151 C 0.39314 0.98234 0.69615 0.0
C3152 C 0.38218 0.01455 0.72564 0.0
C3153 C 0.40872 0.99362 0.70782 0.0
C3154 C 0.39272 0.04255 0.75264 0.0
C3155 C 0.35041 0.04641 0.76514 0.0
N3156 N 0.40293 0.00904 0.72206 0.0
N3157 N 0.35614 0.03299 0.74899 0.0
H3158 H 0.26394 0.15344 0.97252 0.0
H3159 H 0.14998 0.10603 0.005 0.0
H3160 H 0.23343 0.10186 0.93848 0.0
H3161 H 0.18726 0.14585 0.04715 0.0
H3162 H 0.17926 0.10641 0.97926 0.0
H3163 H 0.23472 0.1532 0.99834 0.0
C3164 C 0.2512 0.14194 0.9705 0.0
C3165 C 0.25129 0.12763 0.95317 0.0
C3166 C 0.18105 0.11509 0.99412 0.0
C3167 C 0.21787 0.12701 0.98321 0.0
C3168 C 0.16432 0.11486 0.0089 0.0
C3169 C 0.16606 0.1259 0.02839 0.0
C3170 C 0.19973 0.12658 0.99866 0.0
C3171 C 0.18499 0.13737 0.03225 0.0
C3172 C 0.23459 0.14171 0.98543 0.0
C3173 C 0.23434 0.11299 0.95167 0.0
N3174 N 0.20106 0.1374 0.01754 0.0
N3175 N 0.21832 0.11312 0.96642 0.0
H3176 H 0.11194 0.06356 0.23117 0.0
H3177 H 0.14971 0.97726 0.31721 0.0
H3178 H 0.16542 0.03142 0.25335 0.0
H3179 H 0.08371 0.9868 0.29963 0.0
H3180 H 0.16001 0.00506 0.29196 0.0
H3181 H 0.10163 0.0396 0.25969 0.0
C3182 C 0.12438 0.05432 0.23875 0.0
C3183 C 0.14572 0.05555 0.23151 0.0
C3184 C 0.14326 1.00112 0.29371 0.0
C3185 C 0.13355 0.02749 0.26486 0.0
C3186 C 0.13729 0.9852 0.30823 0.0
C3187 C 0.11576 0.97906 0.31036 0.0
C3188 C 0.12762 0.01145 0.28144 0.0
C3189 C 0.10055 0.99034 0.2982 0.0
C3190 C 0.11828 0.0404 0.25507 0.0
C3191 C 0.16161 0.04295 0.24134 0.0
N3192 N 0.10677 0.00587 0.28428 0.0
N3193 N 0.15504 0.02933 0.25782 0.0
H3194 H 0.26166 0.85074 0.53782 0.0
H3195 H 0.15111 0.90326 0.50112 0.0
H3196 H 0.23154 0.90313 0.57106 0.0
H3197 H 0.18702 0.85971 0.46143 0.0
H3198 H 0.17965 0.90209 0.52759 0.0
H3199 H 0.23383 0.85248 0.5106 0.0
C3200 C 0.24929 0.86271 0.5394 0.0
C3201 C 0.24913 0.87687 0.55687 0.0
C3202 C 0.18131 0.89278 0.51311 0.0
C3203 C 0.21699 0.8789 0.52552 0.0
C3204 C 0.16501 0.89347 0.49788 0.0
C3205 C 0.16656 0.8816 0.47886 0.0
C3206 C 0.19937 0.87998 0.50951 0.0
C3207 C 0.18487 0.8689 0.47592 0.0
C3208 C 0.2334 0.86373 0.52374 0.0
C3209 C 0.23262 0.89207 0.55782 0.0
N3210 N 0.2005 0.86841 0.49107 0.0
N3211 N 0.2172 0.89259 0.54247 0.0
H3212 H 0.36383 0.02568 0.81641 0.0
H3213 H 0.40168 0.94095 0.72828 0.0
H3214 H 0.42961 0.01714 0.79735 0.0
H3215 H 0.3356 0.95731 0.73955 0.0
H3216 H 0.41211 0.9655 0.75655 0.0
H3217 H 0.35348 0.9976 0.79157 0.0
C3218 C 0.37622 0.01784 0.80726 0.0
C3219 C 0.3977 0.02428 0.80896 0.0
C3220 C 0.39531 0.96365 0.75289 0.0
C3221 C 0.38572 0.99175 0.78021 0.0
C3222 C 0.38925 0.94948 0.73671 0.0
C3223 C 0.36764 0.94713 0.73096 0.0
C3224 C 0.37971 0.97551 0.76379 0.0
C3225 C 0.35249 0.95889 0.74277 0.0
C3226 C 0.37019 1.0018 0.79291 0.0
C3227 C 0.41279 0.01334 0.79633 0.0
N3228 N 0.35881 0.97256 0.75849 0.0
N3229 N 0.40652 0.99775 0.7825 0.0
H3230 H 0.36068 0.0991 0.99976 0.0
H3231 H 0.24892 0.15013 0.03491 0.0
H3232 H 0.325 0.14253 0.9598 0.0
H3233 H 0.27807 0.09684 0.06752 0.0
H3234 H 0.27797 0.14959 0.00891 0.0
H3235 H 0.33164 0.09976 0.02579 0.0
C3236 C 0.34674 0.10877 0.99639 0.0
C3237 C 0.3454 0.12077 0.97744 0.0
C3238 C 0.27779 0.13778 0.02151 0.0
C3239 C 0.31201 0.12177 0.00754 0.0
C3240 C 0.2613 0.13819 0.03657 0.0
C3241 C 0.26089 0.12351 0.05359 0.0
C3242 C 0.29405 0.12246 0.02321 0.0
C3243 C 0.27739 0.10829 0.05459 0.0
C3244 C 0.33016 0.10917 0.01135 0.0
C3245 C 0.32699 0.13328 0.97428 0.0
N3246 N 0.29328 0.10821 0.03968 0.0
N3247 N 0.31107 0.13345 0.98915 0.0
H3248 H 0.93431 0.29928 0.11511 0.0
H3249 H 0.98271 0.18926 0.1587 0.0
H3250 H 0.90768 0.26503 0.16871 0.0
H3251 H 0.01554 0.23016 0.11393 0.0
H3252 H 0.95451 0.21608 0.16187 0.0
H3253 H 0.96281 0.27262 0.11288 0.0
C3254 C 0.9344 0.28624 0.12643 0.0
C3255 C 0.91853 0.28464 0.14224 0.0
C3256 C 0.96795 0.21923 0.15143 0.0
C3257 C 0.95159 0.25428 0.14 0.0
C3258 C 0.9842 0.20397 0.14974 0.0
C3259 C 1.00164 0.20734 0.13599 0.0
C3260 C 0.969 0.23803 0.13922 0.0
C3261 C 1.00232 0.22664 0.12449 0.0
C3262 C 0.95086 0.27116 0.12527 0.0
C3263 C 0.91971 0.26728 0.1565 0.0
N3264 N 0.98624 0.24116 0.12629 0.0
N3265 N 0.93591 0.25283 0.15504 0.0
H3266 H 0.48487 0.31987 0.85342 0.0
H3267 H 0.43839 0.20878 0.89745 0.0
H3268 H 0.51664 0.28127 0.90094 0.0
H3269 H 0.40562 0.24864 0.85168 0.0
H3270 H 0.4668 0.23541 0.89945 0.0
H3271 H 0.45617 0.29357 0.85203 0.0
C3272 C 0.48609 0.30578 0.86336 0.0
C3273 C 0.50357 0.30288 0.87717 0.0
C3274 C 0.45353 0.2382 0.88879 0.0
C3275 C 0.47021 0.27269 0.87594 0.0
C3276 C 0.43706 0.22312 0.88788 0.0
C3277 C 0.41943 0.22633 0.87435 0.0
C3278 C 0.45267 0.25655 0.87586 0.0
C3279 C 0.41898 0.24517 0.86207 0.0
C3280 C 0.46949 0.29081 0.8627 0.0
C3281 C 0.50367 0.2844 0.89003 0.0
N3282 N 0.43533 0.25944 0.86305 0.0
N3283 N 0.48734 0.2701 0.88909 0.0
H3284 H 1.00432 0.71786 0.41233 0.0
H3285 H 0.11162 0.75453 0.3532 0.0
H3286 H 0.03036 0.6861 0.35689 0.0
H3287 H 0.0779 0.79515 0.39763 0.0
H3288 H 0.08344 0.72793 0.35674 0.0
H3289 H 0.03278 0.74452 0.40984 0.0
C3290 C 0.01595 0.71647 0.3996 0.0
C3291 C 0.01482 0.6996 0.38479 0.0
C3292 C 0.08219 0.74264 0.36575 0.0
C3293 C 0.04729 0.73049 0.38161 0.0
C3294 C 0.09829 0.75793 0.36369 0.0
C3295 C 0.09722 0.77728 0.37505 0.0
C3296 C 0.06483 0.74647 0.37943 0.0
C3297 C 0.07965 0.78042 0.38876 0.0
C3298 C 0.0321 0.73185 0.39808 0.0
C3299 C 0.03029 0.69891 0.3685 0.0
N3300 N 0.06417 0.7652 0.39055 0.0
N3301 N 0.04585 0.71405 0.3674 0.0
H3302 H 0.01013 0.29142 0.09096 0.0
H3303 H 0.10911 0.24679 0.15663 0.0
H3304 H 0.02314 0.3096 0.15628 0.0
H3305 H 0.07999 0.20974 0.10621 0.0
H3306 H 0.08004 0.27242 0.15405 0.0
H3307 H 0.03754 0.2637 0.09375 0.0
C3308 C 0.01853 0.28959 0.10596 0.0
C3309 C 0.01424 0.30324 0.12335 0.0
C3310 C 0.08 0.25867 0.14355 0.0
C3311 C 0.04614 0.27163 0.12637 0.0
C3312 C 0.09662 0.24387 0.14505 0.0
C3313 C 0.09718 0.22578 0.13171 0.0
C3314 C 0.06384 0.2558 0.12831 0.0
C3315 C 0.08061 0.2235 0.11664 0.0
C3316 C 0.03431 0.27377 0.10745 0.0
C3317 C 0.0261 0.30003 0.14219 0.0
N3318 N 0.0647 0.23836 0.11529 0.0
N3319 N 0.04153 0.28475 0.14311 0.0
H3320 H 0.6029 0.74915 0.64299 0.0
H3321 H 0.48389 0.7805 0.60768 0.0
H3322 H 0.56245 0.70653 0.60717 0.0
H3323 H 0.52608 0.82183 0.64314 0.0
H3324 H 0.51162 0.75283 0.60771 0.0
H3325 H 0.57452 0.77573 0.64297 0.0
C3326 C 0.58799 0.74538 0.63507 0.0
C3327 C 0.58499 0.72547 0.62521 0.0
C3328 C 0.51476 0.76792 0.61554 0.0
C3329 C 0.55218 0.75603 0.62512 0.0
C3330 C 0.49895 0.78375 0.61553 0.0
C3331 C 0.50264 0.80361 0.62539 0.0
C3332 C 0.5345 0.772 0.62538 0.0
C3333 C 0.52236 0.80675 0.63555 0.0
C3334 C 0.57175 0.76061 0.63506 0.0
C3335 C 0.56544 0.72168 0.61489 0.0
N3336 N 0.53752 0.79121 0.63517 0.0
N3337 N 0.54971 0.73677 0.61521 0.0
H3338 H 0.93781 0.70607 0.39501 0.0
H3339 H 0.98042 0.82063 0.35615 0.0
H3340 H 0.90177 0.7489 0.3548 0.0
H3341 H 0.01813 0.77708 0.39391 0.0
H3342 H 0.95161 0.79439 0.35544 0.0
H3343 H 0.96713 0.73195 0.39552 0.0
C3344 C 0.93591 0.72102 0.38652 0.0
C3345 C 0.91719 0.72528 0.37486 0.0
C3346 C 0.96622 0.7905 0.36383 0.0
C3347 C 0.95092 0.75495 0.37517 0.0
C3348 C 0.98281 0.80545 0.36407 0.0
C3349 C 1.00188 0.80114 0.37509 0.0
C3350 C 0.96855 0.77099 0.3747 0.0
C3351 C 1.0037 0.78125 0.38542 0.0
C3352 C 0.95277 0.73572 0.38666 0.0
C3353 C 0.91592 0.7448 0.36384 0.0
N3354 N 0.98729 0.76698 0.38502 0.0
N3355 N 0.93249 0.75884 0.36428 0.0
H3356 H 0.53087 0.18445 0.84949 0.0
H3357 H 0.57929 0.29411 0.89479 0.0
H3358 H 0.50125 0.22189 0.8993 0.0
H3359 H 0.61125 0.25484 0.84787 0.0
H3360 H 0.55081 0.26764 0.8968 0.0
H3361 H 0.55985 0.21053 0.84782 0.0
C3362 C 0.5302 0.19826 0.85988 0.0
C3363 C 0.51329 0.2009 0.87445 0.0
C3364 C 0.56394 0.26491 0.88592 0.0
C3365 C 0.54685 0.23079 0.87286 0.0
C3366 C 0.58046 0.27989 0.885 0.0
C3367 C 0.59788 0.2768 0.87116 0.0
C3368 C 0.56452 0.24677 0.8727 0.0
C3369 C 0.59807 0.25817 0.85856 0.0
C3370 C 0.54693 0.21308 0.85905 0.0
C3371 C 0.5138 0.21899 0.88782 0.0
N3372 N 0.58165 0.24397 0.85956 0.0
N3373 N 0.53022 0.23316 0.88669 0.0
H3374 H 0.90088 0.07113 0.72995 0.0
H3375 H 0.93492 0.99185 0.7996 0.0
H3376 H 0.83774 0.04445 0.73747 0.0
H3377 H 0.86814 0.97959 0.81171 0.0
H3378 H 0.92501 0.01804 0.77312 0.0
H3379 H 0.91414 0.04638 0.75638 0.0
C3380 C 0.88974 0.05991 0.73695 0.0
C3381 C 0.86807 0.05996 0.73102 0.0
C3382 C 0.91236 0.01011 0.78174 0.0
C3383 C 0.88341 0.03089 0.76196 0.0
C3384 C 0.9181 0.99463 0.7968 0.0
C3385 C 0.90245 0.98318 0.80816 0.0
C3386 C 0.89067 0.01468 0.77803 0.0
C3387 C 0.88092 0.98814 0.80384 0.0
C3388 C 0.89742 0.04557 0.75225 0.0
C3389 C 0.85451 0.04536 0.74149 0.0
N3390 N 0.87573 0.0034 0.78918 0.0
N3391 N 0.86239 0.03149 0.75633 0.0
H3392 H 0.65436 0.15279 0.49147 0.0
H3393 H 0.77104 0.11816 0.53026 0.0
H3394 H 0.69126 0.10447 0.45916 0.0
H3395 H 0.72342 0.14212 0.57386 0.0
H3396 H 0.74416 0.11788 0.50165 0.0
H3397 H 0.68194 0.15444 0.51945 0.0
C3398 C 0.66838 0.14274 0.49015 0.0
C3399 C 0.67051 0.12843 0.47302 0.0
C3400 C 0.73963 0.12327 0.51746 0.0
C3401 C 0.70209 0.1303 0.50478 0.0
C3402 C 0.75495 0.12345 0.53374 0.0
C3403 C 0.7494 0.13012 0.55443 0.0
C3404 C 0.71874 0.13029 0.52175 0.0
C3405 C 0.72828 0.13669 0.55816 0.0
C3406 C 0.684 0.14356 0.50616 0.0
C3407 C 0.6889 0.11558 0.47217 0.0
N3408 N 0.71376 0.13678 0.54195 0.0
N3409 N 0.70401 0.11689 0.48774 0.0
H3410 H 0.67962 0.96218 0.23643 0.0
H3411 H 0.58367 0.01882 0.29735 0.0
H3412 H 0.61603 0.93529 0.23744 0.0
H3413 H 0.64948 0.02708 0.31612 0.0
H3414 H 0.59475 0.99021 0.27308 0.0
H3415 H 0.66857 0.98788 0.26344 0.0
C3416 C 0.66341 0.96136 0.24234 0.0
C3417 C 0.64892 0.94607 0.23441 0.0
C3418 C 0.60673 0.99827 0.28259 0.0
C3419 C 0.63589 0.97651 0.26509 0.0
C3420 C 0.60046 0.01479 0.29636 0.0
C3421 C 0.61567 0.02591 0.30862 0.0
C3422 C 0.62844 0.99292 0.28073 0.0
C3423 C 0.63711 0.01926 0.30699 0.0
C3424 C 0.65708 0.97627 0.25776 0.0
C3425 C 0.62788 0.94675 0.24252 0.0
N3426 N 0.64286 0.00351 0.29311 0.0
N3427 N 0.62201 0.96174 0.2572 0.0
H3428 H 0.82871 0.8496 0.96551 0.0
H3429 H 0.76048 0.91282 0.05321 0.0
H3430 H 0.84668 0.91137 0.99041 0.0
H3431 H 0.75877 0.84401 0.04797 0.0
H3432 H 0.7883 0.91363 0.02595 0.0
H3433 H 0.79957 0.84824 0.99166 0.0
C3434 C 0.82674 0.86284 0.97644 0.0
C3435 C 0.84036 0.88071 0.97538 0.0
C3436 C 0.78175 0.89836 0.03077 0.0
C3437 C 0.80653 0.87935 0.00524 0.0
C3438 C 0.76588 0.89782 0.04653 0.0
C3439 C 0.75714 0.87828 0.05343 0.0
C3440 C 0.78893 0.87928 0.02139 0.0
C3441 C 0.7646 0.85956 0.04328 0.0
C3442 C 0.80995 0.86207 0.99132 0.0
C3443 C 0.8365 0.89744 0.98998 0.0
N3444 N 0.77998 0.86053 0.02785 0.0
N3445 N 0.82 0.89637 0.00412 0.0
H3446 H 0.8644 0.02629 0.69226 0.0
H3447 H 0.90382 0.93565 0.77323 0.0
H3448 H 0.93082 0.01022 0.7018 0.0
H3449 H 0.85007 0.96902 0.75357 0.0
H3450 H 0.91383 0.96147 0.74626 0.0
H3451 H 0.85456 0.99894 0.7182 0.0
C3452 C 0.87698 0.01694 0.69954 0.0
C3453 C 0.89858 0.02086 0.69465 0.0
C3454 C 0.89726 0.96049 0.75111 0.0
C3455 C 0.88724 0.9896 0.72504 0.0
C3456 C 0.89139 0.94579 0.76684 0.0
C3457 C 0.87006 0.94386 0.77396 0.0
C3458 C 0.88176 0.97353 0.74179 0.0
C3459 C 0.85403 0.95681 0.76484 0.0
C3460 C 0.8713 1.00138 0.71457 0.0
C3461 C 0.914 0.00832 0.70522 0.0
N3462 N 0.86037 0.97125 0.74899 0.0
N3463 N 0.90805 0.99339 0.7199 0.0
H3464 H 0.82766 0.1525 0.53773 0.0
H3465 H 0.76443 0.08586 0.44892 0.0
H3466 H 0.84955 0.09213 0.51249 0.0
H3467 H 0.75532 0.15371 0.45753 0.0
H3468 H 0.79301 0.08686 0.47538 0.0
H3469 H 0.79887 0.15248 0.51119 0.0
C3470 C 0.82663 0.13934 0.52657 0.0
C3471 C 0.84118 0.12223 0.52763 0.0
C3472 C 0.78474 0.10153 0.47146 0.0
C3473 C 0.80778 0.12192 0.49745 0.0
C3474 C 0.7684 0.10101 0.45623 0.0
C3475 C 0.75733 0.11975 0.45065 0.0
C3476 C 0.79009 0.12087 0.4815 0.0
C3477 C 0.76306 0.13874 0.46132 0.0
C3478 C 0.81005 0.1393 0.51148 0.0
C3479 C 0.83858 0.10548 0.51282 0.0
N3480 N 0.77898 0.13881 0.47617 0.0
N3481 N 0.82221 0.10569 0.49854 0.0
H3482 H 0.58421 0.97714 0.2071 0.0
H3483 H 0.67912 0.04417 0.25798 0.0
H3484 H 0.64576 0.98278 0.17625 0.0
H3485 H 0.61281 0.05759 0.27148 0.0
H3486 H 0.66793 0.01944 0.22993 0.0
H3487 H 0.59506 0.00437 0.23267 0.0
C3488 C 0.5999 0.98417 0.20539 0.0
C3489 C 0.6139 0.97751 0.18906 0.0
C3490 C 0.65586 0.02793 0.23897 0.0
C3491 C 0.62669 0.00849 0.21914 0.0
C3492 C 0.66221 0.04194 0.2552 0.0
C3493 C 0.64695 0.05288 0.26758 0.0
C3494 C 0.63404 0.02448 0.23518 0.0
C3495 C 0.62527 0.04966 0.26252 0.0
C3496 C 0.60611 0.9997 0.2202 0.0
C3497 C 0.63435 0.98694 0.18853 0.0
N3498 N 0.61949 0.03559 0.24697 0.0
N3499 N 0.64013 1.00178 0.20337 0.0
H3500 H 0.68863 0.84504 0.04372 0.0
H3501 H 0.74951 0.90286 0.94854 0.0
H3502 H 0.66004 0.89471 0.00524 0.0
H3503 H 0.7592 0.83553 0.96052 0.0
H3504 H 0.72106 0.90295 0.97506 0.0
H3505 H 0.71859 0.84361 0.01837 0.0
C3506 C 0.68848 0.85559 0.03002 0.0
C3507 C 0.67173 0.87031 0.02705 0.0
C3508 C 0.7295 0.88819 0.97187 0.0
C3509 C 0.70632 0.86904 0.99831 0.0
C3510 C 0.74571 0.88802 0.95654 0.0
C3511 C 0.75674 0.86904 0.95168 0.0
C3512 C 0.7244 0.86939 0.98292 0.0
C3513 C 0.75141 0.85064 0.96358 0.0
C3514 C 0.70569 0.85481 0.01564 0.0
C3515 C 0.67274 0.8836 0.0089 0.0
N3516 N 0.73564 0.85127 0.97861 0.0
N3517 N 0.68976 0.88279 0.99545 0.0
H3518 H 0.01375 0.80803 0.8383 0.0
H3519 H 0.08236 0.71697 0.89507 0.0
H3520 H 0.00895 0.7955 0.90609 0.0
H3521 H 0.10364 0.75048 0.83859 0.0
H3522 H 0.05196 0.74144 0.89753 0.0
H3523 H 0.04301 0.78242 0.83615 0.0
C3524 C 0.01877 0.80006 0.8528 0.0
C3525 C 0.0088 0.80442 0.87249 0.0
C3526 C 0.06337 0.74342 0.88467 0.0
C3527 C 0.04217 0.77437 0.86987 0.0
C3528 C 0.08089 0.72955 0.88331 0.0
C3529 C 0.09584 0.73154 0.8666 0.0
C3530 C 0.06055 0.7593 0.86909 0.0
C3531 C 0.09252 0.74795 0.85158 0.0
C3532 C 0.03546 0.78528 0.85147 0.0
C3533 C 0.01579 0.79274 0.89046 0.0
N3534 N 0.07525 0.76106 0.85313 0.0
N3535 N 0.03199 0.77831 0.88871 0.0
H3536 H 0.5137 0.70171 0.15728 0.0
H3537 H 0.58352 0.79095 0.10011 0.0
H3538 H 0.51185 0.70972 0.08868 0.0
H3539 H 0.60485 0.75672 0.1562 0.0
H3540 H 0.55381 0.76568 0.09686 0.0
H3541 H 0.54297 0.72725 0.15894 0.0
C3542 C 0.5194 0.70863 0.1425 0.0
C3543 C 0.51029 0.70296 0.12273 0.0
C3544 C 0.56501 0.76393 0.10992 0.0
C3545 C 0.54366 0.73305 0.12477 0.0
C3546 C 0.58219 0.7782 0.1117 0.0
C3547 C 0.59692 0.77636 0.12863 0.0
C3548 C 0.56209 0.74803 0.12545 0.0
C3549 C 0.59378 0.75951 0.14325 0.0
C3550 C 0.5361 0.72339 0.14354 0.0
C3551 C 0.51807 0.71346 0.10435 0.0
N3552 N 0.57668 0.74627 0.14146 0.0
N3553 N 0.53426 0.72796 0.10582 0.0
H3554 H 0.99005 0.31107 0.65551 0.0
H3555 H 0.9342 0.21128 0.59912 0.0
H3556 H 1.0055 0.29269 0.59071 0.0
H3557 H 0.90528 0.24764 0.65019 0.0
H3558 H 0.963 0.23784 0.59736 0.0
H3559 H 0.96198 0.28421 0.65592 0.0
C3560 C 0.98758 0.30158 0.64127 0.0
C3561 C 1.00022 0.30466 0.62292 0.0
C3562 C 0.95031 0.23987 0.60896 0.0
C3563 C 0.96811 0.27313 0.62362 0.0
C3564 C 0.93376 0.22476 0.60993 0.0
C3565 C 0.91732 0.22671 0.62518 0.0
C3566 C 0.95057 0.25702 0.62343 0.0
C3567 C 0.91783 0.24473 0.63867 0.0
C3568 C 0.97154 0.28607 0.64161 0.0
C3569 C 0.99647 0.29102 0.60535 0.0
N3570 N 0.93419 0.25895 0.6376 0.0
N3571 N 0.9808 0.27591 0.60614 0.0
H3572 H 0.01423 0.70996 0.911 0.0
H3573 H 0.91388 0.75351 0.84782 0.0
H3574 H 1.0041 0.69726 0.84383 0.0
H3575 H 0.94033 0.78872 0.90098 0.0
H3576 H 0.94457 0.7299 0.84868 0.0
H3577 H 0.98589 0.73665 0.90972 0.0
C3578 C 0.00637 0.71279 0.89588 0.0
C3579 C 0.01175 0.70084 0.87751 0.0
C3580 C 0.94371 0.74289 0.86008 0.0
C3581 C 0.97841 0.73112 0.87636 0.0
C3582 C 0.92615 0.75662 0.85956 0.0
C3583 C 0.92445 0.77381 0.87401 0.0
C3584 C 0.95968 0.74579 0.87548 0.0
C3585 C 0.9407 0.77588 0.88945 0.0
C3586 C 0.98998 0.72801 0.89528 0.0
C3587 C 1.00035 0.70534 0.85863 0.0
N3588 N 0.95757 0.76207 0.8898 0.0
N3589 N 0.98414 0.71984 0.85864 0.0
H3590 H 0.4068 0.26329 0.34434 0.0
H3591 H 0.50294 0.21434 0.41076 0.0
H3592 H 0.4311 0.29457 0.40084 0.0
H3593 H 0.49517 0.20367 0.34291 0.0
H3594 H 0.4751 0.24143 0.40921 0.0
H3595 H 0.43667 0.23845 0.34571 0.0
C3596 C 0.41839 0.2651 0.35703 0.0
C3597 C 0.4163 0.28142 0.37237 0.0
C3598 C 0.47956 0.23313 0.39469 0.0
C3599 C 0.45056 0.25229 0.37427 0.0
C3600 C 0.49571 0.21766 0.39544 0.0
C3601 C 0.50172 0.20624 0.37692 0.0
C3602 C 0.46882 0.23702 0.37544 0.0
C3603 C 0.49098 0.21134 0.3578 0.0
C3604 C 0.43547 0.25077 0.3578 0.0
C3605 C 0.43171 0.28223 0.38877 0.0
N3606 N 0.475 0.22611 0.35764 0.0
N3607 N 0.44811 0.26788 0.38931 0.0
H3608 H 0.01107 0.20275 0.66102 0.0
H3609 H 0.07549 0.29178 0.59692 0.0
H3610 H 1.0053 0.20899 0.59245 0.0
H3611 H 0.09926 0.26182 0.65442 0.0
H3612 H 0.04643 0.26557 0.59612 0.0
H3613 H 0.03959 0.22921 0.66044 0.0
C3614 C 0.01573 0.2095 0.64579 0.0
C3615 C 0.00568 0.20313 0.62672 0.0
C3616 C 0.05805 0.2649 0.60891 0.0
C3617 C 0.03821 0.23419 0.62615 0.0
C3618 C 0.07481 0.27979 0.60934 0.0
C3619 C 0.08989 0.27961 0.62604 0.0
C3620 C 0.05611 0.24984 0.62542 0.0
C3621 C 0.08777 0.26349 0.64165 0.0
C3622 C 0.032 0.22477 0.64554 0.0
C3623 C 0.0122 0.21332 0.60767 0.0
N3624 N 0.07117 0.24953 0.64107 0.0
N3625 N 0.02798 0.22831 0.60789 0.0
H3626 H 0.43199 0.70893 0.10266 0.0
H3627 H 0.50283 0.79599 0.1626 0.0
H3628 H 0.41335 0.73766 0.16267 0.0
H3629 H 0.50291 0.79004 0.09376 0.0
H3630 H 0.47394 0.76994 0.16428 0.0
H3631 H 0.46139 0.73456 0.10021 0.0
C3632 C 0.43383 0.72059 0.11528 0.0
C3633 C 0.41991 0.7208 0.13299 0.0
C3634 C 0.48037 0.77435 0.14883 0.0
C3635 C 0.45436 0.7497 0.13056 0.0
C3636 C 0.49686 0.7894 0.14779 0.0
C3637 C 0.50544 0.79572 0.12797 0.0
C3638 C 0.47247 0.76513 0.12998 0.0
C3639 C 0.49722 0.78573 0.10949 0.0
C3640 C 0.45084 0.7351 0.11392 0.0
C3641 C 0.42374 0.73625 0.14894 0.0
N3642 N 0.48128 0.77099 0.11096 0.0
N3643 N 0.44062 0.74985 0.14743 0.0
H3644 H 0.61128 0.43933 0.77577 0.0
H3645 H 0.64903 0.528 0.69162 0.0
H3646 H 0.67686 0.45951 0.76848 0.0
H3647 H 0.58293 0.51266 0.70421 0.0
H3648 H 0.65975 0.5004 0.71687 0.0
H3649 H 0.60114 0.46338 0.74698 0.0
C3650 C 0.62367 0.44858 0.76808 0.0
C3651 C 0.64502 0.44739 0.77502 0.0
C3652 C 0.6429 0.503 0.71401 0.0
C3653 C 0.63328 0.47531 0.74174 0.0
C3654 C 0.63669 0.51873 0.69939 0.0
C3655 C 0.61493 0.52309 0.69577 0.0
C3656 C 0.62731 0.49126 0.72507 0.0
C3657 C 0.59988 0.5105 0.70678 0.0
C3658 C 0.61778 0.46247 0.75161 0.0
C3659 C 0.66012 0.46015 0.76427 0.0
N3660 N 0.60634 0.49531 0.72093 0.0
N3661 N 0.65396 0.47359 0.74831 0.0
H3662 H 0.83106 0.411 0.03572 0.0
H3663 H 0.7657 0.34186 0.95068 0.0
H3664 H 0.84194 0.3437 0.02511 0.0
H3665 H 0.7528 0.40834 0.96366 0.0
H3666 H 0.79273 0.34197 0.97865 0.0
H3667 H 0.80187 0.40999 0.01021 0.0
C3668 C 0.82742 0.39595 0.02807 0.0
C3669 C 0.83925 0.37738 0.0327 0.0
C3670 C 0.78396 0.35653 0.97545 0.0
C3671 C 0.80549 0.37624 0.00311 0.0
C3672 C 0.76836 0.35648 0.95953 0.0
C3673 C 0.75681 0.37515 0.95471 0.0
C3674 C 0.7883 0.37542 0.98668 0.0
C3675 C 0.76143 0.39365 0.96654 0.0
C3676 C 0.81059 0.39542 0.01348 0.0
C3677 C 0.8333 0.3584 0.0223 0.0
N3678 N 0.77682 0.39332 0.98191 0.0
N3679 N 0.81696 0.35836 0.00793 0.0
H3680 H 0.89952 0.561 0.27728 0.0
H3681 H 0.85841 0.4757 0.19133 0.0
H3682 H 0.8329 0.54625 0.26705 0.0
H3683 H 0.92472 0.48349 0.20879 0.0
H3684 H 0.8491 0.50467 0.21546 0.0
H3685 H 0.90894 0.53616 0.24892 0.0
C3686 C 0.88675 0.55284 0.26904 0.0
C3687 C 0.86527 0.55578 0.27512 0.0
C3688 C 0.8657 0.50007 0.21395 0.0
C3689 C 0.87623 0.5268 0.24232 0.0
C3690 C 0.87115 0.48343 0.2 0.0
C3691 C 0.89244 0.4763 0.19824 0.0
C3692 C 0.88163 0.51013 0.22609 0.0
C3693 C 0.90798 0.48755 0.21005 0.0
C3694 C 0.89224 0.53845 0.25282 0.0
C3695 C 0.84971 0.54426 0.26364 0.0
N3696 N 0.90226 0.5037 0.22348 0.0
N3697 N 0.85549 0.53028 0.24797 0.0
H3698 H 0.73556 0.59718 0.43687 0.0
H3699 H 0.68872 0.64109 0.5479 0.0
H3700 H 0.77022 0.64024 0.47804 0.0
H3701 H 0.65843 0.59199 0.51025 0.0
H3702 H 0.7182 0.64196 0.52209 0.0
H3703 H 0.70715 0.59535 0.46351 0.0
C3704 C 0.73741 0.60605 0.45161 0.0
C3705 C 0.75548 0.6189 0.45508 0.0
C3706 C 0.70514 0.63097 0.51952 0.0
C3707 C 0.72251 0.61723 0.48565 0.0
C3708 C 0.68818 0.63061 0.53414 0.0
C3709 C 0.67098 0.6165 0.53121 0.0
C3710 C 0.70491 0.61719 0.50176 0.0
C3711 C 0.6714 0.60301 0.51327 0.0
C3712 C 0.72102 0.60513 0.46679 0.0
C3713 C 0.75655 0.63035 0.47443 0.0
N3714 N 0.688 0.60373 0.49925 0.0
N3715 N 0.74031 0.62932 0.48889 0.0
H3716 H 0.58271 0.48596 0.79747 0.0
H3717 H 0.67683 0.55226 0.74167 0.0
H3718 H 0.64895 0.48106 0.81606 0.0
H3719 H 0.60991 0.56155 0.72749 0.0
H3720 H 0.66689 0.52658 0.76917 0.0
H3721 H 0.59238 0.514 0.77221 0.0
C3722 C 0.5993 0.49061 0.79629 0.0
C3723 C 0.61501 0.4806 0.8089 0.0
C3724 C 0.65438 0.53437 0.76012 0.0
C3725 C 0.62616 0.51338 0.78 0.0
C3726 C 0.66005 0.54897 0.74412 0.0
C3727 C 0.64431 0.55913 0.73164 0.0
C3728 C 0.63276 0.52978 0.76393 0.0
C3729 C 0.62281 0.55449 0.73652 0.0
C3730 C 0.60478 0.50688 0.78193 0.0
C3731 C 0.63614 0.48812 0.80689 0.0
N3732 N 0.61774 0.5401 0.75205 0.0
N3733 N 0.64108 0.50382 0.79265 0.0
H3734 H 0.76988 0.36254 0.03478 0.0
H3735 H 0.65345 0.40541 0.00252 0.0
H3736 H 0.73224 0.40504 0.07388 0.0
H3737 H 0.69094 0.36445 0.96169 0.0
H3738 H 0.68244 0.40548 0.02852 0.0
H3739 H 0.74183 0.36342 0.0075 0.0
C3740 C 0.75576 0.37213 0.03762 0.0
C3741 C 0.75347 0.38371 0.05677 0.0
C3742 C 0.68439 0.39645 0.01389 0.0
C3743 C 0.72113 0.38468 0.02552 0.0
C3744 C 0.66781 0.39643 0.99896 0.0
C3745 C 0.66969 0.38495 0.97974 0.0
C3746 C 0.70319 0.3849 0.00976 0.0
C3747 C 0.68864 0.37336 0.97632 0.0
C3748 C 0.73974 0.37262 0.022 0.0
C3749 C 0.73489 0.39603 0.05936 0.0
N3750 N 0.70464 0.37367 0.99111 0.0
N3751 N 0.71945 0.39607 0.04404 0.0
H3752 H 0.92458 0.52184 0.30486 0.0
H3753 H 0.82904 0.45922 0.2481 0.0
H3754 H 0.85843 0.52824 0.32344 0.0
H3755 H 0.89566 0.44552 0.23619 0.0
H3756 H 0.83963 0.48422 0.27593 0.0
H3757 H 0.91443 0.49335 0.28026 0.0
C3758 C 0.90791 0.51742 0.30379 0.0
C3759 C 0.89232 0.5281 0.31601 0.0
C3760 C 0.85192 0.47559 0.26734 0.0
C3761 C 0.88063 0.49498 0.28789 0.0
C3762 C 0.8459 0.4614 0.25117 0.0
C3763 C 0.86139 0.45028 0.23922 0.0
C3764 C 0.87364 0.47881 0.27183 0.0
C3765 C 0.88297 0.45345 0.24482 0.0
C3766 C 0.90216 0.50092 0.28983 0.0
C3767 C 0.8711 0.52084 0.31434 0.0
N3768 N 0.88841 0.46752 0.2605 0.0
N3769 N 0.86588 0.50501 0.30038 0.0
H3770 H 0.86611 0.61427 0.51331 0.0
H3771 H 0.74922 0.65796 0.54068 0.0
H3772 H 0.8261 0.6448 0.46611 0.0
H3773 H 0.78215 0.61115 0.57906 0.0
H3774 H 0.77839 0.65649 0.51461 0.0
H3775 H 0.83673 0.61608 0.53882 0.0
C3776 C 0.85117 0.62131 0.5082 0.0
C3777 C 0.84873 0.62928 0.48732 0.0
C3778 C 0.77914 0.64644 0.52866 0.0
C3779 C 0.8149 0.63176 0.51691 0.0
C3780 C 0.76253 0.64732 0.54363 0.0
C3781 C 0.76309 0.63456 0.56213 0.0
C3782 C 0.79666 0.63289 0.53225 0.0
C3783 C 0.7808 0.62106 0.56496 0.0
C3784 C 0.83437 0.6224 0.52289 0.0
C3785 C 0.82898 0.6387 0.48204 0.0
N3786 N 0.79688 0.62067 0.55029 0.0
N3787 N 0.81289 0.63969 0.49671 0.0
H3788 H 0.48628 0.69306 0.59243 0.0
H3789 H 0.43226 0.7851 0.66288 0.0
H3790 H 0.50741 0.71024 0.65577 0.0
H3791 H 0.40945 0.76718 0.60028 0.0
H3792 H 0.46072 0.75896 0.65967 0.0
H3793 H 0.45927 0.72113 0.59422 0.0
C3794 C 0.48538 0.70282 0.60669 0.0
C3795 C 0.49924 0.69918 0.624 0.0
C3796 C 0.44952 0.7607 0.64661 0.0
C3797 C 0.46796 0.73134 0.62622 0.0
C3798 C 0.43309 0.77565 0.64843 0.0
C3799 C 0.41809 0.77838 0.63188 0.0
C3800 C 0.45112 0.74811 0.62815 0.0
C3801 C 0.42058 0.7658 0.61343 0.0
C3802 C 0.46982 0.7188 0.60772 0.0
C3803 C 0.49695 0.71219 0.64215 0.0
N3804 N 0.43666 0.75116 0.61212 0.0
N3805 N 0.48164 0.72764 0.64277 0.0
H3806 H 0.33346 0.54584 0.24609 0.0
H3807 H 0.43075 0.48257 0.29893 0.0
H3808 H 0.39953 0.55844 0.23072 0.0
H3809 H 0.36644 0.48072 0.32409 0.0
H3810 H 0.41965 0.5102 0.27394 0.0
H3811 H 0.34512 0.52102 0.27379 0.0
C3812 C 0.35042 0.54342 0.24838 0.0
C3813 C 0.36545 0.55434 0.2357 0.0
C3814 C 0.40802 0.50384 0.28506 0.0
C3815 C 0.37895 0.52605 0.26805 0.0
C3816 C 0.41438 0.48806 0.29957 0.0
C3817 C 0.39961 0.47891 0.31391 0.0
C3818 C 0.38659 0.51044 0.28441 0.0
C3819 C 0.37845 0.48664 0.31319 0.0
C3820 C 0.35706 0.52936 0.26446 0.0
C3821 C 0.38722 0.55076 0.2401 0.0
N3822 N 0.37259 0.5017 0.29862 0.0
N3823 N 0.39326 0.5369 0.25575 0.0
H3824 H 0.24878 0.58925 0.06138 0.0
H3825 H 0.18085 0.64761 0.97044 0.0
H3826 H 0.25526 0.65646 0.048 0.0
H3827 H 0.1596 0.59043 0.00281 0.0
H3828 H 0.21116 0.64943 0.99478 0.0
H3829 H 0.21986 0.58725 0.03502 0.0
C3830 C 0.24431 0.60351 0.05267 0.0
C3831 C 0.25434 0.62307 0.05699 0.0
C3832 C 0.19984 0.63646 0.99642 0.0
C3833 C 0.22121 0.62094 0.02688 0.0
C3834 C 0.18233 0.63541 0.98255 0.0
C3835 C 0.16746 0.61858 0.98397 0.0
C3836 C 0.20276 0.62051 0.01188 0.0
C3837 C 0.17074 0.60335 1.00026 0.0
C3838 C 0.22768 0.60241 0.03779 0.0
C3839 C 0.24778 0.64112 0.04534 0.0
N3840 N 0.18802 0.60461 0.01338 0.0
N3841 N 0.23165 0.63963 0.03082 0.0
H3842 H 0.13523 0.53821 0.79461 0.0
H3843 H 0.15516 0.41983 0.7601 0.0
H3844 H 0.10773 0.48921 0.83416 0.0
H3845 H 0.12932 0.47584 0.73588 0.0
H3846 H 0.14627 0.44418 0.78967 0.0
H3847 H 0.14382 0.51132 0.76764 0.0
C3848 C 0.13101 0.52186 0.79763 0.0
C3849 C 0.12036 0.51626 0.81652 0.0
C3850 C 0.14308 0.449 0.77336 0.0
C3851 C 0.13042 0.48518 0.78575 0.0
C3852 C 0.14824 0.43527 0.75645 0.0
C3853 C 0.14454 0.44114 0.73502 0.0
C3854 C 0.13466 0.46912 0.76888 0.0
C3855 C 0.13543 0.46101 0.73004 0.0
C3856 C 0.13581 0.50655 0.78219 0.0
C3857 C 0.11556 0.49447 0.81967 0.0
N3858 N 0.13088 0.47454 0.74719 0.0
N3859 N 0.1207 0.47967 0.80446 0.0
H3860 H 0.26636 0.40921 0.55392 0.0
H3861 H 0.32886 0.34655 0.46294 0.0
H3862 H 0.25663 0.34145 0.54491 0.0
H3863 H 0.35691 0.39835 0.49899 0.0
H3864 H 0.29901 0.34607 0.48831 0.0
H3865 H 0.2957 0.40782 0.52839 0.0
C3866 C 0.27032 0.39397 0.5468 0.0
C3867 C 0.25893 0.37535 0.55218 0.0
C3868 C 0.31179 0.3575 0.49053 0.0
C3869 C 0.29241 0.37393 0.52204 0.0
C3870 C 0.32903 0.35771 0.47614 0.0
C3871 C 0.34562 0.37279 0.47829 0.0
C3872 C 0.31081 0.37273 0.50697 0.0
C3873 C 0.34436 0.38697 0.49578 0.0
C3874 C 0.28707 0.39328 0.53203 0.0
C3875 C 0.2646 0.35635 0.54139 0.0
N3876 N 0.32723 0.38675 0.50915 0.0
N3877 N 0.28087 0.35614 0.52688 0.0
H3878 H 0.39994 0.44475 0.27612 0.0
H3879 H 0.36354 0.52369 0.18234 0.0
H3880 H 0.33398 0.45945 0.26225 0.0
H3881 H 0.42799 0.52124 0.207 0.0
H3882 H 0.35295 0.49725 0.20876 0.0
H3883 H 0.41084 0.46886 0.24747 0.0
C3884 C 0.38767 0.45281 0.26699 0.0
C3885 C 0.36592 0.44997 0.27191 0.0
C3886 C 0.36945 0.50241 0.20825 0.0
C3887 C 0.37849 0.47808 0.23908 0.0
C3888 C 0.37557 0.51776 0.19322 0.0
C3889 C 0.3968 0.52517 0.19227 0.0
C3890 C 0.38465 0.49391 0.22235 0.0
C3891 C 0.41154 0.51601 0.20663 0.0
C3892 C 0.39398 0.46675 0.25068 0.0
C3893 C 0.35094 0.46136 0.25956 0.0
N3894 N 0.4052 0.50094 0.22099 0.0
N3895 N 0.3575 0.47488 0.24383 0.0
H3896 H 0.34533 0.60258 0.01191 0.0
H3897 H 0.24191 0.66067 0.96442 0.0
H3898 H 0.31551 0.65584 0.04396 0.0
H3899 H 0.2665 0.6003 0.94178 0.0
H3900 H 0.26832 0.66007 0.99321 0.0
H3901 H 0.317 0.60295 0.98541 0.0
C3902 C 0.33272 0.61433 0.01349 0.0
C3903 C 0.33281 0.62908 0.03043 0.0
C3904 C 0.26789 0.64698 0.98191 0.0
C3905 C 0.30009 0.62977 0.99957 0.0
C3906 C 0.25265 0.64717 0.96547 0.0
C3907 C 0.25187 0.63056 0.95025 0.0
C3908 C 0.28273 0.6302 0.98314 0.0
C3909 C 0.26662 0.61377 0.95259 0.0
C3910 C 0.3165 0.61456 0.99823 0.0
C3911 C 0.31622 0.64424 0.03115 0.0
N3912 N 0.28141 0.61412 0.96851 0.0
N3913 N 0.30052 0.64419 0.01596 0.0
H3914 H 0.07475 0.49402 0.69796 0.0
H3915 H 0.10588 0.5715 0.77121 0.0
H3916 H 0.14187 0.4862 0.68398 0.0
H3917 H 0.17052 0.5578 0.75163 0.0
H3918 H 0.09288 0.54689 0.74444 0.0
H3919 H 0.08338 0.52236 0.72243 0.0
C3920 C 0.09141 0.49806 0.70009 0.0
C3921 C 0.10752 0.48703 0.68892 0.0
C3922 C 0.10991 0.54911 0.74566 0.0
C3923 C 0.11782 0.52082 0.71715 0.0
C3924 C 0.11739 0.56357 0.761 0.0
C3925 C 0.1394 0.56683 0.7639 0.0
C3926 C 0.12451 0.53768 0.73285 0.0
C3927 C 0.15342 0.55564 0.75032 0.0
C3928 C 0.0964 0.51471 0.71412 0.0
C3929 C 0.1287 0.49408 0.69191 0.0
N3930 N 0.14577 0.54161 0.73553 0.0
N3931 N 0.13317 0.51031 0.70576 0.0
H3932 H 0.19469 0.3957 0.54907 0.0
H3933 H 0.22975 0.35432 0.43318 0.0
H3934 H 0.15565 0.35439 0.51025 0.0
H3935 H 0.26874 0.39541 0.47252 0.0
H3936 H 0.20323 0.35291 0.4617 0.0
H3937 H 0.22274 0.39412 0.52207 0.0
C3938 C 0.19197 0.38632 0.53482 0.0
C3939 C 0.1726 0.3754 0.53185 0.0
C3940 C 0.21761 0.3622 0.46411 0.0
C3941 C 0.20489 0.37341 0.5007 0.0
C3942 C 0.23274 0.36322 0.4477 0.0
C3943 C 0.25152 0.3753 0.45015 0.0
C3944 C 0.22116 0.3733 0.48328 0.0
C3945 C 0.25463 0.38585 0.46976 0.0
C3946 C 0.20809 0.38533 0.51942 0.0
C3947 C 0.17031 0.36302 0.51328 0.0
N3948 N 0.2396 0.38468 0.48547 0.0
N3949 N 0.18616 0.36251 0.49834 0.0
H3950 H 0.5119 0.28915 0.41087 0.0
H3951 H 0.60272 0.23637 0.33994 0.0
H3952 H 0.51453 0.29631 0.34217 0.0
H3953 H 0.58259 0.20828 0.39975 0.0
H3954 H 0.57296 0.26123 0.34214 0.0
H3955 H 0.53945 0.26176 0.40853 0.0
C3956 C 0.51795 0.28498 0.39523 0.0
C3957 C 0.51066 0.29553 0.37669 0.0
C3958 C 0.57504 0.24957 0.35475 0.0
C3959 C 0.54315 0.26442 0.37418 0.0
C3960 C 0.59206 0.23518 0.3535 0.0
C3961 C 0.5953 0.21972 0.36953 0.0
C3962 C 0.56123 0.24902 0.37239 0.0
C3963 C 0.58111 0.21988 0.38704 0.0
C3964 C 0.53392 0.26935 0.394 0.0
C3965 C 0.51981 0.28934 0.35706 0.0
N3966 N 0.5648 0.2343 0.38803 0.0
N3967 N 0.53566 0.27445 0.35638 0.0
loop_
_geom_bond_atom_site_label_1
_geom_bond_atom_site_label_2
_geom_bond_distance
_geom_bond_site_symmetry_2
_ccdc_geom_bond_type
Li0 N17 1.990 . S
Li0 O60 1.956 . S
Li0 O61 1.970 . S
Li0 O62 1.961 . S
Li1 N25 1.990 . S
Li1 O60 1.970 . S
Li1 O61 1.956 . S
Li1 O63 1.961 . S
Li2 N47 1.990 . S
Li2 O60 1.961 . S
Li2 O62 1.956 . S
Li2 O63 1.970 . S
Li3 N53 1.990 . S
Li3 O61 1.961 . S
Li3 O62 1.970 . S
Li3 O63 1.956 . S
C4 C6 1.348 . S
C4 C7 1.356 . S
C4 O60 1.325 . S
N5 C8 1.314 . S
N5 C9 1.279 . S
C6 C4 1.348 . S
C6 C8 1.353 . S
C6 H64 0.929 . S
C7 C4 1.356 . S
C7 C9 1.358 . S
C7 H65 0.930 . S
C8 N5 1.314 . S
C8 C6 1.353 . S
C8 H66 0.930 . S
C9 N5 1.279 . S
C9 C7 1.358 . S
C9 H67 0.930 . S
C10 C13 1.348 . S
C10 C14 1.356 . S
C10 O61 1.325 . S
C11 N12 1.279 . S
C11 C14 1.358 . S
C11 H68 0.930 . S
N12 C11 1.279 . S
N12 C15 1.314 . S
C13 C10 1.348 . S
C13 C15 1.353 . S
C13 H69 0.929 . S
C14 C10 1.356 . S
C14 C11 1.358 . S
C14 H70 0.930 . S
C15 N12 1.314 . S
C15 C13 1.353 . S
C15 H71 0.930 . S
C16 N17 1.314 . S
C16 C21 1.353 . S
C16 H22 0.930 . S
N17 Li0 1.990 . S
N17 C16 1.314 . S
N17 C19 1.279 . S
C18 C19 1.358 . S
C18 C20 1.356 . S
C18 H72 0.930 . S
C19 N17 1.279 . S
C19 C18 1.358 . S
C19 H23 0.930 . S
C20 C18 1.356 . S
C20 C21 1.348 . S
C21 C16 1.353 . S
C21 C20 1.348 . S
C21 H73 0.929 . S
H22 C16 0.930 . S
H23 C19 0.930 . S
C24 N25 1.314 . S
C24 C26 1.353 . S
C24 H30 0.930 . S
N25 Li1 1.990 . S
N25 C24 1.314 . S
N25 C28 1.279 . S
C26 C24 1.353 . S
C26 C29 1.348 . S
C26 H74 0.929 . S
C27 C28 1.358 . S
C27 C29 1.356 . S
C27 H75 0.930 . S
C28 N25 1.279 . S
C28 C27 1.358 . S
C28 H31 0.930 . S
C29 C26 1.348 . S
C29 C27 1.356 . S
H30 C24 0.930 . S
H31 C28 0.930 . S
C32 C34 1.348 . S
C32 C35 1.356 . S
C32 O62 1.325 . S
N33 C36 1.314 . S
N33 C37 1.279 . S
C34 C32 1.348 . S
C34 C36 1.353 . S
C34 H76 0.929 . S
C35 C32 1.356 . S
C35 C37 1.358 . S
C35 H77 0.930 . S
C36 N33 1.314 . S
C36 C34 1.353 . S
C36 H78 0.930 . S
C37 N33 1.279 . S
C37 C35 1.358 . S
C37 H79 0.930 . S
C38 C39 1.348 . S
C38 C40 1.356 . S
C38 O63 1.325 . S
C39 C38 1.348 . S
C39 C41 1.353 . S
C39 H80 0.929 . S
C40 C38 1.356 . S
C40 C42 1.358 . S
C40 H81 0.930 . S
C41 C39 1.353 . S
C41 N43 1.314 . S
C41 H82 0.930 . S
C42 C40 1.358 . S
C42 N43 1.279 . S
C42 H83 0.930 . S
N43 C41 1.314 . S
N43 C42 1.279 . S
C44 C46 1.353 . S
C44 N47 1.314 . S
C44 H50 0.930 . S
C45 N47 1.279 . S
C45 C48 1.358 . S
C45 H51 0.930 . S
C46 C44 1.353 . S
C46 C49 1.348 . S
C46 H84 0.929 . S
N47 Li2 1.990 . S
N47 C44 1.314 . S
N47 C45 1.279 . S
C48 C45 1.358 . S
C48 C49 1.356 . S
C48 H85 0.930 . S
C49 C46 1.348 . S
C49 C48 1.356 . S
H50 C44 0.930 . S
H51 C45 0.930 . S
C52 N53 1.314 . S
C52 C54 1.353 . S
C52 H58 0.930 . S
N53 Li3 1.990 . S
N53 C52 1.314 . S
N53 C56 1.279 . S
C54 C52 1.353 . S
C54 C57 1.348 . S
C54 H86 0.929 . S
C55 C56 1.358 . S
C55 C57 1.356 . S
C55 H87 0.930 . S
C56 N53 1.279 . S
C56 C55 1.358 . S
C56 H59 0.930 . S
C57 C54 1.348 . S
C57 C55 1.356 . S
H58 C52 0.930 . S
H59 C56 0.930 . S
O60 Li0 1.956 . S
O60 Li1 1.970 . S
O60 Li2 1.961 . S
O60 C4 1.325 . S
O61 Li0 1.970 . S
O61 Li1 1.956 . S
O61 Li3 1.961 . S
O61 C10 1.325 . S
O62 Li0 1.961 . S
O62 Li2 1.956 . S
O62 Li3 1.970 . S
O62 C32 1.325 . S
O63 Li1 1.961 . S
O63 Li2 1.970 . S
O63 Li3 1.956 . S
O63 C38 1.325 . S
H64 C6 0.929 . S
H65 C7 0.930 . S
H66 C8 0.930 . S
H67 C9 0.930 . S
H68 C11 0.930 . S
H69 C13 0.929 . S
H70 C14 0.930 . S
H71 C15 0.930 . S
H72 C18 0.930 . S
H73 C21 0.929 . S
H74 C26 0.929 . S
H75 C27 0.930 . S
H76 C34 0.929 . S
H77 C35 0.930 . S
H78 C36 0.930 . S
H79 C37 0.930 . S
H80 C39 0.929 . S
H81 C40 0.930 . S
H82 C41 0.930 . S
H83 C42 0.930 . S
H84 C46 0.929 . S
H85 C48 0.930 . S
H86 C54 0.929 . S
H87 C55 0.930 . S
Li88 N105 1.990 . S
Li88 O148 1.956 . S
Li88 O149 1.970 . S
Li88 O150 1.961 . S
Li89 N113 1.990 . S
Li89 O148 1.970 . S
Li89 O149 1.956 . S
Li89 O151 1.961 . S
Li90 N135 1.990 . S
Li90 O148 1.961 . S
Li90 O150 1.956 . S
Li90 O151 1.970 . S
Li91 N141 1.990 . S
Li91 O149 1.961 . S
Li91 O150 1.970 . S
Li91 O151 1.956 . S
C92 C94 1.348 . S
C92 C95 1.356 . S
C92 O148 1.325 . S
N93 C96 1.314 . S
N93 C97 1.279 . S
C94 C92 1.348 . S
C94 C96 1.353 . S
C94 H152 0.929 . S
C95 C92 1.356 . S
C95 C97 1.358 . S
C95 H153 0.930 . S
C96 N93 1.314 . S
C96 C94 1.353 . S
C96 H154 0.930 . S
C97 N93 1.279 . S
C97 C95 1.358 . S
C97 H155 0.930 . S
C98 C101 1.348 . S
C98 C102 1.356 . S
C98 O149 1.325 . S
C99 N100 1.279 . S
C99 C102 1.358 . S
C99 H156 0.930 . S
N100 C99 1.279 . S
N100 C103 1.314 . S
C101 C98 1.348 . S
C101 C103 1.353 . S
C101 H157 0.929 . S
C102 C98 1.356 . S
C102 C99 1.358 . S
C102 H158 0.930 . S
C103 N100 1.314 . S
C103 C101 1.353 . S
C103 H159 0.930 . S
C104 N105 1.314 . S
C104 C109 1.353 . S
C104 H110 0.930 . S
N105 Li88 1.990 . S
N105 C104 1.314 . S
N105 C107 1.279 . S
C106 C107 1.358 . S
C106 C108 1.356 . S
C106 H160 0.930 . S
C107 N105 1.279 . S
C107 C106 1.358 . S
C107 H111 0.930 . S
C108 C106 1.356 . S
C108 C109 1.348 . S
C109 C104 1.353 . S
C109 C108 1.348 . S
C109 H161 0.929 . S
H110 C104 0.930 . S
H111 C107 0.930 . S
C112 N113 1.314 . S
C112 C114 1.353 . S
C112 H118 0.930 . S
N113 Li89 1.990 . S
N113 C112 1.314 . S
N113 C116 1.279 . S
C114 C112 1.353 . S
C114 C117 1.348 . S
C114 H162 0.929 . S
C115 C116 1.358 . S
C115 C117 1.356 . S
C115 H163 0.930 . S
C116 N113 1.279 . S
C116 C115 1.358 . S
C116 H119 0.930 . S
C117 C114 1.348 . S
C117 C115 1.356 . S
H118 C112 0.930 . S
H119 C116 0.930 . S
C120 C122 1.348 . S
C120 C123 1.356 . S
C120 O150 1.325 . S
N121 C124 1.314 . S
N121 C125 1.279 . S
C122 C120 1.348 . S
C122 C124 1.353 . S
C122 H164 0.929 . S
C123 C120 1.356 . S
C123 C125 1.358 . S
C123 H165 0.930 . S
C124 N121 1.314 . S
C124 C122 1.353 . S
C124 H166 0.930 . S
C125 N121 1.279 . S
C125 C123 1.358 . S
C125 H167 0.930 . S
C126 C127 1.348 . S
C126 C128 1.356 . S
C126 O151 1.325 . S
C127 C126 1.348 . S
C127 C129 1.353 . S
C127 H168 0.929 . S
C128 C126 1.356 . S
C128 C130 1.358 . S
C128 H169 0.930 . S
C129 C127 1.353 . S
C129 N131 1.314 . S
C129 H170 0.930 . S
C130 C128 1.358 . S
C130 N131 1.279 . S
C130 H171 0.930 . S
N131 C129 1.314 . S
N131 C130 1.279 . S
C132 C134 1.353 . S
C132 N135 1.314 . S
C132 H138 0.930 . S
C133 N135 1.279 . S
C133 C136 1.358 . S
C133 H139 0.930 . S
C134 C132 1.353 . S
C134 C137 1.348 . S
C134 H172 0.929 . S
N135 Li90 1.990 . S
N135 C132 1.314 . S
N135 C133 1.279 . S
C136 C133 1.358 . S
C136 C137 1.356 . S
C136 H173 0.930 . S
C137 C134 1.348 . S
C137 C136 1.356 . S
H138 C132 0.930 . S
H139 C133 0.930 . S
C140 N141 1.314 . S
C140 C142 1.353 . S
C140 H146 0.930 . S
N141 Li91 1.990 . S
N141 C140 1.314 . S
N141 C144 1.279 . S
C142 C140 1.353 . S
C142 C145 1.348 . S
C142 H174 0.929 . S
C143 C144 1.358 . S
C143 C145 1.356 . S
C143 H175 0.930 . S
C144 N141 1.279 . S
C144 C143 1.358 . S
C144 H147 0.930 . S
C145 C142 1.348 . S
C145 C143 1.356 . S
H146 C140 0.930 . S
H147 C144 0.930 . S
O148 Li88 1.956 . S
O148 Li89 1.970 . S
O148 Li90 1.961 . S
O148 C92 1.325 . S
O149 Li88 1.970 . S
O149 Li89 1.956 . S
O149 Li91 1.961 . S
O149 C98 1.325 . S
O150 Li88 1.961 . S
O150 Li90 1.956 . S
O150 Li91 1.970 . S
O150 C120 1.325 . S
O151 Li89 1.961 . S
O151 Li90 1.970 . S
O151 Li91 1.956 . S
O151 C126 1.325 . S
H152 C94 0.929 . S
H153 C95 0.930 . S
H154 C96 0.930 . S
H155 C97 0.930 . S
H156 C99 0.930 . S
H157 C101 0.929 . S
H158 C102 0.930 . S
H159 C103 0.930 . S
H160 C106 0.930 . S
H161 C109 0.929 . S
H162 C114 0.929 . S
H163 C115 0.930 . S
H164 C122 0.929 . S
H165 C123 0.930 . S
H166 C124 0.930 . S
H167 C125 0.930 . S
H168 C127 0.929 . S
H169 C128 0.930 . S
H170 C129 0.930 . S
H171 C130 0.930 . S
H172 C134 0.929 . S
H173 C136 0.930 . S
H174 C142 0.929 . S
H175 C143 0.930 . S
Li176 N193 1.990 . S
Li176 O236 1.956 . S
Li176 O237 1.970 . S
Li176 O238 1.961 . S
Li177 N201 1.990 . S
Li177 O236 1.970 . S
Li177 O237 1.956 . S
Li177 O239 1.961 . S
Li178 N223 1.990 . S
Li178 O236 1.961 . S
Li178 O238 1.956 . S
Li178 O239 1.970 . S
Li179 N229 1.990 . S
Li179 O237 1.961 . S
Li179 O238 1.970 . S
Li179 O239 1.956 . S
C180 C182 1.348 . S
C180 C183 1.356 . S
C180 O236 1.325 . S
N181 C184 1.314 . S
N181 C185 1.279 . S
C182 C180 1.348 . S
C182 C184 1.353 . S
C182 H240 0.929 . S
C183 C180 1.356 . S
C183 C185 1.358 . S
C183 H241 0.930 . S
C184 N181 1.314 . S
C184 C182 1.353 . S
C184 H242 0.930 . S
C185 N181 1.279 . S
C185 C183 1.358 . S
C185 H243 0.930 . S
C186 C189 1.348 . S
C186 C190 1.356 . S
C186 O237 1.325 . S
C187 N188 1.279 . S
C187 C190 1.358 . S
C187 H244 0.930 . S
N188 C187 1.279 . S
N188 C191 1.314 . S
C189 C186 1.348 . S
C189 C191 1.353 . S
C189 H245 0.929 . S
C190 C186 1.356 . S
C190 C187 1.358 . S
C190 H246 0.930 . S
C191 N188 1.314 . S
C191 C189 1.353 . S
C191 H247 0.930 . S
C192 N193 1.314 . S
C192 C197 1.353 . S
C192 H198 0.930 . S
N193 Li176 1.990 . S
N193 C192 1.314 . S
N193 C195 1.279 . S
C194 C195 1.358 . S
C194 C196 1.356 . S
C194 H248 0.930 . S
C195 N193 1.279 . S
C195 C194 1.358 . S
C195 H199 0.930 . S
C196 C194 1.356 . S
C196 C197 1.348 . S
C197 C192 1.353 . S
C197 C196 1.348 . S
C197 H249 0.929 . S
H198 C192 0.930 . S
H199 C195 0.930 . S
C200 N201 1.314 . S
C200 C202 1.353 . S
C200 H206 0.930 . S
N201 Li177 1.990 . S
N201 C200 1.314 . S
N201 C204 1.279 . S
C202 C200 1.353 . S
C202 C205 1.348 . S
C202 H250 0.929 . S
C203 C204 1.358 . S
C203 C205 1.356 . S
C203 H251 0.930 . S
C204 N201 1.279 . S
C204 C203 1.358 . S
C204 H207 0.930 . S
C205 C202 1.348 . S
C205 C203 1.356 . S
H206 C200 0.930 . S
H207 C204 0.930 . S
C208 C210 1.348 . S
C208 C211 1.356 . S
C208 O238 1.325 . S
N209 C212 1.314 . S
N209 C213 1.279 . S
C210 C208 1.348 . S
C210 C212 1.353 . S
C210 H252 0.929 . S
C211 C208 1.356 . S
C211 C213 1.358 . S
C211 H253 0.930 . S
C212 N209 1.314 . S
C212 C210 1.353 . S
C212 H254 0.930 . S
C213 N209 1.279 . S
C213 C211 1.358 . S
C213 H255 0.930 . S
C214 C215 1.348 . S
C214 C216 1.356 . S
C214 O239 1.325 . S
C215 C214 1.348 . S
C215 C217 1.353 . S
C215 H256 0.929 . S
C216 C214 1.356 . S
C216 C218 1.358 . S
C216 H257 0.930 . S
C217 C215 1.353 . S
C217 N219 1.314 . S
C217 H258 0.930 . S
C218 C216 1.358 . S
C218 N219 1.279 . S
C218 H259 0.930 . S
N219 C217 1.314 . S
N219 C218 1.279 . S
C220 C222 1.353 . S
C220 N223 1.314 . S
C220 H226 0.930 . S
C221 N223 1.279 . S
C221 C224 1.358 . S
C221 H227 0.930 . S
C222 C220 1.353 . S
C222 C225 1.348 . S
C222 H260 0.929 . S
N223 Li178 1.990 . S
N223 C220 1.314 . S
N223 C221 1.279 . S
C224 C221 1.358 . S
C224 C225 1.356 . S
C224 H261 0.930 . S
C225 C222 1.348 . S
C225 C224 1.356 . S
H226 C220 0.930 . S
H227 C221 0.930 . S
C228 N229 1.314 . S
C228 C230 1.353 . S
C228 H234 0.930 . S
N229 Li179 1.990 . S
N229 C228 1.314 . S
N229 C232 1.279 . S
C230 C228 1.353 . S
C230 C233 1.348 . S
C230 H262 0.929 . S
C231 C232 1.358 . S
C231 C233 1.356 . S
C231 H263 0.930 . S
C232 N229 1.279 . S
C232 C231 1.358 . S
C232 H235 0.930 . S
C233 C230 1.348 . S
C233 C231 1.356 . S
H234 C228 0.930 . S
H235 C232 0.930 . S
O236 Li176 1.956 . S
O236 Li177 1.970 . S
O236 Li178 1.961 . S
O236 C180 1.325 . S
O237 Li176 1.970 . S
O237 Li177 1.956 . S
O237 Li179 1.961 . S
O237 C186 1.325 . S
O238 Li176 1.961 . S
O238 Li178 1.956 . S
O238 Li179 1.970 . S
O238 C208 1.325 . S
O239 Li177 1.961 . S
O239 Li178 1.970 . S
O239 Li179 1.956 . S
O239 C214 1.325 . S
H240 C182 0.929 . S
H241 C183 0.930 . S
H242 C184 0.930 . S
H243 C185 0.930 . S
H244 C187 0.930 . S
H245 C189 0.929 . S
H246 C190 0.930 . S
H247 C191 0.930 . S
H248 C194 0.930 . S
H249 C197 0.929 . S
H250 C202 0.929 . S
H251 C203 0.930 . S
H252 C210 0.929 . S
H253 C211 0.930 . S
H254 C212 0.930 . S
H255 C213 0.930 . S
H256 C215 0.929 . S
H257 C216 0.930 . S
H258 C217 0.930 . S
H259 C218 0.930 . S
H260 C222 0.929 . S
H261 C224 0.930 . S
H262 C230 0.929 . S
H263 C231 0.930 . S
Li264 N281 1.990 . S
Li264 O324 1.956 . S
Li264 O325 1.970 . S
Li264 O326 1.961 . S
Li265 N289 1.990 . S
Li265 O324 1.970 . S
Li265 O325 1.956 . S
Li265 O327 1.961 . S
Li266 N311 1.990 . S
Li266 O324 1.961 . S
Li266 O326 1.956 . S
Li266 O327 1.970 . S
Li267 N317 1.990 . S
Li267 O325 1.961 . S
Li267 O326 1.970 . S
Li267 O327 1.956 . S
C268 C270 1.348 . S
C268 C271 1.356 . S
C268 O324 1.325 . S
N269 C272 1.314 . S
N269 C273 1.279 . S
C270 C268 1.348 . S
C270 C272 1.353 . S
C270 H328 0.929 . S
C271 C268 1.356 . S
C271 C273 1.358 . S
C271 H329 0.930 . S
C272 N269 1.314 . S
C272 C270 1.353 . S
C272 H330 0.930 . S
C273 N269 1.279 . S
C273 C271 1.358 . S
C273 H331 0.930 . S
C274 C277 1.348 . S
C274 C278 1.356 . S
C274 O325 1.325 . S
C275 N276 1.279 . S
C275 C278 1.358 . S
C275 H332 0.930 . S
N276 C275 1.279 . S
N276 C279 1.314 . S
C277 C274 1.348 . S
C277 C279 1.353 . S
C277 H333 0.929 . S
C278 C274 1.356 . S
C278 C275 1.358 . S
C278 H334 0.930 . S
C279 N276 1.314 . S
C279 C277 1.353 . S
C279 H335 0.930 . S
C280 N281 1.314 . S
C280 C285 1.353 . S
C280 H286 0.930 . S
N281 Li264 1.990 . S
N281 C280 1.314 . S
N281 C283 1.279 . S
C282 C283 1.358 . S
C282 C284 1.356 . S
C282 H336 0.930 . S
C283 N281 1.279 . S
C283 C282 1.358 . S
C283 H287 0.930 . S
C284 C282 1.356 . S
C284 C285 1.348 . S
C285 C280 1.353 . S
C285 C284 1.348 . S
C285 H337 0.929 . S
H286 C280 0.930 . S
H287 C283 0.930 . S
C288 N289 1.314 . S
C288 C290 1.353 . S
C288 H294 0.930 . S
N289 Li265 1.990 . S
N289 C288 1.314 . S
N289 C292 1.279 . S
C290 C288 1.353 . S
C290 C293 1.348 . S
C290 H338 0.929 . S
C291 C292 1.358 . S
C291 C293 1.356 . S
C291 H339 0.930 . S
C292 N289 1.279 . S
C292 C291 1.358 . S
C292 H295 0.930 . S
C293 C290 1.348 . S
C293 C291 1.356 . S
H294 C288 0.930 . S
H295 C292 0.930 . S
C296 C298 1.348 . S
C296 C299 1.356 . S
C296 O326 1.325 . S
N297 C300 1.314 . S
N297 C301 1.279 . S
C298 C296 1.348 . S
C298 C300 1.353 . S
C298 H340 0.929 . S
C299 C296 1.356 . S
C299 C301 1.358 . S
C299 H341 0.930 . S
C300 N297 1.314 . S
C300 C298 1.353 . S
C300 H342 0.930 . S
C301 N297 1.279 . S
C301 C299 1.358 . S
C301 H343 0.930 . S
C302 C303 1.348 . S
C302 C304 1.356 . S
C302 O327 1.325 . S
C303 C302 1.348 . S
C303 C305 1.353 . S
C303 H344 0.929 . S
C304 C302 1.356 . S
C304 C306 1.358 . S
C304 H345 0.930 . S
C305 C303 1.353 . S
C305 N307 1.314 . S
C305 H346 0.930 . S
C306 C304 1.358 . S
C306 N307 1.279 . S
C306 H347 0.930 . S
N307 C305 1.314 . S
N307 C306 1.279 . S
C308 C310 1.353 . S
C308 N311 1.314 . S
C308 H314 0.930 . S
C309 N311 1.279 . S
C309 C312 1.358 . S
C309 H315 0.930 . S
C310 C308 1.353 . S
C310 C313 1.348 . S
C310 H348 0.929 . S
N311 Li266 1.990 . S
N311 C308 1.314 . S
N311 C309 1.279 . S
C312 C309 1.358 . S
C312 C313 1.356 . S
C312 H349 0.930 . S
C313 C310 1.348 . S
C313 C312 1.356 . S
H314 C308 0.930 . S
H315 C309 0.930 . S
C316 N317 1.314 . S
C316 C318 1.353 . S
C316 H322 0.930 . S
N317 Li267 1.990 . S
N317 C316 1.314 . S
N317 C320 1.279 . S
C318 C316 1.353 . S
C318 C321 1.348 . S
C318 H350 0.929 . S
C319 C320 1.358 . S
C319 C321 1.356 . S
C319 H351 0.930 . S
C320 N317 1.279 . S
C320 C319 1.358 . S
C320 H323 0.930 . S
C321 C318 1.348 . S
C321 C319 1.356 . S
H322 C316 0.930 . S
H323 C320 0.930 . S
O324 Li264 1.956 . S
O324 Li265 1.970 . S
O324 Li266 1.961 . S
O324 C268 1.325 . S
O325 Li264 1.970 . S
O325 Li265 1.956 . S
O325 Li267 1.961 . S
O325 C274 1.325 . S
O326 Li264 1.961 . S
O326 Li266 1.956 . S
O326 Li267 1.970 . S
O326 C296 1.325 . S
O327 Li265 1.961 . S
O327 Li266 1.970 . S
O327 Li267 1.956 . S
O327 C302 1.325 . S
H328 C270 0.929 . S
H329 C271 0.930 . S
H330 C272 0.930 . S
H331 C273 0.930 . S
H332 C275 0.930 . S
H333 C277 0.929 . S
H334 C278 0.930 . S
H335 C279 0.930 . S
H336 C282 0.930 . S
H337 C285 0.929 . S
H338 C290 0.929 . S
H339 C291 0.930 . S
H340 C298 0.929 . S
H341 C299 0.930 . S
H342 C300 0.930 . S
H343 C301 0.930 . S
H344 C303 0.929 . S
H345 C304 0.930 . S
H346 C305 0.930 . S
H347 C306 0.930 . S
H348 C310 0.929 . S
H349 C312 0.930 . S
H350 C318 0.929 . S
H351 C319 0.930 . S
Li352 N369 1.990 . S
Li352 O412 1.956 . S
Li352 O413 1.970 . S
Li352 O414 1.961 . S
Li353 N377 1.990 . S
Li353 O412 1.970 . S
Li353 O413 1.956 . S
Li353 O415 1.961 . S
Li354 N399 1.990 . S
Li354 O412 1.961 . S
Li354 O414 1.956 . S
Li354 O415 1.970 . S
Li355 N405 1.990 . S
Li355 O413 1.961 . S
Li355 O414 1.970 . S
Li355 O415 1.956 . S
C356 C358 1.348 . S
C356 C359 1.356 . S
C356 O412 1.325 . S
N357 C360 1.314 . S
N357 C361 1.279 . S
C358 C356 1.348 . S
C358 C360 1.353 . S
C358 H416 0.929 . S
C359 C356 1.356 . S
C359 C361 1.358 . S
C359 H417 0.930 . S
C360 N357 1.314 . S
C360 C358 1.353 . S
C360 H418 0.930 . S
C361 N357 1.279 . S
C361 C359 1.358 . S
C361 H419 0.930 . S
C362 C365 1.348 . S
C362 C366 1.356 . S
C362 O413 1.325 . S
C363 N364 1.279 . S
C363 C366 1.358 . S
C363 H420 0.930 . S
N364 C363 1.279 . S
N364 C367 1.314 . S
C365 C362 1.348 . S
C365 C367 1.353 . S
C365 H421 0.929 . S
C366 C362 1.356 . S
C366 C363 1.358 . S
C366 H422 0.930 . S
C367 N364 1.314 . S
C367 C365 1.353 . S
C367 H423 0.930 . S
C368 N369 1.314 . S
C368 C373 1.353 . S
C368 H374 0.930 . S
N369 Li352 1.990 . S
N369 C368 1.314 . S
N369 C371 1.279 . S
C370 C371 1.358 . S
C370 C372 1.356 . S
C370 H424 0.930 . S
C371 N369 1.279 . S
C371 C370 1.358 . S
C371 H375 0.930 . S
C372 C370 1.356 . S
C372 C373 1.348 . S
C373 C368 1.353 . S
C373 C372 1.348 . S
C373 H425 0.929 . S
H374 C368 0.930 . S
H375 C371 0.930 . S
C376 N377 1.314 . S
C376 C378 1.353 . S
C376 H382 0.930 . S
N377 Li353 1.990 . S
N377 C376 1.314 . S
N377 C380 1.279 . S
C378 C376 1.353 . S
C378 C381 1.348 . S
C378 H426 0.929 . S
C379 C380 1.358 . S
C379 C381 1.356 . S
C379 H427 0.930 . S
C380 N377 1.279 . S
C380 C379 1.358 . S
C380 H383 0.930 . S
C381 C378 1.348 . S
C381 C379 1.356 . S
H382 C376 0.930 . S
H383 C380 0.930 . S
C384 C386 1.348 . S
C384 C387 1.356 . S
C384 O414 1.325 . S
N385 C388 1.314 . S
N385 C389 1.279 . S
C386 C384 1.348 . S
C386 C388 1.353 . S
C386 H428 0.929 . S
C387 C384 1.356 . S
C387 C389 1.358 . S
C387 H429 0.930 . S
C388 N385 1.314 . S
C388 C386 1.353 . S
C388 H430 0.930 . S
C389 N385 1.279 . S
C389 C387 1.358 . S
C389 H431 0.930 . S
C390 C391 1.348 . S
C390 C392 1.356 . S
C390 O415 1.325 . S
C391 C390 1.348 . S
C391 C393 1.353 . S
C391 H432 0.929 . S
C392 C390 1.356 . S
C392 C394 1.358 . S
C392 H433 0.930 . S
C393 C391 1.353 . S
C393 N395 1.314 . S
C393 H434 0.930 . S
C394 C392 1.358 . S
C394 N395 1.279 . S
C394 H435 0.930 . S
N395 C393 1.314 . S
N395 C394 1.279 . S
C396 C398 1.353 . S
C396 N399 1.314 . S
C396 H402 0.930 . S
C397 N399 1.279 . S
C397 C400 1.358 . S
C397 H403 0.930 . S
C398 C396 1.353 . S
C398 C401 1.348 . S
C398 H436 0.929 . S
N399 Li354 1.990 . S
N399 C396 1.314 . S
N399 C397 1.279 . S
C400 C397 1.358 . S
C400 C401 1.356 . S
C400 H437 0.930 . S
C401 C398 1.348 . S
C401 C400 1.356 . S
H402 C396 0.930 . S
H403 C397 0.930 . S
C404 N405 1.314 . S
C404 C406 1.353 . S
C404 H410 0.930 . S
N405 Li355 1.990 . S
N405 C404 1.314 . S
N405 C408 1.279 . S
C406 C404 1.353 . S
C406 C409 1.348 . S
C406 H438 0.929 . S
C407 C408 1.358 . S
C407 C409 1.356 . S
C407 H439 0.930 . S
C408 N405 1.279 . S
C408 C407 1.358 . S
C408 H411 0.930 . S
C409 C406 1.348 . S
C409 C407 1.356 . S
H410 C404 0.930 . S
H411 C408 0.930 . S
O412 Li352 1.956 . S
O412 Li353 1.970 . S
O412 Li354 1.961 . S
O412 C356 1.325 . S
O413 Li352 1.970 . S
O413 Li353 1.956 . S
O413 Li355 1.961 . S
O413 C362 1.325 . S
O414 Li352 1.961 . S
O414 Li354 1.956 . S
O414 Li355 1.970 . S
O414 C384 1.325 . S
O415 Li353 1.961 . S
O415 Li354 1.970 . S
O415 Li355 1.956 . S
O415 C390 1.325 . S
H416 C358 0.929 . S
H417 C359 0.930 . S
H418 C360 0.930 . S
H419 C361 0.930 . S
H420 C363 0.930 . S
H421 C365 0.929 . S
H422 C366 0.930 . S
H423 C367 0.930 . S
H424 C370 0.930 . S
H425 C373 0.929 . S
H426 C378 0.929 . S
H427 C379 0.930 . S
H428 C386 0.929 . S
H429 C387 0.930 . S
H430 C388 0.930 . S
H431 C389 0.930 . S
H432 C391 0.929 . S
H433 C392 0.930 . S
H434 C393 0.930 . S
H435 C394 0.930 . S
H436 C398 0.929 . S
H437 C400 0.930 . S
H438 C406 0.929 . S
H439 C407 0.930 . S
Li440 N457 1.990 . S
Li440 O500 1.956 . S
Li440 O501 1.970 . S
Li440 O502 1.961 . S
Li441 N465 1.990 . S
Li441 O500 1.970 . S
Li441 O501 1.956 . S
Li441 O503 1.961 . S
Li442 N487 1.990 . S
Li442 O500 1.961 . S
Li442 O502 1.956 . S
Li442 O503 1.970 . S
Li443 N493 1.990 . S
Li443 O501 1.961 . S
Li443 O502 1.970 . S
Li443 O503 1.956 . S
C444 C446 1.348 . S
C444 C447 1.356 . S
C444 O500 1.325 . S
N445 C448 1.314 . S
N445 C449 1.279 . S
C446 C444 1.348 . S
C446 C448 1.353 . S
C446 H504 0.929 . S
C447 C444 1.356 . S
C447 C449 1.358 . S
C447 H505 0.930 . S
C448 N445 1.314 . S
C448 C446 1.353 . S
C448 H506 0.930 . S
C449 N445 1.279 . S
C449 C447 1.358 . S
C449 H507 0.930 . S
C450 C453 1.348 . S
C450 C454 1.356 . S
C450 O501 1.325 . S
C451 N452 1.279 . S
C451 C454 1.358 . S
C451 H508 0.930 . S
N452 C451 1.279 . S
N452 C455 1.314 . S
C453 C450 1.348 . S
C453 C455 1.353 . S
C453 H509 0.929 . S
C454 C450 1.356 . S
C454 C451 1.358 . S
C454 H510 0.930 . S
C455 N452 1.314 . S
C455 C453 1.353 . S
C455 H511 0.930 . S
C456 N457 1.314 . S
C456 C461 1.353 . S
C456 H462 0.930 . S
N457 Li440 1.990 . S
N457 C456 1.314 . S
N457 C459 1.279 . S
C458 C459 1.358 . S
C458 C460 1.356 . S
C458 H512 0.930 . S
C459 N457 1.279 . S
C459 C458 1.358 . S
C459 H463 0.930 . S
C460 C458 1.356 . S
C460 C461 1.348 . S
C461 C456 1.353 . S
C461 C460 1.348 . S
C461 H513 0.929 . S
H462 C456 0.930 . S
H463 C459 0.930 . S
C464 N465 1.314 . S
C464 C466 1.353 . S
C464 H470 0.930 . S
N465 Li441 1.990 . S
N465 C464 1.314 . S
N465 C468 1.279 . S
C466 C464 1.353 . S
C466 C469 1.348 . S
C466 H514 0.929 . S
C467 C468 1.358 . S
C467 C469 1.356 . S
C467 H515 0.930 . S
C468 N465 1.279 . S
C468 C467 1.358 . S
C468 H471 0.930 . S
C469 C466 1.348 . S
C469 C467 1.356 . S
H470 C464 0.930 . S
H471 C468 0.930 . S
C472 C474 1.348 . S
C472 C475 1.356 . S
C472 O502 1.325 . S
N473 C476 1.314 . S
N473 C477 1.279 . S
C474 C472 1.348 . S
C474 C476 1.353 . S
C474 H516 0.929 . S
C475 C472 1.356 . S
C475 C477 1.358 . S
C475 H517 0.930 . S
C476 N473 1.314 . S
C476 C474 1.353 . S
C476 H518 0.930 . S
C477 N473 1.279 . S
C477 C475 1.358 . S
C477 H519 0.930 . S
C478 C479 1.348 . S
C478 C480 1.356 . S
C478 O503 1.325 . S
C479 C478 1.348 . S
C479 C481 1.353 . S
C479 H520 0.929 . S
C480 C478 1.356 . S
C480 C482 1.358 . S
C480 H521 0.930 . S
C481 C479 1.353 . S
C481 N483 1.314 . S
C481 H522 0.930 . S
C482 C480 1.358 . S
C482 N483 1.279 . S
C482 H523 0.930 . S
N483 C481 1.314 . S
N483 C482 1.279 . S
C484 C486 1.353 . S
C484 N487 1.314 . S
C484 H490 0.930 . S
C485 N487 1.279 . S
C485 C488 1.358 . S
C485 H491 0.930 . S
C486 C484 1.353 . S
C486 C489 1.348 . S
C486 H524 0.929 . S
N487 Li442 1.990 . S
N487 C484 1.314 . S
N487 C485 1.279 . S
C488 C485 1.358 . S
C488 C489 1.356 . S
C488 H525 0.930 . S
C489 C486 1.348 . S
C489 C488 1.356 . S
H490 C484 0.930 . S
H491 C485 0.930 . S
C492 N493 1.314 . S
C492 C494 1.353 . S
C492 H498 0.930 . S
N493 Li443 1.990 . S
N493 C492 1.314 . S
N493 C496 1.279 . S
C494 C492 1.353 . S
C494 C497 1.348 . S
C494 H526 0.929 . S
C495 C496 1.358 . S
C495 C497 1.356 . S
C495 H527 0.930 . S
C496 N493 1.279 . S
C496 C495 1.358 . S
C496 H499 0.930 . S
C497 C494 1.348 . S
C497 C495 1.356 . S
H498 C492 0.930 . S
H499 C496 0.930 . S
O500 Li440 1.956 . S
O500 Li441 1.970 . S
O500 Li442 1.961 . S
O500 C444 1.325 . S
O501 Li440 1.970 . S
O501 Li441 1.956 . S
O501 Li443 1.961 . S
O501 C450 1.325 . S
O502 Li440 1.961 . S
O502 Li442 1.956 . S
O502 Li443 1.970 . S
O502 C472 1.325 . S
O503 Li441 1.961 . S
O503 Li442 1.970 . S
O503 Li443 1.956 . S
O503 C478 1.325 . S
H504 C446 0.929 . S
H505 C447 0.930 . S
H506 C448 0.930 . S
H507 C449 0.930 . S
H508 C451 0.930 . S
H509 C453 0.929 . S
H510 C454 0.930 . S
H511 C455 0.930 . S
H512 C458 0.930 . S
H513 C461 0.929 . S
H514 C466 0.929 . S
H515 C467 0.930 . S
H516 C474 0.929 . S
H517 C475 0.930 . S
H518 C476 0.930 . S
H519 C477 0.930 . S
H520 C479 0.929 . S
H521 C480 0.930 . S
H522 C481 0.930 . S
H523 C482 0.930 . S
H524 C486 0.929 . S
H525 C488 0.930 . S
H526 C494 0.929 . S
H527 C495 0.930 . S
Li528 N545 1.990 . S
Li528 O588 1.956 . S
Li528 O589 1.970 . S
Li528 O590 1.961 . S
Li529 N553 1.990 . S
Li529 O588 1.970 . S
Li529 O589 1.956 . S
Li529 O591 1.961 . S
Li530 N575 1.990 . S
Li530 O588 1.961 . S
Li530 O590 1.956 . S
Li530 O591 1.970 . S
Li531 N581 1.990 . S
Li531 O589 1.961 . S
Li531 O590 1.970 . S
Li531 O591 1.956 . S
C532 C534 1.348 . S
C532 C535 1.356 . S
C532 O588 1.325 . S
N533 C536 1.314 . S
N533 C537 1.279 . S
C534 C532 1.348 . S
C534 C536 1.353 . S
C534 H592 0.929 . S
C535 C532 1.356 . S
C535 C537 1.358 . S
C535 H593 0.930 . S
C536 N533 1.314 . S
C536 C534 1.353 . S
C536 H594 0.930 . S
C537 N533 1.279 . S
C537 C535 1.358 . S
C537 H595 0.930 . S
C538 C541 1.348 . S
C538 C542 1.356 . S
C538 O589 1.325 . S
C539 N540 1.279 . S
C539 C542 1.358 . S
C539 H596 0.930 . S
N540 C539 1.279 . S
N540 C543 1.314 . S
C541 C538 1.348 . S
C541 C543 1.353 . S
C541 H597 0.929 . S
C542 C538 1.356 . S
C542 C539 1.358 . S
C542 H598 0.930 . S
C543 N540 1.314 . S
C543 C541 1.353 . S
C543 H599 0.930 . S
C544 N545 1.314 . S
C544 C549 1.353 . S
C544 H550 0.930 . S
N545 Li528 1.990 . S
N545 C544 1.314 . S
N545 C547 1.279 . S
C546 C547 1.358 . S
C546 C548 1.356 . S
C546 H600 0.930 . S
C547 N545 1.279 . S
C547 C546 1.358 . S
C547 H551 0.930 . S
C548 C546 1.356 . S
C548 C549 1.348 . S
C549 C544 1.353 . S
C549 C548 1.348 . S
C549 H601 0.929 . S
H550 C544 0.930 . S
H551 C547 0.930 . S
C552 N553 1.314 . S
C552 C554 1.353 . S
C552 H558 0.930 . S
N553 Li529 1.990 . S
N553 C552 1.314 . S
N553 C556 1.279 . S
C554 C552 1.353 . S
C554 C557 1.348 . S
C554 H602 0.929 . S
C555 C556 1.358 . S
C555 C557 1.356 . S
C555 H603 0.930 . S
C556 N553 1.279 . S
C556 C555 1.358 . S
C556 H559 0.930 . S
C557 C554 1.348 . S
C557 C555 1.356 . S
H558 C552 0.930 . S
H559 C556 0.930 . S
C560 C562 1.348 . S
C560 C563 1.356 . S
C560 O590 1.325 . S
N561 C564 1.314 . S
N561 C565 1.279 . S
C562 C560 1.348 . S
C562 C564 1.353 . S
C562 H604 0.929 . S
C563 C560 1.356 . S
C563 C565 1.358 . S
C563 H605 0.930 . S
C564 N561 1.314 . S
C564 C562 1.353 . S
C564 H606 0.930 . S
C565 N561 1.279 . S
C565 C563 1.358 . S
C565 H607 0.930 . S
C566 C567 1.348 . S
C566 C568 1.356 . S
C566 O591 1.325 . S
C567 C566 1.348 . S
C567 C569 1.353 . S
C567 H608 0.929 . S
C568 C566 1.356 . S
C568 C570 1.358 . S
C568 H609 0.930 . S
C569 C567 1.353 . S
C569 N571 1.314 . S
C569 H610 0.930 . S
C570 C568 1.358 . S
C570 N571 1.279 . S
C570 H611 0.930 . S
N571 C569 1.314 . S
N571 C570 1.279 . S
C572 C574 1.353 . S
C572 N575 1.314 . S
C572 H578 0.930 . S
C573 N575 1.279 . S
C573 C576 1.358 . S
C573 H579 0.930 . S
C574 C572 1.353 . S
C574 C577 1.348 . S
C574 H612 0.929 . S
N575 Li530 1.990 . S
N575 C572 1.314 . S
N575 C573 1.279 . S
C576 C573 1.358 . S
C576 C577 1.356 . S
C576 H613 0.930 . S
C577 C574 1.348 . S
C577 C576 1.356 . S
H578 C572 0.930 . S
H579 C573 0.930 . S
C580 N581 1.314 . S
C580 C582 1.353 . S
C580 H586 0.930 . S
N581 Li531 1.990 . S
N581 C580 1.314 . S
N581 C584 1.279 . S
C582 C580 1.353 . S
C582 C585 1.348 . S
C582 H614 0.929 . S
C583 C584 1.358 . S
C583 C585 1.356 . S
C583 H615 0.930 . S
C584 N581 1.279 . S
C584 C583 1.358 . S
C584 H587 0.930 . S
C585 C582 1.348 . S
C585 C583 1.356 . S
H586 C580 0.930 . S
H587 C584 0.930 . S
O588 Li528 1.956 . S
O588 Li529 1.970 . S
O588 Li530 1.961 . S
O588 C532 1.325 . S
O589 Li528 1.970 . S
O589 Li529 1.956 . S
O589 Li531 1.961 . S
O589 C538 1.325 . S
O590 Li528 1.961 . S
O590 Li530 1.956 . S
O590 Li531 1.970 . S
O590 C560 1.325 . S
O591 Li529 1.961 . S
O591 Li530 1.970 . S
O591 Li531 1.956 . S
O591 C566 1.325 . S
H592 C534 0.929 . S
H593 C535 0.930 . S
H594 C536 0.930 . S
H595 C537 0.930 . S
H596 C539 0.930 . S
H597 C541 0.929 . S
H598 C542 0.930 . S
H599 C543 0.930 . S
H600 C546 0.930 . S
H601 C549 0.929 . S
H602 C554 0.929 . S
H603 C555 0.930 . S
H604 C562 0.929 . S
H605 C563 0.930 . S
H606 C564 0.930 . S
H607 C565 0.930 . S
H608 C567 0.929 . S
H609 C568 0.930 . S
H610 C569 0.930 . S
H611 C570 0.930 . S
H612 C574 0.929 . S
H613 C576 0.930 . S
H614 C582 0.929 . S
H615 C583 0.930 . S
Li616 N633 1.990 . S
Li616 O676 1.956 . S
Li616 O677 1.970 . S
Li616 O678 1.961 . S
Li617 N641 1.990 . S
Li617 O676 1.970 . S
Li617 O677 1.956 . S
Li617 O679 1.961 . S
Li618 N663 1.990 . S
Li618 O676 1.961 . S
Li618 O678 1.956 . S
Li618 O679 1.970 . S
Li619 N669 1.990 . S
Li619 O677 1.961 . S
Li619 O678 1.970 . S
Li619 O679 1.956 . S
C620 C622 1.348 . S
C620 C623 1.356 . S
C620 O676 1.325 . S
N621 C624 1.314 . S
N621 C625 1.279 . S
C622 C620 1.348 . S
C622 C624 1.353 . S
C622 H680 0.929 . S
C623 C620 1.356 . S
C623 C625 1.358 . S
C623 H681 0.930 . S
C624 N621 1.314 . S
C624 C622 1.353 . S
C624 H682 0.930 . S
C625 N621 1.279 . S
C625 C623 1.358 . S
C625 H683 0.930 . S
C626 C629 1.348 . S
C626 C630 1.356 . S
C626 O677 1.325 . S
C627 N628 1.279 . S
C627 C630 1.358 . S
C627 H684 0.930 . S
N628 C627 1.279 . S
N628 C631 1.314 . S
C629 C626 1.348 . S
C629 C631 1.353 . S
C629 H685 0.929 . S
C630 C626 1.356 . S
C630 C627 1.358 . S
C630 H686 0.930 . S
C631 N628 1.314 . S
C631 C629 1.353 . S
C631 H687 0.930 . S
C632 N633 1.314 . S
C632 C637 1.353 . S
C632 H638 0.930 . S
N633 Li616 1.990 . S
N633 C632 1.314 . S
N633 C635 1.279 . S
C634 C635 1.358 . S
C634 C636 1.356 . S
C634 H688 0.930 . S
C635 N633 1.279 . S
C635 C634 1.358 . S
C635 H639 0.930 . S
C636 C634 1.356 . S
C636 C637 1.348 . S
C637 C632 1.353 . S
C637 C636 1.348 . S
C637 H689 0.929 . S
H638 C632 0.930 . S
H639 C635 0.930 . S
C640 N641 1.314 . S
C640 C642 1.353 . S
C640 H646 0.930 . S
N641 Li617 1.990 . S
N641 C640 1.314 . S
N641 C644 1.279 . S
C642 C640 1.353 . S
C642 C645 1.348 . S
C642 H690 0.929 . S
C643 C644 1.358 . S
C643 C645 1.356 . S
C643 H691 0.930 . S
C644 N641 1.279 . S
C644 C643 1.358 . S
C644 H647 0.930 . S
C645 C642 1.348 . S
C645 C643 1.356 . S
H646 C640 0.930 . S
H647 C644 0.930 . S
C648 C650 1.348 . S
C648 C651 1.356 . S
C648 O678 1.325 . S
N649 C652 1.314 . S
N649 C653 1.279 . S
C650 C648 1.348 . S
C650 C652 1.353 . S
C650 H692 0.929 . S
C651 C648 1.356 . S
C651 C653 1.358 . S
C651 H693 0.930 . S
C652 N649 1.314 . S
C652 C650 1.353 . S
C652 H694 0.930 . S
C653 N649 1.279 . S
C653 C651 1.358 . S
C653 H695 0.930 . S
C654 C655 1.348 . S
C654 C656 1.356 . S
C654 O679 1.325 . S
C655 C654 1.348 . S
C655 C657 1.353 . S
C655 H696 0.929 . S
C656 C654 1.356 . S
C656 C658 1.358 . S
C656 H697 0.930 . S
C657 C655 1.353 . S
C657 N659 1.314 . S
C657 H698 0.930 . S
C658 C656 1.358 . S
C658 N659 1.279 . S
C658 H699 0.930 . S
N659 C657 1.314 . S
N659 C658 1.279 . S
C660 C662 1.353 . S
C660 N663 1.314 . S
C660 H666 0.930 . S
C661 N663 1.279 . S
C661 C664 1.358 . S
C661 H667 0.930 . S
C662 C660 1.353 . S
C662 C665 1.348 . S
C662 H700 0.929 . S
N663 Li618 1.990 . S
N663 C660 1.314 . S
N663 C661 1.279 . S
C664 C661 1.358 . S
C664 C665 1.356 . S
C664 H701 0.930 . S
C665 C662 1.348 . S
C665 C664 1.356 . S
H666 C660 0.930 . S
H667 C661 0.930 . S
C668 N669 1.314 . S
C668 C670 1.353 . S
C668 H674 0.930 . S
N669 Li619 1.990 . S
N669 C668 1.314 . S
N669 C672 1.279 . S
C670 C668 1.353 . S
C670 C673 1.348 . S
C670 H702 0.929 . S
C671 C672 1.358 . S
C671 C673 1.356 . S
C671 H703 0.930 . S
C672 N669 1.279 . S
C672 C671 1.358 . S
C672 H675 0.930 . S
C673 C670 1.348 . S
C673 C671 1.356 . S
H674 C668 0.930 . S
H675 C672 0.930 . S
O676 Li616 1.956 . S
O676 Li617 1.970 . S
O676 Li618 1.961 . S
O676 C620 1.325 . S
O677 Li616 1.970 . S
O677 Li617 1.956 . S
O677 Li619 1.961 . S
O677 C626 1.325 . S
O678 Li616 1.961 . S
O678 Li618 1.956 . S
O678 Li619 1.970 . S
O678 C648 1.325 . S
O679 Li617 1.961 . S
O679 Li618 1.970 . S
O679 Li619 1.956 . S
O679 C654 1.325 . S
H680 C622 0.929 . S
H681 C623 0.930 . S
H682 C624 0.930 . S
H683 C625 0.930 . S
H684 C627 0.930 . S
H685 C629 0.929 . S
H686 C630 0.930 . S
H687 C631 0.930 . S
H688 C634 0.930 . S
H689 C637 0.929 . S
H690 C642 0.929 . S
H691 C643 0.930 . S
H692 C650 0.929 . S
H693 C651 0.930 . S
H694 C652 0.930 . S
H695 C653 0.930 . S
H696 C655 0.929 . S
H697 C656 0.930 . S
H698 C657 0.930 . S
H699 C658 0.930 . S
H700 C662 0.929 . S
H701 C664 0.930 . S
H702 C670 0.929 . S
H703 C671 0.930 . S
Li704 N721 1.990 . S
Li704 O764 1.956 . S
Li704 O765 1.970 . S
Li704 O766 1.961 . S
Li705 N729 1.990 . S
Li705 O764 1.970 . S
Li705 O765 1.956 . S
Li705 O767 1.961 . S
Li706 N751 1.990 . S
Li706 O764 1.961 . S
Li706 O766 1.956 . S
Li706 O767 1.970 . S
Li707 N757 1.990 . S
Li707 O765 1.961 . S
Li707 O766 1.970 . S
Li707 O767 1.956 . S
C708 C710 1.348 . S
C708 C711 1.356 . S
C708 O764 1.325 . S
N709 C712 1.314 . S
N709 C713 1.279 . S
C710 C708 1.348 . S
C710 C712 1.353 . S
C710 H768 0.929 . S
C711 C708 1.356 . S
C711 C713 1.358 . S
C711 H769 0.930 . S
C712 N709 1.314 . S
C712 C710 1.353 . S
C712 H770 0.930 . S
C713 N709 1.279 . S
C713 C711 1.358 . S
C713 H771 0.930 . S
C714 C717 1.348 . S
C714 C718 1.356 . S
C714 O765 1.325 . S
C715 N716 1.279 . S
C715 C718 1.358 . S
C715 H772 0.930 . S
N716 C715 1.279 . S
N716 C719 1.314 . S
C717 C714 1.348 . S
C717 C719 1.353 . S
C717 H773 0.929 . S
C718 C714 1.356 . S
C718 C715 1.358 . S
C718 H774 0.930 . S
C719 N716 1.314 . S
C719 C717 1.353 . S
C719 H775 0.930 . S
C720 N721 1.314 . S
C720 C725 1.353 . S
C720 H726 0.930 . S
N721 Li704 1.990 . S
N721 C720 1.314 . S
N721 C723 1.279 . S
C722 C723 1.358 . S
C722 C724 1.356 . S
C722 H776 0.930 . S
C723 N721 1.279 . S
C723 C722 1.358 . S
C723 H727 0.930 . S
C724 C722 1.356 . S
C724 C725 1.348 . S
C725 C720 1.353 . S
C725 C724 1.348 . S
C725 H777 0.929 . S
H726 C720 0.930 . S
H727 C723 0.930 . S
C728 N729 1.314 . S
C728 C730 1.353 . S
C728 H734 0.930 . S
N729 Li705 1.990 . S
N729 C728 1.314 . S
N729 C732 1.279 . S
C730 C728 1.353 . S
C730 C733 1.348 . S
C730 H778 0.929 . S
C731 C732 1.358 . S
C731 C733 1.356 . S
C731 H779 0.930 . S
C732 N729 1.279 . S
C732 C731 1.358 . S
C732 H735 0.930 . S
C733 C730 1.348 . S
C733 C731 1.356 . S
H734 C728 0.930 . S
H735 C732 0.930 . S
C736 C738 1.348 . S
C736 C739 1.356 . S
C736 O766 1.325 . S
N737 C740 1.314 . S
N737 C741 1.279 . S
C738 C736 1.348 . S
C738 C740 1.353 . S
C738 H780 0.929 . S
C739 C736 1.356 . S
C739 C741 1.358 . S
C739 H781 0.930 . S
C740 N737 1.314 . S
C740 C738 1.353 . S
C740 H782 0.930 . S
C741 N737 1.279 . S
C741 C739 1.358 . S
C741 H783 0.930 . S
C742 C743 1.348 . S
C742 C744 1.356 . S
C742 O767 1.325 . S
C743 C742 1.348 . S
C743 C745 1.353 . S
C743 H784 0.929 . S
C744 C742 1.356 . S
C744 C746 1.358 . S
C744 H785 0.930 . S
C745 C743 1.353 . S
C745 N747 1.314 . S
C745 H786 0.930 . S
C746 C744 1.358 . S
C746 N747 1.279 . S
C746 H787 0.930 . S
N747 C745 1.314 . S
N747 C746 1.279 . S
C748 C750 1.353 . S
C748 N751 1.314 . S
C748 H754 0.930 . S
C749 N751 1.279 . S
C749 C752 1.358 . S
C749 H755 0.930 . S
C750 C748 1.353 . S
C750 C753 1.348 . S
C750 H788 0.929 . S
N751 Li706 1.990 . S
N751 C748 1.314 . S
N751 C749 1.279 . S
C752 C749 1.358 . S
C752 C753 1.356 . S
C752 H789 0.930 . S
C753 C750 1.348 . S
C753 C752 1.356 . S
H754 C748 0.930 . S
H755 C749 0.930 . S
C756 N757 1.314 . S
C756 C758 1.353 . S
C756 H762 0.930 . S
N757 Li707 1.990 . S
N757 C756 1.314 . S
N757 C760 1.279 . S
C758 C756 1.353 . S
C758 C761 1.348 . S
C758 H790 0.929 . S
C759 C760 1.358 . S
C759 C761 1.356 . S
C759 H791 0.930 . S
C760 N757 1.279 . S
C760 C759 1.358 . S
C760 H763 0.930 . S
C761 C758 1.348 . S
C761 C759 1.356 . S
H762 C756 0.930 . S
H763 C760 0.930 . S
O764 Li704 1.956 . S
O764 Li705 1.970 . S
O764 Li706 1.961 . S
O764 C708 1.325 . S
O765 Li704 1.970 . S
O765 Li705 1.956 . S
O765 Li707 1.961 . S
O765 C714 1.325 . S
O766 Li704 1.961 . S
O766 Li706 1.956 . S
O766 Li707 1.970 . S
O766 C736 1.325 . S
O767 Li705 1.961 . S
O767 Li706 1.970 . S
O767 Li707 1.956 . S
O767 C742 1.325 . S
H768 C710 0.929 . S
H769 C711 0.930 . S
H770 C712 0.930 . S
H771 C713 0.930 . S
H772 C715 0.930 . S
H773 C717 0.929 . S
H774 C718 0.930 . S
H775 C719 0.930 . S
H776 C722 0.930 . S
H777 C725 0.929 . S
H778 C730 0.929 . S
H779 C731 0.930 . S
H780 C738 0.929 . S
H781 C739 0.930 . S
H782 C740 0.930 . S
H783 C741 0.930 . S
H784 C743 0.929 . S
H785 C744 0.930 . S
H786 C745 0.930 . S
H787 C746 0.930 . S
H788 C750 0.929 . S
H789 C752 0.930 . S
H790 C758 0.929 . S
H791 C759 0.930 . S
Li792 N809 1.990 . S
Li792 O852 1.956 . S
Li792 O853 1.970 . S
Li792 O854 1.961 . S
Li793 N817 1.990 . S
Li793 O852 1.970 . S
Li793 O853 1.956 . S
Li793 O855 1.961 . S
Li794 N839 1.990 . S
Li794 O852 1.961 . S
Li794 O854 1.956 . S
Li794 O855 1.970 . S
Li795 N845 1.990 . S
Li795 O853 1.961 . S
Li795 O854 1.970 . S
Li795 O855 1.956 . S
C796 C798 1.348 . S
C796 C799 1.356 . S
C796 O852 1.325 . S
N797 C800 1.314 . S
N797 C801 1.279 . S
C798 C796 1.348 . S
C798 C800 1.353 . S
C798 H856 0.929 . S
C799 C796 1.356 . S
C799 C801 1.358 . S
C799 H857 0.930 . S
C800 N797 1.314 . S
C800 C798 1.353 . S
C800 H858 0.930 . S
C801 N797 1.279 . S
C801 C799 1.358 . S
C801 H859 0.930 . S
C802 C805 1.348 . S
C802 C806 1.356 . S
C802 O853 1.325 . S
C803 N804 1.279 . S
C803 C806 1.358 . S
C803 H860 0.930 . S
N804 C803 1.279 . S
N804 C807 1.314 . S
C805 C802 1.348 . S
C805 C807 1.353 . S
C805 H861 0.929 . S
C806 C802 1.356 . S
C806 C803 1.358 . S
C806 H862 0.930 . S
C807 N804 1.314 . S
C807 C805 1.353 . S
C807 H863 0.930 . S
C808 N809 1.314 . S
C808 C813 1.353 . S
C808 H814 0.930 . S
N809 Li792 1.990 . S
N809 C808 1.314 . S
N809 C811 1.279 . S
C810 C811 1.358 . S
C810 C812 1.356 . S
C810 H864 0.930 . S
C811 N809 1.279 . S
C811 C810 1.358 . S
C811 H815 0.930 . S
C812 C810 1.356 . S
C812 C813 1.348 . S
C813 C808 1.353 . S
C813 C812 1.348 . S
C813 H865 0.929 . S
H814 C808 0.930 . S
H815 C811 0.930 . S
C816 N817 1.314 . S
C816 C818 1.353 . S
C816 H822 0.930 . S
N817 Li793 1.990 . S
N817 C816 1.314 . S
N817 C820 1.279 . S
C818 C816 1.353 . S
C818 C821 1.348 . S
C818 H866 0.929 . S
C819 C820 1.358 . S
C819 C821 1.356 . S
C819 H867 0.930 . S
C820 N817 1.279 . S
C820 C819 1.358 . S
C820 H823 0.930 . S
C821 C818 1.348 . S
C821 C819 1.356 . S
H822 C816 0.930 . S
H823 C820 0.930 . S
C824 C826 1.348 . S
C824 C827 1.356 . S
C824 O854 1.325 . S
N825 C828 1.314 . S
N825 C829 1.279 . S
C826 C824 1.348 . S
C826 C828 1.353 . S
C826 H868 0.929 . S
C827 C824 1.356 . S
C827 C829 1.358 . S
C827 H869 0.930 . S
C828 N825 1.314 . S
C828 C826 1.353 . S
C828 H870 0.930 . S
C829 N825 1.279 . S
C829 C827 1.358 . S
C829 H871 0.930 . S
C830 C831 1.348 . S
C830 C832 1.356 . S
C830 O855 1.325 . S
C831 C830 1.348 . S
C831 C833 1.353 . S
C831 H872 0.929 . S
C832 C830 1.356 . S
C832 C834 1.358 . S
C832 H873 0.930 . S
C833 C831 1.353 . S
C833 N835 1.314 . S
C833 H874 0.930 . S
C834 C832 1.358 . S
C834 N835 1.279 . S
C834 H875 0.930 . S
N835 C833 1.314 . S
N835 C834 1.279 . S
C836 C838 1.353 . S
C836 N839 1.314 . S
C836 H842 0.930 . S
C837 N839 1.279 . S
C837 C840 1.358 . S
C837 H843 0.930 . S
C838 C836 1.353 . S
C838 C841 1.348 . S
C838 H876 0.929 . S
N839 Li794 1.990 . S
N839 C836 1.314 . S
N839 C837 1.279 . S
C840 C837 1.358 . S
C840 C841 1.356 . S
C840 H877 0.930 . S
C841 C838 1.348 . S
C841 C840 1.356 . S
H842 C836 0.930 . S
H843 C837 0.930 . S
C844 N845 1.314 . S
C844 C846 1.353 . S
C844 H850 0.930 . S
N845 Li795 1.990 . S
N845 C844 1.314 . S
N845 C848 1.279 . S
C846 C844 1.353 . S
C846 C849 1.348 . S
C846 H878 0.929 . S
C847 C848 1.358 . S
C847 C849 1.356 . S
C847 H879 0.930 . S
C848 N845 1.279 . S
C848 C847 1.358 . S
C848 H851 0.930 . S
C849 C846 1.348 . S
C849 C847 1.356 . S
H850 C844 0.930 . S
H851 C848 0.930 . S
O852 Li792 1.956 . S
O852 Li793 1.970 . S
O852 Li794 1.961 . S
O852 C796 1.325 . S
O853 Li792 1.970 . S
O853 Li793 1.956 . S
O853 Li795 1.961 . S
O853 C802 1.325 . S
O854 Li792 1.961 . S
O854 Li794 1.956 . S
O854 Li795 1.970 . S
O854 C824 1.325 . S
O855 Li793 1.961 . S
O855 Li794 1.970 . S
O855 Li795 1.956 . S
O855 C830 1.325 . S
H856 C798 0.929 . S
H857 C799 0.930 . S
H858 C800 0.930 . S
H859 C801 0.930 . S
H860 C803 0.930 . S
H861 C805 0.929 . S
H862 C806 0.930 . S
H863 C807 0.930 . S
H864 C810 0.930 . S
H865 C813 0.929 . S
H866 C818 0.929 . S
H867 C819 0.930 . S
H868 C826 0.929 . S
H869 C827 0.930 . S
H870 C828 0.930 . S
H871 C829 0.930 . S
H872 C831 0.929 . S
H873 C832 0.930 . S
H874 C833 0.930 . S
H875 C834 0.930 . S
H876 C838 0.929 . S
H877 C840 0.930 . S
H878 C846 0.929 . S
H879 C847 0.930 . S
Li880 N897 1.990 . S
Li880 O940 1.956 . S
Li880 O941 1.970 . S
Li880 O942 1.961 . S
Li881 N905 1.990 . S
Li881 O940 1.970 . S
Li881 O941 1.956 . S
Li881 O943 1.961 . S
Li882 N927 1.990 . S
Li882 O940 1.961 . S
Li882 O942 1.956 . S
Li882 O943 1.970 . S
Li883 N933 1.990 . S
Li883 O941 1.961 . S
Li883 O942 1.970 . S
Li883 O943 1.956 . S
C884 C886 1.348 . S
C884 C887 1.356 . S
C884 O940 1.325 . S
N885 C888 1.314 . S
N885 C889 1.279 . S
C886 C884 1.348 . S
C886 C888 1.353 . S
C886 H944 0.929 . S
C887 C884 1.356 . S
C887 C889 1.358 . S
C887 H945 0.930 . S
C888 N885 1.314 . S
C888 C886 1.353 . S
C888 H946 0.930 . S
C889 N885 1.279 . S
C889 C887 1.358 . S
C889 H947 0.930 . S
C890 C893 1.348 . S
C890 C894 1.356 . S
C890 O941 1.325 . S
C891 N892 1.279 . S
C891 C894 1.358 . S
C891 H948 0.930 . S
N892 C891 1.279 . S
N892 C895 1.314 . S
C893 C890 1.348 . S
C893 C895 1.353 . S
C893 H949 0.929 . S
C894 C890 1.356 . S
C894 C891 1.358 . S
C894 H950 0.930 . S
C895 N892 1.314 . S
C895 C893 1.353 . S
C895 H951 0.930 . S
C896 N897 1.314 . S
C896 C901 1.353 . S
C896 H902 0.930 . S
N897 Li880 1.990 . S
N897 C896 1.314 . S
N897 C899 1.279 . S
C898 C899 1.358 . S
C898 C900 1.356 . S
C898 H952 0.930 . S
C899 N897 1.279 . S
C899 C898 1.358 . S
C899 H903 0.930 . S
C900 C898 1.356 . S
C900 C901 1.348 . S
C901 C896 1.353 . S
C901 C900 1.348 . S
C901 H953 0.929 . S
H902 C896 0.930 . S
H903 C899 0.930 . S
C904 N905 1.314 . S
C904 C906 1.353 . S
C904 H910 0.930 . S
N905 Li881 1.990 . S
N905 C904 1.314 . S
N905 C908 1.279 . S
C906 C904 1.353 . S
C906 C909 1.348 . S
C906 H954 0.929 . S
C907 C908 1.358 . S
C907 C909 1.356 . S
C907 H955 0.930 . S
C908 N905 1.279 . S
C908 C907 1.358 . S
C908 H911 0.930 . S
C909 C906 1.348 . S
C909 C907 1.356 . S
H910 C904 0.930 . S
H911 C908 0.930 . S
C912 C914 1.348 . S
C912 C915 1.356 . S
C912 O942 1.325 . S
N913 C916 1.314 . S
N913 C917 1.279 . S
C914 C912 1.348 . S
C914 C916 1.353 . S
C914 H956 0.929 . S
C915 C912 1.356 . S
C915 C917 1.358 . S
C915 H957 0.930 . S
C916 N913 1.314 . S
C916 C914 1.353 . S
C916 H958 0.930 . S
C917 N913 1.279 . S
C917 C915 1.358 . S
C917 H959 0.930 . S
C918 C919 1.348 . S
C918 C920 1.356 . S
C918 O943 1.325 . S
C919 C918 1.348 . S
C919 C921 1.353 . S
C919 H960 0.929 . S
C920 C918 1.356 . S
C920 C922 1.358 . S
C920 H961 0.930 . S
C921 C919 1.353 . S
C921 N923 1.314 . S
C921 H962 0.930 . S
C922 C920 1.358 . S
C922 N923 1.279 . S
C922 H963 0.930 . S
N923 C921 1.314 . S
N923 C922 1.279 . S
C924 C926 1.353 . S
C924 N927 1.314 . S
C924 H930 0.930 . S
C925 N927 1.279 . S
C925 C928 1.358 . S
C925 H931 0.930 . S
C926 C924 1.353 . S
C926 C929 1.348 . S
C926 H964 0.929 . S
N927 Li882 1.990 . S
N927 C924 1.314 . S
N927 C925 1.279 . S
C928 C925 1.358 . S
C928 C929 1.356 . S
C928 H965 0.930 . S
C929 C926 1.348 . S
C929 C928 1.356 . S
H930 C924 0.930 . S
H931 C925 0.930 . S
C932 N933 1.314 . S
C932 C934 1.353 . S
C932 H938 0.930 . S
N933 Li883 1.990 . S
N933 C932 1.314 . S
N933 C936 1.279 . S
C934 C932 1.353 . S
C934 C937 1.348 . S
C934 H966 0.929 . S
C935 C936 1.358 . S
C935 C937 1.356 . S
C935 H967 0.930 . S
C936 N933 1.279 . S
C936 C935 1.358 . S
C936 H939 0.930 . S
C937 C934 1.348 . S
C937 C935 1.356 . S
H938 C932 0.930 . S
H939 C936 0.930 . S
O940 Li880 1.956 . S
O940 Li881 1.970 . S
O940 Li882 1.961 . S
O940 C884 1.325 . S
O941 Li880 1.970 . S
O941 Li881 1.956 . S
O941 Li883 1.961 . S
O941 C890 1.325 . S
O942 Li880 1.961 . S
O942 Li882 1.956 . S
O942 Li883 1.970 . S
O942 C912 1.325 . S
O943 Li881 1.961 . S
O943 Li882 1.970 . S
O943 Li883 1.956 . S
O943 C918 1.325 . S
H944 C886 0.929 . S
H945 C887 0.930 . S
H946 C888 0.930 . S
H947 C889 0.930 . S
H948 C891 0.930 . S
H949 C893 0.929 . S
H950 C894 0.930 . S
H951 C895 0.930 . S
H952 C898 0.930 . S
H953 C901 0.929 . S
H954 C906 0.929 . S
H955 C907 0.930 . S
H956 C914 0.929 . S
H957 C915 0.930 . S
H958 C916 0.930 . S
H959 C917 0.930 . S
H960 C919 0.929 . S
H961 C920 0.930 . S
H962 C921 0.930 . S
H963 C922 0.930 . S
H964 C926 0.929 . S
H965 C928 0.930 . S
H966 C934 0.929 . S
H967 C935 0.930 . S
Li968 N985 1.990 . S
Li968 O1028 1.956 . S
Li968 O1029 1.970 . S
Li968 O1030 1.961 . S
Li969 N993 1.990 . S
Li969 O1028 1.970 . S
Li969 O1029 1.956 . S
Li969 O1031 1.961 . S
Li970 N1015 1.990 . S
Li970 O1028 1.961 . S
Li970 O1030 1.956 . S
Li970 O1031 1.970 . S
Li971 N1021 1.990 . S
Li971 O1029 1.961 . S
Li971 O1030 1.970 . S
Li971 O1031 1.956 . S
C972 C974 1.348 . S
C972 C975 1.356 . S
C972 O1028 1.325 . S
N973 C976 1.314 . S
N973 C977 1.279 . S
C974 C972 1.348 . S
C974 C976 1.353 . S
C974 H1032 0.929 . S
C975 C972 1.356 . S
C975 C977 1.358 . S
C975 H1033 0.930 . S
C976 N973 1.314 . S
C976 C974 1.353 . S
C976 H1034 0.930 . S
C977 N973 1.279 . S
C977 C975 1.358 . S
C977 H1035 0.930 . S
C978 C981 1.348 . S
C978 C982 1.356 . S
C978 O1029 1.325 . S
C979 N980 1.279 . S
C979 C982 1.358 . S
C979 H1036 0.930 . S
N980 C979 1.279 . S
N980 C983 1.314 . S
C981 C978 1.348 . S
C981 C983 1.353 . S
C981 H1037 0.929 . S
C982 C978 1.356 . S
C982 C979 1.358 . S
C982 H1038 0.930 . S
C983 N980 1.314 . S
C983 C981 1.353 . S
C983 H1039 0.930 . S
C984 N985 1.314 . S
C984 C989 1.353 . S
C984 H990 0.930 . S
N985 Li968 1.990 . S
N985 C984 1.314 . S
N985 C987 1.279 . S
C986 C987 1.358 . S
C986 C988 1.356 . S
C986 H1040 0.930 . S
C987 N985 1.279 . S
C987 C986 1.358 . S
C987 H991 0.930 . S
C988 C986 1.356 . S
C988 C989 1.348 . S
C989 C984 1.353 . S
C989 C988 1.348 . S
C989 H1041 0.929 . S
H990 C984 0.930 . S
H991 C987 0.930 . S
C992 N993 1.314 . S
C992 C994 1.353 . S
C992 H998 0.930 . S
N993 Li969 1.990 . S
N993 C992 1.314 . S
N993 C996 1.279 . S
C994 C992 1.353 . S
C994 C997 1.348 . S
C994 H1042 0.929 . S
C995 C996 1.358 . S
C995 C997 1.356 . S
C995 H1043 0.930 . S
C996 N993 1.279 . S
C996 C995 1.358 . S
C996 H999 0.930 . S
C997 C994 1.348 . S
C997 C995 1.356 . S
H998 C992 0.930 . S
H999 C996 0.930 . S
C1000 C1002 1.348 . S
C1000 C1003 1.356 . S
C1000 O1030 1.325 . S
N1001 C1004 1.314 . S
N1001 C1005 1.279 . S
C1002 C1000 1.348 . S
C1002 C1004 1.353 . S
C1002 H1044 0.929 . S
C1003 C1000 1.356 . S
C1003 C1005 1.358 . S
C1003 H1045 0.930 . S
C1004 N1001 1.314 . S
C1004 C1002 1.353 . S
C1004 H1046 0.930 . S
C1005 N1001 1.279 . S
C1005 C1003 1.358 . S
C1005 H1047 0.930 . S
C1006 C1007 1.348 . S
C1006 C1008 1.356 . S
C1006 O1031 1.325 . S
C1007 C1006 1.348 . S
C1007 C1009 1.353 . S
C1007 H1048 0.929 . S
C1008 C1006 1.356 . S
C1008 C1010 1.358 . S
C1008 H1049 0.930 . S
C1009 C1007 1.353 . S
C1009 N1011 1.314 . S
C1009 H1050 0.930 . S
C1010 C1008 1.358 . S
C1010 N1011 1.279 . S
C1010 H1051 0.930 . S
N1011 C1009 1.314 . S
N1011 C1010 1.279 . S
C1012 C1014 1.353 . S
C1012 N1015 1.314 . S
C1012 H1018 0.930 . S
C1013 N1015 1.279 . S
C1013 C1016 1.358 . S
C1013 H1019 0.930 . S
C1014 C1012 1.353 . S
C1014 C1017 1.348 . S
C1014 H1052 0.929 . S
N1015 Li970 1.990 . S
N1015 C1012 1.314 . S
N1015 C1013 1.279 . S
C1016 C1013 1.358 . S
C1016 C1017 1.356 . S
C1016 H1053 0.930 . S
C1017 C1014 1.348 . S
C1017 C1016 1.356 . S
H1018 C1012 0.930 . S
H1019 C1013 0.930 . S
C1020 N1021 1.314 . S
C1020 C1022 1.353 . S
C1020 H1026 0.930 . S
N1021 Li971 1.990 . S
N1021 C1020 1.314 . S
N1021 C1024 1.279 . S
C1022 C1020 1.353 . S
C1022 C1025 1.348 . S
C1022 H1054 0.929 . S
C1023 C1024 1.358 . S
C1023 C1025 1.356 . S
C1023 H1055 0.930 . S
C1024 N1021 1.279 . S
C1024 C1023 1.358 . S
C1024 H1027 0.930 . S
C1025 C1022 1.348 . S
C1025 C1023 1.356 . S
H1026 C1020 0.930 . S
H1027 C1024 0.930 . S
O1028 Li968 1.956 . S
O1028 Li969 1.970 . S
O1028 Li970 1.961 . S
O1028 C972 1.325 . S
O1029 Li968 1.970 . S
O1029 Li969 1.956 . S
O1029 Li971 1.961 . S
O1029 C978 1.325 . S
O1030 Li968 1.961 . S
O1030 Li970 1.956 . S
O1030 Li971 1.970 . S
O1030 C1000 1.325 . S
O1031 Li969 1.961 . S
O1031 Li970 1.970 . S
O1031 Li971 1.956 . S
O1031 C1006 1.325 . S
H1032 C974 0.929 . S
H1033 C975 0.930 . S
H1034 C976 0.930 . S
H1035 C977 0.930 . S
H1036 C979 0.930 . S
H1037 C981 0.929 . S
H1038 C982 0.930 . S
H1039 C983 0.930 . S
H1040 C986 0.930 . S
H1041 C989 0.929 . S
H1042 C994 0.929 . S
H1043 C995 0.930 . S
H1044 C1002 0.929 . S
H1045 C1003 0.930 . S
H1046 C1004 0.930 . S
H1047 C1005 0.930 . S
H1048 C1007 0.929 . S
H1049 C1008 0.930 . S
H1050 C1009 0.930 . S
H1051 C1010 0.930 . S
H1052 C1014 0.929 . S
H1053 C1016 0.930 . S
H1054 C1022 0.929 . S
H1055 C1023 0.930 . S
Li1056 N1073 1.990 . S
Li1056 O1116 1.956 . S
Li1056 O1117 1.970 . S
Li1056 O1118 1.961 . S
Li1057 N1081 1.990 . S
Li1057 O1116 1.970 . S
Li1057 O1117 1.956 . S
Li1057 O1119 1.961 . S
Li1058 N1103 1.990 . S
Li1058 O1116 1.961 . S
Li1058 O1118 1.956 . S
Li1058 O1119 1.970 . S
Li1059 N1109 1.990 . S
Li1059 O1117 1.961 . S
Li1059 O1118 1.970 . S
Li1059 O1119 1.956 . S
C1060 C1062 1.348 . S
C1060 C1063 1.356 . S
C1060 O1116 1.325 . S
N1061 C1064 1.314 . S
N1061 C1065 1.279 . S
C1062 C1060 1.348 . S
C1062 C1064 1.353 . S
C1062 H1120 0.929 . S
C1063 C1060 1.356 . S
C1063 C1065 1.358 . S
C1063 H1121 0.930 . S
C1064 N1061 1.314 . S
C1064 C1062 1.353 . S
C1064 H1122 0.930 . S
C1065 N1061 1.279 . S
C1065 C1063 1.358 . S
C1065 H1123 0.930 . S
C1066 C1069 1.348 . S
C1066 C1070 1.356 . S
C1066 O1117 1.325 . S
C1067 N1068 1.279 . S
C1067 C1070 1.358 . S
C1067 H1124 0.930 . S
N1068 C1067 1.279 . S
N1068 C1071 1.314 . S
C1069 C1066 1.348 . S
C1069 C1071 1.353 . S
C1069 H1125 0.929 . S
C1070 C1066 1.356 . S
C1070 C1067 1.358 . S
C1070 H1126 0.930 . S
C1071 N1068 1.314 . S
C1071 C1069 1.353 . S
C1071 H1127 0.930 . S
C1072 N1073 1.314 . S
C1072 C1077 1.353 . S
C1072 H1078 0.930 . S
N1073 Li1056 1.990 . S
N1073 C1072 1.314 . S
N1073 C1075 1.279 . S
C1074 C1075 1.358 . S
C1074 C1076 1.356 . S
C1074 H1128 0.930 . S
C1075 N1073 1.279 . S
C1075 C1074 1.358 . S
C1075 H1079 0.930 . S
C1076 C1074 1.356 . S
C1076 C1077 1.348 . S
C1077 C1072 1.353 . S
C1077 C1076 1.348 . S
C1077 H1129 0.929 . S
H1078 C1072 0.930 . S
H1079 C1075 0.930 . S
C1080 N1081 1.314 . S
C1080 C1082 1.353 . S
C1080 H1086 0.930 . S
N1081 Li1057 1.990 . S
N1081 C1080 1.314 . S
N1081 C1084 1.279 . S
C1082 C1080 1.353 . S
C1082 C1085 1.348 . S
C1082 H1130 0.929 . S
C1083 C1084 1.358 . S
C1083 C1085 1.356 . S
C1083 H1131 0.930 . S
C1084 N1081 1.279 . S
C1084 C1083 1.358 . S
C1084 H1087 0.930 . S
C1085 C1082 1.348 . S
C1085 C1083 1.356 . S
H1086 C1080 0.930 . S
H1087 C1084 0.930 . S
C1088 C1090 1.348 . S
C1088 C1091 1.356 . S
C1088 O1118 1.325 . S
N1089 C1092 1.314 . S
N1089 C1093 1.279 . S
C1090 C1088 1.348 . S
C1090 C1092 1.353 . S
C1090 H1132 0.929 . S
C1091 C1088 1.356 . S
C1091 C1093 1.358 . S
C1091 H1133 0.930 . S
C1092 N1089 1.314 . S
C1092 C1090 1.353 . S
C1092 H1134 0.930 . S
C1093 N1089 1.279 . S
C1093 C1091 1.358 . S
C1093 H1135 0.930 . S
C1094 C1095 1.348 . S
C1094 C1096 1.356 . S
C1094 O1119 1.325 . S
C1095 C1094 1.348 . S
C1095 C1097 1.353 . S
C1095 H1136 0.929 . S
C1096 C1094 1.356 . S
C1096 C1098 1.358 . S
C1096 H1137 0.930 . S
C1097 C1095 1.353 . S
C1097 N1099 1.314 . S
C1097 H1138 0.930 . S
C1098 C1096 1.358 . S
C1098 N1099 1.279 . S
C1098 H1139 0.930 . S
N1099 C1097 1.314 . S
N1099 C1098 1.279 . S
C1100 C1102 1.353 . S
C1100 N1103 1.314 . S
C1100 H1106 0.930 . S
C1101 N1103 1.279 . S
C1101 C1104 1.358 . S
C1101 H1107 0.930 . S
C1102 C1100 1.353 . S
C1102 C1105 1.348 . S
C1102 H1140 0.929 . S
N1103 Li1058 1.990 . S
N1103 C1100 1.314 . S
N1103 C1101 1.279 . S
C1104 C1101 1.358 . S
C1104 C1105 1.356 . S
C1104 H1141 0.930 . S
C1105 C1102 1.348 . S
C1105 C1104 1.356 . S
H1106 C1100 0.930 . S
H1107 C1101 0.930 . S
C1108 N1109 1.314 . S
C1108 C1110 1.353 . S
C1108 H1114 0.930 . S
N1109 Li1059 1.990 . S
N1109 C1108 1.314 . S
N1109 C1112 1.279 . S
C1110 C1108 1.353 . S
C1110 C1113 1.348 . S
C1110 H1142 0.929 . S
C1111 C1112 1.358 . S
C1111 C1113 1.356 . S
C1111 H1143 0.930 . S
C1112 N1109 1.279 . S
C1112 C1111 1.358 . S
C1112 H1115 0.930 . S
C1113 C1110 1.348 . S
C1113 C1111 1.356 . S
H1114 C1108 0.930 . S
H1115 C1112 0.930 . S
O1116 Li1056 1.956 . S
O1116 Li1057 1.970 . S
O1116 Li1058 1.961 . S
O1116 C1060 1.325 . S
O1117 Li1056 1.970 . S
O1117 Li1057 1.956 . S
O1117 Li1059 1.961 . S
O1117 C1066 1.325 . S
O1118 Li1056 1.961 . S
O1118 Li1058 1.956 . S
O1118 Li1059 1.970 . S
O1118 C1088 1.325 . S
O1119 Li1057 1.961 . S
O1119 Li1058 1.970 . S
O1119 Li1059 1.956 . S
O1119 C1094 1.325 . S
H1120 C1062 0.929 . S
H1121 C1063 0.930 . S
H1122 C1064 0.930 . S
H1123 C1065 0.930 . S
H1124 C1067 0.930 . S
H1125 C1069 0.929 . S
H1126 C1070 0.930 . S
H1127 C1071 0.930 . S
H1128 C1074 0.930 . S
H1129 C1077 0.929 . S
H1130 C1082 0.929 . S
H1131 C1083 0.930 . S
H1132 C1090 0.929 . S
H1133 C1091 0.930 . S
H1134 C1092 0.930 . S
H1135 C1093 0.930 . S
H1136 C1095 0.929 . S
H1137 C1096 0.930 . S
H1138 C1097 0.930 . S
H1139 C1098 0.930 . S
H1140 C1102 0.929 . S
H1141 C1104 0.930 . S
H1142 C1110 0.929 . S
H1143 C1111 0.930 . S
Li1144 N1161 1.990 . S
Li1144 O1204 1.956 . S
Li1144 O1205 1.970 . S
Li1144 O1206 1.961 . S
Li1145 N1169 1.990 . S
Li1145 O1204 1.970 . S
Li1145 O1205 1.956 . S
Li1145 O1207 1.961 . S
Li1146 N1191 1.990 . S
Li1146 O1204 1.961 . S
Li1146 O1206 1.956 . S
Li1146 O1207 1.970 . S
Li1147 N1197 1.990 . S
Li1147 O1205 1.961 . S
Li1147 O1206 1.970 . S
Li1147 O1207 1.956 . S
C1148 C1150 1.348 . S
C1148 C1151 1.356 . S
C1148 O1204 1.325 . S
N1149 C1152 1.314 . S
N1149 C1153 1.279 . S
C1150 C1148 1.348 . S
C1150 C1152 1.353 . S
C1150 H1208 0.929 . S
C1151 C1148 1.356 . S
C1151 C1153 1.358 . S
C1151 H1209 0.930 . S
C1152 N1149 1.314 . S
C1152 C1150 1.353 . S
C1152 H1210 0.930 . S
C1153 N1149 1.279 . S
C1153 C1151 1.358 . S
C1153 H1211 0.930 . S
C1154 C1157 1.348 . S
C1154 C1158 1.356 . S
C1154 O1205 1.325 . S
C1155 N1156 1.279 . S
C1155 C1158 1.358 . S
C1155 H1212 0.930 . S
N1156 C1155 1.279 . S
N1156 C1159 1.314 . S
C1157 C1154 1.348 . S
C1157 C1159 1.353 . S
C1157 H1213 0.929 . S
C1158 C1154 1.356 . S
C1158 C1155 1.358 . S
C1158 H1214 0.930 . S
C1159 N1156 1.314 . S
C1159 C1157 1.353 . S
C1159 H1215 0.930 . S
C1160 N1161 1.314 . S
C1160 C1165 1.353 . S
C1160 H1166 0.930 . S
N1161 Li1144 1.990 . S
N1161 C1160 1.314 . S
N1161 C1163 1.279 . S
C1162 C1163 1.358 . S
C1162 C1164 1.356 . S
C1162 H1216 0.930 . S
C1163 N1161 1.279 . S
C1163 C1162 1.358 . S
C1163 H1167 0.930 . S
C1164 C1162 1.356 . S
C1164 C1165 1.348 . S
C1165 C1160 1.353 . S
C1165 C1164 1.348 . S
C1165 H1217 0.929 . S
H1166 C1160 0.930 . S
H1167 C1163 0.930 . S
C1168 N1169 1.314 . S
C1168 C1170 1.353 . S
C1168 H1174 0.930 . S
N1169 Li1145 1.990 . S
N1169 C1168 1.314 . S
N1169 C1172 1.279 . S
C1170 C1168 1.353 . S
C1170 C1173 1.348 . S
C1170 H1218 0.929 . S
C1171 C1172 1.358 . S
C1171 C1173 1.356 . S
C1171 H1219 0.930 . S
C1172 N1169 1.279 . S
C1172 C1171 1.358 . S
C1172 H1175 0.930 . S
C1173 C1170 1.348 . S
C1173 C1171 1.356 . S
H1174 C1168 0.930 . S
H1175 C1172 0.930 . S
C1176 C1178 1.348 . S
C1176 C1179 1.356 . S
C1176 O1206 1.325 . S
N1177 C1180 1.314 . S
N1177 C1181 1.279 . S
C1178 C1176 1.348 . S
C1178 C1180 1.353 . S
C1178 H1220 0.929 . S
C1179 C1176 1.356 . S
C1179 C1181 1.358 . S
C1179 H1221 0.930 . S
C1180 N1177 1.314 . S
C1180 C1178 1.353 . S
C1180 H1222 0.930 . S
C1181 N1177 1.279 . S
C1181 C1179 1.358 . S
C1181 H1223 0.930 . S
C1182 C1183 1.348 . S
C1182 C1184 1.356 . S
C1182 O1207 1.325 . S
C1183 C1182 1.348 . S
C1183 C1185 1.353 . S
C1183 H1224 0.929 . S
C1184 C1182 1.356 . S
C1184 C1186 1.358 . S
C1184 H1225 0.930 . S
C1185 C1183 1.353 . S
C1185 N1187 1.314 . S
C1185 H1226 0.930 . S
C1186 C1184 1.358 . S
C1186 N1187 1.279 . S
C1186 H1227 0.930 . S
N1187 C1185 1.314 . S
N1187 C1186 1.279 . S
C1188 C1190 1.353 . S
C1188 N1191 1.314 . S
C1188 H1194 0.930 . S
C1189 N1191 1.279 . S
C1189 C1192 1.358 . S
C1189 H1195 0.930 . S
C1190 C1188 1.353 . S
C1190 C1193 1.348 . S
C1190 H1228 0.929 . S
N1191 Li1146 1.990 . S
N1191 C1188 1.314 . S
N1191 C1189 1.279 . S
C1192 C1189 1.358 . S
C1192 C1193 1.356 . S
C1192 H1229 0.930 . S
C1193 C1190 1.348 . S
C1193 C1192 1.356 . S
H1194 C1188 0.930 . S
H1195 C1189 0.930 . S
C1196 N1197 1.314 . S
C1196 C1198 1.353 . S
C1196 H1202 0.930 . S
N1197 Li1147 1.990 . S
N1197 C1196 1.314 . S
N1197 C1200 1.279 . S
C1198 C1196 1.353 . S
C1198 C1201 1.348 . S
C1198 H1230 0.929 . S
C1199 C1200 1.358 . S
C1199 C1201 1.356 . S
C1199 H1231 0.930 . S
C1200 N1197 1.279 . S
C1200 C1199 1.358 . S
C1200 H1203 0.930 . S
C1201 C1198 1.348 . S
C1201 C1199 1.356 . S
H1202 C1196 0.930 . S
H1203 C1200 0.930 . S
O1204 Li1144 1.956 . S
O1204 Li1145 1.970 . S
O1204 Li1146 1.961 . S
O1204 C1148 1.325 . S
O1205 Li1144 1.970 . S
O1205 Li1145 1.956 . S
O1205 Li1147 1.961 . S
O1205 C1154 1.325 . S
O1206 Li1144 1.961 . S
O1206 Li1146 1.956 . S
O1206 Li1147 1.970 . S
O1206 C1176 1.325 . S
O1207 Li1145 1.961 . S
O1207 Li1146 1.970 . S
O1207 Li1147 1.956 . S
O1207 C1182 1.325 . S
H1208 C1150 0.929 . S
H1209 C1151 0.930 . S
H1210 C1152 0.930 . S
H1211 C1153 0.930 . S
H1212 C1155 0.930 . S
H1213 C1157 0.929 . S
H1214 C1158 0.930 . S
H1215 C1159 0.930 . S
H1216 C1162 0.930 . S
H1217 C1165 0.929 . S
H1218 C1170 0.929 . S
H1219 C1171 0.930 . S
H1220 C1178 0.929 . S
H1221 C1179 0.930 . S
H1222 C1180 0.930 . S
H1223 C1181 0.930 . S
H1224 C1183 0.929 . S
H1225 C1184 0.930 . S
H1226 C1185 0.930 . S
H1227 C1186 0.930 . S
H1228 C1190 0.929 . S
H1229 C1192 0.930 . S
H1230 C1198 0.929 . S
H1231 C1199 0.930 . S
Li1232 N1249 1.990 . S
Li1232 O1292 1.956 . S
Li1232 O1293 1.970 . S
Li1232 O1294 1.961 . S
Li1233 N1257 1.990 . S
Li1233 O1292 1.970 . S
Li1233 O1293 1.956 . S
Li1233 O1295 1.961 . S
Li1234 N1279 1.990 . S
Li1234 O1292 1.961 . S
Li1234 O1294 1.956 . S
Li1234 O1295 1.970 . S
Li1235 N1285 1.990 . S
Li1235 O1293 1.961 . S
Li1235 O1294 1.970 . S
Li1235 O1295 1.956 . S
C1236 C1238 1.348 . S
C1236 C1239 1.356 . S
C1236 O1292 1.325 . S
N1237 C1240 1.314 . S
N1237 C1241 1.279 . S
C1238 C1236 1.348 . S
C1238 C1240 1.353 . S
C1238 H1296 0.929 . S
C1239 C1236 1.356 . S
C1239 C1241 1.358 . S
C1239 H1297 0.930 . S
C1240 N1237 1.314 . S
C1240 C1238 1.353 . S
C1240 H1298 0.930 . S
C1241 N1237 1.279 . S
C1241 C1239 1.358 . S
C1241 H1299 0.930 . S
C1242 C1245 1.348 . S
C1242 C1246 1.356 . S
C1242 O1293 1.325 . S
C1243 N1244 1.279 . S
C1243 C1246 1.358 . S
C1243 H1300 0.930 . S
N1244 C1243 1.279 . S
N1244 C1247 1.314 . S
C1245 C1242 1.348 . S
C1245 C1247 1.353 . S
C1245 H1301 0.929 . S
C1246 C1242 1.356 . S
C1246 C1243 1.358 . S
C1246 H1302 0.930 . S
C1247 N1244 1.314 . S
C1247 C1245 1.353 . S
C1247 H1303 0.930 . S
C1248 N1249 1.314 . S
C1248 C1253 1.353 . S
C1248 H1254 0.930 . S
N1249 Li1232 1.990 . S
N1249 C1248 1.314 . S
N1249 C1251 1.279 . S
C1250 C1251 1.358 . S
C1250 C1252 1.356 . S
C1250 H1304 0.930 . S
C1251 N1249 1.279 . S
C1251 C1250 1.358 . S
C1251 H1255 0.930 . S
C1252 C1250 1.356 . S
C1252 C1253 1.348 . S
C1253 C1248 1.353 . S
C1253 C1252 1.348 . S
C1253 H1305 0.929 . S
H1254 C1248 0.930 . S
H1255 C1251 0.930 . S
C1256 N1257 1.314 . S
C1256 C1258 1.353 . S
C1256 H1262 0.930 . S
N1257 Li1233 1.990 . S
N1257 C1256 1.314 . S
N1257 C1260 1.279 . S
C1258 C1256 1.353 . S
C1258 C1261 1.348 . S
C1258 H1306 0.929 . S
C1259 C1260 1.358 . S
C1259 C1261 1.356 . S
C1259 H1307 0.930 . S
C1260 N1257 1.279 . S
C1260 C1259 1.358 . S
C1260 H1263 0.930 . S
C1261 C1258 1.348 . S
C1261 C1259 1.356 . S
H1262 C1256 0.930 . S
H1263 C1260 0.930 . S
C1264 C1266 1.348 . S
C1264 C1267 1.356 . S
C1264 O1294 1.325 . S
N1265 C1268 1.314 . S
N1265 C1269 1.279 . S
C1266 C1264 1.348 . S
C1266 C1268 1.353 . S
C1266 H1308 0.929 . S
C1267 C1264 1.356 . S
C1267 C1269 1.358 . S
C1267 H1309 0.930 . S
C1268 N1265 1.314 . S
C1268 C1266 1.353 . S
C1268 H1310 0.930 . S
C1269 N1265 1.279 . S
C1269 C1267 1.358 . S
C1269 H1311 0.930 . S
C1270 C1271 1.348 . S
C1270 C1272 1.356 . S
C1270 O1295 1.325 . S
C1271 C1270 1.348 . S
C1271 C1273 1.353 . S
C1271 H1312 0.929 . S
C1272 C1270 1.356 . S
C1272 C1274 1.358 . S
C1272 H1313 0.930 . S
C1273 C1271 1.353 . S
C1273 N1275 1.314 . S
C1273 H1314 0.930 . S
C1274 C1272 1.358 . S
C1274 N1275 1.279 . S
C1274 H1315 0.930 . S
N1275 C1273 1.314 . S
N1275 C1274 1.279 . S
C1276 C1278 1.353 . S
C1276 N1279 1.314 . S
C1276 H1282 0.930 . S
C1277 N1279 1.279 . S
C1277 C1280 1.358 . S
C1277 H1283 0.930 . S
C1278 C1276 1.353 . S
C1278 C1281 1.348 . S
C1278 H1316 0.929 . S
N1279 Li1234 1.990 . S
N1279 C1276 1.314 . S
N1279 C1277 1.279 . S
C1280 C1277 1.358 . S
C1280 C1281 1.356 . S
C1280 H1317 0.930 . S
C1281 C1278 1.348 . S
C1281 C1280 1.356 . S
H1282 C1276 0.930 . S
H1283 C1277 0.930 . S
C1284 N1285 1.314 . S
C1284 C1286 1.353 . S
C1284 H1290 0.930 . S
N1285 Li1235 1.990 . S
N1285 C1284 1.314 . S
N1285 C1288 1.279 . S
C1286 C1284 1.353 . S
C1286 C1289 1.348 . S
C1286 H1318 0.929 . S
C1287 C1288 1.358 . S
C1287 C1289 1.356 . S
C1287 H1319 0.930 . S
C1288 N1285 1.279 . S
C1288 C1287 1.358 . S
C1288 H1291 0.930 . S
C1289 C1286 1.348 . S
C1289 C1287 1.356 . S
H1290 C1284 0.930 . S
H1291 C1288 0.930 . S
O1292 Li1232 1.956 . S
O1292 Li1233 1.970 . S
O1292 Li1234 1.961 . S
O1292 C1236 1.325 . S
O1293 Li1232 1.970 . S
O1293 Li1233 1.956 . S
O1293 Li1235 1.961 . S
O1293 C1242 1.325 . S
O1294 Li1232 1.961 . S
O1294 Li1234 1.956 . S
O1294 Li1235 1.970 . S
O1294 C1264 1.325 . S
O1295 Li1233 1.961 . S
O1295 Li1234 1.970 . S
O1295 Li1235 1.956 . S
O1295 C1270 1.325 . S
H1296 C1238 0.929 . S
H1297 C1239 0.930 . S
H1298 C1240 0.930 . S
H1299 C1241 0.930 . S
H1300 C1243 0.930 . S
H1301 C1245 0.929 . S
H1302 C1246 0.930 . S
H1303 C1247 0.930 . S
H1304 C1250 0.930 . S
H1305 C1253 0.929 . S
H1306 C1258 0.929 . S
H1307 C1259 0.930 . S
H1308 C1266 0.929 . S
H1309 C1267 0.930 . S
H1310 C1268 0.930 . S
H1311 C1269 0.930 . S
H1312 C1271 0.929 . S
H1313 C1272 0.930 . S
H1314 C1273 0.930 . S
H1315 C1274 0.930 . S
H1316 C1278 0.929 . S
H1317 C1280 0.930 . S
H1318 C1286 0.929 . S
H1319 C1287 0.930 . S
Li1320 N1337 1.990 . S
Li1320 O1380 1.956 . S
Li1320 O1381 1.970 . S
Li1320 O1382 1.961 . S
Li1321 N1345 1.990 . S
Li1321 O1380 1.970 . S
Li1321 O1381 1.956 . S
Li1321 O1383 1.961 . S
Li1322 N1367 1.990 . S
Li1322 O1380 1.961 . S
Li1322 O1382 1.956 . S
Li1322 O1383 1.970 . S
Li1323 N1373 1.990 . S
Li1323 O1381 1.961 . S
Li1323 O1382 1.970 . S
Li1323 O1383 1.956 . S
C1324 C1326 1.348 . S
C1324 C1327 1.356 . S
C1324 O1380 1.325 . S
N1325 C1328 1.314 . S
N1325 C1329 1.279 . S
C1326 C1324 1.348 . S
C1326 C1328 1.353 . S
C1326 H1384 0.929 . S
C1327 C1324 1.356 . S
C1327 C1329 1.358 . S
C1327 H1385 0.930 . S
C1328 N1325 1.314 . S
C1328 C1326 1.353 . S
C1328 H1386 0.930 . S
C1329 N1325 1.279 . S
C1329 C1327 1.358 . S
C1329 H1387 0.930 . S
C1330 C1333 1.348 . S
C1330 C1334 1.356 . S
C1330 O1381 1.325 . S
C1331 N1332 1.279 . S
C1331 C1334 1.358 . S
C1331 H1388 0.930 . S
N1332 C1331 1.279 . S
N1332 C1335 1.314 . S
C1333 C1330 1.348 . S
C1333 C1335 1.353 . S
C1333 H1389 0.929 . S
C1334 C1330 1.356 . S
C1334 C1331 1.358 . S
C1334 H1390 0.930 . S
C1335 N1332 1.314 . S
C1335 C1333 1.353 . S
C1335 H1391 0.930 . S
C1336 N1337 1.314 . S
C1336 C1341 1.353 . S
C1336 H1342 0.930 . S
N1337 Li1320 1.990 . S
N1337 C1336 1.314 . S
N1337 C1339 1.279 . S
C1338 C1339 1.358 . S
C1338 C1340 1.356 . S
C1338 H1392 0.930 . S
C1339 N1337 1.279 . S
C1339 C1338 1.358 . S
C1339 H1343 0.930 . S
C1340 C1338 1.356 . S
C1340 C1341 1.348 . S
C1341 C1336 1.353 . S
C1341 C1340 1.348 . S
C1341 H1393 0.929 . S
H1342 C1336 0.930 . S
H1343 C1339 0.930 . S
C1344 N1345 1.314 . S
C1344 C1346 1.353 . S
C1344 H1350 0.930 . S
N1345 Li1321 1.990 . S
N1345 C1344 1.314 . S
N1345 C1348 1.279 . S
C1346 C1344 1.353 . S
C1346 C1349 1.348 . S
C1346 H1394 0.929 . S
C1347 C1348 1.358 . S
C1347 C1349 1.356 . S
C1347 H1395 0.930 . S
C1348 N1345 1.279 . S
C1348 C1347 1.358 . S
C1348 H1351 0.930 . S
C1349 C1346 1.348 . S
C1349 C1347 1.356 . S
H1350 C1344 0.930 . S
H1351 C1348 0.930 . S
C1352 C1354 1.348 . S
C1352 C1355 1.356 . S
C1352 O1382 1.325 . S
N1353 C1356 1.314 . S
N1353 C1357 1.279 . S
C1354 C1352 1.348 . S
C1354 C1356 1.353 . S
C1354 H1396 0.929 . S
C1355 C1352 1.356 . S
C1355 C1357 1.358 . S
C1355 H1397 0.930 . S
C1356 N1353 1.314 . S
C1356 C1354 1.353 . S
C1356 H1398 0.930 . S
C1357 N1353 1.279 . S
C1357 C1355 1.358 . S
C1357 H1399 0.930 . S
C1358 C1359 1.348 . S
C1358 C1360 1.356 . S
C1358 O1383 1.325 . S
C1359 C1358 1.348 . S
C1359 C1361 1.353 . S
C1359 H1400 0.929 . S
C1360 C1358 1.356 . S
C1360 C1362 1.358 . S
C1360 H1401 0.930 . S
C1361 C1359 1.353 . S
C1361 N1363 1.314 . S
C1361 H1402 0.930 . S
C1362 C1360 1.358 . S
C1362 N1363 1.279 . S
C1362 H1403 0.930 . S
N1363 C1361 1.314 . S
N1363 C1362 1.279 . S
C1364 C1366 1.353 . S
C1364 N1367 1.314 . S
C1364 H1370 0.930 . S
C1365 N1367 1.279 . S
C1365 C1368 1.358 . S
C1365 H1371 0.930 . S
C1366 C1364 1.353 . S
C1366 C1369 1.348 . S
C1366 H1404 0.929 . S
N1367 Li1322 1.990 . S
N1367 C1364 1.314 . S
N1367 C1365 1.279 . S
C1368 C1365 1.358 . S
C1368 C1369 1.356 . S
C1368 H1405 0.930 . S
C1369 C1366 1.348 . S
C1369 C1368 1.356 . S
H1370 C1364 0.930 . S
H1371 C1365 0.930 . S
C1372 N1373 1.314 . S
C1372 C1374 1.353 . S
C1372 H1378 0.930 . S
N1373 Li1323 1.990 . S
N1373 C1372 1.314 . S
N1373 C1376 1.279 . S
C1374 C1372 1.353 . S
C1374 C1377 1.348 . S
C1374 H1406 0.929 . S
C1375 C1376 1.358 . S
C1375 C1377 1.356 . S
C1375 H1407 0.930 . S
C1376 N1373 1.279 . S
C1376 C1375 1.358 . S
C1376 H1379 0.930 . S
C1377 C1374 1.348 . S
C1377 C1375 1.356 . S
H1378 C1372 0.930 . S
H1379 C1376 0.930 . S
O1380 Li1320 1.956 . S
O1380 Li1321 1.970 . S
O1380 Li1322 1.961 . S
O1380 C1324 1.325 . S
O1381 Li1320 1.970 . S
O1381 Li1321 1.956 . S
O1381 Li1323 1.961 . S
O1381 C1330 1.325 . S
O1382 Li1320 1.961 . S
O1382 Li1322 1.956 . S
O1382 Li1323 1.970 . S
O1382 C1352 1.325 . S
O1383 Li1321 1.961 . S
O1383 Li1322 1.970 . S
O1383 Li1323 1.956 . S
O1383 C1358 1.325 . S
H1384 C1326 0.929 . S
H1385 C1327 0.930 . S
H1386 C1328 0.930 . S
H1387 C1329 0.930 . S
H1388 C1331 0.930 . S
H1389 C1333 0.929 . S
H1390 C1334 0.930 . S
H1391 C1335 0.930 . S
H1392 C1338 0.930 . S
H1393 C1341 0.929 . S
H1394 C1346 0.929 . S
H1395 C1347 0.930 . S
H1396 C1354 0.929 . S
H1397 C1355 0.930 . S
H1398 C1356 0.930 . S
H1399 C1357 0.930 . S
H1400 C1359 0.929 . S
H1401 C1360 0.930 . S
H1402 C1361 0.930 . S
H1403 C1362 0.930 . S
H1404 C1366 0.929 . S
H1405 C1368 0.930 . S
H1406 C1374 0.929 . S
H1407 C1375 0.930 . S
Li1408 N1425 1.990 . S
Li1408 O1468 1.956 . S
Li1408 O1469 1.970 . S
Li1408 O1470 1.961 . S
Li1409 N1433 1.990 . S
Li1409 O1468 1.970 . S
Li1409 O1469 1.956 . S
Li1409 O1471 1.961 . S
Li1410 N1455 1.990 . S
Li1410 O1468 1.961 . S
Li1410 O1470 1.956 . S
Li1410 O1471 1.970 . S
Li1411 N1461 1.990 . S
Li1411 O1469 1.961 . S
Li1411 O1470 1.970 . S
Li1411 O1471 1.956 . S
C1412 C1414 1.348 . S
C1412 C1415 1.356 . S
C1412 O1468 1.325 . S
N1413 C1416 1.314 . S
N1413 C1417 1.279 . S
C1414 C1412 1.348 . S
C1414 C1416 1.353 . S
C1414 H1472 0.929 . S
C1415 C1412 1.356 . S
C1415 C1417 1.358 . S
C1415 H1473 0.930 . S
C1416 N1413 1.314 . S
C1416 C1414 1.353 . S
C1416 H1474 0.930 . S
C1417 N1413 1.279 . S
C1417 C1415 1.358 . S
C1417 H1475 0.930 . S
C1418 C1421 1.348 . S
C1418 C1422 1.356 . S
C1418 O1469 1.325 . S
C1419 N1420 1.279 . S
C1419 C1422 1.358 . S
C1419 H1476 0.930 . S
N1420 C1419 1.279 . S
N1420 C1423 1.314 . S
C1421 C1418 1.348 . S
C1421 C1423 1.353 . S
C1421 H1477 0.929 . S
C1422 C1418 1.356 . S
C1422 C1419 1.358 . S
C1422 H1478 0.930 . S
C1423 N1420 1.314 . S
C1423 C1421 1.353 . S
C1423 H1479 0.930 . S
C1424 N1425 1.314 . S
C1424 C1429 1.353 . S
C1424 H1430 0.930 . S
N1425 Li1408 1.990 . S
N1425 C1424 1.314 . S
N1425 C1427 1.279 . S
C1426 C1427 1.358 . S
C1426 C1428 1.356 . S
C1426 H1480 0.930 . S
C1427 N1425 1.279 . S
C1427 C1426 1.358 . S
C1427 H1431 0.930 . S
C1428 C1426 1.356 . S
C1428 C1429 1.348 . S
C1429 C1424 1.353 . S
C1429 C1428 1.348 . S
C1429 H1481 0.929 . S
H1430 C1424 0.930 . S
H1431 C1427 0.930 . S
C1432 N1433 1.314 . S
C1432 C1434 1.353 . S
C1432 H1438 0.930 . S
N1433 Li1409 1.990 . S
N1433 C1432 1.314 . S
N1433 C1436 1.279 . S
C1434 C1432 1.353 . S
C1434 C1437 1.348 . S
C1434 H1482 0.929 . S
C1435 C1436 1.358 . S
C1435 C1437 1.356 . S
C1435 H1483 0.930 . S
C1436 N1433 1.279 . S
C1436 C1435 1.358 . S
C1436 H1439 0.930 . S
C1437 C1434 1.348 . S
C1437 C1435 1.356 . S
H1438 C1432 0.930 . S
H1439 C1436 0.930 . S
C1440 C1442 1.348 . S
C1440 C1443 1.356 . S
C1440 O1470 1.325 . S
N1441 C1444 1.314 . S
N1441 C1445 1.279 . S
C1442 C1440 1.348 . S
C1442 C1444 1.353 . S
C1442 H1484 0.929 . S
C1443 C1440 1.356 . S
C1443 C1445 1.358 . S
C1443 H1485 0.930 . S
C1444 N1441 1.314 . S
C1444 C1442 1.353 . S
C1444 H1486 0.930 . S
C1445 N1441 1.279 . S
C1445 C1443 1.358 . S
C1445 H1487 0.930 . S
C1446 C1447 1.348 . S
C1446 C1448 1.356 . S
C1446 O1471 1.325 . S
C1447 C1446 1.348 . S
C1447 C1449 1.353 . S
C1447 H1488 0.929 . S
C1448 C1446 1.356 . S
C1448 C1450 1.358 . S
C1448 H1489 0.930 . S
C1449 C1447 1.353 . S
C1449 N1451 1.314 . S
C1449 H1490 0.930 . S
C1450 C1448 1.358 . S
C1450 N1451 1.279 . S
C1450 H1491 0.930 . S
N1451 C1449 1.314 . S
N1451 C1450 1.279 . S
C1452 C1454 1.353 . S
C1452 N1455 1.314 . S
C1452 H1458 0.930 . S
C1453 N1455 1.279 . S
C1453 C1456 1.358 . S
C1453 H1459 0.930 . S
C1454 C1452 1.353 . S
C1454 C1457 1.348 . S
C1454 H1492 0.929 . S
N1455 Li1410 1.990 . S
N1455 C1452 1.314 . S
N1455 C1453 1.279 . S
C1456 C1453 1.358 . S
C1456 C1457 1.356 . S
C1456 H1493 0.930 . S
C1457 C1454 1.348 . S
C1457 C1456 1.356 . S
H1458 C1452 0.930 . S
H1459 C1453 0.930 . S
C1460 N1461 1.314 . S
C1460 C1462 1.353 . S
C1460 H1466 0.930 . S
N1461 Li1411 1.990 . S
N1461 C1460 1.314 . S
N1461 C1464 1.279 . S
C1462 C1460 1.353 . S
C1462 C1465 1.348 . S
C1462 H1494 0.929 . S
C1463 C1464 1.358 . S
C1463 C1465 1.356 . S
C1463 H1495 0.930 . S
C1464 N1461 1.279 . S
C1464 C1463 1.358 . S
C1464 H1467 0.930 . S
C1465 C1462 1.348 . S
C1465 C1463 1.356 . S
H1466 C1460 0.930 . S
H1467 C1464 0.930 . S
O1468 Li1408 1.956 . S
O1468 Li1409 1.970 . S
O1468 Li1410 1.961 . S
O1468 C1412 1.325 . S
O1469 Li1408 1.970 . S
O1469 Li1409 1.956 . S
O1469 Li1411 1.961 . S
O1469 C1418 1.325 . S
O1470 Li1408 1.961 . S
O1470 Li1410 1.956 . S
O1470 Li1411 1.970 . S
O1470 C1440 1.325 . S
O1471 Li1409 1.961 . S
O1471 Li1410 1.970 . S
O1471 Li1411 1.956 . S
O1471 C1446 1.325 . S
H1472 C1414 0.929 . S
H1473 C1415 0.930 . S
H1474 C1416 0.930 . S
H1475 C1417 0.930 . S
H1476 C1419 0.930 . S
H1477 C1421 0.929 . S
H1478 C1422 0.930 . S
H1479 C1423 0.930 . S
H1480 C1426 0.930 . S
H1481 C1429 0.929 . S
H1482 C1434 0.929 . S
H1483 C1435 0.930 . S
H1484 C1442 0.929 . S
H1485 C1443 0.930 . S
H1486 C1444 0.930 . S
H1487 C1445 0.930 . S
H1488 C1447 0.929 . S
H1489 C1448 0.930 . S
H1490 C1449 0.930 . S
H1491 C1450 0.930 . S
H1492 C1454 0.929 . S
H1493 C1456 0.930 . S
H1494 C1462 0.929 . S
H1495 C1463 0.930 . S
Li1496 N1513 1.990 . S
Li1496 O1556 1.956 . S
Li1496 O1557 1.970 . S
Li1496 O1558 1.961 . S
Li1497 N1521 1.990 . S
Li1497 O1556 1.970 . S
Li1497 O1557 1.956 . S
Li1497 O1559 1.961 . S
Li1498 N1543 1.990 . S
Li1498 O1556 1.961 . S
Li1498 O1558 1.956 . S
Li1498 O1559 1.970 . S
Li1499 N1549 1.990 . S
Li1499 O1557 1.961 . S
Li1499 O1558 1.970 . S
Li1499 O1559 1.956 . S
C1500 C1502 1.348 . S
C1500 C1503 1.356 . S
C1500 O1556 1.325 . S
N1501 C1504 1.314 . S
N1501 C1505 1.279 . S
C1502 C1500 1.348 . S
C1502 C1504 1.353 . S
C1502 H1560 0.929 . S
C1503 C1500 1.356 . S
C1503 C1505 1.358 . S
C1503 H1561 0.930 . S
C1504 N1501 1.314 . S
C1504 C1502 1.353 . S
C1504 H1562 0.930 . S
C1505 N1501 1.279 . S
C1505 C1503 1.358 . S
C1505 H1563 0.930 . S
C1506 C1509 1.348 . S
C1506 C1510 1.356 . S
C1506 O1557 1.325 . S
C1507 N1508 1.279 . S
C1507 C1510 1.358 . S
C1507 H1564 0.930 . S
N1508 C1507 1.279 . S
N1508 C1511 1.314 . S
C1509 C1506 1.348 . S
C1509 C1511 1.353 . S
C1509 H1565 0.929 . S
C1510 C1506 1.356 . S
C1510 C1507 1.358 . S
C1510 H1566 0.930 . S
C1511 N1508 1.314 . S
C1511 C1509 1.353 . S
C1511 H1567 0.930 . S
C1512 N1513 1.314 . S
C1512 C1517 1.353 . S
C1512 H1518 0.930 . S
N1513 Li1496 1.990 . S
N1513 C1512 1.314 . S
N1513 C1515 1.279 . S
C1514 C1515 1.358 . S
C1514 C1516 1.356 . S
C1514 H1568 0.930 . S
C1515 N1513 1.279 . S
C1515 C1514 1.358 . S
C1515 H1519 0.930 . S
C1516 C1514 1.356 . S
C1516 C1517 1.348 . S
C1517 C1512 1.353 . S
C1517 C1516 1.348 . S
C1517 H1569 0.929 . S
H1518 C1512 0.930 . S
H1519 C1515 0.930 . S
C1520 N1521 1.314 . S
C1520 C1522 1.353 . S
C1520 H1526 0.930 . S
N1521 Li1497 1.990 . S
N1521 C1520 1.314 . S
N1521 C1524 1.279 . S
C1522 C1520 1.353 . S
C1522 C1525 1.348 . S
C1522 H1570 0.929 . S
C1523 C1524 1.358 . S
C1523 C1525 1.356 . S
C1523 H1571 0.930 . S
C1524 N1521 1.279 . S
C1524 C1523 1.358 . S
C1524 H1527 0.930 . S
C1525 C1522 1.348 . S
C1525 C1523 1.356 . S
H1526 C1520 0.930 . S
H1527 C1524 0.930 . S
C1528 C1530 1.348 . S
C1528 C1531 1.356 . S
C1528 O1558 1.325 . S
N1529 C1532 1.314 . S
N1529 C1533 1.279 . S
C1530 C1528 1.348 . S
C1530 C1532 1.353 . S
C1530 H1572 0.929 . S
C1531 C1528 1.356 . S
C1531 C1533 1.358 . S
C1531 H1573 0.930 . S
C1532 N1529 1.314 . S
C1532 C1530 1.353 . S
C1532 H1574 0.930 . S
C1533 N1529 1.279 . S
C1533 C1531 1.358 . S
C1533 H1575 0.930 . S
C1534 C1535 1.348 . S
C1534 C1536 1.356 . S
C1534 O1559 1.325 . S
C1535 C1534 1.348 . S
C1535 C1537 1.353 . S
C1535 H1576 0.929 . S
C1536 C1534 1.356 . S
C1536 C1538 1.358 . S
C1536 H1577 0.930 . S
C1537 C1535 1.353 . S
C1537 N1539 1.314 . S
C1537 H1578 0.930 . S
C1538 C1536 1.358 . S
C1538 N1539 1.279 . S
C1538 H1579 0.930 . S
N1539 C1537 1.314 . S
N1539 C1538 1.279 . S
C1540 C1542 1.353 . S
C1540 N1543 1.314 . S
C1540 H1546 0.930 . S
C1541 N1543 1.279 . S
C1541 C1544 1.358 . S
C1541 H1547 0.930 . S
C1542 C1540 1.353 . S
C1542 C1545 1.348 . S
C1542 H1580 0.929 . S
N1543 Li1498 1.990 . S
N1543 C1540 1.314 . S
N1543 C1541 1.279 . S
C1544 C1541 1.358 . S
C1544 C1545 1.356 . S
C1544 H1581 0.930 . S
C1545 C1542 1.348 . S
C1545 C1544 1.356 . S
H1546 C1540 0.930 . S
H1547 C1541 0.930 . S
C1548 N1549 1.314 . S
C1548 C1550 1.353 . S
C1548 H1554 0.930 . S
N1549 Li1499 1.990 . S
N1549 C1548 1.314 . S
N1549 C1552 1.279 . S
C1550 C1548 1.353 . S
C1550 C1553 1.348 . S
C1550 H1582 0.929 . S
C1551 C1552 1.358 . S
C1551 C1553 1.356 . S
C1551 H1583 0.930 . S
C1552 N1549 1.279 . S
C1552 C1551 1.358 . S
C1552 H1555 0.930 . S
C1553 C1550 1.348 . S
C1553 C1551 1.356 . S
H1554 C1548 0.930 . S
H1555 C1552 0.930 . S
O1556 Li1496 1.956 . S
O1556 Li1497 1.970 . S
O1556 Li1498 1.961 . S
O1556 C1500 1.325 . S
O1557 Li1496 1.970 . S
O1557 Li1497 1.956 . S
O1557 Li1499 1.961 . S
O1557 C1506 1.325 . S
O1558 Li1496 1.961 . S
O1558 Li1498 1.956 . S
O1558 Li1499 1.970 . S
O1558 C1528 1.325 . S
O1559 Li1497 1.961 . S
O1559 Li1498 1.970 . S
O1559 Li1499 1.956 . S
O1559 C1534 1.325 . S
H1560 C1502 0.929 . S
H1561 C1503 0.930 . S
H1562 C1504 0.930 . S
H1563 C1505 0.930 . S
H1564 C1507 0.930 . S
H1565 C1509 0.929 . S
H1566 C1510 0.930 . S
H1567 C1511 0.930 . S
H1568 C1514 0.930 . S
H1569 C1517 0.929 . S
H1570 C1522 0.929 . S
H1571 C1523 0.930 . S
H1572 C1530 0.929 . S
H1573 C1531 0.930 . S
H1574 C1532 0.930 . S
H1575 C1533 0.930 . S
H1576 C1535 0.929 . S
H1577 C1536 0.930 . S
H1578 C1537 0.930 . S
H1579 C1538 0.930 . S
H1580 C1542 0.929 . S
H1581 C1544 0.930 . S
H1582 C1550 0.929 . S
H1583 C1551 0.930 . S
Li1584 N1601 1.990 . S
Li1584 O1644 1.956 . S
Li1584 O1645 1.970 . S
Li1584 O1646 1.961 . S
Li1585 N1609 1.990 . S
Li1585 O1644 1.970 . S
Li1585 O1645 1.956 . S
Li1585 O1647 1.961 . S
Li1586 N1631 1.990 . S
Li1586 O1644 1.961 . S
Li1586 O1646 1.956 . S
Li1586 O1647 1.970 . S
Li1587 N1637 1.990 . S
Li1587 O1645 1.961 . S
Li1587 O1646 1.970 . S
Li1587 O1647 1.956 . S
C1588 C1590 1.348 . S
C1588 C1591 1.356 . S
C1588 O1644 1.325 . S
N1589 C1592 1.314 . S
N1589 C1593 1.279 . S
C1590 C1588 1.348 . S
C1590 C1592 1.353 . S
C1590 H1648 0.929 . S
C1591 C1588 1.356 . S
C1591 C1593 1.358 . S
C1591 H1649 0.930 . S
C1592 N1589 1.314 . S
C1592 C1590 1.353 . S
C1592 H1650 0.930 . S
C1593 N1589 1.279 . S
C1593 C1591 1.358 . S
C1593 H1651 0.930 . S
C1594 C1597 1.348 . S
C1594 C1598 1.356 . S
C1594 O1645 1.325 . S
C1595 N1596 1.279 . S
C1595 C1598 1.358 . S
C1595 H1652 0.930 . S
N1596 C1595 1.279 . S
N1596 C1599 1.314 . S
C1597 C1594 1.348 . S
C1597 C1599 1.353 . S
C1597 H1653 0.929 . S
C1598 C1594 1.356 . S
C1598 C1595 1.358 . S
C1598 H1654 0.930 . S
C1599 N1596 1.314 . S
C1599 C1597 1.353 . S
C1599 H1655 0.930 . S
C1600 N1601 1.314 . S
C1600 C1605 1.353 . S
C1600 H1606 0.930 . S
N1601 Li1584 1.990 . S
N1601 C1600 1.314 . S
N1601 C1603 1.279 . S
C1602 C1603 1.358 . S
C1602 C1604 1.356 . S
C1602 H1656 0.930 . S
C1603 N1601 1.279 . S
C1603 C1602 1.358 . S
C1603 H1607 0.930 . S
C1604 C1602 1.356 . S
C1604 C1605 1.348 . S
C1605 C1600 1.353 . S
C1605 C1604 1.348 . S
C1605 H1657 0.929 . S
H1606 C1600 0.930 . S
H1607 C1603 0.930 . S
C1608 N1609 1.314 . S
C1608 C1610 1.353 . S
C1608 H1614 0.930 . S
N1609 Li1585 1.990 . S
N1609 C1608 1.314 . S
N1609 C1612 1.279 . S
C1610 C1608 1.353 . S
C1610 C1613 1.348 . S
C1610 H1658 0.929 . S
C1611 C1612 1.358 . S
C1611 C1613 1.356 . S
C1611 H1659 0.930 . S
C1612 N1609 1.279 . S
C1612 C1611 1.358 . S
C1612 H1615 0.930 . S
C1613 C1610 1.348 . S
C1613 C1611 1.356 . S
H1614 C1608 0.930 . S
H1615 C1612 0.930 . S
C1616 C1618 1.348 . S
C1616 C1619 1.356 . S
C1616 O1646 1.325 . S
N1617 C1620 1.314 . S
N1617 C1621 1.279 . S
C1618 C1616 1.348 . S
C1618 C1620 1.353 . S
C1618 H1660 0.929 . S
C1619 C1616 1.356 . S
C1619 C1621 1.358 . S
C1619 H1661 0.930 . S
C1620 N1617 1.314 . S
C1620 C1618 1.353 . S
C1620 H1662 0.930 . S
C1621 N1617 1.279 . S
C1621 C1619 1.358 . S
C1621 H1663 0.930 . S
C1622 C1623 1.348 . S
C1622 C1624 1.356 . S
C1622 O1647 1.325 . S
C1623 C1622 1.348 . S
C1623 C1625 1.353 . S
C1623 H1664 0.929 . S
C1624 C1622 1.356 . S
C1624 C1626 1.358 . S
C1624 H1665 0.930 . S
C1625 C1623 1.353 . S
C1625 N1627 1.314 . S
C1625 H1666 0.930 . S
C1626 C1624 1.358 . S
C1626 N1627 1.279 . S
C1626 H1667 0.930 . S
N1627 C1625 1.314 . S
N1627 C1626 1.279 . S
C1628 C1630 1.353 . S
C1628 N1631 1.314 . S
C1628 H1634 0.930 . S
C1629 N1631 1.279 . S
C1629 C1632 1.358 . S
C1629 H1635 0.930 . S
C1630 C1628 1.353 . S
C1630 C1633 1.348 . S
C1630 H1668 0.929 . S
N1631 Li1586 1.990 . S
N1631 C1628 1.314 . S
N1631 C1629 1.279 . S
C1632 C1629 1.358 . S
C1632 C1633 1.356 . S
C1632 H1669 0.930 . S
C1633 C1630 1.348 . S
C1633 C1632 1.356 . S
H1634 C1628 0.930 . S
H1635 C1629 0.930 . S
C1636 N1637 1.314 . S
C1636 C1638 1.353 . S
C1636 H1642 0.930 . S
N1637 Li1587 1.990 . S
N1637 C1636 1.314 . S
N1637 C1640 1.279 . S
C1638 C1636 1.353 . S
C1638 C1641 1.348 . S
C1638 H1670 0.929 . S
C1639 C1640 1.358 . S
C1639 C1641 1.356 . S
C1639 H1671 0.930 . S
C1640 N1637 1.279 . S
C1640 C1639 1.358 . S
C1640 H1643 0.930 . S
C1641 C1638 1.348 . S
C1641 C1639 1.356 . S
H1642 C1636 0.930 . S
H1643 C1640 0.930 . S
O1644 Li1584 1.956 . S
O1644 Li1585 1.970 . S
O1644 Li1586 1.961 . S
O1644 C1588 1.325 . S
O1645 Li1584 1.970 . S
O1645 Li1585 1.956 . S
O1645 Li1587 1.961 . S
O1645 C1594 1.325 . S
O1646 Li1584 1.961 . S
O1646 Li1586 1.956 . S
O1646 Li1587 1.970 . S
O1646 C1616 1.325 . S
O1647 Li1585 1.961 . S
O1647 Li1586 1.970 . S
O1647 Li1587 1.956 . S
O1647 C1622 1.325 . S
H1648 C1590 0.929 . S
H1649 C1591 0.930 . S
H1650 C1592 0.930 . S
H1651 C1593 0.930 . S
H1652 C1595 0.930 . S
H1653 C1597 0.929 . S
H1654 C1598 0.930 . S
H1655 C1599 0.930 . S
H1656 C1602 0.930 . S
H1657 C1605 0.929 . S
H1658 C1610 0.929 . S
H1659 C1611 0.930 . S
H1660 C1618 0.929 . S
H1661 C1619 0.930 . S
H1662 C1620 0.930 . S
H1663 C1621 0.930 . S
H1664 C1623 0.929 . S
H1665 C1624 0.930 . S
H1666 C1625 0.930 . S
H1667 C1626 0.930 . S
H1668 C1630 0.929 . S
H1669 C1632 0.930 . S
H1670 C1638 0.929 . S
H1671 C1639 0.930 . S
Li1672 N1689 1.990 . S
Li1672 O1732 1.956 . S
Li1672 O1733 1.970 . S
Li1672 O1734 1.961 . S
Li1673 N1697 1.990 . S
Li1673 O1732 1.970 . S
Li1673 O1733 1.956 . S
Li1673 O1735 1.961 . S
Li1674 N1719 1.990 . S
Li1674 O1732 1.961 . S
Li1674 O1734 1.956 . S
Li1674 O1735 1.970 . S
Li1675 N1725 1.990 . S
Li1675 O1733 1.961 . S
Li1675 O1734 1.970 . S
Li1675 O1735 1.956 . S
C1676 C1678 1.348 . S
C1676 C1679 1.356 . S
C1676 O1732 1.325 . S
N1677 C1680 1.314 . S
N1677 C1681 1.279 . S
C1678 C1676 1.348 . S
C1678 C1680 1.353 . S
C1678 H1736 0.929 . S
C1679 C1676 1.356 . S
C1679 C1681 1.358 . S
C1679 H1737 0.930 . S
C1680 N1677 1.314 . S
C1680 C1678 1.353 . S
C1680 H1738 0.930 . S
C1681 N1677 1.279 . S
C1681 C1679 1.358 . S
C1681 H1739 0.930 . S
C1682 C1685 1.348 . S
C1682 C1686 1.356 . S
C1682 O1733 1.325 . S
C1683 N1684 1.279 . S
C1683 C1686 1.358 . S
C1683 H1740 0.930 . S
N1684 C1683 1.279 . S
N1684 C1687 1.314 . S
C1685 C1682 1.348 . S
C1685 C1687 1.353 . S
C1685 H1741 0.929 . S
C1686 C1682 1.356 . S
C1686 C1683 1.358 . S
C1686 H1742 0.930 . S
C1687 N1684 1.314 . S
C1687 C1685 1.353 . S
C1687 H1743 0.930 . S
C1688 N1689 1.314 . S
C1688 C1693 1.353 . S
C1688 H1694 0.930 . S
N1689 Li1672 1.990 . S
N1689 C1688 1.314 . S
N1689 C1691 1.279 . S
C1690 C1691 1.358 . S
C1690 C1692 1.356 . S
C1690 H1744 0.930 . S
C1691 N1689 1.279 . S
C1691 C1690 1.358 . S
C1691 H1695 0.930 . S
C1692 C1690 1.356 . S
C1692 C1693 1.348 . S
C1693 C1688 1.353 . S
C1693 C1692 1.348 . S
C1693 H1745 0.929 . S
H1694 C1688 0.930 . S
H1695 C1691 0.930 . S
C1696 N1697 1.314 . S
C1696 C1698 1.353 . S
C1696 H1702 0.930 . S
N1697 Li1673 1.990 . S
N1697 C1696 1.314 . S
N1697 C1700 1.279 . S
C1698 C1696 1.353 . S
C1698 C1701 1.348 . S
C1698 H1746 0.929 . S
C1699 C1700 1.358 . S
C1699 C1701 1.356 . S
C1699 H1747 0.930 . S
C1700 N1697 1.279 . S
C1700 C1699 1.358 . S
C1700 H1703 0.930 . S
C1701 C1698 1.348 . S
C1701 C1699 1.356 . S
H1702 C1696 0.930 . S
H1703 C1700 0.930 . S
C1704 C1706 1.348 . S
C1704 C1707 1.356 . S
C1704 O1734 1.325 . S
N1705 C1708 1.314 . S
N1705 C1709 1.279 . S
C1706 C1704 1.348 . S
C1706 C1708 1.353 . S
C1706 H1748 0.929 . S
C1707 C1704 1.356 . S
C1707 C1709 1.358 . S
C1707 H1749 0.930 . S
C1708 N1705 1.314 . S
C1708 C1706 1.353 . S
C1708 H1750 0.930 . S
C1709 N1705 1.279 . S
C1709 C1707 1.358 . S
C1709 H1751 0.930 . S
C1710 C1711 1.348 . S
C1710 C1712 1.356 . S
C1710 O1735 1.325 . S
C1711 C1710 1.348 . S
C1711 C1713 1.353 . S
C1711 H1752 0.929 . S
C1712 C1710 1.356 . S
C1712 C1714 1.358 . S
C1712 H1753 0.930 . S
C1713 C1711 1.353 . S
C1713 N1715 1.314 . S
C1713 H1754 0.930 . S
C1714 C1712 1.358 . S
C1714 N1715 1.279 . S
C1714 H1755 0.930 . S
N1715 C1713 1.314 . S
N1715 C1714 1.279 . S
C1716 C1718 1.353 . S
C1716 N1719 1.314 . S
C1716 H1722 0.930 . S
C1717 N1719 1.279 . S
C1717 C1720 1.358 . S
C1717 H1723 0.930 . S
C1718 C1716 1.353 . S
C1718 C1721 1.348 . S
C1718 H1756 0.929 . S
N1719 Li1674 1.990 . S
N1719 C1716 1.314 . S
N1719 C1717 1.279 . S
C1720 C1717 1.358 . S
C1720 C1721 1.356 . S
C1720 H1757 0.930 . S
C1721 C1718 1.348 . S
C1721 C1720 1.356 . S
H1722 C1716 0.930 . S
H1723 C1717 0.930 . S
C1724 N1725 1.314 . S
C1724 C1726 1.353 . S
C1724 H1730 0.930 . S
N1725 Li1675 1.990 . S
N1725 C1724 1.314 . S
N1725 C1728 1.279 . S
C1726 C1724 1.353 . S
C1726 C1729 1.348 . S
C1726 H1758 0.929 . S
C1727 C1728 1.358 . S
C1727 C1729 1.356 . S
C1727 H1759 0.930 . S
C1728 N1725 1.279 . S
C1728 C1727 1.358 . S
C1728 H1731 0.930 . S
C1729 C1726 1.348 . S
C1729 C1727 1.356 . S
H1730 C1724 0.930 . S
H1731 C1728 0.930 . S
O1732 Li1672 1.956 . S
O1732 Li1673 1.970 . S
O1732 Li1674 1.961 . S
O1732 C1676 1.325 . S
O1733 Li1672 1.970 . S
O1733 Li1673 1.956 . S
O1733 Li1675 1.961 . S
O1733 C1682 1.325 . S
O1734 Li1672 1.961 . S
O1734 Li1674 1.956 . S
O1734 Li1675 1.970 . S
O1734 C1704 1.325 . S
O1735 Li1673 1.961 . S
O1735 Li1674 1.970 . S
O1735 Li1675 1.956 . S
O1735 C1710 1.325 . S
H1736 C1678 0.929 . S
H1737 C1679 0.930 . S
H1738 C1680 0.930 . S
H1739 C1681 0.930 . S
H1740 C1683 0.930 . S
H1741 C1685 0.929 . S
H1742 C1686 0.930 . S
H1743 C1687 0.930 . S
H1744 C1690 0.930 . S
H1745 C1693 0.929 . S
H1746 C1698 0.929 . S
H1747 C1699 0.930 . S
H1748 C1706 0.929 . S
H1749 C1707 0.930 . S
H1750 C1708 0.930 . S
H1751 C1709 0.930 . S
H1752 C1711 0.929 . S
H1753 C1712 0.930 . S
H1754 C1713 0.930 . S
H1755 C1714 0.930 . S
H1756 C1718 0.929 . S
H1757 C1720 0.930 . S
H1758 C1726 0.929 . S
H1759 C1727 0.930 . S
Li1760 N1777 1.990 . S
Li1760 O1820 1.956 . S
Li1760 O1821 1.970 . S
Li1760 O1822 1.961 . S
Li1761 N1785 1.990 . S
Li1761 O1820 1.970 . S
Li1761 O1821 1.956 . S
Li1761 O1823 1.961 . S
Li1762 N1807 1.990 . S
Li1762 O1820 1.961 . S
Li1762 O1822 1.956 . S
Li1762 O1823 1.970 . S
Li1763 N1813 1.990 . S
Li1763 O1821 1.961 . S
Li1763 O1822 1.970 . S
Li1763 O1823 1.956 . S
C1764 C1766 1.348 . S
C1764 C1767 1.356 . S
C1764 O1820 1.325 . S
N1765 C1768 1.314 . S
N1765 C1769 1.279 . S
C1766 C1764 1.348 . S
C1766 C1768 1.353 . S
C1766 H1824 0.929 . S
C1767 C1764 1.356 . S
C1767 C1769 1.358 . S
C1767 H1825 0.930 . S
C1768 N1765 1.314 . S
C1768 C1766 1.353 . S
C1768 H1826 0.930 . S
C1769 N1765 1.279 . S
C1769 C1767 1.358 . S
C1769 H1827 0.930 . S
C1770 C1773 1.348 . S
C1770 C1774 1.356 . S
C1770 O1821 1.325 . S
C1771 N1772 1.279 . S
C1771 C1774 1.358 . S
C1771 H1828 0.930 . S
N1772 C1771 1.279 . S
N1772 C1775 1.314 . S
C1773 C1770 1.348 . S
C1773 C1775 1.353 . S
C1773 H1829 0.929 . S
C1774 C1770 1.356 . S
C1774 C1771 1.358 . S
C1774 H1830 0.930 . S
C1775 N1772 1.314 . S
C1775 C1773 1.353 . S
C1775 H1831 0.930 . S
C1776 N1777 1.314 . S
C1776 C1781 1.353 . S
C1776 H1782 0.930 . S
N1777 Li1760 1.990 . S
N1777 C1776 1.314 . S
N1777 C1779 1.279 . S
C1778 C1779 1.358 . S
C1778 C1780 1.356 . S
C1778 H1832 0.930 . S
C1779 N1777 1.279 . S
C1779 C1778 1.358 . S
C1779 H1783 0.930 . S
C1780 C1778 1.356 . S
C1780 C1781 1.348 . S
C1781 C1776 1.353 . S
C1781 C1780 1.348 . S
C1781 H1833 0.929 . S
H1782 C1776 0.930 . S
H1783 C1779 0.930 . S
C1784 N1785 1.314 . S
C1784 C1786 1.353 . S
C1784 H1790 0.930 . S
N1785 Li1761 1.990 . S
N1785 C1784 1.314 . S
N1785 C1788 1.279 . S
C1786 C1784 1.353 . S
C1786 C1789 1.348 . S
C1786 H1834 0.929 . S
C1787 C1788 1.358 . S
C1787 C1789 1.356 . S
C1787 H1835 0.930 . S
C1788 N1785 1.279 . S
C1788 C1787 1.358 . S
C1788 H1791 0.930 . S
C1789 C1786 1.348 . S
C1789 C1787 1.356 . S
H1790 C1784 0.930 . S
H1791 C1788 0.930 . S
C1792 C1794 1.348 . S
C1792 C1795 1.356 . S
C1792 O1822 1.325 . S
N1793 C1796 1.314 . S
N1793 C1797 1.279 . S
C1794 C1792 1.348 . S
C1794 C1796 1.353 . S
C1794 H1836 0.929 . S
C1795 C1792 1.356 . S
C1795 C1797 1.358 . S
C1795 H1837 0.930 . S
C1796 N1793 1.314 . S
C1796 C1794 1.353 . S
C1796 H1838 0.930 . S
C1797 N1793 1.279 . S
C1797 C1795 1.358 . S
C1797 H1839 0.930 . S
C1798 C1799 1.348 . S
C1798 C1800 1.356 . S
C1798 O1823 1.325 . S
C1799 C1798 1.348 . S
C1799 C1801 1.353 . S
C1799 H1840 0.929 . S
C1800 C1798 1.356 . S
C1800 C1802 1.358 . S
C1800 H1841 0.930 . S
C1801 C1799 1.353 . S
C1801 N1803 1.314 . S
C1801 H1842 0.930 . S
C1802 C1800 1.358 . S
C1802 N1803 1.279 . S
C1802 H1843 0.930 . S
N1803 C1801 1.314 . S
N1803 C1802 1.279 . S
C1804 C1806 1.353 . S
C1804 N1807 1.314 . S
C1804 H1810 0.930 . S
C1805 N1807 1.279 . S
C1805 C1808 1.358 . S
C1805 H1811 0.930 . S
C1806 C1804 1.353 . S
C1806 C1809 1.348 . S
C1806 H1844 0.929 . S
N1807 Li1762 1.990 . S
N1807 C1804 1.314 . S
N1807 C1805 1.279 . S
C1808 C1805 1.358 . S
C1808 C1809 1.356 . S
C1808 H1845 0.930 . S
C1809 C1806 1.348 . S
C1809 C1808 1.356 . S
H1810 C1804 0.930 . S
H1811 C1805 0.930 . S
C1812 N1813 1.314 . S
C1812 C1814 1.353 . S
C1812 H1818 0.930 . S
N1813 Li1763 1.990 . S
N1813 C1812 1.314 . S
N1813 C1816 1.279 . S
C1814 C1812 1.353 . S
C1814 C1817 1.348 . S
C1814 H1846 0.929 . S
C1815 C1816 1.358 . S
C1815 C1817 1.356 . S
C1815 H1847 0.930 . S
C1816 N1813 1.279 . S
C1816 C1815 1.358 . S
C1816 H1819 0.930 . S
C1817 C1814 1.348 . S
C1817 C1815 1.356 . S
H1818 C1812 0.930 . S
H1819 C1816 0.930 . S
O1820 Li1760 1.956 . S
O1820 Li1761 1.970 . S
O1820 Li1762 1.961 . S
O1820 C1764 1.325 . S
O1821 Li1760 1.970 . S
O1821 Li1761 1.956 . S
O1821 Li1763 1.961 . S
O1821 C1770 1.325 . S
O1822 Li1760 1.961 . S
O1822 Li1762 1.956 . S
O1822 Li1763 1.970 . S
O1822 C1792 1.325 . S
O1823 Li1761 1.961 . S
O1823 Li1762 1.970 . S
O1823 Li1763 1.956 . S
O1823 C1798 1.325 . S
H1824 C1766 0.929 . S
H1825 C1767 0.930 . S
H1826 C1768 0.930 . S
H1827 C1769 0.930 . S
H1828 C1771 0.930 . S
H1829 C1773 0.929 . S
H1830 C1774 0.930 . S
H1831 C1775 0.930 . S
H1832 C1778 0.930 . S
H1833 C1781 0.929 . S
H1834 C1786 0.929 . S
H1835 C1787 0.930 . S
H1836 C1794 0.929 . S
H1837 C1795 0.930 . S
H1838 C1796 0.930 . S
H1839 C1797 0.930 . S
H1840 C1799 0.929 . S
H1841 C1800 0.930 . S
H1842 C1801 0.930 . S
H1843 C1802 0.930 . S
H1844 C1806 0.929 . S
H1845 C1808 0.930 . S
H1846 C1814 0.929 . S
H1847 C1815 0.930 . S
Li1848 N1865 1.990 . S
Li1848 O1908 1.956 . S
Li1848 O1909 1.970 . S
Li1848 O1910 1.961 . S
Li1849 N1873 1.990 . S
Li1849 O1908 1.970 . S
Li1849 O1909 1.956 . S
Li1849 O1911 1.961 . S
Li1850 N1895 1.990 . S
Li1850 O1908 1.961 . S
Li1850 O1910 1.956 . S
Li1850 O1911 1.970 . S
Li1851 N1901 1.990 . S
Li1851 O1909 1.961 . S
Li1851 O1910 1.970 . S
Li1851 O1911 1.956 . S
C1852 C1854 1.348 . S
C1852 C1855 1.356 . S
C1852 O1908 1.325 . S
N1853 C1856 1.314 . S
N1853 C1857 1.279 . S
C1854 C1852 1.348 . S
C1854 C1856 1.353 . S
C1854 H1912 0.929 . S
C1855 C1852 1.356 . S
C1855 C1857 1.358 . S
C1855 H1913 0.930 . S
C1856 N1853 1.314 . S
C1856 C1854 1.353 . S
C1856 H1914 0.930 . S
C1857 N1853 1.279 . S
C1857 C1855 1.358 . S
C1857 H1915 0.930 . S
C1858 C1861 1.348 . S
C1858 C1862 1.356 . S
C1858 O1909 1.325 . S
C1859 N1860 1.279 . S
C1859 C1862 1.358 . S
C1859 H1916 0.930 . S
N1860 C1859 1.279 . S
N1860 C1863 1.314 . S
C1861 C1858 1.348 . S
C1861 C1863 1.353 . S
C1861 H1917 0.929 . S
C1862 C1858 1.356 . S
C1862 C1859 1.358 . S
C1862 H1918 0.930 . S
C1863 N1860 1.314 . S
C1863 C1861 1.353 . S
C1863 H1919 0.930 . S
C1864 N1865 1.314 . S
C1864 C1869 1.353 . S
C1864 H1870 0.930 . S
N1865 Li1848 1.990 . S
N1865 C1864 1.314 . S
N1865 C1867 1.279 . S
C1866 C1867 1.358 . S
C1866 C1868 1.356 . S
C1866 H1920 0.930 . S
C1867 N1865 1.279 . S
C1867 C1866 1.358 . S
C1867 H1871 0.930 . S
C1868 C1866 1.356 . S
C1868 C1869 1.348 . S
C1869 C1864 1.353 . S
C1869 C1868 1.348 . S
C1869 H1921 0.929 . S
H1870 C1864 0.930 . S
H1871 C1867 0.930 . S
C1872 N1873 1.314 . S
C1872 C1874 1.353 . S
C1872 H1878 0.930 . S
N1873 Li1849 1.990 . S
N1873 C1872 1.314 . S
N1873 C1876 1.279 . S
C1874 C1872 1.353 . S
C1874 C1877 1.348 . S
C1874 H1922 0.929 . S
C1875 C1876 1.358 . S
C1875 C1877 1.356 . S
C1875 H1923 0.930 . S
C1876 N1873 1.279 . S
C1876 C1875 1.358 . S
C1876 H1879 0.930 . S
C1877 C1874 1.348 . S
C1877 C1875 1.356 . S
H1878 C1872 0.930 . S
H1879 C1876 0.930 . S
C1880 C1882 1.348 . S
C1880 C1883 1.356 . S
C1880 O1910 1.325 . S
N1881 C1884 1.314 . S
N1881 C1885 1.279 . S
C1882 C1880 1.348 . S
C1882 C1884 1.353 . S
C1882 H1924 0.929 . S
C1883 C1880 1.356 . S
C1883 C1885 1.358 . S
C1883 H1925 0.930 . S
C1884 N1881 1.314 . S
C1884 C1882 1.353 . S
C1884 H1926 0.930 . S
C1885 N1881 1.279 . S
C1885 C1883 1.358 . S
C1885 H1927 0.930 . S
C1886 C1887 1.348 . S
C1886 C1888 1.356 . S
C1886 O1911 1.325 . S
C1887 C1886 1.348 . S
C1887 C1889 1.353 . S
C1887 H1928 0.929 . S
C1888 C1886 1.356 . S
C1888 C1890 1.358 . S
C1888 H1929 0.930 . S
C1889 C1887 1.353 . S
C1889 N1891 1.314 . S
C1889 H1930 0.930 . S
C1890 C1888 1.358 . S
C1890 N1891 1.279 . S
C1890 H1931 0.930 . S
N1891 C1889 1.314 . S
N1891 C1890 1.279 . S
C1892 C1894 1.353 . S
C1892 N1895 1.314 . S
C1892 H1898 0.930 . S
C1893 N1895 1.279 . S
C1893 C1896 1.358 . S
C1893 H1899 0.930 . S
C1894 C1892 1.353 . S
C1894 C1897 1.348 . S
C1894 H1932 0.929 . S
N1895 Li1850 1.990 . S
N1895 C1892 1.314 . S
N1895 C1893 1.279 . S
C1896 C1893 1.358 . S
C1896 C1897 1.356 . S
C1896 H1933 0.930 . S
C1897 C1894 1.348 . S
C1897 C1896 1.356 . S
H1898 C1892 0.930 . S
H1899 C1893 0.930 . S
C1900 N1901 1.314 . S
C1900 C1902 1.353 . S
C1900 H1906 0.930 . S
N1901 Li1851 1.990 . S
N1901 C1900 1.314 . S
N1901 C1904 1.279 . S
C1902 C1900 1.353 . S
C1902 C1905 1.348 . S
C1902 H1934 0.929 . S
C1903 C1904 1.358 . S
C1903 C1905 1.356 . S
C1903 H1935 0.930 . S
C1904 N1901 1.279 . S
C1904 C1903 1.358 . S
C1904 H1907 0.930 . S
C1905 C1902 1.348 . S
C1905 C1903 1.356 . S
H1906 C1900 0.930 . S
H1907 C1904 0.930 . S
O1908 Li1848 1.956 . S
O1908 Li1849 1.970 . S
O1908 Li1850 1.961 . S
O1908 C1852 1.325 . S
O1909 Li1848 1.970 . S
O1909 Li1849 1.956 . S
O1909 Li1851 1.961 . S
O1909 C1858 1.325 . S
O1910 Li1848 1.961 . S
O1910 Li1850 1.956 . S
O1910 Li1851 1.970 . S
O1910 C1880 1.325 . S
O1911 Li1849 1.961 . S
O1911 Li1850 1.970 . S
O1911 Li1851 1.956 . S
O1911 C1886 1.325 . S
H1912 C1854 0.929 . S
H1913 C1855 0.930 . S
H1914 C1856 0.930 . S
H1915 C1857 0.930 . S
H1916 C1859 0.930 . S
H1917 C1861 0.929 . S
H1918 C1862 0.930 . S
H1919 C1863 0.930 . S
H1920 C1866 0.930 . S
H1921 C1869 0.929 . S
H1922 C1874 0.929 . S
H1923 C1875 0.930 . S
H1924 C1882 0.929 . S
H1925 C1883 0.930 . S
H1926 C1884 0.930 . S
H1927 C1885 0.930 . S
H1928 C1887 0.929 . S
H1929 C1888 0.930 . S
H1930 C1889 0.930 . S
H1931 C1890 0.930 . S
H1932 C1894 0.929 . S
H1933 C1896 0.930 . S
H1934 C1902 0.929 . S
H1935 C1903 0.930 . S
Li1936 N1953 1.990 . S
Li1936 O1996 1.956 . S
Li1936 O1997 1.970 . S
Li1936 O1998 1.961 . S
Li1937 N1961 1.990 . S
Li1937 O1996 1.970 . S
Li1937 O1997 1.956 . S
Li1937 O1999 1.961 . S
Li1938 N1983 1.990 . S
Li1938 O1996 1.961 . S
Li1938 O1998 1.956 . S
Li1938 O1999 1.970 . S
Li1939 N1989 1.990 . S
Li1939 O1997 1.961 . S
Li1939 O1998 1.970 . S
Li1939 O1999 1.956 . S
C1940 C1942 1.348 . S
C1940 C1943 1.356 . S
C1940 O1996 1.325 . S
N1941 C1944 1.314 . S
N1941 C1945 1.279 . S
C1942 C1940 1.348 . S
C1942 C1944 1.353 . S
C1942 H2000 0.929 . S
C1943 C1940 1.356 . S
C1943 C1945 1.358 . S
C1943 H2001 0.930 . S
C1944 N1941 1.314 . S
C1944 C1942 1.353 . S
C1944 H2002 0.930 . S
C1945 N1941 1.279 . S
C1945 C1943 1.358 . S
C1945 H2003 0.930 . S
C1946 C1949 1.348 . S
C1946 C1950 1.356 . S
C1946 O1997 1.325 . S
C1947 N1948 1.279 . S
C1947 C1950 1.358 . S
C1947 H2004 0.930 . S
N1948 C1947 1.279 . S
N1948 C1951 1.314 . S
C1949 C1946 1.348 . S
C1949 C1951 1.353 . S
C1949 H2005 0.929 . S
C1950 C1946 1.356 . S
C1950 C1947 1.358 . S
C1950 H2006 0.930 . S
C1951 N1948 1.314 . S
C1951 C1949 1.353 . S
C1951 H2007 0.930 . S
C1952 N1953 1.314 . S
C1952 C1957 1.353 . S
C1952 H1958 0.930 . S
N1953 Li1936 1.990 . S
N1953 C1952 1.314 . S
N1953 C1955 1.279 . S
C1954 C1955 1.358 . S
C1954 C1956 1.356 . S
C1954 H2008 0.930 . S
C1955 N1953 1.279 . S
C1955 C1954 1.358 . S
C1955 H1959 0.930 . S
C1956 C1954 1.356 . S
C1956 C1957 1.348 . S
C1957 C1952 1.353 . S
C1957 C1956 1.348 . S
C1957 H2009 0.929 . S
H1958 C1952 0.930 . S
H1959 C1955 0.930 . S
C1960 N1961 1.314 . S
C1960 C1962 1.353 . S
C1960 H1966 0.930 . S
N1961 Li1937 1.990 . S
N1961 C1960 1.314 . S
N1961 C1964 1.279 . S
C1962 C1960 1.353 . S
C1962 C1965 1.348 . S
C1962 H2010 0.929 . S
C1963 C1964 1.358 . S
C1963 C1965 1.356 . S
C1963 H2011 0.930 . S
C1964 N1961 1.279 . S
C1964 C1963 1.358 . S
C1964 H1967 0.930 . S
C1965 C1962 1.348 . S
C1965 C1963 1.356 . S
H1966 C1960 0.930 . S
H1967 C1964 0.930 . S
C1968 C1970 1.348 . S
C1968 C1971 1.356 . S
C1968 O1998 1.325 . S
N1969 C1972 1.314 . S
N1969 C1973 1.279 . S
C1970 C1968 1.348 . S
C1970 C1972 1.353 . S
C1970 H2012 0.929 . S
C1971 C1968 1.356 . S
C1971 C1973 1.358 . S
C1971 H2013 0.930 . S
C1972 N1969 1.314 . S
C1972 C1970 1.353 . S
C1972 H2014 0.930 . S
C1973 N1969 1.279 . S
C1973 C1971 1.358 . S
C1973 H2015 0.930 . S
C1974 C1975 1.348 . S
C1974 C1976 1.356 . S
C1974 O1999 1.325 . S
C1975 C1974 1.348 . S
C1975 C1977 1.353 . S
C1975 H2016 0.929 . S
C1976 C1974 1.356 . S
C1976 C1978 1.358 . S
C1976 H2017 0.930 . S
C1977 C1975 1.353 . S
C1977 N1979 1.314 . S
C1977 H2018 0.930 . S
C1978 C1976 1.358 . S
C1978 N1979 1.279 . S
C1978 H2019 0.930 . S
N1979 C1977 1.314 . S
N1979 C1978 1.279 . S
C1980 C1982 1.353 . S
C1980 N1983 1.314 . S
C1980 H1986 0.930 . S
C1981 N1983 1.279 . S
C1981 C1984 1.358 . S
C1981 H1987 0.930 . S
C1982 C1980 1.353 . S
C1982 C1985 1.348 . S
C1982 H2020 0.929 . S
N1983 Li1938 1.990 . S
N1983 C1980 1.314 . S
N1983 C1981 1.279 . S
C1984 C1981 1.358 . S
C1984 C1985 1.356 . S
C1984 H2021 0.930 . S
C1985 C1982 1.348 . S
C1985 C1984 1.356 . S
H1986 C1980 0.930 . S
H1987 C1981 0.930 . S
C1988 N1989 1.314 . S
C1988 C1990 1.353 . S
C1988 H1994 0.930 . S
N1989 Li1939 1.990 . S
N1989 C1988 1.314 . S
N1989 C1992 1.279 . S
C1990 C1988 1.353 . S
C1990 C1993 1.348 . S
C1990 H2022 0.929 . S
C1991 C1992 1.358 . S
C1991 C1993 1.356 . S
C1991 H2023 0.930 . S
C1992 N1989 1.279 . S
C1992 C1991 1.358 . S
C1992 H1995 0.930 . S
C1993 C1990 1.348 . S
C1993 C1991 1.356 . S
H1994 C1988 0.930 . S
H1995 C1992 0.930 . S
O1996 Li1936 1.956 . S
O1996 Li1937 1.970 . S
O1996 Li1938 1.961 . S
O1996 C1940 1.325 . S
O1997 Li1936 1.970 . S
O1997 Li1937 1.956 . S
O1997 Li1939 1.961 . S
O1997 C1946 1.325 . S
O1998 Li1936 1.961 . S
O1998 Li1938 1.956 . S
O1998 Li1939 1.970 . S
O1998 C1968 1.325 . S
O1999 Li1937 1.961 . S
O1999 Li1938 1.970 . S
O1999 Li1939 1.956 . S
O1999 C1974 1.325 . S
H2000 C1942 0.929 . S
H2001 C1943 0.930 . S
H2002 C1944 0.930 . S
H2003 C1945 0.930 . S
H2004 C1947 0.930 . S
H2005 C1949 0.929 . S
H2006 C1950 0.930 . S
H2007 C1951 0.930 . S
H2008 C1954 0.930 . S
H2009 C1957 0.929 . S
H2010 C1962 0.929 . S
H2011 C1963 0.930 . S
H2012 C1970 0.929 . S
H2013 C1971 0.930 . S
H2014 C1972 0.930 . S
H2015 C1973 0.930 . S
H2016 C1975 0.929 . S
H2017 C1976 0.930 . S
H2018 C1977 0.930 . S
H2019 C1978 0.930 . S
H2020 C1982 0.929 . S
H2021 C1984 0.930 . S
H2022 C1990 0.929 . S
H2023 C1991 0.930 . S
Li2024 N2041 1.990 . S
Li2024 O2084 1.956 . S
Li2024 O2085 1.970 . S
Li2024 O2086 1.961 . S
Li2025 N2049 1.990 . S
Li2025 O2084 1.970 . S
Li2025 O2085 1.956 . S
Li2025 O2087 1.961 . S
Li2026 N2071 1.990 . S
Li2026 O2084 1.961 . S
Li2026 O2086 1.956 . S
Li2026 O2087 1.970 . S
Li2027 N2077 1.990 . S
Li2027 O2085 1.961 . S
Li2027 O2086 1.970 . S
Li2027 O2087 1.956 . S
C2028 C2030 1.348 . S
C2028 C2031 1.356 . S
C2028 O2084 1.325 . S
N2029 C2032 1.314 . S
N2029 C2033 1.279 . S
C2030 C2028 1.348 . S
C2030 C2032 1.353 . S
C2030 H2088 0.929 . S
C2031 C2028 1.356 . S
C2031 C2033 1.358 . S
C2031 H2089 0.930 . S
C2032 N2029 1.314 . S
C2032 C2030 1.353 . S
C2032 H2090 0.930 . S
C2033 N2029 1.279 . S
C2033 C2031 1.358 . S
C2033 H2091 0.930 . S
C2034 C2037 1.348 . S
C2034 C2038 1.356 . S
C2034 O2085 1.325 . S
C2035 N2036 1.279 . S
C2035 C2038 1.358 . S
C2035 H2092 0.930 . S
N2036 C2035 1.279 . S
N2036 C2039 1.314 . S
C2037 C2034 1.348 . S
C2037 C2039 1.353 . S
C2037 H2093 0.929 . S
C2038 C2034 1.356 . S
C2038 C2035 1.358 . S
C2038 H2094 0.930 . S
C2039 N2036 1.314 . S
C2039 C2037 1.353 . S
C2039 H2095 0.930 . S
C2040 N2041 1.314 . S
C2040 C2045 1.353 . S
C2040 H2046 0.930 . S
N2041 Li2024 1.990 . S
N2041 C2040 1.314 . S
N2041 C2043 1.279 . S
C2042 C2043 1.358 . S
C2042 C2044 1.356 . S
C2042 H2096 0.930 . S
C2043 N2041 1.279 . S
C2043 C2042 1.358 . S
C2043 H2047 0.930 . S
C2044 C2042 1.356 . S
C2044 C2045 1.348 . S
C2045 C2040 1.353 . S
C2045 C2044 1.348 . S
C2045 H2097 0.929 . S
H2046 C2040 0.930 . S
H2047 C2043 0.930 . S
C2048 N2049 1.314 . S
C2048 C2050 1.353 . S
C2048 H2054 0.930 . S
N2049 Li2025 1.990 . S
N2049 C2048 1.314 . S
N2049 C2052 1.279 . S
C2050 C2048 1.353 . S
C2050 C2053 1.348 . S
C2050 H2098 0.929 . S
C2051 C2052 1.358 . S
C2051 C2053 1.356 . S
C2051 H2099 0.930 . S
C2052 N2049 1.279 . S
C2052 C2051 1.358 . S
C2052 H2055 0.930 . S
C2053 C2050 1.348 . S
C2053 C2051 1.356 . S
H2054 C2048 0.930 . S
H2055 C2052 0.930 . S
C2056 C2058 1.348 . S
C2056 C2059 1.356 . S
C2056 O2086 1.325 . S
N2057 C2060 1.314 . S
N2057 C2061 1.279 . S
C2058 C2056 1.348 . S
C2058 C2060 1.353 . S
C2058 H2100 0.929 . S
C2059 C2056 1.356 . S
C2059 C2061 1.358 . S
C2059 H2101 0.930 . S
C2060 N2057 1.314 . S
C2060 C2058 1.353 . S
C2060 H2102 0.930 . S
C2061 N2057 1.279 . S
C2061 C2059 1.358 . S
C2061 H2103 0.930 . S
C2062 C2063 1.348 . S
C2062 C2064 1.356 . S
C2062 O2087 1.325 . S
C2063 C2062 1.348 . S
C2063 C2065 1.353 . S
C2063 H2104 0.929 . S
C2064 C2062 1.356 . S
C2064 C2066 1.358 . S
C2064 H2105 0.930 . S
C2065 C2063 1.353 . S
C2065 N2067 1.314 . S
C2065 H2106 0.930 . S
C2066 C2064 1.358 . S
C2066 N2067 1.279 . S
C2066 H2107 0.930 . S
N2067 C2065 1.314 . S
N2067 C2066 1.279 . S
C2068 C2070 1.353 . S
C2068 N2071 1.314 . S
C2068 H2074 0.930 . S
C2069 N2071 1.279 . S
C2069 C2072 1.358 . S
C2069 H2075 0.930 . S
C2070 C2068 1.353 . S
C2070 C2073 1.348 . S
C2070 H2108 0.929 . S
N2071 Li2026 1.990 . S
N2071 C2068 1.314 . S
N2071 C2069 1.279 . S
C2072 C2069 1.358 . S
C2072 C2073 1.356 . S
C2072 H2109 0.930 . S
C2073 C2070 1.348 . S
C2073 C2072 1.356 . S
H2074 C2068 0.930 . S
H2075 C2069 0.930 . S
C2076 N2077 1.314 . S
C2076 C2078 1.353 . S
C2076 H2082 0.930 . S
N2077 Li2027 1.990 . S
N2077 C2076 1.314 . S
N2077 C2080 1.279 . S
C2078 C2076 1.353 . S
C2078 C2081 1.348 . S
C2078 H2110 0.929 . S
C2079 C2080 1.358 . S
C2079 C2081 1.356 . S
C2079 H2111 0.930 . S
C2080 N2077 1.279 . S
C2080 C2079 1.358 . S
C2080 H2083 0.930 . S
C2081 C2078 1.348 . S
C2081 C2079 1.356 . S
H2082 C2076 0.930 . S
H2083 C2080 0.930 . S
O2084 Li2024 1.956 . S
O2084 Li2025 1.970 . S
O2084 Li2026 1.961 . S
O2084 C2028 1.325 . S
O2085 Li2024 1.970 . S
O2085 Li2025 1.956 . S
O2085 Li2027 1.961 . S
O2085 C2034 1.325 . S
O2086 Li2024 1.961 . S
O2086 Li2026 1.956 . S
O2086 Li2027 1.970 . S
O2086 C2056 1.325 . S
O2087 Li2025 1.961 . S
O2087 Li2026 1.970 . S
O2087 Li2027 1.956 . S
O2087 C2062 1.325 . S
H2088 C2030 0.929 . S
H2089 C2031 0.930 . S
H2090 C2032 0.930 . S
H2091 C2033 0.930 . S
H2092 C2035 0.930 . S
H2093 C2037 0.929 . S
H2094 C2038 0.930 . S
H2095 C2039 0.930 . S
H2096 C2042 0.930 . S
H2097 C2045 0.929 . S
H2098 C2050 0.929 . S
H2099 C2051 0.930 . S
H2100 C2058 0.929 . S
H2101 C2059 0.930 . S
H2102 C2060 0.930 . S
H2103 C2061 0.930 . S
H2104 C2063 0.929 . S
H2105 C2064 0.930 . S
H2106 C2065 0.930 . S
H2107 C2066 0.930 . S
H2108 C2070 0.929 . S
H2109 C2072 0.930 . S
H2110 C2078 0.929 . S
H2111 C2079 0.930 . S
Li2112 N2129 1.990 . S
Li2112 O2172 1.956 . S
Li2112 O2173 1.970 . S
Li2112 O2174 1.961 . S
Li2113 N2137 1.990 . S
Li2113 O2172 1.970 . S
Li2113 O2173 1.956 . S
Li2113 O2175 1.961 . S
Li2114 N2159 1.990 . S
Li2114 O2172 1.961 . S
Li2114 O2174 1.956 . S
Li2114 O2175 1.970 . S
Li2115 N2165 1.990 . S
Li2115 O2173 1.961 . S
Li2115 O2174 1.970 . S
Li2115 O2175 1.956 . S
C2116 C2118 1.348 . S
C2116 C2119 1.356 . S
C2116 O2172 1.325 . S
N2117 C2120 1.314 . S
N2117 C2121 1.279 . S
C2118 C2116 1.348 . S
C2118 C2120 1.353 . S
C2118 H2176 0.929 . S
C2119 C2116 1.356 . S
C2119 C2121 1.358 . S
C2119 H2177 0.930 . S
C2120 N2117 1.314 . S
C2120 C2118 1.353 . S
C2120 H2178 0.930 . S
C2121 N2117 1.279 . S
C2121 C2119 1.358 . S
C2121 H2179 0.930 . S
C2122 C2125 1.348 . S
C2122 C2126 1.356 . S
C2122 O2173 1.325 . S
C2123 N2124 1.279 . S
C2123 C2126 1.358 . S
C2123 H2180 0.930 . S
N2124 C2123 1.279 . S
N2124 C2127 1.314 . S
C2125 C2122 1.348 . S
C2125 C2127 1.353 . S
C2125 H2181 0.929 . S
C2126 C2122 1.356 . S
C2126 C2123 1.358 . S
C2126 H2182 0.930 . S
C2127 N2124 1.314 . S
C2127 C2125 1.353 . S
C2127 H2183 0.930 . S
C2128 N2129 1.314 . S
C2128 C2133 1.353 . S
C2128 H2134 0.930 . S
N2129 Li2112 1.990 . S
N2129 C2128 1.314 . S
N2129 C2131 1.279 . S
C2130 C2131 1.358 . S
C2130 C2132 1.356 . S
C2130 H2184 0.930 . S
C2131 N2129 1.279 . S
C2131 C2130 1.358 . S
C2131 H2135 0.930 . S
C2132 C2130 1.356 . S
C2132 C2133 1.348 . S
C2133 C2128 1.353 . S
C2133 C2132 1.348 . S
C2133 H2185 0.929 . S
H2134 C2128 0.930 . S
H2135 C2131 0.930 . S
C2136 N2137 1.314 . S
C2136 C2138 1.353 . S
C2136 H2142 0.930 . S
N2137 Li2113 1.990 . S
N2137 C2136 1.314 . S
N2137 C2140 1.279 . S
C2138 C2136 1.353 . S
C2138 C2141 1.348 . S
C2138 H2186 0.929 . S
C2139 C2140 1.358 . S
C2139 C2141 1.356 . S
C2139 H2187 0.930 . S
C2140 N2137 1.279 . S
C2140 C2139 1.358 . S
C2140 H2143 0.930 . S
C2141 C2138 1.348 . S
C2141 C2139 1.356 . S
H2142 C2136 0.930 . S
H2143 C2140 0.930 . S
C2144 C2146 1.348 . S
C2144 C2147 1.356 . S
C2144 O2174 1.325 . S
N2145 C2148 1.314 . S
N2145 C2149 1.279 . S
C2146 C2144 1.348 . S
C2146 C2148 1.353 . S
C2146 H2188 0.929 . S
C2147 C2144 1.356 . S
C2147 C2149 1.358 . S
C2147 H2189 0.930 . S
C2148 N2145 1.314 . S
C2148 C2146 1.353 . S
C2148 H2190 0.930 . S
C2149 N2145 1.279 . S
C2149 C2147 1.358 . S
C2149 H2191 0.930 . S
C2150 C2151 1.348 . S
C2150 C2152 1.356 . S
C2150 O2175 1.325 . S
C2151 C2150 1.348 . S
C2151 C2153 1.353 . S
C2151 H2192 0.929 . S
C2152 C2150 1.356 . S
C2152 C2154 1.358 . S
C2152 H2193 0.930 . S
C2153 C2151 1.353 . S
C2153 N2155 1.314 . S
C2153 H2194 0.930 . S
C2154 C2152 1.358 . S
C2154 N2155 1.279 . S
C2154 H2195 0.930 . S
N2155 C2153 1.314 . S
N2155 C2154 1.279 . S
C2156 C2158 1.353 . S
C2156 N2159 1.314 . S
C2156 H2162 0.930 . S
C2157 N2159 1.279 . S
C2157 C2160 1.358 . S
C2157 H2163 0.930 . S
C2158 C2156 1.353 . S
C2158 C2161 1.348 . S
C2158 H2196 0.929 . S
N2159 Li2114 1.990 . S
N2159 C2156 1.314 . S
N2159 C2157 1.279 . S
C2160 C2157 1.358 . S
C2160 C2161 1.356 . S
C2160 H2197 0.930 . S
C2161 C2158 1.348 . S
C2161 C2160 1.356 . S
H2162 C2156 0.930 . S
H2163 C2157 0.930 . S
C2164 N2165 1.314 . S
C2164 C2166 1.353 . S
C2164 H2170 0.930 . S
N2165 Li2115 1.990 . S
N2165 C2164 1.314 . S
N2165 C2168 1.279 . S
C2166 C2164 1.353 . S
C2166 C2169 1.348 . S
C2166 H2198 0.929 . S
C2167 C2168 1.358 . S
C2167 C2169 1.356 . S
C2167 H2199 0.930 . S
C2168 N2165 1.279 . S
C2168 C2167 1.358 . S
C2168 H2171 0.930 . S
C2169 C2166 1.348 . S
C2169 C2167 1.356 . S
H2170 C2164 0.930 . S
H2171 C2168 0.930 . S
O2172 Li2112 1.956 . S
O2172 Li2113 1.970 . S
O2172 Li2114 1.961 . S
O2172 C2116 1.325 . S
O2173 Li2112 1.970 . S
O2173 Li2113 1.956 . S
O2173 Li2115 1.961 . S
O2173 C2122 1.325 . S
O2174 Li2112 1.961 . S
O2174 Li2114 1.956 . S
O2174 Li2115 1.970 . S
O2174 C2144 1.325 . S
O2175 Li2113 1.961 . S
O2175 Li2114 1.970 . S
O2175 Li2115 1.956 . S
O2175 C2150 1.325 . S
H2176 C2118 0.929 . S
H2177 C2119 0.930 . S
H2178 C2120 0.930 . S
H2179 C2121 0.930 . S
H2180 C2123 0.930 . S
H2181 C2125 0.929 . S
H2182 C2126 0.930 . S
H2183 C2127 0.930 . S
H2184 C2130 0.930 . S
H2185 C2133 0.929 . S
H2186 C2138 0.929 . S
H2187 C2139 0.930 . S
H2188 C2146 0.929 . S
H2189 C2147 0.930 . S
H2190 C2148 0.930 . S
H2191 C2149 0.930 . S
H2192 C2151 0.929 . S
H2193 C2152 0.930 . S
H2194 C2153 0.930 . S
H2195 C2154 0.930 . S
H2196 C2158 0.929 . S
H2197 C2160 0.930 . S
H2198 C2166 0.929 . S
H2199 C2167 0.930 . S
Li2200 N2217 1.990 . S
Li2200 O2260 1.956 . S
Li2200 O2261 1.970 . S
Li2200 O2262 1.961 . S
Li2201 N2225 1.990 . S
Li2201 O2260 1.970 . S
Li2201 O2261 1.956 . S
Li2201 O2263 1.961 . S
Li2202 N2247 1.990 . S
Li2202 O2260 1.961 . S
Li2202 O2262 1.956 . S
Li2202 O2263 1.970 . S
Li2203 N2253 1.990 . S
Li2203 O2261 1.961 . S
Li2203 O2262 1.970 . S
Li2203 O2263 1.956 . S
C2204 C2206 1.348 . S
C2204 C2207 1.356 . S
C2204 O2260 1.325 . S
N2205 C2208 1.314 . S
N2205 C2209 1.279 . S
C2206 C2204 1.348 . S
C2206 C2208 1.353 . S
C2206 H2264 0.929 . S
C2207 C2204 1.356 . S
C2207 C2209 1.358 . S
C2207 H2265 0.930 . S
C2208 N2205 1.314 . S
C2208 C2206 1.353 . S
C2208 H2266 0.930 . S
C2209 N2205 1.279 . S
C2209 C2207 1.358 . S
C2209 H2267 0.930 . S
C2210 C2213 1.348 . S
C2210 C2214 1.356 . S
C2210 O2261 1.325 . S
C2211 N2212 1.279 . S
C2211 C2214 1.358 . S
C2211 H2268 0.930 . S
N2212 C2211 1.279 . S
N2212 C2215 1.314 . S
C2213 C2210 1.348 . S
C2213 C2215 1.353 . S
C2213 H2269 0.929 . S
C2214 C2210 1.356 . S
C2214 C2211 1.358 . S
C2214 H2270 0.930 . S
C2215 N2212 1.314 . S
C2215 C2213 1.353 . S
C2215 H2271 0.930 . S
C2216 N2217 1.314 . S
C2216 C2221 1.353 . S
C2216 H2222 0.930 . S
N2217 Li2200 1.990 . S
N2217 C2216 1.314 . S
N2217 C2219 1.279 . S
C2218 C2219 1.358 . S
C2218 C2220 1.356 . S
C2218 H2272 0.930 . S
C2219 N2217 1.279 . S
C2219 C2218 1.358 . S
C2219 H2223 0.930 . S
C2220 C2218 1.356 . S
C2220 C2221 1.348 . S
C2221 C2216 1.353 . S
C2221 C2220 1.348 . S
C2221 H2273 0.929 . S
H2222 C2216 0.930 . S
H2223 C2219 0.930 . S
C2224 N2225 1.314 . S
C2224 C2226 1.353 . S
C2224 H2230 0.930 . S
N2225 Li2201 1.990 . S
N2225 C2224 1.314 . S
N2225 C2228 1.279 . S
C2226 C2224 1.353 . S
C2226 C2229 1.348 . S
C2226 H2274 0.929 . S
C2227 C2228 1.358 . S
C2227 C2229 1.356 . S
C2227 H2275 0.930 . S
C2228 N2225 1.279 . S
C2228 C2227 1.358 . S
C2228 H2231 0.930 . S
C2229 C2226 1.348 . S
C2229 C2227 1.356 . S
H2230 C2224 0.930 . S
H2231 C2228 0.930 . S
C2232 C2234 1.348 . S
C2232 C2235 1.356 . S
C2232 O2262 1.325 . S
N2233 C2236 1.314 . S
N2233 C2237 1.279 . S
C2234 C2232 1.348 . S
C2234 C2236 1.353 . S
C2234 H2276 0.929 . S
C2235 C2232 1.356 . S
C2235 C2237 1.358 . S
C2235 H2277 0.930 . S
C2236 N2233 1.314 . S
C2236 C2234 1.353 . S
C2236 H2278 0.930 . S
C2237 N2233 1.279 . S
C2237 C2235 1.358 . S
C2237 H2279 0.930 . S
C2238 C2239 1.348 . S
C2238 C2240 1.356 . S
C2238 O2263 1.325 . S
C2239 C2238 1.348 . S
C2239 C2241 1.353 . S
C2239 H2280 0.929 . S
C2240 C2238 1.356 . S
C2240 C2242 1.358 . S
C2240 H2281 0.930 . S
C2241 C2239 1.353 . S
C2241 N2243 1.314 . S
C2241 H2282 0.930 . S
C2242 C2240 1.358 . S
C2242 N2243 1.279 . S
C2242 H2283 0.930 . S
N2243 C2241 1.314 . S
N2243 C2242 1.279 . S
C2244 C2246 1.353 . S
C2244 N2247 1.314 . S
C2244 H2250 0.930 . S
C2245 N2247 1.279 . S
C2245 C2248 1.358 . S
C2245 H2251 0.930 . S
C2246 C2244 1.353 . S
C2246 C2249 1.348 . S
C2246 H2284 0.929 . S
N2247 Li2202 1.990 . S
N2247 C2244 1.314 . S
N2247 C2245 1.279 . S
C2248 C2245 1.358 . S
C2248 C2249 1.356 . S
C2248 H2285 0.930 . S
C2249 C2246 1.348 . S
C2249 C2248 1.356 . S
H2250 C2244 0.930 . S
H2251 C2245 0.930 . S
C2252 N2253 1.314 . S
C2252 C2254 1.353 . S
C2252 H2258 0.930 . S
N2253 Li2203 1.990 . S
N2253 C2252 1.314 . S
N2253 C2256 1.279 . S
C2254 C2252 1.353 . S
C2254 C2257 1.348 . S
C2254 H2286 0.929 . S
C2255 C2256 1.358 . S
C2255 C2257 1.356 . S
C2255 H2287 0.930 . S
C2256 N2253 1.279 . S
C2256 C2255 1.358 . S
C2256 H2259 0.930 . S
C2257 C2254 1.348 . S
C2257 C2255 1.356 . S
H2258 C2252 0.930 . S
H2259 C2256 0.930 . S
O2260 Li2200 1.956 . S
O2260 Li2201 1.970 . S
O2260 Li2202 1.961 . S
O2260 C2204 1.325 . S
O2261 Li2200 1.970 . S
O2261 Li2201 1.956 . S
O2261 Li2203 1.961 . S
O2261 C2210 1.325 . S
O2262 Li2200 1.961 . S
O2262 Li2202 1.956 . S
O2262 Li2203 1.970 . S
O2262 C2232 1.325 . S
O2263 Li2201 1.961 . S
O2263 Li2202 1.970 . S
O2263 Li2203 1.956 . S
O2263 C2238 1.325 . S
H2264 C2206 0.929 . S
H2265 C2207 0.930 . S
H2266 C2208 0.930 . S
H2267 C2209 0.930 . S
H2268 C2211 0.930 . S
H2269 C2213 0.929 . S
H2270 C2214 0.930 . S
H2271 C2215 0.930 . S
H2272 C2218 0.930 . S
H2273 C2221 0.929 . S
H2274 C2226 0.929 . S
H2275 C2227 0.930 . S
H2276 C2234 0.929 . S
H2277 C2235 0.930 . S
H2278 C2236 0.930 . S
H2279 C2237 0.930 . S
H2280 C2239 0.929 . S
H2281 C2240 0.930 . S
H2282 C2241 0.930 . S
H2283 C2242 0.930 . S
H2284 C2246 0.929 . S
H2285 C2248 0.930 . S
H2286 C2254 0.929 . S
H2287 C2255 0.930 . S
Li2288 N2305 1.990 . S
Li2288 O2348 1.956 . S
Li2288 O2349 1.970 . S
Li2288 O2350 1.961 . S
Li2289 N2313 1.990 . S
Li2289 O2348 1.970 . S
Li2289 O2349 1.956 . S
Li2289 O2351 1.961 . S
Li2290 N2335 1.990 . S
Li2290 O2348 1.961 . S
Li2290 O2350 1.956 . S
Li2290 O2351 1.970 . S
Li2291 N2341 1.990 . S
Li2291 O2349 1.961 . S
Li2291 O2350 1.970 . S
Li2291 O2351 1.956 . S
C2292 C2294 1.348 . S
C2292 C2295 1.356 . S
C2292 O2348 1.325 . S
N2293 C2296 1.314 . S
N2293 C2297 1.279 . S
C2294 C2292 1.348 . S
C2294 C2296 1.353 . S
C2294 H2352 0.929 . S
C2295 C2292 1.356 . S
C2295 C2297 1.358 . S
C2295 H2353 0.930 . S
C2296 N2293 1.314 . S
C2296 C2294 1.353 . S
C2296 H2354 0.930 . S
C2297 N2293 1.279 . S
C2297 C2295 1.358 . S
C2297 H2355 0.930 . S
C2298 C2301 1.348 . S
C2298 C2302 1.356 . S
C2298 O2349 1.325 . S
C2299 N2300 1.279 . S
C2299 C2302 1.358 . S
C2299 H2356 0.930 . S
N2300 C2299 1.279 . S
N2300 C2303 1.314 . S
C2301 C2298 1.348 . S
C2301 C2303 1.353 . S
C2301 H2357 0.929 . S
C2302 C2298 1.356 . S
C2302 C2299 1.358 . S
C2302 H2358 0.930 . S
C2303 N2300 1.314 . S
C2303 C2301 1.353 . S
C2303 H2359 0.930 . S
C2304 N2305 1.314 . S
C2304 C2309 1.353 . S
C2304 H2310 0.930 . S
N2305 Li2288 1.990 . S
N2305 C2304 1.314 . S
N2305 C2307 1.279 . S
C2306 C2307 1.358 . S
C2306 C2308 1.356 . S
C2306 H2360 0.930 . S
C2307 N2305 1.279 . S
C2307 C2306 1.358 . S
C2307 H2311 0.930 . S
C2308 C2306 1.356 . S
C2308 C2309 1.348 . S
C2309 C2304 1.353 . S
C2309 C2308 1.348 . S
C2309 H2361 0.929 . S
H2310 C2304 0.930 . S
H2311 C2307 0.930 . S
C2312 N2313 1.314 . S
C2312 C2314 1.353 . S
C2312 H2318 0.930 . S
N2313 Li2289 1.990 . S
N2313 C2312 1.314 . S
N2313 C2316 1.279 . S
C2314 C2312 1.353 . S
C2314 C2317 1.348 . S
C2314 H2362 0.929 . S
C2315 C2316 1.358 . S
C2315 C2317 1.356 . S
C2315 H2363 0.930 . S
C2316 N2313 1.279 . S
C2316 C2315 1.358 . S
C2316 H2319 0.930 . S
C2317 C2314 1.348 . S
C2317 C2315 1.356 . S
H2318 C2312 0.930 . S
H2319 C2316 0.930 . S
C2320 C2322 1.348 . S
C2320 C2323 1.356 . S
C2320 O2350 1.325 . S
N2321 C2324 1.314 . S
N2321 C2325 1.279 . S
C2322 C2320 1.348 . S
C2322 C2324 1.353 . S
C2322 H2364 0.929 . S
C2323 C2320 1.356 . S
C2323 C2325 1.358 . S
C2323 H2365 0.930 . S
C2324 N2321 1.314 . S
C2324 C2322 1.353 . S
C2324 H2366 0.930 . S
C2325 N2321 1.279 . S
C2325 C2323 1.358 . S
C2325 H2367 0.930 . S
C2326 C2327 1.348 . S
C2326 C2328 1.356 . S
C2326 O2351 1.325 . S
C2327 C2326 1.348 . S
C2327 C2329 1.353 . S
C2327 H2368 0.929 . S
C2328 C2326 1.356 . S
C2328 C2330 1.358 . S
C2328 H2369 0.930 . S
C2329 C2327 1.353 . S
C2329 N2331 1.314 . S
C2329 H2370 0.930 . S
C2330 C2328 1.358 . S
C2330 N2331 1.279 . S
C2330 H2371 0.930 . S
N2331 C2329 1.314 . S
N2331 C2330 1.279 . S
C2332 C2334 1.353 . S
C2332 N2335 1.314 . S
C2332 H2338 0.930 . S
C2333 N2335 1.279 . S
C2333 C2336 1.358 . S
C2333 H2339 0.930 . S
C2334 C2332 1.353 . S
C2334 C2337 1.348 . S
C2334 H2372 0.929 . S
N2335 Li2290 1.990 . S
N2335 C2332 1.314 . S
N2335 C2333 1.279 . S
C2336 C2333 1.358 . S
C2336 C2337 1.356 . S
C2336 H2373 0.930 . S
C2337 C2334 1.348 . S
C2337 C2336 1.356 . S
H2338 C2332 0.930 . S
H2339 C2333 0.930 . S
C2340 N2341 1.314 . S
C2340 C2342 1.353 . S
C2340 H2346 0.930 . S
N2341 Li2291 1.990 . S
N2341 C2340 1.314 . S
N2341 C2344 1.279 . S
C2342 C2340 1.353 . S
C2342 C2345 1.348 . S
C2342 H2374 0.929 . S
C2343 C2344 1.358 . S
C2343 C2345 1.356 . S
C2343 H2375 0.930 . S
C2344 N2341 1.279 . S
C2344 C2343 1.358 . S
C2344 H2347 0.930 . S
C2345 C2342 1.348 . S
C2345 C2343 1.356 . S
H2346 C2340 0.930 . S
H2347 C2344 0.930 . S
O2348 Li2288 1.956 . S
O2348 Li2289 1.970 . S
O2348 Li2290 1.961 . S
O2348 C2292 1.325 . S
O2349 Li2288 1.970 . S
O2349 Li2289 1.956 . S
O2349 Li2291 1.961 . S
O2349 C2298 1.325 . S
O2350 Li2288 1.961 . S
O2350 Li2290 1.956 . S
O2350 Li2291 1.970 . S
O2350 C2320 1.325 . S
O2351 Li2289 1.961 . S
O2351 Li2290 1.970 . S
O2351 Li2291 1.956 . S
O2351 C2326 1.325 . S
H2352 C2294 0.929 . S
H2353 C2295 0.930 . S
H2354 C2296 0.930 . S
H2355 C2297 0.930 . S
H2356 C2299 0.930 . S
H2357 C2301 0.929 . S
H2358 C2302 0.930 . S
H2359 C2303 0.930 . S
H2360 C2306 0.930 . S
H2361 C2309 0.929 . S
H2362 C2314 0.929 . S
H2363 C2315 0.930 . S
H2364 C2322 0.929 . S
H2365 C2323 0.930 . S
H2366 C2324 0.930 . S
H2367 C2325 0.930 . S
H2368 C2327 0.929 . S
H2369 C2328 0.930 . S
H2370 C2329 0.930 . S
H2371 C2330 0.930 . S
H2372 C2334 0.929 . S
H2373 C2336 0.930 . S
H2374 C2342 0.929 . S
H2375 C2343 0.930 . S
Li2376 N2393 1.990 . S
Li2376 O2436 1.956 . S
Li2376 O2437 1.970 . S
Li2376 O2438 1.961 . S
Li2377 N2401 1.990 . S
Li2377 O2436 1.970 . S
Li2377 O2437 1.956 . S
Li2377 O2439 1.961 . S
Li2378 N2423 1.990 . S
Li2378 O2436 1.961 . S
Li2378 O2438 1.956 . S
Li2378 O2439 1.970 . S
Li2379 N2429 1.990 . S
Li2379 O2437 1.961 . S
Li2379 O2438 1.970 . S
Li2379 O2439 1.956 . S
C2380 C2382 1.348 . S
C2380 C2383 1.356 . S
C2380 O2436 1.325 . S
N2381 C2384 1.314 . S
N2381 C2385 1.279 . S
C2382 C2380 1.348 . S
C2382 C2384 1.353 . S
C2382 H2440 0.929 . S
C2383 C2380 1.356 . S
C2383 C2385 1.358 . S
C2383 H2441 0.930 . S
C2384 N2381 1.314 . S
C2384 C2382 1.353 . S
C2384 H2442 0.930 . S
C2385 N2381 1.279 . S
C2385 C2383 1.358 . S
C2385 H2443 0.930 . S
C2386 C2389 1.348 . S
C2386 C2390 1.356 . S
C2386 O2437 1.325 . S
C2387 N2388 1.279 . S
C2387 C2390 1.358 . S
C2387 H2444 0.930 . S
N2388 C2387 1.279 . S
N2388 C2391 1.314 . S
C2389 C2386 1.348 . S
C2389 C2391 1.353 . S
C2389 H2445 0.929 . S
C2390 C2386 1.356 . S
C2390 C2387 1.358 . S
C2390 H2446 0.930 . S
C2391 N2388 1.314 . S
C2391 C2389 1.353 . S
C2391 H2447 0.930 . S
C2392 N2393 1.314 . S
C2392 C2397 1.353 . S
C2392 H2398 0.930 . S
N2393 Li2376 1.990 . S
N2393 C2392 1.314 . S
N2393 C2395 1.279 . S
C2394 C2395 1.358 . S
C2394 C2396 1.356 . S
C2394 H2448 0.930 . S
C2395 N2393 1.279 . S
C2395 C2394 1.358 . S
C2395 H2399 0.930 . S
C2396 C2394 1.356 . S
C2396 C2397 1.348 . S
C2397 C2392 1.353 . S
C2397 C2396 1.348 . S
C2397 H2449 0.929 . S
H2398 C2392 0.930 . S
H2399 C2395 0.930 . S
C2400 N2401 1.314 . S
C2400 C2402 1.353 . S
C2400 H2406 0.930 . S
N2401 Li2377 1.990 . S
N2401 C2400 1.314 . S
N2401 C2404 1.279 . S
C2402 C2400 1.353 . S
C2402 C2405 1.348 . S
C2402 H2450 0.929 . S
C2403 C2404 1.358 . S
C2403 C2405 1.356 . S
C2403 H2451 0.930 . S
C2404 N2401 1.279 . S
C2404 C2403 1.358 . S
C2404 H2407 0.930 . S
C2405 C2402 1.348 . S
C2405 C2403 1.356 . S
H2406 C2400 0.930 . S
H2407 C2404 0.930 . S
C2408 C2410 1.348 . S
C2408 C2411 1.356 . S
C2408 O2438 1.325 . S
N2409 C2412 1.314 . S
N2409 C2413 1.279 . S
C2410 C2408 1.348 . S
C2410 C2412 1.353 . S
C2410 H2452 0.929 . S
C2411 C2408 1.356 . S
C2411 C2413 1.358 . S
C2411 H2453 0.930 . S
C2412 N2409 1.314 . S
C2412 C2410 1.353 . S
C2412 H2454 0.930 . S
C2413 N2409 1.279 . S
C2413 C2411 1.358 . S
C2413 H2455 0.930 . S
C2414 C2415 1.348 . S
C2414 C2416 1.356 . S
C2414 O2439 1.325 . S
C2415 C2414 1.348 . S
C2415 C2417 1.353 . S
C2415 H2456 0.929 . S
C2416 C2414 1.356 . S
C2416 C2418 1.358 . S
C2416 H2457 0.930 . S
C2417 C2415 1.353 . S
C2417 N2419 1.314 . S
C2417 H2458 0.930 . S
C2418 C2416 1.358 . S
C2418 N2419 1.279 . S
C2418 H2459 0.930 . S
N2419 C2417 1.314 . S
N2419 C2418 1.279 . S
C2420 C2422 1.353 . S
C2420 N2423 1.314 . S
C2420 H2426 0.930 . S
C2421 N2423 1.279 . S
C2421 C2424 1.358 . S
C2421 H2427 0.930 . S
C2422 C2420 1.353 . S
C2422 C2425 1.348 . S
C2422 H2460 0.929 . S
N2423 Li2378 1.990 . S
N2423 C2420 1.314 . S
N2423 C2421 1.279 . S
C2424 C2421 1.358 . S
C2424 C2425 1.356 . S
C2424 H2461 0.930 . S
C2425 C2422 1.348 . S
C2425 C2424 1.356 . S
H2426 C2420 0.930 . S
H2427 C2421 0.930 . S
C2428 N2429 1.314 . S
C2428 C2430 1.353 . S
C2428 H2434 0.930 . S
N2429 Li2379 1.990 . S
N2429 C2428 1.314 . S
N2429 C2432 1.279 . S
C2430 C2428 1.353 . S
C2430 C2433 1.348 . S
C2430 H2462 0.929 . S
C2431 C2432 1.358 . S
C2431 C2433 1.356 . S
C2431 H2463 0.930 . S
C2432 N2429 1.279 . S
C2432 C2431 1.358 . S
C2432 H2435 0.930 . S
C2433 C2430 1.348 . S
C2433 C2431 1.356 . S
H2434 C2428 0.930 . S
H2435 C2432 0.930 . S
O2436 Li2376 1.956 . S
O2436 Li2377 1.970 . S
O2436 Li2378 1.961 . S
O2436 C2380 1.325 . S
O2437 Li2376 1.970 . S
O2437 Li2377 1.956 . S
O2437 Li2379 1.961 . S
O2437 C2386 1.325 . S
O2438 Li2376 1.961 . S
O2438 Li2378 1.956 . S
O2438 Li2379 1.970 . S
O2438 C2408 1.325 . S
O2439 Li2377 1.961 . S
O2439 Li2378 1.970 . S
O2439 Li2379 1.956 . S
O2439 C2414 1.325 . S
H2440 C2382 0.929 . S
H2441 C2383 0.930 . S
H2442 C2384 0.930 . S
H2443 C2385 0.930 . S
H2444 C2387 0.930 . S
H2445 C2389 0.929 . S
H2446 C2390 0.930 . S
H2447 C2391 0.930 . S
H2448 C2394 0.930 . S
H2449 C2397 0.929 . S
H2450 C2402 0.929 . S
H2451 C2403 0.930 . S
H2452 C2410 0.929 . S
H2453 C2411 0.930 . S
H2454 C2412 0.930 . S
H2455 C2413 0.930 . S
H2456 C2415 0.929 . S
H2457 C2416 0.930 . S
H2458 C2417 0.930 . S
H2459 C2418 0.930 . S
H2460 C2422 0.929 . S
H2461 C2424 0.930 . S
H2462 C2430 0.929 . S
H2463 C2431 0.930 . S
Li2464 N2481 1.990 . S
Li2464 O2524 1.956 . S
Li2464 O2525 1.970 . S
Li2464 O2526 1.961 . S
Li2465 N2489 1.990 . S
Li2465 O2524 1.970 . S
Li2465 O2525 1.956 . S
Li2465 O2527 1.961 . S
Li2466 N2511 1.990 . S
Li2466 O2524 1.961 . S
Li2466 O2526 1.956 . S
Li2466 O2527 1.970 . S
Li2467 N2517 1.990 . S
Li2467 O2525 1.961 . S
Li2467 O2526 1.970 . S
Li2467 O2527 1.956 . S
C2468 C2470 1.348 . S
C2468 C2471 1.356 . S
C2468 O2524 1.325 . S
N2469 C2472 1.314 . S
N2469 C2473 1.279 . S
C2470 C2468 1.348 . S
C2470 C2472 1.353 . S
C2470 H2528 0.929 . S
C2471 C2468 1.356 . S
C2471 C2473 1.358 . S
C2471 H2529 0.930 . S
C2472 N2469 1.314 . S
C2472 C2470 1.353 . S
C2472 H2530 0.930 . S
C2473 N2469 1.279 . S
C2473 C2471 1.358 . S
C2473 H2531 0.930 . S
C2474 C2477 1.348 . S
C2474 C2478 1.356 . S
C2474 O2525 1.325 . S
C2475 N2476 1.279 . S
C2475 C2478 1.358 . S
C2475 H2532 0.930 . S
N2476 C2475 1.279 . S
N2476 C2479 1.314 . S
C2477 C2474 1.348 . S
C2477 C2479 1.353 . S
C2477 H2533 0.929 . S
C2478 C2474 1.356 . S
C2478 C2475 1.358 . S
C2478 H2534 0.930 . S
C2479 N2476 1.314 . S
C2479 C2477 1.353 . S
C2479 H2535 0.930 . S
C2480 N2481 1.314 . S
C2480 C2485 1.353 . S
C2480 H2486 0.930 . S
N2481 Li2464 1.990 . S
N2481 C2480 1.314 . S
N2481 C2483 1.279 . S
C2482 C2483 1.358 . S
C2482 C2484 1.356 . S
C2482 H2536 0.930 . S
C2483 N2481 1.279 . S
C2483 C2482 1.358 . S
C2483 H2487 0.930 . S
C2484 C2482 1.356 . S
C2484 C2485 1.348 . S
C2485 C2480 1.353 . S
C2485 C2484 1.348 . S
C2485 H2537 0.929 . S
H2486 C2480 0.930 . S
H2487 C2483 0.930 . S
C2488 N2489 1.314 . S
C2488 C2490 1.353 . S
C2488 H2494 0.930 . S
N2489 Li2465 1.990 . S
N2489 C2488 1.314 . S
N2489 C2492 1.279 . S
C2490 C2488 1.353 . S
C2490 C2493 1.348 . S
C2490 H2538 0.929 . S
C2491 C2492 1.358 . S
C2491 C2493 1.356 . S
C2491 H2539 0.930 . S
C2492 N2489 1.279 . S
C2492 C2491 1.358 . S
C2492 H2495 0.930 . S
C2493 C2490 1.348 . S
C2493 C2491 1.356 . S
H2494 C2488 0.930 . S
H2495 C2492 0.930 . S
C2496 C2498 1.348 . S
C2496 C2499 1.356 . S
C2496 O2526 1.325 . S
N2497 C2500 1.314 . S
N2497 C2501 1.279 . S
C2498 C2496 1.348 . S
C2498 C2500 1.353 . S
C2498 H2540 0.929 . S
C2499 C2496 1.356 . S
C2499 C2501 1.358 . S
C2499 H2541 0.930 . S
C2500 N2497 1.314 . S
C2500 C2498 1.353 . S
C2500 H2542 0.930 . S
C2501 N2497 1.279 . S
C2501 C2499 1.358 . S
C2501 H2543 0.930 . S
C2502 C2503 1.348 . S
C2502 C2504 1.356 . S
C2502 O2527 1.325 . S
C2503 C2502 1.348 . S
C2503 C2505 1.353 . S
C2503 H2544 0.929 . S
C2504 C2502 1.356 . S
C2504 C2506 1.358 . S
C2504 H2545 0.930 . S
C2505 C2503 1.353 . S
C2505 N2507 1.314 . S
C2505 H2546 0.930 . S
C2506 C2504 1.358 . S
C2506 N2507 1.279 . S
C2506 H2547 0.930 . S
N2507 C2505 1.314 . S
N2507 C2506 1.279 . S
C2508 C2510 1.353 . S
C2508 N2511 1.314 . S
C2508 H2514 0.930 . S
C2509 N2511 1.279 . S
C2509 C2512 1.358 . S
C2509 H2515 0.930 . S
C2510 C2508 1.353 . S
C2510 C2513 1.348 . S
C2510 H2548 0.929 . S
N2511 Li2466 1.990 . S
N2511 C2508 1.314 . S
N2511 C2509 1.279 . S
C2512 C2509 1.358 . S
C2512 C2513 1.356 . S
C2512 H2549 0.930 . S
C2513 C2510 1.348 . S
C2513 C2512 1.356 . S
H2514 C2508 0.930 . S
H2515 C2509 0.930 . S
C2516 N2517 1.314 . S
C2516 C2518 1.353 . S
C2516 H2522 0.930 . S
N2517 Li2467 1.990 . S
N2517 C2516 1.314 . S
N2517 C2520 1.279 . S
C2518 C2516 1.353 . S
C2518 C2521 1.348 . S
C2518 H2550 0.929 . S
C2519 C2520 1.358 . S
C2519 C2521 1.356 . S
C2519 H2551 0.930 . S
C2520 N2517 1.279 . S
C2520 C2519 1.358 . S
C2520 H2523 0.930 . S
C2521 C2518 1.348 . S
C2521 C2519 1.356 . S
H2522 C2516 0.930 . S
H2523 C2520 0.930 . S
O2524 Li2464 1.956 . S
O2524 Li2465 1.970 . S
O2524 Li2466 1.961 . S
O2524 C2468 1.325 . S
O2525 Li2464 1.970 . S
O2525 Li2465 1.956 . S
O2525 Li2467 1.961 . S
O2525 C2474 1.325 . S
O2526 Li2464 1.961 . S
O2526 Li2466 1.956 . S
O2526 Li2467 1.970 . S
O2526 C2496 1.325 . S
O2527 Li2465 1.961 . S
O2527 Li2466 1.970 . S
O2527 Li2467 1.956 . S
O2527 C2502 1.325 . S
H2528 C2470 0.929 . S
H2529 C2471 0.930 . S
H2530 C2472 0.930 . S
H2531 C2473 0.930 . S
H2532 C2475 0.930 . S
H2533 C2477 0.929 . S
H2534 C2478 0.930 . S
H2535 C2479 0.930 . S
H2536 C2482 0.930 . S
H2537 C2485 0.929 . S
H2538 C2490 0.929 . S
H2539 C2491 0.930 . S
H2540 C2498 0.929 . S
H2541 C2499 0.930 . S
H2542 C2500 0.930 . S
H2543 C2501 0.930 . S
H2544 C2503 0.929 . S
H2545 C2504 0.930 . S
H2546 C2505 0.930 . S
H2547 C2506 0.930 . S
H2548 C2510 0.929 . S
H2549 C2512 0.930 . S
H2550 C2518 0.929 . S
H2551 C2519 0.930 . S
Li2552 N2569 1.990 . S
Li2552 O2612 1.956 . S
Li2552 O2613 1.970 . S
Li2552 O2614 1.961 . S
Li2553 N2577 1.990 . S
Li2553 O2612 1.970 . S
Li2553 O2613 1.956 . S
Li2553 O2615 1.961 . S
Li2554 N2599 1.990 . S
Li2554 O2612 1.961 . S
Li2554 O2614 1.956 . S
Li2554 O2615 1.970 . S
Li2555 N2605 1.990 . S
Li2555 O2613 1.961 . S
Li2555 O2614 1.970 . S
Li2555 O2615 1.956 . S
C2556 C2558 1.348 . S
C2556 C2559 1.356 . S
C2556 O2612 1.325 . S
N2557 C2560 1.314 . S
N2557 C2561 1.279 . S
C2558 C2556 1.348 . S
C2558 C2560 1.353 . S
C2558 H2616 0.929 . S
C2559 C2556 1.356 . S
C2559 C2561 1.358 . S
C2559 H2617 0.930 . S
C2560 N2557 1.314 . S
C2560 C2558 1.353 . S
C2560 H2618 0.930 . S
C2561 N2557 1.279 . S
C2561 C2559 1.358 . S
C2561 H2619 0.930 . S
C2562 C2565 1.348 . S
C2562 C2566 1.356 . S
C2562 O2613 1.325 . S
C2563 N2564 1.279 . S
C2563 C2566 1.358 . S
C2563 H2620 0.930 . S
N2564 C2563 1.279 . S
N2564 C2567 1.314 . S
C2565 C2562 1.348 . S
C2565 C2567 1.353 . S
C2565 H2621 0.929 . S
C2566 C2562 1.356 . S
C2566 C2563 1.358 . S
C2566 H2622 0.930 . S
C2567 N2564 1.314 . S
C2567 C2565 1.353 . S
C2567 H2623 0.930 . S
C2568 N2569 1.314 . S
C2568 C2573 1.353 . S
C2568 H2574 0.930 . S
N2569 Li2552 1.990 . S
N2569 C2568 1.314 . S
N2569 C2571 1.279 . S
C2570 C2571 1.358 . S
C2570 C2572 1.356 . S
C2570 H2624 0.930 . S
C2571 N2569 1.279 . S
C2571 C2570 1.358 . S
C2571 H2575 0.930 . S
C2572 C2570 1.356 . S
C2572 C2573 1.348 . S
C2573 C2568 1.353 . S
C2573 C2572 1.348 . S
C2573 H2625 0.929 . S
H2574 C2568 0.930 . S
H2575 C2571 0.930 . S
C2576 N2577 1.314 . S
C2576 C2578 1.353 . S
C2576 H2582 0.930 . S
N2577 Li2553 1.990 . S
N2577 C2576 1.314 . S
N2577 C2580 1.279 . S
C2578 C2576 1.353 . S
C2578 C2581 1.348 . S
C2578 H2626 0.929 . S
C2579 C2580 1.358 . S
C2579 C2581 1.356 . S
C2579 H2627 0.930 . S
C2580 N2577 1.279 . S
C2580 C2579 1.358 . S
C2580 H2583 0.930 . S
C2581 C2578 1.348 . S
C2581 C2579 1.356 . S
H2582 C2576 0.930 . S
H2583 C2580 0.930 . S
C2584 C2586 1.348 . S
C2584 C2587 1.356 . S
C2584 O2614 1.325 . S
N2585 C2588 1.314 . S
N2585 C2589 1.279 . S
C2586 C2584 1.348 . S
C2586 C2588 1.353 . S
C2586 H2628 0.929 . S
C2587 C2584 1.356 . S
C2587 C2589 1.358 . S
C2587 H2629 0.930 . S
C2588 N2585 1.314 . S
C2588 C2586 1.353 . S
C2588 H2630 0.930 . S
C2589 N2585 1.279 . S
C2589 C2587 1.358 . S
C2589 H2631 0.930 . S
C2590 C2591 1.348 . S
C2590 C2592 1.356 . S
C2590 O2615 1.325 . S
C2591 C2590 1.348 . S
C2591 C2593 1.353 . S
C2591 H2632 0.929 . S
C2592 C2590 1.356 . S
C2592 C2594 1.358 . S
C2592 H2633 0.930 . S
C2593 C2591 1.353 . S
C2593 N2595 1.314 . S
C2593 H2634 0.930 . S
C2594 C2592 1.358 . S
C2594 N2595 1.279 . S
C2594 H2635 0.930 . S
N2595 C2593 1.314 . S
N2595 C2594 1.279 . S
C2596 C2598 1.353 . S
C2596 N2599 1.314 . S
C2596 H2602 0.930 . S
C2597 N2599 1.279 . S
C2597 C2600 1.358 . S
C2597 H2603 0.930 . S
C2598 C2596 1.353 . S
C2598 C2601 1.348 . S
C2598 H2636 0.929 . S
N2599 Li2554 1.990 . S
N2599 C2596 1.314 . S
N2599 C2597 1.279 . S
C2600 C2597 1.358 . S
C2600 C2601 1.356 . S
C2600 H2637 0.930 . S
C2601 C2598 1.348 . S
C2601 C2600 1.356 . S
H2602 C2596 0.930 . S
H2603 C2597 0.930 . S
C2604 N2605 1.314 . S
C2604 C2606 1.353 . S
C2604 H2610 0.930 . S
N2605 Li2555 1.990 . S
N2605 C2604 1.314 . S
N2605 C2608 1.279 . S
C2606 C2604 1.353 . S
C2606 C2609 1.348 . S
C2606 H2638 0.929 . S
C2607 C2608 1.358 . S
C2607 C2609 1.356 . S
C2607 H2639 0.930 . S
C2608 N2605 1.279 . S
C2608 C2607 1.358 . S
C2608 H2611 0.930 . S
C2609 C2606 1.348 . S
C2609 C2607 1.356 . S
H2610 C2604 0.930 . S
H2611 C2608 0.930 . S
O2612 Li2552 1.956 . S
O2612 Li2553 1.970 . S
O2612 Li2554 1.961 . S
O2612 C2556 1.325 . S
O2613 Li2552 1.970 . S
O2613 Li2553 1.956 . S
O2613 Li2555 1.961 . S
O2613 C2562 1.325 . S
O2614 Li2552 1.961 . S
O2614 Li2554 1.956 . S
O2614 Li2555 1.970 . S
O2614 C2584 1.325 . S
O2615 Li2553 1.961 . S
O2615 Li2554 1.970 . S
O2615 Li2555 1.956 . S
O2615 C2590 1.325 . S
H2616 C2558 0.929 . S
H2617 C2559 0.930 . S
H2618 C2560 0.930 . S
H2619 C2561 0.930 . S
H2620 C2563 0.930 . S
H2621 C2565 0.929 . S
H2622 C2566 0.930 . S
H2623 C2567 0.930 . S
H2624 C2570 0.930 . S
H2625 C2573 0.929 . S
H2626 C2578 0.929 . S
H2627 C2579 0.930 . S
H2628 C2586 0.929 . S
H2629 C2587 0.930 . S
H2630 C2588 0.930 . S
H2631 C2589 0.930 . S
H2632 C2591 0.929 . S
H2633 C2592 0.930 . S
H2634 C2593 0.930 . S
H2635 C2594 0.930 . S
H2636 C2598 0.929 . S
H2637 C2600 0.930 . S
H2638 C2606 0.929 . S
H2639 C2607 0.930 . S
Li2640 N2657 1.990 . S
Li2640 O2700 1.956 . S
Li2640 O2701 1.970 . S
Li2640 O2702 1.961 . S
Li2641 N2665 1.990 . S
Li2641 O2700 1.970 . S
Li2641 O2701 1.956 . S
Li2641 O2703 1.961 . S
Li2642 N2687 1.990 . S
Li2642 O2700 1.961 . S
Li2642 O2702 1.956 . S
Li2642 O2703 1.970 . S
Li2643 N2693 1.990 . S
Li2643 O2701 1.961 . S
Li2643 O2702 1.970 . S
Li2643 O2703 1.956 . S
C2644 C2646 1.348 . S
C2644 C2647 1.356 . S
C2644 O2700 1.325 . S
N2645 C2648 1.314 . S
N2645 C2649 1.279 . S
C2646 C2644 1.348 . S
C2646 C2648 1.353 . S
C2646 H2704 0.929 . S
C2647 C2644 1.356 . S
C2647 C2649 1.358 . S
C2647 H2705 0.930 . S
C2648 N2645 1.314 . S
C2648 C2646 1.353 . S
C2648 H2706 0.930 . S
C2649 N2645 1.279 . S
C2649 C2647 1.358 . S
C2649 H2707 0.930 . S
C2650 C2653 1.348 . S
C2650 C2654 1.356 . S
C2650 O2701 1.325 . S
C2651 N2652 1.279 . S
C2651 C2654 1.358 . S
C2651 H2708 0.930 . S
N2652 C2651 1.279 . S
N2652 C2655 1.314 . S
C2653 C2650 1.348 . S
C2653 C2655 1.353 . S
C2653 H2709 0.929 . S
C2654 C2650 1.356 . S
C2654 C2651 1.358 . S
C2654 H2710 0.930 . S
C2655 N2652 1.314 . S
C2655 C2653 1.353 . S
C2655 H2711 0.930 . S
C2656 N2657 1.314 . S
C2656 C2661 1.353 . S
C2656 H2662 0.930 . S
N2657 Li2640 1.990 . S
N2657 C2656 1.314 . S
N2657 C2659 1.279 . S
C2658 C2659 1.358 . S
C2658 C2660 1.356 . S
C2658 H2712 0.930 . S
C2659 N2657 1.279 . S
C2659 C2658 1.358 . S
C2659 H2663 0.930 . S
C2660 C2658 1.356 . S
C2660 C2661 1.348 . S
C2661 C2656 1.353 . S
C2661 C2660 1.348 . S
C2661 H2713 0.929 . S
H2662 C2656 0.930 . S
H2663 C2659 0.930 . S
C2664 N2665 1.314 . S
C2664 C2666 1.353 . S
C2664 H2670 0.930 . S
N2665 Li2641 1.990 . S
N2665 C2664 1.314 . S
N2665 C2668 1.279 . S
C2666 C2664 1.353 . S
C2666 C2669 1.348 . S
C2666 H2714 0.929 . S
C2667 C2668 1.358 . S
C2667 C2669 1.356 . S
C2667 H2715 0.930 . S
C2668 N2665 1.279 . S
C2668 C2667 1.358 . S
C2668 H2671 0.930 . S
C2669 C2666 1.348 . S
C2669 C2667 1.356 . S
H2670 C2664 0.930 . S
H2671 C2668 0.930 . S
C2672 C2674 1.348 . S
C2672 C2675 1.356 . S
C2672 O2702 1.325 . S
N2673 C2676 1.314 . S
N2673 C2677 1.279 . S
C2674 C2672 1.348 . S
C2674 C2676 1.353 . S
C2674 H2716 0.929 . S
C2675 C2672 1.356 . S
C2675 C2677 1.358 . S
C2675 H2717 0.930 . S
C2676 N2673 1.314 . S
C2676 C2674 1.353 . S
C2676 H2718 0.930 . S
C2677 N2673 1.279 . S
C2677 C2675 1.358 . S
C2677 H2719 0.930 . S
C2678 C2679 1.348 . S
C2678 C2680 1.356 . S
C2678 O2703 1.325 . S
C2679 C2678 1.348 . S
C2679 C2681 1.353 . S
C2679 H2720 0.929 . S
C2680 C2678 1.356 . S
C2680 C2682 1.358 . S
C2680 H2721 0.930 . S
C2681 C2679 1.353 . S
C2681 N2683 1.314 . S
C2681 H2722 0.930 . S
C2682 C2680 1.358 . S
C2682 N2683 1.279 . S
C2682 H2723 0.930 . S
N2683 C2681 1.314 . S
N2683 C2682 1.279 . S
C2684 C2686 1.353 . S
C2684 N2687 1.314 . S
C2684 H2690 0.930 . S
C2685 N2687 1.279 . S
C2685 C2688 1.358 . S
C2685 H2691 0.930 . S
C2686 C2684 1.353 . S
C2686 C2689 1.348 . S
C2686 H2724 0.929 . S
N2687 Li2642 1.990 . S
N2687 C2684 1.314 . S
N2687 C2685 1.279 . S
C2688 C2685 1.358 . S
C2688 C2689 1.356 . S
C2688 H2725 0.930 . S
C2689 C2686 1.348 . S
C2689 C2688 1.356 . S
H2690 C2684 0.930 . S
H2691 C2685 0.930 . S
C2692 N2693 1.314 . S
C2692 C2694 1.353 . S
C2692 H2698 0.930 . S
N2693 Li2643 1.990 . S
N2693 C2692 1.314 . S
N2693 C2696 1.279 . S
C2694 C2692 1.353 . S
C2694 C2697 1.348 . S
C2694 H2726 0.929 . S
C2695 C2696 1.358 . S
C2695 C2697 1.356 . S
C2695 H2727 0.930 . S
C2696 N2693 1.279 . S
C2696 C2695 1.358 . S
C2696 H2699 0.930 . S
C2697 C2694 1.348 . S
C2697 C2695 1.356 . S
H2698 C2692 0.930 . S
H2699 C2696 0.930 . S
O2700 Li2640 1.956 . S
O2700 Li2641 1.970 . S
O2700 Li2642 1.961 . S
O2700 C2644 1.325 . S
O2701 Li2640 1.970 . S
O2701 Li2641 1.956 . S
O2701 Li2643 1.961 . S
O2701 C2650 1.325 . S
O2702 Li2640 1.961 . S
O2702 Li2642 1.956 . S
O2702 Li2643 1.970 . S
O2702 C2672 1.325 . S
O2703 Li2641 1.961 . S
O2703 Li2642 1.970 . S
O2703 Li2643 1.956 . S
O2703 C2678 1.325 . S
H2704 C2646 0.929 . S
H2705 C2647 0.930 . S
H2706 C2648 0.930 . S
H2707 C2649 0.930 . S
H2708 C2651 0.930 . S
H2709 C2653 0.929 . S
H2710 C2654 0.930 . S
H2711 C2655 0.930 . S
H2712 C2658 0.930 . S
H2713 C2661 0.929 . S
H2714 C2666 0.929 . S
H2715 C2667 0.930 . S
H2716 C2674 0.929 . S
H2717 C2675 0.930 . S
H2718 C2676 0.930 . S
H2719 C2677 0.930 . S
H2720 C2679 0.929 . S
H2721 C2680 0.930 . S
H2722 C2681 0.930 . S
H2723 C2682 0.930 . S
H2724 C2686 0.929 . S
H2725 C2688 0.930 . S
H2726 C2694 0.929 . S
H2727 C2695 0.930 . S
Li2728 N2745 1.990 . S
Li2728 O2788 1.956 . S
Li2728 O2789 1.970 . S
Li2728 O2790 1.961 . S
Li2729 N2753 1.990 . S
Li2729 O2788 1.970 . S
Li2729 O2789 1.956 . S
Li2729 O2791 1.961 . S
Li2730 N2775 1.990 . S
Li2730 O2788 1.961 . S
Li2730 O2790 1.956 . S
Li2730 O2791 1.970 . S
Li2731 N2781 1.990 . S
Li2731 O2789 1.961 . S
Li2731 O2790 1.970 . S
Li2731 O2791 1.956 . S
C2732 C2734 1.348 . S
C2732 C2735 1.356 . S
C2732 O2788 1.325 . S
N2733 C2736 1.314 . S
N2733 C2737 1.279 . S
C2734 C2732 1.348 . S
C2734 C2736 1.353 . S
C2734 H2792 0.929 . S
C2735 C2732 1.356 . S
C2735 C2737 1.358 . S
C2735 H2793 0.930 . S
C2736 N2733 1.314 . S
C2736 C2734 1.353 . S
C2736 H2794 0.930 . S
C2737 N2733 1.279 . S
C2737 C2735 1.358 . S
C2737 H2795 0.930 . S
C2738 C2741 1.348 . S
C2738 C2742 1.356 . S
C2738 O2789 1.325 . S
C2739 N2740 1.279 . S
C2739 C2742 1.358 . S
C2739 H2796 0.930 . S
N2740 C2739 1.279 . S
N2740 C2743 1.314 . S
C2741 C2738 1.348 . S
C2741 C2743 1.353 . S
C2741 H2797 0.929 . S
C2742 C2738 1.356 . S
C2742 C2739 1.358 . S
C2742 H2798 0.930 . S
C2743 N2740 1.314 . S
C2743 C2741 1.353 . S
C2743 H2799 0.930 . S
C2744 N2745 1.314 . S
C2744 C2749 1.353 . S
C2744 H2750 0.930 . S
N2745 Li2728 1.990 . S
N2745 C2744 1.314 . S
N2745 C2747 1.279 . S
C2746 C2747 1.358 . S
C2746 C2748 1.356 . S
C2746 H2800 0.930 . S
C2747 N2745 1.279 . S
C2747 C2746 1.358 . S
C2747 H2751 0.930 . S
C2748 C2746 1.356 . S
C2748 C2749 1.348 . S
C2749 C2744 1.353 . S
C2749 C2748 1.348 . S
C2749 H2801 0.929 . S
H2750 C2744 0.930 . S
H2751 C2747 0.930 . S
C2752 N2753 1.314 . S
C2752 C2754 1.353 . S
C2752 H2758 0.930 . S
N2753 Li2729 1.990 . S
N2753 C2752 1.314 . S
N2753 C2756 1.279 . S
C2754 C2752 1.353 . S
C2754 C2757 1.348 . S
C2754 H2802 0.929 . S
C2755 C2756 1.358 . S
C2755 C2757 1.356 . S
C2755 H2803 0.930 . S
C2756 N2753 1.279 . S
C2756 C2755 1.358 . S
C2756 H2759 0.930 . S
C2757 C2754 1.348 . S
C2757 C2755 1.356 . S
H2758 C2752 0.930 . S
H2759 C2756 0.930 . S
C2760 C2762 1.348 . S
C2760 C2763 1.356 . S
C2760 O2790 1.325 . S
N2761 C2764 1.314 . S
N2761 C2765 1.279 . S
C2762 C2760 1.348 . S
C2762 C2764 1.353 . S
C2762 H2804 0.929 . S
C2763 C2760 1.356 . S
C2763 C2765 1.358 . S
C2763 H2805 0.930 . S
C2764 N2761 1.314 . S
C2764 C2762 1.353 . S
C2764 H2806 0.930 . S
C2765 N2761 1.279 . S
C2765 C2763 1.358 . S
C2765 H2807 0.930 . S
C2766 C2767 1.348 . S
C2766 C2768 1.356 . S
C2766 O2791 1.325 . S
C2767 C2766 1.348 . S
C2767 C2769 1.353 . S
C2767 H2808 0.929 . S
C2768 C2766 1.356 . S
C2768 C2770 1.358 . S
C2768 H2809 0.930 . S
C2769 C2767 1.353 . S
C2769 N2771 1.314 . S
C2769 H2810 0.930 . S
C2770 C2768 1.358 . S
C2770 N2771 1.279 . S
C2770 H2811 0.930 . S
N2771 C2769 1.314 . S
N2771 C2770 1.279 . S
C2772 C2774 1.353 . S
C2772 N2775 1.314 . S
C2772 H2778 0.930 . S
C2773 N2775 1.279 . S
C2773 C2776 1.358 . S
C2773 H2779 0.930 . S
C2774 C2772 1.353 . S
C2774 C2777 1.348 . S
C2774 H2812 0.929 . S
N2775 Li2730 1.990 . S
N2775 C2772 1.314 . S
N2775 C2773 1.279 . S
C2776 C2773 1.358 . S
C2776 C2777 1.356 . S
C2776 H2813 0.930 . S
C2777 C2774 1.348 . S
C2777 C2776 1.356 . S
H2778 C2772 0.930 . S
H2779 C2773 0.930 . S
C2780 N2781 1.314 . S
C2780 C2782 1.353 . S
C2780 H2786 0.930 . S
N2781 Li2731 1.990 . S
N2781 C2780 1.314 . S
N2781 C2784 1.279 . S
C2782 C2780 1.353 . S
C2782 C2785 1.348 . S
C2782 H2814 0.929 . S
C2783 C2784 1.358 . S
C2783 C2785 1.356 . S
C2783 H2815 0.930 . S
C2784 N2781 1.279 . S
C2784 C2783 1.358 . S
C2784 H2787 0.930 . S
C2785 C2782 1.348 . S
C2785 C2783 1.356 . S
H2786 C2780 0.930 . S
H2787 C2784 0.930 . S
O2788 Li2728 1.956 . S
O2788 Li2729 1.970 . S
O2788 Li2730 1.961 . S
O2788 C2732 1.325 . S
O2789 Li2728 1.970 . S
O2789 Li2729 1.956 . S
O2789 Li2731 1.961 . S
O2789 C2738 1.325 . S
O2790 Li2728 1.961 . S
O2790 Li2730 1.956 . S
O2790 Li2731 1.970 . S
O2790 C2760 1.325 . S
O2791 Li2729 1.961 . S
O2791 Li2730 1.970 . S
O2791 Li2731 1.956 . S
O2791 C2766 1.325 . S
H2792 C2734 0.929 . S
H2793 C2735 0.930 . S
H2794 C2736 0.930 . S
H2795 C2737 0.930 . S
H2796 C2739 0.930 . S
H2797 C2741 0.929 . S
H2798 C2742 0.930 . S
H2799 C2743 0.930 . S
H2800 C2746 0.930 . S
H2801 C2749 0.929 . S
H2802 C2754 0.929 . S
H2803 C2755 0.930 . S
H2804 C2762 0.929 . S
H2805 C2763 0.930 . S
H2806 C2764 0.930 . S
H2807 C2765 0.930 . S
H2808 C2767 0.929 . S
H2809 C2768 0.930 . S
H2810 C2769 0.930 . S
H2811 C2770 0.930 . S
H2812 C2774 0.929 . S
H2813 C2776 0.930 . S
H2814 C2782 0.929 . S
H2815 C2783 0.930 . S
H2816 C2822 0.930 . S
H2817 C2826 0.930 . S
H2818 C2831 0.929 . S
H2819 C2829 0.929 . S
H2820 C2824 0.929 . S
H2821 C2830 0.929 . S
C2822 H2816 0.930 . S
C2822 C2823 1.367 . S
C2822 C2830 1.378 1_455 S
C2823 C2822 1.367 . S
C2823 C2831 1.433 . S
C2824 H2820 0.929 . S
C2824 C2826 1.378 1_455 S
C2824 C2828 1.350 1_455 S
C2825 C2828 1.463 1_444 S
C2825 C2830 1.350 1_455 S
C2825 N2833 1.428 . S
C2826 H2817 0.930 . S
C2826 C2824 1.378 1_655 S
C2826 C2827 1.367 . S
C2827 C2826 1.367 . S
C2827 C2829 1.433 . S
C2828 C2824 1.350 1_655 S
C2828 C2825 1.463 1_666 S
C2828 N2832 1.440 . S
C2829 H2819 0.929 . S
C2829 C2827 1.433 . S
C2829 N2832 1.408 . S
C2830 H2821 0.929 . S
C2830 C2822 1.378 1_655 S
C2830 C2825 1.350 1_655 S
C2831 H2818 0.929 . S
C2831 C2823 1.433 . S
C2831 N2833 1.385 . S
N2832 C2828 1.440 . S
N2832 C2829 1.408 . S
N2833 C2825 1.428 . S
N2833 C2831 1.385 . S
H2834 C2840 0.930 . S
H2835 C2844 0.930 . S
H2836 C2849 0.929 . S
H2837 C2847 0.929 . S
H2838 C2842 0.929 . S
H2839 C2848 0.929 . S
C2840 H2834 0.930 . S
C2840 C2841 1.367 . S
C2840 C2848 1.378 . S
C2841 C2840 1.367 . S
C2841 C2849 1.433 . S
C2842 H2838 0.929 . S
C2842 C2844 1.378 . S
C2842 C2846 1.350 . S
C2843 C2846 1.463 . S
C2843 C2848 1.350 . S
C2843 N2851 1.427 . S
C2844 H2835 0.930 . S
C2844 C2842 1.378 . S
C2844 C2845 1.367 . S
C2845 C2844 1.367 . S
C2845 C2847 1.433 . S
C2846 C2842 1.350 . S
C2846 C2843 1.463 . S
C2846 N2850 1.427 . S
C2847 H2837 0.929 . S
C2847 C2845 1.433 . S
C2847 N2850 1.384 . S
C2848 H2839 0.929 . S
C2848 C2840 1.378 . S
C2848 C2843 1.350 . S
C2849 H2836 0.929 . S
C2849 C2841 1.433 . S
C2849 N2851 1.384 . S
N2850 C2846 1.427 . S
N2850 C2847 1.384 . S
N2851 C2843 1.427 . S
N2851 C2849 1.384 . S
H2852 C2858 0.930 . S
H2853 C2862 0.930 . S
H2854 C2867 0.929 . S
H2855 C2865 0.929 . S
H2856 C2860 0.929 1_565 S
H2857 C2866 0.929 1_545 S
C2858 H2852 0.930 . S
C2858 C2859 1.367 . S
C2858 C2866 1.378 . S
C2859 C2858 1.367 . S
C2859 C2867 1.433 . S
C2860 H2856 0.929 1_545 S
C2860 C2862 1.378 . S
C2860 C2864 1.350 . S
C2861 C2864 1.463 1_565 S
C2861 C2866 1.350 . S
C2861 N2869 1.427 . S
C2862 H2853 0.930 . S
C2862 C2860 1.378 . S
C2862 C2863 1.367 . S
C2863 C2862 1.367 . S
C2863 C2865 1.433 . S
C2864 C2860 1.350 . S
C2864 C2861 1.463 1_545 S
C2864 N2868 1.427 . S
C2865 H2855 0.929 . S
C2865 C2863 1.433 . S
C2865 N2868 1.384 . S
C2866 H2857 0.929 1_565 S
C2866 C2858 1.378 . S
C2866 C2861 1.350 . S
C2867 H2854 0.929 . S
C2867 C2859 1.433 . S
C2867 N2869 1.384 . S
N2868 C2864 1.427 . S
N2868 C2865 1.384 . S
N2869 C2861 1.427 . S
N2869 C2867 1.384 . S
H2870 C2876 0.930 . S
H2871 C2880 0.930 . S
H2872 C2885 0.929 . S
H2873 C2883 0.929 . S
H2874 C2878 0.929 . S
H2875 C2884 0.929 . S
C2876 H2870 0.930 . S
C2876 C2877 1.367 . S
C2876 C2884 1.378 . S
C2877 C2876 1.367 . S
C2877 C2885 1.433 . S
C2878 H2874 0.929 . S
C2878 C2880 1.378 . S
C2878 C2882 1.350 . S
C2879 C2882 1.463 . S
C2879 C2884 1.350 . S
C2879 N2887 1.427 . S
C2880 H2871 0.930 . S
C2880 C2878 1.378 . S
C2880 C2881 1.367 . S
C2881 C2880 1.367 . S
C2881 C2883 1.433 . S
C2882 C2878 1.350 . S
C2882 C2879 1.463 . S
C2882 N2886 1.427 . S
C2883 H2873 0.929 . S
C2883 C2881 1.433 . S
C2883 N2886 1.384 . S
C2884 H2875 0.929 . S
C2884 C2876 1.378 . S
C2884 C2879 1.350 . S
C2885 H2872 0.929 . S
C2885 C2877 1.433 . S
C2885 N2887 1.384 . S
N2886 C2882 1.427 . S
N2886 C2883 1.384 . S
N2887 C2879 1.427 . S
N2887 C2885 1.384 . S
H2888 C2894 0.930 . S
H2889 C2898 0.930 . S
H2890 C2903 0.929 . S
H2891 C2901 0.929 . S
H2892 C2896 0.903 1_465 S
H2893 C2902 0.916 1_645 S
C2894 H2888 0.930 . S
C2894 C2895 1.367 . S
C2894 C2902 1.378 . S
C2895 C2894 1.367 . S
C2895 C2903 1.433 . S
C2896 H2892 0.903 1_645 S
C2896 C2898 1.378 . S
C2896 C2900 1.350 . S
C2897 C2900 1.463 1_465 S
C2897 C2902 1.350 . S
C2897 N2905 1.427 . S
C2898 H2889 0.930 . S
C2898 C2896 1.378 . S
C2898 C2899 1.367 . S
C2899 C2898 1.367 . S
C2899 C2901 1.433 . S
C2900 C2896 1.350 . S
C2900 C2897 1.463 1_645 S
C2900 N2904 1.427 . S
C2901 H2891 0.929 . S
C2901 C2899 1.433 . S
C2901 N2904 1.384 . S
C2902 H2893 0.916 1_465 S
C2902 C2894 1.378 . S
C2902 C2897 1.350 . S
C2903 H2890 0.929 . S
C2903 C2895 1.433 . S
C2903 N2905 1.384 . S
N2904 C2900 1.427 . S
N2904 C2901 1.384 . S
N2905 C2897 1.427 . S
N2905 C2903 1.384 . S
H2906 C2912 0.930 . S
H2907 C2916 0.930 . S
H2908 C2921 0.929 . S
H2909 C2919 0.929 . S
H2910 C2914 0.929 . S
H2911 C2920 0.929 . S
C2912 H2906 0.930 . S
C2912 C2913 1.367 . S
C2912 C2920 1.378 . S
C2913 C2912 1.367 . S
C2913 C2921 1.433 . S
C2914 H2910 0.929 . S
C2914 C2916 1.378 . S
C2914 C2918 1.350 . S
C2915 C2918 1.463 . S
C2915 C2920 1.350 . S
C2915 N2923 1.427 . S
C2916 H2907 0.930 . S
C2916 C2914 1.378 . S
C2916 C2917 1.367 . S
C2917 C2916 1.367 . S
C2917 C2919 1.433 . S
C2918 C2914 1.350 . S
C2918 C2915 1.463 . S
C2918 N2922 1.427 . S
C2919 H2909 0.929 . S
C2919 C2917 1.433 . S
C2919 N2922 1.384 . S
C2920 H2911 0.929 . S
C2920 C2912 1.378 . S
C2920 C2915 1.350 . S
C2921 H2908 0.929 . S
C2921 C2913 1.433 . S
C2921 N2923 1.384 . S
N2922 C2918 1.427 . S
N2922 C2919 1.384 . S
N2923 C2915 1.427 . S
N2923 C2921 1.384 . S
H2924 C2930 0.930 . S
H2925 C2934 0.930 . S
H2926 C2939 0.929 . S
H2927 C2937 0.929 . S
H2928 C2932 0.929 . S
H2929 C2938 0.929 . S
C2930 H2924 0.930 . S
C2930 C2931 1.367 . S
C2930 C2938 1.378 1_556 S
C2931 C2930 1.367 . S
C2931 C2939 1.433 . S
C2932 H2928 0.929 . S
C2932 C2934 1.378 1_556 S
C2932 C2936 1.350 1_556 S
C2933 C2936 1.463 1_546 S
C2933 C2938 1.350 1_556 S
C2933 N2941 1.427 . S
C2934 H2925 0.930 . S
C2934 C2932 1.378 1_554 S
C2934 C2935 1.367 . S
C2935 C2934 1.367 . S
C2935 C2937 1.433 . S
C2936 C2932 1.350 1_554 S
C2936 C2933 1.463 1_564 S
C2936 N2940 1.427 . S
C2937 H2927 0.929 . S
C2937 C2935 1.433 . S
C2937 N2940 1.384 . S
C2938 H2929 0.929 . S
C2938 C2930 1.378 1_554 S
C2938 C2933 1.350 1_554 S
C2939 H2926 0.929 . S
C2939 C2931 1.433 . S
C2939 N2941 1.384 . S
N2940 C2936 1.427 . S
N2940 C2937 1.384 . S
N2941 C2933 1.427 . S
N2941 C2939 1.384 . S
H2942 C2948 0.930 . S
H2943 C2952 0.930 . S
H2944 C2957 0.929 . S
H2945 C2955 0.929 . S
H2946 C2950 0.929 . S
H2947 C2956 0.929 . S
C2948 H2942 0.930 . S
C2948 C2949 1.367 . S
C2948 C2956 1.378 . S
C2949 C2948 1.367 . S
C2949 C2957 1.433 . S
C2950 H2946 0.929 . S
C2950 C2952 1.378 . S
C2950 C2954 1.350 . S
C2951 C2954 1.463 . S
C2951 C2956 1.350 . S
C2951 N2959 1.427 . S
C2952 H2943 0.930 . S
C2952 C2950 1.378 . S
C2952 C2953 1.367 . S
C2953 C2952 1.367 . S
C2953 C2955 1.433 . S
C2954 C2950 1.350 . S
C2954 C2951 1.463 . S
C2954 N2958 1.427 . S
C2955 H2945 0.929 . S
C2955 C2953 1.433 . S
C2955 N2958 1.384 . S
C2956 H2947 0.929 . S
C2956 C2948 1.378 . S
C2956 C2951 1.350 . S
C2957 H2944 0.929 . S
C2957 C2949 1.433 . S
C2957 N2959 1.384 . S
N2958 C2954 1.427 . S
N2958 C2955 1.384 . S
N2959 C2951 1.427 . S
N2959 C2957 1.384 . S
H2960 C2966 0.930 . S
H2961 C2970 0.930 . S
H2962 C2975 0.929 . S
H2963 C2973 0.929 . S
H2964 C2968 0.929 . S
H2965 C2974 0.929 . S
C2966 H2960 0.930 . S
C2966 C2967 1.367 . S
C2966 C2974 1.378 . S
C2967 C2966 1.367 . S
C2967 C2975 1.433 . S
C2968 H2964 0.929 . S
C2968 C2970 1.378 . S
C2968 C2972 1.350 . S
C2969 C2972 1.463 1_554 S
C2969 C2974 1.350 . S
C2969 N2977 1.416 1_554 S
C2970 H2961 0.930 . S
C2970 C2968 1.378 . S
C2970 C2971 1.367 . S
C2971 C2970 1.367 . S
C2971 C2973 1.433 . S
C2972 C2968 1.350 . S
C2972 C2969 1.463 1_556 S
C2972 N2976 1.427 1_556 S
C2973 H2963 0.929 . S
C2973 C2971 1.433 . S
C2973 N2976 1.384 1_556 S
C2974 H2965 0.929 . S
C2974 C2966 1.378 . S
C2974 C2969 1.350 . S
C2975 H2962 0.929 . S
C2975 C2967 1.433 . S
C2975 N2977 1.366 1_554 S
N2976 C2972 1.427 1_554 S
N2976 C2973 1.384 1_554 S
N2977 C2969 1.416 1_556 S
N2977 C2975 1.366 1_556 S
H2978 C2984 0.930 . S
H2979 C2988 0.930 . S
H2980 C2993 0.929 . S
H2981 C2991 0.929 . S
H2982 C2986 0.929 . S
H2983 C2992 0.929 . S
C2984 H2978 0.930 . S
C2984 C2985 1.367 . S
C2984 C2992 1.378 . S
C2985 C2984 1.367 . S
C2985 C2993 1.433 . S
C2986 H2982 0.929 . S
C2986 C2988 1.378 . S
C2986 C2990 1.350 . S
C2987 C2990 1.463 . S
C2987 C2992 1.350 . S
C2987 N2995 1.427 . S
C2988 H2979 0.930 . S
C2988 C2986 1.378 . S
C2988 C2989 1.367 . S
C2989 C2988 1.367 . S
C2989 C2991 1.433 . S
C2990 C2986 1.350 . S
C2990 C2987 1.463 . S
C2990 N2994 1.427 . S
C2991 H2981 0.929 . S
C2991 C2989 1.433 . S
C2991 N2994 1.384 . S
C2992 H2983 0.929 . S
C2992 C2984 1.378 . S
C2992 C2987 1.350 . S
C2993 H2980 0.929 . S
C2993 C2985 1.433 . S
C2993 N2995 1.384 . S
N2994 C2990 1.427 . S
N2994 C2991 1.384 . S
N2995 C2987 1.427 . S
N2995 C2993 1.384 . S
H2996 C3002 0.930 . S
H2997 C3006 0.930 . S
H2998 C3011 0.929 . S
H2999 C3009 0.929 . S
H3000 C3004 0.929 . S
H3001 C3010 0.929 . S
C3002 H2996 0.930 . S
C3002 C3003 1.367 . S
C3002 C3010 1.378 1_455 S
C3003 C3002 1.367 . S
C3003 C3011 1.433 . S
C3004 H3000 0.929 . S
C3004 C3006 1.378 1_455 S
C3004 C3008 1.350 1_455 S
C3005 C3008 1.463 1_455 S
C3005 C3010 1.350 1_455 S
C3005 N3013 1.427 . S
C3006 H2997 0.930 . S
C3006 C3004 1.378 1_655 S
C3006 C3007 1.367 . S
C3007 C3006 1.367 . S
C3007 C3009 1.433 . S
C3008 C3004 1.350 1_655 S
C3008 C3005 1.463 1_655 S
C3008 N3012 1.427 . S
C3009 H2999 0.929 . S
C3009 C3007 1.433 . S
C3009 N3012 1.384 . S
C3010 H3001 0.929 . S
C3010 C3002 1.378 1_655 S
C3010 C3005 1.350 1_655 S
C3011 H2998 0.929 . S
C3011 C3003 1.433 . S
C3011 N3013 1.384 . S
N3012 C3008 1.427 . S
N3012 C3009 1.384 . S
N3013 C3005 1.427 . S
N3013 C3011 1.384 . S
H3014 C3020 0.930 . S
H3015 C3024 0.930 . S
H3016 C3029 0.929 . S
H3017 C3027 0.929 . S
H3018 C3022 0.929 . S
H3019 C3028 0.929 . S
C3020 H3014 0.930 . S
C3020 C3021 1.367 . S
C3020 C3028 1.378 . S
C3021 C3020 1.367 . S
C3021 C3029 1.433 . S
C3022 H3018 0.929 . S
C3022 C3024 1.378 . S
C3022 C3026 1.350 . S
C3023 C3026 1.463 . S
C3023 C3028 1.350 . S
C3023 N3031 1.427 . S
C3024 H3015 0.930 . S
C3024 C3022 1.378 . S
C3024 C3025 1.367 . S
C3025 C3024 1.367 . S
C3025 C3027 1.433 . S
C3026 C3022 1.350 . S
C3026 C3023 1.463 . S
C3026 N3030 1.427 . S
C3027 H3017 0.929 . S
C3027 C3025 1.433 . S
C3027 N3030 1.384 . S
C3028 H3019 0.929 . S
C3028 C3020 1.378 . S
C3028 C3023 1.350 . S
C3029 H3016 0.929 . S
C3029 C3021 1.433 . S
C3029 N3031 1.384 . S
N3030 C3026 1.427 . S
N3030 C3027 1.384 . S
N3031 C3023 1.427 . S
N3031 C3029 1.384 . S
H3032 C3038 0.930 . S
H3033 C3042 0.930 . S
H3034 C3047 0.929 . S
H3035 C3045 0.929 . S
H3036 C3040 0.929 . S
H3037 C3046 0.929 . S
C3038 H3032 0.930 . S
C3038 C3039 1.367 . S
C3038 C3046 1.378 . S
C3039 C3038 1.367 . S
C3039 C3047 1.433 . S
C3040 H3036 0.929 . S
C3040 C3042 1.378 . S
C3040 C3044 1.350 . S
C3041 C3044 1.463 . S
C3041 C3046 1.350 . S
C3041 N3049 1.427 . S
C3042 H3033 0.930 . S
C3042 C3040 1.378 . S
C3042 C3043 1.367 . S
C3043 C3042 1.367 . S
C3043 C3045 1.433 . S
C3044 C3040 1.350 . S
C3044 C3041 1.463 . S
C3044 N3048 1.427 . S
C3045 H3035 0.929 . S
C3045 C3043 1.433 . S
C3045 N3048 1.384 . S
C3046 H3037 0.929 . S
C3046 C3038 1.378 . S
C3046 C3041 1.350 . S
C3047 H3034 0.929 . S
C3047 C3039 1.433 . S
C3047 N3049 1.384 . S
N3048 C3044 1.427 . S
N3048 C3045 1.384 . S
N3049 C3041 1.427 . S
N3049 C3047 1.384 . S
H3050 C3056 0.930 . S
H3051 C3060 0.930 . S
H3052 C3065 0.929 . S
H3053 C3063 0.929 . S
H3054 C3058 0.929 . S
H3055 C3064 0.929 . S
C3056 H3050 0.930 . S
C3056 C3057 1.367 . S
C3056 C3064 1.378 . S
C3057 C3056 1.367 . S
C3057 C3065 1.433 . S
C3058 H3054 0.929 . S
C3058 C3060 1.378 . S
C3058 C3062 1.350 . S
C3059 C3062 1.463 . S
C3059 C3064 1.350 . S
C3059 N3067 1.427 . S
C3060 H3051 0.930 . S
C3060 C3058 1.378 . S
C3060 C3061 1.367 . S
C3061 C3060 1.367 . S
C3061 C3063 1.433 . S
C3062 C3058 1.350 . S
C3062 C3059 1.463 . S
C3062 N3066 1.427 . S
C3063 H3053 0.929 . S
C3063 C3061 1.433 . S
C3063 N3066 1.384 . S
C3064 H3055 0.929 . S
C3064 C3056 1.378 . S
C3064 C3059 1.350 . S
C3065 H3052 0.929 . S
C3065 C3057 1.433 . S
C3065 N3067 1.384 . S
N3066 C3062 1.427 . S
N3066 C3063 1.384 . S
N3067 C3059 1.427 . S
N3067 C3065 1.384 . S
H3068 C3074 0.930 . S
H3069 C3078 0.930 . S
H3070 C3083 0.929 . S
H3071 C3081 0.929 . S
H3072 C3076 0.929 . S
H3073 C3082 0.929 . S
C3074 H3068 0.930 . S
C3074 C3075 1.367 . S
C3074 C3082 1.378 . S
C3075 C3074 1.367 . S
C3075 C3083 1.433 . S
C3076 H3072 0.929 . S
C3076 C3078 1.378 . S
C3076 C3080 1.350 . S
C3077 C3080 1.463 . S
C3077 C3082 1.350 . S
C3077 N3085 1.427 . S
C3078 H3069 0.930 . S
C3078 C3076 1.378 . S
C3078 C3079 1.367 . S
C3079 C3078 1.367 . S
C3079 C3081 1.433 . S
C3080 C3076 1.350 . S
C3080 C3077 1.463 . S
C3080 N3084 1.427 . S
C3081 H3071 0.929 . S
C3081 C3079 1.433 . S
C3081 N3084 1.384 . S
C3082 H3073 0.929 . S
C3082 C3074 1.378 . S
C3082 C3077 1.350 . S
C3083 H3070 0.929 . S
C3083 C3075 1.433 . S
C3083 N3085 1.384 . S
N3084 C3080 1.427 . S
N3084 C3081 1.384 . S
N3085 C3077 1.427 . S
N3085 C3083 1.384 . S
H3086 C3092 0.930 . S
H3087 C3096 0.930 . S
H3088 C3101 0.929 . S
H3089 C3099 0.929 . S
H3090 C3094 0.929 1_456 S
H3091 C3100 0.929 1_654 S
C3092 H3086 0.930 . S
C3092 C3093 1.367 . S
C3092 C3100 1.378 . S
C3093 C3092 1.367 . S
C3093 C3101 1.433 . S
C3094 H3090 0.929 1_654 S
C3094 C3096 1.378 . S
C3094 C3098 1.350 . S
C3095 C3098 1.463 1_456 S
C3095 C3100 1.350 . S
C3095 N3103 1.427 . S
C3096 H3087 0.930 . S
C3096 C3094 1.378 . S
C3096 C3097 1.367 . S
C3097 C3096 1.367 . S
C3097 C3099 1.433 . S
C3098 C3094 1.350 . S
C3098 C3095 1.463 1_654 S
C3098 N3102 1.427 . S
C3099 H3089 0.929 . S
C3099 C3097 1.433 . S
C3099 N3102 1.384 . S
C3100 H3091 0.929 1_456 S
C3100 C3092 1.378 . S
C3100 C3095 1.350 . S
C3101 H3088 0.929 . S
C3101 C3093 1.433 . S
C3101 N3103 1.384 . S
N3102 C3098 1.427 . S
N3102 C3099 1.384 . S
N3103 C3095 1.427 . S
N3103 C3101 1.384 . S
H3104 C3110 0.930 . S
H3105 C3114 0.930 . S
H3106 C3119 0.929 . S
H3107 C3117 0.929 . S
H3108 C3112 0.929 . S
H3109 C3118 0.908 1_565 S
C3110 H3104 0.930 . S
C3110 C3111 1.367 . S
C3110 C3118 1.402 . S
C3111 C3110 1.367 . S
C3111 C3119 1.433 . S
C3112 H3108 0.929 . S
C3112 C3114 1.378 . S
C3112 C3116 1.350 . S
C3113 C3116 1.496 . S
C3113 C3118 1.347 1_565 S
C3113 N3121 1.399 1_565 S
C3114 H3105 0.930 . S
C3114 C3112 1.378 . S
C3114 C3115 1.367 . S
C3115 C3114 1.367 . S
C3115 C3117 1.433 . S
C3116 C3112 1.350 . S
C3116 C3113 1.496 . S
C3116 N3120 1.427 . S
C3117 H3107 0.929 . S
C3117 C3115 1.433 . S
C3117 N3120 1.384 . S
C3118 H3109 0.908 1_545 S
C3118 C3110 1.402 . S
C3118 C3113 1.347 1_545 S
C3119 H3106 0.929 . S
C3119 C3111 1.433 . S
C3119 N3121 1.384 . S
N3120 C3116 1.427 . S
N3120 C3117 1.384 . S
N3121 C3113 1.399 1_545 S
N3121 C3119 1.384 . S
H3122 C3128 0.930 . S
H3123 C3132 0.930 . S
H3124 C3137 0.929 . S
H3125 C3135 0.929 . S
H3126 C3130 0.929 . S
H3127 C3136 0.929 . S
C3128 H3122 0.930 . S
C3128 C3129 1.367 . S
C3128 C3136 1.378 . S
C3129 C3128 1.367 . S
C3129 C3137 1.433 . S
C3130 H3126 0.929 . S
C3130 C3132 1.378 . S
C3130 C3134 1.350 . S
C3131 C3134 1.463 . S
C3131 C3136 1.350 . S
C3131 N3139 1.427 . S
C3132 H3123 0.930 . S
C3132 C3130 1.378 . S
C3132 C3133 1.367 . S
C3133 C3132 1.367 . S
C3133 C3135 1.433 . S
C3134 C3130 1.350 . S
C3134 C3131 1.463 . S
C3134 N3138 1.427 . S
C3135 H3125 0.929 . S
C3135 C3133 1.433 . S
C3135 N3138 1.384 . S
C3136 H3127 0.929 . S
C3136 C3128 1.378 . S
C3136 C3131 1.350 . S
C3137 H3124 0.929 . S
C3137 C3129 1.433 . S
C3137 N3139 1.384 . S
N3138 C3134 1.427 . S
N3138 C3135 1.384 . S
N3139 C3131 1.427 . S
N3139 C3137 1.384 . S
H3140 C3146 0.930 . S
H3141 C3150 0.930 . S
H3142 C3155 0.929 . S
H3143 C3153 0.929 . S
H3144 C3148 0.929 . S
H3145 C3154 0.929 . S
C3146 H3140 0.930 . S
C3146 C3147 1.367 . S
C3146 C3154 1.378 . S
C3147 C3146 1.367 . S
C3147 C3155 1.433 . S
C3148 H3144 0.929 . S
C3148 C3150 1.378 . S
C3148 C3152 1.339 1_565 S
C3149 C3152 1.473 . S
C3149 C3154 1.350 . S
C3149 N3157 1.427 . S
C3150 H3141 0.930 . S
C3150 C3148 1.378 . S
C3150 C3151 1.367 . S
C3151 C3150 1.367 . S
C3151 C3153 1.433 . S
C3152 C3148 1.339 1_545 S
C3152 C3149 1.473 . S
C3152 N3156 1.429 . S
C3153 H3143 0.929 . S
C3153 C3151 1.433 . S
C3153 N3156 1.384 1_565 S
C3154 H3145 0.929 . S
C3154 C3146 1.378 . S
C3154 C3149 1.350 . S
C3155 H3142 0.929 . S
C3155 C3147 1.433 . S
C3155 N3157 1.384 . S
N3156 C3152 1.429 . S
N3156 C3153 1.384 1_545 S
N3157 C3149 1.427 . S
N3157 C3155 1.384 . S
H3158 C3164 0.930 . S
H3159 C3168 0.930 . S
H3160 C3173 0.929 . S
H3161 C3171 0.929 . S
H3162 C3166 0.929 . S
H3163 C3172 0.929 . S
C3164 H3158 0.930 . S
C3164 C3165 1.367 . S
C3164 C3172 1.378 . S
C3165 C3164 1.367 . S
C3165 C3173 1.433 . S
C3166 H3162 0.929 . S
C3166 C3168 1.378 . S
C3166 C3170 1.321 1_554 S
C3167 C3170 1.502 . S
C3167 C3172 1.350 . S
C3167 N3175 1.427 . S
C3168 H3159 0.930 . S
C3168 C3166 1.378 . S
C3168 C3169 1.367 . S
C3169 C3168 1.367 . S
C3169 C3171 1.433 . S
C3170 C3166 1.321 1_556 S
C3170 C3167 1.502 . S
C3170 N3174 1.421 1_556 S
C3171 H3161 0.929 . S
C3171 C3169 1.433 . S
C3171 N3174 1.384 . S
C3172 H3163 0.929 . S
C3172 C3164 1.378 . S
C3172 C3167 1.350 . S
C3173 H3160 0.929 . S
C3173 C3165 1.433 . S
C3173 N3175 1.384 . S
N3174 C3170 1.421 1_554 S
N3174 C3171 1.384 . S
N3175 C3167 1.427 . S
N3175 C3173 1.384 . S
H3176 C3182 0.930 . S
H3177 C3186 0.930 . S
H3178 C3191 0.929 . S
H3179 C3189 0.929 . S
H3180 C3184 0.929 . S
H3181 C3190 0.929 . S
C3182 H3176 0.930 . S
C3182 C3183 1.367 . S
C3182 C3190 1.378 . S
C3183 C3182 1.367 . S
C3183 C3191 1.433 . S
C3184 H3180 0.929 . S
C3184 C3186 1.378 . S
C3184 C3188 1.344 1_565 S
C3185 C3188 1.467 . S
C3185 C3190 1.350 . S
C3185 N3193 1.427 . S
C3186 H3177 0.930 . S
C3186 C3184 1.378 . S
C3186 C3187 1.367 . S
C3187 C3186 1.367 . S
C3187 C3189 1.433 . S
C3188 C3184 1.344 1_545 S
C3188 C3185 1.467 . S
C3188 N3192 1.429 . S
C3189 H3179 0.929 . S
C3189 C3187 1.433 . S
C3189 N3192 1.384 1_565 S
C3190 H3181 0.929 . S
C3190 C3182 1.378 . S
C3190 C3185 1.350 . S
C3191 H3178 0.929 . S
C3191 C3183 1.433 . S
C3191 N3193 1.384 . S
N3192 C3188 1.429 . S
N3192 C3189 1.384 1_545 S
N3193 C3185 1.427 . S
N3193 C3191 1.384 . S
H3194 C3200 0.930 . S
H3195 C3204 0.930 . S
H3196 C3209 0.929 . S
H3197 C3207 0.929 . S
H3198 C3202 0.929 . S
H3199 C3208 0.929 . S
C3200 H3194 0.930 . S
C3200 C3201 1.367 . S
C3200 C3208 1.378 . S
C3201 C3200 1.367 . S
C3201 C3209 1.433 . S
C3202 H3198 0.929 . S
C3202 C3204 1.378 . S
C3202 C3206 1.350 . S
C3203 C3206 1.463 . S
C3203 C3208 1.350 . S
C3203 N3211 1.427 . S
C3204 H3195 0.930 . S
C3204 C3202 1.378 . S
C3204 C3205 1.367 . S
C3205 C3204 1.367 . S
C3205 C3207 1.433 . S
C3206 C3202 1.350 . S
C3206 C3203 1.463 . S
C3206 N3210 1.427 . S
C3207 H3197 0.929 . S
C3207 C3205 1.433 . S
C3207 N3210 1.384 . S
C3208 H3199 0.929 . S
C3208 C3200 1.378 . S
C3208 C3203 1.350 . S
C3209 H3196 0.929 . S
C3209 C3201 1.433 . S
C3209 N3211 1.384 . S
N3210 C3206 1.427 . S
N3210 C3207 1.384 . S
N3211 C3203 1.427 . S
N3211 C3209 1.384 . S
H3212 C3218 0.930 . S
H3213 C3222 0.930 . S
H3214 C3227 0.929 . S
H3215 C3225 0.929 . S
H3216 C3220 0.909 1_545 S
H3217 C3226 0.929 . S
C3218 H3212 0.930 . S
C3218 C3219 1.367 . S
C3218 C3226 1.378 1_545 S
C3219 C3218 1.367 . S
C3219 C3227 1.433 . S
C3220 H3216 0.909 1_565 S
C3220 C3222 1.378 . S
C3220 C3224 1.350 . S
C3221 C3224 1.463 . S
C3221 C3226 1.350 . S
C3221 N3229 1.427 1_565 S
C3222 H3213 0.930 . S
C3222 C3220 1.378 . S
C3222 C3223 1.367 . S
C3223 C3222 1.367 . S
C3223 C3225 1.433 . S
C3224 C3220 1.350 . S
C3224 C3221 1.463 . S
C3224 N3228 1.427 . S
C3225 H3215 0.929 . S
C3225 C3223 1.433 . S
C3225 N3228 1.384 . S
C3226 H3217 0.929 . S
C3226 C3218 1.378 1_565 S
C3226 C3221 1.350 . S
C3227 H3214 0.929 . S
C3227 C3219 1.433 . S
C3227 N3229 1.384 . S
N3228 C3224 1.427 . S
N3228 C3225 1.384 . S
N3229 C3221 1.427 1_545 S
N3229 C3227 1.384 . S
H3230 C3236 0.930 . S
H3231 C3240 0.930 . S
H3232 C3245 0.929 . S
H3233 C3243 0.929 . S
H3234 C3238 0.929 . S
H3235 C3244 0.913 1_554 S
C3236 H3230 0.930 . S
C3236 C3237 1.367 . S
C3236 C3244 1.378 . S
C3237 C3236 1.367 . S
C3237 C3245 1.433 . S
C3238 H3234 0.929 . S
C3238 C3240 1.378 . S
C3238 C3242 1.350 . S
C3239 C3242 1.463 . S
C3239 C3244 1.350 1_554 S
C3239 N3247 1.427 1_554 S
C3240 H3231 0.930 . S
C3240 C3238 1.378 . S
C3240 C3241 1.367 . S
C3241 C3240 1.367 . S
C3241 C3243 1.433 . S
C3242 C3238 1.350 . S
C3242 C3239 1.463 . S
C3242 N3246 1.427 . S
C3243 H3233 0.929 . S
C3243 C3241 1.433 . S
C3243 N3246 1.384 . S
C3244 H3235 0.913 1_556 S
C3244 C3236 1.378 . S
C3244 C3239 1.350 1_556 S
C3245 H3232 0.929 . S
C3245 C3237 1.433 . S
C3245 N3247 1.384 . S
N3246 C3242 1.427 . S
N3246 C3243 1.384 . S
N3247 C3239 1.427 1_556 S
N3247 C3245 1.384 . S
H3248 C3254 0.930 . S
H3249 C3258 0.930 . S
H3250 C3263 0.929 . S
H3251 C3261 0.929 . S
H3252 C3256 0.929 . S
H3253 C3262 0.888 1_455 S
C3254 H3248 0.930 . S
C3254 C3255 1.367 . S
C3254 C3262 1.378 . S
C3255 C3254 1.367 . S
C3255 C3263 1.433 . S
C3256 H3252 0.929 . S
C3256 C3258 1.378 1_655 S
C3256 C3260 1.350 . S
C3257 C3260 1.463 . S
C3257 C3262 1.350 . S
C3257 N3265 1.427 . S
C3258 H3249 0.930 . S
C3258 C3256 1.378 1_455 S
C3258 C3259 1.367 . S
C3259 C3258 1.367 . S
C3259 C3261 1.433 . S
C3260 C3256 1.350 . S
C3260 C3257 1.463 . S
C3260 N3264 1.427 1_655 S
C3261 H3251 0.929 . S
C3261 C3259 1.433 . S
C3261 N3264 1.384 . S
C3262 H3253 0.888 1_655 S
C3262 C3254 1.378 . S
C3262 C3257 1.350 . S
C3263 H3250 0.929 . S
C3263 C3255 1.433 . S
C3263 N3265 1.384 . S
N3264 C3260 1.427 1_455 S
N3264 C3261 1.384 . S
N3265 C3257 1.427 . S
N3265 C3263 1.384 . S
H3266 C3272 0.930 . S
H3267 C3276 0.930 . S
H3268 C3281 0.929 . S
H3269 C3279 0.929 . S
H3270 C3274 0.929 . S
H3271 C3280 0.929 . S
C3272 H3266 0.930 . S
C3272 C3273 1.367 . S
C3272 C3280 1.378 . S
C3273 C3272 1.367 . S
C3273 C3281 1.433 . S
C3274 H3270 0.929 . S
C3274 C3276 1.378 . S
C3274 C3278 1.350 . S
C3275 C3278 1.463 . S
C3275 C3280 1.350 . S
C3275 N3283 1.427 . S
C3276 H3267 0.930 . S
C3276 C3274 1.378 . S
C3276 C3277 1.367 . S
C3277 C3276 1.367 . S
C3277 C3279 1.433 . S
C3278 C3274 1.350 . S
C3278 C3275 1.463 . S
C3278 N3282 1.427 . S
C3279 H3269 0.929 . S
C3279 C3277 1.433 . S
C3279 N3282 1.384 . S
C3280 H3271 0.929 . S
C3280 C3272 1.378 . S
C3280 C3275 1.350 . S
C3281 H3268 0.929 . S
C3281 C3273 1.433 . S
C3281 N3283 1.384 . S
N3282 C3278 1.427 . S
N3282 C3279 1.384 . S
N3283 C3275 1.427 . S
N3283 C3281 1.384 . S
H3284 C3290 0.930 . S
H3285 C3294 0.930 . S
H3286 C3299 0.929 . S
H3287 C3297 0.929 . S
H3288 C3292 0.929 . S
H3289 C3298 0.929 1_455 S
C3290 H3284 0.930 . S
C3290 C3291 1.367 . S
C3290 C3298 1.378 . S
C3291 C3290 1.367 . S
C3291 C3299 1.433 . S
C3292 H3288 0.929 . S
C3292 C3294 1.378 . S
C3292 C3296 1.350 . S
C3293 C3296 1.463 . S
C3293 C3298 1.350 1_455 S
C3293 N3301 1.427 1_455 S
C3294 H3285 0.930 . S
C3294 C3292 1.378 . S
C3294 C3295 1.367 . S
C3295 C3294 1.367 . S
C3295 C3297 1.433 . S
C3296 C3292 1.350 . S
C3296 C3293 1.463 . S
C3296 N3300 1.427 . S
C3297 H3287 0.929 . S
C3297 C3295 1.433 . S
C3297 N3300 1.384 . S
C3298 H3289 0.929 1_655 S
C3298 C3290 1.378 . S
C3298 C3293 1.350 1_655 S
C3299 H3286 0.929 . S
C3299 C3291 1.433 . S
C3299 N3301 1.384 . S
N3300 C3296 1.427 . S
N3300 C3297 1.384 . S
N3301 C3293 1.427 1_655 S
N3301 C3299 1.384 . S
H3302 C3308 0.930 . S
H3303 C3312 0.930 . S
H3304 C3317 0.929 . S
H3305 C3315 0.929 . S
H3306 C3310 0.929 . S
H3307 C3316 0.901 1_455 S
C3308 H3302 0.930 . S
C3308 C3309 1.367 . S
C3308 C3316 1.414 . S
C3309 C3308 1.367 . S
C3309 C3317 1.433 . S
C3310 H3306 0.929 . S
C3310 C3312 1.378 . S
C3310 C3314 1.350 . S
C3311 C3314 1.463 . S
C3311 C3316 1.344 1_455 S
C3311 N3319 1.427 1_455 S
C3312 H3303 0.930 . S
C3312 C3310 1.378 . S
C3312 C3313 1.367 . S
C3313 C3312 1.367 . S
C3313 C3315 1.433 . S
C3314 C3310 1.350 . S
C3314 C3311 1.463 . S
C3314 N3318 1.427 . S
C3315 H3305 0.929 . S
C3315 C3313 1.433 . S
C3315 N3318 1.384 . S
C3316 H3307 0.901 1_655 S
C3316 C3308 1.414 . S
C3316 C3311 1.344 1_655 S
C3317 H3304 0.929 . S
C3317 C3309 1.433 . S
C3317 N3319 1.384 . S
N3318 C3314 1.427 . S
N3318 C3315 1.384 . S
N3319 C3311 1.427 1_655 S
N3319 C3317 1.384 . S
H3320 C3326 0.930 . S
H3321 C3330 0.930 . S
H3322 C3335 0.929 . S
H3323 C3333 0.929 . S
H3324 C3328 0.929 . S
H3325 C3334 0.929 . S
C3326 H3320 0.930 . S
C3326 C3327 1.367 . S
C3326 C3334 1.378 . S
C3327 C3326 1.367 . S
C3327 C3335 1.433 . S
C3328 H3324 0.929 . S
C3328 C3330 1.378 . S
C3328 C3332 1.350 . S
C3329 C3332 1.463 . S
C3329 C3334 1.350 . S
C3329 N3337 1.427 . S
C3330 H3321 0.930 . S
C3330 C3328 1.378 . S
C3330 C3331 1.367 . S
C3331 C3330 1.367 . S
C3331 C3333 1.433 . S
C3332 C3328 1.350 . S
C3332 C3329 1.463 . S
C3332 N3336 1.427 . S
C3333 H3323 0.929 . S
C3333 C3331 1.433 . S
C3333 N3336 1.384 . S
C3334 H3325 0.929 . S
C3334 C3326 1.378 . S
C3334 C3329 1.350 . S
C3335 H3322 0.929 . S
C3335 C3327 1.433 . S
C3335 N3337 1.384 . S
N3336 C3332 1.427 . S
N3336 C3333 1.384 . S
N3337 C3329 1.427 . S
N3337 C3335 1.384 . S
H3338 C3344 0.930 . S
H3339 C3348 0.930 . S
H3340 C3353 0.929 . S
H3341 C3351 0.929 . S
H3342 C3346 0.929 1_655 S
H3343 C3352 0.929 . S
C3344 H3338 0.930 . S
C3344 C3345 1.367 . S
C3344 C3352 1.378 . S
C3345 C3344 1.367 . S
C3345 C3353 1.433 . S
C3346 H3342 0.929 1_455 S
C3346 C3348 1.378 . S
C3346 C3350 1.350 1_455 S
C3347 C3350 1.463 . S
C3347 C3352 1.350 . S
C3347 N3355 1.427 . S
C3348 H3339 0.930 . S
C3348 C3346 1.378 . S
C3348 C3349 1.367 . S
C3349 C3348 1.367 . S
C3349 C3351 1.433 . S
C3350 C3346 1.350 1_655 S
C3350 C3347 1.463 . S
C3350 N3354 1.427 1_655 S
C3351 H3341 0.929 . S
C3351 C3349 1.433 . S
C3351 N3354 1.384 . S
C3352 H3343 0.929 . S
C3352 C3344 1.378 . S
C3352 C3347 1.350 . S
C3353 H3340 0.929 . S
C3353 C3345 1.433 . S
C3353 N3355 1.384 . S
N3354 C3350 1.427 1_455 S
N3354 C3351 1.384 . S
N3355 C3347 1.427 . S
N3355 C3353 1.384 . S
H3356 C3362 0.930 . S
H3357 C3366 0.930 . S
H3358 C3371 0.929 . S
H3359 C3369 0.929 . S
H3360 C3364 0.929 . S
H3361 C3370 0.929 . S
C3362 H3356 0.930 . S
C3362 C3363 1.367 . S
C3362 C3370 1.378 . S
C3363 C3362 1.367 . S
C3363 C3371 1.433 . S
C3364 H3360 0.929 . S
C3364 C3366 1.378 . S
C3364 C3368 1.350 . S
C3365 C3368 1.463 . S
C3365 C3370 1.350 . S
C3365 N3373 1.427 . S
C3366 H3357 0.930 . S
C3366 C3364 1.378 . S
C3366 C3367 1.367 . S
C3367 C3366 1.367 . S
C3367 C3369 1.433 . S
C3368 C3364 1.350 . S
C3368 C3365 1.463 . S
C3368 N3372 1.427 . S
C3369 H3359 0.929 . S
C3369 C3367 1.433 . S
C3369 N3372 1.384 . S
C3370 H3361 0.929 . S
C3370 C3362 1.378 . S
C3370 C3365 1.350 . S
C3371 H3358 0.929 . S
C3371 C3363 1.433 . S
C3371 N3373 1.384 . S
N3372 C3368 1.427 . S
N3372 C3369 1.384 . S
N3373 C3365 1.427 . S
N3373 C3371 1.384 . S
H3374 C3380 0.930 . S
H3375 C3384 0.930 . S
H3376 C3389 0.929 . S
H3377 C3387 0.929 . S
H3378 C3382 0.929 . S
H3379 C3388 0.967 . S
C3380 H3374 0.930 . S
C3380 C3381 1.367 . S
C3380 C3388 1.378 . S
C3381 C3380 1.367 . S
C3381 C3389 1.433 . S
C3382 H3378 0.929 . S
C3382 C3384 1.378 1_545 S
C3382 C3386 1.350 . S
C3383 C3386 1.463 . S
C3383 C3388 1.350 . S
C3383 N3391 1.427 . S
C3384 H3375 0.930 . S
C3384 C3382 1.378 1_565 S
C3384 C3385 1.367 . S
C3385 C3384 1.367 . S
C3385 C3387 1.433 . S
C3386 C3382 1.350 . S
C3386 C3383 1.463 . S
C3386 N3390 1.427 1_545 S
C3387 H3377 0.929 . S
C3387 C3385 1.433 . S
C3387 N3390 1.384 . S
C3388 H3379 0.967 . S
C3388 C3380 1.378 . S
C3388 C3383 1.350 . S
C3389 H3376 0.929 . S
C3389 C3381 1.433 . S
C3389 N3391 1.384 . S
N3390 C3386 1.427 1_565 S
N3390 C3387 1.384 . S
N3391 C3383 1.427 . S
N3391 C3389 1.384 . S
H3392 C3398 0.930 . S
H3393 C3402 0.930 . S
H3394 C3407 0.929 . S
H3395 C3405 0.929 . S
H3396 C3400 0.929 . S
H3397 C3406 0.929 . S
C3398 H3392 0.930 . S
C3398 C3399 1.367 . S
C3398 C3406 1.378 . S
C3399 C3398 1.367 . S
C3399 C3407 1.433 . S
C3400 H3396 0.929 . S
C3400 C3402 1.378 . S
C3400 C3404 1.350 . S
C3401 C3404 1.463 . S
C3401 C3406 1.350 . S
C3401 N3409 1.427 . S
C3402 H3393 0.930 . S
C3402 C3400 1.378 . S
C3402 C3403 1.367 . S
C3403 C3402 1.367 . S
C3403 C3405 1.433 . S
C3404 C3400 1.350 . S
C3404 C3401 1.463 . S
C3404 N3408 1.427 . S
C3405 H3395 0.929 . S
C3405 C3403 1.433 . S
C3405 N3408 1.384 . S
C3406 H3397 0.929 . S
C3406 C3398 1.378 . S
C3406 C3401 1.350 . S
C3407 H3394 0.929 . S
C3407 C3399 1.433 . S
C3407 N3409 1.384 . S
N3408 C3404 1.427 . S
N3408 C3405 1.384 . S
N3409 C3401 1.427 . S
N3409 C3407 1.384 . S
H3410 C3416 0.930 . S
H3411 C3420 0.930 . S
H3412 C3425 0.929 . S
H3413 C3423 0.929 . S
H3414 C3418 0.929 1_565 S
H3415 C3424 0.929 . S
C3416 H3410 0.930 . S
C3416 C3417 1.367 . S
C3416 C3424 1.378 . S
C3417 C3416 1.367 . S
C3417 C3425 1.433 . S
C3418 H3414 0.929 1_545 S
C3418 C3420 1.378 . S
C3418 C3422 1.350 1_545 S
C3419 C3422 1.463 . S
C3419 C3424 1.350 . S
C3419 N3427 1.427 . S
C3420 H3411 0.930 . S
C3420 C3418 1.378 . S
C3420 C3421 1.367 . S
C3421 C3420 1.367 . S
C3421 C3423 1.433 . S
C3422 C3418 1.350 1_565 S
C3422 C3419 1.463 . S
C3422 N3426 1.427 1_565 S
C3423 H3413 0.929 . S
C3423 C3421 1.433 . S
C3423 N3426 1.384 . S
C3424 H3415 0.929 . S
C3424 C3416 1.378 . S
C3424 C3419 1.350 . S
C3425 H3412 0.929 . S
C3425 C3417 1.433 . S
C3425 N3427 1.384 . S
N3426 C3422 1.427 1_545 S
N3426 C3423 1.384 . S
N3427 C3419 1.427 . S
N3427 C3425 1.384 . S
H3428 C3434 0.930 . S
H3429 C3438 0.930 . S
H3430 C3443 0.929 . S
H3431 C3441 0.929 . S
H3432 C3436 0.929 . S
H3433 C3442 0.929 . S
C3434 H3428 0.930 . S
C3434 C3435 1.367 . S
C3434 C3442 1.378 . S
C3435 C3434 1.367 . S
C3435 C3443 1.433 . S
C3436 H3432 0.929 . S
C3436 C3438 1.378 . S
C3436 C3440 1.350 . S
C3437 C3440 1.478 . S
C3437 C3442 1.335 1_554 S
C3437 N3445 1.428 . S
C3438 H3429 0.930 . S
C3438 C3436 1.378 . S
C3438 C3439 1.367 . S
C3439 C3438 1.367 . S
C3439 C3441 1.433 . S
C3440 C3436 1.350 . S
C3440 C3437 1.478 . S
C3440 N3444 1.427 . S
C3441 H3431 0.929 . S
C3441 C3439 1.433 . S
C3441 N3444 1.384 . S
C3442 H3433 0.929 . S
C3442 C3434 1.378 . S
C3442 C3437 1.335 1_556 S
C3443 H3430 0.929 . S
C3443 C3435 1.433 . S
C3443 N3445 1.384 1_556 S
N3444 C3440 1.427 . S
N3444 C3441 1.384 . S
N3445 C3437 1.428 . S
N3445 C3443 1.384 1_554 S
H3446 C3452 0.930 . S
H3447 C3456 0.930 . S
H3448 C3461 0.929 . S
H3449 C3459 0.929 . S
H3450 C3454 0.929 . S
H3451 C3460 0.929 . S
C3452 H3446 0.930 . S
C3452 C3453 1.367 . S
C3452 C3460 1.378 . S
C3453 C3452 1.367 . S
C3453 C3461 1.433 . S
C3454 H3450 0.929 . S
C3454 C3456 1.378 . S
C3454 C3458 1.350 . S
C3455 C3458 1.494 . S
C3455 C3460 1.318 1_565 S
C3455 N3463 1.432 . S
C3456 H3447 0.930 . S
C3456 C3454 1.378 . S
C3456 C3457 1.367 . S
C3457 C3456 1.367 . S
C3457 C3459 1.433 . S
C3458 C3454 1.350 . S
C3458 C3455 1.494 . S
C3458 N3462 1.427 . S
C3459 H3449 0.929 . S
C3459 C3457 1.433 . S
C3459 N3462 1.384 . S
C3460 H3451 0.929 . S
C3460 C3452 1.378 . S
C3460 C3455 1.318 1_545 S
C3461 H3448 0.929 . S
C3461 C3453 1.433 . S
C3461 N3463 1.384 1_545 S
N3462 C3458 1.427 . S
N3462 C3459 1.384 . S
N3463 C3455 1.432 . S
N3463 C3461 1.384 1_565 S
H3464 C3470 0.930 . S
H3465 C3474 0.930 . S
H3466 C3479 0.929 . S
H3467 C3477 0.929 . S
H3468 C3472 0.929 . S
H3469 C3478 0.929 . S
C3470 H3464 0.930 . S
C3470 C3471 1.367 . S
C3470 C3478 1.378 . S
C3471 C3470 1.367 . S
C3471 C3479 1.433 . S
C3472 H3468 0.929 . S
C3472 C3474 1.378 . S
C3472 C3476 1.350 . S
C3473 C3476 1.463 . S
C3473 C3478 1.350 . S
C3473 N3481 1.427 . S
C3474 H3465 0.930 . S
C3474 C3472 1.378 . S
C3474 C3475 1.367 . S
C3475 C3474 1.367 . S
C3475 C3477 1.433 . S
C3476 C3472 1.350 . S
C3476 C3473 1.463 . S
C3476 N3480 1.427 . S
C3477 H3467 0.929 . S
C3477 C3475 1.433 . S
C3477 N3480 1.384 . S
C3478 H3469 0.929 . S
C3478 C3470 1.378 . S
C3478 C3473 1.350 . S
C3479 H3466 0.929 . S
C3479 C3471 1.433 . S
C3479 N3481 1.384 . S
N3480 C3476 1.427 . S
N3480 C3477 1.384 . S
N3481 C3473 1.427 . S
N3481 C3479 1.384 . S
H3482 C3488 0.930 . S
H3483 C3492 0.930 . S
H3484 C3497 0.929 . S
H3485 C3495 0.929 . S
H3486 C3490 0.929 . S
H3487 C3496 0.929 . S
C3488 H3482 0.930 . S
C3488 C3489 1.367 . S
C3488 C3496 1.378 . S
C3489 C3488 1.367 . S
C3489 C3497 1.433 . S
C3490 H3486 0.929 . S
C3490 C3492 1.378 . S
C3490 C3494 1.350 . S
C3491 C3494 1.493 . S
C3491 C3496 1.317 1_545 S
C3491 N3499 1.433 . S
C3492 H3483 0.930 . S
C3492 C3490 1.378 . S
C3492 C3493 1.367 . S
C3493 C3492 1.367 . S
C3493 C3495 1.433 . S
C3494 C3490 1.350 . S
C3494 C3491 1.493 . S
C3494 N3498 1.427 . S
C3495 H3485 0.929 . S
C3495 C3493 1.433 . S
C3495 N3498 1.384 . S
C3496 H3487 0.929 . S
C3496 C3488 1.378 . S
C3496 C3491 1.317 1_565 S
C3497 H3484 0.929 . S
C3497 C3489 1.433 . S
C3497 N3499 1.384 1_565 S
N3498 C3494 1.427 . S
N3498 C3495 1.384 . S
N3499 C3491 1.433 . S
N3499 C3497 1.384 1_545 S
H3500 C3506 0.930 . S
H3501 C3510 0.930 . S
H3502 C3515 0.929 . S
H3503 C3513 0.929 . S
H3504 C3508 0.929 . S
H3505 C3514 0.929 1_556 S
C3506 H3500 0.930 . S
C3506 C3507 1.367 . S
C3506 C3514 1.378 . S
C3507 C3506 1.367 . S
C3507 C3515 1.433 . S
C3508 H3504 0.929 . S
C3508 C3510 1.378 . S
C3508 C3512 1.350 . S
C3509 C3512 1.495 . S
C3509 C3514 1.342 1_556 S
C3509 N3517 1.405 1_556 S
C3510 H3501 0.930 . S
C3510 C3508 1.378 . S
C3510 C3511 1.367 . S
C3511 C3510 1.367 . S
C3511 C3513 1.433 . S
C3512 C3508 1.350 . S
C3512 C3509 1.495 . S
C3512 N3516 1.427 . S
C3513 H3503 0.929 . S
C3513 C3511 1.433 . S
C3513 N3516 1.384 . S
C3514 H3505 0.929 1_554 S
C3514 C3506 1.378 . S
C3514 C3509 1.342 1_554 S
C3515 H3502 0.929 . S
C3515 C3507 1.433 . S
C3515 N3517 1.384 . S
N3516 C3512 1.427 . S
N3516 C3513 1.384 . S
N3517 C3509 1.405 1_554 S
N3517 C3515 1.384 . S
H3518 C3524 0.930 . S
H3519 C3528 0.930 . S
H3520 C3533 0.929 . S
H3521 C3531 0.929 . S
H3522 C3526 0.929 . S
H3523 C3532 0.929 . S
C3524 H3518 0.930 . S
C3524 C3525 1.367 . S
C3524 C3532 1.378 . S
C3525 C3524 1.367 . S
C3525 C3533 1.433 . S
C3526 H3522 0.929 . S
C3526 C3528 1.378 . S
C3526 C3530 1.350 . S
C3527 C3530 1.463 . S
C3527 C3532 1.350 1_455 S
C3527 N3535 1.423 1_455 S
C3528 H3519 0.930 . S
C3528 C3526 1.378 . S
C3528 C3529 1.367 . S
C3529 C3528 1.367 . S
C3529 C3531 1.433 . S
C3530 C3526 1.350 . S
C3530 C3527 1.463 . S
C3530 N3534 1.427 . S
C3531 H3521 0.929 . S
C3531 C3529 1.433 . S
C3531 N3534 1.384 . S
C3532 H3523 0.929 . S
C3532 C3524 1.378 . S
C3532 C3527 1.350 1_655 S
C3533 H3520 0.929 . S
C3533 C3525 1.433 . S
C3533 N3535 1.413 . S
N3534 C3530 1.427 . S
N3534 C3531 1.384 . S
N3535 C3527 1.423 1_655 S
N3535 C3533 1.413 . S
H3536 C3542 0.930 . S
H3537 C3546 0.930 . S
H3538 C3551 0.929 . S
H3539 C3549 0.929 . S
H3540 C3544 0.929 . S
H3541 C3550 0.929 . S
C3542 H3536 0.930 . S
C3542 C3543 1.367 . S
C3542 C3550 1.378 . S
C3543 C3542 1.367 . S
C3543 C3551 1.433 . S
C3544 H3540 0.929 . S
C3544 C3546 1.378 . S
C3544 C3548 1.350 . S
C3545 C3548 1.463 . S
C3545 C3550 1.350 . S
C3545 N3553 1.427 . S
C3546 H3537 0.930 . S
C3546 C3544 1.378 . S
C3546 C3547 1.367 . S
C3547 C3546 1.367 . S
C3547 C3549 1.433 . S
C3548 C3544 1.350 . S
C3548 C3545 1.463 . S
C3548 N3552 1.427 . S
C3549 H3539 0.929 . S
C3549 C3547 1.433 . S
C3549 N3552 1.384 . S
C3550 H3541 0.929 . S
C3550 C3542 1.378 . S
C3550 C3545 1.350 . S
C3551 H3538 0.929 . S
C3551 C3543 1.433 . S
C3551 N3553 1.384 . S
N3552 C3548 1.427 . S
N3552 C3549 1.384 . S
N3553 C3545 1.427 . S
N3553 C3551 1.384 . S
H3554 C3560 0.930 . S
H3555 C3564 0.930 . S
H3556 C3569 0.929 . S
H3557 C3567 0.929 . S
H3558 C3562 0.929 . S
H3559 C3568 0.929 . S
C3560 H3554 0.930 . S
C3560 C3561 1.367 . S
C3560 C3568 1.378 . S
C3561 C3560 1.367 . S
C3561 C3569 1.433 . S
C3562 H3558 0.929 . S
C3562 C3564 1.378 . S
C3562 C3566 1.350 . S
C3563 C3566 1.463 . S
C3563 C3568 1.350 1_655 S
C3563 N3571 1.427 . S
C3564 H3555 0.930 . S
C3564 C3562 1.378 . S
C3564 C3565 1.367 . S
C3565 C3564 1.367 . S
C3565 C3567 1.433 . S
C3566 C3562 1.350 . S
C3566 C3563 1.463 . S
C3566 N3570 1.427 . S
C3567 H3557 0.929 . S
C3567 C3565 1.433 . S
C3567 N3570 1.384 . S
C3568 H3559 0.929 . S
C3568 C3560 1.378 . S
C3568 C3563 1.350 1_455 S
C3569 H3556 0.929 . S
C3569 C3561 1.433 . S
C3569 N3571 1.384 1_455 S
N3570 C3566 1.427 . S
N3570 C3567 1.384 . S
N3571 C3563 1.427 . S
N3571 C3569 1.384 1_655 S
H3572 C3578 0.930 . S
H3573 C3582 0.930 . S
H3574 C3587 0.929 . S
H3575 C3585 0.929 . S
H3576 C3580 0.929 . S
H3577 C3586 0.918 1_655 S
C3578 H3572 0.930 . S
C3578 C3579 1.367 . S
C3578 C3586 1.378 . S
C3579 C3578 1.367 . S
C3579 C3587 1.433 . S
C3580 H3576 0.929 . S
C3580 C3582 1.378 . S
C3580 C3584 1.350 . S
C3581 C3584 1.463 . S
C3581 C3586 1.350 1_655 S
C3581 N3589 1.427 1_655 S
C3582 H3573 0.930 . S
C3582 C3580 1.378 . S
C3582 C3583 1.367 . S
C3583 C3582 1.367 . S
C3583 C3585 1.433 . S
C3584 C3580 1.350 . S
C3584 C3581 1.463 . S
C3584 N3588 1.427 . S
C3585 H3575 0.929 . S
C3585 C3583 1.433 . S
C3585 N3588 1.384 . S
C3586 H3577 0.918 1_455 S
C3586 C3578 1.378 . S
C3586 C3581 1.350 1_455 S
C3587 H3574 0.929 . S
C3587 C3579 1.433 . S
C3587 N3589 1.384 . S
N3588 C3584 1.427 . S
N3588 C3585 1.384 . S
N3589 C3581 1.427 1_455 S
N3589 C3587 1.384 . S
H3590 C3596 0.930 . S
H3591 C3600 0.930 . S
H3592 C3605 0.929 . S
H3593 C3603 0.929 . S
H3594 C3598 0.929 . S
H3595 C3604 0.929 . S
C3596 H3590 0.930 . S
C3596 C3597 1.367 . S
C3596 C3604 1.378 . S
C3597 C3596 1.367 . S
C3597 C3605 1.433 . S
C3598 H3594 0.929 . S
C3598 C3600 1.378 . S
C3598 C3602 1.350 . S
C3599 C3602 1.463 . S
C3599 C3604 1.350 . S
C3599 N3607 1.427 . S
C3600 H3591 0.930 . S
C3600 C3598 1.378 . S
C3600 C3601 1.367 . S
C3601 C3600 1.367 . S
C3601 C3603 1.433 . S
C3602 C3598 1.350 . S
C3602 C3599 1.463 . S
C3602 N3606 1.427 . S
C3603 H3593 0.929 . S
C3603 C3601 1.433 . S
C3603 N3606 1.384 . S
C3604 H3595 0.929 . S
C3604 C3596 1.378 . S
C3604 C3599 1.350 . S
C3605 H3592 0.929 . S
C3605 C3597 1.433 . S
C3605 N3607 1.384 . S
N3606 C3602 1.427 . S
N3606 C3603 1.384 . S
N3607 C3599 1.427 . S
N3607 C3605 1.384 . S
H3608 C3614 0.930 . S
H3609 C3618 0.930 . S
H3610 C3623 0.929 . S
H3611 C3621 0.929 . S
H3612 C3616 0.929 . S
H3613 C3622 0.929 . S
C3614 H3608 0.930 . S
C3614 C3615 1.367 . S
C3614 C3622 1.378 1_655 S
C3615 C3614 1.367 . S
C3615 C3623 1.433 . S
C3616 H3612 0.929 . S
C3616 C3618 1.378 . S
C3616 C3620 1.350 . S
C3617 C3620 1.463 . S
C3617 C3622 1.350 . S
C3617 N3625 1.427 1_455 S
C3618 H3609 0.930 . S
C3618 C3616 1.378 . S
C3618 C3619 1.367 . S
C3619 C3618 1.367 . S
C3619 C3621 1.433 . S
C3620 C3616 1.350 . S
C3620 C3617 1.463 . S
C3620 N3624 1.427 . S
C3621 H3611 0.929 . S
C3621 C3619 1.433 . S
C3621 N3624 1.384 . S
C3622 H3613 0.929 . S
C3622 C3614 1.378 1_455 S
C3622 C3617 1.350 . S
C3623 H3610 0.929 . S
C3623 C3615 1.433 . S
C3623 N3625 1.384 . S
N3624 C3620 1.427 . S
N3624 C3621 1.384 . S
N3625 C3617 1.427 1_655 S
N3625 C3623 1.384 . S
H3626 C3632 0.930 . S
H3627 C3636 0.930 . S
H3628 C3641 0.929 . S
H3629 C3639 0.929 . S
H3630 C3634 0.929 . S
H3631 C3640 0.929 . S
C3632 H3626 0.930 . S
C3632 C3633 1.367 . S
C3632 C3640 1.378 . S
C3633 C3632 1.367 . S
C3633 C3641 1.433 . S
C3634 H3630 0.929 . S
C3634 C3636 1.378 . S
C3634 C3638 1.350 . S
C3635 C3638 1.463 . S
C3635 C3640 1.350 . S
C3635 N3643 1.427 . S
C3636 H3627 0.930 . S
C3636 C3634 1.378 . S
C3636 C3637 1.367 . S
C3637 C3636 1.367 . S
C3637 C3639 1.433 . S
C3638 C3634 1.350 . S
C3638 C3635 1.463 . S
C3638 N3642 1.427 . S
C3639 H3629 0.929 . S
C3639 C3637 1.433 . S
C3639 N3642 1.384 . S
C3640 H3631 0.929 . S
C3640 C3632 1.378 . S
C3640 C3635 1.350 . S
C3641 H3628 0.929 . S
C3641 C3633 1.433 . S
C3641 N3643 1.384 . S
N3642 C3638 1.427 . S
N3642 C3639 1.384 . S
N3643 C3635 1.427 . S
N3643 C3641 1.384 . S
H3644 C3650 0.930 . S
H3645 C3654 0.930 . S
H3646 C3659 0.929 . S
H3647 C3657 0.929 . S
H3648 C3652 0.929 . S
H3649 C3658 0.929 . S
C3650 H3644 0.930 . S
C3650 C3651 1.367 . S
C3650 C3658 1.378 . S
C3651 C3650 1.367 . S
C3651 C3659 1.433 . S
C3652 H3648 0.929 . S
C3652 C3654 1.378 . S
C3652 C3656 1.350 . S
C3653 C3656 1.463 . S
C3653 C3658 1.350 . S
C3653 N3661 1.427 . S
C3654 H3645 0.930 . S
C3654 C3652 1.378 . S
C3654 C3655 1.367 . S
C3655 C3654 1.367 . S
C3655 C3657 1.433 . S
C3656 C3652 1.350 . S
C3656 C3653 1.463 . S
C3656 N3660 1.427 . S
C3657 H3647 0.929 . S
C3657 C3655 1.433 . S
C3657 N3660 1.384 . S
C3658 H3649 0.929 . S
C3658 C3650 1.378 . S
C3658 C3653 1.350 . S
C3659 H3646 0.929 . S
C3659 C3651 1.433 . S
C3659 N3661 1.384 . S
N3660 C3656 1.427 . S
N3660 C3657 1.384 . S
N3661 C3653 1.427 . S
N3661 C3659 1.384 . S
H3662 C3668 0.930 . S
H3663 C3672 0.930 . S
H3664 C3677 0.929 . S
H3665 C3675 0.929 . S
H3666 C3670 0.929 . S
H3667 C3676 0.929 . S
C3668 H3662 0.930 . S
C3668 C3669 1.367 . S
C3668 C3676 1.378 . S
C3669 C3668 1.367 . S
C3669 C3677 1.433 . S
C3670 H3666 0.929 . S
C3670 C3672 1.378 . S
C3670 C3674 1.350 . S
C3671 C3674 1.492 . S
C3671 C3676 1.316 1_556 S
C3671 N3679 1.436 . S
C3672 H3663 0.930 . S
C3672 C3670 1.378 . S
C3672 C3673 1.367 . S
C3673 C3672 1.367 . S
C3673 C3675 1.433 . S
C3674 C3670 1.350 . S
C3674 C3671 1.492 . S
C3674 N3678 1.427 . S
C3675 H3665 0.929 . S
C3675 C3673 1.433 . S
C3675 N3678 1.384 . S
C3676 H3667 0.929 . S
C3676 C3668 1.378 . S
C3676 C3671 1.316 1_554 S
C3677 H3664 0.929 . S
C3677 C3669 1.433 . S
C3677 N3679 1.384 1_554 S
N3678 C3674 1.427 . S
N3678 C3675 1.384 . S
N3679 C3671 1.436 . S
N3679 C3677 1.384 1_556 S
H3680 C3686 0.930 . S
H3681 C3690 0.930 . S
H3682 C3695 0.929 . S
H3683 C3693 0.929 . S
H3684 C3688 0.929 . S
H3685 C3694 0.929 . S
C3686 H3680 0.930 . S
C3686 C3687 1.367 . S
C3686 C3694 1.378 . S
C3687 C3686 1.367 . S
C3687 C3695 1.433 . S
C3688 H3684 0.929 . S
C3688 C3690 1.378 . S
C3688 C3692 1.350 . S
C3689 C3692 1.463 . S
C3689 C3694 1.350 . S
C3689 N3697 1.427 . S
C3690 H3681 0.930 . S
C3690 C3688 1.378 . S
C3690 C3691 1.367 . S
C3691 C3690 1.367 . S
C3691 C3693 1.433 . S
C3692 C3688 1.350 . S
C3692 C3689 1.463 . S
C3692 N3696 1.427 . S
C3693 H3683 0.929 . S
C3693 C3691 1.433 . S
C3693 N3696 1.384 . S
C3694 H3685 0.929 . S
C3694 C3686 1.378 . S
C3694 C3689 1.350 . S
C3695 H3682 0.929 . S
C3695 C3687 1.433 . S
C3695 N3697 1.384 . S
N3696 C3692 1.427 . S
N3696 C3693 1.384 . S
N3697 C3689 1.427 . S
N3697 C3695 1.384 . S
H3698 C3704 0.930 . S
H3699 C3708 0.930 . S
H3700 C3713 0.929 . S
H3701 C3711 0.929 . S
H3702 C3706 0.929 . S
H3703 C3712 0.929 . S
C3704 H3698 0.930 . S
C3704 C3705 1.367 . S
C3704 C3712 1.378 . S
C3705 C3704 1.367 . S
C3705 C3713 1.433 . S
C3706 H3702 0.929 . S
C3706 C3708 1.378 . S
C3706 C3710 1.350 . S
C3707 C3710 1.463 . S
C3707 C3712 1.350 . S
C3707 N3715 1.427 . S
C3708 H3699 0.930 . S
C3708 C3706 1.378 . S
C3708 C3709 1.367 . S
C3709 C3708 1.367 . S
C3709 C3711 1.433 . S
C3710 C3706 1.350 . S
C3710 C3707 1.463 . S
C3710 N3714 1.427 . S
C3711 H3701 0.929 . S
C3711 C3709 1.433 . S
C3711 N3714 1.384 . S
C3712 H3703 0.929 . S
C3712 C3704 1.378 . S
C3712 C3707 1.350 . S
C3713 H3700 0.929 . S
C3713 C3705 1.433 . S
C3713 N3715 1.384 . S
N3714 C3710 1.427 . S
N3714 C3711 1.384 . S
N3715 C3707 1.427 . S
N3715 C3713 1.384 . S
H3716 C3722 0.930 . S
H3717 C3726 0.930 . S
H3718 C3731 0.929 . S
H3719 C3729 0.929 . S
H3720 C3724 0.929 . S
H3721 C3730 0.929 . S
C3722 H3716 0.930 . S
C3722 C3723 1.367 . S
C3722 C3730 1.378 . S
C3723 C3722 1.367 . S
C3723 C3731 1.433 . S
C3724 H3720 0.929 . S
C3724 C3726 1.378 . S
C3724 C3728 1.350 . S
C3725 C3728 1.463 . S
C3725 C3730 1.350 . S
C3725 N3733 1.427 . S
C3726 H3717 0.930 . S
C3726 C3724 1.378 . S
C3726 C3727 1.367 . S
C3727 C3726 1.367 . S
C3727 C3729 1.433 . S
C3728 C3724 1.350 . S
C3728 C3725 1.463 . S
C3728 N3732 1.427 . S
C3729 H3719 0.929 . S
C3729 C3727 1.433 . S
C3729 N3732 1.384 . S
C3730 H3721 0.929 . S
C3730 C3722 1.378 . S
C3730 C3725 1.350 . S
C3731 H3718 0.929 . S
C3731 C3723 1.433 . S
C3731 N3733 1.384 . S
N3732 C3728 1.427 . S
N3732 C3729 1.384 . S
N3733 C3725 1.427 . S
N3733 C3731 1.384 . S
H3734 C3740 0.930 . S
H3735 C3744 0.930 . S
H3736 C3749 0.929 . S
H3737 C3747 0.929 . S
H3738 C3742 0.929 . S
H3739 C3748 0.929 . S
C3740 H3734 0.930 . S
C3740 C3741 1.367 . S
C3740 C3748 1.378 . S
C3741 C3740 1.367 . S
C3741 C3749 1.433 . S
C3742 H3738 0.929 . S
C3742 C3744 1.378 . S
C3742 C3746 1.317 1_556 S
C3743 C3746 1.497 . S
C3743 C3748 1.350 . S
C3743 N3751 1.427 . S
C3744 H3735 0.930 . S
C3744 C3742 1.378 . S
C3744 C3745 1.367 . S
C3745 C3744 1.367 . S
C3745 C3747 1.433 . S
C3746 C3742 1.317 1_554 S
C3746 C3743 1.497 . S
C3746 N3750 1.430 . S
C3747 H3737 0.929 . S
C3747 C3745 1.433 . S
C3747 N3750 1.384 1_556 S
C3748 H3739 0.929 . S
C3748 C3740 1.378 . S
C3748 C3743 1.350 . S
C3749 H3736 0.929 . S
C3749 C3741 1.433 . S
C3749 N3751 1.384 . S
N3750 C3746 1.430 . S
N3750 C3747 1.384 1_554 S
N3751 C3743 1.427 . S
N3751 C3749 1.384 . S
H3752 C3758 0.930 . S
H3753 C3762 0.930 . S
H3754 C3767 0.929 . S
H3755 C3765 0.929 . S
H3756 C3760 0.929 . S
H3757 C3766 0.929 . S
C3758 H3752 0.930 . S
C3758 C3759 1.367 . S
C3758 C3766 1.378 . S
C3759 C3758 1.367 . S
C3759 C3767 1.433 . S
C3760 H3756 0.929 . S
C3760 C3762 1.378 . S
C3760 C3764 1.350 . S
C3761 C3764 1.463 . S
C3761 C3766 1.350 . S
C3761 N3769 1.427 . S
C3762 H3753 0.930 . S
C3762 C3760 1.378 . S
C3762 C3763 1.367 . S
C3763 C3762 1.367 . S
C3763 C3765 1.433 . S
C3764 C3760 1.350 . S
C3764 C3761 1.463 . S
C3764 N3768 1.427 . S
C3765 H3755 0.929 . S
C3765 C3763 1.433 . S
C3765 N3768 1.384 . S
C3766 H3757 0.929 . S
C3766 C3758 1.378 . S
C3766 C3761 1.350 . S
C3767 H3754 0.929 . S
C3767 C3759 1.433 . S
C3767 N3769 1.384 . S
N3768 C3764 1.427 . S
N3768 C3765 1.384 . S
N3769 C3761 1.427 . S
N3769 C3767 1.384 . S
H3770 C3776 0.930 . S
H3771 C3780 0.930 . S
H3772 C3785 0.929 . S
H3773 C3783 0.929 . S
H3774 C3778 0.929 . S
H3775 C3784 0.929 . S
C3776 H3770 0.930 . S
C3776 C3777 1.367 . S
C3776 C3784 1.378 . S
C3777 C3776 1.367 . S
C3777 C3785 1.433 . S
C3778 H3774 0.929 . S
C3778 C3780 1.378 . S
C3778 C3782 1.350 . S
C3779 C3782 1.463 . S
C3779 C3784 1.350 . S
C3779 N3787 1.427 . S
C3780 H3771 0.930 . S
C3780 C3778 1.378 . S
C3780 C3781 1.367 . S
C3781 C3780 1.367 . S
C3781 C3783 1.433 . S
C3782 C3778 1.350 . S
C3782 C3779 1.463 . S
C3782 N3786 1.427 . S
C3783 H3773 0.929 . S
C3783 C3781 1.433 . S
C3783 N3786 1.384 . S
C3784 H3775 0.929 . S
C3784 C3776 1.378 . S
C3784 C3779 1.350 . S
C3785 H3772 0.929 . S
C3785 C3777 1.433 . S
C3785 N3787 1.384 . S
N3786 C3782 1.427 . S
N3786 C3783 1.384 . S
N3787 C3779 1.427 . S
N3787 C3785 1.384 . S
H3788 C3794 0.930 . S
H3789 C3798 0.930 . S
H3790 C3803 0.929 . S
H3791 C3801 0.929 . S
H3792 C3796 0.929 . S
H3793 C3802 0.929 . S
C3794 H3788 0.930 . S
C3794 C3795 1.367 . S
C3794 C3802 1.378 . S
C3795 C3794 1.367 . S
C3795 C3803 1.433 . S
C3796 H3792 0.929 . S
C3796 C3798 1.378 . S
C3796 C3800 1.350 . S
C3797 C3800 1.463 . S
C3797 C3802 1.350 . S
C3797 N3805 1.427 . S
C3798 H3789 0.930 . S
C3798 C3796 1.378 . S
C3798 C3799 1.367 . S
C3799 C3798 1.367 . S
C3799 C3801 1.433 . S
C3800 C3796 1.350 . S
C3800 C3797 1.463 . S
C3800 N3804 1.427 . S
C3801 H3791 0.929 . S
C3801 C3799 1.433 . S
C3801 N3804 1.384 . S
C3802 H3793 0.929 . S
C3802 C3794 1.378 . S
C3802 C3797 1.350 . S
C3803 H3790 0.929 . S
C3803 C3795 1.433 . S
C3803 N3805 1.384 . S
N3804 C3800 1.427 . S
N3804 C3801 1.384 . S
N3805 C3797 1.427 . S
N3805 C3803 1.384 . S
H3806 C3812 0.930 . S
H3807 C3816 0.930 . S
H3808 C3821 0.929 . S
H3809 C3819 0.929 . S
H3810 C3814 0.929 . S
H3811 C3820 0.929 . S
C3812 H3806 0.930 . S
C3812 C3813 1.367 . S
C3812 C3820 1.378 . S
C3813 C3812 1.367 . S
C3813 C3821 1.433 . S
C3814 H3810 0.929 . S
C3814 C3816 1.378 . S
C3814 C3818 1.350 . S
C3815 C3818 1.463 . S
C3815 C3820 1.350 . S
C3815 N3823 1.427 . S
C3816 H3807 0.930 . S
C3816 C3814 1.378 . S
C3816 C3817 1.367 . S
C3817 C3816 1.367 . S
C3817 C3819 1.433 . S
C3818 C3814 1.350 . S
C3818 C3815 1.463 . S
C3818 N3822 1.427 . S
C3819 H3809 0.929 . S
C3819 C3817 1.433 . S
C3819 N3822 1.384 . S
C3820 H3811 0.929 . S
C3820 C3812 1.378 . S
C3820 C3815 1.350 . S
C3821 H3808 0.929 . S
C3821 C3813 1.433 . S
C3821 N3823 1.384 . S
N3822 C3818 1.427 . S
N3822 C3819 1.384 . S
N3823 C3815 1.427 . S
N3823 C3821 1.384 . S
H3824 C3830 0.930 . S
H3825 C3834 0.930 . S
H3826 C3839 0.929 . S
H3827 C3837 0.929 . S
H3828 C3832 0.929 . S
H3829 C3838 0.929 . S
C3830 H3824 0.930 . S
C3830 C3831 1.367 . S
C3830 C3838 1.378 . S
C3831 C3830 1.367 . S
C3831 C3839 1.433 . S
C3832 H3828 0.929 . S
C3832 C3834 1.378 1_554 S
C3832 C3836 1.350 . S
C3833 C3836 1.463 . S
C3833 C3838 1.350 . S
C3833 N3841 1.427 . S
C3834 H3825 0.930 . S
C3834 C3832 1.378 1_556 S
C3834 C3835 1.367 . S
C3835 C3834 1.367 . S
C3835 C3837 1.433 . S
C3836 C3832 1.350 . S
C3836 C3833 1.463 . S
C3836 N3840 1.427 1_554 S
C3837 H3827 0.929 . S
C3837 C3835 1.433 . S
C3837 N3840 1.384 . S
C3838 H3829 0.929 . S
C3838 C3830 1.378 . S
C3838 C3833 1.350 . S
C3839 H3826 0.929 . S
C3839 C3831 1.433 . S
C3839 N3841 1.384 . S
N3840 C3836 1.427 1_556 S
N3840 C3837 1.384 . S
N3841 C3833 1.427 . S
N3841 C3839 1.384 . S
H3842 C3848 0.930 . S
H3843 C3852 0.930 . S
H3844 C3857 0.929 . S
H3845 C3855 0.929 . S
H3846 C3850 0.929 . S
H3847 C3856 0.929 . S
C3848 H3842 0.930 . S
C3848 C3849 1.367 . S
C3848 C3856 1.378 . S
C3849 C3848 1.367 . S
C3849 C3857 1.433 . S
C3850 H3846 0.929 . S
C3850 C3852 1.378 . S
C3850 C3854 1.350 . S
C3851 C3854 1.463 . S
C3851 C3856 1.350 . S
C3851 N3859 1.427 . S
C3852 H3843 0.930 . S
C3852 C3850 1.378 . S
C3852 C3853 1.367 . S
C3853 C3852 1.367 . S
C3853 C3855 1.433 . S
C3854 C3850 1.350 . S
C3854 C3851 1.463 . S
C3854 N3858 1.427 . S
C3855 H3845 0.929 . S
C3855 C3853 1.433 . S
C3855 N3858 1.384 . S
C3856 H3847 0.929 . S
C3856 C3848 1.378 . S
C3856 C3851 1.350 . S
C3857 H3844 0.929 . S
C3857 C3849 1.433 . S
C3857 N3859 1.384 . S
N3858 C3854 1.427 . S
N3858 C3855 1.384 . S
N3859 C3851 1.427 . S
N3859 C3857 1.384 . S
H3860 C3866 0.930 . S
H3861 C3870 0.930 . S
H3862 C3875 0.929 . S
H3863 C3873 0.929 . S
H3864 C3868 0.929 . S
H3865 C3874 0.929 . S
C3866 H3860 0.930 . S
C3866 C3867 1.367 . S
C3866 C3874 1.378 . S
C3867 C3866 1.367 . S
C3867 C3875 1.433 . S
C3868 H3864 0.929 . S
C3868 C3870 1.378 . S
C3868 C3872 1.350 . S
C3869 C3872 1.463 . S
C3869 C3874 1.350 . S
C3869 N3877 1.427 . S
C3870 H3861 0.930 . S
C3870 C3868 1.378 . S
C3870 C3871 1.367 . S
C3871 C3870 1.367 . S
C3871 C3873 1.433 . S
C3872 C3868 1.350 . S
C3872 C3869 1.463 . S
C3872 N3876 1.427 . S
C3873 H3863 0.929 . S
C3873 C3871 1.433 . S
C3873 N3876 1.384 . S
C3874 H3865 0.929 . S
C3874 C3866 1.378 . S
C3874 C3869 1.350 . S
C3875 H3862 0.929 . S
C3875 C3867 1.433 . S
C3875 N3877 1.384 . S
N3876 C3872 1.427 . S
N3876 C3873 1.384 . S
N3877 C3869 1.427 . S
N3877 C3875 1.384 . S
H3878 C3884 0.930 . S
H3879 C3888 0.930 . S
H3880 C3893 0.929 . S
H3881 C3891 0.929 . S
H3882 C3886 0.929 . S
H3883 C3892 0.929 . S
C3884 H3878 0.930 . S
C3884 C3885 1.367 . S
C3884 C3892 1.378 . S
C3885 C3884 1.367 . S
C3885 C3893 1.433 . S
C3886 H3882 0.929 . S
C3886 C3888 1.378 . S
C3886 C3890 1.350 . S
C3887 C3890 1.463 . S
C3887 C3892 1.350 . S
C3887 N3895 1.427 . S
C3888 H3879 0.930 . S
C3888 C3886 1.378 . S
C3888 C3889 1.367 . S
C3889 C3888 1.367 . S
C3889 C3891 1.433 . S
C3890 C3886 1.350 . S
C3890 C3887 1.463 . S
C3890 N3894 1.427 . S
C3891 H3881 0.929 . S
C3891 C3889 1.433 . S
C3891 N3894 1.384 . S
C3892 H3883 0.929 . S
C3892 C3884 1.378 . S
C3892 C3887 1.350 . S
C3893 H3880 0.929 . S
C3893 C3885 1.433 . S
C3893 N3895 1.384 . S
N3894 C3890 1.427 . S
N3894 C3891 1.384 . S
N3895 C3887 1.427 . S
N3895 C3893 1.384 . S
H3896 C3902 0.930 . S
H3897 C3906 0.930 . S
H3898 C3911 0.929 . S
H3899 C3909 0.929 . S
H3900 C3904 0.929 1_554 S
H3901 C3910 0.929 . S
C3902 H3896 0.930 . S
C3902 C3903 1.367 . S
C3902 C3910 1.378 1_554 S
C3903 C3902 1.367 . S
C3903 C3911 1.433 . S
C3904 H3900 0.929 1_556 S
C3904 C3906 1.378 . S
C3904 C3908 1.350 . S
C3905 C3908 1.463 . S
C3905 C3910 1.350 . S
C3905 N3913 1.427 1_556 S
C3906 H3897 0.930 . S
C3906 C3904 1.378 . S
C3906 C3907 1.367 . S
C3907 C3906 1.367 . S
C3907 C3909 1.433 . S
C3908 C3904 1.350 . S
C3908 C3905 1.463 . S
C3908 N3912 1.427 . S
C3909 H3899 0.929 . S
C3909 C3907 1.433 . S
C3909 N3912 1.384 . S
C3910 H3901 0.929 . S
C3910 C3902 1.378 1_556 S
C3910 C3905 1.350 . S
C3911 H3898 0.929 . S
C3911 C3903 1.433 . S
C3911 N3913 1.384 . S
N3912 C3908 1.427 . S
N3912 C3909 1.384 . S
N3913 C3905 1.427 1_554 S
N3913 C3911 1.384 . S
H3914 C3920 0.930 . S
H3915 C3924 0.930 . S
H3916 C3929 0.929 . S
H3917 C3927 0.929 . S
H3918 C3922 0.929 . S
H3919 C3928 0.929 . S
C3920 H3914 0.930 . S
C3920 C3921 1.367 . S
C3920 C3928 1.378 . S
C3921 C3920 1.367 . S
C3921 C3929 1.433 . S
C3922 H3918 0.929 . S
C3922 C3924 1.378 . S
C3922 C3926 1.350 . S
C3923 C3926 1.463 . S
C3923 C3928 1.350 . S
C3923 N3931 1.427 . S
C3924 H3915 0.930 . S
C3924 C3922 1.378 . S
C3924 C3925 1.367 . S
C3925 C3924 1.367 . S
C3925 C3927 1.433 . S
C3926 C3922 1.350 . S
C3926 C3923 1.463 . S
C3926 N3930 1.427 . S
C3927 H3917 0.929 . S
C3927 C3925 1.433 . S
C3927 N3930 1.384 . S
C3928 H3919 0.929 . S
C3928 C3920 1.378 . S
C3928 C3923 1.350 . S
C3929 H3916 0.929 . S
C3929 C3921 1.433 . S
C3929 N3931 1.384 . S
N3930 C3926 1.427 . S
N3930 C3927 1.384 . S
N3931 C3923 1.427 . S
N3931 C3929 1.384 . S
H3932 C3938 0.930 . S
H3933 C3942 0.930 . S
H3934 C3947 0.929 . S
H3935 C3945 0.929 . S
H3936 C3940 0.929 . S
H3937 C3946 0.929 . S
C3938 H3932 0.930 . S
C3938 C3939 1.367 . S
C3938 C3946 1.378 . S
C3939 C3938 1.367 . S
C3939 C3947 1.433 . S
C3940 H3936 0.929 . S
C3940 C3942 1.378 . S
C3940 C3944 1.350 . S
C3941 C3944 1.463 . S
C3941 C3946 1.350 . S
C3941 N3949 1.427 . S
C3942 H3933 0.930 . S
C3942 C3940 1.378 . S
C3942 C3943 1.367 . S
C3943 C3942 1.367 . S
C3943 C3945 1.433 . S
C3944 C3940 1.350 . S
C3944 C3941 1.463 . S
C3944 N3948 1.427 . S
C3945 H3935 0.929 . S
C3945 C3943 1.433 . S
C3945 N3948 1.384 . S
C3946 H3937 0.929 . S
C3946 C3938 1.378 . S
C3946 C3941 1.350 . S
C3947 H3934 0.929 . S
C3947 C3939 1.433 . S
C3947 N3949 1.384 . S
N3948 C3944 1.427 . S
N3948 C3945 1.384 . S
N3949 C3941 1.427 . S
N3949 C3947 1.384 . S
H3950 C3956 0.930 . S
H3951 C3960 0.930 . S
H3952 C3965 0.929 . S
H3953 C3963 0.929 . S
H3954 C3958 0.929 . S
H3955 C3964 0.929 . S
C3956 H3950 0.930 . S
C3956 C3957 1.367 . S
C3956 C3964 1.378 . S
C3957 C3956 1.367 . S
C3957 C3965 1.433 . S
C3958 H3954 0.929 . S
C3958 C3960 1.378 . S
C3958 C3962 1.350 . S
C3959 C3962 1.463 . S
C3959 C3964 1.350 . S
C3959 N3967 1.427 . S
C3960 H3951 0.930 . S
C3960 C3958 1.378 . S
C3960 C3961 1.367 . S
C3961 C3960 1.367 . S
C3961 C3963 1.433 . S
C3962 C3958 1.350 . S
C3962 C3959 1.463 . S
C3962 N3966 1.427 . S
C3963 H3953 0.929 . S
C3963 C3961 1.433 . S
C3963 N3966 1.384 . S
C3964 H3955 0.929 . S
C3964 C3956 1.378 . S
C3964 C3959 1.350 . S
C3965 H3952 0.929 . S
C3965 C3957 1.433 . S
C3965 N3967 1.384 . S
N3966 C3962 1.427 . S
N3966 C3963 1.384 . S
N3967 C3959 1.427 . S
N3967 C3965 1.384 . S
C2823 C57 0.922 . S
C2827 C1193 0.923 . S
C2841 C2220 0.923 . S
C2845 C145 0.922 . S
C2859 C225 0.921 . S
C2863 C1377 0.922 . S
C2877 C313 0.922 . S
C2881 C2132 0.921 . S
C2895 C372 0.921 . S
C2899 C1525 0.922 . S
C2913 C460 0.921 . S
C2917 C1993 0.922 . S
C2931 C557 0.922 . S
C2935 C1692 0.921 . S
C2949 C2785 0.921 . S
C2953 C645 0.922 . S
C2967 C1877 0.922 . S
C2971 C733 0.921 . S
C2985 C812 0.923 . S
C2989 C1633 0.922 . S
C3003 C2053 0.922 . S
C3007 C909 0.922 . S
C3021 C1025 0.922 . S
C3025 C1437 0.921 . S
C3039 C1252 0.922 . S
C3043 C1105 0.921 . S
C3057 C1809 0.922 . S
C3061 C2484 0.923 . S
C3075 C2601 0.921 . S
C3079 C2345 0.922 . S
C3093 C2689 0.922 . S
C3097 C2425 0.923 . S
C3111 C29 1.693 . S
C3115 C117 1.695 . S
C3129 C233 1.709 . S
C3133 C108 1.707 . S
C3147 C284 1.691 . S
C3151 C196 1.695 . S
C3165 C293 1.698 . S
C3169 C49 1.701 . S
C3183 C673 1.686 . S
C3187 C401 1.692 . S
C3201 C497 1.698 . S
C3205 C381 1.700 . S
C3219 C585 1.690 . S
C3223 C489 1.695 . S
C3237 C548 1.700 . S
C3241 C665 1.698 . S
C3255 C821 1.709 . S
C3259 C20 1.703 . S
C3273 C753 1.708 . S
C3277 C321 1.708 . S
C3291 C929 1.698 . S
C3295 C137 1.701 . S
C3309 C2405 1.697 . S
C3313 C636 1.702 . S
C3327 C2493 1.701 . S
C3331 C205 1.698 . S
C3345 C1017 1.709 . S
C3349 C409 1.707 . S
C3363 C577 1.708 . S
C3367 C1113 1.707 . S
C3381 C1261 1.690 . S
C3385 C1201 1.686 . S
C3399 C1349 1.695 . S
C3403 C1289 1.712 . S
C3417 C1428 1.686 . S
C3421 C1369 1.685 . S
C3435 C1164 1.703 . S
C3439 C1457 1.711 . S
C3453 C1516 1.695 . S
C3457 C1817 1.692 . S
C3471 C1553 1.703 . S
C3475 C1613 1.712 . S
C3489 C1701 1.688 . S
C3493 C1641 1.685 . S
C3507 C1721 1.702 . S
C3511 C1789 1.714 . S
C3525 C1173 1.714 . S
C3529 C1965 1.701 . S
C3543 C1897 1.714 . S
C3547 C1465 1.701 . S
C3561 C2073 1.714 . S
C3565 C1281 1.698 . S
C3579 C2669 1.705 . S
C3583 C1780 1.693 . S
C3597 C2757 1.696 . S
C3601 C1340 1.705 . S
C3615 C1545 1.710 . S
C3619 C2161 1.703 . S
C3633 C2249 1.702 . S
C3637 C1729 1.714 . S
C3651 C1076 1.693 . S
C3655 C2317 1.696 . S
C3669 C2433 1.704 . S
C3673 C1085 1.698 . S
C3687 C997 1.694 . S
C3691 C2396 1.695 . S
C3705 C988 1.708 . S
C3709 C2337 1.706 . S
C3723 C761 1.690 . S
C3727 C2513 1.685 . S
C3741 C849 1.697 . S
C3745 C724 1.702 . S
C3759 C937 1.685 . S
C3763 C841 1.685 . S
C3777 C900 1.702 . S
C3781 C2521 1.698 . S
C3795 C2308 1.700 . S
C3799 C469 1.706 . S
C3813 C2229 1.685 . S
C3817 C2609 1.689 . S
C3831 C2257 1.714 . S
C3835 C2660 1.700 . S
C3849 C2697 1.693 . S
C3853 C2141 1.689 . S
C3867 C2169 1.714 . S
C3871 C2572 1.702 . S
C3885 C2777 1.695 . S
C3889 C1868 1.693 . S
C3903 C1905 1.695 . S
C3907 C1956 1.712 . S
C3921 C2044 1.686 . S
C3925 C1985 1.690 . S
C3939 C2081 1.699 . S
C3943 C2748 1.706 . S
C3957 C2581 1.705 . S
C3961 C1604 1.693 . S
