# Generated by pormake.
# Topology wjg, (4)-cn, num edge types: 1
# Building blocks:
#     Node 0, Type 0, BuildingBlock: QUQFOY_clean_sbu_1, # of connection points: 4
#     Node 1, Type 0, BuildingBlock: QUQFOY_clean_sbu_1, # of connection points: 4
#     Node 2, Type 0, BuildingBlock: QUQFOY_clean_sbu_1, # of connection points: 4
#     Node 3, Type 0, BuildingBlock: QUQFOY_clean_sbu_1, # of connection points: 4
#     Node 4, Type 0, BuildingBlock: QUQFOY_clean_sbu_1, # of connection points: 4
#     Node 5, Type 0, BuildingBlock: QUQFOY_clean_sbu_1, # of connection points: 4
#     Node 6, Type 0, BuildingBlock: QUQFOY_clean_sbu_1, # of connection points: 4
#     Node 7, Type 0, BuildingBlock: QUQFOY_clean_sbu_1, # of connection points: 4
#     Node 8, Type 0, BuildingBlock: QUQFOY_clean_sbu_1, # of connection points: 4
#     Node 9, Type 0, BuildingBlock: QUQFOY_clean_sbu_1, # of connection points: 4
#     Node 10, Type 0, BuildingBlock: QUQFOY_clean_sbu_1, # of connection points: 4
#     Node 11, Type 0, BuildingBlock: QUQFOY_clean_sbu_1, # of connection points: 4
#     Edge 12, Type (0, 0), BuildingBlock: AJUNOK_clean_linker_0, # of connection points: 2
#     Edge 13, Type (0, 0), BuildingBlock: AJUNOK_clean_linker_0, # of connection points: 2
#     Edge 14, Type (0, 0), BuildingBlock: AJUNOK_clean_linker_0, # of connection points: 2
#     Edge 15, Type (0, 0), BuildingBlock: AJUNOK_clean_linker_0, # of connection points: 2
#     Edge 16, Type (0, 0), BuildingBlock: AJUNOK_clean_linker_0, # of connection points: 2
#     Edge 17, Type (0, 0), BuildingBlock: AJUNOK_clean_linker_0, # of connection points: 2
#     Edge 18, Type (0, 0), BuildingBlock: AJUNOK_clean_linker_0, # of connection points: 2
#     Edge 19, Type (0, 0), BuildingBlock: AJUNOK_clean_linker_0, # of connection points: 2
#     Edge 20, Type (0, 0), BuildingBlock: AJUNOK_clean_linker_0, # of connection points: 2
#     Edge 21, Type (0, 0), BuildingBlock: AJUNOK_clean_linker_0, # of connection points: 2
#     Edge 22, Type (0, 0), BuildingBlock: AJUNOK_clean_linker_0, # of connection points: 2
#     Edge 23, Type (0, 0), BuildingBlock: AJUNOK_clean_linker_0, # of connection points: 2
#     Edge 24, Type (0, 0), BuildingBlock: AJUNOK_clean_linker_0, # of connection points: 2
#     Edge 25, Type (0, 0), BuildingBlock: AJUNOK_clean_linker_0, # of connection points: 2
#     Edge 26, Type (0, 0), BuildingBlock: AJUNOK_clean_linker_0, # of connection points: 2
#     Edge 27, Type (0, 0), BuildingBlock: AJUNOK_clean_linker_0, # of connection points: 2
#     Edge 28, Type (0, 0), BuildingBlock: AJUNOK_clean_linker_0, # of connection points: 2
#     Edge 29, Type (0, 0), BuildingBlock: AJUNOK_clean_linker_0, # of connection points: 2
#     Edge 30, Type (0, 0), BuildingBlock: AJUNOK_clean_linker_0, # of connection points: 2
#     Edge 31, Type (0, 0), BuildingBlock: AJUNOK_clean_linker_0, # of connection points: 2
#     Edge 32, Type (0, 0), BuildingBlock: AJUNOK_clean_linker_0, # of connection points: 2
#     Edge 33, Type (0, 0), BuildingBlock: AJUNOK_clean_linker_0, # of connection points: 2
#     Edge 34, Type (0, 0), BuildingBlock: AJUNOK_clean_linker_0, # of connection points: 2
#     Edge 35, Type (0, 0), BuildingBlock: AJUNOK_clean_linker_0, # of connection points: 2
# Relax obj value: 0.287
# Max RMSD: 0.140
# Mean RMSD: 0.137
data_MOF--net-wjg--node1-QUQFOY_clean_sbu_1--edge1-AJUNOK_clean_linker_0
_symmetry_space_group_name_H-M    P1
_symmetry_Int_Tables_number       1
_symmetry_cell_setting            triclinic
loop_
_symmetry_equiv_pos_as_xyz
'x, y, z'
_cell_length_a     26.863113
_cell_length_b     26.638344
_cell_length_c     28.923523
_cell_angle_alpha  90.297768
_cell_angle_beta   90.14676
_cell_angle_gamma 120.03392
loop_
_atom_site_label
_atom_site_type_symbol
_atom_site_fract_x
_atom_site_fract_y
_atom_site_fract_z
_atom_type_partial_charge
O0 O 0.09742 0.26335 0.34201 0.0
Cd1 Cd 0.0799 0.32961 0.34913 0.0
Cd2 Cd 0.19084 0.38637 0.33623 0.0
O3 O 0.16664 0.31551 0.29417 0.0
O4 O 0.0037 0.30839 0.32133 0.0
O5 O 0.08722 0.37203 0.2903 0.0
C6 C 0.03169 0.34141 0.28693 0.0
C7 C 0.27607 0.47575 0.33111 0.0
C8 C 0.13752 0.26823 0.31599 0.0
C9 C 0.14739 0.36516 0.43171 0.0
O10 O 0.1831 0.36458 0.40376 0.0
O11 O 0.10263 0.36478 0.41609 0.0
O12 O 0.27581 0.42761 0.33409 0.0
O13 O 0.22719 0.47315 0.32523 0.0
O14 O 0.8237 0.10931 0.67928 0.0
Cd15 Cd 0.73738 0.0816 0.68116 0.0
Cd16 Cd 0.78638 0.20058 0.67447 0.0
O17 O 0.83886 0.18204 0.63553 0.0
O18 O 0.69033 0.00593 0.64814 0.0
O19 O 0.70288 0.08967 0.62206 0.0
C20 C 0.68289 0.03468 0.61548 0.0
C21 C 0.79649 0.2932 0.67254 0.0
C22 C 0.85834 0.15347 0.65626 0.0
C23 C 0.75027 0.13983 0.76726 0.0
O24 O 0.78384 0.18257 0.74269 0.0
O25 O 0.71511 0.09154 0.74806 0.0
O26 O 0.83856 0.28533 0.68273 0.0
O27 O 0.74925 0.24866 0.65868 0.0
O28 O 0.59082 0.78591 0.07055 0.0
Cd29 Cd 0.58524 0.7958 1.00199 0.0
Cd30 Cd 0.64987 0.74448 1.01217 0.0
O31 O 0.61288 0.71739 0.07741 0.0
O32 O 0.54841 0.84386 1.00974 0.0
O33 O 0.50164 0.75577 0.98058 0.0
C34 C 0.50052 0.8003 0.99692 0.0
C35 C 0.64341 0.69472 0.94351 0.0
C36 C 0.59708 0.75087 0.09564 0.0
C37 C 0.70725 0.87122 0.99712 0.0
O38 O 0.71144 0.83076 1.01627 0.0
O39 O 0.6615 0.85929 0.97511 0.0
O40 O 0.67687 0.69764 0.97705 0.0
O41 O 0.61047 0.71657 0.95062 0.0
O42 O 0.86418 0.70623 0.38314 0.0
Cd43 Cd 0.91349 0.66669 0.37219 0.0
Cd44 Cd 0.77595 0.55583 0.40824 0.0
O45 O 0.77915 0.63416 0.40784 0.0
O46 O 0.98131 0.71145 0.33128 0.0
O47 O 0.90549 0.62732 0.31102 0.0
C48 C 0.95502 0.67112 0.30045 0.0
C49 C 0.68953 0.47295 0.4225 0.0
C50 C 0.81356 0.68747 0.39911 0.0
C51 C 0.88559 0.59533 0.44614 0.0
O52 O 0.85367 0.56217 0.41409 0.0
O53 O 0.93207 0.6388 0.43323 0.0
O54 O 0.71907 0.50767 0.4557 0.0
O55 O 0.70968 0.48469 0.38093 0.0
O56 O 0.13633 0.87863 0.67709 0.0
Cd57 Cd 0.21915 0.89514 0.68441 0.0
Cd58 Cd 0.16183 0.78404 0.67208 0.0
O59 O 0.11859 0.80892 0.6283 0.0
O60 O 0.27486 0.97096 0.65655 0.0
O61 O 0.25238 0.88565 0.62558 0.0
C62 C 0.27809 0.94157 0.62197 0.0
C63 C 0.16796 0.70028 0.66882 0.0
C64 C 0.10133 0.83903 0.64992 0.0
C65 C 0.1876 0.82748 0.76663 0.0
O66 O 0.14818 0.79384 0.73925 0.0
O67 O 0.23222 0.8715 0.75035 0.0
O68 O 0.11915 0.69839 0.66993 0.0
O69 O 0.21353 0.75019 0.66296 0.0
O70 O 0.38728 0.19864 0.08451 0.0
Cd71 Cd 0.40353 0.19681 1.01643 0.0
Cd72 Cd 0.33741 0.25016 1.02529 0.0
O73 O 0.37355 0.27309 0.09167 0.0
O74 O 0.4326 0.14176 1.02387 0.0
O75 O 0.48833 0.2317 1.00161 0.0
C76 C 0.48335 0.18321 1.01483 0.0
C77 C 0.3381 0.30187 0.96019 0.0
C78 C 0.38228 0.23458 0.10994 0.0
C79 C 0.28521 0.12828 0.9986 0.0
O80 O 0.27801 0.16338 1.02358 0.0
O81 O 0.33206 0.14748 0.97655 0.0
O82 O 0.30574 0.29587 0.99528 0.0
O83 O 0.37389 0.28286 0.96406 0.0
O84 O 0.70332 0.85133 0.38939 0.0
Cd85 Cd 0.63878 0.86971 0.37596 0.0
Cd86 Cd 0.58367 0.76114 0.38475 0.0
O87 O 0.64514 0.78042 0.43426 0.0
O88 O 0.65944 0.947 0.40308 0.0
O89 O 0.59361 0.86324 0.43285 0.0
C90 C 0.62488 0.91911 0.43664 0.0
C91 C 0.49115 0.68099 0.3843 0.0
C92 C 0.69573 0.81358 0.41947 0.0
C93 C 0.60906 0.80462 0.29167 0.0
O94 O 0.6137 0.77039 0.31905 0.0
O95 O 0.60613 0.84758 0.30828 0.0
O96 O 0.53616 0.67561 0.3852 0.0
O97 O 0.4985 0.73249 0.38925 0.0
O98 O 0.8371 0.72147 0.70199 0.0
Cd99 Cd 0.75461 0.65341 0.69697 0.0
Cd100 Cd 0.81309 0.59999 0.71278 0.0
O101 O 0.8603 0.67403 0.75081 0.0
O102 O 0.69881 0.67251 0.7266 0.0
O103 O 0.72434 0.61234 0.75706 0.0
C104 C 0.69756 0.64128 0.76129 0.0
C105 C 0.81052 0.51195 0.72188 0.0
C106 C 0.87436 0.71994 0.72802 0.0
C107 C 0.7846 0.61205 0.61613 0.0
O108 O 0.82184 0.61461 0.6442 0.0
O109 O 0.74165 0.61575 0.63066 0.0
O110 O 0.85809 0.55968 0.71636 0.0
O111 O 0.76471 0.51521 0.7287 0.0
O112 O 0.19908 0.81838 0.98889 0.0
Cd113 Cd 0.2159 0.81683 0.05674 0.0
Cd114 Cd 0.10291 0.7728 0.05122 0.0
O115 O 0.10949 0.74778 0.98409 0.0
O116 O 0.30062 0.85731 0.04979 0.0
O117 O 0.25103 0.76597 0.0702 0.0
C118 C 0.2992 0.80925 0.05706 0.0
C119 C 0.05719 0.72152 0.11734 0.0
C120 C 0.15624 0.78417 0.96449 0.0
C121 C 0.17745 0.89682 0.07324 0.0
O122 O 0.1317 0.86009 0.05268 0.0
O123 O 0.20928 0.87996 0.09227 0.0
O124 O 0.02833 0.72813 0.08434 0.0
O125 O 0.11139 0.74019 0.11088 0.0
O126 O 0.25101 0.11935 0.38098 0.0
Cd127 Cd 0.32079 0.1074 0.38249 0.0
Cd128 Cd 0.3705 0.21549 0.40539 0.0
O129 O 0.29075 0.18808 0.4331 0.0
O130 O 0.30359 0.03103 0.40909 0.0
O131 O 0.35597 0.11544 0.44497 0.0
C132 C 0.33116 0.05948 0.44586 0.0
C133 C 0.45872 0.28219 0.43635 0.0
C134 C 0.24887 0.15751 0.40592 0.0
C135 C 0.37612 0.18753 0.30699 0.0
O136 O 0.37282 0.22209 0.3353 0.0
O137 O 0.36689 0.13818 0.32106 0.0
O138 O 0.42114 0.29691 0.42588 0.0
O139 O 0.444 0.2281 0.43361 0.0
O140 O 0.12565 0.27229 0.71557 0.0
Cd141 Cd 0.21172 0.33317 0.7148 0.0
Cd142 Cd 0.16461 0.40147 0.72158 0.0
O143 O 0.10173 0.32868 0.7534 0.0
O144 O 0.2595 0.30654 0.74852 0.0
O145 O 0.24545 0.37713 0.774 0.0
C146 C 0.26641 0.34328 0.78092 0.0
C147 C 0.16664 0.4905 0.72521 0.0
C148 C 0.08742 0.28007 0.7344 0.0
C149 C 0.20029 0.37803 0.62825 0.0
O150 O 0.16786 0.38845 0.65305 0.0
O151 O 0.23433 0.36386 0.64737 0.0
O152 O 0.12113 0.44305 0.7143 0.0
O153 O 0.21012 0.48698 0.73994 0.0
O154 O 0.7724 0.14155 0.99147 0.0
Cd155 Cd 0.76527 0.15666 0.05897 0.0
Cd156 Cd 0.87417 0.2176 0.04512 0.0
O157 O 0.84773 0.22708 0.979 0.0
O158 O 0.68035 0.11426 0.06339 0.0
O159 O 0.73315 0.20951 0.07022 0.0
C160 C 0.68296 0.16382 0.06568 0.0
C161 C 0.91744 0.2789 0.1084 0.0
C162 C 0.80505 0.18018 0.96344 0.0
C163 C 0.82405 0.09945 0.07939 0.0
O164 O 0.86175 0.1354 0.05201 0.0
O165 O 0.79396 0.11582 0.10182 0.0
O166 O 0.94798 0.27736 0.07437 0.0
O167 O 0.86199 0.24984 0.10388 0.0
C168 C 0.3809 0.52834 0.34794 0.0
C169 C 0.33028 0.53071 0.34087 0.0
C170 C 0.43158 0.57662 0.36342 0.0
C171 C 0.4345 0.63 0.37228 0.0
H172 H 0.38146 0.48839 0.34228 0.0
H173 H 0.46901 0.57181 0.36808 0.0
S174 S 0.31451 0.66021 0.35836 0.0
N175 N 0.28616 0.59122 0.34359 0.0
N176 N 0.38229 0.68286 0.37198 0.0
C177 C 0.38448 0.63355 0.36487 0.0
C178 C 0.33232 0.58385 0.3492 0.0
C179 C 0.75086 0.3533 0.69006 0.0
C180 C 0.80081 0.34986 0.68252 0.0
C181 C 0.75425 0.40516 0.70505 0.0
C182 C 0.80771 0.45565 0.71289 0.0
H183 H 0.70876 0.31539 0.68516 0.0
H184 H 0.71459 0.40588 0.70961 0.0
S185 S 0.9514 0.46958 0.6975 0.0
N186 N 0.90539 0.40161 0.6835 0.0
N187 N 0.91184 0.49861 0.71181 0.0
C188 C 0.85798 0.45264 0.70551 0.0
C189 C 0.8545 0.39997 0.69021 0.0
C190 C 0.44946 0.85293 1.0182 0.0
C191 C 0.44657 0.79989 1.00795 0.0
C192 C 0.40215 0.85487 1.03585 0.0
C193 C 0.34973 0.80391 0.04433 0.0
H194 H 0.489 0.89362 1.01314 0.0
H195 H 0.40674 0.89699 0.04262 0.0
S196 S 0.3193 0.65352 1.02352 0.0
N197 N 0.38696 0.69474 1.00775 0.0
N198 N 0.29737 0.69847 0.04072 0.0
C199 C 0.34593 0.75034 1.03425 0.0
C200 C 0.39438 0.74834 1.01591 0.0
C201 C 0.56145 0.32123 0.4175 0.0
C202 C 0.51939 0.32734 0.44172 0.0
C203 C 0.61705 0.36849 0.41193 0.0
C204 C 0.6327 0.42264 0.4317 0.0
H205 H 0.55032 0.28079 0.4001 0.0
H206 H 0.64763 0.36294 0.39136 0.0
S207 S 0.53988 0.45987 0.50132 0.0
N208 N 0.49773 0.39097 0.48705 0.0
N209 N 0.60329 0.47914 0.47865 0.0
C210 C 0.59215 0.42843 0.45828 0.0
C211 C 0.53511 0.38085 0.46278 0.0
C212 C 0.11902 0.59489 0.68593 0.0
C213 C 0.17077 0.64765 0.68069 0.0
C214 C 0.11849 0.5455 0.70246 0.0
C215 C 0.16961 0.54628 0.71455 0.0
H216 H 0.07812 0.59155 0.6776 0.0
H217 H 0.07739 0.50598 0.70521 0.0
S218 S 0.31703 0.67331 0.70753 0.0
N219 N 0.27495 0.69795 0.68936 0.0
N220 N 0.27383 0.60433 0.72002 0.0
C221 C 0.22188 0.59867 0.70974 0.0
C222 C 0.22249 0.64939 0.69273 0.0
C223 C 0.63649 0.22222 0.04496 0.0
C224 C 0.63096 0.16826 0.05617 0.0
C225 C 0.58904 0.22651 1.02983 0.0
C226 C 0.53411 0.17704 1.02546 0.0
H227 H 0.67803 0.26148 0.04698 0.0
H228 H 0.5954 0.26909 1.0222 0.0
S229 S 0.49632 0.02537 0.05064 0.0
N230 N 0.56575 0.06422 0.06209 0.0
N231 N 0.47702 0.07219 1.03355 0.0
C232 C 0.52795 0.1228 1.03665 0.0
C233 C 0.57616 0.11846 0.05211 0.0
C234 C 0.13353 0.17993 0.35 0.0
C235 C 0.16621 0.23588 0.33108 0.0
C236 C 0.15988 0.15445 0.3753 0.0
C237 C 0.21919 0.18547 0.38464 0.0
H238 H 0.08717 0.15632 0.34608 0.0
H239 H 0.13371 0.11084 0.38829 0.0
S240 S 0.32452 0.33164 0.34136 0.0
N241 N 0.26214 0.31863 0.32017 0.0
N242 N 0.31008 0.27383 0.37175 0.0
C243 C 0.25222 0.24094 0.3656 0.0
C244 C 0.22617 0.26528 0.33769 0.0
C245 C 0.94078 0.15575 0.69933 0.0
C246 C 0.92015 0.18318 0.66939 0.0
C247 C -0.00513 0.18702 0.72102 0.0
C248 C 0.02929 0.24692 0.71441 0.0
H249 H 0.91422 0.11017 0.7073 0.0
H250 H 0.00927 0.16457 0.74374 0.0
S251 S 0.00018 0.338 0.63461 0.0
N252 N 0.94274 0.27293 0.63026 0.0
N253 N 0.04274 0.3313 0.67216 0.0
C254 C 0.01071 0.27419 0.68292 0.0
C255 C 0.95665 0.24242 0.66002 0.0
C256 C 0.82701 0.01927 1.0359 0.0
C257 C 0.7982 0.03717 0.06696 0.0
C258 C 0.79787 0.96536 1.01299 0.0
C259 C 0.73885 0.92837 1.0197 0.0
H260 H 0.87179 0.0482 1.02762 0.0
H261 H 0.82112 0.95335 0.989 0.0
S262 S 0.64514 0.94963 0.10198 0.0
N263 N 0.70842 0.00902 0.1072 0.0
N264 N 0.65403 0.90944 0.06302 0.0
C265 C 0.71046 0.94394 0.05253 0.0
C266 C 0.74009 -0.0022 0.07662 0.0
C267 C 0.78049 0.80922 0.38948 0.0
C268 C 0.73861 0.79463 0.42414 0.0
C269 C 0.80789 0.77666 0.38308 0.0
C270 C 0.79393 0.72854 0.41099 0.0
H271 H 0.7887 0.84274 0.36462 0.0
H272 H 0.8368 0.78659 0.35414 0.0
S273 S 0.69957 0.68253 0.51411 0.0
N274 N 0.69404 0.73678 0.49248 0.0
N275 N 0.74448 0.67492 0.47995 0.0
C276 C 0.75734 0.71786 0.44894 0.0
C277 C 0.73011 0.75131 0.45578 0.0
C278 C 0.01294 0.75034 0.67339 0.0
C279 C 0.04076 0.81011 0.66431 0.0
C280 C 0.96098 0.72281 0.69705 0.0
C281 C 0.9339 0.75354 0.71175 0.0
H282 H 0.03244 0.72474 0.66382 0.0
H283 H 0.94107 0.67655 0.70264 0.0
S284 S -0.01281 0.90997 0.69471 0.0
N285 N 0.03742 0.8993 0.67164 0.0
N286 N 0.93695 0.84617 0.71382 0.0
C287 C 0.96013 0.81289 0.70182 0.0
C288 C 0.01422 0.8415 0.67872 0.0
C289 C 0.20347 0.04515 0.03929 0.0
C290 C 0.25282 0.06614 1.01124 0.0
C291 C 0.1794 0.99058 0.06037 0.0
C292 C 0.20497 0.95616 0.05523 0.0
H293 H 0.18414 0.07168 0.04602 0.0
H294 H 0.14122 0.97564 0.0813 0.0
S295 S 0.32937 0.98671 0.98098 0.0
N296 N 0.32202 0.04426 0.97561 0.0
N297 N 0.2781 0.94347 1.01661 0.0
C298 C 0.25257 0.97536 1.02587 0.0
C299 C 0.27608 0.02983 1.00341 0.0
C300 C 0.00571 0.33737 0.15743 0.0
C301 C 0.94528 0.30618 0.15358 0.0
C302 C 0.0334 0.35284 0.20077 0.0
C303 C 0.00188 0.33723 0.24223 0.0
H304 H 0.03208 0.34743 0.12681 0.0
H305 H 0.07988 0.37386 0.20167 0.0
S306 S 0.84292 0.26375 0.25147 0.0
N307 N 0.85492 0.26683 0.19533 0.0
N308 N 0.90691 0.29515 0.27646 0.0
C309 C 0.94158 0.31006 0.23886 0.0
C310 C 0.91332 0.2948 0.19468 0.0
C311 C 0.6286 0.94528 0.5661 0.0
C312 C 0.65789 0.0062 0.57 0.0
C313 C 0.61374 0.9173 0.52275 0.0
C314 C 0.6284 0.94904 0.48131 0.0
H315 H 0.61911 0.91887 0.59674 0.0
H316 H 0.59393 0.87051 0.52181 0.0
S317 S 0.6986 0.10914 0.47222 0.0
N318 N 0.69551 0.09714 0.52838 0.0
N319 N 0.66868 0.04463 0.44714 0.0
C320 C 0.65432 0.00977 0.48473 0.0
C321 C 0.66873 0.03829 0.52894 0.0
C322 C 0.67895 0.64334 0.8916 0.0
C323 C 0.64742 0.67224 0.89697 0.0
C324 C 0.69139 0.62982 0.84761 0.0
C325 C 0.67353 0.64523 0.80686 0.0
H326 H 0.6961 0.63287 0.92163 0.0
H327 H 0.71797 0.60991 0.84566 0.0
S328 S 0.58422 0.71558 0.80149 0.0
N329 N 0.59404 0.71102 0.85734 0.0
N330 N 0.6181 0.68641 0.77496 0.0
C331 C 0.63917 0.67115 0.8117 0.0
C332 C 0.62593 0.68438 0.85658 0.0
C333 C 0.0649 0.72187 0.20358 0.0
C334 C 0.03068 0.70034 0.16343 0.0
C335 C 0.04016 0.7109 0.24776 0.0
C336 C 0.9803 0.6768 0.25372 0.0
H337 H 0.11101 0.74993 0.20085 0.0
H338 H 0.06817 0.73028 0.27746 0.0
S339 S 0.87203 0.60572 0.16003 0.0
N340 N 0.93401 0.6406 0.13266 0.0
N341 N 0.88768 0.61849 0.21565 0.0
C342 C 0.94583 0.65237 0.21402 0.0
C343 C 0.97095 0.66457 0.16893 0.0
C344 C 0.34334 0.06022 0.53186 0.0
C345 C 0.32838 0.02906 0.48977 0.0
C346 C 0.3307 0.03174 0.57458 0.0
C347 C 0.30302 0.97085 0.57717 0.0
H348 H 0.36198 0.10689 0.53205 0.0
H349 H 0.34017 0.05769 0.60579 0.0
S350 S 0.26366 0.86962 0.47711 0.0
N351 N 0.29077 0.93429 0.45344 0.0
N352 N 0.26757 0.88081 0.53353 0.0
C353 C 0.29228 0.93948 0.53536 0.0
C354 C 0.30474 0.96854 0.49177 0.0
C355 C 0.34222 0.30391 0.87345 0.0
C356 C 0.32871 0.32249 0.91484 0.0
C357 C 0.32422 0.31316 0.83018 0.0
C358 C 0.29278 0.34231 0.82627 0.0
H359 H 0.36416 0.27913 0.87451 0.0
H360 H 0.33346 0.29558 0.79966 0.0
S361 S 0.25223 0.40585 0.92372 0.0
N362 N 0.2859 0.37557 0.94877 0.0
N363 N 0.2532 0.39404 0.86772 0.0
C364 C 0.28224 0.36444 0.86717 0.0
C365 C 0.29983 0.35421 0.91131 0.0
C366 C 0.14039 0.39268 0.51324 0.0
C367 C 0.16045 0.36702 0.48168 0.0
C368 C 0.156 0.39815 0.56 0.0
C369 C 0.19175 0.3775 0.57742 0.0
H370 H 0.1132 0.4095 0.50169 0.0
H371 H 0.139 0.41828 0.5828 0.0
S372 S 0.25402 0.30465 0.50876 0.0
N373 N 0.21733 0.31959 0.47084 0.0
N374 N 0.24587 0.32946 0.55893 0.0
C375 C 0.21212 0.35169 0.54613 0.0
C376 C 0.19651 0.34638 0.49833 0.0
C377 C 0.80812 0.21504 0.88281 0.0
C378 C 0.79078 0.16896 0.91358 0.0
C379 C 0.79204 0.20471 0.83612 0.0
C380 C 0.75845 0.14782 0.81808 0.0
H381 H 0.83375 0.25943 0.89489 0.0
H382 H 0.80701 0.24203 0.81382 0.0
S383 S 0.70298 0.01174 0.88446 0.0
N384 N 0.73828 0.06381 0.92295 0.0
N385 N 0.70877 0.0449 0.83502 0.0
C386 C 0.74039 0.10129 0.8486 0.0
C387 C 0.75656 0.11174 0.8963 0.0
C388 C 0.62924 0.75876 0.2241 0.0
C389 C 0.6047 0.79108 0.2416 0.0
C390 C 0.62392 0.7425 0.1773 0.0
C391 C 0.59324 0.75737 0.14632 0.0
H392 H 0.65378 0.74674 0.24667 0.0
H393 H 0.64573 0.72007 0.1651 0.0
S394 S 0.51469 0.83543 0.17595 0.0
N395 N 0.54518 0.83356 0.22503 0.0
N396 N 0.53333 0.80188 0.13755 0.0
C397 C 0.5662 0.78742 0.16396 0.0
C398 C 0.57256 0.80477 0.21137 0.0
C399 C 0.81849 0.55102 0.51243 0.0
C400 C 0.85707 0.60113 0.48819 0.0
C401 C 0.78869 0.55406 0.5512 0.0
C402 C 0.79621 0.60736 0.56719 0.0
H403 H 0.81185 0.50907 0.50166 0.0
H404 H 0.76211 0.51478 0.57044 0.0
S405 S 0.8942 0.75189 0.51791 0.0
N406 N 0.90197 0.70628 0.48392 0.0
N407 N 0.84658 0.71157 0.55721 0.0
C408 C 0.83442 0.65777 0.54329 0.0
C409 C 0.86491 0.65486 0.50386 0.0
C410 C 0.20987 0.84333 0.89642 0.0
C411 C 0.16237 0.79221 0.91374 0.0
C412 C 0.21812 0.8542 0.84904 0.0
C413 C 0.17936 0.8145 0.81677 0.0
H414 H 0.241 0.87601 0.91965 0.0
H415 H 0.25493 0.89439 0.83777 0.0
S416 S 0.04935 0.6726 0.84368 0.0
N417 N 0.07702 0.70084 0.89475 0.0
N418 N 0.09215 0.72038 0.8054 0.0
C419 C 0.1319 0.76259 0.83347 0.0
C420 C 0.12349 0.75178 0.88197 0.0
C421 C 0.3725 0.1602 0.22379 0.0
C422 C 0.38352 0.2029 0.25715 0.0
C423 C 0.37226 0.17154 0.17669 0.0
C424 C 0.38292 0.22608 0.16058 0.0
H425 H 0.36242 0.11708 0.23403 0.0
H426 H 0.3625 0.13639 0.15267 0.0
S427 S 0.41874 0.35453 0.23343 0.0
N428 N 0.40914 0.30366 0.27063 0.0
N429 N 0.4076 0.32406 0.18174 0.0
C430 C 0.39522 0.26968 0.19335 0.0
C431 C 0.39599 0.25836 0.24161 0.0
loop_
_geom_bond_atom_site_label_1
_geom_bond_atom_site_label_2
_geom_bond_distance
_geom_bond_site_symmetry_2
_ccdc_geom_bond_type
O0 Cd1 2.223 . S
O0 C8 1.315 . S
Cd1 O0 2.223 . S
Cd1 O4 2.297 . S
Cd1 O5 2.439 . S
Cd1 O11 2.240 . S
Cd2 O3 2.240 . S
Cd2 O10 2.223 . S
Cd2 O12 2.297 . S
Cd2 O13 2.439 . S
O3 Cd2 2.240 . S
O3 C8 1.279 . S
O4 Cd1 2.297 . S
O4 C6 1.247 . S
O5 Cd1 2.439 . S
O5 C6 1.208 . S
C6 O4 1.247 . S
C6 O5 1.208 . S
C7 O12 1.247 . S
C7 O13 1.208 . S
C8 O0 1.315 . S
C8 O3 1.279 . S
C9 O10 1.315 . S
C9 O11 1.279 . S
O10 Cd2 2.223 . S
O10 C9 1.315 . S
O11 Cd1 2.240 . S
O11 C9 1.279 . S
O12 Cd2 2.297 . S
O12 C7 1.247 . S
O13 Cd2 2.439 . S
O13 C7 1.208 . S
O14 Cd15 2.223 . S
O14 C22 1.315 . S
Cd15 O14 2.223 . S
Cd15 O18 2.297 . S
Cd15 O19 2.439 . S
Cd15 O25 2.240 . S
Cd16 O17 2.240 . S
Cd16 O24 2.223 . S
Cd16 O26 2.297 . S
Cd16 O27 2.439 . S
O17 Cd16 2.240 . S
O17 C22 1.279 . S
O18 Cd15 2.297 . S
O18 C20 1.247 . S
O19 Cd15 2.439 . S
O19 C20 1.208 . S
C20 O18 1.247 . S
C20 O19 1.208 . S
C21 O26 1.247 . S
C21 O27 1.208 . S
C22 O14 1.315 . S
C22 O17 1.279 . S
C23 O24 1.315 . S
C23 O25 1.279 . S
O24 Cd16 2.223 . S
O24 C23 1.315 . S
O25 Cd15 2.240 . S
O25 C23 1.279 . S
O26 Cd16 2.297 . S
O26 C21 1.247 . S
O27 Cd16 2.439 . S
O27 C21 1.208 . S
O28 Cd29 2.223 . S
O28 C36 1.315 . S
Cd29 O28 2.223 . S
Cd29 O32 2.297 . S
Cd29 O33 2.439 1_554 S
Cd29 O39 2.240 1_554 S
Cd30 O31 2.240 . S
Cd30 O38 2.223 . S
Cd30 O40 2.297 1_554 S
Cd30 O41 2.439 1_554 S
O31 Cd30 2.240 . S
O31 C36 1.279 . S
O32 Cd29 2.297 . S
O32 C34 1.247 . S
O33 Cd29 2.439 1_556 S
O33 C34 1.208 1_556 S
C34 O32 1.247 . S
C34 O33 1.208 1_554 S
C35 O40 1.247 . S
C35 O41 1.208 . S
C36 O28 1.315 . S
C36 O31 1.279 . S
C37 O38 1.314 1_556 S
C37 O39 1.281 . S
O38 Cd30 2.223 . S
O38 C37 1.314 1_554 S
O39 Cd29 2.240 1_556 S
O39 C37 1.281 . S
O40 Cd30 2.297 1_556 S
O40 C35 1.247 . S
O41 Cd30 2.439 1_556 S
O41 C35 1.208 . S
O42 Cd43 2.223 . S
O42 C50 1.315 . S
Cd43 O42 2.223 . S
Cd43 O46 2.297 . S
Cd43 O47 2.439 . S
Cd43 O53 2.240 . S
Cd44 O45 2.240 . S
Cd44 O52 2.223 . S
Cd44 O54 2.297 . S
Cd44 O55 2.439 . S
O45 Cd44 2.240 . S
O45 C50 1.279 . S
O46 Cd43 2.297 . S
O46 C48 1.247 . S
O47 Cd43 2.439 . S
O47 C48 1.208 . S
C48 O46 1.247 . S
C48 O47 1.208 . S
C49 O54 1.247 . S
C49 O55 1.208 . S
C50 O42 1.315 . S
C50 O45 1.279 . S
C51 O52 1.315 . S
C51 O53 1.279 . S
O52 Cd44 2.223 . S
O52 C51 1.315 . S
O53 Cd43 2.240 . S
O53 C51 1.279 . S
O54 Cd44 2.297 . S
O54 C49 1.247 . S
O55 Cd44 2.439 . S
O55 C49 1.208 . S
O56 Cd57 2.223 . S
O56 C64 1.315 . S
Cd57 O56 2.223 . S
Cd57 O60 2.297 . S
Cd57 O61 2.439 . S
Cd57 O67 2.240 . S
Cd58 O59 2.240 . S
Cd58 O66 2.223 . S
Cd58 O68 2.297 . S
Cd58 O69 2.439 . S
O59 Cd58 2.240 . S
O59 C64 1.279 . S
O60 Cd57 2.297 . S
O60 C62 1.247 . S
O61 Cd57 2.439 . S
O61 C62 1.208 . S
C62 O60 1.247 . S
C62 O61 1.208 . S
C63 O68 1.247 . S
C63 O69 1.208 . S
C64 O56 1.315 . S
C64 O59 1.279 . S
C65 O66 1.315 . S
C65 O67 1.279 . S
O66 Cd58 2.223 . S
O66 C65 1.315 . S
O67 Cd57 2.240 . S
O67 C65 1.279 . S
O68 Cd58 2.297 . S
O68 C63 1.247 . S
O69 Cd58 2.439 . S
O69 C63 1.208 . S
O70 Cd71 2.223 . S
O70 C78 1.315 . S
Cd71 O70 2.223 . S
Cd71 O74 2.297 . S
Cd71 O75 2.439 1_554 S
Cd71 O81 2.240 1_554 S
Cd72 O73 2.240 . S
Cd72 O80 2.223 . S
Cd72 O82 2.297 1_554 S
Cd72 O83 2.439 1_554 S
O73 Cd72 2.240 . S
O73 C78 1.279 . S
O74 Cd71 2.297 . S
O74 C76 1.247 . S
O75 Cd71 2.439 1_556 S
O75 C76 1.208 1_556 S
C76 O74 1.247 . S
C76 O75 1.208 1_554 S
C77 O82 1.247 . S
C77 O83 1.208 . S
C78 O70 1.315 . S
C78 O73 1.279 . S
C79 O80 1.314 1_556 S
C79 O81 1.281 . S
O80 Cd72 2.223 . S
O80 C79 1.314 1_554 S
O81 Cd71 2.240 1_556 S
O81 C79 1.281 . S
O82 Cd72 2.297 1_556 S
O82 C77 1.247 . S
O83 Cd72 2.439 1_556 S
O83 C77 1.208 . S
O84 Cd85 2.223 . S
O84 C92 1.315 . S
Cd85 O84 2.223 . S
Cd85 O88 2.297 . S
Cd85 O89 2.439 . S
Cd85 O95 2.240 . S
Cd86 O87 2.240 . S
Cd86 O94 2.223 . S
Cd86 O96 2.297 . S
Cd86 O97 2.439 . S
O87 Cd86 2.240 . S
O87 C92 1.279 . S
O88 Cd85 2.297 . S
O88 C90 1.247 . S
O89 Cd85 2.439 . S
O89 C90 1.208 . S
C90 O88 1.247 . S
C90 O89 1.208 . S
C91 O96 1.247 . S
C91 O97 1.208 . S
C92 O84 1.315 . S
C92 O87 1.279 . S
C93 O94 1.315 . S
C93 O95 1.279 . S
O94 Cd86 2.223 . S
O94 C93 1.315 . S
O95 Cd85 2.240 . S
O95 C93 1.279 . S
O96 Cd86 2.297 . S
O96 C91 1.247 . S
O97 Cd86 2.439 . S
O97 C91 1.208 . S
O98 Cd99 2.223 . S
O98 C106 1.315 . S
Cd99 O98 2.223 . S
Cd99 O102 2.297 . S
Cd99 O103 2.439 . S
Cd99 O109 2.240 . S
Cd100 O101 2.240 . S
Cd100 O108 2.223 . S
Cd100 O110 2.297 . S
Cd100 O111 2.439 . S
O101 Cd100 2.240 . S
O101 C106 1.279 . S
O102 Cd99 2.297 . S
O102 C104 1.247 . S
O103 Cd99 2.439 . S
O103 C104 1.208 . S
C104 O102 1.247 . S
C104 O103 1.208 . S
C105 O110 1.247 . S
C105 O111 1.208 . S
C106 O98 1.315 . S
C106 O101 1.279 . S
C107 O108 1.315 . S
C107 O109 1.279 . S
O108 Cd100 2.223 . S
O108 C107 1.315 . S
O109 Cd99 2.240 . S
O109 C107 1.279 . S
O110 Cd100 2.297 . S
O110 C105 1.247 . S
O111 Cd100 2.439 . S
O111 C105 1.208 . S
O112 Cd113 2.223 . S
O112 C120 1.315 . S
Cd113 O112 2.223 . S
Cd113 O116 2.297 . S
Cd113 O117 2.439 1_556 S
Cd113 O123 2.240 1_556 S
Cd114 O115 2.240 . S
Cd114 O122 2.223 . S
Cd114 O124 2.297 1_556 S
Cd114 O125 2.439 1_556 S
O115 Cd114 2.240 . S
O115 C120 1.279 . S
O116 Cd113 2.297 . S
O116 C118 1.247 . S
O117 Cd113 2.439 1_554 S
O117 C118 1.208 1_554 S
C118 O116 1.247 . S
C118 O117 1.208 1_556 S
C119 O124 1.247 . S
C119 O125 1.208 . S
C120 O112 1.315 . S
C120 O115 1.279 . S
C121 O122 1.314 1_554 S
C121 O123 1.281 . S
O122 Cd114 2.223 . S
O122 C121 1.314 1_556 S
O123 Cd113 2.240 1_554 S
O123 C121 1.281 . S
O124 Cd114 2.297 1_554 S
O124 C119 1.247 . S
O125 Cd114 2.439 1_554 S
O125 C119 1.208 . S
O126 Cd127 2.223 . S
O126 C134 1.315 . S
Cd127 O126 2.223 . S
Cd127 O130 2.297 . S
Cd127 O131 2.439 . S
Cd127 O137 2.240 . S
Cd128 O129 2.240 . S
Cd128 O136 2.223 . S
Cd128 O138 2.297 . S
Cd128 O139 2.439 . S
O129 Cd128 2.240 . S
O129 C134 1.279 . S
O130 Cd127 2.297 . S
O130 C132 1.247 . S
O131 Cd127 2.439 . S
O131 C132 1.208 . S
C132 O130 1.247 . S
C132 O131 1.208 . S
C133 O138 1.247 . S
C133 O139 1.208 . S
C134 O126 1.315 . S
C134 O129 1.279 . S
C135 O136 1.315 . S
C135 O137 1.279 . S
O136 Cd128 2.223 . S
O136 C135 1.315 . S
O137 Cd127 2.240 . S
O137 C135 1.279 . S
O138 Cd128 2.297 . S
O138 C133 1.247 . S
O139 Cd128 2.439 . S
O139 C133 1.208 . S
O140 Cd141 2.223 . S
O140 C148 1.315 . S
Cd141 O140 2.223 . S
Cd141 O144 2.297 . S
Cd141 O145 2.439 . S
Cd141 O151 2.240 . S
Cd142 O143 2.240 . S
Cd142 O150 2.223 . S
Cd142 O152 2.297 . S
Cd142 O153 2.439 . S
O143 Cd142 2.240 . S
O143 C148 1.279 . S
O144 Cd141 2.297 . S
O144 C146 1.247 . S
O145 Cd141 2.439 . S
O145 C146 1.208 . S
C146 O144 1.247 . S
C146 O145 1.208 . S
C147 O152 1.247 . S
C147 O153 1.208 . S
C148 O140 1.315 . S
C148 O143 1.279 . S
C149 O150 1.315 . S
C149 O151 1.279 . S
O150 Cd142 2.223 . S
O150 C149 1.315 . S
O151 Cd141 2.240 . S
O151 C149 1.279 . S
O152 Cd142 2.297 . S
O152 C147 1.247 . S
O153 Cd142 2.439 . S
O153 C147 1.208 . S
O154 Cd155 2.223 . S
O154 C162 1.315 . S
Cd155 O154 2.223 . S
Cd155 O158 2.297 . S
Cd155 O159 2.439 1_556 S
Cd155 O165 2.240 1_556 S
Cd156 O157 2.240 . S
Cd156 O164 2.223 . S
Cd156 O166 2.297 1_556 S
Cd156 O167 2.439 1_556 S
O157 Cd156 2.240 . S
O157 C162 1.279 . S
O158 Cd155 2.297 . S
O158 C160 1.247 . S
O159 Cd155 2.439 1_554 S
O159 C160 1.208 1_554 S
C160 O158 1.247 . S
C160 O159 1.208 1_556 S
C161 O166 1.247 . S
C161 O167 1.208 . S
C162 O154 1.315 . S
C162 O157 1.279 . S
C163 O164 1.314 1_554 S
C163 O165 1.281 . S
O164 Cd156 2.223 . S
O164 C163 1.314 1_556 S
O165 Cd155 2.240 1_554 S
O165 C163 1.281 . S
O166 Cd156 2.297 1_554 S
O166 C161 1.247 . S
O167 Cd156 2.439 1_554 S
O167 C161 1.208 . S
C168 C169 1.369 . S
C168 C170 1.419 . S
C168 H172 0.930 . S
C169 C168 1.369 . S
C169 C178 1.429 . S
C170 C168 1.419 . S
C170 C171 1.363 . S
C170 H173 0.929 . S
C171 C170 1.363 . S
C171 C177 1.428 . S
H172 C168 0.930 . S
H173 C170 0.929 . S
S174 N175 1.613 . S
S174 N176 1.610 . S
N175 S174 1.613 . S
N175 C178 1.350 . S
N176 S174 1.610 . S
N176 C177 1.351 . S
C177 C171 1.428 . S
C177 N176 1.351 . S
C177 C178 1.434 . S
C178 C169 1.429 . S
C178 N175 1.350 . S
C178 C177 1.434 . S
C179 C180 1.369 . S
C179 C181 1.419 . S
C179 H183 0.930 . S
C180 C179 1.369 . S
C180 C189 1.429 . S
C181 C179 1.419 . S
C181 C182 1.363 . S
C181 H184 0.929 . S
C182 C181 1.363 . S
C182 C188 1.428 . S
H183 C179 0.930 . S
H184 C181 0.929 . S
S185 N186 1.613 . S
S185 N187 1.610 . S
N186 S185 1.613 . S
N186 C189 1.350 . S
N187 S185 1.610 . S
N187 C188 1.351 . S
C188 C182 1.428 . S
C188 N187 1.351 . S
C188 C189 1.434 . S
C189 C180 1.429 . S
C189 N186 1.350 . S
C189 C188 1.434 . S
C190 C191 1.370 1_554 S
C190 C192 1.419 . S
C190 H194 0.930 . S
C191 C190 1.370 1_556 S
C191 C200 1.428 . S
C192 C190 1.419 . S
C192 C193 1.353 1_554 S
C192 H195 0.929 . S
C193 C192 1.353 1_556 S
C193 C199 1.439 . S
H194 C190 0.930 . S
H195 C192 0.929 . S
S196 N197 1.613 . S
S196 N198 1.610 . S
N197 S196 1.613 . S
N197 C200 1.350 . S
N198 S196 1.610 . S
N198 C199 1.351 . S
C199 C193 1.439 . S
C199 N198 1.351 . S
C199 C200 1.434 . S
C200 C191 1.428 . S
C200 N197 1.350 . S
C200 C199 1.434 . S
C201 C202 1.369 . S
C201 C203 1.419 . S
C201 H205 0.930 . S
C202 C201 1.369 . S
C202 C211 1.429 . S
C203 C201 1.419 . S
C203 C204 1.363 . S
C203 H206 0.929 . S
C204 C203 1.363 . S
C204 C210 1.428 . S
H205 C201 0.930 . S
H206 C203 0.929 . S
S207 N208 1.613 . S
S207 N209 1.610 . S
N208 S207 1.613 . S
N208 C211 1.350 . S
N209 S207 1.610 . S
N209 C210 1.351 . S
C210 C204 1.428 . S
C210 N209 1.351 . S
C210 C211 1.434 . S
C211 C202 1.429 . S
C211 N208 1.350 . S
C211 C210 1.434 . S
C212 C213 1.369 . S
C212 C214 1.419 . S
C212 H216 0.930 . S
C213 C212 1.369 . S
C213 C222 1.429 . S
C214 C212 1.419 . S
C214 C215 1.363 . S
C214 H217 0.929 . S
C215 C214 1.363 . S
C215 C221 1.428 . S
H216 C212 0.930 . S
H217 C214 0.929 . S
S218 N219 1.613 . S
S218 N220 1.610 . S
N219 S218 1.613 . S
N219 C222 1.350 . S
N220 S218 1.610 . S
N220 C221 1.351 . S
C221 C215 1.428 . S
C221 N220 1.351 . S
C221 C222 1.434 . S
C222 C213 1.429 . S
C222 N219 1.350 . S
C222 C221 1.434 . S
C223 C224 1.371 . S
C223 C225 1.419 . S
C223 H227 0.930 . S
C224 C223 1.371 . S
C224 C233 1.427 1_556 S
C225 C223 1.419 . S
C225 C226 1.361 1_556 S
C225 H228 0.929 . S
C226 C225 1.361 1_554 S
C226 C232 1.431 . S
H227 C223 0.930 . S
H228 C225 0.929 . S
S229 N230 1.613 . S
S229 N231 1.610 . S
N230 S229 1.613 . S
N230 C233 1.350 . S
N231 S229 1.610 . S
N231 C232 1.351 . S
C232 C226 1.431 . S
C232 N231 1.351 . S
C232 C233 1.434 . S
C233 C224 1.427 1_554 S
C233 N230 1.350 . S
C233 C232 1.434 . S
C234 C235 1.369 . S
C234 C236 1.419 . S
C234 H238 0.930 . S
C235 C234 1.369 . S
C235 C244 1.429 . S
C236 C234 1.419 . S
C236 C237 1.363 . S
C236 H239 0.929 . S
C237 C236 1.363 . S
C237 C243 1.428 . S
H238 C234 0.930 . S
H239 C236 0.929 . S
S240 N241 1.613 . S
S240 N242 1.610 . S
N241 S240 1.613 . S
N241 C244 1.350 . S
N242 S240 1.610 . S
N242 C243 1.351 . S
C243 C237 1.428 . S
C243 N242 1.351 . S
C243 C244 1.434 . S
C244 C235 1.429 . S
C244 N241 1.350 . S
C244 C243 1.434 . S
C245 C246 1.369 . S
C245 C247 1.419 1_655 S
C245 H249 0.930 . S
C246 C245 1.369 . S
C246 C255 1.429 . S
C247 C245 1.419 1_455 S
C247 C248 1.363 . S
C247 H250 0.929 . S
C248 C247 1.363 . S
C248 C254 1.428 . S
H249 C245 0.930 . S
H250 C247 0.929 . S
S251 N252 1.613 . S
S251 N253 1.610 1_655 S
N252 S251 1.613 . S
N252 C255 1.350 . S
N253 S251 1.610 1_455 S
N253 C254 1.351 . S
C254 C248 1.428 . S
C254 N253 1.351 . S
C254 C255 1.434 1_455 S
C255 C246 1.429 . S
C255 N252 1.350 . S
C255 C254 1.434 1_655 S
C256 C257 1.369 1_554 S
C256 C258 1.419 1_545 S
C256 H260 0.930 . S
C257 C256 1.369 1_556 S
C257 C266 1.429 . S
C258 C256 1.419 1_565 S
C258 C259 1.364 . S
C258 H261 0.929 . S
C259 C258 1.364 . S
C259 C265 1.428 1_554 S
H260 C256 0.930 . S
H261 C258 0.929 . S
S262 N263 1.614 1_564 S
S262 N264 1.608 . S
N263 S262 1.614 1_546 S
N263 C266 1.350 . S
N264 S262 1.608 . S
N264 C265 1.351 1_554 S
C265 C259 1.428 1_556 S
C265 N264 1.351 1_556 S
C265 C266 1.434 1_565 S
C266 C257 1.429 . S
C266 N263 1.350 . S
C266 C265 1.434 1_545 S
C267 C268 1.369 . S
C267 C269 1.419 . S
C267 H271 0.930 . S
C268 C267 1.369 . S
C268 C277 1.429 . S
C269 C267 1.419 . S
C269 C270 1.363 . S
C269 H272 0.929 . S
C270 C269 1.363 . S
C270 C276 1.428 . S
H271 C267 0.930 . S
H272 C269 0.929 . S
S273 N274 1.613 . S
S273 N275 1.610 . S
N274 S273 1.613 . S
N274 C277 1.350 . S
N275 S273 1.610 . S
N275 C276 1.351 . S
C276 C270 1.428 . S
C276 N275 1.351 . S
C276 C277 1.434 . S
C277 C268 1.429 . S
C277 N274 1.350 . S
C277 C276 1.434 . S
C278 C279 1.369 . S
C278 C280 1.419 1_455 S
C278 H282 0.930 . S
C279 C278 1.369 . S
C279 C288 1.429 . S
C280 C278 1.419 1_655 S
C280 C281 1.363 . S
C280 H283 0.929 . S
C281 C280 1.363 . S
C281 C287 1.428 . S
H282 C278 0.930 . S
H283 C280 0.929 . S
S284 N285 1.613 1_655 S
S284 N286 1.610 . S
N285 S284 1.613 1_455 S
N285 C288 1.350 . S
N286 S284 1.610 . S
N286 C287 1.351 . S
C287 C281 1.428 . S
C287 N286 1.351 . S
C287 C288 1.434 1_655 S
C288 C279 1.429 . S
C288 N285 1.350 . S
C288 C287 1.434 1_455 S
C289 C290 1.368 1_556 S
C289 C291 1.419 1_545 S
C289 H293 0.930 . S
C290 C289 1.368 1_554 S
C290 C299 1.430 . S
C291 C289 1.419 1_565 S
C291 C292 1.366 . S
C291 H294 0.929 . S
C292 C291 1.366 . S
C292 C298 1.425 1_556 S
H293 C289 0.930 . S
H294 C291 0.929 . S
S295 N296 1.608 1_565 S
S295 N297 1.612 . S
N296 S295 1.608 1_545 S
N296 C299 1.350 . S
N297 S295 1.612 . S
N297 C298 1.351 . S
C298 C292 1.425 1_554 S
C298 N297 1.351 . S
C298 C299 1.434 1_565 S
C299 C290 1.430 . S
C299 N296 1.350 . S
C299 C298 1.434 1_545 S
C300 C301 1.369 1_455 S
C300 C302 1.419 . S
C300 H304 0.930 . S
C301 C300 1.369 1_655 S
C301 C310 1.429 . S
C302 C300 1.419 . S
C302 C303 1.363 . S
C302 H305 0.929 . S
C303 C302 1.363 . S
C303 C309 1.428 1_455 S
H304 C300 0.930 . S
H305 C302 0.929 . S
S306 N307 1.613 . S
S306 N308 1.610 . S
N307 S306 1.613 . S
N307 C310 1.350 . S
N308 S306 1.610 . S
N308 C309 1.351 . S
C309 C303 1.428 1_655 S
C309 N308 1.351 . S
C309 C310 1.434 . S
C310 C301 1.429 . S
C310 N307 1.350 . S
C310 C309 1.434 . S
C311 C312 1.369 1_565 S
C311 C313 1.419 . S
C311 H315 0.930 . S
C312 C311 1.369 1_545 S
C312 C321 1.429 . S
C313 C311 1.419 . S
C313 C314 1.363 . S
C313 H316 0.929 . S
C314 C313 1.363 . S
C314 C320 1.428 1_565 S
H315 C311 0.930 . S
H316 C313 0.929 . S
S317 N318 1.613 . S
S317 N319 1.610 . S
N318 S317 1.613 . S
N318 C321 1.350 . S
N319 S317 1.610 . S
N319 C320 1.351 . S
C320 C314 1.428 1_545 S
C320 N319 1.351 . S
C320 C321 1.434 . S
C321 C312 1.429 . S
C321 N318 1.350 . S
C321 C320 1.434 . S
C322 C323 1.369 . S
C322 C324 1.419 . S
C322 H326 0.930 . S
C323 C322 1.369 . S
C323 C332 1.429 . S
C324 C322 1.419 . S
C324 C325 1.363 . S
C324 H327 0.929 . S
C325 C324 1.363 . S
C325 C331 1.428 . S
H326 C322 0.930 . S
H327 C324 0.929 . S
S328 N329 1.613 . S
S328 N330 1.610 . S
N329 S328 1.613 . S
N329 C332 1.350 . S
N330 S328 1.610 . S
N330 C331 1.351 . S
C331 C325 1.428 . S
C331 N330 1.351 . S
C331 C332 1.434 . S
C332 C323 1.429 . S
C332 N329 1.350 . S
C332 C331 1.434 . S
C333 C334 1.369 . S
C333 C335 1.419 . S
C333 H337 0.930 . S
C334 C333 1.369 . S
C334 C343 1.429 1_455 S
C335 C333 1.419 . S
C335 C336 1.363 1_455 S
C335 H338 0.929 . S
C336 C335 1.363 1_655 S
C336 C342 1.428 . S
H337 C333 0.930 . S
H338 C335 0.929 . S
S339 N340 1.613 . S
S339 N341 1.610 . S
N340 S339 1.613 . S
N340 C343 1.350 . S
N341 S339 1.610 . S
N341 C342 1.351 . S
C342 C336 1.428 . S
C342 N341 1.351 . S
C342 C343 1.434 . S
C343 C334 1.429 1_655 S
C343 N340 1.350 . S
C343 C342 1.434 . S
C344 C345 1.369 . S
C344 C346 1.419 . S
C344 H348 0.930 . S
C345 C344 1.369 . S
C345 C354 1.429 1_545 S
C346 C344 1.419 . S
C346 C347 1.363 1_545 S
C346 H349 0.929 . S
C347 C346 1.363 1_565 S
C347 C353 1.428 . S
H348 C344 0.930 . S
H349 C346 0.929 . S
S350 N351 1.613 . S
S350 N352 1.610 . S
N351 S350 1.613 . S
N351 C354 1.350 . S
N352 S350 1.610 . S
N352 C353 1.351 . S
C353 C347 1.428 . S
C353 N352 1.351 . S
C353 C354 1.434 . S
C354 C345 1.429 1_565 S
C354 N351 1.350 . S
C354 C353 1.434 . S
C355 C356 1.369 . S
C355 C357 1.419 . S
C355 H359 0.930 . S
C356 C355 1.369 . S
C356 C365 1.429 . S
C357 C355 1.419 . S
C357 C358 1.363 . S
C357 H360 0.929 . S
C358 C357 1.363 . S
C358 C364 1.428 . S
H359 C355 0.930 . S
H360 C357 0.929 . S
S361 N362 1.613 . S
S361 N363 1.610 . S
N362 S361 1.613 . S
N362 C365 1.350 . S
N363 S361 1.610 . S
N363 C364 1.351 . S
C364 C358 1.428 . S
C364 N363 1.351 . S
C364 C365 1.434 . S
C365 C356 1.429 . S
C365 N362 1.350 . S
C365 C364 1.434 . S
C366 C367 1.369 . S
C366 C368 1.419 . S
C366 H370 0.930 . S
C367 C366 1.369 . S
C367 C376 1.429 . S
C368 C366 1.419 . S
C368 C369 1.363 . S
C368 H371 0.929 . S
C369 C368 1.363 . S
C369 C375 1.428 . S
H370 C366 0.930 . S
H371 C368 0.929 . S
S372 N373 1.613 . S
S372 N374 1.610 . S
N373 S372 1.613 . S
N373 C376 1.350 . S
N374 S372 1.610 . S
N374 C375 1.351 . S
C375 C369 1.428 . S
C375 N374 1.351 . S
C375 C376 1.434 . S
C376 C367 1.429 . S
C376 N373 1.350 . S
C376 C375 1.434 . S
C377 C378 1.369 . S
C377 C379 1.419 . S
C377 H381 0.930 . S
C378 C377 1.369 . S
C378 C387 1.429 . S
C379 C377 1.419 . S
C379 C380 1.363 . S
C379 H382 0.929 . S
C380 C379 1.363 . S
C380 C386 1.428 . S
H381 C377 0.930 . S
H382 C379 0.929 . S
S383 N384 1.613 . S
S383 N385 1.610 . S
N384 S383 1.613 . S
N384 C387 1.350 . S
N385 S383 1.610 . S
N385 C386 1.351 . S
C386 C380 1.428 . S
C386 N385 1.351 . S
C386 C387 1.434 . S
C387 C378 1.429 . S
C387 N384 1.350 . S
C387 C386 1.434 . S
C388 C389 1.369 . S
C388 C390 1.419 . S
C388 H392 0.930 . S
C389 C388 1.369 . S
C389 C398 1.429 . S
C390 C388 1.419 . S
C390 C391 1.363 . S
C390 H393 0.929 . S
C391 C390 1.363 . S
C391 C397 1.428 . S
H392 C388 0.930 . S
H393 C390 0.929 . S
S394 N395 1.613 . S
S394 N396 1.610 . S
N395 S394 1.613 . S
N395 C398 1.350 . S
N396 S394 1.610 . S
N396 C397 1.351 . S
C397 C391 1.428 . S
C397 N396 1.351 . S
C397 C398 1.434 . S
C398 C389 1.429 . S
C398 N395 1.350 . S
C398 C397 1.434 . S
C399 C400 1.369 . S
C399 C401 1.419 . S
C399 H403 0.930 . S
C400 C399 1.369 . S
C400 C409 1.429 . S
C401 C399 1.419 . S
C401 C402 1.363 . S
C401 H404 0.929 . S
C402 C401 1.363 . S
C402 C408 1.428 . S
H403 C399 0.930 . S
H404 C401 0.929 . S
S405 N406 1.613 . S
S405 N407 1.610 . S
N406 S405 1.613 . S
N406 C409 1.350 . S
N407 S405 1.610 . S
N407 C408 1.351 . S
C408 C402 1.428 . S
C408 N407 1.351 . S
C408 C409 1.434 . S
C409 C400 1.429 . S
C409 N406 1.350 . S
C409 C408 1.434 . S
C410 C411 1.369 . S
C410 C412 1.419 . S
C410 H414 0.930 . S
C411 C410 1.369 . S
C411 C420 1.429 . S
C412 C410 1.419 . S
C412 C413 1.363 . S
C412 H415 0.929 . S
C413 C412 1.363 . S
C413 C419 1.428 . S
H414 C410 0.930 . S
H415 C412 0.929 . S
S416 N417 1.613 . S
S416 N418 1.610 . S
N417 S416 1.613 . S
N417 C420 1.350 . S
N418 S416 1.610 . S
N418 C419 1.351 . S
C419 C413 1.428 . S
C419 N418 1.351 . S
C419 C420 1.434 . S
C420 C411 1.429 . S
C420 N417 1.350 . S
C420 C419 1.434 . S
C421 C422 1.369 . S
C421 C423 1.419 . S
C421 H425 0.930 . S
C422 C421 1.369 . S
C422 C431 1.429 . S
C423 C421 1.419 . S
C423 C424 1.363 . S
C423 H426 0.929 . S
C424 C423 1.363 . S
C424 C430 1.428 . S
H425 C421 0.930 . S
H426 C423 0.929 . S
S427 N428 1.613 . S
S427 N429 1.610 . S
N428 S427 1.613 . S
N428 C431 1.350 . S
N429 S427 1.610 . S
N429 C430 1.351 . S
C430 C424 1.428 . S
C430 N429 1.351 . S
C430 C431 1.434 . S
C431 C422 1.429 . S
C431 N428 1.350 . S
C431 C430 1.434 . S
C169 C7 1.667 . S
C171 C91 1.681 . S
C180 C21 1.675 . S
C182 C105 1.663 . S
C191 C34 1.602 1_556 S
C193 C118 1.601 . S
C202 C133 1.676 . S
C204 C49 1.663 . S
C213 C63 1.685 . S
C215 C147 1.671 . S
C224 C160 1.593 . S
C226 C76 1.594 . S
C235 C8 1.607 . S
C237 C134 1.609 . S
C246 C22 1.607 . S
C248 C148 1.609 . S
C257 C163 1.532 1_556 S
C259 C37 1.532 1_554 S
C268 C92 1.606 . S
C270 C50 1.610 . S
C279 C64 1.610 . S
C281 C106 1.608 . S
C290 C79 1.532 1_554 S
C292 C121 1.532 1_556 S
C301 C161 1.528 . S
C303 C6 1.522 . S
C312 C20 1.678 . S
C314 C90 1.679 . S
C323 C35 1.528 . S
C325 C104 1.522 . S
C334 C119 1.528 . S
C336 C48 1.521 . S
C345 C132 1.679 . S
C347 C62 1.678 . S
C356 C77 1.528 . S
C358 C146 1.521 . S
C367 C9 1.140 . S
C369 C149 1.147 . S
C378 C162 1.272 . S
C380 C23 1.283 . S
C389 C93 1.275 . S
C391 C36 1.274 . S
C400 C51 1.148 . S
C402 C107 1.141 . S
C411 C120 1.273 . S
C413 C65 1.274 . S
C422 C135 1.266 . S
C424 C78 1.281 . S
