# Generated by pormake.
# Topology umd, (4)-cn, num edge types: 1
# Building blocks:
#     Node 0, Type 0, BuildingBlock: KOZSID_clean_sbu_0, # of connection points: 4
#     Node 1, Type 0, BuildingBlock: KOZSID_clean_sbu_0, # of connection points: 4
#     Node 2, Type 0, BuildingBlock: KOZSID_clean_sbu_0, # of connection points: 4
#     Node 3, Type 0, BuildingBlock: KOZSID_clean_sbu_0, # of connection points: 4
#     Node 4, Type 0, BuildingBlock: KOZSID_clean_sbu_0, # of connection points: 4
#     Node 5, Type 0, BuildingBlock: KOZSID_clean_sbu_0, # of connection points: 4
#     Node 6, Type 0, BuildingBlock: KOZSID_clean_sbu_0, # of connection points: 4
#     Node 7, Type 0, BuildingBlock: KOZSID_clean_sbu_0, # of connection points: 4
#     Node 8, Type 0, BuildingBlock: KOZSID_clean_sbu_0, # of connection points: 4
#     Node 9, Type 0, BuildingBlock: KOZSID_clean_sbu_0, # of connection points: 4
#     Node 10, Type 0, BuildingBlock: KOZSID_clean_sbu_0, # of connection points: 4
#     Node 11, Type 0, BuildingBlock: KOZSID_clean_sbu_0, # of connection points: 4
#     Node 12, Type 0, BuildingBlock: KOZSID_clean_sbu_0, # of connection points: 4
#     Node 13, Type 0, BuildingBlock: KOZSID_clean_sbu_0, # of connection points: 4
#     Node 14, Type 0, BuildingBlock: KOZSID_clean_sbu_0, # of connection points: 4
#     Node 15, Type 0, BuildingBlock: KOZSID_clean_sbu_0, # of connection points: 4
#     Edge 16, Type (0, 0), BuildingBlock: CIFDUS_clean_linker_0, # of connection points: 2
#     Edge 17, Type (0, 0), BuildingBlock: CIFDUS_clean_linker_0, # of connection points: 2
#     Edge 18, Type (0, 0), BuildingBlock: CIFDUS_clean_linker_0, # of connection points: 2
#     Edge 19, Type (0, 0), BuildingBlock: CIFDUS_clean_linker_0, # of connection points: 2
#     Edge 20, Type (0, 0), BuildingBlock: CIFDUS_clean_linker_0, # of connection points: 2
#     Edge 21, Type (0, 0), BuildingBlock: CIFDUS_clean_linker_0, # of connection points: 2
#     Edge 22, Type (0, 0), BuildingBlock: CIFDUS_clean_linker_0, # of connection points: 2
#     Edge 23, Type (0, 0), BuildingBlock: CIFDUS_clean_linker_0, # of connection points: 2
#     Edge 24, Type (0, 0), BuildingBlock: CIFDUS_clean_linker_0, # of connection points: 2
#     Edge 25, Type (0, 0), BuildingBlock: CIFDUS_clean_linker_0, # of connection points: 2
#     Edge 26, Type (0, 0), BuildingBlock: CIFDUS_clean_linker_0, # of connection points: 2
#     Edge 27, Type (0, 0), BuildingBlock: CIFDUS_clean_linker_0, # of connection points: 2
#     Edge 28, Type (0, 0), BuildingBlock: CIFDUS_clean_linker_0, # of connection points: 2
#     Edge 29, Type (0, 0), BuildingBlock: CIFDUS_clean_linker_0, # of connection points: 2
#     Edge 30, Type (0, 0), BuildingBlock: CIFDUS_clean_linker_0, # of connection points: 2
#     Edge 31, Type (0, 0), BuildingBlock: CIFDUS_clean_linker_0, # of connection points: 2
#     Edge 32, Type (0, 0), BuildingBlock: CIFDUS_clean_linker_0, # of connection points: 2
#     Edge 33, Type (0, 0), BuildingBlock: CIFDUS_clean_linker_0, # of connection points: 2
#     Edge 34, Type (0, 0), BuildingBlock: CIFDUS_clean_linker_0, # of connection points: 2
#     Edge 35, Type (0, 0), BuildingBlock: CIFDUS_clean_linker_0, # of connection points: 2
#     Edge 36, Type (0, 0), BuildingBlock: CIFDUS_clean_linker_0, # of connection points: 2
#     Edge 37, Type (0, 0), BuildingBlock: CIFDUS_clean_linker_0, # of connection points: 2
#     Edge 38, Type (0, 0), BuildingBlock: CIFDUS_clean_linker_0, # of connection points: 2
#     Edge 39, Type (0, 0), BuildingBlock: CIFDUS_clean_linker_0, # of connection points: 2
#     Edge 40, Type (0, 0), BuildingBlock: CIFDUS_clean_linker_0, # of connection points: 2
#     Edge 41, Type (0, 0), BuildingBlock: CIFDUS_clean_linker_0, # of connection points: 2
#     Edge 42, Type (0, 0), BuildingBlock: CIFDUS_clean_linker_0, # of connection points: 2
#     Edge 43, Type (0, 0), BuildingBlock: CIFDUS_clean_linker_0, # of connection points: 2
#     Edge 44, Type (0, 0), BuildingBlock: CIFDUS_clean_linker_0, # of connection points: 2
#     Edge 45, Type (0, 0), BuildingBlock: CIFDUS_clean_linker_0, # of connection points: 2
#     Edge 46, Type (0, 0), BuildingBlock: CIFDUS_clean_linker_0, # of connection points: 2
#     Edge 47, Type (0, 0), BuildingBlock: CIFDUS_clean_linker_0, # of connection points: 2
# Relax obj value: 0.058
# Max RMSD: 0.217
# Mean RMSD: 0.217
data_MOF--net-umd--node1-KOZSID_clean_sbu_0--edge1-CIFDUS_clean_linker_0
_symmetry_space_group_name_H-M    P1
_symmetry_Int_Tables_number       1
_symmetry_cell_setting            triclinic
loop_
_symmetry_equiv_pos_as_xyz
'x, y, z'
_cell_length_a     48.680261
_cell_length_b     48.624153
_cell_length_c     55.446955
_cell_angle_alpha  90.003305
_cell_angle_beta   90.011967
_cell_angle_gamma 89.992683
loop_
_atom_site_label
_atom_site_type_symbol
_atom_site_fract_x
_atom_site_fract_y
_atom_site_fract_z
_atom_type_partial_charge
C0 C 0.16966 0.44077 0.19325 0.0
C1 C 0.1623 0.42338 0.212 0.0
C2 C 0.15774 0.39786 0.202 0.0
C3 C 0.1627 0.40088 0.17773 0.0
N4 N 0.17006 0.42671 0.17195 0.0
Co5 Co 0.17888 0.43961 0.1389 0.0
N6 N 0.15993 0.40816 0.1232 0.0
C7 C 0.15327 0.38446 0.13423 0.0
C8 C 0.1409 0.36605 0.11884 0.0
C9 C 0.14002 0.37895 0.09675 0.0
C10 C 0.15193 0.4046 0.09985 0.0
N11 N 0.18808 0.45306 0.10601 0.0
C12 C 0.1777 0.44595 0.0842 0.0
C13 C 0.19107 0.45994 0.06576 0.0
C14 C 0.21054 0.47618 0.07644 0.0
C15 C 0.20804 0.47121 0.10068 0.0
N16 N 0.19779 0.47124 0.15452 0.0
C17 C 0.21597 0.48808 0.14369 0.0
C18 C 0.2233 0.51004 0.15774 0.0
C19 C 0.20901 0.50685 0.17877 0.0
C20 C 0.19418 0.4825 0.17678 0.0
N21 N 0.21357 0.41735 0.13927 0.0
C22 C 0.25891 0.37974 0.13964 0.0
C23 C 0.2428 0.3841 0.11894 0.0
C24 C 0.22067 0.40266 0.1191 0.0
C25 C 0.2517 0.3952 0.16026 0.0
C26 C 0.22925 0.41393 0.15965 0.0
N27 N 0.14373 0.46036 0.13829 0.0
C28 C 0.11605 0.4998 0.12706 0.0
C29 C 0.09176 0.48729 0.13577 0.0
C30 C 0.09467 0.46102 0.14599 0.0
C31 C 0.12037 0.44799 0.1468 0.0
C32 C 0.14166 0.48619 0.12867 0.0
H33 H 0.12114 0.4276 0.15428 0.0
H34 H 0.15973 0.49643 0.12183 0.0
H35 H 0.20882 0.40441 0.10279 0.0
H36 H 0.22432 0.42528 0.17583 0.0
C37 C 0.15578 0.38197 0.15946 0.0
C38 C 0.17795 0.46992 0.19651 0.0
C39 C 0.15729 0.42424 0.08006 0.0
C40 C 0.22069 0.48633 0.11892 0.0
H41 H 0.16044 0.42857 0.23091 0.0
H42 H 0.1505 0.37963 0.21122 0.0
H43 H 0.13287 0.34591 0.12324 0.0
H44 H 0.1319 0.37037 0.0802 0.0
H45 H 0.18748 0.4583 0.04655 0.0
H46 H 0.22426 0.49051 0.06762 0.0
H47 H 0.23592 0.52743 0.15266 0.0
H48 H 0.20916 0.5215 0.19339 0.0
H49 H 0.24674 0.37265 0.10255 0.0
H50 H 0.26343 0.39306 0.17674 0.0
H51 H 0.11546 0.51985 0.11864 0.0
H52 H 0.07726 0.45031 0.15364 0.0
C53 C 0.58614 0.16974 0.69485 0.0
C54 C 0.60336 0.16181 0.71355 0.0
C55 C 0.62894 0.15757 0.70366 0.0
C56 C 0.62615 0.16327 0.6795 0.0
N57 N 0.60038 0.17073 0.67366 0.0
Co58 Co 0.58809 0.18111 0.64072 0.0
N59 N 0.61998 0.16317 0.6248 0.0
C60 C 0.64348 0.15611 0.63592 0.0
C61 C 0.66212 0.14433 0.62039 0.0
C62 C 0.64955 0.14423 0.59812 0.0
C63 C 0.62387 0.156 0.60128 0.0
N64 N 0.57542 0.19191 0.60798 0.0
C65 C 0.58303 0.18257 0.58594 0.0
C66 C 0.5695 0.19681 0.56774 0.0
C67 C 0.55293 0.2157 0.57882 0.0
C68 C 0.55729 0.21203 0.60305 0.0
N69 N 0.55594 0.19899 0.65647 0.0
C70 C 0.53906 0.21737 0.64594 0.0
C71 C 0.51682 0.22396 0.6599 0.0
C72 C 0.5199 0.20902 0.6806 0.0
C73 C 0.54446 0.19458 0.67854 0.0
N74 N 0.60992 0.21586 0.64302 0.0
C75 C 0.64864 0.25968 0.64811 0.0
C76 C 0.64503 0.24579 0.62609 0.0
C77 C 0.62583 0.22421 0.62395 0.0
C78 C 0.63122 0.25171 0.66722 0.0
C79 C 0.61201 0.23012 0.66427 0.0
N80 N 0.56775 0.14587 0.63847 0.0
C81 C 0.52855 0.11839 0.62645 0.0
C82 C 0.54098 0.09394 0.63497 0.0
C83 C 0.56718 0.09664 0.64531 0.0
C84 C 0.58014 0.12231 0.64656 0.0
C85 C 0.54209 0.144 0.62855 0.0
H86 H 0.60045 0.12291 0.65417 0.0
H87 H 0.53189 0.16224 0.62198 0.0
H88 H 0.62476 0.21356 0.60693 0.0
H89 H 0.59946 0.22439 0.67952 0.0
C90 C 0.64544 0.15739 0.66125 0.0
C91 C 0.55707 0.17822 0.69818 0.0
C92 C 0.60442 0.16193 0.58148 0.0
C93 C 0.54144 0.22343 0.62143 0.0
H94 H 0.59804 0.15949 0.73239 0.0
H95 H 0.64711 0.15022 0.71287 0.0
H96 H 0.68215 0.13607 0.6248 0.0
H97 H 0.65834 0.13667 0.58147 0.0
H98 H 0.57155 0.19403 0.54845 0.0
H99 H 0.53868 0.22972 0.57025 0.0
H100 H 0.49944 0.23667 0.65498 0.0
H101 H 0.50516 0.20861 0.69514 0.0
H102 H 0.6578 0.25071 0.6107 0.0
H103 H 0.63251 0.26192 0.68453 0.0
H104 H 0.50859 0.11795 0.61791 0.0
H105 H 0.57783 0.0791 0.65283 0.0
C106 C 0.85476 0.58753 0.19193 0.0
C107 C 0.86214 0.6052 0.21048 0.0
C108 C 0.86659 0.6306 0.2002 0.0
C109 C 0.86154 0.62723 0.17597 0.0
N110 N 0.85422 0.60131 0.1705 0.0
Co111 Co 0.84538 0.58789 0.13761 0.0
N112 N 0.86429 0.61909 0.12153 0.0
C113 C 0.87094 0.64297 0.13227 0.0
C114 C 0.88335 0.66111 0.11666 0.0
C115 C 0.88427 0.64783 0.09473 0.0
C116 C 0.87234 0.62224 0.09814 0.0
N117 N 0.83614 0.57394 0.10491 0.0
C118 C 0.84651 0.58069 0.08301 0.0
C119 C 0.83306 0.56646 0.06474 0.0
C120 C 0.81358 0.55044 0.07562 0.0
C121 C 0.81613 0.55576 0.0998 0.0
N122 N 0.82655 0.55648 0.15361 0.0
C123 C 0.80834 0.53948 0.143 0.0
C124 C 0.80117 0.51766 0.15728 0.0
C125 C 0.8156 0.52111 0.17821 0.0
C126 C 0.83034 0.54549 0.17595 0.0
N127 N 0.81065 0.61011 0.13776 0.0
C128 C 0.76505 0.64747 0.13769 0.0
C129 C 0.78139 0.64311 0.11712 0.0
C130 C 0.8036 0.62464 0.11749 0.0
C131 C 0.77223 0.63218 0.15842 0.0
C132 C 0.79483 0.61361 0.15804 0.0
N133 N 0.88057 0.56718 0.13724 0.0
C134 C 0.90829 0.52758 0.12653 0.0
C135 C 0.93256 0.54024 0.13515 0.0
C136 C 0.92961 0.56668 0.14504 0.0
C137 C 0.9039 0.5797 0.14563 0.0
C138 C 0.88267 0.5412 0.12792 0.0
H139 H 0.90311 0.60021 0.15286 0.0
H140 H 0.86462 0.53085 0.12117 0.0
H141 H 0.81554 0.6228 0.10124 0.0
H142 H 0.79974 0.60241 0.17431 0.0
C143 C 0.86843 0.64586 0.15747 0.0
C144 C 0.84666 0.55836 0.19549 0.0
C145 C 0.86701 0.60224 0.07861 0.0
C146 C 0.80352 0.5409 0.11823 0.0
H147 H 0.86412 0.60027 0.22943 0.0
H148 H 0.87383 0.64896 0.2092 0.0
H149 H 0.8914 0.68131 0.12081 0.0
H150 H 0.89244 0.65611 0.0781 0.0
H151 H 0.83664 0.56779 0.04551 0.0
H152 H 0.79981 0.53599 0.06698 0.0
H153 H 0.78858 0.50017 0.15239 0.0
H154 H 0.81561 0.5066 0.19293 0.0
H155 H 0.77756 0.65445 0.10066 0.0
H156 H 0.76038 0.63433 0.17483 0.0
H157 H 0.90892 0.5074 0.11836 0.0
H158 H 0.94699 0.57751 0.1526 0.0
C159 C 0.43984 0.86157 0.69475 0.0
C160 C 0.42393 0.87343 0.71275 0.0
C161 C 0.39824 0.87777 0.70314 0.0
C162 C 0.3997 0.86894 0.67965 0.0
N163 N 0.4248 0.85938 0.67396 0.0
Co164 Co 0.43717 0.84966 0.64079 0.0
N165 N 0.40651 0.8696 0.62492 0.0
C166 C 0.38324 0.87747 0.63601 0.0
C167 C 0.36506 0.89004 0.62059 0.0
C168 C 0.37757 0.88967 0.59836 0.0
C169 C 0.40279 0.87682 0.60139 0.0
N170 N 0.45049 0.83974 0.60803 0.0
C171 C 0.44385 0.85006 0.58602 0.0
C172 C 0.45774 0.83596 0.5679 0.0
C173 C 0.47305 0.81597 0.57892 0.0
C174 C 0.46782 0.81889 0.60307 0.0
N175 N 0.46756 0.82941 0.65651 0.0
C176 C 0.48159 0.80847 0.64656 0.0
C177 C 0.49961 0.79628 0.6623 0.0
C178 C 0.49678 0.81054 0.68348 0.0
C179 C 0.47745 0.83104 0.67934 0.0
N180 N 0.41381 0.81576 0.64124 0.0
C181 C 0.37716 0.76974 0.64082 0.0
C182 C 0.38123 0.78634 0.62038 0.0
C183 C 0.39934 0.80878 0.62092 0.0
C184 C 0.39205 0.77707 0.66171 0.0
C185 C 0.41026 0.79994 0.66152 0.0
N186 N 0.45917 0.884 0.64002 0.0
C187 C 0.49939 0.91037 0.62863 0.0
C188 C 0.48729 0.93521 0.63665 0.0
C189 C 0.46098 0.93319 0.64684 0.0
C190 C 0.44736 0.90789 0.64801 0.0
C191 C 0.48515 0.8851 0.63066 0.0
H192 H 0.42693 0.90795 0.65528 0.0
H193 H 0.49495 0.86654 0.6243 0.0
H194 H 0.40118 0.82073 0.6047 0.0
H195 H 0.42133 0.80491 0.67784 0.0
C196 C 0.38105 0.87603 0.66128 0.0
C197 C 0.46854 0.85119 0.69765 0.0
C198 C 0.42155 0.86985 0.58128 0.0
C199 C 0.48068 0.80424 0.62164 0.0
H200 H 0.43003 0.87952 0.73065 0.0
H201 H 0.38126 0.88827 0.71173 0.0
H202 H 0.34535 0.899 0.62503 0.0
H203 H 0.36897 0.89762 0.58176 0.0
H204 H 0.45618 0.83899 0.54861 0.0
H205 H 0.48648 0.80118 0.57033 0.0
H206 H 0.51387 0.77973 0.65859 0.0
H207 H 0.50782 0.8064 0.70003 0.0
H208 H 0.37007 0.7824 0.60385 0.0
H209 H 0.38999 0.76505 0.67804 0.0
H210 H 0.51953 0.9103 0.62041 0.0
H211 H 0.45064 0.95103 0.65412 0.0
C212 C 0.17139 0.58725 0.32403 0.0
C213 C 0.16362 0.6042 0.30512 0.0
C214 C 0.15878 0.62981 0.31482 0.0
C215 C 0.16393 0.62724 0.3391 0.0
N216 N 0.17153 0.60157 0.34523 0.0
Co217 Co 0.18119 0.58956 0.37848 0.0
N218 N 0.16306 0.62171 0.39386 0.0
C219 C 0.15611 0.64509 0.38244 0.0
C220 C 0.1441 0.66393 0.39765 0.0
C221 C 0.1437 0.65164 0.42003 0.0
C222 C 0.15552 0.62591 0.41725 0.0
N223 N 0.19129 0.57714 0.41148 0.0
C224 C 0.18157 0.58504 0.43331 0.0
C225 C 0.19531 0.57157 0.45184 0.0
C226 C 0.21431 0.55477 0.44118 0.0
C227 C 0.21117 0.55892 0.41687 0.0
N228 N 0.19929 0.55717 0.36334 0.0
C229 C 0.21765 0.54053 0.37418 0.0
C230 C 0.22566 0.51887 0.36001 0.0
C231 C 0.21165 0.52211 0.33882 0.0
C232 C 0.19608 0.54595 0.34106 0.0
N233 N 0.21611 0.6113 0.37655 0.0
C234 C 0.26082 0.64925 0.37201 0.0
C235 C 0.24621 0.64621 0.39374 0.0
C236 C 0.22421 0.62741 0.39561 0.0
C237 C 0.25298 0.63171 0.35292 0.0
C238 C 0.23095 0.61293 0.35558 0.0
N239 N 0.14583 0.56927 0.38033 0.0
C240 C 0.11807 0.53003 0.39197 0.0
C241 C 0.09377 0.54255 0.38326 0.0
C242 C 0.09669 0.56881 0.37301 0.0
C243 C 0.12242 0.58171 0.37199 0.0
C244 C 0.14373 0.54355 0.39018 0.0
H245 H 0.12319 0.60201 0.36435 0.0
H246 H 0.16183 0.53329 0.39694 0.0
H247 H 0.21313 0.62672 0.41242 0.0
H248 H 0.22544 0.60026 0.34033 0.0
C249 C 0.1577 0.64672 0.35711 0.0
C250 C 0.18054 0.55838 0.32095 0.0
C251 C 0.16105 0.60666 0.43729 0.0
C252 C 0.22311 0.54298 0.39879 0.0
H253 H 0.16177 0.59866 0.28628 0.0
H254 H 0.15147 0.64786 0.30538 0.0
H255 H 0.13587 0.6839 0.39295 0.0
H256 H 0.13588 0.66063 0.43651 0.0
H257 H 0.19215 0.57382 0.47106 0.0
H258 H 0.22809 0.54054 0.45008 0.0
H259 H 0.23909 0.50202 0.36487 0.0
H260 H 0.21292 0.50841 0.32349 0.0
H261 H 0.25095 0.65909 0.40912 0.0
H262 H 0.26368 0.63252 0.33582 0.0
H263 H 0.11744 0.50999 0.40042 0.0
H264 H 0.07927 0.57953 0.36539 0.0
C265 C 0.44045 0.1737 0.826 0.0
C266 C 0.42339 0.16654 0.80698 0.0
C267 C 0.39788 0.16151 0.81669 0.0
C268 C 0.40063 0.16594 0.84106 0.0
N269 N 0.42629 0.17335 0.84726 0.0
Co270 Co 0.43872 0.1815 0.88074 0.0
N271 N 0.40667 0.16284 0.89582 0.0
C272 C 0.38334 0.15616 0.88419 0.0
C273 C 0.36426 0.14411 0.89908 0.0
C274 C 0.37622 0.1435 0.92153 0.0
C275 C 0.40201 0.15535 0.91918 0.0
N276 N 0.45178 0.18997 0.914 0.0
C277 C 0.44379 0.17992 0.93576 0.0
C278 C 0.45799 0.19283 0.95438 0.0
C279 C 0.47518 0.21158 0.94396 0.0
C280 C 0.47057 0.20925 0.91968 0.0
N281 N 0.47089 0.20016 0.86576 0.0
C282 C 0.48777 0.21801 0.87694 0.0
C283 C 0.50918 0.22656 0.86276 0.0
C284 C 0.50559 0.21341 0.8412 0.0
C285 C 0.48182 0.19774 0.84328 0.0
N286 N 0.41709 0.21658 0.88044 0.0
C287 C 0.38038 0.26261 0.88009 0.0
C288 C 0.38417 0.24621 0.9007 0.0
C289 C 0.40231 0.22375 0.90053 0.0
C290 C 0.39591 0.25535 0.85956 0.0
C291 C 0.41421 0.23255 0.86016 0.0
N292 N 0.4589 0.14604 0.88125 0.0
C293 C 0.49775 0.11787 0.89288 0.0
C294 C 0.48522 0.09378 0.88376 0.0
C295 C 0.45919 0.09701 0.87317 0.0
C296 C 0.44646 0.12289 0.87236 0.0
C297 C 0.48448 0.14362 0.89123 0.0
H298 H 0.42626 0.12395 0.86457 0.0
H299 H 0.49478 0.16153 0.89834 0.0
H300 H 0.40364 0.21175 0.91676 0.0
H301 H 0.42567 0.2276 0.84405 0.0
C302 C 0.38148 0.15881 0.85898 0.0
C303 C 0.46937 0.18252 0.82301 0.0
C304 C 0.42049 0.16116 0.9398 0.0
C305 C 0.48602 0.22204 0.90176 0.0
H306 H 0.42884 0.16512 0.7881 0.0
H307 H 0.3798 0.15439 0.80719 0.0
H308 H 0.34424 0.13623 0.89416 0.0
H309 H 0.36687 0.13564 0.93783 0.0
H310 H 0.45571 0.18973 0.97359 0.0
H311 H 0.48965 0.22497 0.95301 0.0
H312 H 0.5262 0.23966 0.86787 0.0
H313 H 0.51911 0.21514 0.82581 0.0
H314 H 0.37262 0.25021 0.91701 0.0
H315 H 0.39418 0.2673 0.84316 0.0
H316 H 0.51758 0.11703 0.90164 0.0
H317 H 0.4485 0.07975 0.86523 0.0
C318 C 0.85534 0.44255 0.32411 0.0
C319 C 0.86277 0.42513 0.30542 0.0
C320 C 0.86833 0.39991 0.31562 0.0
C321 C 0.86392 0.40318 0.33995 0.0
N322 N 0.85606 0.42889 0.34562 0.0
Co323 Co 0.84756 0.44197 0.37878 0.0
N324 N 0.86706 0.41083 0.39445 0.0
C325 C 0.874 0.38718 0.38347 0.0
C326 C 0.88685 0.36907 0.39884 0.0
C327 C 0.88777 0.38213 0.42086 0.0
C328 C 0.87541 0.40756 0.41774 0.0
N329 N 0.83862 0.45556 0.41168 0.0
C330 C 0.84939 0.44876 0.43341 0.0
C331 C 0.83615 0.46277 0.45192 0.0
C332 C 0.81636 0.47871 0.44137 0.0
C333 C 0.81855 0.47356 0.41714 0.0
N334 N 0.8281 0.4733 0.36329 0.0
C335 C 0.80966 0.48984 0.37414 0.0
C336 C 0.80063 0.51076 0.3596 0.0
C337 C 0.81407 0.50716 0.33818 0.0
C338 C 0.83036 0.48384 0.34067 0.0
N339 N 0.8131 0.41938 0.37883 0.0
C340 C 0.76807 0.3814 0.37904 0.0
C341 C 0.78444 0.38594 0.39956 0.0
C342 C 0.80641 0.40468 0.39911 0.0
C343 C 0.77485 0.39686 0.35832 0.0
C344 C 0.79715 0.41576 0.35864 0.0
N345 N 0.88254 0.46304 0.379 0.0
C346 C 0.91017 0.5024 0.39054 0.0
C347 C 0.9345 0.48995 0.38184 0.0
C348 C 0.93162 0.4638 0.37136 0.0
C349 C 0.90592 0.4508 0.37037 0.0
C350 C 0.88456 0.4888 0.38877 0.0
H351 H 0.90521 0.43047 0.36276 0.0
H352 H 0.86648 0.49895 0.39568 0.0
H353 H 0.81848 0.4066 0.41529 0.0
H354 H 0.80173 0.42711 0.34238 0.0
C355 C 0.87136 0.38453 0.35827 0.0
C356 C 0.84585 0.47125 0.32063 0.0
C357 C 0.87012 0.42733 0.43745 0.0
C358 C 0.80534 0.48834 0.39897 0.0
H359 H 0.864 0.43013 0.28643 0.0
H360 H 0.87573 0.38171 0.30645 0.0
H361 H 0.89519 0.34905 0.39446 0.0
H362 H 0.89626 0.37382 0.43736 0.0
H363 H 0.84005 0.46135 0.4711 0.0
H364 H 0.8026 0.49295 0.45027 0.0
H365 H 0.78699 0.52748 0.36437 0.0
H366 H 0.81203 0.52035 0.32258 0.0
H367 H 0.78082 0.37452 0.41601 0.0
H368 H 0.76291 0.39459 0.34197 0.0
H369 H 0.91074 0.52237 0.3991 0.0
H370 H 0.94907 0.45318 0.3637 0.0
C371 C 0.58808 0.86272 0.82419 0.0
C372 C 0.6042 0.87491 0.80652 0.0
C373 C 0.62962 0.87959 0.81661 0.0
C374 C 0.62782 0.87056 0.84003 0.0
N375 N 0.60273 0.86059 0.84519 0.0
Co376 Co 0.58996 0.84997 0.87799 0.0
N377 N 0.61989 0.87017 0.89462 0.0
C378 C 0.64333 0.8785 0.88411 0.0
C379 C 0.66069 0.89142 0.90007 0.0
C380 C 0.64736 0.89086 0.92198 0.0
C381 C 0.62252 0.87761 0.9182 0.0
N382 N 0.57635 0.83904 0.91034 0.0
C383 C 0.58213 0.84936 0.93249 0.0
C384 C 0.56871 0.83446 0.95034 0.0
C385 C 0.55443 0.81395 0.93894 0.0
C386 C 0.55982 0.81744 0.91485 0.0
N387 N 0.56027 0.82941 0.86164 0.0
C388 C 0.5467 0.80785 0.87107 0.0
C389 C 0.52935 0.79546 0.85488 0.0
C390 C 0.53217 0.81021 0.83396 0.0
C391 C 0.55083 0.83116 0.83869 0.0
N392 N 0.61398 0.81659 0.87722 0.0
C393 C 0.65187 0.77164 0.87677 0.0
C394 C 0.64707 0.78734 0.89764 0.0
C395 C 0.62838 0.80935 0.8975 0.0
C396 C 0.63698 0.77922 0.85597 0.0
C397 C 0.61814 0.80151 0.8566 0.0
N398 N 0.56736 0.88395 0.87897 0.0
C399 C 0.52668 0.90987 0.89003 0.0
C400 C 0.53867 0.93489 0.88229 0.0
C401 C 0.56514 0.93316 0.87241 0.0
C402 C 0.57902 0.90804 0.8713 0.0
C403 C 0.54123 0.88471 0.88805 0.0
H404 H 0.59958 0.90843 0.86432 0.0
H405 H 0.53156 0.86598 0.89421 0.0
H406 H 0.62604 0.82082 0.91397 0.0
H407 H 0.60712 0.80667 0.8403 0.0
C408 C 0.64607 0.87755 0.85881 0.0
C409 C 0.55963 0.85182 0.82079 0.0
C410 C 0.60268 0.87076 0.9375 0.0
C411 C 0.54755 0.80288 0.89592 0.0
H412 H 0.59841 0.88085 0.7885 0.0
H413 H 0.64666 0.89033 0.80833 0.0
H414 H 0.6803 0.90089 0.89616 0.0
H415 H 0.6551 0.89904 0.93882 0.0
H416 H 0.56979 0.83751 0.96966 0.0
H417 H 0.54141 0.79858 0.94722 0.0
H418 H 0.51559 0.77837 0.8581 0.0
H419 H 0.52161 0.80606 0.81718 0.0
H420 H 0.65813 0.78305 0.91416 0.0
H421 H 0.63957 0.76783 0.83935 0.0
H422 H 0.5064 0.90958 0.89798 0.0
H423 H 0.57543 0.95112 0.8653 0.0
C424 C 0.83488 0.55537 0.83283 0.0
C425 C 0.81457 0.53631 0.82715 0.0
C426 C 0.79947 0.53217 0.84764 0.0
C427 C 0.81089 0.54924 0.86455 0.0
N428 N 0.83224 0.56391 0.85607 0.0
Co429 Co 0.85088 0.59401 0.87399 0.0
N430 N 0.83833 0.57956 0.9057 0.0
C431 C 0.81757 0.56165 0.90892 0.0
C432 C 0.81278 0.55555 0.93268 0.0
C433 C 0.83147 0.57084 0.94534 0.0
C434 C 0.84668 0.58558 0.9285 0.0
N435 N 0.86877 0.6245 0.89208 0.0
C436 C 0.87385 0.62751 0.9161 0.0
C437 C 0.88602 0.65278 0.9207 0.0
C438 C 0.88824 0.66605 0.89893 0.0
C439 C 0.87737 0.64826 0.88222 0.0
N440 N 0.86372 0.60757 0.84202 0.0
C441 C 0.87447 0.63263 0.8379 0.0
C442 C 0.88557 0.63492 0.81526 0.0
C443 C 0.88132 0.60989 0.80442 0.0
C444 C 0.86699 0.59365 0.82076 0.0
N445 N 0.81703 0.61712 0.87146 0.0
C446 C 0.77262 0.65532 0.86717 0.0
C447 C 0.78204 0.63981 0.84731 0.0
C448 C 0.80398 0.62096 0.84982 0.0
C449 C 0.78566 0.6503 0.88939 0.0
C450 C 0.80752 0.63138 0.89114 0.0
N451 N 0.88517 0.57208 0.87645 0.0
C452 C 0.93492 0.57091 0.87456 0.0
C453 C 0.9354 0.54252 0.87856 0.0
C454 C 0.9099 0.52917 0.88156 0.0
C455 C 0.8851 0.54433 0.88072 0.0
C456 C 0.90991 0.58507 0.87332 0.0
H457 H 0.86589 0.53364 0.88335 0.0
H458 H 0.91085 0.60669 0.86948 0.0
H459 H 0.81074 0.60988 0.83402 0.0
H460 H 0.81722 0.62897 0.90846 0.0
C461 C 0.8048 0.54921 0.88916 0.0
C462 C 0.85522 0.56592 0.81534 0.0
C463 C 0.86586 0.60776 0.9351 0.0
C464 C 0.87917 0.6509 0.85707 0.0
H465 H 0.81071 0.52655 0.80996 0.0
H466 H 0.78258 0.51795 0.85003 0.0
H467 H 0.79764 0.54152 0.93996 0.0
H468 H 0.83301 0.57176 0.96479 0.0
H469 H 0.89251 0.66081 0.93799 0.0
H470 H 0.89759 0.68589 0.89561 0.0
H471 H 0.89717 0.65204 0.80805 0.0
H472 H 0.88886 0.60435 0.78678 0.0
H473 H 0.77261 0.6422 0.82976 0.0
H474 H 0.77973 0.66164 0.90536 0.0
H475 H 0.95383 0.58218 0.87166 0.0
H476 H 0.90912 0.50721 0.88471 0.0
C477 C 0.48183 0.83299 0.34153 0.0
C478 C 0.50598 0.81788 0.33936 0.0
C479 C 0.50921 0.80354 0.36038 0.0
C480 C 0.48746 0.81109 0.37459 0.0
N481 N 0.47073 0.82944 0.36385 0.0
Co482 Co 0.43935 0.84855 0.37961 0.0
N483 N 0.45296 0.83929 0.41241 0.0
C484 C 0.47088 0.8191 0.41768 0.0
C485 C 0.47599 0.81664 0.44191 0.0
C486 C 0.4601 0.83638 0.45262 0.0
C487 C 0.44617 0.84989 0.43421 0.0
N488 N 0.40819 0.86775 0.39544 0.0
C489 C 0.40502 0.87605 0.41875 0.0
C490 C 0.37955 0.88825 0.42199 0.0
C491 C 0.36638 0.88725 0.40002 0.0
C492 C 0.38447 0.87453 0.38456 0.0
N493 N 0.42625 0.85737 0.34663 0.0
C494 C 0.40044 0.86484 0.34098 0.0
C495 C 0.39731 0.86986 0.31673 0.0
C496 C 0.42272 0.86523 0.30661 0.0
C497 C 0.44017 0.85777 0.32528 0.0
N498 N 0.41699 0.81389 0.37944 0.0
C499 C 0.37994 0.76804 0.37966 0.0
C500 C 0.39529 0.77511 0.35894 0.0
C501 C 0.41371 0.79785 0.35924 0.0
C502 C 0.38402 0.78466 0.40011 0.0
C503 C 0.40232 0.80701 0.39966 0.0
N504 N 0.46025 0.88364 0.38011 0.0
C505 C 0.46113 0.93281 0.37259 0.0
C506 C 0.48725 0.9356 0.38313 0.0
C507 C 0.49954 0.91118 0.39187 0.0
C508 C 0.48593 0.88559 0.38997 0.0
C509 C 0.44806 0.9071 0.37155 0.0
H510 H 0.49603 0.86744 0.39685 0.0
H511 H 0.42776 0.90643 0.36391 0.0
H512 H 0.425 0.80265 0.34301 0.0
H513 H 0.40397 0.81914 0.41583 0.0
C514 C 0.4858 0.80632 0.39937 0.0
C515 C 0.46927 0.84943 0.32191 0.0
C516 C 0.42492 0.87078 0.43835 0.0
C517 C 0.38174 0.87194 0.35936 0.0
H518 H 0.52044 0.81755 0.32462 0.0
H519 H 0.52648 0.7907 0.36534 0.0
H520 H 0.49024 0.80278 0.45069 0.0
H521 H 0.45867 0.84011 0.47183 0.0
H522 H 0.37129 0.89668 0.43854 0.0
H523 H 0.34631 0.89548 0.39573 0.0
H524 H 0.37908 0.87722 0.3076 0.0
H525 H 0.42782 0.86714 0.28769 0.0
H526 H 0.39334 0.76304 0.34263 0.0
H527 H 0.37261 0.78092 0.41654 0.0
H528 H 0.45058 0.95031 0.36491 0.0
H529 H 0.51941 0.91162 0.40057 0.0
C530 C 0.19299 0.48236 0.84048 0.0
C531 C 0.20717 0.5071 0.83859 0.0
C532 C 0.22175 0.51032 0.85946 0.0
C533 C 0.21523 0.48794 0.87331 0.0
N534 N 0.19727 0.47081 0.86254 0.0
Co535 Co 0.17981 0.43816 0.87797 0.0
N536 N 0.18973 0.45089 0.91096 0.0
C537 C 0.20892 0.46989 0.91617 0.0
C538 C 0.2121 0.47433 0.94042 0.0
C539 C 0.19394 0.45682 0.95128 0.0
C540 C 0.18057 0.44261 0.93294 0.0
N541 N 0.16274 0.40545 0.89345 0.0
C542 C 0.15623 0.40052 0.91697 0.0
C543 C 0.14535 0.37432 0.91961 0.0
C544 C 0.14552 0.36242 0.89712 0.0
C545 C 0.1564 0.38193 0.88195 0.0
N546 N 0.16978 0.4261 0.84488 0.0
C547 C 0.16261 0.40034 0.8387 0.0
C548 C 0.15688 0.39784 0.81453 0.0
C549 C 0.16075 0.42363 0.80495 0.0
C550 C 0.16853 0.44064 0.82386 0.0
N551 N 0.21509 0.41715 0.87581 0.0
C552 C 0.26036 0.37996 0.87123 0.0
C553 C 0.25178 0.39684 0.85193 0.0
C554 C 0.22946 0.41527 0.85461 0.0
C555 C 0.24621 0.38328 0.89315 0.0
C556 C 0.22394 0.40172 0.89505 0.0
N557 N 0.1442 0.45788 0.88007 0.0
C558 C 0.09457 0.45668 0.87646 0.0
C559 C 0.09211 0.48452 0.88296 0.0
C560 C 0.11693 0.49861 0.88787 0.0
C561 C 0.14249 0.48494 0.88664 0.0
C562 C 0.12043 0.44407 0.87478 0.0
H563 H 0.16089 0.49632 0.89092 0.0
H564 H 0.12101 0.42287 0.86928 0.0
H565 H 0.22335 0.42745 0.83923 0.0
H566 H 0.21327 0.40261 0.91204 0.0
C567 C 0.2205 0.48586 0.89796 0.0
C568 C 0.17668 0.46984 0.82081 0.0
C569 C 0.16191 0.41933 0.93732 0.0
C570 C 0.15741 0.38056 0.85663 0.0
H571 H 0.20672 0.52192 0.8241 0.0
H572 H 0.23406 0.52791 0.86459 0.0
H573 H 0.22553 0.489 0.94917 0.0
H574 H 0.19137 0.45441 0.97055 0.0
H575 H 0.1383 0.36472 0.93609 0.0
H576 H 0.13793 0.34222 0.89234 0.0
H577 H 0.14983 0.37967 0.8051 0.0
H578 H 0.15835 0.42921 0.78618 0.0
H579 H 0.26211 0.39578 0.83467 0.0
H580 H 0.2515 0.37089 0.90869 0.0
H581 H 0.07667 0.44416 0.87293 0.0
H582 H 0.11695 0.5202 0.89249 0.0
C583 C 0.55082 0.19642 0.33967 0.0
C584 C 0.53128 0.21662 0.3351 0.0
C585 C 0.5287 0.23178 0.35581 0.0
C586 C 0.54706 0.22038 0.37169 0.0
N587 N 0.56104 0.19907 0.36231 0.0
Co588 Co 0.59213 0.18007 0.37823 0.0
N589 N 0.57959 0.1917 0.41079 0.0
C590 C 0.56223 0.21267 0.41524 0.0
C591 C 0.55764 0.2169 0.43934 0.0
C592 C 0.57337 0.19763 0.45087 0.0
C593 C 0.58683 0.18263 0.43307 0.0
N594 N 0.62346 0.16152 0.39439 0.0
C595 C 0.62775 0.15553 0.41812 0.0
C596 C 0.65321 0.14319 0.42124 0.0
C597 C 0.66526 0.14185 0.39884 0.0
C598 C 0.64659 0.15337 0.38322 0.0
N599 N 0.60378 0.16854 0.3453 0.0
C600 C 0.62885 0.15892 0.33958 0.0
C601 C 0.62993 0.14905 0.31639 0.0
C602 C 0.60405 0.15286 0.30698 0.0
C603 C 0.58842 0.16544 0.32479 0.0
N604 N 0.61503 0.21418 0.37558 0.0
C605 C 0.65269 0.25914 0.37088 0.0
C606 C 0.63608 0.25031 0.35148 0.0
C607 C 0.61749 0.22813 0.3542 0.0
C608 C 0.6491 0.24514 0.39287 0.0
C609 C 0.63046 0.22301 0.39482 0.0
N610 N 0.57058 0.14547 0.3808 0.0
C611 C 0.56895 0.0961 0.3748 0.0
C612 C 0.54217 0.09428 0.38405 0.0
C613 C 0.52993 0.1193 0.39153 0.0
C614 C 0.54433 0.14455 0.3896 0.0
C615 C 0.58266 0.12136 0.37369 0.0
H616 H 0.53434 0.16328 0.39536 0.0
H617 H 0.6033 0.12113 0.36687 0.0
H618 H 0.60549 0.22192 0.33875 0.0
H619 H 0.6292 0.21258 0.41192 0.0
C620 C 0.54866 0.22607 0.39635 0.0
C621 C 0.55971 0.17573 0.32182 0.0
C622 C 0.60907 0.16292 0.43819 0.0
C623 C 0.64808 0.15323 0.35787 0.0
H624 H 0.52003 0.22009 0.31854 0.0
H625 H 0.51451 0.2485 0.3591 0.0
H626 H 0.5443 0.23203 0.44757 0.0
H627 H 0.57543 0.1956 0.47022 0.0
H628 H 0.6622 0.13611 0.43798 0.0
H629 H 0.68495 0.13282 0.39442 0.0
H630 H 0.64687 0.13839 0.30788 0.0
H631 H 0.59765 0.1461 0.28934 0.0
H632 H 0.63737 0.26044 0.33414 0.0
H633 H 0.66132 0.25056 0.40848 0.0
H634 H 0.57954 0.07817 0.36798 0.0
H635 H 0.50946 0.11956 0.3991 0.0
C636 C 0.8336 0.47296 0.68227 0.0
C637 C 0.81355 0.49245 0.68751 0.0
C638 C 0.79906 0.4968 0.66668 0.0
C639 C 0.8106 0.47949 0.65 0.0
N640 N 0.83141 0.46445 0.65899 0.0
Co641 Co 0.85076 0.43465 0.64137 0.0
N642 N 0.83984 0.44978 0.60942 0.0
C643 C 0.81916 0.46769 0.60573 0.0
C644 C 0.81548 0.47422 0.5819 0.0
C645 C 0.83479 0.4592 0.56972 0.0
C646 C 0.84925 0.44417 0.58688 0.0
N647 N 0.8699 0.40472 0.62363 0.0
C648 C 0.87628 0.40224 0.5998 0.0
C649 C 0.88896 0.37718 0.59534 0.0
C650 C 0.8901 0.36347 0.61697 0.0
C651 C 0.87814 0.38082 0.63345 0.0
N652 N 0.86153 0.42025 0.67364 0.0
C653 C 0.87152 0.39488 0.67786 0.0
C654 C 0.88148 0.39205 0.70086 0.0
C655 C 0.87736 0.41704 0.71179 0.0
C656 C 0.8642 0.43385 0.69512 0.0
N657 N 0.81672 0.41154 0.64184 0.0
C658 C 0.7703 0.37541 0.64145 0.0
C659 C 0.77848 0.3894 0.66259 0.0
C660 C 0.80154 0.40733 0.66238 0.0
C661 C 0.78626 0.38014 0.62073 0.0
C662 C 0.80891 0.39801 0.62126 0.0
N663 N 0.88512 0.45659 0.64058 0.0
C664 C 0.93443 0.45846 0.64642 0.0
C665 C 0.93593 0.48548 0.63755 0.0
C666 C 0.9108 0.49775 0.63057 0.0
C667 C 0.88577 0.48315 0.63245 0.0
C668 C 0.9093 0.44448 0.64743 0.0
H669 H 0.86699 0.4932 0.62699 0.0
H670 H 0.90968 0.42359 0.6537 0.0
H671 H 0.80716 0.41767 0.67891 0.0
H672 H 0.82033 0.40044 0.6048 0.0
C673 C 0.80556 0.47989 0.6252 0.0
C674 C 0.85324 0.46199 0.70019 0.0
C675 C 0.86867 0.42201 0.58068 0.0
C676 C 0.87781 0.37729 0.65856 0.0
H677 H 0.80957 0.50239 0.7046 0.0
H678 H 0.78262 0.51145 0.66389 0.0
H679 H 0.80068 0.48838 0.57427 0.0
H680 H 0.83721 0.45864 0.55033 0.0
H681 H 0.89631 0.36949 0.5782 0.0
H682 H 0.89922 0.34354 0.62034 0.0
H683 H 0.89262 0.3747 0.70821 0.0
H684 H 0.8845 0.4222 0.72964 0.0
H685 H 0.767 0.38684 0.67914 0.0
H686 H 0.78167 0.36968 0.60397 0.0
H687 H 0.95252 0.44784 0.65283 0.0
H688 H 0.91026 0.51838 0.6233 0.0
C689 C 0.5446 0.8333 0.17667 0.0
C690 C 0.52057 0.818 0.17859 0.0
C691 C 0.51729 0.80439 0.15723 0.0
C692 C 0.53911 0.81235 0.14328 0.0
N693 N 0.55594 0.83031 0.1544 0.0
Co694 Co 0.58869 0.84818 0.1396 0.0
N695 N 0.57656 0.83848 0.10634 0.0
C696 C 0.55791 0.81904 0.10077 0.0
C697 C 0.55403 0.81585 0.07646 0.0
C698 C 0.57148 0.83427 0.06593 0.0
C699 C 0.58509 0.84785 0.08452 0.0
N700 N 0.62125 0.86604 0.12462 0.0
C701 C 0.62632 0.873 0.1012 0.0
C702 C 0.6522 0.88466 0.09897 0.0
C703 C 0.66375 0.88456 0.1216 0.0
C704 C 0.64436 0.87296 0.13646 0.0
N705 N 0.60033 0.85751 0.17308 0.0
C706 C 0.6259 0.86501 0.17951 0.0
C707 C 0.62825 0.86995 0.20384 0.0
C708 C 0.60259 0.86508 0.21329 0.0
C709 C 0.58584 0.85749 0.19418 0.0
N710 N 0.61003 0.81296 0.14152 0.0
C711 C 0.64749 0.76778 0.14599 0.0
C712 C 0.63006 0.77578 0.16511 0.0
C713 C 0.61151 0.79804 0.16248 0.0
C714 C 0.64459 0.78249 0.12429 0.0
C715 C 0.62604 0.80471 0.12246 0.0
N716 N 0.56877 0.88379 0.13768 0.0
C717 C 0.56835 0.93301 0.14506 0.0
C718 C 0.54238 0.93606 0.13432 0.0
C719 C 0.53004 0.91179 0.12531 0.0
C720 C 0.54334 0.88606 0.12736 0.0
C721 C 0.58112 0.90715 0.14628 0.0
H722 H 0.53314 0.86802 0.12039 0.0
H723 H 0.60122 0.90624 0.15428 0.0
H724 H 0.59889 0.80363 0.17772 0.0
H725 H 0.6255 0.81582 0.10566 0.0
C726 C 0.54167 0.80722 0.11866 0.0
C727 C 0.55699 0.84838 0.19705 0.0
C728 C 0.60797 0.86707 0.08054 0.0
C729 C 0.64555 0.8713 0.16177 0.0
H730 H 0.50678 0.81667 0.19384 0.0
H731 H 0.50031 0.79125 0.15211 0.0
H732 H 0.53972 0.80224 0.06746 0.0
H733 H 0.57423 0.83688 0.04671 0.0
H734 H 0.66183 0.89218 0.08267 0.0
H735 H 0.68366 0.8926 0.12667 0.0
H736 H 0.64621 0.87713 0.21347 0.0
H737 H 0.59687 0.86676 0.2321 0.0
H738 H 0.63078 0.76502 0.18218 0.0
H739 H 0.6574 0.77766 0.10891 0.0
H740 H 0.57895 0.95039 0.15289 0.0
H741 H 0.51029 0.91245 0.11639 0.0
C742 C 0.19526 0.546 0.6761 0.0
C743 C 0.21069 0.52203 0.678 0.0
C744 C 0.22448 0.51898 0.6567 0.0
C745 C 0.21649 0.54087 0.64281 0.0
N746 N 0.19836 0.55753 0.65392 0.0
Co747 Co 0.18034 0.59026 0.6392 0.0
N748 N 0.19033 0.57844 0.60592 0.0
C749 C 0.20982 0.55983 0.60034 0.0
C750 C 0.21309 0.55606 0.57603 0.0
C751 C 0.19471 0.57357 0.56549 0.0
C752 C 0.1811 0.58712 0.58408 0.0
N753 N 0.16233 0.62285 0.62431 0.0
C754 C 0.15571 0.6282 0.60086 0.0
C755 C 0.14406 0.65411 0.59871 0.0
C756 C 0.1438 0.66543 0.62142 0.0
C757 C 0.1552 0.64587 0.63624 0.0
N758 N 0.17066 0.60163 0.67267 0.0
C759 C 0.16295 0.62712 0.67922 0.0
C760 C 0.15777 0.62924 0.70352 0.0
C761 C 0.1627 0.6035 0.71284 0.0
C762 C 0.17056 0.58695 0.69367 0.0
N763 N 0.21525 0.61183 0.64149 0.0
C764 C 0.25966 0.64981 0.64678 0.0
C765 C 0.25176 0.63201 0.66563 0.0
C766 C 0.22988 0.61318 0.66259 0.0
C767 C 0.24537 0.64699 0.62488 0.0
C768 C 0.22349 0.62815 0.62263 0.0
N769 N 0.14506 0.57 0.63704 0.0
C770 C 0.09608 0.56872 0.64487 0.0
C771 C 0.09345 0.54254 0.63438 0.0
C772 C 0.11778 0.53059 0.62517 0.0
C773 C 0.14321 0.54443 0.62689 0.0
C774 C 0.12161 0.58204 0.6457 0.0
H775 H 0.16135 0.53449 0.61988 0.0
H776 H 0.12222 0.60225 0.65356 0.0
H777 H 0.22429 0.60027 0.67765 0.0
H778 H 0.21263 0.62764 0.60572 0.0
C779 C 0.22165 0.54356 0.61822 0.0
C780 C 0.17983 0.55812 0.6964 0.0
C781 C 0.16205 0.61016 0.58009 0.0
C782 C 0.15667 0.64689 0.66156 0.0
H783 H 0.21195 0.5081 0.69317 0.0
H784 H 0.23772 0.50208 0.65156 0.0
H785 H 0.22675 0.5418 0.56702 0.0
H786 H 0.19215 0.5764 0.54627 0.0
H787 H 0.13684 0.66394 0.58238 0.0
H788 H 0.13572 0.68532 0.62655 0.0
H789 H 0.15039 0.64709 0.71321 0.0
H790 H 0.16088 0.5976 0.73159 0.0
H791 H 0.26228 0.63268 0.68283 0.0
H792 H 0.25023 0.66009 0.60968 0.0
H793 H 0.07865 0.57905 0.65286 0.0
H794 H 0.1174 0.51072 0.61641 0.0
C795 C 0.47713 0.19692 0.18148 0.0
C796 C 0.49609 0.21755 0.18639 0.0
C797 C 0.49851 0.23302 0.16583 0.0
C798 C 0.48064 0.22135 0.14967 0.0
N799 N 0.46716 0.19955 0.15877 0.0
Co800 Co 0.43676 0.17996 0.14248 0.0
N801 N 0.44953 0.19206 0.11023 0.0
C802 C 0.46599 0.21376 0.10596 0.0
C803 C 0.47083 0.21796 0.08185 0.0
C804 C 0.45626 0.19779 0.07023 0.0
C805 C 0.44328 0.18237 0.08798 0.0
N806 N 0.40619 0.16078 0.12589 0.0
C807 C 0.40319 0.15385 0.10224 0.0
C808 C 0.3782 0.1409 0.09849 0.0
C809 C 0.3652 0.13991 0.12056 0.0
C810 C 0.3829 0.15233 0.13656 0.0
N811 N 0.42476 0.16811 0.17517 0.0
C812 C 0.3997 0.15818 0.18052 0.0
C813 C 0.39839 0.14828 0.2037 0.0
C814 C 0.42409 0.15241 0.21344 0.0
C815 C 0.43986 0.16519 0.19584 0.0
N816 N 0.41314 0.2136 0.14493 0.0
C817 C 0.37494 0.25817 0.14915 0.0
C818 C 0.39142 0.24961 0.16872 0.0
C819 C 0.41027 0.22761 0.16625 0.0
C820 C 0.37887 0.24406 0.12726 0.0
C821 C 0.39776 0.2221 0.12556 0.0
N822 N 0.45899 0.14577 0.14003 0.0
C823 C 0.46108 0.09633 0.14551 0.0
C824 C 0.4877 0.09482 0.13591 0.0
C825 C 0.49971 0.12003 0.12866 0.0
C826 C 0.48516 0.14517 0.131 0.0
C827 C 0.44721 0.12147 0.14705 0.0
H828 H 0.4949 0.16405 0.1253 0.0
H829 H 0.42664 0.12096 0.15399 0.0
H830 H 0.42219 0.22162 0.18181 0.0
H831 H 0.39932 0.21154 0.10852 0.0
C832 C 0.47902 0.22741 0.12503 0.0
C833 C 0.46841 0.17587 0.19908 0.0
C834 C 0.42297 0.16078 0.08295 0.0
C835 C 0.38085 0.15221 0.16192 0.0
H836 H 0.50703 0.22112 0.2031 0.0
H837 H 0.51226 0.25018 0.16284 0.0
H838 H 0.48378 0.23347 0.0737 0.0
H839 H 0.45483 0.19518 0.05088 0.0
H840 H 0.37021 0.13308 0.08162 0.0
H841 H 0.34566 0.13034 0.12456 0.0
H842 H 0.38146 0.13739 0.21199 0.0
H843 H 0.43027 0.14576 0.23116 0.0
H844 H 0.38985 0.25983 0.18601 0.0
H845 H 0.36674 0.24926 0.11154 0.0
H846 H 0.45069 0.07822 0.15221 0.0
H847 H 0.52008 0.12051 0.12089 0.0
H848 H 0.03957 0.46383 0.13348 0.0
H849 H 0.07978 0.54308 0.13547 0.0
H850 H 0.03528 0.56576 0.13394 0.0
H851 H 0.98476 0.56367 0.13278 0.0
H852 H 0.94455 0.48445 0.13553 0.0
H853 H 0.98905 0.46176 0.13445 0.0
C854 C 0.03894 0.48608 0.13399 0.0
C855 C 0.06382 0.50135 0.13457 0.0
C856 C 1.01294 0.49928 0.13388 0.0
C857 C 0.06162 0.53031 0.13453 0.0
C858 C 0.03592 0.54348 0.1339 0.0
C859 C 0.98539 0.54143 0.13356 0.0
C860 C 0.96051 0.52616 0.13422 0.0
C861 C 1.01139 0.52823 0.1337 0.0
C862 C 0.9627 0.49721 0.13452 0.0
C863 C 0.98841 0.48403 0.13414 0.0
H864 H 0.46435 0.98737 0.63265 0.0
H865 H 0.54317 0.94661 0.63641 0.0
H866 H 0.56613 0.99104 0.63446 0.0
H867 H 0.56426 0.04161 0.63281 0.0
H868 H 0.48524 0.08225 0.6343 0.0
H869 H 0.46244 0.03782 0.63306 0.0
C870 C 0.48655 0.98786 0.63351 0.0
C871 C 0.50165 0.96291 0.63482 0.0
C872 C 0.49986 1.01376 0.63325 0.0
C873 C 0.53057 0.96487 0.63503 0.0
C874 C 0.54388 0.99051 0.63415 0.0
C875 C 0.54204 0.0411 0.63329 0.0
C876 C 0.52686 0.06607 0.63367 0.0
C877 C 0.52876 0.01515 0.63347 0.0
C878 C 0.49794 0.06402 0.63352 0.0
C879 C 0.4847 0.03837 0.63307 0.0
H880 H 0.04162 0.56606 0.38562 0.0
H881 H 0.08174 0.48679 0.3832 0.0
H882 H 0.03717 0.46416 0.38403 0.0
H883 H 0.9866 0.46634 0.38451 0.0
H884 H 0.94658 0.54569 0.3824 0.0
H885 H 0.99112 0.56826 0.38426 0.0
C886 C 0.04095 0.54382 0.38488 0.0
C887 C 0.06581 0.52851 0.38432 0.0
C888 C 0.01493 0.53067 0.3846 0.0
C889 C 0.06358 0.49957 0.38409 0.0
C890 C 0.03784 0.48644 0.38432 0.0
C891 C 0.9873 0.48859 0.38406 0.0
C892 C 0.96246 0.50393 0.38331 0.0
C893 C 1.01332 0.50173 0.3844 0.0
C894 C 0.96471 0.53287 0.38344 0.0
C895 C 0.99043 0.54598 0.38427 0.0
H896 H 0.5614 0.98699 0.88697 0.0
H897 H 0.48272 0.94622 0.88185 0.0
H898 H 0.4597 0.99073 0.88334 0.0
H899 H 0.46161 0.04147 0.88491 0.0
H900 H 0.54082 0.08177 0.88485 0.0
H901 H 0.56342 0.03731 0.88642 0.0
C902 C 0.53922 0.98748 0.88568 0.0
C903 C 0.52417 0.96253 0.88408 0.0
C904 C 0.52595 1.01338 0.88566 0.0
C905 C 0.49526 0.9645 0.88341 0.0
C906 C 0.48194 0.99018 0.88402 0.0
C907 C 0.48383 0.04085 0.88486 0.0
C908 C 0.49912 0.06577 0.88486 0.0
C909 C 0.49706 0.01484 0.88492 0.0
C910 C 0.52802 0.0636 0.88541 0.0
C911 C 0.54117 0.03792 0.88605 0.0
H912 H 0.98364 0.55633 0.9014 0.0
H913 H 0.94829 0.49455 0.85508 0.0
H914 H 0.99304 0.47185 0.85179 0.0
H915 H 0.04258 0.47062 0.86053 0.0
H916 H 0.07699 0.53018 0.91005 0.0
H917 H 0.03273 0.55291 0.9127 0.0
C918 C 0.98567 0.53782 0.89064 0.0
C919 C 0.96238 0.52729 0.87846 0.0
C920 C 1.01157 0.52462 0.889 0.0
C921 C 0.96557 0.50307 0.86485 0.0
C922 C 0.99132 0.49017 0.86281 0.0
C923 C 0.04069 0.48821 0.87237 0.0
C924 C 0.0641 0.49839 0.88484 0.0
C925 C 0.01456 0.50085 0.87467 0.0
C926 C 0.06026 0.52183 0.89953 0.0
C927 C 0.03459 0.53485 0.90136 0.0
H928 H 0.56446 0.04174 0.38816 0.0
H929 H 0.48615 0.08324 0.38282 0.0
H930 H 0.46278 0.03896 0.38356 0.0
H931 H 0.46419 0.98821 0.38463 0.0
H932 H 0.54301 0.94713 0.38478 0.0
H933 H 0.566 0.99135 0.38702 0.0
C934 C 0.5423 0.04149 0.38668 0.0
C935 C 0.52749 0.06663 0.3853 0.0
C936 C 0.52879 0.01567 0.38622 0.0
C937 C 0.49856 0.06487 0.38429 0.0
C938 C 0.48502 0.03929 0.38447 0.0
C939 C 0.48642 0.98859 0.38475 0.0
C940 C 0.50144 0.96349 0.3846 0.0
C941 C 0.49989 1.01449 0.38522 0.0
C942 C 0.53036 0.9654 0.38542 0.0
C943 C 0.54375 0.99096 0.38646 0.0
H944 H 0.98849 0.4637 0.63237 0.0
H945 H 0.94635 0.54162 0.63909 0.0
H946 H 0.99015 0.56555 0.637 0.0
H947 H 0.04062 0.56481 0.63418 0.0
H948 H 0.0828 0.48652 0.63296 0.0
H949 H 0.0389 0.46284 0.63203 0.0
C950 C 0.98854 0.48589 0.63387 0.0
C951 C 0.96333 0.50043 0.63595 0.0
C952 C 0.01413 0.49976 0.63356 0.0
C953 C 0.96476 0.52941 0.63702 0.0
C954 C 0.99007 0.54328 0.63607 0.0
C955 C 0.04058 0.54256 0.63413 0.0
C956 C 0.06583 0.52789 0.63357 0.0
C957 C 0.01495 0.5287 0.63451 0.0
C958 C 0.06435 0.4989 0.63284 0.0
C959 C 0.03899 0.48512 0.63257 0.0
H960 H 0.46539 0.04247 0.13075 0.0
H961 H 0.54373 0.08376 0.1367 0.0
H962 H 0.56707 0.03943 0.13523 0.0
H963 H 0.56559 0.98866 0.13348 0.0
H964 H 0.48668 0.94778 0.13257 0.0
H965 H 0.46378 0.99207 0.13097 0.0
C966 C 0.48756 0.04214 0.13221 0.0
C967 C 0.5024 0.06722 0.13404 0.0
C968 C 0.50104 0.0163 0.1322 0.0
C969 C 0.53132 0.06541 0.13495 0.0
C970 C 0.54484 0.03982 0.13434 0.0
C971 C 0.54336 0.9891 0.1333 0.0
C972 C 0.52829 0.96404 0.13306 0.0
C973 C 0.52993 0.01504 0.13321 0.0
C974 C 0.49937 0.96603 0.13221 0.0
C975 C 0.48603 0.99163 0.13155 0.0
H976 H 0.14041 0.53313 0.2929 0.0
H977 H 0.22648 0.55373 0.29352 0.0
H978 H 0.23385 0.52603 0.25731 0.0
H979 H 0.2166 0.49377 0.22662 0.0
H980 H 0.12968 0.47872 0.22111 0.0
H981 H 0.12204 0.50482 0.25849 0.0
C982 C 0.16064 0.53194 0.2848 0.0
C983 C 0.18296 0.54534 0.29621 0.0
C984 C 0.16468 0.5163 0.26336 0.0
C985 C 0.209 0.5436 0.2853 0.0
C986 C 0.21327 0.52753 0.26465 0.0
C987 C 0.19581 0.49687 0.23306 0.0
C988 C 0.17367 0.48482 0.22037 0.0
C989 C 0.19138 0.51347 0.25368 0.0
C990 C 0.14715 0.48787 0.23017 0.0
C991 C 0.14274 0.50305 0.25151 0.0
H992 H 0.53388 0.21736 0.72819 0.0
H993 H 0.5478 0.13012 0.72304 0.0
H994 H 0.52188 0.12303 0.76059 0.0
H995 H 0.49404 0.14197 0.79502 0.0
H996 H 0.47485 0.22846 0.79555 0.0
H997 H 0.50236 0.23527 0.75916 0.0
C998 C 0.53065 0.19664 0.7348 0.0
C999 C 0.54232 0.17423 0.72215 0.0
C1000 C 0.51422 0.19256 0.75558 0.0
C1001 C 0.53898 0.14778 0.73208 0.0
C1002 C 0.5239 0.1437 0.75352 0.0
C1003 C 0.49552 0.16218 0.78689 0.0
C1004 C 0.48256 0.18478 0.79831 0.0
C1005 C 0.51108 0.16591 0.76537 0.0
C1006 C 0.48466 0.21078 0.78734 0.0
C1007 C 0.50061 0.21473 0.76658 0.0
H1008 H 0.80848 0.53436 0.22597 0.0
H1009 H 0.89518 0.55041 0.21995 0.0
H1010 H 0.90335 0.52479 0.25751 0.0
H1011 H 0.88551 0.49665 0.29223 0.0
H1012 H 0.79977 0.47475 0.29322 0.0
H1013 H 0.79185 0.502 0.25683 0.0
C1014 C 0.82935 0.53154 0.23231 0.0
C1015 C 0.85127 0.54374 0.21943 0.0
C1016 C 0.83411 0.51516 0.25301 0.0
C1017 C 0.87788 0.54113 0.22915 0.0
C1018 C 0.88259 0.52621 0.25059 0.0
C1019 C 0.86524 0.49744 0.28417 0.0
C1020 C 0.84315 0.48384 0.29574 0.0
C1021 C 0.86089 0.51279 0.26262 0.0
C1022 C 0.81706 0.48505 0.28487 0.0
C1023 C 0.81247 0.50087 0.26412 0.0
H1024 H 0.56936 0.85422 0.77039 0.0
H1025 H 0.50469 0.86146 0.82324 0.0
H1026 H 0.47051 0.86055 0.79112 0.0
H1027 H 0.45909 0.85255 0.74807 0.0
H1028 H 0.52339 0.86178 0.69513 0.0
H1029 H 0.55766 0.86173 0.72724 0.0
C1030 C 0.54814 0.85758 0.77521 0.0
C1031 C 0.54019 0.85798 0.79981 0.0
C1032 C 0.52828 0.85939 0.75642 0.0
C1033 C 0.51183 0.86064 0.80474 0.0
C1034 C 0.49207 0.86015 0.78629 0.0
C1035 C 0.48017 0.8566 0.74321 0.0
C1036 C 0.48804 0.85735 0.7186 0.0
C1037 C 0.49998 0.85898 0.76197 0.0
C1038 C 0.51632 0.8607 0.71364 0.0
C1039 C 0.53612 0.86073 0.73209 0.0
H1040 H 0.86174 0.51034 0.80768 0.0
H1041 H 0.85282 0.58619 0.76819 0.0
H1042 H 0.85794 0.56144 0.73031 0.0
H1043 H 0.86134 0.51746 0.70771 0.0
H1044 H 0.84929 0.44219 0.74739 0.0
H1045 H 0.8559 0.46669 0.78517 0.0
C1046 C 0.86103 0.52161 0.79082 0.0
C1047 C 0.85892 0.55073 0.79139 0.0
C1048 C 0.86017 0.50682 0.76877 0.0
C1049 C 0.85701 0.56439 0.769 0.0
C1050 C 0.85904 0.54999 0.74705 0.0
C1051 C 0.86028 0.50626 0.72459 0.0
C1052 C 0.85706 0.47724 0.72409 0.0
C1053 C 0.86036 0.52111 0.74665 0.0
C1054 C 0.85456 0.46375 0.74651 0.0
C1055 C 0.85743 0.47805 0.76841 0.0
H1056 H 0.49276 0.81105 0.29126 0.0
H1057 H 0.47827 0.89806 0.29789 0.0
H1058 H 0.50418 0.90616 0.2605 0.0
H1059 H 0.53214 0.88818 0.22576 0.0
H1060 H 0.55185 0.80183 0.22373 0.0
H1061 H 0.52444 0.79404 0.26002 0.0
C1062 C 0.49593 0.83194 0.28506 0.0
C1063 C 0.48411 0.85398 0.29807 0.0
C1064 C 0.51233 0.83659 0.26436 0.0
C1065 C 0.48725 0.88066 0.28858 0.0
C1066 C 0.50232 0.88532 0.26723 0.0
C1067 C 0.5308 0.86778 0.23355 0.0
C1068 C 0.54389 0.84553 0.22174 0.0
C1069 C 0.51529 0.86347 0.25501 0.0
C1070 C 0.54195 0.81926 0.23226 0.0
C1071 C 0.52606 0.81476 0.25297 0.0
H1072 H 0.21548 0.49336 0.79081 0.0
H1073 H 0.12841 0.47923 0.79638 0.0
H1074 H 0.12098 0.50534 0.75896 0.0
H1075 H 0.13959 0.53331 0.7245 0.0
H1076 H 0.22595 0.5526 0.7235 0.0
H1077 H 0.23309 0.52499 0.7598 0.0
C1078 C 0.19473 0.49657 0.7843 0.0
C1079 C 0.17247 0.4848 0.79701 0.0
C1080 C 0.19047 0.51306 0.7636 0.0
C1081 C 0.14596 0.48815 0.78727 0.0
C1082 C 0.14169 0.50332 0.76591 0.0
C1083 C 0.15985 0.5318 0.73251 0.0
C1084 C 0.18231 0.5448 0.72099 0.0
C1085 C 0.16377 0.51619 0.75397 0.0
C1086 C 0.20839 0.54272 0.7318 0.0
C1087 C 0.21251 0.52673 0.75251 0.0
H1088 H 0.56922 0.17394 0.27149 0.0
H1089 H 0.50499 0.16468 0.32449 0.0
H1090 H 0.47064 0.1649 0.29245 0.0
H1091 H 0.45886 0.17296 0.24942 0.0
H1092 H 0.52329 0.16588 0.19634 0.0
H1093 H 0.55761 0.16629 0.22838 0.0
C1094 C 0.5481 0.16998 0.27634 0.0
C1095 C 0.54026 0.1692 0.30095 0.0
C1096 C 0.52824 0.16775 0.25761 0.0
C1097 C 0.51201 0.16577 0.30597 0.0
C1098 C 0.49217 0.16587 0.28757 0.0
C1099 C 0.48005 0.16951 0.24452 0.0
C1100 C 0.48792 0.16932 0.21991 0.0
C1101 C 0.49995 0.16741 0.26323 0.0
C1102 C 0.51624 0.16654 0.21486 0.0
C1103 C 0.53607 0.16675 0.23327 0.0
H1104 H 0.12814 0.44311 0.97076 0.0
H1105 H 0.18714 0.37795 0.96205 0.0
H1106 H 0.18795 0.37056 1.00578 0.0
H1107 H 0.17667 0.38712 0.047 0.0
H1108 H 0.11882 0.45331 0.0556 0.0
H1109 H 0.11233 0.45558 0.01183 0.0
C1110 C 0.14045 0.42671 0.97844 0.0
C1111 C 0.15723 0.4108 0.9631 0.0
C1112 C 0.14117 0.42295 1.00375 0.0
C1113 C 0.17364 0.39007 0.97337 0.0
C1114 C 0.1743 0.38606 0.99844 0.0
C1115 C 0.16184 0.40125 0.03928 0.0
C1116 C 0.14779 0.41968 0.05459 0.0
C1117 C 0.15876 0.40288 0.01391 0.0
C1118 C 0.12937 0.43855 0.04427 0.0
C1119 C 0.12593 0.44006 0.01919 0.0
H1120 H 0.58353 0.13156 0.4725 0.0
H1121 H 0.65142 0.18706 0.46251 0.0
H1122 H 0.65883 0.18882 0.50623 0.0
H1123 H 0.642 0.17928 0.54777 0.0
H1124 H 0.57335 0.12466 0.55757 0.0
H1125 H 0.57045 0.11744 0.51392 0.0
C1126 C 0.60047 0.14332 0.47991 0.0
C1127 C 0.61719 0.15881 0.46418 0.0
C1128 C 0.60432 0.14455 0.50522 0.0
C1129 C 0.63864 0.17452 0.47412 0.0
C1130 C 0.64269 0.17573 0.49919 0.0
C1131 C 0.62713 0.16498 0.54035 0.0
C1132 C 0.60825 0.15205 0.556 0.0
C1133 C 0.62521 0.16142 0.51501 0.0
C1134 C 0.58847 0.13434 0.54601 0.0
C1135 C 0.58662 0.13048 0.52098 0.0
H1136 H 0.84805 0.63897 0.04503 0.0
H1137 H 0.90524 0.57238 0.05458 0.0
H1138 H 0.91211 0.5696 0.01086 0.0
H1139 H 0.89735 0.58231 0.96947 0.0
H1140 H 0.83933 0.6482 0.95988 0.0
H1141 H 0.83736 0.65527 1.00362 0.0
C1142 C 0.86279 0.6246 0.03753 0.0
C1143 C 0.8766 0.60628 0.0531 0.0
C1144 C 0.8661 0.62269 0.0122 0.0
C1145 C 0.8949 0.5871 0.04305 0.0
C1146 C 0.89854 0.58528 0.018 0.0
C1147 C 0.88486 0.59866 0.977 0.0
C1148 C 0.86877 0.61495 0.9614 0.0
C1149 C 0.88364 0.60241 1.00231 0.0
C1150 C 0.85224 0.63571 0.97144 0.0
C1151 C 0.85097 0.63962 0.9965 0.0
H1152 H 0.44623 0.90187 0.54694 0.0
H1153 H 0.37928 0.84531 0.55735 0.0
H1154 H 0.37139 0.8436 0.51372 0.0
H1155 H 0.38775 0.85333 0.47215 0.0
H1156 H 0.4556 0.90878 0.46182 0.0
H1157 H 0.4587 0.91623 0.50544 0.0
C1158 C 0.42938 0.8899 0.53964 0.0
C1159 C 0.41309 0.87405 0.55542 0.0
C1160 C 0.42528 0.88866 0.51438 0.0
C1161 C 0.39174 0.85808 0.54566 0.0
C1162 C 0.38741 0.85691 0.52065 0.0
C1163 C 0.40245 0.86786 0.47945 0.0
C1164 C 0.42108 0.88094 0.4637 0.0
C1165 C 0.40453 0.87149 0.50474 0.0
C1166 C 0.44068 0.89898 0.4735 0.0
C1167 C 0.44266 0.90297 0.49849 0.0
H1168 H 0.17888 0.64395 0.47105 0.0
H1169 H 0.12252 0.57679 0.46081 0.0
H1170 H 0.11478 0.57412 0.50439 0.0
H1171 H 0.12921 0.5865 0.54586 0.0
H1172 H 0.18672 0.65263 0.55631 0.0
H1173 H 0.18857 0.66046 0.51267 0.0
C1174 C 0.16409 0.6295 0.47835 0.0
C1175 C 0.15084 0.61093 0.46261 0.0
C1176 C 0.16026 0.62767 0.50366 0.0
C1177 C 0.13247 0.59167 0.47244 0.0
C1178 C 0.1283 0.58994 0.49743 0.0
C1179 C 0.14137 0.60323 0.53858 0.0
C1180 C 0.15746 0.61926 0.55441 0.0
C1181 C 0.14275 0.60722 0.5133 0.0
C1182 C 0.17371 0.64041 0.54463 0.0
C1183 C 0.175 0.64467 0.5196 0.0
H1184 H 0.4451 0.12934 0.97428 0.0
H1185 H 0.37738 0.18488 0.96343 0.0
H1186 H 0.36942 0.1868 1.00703 0.0
H1187 H 0.38592 0.17775 0.04873 0.0
H1188 H 0.45514 0.12407 0.05943 0.0
H1189 H 0.45823 0.1161 0.01588 0.0
C1190 C 0.42803 0.14109 0.98148 0.0
C1191 C 0.41156 0.15658 0.96552 0.0
C1192 C 0.4241 0.14271 1.00674 0.0
C1193 C 0.38997 0.17232 0.97519 0.0
C1194 C 0.38564 0.17368 1.0002 0.0
C1195 C 0.40101 0.16356 0.04151 0.0
C1196 C 0.41996 0.15105 0.05736 0.0
C1197 C 0.40308 0.15964 0.01624 0.0
C1198 C 0.44002 0.13345 0.04769 0.0
C1199 C 0.44193 0.12912 0.02273 0.0
H1200 H 0.85121 0.39055 0.47089 0.0
H1201 H 0.90878 0.45679 0.46136 0.0
H1202 H 0.9157 0.4595 0.50507 0.0
H1203 H 0.9007 0.44701 0.54645 0.0
H1204 H 0.84219 0.38156 0.55598 0.0
H1205 H 0.8404 0.37433 0.51226 0.0
C1206 C 0.86606 0.4048 0.4784 0.0
C1207 C 0.87994 0.42306 0.46284 0.0
C1208 C 0.86937 0.40669 0.50372 0.0
C1209 C 0.89838 0.44212 0.47289 0.0
C1210 C 0.90205 0.44389 0.49794 0.0
C1211 C 0.88816 0.4307 0.53891 0.0
C1212 C 0.87185 0.4146 0.55447 0.0
C1213 C 0.88702 0.42688 0.51361 0.0
C1214 C 0.85525 0.3939 0.54443 0.0
C1215 C 0.85409 0.38991 0.51939 0.0
H1216 H 0.58222 0.89923 0.04703 0.0
H1217 H 0.65111 0.84468 0.05588 0.0
H1218 H 0.65822 0.84388 0.01213 0.0
H1219 H 0.64071 0.8536 0.97085 0.0
H1220 H 0.57058 0.90659 0.96217 0.0
H1221 H 0.5682 0.91339 1.0059 0.0
C1222 C 0.59936 0.88796 0.03937 0.0
C1223 C 0.61642 0.87243 0.05481 0.0
C1224 C 0.60286 0.88705 0.01403 0.0
C1225 C 0.63809 0.8573 0.04454 0.0
C1226 C 0.64193 0.85658 0.01944 0.0
C1227 C 0.62557 0.86741 0.97854 0.0
C1228 C 0.60614 0.88002 0.9632 0.0
C1229 C 0.62395 0.8707 1.00391 0.0
C1230 C 0.58606 0.89713 0.9735 0.0
C1231 C 0.58454 0.90079 0.99857 0.0
H1232 H 0.27801 0.34337 0.17512 0.0
H1233 H 0.29488 0.37011 0.10241 0.0
H1234 H 0.33108 0.33587 0.09887 0.0
H1235 H 0.35813 0.29739 0.1157 0.0
H1236 H 0.34211 0.2704 0.18846 0.0
H1237 H 0.30649 0.30548 0.19258 0.0
C1238 C 0.28974 0.34198 0.15856 0.0
C1239 C 0.28291 0.35952 0.13895 0.0
C1240 C 0.31108 0.32192 0.15654 0.0
C1241 C 0.29873 0.35685 0.11772 0.0
C1242 C 0.31977 0.33719 0.11567 0.0
C1243 C 0.34685 0.29894 0.13249 0.0
C1244 C 0.35332 0.28077 0.1517 0.0
C1245 C 0.32603 0.31935 0.13481 0.0
C1246 C 0.33832 0.28396 0.17333 0.0
C1247 C 0.31761 0.30408 0.1757 0.0
H1248 H 0.74936 0.33909 0.67612 0.0
H1249 H 0.73394 0.36874 0.60398 0.0
H1250 H 0.69614 0.33647 0.59967 0.0
H1251 H 0.66727 0.29889 0.6156 0.0
H1252 H 0.68139 0.26943 0.68791 0.0
H1253 H 0.71879 0.30249 0.69284 0.0
C1254 C 0.73762 0.33877 0.65951 0.0
C1255 C 0.74537 0.35643 0.64027 0.0
C1256 C 0.71525 0.31998 0.65707 0.0
C1257 C 0.72946 0.35522 0.61899 0.0
C1258 C 0.70747 0.33674 0.61649 0.0
C1259 C 0.6785 0.29952 0.63247 0.0
C1260 C 0.67105 0.28126 0.6513 0.0
C1261 C 0.70028 0.31876 0.63526 0.0
C1262 C 0.68599 0.28315 0.67308 0.0
C1263 C 0.7077 0.30208 0.67589 0.0
H1264 H 0.74453 0.68317 0.1732 0.0
H1265 H 0.72989 0.65729 0.09984 0.0
H1266 H 0.69352 0.69123 0.09591 0.0
H1267 H 0.66565 0.72922 0.11253 0.0
H1268 H 0.679 0.75506 0.186 0.0
H1269 H 0.71497 0.72035 0.19052 0.0
C1270 C 0.73327 0.68467 0.1564 0.0
C1271 C 0.74085 0.6675 0.13674 0.0
C1272 C 0.71171 0.70449 0.15416 0.0
C1273 C 0.72555 0.67031 0.11521 0.0
C1274 C 0.70437 0.68978 0.11292 0.0
C1275 C 0.6764 0.72747 0.12957 0.0
C1276 C 0.66912 0.74524 0.14885 0.0
C1277 C 0.69737 0.70725 0.13213 0.0
C1278 C 0.68345 0.74182 0.1708 0.0
C1279 C 0.70436 0.72191 0.1734 0.0
H1280 H 0.29863 0.66855 0.61415 0.0
H1281 H 0.27064 0.68141 0.68707 0.0
H1282 H 0.30445 0.71811 0.69229 0.0
H1283 H 0.3413 0.74847 0.67566 0.0
H1284 H 0.36933 0.73435 0.60286 0.0
H1285 H 0.3364 0.69714 0.59828 0.0
C1286 C 0.29973 0.67935 0.63122 0.0
C1287 C 0.28166 0.67178 0.65013 0.0
C1288 C 0.3194 0.70072 0.63417 0.0
C1289 C 0.28419 0.68614 0.67215 0.0
C1290 C 0.30355 0.70744 0.67515 0.0
C1291 C 0.34048 0.73713 0.65886 0.0
C1292 C 0.35789 0.74506 0.63952 0.0
C1293 C 0.32126 0.71514 0.65625 0.0
C1294 C 0.35604 0.72968 0.61796 0.0
C1295 C 0.33717 0.70806 0.61531 0.0
H1296 H 0.34445 0.74696 0.34428 0.0
H1297 H 0.37049 0.73304 0.41769 0.0
H1298 H 0.33692 0.69635 0.42184 0.0
H1299 H 0.29919 0.668 0.40539 0.0
H1300 H 0.27315 0.68074 0.33189 0.0
H1301 H 0.3075 0.71698 0.32716 0.0
C1302 C 0.34306 0.73578 0.36114 0.0
C1303 C 0.36016 0.74365 0.38075 0.0
C1304 C 0.32344 0.71406 0.36352 0.0
C1305 C 0.35751 0.72846 0.40235 0.0
C1306 C 0.33826 0.70711 0.40477 0.0
C1307 C 0.30082 0.67868 0.38829 0.0
C1308 C 0.28311 0.67113 0.36907 0.0
C1309 C 0.32083 0.69983 0.38562 0.0
C1310 C 0.28636 0.68538 0.34705 0.0
C1311 C 0.30606 0.70645 0.34434 0.0
H1312 H 0.34456 0.28251 0.84458 0.0
H1313 H 0.37134 0.29854 0.91744 0.0
H1314 H 0.33765 0.33522 0.92111 0.0
H1315 H 0.29954 0.36278 0.90443 0.0
H1316 H 0.27247 0.34768 0.83155 0.0
H1317 H 0.30717 0.31169 0.82719 0.0
C1318 C 0.3433 0.29417 0.8612 0.0
C1319 C 0.36064 0.28697 0.88081 0.0
C1320 C 0.32357 0.31579 0.8633 0.0
C1321 C 0.35819 0.30269 0.90213 0.0
C1322 C 0.33886 0.324 0.90426 0.0
C1323 C 0.30101 0.35164 0.88755 0.0
C1324 C 0.28292 0.35841 0.86839 0.0
C1325 C 0.32116 0.33062 0.88511 0.0
C1326 C 0.28599 0.34361 0.84664 0.0
C1327 C 0.30587 0.3227 0.84414 0.0
H1328 H 0.66966 0.29856 0.40408 0.0
H1329 H 0.68491 0.27149 0.33122 0.0
H1330 H 0.72026 0.30676 0.32668 0.0
H1331 H 0.74874 0.34484 0.34381 0.0
H1332 H 0.7327 0.3716 0.41667 0.0
H1333 H 0.69673 0.33718 0.4206 0.0
C1334 C 0.68071 0.30013 0.38718 0.0
C1335 C 0.6741 0.28188 0.36806 0.0
C1336 C 0.70139 0.32064 0.38463 0.0
C1337 C 0.68881 0.2851 0.34628 0.0
C1338 C 0.70937 0.30534 0.34368 0.0
C1339 C 0.73725 0.34341 0.36049 0.0
C1340 C 0.74423 0.36102 0.38001 0.0
C1341 C 0.71605 0.32325 0.36275 0.0
C1342 C 0.72872 0.35829 0.40141 0.0
C1343 C 0.70781 0.33854 0.4037 0.0
H1344 H 0.73237 0.67093 0.89998 0.0
H1345 H 0.76205 0.68973 0.82855 0.0
H1346 H 0.72737 0.72571 0.82455 0.0
H1347 H 0.68917 0.75372 0.84182 0.0
H1348 H 0.66002 0.73449 0.91335 0.0
H1349 H 0.69375 0.69775 0.91669 0.0
C1350 C 0.7315 0.6829 0.88352 0.0
C1351 C 0.75028 0.6771 0.86463 0.0
C1352 C 0.71141 0.70399 0.88132 0.0
C1353 C 0.74798 0.69298 0.84339 0.0
C1354 C 0.72811 0.71391 0.84111 0.0
C1355 C 0.68994 0.74136 0.85807 0.0
C1356 C 0.67189 0.74758 0.87742 0.0
C1357 C 0.70971 0.7198 0.85998 0.0
C1358 C 0.67372 0.73102 0.89828 0.0
C1359 C 0.69306 0.7097 0.9002 0.0
loop_
_geom_bond_atom_site_label_1
_geom_bond_atom_site_label_2
_geom_bond_distance
_geom_bond_site_symmetry_2
_ccdc_geom_bond_type
C0 C1 1.443 . S
C0 N4 1.376 . S
C0 C38 1.389 . S
C1 C0 1.443 . S
C1 C2 1.340 . S
C1 H41 0.951 . S
C2 C1 1.340 . S
C2 C3 1.439 . S
C2 H42 0.950 . S
C3 C2 1.439 . S
C3 N4 1.374 . S
C3 C37 1.395 . S
N4 C0 1.376 . S
N4 C3 1.374 . S
N4 Co5 2.008 . S
Co5 N4 2.008 . S
Co5 N6 1.995 . S
Co5 N11 2.008 . S
Co5 N16 1.995 . S
Co5 N21 2.282 . S
Co5 N27 2.282 . S
N6 Co5 1.995 . S
N6 C7 1.376 . S
N6 C10 1.383 . S
C7 N6 1.376 . S
C7 C8 1.446 . S
C7 C37 1.391 . S
C8 C7 1.446 . S
C8 C9 1.339 . S
C8 H43 0.949 . S
C9 C8 1.339 . S
C9 C10 1.439 . S
C9 H44 0.950 . S
C10 N6 1.383 . S
C10 C9 1.439 . S
C10 C39 1.392 . S
N11 Co5 2.008 . S
N11 C12 1.376 . S
N11 C15 1.374 . S
C12 N11 1.376 . S
C12 C13 1.443 . S
C12 C39 1.389 . S
C13 C12 1.443 . S
C13 C14 1.340 . S
C13 H45 0.951 . S
C14 C13 1.340 . S
C14 C15 1.439 . S
C14 H46 0.950 . S
C15 N11 1.374 . S
C15 C14 1.439 . S
C15 C40 1.395 . S
N16 Co5 1.995 . S
N16 C17 1.376 . S
N16 C20 1.383 . S
C17 N16 1.376 . S
C17 C18 1.446 . S
C17 C40 1.391 . S
C18 C17 1.446 . S
C18 C19 1.339 . S
C18 H47 0.949 . S
C19 C18 1.339 . S
C19 C20 1.439 . S
C19 H48 0.950 . S
C20 N16 1.383 . S
C20 C19 1.439 . S
C20 C38 1.392 . S
N21 Co5 2.282 . S
N21 C24 1.332 . S
N21 C26 1.332 . S
C22 C23 1.386 . S
C22 C25 1.388 . S
C23 C22 1.386 . S
C23 C24 1.382 . S
C23 H49 0.950 . S
C24 N21 1.332 . S
C24 C23 1.382 . S
C24 H35 0.952 . S
C25 C22 1.388 . S
C25 C26 1.382 . S
C25 H50 0.950 . S
C26 N21 1.332 . S
C26 C25 1.382 . S
C26 H36 0.948 . S
N27 Co5 2.282 . S
N27 C31 1.332 . S
N27 C32 1.332 . S
C28 C29 1.388 . S
C28 C32 1.382 . S
C28 H51 0.950 . S
C29 C28 1.388 . S
C29 C30 1.386 . S
C30 C29 1.386 . S
C30 C31 1.382 . S
C30 H52 0.950 . S
C31 N27 1.332 . S
C31 C30 1.382 . S
C31 H33 0.952 . S
C32 N27 1.332 . S
C32 C28 1.382 . S
C32 H34 0.948 . S
H33 C31 0.952 . S
H34 C32 0.948 . S
H35 C24 0.952 . S
H36 C26 0.948 . S
C37 C3 1.395 . S
C37 C7 1.391 . S
C38 C0 1.389 . S
C38 C20 1.392 . S
C39 C10 1.392 . S
C39 C12 1.389 . S
C40 C15 1.395 . S
C40 C17 1.391 . S
H41 C1 0.951 . S
H42 C2 0.950 . S
H43 C8 0.949 . S
H44 C9 0.950 . S
H45 C13 0.951 . S
H46 C14 0.950 . S
H47 C18 0.949 . S
H48 C19 0.950 . S
H49 C23 0.950 . S
H50 C25 0.950 . S
H51 C28 0.950 . S
H52 C30 0.950 . S
C53 C54 1.443 . S
C53 N57 1.376 . S
C53 C91 1.389 . S
C54 C53 1.443 . S
C54 C55 1.340 . S
C54 H94 0.951 . S
C55 C54 1.340 . S
C55 C56 1.439 . S
C55 H95 0.950 . S
C56 C55 1.439 . S
C56 N57 1.374 . S
C56 C90 1.395 . S
N57 C53 1.376 . S
N57 C56 1.374 . S
N57 Co58 2.008 . S
Co58 N57 2.008 . S
Co58 N59 1.995 . S
Co58 N64 2.008 . S
Co58 N69 1.995 . S
Co58 N74 2.282 . S
Co58 N80 2.282 . S
N59 Co58 1.995 . S
N59 C60 1.376 . S
N59 C63 1.383 . S
C60 N59 1.376 . S
C60 C61 1.446 . S
C60 C90 1.391 . S
C61 C60 1.446 . S
C61 C62 1.339 . S
C61 H96 0.949 . S
C62 C61 1.339 . S
C62 C63 1.439 . S
C62 H97 0.950 . S
C63 N59 1.383 . S
C63 C62 1.439 . S
C63 C92 1.392 . S
N64 Co58 2.008 . S
N64 C65 1.376 . S
N64 C68 1.374 . S
C65 N64 1.376 . S
C65 C66 1.443 . S
C65 C92 1.389 . S
C66 C65 1.443 . S
C66 C67 1.340 . S
C66 H98 0.951 . S
C67 C66 1.340 . S
C67 C68 1.439 . S
C67 H99 0.950 . S
C68 N64 1.374 . S
C68 C67 1.439 . S
C68 C93 1.395 . S
N69 Co58 1.995 . S
N69 C70 1.376 . S
N69 C73 1.383 . S
C70 N69 1.376 . S
C70 C71 1.446 . S
C70 C93 1.391 . S
C71 C70 1.446 . S
C71 C72 1.339 . S
C71 H100 0.949 . S
C72 C71 1.339 . S
C72 C73 1.439 . S
C72 H101 0.950 . S
C73 N69 1.383 . S
C73 C72 1.439 . S
C73 C91 1.392 . S
N74 Co58 2.282 . S
N74 C77 1.332 . S
N74 C79 1.332 . S
C75 C76 1.386 . S
C75 C78 1.388 . S
C76 C75 1.386 . S
C76 C77 1.382 . S
C76 H102 0.950 . S
C77 N74 1.332 . S
C77 C76 1.382 . S
C77 H88 0.952 . S
C78 C75 1.388 . S
C78 C79 1.382 . S
C78 H103 0.950 . S
C79 N74 1.332 . S
C79 C78 1.382 . S
C79 H89 0.948 . S
N80 Co58 2.282 . S
N80 C84 1.332 . S
N80 C85 1.332 . S
C81 C82 1.388 . S
C81 C85 1.382 . S
C81 H104 0.950 . S
C82 C81 1.388 . S
C82 C83 1.386 . S
C83 C82 1.386 . S
C83 C84 1.382 . S
C83 H105 0.950 . S
C84 N80 1.332 . S
C84 C83 1.382 . S
C84 H86 0.952 . S
C85 N80 1.332 . S
C85 C81 1.382 . S
C85 H87 0.948 . S
H86 C84 0.952 . S
H87 C85 0.948 . S
H88 C77 0.952 . S
H89 C79 0.948 . S
C90 C56 1.395 . S
C90 C60 1.391 . S
C91 C53 1.389 . S
C91 C73 1.392 . S
C92 C63 1.392 . S
C92 C65 1.389 . S
C93 C68 1.395 . S
C93 C70 1.391 . S
H94 C54 0.951 . S
H95 C55 0.950 . S
H96 C61 0.949 . S
H97 C62 0.950 . S
H98 C66 0.951 . S
H99 C67 0.950 . S
H100 C71 0.949 . S
H101 C72 0.950 . S
H102 C76 0.950 . S
H103 C78 0.950 . S
H104 C81 0.950 . S
H105 C83 0.950 . S
C106 C107 1.443 . S
C106 N110 1.376 . S
C106 C144 1.389 . S
C107 C106 1.443 . S
C107 C108 1.340 . S
C107 H147 0.951 . S
C108 C107 1.340 . S
C108 C109 1.439 . S
C108 H148 0.950 . S
C109 C108 1.439 . S
C109 N110 1.374 . S
C109 C143 1.395 . S
N110 C106 1.376 . S
N110 C109 1.374 . S
N110 Co111 2.008 . S
Co111 N110 2.008 . S
Co111 N112 1.995 . S
Co111 N117 2.008 . S
Co111 N122 1.995 . S
Co111 N127 2.282 . S
Co111 N133 2.282 . S
N112 Co111 1.995 . S
N112 C113 1.376 . S
N112 C116 1.383 . S
C113 N112 1.376 . S
C113 C114 1.446 . S
C113 C143 1.391 . S
C114 C113 1.446 . S
C114 C115 1.339 . S
C114 H149 0.949 . S
C115 C114 1.339 . S
C115 C116 1.439 . S
C115 H150 0.950 . S
C116 N112 1.383 . S
C116 C115 1.439 . S
C116 C145 1.392 . S
N117 Co111 2.008 . S
N117 C118 1.376 . S
N117 C121 1.374 . S
C118 N117 1.376 . S
C118 C119 1.443 . S
C118 C145 1.389 . S
C119 C118 1.443 . S
C119 C120 1.340 . S
C119 H151 0.951 . S
C120 C119 1.340 . S
C120 C121 1.439 . S
C120 H152 0.950 . S
C121 N117 1.374 . S
C121 C120 1.439 . S
C121 C146 1.395 . S
N122 Co111 1.995 . S
N122 C123 1.376 . S
N122 C126 1.383 . S
C123 N122 1.376 . S
C123 C124 1.446 . S
C123 C146 1.391 . S
C124 C123 1.446 . S
C124 C125 1.339 . S
C124 H153 0.949 . S
C125 C124 1.339 . S
C125 C126 1.439 . S
C125 H154 0.950 . S
C126 N122 1.383 . S
C126 C125 1.439 . S
C126 C144 1.392 . S
N127 Co111 2.282 . S
N127 C130 1.332 . S
N127 C132 1.332 . S
C128 C129 1.386 . S
C128 C131 1.388 . S
C129 C128 1.386 . S
C129 C130 1.382 . S
C129 H155 0.950 . S
C130 N127 1.332 . S
C130 C129 1.382 . S
C130 H141 0.952 . S
C131 C128 1.388 . S
C131 C132 1.382 . S
C131 H156 0.950 . S
C132 N127 1.332 . S
C132 C131 1.382 . S
C132 H142 0.948 . S
N133 Co111 2.282 . S
N133 C137 1.332 . S
N133 C138 1.332 . S
C134 C135 1.388 . S
C134 C138 1.382 . S
C134 H157 0.950 . S
C135 C134 1.388 . S
C135 C136 1.386 . S
C136 C135 1.386 . S
C136 C137 1.382 . S
C136 H158 0.950 . S
C137 N133 1.332 . S
C137 C136 1.382 . S
C137 H139 0.952 . S
C138 N133 1.332 . S
C138 C134 1.382 . S
C138 H140 0.948 . S
H139 C137 0.952 . S
H140 C138 0.948 . S
H141 C130 0.952 . S
H142 C132 0.948 . S
C143 C109 1.395 . S
C143 C113 1.391 . S
C144 C106 1.389 . S
C144 C126 1.392 . S
C145 C116 1.392 . S
C145 C118 1.389 . S
C146 C121 1.395 . S
C146 C123 1.391 . S
H147 C107 0.951 . S
H148 C108 0.950 . S
H149 C114 0.949 . S
H150 C115 0.950 . S
H151 C119 0.951 . S
H152 C120 0.950 . S
H153 C124 0.949 . S
H154 C125 0.950 . S
H155 C129 0.950 . S
H156 C131 0.950 . S
H157 C134 0.950 . S
H158 C136 0.950 . S
C159 C160 1.443 . S
C159 N163 1.376 . S
C159 C197 1.389 . S
C160 C159 1.443 . S
C160 C161 1.340 . S
C160 H200 0.951 . S
C161 C160 1.340 . S
C161 C162 1.439 . S
C161 H201 0.950 . S
C162 C161 1.439 . S
C162 N163 1.374 . S
C162 C196 1.395 . S
N163 C159 1.376 . S
N163 C162 1.374 . S
N163 Co164 2.008 . S
Co164 N163 2.008 . S
Co164 N165 1.995 . S
Co164 N170 2.008 . S
Co164 N175 1.995 . S
Co164 N180 2.282 . S
Co164 N186 2.282 . S
N165 Co164 1.995 . S
N165 C166 1.376 . S
N165 C169 1.383 . S
C166 N165 1.376 . S
C166 C167 1.446 . S
C166 C196 1.391 . S
C167 C166 1.446 . S
C167 C168 1.339 . S
C167 H202 0.949 . S
C168 C167 1.339 . S
C168 C169 1.439 . S
C168 H203 0.950 . S
C169 N165 1.383 . S
C169 C168 1.439 . S
C169 C198 1.392 . S
N170 Co164 2.008 . S
N170 C171 1.376 . S
N170 C174 1.374 . S
C171 N170 1.376 . S
C171 C172 1.443 . S
C171 C198 1.389 . S
C172 C171 1.443 . S
C172 C173 1.340 . S
C172 H204 0.951 . S
C173 C172 1.340 . S
C173 C174 1.439 . S
C173 H205 0.950 . S
C174 N170 1.374 . S
C174 C173 1.439 . S
C174 C199 1.395 . S
N175 Co164 1.995 . S
N175 C176 1.376 . S
N175 C179 1.383 . S
C176 N175 1.376 . S
C176 C177 1.446 . S
C176 C199 1.391 . S
C177 C176 1.446 . S
C177 C178 1.339 . S
C177 H206 0.949 . S
C178 C177 1.339 . S
C178 C179 1.439 . S
C178 H207 0.950 . S
C179 N175 1.383 . S
C179 C178 1.439 . S
C179 C197 1.392 . S
N180 Co164 2.282 . S
N180 C183 1.332 . S
N180 C185 1.332 . S
C181 C182 1.386 . S
C181 C184 1.388 . S
C182 C181 1.386 . S
C182 C183 1.382 . S
C182 H208 0.950 . S
C183 N180 1.332 . S
C183 C182 1.382 . S
C183 H194 0.952 . S
C184 C181 1.388 . S
C184 C185 1.382 . S
C184 H209 0.950 . S
C185 N180 1.332 . S
C185 C184 1.382 . S
C185 H195 0.948 . S
N186 Co164 2.282 . S
N186 C190 1.332 . S
N186 C191 1.332 . S
C187 C188 1.388 . S
C187 C191 1.382 . S
C187 H210 0.950 . S
C188 C187 1.388 . S
C188 C189 1.386 . S
C189 C188 1.386 . S
C189 C190 1.382 . S
C189 H211 0.950 . S
C190 N186 1.332 . S
C190 C189 1.382 . S
C190 H192 0.952 . S
C191 N186 1.332 . S
C191 C187 1.382 . S
C191 H193 0.948 . S
H192 C190 0.952 . S
H193 C191 0.948 . S
H194 C183 0.952 . S
H195 C185 0.948 . S
C196 C162 1.395 . S
C196 C166 1.391 . S
C197 C159 1.389 . S
C197 C179 1.392 . S
C198 C169 1.392 . S
C198 C171 1.389 . S
C199 C174 1.395 . S
C199 C176 1.391 . S
H200 C160 0.951 . S
H201 C161 0.950 . S
H202 C167 0.949 . S
H203 C168 0.950 . S
H204 C172 0.951 . S
H205 C173 0.950 . S
H206 C177 0.949 . S
H207 C178 0.950 . S
H208 C182 0.950 . S
H209 C184 0.950 . S
H210 C187 0.950 . S
H211 C189 0.950 . S
C212 C213 1.443 . S
C212 N216 1.376 . S
C212 C250 1.389 . S
C213 C212 1.443 . S
C213 C214 1.340 . S
C213 H253 0.951 . S
C214 C213 1.340 . S
C214 C215 1.439 . S
C214 H254 0.950 . S
C215 C214 1.439 . S
C215 N216 1.374 . S
C215 C249 1.395 . S
N216 C212 1.376 . S
N216 C215 1.374 . S
N216 Co217 2.008 . S
Co217 N216 2.008 . S
Co217 N218 1.995 . S
Co217 N223 2.008 . S
Co217 N228 1.995 . S
Co217 N233 2.282 . S
Co217 N239 2.282 . S
N218 Co217 1.995 . S
N218 C219 1.376 . S
N218 C222 1.383 . S
C219 N218 1.376 . S
C219 C220 1.446 . S
C219 C249 1.391 . S
C220 C219 1.446 . S
C220 C221 1.339 . S
C220 H255 0.949 . S
C221 C220 1.339 . S
C221 C222 1.439 . S
C221 H256 0.950 . S
C222 N218 1.383 . S
C222 C221 1.439 . S
C222 C251 1.392 . S
N223 Co217 2.008 . S
N223 C224 1.376 . S
N223 C227 1.374 . S
C224 N223 1.376 . S
C224 C225 1.443 . S
C224 C251 1.389 . S
C225 C224 1.443 . S
C225 C226 1.340 . S
C225 H257 0.951 . S
C226 C225 1.340 . S
C226 C227 1.439 . S
C226 H258 0.950 . S
C227 N223 1.374 . S
C227 C226 1.439 . S
C227 C252 1.395 . S
N228 Co217 1.995 . S
N228 C229 1.376 . S
N228 C232 1.383 . S
C229 N228 1.376 . S
C229 C230 1.446 . S
C229 C252 1.391 . S
C230 C229 1.446 . S
C230 C231 1.339 . S
C230 H259 0.949 . S
C231 C230 1.339 . S
C231 C232 1.439 . S
C231 H260 0.950 . S
C232 N228 1.383 . S
C232 C231 1.439 . S
C232 C250 1.392 . S
N233 Co217 2.282 . S
N233 C236 1.332 . S
N233 C238 1.332 . S
C234 C235 1.386 . S
C234 C237 1.388 . S
C235 C234 1.386 . S
C235 C236 1.382 . S
C235 H261 0.950 . S
C236 N233 1.332 . S
C236 C235 1.382 . S
C236 H247 0.952 . S
C237 C234 1.388 . S
C237 C238 1.382 . S
C237 H262 0.950 . S
C238 N233 1.332 . S
C238 C237 1.382 . S
C238 H248 0.948 . S
N239 Co217 2.282 . S
N239 C243 1.332 . S
N239 C244 1.332 . S
C240 C241 1.388 . S
C240 C244 1.382 . S
C240 H263 0.950 . S
C241 C240 1.388 . S
C241 C242 1.386 . S
C242 C241 1.386 . S
C242 C243 1.382 . S
C242 H264 0.950 . S
C243 N239 1.332 . S
C243 C242 1.382 . S
C243 H245 0.952 . S
C244 N239 1.332 . S
C244 C240 1.382 . S
C244 H246 0.948 . S
H245 C243 0.952 . S
H246 C244 0.948 . S
H247 C236 0.952 . S
H248 C238 0.948 . S
C249 C215 1.395 . S
C249 C219 1.391 . S
C250 C212 1.389 . S
C250 C232 1.392 . S
C251 C222 1.392 . S
C251 C224 1.389 . S
C252 C227 1.395 . S
C252 C229 1.391 . S
H253 C213 0.951 . S
H254 C214 0.950 . S
H255 C220 0.949 . S
H256 C221 0.950 . S
H257 C225 0.951 . S
H258 C226 0.950 . S
H259 C230 0.949 . S
H260 C231 0.950 . S
H261 C235 0.950 . S
H262 C237 0.950 . S
H263 C240 0.950 . S
H264 C242 0.950 . S
C265 C266 1.443 . S
C265 N269 1.376 . S
C265 C303 1.389 . S
C266 C265 1.443 . S
C266 C267 1.340 . S
C266 H306 0.951 . S
C267 C266 1.340 . S
C267 C268 1.439 . S
C267 H307 0.950 . S
C268 C267 1.439 . S
C268 N269 1.374 . S
C268 C302 1.395 . S
N269 C265 1.376 . S
N269 C268 1.374 . S
N269 Co270 2.008 . S
Co270 N269 2.008 . S
Co270 N271 1.995 . S
Co270 N276 2.008 . S
Co270 N281 1.995 . S
Co270 N286 2.282 . S
Co270 N292 2.282 . S
N271 Co270 1.995 . S
N271 C272 1.376 . S
N271 C275 1.383 . S
C272 N271 1.376 . S
C272 C273 1.446 . S
C272 C302 1.391 . S
C273 C272 1.446 . S
C273 C274 1.339 . S
C273 H308 0.949 . S
C274 C273 1.339 . S
C274 C275 1.439 . S
C274 H309 0.950 . S
C275 N271 1.383 . S
C275 C274 1.439 . S
C275 C304 1.392 . S
N276 Co270 2.008 . S
N276 C277 1.376 . S
N276 C280 1.374 . S
C277 N276 1.376 . S
C277 C278 1.443 . S
C277 C304 1.389 . S
C278 C277 1.443 . S
C278 C279 1.340 . S
C278 H310 0.951 . S
C279 C278 1.340 . S
C279 C280 1.439 . S
C279 H311 0.950 . S
C280 N276 1.374 . S
C280 C279 1.439 . S
C280 C305 1.395 . S
N281 Co270 1.995 . S
N281 C282 1.376 . S
N281 C285 1.383 . S
C282 N281 1.376 . S
C282 C283 1.446 . S
C282 C305 1.391 . S
C283 C282 1.446 . S
C283 C284 1.339 . S
C283 H312 0.949 . S
C284 C283 1.339 . S
C284 C285 1.439 . S
C284 H313 0.950 . S
C285 N281 1.383 . S
C285 C284 1.439 . S
C285 C303 1.392 . S
N286 Co270 2.282 . S
N286 C289 1.332 . S
N286 C291 1.332 . S
C287 C288 1.386 . S
C287 C290 1.388 . S
C288 C287 1.386 . S
C288 C289 1.382 . S
C288 H314 0.950 . S
C289 N286 1.332 . S
C289 C288 1.382 . S
C289 H300 0.952 . S
C290 C287 1.388 . S
C290 C291 1.382 . S
C290 H315 0.950 . S
C291 N286 1.332 . S
C291 C290 1.382 . S
C291 H301 0.948 . S
N292 Co270 2.282 . S
N292 C296 1.332 . S
N292 C297 1.332 . S
C293 C294 1.388 . S
C293 C297 1.382 . S
C293 H316 0.950 . S
C294 C293 1.388 . S
C294 C295 1.386 . S
C295 C294 1.386 . S
C295 C296 1.382 . S
C295 H317 0.950 . S
C296 N292 1.332 . S
C296 C295 1.382 . S
C296 H298 0.952 . S
C297 N292 1.332 . S
C297 C293 1.382 . S
C297 H299 0.948 . S
H298 C296 0.952 . S
H299 C297 0.948 . S
H300 C289 0.952 . S
H301 C291 0.948 . S
C302 C268 1.395 . S
C302 C272 1.391 . S
C303 C265 1.389 . S
C303 C285 1.392 . S
C304 C275 1.392 . S
C304 C277 1.389 . S
C305 C280 1.395 . S
C305 C282 1.391 . S
H306 C266 0.951 . S
H307 C267 0.950 . S
H308 C273 0.949 . S
H309 C274 0.950 . S
H310 C278 0.951 . S
H311 C279 0.950 . S
H312 C283 0.949 . S
H313 C284 0.950 . S
H314 C288 0.950 . S
H315 C290 0.950 . S
H316 C293 0.950 . S
H317 C295 0.950 . S
C318 C319 1.443 . S
C318 N322 1.376 . S
C318 C356 1.389 . S
C319 C318 1.443 . S
C319 C320 1.340 . S
C319 H359 0.951 . S
C320 C319 1.340 . S
C320 C321 1.439 . S
C320 H360 0.950 . S
C321 C320 1.439 . S
C321 N322 1.374 . S
C321 C355 1.395 . S
N322 C318 1.376 . S
N322 C321 1.374 . S
N322 Co323 2.008 . S
Co323 N322 2.008 . S
Co323 N324 1.995 . S
Co323 N329 2.008 . S
Co323 N334 1.995 . S
Co323 N339 2.282 . S
Co323 N345 2.282 . S
N324 Co323 1.995 . S
N324 C325 1.376 . S
N324 C328 1.383 . S
C325 N324 1.376 . S
C325 C326 1.446 . S
C325 C355 1.391 . S
C326 C325 1.446 . S
C326 C327 1.339 . S
C326 H361 0.949 . S
C327 C326 1.339 . S
C327 C328 1.439 . S
C327 H362 0.950 . S
C328 N324 1.383 . S
C328 C327 1.439 . S
C328 C357 1.392 . S
N329 Co323 2.008 . S
N329 C330 1.376 . S
N329 C333 1.374 . S
C330 N329 1.376 . S
C330 C331 1.443 . S
C330 C357 1.389 . S
C331 C330 1.443 . S
C331 C332 1.340 . S
C331 H363 0.951 . S
C332 C331 1.340 . S
C332 C333 1.439 . S
C332 H364 0.950 . S
C333 N329 1.374 . S
C333 C332 1.439 . S
C333 C358 1.395 . S
N334 Co323 1.995 . S
N334 C335 1.376 . S
N334 C338 1.383 . S
C335 N334 1.376 . S
C335 C336 1.446 . S
C335 C358 1.391 . S
C336 C335 1.446 . S
C336 C337 1.339 . S
C336 H365 0.949 . S
C337 C336 1.339 . S
C337 C338 1.439 . S
C337 H366 0.950 . S
C338 N334 1.383 . S
C338 C337 1.439 . S
C338 C356 1.392 . S
N339 Co323 2.282 . S
N339 C342 1.332 . S
N339 C344 1.332 . S
C340 C341 1.386 . S
C340 C343 1.388 . S
C341 C340 1.386 . S
C341 C342 1.382 . S
C341 H367 0.950 . S
C342 N339 1.332 . S
C342 C341 1.382 . S
C342 H353 0.952 . S
C343 C340 1.388 . S
C343 C344 1.382 . S
C343 H368 0.950 . S
C344 N339 1.332 . S
C344 C343 1.382 . S
C344 H354 0.948 . S
N345 Co323 2.282 . S
N345 C349 1.332 . S
N345 C350 1.332 . S
C346 C347 1.388 . S
C346 C350 1.382 . S
C346 H369 0.950 . S
C347 C346 1.388 . S
C347 C348 1.386 . S
C348 C347 1.386 . S
C348 C349 1.382 . S
C348 H370 0.950 . S
C349 N345 1.332 . S
C349 C348 1.382 . S
C349 H351 0.952 . S
C350 N345 1.332 . S
C350 C346 1.382 . S
C350 H352 0.948 . S
H351 C349 0.952 . S
H352 C350 0.948 . S
H353 C342 0.952 . S
H354 C344 0.948 . S
C355 C321 1.395 . S
C355 C325 1.391 . S
C356 C318 1.389 . S
C356 C338 1.392 . S
C357 C328 1.392 . S
C357 C330 1.389 . S
C358 C333 1.395 . S
C358 C335 1.391 . S
H359 C319 0.951 . S
H360 C320 0.950 . S
H361 C326 0.949 . S
H362 C327 0.950 . S
H363 C331 0.951 . S
H364 C332 0.950 . S
H365 C336 0.949 . S
H366 C337 0.950 . S
H367 C341 0.950 . S
H368 C343 0.950 . S
H369 C346 0.950 . S
H370 C348 0.950 . S
C371 C372 1.443 . S
C371 N375 1.376 . S
C371 C409 1.389 . S
C372 C371 1.443 . S
C372 C373 1.340 . S
C372 H412 0.951 . S
C373 C372 1.340 . S
C373 C374 1.439 . S
C373 H413 0.950 . S
C374 C373 1.439 . S
C374 N375 1.374 . S
C374 C408 1.395 . S
N375 C371 1.376 . S
N375 C374 1.374 . S
N375 Co376 2.008 . S
Co376 N375 2.008 . S
Co376 N377 1.995 . S
Co376 N382 2.008 . S
Co376 N387 1.995 . S
Co376 N392 2.282 . S
Co376 N398 2.282 . S
N377 Co376 1.995 . S
N377 C378 1.376 . S
N377 C381 1.383 . S
C378 N377 1.376 . S
C378 C379 1.446 . S
C378 C408 1.391 . S
C379 C378 1.446 . S
C379 C380 1.339 . S
C379 H414 0.949 . S
C380 C379 1.339 . S
C380 C381 1.439 . S
C380 H415 0.950 . S
C381 N377 1.383 . S
C381 C380 1.439 . S
C381 C410 1.392 . S
N382 Co376 2.008 . S
N382 C383 1.376 . S
N382 C386 1.374 . S
C383 N382 1.376 . S
C383 C384 1.443 . S
C383 C410 1.389 . S
C384 C383 1.443 . S
C384 C385 1.340 . S
C384 H416 0.951 . S
C385 C384 1.340 . S
C385 C386 1.439 . S
C385 H417 0.950 . S
C386 N382 1.374 . S
C386 C385 1.439 . S
C386 C411 1.395 . S
N387 Co376 1.995 . S
N387 C388 1.376 . S
N387 C391 1.383 . S
C388 N387 1.376 . S
C388 C389 1.446 . S
C388 C411 1.391 . S
C389 C388 1.446 . S
C389 C390 1.339 . S
C389 H418 0.949 . S
C390 C389 1.339 . S
C390 C391 1.439 . S
C390 H419 0.950 . S
C391 N387 1.383 . S
C391 C390 1.439 . S
C391 C409 1.392 . S
N392 Co376 2.282 . S
N392 C395 1.332 . S
N392 C397 1.332 . S
C393 C394 1.386 . S
C393 C396 1.388 . S
C394 C393 1.386 . S
C394 C395 1.382 . S
C394 H420 0.950 . S
C395 N392 1.332 . S
C395 C394 1.382 . S
C395 H406 0.952 . S
C396 C393 1.388 . S
C396 C397 1.382 . S
C396 H421 0.950 . S
C397 N392 1.332 . S
C397 C396 1.382 . S
C397 H407 0.948 . S
N398 Co376 2.282 . S
N398 C402 1.332 . S
N398 C403 1.332 . S
C399 C400 1.388 . S
C399 C403 1.382 . S
C399 H422 0.950 . S
C400 C399 1.388 . S
C400 C401 1.386 . S
C401 C400 1.386 . S
C401 C402 1.382 . S
C401 H423 0.950 . S
C402 N398 1.332 . S
C402 C401 1.382 . S
C402 H404 0.952 . S
C403 N398 1.332 . S
C403 C399 1.382 . S
C403 H405 0.948 . S
H404 C402 0.952 . S
H405 C403 0.948 . S
H406 C395 0.952 . S
H407 C397 0.948 . S
C408 C374 1.395 . S
C408 C378 1.391 . S
C409 C371 1.389 . S
C409 C391 1.392 . S
C410 C381 1.392 . S
C410 C383 1.389 . S
C411 C386 1.395 . S
C411 C388 1.391 . S
H412 C372 0.951 . S
H413 C373 0.950 . S
H414 C379 0.949 . S
H415 C380 0.950 . S
H416 C384 0.951 . S
H417 C385 0.950 . S
H418 C389 0.949 . S
H419 C390 0.950 . S
H420 C394 0.950 . S
H421 C396 0.950 . S
H422 C399 0.950 . S
H423 C401 0.950 . S
C424 C425 1.443 . S
C424 N428 1.376 . S
C424 C462 1.389 . S
C425 C424 1.443 . S
C425 C426 1.340 . S
C425 H465 0.951 . S
C426 C425 1.340 . S
C426 C427 1.439 . S
C426 H466 0.950 . S
C427 C426 1.439 . S
C427 N428 1.374 . S
C427 C461 1.395 . S
N428 C424 1.376 . S
N428 C427 1.374 . S
N428 Co429 2.008 . S
Co429 N428 2.008 . S
Co429 N430 1.995 . S
Co429 N435 2.008 . S
Co429 N440 1.995 . S
Co429 N445 2.282 . S
Co429 N451 2.282 . S
N430 Co429 1.995 . S
N430 C431 1.376 . S
N430 C434 1.383 . S
C431 N430 1.376 . S
C431 C432 1.446 . S
C431 C461 1.391 . S
C432 C431 1.446 . S
C432 C433 1.339 . S
C432 H467 0.949 . S
C433 C432 1.339 . S
C433 C434 1.439 . S
C433 H468 0.950 . S
C434 N430 1.383 . S
C434 C433 1.439 . S
C434 C463 1.392 . S
N435 Co429 2.008 . S
N435 C436 1.376 . S
N435 C439 1.374 . S
C436 N435 1.376 . S
C436 C437 1.443 . S
C436 C463 1.389 . S
C437 C436 1.443 . S
C437 C438 1.340 . S
C437 H469 0.951 . S
C438 C437 1.340 . S
C438 C439 1.439 . S
C438 H470 0.950 . S
C439 N435 1.374 . S
C439 C438 1.439 . S
C439 C464 1.395 . S
N440 Co429 1.995 . S
N440 C441 1.376 . S
N440 C444 1.383 . S
C441 N440 1.376 . S
C441 C442 1.446 . S
C441 C464 1.391 . S
C442 C441 1.446 . S
C442 C443 1.339 . S
C442 H471 0.949 . S
C443 C442 1.339 . S
C443 C444 1.439 . S
C443 H472 0.950 . S
C444 N440 1.383 . S
C444 C443 1.439 . S
C444 C462 1.392 . S
N445 Co429 2.282 . S
N445 C448 1.332 . S
N445 C450 1.332 . S
C446 C447 1.386 . S
C446 C449 1.388 . S
C447 C446 1.386 . S
C447 C448 1.382 . S
C447 H473 0.950 . S
C448 N445 1.332 . S
C448 C447 1.382 . S
C448 H459 0.952 . S
C449 C446 1.388 . S
C449 C450 1.382 . S
C449 H474 0.950 . S
C450 N445 1.332 . S
C450 C449 1.382 . S
C450 H460 0.948 . S
N451 Co429 2.282 . S
N451 C455 1.332 . S
N451 C456 1.332 . S
C452 C453 1.388 . S
C452 C456 1.382 . S
C452 H475 0.950 . S
C453 C452 1.388 . S
C453 C454 1.386 . S
C454 C453 1.386 . S
C454 C455 1.382 . S
C454 H476 0.950 . S
C455 N451 1.332 . S
C455 C454 1.382 . S
C455 H457 0.952 . S
C456 N451 1.332 . S
C456 C452 1.382 . S
C456 H458 0.948 . S
H457 C455 0.952 . S
H458 C456 0.948 . S
H459 C448 0.952 . S
H460 C450 0.948 . S
C461 C427 1.395 . S
C461 C431 1.391 . S
C462 C424 1.389 . S
C462 C444 1.392 . S
C463 C434 1.392 . S
C463 C436 1.389 . S
C464 C439 1.395 . S
C464 C441 1.391 . S
H465 C425 0.951 . S
H466 C426 0.950 . S
H467 C432 0.949 . S
H468 C433 0.950 . S
H469 C437 0.951 . S
H470 C438 0.950 . S
H471 C442 0.949 . S
H472 C443 0.950 . S
H473 C447 0.950 . S
H474 C449 0.950 . S
H475 C452 0.950 . S
H476 C454 0.950 . S
C477 C478 1.443 . S
C477 N481 1.376 . S
C477 C515 1.389 . S
C478 C477 1.443 . S
C478 C479 1.340 . S
C478 H518 0.951 . S
C479 C478 1.340 . S
C479 C480 1.439 . S
C479 H519 0.950 . S
C480 C479 1.439 . S
C480 N481 1.374 . S
C480 C514 1.395 . S
N481 C477 1.376 . S
N481 C480 1.374 . S
N481 Co482 2.008 . S
Co482 N481 2.008 . S
Co482 N483 1.995 . S
Co482 N488 2.008 . S
Co482 N493 1.995 . S
Co482 N498 2.282 . S
Co482 N504 2.282 . S
N483 Co482 1.995 . S
N483 C484 1.376 . S
N483 C487 1.383 . S
C484 N483 1.376 . S
C484 C485 1.446 . S
C484 C514 1.391 . S
C485 C484 1.446 . S
C485 C486 1.339 . S
C485 H520 0.949 . S
C486 C485 1.339 . S
C486 C487 1.439 . S
C486 H521 0.950 . S
C487 N483 1.383 . S
C487 C486 1.439 . S
C487 C516 1.392 . S
N488 Co482 2.008 . S
N488 C489 1.376 . S
N488 C492 1.374 . S
C489 N488 1.376 . S
C489 C490 1.443 . S
C489 C516 1.389 . S
C490 C489 1.443 . S
C490 C491 1.340 . S
C490 H522 0.951 . S
C491 C490 1.340 . S
C491 C492 1.439 . S
C491 H523 0.950 . S
C492 N488 1.374 . S
C492 C491 1.439 . S
C492 C517 1.395 . S
N493 Co482 1.995 . S
N493 C494 1.376 . S
N493 C497 1.383 . S
C494 N493 1.376 . S
C494 C495 1.446 . S
C494 C517 1.391 . S
C495 C494 1.446 . S
C495 C496 1.339 . S
C495 H524 0.949 . S
C496 C495 1.339 . S
C496 C497 1.439 . S
C496 H525 0.950 . S
C497 N493 1.383 . S
C497 C496 1.439 . S
C497 C515 1.392 . S
N498 Co482 2.282 . S
N498 C501 1.332 . S
N498 C503 1.332 . S
C499 C500 1.386 . S
C499 C502 1.388 . S
C500 C499 1.386 . S
C500 C501 1.382 . S
C500 H526 0.950 . S
C501 N498 1.332 . S
C501 C500 1.382 . S
C501 H512 0.952 . S
C502 C499 1.388 . S
C502 C503 1.382 . S
C502 H527 0.950 . S
C503 N498 1.332 . S
C503 C502 1.382 . S
C503 H513 0.948 . S
N504 Co482 2.282 . S
N504 C508 1.332 . S
N504 C509 1.332 . S
C505 C506 1.388 . S
C505 C509 1.382 . S
C505 H528 0.950 . S
C506 C505 1.388 . S
C506 C507 1.386 . S
C507 C506 1.386 . S
C507 C508 1.382 . S
C507 H529 0.950 . S
C508 N504 1.332 . S
C508 C507 1.382 . S
C508 H510 0.952 . S
C509 N504 1.332 . S
C509 C505 1.382 . S
C509 H511 0.948 . S
H510 C508 0.952 . S
H511 C509 0.948 . S
H512 C501 0.952 . S
H513 C503 0.948 . S
C514 C480 1.395 . S
C514 C484 1.391 . S
C515 C477 1.389 . S
C515 C497 1.392 . S
C516 C487 1.392 . S
C516 C489 1.389 . S
C517 C492 1.395 . S
C517 C494 1.391 . S
H518 C478 0.951 . S
H519 C479 0.950 . S
H520 C485 0.949 . S
H521 C486 0.950 . S
H522 C490 0.951 . S
H523 C491 0.950 . S
H524 C495 0.949 . S
H525 C496 0.950 . S
H526 C500 0.950 . S
H527 C502 0.950 . S
H528 C505 0.950 . S
H529 C507 0.950 . S
C530 C531 1.443 . S
C530 N534 1.376 . S
C530 C568 1.389 . S
C531 C530 1.443 . S
C531 C532 1.340 . S
C531 H571 0.951 . S
C532 C531 1.340 . S
C532 C533 1.439 . S
C532 H572 0.950 . S
C533 C532 1.439 . S
C533 N534 1.374 . S
C533 C567 1.395 . S
N534 C530 1.376 . S
N534 C533 1.374 . S
N534 Co535 2.008 . S
Co535 N534 2.008 . S
Co535 N536 1.995 . S
Co535 N541 2.008 . S
Co535 N546 1.995 . S
Co535 N551 2.282 . S
Co535 N557 2.282 . S
N536 Co535 1.995 . S
N536 C537 1.376 . S
N536 C540 1.383 . S
C537 N536 1.376 . S
C537 C538 1.446 . S
C537 C567 1.391 . S
C538 C537 1.446 . S
C538 C539 1.339 . S
C538 H573 0.949 . S
C539 C538 1.339 . S
C539 C540 1.439 . S
C539 H574 0.950 . S
C540 N536 1.383 . S
C540 C539 1.439 . S
C540 C569 1.392 . S
N541 Co535 2.008 . S
N541 C542 1.376 . S
N541 C545 1.374 . S
C542 N541 1.376 . S
C542 C543 1.443 . S
C542 C569 1.389 . S
C543 C542 1.443 . S
C543 C544 1.340 . S
C543 H575 0.951 . S
C544 C543 1.340 . S
C544 C545 1.439 . S
C544 H576 0.950 . S
C545 N541 1.374 . S
C545 C544 1.439 . S
C545 C570 1.395 . S
N546 Co535 1.995 . S
N546 C547 1.376 . S
N546 C550 1.383 . S
C547 N546 1.376 . S
C547 C548 1.446 . S
C547 C570 1.391 . S
C548 C547 1.446 . S
C548 C549 1.339 . S
C548 H577 0.949 . S
C549 C548 1.339 . S
C549 C550 1.439 . S
C549 H578 0.950 . S
C550 N546 1.383 . S
C550 C549 1.439 . S
C550 C568 1.392 . S
N551 Co535 2.282 . S
N551 C554 1.332 . S
N551 C556 1.332 . S
C552 C553 1.386 . S
C552 C555 1.388 . S
C553 C552 1.386 . S
C553 C554 1.382 . S
C553 H579 0.950 . S
C554 N551 1.332 . S
C554 C553 1.382 . S
C554 H565 0.952 . S
C555 C552 1.388 . S
C555 C556 1.382 . S
C555 H580 0.950 . S
C556 N551 1.332 . S
C556 C555 1.382 . S
C556 H566 0.948 . S
N557 Co535 2.282 . S
N557 C561 1.332 . S
N557 C562 1.332 . S
C558 C559 1.388 . S
C558 C562 1.382 . S
C558 H581 0.950 . S
C559 C558 1.388 . S
C559 C560 1.386 . S
C560 C559 1.386 . S
C560 C561 1.382 . S
C560 H582 0.950 . S
C561 N557 1.332 . S
C561 C560 1.382 . S
C561 H563 0.952 . S
C562 N557 1.332 . S
C562 C558 1.382 . S
C562 H564 0.948 . S
H563 C561 0.952 . S
H564 C562 0.948 . S
H565 C554 0.952 . S
H566 C556 0.948 . S
C567 C533 1.395 . S
C567 C537 1.391 . S
C568 C530 1.389 . S
C568 C550 1.392 . S
C569 C540 1.392 . S
C569 C542 1.389 . S
C570 C545 1.395 . S
C570 C547 1.391 . S
H571 C531 0.951 . S
H572 C532 0.950 . S
H573 C538 0.949 . S
H574 C539 0.950 . S
H575 C543 0.951 . S
H576 C544 0.950 . S
H577 C548 0.949 . S
H578 C549 0.950 . S
H579 C553 0.950 . S
H580 C555 0.950 . S
H581 C558 0.950 . S
H582 C560 0.950 . S
C583 C584 1.443 . S
C583 N587 1.376 . S
C583 C621 1.389 . S
C584 C583 1.443 . S
C584 C585 1.340 . S
C584 H624 0.951 . S
C585 C584 1.340 . S
C585 C586 1.439 . S
C585 H625 0.950 . S
C586 C585 1.439 . S
C586 N587 1.374 . S
C586 C620 1.395 . S
N587 C583 1.376 . S
N587 C586 1.374 . S
N587 Co588 2.008 . S
Co588 N587 2.008 . S
Co588 N589 1.995 . S
Co588 N594 2.008 . S
Co588 N599 1.995 . S
Co588 N604 2.282 . S
Co588 N610 2.282 . S
N589 Co588 1.995 . S
N589 C590 1.376 . S
N589 C593 1.383 . S
C590 N589 1.376 . S
C590 C591 1.446 . S
C590 C620 1.391 . S
C591 C590 1.446 . S
C591 C592 1.339 . S
C591 H626 0.949 . S
C592 C591 1.339 . S
C592 C593 1.439 . S
C592 H627 0.950 . S
C593 N589 1.383 . S
C593 C592 1.439 . S
C593 C622 1.392 . S
N594 Co588 2.008 . S
N594 C595 1.376 . S
N594 C598 1.374 . S
C595 N594 1.376 . S
C595 C596 1.443 . S
C595 C622 1.389 . S
C596 C595 1.443 . S
C596 C597 1.340 . S
C596 H628 0.951 . S
C597 C596 1.340 . S
C597 C598 1.439 . S
C597 H629 0.950 . S
C598 N594 1.374 . S
C598 C597 1.439 . S
C598 C623 1.395 . S
N599 Co588 1.995 . S
N599 C600 1.376 . S
N599 C603 1.383 . S
C600 N599 1.376 . S
C600 C601 1.446 . S
C600 C623 1.391 . S
C601 C600 1.446 . S
C601 C602 1.339 . S
C601 H630 0.949 . S
C602 C601 1.339 . S
C602 C603 1.439 . S
C602 H631 0.950 . S
C603 N599 1.383 . S
C603 C602 1.439 . S
C603 C621 1.392 . S
N604 Co588 2.282 . S
N604 C607 1.332 . S
N604 C609 1.332 . S
C605 C606 1.386 . S
C605 C608 1.388 . S
C606 C605 1.386 . S
C606 C607 1.382 . S
C606 H632 0.950 . S
C607 N604 1.332 . S
C607 C606 1.382 . S
C607 H618 0.952 . S
C608 C605 1.388 . S
C608 C609 1.382 . S
C608 H633 0.950 . S
C609 N604 1.332 . S
C609 C608 1.382 . S
C609 H619 0.948 . S
N610 Co588 2.282 . S
N610 C614 1.332 . S
N610 C615 1.332 . S
C611 C612 1.388 . S
C611 C615 1.382 . S
C611 H634 0.950 . S
C612 C611 1.388 . S
C612 C613 1.386 . S
C613 C612 1.386 . S
C613 C614 1.382 . S
C613 H635 0.950 . S
C614 N610 1.332 . S
C614 C613 1.382 . S
C614 H616 0.952 . S
C615 N610 1.332 . S
C615 C611 1.382 . S
C615 H617 0.948 . S
H616 C614 0.952 . S
H617 C615 0.948 . S
H618 C607 0.952 . S
H619 C609 0.948 . S
C620 C586 1.395 . S
C620 C590 1.391 . S
C621 C583 1.389 . S
C621 C603 1.392 . S
C622 C593 1.392 . S
C622 C595 1.389 . S
C623 C598 1.395 . S
C623 C600 1.391 . S
H624 C584 0.951 . S
H625 C585 0.950 . S
H626 C591 0.949 . S
H627 C592 0.950 . S
H628 C596 0.951 . S
H629 C597 0.950 . S
H630 C601 0.949 . S
H631 C602 0.950 . S
H632 C606 0.950 . S
H633 C608 0.950 . S
H634 C611 0.950 . S
H635 C613 0.950 . S
C636 C637 1.443 . S
C636 N640 1.376 . S
C636 C674 1.389 . S
C637 C636 1.443 . S
C637 C638 1.340 . S
C637 H677 0.951 . S
C638 C637 1.340 . S
C638 C639 1.439 . S
C638 H678 0.950 . S
C639 C638 1.439 . S
C639 N640 1.374 . S
C639 C673 1.395 . S
N640 C636 1.376 . S
N640 C639 1.374 . S
N640 Co641 2.008 . S
Co641 N640 2.008 . S
Co641 N642 1.995 . S
Co641 N647 2.008 . S
Co641 N652 1.995 . S
Co641 N657 2.282 . S
Co641 N663 2.282 . S
N642 Co641 1.995 . S
N642 C643 1.376 . S
N642 C646 1.383 . S
C643 N642 1.376 . S
C643 C644 1.446 . S
C643 C673 1.391 . S
C644 C643 1.446 . S
C644 C645 1.339 . S
C644 H679 0.949 . S
C645 C644 1.339 . S
C645 C646 1.439 . S
C645 H680 0.950 . S
C646 N642 1.383 . S
C646 C645 1.439 . S
C646 C675 1.392 . S
N647 Co641 2.008 . S
N647 C648 1.376 . S
N647 C651 1.374 . S
C648 N647 1.376 . S
C648 C649 1.443 . S
C648 C675 1.389 . S
C649 C648 1.443 . S
C649 C650 1.340 . S
C649 H681 0.951 . S
C650 C649 1.340 . S
C650 C651 1.439 . S
C650 H682 0.950 . S
C651 N647 1.374 . S
C651 C650 1.439 . S
C651 C676 1.395 . S
N652 Co641 1.995 . S
N652 C653 1.376 . S
N652 C656 1.383 . S
C653 N652 1.376 . S
C653 C654 1.446 . S
C653 C676 1.391 . S
C654 C653 1.446 . S
C654 C655 1.339 . S
C654 H683 0.949 . S
C655 C654 1.339 . S
C655 C656 1.439 . S
C655 H684 0.950 . S
C656 N652 1.383 . S
C656 C655 1.439 . S
C656 C674 1.392 . S
N657 Co641 2.282 . S
N657 C660 1.332 . S
N657 C662 1.332 . S
C658 C659 1.386 . S
C658 C661 1.388 . S
C659 C658 1.386 . S
C659 C660 1.382 . S
C659 H685 0.950 . S
C660 N657 1.332 . S
C660 C659 1.382 . S
C660 H671 0.952 . S
C661 C658 1.388 . S
C661 C662 1.382 . S
C661 H686 0.950 . S
C662 N657 1.332 . S
C662 C661 1.382 . S
C662 H672 0.948 . S
N663 Co641 2.282 . S
N663 C667 1.332 . S
N663 C668 1.332 . S
C664 C665 1.388 . S
C664 C668 1.382 . S
C664 H687 0.950 . S
C665 C664 1.388 . S
C665 C666 1.386 . S
C666 C665 1.386 . S
C666 C667 1.382 . S
C666 H688 0.950 . S
C667 N663 1.332 . S
C667 C666 1.382 . S
C667 H669 0.952 . S
C668 N663 1.332 . S
C668 C664 1.382 . S
C668 H670 0.948 . S
H669 C667 0.952 . S
H670 C668 0.948 . S
H671 C660 0.952 . S
H672 C662 0.948 . S
C673 C639 1.395 . S
C673 C643 1.391 . S
C674 C636 1.389 . S
C674 C656 1.392 . S
C675 C646 1.392 . S
C675 C648 1.389 . S
C676 C651 1.395 . S
C676 C653 1.391 . S
H677 C637 0.951 . S
H678 C638 0.950 . S
H679 C644 0.949 . S
H680 C645 0.950 . S
H681 C649 0.951 . S
H682 C650 0.950 . S
H683 C654 0.949 . S
H684 C655 0.950 . S
H685 C659 0.950 . S
H686 C661 0.950 . S
H687 C664 0.950 . S
H688 C666 0.950 . S
C689 C690 1.443 . S
C689 N693 1.376 . S
C689 C727 1.389 . S
C690 C689 1.443 . S
C690 C691 1.340 . S
C690 H730 0.951 . S
C691 C690 1.340 . S
C691 C692 1.439 . S
C691 H731 0.950 . S
C692 C691 1.439 . S
C692 N693 1.374 . S
C692 C726 1.395 . S
N693 C689 1.376 . S
N693 C692 1.374 . S
N693 Co694 2.008 . S
Co694 N693 2.008 . S
Co694 N695 1.995 . S
Co694 N700 2.008 . S
Co694 N705 1.995 . S
Co694 N710 2.282 . S
Co694 N716 2.282 . S
N695 Co694 1.995 . S
N695 C696 1.376 . S
N695 C699 1.383 . S
C696 N695 1.376 . S
C696 C697 1.446 . S
C696 C726 1.391 . S
C697 C696 1.446 . S
C697 C698 1.339 . S
C697 H732 0.949 . S
C698 C697 1.339 . S
C698 C699 1.439 . S
C698 H733 0.950 . S
C699 N695 1.383 . S
C699 C698 1.439 . S
C699 C728 1.392 . S
N700 Co694 2.008 . S
N700 C701 1.376 . S
N700 C704 1.374 . S
C701 N700 1.376 . S
C701 C702 1.443 . S
C701 C728 1.389 . S
C702 C701 1.443 . S
C702 C703 1.340 . S
C702 H734 0.951 . S
C703 C702 1.340 . S
C703 C704 1.439 . S
C703 H735 0.950 . S
C704 N700 1.374 . S
C704 C703 1.439 . S
C704 C729 1.395 . S
N705 Co694 1.995 . S
N705 C706 1.376 . S
N705 C709 1.383 . S
C706 N705 1.376 . S
C706 C707 1.446 . S
C706 C729 1.391 . S
C707 C706 1.446 . S
C707 C708 1.339 . S
C707 H736 0.949 . S
C708 C707 1.339 . S
C708 C709 1.439 . S
C708 H737 0.950 . S
C709 N705 1.383 . S
C709 C708 1.439 . S
C709 C727 1.392 . S
N710 Co694 2.282 . S
N710 C713 1.332 . S
N710 C715 1.332 . S
C711 C712 1.386 . S
C711 C714 1.388 . S
C712 C711 1.386 . S
C712 C713 1.382 . S
C712 H738 0.950 . S
C713 N710 1.332 . S
C713 C712 1.382 . S
C713 H724 0.952 . S
C714 C711 1.388 . S
C714 C715 1.382 . S
C714 H739 0.950 . S
C715 N710 1.332 . S
C715 C714 1.382 . S
C715 H725 0.948 . S
N716 Co694 2.282 . S
N716 C720 1.332 . S
N716 C721 1.332 . S
C717 C718 1.388 . S
C717 C721 1.382 . S
C717 H740 0.950 . S
C718 C717 1.388 . S
C718 C719 1.386 . S
C719 C718 1.386 . S
C719 C720 1.382 . S
C719 H741 0.950 . S
C720 N716 1.332 . S
C720 C719 1.382 . S
C720 H722 0.952 . S
C721 N716 1.332 . S
C721 C717 1.382 . S
C721 H723 0.948 . S
H722 C720 0.952 . S
H723 C721 0.948 . S
H724 C713 0.952 . S
H725 C715 0.948 . S
C726 C692 1.395 . S
C726 C696 1.391 . S
C727 C689 1.389 . S
C727 C709 1.392 . S
C728 C699 1.392 . S
C728 C701 1.389 . S
C729 C704 1.395 . S
C729 C706 1.391 . S
H730 C690 0.951 . S
H731 C691 0.950 . S
H732 C697 0.949 . S
H733 C698 0.950 . S
H734 C702 0.951 . S
H735 C703 0.950 . S
H736 C707 0.949 . S
H737 C708 0.950 . S
H738 C712 0.950 . S
H739 C714 0.950 . S
H740 C717 0.950 . S
H741 C719 0.950 . S
C742 C743 1.443 . S
C742 N746 1.376 . S
C742 C780 1.389 . S
C743 C742 1.443 . S
C743 C744 1.340 . S
C743 H783 0.951 . S
C744 C743 1.340 . S
C744 C745 1.439 . S
C744 H784 0.950 . S
C745 C744 1.439 . S
C745 N746 1.374 . S
C745 C779 1.395 . S
N746 C742 1.376 . S
N746 C745 1.374 . S
N746 Co747 2.008 . S
Co747 N746 2.008 . S
Co747 N748 1.995 . S
Co747 N753 2.008 . S
Co747 N758 1.995 . S
Co747 N763 2.282 . S
Co747 N769 2.282 . S
N748 Co747 1.995 . S
N748 C749 1.376 . S
N748 C752 1.383 . S
C749 N748 1.376 . S
C749 C750 1.446 . S
C749 C779 1.391 . S
C750 C749 1.446 . S
C750 C751 1.339 . S
C750 H785 0.949 . S
C751 C750 1.339 . S
C751 C752 1.439 . S
C751 H786 0.950 . S
C752 N748 1.383 . S
C752 C751 1.439 . S
C752 C781 1.392 . S
N753 Co747 2.008 . S
N753 C754 1.376 . S
N753 C757 1.374 . S
C754 N753 1.376 . S
C754 C755 1.443 . S
C754 C781 1.389 . S
C755 C754 1.443 . S
C755 C756 1.340 . S
C755 H787 0.951 . S
C756 C755 1.340 . S
C756 C757 1.439 . S
C756 H788 0.950 . S
C757 N753 1.374 . S
C757 C756 1.439 . S
C757 C782 1.395 . S
N758 Co747 1.995 . S
N758 C759 1.376 . S
N758 C762 1.383 . S
C759 N758 1.376 . S
C759 C760 1.446 . S
C759 C782 1.391 . S
C760 C759 1.446 . S
C760 C761 1.339 . S
C760 H789 0.949 . S
C761 C760 1.339 . S
C761 C762 1.439 . S
C761 H790 0.950 . S
C762 N758 1.383 . S
C762 C761 1.439 . S
C762 C780 1.392 . S
N763 Co747 2.282 . S
N763 C766 1.332 . S
N763 C768 1.332 . S
C764 C765 1.386 . S
C764 C767 1.388 . S
C765 C764 1.386 . S
C765 C766 1.382 . S
C765 H791 0.950 . S
C766 N763 1.332 . S
C766 C765 1.382 . S
C766 H777 0.952 . S
C767 C764 1.388 . S
C767 C768 1.382 . S
C767 H792 0.950 . S
C768 N763 1.332 . S
C768 C767 1.382 . S
C768 H778 0.948 . S
N769 Co747 2.282 . S
N769 C773 1.332 . S
N769 C774 1.332 . S
C770 C771 1.388 . S
C770 C774 1.382 . S
C770 H793 0.950 . S
C771 C770 1.388 . S
C771 C772 1.386 . S
C772 C771 1.386 . S
C772 C773 1.382 . S
C772 H794 0.950 . S
C773 N769 1.332 . S
C773 C772 1.382 . S
C773 H775 0.952 . S
C774 N769 1.332 . S
C774 C770 1.382 . S
C774 H776 0.948 . S
H775 C773 0.952 . S
H776 C774 0.948 . S
H777 C766 0.952 . S
H778 C768 0.948 . S
C779 C745 1.395 . S
C779 C749 1.391 . S
C780 C742 1.389 . S
C780 C762 1.392 . S
C781 C752 1.392 . S
C781 C754 1.389 . S
C782 C757 1.395 . S
C782 C759 1.391 . S
H783 C743 0.951 . S
H784 C744 0.950 . S
H785 C750 0.949 . S
H786 C751 0.950 . S
H787 C755 0.951 . S
H788 C756 0.950 . S
H789 C760 0.949 . S
H790 C761 0.950 . S
H791 C765 0.950 . S
H792 C767 0.950 . S
H793 C770 0.950 . S
H794 C772 0.950 . S
C795 C796 1.443 . S
C795 N799 1.376 . S
C795 C833 1.389 . S
C796 C795 1.443 . S
C796 C797 1.340 . S
C796 H836 0.951 . S
C797 C796 1.340 . S
C797 C798 1.439 . S
C797 H837 0.950 . S
C798 C797 1.439 . S
C798 N799 1.374 . S
C798 C832 1.395 . S
N799 C795 1.376 . S
N799 C798 1.374 . S
N799 Co800 2.008 . S
Co800 N799 2.008 . S
Co800 N801 1.995 . S
Co800 N806 2.008 . S
Co800 N811 1.995 . S
Co800 N816 2.282 . S
Co800 N822 2.282 . S
N801 Co800 1.995 . S
N801 C802 1.376 . S
N801 C805 1.383 . S
C802 N801 1.376 . S
C802 C803 1.446 . S
C802 C832 1.391 . S
C803 C802 1.446 . S
C803 C804 1.339 . S
C803 H838 0.949 . S
C804 C803 1.339 . S
C804 C805 1.439 . S
C804 H839 0.950 . S
C805 N801 1.383 . S
C805 C804 1.439 . S
C805 C834 1.392 . S
N806 Co800 2.008 . S
N806 C807 1.376 . S
N806 C810 1.374 . S
C807 N806 1.376 . S
C807 C808 1.443 . S
C807 C834 1.389 . S
C808 C807 1.443 . S
C808 C809 1.340 . S
C808 H840 0.951 . S
C809 C808 1.340 . S
C809 C810 1.439 . S
C809 H841 0.950 . S
C810 N806 1.374 . S
C810 C809 1.439 . S
C810 C835 1.395 . S
N811 Co800 1.995 . S
N811 C812 1.376 . S
N811 C815 1.383 . S
C812 N811 1.376 . S
C812 C813 1.446 . S
C812 C835 1.391 . S
C813 C812 1.446 . S
C813 C814 1.339 . S
C813 H842 0.949 . S
C814 C813 1.339 . S
C814 C815 1.439 . S
C814 H843 0.950 . S
C815 N811 1.383 . S
C815 C814 1.439 . S
C815 C833 1.392 . S
N816 Co800 2.282 . S
N816 C819 1.332 . S
N816 C821 1.332 . S
C817 C818 1.386 . S
C817 C820 1.388 . S
C818 C817 1.386 . S
C818 C819 1.382 . S
C818 H844 0.950 . S
C819 N816 1.332 . S
C819 C818 1.382 . S
C819 H830 0.952 . S
C820 C817 1.388 . S
C820 C821 1.382 . S
C820 H845 0.950 . S
C821 N816 1.332 . S
C821 C820 1.382 . S
C821 H831 0.948 . S
N822 Co800 2.282 . S
N822 C826 1.332 . S
N822 C827 1.332 . S
C823 C824 1.388 . S
C823 C827 1.382 . S
C823 H846 0.950 . S
C824 C823 1.388 . S
C824 C825 1.386 . S
C825 C824 1.386 . S
C825 C826 1.382 . S
C825 H847 0.950 . S
C826 N822 1.332 . S
C826 C825 1.382 . S
C826 H828 0.952 . S
C827 N822 1.332 . S
C827 C823 1.382 . S
C827 H829 0.948 . S
H828 C826 0.952 . S
H829 C827 0.948 . S
H830 C819 0.952 . S
H831 C821 0.948 . S
C832 C798 1.395 . S
C832 C802 1.391 . S
C833 C795 1.389 . S
C833 C815 1.392 . S
C834 C805 1.392 . S
C834 C807 1.389 . S
C835 C810 1.395 . S
C835 C812 1.391 . S
H836 C796 0.951 . S
H837 C797 0.950 . S
H838 C803 0.949 . S
H839 C804 0.950 . S
H840 C808 0.951 . S
H841 C809 0.950 . S
H842 C813 0.949 . S
H843 C814 0.950 . S
H844 C818 0.950 . S
H845 C820 0.950 . S
H846 C823 0.950 . S
H847 C825 0.950 . S
H848 C854 0.930 . S
H849 C857 0.930 . S
H850 C858 0.930 . S
H851 C859 0.930 . S
H852 C862 0.930 . S
H853 C863 0.930 . S
C854 H848 0.930 . S
C854 C855 1.355 . S
C854 C856 1.415 . S
C855 C854 1.355 . S
C855 C857 1.419 . S
C856 C854 1.415 . S
C856 C861 1.425 1_455 S
C856 C863 1.409 1_455 S
C857 H849 0.930 . S
C857 C855 1.419 . S
C857 C858 1.362 . S
C858 H850 0.930 . S
C858 C857 1.362 . S
C858 C861 1.409 1_455 S
C859 H851 0.930 . S
C859 C860 1.355 . S
C859 C861 1.415 . S
C860 C859 1.355 . S
C860 C862 1.419 . S
C861 C856 1.425 1_655 S
C861 C858 1.409 1_655 S
C861 C859 1.415 . S
C862 H852 0.930 . S
C862 C860 1.419 . S
C862 C863 1.362 . S
C863 H853 0.930 . S
C863 C856 1.409 1_655 S
C863 C862 1.362 . S
H864 C870 0.930 . S
H865 C873 0.930 . S
H866 C874 0.930 . S
H867 C875 0.930 . S
H868 C878 0.930 . S
H869 C879 0.930 . S
C870 H864 0.930 . S
C870 C871 1.355 . S
C870 C872 1.415 . S
C871 C870 1.355 . S
C871 C873 1.419 . S
C872 C870 1.415 . S
C872 C877 1.425 1_565 S
C872 C879 1.409 1_565 S
C873 H865 0.930 . S
C873 C871 1.419 . S
C873 C874 1.362 . S
C874 H866 0.930 . S
C874 C873 1.362 . S
C874 C877 1.409 1_565 S
C875 H867 0.930 . S
C875 C876 1.355 . S
C875 C877 1.415 . S
C876 C875 1.355 . S
C876 C878 1.419 . S
C877 C872 1.425 1_545 S
C877 C874 1.409 1_545 S
C877 C875 1.415 . S
C878 H868 0.930 . S
C878 C876 1.419 . S
C878 C879 1.362 . S
C879 H869 0.930 . S
C879 C872 1.409 1_545 S
C879 C878 1.362 . S
H880 C886 0.930 . S
H881 C889 0.930 . S
H882 C890 0.930 . S
H883 C891 0.930 . S
H884 C894 0.930 . S
H885 C895 0.930 . S
C886 H880 0.930 . S
C886 C887 1.355 . S
C886 C888 1.415 . S
C887 C886 1.355 . S
C887 C889 1.419 . S
C888 C886 1.415 . S
C888 C893 1.425 1_455 S
C888 C895 1.409 1_455 S
C889 H881 0.930 . S
C889 C887 1.419 . S
C889 C890 1.362 . S
C890 H882 0.930 . S
C890 C889 1.362 . S
C890 C893 1.409 1_455 S
C891 H883 0.930 . S
C891 C892 1.355 . S
C891 C893 1.415 . S
C892 C891 1.355 . S
C892 C894 1.419 . S
C893 C888 1.425 1_655 S
C893 C890 1.409 1_655 S
C893 C891 1.415 . S
C894 H884 0.930 . S
C894 C892 1.419 . S
C894 C895 1.362 . S
C895 H885 0.930 . S
C895 C888 1.409 1_655 S
C895 C894 1.362 . S
H896 C902 0.930 . S
H897 C905 0.930 . S
H898 C906 0.930 . S
H899 C907 0.930 . S
H900 C910 0.930 . S
H901 C911 0.930 . S
C902 H896 0.930 . S
C902 C903 1.355 . S
C902 C904 1.415 . S
C903 C902 1.355 . S
C903 C905 1.419 . S
C904 C902 1.415 . S
C904 C909 1.425 1_565 S
C904 C911 1.409 1_565 S
C905 H897 0.930 . S
C905 C903 1.419 . S
C905 C906 1.362 . S
C906 H898 0.930 . S
C906 C905 1.362 . S
C906 C909 1.409 1_565 S
C907 H899 0.930 . S
C907 C908 1.355 . S
C907 C909 1.415 . S
C908 C907 1.355 . S
C908 C910 1.419 . S
C909 C904 1.425 1_545 S
C909 C906 1.409 1_545 S
C909 C907 1.415 . S
C910 H900 0.930 . S
C910 C908 1.419 . S
C910 C911 1.362 . S
C911 H901 0.930 . S
C911 C904 1.409 1_545 S
C911 C910 1.362 . S
H912 C918 0.930 . S
H913 C921 0.930 . S
H914 C922 0.930 . S
H915 C923 0.930 . S
H916 C926 0.930 . S
H917 C927 0.930 . S
C918 H912 0.930 . S
C918 C919 1.355 . S
C918 C920 1.415 . S
C919 C918 1.355 . S
C919 C921 1.419 . S
C920 C918 1.415 . S
C920 C925 1.425 1_655 S
C920 C927 1.409 1_655 S
C921 H913 0.930 . S
C921 C919 1.419 . S
C921 C922 1.362 . S
C922 H914 0.930 . S
C922 C921 1.362 . S
C922 C925 1.409 1_655 S
C923 H915 0.930 . S
C923 C924 1.355 . S
C923 C925 1.415 . S
C924 C923 1.355 . S
C924 C926 1.419 . S
C925 C920 1.425 1_455 S
C925 C922 1.409 1_455 S
C925 C923 1.415 . S
C926 H916 0.930 . S
C926 C924 1.419 . S
C926 C927 1.362 . S
C927 H917 0.930 . S
C927 C920 1.409 1_455 S
C927 C926 1.362 . S
H928 C934 0.930 . S
H929 C937 0.930 . S
H930 C938 0.930 . S
H931 C939 0.930 . S
H932 C942 0.930 . S
H933 C943 0.930 . S
C934 H928 0.930 . S
C934 C935 1.355 . S
C934 C936 1.415 . S
C935 C934 1.355 . S
C935 C937 1.419 . S
C936 C934 1.415 . S
C936 C941 1.425 1_545 S
C936 C943 1.409 1_545 S
C937 H929 0.930 . S
C937 C935 1.419 . S
C937 C938 1.362 . S
C938 H930 0.930 . S
C938 C937 1.362 . S
C938 C941 1.409 1_545 S
C939 H931 0.930 . S
C939 C940 1.355 . S
C939 C941 1.415 . S
C940 C939 1.355 . S
C940 C942 1.419 . S
C941 C936 1.425 1_565 S
C941 C938 1.409 1_565 S
C941 C939 1.415 . S
C942 H932 0.930 . S
C942 C940 1.419 . S
C942 C943 1.362 . S
C943 H933 0.930 . S
C943 C936 1.409 1_565 S
C943 C942 1.362 . S
H944 C950 0.930 . S
H945 C953 0.930 . S
H946 C954 0.930 . S
H947 C955 0.930 . S
H948 C958 0.930 . S
H949 C959 0.930 . S
C950 H944 0.930 . S
C950 C951 1.355 . S
C950 C952 1.415 . S
C951 C950 1.355 . S
C951 C953 1.419 . S
C952 C950 1.415 . S
C952 C957 1.425 1_655 S
C952 C959 1.409 1_655 S
C953 H945 0.930 . S
C953 C951 1.419 . S
C953 C954 1.362 . S
C954 H946 0.930 . S
C954 C953 1.362 . S
C954 C957 1.409 1_655 S
C955 H947 0.930 . S
C955 C956 1.355 . S
C955 C957 1.415 . S
C956 C955 1.355 . S
C956 C958 1.419 . S
C957 C952 1.425 1_455 S
C957 C954 1.409 1_455 S
C957 C955 1.415 . S
C958 H948 0.930 . S
C958 C956 1.419 . S
C958 C959 1.362 . S
C959 H949 0.930 . S
C959 C952 1.409 1_455 S
C959 C958 1.362 . S
H960 C966 0.930 . S
H961 C969 0.930 . S
H962 C970 0.930 . S
H963 C971 0.930 . S
H964 C974 0.930 . S
H965 C975 0.930 . S
C966 H960 0.930 . S
C966 C967 1.355 . S
C966 C968 1.415 . S
C967 C966 1.355 . S
C967 C969 1.419 . S
C968 C966 1.415 . S
C968 C973 1.425 1_545 S
C968 C975 1.409 1_545 S
C969 H961 0.930 . S
C969 C967 1.419 . S
C969 C970 1.362 . S
C970 H962 0.930 . S
C970 C969 1.362 . S
C970 C973 1.409 1_545 S
C971 H963 0.930 . S
C971 C972 1.355 . S
C971 C973 1.415 . S
C972 C971 1.355 . S
C972 C974 1.419 . S
C973 C968 1.425 1_565 S
C973 C970 1.409 1_565 S
C973 C971 1.415 . S
C974 H964 0.930 . S
C974 C972 1.419 . S
C974 C975 1.362 . S
C975 H965 0.930 . S
C975 C968 1.409 1_565 S
C975 C974 1.362 . S
H976 C982 0.930 . S
H977 C985 0.930 . S
H978 C986 0.930 . S
H979 C987 0.930 . S
H980 C990 0.930 . S
H981 C991 0.930 . S
C982 H976 0.930 . S
C982 C983 1.355 . S
C982 C984 1.415 . S
C983 C982 1.355 . S
C983 C985 1.419 . S
C984 C982 1.415 . S
C984 C989 1.425 . S
C984 C991 1.409 . S
C985 H977 0.930 . S
C985 C983 1.419 . S
C985 C986 1.362 . S
C986 H978 0.930 . S
C986 C985 1.362 . S
C986 C989 1.409 . S
C987 H979 0.930 . S
C987 C988 1.355 . S
C987 C989 1.415 . S
C988 C987 1.355 . S
C988 C990 1.419 . S
C989 C984 1.425 . S
C989 C986 1.409 . S
C989 C987 1.415 . S
C990 H980 0.930 . S
C990 C988 1.419 . S
C990 C991 1.362 . S
C991 H981 0.930 . S
C991 C984 1.409 . S
C991 C990 1.362 . S
H992 C998 0.930 . S
H993 C1001 0.930 . S
H994 C1002 0.930 . S
H995 C1003 0.930 . S
H996 C1006 0.930 . S
H997 C1007 0.930 . S
C998 H992 0.930 . S
C998 C999 1.355 . S
C998 C1000 1.415 . S
C999 C998 1.355 . S
C999 C1001 1.419 . S
C1000 C998 1.415 . S
C1000 C1005 1.425 . S
C1000 C1007 1.409 . S
C1001 H993 0.930 . S
C1001 C999 1.419 . S
C1001 C1002 1.362 . S
C1002 H994 0.930 . S
C1002 C1001 1.362 . S
C1002 C1005 1.409 . S
C1003 H995 0.930 . S
C1003 C1004 1.355 . S
C1003 C1005 1.415 . S
C1004 C1003 1.355 . S
C1004 C1006 1.419 . S
C1005 C1000 1.425 . S
C1005 C1002 1.409 . S
C1005 C1003 1.415 . S
C1006 H996 0.930 . S
C1006 C1004 1.419 . S
C1006 C1007 1.362 . S
C1007 H997 0.930 . S
C1007 C1000 1.409 . S
C1007 C1006 1.362 . S
H1008 C1014 0.930 . S
H1009 C1017 0.930 . S
H1010 C1018 0.930 . S
H1011 C1019 0.930 . S
H1012 C1022 0.930 . S
H1013 C1023 0.930 . S
C1014 H1008 0.930 . S
C1014 C1015 1.355 . S
C1014 C1016 1.415 . S
C1015 C1014 1.355 . S
C1015 C1017 1.419 . S
C1016 C1014 1.415 . S
C1016 C1021 1.425 . S
C1016 C1023 1.409 . S
C1017 H1009 0.930 . S
C1017 C1015 1.419 . S
C1017 C1018 1.362 . S
C1018 H1010 0.930 . S
C1018 C1017 1.362 . S
C1018 C1021 1.409 . S
C1019 H1011 0.930 . S
C1019 C1020 1.355 . S
C1019 C1021 1.415 . S
C1020 C1019 1.355 . S
C1020 C1022 1.419 . S
C1021 C1016 1.425 . S
C1021 C1018 1.409 . S
C1021 C1019 1.415 . S
C1022 H1012 0.930 . S
C1022 C1020 1.419 . S
C1022 C1023 1.362 . S
C1023 H1013 0.930 . S
C1023 C1016 1.409 . S
C1023 C1022 1.362 . S
H1024 C1030 0.930 . S
H1025 C1033 0.930 . S
H1026 C1034 0.930 . S
H1027 C1035 0.930 . S
H1028 C1038 0.930 . S
H1029 C1039 0.930 . S
C1030 H1024 0.930 . S
C1030 C1031 1.355 . S
C1030 C1032 1.415 . S
C1031 C1030 1.355 . S
C1031 C1033 1.419 . S
C1032 C1030 1.415 . S
C1032 C1037 1.425 . S
C1032 C1039 1.409 . S
C1033 H1025 0.930 . S
C1033 C1031 1.419 . S
C1033 C1034 1.362 . S
C1034 H1026 0.930 . S
C1034 C1033 1.362 . S
C1034 C1037 1.409 . S
C1035 H1027 0.930 . S
C1035 C1036 1.355 . S
C1035 C1037 1.415 . S
C1036 C1035 1.355 . S
C1036 C1038 1.419 . S
C1037 C1032 1.425 . S
C1037 C1034 1.409 . S
C1037 C1035 1.415 . S
C1038 H1028 0.930 . S
C1038 C1036 1.419 . S
C1038 C1039 1.362 . S
C1039 H1029 0.930 . S
C1039 C1032 1.409 . S
C1039 C1038 1.362 . S
H1040 C1046 0.930 . S
H1041 C1049 0.930 . S
H1042 C1050 0.930 . S
H1043 C1051 0.930 . S
H1044 C1054 0.930 . S
H1045 C1055 0.930 . S
C1046 H1040 0.930 . S
C1046 C1047 1.355 . S
C1046 C1048 1.415 . S
C1047 C1046 1.355 . S
C1047 C1049 1.419 . S
C1048 C1046 1.415 . S
C1048 C1053 1.425 . S
C1048 C1055 1.409 . S
C1049 H1041 0.930 . S
C1049 C1047 1.419 . S
C1049 C1050 1.362 . S
C1050 H1042 0.930 . S
C1050 C1049 1.362 . S
C1050 C1053 1.409 . S
C1051 H1043 0.930 . S
C1051 C1052 1.355 . S
C1051 C1053 1.415 . S
C1052 C1051 1.355 . S
C1052 C1054 1.419 . S
C1053 C1048 1.425 . S
C1053 C1050 1.409 . S
C1053 C1051 1.415 . S
C1054 H1044 0.930 . S
C1054 C1052 1.419 . S
C1054 C1055 1.362 . S
C1055 H1045 0.930 . S
C1055 C1048 1.409 . S
C1055 C1054 1.362 . S
H1056 C1062 0.930 . S
H1057 C1065 0.930 . S
H1058 C1066 0.930 . S
H1059 C1067 0.930 . S
H1060 C1070 0.930 . S
H1061 C1071 0.930 . S
C1062 H1056 0.930 . S
C1062 C1063 1.355 . S
C1062 C1064 1.415 . S
C1063 C1062 1.355 . S
C1063 C1065 1.419 . S
C1064 C1062 1.415 . S
C1064 C1069 1.425 . S
C1064 C1071 1.409 . S
C1065 H1057 0.930 . S
C1065 C1063 1.419 . S
C1065 C1066 1.362 . S
C1066 H1058 0.930 . S
C1066 C1065 1.362 . S
C1066 C1069 1.409 . S
C1067 H1059 0.930 . S
C1067 C1068 1.355 . S
C1067 C1069 1.415 . S
C1068 C1067 1.355 . S
C1068 C1070 1.419 . S
C1069 C1064 1.425 . S
C1069 C1066 1.409 . S
C1069 C1067 1.415 . S
C1070 H1060 0.930 . S
C1070 C1068 1.419 . S
C1070 C1071 1.362 . S
C1071 H1061 0.930 . S
C1071 C1064 1.409 . S
C1071 C1070 1.362 . S
H1072 C1078 0.930 . S
H1073 C1081 0.930 . S
H1074 C1082 0.930 . S
H1075 C1083 0.930 . S
H1076 C1086 0.930 . S
H1077 C1087 0.930 . S
C1078 H1072 0.930 . S
C1078 C1079 1.355 . S
C1078 C1080 1.415 . S
C1079 C1078 1.355 . S
C1079 C1081 1.419 . S
C1080 C1078 1.415 . S
C1080 C1085 1.425 . S
C1080 C1087 1.409 . S
C1081 H1073 0.930 . S
C1081 C1079 1.419 . S
C1081 C1082 1.362 . S
C1082 H1074 0.930 . S
C1082 C1081 1.362 . S
C1082 C1085 1.409 . S
C1083 H1075 0.930 . S
C1083 C1084 1.355 . S
C1083 C1085 1.415 . S
C1084 C1083 1.355 . S
C1084 C1086 1.419 . S
C1085 C1080 1.425 . S
C1085 C1082 1.409 . S
C1085 C1083 1.415 . S
C1086 H1076 0.930 . S
C1086 C1084 1.419 . S
C1086 C1087 1.362 . S
C1087 H1077 0.930 . S
C1087 C1080 1.409 . S
C1087 C1086 1.362 . S
H1088 C1094 0.930 . S
H1089 C1097 0.930 . S
H1090 C1098 0.930 . S
H1091 C1099 0.930 . S
H1092 C1102 0.930 . S
H1093 C1103 0.930 . S
C1094 H1088 0.930 . S
C1094 C1095 1.355 . S
C1094 C1096 1.415 . S
C1095 C1094 1.355 . S
C1095 C1097 1.419 . S
C1096 C1094 1.415 . S
C1096 C1101 1.425 . S
C1096 C1103 1.409 . S
C1097 H1089 0.930 . S
C1097 C1095 1.419 . S
C1097 C1098 1.362 . S
C1098 H1090 0.930 . S
C1098 C1097 1.362 . S
C1098 C1101 1.409 . S
C1099 H1091 0.930 . S
C1099 C1100 1.355 . S
C1099 C1101 1.415 . S
C1100 C1099 1.355 . S
C1100 C1102 1.419 . S
C1101 C1096 1.425 . S
C1101 C1098 1.409 . S
C1101 C1099 1.415 . S
C1102 H1092 0.930 . S
C1102 C1100 1.419 . S
C1102 C1103 1.362 . S
C1103 H1093 0.930 . S
C1103 C1096 1.409 . S
C1103 C1102 1.362 . S
H1104 C1110 0.930 . S
H1105 C1113 0.930 . S
H1106 C1114 0.930 . S
H1107 C1115 0.930 . S
H1108 C1118 0.930 . S
H1109 C1119 0.930 . S
C1110 H1104 0.930 . S
C1110 C1111 1.355 . S
C1110 C1112 1.415 . S
C1111 C1110 1.355 . S
C1111 C1113 1.419 . S
C1112 C1110 1.415 . S
C1112 C1117 1.425 1_556 S
C1112 C1119 1.409 1_556 S
C1113 H1105 0.930 . S
C1113 C1111 1.419 . S
C1113 C1114 1.362 . S
C1114 H1106 0.930 . S
C1114 C1113 1.362 . S
C1114 C1117 1.409 1_556 S
C1115 H1107 0.930 . S
C1115 C1116 1.355 . S
C1115 C1117 1.415 . S
C1116 C1115 1.355 . S
C1116 C1118 1.419 . S
C1117 C1112 1.425 1_554 S
C1117 C1114 1.409 1_554 S
C1117 C1115 1.415 . S
C1118 H1108 0.930 . S
C1118 C1116 1.419 . S
C1118 C1119 1.362 . S
C1119 H1109 0.930 . S
C1119 C1112 1.409 1_554 S
C1119 C1118 1.362 . S
H1120 C1126 0.930 . S
H1121 C1129 0.930 . S
H1122 C1130 0.930 . S
H1123 C1131 0.930 . S
H1124 C1134 0.930 . S
H1125 C1135 0.930 . S
C1126 H1120 0.930 . S
C1126 C1127 1.355 . S
C1126 C1128 1.415 . S
C1127 C1126 1.355 . S
C1127 C1129 1.419 . S
C1128 C1126 1.415 . S
C1128 C1133 1.425 . S
C1128 C1135 1.409 . S
C1129 H1121 0.930 . S
C1129 C1127 1.419 . S
C1129 C1130 1.362 . S
C1130 H1122 0.930 . S
C1130 C1129 1.362 . S
C1130 C1133 1.409 . S
C1131 H1123 0.930 . S
C1131 C1132 1.355 . S
C1131 C1133 1.415 . S
C1132 C1131 1.355 . S
C1132 C1134 1.419 . S
C1133 C1128 1.425 . S
C1133 C1130 1.409 . S
C1133 C1131 1.415 . S
C1134 H1124 0.930 . S
C1134 C1132 1.419 . S
C1134 C1135 1.362 . S
C1135 H1125 0.930 . S
C1135 C1128 1.409 . S
C1135 C1134 1.362 . S
H1136 C1142 0.930 . S
H1137 C1145 0.930 . S
H1138 C1146 0.930 . S
H1139 C1147 0.930 . S
H1140 C1150 0.930 . S
H1141 C1151 0.930 . S
C1142 H1136 0.930 . S
C1142 C1143 1.355 . S
C1142 C1144 1.415 . S
C1143 C1142 1.355 . S
C1143 C1145 1.419 . S
C1144 C1142 1.415 . S
C1144 C1149 1.425 1_554 S
C1144 C1151 1.409 1_554 S
C1145 H1137 0.930 . S
C1145 C1143 1.419 . S
C1145 C1146 1.362 . S
C1146 H1138 0.930 . S
C1146 C1145 1.362 . S
C1146 C1149 1.409 1_554 S
C1147 H1139 0.930 . S
C1147 C1148 1.355 . S
C1147 C1149 1.415 . S
C1148 C1147 1.355 . S
C1148 C1150 1.419 . S
C1149 C1144 1.425 1_556 S
C1149 C1146 1.409 1_556 S
C1149 C1147 1.415 . S
C1150 H1140 0.930 . S
C1150 C1148 1.419 . S
C1150 C1151 1.362 . S
C1151 H1141 0.930 . S
C1151 C1144 1.409 1_556 S
C1151 C1150 1.362 . S
H1152 C1158 0.930 . S
H1153 C1161 0.930 . S
H1154 C1162 0.930 . S
H1155 C1163 0.930 . S
H1156 C1166 0.930 . S
H1157 C1167 0.930 . S
C1158 H1152 0.930 . S
C1158 C1159 1.355 . S
C1158 C1160 1.415 . S
C1159 C1158 1.355 . S
C1159 C1161 1.419 . S
C1160 C1158 1.415 . S
C1160 C1165 1.425 . S
C1160 C1167 1.409 . S
C1161 H1153 0.930 . S
C1161 C1159 1.419 . S
C1161 C1162 1.362 . S
C1162 H1154 0.930 . S
C1162 C1161 1.362 . S
C1162 C1165 1.409 . S
C1163 H1155 0.930 . S
C1163 C1164 1.355 . S
C1163 C1165 1.415 . S
C1164 C1163 1.355 . S
C1164 C1166 1.419 . S
C1165 C1160 1.425 . S
C1165 C1162 1.409 . S
C1165 C1163 1.415 . S
C1166 H1156 0.930 . S
C1166 C1164 1.419 . S
C1166 C1167 1.362 . S
C1167 H1157 0.930 . S
C1167 C1160 1.409 . S
C1167 C1166 1.362 . S
H1168 C1174 0.930 . S
H1169 C1177 0.930 . S
H1170 C1178 0.930 . S
H1171 C1179 0.930 . S
H1172 C1182 0.930 . S
H1173 C1183 0.930 . S
C1174 H1168 0.930 . S
C1174 C1175 1.355 . S
C1174 C1176 1.415 . S
C1175 C1174 1.355 . S
C1175 C1177 1.419 . S
C1176 C1174 1.415 . S
C1176 C1181 1.425 . S
C1176 C1183 1.409 . S
C1177 H1169 0.930 . S
C1177 C1175 1.419 . S
C1177 C1178 1.362 . S
C1178 H1170 0.930 . S
C1178 C1177 1.362 . S
C1178 C1181 1.409 . S
C1179 H1171 0.930 . S
C1179 C1180 1.355 . S
C1179 C1181 1.415 . S
C1180 C1179 1.355 . S
C1180 C1182 1.419 . S
C1181 C1176 1.425 . S
C1181 C1178 1.409 . S
C1181 C1179 1.415 . S
C1182 H1172 0.930 . S
C1182 C1180 1.419 . S
C1182 C1183 1.362 . S
C1183 H1173 0.930 . S
C1183 C1176 1.409 . S
C1183 C1182 1.362 . S
H1184 C1190 0.930 . S
H1185 C1193 0.930 . S
H1186 C1194 0.930 . S
H1187 C1195 0.930 . S
H1188 C1198 0.930 . S
H1189 C1199 0.930 . S
C1190 H1184 0.930 . S
C1190 C1191 1.355 . S
C1190 C1192 1.415 . S
C1191 C1190 1.355 . S
C1191 C1193 1.419 . S
C1192 C1190 1.415 . S
C1192 C1197 1.425 1_556 S
C1192 C1199 1.409 1_556 S
C1193 H1185 0.930 . S
C1193 C1191 1.419 . S
C1193 C1194 1.362 . S
C1194 H1186 0.930 . S
C1194 C1193 1.362 . S
C1194 C1197 1.409 1_556 S
C1195 H1187 0.930 . S
C1195 C1196 1.355 . S
C1195 C1197 1.415 . S
C1196 C1195 1.355 . S
C1196 C1198 1.419 . S
C1197 C1192 1.425 1_554 S
C1197 C1194 1.409 1_554 S
C1197 C1195 1.415 . S
C1198 H1188 0.930 . S
C1198 C1196 1.419 . S
C1198 C1199 1.362 . S
C1199 H1189 0.930 . S
C1199 C1192 1.409 1_554 S
C1199 C1198 1.362 . S
H1200 C1206 0.930 . S
H1201 C1209 0.930 . S
H1202 C1210 0.930 . S
H1203 C1211 0.930 . S
H1204 C1214 0.930 . S
H1205 C1215 0.930 . S
C1206 H1200 0.930 . S
C1206 C1207 1.355 . S
C1206 C1208 1.415 . S
C1207 C1206 1.355 . S
C1207 C1209 1.419 . S
C1208 C1206 1.415 . S
C1208 C1213 1.425 . S
C1208 C1215 1.409 . S
C1209 H1201 0.930 . S
C1209 C1207 1.419 . S
C1209 C1210 1.362 . S
C1210 H1202 0.930 . S
C1210 C1209 1.362 . S
C1210 C1213 1.409 . S
C1211 H1203 0.930 . S
C1211 C1212 1.355 . S
C1211 C1213 1.415 . S
C1212 C1211 1.355 . S
C1212 C1214 1.419 . S
C1213 C1208 1.425 . S
C1213 C1210 1.409 . S
C1213 C1211 1.415 . S
C1214 H1204 0.930 . S
C1214 C1212 1.419 . S
C1214 C1215 1.362 . S
C1215 H1205 0.930 . S
C1215 C1208 1.409 . S
C1215 C1214 1.362 . S
H1216 C1222 0.930 . S
H1217 C1225 0.930 . S
H1218 C1226 0.930 . S
H1219 C1227 0.930 . S
H1220 C1230 0.930 . S
H1221 C1231 0.930 . S
C1222 H1216 0.930 . S
C1222 C1223 1.355 . S
C1222 C1224 1.415 . S
C1223 C1222 1.355 . S
C1223 C1225 1.419 . S
C1224 C1222 1.415 . S
C1224 C1229 1.425 1_554 S
C1224 C1231 1.409 1_554 S
C1225 H1217 0.930 . S
C1225 C1223 1.419 . S
C1225 C1226 1.362 . S
C1226 H1218 0.930 . S
C1226 C1225 1.362 . S
C1226 C1229 1.409 1_554 S
C1227 H1219 0.930 . S
C1227 C1228 1.355 . S
C1227 C1229 1.415 . S
C1228 C1227 1.355 . S
C1228 C1230 1.419 . S
C1229 C1224 1.425 1_556 S
C1229 C1226 1.409 1_556 S
C1229 C1227 1.415 . S
C1230 H1220 0.930 . S
C1230 C1228 1.419 . S
C1230 C1231 1.362 . S
C1231 H1221 0.930 . S
C1231 C1224 1.409 1_556 S
C1231 C1230 1.362 . S
H1232 C1238 0.930 . S
H1233 C1241 0.930 . S
H1234 C1242 0.930 . S
H1235 C1243 0.930 . S
H1236 C1246 0.930 . S
H1237 C1247 0.930 . S
C1238 H1232 0.930 . S
C1238 C1239 1.355 . S
C1238 C1240 1.415 . S
C1239 C1238 1.355 . S
C1239 C1241 1.419 . S
C1240 C1238 1.415 . S
C1240 C1245 1.425 . S
C1240 C1247 1.409 . S
C1241 H1233 0.930 . S
C1241 C1239 1.419 . S
C1241 C1242 1.362 . S
C1242 H1234 0.930 . S
C1242 C1241 1.362 . S
C1242 C1245 1.409 . S
C1243 H1235 0.930 . S
C1243 C1244 1.355 . S
C1243 C1245 1.415 . S
C1244 C1243 1.355 . S
C1244 C1246 1.419 . S
C1245 C1240 1.425 . S
C1245 C1242 1.409 . S
C1245 C1243 1.415 . S
C1246 H1236 0.930 . S
C1246 C1244 1.419 . S
C1246 C1247 1.362 . S
C1247 H1237 0.930 . S
C1247 C1240 1.409 . S
C1247 C1246 1.362 . S
H1248 C1254 0.930 . S
H1249 C1257 0.930 . S
H1250 C1258 0.930 . S
H1251 C1259 0.930 . S
H1252 C1262 0.930 . S
H1253 C1263 0.930 . S
C1254 H1248 0.930 . S
C1254 C1255 1.355 . S
C1254 C1256 1.415 . S
C1255 C1254 1.355 . S
C1255 C1257 1.419 . S
C1256 C1254 1.415 . S
C1256 C1261 1.425 . S
C1256 C1263 1.409 . S
C1257 H1249 0.930 . S
C1257 C1255 1.419 . S
C1257 C1258 1.362 . S
C1258 H1250 0.930 . S
C1258 C1257 1.362 . S
C1258 C1261 1.409 . S
C1259 H1251 0.930 . S
C1259 C1260 1.355 . S
C1259 C1261 1.415 . S
C1260 C1259 1.355 . S
C1260 C1262 1.419 . S
C1261 C1256 1.425 . S
C1261 C1258 1.409 . S
C1261 C1259 1.415 . S
C1262 H1252 0.930 . S
C1262 C1260 1.419 . S
C1262 C1263 1.362 . S
C1263 H1253 0.930 . S
C1263 C1256 1.409 . S
C1263 C1262 1.362 . S
H1264 C1270 0.930 . S
H1265 C1273 0.930 . S
H1266 C1274 0.930 . S
H1267 C1275 0.930 . S
H1268 C1278 0.930 . S
H1269 C1279 0.930 . S
C1270 H1264 0.930 . S
C1270 C1271 1.355 . S
C1270 C1272 1.415 . S
C1271 C1270 1.355 . S
C1271 C1273 1.419 . S
C1272 C1270 1.415 . S
C1272 C1277 1.425 . S
C1272 C1279 1.409 . S
C1273 H1265 0.930 . S
C1273 C1271 1.419 . S
C1273 C1274 1.362 . S
C1274 H1266 0.930 . S
C1274 C1273 1.362 . S
C1274 C1277 1.409 . S
C1275 H1267 0.930 . S
C1275 C1276 1.355 . S
C1275 C1277 1.415 . S
C1276 C1275 1.355 . S
C1276 C1278 1.419 . S
C1277 C1272 1.425 . S
C1277 C1274 1.409 . S
C1277 C1275 1.415 . S
C1278 H1268 0.930 . S
C1278 C1276 1.419 . S
C1278 C1279 1.362 . S
C1279 H1269 0.930 . S
C1279 C1272 1.409 . S
C1279 C1278 1.362 . S
H1280 C1286 0.930 . S
H1281 C1289 0.930 . S
H1282 C1290 0.930 . S
H1283 C1291 0.930 . S
H1284 C1294 0.930 . S
H1285 C1295 0.930 . S
C1286 H1280 0.930 . S
C1286 C1287 1.355 . S
C1286 C1288 1.415 . S
C1287 C1286 1.355 . S
C1287 C1289 1.419 . S
C1288 C1286 1.415 . S
C1288 C1293 1.425 . S
C1288 C1295 1.409 . S
C1289 H1281 0.930 . S
C1289 C1287 1.419 . S
C1289 C1290 1.362 . S
C1290 H1282 0.930 . S
C1290 C1289 1.362 . S
C1290 C1293 1.409 . S
C1291 H1283 0.930 . S
C1291 C1292 1.355 . S
C1291 C1293 1.415 . S
C1292 C1291 1.355 . S
C1292 C1294 1.419 . S
C1293 C1288 1.425 . S
C1293 C1290 1.409 . S
C1293 C1291 1.415 . S
C1294 H1284 0.930 . S
C1294 C1292 1.419 . S
C1294 C1295 1.362 . S
C1295 H1285 0.930 . S
C1295 C1288 1.409 . S
C1295 C1294 1.362 . S
H1296 C1302 0.930 . S
H1297 C1305 0.930 . S
H1298 C1306 0.930 . S
H1299 C1307 0.930 . S
H1300 C1310 0.930 . S
H1301 C1311 0.930 . S
C1302 H1296 0.930 . S
C1302 C1303 1.355 . S
C1302 C1304 1.415 . S
C1303 C1302 1.355 . S
C1303 C1305 1.419 . S
C1304 C1302 1.415 . S
C1304 C1309 1.425 . S
C1304 C1311 1.409 . S
C1305 H1297 0.930 . S
C1305 C1303 1.419 . S
C1305 C1306 1.362 . S
C1306 H1298 0.930 . S
C1306 C1305 1.362 . S
C1306 C1309 1.409 . S
C1307 H1299 0.930 . S
C1307 C1308 1.355 . S
C1307 C1309 1.415 . S
C1308 C1307 1.355 . S
C1308 C1310 1.419 . S
C1309 C1304 1.425 . S
C1309 C1306 1.409 . S
C1309 C1307 1.415 . S
C1310 H1300 0.930 . S
C1310 C1308 1.419 . S
C1310 C1311 1.362 . S
C1311 H1301 0.930 . S
C1311 C1304 1.409 . S
C1311 C1310 1.362 . S
H1312 C1318 0.930 . S
H1313 C1321 0.930 . S
H1314 C1322 0.930 . S
H1315 C1323 0.930 . S
H1316 C1326 0.930 . S
H1317 C1327 0.930 . S
C1318 H1312 0.930 . S
C1318 C1319 1.355 . S
C1318 C1320 1.415 . S
C1319 C1318 1.355 . S
C1319 C1321 1.419 . S
C1320 C1318 1.415 . S
C1320 C1325 1.425 . S
C1320 C1327 1.409 . S
C1321 H1313 0.930 . S
C1321 C1319 1.419 . S
C1321 C1322 1.362 . S
C1322 H1314 0.930 . S
C1322 C1321 1.362 . S
C1322 C1325 1.409 . S
C1323 H1315 0.930 . S
C1323 C1324 1.355 . S
C1323 C1325 1.415 . S
C1324 C1323 1.355 . S
C1324 C1326 1.419 . S
C1325 C1320 1.425 . S
C1325 C1322 1.409 . S
C1325 C1323 1.415 . S
C1326 H1316 0.930 . S
C1326 C1324 1.419 . S
C1326 C1327 1.362 . S
C1327 H1317 0.930 . S
C1327 C1320 1.409 . S
C1327 C1326 1.362 . S
H1328 C1334 0.930 . S
H1329 C1337 0.930 . S
H1330 C1338 0.930 . S
H1331 C1339 0.930 . S
H1332 C1342 0.930 . S
H1333 C1343 0.930 . S
C1334 H1328 0.930 . S
C1334 C1335 1.355 . S
C1334 C1336 1.415 . S
C1335 C1334 1.355 . S
C1335 C1337 1.419 . S
C1336 C1334 1.415 . S
C1336 C1341 1.425 . S
C1336 C1343 1.409 . S
C1337 H1329 0.930 . S
C1337 C1335 1.419 . S
C1337 C1338 1.362 . S
C1338 H1330 0.930 . S
C1338 C1337 1.362 . S
C1338 C1341 1.409 . S
C1339 H1331 0.930 . S
C1339 C1340 1.355 . S
C1339 C1341 1.415 . S
C1340 C1339 1.355 . S
C1340 C1342 1.419 . S
C1341 C1336 1.425 . S
C1341 C1338 1.409 . S
C1341 C1339 1.415 . S
C1342 H1332 0.930 . S
C1342 C1340 1.419 . S
C1342 C1343 1.362 . S
C1343 H1333 0.930 . S
C1343 C1336 1.409 . S
C1343 C1342 1.362 . S
H1344 C1350 0.930 . S
H1345 C1353 0.930 . S
H1346 C1354 0.930 . S
H1347 C1355 0.930 . S
H1348 C1358 0.930 . S
H1349 C1359 0.930 . S
C1350 H1344 0.930 . S
C1350 C1351 1.355 . S
C1350 C1352 1.415 . S
C1351 C1350 1.355 . S
C1351 C1353 1.419 . S
C1352 C1350 1.415 . S
C1352 C1357 1.425 . S
C1352 C1359 1.409 . S
C1353 H1345 0.930 . S
C1353 C1351 1.419 . S
C1353 C1354 1.362 . S
C1354 H1346 0.930 . S
C1354 C1353 1.362 . S
C1354 C1357 1.409 . S
C1355 H1347 0.930 . S
C1355 C1356 1.355 . S
C1355 C1357 1.415 . S
C1356 C1355 1.355 . S
C1356 C1358 1.419 . S
C1357 C1352 1.425 . S
C1357 C1354 1.409 . S
C1357 C1355 1.415 . S
C1358 H1348 0.930 . S
C1358 C1356 1.419 . S
C1358 C1359 1.362 . S
C1359 H1349 0.930 . S
C1359 C1352 1.409 . S
C1359 C1358 1.362 . S
C855 C29 1.819 . S
C860 C135 1.810 . S
C871 C188 1.820 . S
C876 C82 1.820 . S
C887 C241 1.819 . S
C892 C347 1.821 . S
C903 C400 1.815 . S
C908 C294 1.821 . S
C919 C453 1.812 . S
C924 C559 1.804 . S
C935 C612 1.815 . S
C940 C506 1.813 . S
C951 C665 1.815 . S
C956 C771 1.813 . S
C967 C824 1.805 . S
C972 C718 1.794 . S
C983 C250 1.879 . S
C988 C38 1.889 . S
C999 C91 1.894 . S
C1004 C303 1.885 . S
C1015 C144 1.889 . S
C1020 C356 1.878 . S
C1031 C409 1.855 . S
C1036 C197 1.859 . S
C1047 C462 1.893 . S
C1052 C674 1.884 . S
C1063 C515 1.853 . S
C1068 C727 1.845 . S
C1079 C568 1.859 . S
C1084 C780 1.849 . S
C1095 C621 1.845 . S
C1100 C833 1.851 . S
C1111 C569 1.831 . S
C1116 C39 1.789 . S
C1127 C622 1.825 . S
C1132 C92 1.797 . S
C1143 C145 1.792 . S
C1148 C463 1.827 . S
C1159 C198 1.826 . S
C1164 C516 1.796 . S
C1175 C251 1.802 . S
C1180 C781 1.821 . S
C1191 C304 1.820 . S
C1196 C834 1.801 . S
C1207 C357 1.801 . S
C1212 C675 1.822 . S
C1223 C728 1.808 . S
C1228 C410 1.816 . S
C1239 C22 1.658 . S
C1244 C817 1.640 . S
C1255 C658 1.661 . S
C1260 C75 1.633 . S
C1271 C128 1.656 . S
C1276 C711 1.642 . S
C1287 C764 1.638 . S
C1292 C181 1.659 . S
C1303 C499 1.659 . S
C1308 C234 1.635 . S
C1319 C287 1.655 . S
C1324 C552 1.643 . S
C1335 C605 1.638 . S
C1340 C340 1.660 . S
C1351 C446 1.638 . S
C1356 C393 1.659 . S
