# Generated by pormake.
# Topology ung, (4)-cn, num edge types: 1
# Building blocks:
#     Node 0, Type 0, BuildingBlock: CEKHIL_clean_sbu_0, # of connection points: 4
#     Node 1, Type 0, BuildingBlock: CEKHIL_clean_sbu_0, # of connection points: 4
#     Node 2, Type 0, BuildingBlock: CEKHIL_clean_sbu_0, # of connection points: 4
#     Node 3, Type 0, BuildingBlock: CEKHIL_clean_sbu_0, # of connection points: 4
#     Node 4, Type 0, BuildingBlock: CEKHIL_clean_sbu_0, # of connection points: 4
#     Node 5, Type 0, BuildingBlock: CEKHIL_clean_sbu_0, # of connection points: 4
#     Node 6, Type 0, BuildingBlock: CEKHIL_clean_sbu_0, # of connection points: 4
#     Node 7, Type 0, BuildingBlock: CEKHIL_clean_sbu_0, # of connection points: 4
#     Node 8, Type 0, BuildingBlock: CEKHIL_clean_sbu_0, # of connection points: 4
#     Node 9, Type 0, BuildingBlock: CEKHIL_clean_sbu_0, # of connection points: 4
#     Node 10, Type 0, BuildingBlock: CEKHIL_clean_sbu_0, # of connection points: 4
#     Node 11, Type 0, BuildingBlock: CEKHIL_clean_sbu_0, # of connection points: 4
#     Node 12, Type 0, BuildingBlock: CEKHIL_clean_sbu_0, # of connection points: 4
#     Node 13, Type 0, BuildingBlock: CEKHIL_clean_sbu_0, # of connection points: 4
#     Node 14, Type 0, BuildingBlock: CEKHIL_clean_sbu_0, # of connection points: 4
#     Node 15, Type 0, BuildingBlock: CEKHIL_clean_sbu_0, # of connection points: 4
#     Node 16, Type 0, BuildingBlock: CEKHIL_clean_sbu_0, # of connection points: 4
#     Node 17, Type 0, BuildingBlock: CEKHIL_clean_sbu_0, # of connection points: 4
#     Edge 18, Type (0, 0), None
#     Edge 19, Type (0, 0), None
#     Edge 20, Type (0, 0), None
#     Edge 21, Type (0, 0), None
#     Edge 22, Type (0, 0), None
#     Edge 23, Type (0, 0), None
#     Edge 24, Type (0, 0), None
#     Edge 25, Type (0, 0), None
#     Edge 26, Type (0, 0), None
#     Edge 27, Type (0, 0), None
#     Edge 28, Type (0, 0), None
#     Edge 29, Type (0, 0), None
#     Edge 30, Type (0, 0), None
#     Edge 31, Type (0, 0), None
#     Edge 32, Type (0, 0), None
#     Edge 33, Type (0, 0), None
#     Edge 34, Type (0, 0), None
#     Edge 35, Type (0, 0), None
#     Edge 36, Type (0, 0), None
#     Edge 37, Type (0, 0), None
#     Edge 38, Type (0, 0), None
#     Edge 39, Type (0, 0), None
#     Edge 40, Type (0, 0), None
#     Edge 41, Type (0, 0), None
#     Edge 42, Type (0, 0), None
#     Edge 43, Type (0, 0), None
#     Edge 44, Type (0, 0), None
#     Edge 45, Type (0, 0), None
#     Edge 46, Type (0, 0), None
#     Edge 47, Type (0, 0), None
#     Edge 48, Type (0, 0), None
#     Edge 49, Type (0, 0), None
#     Edge 50, Type (0, 0), None
#     Edge 51, Type (0, 0), None
#     Edge 52, Type (0, 0), None
#     Edge 53, Type (0, 0), None
# Relax obj value: 0.073
# Max RMSD: 0.196
# Mean RMSD: 0.185
data_MOF--net-ung--node1-CEKHIL_clean_sbu_0--edge1-none
_symmetry_space_group_name_H-M    P1
_symmetry_Int_Tables_number       1
_symmetry_cell_setting            triclinic
loop_
_symmetry_equiv_pos_as_xyz
'x, y, z'
_cell_length_a     32.045278
_cell_length_b     32.913324
_cell_length_c     9.7562509
_cell_angle_alpha  92.466663
_cell_angle_beta   92.008525
_cell_angle_gamma 119.74002
loop_
_atom_site_label
_atom_site_type_symbol
_atom_site_fract_x
_atom_site_fract_y
_atom_site_fract_z
_atom_type_partial_charge
Co0 Co 0.06037 0.58545 0.28632 0.0
O1 O 0.09369 0.5625 0.39291 0.0
O2 O 0.01414 0.53308 0.37987 0.0
C3 C 0.11063 0.65963 0.36839 0.0
O4 O 0.0175 0.60532 0.17578 0.0
Co5 Co 0.11302 0.63859 0.05718 0.0
O6 O 0.05324 0.63451 0.9815 0.0
C7 C 0.06098 0.53785 0.01139 0.0
C8 C 0.05201 0.53164 0.42763 0.0
C9 C 0.0173 0.62032 0.05443 0.0
O10 O 0.04959 0.53818 0.13417 0.0
O11 O 0.0895 0.57555 0.95647 0.0
O12 O 0.07315 0.63232 0.43077 0.0
O13 O 0.11986 0.64123 0.25977 0.0
Co14 Co 0.50193 0.46073 0.1918 0.0
O15 O 0.55806 0.48143 0.08973 0.0
O16 O 0.51205 0.51439 0.09586 0.0
C17 C 0.47203 0.38623 0.11388 0.0
O18 O 0.44054 0.4446 0.2992 0.0
Co19 Co 0.49826 0.40456 0.42606 0.0
O20 O 0.44617 0.4134 0.4955 0.0
C21 C 0.55137 0.50573 0.47149 0.0
C22 C 0.55019 0.51413 0.05312 0.0
C23 C 0.42628 0.43043 0.42104 0.0
O24 O 0.54193 0.50624 0.34504 0.0
O25 O 0.53904 0.46771 0.52966 0.0
O26 O 0.46382 0.4145 0.04634 0.0
O27 O 0.5012 0.40387 0.22467 0.0
Co28 Co 0.62979 0.01628 0.29425 0.0
O29 O 0.56729 0.9838 0.37044 0.0
O30 O 0.61824 0.05935 0.40772 0.0
C31 C 0.65085 0.96558 0.40703 0.0
O32 O 0.69706 0.05587 0.22541 0.0
Co33 Co 0.6146 0.97606 0.11626 0.0
O34 O 0.67389 0.01856 0.02219 0.0
C35 C 0.57162 0.01783 0.04022 0.0
C36 C 0.57751 0.02304 0.43278 0.0
C37 C 0.70671 0.05102 0.10061 0.0
O38 O 0.6023 0.03967 0.14095 0.0
O39 O 0.56239 0.97692 1.00617 0.0
O40 O 0.65695 0.00392 0.45776 0.0
O41 O 0.63482 0.95476 0.2797 0.0
Co42 Co 0.04349 0.44505 0.66102 0.0
O43 O 0.00769 0.46463 0.54964 0.0
O44 O 0.0878 0.49732 0.56619 0.0
C45 C -0.00236 0.36939 0.59041 0.0
O46 O 0.08922 0.43018 0.77572 0.0
Co47 Co 0.99048 0.39002 0.89695 0.0
O48 O 0.05241 0.39736 0.96679 0.0
C49 C 0.04037 0.49204 0.93362 0.0
C50 C 0.04911 0.49671 0.51594 0.0
C51 C 0.08925 0.41509 0.89674 0.0
O52 O 0.0515 0.49201 0.8103 0.0
O53 O 0.01326 0.45419 0.99061 0.0
O54 O 0.03288 0.39735 0.52112 0.0
O55 O 0.98755 0.38847 0.6952 0.0
Co56 Co 0.62866 0.60231 0.82298 0.0
O57 O 0.57286 0.57966 0.92538 0.0
O58 O 0.62252 0.55093 0.9267 0.0
C59 C 0.65493 0.67703 0.89581 0.0
O60 O 0.69103 0.62335 0.71862 0.0
Co61 Co 0.62419 0.65116 0.58922 0.0
O62 O 0.67621 0.64371 0.51418 0.0
C63 C 0.57641 0.55139 0.54893 0.0
C64 C 0.58328 0.54932 0.96764 0.0
C65 C 0.70291 0.636 0.59469 0.0
O66 O 0.58976 0.55299 0.67349 0.0
O67 O 0.5844 0.58814 0.49013 0.0
O68 O 0.66562 0.65051 0.96354 0.0
O69 O 0.62378 0.65727 0.79014 0.0
Co70 Co 0.49707 0.03286 0.68021 0.0
O71 O 0.5549 0.06579 0.5854 0.0
O72 O 0.50716 0.98865 0.56838 0.0
C73 C 0.46635 0.07863 0.61714 0.0
O74 O 0.43344 -0.00874 0.7732 0.0
Co75 Co 0.49667 0.08961 0.93005 0.0
O76 O 0.44159 0.02965 0.97838 0.0
C77 C 0.54914 0.04019 0.9616 0.0
C78 C 0.54543 0.02562 0.53089 0.0
C79 C 0.41885 -0.00631 0.89486 0.0
O80 O 0.53369 0.02404 0.83761 0.0
O81 O 0.54235 0.0717 0.02004 0.0
O82 O 0.46205 0.04455 0.53699 0.0
O83 O 0.4947 0.0883 0.72825 0.0
Co84 Co 0.69166 0.89492 0.60183 0.0
O85 O 0.64263 0.83489 0.52254 0.0
O86 O 0.72127 0.86028 0.53878 0.0
C87 C 0.66608 0.93764 0.487 0.0
O88 O 0.75166 0.95523 0.67686 0.0
Co89 Co 0.66359 0.94532 0.80058 0.0
O90 O 0.73211 0.97938 0.86837 0.0
C91 C 0.68145 0.87568 0.90659 0.0
C92 C 0.67776 0.82739 0.49878 0.0
C93 C 0.7636 0.98079 0.79086 0.0
O94 O 0.68787 0.86782 0.78264 0.0
O95 O 0.66795 0.90481 0.942 0.0
O96 O 0.6928 0.92328 0.43187 0.0
O97 O 0.64979 0.9214 0.60572 0.0
Co98 Co 0.16423 0.78342 0.49656 0.0
O99 O 0.22151 0.80654 0.40077 0.0
O100 O 0.1719 0.83572 0.39898 0.0
C101 C 0.13693 0.70909 0.4157 0.0
O102 O 0.10052 0.76282 0.59362 0.0
Co103 Co 0.16498 0.73271 0.72933 0.0
O104 O 0.11203 0.74019 0.79808 0.0
C105 C 0.21472 0.83223 0.77815 0.0
C106 C 0.21122 0.83719 0.35961 0.0
C107 C 0.08723 0.75001 0.7165 0.0
O108 O 0.2016 0.83101 0.65319 0.0
O109 O 0.20617 0.79496 0.83498 0.0
O110 O 0.12879 0.7373 0.34848 0.0
O111 O 0.16593 0.72678 0.52723 0.0
Co112 Co 0.30239 0.38148 0.54149 0.0
O113 O 0.28272 0.42325 0.47218 0.0
O114 O 0.24063 0.34578 0.43857 0.0
C115 C 0.37812 0.42028 0.46082 0.0
O116 O 0.31812 0.33213 0.61418 0.0
Co117 Co 0.37487 0.42999 0.78036 0.0
O118 O 0.35299 0.36458 0.8247 0.0
C119 C 0.27448 0.39066 0.83599 0.0
C120 C 0.2447 0.38664 0.41956 0.0
C121 C 0.3344 0.3298 0.73615 0.0
O122 O 0.26541 0.37526 0.71017 0.0
O123 O 0.31737 0.41889 0.88542 0.0
O124 O 0.34142 0.38989 0.38415 0.0
O125 O 0.3672 0.43061 0.58042 0.0
Co126 Co 0.69554 0.78898 0.09454 0.0
O127 O 0.65055 0.80556 0.01801 0.0
O128 O 0.72936 0.85343 0.0455 0.0
C129 C 0.66557 0.7214 0.96472 0.0
O130 O 0.75056 0.77979 0.17639 0.0
Co131 Co 0.65161 0.7041 0.26875 0.0
O132 O 0.71925 0.72884 0.34062 0.0
C133 C 0.67121 0.79337 0.39069 0.0
C134 C 0.68694 0.84644 1.00433 0.0
C135 C 0.75538 0.75926 0.28195 0.0
O136 O 0.68927 0.81095 0.2795 0.0
O137 O 0.64935 0.74955 0.40791 0.0
O138 O 0.69659 0.76037 0.91717 0.0
O139 O 0.65027 0.72474 0.08429 0.0
Co140 Co 0.28963 0.92743 0.13873 0.0
O141 O 0.23206 0.90212 0.23232 0.0
O142 O 0.28346 0.87517 0.2358 0.0
C143 C 0.31323 0.0004 0.22515 0.0
O144 O 0.35427 0.9516 0.04304 0.0
Co145 Co 0.28587 0.97693 0.91056 0.0
O146 O 0.34119 0.97422 0.84047 0.0
C147 C 0.2393 0.87824 0.85702 0.0
C148 C 0.2434 0.87234 0.27406 0.0
C149 C 0.36746 0.96606 0.92135 0.0
O150 O 0.25367 0.87979 0.98085 0.0
O151 O 0.24588 0.91518 0.8021 0.0
O152 O 0.3234 0.97292 0.28884 0.0
O153 O 0.28469 0.98292 0.11274 0.0
Co154 Co 0.16876 0.37282 0.03422 0.0
O155 O 0.22909 0.41634 0.96229 0.0
O156 O 0.19814 0.33984 0.94086 0.0
C157 C 0.12791 0.40634 0.94194 0.0
O158 O 0.10501 0.3227 0.11531 0.0
Co159 Co 0.14429 0.42434 0.25813 0.0
O160 O 0.10359 0.35964 0.31456 0.0
C161 C 0.2116 0.39271 0.32916 0.0
C162 C 0.23333 0.3815 0.91792 0.0
C163 C 0.08775 0.32259 0.23548 0.0
O164 O 0.2034 0.37343 0.20822 0.0
O165 O 0.1962 0.42022 0.36786 0.0
O166 O 0.13361 0.37576 0.87099 0.0
O167 O 0.15143 0.4194 0.06175 0.0
Co168 Co 0.39481 0.26272 0.99138 0.0
O169 O 0.42823 0.2398 0.09628 0.0
O170 O 0.34883 0.21127 0.08868 0.0
C171 C 0.44537 0.33682 0.06952 0.0
O172 O 0.35338 0.28466 0.88375 0.0
Co173 Co 0.44795 0.31382 0.7605 0.0
O174 O 0.38617 0.30461 0.68111 0.0
C175 C 0.39682 0.21345 0.71999 0.0
C176 C 0.38694 0.20999 0.13542 0.0
C177 C 0.35316 0.29796 0.76009 0.0
O178 O 0.38268 0.21449 0.83919 0.0
O179 O 0.42707 0.25071 0.66662 0.0
O180 O 0.40862 0.31002 0.13512 0.0
O181 O 0.45439 0.31765 0.96258 0.0
Co182 Co 0.83805 0.10199 0.85932 0.0
O183 O 0.89765 0.12552 0.76926 0.0
O184 O 0.84766 0.15397 0.75738 0.0
C185 C 0.80744 0.02586 0.79731 0.0
O186 O 0.77303 0.0829 0.94873 0.0
Co187 Co 0.83532 0.04761 0.10832 0.0
O188 O 0.7777 0.05194 0.14762 0.0
C189 C 0.88616 0.14905 0.14164 0.0
C190 C 0.88777 0.15616 0.72347 0.0
C191 C 0.75678 0.06653 0.06686 0.0
O192 O 0.87218 0.14824 0.01785 0.0
O193 O 0.87894 0.11214 0.19915 0.0
O194 O 0.80578 0.05407 0.71249 0.0
O195 O 0.83576 0.04631 0.90797 0.0
Co196 Co 0.95892 0.68879 0.96424 0.0
O197 O 0.90173 0.6575 0.05959 0.0
O198 O 0.95169 0.73452 0.07669 0.0
C199 C 0.9863 0.64026 0.02434 0.0
O200 O 0.02262 0.72833 0.8682 0.0
Co201 Co 0.95506 0.6337 0.71346 0.0
O202 O 0.01056 0.69152 0.65863 0.0
C203 C 0.90686 0.68727 0.69082 0.0
C204 C 0.91206 0.6982 0.11096 0.0
C205 C 0.03589 0.726 0.74457 0.0
O206 O 0.92204 0.70051 0.81557 0.0
O207 O 0.91339 0.65663 0.62566 0.0
O208 O 0.99351 0.67563 0.10344 0.0
O209 O 0.95713 0.63073 0.91491 0.0
Co210 Co 0.38084 0.12331 0.3642 0.0
O211 O 0.34394 0.14334 0.2595 0.0
O212 O 0.42415 0.17723 0.27404 0.0
C213 C 0.3361 0.04907 0.27883 0.0
O214 O 0.42812 0.10799 0.47003 0.0
Co215 Co 0.3336 0.06844 0.59202 0.0
O216 O 0.39567 0.07697 0.66569 0.0
C217 C 0.37721 0.16775 0.64234 0.0
C218 C 0.38494 0.17603 0.22571 0.0
C219 C 0.43109 0.09387 0.59059 0.0
O220 O 0.38822 0.16832 0.51889 0.0
O221 O 0.35137 0.12939 0.69769 0.0
O222 O 0.37229 0.07915 0.2175 0.0
O223 O 0.32403 0.06428 0.38894 0.0
Co224 Co 0.96232 0.24708 0.49088 0.0
O225 O 0.90528 0.21864 0.58743 0.0
O226 O 0.96119 0.19794 0.59927 0.0
C227 C 0.97738 0.31942 0.56007 0.0
O228 O 0.02649 0.27567 0.38846 0.0
Co229 Co 0.95235 0.29581 0.24906 0.0
O230 O 0.00789 0.29202 0.18114 0.0
C231 C 0.91026 0.19485 0.21856 0.0
C232 C 0.91961 0.19182 0.63562 0.0
C233 C 0.03738 0.28861 0.26336 0.0
O234 O 0.92897 0.19767 0.33783 0.0
O235 O 0.91198 0.23021 0.16414 0.0
O236 O 0.99233 0.29725 0.63448 0.0
O237 O 0.95065 0.2962 0.44931 0.0
Co238 Co 0.83006 0.70734 0.34762 0.0
O239 O 0.88779 0.74188 0.25404 0.0
O240 O 0.84015 0.66432 0.2346 0.0
C241 C 0.7971 0.75233 0.29436 0.0
O242 O 0.76697 0.66386 0.44004 0.0
Co243 Co 0.82896 0.75896 0.60521 0.0
O244 O 0.77789 0.69707 0.65457 0.0
C245 C 0.88121 0.70862 0.62258 0.0
C246 C 0.87904 0.70161 0.20173 0.0
C247 C 0.75395 0.66319 0.56543 0.0
O248 O 0.86752 0.69647 0.49645 0.0
O249 O 0.87248 0.73745 0.68982 0.0
O250 O 0.79463 0.72019 0.20916 0.0
O251 O 0.82604 0.7615 0.40409 0.0
loop_
_geom_bond_atom_site_label_1
_geom_bond_atom_site_label_2
_geom_bond_distance
_geom_bond_site_symmetry_2
_ccdc_geom_bond_type
Co0 O1 2.216 . S
Co0 O2 2.091 . S
Co0 O4 2.004 . S
Co0 O10 2.021 . S
Co0 O12 2.137 . S
Co0 O13 2.244 . S
O1 Co0 2.216 . S
O1 C8 1.247 . S
O2 Co0 2.091 . S
O2 C8 1.261 . S
C3 O12 1.247 . S
C3 O13 1.272 . S
O4 Co0 2.004 . S
O4 C9 1.259 . S
Co5 O6 2.061 . S
Co5 O11 2.052 1_554 S
Co5 O13 2.135 . S
O6 Co5 2.061 . S
O6 C9 1.235 . S
C7 O10 1.238 . S
C7 O11 1.241 1_554 S
C8 O1 1.247 . S
C8 O2 1.261 . S
C9 O4 1.259 . S
C9 O6 1.235 . S
O10 Co0 2.021 . S
O10 C7 1.238 . S
O11 Co5 2.052 1_556 S
O11 C7 1.241 1_556 S
O12 Co0 2.137 . S
O12 C3 1.247 . S
O13 Co0 2.244 . S
O13 C3 1.272 . S
O13 Co5 2.135 . S
Co14 O15 2.216 . S
Co14 O16 2.091 . S
Co14 O18 2.004 . S
Co14 O24 2.021 . S
Co14 O26 2.137 . S
Co14 O27 2.244 . S
O15 Co14 2.216 . S
O15 C22 1.247 . S
O16 Co14 2.091 . S
O16 C22 1.261 . S
C17 O26 1.247 . S
C17 O27 1.272 . S
O18 Co14 2.004 . S
O18 C23 1.259 . S
Co19 O20 2.061 . S
Co19 O25 2.052 . S
Co19 O27 2.135 . S
O20 Co19 2.061 . S
O20 C23 1.235 . S
C21 O24 1.238 . S
C21 O25 1.241 . S
C22 O15 1.247 . S
C22 O16 1.261 . S
C23 O18 1.259 . S
C23 O20 1.235 . S
O24 Co14 2.021 . S
O24 C21 1.238 . S
O25 Co19 2.052 . S
O25 C21 1.241 . S
O26 Co14 2.137 . S
O26 C17 1.247 . S
O27 Co14 2.244 . S
O27 C17 1.272 . S
O27 Co19 2.135 . S
Co28 O29 2.216 . S
Co28 O30 2.091 . S
Co28 O32 2.004 . S
Co28 O38 2.021 . S
Co28 O40 2.137 . S
Co28 O41 2.244 1_545 S
O29 Co28 2.216 . S
O29 C36 1.247 . S
O30 Co28 2.091 . S
O30 C36 1.261 . S
C31 O40 1.247 1_565 S
C31 O41 1.272 . S
O32 Co28 2.004 . S
O32 C37 1.259 . S
Co33 O34 2.061 1_565 S
Co33 O39 2.052 . S
Co33 O41 2.135 . S
O34 Co33 2.061 1_545 S
O34 C37 1.235 . S
C35 O38 1.238 . S
C35 O39 1.241 1_545 S
C36 O29 1.247 . S
C36 O30 1.261 . S
C37 O32 1.259 . S
C37 O34 1.235 . S
O38 Co28 2.021 . S
O38 C35 1.238 . S
O39 Co33 2.052 . S
O39 C35 1.241 1_565 S
O40 Co28 2.137 . S
O40 C31 1.247 1_545 S
O41 Co28 2.244 1_565 S
O41 C31 1.272 . S
O41 Co33 2.135 . S
Co42 O43 2.216 . S
Co42 O44 2.091 . S
Co42 O46 2.004 . S
Co42 O52 2.021 . S
Co42 O54 2.137 . S
Co42 O55 2.244 . S
O43 Co42 2.216 . S
O43 C50 1.247 . S
O44 Co42 2.091 . S
O44 C50 1.261 . S
C45 O54 1.247 . S
C45 O55 1.272 . S
O46 Co42 2.004 . S
O46 C51 1.259 . S
Co47 O48 2.061 . S
Co47 O53 2.052 . S
Co47 O55 2.135 . S
O48 Co47 2.061 . S
O48 C51 1.235 . S
C49 O52 1.238 . S
C49 O53 1.241 . S
C50 O43 1.247 . S
C50 O44 1.261 . S
C51 O46 1.259 . S
C51 O48 1.235 . S
O52 Co42 2.021 . S
O52 C49 1.238 . S
O53 Co47 2.052 . S
O53 C49 1.241 . S
O54 Co42 2.137 . S
O54 C45 1.247 . S
O55 Co42 2.244 . S
O55 C45 1.272 . S
O55 Co47 2.135 . S
Co56 O57 2.216 . S
Co56 O58 2.091 . S
Co56 O60 2.004 . S
Co56 O66 2.021 . S
Co56 O68 2.137 . S
Co56 O69 2.244 . S
O57 Co56 2.216 . S
O57 C64 1.247 . S
O58 Co56 2.091 . S
O58 C64 1.261 . S
C59 O68 1.247 . S
C59 O69 1.272 . S
O60 Co56 2.004 . S
O60 C65 1.259 . S
Co61 O62 2.061 . S
Co61 O67 2.052 . S
Co61 O69 2.135 . S
O62 Co61 2.061 . S
O62 C65 1.235 . S
C63 O66 1.238 . S
C63 O67 1.241 . S
C64 O57 1.247 . S
C64 O58 1.261 . S
C65 O60 1.259 . S
C65 O62 1.235 . S
O66 Co56 2.021 . S
O66 C63 1.238 . S
O67 Co61 2.052 . S
O67 C63 1.241 . S
O68 Co56 2.137 . S
O68 C59 1.247 . S
O69 Co56 2.244 . S
O69 C59 1.272 . S
O69 Co61 2.135 . S
Co70 O71 2.216 . S
Co70 O72 2.091 1_545 S
Co70 O74 2.004 1_545 S
Co70 O80 2.021 . S
Co70 O82 2.137 . S
Co70 O83 2.244 . S
O71 Co70 2.216 . S
O71 C78 1.247 . S
O72 Co70 2.091 1_565 S
O72 C78 1.261 1_565 S
C73 O82 1.247 . S
C73 O83 1.272 . S
O74 Co70 2.004 1_565 S
O74 C79 1.259 . S
Co75 O76 2.061 1_554 S
Co75 O81 2.052 . S
Co75 O83 2.135 1_554 S
O76 Co75 2.061 1_556 S
O76 C79 1.235 1_545 S
C77 O80 1.238 . S
C77 O81 1.241 1_556 S
C78 O71 1.247 . S
C78 O72 1.261 1_545 S
C79 O74 1.259 . S
C79 O76 1.235 1_565 S
O80 Co70 2.021 . S
O80 C77 1.238 . S
O81 Co75 2.052 . S
O81 C77 1.241 1_554 S
O82 Co70 2.137 . S
O82 C73 1.247 . S
O83 Co70 2.244 . S
O83 C73 1.272 . S
O83 Co75 2.135 1_556 S
Co84 O85 2.216 . S
Co84 O86 2.091 . S
Co84 O88 2.007 . S
Co84 O94 2.021 . S
Co84 O96 2.137 . S
Co84 O97 2.244 . S
O85 Co84 2.216 . S
O85 C92 1.247 . S
O86 Co84 2.091 . S
O86 C92 1.261 . S
C87 O96 1.247 . S
C87 O97 1.272 . S
O88 Co84 2.007 . S
O88 C93 1.257 1_565 S
Co89 O90 2.061 1_565 S
Co89 O95 2.052 . S
Co89 O97 2.135 . S
O90 Co89 2.061 1_545 S
O90 C93 1.235 . S
C91 O94 1.238 . S
C91 O95 1.241 . S
C92 O85 1.247 . S
C92 O86 1.261 . S
C93 O88 1.257 1_545 S
C93 O90 1.235 . S
O94 Co84 2.021 . S
O94 C91 1.238 . S
O95 Co89 2.052 . S
O95 C91 1.241 . S
O96 Co84 2.137 . S
O96 C87 1.247 . S
O97 Co84 2.244 . S
O97 C87 1.272 . S
O97 Co89 2.135 . S
Co98 O99 2.216 . S
Co98 O100 2.091 . S
Co98 O102 2.004 . S
Co98 O108 2.021 . S
Co98 O110 2.137 . S
Co98 O111 2.244 . S
O99 Co98 2.216 . S
O99 C106 1.247 . S
O100 Co98 2.091 . S
O100 C106 1.261 . S
C101 O110 1.247 . S
C101 O111 1.272 . S
O102 Co98 2.004 . S
O102 C107 1.259 . S
Co103 O104 2.061 . S
Co103 O109 2.052 . S
Co103 O111 2.135 . S
O104 Co103 2.061 . S
O104 C107 1.235 . S
C105 O108 1.238 . S
C105 O109 1.241 . S
C106 O99 1.247 . S
C106 O100 1.261 . S
C107 O102 1.259 . S
C107 O104 1.235 . S
O108 Co98 2.021 . S
O108 C105 1.238 . S
O109 Co103 2.052 . S
O109 C105 1.241 . S
O110 Co98 2.137 . S
O110 C101 1.247 . S
O111 Co98 2.244 . S
O111 C101 1.272 . S
O111 Co103 2.135 . S
Co112 O113 2.216 . S
Co112 O114 2.091 . S
Co112 O116 2.004 . S
Co112 O122 2.021 . S
Co112 O124 2.137 . S
Co112 O125 2.244 . S
O113 Co112 2.216 . S
O113 C120 1.247 . S
O114 Co112 2.091 . S
O114 C120 1.261 . S
C115 O124 1.247 . S
C115 O125 1.272 . S
O116 Co112 2.004 . S
O116 C121 1.259 . S
Co117 O118 2.061 . S
Co117 O123 2.052 . S
Co117 O125 2.135 . S
O118 Co117 2.061 . S
O118 C121 1.235 . S
C119 O122 1.238 . S
C119 O123 1.241 . S
C120 O113 1.247 . S
C120 O114 1.261 . S
C121 O116 1.259 . S
C121 O118 1.235 . S
O122 Co112 2.021 . S
O122 C119 1.238 . S
O123 Co117 2.052 . S
O123 C119 1.241 . S
O124 Co112 2.137 . S
O124 C115 1.247 . S
O125 Co112 2.244 . S
O125 C115 1.272 . S
O125 Co117 2.135 . S
Co126 O127 2.216 1_554 S
Co126 O128 2.091 1_554 S
Co126 O130 2.004 . S
Co126 O136 2.021 . S
Co126 O138 2.137 1_554 S
Co126 O139 2.244 . S
O127 Co126 2.216 1_556 S
O127 C134 1.247 . S
O128 Co126 2.091 1_556 S
O128 C134 1.261 . S
C129 O138 1.247 . S
C129 O139 1.272 1_556 S
O130 Co126 2.004 . S
O130 C135 1.259 . S
Co131 O132 2.061 . S
Co131 O137 2.052 . S
Co131 O139 2.135 . S
O132 Co131 2.061 . S
O132 C135 1.235 . S
C133 O136 1.238 . S
C133 O137 1.241 . S
C134 O127 1.247 . S
C134 O128 1.261 . S
C135 O130 1.259 . S
C135 O132 1.235 . S
O136 Co126 2.021 . S
O136 C133 1.238 . S
O137 Co131 2.052 . S
O137 C133 1.241 . S
O138 Co126 2.137 1_556 S
O138 C129 1.247 . S
O139 Co126 2.244 . S
O139 C129 1.272 1_554 S
O139 Co131 2.135 . S
Co140 O141 2.216 . S
Co140 O142 2.091 . S
Co140 O144 2.004 . S
Co140 O150 2.021 1_554 S
Co140 O152 2.137 . S
Co140 O153 2.244 . S
O141 Co140 2.216 . S
O141 C148 1.247 . S
O142 Co140 2.091 . S
O142 C148 1.261 . S
C143 O152 1.247 1_545 S
C143 O153 1.272 1_545 S
O144 Co140 2.004 . S
O144 C149 1.259 1_554 S
Co145 O146 2.061 1_545 S
Co145 O151 2.052 1_545 S
Co145 O153 2.135 1_546 S
O146 Co145 2.061 1_565 S
O146 C149 1.235 . S
C147 O150 1.238 . S
C147 O151 1.241 . S
C148 O141 1.247 . S
C148 O142 1.261 . S
C149 O144 1.259 1_556 S
C149 O146 1.235 . S
O150 Co140 2.021 1_556 S
O150 C147 1.238 . S
O151 Co145 2.052 1_565 S
O151 C147 1.241 . S
O152 Co140 2.137 . S
O152 C143 1.247 1_565 S
O153 Co140 2.244 . S
O153 C143 1.272 1_565 S
O153 Co145 2.135 1_564 S
Co154 O155 2.216 1_554 S
Co154 O156 2.091 1_554 S
Co154 O158 2.004 . S
Co154 O164 2.021 . S
Co154 O166 2.137 1_554 S
Co154 O167 2.244 . S
O155 Co154 2.216 1_556 S
O155 C162 1.247 . S
O156 Co154 2.091 1_556 S
O156 C162 1.261 . S
C157 O166 1.247 . S
C157 O167 1.272 1_556 S
O158 Co154 2.004 . S
O158 C163 1.259 . S
Co159 O160 2.061 . S
Co159 O165 2.052 . S
Co159 O167 2.135 . S
O160 Co159 2.061 . S
O160 C163 1.235 . S
C161 O164 1.238 . S
C161 O165 1.241 . S
C162 O155 1.247 . S
C162 O156 1.261 . S
C163 O158 1.259 . S
C163 O160 1.235 . S
O164 Co154 2.021 . S
O164 C161 1.238 . S
O165 Co159 2.052 . S
O165 C161 1.241 . S
O166 Co154 2.137 1_556 S
O166 C157 1.247 . S
O167 Co154 2.244 . S
O167 C157 1.272 1_554 S
O167 Co159 2.135 . S
Co168 O169 2.216 1_556 S
Co168 O170 2.091 1_556 S
Co168 O172 2.004 . S
Co168 O178 2.021 . S
Co168 O180 2.137 1_556 S
Co168 O181 2.244 . S
O169 Co168 2.216 1_554 S
O169 C176 1.247 . S
O170 Co168 2.091 1_554 S
O170 C176 1.261 . S
C171 O180 1.247 . S
C171 O181 1.272 1_554 S
O172 Co168 2.004 . S
O172 C177 1.259 . S
Co173 O174 2.061 . S
Co173 O179 2.052 . S
Co173 O181 2.135 . S
O174 Co173 2.061 . S
O174 C177 1.235 . S
C175 O178 1.238 . S
C175 O179 1.241 . S
C176 O169 1.247 . S
C176 O170 1.261 . S
C177 O172 1.259 . S
C177 O174 1.235 . S
O178 Co168 2.021 . S
O178 C175 1.238 . S
O179 Co173 2.052 . S
O179 C175 1.241 . S
O180 Co168 2.137 1_554 S
O180 C171 1.247 . S
O181 Co168 2.244 . S
O181 C171 1.272 1_556 S
O181 Co173 2.135 . S
Co182 O183 2.216 . S
Co182 O184 2.091 . S
Co182 O186 2.004 . S
Co182 O192 2.021 1_556 S
Co182 O194 2.137 . S
Co182 O195 2.244 . S
O183 Co182 2.216 . S
O183 C190 1.247 . S
O184 Co182 2.091 . S
O184 C190 1.261 . S
C185 O194 1.247 . S
C185 O195 1.272 . S
O186 Co182 2.004 . S
O186 C191 1.259 1_556 S
Co187 O188 2.061 . S
Co187 O193 2.052 . S
Co187 O195 2.135 1_554 S
O188 Co187 2.061 . S
O188 C191 1.235 . S
C189 O192 1.238 . S
C189 O193 1.241 . S
C190 O183 1.247 . S
C190 O184 1.261 . S
C191 O186 1.259 1_554 S
C191 O188 1.235 . S
O192 Co182 2.021 1_554 S
O192 C189 1.238 . S
O193 Co187 2.052 . S
O193 C189 1.241 . S
O194 Co182 2.137 . S
O194 C185 1.247 . S
O195 Co182 2.244 . S
O195 C185 1.272 . S
O195 Co187 2.135 1_556 S
Co196 O197 2.216 1_556 S
Co196 O198 2.091 1_556 S
Co196 O200 2.004 1_655 S
Co196 O206 2.021 . S
Co196 O208 2.137 1_556 S
Co196 O209 2.244 . S
O197 Co196 2.216 1_554 S
O197 C204 1.247 . S
O198 Co196 2.091 1_554 S
O198 C204 1.261 . S
C199 O208 1.248 . S
C199 O209 1.270 1_554 S
O200 Co196 2.004 1_455 S
O200 C205 1.259 . S
Co201 O202 2.061 1_655 S
Co201 O207 2.052 . S
Co201 O209 2.135 . S
O202 Co201 2.061 1_455 S
O202 C205 1.235 . S
C203 O206 1.238 . S
C203 O207 1.241 . S
C204 O197 1.247 . S
C204 O198 1.261 . S
C205 O200 1.259 . S
C205 O202 1.235 . S
O206 Co196 2.021 . S
O206 C203 1.238 . S
O207 Co201 2.052 . S
O207 C203 1.241 . S
O208 Co196 2.137 1_554 S
O208 C199 1.248 . S
O209 Co196 2.244 . S
O209 C199 1.270 1_556 S
O209 Co201 2.135 . S
Co210 O211 2.216 . S
Co210 O212 2.091 . S
Co210 O214 2.004 . S
Co210 O220 2.021 . S
Co210 O222 2.137 . S
Co210 O223 2.244 . S
O211 Co210 2.216 . S
O211 C218 1.247 . S
O212 Co210 2.091 . S
O212 C218 1.261 . S
C213 O222 1.247 . S
C213 O223 1.272 . S
O214 Co210 2.004 . S
O214 C219 1.259 . S
Co215 O216 2.061 . S
Co215 O221 2.052 . S
Co215 O223 2.135 . S
O216 Co215 2.061 . S
O216 C219 1.235 . S
C217 O220 1.238 . S
C217 O221 1.241 . S
C218 O211 1.247 . S
C218 O212 1.261 . S
C219 O214 1.259 . S
C219 O216 1.235 . S
O220 Co210 2.021 . S
O220 C217 1.238 . S
O221 Co215 2.052 . S
O221 C217 1.241 . S
O222 Co210 2.137 . S
O222 C213 1.247 . S
O223 Co210 2.244 . S
O223 C213 1.272 . S
O223 Co215 2.135 . S
Co224 O225 2.216 . S
Co224 O226 2.091 . S
Co224 O228 2.004 1_655 S
Co224 O234 2.021 . S
Co224 O236 2.137 . S
Co224 O237 2.244 . S
O225 Co224 2.216 . S
O225 C232 1.247 . S
O226 Co224 2.091 . S
O226 C232 1.261 . S
C227 O236 1.247 . S
C227 O237 1.272 . S
O228 Co224 2.004 1_455 S
O228 C233 1.259 . S
Co229 O230 2.061 1_655 S
Co229 O235 2.052 . S
Co229 O237 2.135 . S
O230 Co229 2.061 1_455 S
O230 C233 1.235 . S
C231 O234 1.238 . S
C231 O235 1.241 . S
C232 O225 1.247 . S
C232 O226 1.261 . S
C233 O228 1.259 . S
C233 O230 1.235 . S
O234 Co224 2.021 . S
O234 C231 1.238 . S
O235 Co229 2.052 . S
O235 C231 1.241 . S
O236 Co224 2.137 . S
O236 C227 1.247 . S
O237 Co224 2.244 . S
O237 C227 1.272 . S
O237 Co229 2.135 . S
Co238 O239 2.216 . S
Co238 O240 2.091 . S
Co238 O242 2.004 . S
Co238 O248 2.021 . S
Co238 O250 2.137 . S
Co238 O251 2.244 . S
O239 Co238 2.216 . S
O239 C246 1.247 . S
O240 Co238 2.091 . S
O240 C246 1.261 . S
C241 O250 1.247 . S
C241 O251 1.272 . S
O242 Co238 2.004 . S
O242 C247 1.259 . S
Co243 O244 2.061 . S
Co243 O249 2.052 . S
Co243 O251 2.135 . S
O244 Co243 2.061 . S
O244 C247 1.235 . S
C245 O248 1.238 . S
C245 O249 1.241 . S
C246 O239 1.247 . S
C246 O240 1.261 . S
C247 O242 1.259 . S
C247 O244 1.235 . S
O248 Co238 2.021 . S
O248 C245 1.238 . S
O249 Co243 2.052 . S
O249 C245 1.241 . S
O250 Co238 2.137 . S
O250 C241 1.247 . S
O251 Co238 2.244 . S
O251 C241 1.272 . S
O251 Co243 2.135 . S
C49 C7 1.881 1_556 S
C64 C22 1.625 1_556 S
C35 C77 1.977 1_554 S
C36 C78 1.598 . S
C8 C50 1.531 . S
C63 C21 1.851 . S
C133 C92 1.613 . S
C106 C148 1.570 . S
C120 C161 1.744 . S
C162 C119 1.837 . S
C134 C91 1.735 . S
C147 C105 1.928 . S
C175 C217 1.907 . S
C190 C232 1.654 . S
C203 C245 2.006 . S
C246 C204 1.620 . S
C218 C176 1.542 . S
C231 C189 1.903 . S
C3 C101 1.362 . S
C23 C115 1.330 . S
C87 C31 1.362 . S
C37 C191 1.221 . S
C199 C9 1.298 1_655 S
C171 C17 1.308 . S
C227 C45 1.302 1_655 S
C65 C247 1.223 . S
C219 C73 1.292 . S
C149 C79 1.169 . S
C51 C157 1.220 . S
C59 C129 1.247 . S
C93 C185 1.221 . S
C107 C205 1.172 . S
C121 C177 1.166 . S
C233 C163 1.272 . S
C241 C135 1.330 . S
C143 C213 1.365 . S
