# Generated by pormake.
# Topology rkf, (6)-cn, num edge types: 1
# Building blocks:
#     Node 0, Type 0, BuildingBlock: BETFAJ_clean_sbu_0, # of connection points: 6
#     Node 1, Type 0, BuildingBlock: BETFAJ_clean_sbu_0, # of connection points: 6
#     Node 2, Type 0, BuildingBlock: BETFAJ_clean_sbu_0, # of connection points: 6
#     Node 3, Type 0, BuildingBlock: BETFAJ_clean_sbu_0, # of connection points: 6
#     Node 4, Type 0, BuildingBlock: BETFAJ_clean_sbu_0, # of connection points: 6
#     Node 5, Type 0, BuildingBlock: BETFAJ_clean_sbu_0, # of connection points: 6
#     Edge 6, Type (0, 0), BuildingBlock: UVAHIK_clean_linker_0, # of connection points: 2
#     Edge 7, Type (0, 0), BuildingBlock: UVAHIK_clean_linker_0, # of connection points: 2
#     Edge 8, Type (0, 0), BuildingBlock: UVAHIK_clean_linker_0, # of connection points: 2
#     Edge 9, Type (0, 0), BuildingBlock: UVAHIK_clean_linker_0, # of connection points: 2
#     Edge 10, Type (0, 0), BuildingBlock: UVAHIK_clean_linker_0, # of connection points: 2
#     Edge 11, Type (0, 0), BuildingBlock: UVAHIK_clean_linker_0, # of connection points: 2
#     Edge 12, Type (0, 0), BuildingBlock: UVAHIK_clean_linker_0, # of connection points: 2
#     Edge 13, Type (0, 0), BuildingBlock: UVAHIK_clean_linker_0, # of connection points: 2
#     Edge 14, Type (0, 0), BuildingBlock: UVAHIK_clean_linker_0, # of connection points: 2
#     Edge 15, Type (0, 0), BuildingBlock: UVAHIK_clean_linker_0, # of connection points: 2
#     Edge 16, Type (0, 0), BuildingBlock: UVAHIK_clean_linker_0, # of connection points: 2
#     Edge 17, Type (0, 0), BuildingBlock: UVAHIK_clean_linker_0, # of connection points: 2
#     Edge 18, Type (0, 0), BuildingBlock: UVAHIK_clean_linker_0, # of connection points: 2
#     Edge 19, Type (0, 0), BuildingBlock: UVAHIK_clean_linker_0, # of connection points: 2
#     Edge 20, Type (0, 0), BuildingBlock: UVAHIK_clean_linker_0, # of connection points: 2
#     Edge 21, Type (0, 0), BuildingBlock: UVAHIK_clean_linker_0, # of connection points: 2
#     Edge 22, Type (0, 0), BuildingBlock: UVAHIK_clean_linker_0, # of connection points: 2
#     Edge 23, Type (0, 0), BuildingBlock: UVAHIK_clean_linker_0, # of connection points: 2
# Relax obj value: 0.542
# Max RMSD: 0.247
# Mean RMSD: 0.247
data_MOF--net-rkf--node1-BETFAJ_clean_sbu_0--edge1-UVAHIK_clean_linker_0
_symmetry_space_group_name_H-M    P1
_symmetry_Int_Tables_number       1
_symmetry_cell_setting            triclinic
loop_
_symmetry_equiv_pos_as_xyz
'x, y, z'
_cell_length_a     31.803024
_cell_length_b     31.677424
_cell_length_c     59.02214
_cell_angle_alpha  89.979147
_cell_angle_beta   90.39114
_cell_angle_gamma 120.18988
loop_
_atom_site_label
_atom_site_type_symbol
_atom_site_fract_x
_atom_site_fract_y
_atom_site_fract_z
_atom_type_partial_charge
Sm0 Sm 0.29012 0.10694 0.10331 0.0
Sm1 Sm 0.34993 0.20968 1.09024 0.0
C2 C 0.25781 0.01307 0.11054 0.0
C3 C 0.2532 0.98036 0.12916 0.0
C4 C 0.25781 0.93943 0.1247 0.0
C5 C 0.25121 0.90656 0.142 0.0
C6 C 0.23968 0.91408 0.16404 0.0
C7 C 0.23624 0.95594 0.16847 0.0
C8 C 0.24322 0.98891 0.15123 0.0
C9 C 0.23583 0.14722 1.08706 0.0
C10 C 0.31064 0.18297 0.14454 0.0
C11 C 0.38887 0.30426 1.08201 0.0
C12 C 0.39756 0.33535 1.06223 0.0
C13 C 0.37761 0.31449 1.04112 0.0
C14 C 0.38581 0.34428 1.02233 0.0
C15 C 0.4143 0.39544 1.02433 0.0
C16 C 0.43452 0.41611 1.04555 0.0
C17 C 0.42623 0.38619 1.06437 0.0
C18 C 0.40456 0.16717 0.09946 0.0
C19 C 0.31549 0.13005 1.04804 0.0
O20 O 0.30201 0.04352 0.10377 0.0
O21 O 0.23017 0.03269 0.11144 0.0
O22 O 0.27545 0.15386 1.07966 0.0
O23 O 0.22303 0.11764 0.10423 0.0
O24 O 0.29548 0.13668 0.13978 0.0
O25 O 0.32993 0.21631 0.12824 0.0
O26 O 0.34332 0.27596 1.08764 0.0
O27 O 0.41412 0.28211 1.08293 0.0
O28 O 0.36904 0.1614 0.11147 0.0
O29 O 0.41217 0.19645 1.08267 0.0
O30 O 0.33121 0.17664 1.0532 0.0
O31 O 0.30271 0.09787 1.06474 0.0
H32 H 0.26589 0.93255 0.10775 0.0
H33 H 0.25473 0.8751 0.13807 0.0
H34 H 0.22657 0.96254 0.18512 0.0
H35 H 0.2398 0.0205 0.15505 0.0
H36 H 0.35535 0.27522 1.03924 0.0
H37 H 0.36888 0.32721 1.00635 0.0
H38 H 0.45682 0.45532 1.04758 0.0
H39 H 0.44207 0.40271 1.08061 0.0
Sm40 Sm 0.25412 0.28909 0.43437 0.0
Sm41 Sm 0.21217 0.34944 0.4225 0.0
C42 C 0.3151 0.25619 0.44077 0.0
C43 C 0.34391 0.25212 0.45926 0.0
C44 C 0.38966 0.25782 0.45464 0.0
C45 C 0.41693 0.25254 0.47191 0.0
C46 C 0.3987 0.24127 0.49409 0.0
C47 C 0.3531 0.23654 0.49865 0.0
C48 C 0.32613 0.24222 0.48144 0.0
C49 C 0.15865 0.23479 0.41883 0.0
C50 C 0.20092 0.30882 0.47659 0.0
C51 C 0.15827 0.39071 0.41626 0.0
C52 C 0.13515 0.40229 0.3977 0.0
C53 C 0.13455 0.38532 0.37575 0.0
C54 C 0.11253 0.39668 0.35814 0.0
C55 C 0.09095 0.42538 0.36219 0.0
C56 C 0.09191 0.44247 0.38427 0.0
C57 C 0.11398 0.43103 0.4019 0.0
C58 C 0.30991 0.40385 0.43111 0.0
C59 C 0.25449 0.31595 0.37926 0.0
O60 O 0.32898 0.30041 0.43375 0.0
O61 O 0.26781 0.22862 0.44212 0.0
O62 O 0.1915 0.27466 0.41126 0.0
O63 O 0.17602 0.22181 0.43574 0.0
O64 O 0.23167 0.29382 0.47133 0.0
O65 O 0.18638 0.32824 0.46053 0.0
O66 O 0.14002 0.34434 0.42087 0.0
O67 O 0.20576 0.41508 0.41655 0.0
O68 O 0.28023 0.3681 0.44319 0.0
O69 O 0.28798 0.41144 0.41439 0.0
O70 O 0.22347 0.33074 0.38502 0.0
O71 O 0.27501 0.30343 0.39562 0.0
H72 H 0.40408 0.26592 0.43761 0.0
H73 H 0.4521 0.25702 0.46787 0.0
H74 H 0.33744 0.22698 0.51541 0.0
H75 H 0.29101 0.23803 0.4854 0.0
H76 H 0.1508 0.36305 0.37229 0.0
H77 H 0.11151 0.38207 0.34143 0.0
H78 H 0.0758 0.46479 0.38788 0.0
H79 H 0.11447 0.44455 0.41882 0.0
Sm80 Sm 0.04545 0.25599 0.76822 0.0
Sm81 Sm 0.94323 0.21377 0.75622 0.0
C82 C 0.13974 0.31683 0.77448 0.0
C83 C 0.17107 0.35143 0.79193 0.0
C84 C 0.15133 0.36746 0.80872 0.0
C85 C 0.18107 0.39882 0.82586 0.0
C86 C 0.23097 0.4141 0.82666 0.0
C87 C 0.25071 0.39878 0.80942 0.0
C88 C 0.22094 0.36772 0.79217 0.0
C89 C 0.0034 0.15968 0.75331 0.0
C90 C 0.97225 0.20506 0.81071 0.0
C91 C 0.84781 0.15996 0.75006 0.0
C92 C 0.81266 0.13644 0.73163 0.0
C93 C 0.82849 0.13606 0.70961 0.0
C94 C 0.79462 0.11325 0.69217 0.0
C95 C 0.74438 0.0906 0.69648 0.0
C96 C 0.7288 0.0915 0.7186 0.0
C97 C 0.76279 0.11437 0.73606 0.0
C98 C -0.01237 0.31219 0.76419 0.0
C99 C 0.01888 0.25481 0.71284 0.0
O100 O 0.11112 0.3286 0.76363 0.0
O101 O 0.11813 0.27063 0.77997 0.0
O102 O -0.00334 0.1925 0.74552 0.0
O103 O 0.0343 0.17766 0.77004 0.0
O104 O 0.01766 0.2374 0.80539 0.0
O105 O 0.93859 0.18792 0.79439 0.0
O106 O 0.8755 0.14151 0.75488 0.0
O107 O 0.87153 0.20764 0.75005 0.0
O108 O -0.00671 0.28259 0.77656 0.0
O109 O 0.95804 0.2899 0.74747 0.0
O110 O 0.97293 0.22404 0.71872 0.0
O111 O 0.05213 0.27574 0.72918 0.0
H112 H 0.11279 0.35502 0.80879 0.0
H113 H 0.16481 0.41034 0.83873 0.0
H114 H 0.28876 0.40914 0.80972 0.0
H115 H 0.23665 0.35553 0.77931 0.0
H116 H 0.86697 0.15299 0.70597 0.0
H117 H 0.80781 0.11234 0.67541 0.0
H118 H 0.69042 0.0746 0.7224 0.0
H119 H 0.75017 0.11467 0.75303 0.0
Sm120 Sm 0.86988 0.06373 0.10548 0.0
Sm121 Sm 0.79548 0.96096 0.09495 0.0
C122 C 0.91458 0.15535 0.1198 0.0
C123 C 0.91037 0.18444 0.13825 0.0
C124 C 0.8912 0.21499 0.13353 0.0
C125 C 0.88685 0.24286 0.15068 0.0
C126 C 0.902 0.2411 0.17288 0.0
C127 C 0.92144 0.21067 0.17755 0.0
C128 C 0.9255 0.18256 0.16043 0.0
C129 C 0.90884 0.00993 1.08906 0.0
C130 C 0.83515 0.98356 0.14798 0.0
C131 C 0.73765 0.86935 1.08167 0.0
C132 C 0.72471 0.8383 1.06155 0.0
C133 C 0.74776 0.85733 1.04086 0.0
C134 C 0.7371 0.82653 1.02218 0.0
C135 C 0.70301 0.77627 1.02388 0.0
C136 C 0.67915 0.75773 1.04457 0.0
C137 C 0.69001 0.78859 1.06327 0.0
C138 C 0.75738 0.01462 0.11315 0.0
C139 C 0.84687 0.04106 1.05128 0.0
O140 O 0.87917 0.13764 0.10489 0.0
O141 O 0.92971 0.12488 0.12489 0.0
O142 O 0.87421 -0.00534 0.10274 0.0
O143 O 0.92712 0.05617 1.08507 0.0
O144 O 0.8538 0.03017 0.14223 0.0
O145 O 0.81402 0.94914 0.13217 0.0
O146 O 0.78154 0.88568 1.08975 0.0
O147 O 0.72441 0.90227 1.0817 0.0
O148 O 0.78946 0.02917 0.09797 0.0
O149 O 0.74479 0.97059 0.11928 0.0
O150 O 0.81877 -0.00529 1.05776 0.0
O151 O 0.86802 0.07569 1.06682 0.0
H152 H 0.8795 0.21733 0.11653 0.0
H153 H 0.87147 0.26564 0.14655 0.0
H154 H 0.93452 0.20927 0.19436 0.0
H155 H 0.94077 0.15969 0.16459 0.0
H156 H 0.77461 0.8957 1.0393 0.0
H157 H 0.75679 0.84188 1.00662 0.0
H158 H 0.65248 0.71935 1.04635 0.0
H159 H 0.67183 0.77352 1.07919 0.0
Sm160 Sm 0.88165 0.87491 0.44112 0.0
Sm161 Sm 0.90805 0.79984 0.42919 0.0
C162 C 0.83727 0.921 0.45614 0.0
C163 C 0.80305 0.91453 0.47406 0.0
C164 C 0.78595 0.87483 0.48893 0.0
C165 C 0.75162 0.86786 0.50535 0.0
C166 C 0.73381 0.90038 0.50701 0.0
C167 C 0.75074 0.93972 0.49181 0.0
C168 C 0.7851 0.94669 0.47545 0.0
C169 C 0.97474 0.9144 0.42503 0.0
C170 C 0.92615 0.83671 0.48253 0.0
C171 C 0.94032 0.74248 0.41406 0.0
C172 C 0.95719 0.73185 0.39298 0.0
C173 C 0.95929 0.75665 0.373 0.0
C174 C 0.97829 0.74844 0.35335 0.0
C175 C -0.00505 0.71478 0.35327 0.0
C176 C -0.00862 0.68899 0.37326 0.0
C177 C 0.97276 0.69763 0.39298 0.0
C178 C 0.81644 0.76131 0.4475 0.0
C179 C 0.88013 0.85451 0.38671 0.0
O180 O 0.8195 0.88766 0.44027 0.0
O181 O 0.88134 0.93262 0.46247 0.0
O182 O 0.95419 0.87827 0.43797 0.0
O183 O 0.94772 0.93379 0.42168 0.0
O184 O 0.89809 0.85539 0.47733 0.0
O185 O 0.9392 0.81656 0.46632 0.0
O186 O 0.96856 0.78571 0.42285 0.0
O187 O 0.89425 0.72918 0.41483 0.0
O188 O 0.83446 0.79461 0.43275 0.0
O189 O 0.8473 0.74773 0.45311 0.0
O190 O 0.89762 0.82559 0.3926 0.0
O191 O 0.86759 0.87533 0.40261 0.0
H192 H 0.79904 0.84925 0.48778 0.0
H193 H 0.73904 0.83711 0.51675 0.0
H194 H 0.73838 0.96588 0.49293 0.0
H195 H 0.79771 0.97723 0.4639 0.0
H196 H 0.94704 0.78291 0.37268 0.0
H197 H 0.98122 0.76963 0.33843 0.0
H198 H 0.00326 0.66241 0.37372 0.0
H199 H 0.97107 0.67802 0.40831 0.0
Sm200 Sm 0.09085 0.88387 0.77355 0.0
Sm201 Sm 0.19298 0.91278 0.76143 0.0
C202 C 0.00041 0.83734 0.78851 0.0
C203 C 0.97057 0.80629 0.8073 0.0
C204 C 0.93689 0.75681 0.80308 0.0
C205 C 0.90614 0.72713 0.82018 0.0
C206 C 0.90817 0.74646 0.84182 0.0
C207 C 0.9425 0.79587 0.84612 0.0
C208 C 0.97345 0.82548 0.82905 0.0
C209 C 0.14308 0.97679 0.75656 0.0
C210 C 0.17446 0.93139 0.81457 0.0
C211 C 0.28263 0.94728 0.74612 0.0
C212 C 0.30959 0.96453 0.72494 0.0
C213 C 0.28613 0.96564 0.70498 0.0
C214 C 0.31279 0.98508 0.68523 0.0
C215 C 0.36334 0.00325 0.68503 0.0
C216 C 0.38636 0.00072 0.705 0.0
C217 C 0.35964 0.98162 0.72482 0.0
C218 C 0.14071 0.82056 0.77975 0.0
C219 C 0.10903 0.88193 0.71928 0.0
O220 O 0.01806 0.81773 0.77484 0.0
O221 O 0.03065 0.88378 0.79252 0.0
O222 O 0.15941 0.95746 0.76987 0.0
O223 O 0.0967 0.94856 0.7532 0.0
O224 O 0.12762 0.90236 0.80962 0.0
O225 O 0.20742 0.94462 0.79832 0.0
O226 O 0.26699 0.97481 0.75477 0.0
O227 O 0.25054 0.90074 0.74714 0.0
O228 O 0.12517 0.83844 0.76503 0.0
O229 O 0.18521 0.85194 0.78537 0.0
O230 O 0.15579 0.90108 0.725 0.0
O231 O 0.07585 0.86839 0.73524 0.0
H232 H 0.93382 0.74117 0.7864 0.0
H233 H 0.88044 0.68918 0.81637 0.0
H234 H 0.94442 0.81221 0.86249 0.0
H235 H -0.00114 0.86353 0.8328 0.0
H236 H 0.24742 0.95227 0.70477 0.0
H237 H 0.29391 0.98719 0.67032 0.0
H238 H 0.42505 0.0138 0.70537 0.0
H239 H 0.37817 0.98075 0.74014 0.0
C240 C 0.96852 0.986 1.07864 0.0
C241 C 0.92192 0.97922 1.07576 0.0
C242 C -0.00837 0.97845 1.06043 0.0
C243 C 0.00513 0.03925 1.01473 0.0
H244 H 0.12133 0.03002 1.02015 0.0
C245 C 0.21297 0.15755 1.04785 0.0
C246 C 0.19974 0.14599 1.07079 0.0
C247 C 0.17751 0.1397 1.0308 0.0
C248 C 0.08932 0.03326 1.01746 0.0
H249 H 0.85888 0.94888 1.05361 0.0
H250 H 0.90167 0.94312 1.02075 0.0
H251 H 0.04225 0.95605 1.01994 0.0
H252 H 0.13931 0.11481 0.09406 0.0
H253 H 0.07717 0.08655 1.06432 0.0
H254 H 0.05176 0.11669 1.01768 0.0
C255 C 0.91981 0.95213 1.03711 0.0
C256 C 0.04384 -0.00939 1.01707 0.0
C257 C 0.89576 0.95683 1.05583 0.0
C258 C 0.15055 0.12371 1.07659 0.0
C259 C 0.1151 0.10764 1.05955 0.0
C260 C 0.0504 0.08195 1.01607 0.0
C261 C 0.96953 0.96778 1.03878 0.0
C262 C 0.00191 -0.00581 1.01967 0.0
C263 C 0.12843 0.11261 1.03658 0.0
C264 C 0.09203 0.07864 1.02024 0.0
H265 H -0.01076 0.00278 0.09397 0.0
H266 H 0.02985 -0.0099 1.06242 0.0
H267 H 0.97304 0.04288 1.01552 0.0
H268 H 0.25071 0.17591 1.04283 0.0
H269 H 0.18846 0.1437 1.01322 0.0
C270 C 0.05657 0.97461 0.41224 0.0
C271 C 0.01734 0.92689 0.41106 0.0
C272 C 0.08462 -0.00402 0.39308 0.0
C273 C 0.02976 0.00186 0.34859 0.0
H274 H 0.15435 0.12106 0.34991 0.0
C275 C 0.12317 0.21169 0.37993 0.0
C276 C 0.12248 0.19861 0.40286 0.0
C277 C 0.10355 0.17588 0.36305 0.0
C278 C 0.1191 0.08814 0.34839 0.0
H279 H -0.01614 0.86056 0.39117 0.0
H280 H 0.02688 0.90014 0.35643 0.0
H281 H 0.15114 0.04293 0.34986 0.0
H282 H 0.0931 0.13823 0.4264 0.0
H283 H 0.0558 0.07556 0.39704 0.0
H284 H -0.00214 0.04696 0.35258 0.0
C285 C 0.03775 0.92055 0.37219 0.0
C286 C 0.11732 0.04315 0.34807 0.0
C287 C 0.01209 0.89827 0.39194 0.0
C288 C 0.09472 0.14936 0.40892 0.0
C289 C 0.07333 0.11359 0.39208 0.0
C290 C 0.03138 0.04668 0.34989 0.0
C291 C 0.07077 0.97097 0.37215 0.0
C292 C 0.07288 0.0005 0.35234 0.0
C293 C 0.08056 0.12659 0.36901 0.0
C294 C 0.07639 0.08956 0.35266 0.0
H295 H 0.06176 -0.00277 0.42696 0.0
H296 H 0.1106 0.0348 0.39379 0.0
H297 H -0.00538 0.96906 0.35055 0.0
H298 H 0.14315 0.24949 0.37474 0.0
H299 H 0.10973 0.18664 0.34541 0.0
C300 C 0.16427 0.05933 0.74467 0.0
C301 C 0.17249 0.02015 0.7427 0.0
C302 C 0.16985 0.08814 0.72584 0.0
C303 C 0.10651 0.03412 0.68155 0.0
H304 H 0.11118 0.1582 0.68436 0.0
C305 C -0.01147 0.12269 0.71475 0.0
C306 C 0.00281 0.1232 0.73751 0.0
C307 C 0.00461 0.10383 0.69768 0.0
C308 C 0.10904 0.12314 0.68242 0.0
H309 H 0.2038 0.98753 0.72157 0.0
H310 H 0.20557 0.0321 0.68756 0.0
H311 H 0.18644 0.15627 0.68346 0.0
H312 H 0.03685 0.09622 0.76067 0.0
H313 H 0.06191 0.06001 0.731 0.0
H314 H 0.02954 0.00093 0.686 0.0
C315 C 0.197 0.04229 0.70367 0.0
C316 C 0.15243 0.12212 0.68162 0.0
C317 C 0.19457 0.01572 0.72303 0.0
C318 C 0.0259 0.09694 0.74332 0.0
C319 C 0.04014 0.07621 0.72631 0.0
C320 C 0.06319 0.03497 0.68334 0.0
C321 C 0.17972 0.07517 0.70449 0.0
C322 C 0.15104 0.07764 0.68527 0.0
C323 C 0.03259 0.08264 0.70332 0.0
C324 C 0.06512 0.0797 0.68661 0.0
H325 H 0.14779 0.06385 0.7598 0.0
H326 H 0.15714 0.114 0.7272 0.0
H327 H 0.10444 -0.00099 0.68309 0.0
H328 H 0.96938 0.14141 0.70979 0.0
H329 H -0.00142 0.10931 0.6801 0.0
C330 C 0.42698 0.41262 0.9828 0.0
C331 C 0.42054 0.42669 1.00446 0.0
C332 C 0.42432 0.4368 0.9636 0.0
C333 C 0.42086 0.494 0.9239 0.0
H334 H 0.30505 0.50485 0.92782 0.0
C335 C 0.31041 0.47778 0.84407 0.0
C336 C 0.26122 0.44167 0.84653 0.0
C337 C 0.34028 0.49832 0.86315 0.0
C338 C 0.33777 0.50252 0.92643 0.0
H339 H 0.41072 0.48007 1.02311 0.0
H340 H 0.40732 0.52322 0.98954 0.0
H341 H 0.34434 0.50012 0.96229 0.0
H342 H 0.2045 0.40045 0.871 0.0
H343 H 0.25603 0.43579 0.90394 0.0
H344 H 0.41116 0.49129 0.88799 0.0
C345 C 0.41331 0.4927 0.98738 0.0
C346 C 0.36079 0.50043 0.94625 0.0
C347 C 0.41566 0.46821 1.00663 0.0
C348 C 0.24195 0.42869 0.86843 0.0
C349 C 0.27165 0.44918 0.88741 0.0
C350 C 0.39745 0.49549 0.90407 0.0
C351 C 0.41552 0.47596 0.9656 0.0
C352 C 0.4009 0.49319 0.9452 0.0
C353 C 0.32148 0.48319 0.88503 0.0
C354 C 0.35397 0.49679 0.90518 0.0
H355 H 0.4319 0.38142 0.98061 0.0
H356 H 0.42581 0.42243 0.94718 0.0
H357 H 0.45252 0.48984 0.92251 0.0
H358 H 0.32614 0.48913 0.82741 0.0
H359 H 0.37841 0.52481 0.86077 0.0
C360 C 0.01956 0.42997 0.34678 0.0
C361 C 0.06564 0.43509 0.3435 0.0
C362 C -0.00807 0.42991 0.32823 0.0
C363 C -0.00512 0.4401 0.26461 0.0
H364 H 0.86944 0.32194 0.26941 0.0
C365 C 0.91254 0.32096 0.1867 0.0
C366 C 0.89963 0.27224 0.19103 0.0
C367 C 0.91724 0.35218 0.20451 0.0
C368 C 0.90423 0.35519 0.26773 0.0
H369 H 0.12126 0.45005 0.31867 0.0
H370 H 0.07288 0.44762 0.28644 0.0
H371 H 0.91344 0.36341 0.30352 0.0
H372 H 0.87665 0.21685 0.21706 0.0
H373 H 0.8873 0.27126 0.24804 0.0
H374 H -0.01153 0.42841 0.22893 0.0
C375 C 0.0577 0.44422 0.30315 0.0
C376 C 0.92929 0.37961 0.28738 0.0
C377 C 0.08534 0.44472 0.32165 0.0
C378 C 0.88792 0.25451 0.21324 0.0
C379 C 0.89311 0.28571 0.23101 0.0
C380 C 0.97035 0.41502 0.24498 0.0
C381 C 0.00973 0.43452 0.30607 0.0
C382 C 0.97657 0.4203 0.28606 0.0
C383 C 0.90962 0.33546 0.22702 0.0
C384 C 0.92638 0.37026 0.24644 0.0
H385 H 0.00349 0.42279 0.36347 0.0
H386 H 0.95556 0.42338 0.33117 0.0
H387 H 0.03035 0.47252 0.26296 0.0
H388 H 0.92169 0.33581 0.16976 0.0
H389 H 0.92915 0.38999 0.20073 0.0
C390 C 0.66862 0.01724 0.68176 0.0
C391 C 0.70885 0.064 0.67804 0.0
C392 C 0.64071 0.98849 0.66349 0.0
C393 C 0.63 0.98899 0.59998 0.0
H394 H 0.62793 0.86606 0.60535 0.0
C395 C 0.71094 0.88756 0.54781 0.0
C396 C 0.70088 0.896 0.52564 0.0
C397 C 0.68576 0.89194 0.56602 0.0
C398 C 0.6278 0.90002 0.60354 0.0
H399 H 0.7478 0.1195 0.65271 0.0
H400 H 0.70108 0.0692 0.62093 0.0
H401 H 0.63111 0.91055 0.63928 0.0
H402 H 0.65332 0.91086 0.50488 0.0
H403 H 0.60886 0.91825 0.53681 0.0
H404 H 0.63269 0.98128 0.56423 0.0
C405 C 0.69023 0.05438 0.6378 0.0
C406 C 0.62892 0.92537 0.62307 0.0
C407 C 0.71777 0.08312 0.65602 0.0
C408 C 0.66245 0.90511 0.52188 0.0
C409 C 0.63696 0.90924 0.54015 0.0
C410 C 0.62982 0.96408 0.58044 0.0
C411 C 0.65278 0.00586 0.64117 0.0
C412 C 0.63363 0.97188 0.62148 0.0
C413 C 0.64968 0.90466 0.5625 0.0
C414 C 0.6323 0.92108 0.58208 0.0
H415 H 0.66064 0.00156 0.69858 0.0
H416 H 0.61154 0.95166 0.66675 0.0
H417 H 0.6318 0.02389 0.59817 0.0
H418 H 0.74062 0.88094 0.55129 0.0
H419 H 0.69735 0.88898 0.58294 0.0
C420 C 0.69476 0.75855 0.98228 0.0
C421 C 0.69523 0.74321 1.00454 0.0
C422 C 0.69679 0.73197 0.96395 0.0
C423 C 0.74924 0.65523 0.95221 0.0
H424 H 0.71739 0.67481 0.8911 0.0
C425 C 0.88688 0.72203 0.88233 0.0
C426 C 0.8726 0.7165 0.85948 0.0
C427 C 0.85221 0.70062 0.89931 0.0
C428 C 0.72581 0.6675 0.90794 0.0
H429 H 0.6934 0.68535 1.02498 0.0
H430 H 0.69544 0.63807 0.9929 0.0
H431 H 0.67157 0.67972 0.9226 0.0
H432 H 0.81098 0.6804 0.8364 0.0
H433 H 0.7506 0.64167 0.86603 0.0
H434 H 0.80394 0.64372 0.93757 0.0
C435 C 0.69477 0.67137 0.98963 0.0
C436 C 0.69985 0.67103 0.92609 0.0
C437 C 0.69315 0.69828 1.00802 0.0
C438 C 0.82327 0.6855 0.85386 0.0
C439 C 0.78853 0.66364 0.87087 0.0
C440 C 0.7746 0.65081 0.93403 0.0
C441 C 0.69889 0.68909 0.96743 0.0
C442 C 0.71372 0.66858 0.94849 0.0
C443 C 0.80237 0.6727 0.89382 0.0
C444 C 0.7656 0.66052 0.91184 0.0
H445 H 0.69525 0.79246 0.97904 0.0
H446 H 0.7003 0.74719 0.94718 0.0
H447 H 0.76082 0.65265 0.96918 0.0
H448 H 0.92473 0.74476 0.88719 0.0
H449 H 0.86448 0.70894 0.91674 0.0
C450 C 0.00157 0.71185 0.31108 0.0
C451 C 0.01845 0.70905 0.33276 0.0
C452 C 0.0281 0.71463 0.29188 0.0
C453 C 0.15521 0.7584 0.27674 0.0
H454 H 0.0976 0.73174 0.21667 0.0
C455 C 0.24098 0.89202 0.20472 0.0
C456 C 0.22809 0.8772 0.1821 0.0
C457 C 0.2228 0.85795 0.22219 0.0
C458 C 0.11485 0.73861 0.23319 0.0
H459 H 0.07449 0.70275 0.35106 0.0
H460 H 0.11961 0.70538 0.31746 0.0
H461 H 0.04716 0.69011 0.24898 0.0
H462 H 0.18952 0.81418 0.15996 0.0
H463 H 0.15965 0.75448 0.19039 0.0
H464 H 0.22296 0.80662 0.26094 0.0
C465 C 0.08663 0.70705 0.31535 0.0
C466 C 0.08556 0.71521 0.25184 0.0
C467 C 0.06037 0.70494 0.33463 0.0
C468 C 0.20015 0.82698 0.1772 0.0
C469 C 0.18248 0.79272 0.1947 0.0
C470 C 0.1847 0.781 0.25805 0.0
C471 C 0.07189 0.71394 0.2938 0.0
C472 C 0.10475 0.72721 0.27395 0.0
C473 C 0.19182 0.80797 0.21748 0.0
C474 C 0.1643 0.77381 0.23619 0.0
H475 H 0.96877 0.71386 0.30897 0.0
H476 H 0.01557 0.72036 0.27569 0.0
H477 H 0.17161 0.76853 0.29344 0.0
H478 H 0.26346 0.93031 0.20906 0.0
H479 H 0.23068 0.87148 0.23944 0.0
C480 C 0.37197 0.00943 0.64281 0.0
C481 C 0.39191 0.02716 0.66439 0.0
C482 C 0.39498 0.03606 0.62346 0.0
C483 C 0.47596 0.16395 0.60748 0.0
H484 H 0.44503 0.10458 0.54782 0.0
C485 C 0.42374 0.24487 0.53472 0.0
C486 C 0.42528 0.23142 0.51221 0.0
C487 C 0.44087 0.22812 0.55234 0.0
C488 C 0.45541 0.12238 0.56421 0.0
H489 H 0.45396 0.08498 0.68238 0.0
H490 H 0.49519 0.13037 0.64852 0.0
H491 H 0.43798 0.05537 0.58052 0.0
H492 H 0.45043 0.19358 0.4904 0.0
H493 H 0.48243 0.16629 0.52106 0.0
H494 H 0.49377 0.23106 0.59116 0.0
C495 C 0.4609 0.09658 0.6466 0.0
C496 C 0.45052 0.09376 0.58309 0.0
C497 C 0.43749 0.07018 0.66603 0.0
C498 C 0.44849 0.20457 0.50755 0.0
C499 C 0.46633 0.18836 0.52519 0.0
C500 C 0.48188 0.19282 0.58855 0.0
C501 C 0.43898 0.08084 0.62513 0.0
C502 C 0.45767 0.11346 0.60506 0.0
C503 C 0.46076 0.19809 0.54789 0.0
C504 C 0.46862 0.1717 0.56683 0.0
H505 H 0.3375 0.97581 0.64089 0.0
H506 H 0.3765 0.02274 0.60734 0.0
H507 H 0.48218 0.18074 0.62406 0.0
H508 H 0.40729 0.26663 0.53887 0.0
H509 H 0.43545 0.23627 0.56952 0.0
C510 C 0.48282 0.16986 0.09271 0.0
C511 C 0.44001 0.15154 0.10547 0.0
C512 C 0.51753 0.15667 0.09768 0.0
C513 C 0.53498 0.06137 0.12281 0.0
H514 H 0.67137 0.16134 0.12021 0.0
C515 C 0.68738 0.01357 0.13271 0.0
C516 C 0.72612 0.03607 0.11738 0.0
C517 C 0.65402 0.02982 0.13491 0.0
C518 C 0.63352 0.13288 0.12085 0.0
H519 H 0.39965 0.10418 0.13331 0.0
H520 H 0.4608 0.08024 0.14194 0.0
H521 H 0.60905 0.18444 0.11773 0.0
H522 H 0.76153 0.09457 0.09303 0.0
H523 H 0.70308 0.12267 0.09659 0.0
H524 H 0.55933 0.0096 0.12516 0.0
C525 C 0.46729 0.10531 0.12814 0.0
C526 C 0.59776 0.14615 0.11953 0.0
C527 C 0.43243 0.11905 0.12328 0.0
C528 C 0.73204 0.07651 0.10499 0.0
C529 C 0.69856 0.09271 0.10713 0.0
C530 C 0.57081 0.04802 0.12404 0.0
C531 C 0.51046 0.12442 0.11546 0.0
C532 C 0.54805 0.1105 0.11998 0.0
C533 C 0.65854 0.06897 0.12181 0.0
C534 C 0.62057 0.08354 0.12261 0.0
H535 H 0.48978 0.19471 1.07876 0.0
H536 H 0.54977 0.17127 1.08727 0.0
H537 H 0.49704 0.03301 0.12301 0.0
H538 H 0.68209 0.98253 0.14264 0.0
H539 H 0.62433 0.01127 0.14671 0.0
C540 C 0.38575 0.48268 0.42426 0.0
C541 C 0.36119 0.43962 0.43706 0.0
C542 C 0.43374 0.51781 0.42928 0.0
C543 C 0.54659 0.53631 0.45498 0.0
H544 H 0.58298 0.67294 0.45242 0.0
C545 C 0.74673 0.69016 0.46646 0.0
C546 C 0.76353 0.72969 0.45141 0.0
C547 C 0.69699 0.65631 0.46822 0.0
C548 C 0.57363 0.63503 0.45303 0.0
H549 H 0.36823 0.39924 0.46501 0.0
H550 H 0.4534 0.46105 0.47372 0.0
H551 H 0.4976 0.60983 0.44929 0.0
H552 H 0.74121 0.76596 0.4271 0.0
H553 H 0.65445 0.70665 0.42985 0.0
H554 H 0.62272 0.56139 0.45796 0.0
C555 C 0.43484 0.46745 0.45985 0.0
C556 C 0.52459 0.5988 0.45133 0.0
C557 C 0.38617 0.43218 0.45494 0.0
C558 C 0.72937 0.73589 0.43887 0.0
C559 C 0.67955 0.70189 0.44054 0.0
C560 C 0.59578 0.57261 0.45657 0.0
C561 C 0.45896 0.5109 0.44715 0.0
C562 C 0.51051 0.54899 0.45182 0.0
C563 C 0.66272 0.66105 0.45492 0.0
C564 C 0.61007 0.6225 0.45519 0.0
H565 H 0.36782 0.48956 0.41027 0.0
H566 H 0.45141 0.55026 0.41886 0.0
H567 H 0.53703 0.49832 0.45521 0.0
H568 H 0.77218 0.68463 0.47651 0.0
H569 H 0.68547 0.62605 0.47983 0.0
C570 C -0.01217 0.38929 0.75602 0.0
C571 C 0.00377 0.36379 0.7698 0.0
C572 C 0.00106 0.43748 0.7609 0.0
C573 C 0.09351 0.5495 0.78808 0.0
H574 H -0.00563 0.58631 0.78365 0.0
C575 C 0.14167 0.75054 0.79888 0.0
C576 C 0.11934 0.76747 0.78365 0.0
C577 C 0.12533 0.70057 0.80071 0.0
C578 C 0.02266 0.57688 0.78477 0.0
H579 H 0.04664 0.36919 0.79945 0.0
H580 H 0.07112 0.4548 0.80778 0.0
H581 H 0.97145 0.50067 0.78037 0.0
H582 H 0.06116 0.7452 0.759 0.0
H583 H 0.03317 0.65824 0.76175 0.0
H584 H 0.14505 0.62578 0.79155 0.0
C585 C 0.04791 0.43686 0.79325 0.0
C586 C 0.00944 0.52769 0.783 0.0
C587 C 0.034 0.388 0.7885 0.0
C588 C 0.07906 0.73326 0.77092 0.0
C589 C 0.06291 0.68328 0.77261 0.0
C590 C 0.10685 0.59887 0.78964 0.0
C591 C 0.03107 0.46189 0.77958 0.0
C592 C 0.04479 0.51349 0.7842 0.0
C593 C 0.08637 0.66625 0.78724 0.0
C594 C 0.07169 0.61335 0.7876 0.0
H595 H 0.96472 0.37192 0.74139 0.0
H596 H -0.01181 0.45591 0.74981 0.0
H597 H 0.12161 0.53975 0.78888 0.0
H598 H 0.17259 0.77605 0.80905 0.0
H599 H 0.14368 0.68893 0.81251 0.0
C600 C 0.3308 0.24689 0.17597 0.0
C601 C 0.30535 0.19772 0.16858 0.0
C602 C 0.32583 0.26036 0.19832 0.0
C603 C 0.24282 0.21842 0.24914 0.0
H604 H 0.35569 0.3161 0.28221 0.0
C605 C 0.22761 0.29978 0.33737 0.0
C606 C 0.2616 0.30648 0.35457 0.0
C607 C 0.23254 0.28699 0.31485 0.0
C608 C 0.32355 0.28868 0.27336 0.0
H609 H 0.25383 0.12451 0.17982 0.0
H610 H 0.24429 0.14791 0.21819 0.0
H611 H 0.36474 0.29328 0.24365 0.0
H612 H 0.32813 0.30509 0.36063 0.0
H613 H 0.33757 0.2848 0.32166 0.0
H614 H 0.20154 0.2143 0.27877 0.0
C615 C 0.26859 0.17632 0.20673 0.0
C616 C 0.32875 0.27572 0.25096 0.0
C617 C 0.27432 0.16274 0.18454 0.0
C618 C 0.30115 0.30071 0.34811 0.0
C619 C 0.30666 0.28902 0.32554 0.0
C620 C 0.23746 0.23214 0.27138 0.0
C621 C 0.29437 0.22544 0.21422 0.0
C622 C 0.28857 0.24003 0.23833 0.0
C623 C 0.27226 0.28137 0.30837 0.0
C624 C 0.27775 0.26738 0.28411 0.0
H625 H 0.35507 0.27525 0.16447 0.0
H626 H 0.34624 0.29858 0.20302 0.0
H627 H 0.21066 0.19111 0.24026 0.0
H628 H 0.19637 0.30334 0.34138 0.0
H629 H 0.20521 0.28189 0.3024 0.0
C630 C 0.18599 0.27227 0.51677 0.0
C631 C 0.18194 0.3035 0.50086 0.0
C632 C 0.16756 0.26663 0.53914 0.0
C633 C 0.13081 0.32755 0.58379 0.0
H634 H 0.06499 0.20017 0.61215 0.0
C635 C 0.08045 0.3011 0.68133 0.0
C636 C 0.03515 0.26138 0.68808 0.0
C637 C 0.09715 0.30631 0.65868 0.0
C638 C 0.08312 0.23616 0.60462 0.0
H639 H 0.15489 0.3537 0.49712 0.0
H640 H 0.12436 0.34508 0.53589 0.0
H641 H 0.0961 0.20896 0.57348 0.0
H642 H 0.97271 0.19543 0.67526 0.0
H643 H 0.00213 0.20371 0.63621 0.0
H644 H 0.11864 0.35491 0.61506 0.0
C645 C 0.14154 0.3244 0.53104 0.0
C646 C 0.1015 0.24133 0.58226 0.0
C647 C 0.15905 0.32924 0.50853 0.0
C648 C 0.00749 0.22685 0.67105 0.0
C649 C 0.02473 0.23147 0.64847 0.0
C650 C 0.11338 0.32255 0.60631 0.0
C651 C 0.14506 0.29274 0.5469 0.0
C652 C 0.12561 0.28713 0.57121 0.0
C653 C 0.06997 0.27142 0.64169 0.0
C654 C 0.08885 0.2767 0.61729 0.0
H655 H 0.2031 0.25154 0.51187 0.0
H656 H 0.1717 0.24215 0.55052 0.0
H657 H 0.14923 0.36362 0.57634 0.0
H658 H 0.10337 0.32852 0.69367 0.0
H659 H 0.13224 0.33744 0.65462 0.0
C660 C -0.00573 0.20318 0.85276 0.0
C661 C 0.95881 0.18736 0.83529 0.0
C662 C -0.01798 0.18659 0.87547 0.0
C663 C 0.87894 0.08992 0.91247 0.0
H664 H 0.96033 0.17146 0.9616 0.0
C665 C 0.84299 0.02105 1.00834 0.0
C666 C 0.85724 0.05551 1.02618 0.0
C667 C 0.85481 0.03579 0.98529 0.0
C668 C 0.93641 0.14787 0.94835 0.0
H669 H 0.88156 0.14065 0.82918 0.0
H670 H 0.8602 0.1127 0.86823 0.0
H671 H 0.98028 0.19936 0.92279 0.0
H672 H 0.89563 0.13348 1.0326 0.0
H673 H 0.91486 0.15866 0.99338 0.0
H674 H 0.83436 0.03897 0.9382 0.0
C675 C 0.8981 0.13752 0.86449 0.0
C676 C 0.94855 0.16389 0.92558 0.0
C677 C 0.91041 0.15405 0.84176 0.0
C678 C 0.88368 0.10523 1.01977 0.0
C679 C 0.89532 0.11992 0.99687 0.0
C680 C 0.86674 0.07388 0.93529 0.0
C681 C 0.93352 0.15327 0.88208 0.0
C682 C 0.9202 0.1355 0.90689 0.0
C683 C 0.88152 0.08577 0.97888 0.0
C684 C 0.895 0.10247 0.95396 0.0
H685 H 0.03203 0.22848 0.84889 0.0
H686 H 0.01127 0.19967 0.88779 0.0
H687 H 0.85584 0.06583 0.89914 0.0
H688 H 0.82312 0.98241 1.01217 0.0
H689 H 0.84355 0.00756 0.97253 0.0
C690 C 0.86384 0.00579 0.18943 0.0
C691 C 0.83932 0.96987 0.17249 0.0
C692 C 0.86878 -0.00674 0.21202 0.0
C693 C 0.85577 0.88737 0.24888 0.0
H694 H 0.86719 0.97314 0.29815 0.0
C695 C 0.89356 0.85041 0.3437 0.0
C696 C 0.87563 0.86583 0.36185 0.0
C697 C 0.88998 0.86267 0.3208 0.0
C698 C 0.86362 0.94807 0.28483 0.0
H699 H 0.80066 0.8916 0.16711 0.0
H700 H 0.80835 0.86985 0.20603 0.0
H701 H 0.85788 -0.00626 0.25951 0.0
H702 H 0.83961 0.90693 0.36909 0.0
H703 H 0.83265 0.92711 0.33005 0.0
H704 H 0.86034 0.8411 0.27437 0.0
C705 C 0.82475 0.90819 0.20192 0.0
C706 C 0.85892 0.9605 0.26221 0.0
C707 C 0.81988 0.92076 0.17931 0.0
C708 C 0.85407 0.89403 0.35598 0.0
C709 C 0.85043 0.90617 0.33322 0.0
C710 C 0.86048 0.87492 0.27155 0.0
C711 C 0.8494 0.94407 0.21895 0.0
C712 C 0.85475 0.9305 0.24354 0.0
C713 C 0.86836 0.89104 0.31493 0.0
C714 C 0.86432 0.90481 0.29021 0.0
H715 H 0.8798 0.04407 0.18521 0.0
H716 H 0.88877 0.02271 0.22397 0.0
H717 H 0.85345 0.86299 0.23548 0.0
H718 H 0.91093 0.82917 0.34716 0.0
H719 H 0.90508 0.85041 0.30773 0.0
C720 C 0.93347 0.86392 0.52407 0.0
C721 C 0.94471 0.84028 0.50683 0.0
C722 C 0.95188 0.86877 0.54646 0.0
C723 C 0.04748 0.85834 0.58203 0.0
H724 H 0.97324 0.86497 0.63218 0.0
C725 C 0.12533 0.89702 0.67632 0.0
C726 C 0.0925 0.87693 0.69454 0.0
C727 C 0.10865 0.89327 0.65356 0.0
C728 C -0.00528 0.86275 0.61859 0.0
H729 H -0.015 0.80308 0.50063 0.0
H730 H 0.0161 0.8106 0.5393 0.0
H731 H 0.94169 0.85546 0.5938 0.0
H732 H 0.01548 0.83669 0.70213 0.0
H733 H -0.01303 0.82942 0.66328 0.0
H734 H 0.09998 0.86445 0.60702 0.0
C735 C -0.00646 0.82635 0.53555 0.0
C736 C 0.97664 0.85796 0.59615 0.0
C737 C 0.97515 0.82156 0.51312 0.0
C738 C 0.04244 0.85291 0.68892 0.0
C739 C 0.02584 0.84908 0.6663 0.0
C740 C 0.06561 0.86314 0.60453 0.0
C741 C -0.01751 0.85018 0.55285 0.0
C742 C 0.00241 0.85551 0.57721 0.0
C743 C 0.05836 0.86931 0.64796 0.0
C744 C 0.0396 0.86525 0.62346 0.0
H745 H 0.9106 0.87931 0.52023 0.0
H746 H 0.94257 0.88813 0.55868 0.0
H747 H 0.06946 0.85738 0.56835 0.0
H748 H 0.16413 0.91632 0.67964 0.0
H749 H 0.13553 0.91011 0.64038 0.0
C750 C 0.23895 0.98457 0.84429 0.0
C751 C 0.18993 0.95108 0.83863 0.0
C752 C 0.25301 0.00424 0.86646 0.0
C753 C 0.20917 0.98553 0.92752 0.0
H754 H 0.3177 0.11679 0.93612 0.0
C755 C 0.28582 0.06161 1.01861 0.0
C756 C 0.30489 0.11163 1.02362 0.0
C757 C 0.27263 0.04308 0.99628 0.0
C758 C 0.28703 0.08014 0.93424 0.0
H759 H 0.11751 0.91266 0.85284 0.0
H760 H 0.14158 0.94654 0.891 0.0
H761 H 0.29321 0.08341 0.89791 0.0
H762 H 0.32453 0.181 1.00805 0.0
H763 H 0.30182 0.14903 0.96932 0.0
H764 H 0.20238 0.98248 0.96377 0.0
C765 C 0.16971 0.95747 0.87839 0.0
C766 C 0.27317 0.0605 0.91205 0.0
C767 C 0.15566 0.93795 0.85622 0.0
C768 C 0.31059 0.14243 1.00515 0.0
C769 C 0.29748 0.12386 0.98272 0.0
C770 C 0.22314 0.00507 0.94968 0.0
C771 C 0.21874 -0.00873 0.88409 0.0
C772 C 0.23387 0.01264 0.9081 0.0
C773 C 0.2778 0.07358 0.97775 0.0
C774 C 0.2625 0.05285 0.95365 0.0
H775 H 0.26679 -0.00401 0.83149 0.0
H776 H 0.29119 0.02936 0.86977 0.0
H777 H 0.1791 0.94852 0.92572 0.0
H778 H 0.28055 0.03623 1.03208 0.0
H779 H 0.25864 0.00446 0.99361 0.0
loop_
_geom_bond_atom_site_label_1
_geom_bond_atom_site_label_2
_geom_bond_distance
_geom_bond_site_symmetry_2
_ccdc_geom_bond_type
Sm0 C2 2.846 . S
Sm0 O20 2.543 . S
Sm0 O21 2.450 . S
Sm0 O22 2.681 1_554 S
Sm0 O23 2.464 . S
Sm0 O24 2.396 . S
Sm0 O28 2.386 . S
Sm0 O31 2.408 1_554 S
Sm1 C11 2.846 . S
Sm1 O22 2.386 . S
Sm1 O25 2.408 1_556 S
Sm1 O26 2.543 . S
Sm1 O27 2.450 . S
Sm1 O28 2.681 1_556 S
Sm1 O29 2.464 . S
Sm1 O30 2.396 . S
C2 Sm0 2.846 . S
C2 C3 1.506 . S
C2 O20 1.261 . S
C2 O21 1.242 . S
C3 C2 1.506 . S
C3 C4 1.358 . S
C3 C8 1.382 . S
C4 C3 1.358 . S
C4 C5 1.385 . S
C4 H32 0.930 . S
C5 C4 1.385 . S
C5 C6 1.395 . S
C5 H33 0.929 . S
C6 C5 1.395 . S
C6 C7 1.335 . S
C7 C6 1.335 . S
C7 C8 1.398 . S
C7 H34 0.930 1_545 S
C8 C3 1.382 . S
C8 C7 1.398 . S
C8 H35 0.929 . S
C9 O22 1.271 1_554 S
C9 O23 1.251 . S
C10 O24 1.252 . S
C10 O25 1.272 . S
C11 Sm1 2.846 . S
C11 C12 1.506 . S
C11 O26 1.261 . S
C11 O27 1.242 . S
C12 C11 1.506 . S
C12 C13 1.358 . S
C12 C17 1.382 . S
C13 C12 1.358 . S
C13 C14 1.385 . S
C13 H36 0.930 . S
C14 C13 1.385 . S
C14 C15 1.395 . S
C14 H37 0.929 . S
C15 C14 1.395 . S
C15 C16 1.335 . S
C16 C15 1.335 . S
C16 C17 1.398 . S
C16 H38 0.930 . S
C17 C12 1.382 . S
C17 C16 1.398 . S
C17 H39 0.929 . S
C18 O28 1.271 . S
C18 O29 1.251 1_554 S
C19 O30 1.252 . S
C19 O31 1.272 . S
O20 Sm0 2.543 . S
O20 C2 1.261 . S
O21 Sm0 2.450 . S
O21 C2 1.242 . S
O22 Sm0 2.681 1_556 S
O22 Sm1 2.386 . S
O22 C9 1.271 1_556 S
O23 Sm0 2.464 . S
O23 C9 1.251 . S
O24 Sm0 2.396 . S
O24 C10 1.252 . S
O25 Sm1 2.408 1_554 S
O25 C10 1.272 . S
O26 Sm1 2.543 . S
O26 C11 1.261 . S
O27 Sm1 2.450 . S
O27 C11 1.242 . S
O28 Sm0 2.386 . S
O28 Sm1 2.681 1_554 S
O28 C18 1.271 . S
O29 Sm1 2.464 . S
O29 C18 1.251 1_556 S
O30 Sm1 2.396 . S
O30 C19 1.252 . S
O31 Sm0 2.408 1_556 S
O31 C19 1.272 . S
H32 C4 0.930 . S
H33 C5 0.929 . S
H34 C7 0.930 1_565 S
H35 C8 0.929 . S
H36 C13 0.930 . S
H37 C14 0.929 . S
H38 C16 0.930 . S
H39 C17 0.929 . S
Sm40 C42 2.846 . S
Sm40 O60 2.543 . S
Sm40 O61 2.450 . S
Sm40 O62 2.681 . S
Sm40 O63 2.464 . S
Sm40 O64 2.396 . S
Sm40 O68 2.386 . S
Sm40 O71 2.408 . S
Sm41 C51 2.846 . S
Sm41 O62 2.386 . S
Sm41 O65 2.408 . S
Sm41 O66 2.543 . S
Sm41 O67 2.450 . S
Sm41 O68 2.681 . S
Sm41 O69 2.464 . S
Sm41 O70 2.396 . S
C42 Sm40 2.846 . S
C42 C43 1.506 . S
C42 O60 1.261 . S
C42 O61 1.242 . S
C43 C42 1.506 . S
C43 C44 1.358 . S
C43 C48 1.382 . S
C44 C43 1.358 . S
C44 C45 1.385 . S
C44 H72 0.930 . S
C45 C44 1.385 . S
C45 C46 1.395 . S
C45 H73 0.929 . S
C46 C45 1.395 . S
C46 C47 1.335 . S
C47 C46 1.335 . S
C47 C48 1.398 . S
C47 H74 0.930 . S
C48 C43 1.382 . S
C48 C47 1.398 . S
C48 H75 0.929 . S
C49 O62 1.271 . S
C49 O63 1.251 . S
C50 O64 1.252 . S
C50 O65 1.272 . S
C51 Sm41 2.846 . S
C51 C52 1.506 . S
C51 O66 1.261 . S
C51 O67 1.242 . S
C52 C51 1.506 . S
C52 C53 1.358 . S
C52 C57 1.382 . S
C53 C52 1.358 . S
C53 C54 1.385 . S
C53 H76 0.930 . S
C54 C53 1.385 . S
C54 C55 1.395 . S
C54 H77 0.929 . S
C55 C54 1.395 . S
C55 C56 1.335 . S
C56 C55 1.335 . S
C56 C57 1.398 . S
C56 H78 0.930 . S
C57 C52 1.382 . S
C57 C56 1.398 . S
C57 H79 0.929 . S
C58 O68 1.271 . S
C58 O69 1.251 . S
C59 O70 1.252 . S
C59 O71 1.272 . S
O60 Sm40 2.543 . S
O60 C42 1.261 . S
O61 Sm40 2.450 . S
O61 C42 1.242 . S
O62 Sm40 2.681 . S
O62 Sm41 2.386 . S
O62 C49 1.271 . S
O63 Sm40 2.464 . S
O63 C49 1.251 . S
O64 Sm40 2.396 . S
O64 C50 1.252 . S
O65 Sm41 2.408 . S
O65 C50 1.272 . S
O66 Sm41 2.543 . S
O66 C51 1.261 . S
O67 Sm41 2.450 . S
O67 C51 1.242 . S
O68 Sm40 2.386 . S
O68 Sm41 2.681 . S
O68 C58 1.271 . S
O69 Sm41 2.464 . S
O69 C58 1.251 . S
O70 Sm41 2.396 . S
O70 C59 1.252 . S
O71 Sm40 2.408 . S
O71 C59 1.272 . S
H72 C44 0.930 . S
H73 C45 0.929 . S
H74 C47 0.930 . S
H75 C48 0.929 . S
H76 C53 0.930 . S
H77 C54 0.929 . S
H78 C56 0.930 . S
H79 C57 0.929 . S
Sm80 C82 2.846 . S
Sm80 O100 2.543 . S
Sm80 O101 2.450 . S
Sm80 O102 2.681 1_455 S
Sm80 O103 2.464 . S
Sm80 O104 2.396 1_455 S
Sm80 O108 2.386 . S
Sm80 O111 2.408 . S
Sm81 C91 2.846 . S
Sm81 O102 2.386 . S
Sm81 O105 2.408 . S
Sm81 O106 2.543 . S
Sm81 O107 2.450 . S
Sm81 O108 2.681 1_655 S
Sm81 O109 2.464 . S
Sm81 O110 2.396 1_655 S
C82 Sm80 2.846 . S
C82 C83 1.506 . S
C82 O100 1.261 . S
C82 O101 1.242 . S
C83 C82 1.506 . S
C83 C84 1.358 . S
C83 C88 1.382 . S
C84 C83 1.358 . S
C84 C85 1.385 . S
C84 H112 0.930 . S
C85 C84 1.385 . S
C85 C86 1.395 . S
C85 H113 0.929 . S
C86 C85 1.395 . S
C86 C87 1.335 . S
C87 C86 1.335 . S
C87 C88 1.398 . S
C87 H114 0.930 . S
C88 C83 1.382 . S
C88 C87 1.398 . S
C88 H115 0.929 . S
C89 O102 1.271 1_455 S
C89 O103 1.251 . S
C90 O104 1.252 . S
C90 O105 1.272 . S
C91 Sm81 2.846 . S
C91 C92 1.506 . S
C91 O106 1.261 . S
C91 O107 1.242 . S
C92 C91 1.506 . S
C92 C93 1.358 . S
C92 C97 1.382 . S
C93 C92 1.358 . S
C93 C94 1.385 . S
C93 H116 0.930 . S
C94 C93 1.385 . S
C94 C95 1.395 . S
C94 H117 0.929 . S
C95 C94 1.395 . S
C95 C96 1.335 . S
C96 C95 1.335 . S
C96 C97 1.398 . S
C96 H118 0.930 . S
C97 C92 1.382 . S
C97 C96 1.398 . S
C97 H119 0.929 . S
C98 O108 1.271 1_655 S
C98 O109 1.251 . S
C99 O110 1.252 . S
C99 O111 1.272 . S
O100 Sm80 2.543 . S
O100 C82 1.261 . S
O101 Sm80 2.450 . S
O101 C82 1.242 . S
O102 Sm80 2.681 1_655 S
O102 Sm81 2.386 . S
O102 C89 1.271 1_655 S
O103 Sm80 2.464 . S
O103 C89 1.251 . S
O104 Sm80 2.396 1_655 S
O104 C90 1.252 . S
O105 Sm81 2.408 . S
O105 C90 1.272 . S
O106 Sm81 2.543 . S
O106 C91 1.261 . S
O107 Sm81 2.450 . S
O107 C91 1.242 . S
O108 Sm80 2.386 . S
O108 Sm81 2.681 1_455 S
O108 C98 1.271 1_455 S
O109 Sm81 2.464 . S
O109 C98 1.251 . S
O110 Sm81 2.396 1_455 S
O110 C99 1.252 . S
O111 Sm80 2.408 . S
O111 C99 1.272 . S
H112 C84 0.930 . S
H113 C85 0.929 . S
H114 C87 0.930 . S
H115 C88 0.929 . S
H116 C93 0.930 . S
H117 C94 0.929 . S
H118 C96 0.930 . S
H119 C97 0.929 . S
Sm120 C122 2.846 . S
Sm120 O140 2.543 . S
Sm120 O141 2.450 . S
Sm120 O142 2.681 1_544 S
Sm120 O143 2.464 . S
Sm120 O144 2.396 1_545 S
Sm120 O148 2.386 . S
Sm120 O151 2.408 1_554 S
Sm121 C131 2.846 . S
Sm121 O142 2.386 . S
Sm121 O145 2.408 1_556 S
Sm121 O146 2.543 . S
Sm121 O147 2.450 . S
Sm121 O148 2.681 1_566 S
Sm121 O149 2.464 . S
Sm121 O150 2.396 1_565 S
C122 Sm120 2.846 . S
C122 C123 1.506 . S
C122 O140 1.261 . S
C122 O141 1.242 . S
C123 C122 1.506 . S
C123 C124 1.358 . S
C123 C128 1.382 . S
C124 C123 1.358 . S
C124 C125 1.385 . S
C124 H152 0.930 . S
C125 C124 1.385 . S
C125 C126 1.395 . S
C125 H153 0.929 . S
C126 C125 1.395 . S
C126 C127 1.335 . S
C127 C126 1.335 . S
C127 C128 1.398 . S
C127 H154 0.930 . S
C128 C123 1.382 . S
C128 C127 1.398 . S
C128 H155 0.929 . S
C129 O142 1.271 1_544 S
C129 O143 1.251 . S
C130 O144 1.252 . S
C130 O145 1.272 . S
C131 Sm121 2.846 . S
C131 C132 1.506 . S
C131 O146 1.261 . S
C131 O147 1.242 . S
C132 C131 1.506 . S
C132 C133 1.358 . S
C132 C137 1.382 . S
C133 C132 1.358 . S
C133 C134 1.385 . S
C133 H156 0.930 . S
C134 C133 1.385 . S
C134 C135 1.395 . S
C134 H157 0.929 . S
C135 C134 1.395 . S
C135 C136 1.335 . S
C136 C135 1.335 . S
C136 C137 1.398 . S
C136 H158 0.930 . S
C137 C132 1.382 . S
C137 C136 1.398 . S
C137 H159 0.929 . S
C138 O148 1.271 1_565 S
C138 O149 1.251 1_554 S
C139 O150 1.252 . S
C139 O151 1.272 . S
O140 Sm120 2.543 . S
O140 C122 1.261 . S
O141 Sm120 2.450 . S
O141 C122 1.242 . S
O142 Sm120 2.681 1_566 S
O142 Sm121 2.386 . S
O142 C129 1.271 1_566 S
O143 Sm120 2.464 . S
O143 C129 1.251 . S
O144 Sm120 2.396 1_565 S
O144 C130 1.252 . S
O145 Sm121 2.408 1_554 S
O145 C130 1.272 . S
O146 Sm121 2.543 . S
O146 C131 1.261 . S
O147 Sm121 2.450 . S
O147 C131 1.242 . S
O148 Sm120 2.386 . S
O148 Sm121 2.681 1_544 S
O148 C138 1.271 1_545 S
O149 Sm121 2.464 . S
O149 C138 1.251 1_556 S
O150 Sm121 2.396 1_545 S
O150 C139 1.252 . S
O151 Sm120 2.408 1_556 S
O151 C139 1.272 . S
H152 C124 0.930 . S
H153 C125 0.929 . S
H154 C127 0.930 . S
H155 C128 0.929 . S
H156 C133 0.930 . S
H157 C134 0.929 . S
H158 C136 0.930 . S
H159 C137 0.929 . S
Sm160 C162 2.846 . S
Sm160 O180 2.543 . S
Sm160 O181 2.450 . S
Sm160 O182 2.681 . S
Sm160 O183 2.464 . S
Sm160 O184 2.396 . S
Sm160 O188 2.386 . S
Sm160 O191 2.408 . S
Sm161 C171 2.846 . S
Sm161 O182 2.386 . S
Sm161 O185 2.408 . S
Sm161 O186 2.543 . S
Sm161 O187 2.450 . S
Sm161 O188 2.681 . S
Sm161 O189 2.464 . S
Sm161 O190 2.396 . S
C162 Sm160 2.846 . S
C162 C163 1.506 . S
C162 O180 1.261 . S
C162 O181 1.242 . S
C163 C162 1.506 . S
C163 C164 1.358 . S
C163 C168 1.382 . S
C164 C163 1.358 . S
C164 C165 1.385 . S
C164 H192 0.930 . S
C165 C164 1.385 . S
C165 C166 1.395 . S
C165 H193 0.929 . S
C166 C165 1.395 . S
C166 C167 1.335 . S
C167 C166 1.335 . S
C167 C168 1.398 . S
C167 H194 0.930 . S
C168 C163 1.382 . S
C168 C167 1.398 . S
C168 H195 0.929 . S
C169 O182 1.271 . S
C169 O183 1.251 . S
C170 O184 1.252 . S
C170 O185 1.272 . S
C171 Sm161 2.846 . S
C171 C172 1.506 . S
C171 O186 1.261 . S
C171 O187 1.242 . S
C172 C171 1.506 . S
C172 C173 1.358 1_655 S
C172 C177 1.382 . S
C173 C172 1.358 1_455 S
C173 C174 1.385 . S
C173 H196 0.930 . S
C174 C173 1.385 . S
C174 C175 1.395 1_455 S
C174 H197 0.929 . S
C175 C174 1.395 1_655 S
C175 C176 1.335 . S
C176 C175 1.335 . S
C176 C177 1.398 . S
C176 H198 0.930 . S
C177 C172 1.382 . S
C177 C176 1.398 . S
C177 H199 0.929 . S
C178 O188 1.271 . S
C178 O189 1.251 . S
C179 O190 1.252 . S
C179 O191 1.272 . S
O180 Sm160 2.543 . S
O180 C162 1.261 . S
O181 Sm160 2.450 . S
O181 C162 1.242 . S
O182 Sm160 2.681 . S
O182 Sm161 2.386 . S
O182 C169 1.271 . S
O183 Sm160 2.464 . S
O183 C169 1.251 . S
O184 Sm160 2.396 . S
O184 C170 1.252 . S
O185 Sm161 2.408 . S
O185 C170 1.272 . S
O186 Sm161 2.543 . S
O186 C171 1.261 . S
O187 Sm161 2.450 . S
O187 C171 1.242 . S
O188 Sm160 2.386 . S
O188 Sm161 2.681 . S
O188 C178 1.271 . S
O189 Sm161 2.464 . S
O189 C178 1.251 . S
O190 Sm161 2.396 . S
O190 C179 1.252 . S
O191 Sm160 2.408 . S
O191 C179 1.272 . S
H192 C164 0.930 . S
H193 C165 0.929 . S
H194 C167 0.930 . S
H195 C168 0.929 . S
H196 C173 0.930 . S
H197 C174 0.929 . S
H198 C176 0.930 . S
H199 C177 0.929 . S
Sm200 C202 2.846 . S
Sm200 O220 2.543 . S
Sm200 O221 2.450 . S
Sm200 O222 2.681 . S
Sm200 O223 2.464 . S
Sm200 O224 2.396 . S
Sm200 O228 2.386 . S
Sm200 O231 2.408 . S
Sm201 C211 2.846 . S
Sm201 O222 2.386 . S
Sm201 O225 2.408 . S
Sm201 O226 2.543 . S
Sm201 O227 2.450 . S
Sm201 O228 2.681 . S
Sm201 O229 2.464 . S
Sm201 O230 2.396 . S
C202 Sm200 2.846 . S
C202 C203 1.506 . S
C202 O220 1.261 . S
C202 O221 1.242 . S
C203 C202 1.506 . S
C203 C204 1.358 . S
C203 C208 1.382 . S
C204 C203 1.358 . S
C204 C205 1.385 . S
C204 H232 0.930 . S
C205 C204 1.385 . S
C205 C206 1.395 . S
C205 H233 0.929 . S
C206 C205 1.395 . S
C206 C207 1.335 . S
C207 C206 1.335 . S
C207 C208 1.398 . S
C207 H234 0.930 1_455 S
C208 C203 1.382 . S
C208 C207 1.398 . S
C208 H235 0.929 . S
C209 O222 1.271 . S
C209 O223 1.251 . S
C210 O224 1.252 . S
C210 O225 1.272 . S
C211 Sm201 2.846 . S
C211 C212 1.506 . S
C211 O226 1.261 . S
C211 O227 1.242 . S
C212 C211 1.506 . S
C212 C213 1.358 1_565 S
C212 C217 1.382 . S
C213 C212 1.358 1_545 S
C213 C214 1.385 . S
C213 H236 0.930 . S
C214 C213 1.385 . S
C214 C215 1.395 1_545 S
C214 H237 0.929 . S
C215 C214 1.395 1_565 S
C215 C216 1.335 . S
C216 C215 1.335 . S
C216 C217 1.398 . S
C216 H238 0.930 . S
C217 C212 1.382 . S
C217 C216 1.398 . S
C217 H239 0.929 . S
C218 O228 1.271 . S
C218 O229 1.251 . S
C219 O230 1.252 . S
C219 O231 1.272 . S
O220 Sm200 2.543 . S
O220 C202 1.261 . S
O221 Sm200 2.450 . S
O221 C202 1.242 . S
O222 Sm200 2.681 . S
O222 Sm201 2.386 . S
O222 C209 1.271 . S
O223 Sm200 2.464 . S
O223 C209 1.251 . S
O224 Sm200 2.396 . S
O224 C210 1.252 . S
O225 Sm201 2.408 . S
O225 C210 1.272 . S
O226 Sm201 2.543 . S
O226 C211 1.261 . S
O227 Sm201 2.450 . S
O227 C211 1.242 . S
O228 Sm200 2.386 . S
O228 Sm201 2.681 . S
O228 C218 1.271 . S
O229 Sm201 2.464 . S
O229 C218 1.251 . S
O230 Sm201 2.396 . S
O230 C219 1.252 . S
O231 Sm200 2.408 . S
O231 C219 1.272 . S
H232 C204 0.930 . S
H233 C205 0.929 . S
H234 C207 0.930 1_655 S
H235 C208 0.929 . S
H236 C213 0.930 . S
H237 C214 0.929 . S
H238 C216 0.930 . S
H239 C217 0.929 . S
C240 C241 1.336 1_554 S
C240 C242 1.327 . S
C240 H265 0.950 . S
C241 C240 1.336 1_556 S
C241 C257 1.362 1_565 S
C242 C240 1.327 . S
C242 C261 1.416 1_564 S
C242 H266 0.950 . S
C243 C260 1.574 . S
C243 C262 1.383 . S
C243 H267 0.949 . S
H244 C248 0.949 . S
C245 C246 1.363 . S
C245 C247 1.327 . S
C245 H268 0.950 . S
C246 C245 1.363 . S
C246 C258 1.335 1_556 S
C247 C245 1.327 . S
C247 C263 1.442 . S
C247 H269 0.950 . S
C248 H244 0.949 . S
C248 C256 1.574 . S
C248 C264 1.354 1_554 S
H249 C257 0.950 . S
H250 C255 0.950 . S
H251 C256 0.949 . S
H252 C258 0.950 . S
H253 C259 0.950 . S
H254 C260 0.949 . S
C255 H250 0.950 . S
C255 C257 1.327 . S
C255 C261 1.442 . S
C256 C248 1.574 . S
C256 H251 0.949 . S
C256 C262 1.354 1_554 S
C257 C241 1.362 1_545 S
C257 H249 0.950 . S
C257 C255 1.327 . S
C258 C246 1.335 1_554 S
C258 H252 0.950 . S
C258 C259 1.327 . S
C259 H253 0.950 . S
C259 C258 1.327 . S
C259 C263 1.416 1_554 S
C260 C243 1.574 . S
C260 H254 0.949 . S
C260 C264 1.383 . S
C261 C242 1.416 1_546 S
C261 C255 1.442 . S
C261 C262 1.523 1_655 S
C262 C243 1.383 . S
C262 C256 1.354 1_556 S
C262 C261 1.523 1_455 S
C263 C247 1.442 . S
C263 C259 1.416 1_556 S
C263 C264 1.523 . S
C264 C248 1.354 1_556 S
C264 C260 1.383 . S
C264 C263 1.523 . S
H265 C240 0.950 . S
H266 C242 0.950 . S
H267 C243 0.949 . S
H268 C245 0.950 . S
H269 C247 0.950 . S
C270 C271 1.349 1_455 S
C270 C272 1.327 . S
C270 H295 0.950 . S
C271 C270 1.349 1_655 S
C271 C287 1.349 . S
C272 C270 1.327 . S
C272 C291 1.429 . S
C272 H296 0.950 . S
C273 C290 1.574 . S
C273 C292 1.368 . S
C273 H297 0.949 . S
H274 C278 0.949 . S
C275 C276 1.349 . S
C275 C277 1.327 . S
C275 H298 0.950 . S
C276 C275 1.349 . S
C276 C288 1.349 . S
C277 C275 1.327 . S
C277 C293 1.429 . S
C277 H299 0.950 . S
C278 H274 0.949 . S
C278 C286 1.574 . S
C278 C294 1.368 . S
H279 C287 0.950 . S
H280 C285 0.950 . S
H281 C286 0.949 . S
H282 C288 0.950 . S
H283 C289 0.950 . S
H284 C290 0.949 . S
C285 H280 0.950 . S
C285 C287 1.327 . S
C285 C291 1.429 1_655 S
C286 C278 1.574 . S
C286 H281 0.949 . S
C286 C292 1.368 . S
C287 C271 1.349 . S
C287 H279 0.950 . S
C287 C285 1.327 . S
C288 C276 1.349 . S
C288 H282 0.950 . S
C288 C289 1.327 . S
C289 H283 0.950 . S
C289 C288 1.327 . S
C289 C293 1.429 . S
C290 C273 1.574 . S
C290 H284 0.949 . S
C290 C294 1.368 . S
C291 C272 1.429 . S
C291 C285 1.429 1_455 S
C291 C292 1.523 1_565 S
C292 C273 1.368 . S
C292 C286 1.368 . S
C292 C291 1.523 1_545 S
C293 C277 1.429 . S
C293 C289 1.429 . S
C293 C294 1.523 . S
C294 C278 1.368 . S
C294 C290 1.368 . S
C294 C293 1.523 . S
H295 C270 0.950 . S
H296 C272 0.950 . S
H297 C273 0.949 . S
H298 C275 0.950 . S
H299 C277 0.950 . S
C300 C301 1.349 1_545 S
C300 C302 1.327 . S
C300 H325 0.950 . S
C301 C300 1.349 1_565 S
C301 C317 1.349 . S
C302 C300 1.327 . S
C302 C321 1.429 . S
C302 H326 0.950 . S
C303 C320 1.574 . S
C303 C322 1.368 . S
C303 H327 0.949 . S
H304 C308 0.949 . S
C305 C306 1.349 . S
C305 C307 1.327 . S
C305 H328 0.950 . S
C306 C305 1.349 . S
C306 C318 1.349 1_655 S
C307 C305 1.327 . S
C307 C323 1.429 1_655 S
C307 H329 0.950 . S
C308 H304 0.949 . S
C308 C316 1.574 . S
C308 C324 1.368 . S
H309 C317 0.950 . S
H310 C315 0.950 . S
H311 C316 0.949 . S
H312 C318 0.950 . S
H313 C319 0.950 . S
H314 C320 0.949 . S
C315 H310 0.950 . S
C315 C317 1.327 . S
C315 C321 1.429 1_565 S
C316 C308 1.574 . S
C316 H311 0.949 . S
C316 C322 1.368 . S
C317 C301 1.349 . S
C317 H309 0.950 . S
C317 C315 1.327 . S
C318 C306 1.349 1_455 S
C318 H312 0.950 . S
C318 C319 1.327 . S
C319 H313 0.950 . S
C319 C318 1.327 . S
C319 C323 1.429 . S
C320 C303 1.574 . S
C320 H314 0.949 . S
C320 C324 1.368 . S
C321 C302 1.429 . S
C321 C315 1.429 1_545 S
C321 C322 1.523 . S
C322 C303 1.368 . S
C322 C316 1.368 . S
C322 C321 1.523 . S
C323 C307 1.429 1_455 S
C323 C319 1.429 . S
C323 C324 1.523 . S
C324 C308 1.368 . S
C324 C320 1.368 . S
C324 C323 1.523 . S
H325 C300 0.950 . S
H326 C302 0.950 . S
H327 C303 0.949 . S
H328 C305 0.950 . S
H329 C307 0.950 . S
C330 C331 1.349 . S
C330 C332 1.327 . S
C330 H355 0.950 . S
C331 C330 1.349 . S
C331 C347 1.349 . S
C332 C330 1.327 . S
C332 C351 1.429 . S
C332 H356 0.950 . S
C333 C350 1.574 . S
C333 C352 1.368 . S
C333 H357 0.949 . S
H334 C338 0.949 . S
C335 C336 1.349 . S
C335 C337 1.327 . S
C335 H358 0.950 . S
C336 C335 1.349 . S
C336 C348 1.349 . S
C337 C335 1.327 . S
C337 C353 1.429 . S
C337 H359 0.950 . S
C338 H334 0.949 . S
C338 C346 1.574 . S
C338 C354 1.368 . S
H339 C347 0.950 . S
H340 C345 0.950 . S
H341 C346 0.949 . S
H342 C348 0.950 . S
H343 C349 0.950 . S
H344 C350 0.949 . S
C345 H340 0.950 . S
C345 C347 1.327 . S
C345 C351 1.429 . S
C346 C338 1.574 . S
C346 H341 0.949 . S
C346 C352 1.368 . S
C347 C331 1.349 . S
C347 H339 0.950 . S
C347 C345 1.327 . S
C348 C336 1.349 . S
C348 H342 0.950 . S
C348 C349 1.327 . S
C349 H343 0.950 . S
C349 C348 1.327 . S
C349 C353 1.429 . S
C350 C333 1.574 . S
C350 H344 0.949 . S
C350 C354 1.368 . S
C351 C332 1.429 . S
C351 C345 1.429 . S
C351 C352 1.523 . S
C352 C333 1.368 . S
C352 C346 1.368 . S
C352 C351 1.523 . S
C353 C337 1.429 . S
C353 C349 1.429 . S
C353 C354 1.523 . S
C354 C338 1.368 . S
C354 C350 1.368 . S
C354 C353 1.523 . S
H355 C330 0.950 . S
H356 C332 0.950 . S
H357 C333 0.949 . S
H358 C335 0.950 . S
H359 C337 0.950 . S
C360 C361 1.349 . S
C360 C362 1.327 . S
C360 H385 0.950 . S
C361 C360 1.349 . S
C361 C377 1.349 . S
C362 C360 1.327 . S
C362 C381 1.429 . S
C362 H386 0.950 . S
C363 C380 1.574 . S
C363 C382 1.368 . S
C363 H387 0.949 . S
H364 C368 0.949 . S
C365 C366 1.349 . S
C365 C367 1.327 . S
C365 H388 0.950 . S
C366 C365 1.349 . S
C366 C378 1.349 . S
C367 C365 1.327 . S
C367 C383 1.429 . S
C367 H389 0.950 . S
C368 H364 0.949 . S
C368 C376 1.574 1_655 S
C368 C384 1.368 . S
H369 C377 0.950 . S
H370 C375 0.950 . S
H371 C376 0.949 . S
H372 C378 0.950 . S
H373 C379 0.950 . S
H374 C380 0.949 . S
C375 H370 0.950 . S
C375 C377 1.327 . S
C375 C381 1.429 . S
C376 C368 1.574 1_455 S
C376 H371 0.949 . S
C376 C382 1.368 . S
C377 C361 1.349 . S
C377 H369 0.950 . S
C377 C375 1.327 . S
C378 C366 1.349 . S
C378 H372 0.950 . S
C378 C379 1.327 . S
C379 H373 0.950 . S
C379 C378 1.327 . S
C379 C383 1.429 . S
C380 C363 1.574 . S
C380 H374 0.949 . S
C380 C384 1.368 1_455 S
C381 C362 1.429 . S
C381 C375 1.429 . S
C381 C382 1.523 . S
C382 C363 1.368 . S
C382 C376 1.368 . S
C382 C381 1.523 . S
C383 C367 1.429 . S
C383 C379 1.429 . S
C383 C384 1.523 . S
C384 C368 1.368 . S
C384 C380 1.368 1_655 S
C384 C383 1.523 . S
H385 C360 0.950 . S
H386 C362 0.950 . S
H387 C363 0.949 . S
H388 C365 0.950 . S
H389 C367 0.950 . S
C390 C391 1.349 . S
C390 C392 1.327 . S
C390 H415 0.950 . S
C391 C390 1.349 . S
C391 C407 1.349 . S
C392 C390 1.327 . S
C392 C411 1.429 . S
C392 H416 0.950 . S
C393 C410 1.574 . S
C393 C412 1.368 . S
C393 H417 0.949 . S
H394 C398 0.949 . S
C395 C396 1.349 . S
C395 C397 1.327 . S
C395 H418 0.950 . S
C396 C395 1.349 . S
C396 C408 1.349 . S
C397 C395 1.327 . S
C397 C413 1.429 . S
C397 H419 0.950 . S
C398 H394 0.949 . S
C398 C406 1.574 1_565 S
C398 C414 1.368 . S
H399 C407 0.950 . S
H400 C405 0.950 . S
H401 C406 0.949 . S
H402 C408 0.950 . S
H403 C409 0.950 . S
H404 C410 0.949 . S
C405 H400 0.950 . S
C405 C407 1.327 . S
C405 C411 1.429 . S
C406 C398 1.574 1_545 S
C406 H401 0.949 . S
C406 C412 1.368 . S
C407 C391 1.349 . S
C407 H399 0.950 . S
C407 C405 1.327 . S
C408 C396 1.349 . S
C408 H402 0.950 . S
C408 C409 1.327 . S
C409 H403 0.950 . S
C409 C408 1.327 . S
C409 C413 1.429 . S
C410 C393 1.574 . S
C410 H404 0.949 . S
C410 C414 1.368 1_545 S
C411 C392 1.429 . S
C411 C405 1.429 . S
C411 C412 1.523 . S
C412 C393 1.368 . S
C412 C406 1.368 . S
C412 C411 1.523 . S
C413 C397 1.429 . S
C413 C409 1.429 . S
C413 C414 1.523 . S
C414 C398 1.368 . S
C414 C410 1.368 1_565 S
C414 C413 1.523 . S
H415 C390 0.950 . S
H416 C392 0.950 . S
H417 C393 0.949 . S
H418 C395 0.950 . S
H419 C397 0.950 . S
C420 C421 1.349 . S
C420 C422 1.327 . S
C420 H445 0.950 . S
C421 C420 1.349 . S
C421 C437 1.349 . S
C422 C420 1.327 . S
C422 C441 1.429 . S
C422 H446 0.950 . S
C423 C440 1.574 . S
C423 C442 1.368 . S
C423 H447 0.949 . S
H424 C428 0.949 . S
C425 C426 1.349 . S
C425 C427 1.327 1_455 S
C425 H448 0.950 . S
C426 C425 1.349 . S
C426 C438 1.349 1_455 S
C427 C425 1.327 1_655 S
C427 C443 1.429 . S
C427 H449 0.950 . S
C428 H424 0.949 . S
C428 C436 1.574 . S
C428 C444 1.368 . S
H429 C437 0.950 . S
H430 C435 0.950 . S
H431 C436 0.949 . S
H432 C438 0.950 . S
H433 C439 0.950 . S
H434 C440 0.949 . S
C435 H430 0.950 . S
C435 C437 1.327 . S
C435 C441 1.429 . S
C436 C428 1.574 . S
C436 H431 0.949 . S
C436 C442 1.368 . S
C437 C421 1.349 . S
C437 H429 0.950 . S
C437 C435 1.327 . S
C438 C426 1.349 1_655 S
C438 H432 0.950 . S
C438 C439 1.327 . S
C439 H433 0.950 . S
C439 C438 1.327 . S
C439 C443 1.429 . S
C440 C423 1.574 . S
C440 H434 0.949 . S
C440 C444 1.368 . S
C441 C422 1.429 . S
C441 C435 1.429 . S
C441 C442 1.523 . S
C442 C423 1.368 . S
C442 C436 1.368 . S
C442 C441 1.523 . S
C443 C427 1.429 . S
C443 C439 1.429 . S
C443 C444 1.523 . S
C444 C428 1.368 . S
C444 C440 1.368 . S
C444 C443 1.523 . S
H445 C420 0.950 . S
H446 C422 0.950 . S
H447 C423 0.949 . S
H448 C425 0.950 . S
H449 C427 0.950 . S
C450 C451 1.349 . S
C450 C452 1.327 1_655 S
C450 H475 0.950 . S
C451 C450 1.349 . S
C451 C467 1.349 1_655 S
C452 C450 1.327 1_455 S
C452 C471 1.429 . S
C452 H476 0.950 . S
C453 C470 1.574 . S
C453 C472 1.368 . S
C453 H477 0.949 . S
H454 C458 0.949 . S
C455 C456 1.349 . S
C455 C457 1.327 1_545 S
C455 H478 0.950 . S
C456 C455 1.349 . S
C456 C468 1.349 1_545 S
C457 C455 1.327 1_565 S
C457 C473 1.429 . S
C457 H479 0.950 . S
C458 H454 0.949 . S
C458 C466 1.574 . S
C458 C474 1.368 . S
H459 C467 0.950 . S
H460 C465 0.950 . S
H461 C466 0.949 . S
H462 C468 0.950 . S
H463 C469 0.950 . S
H464 C470 0.949 . S
C465 H460 0.950 . S
C465 C467 1.327 . S
C465 C471 1.429 . S
C466 C458 1.574 . S
C466 H461 0.949 . S
C466 C472 1.368 . S
C467 C451 1.349 1_455 S
C467 H459 0.950 . S
C467 C465 1.327 . S
C468 C456 1.349 1_565 S
C468 H462 0.950 . S
C468 C469 1.327 . S
C469 H463 0.950 . S
C469 C468 1.327 . S
C469 C473 1.429 . S
C470 C453 1.574 . S
C470 H464 0.949 . S
C470 C474 1.368 . S
C471 C452 1.429 . S
C471 C465 1.429 . S
C471 C472 1.523 . S
C472 C453 1.368 . S
C472 C466 1.368 . S
C472 C471 1.523 . S
C473 C457 1.429 . S
C473 C469 1.429 . S
C473 C474 1.523 . S
C474 C458 1.368 . S
C474 C470 1.368 . S
C474 C473 1.523 . S
H475 C450 0.950 . S
H476 C452 0.950 . S
H477 C453 0.949 . S
H478 C455 0.950 . S
H479 C457 0.950 . S
C480 C481 1.349 . S
C480 C482 1.327 1_565 S
C480 H505 0.950 . S
C481 C480 1.349 . S
C481 C497 1.349 1_565 S
C482 C480 1.327 1_545 S
C482 C501 1.429 . S
C482 H506 0.950 . S
C483 C500 1.574 . S
C483 C502 1.368 . S
C483 H507 0.949 . S
H484 C488 0.949 . S
C485 C486 1.349 . S
C485 C487 1.327 . S
C485 H508 0.950 . S
C486 C485 1.349 . S
C486 C498 1.349 . S
C487 C485 1.327 . S
C487 C503 1.429 . S
C487 H509 0.950 . S
C488 H484 0.949 . S
C488 C496 1.574 . S
C488 C504 1.368 . S
H489 C497 0.950 . S
H490 C495 0.950 . S
H491 C496 0.949 . S
H492 C498 0.950 . S
H493 C499 0.950 . S
H494 C500 0.949 . S
C495 H490 0.950 . S
C495 C497 1.327 . S
C495 C501 1.429 . S
C496 C488 1.574 . S
C496 H491 0.949 . S
C496 C502 1.368 . S
C497 C481 1.349 1_545 S
C497 H489 0.950 . S
C497 C495 1.327 . S
C498 C486 1.349 . S
C498 H492 0.950 . S
C498 C499 1.327 . S
C499 H493 0.950 . S
C499 C498 1.327 . S
C499 C503 1.429 . S
C500 C483 1.574 . S
C500 H494 0.949 . S
C500 C504 1.368 . S
C501 C482 1.429 . S
C501 C495 1.429 . S
C501 C502 1.523 . S
C502 C483 1.368 . S
C502 C496 1.368 . S
C502 C501 1.523 . S
C503 C487 1.429 . S
C503 C499 1.429 . S
C503 C504 1.523 . S
C504 C488 1.368 . S
C504 C500 1.368 . S
C504 C503 1.523 . S
H505 C480 0.950 . S
H506 C482 0.950 . S
H507 C483 0.949 . S
H508 C485 0.950 . S
H509 C487 0.950 . S
C510 C511 1.349 1_556 S
C510 C512 1.327 . S
C510 H535 0.950 . S
C511 C510 1.349 1_554 S
C511 C527 1.349 . S
C512 C510 1.327 . S
C512 C531 1.429 1_556 S
C512 H536 0.950 . S
C513 C530 1.574 . S
C513 C532 1.368 . S
C513 H537 0.949 . S
H514 C518 0.949 . S
C515 C516 1.349 . S
C515 C517 1.327 1_565 S
C515 H538 0.950 . S
C516 C515 1.349 . S
C516 C528 1.349 1_564 S
C517 C515 1.327 1_545 S
C517 C533 1.429 . S
C517 H539 0.950 1_545 S
C518 H514 0.949 . S
C518 C526 1.574 . S
C518 C534 1.368 1_556 S
H519 C527 0.950 . S
H520 C525 0.950 . S
H521 C526 0.949 . S
H522 C528 0.950 . S
H523 C529 0.950 . S
H524 C530 0.949 . S
C525 H520 0.950 . S
C525 C527 1.327 . S
C525 C531 1.429 . S
C526 C518 1.574 . S
C526 H521 0.949 . S
C526 C532 1.368 1_556 S
C527 C511 1.349 . S
C527 H519 0.950 . S
C527 C525 1.327 . S
C528 C516 1.349 1_546 S
C528 H522 0.950 . S
C528 C529 1.327 . S
C529 H523 0.950 . S
C529 C528 1.327 . S
C529 C533 1.429 1_556 S
C530 C513 1.574 . S
C530 H524 0.949 . S
C530 C534 1.368 . S
C531 C512 1.429 1_554 S
C531 C525 1.429 . S
C531 C532 1.523 . S
C532 C513 1.368 . S
C532 C526 1.368 1_554 S
C532 C531 1.523 . S
C533 C517 1.429 . S
C533 C529 1.429 1_554 S
C533 C534 1.523 . S
C534 C518 1.368 1_554 S
C534 C530 1.368 . S
C534 C533 1.523 . S
H535 C510 0.950 . S
H536 C512 0.950 . S
H537 C513 0.949 . S
H538 C515 0.950 . S
H539 C517 0.950 1_565 S
C540 C541 1.349 . S
C540 C542 1.327 . S
C540 H565 0.950 . S
C541 C540 1.349 . S
C541 C557 1.349 . S
C542 C540 1.327 . S
C542 C561 1.429 . S
C542 H566 0.950 . S
C543 C560 1.574 . S
C543 C562 1.368 . S
C543 H567 0.949 . S
H544 C548 0.949 . S
C545 C546 1.349 . S
C545 C547 1.327 . S
C545 H568 0.950 . S
C546 C545 1.349 . S
C546 C558 1.349 . S
C547 C545 1.327 . S
C547 C563 1.429 . S
C547 H569 0.950 . S
C548 H544 0.949 . S
C548 C556 1.574 . S
C548 C564 1.368 . S
H549 C557 0.950 . S
H550 C555 0.950 . S
H551 C556 0.949 . S
H552 C558 0.950 . S
H553 C559 0.950 . S
H554 C560 0.949 . S
C555 H550 0.950 . S
C555 C557 1.327 . S
C555 C561 1.429 . S
C556 C548 1.574 . S
C556 H551 0.949 . S
C556 C562 1.368 . S
C557 C541 1.349 . S
C557 H549 0.950 . S
C557 C555 1.327 . S
C558 C546 1.349 . S
C558 H552 0.950 . S
C558 C559 1.327 . S
C559 H553 0.950 . S
C559 C558 1.327 . S
C559 C563 1.429 . S
C560 C543 1.574 . S
C560 H554 0.949 . S
C560 C564 1.368 . S
C561 C542 1.429 . S
C561 C555 1.429 . S
C561 C562 1.523 . S
C562 C543 1.368 . S
C562 C556 1.368 . S
C562 C561 1.523 . S
C563 C547 1.429 . S
C563 C559 1.429 . S
C563 C564 1.523 . S
C564 C548 1.368 . S
C564 C560 1.368 . S
C564 C563 1.523 . S
H565 C540 0.950 . S
H566 C542 0.950 . S
H567 C543 0.949 . S
H568 C545 0.950 . S
H569 C547 0.950 . S
C570 C571 1.349 . S
C570 C572 1.327 1_655 S
C570 H595 0.950 . S
C571 C570 1.349 . S
C571 C587 1.349 1_655 S
C572 C570 1.327 1_455 S
C572 C591 1.429 . S
C572 H596 0.950 1_455 S
C573 C590 1.574 . S
C573 C592 1.368 . S
C573 H597 0.949 . S
H574 C578 0.949 . S
C575 C576 1.349 . S
C575 C577 1.327 . S
C575 H598 0.950 . S
C576 C575 1.349 . S
C576 C588 1.349 . S
C577 C575 1.327 . S
C577 C593 1.429 . S
C577 H599 0.950 . S
C578 H574 0.949 . S
C578 C586 1.574 . S
C578 C594 1.368 . S
H579 C587 0.950 . S
H580 C585 0.950 . S
H581 C586 0.949 . S
H582 C588 0.950 . S
H583 C589 0.950 . S
H584 C590 0.949 . S
C585 H580 0.950 . S
C585 C587 1.327 . S
C585 C591 1.429 . S
C586 C578 1.574 . S
C586 H581 0.949 . S
C586 C592 1.368 . S
C587 C571 1.349 1_455 S
C587 H579 0.950 . S
C587 C585 1.327 . S
C588 C576 1.349 . S
C588 H582 0.950 . S
C588 C589 1.327 . S
C589 H583 0.950 . S
C589 C588 1.327 . S
C589 C593 1.429 . S
C590 C573 1.574 . S
C590 H584 0.949 . S
C590 C594 1.368 . S
C591 C572 1.429 . S
C591 C585 1.429 . S
C591 C592 1.523 . S
C592 C573 1.368 . S
C592 C586 1.368 . S
C592 C591 1.523 . S
C593 C577 1.429 . S
C593 C589 1.429 . S
C593 C594 1.523 . S
C594 C578 1.368 . S
C594 C590 1.368 . S
C594 C593 1.523 . S
H595 C570 0.950 . S
H596 C572 0.950 1_655 S
H597 C573 0.949 . S
H598 C575 0.950 . S
H599 C577 0.950 . S
C600 C601 1.349 . S
C600 C602 1.327 . S
C600 H625 0.950 . S
C601 C600 1.349 . S
C601 C617 1.349 . S
C602 C600 1.327 . S
C602 C621 1.429 . S
C602 H626 0.950 . S
C603 C620 1.574 . S
C603 C622 1.368 . S
C603 H627 0.949 . S
H604 C608 0.949 . S
C605 C606 1.349 . S
C605 C607 1.327 . S
C605 H628 0.950 . S
C606 C605 1.349 . S
C606 C618 1.349 . S
C607 C605 1.327 . S
C607 C623 1.429 . S
C607 H629 0.950 . S
C608 H604 0.949 . S
C608 C616 1.574 . S
C608 C624 1.368 . S
H609 C617 0.950 . S
H610 C615 0.950 . S
H611 C616 0.949 . S
H612 C618 0.950 . S
H613 C619 0.950 . S
H614 C620 0.949 . S
C615 H610 0.950 . S
C615 C617 1.327 . S
C615 C621 1.429 . S
C616 C608 1.574 . S
C616 H611 0.949 . S
C616 C622 1.368 . S
C617 C601 1.349 . S
C617 H609 0.950 . S
C617 C615 1.327 . S
C618 C606 1.349 . S
C618 H612 0.950 . S
C618 C619 1.327 . S
C619 H613 0.950 . S
C619 C618 1.327 . S
C619 C623 1.429 . S
C620 C603 1.574 . S
C620 H614 0.949 . S
C620 C624 1.368 . S
C621 C602 1.429 . S
C621 C615 1.429 . S
C621 C622 1.523 . S
C622 C603 1.368 . S
C622 C616 1.368 . S
C622 C621 1.523 . S
C623 C607 1.429 . S
C623 C619 1.429 . S
C623 C624 1.523 . S
C624 C608 1.368 . S
C624 C620 1.368 . S
C624 C623 1.523 . S
H625 C600 0.950 . S
H626 C602 0.950 . S
H627 C603 0.949 . S
H628 C605 0.950 . S
H629 C607 0.950 . S
C630 C631 1.349 . S
C630 C632 1.327 . S
C630 H655 0.950 . S
C631 C630 1.349 . S
C631 C647 1.349 . S
C632 C630 1.327 . S
C632 C651 1.429 . S
C632 H656 0.950 . S
C633 C650 1.574 . S
C633 C652 1.368 . S
C633 H657 0.949 . S
H634 C638 0.949 . S
C635 C636 1.349 . S
C635 C637 1.327 . S
C635 H658 0.950 . S
C636 C635 1.349 . S
C636 C648 1.349 . S
C637 C635 1.327 . S
C637 C653 1.429 . S
C637 H659 0.950 . S
C638 H634 0.949 . S
C638 C646 1.574 . S
C638 C654 1.368 . S
H639 C647 0.950 . S
H640 C645 0.950 . S
H641 C646 0.949 . S
H642 C648 0.950 . S
H643 C649 0.950 . S
H644 C650 0.949 . S
C645 H640 0.950 . S
C645 C647 1.327 . S
C645 C651 1.429 . S
C646 C638 1.574 . S
C646 H641 0.949 . S
C646 C652 1.368 . S
C647 C631 1.349 . S
C647 H639 0.950 . S
C647 C645 1.327 . S
C648 C636 1.349 . S
C648 H642 0.950 . S
C648 C649 1.327 . S
C649 H643 0.950 . S
C649 C648 1.327 . S
C649 C653 1.429 . S
C650 C633 1.574 . S
C650 H644 0.949 . S
C650 C654 1.368 . S
C651 C632 1.429 . S
C651 C645 1.429 . S
C651 C652 1.523 . S
C652 C633 1.368 . S
C652 C646 1.368 . S
C652 C651 1.523 . S
C653 C637 1.429 . S
C653 C649 1.429 . S
C653 C654 1.523 . S
C654 C638 1.368 . S
C654 C650 1.368 . S
C654 C653 1.523 . S
H655 C630 0.950 . S
H656 C632 0.950 . S
H657 C633 0.949 . S
H658 C635 0.950 . S
H659 C637 0.950 . S
C660 C661 1.349 . S
C660 C662 1.327 . S
C660 H685 0.950 . S
C661 C660 1.349 . S
C661 C677 1.349 . S
C662 C660 1.327 . S
C662 C681 1.429 . S
C662 H686 0.950 . S
C663 C680 1.574 . S
C663 C682 1.368 . S
C663 H687 0.949 . S
H664 C668 0.949 . S
C665 C666 1.349 . S
C665 C667 1.327 . S
C665 H688 0.950 . S
C666 C665 1.349 . S
C666 C678 1.349 . S
C667 C665 1.327 . S
C667 C683 1.429 . S
C667 H689 0.950 . S
C668 H664 0.949 . S
C668 C676 1.574 . S
C668 C684 1.368 . S
H669 C677 0.950 . S
H670 C675 0.950 . S
H671 C676 0.949 . S
H672 C678 0.950 . S
H673 C679 0.950 . S
H674 C680 0.949 . S
C675 H670 0.950 . S
C675 C677 1.327 . S
C675 C681 1.429 . S
C676 C668 1.574 . S
C676 H671 0.949 . S
C676 C682 1.368 . S
C677 C661 1.349 . S
C677 H669 0.950 . S
C677 C675 1.327 . S
C678 C666 1.349 . S
C678 H672 0.950 . S
C678 C679 1.327 . S
C679 H673 0.950 . S
C679 C678 1.327 . S
C679 C683 1.429 . S
C680 C663 1.574 . S
C680 H674 0.949 . S
C680 C684 1.368 . S
C681 C662 1.429 . S
C681 C675 1.429 . S
C681 C682 1.523 . S
C682 C663 1.368 . S
C682 C676 1.368 . S
C682 C681 1.523 . S
C683 C667 1.429 . S
C683 C679 1.429 . S
C683 C684 1.523 . S
C684 C668 1.368 . S
C684 C680 1.368 . S
C684 C683 1.523 . S
H685 C660 0.950 . S
H686 C662 0.950 . S
H687 C663 0.949 . S
H688 C665 0.950 . S
H689 C667 0.950 . S
C690 C691 1.349 . S
C690 C692 1.327 . S
C690 H715 0.950 . S
C691 C690 1.349 . S
C691 C707 1.349 . S
C692 C690 1.327 . S
C692 C711 1.429 . S
C692 H716 0.950 . S
C693 C710 1.574 . S
C693 C712 1.368 . S
C693 H717 0.949 . S
H694 C698 0.949 . S
C695 C696 1.349 . S
C695 C697 1.327 . S
C695 H718 0.950 . S
C696 C695 1.349 . S
C696 C708 1.349 . S
C697 C695 1.327 . S
C697 C713 1.429 . S
C697 H719 0.950 . S
C698 H694 0.949 . S
C698 C706 1.574 . S
C698 C714 1.368 . S
H699 C707 0.950 . S
H700 C705 0.950 . S
H701 C706 0.949 . S
H702 C708 0.950 . S
H703 C709 0.950 . S
H704 C710 0.949 . S
C705 H700 0.950 . S
C705 C707 1.327 . S
C705 C711 1.429 . S
C706 C698 1.574 . S
C706 H701 0.949 . S
C706 C712 1.368 . S
C707 C691 1.349 . S
C707 H699 0.950 . S
C707 C705 1.327 . S
C708 C696 1.349 . S
C708 H702 0.950 . S
C708 C709 1.327 . S
C709 H703 0.950 . S
C709 C708 1.327 . S
C709 C713 1.429 . S
C710 C693 1.574 . S
C710 H704 0.949 . S
C710 C714 1.368 . S
C711 C692 1.429 . S
C711 C705 1.429 . S
C711 C712 1.523 . S
C712 C693 1.368 . S
C712 C706 1.368 . S
C712 C711 1.523 . S
C713 C697 1.429 . S
C713 C709 1.429 . S
C713 C714 1.523 . S
C714 C698 1.368 . S
C714 C710 1.368 . S
C714 C713 1.523 . S
H715 C690 0.950 . S
H716 C692 0.950 . S
H717 C693 0.949 . S
H718 C695 0.950 . S
H719 C697 0.950 . S
C720 C721 1.349 . S
C720 C722 1.327 . S
C720 H745 0.950 . S
C721 C720 1.349 . S
C721 C737 1.349 . S
C722 C720 1.327 . S
C722 C741 1.429 . S
C722 H746 0.950 . S
C723 C740 1.574 . S
C723 C742 1.368 . S
C723 H747 0.949 . S
H724 C728 0.949 . S
C725 C726 1.349 . S
C725 C727 1.327 . S
C725 H748 0.950 . S
C726 C725 1.349 . S
C726 C738 1.349 . S
C727 C725 1.327 . S
C727 C743 1.429 . S
C727 H749 0.950 . S
C728 H724 0.949 . S
C728 C736 1.574 . S
C728 C744 1.368 . S
H729 C737 0.950 . S
H730 C735 0.960 . S
H731 C736 0.949 1_655 S
H732 C738 0.950 . S
H733 C739 0.950 . S
H734 C740 0.949 . S
C735 H730 0.960 . S
C735 C737 1.327 . S
C735 C741 1.429 . S
C736 C728 1.574 . S
C736 H731 0.949 1_455 S
C736 C742 1.368 . S
C737 C721 1.349 . S
C737 H729 0.950 . S
C737 C735 1.327 . S
C738 C726 1.349 . S
C738 H732 0.950 . S
C738 C739 1.327 . S
C739 H733 0.950 . S
C739 C738 1.327 . S
C739 C743 1.429 . S
C740 C723 1.574 . S
C740 H734 0.949 . S
C740 C744 1.368 . S
C741 C722 1.429 . S
C741 C735 1.429 . S
C741 C742 1.523 1_655 S
C742 C723 1.368 . S
C742 C736 1.368 . S
C742 C741 1.523 1_455 S
C743 C727 1.429 . S
C743 C739 1.429 . S
C743 C744 1.523 . S
C744 C728 1.368 . S
C744 C740 1.368 . S
C744 C743 1.523 . S
H745 C720 0.950 . S
H746 C722 0.950 . S
H747 C723 0.949 . S
H748 C725 0.950 . S
H749 C727 0.950 . S
C750 C751 1.349 1_545 S
C750 C752 1.327 . S
C750 H775 0.950 . S
C751 C750 1.349 1_565 S
C751 C767 1.349 . S
C752 C750 1.327 . S
C752 C771 1.429 1_545 S
C752 H776 0.950 . S
C753 C770 1.574 . S
C753 C772 1.368 1_565 S
C753 H777 0.949 . S
H754 C758 0.949 . S
C755 C756 1.349 . S
C755 C757 1.327 . S
C755 H778 0.950 . S
C756 C755 1.349 . S
C756 C768 1.349 . S
C757 C755 1.327 . S
C757 C773 1.429 . S
C757 H779 0.950 1_545 S
C758 H754 0.949 . S
C758 C766 1.574 . S
C758 C774 1.368 . S
H759 C767 0.950 . S
H760 C765 0.950 . S
H761 C766 0.949 . S
H762 C768 0.950 . S
H763 C769 0.950 . S
H764 C770 0.949 . S
C765 H760 0.950 . S
C765 C767 1.327 . S
C765 C771 1.429 . S
C766 C758 1.574 . S
C766 H761 0.949 . S
C766 C772 1.368 . S
C767 C751 1.349 . S
C767 H759 0.950 . S
C767 C765 1.327 . S
C768 C756 1.349 . S
C768 H762 0.950 . S
C768 C769 1.327 . S
C769 H763 0.950 . S
C769 C768 1.327 . S
C769 C773 1.429 . S
C770 C753 1.574 . S
C770 H764 0.949 . S
C770 C774 1.368 1_565 S
C771 C752 1.429 1_565 S
C771 C765 1.429 . S
C771 C772 1.523 1_565 S
C772 C753 1.368 1_545 S
C772 C766 1.368 . S
C772 C771 1.523 1_545 S
C773 C757 1.429 . S
C773 C769 1.429 . S
C773 C774 1.523 . S
C774 C758 1.368 . S
C774 C770 1.368 1_545 S
C774 C773 1.523 . S
H775 C750 0.950 . S
H776 C752 0.950 . S
H777 C753 0.949 . S
H778 C755 0.950 . S
H779 C757 0.950 1_565 S
C241 C129 1.128 1_566 S
C246 C9 1.130 1_556 S
C271 C169 1.131 . S
C276 C49 1.131 . S
C301 C209 1.130 . S
C306 C89 1.130 1_655 S
C331 C15 0.576 . S
C336 C86 0.549 . S
C361 C55 0.575 . S
C366 C126 0.547 . S
C391 C95 0.576 . S
C396 C166 0.549 . S
C421 C135 0.576 . S
C426 C206 0.547 . S
C451 C175 0.575 . S
C456 C6 0.548 . S
C481 C215 0.576 . S
C486 C46 0.549 . S
C511 C18 1.002 . S
C516 C138 1.000 . S
C541 C58 1.003 . S
C546 C178 1.003 . S
C571 C98 1.005 . S
C576 C218 1.005 . S
C601 C10 3.894 . S
C606 C59 3.949 . S
C631 C50 3.894 . S
C636 C99 3.949 . S
C661 C90 3.893 . S
C666 C139 3.948 . S
C691 C130 3.894 . S
C696 C179 3.951 . S
C721 C170 3.894 . S
C726 C219 3.949 . S
C751 C210 3.894 . S
C756 C19 3.949 . S
